# Generated by pormake.
# Topology wkj, (6)-cn, num edge types: 1
# Building blocks:
#     Node 0, Type 0, BuildingBlock: PAMTOO_clean_sbu_0, # of connection points: 6
#     Node 1, Type 0, BuildingBlock: PAMTOO_clean_sbu_0, # of connection points: 6
#     Node 2, Type 0, BuildingBlock: PAMTOO_clean_sbu_0, # of connection points: 6
#     Node 3, Type 0, BuildingBlock: PAMTOO_clean_sbu_0, # of connection points: 6
#     Node 4, Type 0, BuildingBlock: PAMTOO_clean_sbu_0, # of connection points: 6
#     Node 5, Type 0, BuildingBlock: PAMTOO_clean_sbu_0, # of connection points: 6
#     Node 6, Type 0, BuildingBlock: PAMTOO_clean_sbu_0, # of connection points: 6
#     Node 7, Type 0, BuildingBlock: PAMTOO_clean_sbu_0, # of connection points: 6
#     Node 8, Type 0, BuildingBlock: PAMTOO_clean_sbu_0, # of connection points: 6
#     Node 9, Type 0, BuildingBlock: PAMTOO_clean_sbu_0, # of connection points: 6
#     Node 10, Type 0, BuildingBlock: PAMTOO_clean_sbu_0, # of connection points: 6
#     Node 11, Type 0, BuildingBlock: PAMTOO_clean_sbu_0, # of connection points: 6
#     Edge 12, Type (0, 0), BuildingBlock: UVAHIK_clean_linker_0, # of connection points: 2
#     Edge 13, Type (0, 0), BuildingBlock: UVAHIK_clean_linker_0, # of connection points: 2
#     Edge 14, Type (0, 0), BuildingBlock: UVAHIK_clean_linker_0, # of connection points: 2
#     Edge 15, Type (0, 0), BuildingBlock: UVAHIK_clean_linker_0, # of connection points: 2
#     Edge 16, Type (0, 0), BuildingBlock: UVAHIK_clean_linker_0, # of connection points: 2
#     Edge 17, Type (0, 0), BuildingBlock: UVAHIK_clean_linker_0, # of connection points: 2
#     Edge 18, Type (0, 0), BuildingBlock: UVAHIK_clean_linker_0, # of connection points: 2
#     Edge 19, Type (0, 0), BuildingBlock: UVAHIK_clean_linker_0, # of connection points: 2
#     Edge 20, Type (0, 0), BuildingBlock: UVAHIK_clean_linker_0, # of connection points: 2
#     Edge 21, Type (0, 0), BuildingBlock: UVAHIK_clean_linker_0, # of connection points: 2
#     Edge 22, Type (0, 0), BuildingBlock: UVAHIK_clean_linker_0, # of connection points: 2
#     Edge 23, Type (0, 0), BuildingBlock: UVAHIK_clean_linker_0, # of connection points: 2
#     Edge 24, Type (0, 0), BuildingBlock: UVAHIK_clean_linker_0, # of connection points: 2
#     Edge 25, Type (0, 0), BuildingBlock: UVAHIK_clean_linker_0, # of connection points: 2
#     Edge 26, Type (0, 0), BuildingBlock: UVAHIK_clean_linker_0, # of connection points: 2
#     Edge 27, Type (0, 0), BuildingBlock: UVAHIK_clean_linker_0, # of connection points: 2
#     Edge 28, Type (0, 0), BuildingBlock: UVAHIK_clean_linker_0, # of connection points: 2
#     Edge 29, Type (0, 0), BuildingBlock: UVAHIK_clean_linker_0, # of connection points: 2
#     Edge 30, Type (0, 0), BuildingBlock: UVAHIK_clean_linker_0, # of connection points: 2
#     Edge 31, Type (0, 0), BuildingBlock: UVAHIK_clean_linker_0, # of connection points: 2
#     Edge 32, Type (0, 0), BuildingBlock: UVAHIK_clean_linker_0, # of connection points: 2
#     Edge 33, Type (0, 0), BuildingBlock: UVAHIK_clean_linker_0, # of connection points: 2
#     Edge 34, Type (0, 0), BuildingBlock: UVAHIK_clean_linker_0, # of connection points: 2
#     Edge 35, Type (0, 0), BuildingBlock: UVAHIK_clean_linker_0, # of connection points: 2
#     Edge 36, Type (0, 0), BuildingBlock: UVAHIK_clean_linker_0, # of connection points: 2
#     Edge 37, Type (0, 0), BuildingBlock: UVAHIK_clean_linker_0, # of connection points: 2
#     Edge 38, Type (0, 0), BuildingBlock: UVAHIK_clean_linker_0, # of connection points: 2
#     Edge 39, Type (0, 0), BuildingBlock: UVAHIK_clean_linker_0, # of connection points: 2
#     Edge 40, Type (0, 0), BuildingBlock: UVAHIK_clean_linker_0, # of connection points: 2
#     Edge 41, Type (0, 0), BuildingBlock: UVAHIK_clean_linker_0, # of connection points: 2
#     Edge 42, Type (0, 0), BuildingBlock: UVAHIK_clean_linker_0, # of connection points: 2
#     Edge 43, Type (0, 0), BuildingBlock: UVAHIK_clean_linker_0, # of connection points: 2
#     Edge 44, Type (0, 0), BuildingBlock: UVAHIK_clean_linker_0, # of connection points: 2
#     Edge 45, Type (0, 0), BuildingBlock: UVAHIK_clean_linker_0, # of connection points: 2
#     Edge 46, Type (0, 0), BuildingBlock: UVAHIK_clean_linker_0, # of connection points: 2
#     Edge 47, Type (0, 0), BuildingBlock: UVAHIK_clean_linker_0, # of connection points: 2
# Relax obj value: 0.617
# Max RMSD: 0.191
# Mean RMSD: 0.191
data_MOF--net-wkj--node1-PAMTOO_clean_sbu_0--edge1-UVAHIK_clean_linker_0
_symmetry_space_group_name_H-M    P1
_symmetry_Int_Tables_number       1
_symmetry_cell_setting            triclinic
loop_
_symmetry_equiv_pos_as_xyz
'x, y, z'
_cell_length_a     61.653973
_cell_length_b     61.510549
_cell_length_c     37.338975
_cell_angle_alpha  89.889477
_cell_angle_beta   89.942955
_cell_angle_gamma 119.88029
loop_
_atom_site_label
_atom_site_type_symbol
_atom_site_fract_x
_atom_site_fract_y
_atom_site_fract_z
_atom_type_partial_charge
Dy0 Dy 0.52017 0.10193 0.33448 0.0
Dy1 Dy 0.4639 0.08916 0.3533 0.0
C2 C 0.50212 0.14153 0.31838 0.0
O3 O 0.52261 0.10331 0.39386 0.0
O4 O 0.48511 0.10082 0.40795 0.0
O5 O 0.55987 0.12603 0.34128 0.0
O6 O 0.54607 0.0954 0.30341 0.0
O7 O 0.46363 0.05748 0.37981 0.0
O8 O 0.50236 0.06379 0.36211 0.0
O9 O 0.45923 0.06635 0.30271 0.0
O10 O 0.49941 0.08839 0.28206 0.0
O11 O 0.42375 0.0673 0.34971 0.0
O12 O 0.44138 0.10397 0.37476 0.0
C13 C 0.5072 0.1036 0.41783 0.0
O14 O 0.52047 0.13882 0.33104 0.0
O15 O 0.47969 0.12209 0.31652 0.0
C16 C 0.58023 0.13479 0.28639 0.0
C17 C 0.60524 0.17652 0.24049 0.0
C18 C 0.61747 0.17409 0.27069 0.0
C19 C 0.60499 0.15339 0.29357 0.0
C20 C 0.56846 0.13668 0.25538 0.0
C21 C 0.58087 0.15722 0.23259 0.0
C22 C 0.56534 0.11635 0.31416 0.0
C23 C 0.48094 0.05119 0.37994 0.0
C24 C 0.47577 0.07155 0.2768 0.0
C25 C 0.40249 0.07303 0.39737 0.0
C26 C 0.36712 0.05082 0.45271 0.0
C27 C 0.39105 0.05339 0.45585 0.0
C28 C 0.40858 0.06439 0.42838 0.0
C29 C 0.37879 0.07071 0.3941 0.0
C30 C 0.36119 0.05965 0.42158 0.0
C31 C 0.42038 0.08351 0.36778 0.0
H32 H 0.63625 0.18864 0.27738 0.0
H33 H 0.61422 0.15248 0.31774 0.0
H34 H 0.54924 0.12282 0.24945 0.0
H35 H 0.57116 0.15819 0.20901 0.0
H36 H 0.39605 0.04638 0.47922 0.0
H37 H 0.42678 0.06587 0.43109 0.0
H38 H 0.37385 0.07725 0.37018 0.0
H39 H 0.34299 0.05808 0.41855 0.0
Dy40 Dy 0.4258 0.51873 0.66592 0.0
Dy41 Dy 0.38416 0.46195 0.68712 0.0
C42 C 0.36695 0.49874 0.65424 0.0
O43 O 0.4176 0.5219 0.72373 0.0
O44 O 0.40065 0.48105 0.7412 0.0
O45 O 0.43937 0.55788 0.676 0.0
O46 O 0.45741 0.54713 0.63585 0.0
O47 O 0.41923 0.46103 0.69348 0.0
O48 O 0.44638 0.50346 0.69804 0.0
O49 O 0.39227 0.46023 0.62741 0.0
O50 O 0.42942 0.49697 0.62043 0.0
O51 O 0.36126 0.42311 0.6722 0.0
O52 O 0.35629 0.4356 0.72394 0.0
C53 C 0.41182 0.50522 0.74933 0.0
O54 O 0.3896 0.51237 0.64099 0.0
O55 O 0.36243 0.48153 0.67834 0.0
C56 C 0.44861 0.57974 0.62178 0.0
C57 C 0.42356 0.59556 0.57466 0.0
C58 C 0.42735 0.6035 0.61043 0.0
C59 C 0.43989 0.59573 0.6338 0.0
C60 C 0.44711 0.5741 0.58514 0.0
C61 C 0.43476 0.58199 0.56183 0.0
C62 C 0.45404 0.56511 0.64814 0.0
C63 C 0.4406 0.47992 0.70346 0.0
C64 C 0.4126 0.47485 0.60831 0.0
C65 C 0.35175 0.39548 0.72073 0.0
C66 C 0.35457 0.35726 0.75838 0.0
C67 C 0.37576 0.3763 0.7408 0.0
C68 C 0.37439 0.3953 0.7223 0.0
C69 C 0.33037 0.37616 0.73714 0.0
C70 C 0.33174 0.35716 0.75584 0.0
C71 C 0.35069 0.41638 0.70354 0.0
H72 H 0.41914 0.61418 0.62092 0.0
H73 H 0.44098 0.60056 0.66189 0.0
H74 H 0.45389 0.56212 0.57481 0.0
H75 H 0.4328 0.5763 0.53403 0.0
H76 H 0.39354 0.37676 0.74188 0.0
H77 H 0.39112 0.41011 0.70979 0.0
H78 H 0.31278 0.37612 0.73628 0.0
H79 H 0.31517 0.343 0.7695 0.0
Dy80 Dy 0.91508 0.42729 0.99773 0.0
Dy81 Dy 0.92388 0.38144 1.01376 0.0
C82 C 0.87201 0.37086 0.98572 0.0
O83 O 0.90578 0.42007 1.05655 0.0
O84 O 0.92142 0.39428 1.07107 0.0
O85 O 0.89094 0.4423 1.00977 0.0
O86 O 0.91992 0.46038 0.96978 0.0
O87 O 0.95906 0.4124 1.03473 0.0
O88 O 0.95128 0.44535 1.02898 0.0
O89 O 0.9335 0.39147 0.95395 0.0
O90 O 0.94145 0.43189 0.95327 0.0
O91 O 0.9457 0.36289 1.00933 0.0
O92 O 0.9071 0.3421 1.02642 0.0
C93 C 0.91259 0.40919 1.081 0.0
O94 O 0.88442 0.39279 0.96996 0.0
O95 O 0.88272 0.36594 1.01202 0.0
C96 C 0.87924 0.45372 0.95685 0.0
C97 C 0.83652 0.4308 0.91292 0.0
C98 C 0.83476 0.43822 0.94782 0.0
C99 C 0.85601 0.44966 0.96961 0.0
C100 C 0.88133 0.44845 0.92085 0.0
C101 C 0.8602 0.4372 0.89912 0.0
C102 C 0.89901 0.45771 0.98267 0.0
C103 C 0.96512 0.43574 1.04016 0.0
C104 C 0.94314 0.41364 0.93779 0.0
C105 C 0.93462 0.33018 1.05056 0.0
C106 C 0.94714 0.30772 0.10631 0.0
C107 C 0.94643 0.32996 0.11227 0.0
C108 C 0.94021 0.34109 1.08461 0.0
C109 C 0.9353 0.30808 1.04433 0.0
C110 C 0.9416 0.29692 1.07203 0.0
C111 C 0.92779 0.34165 1.02163 0.0
H112 H 0.81678 0.43372 0.95902 0.0
H113 H 0.85391 0.45352 0.99731 0.0
H114 H 0.8989 0.45137 0.91004 0.0
H115 H 0.86223 0.43239 0.8719 0.0
H116 H 0.95114 0.33904 0.13818 0.0
H117 H 0.93985 0.35825 1.08973 0.0
H118 H 0.93095 0.29946 1.01809 0.0
H119 H 0.94197 0.2798 1.06673 0.0
Dy120 Dy 0.50137 0.91902 0.33453 0.0
Dy121 Dy 0.55537 0.92589 0.35255 0.0
C122 C 0.51267 0.87373 0.32319 0.0
O123 O 0.49752 0.90353 0.39034 0.0
O124 O 0.5382 0.92711 0.40693 0.0
O125 O 0.46373 0.90744 0.35221 0.0
O126 O 0.47498 0.92083 0.29828 0.0
O127 O 0.56281 0.96461 0.35694 0.0
O128 O 0.52222 0.95545 0.36543 0.0
O129 O 0.55582 0.93415 0.29226 0.0
O130 O 0.52579 0.94557 0.29181 0.0
O131 O 0.5931 0.93675 0.33644 0.0
O132 O 0.57909 0.91895 0.38779 0.0
C133 C 0.51418 0.91446 0.41581 0.0
O134 O 0.50194 0.88567 0.30919 0.0
O135 O 0.53027 0.88477 0.34707 0.0
C136 C 0.43471 0.8868 0.30639 0.0
C137 C 0.39722 0.84531 0.2691 0.0
C138 C 0.41748 0.84426 0.28462 0.0
C139 C 0.43598 0.86477 0.30312 0.0
C140 C 0.41382 0.8875 0.29318 0.0
C141 C 0.39509 0.86682 0.27487 0.0
C142 C 0.4563 0.90952 0.32046 0.0
C143 C 0.54662 0.97073 0.36849 0.0
C144 C 0.54467 0.94521 0.2761 0.0
C145 C 0.62172 0.94959 0.38481 0.0
C146 C 0.66378 0.98543 0.42324 0.0
C147 C 0.65405 0.99285 0.39463 0.0
C148 C 0.63313 0.97513 0.37574 0.0
C149 C 0.63189 0.94202 0.41241 0.0
C150 C 0.65262 0.95973 0.43155 0.0
C151 C 0.59862 0.93069 0.36716 0.0
H152 H 0.42012 0.82832 0.28039 0.0
H153 H 0.45195 0.86388 0.31331 0.0
H154 H 0.41251 0.90435 0.29569 0.0
H155 H 0.37957 0.86814 0.26376 0.0
H156 H 0.66234 0.01242 0.38718 0.0
H157 H 0.62563 0.98149 0.35454 0.0
H158 H 0.62332 0.92242 0.4199 0.0
H159 H 0.65921 0.95329 0.4538 0.0
Dy160 Dy 0.58685 0.49258 0.66192 0.0
Dy161 Dy 0.63172 0.54755 0.67994 0.0
C162 C 0.64384 0.50562 0.65814 0.0
O163 O 0.59613 0.48892 0.71922 0.0
O164 O 0.616 0.53023 0.7354 0.0
O165 O 0.56079 0.45456 0.67863 0.0
O166 O 0.56236 0.4652 0.62324 0.0
O167 O 0.59854 0.55208 0.67582 0.0
O168 O 0.56985 0.51225 0.69217 0.0
O169 O 0.62469 0.54752 0.61938 0.0
O170 O 0.58387 0.51615 0.6183 0.0
O171 O 0.64651 0.58466 0.70122 0.0
O172 O 0.67126 0.57453 0.674 0.0
C173 C 0.60341 0.50612 0.7444 0.0
O174 O 0.62255 0.49524 0.64068 0.0
O175 O 0.64766 0.52204 0.68304 0.0
C176 C 0.56176 0.42752 0.63461 0.0
C177 C 0.58524 0.4036 0.60111 0.0
C178 C 0.59251 0.41369 0.63562 0.0
C179 C 0.581 0.42569 0.65212 0.0
C180 C 0.55264 0.41505 0.60202 0.0
C181 C 0.56427 0.40322 0.58537 0.0
C182 C 0.55543 0.44669 0.64575 0.0
C183 C 0.57758 0.53648 0.6915 0.0
C184 C 0.60279 0.53553 0.60272 0.0
C185 C 0.68786 0.6036 0.72164 0.0
C186 C 0.71891 0.6324 0.77838 0.0
C187 C 0.69697 0.60937 0.78512 0.0
C188 C 0.68169 0.59506 0.75701 0.0
C189 C 0.71051 0.62551 0.71444 0.0
C190 C 0.72603 0.63974 0.74257 0.0
C191 C 0.66956 0.59144 0.69287 0.0
H192 H 0.60827 0.41393 0.64878 0.0
H193 H 0.58855 0.4352 0.67728 0.0
H194 H 0.53799 0.41639 0.58791 0.0
H195 H 0.55822 0.39588 0.55866 0.0
H196 H 0.69053 0.60312 0.81217 0.0
H197 H 0.66429 0.57808 0.76308 0.0
H198 H 0.71562 0.63225 0.68718 0.0
H199 H 0.74301 0.65706 0.73631 0.0
Dy200 Dy 0.10567 0.58896 0.9933 0.0
Dy201 Dy 0.09356 0.63276 1.01347 0.0
C202 C 0.14702 0.64673 0.98678 0.0
O203 O 0.11493 0.59455 1.05199 0.0
O204 O 0.09766 0.61852 1.06887 0.0
O205 O 0.13117 0.57506 1.00133 0.0
O206 O 0.09975 0.55556 0.9654 0.0
O207 O 0.0568 0.59836 1.00997 0.0
O208 O 0.07024 0.57144 1.02638 0.0
O209 O 0.08368 0.62489 0.95368 0.0
O210 O 0.08096 0.58648 0.9476 0.0
O211 O 0.07281 0.64755 1.04026 0.0
O212 O 0.10289 0.67114 1.00381 0.0
C213 C 0.10752 0.60426 1.07731 0.0
O214 O 0.13623 0.62534 0.96947 0.0
O215 O 0.13503 0.64989 1.01326 0.0
C216 C 0.13935 0.56148 0.94788 0.0
C217 C 0.18126 0.57968 0.90233 0.0
C218 C 0.18004 0.56633 0.93355 0.0
C219 C 0.15922 0.55736 0.95625 0.0
C220 C 0.13989 0.57338 0.91555 0.0
C221 C 0.16055 0.58223 0.89292 0.0
C222 C 0.12131 0.55856 0.97586 0.0
C223 C 0.05281 0.57791 1.02608 0.0
C224 C 0.0768 0.60407 0.93504 0.0
C225 C 0.09624 0.69016 1.05407 0.0
C226 C 0.10684 0.7231 0.11197 0.0
C227 C 0.11623 0.7064 0.11128 0.0
C228 C 0.11097 0.69007 1.08254 0.0
C229 C 0.08844 0.70799 1.05322 0.0
C230 C 0.0938 0.72445 1.0819 0.0
C231 C 0.08677 0.6701 1.02741 0.0
H232 H 0.19569 0.56402 0.94137 0.0
H233 H 0.15932 0.54859 0.9814 0.0
H234 H 0.125 0.57714 0.90866 0.0
H235 H 0.16066 0.59185 0.86853 0.0
H236 H 0.12602 0.70455 0.1341 0.0
H237 H 0.11714 0.67638 1.0835 0.0
H238 H 0.07716 0.70835 1.03124 0.0
H239 H 0.08659 0.73731 1.08141 0.0
Dy240 Dy 0.91355 0.49184 0.53746 0.0
Dy241 Dy 0.92482 0.54669 0.50991 0.0
C242 C 0.87058 0.50855 0.54254 0.0
O243 O 0.91966 0.49072 0.4779 0.0
O244 O 0.91493 0.52342 0.45813 0.0
O245 O 0.89308 0.45202 0.52742 0.0
O246 O 0.91822 0.4664 0.57249 0.0
O247 O 0.95657 0.54248 0.49363 0.0
O248 O 0.95585 0.51687 0.53816 0.0
O249 O 0.9424 0.55241 0.56586 0.0
O250 O 0.91982 0.51281 0.58916 0.0
O251 O 0.94614 0.58666 0.51725 0.0
O252 O 0.91902 0.57126 0.47449 0.0
C253 C 0.91667 0.50313 0.45138 0.0
O254 O 0.87592 0.49027 0.54169 0.0
O255 O 0.88737 0.53164 0.5346 0.0
C256 C 0.87837 0.43028 0.58179 0.0
C257 C 0.83457 0.40814 0.62381 0.0
C258 C 0.83362 0.40106 0.58793 0.0
C259 C 0.8554 0.41206 0.56704 0.0
C260 C 0.87954 0.43545 0.61858 0.0
C261 C 0.85786 0.42452 0.63931 0.0
C262 C 0.89951 0.44667 0.55799 0.0
C263 C 0.96833 0.5361 0.51647 0.0
C264 C 0.93602 0.5368 0.59348 0.0
C265 C 0.95615 0.60941 0.46386 0.0
C266 C 0.99443 0.64514 0.41966 0.0
C267 C 0.99349 0.62237 0.42817 0.0
C268 C 0.97436 0.60457 0.44967 0.0
C269 C 0.95689 0.63198 0.45567 0.0
C270 C 0.9758 0.64967 0.43354 0.0
C271 C 0.93722 0.5915 0.48865 0.0
H272 H 0.81589 0.38827 0.57553 0.0
H273 H 0.85398 0.40754 0.53881 0.0
H274 H 0.89691 0.4491 0.63101 0.0
H275 H 0.85914 0.42974 0.66726 0.0
H276 H 1.00768 0.61832 0.41854 0.0
H277 H 0.97395 0.58713 0.45557 0.0
H278 H 0.94291 0.63595 0.46644 0.0
H279 H 0.97561 0.66674 0.42704 0.0
Dy280 Dy 0.43173 0.91232 0.86696 0.0
Dy281 Dy 0.38892 0.92586 0.84674 0.0
C282 C 0.37365 0.87142 0.87118 0.0
O283 O 0.42792 0.90568 0.80742 0.0
O284 O 0.40289 0.92189 0.79111 0.0
O285 O 0.44525 0.88668 0.85758 0.0
O286 O 0.46412 0.91664 0.89594 0.0
O287 O 0.42374 0.96234 0.85032 0.0
O288 O 0.45043 0.94834 0.83524 0.0
O289 O 0.39578 0.93388 0.90715 0.0
O290 O 0.43407 0.93657 0.91338 0.0
O291 O 0.37585 0.94904 0.82299 0.0
O292 O 0.35017 0.91612 0.8536 0.0
C293 C 0.41788 0.91296 0.78234 0.0
O294 O 0.39484 0.88145 0.88885 0.0
O295 O 0.37098 0.88421 0.84532 0.0
C296 C 0.45842 0.87632 0.91058 0.0
C297 C 0.44261 0.83779 0.9621 0.0
C298 C 0.44048 0.83207 0.92549 0.0
C299 C 0.44856 0.85118 0.89996 0.0
C300 C 0.46236 0.88217 0.94719 0.0
C301 C 0.45456 0.86308 0.97269 0.0
C302 C 0.46118 0.89538 0.88392 0.0
C303 C 0.44427 0.96602 0.83497 0.0
C304 C 0.41634 0.94039 0.92616 0.0
C305 C 0.33392 0.92769 0.8044 0.0
C306 C 0.30126 0.92338 0.7486 0.0
C307 C 0.32344 0.92284 0.74132 0.0
C308 C 0.33949 0.9248 0.76895 0.0
C309 C 0.31113 0.92651 0.81223 0.0
C310 C 0.29482 0.9242 0.78458 0.0
C311 C 0.35268 0.93424 0.83267 0.0
H312 H 0.4316 0.81276 0.91663 0.0
H313 H 0.44565 0.8461 0.87189 0.0
H314 H 0.4701 0.90132 0.9563 0.0
H315 H 0.45632 0.86805 1.00077 0.0
H316 H 0.32939 0.92261 0.71412 0.0
H317 H 0.35693 0.92544 0.76237 0.0
H318 H 0.30643 0.92845 0.83956 0.0
H319 H 0.27771 0.92415 0.79131 0.0
Dy320 Dy 0.52333 0.42841 0.19767 0.0
Dy321 Dy 0.46814 0.38348 0.17785 0.0
C322 C 0.509 0.37121 0.20293 0.0
O323 O 0.52673 0.42348 0.1385 0.0
O324 O 0.48559 0.39898 0.12228 0.0
O325 O 0.56276 0.44226 0.19102 0.0
O326 O 0.55011 0.46304 0.22337 0.0
O327 O 0.46442 0.41698 0.18511 0.0
O328 O 0.50361 0.445 0.16647 0.0
O329 O 0.46613 0.39033 0.23818 0.0
O330 O 0.50163 0.42865 0.24569 0.0
O331 O 0.43225 0.36805 0.15223 0.0
O332 O 0.44045 0.34452 0.18642 0.0
C333 C 0.50948 0.41375 0.11341 0.0
O334 O 0.51847 0.39222 0.22108 0.0
O335 O 0.49402 0.368 0.17629 0.0
C336 C 0.58429 0.45907 0.24383 0.0
C337 C 0.6112 0.44719 0.29341 0.0
C338 C 0.62331 0.46199 0.2632 0.0
C339 C 0.60986 0.46777 0.23843 0.0
C340 C 0.57254 0.44536 0.27487 0.0
C341 C 0.58589 0.4396 0.29949 0.0
C342 C 0.56898 0.46004 0.2145 0.0
C343 C 0.47958 0.43768 0.1685 0.0
C344 C 0.48011 0.41058 0.25789 0.0
C345 C 0.41419 0.32583 0.13664 0.0
C346 C 0.39223 0.29398 1.07765 0.0
C347 C 0.41831 0.31003 1.07913 0.0
C348 C 0.4292 0.32587 0.1084 0.0
C349 C 0.38849 0.30867 0.13655 0.0
C350 C 0.37756 0.29277 0.10729 0.0
C351 C 0.42467 0.34541 0.164 0.0
H352 H 0.64279 0.4681 0.2579 0.0
H353 H 0.6191 0.47798 0.21426 0.0
H354 H 0.55273 0.43809 0.27931 0.0
H355 H 0.5762 0.42866 0.32295 0.0
H356 H 0.43012 0.31169 1.05658 0.0
H357 H 0.44912 0.33912 0.10811 0.0
H358 H 0.37669 0.30841 0.15826 0.0
H359 H 0.35747 0.28044 0.10707 0.0
Dy360 Dy 0.10536 0.52231 0.52753 0.0
Dy361 Dy 0.08946 0.46582 0.50743 0.0
C362 C 0.14229 0.50162 0.54178 0.0
O363 O 0.1062 0.52498 0.46795 0.0
O364 O 0.10489 0.48798 0.45406 0.0
O365 O 0.12771 0.56197 0.51682 0.0
O366 O 0.10461 0.54921 0.5642 0.0
O367 O 0.0618 0.47074 0.4765 0.0
O368 O 0.06568 0.50516 0.50665 0.0
O369 O 0.06639 0.46192 0.55746 0.0
O370 O 0.09198 0.50093 0.57998 0.0
O371 O 0.06449 0.42583 0.50578 0.0
O372 O 0.1037 0.44164 0.49147 0.0
C373 C 0.10783 0.51018 0.44416 0.0
O374 O 0.14083 0.5202 0.52726 0.0
O375 O 0.12184 0.48 0.54532 0.0
C376 C 0.14599 0.58237 0.56974 0.0
C377 C 0.1926 0.60856 0.60436 0.0
C378 C 0.1795 0.58223 0.6034 0.0
C379 C 0.15647 0.56932 0.58638 0.0
C380 C 0.15883 0.60865 0.57052 0.0
C381 C 0.18194 0.62171 0.58809 0.0
C382 C 0.12335 0.56812 0.54817 0.0
C383 C 0.05439 0.48692 0.48288 0.0
C384 C 0.07332 0.47785 0.58449 0.0
C385 C 0.07493 0.40396 0.46387 0.0
C386 C 0.06236 0.37029 0.40652 0.0
C387 C 0.06149 0.39263 0.40251 0.0
C388 C 0.0678 0.40937 0.43097 0.0
C389 C 0.07587 0.38182 0.46809 0.0
C390 C 0.06961 0.36506 0.43963 0.0
C391 C 0.08183 0.42137 0.49388 0.0
H392 H 0.18682 0.5715 0.61648 0.0
H393 H 0.14694 0.54902 0.58583 0.0
H394 H 0.15117 0.61901 0.55723 0.0
H395 H 0.19157 0.64201 0.58872 0.0
H396 H 0.05555 0.39699 0.37755 0.0
H397 H 0.06703 0.42647 0.42738 0.0
H398 H 0.0815 0.37752 0.49339 0.0
H399 H 0.07065 0.34814 0.44343 0.0
Dy400 Dy 0.58985 0.10342 0.86637 0.0
Dy401 Dy 0.63417 0.09254 0.84504 0.0
C402 C 0.64725 0.14683 0.86931 0.0
O403 O 0.59846 0.11685 0.80915 0.0
O404 O 0.6176 0.09506 0.79101 0.0
O405 O 0.56393 0.11597 0.85167 0.0
O406 O 0.56548 0.10546 0.90631 0.0
O407 O 0.60062 0.05506 0.84906 0.0
O408 O 0.57212 0.0671 0.8355 0.0
O409 O 0.62794 0.0842 0.90541 0.0
O410 O 0.58784 0.07707 0.90975 0.0
O411 O 0.64786 0.0701 0.82057 0.0
O412 O 0.67362 0.10422 0.84826 0.0
C413 C 0.60516 0.10692 0.78322 0.0
O414 O 0.62582 0.1363 0.88657 0.0
O415 O 0.65108 0.13422 0.84435 0.0
C416 C 0.56365 0.14219 0.89756 0.0
C417 C 0.58335 0.18882 0.93253 0.0
C418 C 0.56279 0.16718 0.94709 0.0
C419 C 0.55303 0.1441 0.92971 0.0
C420 C 0.58276 0.1641 0.88144 0.0
C421 C 0.59238 0.18721 0.89864 0.0
C422 C 0.55824 0.11731 0.88485 0.0
C423 C 0.57946 0.0503 0.83471 0.0
C424 C 0.60662 0.07542 0.92349 0.0
C425 C 0.68826 0.09316 0.79681 0.0
C426 C 0.71766 0.0996 0.73556 0.0
C427 C 0.69536 0.10057 0.73299 0.0
C428 C 0.68092 0.09756 0.76332 0.0
C429 C 0.71106 0.09352 0.80004 0.0
C430 C 0.72576 0.09686 0.76969 0.0
C431 C 0.67119 0.08609 0.82755 0.0
H432 H 0.5555 0.16752 0.97335 0.0
H433 H 0.53847 0.12744 0.94275 0.0
H434 H 0.59145 0.16319 0.85668 0.0
H435 H 0.60791 0.20353 0.88641 0.0
H436 H 0.68816 0.1022 0.7073 0.0
H437 H 0.66337 0.09744 0.76032 0.0
H438 H 0.71708 0.09034 0.82581 0.0
H439 H 0.74301 0.09647 0.77283 0.0
Dy440 Dy 0.49825 0.59196 0.19392 0.0
Dy441 Dy 0.55434 0.63565 0.17472 0.0
C442 C 0.51577 0.64959 0.20869 0.0
O443 O 0.49617 0.59037 0.13466 0.0
O444 O 0.53306 0.6259 0.12016 0.0
O445 O 0.45864 0.57521 0.18497 0.0
O446 O 0.47223 0.56021 0.22612 0.0
O447 O 0.55458 0.60438 0.14791 0.0
O448 O 0.51676 0.57174 0.16797 0.0
O449 O 0.55905 0.61744 0.22532 0.0
O450 O 0.519 0.59973 0.24641 0.0
O451 O 0.59452 0.65403 0.17805 0.0
O452 O 0.57667 0.67303 0.15328 0.0
C453 C 0.51122 0.60618 0.11054 0.0
O454 O 0.49754 0.62841 0.19626 0.0
O455 O 0.53822 0.65264 0.21106 0.0
C456 C 0.43632 0.5639 0.23849 0.0
C457 C 0.40977 0.58076 0.28078 0.0
C458 C 0.40035 0.56963 0.24735 0.0
C459 C 0.41355 0.56126 0.22637 0.0
C460 C 0.44492 0.57363 0.27279 0.0
C461 C 0.43168 0.58178 0.29378 0.0
C462 C 0.45286 0.5608 0.21306 0.0
C463 C 0.53781 0.58064 0.14916 0.0
C464 C 0.54264 0.60639 0.25148 0.0
C465 C 0.61541 0.68099 0.13011 0.0
C466 C 0.65025 0.69428 1.07402 0.0
C467 C 0.62655 0.67258 1.07163 0.0
C468 C 0.60927 0.66599 0.09946 0.0
C469 C 0.63888 0.7027 0.13265 0.0
C470 C 0.65623 0.70932 0.10479 0.0
C471 C 0.59774 0.67359 0.15998 0.0
H472 H 0.38347 0.56848 0.2367 0.0
H473 H 0.40671 0.55401 0.19983 0.0
H474 H 0.46246 0.57605 0.28284 0.0
H475 H 0.43902 0.58954 0.31992 0.0
H476 H 0.62154 0.66036 1.04857 0.0
H477 H 0.59125 0.64903 1.0973 0.0
H478 H 0.64385 0.71442 0.15627 0.0
H479 H 0.67425 0.72622 0.10726 0.0
C480 C 0.48488 0.16931 0.3003 0.0
C481 C 0.50589 0.16653 0.30662 0.0
C482 C 0.48752 0.19227 0.28927 0.0
C483 C 0.53274 0.26128 0.28234 0.0
H484 H 0.48201 0.25822 0.21806 0.0
C485 C 0.52278 0.34917 0.24751 0.0
C486 C 0.51316 0.35008 0.21368 0.0
C487 C 0.52418 0.32791 0.2583 0.0
C488 C 0.49663 0.25969 0.23562 0.0
H489 H 0.54641 0.18633 0.30629 0.0
H490 H 0.55109 0.22652 0.28613 0.0
H491 H 0.48079 0.2199 0.23633 0.0
H492 H 0.49875 0.32963 0.16409 0.0
H493 H 0.50195 0.29342 0.18209 0.0
H494 H 0.54894 0.30135 0.28061 0.0
C495 C 0.53244 0.21082 0.29032 0.0
C496 C 0.49567 0.23744 0.24671 0.0
C497 C 0.52978 0.18769 0.30173 0.0
C498 C 0.50597 0.3296 0.19051 0.0
C499 C 0.50761 0.30858 0.20106 0.0
C500 C 0.53379 0.28369 0.27102 0.0
C501 C 0.51128 0.21343 0.28364 0.0
C502 C 0.5135 0.23772 0.27059 0.0
C503 C 0.51617 0.30701 0.23545 0.0
C504 C 0.51567 0.28328 0.24751 0.0
H505 H 0.46614 0.15367 0.30419 0.0
H506 H 0.4707 0.19339 0.28551 0.0
H507 H 0.54677 0.26245 0.30087 0.0
H508 H 0.52846 0.36454 0.26614 0.0
H509 H 0.53076 0.32757 0.28504 0.0
C510 C 0.34905 0.522 0.61939 0.0
C511 C 0.3456 0.50203 0.64179 0.0
C512 C 0.32849 0.5246 0.60861 0.0
C513 C 0.26102 0.50184 0.63265 0.0
H514 H 0.25721 0.52575 0.53808 0.0
C515 C 0.16735 0.48511 0.57319 0.0
C516 C 0.16678 0.50458 0.55408 0.0
C517 C 0.19007 0.48718 0.58415 0.0
C518 C 0.25807 0.51927 0.56475 0.0
H519 H 0.31736 0.46883 0.66939 0.0
H520 H 0.28213 0.47291 0.65022 0.0
H521 H 0.29501 0.52494 0.55607 0.0
H522 H 0.19014 0.5417 0.53172 0.0
H523 H 0.22993 0.54519 0.55054 0.0
H524 H 0.22394 0.49558 0.64104 0.0
C525 C 0.30062 0.48715 0.64169 0.0
C526 C 0.27984 0.51884 0.57516 0.0
C527 C 0.32102 0.48467 0.65257 0.0
C528 C 0.18977 0.52629 0.54633 0.0
C529 C 0.21262 0.52825 0.55697 0.0
C530 C 0.23928 0.50204 0.62215 0.0
C531 C 0.30389 0.50726 0.61984 0.0
C532 C 0.28153 0.50968 0.60913 0.0
C533 C 0.2131 0.5087 0.57613 0.0
C534 C 0.23725 0.51038 0.58786 0.0
H535 H 0.36765 0.53577 0.61046 0.0
H536 H 0.33199 0.54045 0.59194 0.0
H537 H 0.26163 0.4954 0.65943 0.0
H538 H 0.15015 0.46807 0.57969 0.0
H539 H 0.18957 0.47161 0.59846 0.0
C540 C 0.83523 0.35336 0.94223 0.0
C541 C 0.84676 0.35073 0.97322 0.0
C542 C 0.81213 0.33343 0.93021 0.0
C543 C 0.75708 0.27229 0.96051 0.0
H544 H 0.74717 0.25706 0.85925 0.0
C545 C 0.66534 0.18663 0.90667 0.0
C546 C 0.66804 0.17251 0.87913 0.0
C547 C 0.68561 0.20999 0.91703 0.0
C548 C 0.74958 0.26091 0.88769 0.0
H549 H 0.84243 0.3249 1.01598 0.0
H550 H 0.80289 0.29071 0.99524 0.0
H551 H 0.78497 0.29442 0.87957 0.0
H552 H 0.69441 0.17257 0.84057 0.0
H553 H 0.72938 0.21271 0.85864 0.0
H554 H 0.72215 0.23844 0.96882 0.0
C555 C 0.81132 0.3081 0.98022 0.0
C556 C 0.77124 0.28263 0.89935 0.0
C557 C 0.83428 0.32784 0.99206 0.0
C558 C 0.69143 0.18277 0.86181 0.0
C559 C 0.7116 0.20604 0.87209 0.0
C560 C 0.73542 0.25064 0.94887 0.0
C561 C 0.79983 0.31039 0.949 0.0
C562 C 0.7756 0.28847 0.93604 0.0
C563 C 0.70919 0.22 0.90012 0.0
C564 C 0.73144 0.2443 0.91229 0.0
H565 H 0.84419 0.37067 0.927 0.0
H566 H 0.80387 0.33612 0.90623 0.0
H567 H 0.7594 0.27621 0.98894 0.0
H568 H 0.64765 0.17952 0.92058 0.0
H569 H 0.68274 0.2202 0.93836 0.0
C570 C 0.488 0.66845 0.22302 0.0
C571 C 0.51191 0.67092 0.21961 0.0
C572 C 0.4853 0.68903 0.23364 0.0
C573 C 0.52136 0.75166 0.27874 0.0
H574 H 0.47011 0.7643 0.24111 0.0
C575 C 0.51124 0.83297 0.33531 0.0
C576 C 0.50623 0.84784 0.31183 0.0
C577 C 0.50877 0.8101 0.32427 0.0
C578 C 0.48466 0.76119 0.25176 0.0
H579 H 0.55164 0.69752 0.22376 0.0
H580 H 0.54701 0.73281 0.24119 0.0
H581 H 0.47214 0.72738 0.22113 0.0
H582 H 0.49354 0.84947 0.25839 0.0
H583 H 0.48974 0.8096 0.23858 0.0
H584 H 0.53456 0.78558 0.3083 0.0
C585 C 0.5302 0.71499 0.23682 0.0
C586 C 0.48565 0.73976 0.24058 0.0
C587 C 0.53287 0.69457 0.22653 0.0
C588 C 0.49752 0.83852 0.27723 0.0
C589 C 0.49534 0.81558 0.26591 0.0
C590 C 0.52044 0.77295 0.28972 0.0
C591 C 0.50642 0.71263 0.24104 0.0
C592 C 0.50418 0.73475 0.25372 0.0
C593 C 0.5016 0.80131 0.28904 0.0
C594 C 0.50209 0.77818 0.27659 0.0
H595 H 0.4714 0.65057 0.2179 0.0
H596 H 0.46663 0.68628 0.23672 0.0
H597 H 0.53569 0.74848 0.29013 0.0
H598 H 0.5176 0.83925 0.36235 0.0
H599 H 0.51294 0.79948 0.34347 0.0
C600 C 0.66336 0.4865 0.61794 0.0
C601 C 0.66465 0.50075 0.64824 0.0
C602 C 0.68413 0.48421 0.60735 0.0
C603 C 0.7536 0.51756 0.61766 0.0
H604 H 0.7494 0.45828 0.57459 0.0
C605 C 0.83908 0.523 0.54741 0.0
C606 C 0.84501 0.50387 0.55285 0.0
C607 C 0.8162 0.52026 0.55867 0.0
C608 C 0.75093 0.47494 0.58681 0.0
H609 H 0.6887 0.52267 0.69197 0.0
H610 H 0.72424 0.51838 0.6741 0.0
H611 H 0.71116 0.45745 0.59542 0.0
H612 H 0.83054 0.46626 0.57386 0.0
H613 H 0.79026 0.46146 0.59385 0.0
H614 H 0.79311 0.53508 0.60946 0.0
C615 C 0.70752 0.50944 0.65782 0.0
C616 C 0.72893 0.47456 0.59846 0.0
C617 C 0.68692 0.51176 0.66829 0.0
C618 C 0.82674 0.48143 0.56914 0.0
C619 C 0.8036 0.47867 0.58055 0.0
C620 C 0.77541 0.51797 0.60595 0.0
C621 C 0.70676 0.49612 0.62675 0.0
C622 C 0.72994 0.49592 0.61412 0.0
C623 C 0.79819 0.4983 0.57603 0.0
C624 C 0.77452 0.49679 0.59005 0.0
H625 H 0.64655 0.47768 0.60181 0.0
H626 H 0.68271 0.47386 0.58322 0.0
H627 H 0.75536 0.53455 0.62901 0.0
H628 H 0.85229 0.54046 0.53455 0.0
H629 H 0.81266 0.53558 0.55377 0.0
C630 C 0.35382 0.83102 0.90778 0.0
C631 C 0.35179 0.84656 0.88177 0.0
C632 C 0.33267 0.80831 0.91845 0.0
C633 C 0.26338 0.77771 0.92238 0.0
H634 H 0.26422 0.71575 0.93748 0.0
C635 C 0.18065 0.69208 0.99072 0.0
C636 C 0.17186 0.66823 0.97539 0.0
C637 C 0.20313 0.71283 0.97935 0.0
C638 C 0.26363 0.73287 0.93324 0.0
H639 H 0.32565 0.84981 0.84636 0.0
H640 H 0.28921 0.81079 0.86502 0.0
H641 H 0.30242 0.75359 0.91765 0.0
H642 H 0.18061 0.64768 0.93634 0.0
H643 H 0.22021 0.68403 0.91671 0.0
H644 H 0.22481 0.75728 0.938 0.0
C645 C 0.30705 0.8161 0.87738 0.0
C646 C 0.28562 0.75465 0.92217 0.0
C647 C 0.32811 0.83852 0.86648 0.0
C648 C 0.18668 0.66571 0.94877 0.0
C649 C 0.20947 0.68656 0.93761 0.0
C650 C 0.2416 0.75613 0.93385 0.0
C651 C 0.30887 0.80071 0.90377 0.0
C652 C 0.28577 0.77739 0.91639 0.0
C653 C 0.21784 0.71054 0.95241 0.0
C654 C 0.24131 0.73334 0.93947 0.0
H655 H 0.3717 0.8365 0.92015 0.0
H656 H 0.33483 0.79705 0.93894 0.0
H657 H 0.26271 0.79482 0.9186 0.0
H658 H 0.16992 0.69492 1.0113 0.0
H659 H 0.20904 0.73081 0.99181 0.0
C660 C 0.62407 0.22311 0.9564 0.0
C661 C 0.59778 0.2113 0.95545 0.0
C662 C 0.63737 0.23867 0.98498 0.0
C663 C 0.64981 0.23803 1.06207 0.0
H664 H 0.62474 0.26807 0.12948 0.0
C665 C 0.60322 0.20915 0.20307 0.0
C666 C 0.61738 0.19893 0.21691 0.0
C667 C 0.61246 0.22643 0.17505 0.0
C668 C 0.63221 0.2599 0.11099 0.0
H669 H 0.56539 0.20993 0.98049 0.0
H670 H 0.58828 0.23594 1.03106 0.0
H671 H 0.61917 0.27126 1.06534 0.0
H672 H 0.65371 0.20146 0.21587 0.0
H673 H 0.67028 0.23232 0.1675 0.0
H674 H 0.66059 0.22446 0.10702 0.0
C675 C 0.5988 0.23343 1.00983 0.0
C676 C 0.62909 0.26182 1.07422 0.0
C677 C 0.58554 0.21812 0.98103 0.0
C678 C 0.64219 0.20869 0.20528 0.0
C679 C 0.65161 0.22627 0.1774 0.0
C680 C 0.65271 0.23591 0.09867 0.0
C681 C 0.62461 0.24236 1.01342 0.0
C682 C 0.6362 0.24927 1.04955 0.0
C683 C 0.63625 0.2341 0.16039 0.0
C684 C 0.64216 0.24509 0.12364 0.0
H685 H 0.63427 0.21849 0.93713 0.0
H686 H 0.65733 0.24577 0.98651 0.0
H687 H 0.65564 0.22814 1.04404 0.0
H688 H 0.5843 0.20261 0.21241 0.0
H689 H 0.59993 0.23188 0.16298 0.0
C690 C 0.41239 0.61455 0.32037 0.0
C691 C 0.39754 0.59202 0.3021 0.0
C692 C 0.40195 0.62283 0.34622 0.0
C693 C 0.34844 0.59182 0.40864 0.0
H694 H 0.39685 0.6506 0.46007 0.0
C695 C 0.38892 0.57907 0.53047 0.0
C696 C 0.4062 0.59917 0.55131 0.0
C697 C 0.37471 0.58263 0.50474 0.0
C698 C 0.38244 0.6342 0.44661 0.0
H699 H 0.35943 0.56265 0.29225 0.0
H700 H 0.34082 0.57772 0.33618 0.0
H701 H 0.3945 0.65221 0.39585 0.0
H702 H 0.41989 0.63807 0.56494 0.0
H703 H 0.39452 0.64437 0.5203 0.0
H704 H 0.3353 0.57434 0.45956 0.0
C705 C 0.36085 0.58834 0.33223 0.0
C706 C 0.38148 0.63495 0.40928 0.0
C707 C 0.37147 0.57976 0.30666 0.0
C708 C 0.40708 0.62238 0.54857 0.0
C709 C 0.39259 0.62596 0.52284 0.0
C710 C 0.34841 0.59153 0.44602 0.0
C711 C 0.37617 0.60898 0.35431 0.0
C712 C 0.36711 0.61266 0.38984 0.0
C713 C 0.37713 0.60643 0.49926 0.0
C714 C 0.36782 0.61145 0.46502 0.0
H715 H 0.43245 0.62506 0.31627 0.0
H716 H 0.41483 0.63891 0.3618 0.0
H717 H 0.33583 0.57449 0.39525 0.0
H718 H 0.38714 0.56069 0.53294 0.0
H719 H 0.36336 0.56693 0.48745 0.0
C720 C 0.7944 0.42027 0.88794 0.0
C721 C 0.81386 0.41482 0.89146 0.0
C722 C 0.77519 0.40718 0.86308 0.0
C723 C 0.75665 0.39783 0.78726 0.0
H724 H 0.75973 0.34401 0.73848 0.0
C725 C 0.80897 0.41859 0.66379 0.0
C726 C 0.81151 0.40035 0.64486 0.0
C727 C 0.79021 0.41164 0.68927 0.0
C728 C 0.75779 0.35873 0.75124 0.0
H729 H 0.8266 0.38913 0.87586 0.0
H730 H 0.79477 0.36761 0.83179 0.0
H731 H 0.75863 0.34434 0.80292 0.0
H732 H 0.79439 0.36067 0.63371 0.0
H733 H 0.76091 0.34823 0.67798 0.0
H734 H 0.75448 0.41149 0.73561 0.0
C735 C 0.79352 0.3816 0.84773 0.0
C736 C 0.7577 0.35919 0.78863 0.0
C737 C 0.81236 0.39442 0.87266 0.0
C738 C 0.7931 0.37505 0.64868 0.0
C739 C 0.77402 0.36799 0.67421 0.0
C740 C 0.75532 0.3966 0.74992 0.0
C741 C 0.77534 0.38864 0.84101 0.0
C742 C 0.7609 0.38067 0.80672 0.0
C743 C 0.77328 0.38613 0.6965 0.0
C744 C 0.75967 0.37915 0.73156 0.0
H745 H 0.79478 0.43557 0.90279 0.0
H746 H 0.76113 0.41265 0.8598 0.0
H747 H 0.75761 0.41409 0.79986 0.0
H748 H 0.82252 0.43832 0.66046 0.0
H749 H 0.79073 0.42648 0.70537 0.0
C750 C 0.44099 0.81901 1.02214 0.0
C751 C 0.42956 0.81779 0.9892 0.0
C752 C 0.42681 0.80433 1.05093 0.0
C753 C 0.36428 0.78276 1.08337 0.0
H754 H 0.39432 0.77258 0.16811 0.0
C755 C 0.37568 0.83385 0.20979 0.0
C756 C 0.38137 0.82612 0.24216 0.0
C757 C 0.36794 0.81809 0.1801 0.0
C758 C 0.38495 0.77448 0.1448 0.0
H759 H 0.39487 0.7984 0.95935 0.0
H760 H 0.37009 0.77255 1.00968 0.0
H761 H 0.40938 0.76946 0.10937 0.0
H762 H 0.37944 0.79428 0.27025 0.0
H763 H 0.36643 0.76689 0.21794 0.0
H764 H 0.34086 0.78925 0.11889 0.0
C765 C 0.38996 0.78504 1.01338 0.0
C766 C 0.39385 0.77297 0.11103 0.0
C767 C 0.40421 0.79973 0.98449 0.0
C768 C 0.37599 0.8011 0.24536 0.0
C769 C 0.3684 0.78534 0.21547 0.0
C770 C 0.35522 0.78404 0.11713 0.0
C771 C 0.40084 0.78816 1.04741 0.0
C772 C 0.38507 0.77925 1.08021 0.0
C773 C 0.36584 0.79427 0.18197 0.0
C774 C 0.36698 0.7821 0.14822 0.0
H775 H 0.46057 0.83256 1.02632 0.0
H776 H 0.43589 0.80744 1.07673 0.0
H777 H 0.35681 0.78743 1.06022 0.0
H778 H 0.37963 0.85294 0.20606 0.0
H779 H 0.36631 0.82577 0.15478 0.0
C780 C 0.61198 0.41428 0.33165 0.0
C781 C 0.62436 0.43896 0.31847 0.0
C782 C 0.62196 0.40742 0.36003 0.0
C783 C 0.64377 0.39533 0.42321 0.0
H784 H 0.65934 0.44693 0.49398 0.0
C785 C 0.5921 0.37994 0.55178 0.0
C786 C 0.60202 0.39824 0.57873 0.0
C787 C 0.6071 0.38072 0.52319 0.0
C788 C 0.65579 0.43233 0.47483 0.0
H789 H 0.65838 0.47498 0.32162 0.0
H790 H 0.67622 0.46287 0.371 0.0
H791 H 0.66447 0.45787 0.43155 0.0
H792 H 0.6365 0.42908 0.59979 0.0
H793 H 0.6626 0.42993 0.55057 0.0
H794 H 0.63264 0.36939 0.46707 0.0
C795 C 0.65839 0.44898 0.36002 0.0
C796 C 0.65878 0.43868 0.43861 0.0
C797 C 0.64826 0.45591 0.33163 0.0
C798 C 0.62804 0.41482 0.57936 0.0
C799 C 0.64308 0.41546 0.55093 0.0
C800 C 0.64053 0.38891 0.45956 0.0
C801 C 0.64471 0.42504 0.37584 0.0
C802 C 0.65095 0.41995 0.41231 0.0
C803 C 0.63234 0.39975 0.52118 0.0
C804 C 0.64476 0.40709 0.48557 0.0
H805 H 0.59385 0.40058 0.32127 0.0
H806 H 0.61069 0.38885 0.37132 0.0
H807 H 0.63846 0.38057 0.40363 0.0
H808 H 0.57228 0.36642 0.55106 0.0
H809 H 0.59815 0.36815 0.50092 0.0
C810 C 0.21678 0.57913 0.86984 0.0
C811 C 0.20416 0.59189 0.87992 0.0
C812 C 0.23548 0.58924 0.84354 0.0
C813 C 0.26672 0.64395 0.77894 0.0
H814 H 0.24364 0.58958 0.71083 0.0
C815 C 0.2333 0.61297 0.62447 0.0
C816 C 0.21596 0.62151 0.62552 0.0
C817 C 0.25038 0.61865 0.65232 0.0
C818 C 0.25115 0.6052 0.72932 0.0
H819 H 0.20363 0.62671 0.87444 0.0
H820 H 0.23477 0.64359 0.82772 0.0
H821 H 0.23942 0.58028 0.77372 0.0
H822 H 0.20552 0.64581 0.65329 0.0
H823 H 0.23505 0.6556 0.70186 0.0
H824 H 0.27548 0.66844 0.73365 0.0
C825 C 0.2308 0.62598 0.83979 0.0
C826 C 0.24872 0.59982 0.76584 0.0
C827 C 0.21241 0.61603 0.8662 0.0
C828 C 0.21853 0.63884 0.65189 0.0
C829 C 0.23563 0.64454 0.67972 0.0
C830 C 0.26872 0.64929 0.74226 0.0
C831 C 0.24163 0.61213 0.82661 0.0
C832 C 0.25437 0.61889 0.79102 0.0
C833 C 0.25031 0.63289 0.68163 0.0
C834 C 0.25901 0.62968 0.71724 0.0
H835 H 0.2111 0.56066 0.88048 0.0
H836 H 0.2439 0.57834 0.83485 0.0
H837 H 0.2724 0.65927 0.79765 0.0
H838 H 0.23212 0.60006 0.60384 0.0
H839 H 0.26179 0.60979 0.65275 0.0
C840 C 0.44032 0.9558 0.98493 0.0
C841 C 0.42036 0.95269 0.96289 0.0
C842 C 0.4452 0.96798 1.01845 0.0
C843 C 0.41803 0.99279 1.08917 0.0
H844 H 0.48616 0.02598 0.12402 0.0
C845 C 0.44393 0.03774 0.23424 0.0
C846 C 0.46813 0.05815 0.24074 0.0
C847 C 0.43753 0.02497 0.20087 0.0
C848 C 0.46698 0.01717 0.11496 0.0
H849 H 0.38981 0.96047 0.96037 0.0
H850 H 0.39848 0.9821 1.01813 0.0
H851 H 0.47649 1.00515 1.06655 0.0
H852 H 0.5043 0.08096 0.21558 0.0
H853 H 0.49324 0.0596 0.15821 0.0
H854 H 0.40879 1.0057 0.13725 0.0
C855 C 0.4103 0.97466 1.00981 0.0
C856 C 0.46123 1.00459 1.08163 0.0
C857 C 0.40529 0.96221 0.97622 0.0
C858 C 0.48549 0.06536 0.21226 0.0
C859 C 0.47909 0.05275 0.17897 0.0
C860 C 0.42382 1.00553 0.12252 0.0
C861 C 0.43054 0.97803 1.03174 0.0
C862 C 0.43659 0.99195 1.0678 0.0
C863 C 0.45501 0.03206 0.17237 0.0
C864 C 0.44848 0.01809 0.13634 0.0
H865 H 0.4524 0.9487 0.9763 0.0
H866 H 0.46054 0.96923 1.03407 0.0
H867 H 0.39875 0.98332 1.08045 0.0
H868 H 0.4299 0.03133 0.25517 0.0
H869 H 0.41886 0.00913 0.19784 0.0
C870 C 0.4895 0.43077 0.31955 0.0
C871 C 0.47174 0.41409 0.29479 0.0
C872 C 0.48235 0.43586 0.35306 0.0
C873 C 0.42644 0.41568 0.41676 0.0
H874 H 0.47239 0.47846 0.46227 0.0
C875 C 0.40561 0.44141 0.56112 0.0
C876 C 0.4172 0.46674 0.57187 0.0
C877 C 0.41143 0.43435 0.5278 0.0
C878 C 0.45885 0.46093 0.45019 0.0
H879 H 0.432 0.38965 0.28715 0.0
H880 H 0.41936 0.39905 0.34465 0.0
H881 H 0.48298 0.46818 0.40517 0.0
H882 H 0.44358 0.50443 0.55418 0.0
H883 H 0.45266 0.49265 0.49664 0.0
H884 H 0.40172 0.40919 0.4612 0.0
C885 C 0.43913 0.4079 0.33875 0.0
C886 C 0.46533 0.45462 0.41701 0.0
C887 C 0.44639 0.40244 0.30529 0.0
C888 C 0.43434 0.48468 0.54753 0.0
C889 C 0.43981 0.47773 0.51413 0.0
C890 C 0.41977 0.42219 0.44983 0.0
C891 C 0.45695 0.42498 0.36347 0.0
C892 C 0.44943 0.43175 0.39936 0.0
C893 C 0.42886 0.45235 0.50343 0.0
C894 C 0.43582 0.44502 0.46754 0.0
H895 H 0.50925 0.44005 0.31305 0.0
H896 H 0.49713 0.44841 0.37083 0.0
H897 H 0.41343 0.39776 0.40514 0.0
H898 H 0.39243 0.42687 0.57889 0.0
H899 H 0.40252 0.41458 0.52169 0.0
C900 C 0.06886 0.48625 0.65057 0.0
C901 C 0.05996 0.47004 0.62073 0.0
C902 C 0.05643 0.47953 0.68413 0.0
C903 C 1.00542 0.42416 0.73756 0.0
H904 H 1.01266 0.477 0.80102 0.0
C905 C 0.96207 0.40189 0.88437 0.0
C906 C 0.95574 0.41861 0.90101 0.0
C907 C 0.97447 0.40749 0.85058 0.0
C908 C 1.00994 0.46171 0.78385 0.0
H909 H 0.03022 0.43358 0.60416 0.0
H910 H 1.00836 0.4221 0.66177 0.0
H911 H 0.03318 0.48755 0.74321 0.0
H912 H 0.95751 0.4544 0.89326 0.0
H913 H 0.97794 0.46364 0.83526 0.0
H914 H 0.98138 0.3983 0.77789 0.0
C915 C 0.0254 0.44002 0.65971 0.0
C916 C 0.02233 0.46791 0.75025 0.0
C917 C 0.03799 0.4467 0.62613 0.0
C918 C 0.96207 0.44093 0.88208 0.0
C919 C 0.9742 0.44642 0.84837 0.0
C920 C 0.99287 0.41794 0.77117 0.0
C921 C 0.03422 0.4563 0.68968 0.0
C922 C 0.02052 0.44935 0.72611 0.0
C923 C 0.981 0.43001 0.8317 0.0
C924 C 0.99474 0.43654 0.79529 0.0
H925 H 0.0857 0.50434 0.64814 0.0
H926 H 0.06462 0.49272 0.70591 0.0
H927 H 1.0034 0.40897 0.72073 0.0
H928 H 0.95776 0.38454 0.89769 0.0
H929 H 0.97932 0.39419 0.83968 0.0
C930 C 0.57723 0.96841 0.2262 0.0
C931 C 0.55244 0.95709 0.2391 0.0
C932 C 0.58404 0.98109 0.19261 0.0
C933 C 0.55768 1.00459 0.11735 0.0
H934 H 0.61945 0.02018 1.0696 0.0
C935 C 0.58557 0.06346 0.98458 0.0
C936 C 0.60293 0.06322 0.96021 0.0
C937 C 0.58073 0.05135 1.01822 0.0
C938 C 0.60186 0.01587 1.08189 0.0
H939 H 0.51531 0.94961 0.22502 0.0
H940 H 0.52634 0.96961 0.16697 0.0
H941 H 0.60844 0.99718 0.12564 0.0
H942 H 0.62879 0.04944 0.95324 0.0
H943 H 0.61966 0.02734 1.01065 0.0
H944 H 0.55014 0.02165 1.07295 0.0
C945 C 0.54128 0.97027 0.18288 0.0
C946 C 0.59561 1.00274 0.11507 0.0
C947 C 0.53468 0.95826 0.21661 0.0
C948 C 0.61541 0.05035 0.9711 0.0
C949 C 0.61011 0.03761 1.00459 0.0
C950 C 0.56364 0.01716 1.08397 0.0
C951 C 0.56624 0.98255 0.17003 0.0
C952 C 0.57331 0.99674 0.13388 0.0
C953 C 0.59245 0.03761 1.0291 0.0
C954 C 0.58601 0.02343 1.06525 0.0
H955 H 0.59161 0.9682 0.24258 0.0
H956 H 0.60353 0.99018 0.18494 0.0
H957 H 0.5406 1.00137 0.13013 0.0
H958 H 0.57566 0.07331 0.97775 0.0
H959 H 0.56771 0.05314 1.03564 0.0
C960 C 0.61521 0.56717 0.55053 0.0
C961 C 0.59863 0.54362 0.56592 0.0
C962 C 0.61013 0.57452 0.51685 0.0
C963 C 0.55735 0.55592 0.44838 0.0
H964 H 0.6105 0.60508 0.38847 0.0
C965 C 0.53364 0.59216 0.31681 0.0
C966 C 0.55042 0.60078 0.28754 0.0
C967 C 0.54014 0.58606 0.35015 0.0
C968 C 0.59523 0.59109 0.40439 0.0
H969 H 0.56382 0.50921 0.55615 0.0
H970 H 0.55557 0.52127 0.49815 0.0
H971 H 0.62056 0.59269 0.44525 0.0
H972 H 0.58768 0.6095 0.27167 0.0
H973 H 0.59882 0.59834 0.32899 0.0
H974 H 0.5321 0.55344 0.40714 0.0
C975 C 0.57217 0.53477 0.51222 0.0
C976 C 0.60107 0.58415 0.43777 0.0
C977 C 0.57709 0.52762 0.54588 0.0
C978 C 0.57414 0.60312 0.29326 0.0
C979 C 0.5806 0.59676 0.32663 0.0
C980 C 0.55155 0.56267 0.41499 0.0
C981 C 0.58835 0.55853 0.49687 0.0
C982 C 0.58227 0.56635 0.46071 0.0
C983 C 0.5637 0.58792 0.35597 0.0
C984 C 0.57028 0.58052 0.39206 0.0
H985 H 0.63195 0.58021 0.56484 0.0
H986 H 0.6232 0.59307 0.50695 0.0
H987 H 0.54192 0.54255 0.46468 0.0
H988 H 0.51523 0.59014 0.31408 0.0
H989 H 0.52649 0.58006 0.37153 0.0
C990 C 0.05921 0.57876 0.87783 0.0
C991 C 0.06338 0.59941 0.89921 0.0
C992 C 0.04582 0.57317 0.84532 0.0
C993 C 0.0196 0.59927 0.77552 0.0
H994 H 0.98291 0.52983 0.74581 0.0
C995 C 0.97055 0.56959 0.63376 0.0
C996 C 0.94926 0.54563 0.62938 0.0
C997 C 0.98406 0.57678 0.66642 0.0
C998 C 0.99271 0.54937 0.75349 0.0
H999 H 0.05626 0.63047 0.90166 0.0
H1000 H 0.03262 0.62062 0.84551 0.0
H1001 H 1.00589 0.54083 0.80165 0.0
H1002 H 0.92562 0.51079 0.6575 0.0
H1003 H 0.94832 0.52331 0.71388 0.0
H1004 H 1.00568 0.60762 0.72767 0.0
C1005 C 0.04011 0.60877 0.85364 0.0
C1006 C 1.00649 0.55585 0.78579 0.0
C1007 C 0.05372 0.61447 0.88625 0.0
C1008 C 0.94182 0.52939 0.6593 0.0
C1009 C 0.95521 0.53659 0.69193 0.0
C1010 C 1.00572 0.59276 0.74317 0.0
C1011 C 0.03563 0.58781 0.83248 0.0
C1012 C 0.02041 0.58098 0.79764 0.0
C1013 C 0.97688 0.56036 0.69627 0.0
C1014 C 0.9919 0.56761 0.7313 0.0
H1015 H 0.06635 0.56665 0.88623 0.0
H1016 H 0.0437 0.55727 0.83011 0.0
H1017 H 0.03002 0.61887 0.78282 0.0
H1018 H 0.97725 0.58269 0.61154 0.0
H1019 H 1.00063 0.59511 0.66777 0.0
C1020 C 0.47118 0.03847 0.44342 0.0
C1021 C 0.47908 0.03461 0.40971 0.0
C1022 C 0.47632 0.02934 0.47455 0.0
C1023 C 0.52677 0.03949 0.50514 0.0
H1024 H 0.52955 0.97837 0.50373 0.0
C1025 C 0.54895 1.00851 0.39719 0.0
C1026 C 0.55578 0.99005 0.39641 0.0
C1027 C 0.55257 0.02236 0.42844 0.0
C1028 C 0.52943 0.99582 0.50604 0.0
H1029 H 0.49413 0.01448 0.38137 0.0
H1030 H 0.5005 0.99601 0.43553 0.0
H1031 H 0.48945 0.97617 0.50776 0.0
H1032 H 0.57449 0.9735 0.42553 0.0
H1033 H 0.5774 0.99509 0.48149 0.0
H1034 H 0.56604 0.05864 0.49444 0.0
C1035 C 0.49181 1.00748 0.43809 0.0
C1036 C 0.50618 0.99447 0.50851 0.0
C1037 C 0.48831 0.01806 0.40701 0.0
C1038 C 0.56863 0.98743 0.42579 0.0
C1039 C 0.57083 1.00014 0.4577 0.0
C1040 C 0.54988 0.0407 0.501 0.0
C1041 C 0.48818 0.01509 0.47219 0.0
C1042 C 0.50476 0.01612 0.50142 0.0
C1043 C 0.56103 0.0163 0.46007 0.0
C1044 C 0.5502 0.01841 0.49439 0.0
H1045 H 0.46359 0.05091 0.44622 0.0
H1046 H 0.47345 0.03556 0.50034 0.0
H1047 H 0.5262 0.0567 0.50188 0.0
H1048 H 0.53939 0.01109 0.37465 0.0
H1049 H 0.54524 0.0351 0.42918 0.0
C1050 C 0.44069 0.46457 0.76463 0.0
C1051 C 0.45359 0.47471 0.73226 0.0
C1052 C 0.45391 0.46765 0.79632 0.0
C1053 C 0.49305 0.5168 0.8311 0.0
H1054 H 0.5572 0.52063 0.82745 0.0
C1055 C 0.54421 0.54132 0.72201 0.0
C1056 C 0.56903 0.54683 0.72004 0.0
C1057 C 0.53495 0.54516 0.75411 0.0
C1058 C 0.53957 0.52022 0.83042 0.0
H1059 H 0.4894 0.49071 0.7057 0.0
H1060 H 0.5123 0.49302 0.76019 0.0
H1061 H 0.51983 0.48015 0.83126 0.0
H1062 H 0.60472 0.56427 0.74758 0.0
H1063 H 0.58763 0.56739 0.80497 0.0
H1064 H 0.51255 0.55635 0.82181 0.0
C1065 C 0.49217 0.48457 0.76181 0.0
C1066 C 0.51795 0.49672 0.83279 0.0
C1067 C 0.47921 0.48338 0.73054 0.0
C1068 C 0.5852 0.55908 0.74893 0.0
C1069 C 0.57562 0.56148 0.78164 0.0
C1070 C 0.51467 0.54022 0.82741 0.0
C1071 C 0.48003 0.47945 0.79542 0.0
C1072 C 0.49478 0.49502 0.82601 0.0
C1073 C 0.5499 0.55247 0.78531 0.0
C1074 C 0.53735 0.54101 0.81974 0.0
H1075 H 0.42065 0.45683 0.76627 0.0
H1076 H 0.44406 0.46337 0.82169 0.0
H1077 H 0.47524 0.51606 0.82823 0.0
H1078 H 0.5316 0.53241 0.69976 0.0
H1079 H 0.51509 0.53859 0.75571 0.0
C1080 C 0.9797 0.43581 0.10178 0.0
C1081 C 0.98328 0.44853 1.06898 0.0
C1082 C 0.99029 0.44918 0.13318 0.0
C1083 C 0.98395 0.49133 0.1666 0.0
H1084 H 0.04717 0.55276 0.16172 0.0
C1085 C 0.01494 0.54414 1.05668 0.0
C1086 C 0.03443 0.56892 1.05533 0.0
C1087 C 1.00171 0.53455 1.08863 0.0
C1088 C 0.02917 0.53597 0.16503 0.0
H1089 H 1.00466 0.48397 1.04159 0.0
H1090 H 0.02599 0.50689 1.09562 0.0
H1091 H 0.04656 0.51339 0.16694 0.0
H1092 H 0.05301 0.60422 1.084 0.0
H1093 H 0.03283 0.58632 0.14122 0.0
H1094 H 0.96679 0.51349 0.15598 0.0
C1095 C 0.01339 0.48689 0.09772 0.0
C1096 C 0.0289 0.51319 0.16824 0.0
C1097 C 1.00121 0.47391 1.06671 0.0
C1098 C 0.03866 0.58469 1.08491 0.0
C1099 C 0.02665 0.57469 0.11749 0.0
C1100 C 0.98425 0.51404 0.16191 0.0
C1101 C 1.00589 0.47519 0.13161 0.0
C1102 C 1.00641 0.4909 0.16186 0.0
C1103 C 1.0094 0.54903 0.12025 0.0
C1104 C 1.00713 0.5357 0.15432 0.0
H1105 H 0.96648 0.41594 0.10387 0.0
H1106 H 0.98426 0.43969 0.15878 0.0
H1107 H 0.9661 0.4742 0.16425 0.0
H1108 H 1.01101 0.53183 1.03393 0.0
H1109 H 0.98802 0.51475 1.08966 0.0
C1110 C 0.02341 0.49922 0.46312 0.0
C1111 C 0.03949 0.49012 0.45473 0.0
C1112 C 0.01941 0.51369 0.43797 0.0
C1113 C 0.03109 0.55948 0.39546 0.0
H1114 H 0.0868 0.58607 0.4614 0.0
C1115 C 1.00486 0.57852 0.51064 0.0
C1116 C 0.99561 0.55294 0.51829 0.0
C1117 C 0.02792 0.59254 0.49364 0.0
C1118 C 0.07209 0.58031 0.44166 0.0
H1119 H 0.05837 0.48305 0.41124 0.0
H1120 H 0.05604 0.51284 0.37038 0.0
H1121 H 0.08265 0.55596 0.41687 0.0
H1122 H 1.00583 0.52439 0.5252 0.0
H1123 H 0.04688 0.54926 0.4974 0.0
H1124 H 0.01905 0.58197 0.42259 0.0
C1125 C 0.04534 0.50787 0.39504 0.0
C1126 C 0.06961 0.56286 0.41572 0.0
C1127 C 0.04726 0.4914 0.41895 0.0
C1128 C 1.01218 0.54369 0.51797 0.0
C1129 C 0.03579 0.55817 0.50214 0.0
C1130 C 0.03417 0.57789 0.42012 0.0
C1131 C 0.03394 0.52149 0.40634 0.0
C1132 C 0.04637 0.54868 0.39844 0.0
C1133 C 0.04179 0.58095 0.4847 0.0
C1134 C 0.05194 0.58436 0.4478 0.0
H1135 H 0.01631 0.49755 0.4901 0.0
H1136 H 1.00919 0.52285 0.44655 0.0
H1137 H 0.01373 0.54995 0.38063 0.0
H1138 H 0.99279 0.58656 0.51293 0.0
H1139 H 0.03248 0.61043 0.48184 0.0
C1140 C 0.47917 1.00313 0.80474 0.0
C1141 C 0.45407 0.98444 0.8057 0.0
C1142 C 0.48984 0.01522 0.77241 0.0
C1143 C 0.51212 0.0292 0.69952 0.0
H1144 H 0.51036 0.96564 0.70667 0.0
C1145 C 0.58468 0.03595 0.77516 0.0
C1146 C 0.56983 0.03162 0.80592 0.0
C1147 C 0.57367 0.02432 0.74284 0.0
C1148 C 0.51137 0.98353 0.70213 0.0
H1149 H 0.41937 0.96662 0.77571 0.0
H1150 H 0.43903 0.98441 0.71815 0.0
H1151 H 0.4718 0.96663 0.70471 0.0
H1152 H 0.5334 1.00829 0.82939 0.0
H1153 H 0.51454 0.98601 0.77401 0.0
H1154 H 0.5517 0.0462 0.7017 0.0
C1155 C 0.45015 0.99092 0.74232 0.0
C1156 C 0.48903 0.98418 0.701 0.0
C1157 C 0.43912 0.98023 0.77518 0.0
C1158 C 0.545 0.01226 0.80576 0.0
C1159 C 0.53438 0.99945 0.77396 0.0
C1160 C 0.53445 0.02852 0.69942 0.0
C1161 C 0.47605 1.00701 0.74024 0.0
C1162 C 0.48979 1.00709 0.70766 0.0
C1163 C 0.54791 1.00739 0.74144 0.0
C1164 C 0.53375 1.00595 0.70863 0.0
H1165 H 0.49088 1.00706 0.82817 0.0
H1166 H 0.5098 0.02814 0.77187 0.0
H1167 H 0.51314 0.04724 0.70207 0.0
H1168 H 0.60421 0.05028 0.77503 0.0
H1169 H 0.5846 0.03069 0.71841 0.0
C1170 C 0.54666 0.57661 1.08566 0.0
C1171 C 0.53956 0.56554 0.11995 0.0
C1172 C 0.54144 0.56175 1.05522 0.0
C1173 C 0.49122 0.51944 1.02675 0.0
H1174 H 0.49156 0.45709 1.0313 0.0
C1175 C 0.47352 0.4703 0.13764 0.0
C1176 C 0.46858 0.44561 0.14005 0.0
C1177 C 0.46821 0.47876 0.10588 0.0
C1178 C 0.49076 0.47416 1.02816 0.0
H1179 H 0.52605 0.53114 0.14998 0.0
H1180 H 0.51979 0.50539 1.09698 0.0
H1181 H 0.53065 0.49583 1.02502 0.0
H1182 H 0.45099 0.40943 0.11369 0.0
H1183 H 0.44531 0.42518 1.05668 0.0
H1184 H 0.45218 0.49821 1.03877 0.0
C1185 C 0.52771 0.5254 1.09346 0.0
C1186 C 0.51344 0.49654 1.02438 0.0
C1187 C 0.53118 0.53999 0.12387 0.0
C1188 C 0.45571 0.42883 0.11201 0.0
C1189 C 0.45182 0.43763 1.07955 0.0
C1190 C 0.46871 0.49709 1.03217 0.0
C1191 C 0.53045 0.53578 1.05884 0.0
C1192 C 0.51386 0.51924 1.03039 0.0
C1193 C 0.45996 0.46318 1.07532 0.0
C1194 C 0.46962 0.47524 1.04005 0.0
H1195 H 0.55373 0.59648 1.08192 0.0
H1196 H 0.54366 0.57021 1.029 0.0
H1197 H 0.49097 0.53687 1.02909 0.0
H1198 H 0.48296 0.4834 0.15922 0.0
H1199 H 0.47422 0.49853 0.10379 0.0
C1200 C 0.27827 0.94375 0.72228 0.0
C1201 C 0.28739 0.92695 0.71863 0.0
C1202 C 0.27215 0.95298 0.69204 0.0
C1203 C 0.27417 0.95252 0.59091 0.0
H1204 H 0.30934 0.02446 0.60517 0.0
C1205 C 0.32347 0.02055 0.47364 0.0
C1206 C 0.3484 0.03842 0.48163 0.0
C1207 C 0.3066 1.00705 0.50112 0.0
C1208 C 0.29936 1.0044 0.60065 0.0
H1209 H 0.29293 0.90343 0.6808 0.0
H1210 H 0.28429 0.92078 0.6283 0.0
H1211 H 0.29366 0.99693 0.65643 0.0
H1212 H 0.37474 0.05732 0.52461 0.0
H1213 H 0.34583 0.03345 0.57223 0.0
H1214 H 0.28248 0.96036 0.5352 0.0
C1215 C 0.28156 0.92687 0.65424 0.0
C1216 C 0.2899 0.98844 0.63015 0.0
C1217 C 0.28702 0.91716 0.68451 0.0
C1218 C 0.35577 0.0434 0.51759 0.0
C1219 C 0.339 0.02995 0.54495 0.0
C1220 C 0.28408 0.96855 0.56139 0.0
C1221 C 0.27568 0.94617 0.65749 0.0
C1222 C 0.27844 0.96226 0.62591 0.0
C1223 C 0.31434 0.01125 0.53708 0.0
C1224 C 0.29805 0.99467 0.56625 0.0
H1225 H 0.27794 0.95158 0.74806 0.0
H1226 H 0.26664 0.96701 0.69575 0.0
H1227 H 0.2647 0.93248 0.58641 0.0
H1228 H 0.31727 0.01625 0.44612 0.0
H1229 H 0.2877 0.99292 0.49417 0.0
C1230 C 0.36004 0.28428 1.0306 0.0
C1231 C 0.38029 0.28204 1.04321 0.0
C1232 C 0.35251 0.27902 0.995 0.0
C1233 C 0.38296 0.284 0.90942 0.0
H1234 H 0.31959 0.2747 0.87514 0.0
C1235 C 0.37764 0.34722 0.80443 0.0
C1236 C 0.35681 0.33898 0.78187 0.0
C1237 C 0.37883 0.33102 0.82942 0.0
C1238 C 0.33729 0.27678 0.88377 0.0
H1239 H 0.40658 0.26966 1.02956 0.0
H1240 H 0.39317 0.26008 0.96721 0.0
H1241 H 0.32178 0.25875 0.93387 0.0
H1242 H 0.32146 0.30681 0.76654 0.0
H1243 H 0.32349 0.27836 0.81058 0.0
H1244 H 0.39856 0.30248 0.85967 0.0
C1245 C 0.38354 0.26656 0.98467 0.0
C1246 C 0.33861 0.26788 0.9177 0.0
C1247 C 0.39121 0.27201 1.02037 0.0
C1248 C 0.33761 0.3138 0.7839 0.0
C1249 C 0.3388 0.2975 0.80902 0.0
C1250 C 0.38157 0.29258 0.87536 0.0
C1251 C 0.36499 0.27129 0.97109 0.0
C1252 C 0.36178 0.27287 0.93184 0.0
C1253 C 0.35922 0.30609 0.83256 0.0
C1254 C 0.35908 0.29053 0.86315 0.0
H1255 H 0.35135 0.29219 1.04732 0.0
H1256 H 0.33838 0.28322 0.98567 0.0
H1257 H 0.40117 0.28817 0.91916 0.0
H1258 H 0.39254 0.3666 0.80411 0.0
H1259 H 0.39456 0.33853 0.84763 0.0
C1260 C 0.9724 0.28906 0.12988 0.0
C1261 C 0.95467 0.2967 0.13572 0.0
C1262 C 0.98292 0.28318 0.15888 0.0
C1263 C 0.98068 0.27816 0.25937 0.0
H1264 H 0.0526 0.31932 0.24974 0.0
C1265 C 0.03966 0.32643 0.3822 0.0
C1266 C 0.05504 0.35234 0.3764 0.0
C1267 C 0.03013 0.30997 0.35321 0.0
C1268 C 0.03256 0.30758 0.25293 0.0
H1269 H 0.93194 0.3014 0.17584 0.0
H1270 H 0.95076 0.29226 0.2262 0.0
H1271 H 0.02684 0.30537 0.1965 0.0
H1272 H 0.0743 0.38098 0.33596 0.0
H1273 H 0.05698 0.35275 0.28565 0.0
H1274 H 0.9862 0.28289 0.31579 0.0
C1275 C 0.95656 0.29043 0.19954 0.0
C1276 C 0.01772 0.2992 0.22228 0.0
C1277 C 0.94601 0.29613 0.17064 0.0
C1278 C 0.06205 0.3612 0.34125 0.0
C1279 C 0.05245 0.34484 0.31236 0.0
C1280 C 0.99549 0.28694 0.29002 0.0
C1281 C 0.97595 0.28498 0.19418 0.0
C1282 C 0.99148 0.28588 0.2252 0.0
C1283 C 0.03571 0.31912 0.31789 0.0
C1284 C 0.02144 0.30319 0.28702 0.0
H1285 H 0.97934 0.28919 0.10318 0.0
H1286 H 0.99748 0.27862 0.15376 0.0
H1287 H 0.96056 0.26717 0.26254 0.0
H1288 H 0.03394 0.31901 0.40902 0.0
H1289 H 0.01755 0.29024 0.35844 0.0
C1290 C 0.73988 0.08173 0.70029 0.0
C1291 C 0.73037 0.09827 0.70234 0.0
C1292 C 0.74621 0.07583 0.66722 0.0
C1293 C 0.7476 0.08823 0.56803 0.0
H1294 H 0.71637 0.01582 0.56404 0.0
C1295 C 0.68409 0.02661 0.45564 0.0
C1296 C 0.68395 1.00437 0.44644 0.0
C1297 C 0.70033 0.04249 0.48188 0.0
C1298 C 0.72573 0.03611 0.56458 0.0
H1299 H 0.72347 0.1242 0.67165 0.0
H1300 H 0.73271 0.1127 0.6141 0.0
H1301 H 0.72693 0.03651 0.62147 0.0
H1302 H 0.70249 0.98269 0.45537 0.0
H1303 H 0.73024 0.01006 0.5022 0.0
H1304 H 0.74404 0.08715 0.5108 0.0
C1305 C 0.73566 0.10439 0.63784 0.0
C1306 C 0.73194 0.04812 0.59769 0.0
C1307 C 0.72987 0.1107 0.67098 0.0
C1308 C 0.70166 0.99933 0.46241 0.0
C1309 C 0.7177 0.01508 0.489 0.0
C1310 C 0.74097 0.07611 0.53486 0.0
C1311 C 0.74264 0.08586 0.63533 0.0
C1312 C 0.74198 0.07425 0.60002 0.0
C1313 C 0.71661 0.03638 0.49976 0.0
C1314 C 0.72911 0.04985 0.53301 0.0
H1315 H 0.74071 0.07183 0.72377 0.0
H1316 H 0.75237 0.06214 0.66652 0.0
H1317 H 0.75592 0.10842 0.56864 0.0
H1318 H 0.67057 0.03102 0.44433 0.0
H1319 H 0.69883 0.05859 0.48998 0.0
C1320 C 0.66092 0.6976 1.00892 0.0
C1321 C 0.66873 0.70066 1.04474 0.0
C1322 C 0.67749 0.70086 0.98131 0.0
C1323 C 0.73309 0.69551 0.96479 0.0
H1324 H 0.7221 0.71237 0.86909 0.0
C1325 C 0.73186 0.64084 0.84296 0.0
C1326 C 0.73173 0.65003 0.80851 0.0
C1327 C 0.73649 0.65601 0.87297 0.0
C1328 C 0.72622 0.70819 0.89555 0.0
H1329 H 0.70044 0.71081 1.07966 0.0
H1330 H 0.72966 0.71698 1.03118 0.0
H1331 H 0.70617 0.72429 0.91994 0.0
H1332 H 0.74043 0.68372 0.77842 0.0
H1333 H 0.75017 0.71046 0.83038 0.0
H1334 H 0.75306 0.67927 0.94035 0.0
C1335 C 0.71057 0.71171 1.02454 0.0
C1336 C 0.71663 0.71472 0.92481 0.0
C1337 C 0.69389 0.70837 1.05227 0.0
C1338 C 0.74003 0.67576 0.80445 0.0
C1339 C 0.74525 0.6911 0.83445 0.0
C1340 C 0.7431 0.68934 0.93549 0.0
C1341 C 0.70239 0.70744 0.98878 0.0
C1342 C 0.71854 0.70703 0.95952 0.0
C1343 C 0.74168 0.68094 0.86917 0.0
C1344 C 0.7384 0.69417 0.90033 0.0
H1345 H 0.64176 0.69205 1.00222 0.0
H1346 H 0.67035 0.69701 0.9542 0.0
H1347 H 0.73513 0.68945 0.99119 0.0
H1348 H 0.72648 0.62136 0.84703 0.0
H1349 H 0.73371 0.64735 0.89909 0.0
C1350 C 0.08449 0.73417 0.15781 0.0
C1351 C 0.10672 0.7353 0.14622 0.0
C1352 C 0.08134 0.73833 0.19363 0.0
C1353 C 0.10074 0.72392 0.27687 0.0
H1354 H 0.04912 0.73635 0.31382 0.0
C1355 C 0.02464 0.68966 0.40075 0.0
C1356 C 0.01437 0.66367 0.39564 0.0
C1357 C 0.04279 0.70685 0.37718 0.0
C1358 C 0.064 0.73329 0.30435 0.0
H1359 H 0.14443 0.7454 0.16192 0.0
H1360 H 0.13889 0.75258 0.22475 0.0
H1361 H 0.07086 0.75669 0.2583 0.0
H1362 H 0.01521 0.63556 0.36143 0.0
H1363 H 0.04709 0.66536 0.32129 0.0
H1364 H 0.09283 0.6994 0.32172 0.0
C1365 C 0.12369 0.74792 0.20622 0.0
C1366 C 0.07634 0.74481 0.27247 0.0
C1367 C 0.12685 0.74376 0.17027 0.0
C1368 C 0.02303 0.65536 0.36684 0.0
C1369 C 0.04135 0.67247 0.34374 0.0
C1370 C 0.08842 0.71245 0.30863 0.0
C1371 C 0.10035 0.74366 0.21868 0.0
C1372 C 0.09376 0.73903 0.25729 0.0
C1373 C 0.0513 0.69836 0.3485 0.0
C1374 C 0.06894 0.71588 0.32148 0.0
H1375 H 0.06851 0.7276 0.14017 0.0
H1376 H 0.06305 0.73472 0.20216 0.0
H1377 H 0.11396 0.71892 0.26606 0.0
H1378 H 0.0187 0.69676 0.42294 0.0
H1379 H 0.05016 0.72673 0.38132 0.0
C1380 C 0.49938 0.09786 0.48666 0.0
C1381 C 0.5157 0.1057 0.45683 0.0
C1382 C 0.50815 0.09749 0.52191 0.0
C1383 C 0.56469 0.10108 0.57104 0.0
H1384 H 0.5333 0.10927 0.65564 0.0
C1385 C 0.59999 0.0948 0.71629 0.0
C1386 C 0.59643 0.10757 0.74509 0.0
C1387 C 0.58993 0.09403 0.68174 0.0
C1388 C 0.54274 0.10726 0.63254 0.0
H1389 H 0.55467 0.12027 0.44251 0.0
H1390 H 0.56963 0.12048 0.50227 0.0
H1391 H 0.5166 0.10958 0.59669 0.0
H1392 H 0.57918 0.12978 0.75853 0.0
H1393 H 0.56242 0.12892 0.6994 0.0
H1394 H 0.59129 0.09956 0.60653 0.0
C1395 C 0.54985 0.11368 0.49899 0.0
C1396 C 0.53273 0.10705 0.59819 0.0
C1397 C 0.54113 0.11383 0.46412 0.0
C1398 C 0.58258 0.1197 0.73756 0.0
C1399 C 0.57253 0.11893 0.70318 0.0
C1400 C 0.57478 0.10146 0.6053 0.0
C1401 C 0.53364 0.10512 0.52888 0.0
C1402 C 0.5436 0.10424 0.56642 0.0
C1403 C 0.57566 0.10586 0.67429 0.0
C1404 C 0.56426 0.10477 0.63708 0.0
H1405 H 0.47967 0.09123 0.4827 0.0
H1406 H 0.49468 0.09055 0.54357 0.0
H1407 H 0.57361 0.09816 0.54805 0.0
H1408 H 0.61018 0.0849 0.72056 0.0
H1409 H 0.59281 0.08338 0.66115 0.0
C1410 C 0.41784 0.49893 0.81637 0.0
C1411 C 0.42069 0.51484 0.78725 0.0
C1412 C 0.42819 0.50873 0.85058 0.0
C1413 C 0.47495 0.57011 0.89742 0.0
H1414 H 0.44524 0.53163 0.98356 0.0
C1415 C 0.51886 0.60742 1.04183 0.0
C1416 C 0.50265 0.59934 1.07175 0.0
C1417 C 0.51005 0.5975 1.00697 0.0
C1418 C 0.45381 0.54305 0.96005 0.0
H1419 H 0.43676 0.55409 0.77295 0.0
H1420 H 0.45387 0.57079 0.83142 0.0
H1421 H 0.42724 0.51403 0.92573 0.0
H1422 H 0.46378 0.57498 1.08666 0.0
H1423 H 0.44873 0.55892 1.0275 0.0
H1424 H 0.50104 0.59948 0.93202 0.0
C1425 C 0.44423 0.55066 0.82814 0.0
C1426 C 0.44354 0.53257 0.92624 0.0
C1427 C 0.43396 0.54089 0.79414 0.0
C1428 C 0.47724 0.58175 1.06494 0.0
C1429 C 0.46848 0.57212 1.03047 0.0
C1430 C 0.48512 0.58068 0.9313 0.0
C1431 C 0.44192 0.53493 0.85727 0.0
C1432 C 0.45363 0.5459 0.89395 0.0
C1433 C 0.48462 0.57926 1.00057 0.0
C1434 C 0.47462 0.56756 0.96359 0.0
H1435 H 0.40795 0.47881 0.81265 0.0
H1436 H 0.42593 0.49558 0.87151 0.0
H1437 H 0.48408 0.58115 0.87382 0.0
H1438 H 0.53854 0.62074 1.04547 0.0
H1439 H 0.52344 0.6037 0.98523 0.0
C1440 C 0.9012 0.43139 0.12901 0.0
C1441 C 0.91184 0.41632 0.1202 0.0
C1442 C 0.90193 0.44032 0.16414 0.0
C1443 C 0.91826 0.43454 0.26196 0.0
H1444 H 0.91027 0.49265 0.27366 0.0
C1445 C 0.91128 0.46919 0.40684 0.0
C1446 C 0.91591 0.4938 0.41311 0.0
C1447 C 0.91106 0.46013 0.37188 0.0
C1448 C 0.91286 0.47657 0.27159 0.0
H1449 H 0.93131 0.39874 0.14382 0.0
H1450 H 0.93354 0.41492 0.20436 0.0
H1451 H 0.91064 0.4773 0.21437 0.0
H1452 H 0.92434 0.52813 0.38567 0.0
H1453 H 0.92496 0.51305 0.32538 0.0
H1454 H 0.92196 0.43469 0.31906 0.0
C1455 C 0.92403 0.4196 0.18408 0.0
C1456 C 0.91258 0.46722 0.23673 0.0
C1457 C 0.92294 0.41029 0.14877 0.0
C1458 C 0.92043 0.50901 0.3825 0.0
C1459 C 0.92065 0.50008 0.34739 0.0
C1460 C 0.91891 0.44412 0.29682 0.0
C1461 C 0.91369 0.43509 0.19276 0.0
C1462 C 0.91494 0.44571 0.23079 0.0
C1463 C 0.91594 0.4753 0.34096 0.0
C1464 C 0.91595 0.46529 0.30283 0.0
H1465 H 0.89223 0.43658 0.10846 0.0
H1466 H 0.89291 0.45131 0.16855 0.0
H1467 H 0.92007 0.41799 0.25981 0.0
H1468 H 0.90753 0.45656 0.42922 0.0
H1469 H 0.90669 0.44086 0.36947 0.0
C1470 C 0.52143 0.9269 0.4827 0.0
C1471 C 0.50505 0.91402 0.45409 0.0
C1472 C 0.51227 0.92735 0.51755 0.0
C1473 C 0.45236 0.91393 0.5678 0.0
H1474 H 0.49157 0.92016 0.65194 0.0
C1475 C 0.41881 0.92225 0.7143 0.0
C1476 C 0.42591 0.9126 0.7436 0.0
C1477 C 0.42814 0.92303 0.67908 0.0
C1478 C 0.47999 0.91811 0.629 0.0
H1479 H 0.46567 0.89142 0.44124 0.0
H1480 H 0.45002 0.89198 0.50079 0.0
H1481 H 0.5079 0.91964 0.59285 0.0
H1482 H 0.44874 0.896 0.75711 0.0
H1483 H 0.46436 0.89707 0.69726 0.0
H1484 H 0.42418 0.91176 0.60413 0.0
C1485 C 0.47005 0.90216 0.49666 0.0
C1486 C 0.48971 0.9182 0.59449 0.0
C1487 C 0.47918 0.90159 0.46205 0.0
C1488 C 0.44256 0.90365 0.7359 0.0
C1489 C 0.45191 0.90452 0.70102 0.0
C1490 C 0.44262 0.9138 0.60235 0.0
C1491 C 0.48628 0.91519 0.52539 0.0
C1492 C 0.47609 0.91589 0.56288 0.0
C1493 C 0.44521 0.91443 0.67162 0.0
C1494 C 0.45605 0.91561 0.63396 0.0
H1495 H 0.54144 0.93701 0.47812 0.0
H1496 H 0.52577 0.93793 0.53812 0.0
H1497 H 0.44111 0.91263 0.54482 0.0
H1498 H 0.40633 0.92964 0.71862 0.0
H1499 H 0.42243 0.9311 0.65787 0.0
C1500 C 0.60071 0.51426 0.81188 0.0
C1501 C 0.59528 0.49746 0.78307 0.0
C1502 C 0.59137 0.50558 0.84706 0.0
C1503 C 0.54242 0.44718 0.89825 0.0
H1504 H 0.57823 0.48516 0.98172 0.0
C1505 C 0.50122 0.41528 1.0455 0.0
C1506 C 0.51795 0.4216 1.07458 0.0
C1507 C 0.50988 0.42438 1.01019 0.0
C1508 C 0.56787 0.4739 0.959 0.0
H1509 H 0.57538 0.45781 0.77032 0.0
H1510 H 0.55967 0.443 0.83029 0.0
H1511 H 0.59494 0.5007 0.92229 0.0
H1512 H 0.55746 0.4427 1.08757 0.0
H1513 H 0.57219 0.45782 1.02751 0.0
H1514 H 0.51568 0.42005 0.93505 0.0
C1515 C 0.57083 0.46303 0.82612 0.0
C1516 C 0.57745 0.4832 0.92427 0.0
C1517 C 0.58025 0.47166 0.79121 0.0
C1518 C 0.54364 0.43719 1.06653 0.0
C1519 C 0.55223 0.44626 1.03153 0.0
C1520 C 0.53286 0.43785 0.93301 0.0
C1521 C 0.57589 0.47969 0.85505 0.0
C1522 C 0.56513 0.47002 0.89285 0.0
C1523 C 0.53566 0.44037 1.00232 0.0
C1524 C 0.54543 0.45082 0.96443 0.0
H1525 H 0.61187 0.53425 0.8072 0.0
H1526 H 0.59578 0.51944 0.86775 0.0
H1527 H 0.53167 0.43632 0.87549 0.0
H1528 H 0.48131 0.40365 1.05007 0.0
H1529 H 0.49611 0.41931 0.98922 0.0
C1530 C 0.10339 0.50272 0.37547 0.0
C1531 C 0.11105 0.51903 0.4052 0.0
C1532 C 0.10298 0.51149 0.34024 0.0
C1533 C 0.1061 0.56798 0.29092 0.0
H1534 H 0.11215 0.53515 0.20642 0.0
C1535 C 0.09653 0.60071 0.14483 0.0
C1536 C 0.10891 0.59671 0.11592 0.0
C1537 C 0.09641 0.59131 0.17977 0.0
C1538 C 0.11073 0.54499 0.22947 0.0
H1539 H 0.12604 0.55809 0.41936 0.0
H1540 H 0.12616 0.57316 0.35942 0.0
H1541 H 0.11373 0.51924 0.26542 0.0
H1542 H 0.1314 0.5797 0.10277 0.0
H1543 H 0.13173 0.56423 0.16233 0.0
H1544 H 0.10386 0.59418 0.25507 0.0
C1545 C 0.11934 0.55332 0.36286 0.0
C1546 C 0.11125 0.53543 0.26389 0.0
C1547 C 0.11957 0.54458 0.39776 0.0
C1548 C 0.12147 0.58331 0.12375 0.0
C1549 C 0.12141 0.57401 0.15842 0.0
C1550 C 0.10572 0.57762 0.25652 0.0
C1551 C 0.1105 0.53701 0.33315 0.0
C1552 C 0.10919 0.54678 0.29563 0.0
C1553 C 0.10862 0.5774 0.18738 0.0
C1554 C 0.10824 0.56654 0.22479 0.0
H1555 H 0.09655 0.48292 0.37959 0.0
H1556 H 0.09592 0.49793 0.31876 0.0
H1557 H 0.10378 0.57728 0.31394 0.0
H1558 H 0.08635 0.6106 0.14035 0.0
H1559 H 0.08602 0.59439 0.20055 0.0
loop_
_geom_bond_atom_site_label_1
_geom_bond_atom_site_label_2
_geom_bond_distance
_geom_bond_site_symmetry_2
_ccdc_geom_bond_type
Dy0 O3 2.307 . S
Dy0 O5 2.395 . S
Dy0 O6 2.379 . S
Dy0 O8 2.339 . S
Dy0 O10 2.298 . S
Dy0 O14 2.275 . S
Dy0 C22 2.738 . S
Dy1 O4 2.298 . S
Dy1 O7 2.275 . S
Dy1 O9 2.307 . S
Dy1 O11 2.395 . S
Dy1 O12 2.379 . S
Dy1 O15 2.339 . S
Dy1 C31 2.738 . S
C2 O14 1.254 . S
C2 O15 1.257 . S
O3 Dy0 2.307 . S
O3 C13 1.266 . S
O4 Dy1 2.298 . S
O4 C13 1.236 . S
O5 Dy0 2.395 . S
O5 C22 1.255 . S
O6 Dy0 2.379 . S
O6 C22 1.249 . S
O7 Dy1 2.275 . S
O7 C23 1.254 . S
O8 Dy0 2.339 . S
O8 C23 1.257 . S
O9 Dy1 2.307 . S
O9 C24 1.266 . S
O10 Dy0 2.298 . S
O10 C24 1.236 . S
O11 Dy1 2.395 . S
O11 C31 1.255 . S
O12 Dy1 2.379 . S
O12 C31 1.249 . S
C13 O3 1.266 . S
C13 O4 1.236 . S
O14 Dy0 2.275 . S
O14 C2 1.254 . S
O15 Dy1 2.339 . S
O15 C2 1.257 . S
C16 C19 1.344 . S
C16 C20 1.328 . S
C16 C22 1.516 . S
C17 C18 1.304 . S
C17 C21 1.323 . S
C18 C17 1.304 . S
C18 C19 1.371 . S
C18 H32 0.930 . S
C19 C16 1.344 . S
C19 C18 1.371 . S
C19 H33 0.931 . S
C20 C16 1.328 . S
C20 C21 1.433 . S
C20 H34 0.931 . S
C21 C17 1.323 . S
C21 C20 1.433 . S
C21 H35 0.933 . S
C22 Dy0 2.738 . S
C22 O5 1.255 . S
C22 O6 1.249 . S
C22 C16 1.516 . S
C23 O7 1.254 . S
C23 O8 1.257 . S
C24 O9 1.266 . S
C24 O10 1.236 . S
C25 C28 1.344 . S
C25 C29 1.328 . S
C25 C31 1.516 . S
C26 C27 1.304 . S
C26 C30 1.323 . S
C27 C26 1.304 . S
C27 C28 1.371 . S
C27 H36 0.930 . S
C28 C25 1.344 . S
C28 C27 1.371 . S
C28 H37 0.931 . S
C29 C25 1.328 . S
C29 C30 1.433 . S
C29 H38 0.931 . S
C30 C26 1.323 . S
C30 C29 1.433 . S
C30 H39 0.933 . S
C31 Dy1 2.738 . S
C31 O11 1.255 . S
C31 O12 1.249 . S
C31 C25 1.516 . S
H32 C18 0.930 . S
H33 C19 0.931 . S
H34 C20 0.931 . S
H35 C21 0.933 . S
H36 C27 0.930 . S
H37 C28 0.931 . S
H38 C29 0.931 . S
H39 C30 0.933 . S
Dy40 O43 2.307 . S
Dy40 O45 2.395 . S
Dy40 O46 2.379 . S
Dy40 O48 2.339 . S
Dy40 O50 2.298 . S
Dy40 O54 2.275 . S
Dy40 C62 2.738 . S
Dy41 O44 2.298 . S
Dy41 O47 2.275 . S
Dy41 O49 2.307 . S
Dy41 O51 2.395 . S
Dy41 O52 2.379 . S
Dy41 O55 2.339 . S
Dy41 C71 2.738 . S
C42 O54 1.254 . S
C42 O55 1.257 . S
O43 Dy40 2.307 . S
O43 C53 1.266 . S
O44 Dy41 2.298 . S
O44 C53 1.236 . S
O45 Dy40 2.395 . S
O45 C62 1.255 . S
O46 Dy40 2.379 . S
O46 C62 1.249 . S
O47 Dy41 2.275 . S
O47 C63 1.254 . S
O48 Dy40 2.339 . S
O48 C63 1.257 . S
O49 Dy41 2.307 . S
O49 C64 1.266 . S
O50 Dy40 2.298 . S
O50 C64 1.236 . S
O51 Dy41 2.395 . S
O51 C71 1.255 . S
O52 Dy41 2.379 . S
O52 C71 1.249 . S
C53 O43 1.266 . S
C53 O44 1.236 . S
O54 Dy40 2.275 . S
O54 C42 1.254 . S
O55 Dy41 2.339 . S
O55 C42 1.257 . S
C56 C59 1.344 . S
C56 C60 1.328 . S
C56 C62 1.516 . S
C57 C58 1.304 . S
C57 C61 1.323 . S
C58 C57 1.304 . S
C58 C59 1.371 . S
C58 H72 0.930 . S
C59 C56 1.344 . S
C59 C58 1.371 . S
C59 H73 0.931 . S
C60 C56 1.328 . S
C60 C61 1.433 . S
C60 H74 0.931 . S
C61 C57 1.323 . S
C61 C60 1.433 . S
C61 H75 0.933 . S
C62 Dy40 2.738 . S
C62 O45 1.255 . S
C62 O46 1.249 . S
C62 C56 1.516 . S
C63 O47 1.254 . S
C63 O48 1.257 . S
C64 O49 1.266 . S
C64 O50 1.236 . S
C65 C68 1.344 . S
C65 C69 1.328 . S
C65 C71 1.516 . S
C66 C67 1.304 . S
C66 C70 1.323 . S
C67 C66 1.304 . S
C67 C68 1.371 . S
C67 H76 0.930 . S
C68 C65 1.344 . S
C68 C67 1.371 . S
C68 H77 0.931 . S
C69 C65 1.328 . S
C69 C70 1.433 . S
C69 H78 0.931 . S
C70 C66 1.323 . S
C70 C69 1.433 . S
C70 H79 0.933 . S
C71 Dy41 2.738 . S
C71 O51 1.255 . S
C71 O52 1.249 . S
C71 C65 1.516 . S
H72 C58 0.930 . S
H73 C59 0.931 . S
H74 C60 0.931 . S
H75 C61 0.933 . S
H76 C67 0.930 . S
H77 C68 0.931 . S
H78 C69 0.931 . S
H79 C70 0.933 . S
Dy80 O83 2.307 . S
Dy80 O85 2.395 . S
Dy80 O86 2.379 . S
Dy80 O88 2.339 . S
Dy80 O90 2.298 . S
Dy80 O94 2.275 . S
Dy80 C102 2.738 . S
Dy81 O84 2.298 . S
Dy81 O87 2.275 . S
Dy81 O89 2.307 . S
Dy81 O91 2.395 . S
Dy81 O92 2.379 . S
Dy81 O95 2.339 . S
Dy81 C111 2.738 . S
C82 O94 1.254 . S
C82 O95 1.257 . S
O83 Dy80 2.307 . S
O83 C93 1.266 . S
O84 Dy81 2.298 . S
O84 C93 1.236 . S
O85 Dy80 2.395 . S
O85 C102 1.255 . S
O86 Dy80 2.379 . S
O86 C102 1.249 . S
O87 Dy81 2.275 . S
O87 C103 1.254 . S
O88 Dy80 2.339 . S
O88 C103 1.257 . S
O89 Dy81 2.307 . S
O89 C104 1.266 . S
O90 Dy80 2.298 . S
O90 C104 1.236 . S
O91 Dy81 2.395 . S
O91 C111 1.255 . S
O92 Dy81 2.379 . S
O92 C111 1.249 . S
C93 O83 1.266 . S
C93 O84 1.236 . S
O94 Dy80 2.275 . S
O94 C82 1.254 . S
O95 Dy81 2.339 . S
O95 C82 1.257 . S
C96 C99 1.344 . S
C96 C100 1.328 . S
C96 C102 1.516 . S
C97 C98 1.304 . S
C97 C101 1.323 . S
C98 C97 1.304 . S
C98 C99 1.371 . S
C98 H112 0.930 . S
C99 C96 1.344 . S
C99 C98 1.371 . S
C99 H113 0.931 . S
C100 C96 1.328 . S
C100 C101 1.433 . S
C100 H114 0.931 . S
C101 C97 1.323 . S
C101 C100 1.433 . S
C101 H115 0.933 . S
C102 Dy80 2.738 . S
C102 O85 1.255 . S
C102 O86 1.249 . S
C102 C96 1.516 . S
C103 O87 1.254 . S
C103 O88 1.257 . S
C104 O89 1.266 . S
C104 O90 1.236 . S
C105 C108 1.344 . S
C105 C109 1.328 . S
C105 C111 1.516 1_554 S
C106 C107 1.304 . S
C106 C110 1.323 . S
C107 C106 1.304 . S
C107 C108 1.371 . S
C107 H116 0.930 . S
C108 C105 1.344 . S
C108 C107 1.371 . S
C108 H117 0.931 . S
C109 C105 1.328 . S
C109 C110 1.433 . S
C109 H118 0.931 . S
C110 C106 1.323 . S
C110 C109 1.433 . S
C110 H119 0.933 . S
C111 Dy81 2.738 . S
C111 O91 1.255 . S
C111 O92 1.249 . S
C111 C105 1.516 1_556 S
H112 C98 0.930 . S
H113 C99 0.931 . S
H114 C100 0.931 . S
H115 C101 0.933 . S
H116 C107 0.930 . S
H117 C108 0.931 . S
H118 C109 0.931 . S
H119 C110 0.933 . S
Dy120 O123 2.307 . S
Dy120 O125 2.395 . S
Dy120 O126 2.379 . S
Dy120 O128 2.339 . S
Dy120 O130 2.298 . S
Dy120 O134 2.275 . S
Dy120 C142 2.738 . S
Dy121 O124 2.298 . S
Dy121 O127 2.275 . S
Dy121 O129 2.307 . S
Dy121 O131 2.395 . S
Dy121 O132 2.379 . S
Dy121 O135 2.339 . S
Dy121 C151 2.738 . S
C122 O134 1.254 . S
C122 O135 1.257 . S
O123 Dy120 2.307 . S
O123 C133 1.266 . S
O124 Dy121 2.298 . S
O124 C133 1.236 . S
O125 Dy120 2.395 . S
O125 C142 1.255 . S
O126 Dy120 2.379 . S
O126 C142 1.249 . S
O127 Dy121 2.275 . S
O127 C143 1.254 . S
O128 Dy120 2.339 . S
O128 C143 1.257 . S
O129 Dy121 2.307 . S
O129 C144 1.266 . S
O130 Dy120 2.298 . S
O130 C144 1.236 . S
O131 Dy121 2.395 . S
O131 C151 1.255 . S
O132 Dy121 2.379 . S
O132 C151 1.249 . S
C133 O123 1.266 . S
C133 O124 1.236 . S
O134 Dy120 2.275 . S
O134 C122 1.254 . S
O135 Dy121 2.339 . S
O135 C122 1.257 . S
C136 C139 1.344 . S
C136 C140 1.328 . S
C136 C142 1.516 . S
C137 C138 1.304 . S
C137 C141 1.323 . S
C138 C137 1.304 . S
C138 C139 1.371 . S
C138 H152 0.930 . S
C139 C136 1.344 . S
C139 C138 1.371 . S
C139 H153 0.931 . S
C140 C136 1.328 . S
C140 C141 1.433 . S
C140 H154 0.931 . S
C141 C137 1.323 . S
C141 C140 1.433 . S
C141 H155 0.933 . S
C142 Dy120 2.738 . S
C142 O125 1.255 . S
C142 O126 1.249 . S
C142 C136 1.516 . S
C143 O127 1.254 . S
C143 O128 1.257 . S
C144 O129 1.266 . S
C144 O130 1.236 . S
C145 C148 1.344 . S
C145 C149 1.328 . S
C145 C151 1.516 . S
C146 C147 1.304 . S
C146 C150 1.323 . S
C147 C146 1.304 . S
C147 C148 1.371 . S
C147 H156 0.930 . S
C148 C145 1.344 . S
C148 C147 1.371 . S
C148 H157 0.931 . S
C149 C145 1.328 . S
C149 C150 1.433 . S
C149 H158 0.931 . S
C150 C146 1.323 . S
C150 C149 1.433 . S
C150 H159 0.933 . S
C151 Dy121 2.738 . S
C151 O131 1.255 . S
C151 O132 1.249 . S
C151 C145 1.516 . S
H152 C138 0.930 . S
H153 C139 0.931 . S
H154 C140 0.931 . S
H155 C141 0.933 . S
H156 C147 0.930 . S
H157 C148 0.931 . S
H158 C149 0.931 . S
H159 C150 0.933 . S
Dy160 O163 2.307 . S
Dy160 O165 2.395 . S
Dy160 O166 2.379 . S
Dy160 O168 2.339 . S
Dy160 O170 2.298 . S
Dy160 O174 2.275 . S
Dy160 C182 2.738 . S
Dy161 O164 2.298 . S
Dy161 O167 2.275 . S
Dy161 O169 2.307 . S
Dy161 O171 2.395 . S
Dy161 O172 2.379 . S
Dy161 O175 2.339 . S
Dy161 C191 2.738 . S
C162 O174 1.254 . S
C162 O175 1.257 . S
O163 Dy160 2.307 . S
O163 C173 1.266 . S
O164 Dy161 2.298 . S
O164 C173 1.236 . S
O165 Dy160 2.395 . S
O165 C182 1.255 . S
O166 Dy160 2.379 . S
O166 C182 1.249 . S
O167 Dy161 2.275 . S
O167 C183 1.254 . S
O168 Dy160 2.339 . S
O168 C183 1.257 . S
O169 Dy161 2.307 . S
O169 C184 1.266 . S
O170 Dy160 2.298 . S
O170 C184 1.236 . S
O171 Dy161 2.395 . S
O171 C191 1.255 . S
O172 Dy161 2.379 . S
O172 C191 1.249 . S
C173 O163 1.266 . S
C173 O164 1.236 . S
O174 Dy160 2.275 . S
O174 C162 1.254 . S
O175 Dy161 2.339 . S
O175 C162 1.257 . S
C176 C179 1.344 . S
C176 C180 1.328 . S
C176 C182 1.516 . S
C177 C178 1.304 . S
C177 C181 1.323 . S
C178 C177 1.304 . S
C178 C179 1.371 . S
C178 H192 0.930 . S
C179 C176 1.344 . S
C179 C178 1.371 . S
C179 H193 0.931 . S
C180 C176 1.328 . S
C180 C181 1.433 . S
C180 H194 0.931 . S
C181 C177 1.323 . S
C181 C180 1.433 . S
C181 H195 0.933 . S
C182 Dy160 2.738 . S
C182 O165 1.255 . S
C182 O166 1.249 . S
C182 C176 1.516 . S
C183 O167 1.254 . S
C183 O168 1.257 . S
C184 O169 1.266 . S
C184 O170 1.236 . S
C185 C188 1.344 . S
C185 C189 1.328 . S
C185 C191 1.516 . S
C186 C187 1.304 . S
C186 C190 1.323 . S
C187 C186 1.304 . S
C187 C188 1.371 . S
C187 H196 0.930 . S
C188 C185 1.344 . S
C188 C187 1.371 . S
C188 H197 0.931 . S
C189 C185 1.328 . S
C189 C190 1.433 . S
C189 H198 0.931 . S
C190 C186 1.323 . S
C190 C189 1.433 . S
C190 H199 0.933 . S
C191 Dy161 2.738 . S
C191 O171 1.255 . S
C191 O172 1.249 . S
C191 C185 1.516 . S
H192 C178 0.930 . S
H193 C179 0.931 . S
H194 C180 0.931 . S
H195 C181 0.933 . S
H196 C187 0.930 . S
H197 C188 0.931 . S
H198 C189 0.931 . S
H199 C190 0.933 . S
Dy200 O203 2.307 . S
Dy200 O205 2.395 . S
Dy200 O206 2.379 . S
Dy200 O208 2.339 . S
Dy200 O210 2.298 . S
Dy200 O214 2.275 . S
Dy200 C222 2.738 . S
Dy201 O204 2.298 . S
Dy201 O207 2.275 . S
Dy201 O209 2.307 . S
Dy201 O211 2.395 . S
Dy201 O212 2.379 . S
Dy201 O215 2.339 . S
Dy201 C231 2.738 . S
C202 O214 1.254 . S
C202 O215 1.257 . S
O203 Dy200 2.307 . S
O203 C213 1.266 . S
O204 Dy201 2.298 . S
O204 C213 1.236 . S
O205 Dy200 2.395 . S
O205 C222 1.255 . S
O206 Dy200 2.379 . S
O206 C222 1.249 . S
O207 Dy201 2.275 . S
O207 C223 1.254 . S
O208 Dy200 2.339 . S
O208 C223 1.257 . S
O209 Dy201 2.307 . S
O209 C224 1.266 . S
O210 Dy200 2.298 . S
O210 C224 1.236 . S
O211 Dy201 2.395 . S
O211 C231 1.255 . S
O212 Dy201 2.379 . S
O212 C231 1.249 . S
C213 O203 1.266 . S
C213 O204 1.236 . S
O214 Dy200 2.275 . S
O214 C202 1.254 . S
O215 Dy201 2.339 . S
O215 C202 1.257 . S
C216 C219 1.344 . S
C216 C220 1.328 . S
C216 C222 1.516 . S
C217 C218 1.304 . S
C217 C221 1.323 . S
C218 C217 1.304 . S
C218 C219 1.371 . S
C218 H232 0.930 . S
C219 C216 1.344 . S
C219 C218 1.371 . S
C219 H233 0.931 . S
C220 C216 1.328 . S
C220 C221 1.433 . S
C220 H234 0.931 . S
C221 C217 1.323 . S
C221 C220 1.433 . S
C221 H235 0.933 . S
C222 Dy200 2.738 . S
C222 O205 1.255 . S
C222 O206 1.249 . S
C222 C216 1.516 . S
C223 O207 1.254 . S
C223 O208 1.257 . S
C224 O209 1.266 . S
C224 O210 1.236 . S
C225 C228 1.344 . S
C225 C229 1.328 . S
C225 C231 1.516 1_554 S
C226 C227 1.304 . S
C226 C230 1.323 . S
C227 C226 1.304 . S
C227 C228 1.371 . S
C227 H236 0.930 . S
C228 C225 1.344 . S
C228 C227 1.371 . S
C228 H237 0.931 . S
C229 C225 1.328 . S
C229 C230 1.433 . S
C229 H238 0.931 . S
C230 C226 1.323 . S
C230 C229 1.433 . S
C230 H239 0.933 . S
C231 Dy201 2.738 . S
C231 O211 1.255 . S
C231 O212 1.249 . S
C231 C225 1.516 1_556 S
H232 C218 0.930 . S
H233 C219 0.931 . S
H234 C220 0.931 . S
H235 C221 0.933 . S
H236 C227 0.930 . S
H237 C228 0.931 . S
H238 C229 0.931 . S
H239 C230 0.933 . S
Dy240 O243 2.307 . S
Dy240 O245 2.395 . S
Dy240 O246 2.379 . S
Dy240 O248 2.339 . S
Dy240 O250 2.298 . S
Dy240 O254 2.275 . S
Dy240 C262 2.738 . S
Dy241 O244 2.298 . S
Dy241 O247 2.275 . S
Dy241 O249 2.307 . S
Dy241 O251 2.395 . S
Dy241 O252 2.379 . S
Dy241 O255 2.339 . S
Dy241 C271 2.738 . S
C242 O254 1.254 . S
C242 O255 1.257 . S
O243 Dy240 2.307 . S
O243 C253 1.266 . S
O244 Dy241 2.298 . S
O244 C253 1.236 . S
O245 Dy240 2.395 . S
O245 C262 1.255 . S
O246 Dy240 2.379 . S
O246 C262 1.249 . S
O247 Dy241 2.275 . S
O247 C263 1.254 . S
O248 Dy240 2.339 . S
O248 C263 1.257 . S
O249 Dy241 2.307 . S
O249 C264 1.266 . S
O250 Dy240 2.298 . S
O250 C264 1.236 . S
O251 Dy241 2.395 . S
O251 C271 1.255 . S
O252 Dy241 2.379 . S
O252 C271 1.249 . S
C253 O243 1.266 . S
C253 O244 1.236 . S
O254 Dy240 2.275 . S
O254 C242 1.254 . S
O255 Dy241 2.339 . S
O255 C242 1.257 . S
C256 C259 1.344 . S
C256 C260 1.328 . S
C256 C262 1.516 . S
C257 C258 1.304 . S
C257 C261 1.323 . S
C258 C257 1.304 . S
C258 C259 1.371 . S
C258 H272 0.930 . S
C259 C256 1.344 . S
C259 C258 1.371 . S
C259 H273 0.931 . S
C260 C256 1.328 . S
C260 C261 1.433 . S
C260 H274 0.931 . S
C261 C257 1.323 . S
C261 C260 1.433 . S
C261 H275 0.933 . S
C262 Dy240 2.738 . S
C262 O245 1.255 . S
C262 O246 1.249 . S
C262 C256 1.516 . S
C263 O247 1.254 . S
C263 O248 1.257 . S
C264 O249 1.266 . S
C264 O250 1.236 . S
C265 C268 1.344 . S
C265 C269 1.328 . S
C265 C271 1.516 . S
C266 C267 1.304 . S
C266 C270 1.323 . S
C267 C266 1.304 . S
C267 C268 1.371 . S
C267 H276 0.930 . S
C268 C265 1.344 . S
C268 C267 1.371 . S
C268 H277 0.931 . S
C269 C265 1.328 . S
C269 C270 1.433 . S
C269 H278 0.931 . S
C270 C266 1.323 . S
C270 C269 1.433 . S
C270 H279 0.933 . S
C271 Dy241 2.738 . S
C271 O251 1.255 . S
C271 O252 1.249 . S
C271 C265 1.516 . S
H272 C258 0.930 . S
H273 C259 0.931 . S
H274 C260 0.931 . S
H275 C261 0.933 . S
H276 C267 0.930 . S
H277 C268 0.931 . S
H278 C269 0.931 . S
H279 C270 0.933 . S
Dy280 O283 2.307 . S
Dy280 O285 2.395 . S
Dy280 O286 2.379 . S
Dy280 O288 2.339 . S
Dy280 O290 2.298 . S
Dy280 O294 2.275 . S
Dy280 C302 2.738 . S
Dy281 O284 2.298 . S
Dy281 O287 2.275 . S
Dy281 O289 2.307 . S
Dy281 O291 2.395 . S
Dy281 O292 2.379 . S
Dy281 O295 2.339 . S
Dy281 C311 2.738 . S
C282 O294 1.254 . S
C282 O295 1.257 . S
O283 Dy280 2.307 . S
O283 C293 1.266 . S
O284 Dy281 2.298 . S
O284 C293 1.236 . S
O285 Dy280 2.395 . S
O285 C302 1.255 . S
O286 Dy280 2.379 . S
O286 C302 1.249 . S
O287 Dy281 2.275 . S
O287 C303 1.254 . S
O288 Dy280 2.339 . S
O288 C303 1.257 . S
O289 Dy281 2.307 . S
O289 C304 1.266 . S
O290 Dy280 2.298 . S
O290 C304 1.236 . S
O291 Dy281 2.395 . S
O291 C311 1.255 . S
O292 Dy281 2.379 . S
O292 C311 1.249 . S
C293 O283 1.266 . S
C293 O284 1.236 . S
O294 Dy280 2.275 . S
O294 C282 1.254 . S
O295 Dy281 2.339 . S
O295 C282 1.257 . S
C296 C299 1.344 . S
C296 C300 1.328 . S
C296 C302 1.516 . S
C297 C298 1.304 . S
C297 C301 1.323 . S
C298 C297 1.304 . S
C298 C299 1.371 . S
C298 H312 0.930 . S
C299 C296 1.344 . S
C299 C298 1.371 . S
C299 H313 0.931 . S
C300 C296 1.328 . S
C300 C301 1.433 . S
C300 H314 0.931 . S
C301 C297 1.323 . S
C301 C300 1.433 . S
C301 H315 0.933 . S
C302 Dy280 2.738 . S
C302 O285 1.255 . S
C302 O286 1.249 . S
C302 C296 1.516 . S
C303 O287 1.254 . S
C303 O288 1.257 . S
C304 O289 1.266 . S
C304 O290 1.236 . S
C305 C308 1.344 . S
C305 C309 1.328 . S
C305 C311 1.516 . S
C306 C307 1.304 . S
C306 C310 1.323 . S
C307 C306 1.304 . S
C307 C308 1.371 . S
C307 H316 0.930 . S
C308 C305 1.344 . S
C308 C307 1.371 . S
C308 H317 0.931 . S
C309 C305 1.328 . S
C309 C310 1.433 . S
C309 H318 0.931 . S
C310 C306 1.323 . S
C310 C309 1.433 . S
C310 H319 0.933 . S
C311 Dy281 2.738 . S
C311 O291 1.255 . S
C311 O292 1.249 . S
C311 C305 1.516 . S
H312 C298 0.930 . S
H313 C299 0.931 . S
H314 C300 0.931 . S
H315 C301 0.933 . S
H316 C307 0.930 . S
H317 C308 0.931 . S
H318 C309 0.931 . S
H319 C310 0.933 . S
Dy320 O323 2.307 . S
Dy320 O325 2.395 . S
Dy320 O326 2.379 . S
Dy320 O328 2.339 . S
Dy320 O330 2.298 . S
Dy320 O334 2.275 . S
Dy320 C342 2.738 . S
Dy321 O324 2.298 . S
Dy321 O327 2.275 . S
Dy321 O329 2.307 . S
Dy321 O331 2.395 . S
Dy321 O332 2.379 . S
Dy321 O335 2.339 . S
Dy321 C351 2.738 . S
C322 O334 1.254 . S
C322 O335 1.257 . S
O323 Dy320 2.307 . S
O323 C333 1.266 . S
O324 Dy321 2.298 . S
O324 C333 1.236 . S
O325 Dy320 2.395 . S
O325 C342 1.255 . S
O326 Dy320 2.379 . S
O326 C342 1.249 . S
O327 Dy321 2.275 . S
O327 C343 1.254 . S
O328 Dy320 2.339 . S
O328 C343 1.257 . S
O329 Dy321 2.307 . S
O329 C344 1.266 . S
O330 Dy320 2.298 . S
O330 C344 1.236 . S
O331 Dy321 2.395 . S
O331 C351 1.255 . S
O332 Dy321 2.379 . S
O332 C351 1.249 . S
C333 O323 1.266 . S
C333 O324 1.236 . S
O334 Dy320 2.275 . S
O334 C322 1.254 . S
O335 Dy321 2.339 . S
O335 C322 1.257 . S
C336 C339 1.344 . S
C336 C340 1.328 . S
C336 C342 1.516 . S
C337 C338 1.304 . S
C337 C341 1.323 . S
C338 C337 1.304 . S
C338 C339 1.371 . S
C338 H352 0.930 . S
C339 C336 1.344 . S
C339 C338 1.371 . S
C339 H353 0.931 . S
C340 C336 1.328 . S
C340 C341 1.433 . S
C340 H354 0.931 . S
C341 C337 1.323 . S
C341 C340 1.433 . S
C341 H355 0.933 . S
C342 Dy320 2.738 . S
C342 O325 1.255 . S
C342 O326 1.249 . S
C342 C336 1.516 . S
C343 O327 1.254 . S
C343 O328 1.257 . S
C344 O329 1.266 . S
C344 O330 1.236 . S
C345 C348 1.344 . S
C345 C349 1.328 . S
C345 C351 1.516 1_556 S
C346 C347 1.304 . S
C346 C350 1.323 . S
C347 C346 1.304 . S
C347 C348 1.371 . S
C347 H356 0.930 . S
C348 C345 1.344 . S
C348 C347 1.371 . S
C348 H357 0.931 . S
C349 C345 1.328 . S
C349 C350 1.433 . S
C349 H358 0.931 . S
C350 C346 1.323 . S
C350 C349 1.433 . S
C350 H359 0.933 . S
C351 Dy321 2.738 . S
C351 O331 1.255 . S
C351 O332 1.249 . S
C351 C345 1.516 1_554 S
H352 C338 0.930 . S
H353 C339 0.931 . S
H354 C340 0.931 . S
H355 C341 0.933 . S
H356 C347 0.930 . S
H357 C348 0.931 . S
H358 C349 0.931 . S
H359 C350 0.933 . S
Dy360 O363 2.307 . S
Dy360 O365 2.395 . S
Dy360 O366 2.379 . S
Dy360 O368 2.339 . S
Dy360 O370 2.298 . S
Dy360 O374 2.275 . S
Dy360 C382 2.738 . S
Dy361 O364 2.298 . S
Dy361 O367 2.275 . S
Dy361 O369 2.307 . S
Dy361 O371 2.395 . S
Dy361 O372 2.379 . S
Dy361 O375 2.339 . S
Dy361 C391 2.738 . S
C362 O374 1.254 . S
C362 O375 1.257 . S
O363 Dy360 2.307 . S
O363 C373 1.266 . S
O364 Dy361 2.298 . S
O364 C373 1.236 . S
O365 Dy360 2.395 . S
O365 C382 1.255 . S
O366 Dy360 2.379 . S
O366 C382 1.249 . S
O367 Dy361 2.275 . S
O367 C383 1.254 . S
O368 Dy360 2.339 . S
O368 C383 1.257 . S
O369 Dy361 2.307 . S
O369 C384 1.266 . S
O370 Dy360 2.298 . S
O370 C384 1.236 . S
O371 Dy361 2.395 . S
O371 C391 1.255 . S
O372 Dy361 2.379 . S
O372 C391 1.249 . S
C373 O363 1.266 . S
C373 O364 1.236 . S
O374 Dy360 2.275 . S
O374 C362 1.254 . S
O375 Dy361 2.339 . S
O375 C362 1.257 . S
C376 C379 1.344 . S
C376 C380 1.328 . S
C376 C382 1.516 . S
C377 C378 1.304 . S
C377 C381 1.323 . S
C378 C377 1.304 . S
C378 C379 1.371 . S
C378 H392 0.930 . S
C379 C376 1.344 . S
C379 C378 1.371 . S
C379 H393 0.931 . S
C380 C376 1.328 . S
C380 C381 1.433 . S
C380 H394 0.931 . S
C381 C377 1.323 . S
C381 C380 1.433 . S
C381 H395 0.933 . S
C382 Dy360 2.738 . S
C382 O365 1.255 . S
C382 O366 1.249 . S
C382 C376 1.516 . S
C383 O367 1.254 . S
C383 O368 1.257 . S
C384 O369 1.266 . S
C384 O370 1.236 . S
C385 C388 1.344 . S
C385 C389 1.328 . S
C385 C391 1.516 . S
C386 C387 1.304 . S
C386 C390 1.323 . S
C387 C386 1.304 . S
C387 C388 1.371 . S
C387 H396 0.930 . S
C388 C385 1.344 . S
C388 C387 1.371 . S
C388 H397 0.931 . S
C389 C385 1.328 . S
C389 C390 1.433 . S
C389 H398 0.931 . S
C390 C386 1.323 . S
C390 C389 1.433 . S
C390 H399 0.933 . S
C391 Dy361 2.738 . S
C391 O371 1.255 . S
C391 O372 1.249 . S
C391 C385 1.516 . S
H392 C378 0.930 . S
H393 C379 0.931 . S
H394 C380 0.931 . S
H395 C381 0.933 . S
H396 C387 0.930 . S
H397 C388 0.931 . S
H398 C389 0.931 . S
H399 C390 0.933 . S
Dy400 O403 2.307 . S
Dy400 O405 2.395 . S
Dy400 O406 2.379 . S
Dy400 O408 2.339 . S
Dy400 O410 2.298 . S
Dy400 O414 2.275 . S
Dy400 C422 2.738 . S
Dy401 O404 2.298 . S
Dy401 O407 2.275 . S
Dy401 O409 2.307 . S
Dy401 O411 2.395 . S
Dy401 O412 2.379 . S
Dy401 O415 2.339 . S
Dy401 C431 2.738 . S
C402 O414 1.254 . S
C402 O415 1.257 . S
O403 Dy400 2.307 . S
O403 C413 1.266 . S
O404 Dy401 2.298 . S
O404 C413 1.236 . S
O405 Dy400 2.395 . S
O405 C422 1.255 . S
O406 Dy400 2.379 . S
O406 C422 1.249 . S
O407 Dy401 2.275 . S
O407 C423 1.254 . S
O408 Dy400 2.339 . S
O408 C423 1.257 . S
O409 Dy401 2.307 . S
O409 C424 1.266 . S
O410 Dy400 2.298 . S
O410 C424 1.236 . S
O411 Dy401 2.395 . S
O411 C431 1.255 . S
O412 Dy401 2.379 . S
O412 C431 1.249 . S
C413 O403 1.266 . S
C413 O404 1.236 . S
O414 Dy400 2.275 . S
O414 C402 1.254 . S
O415 Dy401 2.339 . S
O415 C402 1.257 . S
C416 C419 1.344 . S
C416 C420 1.328 . S
C416 C422 1.516 . S
C417 C418 1.304 . S
C417 C421 1.323 . S
C418 C417 1.304 . S
C418 C419 1.371 . S
C418 H432 0.930 . S
C419 C416 1.344 . S
C419 C418 1.371 . S
C419 H433 0.931 . S
C420 C416 1.328 . S
C420 C421 1.433 . S
C420 H434 0.931 . S
C421 C417 1.323 . S
C421 C420 1.433 . S
C421 H435 0.933 . S
C422 Dy400 2.738 . S
C422 O405 1.255 . S
C422 O406 1.249 . S
C422 C416 1.516 . S
C423 O407 1.254 . S
C423 O408 1.257 . S
C424 O409 1.266 . S
C424 O410 1.236 . S
C425 C428 1.344 . S
C425 C429 1.328 . S
C425 C431 1.516 . S
C426 C427 1.304 . S
C426 C430 1.323 . S
C427 C426 1.304 . S
C427 C428 1.371 . S
C427 H436 0.930 . S
C428 C425 1.344 . S
C428 C427 1.371 . S
C428 H437 0.931 . S
C429 C425 1.328 . S
C429 C430 1.433 . S
C429 H438 0.931 . S
C430 C426 1.323 . S
C430 C429 1.433 . S
C430 H439 0.933 . S
C431 Dy401 2.738 . S
C431 O411 1.255 . S
C431 O412 1.249 . S
C431 C425 1.516 . S
H432 C418 0.930 . S
H433 C419 0.931 . S
H434 C420 0.931 . S
H435 C421 0.933 . S
H436 C427 0.930 . S
H437 C428 0.931 . S
H438 C429 0.931 . S
H439 C430 0.933 . S
Dy440 O443 2.307 . S
Dy440 O445 2.395 . S
Dy440 O446 2.379 . S
Dy440 O448 2.339 . S
Dy440 O450 2.298 . S
Dy440 O454 2.275 . S
Dy440 C462 2.738 . S
Dy441 O444 2.298 . S
Dy441 O447 2.275 . S
Dy441 O449 2.307 . S
Dy441 O451 2.395 . S
Dy441 O452 2.379 . S
Dy441 O455 2.339 . S
Dy441 C471 2.738 . S
C442 O454 1.254 . S
C442 O455 1.257 . S
O443 Dy440 2.307 . S
O443 C453 1.266 . S
O444 Dy441 2.298 . S
O444 C453 1.236 . S
O445 Dy440 2.395 . S
O445 C462 1.255 . S
O446 Dy440 2.379 . S
O446 C462 1.249 . S
O447 Dy441 2.275 . S
O447 C463 1.254 . S
O448 Dy440 2.339 . S
O448 C463 1.257 . S
O449 Dy441 2.307 . S
O449 C464 1.266 . S
O450 Dy440 2.298 . S
O450 C464 1.236 . S
O451 Dy441 2.395 . S
O451 C471 1.255 . S
O452 Dy441 2.379 . S
O452 C471 1.249 . S
C453 O443 1.266 . S
C453 O444 1.236 . S
O454 Dy440 2.275 . S
O454 C442 1.254 . S
O455 Dy441 2.339 . S
O455 C442 1.257 . S
C456 C459 1.344 . S
C456 C460 1.328 . S
C456 C462 1.516 . S
C457 C458 1.304 . S
C457 C461 1.323 . S
C458 C457 1.304 . S
C458 C459 1.371 . S
C458 H472 0.930 . S
C459 C456 1.344 . S
C459 C458 1.371 . S
C459 H473 0.931 . S
C460 C456 1.328 . S
C460 C461 1.433 . S
C460 H474 0.931 . S
C461 C457 1.323 . S
C461 C460 1.433 . S
C461 H475 0.933 . S
C462 Dy440 2.738 . S
C462 O445 1.255 . S
C462 O446 1.249 . S
C462 C456 1.516 . S
C463 O447 1.254 . S
C463 O448 1.257 . S
C464 O449 1.266 . S
C464 O450 1.236 . S
C465 C468 1.344 . S
C465 C469 1.328 . S
C465 C471 1.516 1_556 S
C466 C467 1.304 . S
C466 C470 1.323 . S
C467 C466 1.304 . S
C467 C468 1.371 . S
C467 H476 0.930 . S
C468 C465 1.344 . S
C468 C467 1.371 . S
C468 H477 0.931 . S
C469 C465 1.328 . S
C469 C470 1.433 . S
C469 H478 0.931 . S
C470 C466 1.323 . S
C470 C469 1.433 . S
C470 H479 0.933 . S
C471 Dy441 2.738 . S
C471 O451 1.255 . S
C471 O452 1.249 . S
C471 C465 1.516 1_554 S
H472 C458 0.930 . S
H473 C459 0.931 . S
H474 C460 0.931 . S
H475 C461 0.933 . S
H476 C467 0.930 . S
H477 C468 0.931 . S
H478 C469 0.931 . S
H479 C470 0.933 . S
C480 C481 1.349 . S
C480 C482 1.327 . S
C480 H505 0.950 . S
C481 C480 1.349 . S
C481 C497 1.349 . S
C482 C480 1.327 . S
C482 C501 1.429 . S
C482 H506 0.950 . S
C483 C500 1.574 . S
C483 C502 1.368 . S
C483 H507 0.949 . S
H484 C488 0.949 . S
C485 C486 1.349 . S
C485 C487 1.327 . S
C485 H508 0.950 . S
C486 C485 1.349 . S
C486 C498 1.349 . S
C487 C485 1.327 . S
C487 C503 1.429 . S
C487 H509 0.950 . S
C488 H484 0.949 . S
C488 C496 1.574 . S
C488 C504 1.368 . S
H489 C497 0.950 . S
H490 C495 0.950 . S
H491 C496 0.949 . S
H492 C498 0.950 . S
H493 C499 0.950 . S
H494 C500 0.949 . S
C495 H490 0.950 . S
C495 C497 1.327 . S
C495 C501 1.429 . S
C496 C488 1.574 . S
C496 H491 0.949 . S
C496 C502 1.368 . S
C497 C481 1.349 . S
C497 H489 0.950 . S
C497 C495 1.327 . S
C498 C486 1.349 . S
C498 H492 0.950 . S
C498 C499 1.327 . S
C499 H493 0.950 . S
C499 C498 1.327 . S
C499 C503 1.429 . S
C500 C483 1.574 . S
C500 H494 0.949 . S
C500 C504 1.368 . S
C501 C482 1.429 . S
C501 C495 1.429 . S
C501 C502 1.523 . S
C502 C483 1.368 . S
C502 C496 1.368 . S
C502 C501 1.523 . S
C503 C487 1.429 . S
C503 C499 1.429 . S
C503 C504 1.523 . S
C504 C488 1.368 . S
C504 C500 1.368 . S
C504 C503 1.523 . S
H505 C480 0.950 . S
H506 C482 0.950 . S
H507 C483 0.949 . S
H508 C485 0.950 . S
H509 C487 0.950 . S
C510 C511 1.349 . S
C510 C512 1.327 . S
C510 H535 0.950 . S
C511 C510 1.349 . S
C511 C527 1.349 . S
C512 C510 1.327 . S
C512 C531 1.429 . S
C512 H536 0.950 . S
C513 C530 1.574 . S
C513 C532 1.368 . S
C513 H537 0.949 . S
H514 C518 0.949 . S
C515 C516 1.349 . S
C515 C517 1.327 . S
C515 H538 0.950 . S
C516 C515 1.349 . S
C516 C528 1.349 . S
C517 C515 1.327 . S
C517 C533 1.429 . S
C517 H539 0.950 . S
C518 H514 0.949 . S
C518 C526 1.574 . S
C518 C534 1.368 . S
H519 C527 0.950 . S
H520 C525 0.950 . S
H521 C526 0.949 . S
H522 C528 0.950 . S
H523 C529 0.950 . S
H524 C530 0.949 . S
C525 H520 0.950 . S
C525 C527 1.327 . S
C525 C531 1.429 . S
C526 C518 1.574 . S
C526 H521 0.949 . S
C526 C532 1.368 . S
C527 C511 1.349 . S
C527 H519 0.950 . S
C527 C525 1.327 . S
C528 C516 1.349 . S
C528 H522 0.950 . S
C528 C529 1.327 . S
C529 H523 0.950 . S
C529 C528 1.327 . S
C529 C533 1.429 . S
C530 C513 1.574 . S
C530 H524 0.949 . S
C530 C534 1.368 . S
C531 C512 1.429 . S
C531 C525 1.429 . S
C531 C532 1.523 . S
C532 C513 1.368 . S
C532 C526 1.368 . S
C532 C531 1.523 . S
C533 C517 1.429 . S
C533 C529 1.429 . S
C533 C534 1.523 . S
C534 C518 1.368 . S
C534 C530 1.368 . S
C534 C533 1.523 . S
H535 C510 0.950 . S
H536 C512 0.950 . S
H537 C513 0.949 . S
H538 C515 0.950 . S
H539 C517 0.950 . S
C540 C541 1.349 . S
C540 C542 1.327 . S
C540 H565 0.950 . S
C541 C540 1.349 . S
C541 C557 1.349 . S
C542 C540 1.327 . S
C542 C561 1.429 . S
C542 H566 0.950 . S
C543 C560 1.574 . S
C543 C562 1.368 . S
C543 H567 0.949 . S
H544 C548 0.949 . S
C545 C546 1.349 . S
C545 C547 1.327 . S
C545 H568 0.950 . S
C546 C545 1.349 . S
C546 C558 1.349 . S
C547 C545 1.327 . S
C547 C563 1.429 . S
C547 H569 0.950 . S
C548 H544 0.949 . S
C548 C556 1.574 . S
C548 C564 1.368 . S
H549 C557 0.950 . S
H550 C555 0.950 . S
H551 C556 0.949 . S
H552 C558 0.950 . S
H553 C559 0.950 . S
H554 C560 0.949 . S
C555 H550 0.950 . S
C555 C557 1.327 . S
C555 C561 1.429 . S
C556 C548 1.574 . S
C556 H551 0.949 . S
C556 C562 1.368 . S
C557 C541 1.349 . S
C557 H549 0.950 . S
C557 C555 1.327 . S
C558 C546 1.349 . S
C558 H552 0.950 . S
C558 C559 1.327 . S
C559 H553 0.950 . S
C559 C558 1.327 . S
C559 C563 1.429 . S
C560 C543 1.574 . S
C560 H554 0.949 . S
C560 C564 1.368 . S
C561 C542 1.429 . S
C561 C555 1.429 . S
C561 C562 1.523 . S
C562 C543 1.368 . S
C562 C556 1.368 . S
C562 C561 1.523 . S
C563 C547 1.429 . S
C563 C559 1.429 . S
C563 C564 1.523 . S
C564 C548 1.368 . S
C564 C560 1.368 . S
C564 C563 1.523 . S
H565 C540 0.950 . S
H566 C542 0.950 . S
H567 C543 0.949 . S
H568 C545 0.950 . S
H569 C547 0.950 . S
C570 C571 1.349 . S
C570 C572 1.327 . S
C570 H595 0.950 . S
C571 C570 1.349 . S
C571 C587 1.349 . S
C572 C570 1.327 . S
C572 C591 1.429 . S
C572 H596 0.950 . S
C573 C590 1.574 . S
C573 C592 1.368 . S
C573 H597 0.949 . S
H574 C578 0.949 . S
C575 C576 1.349 . S
C575 C577 1.327 . S
C575 H598 0.950 . S
C576 C575 1.349 . S
C576 C588 1.349 . S
C577 C575 1.327 . S
C577 C593 1.429 . S
C577 H599 0.950 . S
C578 H574 0.949 . S
C578 C586 1.574 . S
C578 C594 1.368 . S
H579 C587 0.950 . S
H580 C585 0.950 . S
H581 C586 0.949 . S
H582 C588 0.950 . S
H583 C589 0.950 . S
H584 C590 0.949 . S
C585 H580 0.950 . S
C585 C587 1.327 . S
C585 C591 1.429 . S
C586 C578 1.574 . S
C586 H581 0.949 . S
C586 C592 1.368 . S
C587 C571 1.349 . S
C587 H579 0.950 . S
C587 C585 1.327 . S
C588 C576 1.349 . S
C588 H582 0.950 . S
C588 C589 1.327 . S
C589 H583 0.950 . S
C589 C588 1.327 . S
C589 C593 1.429 . S
C590 C573 1.574 . S
C590 H584 0.949 . S
C590 C594 1.368 . S
C591 C572 1.429 . S
C591 C585 1.429 . S
C591 C592 1.523 . S
C592 C573 1.368 . S
C592 C586 1.368 . S
C592 C591 1.523 . S
C593 C577 1.429 . S
C593 C589 1.429 . S
C593 C594 1.523 . S
C594 C578 1.368 . S
C594 C590 1.368 . S
C594 C593 1.523 . S
H595 C570 0.950 . S
H596 C572 0.950 . S
H597 C573 0.949 . S
H598 C575 0.950 . S
H599 C577 0.950 . S
C600 C601 1.349 . S
C600 C602 1.327 . S
C600 H625 0.950 . S
C601 C600 1.349 . S
C601 C617 1.349 . S
C602 C600 1.327 . S
C602 C621 1.429 . S
C602 H626 0.950 . S
C603 C620 1.574 . S
C603 C622 1.368 . S
C603 H627 0.949 . S
H604 C608 0.949 . S
C605 C606 1.349 . S
C605 C607 1.327 . S
C605 H628 0.950 . S
C606 C605 1.349 . S
C606 C618 1.349 . S
C607 C605 1.327 . S
C607 C623 1.429 . S
C607 H629 0.950 . S
C608 H604 0.949 . S
C608 C616 1.574 . S
C608 C624 1.368 . S
H609 C617 0.950 . S
H610 C615 0.950 . S
H611 C616 0.949 . S
H612 C618 0.950 . S
H613 C619 0.950 . S
H614 C620 0.949 . S
C615 H610 0.950 . S
C615 C617 1.327 . S
C615 C621 1.429 . S
C616 C608 1.574 . S
C616 H611 0.949 . S
C616 C622 1.368 . S
C617 C601 1.349 . S
C617 H609 0.950 . S
C617 C615 1.327 . S
C618 C606 1.349 . S
C618 H612 0.950 . S
C618 C619 1.327 . S
C619 H613 0.950 . S
C619 C618 1.327 . S
C619 C623 1.429 . S
C620 C603 1.574 . S
C620 H614 0.949 . S
C620 C624 1.368 . S
C621 C602 1.429 . S
C621 C615 1.429 . S
C621 C622 1.523 . S
C622 C603 1.368 . S
C622 C616 1.368 . S
C622 C621 1.523 . S
C623 C607 1.429 . S
C623 C619 1.429 . S
C623 C624 1.523 . S
C624 C608 1.368 . S
C624 C620 1.368 . S
C624 C623 1.523 . S
H625 C600 0.950 . S
H626 C602 0.950 . S
H627 C603 0.949 . S
H628 C605 0.950 . S
H629 C607 0.950 . S
C630 C631 1.349 . S
C630 C632 1.327 . S
C630 H655 0.950 . S
C631 C630 1.349 . S
C631 C647 1.349 . S
C632 C630 1.327 . S
C632 C651 1.429 . S
C632 H656 0.950 . S
C633 C650 1.574 . S
C633 C652 1.368 . S
C633 H657 0.949 . S
H634 C638 0.949 . S
C635 C636 1.349 . S
C635 C637 1.327 . S
C635 H658 0.950 . S
C636 C635 1.349 . S
C636 C648 1.349 . S
C637 C635 1.327 . S
C637 C653 1.429 . S
C637 H659 0.950 . S
C638 H634 0.949 . S
C638 C646 1.574 . S
C638 C654 1.368 . S
H639 C647 0.950 . S
H640 C645 0.950 . S
H641 C646 0.949 . S
H642 C648 0.950 . S
H643 C649 0.950 . S
H644 C650 0.949 . S
C645 H640 0.950 . S
C645 C647 1.327 . S
C645 C651 1.429 . S
C646 C638 1.574 . S
C646 H641 0.949 . S
C646 C652 1.368 . S
C647 C631 1.349 . S
C647 H639 0.950 . S
C647 C645 1.327 . S
C648 C636 1.349 . S
C648 H642 0.950 . S
C648 C649 1.327 . S
C649 H643 0.950 . S
C649 C648 1.327 . S
C649 C653 1.429 . S
C650 C633 1.574 . S
C650 H644 0.949 . S
C650 C654 1.368 . S
C651 C632 1.429 . S
C651 C645 1.429 . S
C651 C652 1.523 . S
C652 C633 1.368 . S
C652 C646 1.368 . S
C652 C651 1.523 . S
C653 C637 1.429 . S
C653 C649 1.429 . S
C653 C654 1.523 . S
C654 C638 1.368 . S
C654 C650 1.368 . S
C654 C653 1.523 . S
H655 C630 0.950 . S
H656 C632 0.950 . S
H657 C633 0.949 . S
H658 C635 0.950 . S
H659 C637 0.950 . S
C660 C661 1.349 . S
C660 C662 1.327 . S
C660 H685 0.950 . S
C661 C660 1.349 . S
C661 C677 1.349 . S
C662 C660 1.327 . S
C662 C681 1.429 . S
C662 H686 0.950 . S
C663 C680 1.574 1_556 S
C663 C682 1.368 . S
C663 H687 0.949 . S
H664 C668 0.949 . S
C665 C666 1.349 . S
C665 C667 1.327 . S
C665 H688 0.950 . S
C666 C665 1.349 . S
C666 C678 1.349 . S
C667 C665 1.327 . S
C667 C683 1.429 . S
C667 H689 0.950 . S
C668 H664 0.949 . S
C668 C676 1.574 1_554 S
C668 C684 1.368 . S
H669 C677 0.950 . S
H670 C675 0.950 . S
H671 C676 0.949 . S
H672 C678 0.950 . S
H673 C679 0.950 . S
H674 C680 0.949 . S
C675 H670 0.950 . S
C675 C677 1.327 . S
C675 C681 1.429 . S
C676 C668 1.574 1_556 S
C676 H671 0.949 . S
C676 C682 1.368 . S
C677 C661 1.349 . S
C677 H669 0.950 . S
C677 C675 1.327 . S
C678 C666 1.349 . S
C678 H672 0.950 . S
C678 C679 1.327 . S
C679 H673 0.950 . S
C679 C678 1.327 . S
C679 C683 1.429 . S
C680 C663 1.574 1_554 S
C680 H674 0.949 . S
C680 C684 1.368 . S
C681 C662 1.429 . S
C681 C675 1.429 . S
C681 C682 1.523 . S
C682 C663 1.368 . S
C682 C676 1.368 . S
C682 C681 1.523 . S
C683 C667 1.429 . S
C683 C679 1.429 . S
C683 C684 1.523 . S
C684 C668 1.368 . S
C684 C680 1.368 . S
C684 C683 1.523 . S
H685 C660 0.950 . S
H686 C662 0.950 . S
H687 C663 0.949 . S
H688 C665 0.950 . S
H689 C667 0.950 . S
C690 C691 1.349 . S
C690 C692 1.327 . S
C690 H715 0.950 . S
C691 C690 1.349 . S
C691 C707 1.349 . S
C692 C690 1.327 . S
C692 C711 1.429 . S
C692 H716 0.950 . S
C693 C710 1.574 . S
C693 C712 1.368 . S
C693 H717 0.949 . S
H694 C698 0.949 . S
C695 C696 1.349 . S
C695 C697 1.327 . S
C695 H718 0.950 . S
C696 C695 1.349 . S
C696 C708 1.349 . S
C697 C695 1.327 . S
C697 C713 1.429 . S
C697 H719 0.950 . S
C698 H694 0.949 . S
C698 C706 1.574 . S
C698 C714 1.368 . S
H699 C707 0.950 . S
H700 C705 0.950 . S
H701 C706 0.949 . S
H702 C708 0.950 . S
H703 C709 0.950 . S
H704 C710 0.949 . S
C705 H700 0.950 . S
C705 C707 1.327 . S
C705 C711 1.429 . S
C706 C698 1.574 . S
C706 H701 0.949 . S
C706 C712 1.368 . S
C707 C691 1.349 . S
C707 H699 0.950 . S
C707 C705 1.327 . S
C708 C696 1.349 . S
C708 H702 0.950 . S
C708 C709 1.327 . S
C709 H703 0.950 . S
C709 C708 1.327 . S
C709 C713 1.429 . S
C710 C693 1.574 . S
C710 H704 0.949 . S
C710 C714 1.368 . S
C711 C692 1.429 . S
C711 C705 1.429 . S
C711 C712 1.523 . S
C712 C693 1.368 . S
C712 C706 1.368 . S
C712 C711 1.523 . S
C713 C697 1.429 . S
C713 C709 1.429 . S
C713 C714 1.523 . S
C714 C698 1.368 . S
C714 C710 1.368 . S
C714 C713 1.523 . S
H715 C690 0.950 . S
H716 C692 0.950 . S
H717 C693 0.949 . S
H718 C695 0.950 . S
H719 C697 0.950 . S
C720 C721 1.349 . S
C720 C722 1.327 . S
C720 H745 0.950 . S
C721 C720 1.349 . S
C721 C737 1.349 . S
C722 C720 1.327 . S
C722 C741 1.429 . S
C722 H746 0.950 . S
C723 C740 1.574 . S
C723 C742 1.368 . S
C723 H747 0.949 . S
H724 C728 0.949 . S
C725 C726 1.349 . S
C725 C727 1.327 . S
C725 H748 0.950 . S
C726 C725 1.349 . S
C726 C738 1.349 . S
C727 C725 1.327 . S
C727 C743 1.429 . S
C727 H749 0.950 . S
C728 H724 0.949 . S
C728 C736 1.574 . S
C728 C744 1.368 . S
H729 C737 0.950 . S
H730 C735 0.950 . S
H731 C736 0.949 . S
H732 C738 0.950 . S
H733 C739 0.950 . S
H734 C740 0.949 . S
C735 H730 0.950 . S
C735 C737 1.327 . S
C735 C741 1.429 . S
C736 C728 1.574 . S
C736 H731 0.949 . S
C736 C742 1.368 . S
C737 C721 1.349 . S
C737 H729 0.950 . S
C737 C735 1.327 . S
C738 C726 1.349 . S
C738 H732 0.950 . S
C738 C739 1.327 . S
C739 H733 0.950 . S
C739 C738 1.327 . S
C739 C743 1.429 . S
C740 C723 1.574 . S
C740 H734 0.949 . S
C740 C744 1.368 . S
C741 C722 1.429 . S
C741 C735 1.429 . S
C741 C742 1.523 . S
C742 C723 1.368 . S
C742 C736 1.368 . S
C742 C741 1.523 . S
C743 C727 1.429 . S
C743 C739 1.429 . S
C743 C744 1.523 . S
C744 C728 1.368 . S
C744 C740 1.368 . S
C744 C743 1.523 . S
H745 C720 0.950 . S
H746 C722 0.950 . S
H747 C723 0.949 . S
H748 C725 0.950 . S
H749 C727 0.950 . S
C750 C751 1.349 . S
C750 C752 1.327 . S
C750 H775 0.950 . S
C751 C750 1.349 . S
C751 C767 1.349 . S
C752 C750 1.327 . S
C752 C771 1.429 . S
C752 H776 0.950 . S
C753 C770 1.574 1_556 S
C753 C772 1.368 . S
C753 H777 0.949 . S
H754 C758 0.949 . S
C755 C756 1.349 . S
C755 C757 1.327 . S
C755 H778 0.950 . S
C756 C755 1.349 . S
C756 C768 1.349 . S
C757 C755 1.327 . S
C757 C773 1.429 . S
C757 H779 0.950 . S
C758 H754 0.949 . S
C758 C766 1.574 1_554 S
C758 C774 1.368 . S
H759 C767 0.950 . S
H760 C765 0.950 . S
H761 C766 0.949 . S
H762 C768 0.950 . S
H763 C769 0.950 . S
H764 C770 0.949 . S
C765 H760 0.950 . S
C765 C767 1.327 . S
C765 C771 1.429 . S
C766 C758 1.574 1_556 S
C766 H761 0.949 . S
C766 C772 1.368 . S
C767 C751 1.349 . S
C767 H759 0.950 . S
C767 C765 1.327 . S
C768 C756 1.349 . S
C768 H762 0.950 . S
C768 C769 1.327 . S
C769 H763 0.950 . S
C769 C768 1.327 . S
C769 C773 1.429 . S
C770 C753 1.574 1_554 S
C770 H764 0.949 . S
C770 C774 1.368 . S
C771 C752 1.429 . S
C771 C765 1.429 . S
C771 C772 1.523 . S
C772 C753 1.368 . S
C772 C766 1.368 . S
C772 C771 1.523 . S
C773 C757 1.429 . S
C773 C769 1.429 . S
C773 C774 1.523 . S
C774 C758 1.368 . S
C774 C770 1.368 . S
C774 C773 1.523 . S
H775 C750 0.950 . S
H776 C752 0.950 . S
H777 C753 0.949 . S
H778 C755 0.950 . S
H779 C757 0.950 . S
C780 C781 1.349 . S
C780 C782 1.327 . S
C780 H805 0.950 . S
C781 C780 1.349 . S
C781 C797 1.349 . S
C782 C780 1.327 . S
C782 C801 1.429 . S
C782 H806 0.950 . S
C783 C800 1.574 . S
C783 C802 1.368 . S
C783 H807 0.949 . S
H784 C788 0.949 . S
C785 C786 1.349 . S
C785 C787 1.327 . S
C785 H808 0.950 . S
C786 C785 1.349 . S
C786 C798 1.349 . S
C787 C785 1.327 . S
C787 C803 1.429 . S
C787 H809 0.950 . S
C788 H784 0.949 . S
C788 C796 1.574 . S
C788 C804 1.368 . S
H789 C797 0.950 . S
H790 C795 0.950 . S
H791 C796 0.949 . S
H792 C798 0.950 . S
H793 C799 0.950 . S
H794 C800 0.949 . S
C795 H790 0.950 . S
C795 C797 1.327 . S
C795 C801 1.429 . S
C796 C788 1.574 . S
C796 H791 0.949 . S
C796 C802 1.368 . S
C797 C781 1.349 . S
C797 H789 0.950 . S
C797 C795 1.327 . S
C798 C786 1.349 . S
C798 H792 0.950 . S
C798 C799 1.327 . S
C799 H793 0.950 . S
C799 C798 1.327 . S
C799 C803 1.429 . S
C800 C783 1.574 . S
C800 H794 0.949 . S
C800 C804 1.368 . S
C801 C782 1.429 . S
C801 C795 1.429 . S
C801 C802 1.523 . S
C802 C783 1.368 . S
C802 C796 1.368 . S
C802 C801 1.523 . S
C803 C787 1.429 . S
C803 C799 1.429 . S
C803 C804 1.523 . S
C804 C788 1.368 . S
C804 C800 1.368 . S
C804 C803 1.523 . S
H805 C780 0.950 . S
H806 C782 0.950 . S
H807 C783 0.949 . S
H808 C785 0.950 . S
H809 C787 0.950 . S
C810 C811 1.349 . S
C810 C812 1.327 . S
C810 H835 0.950 . S
C811 C810 1.349 . S
C811 C827 1.349 . S
C812 C810 1.327 . S
C812 C831 1.429 . S
C812 H836 0.950 . S
C813 C830 1.574 . S
C813 C832 1.368 . S
C813 H837 0.949 . S
H814 C818 0.949 . S
C815 C816 1.349 . S
C815 C817 1.327 . S
C815 H838 0.950 . S
C816 C815 1.349 . S
C816 C828 1.349 . S
C817 C815 1.327 . S
C817 C833 1.429 . S
C817 H839 0.950 . S
C818 H814 0.949 . S
C818 C826 1.574 . S
C818 C834 1.368 . S
H819 C827 0.950 . S
H820 C825 0.950 . S
H821 C826 0.949 . S
H822 C828 0.950 . S
H823 C829 0.950 . S
H824 C830 0.949 . S
C825 H820 0.950 . S
C825 C827 1.327 . S
C825 C831 1.429 . S
C826 C818 1.574 . S
C826 H821 0.949 . S
C826 C832 1.368 . S
C827 C811 1.349 . S
C827 H819 0.950 . S
C827 C825 1.327 . S
C828 C816 1.349 . S
C828 H822 0.950 . S
C828 C829 1.327 . S
C829 H823 0.950 . S
C829 C828 1.327 . S
C829 C833 1.429 . S
C830 C813 1.574 . S
C830 H824 0.949 . S
C830 C834 1.368 . S
C831 C812 1.429 . S
C831 C825 1.429 . S
C831 C832 1.523 . S
C832 C813 1.368 . S
C832 C826 1.368 . S
C832 C831 1.523 . S
C833 C817 1.429 . S
C833 C829 1.429 . S
C833 C834 1.523 . S
C834 C818 1.368 . S
C834 C830 1.368 . S
C834 C833 1.523 . S
H835 C810 0.950 . S
H836 C812 0.950 . S
H837 C813 0.949 . S
H838 C815 0.950 . S
H839 C817 0.950 . S
C840 C841 1.349 . S
C840 C842 1.327 . S
C840 H865 0.950 . S
C841 C840 1.349 . S
C841 C857 1.349 . S
C842 C840 1.327 . S
C842 C861 1.429 . S
C842 H866 0.950 . S
C843 C860 1.574 1_566 S
C843 C862 1.368 . S
C843 H867 0.949 . S
H844 C848 0.949 . S
C845 C846 1.349 . S
C845 C847 1.327 . S
C845 H868 0.950 . S
C846 C845 1.349 . S
C846 C858 1.349 . S
C847 C845 1.327 . S
C847 C863 1.429 . S
C847 H869 0.950 . S
C848 H844 0.949 . S
C848 C856 1.574 1_544 S
C848 C864 1.368 . S
H849 C857 0.950 . S
H850 C855 0.950 . S
H851 C856 0.949 . S
H852 C858 0.950 . S
H853 C859 0.950 . S
H854 C860 0.949 . S
C855 H850 0.950 . S
C855 C857 1.327 . S
C855 C861 1.429 . S
C856 C848 1.574 1_566 S
C856 H851 0.949 . S
C856 C862 1.368 . S
C857 C841 1.349 . S
C857 H849 0.950 . S
C857 C855 1.327 . S
C858 C846 1.349 . S
C858 H852 0.950 . S
C858 C859 1.327 . S
C859 H853 0.950 . S
C859 C858 1.327 . S
C859 C863 1.429 . S
C860 C843 1.574 1_544 S
C860 H854 0.949 . S
C860 C864 1.368 . S
C861 C842 1.429 . S
C861 C855 1.429 . S
C861 C862 1.523 . S
C862 C843 1.368 . S
C862 C856 1.368 . S
C862 C861 1.523 . S
C863 C847 1.429 . S
C863 C859 1.429 . S
C863 C864 1.523 . S
C864 C848 1.368 . S
C864 C860 1.368 . S
C864 C863 1.523 . S
H865 C840 0.950 . S
H866 C842 0.950 . S
H867 C843 0.949 . S
H868 C845 0.950 . S
H869 C847 0.950 . S
C870 C871 1.349 . S
C870 C872 1.327 . S
C870 H895 0.950 . S
C871 C870 1.349 . S
C871 C887 1.349 . S
C872 C870 1.327 . S
C872 C891 1.429 . S
C872 H896 0.950 . S
C873 C890 1.574 . S
C873 C892 1.368 . S
C873 H897 0.949 . S
H874 C878 0.949 . S
C875 C876 1.349 . S
C875 C877 1.327 . S
C875 H898 0.950 . S
C876 C875 1.349 . S
C876 C888 1.349 . S
C877 C875 1.327 . S
C877 C893 1.429 . S
C877 H899 0.950 . S
C878 H874 0.949 . S
C878 C886 1.574 . S
C878 C894 1.368 . S
H879 C887 0.950 . S
H880 C885 0.950 . S
H881 C886 0.949 . S
H882 C888 0.950 . S
H883 C889 0.950 . S
H884 C890 0.949 . S
C885 H880 0.950 . S
C885 C887 1.327 . S
C885 C891 1.429 . S
C886 C878 1.574 . S
C886 H881 0.949 . S
C886 C892 1.368 . S
C887 C871 1.349 . S
C887 H879 0.950 . S
C887 C885 1.327 . S
C888 C876 1.349 . S
C888 H882 0.950 . S
C888 C889 1.327 . S
C889 H883 0.950 . S
C889 C888 1.327 . S
C889 C893 1.429 . S
C890 C873 1.574 . S
C890 H884 0.949 . S
C890 C894 1.368 . S
C891 C872 1.429 . S
C891 C885 1.429 . S
C891 C892 1.523 . S
C892 C873 1.368 . S
C892 C886 1.368 . S
C892 C891 1.523 . S
C893 C877 1.429 . S
C893 C889 1.429 . S
C893 C894 1.523 . S
C894 C878 1.368 . S
C894 C890 1.368 . S
C894 C893 1.523 . S
H895 C870 0.950 . S
H896 C872 0.950 . S
H897 C873 0.949 . S
H898 C875 0.950 . S
H899 C877 0.950 . S
C900 C901 1.349 . S
C900 C902 1.327 . S
C900 H925 0.950 . S
C901 C900 1.349 . S
C901 C917 1.349 . S
C902 C900 1.327 . S
C902 C921 1.429 . S
C902 H926 0.950 . S
C903 C920 1.574 1_455 S
C903 C922 1.368 . S
C903 H927 0.949 . S
H904 C908 0.949 . S
C905 C906 1.349 . S
C905 C907 1.327 . S
C905 H928 0.950 . S
C906 C905 1.349 . S
C906 C918 1.349 . S
C907 C905 1.327 . S
C907 C923 1.429 . S
C907 H929 0.950 . S
C908 H904 0.949 . S
C908 C916 1.574 1_655 S
C908 C924 1.368 . S
H909 C917 0.950 . S
H910 C915 0.950 . S
H911 C916 0.949 . S
H912 C918 0.950 . S
H913 C919 0.950 . S
H914 C920 0.949 . S
C915 H910 0.950 . S
C915 C917 1.327 . S
C915 C921 1.429 . S
C916 C908 1.574 1_455 S
C916 H911 0.949 . S
C916 C922 1.368 . S
C917 C901 1.349 . S
C917 H909 0.950 . S
C917 C915 1.327 . S
C918 C906 1.349 . S
C918 H912 0.950 . S
C918 C919 1.327 . S
C919 H913 0.950 . S
C919 C918 1.327 . S
C919 C923 1.429 . S
C920 C903 1.574 1_655 S
C920 H914 0.949 . S
C920 C924 1.368 . S
C921 C902 1.429 . S
C921 C915 1.429 . S
C921 C922 1.523 . S
C922 C903 1.368 . S
C922 C916 1.368 . S
C922 C921 1.523 . S
C923 C907 1.429 . S
C923 C919 1.429 . S
C923 C924 1.523 . S
C924 C908 1.368 . S
C924 C920 1.368 . S
C924 C923 1.523 . S
H925 C900 0.950 . S
H926 C902 0.950 . S
H927 C903 0.949 . S
H928 C905 0.950 . S
H929 C907 0.950 . S
C930 C931 1.349 . S
C930 C932 1.327 . S
C930 H955 0.950 . S
C931 C930 1.349 . S
C931 C947 1.349 . S
C932 C930 1.327 . S
C932 C951 1.429 . S
C932 H956 0.950 . S
C933 C950 1.574 1_554 S
C933 C952 1.368 . S
C933 H957 0.949 . S
H934 C938 0.949 . S
C935 C936 1.349 . S
C935 C937 1.327 . S
C935 H958 0.950 . S
C936 C935 1.349 . S
C936 C948 1.349 . S
C937 C935 1.327 . S
C937 C953 1.429 . S
C937 H959 0.950 . S
C938 H934 0.949 . S
C938 C946 1.574 1_556 S
C938 C954 1.368 . S
H939 C947 0.950 . S
H940 C945 0.950 . S
H941 C946 0.949 . S
H942 C948 0.950 . S
H943 C949 0.950 . S
H944 C950 0.949 . S
C945 H940 0.950 . S
C945 C947 1.327 . S
C945 C951 1.429 . S
C946 C938 1.574 1_554 S
C946 H941 0.949 . S
C946 C952 1.368 1_545 S
C947 C931 1.349 . S
C947 H939 0.950 . S
C947 C945 1.327 . S
C948 C936 1.349 . S
C948 H942 0.950 . S
C948 C949 1.327 . S
C949 H943 0.950 . S
C949 C948 1.327 . S
C949 C953 1.429 . S
C950 C933 1.574 1_556 S
C950 H944 0.949 . S
C950 C954 1.368 1_565 S
C951 C932 1.429 . S
C951 C945 1.429 . S
C951 C952 1.523 . S
C952 C933 1.368 . S
C952 C946 1.368 1_565 S
C952 C951 1.523 . S
C953 C937 1.429 . S
C953 C949 1.429 . S
C953 C954 1.523 . S
C954 C938 1.368 . S
C954 C950 1.368 1_545 S
C954 C953 1.523 . S
H955 C930 0.950 . S
H956 C932 0.950 . S
H957 C933 0.949 . S
H958 C935 0.950 . S
H959 C937 0.950 . S
C960 C961 1.349 . S
C960 C962 1.327 . S
C960 H985 0.950 . S
C961 C960 1.349 . S
C961 C977 1.349 . S
C962 C960 1.327 . S
C962 C981 1.429 . S
C962 H986 0.950 . S
C963 C980 1.574 . S
C963 C982 1.368 . S
C963 H987 0.949 . S
H964 C968 0.949 . S
C965 C966 1.349 . S
C965 C967 1.327 . S
C965 H988 0.950 . S
C966 C965 1.349 . S
C966 C978 1.349 . S
C967 C965 1.327 . S
C967 C983 1.429 . S
C967 H989 0.950 . S
C968 H964 0.949 . S
C968 C976 1.574 . S
C968 C984 1.368 . S
H969 C977 0.950 . S
H970 C975 0.950 . S
H971 C976 0.949 . S
H972 C978 0.950 . S
H973 C979 0.950 . S
H974 C980 0.949 . S
C975 H970 0.950 . S
C975 C977 1.327 . S
C975 C981 1.429 . S
C976 C968 1.574 . S
C976 H971 0.949 . S
C976 C982 1.368 . S
C977 C961 1.349 . S
C977 H969 0.950 . S
C977 C975 1.327 . S
C978 C966 1.349 . S
C978 H972 0.950 . S
C978 C979 1.327 . S
C979 H973 0.950 . S
C979 C978 1.327 . S
C979 C983 1.429 . S
C980 C963 1.574 . S
C980 H974 0.949 . S
C980 C984 1.368 . S
C981 C962 1.429 . S
C981 C975 1.429 . S
C981 C982 1.523 . S
C982 C963 1.368 . S
C982 C976 1.368 . S
C982 C981 1.523 . S
C983 C967 1.429 . S
C983 C979 1.429 . S
C983 C984 1.523 . S
C984 C968 1.368 . S
C984 C980 1.368 . S
C984 C983 1.523 . S
H985 C960 0.950 . S
H986 C962 0.950 . S
H987 C963 0.949 . S
H988 C965 0.950 . S
H989 C967 0.950 . S
C990 C991 1.349 . S
C990 C992 1.327 . S
C990 H1015 0.950 . S
C991 C990 1.349 . S
C991 C1007 1.349 . S
C992 C990 1.327 . S
C992 C1011 1.429 . S
C992 H1016 0.950 1_455 S
C993 C1010 1.574 . S
C993 C1012 1.368 . S
C993 H1017 0.949 . S
H994 C998 0.949 . S
C995 C996 1.349 . S
C995 C997 1.327 . S
C995 H1018 0.950 . S
C996 C995 1.349 . S
C996 C1008 1.349 . S
C997 C995 1.327 . S
C997 C1013 1.429 . S
C997 H1019 0.950 1_655 S
C998 H994 0.949 . S
C998 C1006 1.574 . S
C998 C1014 1.368 . S
H999 C1007 0.950 . S
H1000 C1005 0.950 . S
H1001 C1006 0.949 . S
H1002 C1008 0.950 . S
H1003 C1009 0.950 . S
H1004 C1010 0.949 . S
C1005 H1000 0.950 . S
C1005 C1007 1.327 . S
C1005 C1011 1.429 . S
C1006 C998 1.574 . S
C1006 H1001 0.949 . S
C1006 C1012 1.368 1_655 S
C1007 C991 1.349 . S
C1007 H999 0.950 . S
C1007 C1005 1.327 . S
C1008 C996 1.349 . S
C1008 H1002 0.950 . S
C1008 C1009 1.327 . S
C1009 H1003 0.950 . S
C1009 C1008 1.327 . S
C1009 C1013 1.429 . S
C1010 C993 1.574 . S
C1010 H1004 0.949 . S
C1010 C1014 1.368 1_455 S
C1011 C992 1.429 . S
C1011 C1005 1.429 . S
C1011 C1012 1.523 . S
C1012 C993 1.368 . S
C1012 C1006 1.368 1_455 S
C1012 C1011 1.523 . S
C1013 C997 1.429 . S
C1013 C1009 1.429 . S
C1013 C1014 1.523 . S
C1014 C998 1.368 . S
C1014 C1010 1.368 1_655 S
C1014 C1013 1.523 . S
H1015 C990 0.950 . S
H1016 C992 0.950 1_655 S
H1017 C993 0.949 . S
H1018 C995 0.950 . S
H1019 C997 0.950 1_455 S
C1020 C1021 1.349 . S
C1020 C1022 1.327 . S
C1020 H1045 0.950 . S
C1021 C1020 1.349 . S
C1021 C1037 1.349 . S
C1022 C1020 1.327 . S
C1022 C1041 1.429 . S
C1022 H1046 0.950 . S
C1023 C1040 1.575 1_545 S
C1023 C1042 1.368 . S
C1023 H1047 0.949 . S
H1024 C1028 0.949 . S
C1025 C1026 1.349 . S
C1025 C1027 1.327 . S
C1025 H1048 0.950 . S
C1026 C1025 1.349 . S
C1026 C1038 1.349 . S
C1027 C1025 1.327 . S
C1027 C1043 1.429 . S
C1027 H1049 0.950 . S
C1028 H1024 0.949 . S
C1028 C1036 1.575 1_565 S
C1028 C1044 1.368 . S
H1029 C1037 0.950 . S
H1030 C1035 0.950 . S
H1031 C1036 0.939 . S
H1032 C1038 0.950 . S
H1033 C1039 0.950 . S
H1034 C1040 0.939 . S
C1035 H1030 0.950 . S
C1035 C1037 1.327 . S
C1035 C1041 1.429 . S
C1036 C1028 1.575 1_545 S
C1036 H1031 0.939 . S
C1036 C1042 1.368 . S
C1037 C1021 1.349 . S
C1037 H1029 0.950 . S
C1037 C1035 1.327 . S
C1038 C1026 1.349 . S
C1038 H1032 0.950 . S
C1038 C1039 1.327 . S
C1039 H1033 0.950 . S
C1039 C1038 1.327 . S
C1039 C1043 1.429 . S
C1040 C1023 1.575 1_565 S
C1040 H1034 0.939 . S
C1040 C1044 1.368 . S
C1041 C1022 1.429 . S
C1041 C1035 1.429 . S
C1041 C1042 1.523 . S
C1042 C1023 1.368 . S
C1042 C1036 1.368 . S
C1042 C1041 1.523 . S
C1043 C1027 1.429 . S
C1043 C1039 1.429 . S
C1043 C1044 1.523 . S
C1044 C1028 1.368 . S
C1044 C1040 1.368 . S
C1044 C1043 1.523 . S
H1045 C1020 0.950 . S
H1046 C1022 0.950 . S
H1047 C1023 0.949 . S
H1048 C1025 0.950 . S
H1049 C1027 0.950 . S
C1050 C1051 1.349 . S
C1050 C1052 1.327 . S
C1050 H1075 0.950 . S
C1051 C1050 1.349 . S
C1051 C1067 1.349 . S
C1052 C1050 1.327 . S
C1052 C1071 1.429 . S
C1052 H1076 0.950 . S
C1053 C1070 1.574 . S
C1053 C1072 1.368 . S
C1053 H1077 0.949 . S
H1054 C1058 0.949 . S
C1055 C1056 1.349 . S
C1055 C1057 1.327 . S
C1055 H1078 0.950 . S
C1056 C1055 1.349 . S
C1056 C1068 1.349 . S
C1057 C1055 1.327 . S
C1057 C1073 1.429 . S
C1057 H1079 0.950 . S
C1058 H1054 0.949 . S
C1058 C1066 1.574 . S
C1058 C1074 1.368 . S
H1059 C1067 0.950 . S
H1060 C1065 0.950 . S
H1061 C1066 0.949 . S
H1062 C1068 0.950 . S
H1063 C1069 0.950 . S
H1064 C1070 0.949 . S
C1065 H1060 0.950 . S
C1065 C1067 1.327 . S
C1065 C1071 1.429 . S
C1066 C1058 1.574 . S
C1066 H1061 0.949 . S
C1066 C1072 1.368 . S
C1067 C1051 1.349 . S
C1067 H1059 0.950 . S
C1067 C1065 1.327 . S
C1068 C1056 1.349 . S
C1068 H1062 0.950 . S
C1068 C1069 1.327 . S
C1069 H1063 0.950 . S
C1069 C1068 1.327 . S
C1069 C1073 1.429 . S
C1070 C1053 1.574 . S
C1070 H1064 0.949 . S
C1070 C1074 1.368 . S
C1071 C1052 1.429 . S
C1071 C1065 1.429 . S
C1071 C1072 1.523 . S
C1072 C1053 1.368 . S
C1072 C1066 1.368 . S
C1072 C1071 1.523 . S
C1073 C1057 1.429 . S
C1073 C1069 1.429 . S
C1073 C1074 1.523 . S
C1074 C1058 1.368 . S
C1074 C1070 1.368 . S
C1074 C1073 1.523 . S
H1075 C1050 0.950 . S
H1076 C1052 0.950 . S
H1077 C1053 0.949 . S
H1078 C1055 0.950 . S
H1079 C1057 0.950 . S
C1080 C1081 1.349 . S
C1080 C1082 1.327 . S
C1080 H1105 0.950 . S
C1081 C1080 1.349 . S
C1081 C1097 1.349 . S
C1082 C1080 1.327 . S
C1082 C1101 1.429 . S
C1082 H1106 0.950 . S
C1083 C1100 1.574 1_655 S
C1083 C1102 1.368 . S
C1083 H1107 0.949 . S
H1084 C1088 0.949 . S
C1085 C1086 1.349 . S
C1085 C1087 1.327 . S
C1085 H1108 0.950 . S
C1086 C1085 1.349 . S
C1086 C1098 1.349 . S
C1087 C1085 1.327 . S
C1087 C1103 1.429 . S
C1087 H1109 0.950 . S
C1088 H1084 0.949 . S
C1088 C1096 1.574 1_455 S
C1088 C1104 1.368 . S
H1089 C1097 0.950 . S
H1090 C1095 0.950 . S
H1091 C1096 0.959 . S
H1092 C1098 0.950 . S
H1093 C1099 0.950 . S
H1094 C1100 0.959 . S
C1095 H1090 0.950 . S
C1095 C1097 1.327 . S
C1095 C1101 1.429 . S
C1096 C1088 1.574 1_655 S
C1096 H1091 0.959 . S
C1096 C1102 1.368 . S
C1097 C1081 1.349 . S
C1097 H1089 0.950 . S
C1097 C1095 1.327 . S
C1098 C1086 1.349 . S
C1098 H1092 0.950 . S
C1098 C1099 1.327 . S
C1099 H1093 0.950 . S
C1099 C1098 1.327 . S
C1099 C1103 1.429 . S
C1100 C1083 1.574 1_455 S
C1100 H1094 0.959 . S
C1100 C1104 1.368 . S
C1101 C1082 1.429 . S
C1101 C1095 1.429 . S
C1101 C1102 1.523 . S
C1102 C1083 1.368 . S
C1102 C1096 1.368 . S
C1102 C1101 1.523 . S
C1103 C1087 1.429 . S
C1103 C1099 1.429 . S
C1103 C1104 1.523 . S
C1104 C1088 1.368 . S
C1104 C1100 1.368 . S
C1104 C1103 1.523 . S
H1105 C1080 0.950 . S
H1106 C1082 0.950 . S
H1107 C1083 0.949 . S
H1108 C1085 0.950 . S
H1109 C1087 0.950 . S
C1110 C1111 1.349 . S
C1110 C1112 1.327 . S
C1110 H1135 0.950 . S
C1111 C1110 1.349 . S
C1111 C1127 1.349 . S
C1112 C1110 1.327 . S
C1112 C1131 1.429 . S
C1112 H1136 0.950 . S
C1113 C1130 1.575 1_455 S
C1113 C1132 1.368 . S
C1113 H1137 0.939 . S
H1114 C1118 0.939 . S
C1115 C1116 1.349 . S
C1115 C1117 1.327 . S
C1115 H1138 0.950 . S
C1116 C1115 1.349 . S
C1116 C1128 1.349 . S
C1117 C1115 1.327 . S
C1117 C1133 1.429 . S
C1117 H1139 0.950 . S
C1118 H1114 0.939 . S
C1118 C1126 1.575 1_655 S
C1118 C1134 1.368 . S
H1119 C1127 0.950 . S
H1120 C1125 0.950 . S
H1121 C1126 0.949 . S
H1122 C1128 0.950 . S
H1123 C1129 0.950 . S
H1124 C1130 0.949 . S
C1125 H1120 0.950 . S
C1125 C1127 1.327 . S
C1125 C1131 1.429 . S
C1126 C1118 1.575 1_455 S
C1126 H1121 0.949 . S
C1126 C1132 1.368 . S
C1127 C1111 1.349 . S
C1127 H1119 0.950 . S
C1127 C1125 1.327 . S
C1128 C1116 1.349 . S
C1128 H1122 0.950 . S
C1128 C1129 1.327 . S
C1129 H1123 0.950 . S
C1129 C1128 1.327 . S
C1129 C1133 1.429 . S
C1130 C1113 1.575 1_655 S
C1130 H1124 0.949 . S
C1130 C1134 1.368 . S
C1131 C1112 1.429 . S
C1131 C1125 1.429 . S
C1131 C1132 1.523 . S
C1132 C1113 1.368 . S
C1132 C1126 1.368 . S
C1132 C1131 1.523 . S
C1133 C1117 1.429 . S
C1133 C1129 1.429 . S
C1133 C1134 1.523 . S
C1134 C1118 1.368 . S
C1134 C1130 1.368 . S
C1134 C1133 1.523 . S
H1135 C1110 0.950 . S
H1136 C1112 0.950 . S
H1137 C1113 0.939 . S
H1138 C1115 0.950 . S
H1139 C1117 0.950 . S
C1140 C1141 1.349 . S
C1140 C1142 1.327 . S
C1140 H1165 0.950 . S
C1141 C1140 1.349 . S
C1141 C1157 1.349 . S
C1142 C1140 1.327 . S
C1142 C1161 1.429 . S
C1142 H1166 0.950 . S
C1143 C1160 1.574 1_565 S
C1143 C1162 1.368 . S
C1143 H1167 0.959 . S
H1144 C1148 0.959 . S
C1145 C1146 1.349 . S
C1145 C1147 1.327 . S
C1145 H1168 0.950 . S
C1146 C1145 1.349 . S
C1146 C1158 1.349 . S
C1147 C1145 1.327 . S
C1147 C1163 1.429 . S
C1147 H1169 0.950 . S
C1148 H1144 0.959 . S
C1148 C1156 1.574 1_545 S
C1148 C1164 1.368 . S
H1149 C1157 0.950 . S
H1150 C1155 0.950 . S
H1151 C1156 0.949 . S
H1152 C1158 0.950 . S
H1153 C1159 0.950 . S
H1154 C1160 0.949 . S
C1155 H1150 0.950 . S
C1155 C1157 1.327 . S
C1155 C1161 1.429 . S
C1156 C1148 1.574 1_565 S
C1156 H1151 0.949 . S
C1156 C1162 1.368 . S
C1157 C1141 1.349 . S
C1157 H1149 0.950 . S
C1157 C1155 1.327 . S
C1158 C1146 1.349 . S
C1158 H1152 0.950 . S
C1158 C1159 1.327 . S
C1159 H1153 0.950 . S
C1159 C1158 1.327 . S
C1159 C1163 1.429 . S
C1160 C1143 1.574 1_545 S
C1160 H1154 0.949 . S
C1160 C1164 1.368 . S
C1161 C1142 1.429 . S
C1161 C1155 1.429 . S
C1161 C1162 1.523 . S
C1162 C1143 1.368 . S
C1162 C1156 1.368 . S
C1162 C1161 1.523 . S
C1163 C1147 1.429 . S
C1163 C1159 1.429 . S
C1163 C1164 1.523 . S
C1164 C1148 1.368 . S
C1164 C1160 1.368 . S
C1164 C1163 1.523 . S
H1165 C1140 0.950 . S
H1166 C1142 0.950 . S
H1167 C1143 0.959 . S
H1168 C1145 0.950 . S
H1169 C1147 0.950 . S
C1170 C1171 1.349 . S
C1170 C1172 1.327 . S
C1170 H1195 0.950 . S
C1171 C1170 1.349 . S
C1171 C1187 1.349 . S
C1172 C1170 1.327 . S
C1172 C1191 1.429 . S
C1172 H1196 0.950 . S
C1173 C1190 1.574 . S
C1173 C1192 1.368 . S
C1173 H1197 0.949 . S
H1174 C1178 0.949 . S
C1175 C1176 1.349 . S
C1175 C1177 1.327 . S
C1175 H1198 0.950 . S
C1176 C1175 1.349 . S
C1176 C1188 1.349 . S
C1177 C1175 1.327 . S
C1177 C1193 1.429 . S
C1177 H1199 0.950 . S
C1178 H1174 0.949 . S
C1178 C1186 1.574 . S
C1178 C1194 1.368 . S
H1179 C1187 0.950 . S
H1180 C1185 0.950 . S
H1181 C1186 0.949 . S
H1182 C1188 0.950 . S
H1183 C1189 0.950 . S
H1184 C1190 0.949 . S
C1185 H1180 0.950 . S
C1185 C1187 1.327 . S
C1185 C1191 1.429 . S
C1186 C1178 1.574 . S
C1186 H1181 0.949 . S
C1186 C1192 1.368 . S
C1187 C1171 1.349 . S
C1187 H1179 0.950 . S
C1187 C1185 1.327 . S
C1188 C1176 1.349 . S
C1188 H1182 0.950 . S
C1188 C1189 1.327 . S
C1189 H1183 0.950 . S
C1189 C1188 1.327 . S
C1189 C1193 1.429 . S
C1190 C1173 1.574 . S
C1190 H1184 0.949 . S
C1190 C1194 1.368 . S
C1191 C1172 1.429 . S
C1191 C1185 1.429 . S
C1191 C1192 1.523 . S
C1192 C1173 1.368 . S
C1192 C1186 1.368 . S
C1192 C1191 1.523 . S
C1193 C1177 1.429 . S
C1193 C1189 1.429 . S
C1193 C1194 1.523 . S
C1194 C1178 1.368 . S
C1194 C1190 1.368 . S
C1194 C1193 1.523 . S
H1195 C1170 0.950 . S
H1196 C1172 0.950 . S
H1197 C1173 0.949 . S
H1198 C1175 0.950 . S
H1199 C1177 0.950 . S
C1200 C1201 1.349 . S
C1200 C1202 1.327 . S
C1200 H1225 0.950 . S
C1201 C1200 1.349 . S
C1201 C1217 1.349 . S
C1202 C1200 1.327 . S
C1202 C1221 1.429 . S
C1202 H1226 0.950 . S
C1203 C1220 1.574 . S
C1203 C1222 1.368 . S
C1203 H1227 0.949 . S
H1204 C1208 0.949 . S
C1205 C1206 1.349 . S
C1205 C1207 1.327 . S
C1205 H1228 0.950 . S
C1206 C1205 1.349 . S
C1206 C1218 1.349 . S
C1207 C1205 1.327 . S
C1207 C1223 1.429 . S
C1207 H1229 0.950 . S
C1208 H1204 0.949 . S
C1208 C1216 1.574 . S
C1208 C1224 1.368 . S
H1209 C1217 0.950 . S
H1210 C1215 0.950 . S
H1211 C1216 0.949 . S
H1212 C1218 0.950 . S
H1213 C1219 0.950 . S
H1214 C1220 0.949 . S
C1215 H1210 0.950 . S
C1215 C1217 1.327 . S
C1215 C1221 1.429 . S
C1216 C1208 1.574 . S
C1216 H1211 0.949 . S
C1216 C1222 1.368 1_545 S
C1217 C1201 1.349 . S
C1217 H1209 0.950 . S
C1217 C1215 1.327 . S
C1218 C1206 1.349 . S
C1218 H1212 0.950 . S
C1218 C1219 1.327 . S
C1219 H1213 0.950 . S
C1219 C1218 1.327 . S
C1219 C1223 1.429 . S
C1220 C1203 1.574 . S
C1220 H1214 0.949 . S
C1220 C1224 1.368 1_565 S
C1221 C1202 1.429 . S
C1221 C1215 1.429 . S
C1221 C1222 1.523 . S
C1222 C1203 1.368 . S
C1222 C1216 1.368 1_565 S
C1222 C1221 1.523 . S
C1223 C1207 1.429 . S
C1223 C1219 1.429 . S
C1223 C1224 1.523 . S
C1224 C1208 1.368 . S
C1224 C1220 1.368 1_545 S
C1224 C1223 1.523 . S
H1225 C1200 0.950 . S
H1226 C1202 0.950 . S
H1227 C1203 0.949 . S
H1228 C1205 0.950 . S
H1229 C1207 0.950 . S
C1230 C1231 1.349 . S
C1230 C1232 1.327 . S
C1230 H1255 0.950 . S
C1231 C1230 1.349 . S
C1231 C1247 1.349 . S
C1232 C1230 1.327 . S
C1232 C1251 1.429 . S
C1232 H1256 0.950 . S
C1233 C1250 1.574 . S
C1233 C1252 1.368 . S
C1233 H1257 0.949 . S
H1234 C1238 0.949 . S
C1235 C1236 1.349 . S
C1235 C1237 1.327 . S
C1235 H1258 0.950 . S
C1236 C1235 1.349 . S
C1236 C1248 1.349 . S
C1237 C1235 1.327 . S
C1237 C1253 1.429 . S
C1237 H1259 0.950 . S
C1238 H1234 0.949 . S
C1238 C1246 1.574 . S
C1238 C1254 1.368 . S
H1239 C1247 0.950 . S
H1240 C1245 0.950 . S
H1241 C1246 0.949 . S
H1242 C1248 0.950 . S
H1243 C1249 0.950 . S
H1244 C1250 0.949 . S
C1245 H1240 0.950 . S
C1245 C1247 1.327 . S
C1245 C1251 1.429 . S
C1246 C1238 1.574 . S
C1246 H1241 0.949 . S
C1246 C1252 1.368 . S
C1247 C1231 1.349 . S
C1247 H1239 0.950 . S
C1247 C1245 1.327 . S
C1248 C1236 1.349 . S
C1248 H1242 0.950 . S
C1248 C1249 1.327 . S
C1249 H1243 0.950 . S
C1249 C1248 1.327 . S
C1249 C1253 1.429 . S
C1250 C1233 1.574 . S
C1250 H1244 0.949 . S
C1250 C1254 1.368 . S
C1251 C1232 1.429 . S
C1251 C1245 1.429 . S
C1251 C1252 1.523 . S
C1252 C1233 1.368 . S
C1252 C1246 1.368 . S
C1252 C1251 1.523 . S
C1253 C1237 1.429 . S
C1253 C1249 1.429 . S
C1253 C1254 1.523 . S
C1254 C1238 1.368 . S
C1254 C1250 1.368 . S
C1254 C1253 1.523 . S
H1255 C1230 0.950 . S
H1256 C1232 0.950 . S
H1257 C1233 0.949 . S
H1258 C1235 0.950 . S
H1259 C1237 0.950 . S
C1260 C1261 1.349 . S
C1260 C1262 1.327 . S
C1260 H1285 0.950 . S
C1261 C1260 1.349 . S
C1261 C1277 1.349 . S
C1262 C1260 1.327 . S
C1262 C1281 1.429 . S
C1262 H1286 0.950 . S
C1263 C1280 1.574 . S
C1263 C1282 1.368 . S
C1263 H1287 0.949 . S
H1264 C1268 0.949 . S
C1265 C1266 1.349 . S
C1265 C1267 1.327 . S
C1265 H1288 0.950 . S
C1266 C1265 1.349 . S
C1266 C1278 1.349 . S
C1267 C1265 1.327 . S
C1267 C1283 1.429 . S
C1267 H1289 0.950 . S
C1268 H1264 0.949 . S
C1268 C1276 1.574 . S
C1268 C1284 1.368 . S
H1269 C1277 0.950 . S
H1270 C1275 0.950 . S
H1271 C1276 0.949 . S
H1272 C1278 0.950 . S
H1273 C1279 0.950 . S
H1274 C1280 0.949 . S
C1275 H1270 0.950 . S
C1275 C1277 1.327 . S
C1275 C1281 1.429 . S
C1276 C1268 1.574 . S
C1276 H1271 0.949 . S
C1276 C1282 1.368 1_455 S
C1277 C1261 1.349 . S
C1277 H1269 0.950 . S
C1277 C1275 1.327 . S
C1278 C1266 1.349 . S
C1278 H1272 0.950 . S
C1278 C1279 1.327 . S
C1279 H1273 0.950 . S
C1279 C1278 1.327 . S
C1279 C1283 1.429 . S
C1280 C1263 1.574 . S
C1280 H1274 0.949 . S
C1280 C1284 1.368 1_655 S
C1281 C1262 1.429 . S
C1281 C1275 1.429 . S
C1281 C1282 1.523 . S
C1282 C1263 1.368 . S
C1282 C1276 1.368 1_655 S
C1282 C1281 1.523 . S
C1283 C1267 1.429 . S
C1283 C1279 1.429 . S
C1283 C1284 1.523 . S
C1284 C1268 1.368 . S
C1284 C1280 1.368 1_455 S
C1284 C1283 1.523 . S
H1285 C1260 0.950 . S
H1286 C1262 0.950 . S
H1287 C1263 0.949 . S
H1288 C1265 0.950 . S
H1289 C1267 0.950 . S
C1290 C1291 1.349 . S
C1290 C1292 1.327 . S
C1290 H1315 0.950 . S
C1291 C1290 1.349 . S
C1291 C1307 1.349 . S
C1292 C1290 1.327 . S
C1292 C1311 1.429 . S
C1292 H1316 0.950 . S
C1293 C1310 1.574 1_545 S
C1293 C1312 1.368 . S
C1293 H1317 0.949 . S
H1294 C1298 0.949 . S
C1295 C1296 1.349 . S
C1295 C1297 1.327 . S
C1295 H1318 0.950 . S
C1296 C1295 1.349 . S
C1296 C1308 1.349 . S
C1297 C1295 1.327 . S
C1297 C1313 1.429 . S
C1297 H1319 0.950 . S
C1298 H1294 0.949 . S
C1298 C1306 1.574 1_565 S
C1298 C1314 1.368 . S
H1299 C1307 0.950 . S
H1300 C1305 0.950 . S
H1301 C1306 0.949 . S
H1302 C1308 0.950 . S
H1303 C1309 0.950 . S
H1304 C1310 0.949 . S
C1305 H1300 0.950 . S
C1305 C1307 1.327 . S
C1305 C1311 1.429 . S
C1306 C1298 1.574 1_545 S
C1306 H1301 0.949 . S
C1306 C1312 1.368 . S
C1307 C1291 1.349 . S
C1307 H1299 0.950 . S
C1307 C1305 1.327 . S
C1308 C1296 1.349 . S
C1308 H1302 0.950 . S
C1308 C1309 1.327 . S
C1309 H1303 0.950 . S
C1309 C1308 1.327 . S
C1309 C1313 1.429 . S
C1310 C1293 1.574 1_565 S
C1310 H1304 0.949 . S
C1310 C1314 1.368 . S
C1311 C1292 1.429 . S
C1311 C1305 1.429 . S
C1311 C1312 1.523 . S
C1312 C1293 1.368 . S
C1312 C1306 1.368 . S
C1312 C1311 1.523 . S
C1313 C1297 1.429 . S
C1313 C1309 1.429 . S
C1313 C1314 1.523 . S
C1314 C1298 1.368 . S
C1314 C1310 1.368 . S
C1314 C1313 1.523 . S
H1315 C1290 0.950 . S
H1316 C1292 0.950 . S
H1317 C1293 0.949 . S
H1318 C1295 0.950 . S
H1319 C1297 0.950 . S
C1320 C1321 1.349 . S
C1320 C1322 1.327 . S
C1320 H1345 0.950 . S
C1321 C1320 1.349 . S
C1321 C1337 1.349 . S
C1322 C1320 1.327 . S
C1322 C1341 1.429 . S
C1322 H1346 0.950 . S
C1323 C1340 1.574 . S
C1323 C1342 1.368 . S
C1323 H1347 0.949 . S
H1324 C1328 0.949 . S
C1325 C1326 1.349 . S
C1325 C1327 1.327 . S
C1325 H1348 0.950 . S
C1326 C1325 1.349 . S
C1326 C1338 1.349 . S
C1327 C1325 1.327 . S
C1327 C1343 1.429 . S
C1327 H1349 0.950 . S
C1328 H1324 0.949 . S
C1328 C1336 1.574 . S
C1328 C1344 1.368 . S
H1329 C1337 0.950 . S
H1330 C1335 0.950 . S
H1331 C1336 0.949 . S
H1332 C1338 0.950 . S
H1333 C1339 0.950 . S
H1334 C1340 0.949 . S
C1335 H1330 0.950 . S
C1335 C1337 1.327 . S
C1335 C1341 1.429 . S
C1336 C1328 1.574 . S
C1336 H1331 0.949 . S
C1336 C1342 1.368 . S
C1337 C1321 1.349 . S
C1337 H1329 0.950 . S
C1337 C1335 1.327 . S
C1338 C1326 1.349 . S
C1338 H1332 0.950 . S
C1338 C1339 1.327 . S
C1339 H1333 0.950 . S
C1339 C1338 1.327 . S
C1339 C1343 1.429 . S
C1340 C1323 1.574 . S
C1340 H1334 0.949 . S
C1340 C1344 1.368 . S
C1341 C1322 1.429 . S
C1341 C1335 1.429 . S
C1341 C1342 1.523 . S
C1342 C1323 1.368 . S
C1342 C1336 1.368 . S
C1342 C1341 1.523 . S
C1343 C1327 1.429 . S
C1343 C1339 1.429 . S
C1343 C1344 1.523 . S
C1344 C1328 1.368 . S
C1344 C1340 1.368 . S
C1344 C1343 1.523 . S
H1345 C1320 0.950 . S
H1346 C1322 0.950 . S
H1347 C1323 0.949 . S
H1348 C1325 0.950 . S
H1349 C1327 0.950 . S
C1350 C1351 1.349 . S
C1350 C1352 1.327 . S
C1350 H1375 0.950 . S
C1351 C1350 1.349 . S
C1351 C1367 1.349 . S
C1352 C1350 1.327 . S
C1352 C1371 1.429 . S
C1352 H1376 0.950 . S
C1353 C1370 1.559 1_455 S
C1353 C1372 1.368 . S
C1353 H1377 0.949 . S
H1354 C1358 0.949 . S
C1355 C1356 1.349 . S
C1355 C1357 1.327 . S
C1355 H1378 0.950 . S
C1356 C1355 1.349 . S
C1356 C1368 1.349 . S
C1357 C1355 1.327 . S
C1357 C1373 1.429 . S
C1357 H1379 0.950 . S
C1358 H1354 0.949 . S
C1358 C1366 1.559 1_655 S
C1358 C1374 1.368 . S
H1359 C1367 0.950 . S
H1360 C1365 0.950 . S
H1361 C1366 0.941 . S
H1362 C1368 0.950 . S
H1363 C1369 0.950 . S
H1364 C1370 0.941 . S
C1365 H1360 0.950 . S
C1365 C1367 1.327 . S
C1365 C1371 1.429 . S
C1366 C1358 1.559 1_455 S
C1366 H1361 0.941 . S
C1366 C1372 1.392 . S
C1367 C1351 1.349 . S
C1367 H1359 0.950 . S
C1367 C1365 1.327 . S
C1368 C1356 1.349 . S
C1368 H1362 0.950 . S
C1368 C1369 1.327 . S
C1369 H1363 0.950 . S
C1369 C1368 1.327 . S
C1369 C1373 1.429 . S
C1370 C1353 1.559 1_655 S
C1370 H1364 0.941 . S
C1370 C1374 1.393 . S
C1371 C1352 1.429 . S
C1371 C1365 1.429 . S
C1371 C1372 1.523 . S
C1372 C1353 1.368 . S
C1372 C1366 1.392 . S
C1372 C1371 1.523 . S
C1373 C1357 1.429 . S
C1373 C1369 1.429 . S
C1373 C1374 1.523 . S
C1374 C1358 1.368 . S
C1374 C1370 1.393 . S
C1374 C1373 1.523 . S
H1375 C1350 0.950 . S
H1376 C1352 0.950 . S
H1377 C1353 0.949 . S
H1378 C1355 0.950 . S
H1379 C1357 0.950 . S
C1380 C1381 1.349 . S
C1380 C1382 1.327 . S
C1380 H1405 0.950 . S
C1381 C1380 1.349 . S
C1381 C1397 1.349 . S
C1382 C1380 1.327 . S
C1382 C1401 1.429 . S
C1382 H1406 0.950 . S
C1383 C1400 1.574 . S
C1383 C1402 1.368 . S
C1383 H1407 0.949 . S
H1384 C1388 0.949 . S
C1385 C1386 1.349 . S
C1385 C1387 1.327 . S
C1385 H1408 0.950 . S
C1386 C1385 1.349 . S
C1386 C1398 1.349 . S
C1387 C1385 1.327 . S
C1387 C1403 1.429 . S
C1387 H1409 0.950 . S
C1388 H1384 0.949 . S
C1388 C1396 1.574 . S
C1388 C1404 1.368 . S
H1389 C1397 0.950 . S
H1390 C1395 0.950 . S
H1391 C1396 0.949 . S
H1392 C1398 0.950 . S
H1393 C1399 0.950 . S
H1394 C1400 0.949 . S
C1395 H1390 0.950 . S
C1395 C1397 1.327 . S
C1395 C1401 1.429 . S
C1396 C1388 1.574 . S
C1396 H1391 0.949 . S
C1396 C1402 1.368 . S
C1397 C1381 1.349 . S
C1397 H1389 0.950 . S
C1397 C1395 1.327 . S
C1398 C1386 1.349 . S
C1398 H1392 0.950 . S
C1398 C1399 1.327 . S
C1399 H1393 0.950 . S
C1399 C1398 1.327 . S
C1399 C1403 1.429 . S
C1400 C1383 1.574 . S
C1400 H1394 0.949 . S
C1400 C1404 1.368 . S
C1401 C1382 1.429 . S
C1401 C1395 1.429 . S
C1401 C1402 1.523 . S
C1402 C1383 1.368 . S
C1402 C1396 1.368 . S
C1402 C1401 1.523 . S
C1403 C1387 1.429 . S
C1403 C1399 1.429 . S
C1403 C1404 1.523 . S
C1404 C1388 1.368 . S
C1404 C1400 1.368 . S
C1404 C1403 1.523 . S
H1405 C1380 0.950 . S
H1406 C1382 0.950 . S
H1407 C1383 0.949 . S
H1408 C1385 0.950 . S
H1409 C1387 0.950 . S
C1410 C1411 1.349 . S
C1410 C1412 1.327 . S
C1410 H1435 0.950 . S
C1411 C1410 1.349 . S
C1411 C1427 1.349 . S
C1412 C1410 1.327 . S
C1412 C1431 1.429 . S
C1412 H1436 0.950 . S
C1413 C1430 1.574 . S
C1413 C1432 1.368 . S
C1413 H1437 0.949 . S
H1414 C1418 0.949 . S
C1415 C1416 1.349 . S
C1415 C1417 1.327 . S
C1415 H1438 0.950 . S
C1416 C1415 1.349 . S
C1416 C1428 1.349 . S
C1417 C1415 1.327 . S
C1417 C1433 1.429 . S
C1417 H1439 0.950 . S
C1418 H1414 0.949 . S
C1418 C1426 1.574 . S
C1418 C1434 1.368 . S
H1419 C1427 0.950 . S
H1420 C1425 0.950 . S
H1421 C1426 0.949 . S
H1422 C1428 0.950 . S
H1423 C1429 0.950 . S
H1424 C1430 0.949 . S
C1425 H1420 0.950 . S
C1425 C1427 1.327 . S
C1425 C1431 1.429 . S
C1426 C1418 1.574 . S
C1426 H1421 0.949 . S
C1426 C1432 1.368 . S
C1427 C1411 1.349 . S
C1427 H1419 0.950 . S
C1427 C1425 1.327 . S
C1428 C1416 1.349 . S
C1428 H1422 0.950 . S
C1428 C1429 1.327 . S
C1429 H1423 0.950 . S
C1429 C1428 1.327 . S
C1429 C1433 1.429 . S
C1430 C1413 1.574 . S
C1430 H1424 0.949 . S
C1430 C1434 1.368 . S
C1431 C1412 1.429 . S
C1431 C1425 1.429 . S
C1431 C1432 1.523 . S
C1432 C1413 1.368 . S
C1432 C1426 1.368 . S
C1432 C1431 1.523 . S
C1433 C1417 1.429 . S
C1433 C1429 1.429 . S
C1433 C1434 1.523 . S
C1434 C1418 1.368 . S
C1434 C1430 1.368 . S
C1434 C1433 1.523 . S
H1435 C1410 0.950 . S
H1436 C1412 0.950 . S
H1437 C1413 0.949 . S
H1438 C1415 0.950 . S
H1439 C1417 0.950 . S
C1440 C1441 1.349 . S
C1440 C1442 1.327 . S
C1440 H1465 0.950 . S
C1441 C1440 1.349 . S
C1441 C1457 1.349 . S
C1442 C1440 1.327 . S
C1442 C1461 1.429 . S
C1442 H1466 0.950 . S
C1443 C1460 1.574 . S
C1443 C1462 1.368 . S
C1443 H1467 0.949 . S
H1444 C1448 0.949 . S
C1445 C1446 1.349 . S
C1445 C1447 1.327 . S
C1445 H1468 0.950 . S
C1446 C1445 1.349 . S
C1446 C1458 1.349 . S
C1447 C1445 1.327 . S
C1447 C1463 1.429 . S
C1447 H1469 0.950 . S
C1448 H1444 0.949 . S
C1448 C1456 1.574 . S
C1448 C1464 1.368 . S
H1449 C1457 0.950 . S
H1450 C1455 0.950 . S
H1451 C1456 0.949 . S
H1452 C1458 0.950 . S
H1453 C1459 0.950 . S
H1454 C1460 0.949 . S
C1455 H1450 0.950 . S
C1455 C1457 1.327 . S
C1455 C1461 1.429 . S
C1456 C1448 1.574 . S
C1456 H1451 0.949 . S
C1456 C1462 1.368 . S
C1457 C1441 1.349 . S
C1457 H1449 0.950 . S
C1457 C1455 1.327 . S
C1458 C1446 1.349 . S
C1458 H1452 0.950 . S
C1458 C1459 1.327 . S
C1459 H1453 0.950 . S
C1459 C1458 1.327 . S
C1459 C1463 1.429 . S
C1460 C1443 1.574 . S
C1460 H1454 0.949 . S
C1460 C1464 1.368 . S
C1461 C1442 1.429 . S
C1461 C1455 1.429 . S
C1461 C1462 1.523 . S
C1462 C1443 1.368 . S
C1462 C1456 1.368 . S
C1462 C1461 1.523 . S
C1463 C1447 1.429 . S
C1463 C1459 1.429 . S
C1463 C1464 1.523 . S
C1464 C1448 1.368 . S
C1464 C1460 1.368 . S
C1464 C1463 1.523 . S
H1465 C1440 0.950 . S
H1466 C1442 0.950 . S
H1467 C1443 0.949 . S
H1468 C1445 0.950 . S
H1469 C1447 0.950 . S
C1470 C1471 1.349 . S
C1470 C1472 1.327 . S
C1470 H1495 0.950 . S
C1471 C1470 1.349 . S
C1471 C1487 1.349 . S
C1472 C1470 1.327 . S
C1472 C1491 1.429 . S
C1472 H1496 0.950 . S
C1473 C1490 1.574 . S
C1473 C1492 1.368 . S
C1473 H1497 0.949 . S
H1474 C1478 0.949 . S
C1475 C1476 1.349 . S
C1475 C1477 1.327 . S
C1475 H1498 0.950 . S
C1476 C1475 1.349 . S
C1476 C1488 1.349 . S
C1477 C1475 1.327 . S
C1477 C1493 1.429 . S
C1477 H1499 0.950 . S
C1478 H1474 0.949 . S
C1478 C1486 1.574 . S
C1478 C1494 1.368 . S
H1479 C1487 0.950 . S
H1480 C1485 0.950 . S
H1481 C1486 0.949 . S
H1482 C1488 0.950 . S
H1483 C1489 0.950 . S
H1484 C1490 0.949 . S
C1485 H1480 0.950 . S
C1485 C1487 1.327 . S
C1485 C1491 1.429 . S
C1486 C1478 1.574 . S
C1486 H1481 0.949 . S
C1486 C1492 1.368 . S
C1487 C1471 1.349 . S
C1487 H1479 0.950 . S
C1487 C1485 1.327 . S
C1488 C1476 1.349 . S
C1488 H1482 0.950 . S
C1488 C1489 1.327 . S
C1489 H1483 0.950 . S
C1489 C1488 1.327 . S
C1489 C1493 1.429 . S
C1490 C1473 1.574 . S
C1490 H1484 0.949 . S
C1490 C1494 1.368 . S
C1491 C1472 1.429 . S
C1491 C1485 1.429 . S
C1491 C1492 1.523 . S
C1492 C1473 1.368 . S
C1492 C1486 1.368 . S
C1492 C1491 1.523 . S
C1493 C1477 1.429 . S
C1493 C1489 1.429 . S
C1493 C1494 1.523 . S
C1494 C1478 1.368 . S
C1494 C1490 1.368 . S
C1494 C1493 1.523 . S
H1495 C1470 0.950 . S
H1496 C1472 0.950 . S
H1497 C1473 0.949 . S
H1498 C1475 0.950 . S
H1499 C1477 0.950 . S
C1500 C1501 1.349 . S
C1500 C1502 1.327 . S
C1500 H1525 0.950 . S
C1501 C1500 1.349 . S
C1501 C1517 1.349 . S
C1502 C1500 1.327 . S
C1502 C1521 1.429 . S
C1502 H1526 0.950 . S
C1503 C1520 1.574 . S
C1503 C1522 1.368 . S
C1503 H1527 0.949 . S
H1504 C1508 0.949 . S
C1505 C1506 1.349 . S
C1505 C1507 1.327 . S
C1505 H1528 0.950 . S
C1506 C1505 1.349 . S
C1506 C1518 1.349 . S
C1507 C1505 1.327 . S
C1507 C1523 1.429 . S
C1507 H1529 0.950 . S
C1508 H1504 0.949 . S
C1508 C1516 1.574 . S
C1508 C1524 1.368 . S
H1509 C1517 0.950 . S
H1510 C1515 0.950 . S
H1511 C1516 0.949 . S
H1512 C1518 0.950 . S
H1513 C1519 0.950 . S
H1514 C1520 0.949 . S
C1515 H1510 0.950 . S
C1515 C1517 1.327 . S
C1515 C1521 1.429 . S
C1516 C1508 1.574 . S
C1516 H1511 0.949 . S
C1516 C1522 1.368 . S
C1517 C1501 1.349 . S
C1517 H1509 0.950 . S
C1517 C1515 1.327 . S
C1518 C1506 1.349 . S
C1518 H1512 0.950 . S
C1518 C1519 1.327 . S
C1519 H1513 0.950 . S
C1519 C1518 1.327 . S
C1519 C1523 1.429 . S
C1520 C1503 1.574 . S
C1520 H1514 0.949 . S
C1520 C1524 1.368 . S
C1521 C1502 1.429 . S
C1521 C1515 1.429 . S
C1521 C1522 1.523 . S
C1522 C1503 1.368 . S
C1522 C1516 1.368 . S
C1522 C1521 1.523 . S
C1523 C1507 1.429 . S
C1523 C1519 1.429 . S
C1523 C1524 1.523 . S
C1524 C1508 1.368 . S
C1524 C1520 1.368 . S
C1524 C1523 1.523 . S
H1525 C1500 0.950 . S
H1526 C1502 0.950 . S
H1527 C1503 0.949 . S
H1528 C1505 0.950 . S
H1529 C1507 0.950 . S
C1530 C1531 1.349 . S
C1530 C1532 1.327 . S
C1530 H1555 0.950 . S
C1531 C1530 1.349 . S
C1531 C1547 1.349 . S
C1532 C1530 1.327 . S
C1532 C1551 1.429 . S
C1532 H1556 0.950 . S
C1533 C1550 1.574 . S
C1533 C1552 1.368 . S
C1533 H1557 0.949 . S
H1534 C1538 0.949 . S
C1535 C1536 1.349 . S
C1535 C1537 1.327 . S
C1535 H1558 0.950 . S
C1536 C1535 1.349 . S
C1536 C1548 1.349 . S
C1537 C1535 1.327 . S
C1537 C1553 1.429 . S
C1537 H1559 0.950 . S
C1538 H1534 0.949 . S
C1538 C1546 1.574 . S
C1538 C1554 1.368 . S
H1539 C1547 0.950 . S
H1540 C1545 0.950 . S
H1541 C1546 0.949 . S
H1542 C1548 0.950 . S
H1543 C1549 0.950 . S
H1544 C1550 0.949 . S
C1545 H1540 0.950 . S
C1545 C1547 1.327 . S
C1545 C1551 1.429 . S
C1546 C1538 1.574 . S
C1546 H1541 0.949 . S
C1546 C1552 1.368 . S
C1547 C1531 1.349 . S
C1547 H1539 0.950 . S
C1547 C1545 1.327 . S
C1548 C1536 1.349 . S
C1548 H1542 0.950 . S
C1548 C1549 1.327 . S
C1549 H1543 0.950 . S
C1549 C1548 1.327 . S
C1549 C1553 1.429 . S
C1550 C1533 1.574 . S
C1550 H1544 0.949 . S
C1550 C1554 1.368 . S
C1551 C1532 1.429 . S
C1551 C1545 1.429 . S
C1551 C1552 1.523 . S
C1552 C1533 1.368 . S
C1552 C1546 1.368 . S
C1552 C1551 1.523 . S
C1553 C1537 1.429 . S
C1553 C1549 1.429 . S
C1553 C1554 1.523 . S
C1554 C1538 1.368 . S
C1554 C1550 1.368 . S
C1554 C1553 1.523 . S
H1555 C1530 0.950 . S
H1556 C1532 0.950 . S
H1557 C1533 0.949 . S
H1558 C1535 0.950 . S
H1559 C1537 0.950 . S
C481 C2 0.810 . S
C486 C322 0.810 . S
C511 C42 0.810 . S
C516 C362 0.810 . S
C541 C82 0.810 . S
C546 C402 0.810 . S
C571 C442 0.810 . S
C576 C122 0.810 . S
C601 C162 0.810 . S
C606 C242 0.810 . S
C631 C282 0.810 . S
C636 C202 0.810 . S
C661 C417 1.460 . S
C666 C17 1.460 . S
C691 C457 1.460 . S
C696 C57 1.460 . S
C721 C97 1.459 . S
C726 C257 1.459 . S
C751 C297 1.460 . S
C756 C137 1.460 . S
C781 C337 1.460 . S
C786 C177 1.460 . S
C811 C217 1.459 . S
C816 C377 1.459 . S
C841 C304 4.340 . S
C846 C24 4.340 . S
C871 C344 4.340 . S
C876 C64 4.340 . S
C901 C384 4.341 . S
C906 C104 4.340 . S
C931 C144 4.340 . S
C936 C424 4.340 . S
C961 C184 4.340 . S
C966 C464 4.340 . S
C991 C224 4.340 . S
C996 C264 4.340 . S
C1021 C23 0.504 . S
C1026 C143 0.504 . S
C1051 C63 0.504 . S
C1056 C183 0.504 . S
C1081 C103 0.504 . S
C1086 C223 0.504 . S
C1111 C383 0.504 . S
C1116 C263 0.504 . S
C1141 C303 0.504 . S
C1146 C423 0.504 . S
C1171 C463 0.504 . S
C1176 C343 0.504 . S
C1201 C306 0.967 . S
C1206 C26 0.967 . S
C1231 C346 0.968 . S
C1236 C66 0.968 . S
C1261 C106 0.968 . S
C1266 C386 0.968 . S
C1291 C426 0.967 . S
C1296 C146 0.967 . S
C1321 C466 0.968 . S
C1326 C186 0.968 . S
C1351 C226 0.968 . S
C1356 C266 0.968 . S
C1381 C13 4.484 . S
C1386 C413 4.484 . S
C1411 C53 4.483 . S
C1416 C453 4.483 1_556 S
C1441 C93 4.483 1_554 S
C1446 C253 4.483 . S
C1471 C133 4.484 . S
C1476 C293 4.484 . S
C1501 C173 4.483 . S
C1506 C333 4.483 1_556 S
C1531 C373 4.483 . S
C1536 C213 4.483 1_554 S
