# Generated by pormake.
# Topology pem, (4)-cn, num edge types: 1
# Building blocks:
#     Node 0, Type 0, BuildingBlock: AZAVOO_clean_sbu_0, # of connection points: 4
#     Node 1, Type 0, BuildingBlock: AZAVOO_clean_sbu_0, # of connection points: 4
#     Node 2, Type 0, BuildingBlock: AZAVOO_clean_sbu_0, # of connection points: 4
#     Node 3, Type 0, BuildingBlock: AZAVOO_clean_sbu_0, # of connection points: 4
#     Node 4, Type 0, BuildingBlock: AZAVOO_clean_sbu_0, # of connection points: 4
#     Node 5, Type 0, BuildingBlock: AZAVOO_clean_sbu_0, # of connection points: 4
#     Node 6, Type 0, BuildingBlock: AZAVOO_clean_sbu_0, # of connection points: 4
#     Node 7, Type 0, BuildingBlock: AZAVOO_clean_sbu_0, # of connection points: 4
#     Node 8, Type 0, BuildingBlock: AZAVOO_clean_sbu_0, # of connection points: 4
#     Node 9, Type 0, BuildingBlock: AZAVOO_clean_sbu_0, # of connection points: 4
#     Node 10, Type 0, BuildingBlock: AZAVOO_clean_sbu_0, # of connection points: 4
#     Node 11, Type 0, BuildingBlock: AZAVOO_clean_sbu_0, # of connection points: 4
#     Node 12, Type 0, BuildingBlock: AZAVOO_clean_sbu_0, # of connection points: 4
#     Node 13, Type 0, BuildingBlock: AZAVOO_clean_sbu_0, # of connection points: 4
#     Node 14, Type 0, BuildingBlock: AZAVOO_clean_sbu_0, # of connection points: 4
#     Node 15, Type 0, BuildingBlock: AZAVOO_clean_sbu_0, # of connection points: 4
#     Node 16, Type 0, BuildingBlock: AZAVOO_clean_sbu_0, # of connection points: 4
#     Node 17, Type 0, BuildingBlock: AZAVOO_clean_sbu_0, # of connection points: 4
#     Node 18, Type 0, BuildingBlock: AZAVOO_clean_sbu_0, # of connection points: 4
#     Node 19, Type 0, BuildingBlock: AZAVOO_clean_sbu_0, # of connection points: 4
#     Node 20, Type 0, BuildingBlock: AZAVOO_clean_sbu_0, # of connection points: 4
#     Node 21, Type 0, BuildingBlock: AZAVOO_clean_sbu_0, # of connection points: 4
#     Node 22, Type 0, BuildingBlock: AZAVOO_clean_sbu_0, # of connection points: 4
#     Node 23, Type 0, BuildingBlock: AZAVOO_clean_sbu_0, # of connection points: 4
#     Node 24, Type 0, BuildingBlock: AZAVOO_clean_sbu_0, # of connection points: 4
#     Node 25, Type 0, BuildingBlock: AZAVOO_clean_sbu_0, # of connection points: 4
#     Node 26, Type 0, BuildingBlock: AZAVOO_clean_sbu_0, # of connection points: 4
#     Node 27, Type 0, BuildingBlock: AZAVOO_clean_sbu_0, # of connection points: 4
#     Node 28, Type 0, BuildingBlock: AZAVOO_clean_sbu_0, # of connection points: 4
#     Node 29, Type 0, BuildingBlock: AZAVOO_clean_sbu_0, # of connection points: 4
#     Node 30, Type 0, BuildingBlock: AZAVOO_clean_sbu_0, # of connection points: 4
#     Node 31, Type 0, BuildingBlock: AZAVOO_clean_sbu_0, # of connection points: 4
#     Edge 32, Type (0, 0), BuildingBlock: AJUNOK_clean_linker_0, # of connection points: 2
#     Edge 33, Type (0, 0), BuildingBlock: AJUNOK_clean_linker_0, # of connection points: 2
#     Edge 34, Type (0, 0), BuildingBlock: AJUNOK_clean_linker_0, # of connection points: 2
#     Edge 35, Type (0, 0), BuildingBlock: AJUNOK_clean_linker_0, # of connection points: 2
#     Edge 36, Type (0, 0), BuildingBlock: AJUNOK_clean_linker_0, # of connection points: 2
#     Edge 37, Type (0, 0), BuildingBlock: AJUNOK_clean_linker_0, # of connection points: 2
#     Edge 38, Type (0, 0), BuildingBlock: AJUNOK_clean_linker_0, # of connection points: 2
#     Edge 39, Type (0, 0), BuildingBlock: AJUNOK_clean_linker_0, # of connection points: 2
#     Edge 40, Type (0, 0), BuildingBlock: AJUNOK_clean_linker_0, # of connection points: 2
#     Edge 41, Type (0, 0), BuildingBlock: AJUNOK_clean_linker_0, # of connection points: 2
#     Edge 42, Type (0, 0), BuildingBlock: AJUNOK_clean_linker_0, # of connection points: 2
#     Edge 43, Type (0, 0), BuildingBlock: AJUNOK_clean_linker_0, # of connection points: 2
#     Edge 44, Type (0, 0), BuildingBlock: AJUNOK_clean_linker_0, # of connection points: 2
#     Edge 45, Type (0, 0), BuildingBlock: AJUNOK_clean_linker_0, # of connection points: 2
#     Edge 46, Type (0, 0), BuildingBlock: AJUNOK_clean_linker_0, # of connection points: 2
#     Edge 47, Type (0, 0), BuildingBlock: AJUNOK_clean_linker_0, # of connection points: 2
#     Edge 48, Type (0, 0), BuildingBlock: AJUNOK_clean_linker_0, # of connection points: 2
#     Edge 49, Type (0, 0), BuildingBlock: AJUNOK_clean_linker_0, # of connection points: 2
#     Edge 50, Type (0, 0), BuildingBlock: AJUNOK_clean_linker_0, # of connection points: 2
#     Edge 51, Type (0, 0), BuildingBlock: AJUNOK_clean_linker_0, # of connection points: 2
#     Edge 52, Type (0, 0), BuildingBlock: AJUNOK_clean_linker_0, # of connection points: 2
#     Edge 53, Type (0, 0), BuildingBlock: AJUNOK_clean_linker_0, # of connection points: 2
#     Edge 54, Type (0, 0), BuildingBlock: AJUNOK_clean_linker_0, # of connection points: 2
#     Edge 55, Type (0, 0), BuildingBlock: AJUNOK_clean_linker_0, # of connection points: 2
#     Edge 56, Type (0, 0), BuildingBlock: AJUNOK_clean_linker_0, # of connection points: 2
#     Edge 57, Type (0, 0), BuildingBlock: AJUNOK_clean_linker_0, # of connection points: 2
#     Edge 58, Type (0, 0), BuildingBlock: AJUNOK_clean_linker_0, # of connection points: 2
#     Edge 59, Type (0, 0), BuildingBlock: AJUNOK_clean_linker_0, # of connection points: 2
#     Edge 60, Type (0, 0), BuildingBlock: AJUNOK_clean_linker_0, # of connection points: 2
#     Edge 61, Type (0, 0), BuildingBlock: AJUNOK_clean_linker_0, # of connection points: 2
#     Edge 62, Type (0, 0), BuildingBlock: AJUNOK_clean_linker_0, # of connection points: 2
#     Edge 63, Type (0, 0), BuildingBlock: AJUNOK_clean_linker_0, # of connection points: 2
#     Edge 64, Type (0, 0), BuildingBlock: AJUNOK_clean_linker_0, # of connection points: 2
#     Edge 65, Type (0, 0), BuildingBlock: AJUNOK_clean_linker_0, # of connection points: 2
#     Edge 66, Type (0, 0), BuildingBlock: AJUNOK_clean_linker_0, # of connection points: 2
#     Edge 67, Type (0, 0), BuildingBlock: AJUNOK_clean_linker_0, # of connection points: 2
#     Edge 68, Type (0, 0), BuildingBlock: AJUNOK_clean_linker_0, # of connection points: 2
#     Edge 69, Type (0, 0), BuildingBlock: AJUNOK_clean_linker_0, # of connection points: 2
#     Edge 70, Type (0, 0), BuildingBlock: AJUNOK_clean_linker_0, # of connection points: 2
#     Edge 71, Type (0, 0), BuildingBlock: AJUNOK_clean_linker_0, # of connection points: 2
#     Edge 72, Type (0, 0), BuildingBlock: AJUNOK_clean_linker_0, # of connection points: 2
#     Edge 73, Type (0, 0), BuildingBlock: AJUNOK_clean_linker_0, # of connection points: 2
#     Edge 74, Type (0, 0), BuildingBlock: AJUNOK_clean_linker_0, # of connection points: 2
#     Edge 75, Type (0, 0), BuildingBlock: AJUNOK_clean_linker_0, # of connection points: 2
#     Edge 76, Type (0, 0), BuildingBlock: AJUNOK_clean_linker_0, # of connection points: 2
#     Edge 77, Type (0, 0), BuildingBlock: AJUNOK_clean_linker_0, # of connection points: 2
#     Edge 78, Type (0, 0), BuildingBlock: AJUNOK_clean_linker_0, # of connection points: 2
#     Edge 79, Type (0, 0), BuildingBlock: AJUNOK_clean_linker_0, # of connection points: 2
#     Edge 80, Type (0, 0), BuildingBlock: AJUNOK_clean_linker_0, # of connection points: 2
#     Edge 81, Type (0, 0), BuildingBlock: AJUNOK_clean_linker_0, # of connection points: 2
#     Edge 82, Type (0, 0), BuildingBlock: AJUNOK_clean_linker_0, # of connection points: 2
#     Edge 83, Type (0, 0), BuildingBlock: AJUNOK_clean_linker_0, # of connection points: 2
#     Edge 84, Type (0, 0), BuildingBlock: AJUNOK_clean_linker_0, # of connection points: 2
#     Edge 85, Type (0, 0), BuildingBlock: AJUNOK_clean_linker_0, # of connection points: 2
#     Edge 86, Type (0, 0), BuildingBlock: AJUNOK_clean_linker_0, # of connection points: 2
#     Edge 87, Type (0, 0), BuildingBlock: AJUNOK_clean_linker_0, # of connection points: 2
#     Edge 88, Type (0, 0), BuildingBlock: AJUNOK_clean_linker_0, # of connection points: 2
#     Edge 89, Type (0, 0), BuildingBlock: AJUNOK_clean_linker_0, # of connection points: 2
#     Edge 90, Type (0, 0), BuildingBlock: AJUNOK_clean_linker_0, # of connection points: 2
#     Edge 91, Type (0, 0), BuildingBlock: AJUNOK_clean_linker_0, # of connection points: 2
#     Edge 92, Type (0, 0), BuildingBlock: AJUNOK_clean_linker_0, # of connection points: 2
#     Edge 93, Type (0, 0), BuildingBlock: AJUNOK_clean_linker_0, # of connection points: 2
#     Edge 94, Type (0, 0), BuildingBlock: AJUNOK_clean_linker_0, # of connection points: 2
#     Edge 95, Type (0, 0), BuildingBlock: AJUNOK_clean_linker_0, # of connection points: 2
# Relax obj value: 0.054
# Max RMSD: 0.043
# Mean RMSD: 0.038
data_MOF--net-pem--node1-AZAVOO_clean_sbu_0--edge1-AJUNOK_clean_linker_0
_symmetry_space_group_name_H-M    P1
_symmetry_Int_Tables_number       1
_symmetry_cell_setting            triclinic
loop_
_symmetry_equiv_pos_as_xyz
'x, y, z'
_cell_length_a     31.902362
_cell_length_b     33.352266
_cell_length_c     32.958758
_cell_angle_alpha  90.168977
_cell_angle_beta   89.899319
_cell_angle_gamma 91.016789
loop_
_atom_site_label
_atom_site_type_symbol
_atom_site_fract_x
_atom_site_fract_y
_atom_site_fract_z
_atom_type_partial_charge
Mg0 Mg 0.10466 0.07644 0.09015 0.0
O1 O 0.07207 0.03695 0.04747 0.0
O2 O 0.00897 0.02487 0.07384 0.0
Mg3 Mg 0.01466 0.02895 0.14133 0.0
C4 C 0.03407 0.02672 0.04399 0.0
C5 C 0.1524 0.12399 0.01089 0.0
O6 O 0.1515 0.15894 0.02919 0.0
O7 O 0.04782 0.11996 0.08902 0.0
O8 O 0.00253 0.09476 0.13546 0.0
O9 O 0.1422 0.02354 0.11329 0.0
O10 O 0.08214 0.04279 0.13847 0.0
C11 C 0.01518 0.12276 0.11197 0.0
C12 C 0.11171 0.01756 0.13864 0.0
O13 O 0.13764 0.09325 0.02908 0.0
Mg14 Mg 0.12937 0.85247 0.32676 0.0
O15 O 0.15726 0.80439 0.28834 0.0
O16 O 0.21761 0.83498 0.27053 0.0
Mg17 Mg 0.21567 0.90365 0.27541 0.0
C18 C 0.19458 0.80352 0.27501 0.0
C19 C 0.08147 0.77519 0.38864 0.0
O20 O 0.08163 0.78093 0.42801 0.0
O21 O 0.18923 0.85136 0.36716 0.0
O22 O 0.23569 0.8959 0.34262 0.0
O23 O 0.08351 0.87341 0.27605 0.0
O24 O 0.14744 0.8963 0.28465 0.0
C25 C 0.22368 0.87142 0.37019 0.0
C26 C 0.11336 0.89731 0.26395 0.0
O27 O 0.09806 0.80198 0.36574 0.0
Mg28 Mg 0.3797 0.89799 0.60004 0.0
O29 O 0.41264 0.93171 0.55178 0.0
O30 O 0.47821 0.93745 0.57424 0.0
Mg31 Mg 0.47723 0.94351 0.6437 0.0
C32 C 0.45124 0.93836 0.54579 0.0
C33 C 0.31535 0.842 0.52591 0.0
O34 O 0.32013 0.80546 0.53963 0.0
O35 O 0.43462 0.85044 0.60654 0.0
O36 O 0.48356 0.87706 0.64838 0.0
O37 O 0.34912 0.95691 0.62131 0.0
O38 O 0.40848 0.93823 0.64584 0.0
C39 C 0.46726 0.84733 0.62962 0.0
C40 C 0.38053 0.96521 0.64465 0.0
O41 O 0.33552 0.87186 0.5427 0.0
Mg42 Mg 0.35527 0.13469 0.82761 0.0
O43 O 0.31939 0.17288 0.788 0.0
O44 O 0.26743 0.13499 0.76273 0.0
Mg45 Mg 0.27602 0.06906 0.77843 0.0
C46 C 0.28614 0.16878 0.76796 0.0
C47 C 0.3903 0.21892 0.86993 0.0
O48 O 0.39208 0.19995 0.90467 0.0
O49 O 0.29708 0.13228 0.87122 0.0
O50 O 0.25494 0.08558 0.84232 0.0
O51 O 0.39767 0.11892 0.77529 0.0
O52 O 0.34135 0.08383 0.79206 0.0
C53 C 0.2639 0.10963 0.87137 0.0
C54 C 0.37144 0.09016 0.7669 0.0
O55 O 0.37899 0.19947 0.83875 0.0
Mg56 Mg 0.09974 0.89653 0.38016 0.0
O57 O 0.07801 0.93531 0.43185 0.0
O58 O 0.01143 0.92747 0.41547 0.0
Mg59 Mg 0.0107 0.94607 0.3495 0.0
C60 C 0.03959 0.93716 0.44102 0.0
C61 C 0.15396 0.83973 0.44888 0.0
O62 O 0.15984 0.80183 0.44028 0.0
O63 O 0.04146 0.85442 0.37991 0.0
O64 O -0.00078 0.88075 0.33337 0.0
O65 O 0.14459 0.94569 0.3605 0.0
O66 O 0.0785 0.93541 0.34223 0.0
C67 C 0.01272 0.85077 0.35293 0.0
C68 C 0.11234 0.95663 0.33967 0.0
O69 O 0.13433 0.86095 0.42417 0.0
Mg70 Mg 0.3551 0.83948 0.64589 0.0
O71 O 0.31709 0.7959 0.68004 0.0
O72 O 0.26855 0.83655 0.70555 0.0
Mg73 Mg 0.27527 0.90408 0.69903 0.0
C74 C 0.28379 0.80186 0.7 0.0
C75 C 0.40582 0.77485 0.58253 0.0
O76 O 0.40823 0.78544 0.54423 0.0
O77 O 0.29944 0.84883 0.60885 0.0
O78 O 0.26496 0.90222 0.6324 0.0
O79 O 0.39211 0.85053 0.70469 0.0
O80 O 0.33817 0.8853 0.6873 0.0
C81 C 0.27482 0.87795 0.60451 0.0
C82 C 0.36442 0.8767 0.71431 0.0
O83 O 0.37393 0.7852 0.60344 0.0
Mg84 Mg 0.37651 0.06872 0.87958 0.0
O85 O 0.4108 0.03141 0.92313 0.0
O86 O 0.47152 0.02344 0.89073 0.0
Mg87 Mg 0.46611 0.03138 0.82295 0.0
C88 C 0.44923 0.02273 0.92278 0.0
C89 C 0.33117 0.11237 0.96327 0.0
O90 O 0.3434 0.14889 0.95374 0.0
O91 O 0.43503 0.11584 0.88515 0.0
O92 O 0.47555 0.09629 0.83326 0.0
O93 O 0.33887 0.01309 0.85663 0.0
O94 O 0.39811 0.03258 0.82993 0.0
C95 C 0.46741 0.12066 0.8617 0.0
C96 C 0.36868 0.00581 0.83126 0.0
O97 O 0.339 0.08328 0.9394 0.0
Mg98 Mg 0.13002 0.12984 0.14773 0.0
O99 O 0.17218 0.17007 0.18124 0.0
O100 O 0.22297 0.13385 0.2097 0.0
Mg101 Mg 0.21518 0.06774 0.19611 0.0
C102 C 0.20548 0.16691 0.2016 0.0
C103 C 0.07865 0.20826 0.10209 0.0
O104 O 0.08443 0.19241 0.06613 0.0
O105 O 0.18465 0.12418 0.09985 0.0
O106 O 0.23006 0.08357 0.13158 0.0
O107 O 0.09626 0.11466 0.20548 0.0
O108 O 0.15099 0.08181 0.18425 0.0
C109 C 0.21857 0.10352 0.1008 0.0
C110 C 0.12427 0.08803 0.21212 0.0
O111 O 0.09313 0.19014 0.13306 0.0
Mg112 Mg 0.60408 0.39464 0.88129 0.0
O113 O 0.57262 0.4295 0.9267 0.0
O114 O 0.51427 0.45251 0.89841 0.0
Mg115 Mg 0.51576 0.44868 0.83029 0.0
C116 C 0.53691 0.44455 0.92902 0.0
C117 C 0.65621 0.34123 0.95608 0.0
O118 O 0.65448 0.30868 0.93402 0.0
O119 O 0.54172 0.35304 0.87946 0.0
O120 O 0.49571 0.38598 0.84037 0.0
O121 O 0.63985 0.45299 0.85996 0.0
O122 O 0.58134 0.43155 0.8336 0.0
C123 C 0.50584 0.3556 0.86098 0.0
C124 C 0.60986 0.45863 0.83453 0.0
O125 O 0.63984 0.37332 0.94231 0.0
Mg126 Mg 0.85965 0.33582 0.1471 0.0
O127 O 0.82026 0.2978 0.18642 0.0
O128 O 0.7669 0.33482 0.20772 0.0
Mg129 Mg 0.77524 0.39928 0.18729 0.0
C130 C 0.78604 0.30162 0.20533 0.0
C131 C 0.9062 0.26058 0.10213 0.0
O132 O 0.89925 0.27829 0.06736 0.0
O133 O 0.80496 0.33151 0.09817 0.0
O134 O 0.75939 0.37509 0.1241 0.0
O135 O 0.89774 0.35551 0.20154 0.0
O136 O 0.84096 0.38562 0.18036 0.0
C137 C 0.77028 0.35084 0.09609 0.0
C138 C 0.86914 0.38171 0.20765 0.0
O139 O 0.89333 0.27683 0.1345 0.0
Mg140 Mg 0.86881 0.56448 0.37778 0.0
O141 O 0.91039 0.53228 0.41977 0.0
O142 O 0.96705 0.5173 0.38327 0.0
Mg143 Mg 0.95843 0.52663 0.3164 0.0
C144 C 0.94761 0.51983 0.4169 0.0
C145 C 0.82896 0.60303 0.4643 0.0
O146 O 0.85586 0.6332 0.46258 0.0
O147 O 0.92161 0.61441 0.37576 0.0
O148 O 0.96617 0.59229 0.32759 0.0
O149 O 0.83532 0.50772 0.35815 0.0
O150 O 0.89217 0.532 0.32924 0.0
C151 C 0.95276 0.61951 0.35105 0.0
C152 C 0.86433 0.50412 0.33108 0.0
O153 O 0.82847 0.57741 0.43563 0.0
Mg154 Mg 0.85725 0.63378 0.33033 0.0
O155 O 0.82747 0.68122 0.29163 0.0
O156 O 0.78089 0.63495 0.27698 0.0
Mg157 Mg 0.76917 0.57022 0.28643 0.0
C158 C 0.79337 0.67098 0.27506 0.0
C159 C 0.91687 0.7025 0.38333 0.0
O160 O 0.91239 0.68556 0.419 0.0
O161 O 0.79932 0.63764 0.37549 0.0
O162 O 0.75313 0.59344 0.34862 0.0
O163 O 0.8936 0.61062 0.27447 0.0
O164 O 0.83523 0.58267 0.29456 0.0
C165 C 0.76385 0.61827 0.37637 0.0
C166 C 0.86443 0.58423 0.2679 0.0
O167 O 0.89702 0.68912 0.35239 0.0
Mg168 Mg 0.62925 0.33993 0.8256 0.0
O169 O 0.66525 0.30047 0.78772 0.0
O170 O 0.72722 0.33041 0.79439 0.0
Mg171 Mg 0.71779 0.39844 0.78596 0.0
C172 C 0.7045 0.29973 0.78569 0.0
C173 C 0.58708 0.25653 0.8732 0.0
O174 O 0.59002 0.27599 0.90752 0.0
O175 O 0.68816 0.34765 0.87318 0.0
O176 O 0.72467 0.40255 0.85321 0.0
O177 O 0.59827 0.35906 0.76411 0.0
O178 O 0.65063 0.39084 0.79197 0.0
C179 C 0.71637 0.37567 0.87942 0.0
C180 C 0.62692 0.38663 0.76124 0.0
O181 O 0.59812 0.27501 0.84079 0.0
Mg182 Mg 0.88423 0.8887 0.87865 0.0
O183 O 0.93109 0.92429 0.91388 0.0
O184 O 0.94495 0.8867 0.96801 0.0
Mg185 Mg 0.91887 0.82472 0.96152 0.0
C186 C 0.94899 0.91886 0.94757 0.0
C187 C 0.86262 0.96376 0.82486 0.0
O188 O 0.82588 0.95703 0.84186 0.0
O189 O 0.93861 0.85188 0.8468 0.0
O190 O 0.95813 0.82058 0.90267 0.0
O191 O 0.83497 0.91013 0.92451 0.0
O192 O 0.86674 0.85316 0.9313 0.0
C193 C 0.96344 0.82834 0.86524 0.0
C194 C 0.84125 0.87872 0.94637 0.0
O195 O 0.89212 0.93961 0.83201 0.0
Mg196 Mg 0.84849 0.14076 0.63252 0.0
O197 O 0.80457 0.17329 0.67373 0.0
O198 O 0.78516 0.22062 0.63116 0.0
Mg199 Mg 0.80729 0.21801 0.56776 0.0
C200 C 0.78469 0.20474 0.66605 0.0
C201 C 0.87869 0.08789 0.70605 0.0
O202 O 0.91542 0.1026 0.69515 0.0
O203 O 0.79152 0.10587 0.59997 0.0
O204 O 0.76915 0.15929 0.56735 0.0
O205 O 0.89688 0.18873 0.65099 0.0
O206 O 0.86512 0.19269 0.59275 0.0
C207 C 0.7644 0.12272 0.57726 0.0
C208 C 0.89101 0.2089 0.6183 0.0
O209 O 0.84657 0.09645 0.68523 0.0
Mg210 Mg 0.61107 0.06969 0.37943 0.0
O211 O 0.5613 0.03445 0.41484 0.0
O212 O 0.54796 0.07604 0.46629 0.0
Mg213 Mg 0.57673 0.13566 0.46502 0.0
C214 C 0.54198 0.04322 0.44748 0.0
C215 C 0.64583 -0.00156 0.32918 0.0
O216 O 0.67934 0.00713 0.35073 0.0
O217 O 0.55673 0.10107 0.34396 0.0
O218 O 0.55134 0.13048 0.40226 0.0
O219 O 0.65969 0.05021 0.42376 0.0
O220 O 0.62694 0.10598 0.43412 0.0
C221 C 0.53829 0.126 0.36641 0.0
C222 C 0.65305 0.08032 0.44726 0.0
O223 O 0.61315 0.01953 0.33279 0.0
Mg224 Mg 0.64254 0.83112 0.12515 0.0
O225 O 0.686 0.79968 0.16727 0.0
O226 O 0.70579 0.74502 0.13347 0.0
Mg227 Mg 0.68551 0.74494 0.06804 0.0
C228 C 0.70551 0.76708 0.16519 0.0
C229 C 0.62343 0.87347 0.21071 0.0
O230 O 0.59495 0.84504 0.2161 0.0
O231 O 0.70002 0.8667 0.09582 0.0
O232 O 0.70873 0.80701 0.07267 0.0
O233 O 0.59383 0.78439 0.1428 0.0
O234 O 0.62819 0.77584 0.08665 0.0
C235 C 0.72207 0.84259 0.0753 0.0
C236 C 0.60084 0.76207 0.1118 0.0
O237 O 0.6422 0.87695 0.17671 0.0
Mg238 Mg 0.88685 0.08885 0.58477 0.0
O239 O 0.92956 0.05231 0.5498 0.0
O240 O 0.94863 0.08344 0.49273 0.0
Mg241 Mg 0.92677 0.1479 0.4961 0.0
C242 C 0.94833 0.05316 0.51625 0.0
C243 C 0.86148 0.01258 0.64486 0.0
O244 O 0.82434 0.02645 0.63589 0.0
O245 O 0.94502 0.12372 0.61361 0.0
O246 O 0.96248 0.15254 0.55512 0.0
O247 O 0.83917 0.07364 0.53422 0.0
O248 O 0.87195 0.13041 0.53174 0.0
C249 C 0.96985 0.14604 0.59242 0.0
C250 C 0.84509 0.1068 0.51526 0.0
O251 O 0.89335 0.03227 0.6313 0.0
Mg252 Mg 0.64195 0.14096 0.3541 0.0
O253 O 0.67876 0.17891 0.31264 0.0
O254 O 0.72809 0.13666 0.29165 0.0
Mg255 Mg 0.72601 0.07499 0.31709 0.0
C256 C 0.71063 0.17067 0.29127 0.0
C257 C 0.57124 0.20583 0.38802 0.0
O258 O 0.58689 0.20064 0.42446 0.0
O259 O 0.61529 0.1095 0.29217 0.0
O260 O 0.66909 0.07178 0.27398 0.0
O261 O 0.68573 0.16101 0.40487 0.0
O262 O 0.69911 0.10815 0.36848 0.0
C263 C 0.63267 0.08525 0.26695 0.0
C264 C 0.71201 0.13332 0.39597 0.0
O265 O 0.59036 0.19109 0.35727 0.0
Mg266 Mg 0.58825 0.88569 0.09324 0.0
O267 O 0.54833 0.91787 0.051 0.0
O268 O 0.48773 0.93042 0.08255 0.0
Mg269 Mg 0.48742 0.90894 0.14682 0.0
C270 C 0.51224 0.93275 0.05217 0.0
C271 C 0.64073 0.86032 0.01249 0.0
O272 O 0.6165 0.82862 0.01805 0.0
O273 O 0.60322 0.95126 0.12405 0.0
O274 O 0.54006 0.95442 0.15175 0.0
O275 O 0.54932 0.82796 0.07947 0.0
O276 O 0.5338 0.86512 0.13109 0.0
C277 C 0.57599 0.97025 0.14569 0.0
C278 C 0.52462 0.83424 0.10967 0.0
O279 O 0.63903 0.88899 0.03862 0.0
Mg280 Mg 0.84265 0.83355 0.8469 0.0
O281 O 0.8063 0.79538 0.80364 0.0
O282 O 0.74771 0.8284 0.78842 0.0
Mg283 Mg 0.75002 0.89139 0.81293 0.0
C284 C 0.77138 0.7981 0.78565 0.0
C285 C 0.88778 0.7574 0.88668 0.0
O286 O 0.86475 0.76719 0.91797 0.0
O287 O 0.87328 0.86556 0.78735 0.0
O288 O 0.81106 0.89141 0.78034 0.0
O289 O 0.79857 0.81418 0.89654 0.0
O290 O 0.78589 0.86883 0.86353 0.0
C291 C 0.84787 0.88715 0.76692 0.0
C292 C 0.77385 0.84351 0.89059 0.0
O293 O 0.88751 0.77921 0.85464 0.0
Mg294 Mg 0.38386 0.58454 0.07969 0.0
O295 O 0.42483 0.54487 0.04665 0.0
O296 O 0.44338 0.57576 -0.01093 0.0
Mg297 Mg 0.41817 0.63819 0.98414 0.0
C298 C 0.44433 0.54616 0.01349 0.0
C299 C 0.35611 0.51726 0.14797 0.0
O300 O 0.32051 0.53337 0.13736 0.0
O301 O 0.44593 0.6217 0.10074 0.0
O302 O 0.45472 0.64911 0.03981 0.0
O303 O 0.33008 0.56744 0.03407 0.0
O304 O 0.36909 0.62012 0.02446 0.0
C305 C 0.46607 0.64552 0.07644 0.0
C306 C 0.3402 0.59718 0.01085 0.0
O307 O 0.38853 0.53166 0.12992 0.0
Mg308 Mg 0.1444 0.63291 0.84483 0.0
O309 O 0.18291 0.67122 0.80623 0.0
O310 O 0.24289 0.63976 0.79258 0.0
Mg311 Mg 0.23957 0.57715 0.81705 0.0
C312 C 0.21897 0.66989 0.79041 0.0
C313 C 0.08754 0.70983 0.85189 0.0
O314 O 0.10987 0.71206 0.88528 0.0
O315 O 0.12418 0.59756 0.78689 0.0
O316 O 0.18517 0.56981 0.77213 0.0
O317 O 0.18428 0.65771 0.89752 0.0
O318 O 0.20181 0.6035 0.8651 0.0
C319 C 0.14724 0.57708 0.76304 0.0
C320 C 0.21226 0.63087 0.89093 0.0
O321 O 0.0908 0.67849 0.83007 0.0
Mg322 Mg 0.09139 0.38071 0.58745 0.0
O323 O 0.05414 0.41928 0.54679 0.0
O324 O -0.00407 0.43242 0.58164 0.0
Mg325 Mg -0.00384 0.40688 0.64462 0.0
C326 C 0.01883 0.43578 0.55005 0.0
C327 C 0.14744 0.35806 0.514 0.0
O328 O 0.12696 0.3246 0.52225 0.0
O329 O 0.11391 0.44067 0.62125 0.0
O330 O 0.05247 0.44776 0.65113 0.0
O331 O 0.05126 0.3264 0.56595 0.0
O332 O 0.03453 0.35953 0.62017 0.0
C333 C 0.08945 0.46064 0.64442 0.0
C334 C 0.02447 0.33164 0.59476 0.0
O335 O 0.14314 0.38766 0.53808 0.0
Mg336 Mg 0.13803 0.33625 0.63254 0.0
O337 O 0.18017 0.3042 0.67384 0.0
O338 O 0.19658 0.24542 0.64547 0.0
Mg339 Mg 0.16863 0.24118 0.58281 0.0
C340 C 0.19925 0.27138 0.67387 0.0
C341 C 0.11413 0.38906 0.70774 0.0
O342 O 0.07975 0.36709 0.70425 0.0
O343 O 0.19876 0.35732 0.59714 0.0
O344 O 0.20812 0.29654 0.57149 0.0
O345 O 0.08363 0.29851 0.65611 0.0
O346 O 0.11935 0.28097 0.60249 0.0
C347 C 0.21979 0.33304 0.57514 0.0
C348 C 0.0903 0.27229 0.62817 0.0
O349 O 0.14245 0.38638 0.68047 0.0
Mg350 Mg 0.347 0.64379 0.13189 0.0
O351 O 0.30503 0.6767 0.17416 0.0
O352 O 0.28702 0.73436 0.14549 0.0
Mg353 Mg 0.30815 0.73015 0.0808 0.0
C354 C 0.28686 0.71004 0.17514 0.0
C355 C 0.37861 0.59155 0.20041 0.0
O356 O 0.41418 0.60649 0.18656 0.0
O357 O 0.28802 0.61417 0.10143 0.0
O358 O 0.26602 0.67232 0.07842 0.0
O359 O 0.39946 0.68126 0.15398 0.0
O360 O 0.36632 0.69927 0.09929 0.0
C361 C 0.25956 0.63486 0.08486 0.0
C362 C 0.39465 0.70777 0.12631 0.0
O363 O 0.34469 0.59893 0.18222 0.0
Mg364 Mg 0.61335 0.5697 0.5899 0.0
O365 O 0.57906 0.5314 0.54701 0.0
O366 O 0.51619 0.53416 0.57453 0.0
Mg367 Mg 0.52826 0.52241 0.64159 0.0
C368 C 0.53972 0.52988 0.54381 0.0
C369 C 0.65254 0.63152 0.51594 0.0
O370 O 0.65174 0.6635 0.53919 0.0
O371 O 0.55638 0.61302 0.59484 0.0
O372 O 0.51798 0.58946 0.64703 0.0
O373 O 0.65482 0.51586 0.60496 0.0
O374 O 0.5977 0.53052 0.63836 0.0
C375 C 0.52747 0.61706 0.62175 0.0
C376 C 0.62813 0.50623 0.63294 0.0
O377 O 0.64016 0.59762 0.52979 0.0
Mg378 Mg 0.8779 0.39576 0.09994 0.0
O379 O 0.91345 0.43181 0.05534 0.0
O380 O 0.9726 0.45383 0.08533 0.0
Mg381 Mg 0.96752 0.44368 0.15355 0.0
C382 C 0.94913 0.44879 0.05428 0.0
C383 C 0.83711 0.37282 0.0124 0.0
O384 O 0.85666 0.33907 0.01816 0.0
O385 O 0.9352 0.35104 0.09526 0.0
O386 O 0.98053 0.37663 0.14107 0.0
O387 O 0.83716 0.4486 0.12119 0.0
O388 O 0.90052 0.43952 0.14132 0.0
C389 C 0.96859 0.3484 0.11717 0.0
C390 C 0.86841 0.4615 0.14202 0.0
O391 O 0.83953 0.39942 0.03989 0.0
Mg392 Mg 0.62234 0.62737 0.64962 0.0
O393 O 0.66326 0.66898 0.6847 0.0
O394 O 0.71749 0.63291 0.70655 0.0
Mg395 Mg 0.70538 0.56636 0.69764 0.0
C396 C 0.69904 0.66601 0.70106 0.0
C397 C 0.56797 0.70258 0.59819 0.0
O398 O 0.57458 0.69034 0.56089 0.0
O399 O 0.67872 0.62129 0.60255 0.0
O400 O 0.72136 0.5762 0.63077 0.0
O401 O 0.58262 0.61319 0.70579 0.0
O402 O 0.63929 0.58095 0.68963 0.0
C403 C 0.7106 0.59798 0.60092 0.0
C404 C 0.60951 0.58646 0.71512 0.0
O405 O 0.58512 0.68492 0.62821 0.0
Mg406 Mg 0.38187 0.39085 0.38389 0.0
O407 O 0.42413 0.43094 0.41866 0.0
O408 O 0.43693 0.38816 0.46821 0.0
Mg409 Mg 0.4117 0.32615 0.4703 0.0
C410 C 0.442 0.42209 0.45147 0.0
C411 C 0.36335 0.46231 0.32535 0.0
O412 O 0.32663 0.45975 0.34334 0.0
O413 O 0.43998 0.35801 0.35992 0.0
O414 O 0.45428 0.3229 0.41582 0.0
O415 O 0.33135 0.4105 0.42878 0.0
O416 O 0.36486 0.35424 0.43483 0.0
C417 C 0.46335 0.33448 0.37993 0.0
C418 C 0.33915 0.37904 0.45003 0.0
O419 O 0.3912 0.43722 0.33418 0.0
Mg420 Mg 0.10067 0.58509 0.8891 0.0
O421 O 0.05869 0.54403 0.92192 0.0
O422 O 0.04242 0.57162 0.98182 0.0
Mg423 Mg 0.06855 0.63377 0.98691 0.0
C424 C 0.04028 0.54341 0.95576 0.0
C425 C 0.1281 0.51172 0.83355 0.0
O426 O 0.16384 0.52053 0.85139 0.0
O427 O 0.03871 0.61977 0.86888 0.0
O428 O 0.03204 0.64272 0.93163 0.0
O429 O 0.15521 0.56531 0.93012 0.0
O430 O 0.11761 0.61714 0.94488 0.0
C431 C 0.01894 0.64043 0.89558 0.0
C432 C 0.14682 0.59366 0.95547 0.0
O433 O 0.09681 0.53449 0.83947 0.0
Mg434 Mg 0.33903 0.34375 0.34287 0.0
O435 O 0.30165 0.30335 0.30347 0.0
O436 O 0.24056 0.33139 0.28652 0.0
Mg437 Mg 0.24319 0.39653 0.30597 0.0
C438 C 0.2663 0.30255 0.28618 0.0
C439 C 0.39626 0.26865 0.36903 0.0
O440 O 0.37831 0.26915 0.40493 0.0
O441 O 0.37119 0.37038 0.28294 0.0
O442 O 0.30725 0.38671 0.28541 0.0
O443 O 0.29581 0.3257 0.39295 0.0
O444 O 0.28257 0.38014 0.35836 0.0
C445 C 0.3407 0.38696 0.26543 0.0
C446 C 0.27163 0.35546 0.38636 0.0
O447 O 0.38555 0.294 0.34249 0.0
C448 C 0.99167 0.01684 0.98333 0.0
C449 C 0.02258 0.00342 0.00917 0.0
C450 C 0.96938 -0.01088 0.95951 0.0
C451 C 0.97811 0.94913 0.96275 0.0
H452 H 0.98224 0.04791 0.98381 0.0
H453 H 0.94318 -0.00073 0.94161 0.0
S454 S 0.06067 0.90147 0.02291 0.0
N455 N 0.06437 0.94967 0.03401 0.0
N456 N 0.02329 0.89759 -0.01136 0.0
C457 C 0.01243 0.93666 0.98561 0.0
C458 C 0.03458 0.96453 0.00895 0.0
C459 C 0.21718 0.72381 0.20148 0.0
C460 C 0.25999 0.71897 0.20928 0.0
C461 C 0.19284 0.74689 0.22742 0.0
C462 C 0.21145 0.7657 0.26105 0.0
H463 H 0.20366 0.71345 0.17307 0.0
H464 H 0.16132 0.75428 0.21822 0.0
S465 S 0.31783 0.74976 0.30173 0.0
N466 N 0.31696 0.72527 0.258 0.0
N467 N 0.27072 0.76893 0.3072 0.0
C468 C 0.25193 0.75499 0.27285 0.0
C469 C 0.27668 0.73142 0.24654 0.0
C470 C 0.48538 0.94949 0.47912 0.0
C471 C 0.46228 0.96395 0.51211 0.0
C472 C 0.50906 0.97617 0.45518 0.0
C473 C 0.51006 0.01623 0.46469 0.0
H474 H 0.48788 0.91752 0.47399 0.0
H475 H 0.52904 0.96423 0.43162 0.0
S476 S 0.44886 0.06802 0.54492 0.0
N477 N 0.43706 0.01999 0.55011 0.0
N478 N 0.48056 0.07035 0.50551 0.0
C479 C 0.48295 0.03093 0.49494 0.0
C480 C 0.45909 0.00401 0.51871 0.0
C481 C 0.22201 0.20569 0.75762 0.0
C482 C 0.26575 0.20489 0.7546 0.0
C483 C 0.19965 0.2332 0.73549 0.0
C484 C 0.22083 0.26017 0.71015 0.0
H485 H 0.20482 0.18262 0.77415 0.0
H486 H 0.16579 0.22998 0.73424 0.0
S487 S 0.33489 0.28133 0.70548 0.0
N488 N 0.32989 0.24152 0.73514 0.0
N489 N 0.28675 0.29325 0.6921 0.0
C490 C 0.2644 0.26486 0.7128 0.0
C491 C 0.28745 0.23695 0.73575 0.0
C492 C 0.98541 0.9515 0.49101 0.0
C493 C 0.02577 0.96054 0.47585 0.0
C494 C 0.96035 0.98185 0.5063 0.0
C495 C 0.97573 0.02025 0.50751 0.0
H496 H 0.97132 0.92205 0.48619 0.0
H497 H 0.92797 0.97505 0.51405 0.0
S498 S 0.08327 0.05663 0.48648 0.0
N499 N 0.08306 0.00884 0.47278 0.0
N500 N 0.03591 0.06518 0.50423 0.0
C501 C 0.01797 0.02818 0.49958 0.0
C502 C 0.04337 -0.00234 0.48337 0.0
C503 C 0.27124 0.72904 0.70887 0.0
C504 C 0.26515 0.76855 0.72213 0.0
C505 C 0.25504 0.69707 0.73108 0.0
C506 C 0.2328 0.70394 0.767 0.0
H507 H 0.28867 0.72285 0.68138 0.0
H508 H 0.26017 0.66682 0.72024 0.0
S509 S 0.20899 0.80192 0.81458 0.0
N510 N 0.23671 0.8129 0.77377 0.0
N511 N 0.20406 0.75252 0.81458 0.0
C512 C 0.22547 0.74322 0.78014 0.0
C513 C 0.2426 0.77569 0.75796 0.0
C514 C 0.48347 0.9653 0.94927 0.0
C515 C 0.46626 0.00191 0.95709 0.0
C516 C 0.50083 0.94317 0.98025 0.0
C517 C 0.50032 0.9581 0.01926 0.0
H518 H 0.48264 0.95244 0.91901 0.0
H519 H 0.51267 0.91358 0.97366 0.0
S520 S 0.46655 0.05662 0.05489 0.0
N521 N 0.45359 0.05512 0.00623 0.0
N522 N 0.48871 0.01333 0.06453 0.0
C523 C 0.486 -0.00432 0.02733 0.0
C524 C 0.46762 0.01817 -0.00407 0.0
C525 C 0.22662 0.23997 0.2837 0.0
C526 C 0.25457 0.26668 0.26487 0.0
C527 C 0.20975 0.20795 0.26202 0.0
C528 C 0.221 0.20219 0.22145 0.0
H529 H 0.21715 0.24441 0.31498 0.0
H530 H 0.18798 0.18747 0.27699 0.0
S531 S 0.29365 0.26386 0.15906 0.0
N532 N 0.29463 0.28506 0.20451 0.0
N533 N 0.2603 0.22547 0.16247 0.0
C534 C 0.24881 0.22873 0.20208 0.0
C535 C 0.26683 0.26082 0.22447 0.0
C536 C 0.51357 0.52888 -0.00942 0.0
C537 C 0.47483 0.5158 0.00607 0.0
C538 C 0.53926 0.50229 0.9712 0.0
C539 C 0.52584 0.46258 0.96656 0.0
H540 H 0.52223 0.56047 -0.0099 0.0
H541 H 0.56611 0.51398 0.95448 0.0
S542 S 0.43645 0.41068 0.01616 0.0
N543 N 0.43091 0.45873 0.02747 0.0
N544 N 0.47939 0.40814 -0.01184 0.0
C545 C 0.49141 0.44744 -0.01191 0.0
C546 C 0.46549 0.47457 0.00893 0.0
C547 C 0.72484 0.26763 0.23598 0.0
C548 C 0.76702 0.2661 0.22398 0.0
C549 C 0.70624 0.23608 0.25701 0.0
C550 C 0.72925 0.2019 0.26626 0.0
H551 H 0.70611 0.29371 0.22988 0.0
H552 H 0.67389 0.23881 0.26656 0.0
S553 S 0.83861 0.17994 0.23649 0.0
N554 N 0.83 0.22534 0.21878 0.0
N555 N 0.79463 0.16605 0.25892 0.0
C556 C 0.77056 0.19867 0.25223 0.0
C557 C 0.78963 0.23078 0.23076 0.0
C558 C 0.96026 0.4688 0.5165 0.0
C559 C 0.00313 0.45981 0.51652 0.0
C560 C 0.9429 0.4909 0.48546 0.0
C561 C 0.96778 0.50437 0.45306 0.0
H562 H 0.93937 0.45776 0.54006 0.0
H563 H 0.90936 0.49551 0.48589 0.0
S564 S 0.08268 0.49489 0.44117 0.0
N565 N 0.07107 0.46941 0.48281 0.0
N566 N 0.03796 0.51312 0.42521 0.0
C567 C 0.01121 0.49843 0.45395 0.0
C568 C 0.02903 0.47518 0.48528 0.0
C569 C 0.77717 0.74073 0.25071 0.0
C570 C 0.76709 0.69941 0.25345 0.0
C571 C 0.75402 0.76552 0.22488 0.0
C572 C 0.72053 0.74903 0.20232 0.0
H573 H 0.80419 0.75322 0.26645 0.0
H574 H 0.76431 0.79627 0.22007 0.0
S575 S 0.67707 0.64591 0.20501 0.0
N576 N 0.71815 0.64541 0.23477 0.0
N577 N 0.67371 0.69275 0.19013 0.0
C578 C 0.70713 0.70982 0.20945 0.0
C579 C 0.73097 0.68454 0.23381 0.0
C580 C 0.74654 0.20844 0.73298 0.0
C581 C 0.76414 0.22705 0.69833 0.0
C582 C 0.72525 0.23156 0.76191 0.0
C583 C 0.72141 0.27302 0.75582 0.0
H584 H 0.74919 0.17643 0.73754 0.0
H585 H 0.71271 0.21748 0.78903 0.0
S586 S 0.75885 0.33447 0.66988 0.0
N587 N 0.77733 0.28945 0.66168 0.0
N588 N 0.73074 0.33018 0.71155 0.0
C589 C 0.73624 0.29077 0.72044 0.0
C590 C 0.75997 0.26852 0.69306 0.0
C591 C 0.71458 0.75051 0.77291 0.0
C592 C 0.75536 0.76367 0.76367 0.0
C593 C 0.69565 0.71993 0.75067 0.0
C594 C 0.71745 0.70142 0.71917 0.0
H595 H 0.69717 0.76403 0.79755 0.0
H596 H 0.66432 0.70981 0.75899 0.0
S597 S 0.82395 0.72616 0.68137 0.0
N598 N 0.81704 0.75679 0.72035 0.0
N599 N 0.78027 0.69903 0.67758 0.0
C600 C 0.75802 0.71446 0.70899 0.0
C601 C 0.7776 0.74559 0.73186 0.0
C602 C 0.4751 0.49033 0.45809 0.0
C603 C 0.47223 0.44972 0.46978 0.0
C604 C 0.50028 0.51723 0.48029 0.0
C605 C 0.52317 0.50331 0.51347 0.0
H606 H 0.45621 0.50164 0.43351 0.0
H607 H 0.50005 0.54891 0.47311 0.0
S608 S 0.5296 0.40022 0.55324 0.0
N609 N 0.49779 0.39704 0.51423 0.0
N610 N 0.54433 0.44773 0.55532 0.0
C611 C 0.52314 0.46274 0.52308 0.0
C612 C 0.49773 0.43576 0.50125 0.0
C613 C 0.02636 0.47416 0.97537 0.0
C614 C 0.01104 0.51134 0.96364 0.0
C615 C 0.00256 0.45033 0.00131 0.0
C616 C 0.96388 0.4638 0.01578 0.0
H617 H 0.0584 0.46608 0.96864 0.0
H618 H 0.01661 0.42382 0.01405 0.0
S619 S 0.90723 0.55408 0.98389 0.0
N620 N 0.95245 0.55642 0.95955 0.0
N621 N 0.90756 0.51187 0.00972 0.0
C622 C 0.94553 0.49757 -0.00147 0.0
C623 C 0.96964 0.52152 0.97201 0.0
C624 C 0.14615 0.96301 0.17585 0.0
C625 C 0.1104 0.98532 0.16799 0.0
C626 C 0.14572 0.93373 0.20584 0.0
C627 C 0.10955 0.92534 0.22873 0.0
H628 H 0.17515 0.9692 0.15971 0.0
H629 H 0.17442 0.91794 0.21172 0.0
S630 S 0.01664 0.02547 0.27302 0.0
N631 N 0.0559 0.98257 0.22578 0.0
N632 N 0.05599 0.98289 0.22525 0.0
C633 C 0.07043 0.94403 0.21759 0.0
C634 C 0.07095 0.97464 0.18712 0.0
C635 C 0.29893 0.83508 0.4532 0.0
C636 C 0.28418 0.84836 0.49178 0.0
C637 C 0.28053 0.84309 0.41486 0.0
C638 C 0.2472 0.86922 0.40922 0.0
H639 H 0.32703 0.81725 0.45233 0.0
H640 H 0.2937 0.82863 0.38837 0.0
S641 S 0.15834 0.92617 0.49215 0.0
N642 N 0.19562 0.89457 0.52997 0.0
N643 N 0.19037 0.9138 0.44208 0.0
C644 C 0.23025 0.88624 0.44348 0.0
C645 C 0.24385 0.86919 0.49202 0.0
C646 C 0.34059 0.05032 0.70936 0.0
C647 C 0.37606 0.06419 0.7307 0.0
C648 C 0.3433 0.01966 0.68024 0.0
C649 C 0.38155 0.00112 0.67121 0.0
H650 H 0.31017 0.06262 0.71566 0.0
H651 H 0.31453 0.00915 0.66605 0.0
S652 S 0.48561 0.03517 0.71215 0.0
N653 N 0.45149 0.0631 0.7363 0.0
N654 N 0.45757 0.00562 0.68174 0.0
C655 C 0.41812 0.01769 0.68999 0.0
C656 C 0.41509 0.04933 0.71947 0.0
C657 C 0.22589 0.14959 0.9236 0.0
C658 C 0.23309 0.11242 0.90509 0.0
C659 C 0.1979 0.15316 0.95621 0.0
C660 C 0.17632 0.11959 0.97238 0.0
H661 H 0.24236 0.17625 0.91301 0.0
H662 H 0.19447 0.18251 0.96983 0.0
S663 S 0.18451 0.01459 0.93459 0.0
N664 N 0.21567 0.04102 0.90434 0.0
N665 N 0.16361 0.04736 0.96606 0.0
C666 C 0.18178 0.08216 0.95284 0.0
C667 C 0.21002 0.07869 0.91913 0.0
C668 C 0.15234 0.04427 0.27009 0.0
C669 C 0.11957 0.05934 0.24505 0.0
C670 C 0.14941 0.01247 0.30019 0.0
C671 C 0.11348 -0.01181 0.31042 0.0
H672 H 0.183 0.05822 0.26647 0.0
H673 H 0.17816 0.00605 0.31616 0.0
S674 S 0.98461 0.98511 0.22227 0.0
N675 N 0.0369 0.04066 0.20997 0.0
N676 N 0.02941 0.96148 0.28082 0.0
C677 C 0.0785 -0.0068 0.28791 0.0
C678 C 0.08259 0.03979 0.24642 0.0
C679 C 0.25987 0.92311 0.53937 0.0
C680 C 0.25307 0.87997 0.56692 0.0
C681 C 0.2328 0.9321 0.49586 0.0
C682 C 0.17816 0.8579 0.48276 0.0
H683 H 0.28197 0.94571 0.55008 0.0
H684 H 0.2384 0.95856 0.47704 0.0
S685 S 0.18526 0.7766 0.57074 0.0
N686 N 0.22151 0.80919 0.58728 0.0
N687 N 0.16645 0.79253 0.52685 0.0
C688 C 0.18844 0.82707 0.52125 0.0
C689 C 0.2229 0.83814 0.55851 0.0
C690 C 0.33136 0.94743 0.79862 0.0
C691 C 0.36892 0.9695 0.80541 0.0
C692 C 0.33007 0.91442 0.77167 0.0
C693 C 0.36644 0.90202 0.75094 0.0
H694 H 0.30248 0.95657 0.81298 0.0
H695 H 0.30034 0.89924 0.76637 0.0
S696 S 0.47279 0.94449 0.7606 0.0
N697 N 0.44377 0.97215 0.79072 0.0
N698 N 0.4403 0.91124 0.74075 0.0
C699 C 0.40393 0.92168 0.75921 0.0
C700 C 0.40541 0.95525 0.78601 0.0
C701 C 0.27087 0.07941 0.00044 0.0
C702 C 0.30607 0.10538 0.0005 0.0
C703 C 0.24214 0.07914 0.03293 0.0
C704 C 0.24844 0.10416 0.06671 0.0
H705 H 0.2654 0.05998 0.97529 0.0
H706 H 0.21501 0.05924 0.03173 0.0
S707 S 0.3483 0.15658 0.09209 0.0
N708 N 0.35383 0.14328 0.04401 0.0
N709 N 0.30082 0.14119 0.10568 0.0
C710 C 0.28753 0.12374 0.07055 0.0
C711 C 0.31618 0.12486 0.03719 0.0
C712 C 0.94625 0.20958 0.14229 0.0
C713 C 0.93243 0.22411 0.10444 0.0
C714 C 0.97342 0.17693 0.14464 0.0
C715 C 0.98806 0.15798 0.10927 0.0
H716 H 0.93682 0.22401 0.17026 0.0
H717 H 0.98365 0.16693 0.17421 0.0
S718 S 0.95596 0.1793 0.00402 0.0
N719 N 0.93196 0.21339 0.03151 0.0
N720 N 0.98295 0.15233 0.03633 0.0
C721 C 0.97313 0.17084 0.07176 0.0
C722 C 0.94534 0.20379 0.06926 0.0
C723 C 0.48581 0.28516 0.87563 0.0
C724 C 0.47384 0.32258 0.8625 0.0
C725 C 0.45844 0.25244 0.87477 0.0
C726 C 0.41666 0.25546 0.86431 0.0
H727 H 0.51593 0.28169 0.88867 0.0
H728 H 0.46871 0.22461 0.88533 0.0
S729 S 0.36524 0.34863 0.83164 0.0
N730 N 0.41463 0.36238 0.83948 0.0
N731 N 0.36216 0.30007 0.84154 0.0
C732 C 0.40256 0.29308 0.85182 0.0
C733 C 0.43125 0.32688 0.85072 0.0
C734 C 0.00237 0.66863 0.39443 0.0
C735 C 0.97665 0.65738 0.34997 0.0
C736 C 0.03767 0.70559 0.40637 0.0
C737 C 0.05451 0.74117 0.37262 0.0
H738 H -0.00399 0.64798 0.41903 0.0
H739 H 0.04973 0.70658 0.43701 0.0
S740 S 0.96641 0.70845 0.23883 0.0
N741 N 0.95334 0.67219 0.27212 0.0
N742 N 0.00261 0.74026 0.25826 0.0
C743 C 0.00751 0.72281 0.29502 0.0
C744 C 0.9773 0.68195 0.30435 0.0
C745 C 0.00882 0.29069 0.14769 0.0
C746 C -0.00335 0.31288 0.11333 0.0
C747 C 0.03591 0.25756 0.14431 0.0
C748 C 0.05239 0.24539 0.10643 0.0
H749 H -0.00343 0.29847 0.1773 0.0
H750 H 0.04309 0.24081 0.17144 0.0
S751 S 0.03621 0.29839 0.00878 0.0
N752 N 0.00731 0.32336 0.04149 0.0
N753 N 0.0578 0.26198 0.03482 0.0
C754 C 0.04195 0.26885 0.07242 0.0
C755 C 0.0143 0.30225 0.07592 0.0
C756 C 0.55267 0.7737 0.6028 0.0
C757 C 0.53617 0.73417 0.60627 0.0
C758 C 0.53104 0.80908 0.61207 0.0
C759 C 0.49143 0.80979 0.63035 0.0
H760 H 0.58419 0.77788 0.59092 0.0
H761 H 0.54606 0.83734 0.60389 0.0
S762 S 0.39426 0.71815 0.65536 0.0
N763 N 0.44128 0.68756 0.6271 0.0
N764 N 0.42696 0.76997 0.65972 0.0
C765 C 0.47341 0.77372 0.64225 0.0
C766 C 0.49296 0.72945 0.6211 0.0
C767 C 0.93231 0.77321 0.38392 0.0
C768 C 0.9488 0.73474 0.37693 0.0
C769 C 0.95171 0.80977 0.3733 0.0
C770 C 0.9887 0.8129 0.351 0.0
H771 H 0.90218 0.77551 0.39901 0.0
H772 H 0.93714 0.83704 0.38381 0.0
S773 S 0.08107 0.72539 0.30688 0.0
N774 N 0.03828 0.69153 0.3389 0.0
N775 N 0.0498 0.77665 0.31254 0.0
C776 C 0.00691 0.77808 0.3372 0.0
C777 C 0.98969 0.73204 0.35691 0.0
C778 C 0.52199 0.16753 0.83241 0.0
C779 C 0.49972 0.15344 0.86691 0.0
C780 C 0.55209 0.19888 0.83482 0.0
C781 C 0.56187 0.21763 0.872 0.0
H782 H 0.51499 0.15523 0.80267 0.0
H783 H 0.56638 0.20964 0.80699 0.0
S784 S 0.5128 0.19203 0.97153 0.0
N785 N 0.49109 0.15956 0.93965 0.0
N786 N 0.54702 0.21847 0.94463 0.0
C787 C 0.54212 0.20167 0.90731 0.0
C788 C 0.51147 0.16943 0.90475 0.0
C789 C 0.83624 0.04856 0.75594 0.0
C790 C 0.87498 0.05871 0.73981 0.0
C791 C 0.83358 0.01865 0.78474 0.0
C792 C 0.86916 -0.00259 0.79722 0.0
H793 H 0.80797 0.06305 0.74593 0.0
H794 H 0.80271 0.01064 0.79618 0.0
S795 S 0.99148 0.02544 0.76949 0.0
N796 N 0.95095 0.04854 0.74831 0.0
N797 N 0.93835 0.03264 0.76306 0.0
C798 C 0.91143 0.00657 0.78566 0.0
C799 C 0.91308 0.03825 0.75762 0.0
C800 C 0.66639 0.11509 0.51494 0.0
C801 C 0.67677 0.08568 0.48604 0.0
C802 C 0.69216 0.12257 0.54896 0.0
C803 C 0.72916 0.10089 0.55585 0.0
H804 H 0.63959 0.13393 0.51027 0.0
H805 H 0.68501 0.14798 0.56818 0.0
S806 S 0.7647 0.015 0.49333 0.0
N807 N 0.72469 0.03289 0.46821 0.0
N808 N 0.76765 0.04174 0.53553 0.0
C809 C 0.73614 0.06782 0.5301 0.0
C810 C 0.71165 0.06191 0.49414 0.0
C811 C 0.63565 0.94383 0.23056 0.0
C812 C 0.63171 0.90385 0.24247 0.0
C813 C 0.6424 0.97432 0.25879 0.0
C814 C 0.6461 0.9662 0.30002 0.0
H815 H 0.63486 0.9514 0.1989 0.0
H816 H 0.64649 0.00311 0.24807 0.0
S817 S 0.65868 0.86568 0.34468 0.0
N818 N 0.64514 0.85655 0.29701 0.0
N819 N 0.65902 0.91496 0.35019 0.0
C820 C 0.64832 0.92608 0.31206 0.0
C821 C 0.64058 0.89455 0.28326 0.0
C822 C 0.79187 0.90124 0.00174 0.0
C823 C 0.81711 0.87097 0.98504 0.0
C824 C 0.76369 0.89324 0.03397 0.0
C825 C 0.759 0.85442 0.05 0.0
H826 H 0.79262 0.93111 -0.01106 0.0
H827 H 0.7434 0.9169 0.04427 0.0
S828 S 0.81745 0.76429 0.01796 0.0
N829 N 0.83573 0.80057 -0.01148 0.0
N830 N 0.78345 0.7858 0.04829 0.0
C831 C 0.78561 0.82444 0.03506 0.0
C832 C 0.81424 0.83255 0.00252 0.0
C833 C 0.82577 0.95585 0.67925 0.0
C834 C 0.86387 0.9762 0.67104 0.0
C835 C 0.82291 0.92405 0.70665 0.0
C836 C 0.85766 0.9109 0.7291 0.0
H837 H 0.79689 0.96527 0.66526 0.0
H838 H 0.79192 0.91132 0.71211 0.0
S839 S 0.96747 0.94316 0.70979 0.0
N840 N 0.93976 0.97313 0.68058 0.0
N841 N 0.93345 0.91382 0.7339 0.0
C842 C 0.89705 0.92711 0.71805 0.0
C843 C 0.90032 0.9597 0.68893 0.0
C844 C 0.79237 0.15143 0.4809 0.0
C845 C 0.81921 0.11854 0.47863 0.0
C846 C 0.75866 0.15596 0.45376 0.0
C847 C 0.75245 0.13018 0.4201 0.0
H848 H 0.79677 0.17354 0.50435 0.0
H849 H 0.73686 0.17976 0.45985 0.0
S850 S 0.83197 0.05732 0.38551 0.0
N851 N 0.8481 0.0705 0.43139 0.0
N852 N 0.7881 0.08176 0.37732 0.0
C853 C 0.78491 0.10274 0.41247 0.0
C854 C 0.81778 0.09657 0.44201 0.0
C855 C 0.62053 0.03216 0.16449 0.0
C856 C 0.58558 0.00648 0.17106 0.0
C857 C 0.63236 0.06207 0.19342 0.0
C858 C 0.61011 0.06763 0.2304 0.0
H859 H 0.64026 0.02766 0.13816 0.0
H860 H 0.6614 0.07866 0.18847 0.0
S861 S 0.51608 0.00892 0.26221 0.0
N862 N 0.5278 -0.00926 0.21725 0.0
N863 N 0.55043 0.04559 0.27028 0.0
C864 C 0.57331 0.04451 0.2355 0.0
C865 C 0.56118 0.01428 0.20634 0.0
C866 C 0.69799 0.82379 0.97738 0.0
C867 C 0.67365 0.8584 0.98011 0.0
C868 C 0.72881 0.81928 0.94751 0.0
C869 C 0.73637 0.84856 0.9176 0.0
H870 H 0.69331 0.79969 -0.00154 0.0
H871 H 0.74741 0.79245 0.94856 0.0
S872 S 0.67066 0.93813 0.90175 0.0
N873 N 0.65235 0.91835 0.94436 0.0
N874 N 0.70981 0.90957 0.88714 0.0
C875 C 0.70929 0.88167 0.91707 0.0
C876 C 0.67808 0.88662 0.94845 0.0
C877 C 0.03864 0.81196 0.86072 0.0
C878 C -0.00179 0.80632 0.84461 0.0
C879 C 0.06863 0.78172 0.85892 0.0
C880 C 0.05962 0.74404 0.84132 0.0
H881 H 0.04581 0.8385 0.87863 0.0
H882 H 0.09807 0.78693 0.87457 0.0
S883 S 0.9631 0.71802 0.78327 0.0
N884 N 0.9542 0.76326 0.80177 0.0
N885 N 0.01078 0.70633 0.7984 0.0
C886 C 0.02182 0.74006 0.81932 0.0
C887 C 0.99093 0.77118 0.82119 0.0
C888 C 0.50748 0.70827 0.06486 0.0
C889 C 0.50183 0.67295 0.08811 0.0
C890 C 0.54172 0.73447 0.07031 0.0
C891 C 0.57117 0.72839 0.10103 0.0
H892 H 0.48496 0.7162 0.0418 0.0
H893 H 0.54404 0.76054 0.05103 0.0
S894 S 0.57597 0.63801 0.16611 0.0
N895 N 0.53293 0.63045 0.13913 0.0
N896 N 0.59559 0.682 0.15191 0.0
C897 C 0.56728 0.69259 0.12356 0.0
C898 C 0.53293 0.6646 0.11685 0.0
C899 C 0.97815 0.2738 0.57037 0.0
C900 C 0.98545 0.30497 0.59876 0.0
C901 C 0.94488 0.24553 0.57479 0.0
C902 C 0.91814 0.24548 0.60882 0.0
H903 H -0.0009 0.27041 0.54472 0.0
H904 H 0.94131 0.22242 0.55204 0.0
S905 S 0.91563 0.32624 0.68665 0.0
N906 N 0.95664 0.33829 0.65823 0.0
N907 N 0.89603 0.28412 0.66737 0.0
C908 C 0.92268 0.27824 0.6358 0.0
C909 C 0.95584 0.30798 0.63067 0.0
C910 C 0.98995 0.70677 0.90543 0.0
C911 C 0.98483 0.66875 0.8871 0.0
C912 C 0.95678 0.73281 0.90974 0.0
C913 C 0.91834 0.72489 0.89098 0.0
H914 H 0.01962 0.71564 0.91914 0.0
H915 H 0.96154 0.75858 0.92883 0.0
S916 S 0.88171 0.62414 0.85843 0.0
N917 N 0.93279 0.61907 0.86505 0.0
N918 N 0.87161 0.67179 0.86749 0.0
C919 C 0.91064 0.68573 0.87682 0.0
C920 C 0.94391 0.65721 0.87533 0.0
C921 C 0.43727 0.20179 0.39431 0.0
C922 C 0.43017 0.23874 0.36024 0.0
C923 C 0.4739 0.16643 0.3891 0.0
C924 C 0.51001 0.15736 0.3518 0.0
H925 H 0.41722 0.20042 0.42078 0.0
H926 H 0.47361 0.14534 0.41402 0.0
S927 S 0.55327 0.21933 0.25337 0.0
N928 N 0.51193 0.24805 0.26393 0.0
N929 N 0.55516 0.1792 0.28421 0.0
C930 C 0.52158 0.18451 0.30833 0.0
C931 C 0.49524 0.2261 0.29469 0.0
C932 C 0.03934 0.17884 0.5822 0.0
C933 C 0.00642 0.16922 0.60936 0.0
C934 C 0.0674 0.21086 0.58938 0.0
C935 C 0.06414 0.23488 0.62431 0.0
H936 H 0.04175 0.16312 0.55347 0.0
H937 H 0.09033 0.21809 0.56615 0.0
S938 S 0.98776 0.21962 0.70818 0.0
N939 N 0.97627 0.1833 0.67563 0.0
N940 N 0.02769 0.24482 0.68822 0.0
C941 C 0.03346 0.22395 0.65326 0.0
C942 C 0.0052 0.19063 0.64623 0.0
C943 C 0.4186 0.77727 0.09984 0.0
C944 C 0.42405 0.74388 0.12551 0.0
C945 C 0.45001 0.80797 0.09637 0.0
C946 C 0.4875 0.80702 0.11918 0.0
H947 H 0.39081 0.77891 0.08114 0.0
H948 H 0.44557 0.83185 0.0747 0.0
S949 S 0.51056 0.73347 0.20032 0.0
N950 N 0.46727 0.71607 0.17905 0.0
N951 N 0.52166 0.77569 0.17636 0.0
C952 C 0.49007 0.777 0.14893 0.0
C953 C 0.45962 0.74497 0.15108 0.0
C954 C 0.65147 0.45169 0.73115 0.0
C955 C 0.6334 0.41335 0.72514 0.0
C956 C 0.65096 0.48094 0.70067 0.0
C957 C 0.63526 0.47249 0.6618 0.0
H958 H 0.66406 0.46012 0.76045 0.0
H959 H 0.66198 0.51063 0.70824 0.0
S960 S 0.60942 0.37033 0.62388 0.0
N961 N 0.61442 0.36434 0.67342 0.0
N962 N 0.6172 0.41869 0.61491 0.0
C963 C 0.62504 0.43216 0.65305 0.0
C964 C 0.62346 0.40262 0.6849 0.0
C965 C 0.77408 0.40288 0.9781 0.0
C966 C 0.809 0.37742 0.9771 0.0
C967 C 0.74368 0.40185 0.94681 0.0
C968 C 0.74639 0.37451 0.91414 0.0
H969 H 0.76904 0.42252 0.00331 0.0
H970 H 0.71732 0.42179 0.94876 0.0
S971 S 0.8384 0.31205 0.89094 0.0
N972 N 0.84927 0.33186 0.93571 0.0
N973 N 0.79192 0.32903 0.87821 0.0
C974 C 0.78324 0.35225 0.91098 0.0
C975 C 0.81443 0.35384 0.94218 0.0
C976 C 0.83134 0.52803 0.22694 0.0
C977 C 0.86449 0.55622 0.23219 0.0
C978 C 0.83164 0.49936 0.19576 0.0
C979 C 0.86576 0.49665 0.16916 0.0
H980 H 0.80565 0.52641 0.2481 0.0
H981 H 0.80618 0.47747 0.19421 0.0
S982 S 0.96049 0.56246 0.16836 0.0
N983 N 0.93212 0.5797 0.20639 0.0
N984 N 0.93314 0.52467 0.14868 0.0
C985 C 0.89885 0.52468 0.17317 0.0
C986 C 0.89815 0.55465 0.20444 0.0
C987 C 0.7418 0.65119 0.44189 0.0
C988 C 0.7327 0.62466 0.40973 0.0
C989 C 0.71444 0.65495 0.47512 0.0
C990 C 0.67677 0.63249 0.47748 0.0
H991 H 0.77103 0.66819 0.44225 0.0
H992 H 0.724 0.67411 0.50015 0.0
S993 S 0.63276 0.56578 0.39745 0.0
N994 N 0.679 0.5803 0.37969 0.0
N995 N 0.62839 0.58759 0.44226 0.0
C996 C 0.66549 0.60824 0.44427 0.0
C997 C 0.69315 0.60437 0.41034 0.0
C998 C 0.63229 0.52899 0.81213 0.0
C999 C 0.60624 0.49463 0.80761 0.0
C1000 C 0.63161 0.56051 0.78348 0.0
C1001 C 0.60363 0.55951 0.75047 0.0
H1002 H 0.65466 0.53069 0.83676 0.0
H1003 H 0.65411 0.58505 0.78632 0.0
S1004 S 0.52988 0.47697 0.72364 0.0
N1005 N 0.55407 0.46123 0.76451 0.0
N1006 N 0.54815 0.52291 0.71619 0.0
C1007 C 0.5755 0.52702 0.74743 0.0
C1008 C 0.57792 0.49396 0.77458 0.0
C1009 C 0.70575 0.37171 0.05729 0.0
C1010 C 0.74053 0.34599 0.0608 0.0
C1011 C 0.67811 0.36979 0.02392 0.0
C1012 C 0.68345 0.34165 -0.00742 0.0
H1013 H 0.70009 0.39437 0.08015 0.0
H1014 H 0.65264 0.39078 0.02249 0.0
S1015 S 0.76856 0.26672 0.98728 0.0
N1016 N 0.77729 0.29054 0.0299 0.0
N1017 N 0.72643 0.28721 0.96791 0.0
C1018 C 0.71725 0.315 -0.0038 0.0
C1019 C 0.74548 0.31707 0.0301 0.0
C1020 C 0.899 0.46842 0.27397 0.0
C1021 C 0.86652 0.46967 0.303 0.0
C1022 C 0.9013 0.43767 0.24548 0.0
C1023 C 0.86986 0.40817 0.24321 0.0
H1024 H 0.92176 0.49234 0.27108 0.0
H1025 H 0.92631 0.43867 0.22321 0.0
S1026 S 0.77696 0.39793 0.31046 0.0
N1027 N 0.80234 0.43796 0.32783 0.0
N1028 N 0.80499 0.38138 0.27187 0.0
C1029 C 0.837 0.4087 0.27169 0.0
C1030 C 0.8356 0.43927 0.30203 0.0
C1031 C 0.80216 0.62646 0.53213 0.0
C1032 C 0.79894 0.59927 0.49937 0.0
C1033 C 0.77306 0.62602 0.56426 0.0
C1034 C 0.73932 0.59842 0.56523 0.0
H1035 H 0.82715 0.64885 0.53284 0.0
H1036 H 0.77696 0.64764 0.58863 0.0
S1037 S 0.71825 0.5177 0.48975 0.0
N1038 N 0.75994 0.5418 0.47168 0.0
N1039 N 0.7065 0.54035 0.53284 0.0
C1040 C 0.73679 0.56948 0.53406 0.0
C1041 C 0.76618 0.57011 0.50093 0.0
C1042 C 0.48553 0.66976 0.57604 0.0
C1043 C 0.50314 0.65436 0.62295 0.0
C1044 C 0.45354 0.70795 0.56229 0.0
C1045 C 0.43179 0.74007 0.59651 0.0
H1046 H 0.49565 0.65155 0.55075 0.0
H1047 H 0.44685 0.71189 0.53041 0.0
S1048 S 0.48947 0.69162 0.7396 0.0
N1049 N 0.50953 0.65997 0.70511 0.0
N1050 N 0.46045 0.72683 0.71736 0.0
C1051 C 0.46472 0.71488 0.67822 0.0
C1052 C 0.49497 0.67482 0.67001 0.0
C1053 C 0.35035 0.55989 0.26417 0.0
C1054 C 0.37885 0.56052 0.2313 0.0
C1055 C 0.34687 0.52874 0.29366 0.0
C1056 C 0.3723 0.49431 0.29555 0.0
H1057 H 0.32878 0.58447 0.26695 0.0
H1058 H 0.32244 0.53202 0.31624 0.0
S1059 S 0.46577 0.45792 0.19671 0.0
N1060 N 0.43595 0.51569 0.18728 0.0
N1061 N 0.43443 0.45179 0.25597 0.0
C1062 C 0.40342 0.49093 0.26644 0.0
C1063 C 0.40484 0.52871 0.22706 0.0
C1064 C 0.22547 0.5797 0.04165 0.0
C1065 C 0.2223 0.61588 0.0638 0.0
C1066 C 0.19914 0.57142 0.0079 0.0
C1067 C 0.16881 0.59897 -0.00502 0.0
H1068 H 0.25082 0.55954 0.04783 0.0
H1069 H 0.20468 0.54462 -0.00981 0.0
S1070 S 0.14342 0.69428 0.04865 0.0
N1071 N 0.18056 0.6744 0.07631 0.0
N1072 N 0.13578 0.66273 0.01066 0.0
C1073 C 0.16295 0.63322 0.01975 0.0
C1074 C 0.18819 0.64032 0.05496 0.0
C1075 C 0.15569 0.47518 0.77286 0.0
C1076 C 0.12594 0.47775 0.80423 0.0
C1077 C 0.15194 0.44619 0.74212 0.0
C1078 C 0.11936 0.4173 0.74252 0.0
H1079 H 0.18165 0.49628 0.77132 0.0
H1080 H 0.17453 0.44688 0.71756 0.0
S1081 S 0.04724 0.39859 0.82935 0.0
N1082 N 0.07144 0.44134 0.84095 0.0
N1083 N 0.06563 0.38515 0.78451 0.0
C1084 C 0.0933 0.41574 0.77716 0.0
C1085 C 0.09639 0.44622 0.80783 0.0
C1086 C 0.26756 0.31879 0.51769 0.0
C1087 C 0.25522 0.34598 0.54825 0.0
C1088 C 0.29723 0.32909 0.48843 0.0
C1089 C 0.31483 0.36779 0.48675 0.0
H1090 H 0.25326 0.28921 0.51504 0.0
H1091 H 0.30458 0.30695 0.46558 0.0
S1092 S 0.30335 0.44691 0.56483 0.0
N1093 N 0.27044 0.4109 0.57968 0.0
N1094 N 0.32516 0.43092 0.52235 0.0
C1095 C 0.30606 0.39442 0.51867 0.0
C1096 C 0.27636 0.38347 0.5498 0.0
C1097 C 0.38227 0.42212 0.21021 0.0
C1098 C 0.34397 0.41191 0.22806 0.0
C1099 C 0.3921 0.46487 0.20255 0.0
C1100 C 0.35587 0.48219 0.17902 0.0
H1101 H 0.40688 0.4008 0.21583 0.0
H1102 H 0.45442 0.49993 0.2371 0.0
S1103 S 0.24274 0.45495 0.19933 0.0
N1104 N 0.26949 0.42189 0.22489 0.0
N1105 N 0.27848 0.4826 0.17586 0.0
C1106 C 0.31493 0.46595 0.18833 0.0
C1107 C 0.30949 0.43271 0.21473 0.0
C1108 C 0.28049 0.63509 0.98463 0.0
C1109 C 0.31402 0.61022 0.97609 0.0
C1110 C 0.24937 0.64353 0.95632 0.0
C1111 C 0.25133 0.62887 0.9166 0.0
H1112 H 0.27839 0.64899 0.0129 0.0
H1113 H 0.22305 0.66115 0.96607 0.0
S1114 S 0.35211 0.59765 0.87027 0.0
N1115 N 0.36046 0.5938 0.91972 0.0
N1116 N 0.30268 0.61107 0.86494 0.0
C1117 C 0.29067 0.61359 0.90437 0.0
C1118 C 0.32232 0.60429 0.93432 0.0
C1119 C 0.14448 0.51195 0.66801 0.0
C1120 C 0.10267 0.49798 0.66707 0.0
C1121 C 0.15766 0.54093 0.69675 0.0
C1122 C 0.12982 0.55665 0.72606 0.0
H1123 H 0.16772 0.49848 0.64852 0.0
H1124 H 0.19074 0.54874 0.69797 0.0
S1125 S 0.01483 0.53805 0.72908 0.0
N1126 N 0.03165 0.50949 0.69182 0.0
N1127 N 0.05697 0.5615 0.74686 0.0
C1128 C 0.0871 0.54669 0.72203 0.0
C1129 C 0.07351 0.51795 0.69231 0.0
C1130 C 0.20295 0.39325 0.4715 0.0
C1131 C 0.17522 0.3604 0.47754 0.0
C1132 C 0.23147 0.39385 0.4388 0.0
C1133 C 0.23411 0.36106 0.41194 0.0
H1134 H 0.20374 0.41795 0.49291 0.0
H1135 H 0.25326 0.41892 0.43629 0.0
S1136 S 0.16322 0.27237 0.40867 0.0
N1137 N 0.1478 0.29773 0.44895 0.0
N1138 N 0.20283 0.29846 0.38934 0.0
C1139 C 0.20465 0.32985 0.41569 0.0
C1140 C 0.17502 0.32951 0.44815 0.0
C1141 C 0.53285 0.30971 0.385 0.0
C1142 C 0.49751 0.31264 0.36062 0.0
C1143 C 0.55112 0.27332 0.39497 0.0
C1144 C 0.53645 0.23471 0.38277 0.0
H1145 H 0.54447 0.33643 0.40044 0.0
H1146 H 0.57933 0.27624 0.41325 0.0
S1147 S 0.4209 0.2272 0.28927 0.0
N1148 N 0.45 0.27827 0.3056 0.0
N1149 N 0.45407 0.19177 0.3279 0.0
C1150 C 0.49708 0.23175 0.35925 0.0
C1151 C 0.48535 0.27868 0.33931 0.0
loop_
_geom_bond_atom_site_label_1
_geom_bond_atom_site_label_2
_geom_bond_distance
_geom_bond_site_symmetry_2
_ccdc_geom_bond_type
Mg0 O1 2.028 . S
Mg0 O7 1.986 . S
Mg0 O9 2.114 . S
Mg0 O10 2.251 . S
Mg0 O13 2.010 . S
O1 Mg0 2.028 . S
O1 C4 1.250 . S
O2 Mg3 2.028 . S
O2 C4 1.248 . S
Mg3 O2 2.028 . S
Mg3 O8 2.032 . S
Mg3 O10 2.079 . S
C4 O1 1.250 . S
C4 O2 1.248 . S
C5 O6 1.264 . S
C5 O13 1.249 . S
O6 C5 1.264 . S
O7 Mg0 1.986 . S
O7 C11 1.246 . S
O8 Mg3 2.032 . S
O8 C11 1.259 . S
O9 Mg0 2.114 . S
O9 C12 1.252 . S
O10 Mg0 2.251 . S
O10 Mg3 2.079 . S
O10 C12 1.273 . S
C11 O7 1.246 . S
C11 O8 1.259 . S
C12 O9 1.252 . S
C12 O10 1.273 . S
O13 Mg0 2.010 . S
O13 C5 1.249 . S
Mg14 O15 2.028 . S
Mg14 O21 1.986 . S
Mg14 O23 2.114 . S
Mg14 O24 2.251 . S
Mg14 O27 2.010 . S
O15 Mg14 2.028 . S
O15 C18 1.250 . S
O16 Mg17 2.028 . S
O16 C18 1.248 . S
Mg17 O16 2.028 . S
Mg17 O22 2.032 . S
Mg17 O24 2.079 . S
C18 O15 1.250 . S
C18 O16 1.248 . S
C19 O20 1.264 . S
C19 O27 1.249 . S
O20 C19 1.264 . S
O21 Mg14 1.986 . S
O21 C25 1.246 . S
O22 Mg17 2.032 . S
O22 C25 1.259 . S
O23 Mg14 2.114 . S
O23 C26 1.252 . S
O24 Mg14 2.251 . S
O24 Mg17 2.079 . S
O24 C26 1.273 . S
C25 O21 1.246 . S
C25 O22 1.259 . S
C26 O23 1.252 . S
C26 O24 1.273 . S
O27 Mg14 2.010 . S
O27 C19 1.249 . S
Mg28 O29 2.028 . S
Mg28 O35 1.986 . S
Mg28 O37 2.114 . S
Mg28 O38 2.251 . S
Mg28 O41 2.010 . S
O29 Mg28 2.028 . S
O29 C32 1.250 . S
O30 Mg31 2.028 . S
O30 C32 1.248 . S
Mg31 O30 2.028 . S
Mg31 O36 2.032 . S
Mg31 O38 2.079 . S
C32 O29 1.250 . S
C32 O30 1.248 . S
C33 O34 1.264 . S
C33 O41 1.249 . S
O34 C33 1.264 . S
O35 Mg28 1.986 . S
O35 C39 1.246 . S
O36 Mg31 2.032 . S
O36 C39 1.259 . S
O37 Mg28 2.114 . S
O37 C40 1.252 . S
O38 Mg28 2.251 . S
O38 Mg31 2.079 . S
O38 C40 1.273 . S
C39 O35 1.246 . S
C39 O36 1.259 . S
C40 O37 1.252 . S
C40 O38 1.273 . S
O41 Mg28 2.010 . S
O41 C33 1.249 . S
Mg42 O43 2.028 . S
Mg42 O49 1.986 . S
Mg42 O51 2.114 . S
Mg42 O52 2.251 . S
Mg42 O55 2.010 . S
O43 Mg42 2.028 . S
O43 C46 1.250 . S
O44 Mg45 2.028 . S
O44 C46 1.248 . S
Mg45 O44 2.028 . S
Mg45 O50 2.032 . S
Mg45 O52 2.079 . S
C46 O43 1.250 . S
C46 O44 1.248 . S
C47 O48 1.264 . S
C47 O55 1.249 . S
O48 C47 1.264 . S
O49 Mg42 1.986 . S
O49 C53 1.246 . S
O50 Mg45 2.032 . S
O50 C53 1.259 . S
O51 Mg42 2.114 . S
O51 C54 1.252 . S
O52 Mg42 2.251 . S
O52 Mg45 2.079 . S
O52 C54 1.273 . S
C53 O49 1.246 . S
C53 O50 1.259 . S
C54 O51 1.252 . S
C54 O52 1.273 . S
O55 Mg42 2.010 . S
O55 C47 1.249 . S
Mg56 O57 2.028 . S
Mg56 O63 1.986 . S
Mg56 O65 2.114 . S
Mg56 O66 2.251 . S
Mg56 O69 2.010 . S
O57 Mg56 2.028 . S
O57 C60 1.250 . S
O58 Mg59 2.028 . S
O58 C60 1.248 . S
Mg59 O58 2.028 . S
Mg59 O64 2.032 . S
Mg59 O66 2.079 . S
C60 O57 1.250 . S
C60 O58 1.248 . S
C61 O62 1.264 . S
C61 O69 1.249 . S
O62 C61 1.264 . S
O63 Mg56 1.986 . S
O63 C67 1.246 . S
O64 Mg59 2.032 . S
O64 C67 1.259 . S
O65 Mg56 2.114 . S
O65 C68 1.252 . S
O66 Mg56 2.251 . S
O66 Mg59 2.079 . S
O66 C68 1.273 . S
C67 O63 1.246 . S
C67 O64 1.259 . S
C68 O65 1.252 . S
C68 O66 1.273 . S
O69 Mg56 2.010 . S
O69 C61 1.249 . S
Mg70 O71 2.028 . S
Mg70 O77 1.986 . S
Mg70 O79 2.114 . S
Mg70 O80 2.251 . S
Mg70 O83 2.010 . S
O71 Mg70 2.028 . S
O71 C74 1.250 . S
O72 Mg73 2.028 . S
O72 C74 1.248 . S
Mg73 O72 2.028 . S
Mg73 O78 2.032 . S
Mg73 O80 2.079 . S
C74 O71 1.250 . S
C74 O72 1.248 . S
C75 O76 1.264 . S
C75 O83 1.249 . S
O76 C75 1.264 . S
O77 Mg70 1.986 . S
O77 C81 1.246 . S
O78 Mg73 2.032 . S
O78 C81 1.259 . S
O79 Mg70 2.114 . S
O79 C82 1.252 . S
O80 Mg70 2.251 . S
O80 Mg73 2.079 . S
O80 C82 1.273 . S
C81 O77 1.246 . S
C81 O78 1.259 . S
C82 O79 1.252 . S
C82 O80 1.273 . S
O83 Mg70 2.010 . S
O83 C75 1.249 . S
Mg84 O85 2.028 . S
Mg84 O91 1.986 . S
Mg84 O93 2.114 . S
Mg84 O94 2.251 . S
Mg84 O97 2.010 . S
O85 Mg84 2.028 . S
O85 C88 1.250 . S
O86 Mg87 2.028 . S
O86 C88 1.248 . S
Mg87 O86 2.028 . S
Mg87 O92 2.032 . S
Mg87 O94 2.079 . S
C88 O85 1.250 . S
C88 O86 1.248 . S
C89 O90 1.264 . S
C89 O97 1.249 . S
O90 C89 1.264 . S
O91 Mg84 1.986 . S
O91 C95 1.246 . S
O92 Mg87 2.032 . S
O92 C95 1.259 . S
O93 Mg84 2.114 . S
O93 C96 1.252 . S
O94 Mg84 2.251 . S
O94 Mg87 2.079 . S
O94 C96 1.273 . S
C95 O91 1.246 . S
C95 O92 1.259 . S
C96 O93 1.252 . S
C96 O94 1.273 . S
O97 Mg84 2.010 . S
O97 C89 1.249 . S
Mg98 O99 2.028 . S
Mg98 O105 1.986 . S
Mg98 O107 2.114 . S
Mg98 O108 2.251 . S
Mg98 O111 2.010 . S
O99 Mg98 2.028 . S
O99 C102 1.250 . S
O100 Mg101 2.028 . S
O100 C102 1.248 . S
Mg101 O100 2.028 . S
Mg101 O106 2.032 . S
Mg101 O108 2.079 . S
C102 O99 1.250 . S
C102 O100 1.248 . S
C103 O104 1.264 . S
C103 O111 1.249 . S
O104 C103 1.264 . S
O105 Mg98 1.986 . S
O105 C109 1.246 . S
O106 Mg101 2.032 . S
O106 C109 1.259 . S
O107 Mg98 2.114 . S
O107 C110 1.252 . S
O108 Mg98 2.251 . S
O108 Mg101 2.079 . S
O108 C110 1.273 . S
C109 O105 1.246 . S
C109 O106 1.259 . S
C110 O107 1.252 . S
C110 O108 1.273 . S
O111 Mg98 2.010 . S
O111 C103 1.249 . S
Mg112 O113 2.028 . S
Mg112 O119 1.986 . S
Mg112 O121 2.114 . S
Mg112 O122 2.251 . S
Mg112 O125 2.010 . S
O113 Mg112 2.028 . S
O113 C116 1.250 . S
O114 Mg115 2.028 . S
O114 C116 1.248 . S
Mg115 O114 2.028 . S
Mg115 O120 2.032 . S
Mg115 O122 2.079 . S
C116 O113 1.250 . S
C116 O114 1.248 . S
C117 O118 1.264 . S
C117 O125 1.249 . S
O118 C117 1.264 . S
O119 Mg112 1.986 . S
O119 C123 1.246 . S
O120 Mg115 2.032 . S
O120 C123 1.259 . S
O121 Mg112 2.114 . S
O121 C124 1.252 . S
O122 Mg112 2.251 . S
O122 Mg115 2.079 . S
O122 C124 1.273 . S
C123 O119 1.246 . S
C123 O120 1.259 . S
C124 O121 1.252 . S
C124 O122 1.273 . S
O125 Mg112 2.010 . S
O125 C117 1.249 . S
Mg126 O127 2.028 . S
Mg126 O133 1.986 . S
Mg126 O135 2.114 . S
Mg126 O136 2.251 . S
Mg126 O139 2.010 . S
O127 Mg126 2.028 . S
O127 C130 1.250 . S
O128 Mg129 2.028 . S
O128 C130 1.248 . S
Mg129 O128 2.028 . S
Mg129 O134 2.032 . S
Mg129 O136 2.079 . S
C130 O127 1.250 . S
C130 O128 1.248 . S
C131 O132 1.264 . S
C131 O139 1.249 . S
O132 C131 1.264 . S
O133 Mg126 1.986 . S
O133 C137 1.246 . S
O134 Mg129 2.032 . S
O134 C137 1.259 . S
O135 Mg126 2.114 . S
O135 C138 1.252 . S
O136 Mg126 2.251 . S
O136 Mg129 2.079 . S
O136 C138 1.273 . S
C137 O133 1.246 . S
C137 O134 1.259 . S
C138 O135 1.252 . S
C138 O136 1.273 . S
O139 Mg126 2.010 . S
O139 C131 1.249 . S
Mg140 O141 2.028 . S
Mg140 O147 1.986 . S
Mg140 O149 2.114 . S
Mg140 O150 2.251 . S
Mg140 O153 2.010 . S
O141 Mg140 2.028 . S
O141 C144 1.250 . S
O142 Mg143 2.028 . S
O142 C144 1.248 . S
Mg143 O142 2.028 . S
Mg143 O148 2.032 . S
Mg143 O150 2.079 . S
C144 O141 1.250 . S
C144 O142 1.248 . S
C145 O146 1.264 . S
C145 O153 1.249 . S
O146 C145 1.264 . S
O147 Mg140 1.986 . S
O147 C151 1.246 . S
O148 Mg143 2.032 . S
O148 C151 1.259 . S
O149 Mg140 2.114 . S
O149 C152 1.252 . S
O150 Mg140 2.251 . S
O150 Mg143 2.079 . S
O150 C152 1.273 . S
C151 O147 1.246 . S
C151 O148 1.259 . S
C152 O149 1.252 . S
C152 O150 1.273 . S
O153 Mg140 2.010 . S
O153 C145 1.249 . S
Mg154 O155 2.028 . S
Mg154 O161 1.986 . S
Mg154 O163 2.114 . S
Mg154 O164 2.251 . S
Mg154 O167 2.010 . S
O155 Mg154 2.028 . S
O155 C158 1.250 . S
O156 Mg157 2.028 . S
O156 C158 1.248 . S
Mg157 O156 2.028 . S
Mg157 O162 2.032 . S
Mg157 O164 2.079 . S
C158 O155 1.250 . S
C158 O156 1.248 . S
C159 O160 1.264 . S
C159 O167 1.249 . S
O160 C159 1.264 . S
O161 Mg154 1.986 . S
O161 C165 1.246 . S
O162 Mg157 2.032 . S
O162 C165 1.259 . S
O163 Mg154 2.114 . S
O163 C166 1.252 . S
O164 Mg154 2.251 . S
O164 Mg157 2.079 . S
O164 C166 1.273 . S
C165 O161 1.246 . S
C165 O162 1.259 . S
C166 O163 1.252 . S
C166 O164 1.273 . S
O167 Mg154 2.010 . S
O167 C159 1.249 . S
Mg168 O169 2.028 . S
Mg168 O175 1.986 . S
Mg168 O177 2.114 . S
Mg168 O178 2.251 . S
Mg168 O181 2.010 . S
O169 Mg168 2.028 . S
O169 C172 1.250 . S
O170 Mg171 2.028 . S
O170 C172 1.248 . S
Mg171 O170 2.028 . S
Mg171 O176 2.032 . S
Mg171 O178 2.079 . S
C172 O169 1.250 . S
C172 O170 1.248 . S
C173 O174 1.264 . S
C173 O181 1.249 . S
O174 C173 1.264 . S
O175 Mg168 1.986 . S
O175 C179 1.246 . S
O176 Mg171 2.032 . S
O176 C179 1.259 . S
O177 Mg168 2.114 . S
O177 C180 1.252 . S
O178 Mg168 2.251 . S
O178 Mg171 2.079 . S
O178 C180 1.273 . S
C179 O175 1.246 . S
C179 O176 1.259 . S
C180 O177 1.252 . S
C180 O178 1.273 . S
O181 Mg168 2.010 . S
O181 C173 1.249 . S
Mg182 O183 2.028 . S
Mg182 O189 1.986 . S
Mg182 O191 2.114 . S
Mg182 O192 2.251 . S
Mg182 O195 2.010 . S
O183 Mg182 2.028 . S
O183 C186 1.250 . S
O184 Mg185 2.028 . S
O184 C186 1.248 . S
Mg185 O184 2.028 . S
Mg185 O190 2.032 . S
Mg185 O192 2.079 . S
C186 O183 1.250 . S
C186 O184 1.248 . S
C187 O188 1.264 . S
C187 O195 1.249 . S
O188 C187 1.264 . S
O189 Mg182 1.986 . S
O189 C193 1.246 . S
O190 Mg185 2.032 . S
O190 C193 1.259 . S
O191 Mg182 2.114 . S
O191 C194 1.252 . S
O192 Mg182 2.251 . S
O192 Mg185 2.079 . S
O192 C194 1.273 . S
C193 O189 1.246 . S
C193 O190 1.259 . S
C194 O191 1.252 . S
C194 O192 1.273 . S
O195 Mg182 2.010 . S
O195 C187 1.249 . S
Mg196 O197 2.028 . S
Mg196 O203 1.986 . S
Mg196 O205 2.114 . S
Mg196 O206 2.251 . S
Mg196 O209 2.010 . S
O197 Mg196 2.028 . S
O197 C200 1.250 . S
O198 Mg199 2.028 . S
O198 C200 1.248 . S
Mg199 O198 2.028 . S
Mg199 O204 2.032 . S
Mg199 O206 2.079 . S
C200 O197 1.250 . S
C200 O198 1.248 . S
C201 O202 1.264 . S
C201 O209 1.249 . S
O202 C201 1.264 . S
O203 Mg196 1.986 . S
O203 C207 1.246 . S
O204 Mg199 2.032 . S
O204 C207 1.259 . S
O205 Mg196 2.114 . S
O205 C208 1.252 . S
O206 Mg196 2.251 . S
O206 Mg199 2.079 . S
O206 C208 1.273 . S
C207 O203 1.246 . S
C207 O204 1.259 . S
C208 O205 1.252 . S
C208 O206 1.273 . S
O209 Mg196 2.010 . S
O209 C201 1.249 . S
Mg210 O211 2.028 . S
Mg210 O217 1.986 . S
Mg210 O219 2.114 . S
Mg210 O220 2.251 . S
Mg210 O223 2.010 . S
O211 Mg210 2.028 . S
O211 C214 1.250 . S
O212 Mg213 2.028 . S
O212 C214 1.248 . S
Mg213 O212 2.028 . S
Mg213 O218 2.032 . S
Mg213 O220 2.079 . S
C214 O211 1.250 . S
C214 O212 1.248 . S
C215 O216 1.264 . S
C215 O223 1.249 . S
O216 C215 1.264 . S
O217 Mg210 1.986 . S
O217 C221 1.246 . S
O218 Mg213 2.032 . S
O218 C221 1.259 . S
O219 Mg210 2.114 . S
O219 C222 1.252 . S
O220 Mg210 2.251 . S
O220 Mg213 2.079 . S
O220 C222 1.273 . S
C221 O217 1.246 . S
C221 O218 1.259 . S
C222 O219 1.252 . S
C222 O220 1.273 . S
O223 Mg210 2.010 . S
O223 C215 1.249 . S
Mg224 O225 2.028 . S
Mg224 O231 1.986 . S
Mg224 O233 2.114 . S
Mg224 O234 2.251 . S
Mg224 O237 2.010 . S
O225 Mg224 2.028 . S
O225 C228 1.250 . S
O226 Mg227 2.028 . S
O226 C228 1.248 . S
Mg227 O226 2.028 . S
Mg227 O232 2.032 . S
Mg227 O234 2.079 . S
C228 O225 1.250 . S
C228 O226 1.248 . S
C229 O230 1.264 . S
C229 O237 1.249 . S
O230 C229 1.264 . S
O231 Mg224 1.986 . S
O231 C235 1.246 . S
O232 Mg227 2.032 . S
O232 C235 1.259 . S
O233 Mg224 2.114 . S
O233 C236 1.252 . S
O234 Mg224 2.251 . S
O234 Mg227 2.079 . S
O234 C236 1.273 . S
C235 O231 1.246 . S
C235 O232 1.259 . S
C236 O233 1.252 . S
C236 O234 1.273 . S
O237 Mg224 2.010 . S
O237 C229 1.249 . S
Mg238 O239 2.028 . S
Mg238 O245 1.986 . S
Mg238 O247 2.114 . S
Mg238 O248 2.251 . S
Mg238 O251 2.010 . S
O239 Mg238 2.028 . S
O239 C242 1.250 . S
O240 Mg241 2.028 . S
O240 C242 1.248 . S
Mg241 O240 2.028 . S
Mg241 O246 2.032 . S
Mg241 O248 2.079 . S
C242 O239 1.250 . S
C242 O240 1.248 . S
C243 O244 1.264 . S
C243 O251 1.249 . S
O244 C243 1.264 . S
O245 Mg238 1.986 . S
O245 C249 1.246 . S
O246 Mg241 2.032 . S
O246 C249 1.259 . S
O247 Mg238 2.114 . S
O247 C250 1.252 . S
O248 Mg238 2.251 . S
O248 Mg241 2.079 . S
O248 C250 1.273 . S
C249 O245 1.246 . S
C249 O246 1.259 . S
C250 O247 1.252 . S
C250 O248 1.273 . S
O251 Mg238 2.010 . S
O251 C243 1.249 . S
Mg252 O253 2.028 . S
Mg252 O259 1.986 . S
Mg252 O261 2.114 . S
Mg252 O262 2.251 . S
Mg252 O265 2.010 . S
O253 Mg252 2.028 . S
O253 C256 1.250 . S
O254 Mg255 2.028 . S
O254 C256 1.248 . S
Mg255 O254 2.028 . S
Mg255 O260 2.032 . S
Mg255 O262 2.079 . S
C256 O253 1.250 . S
C256 O254 1.248 . S
C257 O258 1.264 . S
C257 O265 1.249 . S
O258 C257 1.264 . S
O259 Mg252 1.986 . S
O259 C263 1.246 . S
O260 Mg255 2.032 . S
O260 C263 1.259 . S
O261 Mg252 2.114 . S
O261 C264 1.252 . S
O262 Mg252 2.251 . S
O262 Mg255 2.079 . S
O262 C264 1.273 . S
C263 O259 1.246 . S
C263 O260 1.259 . S
C264 O261 1.252 . S
C264 O262 1.273 . S
O265 Mg252 2.010 . S
O265 C257 1.249 . S
Mg266 O267 2.028 . S
Mg266 O273 1.986 . S
Mg266 O275 2.114 . S
Mg266 O276 2.251 . S
Mg266 O279 2.010 . S
O267 Mg266 2.028 . S
O267 C270 1.250 . S
O268 Mg269 2.028 . S
O268 C270 1.248 . S
Mg269 O268 2.028 . S
Mg269 O274 2.032 . S
Mg269 O276 2.079 . S
C270 O267 1.250 . S
C270 O268 1.248 . S
C271 O272 1.264 . S
C271 O279 1.249 . S
O272 C271 1.264 . S
O273 Mg266 1.986 . S
O273 C277 1.246 . S
O274 Mg269 2.032 . S
O274 C277 1.259 . S
O275 Mg266 2.114 . S
O275 C278 1.252 . S
O276 Mg266 2.251 . S
O276 Mg269 2.079 . S
O276 C278 1.273 . S
C277 O273 1.246 . S
C277 O274 1.259 . S
C278 O275 1.252 . S
C278 O276 1.273 . S
O279 Mg266 2.010 . S
O279 C271 1.249 . S
Mg280 O281 2.028 . S
Mg280 O287 1.986 . S
Mg280 O289 2.114 . S
Mg280 O290 2.251 . S
Mg280 O293 2.010 . S
O281 Mg280 2.028 . S
O281 C284 1.250 . S
O282 Mg283 2.028 . S
O282 C284 1.248 . S
Mg283 O282 2.028 . S
Mg283 O288 2.032 . S
Mg283 O290 2.079 . S
C284 O281 1.250 . S
C284 O282 1.248 . S
C285 O286 1.264 . S
C285 O293 1.249 . S
O286 C285 1.264 . S
O287 Mg280 1.986 . S
O287 C291 1.246 . S
O288 Mg283 2.032 . S
O288 C291 1.259 . S
O289 Mg280 2.114 . S
O289 C292 1.252 . S
O290 Mg280 2.251 . S
O290 Mg283 2.079 . S
O290 C292 1.273 . S
C291 O287 1.246 . S
C291 O288 1.259 . S
C292 O289 1.252 . S
C292 O290 1.273 . S
O293 Mg280 2.010 . S
O293 C285 1.249 . S
Mg294 O295 2.028 . S
Mg294 O301 1.986 . S
Mg294 O303 2.114 . S
Mg294 O304 2.251 . S
Mg294 O307 2.010 . S
O295 Mg294 2.028 . S
O295 C298 1.250 . S
O296 Mg297 2.028 . S
O296 C298 1.248 . S
Mg297 O296 2.028 . S
Mg297 O302 2.032 . S
Mg297 O304 2.079 . S
C298 O295 1.250 . S
C298 O296 1.248 . S
C299 O300 1.264 . S
C299 O307 1.249 . S
O300 C299 1.264 . S
O301 Mg294 1.986 . S
O301 C305 1.246 . S
O302 Mg297 2.032 . S
O302 C305 1.259 . S
O303 Mg294 2.114 . S
O303 C306 1.252 . S
O304 Mg294 2.251 . S
O304 Mg297 2.079 . S
O304 C306 1.273 . S
C305 O301 1.246 . S
C305 O302 1.259 . S
C306 O303 1.252 . S
C306 O304 1.273 . S
O307 Mg294 2.010 . S
O307 C299 1.249 . S
Mg308 O309 2.028 . S
Mg308 O315 1.986 . S
Mg308 O317 2.114 . S
Mg308 O318 2.251 . S
Mg308 O321 2.010 . S
O309 Mg308 2.028 . S
O309 C312 1.250 . S
O310 Mg311 2.028 . S
O310 C312 1.248 . S
Mg311 O310 2.028 . S
Mg311 O316 2.032 . S
Mg311 O318 2.079 . S
C312 O309 1.250 . S
C312 O310 1.248 . S
C313 O314 1.264 . S
C313 O321 1.249 . S
O314 C313 1.264 . S
O315 Mg308 1.986 . S
O315 C319 1.246 . S
O316 Mg311 2.032 . S
O316 C319 1.259 . S
O317 Mg308 2.114 . S
O317 C320 1.252 . S
O318 Mg308 2.251 . S
O318 Mg311 2.079 . S
O318 C320 1.273 . S
C319 O315 1.246 . S
C319 O316 1.259 . S
C320 O317 1.252 . S
C320 O318 1.273 . S
O321 Mg308 2.010 . S
O321 C313 1.249 . S
Mg322 O323 2.028 . S
Mg322 O329 1.986 . S
Mg322 O331 2.114 . S
Mg322 O332 2.251 . S
Mg322 O335 2.010 . S
O323 Mg322 2.028 . S
O323 C326 1.250 . S
O324 Mg325 2.028 . S
O324 C326 1.248 . S
Mg325 O324 2.028 . S
Mg325 O330 2.032 . S
Mg325 O332 2.079 . S
C326 O323 1.250 . S
C326 O324 1.248 . S
C327 O328 1.264 . S
C327 O335 1.249 . S
O328 C327 1.264 . S
O329 Mg322 1.986 . S
O329 C333 1.246 . S
O330 Mg325 2.032 . S
O330 C333 1.259 . S
O331 Mg322 2.114 . S
O331 C334 1.252 . S
O332 Mg322 2.251 . S
O332 Mg325 2.079 . S
O332 C334 1.273 . S
C333 O329 1.246 . S
C333 O330 1.259 . S
C334 O331 1.252 . S
C334 O332 1.273 . S
O335 Mg322 2.010 . S
O335 C327 1.249 . S
Mg336 O337 2.028 . S
Mg336 O343 1.986 . S
Mg336 O345 2.114 . S
Mg336 O346 2.251 . S
Mg336 O349 2.010 . S
O337 Mg336 2.028 . S
O337 C340 1.250 . S
O338 Mg339 2.028 . S
O338 C340 1.248 . S
Mg339 O338 2.028 . S
Mg339 O344 2.032 . S
Mg339 O346 2.079 . S
C340 O337 1.250 . S
C340 O338 1.248 . S
C341 O342 1.264 . S
C341 O349 1.249 . S
O342 C341 1.264 . S
O343 Mg336 1.986 . S
O343 C347 1.246 . S
O344 Mg339 2.032 . S
O344 C347 1.259 . S
O345 Mg336 2.114 . S
O345 C348 1.252 . S
O346 Mg336 2.251 . S
O346 Mg339 2.079 . S
O346 C348 1.273 . S
C347 O343 1.246 . S
C347 O344 1.259 . S
C348 O345 1.252 . S
C348 O346 1.273 . S
O349 Mg336 2.010 . S
O349 C341 1.249 . S
Mg350 O351 2.028 . S
Mg350 O357 1.986 . S
Mg350 O359 2.114 . S
Mg350 O360 2.251 . S
Mg350 O363 2.010 . S
O351 Mg350 2.028 . S
O351 C354 1.250 . S
O352 Mg353 2.028 . S
O352 C354 1.248 . S
Mg353 O352 2.028 . S
Mg353 O358 2.032 . S
Mg353 O360 2.079 . S
C354 O351 1.250 . S
C354 O352 1.248 . S
C355 O356 1.264 . S
C355 O363 1.249 . S
O356 C355 1.264 . S
O357 Mg350 1.986 . S
O357 C361 1.246 . S
O358 Mg353 2.032 . S
O358 C361 1.259 . S
O359 Mg350 2.114 . S
O359 C362 1.252 . S
O360 Mg350 2.251 . S
O360 Mg353 2.079 . S
O360 C362 1.273 . S
C361 O357 1.246 . S
C361 O358 1.259 . S
C362 O359 1.252 . S
C362 O360 1.273 . S
O363 Mg350 2.010 . S
O363 C355 1.249 . S
Mg364 O365 2.028 . S
Mg364 O371 1.986 . S
Mg364 O373 2.114 . S
Mg364 O374 2.251 . S
Mg364 O377 2.010 . S
O365 Mg364 2.028 . S
O365 C368 1.250 . S
O366 Mg367 2.028 . S
O366 C368 1.248 . S
Mg367 O366 2.028 . S
Mg367 O372 2.032 . S
Mg367 O374 2.079 . S
C368 O365 1.250 . S
C368 O366 1.248 . S
C369 O370 1.264 . S
C369 O377 1.249 . S
O370 C369 1.264 . S
O371 Mg364 1.986 . S
O371 C375 1.246 . S
O372 Mg367 2.032 . S
O372 C375 1.259 . S
O373 Mg364 2.114 . S
O373 C376 1.252 . S
O374 Mg364 2.251 . S
O374 Mg367 2.079 . S
O374 C376 1.273 . S
C375 O371 1.246 . S
C375 O372 1.259 . S
C376 O373 1.252 . S
C376 O374 1.273 . S
O377 Mg364 2.010 . S
O377 C369 1.249 . S
Mg378 O379 2.028 . S
Mg378 O385 1.986 . S
Mg378 O387 2.114 . S
Mg378 O388 2.251 . S
Mg378 O391 2.010 . S
O379 Mg378 2.028 . S
O379 C382 1.250 . S
O380 Mg381 2.028 . S
O380 C382 1.248 . S
Mg381 O380 2.028 . S
Mg381 O386 2.032 . S
Mg381 O388 2.079 . S
C382 O379 1.250 . S
C382 O380 1.248 . S
C383 O384 1.264 . S
C383 O391 1.249 . S
O384 C383 1.264 . S
O385 Mg378 1.986 . S
O385 C389 1.246 . S
O386 Mg381 2.032 . S
O386 C389 1.259 . S
O387 Mg378 2.114 . S
O387 C390 1.252 . S
O388 Mg378 2.251 . S
O388 Mg381 2.079 . S
O388 C390 1.273 . S
C389 O385 1.246 . S
C389 O386 1.259 . S
C390 O387 1.252 . S
C390 O388 1.273 . S
O391 Mg378 2.010 . S
O391 C383 1.249 . S
Mg392 O393 2.028 . S
Mg392 O399 1.986 . S
Mg392 O401 2.114 . S
Mg392 O402 2.251 . S
Mg392 O405 2.010 . S
O393 Mg392 2.028 . S
O393 C396 1.250 . S
O394 Mg395 2.028 . S
O394 C396 1.248 . S
Mg395 O394 2.028 . S
Mg395 O400 2.032 . S
Mg395 O402 2.079 . S
C396 O393 1.250 . S
C396 O394 1.248 . S
C397 O398 1.264 . S
C397 O405 1.249 . S
O398 C397 1.264 . S
O399 Mg392 1.986 . S
O399 C403 1.246 . S
O400 Mg395 2.032 . S
O400 C403 1.259 . S
O401 Mg392 2.114 . S
O401 C404 1.252 . S
O402 Mg392 2.251 . S
O402 Mg395 2.079 . S
O402 C404 1.273 . S
C403 O399 1.246 . S
C403 O400 1.259 . S
C404 O401 1.252 . S
C404 O402 1.273 . S
O405 Mg392 2.010 . S
O405 C397 1.249 . S
Mg406 O407 2.028 . S
Mg406 O413 1.986 . S
Mg406 O415 2.114 . S
Mg406 O416 2.251 . S
Mg406 O419 2.010 . S
O407 Mg406 2.028 . S
O407 C410 1.250 . S
O408 Mg409 2.028 . S
O408 C410 1.248 . S
Mg409 O408 2.028 . S
Mg409 O414 2.032 . S
Mg409 O416 2.079 . S
C410 O407 1.250 . S
C410 O408 1.248 . S
C411 O412 1.264 . S
C411 O419 1.249 . S
O412 C411 1.264 . S
O413 Mg406 1.986 . S
O413 C417 1.246 . S
O414 Mg409 2.032 . S
O414 C417 1.259 . S
O415 Mg406 2.114 . S
O415 C418 1.252 . S
O416 Mg406 2.251 . S
O416 Mg409 2.079 . S
O416 C418 1.273 . S
C417 O413 1.246 . S
C417 O414 1.259 . S
C418 O415 1.252 . S
C418 O416 1.273 . S
O419 Mg406 2.010 . S
O419 C411 1.249 . S
Mg420 O421 2.028 . S
Mg420 O427 1.986 . S
Mg420 O429 2.114 . S
Mg420 O430 2.251 . S
Mg420 O433 2.010 . S
O421 Mg420 2.028 . S
O421 C424 1.250 . S
O422 Mg423 2.028 . S
O422 C424 1.248 . S
Mg423 O422 2.028 . S
Mg423 O428 2.032 . S
Mg423 O430 2.079 . S
C424 O421 1.250 . S
C424 O422 1.248 . S
C425 O426 1.264 . S
C425 O433 1.249 . S
O426 C425 1.264 . S
O427 Mg420 1.986 . S
O427 C431 1.246 . S
O428 Mg423 2.032 . S
O428 C431 1.259 . S
O429 Mg420 2.114 . S
O429 C432 1.252 . S
O430 Mg420 2.251 . S
O430 Mg423 2.079 . S
O430 C432 1.273 . S
C431 O427 1.246 . S
C431 O428 1.259 . S
C432 O429 1.252 . S
C432 O430 1.273 . S
O433 Mg420 2.010 . S
O433 C425 1.249 . S
Mg434 O435 2.028 . S
Mg434 O441 1.986 . S
Mg434 O443 2.114 . S
Mg434 O444 2.251 . S
Mg434 O447 2.010 . S
O435 Mg434 2.028 . S
O435 C438 1.250 . S
O436 Mg437 2.028 . S
O436 C438 1.248 . S
Mg437 O436 2.028 . S
Mg437 O442 2.032 . S
Mg437 O444 2.079 . S
C438 O435 1.250 . S
C438 O436 1.248 . S
C439 O440 1.264 . S
C439 O447 1.249 . S
O440 C439 1.264 . S
O441 Mg434 1.986 . S
O441 C445 1.246 . S
O442 Mg437 2.032 . S
O442 C445 1.259 . S
O443 Mg434 2.114 . S
O443 C446 1.252 . S
O444 Mg434 2.251 . S
O444 Mg437 2.079 . S
O444 C446 1.273 . S
C445 O441 1.246 . S
C445 O442 1.259 . S
C446 O443 1.252 . S
C446 O444 1.273 . S
O447 Mg434 2.010 . S
O447 C439 1.249 . S
C448 C449 1.377 . S
C448 C450 1.411 1_454 S
C448 H452 0.929 1_455 S
C449 C448 1.377 . S
C449 C458 1.429 1_545 S
C450 C448 1.411 1_656 S
C450 C451 1.363 1_545 S
C450 H453 0.929 . S
C451 C450 1.363 1_565 S
C451 C457 1.419 1_656 S
H452 C448 0.929 1_655 S
H453 C450 0.929 . S
S454 N455 1.613 . S
S454 N456 1.610 . S
N455 S454 1.613 . S
N455 C458 1.350 . S
N456 S454 1.610 . S
N456 C457 1.352 . S
C457 C451 1.419 1_454 S
C457 N456 1.352 . S
C457 C458 1.443 . S
C458 C449 1.429 1_565 S
C458 N455 1.350 . S
C458 C457 1.443 . S
C459 C460 1.369 . S
C459 C461 1.419 . S
C459 H463 0.930 . S
C460 C459 1.369 . S
C460 C469 1.429 . S
C461 C459 1.419 . S
C461 C462 1.363 . S
C461 H464 0.929 . S
C462 C461 1.363 . S
C462 C468 1.428 . S
H463 C459 0.930 . S
H464 C461 0.929 . S
S465 N466 1.613 . S
S465 N467 1.610 . S
N466 S465 1.613 . S
N466 C469 1.350 . S
N467 S465 1.610 . S
N467 C468 1.351 . S
C468 C462 1.428 . S
C468 N467 1.351 . S
C468 C469 1.434 . S
C469 C460 1.429 . S
C469 N466 1.350 . S
C469 C468 1.434 . S
C470 C471 1.369 . S
C470 C472 1.419 . S
C470 H474 0.930 . S
C471 C470 1.369 . S
C471 C480 1.429 1_565 S
C472 C470 1.419 . S
C472 C473 1.363 1_565 S
C472 H475 0.929 . S
C473 C472 1.363 1_545 S
C473 C479 1.428 . S
H474 C470 0.930 . S
H475 C472 0.929 . S
S476 N477 1.613 . S
S476 N478 1.610 . S
N477 S476 1.613 . S
N477 C480 1.350 . S
N478 S476 1.610 . S
N478 C479 1.351 . S
C479 C473 1.428 . S
C479 N478 1.351 . S
C479 C480 1.434 . S
C480 C471 1.429 1_545 S
C480 N477 1.350 . S
C480 C479 1.434 . S
C481 C482 1.369 . S
C481 C483 1.419 . S
C481 H485 0.930 . S
C482 C481 1.369 . S
C482 C491 1.429 . S
C483 C481 1.419 . S
C483 C484 1.363 . S
C483 H486 0.929 . S
C484 C483 1.363 . S
C484 C490 1.428 . S
H485 C481 0.930 . S
H486 C483 0.929 . S
S487 N488 1.613 . S
S487 N489 1.610 . S
N488 S487 1.613 . S
N488 C491 1.350 . S
N489 S487 1.610 . S
N489 C490 1.351 . S
C490 C484 1.428 . S
C490 N489 1.351 . S
C490 C491 1.434 . S
C491 C482 1.429 . S
C491 N488 1.350 . S
C491 C490 1.434 . S
C492 C493 1.369 1_655 S
C492 C494 1.419 . S
C492 H496 0.930 . S
C493 C492 1.369 1_455 S
C493 C502 1.429 1_565 S
C494 C492 1.419 . S
C494 C495 1.363 1_565 S
C494 H497 0.929 . S
C495 C494 1.363 1_545 S
C495 C501 1.428 1_655 S
H496 C492 0.930 . S
H497 C494 0.929 . S
S498 N499 1.613 . S
S498 N500 1.610 . S
N499 S498 1.613 . S
N499 C502 1.350 . S
N500 S498 1.610 . S
N500 C501 1.351 . S
C501 C495 1.428 1_455 S
C501 N500 1.351 . S
C501 C502 1.434 . S
C502 C493 1.429 1_545 S
C502 N499 1.350 . S
C502 C501 1.434 . S
C503 C504 1.369 . S
C503 C505 1.419 . S
C503 H507 0.930 . S
C504 C503 1.369 . S
C504 C513 1.429 . S
C505 C503 1.419 . S
C505 C506 1.363 . S
C505 H508 0.929 . S
C506 C505 1.363 . S
C506 C512 1.428 . S
H507 C503 0.930 . S
H508 C505 0.929 . S
S509 N510 1.613 . S
S509 N511 1.610 . S
N510 S509 1.613 . S
N510 C513 1.350 . S
N511 S509 1.610 . S
N511 C512 1.351 . S
C512 C506 1.428 . S
C512 N511 1.351 . S
C512 C513 1.434 . S
C513 C504 1.429 . S
C513 N510 1.350 . S
C513 C512 1.434 . S
C514 C515 1.369 1_565 S
C514 C516 1.419 . S
C514 H518 0.930 . S
C515 C514 1.369 1_545 S
C515 C524 1.429 1_556 S
C516 C514 1.419 . S
C516 C517 1.363 1_556 S
C516 H519 0.929 . S
C517 C516 1.363 1_554 S
C517 C523 1.428 1_565 S
H518 C514 0.930 . S
H519 C516 0.929 . S
S520 N521 1.613 . S
S520 N522 1.610 . S
N521 S520 1.613 . S
N521 C524 1.350 . S
N522 S520 1.610 . S
N522 C523 1.351 . S
C523 C517 1.428 1_545 S
C523 N522 1.351 . S
C523 C524 1.434 . S
C524 C515 1.429 1_554 S
C524 N521 1.350 . S
C524 C523 1.434 . S
C525 C526 1.369 . S
C525 C527 1.419 . S
C525 H529 0.930 . S
C526 C525 1.369 . S
C526 C535 1.429 . S
C527 C525 1.419 . S
C527 C528 1.363 . S
C527 H530 0.929 . S
C528 C527 1.363 . S
C528 C534 1.428 . S
H529 C525 0.930 . S
H530 C527 0.929 . S
S531 N532 1.613 . S
S531 N533 1.610 . S
N532 S531 1.613 . S
N532 C535 1.350 . S
N533 S531 1.610 . S
N533 C534 1.351 . S
C534 C528 1.428 . S
C534 N533 1.351 . S
C534 C535 1.434 . S
C535 C526 1.429 . S
C535 N532 1.350 . S
C535 C534 1.434 . S
C536 C537 1.384 . S
C536 C538 1.403 1_554 S
C536 H540 0.931 . S
C537 C536 1.384 . S
C537 C546 1.429 . S
C538 C536 1.403 1_556 S
C538 C539 1.363 . S
C538 H541 0.929 . S
C539 C538 1.363 . S
C539 C545 1.428 . S
H540 C536 0.931 . S
H541 C538 0.929 . S
S542 N543 1.613 . S
S542 N544 1.610 1_554 S
N543 S542 1.613 . S
N543 C546 1.350 . S
N544 S542 1.610 1_556 S
N544 C545 1.351 . S
C545 C539 1.428 . S
C545 N544 1.351 . S
C545 C546 1.434 1_556 S
C546 C537 1.429 . S
C546 N543 1.350 . S
C546 C545 1.434 1_554 S
C547 C548 1.369 . S
C547 C549 1.419 . S
C547 H551 0.930 . S
C548 C547 1.369 . S
C548 C557 1.429 . S
C549 C547 1.419 . S
C549 C550 1.363 . S
C549 H552 0.929 . S
C550 C549 1.363 . S
C550 C556 1.428 . S
H551 C547 0.930 . S
H552 C549 0.929 . S
S553 N554 1.613 . S
S553 N555 1.610 . S
N554 S553 1.613 . S
N554 C557 1.350 . S
N555 S553 1.610 . S
N555 C556 1.351 . S
C556 C550 1.428 . S
C556 N555 1.351 . S
C556 C557 1.434 . S
C557 C548 1.429 . S
C557 N554 1.350 . S
C557 C556 1.434 . S
C558 C559 1.369 1_655 S
C558 C560 1.419 . S
C558 H562 0.930 . S
C559 C558 1.369 1_455 S
C559 C568 1.429 . S
C560 C558 1.419 . S
C560 C561 1.363 . S
C560 H563 0.929 . S
C561 C560 1.363 . S
C561 C567 1.428 1_655 S
H562 C558 0.930 . S
H563 C560 0.929 . S
S564 N565 1.613 . S
S564 N566 1.610 . S
N565 S564 1.613 . S
N565 C568 1.350 . S
N566 S564 1.610 . S
N566 C567 1.351 . S
C567 C561 1.428 1_455 S
C567 N566 1.351 . S
C567 C568 1.434 . S
C568 C559 1.429 . S
C568 N565 1.350 . S
C568 C567 1.434 . S
C569 C570 1.369 . S
C569 C571 1.419 . S
C569 H573 0.930 . S
C570 C569 1.369 . S
C570 C579 1.429 . S
C571 C569 1.419 . S
C571 C572 1.363 . S
C571 H574 0.929 . S
C572 C571 1.363 . S
C572 C578 1.428 . S
H573 C569 0.930 . S
H574 C571 0.929 . S
S575 N576 1.613 . S
S575 N577 1.610 . S
N576 S575 1.613 . S
N576 C579 1.350 . S
N577 S575 1.610 . S
N577 C578 1.351 . S
C578 C572 1.428 . S
C578 N577 1.351 . S
C578 C579 1.434 . S
C579 C570 1.429 . S
C579 N576 1.350 . S
C579 C578 1.434 . S
C580 C581 1.369 . S
C580 C582 1.419 . S
C580 H584 0.930 . S
C581 C580 1.369 . S
C581 C590 1.429 . S
C582 C580 1.419 . S
C582 C583 1.363 . S
C582 H585 0.929 . S
C583 C582 1.363 . S
C583 C589 1.428 . S
H584 C580 0.930 . S
H585 C582 0.929 . S
S586 N587 1.613 . S
S586 N588 1.610 . S
N587 S586 1.613 . S
N587 C590 1.350 . S
N588 S586 1.610 . S
N588 C589 1.351 . S
C589 C583 1.428 . S
C589 N588 1.351 . S
C589 C590 1.434 . S
C590 C581 1.429 . S
C590 N587 1.350 . S
C590 C589 1.434 . S
C591 C592 1.369 . S
C591 C593 1.419 . S
C591 H595 0.930 . S
C592 C591 1.369 . S
C592 C601 1.429 . S
C593 C591 1.419 . S
C593 C594 1.363 . S
C593 H596 0.929 . S
C594 C593 1.363 . S
C594 C600 1.428 . S
H595 C591 0.930 . S
H596 C593 0.929 . S
S597 N598 1.613 . S
S597 N599 1.610 . S
N598 S597 1.613 . S
N598 C601 1.350 . S
N599 S597 1.610 . S
N599 C600 1.351 . S
C600 C594 1.428 . S
C600 N599 1.351 . S
C600 C601 1.434 . S
C601 C592 1.429 . S
C601 N598 1.350 . S
C601 C600 1.434 . S
C602 C603 1.369 . S
C602 C604 1.419 . S
C602 H606 0.930 . S
C603 C602 1.369 . S
C603 C612 1.429 . S
C604 C602 1.419 . S
C604 C605 1.363 . S
C604 H607 0.929 . S
C605 C604 1.363 . S
C605 C611 1.428 . S
H606 C602 0.930 . S
H607 C604 0.929 . S
S608 N609 1.613 . S
S608 N610 1.610 . S
N609 S608 1.613 . S
N609 C612 1.350 . S
N610 S608 1.610 . S
N610 C611 1.351 . S
C611 C605 1.428 . S
C611 N610 1.351 . S
C611 C612 1.434 . S
C612 C603 1.429 . S
C612 N609 1.350 . S
C612 C611 1.434 . S
C613 C614 1.369 . S
C613 C615 1.419 1_556 S
C613 H617 0.930 . S
C614 C613 1.369 . S
C614 C623 1.429 1_455 S
C615 C613 1.419 1_554 S
C615 C616 1.363 1_455 S
C615 H618 0.929 . S
C616 C615 1.363 1_655 S
C616 C622 1.428 . S
H617 C613 0.930 . S
H618 C615 0.929 . S
S619 N620 1.613 . S
S619 N621 1.610 1_556 S
N620 S619 1.613 . S
N620 C623 1.350 . S
N621 S619 1.610 1_554 S
N621 C622 1.351 . S
C622 C616 1.428 . S
C622 N621 1.351 . S
C622 C623 1.434 1_554 S
C623 C614 1.429 1_655 S
C623 N620 1.350 . S
C623 C622 1.434 1_556 S
C624 C625 1.369 1_565 S
C624 C626 1.419 . S
C624 H628 0.930 . S
C625 C624 1.369 1_545 S
C625 C634 1.429 . S
C626 C624 1.419 . S
C626 C627 1.363 . S
C626 H629 0.929 . S
C627 C626 1.363 . S
C627 C633 1.428 . S
H628 C624 0.930 . S
H629 C626 0.929 . S
S630 N631 1.613 . S
S630 N632 1.610 1_545 S
N631 S630 1.613 . S
N631 C634 1.350 . S
N632 S630 1.610 1_565 S
N632 C633 1.351 . S
C633 C627 1.428 . S
C633 N632 1.351 . S
C633 C634 1.434 1_565 S
C634 C625 1.429 . S
C634 N631 1.350 . S
C634 C633 1.434 1_545 S
C635 C636 1.369 . S
C635 C637 1.419 . S
C635 H639 0.930 . S
C636 C635 1.369 . S
C636 C645 1.429 . S
C637 C635 1.419 . S
C637 C638 1.363 . S
C637 H640 0.929 . S
C638 C637 1.363 . S
C638 C644 1.428 . S
H639 C635 0.930 . S
H640 C637 0.929 . S
S641 N642 1.613 . S
S641 N643 1.610 . S
N642 S641 1.613 . S
N642 C645 1.350 . S
N643 S641 1.610 . S
N643 C644 1.351 . S
C644 C638 1.428 . S
C644 N643 1.351 . S
C644 C645 1.434 . S
C645 C636 1.429 . S
C645 N642 1.350 . S
C645 C644 1.434 . S
C646 C647 1.369 . S
C646 C648 1.419 . S
C646 H650 0.930 . S
C647 C646 1.369 . S
C647 C656 1.429 . S
C648 C646 1.419 . S
C648 C649 1.363 1_545 S
C648 H651 0.929 . S
C649 C648 1.363 1_565 S
C649 C655 1.428 . S
H650 C646 0.930 . S
H651 C648 0.929 . S
S652 N653 1.613 1_565 S
S652 N654 1.610 . S
N653 S652 1.613 1_545 S
N653 C656 1.350 . S
N654 S652 1.610 . S
N654 C655 1.351 . S
C655 C649 1.428 . S
C655 N654 1.351 . S
C655 C656 1.434 1_565 S
C656 C647 1.429 . S
C656 N653 1.350 . S
C656 C655 1.434 1_545 S
C657 C658 1.369 . S
C657 C659 1.419 . S
C657 H661 0.930 . S
C658 C657 1.369 . S
C658 C667 1.429 . S
C659 C657 1.419 . S
C659 C660 1.363 1_556 S
C659 H662 0.929 1_556 S
C660 C659 1.363 1_554 S
C660 C666 1.428 1_554 S
H661 C657 0.930 . S
H662 C659 0.929 1_554 S
S663 N664 1.613 . S
S663 N665 1.610 . S
N664 S663 1.613 . S
N664 C667 1.350 . S
N665 S663 1.610 . S
N665 C666 1.351 . S
C666 C660 1.428 1_556 S
C666 N665 1.351 . S
C666 C667 1.434 . S
C667 C658 1.429 . S
C667 N664 1.350 . S
C667 C666 1.434 . S
C668 C669 1.369 . S
C668 C670 1.419 . S
C668 H672 0.930 . S
C669 C668 1.369 . S
C669 C678 1.429 . S
C670 C668 1.419 . S
C670 C671 1.363 1_545 S
C670 H673 0.929 . S
C671 C670 1.363 1_565 S
C671 C677 1.428 1_565 S
H672 C668 0.930 . S
H673 C670 0.929 . S
S674 N675 1.613 . S
S674 N676 1.610 1_545 S
N675 S674 1.613 . S
N675 C678 1.350 . S
N676 S674 1.610 1_565 S
N676 C677 1.351 1_565 S
C677 C671 1.428 1_545 S
C677 N676 1.351 1_545 S
C677 C678 1.434 . S
C678 C669 1.429 . S
C678 N675 1.350 . S
C678 C677 1.434 . S
C679 C680 1.369 . S
C679 C681 1.419 . S
C679 H683 0.930 . S
C680 C679 1.369 . S
C680 C689 1.429 . S
C681 C679 1.419 . S
C681 C682 1.363 . S
C681 H684 0.929 . S
C682 C681 1.363 . S
C682 C688 1.428 . S
H683 C679 0.930 . S
H684 C681 0.929 . S
S685 N686 1.613 . S
S685 N687 1.610 . S
N686 S685 1.613 . S
N686 C689 1.350 . S
N687 S685 1.610 . S
N687 C688 1.351 . S
C688 C682 1.428 . S
C688 N687 1.351 . S
C688 C689 1.434 . S
C689 C680 1.429 . S
C689 N686 1.350 . S
C689 C688 1.434 . S
C690 C691 1.369 1_565 S
C690 C692 1.419 . S
C690 H694 0.930 . S
C691 C690 1.369 1_545 S
C691 C700 1.431 . S
C692 C690 1.419 . S
C692 C693 1.363 . S
C692 H695 0.929 . S
C693 C692 1.363 . S
C693 C699 1.428 . S
H694 C690 0.930 . S
H695 C692 0.929 . S
S696 N697 1.613 . S
S696 N698 1.610 1_545 S
N697 S696 1.613 . S
N697 C700 1.367 . S
N698 S696 1.610 1_565 S
N698 C699 1.351 . S
C699 C693 1.428 . S
C699 N698 1.351 . S
C699 C700 1.415 1_565 S
C700 C691 1.431 . S
C700 N697 1.367 . S
C700 C699 1.415 1_545 S
C701 C702 1.369 . S
C701 C703 1.419 1_556 S
C701 H705 0.930 . S
C702 C701 1.369 . S
C702 C711 1.429 1_556 S
C703 C701 1.419 1_554 S
C703 C704 1.363 . S
C703 H706 0.929 . S
C704 C703 1.363 . S
C704 C710 1.428 . S
H705 C701 0.930 . S
H706 C703 0.929 . S
S707 N708 1.613 . S
S707 N709 1.610 . S
N708 S707 1.613 . S
N708 C711 1.350 . S
N709 S707 1.610 . S
N709 C710 1.351 . S
C710 C704 1.428 . S
C710 N709 1.351 . S
C710 C711 1.434 . S
C711 C702 1.429 1_554 S
C711 N708 1.350 . S
C711 C710 1.434 . S
C712 C713 1.369 . S
C712 C714 1.419 1_655 S
C712 H716 0.930 . S
C713 C712 1.369 . S
C713 C722 1.429 . S
C714 C712 1.419 1_455 S
C714 C715 1.363 . S
C714 H717 0.929 . S
C715 C714 1.363 . S
C715 C721 1.428 1_455 S
H716 C712 0.930 . S
H717 C714 0.929 . S
S718 N719 1.613 . S
S718 N720 1.610 . S
N719 S718 1.613 . S
N719 C722 1.350 . S
N720 S718 1.610 . S
N720 C721 1.351 . S
C721 C715 1.428 1_655 S
C721 N720 1.351 . S
C721 C722 1.434 . S
C722 C713 1.429 . S
C722 N719 1.350 . S
C722 C721 1.434 . S
C723 C724 1.369 . S
C723 C725 1.419 . S
C723 H727 0.930 . S
C724 C723 1.369 . S
C724 C733 1.429 . S
C725 C723 1.419 . S
C725 C726 1.363 . S
C725 H728 0.929 . S
C726 C725 1.363 . S
C726 C732 1.428 . S
H727 C723 0.930 . S
H728 C725 0.929 . S
S729 N730 1.613 . S
S729 N731 1.610 . S
N730 S729 1.613 . S
N730 C733 1.350 . S
N731 S729 1.610 . S
N731 C732 1.351 . S
C732 C726 1.428 . S
C732 N731 1.351 . S
C732 C733 1.434 . S
C733 C724 1.429 . S
C733 N730 1.350 . S
C733 C732 1.434 . S
C734 C735 1.369 1_455 S
C734 C736 1.419 . S
C734 H738 0.930 . S
C735 C734 1.369 1_655 S
C735 C744 1.429 . S
C736 C734 1.419 . S
C736 C737 1.363 . S
C736 H739 0.929 . S
C737 C736 1.363 . S
C737 C743 1.428 . S
H738 C734 0.930 . S
H739 C736 0.929 . S
S740 N741 1.613 . S
S740 N742 1.610 1_655 S
N741 S740 1.613 . S
N741 C744 1.350 . S
N742 S740 1.610 1_455 S
N742 C743 1.351 . S
C743 C737 1.428 . S
C743 N742 1.351 . S
C743 C744 1.434 1_455 S
C744 C735 1.429 . S
C744 N741 1.350 . S
C744 C743 1.434 1_655 S
C745 C746 1.369 . S
C745 C747 1.419 1_655 S
C745 H749 0.930 . S
C746 C745 1.369 . S
C746 C755 1.429 1_655 S
C747 C745 1.419 1_455 S
C747 C748 1.363 . S
C747 H750 0.929 . S
C748 C747 1.363 . S
C748 C754 1.428 . S
H749 C745 0.930 . S
H750 C747 0.929 . S
S751 N752 1.613 . S
S751 N753 1.610 . S
N752 S751 1.613 . S
N752 C755 1.350 . S
N753 S751 1.610 . S
N753 C754 1.351 . S
C754 C748 1.428 . S
C754 N753 1.351 . S
C754 C755 1.434 . S
C755 C746 1.429 1_455 S
C755 N752 1.350 . S
C755 C754 1.434 . S
C756 C757 1.369 . S
C756 C758 1.419 . S
C756 H760 0.930 . S
C757 C756 1.369 . S
C757 C766 1.429 . S
C758 C756 1.419 . S
C758 C759 1.363 . S
C758 H761 0.929 . S
C759 C758 1.363 . S
C759 C765 1.428 . S
H760 C756 0.930 . S
H761 C758 0.929 . S
S762 N763 1.613 . S
S762 N764 1.610 . S
N763 S762 1.613 . S
N763 C766 1.350 . S
N764 S762 1.610 . S
N764 C765 1.351 . S
C765 C759 1.428 . S
C765 N764 1.351 . S
C765 C766 1.434 . S
C766 C757 1.429 . S
C766 N763 1.350 . S
C766 C765 1.434 . S
C767 C768 1.369 . S
C767 C769 1.419 . S
C767 H771 0.930 . S
C768 C767 1.369 . S
C768 C777 1.429 . S
C769 C767 1.419 . S
C769 C770 1.363 1_655 S
C769 H772 0.929 . S
C770 C769 1.363 1_455 S
C770 C776 1.428 . S
H771 C767 0.930 . S
H772 C769 0.929 . S
S773 N774 1.613 . S
S773 N775 1.610 . S
N774 S773 1.613 . S
N774 C777 1.350 1_455 S
N775 S773 1.610 . S
N775 C776 1.351 . S
C776 C770 1.428 . S
C776 N775 1.351 . S
C776 C777 1.434 1_455 S
C777 C768 1.429 . S
C777 N774 1.350 1_655 S
C777 C776 1.434 1_655 S
C778 C779 1.369 . S
C778 C780 1.419 . S
C778 H782 0.930 . S
C779 C778 1.369 . S
C779 C788 1.429 . S
C780 C778 1.419 . S
C780 C781 1.363 . S
C780 H783 0.929 . S
C781 C780 1.363 . S
C781 C787 1.428 . S
H782 C778 0.930 . S
H783 C780 0.929 . S
S784 N785 1.613 . S
S784 N786 1.610 . S
N785 S784 1.613 . S
N785 C788 1.350 . S
N786 S784 1.610 . S
N786 C787 1.351 . S
C787 C781 1.428 . S
C787 N786 1.351 . S
C787 C788 1.434 . S
C788 C779 1.429 . S
C788 N785 1.350 . S
C788 C787 1.434 . S
C789 C790 1.369 . S
C789 C791 1.419 . S
C789 H793 0.930 . S
C790 C789 1.369 . S
C790 C799 1.429 . S
C791 C789 1.419 . S
C791 C792 1.363 1_545 S
C791 H794 0.929 . S
C792 C791 1.363 1_565 S
C792 C798 1.428 1_565 S
H793 C789 0.930 . S
H794 C791 0.929 . S
S795 N796 1.613 . S
S795 N797 1.610 1_545 S
N796 S795 1.613 . S
N796 C799 1.350 . S
N797 S795 1.610 1_565 S
N797 C798 1.351 1_565 S
C798 C792 1.428 1_545 S
C798 N797 1.351 1_545 S
C798 C799 1.434 . S
C799 C790 1.429 . S
C799 N796 1.350 . S
C799 C798 1.434 . S
C800 C801 1.369 . S
C800 C802 1.419 . S
C800 H804 0.930 . S
C801 C800 1.369 . S
C801 C810 1.429 . S
C802 C800 1.419 . S
C802 C803 1.363 . S
C802 H805 0.929 . S
C803 C802 1.363 . S
C803 C809 1.428 . S
H804 C800 0.930 . S
H805 C802 0.929 . S
S806 N807 1.613 . S
S806 N808 1.610 . S
N807 S806 1.613 . S
N807 C810 1.350 . S
N808 S806 1.610 . S
N808 C809 1.351 . S
C809 C803 1.428 . S
C809 N808 1.351 . S
C809 C810 1.434 . S
C810 C801 1.429 . S
C810 N807 1.350 . S
C810 C809 1.434 . S
C811 C812 1.369 . S
C811 C813 1.419 1_565 S
C811 H815 0.930 . S
C812 C811 1.369 . S
C812 C821 1.429 . S
C813 C811 1.419 1_545 S
C813 C814 1.363 . S
C813 H816 0.929 . S
C814 C813 1.363 . S
C814 C820 1.428 1_545 S
H815 C811 0.930 . S
H816 C813 0.929 . S
S817 N818 1.613 . S
S817 N819 1.610 . S
N818 S817 1.613 . S
N818 C821 1.350 . S
N819 S817 1.610 . S
N819 C820 1.351 . S
C820 C814 1.428 1_565 S
C820 N819 1.351 . S
C820 C821 1.434 . S
C821 C812 1.429 . S
C821 N818 1.350 . S
C821 C820 1.434 . S
C822 C823 1.369 1_554 S
C822 C824 1.419 . S
C822 H826 0.930 1_554 S
C823 C822 1.369 1_556 S
C823 C832 1.429 1_556 S
C824 C822 1.419 . S
C824 C825 1.363 . S
C824 H827 0.929 . S
C825 C824 1.363 . S
C825 C831 1.428 . S
H826 C822 0.930 1_556 S
H827 C824 0.929 . S
S828 N829 1.613 1_554 S
S828 N830 1.610 . S
N829 S828 1.613 1_556 S
N829 C832 1.350 1_556 S
N830 S828 1.610 . S
N830 C831 1.351 . S
C831 C825 1.428 . S
C831 N830 1.351 . S
C831 C832 1.434 . S
C832 C823 1.429 1_554 S
C832 N829 1.350 1_554 S
C832 C831 1.434 . S
C833 C834 1.369 1_565 S
C833 C835 1.419 . S
C833 H837 0.930 . S
C834 C833 1.369 1_545 S
C834 C843 1.429 1_545 S
C835 C833 1.419 . S
C835 C836 1.363 . S
C835 H838 0.929 . S
C836 C835 1.363 . S
C836 C842 1.428 . S
H837 C833 0.930 . S
H838 C835 0.929 . S
S839 N840 1.613 1_565 S
S839 N841 1.610 . S
N840 S839 1.613 1_545 S
N840 C843 1.350 1_545 S
N841 S839 1.610 . S
N841 C842 1.351 . S
C842 C836 1.428 . S
C842 N841 1.351 . S
C842 C843 1.434 . S
C843 C834 1.429 1_565 S
C843 N840 1.350 1_565 S
C843 C842 1.434 . S
C844 C845 1.369 . S
C844 C846 1.419 . S
C844 H848 0.930 . S
C845 C844 1.369 . S
C845 C854 1.429 . S
C846 C844 1.419 . S
C846 C847 1.363 . S
C846 H849 0.929 . S
C847 C846 1.363 . S
C847 C853 1.428 . S
H848 C844 0.930 . S
H849 C846 0.929 . S
S850 N851 1.613 . S
S850 N852 1.610 . S
N851 S850 1.613 . S
N851 C854 1.350 . S
N852 S850 1.610 . S
N852 C853 1.351 . S
C853 C847 1.428 . S
C853 N852 1.351 . S
C853 C854 1.434 . S
C854 C845 1.429 . S
C854 N851 1.350 . S
C854 C853 1.434 . S
C855 C856 1.369 1_545 S
C855 C857 1.419 . S
C855 H859 0.930 . S
C856 C855 1.369 1_565 S
C856 C865 1.429 . S
C857 C855 1.419 . S
C857 C858 1.363 . S
C857 H860 0.929 . S
C858 C857 1.363 . S
C858 C864 1.428 . S
H859 C855 0.930 . S
H860 C857 0.929 . S
S861 N862 1.613 . S
S861 N863 1.610 1_565 S
N862 S861 1.613 . S
N862 C865 1.350 . S
N863 S861 1.610 1_545 S
N863 C864 1.351 . S
C864 C858 1.428 . S
C864 N863 1.351 . S
C864 C865 1.434 1_545 S
C865 C856 1.429 . S
C865 N862 1.350 . S
C865 C864 1.434 1_565 S
C866 C867 1.369 . S
C866 C868 1.419 1_554 S
C866 H870 0.930 . S
C867 C866 1.369 . S
C867 C876 1.429 1_554 S
C868 C866 1.419 1_556 S
C868 C869 1.363 . S
C868 H871 0.929 . S
C869 C868 1.363 . S
C869 C875 1.428 . S
H870 C866 0.930 . S
H871 C868 0.929 . S
S872 N873 1.613 . S
S872 N874 1.610 . S
N873 S872 1.613 . S
N873 C876 1.350 . S
N874 S872 1.610 . S
N874 C875 1.351 . S
C875 C869 1.428 . S
C875 N874 1.351 . S
C875 C876 1.434 . S
C876 C867 1.429 1_556 S
C876 N873 1.350 . S
C876 C875 1.434 . S
C877 C878 1.369 1_455 S
C877 C879 1.419 . S
C877 H881 0.930 . S
C878 C877 1.369 1_655 S
C878 C887 1.429 . S
C879 C877 1.419 . S
C879 C880 1.363 . S
C879 H882 0.929 . S
C880 C879 1.363 . S
C880 C886 1.428 . S
H881 C877 0.930 . S
H882 C879 0.929 . S
S883 N884 1.613 . S
S883 N885 1.610 . S
N884 S883 1.613 . S
N884 C887 1.350 . S
N885 S883 1.610 . S
N885 C886 1.351 1_655 S
C886 C880 1.428 . S
C886 N885 1.351 1_455 S
C886 C887 1.434 1_455 S
C887 C878 1.429 . S
C887 N884 1.350 . S
C887 C886 1.434 1_655 S
C888 C889 1.369 . S
C888 C890 1.419 . S
C888 H892 0.930 . S
C889 C888 1.369 . S
C889 C898 1.429 . S
C890 C888 1.419 . S
C890 C891 1.363 . S
C890 H893 0.929 . S
C891 C890 1.363 . S
C891 C897 1.428 . S
H892 C888 0.930 . S
H893 C890 0.929 . S
S894 N895 1.613 . S
S894 N896 1.610 . S
N895 S894 1.613 . S
N895 C898 1.350 . S
N896 S894 1.610 . S
N896 C897 1.351 . S
C897 C891 1.428 . S
C897 N896 1.351 . S
C897 C898 1.434 . S
C898 C889 1.429 . S
C898 N895 1.350 . S
C898 C897 1.434 . S
C899 C900 1.369 . S
C899 C901 1.419 1_455 S
C899 H903 0.930 . S
C900 C899 1.369 . S
C900 C909 1.429 1_455 S
C901 C899 1.419 1_655 S
C901 C902 1.363 . S
C901 H904 0.929 . S
C902 C901 1.363 . S
C902 C908 1.428 . S
H903 C899 0.930 . S
H904 C901 0.929 . S
S905 N906 1.613 . S
S905 N907 1.610 . S
N906 S905 1.613 . S
N906 C909 1.350 . S
N907 S905 1.610 . S
N907 C908 1.351 . S
C908 C902 1.428 . S
C908 N907 1.351 . S
C908 C909 1.434 . S
C909 C900 1.429 1_655 S
C909 N906 1.350 . S
C909 C908 1.434 . S
C910 C911 1.369 . S
C910 C912 1.419 1_455 S
C910 H914 0.930 . S
C911 C910 1.369 . S
C911 C920 1.429 1_455 S
C912 C910 1.419 1_655 S
C912 C913 1.363 . S
C912 H915 0.935 . S
C913 C912 1.363 . S
C913 C919 1.428 . S
H914 C910 0.930 . S
H915 C912 0.935 . S
S916 N917 1.613 . S
S916 N918 1.610 . S
N917 S916 1.613 . S
N917 C920 1.350 . S
N918 S916 1.610 . S
N918 C919 1.351 . S
C919 C913 1.428 . S
C919 N918 1.351 . S
C919 C920 1.434 . S
C920 C911 1.429 1_655 S
C920 N917 1.350 . S
C920 C919 1.434 . S
C921 C922 1.369 . S
C921 C923 1.419 . S
C921 H925 0.930 . S
C922 C921 1.369 . S
C922 C931 1.429 . S
C923 C921 1.419 . S
C923 C924 1.363 . S
C923 H926 0.929 . S
C924 C923 1.363 . S
C924 C930 1.428 . S
H925 C921 0.930 . S
H926 C923 0.929 . S
S927 N928 1.613 . S
S927 N929 1.610 . S
N928 S927 1.613 . S
N928 C931 1.350 . S
N929 S927 1.610 . S
N929 C930 1.351 . S
C930 C924 1.428 . S
C930 N929 1.351 . S
C930 C931 1.434 . S
C931 C922 1.429 . S
C931 N928 1.350 . S
C931 C930 1.434 . S
C932 C933 1.369 1_455 S
C932 C934 1.419 . S
C932 H936 0.930 . S
C933 C932 1.369 1_655 S
C933 C942 1.429 . S
C934 C932 1.419 . S
C934 C935 1.363 . S
C934 H937 0.929 . S
C935 C934 1.363 . S
C935 C941 1.428 . S
H936 C932 0.930 . S
H937 C934 0.929 . S
S938 N939 1.613 . S
S938 N940 1.610 1_655 S
N939 S938 1.613 . S
N939 C942 1.350 . S
N940 S938 1.610 1_455 S
N940 C941 1.351 . S
C941 C935 1.428 . S
C941 N940 1.351 . S
C941 C942 1.434 1_455 S
C942 C933 1.429 . S
C942 N939 1.350 . S
C942 C941 1.434 1_655 S
C943 C944 1.369 . S
C943 C945 1.419 . S
C943 H947 0.930 . S
C944 C943 1.369 . S
C944 C953 1.429 . S
C945 C943 1.419 . S
C945 C946 1.363 . S
C945 H948 0.929 . S
C946 C945 1.363 . S
C946 C952 1.428 . S
H947 C943 0.930 . S
H948 C945 0.929 . S
S949 N950 1.613 . S
S949 N951 1.610 . S
N950 S949 1.613 . S
N950 C953 1.350 . S
N951 S949 1.610 . S
N951 C952 1.351 . S
C952 C946 1.428 . S
C952 N951 1.351 . S
C952 C953 1.434 . S
C953 C944 1.429 . S
C953 N950 1.350 . S
C953 C952 1.434 . S
C954 C955 1.369 . S
C954 C956 1.419 . S
C954 H958 0.930 . S
C955 C954 1.369 . S
C955 C964 1.429 . S
C956 C954 1.419 . S
C956 C957 1.363 . S
C956 H959 0.929 . S
C957 C956 1.363 . S
C957 C963 1.428 . S
H958 C954 0.930 . S
H959 C956 0.929 . S
S960 N961 1.613 . S
S960 N962 1.610 . S
N961 S960 1.613 . S
N961 C964 1.350 . S
N962 S960 1.610 . S
N962 C963 1.351 . S
C963 C957 1.428 . S
C963 N962 1.351 . S
C963 C964 1.434 . S
C964 C955 1.429 . S
C964 N961 1.350 . S
C964 C963 1.434 . S
C965 C966 1.369 . S
C965 C967 1.419 1_554 S
C965 H969 0.930 . S
C966 C965 1.369 . S
C966 C975 1.429 1_554 S
C967 C965 1.419 1_556 S
C967 C968 1.363 . S
C967 H970 0.929 . S
C968 C967 1.363 . S
C968 C974 1.428 . S
H969 C965 0.930 . S
H970 C967 0.929 . S
S971 N972 1.613 . S
S971 N973 1.610 . S
N972 S971 1.613 . S
N972 C975 1.350 . S
N973 S971 1.610 . S
N973 C974 1.351 . S
C974 C968 1.428 . S
C974 N973 1.351 . S
C974 C975 1.434 . S
C975 C966 1.429 1_556 S
C975 N972 1.350 . S
C975 C974 1.434 . S
C976 C977 1.369 . S
C976 C978 1.419 . S
C976 H980 0.930 . S
C977 C976 1.369 . S
C977 C986 1.429 . S
C978 C976 1.419 . S
C978 C979 1.363 . S
C978 H981 0.929 . S
C979 C978 1.363 . S
C979 C985 1.428 . S
H980 C976 0.930 . S
H981 C978 0.929 . S
S982 N983 1.613 . S
S982 N984 1.610 . S
N983 S982 1.613 . S
N983 C986 1.350 . S
N984 S982 1.610 . S
N984 C985 1.351 . S
C985 C979 1.428 . S
C985 N984 1.351 . S
C985 C986 1.434 . S
C986 C977 1.429 . S
C986 N983 1.350 . S
C986 C985 1.434 . S
C987 C988 1.369 . S
C987 C989 1.419 . S
C987 H991 0.930 . S
C988 C987 1.369 . S
C988 C997 1.429 . S
C989 C987 1.419 . S
C989 C990 1.363 . S
C989 H992 0.929 . S
C990 C989 1.363 . S
C990 C996 1.428 . S
H991 C987 0.930 . S
H992 C989 0.929 . S
S993 N994 1.613 . S
S993 N995 1.610 . S
N994 S993 1.613 . S
N994 C997 1.350 . S
N995 S993 1.610 . S
N995 C996 1.351 . S
C996 C990 1.428 . S
C996 N995 1.351 . S
C996 C997 1.434 . S
C997 C988 1.429 . S
C997 N994 1.350 . S
C997 C996 1.434 . S
C998 C999 1.369 . S
C998 C1000 1.419 . S
C998 H1002 0.930 . S
C999 C998 1.369 . S
C999 C1008 1.429 . S
C1000 C998 1.419 . S
C1000 C1001 1.363 . S
C1000 H1003 0.929 . S
C1001 C1000 1.363 . S
C1001 C1007 1.428 . S
H1002 C998 0.930 . S
H1003 C1000 0.929 . S
S1004 N1005 1.613 . S
S1004 N1006 1.610 . S
N1005 S1004 1.613 . S
N1005 C1008 1.350 . S
N1006 S1004 1.610 . S
N1006 C1007 1.351 . S
C1007 C1001 1.428 . S
C1007 N1006 1.351 . S
C1007 C1008 1.434 . S
C1008 C999 1.429 . S
C1008 N1005 1.350 . S
C1008 C1007 1.434 . S
C1009 C1010 1.369 . S
C1009 C1011 1.419 . S
C1009 H1013 0.930 . S
C1010 C1009 1.369 . S
C1010 C1019 1.429 . S
C1011 C1009 1.419 . S
C1011 C1012 1.363 1_554 S
C1011 H1014 0.929 . S
C1012 C1011 1.363 1_556 S
C1012 C1018 1.428 . S
H1013 C1009 0.930 . S
H1014 C1011 0.929 . S
S1015 N1016 1.613 1_556 S
S1015 N1017 1.610 . S
N1016 S1015 1.613 1_554 S
N1016 C1019 1.350 . S
N1017 S1015 1.610 . S
N1017 C1018 1.351 . S
C1018 C1012 1.428 . S
C1018 N1017 1.351 . S
C1018 C1019 1.434 1_556 S
C1019 C1010 1.429 . S
C1019 N1016 1.350 . S
C1019 C1018 1.434 1_554 S
C1020 C1021 1.369 . S
C1020 C1022 1.419 . S
C1020 H1024 0.930 . S
C1021 C1020 1.369 . S
C1021 C1030 1.429 . S
C1022 C1020 1.419 . S
C1022 C1023 1.363 . S
C1022 H1025 0.929 . S
C1023 C1022 1.363 . S
C1023 C1029 1.428 . S
H1024 C1020 0.930 . S
H1025 C1022 0.929 . S
S1026 N1027 1.613 . S
S1026 N1028 1.610 . S
N1027 S1026 1.613 . S
N1027 C1030 1.350 . S
N1028 S1026 1.610 . S
N1028 C1029 1.351 . S
C1029 C1023 1.428 . S
C1029 N1028 1.351 . S
C1029 C1030 1.434 . S
C1030 C1021 1.429 . S
C1030 N1027 1.350 . S
C1030 C1029 1.434 . S
C1031 C1032 1.369 . S
C1031 C1033 1.419 . S
C1031 H1035 0.930 . S
C1032 C1031 1.369 . S
C1032 C1041 1.429 . S
C1033 C1031 1.419 . S
C1033 C1034 1.363 . S
C1033 H1036 0.929 . S
C1034 C1033 1.363 . S
C1034 C1040 1.428 . S
H1035 C1031 0.930 . S
H1036 C1033 0.929 . S
S1037 N1038 1.613 . S
S1037 N1039 1.610 . S
N1038 S1037 1.613 . S
N1038 C1041 1.350 . S
N1039 S1037 1.610 . S
N1039 C1040 1.351 . S
C1040 C1034 1.428 . S
C1040 N1039 1.351 . S
C1040 C1041 1.434 . S
C1041 C1032 1.429 . S
C1041 N1038 1.350 . S
C1041 C1040 1.434 . S
C1042 C1043 1.369 . S
C1042 C1044 1.419 . S
C1042 H1046 0.930 . S
C1043 C1042 1.369 . S
C1043 C1052 1.429 . S
C1044 C1042 1.419 . S
C1044 C1045 1.363 . S
C1044 H1047 0.929 . S
C1045 C1044 1.363 . S
C1045 C1051 1.428 . S
H1046 C1042 0.930 . S
H1047 C1044 0.929 . S
S1048 N1049 1.613 . S
S1048 N1050 1.610 . S
N1049 S1048 1.613 . S
N1049 C1052 1.350 . S
N1050 S1048 1.610 . S
N1050 C1051 1.351 . S
C1051 C1045 1.428 . S
C1051 N1050 1.351 . S
C1051 C1052 1.434 . S
C1052 C1043 1.429 . S
C1052 N1049 1.350 . S
C1052 C1051 1.434 . S
C1053 C1054 1.369 . S
C1053 C1055 1.419 . S
C1053 H1057 0.930 . S
C1054 C1053 1.369 . S
C1054 C1063 1.429 . S
C1055 C1053 1.419 . S
C1055 C1056 1.363 . S
C1055 H1058 0.929 . S
C1056 C1055 1.363 . S
C1056 C1062 1.428 . S
H1057 C1053 0.930 . S
H1058 C1055 0.929 . S
S1059 N1060 1.613 . S
S1059 N1061 1.610 . S
N1060 S1059 1.613 . S
N1060 C1063 1.350 . S
N1061 S1059 1.610 . S
N1061 C1062 1.351 . S
C1062 C1056 1.428 . S
C1062 N1061 1.351 . S
C1062 C1063 1.434 . S
C1063 C1054 1.429 . S
C1063 N1060 1.350 . S
C1063 C1062 1.434 . S
C1064 C1065 1.369 . S
C1064 C1066 1.419 1_554 S
C1064 H1068 0.930 . S
C1065 C1064 1.369 . S
C1065 C1074 1.429 . S
C1066 C1064 1.419 1_556 S
C1066 C1067 1.363 . S
C1066 H1069 0.929 . S
C1067 C1066 1.363 . S
C1067 C1073 1.428 1_556 S
H1068 C1064 0.930 . S
H1069 C1066 0.929 . S
S1070 N1071 1.613 . S
S1070 N1072 1.610 . S
N1071 S1070 1.613 . S
N1071 C1074 1.350 . S
N1072 S1070 1.610 . S
N1072 C1073 1.351 . S
C1073 C1067 1.428 1_554 S
C1073 N1072 1.351 . S
C1073 C1074 1.434 . S
C1074 C1065 1.429 . S
C1074 N1071 1.350 . S
C1074 C1073 1.434 . S
C1075 C1076 1.369 . S
C1075 C1077 1.419 . S
C1075 H1079 0.930 . S
C1076 C1075 1.369 . S
C1076 C1085 1.429 . S
C1077 C1075 1.419 . S
C1077 C1078 1.363 . S
C1077 H1080 0.929 . S
C1078 C1077 1.363 . S
C1078 C1084 1.428 . S
H1079 C1075 0.930 . S
H1080 C1077 0.929 . S
S1081 N1082 1.613 . S
S1081 N1083 1.610 . S
N1082 S1081 1.613 . S
N1082 C1085 1.350 . S
N1083 S1081 1.610 . S
N1083 C1084 1.351 . S
C1084 C1078 1.428 . S
C1084 N1083 1.351 . S
C1084 C1085 1.434 . S
C1085 C1076 1.429 . S
C1085 N1082 1.350 . S
C1085 C1084 1.434 . S
C1086 C1087 1.369 . S
C1086 C1088 1.419 . S
C1086 H1090 0.930 . S
C1087 C1086 1.369 . S
C1087 C1096 1.429 . S
C1088 C1086 1.419 . S
C1088 C1089 1.363 . S
C1088 H1091 0.929 . S
C1089 C1088 1.363 . S
C1089 C1095 1.428 . S
H1090 C1086 0.930 . S
H1091 C1088 0.929 . S
S1092 N1093 1.613 . S
S1092 N1094 1.610 . S
N1093 S1092 1.613 . S
N1093 C1096 1.350 . S
N1094 S1092 1.610 . S
N1094 C1095 1.351 . S
C1095 C1089 1.428 . S
C1095 N1094 1.351 . S
C1095 C1096 1.434 . S
C1096 C1087 1.429 . S
C1096 N1093 1.350 . S
C1096 C1095 1.434 . S
C1097 C1098 1.369 . S
C1097 C1099 1.419 . S
C1097 H1101 0.930 . S
C1098 C1097 1.369 . S
C1098 C1107 1.429 . S
C1099 C1097 1.419 . S
C1099 C1100 1.363 . S
C1099 H1102 0.929 . S
C1100 C1099 1.363 . S
C1100 C1106 1.428 . S
H1101 C1097 0.930 . S
H1102 C1099 0.929 . S
S1103 N1104 1.613 . S
S1103 N1105 1.610 . S
N1104 S1103 1.613 . S
N1104 C1107 1.350 . S
N1105 S1103 1.610 . S
N1105 C1106 1.351 . S
C1106 C1100 1.428 . S
C1106 N1105 1.351 . S
C1106 C1107 1.434 . S
C1107 C1098 1.429 . S
C1107 N1104 1.350 . S
C1107 C1106 1.434 . S
C1108 C1109 1.369 . S
C1108 C1110 1.419 1_554 S
C1108 H1112 0.930 . S
C1109 C1108 1.369 . S
C1109 C1118 1.429 1_554 S
C1110 C1108 1.419 1_556 S
C1110 C1111 1.363 . S
C1110 H1113 0.929 . S
C1111 C1110 1.363 . S
C1111 C1117 1.428 . S
H1112 C1108 0.930 . S
H1113 C1110 0.929 . S
S1114 N1115 1.613 . S
S1114 N1116 1.610 . S
N1115 S1114 1.613 . S
N1115 C1118 1.350 . S
N1116 S1114 1.610 . S
N1116 C1117 1.351 . S
C1117 C1111 1.428 . S
C1117 N1116 1.351 . S
C1117 C1118 1.434 . S
C1118 C1109 1.429 1_556 S
C1118 N1115 1.350 . S
C1118 C1117 1.434 . S
C1119 C1120 1.369 . S
C1119 C1121 1.419 . S
C1119 H1123 0.930 . S
C1120 C1119 1.369 . S
C1120 C1129 1.429 . S
C1121 C1119 1.419 . S
C1121 C1122 1.363 . S
C1121 H1124 0.929 . S
C1122 C1121 1.363 . S
C1122 C1128 1.428 . S
H1123 C1119 0.930 . S
H1124 C1121 0.929 . S
S1125 N1126 1.613 . S
S1125 N1127 1.610 . S
N1126 S1125 1.613 . S
N1126 C1129 1.350 . S
N1127 S1125 1.610 . S
N1127 C1128 1.351 . S
C1128 C1122 1.428 . S
C1128 N1127 1.351 . S
C1128 C1129 1.434 . S
C1129 C1120 1.429 . S
C1129 N1126 1.350 . S
C1129 C1128 1.434 . S
C1130 C1131 1.369 . S
C1130 C1132 1.419 . S
C1130 H1134 0.930 . S
C1131 C1130 1.369 . S
C1131 C1140 1.429 . S
C1132 C1130 1.419 . S
C1132 C1133 1.363 . S
C1132 H1135 0.929 . S
C1133 C1132 1.363 . S
C1133 C1139 1.428 . S
H1134 C1130 0.930 . S
H1135 C1132 0.929 . S
S1136 N1137 1.613 . S
S1136 N1138 1.610 . S
N1137 S1136 1.613 . S
N1137 C1140 1.350 . S
N1138 S1136 1.610 . S
N1138 C1139 1.351 . S
C1139 C1133 1.428 . S
C1139 N1138 1.351 . S
C1139 C1140 1.434 . S
C1140 C1131 1.429 . S
C1140 N1137 1.350 . S
C1140 C1139 1.434 . S
C1141 C1142 1.369 . S
C1141 C1143 1.419 . S
C1141 H1145 0.930 . S
C1142 C1141 1.369 . S
C1142 C1151 1.429 . S
C1143 C1141 1.419 . S
C1143 C1144 1.363 . S
C1143 H1146 0.929 . S
C1144 C1143 1.363 . S
C1144 C1150 1.428 . S
H1145 C1141 0.930 . S
H1146 C1143 0.929 . S
S1147 N1148 1.613 . S
S1147 N1149 1.610 . S
N1148 S1147 1.613 . S
N1148 C1151 1.350 . S
N1149 S1147 1.610 . S
N1149 C1150 1.351 . S
C1150 C1144 1.428 . S
C1150 N1149 1.351 . S
C1150 C1151 1.434 . S
C1151 C1142 1.429 . S
C1151 N1148 1.350 . S
C1151 C1150 1.434 . S
C449 C4 1.297 . S
C451 C186 1.289 . S
C460 C354 1.277 . S
C462 C18 1.271 . S
C471 C32 1.330 . S
C473 C214 1.320 . S
C482 C46 1.318 . S
C484 C340 1.309 . S
C493 C60 1.285 . S
C495 C242 1.284 . S
C504 C74 1.312 . S
C506 C312 1.318 . S
C515 C88 1.289 . S
C517 C270 1.284 . S
C526 C438 1.295 . S
C528 C102 1.298 . S
C537 C298 1.290 . S
C539 C116 1.283 . S
C548 C130 1.319 . S
C550 C256 1.312 . S
C559 C326 1.290 . S
C561 C144 1.284 . S
C570 C158 1.310 . S
C572 C228 1.305 . S
C581 C200 1.269 . S
C583 C172 1.269 . S
C592 C284 1.298 . S
C594 C396 1.296 . S
C603 C410 1.287 . S
C605 C368 1.294 . S
C614 C424 1.319 . S
C616 C382 1.330 . S
C625 C12 1.535 . S
C627 C26 1.535 . S
C636 C33 1.372 . S
C638 C25 1.487 . S
C647 C54 1.538 . S
C649 C40 1.535 . S
C658 C53 1.511 . S
C660 C5 1.410 . S
C669 C110 1.521 . S
C671 C68 1.516 . S
C680 C81 1.509 . S
C682 C61 1.397 . S
C691 C96 1.504 . S
C693 C82 1.508 . S
C702 C89 1.409 . S
C704 C109 1.512 . S
C713 C131 1.407 . S
C715 C11 1.513 . S
C724 C123 1.462 . S
C726 C47 1.367 . S
C735 C151 1.503 . S
C737 C19 1.398 . S
C746 C389 1.523 . S
C748 C103 1.415 . S
C757 C397 1.411 . S
C759 C39 1.527 . S
C768 C159 1.356 . S
C770 C67 1.468 . S
C779 C95 1.504 . S
C781 C173 1.391 . S
C790 C201 1.344 . S
C792 C187 1.382 . S
C801 C222 1.482 . S
C803 C207 1.437 . S
C812 C229 1.368 . S
C814 C215 1.374 . S
C823 C194 1.490 . S
C825 C235 1.429 . S
C834 C243 1.369 . S
C836 C291 1.468 . S
C845 C250 1.580 . S
C847 C264 1.576 . S
C856 C277 1.511 . S
C858 C263 1.516 . S
C867 C271 1.397 . S
C869 C292 1.525 . S
C878 C193 1.455 . S
C880 C313 1.377 . S
C889 C305 1.467 . S
C891 C236 1.519 . S
C900 C334 1.552 . S
C902 C208 1.551 . S
C911 C431 1.406 . S
C913 C285 1.336 . S
C922 C439 1.331 . S
C924 C221 1.410 . S
C933 C249 1.468 . S
C935 C348 1.520 . S
C944 C362 1.552 . S
C946 C278 1.552 . S
C955 C180 1.532 . S
C957 C376 1.534 . S
C966 C383 1.383 . S
C968 C179 1.481 . S
C977 C166 1.536 . S
C979 C390 1.535 . S
C988 C165 1.508 . S
C990 C369 1.411 . S
C999 C124 1.519 . S
C1001 C404 1.521 . S
C1010 C137 1.514 . S
C1012 C117 1.392 . S
C1021 C152 1.504 . S
C1023 C138 1.504 . S
C1032 C145 1.398 . S
C1034 C403 1.517 . S
C1043 C375 1.514 . S
C1045 C75 1.411 . S
C1054 C355 1.344 . S
C1056 C411 1.380 . S
C1065 C361 1.430 . S
C1067 C432 1.483 . S
C1076 C425 1.377 . S
C1078 C341 1.366 . S
C1087 C347 1.437 . S
C1089 C418 1.486 . S
C1098 C445 1.459 . S
C1100 C299 1.363 . S
C1109 C306 1.581 . S
C1111 C320 1.575 . S
C1120 C333 1.511 . S
C1122 C319 1.515 . S
C1131 C327 1.388 . S
C1133 C446 1.523 . S
C1142 C417 1.456 . S
C1144 C257 1.378 . S
