# Generated by pormake.
# Topology svc, (7)-cn, num edge types: 1
# Building blocks:
#     Node 0, Type 0, BuildingBlock: HICVOG_clean_sbu_0, # of connection points: 7
#     Node 1, Type 0, BuildingBlock: HICVOG_clean_sbu_0, # of connection points: 7
#     Node 2, Type 0, BuildingBlock: HICVOG_clean_sbu_0, # of connection points: 7
#     Node 3, Type 0, BuildingBlock: HICVOG_clean_sbu_0, # of connection points: 7
#     Node 4, Type 0, BuildingBlock: HICVOG_clean_sbu_0, # of connection points: 7
#     Node 5, Type 0, BuildingBlock: HICVOG_clean_sbu_0, # of connection points: 7
#     Node 6, Type 0, BuildingBlock: HICVOG_clean_sbu_0, # of connection points: 7
#     Node 7, Type 0, BuildingBlock: HICVOG_clean_sbu_0, # of connection points: 7
#     Node 8, Type 0, BuildingBlock: HICVOG_clean_sbu_0, # of connection points: 7
#     Node 9, Type 0, BuildingBlock: HICVOG_clean_sbu_0, # of connection points: 7
#     Node 10, Type 0, BuildingBlock: HICVOG_clean_sbu_0, # of connection points: 7
#     Node 11, Type 0, BuildingBlock: HICVOG_clean_sbu_0, # of connection points: 7
#     Node 12, Type 0, BuildingBlock: HICVOG_clean_sbu_0, # of connection points: 7
#     Node 13, Type 0, BuildingBlock: HICVOG_clean_sbu_0, # of connection points: 7
#     Node 14, Type 0, BuildingBlock: HICVOG_clean_sbu_0, # of connection points: 7
#     Node 15, Type 0, BuildingBlock: HICVOG_clean_sbu_0, # of connection points: 7
#     Edge 16, Type (0, 0), BuildingBlock: CIFDUS_clean_linker_0, # of connection points: 2
#     Edge 17, Type (0, 0), BuildingBlock: CIFDUS_clean_linker_0, # of connection points: 2
#     Edge 18, Type (0, 0), BuildingBlock: CIFDUS_clean_linker_0, # of connection points: 2
#     Edge 19, Type (0, 0), BuildingBlock: CIFDUS_clean_linker_0, # of connection points: 2
#     Edge 20, Type (0, 0), BuildingBlock: CIFDUS_clean_linker_0, # of connection points: 2
#     Edge 21, Type (0, 0), BuildingBlock: CIFDUS_clean_linker_0, # of connection points: 2
#     Edge 22, Type (0, 0), BuildingBlock: CIFDUS_clean_linker_0, # of connection points: 2
#     Edge 23, Type (0, 0), BuildingBlock: CIFDUS_clean_linker_0, # of connection points: 2
#     Edge 24, Type (0, 0), BuildingBlock: CIFDUS_clean_linker_0, # of connection points: 2
#     Edge 25, Type (0, 0), BuildingBlock: CIFDUS_clean_linker_0, # of connection points: 2
#     Edge 26, Type (0, 0), BuildingBlock: CIFDUS_clean_linker_0, # of connection points: 2
#     Edge 27, Type (0, 0), BuildingBlock: CIFDUS_clean_linker_0, # of connection points: 2
#     Edge 28, Type (0, 0), BuildingBlock: CIFDUS_clean_linker_0, # of connection points: 2
#     Edge 29, Type (0, 0), BuildingBlock: CIFDUS_clean_linker_0, # of connection points: 2
#     Edge 30, Type (0, 0), BuildingBlock: CIFDUS_clean_linker_0, # of connection points: 2
#     Edge 31, Type (0, 0), BuildingBlock: CIFDUS_clean_linker_0, # of connection points: 2
#     Edge 32, Type (0, 0), BuildingBlock: CIFDUS_clean_linker_0, # of connection points: 2
#     Edge 33, Type (0, 0), BuildingBlock: CIFDUS_clean_linker_0, # of connection points: 2
#     Edge 34, Type (0, 0), BuildingBlock: CIFDUS_clean_linker_0, # of connection points: 2
#     Edge 35, Type (0, 0), BuildingBlock: CIFDUS_clean_linker_0, # of connection points: 2
#     Edge 36, Type (0, 0), BuildingBlock: CIFDUS_clean_linker_0, # of connection points: 2
#     Edge 37, Type (0, 0), BuildingBlock: CIFDUS_clean_linker_0, # of connection points: 2
#     Edge 38, Type (0, 0), BuildingBlock: CIFDUS_clean_linker_0, # of connection points: 2
#     Edge 39, Type (0, 0), BuildingBlock: CIFDUS_clean_linker_0, # of connection points: 2
#     Edge 40, Type (0, 0), BuildingBlock: CIFDUS_clean_linker_0, # of connection points: 2
#     Edge 41, Type (0, 0), BuildingBlock: CIFDUS_clean_linker_0, # of connection points: 2
#     Edge 42, Type (0, 0), BuildingBlock: CIFDUS_clean_linker_0, # of connection points: 2
#     Edge 43, Type (0, 0), BuildingBlock: CIFDUS_clean_linker_0, # of connection points: 2
#     Edge 44, Type (0, 0), BuildingBlock: CIFDUS_clean_linker_0, # of connection points: 2
#     Edge 45, Type (0, 0), BuildingBlock: CIFDUS_clean_linker_0, # of connection points: 2
#     Edge 46, Type (0, 0), BuildingBlock: CIFDUS_clean_linker_0, # of connection points: 2
#     Edge 47, Type (0, 0), BuildingBlock: CIFDUS_clean_linker_0, # of connection points: 2
#     Edge 48, Type (0, 0), BuildingBlock: CIFDUS_clean_linker_0, # of connection points: 2
#     Edge 49, Type (0, 0), BuildingBlock: CIFDUS_clean_linker_0, # of connection points: 2
#     Edge 50, Type (0, 0), BuildingBlock: CIFDUS_clean_linker_0, # of connection points: 2
#     Edge 51, Type (0, 0), BuildingBlock: CIFDUS_clean_linker_0, # of connection points: 2
#     Edge 52, Type (0, 0), BuildingBlock: CIFDUS_clean_linker_0, # of connection points: 2
#     Edge 53, Type (0, 0), BuildingBlock: CIFDUS_clean_linker_0, # of connection points: 2
#     Edge 54, Type (0, 0), BuildingBlock: CIFDUS_clean_linker_0, # of connection points: 2
#     Edge 55, Type (0, 0), BuildingBlock: CIFDUS_clean_linker_0, # of connection points: 2
#     Edge 56, Type (0, 0), BuildingBlock: CIFDUS_clean_linker_0, # of connection points: 2
#     Edge 57, Type (0, 0), BuildingBlock: CIFDUS_clean_linker_0, # of connection points: 2
#     Edge 58, Type (0, 0), BuildingBlock: CIFDUS_clean_linker_0, # of connection points: 2
#     Edge 59, Type (0, 0), BuildingBlock: CIFDUS_clean_linker_0, # of connection points: 2
#     Edge 60, Type (0, 0), BuildingBlock: CIFDUS_clean_linker_0, # of connection points: 2
#     Edge 61, Type (0, 0), BuildingBlock: CIFDUS_clean_linker_0, # of connection points: 2
#     Edge 62, Type (0, 0), BuildingBlock: CIFDUS_clean_linker_0, # of connection points: 2
#     Edge 63, Type (0, 0), BuildingBlock: CIFDUS_clean_linker_0, # of connection points: 2
#     Edge 64, Type (0, 0), BuildingBlock: CIFDUS_clean_linker_0, # of connection points: 2
#     Edge 65, Type (0, 0), BuildingBlock: CIFDUS_clean_linker_0, # of connection points: 2
#     Edge 66, Type (0, 0), BuildingBlock: CIFDUS_clean_linker_0, # of connection points: 2
#     Edge 67, Type (0, 0), BuildingBlock: CIFDUS_clean_linker_0, # of connection points: 2
#     Edge 68, Type (0, 0), BuildingBlock: CIFDUS_clean_linker_0, # of connection points: 2
#     Edge 69, Type (0, 0), BuildingBlock: CIFDUS_clean_linker_0, # of connection points: 2
#     Edge 70, Type (0, 0), BuildingBlock: CIFDUS_clean_linker_0, # of connection points: 2
#     Edge 71, Type (0, 0), BuildingBlock: CIFDUS_clean_linker_0, # of connection points: 2
# Relax obj value: 0.182
# Max RMSD: 0.252
# Mean RMSD: 0.216
data_MOF--net-svc--node1-HICVOG_clean_sbu_0--edge1-CIFDUS_clean_linker_0
_symmetry_space_group_name_H-M    P1
_symmetry_Int_Tables_number       1
_symmetry_cell_setting            triclinic
loop_
_symmetry_equiv_pos_as_xyz
'x, y, z'
_cell_length_a     28.17174
_cell_length_b     25.479438
_cell_length_c     72.487282
_cell_angle_alpha  98.394142
_cell_angle_beta   94.682992
_cell_angle_gamma 90.117872
loop_
_atom_site_label
_atom_site_type_symbol
_atom_site_fract_x
_atom_site_fract_y
_atom_site_fract_z
_atom_type_partial_charge
Zn0 Zn 0.22284 0.40907 0.10795 0.0
C1 C 0.11849 0.33482 0.12672 0.0
N2 N 0.13943 0.29029 0.11937 0.0
C3 C 0.18314 0.30682 0.11654 0.0
N4 N 0.18835 0.36061 0.12154 0.0
N5 N 0.14836 0.37737 0.12885 0.0
C6 C 0.05761 0.47281 0.12742 0.0
O7 O 0.08394 0.46158 0.11325 0.0
O8 O 0.29193 0.39465 0.11071 0.0
Zn9 Zn 0.14219 0.44432 0.14576 0.0
N10 N 0.19962 0.39414 0.0816 0.0
C11 C 0.13431 0.36719 0.05928 0.0
C12 C 0.15363 0.3772 0.07776 0.0
C13 C 0.22721 0.40187 0.06758 0.0
N14 N 0.16164 0.37485 0.04532 0.0
C15 C 0.20781 0.39193 0.04877 0.0
O16 O 0.1783 0.51038 0.14046 0.0
C17 C 0.20434 0.52615 0.12867 0.0
O18 O 0.22013 0.4926 0.11576 0.0
H19 H 0.13191 0.37199 0.08899 0.0
H20 H 0.26326 0.41672 0.07118 0.0
C21 C 0.14001 0.45092 0.1871 0.0
C22 C 0.15522 0.43369 0.20428 0.0
C23 C 0.21216 0.37847 0.18885 0.0
C24 C 0.19706 0.39532 0.17198 0.0
N25 N 0.16105 0.43056 0.17125 0.0
N26 N 0.19082 0.39769 0.20448 0.0
H27 H 0.11123 0.47877 0.18626 0.0
C28 C 0.31043 0.41428 0.12677 0.0
O29 O 0.28216 0.43182 0.13981 0.0
O30 O 0.07447 0.46579 0.14365 0.0
H31 H 0.21359 0.37978 0.15942 0.0
H32 H 0.09773 0.35373 0.05604 0.0
H33 H 0.24046 0.35002 0.18953 0.0
Zn34 Zn 0.86955 1.00542 0.36721 0.0
C35 C 0.94972 0.90124 0.38473 0.0
N36 N 0.98245 0.92552 0.3763 0.0
C37 C 0.96362 0.97342 0.37523 0.0
N38 N 0.92065 0.97756 0.38228 0.0
N39 N 0.91306 0.93358 0.38924 0.0
C40 C 0.81059 0.85241 0.38724 0.0
O41 O 0.81344 0.88573 0.37516 0.0
O42 O 0.88469 0.08054 0.36728 0.0
Zn43 Zn 0.86475 0.93101 0.40671 0.0
N44 N 0.86905 0.96723 0.34183 0.0
C45 C 0.87528 0.88465 0.32216 0.0
C46 C 0.87364 0.91369 0.3399 0.0
C47 C 0.86645 0.99314 0.32661 0.0
N48 N 0.87327 0.9104 0.30702 0.0
C49 C 0.86921 0.96411 0.30852 0.0
O50 O 0.805 0.97614 0.40333 0.0
C51 C 0.78198 0.99864 0.39079 0.0
O52 O 0.80137 1.00694 0.37614 0.0
H53 H 0.87658 0.89372 0.35207 0.0
H54 H 0.86242 0.03566 0.32879 0.0
C55 C 0.86824 0.93525 0.44694 0.0
C56 C 0.88863 0.94852 0.46552 0.0
C57 C 0.95615 0.98457 0.45382 0.0
C58 C 0.93574 0.97147 0.43556 0.0
N59 N 0.89231 0.94709 0.43245 0.0
N60 N 0.9322 0.97303 0.46827 0.0
H61 H 0.83327 0.91692 0.44395 0.0
C62 C 0.88763 0.10667 0.38363 0.0
O63 O 0.88905 0.08056 0.39802 0.0
O64 O 0.83645 0.86009 0.40257 0.0
H65 H 0.95427 0.98087 0.42395 0.0
H66 H 0.87883 0.84199 0.32044 0.0
H67 H 0.99069 1.00405 0.45652 0.0
Zn68 Zn 0.34425 0.6126 0.61838 0.0
C69 C 0.4606 0.55075 0.64275 0.0
N70 N 0.48049 0.59815 0.64196 0.0
C71 C 0.44371 0.62667 0.63614 0.0
N72 N 0.40272 0.59774 0.63305 0.0
N73 N 0.41303 0.55045 0.63783 0.0
C74 C 0.37622 0.41188 0.62781 0.0
O75 O 0.36499 0.44257 0.61509 0.0
O76 O 0.33098 0.69164 0.62209 0.0
Zn77 Zn 0.36894 0.51062 0.65022 0.0
N78 N 0.35454 0.58694 0.59215 0.0
C79 C 0.39369 0.52271 0.57166 0.0
C80 C 0.38296 0.54389 0.58957 0.0
C81 C 0.3361 0.60979 0.57726 0.0
N82 N 0.3756 0.54536 0.55688 0.0
C83 C 0.34698 0.5885 0.5589 0.0
O84 O 0.296 0.51692 0.64381 0.0
C85 C 0.26726 0.54303 0.63417 0.0
O86 O 0.28307 0.57725 0.62485 0.0
H87 H 0.39742 0.52608 0.60136 0.0
H88 H 0.31308 0.64347 0.57982 0.0
C89 C 0.38233 0.5066 0.69073 0.0
C90 C 0.3938 0.53038 0.70941 0.0
C91 C 0.40235 0.61374 0.69901 0.0
C92 C 0.39051 0.59031 0.68067 0.0
N93 N 0.38145 0.53723 0.67677 0.0
N94 N 0.4038 0.58336 0.71289 0.0
H95 H 0.37491 0.46446 0.6873 0.0
C96 C 0.33573 0.72041 0.63808 0.0
O97 O 0.35315 0.69945 0.65266 0.0
O98 O 0.38314 0.43307 0.64482 0.0
H99 H 0.38887 0.61435 0.66956 0.0
H100 H 0.41632 0.48849 0.56949 0.0
H101 H 0.41017 0.65582 0.70223 0.0
Zn102 Zn 0.6369 0.09812 0.86249 0.0
C103 C 0.71214 0.23694 0.88069 0.0
N104 N 0.67348 0.25662 0.87251 0.0
C105 C 0.64275 0.21567 0.86883 0.0
N106 N 0.66166 0.17087 0.8743 0.0
N107 N 0.70567 0.18433 0.8821 0.0
C108 C 0.83471 0.12783 0.87978 0.0
O109 O 0.80627 0.10891 0.86502 0.0
O110 O 0.56159 0.08644 0.86314 0.0
Zn111 Zn 0.74495 0.14065 0.89793 0.0
N112 N 0.65446 0.09389 0.83626 0.0
C113 C 0.70582 0.13305 0.81727 0.0
C114 C 0.69078 0.12796 0.83466 0.0
C115 C 0.63457 0.06162 0.82073 0.0
N116 N 0.6856 0.10209 0.80193 0.0
C117 C 0.65078 0.06587 0.80297 0.0
O118 O 0.73185 0.05901 0.89361 0.0
C119 C 0.7044 0.02313 0.8841 0.0
O120 O 0.67034 0.03532 0.87281 0.0
H121 H 0.70864 0.15132 0.84677 0.0
H122 H 0.60673 0.03349 0.82213 0.0
C123 C 0.75777 0.14904 0.93883 0.0
C124 C 0.74825 0.17049 0.95727 0.0
C125 C 0.6926 0.22879 0.94481 0.0
C126 C 0.70146 0.20687 0.92674 0.0
N127 N 0.73413 0.16785 0.92398 0.0
N128 N 0.71594 0.21011 0.95954 0.0
H129 H 0.78367 0.11816 0.93619 0.0
C130 C 0.54083 0.05343 0.87177 0.0
O131 O 0.5675 0.02405 0.88181 0.0
O132 O 0.81631 0.14701 0.89478 0.0
H133 H 0.68212 0.22106 0.91505 0.0
H134 H 0.73403 0.16083 0.81597 0.0
H135 H 0.66695 0.26011 0.94714 0.0
Zn136 Zn 0.13351 0.5853 0.36694 0.0
C137 C 0.2045 0.72787 0.3833 0.0
N138 N 0.16029 0.74606 0.38029 0.0
C139 C 0.13286 0.70209 0.37718 0.0
N140 N 0.15856 0.6577 0.37802 0.0
N141 N 0.20384 0.67352 0.38265 0.0
C142 C 0.327 0.63121 0.37503 0.0
O143 O 0.29257 0.63098 0.36172 0.0
O144 O 0.05868 0.57999 0.36633 0.0
Zn145 Zn 0.24682 0.62988 0.39752 0.0
N146 N 0.15432 0.57354 0.34142 0.0
C147 C 0.22714 0.56042 0.32696 0.0
C148 C 0.20243 0.56921 0.3429 0.0
C149 C 0.12919 0.56778 0.32421 0.0
N150 N 0.20266 0.55522 0.30994 0.0
C151 C 0.1544 0.55835 0.30793 0.0
O152 O 0.23457 0.54696 0.39333 0.0
C153 C 0.20417 0.5102 0.38657 0.0
O154 O 0.16486 0.52134 0.3779 0.0
H155 H 0.22131 0.57209 0.35656 0.0
H156 H 0.09073 0.57006 0.32319 0.0
C157 C 0.26436 0.63728 0.43872 0.0
C158 C 0.25491 0.65685 0.45739 0.0
C159 C 0.19561 0.71253 0.44578 0.0
C160 C 0.20431 0.69241 0.42754 0.0
N161 N 0.23886 0.65576 0.42417 0.0
N162 N 0.22082 0.6943 0.46016 0.0
H163 H 0.29138 0.60793 0.4357 0.0
C164 C 0.03659 0.56232 0.37897 0.0
O165 O 0.06189 0.54726 0.39326 0.0
O166 O 0.3164 0.63637 0.39195 0.0
H167 H 0.18288 0.70582 0.41623 0.0
H168 H 0.26549 0.55709 0.32806 0.0
H169 H 0.16843 0.74193 0.44851 0.0
Zn170 Zn 0.74396 0.88296 0.60473 0.0
C171 C 0.63833 0.80703 0.62257 0.0
N172 N 0.65981 0.76286 0.61526 0.0
C173 C 0.70347 0.78004 0.61261 0.0
N174 N 0.70817 0.83384 0.61773 0.0
N175 N 0.66774 0.84988 0.62485 0.0
C176 C 0.5698 0.94047 0.62244 0.0
O177 O 0.59466 0.92996 0.60781 0.0
O178 O 0.81326 0.87014 0.60864 0.0
Zn179 Zn 0.65811 0.91672 0.64111 0.0
N180 N 0.72387 0.86712 0.57802 0.0
C181 C 0.6614 0.83478 0.55506 0.0
C182 C 0.67866 0.84792 0.5737 0.0
C183 C 0.75245 0.87486 0.56427 0.0
N184 N 0.68978 0.84202 0.5414 0.0
C185 C 0.73495 0.86202 0.54528 0.0
O186 O 0.69274 0.98312 0.63586 0.0
C187 C 0.72024 0.99934 0.62467 0.0
O188 O 0.73878 0.96614 0.61238 0.0
H189 H 0.65608 0.84282 0.58467 0.0
H190 H 0.78832 0.89008 0.56811 0.0
C191 C 0.65513 0.93504 0.68171 0.0
C192 C 0.66633 0.9234 0.70005 0.0
C193 C 0.7153 0.8532 0.68766 0.0
C194 C 0.70471 0.86542 0.66969 0.0
N195 N 0.67458 0.90568 0.66698 0.0
N196 N 0.69605 0.88233 0.70233 0.0
H197 H 0.63082 0.9664 0.67907 0.0
C198 C 0.83162 0.8891 0.62481 0.0
O199 O 0.80322 0.90676 0.63778 0.0
O200 O 0.58917 0.93533 0.63851 0.0
H201 H 0.71983 0.84236 0.65792 0.0
H202 H 0.6256 0.81909 0.55146 0.0
H203 H 0.73884 0.82088 0.68997 0.0
Zn204 Zn 0.29208 0.42953 0.89348 0.0
C205 C 0.38226 0.32784 0.87051 0.0
N206 N 0.35448 0.29262 0.87696 0.0
C207 C 0.31732 0.32273 0.8822 0.0
N208 N 0.32226 0.37281 0.87917 0.0
N209 N 0.36261 0.37627 0.8715 0.0
C210 C 0.4533 0.48249 0.86732 0.0
O211 O 0.4234 0.50019 0.87971 0.0
O212 O 0.22176 0.41976 0.89215 0.0
Zn213 Zn 0.37125 0.42363 0.85343 0.0
N214 N 0.31868 0.4365 0.91929 0.0
C215 C 0.38681 0.45468 0.94089 0.0
C216 C 0.36567 0.44937 0.92266 0.0
C217 C 0.29175 0.42839 0.93344 0.0
N218 N 0.36002 0.44713 0.95505 0.0
C219 C 0.31275 0.43426 0.95203 0.0
O220 O 0.3359 0.49285 0.85774 0.0
C221 C 0.31211 0.51841 0.87021 0.0
O222 O 0.29875 0.49775 0.88387 0.0
H223 H 0.38648 0.45527 0.91121 0.0
H224 H 0.25479 0.41686 0.93004 0.0
C225 C 0.35839 0.40707 0.81291 0.0
C226 C 0.34125 0.38 0.79519 0.0
C227 C 0.30747 0.31363 0.81019 0.0
C228 C 0.32411 0.34073 0.82759 0.0
N229 N 0.34959 0.38664 0.82867 0.0
N230 N 0.31625 0.33386 0.79451 0.0
H231 H 0.37732 0.44458 0.81435 0.0
C232 C 0.20007 0.42573 0.87656 0.0
O233 O 0.225 0.42786 0.86212 0.0
O234 O 0.43976 0.44544 0.85423 0.0
H235 H 0.31616 0.32537 0.8401 0.0
H236 H 0.42424 0.46483 0.94381 0.0
H237 H 0.28724 0.27703 0.80916 0.0
Zn238 Zn 0.82015 0.13118 0.11889 0.0
C239 C 0.94746 0.07251 0.13309 0.0
N240 N 0.96484 0.11904 0.12994 0.0
C241 C 0.92544 0.14783 0.1277 0.0
N242 N 0.88517 0.11964 0.12897 0.0
N243 N 0.89937 0.07291 0.13311 0.0
C244 C 0.87756 0.93915 0.12174 0.0
O245 O 0.8752 0.97508 0.11047 0.0
O246 O 0.81009 0.20872 0.11983 0.0
Zn247 Zn 0.86421 0.0305 0.14785 0.0
N248 N 0.81339 0.09748 0.09291 0.0
C249 C 0.79677 1.01614 0.07275 0.0
C250 C 0.80347 0.04467 0.09064 0.0
C251 C 0.81552 0.1236 0.07784 0.0
N252 N 0.79851 0.04195 0.05774 0.0
C253 C 0.80719 0.09516 0.05956 0.0
O254 O 0.79043 0.03464 0.1459 0.0
C255 C 0.75609 0.06171 0.13975 0.0
O256 O 0.7642 0.09957 0.13063 0.0
H257 H 0.80021 0.02509 0.10274 0.0
H258 H 0.82316 0.16575 0.0802 0.0
C259 C 0.87525 0.02761 0.18856 0.0
C260 C 0.89113 0.04878 0.20722 0.0
C261 C 0.92914 0.11972 0.19594 0.0
C262 C 0.91284 0.09925 0.17773 0.0
N263 N 0.88675 0.05333 0.17421 0.0
N264 N 0.9179 0.09424 0.21013 0.0
H265 H 0.85307 0.99225 0.18541 0.0
C266 C 0.79086 0.23473 0.13349 0.0
O267 O 0.77845 0.21014 0.14712 0.0
O268 O 0.8781 0.95425 0.1393 0.0
H269 H 0.92049 0.12077 0.16657 0.0
H270 H 0.78918 0.97397 0.07076 0.0
H271 H 0.95008 0.15606 0.19883 0.0
Zn272 Zn 0.86592 0.60057 0.87251 0.0
C273 C 0.82267 0.74454 0.89102 0.0
N274 N 0.86375 0.75797 0.88464 0.0
C275 C 0.88752 0.71219 0.88219 0.0
N276 N 0.8618 0.67184 0.88679 0.0
N277 N 0.82175 0.69208 0.89304 0.0
C278 C 0.70119 0.63766 0.88879 0.0
O279 O 0.73222 0.61701 0.87731 0.0
O280 O 0.93364 0.57918 0.87334 0.0
Zn281 Zn 0.78645 0.65357 0.90944 0.0
N282 N 0.84423 0.6061 0.84644 0.0
C283 C 0.79514 0.65265 0.82613 0.0
C284 C 0.80976 0.6423 0.84403 0.0
C285 C 0.86427 0.5789 0.8314 0.0
N286 N 0.81514 0.62593 0.8112 0.0
C287 C 0.84927 0.58893 0.81313 0.0
O288 O 0.79172 0.57077 0.90558 0.0
C289 C 0.80706 0.53094 0.89491 0.0
O290 O 0.83236 0.53805 0.88164 0.0
H291 H 0.79421 0.66376 0.85598 0.0
H292 H 0.89209 0.55079 0.83369 0.0
C293 C 0.78583 0.67099 0.95074 0.0
C294 C 0.80578 0.69126 0.96901 0.0
C295 C 0.86943 0.7294 0.95557 0.0
C296 C 0.8499 0.70903 0.93776 0.0
N297 N 0.80846 0.68055 0.93554 0.0
N298 N 0.84709 0.72005 0.97064 0.0
H299 H 0.75282 0.64839 0.94853 0.0
C300 C 0.95285 0.56988 0.88896 0.0
O301 O 0.92898 0.57969 0.90389 0.0
O302 O 0.7166 0.66348 0.90448 0.0
H303 H 0.86793 0.71588 0.92576 0.0
H304 H 0.76807 0.68177 0.82409 0.0
H305 H 0.9023 0.75229 0.95746 0.0
Zn306 Zn 0.22022 0.07824 0.61179 0.0
C307 C 0.15216 0.19879 0.63731 0.0
N308 N 0.1763 0.22465 0.626 0.0
C309 C 0.20714 0.18865 0.61915 0.0
N310 N 0.20263 0.14299 0.62592 0.0
N311 N 0.16914 0.14885 0.63781 0.0
C312 C 0.07909 0.04315 0.64166 0.0
O313 O 0.10044 0.03812 0.62611 0.0
O314 O 0.29098 0.06865 0.61302 0.0
Zn315 Zn 0.16563 0.09851 0.65597 0.0
N316 N 0.19346 0.07671 0.58624 0.0
C317 C 0.12647 0.05306 0.56441 0.0
C318 C 0.14858 0.05623 0.58241 0.0
C319 C 0.21723 0.09475 0.57274 0.0
N320 N 0.15005 0.07081 0.55091 0.0
C321 C 0.19489 0.0919 0.55447 0.0
O322 O 0.20759 0.03139 0.65115 0.0
C323 C 0.2077 0.9999 0.63574 0.0
O324 O 0.19279 1.01524 0.62049 0.0
H325 H 0.13017 0.04222 0.59327 0.0
H326 H 0.25314 0.11023 0.57621 0.0
C327 C 0.17633 0.11475 0.69636 0.0
C328 C 0.19077 0.14247 0.71426 0.0
C329 C 0.22294 0.21105 0.69987 0.0
C330 C 0.20918 0.1831 0.68225 0.0
N331 N 0.18576 0.13579 0.6808 0.0
N332 N 0.21343 0.19023 0.71539 0.0
H333 H 0.15724 0.07726 0.69473 0.0
C334 C 0.31417 0.07282 0.62896 0.0
O335 O 0.29202 0.08879 0.644 0.0
O336 O 0.09935 0.06976 0.65634 0.0
H337 H 0.21707 0.19915 0.66982 0.0
H338 H 0.09082 0.03662 0.56116 0.0
H339 H 0.24126 0.24894 0.70122 0.0
Zn340 Zn 0.68097 0.43379 0.40323 0.0
C341 C 0.56615 0.47913 0.37641 0.0
N342 N 0.54709 0.43348 0.37977 0.0
C343 C 0.58546 0.40642 0.38519 0.0
N344 N 0.62613 0.43476 0.38532 0.0
N345 N 0.61408 0.47951 0.3792 0.0
C346 C 0.6441 0.6132 0.38812 0.0
O347 O 0.65367 0.58193 0.4008 0.0
O348 O 0.70436 0.36127 0.40078 0.0
Zn349 Zn 0.65612 0.5182 0.36606 0.0
N350 N 0.66214 0.45864 0.42853 0.0
C351 C 0.61076 0.51691 0.44607 0.0
C352 C 0.6267 0.49475 0.42904 0.0
C353 C 0.68206 0.443 0.44467 0.0
N354 N 0.63082 0.50204 0.46209 0.0
C355 C 0.66601 0.46552 0.46207 0.0
O356 O 0.72883 0.51681 0.37334 0.0
C357 C 0.75644 0.50145 0.3863 0.0
O358 O 0.74019 0.47445 0.39798 0.0
H359 H 0.61105 0.5065 0.41627 0.0
H360 H 0.7105 0.41449 0.44398 0.0
C361 C 0.65129 0.52672 0.32655 0.0
C362 C 0.64197 0.50777 0.30729 0.0
C363 C 0.61903 0.42429 0.31502 0.0
C364 C 0.6288 0.44312 0.33397 0.0
N365 N 0.64445 0.49391 0.33939 0.0
N366 N 0.62579 0.45687 0.3022 0.0
H367 H 0.66316 0.56713 0.3314 0.0
C368 C 0.71623 0.34679 0.38431 0.0
O369 O 0.70501 0.37642 0.37125 0.0
O370 O 0.63872 0.59273 0.37106 0.0
H371 H 0.6238 0.41753 0.34431 0.0
H372 H 0.58274 0.54592 0.44656 0.0
H373 H 0.60628 0.38402 0.3105 0.0
Zn374 Zn 0.38155 0.96064 0.14882 0.0
C375 C 0.31542 0.81677 0.13173 0.0
N376 N 0.35772 0.80137 0.13882 0.0
C377 C 0.38452 0.84569 0.14137 0.0
N378 N 0.36026 0.88763 0.1363 0.0
N379 N 0.3165 0.86982 0.12976 0.0
C380 C 0.19341 0.93088 0.13545 0.0
O381 O 0.22876 0.95 0.14751 0.0
O382 O 0.45581 0.97751 0.14857 0.0
Zn383 Zn 0.27389 0.91286 0.11445 0.0
N384 N 0.36676 0.95939 0.1748 0.0
C385 C 0.31544 0.91906 0.19341 0.0
C386 C 0.32781 0.92884 0.17608 0.0
C387 C 0.39283 0.98296 0.19059 0.0
N388 N 0.34161 0.94156 0.20903 0.0
C389 C 0.37982 0.97368 0.20829 0.0
O390 O 0.28461 0.99558 0.11855 0.0
C391 C 0.30998 0.0333 0.12814 0.0
O392 O 0.34462 0.02325 0.13956 0.0
H393 H 0.30657 0.91136 0.16369 0.0
H394 H 0.42334 1.00777 0.18942 0.0
C395 C 0.25933 0.9034 0.07323 0.0
C396 C 0.27218 0.88526 0.05491 0.0
C397 C 0.33528 0.83662 0.06781 0.0
C398 C 0.32306 0.8553 0.08572 0.0
N399 N 0.285 0.88761 0.08824 0.0
N400 N 0.30982 0.85205 0.05294 0.0
H401 H 0.23051 0.93081 0.07568 0.0
C402 C 0.4704 1.01027 0.13837 0.0
O403 O 0.43824 0.03219 0.12786 0.0
O404 O 0.20346 0.90701 0.11954 0.0
H405 H 0.34441 0.84419 0.09752 0.0
H406 H 0.28498 0.89407 0.19448 0.0
H407 H 0.36526 0.81058 0.0657 0.0
Zn408 Zn 0.89126 0.43347 0.64988 0.0
C409 C 0.82779 0.29013 0.62946 0.0
N410 N 0.8697 0.27375 0.63655 0.0
C411 C 0.8964 0.31809 0.64031 0.0
N412 N 0.87214 0.36111 0.63597 0.0
N413 N 0.82875 0.34381 0.62862 0.0
C414 C 0.70785 0.41055 0.63627 0.0
O415 O 0.74547 0.4275 0.6475 0.0
O416 O 0.96627 0.44722 0.65164 0.0
Zn417 Zn 0.78553 0.38821 0.61369 0.0
N418 N 0.87055 0.43219 0.67546 0.0
C419 C 0.82259 0.38428 0.69321 0.0
C420 C 0.83814 0.39294 0.67622 0.0
C421 C 0.88633 0.46527 0.69146 0.0
N422 N 0.83881 0.41621 0.70901 0.0
C423 C 0.86995 0.45692 0.70883 0.0
O424 O 0.79981 0.47013 0.61754 0.0
C425 C 0.82558 0.50733 0.62725 0.0
O426 O 0.85844 0.49685 0.63937 0.0
H427 H 0.82403 0.36792 0.66378 0.0
H428 H 0.91145 0.49696 0.69075 0.0
C429 C 0.7661 0.3742 0.57193 0.0
C430 C 0.77758 0.35316 0.55365 0.0
C431 C 0.84439 0.31074 0.56675 0.0
C432 C 0.8336 0.33222 0.58461 0.0
N433 N 0.79409 0.3623 0.58708 0.0
N434 N 0.81629 0.3216 0.55179 0.0
H435 H 0.73553 0.39935 0.57405 0.0
C436 C 0.98745 0.47628 0.64169 0.0
O437 O 0.96126 0.50035 0.62972 0.0
O438 O 0.71487 0.3861 0.62006 0.0
H439 H 0.85701 0.32466 0.59641 0.0
H440 H 0.79738 0.35263 0.69383 0.0
H441 H 0.87529 0.28606 0.56475 0.0
Zn442 Zn 0.39706 0.0877 0.37312 0.0
C443 C 0.33662 0.23235 0.3872 0.0
N444 N 0.37997 0.24802 0.38362 0.0
C445 C 0.40559 0.2034 0.38217 0.0
N446 N 0.3794 0.16103 0.38482 0.0
N447 N 0.33608 0.17908 0.38841 0.0
C448 C 0.2102 0.11421 0.37658 0.0
O449 O 0.24375 0.09134 0.36683 0.0
O450 O 0.47174 0.07947 0.37421 0.0
Zn451 Zn 0.29327 0.13733 0.40096 0.0
N452 N 0.37563 0.08783 0.34664 0.0
C453 C 0.31982 0.12526 0.32589 0.0
C454 C 0.3357 0.1165 0.34381 0.0
C455 C 0.39967 0.06573 0.33185 0.0
N456 N 0.34397 0.10415 0.31127 0.0
C457 C 0.38338 0.07428 0.31357 0.0
O458 O 0.30443 0.05636 0.39718 0.0
C459 C 0.32749 1.01549 0.39073 0.0
O460 O 0.3639 1.02098 0.38161 0.0
H461 H 0.31658 0.1335 0.35542 0.0
H462 H 0.43134 0.04291 0.33427 0.0
C463 C 0.27963 0.14464 0.44071 0.0
C464 C 0.29297 0.16051 0.45998 0.0
C465 C 0.35713 0.21103 0.45185 0.0
C466 C 0.34453 0.19418 0.43301 0.0
N467 N 0.30584 0.16184 0.42771 0.0
N468 N 0.33138 0.19369 0.46478 0.0
H469 H 0.24938 0.11877 0.43588 0.0
C470 C 0.49957 0.06293 0.38694 0.0
O471 O 0.48111 0.0497 0.40171 0.0
O472 O 0.22264 0.14251 0.39224 0.0
H473 H 0.36612 0.20642 0.42275 0.0
H474 H 0.28847 0.14866 0.3236 0.0
H475 H 0.38768 0.23699 0.45621 0.0
Zn476 Zn 0.71583 0.61548 0.11529 0.0
C477 C 0.64267 0.73238 0.14151 0.0
N478 N 0.67273 0.76084 0.13319 0.0
C479 C 0.70377 0.72443 0.12664 0.0
N480 N 0.69336 0.67639 0.13063 0.0
N481 N 0.65606 0.68095 0.14066 0.0
C482 C 0.55766 0.56986 0.14079 0.0
O483 O 0.58811 0.54761 0.12937 0.0
O484 O 0.78655 0.61825 0.11514 0.0
Zn485 Zn 0.64048 0.62852 0.15657 0.0
N486 N 0.6844 0.60969 0.09009 0.0
C487 C 0.61208 0.58693 0.07127 0.0
C488 C 0.63777 0.59489 0.0887 0.0
C489 C 0.70644 0.61797 0.07464 0.0
N490 N 0.63403 0.59422 0.05584 0.0
C491 C 0.68056 0.60979 0.05689 0.0
O492 O 0.67414 0.55801 0.15215 0.0
C493 C 0.69534 0.52992 0.13944 0.0
O494 O 0.70719 0.54813 0.12509 0.0
H495 H 0.62089 0.58887 0.1011 0.0
H496 H 0.74373 0.62943 0.07611 0.0
C497 C 0.64623 0.62713 0.19619 0.0
C498 C 0.65865 0.64624 0.21527 0.0
C499 C 0.69293 0.72311 0.20626 0.0
C500 C 0.68062 0.70385 0.18749 0.0
N501 N 0.65723 0.6565 0.18281 0.0
N502 N 0.68179 0.69402 0.21961 0.0
H503 H 0.62901 0.58893 0.19178 0.0
C504 C 0.80708 0.61418 0.13114 0.0
O505 O 0.78121 0.61654 0.14552 0.0
O506 O 0.57141 0.60844 0.1532 0.0
H507 H 0.68991 0.72639 0.17676 0.0
H508 H 0.57501 0.57474 0.06997 0.0
H509 H 0.71147 0.7608 0.21021 0.0
Zn510 Zn 0.18336 0.91409 0.89398 0.0
C511 C 0.06885 0.9718 0.87221 0.0
N512 N 0.04804 0.9289 0.87696 0.0
C513 C 0.08495 0.89716 0.88008 0.0
N514 N 0.12681 0.92015 0.87744 0.0
N515 N 0.11653 0.96634 0.87194 0.0
C516 C 0.15112 0.09451 0.88429 0.0
O517 O 0.15792 0.05688 0.89475 0.0
O518 O 0.19537 0.83742 0.89335 0.0
Zn519 Zn 0.15924 1.00526 0.85884 0.0
N520 N 0.16882 0.94343 0.91944 0.0
C521 C 0.11898 0.99808 0.939 0.0
C522 C 0.13189 0.97756 0.9213 0.0
C523 C 0.19309 0.92836 0.93484 0.0
N524 N 0.14313 0.98327 0.95429 0.0
C525 C 0.18002 0.94886 0.95291 0.0
O526 O 0.23264 0.99917 0.86505 0.0
C527 C 0.26115 0.97791 0.87637 0.0
O528 O 0.24511 0.94807 0.88725 0.0
H529 H 0.11202 0.98851 0.90917 0.0
H530 H 0.22124 0.89983 0.93288 0.0
C531 C 0.1563 1.00732 0.81788 0.0
C532 C 0.14503 0.9839 0.79909 0.0
C533 C 0.10849 0.91117 0.80981 0.0
C534 C 0.12037 0.93379 0.82821 0.0
N535 N 0.14376 0.98142 0.83204 0.0
N536 N 0.12125 0.93646 0.79579 0.0
H537 H 0.17589 0.04452 0.82122 0.0
C538 C 0.21426 0.81269 0.87938 0.0
O539 O 0.22522 0.83849 0.86585 0.0
O540 O 0.14624 0.08152 0.8666 0.0
H541 H 0.11136 0.91281 0.83934 0.0
H542 H 0.08967 0.0253 0.94058 0.0
H543 H 0.08983 0.87337 0.80667 0.0
H544 H 0.04171 0.31647 0.1023 0.0
H545 H 0.08494 0.34258 0.16125 0.0
H546 H 1.01308 0.29606 0.1675 0.0
H547 H 0.95288 0.22667 0.15506 0.0
H548 H 0.91584 0.19262 0.09576 0.0
H549 H 0.96846 0.26474 0.09066 0.0
C550 C 0.0339 0.31449 0.1166 0.0
C551 C 0.0684 0.33309 0.13133 0.0
C552 C 0.99377 0.28515 0.11989 0.0
C553 C 0.05862 0.32941 0.14975 0.0
C554 C 0.01783 0.30192 0.15325 0.0
C555 C 0.95411 0.23735 0.14115 0.0
C556 C 0.93034 0.20447 0.12579 0.0
C557 C 0.98703 0.27657 0.13831 0.0
C558 C 0.93306 0.21776 0.1078 0.0
C559 C 0.96408 0.25835 0.10488 0.0
H560 H 0.95092 0.81544 0.35887 0.0
H561 H 0.97095 0.8665 0.41825 0.0
H562 H 0.02407 0.79202 0.42168 0.0
H563 H 0.08209 0.73155 0.4064 0.0
H564 H 0.06899 0.68884 0.34654 0.0
H565 H 0.99518 0.73908 0.34452 0.0
C566 C 0.9648 0.80827 0.37269 0.0
C567 C 0.95715 0.84627 0.38831 0.0
C568 C 0.99766 0.76736 0.37428 0.0
C569 C 0.9758 0.83744 0.4061 0.0
C570 C 1.00697 0.79535 0.40797 0.0
C571 C 0.06145 0.73087 0.39305 0.0
C572 C 0.08064 0.70649 0.37662 0.0
C573 C 0.02078 0.76263 0.39198 0.0
C574 C 0.0545 0.70671 0.35934 0.0
C575 C 1.01272 0.73623 0.3582 0.0
H576 H 0.47854 0.71169 0.65938 0.0
H577 H 0.43402 0.65718 0.60155 0.0
H578 H 0.48604 0.72353 0.59198 0.0
H579 H 0.5599 0.77716 0.60004 0.0
H580 H 0.60883 0.82531 0.65785 0.0
H581 H 0.53907 0.78297 0.66762 0.0
C582 C 0.47834 0.71648 0.64474 0.0
C583 C 0.45264 0.67967 0.63116 0.0
C584 C 0.51025 0.7529 0.6394 0.0
C585 C 0.45293 0.68549 0.61224 0.0
C586 C 0.48348 0.72284 0.60678 0.0
C587 C 0.55387 0.7806 0.61476 0.0
C588 C 0.58935 0.80437 0.62824 0.0
C589 C 0.51468 0.75397 0.62019 0.0
C590 C 0.58177 0.8081 0.64725 0.0
C591 C 0.54214 0.78302 0.65281 0.0
H592 H 0.42113 0.24191 0.85031 0.0
H593 H 0.45527 0.3901 0.88605 0.0
H594 H 0.53904 0.3673 0.88835 0.0
H595 H 0.59992 0.30209 0.88336 0.0
H596 H 0.57288 0.15848 0.84446 0.0
H597 H 0.48803 0.18207 0.84035 0.0
C598 C 0.44735 0.26952 0.85815 0.0
C599 C 0.43255 0.31793 0.86782 0.0
C600 C 0.49582 0.25602 0.85941 0.0
C601 C 0.46626 0.35346 0.87809 0.0
C602 C 0.51396 0.34001 0.87968 0.0
C603 C 0.57571 0.27563 0.87387 0.0
C604 C 0.5918 0.22681 0.8651 0.0
C605 C 0.52867 0.29084 0.87089 0.0
C606 C 0.56028 0.19402 0.85251 0.0
C607 C 0.5122 0.20814 0.84991 0.0
H608 H 0.94608 0.71814 0.85437 0.0
H609 H 0.94565 0.71838 0.91372 0.0
H610 H 0.01937 0.77067 0.91915 0.0
H611 H 0.06903 0.83701 0.90723 0.0
H612 H 0.0739 0.8306 0.84778 0.0
H613 H 0.01491 0.75872 0.84207 0.0
C614 C 0.96375 0.72681 0.86836 0.0
C615 C 0.94013 0.715 0.88363 0.0
C616 C 1.0066 0.75685 0.87139 0.0
C617 C 0.96318 0.72691 0.90172 0.0
C618 C 1.00512 0.75759 0.90487 0.0
C619 C 0.05951 0.81748 0.89308 0.0
C620 C 0.07544 0.83947 0.87795 0.0
C621 C 0.02525 0.77589 0.88989 0.0
C622 C 0.0624 0.81415 0.85967 0.0
C623 C 0.02787 0.77357 0.85637 0.0
H624 H 0.11116 0.28856 0.62923 0.0
H625 H 0.09469 0.16526 0.66314 0.0
H626 H 0.01448 0.19719 0.66941 0.0
H627 H 0.94564 0.25354 0.66147 0.0
H628 H 0.96284 0.36877 0.62445 0.0
H629 H 0.04712 0.34824 0.62373 0.0
C630 C 0.09064 0.26858 0.63823 0.0
C631 C 0.10827 0.22251 0.64499 0.0
C632 C 0.04479 0.28672 0.64139 0.0
C633 C 0.08112 0.19867 0.65694 0.0
C634 C 0.03547 0.21751 0.66067 0.0
C635 C 0.96841 0.27527 0.65378 0.0
C636 C 0.94861 0.31475 0.64378 0.0
C637 C 0.01629 0.26036 0.65237 0.0
C638 C 0.97783 0.34093 0.6332 0.0
C639 C 0.02578 0.32814 0.63242 0.0
H640 H 0.47128 0.20908 0.35698 0.0
H641 H 0.45491 0.21527 0.41573 0.0
H642 H 0.52302 0.27594 0.42342 0.0
H643 H 0.56877 0.34728 0.41251 0.0
H644 H 0.58888 0.33682 0.35389 0.0
H645 H 0.53932 0.25674 0.34704 0.0
C646 C 0.48467 0.22089 0.37146 0.0
C647 C 0.45776 0.20848 0.38575 0.0
C648 C 0.5239 0.25626 0.37578 0.0
C649 C 0.47521 0.22424 0.40448 0.0
C650 C 0.51372 0.25984 0.40889 0.0
C651 C 0.56482 0.32546 0.39844 0.0
C652 C 0.58187 0.3482 0.3837 0.0
C653 C 0.53589 0.27925 0.39458 0.0
C654 C 0.57619 0.3199 0.36548 0.0
C655 C 0.54712 0.27446 0.3615 0.0
H656 H 0.4348 0.78597 0.16375 0.0
H657 H 0.44947 0.89406 0.124 0.0
H658 H 0.53405 0.87464 0.12344 0.0
H659 H 0.59938 0.81675 0.1301 0.0
H660 H 0.58442 0.7014 0.16725 0.0
H661 H 0.50398 0.73252 0.1727 0.0
C662 C 0.45706 0.80634 0.15543 0.0
C663 C 0.43661 0.84328 0.14457 0.0
C664 C 0.50496 0.79208 0.1542 0.0
C665 C 0.4651 0.86799 0.13331 0.0
C666 C 0.51318 0.85586 0.13264 0.0
C667 C 0.57902 0.79876 0.13967 0.0
C668 C 0.59731 0.75518 0.14773 0.0
C669 C 0.53292 0.8166 0.14249 0.0
C670 C 0.57043 0.73302 0.16018 0.0
C671 C 0.52462 0.75143 0.16347 0.0
H672 H 0.26138 0.07728 0.0992 0.0
H673 H 0.32966 0.11987 0.15484 0.0
H674 H 0.30465 0.21165 0.15498 0.0
H675 H 0.25535 0.27868 0.14072 0.0
H676 H 0.18855 0.23684 0.08498 0.0
H677 H 0.22195 0.14787 0.08324 0.0
C678 C 0.27125 0.10668 0.1113 0.0
C679 C 0.29715 0.09065 0.1271 0.0
C680 C 0.2574 0.16044 0.11119 0.0
C681 C 0.30979 0.13019 0.14248 0.0
C682 C 0.29543 0.18311 0.14258 0.0
C683 C 0.25025 0.25108 0.12781 0.0
C684 C 0.2205 0.26569 0.11274 0.0
C685 C 0.26854 0.19877 0.12715 0.0
C686 C 0.21253 0.22785 0.09654 0.0
C687 C 0.23086 0.17627 0.0957 0.0
H688 H 0.02305 0.9833 0.34855 0.0
H689 H 0.97965 0.06137 0.40109 0.0
H690 H 0.05007 0.11913 0.40508 0.0
H691 H 0.13139 0.1355 0.3964 0.0
H692 H 0.17525 0.05481 0.34407 0.0
H693 H 0.09784 1.01075 0.33723 0.0
C694 C 0.02813 1.01453 0.36046 0.0
C695 C 0.99557 1.01889 0.37426 0.0
C696 C 0.06975 0.04631 0.36298 0.0
C697 C 1.00305 0.05859 0.38989 0.0
C698 C 0.04404 0.0909 0.39238 0.0
C699 C 0.1236 0.10934 0.38329 0.0
C700 C 0.15968 0.09778 0.37099 0.0
C701 C 0.07875 0.08346 0.37943 0.0
C702 C 0.14864 0.06396 0.35399 0.0
C703 C 0.10425 0.03855 0.35003 0.0
H704 H 0.27343 0.7642 0.61445 0.0
H705 H 0.35611 0.79965 0.66759 0.0
H706 H 0.32266 0.88887 0.67225 0.0
H707 H 0.26955 0.95747 0.66094 0.0
H708 H 0.18625 0.9185 0.60795 0.0
H709 H 0.21975 0.83032 0.60372 0.0
C710 C 0.28443 0.7915 0.62701 0.0
C711 C 0.31744 0.77535 0.64057 0.0
C712 C 0.26447 0.84221 0.62975 0.0
C713 C 0.33077 0.81111 0.65689 0.0
C714 C 0.31155 0.86212 0.65959 0.0
C715 C 0.25837 0.92938 0.64862 0.0
C716 C 0.22545 0.94484 0.6348 0.0
C717 C 0.27812 0.87814 0.64614 0.0
C718 C 0.2117 0.908 0.6188 0.0
C719 C 0.2309 0.85741 0.6163 0.0
H720 H 0.48787 0.99074 0.89033 0.0
H721 H 0.47189 0.09942 0.85004 0.0
H722 H 0.38513 0.08688 0.84786 0.0
H723 H 0.31267 0.04359 0.85725 0.0
H724 H 0.33114 0.93424 0.89745 0.0
H725 H 0.41695 0.94825 0.8996 0.0
C726 C 0.46563 1.01192 0.88105 0.0
C727 C 0.48718 0.04656 0.87047 0.0
C728 C 0.41553 1.00406 0.87976 0.0
C729 C 0.45694 0.07316 0.85855 0.0
C730 C 0.40703 0.06567 0.85723 0.0
C731 C 0.33538 0.02273 0.86648 0.0
C732 C 0.31444 0.98765 0.87715 0.0
C733 C 0.38571 0.03105 0.86774 0.0
C734 C 0.34527 0.96141 0.88902 0.0
C735 C 0.39478 0.96941 0.89029 0.0
H736 H 0.34695 0.91247 0.37267 0.0
H737 H 0.26515 0.99467 0.41558 0.0
H738 H 0.22734 0.91169 0.41937 0.0
H739 H 0.20995 0.81723 0.40859 0.0
H740 H 0.28621 0.73333 0.36468 0.0
H741 H 0.33407 0.8134 0.36376 0.0
C742 C 0.32142 0.91221 0.38306 0.0
C743 C 0.30916 0.96116 0.3937 0.0
C744 C 0.29874 0.86319 0.38518 0.0
C745 C 0.27553 0.95881 0.40697 0.0
C746 C 0.25369 0.91088 0.40924 0.0
C747 C 0.23842 0.81565 0.39931 0.0
C748 C 0.24531 0.76771 0.38726 0.0
C749 C 0.26416 0.86297 0.39822 0.0
C750 C 0.2813 0.76792 0.37486 0.0
C751 C 0.30798 0.81465 0.37399 0.0
H752 H 0.51732 0.9853 0.65023 0.0
H753 H 0.51394 0.94542 0.59017 0.0
H754 H 0.43531 0.98488 0.58682 0.0
H755 H 0.36746 0.03028 0.60097 0.0
H756 H 0.37148 0.07083 0.66105 0.0
H757 H 0.45026 0.03208 0.66431 0.0
C758 C 0.4993 0.98496 0.6364 0.0
C759 C 0.52137 0.96224 0.62047 0.0
C760 C 0.45441 1.00825 0.63456 0.0
C761 C 0.49771 0.96259 0.60266 0.0
C762 C 0.45279 0.98525 0.60073 0.0
C763 C 0.38568 0.03101 0.61478 0.0
C764 C 0.36354 0.05345 0.63073 0.0
C765 C 0.43088 1.00831 0.61658 0.0
C766 C 0.38768 0.05394 0.64851 0.0
C767 C 0.43268 0.03157 0.65042 0.0
H768 H 0.13776 0.18275 0.86796 0.0
H769 H 0.19883 0.12843 0.91824 0.0
H770 H 0.25258 0.20497 0.92451 0.0
H771 H 0.29654 0.2713 0.91063 0.0
H772 H 0.23776 0.32173 0.85948 0.0
H773 H 0.16859 0.26365 0.85868 0.0
C774 C 0.16161 0.18881 0.88065 0.0
C775 C 0.16614 0.14902 0.89209 0.0
C776 C 0.19361 0.23175 0.88379 0.0
C777 C 0.19575 0.15793 0.90887 0.0
C778 C 0.2269 0.20145 0.9124 0.0
C779 C 0.26756 0.27069 0.89977 0.0
C780 C 0.27162 0.30005 0.88513 0.0
C781 C 0.22861 0.23609 0.89915 0.0
C782 C 0.2345 0.2996 0.871 0.0
C783 C 0.19527 0.26609 0.87044 0.0
H784 H 0.11193 0.91955 0.11141 0.0
H785 H 0.1629 0.97759 0.16853 0.0
H786 H 0.08645 1.01873 0.17409 0.0
H787 H 1.00967 0.05061 0.16135 0.0
H788 H 0.96065 0.99699 0.10393 0.0
H789 H 0.0302 0.94085 0.10006 0.0
C790 C 0.10595 0.94006 0.1252 0.0
C791 C 0.14366 0.94599 0.13941 0.0
C792 C 0.06173 0.96448 0.12831 0.0
C793 C 0.13497 0.9728 0.1572 0.0
C794 C 0.0911 0.99652 0.16044 0.0
C795 C 1.01324 0.02461 0.1483 0.0
C796 C 0.97884 0.0261 0.13322 0.0
C797 C 0.05477 0.99429 0.14593 0.0
C798 C 0.98509 0.99427 0.11607 0.0
C799 C 0.02562 0.96309 0.11371 0.0
H800 H 0.74816 0.77624 0.86936 0.0
H801 H 0.82539 0.81338 0.92339 0.0
H802 H 0.79466 0.90378 0.92657 0.0
H803 H 0.75485 0.97654 0.91188 0.0
H804 H 0.67684 0.93816 0.85781 0.0
H805 H 0.69864 0.84525 0.85677 0.0
C806 C 0.75619 0.80325 0.88227 0.0
C807 C 0.78786 0.78697 0.89641 0.0
C808 C 0.73946 0.8561 0.8837 0.0
C809 C 0.79967 0.82374 0.91261 0.0
C810 C 0.78289 0.87607 0.91423 0.0
C811 C 0.7421 0.94779 0.89996 0.0
C812 C 0.71451 0.96523 0.88484 0.0
C813 C 0.75426 0.89346 0.89953 0.0
C814 C 0.69811 0.92667 0.86966 0.0
C815 C 0.71063 0.87315 0.86903 0.0
H816 H 0.04034 0.96221 0.61667 0.0
H817 H 0.01564 0.06249 0.66824 0.0
H818 H 0.93876 1.01834 0.6688 0.0
H819 H 0.87659 0.95584 0.65346 0.0
H820 H 0.90071 0.85689 0.60152 0.0
H821 H 0.98059 0.89509 0.60256 0.0
C822 C 0.01811 0.97441 0.62803 0.0
C823 C 0.03322 1.01595 0.64225 0.0
C824 C 0.97419 0.94879 0.62829 0.0
C825 C 1.00455 0.03074 0.65707 0.0
C826 C 0.96069 1.00549 0.65742 0.0
C827 C 0.8996 0.94185 0.64254 0.0
C828 C 0.88261 0.90393 0.62735 0.0
C829 C 0.94493 0.96494 0.64297 0.0
C830 C 0.91289 0.88627 0.61331 0.0
C831 C 0.95843 0.90833 0.61383 0.0
H832 H 0.77631 0.30898 0.40985 0.0
H833 H 0.7331 0.29081 0.35071 0.0
H834 H 0.79158 0.22092 0.34475 0.0
H835 H 0.8488 0.16028 0.35677 0.0
H836 H 0.88925 0.1757 0.41611 0.0
H837 H 0.83953 0.2539 0.4215 0.0
C838 C 0.77952 0.28945 0.39567 0.0
C839 C 0.74991 0.30373 0.38076 0.0
C840 C 0.81329 0.24998 0.39238 0.0
C841 C 0.75521 0.27954 0.3624 0.0
C842 C 0.78877 0.24003 0.35899 0.0
C843 C 0.84775 0.18147 0.37084 0.0
C844 C 0.8717 0.16176 0.38609 0.0
C845 C 0.8174 0.22445 0.37392 0.0
C846 C 0.87054 0.18995 0.40419 0.0
C847 C 0.84172 0.23416 0.4073 0.0
H848 H 0.67323 0.10526 0.12643 0.0
H849 H 0.72331 0.98345 0.15843 0.0
H850 H 0.64093 0.95667 0.16124 0.0
H851 H 0.55302 0.96687 0.15414 0.0
H852 H 0.50555 0.08878 0.12158 0.0
H853 H 0.58736 0.11575 0.11962 0.0
C854 C 0.6664 0.07302 0.13415 0.0
C855 C 0.70522 0.04682 0.14224 0.0
C856 C 0.61867 0.0574 0.13562 0.0
C857 C 0.69474 1.00482 0.15206 0.0
C858 C 0.64732 0.98929 0.15366 0.0
C859 C 0.56054 0.99942 0.14667 0.0
C860 C 0.52223 0.02544 0.13802 0.0
C861 C 0.60872 1.01512 0.14543 0.0
C862 C 0.53349 0.06748 0.12837 0.0
C863 C 0.58066 0.08324 0.12722 0.0
H864 H 0.76881 0.24533 0.6505 0.0
H865 H 0.81023 0.23433 0.59433 0.0
H866 H 0.78092 0.14263 0.5875 0.0
H867 H 0.75303 0.06032 0.5989 0.0
H868 H 0.71246 0.07303 0.65551 0.0
H869 H 0.73213 0.16738 0.66066 0.0
C870 C 0.76898 0.22391 0.63642 0.0
C871 C 0.78999 0.24859 0.62274 0.0
C872 C 0.75387 0.16983 0.63286 0.0
C873 C 0.79218 0.21836 0.60492 0.0
C874 C 0.77655 0.16487 0.60116 0.0
C875 C 0.74821 0.08372 0.61234 0.0
C876 C 0.73156 0.05836 0.62683 0.0
C877 C 0.75898 0.13932 0.61524 0.0
C878 C 0.72522 0.0904 0.64402 0.0
C879 C 0.73641 0.14488 0.64703 0.0
H880 H 0.71637 0.04206 0.36666 0.0
H881 H 0.72983 0.98373 0.41985 0.0
H882 H 0.64564 0.99907 0.42334 0.0
H883 H 0.56701 0.02669 0.41129 0.0
H884 H 0.55161 0.08526 0.35826 0.0
H885 H 0.63687 0.07241 0.35487 0.0
C886 C 0.70104 0.03297 0.37908 0.0
C887 C 0.73027 1.01158 0.39294 0.0
C888 C 0.65175 0.0418 0.38107 0.0
C889 C 0.70901 1.00017 0.40888 0.0
C890 C 0.66049 1.00887 0.41092 0.0
C891 C 0.58211 0.03687 0.39897 0.0
C892 C 0.55224 0.0568 0.38503 0.0
C893 C 0.63135 0.0293 0.39709 0.0
C894 C 0.57319 0.06972 0.36924 0.0
C895 C 0.62218 0.06233 0.36728 0.0
H896 H 0.88822 0.85281 0.13923 0.0
H897 H 0.83173 0.90285 0.08761 0.0
H898 H 0.77645 0.82755 0.08181 0.0
H899 H 0.72916 0.76573 0.09652 0.0
H900 H 0.7827 0.72165 0.14937 0.0
H901 H 0.8545 0.77482 0.14943 0.0
C902 C 0.86513 0.84591 0.12635 0.0
C903 C 0.86227 0.88438 0.11435 0.0
C904 C 0.83218 0.80383 0.1235 0.0
C905 C 0.83355 0.87442 0.09737 0.0
C906 C 0.80152 0.83161 0.09412 0.0
C907 C 0.75773 0.7661 0.10753 0.0
C908 C 0.7514 0.73982 0.12281 0.0
C909 C 0.79798 0.79879 0.10787 0.0
C910 C 0.78781 0.74069 0.13725 0.0
C911 C 0.82851 0.77174 0.13743 0.0
H912 H 0.04319 0.05185 0.89751 0.0
H913 H 0.0254 0.98933 0.83893 0.0
H914 H 0.9519 0.03947 0.83545 0.0
H915 H 0.88539 0.0865 0.8505 0.0
H916 H 0.90177 0.14495 0.90967 0.0
H917 H 0.98292 0.1117 0.91149 0.0
C918 C 0.02441 0.05148 0.88381 0.0
C919 C 0.04012 1.01788 0.8684 0.0
C920 C 0.98099 0.07844 0.88218 0.0
C921 C 0.01469 1.01608 0.85085 0.0
C922 C 0.97213 0.04397 0.84897 0.0
C923 C 0.90701 0.09301 0.86373 0.0
C924 C 0.88689 0.11742 0.87999 0.0
C925 C 0.95369 0.07303 0.86475 0.0
C926 C 0.91586 0.12591 0.89694 0.0
C927 C 0.9624 0.10676 0.89802 0.0
H928 H 0.78137 0.55061 0.59734 0.0
H929 H 0.84488 0.59469 0.65366 0.0
H930 H 0.82134 0.68663 0.65294 0.0
H931 H 0.77388 0.75322 0.63772 0.0
H932 H 0.71177 0.7098 0.58133 0.0
H933 H 0.74464 0.62077 0.58044 0.0
C934 C 0.79061 0.58038 0.60939 0.0
C935 C 0.81461 0.56476 0.62563 0.0
C936 C 0.77759 0.63416 0.60879 0.0
C937 C 0.82648 0.60472 0.64096 0.0
C938 C 0.81294 0.65771 0.64057 0.0
C939 C 0.76979 0.72526 0.62487 0.0
C940 C 0.7414 0.73938 0.60937 0.0
C941 C 0.78769 0.67295 0.6247 0.0
C942 C 0.7347 0.70115 0.59323 0.0
C943 C 0.75269 0.64955 0.59287 0.0
H944 H 0.66368 0.55946 0.86231 0.0
H945 H 0.62605 0.67572 0.90813 0.0
H946 H 0.54543 0.63802 0.90525 0.0
H947 H 0.48751 0.56906 0.89093 0.0
H948 H 0.52629 0.45102 0.84583 0.0
H949 H 0.60514 0.49228 0.84738 0.0
C950 C 0.6377 0.57715 0.8715 0.0
C951 C 0.65081 0.62036 0.88542 0.0
C952 C 0.59197 0.55446 0.87009 0.0
C953 C 0.61679 0.64247 0.8973 0.0
C954 C 0.57082 0.62075 0.89573 0.0
C955 C 0.51319 0.55228 0.88143 0.0
C956 C 0.50115 0.5069 0.86833 0.0
C957 C 0.55837 0.57614 0.88241 0.0
C958 C 0.53472 0.48588 0.85606 0.0
C959 C 0.57975 0.50951 0.85691 0.0
H960 H 0.75633 0.46902 0.11918 0.0
H961 H 0.66626 0.468 0.16457 0.0
H962 H 0.68978 0.37677 0.16735 0.0
H963 H 0.73422 0.2967 0.15611 0.0
H964 H 0.82327 0.29945 0.11047 0.0
H965 H 0.80183 0.39121 0.10866 0.0
C966 C 0.74153 0.44895 0.12966 0.0
C967 C 0.70917 0.47509 0.14153 0.0
C968 C 0.75512 0.39696 0.13116 0.0
C969 C 0.69109 0.44865 0.15522 0.0
C970 C 0.70452 0.39656 0.15681 0.0
C971 C 0.74916 0.31754 0.14587 0.0
C972 C 0.78003 0.29124 0.13337 0.0
C973 C 0.73632 0.37025 0.14476 0.0
C974 C 0.79912 0.31867 0.12015 0.0
C975 C 0.78689 0.37111 0.11909 0.0
H976 H 0.80964 0.54952 0.36245 0.0
H977 H 0.82368 0.47787 0.41305 0.0
H978 H 0.90953 0.49102 0.41523 0.0
H979 H 0.98162 0.52076 0.4028 0.0
H980 H 0.97022 0.59217 0.35226 0.0
H981 H 0.88323 0.58135 0.35015 0.0
C982 C 0.83139 0.53701 0.37402 0.0
C983 C 0.80935 0.51256 0.38756 0.0
C984 C 0.88168 0.54449 0.37521 0.0
C985 C 0.83882 0.49668 0.40236 0.0
C986 C 0.88831 0.50416 0.40365 0.0
C987 C 0.96032 0.53418 0.39129 0.0
C988 C 0.98307 0.55714 0.37766 0.0
C989 C 0.91024 0.52769 0.39014 0.0
C990 C 0.95419 0.57416 0.36293 0.0
C991 C 0.90423 0.56797 0.36173 0.0
H992 H 0.83838 0.43366 0.87752 0.0
H993 H 0.74345 0.50117 0.91823 0.0
H994 H 0.71472 0.41267 0.92105 0.0
H995 H 0.70816 0.31724 0.90905 0.0
H996 H 0.79932 0.24852 0.86749 0.0
H997 H 0.83901 0.3349 0.86855 0.0
C998 C 0.81177 0.42913 0.88718 0.0
C999 C 0.79294 0.47513 0.89748 0.0
C1000 C 0.79506 0.37725 0.88882 0.0
C1001 C 0.7587 0.46744 0.90999 0.0
C1002 C 0.74217 0.41645 0.91167 0.0
C1003 C 0.73859 0.32038 0.90099 0.0
C1004 C 0.75141 0.27535 0.88859 0.0
C1005 C 0.75928 0.37112 0.9009 0.0
C1006 C 0.78961 0.28136 0.87768 0.0
C1007 C 0.81146 0.33146 0.87791 0.0
H1008 H 0.86149 0.57216 0.10356 0.0
H1009 H 0.86385 0.6173 0.16339 0.0
H1010 H 0.94166 0.57685 0.16751 0.0
H1011 H 1.0067 0.52456 0.15433 0.0
H1012 H 1.00473 0.47866 0.09455 0.0
H1013 H 0.92865 0.52305 0.09021 0.0
C1014 C 0.87943 0.57394 0.11746 0.0
C1015 C 0.85699 0.59752 0.13315 0.0
C1016 C 0.92373 0.54967 0.11977 0.0
C1017 C 0.88042 0.59919 0.1511 0.0
C1018 C 0.92476 0.57584 0.15348 0.0
C1019 C 0.98954 0.52405 0.14035 0.0
C1020 C 1.01101 0.49801 0.1248 0.0
C1021 C 0.94623 0.55003 0.13796 0.0
C1022 C 0.98873 0.4983 0.10676 0.0
C1023 C 0.94535 0.52379 0.10426 0.0
H1024 H 0.77355 0.80712 0.41426 0.0
H1025 H 0.7583 0.81422 0.3549 0.0
H1026 H 0.69289 0.74942 0.3509 0.0
H1027 H 0.64909 0.68267 0.36358 0.0
H1028 H 0.66968 0.66996 0.42247 0.0
H1029 H 0.72179 0.74822 0.42761 0.0
C1030 C 0.75598 0.79436 0.40044 0.0
C1031 C 0.77144 0.81378 0.38478 0.0
C1032 C 0.71877 0.75731 0.39827 0.0
C1033 C 0.74746 0.79862 0.36706 0.0
C1034 C 0.70991 0.76208 0.36481 0.0
C1035 C 0.66398 0.69775 0.37765 0.0
C1036 C 0.65734 0.66953 0.3925 0.0
C1037 C 0.69633 0.7401 0.38024 0.0
C1038 C 0.67534 0.69046 0.41073 0.0
C1039 C 0.70565 0.73466 0.41363 0.0
H1040 H 0.61931 0.39463 0.61596 0.0
H1041 H 0.68675 0.46538 0.6695 0.0
H1042 H 0.61259 0.50699 0.67782 0.0
H1043 H 0.53212 0.5349 0.66826 0.0
H1044 H 0.46285 0.46564 0.61521 0.0
H1045 H 0.53271 0.41101 0.60869 0.0
C1046 C 0.61753 0.41825 0.62958 0.0
C1047 C 0.65937 0.42739 0.64186 0.0
C1048 C 0.57401 0.44245 0.63448 0.0
C1049 C 0.65581 0.45795 0.65954 0.0
C1050 C 0.61315 0.48194 0.6644 0.0
C1051 C 0.53149 0.50599 0.65567 0.0
C1052 C 0.4918 0.50368 0.64245 0.0
C1053 C 0.57246 0.47595 0.65179 0.0
C1054 C 0.49211 0.46705 0.62593 0.0
C1055 C 0.53269 0.4366 0.62201 0.0
H1056 H 0.25891 0.26592 0.36647 0.0
H1057 H 0.3403 0.29975 0.41977 0.0
H1058 H 0.30683 0.38848 0.4248 0.0
H1059 H 0.26185 0.46185 0.41228 0.0
H1060 H 0.17723 0.42671 0.35959 0.0
H1061 H 0.20409 0.33496 0.3562 0.0
C1062 C 0.26745 0.29165 0.37962 0.0
C1063 C 0.30107 0.27445 0.39303 0.0
C1064 C 0.24842 0.3439 0.38231 0.0
C1065 C 0.31318 0.3102 0.40952 0.0
C1066 C 0.29472 0.36185 0.41224 0.0
C1067 C 0.24867 0.434 0.40018 0.0
C1068 C 0.21747 0.45225 0.38618 0.0
C1069 C 0.2635 0.38002 0.39846 0.0
C1070 C 0.20094 0.41465 0.3707 0.0
C1071 C 0.21648 0.36174 0.36869 0.0
H1072 H 0.35043 0.4946 0.15147 0.0
H1073 H 0.38234 0.37336 0.10627 0.0
H1074 H 0.4624 0.41122 0.10665 0.0
H1075 H 0.52113 0.48164 0.11866 0.0
H1076 H 0.48705 0.60518 0.16287 0.0
H1077 H 0.40931 0.56384 0.16379 0.0
C1078 C 0.37518 0.4758 0.14194 0.0
C1079 C 0.36077 0.43111 0.12894 0.0
C1080 C 0.42024 0.4988 0.1418 0.0
C1081 C 0.39288 0.40771 0.11645 0.0
C1082 C 0.43842 0.42954 0.11658 0.0
C1083 C 0.49666 0.49964 0.12846 0.0
C1084 C 0.50976 0.54647 0.14063 0.0
C1085 C 0.45206 0.47571 0.12893 0.0
C1086 C 0.47774 0.5692 0.1533 0.0
C1087 C 0.43339 0.54548 0.15391 0.0
H1088 H 0.27181 0.75367 0.85637 0.0
H1089 H 0.18196 0.74516 0.90141 0.0
H1090 H 0.20379 0.65299 0.9021 0.0
H1091 H 0.24988 0.57646 0.89079 0.0
H1092 H 0.34118 0.58353 0.84611 0.0
H1093 H 0.31703 0.67505 0.84439 0.0
C1094 C 0.2568 0.73148 0.86624 0.0
C1095 C 0.22559 0.7562 0.8789 0.0
C1096 C 0.2699 0.67859 0.86671 0.0
C1097 C 0.20641 0.72711 0.89163 0.0
C1098 C 0.21883 0.67444 0.89204 0.0
C1099 C 0.26475 0.59788 0.88067 0.0
C1100 C 0.29762 0.57334 0.86871 0.0
C1101 C 0.25093 0.6501 0.87981 0.0
C1102 C 0.31591 0.60159 0.85553 0.0
C1103 C 0.30215 0.65387 0.85454 0.0
H1104 H 0.04038 0.53811 0.62298 0.0
H1105 H 0.05628 0.42772 0.66276 0.0
H1106 H 0.14327 0.43734 0.66387 0.0
H1107 H 0.21586 0.47807 0.65355 0.0
H1108 H 0.19722 0.58878 0.61381 0.0
H1109 H 0.11125 0.57793 0.61279 0.0
C1110 C 0.06263 0.51604 0.63197 0.0
C1111 C 0.04106 0.48222 0.64281 0.0
C1112 C 0.11277 0.52189 0.63256 0.0
C1113 C 0.07128 0.45421 0.65429 0.0
C1114 C 0.12129 0.45969 0.6549 0.0
C1115 C 0.19307 0.49981 0.64463 0.0
C1116 C 0.21397 0.5344 0.63377 0.0
C1117 C 0.14265 0.49354 0.64411 0.0
C1118 C 0.18308 0.56198 0.62238 0.0
C1119 C 0.13349 0.55581 0.62176 0.0
H1120 H 0.26212 0.77038 0.1544 0.0
H1121 H 0.29117 0.76126 0.09675 0.0
H1122 H 0.26014 0.67002 0.09038 0.0
H1123 H 0.23333 0.58757 0.1022 0.0
H1124 H 0.20445 0.59903 0.1602 0.0
H1125 H 0.22688 0.69268 0.1653 0.0
C1126 C 0.25934 0.74951 0.14019 0.0
C1127 C 0.27735 0.77463 0.12595 0.0
C1128 C 0.24296 0.6958 0.1368 0.0
C1129 C 0.27565 0.745 0.10788 0.0
C1130 C 0.25892 0.69179 0.10434 0.0
C1131 C 0.23168 0.61054 0.11594 0.0
C1132 C 0.21741 0.58492 0.13082 0.0
C1133 C 0.24399 0.66589 0.11884 0.0
C1134 C 0.21521 0.61651 0.14841 0.0
C1135 C 0.22803 0.67062 0.15138 0.0
H1136 H 0.14821 0.45966 0.90581 0.0
H1137 H 0.14063 0.43196 0.84543 0.0
H1138 H 0.06316 0.47466 0.84399 0.0
H1139 H 1.0003 0.5245 0.85983 0.0
H1140 H 1.00843 0.55376 0.92021 0.0
H1141 H 0.08361 0.50631 0.92168 0.0
C1142 C 0.12924 0.46208 0.89233 0.0
C1143 C 0.1501 0.44276 0.87574 0.0
C1144 C 0.08538 0.48785 0.8916 0.0
C1145 C 0.12528 0.4466 0.85839 0.0
C1146 C 0.08117 0.4713 0.85755 0.0
C1147 C 0.01858 0.52072 0.87333 0.0
C1148 C 0.99908 0.543 0.88989 0.0
C1149 C 0.06146 0.49311 0.87407 0.0
C1150 C 0.02288 0.53717 0.90725 0.0
C1151 C 0.06573 0.50989 0.90811 0.0
H1152 H 0.32784 0.35906 0.5968 0.0
H1153 H 0.40379 0.33511 0.64899 0.0
H1154 H 0.3665 0.24753 0.64666 0.0
H1155 H 0.29589 0.19284 0.63496 0.0
H1156 H 0.21065 0.22616 0.58615 0.0
H1157 H 0.26868 0.29336 0.58138 0.0
C1158 C 0.33751 0.33396 0.60734 0.0
C1159 C 0.36729 0.3541 0.62335 0.0
C1160 C 0.31365 0.28523 0.6065 0.0
C1161 C 0.38004 0.32087 0.63675 0.0
C1162 C 0.35858 0.27087 0.63545 0.0
C1163 C 0.29168 0.2127 0.62268 0.0
C1164 C 0.24944 0.205 0.6109 0.0
C1165 C 0.32283 0.25451 0.62113 0.0
C1166 C 0.24325 0.23161 0.59529 0.0
C1167 C 0.27601 0.2706 0.59278 0.0
H1168 H 0.49977 0.49396 0.34863 0.0
H1169 H 0.56187 0.56547 0.40268 0.0
H1170 H 0.49474 0.62489 0.4064 0.0
H1171 H 0.41148 0.64481 0.39672 0.0
H1172 H 0.3498 0.57455 0.34226 0.0
H1173 H 0.42317 0.52714 0.3362 0.0
C1174 C 0.49945 0.52424 0.36081 0.0
C1175 C 0.53621 0.52603 0.37518 0.0
C1176 C 0.45997 0.55768 0.36302 0.0
C1177 C 0.53492 0.5644 0.39114 0.0
C1178 C 0.49592 0.59782 0.39344 0.0
C1179 C 0.41454 0.62008 0.38337 0.0
C1180 C 0.37484 0.61247 0.37015 0.0
C1181 C 0.45719 0.59307 0.37986 0.0
C1182 C 0.37959 0.58089 0.35279 0.0
C1183 C 0.42159 0.55349 0.3493 0.0
H1184 H 0.34854 0.41331 0.98621 0.0
H1185 H 0.21524 0.4408 0.95532 0.0
H1186 H 0.17251 0.42974 0.98228 0.0
H1187 H 0.17231 0.41343 0.01477 0.0
H1188 H 0.30531 0.38709 0.04594 0.0
H1189 H 0.34842 0.39796 0.01889 0.0
C1190 C 0.31011 0.41698 0.98529 0.0
C1191 C 0.28553 0.42697 0.9684 0.0
C1192 C 0.28548 0.41146 1.00105 0.0
C1193 C 0.23559 0.43163 0.96771 0.0
C1194 C 0.2109 0.42588 0.9833 0.0
C1195 C 0.21076 0.40997 0.01572 0.0
C1196 C 0.23527 0.4 0.0326 0.0
C1197 C 0.23545 0.41578 1.00002 0.0
C1198 C 0.28521 0.39591 0.03342 0.0
C1199 C 0.31 0.40163 0.01783 0.0
H1200 H 0.89249 0.09839 0.24291 0.0
H1201 H 0.86499 0.9446 0.20969 0.0
H1202 H 0.85245 0.90682 0.23798 0.0
H1203 H 0.85387 0.91626 0.27231 0.0
H1204 H 0.8874 0.06964 0.30518 0.0
H1205 H 0.89263 0.10812 0.27681 0.0
C1206 C 0.88372 0.0565 0.24171 0.0
C1207 C 0.87973 0.02472 0.22398 0.0
C1208 C 0.8776 0.0347 0.25806 0.0
C1209 C 0.86774 0.97063 0.22293 0.0
C1210 C 0.86093 0.94876 0.2392 0.0
C1211 C 0.86216 0.95822 0.27338 0.0
C1212 C 0.86962 0.98959 0.29118 0.0
C1213 C 0.86643 0.98031 0.25687 0.0
C1214 C 0.88024 0.044 0.29199 0.0
C1215 C 0.8838 0.06627 0.27565 0.0
H1216 H 0.34404 0.53916 0.52289 0.0
H1217 H 0.30977 0.68826 0.5555 0.0
H1218 H 0.28078 0.72178 0.527 0.0
H1219 H 0.26423 0.7091 0.49293 0.0
H1220 H 0.29819 0.56018 0.46027 0.0
H1221 H 0.32974 0.52746 0.48871 0.0
C1222 C 0.33041 0.57915 0.5239 0.0
C1223 C 0.3286 0.61043 0.54164 0.0
C1224 C 0.3143 0.59872 0.50736 0.0
C1225 C 0.31073 0.66221 0.54236 0.0
C1226 C 0.2945 0.68184 0.52594 0.0
C1227 C 0.27866 0.66945 0.49192 0.0
C1228 C 0.27888 0.63752 0.47426 0.0
C1229 C 0.29593 0.65037 0.5084 0.0
C1230 C 0.29814 0.58639 0.47342 0.0
C1231 C 0.31577 0.5673 0.48979 0.0
H1232 H 0.65025 0.89045 0.73315 0.0
H1233 H 0.64526 0.0298 0.70554 0.0
H1234 H 0.63026 0.08467 0.73482 0.0
H1235 H 0.63093 0.09517 0.76902 0.0
H1236 H 0.63928 0.95747 0.79723 0.0
H1237 H 0.63943 0.89988 0.76701 0.0
C1238 C 0.64513 0.93274 0.73346 0.0
C1239 C 0.64918 0.95571 0.71704 0.0
C1240 C 0.6372 0.96447 0.75053 0.0
C1241 C 0.64192 1.01056 0.71774 0.0
C1242 C 0.6337 0.04222 0.7346 0.0
C1243 C 0.6313 0.05239 0.7685 0.0
C1244 C 0.63515 0.03062 0.78534 0.0
C1245 C 0.63286 1.01986 0.75116 0.0
C1246 C 0.63565 0.97521 0.78449 0.0
C1247 C 0.63649 0.94236 0.7672 0.0
H1248 H 0.7429 0.61231 0.97504 0.0
H1249 H 0.82131 0.75109 1.00327 0.0
H1250 H 0.7924 0.737 0.03284 0.0
H1251 H 0.74434 0.68606 0.05106 0.0
H1252 H 0.66322 0.54979 0.02283 0.0
H1253 H 0.69335 0.56255 0.99312 0.0
C1254 C 0.75319 0.64011 0.98751 0.0
C1255 C 0.78434 0.68293 0.98663 0.0
C1256 C 0.73615 0.63207 1.00469 0.0
C1257 C 0.79767 0.71753 1.0033 0.0
C1258 C 0.78112 0.70961 0.02035 0.0
C1259 C 0.73379 0.65873 0.03846 0.0
C1260 C 0.70198 0.61665 0.03926 0.0
C1261 C 0.75054 0.66689 0.02127 0.0
C1262 C 0.68777 0.58247 0.02265 0.0
C1263 C 0.70494 0.58976 1.00562 0.0
H1264 H 0.19012 0.03889 0.72025 0.0
H1265 H 0.17436 0.19875 0.74808 0.0
H1266 H 0.16161 0.16509 0.77722 0.0
H1267 H 0.15204 0.08949 0.79461 0.0
H1268 H 0.16826 0.93018 0.76619 0.0
H1269 H 0.18328 0.96446 0.73761 0.0
C1270 C 0.18319 0.06645 0.73258 0.0
C1271 C 0.18229 0.12127 0.73181 0.0
C1272 C 0.17613 0.0469 0.74931 0.0
C1273 C 0.17497 0.1563 0.7482 0.0
C1274 C 0.16767 0.13709 0.76491 0.0
C1275 C 0.15964 0.06237 0.78227 0.0
C1276 C 0.15894 1.00725 0.78263 0.0
C1277 C 0.16799 0.08236 0.76564 0.0
C1278 C 0.16817 0.97276 0.76634 0.0
C1279 C 0.17679 0.99228 0.74992 0.0
H1280 H 0.7393 0.44757 0.54598 0.0
H1281 H 0.75836 0.285 0.5216 0.0
H1282 H 0.72716 0.30481 0.49103 0.0
H1283 H 0.69721 0.36906 0.47073 0.0
H1284 H 0.67817 0.53176 0.49503 0.0
H1285 H 0.70648 0.51124 0.52584 0.0
C1286 C 0.73557 0.41627 0.53408 0.0
C1287 C 0.75087 0.36478 0.53616 0.0
C1288 C 0.71833 0.42814 0.51633 0.0
C1289 C 0.74678 0.32499 0.52042 0.0
C1290 C 0.72916 0.33631 0.50287 0.0
C1291 C 0.69981 0.40015 0.48271 0.0
C1292 C 0.68612 0.45205 0.48044 0.0
C1293 C 0.71565 0.38797 0.50055 0.0
C1294 C 0.6886 0.49146 0.4963 0.0
C1295 C 0.7047 0.47977 0.51399 0.0
H1296 H 0.40347 0.12169 0.28412 0.0
H1297 H 0.4083 0.97078 0.30437 0.0
H1298 H 0.41779 0.92564 0.27271 0.0
H1299 H 0.40717 0.9284 0.23876 0.0
H1300 H 0.40045 0.07918 0.21846 0.0
H1301 H 0.41049 0.12534 0.25063 0.0
C1302 C 0.40828 0.07907 0.28166 0.0
C1303 C 0.40474 0.04948 0.29648 0.0
C1304 C 0.41278 0.05344 0.26338 0.0
C1305 C 0.41119 0.9944 0.29322 0.0
C1306 C 0.41606 0.96856 0.27507 0.0
C1307 C 0.40973 0.97138 0.24141 0.0
C1308 C 0.40272 1.00043 0.22632 0.0
C1309 C 0.41439 0.99749 0.25994 0.0
C1310 C 0.40612 0.05601 0.22983 0.0
C1311 C 0.41122 0.08237 0.24825 0.0
H1312 H 0.82375 0.86911 0.46822 0.0
H1313 H 0.89931 1.00372 0.50075 0.0
H1314 H 0.86115 0.98786 0.52846 0.0
H1315 H 0.80418 0.93764 0.54343 0.0
H1316 H 0.72834 0.80356 0.5107 0.0
H1317 H 0.76827 0.81794 0.48326 0.0
C1318 C 0.83151 0.89554 0.48125 0.0
C1319 C 0.86407 0.9381 0.48217 0.0
C1320 C 0.80939 0.88624 0.49726 0.0
C1321 C 0.87444 0.97066 0.4995 0.0
C1322 C 0.85255 0.9617 0.51542 0.0
C1323 C 0.79695 0.91094 0.53042 0.0
C1324 C 0.7633 0.86933 0.52929 0.0
C1325 C 0.81984 0.91967 0.5145 0.0
C1326 C 0.75386 0.83605 0.51206 0.0
C1327 C 0.77671 0.84421 0.49629 0.0
H1328 H 0.33243 0.45193 0.71499 0.0
H1329 H 0.45563 0.54399 0.74041 0.0
H1330 H 0.45182 0.50459 0.769 0.0
H1331 H 0.41143 0.44735 0.7873 0.0
H1332 H 0.28581 0.35817 0.76237 0.0
H1333 H 0.29338 0.39224 0.73307 0.0
C1334 C 0.35902 0.46248 0.72664 0.0
C1335 C 0.39443 0.50059 0.72553 0.0
C1336 C 0.35599 0.44056 0.74324 0.0
C1337 C 0.42798 0.51474 0.74093 0.0
C1338 C 0.42577 0.49234 0.75731 0.0
C1339 C 0.38522 0.43576 0.77562 0.0
C1340 C 0.34754 0.40084 0.77734 0.0
C1341 C 0.38937 0.45599 0.75877 0.0
C1342 C 0.31515 0.3851 0.76162 0.0
C1343 C 0.31934 0.40465 0.74479 0.0
H1344 H 0.81808 0.04805 0.02405 0.0
H1345 H 0.78786 0.19997 0.05564 0.0
H1346 H 0.77268 0.23702 0.02671 0.0
H1347 H 0.75995 0.22448 0.9925 0.0
H1348 H 0.78467 0.07108 0.96087 0.0
H1349 H 0.81031 0.03707 0.98972 0.0
C1350 C 0.8086 0.08947 0.0247 0.0
C1351 C 0.8043 0.12082 0.04223 0.0
C1352 C 0.79856 0.1104 0.00791 0.0
C1353 C 0.79235 0.17459 0.0426 0.0
C1354 C 0.78308 0.19588 0.02595 0.0
C1355 C 0.77131 0.18364 0.99182 0.0
C1356 C 0.7702 0.15065 0.97436 0.0
C1357 C 0.78491 0.16381 0.00855 0.0
C1358 C 0.78561 0.09799 0.9739 0.0
C1359 C 0.79989 0.07821 0.9905 0.0
H1360 H 0.11943 0.46571 0.28897 0.0
H1361 H 0.14571 0.62856 0.28319 0.0
H1362 H 0.13991 0.60559 0.24905 0.0
H1363 H 0.14354 0.53589 0.22141 0.0
H1364 H 0.12344 0.37222 0.22805 0.0
H1365 H 0.10984 0.39837 0.26092 0.0
C1366 C 0.12146 0.49646 0.28016 0.0
C1367 C 0.13188 0.54892 0.28855 0.0
C1368 C 0.12034 0.48238 0.26057 0.0
C1369 C 0.13641 0.58816 0.27702 0.0
C1370 C 0.13387 0.57481 0.25748 0.0
C1371 C 0.13443 0.50628 0.22992 0.0
C1372 C 0.13451 0.45215 0.2223 0.0
C1373 C 0.12818 0.52159 0.24913 0.0
C1374 C 0.12361 0.4141 0.2336 0.0
C1375 C 0.11605 0.42902 0.25244 0.0
H1376 H 0.18159 0.05316 0.51761 0.0
H1377 H 0.25986 0.17396 0.55633 0.0
H1378 H 0.29532 0.20586 0.5304 0.0
H1379 H 0.30357 0.20012 0.49694 0.0
H1380 H 0.2272 0.07713 0.45821 0.0
H1381 H 0.19076 0.04675 0.48398 0.0
C1382 C 0.20642 0.08651 0.5204 0.0
C1383 C 0.21833 0.11066 0.53896 0.0
C1384 C 0.22662 0.10481 0.50541 0.0
C1385 C 0.2507 0.15373 0.5423 0.0
C1386 C 0.2707 0.17238 0.52742 0.0
C1387 C 0.279 0.16657 0.49396 0.0
C1388 C 0.26818 0.14179 0.47535 0.0
C1389 C 0.25887 0.14821 0.50894 0.0
C1390 C 0.236 0.09835 0.47209 0.0
C1391 C 0.21527 0.08034 0.48694 0.0
H1392 H 0.70233 0.65778 0.25055 0.0
H1393 H 0.5907 0.56694 0.21533 0.0
H1394 H 0.57649 0.51736 0.24057 0.0
H1395 H 0.59552 0.49894 0.27264 0.0
H1396 H 0.70615 0.59049 0.30804 0.0
H1397 H 0.71977 0.64116 0.28289 0.0
C1398 C 0.6747 0.62729 0.24832 0.0
C1399 C 0.64852 0.61582 0.23071 0.0
C1400 C 0.66602 0.59919 0.26306 0.0
C1401 C 0.61275 0.57608 0.22833 0.0
C1402 C 0.60411 0.54784 0.24291 0.0
C1403 C 0.62262 0.53003 0.27491 0.0
C1404 C 0.64931 0.54096 0.29239 0.0
C1405 C 0.63067 0.55885 0.26029 0.0
C1406 C 0.68416 0.58165 0.29499 0.0
C1407 C 0.69237 0.61044 0.2805 0.0
H1408 H 0.30856 0.8838 0.0214 0.0
H1409 H 0.18014 0.92233 0.04902 0.0
H1410 H 0.14141 0.94524 0.01998 0.0
H1411 H 0.14325 0.9524 0.98659 0.0
H1412 H 0.27199 0.91345 0.95922 0.0
H1413 H 0.31058 0.89128 0.98828 0.0
C1414 C 0.272 0.89707 0.02118 0.0
C1415 C 0.24771 0.90156 0.03762 0.0
C1416 C 0.24964 0.90945 1.00436 0.0
C1417 C 0.2004 0.9193 0.03687 0.0
C1418 C 0.17795 0.93198 0.02015 0.0
C1419 C 0.17982 0.93914 0.98691 0.0
C1420 C 0.20417 0.93397 0.97047 0.0
C1421 C 0.20219 0.927 1.00381 0.0
C1422 C 0.25159 0.91663 0.97133 0.0
C1423 C 0.274 0.90442 0.98807 0.0
H1424 H 0.89051 0.42571 0.74253 0.0
H1425 H 0.87359 0.56586 0.7159 0.0
H1426 H 0.87084 0.62049 0.74658 0.0
H1427 H 0.86127 0.62599 0.78043 0.0
H1428 H 0.87657 0.4847 0.80667 0.0
H1429 H 0.89241 0.43314 0.77677 0.0
C1430 C 0.88751 0.46845 0.74348 0.0
C1431 C 0.88215 0.49168 0.72694 0.0
C1432 C 0.88493 0.49928 0.76111 0.0
C1433 C 0.87837 0.54705 0.72838 0.0
C1434 C 0.87614 0.57817 0.74593 0.0
C1435 C 0.86886 0.58406 0.77967 0.0
C1436 C 0.8674 0.55935 0.79586 0.0
C1437 C 0.87751 0.55439 0.76231 0.0
C1438 C 0.87782 0.50507 0.79461 0.0
C1439 C 0.88651 0.47537 0.77743 0.0
loop_
_geom_bond_atom_site_label_1
_geom_bond_atom_site_label_2
_geom_bond_distance
_geom_bond_site_symmetry_2
_ccdc_geom_bond_type
Zn0 N4 2.020 . S
Zn0 O8 2.019 . S
Zn0 N10 2.119 . S
Zn0 O18 1.975 . S
C1 N2 1.334 . S
C1 N5 1.336 . S
N2 C1 1.334 . S
N2 C3 1.334 . S
C3 N2 1.334 . S
C3 N4 1.336 . S
N4 Zn0 2.020 . S
N4 C3 1.336 . S
N4 N5 1.354 . S
N5 C1 1.336 . S
N5 N4 1.354 . S
N5 Zn9 2.020 . S
C6 O7 1.244 . S
C6 O30 1.257 . S
O7 C6 1.244 . S
O8 Zn0 2.019 . S
O8 C28 1.257 . S
Zn9 N5 2.020 . S
Zn9 O16 1.975 . S
Zn9 N25 2.119 . S
Zn9 O30 2.019 . S
N10 Zn0 2.119 . S
N10 C12 1.334 . S
N10 C13 1.328 . S
C11 C12 1.391 . S
C11 N14 1.329 . S
C11 H32 0.930 . S
C12 N10 1.334 . S
C12 C11 1.391 . S
C12 H19 0.930 . S
C13 N10 1.328 . S
C13 C15 1.392 . S
C13 H20 0.930 . S
N14 C11 1.329 . S
N14 C15 1.331 . S
C15 C13 1.392 . S
C15 N14 1.331 . S
O16 Zn9 1.975 . S
O16 C17 1.252 . S
C17 O16 1.252 . S
C17 O18 1.252 . S
O18 Zn0 1.975 . S
O18 C17 1.252 . S
H19 C12 0.930 . S
H20 C13 0.930 . S
C21 C22 1.392 . S
C21 N25 1.328 . S
C21 H27 0.930 . S
C22 C21 1.392 . S
C22 N26 1.331 . S
C23 C24 1.391 . S
C23 N26 1.329 . S
C23 H33 0.930 . S
C24 C23 1.391 . S
C24 N25 1.334 . S
C24 H31 0.930 . S
N25 Zn9 2.119 . S
N25 C21 1.328 . S
N25 C24 1.334 . S
N26 C22 1.331 . S
N26 C23 1.329 . S
H27 C21 0.930 . S
C28 O8 1.257 . S
C28 O29 1.244 . S
O29 C28 1.244 . S
O30 C6 1.257 . S
O30 Zn9 2.019 . S
H31 C24 0.930 . S
H32 C11 0.930 . S
H33 C23 0.930 . S
Zn34 N38 2.020 . S
Zn34 O42 2.019 1_565 S
Zn34 N44 2.119 . S
Zn34 O52 1.975 . S
C35 N36 1.334 . S
C35 N39 1.336 . S
N36 C35 1.334 . S
N36 C37 1.334 . S
C37 N36 1.334 . S
C37 N38 1.336 . S
N38 Zn34 2.020 . S
N38 C37 1.336 . S
N38 N39 1.354 . S
N39 C35 1.336 . S
N39 N38 1.354 . S
N39 Zn43 2.020 . S
C40 O41 1.244 . S
C40 O64 1.257 . S
O41 C40 1.244 . S
O42 Zn34 2.019 1_545 S
O42 C62 1.257 . S
Zn43 N39 2.020 . S
Zn43 O50 1.975 . S
Zn43 N59 2.119 . S
Zn43 O64 2.019 . S
N44 Zn34 2.119 . S
N44 C46 1.334 . S
N44 C47 1.328 . S
C45 C46 1.391 . S
C45 N48 1.329 . S
C45 H66 0.930 . S
C46 N44 1.334 . S
C46 C45 1.391 . S
C46 H53 0.930 . S
C47 N44 1.328 . S
C47 C49 1.392 . S
C47 H54 0.930 1_565 S
N48 C45 1.329 . S
N48 C49 1.331 . S
C49 C47 1.392 . S
C49 N48 1.331 . S
O50 Zn43 1.975 . S
O50 C51 1.252 . S
C51 O50 1.252 . S
C51 O52 1.252 . S
O52 Zn34 1.975 . S
O52 C51 1.252 . S
H53 C46 0.930 . S
H54 C47 0.930 1_545 S
C55 C56 1.392 . S
C55 N59 1.328 . S
C55 H61 0.930 . S
C56 C55 1.392 . S
C56 N60 1.331 . S
C57 C58 1.391 . S
C57 N60 1.329 . S
C57 H67 0.930 1_565 S
C58 C57 1.391 . S
C58 N59 1.334 . S
C58 H65 0.930 . S
N59 Zn43 2.119 . S
N59 C55 1.328 . S
N59 C58 1.334 . S
N60 C56 1.331 . S
N60 C57 1.329 . S
H61 C55 0.930 . S
C62 O42 1.257 . S
C62 O63 1.244 . S
O63 C62 1.244 . S
O64 C40 1.257 . S
O64 Zn43 2.019 . S
H65 C58 0.930 . S
H66 C45 0.930 . S
H67 C57 0.930 1_545 S
Zn68 N72 2.020 . S
Zn68 O76 2.019 . S
Zn68 N78 2.119 . S
Zn68 O86 1.975 . S
C69 N70 1.334 . S
C69 N73 1.336 . S
N70 C69 1.334 . S
N70 C71 1.334 . S
C71 N70 1.334 . S
C71 N72 1.336 . S
N72 Zn68 2.020 . S
N72 C71 1.336 . S
N72 N73 1.354 . S
N73 C69 1.336 . S
N73 N72 1.354 . S
N73 Zn77 2.020 . S
C74 O75 1.244 . S
C74 O98 1.257 . S
O75 C74 1.244 . S
O76 Zn68 2.019 . S
O76 C96 1.257 . S
Zn77 N73 2.020 . S
Zn77 O84 1.975 . S
Zn77 N93 2.119 . S
Zn77 O98 2.019 . S
N78 Zn68 2.119 . S
N78 C80 1.334 . S
N78 C81 1.328 . S
C79 C80 1.391 . S
C79 N82 1.329 . S
C79 H100 0.930 . S
C80 N78 1.334 . S
C80 C79 1.391 . S
C80 H87 0.930 . S
C81 N78 1.328 . S
C81 C83 1.392 . S
C81 H88 0.930 . S
N82 C79 1.329 . S
N82 C83 1.331 . S
C83 C81 1.392 . S
C83 N82 1.331 . S
O84 Zn77 1.975 . S
O84 C85 1.252 . S
C85 O84 1.252 . S
C85 O86 1.252 . S
O86 Zn68 1.975 . S
O86 C85 1.252 . S
H87 C80 0.930 . S
H88 C81 0.930 . S
C89 C90 1.392 . S
C89 N93 1.328 . S
C89 H95 0.930 . S
C90 C89 1.392 . S
C90 N94 1.331 . S
C91 C92 1.391 . S
C91 N94 1.329 . S
C91 H101 0.930 . S
C92 C91 1.391 . S
C92 N93 1.334 . S
C92 H99 0.930 . S
N93 Zn77 2.119 . S
N93 C89 1.328 . S
N93 C92 1.334 . S
N94 C90 1.331 . S
N94 C91 1.329 . S
H95 C89 0.930 . S
C96 O76 1.257 . S
C96 O97 1.244 . S
O97 C96 1.244 . S
O98 C74 1.257 . S
O98 Zn77 2.019 . S
H99 C92 0.930 . S
H100 C79 0.930 . S
H101 C91 0.930 . S
Zn102 N106 2.020 . S
Zn102 O110 2.019 . S
Zn102 N112 2.119 . S
Zn102 O120 1.975 . S
C103 N104 1.334 . S
C103 N107 1.336 . S
N104 C103 1.334 . S
N104 C105 1.334 . S
C105 N104 1.334 . S
C105 N106 1.336 . S
N106 Zn102 2.020 . S
N106 C105 1.336 . S
N106 N107 1.354 . S
N107 C103 1.336 . S
N107 N106 1.354 . S
N107 Zn111 2.020 . S
C108 O109 1.244 . S
C108 O132 1.257 . S
O109 C108 1.244 . S
O110 Zn102 2.019 . S
O110 C130 1.257 . S
Zn111 N107 2.020 . S
Zn111 O118 1.975 . S
Zn111 N127 2.119 . S
Zn111 O132 2.019 . S
N112 Zn102 2.119 . S
N112 C114 1.334 . S
N112 C115 1.328 . S
C113 C114 1.391 . S
C113 N116 1.329 . S
C113 H134 0.930 . S
C114 N112 1.334 . S
C114 C113 1.391 . S
C114 H121 0.930 . S
C115 N112 1.328 . S
C115 C117 1.392 . S
C115 H122 0.930 . S
N116 C113 1.329 . S
N116 C117 1.331 . S
C117 C115 1.392 . S
C117 N116 1.331 . S
O118 Zn111 1.975 . S
O118 C119 1.252 1_545 S
C119 O118 1.252 1_565 S
C119 O120 1.252 1_565 S
O120 Zn102 1.975 . S
O120 C119 1.252 1_545 S
H121 C114 0.930 . S
H122 C115 0.930 . S
C123 C124 1.392 . S
C123 N127 1.328 . S
C123 H129 0.930 . S
C124 C123 1.392 . S
C124 N128 1.331 . S
C125 C126 1.391 . S
C125 N128 1.329 . S
C125 H135 0.930 . S
C126 C125 1.391 . S
C126 N127 1.334 . S
C126 H133 0.930 . S
N127 Zn111 2.119 . S
N127 C123 1.328 . S
N127 C126 1.334 . S
N128 C124 1.331 . S
N128 C125 1.329 . S
H129 C123 0.930 . S
C130 O110 1.257 . S
C130 O131 1.244 . S
O131 C130 1.244 . S
O132 C108 1.257 . S
O132 Zn111 2.019 . S
H133 C126 0.930 . S
H134 C113 0.930 . S
H135 C125 0.930 . S
Zn136 N140 2.020 . S
Zn136 O144 2.019 . S
Zn136 N146 2.119 . S
Zn136 O154 1.975 . S
C137 N138 1.334 . S
C137 N141 1.336 . S
N138 C137 1.334 . S
N138 C139 1.334 . S
C139 N138 1.334 . S
C139 N140 1.336 . S
N140 Zn136 2.020 . S
N140 C139 1.336 . S
N140 N141 1.354 . S
N141 C137 1.336 . S
N141 N140 1.354 . S
N141 Zn145 2.020 . S
C142 O143 1.244 . S
C142 O166 1.257 . S
O143 C142 1.244 . S
O144 Zn136 2.019 . S
O144 C164 1.257 . S
Zn145 N141 2.020 . S
Zn145 O152 1.975 . S
Zn145 N161 2.119 . S
Zn145 O166 2.019 . S
N146 Zn136 2.119 . S
N146 C148 1.334 . S
N146 C149 1.328 . S
C147 C148 1.391 . S
C147 N150 1.329 . S
C147 H168 0.930 . S
C148 N146 1.334 . S
C148 C147 1.391 . S
C148 H155 0.930 . S
C149 N146 1.328 . S
C149 C151 1.392 . S
C149 H156 0.930 . S
N150 C147 1.329 . S
N150 C151 1.331 . S
C151 C149 1.392 . S
C151 N150 1.331 . S
O152 Zn145 1.975 . S
O152 C153 1.252 . S
C153 O152 1.252 . S
C153 O154 1.252 . S
O154 Zn136 1.975 . S
O154 C153 1.252 . S
H155 C148 0.930 . S
H156 C149 0.930 . S
C157 C158 1.392 . S
C157 N161 1.328 . S
C157 H163 0.930 . S
C158 C157 1.392 . S
C158 N162 1.331 . S
C159 C160 1.391 . S
C159 N162 1.329 . S
C159 H169 0.930 . S
C160 C159 1.391 . S
C160 N161 1.334 . S
C160 H167 0.930 . S
N161 Zn145 2.119 . S
N161 C157 1.328 . S
N161 C160 1.334 . S
N162 C158 1.331 . S
N162 C159 1.329 . S
H163 C157 0.930 . S
C164 O144 1.257 . S
C164 O165 1.244 . S
O165 C164 1.244 . S
O166 C142 1.257 . S
O166 Zn145 2.019 . S
H167 C160 0.930 . S
H168 C147 0.930 . S
H169 C159 0.930 . S
Zn170 N174 2.020 . S
Zn170 O178 2.019 . S
Zn170 N180 2.119 . S
Zn170 O188 1.975 . S
C171 N172 1.334 . S
C171 N175 1.336 . S
N172 C171 1.334 . S
N172 C173 1.334 . S
C173 N172 1.334 . S
C173 N174 1.336 . S
N174 Zn170 2.020 . S
N174 C173 1.336 . S
N174 N175 1.354 . S
N175 C171 1.336 . S
N175 N174 1.354 . S
N175 Zn179 2.020 . S
C176 O177 1.244 . S
C176 O200 1.257 . S
O177 C176 1.244 . S
O178 Zn170 2.019 . S
O178 C198 1.257 . S
Zn179 N175 2.020 . S
Zn179 O186 1.975 . S
Zn179 N195 2.119 . S
Zn179 O200 2.019 . S
N180 Zn170 2.119 . S
N180 C182 1.334 . S
N180 C183 1.328 . S
C181 C182 1.391 . S
C181 N184 1.329 . S
C181 H202 0.930 . S
C182 N180 1.334 . S
C182 C181 1.391 . S
C182 H189 0.930 . S
C183 N180 1.328 . S
C183 C185 1.392 . S
C183 H190 0.930 . S
N184 C181 1.329 . S
N184 C185 1.331 . S
C185 C183 1.392 . S
C185 N184 1.331 . S
O186 Zn179 1.975 . S
O186 C187 1.252 . S
C187 O186 1.252 . S
C187 O188 1.252 . S
O188 Zn170 1.975 . S
O188 C187 1.252 . S
H189 C182 0.930 . S
H190 C183 0.930 . S
C191 C192 1.392 . S
C191 N195 1.328 . S
C191 H197 0.930 . S
C192 C191 1.392 . S
C192 N196 1.331 . S
C193 C194 1.391 . S
C193 N196 1.329 . S
C193 H203 0.930 . S
C194 C193 1.391 . S
C194 N195 1.334 . S
C194 H201 0.930 . S
N195 Zn179 2.119 . S
N195 C191 1.328 . S
N195 C194 1.334 . S
N196 C192 1.331 . S
N196 C193 1.329 . S
H197 C191 0.930 . S
C198 O178 1.257 . S
C198 O199 1.244 . S
O199 C198 1.244 . S
O200 C176 1.257 . S
O200 Zn179 2.019 . S
H201 C194 0.930 . S
H202 C181 0.930 . S
H203 C193 0.930 . S
Zn204 N208 2.020 . S
Zn204 O212 2.019 . S
Zn204 N214 2.119 . S
Zn204 O222 1.975 . S
C205 N206 1.334 . S
C205 N209 1.336 . S
N206 C205 1.334 . S
N206 C207 1.334 . S
C207 N206 1.334 . S
C207 N208 1.336 . S
N208 Zn204 2.020 . S
N208 C207 1.336 . S
N208 N209 1.354 . S
N209 C205 1.336 . S
N209 N208 1.354 . S
N209 Zn213 2.020 . S
C210 O211 1.244 . S
C210 O234 1.257 . S
O211 C210 1.244 . S
O212 Zn204 2.019 . S
O212 C232 1.257 . S
Zn213 N209 2.020 . S
Zn213 O220 1.975 . S
Zn213 N229 2.119 . S
Zn213 O234 2.019 . S
N214 Zn204 2.119 . S
N214 C216 1.334 . S
N214 C217 1.328 . S
C215 C216 1.391 . S
C215 N218 1.329 . S
C215 H236 0.930 . S
C216 N214 1.334 . S
C216 C215 1.391 . S
C216 H223 0.930 . S
C217 N214 1.328 . S
C217 C219 1.392 . S
C217 H224 0.930 . S
N218 C215 1.329 . S
N218 C219 1.331 . S
C219 C217 1.392 . S
C219 N218 1.331 . S
O220 Zn213 1.975 . S
O220 C221 1.252 . S
C221 O220 1.252 . S
C221 O222 1.252 . S
O222 Zn204 1.975 . S
O222 C221 1.252 . S
H223 C216 0.930 . S
H224 C217 0.930 . S
C225 C226 1.392 . S
C225 N229 1.328 . S
C225 H231 0.930 . S
C226 C225 1.392 . S
C226 N230 1.331 . S
C227 C228 1.391 . S
C227 N230 1.329 . S
C227 H237 0.930 . S
C228 C227 1.391 . S
C228 N229 1.334 . S
C228 H235 0.930 . S
N229 Zn213 2.119 . S
N229 C225 1.328 . S
N229 C228 1.334 . S
N230 C226 1.331 . S
N230 C227 1.329 . S
H231 C225 0.930 . S
C232 O212 1.257 . S
C232 O233 1.244 . S
O233 C232 1.244 . S
O234 C210 1.257 . S
O234 Zn213 2.019 . S
H235 C228 0.930 . S
H236 C215 0.930 . S
H237 C227 0.930 . S
Zn238 N242 2.020 . S
Zn238 O246 2.019 . S
Zn238 N248 2.119 . S
Zn238 O256 1.975 . S
C239 N240 1.334 . S
C239 N243 1.336 . S
N240 C239 1.334 . S
N240 C241 1.334 . S
C241 N240 1.334 . S
C241 N242 1.336 . S
N242 Zn238 2.020 . S
N242 C241 1.336 . S
N242 N243 1.354 . S
N243 C239 1.336 . S
N243 N242 1.354 . S
N243 Zn247 2.020 . S
C244 O245 1.244 . S
C244 O268 1.257 . S
O245 C244 1.244 . S
O246 Zn238 2.019 . S
O246 C266 1.257 . S
Zn247 N243 2.020 . S
Zn247 O254 1.975 . S
Zn247 N263 2.119 . S
Zn247 O268 2.019 1_545 S
N248 Zn238 2.119 . S
N248 C250 1.334 . S
N248 C251 1.328 . S
C249 C250 1.391 . S
C249 N252 1.329 . S
C249 H270 0.930 . S
C250 N248 1.334 . S
C250 C249 1.391 . S
C250 H257 0.930 . S
C251 N248 1.328 . S
C251 C253 1.392 . S
C251 H258 0.930 . S
N252 C249 1.329 . S
N252 C253 1.331 . S
C253 C251 1.392 . S
C253 N252 1.331 . S
O254 Zn247 1.975 . S
O254 C255 1.252 . S
C255 O254 1.252 . S
C255 O256 1.252 . S
O256 Zn238 1.975 . S
O256 C255 1.252 . S
H257 C250 0.930 . S
H258 C251 0.930 . S
C259 C260 1.392 . S
C259 N263 1.328 . S
C259 H265 0.930 1_545 S
C260 C259 1.392 . S
C260 N264 1.331 . S
C261 C262 1.391 . S
C261 N264 1.329 . S
C261 H271 0.930 . S
C262 C261 1.391 . S
C262 N263 1.334 . S
C262 H269 0.930 . S
N263 Zn247 2.119 . S
N263 C259 1.328 . S
N263 C262 1.334 . S
N264 C260 1.331 . S
N264 C261 1.329 . S
H265 C259 0.930 1_565 S
C266 O246 1.257 . S
C266 O267 1.244 . S
O267 C266 1.244 . S
O268 C244 1.257 . S
O268 Zn247 2.019 1_565 S
H269 C262 0.930 . S
H270 C249 0.930 . S
H271 C261 0.930 . S
Zn272 N276 2.020 . S
Zn272 O280 2.019 . S
Zn272 N282 2.119 . S
Zn272 O290 1.975 . S
C273 N274 1.334 . S
C273 N277 1.336 . S
N274 C273 1.334 . S
N274 C275 1.334 . S
C275 N274 1.334 . S
C275 N276 1.336 . S
N276 Zn272 2.020 . S
N276 C275 1.336 . S
N276 N277 1.354 . S
N277 C273 1.336 . S
N277 N276 1.354 . S
N277 Zn281 2.020 . S
C278 O279 1.244 . S
C278 O302 1.257 . S
O279 C278 1.244 . S
O280 Zn272 2.019 . S
O280 C300 1.257 . S
Zn281 N277 2.020 . S
Zn281 O288 1.975 . S
Zn281 N297 2.119 . S
Zn281 O302 2.019 . S
N282 Zn272 2.119 . S
N282 C284 1.334 . S
N282 C285 1.328 . S
C283 C284 1.391 . S
C283 N286 1.329 . S
C283 H304 0.930 . S
C284 N282 1.334 . S
C284 C283 1.391 . S
C284 H291 0.930 . S
C285 N282 1.328 . S
C285 C287 1.392 . S
C285 H292 0.930 . S
N286 C283 1.329 . S
N286 C287 1.331 . S
C287 C285 1.392 . S
C287 N286 1.331 . S
O288 Zn281 1.975 . S
O288 C289 1.252 . S
C289 O288 1.252 . S
C289 O290 1.252 . S
O290 Zn272 1.975 . S
O290 C289 1.252 . S
H291 C284 0.930 . S
H292 C285 0.930 . S
C293 C294 1.392 . S
C293 N297 1.328 . S
C293 H299 0.930 . S
C294 C293 1.392 . S
C294 N298 1.331 . S
C295 C296 1.391 . S
C295 N298 1.329 . S
C295 H305 0.930 . S
C296 C295 1.391 . S
C296 N297 1.334 . S
C296 H303 0.930 . S
N297 Zn281 2.119 . S
N297 C293 1.328 . S
N297 C296 1.334 . S
N298 C294 1.331 . S
N298 C295 1.329 . S
H299 C293 0.930 . S
C300 O280 1.257 . S
C300 O301 1.244 . S
O301 C300 1.244 . S
O302 C278 1.257 . S
O302 Zn281 2.019 . S
H303 C296 0.930 . S
H304 C283 0.930 . S
H305 C295 0.930 . S
Zn306 N310 2.020 . S
Zn306 O314 2.019 . S
Zn306 N316 2.119 . S
Zn306 O324 1.975 1_545 S
C307 N308 1.334 . S
C307 N311 1.336 . S
N308 C307 1.334 . S
N308 C309 1.334 . S
C309 N308 1.334 . S
C309 N310 1.336 . S
N310 Zn306 2.020 . S
N310 C309 1.336 . S
N310 N311 1.354 . S
N311 C307 1.336 . S
N311 N310 1.354 . S
N311 Zn315 2.020 . S
C312 O313 1.244 . S
C312 O336 1.262 . S
O313 C312 1.244 . S
O314 Zn306 2.019 . S
O314 C334 1.257 . S
Zn315 N311 2.020 . S
Zn315 O322 1.975 1_545 S
Zn315 N331 2.119 . S
Zn315 O336 2.029 . S
N316 Zn306 2.119 . S
N316 C318 1.334 . S
N316 C319 1.328 . S
C317 C318 1.391 . S
C317 N320 1.329 . S
C317 H338 0.929 1_545 S
C318 N316 1.334 . S
C318 C317 1.391 . S
C318 H325 0.930 . S
C319 N316 1.328 . S
C319 C321 1.392 . S
C319 H326 0.930 . S
N320 C317 1.329 . S
N320 C321 1.331 . S
C321 C319 1.392 . S
C321 N320 1.331 . S
O322 Zn315 1.975 1_565 S
O322 C323 1.252 . S
C323 O322 1.252 . S
C323 O324 1.252 . S
O324 Zn306 1.975 1_565 S
O324 C323 1.252 . S
H325 C318 0.930 . S
H326 C319 0.930 . S
C327 C328 1.392 . S
C327 N331 1.328 . S
C327 H333 0.930 . S
C328 C327 1.392 . S
C328 N332 1.331 . S
C329 C330 1.391 . S
C329 N332 1.329 . S
C329 H339 0.930 . S
C330 C329 1.391 . S
C330 N331 1.334 . S
C330 H337 0.930 . S
N331 Zn315 2.119 . S
N331 C327 1.328 . S
N331 C330 1.334 . S
N332 C328 1.331 . S
N332 C329 1.329 . S
H333 C327 0.930 . S
C334 O314 1.257 . S
C334 O335 1.244 . S
O335 C334 1.244 . S
O336 C312 1.262 . S
O336 Zn315 2.029 . S
H337 C330 0.930 . S
H338 C317 0.929 1_565 S
H339 C329 0.930 . S
Zn340 N344 2.020 . S
Zn340 O348 2.019 . S
Zn340 N350 2.119 . S
Zn340 O358 1.975 . S
C341 N342 1.334 . S
C341 N345 1.336 . S
N342 C341 1.334 . S
N342 C343 1.334 . S
C343 N342 1.334 . S
C343 N344 1.336 . S
N344 Zn340 2.020 . S
N344 C343 1.336 . S
N344 N345 1.354 . S
N345 C341 1.336 . S
N345 N344 1.354 . S
N345 Zn349 2.020 . S
C346 O347 1.244 . S
C346 O370 1.257 . S
O347 C346 1.244 . S
O348 Zn340 2.019 . S
O348 C368 1.257 . S
Zn349 N345 2.020 . S
Zn349 O356 1.975 . S
Zn349 N365 2.119 . S
Zn349 O370 2.019 . S
N350 Zn340 2.119 . S
N350 C352 1.334 . S
N350 C353 1.328 . S
C351 C352 1.391 . S
C351 N354 1.329 . S
C351 H372 0.930 . S
C352 N350 1.334 . S
C352 C351 1.391 . S
C352 H359 0.930 . S
C353 N350 1.328 . S
C353 C355 1.392 . S
C353 H360 0.930 . S
N354 C351 1.329 . S
N354 C355 1.331 . S
C355 C353 1.392 . S
C355 N354 1.331 . S
O356 Zn349 1.975 . S
O356 C357 1.252 . S
C357 O356 1.252 . S
C357 O358 1.252 . S
O358 Zn340 1.975 . S
O358 C357 1.252 . S
H359 C352 0.930 . S
H360 C353 0.930 . S
C361 C362 1.392 . S
C361 N365 1.328 . S
C361 H367 0.930 . S
C362 C361 1.392 . S
C362 N366 1.331 . S
C363 C364 1.391 . S
C363 N366 1.329 . S
C363 H373 0.930 . S
C364 C363 1.391 . S
C364 N365 1.334 . S
C364 H371 0.930 . S
N365 Zn349 2.119 . S
N365 C361 1.328 . S
N365 C364 1.334 . S
N366 C362 1.331 . S
N366 C363 1.329 . S
H367 C361 0.930 . S
C368 O348 1.257 . S
C368 O369 1.244 . S
O369 C368 1.244 . S
O370 C346 1.257 . S
O370 Zn349 2.019 . S
H371 C364 0.930 . S
H372 C351 0.930 . S
H373 C363 0.930 . S
Zn374 N378 2.020 . S
Zn374 O382 2.019 . S
Zn374 N384 2.119 . S
Zn374 O392 1.975 1_565 S
C375 N376 1.334 . S
C375 N379 1.336 . S
N376 C375 1.334 . S
N376 C377 1.334 . S
C377 N376 1.334 . S
C377 N378 1.336 . S
N378 Zn374 2.020 . S
N378 C377 1.336 . S
N378 N379 1.354 . S
N379 C375 1.336 . S
N379 N378 1.354 . S
N379 Zn383 2.020 . S
C380 O381 1.244 . S
C380 O404 1.257 . S
O381 C380 1.244 . S
O382 Zn374 2.019 . S
O382 C402 1.257 . S
Zn383 N379 2.020 . S
Zn383 O390 1.975 . S
Zn383 N399 2.119 . S
Zn383 O404 2.019 . S
N384 Zn374 2.119 . S
N384 C386 1.334 . S
N384 C387 1.328 . S
C385 C386 1.391 . S
C385 N388 1.329 . S
C385 H406 0.930 . S
C386 N384 1.334 . S
C386 C385 1.391 . S
C386 H393 0.930 . S
C387 N384 1.328 . S
C387 C389 1.392 . S
C387 H394 0.930 . S
N388 C385 1.329 . S
N388 C389 1.331 . S
C389 C387 1.392 . S
C389 N388 1.331 . S
O390 Zn383 1.975 . S
O390 C391 1.252 1_565 S
C391 O390 1.252 1_545 S
C391 O392 1.252 . S
O392 Zn374 1.975 1_545 S
O392 C391 1.252 . S
H393 C386 0.930 . S
H394 C387 0.930 . S
C395 C396 1.392 . S
C395 N399 1.328 . S
C395 H401 0.930 . S
C396 C395 1.392 . S
C396 N400 1.331 . S
C397 C398 1.391 . S
C397 N400 1.329 . S
C397 H407 0.930 . S
C398 C397 1.391 . S
C398 N399 1.334 . S
C398 H405 0.930 . S
N399 Zn383 2.119 . S
N399 C395 1.328 . S
N399 C398 1.334 . S
N400 C396 1.331 . S
N400 C397 1.329 . S
H401 C395 0.930 . S
C402 O382 1.257 . S
C402 O403 1.244 . S
O403 C402 1.244 . S
O404 C380 1.257 . S
O404 Zn383 2.019 . S
H405 C398 0.930 . S
H406 C385 0.930 . S
H407 C397 0.930 . S
Zn408 N412 2.020 . S
Zn408 O416 2.019 . S
Zn408 N418 2.119 . S
Zn408 O426 1.975 . S
C409 N410 1.334 . S
C409 N413 1.336 . S
N410 C409 1.334 . S
N410 C411 1.334 . S
C411 N410 1.334 . S
C411 N412 1.336 . S
N412 Zn408 2.020 . S
N412 C411 1.336 . S
N412 N413 1.354 . S
N413 C409 1.336 . S
N413 N412 1.354 . S
N413 Zn417 2.020 . S
C414 O415 1.244 . S
C414 O438 1.257 . S
O415 C414 1.244 . S
O416 Zn408 2.019 . S
O416 C436 1.257 . S
Zn417 N413 2.020 . S
Zn417 O424 1.975 . S
Zn417 N433 2.119 . S
Zn417 O438 2.019 . S
N418 Zn408 2.119 . S
N418 C420 1.334 . S
N418 C421 1.328 . S
C419 C420 1.391 . S
C419 N422 1.329 . S
C419 H440 0.930 . S
C420 N418 1.334 . S
C420 C419 1.391 . S
C420 H427 0.930 . S
C421 N418 1.328 . S
C421 C423 1.392 . S
C421 H428 0.930 . S
N422 C419 1.329 . S
N422 C423 1.331 . S
C423 C421 1.392 . S
C423 N422 1.331 . S
O424 Zn417 1.975 . S
O424 C425 1.252 . S
C425 O424 1.252 . S
C425 O426 1.252 . S
O426 Zn408 1.975 . S
O426 C425 1.252 . S
H427 C420 0.930 . S
H428 C421 0.930 . S
C429 C430 1.392 . S
C429 N433 1.328 . S
C429 H435 0.930 . S
C430 C429 1.392 . S
C430 N434 1.331 . S
C431 C432 1.391 . S
C431 N434 1.329 . S
C431 H441 0.930 . S
C432 C431 1.391 . S
C432 N433 1.334 . S
C432 H439 0.930 . S
N433 Zn417 2.119 . S
N433 C429 1.328 . S
N433 C432 1.334 . S
N434 C430 1.331 . S
N434 C431 1.329 . S
H435 C429 0.930 . S
C436 O416 1.257 . S
C436 O437 1.244 . S
O437 C436 1.244 . S
O438 C414 1.257 . S
O438 Zn417 2.019 . S
H439 C432 0.930 . S
H440 C419 0.930 . S
H441 C431 0.930 . S
Zn442 N446 2.020 . S
Zn442 O450 2.019 . S
Zn442 N452 2.119 . S
Zn442 O460 1.975 . S
C443 N444 1.334 . S
C443 N447 1.336 . S
N444 C443 1.334 . S
N444 C445 1.334 . S
C445 N444 1.334 . S
C445 N446 1.336 . S
N446 Zn442 2.020 . S
N446 C445 1.336 . S
N446 N447 1.354 . S
N447 C443 1.336 . S
N447 N446 1.354 . S
N447 Zn451 2.020 . S
C448 O449 1.244 . S
C448 O472 1.257 . S
O449 C448 1.244 . S
O450 Zn442 2.019 . S
O450 C470 1.257 . S
Zn451 N447 2.020 . S
Zn451 O458 1.975 . S
Zn451 N467 2.119 . S
Zn451 O472 2.019 . S
N452 Zn442 2.119 . S
N452 C454 1.334 . S
N452 C455 1.328 . S
C453 C454 1.391 . S
C453 N456 1.329 . S
C453 H474 0.930 . S
C454 N452 1.334 . S
C454 C453 1.391 . S
C454 H461 0.930 . S
C455 N452 1.328 . S
C455 C457 1.392 . S
C455 H462 0.930 . S
N456 C453 1.329 . S
N456 C457 1.331 . S
C457 C455 1.392 . S
C457 N456 1.331 . S
O458 Zn451 1.975 . S
O458 C459 1.252 1_545 S
C459 O458 1.252 1_565 S
C459 O460 1.252 1_565 S
O460 Zn442 1.975 . S
O460 C459 1.252 1_545 S
H461 C454 0.930 . S
H462 C455 0.930 . S
C463 C464 1.392 . S
C463 N467 1.328 . S
C463 H469 0.930 . S
C464 C463 1.392 . S
C464 N468 1.331 . S
C465 C466 1.391 . S
C465 N468 1.329 . S
C465 H475 0.930 . S
C466 C465 1.391 . S
C466 N467 1.334 . S
C466 H473 0.930 . S
N467 Zn451 2.119 . S
N467 C463 1.328 . S
N467 C466 1.334 . S
N468 C464 1.331 . S
N468 C465 1.329 . S
H469 C463 0.930 . S
C470 O450 1.257 . S
C470 O471 1.244 . S
O471 C470 1.244 . S
O472 C448 1.257 . S
O472 Zn451 2.019 . S
H473 C466 0.930 . S
H474 C453 0.930 . S
H475 C465 0.930 . S
Zn476 N480 2.020 . S
Zn476 O484 2.019 . S
Zn476 N486 2.119 . S
Zn476 O494 1.975 . S
C477 N478 1.334 . S
C477 N481 1.336 . S
N478 C477 1.334 . S
N478 C479 1.334 . S
C479 N478 1.334 . S
C479 N480 1.336 . S
N480 Zn476 2.020 . S
N480 C479 1.336 . S
N480 N481 1.354 . S
N481 C477 1.336 . S
N481 N480 1.354 . S
N481 Zn485 2.020 . S
C482 O483 1.244 . S
C482 O506 1.257 . S
O483 C482 1.244 . S
O484 Zn476 2.019 . S
O484 C504 1.257 . S
Zn485 N481 2.020 . S
Zn485 O492 1.975 . S
Zn485 N501 2.119 . S
Zn485 O506 2.019 . S
N486 Zn476 2.119 . S
N486 C488 1.334 . S
N486 C489 1.328 . S
C487 C488 1.391 . S
C487 N490 1.329 . S
C487 H508 0.930 . S
C488 N486 1.334 . S
C488 C487 1.391 . S
C488 H495 0.930 . S
C489 N486 1.328 . S
C489 C491 1.392 . S
C489 H496 0.930 . S
N490 C487 1.329 . S
N490 C491 1.331 . S
C491 C489 1.392 . S
C491 N490 1.331 . S
O492 Zn485 1.975 . S
O492 C493 1.252 . S
C493 O492 1.252 . S
C493 O494 1.252 . S
O494 Zn476 1.975 . S
O494 C493 1.252 . S
H495 C488 0.930 . S
H496 C489 0.930 . S
C497 C498 1.392 . S
C497 N501 1.328 . S
C497 H503 0.930 . S
C498 C497 1.392 . S
C498 N502 1.331 . S
C499 C500 1.391 . S
C499 N502 1.329 . S
C499 H509 0.930 . S
C500 C499 1.391 . S
C500 N501 1.334 . S
C500 H507 0.930 . S
N501 Zn485 2.119 . S
N501 C497 1.328 . S
N501 C500 1.334 . S
N502 C498 1.331 . S
N502 C499 1.329 . S
H503 C497 0.930 . S
C504 O484 1.257 . S
C504 O505 1.244 . S
O505 C504 1.244 . S
O506 C482 1.257 . S
O506 Zn485 2.019 . S
H507 C500 0.930 . S
H508 C487 0.930 . S
H509 C499 0.930 . S
Zn510 N514 2.020 . S
Zn510 O518 2.019 . S
Zn510 N520 2.119 . S
Zn510 O528 1.975 . S
C511 N512 1.334 . S
C511 N515 1.336 . S
N512 C511 1.334 . S
N512 C513 1.334 . S
C513 N512 1.334 . S
C513 N514 1.336 . S
N514 Zn510 2.020 . S
N514 C513 1.336 . S
N514 N515 1.354 . S
N515 C511 1.336 . S
N515 N514 1.354 . S
N515 Zn519 2.014 1_565 S
C516 O517 1.244 . S
C516 O540 1.257 . S
O517 C516 1.244 . S
O518 Zn510 2.019 . S
O518 C538 1.257 . S
Zn519 N515 2.014 1_545 S
Zn519 O526 1.973 1_545 S
Zn519 N535 2.116 1_545 S
Zn519 O540 2.027 . S
N520 Zn510 2.119 . S
N520 C522 1.334 . S
N520 C523 1.328 . S
C521 C522 1.391 . S
C521 N524 1.329 . S
C521 H542 0.930 1_565 S
C522 N520 1.334 . S
C522 C521 1.391 . S
C522 H529 0.930 . S
C523 N520 1.328 . S
C523 C525 1.392 . S
C523 H530 0.930 . S
N524 C521 1.329 . S
N524 C525 1.331 . S
C525 C523 1.392 . S
C525 N524 1.331 . S
O526 Zn519 1.973 1_565 S
O526 C527 1.252 . S
C527 O526 1.252 . S
C527 O528 1.252 . S
O528 Zn510 1.975 . S
O528 C527 1.252 . S
H529 C522 0.930 . S
H530 C523 0.930 . S
C531 C532 1.392 . S
C531 N535 1.328 . S
C531 H537 0.930 1_565 S
C532 C531 1.392 . S
C532 N536 1.331 . S
C533 C534 1.391 . S
C533 N536 1.329 . S
C533 H543 0.930 . S
C534 C533 1.391 . S
C534 N535 1.334 . S
C534 H541 0.930 . S
N535 Zn519 2.116 1_565 S
N535 C531 1.328 . S
N535 C534 1.334 . S
N536 C532 1.331 . S
N536 C533 1.329 . S
H537 C531 0.930 1_545 S
C538 O518 1.257 . S
C538 O539 1.244 . S
O539 C538 1.244 . S
O540 C516 1.257 . S
O540 Zn519 2.027 . S
H541 C534 0.930 . S
H542 C521 0.930 1_545 S
H543 C533 0.930 . S
H544 C550 0.930 . S
H545 C553 0.930 . S
H546 C554 0.930 . S
H547 C555 0.930 . S
H548 C558 0.930 . S
H549 C559 0.930 . S
C550 H544 0.930 . S
C550 C551 1.355 . S
C550 C552 1.415 . S
C551 C550 1.355 . S
C551 C553 1.419 . S
C552 C550 1.415 . S
C552 C557 1.425 1_455 S
C552 C559 1.409 . S
C553 H545 0.930 . S
C553 C551 1.419 . S
C553 C554 1.362 1_455 S
C554 H546 0.930 . S
C554 C553 1.362 1_655 S
C554 C557 1.409 . S
C555 H547 0.930 . S
C555 C556 1.355 . S
C555 C557 1.415 . S
C556 C555 1.355 . S
C556 C558 1.419 . S
C557 C552 1.425 1_655 S
C557 C554 1.409 . S
C557 C555 1.415 . S
C558 H548 0.930 . S
C558 C556 1.419 . S
C558 C559 1.362 1_655 S
C559 H549 0.930 . S
C559 C552 1.409 . S
C559 C558 1.362 1_455 S
H560 C566 0.930 . S
H561 C569 0.930 . S
H562 C570 0.930 . S
H563 C571 0.930 . S
H564 C574 0.930 . S
H565 C575 0.930 . S
C566 H560 0.930 . S
C566 C567 1.355 . S
C566 C568 1.415 . S
C567 C566 1.355 . S
C567 C569 1.419 . S
C568 C566 1.415 . S
C568 C573 1.425 1_655 S
C568 C575 1.409 . S
C569 H561 0.930 . S
C569 C567 1.419 . S
C569 C570 1.362 1_655 S
C570 H562 0.930 . S
C570 C569 1.362 1_455 S
C570 C573 1.409 . S
C571 H563 0.930 . S
C571 C572 1.355 . S
C571 C573 1.415 . S
C572 C571 1.355 . S
C572 C574 1.419 . S
C573 C568 1.425 1_455 S
C573 C570 1.409 . S
C573 C571 1.415 . S
C574 H564 0.930 . S
C574 C572 1.419 . S
C574 C575 1.362 1_455 S
C575 H565 0.930 . S
C575 C568 1.409 . S
C575 C574 1.362 1_655 S
H576 C582 0.930 . S
H577 C585 0.930 . S
H578 C586 0.930 . S
H579 C587 0.930 . S
H580 C590 0.930 . S
H581 C591 0.930 . S
C582 H576 0.930 . S
C582 C583 1.355 . S
C582 C584 1.415 . S
C583 C582 1.355 . S
C583 C585 1.419 . S
C584 C582 1.415 . S
C584 C589 1.425 . S
C584 C591 1.409 . S
C585 H577 0.930 . S
C585 C583 1.419 . S
C585 C586 1.362 . S
C586 H578 0.930 . S
C586 C585 1.362 . S
C586 C589 1.409 . S
C587 H579 0.930 . S
C587 C588 1.355 . S
C587 C589 1.415 . S
C588 C587 1.355 . S
C588 C590 1.419 . S
C589 C584 1.425 . S
C589 C586 1.409 . S
C589 C587 1.415 . S
C590 H580 0.930 . S
C590 C588 1.419 . S
C590 C591 1.362 . S
C591 H581 0.930 . S
C591 C584 1.409 . S
C591 C590 1.362 . S
H592 C598 0.930 . S
H593 C601 0.930 . S
H594 C602 0.930 . S
H595 C603 0.930 . S
H596 C606 0.930 . S
H597 C607 0.930 . S
C598 H592 0.930 . S
C598 C599 1.355 . S
C598 C600 1.415 . S
C599 C598 1.355 . S
C599 C601 1.419 . S
C600 C598 1.415 . S
C600 C605 1.425 . S
C600 C607 1.409 . S
C601 H593 0.930 . S
C601 C599 1.419 . S
C601 C602 1.362 . S
C602 H594 0.930 . S
C602 C601 1.362 . S
C602 C605 1.409 . S
C603 H595 0.930 . S
C603 C604 1.355 . S
C603 C605 1.415 . S
C604 C603 1.355 . S
C604 C606 1.419 . S
C605 C600 1.425 . S
C605 C602 1.409 . S
C605 C603 1.415 . S
C606 H596 0.930 . S
C606 C604 1.419 . S
C606 C607 1.362 . S
C607 H597 0.930 . S
C607 C600 1.409 . S
C607 C606 1.362 . S
H608 C614 0.930 . S
H609 C617 0.930 . S
H610 C618 0.930 . S
H611 C619 0.930 . S
H612 C622 0.930 . S
H613 C623 0.929 1_655 S
C614 H608 0.930 . S
C614 C615 1.355 . S
C614 C616 1.415 . S
C615 C614 1.355 . S
C615 C617 1.419 . S
C616 C614 1.415 . S
C616 C621 1.425 . S
C616 C623 1.409 1_655 S
C617 H609 0.930 . S
C617 C615 1.419 . S
C617 C618 1.362 . S
C618 H610 0.930 . S
C618 C617 1.362 . S
C618 C621 1.409 . S
C619 H611 0.930 . S
C619 C620 1.355 . S
C619 C621 1.415 1_455 S
C620 C619 1.355 . S
C620 C622 1.419 . S
C621 C616 1.425 . S
C621 C618 1.409 . S
C621 C619 1.415 1_655 S
C622 H612 0.930 . S
C622 C620 1.419 . S
C622 C623 1.362 . S
C623 H613 0.929 1_455 S
C623 C616 1.409 1_455 S
C623 C622 1.362 . S
H624 C630 0.930 . S
H625 C633 0.930 . S
H626 C634 0.930 1_655 S
H627 C635 0.930 . S
H628 C638 0.930 . S
H629 C639 0.930 . S
C630 H624 0.930 . S
C630 C631 1.355 . S
C630 C632 1.415 . S
C631 C630 1.355 . S
C631 C633 1.419 . S
C632 C630 1.415 . S
C632 C637 1.425 . S
C632 C639 1.409 . S
C633 H625 0.930 . S
C633 C631 1.419 . S
C633 C634 1.362 . S
C634 H626 0.930 1_455 S
C634 C633 1.362 . S
C634 C637 1.409 . S
C635 H627 0.930 . S
C635 C636 1.355 . S
C635 C637 1.415 1_655 S
C636 C635 1.355 . S
C636 C638 1.419 . S
C637 C632 1.425 . S
C637 C634 1.409 . S
C637 C635 1.415 1_455 S
C638 H628 0.930 . S
C638 C636 1.419 . S
C638 C639 1.362 1_655 S
C639 H629 0.930 . S
C639 C632 1.409 . S
C639 C638 1.362 1_455 S
H640 C646 0.930 . S
H641 C649 0.930 . S
H642 C650 0.930 . S
H643 C651 0.930 . S
H644 C654 0.930 . S
H645 C655 0.930 . S
C646 H640 0.930 . S
C646 C647 1.355 . S
C646 C648 1.415 . S
C647 C646 1.355 . S
C647 C649 1.419 . S
C648 C646 1.415 . S
C648 C653 1.425 . S
C648 C655 1.409 . S
C649 H641 0.930 . S
C649 C647 1.419 . S
C649 C650 1.362 . S
C650 H642 0.930 . S
C650 C649 1.362 . S
C650 C653 1.409 . S
C651 H643 0.930 . S
C651 C652 1.355 . S
C651 C653 1.415 . S
C652 C651 1.355 . S
C652 C654 1.419 . S
C653 C648 1.425 . S
C653 C650 1.409 . S
C653 C651 1.415 . S
C654 H644 0.930 . S
C654 C652 1.419 . S
C654 C655 1.362 . S
C655 H645 0.930 . S
C655 C648 1.409 . S
C655 C654 1.362 . S
H656 C662 0.930 . S
H657 C665 0.930 . S
H658 C666 0.930 . S
H659 C667 0.930 . S
H660 C670 0.930 . S
H661 C671 0.930 . S
C662 H656 0.930 . S
C662 C663 1.355 . S
C662 C664 1.415 . S
C663 C662 1.355 . S
C663 C665 1.419 . S
C664 C662 1.415 . S
C664 C669 1.425 . S
C664 C671 1.409 . S
C665 H657 0.930 . S
C665 C663 1.419 . S
C665 C666 1.362 . S
C666 H658 0.930 . S
C666 C665 1.362 . S
C666 C669 1.409 . S
C667 H659 0.930 . S
C667 C668 1.355 . S
C667 C669 1.415 . S
C668 C667 1.355 . S
C668 C670 1.419 . S
C669 C664 1.425 . S
C669 C666 1.409 . S
C669 C667 1.415 . S
C670 H660 0.930 . S
C670 C668 1.419 . S
C670 C671 1.362 . S
C671 H661 0.930 . S
C671 C664 1.409 . S
C671 C670 1.362 . S
H672 C678 0.930 . S
H673 C681 0.930 . S
H674 C682 0.930 . S
H675 C683 0.930 . S
H676 C686 0.930 . S
H677 C687 0.930 . S
C678 H672 0.930 . S
C678 C679 1.355 . S
C678 C680 1.415 . S
C679 C678 1.355 . S
C679 C681 1.419 . S
C680 C678 1.415 . S
C680 C685 1.425 . S
C680 C687 1.409 . S
C681 H673 0.930 . S
C681 C679 1.419 . S
C681 C682 1.362 . S
C682 H674 0.930 . S
C682 C681 1.362 . S
C682 C685 1.409 . S
C683 H675 0.930 . S
C683 C684 1.355 . S
C683 C685 1.415 . S
C684 C683 1.355 . S
C684 C686 1.419 . S
C685 C680 1.425 . S
C685 C682 1.409 . S
C685 C683 1.415 . S
C686 H676 0.930 . S
C686 C684 1.419 . S
C686 C687 1.362 . S
C687 H677 0.930 . S
C687 C680 1.409 . S
C687 C686 1.362 . S
H688 C694 0.930 . S
H689 C697 0.930 . S
H690 C698 0.930 . S
H691 C699 0.930 . S
H692 C702 0.930 . S
H693 C703 0.930 1_565 S
C694 H688 0.930 . S
C694 C695 1.355 1_455 S
C694 C696 1.415 1_565 S
C695 C694 1.355 1_655 S
C695 C697 1.419 1_565 S
C696 C694 1.415 1_545 S
C696 C701 1.425 . S
C696 C703 1.409 . S
C697 H689 0.930 . S
C697 C695 1.419 1_545 S
C697 C698 1.362 1_655 S
C698 H690 0.930 . S
C698 C697 1.362 1_455 S
C698 C701 1.409 . S
C699 H691 0.930 . S
C699 C700 1.355 . S
C699 C701 1.415 . S
C700 C699 1.355 . S
C700 C702 1.419 . S
C701 C696 1.425 . S
C701 C698 1.409 . S
C701 C699 1.415 . S
C702 H692 0.930 . S
C702 C700 1.419 . S
C702 C703 1.362 . S
C703 H693 0.930 1_545 S
C703 C696 1.409 . S
C703 C702 1.362 . S
H704 C710 0.930 . S
H705 C713 0.930 . S
H706 C714 0.930 . S
H707 C715 0.930 . S
H708 C718 0.930 . S
H709 C719 0.930 . S
C710 H704 0.930 . S
C710 C711 1.355 . S
C710 C712 1.415 . S
C711 C710 1.355 . S
C711 C713 1.419 . S
C712 C710 1.415 . S
C712 C717 1.425 . S
C712 C719 1.409 . S
C713 H705 0.930 . S
C713 C711 1.419 . S
C713 C714 1.362 . S
C714 H706 0.930 . S
C714 C713 1.362 . S
C714 C717 1.409 . S
C715 H707 0.930 . S
C715 C716 1.355 . S
C715 C717 1.415 . S
C716 C715 1.355 . S
C716 C718 1.419 . S
C717 C712 1.425 . S
C717 C714 1.409 . S
C717 C715 1.415 . S
C718 H708 0.930 . S
C718 C716 1.419 . S
C718 C719 1.362 . S
C719 H709 0.930 . S
C719 C712 1.409 . S
C719 C718 1.362 . S
H720 C726 0.930 . S
H721 C729 0.930 . S
H722 C730 0.930 . S
H723 C731 0.930 1_545 S
H724 C734 0.930 . S
H725 C735 0.930 . S
C726 H720 0.930 . S
C726 C727 1.355 1_565 S
C726 C728 1.415 . S
C727 C726 1.355 1_545 S
C727 C729 1.419 . S
C728 C726 1.415 . S
C728 C733 1.425 1_565 S
C728 C735 1.409 . S
C729 H721 0.930 . S
C729 C727 1.419 . S
C729 C730 1.362 . S
C730 H722 0.930 . S
C730 C729 1.362 . S
C730 C733 1.409 . S
C731 H723 0.930 1_565 S
C731 C732 1.355 . S
C731 C733 1.415 1_565 S
C732 C731 1.355 . S
C732 C734 1.419 . S
C733 C728 1.425 1_545 S
C733 C730 1.409 . S
C733 C731 1.415 1_545 S
C734 H724 0.930 . S
C734 C732 1.419 . S
C734 C735 1.362 . S
C735 H725 0.930 . S
C735 C728 1.409 . S
C735 C734 1.362 . S
H736 C742 0.930 . S
H737 C745 0.930 . S
H738 C746 0.930 . S
H739 C747 0.930 . S
H740 C750 0.930 . S
H741 C751 0.930 . S
C742 H736 0.930 . S
C742 C743 1.355 . S
C742 C744 1.415 . S
C743 C742 1.355 . S
C743 C745 1.419 . S
C744 C742 1.415 . S
C744 C749 1.425 . S
C744 C751 1.409 . S
C745 H737 0.930 . S
C745 C743 1.419 . S
C745 C746 1.362 . S
C746 H738 0.930 . S
C746 C745 1.362 . S
C746 C749 1.409 . S
C747 H739 0.930 . S
C747 C748 1.355 . S
C747 C749 1.415 . S
C748 C747 1.355 . S
C748 C750 1.419 . S
C749 C744 1.425 . S
C749 C746 1.409 . S
C749 C747 1.415 . S
C750 H740 0.930 . S
C750 C748 1.419 . S
C750 C751 1.362 . S
C751 H741 0.930 . S
C751 C744 1.409 . S
C751 C750 1.362 . S
H752 C758 0.930 . S
H753 C761 0.930 . S
H754 C762 0.930 . S
H755 C763 0.930 . S
H756 C766 0.930 1_565 S
H757 C767 0.930 . S
C758 H752 0.930 . S
C758 C759 1.355 . S
C758 C760 1.415 . S
C759 C758 1.355 . S
C759 C761 1.419 1_565 S
C760 C758 1.415 . S
C760 C765 1.425 1_565 S
C760 C767 1.409 . S
C761 H753 0.930 . S
C761 C759 1.419 1_545 S
C761 C762 1.362 . S
C762 H754 0.930 . S
C762 C761 1.362 . S
C762 C765 1.409 . S
C763 H755 0.930 . S
C763 C764 1.355 . S
C763 C765 1.415 . S
C764 C763 1.355 . S
C764 C766 1.419 . S
C765 C760 1.425 1_545 S
C765 C762 1.409 . S
C765 C763 1.415 . S
C766 H756 0.930 1_545 S
C766 C764 1.419 . S
C766 C767 1.362 1_545 S
C767 H757 0.930 . S
C767 C760 1.409 . S
C767 C766 1.362 1_565 S
H768 C774 0.930 . S
H769 C777 0.930 . S
H770 C778 0.930 . S
H771 C779 0.930 . S
H772 C782 0.930 . S
H773 C783 0.930 . S
C774 H768 0.930 . S
C774 C775 1.355 . S
C774 C776 1.415 . S
C775 C774 1.355 . S
C775 C777 1.419 . S
C776 C774 1.415 . S
C776 C781 1.425 . S
C776 C783 1.409 . S
C777 H769 0.930 . S
C777 C775 1.419 . S
C777 C778 1.362 . S
C778 H770 0.930 . S
C778 C777 1.362 . S
C778 C781 1.409 . S
C779 H771 0.930 . S
C779 C780 1.355 . S
C779 C781 1.415 . S
C780 C779 1.355 . S
C780 C782 1.419 . S
C781 C776 1.425 . S
C781 C778 1.409 . S
C781 C779 1.415 . S
C782 H772 0.930 . S
C782 C780 1.419 . S
C782 C783 1.362 . S
C783 H773 0.930 . S
C783 C776 1.409 . S
C783 C782 1.362 . S
H784 C790 0.930 . S
H785 C793 0.930 . S
H786 C794 0.930 . S
H787 C795 0.930 . S
H788 C798 0.930 . S
H789 C799 0.930 . S
C790 H784 0.930 . S
C790 C791 1.355 . S
C790 C792 1.415 . S
C791 C790 1.355 . S
C791 C793 1.419 . S
C792 C790 1.415 . S
C792 C797 1.425 . S
C792 C799 1.409 . S
C793 H785 0.930 . S
C793 C791 1.419 . S
C793 C794 1.362 . S
C794 H786 0.930 . S
C794 C793 1.362 . S
C794 C797 1.409 . S
C795 H787 0.930 . S
C795 C796 1.355 . S
C795 C797 1.415 1_645 S
C796 C795 1.355 . S
C796 C798 1.419 . S
C797 C792 1.425 . S
C797 C794 1.409 . S
C797 C795 1.415 1_465 S
C798 H788 0.930 . S
C798 C796 1.419 . S
C798 C799 1.362 1_645 S
C799 H789 0.930 . S
C799 C792 1.409 . S
C799 C798 1.362 1_465 S
H800 C806 0.930 . S
H801 C809 0.930 . S
H802 C810 0.930 . S
H803 C811 0.930 . S
H804 C814 0.930 . S
H805 C815 0.930 . S
C806 H800 0.930 . S
C806 C807 1.355 . S
C806 C808 1.415 . S
C807 C806 1.355 . S
C807 C809 1.419 . S
C808 C806 1.415 . S
C808 C813 1.425 . S
C808 C815 1.409 . S
C809 H801 0.930 . S
C809 C807 1.419 . S
C809 C810 1.362 . S
C810 H802 0.930 . S
C810 C809 1.362 . S
C810 C813 1.409 . S
C811 H803 0.930 . S
C811 C812 1.355 . S
C811 C813 1.415 . S
C812 C811 1.355 . S
C812 C814 1.419 . S
C813 C808 1.425 . S
C813 C810 1.409 . S
C813 C811 1.415 . S
C814 H804 0.930 . S
C814 C812 1.419 . S
C814 C815 1.362 . S
C815 H805 0.930 . S
C815 C808 1.409 . S
C815 C814 1.362 . S
H816 C822 0.930 1_545 S
H817 C825 0.930 . S
H818 C826 0.930 . S
H819 C827 0.930 . S
H820 C830 0.930 . S
H821 C831 0.930 . S
C822 H816 0.930 1_565 S
C822 C823 1.355 1_655 S
C822 C824 1.415 . S
C823 C822 1.355 1_455 S
C823 C825 1.419 . S
C824 C822 1.415 . S
C824 C829 1.425 . S
C824 C831 1.409 . S
C825 H817 0.930 . S
C825 C823 1.419 . S
C825 C826 1.362 1_455 S
C826 H818 0.930 . S
C826 C825 1.362 1_655 S
C826 C829 1.409 . S
C827 H819 0.930 . S
C827 C828 1.355 . S
C827 C829 1.415 . S
C828 C827 1.355 . S
C828 C830 1.419 . S
C829 C824 1.425 . S
C829 C826 1.409 . S
C829 C827 1.415 . S
C830 H820 0.930 . S
C830 C828 1.419 . S
C830 C831 1.362 . S
C831 H821 0.930 . S
C831 C824 1.409 . S
C831 C830 1.362 . S
H832 C838 0.930 . S
H833 C841 0.930 . S
H834 C842 0.930 . S
H835 C843 0.930 . S
H836 C846 0.930 . S
H837 C847 0.930 . S
C838 H832 0.930 . S
C838 C839 1.355 . S
C838 C840 1.415 . S
C839 C838 1.355 . S
C839 C841 1.419 . S
C840 C838 1.415 . S
C840 C845 1.425 . S
C840 C847 1.409 . S
C841 H833 0.930 . S
C841 C839 1.419 . S
C841 C842 1.362 . S
C842 H834 0.930 . S
C842 C841 1.362 . S
C842 C845 1.409 . S
C843 H835 0.930 . S
C843 C844 1.355 . S
C843 C845 1.415 . S
C844 C843 1.355 . S
C844 C846 1.419 . S
C845 C840 1.425 . S
C845 C842 1.409 . S
C845 C843 1.415 . S
C846 H836 0.930 . S
C846 C844 1.419 . S
C846 C847 1.362 . S
C847 H837 0.930 . S
C847 C840 1.409 . S
C847 C846 1.362 . S
H848 C854 0.930 . S
H849 C857 0.931 . S
H850 C858 0.930 . S
H851 C859 0.930 . S
H852 C862 0.930 . S
H853 C863 0.930 . S
C854 H848 0.930 . S
C854 C855 1.355 . S
C854 C856 1.415 . S
C855 C854 1.355 . S
C855 C857 1.419 . S
C856 C854 1.415 . S
C856 C861 1.425 . S
C856 C863 1.409 . S
C857 H849 0.931 . S
C857 C855 1.419 . S
C857 C858 1.362 1_545 S
C858 H850 0.930 . S
C858 C857 1.362 1_565 S
C858 C861 1.409 1_565 S
C859 H851 0.930 . S
C859 C860 1.355 . S
C859 C861 1.415 1_565 S
C860 C859 1.355 . S
C860 C862 1.419 1_565 S
C861 C856 1.425 . S
C861 C858 1.409 1_545 S
C861 C859 1.415 1_545 S
C862 H852 0.930 . S
C862 C860 1.419 1_545 S
C862 C863 1.362 . S
C863 H853 0.930 . S
C863 C856 1.409 . S
C863 C862 1.362 . S
H864 C870 0.930 . S
H865 C873 0.930 . S
H866 C874 0.930 . S
H867 C875 0.930 . S
H868 C878 0.930 . S
H869 C879 0.930 . S
C870 H864 0.930 . S
C870 C871 1.355 . S
C870 C872 1.415 . S
C871 C870 1.355 . S
C871 C873 1.419 . S
C872 C870 1.415 . S
C872 C877 1.425 . S
C872 C879 1.409 . S
C873 H865 0.930 . S
C873 C871 1.419 . S
C873 C874 1.362 . S
C874 H866 0.930 . S
C874 C873 1.362 . S
C874 C877 1.409 . S
C875 H867 0.930 . S
C875 C876 1.355 . S
C875 C877 1.415 . S
C876 C875 1.355 . S
C876 C878 1.419 . S
C877 C872 1.425 . S
C877 C874 1.409 . S
C877 C875 1.415 . S
C878 H868 0.930 . S
C878 C876 1.419 . S
C878 C879 1.362 . S
C879 H869 0.930 . S
C879 C872 1.409 . S
C879 C878 1.362 . S
H880 C886 0.930 1_545 S
H881 C889 0.930 . S
H882 C890 0.930 . S
H883 C891 0.930 . S
H884 C894 0.930 . S
H885 C895 0.930 . S
C886 H880 0.930 1_565 S
C886 C887 1.355 . S
C886 C888 1.415 1_565 S
C887 C886 1.355 . S
C887 C889 1.419 . S
C888 C886 1.415 1_545 S
C888 C893 1.425 1_545 S
C888 C895 1.409 . S
C889 H881 0.930 . S
C889 C887 1.419 . S
C889 C890 1.362 . S
C890 H882 0.930 . S
C890 C889 1.362 . S
C890 C893 1.409 . S
C891 H883 0.930 . S
C891 C892 1.355 1_565 S
C891 C893 1.415 . S
C892 C891 1.355 1_545 S
C892 C894 1.419 . S
C893 C888 1.425 1_565 S
C893 C890 1.409 . S
C893 C891 1.415 . S
C894 H884 0.930 . S
C894 C892 1.419 . S
C894 C895 1.362 . S
C895 H885 0.930 . S
C895 C888 1.409 . S
C895 C894 1.362 . S
H896 C902 0.930 . S
H897 C905 0.930 . S
H898 C906 0.930 . S
H899 C907 0.930 . S
H900 C910 0.930 . S
H901 C911 0.930 . S
C902 H896 0.930 . S
C902 C903 1.355 . S
C902 C904 1.415 . S
C903 C902 1.355 . S
C903 C905 1.419 . S
C904 C902 1.415 . S
C904 C909 1.425 . S
C904 C911 1.409 . S
C905 H897 0.930 . S
C905 C903 1.419 . S
C905 C906 1.362 . S
C906 H898 0.930 . S
C906 C905 1.362 . S
C906 C909 1.409 . S
C907 H899 0.930 . S
C907 C908 1.355 . S
C907 C909 1.415 . S
C908 C907 1.355 . S
C908 C910 1.419 . S
C909 C904 1.425 . S
C909 C906 1.409 . S
C909 C907 1.415 . S
C910 H900 0.930 . S
C910 C908 1.419 . S
C910 C911 1.362 . S
C911 H901 0.930 . S
C911 C904 1.409 . S
C911 C910 1.362 . S
H912 C918 0.930 1_455 S
H913 C921 0.930 . S
H914 C922 0.930 . S
H915 C923 0.930 . S
H916 C926 0.930 . S
H917 C927 0.930 . S
C918 H912 0.930 1_655 S
C918 C919 1.355 1_645 S
C918 C920 1.415 . S
C919 C918 1.355 1_465 S
C919 C921 1.419 1_455 S
C920 C918 1.415 . S
C920 C925 1.425 . S
C920 C927 1.409 . S
C921 H913 0.930 . S
C921 C919 1.419 1_655 S
C921 C922 1.362 1_565 S
C922 H914 0.930 . S
C922 C921 1.362 1_545 S
C922 C925 1.409 . S
C923 H915 0.930 . S
C923 C924 1.355 . S
C923 C925 1.415 . S
C924 C923 1.355 . S
C924 C926 1.419 . S
C925 C920 1.425 . S
C925 C922 1.409 . S
C925 C923 1.415 . S
C926 H916 0.930 . S
C926 C924 1.419 . S
C926 C927 1.362 . S
C927 H917 0.930 . S
C927 C920 1.409 . S
C927 C926 1.362 . S
H928 C934 0.930 . S
H929 C937 0.930 . S
H930 C938 0.930 . S
H931 C939 0.930 . S
H932 C942 0.930 . S
H933 C943 0.930 . S
C934 H928 0.930 . S
C934 C935 1.355 . S
C934 C936 1.415 . S
C935 C934 1.355 . S
C935 C937 1.419 . S
C936 C934 1.415 . S
C936 C941 1.425 . S
C936 C943 1.409 . S
C937 H929 0.930 . S
C937 C935 1.419 . S
C937 C938 1.362 . S
C938 H930 0.930 . S
C938 C937 1.362 . S
C938 C941 1.409 . S
C939 H931 0.930 . S
C939 C940 1.355 . S
C939 C941 1.415 . S
C940 C939 1.355 . S
C940 C942 1.419 . S
C941 C936 1.425 . S
C941 C938 1.409 . S
C941 C939 1.415 . S
C942 H932 0.930 . S
C942 C940 1.419 . S
C942 C943 1.362 . S
C943 H933 0.930 . S
C943 C936 1.409 . S
C943 C942 1.362 . S
H944 C950 0.930 . S
H945 C953 0.930 . S
H946 C954 0.930 . S
H947 C955 0.930 . S
H948 C958 0.930 . S
H949 C959 0.930 . S
C950 H944 0.930 . S
C950 C951 1.355 . S
C950 C952 1.415 . S
C951 C950 1.355 . S
C951 C953 1.419 . S
C952 C950 1.415 . S
C952 C957 1.425 . S
C952 C959 1.409 . S
C953 H945 0.930 . S
C953 C951 1.419 . S
C953 C954 1.362 . S
C954 H946 0.930 . S
C954 C953 1.362 . S
C954 C957 1.409 . S
C955 H947 0.930 . S
C955 C956 1.355 . S
C955 C957 1.415 . S
C956 C955 1.355 . S
C956 C958 1.419 . S
C957 C952 1.425 . S
C957 C954 1.409 . S
C957 C955 1.415 . S
C958 H948 0.930 . S
C958 C956 1.419 . S
C958 C959 1.362 . S
C959 H949 0.930 . S
C959 C952 1.409 . S
C959 C958 1.362 . S
H960 C966 0.930 . S
H961 C969 0.930 . S
H962 C970 0.930 . S
H963 C971 0.930 . S
H964 C974 0.930 . S
H965 C975 0.930 . S
C966 H960 0.930 . S
C966 C967 1.355 . S
C966 C968 1.415 . S
C967 C966 1.355 . S
C967 C969 1.419 . S
C968 C966 1.415 . S
C968 C973 1.425 . S
C968 C975 1.409 . S
C969 H961 0.930 . S
C969 C967 1.419 . S
C969 C970 1.362 . S
C970 H962 0.930 . S
C970 C969 1.362 . S
C970 C973 1.409 . S
C971 H963 0.930 . S
C971 C972 1.355 . S
C971 C973 1.415 . S
C972 C971 1.355 . S
C972 C974 1.419 . S
C973 C968 1.425 . S
C973 C970 1.409 . S
C973 C971 1.415 . S
C974 H964 0.930 . S
C974 C972 1.419 . S
C974 C975 1.362 . S
C975 H965 0.930 . S
C975 C968 1.409 . S
C975 C974 1.362 . S
H976 C982 0.930 . S
H977 C985 0.930 . S
H978 C986 0.930 . S
H979 C987 0.930 . S
H980 C990 0.930 . S
H981 C991 0.930 . S
C982 H976 0.930 . S
C982 C983 1.355 . S
C982 C984 1.415 . S
C983 C982 1.355 . S
C983 C985 1.419 . S
C984 C982 1.415 . S
C984 C989 1.425 . S
C984 C991 1.409 . S
C985 H977 0.930 . S
C985 C983 1.419 . S
C985 C986 1.362 . S
C986 H978 0.930 . S
C986 C985 1.362 . S
C986 C989 1.409 . S
C987 H979 0.930 . S
C987 C988 1.355 . S
C987 C989 1.415 . S
C988 C987 1.355 . S
C988 C990 1.419 . S
C989 C984 1.425 . S
C989 C986 1.409 . S
C989 C987 1.415 . S
C990 H980 0.930 . S
C990 C988 1.419 . S
C990 C991 1.362 . S
C991 H981 0.930 . S
C991 C984 1.409 . S
C991 C990 1.362 . S
H992 C998 0.930 . S
H993 C1001 0.930 . S
H994 C1002 0.930 . S
H995 C1003 0.930 . S
H996 C1006 0.930 . S
H997 C1007 0.930 . S
C998 H992 0.930 . S
C998 C999 1.355 . S
C998 C1000 1.415 . S
C999 C998 1.355 . S
C999 C1001 1.419 . S
C1000 C998 1.415 . S
C1000 C1005 1.425 . S
C1000 C1007 1.409 . S
C1001 H993 0.930 . S
C1001 C999 1.419 . S
C1001 C1002 1.362 . S
C1002 H994 0.930 . S
C1002 C1001 1.362 . S
C1002 C1005 1.409 . S
C1003 H995 0.930 . S
C1003 C1004 1.355 . S
C1003 C1005 1.415 . S
C1004 C1003 1.355 . S
C1004 C1006 1.419 . S
C1005 C1000 1.425 . S
C1005 C1002 1.409 . S
C1005 C1003 1.415 . S
C1006 H996 0.930 . S
C1006 C1004 1.419 . S
C1006 C1007 1.362 . S
C1007 H997 0.930 . S
C1007 C1000 1.409 . S
C1007 C1006 1.362 . S
H1008 C1014 0.930 . S
H1009 C1017 0.930 . S
H1010 C1018 0.930 . S
H1011 C1019 0.930 . S
H1012 C1022 0.930 . S
H1013 C1023 0.930 . S
C1014 H1008 0.930 . S
C1014 C1015 1.355 . S
C1014 C1016 1.415 . S
C1015 C1014 1.355 . S
C1015 C1017 1.419 . S
C1016 C1014 1.415 . S
C1016 C1021 1.425 . S
C1016 C1023 1.409 . S
C1017 H1009 0.930 . S
C1017 C1015 1.419 . S
C1017 C1018 1.362 . S
C1018 H1010 0.930 . S
C1018 C1017 1.362 . S
C1018 C1021 1.409 . S
C1019 H1011 0.930 . S
C1019 C1020 1.355 . S
C1019 C1021 1.415 . S
C1020 C1019 1.355 . S
C1020 C1022 1.419 . S
C1021 C1016 1.425 . S
C1021 C1018 1.409 . S
C1021 C1019 1.415 . S
C1022 H1012 0.930 . S
C1022 C1020 1.419 . S
C1022 C1023 1.362 . S
C1023 H1013 0.930 . S
C1023 C1016 1.409 . S
C1023 C1022 1.362 . S
H1024 C1030 0.930 . S
H1025 C1033 0.930 . S
H1026 C1034 0.930 . S
H1027 C1035 0.930 . S
H1028 C1038 0.930 . S
H1029 C1039 0.930 . S
C1030 H1024 0.930 . S
C1030 C1031 1.355 . S
C1030 C1032 1.415 . S
C1031 C1030 1.355 . S
C1031 C1033 1.419 . S
C1032 C1030 1.415 . S
C1032 C1037 1.425 . S
C1032 C1039 1.409 . S
C1033 H1025 0.930 . S
C1033 C1031 1.419 . S
C1033 C1034 1.362 . S
C1034 H1026 0.930 . S
C1034 C1033 1.362 . S
C1034 C1037 1.409 . S
C1035 H1027 0.930 . S
C1035 C1036 1.355 . S
C1035 C1037 1.415 . S
C1036 C1035 1.355 . S
C1036 C1038 1.419 . S
C1037 C1032 1.425 . S
C1037 C1034 1.409 . S
C1037 C1035 1.415 . S
C1038 H1028 0.930 . S
C1038 C1036 1.419 . S
C1038 C1039 1.362 . S
C1039 H1029 0.930 . S
C1039 C1032 1.409 . S
C1039 C1038 1.362 . S
H1040 C1046 0.930 . S
H1041 C1049 0.930 . S
H1042 C1050 0.930 . S
H1043 C1051 0.930 . S
H1044 C1054 0.930 . S
H1045 C1055 0.930 . S
C1046 H1040 0.930 . S
C1046 C1047 1.355 . S
C1046 C1048 1.415 . S
C1047 C1046 1.355 . S
C1047 C1049 1.419 . S
C1048 C1046 1.415 . S
C1048 C1053 1.425 . S
C1048 C1055 1.409 . S
C1049 H1041 0.930 . S
C1049 C1047 1.419 . S
C1049 C1050 1.362 . S
C1050 H1042 0.930 . S
C1050 C1049 1.362 . S
C1050 C1053 1.409 . S
C1051 H1043 0.930 . S
C1051 C1052 1.355 . S
C1051 C1053 1.415 . S
C1052 C1051 1.355 . S
C1052 C1054 1.419 . S
C1053 C1048 1.425 . S
C1053 C1050 1.409 . S
C1053 C1051 1.415 . S
C1054 H1044 0.930 . S
C1054 C1052 1.419 . S
C1054 C1055 1.362 . S
C1055 H1045 0.930 . S
C1055 C1048 1.409 . S
C1055 C1054 1.362 . S
H1056 C1062 0.930 . S
H1057 C1065 0.930 . S
H1058 C1066 0.930 . S
H1059 C1067 0.930 . S
H1060 C1070 0.930 . S
H1061 C1071 0.930 . S
C1062 H1056 0.930 . S
C1062 C1063 1.355 . S
C1062 C1064 1.415 . S
C1063 C1062 1.355 . S
C1063 C1065 1.419 . S
C1064 C1062 1.415 . S
C1064 C1069 1.425 . S
C1064 C1071 1.409 . S
C1065 H1057 0.930 . S
C1065 C1063 1.419 . S
C1065 C1066 1.362 . S
C1066 H1058 0.930 . S
C1066 C1065 1.362 . S
C1066 C1069 1.409 . S
C1067 H1059 0.930 . S
C1067 C1068 1.355 . S
C1067 C1069 1.415 . S
C1068 C1067 1.355 . S
C1068 C1070 1.419 . S
C1069 C1064 1.425 . S
C1069 C1066 1.409 . S
C1069 C1067 1.415 . S
C1070 H1060 0.930 . S
C1070 C1068 1.419 . S
C1070 C1071 1.362 . S
C1071 H1061 0.930 . S
C1071 C1064 1.409 . S
C1071 C1070 1.362 . S
H1072 C1078 0.930 . S
H1073 C1081 0.930 . S
H1074 C1082 0.930 . S
H1075 C1083 0.930 . S
H1076 C1086 0.930 . S
H1077 C1087 0.930 . S
C1078 H1072 0.930 . S
C1078 C1079 1.355 . S
C1078 C1080 1.415 . S
C1079 C1078 1.355 . S
C1079 C1081 1.419 . S
C1080 C1078 1.415 . S
C1080 C1085 1.425 . S
C1080 C1087 1.409 . S
C1081 H1073 0.930 . S
C1081 C1079 1.419 . S
C1081 C1082 1.362 . S
C1082 H1074 0.930 . S
C1082 C1081 1.362 . S
C1082 C1085 1.409 . S
C1083 H1075 0.930 . S
C1083 C1084 1.355 . S
C1083 C1085 1.415 . S
C1084 C1083 1.355 . S
C1084 C1086 1.419 . S
C1085 C1080 1.425 . S
C1085 C1082 1.409 . S
C1085 C1083 1.415 . S
C1086 H1076 0.930 . S
C1086 C1084 1.419 . S
C1086 C1087 1.362 . S
C1087 H1077 0.930 . S
C1087 C1080 1.409 . S
C1087 C1086 1.362 . S
H1088 C1094 0.930 . S
H1089 C1097 0.930 . S
H1090 C1098 0.930 . S
H1091 C1099 0.930 . S
H1092 C1102 0.930 . S
H1093 C1103 0.930 . S
C1094 H1088 0.930 . S
C1094 C1095 1.355 . S
C1094 C1096 1.415 . S
C1095 C1094 1.355 . S
C1095 C1097 1.419 . S
C1096 C1094 1.415 . S
C1096 C1101 1.425 . S
C1096 C1103 1.409 . S
C1097 H1089 0.930 . S
C1097 C1095 1.419 . S
C1097 C1098 1.362 . S
C1098 H1090 0.930 . S
C1098 C1097 1.362 . S
C1098 C1101 1.409 . S
C1099 H1091 0.930 . S
C1099 C1100 1.355 . S
C1099 C1101 1.415 . S
C1100 C1099 1.355 . S
C1100 C1102 1.419 . S
C1101 C1096 1.425 . S
C1101 C1098 1.409 . S
C1101 C1099 1.415 . S
C1102 H1092 0.930 . S
C1102 C1100 1.419 . S
C1102 C1103 1.362 . S
C1103 H1093 0.930 . S
C1103 C1096 1.409 . S
C1103 C1102 1.362 . S
H1104 C1110 0.930 . S
H1105 C1113 0.930 . S
H1106 C1114 0.930 . S
H1107 C1115 0.930 . S
H1108 C1118 0.930 . S
H1109 C1119 0.930 . S
C1110 H1104 0.930 . S
C1110 C1111 1.355 . S
C1110 C1112 1.415 . S
C1111 C1110 1.355 . S
C1111 C1113 1.419 . S
C1112 C1110 1.415 . S
C1112 C1117 1.425 . S
C1112 C1119 1.409 . S
C1113 H1105 0.930 . S
C1113 C1111 1.419 . S
C1113 C1114 1.362 . S
C1114 H1106 0.930 . S
C1114 C1113 1.362 . S
C1114 C1117 1.409 . S
C1115 H1107 0.930 . S
C1115 C1116 1.355 . S
C1115 C1117 1.415 . S
C1116 C1115 1.355 . S
C1116 C1118 1.419 . S
C1117 C1112 1.425 . S
C1117 C1114 1.409 . S
C1117 C1115 1.415 . S
C1118 H1108 0.930 . S
C1118 C1116 1.419 . S
C1118 C1119 1.362 . S
C1119 H1109 0.930 . S
C1119 C1112 1.409 . S
C1119 C1118 1.362 . S
H1120 C1126 0.930 . S
H1121 C1129 0.930 . S
H1122 C1130 0.930 . S
H1123 C1131 0.930 . S
H1124 C1134 0.930 . S
H1125 C1135 0.930 . S
C1126 H1120 0.930 . S
C1126 C1127 1.355 . S
C1126 C1128 1.415 . S
C1127 C1126 1.355 . S
C1127 C1129 1.419 . S
C1128 C1126 1.415 . S
C1128 C1133 1.425 . S
C1128 C1135 1.409 . S
C1129 H1121 0.930 . S
C1129 C1127 1.419 . S
C1129 C1130 1.362 . S
C1130 H1122 0.930 . S
C1130 C1129 1.362 . S
C1130 C1133 1.409 . S
C1131 H1123 0.930 . S
C1131 C1132 1.355 . S
C1131 C1133 1.415 . S
C1132 C1131 1.355 . S
C1132 C1134 1.419 . S
C1133 C1128 1.425 . S
C1133 C1130 1.409 . S
C1133 C1131 1.415 . S
C1134 H1124 0.930 . S
C1134 C1132 1.419 . S
C1134 C1135 1.362 . S
C1135 H1125 0.930 . S
C1135 C1128 1.409 . S
C1135 C1134 1.362 . S
H1136 C1142 0.930 . S
H1137 C1145 0.930 . S
H1138 C1146 0.930 . S
H1139 C1147 0.930 1_655 S
H1140 C1150 0.930 . S
H1141 C1151 0.930 . S
C1142 H1136 0.930 . S
C1142 C1143 1.355 . S
C1142 C1144 1.415 . S
C1143 C1142 1.355 . S
C1143 C1145 1.419 . S
C1144 C1142 1.415 . S
C1144 C1149 1.425 . S
C1144 C1151 1.409 . S
C1145 H1137 0.930 . S
C1145 C1143 1.419 . S
C1145 C1146 1.362 . S
C1146 H1138 0.930 . S
C1146 C1145 1.362 . S
C1146 C1149 1.409 . S
C1147 H1139 0.930 1_455 S
C1147 C1148 1.355 . S
C1147 C1149 1.415 . S
C1148 C1147 1.355 . S
C1148 C1150 1.419 . S
C1149 C1144 1.425 . S
C1149 C1146 1.409 . S
C1149 C1147 1.415 . S
C1150 H1140 0.930 . S
C1150 C1148 1.419 . S
C1150 C1151 1.362 . S
C1151 H1141 0.930 . S
C1151 C1144 1.409 . S
C1151 C1150 1.362 . S
H1152 C1158 0.930 . S
H1153 C1161 0.930 . S
H1154 C1162 0.930 . S
H1155 C1163 0.930 . S
H1156 C1166 0.930 . S
H1157 C1167 0.930 . S
C1158 H1152 0.930 . S
C1158 C1159 1.355 . S
C1158 C1160 1.415 . S
C1159 C1158 1.355 . S
C1159 C1161 1.419 . S
C1160 C1158 1.415 . S
C1160 C1165 1.425 . S
C1160 C1167 1.409 . S
C1161 H1153 0.930 . S
C1161 C1159 1.419 . S
C1161 C1162 1.362 . S
C1162 H1154 0.930 . S
C1162 C1161 1.362 . S
C1162 C1165 1.409 . S
C1163 H1155 0.930 . S
C1163 C1164 1.355 . S
C1163 C1165 1.415 . S
C1164 C1163 1.355 . S
C1164 C1166 1.419 . S
C1165 C1160 1.425 . S
C1165 C1162 1.409 . S
C1165 C1163 1.415 . S
C1166 H1156 0.930 . S
C1166 C1164 1.419 . S
C1166 C1167 1.362 . S
C1167 H1157 0.930 . S
C1167 C1160 1.409 . S
C1167 C1166 1.362 . S
H1168 C1174 0.930 . S
H1169 C1177 0.930 . S
H1170 C1178 0.930 . S
H1171 C1179 0.930 . S
H1172 C1182 0.930 . S
H1173 C1183 0.930 . S
C1174 H1168 0.930 . S
C1174 C1175 1.355 . S
C1174 C1176 1.415 . S
C1175 C1174 1.355 . S
C1175 C1177 1.419 . S
C1176 C1174 1.415 . S
C1176 C1181 1.425 . S
C1176 C1183 1.409 . S
C1177 H1169 0.930 . S
C1177 C1175 1.419 . S
C1177 C1178 1.362 . S
C1178 H1170 0.930 . S
C1178 C1177 1.362 . S
C1178 C1181 1.409 . S
C1179 H1171 0.930 . S
C1179 C1180 1.355 . S
C1179 C1181 1.415 . S
C1180 C1179 1.355 . S
C1180 C1182 1.419 . S
C1181 C1176 1.425 . S
C1181 C1178 1.409 . S
C1181 C1179 1.415 . S
C1182 H1172 0.930 . S
C1182 C1180 1.419 . S
C1182 C1183 1.362 . S
C1183 H1173 0.930 . S
C1183 C1176 1.409 . S
C1183 C1182 1.362 . S
H1184 C1190 0.930 . S
H1185 C1193 0.930 . S
H1186 C1194 0.930 . S
H1187 C1195 0.930 . S
H1188 C1198 0.930 . S
H1189 C1199 0.930 . S
C1190 H1184 0.930 . S
C1190 C1191 1.355 . S
C1190 C1192 1.415 . S
C1191 C1190 1.355 . S
C1191 C1193 1.419 . S
C1192 C1190 1.415 . S
C1192 C1197 1.425 . S
C1192 C1199 1.409 1_556 S
C1193 H1185 0.930 . S
C1193 C1191 1.419 . S
C1193 C1194 1.362 . S
C1194 H1186 0.930 . S
C1194 C1193 1.362 . S
C1194 C1197 1.409 . S
C1195 H1187 0.930 . S
C1195 C1196 1.355 . S
C1195 C1197 1.415 1_554 S
C1196 C1195 1.355 . S
C1196 C1198 1.419 . S
C1197 C1192 1.425 . S
C1197 C1194 1.409 . S
C1197 C1195 1.415 1_556 S
C1198 H1188 0.930 . S
C1198 C1196 1.419 . S
C1198 C1199 1.362 . S
C1199 H1189 0.930 . S
C1199 C1192 1.409 1_554 S
C1199 C1198 1.362 . S
H1200 C1206 0.930 . S
H1201 C1209 0.930 . S
H1202 C1210 0.930 . S
H1203 C1211 0.930 . S
H1204 C1214 0.930 . S
H1205 C1215 0.930 . S
C1206 H1200 0.930 . S
C1206 C1207 1.355 . S
C1206 C1208 1.415 . S
C1207 C1206 1.355 . S
C1207 C1209 1.419 1_545 S
C1208 C1206 1.415 . S
C1208 C1213 1.425 1_545 S
C1208 C1215 1.409 . S
C1209 H1201 0.930 . S
C1209 C1207 1.419 1_565 S
C1209 C1210 1.362 . S
C1210 H1202 0.930 . S
C1210 C1209 1.362 . S
C1210 C1213 1.409 . S
C1211 H1203 0.930 . S
C1211 C1212 1.355 1_565 S
C1211 C1213 1.415 . S
C1212 C1211 1.355 1_545 S
C1212 C1214 1.419 . S
C1213 C1208 1.425 1_565 S
C1213 C1210 1.409 . S
C1213 C1211 1.415 . S
C1214 H1204 0.930 . S
C1214 C1212 1.419 . S
C1214 C1215 1.362 . S
C1215 H1205 0.930 . S
C1215 C1208 1.409 . S
C1215 C1214 1.362 . S
H1216 C1222 0.930 . S
H1217 C1225 0.930 . S
H1218 C1226 0.930 . S
H1219 C1227 0.930 . S
H1220 C1230 0.930 . S
H1221 C1231 0.930 . S
C1222 H1216 0.930 . S
C1222 C1223 1.355 . S
C1222 C1224 1.415 . S
C1223 C1222 1.355 . S
C1223 C1225 1.419 . S
C1224 C1222 1.415 . S
C1224 C1229 1.425 . S
C1224 C1231 1.409 . S
C1225 H1217 0.930 . S
C1225 C1223 1.419 . S
C1225 C1226 1.362 . S
C1226 H1218 0.930 . S
C1226 C1225 1.362 . S
C1226 C1229 1.409 . S
C1227 H1219 0.930 . S
C1227 C1228 1.355 . S
C1227 C1229 1.415 . S
C1228 C1227 1.355 . S
C1228 C1230 1.419 . S
C1229 C1224 1.425 . S
C1229 C1226 1.409 . S
C1229 C1227 1.415 . S
C1230 H1220 0.930 . S
C1230 C1228 1.419 . S
C1230 C1231 1.362 . S
C1231 H1221 0.930 . S
C1231 C1224 1.409 . S
C1231 C1230 1.362 . S
H1232 C1238 0.930 . S
H1233 C1241 0.930 . S
H1234 C1242 0.930 . S
H1235 C1243 0.930 . S
H1236 C1246 0.930 . S
H1237 C1247 0.930 . S
C1238 H1232 0.930 . S
C1238 C1239 1.355 . S
C1238 C1240 1.415 . S
C1239 C1238 1.355 . S
C1239 C1241 1.419 1_565 S
C1240 C1238 1.415 . S
C1240 C1245 1.425 1_565 S
C1240 C1247 1.409 . S
C1241 H1233 0.930 . S
C1241 C1239 1.419 1_545 S
C1241 C1242 1.362 . S
C1242 H1234 0.930 . S
C1242 C1241 1.362 . S
C1242 C1245 1.409 . S
C1243 H1235 0.930 . S
C1243 C1244 1.355 . S
C1243 C1245 1.415 . S
C1244 C1243 1.355 . S
C1244 C1246 1.419 1_545 S
C1245 C1240 1.425 1_545 S
C1245 C1242 1.409 . S
C1245 C1243 1.415 . S
C1246 H1236 0.930 . S
C1246 C1244 1.419 1_565 S
C1246 C1247 1.362 . S
C1247 H1237 0.930 . S
C1247 C1240 1.409 . S
C1247 C1246 1.362 . S
H1248 C1254 0.930 . S
H1249 C1257 0.930 . S
H1250 C1258 0.930 . S
H1251 C1259 0.930 . S
H1252 C1262 0.930 . S
H1253 C1263 0.930 . S
C1254 H1248 0.930 . S
C1254 C1255 1.355 . S
C1254 C1256 1.415 1_556 S
C1255 C1254 1.355 . S
C1255 C1257 1.419 . S
C1256 C1254 1.415 1_554 S
C1256 C1261 1.425 . S
C1256 C1263 1.409 . S
C1257 H1249 0.930 . S
C1257 C1255 1.419 . S
C1257 C1258 1.362 1_556 S
C1258 H1250 0.930 . S
C1258 C1257 1.362 1_554 S
C1258 C1261 1.409 . S
C1259 H1251 0.930 . S
C1259 C1260 1.355 . S
C1259 C1261 1.415 . S
C1260 C1259 1.355 . S
C1260 C1262 1.419 . S
C1261 C1256 1.425 . S
C1261 C1258 1.409 . S
C1261 C1259 1.415 . S
C1262 H1252 0.930 . S
C1262 C1260 1.419 . S
C1262 C1263 1.362 . S
C1263 H1253 0.930 . S
C1263 C1256 1.409 . S
C1263 C1262 1.362 . S
H1264 C1270 0.930 . S
H1265 C1273 0.930 . S
H1266 C1274 0.930 . S
H1267 C1275 0.930 . S
H1268 C1278 0.930 . S
H1269 C1279 0.930 . S
C1270 H1264 0.930 . S
C1270 C1271 1.355 1_565 S
C1270 C1272 1.415 . S
C1271 C1270 1.355 1_545 S
C1271 C1273 1.419 . S
C1272 C1270 1.415 . S
C1272 C1277 1.425 1_565 S
C1272 C1279 1.409 . S
C1273 H1265 0.930 . S
C1273 C1271 1.419 . S
C1273 C1274 1.362 . S
C1274 H1266 0.930 . S
C1274 C1273 1.362 . S
C1274 C1277 1.409 . S
C1275 H1267 0.930 . S
C1275 C1276 1.355 1_545 S
C1275 C1277 1.415 . S
C1276 C1275 1.355 1_565 S
C1276 C1278 1.419 . S
C1277 C1272 1.425 1_545 S
C1277 C1274 1.409 . S
C1277 C1275 1.415 . S
C1278 H1268 0.930 . S
C1278 C1276 1.419 . S
C1278 C1279 1.362 . S
C1279 H1269 0.930 . S
C1279 C1272 1.409 . S
C1279 C1278 1.362 . S
H1280 C1286 0.930 . S
H1281 C1289 0.930 . S
H1282 C1290 0.930 . S
H1283 C1291 0.930 . S
H1284 C1294 0.930 . S
H1285 C1295 0.930 . S
C1286 H1280 0.930 . S
C1286 C1287 1.355 . S
C1286 C1288 1.415 . S
C1287 C1286 1.355 . S
C1287 C1289 1.419 . S
C1288 C1286 1.415 . S
C1288 C1293 1.425 . S
C1288 C1295 1.409 . S
C1289 H1281 0.930 . S
C1289 C1287 1.419 . S
C1289 C1290 1.362 . S
C1290 H1282 0.930 . S
C1290 C1289 1.362 . S
C1290 C1293 1.409 . S
C1291 H1283 0.930 . S
C1291 C1292 1.355 . S
C1291 C1293 1.415 . S
C1292 C1291 1.355 . S
C1292 C1294 1.419 . S
C1293 C1288 1.425 . S
C1293 C1290 1.409 . S
C1293 C1291 1.415 . S
C1294 H1284 0.930 . S
C1294 C1292 1.419 . S
C1294 C1295 1.362 . S
C1295 H1285 0.930 . S
C1295 C1288 1.409 . S
C1295 C1294 1.362 . S
H1296 C1302 0.930 . S
H1297 C1305 0.930 . S
H1298 C1306 0.930 . S
H1299 C1307 0.930 . S
H1300 C1310 0.930 . S
H1301 C1311 0.930 . S
C1302 H1296 0.930 . S
C1302 C1303 1.355 . S
C1302 C1304 1.415 . S
C1303 C1302 1.355 . S
C1303 C1305 1.419 1_545 S
C1304 C1302 1.415 . S
C1304 C1309 1.425 1_545 S
C1304 C1311 1.409 . S
C1305 H1297 0.930 . S
C1305 C1303 1.419 1_565 S
C1305 C1306 1.362 . S
C1306 H1298 0.930 . S
C1306 C1305 1.362 . S
C1306 C1309 1.409 . S
C1307 H1299 0.930 . S
C1307 C1308 1.355 1_565 S
C1307 C1309 1.415 . S
C1308 C1307 1.355 1_545 S
C1308 C1310 1.419 . S
C1309 C1304 1.425 1_565 S
C1309 C1306 1.409 . S
C1309 C1307 1.415 . S
C1310 H1300 0.930 . S
C1310 C1308 1.419 . S
C1310 C1311 1.362 . S
C1311 H1301 0.930 . S
C1311 C1304 1.409 . S
C1311 C1310 1.362 . S
H1312 C1318 0.930 . S
H1313 C1321 0.930 . S
H1314 C1322 0.930 . S
H1315 C1323 0.930 . S
H1316 C1326 0.930 . S
H1317 C1327 0.930 . S
C1318 H1312 0.930 . S
C1318 C1319 1.355 . S
C1318 C1320 1.415 . S
C1319 C1318 1.355 . S
C1319 C1321 1.419 . S
C1320 C1318 1.415 . S
C1320 C1325 1.425 . S
C1320 C1327 1.409 . S
C1321 H1313 0.930 . S
C1321 C1319 1.419 . S
C1321 C1322 1.362 . S
C1322 H1314 0.930 . S
C1322 C1321 1.362 . S
C1322 C1325 1.409 . S
C1323 H1315 0.930 . S
C1323 C1324 1.355 . S
C1323 C1325 1.415 . S
C1324 C1323 1.355 . S
C1324 C1326 1.419 . S
C1325 C1320 1.425 . S
C1325 C1322 1.409 . S
C1325 C1323 1.415 . S
C1326 H1316 0.930 . S
C1326 C1324 1.419 . S
C1326 C1327 1.362 . S
C1327 H1317 0.930 . S
C1327 C1320 1.409 . S
C1327 C1326 1.362 . S
H1328 C1334 0.930 . S
H1329 C1337 0.930 . S
H1330 C1338 0.930 . S
H1331 C1339 0.930 . S
H1332 C1342 0.930 . S
H1333 C1343 0.930 . S
C1334 H1328 0.930 . S
C1334 C1335 1.355 . S
C1334 C1336 1.415 . S
C1335 C1334 1.355 . S
C1335 C1337 1.419 . S
C1336 C1334 1.415 . S
C1336 C1341 1.425 . S
C1336 C1343 1.409 . S
C1337 H1329 0.930 . S
C1337 C1335 1.419 . S
C1337 C1338 1.362 . S
C1338 H1330 0.930 . S
C1338 C1337 1.362 . S
C1338 C1341 1.409 . S
C1339 H1331 0.930 . S
C1339 C1340 1.355 . S
C1339 C1341 1.415 . S
C1340 C1339 1.355 . S
C1340 C1342 1.419 . S
C1341 C1336 1.425 . S
C1341 C1338 1.409 . S
C1341 C1339 1.415 . S
C1342 H1332 0.930 . S
C1342 C1340 1.419 . S
C1342 C1343 1.362 . S
C1343 H1333 0.930 . S
C1343 C1336 1.409 . S
C1343 C1342 1.362 . S
H1344 C1350 0.930 . S
H1345 C1353 0.930 . S
H1346 C1354 0.930 . S
H1347 C1355 0.930 . S
H1348 C1358 0.930 . S
H1349 C1359 0.930 . S
C1350 H1344 0.930 . S
C1350 C1351 1.355 . S
C1350 C1352 1.415 . S
C1351 C1350 1.355 . S
C1351 C1353 1.419 . S
C1352 C1350 1.415 . S
C1352 C1357 1.425 1_554 S
C1352 C1359 1.409 1_554 S
C1353 H1345 0.930 . S
C1353 C1351 1.419 . S
C1353 C1354 1.362 . S
C1354 H1346 0.930 . S
C1354 C1353 1.362 . S
C1354 C1357 1.409 1_554 S
C1355 H1347 0.930 . S
C1355 C1356 1.355 . S
C1355 C1357 1.415 . S
C1356 C1355 1.355 . S
C1356 C1358 1.419 . S
C1357 C1352 1.425 1_556 S
C1357 C1354 1.409 1_556 S
C1357 C1355 1.415 . S
C1358 H1348 0.930 . S
C1358 C1356 1.419 . S
C1358 C1359 1.362 . S
C1359 H1349 0.930 . S
C1359 C1352 1.409 1_556 S
C1359 C1358 1.362 . S
H1360 C1366 0.930 . S
H1361 C1369 0.930 . S
H1362 C1370 0.930 . S
H1363 C1371 0.930 . S
H1364 C1374 0.930 . S
H1365 C1375 0.930 . S
C1366 H1360 0.930 . S
C1366 C1367 1.355 . S
C1366 C1368 1.415 . S
C1367 C1366 1.355 . S
C1367 C1369 1.419 . S
C1368 C1366 1.415 . S
C1368 C1373 1.425 . S
C1368 C1375 1.409 . S
C1369 H1361 0.930 . S
C1369 C1367 1.419 . S
C1369 C1370 1.362 . S
C1370 H1362 0.930 . S
C1370 C1369 1.362 . S
C1370 C1373 1.409 . S
C1371 H1363 0.930 . S
C1371 C1372 1.355 . S
C1371 C1373 1.415 . S
C1372 C1371 1.355 . S
C1372 C1374 1.419 . S
C1373 C1368 1.425 . S
C1373 C1370 1.409 . S
C1373 C1371 1.415 . S
C1374 H1364 0.930 . S
C1374 C1372 1.419 . S
C1374 C1375 1.362 . S
C1375 H1365 0.930 . S
C1375 C1368 1.409 . S
C1375 C1374 1.362 . S
H1376 C1382 0.930 1_565 S
H1377 C1385 0.930 . S
H1378 C1386 0.930 . S
H1379 C1387 0.930 . S
H1380 C1390 0.930 . S
H1381 C1391 0.930 1_565 S
C1382 H1376 0.930 1_545 S
C1382 C1383 1.355 . S
C1382 C1384 1.415 . S
C1383 C1382 1.355 . S
C1383 C1385 1.419 . S
C1384 C1382 1.415 . S
C1384 C1389 1.425 . S
C1384 C1391 1.409 . S
C1385 H1377 0.930 . S
C1385 C1383 1.419 . S
C1385 C1386 1.362 . S
C1386 H1378 0.930 . S
C1386 C1385 1.362 . S
C1386 C1389 1.409 . S
C1387 H1379 0.930 . S
C1387 C1388 1.355 . S
C1387 C1389 1.415 . S
C1388 C1387 1.355 . S
C1388 C1390 1.419 . S
C1389 C1384 1.425 . S
C1389 C1386 1.409 . S
C1389 C1387 1.415 . S
C1390 H1380 0.930 . S
C1390 C1388 1.419 . S
C1390 C1391 1.362 . S
C1391 H1381 0.930 1_545 S
C1391 C1384 1.409 . S
C1391 C1390 1.362 . S
H1392 C1398 0.930 . S
H1393 C1401 0.930 . S
H1394 C1402 0.930 . S
H1395 C1403 0.930 . S
H1396 C1406 0.930 . S
H1397 C1407 0.930 . S
C1398 H1392 0.930 . S
C1398 C1399 1.355 . S
C1398 C1400 1.415 . S
C1399 C1398 1.355 . S
C1399 C1401 1.419 . S
C1400 C1398 1.415 . S
C1400 C1405 1.425 . S
C1400 C1407 1.409 . S
C1401 H1393 0.930 . S
C1401 C1399 1.419 . S
C1401 C1402 1.362 . S
C1402 H1394 0.930 . S
C1402 C1401 1.362 . S
C1402 C1405 1.409 . S
C1403 H1395 0.930 . S
C1403 C1404 1.355 . S
C1403 C1405 1.415 . S
C1404 C1403 1.355 . S
C1404 C1406 1.419 . S
C1405 C1400 1.425 . S
C1405 C1402 1.409 . S
C1405 C1403 1.415 . S
C1406 H1396 0.930 . S
C1406 C1404 1.419 . S
C1406 C1407 1.362 . S
C1407 H1397 0.930 . S
C1407 C1400 1.409 . S
C1407 C1406 1.362 . S
H1408 C1414 0.930 . S
H1409 C1417 0.930 . S
H1410 C1418 0.930 . S
H1411 C1419 0.930 . S
H1412 C1422 0.930 . S
H1413 C1423 0.930 . S
C1414 H1408 0.930 . S
C1414 C1415 1.355 . S
C1414 C1416 1.415 . S
C1415 C1414 1.355 . S
C1415 C1417 1.419 . S
C1416 C1414 1.415 . S
C1416 C1421 1.425 1_554 S
C1416 C1423 1.409 1_554 S
C1417 H1409 0.930 . S
C1417 C1415 1.419 . S
C1417 C1418 1.362 . S
C1418 H1410 0.930 . S
C1418 C1417 1.362 . S
C1418 C1421 1.409 1_554 S
C1419 H1411 0.930 . S
C1419 C1420 1.355 . S
C1419 C1421 1.415 . S
C1420 C1419 1.355 . S
C1420 C1422 1.419 . S
C1421 C1416 1.425 1_556 S
C1421 C1418 1.409 1_556 S
C1421 C1419 1.415 . S
C1422 H1412 0.930 . S
C1422 C1420 1.419 . S
C1422 C1423 1.362 . S
C1423 H1413 0.930 . S
C1423 C1416 1.409 1_556 S
C1423 C1422 1.362 . S
H1424 C1430 0.930 . S
H1425 C1433 0.930 . S
H1426 C1434 0.930 . S
H1427 C1435 0.930 . S
H1428 C1438 0.930 . S
H1429 C1439 0.930 . S
C1430 H1424 0.930 . S
C1430 C1431 1.355 . S
C1430 C1432 1.415 . S
C1431 C1430 1.355 . S
C1431 C1433 1.419 . S
C1432 C1430 1.415 . S
C1432 C1437 1.425 . S
C1432 C1439 1.409 . S
C1433 H1425 0.930 . S
C1433 C1431 1.419 . S
C1433 C1434 1.362 . S
C1434 H1426 0.930 . S
C1434 C1433 1.362 . S
C1434 C1437 1.409 . S
C1435 H1427 0.930 . S
C1435 C1436 1.355 . S
C1435 C1437 1.415 . S
C1436 C1435 1.355 . S
C1436 C1438 1.419 . S
C1437 C1432 1.425 . S
C1437 C1434 1.409 . S
C1437 C1435 1.415 . S
C1438 H1428 0.930 . S
C1438 C1436 1.419 . S
C1438 C1439 1.362 . S
C1439 H1429 0.930 . S
C1439 C1432 1.409 . S
C1439 C1438 1.362 . S
C551 C1 1.602 . S
C556 C241 1.532 . S
C567 C35 1.481 . S
C572 C139 1.587 . S
C583 C71 1.493 . S
C588 C171 1.421 . S
C599 C205 1.610 . S
C604 C105 1.593 . S
C615 C275 1.495 . S
C620 C513 1.521 . S
C631 C307 1.656 . S
C636 C411 1.648 . S
C647 C445 1.460 . S
C652 C343 1.511 . S
C663 C377 1.684 . S
C668 C477 1.667 . S
C679 C391 2.476 . S
C684 C3 2.250 . S
C695 C37 1.818 . S
C700 C448 1.942 . S
C711 C96 1.408 . S
C716 C323 1.406 . S
C727 C130 1.855 . S
C732 C527 1.855 . S
C743 C459 2.025 . S
C748 C137 1.941 . S
C759 C176 0.925 . S
C764 C334 0.864 . S
C775 C516 1.372 . S
C780 C207 1.353 . S
C791 C380 1.819 . S
C796 C239 1.733 . S
C807 C273 2.290 . S
C812 C119 2.510 . S
C823 C312 1.143 1_565 S
C828 C198 1.096 . S
C839 C368 0.829 . S
C844 C62 0.772 . S
C855 C255 1.713 . S
C860 C402 1.720 . S
C871 C409 1.945 . S
C876 C187 2.057 1_545 S
C887 C51 1.465 . S
C892 C470 1.463 . S
C903 C244 1.273 . S
C908 C479 1.339 . S
C919 C511 1.557 . S
C924 C108 1.650 . S
C935 C425 2.287 . S
C940 C173 2.132 . S
C951 C278 1.131 . S
C956 C210 1.139 . S
C967 C493 1.225 . S
C972 C266 1.224 . S
C983 C357 1.755 . S
C988 C164 1.753 1_655 S
C999 C289 1.939 . S
C1004 C103 1.889 . S
C1015 C504 0.837 . S
C1020 C6 0.811 1_655 S
C1031 C40 0.675 . S
C1036 C346 0.667 . S
C1047 C414 1.675 . S
C1052 C69 1.530 . S
C1063 C443 2.202 . S
C1068 C153 2.406 . S
C1079 C28 1.114 . S
C1084 C482 1.154 . S
C1095 C538 1.444 . S
C1100 C221 1.438 . S
C1111 C436 1.855 1_455 S
C1116 C85 1.859 . S
C1127 C375 1.847 . S
C1132 C17 1.911 . S
C1143 C232 0.812 . S
C1148 C300 0.770 1_455 S
C1159 C74 1.311 . S
C1164 C309 1.370 . S
C1175 C341 1.578 . S
C1180 C142 1.721 . S
C1191 C219 1.609 . S
C1196 C15 1.596 . S
C1207 C260 1.597 . S
C1212 C49 1.590 1_545 S
C1223 C83 1.451 . S
C1228 C158 1.394 . S
C1239 C192 1.849 . S
C1244 C117 1.651 . S
C1255 C294 1.520 . S
C1260 C491 1.525 . S
C1271 C328 1.565 . S
C1276 C532 1.568 . S
C1287 C430 1.678 . S
C1292 C355 1.670 . S
C1303 C457 1.588 . S
C1308 C389 1.619 1_545 S
C1319 C56 1.451 . S
C1324 C185 1.528 . S
C1335 C90 1.589 . S
C1340 C226 1.522 . S
C1351 C253 1.604 . S
C1356 C124 1.580 . S
C1367 C151 1.837 . S
C1372 C22 1.930 . S
C1383 C321 1.640 . S
C1388 C464 1.606 . S
C1399 C498 1.539 . S
C1404 C362 1.695 . S
C1415 C396 1.585 . S
C1420 C525 1.556 . S
C1431 C423 1.688 . S
C1436 C287 1.869 . S
