# Generated by pormake.
# Topology wgw, (6)-cn, num edge types: 1
# Building blocks:
#     Node 0, Type 0, BuildingBlock: IZENUY_clean_sbu_0, # of connection points: 6
#     Node 1, Type 0, BuildingBlock: IZENUY_clean_sbu_0, # of connection points: 6
#     Node 2, Type 0, BuildingBlock: IZENUY_clean_sbu_0, # of connection points: 6
#     Node 3, Type 0, BuildingBlock: IZENUY_clean_sbu_0, # of connection points: 6
#     Node 4, Type 0, BuildingBlock: IZENUY_clean_sbu_0, # of connection points: 6
#     Node 5, Type 0, BuildingBlock: IZENUY_clean_sbu_0, # of connection points: 6
#     Node 6, Type 0, BuildingBlock: IZENUY_clean_sbu_0, # of connection points: 6
#     Node 7, Type 0, BuildingBlock: IZENUY_clean_sbu_0, # of connection points: 6
#     Edge 8, Type (0, 0), BuildingBlock: TEMPAE_clean_linker_10, # of connection points: 2
#     Edge 9, Type (0, 0), BuildingBlock: TEMPAE_clean_linker_10, # of connection points: 2
#     Edge 10, Type (0, 0), BuildingBlock: TEMPAE_clean_linker_10, # of connection points: 2
#     Edge 11, Type (0, 0), BuildingBlock: TEMPAE_clean_linker_10, # of connection points: 2
#     Edge 12, Type (0, 0), BuildingBlock: TEMPAE_clean_linker_10, # of connection points: 2
#     Edge 13, Type (0, 0), BuildingBlock: TEMPAE_clean_linker_10, # of connection points: 2
#     Edge 14, Type (0, 0), BuildingBlock: TEMPAE_clean_linker_10, # of connection points: 2
#     Edge 15, Type (0, 0), BuildingBlock: TEMPAE_clean_linker_10, # of connection points: 2
#     Edge 16, Type (0, 0), BuildingBlock: TEMPAE_clean_linker_10, # of connection points: 2
#     Edge 17, Type (0, 0), BuildingBlock: TEMPAE_clean_linker_10, # of connection points: 2
#     Edge 18, Type (0, 0), BuildingBlock: TEMPAE_clean_linker_10, # of connection points: 2
#     Edge 19, Type (0, 0), BuildingBlock: TEMPAE_clean_linker_10, # of connection points: 2
#     Edge 20, Type (0, 0), BuildingBlock: TEMPAE_clean_linker_10, # of connection points: 2
#     Edge 21, Type (0, 0), BuildingBlock: TEMPAE_clean_linker_10, # of connection points: 2
#     Edge 22, Type (0, 0), BuildingBlock: TEMPAE_clean_linker_10, # of connection points: 2
#     Edge 23, Type (0, 0), BuildingBlock: TEMPAE_clean_linker_10, # of connection points: 2
#     Edge 24, Type (0, 0), BuildingBlock: TEMPAE_clean_linker_10, # of connection points: 2
#     Edge 25, Type (0, 0), BuildingBlock: TEMPAE_clean_linker_10, # of connection points: 2
#     Edge 26, Type (0, 0), BuildingBlock: TEMPAE_clean_linker_10, # of connection points: 2
#     Edge 27, Type (0, 0), BuildingBlock: TEMPAE_clean_linker_10, # of connection points: 2
#     Edge 28, Type (0, 0), BuildingBlock: TEMPAE_clean_linker_10, # of connection points: 2
#     Edge 29, Type (0, 0), BuildingBlock: TEMPAE_clean_linker_10, # of connection points: 2
#     Edge 30, Type (0, 0), BuildingBlock: TEMPAE_clean_linker_10, # of connection points: 2
#     Edge 31, Type (0, 0), BuildingBlock: TEMPAE_clean_linker_10, # of connection points: 2
# Relax obj value: 0.276
# Max RMSD: 0.289
# Mean RMSD: 0.289
data_MOF--net-wgw--node1-IZENUY_clean_sbu_0--edge1-TEMPAE_clean_linker_10
_symmetry_space_group_name_H-M    P1
_symmetry_Int_Tables_number       1
_symmetry_cell_setting            triclinic
loop_
_symmetry_equiv_pos_as_xyz
'x, y, z'
_cell_length_a     27.675473
_cell_length_b     27.85061
_cell_length_c     43.629723
_cell_angle_alpha  89.964675
_cell_angle_beta   90.044773
_cell_angle_gamma 89.990672
loop_
_atom_site_label
_atom_site_type_symbol
_atom_site_fract_x
_atom_site_fract_y
_atom_site_fract_z
_atom_type_partial_charge
Fe0 Fe 0.03507 0.39917 0.17024 0.0
Fe1 Fe 0.11533 0.47517 0.17114 0.0
O2 O 0.06691 0.44518 0.18964 0.0
Fe3 Fe 0.05066 0.46205 0.22733 0.0
O4 O 0.0313 0.40183 0.23944 0.0
O5 O 0.04823 0.35606 0.19991 0.0
O6 O 0.08967 0.37613 0.15045 0.0
C7 C 0.13393 0.38117 0.15779 0.0
C8 C 0.96126 0.45146 0.20115 0.0
O9 O 0.14915 0.41981 0.16943 0.0
C10 C 0.06553 0.54914 0.19693 0.0
O11 O 0.01916 0.43897 0.13886 0.0
O12 O 0.0922 0.46698 0.13198 0.0
O13 O 0.9905 0.47802 0.21524 0.0
O14 O 0.97552 0.41394 0.1873 0.0
C15 C 0.14836 0.46761 0.23232 0.0
O16 O 0.08279 0.53205 0.17244 0.0
O17 O 0.06623 0.52508 0.22155 0.0
C18 C 0.04961 0.46035 0.12236 0.0
O19 O 0.14862 0.4886 0.20656 0.0
O20 O 0.11037 0.44796 0.24218 0.0
C21 C 0.03834 0.36075 0.22789 0.0
Fe22 Fe 0.02723 0.11546 0.66105 0.0
Fe23 Fe 0.04094 0.05758 0.72008 0.0
O24 O 0.05735 0.06896 0.68141 0.0
Fe25 Fe 0.10281 0.0342 0.66326 0.0
O26 O 0.12816 0.08593 0.64229 0.0
O27 O 0.08325 0.148 0.65628 0.0
O28 O 0.01608 0.1527 0.69514 0.0
C29 C 0.03739 0.1546 0.72085 0.0
C30 C 0.0409 0.04564 0.61471 0.0
O31 O 0.05761 0.11778 0.73177 0.0
C32 C 0.047 0.96609 0.69702 0.0
O33 O 0.9696 0.08444 0.66494 0.0
O34 O 0.97748 0.07464 0.71472 0.0
O35 O 0.06362 0.01711 0.63179 0.0
O36 O 0.03275 0.08824 0.62302 0.0
C37 C 0.1424 0.04095 0.72078 0.0
O38 O 0.02264 0.99746 0.71086 0.0
O39 O 0.08478 0.97721 0.68199 0.0
C40 C 0.95213 0.07293 0.69062 0.0
O41 O 0.10104 0.03726 0.73283 0.0
O42 O 0.14675 0.04784 0.69249 0.0
C43 C 0.12246 0.13083 0.64628 0.0
Fe44 Fe 0.47168 0.05118 0.22354 0.0
Fe45 Fe 0.48275 0.10884 0.16444 0.0
O46 O 0.45357 0.06246 0.18521 0.0
Fe47 Fe 0.40751 0.02755 0.16791 0.0
O48 O 0.36464 0.04134 0.19801 0.0
O49 O 0.41275 0.02946 0.23706 0.0
O50 O 0.45413 0.11107 0.23545 0.0
C51 C 0.47349 0.1481 0.22415 0.0
C52 C 0.46593 0.96016 0.20012 0.0
O53 O 0.49463 0.14605 0.19839 0.0
C54 C 0.46662 0.03934 0.118 0.0
O55 O 0.53445 0.06967 0.21763 0.0
O56 O 0.541 0.07797 0.16775 0.0
O57 O 0.42675 0.97091 0.18647 0.0
O58 O 0.49077 0.99156 0.21364 0.0
C59 C 0.38711 0.12401 0.15055 0.0
O60 O 0.47546 0.08172 0.12652 0.0
O61 O 0.44574 0.01039 0.13577 0.0
C62 C 0.55953 0.06791 0.19347 0.0
O63 O 0.42652 0.14126 0.16022 0.0
O64 O 0.38103 0.07903 0.1472 0.0
C65 C 0.37071 0.03426 0.22621 0.0
Fe66 Fe 0.39929 0.4778 0.67363 0.0
Fe67 Fe 0.47858 0.40089 0.6747 0.0
O68 O 0.44739 0.44864 0.69271 0.0
Fe69 Fe 0.464 0.46779 0.72986 0.0
O70 O 0.4046 0.45393 0.74514 0.0
O71 O 0.36658 0.49337 0.70886 0.0
O72 O 0.36494 0.42254 0.673 0.0
C73 C 0.37973 0.38331 0.66193 0.0
C74 C 0.44606 0.5543 0.69839 0.0
O75 O 0.42404 0.37716 0.65529 0.0
C76 C 0.5524 0.45577 0.70326 0.0
O77 O 0.42242 0.46743 0.63467 0.0
O78 O 0.49497 0.43822 0.64218 0.0
O79 O 0.44782 0.53077 0.72319 0.0
O80 O 0.4318 0.53486 0.67382 0.0
C81 C 0.47511 0.36666 0.73347 0.0
O82 O 0.53807 0.41659 0.69143 0.0
O83 O 0.52348 0.48342 0.71675 0.0
C84 C 0.46481 0.45922 0.62519 0.0
O85 O 0.4646 0.35993 0.70571 0.0
O86 O 0.4842 0.40845 0.74328 0.0
C87 C 0.36723 0.4749 0.73542 0.0
Fe88 Fe 0.60588 0.52777 0.35604 0.0
Fe89 Fe 0.5436 0.55099 0.29936 0.0
O90 O 0.56069 0.56267 0.33783 0.0
Fe91 Fe 0.53124 0.60957 0.35802 0.0
O92 O 0.58741 0.64191 0.36207 0.0
O93 O 0.63206 0.57978 0.37648 0.0
O94 O 0.64981 0.54031 0.32651 0.0
C95 C 0.64488 0.53288 0.29828 0.0
C96 C 0.54537 0.54088 0.40502 0.0
O97 O 0.60323 0.52958 0.28653 0.0
C98 C 0.45524 0.56732 0.32911 0.0
O99 O 0.58703 0.47079 0.33779 0.0
O100 O 0.52462 0.49132 0.30912 0.0
O101 O 0.538 0.58342 0.39629 0.0
O102 O 0.56636 0.51151 0.38766 0.0
C103 C 0.54159 0.64799 0.29831 0.0
O104 O 0.48036 0.56895 0.3049 0.0
O105 O 0.47329 0.57859 0.35474 0.0
C106 C 0.54874 0.45998 0.32321 0.0
O107 O 0.5611 0.61086 0.28733 0.0
O108 O 0.51958 0.64607 0.32375 0.0
C109 C 0.62657 0.62471 0.37216 0.0
Fe110 Fe 0.98491 0.61366 0.85551 0.0
Fe111 Fe 0.96956 0.55379 0.79786 0.0
O112 O 0.95333 0.56741 0.83604 0.0
Fe113 Fe 0.90663 0.53546 0.85486 0.0
O114 O 0.88395 0.5895 0.87509 0.0
O115 O 0.93 0.64852 0.8578 0.0
O116 O 0.99964 0.64792 0.82086 0.0
C117 C 0.97778 0.65063 0.79542 0.0
C118 C 0.96809 0.54724 0.90325 0.0
O119 O 0.95576 0.61447 0.78499 0.0
C120 C 0.95916 0.46365 0.82257 0.0
O121 O 0.0413 0.57961 0.8534 0.0
O122 O 0.03328 0.56797 0.8038 0.0
O123 O 0.94618 0.51807 0.8862 0.0
O124 O 0.97588 0.5896 0.89423 0.0
C125 C 0.86763 0.54127 0.79715 0.0
O126 O 0.98494 0.49324 0.8082 0.0
O127 O 0.92167 0.47691 0.8371 0.0
C128 C 0.05782 0.56422 0.82819 0.0
O129 O 0.90895 0.53577 0.78535 0.0
O130 O 0.86303 0.54952 0.82535 0.0
C131 C 0.89025 0.63362 0.86844 0.0
Fe132 Fe 0.9719 0.95605 0.29076 0.0
Fe133 Fe 0.98412 0.89324 0.34768 0.0
O134 O 0.9531 0.93973 0.32811 0.0
Fe135 Fe 0.90427 0.97003 0.34579 0.0
O136 O 0.86329 0.95515 0.31473 0.0
O137 O 0.91193 0.97497 0.27724 0.0
O138 O 0.959 0.89646 0.27606 0.0
C139 C 0.98045 0.85976 0.28624 0.0
C140 C 0.95831 0.04393 0.31718 0.0
O141 O 0.99961 0.86021 0.31266 0.0
C142 C 0.96377 0.95878 0.39545 0.0
O143 O 0.03557 0.94123 0.29715 0.0
O144 O 0.0408 0.92707 0.34662 0.0
O145 O 0.91911 0.0291 0.32895 0.0
O146 O 0.98653 0.01573 0.30351 0.0
C147 C 0.88962 0.87159 0.36004 0.0
O148 O 0.97374 0.91689 0.38637 0.0
O149 O 0.94123 0.98761 0.37841 0.0
C150 C 0.05966 0.94098 0.32176 0.0
O151 O 0.92965 0.85738 0.34957 0.0
O152 O 0.88128 0.91572 0.36515 0.0
C153 C 0.86993 0.96568 0.28698 0.0
Fe154 Fe 0.61273 0.97651 0.84973 0.0
Fe155 Fe 0.53046 0.90227 0.84695 0.0
O156 O 0.56489 0.94841 0.82951 0.0
Fe157 Fe 0.5514 0.96736 0.79163 0.0
O158 O 0.61088 0.95039 0.77812 0.0
O159 O 0.64922 0.98801 0.81521 0.0
O160 O 0.64495 0.92038 0.85334 0.0
C161 C 0.62772 0.88166 0.86367 0.0
C162 C 0.5714 0.05394 0.82201 0.0
O163 O 0.58254 0.87596 0.86742 0.0
C164 C 0.46071 0.95981 0.81585 0.0
O165 O 0.5861 0.96922 0.88792 0.0
O166 O 0.51378 0.9401 0.87925 0.0
O167 O 0.57053 0.02952 0.79764 0.0
O168 O 0.58264 0.03481 0.84728 0.0
C169 C 0.53606 0.86693 0.78851 0.0
O170 O 0.47278 0.92066 0.82878 0.0
O171 O 0.4917 0.98608 0.80299 0.0
C172 C 0.54346 0.96075 0.89676 0.0
O173 O 0.54445 0.86045 0.81653 0.0
O174 O 0.52914 0.90879 0.77818 0.0
C175 C 0.64916 0.96811 0.78903 0.0
C176 C 0.38877 0.5081 0.33369 0.0
C177 C 0.40399 0.55451 0.32604 0.0
C178 C 0.3443 0.49026 0.32296 0.0
C179 C 0.31426 0.52006 0.30473 0.0
C180 C 0.32815 0.56825 0.29906 0.0
C181 C 0.37326 0.58462 0.30937 0.0
C182 C 0.33093 0.43872 0.32947 0.0
C183 C 0.297 0.60151 0.28015 0.0
C184 C 0.23717 0.47061 0.24023 0.0
C185 C 0.19063 0.47367 0.2526 0.0
C186 C 0.27792 0.48261 0.25775 0.0
C187 C 0.27185 0.49963 0.28812 0.0
C188 C 0.22498 0.50096 0.30115 0.0
C189 C 0.18486 0.48736 0.2833 0.0
C190 C 0.32735 0.47899 0.24328 0.0
C191 C 0.21687 0.51955 0.33321 0.0
H192 H 0.41316 0.48468 0.34616 0.0
H193 H 0.38561 0.62027 0.30311 0.0
H194 H 0.29714 0.43748 0.34308 0.0
H195 H 0.32385 0.41934 0.3077 0.0
H196 H 0.35969 0.41939 0.34228 0.0
H197 H 0.30963 0.63933 0.28137 0.0
H198 H 0.29776 0.58996 0.25581 0.0
H199 H 0.25889 0.59995 0.28796 0.0
H200 H 0.24158 0.45965 0.21654 0.0
H201 H 0.14876 0.49014 0.29278 0.0
H202 H 0.35237 0.45905 0.25857 0.0
H203 H 0.34252 0.5155 0.23997 0.0
H204 H 0.32627 0.46064 0.22068 0.0
H205 H 0.24245 0.50257 0.34951 0.0
H206 H 0.17938 0.51297 0.34126 0.0
H207 H 0.22377 0.5588 0.3337 0.0
C208 C 0.93472 0.37819 0.81358 0.0
C209 C 0.97098 0.41239 0.81842 0.0
C210 C 0.94635 0.33238 0.80217 0.0
C211 C 0.99522 0.32097 0.79555 0.0
C212 C 0.03212 0.35403 0.80309 0.0
C213 C 0.01949 0.39924 0.81454 0.0
C214 C 0.90606 0.29772 0.79489 0.0
C215 C 0.08467 0.34352 0.79656 0.0
C216 C 0.03186 0.19427 0.77237 0.0
C217 C 0.03023 0.19754 0.74027 0.0
C218 C 0.02011 0.23398 0.79082 0.0
C219 C 0.00721 0.278 0.77679 0.0
C220 C 0.00681 0.28174 0.74441 0.0
C221 C 0.018 0.24142 0.72659 0.0
C222 C 0.02065 0.22865 0.82524 0.0
C223 C 0.99427 0.32833 0.72851 0.0
H224 H 0.89718 0.38829 0.8166 0.0
H225 H 0.04763 0.42536 0.81897 0.0
H226 H 0.90062 0.29628 0.76971 0.0
H227 H 0.91549 0.26096 0.80267 0.0
H228 H 0.87144 0.30858 0.80574 0.0
H229 H 0.10914 0.3694 0.80818 0.0
H230 H 0.09437 0.30666 0.80394 0.0
H231 H 0.09111 0.34584 0.7715 0.0
H232 H 0.04085 0.1603 0.78309 0.0
H233 H 0.01692 0.24418 0.70181 0.0
H234 H 0.98403 0.23577 0.83453 0.0
H235 H 0.0454 0.25546 0.83558 0.0
H236 H 0.03219 0.1922 0.8326 0.0
H237 H 0.95723 0.33972 0.73497 0.0
H238 H 0.99611 0.32532 0.70315 0.0
H239 H 0.01943 0.35707 0.73597 0.0
C240 C 0.33315 0.00685 0.2757 0.0
C241 C 0.32786 0.02584 0.24604 0.0
C242 C 0.29261 0.99431 0.29342 0.0
C243 C 0.24565 1.00104 0.28126 0.0
C244 C 0.24008 0.02236 0.25197 0.0
C245 C 0.28115 0.03439 0.23474 0.0
C246 C 0.30005 0.97203 0.32461 0.0
C247 C 0.19066 0.03067 0.23821 0.0
C248 C 0.1402 0.9204 0.30153 0.0
C249 C 0.11162 0.95099 0.31934 0.0
C250 C 0.18559 0.93512 0.2908 0.0
C251 C 0.20237 0.98199 0.29763 0.0
C252 C 0.1748 0.01194 0.31725 0.0
C253 C 0.12956 0.996 0.3279 0.0
C254 C 0.21375 0.90187 0.27012 0.0
C255 C 0.19116 0.06216 0.32501 0.0
H256 H 0.36904 1.00028 0.28475 0.0
H257 H 0.27658 0.04955 0.21203 0.0
H258 H 0.27731 0.99041 0.34194 0.0
H259 H 0.28868 0.93384 0.32402 0.0
H260 H 0.33839 0.97367 0.33209 0.0
H261 H 0.19241 0.05083 0.21626 0.0
H262 H 0.17283 0.99564 0.23389 0.0
H263 H 0.16752 0.05092 0.25444 0.0
H264 H 0.12566 0.88596 0.29445 0.0
H265 H 0.10676 0.02003 0.34105 0.0
H266 H 0.25202 0.89977 0.27757 0.0
H267 H 0.21338 0.91619 0.24638 0.0
H268 H 0.19839 0.86502 0.26979 0.0
H269 H 0.23013 0.06262 0.33097 0.0
H270 H 0.17023 0.07756 0.34438 0.0
H271 H 0.18613 0.08569 0.30473 0.0
C272 C 0.46722 0.27889 0.74455 0.0
C273 C 0.48374 0.3244 0.75345 0.0
C274 C 0.47992 0.23762 0.76115 0.0
C275 C 0.51032 0.24183 0.78715 0.0
C276 C 0.52488 0.28789 0.79728 0.0
C277 C 0.51126 0.32869 0.78036 0.0
C278 C 0.46291 0.18922 0.74984 0.0
C279 C 0.55708 0.29386 0.82494 0.0
C280 C 0.52311 0.12702 0.83382 0.0
C281 C 0.56283 0.10582 0.81931 0.0
C282 C 0.50685 0.17283 0.82487 0.0
C283 C 0.53134 0.19771 0.80114 0.0
C284 C 0.57367 0.17762 0.78817 0.0
C285 C 0.58855 0.13169 0.7972 0.0
C286 C 0.46143 0.19277 0.83911 0.0
C287 C 0.60128 0.20304 0.7631 0.0
H288 H 0.44534 0.27532 0.72405 0.0
H289 H 0.52405 0.36373 0.78751 0.0
H290 H 0.49419 0.1685 0.741 0.0
H291 H 0.44688 0.16826 0.76892 0.0
H292 H 0.43568 0.19243 0.73122 0.0
H293 H 0.56001 0.332 0.83217 0.0
H294 H 0.54327 0.27235 0.84447 0.0
H295 H 0.59383 0.28042 0.81951 0.0
H296 H 0.5027 0.10642 0.85047 0.0
H297 H 0.61903 0.11486 0.78585 0.0
H298 H 0.43094 0.18843 0.82281 0.0
H299 H 0.46531 0.23168 0.84391 0.0
H300 H 0.45202 0.17388 0.86073 0.0
H301 H 0.57913 0.20388 0.74189 0.0
H302 H 0.63611 0.185 0.75783 0.0
H303 H 0.60879 0.24076 0.76971 0.0
C304 C 0.73413 0.51981 0.29382 0.0
C305 C 0.68869 0.52276 0.27958 0.0
C306 C 0.77565 0.50732 0.27722 0.0
C307 C 0.77209 0.49804 0.24539 0.0
C308 C 0.72662 0.50192 0.23065 0.0
C309 C 0.6854 0.51398 0.24794 0.0
C310 C 0.82337 0.50358 0.29392 0.0
C311 C 0.72156 0.49322 0.19667 0.0
C312 C 0.89349 0.50941 0.20597 0.0
C313 C 0.90932 0.46159 0.20553 0.0
C314 C 0.84732 0.5215 0.21673 0.0
C315 C 0.81647 0.4849 0.22785 0.0
C316 C 0.83112 0.43619 0.22559 0.0
C317 C 0.87737 0.42505 0.21419 0.0
C318 C 0.83302 0.57378 0.21815 0.0
C319 C 0.7996 0.39611 0.2375 0.0
H320 H 0.7373 0.52652 0.31821 0.0
H321 H 0.65056 0.51627 0.23668 0.0
H322 H 0.83869 0.46705 0.29097 0.0
H323 H 0.84965 0.52939 0.28407 0.0
H324 H 0.81984 0.51102 0.31883 0.0
H325 H 0.68392 0.49865 0.18851 0.0
H326 H 0.74577 0.51781 0.18384 0.0
H327 H 0.73283 0.45602 0.19108 0.0
H328 H 0.91811 0.53766 0.19901 0.0
H329 H 0.88977 0.38812 0.21417 0.0
H330 H 0.83363 0.5861 0.24232 0.0
H331 H 0.79569 0.57882 0.20944 0.0
H332 H 0.85788 0.59695 0.20469 0.0
H333 H 0.7982 0.39789 0.26289 0.0
H334 H 0.81343 0.36018 0.23077 0.0
H335 H 0.76207 0.40006 0.22892 0.0
C336 C 0.06684 0.87795 0.6986 0.0
C337 C 0.03335 0.91528 0.7022 0.0
C338 C 0.05608 0.83125 0.70888 0.0
C339 C 0.01091 0.82197 0.72304 0.0
C340 C 0.97574 0.85871 0.72451 0.0
C341 C 0.98729 0.90474 0.71393 0.0
C342 C 0.09439 0.79286 0.70672 0.0
C343 C 0.92715 0.85042 0.73939 0.0
C344 C 0.97117 0.69562 0.74541 0.0
C345 C 0.98483 0.6942 0.7764 0.0
C346 C 0.98023 0.7366 0.72738 0.0
C347 C 1.00318 0.77695 0.74074 0.0
C348 C 0.01678 0.77566 0.772 0.0
C349 C 0.00741 0.73448 0.78937 0.0
C350 C 0.96531 0.73677 0.69411 0.0
C351 C 0.04077 0.81812 0.78732 0.0
H352 H 0.10236 0.88572 0.68939 0.0
H353 H 0.96078 0.93317 0.71626 0.0
H354 H 0.11028 0.78667 0.72975 0.0
H355 H 0.07846 0.75841 0.69893 0.0
H356 H 0.12391 0.80317 0.69079 0.0
H357 H 0.9034 0.88247 0.73795 0.0
H358 H 0.90854 0.81969 0.72836 0.0
H359 H 0.93215 0.84121 0.76394 0.0
H360 H 0.95388 0.66461 0.73518 0.0
H361 H 0.0179 0.73394 0.81331 0.0
H362 H 0.99696 0.74486 0.67939 0.0
H363 H 0.93824 0.76545 0.69005 0.0
H364 H 0.94958 0.70189 0.68685 0.0
H365 H 0.07428 0.82795 0.77488 0.0
H366 H 0.05017 0.81081 0.81164 0.0
H367 H 0.01634 0.8497 0.78655 0.0
C368 C 0.63115 0.01576 0.18409 0.0
C369 C 0.61132 0.05733 0.19699 0.0
C370 C 0.67605 0.998 0.19429 0.0
C371 C 0.70148 0.02281 0.21766 0.0
C372 C 0.68282 0.06662 0.22913 0.0
C373 C 0.63777 0.08303 0.21886 0.0
C374 C 0.69461 0.95113 0.1816 0.0
C375 C 0.7088 0.09455 0.25382 0.0
C376 C 0.7811 0.96003 0.27612 0.0
C377 C 0.82744 0.97437 0.26687 0.0
C378 C 0.73995 0.97301 0.25916 0.0
C379 C 0.74515 1.00142 0.23238 0.0
C380 C 0.79197 0.01375 0.222 0.0
C381 C 0.83255 0.99995 0.23929 0.0
C382 C 0.69072 0.95849 0.27086 0.0
C383 C 0.7991 0.04389 0.1936 0.0
H384 H 0.61003 0.99532 0.16771 0.0
H385 H 0.62195 0.11487 0.22908 0.0
H386 H 0.73302 0.95468 0.17472 0.0
H387 H 0.69285 0.92307 0.19963 0.0
H388 H 0.67324 0.9388 0.16153 0.0
H389 H 0.69176 0.13002 0.25816 0.0
H390 H 0.70851 0.0737 0.2755 0.0
H391 H 0.74712 0.10037 0.24737 0.0
H392 H 0.77678 0.93972 0.29715 0.0
H393 H 0.86818 0.01107 0.23182 0.0
H394 H 0.66863 0.94306 0.25207 0.0
H395 H 0.67142 0.99068 0.2795 0.0
H396 H 0.69307 0.93178 0.28973 0.0
H397 H 0.77699 0.02984 0.17438 0.0
H398 H 0.83755 0.04504 0.18633 0.0
H399 H 0.78689 0.08116 0.19817 0.0
C400 C 0.42501 0.63359 0.71948 0.0
C401 C 0.45448 0.6062 0.70022 0.0
C402 C 0.43901 0.67966 0.72879 0.0
C403 C 0.48407 0.69831 0.719 0.0
C404 C 0.5125 0.67188 0.69788 0.0
C405 C 0.49726 0.6259 0.68868 0.0
C406 C 0.4074 0.7066 0.75114 0.0
C407 C 0.56078 0.69032 0.68698 0.0
C408 C 0.50524 0.82911 0.74001 0.0
C409 C 0.52811 0.82449 0.7686 0.0
C410 C 0.49281 0.78838 0.72267 0.0
C411 C 0.50366 0.74207 0.73417 0.0
C412 C 0.52919 0.73738 0.76216 0.0
C413 C 0.54099 0.77857 0.77903 0.0
C414 C 0.46602 0.79481 0.69281 0.0
C415 C 0.54199 0.68869 0.77513 0.0
H416 H 0.39225 0.61777 0.72867 0.0
H417 H 0.52046 0.60405 0.67431 0.0
H418 H 0.42513 0.70736 0.77396 0.0
H419 H 0.40249 0.74434 0.74362 0.0
H420 H 0.37124 0.68973 0.7537 0.0
H421 H 0.574 0.67017 0.66668 0.0
H422 H 0.55864 0.72903 0.68112 0.0
H423 H 0.58776 0.68633 0.70564 0.0
H424 H 0.49538 0.86444 0.73166 0.0
H425 H 0.55929 0.77465 0.80087 0.0
H426 H 0.42812 0.78258 0.69559 0.0
H427 H 0.48261 0.77251 0.67457 0.0
H428 H 0.46563 0.83287 0.68517 0.0
H429 H 0.50845 0.66925 0.78147 0.0
H430 H 0.56533 0.69135 0.7958 0.0
H431 H 0.56098 0.66676 0.75767 0.0
C432 C 0.82711 0.52414 0.7468 0.0
C433 C 0.82382 0.53176 0.77855 0.0
C434 C 0.78616 0.51163 0.72949 0.0
C435 C 0.74108 0.50611 0.74436 0.0
C436 C 0.73744 0.51439 0.77629 0.0
C437 C 0.7787 0.52741 0.79292 0.0
C438 C 0.79113 0.50396 0.69539 0.0
C439 C 0.68999 0.50882 0.79305 0.0
C440 C 0.61883 0.51503 0.70648 0.0
C441 C 0.60418 0.46685 0.70635 0.0
C442 C 0.66511 0.52811 0.71638 0.0
C443 C 0.69716 0.4921 0.72689 0.0
C444 C 0.68383 0.44305 0.72458 0.0
C445 C 0.63739 0.43093 0.71406 0.0
C446 C 0.67805 0.58074 0.71794 0.0
C447 C 0.71689 0.40365 0.73576 0.0
H448 H 0.86179 0.52757 0.73548 0.0
H449 H 0.7757 0.5331 0.81742 0.0
H450 H 0.78129 0.46647 0.6895 0.0
H451 H 0.7658 0.52785 0.68287 0.0
H452 H 0.82842 0.51104 0.68715 0.0
H453 H 0.69349 0.51579 0.81803 0.0
H454 H 0.66283 0.53402 0.78349 0.0
H455 H 0.6758 0.4719 0.78982 0.0
H456 H 0.5931 0.54281 0.70027 0.0
H457 H 0.6259 0.39371 0.71416 0.0
H458 H 0.71532 0.58684 0.70945 0.0
H459 H 0.67678 0.59291 0.74214 0.0
H460 H 0.65269 0.60328 0.70439 0.0
H461 H 0.75415 0.40912 0.7271 0.0
H462 H 0.70416 0.36753 0.72856 0.0
H463 H 0.71854 0.40454 0.76117 0.0
C464 C 0.06827 0.637 0.1844 0.0
C465 C 0.04537 0.59788 0.1983 0.0
C466 C 0.05395 0.68415 0.19159 0.0
C467 C 0.01576 0.69156 0.21275 0.0
C468 C 0.98925 0.65185 0.2239 0.0
C469 C 1.00481 0.60553 0.21683 0.0
C470 C 0.08258 0.72571 0.17892 0.0
C471 C 0.94771 0.65793 0.24603 0.0
C472 C 0.02652 0.78561 0.27428 0.0
C473 C 0.99082 0.81877 0.26576 0.0
C474 C 0.03676 0.74565 0.25612 0.0
C475 C 0.01043 0.73825 0.22871 0.0
C476 C 0.97562 0.77246 0.21922 0.0
C477 C 0.96619 0.81252 0.23793 0.0
C478 C 0.07435 0.71016 0.26712 0.0
C479 C 0.94701 0.76579 0.19009 0.0
H480 H 0.09942 0.63093 0.16985 0.0
H481 H 0.98666 0.5751 0.2272 0.0
H482 H 0.05855 0.75633 0.17318 0.0
H483 H 0.10863 0.73826 0.19652 0.0
H484 H 0.10322 0.71526 0.15813 0.0
H485 H 0.9267 0.62422 0.24888 0.0
H486 H 0.96197 0.66865 0.2688 0.0
H487 H 0.9229 0.68664 0.23814 0.0
H488 H 0.0464 0.79053 0.29547 0.0
H489 H 0.93881 0.83824 0.2311 0.0
H490 H 0.10101 0.70287 0.24874 0.0
H491 H 0.05667 0.6756 0.273 0.0
H492 H 0.09412 0.72317 0.28768 0.0
H493 H 0.97061 0.75313 0.17121 0.0
H494 H 0.92887 0.79954 0.18286 0.0
H495 H 0.91887 0.73804 0.19379 0.0
C496 C 0.86905 0.08896 0.70855 0.0
C497 C 0.90153 0.05842 0.69372 0.0
C498 C 0.8246 0.07164 0.71928 0.0
C499 C 0.81335 0.02226 0.71591 0.0
C500 C 0.84513 0.99188 0.69944 0.0
C501 C 0.88884 0.01057 0.68825 0.0
C502 C 0.79143 0.10541 0.7363 0.0
C503 C 0.83448 0.93911 0.69541 0.0
C504 C 0.73793 0.97573 0.78192 0.0
C505 C 0.69161 0.97477 0.76905 0.0
C506 C 0.77825 0.98837 0.76425 0.0
C507 C 0.77184 1.00171 0.73316 0.0
C508 C 0.72537 0.99897 0.7197 0.0
C509 C 0.68576 0.98499 0.73778 0.0
C510 C 0.82749 0.98927 0.77922 0.0
C511 C 0.71696 0.01359 0.68682 0.0
H512 H 0.87955 0.12579 0.71315 0.0
H513 H 0.91465 0.98698 0.67716 0.0
H514 H 0.75359 0.10094 0.72838 0.0
H515 H 0.79235 0.09686 0.76114 0.0
H516 H 0.80211 0.14357 0.73326 0.0
H517 H 0.86438 0.91981 0.68371 0.0
H518 H 0.82809 0.92201 0.71802 0.0
H519 H 0.80101 0.93455 0.68174 0.0
H520 H 0.74247 0.96746 0.80605 0.0
H521 H 0.64984 0.98468 0.72785 0.0
H522 H 0.8406 0.02685 0.78072 0.0
H523 H 0.85387 0.96888 0.76518 0.0
H524 H 0.82693 0.97377 0.80269 0.0
H525 H 0.7218 0.05299 0.68459 0.0
H526 H 0.68004 0.00417 0.67881 0.0
H527 H 0.74374 0.99626 0.67151 0.0
C528 C 0.52888 0.89924 0.21163 0.0
C529 C 0.48056 0.90964 0.20442 0.0
C530 C 0.54253 0.85365 0.22197 0.0
C531 C 0.5069 0.81763 0.22524 0.0
C532 C 0.45891 0.82664 0.21538 0.0
C533 C 0.44626 0.87271 0.20496 0.0
C534 C 0.59417 0.84559 0.23195 0.0
C535 C 0.42002 0.78893 0.21829 0.0
C536 C 0.54446 0.6909 0.24765 0.0
C537 C 0.53652 0.69181 0.27942 0.0
C538 C 0.53517 0.73163 0.22951 0.0
C539 C 0.51791 0.77407 0.2436 0.0
C540 C 0.51119 0.77548 0.27574 0.0
C541 C 0.52053 0.73438 0.2932 0.0
C542 C 0.54291 0.72904 0.19532 0.0
C543 C 0.49348 0.82028 0.29173 0.0
H544 H 0.55578 0.92754 0.21066 0.0
H545 H 0.40895 0.88055 0.19924 0.0
H546 H 0.5962 0.84688 0.25734 0.0
H547 H 0.60724 0.80977 0.2246 0.0
H548 H 0.61884 0.87345 0.22261 0.0
H549 H 0.38691 0.79876 0.2053 0.0
H550 H 0.43324 0.75367 0.20999 0.0
H551 H 0.4102 0.78464 0.24279 0.0
H552 H 0.55669 0.65805 0.23684 0.0
H553 H 0.51475 0.7355 0.31776 0.0
H554 H 0.56753 0.75817 0.1878 0.0
H555 H 0.508 0.73449 0.18329 0.0
H556 H 0.55834 0.69402 0.18807 0.0
H557 H 0.51848 0.85058 0.28713 0.0
H558 H 0.49055 0.81546 0.31694 0.0
H559 H 0.45746 0.83058 0.28268 0.0
C560 C 0.3185 0.45842 0.78289 0.0
C561 C 0.32737 0.48629 0.75671 0.0
C562 C 0.27875 0.46838 0.80196 0.0
C563 C 0.24774 0.50722 0.79464 0.0
C564 C 0.25844 0.53706 0.76927 0.0
C565 C 0.29786 0.52606 0.75058 0.0
C566 C 0.26858 0.43593 0.82888 0.0
C567 C 0.22657 0.57907 0.76067 0.0
C568 C 0.11332 0.50689 0.80372 0.0
C569 C 0.10644 0.54318 0.8255 0.0
C570 C 0.15949 0.49096 0.79597 0.0
C571 C 0.20009 0.51278 0.80983 0.0
C572 C 0.19339 0.5466 0.83378 0.0
C573 C 0.14626 0.56131 0.84156 0.0
C574 C 0.1647 0.45418 0.77071 0.0
C575 C 0.23589 0.57021 0.84929 0.0
H576 H 0.34157 0.42793 0.78787 0.0
H577 H 0.30518 0.54849 0.7308 0.0
H578 H 0.2571 0.45709 0.84915 0.0
H579 H 0.23858 0.41119 0.82298 0.0
H580 H 0.30065 0.41401 0.83516 0.0
H581 H 0.24269 0.60149 0.74226 0.0
H582 H 0.19105 0.56563 0.75253 0.0
H583 H 0.21984 0.60217 0.78092 0.0
H584 H 0.08246 0.49246 0.79149 0.0
H585 H 0.14089 0.58921 0.85854 0.0
H586 H 0.19071 0.4258 0.77749 0.0
H587 H 0.17901 0.47181 0.74978 0.0
H588 H 0.1297 0.43693 0.76485 0.0
H589 H 0.26526 0.5439 0.8535 0.0
H590 H 0.22538 0.58696 0.8714 0.0
H591 H 0.25053 0.59869 0.83412 0.0
C592 C 0.02166 0.31971 0.27805 0.0
C593 C 0.02875 0.31708 0.24623 0.0
C594 C 0.01003 0.27848 0.29511 0.0
C595 C 1.00474 0.23396 0.27986 0.0
C596 C 0.01217 0.23111 0.24782 0.0
C597 C 0.02444 0.27255 0.23149 0.0
C598 C 1.00331 0.28249 0.32933 0.0
C599 C 0.00664 0.1843 0.23063 0.0
C600 C 0.01695 0.11091 0.31471 0.0
C601 C 0.96874 0.09556 0.31486 0.0
C602 C 0.029 0.15783 0.30616 0.0
C603 C 0.99191 0.18969 0.29694 0.0
C604 C 0.94287 0.17548 0.29939 0.0
C605 C 0.93179 0.12846 0.30864 0.0
C606 C 0.08167 0.17175 0.30445 0.0
C607 C 0.90234 0.20829 0.28948 0.0
H608 H 0.02511 0.35398 0.28961 0.0
H609 H 0.02966 0.27011 0.20692 0.0
H610 H 0.96604 0.27169 0.33564 0.0
H611 H 0.02837 0.25762 0.34128 0.0
H612 H 0.00984 0.31953 0.33782 0.0
H613 H 0.01246 0.18854 0.20559 0.0
H614 H 0.03293 0.15755 0.23943 0.0
H615 H 0.96992 0.16942 0.23436 0.0
H616 H 0.04549 0.08546 0.31988 0.0
H617 H 0.89452 0.11645 0.30868 0.0
H618 H 0.08727 0.20872 0.31319 0.0
H619 H 0.09365 0.17106 0.28019 0.0
H620 H 0.10494 0.1467 0.31772 0.0
H621 H 0.90775 0.24503 0.29863 0.0
H622 H 0.8665 0.19487 0.2971 0.0
H623 H 0.90208 0.21091 0.26409 0.0
C624 C 0.3958 0.02043 0.80798 0.0
C625 C 0.40931 0.9721 0.811 0.0
C626 C 0.34942 0.0332 0.79789 0.0
C627 C 0.31604 0.99672 0.78999 0.0
C628 C 0.32854 0.94789 0.79478 0.0
C629 C 0.37499 0.93615 0.80555 0.0
C630 C 0.3374 0.08571 0.79375 0.0
C631 C 0.29432 0.90788 0.78622 0.0
C632 C 0.18499 0.02783 0.7712 0.0
C633 C 0.18672 0.03185 0.73914 0.0
C634 C 0.22685 0.01704 0.78825 0.0
C635 C 0.27121 0.00934 0.77282 0.0
C636 C 0.27315 0.0137 0.74052 0.0
C637 C 0.23114 0.02528 0.72417 0.0
C638 C 0.22368 0.01379 0.82272 0.0
C639 C 0.31957 0.00548 0.72306 0.0
H640 H 0.42222 0.04834 0.81246 0.0
H641 H 0.38544 0.89878 0.80768 0.0
H642 H 0.33716 0.09462 0.76896 0.0
H643 H 0.30087 0.09369 0.80288 0.0
H644 H 0.36407 0.10941 0.80531 0.0
H645 H 0.30703 0.8724 0.79464 0.0
H646 H 0.25775 0.91483 0.79559 0.0
H647 H 0.29096 0.90616 0.76089 0.0
H648 H 0.15093 0.03306 0.78298 0.0
H649 H 0.23305 0.02821 0.69943 0.0
H650 H 0.24981 0.039 0.83335 0.0
H651 H 0.23362 0.97712 0.83038 0.0
H652 H 0.18689 0.02224 0.83134 0.0
H653 H 0.34743 0.03155 0.73061 0.0
H654 H 0.31472 0.00923 0.69789 0.0
H655 H 0.33367 0.96896 0.72796 0.0
C656 C 0.48683 0.3993 0.30929 0.0
C657 C 0.53429 0.40944 0.31864 0.0
C658 C 0.47402 0.35372 0.2986 0.0
C659 C 0.50949 0.31725 0.29742 0.0
C660 C 0.55632 0.32599 0.30939 0.0
C661 C 0.56824 0.37218 0.31994 0.0
C662 C 0.42367 0.34586 0.28617 0.0
C663 C 0.59498 0.28781 0.30866 0.0
C664 C 0.46967 0.19147 0.27461 0.0
C665 C 0.47989 0.19169 0.2431 0.0
C666 C 0.47952 0.23191 0.29286 0.0
C667 C 0.4998 0.27334 0.27916 0.0
C668 C 0.50946 0.27391 0.24732 0.0
C669 C 0.49934 0.23319 0.22972 0.0
C670 C 0.46877 0.23018 0.32675 0.0
C671 C 0.53055 0.31764 0.23173 0.0
H672 H 0.46014 0.4278 0.30879 0.0
H673 H 0.60487 0.37979 0.32729 0.0
H674 H 0.42534 0.34013 0.26102 0.0
H675 H 0.40743 0.31322 0.29645 0.0
H676 H 0.39952 0.37688 0.29068 0.0
H677 H 0.62647 0.29745 0.32322 0.0
H678 H 0.58035 0.2528 0.31647 0.0
H679 H 0.60779 0.28307 0.28476 0.0
H680 H 0.45483 0.15946 0.28514 0.0
H681 H 0.5071 0.23381 0.20538 0.0
H682 H 0.44338 0.25939 0.33298 0.0
H683 H 0.50248 0.23614 0.33998 0.0
H684 H 0.4528 0.19531 0.33384 0.0
H685 H 0.50598 0.34878 0.23466 0.0
H686 H 0.53647 0.31193 0.20681 0.0
H687 H 0.56561 0.32722 0.24244 0.0
C688 C 0.20616 0.33511 0.17447 0.0
C689 C 0.16864 0.34142 0.15324 0.0
C690 C 0.23922 0.29726 0.17159 0.0
C691 C 0.23575 0.26569 0.14624 0.0
C692 C 0.19824 0.27219 0.12447 0.0
C693 C 0.1645 0.30954 0.12853 0.0
C694 C 0.2777 0.29093 0.19586 0.0
C695 C 0.19429 0.24023 0.09666 0.0
C696 C 0.35458 0.20191 0.13109 0.0
C697 C 0.34644 0.1571 0.14473 0.0
C698 C 0.31757 0.23633 0.12933 0.0
C699 C 0.272 0.22642 0.14272 0.0
C700 C 0.26324 0.18057 0.15572 0.0
C701 C 0.30038 0.14614 0.15605 0.0
C702 C 0.32799 0.28414 0.11441 0.0
C703 C 0.21588 0.16899 0.1712 0.0
H704 H 0.20905 0.35933 0.19385 0.0
H705 H 0.1356 0.3145 0.11205 0.0
H706 H 0.27607 0.25402 0.20542 0.0
H707 H 0.31402 0.29562 0.18558 0.0
H708 H 0.27377 0.31698 0.21497 0.0
H709 H 0.16354 0.25044 0.08163 0.0
H710 H 0.22819 0.24219 0.08314 0.0
H711 H 0.18962 0.20231 0.10383 0.0
H712 H 0.39022 0.21032 0.12228 0.0
H713 H 0.2943 0.11169 0.16699 0.0
H714 H 0.33079 0.31236 0.13225 0.0
H715 H 0.29806 0.29442 0.09878 0.0
H716 H 0.36228 0.28358 0.10119 0.0
H717 H 0.21187 0.19158 0.192 0.0
H718 H 0.21349 0.13066 0.17813 0.0
H719 H 0.1851 0.17743 0.15584 0.0
C720 C 0.15629 0.20968 0.62939 0.0
C721 C 0.16368 0.1637 0.64155 0.0
C722 C 0.19372 0.24376 0.62909 0.0
C723 C 0.23894 0.23222 0.64249 0.0
C724 C 0.24692 0.18528 0.65402 0.0
C725 C 0.2094 0.15131 0.6529 0.0
C726 C 0.18415 0.29282 0.61566 0.0
C727 C 0.29388 0.17188 0.66947 0.0
C728 C 0.34802 0.31415 0.63098 0.0
C729 C 0.34435 0.34445 0.65651 0.0
C730 C 0.31362 0.27778 0.62579 0.0
C731 C 0.27586 0.27056 0.64725 0.0
C732 C 0.27286 0.30048 0.67344 0.0
C733 C 0.30661 0.33752 0.67744 0.0
C734 C 0.31712 0.24769 0.59712 0.0
C735 C 0.23416 0.2932 0.69741 0.0
H736 H 0.1209 0.21925 0.62062 0.0
H737 H 0.2149 0.11599 0.66278 0.0
H738 H 0.18167 0.31967 0.63436 0.0
H739 H 0.21436 0.30381 0.60049 0.0
H740 H 0.14995 0.29384 0.60232 0.0
H741 H 0.29551 0.13311 0.67542 0.0
H742 H 0.32498 0.18071 0.6545 0.0
H743 H 0.29805 0.19309 0.69084 0.0
H744 H 0.37708 0.31966 0.61471 0.0
H745 H 0.3041 0.36058 0.6974 0.0
H746 H 0.28333 0.25121 0.58359 0.0
H747 H 0.32107 0.20923 0.60323 0.0
H748 H 0.34813 0.25834 0.58246 0.0
H749 H 0.19799 0.29934 0.68718 0.0
H750 H 0.23852 0.3178 0.71726 0.0
H751 H 0.23501 0.25563 0.70589 0.0
C752 C 0.81488 0.83026 0.34353 0.0
C753 C 0.85125 0.83613 0.36546 0.0
C754 C 0.77937 0.79468 0.347 0.0
C755 C 0.77986 0.76491 0.37338 0.0
C756 C 0.81617 0.77153 0.39594 0.0
C757 C 0.85192 0.8068 0.3915 0.0
C758 C 0.74188 0.78843 0.32214 0.0
C759 C 0.81725 0.74139 0.42468 0.0
C760 C 0.65953 0.70385 0.38904 0.0
C761 C 0.66754 0.65779 0.37719 0.0
C762 C 0.69671 0.73818 0.38968 0.0
C763 C 0.74243 0.72675 0.37703 0.0
C764 C 0.75099 0.67978 0.36573 0.0
C765 C 0.71362 0.6456 0.36642 0.0
C766 C 0.68647 0.78729 0.40279 0.0
C767 C 0.79865 0.66646 0.35121 0.0
H768 H 0.81488 0.85293 0.3233 0.0
H769 H 0.88032 0.81157 0.40836 0.0
H770 H 0.74351 0.75131 0.31295 0.0
H771 H 0.70516 0.7937 0.33173 0.0
H772 H 0.747 0.81407 0.3029 0.0
H773 H 0.84657 0.75244 0.44059 0.0
H774 H 0.78214 0.74418 0.43682 0.0
H775 H 0.82252 0.70306 0.41866 0.0
H776 H 0.62384 0.71328 0.39733 0.0
H777 H 0.7196 0.61023 0.35676 0.0
H778 H 0.68561 0.8142 0.38405 0.0
H779 H 0.7156 0.79803 0.41887 0.0
H780 H 0.65135 0.78855 0.41508 0.0
H781 H 0.80428 0.68834 0.33024 0.0
H782 H 0.80031 0.62788 0.34481 0.0
H783 H 0.82891 0.67449 0.36707 0.0
C784 C 0.70488 0.85129 0.88597 0.0
C785 C 0.66125 0.84201 0.87082 0.0
C786 C 0.73989 0.81518 0.88949 0.0
C787 C 0.7319 0.76934 0.87634 0.0
C788 C 0.68719 0.75948 0.86174 0.0
C789 C 0.65201 0.79578 0.85966 0.0
C790 C 0.78633 0.82679 0.90608 0.0
C791 C 0.67777 0.71177 0.84645 0.0
C792 C 0.84514 0.70486 0.84968 0.0
C793 C 0.84999 0.66823 0.87152 0.0
C794 C 0.80636 0.73717 0.85071 0.0
C795 C 0.77226 0.7339 0.87481 0.0
C796 C 0.77733 0.69739 0.89726 0.0
C797 C 0.81571 0.66431 0.89501 0.0
C798 C 0.80166 0.77454 0.82574 0.0
C799 C 0.74265 0.69373 0.92382 0.0
H800 H 0.7119 0.88708 0.89468 0.0
H801 H 0.61846 0.78886 0.8476 0.0
H802 H 0.79561 0.79772 0.92247 0.0
H803 H 0.81634 0.82945 0.88933 0.0
H804 H 0.78401 0.86127 0.91878 0.0
H805 H 0.63995 0.70855 0.83812 0.0
H806 H 0.70248 0.70755 0.8266 0.0
H807 H 0.68529 0.6818 0.86249 0.0
H808 H 0.87117 0.70749 0.83117 0.0
H809 H 0.81946 0.63601 0.91192 0.0
H810 H 0.8048 0.81103 0.83571 0.0
H811 H 0.76554 0.77197 0.81481 0.0
H812 H 0.82971 0.77052 0.80772 0.0
H813 H 0.74254 0.72793 0.93686 0.0
H814 H 0.75213 0.66397 0.9397 0.0
H815 H 0.70537 0.68791 0.91526 0.0
C816 C 0.98251 0.48528 0.94404 0.0
C817 C 0.98006 0.53368 0.93525 0.0
C818 C 0.99368 0.47229 0.97438 0.0
C819 C 1.00175 0.50857 0.99656 0.0
C820 C 0.99889 0.55745 0.98786 0.0
C821 C 0.98853 0.56939 0.95729 0.0
C822 C 0.99723 0.41976 0.98266 0.0
C823 C 0.00656 0.59722 0.01088 0.0
C824 C 0.98874 0.47673 0.08103 0.0
C825 C 0.03715 0.47289 0.09027 0.0
C826 C 0.97666 0.48838 0.05062 0.0
C827 C 0.01386 0.49554 0.02881 0.0
C828 C 0.06277 0.49123 0.03794 0.0
C829 C 0.07382 0.4804 0.06859 0.0
C830 C 0.9241 0.49351 0.04191 0.0
C831 C 0.10347 0.49791 0.01529 0.0
H832 H 0.97624 0.4575 0.92711 0.0
H833 H 0.98636 0.6069 0.95077 0.0
H834 H 0.03373 0.41179 0.99189 0.0
H835 H 0.97079 0.411 1.00091 0.0
H836 H 0.99038 0.39597 0.96269 0.0
H837 H 1.00177 0.63341 1.00061 0.0
H838 H 0.98074 0.59323 0.03017 0.0
H839 H 0.0435 0.59485 0.02065 0.0
H840 H 0.96023 0.4712 0.09769 0.0
H841 H 0.11133 0.47713 0.07546 0.0
H842 H 0.91496 0.46784 0.02336 0.0
H843 H 0.91729 0.53016 0.0329 0.0
H844 H 0.89953 0.48699 0.0616 0.0
H845 H 0.09902 0.47274 0.99579 0.0
H846 H 0.13951 0.4918 0.02583 0.0
H847 H 0.10249 0.53484 1.00578 0.0
C848 C 0.98403 0.04518 0.57029 0.0
C849 C 0.02818 0.03103 0.58317 0.0
C850 C 0.9721 0.03299 0.53995 0.0
C851 C 1.00598 0.00774 0.52172 0.0
C852 C 0.0509 0.99386 0.53461 0.0
C853 C 0.06107 0.00489 0.56538 0.0
C854 C 0.92315 0.04689 0.52749 0.0
C855 C 0.08863 0.96828 0.51571 0.0
C856 C 0.9653 0.93862 0.45108 0.0
C857 C 0.97387 0.97191 0.42761 0.0
C858 C 0.97443 0.95027 0.48186 0.0
C859 C 0.99442 0.99564 0.48921 0.0
C860 C 1.00371 0.02919 0.46546 0.0
C861 C 0.9924 0.01724 0.43496 0.0
C862 C 0.96234 0.91414 0.50651 0.0
C863 C 0.02645 0.07731 0.4722 0.0
H864 H 0.95855 0.06527 0.58413 0.0
H865 H 0.09549 0.9945 0.57525 0.0
H866 H 0.92744 0.0721 0.508 0.0
H867 H 0.90422 0.01461 0.51864 0.0
H868 H 0.90002 0.0642 0.54511 0.0
H869 H 0.12238 0.96154 0.52883 0.0
H870 H 0.07433 0.93338 0.50752 0.0
H871 H 0.09758 0.99 0.49515 0.0
H872 H 0.95048 0.9037 0.44538 0.0
H873 H 0.99931 0.04282 0.41673 0.0
H874 H 0.93806 0.93068 0.52377 0.0
H875 H 0.99571 0.90297 0.51865 0.0
H876 H 0.94449 0.88159 0.49711 0.0
H877 H 1.00292 0.09831 0.48778 0.0
H878 H 0.03275 0.09868 0.45107 0.0
H879 H 0.06152 0.07206 0.4841 0.0
C880 C 0.56681 0.97716 0.95119 0.0
C881 C 0.53033 0.97065 0.92918 0.0
C882 C 0.55562 0.98579 0.98208 0.0
C883 C 0.50668 0.98891 0.99127 0.0
C884 C 0.4696 0.98236 0.96922 0.0
C885 C 0.48186 0.97288 0.93849 0.0
C886 C 0.59629 0.9919 1.00486 0.0
C887 C 0.41701 0.98625 0.978 0.0
C888 C 0.47823 0.97741 0.07659 0.0
C889 C 0.47648 0.02571 0.08567 0.0
C890 C 0.48767 0.96479 0.04591 0.0
C891 C 0.49465 1.00132 0.02369 0.0
C892 C 0.49205 0.05007 0.03267 0.0
C893 C 0.48346 0.06163 0.06349 0.0
C894 C 0.49098 0.91239 0.03735 0.0
C895 C 0.4986 0.09017 1.00971 0.0
H896 H 0.60439 0.97498 0.94434 0.0
H897 H 0.45347 0.96797 0.92165 0.0
H898 H 0.59542 0.02869 0.01456 0.0
H899 H 0.59172 0.96644 0.02421 0.0
H900 H 0.63233 0.98584 0.99435 0.0
H901 H 0.3925 0.97924 0.95833 0.0
H902 H 0.40852 0.96039 0.99658 0.0
H903 H 0.40945 0.02275 0.98699 0.0
H904 H 0.47296 0.94946 0.09356 0.0
H905 H 0.48165 0.09907 0.07016 0.0
H906 H 0.52754 0.90442 0.02825 0.0
H907 H 0.46469 0.90402 0.01891 0.0
H908 H 0.48386 0.88834 0.05716 0.0
H909 H 0.53553 0.0887 0.9999 0.0
H910 H 0.4931 0.12618 0.02008 0.0
H911 H 0.47276 0.0858 0.99045 0.0
C912 C 0.53281 0.4789 0.44623 0.0
C913 C 0.53347 0.52721 0.43707 0.0
C914 C 0.52202 0.46605 0.47667 0.0
C915 C 0.5124 0.50238 0.49857 0.0
C916 C 0.51339 0.55116 0.48948 0.0
C917 C 0.52352 0.56293 0.45887 0.0
C918 C 0.52058 0.4136 0.48536 0.0
C919 C 0.50393 0.59104 0.51215 0.0
C920 C 0.44065 0.47465 0.57076 0.0
C921 C 0.47729 0.46968 0.5928 0.0
C922 C 0.45167 0.48403 0.53992 0.0
C923 C 0.50049 0.48961 0.53092 0.0
C924 C 0.53767 0.48474 0.55305 0.0
C925 C 0.52565 0.47436 0.58367 0.0
C926 C 0.41099 0.48818 0.51697 0.0
C927 C 0.5901 0.49132 0.5445 0.0
H928 H 0.54029 0.45107 0.42954 0.0
H929 H 0.52427 0.60039 0.45212 0.0
H930 H 0.54718 0.40628 0.50381 0.0
H931 H 0.48435 0.40433 0.49451 0.0
H932 H 0.52859 0.38971 0.46563 0.0
H933 H 0.50741 0.6272 0.50162 0.0
H934 H 0.467 0.58745 0.52174 0.0
H935 H 0.52967 0.58843 0.5316 0.0
H936 H 0.4032 0.47061 0.57756 0.0
H937 H 0.55412 0.47075 0.6006 0.0
H938 H 0.41693 0.46284 0.49772 0.0
H939 H 0.41026 0.52491 0.50714 0.0
H940 H 0.37516 0.48055 0.52736 0.0
H941 H 0.60019 0.46575 0.52611 0.0
H942 H 0.61472 0.48581 0.56432 0.0
H943 H 0.59581 0.52807 0.53535 0.0
loop_
_geom_bond_atom_site_label_1
_geom_bond_atom_site_label_2
_geom_bond_distance
_geom_bond_site_symmetry_2
_ccdc_geom_bond_type
Fe0 O2 1.918 . S
Fe0 O5 1.997 . S
Fe0 O6 2.002 . S
Fe0 O11 1.976 . S
Fe0 O14 1.996 1_455 S
Fe1 O2 1.918 . S
Fe1 O9 1.997 . S
Fe1 O12 1.996 . S
Fe1 O16 1.976 . S
Fe1 O19 2.002 . S
O2 Fe0 1.918 . S
O2 Fe1 1.918 . S
O2 Fe3 1.918 . S
Fe3 O2 1.918 . S
Fe3 O4 2.002 . S
Fe3 O13 1.976 1_455 S
Fe3 O17 1.996 . S
Fe3 O20 1.997 . S
O4 Fe3 2.002 . S
O4 C21 1.295 . S
O5 Fe0 1.997 . S
O5 C21 1.235 . S
O6 Fe0 2.002 . S
O6 C7 1.295 . S
C7 O6 1.295 . S
C7 O9 1.235 . S
C8 O13 1.287 . S
C8 O14 1.255 . S
O9 Fe1 1.997 . S
O9 C7 1.235 . S
C10 O16 1.287 . S
C10 O17 1.255 . S
O11 Fe0 1.976 . S
O11 C18 1.287 . S
O12 Fe1 1.996 . S
O12 C18 1.255 . S
O13 Fe3 1.976 1_655 S
O13 C8 1.287 . S
O14 Fe0 1.996 1_655 S
O14 C8 1.255 . S
C15 O19 1.295 . S
C15 O20 1.235 . S
O16 Fe1 1.976 . S
O16 C10 1.287 . S
O17 Fe3 1.996 . S
O17 C10 1.255 . S
C18 O11 1.287 . S
C18 O12 1.255 . S
O19 Fe1 2.002 . S
O19 C15 1.295 . S
O20 Fe3 1.997 . S
O20 C15 1.235 . S
C21 O4 1.295 . S
C21 O5 1.235 . S
Fe22 O24 1.918 . S
Fe22 O27 1.997 . S
Fe22 O28 2.002 . S
Fe22 O33 1.976 1_455 S
Fe22 O36 1.996 . S
Fe23 O24 1.918 . S
Fe23 O31 1.997 . S
Fe23 O34 1.996 1_455 S
Fe23 O38 1.976 1_545 S
Fe23 O41 2.002 . S
O24 Fe22 1.918 . S
O24 Fe23 1.918 . S
O24 Fe25 1.918 . S
Fe25 O24 1.918 . S
Fe25 O26 2.002 . S
Fe25 O35 1.976 . S
Fe25 O39 1.996 1_545 S
Fe25 O42 1.997 . S
O26 Fe25 2.002 . S
O26 C43 1.295 . S
O27 Fe22 1.997 . S
O27 C43 1.235 . S
O28 Fe22 2.002 . S
O28 C29 1.295 . S
C29 O28 1.295 . S
C29 O31 1.235 . S
C30 O35 1.287 . S
C30 O36 1.255 . S
O31 Fe23 1.997 . S
O31 C29 1.235 . S
C32 O38 1.287 . S
C32 O39 1.255 . S
O33 Fe22 1.976 1_655 S
O33 C40 1.287 . S
O34 Fe23 1.996 1_655 S
O34 C40 1.255 . S
O35 Fe25 1.976 . S
O35 C30 1.287 . S
O36 Fe22 1.996 . S
O36 C30 1.255 . S
C37 O41 1.295 . S
C37 O42 1.235 . S
O38 Fe23 1.976 1_565 S
O38 C32 1.287 . S
O39 Fe25 1.996 1_565 S
O39 C32 1.255 . S
C40 O33 1.287 . S
C40 O34 1.255 . S
O41 Fe23 2.002 . S
O41 C37 1.295 . S
O42 Fe25 1.997 . S
O42 C37 1.235 . S
C43 O26 1.295 . S
C43 O27 1.235 . S
Fe44 O46 1.918 . S
Fe44 O49 1.997 . S
Fe44 O50 2.002 . S
Fe44 O55 1.976 . S
Fe44 O58 1.996 1_545 S
Fe45 O46 1.918 . S
Fe45 O53 1.997 . S
Fe45 O56 1.996 . S
Fe45 O60 1.976 . S
Fe45 O63 2.002 . S
O46 Fe44 1.918 . S
O46 Fe45 1.918 . S
O46 Fe47 1.918 . S
Fe47 O46 1.918 . S
Fe47 O48 2.002 . S
Fe47 O57 1.976 1_545 S
Fe47 O61 1.996 . S
Fe47 O64 1.997 . S
O48 Fe47 2.002 . S
O48 C65 1.295 . S
O49 Fe44 1.997 . S
O49 C65 1.235 . S
O50 Fe44 2.002 . S
O50 C51 1.295 . S
C51 O50 1.295 . S
C51 O53 1.235 . S
C52 O57 1.287 . S
C52 O58 1.255 . S
O53 Fe45 1.997 . S
O53 C51 1.235 . S
C54 O60 1.287 . S
C54 O61 1.255 . S
O55 Fe44 1.976 . S
O55 C62 1.287 . S
O56 Fe45 1.996 . S
O56 C62 1.255 . S
O57 Fe47 1.976 1_565 S
O57 C52 1.287 . S
O58 Fe44 1.996 1_565 S
O58 C52 1.255 . S
C59 O63 1.295 . S
C59 O64 1.235 . S
O60 Fe45 1.976 . S
O60 C54 1.287 . S
O61 Fe47 1.996 . S
O61 C54 1.255 . S
C62 O55 1.287 . S
C62 O56 1.255 . S
O63 Fe45 2.002 . S
O63 C59 1.295 . S
O64 Fe47 1.997 . S
O64 C59 1.235 . S
C65 O48 1.295 . S
C65 O49 1.235 . S
Fe66 O68 1.918 . S
Fe66 O71 1.997 . S
Fe66 O72 2.002 . S
Fe66 O77 1.976 . S
Fe66 O80 1.996 . S
Fe67 O68 1.918 . S
Fe67 O75 1.997 . S
Fe67 O78 1.996 . S
Fe67 O82 1.976 . S
Fe67 O85 2.002 . S
O68 Fe66 1.918 . S
O68 Fe67 1.918 . S
O68 Fe69 1.918 . S
Fe69 O68 1.918 . S
Fe69 O70 2.002 . S
Fe69 O79 1.976 . S
Fe69 O83 1.996 . S
Fe69 O86 1.997 . S
O70 Fe69 2.002 . S
O70 C87 1.295 . S
O71 Fe66 1.997 . S
O71 C87 1.235 . S
O72 Fe66 2.002 . S
O72 C73 1.295 . S
C73 O72 1.295 . S
C73 O75 1.235 . S
C74 O79 1.287 . S
C74 O80 1.255 . S
O75 Fe67 1.997 . S
O75 C73 1.235 . S
C76 O82 1.287 . S
C76 O83 1.255 . S
O77 Fe66 1.976 . S
O77 C84 1.287 . S
O78 Fe67 1.996 . S
O78 C84 1.255 . S
O79 Fe69 1.976 . S
O79 C74 1.287 . S
O80 Fe66 1.996 . S
O80 C74 1.255 . S
C81 O85 1.295 . S
C81 O86 1.235 . S
O82 Fe67 1.976 . S
O82 C76 1.287 . S
O83 Fe69 1.996 . S
O83 C76 1.255 . S
C84 O77 1.287 . S
C84 O78 1.255 . S
O85 Fe67 2.002 . S
O85 C81 1.295 . S
O86 Fe69 1.997 . S
O86 C81 1.235 . S
C87 O70 1.295 . S
C87 O71 1.235 . S
Fe88 O90 1.918 . S
Fe88 O93 1.997 . S
Fe88 O94 2.002 . S
Fe88 O99 1.976 . S
Fe88 O102 1.996 . S
Fe89 O90 1.918 . S
Fe89 O97 1.997 . S
Fe89 O100 1.996 . S
Fe89 O104 1.976 . S
Fe89 O107 2.002 . S
O90 Fe88 1.918 . S
O90 Fe89 1.918 . S
O90 Fe91 1.918 . S
Fe91 O90 1.918 . S
Fe91 O92 2.002 . S
Fe91 O101 1.976 . S
Fe91 O105 1.996 . S
Fe91 O108 1.997 . S
O92 Fe91 2.002 . S
O92 C109 1.295 . S
O93 Fe88 1.997 . S
O93 C109 1.235 . S
O94 Fe88 2.002 . S
O94 C95 1.295 . S
C95 O94 1.295 . S
C95 O97 1.235 . S
C96 O101 1.287 . S
C96 O102 1.255 . S
O97 Fe89 1.997 . S
O97 C95 1.235 . S
C98 O104 1.287 . S
C98 O105 1.255 . S
O99 Fe88 1.976 . S
O99 C106 1.287 . S
O100 Fe89 1.996 . S
O100 C106 1.255 . S
O101 Fe91 1.976 . S
O101 C96 1.287 . S
O102 Fe88 1.996 . S
O102 C96 1.255 . S
C103 O107 1.295 . S
C103 O108 1.235 . S
O104 Fe89 1.976 . S
O104 C98 1.287 . S
O105 Fe91 1.996 . S
O105 C98 1.255 . S
C106 O99 1.287 . S
C106 O100 1.255 . S
O107 Fe89 2.002 . S
O107 C103 1.295 . S
O108 Fe91 1.997 . S
O108 C103 1.235 . S
C109 O92 1.295 . S
C109 O93 1.235 . S
Fe110 O112 1.918 . S
Fe110 O115 1.997 . S
Fe110 O116 2.002 . S
Fe110 O121 1.976 1_655 S
Fe110 O124 1.996 . S
Fe111 O112 1.918 . S
Fe111 O119 1.997 . S
Fe111 O122 1.996 1_655 S
Fe111 O126 1.976 . S
Fe111 O129 2.002 . S
O112 Fe110 1.918 . S
O112 Fe111 1.918 . S
O112 Fe113 1.918 . S
Fe113 O112 1.918 . S
Fe113 O114 2.002 . S
Fe113 O123 1.976 . S
Fe113 O127 1.996 . S
Fe113 O130 1.997 . S
O114 Fe113 2.002 . S
O114 C131 1.295 . S
O115 Fe110 1.997 . S
O115 C131 1.235 . S
O116 Fe110 2.002 . S
O116 C117 1.295 . S
C117 O116 1.295 . S
C117 O119 1.235 . S
C118 O123 1.287 . S
C118 O124 1.255 . S
O119 Fe111 1.997 . S
O119 C117 1.235 . S
C120 O126 1.287 . S
C120 O127 1.255 . S
O121 Fe110 1.976 1_455 S
O121 C128 1.287 . S
O122 Fe111 1.996 1_455 S
O122 C128 1.255 . S
O123 Fe113 1.976 . S
O123 C118 1.287 . S
O124 Fe110 1.996 . S
O124 C118 1.255 . S
C125 O129 1.295 . S
C125 O130 1.235 . S
O126 Fe111 1.976 . S
O126 C120 1.287 . S
O127 Fe113 1.996 . S
O127 C120 1.255 . S
C128 O121 1.287 . S
C128 O122 1.255 . S
O129 Fe111 2.002 . S
O129 C125 1.295 . S
O130 Fe113 1.997 . S
O130 C125 1.235 . S
C131 O114 1.295 . S
C131 O115 1.235 . S
Fe132 O134 1.918 . S
Fe132 O137 1.997 . S
Fe132 O138 2.002 . S
Fe132 O143 1.976 1_655 S
Fe132 O146 1.996 1_565 S
Fe133 O134 1.918 . S
Fe133 O141 1.997 . S
Fe133 O144 1.996 1_655 S
Fe133 O148 1.976 . S
Fe133 O151 2.002 . S
O134 Fe132 1.918 . S
O134 Fe133 1.918 . S
O134 Fe135 1.918 . S
Fe135 O134 1.918 . S
Fe135 O136 2.002 . S
Fe135 O145 1.976 1_565 S
Fe135 O149 1.996 . S
Fe135 O152 1.997 . S
O136 Fe135 2.002 . S
O136 C153 1.295 . S
O137 Fe132 1.997 . S
O137 C153 1.235 . S
O138 Fe132 2.002 . S
O138 C139 1.295 . S
C139 O138 1.295 . S
C139 O141 1.235 . S
C140 O145 1.287 . S
C140 O146 1.255 . S
O141 Fe133 1.997 . S
O141 C139 1.235 . S
C142 O148 1.287 . S
C142 O149 1.255 . S
O143 Fe132 1.976 1_455 S
O143 C150 1.287 . S
O144 Fe133 1.996 1_455 S
O144 C150 1.255 . S
O145 Fe135 1.976 1_545 S
O145 C140 1.287 . S
O146 Fe132 1.996 1_545 S
O146 C140 1.255 . S
C147 O151 1.295 . S
C147 O152 1.235 . S
O148 Fe133 1.976 . S
O148 C142 1.287 . S
O149 Fe135 1.996 . S
O149 C142 1.255 . S
C150 O143 1.287 . S
C150 O144 1.255 . S
O151 Fe133 2.002 . S
O151 C147 1.295 . S
O152 Fe135 1.997 . S
O152 C147 1.235 . S
C153 O136 1.295 . S
C153 O137 1.235 . S
Fe154 O156 1.918 . S
Fe154 O159 1.997 . S
Fe154 O160 2.002 . S
Fe154 O165 1.976 . S
Fe154 O168 1.996 1_565 S
Fe155 O156 1.918 . S
Fe155 O163 1.997 . S
Fe155 O166 1.996 . S
Fe155 O170 1.976 . S
Fe155 O173 2.002 . S
O156 Fe154 1.918 . S
O156 Fe155 1.918 . S
O156 Fe157 1.918 . S
Fe157 O156 1.918 . S
Fe157 O158 2.002 . S
Fe157 O167 1.976 1_565 S
Fe157 O171 1.996 . S
Fe157 O174 1.997 . S
O158 Fe157 2.002 . S
O158 C175 1.295 . S
O159 Fe154 1.997 . S
O159 C175 1.235 . S
O160 Fe154 2.002 . S
O160 C161 1.295 . S
C161 O160 1.295 . S
C161 O163 1.235 . S
C162 O167 1.287 . S
C162 O168 1.255 . S
O163 Fe155 1.997 . S
O163 C161 1.235 . S
C164 O170 1.287 . S
C164 O171 1.255 . S
O165 Fe154 1.976 . S
O165 C172 1.287 . S
O166 Fe155 1.996 . S
O166 C172 1.255 . S
O167 Fe157 1.976 1_545 S
O167 C162 1.287 . S
O168 Fe154 1.996 1_545 S
O168 C162 1.255 . S
C169 O173 1.295 . S
C169 O174 1.235 . S
O170 Fe155 1.976 . S
O170 C164 1.287 . S
O171 Fe157 1.996 . S
O171 C164 1.255 . S
C172 O165 1.287 . S
C172 O166 1.255 . S
O173 Fe155 2.002 . S
O173 C169 1.295 . S
O174 Fe157 1.997 . S
O174 C169 1.235 . S
C175 O158 1.295 . S
C175 O159 1.235 . S
C176 C177 1.391 . S
C176 C178 1.394 . S
C176 H192 0.931 . S
C177 C176 1.391 . S
C177 C181 1.376 . S
C178 C176 1.394 . S
C178 C179 1.369 . S
C178 C182 1.531 . S
C179 C178 1.369 . S
C179 C180 1.410 . S
C179 C187 1.503 . S
C180 C179 1.410 . S
C180 C181 1.392 . S
C180 C183 1.511 . S
C181 C177 1.376 . S
C181 C180 1.392 . S
C181 H193 0.929 . S
C182 C178 1.531 . S
C182 H194 0.960 . S
C182 H195 0.962 . S
C182 H196 0.960 . S
C183 C180 1.511 . S
C183 H197 0.961 . S
C183 H198 0.961 . S
C183 H199 0.961 . S
C184 C185 1.370 . S
C184 C186 1.363 . S
C184 H200 0.931 . S
C185 C184 1.370 . S
C185 C189 1.408 . S
C186 C184 1.363 . S
C186 C187 1.370 . S
C186 C190 1.524 . S
C187 C179 1.503 . S
C187 C186 1.370 . S
C187 C188 1.403 . S
C188 C187 1.403 . S
C188 C189 1.404 . S
C188 C191 1.539 . S
C189 C185 1.408 . S
C189 C188 1.404 . S
C189 H201 0.930 . S
C190 C186 1.524 . S
C190 H202 0.956 . S
C190 H203 0.961 . S
C190 H204 0.961 . S
C191 C188 1.539 . S
C191 H205 0.958 . S
C191 H206 0.961 . S
C191 H207 0.960 . S
H192 C176 0.931 . S
H193 C181 0.929 . S
H194 C182 0.960 . S
H195 C182 0.962 . S
H196 C182 0.960 . S
H197 C183 0.961 . S
H198 C183 0.961 . S
H199 C183 0.961 . S
H200 C184 0.931 . S
H201 C189 0.930 . S
H202 C190 0.956 . S
H203 C190 0.961 . S
H204 C190 0.961 . S
H205 C191 0.958 . S
H206 C191 0.961 . S
H207 C191 0.960 . S
C208 C209 1.391 . S
C208 C210 1.394 . S
C208 H224 0.931 . S
C209 C208 1.391 . S
C209 C213 1.376 . S
C210 C208 1.394 . S
C210 C211 1.369 . S
C210 C214 1.531 . S
C211 C210 1.369 . S
C211 C212 1.410 1_655 S
C211 C219 1.503 1_655 S
C212 C211 1.410 1_455 S
C212 C213 1.392 1_455 S
C212 C215 1.511 . S
C213 C209 1.376 . S
C213 C212 1.392 1_655 S
C213 H225 0.929 1_655 S
C214 C210 1.531 . S
C214 H226 0.960 . S
C214 H227 0.962 . S
C214 H228 0.960 . S
C215 C212 1.511 . S
C215 H229 0.961 . S
C215 H230 0.961 . S
C215 H231 0.961 . S
C216 C217 1.370 1_655 S
C216 C218 1.363 . S
C216 H232 0.931 . S
C217 C216 1.370 1_455 S
C217 C221 1.408 . S
C218 C216 1.363 . S
C218 C219 1.370 1_655 S
C218 C222 1.524 . S
C219 C211 1.503 1_455 S
C219 C218 1.370 1_455 S
C219 C220 1.403 . S
C220 C219 1.403 . S
C220 C221 1.404 . S
C220 C223 1.539 . S
C221 C217 1.408 . S
C221 C220 1.404 . S
C221 H233 0.930 . S
C222 C218 1.524 . S
C222 H234 0.956 . S
C222 H235 0.961 . S
C222 H236 0.961 . S
C223 C220 1.539 . S
C223 H237 0.958 . S
C223 H238 0.961 . S
C223 H239 0.960 . S
H224 C208 0.931 . S
H225 C213 0.929 1_455 S
H226 C214 0.960 . S
H227 C214 0.962 . S
H228 C214 0.960 . S
H229 C215 0.961 . S
H230 C215 0.961 . S
H231 C215 0.961 . S
H232 C216 0.931 . S
H233 C221 0.930 . S
H234 C222 0.956 . S
H235 C222 0.961 . S
H236 C222 0.961 . S
H237 C223 0.958 . S
H238 C223 0.961 . S
H239 C223 0.960 . S
C240 C241 1.391 . S
C240 C242 1.394 . S
C240 H256 0.931 . S
C241 C240 1.391 . S
C241 C245 1.376 . S
C242 C240 1.394 . S
C242 C243 1.369 . S
C242 C246 1.531 . S
C243 C242 1.369 . S
C243 C244 1.410 . S
C243 C251 1.503 1_545 S
C244 C243 1.410 . S
C244 C245 1.392 . S
C244 C247 1.511 1_545 S
C245 C241 1.376 . S
C245 C244 1.392 . S
C245 H257 0.929 . S
C246 C242 1.531 . S
C246 H258 0.960 . S
C246 H259 0.962 . S
C246 H260 0.960 . S
C247 C244 1.511 1_565 S
C247 H261 0.961 . S
C247 H262 0.961 . S
C247 H263 0.961 1_565 S
C248 C249 1.370 . S
C248 C250 1.363 . S
C248 H264 0.931 . S
C249 C248 1.370 . S
C249 C253 1.408 1_565 S
C250 C248 1.363 . S
C250 C251 1.370 . S
C250 C254 1.524 . S
C251 C243 1.503 1_565 S
C251 C250 1.370 . S
C251 C252 1.403 1_565 S
C252 C251 1.403 1_545 S
C252 C253 1.404 . S
C252 C255 1.539 . S
C253 C249 1.408 1_545 S
C253 C252 1.404 . S
C253 H265 0.930 . S
C254 C250 1.524 . S
C254 H266 0.956 . S
C254 H267 0.961 . S
C254 H268 0.961 . S
C255 C252 1.539 . S
C255 H269 0.958 . S
C255 H270 0.961 . S
C255 H271 0.960 . S
H256 C240 0.931 . S
H257 C245 0.929 . S
H258 C246 0.960 . S
H259 C246 0.962 . S
H260 C246 0.960 . S
H261 C247 0.961 . S
H262 C247 0.961 . S
H263 C247 0.961 1_545 S
H264 C248 0.931 . S
H265 C253 0.930 . S
H266 C254 0.956 . S
H267 C254 0.961 . S
H268 C254 0.961 . S
H269 C255 0.958 . S
H270 C255 0.961 . S
H271 C255 0.960 . S
C272 C273 1.391 . S
C272 C274 1.394 . S
C272 H288 0.931 . S
C273 C272 1.391 . S
C273 C277 1.376 . S
C274 C272 1.394 . S
C274 C275 1.369 . S
C274 C278 1.531 . S
C275 C274 1.369 . S
C275 C276 1.410 . S
C275 C283 1.503 . S
C276 C275 1.410 . S
C276 C277 1.392 . S
C276 C279 1.511 . S
C277 C273 1.376 . S
C277 C276 1.392 . S
C277 H289 0.929 . S
C278 C274 1.531 . S
C278 H290 0.960 . S
C278 H291 0.962 . S
C278 H292 0.960 . S
C279 C276 1.511 . S
C279 H293 0.961 . S
C279 H294 0.961 . S
C279 H295 0.961 . S
C280 C281 1.370 . S
C280 C282 1.363 . S
C280 H296 0.931 . S
C281 C280 1.370 . S
C281 C285 1.408 . S
C282 C280 1.363 . S
C282 C283 1.370 . S
C282 C286 1.524 . S
C283 C275 1.503 . S
C283 C282 1.370 . S
C283 C284 1.403 . S
C284 C283 1.403 . S
C284 C285 1.404 . S
C284 C287 1.539 . S
C285 C281 1.408 . S
C285 C284 1.404 . S
C285 H297 0.930 . S
C286 C282 1.524 . S
C286 H298 0.956 . S
C286 H299 0.961 . S
C286 H300 0.961 . S
C287 C284 1.539 . S
C287 H301 0.958 . S
C287 H302 0.961 . S
C287 H303 0.960 . S
H288 C272 0.931 . S
H289 C277 0.929 . S
H290 C278 0.960 . S
H291 C278 0.962 . S
H292 C278 0.960 . S
H293 C279 0.961 . S
H294 C279 0.961 . S
H295 C279 0.961 . S
H296 C280 0.931 . S
H297 C285 0.930 . S
H298 C286 0.956 . S
H299 C286 0.961 . S
H300 C286 0.961 . S
H301 C287 0.958 . S
H302 C287 0.961 . S
H303 C287 0.960 . S
C304 C305 1.391 . S
C304 C306 1.394 . S
C304 H320 0.931 . S
C305 C304 1.391 . S
C305 C309 1.376 . S
C306 C304 1.394 . S
C306 C307 1.369 . S
C306 C310 1.531 . S
C307 C306 1.369 . S
C307 C308 1.410 . S
C307 C315 1.503 . S
C308 C307 1.410 . S
C308 C309 1.392 . S
C308 C311 1.511 . S
C309 C305 1.376 . S
C309 C308 1.392 . S
C309 H321 0.929 . S
C310 C306 1.531 . S
C310 H322 0.960 . S
C310 H323 0.962 . S
C310 H324 0.960 . S
C311 C308 1.511 . S
C311 H325 0.961 . S
C311 H326 0.961 . S
C311 H327 0.961 . S
C312 C313 1.370 . S
C312 C314 1.363 . S
C312 H328 0.931 . S
C313 C312 1.370 . S
C313 C317 1.408 . S
C314 C312 1.363 . S
C314 C315 1.370 . S
C314 C318 1.524 . S
C315 C307 1.503 . S
C315 C314 1.370 . S
C315 C316 1.403 . S
C316 C315 1.403 . S
C316 C317 1.404 . S
C316 C319 1.539 . S
C317 C313 1.408 . S
C317 C316 1.404 . S
C317 H329 0.930 . S
C318 C314 1.524 . S
C318 H330 0.956 . S
C318 H331 0.961 . S
C318 H332 0.961 . S
C319 C316 1.539 . S
C319 H333 0.958 . S
C319 H334 0.961 . S
C319 H335 0.960 . S
H320 C304 0.931 . S
H321 C309 0.929 . S
H322 C310 0.960 . S
H323 C310 0.962 . S
H324 C310 0.960 . S
H325 C311 0.961 . S
H326 C311 0.961 . S
H327 C311 0.961 . S
H328 C312 0.931 . S
H329 C317 0.930 . S
H330 C318 0.956 . S
H331 C318 0.961 . S
H332 C318 0.961 . S
H333 C319 0.958 . S
H334 C319 0.961 . S
H335 C319 0.960 . S
C336 C337 1.391 . S
C336 C338 1.394 . S
C336 H352 0.931 . S
C337 C336 1.391 . S
C337 C341 1.376 . S
C338 C336 1.394 . S
C338 C339 1.369 . S
C338 C342 1.531 . S
C339 C338 1.369 . S
C339 C340 1.410 . S
C339 C347 1.503 . S
C340 C339 1.410 . S
C340 C341 1.392 . S
C340 C343 1.511 . S
C341 C337 1.376 . S
C341 C340 1.392 . S
C341 H353 0.929 . S
C342 C338 1.531 . S
C342 H354 0.960 . S
C342 H355 0.962 . S
C342 H356 0.960 . S
C343 C340 1.511 . S
C343 H357 0.961 . S
C343 H358 0.955 1_455 S
C343 H359 0.961 . S
C344 C345 1.370 . S
C344 C346 1.363 . S
C344 H360 0.931 . S
C345 C344 1.370 . S
C345 C349 1.408 1_655 S
C346 C344 1.363 . S
C346 C347 1.370 1_655 S
C346 C350 1.524 . S
C347 C339 1.503 . S
C347 C346 1.370 1_455 S
C347 C348 1.403 . S
C348 C347 1.403 . S
C348 C349 1.404 . S
C348 C351 1.539 . S
C349 C345 1.408 1_455 S
C349 C348 1.404 . S
C349 H361 0.930 . S
C350 C346 1.524 . S
C350 H362 0.956 . S
C350 H363 0.961 . S
C350 H364 0.961 . S
C351 C348 1.539 . S
C351 H365 0.958 . S
C351 H366 0.961 . S
C351 H367 0.960 . S
H352 C336 0.931 . S
H353 C341 0.929 . S
H354 C342 0.960 . S
H355 C342 0.962 . S
H356 C342 0.960 . S
H357 C343 0.961 . S
H358 C343 0.955 1_655 S
H359 C343 0.961 . S
H360 C344 0.931 . S
H361 C349 0.930 . S
H362 C350 0.956 . S
H363 C350 0.961 . S
H364 C350 0.961 . S
H365 C351 0.958 . S
H366 C351 0.961 . S
H367 C351 0.960 . S
C368 C369 1.391 . S
C368 C370 1.394 . S
C368 H384 0.941 . S
C369 C368 1.391 . S
C369 C373 1.376 . S
C370 C368 1.394 . S
C370 C371 1.369 . S
C370 C374 1.531 1_545 S
C371 C370 1.369 . S
C371 C372 1.410 . S
C371 C379 1.503 . S
C372 C371 1.410 . S
C372 C373 1.392 . S
C372 C375 1.511 . S
C373 C369 1.376 . S
C373 C372 1.392 . S
C373 H385 0.929 . S
C374 C370 1.531 1_565 S
C374 H386 0.960 . S
C374 H387 0.962 . S
C374 H388 0.960 . S
C375 C372 1.511 . S
C375 H389 0.961 . S
C375 H390 0.961 . S
C375 H391 0.961 . S
C376 C377 1.370 . S
C376 C378 1.363 . S
C376 H392 0.931 . S
C377 C376 1.370 . S
C377 C381 1.408 1_565 S
C378 C376 1.363 . S
C378 C379 1.370 1_565 S
C378 C382 1.524 . S
C379 C371 1.503 . S
C379 C378 1.370 1_545 S
C379 C380 1.403 . S
C380 C379 1.403 . S
C380 C381 1.404 . S
C380 C383 1.539 . S
C381 C377 1.408 1_545 S
C381 C380 1.404 . S
C381 H393 0.930 . S
C382 C378 1.524 . S
C382 H394 0.956 . S
C382 H395 0.961 . S
C382 H396 0.961 . S
C383 C380 1.539 . S
C383 H397 0.958 . S
C383 H398 0.961 . S
C383 H399 0.960 . S
H384 C368 0.941 . S
H385 C373 0.929 . S
H386 C374 0.960 . S
H387 C374 0.962 . S
H388 C374 0.960 . S
H389 C375 0.961 . S
H390 C375 0.961 . S
H391 C375 0.961 . S
H392 C376 0.931 . S
H393 C381 0.930 . S
H394 C382 0.956 . S
H395 C382 0.961 . S
H396 C382 0.961 . S
H397 C383 0.958 . S
H398 C383 0.961 . S
H399 C383 0.960 . S
C400 C401 1.391 . S
C400 C402 1.394 . S
C400 H416 0.931 . S
C401 C400 1.391 . S
C401 C405 1.376 . S
C402 C400 1.394 . S
C402 C403 1.369 . S
C402 C406 1.531 . S
C403 C402 1.369 . S
C403 C404 1.410 . S
C403 C411 1.503 . S
C404 C403 1.410 . S
C404 C405 1.392 . S
C404 C407 1.511 . S
C405 C401 1.376 . S
C405 C404 1.392 . S
C405 H417 0.929 . S
C406 C402 1.531 . S
C406 H418 0.960 . S
C406 H419 0.962 . S
C406 H420 0.960 . S
C407 C404 1.511 . S
C407 H421 0.961 . S
C407 H422 0.961 . S
C407 H423 0.961 . S
C408 C409 1.370 . S
C408 C410 1.363 . S
C408 H424 0.931 . S
C409 C408 1.370 . S
C409 C413 1.408 . S
C410 C408 1.363 . S
C410 C411 1.370 . S
C410 C414 1.524 . S
C411 C403 1.503 . S
C411 C410 1.370 . S
C411 C412 1.403 . S
C412 C411 1.403 . S
C412 C413 1.404 . S
C412 C415 1.539 . S
C413 C409 1.408 . S
C413 C412 1.404 . S
C413 H425 0.930 . S
C414 C410 1.524 . S
C414 H426 0.956 . S
C414 H427 0.961 . S
C414 H428 0.961 . S
C415 C412 1.539 . S
C415 H429 0.958 . S
C415 H430 0.961 . S
C415 H431 0.960 . S
H416 C400 0.931 . S
H417 C405 0.929 . S
H418 C406 0.960 . S
H419 C406 0.962 . S
H420 C406 0.960 . S
H421 C407 0.961 . S
H422 C407 0.961 . S
H423 C407 0.961 . S
H424 C408 0.931 . S
H425 C413 0.930 . S
H426 C414 0.956 . S
H427 C414 0.961 . S
H428 C414 0.961 . S
H429 C415 0.958 . S
H430 C415 0.961 . S
H431 C415 0.960 . S
C432 C433 1.391 . S
C432 C434 1.394 . S
C432 H448 0.931 . S
C433 C432 1.391 . S
C433 C437 1.376 . S
C434 C432 1.394 . S
C434 C435 1.369 . S
C434 C438 1.531 . S
C435 C434 1.369 . S
C435 C436 1.410 . S
C435 C443 1.503 . S
C436 C435 1.410 . S
C436 C437 1.392 . S
C436 C439 1.511 . S
C437 C433 1.376 . S
C437 C436 1.392 . S
C437 H449 0.929 . S
C438 C434 1.531 . S
C438 H450 0.960 . S
C438 H451 0.962 . S
C438 H452 0.960 . S
C439 C436 1.511 . S
C439 H453 0.961 . S
C439 H454 0.961 . S
C439 H455 0.961 . S
C440 C441 1.370 . S
C440 C442 1.363 . S
C440 H456 0.931 . S
C441 C440 1.370 . S
C441 C445 1.408 . S
C442 C440 1.363 . S
C442 C443 1.370 . S
C442 C446 1.524 . S
C443 C435 1.503 . S
C443 C442 1.370 . S
C443 C444 1.403 . S
C444 C443 1.403 . S
C444 C445 1.404 . S
C444 C447 1.539 . S
C445 C441 1.408 . S
C445 C444 1.404 . S
C445 H457 0.930 . S
C446 C442 1.524 . S
C446 H458 0.956 . S
C446 H459 0.961 . S
C446 H460 0.961 . S
C447 C444 1.539 . S
C447 H461 0.958 . S
C447 H462 0.961 . S
C447 H463 0.960 . S
H448 C432 0.931 . S
H449 C437 0.929 . S
H450 C438 0.960 . S
H451 C438 0.962 . S
H452 C438 0.960 . S
H453 C439 0.961 . S
H454 C439 0.961 . S
H455 C439 0.961 . S
H456 C440 0.931 . S
H457 C445 0.930 . S
H458 C446 0.956 . S
H459 C446 0.961 . S
H460 C446 0.961 . S
H461 C447 0.958 . S
H462 C447 0.961 . S
H463 C447 0.960 . S
C464 C465 1.391 . S
C464 C466 1.394 . S
C464 H480 0.931 . S
C465 C464 1.391 . S
C465 C469 1.376 1_455 S
C466 C464 1.394 . S
C466 C467 1.369 . S
C466 C470 1.531 . S
C467 C466 1.369 . S
C467 C468 1.410 1_455 S
C467 C475 1.503 . S
C468 C467 1.410 1_655 S
C468 C469 1.392 . S
C468 C471 1.511 . S
C469 C465 1.376 1_655 S
C469 C468 1.392 . S
C469 H481 0.929 . S
C470 C466 1.531 . S
C470 H482 0.960 . S
C470 H483 0.962 . S
C470 H484 0.960 . S
C471 C468 1.511 . S
C471 H485 0.961 . S
C471 H486 0.961 . S
C471 H487 0.961 . S
C472 C473 1.370 . S
C472 C474 1.363 1_655 S
C472 H488 0.931 . S
C473 C472 1.370 . S
C473 C477 1.408 . S
C474 C472 1.363 1_455 S
C474 C475 1.370 . S
C474 C478 1.524 . S
C475 C467 1.503 . S
C475 C474 1.370 . S
C475 C476 1.403 1_455 S
C476 C475 1.403 1_655 S
C476 C477 1.404 . S
C476 C479 1.539 . S
C477 C473 1.408 . S
C477 C476 1.404 . S
C477 H489 0.930 . S
C478 C474 1.524 . S
C478 H490 0.956 . S
C478 H491 0.961 . S
C478 H492 0.961 . S
C479 C476 1.539 . S
C479 H493 0.958 1_655 S
C479 H494 0.961 . S
C479 H495 0.960 . S
H480 C464 0.931 . S
H481 C469 0.929 . S
H482 C470 0.960 . S
H483 C470 0.962 . S
H484 C470 0.960 . S
H485 C471 0.961 . S
H486 C471 0.961 . S
H487 C471 0.961 . S
H488 C472 0.931 . S
H489 C477 0.930 . S
H490 C478 0.956 . S
H491 C478 0.961 . S
H492 C478 0.961 . S
H493 C479 0.958 1_455 S
H494 C479 0.961 . S
H495 C479 0.960 . S
C496 C497 1.391 . S
C496 C498 1.394 . S
C496 H512 0.931 . S
C497 C496 1.391 . S
C497 C501 1.376 . S
C498 C496 1.394 . S
C498 C499 1.369 . S
C498 C502 1.531 . S
C499 C498 1.369 . S
C499 C500 1.398 1_545 S
C499 C507 1.503 . S
C500 C499 1.398 1_565 S
C500 C501 1.387 1_565 S
C500 C503 1.529 . S
C501 C497 1.376 . S
C501 C500 1.387 1_545 S
C501 H513 0.929 1_545 S
C502 C498 1.531 . S
C502 H514 0.960 . S
C502 H515 0.962 . S
C502 H516 0.960 . S
C503 C500 1.529 . S
C503 H517 0.961 . S
C503 H518 0.961 . S
C503 H519 0.961 . S
C504 C505 1.370 . S
C504 C506 1.363 . S
C504 H520 0.931 . S
C505 C504 1.370 . S
C505 C509 1.408 1_565 S
C506 C504 1.363 . S
C506 C507 1.370 1_565 S
C506 C510 1.524 . S
C507 C499 1.503 . S
C507 C506 1.370 1_545 S
C507 C508 1.403 . S
C508 C507 1.403 . S
C508 C509 1.404 . S
C508 C511 1.539 . S
C509 C505 1.408 1_545 S
C509 C508 1.404 . S
C509 H521 0.930 . S
C510 C506 1.524 . S
C510 H522 0.956 . S
C510 H523 0.961 . S
C510 H524 0.961 . S
C511 C508 1.539 . S
C511 H525 0.958 . S
C511 H526 0.961 . S
C511 H527 0.960 . S
H512 C496 0.931 . S
H513 C501 0.929 1_565 S
H514 C502 0.960 . S
H515 C502 0.962 . S
H516 C502 0.960 . S
H517 C503 0.961 . S
H518 C503 0.961 . S
H519 C503 0.961 . S
H520 C504 0.931 . S
H521 C509 0.930 . S
H522 C510 0.956 . S
H523 C510 0.961 . S
H524 C510 0.961 . S
H525 C511 0.958 . S
H526 C511 0.961 . S
H527 C511 0.960 . S
C528 C529 1.391 . S
C528 C530 1.394 . S
C528 H544 0.931 . S
C529 C528 1.391 . S
C529 C533 1.376 . S
C530 C528 1.394 . S
C530 C531 1.369 . S
C530 C534 1.531 . S
C531 C530 1.369 . S
C531 C532 1.410 . S
C531 C539 1.503 . S
C532 C531 1.410 . S
C532 C533 1.392 . S
C532 C535 1.511 . S
C533 C529 1.376 . S
C533 C532 1.392 . S
C533 H545 0.929 . S
C534 C530 1.531 . S
C534 H546 0.960 . S
C534 H547 0.962 . S
C534 H548 0.960 . S
C535 C532 1.511 . S
C535 H549 0.961 . S
C535 H550 0.961 . S
C535 H551 0.961 . S
C536 C537 1.370 . S
C536 C538 1.363 . S
C536 H552 0.931 . S
C537 C536 1.370 . S
C537 C541 1.408 . S
C538 C536 1.363 . S
C538 C539 1.370 . S
C538 C542 1.524 . S
C539 C531 1.503 . S
C539 C538 1.370 . S
C539 C540 1.403 . S
C540 C539 1.403 . S
C540 C541 1.404 . S
C540 C543 1.539 . S
C541 C537 1.408 . S
C541 C540 1.404 . S
C541 H553 0.930 . S
C542 C538 1.524 . S
C542 H554 0.956 . S
C542 H555 0.961 . S
C542 H556 0.961 . S
C543 C540 1.539 . S
C543 H557 0.958 . S
C543 H558 0.961 . S
C543 H559 0.960 . S
H544 C528 0.931 . S
H545 C533 0.929 . S
H546 C534 0.960 . S
H547 C534 0.962 . S
H548 C534 0.960 . S
H549 C535 0.961 . S
H550 C535 0.961 . S
H551 C535 0.961 . S
H552 C536 0.931 . S
H553 C541 0.930 . S
H554 C542 0.956 . S
H555 C542 0.961 . S
H556 C542 0.961 . S
H557 C543 0.958 . S
H558 C543 0.961 . S
H559 C543 0.960 . S
C560 C561 1.391 . S
C560 C562 1.394 . S
C560 H576 0.931 . S
C561 C560 1.391 . S
C561 C565 1.376 . S
C562 C560 1.394 . S
C562 C563 1.369 . S
C562 C566 1.531 . S
C563 C562 1.369 . S
C563 C564 1.410 . S
C563 C571 1.503 . S
C564 C563 1.410 . S
C564 C565 1.392 . S
C564 C567 1.511 . S
C565 C561 1.376 . S
C565 C564 1.392 . S
C565 H577 0.929 . S
C566 C562 1.531 . S
C566 H578 0.960 . S
C566 H579 0.962 . S
C566 H580 0.960 . S
C567 C564 1.511 . S
C567 H581 0.961 . S
C567 H582 0.961 . S
C567 H583 0.961 . S
C568 C569 1.370 . S
C568 C570 1.363 . S
C568 H584 0.931 . S
C569 C568 1.370 . S
C569 C573 1.408 . S
C570 C568 1.363 . S
C570 C571 1.370 . S
C570 C574 1.524 . S
C571 C563 1.503 . S
C571 C570 1.370 . S
C571 C572 1.403 . S
C572 C571 1.403 . S
C572 C573 1.404 . S
C572 C575 1.539 . S
C573 C569 1.408 . S
C573 C572 1.404 . S
C573 H585 0.930 . S
C574 C570 1.524 . S
C574 H586 0.956 . S
C574 H587 0.961 . S
C574 H588 0.961 . S
C575 C572 1.539 . S
C575 H589 0.958 . S
C575 H590 0.961 . S
C575 H591 0.960 . S
H576 C560 0.931 . S
H577 C565 0.929 . S
H578 C566 0.960 . S
H579 C566 0.962 . S
H580 C566 0.960 . S
H581 C567 0.961 . S
H582 C567 0.961 . S
H583 C567 0.961 . S
H584 C568 0.931 . S
H585 C573 0.930 . S
H586 C574 0.956 . S
H587 C574 0.961 . S
H588 C574 0.961 . S
H589 C575 0.958 . S
H590 C575 0.961 . S
H591 C575 0.960 . S
C592 C593 1.391 1_655 S
C592 C594 1.394 . S
C592 H608 0.931 . S
C593 C592 1.391 1_455 S
C593 C597 1.376 . S
C594 C592 1.394 . S
C594 C595 1.369 . S
C594 C598 1.531 . S
C595 C594 1.369 . S
C595 C596 1.410 1_655 S
C595 C603 1.503 . S
C596 C595 1.410 1_455 S
C596 C597 1.392 . S
C596 C599 1.511 . S
C597 C593 1.376 . S
C597 C596 1.392 . S
C597 H609 0.929 . S
C598 C594 1.531 . S
C598 H610 0.960 . S
C598 H611 0.962 . S
C598 H612 0.960 . S
C599 C596 1.511 . S
C599 H613 0.961 . S
C599 H614 0.961 . S
C599 H615 0.961 . S
C600 C601 1.370 . S
C600 C602 1.363 . S
C600 H616 0.931 . S
C601 C600 1.370 . S
C601 C605 1.408 . S
C602 C600 1.363 . S
C602 C603 1.370 . S
C602 C606 1.524 1_655 S
C603 C595 1.503 . S
C603 C602 1.370 . S
C603 C604 1.403 . S
C604 C603 1.403 . S
C604 C605 1.404 . S
C604 C607 1.539 . S
C605 C601 1.408 . S
C605 C604 1.404 . S
C605 H617 0.930 . S
C606 C602 1.524 1_455 S
C606 H618 0.950 1_455 S
C606 H619 0.961 . S
C606 H620 0.961 . S
C607 C604 1.539 . S
C607 H621 0.958 . S
C607 H622 0.961 . S
C607 H623 0.960 . S
H608 C592 0.931 . S
H609 C597 0.929 . S
H610 C598 0.960 . S
H611 C598 0.962 . S
H612 C598 0.960 . S
H613 C599 0.961 . S
H614 C599 0.961 . S
H615 C599 0.961 . S
H616 C600 0.931 . S
H617 C605 0.930 . S
H618 C606 0.950 1_655 S
H619 C606 0.961 . S
H620 C606 0.961 . S
H621 C607 0.958 . S
H622 C607 0.961 . S
H623 C607 0.960 . S
C624 C625 1.391 . S
C624 C626 1.394 . S
C624 H640 0.931 . S
C625 C624 1.391 . S
C625 C629 1.376 . S
C626 C624 1.394 . S
C626 C627 1.369 . S
C626 C630 1.531 1_565 S
C627 C626 1.369 . S
C627 C628 1.410 . S
C627 C635 1.503 . S
C628 C627 1.410 . S
C628 C629 1.392 . S
C628 C631 1.511 . S
C629 C625 1.376 . S
C629 C628 1.392 . S
C629 H641 0.929 . S
C630 C626 1.531 1_545 S
C630 H642 0.960 . S
C630 H643 0.962 . S
C630 H644 0.960 . S
C631 C628 1.511 . S
C631 H645 0.961 . S
C631 H646 0.961 . S
C631 H647 0.961 . S
C632 C633 1.370 . S
C632 C634 1.363 . S
C632 H648 0.931 . S
C633 C632 1.370 . S
C633 C637 1.408 1_545 S
C634 C632 1.363 . S
C634 C635 1.370 1_545 S
C634 C638 1.524 . S
C635 C627 1.503 . S
C635 C634 1.370 1_565 S
C635 C636 1.403 . S
C636 C635 1.403 . S
C636 C637 1.404 . S
C636 C639 1.539 . S
C637 C633 1.408 1_565 S
C637 C636 1.404 . S
C637 H649 0.930 . S
C638 C634 1.524 . S
C638 H650 0.956 . S
C638 H651 0.961 . S
C638 H652 0.961 . S
C639 C636 1.539 . S
C639 H653 0.958 . S
C639 H654 0.961 . S
C639 H655 0.960 . S
H640 C624 0.931 . S
H641 C629 0.929 . S
H642 C630 0.960 . S
H643 C630 0.962 . S
H644 C630 0.960 . S
H645 C631 0.961 . S
H646 C631 0.961 . S
H647 C631 0.961 . S
H648 C632 0.931 . S
H649 C637 0.930 . S
H650 C638 0.956 . S
H651 C638 0.961 . S
H652 C638 0.961 . S
H653 C639 0.958 . S
H654 C639 0.961 . S
H655 C639 0.960 . S
C656 C657 1.391 . S
C656 C658 1.394 . S
C656 H672 0.931 . S
C657 C656 1.391 . S
C657 C661 1.376 . S
C658 C656 1.394 . S
C658 C659 1.369 . S
C658 C662 1.531 . S
C659 C658 1.369 . S
C659 C660 1.410 . S
C659 C667 1.503 . S
C660 C659 1.410 . S
C660 C661 1.392 . S
C660 C663 1.511 . S
C661 C657 1.376 . S
C661 C660 1.392 . S
C661 H673 0.929 . S
C662 C658 1.531 . S
C662 H674 0.960 . S
C662 H675 0.962 . S
C662 H676 0.960 . S
C663 C660 1.511 . S
C663 H677 0.961 . S
C663 H678 0.961 . S
C663 H679 0.961 . S
C664 C665 1.370 . S
C664 C666 1.363 . S
C664 H680 0.931 . S
C665 C664 1.370 . S
C665 C669 1.408 . S
C666 C664 1.363 . S
C666 C667 1.370 . S
C666 C670 1.524 . S
C667 C659 1.503 . S
C667 C666 1.370 . S
C667 C668 1.403 . S
C668 C667 1.403 . S
C668 C669 1.404 . S
C668 C671 1.539 . S
C669 C665 1.408 . S
C669 C668 1.404 . S
C669 H681 0.930 . S
C670 C666 1.524 . S
C670 H682 0.956 . S
C670 H683 0.961 . S
C670 H684 0.961 . S
C671 C668 1.539 . S
C671 H685 0.958 . S
C671 H686 0.961 . S
C671 H687 0.960 . S
H672 C656 0.931 . S
H673 C661 0.929 . S
H674 C662 0.960 . S
H675 C662 0.962 . S
H676 C662 0.960 . S
H677 C663 0.961 . S
H678 C663 0.961 . S
H679 C663 0.961 . S
H680 C664 0.931 . S
H681 C669 0.930 . S
H682 C670 0.956 . S
H683 C670 0.961 . S
H684 C670 0.961 . S
H685 C671 0.958 . S
H686 C671 0.961 . S
H687 C671 0.960 . S
C688 C689 1.391 . S
C688 C690 1.394 . S
C688 H704 0.931 . S
C689 C688 1.391 . S
C689 C693 1.376 . S
C690 C688 1.394 . S
C690 C691 1.369 . S
C690 C694 1.531 . S
C691 C690 1.369 . S
C691 C692 1.410 . S
C691 C699 1.503 . S
C692 C691 1.410 . S
C692 C693 1.392 . S
C692 C695 1.511 . S
C693 C689 1.376 . S
C693 C692 1.392 . S
C693 H705 0.929 . S
C694 C690 1.531 . S
C694 H706 0.960 . S
C694 H707 0.962 . S
C694 H708 0.960 . S
C695 C692 1.511 . S
C695 H709 0.961 . S
C695 H710 0.961 . S
C695 H711 0.961 . S
C696 C697 1.370 . S
C696 C698 1.363 . S
C696 H712 0.931 . S
C697 C696 1.370 . S
C697 C701 1.408 . S
C698 C696 1.363 . S
C698 C699 1.370 . S
C698 C702 1.524 . S
C699 C691 1.503 . S
C699 C698 1.370 . S
C699 C700 1.403 . S
C700 C699 1.403 . S
C700 C701 1.404 . S
C700 C703 1.539 . S
C701 C697 1.408 . S
C701 C700 1.404 . S
C701 H713 0.930 . S
C702 C698 1.524 . S
C702 H714 0.956 . S
C702 H715 0.961 . S
C702 H716 0.961 . S
C703 C700 1.539 . S
C703 H717 0.958 . S
C703 H718 0.961 . S
C703 H719 0.960 . S
H704 C688 0.931 . S
H705 C693 0.929 . S
H706 C694 0.960 . S
H707 C694 0.962 . S
H708 C694 0.960 . S
H709 C695 0.961 . S
H710 C695 0.961 . S
H711 C695 0.961 . S
H712 C696 0.931 . S
H713 C701 0.930 . S
H714 C702 0.956 . S
H715 C702 0.961 . S
H716 C702 0.961 . S
H717 C703 0.958 . S
H718 C703 0.961 . S
H719 C703 0.960 . S
C720 C721 1.391 . S
C720 C722 1.394 . S
C720 H736 0.931 . S
C721 C720 1.391 . S
C721 C725 1.376 . S
C722 C720 1.394 . S
C722 C723 1.369 . S
C722 C726 1.531 . S
C723 C722 1.369 . S
C723 C724 1.410 . S
C723 C731 1.503 . S
C724 C723 1.410 . S
C724 C725 1.392 . S
C724 C727 1.511 . S
C725 C721 1.376 . S
C725 C724 1.392 . S
C725 H737 0.929 . S
C726 C722 1.531 . S
C726 H738 0.960 . S
C726 H739 0.962 . S
C726 H740 0.960 . S
C727 C724 1.511 . S
C727 H741 0.961 . S
C727 H742 0.961 . S
C727 H743 0.961 . S
C728 C729 1.370 . S
C728 C730 1.363 . S
C728 H744 0.931 . S
C729 C728 1.370 . S
C729 C733 1.408 . S
C730 C728 1.363 . S
C730 C731 1.370 . S
C730 C734 1.524 . S
C731 C723 1.503 . S
C731 C730 1.370 . S
C731 C732 1.403 . S
C732 C731 1.403 . S
C732 C733 1.404 . S
C732 C735 1.539 . S
C733 C729 1.408 . S
C733 C732 1.404 . S
C733 H745 0.930 . S
C734 C730 1.524 . S
C734 H746 0.956 . S
C734 H747 0.961 . S
C734 H748 0.961 . S
C735 C732 1.539 . S
C735 H749 0.958 . S
C735 H750 0.961 . S
C735 H751 0.960 . S
H736 C720 0.931 . S
H737 C725 0.929 . S
H738 C726 0.960 . S
H739 C726 0.962 . S
H740 C726 0.960 . S
H741 C727 0.961 . S
H742 C727 0.961 . S
H743 C727 0.961 . S
H744 C728 0.931 . S
H745 C733 0.930 . S
H746 C734 0.956 . S
H747 C734 0.961 . S
H748 C734 0.961 . S
H749 C735 0.958 . S
H750 C735 0.961 . S
H751 C735 0.960 . S
C752 C753 1.391 . S
C752 C754 1.394 . S
C752 H768 0.931 . S
C753 C752 1.391 . S
C753 C757 1.376 . S
C754 C752 1.394 . S
C754 C755 1.369 . S
C754 C758 1.531 . S
C755 C754 1.369 . S
C755 C756 1.410 . S
C755 C763 1.503 . S
C756 C755 1.410 . S
C756 C757 1.392 . S
C756 C759 1.511 . S
C757 C753 1.376 . S
C757 C756 1.392 . S
C757 H769 0.929 . S
C758 C754 1.531 . S
C758 H770 0.960 . S
C758 H771 0.962 . S
C758 H772 0.960 . S
C759 C756 1.511 . S
C759 H773 0.961 . S
C759 H774 0.961 . S
C759 H775 0.961 . S
C760 C761 1.370 . S
C760 C762 1.363 . S
C760 H776 0.931 . S
C761 C760 1.370 . S
C761 C765 1.408 . S
C762 C760 1.363 . S
C762 C763 1.370 . S
C762 C766 1.524 . S
C763 C755 1.503 . S
C763 C762 1.370 . S
C763 C764 1.403 . S
C764 C763 1.403 . S
C764 C765 1.404 . S
C764 C767 1.539 . S
C765 C761 1.408 . S
C765 C764 1.404 . S
C765 H777 0.930 . S
C766 C762 1.524 . S
C766 H778 0.956 . S
C766 H779 0.961 . S
C766 H780 0.961 . S
C767 C764 1.539 . S
C767 H781 0.958 . S
C767 H782 0.961 . S
C767 H783 0.960 . S
H768 C752 0.931 . S
H769 C757 0.929 . S
H770 C758 0.960 . S
H771 C758 0.962 . S
H772 C758 0.960 . S
H773 C759 0.961 . S
H774 C759 0.961 . S
H775 C759 0.961 . S
H776 C760 0.931 . S
H777 C765 0.930 . S
H778 C766 0.956 . S
H779 C766 0.961 . S
H780 C766 0.961 . S
H781 C767 0.958 . S
H782 C767 0.961 . S
H783 C767 0.960 . S
C784 C785 1.391 . S
C784 C786 1.394 . S
C784 H800 0.931 . S
C785 C784 1.391 . S
C785 C789 1.376 . S
C786 C784 1.394 . S
C786 C787 1.369 . S
C786 C790 1.531 . S
C787 C786 1.369 . S
C787 C788 1.410 . S
C787 C795 1.503 . S
C788 C787 1.410 . S
C788 C789 1.392 . S
C788 C791 1.511 . S
C789 C785 1.376 . S
C789 C788 1.392 . S
C789 H801 0.929 . S
C790 C786 1.531 . S
C790 H802 0.960 . S
C790 H803 0.962 . S
C790 H804 0.960 . S
C791 C788 1.511 . S
C791 H805 0.961 . S
C791 H806 0.961 . S
C791 H807 0.961 . S
C792 C793 1.370 . S
C792 C794 1.363 . S
C792 H808 0.931 . S
C793 C792 1.370 . S
C793 C797 1.408 . S
C794 C792 1.363 . S
C794 C795 1.370 . S
C794 C798 1.524 . S
C795 C787 1.503 . S
C795 C794 1.370 . S
C795 C796 1.403 . S
C796 C795 1.403 . S
C796 C797 1.404 . S
C796 C799 1.539 . S
C797 C793 1.408 . S
C797 C796 1.404 . S
C797 H809 0.930 . S
C798 C794 1.524 . S
C798 H810 0.956 . S
C798 H811 0.961 . S
C798 H812 0.961 . S
C799 C796 1.539 . S
C799 H813 0.958 . S
C799 H814 0.961 . S
C799 H815 0.960 . S
H800 C784 0.931 . S
H801 C789 0.929 . S
H802 C790 0.960 . S
H803 C790 0.962 . S
H804 C790 0.960 . S
H805 C791 0.961 . S
H806 C791 0.961 . S
H807 C791 0.961 . S
H808 C792 0.931 . S
H809 C797 0.930 . S
H810 C798 0.956 . S
H811 C798 0.961 . S
H812 C798 0.961 . S
H813 C799 0.958 . S
H814 C799 0.961 . S
H815 C799 0.960 . S
C816 C817 1.391 . S
C816 C818 1.394 . S
C816 H832 0.931 . S
C817 C816 1.391 . S
C817 C821 1.376 1_655 S
C818 C816 1.394 . S
C818 C819 1.366 1_655 S
C818 C822 1.531 . S
C819 C818 1.366 1_455 S
C819 C820 1.412 . S
C819 C827 1.504 1_556 S
C820 C819 1.412 . S
C820 C821 1.392 . S
C820 C823 1.511 . S
C821 C817 1.376 1_455 S
C821 C820 1.392 . S
C821 H833 0.929 . S
C822 C818 1.531 . S
C822 H834 0.960 1_556 S
C822 H835 0.962 . S
C822 H836 0.960 . S
C823 C820 1.511 . S
C823 H837 0.961 . S
C823 H838 0.961 . S
C823 H839 0.961 . S
C824 C825 1.372 . S
C824 C826 1.363 1_455 S
C824 H840 0.930 1_455 S
C825 C824 1.372 . S
C825 C829 1.408 . S
C826 C824 1.363 1_655 S
C826 C827 1.370 1_655 S
C826 C830 1.524 . S
C827 C819 1.504 1_554 S
C827 C826 1.370 1_455 S
C827 C828 1.403 . S
C828 C827 1.403 . S
C828 C829 1.404 . S
C828 C831 1.539 . S
C829 C825 1.408 . S
C829 C828 1.404 . S
C829 H841 0.930 . S
C830 C826 1.524 . S
C830 H842 0.956 . S
C830 H843 0.961 . S
C830 H844 0.961 . S
C831 C828 1.539 . S
C831 H845 0.958 . S
C831 H846 0.961 . S
C831 H847 0.960 1_554 S
H832 C816 0.931 . S
H833 C821 0.929 . S
H834 C822 0.960 1_554 S
H835 C822 0.962 . S
H836 C822 0.960 . S
H837 C823 0.961 . S
H838 C823 0.961 . S
H839 C823 0.961 . S
H840 C824 0.930 1_655 S
H841 C829 0.930 . S
H842 C830 0.956 . S
H843 C830 0.961 . S
H844 C830 0.961 . S
H845 C831 0.958 . S
H846 C831 0.961 . S
H847 C831 0.960 1_556 S
C848 C849 1.391 1_655 S
C848 C850 1.394 . S
C848 H864 0.931 . S
C849 C848 1.391 1_455 S
C849 C853 1.376 . S
C850 C848 1.394 . S
C850 C851 1.369 1_655 S
C850 C854 1.531 . S
C851 C850 1.369 1_455 S
C851 C852 1.410 . S
C851 C859 1.503 1_455 S
C852 C851 1.410 . S
C852 C853 1.392 . S
C852 C855 1.511 1_545 S
C853 C849 1.376 . S
C853 C852 1.392 . S
C853 H865 0.929 1_545 S
C854 C850 1.531 . S
C854 H866 0.960 . S
C854 H867 0.962 . S
C854 H868 0.960 . S
C855 C852 1.511 1_565 S
C855 H869 0.961 . S
C855 H870 0.961 . S
C855 H871 0.961 1_565 S
C856 C857 1.370 . S
C856 C858 1.363 . S
C856 H872 0.931 . S
C857 C856 1.370 . S
C857 C861 1.407 1_665 S
C858 C856 1.363 . S
C858 C859 1.370 1_565 S
C858 C862 1.524 . S
C859 C851 1.503 1_655 S
C859 C858 1.370 1_545 S
C859 C860 1.403 1_655 S
C860 C859 1.403 1_455 S
C860 C861 1.404 . S
C860 C863 1.539 . S
C861 C857 1.407 1_445 S
C861 C860 1.404 . S
C861 H873 0.930 . S
C862 C858 1.524 . S
C862 H874 0.956 . S
C862 H875 0.961 . S
C862 H876 0.961 . S
C863 C860 1.539 . S
C863 H877 0.958 . S
C863 H878 0.961 . S
C863 H879 0.960 . S
H864 C848 0.931 . S
H865 C853 0.929 1_565 S
H866 C854 0.960 . S
H867 C854 0.962 . S
H868 C854 0.960 . S
H869 C855 0.961 . S
H870 C855 0.961 . S
H871 C855 0.961 1_545 S
H872 C856 0.931 . S
H873 C861 0.930 . S
H874 C862 0.956 . S
H875 C862 0.961 . S
H876 C862 0.961 . S
H877 C863 0.958 . S
H878 C863 0.961 . S
H879 C863 0.960 . S
C880 C881 1.391 . S
C880 C882 1.394 . S
C880 H896 0.931 . S
C881 C880 1.391 . S
C881 C885 1.376 . S
C882 C880 1.394 . S
C882 C883 1.369 1_565 S
C882 C886 1.531 . S
C883 C882 1.369 1_545 S
C883 C884 1.410 . S
C883 C891 1.503 1_556 S
C884 C883 1.410 . S
C884 C885 1.392 1_545 S
C884 C887 1.511 . S
C885 C881 1.376 . S
C885 C884 1.392 1_565 S
C885 H897 0.929 . S
C886 C882 1.531 . S
C886 H898 0.960 1_566 S
C886 H899 0.962 1_556 S
C886 H900 0.960 1_565 S
C887 C884 1.511 . S
C887 H901 0.961 . S
C887 H902 0.961 . S
C887 H903 0.961 . S
C888 C889 1.370 1_565 S
C888 C890 1.363 . S
C888 H904 0.931 . S
C889 C888 1.370 1_545 S
C889 C893 1.408 . S
C890 C888 1.363 . S
C890 C891 1.370 1_565 S
C890 C894 1.524 . S
C891 C883 1.503 1_554 S
C891 C890 1.370 1_545 S
C891 C892 1.403 . S
C892 C891 1.403 . S
C892 C893 1.404 . S
C892 C895 1.539 . S
C893 C889 1.408 . S
C893 C892 1.404 . S
C893 H905 0.930 . S
C894 C890 1.524 . S
C894 H906 0.956 . S
C894 H907 0.961 . S
C894 H908 0.961 . S
C895 C892 1.539 . S
C895 H909 0.958 . S
C895 H910 0.961 . S
C895 H911 0.960 1_554 S
H896 C880 0.931 . S
H897 C885 0.929 . S
H898 C886 0.960 1_544 S
H899 C886 0.962 1_554 S
H900 C886 0.960 1_545 S
H901 C887 0.961 . S
H902 C887 0.961 . S
H903 C887 0.961 . S
H904 C888 0.931 . S
H905 C893 0.930 . S
H906 C894 0.956 . S
H907 C894 0.961 . S
H908 C894 0.961 . S
H909 C895 0.958 . S
H910 C895 0.961 . S
H911 C895 0.960 1_556 S
C912 C913 1.391 . S
C912 C914 1.394 . S
C912 H928 0.931 . S
C913 C912 1.391 . S
C913 C917 1.376 . S
C914 C912 1.394 . S
C914 C915 1.369 . S
C914 C918 1.531 . S
C915 C914 1.369 . S
C915 C916 1.410 . S
C915 C923 1.503 . S
C916 C915 1.410 . S
C916 C917 1.392 . S
C916 C919 1.511 . S
C917 C913 1.376 . S
C917 C916 1.392 . S
C917 H929 0.929 . S
C918 C914 1.531 . S
C918 H930 0.960 . S
C918 H931 0.962 . S
C918 H932 0.960 . S
C919 C916 1.511 . S
C919 H933 0.961 . S
C919 H934 0.961 . S
C919 H935 0.961 . S
C920 C921 1.370 . S
C920 C922 1.363 . S
C920 H936 0.931 . S
C921 C920 1.370 . S
C921 C925 1.408 . S
C922 C920 1.363 . S
C922 C923 1.370 . S
C922 C926 1.524 . S
C923 C915 1.503 . S
C923 C922 1.370 . S
C923 C924 1.403 . S
C924 C923 1.403 . S
C924 C925 1.404 . S
C924 C927 1.539 . S
C925 C921 1.408 . S
C925 C924 1.404 . S
C925 H937 0.930 . S
C926 C922 1.524 . S
C926 H938 0.956 . S
C926 H939 0.961 . S
C926 H940 0.961 . S
C927 C924 1.539 . S
C927 H941 0.958 . S
C927 H942 0.961 . S
C927 H943 0.960 . S
H928 C912 0.931 . S
H929 C917 0.929 . S
H930 C918 0.960 . S
H931 C918 0.962 . S
H932 C918 0.960 . S
H933 C919 0.961 . S
H934 C919 0.961 . S
H935 C919 0.961 . S
H936 C920 0.931 . S
H937 C925 0.930 . S
H938 C926 0.956 . S
H939 C926 0.961 . S
H940 C926 0.961 . S
H941 C927 0.958 . S
H942 C927 0.961 . S
H943 C927 0.960 . S
C177 C98 1.285 . S
C185 C15 1.256 . S
C209 C120 1.236 . S
C217 C29 1.265 . S
C241 C65 1.277 . S
C249 C150 1.255 . S
C273 C81 1.231 . S
C281 C162 1.261 . S
C305 C95 1.230 . S
C313 C8 1.262 . S
C337 C32 1.268 . S
C345 C117 1.248 . S
C369 C62 1.283 . S
C377 C153 1.254 . S
C401 C74 1.235 . S
C409 C169 1.263 . S
C433 C125 1.249 . S
C441 C76 1.248 . S
C465 C10 1.277 . S
C473 C139 1.273 . S
C497 C40 1.284 . S
C505 C175 1.264 . S
C529 C52 1.258 . S
C537 C103 1.255 . S
C561 C87 1.260 . S
C569 C128 1.271 . S
C593 C21 1.245 . S
C601 C140 1.250 . S
C625 C164 1.252 . S
C633 C37 1.255 . S
C657 C106 1.228 . S
C665 C51 1.262 . S
C689 C7 1.684 . S
C697 C59 1.698 . S
C721 C43 1.682 . S
C729 C73 1.695 . S
C753 C147 1.684 . S
C761 C109 1.697 . S
C785 C161 1.712 . S
C793 C131 1.708 . S
C817 C118 1.442 . S
C825 C18 1.431 . S
C849 C30 1.421 . S
C857 C142 1.439 . S
C881 C172 1.439 . S
C889 C54 1.433 . S
C913 C96 1.425 . S
C921 C84 1.438 . S
