# Generated by pormake.
# Topology snp, (6)-cn, num edge types: 1
# Building blocks:
#     Node 0, Type 0, BuildingBlock: UKALOJ_clean_sbu_0, # of connection points: 6
#     Node 1, Type 0, BuildingBlock: UKALOJ_clean_sbu_0, # of connection points: 6
#     Node 2, Type 0, BuildingBlock: UKALOJ_clean_sbu_0, # of connection points: 6
#     Node 3, Type 0, BuildingBlock: UKALOJ_clean_sbu_0, # of connection points: 6
#     Edge 4, Type (0, 0), BuildingBlock: ZUJKAS_clean_linker_0, # of connection points: 2
#     Edge 5, Type (0, 0), BuildingBlock: ZUJKAS_clean_linker_0, # of connection points: 2
#     Edge 6, Type (0, 0), BuildingBlock: ZUJKAS_clean_linker_0, # of connection points: 2
#     Edge 7, Type (0, 0), BuildingBlock: ZUJKAS_clean_linker_0, # of connection points: 2
#     Edge 8, Type (0, 0), BuildingBlock: ZUJKAS_clean_linker_0, # of connection points: 2
#     Edge 9, Type (0, 0), BuildingBlock: ZUJKAS_clean_linker_0, # of connection points: 2
#     Edge 10, Type (0, 0), BuildingBlock: ZUJKAS_clean_linker_0, # of connection points: 2
#     Edge 11, Type (0, 0), BuildingBlock: ZUJKAS_clean_linker_0, # of connection points: 2
#     Edge 12, Type (0, 0), BuildingBlock: ZUJKAS_clean_linker_0, # of connection points: 2
#     Edge 13, Type (0, 0), BuildingBlock: ZUJKAS_clean_linker_0, # of connection points: 2
#     Edge 14, Type (0, 0), BuildingBlock: ZUJKAS_clean_linker_0, # of connection points: 2
#     Edge 15, Type (0, 0), BuildingBlock: ZUJKAS_clean_linker_0, # of connection points: 2
# Relax obj value: 0.803
# Max RMSD: 0.249
# Mean RMSD: 0.247
data_MOF--net-snp--node1-UKALOJ_clean_sbu_0--edge1-ZUJKAS_clean_linker_0
_symmetry_space_group_name_H-M    P1
_symmetry_Int_Tables_number       1
_symmetry_cell_setting            triclinic
loop_
_symmetry_equiv_pos_as_xyz
'x, y, z'
_cell_length_a     40.522777
_cell_length_b     40.601806
_cell_length_c     29.249601
_cell_angle_alpha  97.470554
_cell_angle_beta   97.498654
_cell_angle_gamma 90.256031
loop_
_atom_site_label
_atom_site_type_symbol
_atom_site_fract_x
_atom_site_fract_y
_atom_site_fract_z
_atom_type_partial_charge
Zn0 Zn 0.27601 1.00393 0.08785 0.0
O1 O 0.25922 0.97009 0.02513 0.0
C2 C 0.2602 0.05933 0.03053 0.0
Zn3 Zn 0.22389 0.02082 0.08764 0.0
C4 C 0.22815 0.96698 0.0101 0.0
O5 O 0.20752 0.98474 0.03103 0.0
C6 C 0.26955 0.05812 0.16465 0.0
O7 O 0.2155 0.98716 0.13275 0.0
O8 O 0.26516 0.96633 0.13037 0.0
N9 N 0.17693 0.03812 0.09027 0.0
C10 C 0.16352 0.05546 0.12569 0.0
C11 C 0.1297 0.05722 0.06405 0.0
N12 N 0.15564 0.0389 0.05206 0.0
N13 N 0.13414 0.06788 0.11007 0.0
C14 C 0.34824 0.98938 0.06189 0.0
C15 C 0.37016 0.96905 0.122 0.0
N16 N 0.3244 0.988 0.0899 0.0
N17 N 0.33816 0.97526 0.12709 0.0
N18 N 0.37738 0.97783 0.08148 0.0
H19 H 0.35932 0.98759 0.99145 0.0
H20 H 0.34648 0.02738 0.01754 0.0
H21 H 0.31608 0.99437 0.9987 0.0
C22 C 0.3422 1.00013 0.01449 0.0
C23 C 0.17834 0.05984 0.17592 0.0
H24 H 0.19401 0.03851 0.18403 0.0
H25 H 0.1583 0.0622 0.19857 0.0
H26 H 0.19365 0.08309 0.18391 0.0
O27 O 0.24067 0.05652 0.14233 0.0
O28 O 0.29127 0.03785 0.15133 0.0
C29 C 0.23683 0.96611 0.14482 0.0
O30 O 0.28478 0.04214 0.04481 0.0
O31 O 0.23187 0.05456 0.04268 0.0
Zn32 Zn 0.0506 0.22234 0.58501 0.0
O33 O 0.08747 0.21196 0.53773 0.0
C34 C 0.99844 0.19562 0.50639 0.0
Zn35 Zn 0.04394 0.1675 0.57955 0.0
C36 C 0.09501 0.18232 0.5227 0.0
O37 O 0.08023 0.15788 0.53513 0.0
C38 C 0.99899 0.20583 0.64079 0.0
O39 O 0.08058 0.16536 0.63559 0.0
O40 O 0.08894 0.21928 0.64395 0.0
N41 N 0.03208 0.11836 0.57786 0.0
C42 C 0.01816 0.10459 0.61057 0.0
C43 C 1.00326 0.07474 0.54594 0.0
N44 N 0.02332 0.09931 0.53778 0.0
N45 N 0.99937 0.07772 0.59135 0.0
C46 C 0.05717 0.29575 0.56224 0.0
C47 C 0.06742 0.32152 0.63104 0.0
N48 N 0.05936 0.27269 0.59181 0.0
N49 N 0.06595 0.28884 0.63443 0.0
N50 N 0.06205 0.32658 0.58615 0.0
H51 H 0.05792 0.30696 0.49221 0.0
H52 H 0.01985 0.28851 0.50311 0.0
H53 H 0.05583 0.26309 0.49789 0.0
C54 C 0.04738 0.28813 0.51079 0.0
C55 C 0.02124 0.1178 0.66146 0.0
H56 H 0.04276 0.13505 0.67242 0.0
H57 H 0.02393 0.09672 0.68223 0.0
H58 H 0.99824 0.13069 0.66957 0.0
O59 O 1.00723 0.17769 0.6226 0.0
O60 O 0.01382 0.23163 0.63264 0.0
C61 C 0.09624 0.1911 0.65684 0.0
O62 O 0.01188 0.2234 0.52542 0.0
O63 O 1.00788 0.1693 0.52273 0.0
Zn64 Zn 0.87571 0.99973 1.00017 0.0
O65 O 0.87685 0.97003 0.93708 0.0
C66 C 0.8417 0.05168 0.94767 0.0
Zn67 Zn 0.82074 0.99569 0.99246 0.0
C68 C 0.85099 0.95476 0.91524 0.0
O69 O 0.82318 0.95973 0.93078 0.0
C70 C 0.84882 0.04005 0.0788 0.0
O71 O 0.82777 0.95576 0.03556 0.0
O72 O 0.88199 0.95762 0.03431 0.0
N73 N 0.76962 0.99015 0.98324 0.0
C74 C 0.74603 0.98647 0.011 0.0
C75 C 0.72091 0.9917 0.94372 0.0
N76 N 0.75381 0.99315 0.94148 0.0
N77 N 0.7152 0.98749 0.98693 0.0
C78 C 0.94118 0.02858 0.98097 0.0
C79 C 0.9702 0.03138 0.0472 0.0
N80 N 0.92576 0.00923 1.00629 0.0
N81 N 0.94433 0.01042 0.04719 0.0
N82 N 0.96857 0.04354 1.0062 0.0
H83 H 0.9114 0.01405 0.91405 0.0
H84 H 0.95159 0.03283 0.91198 0.0
H85 H 0.91871 0.05824 0.92976 0.0
C86 C 0.92976 0.03345 0.93137 0.0
C87 C 0.75322 0.98367 0.06184 0.0
H88 H 0.74907 0.9575 0.06721 0.0
H89 H 0.73603 0.99937 0.08139 0.0
H90 H 0.77937 0.99087 0.07558 0.0
O91 O 0.82053 0.03221 0.05498 0.0
O92 O 0.87492 0.02863 0.06366 0.0
C93 C 0.85666 0.94437 0.04681 0.0
O94 O 0.86881 0.04236 0.96784 0.0
O95 O 0.81514 0.03536 0.94902 0.0
Zn96 Zn 0.00844 0.81597 0.49181 0.0
O97 O 0.04593 0.83013 0.45535 0.0
C98 C 0.97641 0.77285 0.40824 0.0
Zn99 Zn 0.02548 0.7638 0.49106 0.0
C100 C 0.06648 0.80838 0.44252 0.0
O101 O 0.06369 0.77888 0.45243 0.0
C102 C 0.96728 0.77381 0.54125 0.0
O103 O 0.05771 0.77901 0.55571 0.0
O104 O 0.03967 0.82997 0.55468 0.0
N105 N 0.04339 0.71633 0.48582 0.0
C106 C 0.04299 0.69166 0.51258 0.0
C107 C 0.06355 0.67213 0.45152 0.0
N108 N 0.05629 0.70411 0.44804 0.0
N109 N 0.05528 0.66348 0.49157 0.0
C110 C 0.95521 0.86948 0.48602 0.0
C111 C 0.98095 0.91319 0.52144 0.0
N112 N 0.98761 0.86185 0.49545 0.0
N113 N 1.0036 0.88911 0.51724 0.0
N114 N 0.95041 0.90139 0.50232 0.0
H115 H 0.90354 0.85726 0.45687 0.0
H116 H 0.92835 0.8223 0.4708 0.0
H117 H 0.93393 0.84257 0.42113 0.0
C118 C 0.92867 0.84662 0.45767 0.0
C119 C 0.0324 0.69596 0.56016 0.0
H120 H 0.03707 0.72192 0.57701 0.0
H121 H 0.04596 0.67886 0.5823 0.0
H122 H 1.00532 0.69039 0.55717 0.0
O123 O 0.98694 0.75057 0.53059 0.0
O124 O 0.97136 0.802 0.52863 0.0
C125 C 0.05831 0.80932 0.57421 0.0
O126 O 0.9789 0.80204 0.42947 0.0
O127 O 0.99314 0.7499 0.42547 0.0
H128 H 0.03234 0.06331 0.01196 0.0
H129 H 0.05297 0.12046 0.02969 0.0
H130 H 0.95204 0.15536 0.01487 0.0
H131 H 0.93169 0.09785 0.9975 0.0
H132 H 0.97946 0.17349 0.09992 0.0
H133 H 0.07365 0.21157 1.00198 0.0
H134 H 0.03743 0.18709 0.97344 0.0
H135 H 0.07549 0.1672 0.99351 0.0
C136 C 0.01481 0.0833 0.01011 0.0
C137 C 0.98064 0.07629 1.0028 0.0
C138 C 0.02646 0.11617 0.01977 0.0
C139 C 1.00403 0.14265 0.02327 0.0
C140 C 0.96984 0.13564 0.01169 0.0
H141 H 0.16075 0.12769 0.14797 0.0
H142 H 0.12935 0.17876 0.15985 0.0
C143 C 0.95825 0.10271 1.00162 0.0
C144 C 0.01596 0.17431 0.05217 0.0
H145 H 0.09722 0.19491 0.08434 0.0
C146 C 1.0049 0.17986 0.09617 0.0
C147 C 0.04776 0.18706 0.04822 0.0
C148 C 0.05895 0.18833 1.00141 0.0
C149 C 0.02852 0.18486 0.13621 0.0
C150 C 0.06245 0.1827 0.13008 0.0
C151 C 0.0712 0.19195 0.08842 0.0
C152 C 0.0811 0.15383 0.14588 0.0
C153 C 0.01763 0.18316 0.18308 0.0
C154 C 0.0647 0.1224 0.13743 0.0
C155 C 0.08258 0.09348 0.12969 0.0
C156 C 0.11713 0.09523 0.13177 0.0
C157 C 0.13398 0.12587 0.14667 0.0
C158 C 0.11605 0.15506 0.15366 0.0
H159 H 0.03857 0.18927 0.21155 0.0
H160 H 0.99707 0.20067 0.18838 0.0
H161 H 1.00782 0.15781 0.18461 0.0
H162 H 0.03783 0.12014 0.1305 0.0
H163 H 0.06929 0.07006 0.11807 0.0
H164 H 0.89758 0.87757 0.53657 0.0
H165 H 0.84977 0.90911 0.55919 0.0
H166 H 0.88913 0.99498 0.50899 0.0
H167 H 0.93516 0.96277 0.48444 0.0
H168 H 0.85271 0.95139 0.62572 0.0
H169 H 0.79983 0.03031 0.50691 0.0
H170 H 0.81021 0.98834 0.48509 0.0
H171 H 0.83826 0.02304 0.4839 0.0
C172 C 0.89478 0.9027 0.5282 0.0
C173 C 0.91968 0.91782 0.50819 0.0
C174 C 0.86743 0.92077 0.54119 0.0
C175 C 0.86501 0.95461 0.53574 0.0
C176 C 0.88906 0.96883 0.51275 0.0
H177 H 0.98313 0.01516 0.60144 0.0
H178 H 0.92912 0.99555 0.61674 0.0
C179 C 0.91603 0.95065 0.49933 0.0
C180 C 0.84471 0.97701 0.56509 0.0
H181 H 0.85424 0.05962 0.56633 0.0
C182 C 0.85177 0.97527 0.61308 0.0
C183 C 0.83721 0.00869 0.55205 0.0
C184 C 0.82039 0.01247 0.50411 0.0
C185 C 0.86707 1.0028 0.64215 0.0
C186 C 0.8732 0.03151 0.6218 0.0
C187 C 0.85279 0.03638 0.58058 0.0
C188 C 0.9078 0.0447 0.62658 0.0
C189 C 0.88269 0.9988 0.69061 0.0
C190 C 0.9141 0.07867 0.62686 0.0
C191 C 0.94495 0.08956 0.61754 0.0
C192 C 0.96999 0.06675 0.60793 0.0
C193 C 0.96432 0.03305 0.60959 0.0
C194 C 0.93356 0.02209 0.61906 0.0
H195 H 0.86465 0.98653 0.70881 0.0
H196 H 0.90453 0.98249 0.68883 0.0
H197 H 0.89089 0.02314 0.71098 0.0
H198 H 0.89451 0.09643 0.63121 0.0
H199 H 0.94863 0.11558 0.61486 0.0
H200 H 0.66602 0.02931 0.96681 0.0
H201 H 0.60892 0.02699 0.98509 0.0
H202 H 0.63294 0.94208 0.05681 0.0
H203 H 0.69041 0.94481 0.03899 0.0
H204 H 0.56374 0.97784 0.95711 0.0
H205 H 0.58459 0.99828 0.15004 0.0
H206 H 0.61672 1.00598 0.1152 0.0
H207 H 0.60741 0.9643 0.12498 0.0
C208 C 0.65919 0.0105 0.98714 0.0
C209 C 0.68276 0.9876 1.00215 0.0
C210 C 0.62656 0.00912 0.99748 0.0
C211 C 0.61657 0.98462 0.02284 0.0
C212 C 0.64017 0.96177 0.03826 0.0
H213 H 0.42291 0.93071 0.09416 0.0
H214 H 0.48077 0.93138 0.07809 0.0
C215 C 0.67305 0.96336 0.0282 0.0
C216 C 0.58104 0.98213 0.03054 0.0
H217 H 0.52969 0.98268 0.11459 0.0
C218 C 0.55634 0.97902 0.9916 0.0
C219 C 0.57126 0.98363 0.07551 0.0
C220 C 0.59633 0.98854 0.11887 0.0
C221 C 0.52232 0.97716 0.99633 0.0
C222 C 0.5126 0.97867 0.04122 0.0
C223 C 0.53721 0.98147 0.08017 0.0
C224 C 0.477 0.97757 0.04857 0.0
C225 C 0.49703 0.9731 0.9532 0.0
C226 C 0.45561 1.0033 0.03729 0.0
C227 C 0.42253 1.00299 0.04656 0.0
C228 C 0.41014 0.97679 0.06698 0.0
C229 C 0.43163 0.95099 0.0779 0.0
C230 C 0.46469 0.95139 0.06886 0.0
H231 H 0.50863 0.96487 0.92136 0.0
H232 H 0.47719 0.95482 0.9561 0.0
H233 H 0.48515 0.9973 0.9491 0.0
H234 H 0.46478 0.02415 0.0226 0.0
H235 H 0.40718 0.02393 0.03954 0.0
H236 H 0.09857 0.3526 0.52803 0.0
H237 H 0.09756 0.41039 0.51068 0.0
H238 H 0.01722 0.43047 0.59299 0.0
H239 H 0.01888 0.37312 0.61093 0.0
H240 H 0.04966 0.44882 0.46959 0.0
H241 H 0.08529 0.50086 0.65432 0.0
H242 H 0.08737 0.45711 0.63407 0.0
H243 H 0.04828 0.4752 0.64536 0.0
C244 C 0.08037 0.36934 0.54152 0.0
C245 C 0.05862 0.35862 0.57044 0.0
C246 C 0.07991 0.40231 0.53195 0.0
C247 C 0.05781 0.425 0.5514 0.0
C248 C 0.03509 0.41374 0.5786 0.0
H249 H 0.01016 0.63133 0.5324 0.0
H250 H 0.01194 0.57353 0.54804 0.0
C251 C 0.03578 0.38098 0.58846 0.0
C252 C 0.05881 0.46056 0.54413 0.0
H253 H 0.0676 0.53957 0.60201 0.0
C254 C 0.05381 0.46864 0.49852 0.0
C255 C 0.06438 0.48648 0.58193 0.0
C256 C 0.07197 0.47953 0.63163 0.0
C257 C 0.05342 0.50189 0.48978 0.0
C258 C 0.05838 0.52769 0.5276 0.0
C259 C 0.0636 0.51969 0.57314 0.0
C260 C 0.05834 0.56319 0.52048 0.0
C261 C 0.04709 0.50932 0.44022 0.0
C262 C 0.08421 0.57669 0.50077 0.0
C263 C 0.0836 0.60991 0.49274 0.0
C264 C 0.05722 0.63036 0.50449 0.0
C265 C 0.03149 0.61678 0.52467 0.0
C266 C 0.03223 0.58358 0.533 0.0
H267 H 0.03789 0.48702 0.41559 0.0
H268 H 0.02861 0.52928 0.437 0.0
H269 H 0.07062 0.51821 0.42988 0.0
H270 H 0.10473 0.56143 0.49123 0.0
H271 H 0.10359 0.61963 0.47683 0.0
H272 H 0.1235 0.22634 0.47447 0.0
H273 H 0.16389 0.21406 0.41904 0.0
H274 H 0.16477 0.11168 0.44366 0.0
H275 H 0.12448 0.1235 0.49853 0.0
H276 H 0.23168 0.14686 0.44308 0.0
H277 H 0.13698 0.15321 0.28819 0.0
H278 H 0.13925 0.18653 0.33569 0.0
H279 H 0.12538 0.14593 0.34365 0.0
C280 C 0.13246 0.20127 0.46828 0.0
C281 C 0.12058 0.17587 0.49075 0.0
C282 C 0.15549 0.1943 0.4366 0.0
C283 C 0.16721 0.16194 0.42722 0.0
C284 C 0.15606 0.13681 0.45047 0.0
H285 H 0.28088 0.03931 0.25056 0.0
H286 H 0.26202 0.06999 0.31961 0.0
C287 C 0.13289 0.14364 0.48169 0.0
C288 C 0.18996 0.15356 0.39175 0.0
H289 H 0.19058 0.1373 0.27452 0.0
C290 C 0.22292 0.14516 0.40617 0.0
C291 C 0.17844 0.15139 0.34373 0.0
C292 C 0.14307 0.15955 0.3265 0.0
C293 C 0.2446 0.13424 0.3737 0.0
C294 C 0.2327 0.13082 0.32556 0.0
C295 C 0.19992 0.14009 0.31133 0.0
C296 C 0.25248 0.11545 0.28909 0.0
C297 C 0.27999 0.12654 0.39137 0.0
C298 C 0.25469 0.13097 0.24933 0.0
C299 C 0.26522 0.11327 0.20975 0.0
C300 C 0.27418 0.07988 0.20936 0.0
C301 C 0.27526 0.06538 0.25053 0.0
C302 C 0.2642 0.08293 0.28999 0.0
H303 H 0.2884 0.14138 0.42561 0.0
H304 H 0.2814 0.0999 0.39621 0.0
H305 H 0.29734 0.13153 0.36655 0.0
H306 H 0.24575 0.15594 0.24761 0.0
H307 H 0.26331 0.12467 0.17803 0.0
H308 H 0.93915 0.17469 0.62233 0.0
H309 H 0.90379 0.16114 0.679 0.0
H310 H 0.96595 0.22371 0.78739 0.0
H311 H 1.002 0.23672 0.73029 0.0
H312 H 0.96 0.15972 0.80584 0.0
H313 H 0.83429 0.20522 0.75232 0.0
H314 H 0.85118 0.18157 0.70495 0.0
H315 H 0.87107 0.22025 0.732 0.0
C316 C 0.94457 0.18643 0.658 0.0
C317 C 0.97314 0.20681 0.67201 0.0
C318 C 0.92422 0.17883 0.69036 0.0
C319 C 0.93191 0.19164 0.7375 0.0
C320 C 0.95934 0.21378 0.75112 0.0
H321 H 0.87071 0.11187 0.97747 0.0
H322 H 0.88911 0.15106 0.92867 0.0
C323 C 0.97974 0.22148 0.7185 0.0
C324 C 0.91437 0.1779 0.77277 0.0
H325 H 0.83715 0.16122 0.80068 0.0
C326 C 0.93321 0.16064 0.80534 0.0
C327 C 0.87934 0.17861 0.77163 0.0
C328 C 0.85783 0.19769 0.7386 0.0
C329 C 0.91799 0.14302 0.83549 0.0
C330 C 0.88287 0.14325 0.83385 0.0
C331 C 0.86402 0.16108 0.80197 0.0
C332 C 0.86558 0.12395 0.86393 0.0
C333 C 0.93963 0.12301 0.86731 0.0
C334 C 0.84404 0.09711 0.84414 0.0
C335 C 0.83282 0.07505 0.87225 0.0
C336 C 0.84315 0.07959 0.92039 0.0
C337 C 0.86233 0.10798 0.94041 0.0
C338 C 0.87315 0.13016 0.91251 0.0
H339 H 0.96467 0.11892 0.85627 0.0
H340 H 0.94309 0.13658 0.90311 0.0
H341 H 0.92783 0.09843 0.86836 0.0
H342 H 0.83777 0.09193 0.80672 0.0
H343 H 0.81856 0.05302 0.85597 0.0
H344 H 0.90954 0.77542 0.39042 0.0
H345 H 0.87883 0.79108 0.31904 0.0
H346 H 0.96824 0.78131 0.25329 0.0
H347 H 0.9985 0.76456 0.32423 0.0
H348 H 0.89484 0.84738 0.2923 0.0
H349 H 0.90078 0.7497 0.14367 0.0
H350 H 0.90949 0.74154 0.20325 0.0
H351 H 0.94123 0.75937 0.17561 0.0
C352 C 0.92201 0.77462 0.3597 0.0
C353 C 0.95612 0.76799 0.36232 0.0
C354 C 0.90458 0.784 0.31908 0.0
C355 C 0.92107 0.78735 0.28047 0.0
C356 C 0.9546 0.77815 0.28193 0.0
H357 H 0.91331 0.90992 0.0658 0.0
H358 H 0.92373 0.86887 0.11959 0.0
C359 C 0.97193 0.76837 0.32248 0.0
C360 C 0.90525 0.80588 0.24279 0.0
H361 H 0.89245 0.80574 0.12485 0.0
C362 C 0.89363 0.8379 0.25568 0.0
C363 C 0.90386 0.79378 0.19492 0.0
C364 C 0.91421 0.75907 0.17856 0.0
C365 C 0.88221 0.85864 0.22235 0.0
C366 C 0.88199 0.847 0.17459 0.0
C367 C 0.89259 0.81463 0.16149 0.0
C368 C 0.87385 0.86928 0.13832 0.0
C369 C 0.87212 0.89351 0.23862 0.0
C370 C 0.84201 0.88266 0.13004 0.0
C371 C 0.83588 0.90631 0.0991 0.0
C372 C 0.86155 0.917 0.07604 0.0
C373 C 0.89299 0.9025 0.08317 0.0
C374 C 0.89901 0.87886 0.1138 0.0
H375 H 0.87913 0.90051 0.27667 0.0
H376 H 0.88385 0.91174 0.22015 0.0
H377 H 0.84471 0.8954 0.23069 0.0
H378 H 0.82211 0.87534 0.14823 0.0
H379 H 0.81138 0.91689 0.09433 0.0
H380 H 0.08342 0.8718 0.6016 0.0
H381 H 0.11747 0.89344 0.67424 0.0
H382 H 0.11629 0.79643 0.71938 0.0
H383 H 0.08335 0.7742 0.64511 0.0
H384 H 0.10145 0.89963 0.75626 0.0
H385 H 0.21224 0.82031 0.75749 0.0
H386 H 0.18195 0.82038 0.70651 0.0
H387 H 0.17415 0.79662 0.752 0.0
C388 C 0.09075 0.85491 0.62672 0.0
C389 C 0.08064 0.82128 0.61763 0.0
C390 C 0.11028 0.86735 0.66836 0.0
C391 C 0.11987 0.84665 0.7025 0.0
C392 C 0.11008 0.81285 0.69334 0.0
H393 H 0.16771 0.93567 0.99048 0.0
H394 H 0.14333 0.90361 0.91738 0.0
C395 C 0.091 0.80017 0.651 0.0
C396 C 0.13784 0.86146 0.74858 0.0
H397 H 0.20633 0.85474 0.82857 0.0
C398 C 0.12448 0.88979 0.77179 0.0
C399 C 0.16818 0.84909 0.76895 0.0
C400 C 0.18518 0.82014 0.74475 0.0
C401 C 0.14034 0.906 0.81434 0.0
C402 C 0.16983 0.89278 0.83581 0.0
C403 C 0.1835 0.86463 0.81256 0.0
C404 C 0.18661 0.90814 0.88222 0.0
C405 C 0.12565 0.93774 0.8351 0.0
C406 C 0.21997 0.91946 0.88813 0.0
C407 C 0.23436 0.93717 0.93061 0.0
C408 C 0.21546 0.9441 0.96763 0.0
C409 C 0.18274 0.93119 0.96235 0.0
C410 C 0.16868 0.91302 0.92042 0.0
H411 H 0.11011 0.94985 0.80812 0.0
H412 H 0.10939 0.93195 0.86085 0.0
H413 H 0.14539 0.95574 0.85295 0.0
H414 H 0.23446 0.91577 0.85934 0.0
H415 H 0.25963 0.94683 0.93369 0.0
H416 H 0.90657 0.94359 0.87323 0.0
H417 H 0.91432 0.90334 0.80668 0.0
H418 H 0.81184 0.87066 0.79471 0.0
H419 H 0.80373 0.91114 0.86261 0.0
H420 H 0.8633 0.81746 0.7882 0.0
H421 H 0.8762 0.9125 0.67088 0.0
H422 H 0.8986 0.92171 0.72819 0.0
H423 H 0.85386 0.92024 0.72072 0.0
C424 C 0.88548 0.92802 0.85661 0.0
C425 C 0.8544 0.9308 0.87326 0.0
C426 C 0.89002 0.90499 0.8184 0.0
C427 C 0.86362 0.88424 0.79547 0.0
C428 C 0.83252 0.88657 0.81192 0.0
H429 H 0.90228 0.7887 0.52696 0.0
H430 H 0.86862 0.80777 0.58823 0.0
C431 C 0.82788 0.9098 0.85048 0.0
C432 C 0.86916 0.86064 0.75411 0.0
H433 H 0.89489 0.85898 0.64744 0.0
C434 C 0.86961 0.82636 0.75698 0.0
C435 C 0.87729 0.87229 0.71341 0.0
C436 C 0.87624 0.90868 0.70775 0.0
C437 C 0.87952 0.8036 0.72092 0.0
C438 C 0.88936 0.81554 0.68128 0.0
C439 C 0.88736 0.84968 0.67773 0.0
C440 C 0.9041 0.79412 0.64421 0.0
C441 C 0.87978 0.76711 0.72585 0.0
C442 C 0.93429 0.77801 0.65481 0.0
C443 C 0.95328 0.76637 0.61946 0.0
C444 C 0.94251 0.77121 0.57326 0.0
C445 C 0.91087 0.78425 0.56225 0.0
C446 C 0.89175 0.79542 0.59734 0.0
H447 H 0.86187 0.76093 0.74933 0.0
H448 H 0.87359 0.75162 0.69157 0.0
H449 H 0.90501 0.76058 0.74123 0.0
H450 H 0.94475 0.77728 0.69066 0.0
H451 H 0.97797 0.7572 0.62893 0.0
H452 H 0.17587 0.95596 0.1698 0.0
H453 H 0.15985 0.91805 0.22109 0.0
H454 H 0.26033 0.88298 0.24055 0.0
H455 H 0.27695 0.92141 0.18849 0.0
H456 H 0.16739 0.84549 0.21228 0.0
H457 H 0.23444 0.91527 0.375 0.0
H458 H 0.22487 0.93475 0.3229 0.0
H459 H 0.25642 0.90402 0.32568 0.0
C460 C 0.19474 0.94023 0.18473 0.0
C461 C 0.2278 0.94187 0.17514 0.0
C462 C 0.18543 0.91843 0.21397 0.0
C463 C 0.20887 0.89781 0.23467 0.0
C464 C 0.24191 0.89888 0.225 0.0
H465 H 0.11073 0.76744 0.40022 0.0
H466 H 0.15211 0.78312 0.35211 0.0
C467 C 0.25132 0.92074 0.19525 0.0
C468 C 0.19794 0.87627 0.26727 0.0
H469 H 0.19385 0.87578 0.383 0.0
C470 C 0.17382 0.85133 0.24966 0.0
C471 C 0.20629 0.88424 0.3159 0.0
C472 C 0.23185 0.91105 0.33639 0.0
C473 C 0.15613 0.83574 0.27939 0.0
C474 C 0.16301 0.84523 0.328 0.0
C475 C 0.18873 0.86854 0.3457 0.0
C476 C 0.14044 0.83534 0.3601 0.0
C477 C 0.12846 0.81118 0.25851 0.0
C478 C 0.12078 0.85957 0.38132 0.0
C479 C 0.09723 0.85077 0.4086 0.0
C480 C 0.0929 0.81747 0.41552 0.0
C481 C 0.11335 0.79328 0.39541 0.0
C482 C 0.13694 0.80216 0.36785 0.0
H483 H 0.1239 0.80938 0.21997 0.0
H484 H 0.13504 0.78621 0.26793 0.0
H485 H 0.105 0.81836 0.27263 0.0
H486 H 0.12304 0.88531 0.37572 0.0
H487 H 0.0821 0.8701 0.42375 0.0
H488 H 0.12932 0.135 0.67251 0.0
H489 H 0.16897 0.1258 0.73947 0.0
H490 H 0.16257 0.22841 0.79733 0.0
H491 H 0.12267 0.23809 0.72943 0.0
H492 H 0.23415 0.16474 0.78307 0.0
H493 H 0.13108 0.16496 0.8923 0.0
H494 H 0.12303 0.15701 0.82963 0.0
H495 H 0.13452 0.19811 0.85764 0.0
C496 C 0.13652 0.15581 0.69915 0.0
C497 C 0.12261 0.18726 0.69585 0.0
C498 C 0.15938 0.1505 0.73728 0.0
C499 C 0.16864 0.17636 0.7733 0.0
C500 C 0.15571 0.20814 0.76972 0.0
H501 H 0.24771 0.12477 0.04463 0.0
H502 H 0.23341 0.16058 0.9842 0.0
C503 C 0.13298 0.21364 0.73101 0.0
C504 C 0.18954 0.16866 0.81592 0.0
H505 H 0.18273 0.14628 0.92266 0.0
C506 C 0.22321 0.16132 0.81409 0.0
C507 C 0.17515 0.1642 0.85617 0.0
C508 C 0.13895 0.17133 0.85946 0.0
C509 C 0.24267 0.14874 0.85115 0.0
C510 C 0.22773 0.14238 0.89038 0.0
C511 C 0.19438 0.15113 0.8928 0.0
C512 C 0.24482 0.12429 0.9277 0.0
C513 C 0.27891 0.14222 0.8476 0.0
C514 C 0.25776 0.09252 0.91665 0.0
C515 C 0.26692 0.07241 0.95153 0.0
C516 C 0.26264 0.08352 0.99777 0.0
C517 C 0.2518 0.11596 0.00925 0.0
C518 C 0.24333 0.13628 0.97465 0.0
H519 H 0.28919 0.15947 0.82622 0.0
H520 H 0.29406 0.14488 0.8824 0.0
H521 H 0.28137 0.11655 0.83019 0.0
H522 H 0.25834 0.08217 0.88075 0.0
H523 H 0.2743 0.04711 0.94175 0.0
H524 H 0.89691 0.03629 0.15035 0.0
H525 H 0.91111 0.0758 0.22005 0.0
H526 H 0.8262 0.13417 0.17947 0.0
H527 H 0.81136 0.09374 0.10884 0.0
H528 H 0.92713 0.14267 0.21931 0.0
H529 H 0.82093 0.12752 0.31862 0.0
H530 H 0.82947 0.09677 0.27148 0.0
H531 H 0.8119 0.13564 0.25925 0.0
C532 C 0.88086 0.05725 0.15642 0.0
C533 C 0.85303 0.06193 0.12399 0.0
C534 C 0.88912 0.07993 0.1963 0.0
C535 C 0.86994 0.10812 0.20501 0.0
C536 C 0.84127 0.11245 0.17369 0.0
H537 H 0.98356 0.23934 0.44148 0.0
H538 H 0.94678 0.22782 0.36688 0.0
C539 C 0.83273 0.08934 0.13347 0.0
C540 C 0.88164 0.13293 0.2462 0.0
H541 H 0.86703 0.15942 0.3573 0.0
C542 C 0.91374 0.147 0.24925 0.0
C543 C 0.86409 0.13858 0.2851 0.0
C544 C 0.82973 0.12382 0.28393 0.0
C545 C 0.92984 0.16419 0.29111 0.0
C546 C 0.91302 0.16826 0.33094 0.0
C547 C 0.87991 0.15641 0.32681 0.0
C548 C 0.93117 0.17878 0.37844 0.0
C549 C 0.96565 0.17539 0.29315 0.0
C550 C 0.9333 0.156 0.41077 0.0
C551 C 0.95381 0.16263 0.45313 0.0
C552 C 0.97291 0.1923 0.46457 0.0
C553 C 0.96929 0.21622 0.43362 0.0
C554 C 0.9485 0.2095 0.39082 0.0
H555 H 0.97653 0.1655 0.26132 0.0
H556 H 0.96707 0.20291 0.29671 0.0
H557 H 0.98115 0.16726 0.32368 0.0
H558 H 0.92022 0.1322 0.40236 0.0
H559 H 0.95558 0.14377 0.47631 0.0
loop_
_geom_bond_atom_site_label_1
_geom_bond_atom_site_label_2
_geom_bond_distance
_geom_bond_site_symmetry_2
_ccdc_geom_bond_type
Zn0 O1 2.047 1_545 S
Zn0 O8 2.034 1_545 S
Zn0 N16 2.037 . S
Zn0 O28 2.062 . S
Zn0 O30 2.078 . S
O1 Zn0 2.047 1_565 S
O1 C4 1.259 1_554 S
C2 O30 1.256 . S
C2 O31 1.244 . S
Zn3 O5 2.031 1_545 S
Zn3 O7 2.038 1_545 S
Zn3 N9 2.039 . S
Zn3 O27 2.081 . S
Zn3 O31 2.070 . S
C4 O1 1.259 1_556 S
C4 O5 1.254 1_556 S
O5 Zn3 2.031 1_565 S
O5 C4 1.254 1_554 S
C6 O27 1.256 . S
C6 O28 1.244 . S
O7 Zn3 2.038 1_565 S
O7 C29 1.259 . S
O8 Zn0 2.034 1_565 S
O8 C29 1.254 . S
N9 Zn3 2.039 . S
N9 C10 1.298 . S
N9 N12 1.398 . S
C10 N9 1.298 . S
C10 N13 1.367 . S
C10 C23 1.481 1_545 S
C11 N12 1.299 . S
C11 N13 1.379 . S
N12 N9 1.398 . S
N12 C11 1.299 . S
N13 C10 1.367 . S
N13 C11 1.379 . S
C14 N16 1.298 . S
C14 N18 1.367 . S
C14 C22 1.476 1_544 S
C15 N17 1.299 . S
C15 N18 1.379 . S
N16 Zn0 2.037 . S
N16 C14 1.298 . S
N16 N17 1.398 . S
N17 C15 1.299 . S
N17 N16 1.398 . S
N18 C14 1.367 . S
N18 C15 1.379 . S
H19 C22 0.980 . S
H20 C22 0.982 . S
H21 C22 0.985 1_545 S
C22 C14 1.476 1_566 S
C22 H19 0.980 . S
C22 H20 0.982 . S
C22 H21 0.985 1_565 S
C23 C10 1.481 1_565 S
C23 H24 0.980 . S
C23 H25 0.981 . S
C23 H26 0.981 1_565 S
H24 C23 0.980 . S
H25 C23 0.981 . S
H26 C23 0.981 1_545 S
O27 Zn3 2.081 . S
O27 C6 1.256 . S
O28 Zn0 2.062 . S
O28 C6 1.244 . S
C29 O7 1.259 . S
C29 O8 1.254 . S
O30 Zn0 2.078 . S
O30 C2 1.256 . S
O31 C2 1.244 . S
O31 Zn3 2.070 . S
Zn32 O33 2.055 . S
Zn32 O40 2.046 . S
Zn32 N48 2.036 . S
Zn32 O60 2.053 1_455 S
Zn32 O62 2.066 1_455 S
O33 Zn32 2.055 . S
O33 C36 1.259 . S
C34 O62 1.256 . S
C34 O63 1.244 . S
Zn35 O37 2.046 . S
Zn35 O39 2.055 . S
Zn35 N41 2.036 . S
Zn35 O59 2.066 1_455 S
Zn35 O63 2.053 1_455 S
C36 O33 1.259 . S
C36 O37 1.254 . S
O37 Zn35 2.046 . S
O37 C36 1.254 . S
C38 O59 1.256 . S
C38 O60 1.244 . S
O39 Zn35 2.055 . S
O39 C61 1.259 . S
O40 Zn32 2.046 . S
O40 C61 1.254 . S
N41 Zn35 2.036 . S
N41 C42 1.298 . S
N41 N44 1.398 . S
C42 N41 1.298 . S
C42 N45 1.367 . S
C42 C55 1.481 . S
C43 N44 1.299 . S
C43 N45 1.379 . S
N44 N41 1.398 . S
N44 C43 1.299 . S
N45 C42 1.367 . S
N45 C43 1.379 . S
C46 N48 1.298 . S
C46 N50 1.367 . S
C46 C54 1.481 . S
C47 N49 1.299 . S
C47 N50 1.379 . S
N48 Zn32 2.036 . S
N48 C46 1.298 . S
N48 N49 1.398 . S
N49 C47 1.299 . S
N49 N48 1.398 . S
N50 C46 1.367 . S
N50 C47 1.379 . S
H51 C54 0.980 . S
H52 C54 0.981 . S
H53 C54 0.981 . S
C54 C46 1.481 . S
C54 H51 0.980 . S
C54 H52 0.981 . S
C54 H53 0.981 . S
C55 C42 1.481 . S
C55 H56 0.980 . S
C55 H57 0.981 . S
C55 H58 0.981 . S
H56 C55 0.980 . S
H57 C55 0.981 . S
H58 C55 0.981 . S
O59 Zn35 2.066 1_655 S
O59 C38 1.256 . S
O60 Zn32 2.053 1_655 S
O60 C38 1.244 . S
C61 O39 1.259 . S
C61 O40 1.254 . S
O62 Zn32 2.066 1_655 S
O62 C34 1.256 . S
O63 C34 1.244 . S
O63 Zn35 2.053 1_655 S
Zn64 O65 2.055 1_554 S
Zn64 O72 2.046 . S
Zn64 N80 2.039 . S
Zn64 O92 2.053 1_565 S
Zn64 O94 2.066 1_564 S
O65 Zn64 2.055 1_556 S
O65 C68 1.259 . S
C66 O94 1.256 . S
C66 O95 1.244 . S
Zn67 O69 2.046 1_554 S
Zn67 O71 2.055 . S
Zn67 N73 2.036 1_554 S
Zn67 O91 2.066 1_565 S
Zn67 O95 2.053 1_564 S
C68 O65 1.259 . S
C68 O69 1.254 . S
O69 Zn67 2.046 1_556 S
O69 C68 1.254 . S
C70 O91 1.256 . S
C70 O92 1.244 . S
O71 Zn67 2.055 . S
O71 C93 1.259 . S
O72 Zn64 2.046 . S
O72 C93 1.254 . S
N73 Zn67 2.036 1_556 S
N73 C74 1.298 1_556 S
N73 N76 1.398 1_565 S
C74 N73 1.298 1_554 S
C74 N77 1.367 1_565 S
C74 C87 1.481 . S
C75 N76 1.299 . S
C75 N77 1.379 1_556 S
N76 N73 1.398 1_545 S
N76 C75 1.299 . S
N77 C74 1.367 1_545 S
N77 C75 1.379 1_554 S
C78 N80 1.316 . S
C78 N82 1.375 1_565 S
C78 C86 1.459 1_554 S
C79 N81 1.299 . S
C79 N82 1.379 . S
N80 Zn64 2.039 . S
N80 C78 1.316 . S
N80 N81 1.387 1_565 S
N81 C79 1.299 . S
N81 N80 1.387 1_545 S
N82 C78 1.375 1_545 S
N82 C79 1.379 . S
H83 C86 0.980 . S
H84 C86 0.981 . S
H85 C86 0.973 1_545 S
C86 C78 1.459 1_556 S
C86 H83 0.980 . S
C86 H84 0.981 . S
C86 H85 0.973 1_565 S
C87 C74 1.481 . S
C87 H88 0.980 . S
C87 H89 0.981 . S
C87 H90 0.992 . S
H88 C87 0.980 . S
H89 C87 0.981 . S
H90 C87 0.992 . S
O91 Zn67 2.066 1_545 S
O91 C70 1.256 . S
O92 Zn64 2.053 1_545 S
O92 C70 1.244 . S
C93 O71 1.259 . S
C93 O72 1.254 . S
O94 Zn64 2.066 1_546 S
O94 C66 1.256 . S
O95 C66 1.244 . S
O95 Zn67 2.053 1_546 S
Zn96 O97 2.055 . S
Zn96 O104 2.046 . S
Zn96 N112 2.036 . S
Zn96 O124 2.053 1_455 S
Zn96 O126 2.066 1_455 S
O97 Zn96 2.055 . S
O97 C100 1.259 . S
C98 O126 1.256 . S
C98 O127 1.244 . S
Zn99 O101 2.046 . S
Zn99 O103 2.055 . S
Zn99 N105 2.036 . S
Zn99 O123 2.066 1_455 S
Zn99 O127 2.053 1_455 S
C100 O97 1.259 . S
C100 O101 1.254 . S
O101 Zn99 2.046 . S
O101 C100 1.254 . S
C102 O123 1.256 . S
C102 O124 1.244 . S
O103 Zn99 2.055 . S
O103 C125 1.259 . S
O104 Zn96 2.046 . S
O104 C125 1.254 . S
N105 Zn99 2.036 . S
N105 C106 1.298 . S
N105 N108 1.398 . S
C106 N105 1.298 . S
C106 N109 1.367 . S
C106 C119 1.481 . S
C107 N108 1.299 1_655 S
C107 N109 1.379 1_655 S
N108 N105 1.398 . S
N108 C107 1.299 1_455 S
N109 C106 1.367 . S
N109 C107 1.379 1_455 S
C110 N112 1.298 . S
C110 N114 1.367 . S
C110 C118 1.481 . S
C111 N113 1.299 1_655 S
C111 N114 1.379 1_655 S
N112 Zn96 2.036 . S
N112 C110 1.298 . S
N112 N113 1.398 . S
N113 C111 1.299 1_455 S
N113 N112 1.398 . S
N114 C110 1.367 . S
N114 C111 1.379 1_455 S
H115 C118 0.980 . S
H116 C118 0.981 . S
H117 C118 0.981 . S
C118 C110 1.481 . S
C118 H115 0.980 . S
C118 H116 0.981 . S
C118 H117 0.981 . S
C119 C106 1.481 . S
C119 H120 0.980 . S
C119 H121 0.981 . S
C119 H122 0.981 . S
H120 C119 0.980 . S
H121 C119 0.981 . S
H122 C119 0.981 . S
O123 Zn99 2.066 1_655 S
O123 C102 1.256 . S
O124 Zn96 2.053 1_655 S
O124 C102 1.244 . S
C125 O103 1.259 . S
C125 O104 1.254 . S
O126 Zn96 2.066 1_655 S
O126 C98 1.256 . S
O127 C98 1.244 . S
O127 Zn99 2.053 1_655 S
H128 C136 0.929 . S
H129 C138 0.930 . S
H130 C140 0.930 . S
H131 C143 0.929 . S
H132 C146 0.930 1_655 S
H133 C148 0.960 1_455 S
H134 C148 0.960 . S
H135 C148 0.960 . S
C136 H128 0.929 . S
C136 C137 1.377 1_564 S
C136 C138 1.384 . S
C137 C136 1.377 1_546 S
C137 C143 1.390 . S
C138 H129 0.930 . S
C138 C136 1.384 . S
C138 C139 1.372 1_565 S
C139 C138 1.372 1_545 S
C139 C140 1.400 1_554 S
C139 C144 1.490 . S
C140 H130 0.930 . S
C140 C139 1.400 1_556 S
C140 C143 1.386 . S
H141 C157 0.930 . S
H142 C158 0.931 . S
C143 H131 0.929 . S
C143 C137 1.390 . S
C143 C140 1.386 . S
C144 C139 1.490 . S
C144 C146 1.395 1_645 S
C144 C147 1.403 1_655 S
H145 C151 0.930 . S
C146 H132 0.930 1_455 S
C146 C144 1.395 1_465 S
C146 C149 1.403 . S
C147 C144 1.403 1_455 S
C147 C148 1.524 1_455 S
C147 C151 1.400 . S
C148 H133 0.960 1_655 S
C148 H134 0.960 . S
C148 H135 0.960 . S
C148 C147 1.524 1_655 S
C149 C146 1.403 . S
C149 C150 1.392 1_565 S
C149 C153 1.495 . S
C150 C149 1.392 1_545 S
C150 C151 1.385 . S
C150 C152 1.478 . S
C151 H145 0.930 . S
C151 C147 1.400 . S
C151 C150 1.385 . S
C152 C150 1.478 . S
C152 C154 1.381 1_545 S
C152 C158 1.383 . S
C153 C149 1.495 . S
C153 H159 0.959 . S
C153 H160 0.961 . S
C153 H161 0.960 . S
C154 C152 1.381 1_565 S
C154 C155 1.394 1_565 S
C154 H162 0.930 . S
C155 C154 1.394 1_545 S
C155 C156 1.383 . S
C155 H163 0.929 1_545 S
C156 C155 1.383 . S
C156 C157 1.377 . S
C157 H141 0.930 . S
C157 C156 1.377 . S
C157 C158 1.379 . S
C158 H142 0.931 . S
C158 C152 1.383 . S
C158 C157 1.379 . S
H159 C153 0.959 . S
H160 C153 0.961 . S
H161 C153 0.960 . S
H162 C154 0.930 . S
H163 C155 0.929 1_565 S
H164 C172 0.929 . S
H165 C174 0.930 . S
H166 C176 0.930 . S
H167 C179 0.929 . S
H168 C182 0.930 1_655 S
H169 C184 0.960 1_545 S
H170 C184 0.960 1_655 S
H171 C184 0.960 . S
C172 H164 0.929 . S
C172 C173 1.377 1_655 S
C172 C174 1.384 . S
C173 C172 1.377 1_455 S
C173 C179 1.390 . S
C174 H165 0.930 . S
C174 C172 1.384 . S
C174 C175 1.372 1_655 S
C175 C174 1.372 1_455 S
C175 C176 1.400 . S
C175 C180 1.490 . S
C176 H166 0.930 . S
C176 C175 1.400 . S
C176 C179 1.386 . S
H177 C193 0.930 . S
H178 C194 0.931 . S
C179 H167 0.929 . S
C179 C173 1.390 . S
C179 C176 1.386 . S
C180 C175 1.490 . S
C180 C182 1.395 . S
C180 C183 1.403 . S
H181 C187 0.930 . S
C182 H168 0.930 1_455 S
C182 C180 1.395 . S
C182 C185 1.403 1_565 S
C183 C180 1.403 . S
C183 C184 1.524 . S
C183 C187 1.400 1_565 S
C184 H169 0.960 1_565 S
C184 H170 0.960 1_455 S
C184 H171 0.960 . S
C184 C183 1.524 . S
C185 C182 1.403 1_545 S
C185 C186 1.392 . S
C185 C189 1.495 . S
C186 C185 1.392 . S
C186 C187 1.385 . S
C186 C188 1.478 . S
C187 H181 0.930 . S
C187 C183 1.400 1_545 S
C187 C186 1.385 . S
C188 C186 1.478 . S
C188 C190 1.381 1_455 S
C188 C194 1.383 . S
C189 C185 1.495 . S
C189 H195 0.957 1_445 S
C189 H196 0.961 . S
C189 H197 0.960 1_455 S
C190 C188 1.381 1_655 S
C190 C191 1.394 . S
C190 H198 0.930 . S
C191 C190 1.394 . S
C191 C192 1.383 1_655 S
C191 H199 0.929 . S
C192 C191 1.383 1_455 S
C192 C193 1.377 . S
C193 H177 0.930 . S
C193 C192 1.377 . S
C193 C194 1.379 . S
C194 H178 0.931 . S
C194 C188 1.383 . S
C194 C193 1.379 . S
H195 C189 0.957 1_665 S
H196 C189 0.961 . S
H197 C189 0.960 1_655 S
H198 C190 0.930 . S
H199 C191 0.929 . S
H200 C208 0.929 1_556 S
H201 C210 0.930 . S
H202 C212 0.930 . S
H203 C215 0.929 . S
H204 C218 0.930 . S
H205 C220 0.960 . S
H206 C220 0.960 . S
H207 C220 0.960 1_565 S
C208 H200 0.929 1_554 S
C208 C209 1.377 . S
C208 C210 1.384 . S
C209 C208 1.377 . S
C209 C215 1.390 1_545 S
C210 H201 0.930 . S
C210 C208 1.384 . S
C210 C211 1.372 . S
C211 C210 1.372 . S
C211 C212 1.400 1_545 S
C211 C216 1.490 . S
C212 H202 0.930 . S
C212 C211 1.400 1_565 S
C212 C215 1.386 . S
H213 C229 0.930 . S
H214 C230 0.931 . S
C215 H203 0.929 . S
C215 C209 1.390 1_565 S
C215 C212 1.386 . S
C216 C211 1.490 . S
C216 C218 1.395 1_554 S
C216 C219 1.403 . S
H217 C223 0.930 . S
C218 H204 0.930 . S
C218 C216 1.395 1_556 S
C218 C221 1.403 . S
C219 C216 1.403 . S
C219 C220 1.524 . S
C219 C223 1.400 . S
C220 H205 0.960 . S
C220 H206 0.960 . S
C220 H207 0.960 1_545 S
C220 C219 1.524 . S
C221 C218 1.403 . S
C221 C222 1.392 1_556 S
C221 C225 1.495 . S
C222 C221 1.392 1_554 S
C222 C223 1.385 . S
C222 C224 1.478 . S
C223 H217 0.930 . S
C223 C219 1.400 . S
C223 C222 1.385 . S
C224 C222 1.478 . S
C224 C226 1.381 . S
C224 C230 1.383 1_545 S
C225 C221 1.495 . S
C225 H231 0.959 . S
C225 H232 0.961 1_545 S
C225 H233 0.960 . S
C226 C224 1.381 . S
C226 C227 1.394 . S
C226 H234 0.930 . S
C227 C226 1.394 . S
C227 C228 1.383 . S
C227 H235 0.929 . S
C228 C227 1.383 . S
C228 C229 1.377 1_545 S
C229 H213 0.930 . S
C229 C228 1.377 1_565 S
C229 C230 1.379 . S
C230 H214 0.931 . S
C230 C224 1.383 1_565 S
C230 C229 1.379 . S
H231 C225 0.959 . S
H232 C225 0.961 1_565 S
H233 C225 0.960 . S
H234 C226 0.930 . S
H235 C227 0.929 . S
H236 C244 0.929 . S
H237 C246 0.930 . S
H238 C248 0.930 . S
H239 C251 0.929 . S
H240 C254 0.930 . S
H241 C256 0.960 1_655 S
H242 C256 0.960 . S
H243 C256 0.960 1_655 S
C244 H236 0.929 . S
C244 C245 1.377 . S
C244 C246 1.384 . S
C245 C244 1.377 . S
C245 C251 1.390 1_455 S
C246 H237 0.930 . S
C246 C244 1.384 . S
C246 C247 1.372 . S
C247 C246 1.372 . S
C247 C248 1.400 1_455 S
C247 C252 1.490 . S
C248 H238 0.930 . S
C248 C247 1.400 1_655 S
C248 C251 1.386 . S
H249 C265 0.930 . S
H250 C266 0.931 . S
C251 H239 0.929 . S
C251 C245 1.390 1_655 S
C251 C248 1.386 . S
C252 C247 1.490 . S
C252 C254 1.395 . S
C252 C255 1.403 . S
H253 C259 0.930 . S
C254 H240 0.930 . S
C254 C252 1.395 . S
C254 C257 1.403 . S
C255 C252 1.403 . S
C255 C256 1.524 . S
C255 C259 1.400 . S
C256 H241 0.960 1_455 S
C256 H242 0.960 . S
C256 H243 0.960 1_455 S
C256 C255 1.524 . S
C257 C254 1.403 . S
C257 C258 1.392 . S
C257 C261 1.495 . S
C258 C257 1.392 . S
C258 C259 1.385 . S
C258 C260 1.478 . S
C259 H253 0.930 . S
C259 C255 1.400 . S
C259 C258 1.385 . S
C260 C258 1.478 . S
C260 C262 1.381 . S
C260 C266 1.383 1_455 S
C261 C257 1.495 . S
C261 H267 0.959 . S
C261 H268 0.961 . S
C261 H269 0.960 . S
C262 C260 1.381 . S
C262 C263 1.394 . S
C262 H270 0.930 . S
C263 C262 1.394 . S
C263 C264 1.383 . S
C263 H271 0.929 . S
C264 C263 1.383 . S
C264 C265 1.377 1_455 S
C265 H249 0.930 . S
C265 C264 1.377 1_655 S
C265 C266 1.379 . S
C266 H250 0.931 . S
C266 C260 1.383 1_655 S
C266 C265 1.379 . S
H267 C261 0.959 . S
H268 C261 0.961 . S
H269 C261 0.960 . S
H270 C262 0.930 . S
H271 C263 0.929 . S
H272 C280 0.929 . S
H273 C282 0.930 . S
H274 C284 0.930 . S
H275 C287 0.929 . S
H276 C290 0.930 . S
H277 C292 0.960 . S
H278 C292 0.960 . S
H279 C292 0.960 . S
C280 H272 0.929 . S
C280 C281 1.377 . S
C280 C282 1.384 . S
C281 C280 1.377 . S
C281 C287 1.390 . S
C282 H273 0.930 . S
C282 C280 1.384 . S
C282 C283 1.372 . S
C283 C282 1.372 . S
C283 C284 1.400 . S
C283 C288 1.490 . S
C284 H274 0.930 . S
C284 C283 1.400 . S
C284 C287 1.386 . S
H285 C301 0.930 . S
H286 C302 0.931 . S
C287 H275 0.929 . S
C287 C281 1.390 . S
C287 C284 1.386 . S
C288 C283 1.490 . S
C288 C290 1.395 . S
C288 C291 1.403 . S
H289 C295 0.930 . S
C290 H276 0.930 . S
C290 C288 1.395 . S
C290 C293 1.403 . S
C291 C288 1.403 . S
C291 C292 1.524 . S
C291 C295 1.400 . S
C292 H277 0.960 . S
C292 H278 0.960 . S
C292 H279 0.960 . S
C292 C291 1.524 . S
C293 C290 1.403 . S
C293 C294 1.392 . S
C293 C297 1.495 . S
C294 C293 1.392 . S
C294 C295 1.385 . S
C294 C296 1.478 . S
C295 H289 0.930 . S
C295 C291 1.400 . S
C295 C294 1.385 . S
C296 C294 1.478 . S
C296 C298 1.381 . S
C296 C302 1.383 . S
C297 C293 1.495 . S
C297 H303 0.959 . S
C297 H304 0.961 . S
C297 H305 0.960 . S
C298 C296 1.381 . S
C298 C299 1.394 . S
C298 H306 0.930 . S
C299 C298 1.394 . S
C299 C300 1.383 . S
C299 H307 0.929 . S
C300 C299 1.383 . S
C300 C301 1.377 . S
C301 H285 0.930 . S
C301 C300 1.377 . S
C301 C302 1.379 . S
C302 H286 0.931 . S
C302 C296 1.383 . S
C302 C301 1.379 . S
H303 C297 0.959 . S
H304 C297 0.961 . S
H305 C297 0.960 . S
H306 C298 0.930 . S
H307 C299 0.929 . S
H308 C316 0.929 . S
H309 C318 0.930 . S
H310 C320 0.930 . S
H311 C323 0.929 . S
H312 C326 0.930 . S
H313 C328 0.960 . S
H314 C328 0.960 . S
H315 C328 0.960 . S
C316 H308 0.929 . S
C316 C317 1.377 . S
C316 C318 1.384 . S
C317 C316 1.377 . S
C317 C323 1.390 . S
C318 H309 0.930 . S
C318 C316 1.384 . S
C318 C319 1.372 . S
C319 C318 1.372 . S
C319 C320 1.400 . S
C319 C324 1.490 . S
C320 H310 0.930 . S
C320 C319 1.400 . S
C320 C323 1.386 . S
H321 C337 0.930 . S
H322 C338 0.931 . S
C323 H311 0.929 . S
C323 C317 1.390 . S
C323 C320 1.386 . S
C324 C319 1.490 . S
C324 C326 1.395 . S
C324 C327 1.403 . S
H325 C331 0.930 . S
C326 H312 0.930 . S
C326 C324 1.395 . S
C326 C329 1.403 . S
C327 C324 1.403 . S
C327 C328 1.524 . S
C327 C331 1.400 . S
C328 H313 0.960 . S
C328 H314 0.960 . S
C328 H315 0.960 . S
C328 C327 1.524 . S
C329 C326 1.403 . S
C329 C330 1.392 . S
C329 C333 1.495 . S
C330 C329 1.392 . S
C330 C331 1.385 . S
C330 C332 1.478 . S
C331 H325 0.930 . S
C331 C327 1.400 . S
C331 C330 1.385 . S
C332 C330 1.478 . S
C332 C334 1.381 . S
C332 C338 1.383 . S
C333 C329 1.495 . S
C333 H339 0.959 . S
C333 H340 0.961 . S
C333 H341 0.960 . S
C334 C332 1.381 . S
C334 C335 1.394 . S
C334 H342 0.930 . S
C335 C334 1.394 . S
C335 C336 1.383 . S
C335 H343 0.929 . S
C336 C335 1.383 . S
C336 C337 1.377 . S
C337 H321 0.930 . S
C337 C336 1.377 . S
C337 C338 1.379 . S
C338 H322 0.931 . S
C338 C332 1.383 . S
C338 C337 1.379 . S
H339 C333 0.959 . S
H340 C333 0.961 . S
H341 C333 0.960 . S
H342 C334 0.930 . S
H343 C335 0.929 . S
H344 C352 0.929 . S
H345 C354 0.930 . S
H346 C356 0.930 . S
H347 C359 0.929 . S
H348 C362 0.930 . S
H349 C364 0.960 . S
H350 C364 0.960 . S
H351 C364 0.960 . S
C352 H344 0.929 . S
C352 C353 1.377 . S
C352 C354 1.384 . S
C353 C352 1.377 . S
C353 C359 1.390 . S
C354 H345 0.930 . S
C354 C352 1.384 . S
C354 C355 1.372 . S
C355 C354 1.372 . S
C355 C356 1.400 . S
C355 C360 1.490 . S
C356 H346 0.930 . S
C356 C355 1.400 . S
C356 C359 1.386 . S
H357 C373 0.930 . S
H358 C374 0.931 . S
C359 H347 0.929 . S
C359 C353 1.390 . S
C359 C356 1.386 . S
C360 C355 1.490 . S
C360 C362 1.395 . S
C360 C363 1.403 . S
H361 C367 0.930 . S
C362 H348 0.930 . S
C362 C360 1.395 . S
C362 C365 1.403 . S
C363 C360 1.403 . S
C363 C364 1.524 . S
C363 C367 1.400 . S
C364 H349 0.960 . S
C364 H350 0.960 . S
C364 H351 0.960 . S
C364 C363 1.524 . S
C365 C362 1.403 . S
C365 C366 1.392 . S
C365 C369 1.495 . S
C366 C365 1.392 . S
C366 C367 1.385 . S
C366 C368 1.478 . S
C367 H361 0.930 . S
C367 C363 1.400 . S
C367 C366 1.385 . S
C368 C366 1.478 . S
C368 C370 1.381 . S
C368 C374 1.383 . S
C369 C365 1.495 . S
C369 H375 0.959 . S
C369 H376 0.961 . S
C369 H377 0.960 . S
C370 C368 1.381 . S
C370 C371 1.394 . S
C370 H378 0.930 . S
C371 C370 1.394 . S
C371 C372 1.383 . S
C371 H379 0.929 . S
C372 C371 1.383 . S
C372 C373 1.377 . S
C373 H357 0.930 . S
C373 C372 1.377 . S
C373 C374 1.379 . S
C374 H358 0.931 . S
C374 C368 1.383 . S
C374 C373 1.379 . S
H375 C369 0.959 . S
H376 C369 0.961 . S
H377 C369 0.960 . S
H378 C370 0.930 . S
H379 C371 0.929 . S
H380 C388 0.929 . S
H381 C390 0.930 . S
H382 C392 0.930 . S
H383 C395 0.929 . S
H384 C398 0.930 . S
H385 C400 0.960 . S
H386 C400 0.960 . S
H387 C400 0.960 . S
C388 H380 0.929 . S
C388 C389 1.377 . S
C388 C390 1.384 . S
C389 C388 1.377 . S
C389 C395 1.390 . S
C390 H381 0.930 . S
C390 C388 1.384 . S
C390 C391 1.372 . S
C391 C390 1.372 . S
C391 C392 1.400 . S
C391 C396 1.490 . S
C392 H382 0.930 . S
C392 C391 1.400 . S
C392 C395 1.386 . S
H393 C409 0.930 . S
H394 C410 0.931 . S
C395 H383 0.929 . S
C395 C389 1.390 . S
C395 C392 1.386 . S
C396 C391 1.490 . S
C396 C398 1.395 . S
C396 C399 1.403 . S
H397 C403 0.930 . S
C398 H384 0.930 . S
C398 C396 1.395 . S
C398 C401 1.403 . S
C399 C396 1.403 . S
C399 C400 1.524 . S
C399 C403 1.400 . S
C400 H385 0.960 . S
C400 H386 0.960 . S
C400 H387 0.960 . S
C400 C399 1.524 . S
C401 C398 1.403 . S
C401 C402 1.392 . S
C401 C405 1.495 . S
C402 C401 1.392 . S
C402 C403 1.385 . S
C402 C404 1.478 . S
C403 H397 0.930 . S
C403 C399 1.400 . S
C403 C402 1.385 . S
C404 C402 1.478 . S
C404 C406 1.381 . S
C404 C410 1.383 . S
C405 C401 1.495 . S
C405 H411 0.959 . S
C405 H412 0.961 . S
C405 H413 0.960 . S
C406 C404 1.381 . S
C406 C407 1.394 . S
C406 H414 0.930 . S
C407 C406 1.394 . S
C407 C408 1.383 . S
C407 H415 0.929 . S
C408 C407 1.383 . S
C408 C409 1.377 . S
C409 H393 0.930 . S
C409 C408 1.377 . S
C409 C410 1.379 . S
C410 H394 0.931 . S
C410 C404 1.383 . S
C410 C409 1.379 . S
H411 C405 0.959 . S
H412 C405 0.961 . S
H413 C405 0.960 . S
H414 C406 0.930 . S
H415 C407 0.929 . S
H416 C424 0.929 . S
H417 C426 0.930 . S
H418 C428 0.930 . S
H419 C431 0.929 . S
H420 C434 0.930 . S
H421 C436 0.960 . S
H422 C436 0.960 . S
H423 C436 0.960 . S
C424 H416 0.929 . S
C424 C425 1.377 . S
C424 C426 1.384 . S
C425 C424 1.377 . S
C425 C431 1.390 . S
C426 H417 0.930 . S
C426 C424 1.384 . S
C426 C427 1.372 . S
C427 C426 1.372 . S
C427 C428 1.400 . S
C427 C432 1.490 . S
C428 H418 0.930 . S
C428 C427 1.400 . S
C428 C431 1.386 . S
H429 C445 0.930 . S
H430 C446 0.931 . S
C431 H419 0.929 . S
C431 C425 1.390 . S
C431 C428 1.386 . S
C432 C427 1.490 . S
C432 C434 1.395 . S
C432 C435 1.403 . S
H433 C439 0.930 . S
C434 H420 0.930 . S
C434 C432 1.395 . S
C434 C437 1.403 . S
C435 C432 1.403 . S
C435 C436 1.524 . S
C435 C439 1.400 . S
C436 H421 0.960 . S
C436 H422 0.960 . S
C436 H423 0.960 . S
C436 C435 1.524 . S
C437 C434 1.403 . S
C437 C438 1.392 . S
C437 C441 1.495 . S
C438 C437 1.392 . S
C438 C439 1.385 . S
C438 C440 1.478 . S
C439 H433 0.930 . S
C439 C435 1.400 . S
C439 C438 1.385 . S
C440 C438 1.478 . S
C440 C442 1.381 . S
C440 C446 1.383 . S
C441 C437 1.495 . S
C441 H447 0.959 . S
C441 H448 0.961 . S
C441 H449 0.960 . S
C442 C440 1.381 . S
C442 C443 1.394 . S
C442 H450 0.930 . S
C443 C442 1.394 . S
C443 C444 1.383 . S
C443 H451 0.929 . S
C444 C443 1.383 . S
C444 C445 1.377 . S
C445 H429 0.930 . S
C445 C444 1.377 . S
C445 C446 1.379 . S
C446 H430 0.931 . S
C446 C440 1.383 . S
C446 C445 1.379 . S
H447 C441 0.959 . S
H448 C441 0.961 . S
H449 C441 0.960 . S
H450 C442 0.930 . S
H451 C443 0.929 . S
H452 C460 0.929 . S
H453 C462 0.930 . S
H454 C464 0.930 . S
H455 C467 0.929 . S
H456 C470 0.930 . S
H457 C472 0.960 . S
H458 C472 0.960 . S
H459 C472 0.960 . S
C460 H452 0.929 . S
C460 C461 1.377 . S
C460 C462 1.384 . S
C461 C460 1.377 . S
C461 C467 1.390 . S
C462 H453 0.930 . S
C462 C460 1.384 . S
C462 C463 1.372 . S
C463 C462 1.372 . S
C463 C464 1.400 . S
C463 C468 1.490 . S
C464 H454 0.930 . S
C464 C463 1.400 . S
C464 C467 1.386 . S
H465 C481 0.930 . S
H466 C482 0.931 . S
C467 H455 0.929 . S
C467 C461 1.390 . S
C467 C464 1.386 . S
C468 C463 1.490 . S
C468 C470 1.395 . S
C468 C471 1.403 . S
H469 C475 0.930 . S
C470 H456 0.930 . S
C470 C468 1.395 . S
C470 C473 1.403 . S
C471 C468 1.403 . S
C471 C472 1.524 . S
C471 C475 1.400 . S
C472 H457 0.960 . S
C472 H458 0.960 . S
C472 H459 0.960 . S
C472 C471 1.524 . S
C473 C470 1.403 . S
C473 C474 1.392 . S
C473 C477 1.495 . S
C474 C473 1.392 . S
C474 C475 1.385 . S
C474 C476 1.478 . S
C475 H469 0.930 . S
C475 C471 1.400 . S
C475 C474 1.385 . S
C476 C474 1.478 . S
C476 C478 1.381 . S
C476 C482 1.383 . S
C477 C473 1.495 . S
C477 H483 0.959 . S
C477 H484 0.961 . S
C477 H485 0.960 . S
C478 C476 1.381 . S
C478 C479 1.394 . S
C478 H486 0.930 . S
C479 C478 1.394 . S
C479 C480 1.383 . S
C479 H487 0.929 . S
C480 C479 1.383 . S
C480 C481 1.377 . S
C481 H465 0.930 . S
C481 C480 1.377 . S
C481 C482 1.379 . S
C482 H466 0.931 . S
C482 C476 1.383 . S
C482 C481 1.379 . S
H483 C477 0.959 . S
H484 C477 0.961 . S
H485 C477 0.960 . S
H486 C478 0.930 . S
H487 C479 0.929 . S
H488 C496 0.929 . S
H489 C498 0.930 . S
H490 C500 0.930 . S
H491 C503 0.929 . S
H492 C506 0.930 . S
H493 C508 0.960 . S
H494 C508 0.960 . S
H495 C508 0.960 . S
C496 H488 0.929 . S
C496 C497 1.377 . S
C496 C498 1.384 . S
C497 C496 1.377 . S
C497 C503 1.390 . S
C498 H489 0.930 . S
C498 C496 1.384 . S
C498 C499 1.372 . S
C499 C498 1.372 . S
C499 C500 1.400 . S
C499 C504 1.490 . S
C500 H490 0.930 . S
C500 C499 1.400 . S
C500 C503 1.386 . S
H501 C517 0.930 . S
H502 C518 0.931 . S
C503 H491 0.929 . S
C503 C497 1.390 . S
C503 C500 1.386 . S
C504 C499 1.490 . S
C504 C506 1.395 . S
C504 C507 1.403 . S
H505 C511 0.930 . S
C506 H492 0.930 . S
C506 C504 1.395 . S
C506 C509 1.403 . S
C507 C504 1.403 . S
C507 C508 1.524 . S
C507 C511 1.400 . S
C508 H493 0.960 . S
C508 H494 0.960 . S
C508 H495 0.960 . S
C508 C507 1.524 . S
C509 C506 1.403 . S
C509 C510 1.392 . S
C509 C513 1.495 . S
C510 C509 1.392 . S
C510 C511 1.385 . S
C510 C512 1.478 . S
C511 H505 0.930 . S
C511 C507 1.400 . S
C511 C510 1.385 . S
C512 C510 1.478 . S
C512 C514 1.381 . S
C512 C518 1.383 . S
C513 C509 1.495 . S
C513 H519 0.959 . S
C513 H520 0.961 . S
C513 H521 0.960 . S
C514 C512 1.381 . S
C514 C515 1.394 . S
C514 H522 0.930 . S
C515 C514 1.394 . S
C515 C516 1.383 . S
C515 H523 0.929 . S
C516 C515 1.383 . S
C516 C517 1.377 . S
C517 H501 0.930 . S
C517 C516 1.377 . S
C517 C518 1.379 . S
C518 H502 0.931 . S
C518 C512 1.383 . S
C518 C517 1.379 . S
H519 C513 0.959 . S
H520 C513 0.961 . S
H521 C513 0.960 . S
H522 C514 0.930 . S
H523 C515 0.929 . S
H524 C532 0.929 . S
H525 C534 0.930 . S
H526 C536 0.930 . S
H527 C539 0.929 . S
H528 C542 0.930 . S
H529 C544 0.960 . S
H530 C544 0.960 . S
H531 C544 0.960 . S
C532 H524 0.929 . S
C532 C533 1.377 . S
C532 C534 1.384 . S
C533 C532 1.377 . S
C533 C539 1.390 . S
C534 H525 0.930 . S
C534 C532 1.384 . S
C534 C535 1.372 . S
C535 C534 1.372 . S
C535 C536 1.400 . S
C535 C540 1.490 . S
C536 H526 0.930 . S
C536 C535 1.400 . S
C536 C539 1.386 . S
H537 C553 0.930 . S
H538 C554 0.931 . S
C539 H527 0.929 . S
C539 C533 1.390 . S
C539 C536 1.386 . S
C540 C535 1.490 . S
C540 C542 1.395 . S
C540 C543 1.403 . S
H541 C547 0.930 . S
C542 H528 0.930 . S
C542 C540 1.395 . S
C542 C545 1.403 . S
C543 C540 1.403 . S
C543 C544 1.524 . S
C543 C547 1.400 . S
C544 H529 0.960 . S
C544 H530 0.960 . S
C544 H531 0.960 . S
C544 C543 1.524 . S
C545 C542 1.403 . S
C545 C546 1.392 . S
C545 C549 1.495 . S
C546 C545 1.392 . S
C546 C547 1.385 . S
C546 C548 1.478 . S
C547 H541 0.930 . S
C547 C543 1.400 . S
C547 C546 1.385 . S
C548 C546 1.478 . S
C548 C550 1.381 . S
C548 C554 1.383 . S
C549 C545 1.495 . S
C549 H555 0.959 . S
C549 H556 0.961 . S
C549 H557 0.960 . S
C550 C548 1.381 . S
C550 C551 1.394 . S
C550 H558 0.930 . S
C551 C550 1.394 . S
C551 C552 1.383 . S
C551 H559 0.929 1_655 S
C552 C551 1.383 . S
C552 C553 1.377 . S
C553 H537 0.930 . S
C553 C552 1.377 . S
C553 C554 1.379 . S
C554 H538 0.931 . S
C554 C548 1.383 . S
C554 C553 1.379 . S
H555 C549 0.959 . S
H556 C549 0.961 . S
H557 C549 0.960 . S
H558 C550 0.930 . S
H559 C551 0.929 1_455 S
C137 N82 2.925 1_556 S
C156 N13 2.936 . S
C173 N114 2.940 . S
C192 N45 2.956 . S
C209 N77 0.915 . S
C228 N18 0.939 . S
C245 N50 0.907 . S
C264 N109 0.878 . S
C281 C36 1.627 . S
C300 C6 1.630 . S
C317 C38 2.017 . S
C336 C66 1.996 . S
C353 C98 1.617 . S
C372 C93 1.613 . S
C389 C125 1.283 . S
C408 C4 1.274 . S
C425 C68 1.722 . S
C444 C102 1.731 . S
C461 C29 1.974 . S
C480 C100 1.964 . S
C497 C61 1.719 . S
C516 C2 1.743 1_556 S
C533 C70 1.506 . S
C552 C34 1.520 . S
