# Generated by pormake.
# Topology dmp, (4)-cn, num edge types: 1
# Building blocks:
#     Node 0, Type 0, BuildingBlock: QUQFOY_clean_sbu_1, # of connection points: 4
#     Node 1, Type 0, BuildingBlock: QUQFOY_clean_sbu_1, # of connection points: 4
#     Node 2, Type 0, BuildingBlock: QUQFOY_clean_sbu_1, # of connection points: 4
#     Node 3, Type 0, BuildingBlock: QUQFOY_clean_sbu_1, # of connection points: 4
#     Edge 4, Type (0, 0), BuildingBlock: MIFKUJ_clean_linker_0, # of connection points: 2
#     Edge 5, Type (0, 0), BuildingBlock: MIFKUJ_clean_linker_0, # of connection points: 2
#     Edge 6, Type (0, 0), BuildingBlock: MIFKUJ_clean_linker_0, # of connection points: 2
#     Edge 7, Type (0, 0), BuildingBlock: MIFKUJ_clean_linker_0, # of connection points: 2
#     Edge 8, Type (0, 0), BuildingBlock: MIFKUJ_clean_linker_0, # of connection points: 2
#     Edge 9, Type (0, 0), BuildingBlock: MIFKUJ_clean_linker_0, # of connection points: 2
#     Edge 10, Type (0, 0), BuildingBlock: MIFKUJ_clean_linker_0, # of connection points: 2
#     Edge 11, Type (0, 0), BuildingBlock: MIFKUJ_clean_linker_0, # of connection points: 2
# Relax obj value: 0.008
# Max RMSD: 0.066
# Mean RMSD: 0.066
data_MOF--net-dmp--node1-QUQFOY_clean_sbu_1--edge1-MIFKUJ_clean_linker_0
_symmetry_space_group_name_H-M    P1
_symmetry_Int_Tables_number       1
_symmetry_cell_setting            triclinic
loop_
_symmetry_equiv_pos_as_xyz
'x, y, z'
_cell_length_a     51.753217
_cell_length_b     24.328684
_cell_length_c     25.383826
_cell_angle_alpha  89.954282
_cell_angle_beta   90.011497
_cell_angle_gamma 90.021385
loop_
_atom_site_label
_atom_site_type_symbol
_atom_site_fract_x
_atom_site_fract_y
_atom_site_fract_z
_atom_type_partial_charge
O0 O 0.13932 0.33175 0.25778 0.0
Cd1 Cd 0.11835 0.28026 0.30578 0.0
Cd2 Cd 0.11866 0.21752 0.21146 0.0
O3 O 0.13912 0.28467 0.18339 0.0
O4 O 0.11233 0.32666 0.36954 0.0
O5 O 0.08053 0.29592 0.31974 0.0
C6 C 0.08795 0.32473 0.3597 0.0
C7 C 0.0882 0.17389 0.15701 0.0
C8 C 0.14603 0.32655 0.20988 0.0
C9 C 0.14551 0.1711 0.30823 0.0
O10 O 0.13911 0.16564 0.26017 0.0
O11 O 0.13852 0.21315 0.33433 0.0
O12 O 0.11262 0.17111 0.14773 0.0
O13 O 0.0808 0.20306 0.19674 0.0
O14 O 0.36537 0.8321 0.23376 0.0
Cd15 Cd 0.38796 0.77838 0.19135 0.0
Cd16 Cd 0.38916 0.72758 0.29114 0.0
O17 O 0.37025 0.79872 0.31405 0.0
O18 O 0.39481 0.81953 0.12468 0.0
O19 O 0.42573 0.79637 0.18037 0.0
C20 C 0.41887 0.82123 0.13759 0.0
C21 C 0.41985 0.68608 0.34652 0.0
C22 C 0.36095 0.83467 0.28294 0.0
C23 C 0.36223 0.66905 0.20013 0.0
O24 O 0.36746 0.67191 0.24899 0.0
O25 O 0.37005 0.70613 0.16857 0.0
O26 O 0.39568 0.68717 0.35841 0.0
O27 O 0.42696 0.71085 0.30388 0.0
O28 O 0.86479 0.67085 0.75605 0.0
Cd29 Cd 0.88592 0.72141 0.70731 0.0
Cd30 Cd 0.886 0.78542 0.80126 0.0
O31 O 0.86531 0.71896 0.82988 0.0
O32 O 0.89193 0.67416 0.64415 0.0
O33 O 0.92372 0.70508 0.6939 0.0
C34 C 0.9163 0.6759 0.65419 0.0
C35 C 0.91613 0.82996 0.85588 0.0
C36 C 0.85821 0.67685 0.80394 0.0
C37 C 0.85946 0.83129 0.70371 0.0
O38 O 0.8658 0.83683 0.75179 0.0
O39 O 0.86624 0.78888 0.67791 0.0
O40 O 0.89166 0.83273 0.86456 0.0
O41 O 0.92377 0.80025 0.81672 0.0
O42 O 0.63871 0.17418 0.75002 0.0
Cd43 Cd 0.61677 0.22848 0.79321 0.0
Cd44 Cd 0.61763 0.28126 0.69385 0.0
O45 O 0.63587 0.20974 0.67017 0.0
O46 O 0.61047 0.18657 0.85974 0.0
O47 O 0.57904 0.21086 0.80582 0.0
C48 C 0.58628 0.18535 0.84796 0.0
C49 C 0.58707 0.32452 0.63956 0.0
C50 C 0.64391 0.17231 0.70111 0.0
C51 C 0.64427 0.33658 0.7867 0.0
O52 O 0.63976 0.33484 0.7375 0.0
O53 O 0.63534 0.29966 0.81721 0.0
O54 O 0.61122 0.32316 0.62743 0.0
O55 O 0.57992 0.29916 0.68187 0.0
H56 H 0.33803 0.91695 0.22683 0.0
H57 H 0.30351 0.97775 0.25519 0.0
H58 H 0.30745 0.90953 0.41191 0.0
H59 H 0.34187 0.84713 0.38337 0.0
H60 H 0.25914 0.91132 0.37849 0.0
H61 H 0.32703 0.04334 0.38561 0.0
H62 H 0.36497 0.09516 0.35413 0.0
H63 H 0.32048 0.15939 0.22524 0.0
H64 H 0.28241 0.10726 0.25534 0.0
H65 H 0.17929 0.18901 0.38926 0.0
H66 H 0.21707 0.13304 0.41162 0.0
H67 H 0.19296 0.01042 0.29928 0.0
H68 H 0.15538 0.06619 0.2764 0.0
H69 H 0.25412 0.11036 0.33729 0.0
H70 H 0.21521 0.88557 0.33886 0.0
H71 H 0.17714 0.83494 0.37142 0.0
H72 H 0.16418 0.95913 0.48854 0.0
H73 H 0.20238 0.01012 0.45725 0.0
C74 C 0.33193 0.91531 0.26762 0.0
C75 C 0.34272 0.8769 0.30277 0.0
C76 C 0.31221 0.95047 0.28388 0.0
C77 C 0.30301 0.94869 0.33586 0.0
C78 C 0.3143 0.91173 0.37164 0.0
C79 C 0.33405 0.87626 0.35531 0.0
C80 C 0.28019 0.98222 0.35096 0.0
C81 C 0.25815 0.95499 0.37011 0.0
C82 C 0.27897 0.03944 0.34088 0.0
C83 C 0.30186 0.07111 0.3227 0.0
C84 C 0.32537 0.06821 0.35036 0.0
C85 C 0.34691 0.09768 0.33275 0.0
C86 C 0.34515 0.13048 0.28768 0.0
C87 C 0.32183 0.13396 0.26015 0.0
C88 C 0.30025 0.1045 0.27752 0.0
C89 C 0.18159 0.14933 0.37054 0.0
C90 C 0.16445 0.13213 0.3308 0.0
C91 C 0.20327 0.11757 0.38317 0.0
C92 C 0.20782 0.06765 0.35709 0.0
C93 C 0.1897 0.04856 0.32026 0.0
C94 C 0.16826 0.08057 0.3071 0.0
C95 C 0.23293 0.03893 0.36262 0.0
C96 C 0.25534 0.06699 0.34698 0.0
C97 C 0.2345 0.98264 0.37605 0.0
C98 C 0.21162 0.95185 0.39546 0.0
C99 C 0.20434 0.90194 0.37177 0.0
C100 C 0.1827 0.8732 0.38996 0.0
C101 C 0.16822 0.89386 0.43195 0.0
C102 C 0.17537 0.94326 0.45591 0.0
C103 C 0.19699 0.97214 0.4379 0.0
H104 H 0.15147 0.87156 0.44596 0.0
H105 H 0.36184 0.15326 0.27413 0.0
H106 H 0.1762 0.31519 0.12156 0.0
H107 H 0.21325 0.37237 0.09672 0.0
H108 H 0.1961 0.48317 0.2246 0.0
H109 H 0.15907 0.42698 0.24916 0.0
H110 H 0.21345 0.53926 0.14205 0.0
H111 H 0.23823 0.37744 0.24062 0.0
H112 H 0.24206 0.27799 0.25794 0.0
H113 H 0.28422 0.25727 0.11364 0.0
H114 H 0.28031 0.35659 0.09513 0.0
H115 H 0.34745 0.57706 0.25346 0.0
H116 H 0.31187 0.51561 0.23209 0.0
H117 H 0.30056 0.60016 0.08442 0.0
H118 H 0.3361 0.66283 0.10602 0.0
H119 H 0.29793 0.44433 0.15825 0.0
H120 H 0.23473 0.61369 0.06713 0.0
H121 H 0.23108 0.7149 0.06632 0.0
H122 H 0.2656 0.72262 0.22 0.0
H123 H 0.26914 0.62152 0.22193 0.0
C124 C 0.17992 0.35253 0.14349 0.0
C125 C 0.16486 0.3662 0.18774 0.0
C126 C 0.2012 0.38497 0.12942 0.0
C127 C 0.20769 0.43152 0.15935 0.0
C128 C 0.19151 0.44738 0.20099 0.0
C129 C 0.17036 0.41503 0.21512 0.0
C130 C 0.23247 0.4611 0.15118 0.0
C131 C 0.23193 0.51837 0.14457 0.0
C132 C 0.25661 0.43402 0.15543 0.0
C133 C 0.25865 0.37424 0.16611 0.0
C134 C 0.24808 0.35157 0.21232 0.0
C135 C 0.25031 0.29526 0.22241 0.0
C136 C 0.26331 0.26129 0.18683 0.0
C137 C 0.2741 0.2836 0.14109 0.0
C138 C 0.27187 0.33988 0.13077 0.0
C139 C 0.33776 0.5821 0.21594 0.0
C140 C 0.34438 0.62544 0.18182 0.0
C141 C 0.31746 0.54664 0.20363 0.0
C142 C 0.30327 0.55379 0.15704 0.0
C143 C 0.31105 0.59437 0.12093 0.0
C144 C 0.33145 0.62998 0.13323 0.0
C145 C 0.27888 0.52252 0.14976 0.0
C146 C 0.27949 0.46498 0.15366 0.0
C147 C 0.25475 0.54949 0.14483 0.0
C148 C 0.25253 0.61021 0.14428 0.0
C149 C 0.24151 0.63706 0.10072 0.0
C150 C 0.23945 0.69436 0.10009 0.0
C151 C 0.24821 0.72518 0.14298 0.0
C152 C 0.25893 0.69874 0.18671 0.0
C153 C 0.26099 0.64145 0.18757 0.0
H154 H 0.24662 0.76954 0.1424 0.0
H155 H 0.26509 0.21773 0.19478 0.0
H156 H 0.66068 0.08189 0.75441 0.0
H157 H 0.69614 0.02126 0.73074 0.0
H158 H 0.70369 0.10376 0.58101 0.0
H159 H 0.66831 0.16585 0.60501 0.0
H160 H 0.70834 0.94915 0.65765 0.0
H161 H 0.76892 0.11509 0.55501 0.0
H162 H 0.77245 0.2162 0.5501 0.0
H163 H 0.74201 0.22999 0.70691 0.0
H164 H 0.73861 0.12902 0.71291 0.0
H165 H 0.8289 0.81851 0.61618 0.0
H166 H 0.79201 0.8759 0.5909 0.0
H167 H 0.81086 0.99011 0.71501 0.0
H168 H 0.8477 0.93359 0.74009 0.0
H169 H 0.79227 0.04383 0.63089 0.0
H170 H 0.76939 0.88567 0.73712 0.0
H171 H 0.76622 0.78679 0.75773 0.0
H172 H 0.72188 0.7605 0.61697 0.0
H173 H 0.72512 0.85921 0.59517 0.0
C174 C 0.66953 0.08673 0.71602 0.0
C175 C 0.66189 0.12933 0.68195 0.0
C176 C 0.68977 0.05172 0.70241 0.0
C177 C 0.70286 0.05846 0.65445 0.0
C178 C 0.69409 0.09834 0.61857 0.0
C179 C 0.67378 0.13361 0.63225 0.0
C180 C 0.72708 0.02716 0.64519 0.0
C181 C 0.72663 0.96975 0.65074 0.0
C182 C 0.75104 0.05401 0.63702 0.0
C183 C 0.75318 0.11466 0.63405 0.0
C184 C 0.76301 0.13977 0.58841 0.0
C185 C 0.765 0.19701 0.58546 0.0
C186 C 0.75735 0.2295 0.62808 0.0
C187 C 0.74782 0.2048 0.67385 0.0
C188 C 0.74584 0.14759 0.67702 0.0
C189 C 0.82563 0.85667 0.63707 0.0
C190 C 0.84104 0.87115 0.6806 0.0
C191 C 0.80445 0.88925 0.62275 0.0
C192 C 0.79845 0.93679 0.65164 0.0
C193 C 0.81508 0.95356 0.69222 0.0
C194 C 0.83611 0.92102 0.70666 0.0
C195 C 0.77354 0.96599 0.64421 0.0
C196 C 0.77388 0.02298 0.63569 0.0
C197 C 0.74955 0.93897 0.65138 0.0
C198 C 0.74782 0.8796 0.66412 0.0
C199 C 0.75919 0.85869 0.7103 0.0
C200 C 0.75734 0.80272 0.72225 0.0
C201 C 0.74393 0.76734 0.68859 0.0
C202 C 0.73233 0.78791 0.64293 0.0
C203 C 0.73417 0.84385 0.63073 0.0
H204 H 0.74246 0.72404 0.69797 0.0
H205 H 0.75888 0.27381 0.6257 0.0
H206 H 0.82549 0.69379 0.88714 0.0
H207 H 0.78819 0.6372 0.91162 0.0
H208 H 0.81017 0.51681 0.79532 0.0
H209 H 0.84729 0.57293 0.77065 0.0
H210 H 0.74925 0.61489 0.84345 0.0
H211 H 0.78956 0.39146 0.83147 0.0
H212 H 0.82885 0.34094 0.85739 0.0
H213 H 0.84446 0.46076 0.97735 0.0
H214 H 0.80507 0.51159 0.95272 0.0
H215 H 0.66473 0.42333 0.7329 0.0
H216 H 0.69904 0.48478 0.76124 0.0
H217 H 0.69929 0.40832 0.91465 0.0
H218 H 0.66506 0.34537 0.88606 0.0
H219 H 0.74675 0.41404 0.87682 0.0
H220 H 0.67844 0.54242 0.89804 0.0
H221 H 0.63915 0.59387 0.87389 0.0
H222 H 0.67894 0.66647 0.74272 0.0
H223 H 0.71834 0.61483 0.76551 0.0
C224 C 0.8228 0.65449 0.86789 0.0
C225 C 0.83925 0.63796 0.82672 0.0
C226 C 0.8014 0.62237 0.88173 0.0
C227 C 0.79641 0.5728 0.85535 0.0
C228 C 0.81378 0.55459 0.81666 0.0
C229 C 0.83496 0.58686 0.80243 0.0
C230 C 0.77164 0.54317 0.86308 0.0
C231 C 0.74861 0.57111 0.85148 0.0
C232 C 0.7708 0.48631 0.87452 0.0
C233 C 0.79438 0.4555 0.89002 0.0
C234 C 0.80127 0.40686 0.86361 0.0
C235 C 0.82359 0.37821 0.87802 0.0
C236 C 0.83917 0.39768 0.91892 0.0
C237 C 0.83242 0.4458 0.94558 0.0
C238 C 0.81011 0.4746 0.93134 0.0
C239 C 0.6717 0.42 0.77301 0.0
C240 C 0.66218 0.37914 0.80711 0.0
C241 C 0.69128 0.45554 0.7893 0.0
C242 C 0.70163 0.45159 0.84027 0.0
C243 C 0.69154 0.41221 0.87518 0.0
C244 C 0.6719 0.37643 0.85884 0.0
C245 C 0.7245 0.4853 0.85477 0.0
C246 C 0.74721 0.45809 0.87022 0.0
C247 C 0.72501 0.54297 0.84718 0.0
C248 C 0.70136 0.5745 0.83345 0.0
C249 C 0.67878 0.56909 0.86386 0.0
C250 C 0.65648 0.59833 0.85041 0.0
C251 C 0.65654 0.63337 0.80677 0.0
C252 C 0.67892 0.63933 0.77653 0.0
C253 C 0.70126 0.61014 0.78976 0.0
H254 H 0.63925 0.65595 0.79642 0.0
H255 H 0.85645 0.37545 0.93 0.0
H256 H 0.09879 0.11239 0.06988 0.0
H257 H 0.06914 0.05551 0.01892 0.0
H258 H 0.00599 0.10637 0.11843 0.0
H259 H 0.03575 0.16317 0.17031 0.0
H260 H 0.00569 0.99662 0.10362 0.0
H261 H 0.01172 0.15528 0.9929 0.0
H262 H 0.03369 0.22789 0.942 0.0
H263 H 0.06914 0.10569 0.84379 0.0
H264 H 0.04765 0.03226 0.89459 0.0
H265 H 0.90502 0.8923 0.94221 0.0
H266 H 0.93432 0.95007 0.99312 0.0
H267 H 0.99798 0.899 0.89509 0.0
H268 H 0.96858 0.84127 0.84328 0.0
H269 H 0.99777 0.00931 0.90919 0.0
H270 H 0.99175 0.85064 0.02051 0.0
H271 H 0.96957 0.77834 0.07146 0.0
H272 H 0.93385 0.90112 0.16859 0.0
H273 H 0.95555 0.97424 0.11773 0.0
C274 C 0.07856 0.11193 0.08079 0.0
C275 C 0.06964 0.14247 0.12418 0.0
C276 C 0.06159 0.07946 0.05141 0.0
C277 C 0.03526 0.07698 0.06447 0.0
C278 C 0.02622 0.10771 0.10756 0.0
C279 C 0.04322 0.14034 0.13703 0.0
C280 C 0.01747 0.04083 0.03412 0.0
C281 C 0.00364 0.99998 0.0612 0.0
C282 C 0.01532 0.04417 0.97858 0.0
C283 C 0.02825 0.08824 0.94789 0.0
C284 C 0.02436 0.14386 0.96073 0.0
C285 C 0.0367 0.18517 0.93184 0.0
C286 C 0.05285 0.17141 0.88977 0.0
C287 C 0.05665 0.11629 0.87643 0.0
C288 C 0.04437 0.0748 0.90522 0.0
C289 C 0.92529 0.89291 0.93161 0.0
C290 C 0.93446 0.86201 0.88868 0.0
C291 C 0.94205 0.92591 0.96095 0.0
C292 C 0.96842 0.92857 0.94829 0.0
C293 C 0.97771 0.89753 0.90563 0.0
C294 C 0.96092 0.86436 0.87622 0.0
C295 C 0.98603 0.96506 0.97869 0.0
C296 C 0.99982 0.00598 0.95162 0.0
C297 C 0.98812 0.96183 0.03425 0.0
C298 C 0.97509 0.91794 0.06497 0.0
C299 C 0.979 0.86225 0.05246 0.0
C300 C 0.96655 0.82111 0.08138 0.0
C301 C 0.95026 0.83513 0.12315 0.0
C302 C 0.94645 0.89033 0.13618 0.0
C303 C 0.95884 0.93163 0.10736 0.0
H304 H 0.94064 0.80322 0.1455 0.0
H305 H 0.06238 0.20345 0.86745 0.0
H306 H 0.53529 0.1624 0.82761 0.0
H307 H 0.50661 0.10143 0.87767 0.0
H308 H 0.56753 0.07189 0.99014 0.0
H309 H 0.5961 0.13289 0.94086 0.0
H310 H 0.5123 0.99267 0.89797 0.0
H311 H 0.54158 0.04852 0.11147 0.0
H312 H 0.55643 0.12909 0.1621 0.0
H313 H 0.51934 0.23687 0.05146 0.0
H314 H 0.50397 0.15698 1.00059 0.0
H315 H 0.46974 0.84403 0.15944 0.0
H316 H 0.4989 0.90442 0.10987 0.0
H317 H 0.43883 0.93375 0.99546 0.0
H318 H 0.40981 0.87328 0.04418 0.0
H319 H 0.494 0.01262 0.08884 0.0
H320 H 0.46516 0.95594 0.87482 0.0
H321 H 0.45067 0.87494 0.82439 0.0
H322 H 0.48741 0.76812 0.93636 0.0
H323 H 0.50242 0.84843 0.98704 0.0
C324 C 0.54245 0.14351 0.8634 0.0
C325 C 0.56798 0.15263 0.88027 0.0
C326 C 0.52608 0.10844 0.89181 0.0
C327 C 0.53485 0.08228 0.93786 0.0
C328 C 0.56018 0.09213 0.95518 0.0
C329 C 0.57654 0.12697 0.92681 0.0
C330 C 0.51794 0.04302 0.96676 0.0
C331 C 0.50796 0.99751 0.93952 0.0
C332 C 0.51293 0.04834 0.02137 0.0
C333 C 0.52186 0.09672 0.05193 0.0
C334 C 0.53652 0.08941 0.09805 0.0
C335 C 0.54504 0.13496 0.12677 0.0
C336 C 0.5389 0.18806 0.1099 0.0
C337 C 0.52417 0.19572 0.06436 0.0
C338 C 0.51558 0.15031 0.03552 0.0
C339 C 0.46287 0.86276 0.12333 0.0
C340 C 0.43746 0.8537 0.10573 0.0
C341 C 0.47951 0.8975 0.0952 0.0
C342 C 0.47113 0.92341 0.04873 0.0
C343 C 0.4459 0.91367 0.03073 0.0
C344 C 0.42928 0.87913 0.0588 0.0
C345 C 0.48831 0.96233 0.02002 0.0
C346 C 0.49835 0.00776 0.04729 0.0
C347 C 0.49342 0.95687 0.96547 0.0
C348 C 0.48467 0.90825 0.93501 0.0
C349 C 0.47022 0.91517 0.88858 0.0
C350 C 0.4619 0.86937 0.85996 0.0
C351 C 0.46804 0.81642 0.87726 0.0
C352 C 0.48258 0.80915 0.92312 0.0
C353 C 0.49095 0.8548 0.95186 0.0
H354 H 0.46158 0.78102 0.85506 0.0
H355 H 0.54552 0.22327 0.13218 0.0
H356 H 0.90625 0.61881 0.56406 0.0
H357 H 0.93549 0.5596 0.51459 0.0
H358 H 0.99712 0.59797 0.62294 0.0
H359 H 0.96797 0.65844 0.67226 0.0
H360 H 0.01454 0.59683 0.52371 0.0
H361 H 0.96361 0.47575 0.63091 0.0
H362 H 0.92339 0.43642 0.6669 0.0
H363 H 0.89996 0.38765 0.51153 0.0
H364 H 0.9399 0.42737 0.4745 0.0
H365 H 0.09803 0.38088 0.45035 0.0
H366 H 0.06881 0.43963 0.50039 0.0
H367 H 0.00709 0.40202 0.392 0.0
H368 H 0.03622 0.34202 0.34209 0.0
H369 H 0.98977 0.40265 0.49151 0.0
H370 H 0.04073 0.52404 0.38437 0.0
H371 H 0.08098 0.56337 0.34854 0.0
H372 H 0.10441 0.61154 0.50409 0.0
H373 H 0.06444 0.5718 0.54096 0.0
C374 C 0.92606 0.61499 0.5773 0.0
C375 C 0.93473 0.64315 0.62235 0.0
C376 C 0.94274 0.5808 0.54907 0.0
C377 C 0.96839 0.57339 0.56559 0.0
C378 C 0.97737 0.60279 0.6096 0.0
C379 C 0.96069 0.63734 0.63776 0.0
C380 C 0.9857 0.5346 0.53713 0.0
C381 C 0.00929 0.55418 0.51733 0.0
C382 C 0.9786 0.47919 0.52767 0.0
C383 C 0.95464 0.45499 0.54989 0.0
C384 C 0.94979 0.45698 0.60437 0.0
C385 C 0.92706 0.43457 0.62497 0.0
C386 C 0.9091 0.40967 0.59151 0.0
C387 C 0.91387 0.407 0.53739 0.0
C388 C 0.93657 0.42942 0.51659 0.0
C389 C 0.0782 0.38476 0.43724 0.0
C390 C 0.0695 0.35698 0.39198 0.0
C391 C 0.06153 0.41866 0.46579 0.0
C392 C 0.03587 0.42619 0.44941 0.0
C393 C 0.02686 0.3971 0.40524 0.0
C394 C 0.04352 0.36283 0.37674 0.0
C395 C 0.0186 0.4649 0.47807 0.0
C396 C 0.99502 0.4453 0.4979 0.0
C397 C 0.02571 0.52029 0.48759 0.0
C398 C 0.0497 0.54448 0.46547 0.0
C399 C 0.05455 0.54266 0.41098 0.0
C400 C 0.0773 0.56509 0.39048 0.0
C401 C 0.09527 0.58982 0.42403 0.0
C402 C 0.09049 0.59231 0.47815 0.0
C403 C 0.06778 0.56989 0.49887 0.0
H404 H 0.11288 0.60715 0.40808 0.0
H405 H 0.89151 0.39234 0.60753 0.0
H406 H 0.47044 0.66087 0.32484 0.0
H407 H 0.49901 0.59995 0.37511 0.0
H408 H 0.43925 0.57702 0.49148 0.0
H409 H 0.41073 0.63794 0.44183 0.0
H410 H 0.48611 0.58922 0.53751 0.0
H411 H 0.44929 0.48091 0.39842 0.0
H412 H 0.43838 0.45797 0.30647 0.0
H413 H 0.51902 0.4527 0.26705 0.0
H414 H 0.53041 0.4764 0.35868 0.0
H415 H 0.53658 0.35008 0.66189 0.0
H416 H 0.50799 0.41149 0.61219 0.0
H417 H 0.56764 0.43516 0.49572 0.0
H418 H 0.59618 0.37379 0.54479 0.0
H419 H 0.52073 0.4225 0.44991 0.0
H420 H 0.55749 0.53085 0.58927 0.0
H421 H 0.56828 0.55352 0.68135 0.0
H422 H 0.48759 0.55837 0.72041 0.0
H423 H 0.47633 0.53495 0.62866 0.0
C424 C 0.46351 0.64339 0.36146 0.0
C425 C 0.43826 0.65408 0.37917 0.0
C426 C 0.4798 0.60831 0.38999 0.0
C427 C 0.47114 0.58328 0.43671 0.0
C428 C 0.44633 0.59569 0.4555 0.0
C429 C 0.43003 0.6305 0.42695 0.0
C430 C 0.48755 0.54289 0.46531 0.0
C431 C 0.49344 0.55245 0.51851 0.0
C432 C 0.49747 0.49532 0.44036 0.0
C433 C 0.49069 0.48102 0.38526 0.0
C434 C 0.46469 0.47532 0.37004 0.0
C435 C 0.45842 0.4621 0.318 0.0
C436 C 0.47799 0.45404 0.2809 0.0
C437 C 0.50388 0.45906 0.29581 0.0
C438 C 0.51025 0.47235 0.34779 0.0
C439 C 0.5435 0.36788 0.62539 0.0
C440 C 0.5687 0.35721 0.60744 0.0
C441 C 0.52719 0.40323 0.59719 0.0
C442 C 0.5358 0.42853 0.55057 0.0
C443 C 0.5606 0.41627 0.53162 0.0
C444 C 0.57691 0.3812 0.55984 0.0
C445 C 0.51932 0.46886 0.52209 0.0
C446 C 0.51341 0.45928 0.46891 0.0
C447 C 0.50937 0.51638 0.54708 0.0
C448 C 0.51608 0.53056 0.60223 0.0
C449 C 0.54205 0.53629 0.6176 0.0
C450 C 0.54826 0.54936 0.66971 0.0
C451 C 0.52864 0.55722 0.70675 0.0
C452 C 0.50277 0.55217 0.6917 0.0
C453 C 0.49646 0.53904 0.63964 0.0
H454 H 0.53347 0.56736 0.74707 0.0
H455 H 0.4731 0.44378 0.24063 0.0
loop_
_geom_bond_atom_site_label_1
_geom_bond_atom_site_label_2
_geom_bond_distance
_geom_bond_site_symmetry_2
_ccdc_geom_bond_type
O0 Cd1 2.223 . S
O0 C8 1.315 . S
Cd1 O0 2.223 . S
Cd1 O4 2.297 . S
Cd1 O5 2.439 . S
Cd1 O11 2.240 . S
Cd2 O3 2.240 . S
Cd2 O10 2.223 . S
Cd2 O12 2.297 . S
Cd2 O13 2.439 . S
O3 Cd2 2.240 . S
O3 C8 1.279 . S
O4 Cd1 2.297 . S
O4 C6 1.247 . S
O5 Cd1 2.439 . S
O5 C6 1.208 . S
C6 O4 1.247 . S
C6 O5 1.208 . S
C7 O12 1.247 . S
C7 O13 1.208 . S
C8 O0 1.315 . S
C8 O3 1.279 . S
C9 O10 1.315 . S
C9 O11 1.279 . S
O10 Cd2 2.223 . S
O10 C9 1.315 . S
O11 Cd1 2.240 . S
O11 C9 1.279 . S
O12 Cd2 2.297 . S
O12 C7 1.247 . S
O13 Cd2 2.439 . S
O13 C7 1.208 . S
O14 Cd15 2.223 . S
O14 C22 1.315 . S
Cd15 O14 2.223 . S
Cd15 O18 2.297 . S
Cd15 O19 2.439 . S
Cd15 O25 2.240 . S
Cd16 O17 2.240 . S
Cd16 O24 2.223 . S
Cd16 O26 2.297 . S
Cd16 O27 2.439 . S
O17 Cd16 2.240 . S
O17 C22 1.279 . S
O18 Cd15 2.297 . S
O18 C20 1.247 . S
O19 Cd15 2.439 . S
O19 C20 1.208 . S
C20 O18 1.247 . S
C20 O19 1.208 . S
C21 O26 1.247 . S
C21 O27 1.208 . S
C22 O14 1.315 . S
C22 O17 1.279 . S
C23 O24 1.315 . S
C23 O25 1.279 . S
O24 Cd16 2.223 . S
O24 C23 1.315 . S
O25 Cd15 2.240 . S
O25 C23 1.279 . S
O26 Cd16 2.297 . S
O26 C21 1.247 . S
O27 Cd16 2.439 . S
O27 C21 1.208 . S
O28 Cd29 2.223 . S
O28 C36 1.315 . S
Cd29 O28 2.223 . S
Cd29 O32 2.297 . S
Cd29 O33 2.439 . S
Cd29 O39 2.240 . S
Cd30 O31 2.240 . S
Cd30 O38 2.223 . S
Cd30 O40 2.297 . S
Cd30 O41 2.439 . S
O31 Cd30 2.240 . S
O31 C36 1.279 . S
O32 Cd29 2.297 . S
O32 C34 1.247 . S
O33 Cd29 2.439 . S
O33 C34 1.208 . S
C34 O32 1.247 . S
C34 O33 1.208 . S
C35 O40 1.247 . S
C35 O41 1.208 . S
C36 O28 1.315 . S
C36 O31 1.279 . S
C37 O38 1.315 . S
C37 O39 1.279 . S
O38 Cd30 2.223 . S
O38 C37 1.315 . S
O39 Cd29 2.240 . S
O39 C37 1.279 . S
O40 Cd30 2.297 . S
O40 C35 1.247 . S
O41 Cd30 2.439 . S
O41 C35 1.208 . S
O42 Cd43 2.223 . S
O42 C50 1.315 . S
Cd43 O42 2.223 . S
Cd43 O46 2.297 . S
Cd43 O47 2.439 . S
Cd43 O53 2.240 . S
Cd44 O45 2.240 . S
Cd44 O52 2.223 . S
Cd44 O54 2.297 . S
Cd44 O55 2.439 . S
O45 Cd44 2.240 . S
O45 C50 1.279 . S
O46 Cd43 2.297 . S
O46 C48 1.247 . S
O47 Cd43 2.439 . S
O47 C48 1.208 . S
C48 O46 1.247 . S
C48 O47 1.208 . S
C49 O54 1.247 . S
C49 O55 1.208 . S
C50 O42 1.315 . S
C50 O45 1.279 . S
C51 O52 1.315 . S
C51 O53 1.279 . S
O52 Cd44 2.223 . S
O52 C51 1.315 . S
O53 Cd43 2.240 . S
O53 C51 1.279 . S
O54 Cd44 2.297 . S
O54 C49 1.247 . S
O55 Cd44 2.439 . S
O55 C49 1.208 . S
H56 C74 0.951 . S
H57 C76 0.951 . S
H58 C78 0.950 . S
H59 C79 0.950 . S
H60 C81 0.950 . S
H61 C84 0.950 1_545 S
H62 C85 0.950 . S
H63 C87 0.950 . S
H64 C88 0.950 . S
H65 C89 0.951 . S
H66 C91 0.951 . S
H67 C93 0.950 . S
H68 C94 0.950 . S
H69 C96 0.950 . S
H70 C99 0.950 1_565 S
H71 C100 0.950 . S
H72 C102 0.950 . S
H73 C103 0.950 . S
C74 H56 0.951 . S
C74 C75 1.366 . S
C74 C76 1.388 . S
C75 C74 1.366 . S
C75 C79 1.385 . S
C76 H57 0.951 . S
C76 C74 1.388 . S
C76 C77 1.366 . S
C77 C76 1.366 . S
C77 C78 1.414 . S
C77 C80 1.499 . S
C78 H58 0.950 . S
C78 C77 1.414 . S
C78 C79 1.374 . S
C79 H59 0.950 . S
C79 C75 1.385 . S
C79 C78 1.374 . S
C80 C77 1.499 . S
C80 C81 1.373 . S
C80 C82 1.389 . S
C81 H60 0.950 . S
C81 C80 1.373 . S
C81 C97 1.377 1_565 S
C82 C80 1.389 . S
C82 C83 1.524 . S
C82 C96 1.377 1_565 S
C83 C82 1.524 . S
C83 C84 1.397 . S
C83 C88 1.363 . S
C84 H61 0.950 1_565 S
C84 C83 1.397 . S
C84 C85 1.334 . S
C85 H62 0.950 . S
C85 C84 1.334 . S
C85 C86 1.287 . S
C86 C85 1.287 . S
C86 C87 1.524 . S
C86 H105 0.913 . S
C87 H63 0.950 . S
C87 C86 1.524 . S
C87 C88 1.415 . S
C88 H64 0.950 . S
C88 C83 1.363 . S
C88 C87 1.415 . S
C89 H65 0.951 . S
C89 C90 1.366 . S
C89 C91 1.388 . S
C90 C89 1.366 . S
C90 C94 1.385 . S
C91 H66 0.951 . S
C91 C89 1.388 . S
C91 C92 1.366 . S
C92 C91 1.366 . S
C92 C93 1.414 . S
C92 C95 1.499 . S
C93 H67 0.950 . S
C93 C92 1.414 . S
C93 C94 1.374 . S
C94 H68 0.950 . S
C94 C90 1.385 . S
C94 C93 1.374 . S
C95 C92 1.499 . S
C95 C96 1.373 . S
C95 C97 1.389 . S
C96 H69 0.950 . S
C96 C82 1.377 1_545 S
C96 C95 1.373 . S
C97 C81 1.377 1_545 S
C97 C95 1.389 . S
C97 C98 1.524 . S
C98 C97 1.524 . S
C98 C99 1.397 . S
C98 C103 1.363 . S
C99 H70 0.950 1_545 S
C99 C98 1.397 . S
C99 C100 1.334 . S
C100 H71 0.950 . S
C100 C99 1.334 . S
C100 C101 1.287 . S
C101 C100 1.287 . S
C101 C102 1.524 . S
C101 H104 0.999 . S
C102 H72 0.950 . S
C102 C101 1.524 . S
C102 C103 1.415 . S
C103 H73 0.950 . S
C103 C98 1.363 . S
C103 C102 1.415 . S
H104 C101 0.999 . S
H105 C86 0.913 . S
H106 C124 0.951 . S
H107 C126 0.951 . S
H108 C128 0.950 . S
H109 C129 0.950 . S
H110 C131 0.950 . S
H111 C134 0.950 . S
H112 C135 0.950 . S
H113 C137 0.950 . S
H114 C138 0.950 . S
H115 C139 0.951 . S
H116 C141 0.951 . S
H117 C143 0.950 . S
H118 C144 0.950 . S
H119 C146 0.950 . S
H120 C149 0.950 . S
H121 C150 0.950 . S
H122 C152 0.950 . S
H123 C153 0.950 . S
C124 H106 0.951 . S
C124 C125 1.366 . S
C124 C126 1.388 . S
C125 C124 1.366 . S
C125 C129 1.385 . S
C126 H107 0.951 . S
C126 C124 1.388 . S
C126 C127 1.366 . S
C127 C126 1.366 . S
C127 C128 1.414 . S
C127 C130 1.499 . S
C128 H108 0.950 . S
C128 C127 1.414 . S
C128 C129 1.374 . S
C129 H109 0.950 . S
C129 C125 1.385 . S
C129 C128 1.374 . S
C130 C127 1.499 . S
C130 C131 1.373 . S
C130 C132 1.389 . S
C131 H110 0.950 . S
C131 C130 1.373 . S
C131 C147 1.377 . S
C132 C130 1.389 . S
C132 C133 1.524 . S
C132 C146 1.377 . S
C133 C132 1.524 . S
C133 C134 1.397 . S
C133 C138 1.363 . S
C134 H111 0.950 . S
C134 C133 1.397 . S
C134 C135 1.334 . S
C135 H112 0.950 . S
C135 C134 1.334 . S
C135 C136 1.287 . S
C136 C135 1.287 . S
C136 C137 1.524 . S
C136 H155 0.913 . S
C137 H113 0.950 . S
C137 C136 1.524 . S
C137 C138 1.415 . S
C138 H114 0.950 . S
C138 C133 1.363 . S
C138 C137 1.415 . S
C139 H115 0.951 . S
C139 C140 1.366 . S
C139 C141 1.388 . S
C140 C139 1.366 . S
C140 C144 1.385 . S
C141 H116 0.951 . S
C141 C139 1.388 . S
C141 C142 1.366 . S
C142 C141 1.366 . S
C142 C143 1.414 . S
C142 C145 1.499 . S
C143 H117 0.950 . S
C143 C142 1.414 . S
C143 C144 1.374 . S
C144 H118 0.950 . S
C144 C140 1.385 . S
C144 C143 1.374 . S
C145 C142 1.499 . S
C145 C146 1.373 . S
C145 C147 1.389 . S
C146 H119 0.950 . S
C146 C132 1.377 . S
C146 C145 1.373 . S
C147 C131 1.377 . S
C147 C145 1.389 . S
C147 C148 1.524 . S
C148 C147 1.524 . S
C148 C149 1.397 . S
C148 C153 1.363 . S
C149 H120 0.950 . S
C149 C148 1.397 . S
C149 C150 1.334 . S
C150 H121 0.950 . S
C150 C149 1.334 . S
C150 C151 1.287 . S
C151 C150 1.287 . S
C151 C152 1.524 . S
C151 H154 0.999 . S
C152 H122 0.950 . S
C152 C151 1.524 . S
C152 C153 1.415 . S
C153 H123 0.950 . S
C153 C148 1.363 . S
C153 C152 1.415 . S
H154 C151 0.999 . S
H155 C136 0.913 . S
H156 C174 0.951 . S
H157 C176 0.951 . S
H158 C178 0.950 . S
H159 C179 0.950 . S
H160 C181 0.950 . S
H161 C184 0.950 . S
H162 C185 0.950 . S
H163 C187 0.950 . S
H164 C188 0.950 . S
H165 C189 0.951 . S
H166 C191 0.951 . S
H167 C193 0.950 . S
H168 C194 0.950 . S
H169 C196 0.950 . S
H170 C199 0.950 . S
H171 C200 0.950 . S
H172 C202 0.950 . S
H173 C203 0.950 . S
C174 H156 0.951 . S
C174 C175 1.366 . S
C174 C176 1.388 . S
C175 C174 1.366 . S
C175 C179 1.385 . S
C176 H157 0.951 . S
C176 C174 1.388 . S
C176 C177 1.366 . S
C177 C176 1.366 . S
C177 C178 1.414 . S
C177 C180 1.499 . S
C178 H158 0.950 . S
C178 C177 1.414 . S
C178 C179 1.374 . S
C179 H159 0.950 . S
C179 C175 1.385 . S
C179 C178 1.374 . S
C180 C177 1.499 . S
C180 C181 1.373 1_545 S
C180 C182 1.389 . S
C181 H160 0.950 . S
C181 C180 1.373 1_565 S
C181 C197 1.377 . S
C182 C180 1.389 . S
C182 C183 1.524 . S
C182 C196 1.377 . S
C183 C182 1.524 . S
C183 C184 1.397 . S
C183 C188 1.363 . S
C184 H161 0.950 . S
C184 C183 1.397 . S
C184 C185 1.334 . S
C185 H162 0.950 . S
C185 C184 1.334 . S
C185 C186 1.287 . S
C186 C185 1.287 . S
C186 C187 1.524 . S
C186 H205 0.913 . S
C187 H163 0.950 . S
C187 C186 1.524 . S
C187 C188 1.415 . S
C188 H164 0.950 . S
C188 C183 1.363 . S
C188 C187 1.415 . S
C189 H165 0.951 . S
C189 C190 1.366 . S
C189 C191 1.388 . S
C190 C189 1.366 . S
C190 C194 1.385 . S
C191 H166 0.951 . S
C191 C189 1.388 . S
C191 C192 1.366 . S
C192 C191 1.366 . S
C192 C193 1.414 . S
C192 C195 1.499 . S
C193 H167 0.950 . S
C193 C192 1.414 . S
C193 C194 1.374 . S
C194 H168 0.950 . S
C194 C190 1.385 . S
C194 C193 1.374 . S
C195 C192 1.499 . S
C195 C196 1.373 1_565 S
C195 C197 1.389 . S
C196 H169 0.950 . S
C196 C182 1.377 . S
C196 C195 1.373 1_545 S
C197 C181 1.377 . S
C197 C195 1.389 . S
C197 C198 1.524 . S
C198 C197 1.524 . S
C198 C199 1.397 . S
C198 C203 1.363 . S
C199 H170 0.950 . S
C199 C198 1.397 . S
C199 C200 1.334 . S
C200 H171 0.950 . S
C200 C199 1.334 . S
C200 C201 1.287 . S
C201 C200 1.287 . S
C201 C202 1.524 . S
C201 H204 0.999 . S
C202 H172 0.950 . S
C202 C201 1.524 . S
C202 C203 1.415 . S
C203 H173 0.950 . S
C203 C198 1.363 . S
C203 C202 1.415 . S
H204 C201 0.999 . S
H205 C186 0.913 . S
H206 C224 0.951 . S
H207 C226 0.951 . S
H208 C228 0.950 . S
H209 C229 0.950 . S
H210 C231 0.950 . S
H211 C234 0.950 . S
H212 C235 0.950 . S
H213 C237 0.950 . S
H214 C238 0.950 . S
H215 C239 0.951 . S
H216 C241 0.951 . S
H217 C243 0.950 . S
H218 C244 0.950 . S
H219 C246 0.950 . S
H220 C249 0.950 . S
H221 C250 0.950 . S
H222 C252 0.950 . S
H223 C253 0.950 . S
C224 H206 0.951 . S
C224 C225 1.366 . S
C224 C226 1.388 . S
C225 C224 1.366 . S
C225 C229 1.385 . S
C226 H207 0.951 . S
C226 C224 1.388 . S
C226 C227 1.366 . S
C227 C226 1.366 . S
C227 C228 1.414 . S
C227 C230 1.499 . S
C228 H208 0.950 . S
C228 C227 1.414 . S
C228 C229 1.374 . S
C229 H209 0.950 . S
C229 C225 1.385 . S
C229 C228 1.374 . S
C230 C227 1.499 . S
C230 C231 1.373 . S
C230 C232 1.389 . S
C231 H210 0.950 . S
C231 C230 1.373 . S
C231 C247 1.377 . S
C232 C230 1.389 . S
C232 C233 1.524 . S
C232 C246 1.377 . S
C233 C232 1.524 . S
C233 C234 1.397 . S
C233 C238 1.363 . S
C234 H211 0.950 . S
C234 C233 1.397 . S
C234 C235 1.334 . S
C235 H212 0.950 . S
C235 C234 1.334 . S
C235 C236 1.287 . S
C236 C235 1.287 . S
C236 C237 1.524 . S
C236 H255 0.913 . S
C237 H213 0.950 . S
C237 C236 1.524 . S
C237 C238 1.415 . S
C238 H214 0.950 . S
C238 C233 1.363 . S
C238 C237 1.415 . S
C239 H215 0.951 . S
C239 C240 1.366 . S
C239 C241 1.388 . S
C240 C239 1.366 . S
C240 C244 1.385 . S
C241 H216 0.951 . S
C241 C239 1.388 . S
C241 C242 1.366 . S
C242 C241 1.366 . S
C242 C243 1.414 . S
C242 C245 1.499 . S
C243 H217 0.950 . S
C243 C242 1.414 . S
C243 C244 1.374 . S
C244 H218 0.950 . S
C244 C240 1.385 . S
C244 C243 1.374 . S
C245 C242 1.499 . S
C245 C246 1.373 . S
C245 C247 1.389 . S
C246 H219 0.950 . S
C246 C232 1.377 . S
C246 C245 1.373 . S
C247 C231 1.377 . S
C247 C245 1.389 . S
C247 C248 1.524 . S
C248 C247 1.524 . S
C248 C249 1.397 . S
C248 C253 1.363 . S
C249 H220 0.950 . S
C249 C248 1.397 . S
C249 C250 1.334 . S
C250 H221 0.950 . S
C250 C249 1.334 . S
C250 C251 1.287 . S
C251 C250 1.287 . S
C251 C252 1.524 . S
C251 H254 0.999 . S
C252 H222 0.950 . S
C252 C251 1.524 . S
C252 C253 1.415 . S
C253 H223 0.950 . S
C253 C248 1.363 . S
C253 C252 1.415 . S
H254 C251 0.999 . S
H255 C236 0.913 . S
H256 C274 0.951 . S
H257 C276 0.951 . S
H258 C278 0.981 . S
H259 C279 0.950 . S
H260 C281 0.950 . S
H261 C284 0.950 . S
H262 C285 0.950 . S
H263 C287 0.950 . S
H264 C288 0.950 1_565 S
H265 C289 0.951 . S
H266 C291 0.951 . S
H267 C293 0.981 . S
H268 C294 0.950 . S
H269 C296 0.950 . S
H270 C299 0.950 . S
H271 C300 0.950 . S
H272 C302 0.950 . S
H273 C303 0.950 1_545 S
C274 H256 0.951 . S
C274 C275 1.366 . S
C274 C276 1.388 . S
C275 C274 1.366 . S
C275 C279 1.385 . S
C276 H257 0.951 . S
C276 C274 1.388 . S
C276 C277 1.366 . S
C277 C276 1.366 . S
C277 C278 1.414 . S
C277 C280 1.499 . S
C278 H258 0.981 . S
C278 C277 1.414 . S
C278 C279 1.374 . S
C279 H259 0.950 . S
C279 C275 1.385 . S
C279 C278 1.374 . S
C280 C277 1.499 . S
C280 C281 1.373 1_455 S
C280 C282 1.389 1_554 S
C281 H260 0.950 . S
C281 C280 1.373 1_655 S
C281 C297 1.377 1_545 S
C282 C280 1.389 1_556 S
C282 C283 1.524 . S
C282 C296 1.377 1_545 S
C283 C282 1.524 . S
C283 C284 1.397 . S
C283 C288 1.363 . S
C284 H261 0.950 . S
C284 C283 1.397 . S
C284 C285 1.334 . S
C285 H262 0.950 . S
C285 C284 1.334 . S
C285 C286 1.287 . S
C286 C285 1.287 . S
C286 C287 1.524 . S
C286 H305 0.913 . S
C287 H263 0.950 . S
C287 C286 1.524 . S
C287 C288 1.415 . S
C288 H264 0.950 1_545 S
C288 C283 1.363 . S
C288 C287 1.415 . S
C289 H265 0.951 . S
C289 C290 1.366 . S
C289 C291 1.388 . S
C290 C289 1.366 . S
C290 C294 1.385 . S
C291 H266 0.951 . S
C291 C289 1.388 . S
C291 C292 1.366 . S
C292 C291 1.366 . S
C292 C293 1.414 . S
C292 C295 1.499 . S
C293 H267 0.981 . S
C293 C292 1.414 . S
C293 C294 1.374 . S
C294 H268 0.950 . S
C294 C290 1.385 . S
C294 C293 1.374 . S
C295 C292 1.499 . S
C295 C296 1.373 1_655 S
C295 C297 1.389 1_556 S
C296 H269 0.950 . S
C296 C282 1.377 1_565 S
C296 C295 1.373 1_455 S
C297 C281 1.377 1_565 S
C297 C295 1.389 1_554 S
C297 C298 1.524 . S
C298 C297 1.524 . S
C298 C299 1.397 . S
C298 C303 1.363 . S
C299 H270 0.950 . S
C299 C298 1.397 . S
C299 C300 1.334 . S
C300 H271 0.950 . S
C300 C299 1.334 . S
C300 C301 1.287 . S
C301 C300 1.287 . S
C301 C302 1.524 . S
C301 H304 0.999 . S
C302 H272 0.950 . S
C302 C301 1.524 . S
C302 C303 1.415 . S
C303 H273 0.950 1_565 S
C303 C298 1.363 . S
C303 C302 1.415 . S
H304 C301 0.999 . S
H305 C286 0.913 . S
H306 C324 0.951 . S
H307 C326 0.951 . S
H308 C328 0.950 . S
H309 C329 0.950 . S
H310 C331 0.950 . S
H311 C334 0.950 . S
H312 C335 0.950 . S
H313 C337 0.950 . S
H314 C338 0.950 . S
H315 C339 0.951 . S
H316 C341 0.951 . S
H317 C343 0.950 . S
H318 C344 0.950 . S
H319 C346 0.950 . S
H320 C349 0.950 . S
H321 C350 0.950 . S
H322 C352 0.950 . S
H323 C353 0.950 . S
C324 H306 0.951 . S
C324 C325 1.366 . S
C324 C326 1.388 . S
C325 C324 1.366 . S
C325 C329 1.385 . S
C326 H307 0.951 . S
C326 C324 1.388 . S
C326 C327 1.366 . S
C327 C326 1.366 . S
C327 C328 1.414 . S
C327 C330 1.499 . S
C328 H308 0.950 . S
C328 C327 1.414 . S
C328 C329 1.374 . S
C329 H309 0.950 . S
C329 C325 1.385 . S
C329 C328 1.374 . S
C330 C327 1.499 . S
C330 C331 1.373 1_545 S
C330 C332 1.389 1_556 S
C331 H310 0.950 . S
C331 C330 1.373 1_565 S
C331 C347 1.377 . S
C332 C330 1.389 1_554 S
C332 C333 1.524 . S
C332 C346 1.377 . S
C333 C332 1.524 . S
C333 C334 1.397 . S
C333 C338 1.363 . S
C334 H311 0.950 . S
C334 C333 1.397 . S
C334 C335 1.334 . S
C335 H312 0.950 . S
C335 C334 1.334 . S
C335 C336 1.287 . S
C336 C335 1.287 . S
C336 C337 1.524 . S
C336 H355 0.913 . S
C337 H313 0.950 . S
C337 C336 1.524 . S
C337 C338 1.415 . S
C338 H314 0.950 . S
C338 C333 1.363 . S
C338 C337 1.415 . S
C339 H315 0.951 . S
C339 C340 1.366 . S
C339 C341 1.388 . S
C340 C339 1.366 . S
C340 C344 1.385 . S
C341 H316 0.951 . S
C341 C339 1.388 . S
C341 C342 1.366 . S
C342 C341 1.366 . S
C342 C343 1.414 . S
C342 C345 1.499 . S
C343 H317 0.950 . S
C343 C342 1.414 . S
C343 C344 1.374 . S
C344 H318 0.950 . S
C344 C340 1.385 . S
C344 C343 1.374 . S
C345 C342 1.499 . S
C345 C346 1.373 1_565 S
C345 C347 1.389 1_554 S
C346 H319 0.950 . S
C346 C332 1.377 . S
C346 C345 1.373 1_545 S
C347 C331 1.377 . S
C347 C345 1.389 1_556 S
C347 C348 1.524 . S
C348 C347 1.524 . S
C348 C349 1.397 . S
C348 C353 1.363 . S
C349 H320 0.950 . S
C349 C348 1.397 . S
C349 C350 1.334 . S
C350 H321 0.950 . S
C350 C349 1.334 . S
C350 C351 1.287 . S
C351 C350 1.287 . S
C351 C352 1.524 . S
C351 H354 0.999 . S
C352 H322 0.950 . S
C352 C351 1.524 . S
C352 C353 1.415 . S
C353 H323 0.950 . S
C353 C348 1.363 . S
C353 C352 1.415 . S
H354 C351 0.999 . S
H355 C336 0.913 . S
H356 C374 0.951 . S
H357 C376 0.951 . S
H358 C378 0.950 . S
H359 C379 0.950 . S
H360 C381 0.950 . S
H361 C384 0.950 . S
H362 C385 0.950 . S
H363 C387 0.950 . S
H364 C388 0.950 . S
H365 C389 0.951 . S
H366 C391 0.951 . S
H367 C393 0.950 . S
H368 C394 0.950 . S
H369 C396 0.950 . S
H370 C399 0.950 . S
H371 C400 0.950 . S
H372 C402 0.950 . S
H373 C403 0.950 . S
C374 H356 0.951 . S
C374 C375 1.366 . S
C374 C376 1.388 . S
C375 C374 1.366 . S
C375 C379 1.385 . S
C376 H357 0.951 . S
C376 C374 1.388 . S
C376 C377 1.366 . S
C377 C376 1.366 . S
C377 C378 1.414 . S
C377 C380 1.499 . S
C378 H358 0.950 . S
C378 C377 1.414 . S
C378 C379 1.374 . S
C379 H359 0.950 . S
C379 C375 1.385 . S
C379 C378 1.374 . S
C380 C377 1.499 . S
C380 C381 1.373 1_655 S
C380 C382 1.389 . S
C381 H360 0.950 . S
C381 C380 1.373 1_455 S
C381 C397 1.377 . S
C382 C380 1.389 . S
C382 C383 1.524 . S
C382 C396 1.377 . S
C383 C382 1.524 . S
C383 C384 1.397 . S
C383 C388 1.363 . S
C384 H361 0.950 . S
C384 C383 1.397 . S
C384 C385 1.334 . S
C385 H362 0.950 . S
C385 C384 1.334 . S
C385 C386 1.287 . S
C386 C385 1.287 . S
C386 C387 1.524 . S
C386 H405 0.913 . S
C387 H363 0.950 . S
C387 C386 1.524 . S
C387 C388 1.415 . S
C388 H364 0.950 . S
C388 C383 1.363 . S
C388 C387 1.415 . S
C389 H365 0.951 . S
C389 C390 1.366 . S
C389 C391 1.388 . S
C390 C389 1.366 . S
C390 C394 1.385 . S
C391 H366 0.951 . S
C391 C389 1.388 . S
C391 C392 1.366 . S
C392 C391 1.366 . S
C392 C393 1.414 . S
C392 C395 1.499 . S
C393 H367 0.950 . S
C393 C392 1.414 . S
C393 C394 1.374 . S
C394 H368 0.950 . S
C394 C390 1.385 . S
C394 C393 1.374 . S
C395 C392 1.499 . S
C395 C396 1.373 1_455 S
C395 C397 1.389 . S
C396 H369 0.950 . S
C396 C382 1.377 . S
C396 C395 1.373 1_655 S
C397 C381 1.377 . S
C397 C395 1.389 . S
C397 C398 1.524 . S
C398 C397 1.524 . S
C398 C399 1.397 . S
C398 C403 1.363 . S
C399 H370 0.950 . S
C399 C398 1.397 . S
C399 C400 1.334 . S
C400 H371 0.950 . S
C400 C399 1.334 . S
C400 C401 1.287 . S
C401 C400 1.287 . S
C401 C402 1.524 . S
C401 H404 0.999 . S
C402 H372 0.950 . S
C402 C401 1.524 . S
C402 C403 1.415 . S
C403 H373 0.950 . S
C403 C398 1.363 . S
C403 C402 1.415 . S
H404 C401 0.999 . S
H405 C386 0.913 . S
H406 C424 0.951 . S
H407 C426 0.951 . S
H408 C428 0.950 . S
H409 C429 0.950 . S
H410 C431 0.950 . S
H411 C434 0.950 . S
H412 C435 0.950 . S
H413 C437 0.950 . S
H414 C438 0.950 . S
H415 C439 0.951 . S
H416 C441 0.951 . S
H417 C443 0.950 . S
H418 C444 0.950 . S
H419 C446 0.950 . S
H420 C449 0.950 . S
H421 C450 0.950 . S
H422 C452 0.950 . S
H423 C453 0.950 . S
C424 H406 0.951 . S
C424 C425 1.366 . S
C424 C426 1.388 . S
C425 C424 1.366 . S
C425 C429 1.385 . S
C426 H407 0.951 . S
C426 C424 1.388 . S
C426 C427 1.366 . S
C427 C426 1.366 . S
C427 C428 1.414 . S
C427 C430 1.499 . S
C428 H408 0.950 . S
C428 C427 1.414 . S
C428 C429 1.374 . S
C429 H409 0.950 . S
C429 C425 1.385 . S
C429 C428 1.374 . S
C430 C427 1.499 . S
C430 C431 1.373 . S
C430 C432 1.389 . S
C431 H410 0.950 . S
C431 C430 1.373 . S
C431 C447 1.377 . S
C432 C430 1.389 . S
C432 C433 1.524 . S
C432 C446 1.377 . S
C433 C432 1.524 . S
C433 C434 1.397 . S
C433 C438 1.363 . S
C434 H411 0.950 . S
C434 C433 1.397 . S
C434 C435 1.334 . S
C435 H412 0.950 . S
C435 C434 1.334 . S
C435 C436 1.287 . S
C436 C435 1.287 . S
C436 C437 1.524 . S
C436 H455 0.913 . S
C437 H413 0.950 . S
C437 C436 1.524 . S
C437 C438 1.415 . S
C438 H414 0.950 . S
C438 C433 1.363 . S
C438 C437 1.415 . S
C439 H415 0.951 . S
C439 C440 1.366 . S
C439 C441 1.388 . S
C440 C439 1.366 . S
C440 C444 1.385 . S
C441 H416 0.951 . S
C441 C439 1.388 . S
C441 C442 1.366 . S
C442 C441 1.366 . S
C442 C443 1.414 . S
C442 C445 1.499 . S
C443 H417 0.950 . S
C443 C442 1.414 . S
C443 C444 1.374 . S
C444 H418 0.950 . S
C444 C440 1.385 . S
C444 C443 1.374 . S
C445 C442 1.499 . S
C445 C446 1.373 . S
C445 C447 1.389 . S
C446 H419 0.950 . S
C446 C432 1.377 . S
C446 C445 1.373 . S
C447 C431 1.377 . S
C447 C445 1.389 . S
C447 C448 1.524 . S
C448 C447 1.524 . S
C448 C449 1.397 . S
C448 C453 1.363 . S
C449 H420 0.950 . S
C449 C448 1.397 . S
C449 C450 1.334 . S
C450 H421 0.950 . S
C450 C449 1.334 . S
C450 C451 1.287 . S
C451 C450 1.287 . S
C451 C452 1.524 . S
C451 H454 0.999 . S
C452 H422 0.950 . S
C452 C451 1.524 . S
C452 C453 1.415 . S
C453 H423 0.950 . S
C453 C448 1.363 . S
C453 C452 1.415 . S
H454 C451 0.999 . S
H455 C436 0.913 . S
C75 C22 1.256 . S
C90 C9 1.255 . S
C125 C8 1.256 . S
C140 C23 1.256 . S
C175 C50 1.255 . S
C190 C37 1.256 . S
C225 C36 1.255 . S
C240 C51 1.256 . S
C275 C7 1.475 . S
C290 C35 1.475 . S
C325 C48 1.475 . S
C340 C20 1.475 . S
C375 C34 1.475 . S
C390 C6 1.475 . S
C425 C21 1.475 . S
C440 C49 1.475 . S
