# Generated by pormake.
# Topology skb, (5)-cn, num edge types: 1
# Building blocks:
#     Node 0, Type 0, BuildingBlock: XOMCOT_clean_sbu_1, # of connection points: 5
#     Node 1, Type 0, BuildingBlock: XOMCOT_clean_sbu_1, # of connection points: 5
#     Node 2, Type 0, BuildingBlock: XOMCOT_clean_sbu_1, # of connection points: 5
#     Node 3, Type 0, BuildingBlock: XOMCOT_clean_sbu_1, # of connection points: 5
#     Node 4, Type 0, BuildingBlock: XOMCOT_clean_sbu_1, # of connection points: 5
#     Node 5, Type 0, BuildingBlock: XOMCOT_clean_sbu_1, # of connection points: 5
#     Node 6, Type 0, BuildingBlock: XOMCOT_clean_sbu_1, # of connection points: 5
#     Node 7, Type 0, BuildingBlock: XOMCOT_clean_sbu_1, # of connection points: 5
#     Node 8, Type 0, BuildingBlock: XOMCOT_clean_sbu_1, # of connection points: 5
#     Node 9, Type 0, BuildingBlock: XOMCOT_clean_sbu_1, # of connection points: 5
#     Node 10, Type 0, BuildingBlock: XOMCOT_clean_sbu_1, # of connection points: 5
#     Node 11, Type 0, BuildingBlock: XOMCOT_clean_sbu_1, # of connection points: 5
#     Node 12, Type 0, BuildingBlock: XOMCOT_clean_sbu_1, # of connection points: 5
#     Node 13, Type 0, BuildingBlock: XOMCOT_clean_sbu_1, # of connection points: 5
#     Node 14, Type 0, BuildingBlock: XOMCOT_clean_sbu_1, # of connection points: 5
#     Node 15, Type 0, BuildingBlock: XOMCOT_clean_sbu_1, # of connection points: 5
#     Edge 16, Type (0, 0), None
#     Edge 17, Type (0, 0), None
#     Edge 18, Type (0, 0), None
#     Edge 19, Type (0, 0), None
#     Edge 20, Type (0, 0), None
#     Edge 21, Type (0, 0), None
#     Edge 22, Type (0, 0), None
#     Edge 23, Type (0, 0), None
#     Edge 24, Type (0, 0), None
#     Edge 25, Type (0, 0), None
#     Edge 26, Type (0, 0), None
#     Edge 27, Type (0, 0), None
#     Edge 28, Type (0, 0), None
#     Edge 29, Type (0, 0), None
#     Edge 30, Type (0, 0), None
#     Edge 31, Type (0, 0), None
#     Edge 32, Type (0, 0), None
#     Edge 33, Type (0, 0), None
#     Edge 34, Type (0, 0), None
#     Edge 35, Type (0, 0), None
#     Edge 36, Type (0, 0), None
#     Edge 37, Type (0, 0), None
#     Edge 38, Type (0, 0), None
#     Edge 39, Type (0, 0), None
#     Edge 40, Type (0, 0), None
#     Edge 41, Type (0, 0), None
#     Edge 42, Type (0, 0), None
#     Edge 43, Type (0, 0), None
#     Edge 44, Type (0, 0), None
#     Edge 45, Type (0, 0), None
#     Edge 46, Type (0, 0), None
#     Edge 47, Type (0, 0), None
#     Edge 48, Type (0, 0), None
#     Edge 49, Type (0, 0), None
#     Edge 50, Type (0, 0), None
#     Edge 51, Type (0, 0), None
#     Edge 52, Type (0, 0), None
#     Edge 53, Type (0, 0), None
#     Edge 54, Type (0, 0), None
#     Edge 55, Type (0, 0), None
# Relax obj value: 0.052
# Max RMSD: 0.095
# Mean RMSD: 0.095
data_MOF--net-skb--node1-XOMCOT_clean_sbu_1--edge1-none
_symmetry_space_group_name_H-M    P1
_symmetry_Int_Tables_number       1
_symmetry_cell_setting            triclinic
loop_
_symmetry_equiv_pos_as_xyz
'x, y, z'
_cell_length_a     27.097514
_cell_length_b     12.131387
_cell_length_c     36.403732
_cell_angle_alpha  89.999929
_cell_angle_beta   89.99951
_cell_angle_gamma 89.990249
loop_
_atom_site_label
_atom_site_type_symbol
_atom_site_fract_x
_atom_site_fract_y
_atom_site_fract_z
_atom_type_partial_charge
C0 C 0.14684 0.21943 0.09972 0.0
C1 C 0.14686 0.20538 0.06216 0.0
N2 N 0.1605 0.10104 0.0553 0.0
N3 N 0.16106 0.12461 0.11623 0.0
C4 C 0.16881 0.05359 0.08814 0.0
H5 H 0.13595 0.29373 0.11388 0.0
Co6 Co 0.16696 0.09772 0.16698 0.0
C7 C 0.20327 0.8584 0.16 0.0
O8 O 0.16087 0.81176 0.16785 0.0
N9 N 0.17467 0.06677 0.21826 0.0
C10 C 0.1696 0.98424 0.2731 0.0
C11 C 0.14951 0.99139 0.23847 0.0
C12 C 0.21072 0.10208 0.24131 0.0
N13 N 0.20748 0.05497 0.27466 0.0
O14 O 0.22428 0.18068 0.16737 0.0
H15 H 0.11995 0.93999 0.22829 0.0
H16 H 0.2406 0.15627 0.23358 0.0
O17 O 0.20638 0.96338 0.15807 0.0
C18 C 0.20933 0.27896 0.1733 0.0
O19 O 0.16242 0.29817 0.17944 0.0
N20 N 0.10387 1.03886 0.16678 0.0
C21 C 0.00317 0.06955 0.1563 0.0
C22 C 0.02846 0.98631 0.13693 0.0
C23 C 0.07977 0.97392 0.14192 0.0
C24 C 0.07858 0.11644 0.18643 0.0
C25 C 0.02865 0.13304 0.18164 0.0
H26 H 0.10009 0.91811 0.12443 0.0
H27 H 0.0978 0.17235 0.20446 0.0
H28 H 0.17939 0.96829 0.09149 0.0
H29 H 0.1358 0.26518 0.04169 0.0
H30 H 0.15937 0.92715 0.29463 0.0
H31 H 0.00903 0.9339 0.11768 0.0
H32 H 0.00998 0.19567 0.19773 0.0
C33 C 0.8056 0.92983 0.09973 0.0
C34 C 0.80561 0.94387 0.06217 0.0
N35 N 0.79196 1.0482 0.0553 0.0
N36 N 0.79136 1.02464 0.11623 0.0
C37 C 0.78362 0.09565 0.08814 0.0
H38 H 0.8165 0.85554 0.11389 0.0
Co39 Co 0.78545 0.05155 0.16698 0.0
C40 C 0.74913 0.29085 0.16 0.0
O41 O 0.79152 0.33748 0.16786 0.0
N42 N 0.77772 0.08251 0.21826 0.0
C43 C 0.78274 0.16512 0.27308 0.0
C44 C 0.80285 0.15796 0.23846 0.0
C45 C 0.74168 1.04716 0.24131 0.0
N46 N 0.7449 0.09432 0.27465 0.0
O47 O 0.72813 0.96857 0.16736 0.0
H48 H 0.8324 0.20938 0.22827 0.0
H49 H 0.71182 0.99291 0.23358 0.0
O50 O 0.74602 0.18587 0.15806 0.0
C51 C 0.74309 0.87029 0.1733 0.0
O52 O 0.78999 0.85108 0.17944 0.0
N53 N 0.84853 0.11043 0.16679 0.0
C54 C 0.94922 0.07975 0.1563 0.0
C55 C 0.92394 0.16297 0.13693 0.0
C56 C 0.87263 0.17536 0.14192 0.0
C57 C 0.87383 1.03286 0.18644 0.0
C58 C 0.92375 1.01627 0.18164 0.0
H59 H 0.85231 0.23116 0.12443 0.0
H60 H 0.8546 0.97696 0.20447 0.0
H61 H 0.77303 0.18095 0.09149 0.0
H62 H 0.81669 0.88408 0.0417 0.0
H63 H 0.79296 0.22226 0.29461 0.0
H64 H 0.94336 0.21538 0.11768 0.0
H65 H 0.94242 0.95365 0.19774 0.0
C66 C 0.14692 0.92989 0.97644 0.0
C67 C 0.1469 0.94399 1.014 0.0
N68 N 0.16045 1.04839 1.02085 0.0
N69 N 0.16111 1.02471 0.95992 0.0
C70 C 0.16879 0.09578 0.98801 0.0
H71 H 0.13609 0.85553 0.96229 0.0
Co72 Co 0.16703 0.05159 0.90918 0.0
C73 C 0.20335 0.29087 0.91615 0.0
O74 O 0.16095 0.33754 0.90828 0.0
N75 N 0.17478 0.08254 0.85789 0.0
C76 C 0.16976 0.16514 0.80307 0.0
C77 C 0.14964 0.15799 0.83769 0.0
C78 C 0.21083 1.04719 0.83485 0.0
N79 N 0.20762 0.09435 0.80151 0.0
O80 O 0.22435 0.96858 0.90881 0.0
H81 H 0.12008 0.20942 0.84787 0.0
H82 H 0.24069 0.99294 0.84259 0.0
O83 O 0.20645 0.18589 0.91809 0.0
C84 C 0.20939 0.87031 0.90286 0.0
O85 O 0.16248 0.85115 0.89672 0.0
N86 N 0.10394 0.11051 0.90935 0.0
C87 C 0.00325 0.07977 0.91983 0.0
C88 C 0.02851 0.16302 0.9392 0.0
C89 C 0.07982 0.17544 0.93421 0.0
C90 C 0.07866 1.03293 0.8897 0.0
C91 C 0.02874 1.01632 0.89449 0.0
H92 H 0.10013 0.23126 0.9517 0.0
H93 H 0.0979 0.97704 0.87167 0.0
H94 H 0.17937 0.18108 0.98465 0.0
H95 H 0.13589 0.88417 1.03449 0.0
H96 H 0.15954 0.22227 0.78154 0.0
H97 H 0.00908 0.21542 0.95845 0.0
H98 H 0.01009 0.95369 0.8784 0.0
C99 C 0.80558 0.21937 0.97645 0.0
C100 C 0.80557 0.20527 1.01401 0.0
N101 N 0.79203 0.10086 1.02085 0.0
N102 N 0.79142 0.12455 0.95992 0.0
C103 C 0.78372 0.05347 0.988 0.0
H104 H 0.8164 0.29375 0.96231 0.0
Co105 Co 0.78552 0.09769 0.90917 0.0
C106 C 0.74921 0.85839 0.91616 0.0
O107 O 0.79161 0.8117 0.90833 0.0
N108 N 0.77779 0.06675 0.85789 0.0
C109 C 0.78284 0.98416 0.80306 0.0
C110 C 0.80294 0.99131 0.83769 0.0
C111 C 0.74175 0.10211 0.83484 0.0
N112 N 0.74498 0.05495 0.8015 0.0
O113 O 0.72819 0.18068 0.9088 0.0
H114 H 0.83249 0.93987 0.84787 0.0
H115 H 0.71188 0.15636 0.84257 0.0
O116 O 0.7461 0.96337 0.91808 0.0
C117 C 0.74315 0.27895 0.90286 0.0
O118 O 0.79006 0.29812 0.89672 0.0
N119 N 0.84861 1.0388 0.90936 0.0
C120 C 0.9493 0.06953 0.91983 0.0
C121 C 0.92404 0.98629 0.9392 0.0
C122 C 0.87273 0.97387 0.93422 0.0
C123 C 0.87389 0.11638 0.88971 0.0
C124 C 0.92381 0.133 0.8945 0.0
H125 H 0.85243 0.91806 0.95171 0.0
H126 H 0.85465 0.17228 0.87168 0.0
H127 H 0.77316 0.96817 0.98464 0.0
H128 H 0.81656 0.26509 1.0345 0.0
H129 H 0.79306 0.92703 0.78154 0.0
H130 H 0.94348 0.93389 0.95845 0.0
H131 H 0.94246 0.19563 0.8784 0.0
C132 C 0.14693 0.71948 0.59973 0.0
C133 C 0.14692 0.70544 0.56217 0.0
N134 N 0.16054 0.60109 0.5553 0.0
N135 N 0.16115 0.62466 0.61623 0.0
C136 C 0.16886 0.55363 0.58814 0.0
H137 H 0.13605 0.7938 0.61389 0.0
Co138 Co 0.16705 0.59775 0.66698 0.0
C139 C 0.20337 0.35845 0.66001 0.0
O140 O 0.16097 0.31181 0.66788 0.0
N141 N 0.17477 0.56679 0.71826 0.0
C142 C 0.16972 0.4842 0.77309 0.0
C143 C 0.14963 0.49136 0.73846 0.0
C144 C 0.2108 0.60212 0.74131 0.0
N145 N 0.20758 0.55497 0.77465 0.0
O146 O 0.22437 0.68072 0.66736 0.0
H147 H 0.12007 0.43994 0.72828 0.0
H148 H 0.24068 0.65635 0.73358 0.0
O149 O 0.20647 0.46343 0.65806 0.0
C150 C 0.20941 0.779 0.67331 0.0
O151 O 0.16251 0.79821 0.67945 0.0
N152 N 0.10396 0.53887 0.66678 0.0
C153 C 0.00327 0.56955 0.6563 0.0
C154 C 0.02855 0.48631 0.63694 0.0
C155 C 0.07986 0.47392 0.64192 0.0
C156 C 0.07867 0.61645 0.68643 0.0
C157 C 0.02874 0.63303 0.68164 0.0
H158 H 0.10018 0.41811 0.62444 0.0
H159 H 0.09789 0.67236 0.70446 0.0
H160 H 0.17943 0.46832 0.59149 0.0
H161 H 0.13586 0.76524 0.5417 0.0
H162 H 0.1595 0.42707 0.79461 0.0
H163 H 0.00913 0.43389 0.61769 0.0
H164 H 0.01007 0.69566 0.69773 0.0
C165 C 0.80568 0.42989 0.59973 0.0
C166 C 0.80565 0.44393 0.56216 0.0
N167 N 0.79198 0.54825 0.55531 0.0
N168 N 0.79143 0.52468 0.61624 0.0
C169 C 0.78366 0.59569 0.58814 0.0
H170 H 0.8166 0.3556 0.61389 0.0
Co171 Co 0.78553 0.55157 0.66698 0.0
C172 C 0.74922 0.79089 0.65999 0.0
O173 O 0.79163 0.83755 0.66781 0.0
N174 N 0.77782 0.58252 0.71827 0.0
C175 C 0.78285 0.66514 0.77309 0.0
C176 C 0.80295 0.65798 0.73846 0.0
C177 C 0.7418 0.54715 0.74132 0.0
N178 N 0.74501 0.59432 0.77466 0.0
O179 O 0.72821 0.46861 0.66737 0.0
H180 H 0.83249 0.70943 0.72827 0.0
H181 H 0.71193 0.49289 0.7336 0.0
O182 O 0.74611 0.68591 0.65808 0.0
C183 C 0.74317 0.37033 0.6733 0.0
O184 O 0.79008 0.35112 0.67944 0.0
N185 N 0.84862 0.61044 0.66679 0.0
C186 C 0.94931 0.57974 0.6563 0.0
C187 C 0.92403 0.66295 0.63693 0.0
C188 C 0.87272 0.67535 0.64191 0.0
C189 C 0.87392 0.53288 0.68644 0.0
C190 C 0.92384 0.51628 0.68165 0.0
H191 H 0.8524 0.73113 0.62442 0.0
H192 H 0.85469 0.47698 0.70448 0.0
H193 H 0.77306 0.68098 0.59149 0.0
H194 H 0.81673 0.38415 0.54169 0.0
H195 H 0.79306 0.72229 0.79461 0.0
H196 H 0.94345 0.71534 0.61767 0.0
H197 H 0.94252 0.45367 0.69774 0.0
C198 C 0.14687 0.42994 0.47645 0.0
C199 C 0.14688 0.44404 0.51401 0.0
N200 N 0.16046 0.54843 0.52085 0.0
N201 N 0.16106 0.52474 0.45992 0.0
C202 C 0.16878 0.59581 0.488 0.0
H203 H 0.13602 0.35559 0.46231 0.0
Co204 Co 0.16696 0.5516 0.40917 0.0
C205 C 0.20326 0.79091 0.41617 0.0
O206 O 0.16085 0.83761 0.40838 0.0
N207 N 0.17468 0.58253 0.35789 0.0
C208 C 0.16967 0.66522 0.30308 0.0
C209 C 0.14957 0.65806 0.3377 0.0
C210 C 0.2107 0.54712 0.33483 0.0
N211 N 0.2075 0.59434 0.3015 0.0
O212 O 0.22429 0.46861 0.40879 0.0
H213 H 0.12005 0.70956 0.3479 0.0
H214 H 0.24055 0.4928 0.34255 0.0
O215 O 0.20637 0.68592 0.41807 0.0
C216 C 0.20932 0.37034 0.40286 0.0
O217 O 0.16241 0.35117 0.39673 0.0
N218 N 0.10386 0.61049 0.40936 0.0
C219 C 0.00317 0.57973 0.41983 0.0
C220 C 0.02843 0.66295 0.43921 0.0
C221 C 0.07974 0.67538 0.43423 0.0
C222 C 0.07858 0.53293 0.38969 0.0
C223 C 0.02867 0.5163 0.39448 0.0
H224 H 0.10005 0.73117 0.45173 0.0
H225 H 0.09782 0.47705 0.37166 0.0
H226 H 0.17937 0.6811 0.48464 0.0
H227 H 0.13588 0.38424 0.5345 0.0
H228 H 0.15948 0.72242 0.28156 0.0
H229 H 0.009 0.71532 0.45847 0.0
H230 H 0.01001 0.45369 0.37838 0.0
C231 C 0.80552 0.71942 0.47644 0.0
C232 C 0.80554 0.70532 0.51401 0.0
N233 N 0.79202 0.6009 0.52085 0.0
N234 N 0.79136 0.62458 0.45992 0.0
C235 C 0.78369 0.5535 0.48801 0.0
H236 H 0.81633 0.7938 0.4623 0.0
Co237 Co 0.78544 0.5977 0.40918 0.0
C238 C 0.74912 0.35842 0.41614 0.0
O239 O 0.79152 0.31175 0.40827 0.0
N240 N 0.77771 0.56675 0.35789 0.0
C241 C 0.78274 0.48417 0.30306 0.0
C242 C 0.80285 0.49133 0.33768 0.0
C243 C 0.74165 0.60208 0.33485 0.0
N244 N 0.74487 0.55495 0.30151 0.0
O245 O 0.72812 0.68071 0.4088 0.0
H246 H 0.83242 0.43991 0.34786 0.0
H247 H 0.71178 0.65632 0.34259 0.0
O248 O 0.74602 0.4634 0.41809 0.0
C249 C 0.74308 0.77898 0.40286 0.0
O250 O 0.78999 0.79815 0.39671 0.0
N251 N 0.84853 0.53879 0.40936 0.0
C252 C 0.94922 0.56949 0.41983 0.0
C253 C 0.92396 0.48624 0.4392 0.0
C254 C 0.87265 0.47383 0.43421 0.0
C255 C 0.87381 0.61637 0.38971 0.0
C256 C 0.92373 0.63297 0.3945 0.0
H257 H 0.85234 0.418 0.4517 0.0
H258 H 0.85457 0.67228 0.37168 0.0
H259 H 0.77314 0.46819 0.48465 0.0
H260 H 0.81653 0.76515 0.53449 0.0
H261 H 0.79297 0.42706 0.28153 0.0
H262 H 0.9434 0.43383 0.45844 0.0
H263 H 0.94239 0.69561 0.37841 0.0
C264 C 0.64678 0.2195 0.59973 0.0
C265 C 0.64672 0.20544 0.56217 0.0
N266 N 0.66032 0.10108 0.5553 0.0
N267 N 0.66101 0.12468 0.61623 0.0
C268 C 0.66868 0.05364 0.58813 0.0
H269 H 0.63594 0.29384 0.6139 0.0
Co270 Co 0.66703 0.09779 0.66697 0.0
C271 C 0.70337 0.85857 0.66005 0.0
O272 O 0.66103 0.81199 0.66809 0.0
N273 N 0.67488 0.06683 0.71825 0.0
C274 C 0.66999 0.98433 0.77311 0.0
C275 C 0.64974 0.99158 0.73853 0.0
C276 C 0.71106 0.102 0.7412 0.0
N277 N 0.70797 0.05478 0.77453 0.0
O278 O 0.72432 0.18087 0.66729 0.0
H279 H 0.62006 0.94036 0.72844 0.0
H280 H 0.74093 0.15615 0.73341 0.0
O281 O 0.70647 0.96353 0.658 0.0
C282 C 0.70935 0.27912 0.67328 0.0
O283 O 0.66245 0.29828 0.67946 0.0
N284 N 0.60397 1.0388 0.66685 0.0
C285 C 0.50327 0.06952 0.65641 0.0
C286 C 0.52853 0.98624 0.63704 0.0
C287 C 0.57984 0.97383 0.64201 0.0
C288 C 0.57869 0.11639 0.68651 0.0
C289 C 0.52876 0.13299 0.68173 0.0
H290 H 0.60015 0.91799 0.62453 0.0
H291 H 0.59793 0.17231 0.70453 0.0
H292 H 0.67926 0.96834 0.59148 0.0
H293 H 0.63564 0.26525 0.5417 0.0
H294 H 0.65977 0.92738 0.79469 0.0
H295 H 0.50909 0.93383 0.6178 0.0
H296 H 0.51011 0.19564 0.69783 0.0
C297 C 0.30582 0.92986 0.59974 0.0
C298 C 0.30585 0.94392 0.56217 0.0
N299 N 0.29221 1.04826 0.55531 0.0
N300 N 0.29157 1.02466 0.61624 0.0
C301 C 0.28385 0.09568 0.58814 0.0
H302 H 0.31669 0.85555 0.6139 0.0
Co303 Co 0.28556 0.05153 0.66698 0.0
C304 C 0.24922 0.29077 0.66004 0.0
O305 O 0.29158 0.33737 0.66804 0.0
N306 N 0.27772 0.08247 0.71826 0.0
C307 C 0.2826 0.16499 0.77312 0.0
C308 C 0.30285 0.15774 0.73854 0.0
C309 C 0.24154 1.04728 0.74122 0.0
N310 N 0.24463 0.09451 0.77455 0.0
O311 O 0.22827 0.96846 0.6673 0.0
H312 H 0.33252 0.20898 0.72844 0.0
H313 H 0.21168 0.99312 0.73343 0.0
O314 O 0.24612 0.1858 0.65803 0.0
C315 C 0.24323 0.87021 0.67328 0.0
O316 O 0.29013 0.85104 0.67945 0.0
N317 N 0.34862 0.1105 0.66686 0.0
C318 C 0.44932 0.07978 0.65641 0.0
C319 C 0.42406 0.16303 0.63704 0.0
C320 C 0.37274 0.17545 0.64201 0.0
C321 C 0.3739 1.03293 0.68652 0.0
C322 C 0.42383 1.01632 0.68174 0.0
H323 H 0.35243 0.23127 0.62452 0.0
H324 H 0.35466 0.97702 0.70454 0.0
H325 H 0.27324 0.18097 0.59149 0.0
H326 H 0.31693 0.88413 0.5417 0.0
H327 H 0.29281 0.22195 0.79469 0.0
H328 H 0.44349 0.21543 0.61779 0.0
H329 H 0.44248 0.95368 0.69784 0.0
C330 C 0.64673 0.92991 0.47644 0.0
C331 C 0.64669 0.94403 0.514 0.0
N332 N 0.66023 1.04843 0.52084 0.0
N333 N 0.66092 1.02472 0.45992 0.0
C334 C 0.66859 0.09581 0.488 0.0
H335 H 0.63593 0.85553 0.46229 0.0
Co336 Co 0.66694 0.05156 0.40917 0.0
C337 C 0.70327 0.29079 0.41612 0.0
O338 O 0.66091 0.33743 0.40815 0.0
N339 N 0.67479 0.08248 0.35789 0.0
C340 C 0.66993 0.16509 0.30305 0.0
C341 C 0.64968 0.15783 0.33762 0.0
C342 C 0.71096 1.04724 0.33493 0.0
N343 N 0.70789 0.09453 0.30161 0.0
O344 O 0.72423 0.96846 0.40886 0.0
H345 H 0.62003 0.20913 0.34773 0.0
H346 H 0.7408 0.993 0.34272 0.0
O347 O 0.70637 0.18581 0.41812 0.0
C348 C 0.70927 0.87022 0.40288 0.0
O349 O 0.66236 0.85109 0.39671 0.0
N350 N 0.60386 0.11055 0.40928 0.0
C351 C 0.50317 0.07976 0.41972 0.0
C352 C 0.52841 0.16302 0.4391 0.0
C353 C 0.57972 0.17548 0.43413 0.0
C354 C 0.5786 1.03298 0.38961 0.0
C355 C 0.52868 1.01634 0.39438 0.0
H356 H 0.60001 0.23131 0.45163 0.0
H357 H 0.59786 0.97709 0.37159 0.0
H358 H 0.67919 0.18109 0.48464 0.0
H359 H 0.63569 0.88422 0.53448 0.0
H360 H 0.65974 0.2221 0.28148 0.0
H361 H 0.50896 0.2154 0.45835 0.0
H362 H 0.51005 0.95371 0.37828 0.0
C363 C 0.30567 0.21944 0.47644 0.0
C364 C 0.30575 0.20533 0.514 0.0
N365 N 0.29224 0.1009 0.52085 0.0
N366 N 0.2915 0.12461 0.45992 0.0
C367 C 0.28387 0.05351 0.48801 0.0
H368 H 0.31644 0.29385 0.46229 0.0
Co369 Co 0.28546 0.09774 0.40918 0.0
C370 C 0.24912 0.85855 0.41611 0.0
O371 O 0.29146 0.81193 0.40805 0.0
N372 N 0.27759 0.0668 0.3579 0.0
C373 C 0.28247 0.9843 0.30304 0.0
C374 C 0.30273 0.99154 0.33761 0.0
C375 C 0.2414 0.10197 0.33496 0.0
N376 N 0.24448 0.05475 0.30163 0.0
O377 O 0.22817 0.18086 0.40887 0.0
H378 H 0.33242 0.94031 0.3477 0.0
H379 H 0.21153 0.15613 0.34276 0.0
O380 O 0.24602 0.96351 0.41815 0.0
C381 C 0.24314 0.2791 0.40288 0.0
O382 O 0.29004 0.29822 0.3967 0.0
N383 N 0.34853 1.03872 0.40929 0.0
C384 C 0.44922 0.06946 0.41972 0.0
C385 C 0.42398 0.98617 0.43909 0.0
C386 C 0.37267 0.97374 0.43412 0.0
C387 C 0.37379 0.11631 0.38962 0.0
C388 C 0.42371 0.13293 0.3944 0.0
H389 H 0.35238 0.91788 0.4516 0.0
H390 H 0.35453 0.17222 0.37161 0.0
H391 H 0.27331 0.96821 0.48466 0.0
H392 H 0.31674 0.26517 0.53448 0.0
H393 H 0.29269 0.92735 0.28146 0.0
H394 H 0.44344 0.93376 0.45833 0.0
H395 H 0.44235 0.19559 0.37831 0.0
C396 C 0.64669 0.71944 0.09973 0.0
C397 C 0.64666 0.70538 0.06217 0.0
N398 N 0.66028 0.60104 0.0553 0.0
N399 N 0.66093 0.62464 0.11623 0.0
C400 C 0.66863 0.5536 0.08814 0.0
H401 H 0.63583 0.79377 0.11389 0.0
Co402 Co 0.66694 0.59776 0.16698 0.0
C403 C 0.70328 0.35852 0.16003 0.0
O404 O 0.66092 0.31192 0.16803 0.0
N405 N 0.67478 0.56682 0.21826 0.0
C406 C 0.6699 0.48429 0.27311 0.0
C407 C 0.64965 0.49154 0.23853 0.0
C408 C 0.71096 0.60201 0.24122 0.0
N409 N 0.70787 0.55477 0.27454 0.0
O410 O 0.72423 0.68082 0.1673 0.0
H411 H 0.61999 0.44028 0.22843 0.0
H412 H 0.74082 0.65619 0.23342 0.0
O413 O 0.70638 0.46349 0.15802 0.0
C414 C 0.70927 0.77908 0.17328 0.0
O415 O 0.66237 0.79825 0.17945 0.0
N416 N 0.60388 0.53879 0.16685 0.0
C417 C 0.50317 0.56952 0.15642 0.0
C418 C 0.52844 0.48627 0.13704 0.0
C419 C 0.57975 0.47385 0.14201 0.0
C420 C 0.5786 0.61636 0.18652 0.0
C421 C 0.52867 0.63297 0.18175 0.0
H422 H 0.60005 0.41803 0.12451 0.0
H423 H 0.59784 0.67228 0.20454 0.0
H424 H 0.67924 0.46831 0.09148 0.0
H425 H 0.63559 0.76519 0.0417 0.0
H426 H 0.65969 0.42731 0.29469 0.0
H427 H 0.50899 0.43387 0.1178 0.0
H428 H 0.51002 0.69561 0.19785 0.0
C429 C 0.30574 0.42981 0.09974 0.0
C430 C 0.3058 0.44387 0.06218 0.0
N431 N 0.29217 0.54821 0.05531 0.0
N432 N 0.29149 0.52461 0.11624 0.0
C433 C 0.2838 0.59564 0.08814 0.0
H434 H 0.3166 0.35549 0.11391 0.0
Co435 Co 0.28547 0.5515 0.16698 0.0
C436 C 0.24912 0.79073 0.16004 0.0
O437 O 0.29147 0.83732 0.16806 0.0
N438 N 0.27761 0.58245 0.21826 0.0
C439 C 0.28246 0.66506 0.2731 0.0
C440 C 0.30272 0.65779 0.23853 0.0
C441 C 0.24145 0.54723 0.24122 0.0
N442 N 0.24451 0.59452 0.27454 0.0
O443 O 0.22818 0.46842 0.1673 0.0
H444 H 0.33237 0.70907 0.22842 0.0
H445 H 0.2116 0.49301 0.23343 0.0
O446 O 0.24602 0.68576 0.15801 0.0
C447 C 0.24314 0.37017 0.17328 0.0
O448 O 0.29005 0.35101 0.17946 0.0
N449 N 0.34853 0.6105 0.16686 0.0
C450 C 0.44922 0.57979 0.15642 0.0
C451 C 0.42396 0.66303 0.13704 0.0
C452 C 0.37265 0.67544 0.14201 0.0
C453 C 0.37381 0.53294 0.18653 0.0
C454 C 0.42373 0.51633 0.18176 0.0
H455 H 0.35234 0.73126 0.12452 0.0
H456 H 0.35456 0.47703 0.20455 0.0
H457 H 0.2732 0.68094 0.09148 0.0
H458 H 0.31688 0.38407 0.04171 0.0
H459 H 0.29265 0.72208 0.29467 0.0
H460 H 0.4434 0.71542 0.11779 0.0
H461 H 0.44239 0.4537 0.19786 0.0
C462 C 0.64678 0.42987 0.97643 0.0
C463 C 0.64671 0.44398 1.014 0.0
N464 N 0.66024 0.54839 1.02084 0.0
N465 N 0.66097 0.52469 0.95992 0.0
C466 C 0.66862 0.59578 0.98801 0.0
H467 H 0.636 0.35548 0.96228 0.0
Co468 Co 0.66701 0.55155 0.90917 0.0
C469 C 0.70336 0.79075 0.91611 0.0
O470 O 0.661 0.83738 0.9081 0.0
N471 N 0.67488 0.58249 0.8579 0.0
C472 C 0.67004 0.66509 0.80305 0.0
C473 C 0.64978 0.65783 0.83762 0.0
C474 C 0.71106 0.54726 0.83494 0.0
N475 N 0.708 0.59454 0.80162 0.0
O476 O 0.7243 0.46843 0.90887 0.0
H477 H 0.62012 0.70912 0.84772 0.0
H478 H 0.74091 0.49302 0.84274 0.0
O479 O 0.70645 0.68578 0.91814 0.0
C480 C 0.70933 0.37019 0.90288 0.0
O481 O 0.66243 0.35107 0.8967 0.0
N482 N 0.60395 0.61057 0.90928 0.0
C483 C 0.50325 0.57981 0.91971 0.0
C484 C 0.52849 0.66307 0.93909 0.0
C485 C 0.5798 0.67552 0.93412 0.0
C486 C 0.57869 0.53301 0.8896 0.0
C487 C 0.52876 0.51638 0.89438 0.0
H488 H 0.60009 0.73135 0.95161 0.0
H489 H 0.59794 0.47711 0.87159 0.0
H490 H 0.6792 0.68107 0.98465 0.0
H491 H 0.6357 0.38416 1.03447 0.0
H492 H 0.65985 0.7221 0.78148 0.0
H493 H 0.50904 0.71546 0.95833 0.0
H494 H 0.51012 0.45374 0.87828 0.0
C495 C 0.30573 0.71939 0.97645 0.0
C496 C 0.30578 0.70527 1.01401 0.0
N497 N 0.29225 0.60086 1.02085 0.0
N498 N 0.29155 0.62457 0.95992 0.0
C499 C 0.28389 0.55348 0.98801 0.0
H500 H 0.31653 0.79378 0.9623 0.0
Co501 Co 0.28554 0.59773 0.90918 0.0
C502 C 0.2492 0.3585 0.91613 0.0
O503 O 0.29157 0.31186 0.90815 0.0
N504 N 0.27768 0.56681 0.8579 0.0
C505 C 0.28254 0.48419 0.80305 0.0
C506 C 0.30279 0.49144 0.83763 0.0
C507 C 0.24152 0.60205 0.83494 0.0
N508 N 0.24459 0.55476 0.80162 0.0
O509 O 0.22824 0.68083 0.90887 0.0
H510 H 0.33244 0.44014 0.84774 0.0
H511 H 0.21167 0.6563 0.84272 0.0
O512 O 0.2461 0.46348 0.91813 0.0
C513 C 0.24321 0.77907 0.90289 0.0
O514 O 0.29011 0.7982 0.89672 0.0
N515 N 0.34861 0.53874 0.90929 0.0
C516 C 0.4493 0.5695 0.91972 0.0
C517 C 0.42407 0.48625 0.9391 0.0
C518 C 0.37275 0.4738 0.93413 0.0
C519 C 0.37387 0.6163 0.88961 0.0
C520 C 0.42379 0.63293 0.89438 0.0
H521 H 0.35247 0.41798 0.95163 0.0
H522 H 0.35461 0.6722 0.87159 0.0
H523 H 0.2733 0.46819 0.98465 0.0
H524 H 0.31677 0.76509 1.03449 0.0
H525 H 0.29273 0.42717 0.78149 0.0
H526 H 0.44352 0.43387 0.95834 0.0
H527 H 0.44243 0.69557 0.87828 0.0
loop_
_geom_bond_atom_site_label_1
_geom_bond_atom_site_label_2
_geom_bond_distance
_geom_bond_site_symmetry_2
_ccdc_geom_bond_type
C0 C1 1.351 . S
C0 N3 1.368 . S
C0 H5 0.931 . S
C1 C0 1.351 . S
C1 N2 1.373 . S
C1 H29 0.930 . S
N2 C1 1.373 . S
N2 C4 1.340 1_545 S
N3 C0 1.368 . S
N3 C4 1.321 1_545 S
N3 Co6 2.135 . S
C4 N2 1.340 1_565 S
C4 N3 1.321 1_565 S
C4 H28 0.930 . S
H5 C0 0.931 . S
Co6 N3 2.135 . S
Co6 N9 2.121 . S
Co6 O14 2.055 . S
Co6 O17 2.039 1_545 S
Co6 N20 2.140 . S
C7 O8 1.227 . S
C7 O17 1.265 . S
O8 C7 1.227 . S
N9 Co6 2.121 . S
N9 C11 1.375 1_545 S
N9 C12 1.313 . S
C10 C11 1.338 . S
C10 N13 1.377 1_565 S
C10 H30 0.930 . S
C11 N9 1.375 1_565 S
C11 C10 1.338 . S
C11 H15 0.931 . S
C12 N9 1.313 . S
C12 N13 1.344 . S
C12 H16 0.930 . S
N13 C10 1.377 1_545 S
N13 C12 1.344 . S
O14 Co6 2.055 . S
O14 C18 1.253 . S
H15 C11 0.931 . S
H16 C12 0.930 . S
O17 Co6 2.039 1_565 S
O17 C7 1.265 . S
C18 O14 1.253 . S
C18 O19 1.227 . S
O19 C18 1.227 . S
N20 Co6 2.140 . S
N20 C23 1.346 1_545 S
N20 C24 1.345 . S
C21 C22 1.387 1_545 S
C21 C25 1.391 . S
C22 C21 1.387 1_565 S
C22 C23 1.369 . S
C22 H31 0.929 . S
C23 N20 1.346 1_565 S
C23 C22 1.369 . S
C23 H26 0.928 . S
C24 N20 1.345 . S
C24 C25 1.371 . S
C24 H27 0.931 . S
C25 C21 1.391 . S
C25 C24 1.371 . S
C25 H32 0.930 . S
H26 C23 0.928 . S
H27 C24 0.931 . S
H28 C4 0.930 . S
H29 C1 0.930 . S
H30 C10 0.930 . S
H31 C22 0.929 . S
H32 C25 0.930 . S
C33 C34 1.351 . S
C33 N36 1.368 . S
C33 H38 0.931 . S
C34 C33 1.351 . S
C34 N35 1.373 1_565 S
C34 H62 0.930 . S
N35 C34 1.373 1_545 S
N35 C37 1.340 . S
N36 C33 1.368 . S
N36 C37 1.321 1_565 S
N36 Co39 2.135 1_565 S
C37 N35 1.340 . S
C37 N36 1.321 1_545 S
C37 H61 0.930 . S
H38 C33 0.931 . S
Co39 N36 2.135 1_545 S
Co39 N42 2.121 . S
Co39 O47 2.055 1_545 S
Co39 O50 2.039 . S
Co39 N53 2.140 . S
C40 O41 1.227 . S
C40 O50 1.265 . S
O41 C40 1.227 . S
N42 Co39 2.121 . S
N42 C44 1.375 . S
N42 C45 1.313 1_545 S
C43 C44 1.338 . S
C43 N46 1.377 . S
C43 H63 0.930 . S
C44 N42 1.375 . S
C44 C43 1.338 . S
C44 H48 0.931 . S
C45 N42 1.313 1_565 S
C45 N46 1.344 1_565 S
C45 H49 0.930 . S
N46 C43 1.377 . S
N46 C45 1.344 1_545 S
O47 Co39 2.055 1_565 S
O47 C51 1.253 . S
H48 C44 0.931 . S
H49 C45 0.930 . S
O50 Co39 2.039 . S
O50 C40 1.265 . S
C51 O47 1.253 . S
C51 O52 1.227 . S
O52 C51 1.227 . S
N53 Co39 2.140 . S
N53 C56 1.346 . S
N53 C57 1.345 1_545 S
C54 C55 1.387 . S
C54 C58 1.391 1_545 S
C55 C54 1.387 . S
C55 C56 1.369 . S
C55 H64 0.929 . S
C56 N53 1.346 . S
C56 C55 1.369 . S
C56 H59 0.928 . S
C57 N53 1.345 1_565 S
C57 C58 1.371 . S
C57 H60 0.931 . S
C58 C54 1.391 1_565 S
C58 C57 1.371 . S
C58 H65 0.930 . S
H59 C56 0.928 . S
H60 C57 0.931 . S
H61 C37 0.930 . S
H62 C34 0.930 . S
H63 C43 0.930 . S
H64 C55 0.929 . S
H65 C58 0.930 . S
C66 C67 1.351 . S
C66 N69 1.368 . S
C66 H71 0.931 . S
C67 C66 1.351 . S
C67 N68 1.373 1_565 S
C67 H95 0.930 . S
N68 C67 1.373 1_545 S
N68 C70 1.340 . S
N69 C66 1.368 . S
N69 C70 1.321 1_565 S
N69 Co72 2.135 1_565 S
C70 N68 1.340 . S
C70 N69 1.321 1_545 S
C70 H94 0.930 . S
H71 C66 0.931 . S
Co72 N69 2.135 1_545 S
Co72 N75 2.121 . S
Co72 O80 2.055 1_545 S
Co72 O83 2.039 . S
Co72 N86 2.140 . S
C73 O74 1.227 . S
C73 O83 1.265 . S
O74 C73 1.227 . S
N75 Co72 2.121 . S
N75 C77 1.375 . S
N75 C78 1.313 1_545 S
C76 C77 1.338 . S
C76 N79 1.377 . S
C76 H96 0.930 . S
C77 N75 1.375 . S
C77 C76 1.338 . S
C77 H81 0.931 . S
C78 N75 1.313 1_565 S
C78 N79 1.344 1_565 S
C78 H82 0.930 . S
N79 C76 1.377 . S
N79 C78 1.344 1_545 S
O80 Co72 2.055 1_565 S
O80 C84 1.253 . S
H81 C77 0.931 . S
H82 C78 0.930 . S
O83 Co72 2.039 . S
O83 C73 1.265 . S
C84 O80 1.253 . S
C84 O85 1.227 . S
O85 C84 1.227 . S
N86 Co72 2.140 . S
N86 C89 1.346 . S
N86 C90 1.345 1_545 S
C87 C88 1.387 . S
C87 C91 1.391 1_545 S
C88 C87 1.387 . S
C88 C89 1.369 . S
C88 H97 0.929 . S
C89 N86 1.346 . S
C89 C88 1.369 . S
C89 H92 0.928 . S
C90 N86 1.345 1_565 S
C90 C91 1.371 . S
C90 H93 0.931 . S
C91 C87 1.391 1_565 S
C91 C90 1.371 . S
C91 H98 0.930 . S
H92 C89 0.928 . S
H93 C90 0.931 . S
H94 C70 0.930 . S
H95 C67 0.930 . S
H96 C76 0.930 . S
H97 C88 0.929 . S
H98 C91 0.930 . S
C99 C100 1.351 . S
C99 N102 1.368 . S
C99 H104 0.931 . S
C100 C99 1.351 . S
C100 N101 1.373 . S
C100 H128 0.930 . S
N101 C100 1.373 . S
N101 C103 1.340 1_545 S
N102 C99 1.368 . S
N102 C103 1.321 1_545 S
N102 Co105 2.135 . S
C103 N101 1.340 1_565 S
C103 N102 1.321 1_565 S
C103 H127 0.930 . S
H104 C99 0.931 . S
Co105 N102 2.135 . S
Co105 N108 2.121 . S
Co105 O113 2.055 . S
Co105 O116 2.039 1_545 S
Co105 N119 2.140 . S
C106 O107 1.227 . S
C106 O116 1.265 . S
O107 C106 1.227 . S
N108 Co105 2.121 . S
N108 C110 1.375 1_545 S
N108 C111 1.313 . S
C109 C110 1.338 . S
C109 N112 1.377 1_565 S
C109 H129 0.930 . S
C110 N108 1.375 1_565 S
C110 C109 1.338 . S
C110 H114 0.931 . S
C111 N108 1.313 . S
C111 N112 1.344 . S
C111 H115 0.930 . S
N112 C109 1.377 1_545 S
N112 C111 1.344 . S
O113 Co105 2.055 . S
O113 C117 1.253 . S
H114 C110 0.931 . S
H115 C111 0.930 . S
O116 Co105 2.039 1_565 S
O116 C106 1.265 . S
C117 O113 1.253 . S
C117 O118 1.227 . S
O118 C117 1.227 . S
N119 Co105 2.140 . S
N119 C122 1.346 1_545 S
N119 C123 1.345 . S
C120 C121 1.387 1_545 S
C120 C124 1.391 . S
C121 C120 1.387 1_565 S
C121 C122 1.369 . S
C121 H130 0.929 . S
C122 N119 1.346 1_565 S
C122 C121 1.369 . S
C122 H125 0.928 . S
C123 N119 1.345 . S
C123 C124 1.371 . S
C123 H126 0.931 . S
C124 C120 1.391 . S
C124 C123 1.371 . S
C124 H131 0.930 . S
H125 C122 0.928 . S
H126 C123 0.931 . S
H127 C103 0.930 . S
H128 C100 0.930 . S
H129 C109 0.930 . S
H130 C121 0.929 . S
H131 C124 0.930 . S
C132 C133 1.351 . S
C132 N135 1.368 . S
C132 H137 0.931 . S
C133 C132 1.351 . S
C133 N134 1.373 . S
C133 H161 0.930 . S
N134 C133 1.373 . S
N134 C136 1.340 . S
N135 C132 1.368 . S
N135 C136 1.321 . S
N135 Co138 2.135 . S
C136 N134 1.340 . S
C136 N135 1.321 . S
C136 H160 0.930 . S
H137 C132 0.931 . S
Co138 N135 2.135 . S
Co138 N141 2.121 . S
Co138 O146 2.055 . S
Co138 O149 2.039 . S
Co138 N152 2.140 . S
C139 O140 1.227 . S
C139 O149 1.265 . S
O140 C139 1.227 . S
N141 Co138 2.121 . S
N141 C143 1.375 . S
N141 C144 1.313 . S
C142 C143 1.338 . S
C142 N145 1.377 . S
C142 H162 0.930 . S
C143 N141 1.375 . S
C143 C142 1.338 . S
C143 H147 0.931 . S
C144 N141 1.313 . S
C144 N145 1.344 . S
C144 H148 0.930 . S
N145 C142 1.377 . S
N145 C144 1.344 . S
O146 Co138 2.055 . S
O146 C150 1.253 . S
H147 C143 0.931 . S
H148 C144 0.930 . S
O149 Co138 2.039 . S
O149 C139 1.265 . S
C150 O146 1.253 . S
C150 O151 1.227 . S
O151 C150 1.227 . S
N152 Co138 2.140 . S
N152 C155 1.346 . S
N152 C156 1.345 . S
C153 C154 1.387 . S
C153 C157 1.391 . S
C154 C153 1.387 . S
C154 C155 1.369 . S
C154 H163 0.929 . S
C155 N152 1.346 . S
C155 C154 1.369 . S
C155 H158 0.928 . S
C156 N152 1.345 . S
C156 C157 1.371 . S
C156 H159 0.931 . S
C157 C153 1.391 . S
C157 C156 1.371 . S
C157 H164 0.930 . S
H158 C155 0.928 . S
H159 C156 0.931 . S
H160 C136 0.930 . S
H161 C133 0.930 . S
H162 C142 0.930 . S
H163 C154 0.929 . S
H164 C157 0.930 . S
C165 C166 1.351 . S
C165 N168 1.368 . S
C165 H170 0.931 . S
C166 C165 1.351 . S
C166 N167 1.373 . S
C166 H194 0.930 . S
N167 C166 1.373 . S
N167 C169 1.340 . S
N168 C165 1.368 . S
N168 C169 1.321 . S
N168 Co171 2.135 . S
C169 N167 1.340 . S
C169 N168 1.321 . S
C169 H193 0.930 . S
H170 C165 0.931 . S
Co171 N168 2.135 . S
Co171 N174 2.121 . S
Co171 O179 2.055 . S
Co171 O182 2.039 . S
Co171 N185 2.140 . S
C172 O173 1.227 . S
C172 O182 1.265 . S
O173 C172 1.227 . S
N174 Co171 2.121 . S
N174 C176 1.375 . S
N174 C177 1.313 . S
C175 C176 1.338 . S
C175 N178 1.377 . S
C175 H195 0.930 . S
C176 N174 1.375 . S
C176 C175 1.338 . S
C176 H180 0.931 . S
C177 N174 1.313 . S
C177 N178 1.344 . S
C177 H181 0.930 . S
N178 C175 1.377 . S
N178 C177 1.344 . S
O179 Co171 2.055 . S
O179 C183 1.253 . S
H180 C176 0.931 . S
H181 C177 0.930 . S
O182 Co171 2.039 . S
O182 C172 1.265 . S
C183 O179 1.253 . S
C183 O184 1.227 . S
O184 C183 1.227 . S
N185 Co171 2.140 . S
N185 C188 1.346 . S
N185 C189 1.345 . S
C186 C187 1.387 . S
C186 C190 1.391 . S
C187 C186 1.387 . S
C187 C188 1.369 . S
C187 H196 0.929 . S
C188 N185 1.346 . S
C188 C187 1.369 . S
C188 H191 0.928 . S
C189 N185 1.345 . S
C189 C190 1.371 . S
C189 H192 0.931 . S
C190 C186 1.391 . S
C190 C189 1.371 . S
C190 H197 0.930 . S
H191 C188 0.928 . S
H192 C189 0.931 . S
H193 C169 0.930 . S
H194 C166 0.930 . S
H195 C175 0.930 . S
H196 C187 0.929 . S
H197 C190 0.930 . S
C198 C199 1.351 . S
C198 N201 1.368 . S
C198 H203 0.931 . S
C199 C198 1.351 . S
C199 N200 1.373 . S
C199 H227 0.930 . S
N200 C199 1.373 . S
N200 C202 1.340 . S
N201 C198 1.368 . S
N201 C202 1.321 . S
N201 Co204 2.135 . S
C202 N200 1.340 . S
C202 N201 1.321 . S
C202 H226 0.930 . S
H203 C198 0.931 . S
Co204 N201 2.135 . S
Co204 N207 2.121 . S
Co204 O212 2.055 . S
Co204 O215 2.039 . S
Co204 N218 2.140 . S
C205 O206 1.227 . S
C205 O215 1.265 . S
O206 C205 1.227 . S
N207 Co204 2.121 . S
N207 C209 1.375 . S
N207 C210 1.313 . S
C208 C209 1.338 . S
C208 N211 1.377 . S
C208 H228 0.930 . S
C209 N207 1.375 . S
C209 C208 1.338 . S
C209 H213 0.931 . S
C210 N207 1.313 . S
C210 N211 1.344 . S
C210 H214 0.930 . S
N211 C208 1.377 . S
N211 C210 1.344 . S
O212 Co204 2.055 . S
O212 C216 1.253 . S
H213 C209 0.931 . S
H214 C210 0.930 . S
O215 Co204 2.039 . S
O215 C205 1.265 . S
C216 O212 1.253 . S
C216 O217 1.227 . S
O217 C216 1.227 . S
N218 Co204 2.140 . S
N218 C221 1.346 . S
N218 C222 1.345 . S
C219 C220 1.387 . S
C219 C223 1.391 . S
C220 C219 1.387 . S
C220 C221 1.369 . S
C220 H229 0.929 . S
C221 N218 1.346 . S
C221 C220 1.369 . S
C221 H224 0.928 . S
C222 N218 1.345 . S
C222 C223 1.371 . S
C222 H225 0.931 . S
C223 C219 1.391 . S
C223 C222 1.371 . S
C223 H230 0.930 . S
H224 C221 0.928 . S
H225 C222 0.931 . S
H226 C202 0.930 . S
H227 C199 0.930 . S
H228 C208 0.930 . S
H229 C220 0.929 . S
H230 C223 0.930 . S
C231 C232 1.351 . S
C231 N234 1.368 . S
C231 H236 0.931 . S
C232 C231 1.351 . S
C232 N233 1.373 . S
C232 H260 0.930 . S
N233 C232 1.373 . S
N233 C235 1.340 . S
N234 C231 1.368 . S
N234 C235 1.321 . S
N234 Co237 2.135 . S
C235 N233 1.340 . S
C235 N234 1.321 . S
C235 H259 0.930 . S
H236 C231 0.931 . S
Co237 N234 2.135 . S
Co237 N240 2.121 . S
Co237 O245 2.055 . S
Co237 O248 2.039 . S
Co237 N251 2.140 . S
C238 O239 1.227 . S
C238 O248 1.265 . S
O239 C238 1.227 . S
N240 Co237 2.121 . S
N240 C242 1.375 . S
N240 C243 1.313 . S
C241 C242 1.338 . S
C241 N244 1.377 . S
C241 H261 0.930 . S
C242 N240 1.375 . S
C242 C241 1.338 . S
C242 H246 0.931 . S
C243 N240 1.313 . S
C243 N244 1.344 . S
C243 H247 0.930 . S
N244 C241 1.377 . S
N244 C243 1.344 . S
O245 Co237 2.055 . S
O245 C249 1.253 . S
H246 C242 0.931 . S
H247 C243 0.930 . S
O248 Co237 2.039 . S
O248 C238 1.265 . S
C249 O245 1.253 . S
C249 O250 1.227 . S
O250 C249 1.227 . S
N251 Co237 2.140 . S
N251 C254 1.346 . S
N251 C255 1.345 . S
C252 C253 1.387 . S
C252 C256 1.391 . S
C253 C252 1.387 . S
C253 C254 1.369 . S
C253 H262 0.929 . S
C254 N251 1.346 . S
C254 C253 1.369 . S
C254 H257 0.928 . S
C255 N251 1.345 . S
C255 C256 1.371 . S
C255 H258 0.931 . S
C256 C252 1.391 . S
C256 C255 1.371 . S
C256 H263 0.930 . S
H257 C254 0.928 . S
H258 C255 0.931 . S
H259 C235 0.930 . S
H260 C232 0.930 . S
H261 C241 0.930 . S
H262 C253 0.929 . S
H263 C256 0.930 . S
C264 C265 1.351 . S
C264 N267 1.368 . S
C264 H269 0.931 . S
C265 C264 1.351 . S
C265 N266 1.373 . S
C265 H293 0.930 . S
N266 C265 1.373 . S
N266 C268 1.340 1_545 S
N267 C264 1.368 . S
N267 C268 1.321 1_545 S
N267 Co270 2.135 . S
C268 N266 1.340 1_565 S
C268 N267 1.321 1_565 S
C268 H292 0.930 . S
H269 C264 0.931 . S
Co270 N267 2.135 . S
Co270 N273 2.121 . S
Co270 O278 2.055 . S
Co270 O281 2.039 1_545 S
Co270 N284 2.140 . S
C271 O272 1.227 . S
C271 O281 1.265 . S
O272 C271 1.227 . S
N273 Co270 2.121 . S
N273 C275 1.375 1_545 S
N273 C276 1.313 . S
C274 C275 1.338 . S
C274 N277 1.377 1_565 S
C274 H294 0.930 . S
C275 N273 1.375 1_565 S
C275 C274 1.338 . S
C275 H279 0.931 . S
C276 N273 1.313 . S
C276 N277 1.344 . S
C276 H280 0.930 . S
N277 C274 1.377 1_545 S
N277 C276 1.344 . S
O278 Co270 2.055 . S
O278 C282 1.253 . S
H279 C275 0.931 . S
H280 C276 0.930 . S
O281 Co270 2.039 1_565 S
O281 C271 1.265 . S
C282 O278 1.253 . S
C282 O283 1.227 . S
O283 C282 1.227 . S
N284 Co270 2.140 . S
N284 C287 1.346 1_545 S
N284 C288 1.345 . S
C285 C286 1.387 1_545 S
C285 C289 1.391 . S
C286 C285 1.387 1_565 S
C286 C287 1.369 . S
C286 H295 0.929 . S
C287 N284 1.346 1_565 S
C287 C286 1.369 . S
C287 H290 0.928 . S
C288 N284 1.345 . S
C288 C289 1.371 . S
C288 H291 0.931 . S
C289 C285 1.391 . S
C289 C288 1.371 . S
C289 H296 0.930 . S
H290 C287 0.928 . S
H291 C288 0.931 . S
H292 C268 0.930 . S
H293 C265 0.930 . S
H294 C274 0.930 . S
H295 C286 0.929 . S
H296 C289 0.930 . S
C297 C298 1.351 . S
C297 N300 1.368 . S
C297 H302 0.931 . S
C298 C297 1.351 . S
C298 N299 1.373 1_565 S
C298 H326 0.930 . S
N299 C298 1.373 1_545 S
N299 C301 1.340 . S
N300 C297 1.368 . S
N300 C301 1.321 1_565 S
N300 Co303 2.135 1_565 S
C301 N299 1.340 . S
C301 N300 1.321 1_545 S
C301 H325 0.930 . S
H302 C297 0.931 . S
Co303 N300 2.135 1_545 S
Co303 N306 2.121 . S
Co303 O311 2.055 1_545 S
Co303 O314 2.039 . S
Co303 N317 2.140 . S
C304 O305 1.227 . S
C304 O314 1.265 . S
O305 C304 1.227 . S
N306 Co303 2.121 . S
N306 C308 1.375 . S
N306 C309 1.313 1_545 S
C307 C308 1.338 . S
C307 N310 1.377 . S
C307 H327 0.930 . S
C308 N306 1.375 . S
C308 C307 1.338 . S
C308 H312 0.931 . S
C309 N306 1.313 1_565 S
C309 N310 1.344 1_565 S
C309 H313 0.930 . S
N310 C307 1.377 . S
N310 C309 1.344 1_545 S
O311 Co303 2.055 1_565 S
O311 C315 1.253 . S
H312 C308 0.931 . S
H313 C309 0.930 . S
O314 Co303 2.039 . S
O314 C304 1.265 . S
C315 O311 1.253 . S
C315 O316 1.227 . S
O316 C315 1.227 . S
N317 Co303 2.140 . S
N317 C320 1.346 . S
N317 C321 1.345 1_545 S
C318 C319 1.387 . S
C318 C322 1.391 1_545 S
C319 C318 1.387 . S
C319 C320 1.369 . S
C319 H328 0.929 . S
C320 N317 1.346 . S
C320 C319 1.369 . S
C320 H323 0.928 . S
C321 N317 1.345 1_565 S
C321 C322 1.371 . S
C321 H324 0.931 . S
C322 C318 1.391 1_565 S
C322 C321 1.371 . S
C322 H329 0.930 . S
H323 C320 0.928 . S
H324 C321 0.931 . S
H325 C301 0.930 . S
H326 C298 0.930 . S
H327 C307 0.930 . S
H328 C319 0.929 . S
H329 C322 0.930 . S
C330 C331 1.351 . S
C330 N333 1.368 . S
C330 H335 0.931 . S
C331 C330 1.351 . S
C331 N332 1.373 1_565 S
C331 H359 0.930 . S
N332 C331 1.373 1_545 S
N332 C334 1.340 . S
N333 C330 1.368 . S
N333 C334 1.321 1_565 S
N333 Co336 2.135 1_565 S
C334 N332 1.340 . S
C334 N333 1.321 1_545 S
C334 H358 0.930 . S
H335 C330 0.931 . S
Co336 N333 2.135 1_545 S
Co336 N339 2.121 . S
Co336 O344 2.055 1_545 S
Co336 O347 2.039 . S
Co336 N350 2.140 . S
C337 O338 1.227 . S
C337 O347 1.265 . S
O338 C337 1.227 . S
N339 Co336 2.121 . S
N339 C341 1.375 . S
N339 C342 1.313 1_545 S
C340 C341 1.338 . S
C340 N343 1.377 . S
C340 H360 0.930 . S
C341 N339 1.375 . S
C341 C340 1.338 . S
C341 H345 0.931 . S
C342 N339 1.313 1_565 S
C342 N343 1.344 1_565 S
C342 H346 0.930 . S
N343 C340 1.377 . S
N343 C342 1.344 1_545 S
O344 Co336 2.055 1_565 S
O344 C348 1.253 . S
H345 C341 0.931 . S
H346 C342 0.930 . S
O347 Co336 2.039 . S
O347 C337 1.265 . S
C348 O344 1.253 . S
C348 O349 1.227 . S
O349 C348 1.227 . S
N350 Co336 2.140 . S
N350 C353 1.346 . S
N350 C354 1.345 1_545 S
C351 C352 1.387 . S
C351 C355 1.391 1_545 S
C352 C351 1.387 . S
C352 C353 1.369 . S
C352 H361 0.929 . S
C353 N350 1.346 . S
C353 C352 1.369 . S
C353 H356 0.928 . S
C354 N350 1.345 1_565 S
C354 C355 1.371 . S
C354 H357 0.931 . S
C355 C351 1.391 1_565 S
C355 C354 1.371 . S
C355 H362 0.930 . S
H356 C353 0.928 . S
H357 C354 0.931 . S
H358 C334 0.930 . S
H359 C331 0.930 . S
H360 C340 0.930 . S
H361 C352 0.929 . S
H362 C355 0.930 . S
C363 C364 1.351 . S
C363 N366 1.368 . S
C363 H368 0.931 . S
C364 C363 1.351 . S
C364 N365 1.373 . S
C364 H392 0.930 . S
N365 C364 1.373 . S
N365 C367 1.340 1_545 S
N366 C363 1.368 . S
N366 C367 1.321 1_545 S
N366 Co369 2.135 . S
C367 N365 1.340 1_565 S
C367 N366 1.321 1_565 S
C367 H391 0.930 . S
H368 C363 0.931 . S
Co369 N366 2.135 . S
Co369 N372 2.121 . S
Co369 O377 2.055 . S
Co369 O380 2.039 1_545 S
Co369 N383 2.140 . S
C370 O371 1.227 . S
C370 O380 1.265 . S
O371 C370 1.227 . S
N372 Co369 2.121 . S
N372 C374 1.375 1_545 S
N372 C375 1.313 . S
C373 C374 1.338 . S
C373 N376 1.377 1_565 S
C373 H393 0.930 . S
C374 N372 1.375 1_565 S
C374 C373 1.338 . S
C374 H378 0.931 . S
C375 N372 1.313 . S
C375 N376 1.344 . S
C375 H379 0.930 . S
N376 C373 1.377 1_545 S
N376 C375 1.344 . S
O377 Co369 2.055 . S
O377 C381 1.253 . S
H378 C374 0.931 . S
H379 C375 0.930 . S
O380 Co369 2.039 1_565 S
O380 C370 1.265 . S
C381 O377 1.253 . S
C381 O382 1.227 . S
O382 C381 1.227 . S
N383 Co369 2.140 . S
N383 C386 1.346 1_545 S
N383 C387 1.345 . S
C384 C385 1.387 1_545 S
C384 C388 1.391 . S
C385 C384 1.387 1_565 S
C385 C386 1.369 . S
C385 H394 0.929 . S
C386 N383 1.346 1_565 S
C386 C385 1.369 . S
C386 H389 0.928 . S
C387 N383 1.345 . S
C387 C388 1.371 . S
C387 H390 0.931 . S
C388 C384 1.391 . S
C388 C387 1.371 . S
C388 H395 0.930 . S
H389 C386 0.928 . S
H390 C387 0.931 . S
H391 C367 0.930 . S
H392 C364 0.930 . S
H393 C373 0.930 . S
H394 C385 0.929 . S
H395 C388 0.930 . S
C396 C397 1.351 . S
C396 N399 1.368 . S
C396 H401 0.931 . S
C397 C396 1.351 . S
C397 N398 1.373 . S
C397 H425 0.930 . S
N398 C397 1.373 . S
N398 C400 1.340 . S
N399 C396 1.368 . S
N399 C400 1.321 . S
N399 Co402 2.135 . S
C400 N398 1.340 . S
C400 N399 1.321 . S
C400 H424 0.930 . S
H401 C396 0.931 . S
Co402 N399 2.135 . S
Co402 N405 2.121 . S
Co402 O410 2.055 . S
Co402 O413 2.039 . S
Co402 N416 2.140 . S
C403 O404 1.227 . S
C403 O413 1.265 . S
O404 C403 1.227 . S
N405 Co402 2.121 . S
N405 C407 1.375 . S
N405 C408 1.313 . S
C406 C407 1.338 . S
C406 N409 1.377 . S
C406 H426 0.930 . S
C407 N405 1.375 . S
C407 C406 1.338 . S
C407 H411 0.931 . S
C408 N405 1.313 . S
C408 N409 1.344 . S
C408 H412 0.930 . S
N409 C406 1.377 . S
N409 C408 1.344 . S
O410 Co402 2.055 . S
O410 C414 1.253 . S
H411 C407 0.931 . S
H412 C408 0.930 . S
O413 Co402 2.039 . S
O413 C403 1.265 . S
C414 O410 1.253 . S
C414 O415 1.227 . S
O415 C414 1.227 . S
N416 Co402 2.140 . S
N416 C419 1.346 . S
N416 C420 1.345 . S
C417 C418 1.387 . S
C417 C421 1.391 . S
C418 C417 1.387 . S
C418 C419 1.369 . S
C418 H427 0.929 . S
C419 N416 1.346 . S
C419 C418 1.369 . S
C419 H422 0.928 . S
C420 N416 1.345 . S
C420 C421 1.371 . S
C420 H423 0.931 . S
C421 C417 1.391 . S
C421 C420 1.371 . S
C421 H428 0.930 . S
H422 C419 0.928 . S
H423 C420 0.931 . S
H424 C400 0.930 . S
H425 C397 0.930 . S
H426 C406 0.930 . S
H427 C418 0.929 . S
H428 C421 0.930 . S
C429 C430 1.351 . S
C429 N432 1.368 . S
C429 H434 0.931 . S
C430 C429 1.351 . S
C430 N431 1.373 . S
C430 H458 0.930 . S
N431 C430 1.373 . S
N431 C433 1.340 . S
N432 C429 1.368 . S
N432 C433 1.321 . S
N432 Co435 2.135 . S
C433 N431 1.340 . S
C433 N432 1.321 . S
C433 H457 0.930 . S
H434 C429 0.931 . S
Co435 N432 2.135 . S
Co435 N438 2.121 . S
Co435 O443 2.055 . S
Co435 O446 2.039 . S
Co435 N449 2.140 . S
C436 O437 1.227 . S
C436 O446 1.265 . S
O437 C436 1.227 . S
N438 Co435 2.121 . S
N438 C440 1.375 . S
N438 C441 1.313 . S
C439 C440 1.338 . S
C439 N442 1.377 . S
C439 H459 0.930 . S
C440 N438 1.375 . S
C440 C439 1.338 . S
C440 H444 0.931 . S
C441 N438 1.313 . S
C441 N442 1.344 . S
C441 H445 0.930 . S
N442 C439 1.377 . S
N442 C441 1.344 . S
O443 Co435 2.055 . S
O443 C447 1.253 . S
H444 C440 0.931 . S
H445 C441 0.930 . S
O446 Co435 2.039 . S
O446 C436 1.265 . S
C447 O443 1.253 . S
C447 O448 1.227 . S
O448 C447 1.227 . S
N449 Co435 2.140 . S
N449 C452 1.346 . S
N449 C453 1.345 . S
C450 C451 1.387 . S
C450 C454 1.391 . S
C451 C450 1.387 . S
C451 C452 1.369 . S
C451 H460 0.929 . S
C452 N449 1.346 . S
C452 C451 1.369 . S
C452 H455 0.928 . S
C453 N449 1.345 . S
C453 C454 1.371 . S
C453 H456 0.931 . S
C454 C450 1.391 . S
C454 C453 1.371 . S
C454 H461 0.930 . S
H455 C452 0.928 . S
H456 C453 0.931 . S
H457 C433 0.930 . S
H458 C430 0.930 . S
H459 C439 0.930 . S
H460 C451 0.929 . S
H461 C454 0.930 . S
C462 C463 1.351 . S
C462 N465 1.368 . S
C462 H467 0.931 . S
C463 C462 1.351 . S
C463 N464 1.373 . S
C463 H491 0.930 . S
N464 C463 1.373 . S
N464 C466 1.340 . S
N465 C462 1.368 . S
N465 C466 1.321 . S
N465 Co468 2.135 . S
C466 N464 1.340 . S
C466 N465 1.321 . S
C466 H490 0.930 . S
H467 C462 0.931 . S
Co468 N465 2.135 . S
Co468 N471 2.121 . S
Co468 O476 2.055 . S
Co468 O479 2.039 . S
Co468 N482 2.140 . S
C469 O470 1.227 . S
C469 O479 1.265 . S
O470 C469 1.227 . S
N471 Co468 2.121 . S
N471 C473 1.375 . S
N471 C474 1.313 . S
C472 C473 1.338 . S
C472 N475 1.377 . S
C472 H492 0.930 . S
C473 N471 1.375 . S
C473 C472 1.338 . S
C473 H477 0.931 . S
C474 N471 1.313 . S
C474 N475 1.344 . S
C474 H478 0.930 . S
N475 C472 1.377 . S
N475 C474 1.344 . S
O476 Co468 2.055 . S
O476 C480 1.253 . S
H477 C473 0.931 . S
H478 C474 0.930 . S
O479 Co468 2.039 . S
O479 C469 1.265 . S
C480 O476 1.253 . S
C480 O481 1.227 . S
O481 C480 1.227 . S
N482 Co468 2.140 . S
N482 C485 1.346 . S
N482 C486 1.345 . S
C483 C484 1.387 . S
C483 C487 1.391 . S
C484 C483 1.387 . S
C484 C485 1.369 . S
C484 H493 0.929 . S
C485 N482 1.346 . S
C485 C484 1.369 . S
C485 H488 0.928 . S
C486 N482 1.345 . S
C486 C487 1.371 . S
C486 H489 0.931 . S
C487 C483 1.391 . S
C487 C486 1.371 . S
C487 H494 0.930 . S
H488 C485 0.928 . S
H489 C486 0.931 . S
H490 C466 0.930 . S
H491 C463 0.930 . S
H492 C472 0.930 . S
H493 C484 0.929 . S
H494 C487 0.930 . S
C495 C496 1.351 . S
C495 N498 1.368 . S
C495 H500 0.931 . S
C496 C495 1.351 . S
C496 N497 1.373 . S
C496 H524 0.930 . S
N497 C496 1.373 . S
N497 C499 1.340 . S
N498 C495 1.368 . S
N498 C499 1.321 . S
N498 Co501 2.135 . S
C499 N497 1.340 . S
C499 N498 1.321 . S
C499 H523 0.930 . S
H500 C495 0.931 . S
Co501 N498 2.135 . S
Co501 N504 2.121 . S
Co501 O509 2.055 . S
Co501 O512 2.039 . S
Co501 N515 2.140 . S
C502 O503 1.227 . S
C502 O512 1.265 . S
O503 C502 1.227 . S
N504 Co501 2.121 . S
N504 C506 1.375 . S
N504 C507 1.313 . S
C505 C506 1.338 . S
C505 N508 1.377 . S
C505 H525 0.930 . S
C506 N504 1.375 . S
C506 C505 1.338 . S
C506 H510 0.931 . S
C507 N504 1.313 . S
C507 N508 1.344 . S
C507 H511 0.930 . S
N508 C505 1.377 . S
N508 C507 1.344 . S
O509 Co501 2.055 . S
O509 C513 1.253 . S
H510 C506 0.931 . S
H511 C507 0.930 . S
O512 Co501 2.039 . S
O512 C502 1.265 . S
C513 O509 1.253 . S
C513 O514 1.227 . S
O514 C513 1.227 . S
N515 Co501 2.140 . S
N515 C518 1.346 . S
N515 C519 1.345 . S
C516 C517 1.387 . S
C516 C520 1.391 . S
C517 C516 1.387 . S
C517 C518 1.369 . S
C517 H526 0.929 . S
C518 N515 1.346 . S
C518 C517 1.369 . S
C518 H521 0.928 . S
C519 N515 1.345 . S
C519 C520 1.371 . S
C519 H522 0.931 . S
C520 C516 1.391 . S
C520 C519 1.371 . S
C520 H527 0.930 . S
H521 C518 0.928 . S
H522 C519 0.931 . S
H523 C499 0.930 . S
H524 C496 0.930 . S
H525 C505 0.930 . S
H526 C517 0.929 . S
H527 C520 0.930 . S
N13 N376 1.505 . S
N46 N343 1.505 . S
N310 N79 1.505 . S
N277 N112 1.505 . S
N145 N508 1.505 . S
N178 N475 1.505 . S
N442 N211 1.505 . S
N409 N244 1.505 . S
C18 C447 1.145 . S
C414 C51 1.145 . S
C84 C513 1.145 . S
C480 C117 1.145 . S
C106 C469 1.728 . S
C502 C73 1.728 . S
C403 C40 1.728 . S
C7 C436 1.728 . S
C150 C315 1.145 . S
C183 C282 1.145 . S
C216 C381 1.145 . S
C249 C348 1.145 . S
C238 C337 1.728 . S
C205 C370 1.728 . S
C172 C271 1.728 . S
C139 C304 1.728 . S
C54 C21 1.504 1_655 S
C87 C120 1.504 1_455 S
C186 C153 1.504 1_655 S
C252 C219 1.504 1_655 S
C318 C285 1.504 . S
C384 C351 1.504 . S
C417 C450 1.504 . S
C516 C483 1.504 . S
N68 N2 1.368 1_556 S
N101 N35 1.368 1_556 S
N134 N200 1.368 . S
N233 N167 1.368 . S
N266 N332 1.368 . S
N365 N299 1.368 . S
N398 N464 1.368 1_554 S
N497 N431 1.368 1_556 S
