# Generated by pormake.
# Topology uot, (4)-cn, num edge types: 1
# Building blocks:
#     Node 0, Type 0, BuildingBlock: KUFVIS_clean_sbu_0, # of connection points: 4
#     Node 1, Type 0, BuildingBlock: KUFVIS_clean_sbu_0, # of connection points: 4
#     Node 2, Type 0, BuildingBlock: KUFVIS_clean_sbu_0, # of connection points: 4
#     Node 3, Type 0, BuildingBlock: KUFVIS_clean_sbu_0, # of connection points: 4
#     Node 4, Type 0, BuildingBlock: KUFVIS_clean_sbu_0, # of connection points: 4
#     Node 5, Type 0, BuildingBlock: KUFVIS_clean_sbu_0, # of connection points: 4
#     Node 6, Type 0, BuildingBlock: KUFVIS_clean_sbu_0, # of connection points: 4
#     Node 7, Type 0, BuildingBlock: KUFVIS_clean_sbu_0, # of connection points: 4
#     Node 8, Type 0, BuildingBlock: KUFVIS_clean_sbu_0, # of connection points: 4
#     Node 9, Type 0, BuildingBlock: KUFVIS_clean_sbu_0, # of connection points: 4
#     Node 10, Type 0, BuildingBlock: KUFVIS_clean_sbu_0, # of connection points: 4
#     Node 11, Type 0, BuildingBlock: KUFVIS_clean_sbu_0, # of connection points: 4
#     Node 12, Type 0, BuildingBlock: KUFVIS_clean_sbu_0, # of connection points: 4
#     Node 13, Type 0, BuildingBlock: KUFVIS_clean_sbu_0, # of connection points: 4
#     Node 14, Type 0, BuildingBlock: KUFVIS_clean_sbu_0, # of connection points: 4
#     Node 15, Type 0, BuildingBlock: KUFVIS_clean_sbu_0, # of connection points: 4
#     Edge 16, Type (0, 0), BuildingBlock: XIVTED_clean_linker_0, # of connection points: 2
#     Edge 17, Type (0, 0), BuildingBlock: XIVTED_clean_linker_0, # of connection points: 2
#     Edge 18, Type (0, 0), BuildingBlock: XIVTED_clean_linker_0, # of connection points: 2
#     Edge 19, Type (0, 0), BuildingBlock: XIVTED_clean_linker_0, # of connection points: 2
#     Edge 20, Type (0, 0), BuildingBlock: XIVTED_clean_linker_0, # of connection points: 2
#     Edge 21, Type (0, 0), BuildingBlock: XIVTED_clean_linker_0, # of connection points: 2
#     Edge 22, Type (0, 0), BuildingBlock: XIVTED_clean_linker_0, # of connection points: 2
#     Edge 23, Type (0, 0), BuildingBlock: XIVTED_clean_linker_0, # of connection points: 2
#     Edge 24, Type (0, 0), BuildingBlock: XIVTED_clean_linker_0, # of connection points: 2
#     Edge 25, Type (0, 0), BuildingBlock: XIVTED_clean_linker_0, # of connection points: 2
#     Edge 26, Type (0, 0), BuildingBlock: XIVTED_clean_linker_0, # of connection points: 2
#     Edge 27, Type (0, 0), BuildingBlock: XIVTED_clean_linker_0, # of connection points: 2
#     Edge 28, Type (0, 0), BuildingBlock: XIVTED_clean_linker_0, # of connection points: 2
#     Edge 29, Type (0, 0), BuildingBlock: XIVTED_clean_linker_0, # of connection points: 2
#     Edge 30, Type (0, 0), BuildingBlock: XIVTED_clean_linker_0, # of connection points: 2
#     Edge 31, Type (0, 0), BuildingBlock: XIVTED_clean_linker_0, # of connection points: 2
#     Edge 32, Type (0, 0), BuildingBlock: XIVTED_clean_linker_0, # of connection points: 2
#     Edge 33, Type (0, 0), BuildingBlock: XIVTED_clean_linker_0, # of connection points: 2
#     Edge 34, Type (0, 0), BuildingBlock: XIVTED_clean_linker_0, # of connection points: 2
#     Edge 35, Type (0, 0), BuildingBlock: XIVTED_clean_linker_0, # of connection points: 2
#     Edge 36, Type (0, 0), BuildingBlock: XIVTED_clean_linker_0, # of connection points: 2
#     Edge 37, Type (0, 0), BuildingBlock: XIVTED_clean_linker_0, # of connection points: 2
#     Edge 38, Type (0, 0), BuildingBlock: XIVTED_clean_linker_0, # of connection points: 2
#     Edge 39, Type (0, 0), BuildingBlock: XIVTED_clean_linker_0, # of connection points: 2
#     Edge 40, Type (0, 0), BuildingBlock: XIVTED_clean_linker_0, # of connection points: 2
#     Edge 41, Type (0, 0), BuildingBlock: XIVTED_clean_linker_0, # of connection points: 2
#     Edge 42, Type (0, 0), BuildingBlock: XIVTED_clean_linker_0, # of connection points: 2
#     Edge 43, Type (0, 0), BuildingBlock: XIVTED_clean_linker_0, # of connection points: 2
#     Edge 44, Type (0, 0), BuildingBlock: XIVTED_clean_linker_0, # of connection points: 2
#     Edge 45, Type (0, 0), BuildingBlock: XIVTED_clean_linker_0, # of connection points: 2
#     Edge 46, Type (0, 0), BuildingBlock: XIVTED_clean_linker_0, # of connection points: 2
#     Edge 47, Type (0, 0), BuildingBlock: XIVTED_clean_linker_0, # of connection points: 2
# Relax obj value: 0.078
# Max RMSD: 0.116
# Mean RMSD: 0.116
data_MOF--net-uot--node1-KUFVIS_clean_sbu_0--edge1-XIVTED_clean_linker_0
_symmetry_space_group_name_H-M    P1
_symmetry_Int_Tables_number       1
_symmetry_cell_setting            triclinic
loop_
_symmetry_equiv_pos_as_xyz
'x, y, z'
_cell_length_a     44.2853
_cell_length_b     44.294977
_cell_length_c     40.721073
_cell_angle_alpha  90.013107
_cell_angle_beta   90.004531
_cell_angle_gamma 89.961371
loop_
_atom_site_label
_atom_site_type_symbol
_atom_site_fract_x
_atom_site_fract_y
_atom_site_fract_z
_atom_type_partial_charge
Mn0 Mn 0.193 0.42855 0.32287 0.0
Mn1 Mn 0.1799 0.37068 0.37423 0.0
C2 C 0.16992 0.38516 0.30371 0.0
C3 C 0.17594 0.47386 0.30088 0.0
C4 C 0.24203 0.3869 0.34792 0.0
O5 O 0.19723 0.44728 0.36822 0.0
O6 O 0.18239 0.40851 0.40037 0.0
C7 C 0.11858 0.38611 0.39773 0.0
N8 N 0.13757 0.3666 0.38217 0.0
C9 C 0.09697 0.33186 0.37157 0.0
C10 C 0.07701 0.35151 0.38765 0.0
C11 C 0.08787 0.37875 0.40078 0.0
C12 C 0.1274 0.34022 0.36964 0.0
H13 H 0.12679 0.4072 0.4076 0.0
C14 C 0.19033 0.43609 0.39614 0.0
O15 O 0.2046 0.46743 0.30126 0.0
O16 O 0.15766 0.45428 0.31355 0.0
N17 N 0.17661 0.33318 0.35109 0.0
C18 C 0.19837 0.31776 0.33439 0.0
C19 C 0.19097 0.29048 0.31878 0.0
C20 C 0.1613 0.27939 0.32043 0.0
C21 C 0.13929 0.29566 0.33777 0.0
C22 C 0.14807 0.32254 0.35315 0.0
H23 H 0.22115 0.32628 0.33281 0.0
O24 O 0.18318 0.40338 0.28332 0.0
O25 O 0.17108 0.39307 0.33432 0.0
O26 O 0.23384 0.40748 0.32793 0.0
O27 O 0.22388 0.37282 0.36691 0.0
C28 C 0.10886 0.28661 0.33976 0.0
C29 C 0.08772 0.30468 0.35668 0.0
H30 H 0.05324 0.34606 0.38975 0.0
H31 H 0.07257 0.3941 0.41306 0.0
H32 H 0.20805 0.27812 0.30533 0.0
H33 H 0.15561 0.2585 0.30806 0.0
H34 H 0.10139 0.26597 0.32803 0.0
H35 H 0.06431 0.29766 0.35768 0.0
Mn36 Mn 0.42012 0.81567 0.67465 0.0
Mn37 Mn 0.36129 0.82653 0.62358 0.0
C38 C 0.37661 0.83777 0.69432 0.0
C39 C 0.46589 0.83248 0.69548 0.0
C40 C 0.37924 0.76544 0.65125 0.0
O41 O 0.43821 0.8108 0.62917 0.0
O42 O 0.39895 0.82433 0.59707 0.0
C43 C 0.37462 0.88757 0.59795 0.0
N44 N 0.35567 0.86834 0.61392 0.0
C45 C 0.31828 0.90732 0.6205 0.0
C46 C 0.33732 0.92751 0.60395 0.0
C47 C 0.36563 0.91758 0.59266 0.0
C48 C 0.32829 0.87758 0.62468 0.0
H49 H 0.39645 0.88004 0.58937 0.0
C50 C 0.42665 0.81677 0.6012 0.0
O51 O 0.45908 0.80395 0.69542 0.0
O52 O 0.44623 0.85107 0.6833 0.0
N53 N 0.32368 0.82927 0.64654 0.0
C54 C 0.30923 0.80772 0.66451 0.0
C55 C 0.28126 0.81446 0.67901 0.0
C56 C 0.26842 0.84321 0.67483 0.0
C57 C 0.28369 0.86499 0.65617 0.0
C58 C 0.31138 0.8569 0.64207 0.0
H59 H 0.31906 0.78565 0.66795 0.0
O60 O 0.39571 0.82538 0.71443 0.0
O61 O 0.38386 0.83709 0.66337 0.0
O62 O 0.39967 0.77451 0.67088 0.0
O63 O 0.36461 0.78285 0.632 0.0
C64 C 0.27288 0.89463 0.65168 0.0
C65 C 0.29014 0.91577 0.63383 0.0
H66 H 0.33061 0.95076 0.60012 0.0
H67 H 0.38051 0.93307 0.58003 0.0
H68 H 0.26967 0.79757 0.69348 0.0
H69 H 0.24697 0.84841 0.68631 0.0
H70 H 0.25155 0.90155 0.66232 0.0
H71 H 0.28183 0.93862 0.63102 0.0
Mn72 Mn 0.80985 0.56974 0.32422 0.0
Mn73 Mn 0.82353 0.62798 0.37524 0.0
C74 C 0.83288 0.61266 0.30424 0.0
C75 C 0.82532 0.52387 0.30232 0.0
C76 C 0.7613 0.61203 0.34908 0.0
O77 O 0.80559 0.55146 0.3697 0.0
O78 O 0.82078 0.59025 0.4016 0.0
C79 C 0.88468 0.61257 0.39928 0.0
N80 N 0.86573 0.63217 0.3838 0.0
C81 C 0.90588 0.668 0.37576 0.0
C82 C 0.92579 0.64827 0.3918 0.0
C83 C 0.91513 0.62044 0.40359 0.0
C84 C 0.87567 0.65914 0.37262 0.0
H85 H 0.8766 0.59108 0.4082 0.0
C86 C 0.81251 0.56275 0.39755 0.0
O87 O 0.79691 0.5312 0.30317 0.0
O88 O 0.84442 0.54296 0.31458 0.0
N89 N 0.82696 0.66554 0.35231 0.0
C90 C 0.80549 0.68073 0.33494 0.0
C91 C 0.81287 0.70835 0.32007 0.0
C92 C 0.8422 0.72006 0.32322 0.0
C93 C 0.86389 0.70404 0.34126 0.0
C94 C 0.85515 0.67677 0.35582 0.0
H95 H 0.78298 0.67174 0.33224 0.0
O96 O 0.8194 0.59414 0.28434 0.0
O97 O 0.83253 0.60527 0.33514 0.0
O98 O 0.76932 0.5913 0.32926 0.0
O99 O 0.77958 0.6261 0.36787 0.0
C100 C 0.89405 0.71366 0.34465 0.0
C101 C 0.91502 0.69568 0.36192 0.0
H102 H 0.94938 0.65409 0.39484 0.0
H103 H 0.9304 0.60502 0.41583 0.0
H104 H 0.79603 0.72052 0.30606 0.0
H105 H 0.84789 0.74121 0.31141 0.0
H106 H 0.90149 0.73462 0.33359 0.0
H107 H 0.93825 0.70309 0.36389 0.0
Mn108 Mn 0.57677 0.1778 0.67191 0.0
Mn109 Mn 0.63654 0.16843 0.62183 0.0
C110 C 0.62057 0.15687 0.69234 0.0
C111 C 0.53127 0.15953 0.69204 0.0
C112 C 0.61657 0.22908 0.6491 0.0
O113 O 0.55919 0.18218 0.62615 0.0
O114 O 0.59919 0.16954 0.5947 0.0
C115 C 0.62527 0.10701 0.59608 0.0
N116 N 0.64344 0.12676 0.61238 0.0
C117 C 0.6817 0.08879 0.61984 0.0
C118 C 0.66347 0.06807 0.60297 0.0
C119 C 0.63512 0.07722 0.59107 0.0
C120 C 0.67086 0.11828 0.62371 0.0
H121 H 0.6034 0.11394 0.58704 0.0
C122 C 0.57125 0.17642 0.59838 0.0
O123 O 0.53719 0.18826 0.69218 0.0
O124 O 0.55163 0.14164 0.67999 0.0
N125 N 0.67386 0.16677 0.64546 0.0
C126 C 0.68744 0.18873 0.66365 0.0
C127 C 0.71532 0.18276 0.67873 0.0
C128 C 0.72896 0.15433 0.67493 0.0
C129 C 0.71457 0.13211 0.65605 0.0
C130 C 0.68693 0.13944 0.64136 0.0
H131 H 0.67699 0.21056 0.66681 0.0
O132 O 0.60085 0.16878 0.71209 0.0
O133 O 0.61374 0.15734 0.66127 0.0
O134 O 0.59615 0.21952 0.66847 0.0
O135 O 0.63189 0.21201 0.63011 0.0
C136 C 0.72621 0.10274 0.6519 0.0
C137 C 0.7098 0.08111 0.63378 0.0
H138 H 0.67085 0.04498 0.59936 0.0
H139 H 0.62086 0.06131 0.57819 0.0
H140 H 0.72623 0.19999 0.69337 0.0
H141 H 0.75033 0.14972 0.68686 0.0
H142 H 0.74752 0.09641 0.66299 0.0
H143 H 0.71875 0.05846 0.63122 0.0
Mn144 Mn 0.17907 0.57508 0.66861 0.0
Mn145 Mn 0.17145 0.63456 0.6179 0.0
C146 C 0.15824 0.61914 0.68829 0.0
C147 C 0.15976 0.5298 0.68805 0.0
C148 C 0.23122 0.61424 0.64709 0.0
O149 O 0.18465 0.55735 0.62314 0.0
O150 O 0.17283 0.59705 0.59094 0.0
C151 C 0.11043 0.62364 0.59084 0.0
N152 N 0.13001 0.64174 0.60748 0.0
C153 C 0.09201 0.68007 0.61443 0.0
C154 C 0.07148 0.66192 0.59717 0.0
C155 C 0.08074 0.63358 0.58535 0.0
C156 C 0.12143 0.66916 0.61873 0.0
H157 H 0.11743 0.60176 0.58191 0.0
C158 C 0.17964 0.56915 0.59509 0.0
O159 O 0.18854 0.53542 0.68924 0.0
O160 O 0.14244 0.55037 0.67545 0.0
N161 N 0.16964 0.67203 0.64125 0.0
C162 C 0.19142 0.68559 0.65971 0.0
C163 C 0.18533 0.7135 0.67468 0.0
C164 C 0.15696 0.72717 0.6705 0.0
C165 C 0.13493 0.71282 0.65131 0.0
C166 C 0.1424 0.68517 0.63671 0.0
H167 H 0.21318 0.6751 0.66321 0.0
O168 O 0.16926 0.59926 0.70844 0.0
O169 O 0.15929 0.61221 0.65725 0.0
O170 O 0.221 0.59414 0.66646 0.0
O171 O 0.21481 0.6295 0.62735 0.0
C172 C 0.10562 0.72448 0.6468 0.0
C173 C 0.08419 0.70814 0.62834 0.0
H174 H 0.04846 0.66936 0.5932 0.0
H175 H 0.06498 0.61938 0.57218 0.0
H176 H 0.20241 0.72437 0.68956 0.0
H177 H 0.15224 0.74854 0.68238 0.0
H178 H 0.09917 0.74578 0.65785 0.0
H179 H 0.06158 0.71712 0.62548 0.0
Mn180 Mn 0.56486 0.80856 0.32765 0.0
Mn181 Mn 0.62376 0.82018 0.37844 0.0
C182 C 0.60846 0.82997 0.30744 0.0
C183 C 0.51915 0.82561 0.30665 0.0
C184 C 0.60562 0.75863 0.35216 0.0
O185 O 0.54681 0.80461 0.37328 0.0
O186 O 0.58607 0.81898 0.40492 0.0
C187 C 0.61079 0.88195 0.40222 0.0
N188 N 0.62964 0.86219 0.38686 0.0
C189 C 0.66718 0.90075 0.37897 0.0
C190 C 0.64825 0.9215 0.39489 0.0
C191 C 0.61992 0.91205 0.40654 0.0
C192 C 0.65705 0.87096 0.37578 0.0
H193 H 0.58893 0.8748 0.41105 0.0
C194 C 0.55836 0.81139 0.40104 0.0
O195 O 0.52568 0.797 0.30709 0.0
O196 O 0.53904 0.84407 0.31855 0.0
N197 N 0.66142 0.82204 0.35546 0.0
C198 C 0.67578 0.79992 0.33821 0.0
C199 C 0.70378 0.8061 0.32349 0.0
C200 C 0.71673 0.83488 0.32671 0.0
C201 C 0.70156 0.85725 0.34467 0.0
C202 C 0.67385 0.84971 0.35906 0.0
H203 H 0.66587 0.77781 0.33548 0.0
O204 O 0.58923 0.81747 0.28758 0.0
O205 O 0.60125 0.8299 0.33839 0.0
O206 O 0.58527 0.76735 0.3322 0.0
O207 O 0.62013 0.77636 0.37117 0.0
C208 C 0.71248 0.88695 0.34814 0.0
C209 C 0.69532 0.90868 0.3653 0.0
H210 H 0.65506 0.94481 0.39795 0.0
H211 H 0.60511 0.92797 0.41868 0.0
H212 H 0.71528 0.78875 0.30956 0.0
H213 H 0.73817 0.83965 0.31503 0.0
H214 H 0.7338 0.89347 0.33722 0.0
H215 H 0.70372 0.93157 0.36731 0.0
Mn216 Mn 0.81256 0.42329 0.67047 0.0
Mn217 Mn 0.82257 0.36442 0.61928 0.0
C218 C 0.83386 0.3794 0.69012 0.0
C219 C 0.83027 0.46869 0.69136 0.0
C220 C 0.76172 0.38329 0.6469 0.0
O221 O 0.808 0.4415 0.625 0.0
O222 O 0.82117 0.40217 0.59284 0.0
C223 C 0.88398 0.3767 0.59407 0.0
N224 N 0.86435 0.35809 0.60992 0.0
C225 C 0.90282 0.32029 0.61727 0.0
C226 C 0.92341 0.33898 0.60083 0.0
C227 C 0.91394 0.36731 0.5892 0.0
C228 C 0.87314 0.33066 0.62097 0.0
H229 H 0.87683 0.39858 0.58528 0.0
C230 C 0.81397 0.42996 0.59702 0.0
O231 O 0.80161 0.46245 0.69133 0.0
O232 O 0.84844 0.44869 0.67907 0.0
N233 N 0.82452 0.32675 0.64222 0.0
C234 C 0.80259 0.31264 0.65997 0.0
C235 C 0.80883 0.28467 0.67471 0.0
C236 C 0.8375 0.2715 0.67104 0.0
C237 C 0.85967 0.28642 0.65259 0.0
C238 C 0.85205 0.3141 0.63818 0.0
H239 H 0.7806 0.32274 0.66308 0.0
O240 O 0.82183 0.39872 0.71025 0.0
O241 O 0.83335 0.3867 0.65918 0.0
O242 O 0.77107 0.40346 0.66669 0.0
O243 O 0.7789 0.36852 0.62752 0.0
C244 C 0.88926 0.27528 0.64866 0.0
C245 C 0.91081 0.29218 0.63098 0.0
H246 H 0.94663 0.33197 0.59736 0.0
H247 H 0.92975 0.38193 0.57666 0.0
H248 H 0.79164 0.27335 0.68903 0.0
H249 H 0.84232 0.25008 0.68275 0.0
H250 H 0.89583 0.25398 0.65959 0.0
H251 H 0.93361 0.28361 0.62859 0.0
Mn252 Mn 0.43183 0.18444 0.32638 0.0
Mn253 Mn 0.37193 0.17496 0.37626 0.0
C254 C 0.38785 0.16421 0.3056 0.0
C255 C 0.47721 0.16573 0.30622 0.0
C256 C 0.39243 0.23579 0.35003 0.0
O257 O 0.44938 0.18802 0.37227 0.0
O258 O 0.40927 0.17508 0.40338 0.0
C259 C 0.38253 0.11294 0.40063 0.0
N260 N 0.36458 0.13321 0.38477 0.0
C261 C 0.32605 0.09575 0.37614 0.0
C262 C 0.34405 0.07451 0.39256 0.0
C263 C 0.37241 0.08315 0.40484 0.0
C264 C 0.33713 0.12522 0.37311 0.0
H265 H 0.40442 0.11947 0.40993 0.0
C266 C 0.43727 0.18174 0.39989 0.0
O267 O 0.47171 0.19455 0.30642 0.0
O268 O 0.45652 0.14804 0.31787 0.0
N269 N 0.3346 0.17419 0.35257 0.0
C270 C 0.32125 0.19665 0.33491 0.0
C271 C 0.29337 0.19126 0.31956 0.0
C272 C 0.27952 0.16287 0.32255 0.0
C273 C 0.29367 0.14013 0.34091 0.0
C274 C 0.32129 0.1469 0.35594 0.0
H275 H 0.33187 0.21845 0.33234 0.0
O276 O 0.40769 0.17607 0.28598 0.0
O277 O 0.39467 0.16433 0.33666 0.0
O278 O 0.41274 0.22633 0.33041 0.0
O279 O 0.37708 0.21863 0.36886 0.0
C280 C 0.28182 0.11077 0.34418 0.0
C281 C 0.29798 0.08861 0.36181 0.0
H282 H 0.33649 0.05142 0.39553 0.0
H283 H 0.3865 0.06684 0.41737 0.0
H284 H 0.28266 0.20889 0.30531 0.0
H285 H 0.25818 0.1587 0.31037 0.0
H286 H 0.26054 0.10484 0.33276 0.0
H287 H 0.28888 0.06598 0.36368 0.0
Mn288 Mn 0.69314 0.93664 0.82356 0.0
Mn289 Mn 0.65252 0.8858 0.86661 0.0
C290 C 0.65492 0.91016 0.79818 0.0
C291 C 0.70023 0.98629 0.80732 0.0
C292 C 0.71605 0.87398 0.84168 0.0
O293 O 0.70306 0.94689 0.8709 0.0
O294 O 0.67187 0.91482 0.89732 0.0
C295 C 0.60536 0.92688 0.89229 0.0
N296 N 0.61316 0.90175 0.87498 0.0
C297 C 0.56109 0.89063 0.86319 0.0
C298 C 0.55249 0.91627 0.88109 0.0
C299 C 0.57473 0.93451 0.89564 0.0
C300 C 0.59196 0.88414 0.86073 0.0
H301 H 0.62241 0.94103 0.90338 0.0
C302 C 0.69123 0.93631 0.89703 0.0
O303 O 0.72246 0.96714 0.80663 0.0
O304 O 0.67432 0.97673 0.81777 0.0
N305 N 0.63234 0.85639 0.84006 0.0
C306 C 0.64445 0.83289 0.82292 0.0
C307 C 0.62523 0.81263 0.80658 0.0
C308 C 0.5938 0.81658 0.80827 0.0
C309 C 0.58185 0.84064 0.8265 0.0
C310 C 0.6021 0.85993 0.84252 0.0
H311 H 0.66859 0.82969 0.82158 0.0
O312 O 0.67583 0.92293 0.78077 0.0
O313 O 0.65672 0.91378 0.82978 0.0
O314 O 0.71953 0.89882 0.82626 0.0
O315 O 0.69235 0.86746 0.85814 0.0
C316 C 0.55065 0.84648 0.82903 0.0
C317 C 0.54029 0.87151 0.84727 0.0
H318 H 0.52889 0.9223 0.88363 0.0
H319 H 0.56827 0.95443 0.90935 0.0
H320 H 0.63463 0.79407 0.79263 0.0
H321 H 0.57906 0.80108 0.79538 0.0
H322 H 0.53446 0.83208 0.8167 0.0
H323 H 0.51627 0.87598 0.84869 0.0
Mn324 Mn 0.93746 0.30516 0.17179 0.0
Mn325 Mn 0.88162 0.33261 0.12431 0.0
C326 C 0.90151 0.33701 0.19384 0.0
C327 C 0.98593 0.31163 0.19253 0.0
C328 C 0.88329 0.26821 0.14983 0.0
O329 O 0.95282 0.29754 0.12554 0.0
O330 O 0.91578 0.31965 0.09594 0.0
C331 C 0.9121 0.38731 0.09906 0.0
N332 N 0.88876 0.3744 0.11569 0.0
C333 C 0.86656 0.42295 0.12679 0.0
C334 C 0.89024 0.43675 0.10958 0.0
C335 C 0.91311 0.41884 0.09568 0.0
C336 C 0.86659 0.3914 0.12909 0.0
H337 H 0.92985 0.37364 0.08858 0.0
C338 C 0.94115 0.30583 0.09832 0.0
O339 O 0.97369 0.28494 0.19183 0.0
O340 O 0.97056 0.33366 0.18008 0.0
N341 N 0.84748 0.34609 0.14915 0.0
C342 C 0.82724 0.32939 0.16659 0.0
C343 C 0.80338 0.34396 0.18287 0.0
C344 C 0.80057 0.37551 0.18103 0.0
C345 C 0.82157 0.39219 0.16277 0.0
C346 C 0.84467 0.3764 0.14674 0.0
H347 H 0.82941 0.30516 0.16826 0.0
O348 O 0.91707 0.31942 0.21287 0.0
O349 O 0.90752 0.33511 0.16275 0.0
O350 O 0.90725 0.27035 0.16715 0.0
O351 O 0.87242 0.28987 0.13277 0.0
C352 C 0.82085 0.42392 0.16039 0.0
C353 C 0.84333 0.43928 0.14242 0.0
H354 H 0.89126 0.46108 0.10717 0.0
H355 H 0.93156 0.42934 0.08253 0.0
H356 H 0.7873 0.33093 0.19698 0.0
H357 H 0.78233 0.38669 0.19393 0.0
H358 H 0.80334 0.43675 0.17266 0.0
H359 H 0.84276 0.4637 0.14115 0.0
Mn360 Mn 0.30258 0.05963 0.82099 0.0
Mn361 Mn 0.34359 0.11034 0.86375 0.0
C362 C 0.34128 0.08542 0.7956 0.0
C363 C 0.29514 0.00991 0.80522 0.0
C364 C 0.28025 0.12264 0.83844 0.0
O365 O 0.29244 0.04982 0.86837 0.0
O366 O 0.32394 0.0817 0.89467 0.0
C367 C 0.39035 0.06917 0.89011 0.0
N368 N 0.3828 0.09415 0.87244 0.0
C369 C 0.43498 0.10467 0.86061 0.0
C370 C 0.44333 0.07917 0.87889 0.0
C371 C 0.4209 0.06131 0.89364 0.0
C372 C 0.40418 0.11143 0.85803 0.0
H373 H 0.37316 0.0553 0.90135 0.0
C374 C 0.30442 0.06035 0.89446 0.0
O375 O 0.27307 0.02923 0.80416 0.0
O376 O 0.32107 0.01935 0.81571 0.0
N377 N 0.36407 0.13925 0.83685 0.0
C378 C 0.35219 0.16245 0.81905 0.0
C379 C 0.37161 0.18218 0.80225 0.0
C380 C 0.40301 0.178 0.80411 0.0
C381 C 0.41472 0.15423 0.82295 0.0
C382 C 0.39428 0.13546 0.83941 0.0
H383 H 0.32809 0.16579 0.81752 0.0
O384 O 0.32026 0.07283 0.77817 0.0
O385 O 0.33922 0.08208 0.82721 0.0
O386 O 0.27654 0.09774 0.82319 0.0
O387 O 0.30396 0.12898 0.85497 0.0
C388 C 0.44586 0.14813 0.82561 0.0
C389 C 0.45598 0.12333 0.84436 0.0
H390 H 0.46686 0.07295 0.88153 0.0
H391 H 0.42716 0.0415 0.90763 0.0
H392 H 0.36239 0.2005 0.7878 0.0
H393 H 0.4179 0.19307 0.79083 0.0
H394 H 0.46219 0.16214 0.81297 0.0
H395 H 0.47994 0.11863 0.84586 0.0
Mn396 Mn 0.05727 0.69581 0.17755 0.0
Mn397 Mn 0.10916 0.65985 0.13113 0.0
C398 C 0.08871 0.66029 0.20104 0.0
C399 C 0.00801 0.69821 0.19678 0.0
C400 C 0.11621 0.72441 0.15504 0.0
O401 O 0.04353 0.70457 0.13088 0.0
O402 O 0.07677 0.67615 0.10245 0.0
C403 C 0.07153 0.60879 0.10835 0.0
N404 N 0.09669 0.61909 0.12395 0.0
C405 C 0.11344 0.56844 0.13521 0.0
C406 C 0.08781 0.55728 0.11905 0.0
C407 C 0.06674 0.57755 0.10562 0.0
C408 C 0.11705 0.5998 0.13706 0.0
H409 H 0.05521 0.62431 0.09815 0.0
C410 C 0.05373 0.69359 0.10411 0.0
O411 O 0.02497 0.72214 0.19645 0.0
O412 O 0.0195 0.67328 0.18581 0.0
N413 N 0.14184 0.64282 0.15572 0.0
C414 C 0.1649 0.65727 0.17131 0.0
C415 C 0.18779 0.64023 0.18638 0.0
C416 C 0.18683 0.60855 0.18508 0.0
C417 C 0.16309 0.5942 0.1685 0.0
C418 C 0.14112 0.61236 0.15362 0.0
H419 H 0.16579 0.68161 0.17234 0.0
O420 O 0.07495 0.67992 0.21934 0.0
O421 O 0.0831 0.6617 0.16978 0.0
O422 O 0.09226 0.72566 0.17246 0.0
O423 O 0.12389 0.70129 0.13819 0.0
C424 C 0.16014 0.56258 0.16655 0.0
C425 C 0.13528 0.54971 0.15001 0.0
H426 H 0.08396 0.5332 0.11702 0.0
H427 H 0.04682 0.5691 0.09327 0.0
H428 H 0.20606 0.65148 0.19909 0.0
H429 H 0.20434 0.59548 0.19704 0.0
H430 H 0.17667 0.54795 0.17804 0.0
H431 H 0.13307 0.52537 0.14902 0.0
Mn432 Mn 0.69987 0.04872 0.18284 0.0
Mn433 Mn 0.66275 0.10085 0.13806 0.0
C434 C 0.66486 0.07982 0.20774 0.0
C435 C 0.70259 -0.00071 0.20113 0.0
C436 C 0.72828 0.10705 0.15915 0.0
O437 O 0.70741 0.03556 0.13571 0.0
O438 O 0.67727 0.06826 0.10858 0.0
C439 C 0.61003 0.06441 0.11761 0.0
N440 N 0.62148 0.08926 0.13286 0.0
C441 C 0.57169 0.10702 0.1466 0.0
C442 C 0.55935 0.08172 0.13084 0.0
C443 C 0.57861 0.0603 0.11635 0.0
C444 C 0.60317 0.10995 0.14697 0.0
H445 H 0.62478 0.04785 0.1066 0.0
C446 C 0.69514 0.0455 0.10948 0.0
O447 O 0.72658 0.01615 0.20045 0.0
O448 O 0.67743 0.01101 0.19112 0.0
N449 N 0.64744 0.13369 0.16371 0.0
C450 C 0.663 0.1562 0.17898 0.0
C451 C 0.64708 0.17928 0.19511 0.0
C452 C 0.61535 0.17907 0.19521 0.0
C453 C 0.59983 0.15584 0.17903 0.0
C454 C 0.6169 0.13363 0.16308 0.0
H455 H 0.68739 0.15651 0.17893 0.0
O456 O 0.68494 0.06593 0.22534 0.0
O457 O 0.66568 0.0746 0.17639 0.0
O458 O 0.72969 0.08363 0.17734 0.0
O459 O 0.70478 0.11471 0.1429 0.0
C460 C 0.5681 0.15359 0.17856 0.0
C461 C 0.55404 0.12915 0.16244 0.0
H462 H 0.53512 0.07839 0.12996 0.0
H463 H 0.56925 0.04063 0.1043 0.0
H464 H 0.65922 0.19713 0.20753 0.0
H465 H 0.60316 0.19673 0.20797 0.0
H466 H 0.5543 0.17031 0.19088 0.0
H467 H 0.52964 0.12745 0.16262 0.0
Mn468 Mn 0.05508 0.30241 0.81476 0.0
Mn469 Mn 0.10502 0.34426 0.85767 0.0
C470 C 0.08122 0.34074 0.78915 0.0
C471 C 0.00561 0.29473 0.7981 0.0
C472 C 0.11791 0.28058 0.83378 0.0
O473 O 0.04453 0.29299 0.86216 0.0
O474 O 0.07599 0.32498 0.88836 0.0
C475 C 0.06323 0.39123 0.88239 0.0
N476 N 0.08856 0.38352 0.86538 0.0
C477 C 0.09922 0.43557 0.85306 0.0
C478 C 0.07336 0.44408 0.87065 0.0
C479 C 0.05526 0.4218 0.88531 0.0
C480 C 0.10606 0.40476 0.85104 0.0
H481 H 0.04919 0.37416 0.89357 0.0
C482 C 0.0547 0.30539 0.88819 0.0
O483 O 0.02493 0.27264 0.79783 0.0
O484 O 0.01488 0.32079 0.80836 0.0
N485 N 0.13434 0.36446 0.83102 0.0
C486 C 0.15794 0.35241 0.81399 0.0
C487 C 0.178 0.37166 0.79743 0.0
C488 C 0.17375 0.40307 0.79876 0.0
C489 C 0.14956 0.41496 0.81684 0.0
C490 C 0.13046 0.39468 0.83309 0.0
H491 H 0.16136 0.3283 0.8129 0.0
O492 O 0.06895 0.31944 0.77187 0.0
O493 O 0.07738 0.33918 0.82071 0.0
O494 O 0.09323 0.2765 0.81819 0.0
O495 O 0.12392 0.30459 0.84993 0.0
C496 C 0.14339 0.44611 0.81896 0.0
C497 C 0.11818 0.4564 0.83698 0.0
H498 H 0.06706 0.46763 0.87285 0.0
H499 H 0.03518 0.42819 0.89878 0.0
H500 H 0.19665 0.36231 0.78357 0.0
H501 H 0.18909 0.41783 0.78568 0.0
H502 H 0.15764 0.46231 0.80647 0.0
H503 H 0.11344 0.48037 0.83806 0.0
Mn504 Mn 0.30007 0.94556 0.17906 0.0
Mn505 Mn 0.33874 0.89457 0.1341 0.0
C506 C 0.33524 0.91488 0.20416 0.0
C507 C 0.29614 0.99483 0.19775 0.0
C508 C 0.27348 0.8862 0.15519 0.0
O509 O 0.29257 0.95899 0.1321 0.0
O510 O 0.32309 0.92684 0.1048 0.0
C511 C 0.39009 0.93308 0.11401 0.0
N512 N 0.37956 0.90766 0.12892 0.0
C513 C 0.42998 0.89145 0.14219 0.0
C514 C 0.44139 0.91734 0.12677 0.0
C515 C 0.42135 0.93827 0.11269 0.0
C516 C 0.39862 0.88745 0.14267 0.0
H517 H 0.37475 0.94926 0.10331 0.0
C518 C 0.30491 0.94934 0.10582 0.0
O519 O 0.27252 0.97747 0.19667 0.0
O520 O 0.32163 0.98368 0.18795 0.0
N521 N 0.35527 0.86199 0.15922 0.0
C522 C 0.34057 0.83859 0.1739 0.0
C523 C 0.35734 0.81578 0.18946 0.0
C524 C 0.38903 0.81714 0.18953 0.0
C525 C 0.40367 0.8412 0.17383 0.0
C526 C 0.38578 0.86309 0.15843 0.0
H527 H 0.31621 0.83737 0.17385 0.0
O528 O 0.31475 0.92839 0.22154 0.0
O529 O 0.33494 0.92037 0.17282 0.0
O530 O 0.27115 0.90991 0.17287 0.0
O531 O 0.29728 0.8792 0.13912 0.0
C532 C 0.43531 0.84454 0.17326 0.0
C533 C 0.44844 0.8697 0.15754 0.0
H534 H 0.46548 0.9215 0.1258 0.0
H535 H 0.42998 0.95839 0.10089 0.0
H536 H 0.34588 0.79727 0.20148 0.0
H537 H 0.40188 0.79969 0.20186 0.0
H538 H 0.44972 0.82809 0.18518 0.0
H539 H 0.47278 0.87221 0.1576 0.0
Mn540 Mn 0.93971 0.6933 0.82003 0.0
Mn541 Mn 0.89097 0.65123 0.86437 0.0
C542 C 0.91276 0.65522 0.795 0.0
C543 C 0.9886 0.70125 0.80161 0.0
C544 C 0.87721 0.71482 0.84099 0.0
O545 O 0.95161 0.7026 0.86709 0.0
O546 O 0.92057 0.67087 0.89418 0.0
C547 C 0.93391 0.6047 0.88768 0.0
N548 N 0.90802 0.61214 0.87155 0.0
C549 C 0.89752 0.55998 0.85961 0.0
C550 C 0.92397 0.55174 0.87629 0.0
C551 C 0.94227 0.5742 0.89032 0.0
C552 C 0.89033 0.59072 0.8578 0.0
H553 H 0.9481 0.62192 0.89837 0.0
C554 C 0.94186 0.69044 0.89342 0.0
O555 O 0.96921 0.72327 0.80226 0.0
O556 O 0.97977 0.6751 0.81205 0.0
N557 N 0.86104 0.63072 0.83884 0.0
C558 C 0.83662 0.6425 0.82298 0.0
C559 C 0.81613 0.62302 0.80736 0.0
C560 C 0.82078 0.59167 0.80847 0.0
C561 C 0.84577 0.58005 0.82543 0.0
C562 C 0.86527 0.60054 0.84079 0.0
H563 H 0.83287 0.66656 0.82211 0.0
O564 O 0.92463 0.67659 0.77752 0.0
O565 O 0.91755 0.65644 0.82645 0.0
O566 O 0.9016 0.71908 0.82492 0.0
O567 O 0.87157 0.69072 0.85712 0.0
C568 C 0.85232 0.54896 0.82732 0.0
C569 C 0.87823 0.53895 0.8443 0.0
H570 H 0.93055 0.52825 0.8783 0.0
H571 H 0.9628 0.56803 0.90309 0.0
H572 H 0.79685 0.63216 0.7944 0.0
H573 H 0.80509 0.57674 0.79612 0.0
H574 H 0.83778 0.5326 0.81546 0.0
H575 H 0.88323 0.51502 0.84525 0.0
H576 H 0.28079 0.38105 0.2958 0.0
H577 H 0.3817 0.2713 0.40273 0.0
H578 H 0.27484 0.36954 0.40073 0.0
H579 H 0.38293 0.27235 0.29692 0.0
H580 H 0.35478 0.3193 0.40256 0.0
H581 H 0.32882 0.35324 0.29611 0.0
C582 C 0.29007 0.37343 0.31897 0.0
C583 C 0.27371 0.37695 0.34821 0.0
C584 C 0.36142 0.30946 0.3793 0.0
C585 C 0.32817 0.34532 0.34878 0.0
C586 C 0.37687 0.28214 0.37945 0.0
C587 C 0.384 0.26783 0.34981 0.0
C588 C 0.35222 0.32208 0.34927 0.0
C589 C 0.37759 0.28276 0.32028 0.0
C590 C 0.31736 0.35749 0.31914 0.0
C591 C 0.28655 0.36671 0.37759 0.0
N592 N 0.36129 0.30881 0.32069 0.0
N593 N 0.31281 0.35104 0.37706 0.0
H594 H 0.37283 0.72792 0.70425 0.0
H595 H 0.26894 0.62287 0.59582 0.0
H596 H 0.36494 0.73091 0.59878 0.0
H597 H 0.26554 0.62514 0.70155 0.0
H598 H 0.31704 0.64954 0.59737 0.0
H599 H 0.34641 0.67914 0.70426 0.0
C600 C 0.36633 0.71782 0.68107 0.0
C601 C 0.37036 0.73353 0.65151 0.0
C602 C 0.30621 0.6437 0.62034 0.0
C603 C 0.34037 0.67826 0.65128 0.0
C604 C 0.27883 0.62841 0.61942 0.0
C605 C 0.26325 0.6224 0.64857 0.0
C606 C 0.31751 0.65393 0.6506 0.0
C607 C 0.27695 0.62966 0.67856 0.0
C608 C 0.3512 0.69011 0.68108 0.0
C609 C 0.36162 0.71968 0.62213 0.0
N610 N 0.30304 0.64585 0.67882 0.0
N611 N 0.34669 0.69303 0.62279 0.0
H612 H 0.61809 0.72377 0.40494 0.0
H613 H 0.72161 0.61641 0.29757 0.0
H614 H 0.61612 0.72223 0.29913 0.0
H615 H 0.72923 0.63029 0.40206 0.0
H616 H 0.67281 0.64288 0.29834 0.0
H617 H 0.64699 0.67693 0.40471 0.0
C618 C 0.62319 0.71305 0.38165 0.0
C619 C 0.61526 0.72693 0.35201 0.0
C620 C 0.68487 0.63947 0.32118 0.0
C621 C 0.64926 0.67406 0.35142 0.0
C622 C 0.7126 0.62433 0.32076 0.0
C623 C 0.72957 0.62182 0.3497 0.0
C624 C 0.67421 0.65183 0.3508 0.0
C625 C 0.71704 0.63237 0.37911 0.0
C626 C 0.63977 0.6864 0.38148 0.0
C627 C 0.62205 0.71215 0.32248 0.0
N628 N 0.6903 0.6472 0.37884 0.0
N629 N 0.63942 0.6868 0.32286 0.0
H630 H 0.62178 0.26685 0.70209 0.0
H631 H 0.7254 0.37289 0.59476 0.0
H632 H 0.63037 0.26385 0.59669 0.0
H633 H 0.72637 0.37237 0.70058 0.0
H634 H 0.67786 0.34522 0.59549 0.0
H635 H 0.64732 0.31608 0.70223 0.0
C636 C 0.62822 0.27703 0.67895 0.0
C637 C 0.62466 0.26121 0.64938 0.0
C638 C 0.68803 0.35164 0.61865 0.0
C639 C 0.65373 0.31698 0.6493 0.0
C640 C 0.7151 0.3675 0.61818 0.0
C641 C 0.72986 0.37432 0.64763 0.0
C642 C 0.67621 0.34168 0.64878 0.0
C643 C 0.71561 0.36724 0.67736 0.0
C644 C 0.64287 0.305 0.67902 0.0
C645 C 0.63333 0.27517 0.62005 0.0
N646 N 0.68986 0.3505 0.67722 0.0
N647 N 0.64782 0.30207 0.62079 0.0
H648 H 0.77166 0.87812 0.81163 0.0
H649 H 0.82166 0.71314 0.87003 0.0
H650 H 0.71626 0.81779 0.86926 0.0
H651 H 0.87911 0.77085 0.81158 0.0
H652 H 0.78308 0.75196 0.86963 0.0
H653 H 0.81149 0.83974 0.8109 0.0
C654 C 0.76782 0.85687 0.82411 0.0
C655 C 0.74052 0.85126 0.8406 0.0
C656 C 0.8041 0.75623 0.85688 0.0
C657 C 0.78596 0.80738 0.83982 0.0
C658 C 0.82626 0.73401 0.85712 0.0
C659 C 0.85381 0.73867 0.84085 0.0
C660 C 0.80934 0.78348 0.84028 0.0
C661 C 0.85824 0.76625 0.82448 0.0
C662 C 0.79058 0.835 0.82367 0.0
C663 C 0.73687 0.82329 0.8563 0.0
N664 N 0.83621 0.78766 0.82461 0.0
N665 N 0.7593 0.80249 0.85552 0.0
H666 H 0.74159 0.14464 0.10871 0.0
H667 H 0.88157 0.22355 0.197 0.0
H668 H 0.77604 0.11371 0.20202 0.0
H669 H 0.84601 0.248 0.10194 0.0
H670 H 0.84733 0.17984 0.19789 0.0
H671 H 0.7836 0.17935 0.1044 0.0
C672 C 0.75807 0.14516 0.12837 0.0
C673 C 0.75508 0.12657 0.156 0.0
C674 C 0.84737 0.19464 0.17673 0.0
C675 C 0.8035 0.16663 0.15131 0.0
C676 C 0.86693 0.21946 0.17616 0.0
C677 C 0.86623 0.23965 0.1496 0.0
C678 C 0.82726 0.19012 0.15047 0.0
C679 C 0.8469 0.23337 0.12322 0.0
C680 C 0.78222 0.16496 0.12583 0.0
C681 C 0.77748 0.12783 0.18038 0.0
N682 N 0.82811 0.20935 0.12446 0.0
N683 N 0.80065 0.14788 0.17769 0.0
H684 H 0.11491 0.2242 0.80518 0.0
H685 H 0.28125 0.17947 0.86439 0.0
H686 H 0.17419 0.28223 0.86106 0.0
H687 H 0.22429 0.11874 0.80906 0.0
H688 H 0.24174 0.21732 0.86238 0.0
H689 H 0.15422 0.18524 0.80534 0.0
C690 C 0.13611 0.22879 0.81745 0.0
C691 C 0.14115 0.25657 0.83321 0.0
C692 C 0.23778 0.19574 0.85065 0.0
C693 C 0.18609 0.21216 0.83343 0.0
C694 C 0.2604 0.174 0.85181 0.0
C695 C 0.25613 0.14573 0.83695 0.0
C696 C 0.21051 0.18934 0.83454 0.0
C697 C 0.22859 0.14019 0.82089 0.0
C698 C 0.15851 0.20654 0.81752 0.0
C699 C 0.1691 0.26121 0.84868 0.0
N700 N 0.20676 0.16182 0.82014 0.0
N701 N 0.19041 0.23927 0.84838 0.0
H702 H 0.26585 0.84019 0.11172 0.0
H703 H 0.11505 0.7757 0.1936 0.0
H704 H 0.2225 0.88377 0.19413 0.0
H705 H 0.1642 0.73326 0.11437 0.0
H706 H 0.15122 0.81767 0.19237 0.0
H707 H 0.22564 0.80325 0.11032 0.0
C708 C 0.24781 0.84206 0.12957 0.0
C709 C 0.24777 0.86501 0.15331 0.0
C710 C 0.15389 0.79917 0.17522 0.0
C711 C 0.20134 0.82236 0.1519 0.0
C712 C 0.13327 0.77524 0.17587 0.0
C713 C 0.13668 0.75077 0.15421 0.0
C714 C 0.17789 0.79856 0.15268 0.0
C715 C 0.1607 0.75141 0.13176 0.0
C716 C 0.22474 0.82088 0.12872 0.0
C717 C 0.22348 0.86639 0.17547 0.0
N718 N 0.18033 0.77481 0.13168 0.0
N719 N 0.20128 0.84515 0.1744 0.0
H720 H 0.11887 0.48354 0.27958 0.0
H721 H 0.13624 0.65877 0.24383 0.0
H722 H 0.20545 0.52743 0.28869 0.0
H723 H 0.07171 0.60232 0.19391 0.0
H724 H 0.15889 0.61326 0.26867 0.0
H725 H 0.09807 0.52954 0.25586 0.0
C726 C 0.13351 0.50294 0.27664 0.0
C727 C 0.16393 0.50174 0.28609 0.0
C728 C 0.13988 0.61095 0.25215 0.0
C729 C 0.14011 0.55456 0.25929 0.0
C730 C 0.127 0.63674 0.23813 0.0
C731 C 0.10287 0.63385 0.21614 0.0
C732 C 0.12763 0.58248 0.24489 0.0
C733 C 0.09093 0.60518 0.21006 0.0
C734 C 0.12163 0.52913 0.263 0.0
C735 C 0.1819 0.52748 0.28156 0.0
N736 N 0.10344 0.58053 0.22436 0.0
N737 N 0.16963 0.55307 0.26865 0.0
H738 H 0.51759 0.80043 0.7079 0.0
H739 H 0.59831 0.93154 0.80577 0.0
H740 H 0.47921 0.88983 0.71447 0.0
H741 H 0.65013 0.86507 0.7529 0.0
H742 H 0.55232 0.91317 0.77885 0.0
H743 H 0.56483 0.81999 0.73131 0.0
C744 C 0.51913 0.82412 0.71426 0.0
C745 C 0.49457 0.84359 0.70924 0.0
C746 C 0.57376 0.90265 0.77309 0.0
C747 C 0.54804 0.86583 0.73608 0.0
C748 C 0.59982 0.91292 0.78857 0.0
C749 C 0.62756 0.89902 0.78213 0.0
C750 C 0.57559 0.87817 0.7513 0.0
C751 C 0.62884 0.87575 0.75892 0.0
C752 C 0.54605 0.83525 0.72738 0.0
C753 C 0.49768 0.8741 0.71781 0.0
N754 N 0.60301 0.86558 0.74466 0.0
N755 N 0.52387 0.88425 0.73111 0.0
H756 H 0.91685 0.3942 0.18002 0.0
H757 H 0.88301 0.50942 0.2863 0.0
H758 H 0.8568 0.3414 0.24028 0.0
H759 H 0.79211 0.47428 0.28349 0.0
H760 H 0.90084 0.46384 0.25901 0.0
H761 H 0.89753 0.44018 0.20563 0.0
C762 C 0.89929 0.39244 0.19846 0.0
C763 C 0.88784 0.36428 0.20773 0.0
C764 C 0.87695 0.46623 0.26413 0.0
C765 C 0.86658 0.41642 0.23795 0.0
C766 C 0.86677 0.49209 0.27995 0.0
C767 C 0.83599 0.49571 0.28691 0.0
C768 C 0.85627 0.44367 0.25536 0.0
C769 C 0.816 0.47241 0.27825 0.0
C770 C 0.88859 0.41855 0.21331 0.0
C771 C 0.86578 0.36292 0.23234 0.0
N772 N 0.82654 0.44715 0.263 0.0
N773 N 0.85555 0.38882 0.24654 0.0
H774 H 0.51808 0.10076 0.70516 0.0
H775 H 0.39714 0.06293 0.80523 0.0
H776 H 0.48 0.19043 0.70959 0.0
H777 H 0.34808 0.12908 0.74891 0.0
H778 H 0.444 0.07915 0.77873 0.0
H779 H 0.47169 0.08068 0.72897 0.0
C780 C 0.49995 0.11624 0.71118 0.0
C781 C 0.50295 0.14735 0.70567 0.0
C782 C 0.42297 0.08989 0.77183 0.0
C783 C 0.45001 0.12452 0.73317 0.0
C784 C 0.3964 0.08094 0.78723 0.0
C785 C 0.36917 0.09537 0.7797 0.0
C786 C 0.42213 0.11337 0.7487 0.0
C787 C 0.36894 0.11793 0.75564 0.0
C788 C 0.47361 0.10477 0.725 0.0
C789 C 0.47867 0.16633 0.71374 0.0
N790 N 0.39525 0.12671 0.74131 0.0
N791 N 0.45306 0.15457 0.72701 0.0
H792 H 0.10044 0.51711 0.69851 0.0
H793 H 0.05845 0.39666 0.79717 0.0
H794 H 0.18955 0.47819 0.70665 0.0
H795 H 0.12589 0.34686 0.74346 0.0
H796 H 0.07558 0.44321 0.77076 0.0
H797 H 0.07905 0.47081 0.72107 0.0
C798 C 0.11552 0.49882 0.70508 0.0
C799 C 0.14685 0.50155 0.701 0.0
C800 C 0.08639 0.42208 0.76437 0.0
C801 C 0.12251 0.44871 0.72706 0.0
C802 C 0.0769 0.39569 0.77972 0.0
C803 C 0.09146 0.36837 0.77297 0.0
C804 C 0.11056 0.42096 0.7421 0.0
C805 C 0.11463 0.36782 0.7496 0.0
C806 C 0.1033 0.47252 0.71818 0.0
C807 C 0.1653 0.47706 0.70972 0.0
N808 N 0.12395 0.39397 0.73535 0.0
N809 N 0.15281 0.4515 0.72227 0.0
H810 H 0.33364 0.86739 0.24665 0.0
H811 H 0.46829 0.79355 0.2902 0.0
H812 H 0.39396 0.93083 0.20068 0.0
H813 H 0.50519 0.88373 0.29136 0.0
H814 H 0.42137 0.81379 0.26683 0.0
H815 H 0.37717 0.84352 0.27385 0.0
C816 C 0.35615 0.87604 0.24219 0.0
C817 C 0.36069 0.90014 0.22054 0.0
C818 C 0.4396 0.82913 0.27274 0.0
C819 C 0.41003 0.87369 0.2516 0.0
C820 C 0.46644 0.81759 0.28574 0.0
C821 C 0.49054 0.83705 0.29289 0.0
C822 C 0.43713 0.86025 0.26666 0.0
C823 C 0.48707 0.86797 0.28646 0.0
C824 C 0.38088 0.8624 0.25747 0.0
C825 C 0.3899 0.9115 0.21634 0.0
N826 N 0.46095 0.87857 0.27343 0.0
N827 N 0.41356 0.89815 0.23175 0.0
H828 H 0.79921 0.52071 0.70525 0.0
H829 H 0.93426 0.5984 0.80013 0.0
H830 H 0.88816 0.48096 0.70918 0.0
H831 H 0.86602 0.65152 0.75168 0.0
H832 H 0.91468 0.55307 0.77294 0.0
H833 H 0.81994 0.56734 0.72889 0.0
C834 C 0.82305 0.52182 0.71107 0.0
C835 C 0.84205 0.49704 0.70524 0.0
C836 C 0.90402 0.57465 0.7682 0.0
C837 C 0.86564 0.54984 0.73231 0.0
C838 C 0.915 0.60033 0.78386 0.0
C839 C 0.90095 0.62823 0.77878 0.0
C840 C 0.87872 0.57701 0.7476 0.0
C841 C 0.87683 0.63008 0.75666 0.0
C842 C 0.83484 0.5484 0.72433 0.0
C843 C 0.87277 0.4996 0.71315 0.0
N844 N 0.86602 0.6046 0.74223 0.0
N845 N 0.88358 0.52547 0.72655 0.0
H846 H 0.66297 0.12701 0.25101 0.0
H847 H 0.48754 0.10791 0.28714 0.0
H848 H 0.60722 0.06142 0.2018 0.0
H849 H 0.53103 0.19479 0.29499 0.0
H850 H 0.53408 0.08684 0.26469 0.0
H851 H 0.61732 0.14862 0.27664 0.0
C852 C 0.64107 0.11728 0.24569 0.0
C853 C 0.63839 0.0932 0.22362 0.0
C854 C 0.53344 0.11051 0.27136 0.0
C855 C 0.58687 0.11675 0.25328 0.0
C856 C 0.50696 0.12253 0.28426 0.0
C857 C 0.50547 0.15315 0.29285 0.0
C858 C 0.55883 0.12906 0.26756 0.0
C859 C 0.53127 0.17109 0.28849 0.0
C860 C 0.61519 0.12954 0.26017 0.0
C861 C 0.60989 0.08062 0.21802 0.0
N862 N 0.55707 0.15872 0.27626 0.0
N863 N 0.58516 0.09257 0.23273 0.0
H864 H 0.67975 0.03856 0.83389 0.0
H865 H 0.63189 0.09959 0.67325 0.0
H866 H 0.7242 0.00224 0.74843 0.0
H867 H 0.65774 0.1663 0.74485 0.0
H868 H 0.66461 0.06284 0.70029 0.0
H869 H 0.67117 0.08595 0.80414 0.0
C870 C 0.68854 0.04102 0.8092 0.0
C871 C 0.70265 0.01671 0.79342 0.0
C872 C 0.66394 0.0858 0.70945 0.0
C873 C 0.69194 0.06994 0.75915 0.0
C874 C 0.64555 0.10682 0.69384 0.0
C875 C 0.64346 0.13634 0.70587 0.0
C876 C 0.67878 0.09384 0.73854 0.0
C877 C 0.65954 0.1439 0.73438 0.0
C878 C 0.68372 0.06797 0.79232 0.0
C879 C 0.71339 0.02067 0.76136 0.0
N880 N 0.67617 0.12255 0.75023 0.0
N881 N 0.70694 0.04653 0.74479 0.0
H882 H 0.17114 0.33979 0.25736 0.0
H883 H 0.00287 0.36534 0.21703 0.0
H884 H 0.11191 0.39014 0.32108 0.0
H885 H 0.03371 0.27326 0.20723 0.0
H886 H 0.04861 0.37761 0.24682 0.0
H887 H 0.12631 0.31602 0.23179 0.0
C888 C 0.14879 0.34518 0.26643 0.0
C889 C 0.14499 0.36642 0.29164 0.0
C890 C 0.0454 0.35468 0.23821 0.0
C891 C 0.09448 0.34047 0.26232 0.0
C892 C 0.01941 0.34766 0.22096 0.0
C893 C 0.01451 0.31821 0.20964 0.0
C894 C 0.06713 0.33232 0.24381 0.0
C895 C 0.03672 0.29622 0.21573 0.0
C896 C 0.12342 0.33162 0.25204 0.0
C897 C 0.11574 0.37334 0.30221 0.0
N898 N 0.06246 0.30379 0.23228 0.0
N899 N 0.09161 0.36069 0.28724 0.0
H900 H 0.31382 0.95767 0.83332 0.0
H901 H 0.36699 0.8953 0.67515 0.0
H902 H 0.27288 0.99365 0.74567 0.0
H903 H 0.33802 0.82906 0.74581 0.0
H904 H 0.3339 0.93251 0.7009 0.0
H905 H 0.3231 0.90997 0.8044 0.0
C906 C 0.30588 0.95506 0.80831 0.0
C907 C 0.2926 0.97936 0.7917 0.0
C908 C 0.33401 0.90958 0.71013 0.0
C909 C 0.30417 0.9258 0.75839 0.0
C910 C 0.35264 0.8883 0.69528 0.0
C911 C 0.35391 0.85877 0.70737 0.0
C912 C 0.31803 0.90174 0.73855 0.0
C913 C 0.33688 0.85147 0.73529 0.0
C914 C 0.31112 0.92794 0.79189 0.0
C915 C 0.28301 0.97522 0.75924 0.0
N916 N 0.31994 0.87304 0.75041 0.0
N917 N 0.28988 0.94919 0.74319 0.0
H918 H 0.8245 0.65246 0.25378 0.0
H919 H 0.99195 0.71675 0.25794 0.0
H920 H 0.89131 0.6194 0.32174 0.0
H921 H 0.95632 0.67747 0.16922 0.0
H922 H 0.94461 0.70372 0.2864 0.0
H923 H 0.86394 0.68328 0.22703 0.0
C924 C 0.84721 0.65252 0.26368 0.0
C925 C 0.85456 0.63452 0.29084 0.0
C926 C 0.94692 0.69899 0.26041 0.0
C927 C 0.89902 0.66948 0.26097 0.0
C928 C 0.97368 0.7065 0.24421 0.0
C929 C 0.97775 0.69805 0.21136 0.0
C930 C 0.92409 0.68374 0.24323 0.0
C931 C 0.95381 0.68425 0.19463 0.0
C932 C 0.86949 0.67002 0.24854 0.0
C933 C 0.88446 0.63429 0.30204 0.0
N934 N 0.92791 0.67734 0.21082 0.0
N935 N 0.90561 0.65171 0.28722 0.0
H936 H 0.72031 0.98304 0.26239 0.0
H937 H 0.64835 0.81866 0.25773 0.0
H938 H 0.68261 0.94775 0.17271 0.0
H939 H 0.61831 0.88803 0.32431 0.0
H940 H 0.6822 0.85579 0.23139 0.0
H941 H 0.70553 0.93623 0.2907 0.0
C942 C 0.71016 0.96487 0.24842 0.0
C943 C 0.70253 0.96895 0.21536 0.0
C944 C 0.66889 0.86237 0.25252 0.0
C945 C 0.68611 0.91593 0.24711 0.0
C946 C 0.64965 0.84141 0.26739 0.0
C947 C 0.63164 0.85017 0.29405 0.0
C948 C 0.67003 0.89195 0.26472 0.0
C949 C 0.63308 0.88009 0.30497 0.0
C950 C 0.70163 0.93841 0.26454 0.0
C951 C 0.68878 0.94519 0.1983 0.0
N952 N 0.65214 0.89992 0.29043 0.0
N953 N 0.68073 0.91962 0.21446 0.0
H954 H 0.8235 0.34013 0.74056 0.0
H955 H 0.99069 0.2739 0.73755 0.0
H956 H 0.89152 0.36898 0.67183 0.0
H957 H 0.95261 0.31174 0.82582 0.0
H958 H 0.94322 0.28508 0.70853 0.0
H959 H 0.86138 0.30743 0.76734 0.0
C960 C 0.84608 0.33871 0.73046 0.0
C961 C 0.85425 0.35618 0.70318 0.0
C962 C 0.94499 0.28976 0.73459 0.0
C963 C 0.89696 0.31906 0.73307 0.0
C964 C 0.97184 0.28325 0.75113 0.0
C965 C 0.97531 0.29207 0.78394 0.0
C966 C 0.92154 0.30447 0.75136 0.0
C967 C 0.95059 0.30472 0.80044 0.0
C968 C 0.86748 0.32012 0.74559 0.0
C969 C 0.884 0.3546 0.69168 0.0
N970 N 0.9247 0.31085 0.78386 0.0
N971 N 0.90429 0.33622 0.70657 0.0
H972 H 0.34902 0.17543 0.25485 0.0
H973 H 0.27746 0.01063 0.25886 0.0
H974 H 0.37682 0.10654 0.32311 0.0
H975 H 0.31541 0.04681 0.16975 0.0
H976 H 0.29122 0.0576 0.28753 0.0
H977 H 0.3154 0.13835 0.22808 0.0
C978 C 0.34724 0.15283 0.26479 0.0
C979 C 0.36459 0.1442 0.29201 0.0
C980 C 0.2954 0.05557 0.2614 0.0
C981 C 0.32646 0.10242 0.26216 0.0
C982 C 0.28744 0.02901 0.24508 0.0
C983 C 0.29545 0.02514 0.21209 0.0
C984 C 0.31078 0.07833 0.24425 0.0
C985 C 0.30896 0.04919 0.19528 0.0
C986 C 0.32814 0.13188 0.24967 0.0
C987 C 0.36256 0.11442 0.3033 0.0
N988 N 0.31648 0.07482 0.21164 0.0
N989 N 0.34366 0.0946 0.28847 0.0
H990 H 0.16912 0.65723 0.73948 0.0
H991 H 0.00155 0.72294 0.74087 0.0
H992 H 0.10112 0.63167 0.66918 0.0
H993 H 0.0425 0.68409 0.82706 0.0
H994 H 0.04836 0.71289 0.7101 0.0
H995 H 0.1316 0.68948 0.76731 0.0
C996 C 0.14664 0.65937 0.72923 0.0
C997 C 0.13836 0.64281 0.70132 0.0
C998 C 0.04735 0.70769 0.73608 0.0
C999 C 0.09596 0.67938 0.73254 0.0
C1000 C 0.02087 0.71355 0.75361 0.0
C1001 C 0.01843 0.70418 0.78635 0.0
C1002 C 0.07145 0.69306 0.7518 0.0
C1003 C 0.04372 0.69153 0.80176 0.0
C1004 C 0.12543 0.67768 0.745 0.0
C1005 C 0.10874 0.64532 0.6896 0.0
N1006 N 0.06923 0.68608 0.78425 0.0
N1007 N 0.08856 0.66335 0.70521 0.0
H1008 H 0.18568 0.50764 0.59339 0.0
H1009 H 0.19612 0.49782 0.3977 0.0
H1010 H 0.17878 0.5856 0.53005 0.0
H1011 H 0.18482 0.42027 0.46085 0.0
H1012 H 0.19431 0.53051 0.44603 0.0
H1013 H 0.18965 0.47549 0.54505 0.0
C1014 C 0.18503 0.51806 0.56933 0.0
C1015 C 0.18186 0.54944 0.56584 0.0
C1016 C 0.19227 0.50633 0.44925 0.0
C1017 C 0.18647 0.51261 0.51029 0.0
C1018 C 0.19343 0.48762 0.42169 0.0
C1019 C 0.19057 0.4562 0.42516 0.0
C1020 C 0.18843 0.49353 0.48051 0.0
C1021 C 0.18701 0.44433 0.4569 0.0
C1022 C 0.18724 0.49963 0.54171 0.0
C1023 C 0.18109 0.56154 0.53396 0.0
N1024 N 0.18606 0.463 0.48331 0.0
N1025 N 0.18344 0.54309 0.50741 0.0
H1026 H 0.49671 0.80565 0.40324 0.0
H1027 H 0.48821 0.81026 0.59922 0.0
H1028 H 0.57489 0.81624 0.46568 0.0
H1029 H 0.4101 0.81941 0.53638 0.0
H1030 H 0.52026 0.80791 0.55055 0.0
H1031 H 0.46457 0.80608 0.45194 0.0
C1032 C 0.50716 0.80796 0.42715 0.0
C1033 C 0.5386 0.81097 0.43032 0.0
C1034 C 0.4961 0.81044 0.54744 0.0
C1035 C 0.50186 0.81145 0.48614 0.0
C1036 C 0.47775 0.8117 0.57522 0.0
C1037 C 0.44636 0.81508 0.57194 0.0
C1038 C 0.48301 0.81235 0.51612 0.0
C1039 C 0.43417 0.81691 0.54015 0.0
C1040 C 0.48876 0.8083 0.45494 0.0
C1041 C 0.55079 0.81398 0.46199 0.0
N1042 N 0.45252 0.81546 0.51348 0.0
N1043 N 0.5324 0.81409 0.48866 0.0
H1044 H 0.8053 0.50125 0.39938 0.0
H1045 H 0.80862 0.49162 0.59534 0.0
H1046 H 0.81743 0.57884 0.46235 0.0
H1047 H 0.81664 0.41369 0.53209 0.0
H1048 H 0.80721 0.52396 0.54686 0.0
H1049 H 0.80474 0.46888 0.44789 0.0
C1050 C 0.80774 0.51153 0.42337 0.0
C1051 C 0.81147 0.54287 0.42673 0.0
C1052 C 0.80928 0.49978 0.54362 0.0
C1053 C 0.81081 0.50585 0.48235 0.0
C1054 C 0.81001 0.48126 0.57129 0.0
C1055 C 0.81279 0.44983 0.56784 0.0
C1056 C 0.81114 0.48682 0.51223 0.0
C1057 C 0.81458 0.43778 0.53599 0.0
C1058 C 0.80751 0.49299 0.45105 0.0
C1059 C 0.81461 0.55482 0.4585 0.0
N1060 N 0.81367 0.45629 0.50942 0.0
N1061 N 0.81416 0.5363 0.48507 0.0
H1062 H 0.41992 0.177 0.4643 0.0
H1063 H 0.58857 0.17329 0.5338 0.0
H1064 H 0.499 0.18608 0.40293 0.0
H1065 H 0.50964 0.18207 0.59548 0.0
H1066 H 0.55604 0.17508 0.48546 0.0
H1067 H 0.45249 0.17604 0.5126 0.0
C1068 C 0.44412 0.17882 0.46093 0.0
C1069 C 0.4567 0.18165 0.42943 0.0
C1070 C 0.54587 0.17669 0.50958 0.0
C1071 C 0.49412 0.18044 0.48472 0.0
C1072 C 0.56442 0.17558 0.53723 0.0
C1073 C 0.55186 0.17756 0.56882 0.0
C1074 C 0.51451 0.17954 0.5135 0.0
C1075 C 0.52039 0.18056 0.57165 0.0
C1076 C 0.46269 0.17833 0.48856 0.0
C1077 C 0.48824 0.18397 0.42669 0.0
N1078 N 0.5028 0.18137 0.54435 0.0
N1079 N 0.50586 0.18321 0.45397 0.0
H1080 H 0.69428 0.06912 0.04778 0.0
H1081 H 0.68656 0.91207 0.95854 0.0
H1082 H 0.70896 0.98579 0.10037 0.0
H1083 H 0.7124 0.99351 0.90755 0.0
H1084 H 0.69346 0.93826 0.01087 0.0
H1085 H 0.69948 0.04181 0.99598 0.0
C1086 C 0.6988 0.04508 0.04839 0.0
C1087 C 0.70098 0.0296 0.07834 0.0
C1088 C 0.69803 0.95023 0.98823 0.0
C1089 C 0.70663 -0.00175 0.01924 0.0
C1090 C 0.69397 0.93537 0.95837 0.0
C1091 C 0.69869 0.95073 0.92867 0.0
C1092 C 0.70625 0.98081 0.98833 0.0
C1093 C 0.7085 0.98083 0.92987 0.0
C1094 C 0.70194 0.02957 0.01884 0.0
C1095 C 0.70714 -0.00147 0.07776 0.0
N1096 N 0.7115 0.99505 0.95924 0.0
N1097 N 0.70929 0.98373 0.04861 0.0
H1098 H 0.07773 0.31247 0.94997 0.0
H1099 H 0.91866 0.30219 0.03605 0.0
H1100 H 0.99771 0.28337 0.89832 0.0
H1101 H 0.00191 0.2962 0.09088 0.0
H1102 H 0.94718 0.29614 0.98518 0.0
H1103 H 0.05066 0.30714 0.00191 0.0
C1104 C 0.05456 0.30465 0.94959 0.0
C1105 C 0.03986 0.29857 0.91977 0.0
C1106 C 0.95917 0.29581 0.00836 0.0
C1107 C 0.00872 0.29281 0.97903 0.0
C1108 C 0.94294 0.29945 0.03739 0.0
C1109 C 0.95799 0.29994 0.06771 0.0
C1110 C 0.99072 0.2932 0.00959 0.0
C1111 C 0.98943 0.29598 0.06801 0.0
C1112 C 0.03918 0.30152 0.97924 0.0
C1113 C 0.0099 0.2883 0.92073 0.0
N1114 N 0.00484 0.29318 0.03931 0.0
N1115 N 0.99516 0.28618 0.94989 0.0
H1116 H 0.3092 0.08427 0.95613 0.0
H1117 H 0.30666 0.92642 0.04374 0.0
H1118 H 0.28412 0.00283 0.90466 0.0
H1119 H 0.28943 0.0087 0.09741 0.0
H1120 H 0.30035 0.95408 0.99229 0.0
H1121 H 0.30358 0.05746 0.00829 0.0
C1122 C 0.30218 0.06085 0.95583 0.0
C1123 C 0.29731 0.04568 0.92604 0.0
C1124 C 0.29759 0.966 0.01533 0.0
C1125 C 0.29131 0.01488 0.98545 0.0
C1126 C 0.30137 0.95029 0.04467 0.0
C1127 C 0.29874 0.96537 0.07482 0.0
C1128 C 0.29181 0.99713 0.01615 0.0
C1129 C 0.29161 0.99624 0.07465 0.0
C1130 C 0.29887 0.04563 0.98558 0.0
C1131 C 0.28807 0.01539 0.92707 0.0
N1132 N 0.28884 0.01126 0.04569 0.0
N1133 N 0.28585 0.00082 0.95631 0.0
H1134 H 0.9186 0.68585 0.95532 0.0
H1135 H 0.07686 0.69427 0.04211 0.0
H1136 H -0.00072 0.71161 0.90287 0.0
H1137 H 0.99388 0.70736 0.09588 0.0
H1138 H 0.04898 0.69983 0.99071 0.0
H1139 H 0.94549 0.6929 0.00716 0.0
C1140 C 0.9419 0.69326 0.95473 0.0
C1141 C 0.95683 0.69792 0.92476 0.0
C1142 C 0.03694 0.70189 0.01375 0.0
C1143 C 0.98773 0.70568 0.98391 0.0
C1144 C 0.05279 0.69857 0.04307 0.0
C1145 C 0.03758 0.70013 0.07325 0.0
C1146 C 0.00557 0.70616 0.01459 0.0
C1147 C 0.00645 0.706 0.07312 0.0
C1148 C 0.95716 0.69742 0.98432 0.0
C1149 C 0.98693 0.70775 0.92543 0.0
N1150 N 0.99134 0.70833 0.04417 0.0
N1151 N 0.00157 0.71085 0.95456 0.0
loop_
_geom_bond_atom_site_label_1
_geom_bond_atom_site_label_2
_geom_bond_distance
_geom_bond_site_symmetry_2
_ccdc_geom_bond_type
Mn0 O5 2.095 . S
Mn0 O15 2.162 . S
Mn0 O16 2.297 . S
Mn0 O24 2.385 . S
Mn0 O25 2.209 . S
Mn0 O26 2.094 . S
Mn1 O6 2.121 . S
Mn1 N8 2.257 . S
Mn1 N17 2.282 . S
Mn1 O25 2.215 . S
Mn1 O27 2.117 . S
C2 O24 1.234 . S
C2 O25 1.283 . S
C3 O15 1.281 . S
C3 O16 1.236 . S
C4 O26 1.240 . S
C4 O27 1.264 . S
O5 Mn0 2.095 . S
O5 C14 1.250 . S
O6 Mn1 2.121 . S
O6 C14 1.258 . S
C7 N8 1.326 . S
C7 C11 1.460 . S
C7 H13 0.929 . S
N8 Mn1 2.257 . S
N8 C7 1.326 . S
N8 C12 1.362 . S
C9 C10 1.258 . S
C9 C12 1.431 . S
C9 C29 1.449 . S
C10 C9 1.258 . S
C10 C11 1.477 . S
C10 H30 0.931 . S
C11 C7 1.460 . S
C11 C10 1.477 . S
C11 H31 0.930 . S
C12 N8 1.362 . S
C12 C9 1.431 . S
C12 C22 1.476 . S
H13 C7 0.929 . S
C14 O5 1.250 . S
C14 O6 1.258 . S
O15 Mn0 2.162 . S
O15 C3 1.281 . S
O16 Mn0 2.297 . S
O16 C3 1.236 . S
N17 Mn1 2.282 . S
N17 C18 1.328 . S
N17 C22 1.318 . S
C18 N17 1.328 . S
C18 C19 1.457 . S
C18 H23 0.929 . S
C19 C18 1.457 . S
C19 C20 1.291 . S
C19 H32 0.931 . S
C20 C19 1.291 . S
C20 C21 1.373 . S
C20 H33 0.929 . S
C21 C20 1.373 . S
C21 C22 1.396 . S
C21 C28 1.403 . S
C22 C12 1.476 . S
C22 N17 1.318 . S
C22 C21 1.396 . S
H23 C18 0.929 . S
O24 Mn0 2.385 . S
O24 C2 1.234 . S
O25 Mn0 2.209 . S
O25 Mn1 2.215 . S
O25 C2 1.283 . S
O26 Mn0 2.094 . S
O26 C4 1.240 . S
O27 Mn1 2.117 . S
O27 C4 1.264 . S
C28 C21 1.403 . S
C28 C29 1.399 . S
C28 H34 0.929 . S
C29 C9 1.449 . S
C29 C28 1.399 . S
C29 H35 0.930 . S
H30 C10 0.931 . S
H31 C11 0.930 . S
H32 C19 0.931 . S
H33 C20 0.929 . S
H34 C28 0.929 . S
H35 C29 0.930 . S
Mn36 O41 2.095 . S
Mn36 O51 2.162 . S
Mn36 O52 2.297 . S
Mn36 O60 2.385 . S
Mn36 O61 2.209 . S
Mn36 O62 2.094 . S
Mn37 O42 2.121 . S
Mn37 N44 2.257 . S
Mn37 N53 2.282 . S
Mn37 O61 2.215 . S
Mn37 O63 2.117 . S
C38 O60 1.234 . S
C38 O61 1.283 . S
C39 O51 1.281 . S
C39 O52 1.236 . S
C40 O62 1.240 . S
C40 O63 1.264 . S
O41 Mn36 2.095 . S
O41 C50 1.250 . S
O42 Mn37 2.121 . S
O42 C50 1.258 . S
C43 N44 1.326 . S
C43 C47 1.460 . S
C43 H49 0.929 . S
N44 Mn37 2.257 . S
N44 C43 1.326 . S
N44 C48 1.362 . S
C45 C46 1.258 . S
C45 C48 1.431 . S
C45 C65 1.449 . S
C46 C45 1.258 . S
C46 C47 1.477 . S
C46 H66 0.931 . S
C47 C43 1.460 . S
C47 C46 1.477 . S
C47 H67 0.930 . S
C48 N44 1.362 . S
C48 C45 1.431 . S
C48 C58 1.476 . S
H49 C43 0.929 . S
C50 O41 1.250 . S
C50 O42 1.258 . S
O51 Mn36 2.162 . S
O51 C39 1.281 . S
O52 Mn36 2.297 . S
O52 C39 1.236 . S
N53 Mn37 2.282 . S
N53 C54 1.328 . S
N53 C58 1.318 . S
C54 N53 1.328 . S
C54 C55 1.457 . S
C54 H59 0.929 . S
C55 C54 1.457 . S
C55 C56 1.291 . S
C55 H68 0.931 . S
C56 C55 1.291 . S
C56 C57 1.373 . S
C56 H69 0.929 . S
C57 C56 1.373 . S
C57 C58 1.396 . S
C57 C64 1.403 . S
C58 C48 1.476 . S
C58 N53 1.318 . S
C58 C57 1.396 . S
H59 C54 0.929 . S
O60 Mn36 2.385 . S
O60 C38 1.234 . S
O61 Mn36 2.209 . S
O61 Mn37 2.215 . S
O61 C38 1.283 . S
O62 Mn36 2.094 . S
O62 C40 1.240 . S
O63 Mn37 2.117 . S
O63 C40 1.264 . S
C64 C57 1.403 . S
C64 C65 1.399 . S
C64 H70 0.929 . S
C65 C45 1.449 . S
C65 C64 1.399 . S
C65 H71 0.930 . S
H66 C46 0.931 . S
H67 C47 0.930 . S
H68 C55 0.931 . S
H69 C56 0.929 . S
H70 C64 0.929 . S
H71 C65 0.930 . S
Mn72 O77 2.095 . S
Mn72 O87 2.162 . S
Mn72 O88 2.297 . S
Mn72 O96 2.385 . S
Mn72 O97 2.209 . S
Mn72 O98 2.094 . S
Mn73 O78 2.121 . S
Mn73 N80 2.257 . S
Mn73 N89 2.282 . S
Mn73 O97 2.215 . S
Mn73 O99 2.117 . S
C74 O96 1.234 . S
C74 O97 1.283 . S
C75 O87 1.281 . S
C75 O88 1.236 . S
C76 O98 1.240 . S
C76 O99 1.264 . S
O77 Mn72 2.095 . S
O77 C86 1.250 . S
O78 Mn73 2.121 . S
O78 C86 1.258 . S
C79 N80 1.326 . S
C79 C83 1.460 . S
C79 H85 0.929 . S
N80 Mn73 2.257 . S
N80 C79 1.326 . S
N80 C84 1.362 . S
C81 C82 1.258 . S
C81 C84 1.431 . S
C81 C101 1.449 . S
C82 C81 1.258 . S
C82 C83 1.477 . S
C82 H102 0.931 . S
C83 C79 1.460 . S
C83 C82 1.477 . S
C83 H103 0.930 . S
C84 N80 1.362 . S
C84 C81 1.431 . S
C84 C94 1.476 . S
H85 C79 0.929 . S
C86 O77 1.250 . S
C86 O78 1.258 . S
O87 Mn72 2.162 . S
O87 C75 1.281 . S
O88 Mn72 2.297 . S
O88 C75 1.236 . S
N89 Mn73 2.282 . S
N89 C90 1.328 . S
N89 C94 1.318 . S
C90 N89 1.328 . S
C90 C91 1.457 . S
C90 H95 0.929 . S
C91 C90 1.457 . S
C91 C92 1.291 . S
C91 H104 0.931 . S
C92 C91 1.291 . S
C92 C93 1.373 . S
C92 H105 0.929 . S
C93 C92 1.373 . S
C93 C94 1.396 . S
C93 C100 1.403 . S
C94 C84 1.476 . S
C94 N89 1.318 . S
C94 C93 1.396 . S
H95 C90 0.929 . S
O96 Mn72 2.385 . S
O96 C74 1.234 . S
O97 Mn72 2.209 . S
O97 Mn73 2.215 . S
O97 C74 1.283 . S
O98 Mn72 2.094 . S
O98 C76 1.240 . S
O99 Mn73 2.117 . S
O99 C76 1.264 . S
C100 C93 1.403 . S
C100 C101 1.399 . S
C100 H106 0.929 . S
C101 C81 1.449 . S
C101 C100 1.399 . S
C101 H107 0.930 . S
H102 C82 0.931 . S
H103 C83 0.930 . S
H104 C91 0.931 . S
H105 C92 0.929 . S
H106 C100 0.929 . S
H107 C101 0.930 . S
Mn108 O113 2.095 . S
Mn108 O123 2.162 . S
Mn108 O124 2.297 . S
Mn108 O132 2.385 . S
Mn108 O133 2.209 . S
Mn108 O134 2.094 . S
Mn109 O114 2.121 . S
Mn109 N116 2.257 . S
Mn109 N125 2.282 . S
Mn109 O133 2.215 . S
Mn109 O135 2.117 . S
C110 O132 1.234 . S
C110 O133 1.283 . S
C111 O123 1.281 . S
C111 O124 1.236 . S
C112 O134 1.240 . S
C112 O135 1.264 . S
O113 Mn108 2.095 . S
O113 C122 1.250 . S
O114 Mn109 2.121 . S
O114 C122 1.258 . S
C115 N116 1.326 . S
C115 C119 1.460 . S
C115 H121 0.929 . S
N116 Mn109 2.257 . S
N116 C115 1.326 . S
N116 C120 1.362 . S
C117 C118 1.258 . S
C117 C120 1.431 . S
C117 C137 1.449 . S
C118 C117 1.258 . S
C118 C119 1.477 . S
C118 H138 0.931 . S
C119 C115 1.460 . S
C119 C118 1.477 . S
C119 H139 0.930 . S
C120 N116 1.362 . S
C120 C117 1.431 . S
C120 C130 1.476 . S
H121 C115 0.929 . S
C122 O113 1.250 . S
C122 O114 1.258 . S
O123 Mn108 2.162 . S
O123 C111 1.281 . S
O124 Mn108 2.297 . S
O124 C111 1.236 . S
N125 Mn109 2.282 . S
N125 C126 1.328 . S
N125 C130 1.318 . S
C126 N125 1.328 . S
C126 C127 1.457 . S
C126 H131 0.929 . S
C127 C126 1.457 . S
C127 C128 1.291 . S
C127 H140 0.931 . S
C128 C127 1.291 . S
C128 C129 1.373 . S
C128 H141 0.929 . S
C129 C128 1.373 . S
C129 C130 1.396 . S
C129 C136 1.403 . S
C130 C120 1.476 . S
C130 N125 1.318 . S
C130 C129 1.396 . S
H131 C126 0.929 . S
O132 Mn108 2.385 . S
O132 C110 1.234 . S
O133 Mn108 2.209 . S
O133 Mn109 2.215 . S
O133 C110 1.283 . S
O134 Mn108 2.094 . S
O134 C112 1.240 . S
O135 Mn109 2.117 . S
O135 C112 1.264 . S
C136 C129 1.403 . S
C136 C137 1.399 . S
C136 H142 0.929 . S
C137 C117 1.449 . S
C137 C136 1.399 . S
C137 H143 0.930 . S
H138 C118 0.931 . S
H139 C119 0.930 . S
H140 C127 0.931 . S
H141 C128 0.929 . S
H142 C136 0.929 . S
H143 C137 0.930 . S
Mn144 O149 2.095 . S
Mn144 O159 2.162 . S
Mn144 O160 2.297 . S
Mn144 O168 2.385 . S
Mn144 O169 2.209 . S
Mn144 O170 2.094 . S
Mn145 O150 2.121 . S
Mn145 N152 2.257 . S
Mn145 N161 2.282 . S
Mn145 O169 2.215 . S
Mn145 O171 2.117 . S
C146 O168 1.234 . S
C146 O169 1.283 . S
C147 O159 1.281 . S
C147 O160 1.236 . S
C148 O170 1.240 . S
C148 O171 1.264 . S
O149 Mn144 2.095 . S
O149 C158 1.250 . S
O150 Mn145 2.121 . S
O150 C158 1.258 . S
C151 N152 1.326 . S
C151 C155 1.460 . S
C151 H157 0.929 . S
N152 Mn145 2.257 . S
N152 C151 1.326 . S
N152 C156 1.362 . S
C153 C154 1.258 . S
C153 C156 1.431 . S
C153 C173 1.449 . S
C154 C153 1.258 . S
C154 C155 1.477 . S
C154 H174 0.931 . S
C155 C151 1.460 . S
C155 C154 1.477 . S
C155 H175 0.930 . S
C156 N152 1.362 . S
C156 C153 1.431 . S
C156 C166 1.476 . S
H157 C151 0.929 . S
C158 O149 1.250 . S
C158 O150 1.258 . S
O159 Mn144 2.162 . S
O159 C147 1.281 . S
O160 Mn144 2.297 . S
O160 C147 1.236 . S
N161 Mn145 2.282 . S
N161 C162 1.328 . S
N161 C166 1.318 . S
C162 N161 1.328 . S
C162 C163 1.457 . S
C162 H167 0.929 . S
C163 C162 1.457 . S
C163 C164 1.291 . S
C163 H176 0.931 . S
C164 C163 1.291 . S
C164 C165 1.373 . S
C164 H177 0.929 . S
C165 C164 1.373 . S
C165 C166 1.396 . S
C165 C172 1.403 . S
C166 C156 1.476 . S
C166 N161 1.318 . S
C166 C165 1.396 . S
H167 C162 0.929 . S
O168 Mn144 2.385 . S
O168 C146 1.234 . S
O169 Mn144 2.209 . S
O169 Mn145 2.215 . S
O169 C146 1.283 . S
O170 Mn144 2.094 . S
O170 C148 1.240 . S
O171 Mn145 2.117 . S
O171 C148 1.264 . S
C172 C165 1.403 . S
C172 C173 1.399 . S
C172 H178 0.929 . S
C173 C153 1.449 . S
C173 C172 1.399 . S
C173 H179 0.930 . S
H174 C154 0.931 . S
H175 C155 0.930 . S
H176 C163 0.931 . S
H177 C164 0.929 . S
H178 C172 0.929 . S
H179 C173 0.930 . S
Mn180 O185 2.095 . S
Mn180 O195 2.162 . S
Mn180 O196 2.297 . S
Mn180 O204 2.385 . S
Mn180 O205 2.209 . S
Mn180 O206 2.094 . S
Mn181 O186 2.121 . S
Mn181 N188 2.257 . S
Mn181 N197 2.282 . S
Mn181 O205 2.215 . S
Mn181 O207 2.117 . S
C182 O204 1.234 . S
C182 O205 1.283 . S
C183 O195 1.281 . S
C183 O196 1.236 . S
C184 O206 1.240 . S
C184 O207 1.264 . S
O185 Mn180 2.095 . S
O185 C194 1.250 . S
O186 Mn181 2.121 . S
O186 C194 1.258 . S
C187 N188 1.326 . S
C187 C191 1.460 . S
C187 H193 0.929 . S
N188 Mn181 2.257 . S
N188 C187 1.326 . S
N188 C192 1.362 . S
C189 C190 1.258 . S
C189 C192 1.431 . S
C189 C209 1.449 . S
C190 C189 1.258 . S
C190 C191 1.477 . S
C190 H210 0.931 . S
C191 C187 1.460 . S
C191 C190 1.477 . S
C191 H211 0.930 . S
C192 N188 1.362 . S
C192 C189 1.431 . S
C192 C202 1.476 . S
H193 C187 0.929 . S
C194 O185 1.250 . S
C194 O186 1.258 . S
O195 Mn180 2.162 . S
O195 C183 1.281 . S
O196 Mn180 2.297 . S
O196 C183 1.236 . S
N197 Mn181 2.282 . S
N197 C198 1.328 . S
N197 C202 1.318 . S
C198 N197 1.328 . S
C198 C199 1.457 . S
C198 H203 0.929 . S
C199 C198 1.457 . S
C199 C200 1.291 . S
C199 H212 0.931 . S
C200 C199 1.291 . S
C200 C201 1.373 . S
C200 H213 0.929 . S
C201 C200 1.373 . S
C201 C202 1.396 . S
C201 C208 1.403 . S
C202 C192 1.476 . S
C202 N197 1.318 . S
C202 C201 1.396 . S
H203 C198 0.929 . S
O204 Mn180 2.385 . S
O204 C182 1.234 . S
O205 Mn180 2.209 . S
O205 Mn181 2.215 . S
O205 C182 1.283 . S
O206 Mn180 2.094 . S
O206 C184 1.240 . S
O207 Mn181 2.117 . S
O207 C184 1.264 . S
C208 C201 1.403 . S
C208 C209 1.399 . S
C208 H214 0.929 . S
C209 C189 1.449 . S
C209 C208 1.399 . S
C209 H215 0.930 . S
H210 C190 0.931 . S
H211 C191 0.930 . S
H212 C199 0.931 . S
H213 C200 0.929 . S
H214 C208 0.929 . S
H215 C209 0.930 . S
Mn216 O221 2.095 . S
Mn216 O231 2.162 . S
Mn216 O232 2.297 . S
Mn216 O240 2.385 . S
Mn216 O241 2.209 . S
Mn216 O242 2.094 . S
Mn217 O222 2.121 . S
Mn217 N224 2.257 . S
Mn217 N233 2.282 . S
Mn217 O241 2.215 . S
Mn217 O243 2.117 . S
C218 O240 1.234 . S
C218 O241 1.283 . S
C219 O231 1.281 . S
C219 O232 1.236 . S
C220 O242 1.240 . S
C220 O243 1.264 . S
O221 Mn216 2.095 . S
O221 C230 1.250 . S
O222 Mn217 2.121 . S
O222 C230 1.258 . S
C223 N224 1.326 . S
C223 C227 1.460 . S
C223 H229 0.929 . S
N224 Mn217 2.257 . S
N224 C223 1.326 . S
N224 C228 1.362 . S
C225 C226 1.258 . S
C225 C228 1.431 . S
C225 C245 1.449 . S
C226 C225 1.258 . S
C226 C227 1.477 . S
C226 H246 0.931 . S
C227 C223 1.460 . S
C227 C226 1.477 . S
C227 H247 0.930 . S
C228 N224 1.362 . S
C228 C225 1.431 . S
C228 C238 1.476 . S
H229 C223 0.929 . S
C230 O221 1.250 . S
C230 O222 1.258 . S
O231 Mn216 2.162 . S
O231 C219 1.281 . S
O232 Mn216 2.297 . S
O232 C219 1.236 . S
N233 Mn217 2.282 . S
N233 C234 1.328 . S
N233 C238 1.318 . S
C234 N233 1.328 . S
C234 C235 1.457 . S
C234 H239 0.929 . S
C235 C234 1.457 . S
C235 C236 1.291 . S
C235 H248 0.931 . S
C236 C235 1.291 . S
C236 C237 1.373 . S
C236 H249 0.929 . S
C237 C236 1.373 . S
C237 C238 1.396 . S
C237 C244 1.403 . S
C238 C228 1.476 . S
C238 N233 1.318 . S
C238 C237 1.396 . S
H239 C234 0.929 . S
O240 Mn216 2.385 . S
O240 C218 1.234 . S
O241 Mn216 2.209 . S
O241 Mn217 2.215 . S
O241 C218 1.283 . S
O242 Mn216 2.094 . S
O242 C220 1.240 . S
O243 Mn217 2.117 . S
O243 C220 1.264 . S
C244 C237 1.403 . S
C244 C245 1.399 . S
C244 H250 0.929 . S
C245 C225 1.449 . S
C245 C244 1.399 . S
C245 H251 0.930 . S
H246 C226 0.931 . S
H247 C227 0.930 . S
H248 C235 0.931 . S
H249 C236 0.929 . S
H250 C244 0.929 . S
H251 C245 0.930 . S
Mn252 O257 2.095 . S
Mn252 O267 2.162 . S
Mn252 O268 2.297 . S
Mn252 O276 2.385 . S
Mn252 O277 2.209 . S
Mn252 O278 2.094 . S
Mn253 O258 2.121 . S
Mn253 N260 2.257 . S
Mn253 N269 2.282 . S
Mn253 O277 2.215 . S
Mn253 O279 2.117 . S
C254 O276 1.234 . S
C254 O277 1.283 . S
C255 O267 1.281 . S
C255 O268 1.236 . S
C256 O278 1.240 . S
C256 O279 1.264 . S
O257 Mn252 2.095 . S
O257 C266 1.250 . S
O258 Mn253 2.121 . S
O258 C266 1.258 . S
C259 N260 1.326 . S
C259 C263 1.460 . S
C259 H265 0.929 . S
N260 Mn253 2.257 . S
N260 C259 1.326 . S
N260 C264 1.362 . S
C261 C262 1.258 . S
C261 C264 1.431 . S
C261 C281 1.449 . S
C262 C261 1.258 . S
C262 C263 1.477 . S
C262 H282 0.931 . S
C263 C259 1.460 . S
C263 C262 1.477 . S
C263 H283 0.930 . S
C264 N260 1.362 . S
C264 C261 1.431 . S
C264 C274 1.476 . S
H265 C259 0.929 . S
C266 O257 1.250 . S
C266 O258 1.258 . S
O267 Mn252 2.162 . S
O267 C255 1.281 . S
O268 Mn252 2.297 . S
O268 C255 1.236 . S
N269 Mn253 2.282 . S
N269 C270 1.328 . S
N269 C274 1.318 . S
C270 N269 1.328 . S
C270 C271 1.457 . S
C270 H275 0.929 . S
C271 C270 1.457 . S
C271 C272 1.291 . S
C271 H284 0.931 . S
C272 C271 1.291 . S
C272 C273 1.373 . S
C272 H285 0.929 . S
C273 C272 1.373 . S
C273 C274 1.396 . S
C273 C280 1.403 . S
C274 C264 1.476 . S
C274 N269 1.318 . S
C274 C273 1.396 . S
H275 C270 0.929 . S
O276 Mn252 2.385 . S
O276 C254 1.234 . S
O277 Mn252 2.209 . S
O277 Mn253 2.215 . S
O277 C254 1.283 . S
O278 Mn252 2.094 . S
O278 C256 1.240 . S
O279 Mn253 2.117 . S
O279 C256 1.264 . S
C280 C273 1.403 . S
C280 C281 1.399 . S
C280 H286 0.929 . S
C281 C261 1.449 . S
C281 C280 1.399 . S
C281 H287 0.930 . S
H282 C262 0.931 . S
H283 C263 0.930 . S
H284 C271 0.931 . S
H285 C272 0.929 . S
H286 C280 0.929 . S
H287 C281 0.930 . S
Mn288 O293 2.095 . S
Mn288 O303 2.132 1_565 S
Mn288 O304 2.297 . S
Mn288 O312 2.385 . S
Mn288 O313 2.209 . S
Mn288 O314 2.094 . S
Mn289 O294 2.121 . S
Mn289 N296 2.257 . S
Mn289 N305 2.282 . S
Mn289 O313 2.215 . S
Mn289 O315 2.117 . S
C290 O312 1.234 . S
C290 O313 1.283 . S
C291 O303 1.294 . S
C291 O304 1.236 1_545 S
C292 O314 1.240 . S
C292 O315 1.264 . S
O293 Mn288 2.095 . S
O293 C302 1.250 . S
O294 Mn289 2.121 . S
O294 C302 1.258 . S
C295 N296 1.326 . S
C295 C299 1.460 . S
C295 H301 0.929 . S
N296 Mn289 2.257 . S
N296 C295 1.326 . S
N296 C300 1.362 . S
C297 C298 1.258 . S
C297 C300 1.431 . S
C297 C317 1.449 . S
C298 C297 1.258 . S
C298 C299 1.477 . S
C298 H318 0.931 . S
C299 C295 1.460 . S
C299 C298 1.477 . S
C299 H319 0.930 . S
C300 N296 1.362 . S
C300 C297 1.431 . S
C300 C310 1.476 . S
H301 C295 0.929 . S
C302 O293 1.250 . S
C302 O294 1.258 . S
O303 Mn288 2.132 1_545 S
O303 C291 1.294 . S
O304 Mn288 2.297 . S
O304 C291 1.236 1_565 S
N305 Mn289 2.282 . S
N305 C306 1.328 . S
N305 C310 1.318 . S
C306 N305 1.328 . S
C306 C307 1.457 . S
C306 H311 0.929 . S
C307 C306 1.457 . S
C307 C308 1.291 . S
C307 H320 0.931 . S
C308 C307 1.291 . S
C308 C309 1.373 . S
C308 H321 0.929 . S
C309 C308 1.373 . S
C309 C310 1.396 . S
C309 C316 1.403 . S
C310 C300 1.476 . S
C310 N305 1.318 . S
C310 C309 1.396 . S
H311 C306 0.929 . S
O312 Mn288 2.385 . S
O312 C290 1.234 . S
O313 Mn288 2.209 . S
O313 Mn289 2.215 . S
O313 C290 1.283 . S
O314 Mn288 2.094 . S
O314 C292 1.240 . S
O315 Mn289 2.117 . S
O315 C292 1.264 . S
C316 C309 1.403 . S
C316 C317 1.399 . S
C316 H322 0.929 . S
C317 C297 1.449 . S
C317 C316 1.399 . S
C317 H323 0.930 . S
H318 C298 0.931 . S
H319 C299 0.930 . S
H320 C307 0.931 . S
H321 C308 0.929 . S
H322 C316 0.929 . S
H323 C317 0.930 . S
Mn324 O329 2.095 . S
Mn324 O339 2.132 1_655 S
Mn324 O340 2.297 . S
Mn324 O348 2.385 . S
Mn324 O349 2.209 . S
Mn324 O350 2.094 . S
Mn325 O330 2.121 . S
Mn325 N332 2.257 . S
Mn325 N341 2.282 . S
Mn325 O349 2.215 . S
Mn325 O351 2.117 . S
C326 O348 1.234 . S
C326 O349 1.283 . S
C327 O339 1.294 . S
C327 O340 1.236 1_455 S
C328 O350 1.240 . S
C328 O351 1.264 . S
O329 Mn324 2.095 . S
O329 C338 1.250 . S
O330 Mn325 2.121 . S
O330 C338 1.258 . S
C331 N332 1.326 . S
C331 C335 1.460 . S
C331 H337 0.929 . S
N332 Mn325 2.257 . S
N332 C331 1.326 . S
N332 C336 1.362 . S
C333 C334 1.258 . S
C333 C336 1.431 . S
C333 C353 1.449 . S
C334 C333 1.258 . S
C334 C335 1.477 . S
C334 H354 0.931 . S
C335 C331 1.460 . S
C335 C334 1.477 . S
C335 H355 0.930 . S
C336 N332 1.362 . S
C336 C333 1.431 . S
C336 C346 1.476 . S
H337 C331 0.929 . S
C338 O329 1.250 . S
C338 O330 1.258 . S
O339 Mn324 2.132 1_455 S
O339 C327 1.294 . S
O340 Mn324 2.297 . S
O340 C327 1.236 1_655 S
N341 Mn325 2.282 . S
N341 C342 1.328 . S
N341 C346 1.318 . S
C342 N341 1.328 . S
C342 C343 1.457 . S
C342 H347 0.929 . S
C343 C342 1.457 . S
C343 C344 1.291 . S
C343 H356 0.931 . S
C344 C343 1.291 . S
C344 C345 1.373 . S
C344 H357 0.929 . S
C345 C344 1.373 . S
C345 C346 1.396 . S
C345 C352 1.403 . S
C346 C336 1.476 . S
C346 N341 1.318 . S
C346 C345 1.396 . S
H347 C342 0.929 . S
O348 Mn324 2.385 . S
O348 C326 1.234 . S
O349 Mn324 2.209 . S
O349 Mn325 2.215 . S
O349 C326 1.283 . S
O350 Mn324 2.094 . S
O350 C328 1.240 . S
O351 Mn325 2.117 . S
O351 C328 1.264 . S
C352 C345 1.403 . S
C352 C353 1.399 . S
C352 H358 0.929 . S
C353 C333 1.449 . S
C353 C352 1.399 . S
C353 H359 0.930 . S
H354 C334 0.931 . S
H355 C335 0.930 . S
H356 C343 0.931 . S
H357 C344 0.929 . S
H358 C352 0.929 . S
H359 C353 0.930 . S
Mn360 O365 2.095 . S
Mn360 O375 2.132 1_545 S
Mn360 O376 2.297 . S
Mn360 O384 2.385 . S
Mn360 O385 2.209 . S
Mn360 O386 2.094 . S
Mn361 O366 2.121 . S
Mn361 N368 2.257 . S
Mn361 N377 2.282 . S
Mn361 O385 2.215 . S
Mn361 O387 2.117 . S
C362 O384 1.234 . S
C362 O385 1.283 . S
C363 O375 1.294 . S
C363 O376 1.236 1_565 S
C364 O386 1.240 . S
C364 O387 1.264 . S
O365 Mn360 2.095 . S
O365 C374 1.250 . S
O366 Mn361 2.121 . S
O366 C374 1.258 . S
C367 N368 1.326 . S
C367 C371 1.460 . S
C367 H373 0.929 . S
N368 Mn361 2.257 . S
N368 C367 1.326 . S
N368 C372 1.362 . S
C369 C370 1.258 . S
C369 C372 1.431 . S
C369 C389 1.449 . S
C370 C369 1.258 . S
C370 C371 1.477 . S
C370 H390 0.931 . S
C371 C367 1.460 . S
C371 C370 1.477 . S
C371 H391 0.930 . S
C372 N368 1.362 . S
C372 C369 1.431 . S
C372 C382 1.476 . S
H373 C367 0.929 . S
C374 O365 1.250 . S
C374 O366 1.258 . S
O375 Mn360 2.132 1_565 S
O375 C363 1.294 . S
O376 Mn360 2.297 . S
O376 C363 1.236 1_545 S
N377 Mn361 2.282 . S
N377 C378 1.328 . S
N377 C382 1.318 . S
C378 N377 1.328 . S
C378 C379 1.457 . S
C378 H383 0.929 . S
C379 C378 1.457 . S
C379 C380 1.291 . S
C379 H392 0.931 . S
C380 C379 1.291 . S
C380 C381 1.373 . S
C380 H393 0.929 . S
C381 C380 1.373 . S
C381 C382 1.396 . S
C381 C388 1.403 . S
C382 C372 1.476 . S
C382 N377 1.318 . S
C382 C381 1.396 . S
H383 C378 0.929 . S
O384 Mn360 2.385 . S
O384 C362 1.234 . S
O385 Mn360 2.209 . S
O385 Mn361 2.215 . S
O385 C362 1.283 . S
O386 Mn360 2.094 . S
O386 C364 1.240 . S
O387 Mn361 2.117 . S
O387 C364 1.264 . S
C388 C381 1.403 . S
C388 C389 1.399 . S
C388 H394 0.929 . S
C389 C369 1.449 . S
C389 C388 1.399 . S
C389 H395 0.930 . S
H390 C370 0.931 . S
H391 C371 0.930 . S
H392 C379 0.931 . S
H393 C380 0.929 . S
H394 C388 0.929 . S
H395 C389 0.930 . S
Mn396 O401 2.095 . S
Mn396 O411 2.132 1_455 S
Mn396 O412 2.297 . S
Mn396 O420 2.385 . S
Mn396 O421 2.209 . S
Mn396 O422 2.094 . S
Mn397 O402 2.121 . S
Mn397 N404 2.257 . S
Mn397 N413 2.282 . S
Mn397 O421 2.215 . S
Mn397 O423 2.117 . S
C398 O420 1.234 . S
C398 O421 1.283 . S
C399 O411 1.294 . S
C399 O412 1.236 1_655 S
C400 O422 1.240 . S
C400 O423 1.264 . S
O401 Mn396 2.095 . S
O401 C410 1.250 . S
O402 Mn397 2.121 . S
O402 C410 1.258 . S
C403 N404 1.326 . S
C403 C407 1.460 . S
C403 H409 0.929 . S
N404 Mn397 2.257 . S
N404 C403 1.326 . S
N404 C408 1.362 . S
C405 C406 1.258 . S
C405 C408 1.431 . S
C405 C425 1.449 . S
C406 C405 1.258 . S
C406 C407 1.477 . S
C406 H426 0.931 . S
C407 C403 1.460 . S
C407 C406 1.477 . S
C407 H427 0.930 . S
C408 N404 1.362 . S
C408 C405 1.431 . S
C408 C418 1.476 . S
H409 C403 0.929 . S
C410 O401 1.250 . S
C410 O402 1.258 . S
O411 Mn396 2.132 1_655 S
O411 C399 1.294 . S
O412 Mn396 2.297 . S
O412 C399 1.236 1_455 S
N413 Mn397 2.282 . S
N413 C414 1.328 . S
N413 C418 1.318 . S
C414 N413 1.328 . S
C414 C415 1.457 . S
C414 H419 0.929 . S
C415 C414 1.457 . S
C415 C416 1.291 . S
C415 H428 0.931 . S
C416 C415 1.291 . S
C416 C417 1.373 . S
C416 H429 0.929 . S
C417 C416 1.373 . S
C417 C418 1.396 . S
C417 C424 1.403 . S
C418 C408 1.476 . S
C418 N413 1.318 . S
C418 C417 1.396 . S
H419 C414 0.929 . S
O420 Mn396 2.385 . S
O420 C398 1.234 . S
O421 Mn396 2.209 . S
O421 Mn397 2.215 . S
O421 C398 1.283 . S
O422 Mn396 2.094 . S
O422 C400 1.240 . S
O423 Mn397 2.117 . S
O423 C400 1.264 . S
C424 C417 1.403 . S
C424 C425 1.399 . S
C424 H430 0.929 . S
C425 C405 1.449 . S
C425 C424 1.399 . S
C425 H431 0.930 . S
H426 C406 0.931 . S
H427 C407 0.930 . S
H428 C415 0.931 . S
H429 C416 0.929 . S
H430 C424 0.929 . S
H431 C425 0.930 . S
Mn432 O437 2.095 . S
Mn432 O447 2.132 1_545 S
Mn432 O448 2.297 . S
Mn432 O456 2.385 . S
Mn432 O457 2.209 . S
Mn432 O458 2.094 . S
Mn433 O438 2.121 . S
Mn433 N440 2.257 . S
Mn433 N449 2.282 . S
Mn433 O457 2.215 . S
Mn433 O459 2.117 . S
C434 O456 1.234 . S
C434 O457 1.283 . S
C435 O447 1.294 . S
C435 O448 1.236 1_565 S
C436 O458 1.240 . S
C436 O459 1.264 . S
O437 Mn432 2.095 . S
O437 C446 1.250 . S
O438 Mn433 2.121 . S
O438 C446 1.258 . S
C439 N440 1.326 . S
C439 C443 1.460 . S
C439 H445 0.929 . S
N440 Mn433 2.257 . S
N440 C439 1.326 . S
N440 C444 1.362 . S
C441 C442 1.258 . S
C441 C444 1.431 . S
C441 C461 1.449 . S
C442 C441 1.258 . S
C442 C443 1.477 . S
C442 H462 0.931 . S
C443 C439 1.460 . S
C443 C442 1.477 . S
C443 H463 0.930 . S
C444 N440 1.362 . S
C444 C441 1.431 . S
C444 C454 1.476 . S
H445 C439 0.929 . S
C446 O437 1.250 . S
C446 O438 1.258 . S
O447 Mn432 2.132 1_565 S
O447 C435 1.294 . S
O448 Mn432 2.297 . S
O448 C435 1.236 1_545 S
N449 Mn433 2.282 . S
N449 C450 1.328 . S
N449 C454 1.318 . S
C450 N449 1.328 . S
C450 C451 1.457 . S
C450 H455 0.929 . S
C451 C450 1.457 . S
C451 C452 1.291 . S
C451 H464 0.931 . S
C452 C451 1.291 . S
C452 C453 1.373 . S
C452 H465 0.929 . S
C453 C452 1.373 . S
C453 C454 1.396 . S
C453 C460 1.403 . S
C454 C444 1.476 . S
C454 N449 1.318 . S
C454 C453 1.396 . S
H455 C450 0.929 . S
O456 Mn432 2.385 . S
O456 C434 1.234 . S
O457 Mn432 2.209 . S
O457 Mn433 2.215 . S
O457 C434 1.283 . S
O458 Mn432 2.094 . S
O458 C436 1.240 . S
O459 Mn433 2.117 . S
O459 C436 1.264 . S
C460 C453 1.403 . S
C460 C461 1.399 . S
C460 H466 0.929 . S
C461 C441 1.449 . S
C461 C460 1.399 . S
C461 H467 0.930 . S
H462 C442 0.931 . S
H463 C443 0.930 . S
H464 C451 0.931 . S
H465 C452 0.929 . S
H466 C460 0.929 . S
H467 C461 0.930 . S
Mn468 O473 2.095 . S
Mn468 O483 2.132 1_455 S
Mn468 O484 2.297 . S
Mn468 O492 2.385 . S
Mn468 O493 2.209 . S
Mn468 O494 2.094 . S
Mn469 O474 2.121 . S
Mn469 N476 2.257 . S
Mn469 N485 2.282 . S
Mn469 O493 2.215 . S
Mn469 O495 2.117 . S
C470 O492 1.234 . S
C470 O493 1.283 . S
C471 O483 1.294 . S
C471 O484 1.236 1_655 S
C472 O494 1.240 . S
C472 O495 1.264 . S
O473 Mn468 2.095 . S
O473 C482 1.250 . S
O474 Mn469 2.121 . S
O474 C482 1.258 . S
C475 N476 1.326 . S
C475 C479 1.460 . S
C475 H481 0.929 . S
N476 Mn469 2.257 . S
N476 C475 1.326 . S
N476 C480 1.362 . S
C477 C478 1.258 . S
C477 C480 1.431 . S
C477 C497 1.449 . S
C478 C477 1.258 . S
C478 C479 1.477 . S
C478 H498 0.931 . S
C479 C475 1.460 . S
C479 C478 1.477 . S
C479 H499 0.930 . S
C480 N476 1.362 . S
C480 C477 1.431 . S
C480 C490 1.476 . S
H481 C475 0.929 . S
C482 O473 1.250 . S
C482 O474 1.258 . S
O483 Mn468 2.132 1_655 S
O483 C471 1.294 . S
O484 Mn468 2.297 . S
O484 C471 1.236 1_455 S
N485 Mn469 2.282 . S
N485 C486 1.328 . S
N485 C490 1.318 . S
C486 N485 1.328 . S
C486 C487 1.457 . S
C486 H491 0.929 . S
C487 C486 1.457 . S
C487 C488 1.291 . S
C487 H500 0.931 . S
C488 C487 1.291 . S
C488 C489 1.373 . S
C488 H501 0.929 . S
C489 C488 1.373 . S
C489 C490 1.396 . S
C489 C496 1.403 . S
C490 C480 1.476 . S
C490 N485 1.318 . S
C490 C489 1.396 . S
H491 C486 0.929 . S
O492 Mn468 2.385 . S
O492 C470 1.234 . S
O493 Mn468 2.209 . S
O493 Mn469 2.215 . S
O493 C470 1.283 . S
O494 Mn468 2.094 . S
O494 C472 1.240 . S
O495 Mn469 2.117 . S
O495 C472 1.264 . S
C496 C489 1.403 . S
C496 C497 1.399 . S
C496 H502 0.929 . S
C497 C477 1.449 . S
C497 C496 1.399 . S
C497 H503 0.930 . S
H498 C478 0.931 . S
H499 C479 0.930 . S
H500 C487 0.931 . S
H501 C488 0.929 . S
H502 C496 0.929 . S
H503 C497 0.930 . S
Mn504 O509 2.095 . S
Mn504 O519 2.132 1_565 S
Mn504 O520 2.297 . S
Mn504 O528 2.385 . S
Mn504 O529 2.209 . S
Mn504 O530 2.094 . S
Mn505 O510 2.121 . S
Mn505 N512 2.257 . S
Mn505 N521 2.282 . S
Mn505 O529 2.215 . S
Mn505 O531 2.117 . S
C506 O528 1.234 . S
C506 O529 1.283 . S
C507 O519 1.294 . S
C507 O520 1.236 1_545 S
C508 O530 1.240 . S
C508 O531 1.264 . S
O509 Mn504 2.095 . S
O509 C518 1.250 . S
O510 Mn505 2.121 . S
O510 C518 1.258 . S
C511 N512 1.326 . S
C511 C515 1.460 . S
C511 H517 0.929 . S
N512 Mn505 2.257 . S
N512 C511 1.326 . S
N512 C516 1.362 . S
C513 C514 1.258 . S
C513 C516 1.431 . S
C513 C533 1.449 . S
C514 C513 1.258 . S
C514 C515 1.477 . S
C514 H534 0.931 . S
C515 C511 1.460 . S
C515 C514 1.477 . S
C515 H535 0.930 . S
C516 N512 1.362 . S
C516 C513 1.431 . S
C516 C526 1.476 . S
H517 C511 0.929 . S
C518 O509 1.250 . S
C518 O510 1.258 . S
O519 Mn504 2.132 1_545 S
O519 C507 1.294 . S
O520 Mn504 2.297 . S
O520 C507 1.236 1_565 S
N521 Mn505 2.282 . S
N521 C522 1.328 . S
N521 C526 1.318 . S
C522 N521 1.328 . S
C522 C523 1.457 . S
C522 H527 0.929 . S
C523 C522 1.457 . S
C523 C524 1.291 . S
C523 H536 0.931 . S
C524 C523 1.291 . S
C524 C525 1.373 . S
C524 H537 0.929 . S
C525 C524 1.373 . S
C525 C526 1.396 . S
C525 C532 1.403 . S
C526 C516 1.476 . S
C526 N521 1.318 . S
C526 C525 1.396 . S
H527 C522 0.929 . S
O528 Mn504 2.385 . S
O528 C506 1.234 . S
O529 Mn504 2.209 . S
O529 Mn505 2.215 . S
O529 C506 1.283 . S
O530 Mn504 2.094 . S
O530 C508 1.240 . S
O531 Mn505 2.117 . S
O531 C508 1.264 . S
C532 C525 1.403 . S
C532 C533 1.399 . S
C532 H538 0.929 . S
C533 C513 1.449 . S
C533 C532 1.399 . S
C533 H539 0.930 . S
H534 C514 0.931 . S
H535 C515 0.930 . S
H536 C523 0.931 . S
H537 C524 0.929 . S
H538 C532 0.929 . S
H539 C533 0.930 . S
Mn540 O545 2.095 . S
Mn540 O555 2.132 1_655 S
Mn540 O556 2.297 . S
Mn540 O564 2.385 . S
Mn540 O565 2.209 . S
Mn540 O566 2.094 . S
Mn541 O546 2.121 . S
Mn541 N548 2.257 . S
Mn541 N557 2.282 . S
Mn541 O565 2.215 . S
Mn541 O567 2.117 . S
C542 O564 1.234 . S
C542 O565 1.283 . S
C543 O555 1.294 . S
C543 O556 1.236 1_455 S
C544 O566 1.240 . S
C544 O567 1.264 . S
O545 Mn540 2.095 . S
O545 C554 1.250 . S
O546 Mn541 2.121 . S
O546 C554 1.258 . S
C547 N548 1.326 . S
C547 C551 1.460 . S
C547 H553 0.929 . S
N548 Mn541 2.257 . S
N548 C547 1.326 . S
N548 C552 1.362 . S
C549 C550 1.258 . S
C549 C552 1.431 . S
C549 C569 1.449 . S
C550 C549 1.258 . S
C550 C551 1.477 . S
C550 H570 0.931 . S
C551 C547 1.460 . S
C551 C550 1.477 . S
C551 H571 0.930 . S
C552 N548 1.362 . S
C552 C549 1.431 . S
C552 C562 1.476 . S
H553 C547 0.929 . S
C554 O545 1.250 . S
C554 O546 1.258 . S
O555 Mn540 2.132 1_455 S
O555 C543 1.294 . S
O556 Mn540 2.297 . S
O556 C543 1.236 1_655 S
N557 Mn541 2.282 . S
N557 C558 1.328 . S
N557 C562 1.318 . S
C558 N557 1.328 . S
C558 C559 1.457 . S
C558 H563 0.929 . S
C559 C558 1.457 . S
C559 C560 1.291 . S
C559 H572 0.931 . S
C560 C559 1.291 . S
C560 C561 1.373 . S
C560 H573 0.929 . S
C561 C560 1.373 . S
C561 C562 1.396 . S
C561 C568 1.403 . S
C562 C552 1.476 . S
C562 N557 1.318 . S
C562 C561 1.396 . S
H563 C558 0.929 . S
O564 Mn540 2.385 . S
O564 C542 1.234 . S
O565 Mn540 2.209 . S
O565 Mn541 2.215 . S
O565 C542 1.283 . S
O566 Mn540 2.094 . S
O566 C544 1.240 . S
O567 Mn541 2.117 . S
O567 C544 1.264 . S
C568 C561 1.403 . S
C568 C569 1.399 . S
C568 H574 0.929 . S
C569 C549 1.449 . S
C569 C568 1.399 . S
C569 H575 0.930 . S
H570 C550 0.931 . S
H571 C551 0.930 . S
H572 C559 0.931 . S
H573 C560 0.929 . S
H574 C568 0.929 . S
H575 C569 0.930 . S
H576 C582 0.930 . S
H577 C586 0.930 . S
H578 C591 0.929 . S
H579 C589 0.929 . S
H580 C584 0.929 . S
H581 C590 0.929 . S
C582 H576 0.930 . S
C582 C583 1.367 . S
C582 C590 1.378 . S
C583 C582 1.367 . S
C583 C591 1.433 . S
C584 H580 0.929 . S
C584 C586 1.378 . S
C584 C588 1.350 . S
C585 C588 1.463 . S
C585 C590 1.350 . S
C585 N593 1.427 . S
C586 H577 0.930 . S
C586 C584 1.378 . S
C586 C587 1.367 . S
C587 C586 1.367 . S
C587 C589 1.433 . S
C588 C584 1.350 . S
C588 C585 1.463 . S
C588 N592 1.427 . S
C589 H579 0.929 . S
C589 C587 1.433 . S
C589 N592 1.384 . S
C590 H581 0.929 . S
C590 C582 1.378 . S
C590 C585 1.350 . S
C591 H578 0.929 . S
C591 C583 1.433 . S
C591 N593 1.384 . S
N592 C588 1.427 . S
N592 C589 1.384 . S
N593 C585 1.427 . S
N593 C591 1.384 . S
H594 C600 0.930 . S
H595 C604 0.930 . S
H596 C609 0.929 . S
H597 C607 0.929 . S
H598 C602 0.929 . S
H599 C608 0.929 . S
C600 H594 0.930 . S
C600 C601 1.367 . S
C600 C608 1.378 . S
C601 C600 1.367 . S
C601 C609 1.433 . S
C602 H598 0.929 . S
C602 C604 1.378 . S
C602 C606 1.350 . S
C603 C606 1.463 . S
C603 C608 1.350 . S
C603 N611 1.427 . S
C604 H595 0.930 . S
C604 C602 1.378 . S
C604 C605 1.367 . S
C605 C604 1.367 . S
C605 C607 1.433 . S
C606 C602 1.350 . S
C606 C603 1.463 . S
C606 N610 1.427 . S
C607 H597 0.929 . S
C607 C605 1.433 . S
C607 N610 1.384 . S
C608 H599 0.929 . S
C608 C600 1.378 . S
C608 C603 1.350 . S
C609 H596 0.929 . S
C609 C601 1.433 . S
C609 N611 1.384 . S
N610 C606 1.427 . S
N610 C607 1.384 . S
N611 C603 1.427 . S
N611 C609 1.384 . S
H612 C618 0.930 . S
H613 C622 0.930 . S
H614 C627 0.929 . S
H615 C625 0.929 . S
H616 C620 0.929 . S
H617 C626 0.929 . S
C618 H612 0.930 . S
C618 C619 1.367 . S
C618 C626 1.378 . S
C619 C618 1.367 . S
C619 C627 1.433 . S
C620 H616 0.929 . S
C620 C622 1.378 . S
C620 C624 1.350 . S
C621 C624 1.463 . S
C621 C626 1.350 . S
C621 N629 1.427 . S
C622 H613 0.930 . S
C622 C620 1.378 . S
C622 C623 1.367 . S
C623 C622 1.367 . S
C623 C625 1.433 . S
C624 C620 1.350 . S
C624 C621 1.463 . S
C624 N628 1.427 . S
C625 H615 0.929 . S
C625 C623 1.433 . S
C625 N628 1.384 . S
C626 H617 0.929 . S
C626 C618 1.378 . S
C626 C621 1.350 . S
C627 H614 0.929 . S
C627 C619 1.433 . S
C627 N629 1.384 . S
N628 C624 1.427 . S
N628 C625 1.384 . S
N629 C621 1.427 . S
N629 C627 1.384 . S
H630 C636 0.930 . S
H631 C640 0.930 . S
H632 C645 0.929 . S
H633 C643 0.929 . S
H634 C638 0.929 . S
H635 C644 0.929 . S
C636 H630 0.930 . S
C636 C637 1.367 . S
C636 C644 1.378 . S
C637 C636 1.367 . S
C637 C645 1.433 . S
C638 H634 0.929 . S
C638 C640 1.378 . S
C638 C642 1.350 . S
C639 C642 1.463 . S
C639 C644 1.350 . S
C639 N647 1.427 . S
C640 H631 0.930 . S
C640 C638 1.378 . S
C640 C641 1.367 . S
C641 C640 1.367 . S
C641 C643 1.433 . S
C642 C638 1.350 . S
C642 C639 1.463 . S
C642 N646 1.427 . S
C643 H633 0.929 . S
C643 C641 1.433 . S
C643 N646 1.384 . S
C644 H635 0.929 . S
C644 C636 1.378 . S
C644 C639 1.350 . S
C645 H632 0.929 . S
C645 C637 1.433 . S
C645 N647 1.384 . S
N646 C642 1.427 . S
N646 C643 1.384 . S
N647 C639 1.427 . S
N647 C645 1.384 . S
H648 C654 0.930 . S
H649 C658 0.930 . S
H650 C663 0.929 . S
H651 C661 0.929 . S
H652 C656 0.929 . S
H653 C662 0.929 . S
C654 H648 0.930 . S
C654 C655 1.367 . S
C654 C662 1.378 . S
C655 C654 1.367 . S
C655 C663 1.433 . S
C656 H652 0.929 . S
C656 C658 1.378 . S
C656 C660 1.350 . S
C657 C660 1.463 . S
C657 C662 1.350 . S
C657 N665 1.427 . S
C658 H649 0.930 . S
C658 C656 1.378 . S
C658 C659 1.367 . S
C659 C658 1.367 . S
C659 C661 1.433 . S
C660 C656 1.350 . S
C660 C657 1.463 . S
C660 N664 1.427 . S
C661 H651 0.929 . S
C661 C659 1.433 . S
C661 N664 1.384 . S
C662 H653 0.929 . S
C662 C654 1.378 . S
C662 C657 1.350 . S
C663 H650 0.929 . S
C663 C655 1.433 . S
C663 N665 1.384 . S
N664 C660 1.427 . S
N664 C661 1.384 . S
N665 C657 1.427 . S
N665 C663 1.384 . S
H666 C672 0.930 . S
H667 C676 0.930 . S
H668 C681 0.929 . S
H669 C679 0.929 . S
H670 C674 0.929 . S
H671 C680 0.929 . S
C672 H666 0.930 . S
C672 C673 1.367 . S
C672 C680 1.378 . S
C673 C672 1.367 . S
C673 C681 1.433 . S
C674 H670 0.929 . S
C674 C676 1.378 . S
C674 C678 1.350 . S
C675 C678 1.463 . S
C675 C680 1.350 . S
C675 N683 1.427 . S
C676 H667 0.930 . S
C676 C674 1.378 . S
C676 C677 1.367 . S
C677 C676 1.367 . S
C677 C679 1.433 . S
C678 C674 1.350 . S
C678 C675 1.463 . S
C678 N682 1.427 . S
C679 H669 0.929 . S
C679 C677 1.433 . S
C679 N682 1.384 . S
C680 H671 0.929 . S
C680 C672 1.378 . S
C680 C675 1.350 . S
C681 H668 0.929 . S
C681 C673 1.433 . S
C681 N683 1.384 . S
N682 C678 1.427 . S
N682 C679 1.384 . S
N683 C675 1.427 . S
N683 C681 1.384 . S
H684 C690 0.930 . S
H685 C694 0.930 . S
H686 C699 0.929 . S
H687 C697 0.929 . S
H688 C692 0.929 . S
H689 C698 0.929 . S
C690 H684 0.930 . S
C690 C691 1.367 . S
C690 C698 1.378 . S
C691 C690 1.367 . S
C691 C699 1.433 . S
C692 H688 0.929 . S
C692 C694 1.378 . S
C692 C696 1.350 . S
C693 C696 1.463 . S
C693 C698 1.350 . S
C693 N701 1.427 . S
C694 H685 0.930 . S
C694 C692 1.378 . S
C694 C695 1.367 . S
C695 C694 1.367 . S
C695 C697 1.433 . S
C696 C692 1.350 . S
C696 C693 1.463 . S
C696 N700 1.427 . S
C697 H687 0.929 . S
C697 C695 1.433 . S
C697 N700 1.384 . S
C698 H689 0.929 . S
C698 C690 1.378 . S
C698 C693 1.350 . S
C699 H686 0.929 . S
C699 C691 1.433 . S
C699 N701 1.384 . S
N700 C696 1.427 . S
N700 C697 1.384 . S
N701 C693 1.427 . S
N701 C699 1.384 . S
H702 C708 0.930 . S
H703 C712 0.930 . S
H704 C717 0.929 . S
H705 C715 0.929 . S
H706 C710 0.929 . S
H707 C716 0.929 . S
C708 H702 0.930 . S
C708 C709 1.367 . S
C708 C716 1.378 . S
C709 C708 1.367 . S
C709 C717 1.433 . S
C710 H706 0.929 . S
C710 C712 1.378 . S
C710 C714 1.350 . S
C711 C714 1.463 . S
C711 C716 1.350 . S
C711 N719 1.427 . S
C712 H703 0.930 . S
C712 C710 1.378 . S
C712 C713 1.367 . S
C713 C712 1.367 . S
C713 C715 1.433 . S
C714 C710 1.350 . S
C714 C711 1.463 . S
C714 N718 1.427 . S
C715 H705 0.929 . S
C715 C713 1.433 . S
C715 N718 1.384 . S
C716 H707 0.929 . S
C716 C708 1.378 . S
C716 C711 1.350 . S
C717 H704 0.929 . S
C717 C709 1.433 . S
C717 N719 1.384 . S
N718 C714 1.427 . S
N718 C715 1.384 . S
N719 C711 1.427 . S
N719 C717 1.384 . S
H720 C726 0.930 . S
H721 C730 0.930 . S
H722 C735 0.929 . S
H723 C733 0.929 . S
H724 C728 0.929 . S
H725 C734 0.929 . S
C726 H720 0.930 . S
C726 C727 1.367 . S
C726 C734 1.378 . S
C727 C726 1.367 . S
C727 C735 1.433 . S
C728 H724 0.929 . S
C728 C730 1.378 . S
C728 C732 1.350 . S
C729 C732 1.463 . S
C729 C734 1.350 . S
C729 N737 1.427 . S
C730 H721 0.930 . S
C730 C728 1.378 . S
C730 C731 1.367 . S
C731 C730 1.367 . S
C731 C733 1.433 . S
C732 C728 1.350 . S
C732 C729 1.463 . S
C732 N736 1.427 . S
C733 H723 0.929 . S
C733 C731 1.433 . S
C733 N736 1.384 . S
C734 H725 0.929 . S
C734 C726 1.378 . S
C734 C729 1.350 . S
C735 H722 0.929 . S
C735 C727 1.433 . S
C735 N737 1.384 . S
N736 C732 1.427 . S
N736 C733 1.384 . S
N737 C729 1.427 . S
N737 C735 1.384 . S
H738 C744 0.930 . S
H739 C748 0.930 . S
H740 C753 0.929 . S
H741 C751 0.929 . S
H742 C746 0.929 . S
H743 C752 0.929 . S
C744 H738 0.930 . S
C744 C745 1.367 . S
C744 C752 1.378 . S
C745 C744 1.367 . S
C745 C753 1.433 . S
C746 H742 0.929 . S
C746 C748 1.378 . S
C746 C750 1.350 . S
C747 C750 1.463 . S
C747 C752 1.350 . S
C747 N755 1.427 . S
C748 H739 0.930 . S
C748 C746 1.378 . S
C748 C749 1.367 . S
C749 C748 1.367 . S
C749 C751 1.433 . S
C750 C746 1.350 . S
C750 C747 1.463 . S
C750 N754 1.427 . S
C751 H741 0.929 . S
C751 C749 1.433 . S
C751 N754 1.384 . S
C752 H743 0.929 . S
C752 C744 1.378 . S
C752 C747 1.350 . S
C753 H740 0.929 . S
C753 C745 1.433 . S
C753 N755 1.384 . S
N754 C750 1.427 . S
N754 C751 1.384 . S
N755 C747 1.427 . S
N755 C753 1.384 . S
H756 C762 0.930 . S
H757 C766 0.930 . S
H758 C771 0.929 . S
H759 C769 0.929 . S
H760 C764 0.929 . S
H761 C770 0.929 . S
C762 H756 0.930 . S
C762 C763 1.367 . S
C762 C770 1.378 . S
C763 C762 1.367 . S
C763 C771 1.433 . S
C764 H760 0.929 . S
C764 C766 1.378 . S
C764 C768 1.350 . S
C765 C768 1.463 . S
C765 C770 1.350 . S
C765 N773 1.427 . S
C766 H757 0.930 . S
C766 C764 1.378 . S
C766 C767 1.367 . S
C767 C766 1.367 . S
C767 C769 1.433 . S
C768 C764 1.350 . S
C768 C765 1.463 . S
C768 N772 1.427 . S
C769 H759 0.929 . S
C769 C767 1.433 . S
C769 N772 1.384 . S
C770 H761 0.929 . S
C770 C762 1.378 . S
C770 C765 1.350 . S
C771 H758 0.929 . S
C771 C763 1.433 . S
C771 N773 1.384 . S
N772 C768 1.427 . S
N772 C769 1.384 . S
N773 C765 1.427 . S
N773 C771 1.384 . S
H774 C780 0.930 . S
H775 C784 0.930 . S
H776 C789 0.929 . S
H777 C787 0.929 . S
H778 C782 0.929 . S
H779 C788 0.929 . S
C780 H774 0.930 . S
C780 C781 1.367 . S
C780 C788 1.378 . S
C781 C780 1.367 . S
C781 C789 1.433 . S
C782 H778 0.929 . S
C782 C784 1.378 . S
C782 C786 1.350 . S
C783 C786 1.463 . S
C783 C788 1.350 . S
C783 N791 1.427 . S
C784 H775 0.930 . S
C784 C782 1.378 . S
C784 C785 1.367 . S
C785 C784 1.367 . S
C785 C787 1.433 . S
C786 C782 1.350 . S
C786 C783 1.463 . S
C786 N790 1.427 . S
C787 H777 0.929 . S
C787 C785 1.433 . S
C787 N790 1.384 . S
C788 H779 0.929 . S
C788 C780 1.378 . S
C788 C783 1.350 . S
C789 H776 0.929 . S
C789 C781 1.433 . S
C789 N791 1.384 . S
N790 C786 1.427 . S
N790 C787 1.384 . S
N791 C783 1.427 . S
N791 C789 1.384 . S
H792 C798 0.930 . S
H793 C802 0.930 . S
H794 C807 0.929 . S
H795 C805 0.929 . S
H796 C800 0.929 . S
H797 C806 0.929 . S
C798 H792 0.930 . S
C798 C799 1.367 . S
C798 C806 1.378 . S
C799 C798 1.367 . S
C799 C807 1.433 . S
C800 H796 0.929 . S
C800 C802 1.378 . S
C800 C804 1.350 . S
C801 C804 1.463 . S
C801 C806 1.350 . S
C801 N809 1.427 . S
C802 H793 0.930 . S
C802 C800 1.378 . S
C802 C803 1.367 . S
C803 C802 1.367 . S
C803 C805 1.433 . S
C804 C800 1.350 . S
C804 C801 1.463 . S
C804 N808 1.427 . S
C805 H795 0.929 . S
C805 C803 1.433 . S
C805 N808 1.384 . S
C806 H797 0.929 . S
C806 C798 1.378 . S
C806 C801 1.350 . S
C807 H794 0.929 . S
C807 C799 1.433 . S
C807 N809 1.384 . S
N808 C804 1.427 . S
N808 C805 1.384 . S
N809 C801 1.427 . S
N809 C807 1.384 . S
H810 C816 0.930 . S
H811 C820 0.930 . S
H812 C825 0.929 . S
H813 C823 0.929 . S
H814 C818 0.929 . S
H815 C824 0.929 . S
C816 H810 0.930 . S
C816 C817 1.367 . S
C816 C824 1.378 . S
C817 C816 1.367 . S
C817 C825 1.433 . S
C818 H814 0.929 . S
C818 C820 1.378 . S
C818 C822 1.350 . S
C819 C822 1.463 . S
C819 C824 1.350 . S
C819 N827 1.427 . S
C820 H811 0.930 . S
C820 C818 1.378 . S
C820 C821 1.367 . S
C821 C820 1.367 . S
C821 C823 1.433 . S
C822 C818 1.350 . S
C822 C819 1.463 . S
C822 N826 1.427 . S
C823 H813 0.929 . S
C823 C821 1.433 . S
C823 N826 1.384 . S
C824 H815 0.929 . S
C824 C816 1.378 . S
C824 C819 1.350 . S
C825 H812 0.929 . S
C825 C817 1.433 . S
C825 N827 1.384 . S
N826 C822 1.427 . S
N826 C823 1.384 . S
N827 C819 1.427 . S
N827 C825 1.384 . S
H828 C834 0.930 . S
H829 C838 0.930 . S
H830 C843 0.929 . S
H831 C841 0.929 . S
H832 C836 0.929 . S
H833 C842 0.929 . S
C834 H828 0.930 . S
C834 C835 1.367 . S
C834 C842 1.378 . S
C835 C834 1.367 . S
C835 C843 1.433 . S
C836 H832 0.929 . S
C836 C838 1.378 . S
C836 C840 1.350 . S
C837 C840 1.463 . S
C837 C842 1.350 . S
C837 N845 1.427 . S
C838 H829 0.930 . S
C838 C836 1.378 . S
C838 C839 1.367 . S
C839 C838 1.367 . S
C839 C841 1.433 . S
C840 C836 1.350 . S
C840 C837 1.463 . S
C840 N844 1.427 . S
C841 H831 0.929 . S
C841 C839 1.433 . S
C841 N844 1.384 . S
C842 H833 0.929 . S
C842 C834 1.378 . S
C842 C837 1.350 . S
C843 H830 0.929 . S
C843 C835 1.433 . S
C843 N845 1.384 . S
N844 C840 1.427 . S
N844 C841 1.384 . S
N845 C837 1.427 . S
N845 C843 1.384 . S
H846 C852 0.930 . S
H847 C856 0.930 . S
H848 C861 0.929 . S
H849 C859 0.929 . S
H850 C854 0.929 . S
H851 C860 0.929 . S
C852 H846 0.930 . S
C852 C853 1.367 . S
C852 C860 1.378 . S
C853 C852 1.367 . S
C853 C861 1.433 . S
C854 H850 0.929 . S
C854 C856 1.378 . S
C854 C858 1.350 . S
C855 C858 1.463 . S
C855 C860 1.350 . S
C855 N863 1.427 . S
C856 H847 0.930 . S
C856 C854 1.378 . S
C856 C857 1.367 . S
C857 C856 1.367 . S
C857 C859 1.433 . S
C858 C854 1.350 . S
C858 C855 1.463 . S
C858 N862 1.427 . S
C859 H849 0.929 . S
C859 C857 1.433 . S
C859 N862 1.384 . S
C860 H851 0.929 . S
C860 C852 1.378 . S
C860 C855 1.350 . S
C861 H848 0.929 . S
C861 C853 1.433 . S
C861 N863 1.384 . S
N862 C858 1.427 . S
N862 C859 1.384 . S
N863 C855 1.427 . S
N863 C861 1.384 . S
H864 C870 0.930 . S
H865 C874 0.930 . S
H866 C879 0.929 . S
H867 C877 0.929 . S
H868 C872 0.929 . S
H869 C878 0.929 . S
C870 H864 0.930 . S
C870 C871 1.367 . S
C870 C878 1.378 . S
C871 C870 1.367 . S
C871 C879 1.433 . S
C872 H868 0.929 . S
C872 C874 1.378 . S
C872 C876 1.350 . S
C873 C876 1.463 . S
C873 C878 1.350 . S
C873 N881 1.427 . S
C874 H865 0.930 . S
C874 C872 1.378 . S
C874 C875 1.367 . S
C875 C874 1.367 . S
C875 C877 1.433 . S
C876 C872 1.350 . S
C876 C873 1.463 . S
C876 N880 1.427 . S
C877 H867 0.929 . S
C877 C875 1.433 . S
C877 N880 1.384 . S
C878 H869 0.929 . S
C878 C870 1.378 . S
C878 C873 1.350 . S
C879 H866 0.929 . S
C879 C871 1.433 . S
C879 N881 1.384 . S
N880 C876 1.427 . S
N880 C877 1.384 . S
N881 C873 1.427 . S
N881 C879 1.384 . S
H882 C888 0.930 . S
H883 C892 0.930 . S
H884 C897 0.929 . S
H885 C895 0.929 . S
H886 C890 0.929 . S
H887 C896 0.929 . S
C888 H882 0.930 . S
C888 C889 1.367 . S
C888 C896 1.378 . S
C889 C888 1.367 . S
C889 C897 1.433 . S
C890 H886 0.929 . S
C890 C892 1.378 . S
C890 C894 1.350 . S
C891 C894 1.463 . S
C891 C896 1.350 . S
C891 N899 1.427 . S
C892 H883 0.930 . S
C892 C890 1.378 . S
C892 C893 1.367 . S
C893 C892 1.367 . S
C893 C895 1.433 . S
C894 C890 1.350 . S
C894 C891 1.463 . S
C894 N898 1.427 . S
C895 H885 0.929 . S
C895 C893 1.433 . S
C895 N898 1.384 . S
C896 H887 0.929 . S
C896 C888 1.378 . S
C896 C891 1.350 . S
C897 H884 0.929 . S
C897 C889 1.433 . S
C897 N899 1.384 . S
N898 C894 1.427 . S
N898 C895 1.384 . S
N899 C891 1.427 . S
N899 C897 1.384 . S
H900 C906 0.930 . S
H901 C910 0.930 . S
H902 C915 0.929 . S
H903 C913 0.929 . S
H904 C908 0.929 . S
H905 C914 0.929 . S
C906 H900 0.930 . S
C906 C907 1.367 . S
C906 C914 1.378 . S
C907 C906 1.367 . S
C907 C915 1.433 . S
C908 H904 0.929 . S
C908 C910 1.378 . S
C908 C912 1.350 . S
C909 C912 1.463 . S
C909 C914 1.350 . S
C909 N917 1.427 . S
C910 H901 0.930 . S
C910 C908 1.378 . S
C910 C911 1.367 . S
C911 C910 1.367 . S
C911 C913 1.433 . S
C912 C908 1.350 . S
C912 C909 1.463 . S
C912 N916 1.427 . S
C913 H903 0.929 . S
C913 C911 1.433 . S
C913 N916 1.384 . S
C914 H905 0.929 . S
C914 C906 1.378 . S
C914 C909 1.350 . S
C915 H902 0.929 . S
C915 C907 1.433 . S
C915 N917 1.384 . S
N916 C912 1.427 . S
N916 C913 1.384 . S
N917 C909 1.427 . S
N917 C915 1.384 . S
H918 C924 0.930 . S
H919 C928 0.930 . S
H920 C933 0.929 . S
H921 C931 0.929 . S
H922 C926 0.929 . S
H923 C932 0.929 . S
C924 H918 0.930 . S
C924 C925 1.367 . S
C924 C932 1.378 . S
C925 C924 1.367 . S
C925 C933 1.433 . S
C926 H922 0.929 . S
C926 C928 1.378 . S
C926 C930 1.350 . S
C927 C930 1.463 . S
C927 C932 1.350 . S
C927 N935 1.427 . S
C928 H919 0.930 . S
C928 C926 1.378 . S
C928 C929 1.367 . S
C929 C928 1.367 . S
C929 C931 1.433 . S
C930 C926 1.350 . S
C930 C927 1.463 . S
C930 N934 1.427 . S
C931 H921 0.929 . S
C931 C929 1.433 . S
C931 N934 1.384 . S
C932 H923 0.929 . S
C932 C924 1.378 . S
C932 C927 1.350 . S
C933 H920 0.929 . S
C933 C925 1.433 . S
C933 N935 1.384 . S
N934 C930 1.427 . S
N934 C931 1.384 . S
N935 C927 1.427 . S
N935 C933 1.384 . S
H936 C942 0.930 . S
H937 C946 0.930 . S
H938 C951 0.929 . S
H939 C949 0.929 . S
H940 C944 0.929 . S
H941 C950 0.929 . S
C942 H936 0.930 . S
C942 C943 1.367 . S
C942 C950 1.378 . S
C943 C942 1.367 . S
C943 C951 1.433 . S
C944 H940 0.929 . S
C944 C946 1.378 . S
C944 C948 1.350 . S
C945 C948 1.463 . S
C945 C950 1.350 . S
C945 N953 1.427 . S
C946 H937 0.930 . S
C946 C944 1.378 . S
C946 C947 1.367 . S
C947 C946 1.367 . S
C947 C949 1.433 . S
C948 C944 1.350 . S
C948 C945 1.463 . S
C948 N952 1.427 . S
C949 H939 0.929 . S
C949 C947 1.433 . S
C949 N952 1.384 . S
C950 H941 0.929 . S
C950 C942 1.378 . S
C950 C945 1.350 . S
C951 H938 0.929 . S
C951 C943 1.433 . S
C951 N953 1.384 . S
N952 C948 1.427 . S
N952 C949 1.384 . S
N953 C945 1.427 . S
N953 C951 1.384 . S
H954 C960 0.930 . S
H955 C964 0.930 . S
H956 C969 0.929 . S
H957 C967 0.929 . S
H958 C962 0.929 . S
H959 C968 0.929 . S
C960 H954 0.930 . S
C960 C961 1.367 . S
C960 C968 1.378 . S
C961 C960 1.367 . S
C961 C969 1.433 . S
C962 H958 0.929 . S
C962 C964 1.378 . S
C962 C966 1.350 . S
C963 C966 1.463 . S
C963 C968 1.350 . S
C963 N971 1.427 . S
C964 H955 0.930 . S
C964 C962 1.378 . S
C964 C965 1.367 . S
C965 C964 1.367 . S
C965 C967 1.433 . S
C966 C962 1.350 . S
C966 C963 1.463 . S
C966 N970 1.427 . S
C967 H957 0.929 . S
C967 C965 1.433 . S
C967 N970 1.384 . S
C968 H959 0.929 . S
C968 C960 1.378 . S
C968 C963 1.350 . S
C969 H956 0.929 . S
C969 C961 1.433 . S
C969 N971 1.384 . S
N970 C966 1.427 . S
N970 C967 1.384 . S
N971 C963 1.427 . S
N971 C969 1.384 . S
H972 C978 0.930 . S
H973 C982 0.930 . S
H974 C987 0.929 . S
H975 C985 0.929 . S
H976 C980 0.929 . S
H977 C986 0.929 . S
C978 H972 0.930 . S
C978 C979 1.367 . S
C978 C986 1.378 . S
C979 C978 1.367 . S
C979 C987 1.433 . S
C980 H976 0.929 . S
C980 C982 1.378 . S
C980 C984 1.350 . S
C981 C984 1.463 . S
C981 C986 1.350 . S
C981 N989 1.427 . S
C982 H973 0.930 . S
C982 C980 1.378 . S
C982 C983 1.367 . S
C983 C982 1.367 . S
C983 C985 1.433 . S
C984 C980 1.350 . S
C984 C981 1.463 . S
C984 N988 1.427 . S
C985 H975 0.929 . S
C985 C983 1.433 . S
C985 N988 1.384 . S
C986 H977 0.929 . S
C986 C978 1.378 . S
C986 C981 1.350 . S
C987 H974 0.929 . S
C987 C979 1.433 . S
C987 N989 1.384 . S
N988 C984 1.427 . S
N988 C985 1.384 . S
N989 C981 1.427 . S
N989 C987 1.384 . S
H990 C996 0.930 . S
H991 C1000 0.930 . S
H992 C1005 0.929 . S
H993 C1003 0.929 . S
H994 C998 0.929 . S
H995 C1004 0.929 . S
C996 H990 0.930 . S
C996 C997 1.367 . S
C996 C1004 1.378 . S
C997 C996 1.367 . S
C997 C1005 1.433 . S
C998 H994 0.929 . S
C998 C1000 1.378 . S
C998 C1002 1.350 . S
C999 C1002 1.463 . S
C999 C1004 1.350 . S
C999 N1007 1.427 . S
C1000 H991 0.930 . S
C1000 C998 1.378 . S
C1000 C1001 1.367 . S
C1001 C1000 1.367 . S
C1001 C1003 1.433 . S
C1002 C998 1.350 . S
C1002 C999 1.463 . S
C1002 N1006 1.427 . S
C1003 H993 0.929 . S
C1003 C1001 1.433 . S
C1003 N1006 1.384 . S
C1004 H995 0.929 . S
C1004 C996 1.378 . S
C1004 C999 1.350 . S
C1005 H992 0.929 . S
C1005 C997 1.433 . S
C1005 N1007 1.384 . S
N1006 C1002 1.427 . S
N1006 C1003 1.384 . S
N1007 C999 1.427 . S
N1007 C1005 1.384 . S
H1008 C1014 0.930 . S
H1009 C1018 0.930 . S
H1010 C1023 0.929 . S
H1011 C1021 0.929 . S
H1012 C1016 0.929 . S
H1013 C1022 0.929 . S
C1014 H1008 0.930 . S
C1014 C1015 1.367 . S
C1014 C1022 1.378 . S
C1015 C1014 1.367 . S
C1015 C1023 1.433 . S
C1016 H1012 0.929 . S
C1016 C1018 1.378 . S
C1016 C1020 1.350 . S
C1017 C1020 1.463 . S
C1017 C1022 1.350 . S
C1017 N1025 1.427 . S
C1018 H1009 0.930 . S
C1018 C1016 1.378 . S
C1018 C1019 1.367 . S
C1019 C1018 1.367 . S
C1019 C1021 1.433 . S
C1020 C1016 1.350 . S
C1020 C1017 1.463 . S
C1020 N1024 1.427 . S
C1021 H1011 0.929 . S
C1021 C1019 1.433 . S
C1021 N1024 1.384 . S
C1022 H1013 0.929 . S
C1022 C1014 1.378 . S
C1022 C1017 1.350 . S
C1023 H1010 0.929 . S
C1023 C1015 1.433 . S
C1023 N1025 1.384 . S
N1024 C1020 1.427 . S
N1024 C1021 1.384 . S
N1025 C1017 1.427 . S
N1025 C1023 1.384 . S
H1026 C1032 0.930 . S
H1027 C1036 0.930 . S
H1028 C1041 0.929 . S
H1029 C1039 0.929 . S
H1030 C1034 0.929 . S
H1031 C1040 0.929 . S
C1032 H1026 0.930 . S
C1032 C1033 1.367 . S
C1032 C1040 1.378 . S
C1033 C1032 1.367 . S
C1033 C1041 1.433 . S
C1034 H1030 0.929 . S
C1034 C1036 1.378 . S
C1034 C1038 1.350 . S
C1035 C1038 1.463 . S
C1035 C1040 1.350 . S
C1035 N1043 1.427 . S
C1036 H1027 0.930 . S
C1036 C1034 1.378 . S
C1036 C1037 1.367 . S
C1037 C1036 1.367 . S
C1037 C1039 1.433 . S
C1038 C1034 1.350 . S
C1038 C1035 1.463 . S
C1038 N1042 1.427 . S
C1039 H1029 0.929 . S
C1039 C1037 1.433 . S
C1039 N1042 1.384 . S
C1040 H1031 0.929 . S
C1040 C1032 1.378 . S
C1040 C1035 1.350 . S
C1041 H1028 0.929 . S
C1041 C1033 1.433 . S
C1041 N1043 1.384 . S
N1042 C1038 1.427 . S
N1042 C1039 1.384 . S
N1043 C1035 1.427 . S
N1043 C1041 1.384 . S
H1044 C1050 0.930 . S
H1045 C1054 0.930 . S
H1046 C1059 0.929 . S
H1047 C1057 0.929 . S
H1048 C1052 0.929 . S
H1049 C1058 0.929 . S
C1050 H1044 0.930 . S
C1050 C1051 1.367 . S
C1050 C1058 1.378 . S
C1051 C1050 1.367 . S
C1051 C1059 1.433 . S
C1052 H1048 0.929 . S
C1052 C1054 1.378 . S
C1052 C1056 1.350 . S
C1053 C1056 1.463 . S
C1053 C1058 1.350 . S
C1053 N1061 1.427 . S
C1054 H1045 0.930 . S
C1054 C1052 1.378 . S
C1054 C1055 1.367 . S
C1055 C1054 1.367 . S
C1055 C1057 1.433 . S
C1056 C1052 1.350 . S
C1056 C1053 1.463 . S
C1056 N1060 1.427 . S
C1057 H1047 0.929 . S
C1057 C1055 1.433 . S
C1057 N1060 1.384 . S
C1058 H1049 0.929 . S
C1058 C1050 1.378 . S
C1058 C1053 1.350 . S
C1059 H1046 0.929 . S
C1059 C1051 1.433 . S
C1059 N1061 1.384 . S
N1060 C1056 1.427 . S
N1060 C1057 1.384 . S
N1061 C1053 1.427 . S
N1061 C1059 1.384 . S
H1062 C1068 0.930 . S
H1063 C1072 0.930 . S
H1064 C1077 0.929 . S
H1065 C1075 0.929 . S
H1066 C1070 0.929 . S
H1067 C1076 0.929 . S
C1068 H1062 0.930 . S
C1068 C1069 1.367 . S
C1068 C1076 1.378 . S
C1069 C1068 1.367 . S
C1069 C1077 1.433 . S
C1070 H1066 0.929 . S
C1070 C1072 1.378 . S
C1070 C1074 1.350 . S
C1071 C1074 1.463 . S
C1071 C1076 1.350 . S
C1071 N1079 1.427 . S
C1072 H1063 0.930 . S
C1072 C1070 1.378 . S
C1072 C1073 1.367 . S
C1073 C1072 1.367 . S
C1073 C1075 1.433 . S
C1074 C1070 1.350 . S
C1074 C1071 1.463 . S
C1074 N1078 1.427 . S
C1075 H1065 0.929 . S
C1075 C1073 1.433 . S
C1075 N1078 1.384 . S
C1076 H1067 0.929 . S
C1076 C1068 1.378 . S
C1076 C1071 1.350 . S
C1077 H1064 0.929 . S
C1077 C1069 1.433 . S
C1077 N1079 1.384 . S
N1078 C1074 1.427 . S
N1078 C1075 1.384 . S
N1079 C1071 1.427 . S
N1079 C1077 1.384 . S
H1080 C1086 0.930 . S
H1081 C1090 0.930 . S
H1082 C1095 0.929 . S
H1083 C1093 0.929 . S
H1084 C1088 0.929 . S
H1085 C1094 0.929 . S
C1086 H1080 0.930 . S
C1086 C1087 1.367 . S
C1086 C1094 1.378 . S
C1087 C1086 1.367 . S
C1087 C1095 1.433 1_545 S
C1088 H1084 0.929 . S
C1088 C1090 1.378 . S
C1088 C1092 1.350 . S
C1089 C1092 1.463 1_544 S
C1089 C1094 1.350 . S
C1089 N1097 1.427 1_545 S
C1090 H1081 0.930 . S
C1090 C1088 1.378 . S
C1090 C1091 1.367 . S
C1091 C1090 1.367 . S
C1091 C1093 1.433 1_565 S
C1092 C1088 1.350 . S
C1092 C1089 1.463 1_566 S
C1092 N1096 1.427 1_565 S
C1093 H1083 0.929 . S
C1093 C1091 1.433 1_545 S
C1093 N1096 1.384 . S
C1094 H1085 0.929 . S
C1094 C1086 1.378 . S
C1094 C1089 1.350 . S
C1095 H1082 0.929 . S
C1095 C1087 1.433 1_565 S
C1095 N1097 1.384 . S
N1096 C1092 1.427 1_545 S
N1096 C1093 1.384 . S
N1097 C1089 1.427 1_565 S
N1097 C1095 1.384 . S
H1098 C1104 0.930 . S
H1099 C1108 0.930 . S
H1100 C1113 0.929 . S
H1101 C1111 0.929 . S
H1102 C1106 0.929 . S
H1103 C1112 0.929 . S
C1104 H1098 0.930 . S
C1104 C1105 1.367 . S
C1104 C1112 1.378 . S
C1105 C1104 1.367 . S
C1105 C1113 1.433 . S
C1106 H1102 0.929 . S
C1106 C1108 1.378 . S
C1106 C1110 1.350 . S
C1107 C1110 1.463 1_456 S
C1107 C1112 1.350 . S
C1107 N1115 1.427 1_455 S
C1108 H1099 0.930 . S
C1108 C1106 1.378 . S
C1108 C1109 1.367 . S
C1109 C1108 1.367 . S
C1109 C1111 1.433 . S
C1110 C1106 1.350 . S
C1110 C1107 1.463 1_654 S
C1110 N1114 1.427 1_655 S
C1111 H1101 0.929 . S
C1111 C1109 1.433 . S
C1111 N1114 1.384 1_655 S
C1112 H1103 0.929 . S
C1112 C1104 1.378 . S
C1112 C1107 1.350 . S
C1113 H1100 0.929 . S
C1113 C1105 1.433 . S
C1113 N1115 1.384 1_455 S
N1114 C1110 1.427 1_455 S
N1114 C1111 1.384 1_455 S
N1115 C1107 1.427 1_655 S
N1115 C1113 1.384 1_655 S
H1116 C1122 0.930 . S
H1117 C1126 0.930 . S
H1118 C1131 0.943 . S
H1119 C1129 0.943 . S
H1120 C1124 0.929 . S
H1121 C1130 0.929 . S
C1122 H1116 0.930 . S
C1122 C1123 1.367 . S
C1122 C1130 1.378 . S
C1123 C1122 1.367 . S
C1123 C1131 1.410 1_545 S
C1124 H1120 0.929 . S
C1124 C1126 1.378 . S
C1124 C1128 1.350 . S
C1125 C1128 1.463 1_546 S
C1125 C1130 1.350 . S
C1125 N1133 1.427 1_545 S
C1126 H1117 0.930 . S
C1126 C1124 1.378 . S
C1126 C1127 1.367 . S
C1127 C1126 1.367 . S
C1127 C1129 1.410 1_565 S
C1128 C1124 1.350 . S
C1128 C1125 1.463 1_564 S
C1128 N1132 1.427 1_565 S
C1129 H1119 0.943 . S
C1129 C1127 1.410 1_545 S
C1129 N1132 1.393 . S
C1130 H1121 0.929 . S
C1130 C1122 1.378 . S
C1130 C1125 1.350 . S
C1131 H1118 0.943 . S
C1131 C1123 1.410 1_565 S
C1131 N1133 1.393 . S
N1132 C1128 1.427 1_545 S
N1132 C1129 1.393 . S
N1133 C1125 1.427 1_565 S
N1133 C1131 1.393 . S
H1134 C1140 0.930 . S
H1135 C1144 0.930 . S
H1136 C1149 0.929 . S
H1137 C1147 0.929 . S
H1138 C1142 0.929 . S
H1139 C1148 0.929 . S
C1140 H1134 0.930 . S
C1140 C1141 1.367 . S
C1140 C1148 1.378 . S
C1141 C1140 1.367 . S
C1141 C1149 1.433 1_655 S
C1142 H1138 0.929 . S
C1142 C1144 1.378 . S
C1142 C1146 1.350 . S
C1143 C1146 1.463 1_656 S
C1143 C1148 1.350 . S
C1143 N1151 1.427 1_655 S
C1144 H1135 0.930 . S
C1144 C1142 1.378 . S
C1144 C1145 1.367 . S
C1145 C1144 1.367 . S
C1145 C1147 1.433 1_455 S
C1146 C1142 1.350 . S
C1146 C1143 1.463 1_454 S
C1146 N1150 1.427 1_455 S
C1147 H1137 0.929 . S
C1147 C1145 1.433 1_655 S
C1147 N1150 1.384 . S
C1148 H1139 0.929 . S
C1148 C1140 1.378 . S
C1148 C1143 1.350 . S
C1149 H1136 0.929 . S
C1149 C1141 1.433 1_455 S
C1149 N1151 1.384 . S
N1150 C1146 1.427 1_655 S
N1150 C1147 1.384 . S
N1151 C1143 1.427 1_455 S
N1151 C1149 1.384 . S
C583 C4 1.222 . S
C587 C256 1.216 . S
C601 C40 1.215 . S
C605 C148 1.223 . S
C619 C184 1.219 . S
C623 C76 1.219 . S
C637 C112 1.219 . S
C641 C220 1.219 . S
C655 C292 1.226 . S
C659 C544 1.212 . S
C673 C436 1.212 . S
C677 C328 1.226 . S
C691 C472 1.222 . S
C695 C364 1.215 . S
C709 C508 1.220 . S
C713 C400 1.218 . S
C727 C3 1.348 . S
C731 C398 1.360 . S
C745 C39 1.356 . S
C749 C290 1.360 . S
C763 C326 1.364 . S
C767 C75 1.348 . S
C781 C111 1.347 . S
C785 C362 1.363 . S
C799 C147 1.350 . S
C803 C470 1.364 . S
C817 C506 1.358 . S
C821 C183 1.353 . S
C835 C219 1.354 . S
C839 C542 1.363 . S
C853 C434 1.360 . S
C857 C255 1.349 . S
C871 C291 1.350 . S
C875 C110 1.364 . S
C889 C2 1.363 . S
C893 C327 1.346 . S
C907 C363 1.347 . S
C911 C38 1.363 . S
C925 C74 1.358 . S
C929 C399 1.354 . S
C943 C435 1.355 . S
C947 C182 1.359 . S
C961 C218 1.359 . S
C965 C471 1.355 . S
C979 C254 1.358 . S
C983 C507 1.353 . S
C997 C146 1.358 . S
C1001 C543 1.352 . S
C1015 C158 1.563 . S
C1019 C14 1.562 . S
C1033 C194 1.564 . S
C1037 C50 1.564 . S
C1051 C86 1.563 . S
C1055 C230 1.563 . S
C1069 C266 1.554 . S
C1073 C122 1.554 . S
C1087 C446 1.553 . S
C1091 C302 1.553 . S
C1105 C482 1.556 . S
C1109 C338 1.557 . S
C1123 C374 1.554 . S
C1127 C518 1.555 . S
C1141 C554 1.554 . S
C1145 C410 1.554 . S
