# Generated by pormake.
# Topology pcu-i, (5)-cn, num edge types: 1
# Building blocks:
#     Node 0, Type 0, BuildingBlock: BEQFEK_clean_sbu_0, # of connection points: 5
#     Node 1, Type 0, BuildingBlock: BEQFEK_clean_sbu_0, # of connection points: 5
#     Node 2, Type 0, BuildingBlock: BEQFEK_clean_sbu_0, # of connection points: 5
#     Node 3, Type 0, BuildingBlock: BEQFEK_clean_sbu_0, # of connection points: 5
#     Node 4, Type 0, BuildingBlock: BEQFEK_clean_sbu_0, # of connection points: 5
#     Node 5, Type 0, BuildingBlock: BEQFEK_clean_sbu_0, # of connection points: 5
#     Node 6, Type 0, BuildingBlock: BEQFEK_clean_sbu_0, # of connection points: 5
#     Node 7, Type 0, BuildingBlock: BEQFEK_clean_sbu_0, # of connection points: 5
#     Node 8, Type 0, BuildingBlock: BEQFEK_clean_sbu_0, # of connection points: 5
#     Node 9, Type 0, BuildingBlock: BEQFEK_clean_sbu_0, # of connection points: 5
#     Node 10, Type 0, BuildingBlock: BEQFEK_clean_sbu_0, # of connection points: 5
#     Node 11, Type 0, BuildingBlock: BEQFEK_clean_sbu_0, # of connection points: 5
#     Node 12, Type 0, BuildingBlock: BEQFEK_clean_sbu_0, # of connection points: 5
#     Node 13, Type 0, BuildingBlock: BEQFEK_clean_sbu_0, # of connection points: 5
#     Node 14, Type 0, BuildingBlock: BEQFEK_clean_sbu_0, # of connection points: 5
#     Node 15, Type 0, BuildingBlock: BEQFEK_clean_sbu_0, # of connection points: 5
#     Node 16, Type 0, BuildingBlock: BEQFEK_clean_sbu_0, # of connection points: 5
#     Node 17, Type 0, BuildingBlock: BEQFEK_clean_sbu_0, # of connection points: 5
#     Node 18, Type 0, BuildingBlock: BEQFEK_clean_sbu_0, # of connection points: 5
#     Node 19, Type 0, BuildingBlock: BEQFEK_clean_sbu_0, # of connection points: 5
#     Node 20, Type 0, BuildingBlock: BEQFEK_clean_sbu_0, # of connection points: 5
#     Node 21, Type 0, BuildingBlock: BEQFEK_clean_sbu_0, # of connection points: 5
#     Node 22, Type 0, BuildingBlock: BEQFEK_clean_sbu_0, # of connection points: 5
#     Node 23, Type 0, BuildingBlock: BEQFEK_clean_sbu_0, # of connection points: 5
#     Edge 24, Type (0, 0), BuildingBlock: OJICUG_clean_linker_0, # of connection points: 2
#     Edge 25, Type (0, 0), BuildingBlock: OJICUG_clean_linker_0, # of connection points: 2
#     Edge 26, Type (0, 0), BuildingBlock: OJICUG_clean_linker_0, # of connection points: 2
#     Edge 27, Type (0, 0), BuildingBlock: OJICUG_clean_linker_0, # of connection points: 2
#     Edge 28, Type (0, 0), BuildingBlock: OJICUG_clean_linker_0, # of connection points: 2
#     Edge 29, Type (0, 0), BuildingBlock: OJICUG_clean_linker_0, # of connection points: 2
#     Edge 30, Type (0, 0), BuildingBlock: OJICUG_clean_linker_0, # of connection points: 2
#     Edge 31, Type (0, 0), BuildingBlock: OJICUG_clean_linker_0, # of connection points: 2
#     Edge 32, Type (0, 0), BuildingBlock: OJICUG_clean_linker_0, # of connection points: 2
#     Edge 33, Type (0, 0), BuildingBlock: OJICUG_clean_linker_0, # of connection points: 2
#     Edge 34, Type (0, 0), BuildingBlock: OJICUG_clean_linker_0, # of connection points: 2
#     Edge 35, Type (0, 0), BuildingBlock: OJICUG_clean_linker_0, # of connection points: 2
#     Edge 36, Type (0, 0), BuildingBlock: OJICUG_clean_linker_0, # of connection points: 2
#     Edge 37, Type (0, 0), BuildingBlock: OJICUG_clean_linker_0, # of connection points: 2
#     Edge 38, Type (0, 0), BuildingBlock: OJICUG_clean_linker_0, # of connection points: 2
#     Edge 39, Type (0, 0), BuildingBlock: OJICUG_clean_linker_0, # of connection points: 2
#     Edge 40, Type (0, 0), BuildingBlock: OJICUG_clean_linker_0, # of connection points: 2
#     Edge 41, Type (0, 0), BuildingBlock: OJICUG_clean_linker_0, # of connection points: 2
#     Edge 42, Type (0, 0), BuildingBlock: OJICUG_clean_linker_0, # of connection points: 2
#     Edge 43, Type (0, 0), BuildingBlock: OJICUG_clean_linker_0, # of connection points: 2
#     Edge 44, Type (0, 0), BuildingBlock: OJICUG_clean_linker_0, # of connection points: 2
#     Edge 45, Type (0, 0), BuildingBlock: OJICUG_clean_linker_0, # of connection points: 2
#     Edge 46, Type (0, 0), BuildingBlock: OJICUG_clean_linker_0, # of connection points: 2
#     Edge 47, Type (0, 0), BuildingBlock: OJICUG_clean_linker_0, # of connection points: 2
#     Edge 48, Type (0, 0), BuildingBlock: OJICUG_clean_linker_0, # of connection points: 2
#     Edge 49, Type (0, 0), BuildingBlock: OJICUG_clean_linker_0, # of connection points: 2
#     Edge 50, Type (0, 0), BuildingBlock: OJICUG_clean_linker_0, # of connection points: 2
#     Edge 51, Type (0, 0), BuildingBlock: OJICUG_clean_linker_0, # of connection points: 2
#     Edge 52, Type (0, 0), BuildingBlock: OJICUG_clean_linker_0, # of connection points: 2
#     Edge 53, Type (0, 0), BuildingBlock: OJICUG_clean_linker_0, # of connection points: 2
#     Edge 54, Type (0, 0), BuildingBlock: OJICUG_clean_linker_0, # of connection points: 2
#     Edge 55, Type (0, 0), BuildingBlock: OJICUG_clean_linker_0, # of connection points: 2
#     Edge 56, Type (0, 0), BuildingBlock: OJICUG_clean_linker_0, # of connection points: 2
#     Edge 57, Type (0, 0), BuildingBlock: OJICUG_clean_linker_0, # of connection points: 2
#     Edge 58, Type (0, 0), BuildingBlock: OJICUG_clean_linker_0, # of connection points: 2
#     Edge 59, Type (0, 0), BuildingBlock: OJICUG_clean_linker_0, # of connection points: 2
#     Edge 60, Type (0, 0), BuildingBlock: OJICUG_clean_linker_0, # of connection points: 2
#     Edge 61, Type (0, 0), BuildingBlock: OJICUG_clean_linker_0, # of connection points: 2
#     Edge 62, Type (0, 0), BuildingBlock: OJICUG_clean_linker_0, # of connection points: 2
#     Edge 63, Type (0, 0), BuildingBlock: OJICUG_clean_linker_0, # of connection points: 2
#     Edge 64, Type (0, 0), BuildingBlock: OJICUG_clean_linker_0, # of connection points: 2
#     Edge 65, Type (0, 0), BuildingBlock: OJICUG_clean_linker_0, # of connection points: 2
#     Edge 66, Type (0, 0), BuildingBlock: OJICUG_clean_linker_0, # of connection points: 2
#     Edge 67, Type (0, 0), BuildingBlock: OJICUG_clean_linker_0, # of connection points: 2
#     Edge 68, Type (0, 0), BuildingBlock: OJICUG_clean_linker_0, # of connection points: 2
#     Edge 69, Type (0, 0), BuildingBlock: OJICUG_clean_linker_0, # of connection points: 2
#     Edge 70, Type (0, 0), BuildingBlock: OJICUG_clean_linker_0, # of connection points: 2
#     Edge 71, Type (0, 0), BuildingBlock: OJICUG_clean_linker_0, # of connection points: 2
#     Edge 72, Type (0, 0), BuildingBlock: OJICUG_clean_linker_0, # of connection points: 2
#     Edge 73, Type (0, 0), BuildingBlock: OJICUG_clean_linker_0, # of connection points: 2
#     Edge 74, Type (0, 0), BuildingBlock: OJICUG_clean_linker_0, # of connection points: 2
#     Edge 75, Type (0, 0), BuildingBlock: OJICUG_clean_linker_0, # of connection points: 2
#     Edge 76, Type (0, 0), BuildingBlock: OJICUG_clean_linker_0, # of connection points: 2
#     Edge 77, Type (0, 0), BuildingBlock: OJICUG_clean_linker_0, # of connection points: 2
#     Edge 78, Type (0, 0), BuildingBlock: OJICUG_clean_linker_0, # of connection points: 2
#     Edge 79, Type (0, 0), BuildingBlock: OJICUG_clean_linker_0, # of connection points: 2
#     Edge 80, Type (0, 0), BuildingBlock: OJICUG_clean_linker_0, # of connection points: 2
#     Edge 81, Type (0, 0), BuildingBlock: OJICUG_clean_linker_0, # of connection points: 2
#     Edge 82, Type (0, 0), BuildingBlock: OJICUG_clean_linker_0, # of connection points: 2
#     Edge 83, Type (0, 0), BuildingBlock: OJICUG_clean_linker_0, # of connection points: 2
# Relax obj value: 0.238
# Max RMSD: 0.174
# Mean RMSD: 0.174
data_MOF--net-pcu-i--node1-BEQFEK_clean_sbu_0--edge1-OJICUG_clean_linker_0
_symmetry_space_group_name_H-M    P1
_symmetry_Int_Tables_number       1
_symmetry_cell_setting            triclinic
loop_
_symmetry_equiv_pos_as_xyz
'x, y, z'
_cell_length_a     43.482315
_cell_length_b     43.526338
_cell_length_c     43.526579
_cell_angle_alpha  89.973877
_cell_angle_beta   89.905183
_cell_angle_gamma 90.039547
loop_
_atom_site_label
_atom_site_type_symbol
_atom_site_fract_x
_atom_site_fract_y
_atom_site_fract_z
_atom_type_partial_charge
Co0 Co 0.14111 0.10159 0.38073 0.0
Co1 Co 0.13592 0.17229 0.36795 0.0
C2 C 0.08128 0.13169 0.36366 0.0
O3 O 0.0975 0.10844 0.37046 0.0
O4 O 0.09338 0.1581 0.36118 0.0
C5 C 0.14081 0.04155 0.35669 0.0
O6 O 0.13783 0.05666 0.33074 0.0
C7 C 0.12576 0.22279 0.32654 0.0
C8 C 0.1492 0.26208 0.34842 0.0
C9 C 0.13358 0.25329 0.3221 0.0
N10 N 0.13671 0.21371 0.35387 0.0
N11 N 0.15021 0.23742 0.3672 0.0
C12 C 0.10874 0.20202 0.30501 0.0
H13 H 0.12031 0.17933 0.30384 0.0
H14 H 0.1066 0.21198 0.28168 0.0
H15 H 0.08524 0.19817 0.3142 0.0
C16 C 0.19569 0.10863 0.34084 0.0
N17 N 0.16914 0.11934 0.35276 0.0
N18 N 0.16658 0.14882 0.34652 0.0
C19 C 0.19114 0.15756 0.32956 0.0
C20 C 0.21048 0.13243 0.32561 0.0
C21 C 0.20903 0.07777 0.34818 0.0
H22 H 0.20105 0.06987 0.37105 0.0
H23 H 0.20146 0.06097 0.33058 0.0
H24 H 0.23454 0.07853 0.34801 0.0
O25 O 0.14893 0.1196 0.42142 0.0
O26 O 0.14357 0.17005 0.41317 0.0
H27 H 0.19855 0.20558 0.3373 0.0
H28 H 0.21663 0.19123 0.30267 0.0
C29 C 0.19616 0.18947 0.31772 0.0
H30 H 0.17606 0.1964 0.30389 0.0
H31 H 0.16118 0.23644 0.38849 0.0
O32 O 0.14422 0.05628 0.38168 0.0
C33 C 0.14869 0.14729 0.43101 0.0
Co34 Co 0.88651 0.13809 0.37549 0.0
Co35 Co 0.81459 0.13595 0.3681 0.0
C36 C 0.85352 0.08019 0.35856 0.0
O37 O 0.87819 0.09515 0.36289 0.0
O38 O 0.82754 0.09329 0.36012 0.0
C39 C 0.94953 0.11986 0.37484 0.0
O40 O 0.93747 0.09266 0.37996 0.0
C41 C 0.76383 0.1273 0.32721 0.0
C42 C 0.7235 0.14534 0.35215 0.0
C43 C 0.7324 0.13245 0.32427 0.0
N44 N 0.77283 0.13678 0.35513 0.0
N45 N 0.74861 0.14717 0.3702 0.0
C46 C 0.78615 0.11676 0.30313 0.0
H47 H 0.81001 0.1231 0.30946 0.0
H48 H 0.78063 0.12713 0.28052 0.0
H49 H 0.785 0.09137 0.30116 0.0
C50 C 0.8791 0.19265 0.33659 0.0
N51 N 0.86767 0.167 0.34959 0.0
N52 N 0.83763 0.16643 0.3462 0.0
C53 C 0.82894 0.19175 0.33052 0.0
C54 C 0.85497 0.20928 0.32399 0.0
C55 C 0.91181 0.20284 0.34016 0.0
H56 H 0.91884 0.20033 0.36452 0.0
H57 H 0.92687 0.18783 0.32606 0.0
H58 H 0.91518 0.22711 0.33318 0.0
O59 O 0.87055 0.14483 0.41776 0.0
O60 O 0.81932 0.14292 0.413 0.0
H61 H 0.78193 0.199 0.34352 0.0
H62 H 0.79381 0.22133 0.31044 0.0
C63 C 0.79626 0.19906 0.32242 0.0
H64 H 0.78738 0.1812 0.30672 0.0
H65 H 0.74936 0.15619 0.39239 0.0
O66 O 0.93197 0.14318 0.37351 0.0
C67 C 0.84354 0.1461 0.4293 0.0
Co68 Co 0.85093 0.88694 0.37527 0.0
Co69 Co 0.85427 0.816 0.3633 0.0
C70 C 0.91005 0.85485 0.35859 0.0
O71 O 0.89518 0.87849 0.3671 0.0
O72 O 0.89675 0.82921 0.3547 0.0
C73 C 0.86272 0.94812 0.35625 0.0
O74 O 0.88292 0.93417 0.33866 0.0
C75 C 0.86298 0.76372 0.32388 0.0
C76 C 0.84158 0.72531 0.34927 0.0
C77 C 0.85631 0.73254 0.32184 0.0
N78 N 0.85261 0.77419 0.35096 0.0
N79 N 0.84024 0.75111 0.36632 0.0
C80 C 0.87569 0.78447 0.29945 0.0
H81 H 0.86967 0.80875 0.30427 0.0
H82 H 0.86658 0.77808 0.27653 0.0
H83 H 0.90112 0.78249 0.29905 0.0
C84 C 0.79787 0.88102 0.33385 0.0
N85 N 0.82344 0.86925 0.34672 0.0
N86 N 0.82439 0.83948 0.34166 0.0
C87 C 0.79956 0.83137 0.32494 0.0
C88 C 0.7818 0.85742 0.3196 0.0
C89 C 0.7869 0.91317 0.33934 0.0
H90 H 0.78942 0.91896 0.36402 0.0
H91 H 0.80138 0.92933 0.32591 0.0
H92 H 0.76249 0.91625 0.33273 0.0
O93 O 0.84117 0.87002 0.41616 0.0
O94 O 0.84688 0.81958 0.40841 0.0
H95 H 0.79055 0.78414 0.3356 0.0
H96 H 0.77145 0.79748 0.30111 0.0
C97 C 0.79263 0.79912 0.31508 0.0
H98 H 0.81175 0.79048 0.30075 0.0
H99 H 0.83012 0.75315 0.38798 0.0
O100 O 0.84616 0.93232 0.37451 0.0
C101 C 0.84134 0.8424 0.42602 0.0
Co102 Co 0.10252 0.85196 0.38016 0.0
Co103 Co 0.17336 0.8538 0.36688 0.0
C104 C 0.13521 0.90977 0.36093 0.0
O105 O 0.1113 0.89552 0.36979 0.0
O106 O 0.16068 0.89607 0.35771 0.0
C107 C 0.0423 0.85344 0.35605 0.0
O108 O 0.05755 0.85611 0.33011 0.0
C109 C 0.22405 0.86195 0.32532 0.0
C110 C 0.26384 0.84203 0.34962 0.0
C111 C 0.2553 0.85601 0.32221 0.0
N112 N 0.21477 0.85191 0.35298 0.0
N113 N 0.23867 0.84039 0.36767 0.0
C114 C 0.20216 0.87379 0.30152 0.0
H115 H 0.17818 0.8673 0.30731 0.0
H116 H 0.20795 0.86447 0.2785 0.0
H117 H 0.20357 0.89923 0.30071 0.0
C118 C 0.10745 0.79656 0.34065 0.0
N119 N 0.11925 0.82272 0.35239 0.0
N120 N 0.14895 0.82367 0.34652 0.0
C121 C 0.15685 0.79847 0.33027 0.0
C122 C 0.13082 0.78044 0.3261 0.0
C123 C 0.07583 0.78472 0.34751 0.0
H124 H 0.068 0.79293 0.37031 0.0
H125 H 0.05969 0.79315 0.3297 0.0
H126 H 0.07531 0.75923 0.34725 0.0
O127 O 0.12021 0.84342 0.42092 0.0
O128 O 0.17079 0.84738 0.41228 0.0
H129 H 0.20449 0.7904 0.33988 0.0
H130 H 0.19045 0.76976 0.30663 0.0
C131 C 0.18893 0.79148 0.31975 0.0
H132 H 0.19698 0.81002 0.30437 0.0
H133 H 0.23765 0.83081 0.38963 0.0
O134 O 0.05695 0.85014 0.3811 0.0
C135 C 0.14799 0.84293 0.43032 0.0
Co136 Co 0.14155 0.88631 0.61351 0.0
Co137 Co 0.14035 0.81445 0.62271 0.0
C138 C 0.08337 0.85239 0.62808 0.0
O139 O 0.09794 0.87725 0.62334 0.0
O140 O 0.09714 0.82671 0.6285 0.0
C141 C 0.12852 0.94778 0.63157 0.0
O142 O 0.10786 0.93391 0.64869 0.0
C143 C 0.13145 0.76323 0.66345 0.0
C144 C 0.15643 0.72488 0.64161 0.0
C145 C 0.14028 0.73301 0.66788 0.0
N146 N 0.14236 0.77281 0.63622 0.0
N147 N 0.1568 0.74964 0.62291 0.0
C148 C 0.11354 0.78334 0.68493 0.0
H149 H 0.09066 0.788 0.67471 0.0
H150 H 0.12542 0.80575 0.68766 0.0
H151 H 0.10989 0.77248 0.70767 0.0
C152 C 0.19472 0.8806 0.65447 0.0
N153 N 0.16945 0.86857 0.64127 0.0
N154 N 0.1691 0.83865 0.64553 0.0
C155 C 0.19408 0.83073 0.66213 0.0
C156 C 0.21128 0.85702 0.66812 0.0
C157 C 0.20494 0.91315 0.6498 0.0
H158 H 0.20277 0.91933 0.62518 0.0
H159 H 0.18974 0.92865 0.66319 0.0
H160 H 0.22912 0.91679 0.65697 0.0
O161 O 0.15068 0.86969 0.57212 0.0
O162 O 0.14915 0.81863 0.57807 0.0
H163 H 0.20456 0.78404 0.65068 0.0
H164 H 0.22261 0.79715 0.6858 0.0
C165 C 0.20165 0.7985 0.67146 0.0
H166 H 0.18247 0.78913 0.68525 0.0
H167 H 0.16797 0.75109 0.60172 0.0
O168 O 0.14587 0.93185 0.6142 0.0
C169 C 0.15274 0.84249 0.5613 0.0
Co170 Co 0.10393 0.13901 0.61541 0.0
Co171 Co 0.17578 0.1363 0.62264 0.0
C172 C 0.13649 0.0801 0.62924 0.0
O173 O 0.11187 0.09514 0.62483 0.0
O174 O 0.16249 0.09338 0.62912 0.0
C175 C 0.04252 0.12752 0.6342 0.0
O176 O 0.05625 0.10666 0.65109 0.0
C177 C 0.22599 0.1286 0.66424 0.0
C178 C 0.26658 0.1462 0.63931 0.0
C179 C 0.25726 0.13423 0.66744 0.0
N180 N 0.21738 0.13689 0.63585 0.0
N181 N 0.24175 0.14701 0.62078 0.0
C182 C 0.20355 0.11864 0.68846 0.0
H183 H 0.17966 0.12419 0.68164 0.0
H184 H 0.20877 0.12989 0.71073 0.0
H185 H 0.20507 0.09338 0.69145 0.0
C186 C 0.1116 0.19044 0.65881 0.0
N187 N 0.1228 0.16602 0.64341 0.0
N188 N 0.15296 0.16577 0.64561 0.0
C189 C 0.16195 0.1903 0.66229 0.0
C190 C 0.13607 0.20657 0.6713 0.0
C191 C 0.07824 0.19871 0.66031 0.0
H192 H 0.06496 0.17874 0.66897 0.0
H193 H 0.07406 0.21862 0.67564 0.0
H194 H 0.06986 0.20412 0.63685 0.0
O195 O 0.12037 0.14808 0.57356 0.0
O196 O 0.17149 0.1452 0.57839 0.0
H197 H 0.20768 0.196 0.64447 0.0
H198 H 0.19619 0.2253 0.67138 0.0
C199 C 0.19467 0.20045 0.66591 0.0
H200 H 0.20543 0.1874 0.68493 0.0
H201 H 0.24124 0.15539 0.59832 0.0
O202 O 0.05856 0.14467 0.6167 0.0
C203 C 0.14745 0.14951 0.56215 0.0
Co204 Co 0.85272 0.10248 0.61386 0.0
Co205 Co 0.85395 0.17419 0.62246 0.0
C206 C 0.9103 0.13595 0.63109 0.0
O207 O 0.89561 0.1112 0.62632 0.0
O208 O 0.8969 0.16181 0.63006 0.0
C209 C 0.87147 0.0398 0.61207 0.0
O210 O 0.89846 0.05214 0.60637 0.0
C211 C 0.8618 0.22517 0.66337 0.0
C212 C 0.83822 0.26392 0.64076 0.0
C213 C 0.85336 0.25551 0.66749 0.0
N214 N 0.85175 0.21579 0.6358 0.0
N215 N 0.83813 0.23918 0.62204 0.0
C216 C 0.87851 0.20476 0.6855 0.0
H217 H 0.86751 0.18175 0.68614 0.0
H218 H 0.87942 0.21464 0.70894 0.0
H219 H 0.90246 0.20165 0.67726 0.0
C220 C 0.79864 0.10829 0.65385 0.0
N221 N 0.82385 0.12034 0.64046 0.0
N222 N 0.82416 0.15027 0.64451 0.0
C223 C 0.79912 0.15822 0.66109 0.0
C224 C 0.78203 0.13189 0.66741 0.0
C225 C 0.78884 0.07554 0.64993 0.0
H226 H 0.79066 0.06903 0.62535 0.0
H227 H 0.80455 0.06046 0.66317 0.0
H228 H 0.76485 0.07165 0.65768 0.0
O229 O 0.84545 0.11885 0.572 0.0
O230 O 0.84679 0.16994 0.57749 0.0
H231 H 0.78979 0.20523 0.64989 0.0
H232 H 0.77032 0.19203 0.68427 0.0
C233 C 0.79171 0.19045 0.67055 0.0
H234 H 0.81056 0.19928 0.68505 0.0
H235 H 0.82771 0.23792 0.6005 0.0
O236 O 0.84811 0.05713 0.61484 0.0
C237 C 0.8438 0.14594 0.56085 0.0
Co238 Co 0.89048 0.84758 0.60707 0.0
Co239 Co 0.81946 0.85322 0.61947 0.0
C240 C 0.8602 0.90797 0.6217 0.0
O241 O 0.8834 0.89171 0.61476 0.0
O242 O 0.83389 0.89584 0.6253 0.0
C243 C 0.951 0.85823 0.62699 0.0
O244 O 0.93629 0.87716 0.64532 0.0
C245 C 0.76909 0.86352 0.66123 0.0
C246 C 0.72886 0.84379 0.6375 0.0
C247 C 0.73779 0.85768 0.66484 0.0
N248 N 0.77795 0.8533 0.6335 0.0
N249 N 0.75376 0.84198 0.61913 0.0
C250 C 0.79144 0.87539 0.68457 0.0
H251 H 0.81538 0.86966 0.67788 0.0
H252 H 0.78661 0.86542 0.70754 0.0
H253 H 0.78947 0.90076 0.68597 0.0
C254 C 0.88376 0.79605 0.64972 0.0
N255 N 0.87239 0.82148 0.63633 0.0
N256 N 0.84266 0.82327 0.64167 0.0
C257 C 0.83417 0.79896 0.65904 0.0
C258 C 0.85997 0.78088 0.66462 0.0
C259 C 0.91564 0.78423 0.64412 0.0
H260 H 0.9214 0.78642 0.61938 0.0
H261 H 0.93224 0.79833 0.65735 0.0
H262 H 0.91811 0.75981 0.65092 0.0
O263 O 0.87259 0.83782 0.56658 0.0
O264 O 0.82214 0.84425 0.5746 0.0
H265 H 0.78642 0.79212 0.64892 0.0
H266 H 0.79956 0.77109 0.68232 0.0
C267 C 0.80181 0.79275 0.66921 0.0
H268 H 0.79413 0.81147 0.68453 0.0
H269 H 0.75446 0.83213 0.59728 0.0
O270 O 0.93586 0.84229 0.60771 0.0
C271 C 0.84486 0.83816 0.55694 0.0
Co272 Co 0.37113 0.13759 0.10435 0.0
Co273 Co 0.3675 0.13831 0.17622 0.0
C274 C 0.35451 0.0815 0.13837 0.0
O275 O 0.35577 0.09593 0.11307 0.0
O276 O 0.35952 0.09511 0.16369 0.0
C277 C 0.37197 0.11969 0.04147 0.0
O278 O 0.37708 0.09248 0.05348 0.0
C279 C 0.32808 0.12941 0.2282 0.0
C280 C 0.35274 0.1504 0.26718 0.0
C281 C 0.32541 0.13579 0.25934 0.0
N282 N 0.35543 0.13971 0.21825 0.0
N283 N 0.37037 0.15188 0.24168 0.0
C284 C 0.30377 0.11741 0.20696 0.0
H285 H 0.30881 0.12406 0.18288 0.0
H286 H 0.28079 0.12639 0.21348 0.0
H287 H 0.30329 0.09196 0.20827 0.0
C288 C 0.33411 0.19368 0.11191 0.0
N289 N 0.34739 0.16824 0.12341 0.0
N290 N 0.34504 0.16839 0.15351 0.0
C291 C 0.32974 0.19393 0.16221 0.0
C292 C 0.3224 0.21091 0.1361 0.0
C293 C 0.33618 0.20286 0.0788 0.0
H294 H 0.36022 0.20016 0.07069 0.0
H295 H 0.32144 0.18739 0.06491 0.0
H296 H 0.32905 0.22702 0.07506 0.0
O297 O 0.41415 0.14041 0.11921 0.0
O298 O 0.4122 0.14566 0.17028 0.0
H299 H 0.34402 0.20304 0.2084 0.0
H300 H 0.30957 0.22356 0.19722 0.0
C301 C 0.32242 0.20175 0.19494 0.0
H302 H 0.30789 0.18341 0.2049 0.0
H303 H 0.39206 0.16202 0.24007 0.0
O304 O 0.36961 0.14283 0.05911 0.0
C305 C 0.42733 0.14425 0.14514 0.0
Co306 Co 0.84861 0.37528 0.10237 0.0
Co307 Co 0.85075 0.36692 0.17409 0.0
C308 C 0.90703 0.35976 0.13528 0.0
O309 O 0.89222 0.36466 0.11064 0.0
O310 O 0.89359 0.35985 0.16115 0.0
C311 C 0.86037 0.35669 0.04083 0.0
O312 O 0.88061 0.33897 0.05449 0.0
C313 C 0.85985 0.32638 0.22511 0.0
C314 C 0.84044 0.35102 0.26496 0.0
C315 C 0.85417 0.32345 0.25644 0.0
N316 N 0.84983 0.354 0.21581 0.0
N317 N 0.83864 0.36892 0.23974 0.0
C318 C 0.87124 0.30243 0.20313 0.0
H319 H 0.86504 0.30847 0.17918 0.0
H320 H 0.86132 0.2796 0.20874 0.0
H321 H 0.89667 0.30105 0.20456 0.0
C322 C 0.79443 0.33556 0.10953 0.0
N323 N 0.82021 0.34836 0.12092 0.0
N324 N 0.82084 0.34462 0.1509 0.0
C325 C 0.79553 0.32883 0.15956 0.0
C326 C 0.77782 0.32272 0.13363 0.0
C327 C 0.78393 0.33986 0.07706 0.0
H328 H 0.78682 0.36427 0.07032 0.0
H329 H 0.79848 0.32571 0.06161 0.0
H330 H 0.75948 0.33339 0.07394 0.0
O331 O 0.84063 0.41702 0.11865 0.0
O332 O 0.84299 0.41163 0.16972 0.0
H333 H 0.78724 0.34152 0.20642 0.0
H334 H 0.76647 0.30747 0.19445 0.0
C335 C 0.78825 0.32042 0.19217 0.0
H336 H 0.80668 0.30552 0.20123 0.0
H337 H 0.82904 0.39086 0.2387 0.0
O338 O 0.84364 0.37447 0.05694 0.0
C339 C 0.83929 0.42817 0.14576 0.0
Co340 Co 0.61325 0.85056 0.10083 0.0
Co341 Co 0.62221 0.85352 0.17241 0.0
C342 C 0.6299 0.90907 0.13296 0.0
O343 O 0.62432 0.89401 0.10864 0.0
O344 O 0.62994 0.89605 0.15902 0.0
C345 C 0.63471 0.86083 0.04035 0.0
O346 O 0.65343 0.87942 0.05499 0.0
C347 C 0.6631 0.86291 0.22313 0.0
C348 C 0.6389 0.84311 0.2631 0.0
C349 C 0.66634 0.85703 0.25435 0.0
N350 N 0.63539 0.85283 0.21405 0.0
N351 N 0.62073 0.84142 0.23807 0.0
C352 C 0.68697 0.87441 0.20103 0.0
H353 H 0.68097 0.86799 0.17713 0.0
H354 H 0.70992 0.86482 0.20663 0.0
H355 H 0.68811 0.89984 0.20236 0.0
C356 C 0.65337 0.79679 0.10801 0.0
N357 N 0.64019 0.82235 0.11941 0.0
N358 N 0.6442 0.82326 0.14933 0.0
C359 C 0.66052 0.79832 0.15794 0.0
C360 C 0.66676 0.78064 0.13201 0.0
C361 C 0.64918 0.78604 0.07559 0.0
H362 H 0.62483 0.78906 0.06867 0.0
H363 H 0.66368 0.80024 0.06012 0.0
H364 H 0.65545 0.76152 0.07275 0.0
O365 O 0.57132 0.84302 0.11735 0.0
O366 O 0.57723 0.84625 0.16833 0.0
H367 H 0.64855 0.79069 0.20512 0.0
H368 H 0.68228 0.76962 0.19276 0.0
C369 C 0.66943 0.79142 0.19047 0.0
H370 H 0.68461 0.80989 0.19903 0.0
H371 H 0.59883 0.83166 0.2372 0.0
O372 O 0.61483 0.84552 0.05547 0.0
C373 C 0.56038 0.84232 0.14461 0.0
Co374 Co 0.13799 0.61422 0.1047 0.0
Co375 Co 0.13414 0.62389 0.17616 0.0
C376 C 0.07908 0.63111 0.13648 0.0
O377 O 0.09396 0.62309 0.11268 0.0
O378 O 0.09214 0.6337 0.16238 0.0
C379 C 0.12652 0.63218 0.04306 0.0
O380 O 0.1052 0.64879 0.0565 0.0
C381 C 0.1264 0.66454 0.22745 0.0
C382 C 0.14273 0.63809 0.26749 0.0
C383 C 0.13095 0.6665 0.25895 0.0
N384 N 0.13491 0.63649 0.21797 0.0
N385 N 0.14434 0.62054 0.242 0.0
C386 C 0.11696 0.6896 0.20581 0.0
H387 H 0.12402 0.6841 0.18196 0.0
H388 H 0.12731 0.71186 0.21271 0.0
H389 H 0.09155 0.69188 0.20622 0.0
C390 C 0.19008 0.65708 0.11205 0.0
N391 N 0.16534 0.64226 0.12341 0.0
N392 N 0.16477 0.64538 0.15347 0.0
C393 C 0.18932 0.66219 0.16222 0.0
C394 C 0.20607 0.67021 0.13626 0.0
C395 C 0.19861 0.65771 0.07874 0.0
H396 H 0.2037 0.63399 0.07089 0.0
H397 H 0.17886 0.66636 0.06519 0.0
H398 H 0.21881 0.67265 0.07431 0.0
O399 O 0.14648 0.57275 0.12129 0.0
O400 O 0.14031 0.57874 0.17196 0.0
H401 H 0.19417 0.64636 0.20867 0.0
H402 H 0.22346 0.6732 0.19668 0.0
C403 C 0.1987 0.6673 0.19491 0.0
H404 H 0.18512 0.68654 0.20463 0.0
H405 H 0.15252 0.59804 0.2409 0.0
O406 O 0.14381 0.61512 0.05934 0.0
C407 C 0.14564 0.56188 0.14853 0.0
Co408 Co 0.37847 0.85329 0.88576 0.0
Co409 Co 0.3722 0.855 0.81372 0.0
C410 C 0.36403 0.91134 0.85229 0.0
O411 O 0.36825 0.89676 0.87718 0.0
O412 O 0.3649 0.89776 0.82654 0.0
C413 C 0.35996 0.86601 0.94717 0.0
O414 O 0.34391 0.88747 0.93336 0.0
C415 C 0.3304 0.86266 0.76378 0.0
C416 C 0.35538 0.8462 0.72282 0.0
C417 C 0.3272 0.85788 0.73241 0.0
N418 N 0.35886 0.85429 0.77217 0.0
N419 N 0.37395 0.84482 0.74758 0.0
C420 C 0.30617 0.87213 0.78641 0.0
H421 H 0.31295 0.866 0.81014 0.0
H422 H 0.28386 0.86104 0.78093 0.0
H423 H 0.30326 0.89743 0.78547 0.0
C424 C 0.33541 0.80141 0.87815 0.0
N425 N 0.35112 0.8256 0.86684 0.0
N426 N 0.34951 0.82534 0.83667 0.0
C427 C 0.33299 0.80067 0.82779 0.0
C428 C 0.32339 0.78482 0.85375 0.0
C429 C 0.33281 0.79406 0.91164 0.0
H430 H 0.32481 0.81471 0.92422 0.0
H431 H 0.31646 0.77496 0.91596 0.0
H432 H 0.35582 0.78779 0.92065 0.0
O433 O 0.42077 0.8451 0.86974 0.0
O434 O 0.4167 0.84731 0.81851 0.0
H435 H 0.35127 0.79503 0.78227 0.0
H436 H 0.32484 0.76524 0.79386 0.0
C437 C 0.32981 0.79021 0.79517 0.0
H438 H 0.3106 0.80279 0.78417 0.0
H439 H 0.3965 0.83665 0.74785 0.0
O440 O 0.37678 0.84811 0.93123 0.0
C441 C 0.43265 0.84377 0.84287 0.0
Co442 Co 0.13834 0.37716 0.88893 0.0
Co443 Co 0.13709 0.36747 0.81737 0.0
C444 C 0.08028 0.36148 0.85553 0.0
O445 O 0.09484 0.36681 0.88022 0.0
O446 O 0.09397 0.36105 0.82978 0.0
C447 C 0.12618 0.35855 0.95015 0.0
O448 O 0.10641 0.3405 0.93624 0.0
C449 C 0.12853 0.32617 0.7668 0.0
C450 C 0.15297 0.34784 0.72796 0.0
C451 C 0.13717 0.32152 0.73658 0.0
N452 N 0.13913 0.35363 0.77593 0.0
N453 N 0.15325 0.36685 0.75247 0.0
C454 C 0.11119 0.3046 0.78737 0.0
H455 H 0.08764 0.31376 0.79092 0.0
H456 H 0.12246 0.30344 0.81019 0.0
H457 H 0.10915 0.28127 0.77741 0.0
C458 C 0.19142 0.33589 0.88368 0.0
N459 N 0.16634 0.34932 0.87151 0.0
N460 N 0.16607 0.34495 0.84162 0.0
C461 C 0.19094 0.32808 0.83384 0.0
C462 C 0.20793 0.32195 0.86021 0.0
C463 C 0.20152 0.34044 0.91624 0.0
H464 H 0.19948 0.36507 0.92244 0.0
H465 H 0.18618 0.32713 0.9317 0.0
H466 H 0.22564 0.33309 0.91993 0.0
O467 O 0.14738 0.41845 0.87205 0.0
O468 O 0.14556 0.41226 0.82105 0.0
H469 H 0.20108 0.33914 0.78694 0.0
H470 H 0.21964 0.30437 0.80032 0.0
C471 C 0.19853 0.3185 0.80167 0.0
H472 H 0.17949 0.30438 0.79264 0.0
H473 H 0.16417 0.38818 0.75356 0.0
O474 O 0.1427 0.37679 0.9343 0.0
C475 C 0.14928 0.42914 0.84478 0.0
Co476 Co 0.61216 0.14312 0.88822 0.0
Co477 Co 0.6237 0.13698 0.81727 0.0
C478 C 0.62622 0.0824 0.85835 0.0
O479 O 0.61976 0.09878 0.88161 0.0
O480 O 0.62941 0.09445 0.83198 0.0
C481 C 0.63337 0.13431 0.94845 0.0
O482 O 0.65261 0.11638 0.93362 0.0
C483 C 0.66469 0.12613 0.76649 0.0
C484 C 0.6403 0.14544 0.72648 0.0
C485 C 0.66777 0.13161 0.73513 0.0
N486 N 0.6371 0.13648 0.77568 0.0
N487 N 0.62232 0.14755 0.75163 0.0
C488 C 0.68845 0.11455 0.78855 0.0
H489 H 0.68217 0.12058 0.8125 0.0
H490 H 0.71136 0.12444 0.78316 0.0
H491 H 0.68981 0.08915 0.78687 0.0
C492 C 0.65437 0.19494 0.88047 0.0
N493 N 0.64128 0.16912 0.86961 0.0
N494 N 0.64626 0.16706 0.83987 0.0
C495 C 0.66313 0.19155 0.83086 0.0
C496 C 0.66871 0.21007 0.85631 0.0
C497 C 0.64876 0.20721 0.91214 0.0
H498 H 0.62409 0.20465 0.91812 0.0
H499 H 0.66241 0.19369 0.92887 0.0
H500 H 0.6551 0.2318 0.91414 0.0
O501 O 0.57148 0.15292 0.87066 0.0
O502 O 0.579 0.1464 0.82023 0.0
H503 H 0.65191 0.19827 0.7834 0.0
H504 H 0.68566 0.21931 0.79574 0.0
C505 C 0.67257 0.19765 0.7983 0.0
H506 H 0.68767 0.17887 0.7903 0.0
H507 H 0.60048 0.15742 0.75258 0.0
O508 O 0.61303 0.14898 0.93343 0.0
C509 C 0.56159 0.15269 0.84305 0.0
Co510 Co 0.85413 0.61325 0.88653 0.0
Co511 Co 0.85805 0.62455 0.81557 0.0
C512 C 0.91321 0.63063 0.85496 0.0
O513 O 0.89824 0.62207 0.87852 0.0
O514 O 0.9002 0.63397 0.82914 0.0
C515 C 0.86519 0.63256 0.94759 0.0
O516 O 0.88539 0.65023 0.93372 0.0
C517 C 0.86658 0.66478 0.76407 0.0
C518 C 0.84656 0.6396 0.72488 0.0
C519 C 0.86032 0.6673 0.73287 0.0
N520 N 0.85686 0.6372 0.77386 0.0
N521 N 0.84533 0.62197 0.75031 0.0
C522 C 0.87813 0.68916 0.78549 0.0
H523 H 0.87181 0.68369 0.80957 0.0
H524 H 0.86845 0.71193 0.77939 0.0
H525 H 0.90358 0.69033 0.78397 0.0
C526 C 0.8006 0.65389 0.87992 0.0
N527 N 0.82639 0.64119 0.86842 0.0
N528 N 0.82744 0.64583 0.83858 0.0
C529 C 0.80242 0.66209 0.83014 0.0
C530 C 0.78446 0.6676 0.85607 0.0
C531 C 0.78956 0.64878 0.91214 0.0
H532 H 0.79217 0.62419 0.91827 0.0
H533 H 0.80393 0.66247 0.92813 0.0
H534 H 0.7651 0.65534 0.91511 0.0
O535 O 0.84519 0.57223 0.86983 0.0
O536 O 0.85138 0.57926 0.81929 0.0
H537 H 0.79479 0.65088 0.78281 0.0
H538 H 0.77382 0.68447 0.79564 0.0
C539 C 0.79559 0.67151 0.79773 0.0
H540 H 0.81413 0.68674 0.78935 0.0
H541 H 0.83579 0.60001 0.75181 0.0
O542 O 0.84888 0.61416 0.93178 0.0
C543 C 0.8458 0.56197 0.84238 0.0
Co544 Co 0.1008 0.37672 0.14057 0.0
Co545 Co 0.17282 0.36959 0.13831 0.0
C546 C 0.1339 0.36191 0.08222 0.0
O547 O 0.10919 0.3666 0.09704 0.0
O548 O 0.15981 0.36231 0.09556 0.0
C549 C 0.03947 0.35804 0.12819 0.0
O550 O 0.05351 0.34129 0.10738 0.0
C551 C 0.22315 0.32791 0.1309 0.0
C552 C 0.26394 0.3534 0.14698 0.0
C553 C 0.25463 0.32502 0.13564 0.0
N554 N 0.21449 0.35635 0.13903 0.0
N555 N 0.23896 0.37172 0.1483 0.0
C556 C 0.20066 0.30354 0.12155 0.0
H557 H 0.17684 0.3103 0.12752 0.0
H558 H 0.20617 0.28137 0.13287 0.0
H559 H 0.20172 0.30043 0.09627 0.0
C560 C 0.10822 0.3335 0.19227 0.0
N561 N 0.1196 0.34914 0.16806 0.0
N562 N 0.14978 0.34701 0.16802 0.0
C563 C 0.15858 0.33015 0.19248 0.0
C564 C 0.13256 0.32091 0.20848 0.0
C565 C 0.07474 0.33159 0.20006 0.0
H566 H 0.06188 0.323 0.17984 0.0
H567 H 0.07042 0.31604 0.2198 0.0
H568 H 0.06602 0.35491 0.20554 0.0
O569 O 0.11709 0.41878 0.14889 0.0
O570 O 0.16827 0.41409 0.14618 0.0
H571 H 0.19257 0.321 0.2276 0.0
H572 H 0.20179 0.30692 0.18989 0.0
C573 C 0.19123 0.32624 0.20269 0.0
H574 H 0.20452 0.34745 0.19798 0.0
H575 H 0.23849 0.39434 0.15622 0.0
O576 O 0.05527 0.37532 0.14574 0.0
C577 C 0.14412 0.43033 0.15004 0.0
Co578 Co 0.10567 0.6133 0.85269 0.0
Co579 Co 0.17715 0.62174 0.85522 0.0
C580 C 0.1372 0.62965 0.91099 0.0
O581 O 0.11269 0.62539 0.89579 0.0
O582 O 0.16332 0.62852 0.89802 0.0
C583 C 0.04518 0.63624 0.85566 0.0
O584 O 0.05981 0.66164 0.86285 0.0
C585 C 0.22525 0.66669 0.85888 0.0
C586 C 0.26794 0.64131 0.84851 0.0
C587 C 0.25658 0.6704 0.85485 0.0
N588 N 0.21817 0.63701 0.85448 0.0
N589 N 0.2438 0.62177 0.84858 0.0
C590 C 0.20228 0.69088 0.86754 0.0
H591 H 0.1817 0.68044 0.87833 0.0
H592 H 0.19461 0.70331 0.84669 0.0
H593 H 0.21277 0.70782 0.88344 0.0
C594 C 0.11294 0.65417 0.7984 0.0
N595 N 0.12385 0.64038 0.82395 0.0
N596 N 0.15402 0.643 0.82451 0.0
C597 C 0.16324 0.65824 0.79909 0.0
C598 C 0.13758 0.66621 0.78209 0.0
C599 C 0.07985 0.65429 0.78895 0.0
H600 H 0.06976 0.63113 0.79234 0.0
H601 H 0.06708 0.67084 0.80349 0.0
H602 H 0.07691 0.66134 0.76468 0.0
O603 O 0.12321 0.57164 0.84558 0.0
O604 O 0.17436 0.57699 0.84759 0.0
H605 H 0.20918 0.64013 0.7957 0.0
H606 H 0.19705 0.66215 0.76282 0.0
C607 C 0.19591 0.66052 0.78825 0.0
H608 H 0.20665 0.68151 0.7978 0.0
H609 H 0.24474 0.59824 0.8441 0.0
O610 O 0.06036 0.61217 0.84905 0.0
C611 C 0.15034 0.56044 0.84416 0.0
Co612 Co 0.38039 0.1042 0.84893 0.0
Co613 Co 0.3682 0.17489 0.85541 0.0
C614 C 0.36537 0.13345 0.90966 0.0
O615 O 0.37235 0.1105 0.89311 0.0
O616 O 0.36206 0.15992 0.89788 0.0
C617 C 0.36098 0.04342 0.85865 0.0
O618 O 0.34226 0.05757 0.87766 0.0
C619 C 0.32663 0.22504 0.86623 0.0
C620 C 0.35064 0.26545 0.8471 0.0
C621 C 0.32321 0.25636 0.86082 0.0
N622 N 0.3544 0.21629 0.85599 0.0
N623 N 0.36894 0.24057 0.84503 0.0
C624 C 0.30304 0.20263 0.87765 0.0
H625 H 0.30956 0.17879 0.87147 0.0
H626 H 0.28011 0.20781 0.86778 0.0
H627 H 0.30158 0.20413 0.90305 0.0
C628 C 0.33775 0.11138 0.79749 0.0
N629 N 0.35115 0.12247 0.82303 0.0
N630 N 0.34601 0.15217 0.82506 0.0
C631 C 0.32881 0.16095 0.80077 0.0
C632 C 0.32307 0.13535 0.78248 0.0
C633 C 0.34317 0.0796 0.78543 0.0
H634 H 0.36794 0.07385 0.78729 0.0
H635 H 0.33003 0.06294 0.79961 0.0
H636 H 0.33611 0.07724 0.76108 0.0
O637 O 0.4209 0.12224 0.83937 0.0
O638 O 0.41307 0.17254 0.84637 0.0
H639 H 0.33952 0.20862 0.79449 0.0
H640 H 0.30632 0.19589 0.77286 0.0
C641 C 0.31905 0.1934 0.79471 0.0
H642 H 0.30352 0.20105 0.81331 0.0
H643 H 0.39086 0.23996 0.83523 0.0
O644 O 0.38014 0.05906 0.84298 0.0
C645 C 0.43065 0.14991 0.83993 0.0
Co646 Co 0.88667 0.37656 0.8502 0.0
Co647 Co 0.8147 0.37054 0.85238 0.0
C648 C 0.85348 0.36225 0.90863 0.0
O649 O 0.87832 0.36637 0.89382 0.0
O650 O 0.82762 0.36327 0.89522 0.0
C651 C 0.94795 0.35786 0.86227 0.0
O652 O 0.93403 0.34113 0.8832 0.0
C653 C 0.76447 0.32916 0.86034 0.0
C654 C 0.72372 0.35395 0.84313 0.0
C655 C 0.73314 0.32593 0.85523 0.0
N656 N 0.77303 0.35749 0.85175 0.0
N657 N 0.74858 0.37248 0.84184 0.0
C658 C 0.78695 0.30497 0.87014 0.0
H659 H 0.81076 0.31157 0.86391 0.0
H660 H 0.78135 0.28256 0.85935 0.0
H661 H 0.78596 0.30239 0.89547 0.0
C662 C 0.87866 0.33381 0.79823 0.0
N663 N 0.86756 0.34929 0.82264 0.0
N664 N 0.83736 0.34765 0.82267 0.0
C665 C 0.82824 0.33126 0.79803 0.0
C666 C 0.85407 0.32185 0.78186 0.0
C667 C 0.91208 0.33154 0.79034 0.0
H668 H 0.92496 0.32311 0.81063 0.0
H669 H 0.91618 0.31572 0.7708 0.0
H670 H 0.92098 0.35472 0.7845 0.0
O671 O 0.8709 0.41873 0.8418 0.0
O672 O 0.81964 0.41488 0.84416 0.0
H673 H 0.79399 0.32272 0.76297 0.0
H674 H 0.78442 0.30915 0.80083 0.0
C675 C 0.7955 0.32808 0.78784 0.0
H676 H 0.7828 0.34966 0.79238 0.0
H677 H 0.74903 0.3949 0.83335 0.0
O678 O 0.93207 0.37507 0.84475 0.0
C679 C 0.8441 0.43069 0.84033 0.0
Co680 Co 0.61797 0.88762 0.85073 0.0
Co681 Co 0.62578 0.81584 0.85189 0.0
C682 C 0.63474 0.85411 0.90821 0.0
O683 O 0.6305 0.87902 0.89365 0.0
O684 O 0.63338 0.82836 0.89467 0.0
C685 C 0.61622 0.95045 0.86935 0.0
O686 O 0.61019 0.93811 0.89624 0.0
C687 C 0.66648 0.76496 0.86052 0.0
C688 C 0.64201 0.72511 0.84094 0.0
C689 C 0.66952 0.7337 0.85475 0.0
N690 N 0.63881 0.77419 0.85056 0.0
N691 N 0.62399 0.75026 0.83924 0.0
C692 C 0.69044 0.78693 0.87197 0.0
H693 H 0.68454 0.81086 0.86553 0.0
H694 H 0.71337 0.78119 0.86234 0.0
H695 H 0.69153 0.78562 0.8974 0.0
C696 C 0.65765 0.88116 0.79635 0.0
N697 N 0.64426 0.86935 0.82165 0.0
N698 N 0.64779 0.83935 0.82185 0.0
C699 C 0.66392 0.83107 0.79665 0.0
C700 C 0.67063 0.85732 0.77956 0.0
C701 C 0.6542 0.91399 0.78662 0.0
H702 H 0.62974 0.92091 0.78868 0.0
H703 H 0.66786 0.92882 0.80222 0.0
H704 H 0.6618 0.91778 0.76259 0.0
O705 O 0.57577 0.8714 0.84399 0.0
O706 O 0.58089 0.82025 0.84511 0.0
H707 H 0.65124 0.78423 0.78827 0.0
H708 H 0.68497 0.79652 0.76706 0.0
C709 C 0.67233 0.79856 0.78904 0.0
H710 H 0.68751 0.7894 0.8072 0.0
H711 H 0.60204 0.75126 0.82965 0.0
O712 O 0.61919 0.93308 0.84604 0.0
C713 C 0.56439 0.84437 0.84247 0.0
Co714 Co 0.88694 0.61112 0.13731 0.0
Co715 Co 0.81574 0.62169 0.13501 0.0
C716 C 0.85505 0.62966 0.07943 0.0
O717 O 0.8794 0.62396 0.09441 0.0
O718 O 0.82895 0.62938 0.09244 0.0
C719 C 0.94706 0.63547 0.13719 0.0
O720 O 0.93198 0.66147 0.13455 0.0
C721 C 0.76504 0.66295 0.12621 0.0
C722 C 0.72519 0.63875 0.14633 0.0
C723 C 0.73381 0.66619 0.13238 0.0
N724 N 0.77421 0.63528 0.13621 0.0
N725 N 0.75026 0.62062 0.14781 0.0
C726 C 0.78709 0.68667 0.11435 0.0
H727 H 0.81108 0.68054 0.12042 0.0
H728 H 0.78173 0.70963 0.12405 0.0
H729 H 0.78541 0.68781 0.08895 0.0
C730 C 0.88055 0.64947 0.19305 0.0
N731 N 0.86928 0.63759 0.16678 0.0
N732 N 0.83951 0.64288 0.16542 0.0
C733 C 0.83104 0.65909 0.19049 0.0
C734 C 0.8568 0.66371 0.20884 0.0
C735 C 0.91209 0.64301 0.20525 0.0
H736 H 0.92034 0.62039 0.19698 0.0
H737 H 0.92813 0.66112 0.19719 0.0
H738 H 0.9122 0.64303 0.23075 0.0
O739 O 0.86962 0.56966 0.14409 0.0
O740 O 0.81872 0.57667 0.14206 0.0
H741 H 0.78333 0.64917 0.19798 0.0
H742 H 0.79679 0.68282 0.21838 0.0
C743 C 0.79879 0.66942 0.1969 0.0
H744 H 0.79099 0.68451 0.17806 0.0
H745 H 0.75122 0.59871 0.1575 0.0
O746 O 0.93231 0.6104 0.14004 0.0
C747 C 0.84217 0.55934 0.14537 0.0
Co748 Co 0.37653 0.88899 0.13814 0.0
Co749 Co 0.36672 0.81737 0.13503 0.0
C750 C 0.36043 0.85697 0.07935 0.0
O751 O 0.36588 0.88132 0.09449 0.0
O752 O 0.35988 0.83091 0.09241 0.0
C753 C 0.35458 0.94944 0.12982 0.0
O754 O 0.33501 0.93484 0.1121 0.0
C755 C 0.32545 0.76654 0.12607 0.0
C756 C 0.34747 0.72774 0.15013 0.0
C757 C 0.32089 0.73629 0.13478 0.0
N758 N 0.35304 0.77574 0.13634 0.0
N759 N 0.36647 0.75229 0.15018 0.0
C760 C 0.30366 0.78709 0.1091 0.0
H761 H 0.31329 0.79194 0.08599 0.0
H762 H 0.3015 0.80938 0.12129 0.0
H763 H 0.28069 0.77648 0.1061 0.0
C764 C 0.33619 0.88203 0.19186 0.0
N765 N 0.34918 0.87063 0.16617 0.0
N766 N 0.34461 0.84078 0.165 0.0
C767 C 0.32799 0.8323 0.18983 0.0
C768 C 0.32228 0.85813 0.20776 0.0
C769 C 0.34107 0.91421 0.20305 0.0
H770 H 0.36551 0.9208 0.19986 0.0
H771 H 0.32667 0.93011 0.18931 0.0
H772 H 0.33507 0.91674 0.22768 0.0
O773 O 0.41814 0.87207 0.14594 0.0
O774 O 0.4117 0.82114 0.14273 0.0
H775 H 0.3386 0.78504 0.19848 0.0
H776 H 0.30393 0.79812 0.21749 0.0
C777 C 0.31809 0.80001 0.19642 0.0
H778 H 0.30384 0.79169 0.17719 0.0
H779 H 0.3879 0.75344 0.16088 0.0
O780 O 0.37541 0.9343 0.14366 0.0
C781 C 0.42877 0.84472 0.14674 0.0
Co782 Co 0.61568 0.10251 0.13645 0.0
Co783 Co 0.61942 0.17441 0.13858 0.0
C784 C 0.63116 0.13793 0.08071 0.0
O785 O 0.62944 0.11225 0.0944 0.0
O786 O 0.62694 0.16292 0.09512 0.0
C787 C 0.63439 0.04099 0.12341 0.0
O788 O 0.6512 0.05454 0.10229 0.0
C789 C 0.65966 0.22552 0.13019 0.0
C790 C 0.63511 0.26535 0.14968 0.0
C791 C 0.66265 0.25681 0.1358 0.0
N792 N 0.63199 0.21622 0.14024 0.0
N793 N 0.61713 0.24014 0.15153 0.0
C794 C 0.68368 0.20356 0.11883 0.0
H795 H 0.6778 0.17963 0.12528 0.0
H796 H 0.70656 0.20935 0.12849 0.0
H797 H 0.6849 0.20479 0.0934 0.0
C798 C 0.65339 0.10898 0.19229 0.0
N799 N 0.64005 0.12092 0.16707 0.0
N800 N 0.64217 0.15103 0.16789 0.0
C801 C 0.65739 0.1593 0.19361 0.0
C802 C 0.66489 0.13288 0.21006 0.0
C803 C 0.65132 0.07572 0.20093 0.0
H804 H 0.62733 0.06762 0.19795 0.0
H805 H 0.66624 0.06211 0.18534 0.0
H806 H 0.65828 0.0716 0.22506 0.0
O807 O 0.57277 0.11744 0.14072 0.0
O808 O 0.57478 0.16848 0.14638 0.0
H809 H 0.64262 0.20527 0.20321 0.0
H810 H 0.67677 0.19397 0.22418 0.0
C811 C 0.66433 0.19193 0.20213 0.0
H812 H 0.67918 0.20227 0.18427 0.0
H813 H 0.59515 0.23912 0.16115 0.0
O814 O 0.61716 0.05709 0.14072 0.0
C815 C 0.55965 0.14334 0.14505 0.0
C816 C 0.17359 0.13658 0.51297 0.0
C817 C 0.1508 0.15317 0.5287 0.0
H818 H 0.19043 0.12143 0.46922 0.0
C819 C 0.12958 0.17075 0.51192 0.0
H820 H 0.19009 0.12271 0.5254 0.0
C821 C 0.13041 0.17076 0.47981 0.0
C822 C 0.15184 0.15242 0.46417 0.0
H823 H 0.11184 0.18376 0.52361 0.0
H824 H 0.11311 0.1835 0.46726 0.0
C825 C 0.17377 0.13579 0.48092 0.0
C826 C 0.86017 0.16903 0.47906 0.0
C827 C 0.84058 0.14921 0.46281 0.0
H828 H 0.87567 0.18427 0.52326 0.0
C829 C 0.82004 0.13033 0.47907 0.0
H830 H 0.87619 0.18377 0.46691 0.0
C831 C 0.82042 0.12993 0.51116 0.0
C832 C 0.84055 0.1492 0.5274 0.0
H833 H 0.8049 0.11471 0.46698 0.0
H834 H 0.80545 0.11413 0.5233 0.0
C835 C 0.85977 0.16941 0.51116 0.0
C836 C 0.81847 0.8561 0.47673 0.0
C837 C 0.83799 0.83727 0.45925 0.0
H838 H 0.80462 0.87025 0.52181 0.0
C839 C 0.85695 0.8159 0.47419 0.0
H840 H 0.80363 0.87271 0.46563 0.0
C841 C 0.85814 0.81508 0.50625 0.0
C842 C 0.83964 0.83491 0.52374 0.0
H843 H 0.87233 0.80127 0.46116 0.0
H844 H 0.87428 0.79973 0.51736 0.0
C845 C 0.81894 0.85458 0.50877 0.0
C846 C 0.13771 0.81736 0.51231 0.0
C847 C 0.15595 0.83891 0.52787 0.0
H848 H 0.1205 0.8022 0.46874 0.0
C849 C 0.17424 0.85946 0.51093 0.0
H850 H 0.12322 0.80148 0.52492 0.0
C851 C 0.17336 0.85925 0.47884 0.0
C852 C 0.1534 0.8392 0.4634 0.0
H853 H 0.18843 0.8763 0.52253 0.0
H854 H 0.18678 0.87603 0.46621 0.0
C855 C 0.13604 0.81786 0.48029 0.0
C856 C 0.47749 0.16403 0.16572 0.0
C857 C 0.46114 0.14458 0.14582 0.0
H858 H 0.52205 0.17956 0.18053 0.0
C859 C 0.47736 0.12489 0.12612 0.0
H860 H 0.46537 0.17943 0.18107 0.0
C861 C 0.50935 0.12431 0.12646 0.0
C862 C 0.52583 0.14405 0.14588 0.0
H863 H 0.46526 0.10953 0.11071 0.0
H864 H 0.52124 0.10874 0.11107 0.0
C865 C 0.50974 0.16416 0.16535 0.0
C866 C 0.81746 0.51033 0.12946 0.0
C867 C 0.83783 0.52608 0.14884 0.0
H868 H 0.80238 0.46642 0.11296 0.0
C869 C 0.85628 0.50947 0.16938 0.0
H870 H 0.80319 0.52277 0.1133 0.0
C871 C 0.85511 0.47743 0.16987 0.0
C872 C 0.83626 0.4616 0.14906 0.0
H873 H 0.87215 0.52127 0.18451 0.0
H874 H 0.87029 0.46502 0.1852 0.0
C875 C 0.81706 0.47825 0.1292 0.0
C876 C 0.51133 0.85863 0.16925 0.0
C877 C 0.52687 0.8395 0.14842 0.0
H878 H 0.46765 0.87565 0.18461 0.0
C879 C 0.50988 0.81995 0.12922 0.0
H880 H 0.52399 0.87407 0.1841 0.0
C881 C 0.47776 0.82016 0.1302 0.0
C882 C 0.46222 0.8407 0.14964 0.0
H883 H 0.52144 0.80504 0.11297 0.0
H884 H 0.46509 0.80556 0.11452 0.0
C885 C 0.47921 0.85961 0.16947 0.0
C886 C 0.16918 0.47962 0.13536 0.0
C887 C 0.14727 0.46385 0.15311 0.0
H888 H 0.18544 0.52342 0.11963 0.0
C889 C 0.12677 0.4806 0.17156 0.0
H890 H 0.18509 0.46718 0.12077 0.0
C891 C 0.12762 0.5127 0.17163 0.0
C892 C 0.14829 0.52844 0.15243 0.0
H893 H 0.10969 0.46887 0.18544 0.0
H894 H 0.11101 0.5252 0.18535 0.0
C895 C 0.16934 0.5117 0.13463 0.0
C896 C 0.48266 0.82155 0.86004 0.0
C897 C 0.46623 0.84087 0.84014 0.0
H898 H 0.52708 0.80679 0.87552 0.0
C899 C 0.48235 0.8595 0.81925 0.0
H900 H 0.47064 0.80704 0.87635 0.0
C901 C 0.51445 0.86009 0.81945 0.0
C902 C 0.53087 0.84123 0.83977 0.0
H903 H 0.47012 0.87478 0.80386 0.0
H904 H 0.52647 0.87563 0.80412 0.0
C905 C 0.5148 0.82133 0.85948 0.0
C906 C 0.13435 0.47868 0.82055 0.0
C907 C 0.15323 0.46246 0.84102 0.0
H908 H 0.11827 0.52291 0.80598 0.0
C909 C 0.17337 0.47868 0.86028 0.0
H910 H 0.11845 0.46659 0.8057 0.0
C911 C 0.17394 0.51077 0.85977 0.0
C912 C 0.15359 0.52701 0.84077 0.0
H913 H 0.18807 0.46655 0.87628 0.0
H914 H 0.18895 0.52287 0.87551 0.0
C915 C 0.13415 0.51077 0.82081 0.0
C916 C 0.47909 0.17571 0.85591 0.0
C917 C 0.46384 0.15514 0.83631 0.0
H918 H 0.52251 0.19071 0.87371 0.0
C919 C 0.48106 0.13677 0.81615 0.0
H920 H 0.46625 0.18995 0.87181 0.0
C921 C 0.51314 0.13781 0.81665 0.0
C922 C 0.52839 0.15653 0.83802 0.0
H923 H 0.46972 0.12077 0.80083 0.0
H924 H 0.52595 0.12244 0.80183 0.0
C925 C 0.51117 0.17605 0.8571 0.0
C926 C 0.82021 0.51245 0.85497 0.0
C927 C 0.8422 0.52875 0.83786 0.0
H928 H 0.803 0.4683 0.86828 0.0
C929 C 0.86294 0.51265 0.81911 0.0
H930 H 0.80405 0.5245 0.86961 0.0
C931 C 0.86297 0.48054 0.81907 0.0
C932 C 0.84161 0.46422 0.83699 0.0
H933 H 0.88025 0.52483 0.80594 0.0
H934 H 0.88014 0.46848 0.80565 0.0
C935 C 0.81958 0.48041 0.85413 0.0
C936 C 0.15194 0.95828 0.33516 0.0
C937 C 0.13453 0.94342 0.35796 0.0
H938 H 0.16697 0.00146 0.31651 0.0
C939 C 0.11881 0.96106 0.37993 0.0
H940 H 0.16441 0.94507 0.31812 0.0
C941 C 0.12128 0.99304 0.37974 0.0
C942 C 0.13867 0.00788 0.35697 0.0
H943 H 0.10559 0.95007 0.39798 0.0
H944 H 0.10943 0.0062 0.39725 0.0
C945 C 0.15349 0.99037 0.3343 0.0
C946 C 0.00197 0.0968 0.37076 0.0
C947 C 0.98305 0.12294 0.36992 0.0
H948 H 0.04766 0.07895 0.36882 0.0
C949 C -0.00351 0.15178 0.36424 0.0
H950 H 0.99234 0.07419 0.37472 0.0
C951 C 0.02836 0.15451 0.36065 0.0
C952 C 0.04739 0.12846 0.36271 0.0
H953 H 0.98249 0.17232 0.36311 0.0
H954 H 0.03811 0.17717 0.35725 0.0
C955 C 0.03374 0.09952 0.36718 0.0
C956 C 0.88447 8e-05 0.3451 0.0
C957 C 0.85969 0.98185 0.35503 0.0
H958 H 0.90204 0.04564 0.33859 0.0
C959 C 0.83221 -0.00385 0.36409 0.0
H960 H 0.90592 0.98963 0.33794 0.0
C961 C 0.82975 0.02815 0.36377 0.0
C962 C 0.85496 0.04646 0.35504 0.0
H963 H 0.81266 0.9826 0.37154 0.0
H964 H 0.80846 0.03855 0.37146 0.0
C965 C 0.88225 0.03211 0.34545 0.0
C966 C 0.96068 0.8725 0.37852 0.0
C967 C 0.94381 0.85622 0.35637 0.0
H968 H 0.00534 0.88347 0.39629 0.0
C969 C 0.95954 0.83936 0.33379 0.0
H970 H 0.94902 0.88535 0.39639 0.0
C971 C 0.99171 0.83898 0.33326 0.0
C972 C 0.0085 0.85446 0.35603 0.0
H973 H 0.94696 0.82649 0.3166 0.0
H974 H 0.00346 0.82593 0.3156 0.0
C975 C 0.99278 0.87119 0.37866 0.0
C976 C 0.16066 0.02824 0.62384 0.0
C977 C 0.13509 0.04628 0.63198 0.0
H978 H 0.17845 0.98285 0.61679 0.0
C979 C 0.1077 0.03163 0.64087 0.0
H980 H 0.18205 0.03888 0.61671 0.0
C981 C 0.10583 -0.00042 0.64134 0.0
C982 C 0.13108 0.98159 0.63224 0.0
H983 H 0.08765 0.04493 0.64729 0.0
H984 H 0.08434 0.9889 0.64809 0.0
C985 C 0.15857 -0.00381 0.62364 0.0
C986 C 0.99055 0.10539 0.64448 0.0
C987 C 0.00874 0.13045 0.63524 0.0
H988 H 0.94504 0.08742 0.65026 0.0
C989 C 0.99434 0.15799 0.62664 0.0
H990 H 0.00106 0.08388 0.65127 0.0
C991 C 0.96227 0.16023 0.62673 0.0
C992 C 0.94404 0.13475 0.63477 0.0
H993 H 0.00785 0.17774 0.61971 0.0
H994 H 0.95178 0.18158 0.61942 0.0
C995 C 0.9585 0.10741 0.64392 0.0
C996 C 0.83739 0.96076 0.62572 0.0
C997 C 0.86337 0.94182 0.62227 0.0
H998 H 0.8195 0.00658 0.62499 0.0
C999 C 0.89212 0.95553 0.61668 0.0
H1000 H 0.81489 0.95095 0.63003 0.0
C1001 C 0.8947 0.98733 0.61361 0.0
C1002 C 0.86861 0.00619 0.61609 0.0
H1003 H 0.91263 0.94167 0.61395 0.0
H1004 H 0.91715 -0.00294 0.60888 0.0
C1005 C 0.83999 0.99263 0.62264 0.0
C1006 C 0.0321 0.82754 0.6207 0.0
C1007 C 0.0495 0.85308 0.63017 0.0
H1008 H 0.98715 0.80939 0.61164 0.0
C1009 C 0.0342 0.8799 0.63949 0.0
H1010 H 0.0433 0.80662 0.61319 0.0
C1011 C 0.00211 0.88126 0.63907 0.0
C1012 C 0.98478 0.85611 0.62858 0.0
H1013 H 0.04703 0.89991 0.64689 0.0
H1014 H 0.99089 0.90231 0.64618 0.0
C1015 C 2e-05 0.82918 0.61955 0.0
C1016 C 0.36902 0.10066 0.95673 0.0
C1017 C 0.36411 0.1297 0.94345 0.0
H1018 H 0.3755 0.0748 -0.00206 0.0
C1019 C 0.3605 0.15531 0.96281 0.0
H1020 H 0.37185 0.08042 0.94254 0.0
C1021 C 0.36274 0.15208 0.99469 0.0
C1022 C 0.3686 0.12316 0.00785 0.0
H1023 H 0.35668 0.17801 0.95334 0.0
H1024 H 0.36031 0.17231 0.00897 0.0
C1025 C 0.37125 0.09744 0.98855 0.0
C1026 C 0.83085 0.36628 0.99251 0.0
C1027 C 0.85796 0.3566 0.00703 0.0
H1028 H 0.80795 0.37494 0.94988 0.0
C1029 C 0.88308 0.34726 0.98896 0.0
H1030 H 0.81107 0.37337 0.00591 0.0
C1031 C 0.8815 0.3486 0.95692 0.0
C1032 C 0.85451 0.35863 0.94236 0.0
H1033 H 0.90428 0.33969 -0.00043 0.0
H1034 H 0.90147 0.34198 0.94358 0.0
C1035 C 0.82902 0.36696 0.96046 0.0
C1036 C 0.64772 0.88158 0.95701 0.0
C1037 C 0.63767 0.85487 0.94199 0.0
H1038 H 0.65507 0.90416 9e-05 0.0
C1039 C 0.62782 0.82962 0.95965 0.0
H1040 H 0.65538 0.90138 0.94397 0.0
C1041 C 0.62688 0.8315 0.99168 0.0
C1042 C 0.63649 0.85838 0.00663 0.0
H1043 H 0.61972 0.80879 0.9487 0.0
H1044 H 0.61857 0.81198 0.00472 0.0
C1045 C 0.64751 0.88317 0.98908 0.0
C1046 C 0.10524 0.64261 0.99083 0.0
C1047 C 0.12996 0.63318 0.00933 0.0
H1048 H 0.08809 0.64875 0.94514 0.0
C1049 C 0.1577 0.62448 -0.00471 0.0
H1050 H 0.08359 0.64949 0.00104 0.0
C1051 C 0.16049 0.62468 0.96328 0.0
C1052 C 0.13537 0.63299 0.94473 0.0
H1053 H 0.17722 0.6174 0.00902 0.0
H1054 H 0.18199 0.61731 0.95307 0.0
C1055 C 0.10781 0.6422 0.95883 0.0
C1056 C 0.36499 0.8329 0.02739 0.0
C1057 C 0.35772 0.85862 0.04556 0.0
H1058 H 0.37196 0.81522 0.98194 0.0
C1059 C 0.35013 0.88641 0.03105 0.0
H1060 H 0.37111 0.8112 0.03793 0.0
C1061 C 0.35022 0.88854 -0.00098 0.0
C1062 C 0.35857 0.86314 0.98092 0.0
H1063 H 0.34442 0.9066 0.04445 0.0
H1064 H 0.34454 0.91035 0.98846 0.0
C1065 C 0.36574 0.83523 -0.00463 0.0
C1066 C 0.15601 0.36723 -0.00163 0.0
C1067 C 0.12875 0.35789 0.98389 0.0
H1068 H 0.17925 0.37504 0.04096 0.0
C1069 C 0.10374 0.34821 0.00194 0.0
H1070 H 0.17572 0.37453 0.98495 0.0
C1071 C 0.10556 0.34894 0.03397 0.0
C1072 C 0.13269 0.35865 0.04849 0.0
H1073 H 0.08245 0.34088 0.99132 0.0
H1074 H 0.08567 0.34213 0.04735 0.0
C1075 C 0.15809 0.36727 0.03039 0.0
C1076 C 0.62299 0.16317 0.02978 0.0
C1077 C 0.63478 0.1385 0.04698 0.0
H1078 H 0.61279 0.18095 0.98498 0.0
C1079 C 0.64753 0.11324 0.03146 0.0
H1080 H 0.61285 0.18288 0.04111 0.0
C1081 C 0.64787 0.11237 -0.00062 0.0
C1082 C 0.63484 0.13641 0.98223 0.0
H1083 H 0.6568 0.09393 0.04412 0.0
H1084 H 0.65743 0.09238 0.98804 0.0
C1085 C 0.6227 0.16198 -0.00231 0.0
C1086 C 0.88678 0.64309 -0.00038 0.0
C1087 C 0.86194 0.63374 0.98126 0.0
H1088 H 0.90416 0.64892 0.0453 0.0
C1089 C 0.83422 0.62509 -0.00464 0.0
H1090 H 0.90842 0.64991 0.98928 0.0
C1091 C 0.83155 0.62525 0.02734 0.0
C1092 C 0.8568 0.63336 0.04578 0.0
H1093 H 0.81464 0.61808 0.98168 0.0
H1094 H 0.81006 0.6179 0.03761 0.0
C1095 C 0.88436 0.64254 0.03163 0.0
C1096 C 0.9587 0.36469 0.15994 0.0
C1097 C 0.94087 0.35687 0.13415 0.0
H1098 H 0.00397 0.37173 0.17811 0.0
C1099 C 0.95578 0.34842 0.1068 0.0
H1100 H 0.94786 0.37149 0.18131 0.0
C1101 C 0.98787 0.34815 0.10515 0.0
C1102 C 0.00564 0.35701 0.1306 0.0
H1103 H 0.94264 0.34227 0.08658 0.0
H1104 H -0.00126 0.34179 0.08367 0.0
C1105 C 0.99079 0.36509 0.15808 0.0
C1106 C 0.96228 0.65702 0.8408 0.0
C1107 C 0.94685 0.63354 0.85673 0.0
H1108 H 0.00599 0.67669 0.82873 0.0
C1109 C 0.96396 0.61129 0.8726 0.0
H1110 H 0.94947 0.6743 0.82828 0.0
C1111 C -0.00395 0.61195 0.8718 0.0
C1112 C 0.01145 0.63549 0.85605 0.0
H1113 H 0.95252 0.59277 0.88473 0.0
H1114 H 0.00885 0.59425 0.88372 0.0
C1115 C 0.99442 0.65834 0.84099 0.0
C1116 C 0.34971 0.99195 0.8812 0.0
C1117 C 0.36021 0.00968 0.85632 0.0
H1118 H 0.34293 0.94677 0.89955 0.0
C1119 C 0.37034 0.99489 0.82953 0.0
H1120 H 0.34178 0.00283 0.90215 0.0
C1121 C 0.37032 0.96285 0.82779 0.0
C1122 C 0.36086 0.94506 0.85309 0.0
H1123 H 0.3783 0.00807 0.80995 0.0
H1124 H 0.37869 0.95201 0.807 0.0
C1125 C 0.35038 0.95991 0.87974 0.0
C1126 C -0.00343 0.36544 0.8324 0.0
C1127 C 0.98177 0.35721 0.85988 0.0
H1128 H 0.03949 0.37248 0.80928 0.0
C1129 C -0.00042 0.34873 0.88542 0.0
H1130 H 0.98334 0.37182 0.81231 0.0
C1131 C 0.03165 0.34955 0.88387 0.0
C1132 C 0.0465 0.35819 0.85653 0.0
H1133 H 0.98875 0.34227 0.9069 0.0
H1134 H 0.04481 0.34367 0.90414 0.0
C1135 C 0.02866 0.3656 0.83064 0.0
C1136 C 0.62082 0.03475 0.89015 0.0
C1137 C 0.62667 0.04851 0.8615 0.0
H1138 H 0.61273 0.99318 0.91501 0.0
C1139 C 0.63026 0.02957 0.83555 0.0
H1140 H 0.61794 0.04859 0.91063 0.0
C1141 C 0.62711 -0.00231 0.83806 0.0
C1142 C 0.62031 0.98408 0.86657 0.0
H1143 H 0.63478 0.0394 0.81312 0.0
H1144 H 0.62959 0.98377 0.81758 0.0
C1145 C 0.61766 0.00293 0.89264 0.0
C1146 C 0.02993 0.65611 0.15266 0.0
C1147 C 0.04543 0.63407 0.13489 0.0
H1148 H 0.98618 0.67429 0.16664 0.0
C1149 C 0.02836 0.613 0.11743 0.0
H1150 H 0.04269 0.67247 0.16642 0.0
C1151 C -0.00372 0.61329 0.11852 0.0
C1152 C 0.98081 0.63531 0.13623 0.0
H1153 H 0.03983 0.59556 0.10385 0.0
H1154 H 0.98354 0.59642 0.10536 0.0
C1155 C -0.00222 0.65711 0.15284 0.0
C1156 C 0.33832 0.03293 0.11224 0.0
C1157 C 0.35112 0.04772 0.13789 0.0
H1158 H 0.32907 0.99015 0.08981 0.0
C1159 C 0.36365 0.02981 0.16168 0.0
H1160 H 0.32855 0.04614 0.09355 0.0
C1161 C 0.36464 -0.0022 0.15918 0.0
C1162 C 0.3525 0.98311 0.13318 0.0
H1163 H 0.37388 0.04055 0.18165 0.0
H1164 H 0.37511 0.98458 0.17748 0.0
C1165 C 0.33868 0.00091 0.11008 0.0
C1166 C 0.64328 0.98887 0.10122 0.0
C1167 C 0.63499 0.00727 0.12641 0.0
H1168 H 0.64795 0.94321 0.08346 0.0
C1169 C 0.62682 0.99317 0.15426 0.0
H1170 H 0.6497 -0.00082 0.07948 0.0
C1171 C 0.62648 0.96118 0.15673 0.0
C1172 C 0.63364 0.94272 0.13119 0.0
H1173 H 0.6206 0.00685 0.1741 0.0
H1174 H 0.6196 0.95092 0.17836 0.0
C1175 C 0.64227 0.95687 0.10348 0.0
C1176 C 0.11853 0.29962 0.29168 0.0
C1177 C 0.13248 0.27062 0.29308 0.0
H1178 H 0.10714 0.3383 0.26318 0.0
C1179 C 0.1464 0.25839 0.26666 0.0
H1180 H 0.10801 0.30956 0.31194 0.0
C1181 C 0.14606 0.27471 0.2391 0.0
C1182 C 0.13168 0.30345 0.23749 0.0
H1183 H 0.15786 0.23633 0.2674 0.0
H1184 H 0.1571 0.26494 0.21902 0.0
C1185 C 0.11789 0.31586 0.26391 0.0
C1186 C 0.67105 0.14947 0.26493 0.0
C1187 C 0.68019 0.13067 0.24036 0.0
H1188 H 0.68076 0.16518 0.31046 0.0
C1189 C 0.70434 0.10983 0.24479 0.0
H1190 H 0.65158 0.1648 0.2626 0.0
C1191 C 0.72007 0.1089 0.27271 0.0
C1192 C 0.71293 0.12977 0.29634 0.0
H1193 H 0.71144 0.09458 0.22644 0.0
H1194 H 0.73798 0.09197 0.27541 0.0
C1195 C 0.68748 0.14932 0.29251 0.0
C1196 C 0.88234 0.71659 0.27267 0.0
C1197 C 0.85903 0.7122 0.29467 0.0
H1198 H 0.89916 0.70541 0.22778 0.0
C1199 C 0.83709 0.689 0.28972 0.0
H1200 H 0.90074 0.73284 0.27647 0.0
C1201 C 0.83708 0.67228 0.26233 0.0
C1202 C 0.85858 0.67889 0.23918 0.0
H1203 H 0.81924 0.68447 0.30651 0.0
H1204 H 0.81978 0.65468 0.25898 0.0
C1205 C 0.88182 0.70045 0.24498 0.0
C1206 C 0.31507 0.83858 0.26144 0.0
C1207 C 0.3072 0.85952 0.23822 0.0
H1208 H 0.30446 0.82078 0.30603 0.0
C1209 C 0.28458 0.88167 0.24412 0.0
H1210 H 0.33335 0.82205 0.25791 0.0
C1211 C 0.26892 0.88182 0.27215 0.0
C1212 C 0.27479 0.8591 0.29437 0.0
H1213 H 0.27858 0.89853 0.22682 0.0
H1214 H 0.25201 0.89955 0.27607 0.0
C1215 C 0.29882 0.83816 0.28914 0.0
C1216 C 0.12711 0.68566 0.69784 0.0
C1217 C 0.13927 0.71551 0.69685 0.0
H1218 H 0.11668 0.64648 0.72612 0.0
C1219 C 0.15125 0.7286 0.72377 0.0
H1220 H 0.1182 0.675 0.67721 0.0
C1221 C 0.15039 0.71248 0.75143 0.0
C1222 C 0.13743 0.68305 0.75269 0.0
H1223 H 0.16149 0.75129 0.72338 0.0
H1224 H 0.15981 0.72303 0.77191 0.0
C1225 C 0.12603 0.66955 0.7257 0.0
C1226 C 0.29966 0.15404 0.70078 0.0
C1227 C 0.27601 0.1326 0.6958 0.0
H1228 H 0.33366 0.17128 0.73197 0.0
C1229 C 0.26979 0.11063 0.71867 0.0
H1230 H 0.30544 0.17093 0.68342 0.0
C1231 C 0.28504 0.11167 0.74683 0.0
C1232 C 0.30755 0.13405 0.75232 0.0
H1233 H 0.25305 0.09266 0.71506 0.0
H1234 H 0.27905 0.09512 0.76445 0.0
C1235 C 0.31547 0.15458 0.72871 0.0
C1236 C 0.83943 0.27664 0.75031 0.0
C1237 C 0.85462 0.30493 0.75252 0.0
H1238 H 0.82712 0.23889 0.72139 0.0
C1239 C 0.86905 0.31737 0.72642 0.0
H1240 H 0.82792 0.26683 0.77012 0.0
C1241 C 0.8684 0.30151 0.69844 0.0
C1242 C 0.85373 0.27288 0.69649 0.0
H1243 H 0.88044 0.33948 0.7276 0.0
H1244 H 0.87961 0.31136 0.67849 0.0
C1245 C 0.83903 0.26071 0.72254 0.0
C1246 C 0.67742 0.83978 0.72511 0.0
C1247 C 0.68605 0.8593 0.74925 0.0
H1248 H 0.68733 0.82363 0.6798 0.0
C1249 C 0.70964 0.88073 0.74435 0.0
H1250 H 0.65841 0.82391 0.72785 0.0
C1251 C 0.72535 0.88158 0.71632 0.0
C1252 C 0.7186 0.8602 0.69304 0.0
H1253 H 0.71628 0.89653 0.76238 0.0
H1254 H 0.74285 0.89889 0.71323 0.0
C1255 C 0.69372 0.83997 0.69743 0.0
C1256 C 0.24861 0.10814 0.29017 0.0
C1257 C 0.24121 0.13164 0.31092 0.0
H1258 H 0.28175 0.08995 0.25884 0.0
C1259 C 0.26321 0.1544 0.31728 0.0
H1260 H 0.23231 0.08995 0.28535 0.0
C1261 C 0.29112 0.15504 0.30132 0.0
C1262 C 0.29771 0.13267 0.27901 0.0
H1263 H 0.25856 0.1721 0.33414 0.0
H1264 H 0.30704 0.17368 0.30568 0.0
C1265 C 0.27675 0.10845 0.27463 0.0
C1266 C 0.87882 0.27266 0.26951 0.0
C1267 C 0.85701 0.29562 0.276 0.0
H1268 H 0.89427 0.22685 0.27869 0.0
C1269 C 0.8367 0.29117 0.30077 0.0
H1270 H 0.89623 0.27591 0.25212 0.0
C1271 C 0.83678 0.26356 0.31718 0.0
C1272 C 0.85664 0.23961 0.30867 0.0
H1273 H 0.82008 0.30863 0.30696 0.0
H1274 H 0.82087 0.26072 0.33614 0.0
C1275 C 0.87819 0.2447 0.28523 0.0
C1276 C 0.69984 0.83843 0.29716 0.0
C1277 C 0.69449 0.85968 0.27344 0.0
H1278 H 0.73139 0.82162 0.33097 0.0
C1279 C 0.71692 0.8822 0.2674 0.0
H1280 H 0.68283 0.82116 0.3029 0.0
C1281 C 0.74518 0.88162 0.2826 0.0
C1282 C 0.75116 0.85918 0.30491 0.0
H1283 H 0.71297 0.90011 0.25068 0.0
H1284 H 0.76259 0.89836 0.27649 0.0
C1285 C 0.7278 0.83838 0.31293 0.0
C1286 C 0.10566 0.71643 0.27327 0.0
C1287 C 0.12827 0.69402 0.27878 0.0
H1288 H 0.08925 0.7617 0.28359 0.0
C1289 C 0.1495 0.69883 0.30259 0.0
H1290 H 0.08791 0.7128 0.2563 0.0
C1291 C 0.14956 0.72647 0.31891 0.0
C1292 C 0.12869 0.74989 0.31142 0.0
H1293 H 0.16681 0.68175 0.30785 0.0
H1294 H 0.16647 0.72985 0.33685 0.0
C1295 C 0.10607 0.74425 0.28923 0.0
C1296 C 0.2938 0.83935 0.68951 0.0
C1297 C 0.29881 0.86011 0.7137 0.0
H1298 H 0.26233 0.82263 0.65556 0.0
C1299 C 0.27586 0.88182 0.72058 0.0
H1300 H 0.31121 0.82272 0.6832 0.0
C1301 C 0.24751 0.88094 0.70559 0.0
C1302 C 0.24192 0.85903 0.6827 0.0
H1303 H 0.2795 0.89936 0.73773 0.0
H1304 H 0.22975 0.89706 0.71228 0.0
C1305 C 0.26569 0.839 0.67398 0.0
C1306 C 0.12272 0.29035 0.69055 0.0
C1307 C 0.13651 0.2923 0.71958 0.0
H1308 H 0.11131 0.26108 0.65248 0.0
C1309 C 0.15023 0.26608 0.73242 0.0
H1310 H 0.11231 0.31043 0.68017 0.0
C1311 C 0.14976 0.23818 0.71673 0.0
C1312 C 0.13545 0.23601 0.68801 0.0
H1313 H 0.16149 0.26721 0.75455 0.0
H1314 H 0.16056 0.21826 0.72702 0.0
C1315 C 0.12197 0.26225 0.67492 0.0
C1316 C 0.71887 0.10731 0.72202 0.0
C1317 C 0.69573 0.12896 0.71565 0.0
H1318 H 0.76478 0.09207 0.71249 0.0
C1319 C 0.7001 0.14943 0.69102 0.0
H1320 H 0.71573 0.0899 0.73942 0.0
C1321 C 0.72772 0.14961 0.6746 0.0
C1322 C 0.75175 0.12977 0.68284 0.0
H1323 H 0.68257 0.16602 0.68497 0.0
H1324 H 0.73054 0.16577 0.65587 0.0
C1325 C 0.74681 0.10808 0.70615 0.0
C1326 C 0.84101 0.69971 0.68958 0.0
C1327 C 0.86257 0.69498 0.71313 0.0
H1328 H 0.82385 0.73034 0.65509 0.0
C1329 C 0.88508 0.71757 0.71838 0.0
H1330 H 0.82375 0.68251 0.68444 0.0
C1331 C 0.88421 0.74544 0.70254 0.0
C1332 C 0.86154 0.75081 0.68033 0.0
H1333 H 0.90322 0.71405 0.73493 0.0
H1334 H 0.90103 0.76299 0.70796 0.0
C1335 C 0.84072 0.72726 0.67311 0.0
C1336 C 0.2826 0.24543 0.11349 0.0
C1337 C 0.30672 0.24103 0.13434 0.0
H1338 H 0.24888 0.27599 0.09567 0.0
C1339 C 0.3156 0.26549 0.1534 0.0
H1340 H 0.27565 0.22713 0.09813 0.0
C1341 C 0.29915 0.29308 0.15317 0.0
C1342 C 0.27389 0.29694 0.13343 0.0
H1343 H 0.33495 0.2631 0.16885 0.0
H1344 H 0.30574 0.31105 0.16906 0.0
C1345 C 0.26677 0.27329 0.11261 0.0
C1346 C 0.3023 0.7019 0.86984 0.0
C1347 C 0.27399 0.69951 0.8546 0.0
H1348 H 0.34014 0.73127 0.88186 0.0
C1349 C 0.26236 0.72515 0.83883 0.0
H1350 H 0.31183 0.68233 0.8819 0.0
C1351 C 0.2784 0.7529 0.83883 0.0
C1352 C 0.30632 0.75552 0.85462 0.0
H1353 H 0.24111 0.72366 0.82602 0.0
H1354 H 0.26899 0.77236 0.82649 0.0
C1355 C 0.31829 0.72983 0.87003 0.0
C1356 C 0.2902 0.29968 0.84267 0.0
C1357 C 0.29496 0.27534 0.86335 0.0
H1358 H 0.25919 0.33408 0.82606 0.0
C1359 C 0.27192 0.26871 0.88511 0.0
H1360 H 0.30764 0.3059 0.82599 0.0
C1361 C 0.24372 0.28404 0.88426 0.0
C1362 C 0.23841 0.30704 0.86235 0.0
H1363 H 0.27535 0.2515 0.90265 0.0
H1364 H 0.22586 0.27754 0.90038 0.0
C1365 C 0.26231 0.31555 0.84238 0.0
C1366 C 0.67534 0.26375 0.83636 0.0
C1367 C 0.6836 0.2406 0.85725 0.0
H1368 H 0.68488 0.30888 0.81916 0.0
C1369 C 0.70597 0.24684 0.87952 0.0
H1370 H 0.65722 0.25993 0.81976 0.0
C1371 C 0.72086 0.27523 0.88003 0.0
C1372 C 0.71443 0.29756 0.85761 0.0
H1373 H 0.71222 0.22959 0.89635 0.0
H1374 H 0.73758 0.27941 0.89787 0.0
C1375 C 0.69081 0.29192 0.83636 0.0
C1376 C 0.71985 0.72045 0.88016 0.0
C1377 C 0.69745 0.71434 0.85769 0.0
H1378 H 0.76542 0.71126 0.89643 0.0
C1379 C 0.70265 0.69027 0.8368 0.0
H1380 H 0.71598 0.73738 0.89788 0.0
C1381 C 0.73048 0.67424 0.83701 0.0
C1382 C 0.75387 0.6824 0.85765 0.0
H1383 H 0.68563 0.68444 0.81962 0.0
H1384 H 0.73397 0.65591 0.82055 0.0
C1385 C 0.748 0.70505 0.87977 0.0
C1386 C 0.70506 0.74499 0.10841 0.0
C1387 C 0.68211 0.75034 0.13041 0.0
H1388 H 0.7377 0.71349 0.09 0.0
C1389 C 0.67396 0.72663 0.15071 0.0
H1390 H 0.71128 0.76266 0.092 0.0
C1391 C 0.6902 0.69894 0.15066 0.0
C1392 C 0.71448 0.69419 0.12982 0.0
H1393 H 0.65538 0.72968 0.16703 0.0
H1394 H 0.68428 0.68164 0.16756 0.0
C1395 C 0.72066 0.71697 0.10772 0.0
C1396 C 0.23749 0.71635 0.14833 0.0
C1397 C 0.23552 0.68702 0.13527 0.0
H1398 H 0.26625 0.75491 0.15835 0.0
C1399 C 0.26189 0.67361 0.12228 0.0
H1400 H 0.21747 0.72693 0.15872 0.0
C1401 C 0.2899 0.68951 0.12225 0.0
C1402 C 0.29164 0.71917 0.13471 0.0
H1403 H 0.26088 0.65073 0.11255 0.0
H1404 H 0.31006 0.67884 0.11225 0.0
C1405 C 0.2653 0.73232 0.14799 0.0
C1406 C 0.71301 0.26984 0.11013 0.0
C1407 C 0.69056 0.27623 0.13254 0.0
H1408 H 0.75871 0.27859 0.09386 0.0
C1409 C 0.69573 0.3006 0.15306 0.0
H1410 H 0.70916 0.25275 0.09258 0.0
C1411 C 0.72362 0.31661 0.15262 0.0
C1412 C 0.74712 0.30806 0.13217 0.0
H1413 H 0.67866 0.3067 0.17015 0.0
H1414 H 0.72706 0.33521 0.16878 0.0
C1415 C 0.74124 0.28513 0.11037 0.0
loop_
_geom_bond_atom_site_label_1
_geom_bond_atom_site_label_2
_geom_bond_distance
_geom_bond_site_symmetry_2
_ccdc_geom_bond_type
Co0 O3 1.970 . S
Co0 N17 1.989 . S
Co0 O25 1.967 . S
Co0 O32 1.920 . S
Co1 O4 1.966 . S
Co1 N10 2.022 . S
Co1 N18 1.993 . S
Co1 O26 1.941 . S
C2 O3 1.258 . S
C2 O4 1.263 . S
O3 Co0 1.970 . S
O3 C2 1.258 . S
O4 Co1 1.966 . S
O4 C2 1.263 . S
C5 O6 1.235 . S
C5 O32 1.289 . S
O6 C5 1.235 . S
C7 C9 1.400 . S
C7 N10 1.351 . S
C7 C12 1.501 . S
C8 C9 1.387 . S
C8 N11 1.341 . S
C9 C7 1.400 . S
C9 C8 1.387 . S
N10 Co1 2.022 . S
N10 C7 1.351 . S
N10 N11 1.365 . S
N11 C8 1.341 . S
N11 N10 1.365 . S
N11 H31 0.862 . S
C12 C7 1.501 . S
C12 H13 0.961 . S
C12 H14 0.961 . S
C12 H15 0.960 . S
H13 C12 0.961 . S
H14 C12 0.961 . S
H15 C12 0.960 . S
C16 N17 1.342 . S
C16 C20 1.401 . S
C16 C21 1.499 . S
N17 Co0 1.989 . S
N17 C16 1.342 . S
N17 N18 1.388 . S
N18 Co1 1.993 . S
N18 N17 1.388 . S
N18 C19 1.346 . S
C19 N18 1.346 . S
C19 C20 1.396 . S
C19 C29 1.510 . S
C20 C16 1.401 . S
C20 C19 1.396 . S
C21 C16 1.499 . S
C21 H22 0.959 . S
C21 H23 0.960 . S
C21 H24 0.961 . S
H22 C21 0.959 . S
H23 C21 0.960 . S
H24 C21 0.961 . S
O25 Co0 1.967 . S
O25 C33 1.258 . S
O26 Co1 1.941 . S
O26 C33 1.266 . S
H27 C29 0.959 . S
H28 C29 0.961 . S
C29 C19 1.510 . S
C29 H27 0.959 . S
C29 H28 0.961 . S
C29 H30 0.960 . S
H30 C29 0.960 . S
H31 N11 0.862 . S
O32 Co0 1.920 . S
O32 C5 1.289 . S
C33 O25 1.258 . S
C33 O26 1.266 . S
Co34 O37 1.970 . S
Co34 N51 1.989 . S
Co34 O59 1.967 . S
Co34 O66 1.920 . S
Co35 O38 1.966 . S
Co35 N44 2.022 . S
Co35 N52 1.993 . S
Co35 O60 1.941 . S
C36 O37 1.258 . S
C36 O38 1.263 . S
O37 Co34 1.970 . S
O37 C36 1.258 . S
O38 Co35 1.966 . S
O38 C36 1.263 . S
C39 O40 1.235 . S
C39 O66 1.289 . S
O40 C39 1.235 . S
C41 C43 1.400 . S
C41 N44 1.351 . S
C41 C46 1.501 . S
C42 C43 1.387 . S
C42 N45 1.341 . S
C43 C41 1.400 . S
C43 C42 1.387 . S
N44 Co35 2.022 . S
N44 C41 1.351 . S
N44 N45 1.365 . S
N45 C42 1.341 . S
N45 N44 1.365 . S
N45 H65 0.862 . S
C46 C41 1.501 . S
C46 H47 0.961 . S
C46 H48 0.961 . S
C46 H49 0.960 . S
H47 C46 0.961 . S
H48 C46 0.961 . S
H49 C46 0.960 . S
C50 N51 1.342 . S
C50 C54 1.401 . S
C50 C55 1.499 . S
N51 Co34 1.989 . S
N51 C50 1.342 . S
N51 N52 1.388 . S
N52 Co35 1.993 . S
N52 N51 1.388 . S
N52 C53 1.346 . S
C53 N52 1.346 . S
C53 C54 1.396 . S
C53 C63 1.510 . S
C54 C50 1.401 . S
C54 C53 1.396 . S
C55 C50 1.499 . S
C55 H56 0.959 . S
C55 H57 0.960 . S
C55 H58 0.961 . S
H56 C55 0.959 . S
H57 C55 0.960 . S
H58 C55 0.961 . S
O59 Co34 1.967 . S
O59 C67 1.258 . S
O60 Co35 1.941 . S
O60 C67 1.266 . S
H61 C63 0.959 . S
H62 C63 0.961 . S
C63 C53 1.510 . S
C63 H61 0.959 . S
C63 H62 0.961 . S
C63 H64 0.960 . S
H64 C63 0.960 . S
H65 N45 0.862 . S
O66 Co34 1.920 . S
O66 C39 1.289 . S
C67 O59 1.258 . S
C67 O60 1.266 . S
Co68 O71 1.970 . S
Co68 N85 1.989 . S
Co68 O93 1.967 . S
Co68 O100 1.920 . S
Co69 O72 1.966 . S
Co69 N78 2.022 . S
Co69 N86 1.993 . S
Co69 O94 1.941 . S
C70 O71 1.258 . S
C70 O72 1.263 . S
O71 Co68 1.970 . S
O71 C70 1.258 . S
O72 Co69 1.966 . S
O72 C70 1.263 . S
C73 O74 1.235 . S
C73 O100 1.289 . S
O74 C73 1.235 . S
C75 C77 1.400 . S
C75 N78 1.351 . S
C75 C80 1.501 . S
C76 C77 1.387 . S
C76 N79 1.341 . S
C77 C75 1.400 . S
C77 C76 1.387 . S
N78 Co69 2.022 . S
N78 C75 1.351 . S
N78 N79 1.365 . S
N79 C76 1.341 . S
N79 N78 1.365 . S
N79 H99 0.862 . S
C80 C75 1.501 . S
C80 H81 0.961 . S
C80 H82 0.961 . S
C80 H83 0.960 . S
H81 C80 0.961 . S
H82 C80 0.961 . S
H83 C80 0.960 . S
C84 N85 1.342 . S
C84 C88 1.401 . S
C84 C89 1.499 . S
N85 Co68 1.989 . S
N85 C84 1.342 . S
N85 N86 1.388 . S
N86 Co69 1.993 . S
N86 N85 1.388 . S
N86 C87 1.346 . S
C87 N86 1.346 . S
C87 C88 1.396 . S
C87 C97 1.510 . S
C88 C84 1.401 . S
C88 C87 1.396 . S
C89 C84 1.499 . S
C89 H90 0.959 . S
C89 H91 0.960 . S
C89 H92 0.961 . S
H90 C89 0.959 . S
H91 C89 0.960 . S
H92 C89 0.961 . S
O93 Co68 1.967 . S
O93 C101 1.258 . S
O94 Co69 1.941 . S
O94 C101 1.266 . S
H95 C97 0.959 . S
H96 C97 0.961 . S
C97 C87 1.510 . S
C97 H95 0.959 . S
C97 H96 0.961 . S
C97 H98 0.960 . S
H98 C97 0.960 . S
H99 N79 0.862 . S
O100 Co68 1.920 . S
O100 C73 1.289 . S
C101 O93 1.258 . S
C101 O94 1.266 . S
Co102 O105 1.970 . S
Co102 N119 1.989 . S
Co102 O127 1.967 . S
Co102 O134 1.920 . S
Co103 O106 1.966 . S
Co103 N112 2.022 . S
Co103 N120 1.993 . S
Co103 O128 1.941 . S
C104 O105 1.258 . S
C104 O106 1.263 . S
O105 Co102 1.970 . S
O105 C104 1.258 . S
O106 Co103 1.966 . S
O106 C104 1.263 . S
C107 O108 1.235 . S
C107 O134 1.289 . S
O108 C107 1.235 . S
C109 C111 1.400 . S
C109 N112 1.351 . S
C109 C114 1.501 . S
C110 C111 1.387 . S
C110 N113 1.341 . S
C111 C109 1.400 . S
C111 C110 1.387 . S
N112 Co103 2.022 . S
N112 C109 1.351 . S
N112 N113 1.365 . S
N113 C110 1.341 . S
N113 N112 1.365 . S
N113 H133 0.862 . S
C114 C109 1.501 . S
C114 H115 0.961 . S
C114 H116 0.961 . S
C114 H117 0.960 . S
H115 C114 0.961 . S
H116 C114 0.961 . S
H117 C114 0.960 . S
C118 N119 1.342 . S
C118 C122 1.401 . S
C118 C123 1.499 . S
N119 Co102 1.989 . S
N119 C118 1.342 . S
N119 N120 1.388 . S
N120 Co103 1.993 . S
N120 N119 1.388 . S
N120 C121 1.346 . S
C121 N120 1.346 . S
C121 C122 1.396 . S
C121 C131 1.510 . S
C122 C118 1.401 . S
C122 C121 1.396 . S
C123 C118 1.499 . S
C123 H124 0.959 . S
C123 H125 0.960 . S
C123 H126 0.961 . S
H124 C123 0.959 . S
H125 C123 0.960 . S
H126 C123 0.961 . S
O127 Co102 1.967 . S
O127 C135 1.258 . S
O128 Co103 1.941 . S
O128 C135 1.266 . S
H129 C131 0.959 . S
H130 C131 0.961 . S
C131 C121 1.510 . S
C131 H129 0.959 . S
C131 H130 0.961 . S
C131 H132 0.960 . S
H132 C131 0.960 . S
H133 N113 0.862 . S
O134 Co102 1.920 . S
O134 C107 1.289 . S
C135 O127 1.258 . S
C135 O128 1.266 . S
Co136 O139 1.970 . S
Co136 N153 1.989 . S
Co136 O161 1.967 . S
Co136 O168 1.920 . S
Co137 O140 1.966 . S
Co137 N146 2.022 . S
Co137 N154 1.993 . S
Co137 O162 1.941 . S
C138 O139 1.258 . S
C138 O140 1.263 . S
O139 Co136 1.970 . S
O139 C138 1.258 . S
O140 Co137 1.966 . S
O140 C138 1.263 . S
C141 O142 1.235 . S
C141 O168 1.289 . S
O142 C141 1.235 . S
C143 C145 1.400 . S
C143 N146 1.351 . S
C143 C148 1.501 . S
C144 C145 1.387 . S
C144 N147 1.341 . S
C145 C143 1.400 . S
C145 C144 1.387 . S
N146 Co137 2.022 . S
N146 C143 1.351 . S
N146 N147 1.365 . S
N147 C144 1.341 . S
N147 N146 1.365 . S
N147 H167 0.862 . S
C148 C143 1.501 . S
C148 H149 0.961 . S
C148 H150 0.961 . S
C148 H151 0.960 . S
H149 C148 0.961 . S
H150 C148 0.961 . S
H151 C148 0.960 . S
C152 N153 1.342 . S
C152 C156 1.401 . S
C152 C157 1.499 . S
N153 Co136 1.989 . S
N153 C152 1.342 . S
N153 N154 1.388 . S
N154 Co137 1.993 . S
N154 N153 1.388 . S
N154 C155 1.346 . S
C155 N154 1.346 . S
C155 C156 1.396 . S
C155 C165 1.510 . S
C156 C152 1.401 . S
C156 C155 1.396 . S
C157 C152 1.499 . S
C157 H158 0.959 . S
C157 H159 0.960 . S
C157 H160 0.961 . S
H158 C157 0.959 . S
H159 C157 0.960 . S
H160 C157 0.961 . S
O161 Co136 1.967 . S
O161 C169 1.258 . S
O162 Co137 1.941 . S
O162 C169 1.266 . S
H163 C165 0.959 . S
H164 C165 0.961 . S
C165 C155 1.510 . S
C165 H163 0.959 . S
C165 H164 0.961 . S
C165 H166 0.960 . S
H166 C165 0.960 . S
H167 N147 0.862 . S
O168 Co136 1.920 . S
O168 C141 1.289 . S
C169 O161 1.258 . S
C169 O162 1.266 . S
Co170 O173 1.970 . S
Co170 N187 1.989 . S
Co170 O195 1.967 . S
Co170 O202 1.920 . S
Co171 O174 1.966 . S
Co171 N180 2.022 . S
Co171 N188 1.993 . S
Co171 O196 1.941 . S
C172 O173 1.258 . S
C172 O174 1.263 . S
O173 Co170 1.970 . S
O173 C172 1.258 . S
O174 Co171 1.966 . S
O174 C172 1.263 . S
C175 O176 1.235 . S
C175 O202 1.289 . S
O176 C175 1.235 . S
C177 C179 1.400 . S
C177 N180 1.351 . S
C177 C182 1.501 . S
C178 C179 1.387 . S
C178 N181 1.341 . S
C179 C177 1.400 . S
C179 C178 1.387 . S
N180 Co171 2.022 . S
N180 C177 1.351 . S
N180 N181 1.365 . S
N181 C178 1.341 . S
N181 N180 1.365 . S
N181 H201 0.862 . S
C182 C177 1.501 . S
C182 H183 0.961 . S
C182 H184 0.961 . S
C182 H185 0.960 . S
H183 C182 0.961 . S
H184 C182 0.961 . S
H185 C182 0.960 . S
C186 N187 1.342 . S
C186 C190 1.401 . S
C186 C191 1.499 . S
N187 Co170 1.989 . S
N187 C186 1.342 . S
N187 N188 1.388 . S
N188 Co171 1.993 . S
N188 N187 1.388 . S
N188 C189 1.346 . S
C189 N188 1.346 . S
C189 C190 1.396 . S
C189 C199 1.510 . S
C190 C186 1.401 . S
C190 C189 1.396 . S
C191 C186 1.499 . S
C191 H192 0.959 . S
C191 H193 0.960 . S
C191 H194 0.961 . S
H192 C191 0.959 . S
H193 C191 0.960 . S
H194 C191 0.961 . S
O195 Co170 1.967 . S
O195 C203 1.258 . S
O196 Co171 1.941 . S
O196 C203 1.266 . S
H197 C199 0.959 . S
H198 C199 0.961 . S
C199 C189 1.510 . S
C199 H197 0.959 . S
C199 H198 0.961 . S
C199 H200 0.960 . S
H200 C199 0.960 . S
H201 N181 0.862 . S
O202 Co170 1.920 . S
O202 C175 1.289 . S
C203 O195 1.258 . S
C203 O196 1.266 . S
Co204 O207 1.970 . S
Co204 N221 1.989 . S
Co204 O229 1.967 . S
Co204 O236 1.920 . S
Co205 O208 1.966 . S
Co205 N214 2.022 . S
Co205 N222 1.993 . S
Co205 O230 1.941 . S
C206 O207 1.258 . S
C206 O208 1.263 . S
O207 Co204 1.970 . S
O207 C206 1.258 . S
O208 Co205 1.966 . S
O208 C206 1.263 . S
C209 O210 1.235 . S
C209 O236 1.289 . S
O210 C209 1.235 . S
C211 C213 1.400 . S
C211 N214 1.351 . S
C211 C216 1.501 . S
C212 C213 1.387 . S
C212 N215 1.341 . S
C213 C211 1.400 . S
C213 C212 1.387 . S
N214 Co205 2.022 . S
N214 C211 1.351 . S
N214 N215 1.365 . S
N215 C212 1.341 . S
N215 N214 1.365 . S
N215 H235 0.862 . S
C216 C211 1.501 . S
C216 H217 0.961 . S
C216 H218 0.961 . S
C216 H219 0.960 . S
H217 C216 0.961 . S
H218 C216 0.961 . S
H219 C216 0.960 . S
C220 N221 1.342 . S
C220 C224 1.401 . S
C220 C225 1.499 . S
N221 Co204 1.989 . S
N221 C220 1.342 . S
N221 N222 1.388 . S
N222 Co205 1.993 . S
N222 N221 1.388 . S
N222 C223 1.346 . S
C223 N222 1.346 . S
C223 C224 1.396 . S
C223 C233 1.510 . S
C224 C220 1.401 . S
C224 C223 1.396 . S
C225 C220 1.499 . S
C225 H226 0.959 . S
C225 H227 0.960 . S
C225 H228 0.961 . S
H226 C225 0.959 . S
H227 C225 0.960 . S
H228 C225 0.961 . S
O229 Co204 1.967 . S
O229 C237 1.258 . S
O230 Co205 1.941 . S
O230 C237 1.266 . S
H231 C233 0.959 . S
H232 C233 0.961 . S
C233 C223 1.510 . S
C233 H231 0.959 . S
C233 H232 0.961 . S
C233 H234 0.960 . S
H234 C233 0.960 . S
H235 N215 0.862 . S
O236 Co204 1.920 . S
O236 C209 1.289 . S
C237 O229 1.258 . S
C237 O230 1.266 . S
Co238 O241 1.970 . S
Co238 N255 1.989 . S
Co238 O263 1.967 . S
Co238 O270 1.920 . S
Co239 O242 1.966 . S
Co239 N248 2.022 . S
Co239 N256 1.993 . S
Co239 O264 1.941 . S
C240 O241 1.258 . S
C240 O242 1.263 . S
O241 Co238 1.970 . S
O241 C240 1.258 . S
O242 Co239 1.966 . S
O242 C240 1.263 . S
C243 O244 1.235 . S
C243 O270 1.289 . S
O244 C243 1.235 . S
C245 C247 1.400 . S
C245 N248 1.351 . S
C245 C250 1.501 . S
C246 C247 1.387 . S
C246 N249 1.341 . S
C247 C245 1.400 . S
C247 C246 1.387 . S
N248 Co239 2.022 . S
N248 C245 1.351 . S
N248 N249 1.365 . S
N249 C246 1.341 . S
N249 N248 1.365 . S
N249 H269 0.862 . S
C250 C245 1.501 . S
C250 H251 0.961 . S
C250 H252 0.961 . S
C250 H253 0.960 . S
H251 C250 0.961 . S
H252 C250 0.961 . S
H253 C250 0.960 . S
C254 N255 1.342 . S
C254 C258 1.401 . S
C254 C259 1.499 . S
N255 Co238 1.989 . S
N255 C254 1.342 . S
N255 N256 1.388 . S
N256 Co239 1.993 . S
N256 N255 1.388 . S
N256 C257 1.346 . S
C257 N256 1.346 . S
C257 C258 1.396 . S
C257 C267 1.510 . S
C258 C254 1.401 . S
C258 C257 1.396 . S
C259 C254 1.499 . S
C259 H260 0.959 . S
C259 H261 0.960 . S
C259 H262 0.961 . S
H260 C259 0.959 . S
H261 C259 0.960 . S
H262 C259 0.961 . S
O263 Co238 1.967 . S
O263 C271 1.258 . S
O264 Co239 1.941 . S
O264 C271 1.266 . S
H265 C267 0.959 . S
H266 C267 0.961 . S
C267 C257 1.510 . S
C267 H265 0.959 . S
C267 H266 0.961 . S
C267 H268 0.960 . S
H268 C267 0.960 . S
H269 N249 0.862 . S
O270 Co238 1.920 . S
O270 C243 1.289 . S
C271 O263 1.258 . S
C271 O264 1.266 . S
Co272 O275 1.970 . S
Co272 N289 1.989 . S
Co272 O297 1.967 . S
Co272 O304 1.920 . S
Co273 O276 1.966 . S
Co273 N282 2.022 . S
Co273 N290 1.993 . S
Co273 O298 1.941 . S
C274 O275 1.258 . S
C274 O276 1.263 . S
O275 Co272 1.970 . S
O275 C274 1.258 . S
O276 Co273 1.966 . S
O276 C274 1.263 . S
C277 O278 1.235 . S
C277 O304 1.289 . S
O278 C277 1.235 . S
C279 C281 1.400 . S
C279 N282 1.351 . S
C279 C284 1.501 . S
C280 C281 1.387 . S
C280 N283 1.341 . S
C281 C279 1.400 . S
C281 C280 1.387 . S
N282 Co273 2.022 . S
N282 C279 1.351 . S
N282 N283 1.365 . S
N283 C280 1.341 . S
N283 N282 1.365 . S
N283 H303 0.862 . S
C284 C279 1.501 . S
C284 H285 0.961 . S
C284 H286 0.961 . S
C284 H287 0.960 . S
H285 C284 0.961 . S
H286 C284 0.961 . S
H287 C284 0.960 . S
C288 N289 1.342 . S
C288 C292 1.401 . S
C288 C293 1.499 . S
N289 Co272 1.989 . S
N289 C288 1.342 . S
N289 N290 1.388 . S
N290 Co273 1.993 . S
N290 N289 1.388 . S
N290 C291 1.346 . S
C291 N290 1.346 . S
C291 C292 1.396 . S
C291 C301 1.510 . S
C292 C288 1.401 . S
C292 C291 1.396 . S
C293 C288 1.499 . S
C293 H294 0.959 . S
C293 H295 0.960 . S
C293 H296 0.961 . S
H294 C293 0.959 . S
H295 C293 0.960 . S
H296 C293 0.961 . S
O297 Co272 1.967 . S
O297 C305 1.258 . S
O298 Co273 1.941 . S
O298 C305 1.266 . S
H299 C301 0.959 . S
H300 C301 0.961 . S
C301 C291 1.510 . S
C301 H299 0.959 . S
C301 H300 0.961 . S
C301 H302 0.960 . S
H302 C301 0.960 . S
H303 N283 0.862 . S
O304 Co272 1.920 . S
O304 C277 1.289 . S
C305 O297 1.258 . S
C305 O298 1.266 . S
Co306 O309 1.970 . S
Co306 N323 1.989 . S
Co306 O331 1.967 . S
Co306 O338 1.920 . S
Co307 O310 1.966 . S
Co307 N316 2.022 . S
Co307 N324 1.993 . S
Co307 O332 1.941 . S
C308 O309 1.258 . S
C308 O310 1.263 . S
O309 Co306 1.970 . S
O309 C308 1.258 . S
O310 Co307 1.966 . S
O310 C308 1.263 . S
C311 O312 1.235 . S
C311 O338 1.289 . S
O312 C311 1.235 . S
C313 C315 1.400 . S
C313 N316 1.351 . S
C313 C318 1.501 . S
C314 C315 1.387 . S
C314 N317 1.341 . S
C315 C313 1.400 . S
C315 C314 1.387 . S
N316 Co307 2.022 . S
N316 C313 1.351 . S
N316 N317 1.365 . S
N317 C314 1.341 . S
N317 N316 1.365 . S
N317 H337 0.862 . S
C318 C313 1.501 . S
C318 H319 0.961 . S
C318 H320 0.961 . S
C318 H321 0.960 . S
H319 C318 0.961 . S
H320 C318 0.961 . S
H321 C318 0.960 . S
C322 N323 1.342 . S
C322 C326 1.401 . S
C322 C327 1.499 . S
N323 Co306 1.989 . S
N323 C322 1.342 . S
N323 N324 1.388 . S
N324 Co307 1.993 . S
N324 N323 1.388 . S
N324 C325 1.346 . S
C325 N324 1.346 . S
C325 C326 1.396 . S
C325 C335 1.510 . S
C326 C322 1.401 . S
C326 C325 1.396 . S
C327 C322 1.499 . S
C327 H328 0.959 . S
C327 H329 0.960 . S
C327 H330 0.961 . S
H328 C327 0.959 . S
H329 C327 0.960 . S
H330 C327 0.961 . S
O331 Co306 1.967 . S
O331 C339 1.258 . S
O332 Co307 1.941 . S
O332 C339 1.266 . S
H333 C335 0.959 . S
H334 C335 0.961 . S
C335 C325 1.510 . S
C335 H333 0.959 . S
C335 H334 0.961 . S
C335 H336 0.960 . S
H336 C335 0.960 . S
H337 N317 0.862 . S
O338 Co306 1.920 . S
O338 C311 1.289 . S
C339 O331 1.258 . S
C339 O332 1.266 . S
Co340 O343 1.970 . S
Co340 N357 1.989 . S
Co340 O365 1.967 . S
Co340 O372 1.920 . S
Co341 O344 1.966 . S
Co341 N350 2.022 . S
Co341 N358 1.993 . S
Co341 O366 1.941 . S
C342 O343 1.258 . S
C342 O344 1.263 . S
O343 Co340 1.970 . S
O343 C342 1.258 . S
O344 Co341 1.966 . S
O344 C342 1.263 . S
C345 O346 1.235 . S
C345 O372 1.289 . S
O346 C345 1.235 . S
C347 C349 1.400 . S
C347 N350 1.351 . S
C347 C352 1.501 . S
C348 C349 1.387 . S
C348 N351 1.341 . S
C349 C347 1.400 . S
C349 C348 1.387 . S
N350 Co341 2.022 . S
N350 C347 1.351 . S
N350 N351 1.365 . S
N351 C348 1.341 . S
N351 N350 1.365 . S
N351 H371 0.862 . S
C352 C347 1.501 . S
C352 H353 0.961 . S
C352 H354 0.961 . S
C352 H355 0.960 . S
H353 C352 0.961 . S
H354 C352 0.961 . S
H355 C352 0.960 . S
C356 N357 1.342 . S
C356 C360 1.401 . S
C356 C361 1.499 . S
N357 Co340 1.989 . S
N357 C356 1.342 . S
N357 N358 1.388 . S
N358 Co341 1.993 . S
N358 N357 1.388 . S
N358 C359 1.346 . S
C359 N358 1.346 . S
C359 C360 1.396 . S
C359 C369 1.510 . S
C360 C356 1.401 . S
C360 C359 1.396 . S
C361 C356 1.499 . S
C361 H362 0.959 . S
C361 H363 0.960 . S
C361 H364 0.961 . S
H362 C361 0.959 . S
H363 C361 0.960 . S
H364 C361 0.961 . S
O365 Co340 1.967 . S
O365 C373 1.258 . S
O366 Co341 1.941 . S
O366 C373 1.266 . S
H367 C369 0.959 . S
H368 C369 0.961 . S
C369 C359 1.510 . S
C369 H367 0.959 . S
C369 H368 0.961 . S
C369 H370 0.960 . S
H370 C369 0.960 . S
H371 N351 0.862 . S
O372 Co340 1.920 . S
O372 C345 1.289 . S
C373 O365 1.258 . S
C373 O366 1.266 . S
Co374 O377 1.970 . S
Co374 N391 1.989 . S
Co374 O399 1.967 . S
Co374 O406 1.920 . S
Co375 O378 1.966 . S
Co375 N384 2.022 . S
Co375 N392 1.993 . S
Co375 O400 1.941 . S
C376 O377 1.258 . S
C376 O378 1.263 . S
O377 Co374 1.970 . S
O377 C376 1.258 . S
O378 Co375 1.966 . S
O378 C376 1.263 . S
C379 O380 1.235 . S
C379 O406 1.289 . S
O380 C379 1.235 . S
C381 C383 1.400 . S
C381 N384 1.351 . S
C381 C386 1.501 . S
C382 C383 1.387 . S
C382 N385 1.341 . S
C383 C381 1.400 . S
C383 C382 1.387 . S
N384 Co375 2.022 . S
N384 C381 1.351 . S
N384 N385 1.365 . S
N385 C382 1.341 . S
N385 N384 1.365 . S
N385 H405 0.862 . S
C386 C381 1.501 . S
C386 H387 0.961 . S
C386 H388 0.961 . S
C386 H389 0.960 . S
H387 C386 0.961 . S
H388 C386 0.961 . S
H389 C386 0.960 . S
C390 N391 1.342 . S
C390 C394 1.401 . S
C390 C395 1.499 . S
N391 Co374 1.989 . S
N391 C390 1.342 . S
N391 N392 1.388 . S
N392 Co375 1.993 . S
N392 N391 1.388 . S
N392 C393 1.346 . S
C393 N392 1.346 . S
C393 C394 1.396 . S
C393 C403 1.510 . S
C394 C390 1.401 . S
C394 C393 1.396 . S
C395 C390 1.499 . S
C395 H396 0.959 . S
C395 H397 0.960 . S
C395 H398 0.961 . S
H396 C395 0.959 . S
H397 C395 0.960 . S
H398 C395 0.961 . S
O399 Co374 1.967 . S
O399 C407 1.258 . S
O400 Co375 1.941 . S
O400 C407 1.266 . S
H401 C403 0.959 . S
H402 C403 0.961 . S
C403 C393 1.510 . S
C403 H401 0.959 . S
C403 H402 0.961 . S
C403 H404 0.960 . S
H404 C403 0.960 . S
H405 N385 0.862 . S
O406 Co374 1.920 . S
O406 C379 1.289 . S
C407 O399 1.258 . S
C407 O400 1.266 . S
Co408 O411 1.970 . S
Co408 N425 1.989 . S
Co408 O433 1.967 . S
Co408 O440 1.920 . S
Co409 O412 1.966 . S
Co409 N418 2.022 . S
Co409 N426 1.993 . S
Co409 O434 1.941 . S
C410 O411 1.258 . S
C410 O412 1.263 . S
O411 Co408 1.970 . S
O411 C410 1.258 . S
O412 Co409 1.966 . S
O412 C410 1.263 . S
C413 O414 1.235 . S
C413 O440 1.289 . S
O414 C413 1.235 . S
C415 C417 1.400 . S
C415 N418 1.351 . S
C415 C420 1.501 . S
C416 C417 1.387 . S
C416 N419 1.341 . S
C417 C415 1.400 . S
C417 C416 1.387 . S
N418 Co409 2.022 . S
N418 C415 1.351 . S
N418 N419 1.365 . S
N419 C416 1.341 . S
N419 N418 1.365 . S
N419 H439 0.862 . S
C420 C415 1.501 . S
C420 H421 0.961 . S
C420 H422 0.961 . S
C420 H423 0.960 . S
H421 C420 0.961 . S
H422 C420 0.961 . S
H423 C420 0.960 . S
C424 N425 1.342 . S
C424 C428 1.401 . S
C424 C429 1.499 . S
N425 Co408 1.989 . S
N425 C424 1.342 . S
N425 N426 1.388 . S
N426 Co409 1.993 . S
N426 N425 1.388 . S
N426 C427 1.346 . S
C427 N426 1.346 . S
C427 C428 1.396 . S
C427 C437 1.510 . S
C428 C424 1.401 . S
C428 C427 1.396 . S
C429 C424 1.499 . S
C429 H430 0.959 . S
C429 H431 0.960 . S
C429 H432 0.961 . S
H430 C429 0.959 . S
H431 C429 0.960 . S
H432 C429 0.961 . S
O433 Co408 1.967 . S
O433 C441 1.258 . S
O434 Co409 1.941 . S
O434 C441 1.266 . S
H435 C437 0.959 . S
H436 C437 0.961 . S
C437 C427 1.510 . S
C437 H435 0.959 . S
C437 H436 0.961 . S
C437 H438 0.960 . S
H438 C437 0.960 . S
H439 N419 0.862 . S
O440 Co408 1.920 . S
O440 C413 1.289 . S
C441 O433 1.258 . S
C441 O434 1.266 . S
Co442 O445 1.970 . S
Co442 N459 1.989 . S
Co442 O467 1.967 . S
Co442 O474 1.920 . S
Co443 O446 1.966 . S
Co443 N452 2.022 . S
Co443 N460 1.993 . S
Co443 O468 1.941 . S
C444 O445 1.258 . S
C444 O446 1.263 . S
O445 Co442 1.970 . S
O445 C444 1.258 . S
O446 Co443 1.966 . S
O446 C444 1.263 . S
C447 O448 1.235 . S
C447 O474 1.289 . S
O448 C447 1.235 . S
C449 C451 1.400 . S
C449 N452 1.351 . S
C449 C454 1.501 . S
C450 C451 1.387 . S
C450 N453 1.341 . S
C451 C449 1.400 . S
C451 C450 1.387 . S
N452 Co443 2.022 . S
N452 C449 1.351 . S
N452 N453 1.365 . S
N453 C450 1.341 . S
N453 N452 1.365 . S
N453 H473 0.862 . S
C454 C449 1.501 . S
C454 H455 0.961 . S
C454 H456 0.961 . S
C454 H457 0.960 . S
H455 C454 0.961 . S
H456 C454 0.961 . S
H457 C454 0.960 . S
C458 N459 1.342 . S
C458 C462 1.401 . S
C458 C463 1.499 . S
N459 Co442 1.989 . S
N459 C458 1.342 . S
N459 N460 1.388 . S
N460 Co443 1.993 . S
N460 N459 1.388 . S
N460 C461 1.346 . S
C461 N460 1.346 . S
C461 C462 1.396 . S
C461 C471 1.510 . S
C462 C458 1.401 . S
C462 C461 1.396 . S
C463 C458 1.499 . S
C463 H464 0.959 . S
C463 H465 0.960 . S
C463 H466 0.961 . S
H464 C463 0.959 . S
H465 C463 0.960 . S
H466 C463 0.961 . S
O467 Co442 1.967 . S
O467 C475 1.258 . S
O468 Co443 1.941 . S
O468 C475 1.266 . S
H469 C471 0.959 . S
H470 C471 0.961 . S
C471 C461 1.510 . S
C471 H469 0.959 . S
C471 H470 0.961 . S
C471 H472 0.960 . S
H472 C471 0.960 . S
H473 N453 0.862 . S
O474 Co442 1.920 . S
O474 C447 1.289 . S
C475 O467 1.258 . S
C475 O468 1.266 . S
Co476 O479 1.970 . S
Co476 N493 1.989 . S
Co476 O501 1.967 . S
Co476 O508 1.920 . S
Co477 O480 1.966 . S
Co477 N486 2.022 . S
Co477 N494 1.993 . S
Co477 O502 1.941 . S
C478 O479 1.258 . S
C478 O480 1.263 . S
O479 Co476 1.970 . S
O479 C478 1.258 . S
O480 Co477 1.966 . S
O480 C478 1.263 . S
C481 O482 1.235 . S
C481 O508 1.289 . S
O482 C481 1.235 . S
C483 C485 1.400 . S
C483 N486 1.351 . S
C483 C488 1.501 . S
C484 C485 1.387 . S
C484 N487 1.341 . S
C485 C483 1.400 . S
C485 C484 1.387 . S
N486 Co477 2.022 . S
N486 C483 1.351 . S
N486 N487 1.365 . S
N487 C484 1.341 . S
N487 N486 1.365 . S
N487 H507 0.862 . S
C488 C483 1.501 . S
C488 H489 0.961 . S
C488 H490 0.961 . S
C488 H491 0.960 . S
H489 C488 0.961 . S
H490 C488 0.961 . S
H491 C488 0.960 . S
C492 N493 1.342 . S
C492 C496 1.401 . S
C492 C497 1.499 . S
N493 Co476 1.989 . S
N493 C492 1.342 . S
N493 N494 1.388 . S
N494 Co477 1.993 . S
N494 N493 1.388 . S
N494 C495 1.346 . S
C495 N494 1.346 . S
C495 C496 1.396 . S
C495 C505 1.510 . S
C496 C492 1.401 . S
C496 C495 1.396 . S
C497 C492 1.499 . S
C497 H498 0.959 . S
C497 H499 0.960 . S
C497 H500 0.961 . S
H498 C497 0.959 . S
H499 C497 0.960 . S
H500 C497 0.961 . S
O501 Co476 1.967 . S
O501 C509 1.258 . S
O502 Co477 1.941 . S
O502 C509 1.266 . S
H503 C505 0.959 . S
H504 C505 0.961 . S
C505 C495 1.510 . S
C505 H503 0.959 . S
C505 H504 0.961 . S
C505 H506 0.960 . S
H506 C505 0.960 . S
H507 N487 0.862 . S
O508 Co476 1.920 . S
O508 C481 1.289 . S
C509 O501 1.258 . S
C509 O502 1.266 . S
Co510 O513 1.970 . S
Co510 N527 1.989 . S
Co510 O535 1.967 . S
Co510 O542 1.920 . S
Co511 O514 1.966 . S
Co511 N520 2.022 . S
Co511 N528 1.993 . S
Co511 O536 1.941 . S
C512 O513 1.258 . S
C512 O514 1.263 . S
O513 Co510 1.970 . S
O513 C512 1.258 . S
O514 Co511 1.966 . S
O514 C512 1.263 . S
C515 O516 1.235 . S
C515 O542 1.289 . S
O516 C515 1.235 . S
C517 C519 1.400 . S
C517 N520 1.351 . S
C517 C522 1.501 . S
C518 C519 1.387 . S
C518 N521 1.341 . S
C519 C517 1.400 . S
C519 C518 1.387 . S
N520 Co511 2.022 . S
N520 C517 1.351 . S
N520 N521 1.365 . S
N521 C518 1.341 . S
N521 N520 1.365 . S
N521 H541 0.862 . S
C522 C517 1.501 . S
C522 H523 0.961 . S
C522 H524 0.961 . S
C522 H525 0.960 . S
H523 C522 0.961 . S
H524 C522 0.961 . S
H525 C522 0.960 . S
C526 N527 1.342 . S
C526 C530 1.401 . S
C526 C531 1.499 . S
N527 Co510 1.989 . S
N527 C526 1.342 . S
N527 N528 1.388 . S
N528 Co511 1.993 . S
N528 N527 1.388 . S
N528 C529 1.346 . S
C529 N528 1.346 . S
C529 C530 1.396 . S
C529 C539 1.510 . S
C530 C526 1.401 . S
C530 C529 1.396 . S
C531 C526 1.499 . S
C531 H532 0.959 . S
C531 H533 0.960 . S
C531 H534 0.961 . S
H532 C531 0.959 . S
H533 C531 0.960 . S
H534 C531 0.961 . S
O535 Co510 1.967 . S
O535 C543 1.258 . S
O536 Co511 1.941 . S
O536 C543 1.266 . S
H537 C539 0.959 . S
H538 C539 0.961 . S
C539 C529 1.510 . S
C539 H537 0.959 . S
C539 H538 0.961 . S
C539 H540 0.960 . S
H540 C539 0.960 . S
H541 N521 0.862 . S
O542 Co510 1.920 . S
O542 C515 1.289 . S
C543 O535 1.258 . S
C543 O536 1.266 . S
Co544 O547 1.970 . S
Co544 N561 1.989 . S
Co544 O569 1.967 . S
Co544 O576 1.920 . S
Co545 O548 1.966 . S
Co545 N554 2.022 . S
Co545 N562 1.993 . S
Co545 O570 1.941 . S
C546 O547 1.258 . S
C546 O548 1.263 . S
O547 Co544 1.970 . S
O547 C546 1.258 . S
O548 Co545 1.966 . S
O548 C546 1.263 . S
C549 O550 1.235 . S
C549 O576 1.289 . S
O550 C549 1.235 . S
C551 C553 1.400 . S
C551 N554 1.351 . S
C551 C556 1.501 . S
C552 C553 1.387 . S
C552 N555 1.341 . S
C553 C551 1.400 . S
C553 C552 1.387 . S
N554 Co545 2.022 . S
N554 C551 1.351 . S
N554 N555 1.365 . S
N555 C552 1.341 . S
N555 N554 1.365 . S
N555 H575 0.862 . S
C556 C551 1.501 . S
C556 H557 0.961 . S
C556 H558 0.961 . S
C556 H559 0.960 . S
H557 C556 0.961 . S
H558 C556 0.961 . S
H559 C556 0.960 . S
C560 N561 1.342 . S
C560 C564 1.401 . S
C560 C565 1.499 . S
N561 Co544 1.989 . S
N561 C560 1.342 . S
N561 N562 1.388 . S
N562 Co545 1.993 . S
N562 N561 1.388 . S
N562 C563 1.346 . S
C563 N562 1.346 . S
C563 C564 1.396 . S
C563 C573 1.510 . S
C564 C560 1.401 . S
C564 C563 1.396 . S
C565 C560 1.499 . S
C565 H566 0.959 . S
C565 H567 0.960 . S
C565 H568 0.961 . S
H566 C565 0.959 . S
H567 C565 0.960 . S
H568 C565 0.961 . S
O569 Co544 1.967 . S
O569 C577 1.258 . S
O570 Co545 1.941 . S
O570 C577 1.266 . S
H571 C573 0.959 . S
H572 C573 0.961 . S
C573 C563 1.510 . S
C573 H571 0.959 . S
C573 H572 0.961 . S
C573 H574 0.960 . S
H574 C573 0.960 . S
H575 N555 0.862 . S
O576 Co544 1.920 . S
O576 C549 1.289 . S
C577 O569 1.258 . S
C577 O570 1.266 . S
Co578 O581 1.970 . S
Co578 N595 1.989 . S
Co578 O603 1.967 . S
Co578 O610 1.920 . S
Co579 O582 1.966 . S
Co579 N588 2.022 . S
Co579 N596 1.993 . S
Co579 O604 1.941 . S
C580 O581 1.258 . S
C580 O582 1.263 . S
O581 Co578 1.970 . S
O581 C580 1.258 . S
O582 Co579 1.966 . S
O582 C580 1.263 . S
C583 O584 1.235 . S
C583 O610 1.289 . S
O584 C583 1.235 . S
C585 C587 1.400 . S
C585 N588 1.351 . S
C585 C590 1.501 . S
C586 C587 1.387 . S
C586 N589 1.341 . S
C587 C585 1.400 . S
C587 C586 1.387 . S
N588 Co579 2.022 . S
N588 C585 1.351 . S
N588 N589 1.365 . S
N589 C586 1.341 . S
N589 N588 1.365 . S
N589 H609 0.862 . S
C590 C585 1.501 . S
C590 H591 0.961 . S
C590 H592 0.961 . S
C590 H593 0.960 . S
H591 C590 0.961 . S
H592 C590 0.961 . S
H593 C590 0.960 . S
C594 N595 1.342 . S
C594 C598 1.401 . S
C594 C599 1.499 . S
N595 Co578 1.989 . S
N595 C594 1.342 . S
N595 N596 1.388 . S
N596 Co579 1.993 . S
N596 N595 1.388 . S
N596 C597 1.346 . S
C597 N596 1.346 . S
C597 C598 1.396 . S
C597 C607 1.510 . S
C598 C594 1.401 . S
C598 C597 1.396 . S
C599 C594 1.499 . S
C599 H600 0.959 . S
C599 H601 0.960 . S
C599 H602 0.961 . S
H600 C599 0.959 . S
H601 C599 0.960 . S
H602 C599 0.961 . S
O603 Co578 1.967 . S
O603 C611 1.258 . S
O604 Co579 1.941 . S
O604 C611 1.266 . S
H605 C607 0.959 . S
H606 C607 0.961 . S
C607 C597 1.510 . S
C607 H605 0.959 . S
C607 H606 0.961 . S
C607 H608 0.960 . S
H608 C607 0.960 . S
H609 N589 0.862 . S
O610 Co578 1.920 . S
O610 C583 1.289 . S
C611 O603 1.258 . S
C611 O604 1.266 . S
Co612 O615 1.970 . S
Co612 N629 1.989 . S
Co612 O637 1.967 . S
Co612 O644 1.920 . S
Co613 O616 1.966 . S
Co613 N622 2.022 . S
Co613 N630 1.993 . S
Co613 O638 1.941 . S
C614 O615 1.258 . S
C614 O616 1.263 . S
O615 Co612 1.970 . S
O615 C614 1.258 . S
O616 Co613 1.966 . S
O616 C614 1.263 . S
C617 O618 1.235 . S
C617 O644 1.289 . S
O618 C617 1.235 . S
C619 C621 1.400 . S
C619 N622 1.351 . S
C619 C624 1.501 . S
C620 C621 1.387 . S
C620 N623 1.341 . S
C621 C619 1.400 . S
C621 C620 1.387 . S
N622 Co613 2.022 . S
N622 C619 1.351 . S
N622 N623 1.365 . S
N623 C620 1.341 . S
N623 N622 1.365 . S
N623 H643 0.862 . S
C624 C619 1.501 . S
C624 H625 0.961 . S
C624 H626 0.961 . S
C624 H627 0.960 . S
H625 C624 0.961 . S
H626 C624 0.961 . S
H627 C624 0.960 . S
C628 N629 1.342 . S
C628 C632 1.401 . S
C628 C633 1.499 . S
N629 Co612 1.989 . S
N629 C628 1.342 . S
N629 N630 1.388 . S
N630 Co613 1.993 . S
N630 N629 1.388 . S
N630 C631 1.346 . S
C631 N630 1.346 . S
C631 C632 1.396 . S
C631 C641 1.510 . S
C632 C628 1.401 . S
C632 C631 1.396 . S
C633 C628 1.499 . S
C633 H634 0.959 . S
C633 H635 0.960 . S
C633 H636 0.961 . S
H634 C633 0.959 . S
H635 C633 0.960 . S
H636 C633 0.961 . S
O637 Co612 1.967 . S
O637 C645 1.258 . S
O638 Co613 1.941 . S
O638 C645 1.266 . S
H639 C641 0.959 . S
H640 C641 0.961 . S
C641 C631 1.510 . S
C641 H639 0.959 . S
C641 H640 0.961 . S
C641 H642 0.960 . S
H642 C641 0.960 . S
H643 N623 0.862 . S
O644 Co612 1.920 . S
O644 C617 1.289 . S
C645 O637 1.258 . S
C645 O638 1.266 . S
Co646 O649 1.970 . S
Co646 N663 1.989 . S
Co646 O671 1.967 . S
Co646 O678 1.920 . S
Co647 O650 1.966 . S
Co647 N656 2.022 . S
Co647 N664 1.993 . S
Co647 O672 1.941 . S
C648 O649 1.258 . S
C648 O650 1.263 . S
O649 Co646 1.970 . S
O649 C648 1.258 . S
O650 Co647 1.966 . S
O650 C648 1.263 . S
C651 O652 1.235 . S
C651 O678 1.289 . S
O652 C651 1.235 . S
C653 C655 1.400 . S
C653 N656 1.351 . S
C653 C658 1.501 . S
C654 C655 1.387 . S
C654 N657 1.341 . S
C655 C653 1.400 . S
C655 C654 1.387 . S
N656 Co647 2.022 . S
N656 C653 1.351 . S
N656 N657 1.365 . S
N657 C654 1.341 . S
N657 N656 1.365 . S
N657 H677 0.862 . S
C658 C653 1.501 . S
C658 H659 0.961 . S
C658 H660 0.961 . S
C658 H661 0.960 . S
H659 C658 0.961 . S
H660 C658 0.961 . S
H661 C658 0.960 . S
C662 N663 1.342 . S
C662 C666 1.401 . S
C662 C667 1.499 . S
N663 Co646 1.989 . S
N663 C662 1.342 . S
N663 N664 1.388 . S
N664 Co647 1.993 . S
N664 N663 1.388 . S
N664 C665 1.346 . S
C665 N664 1.346 . S
C665 C666 1.396 . S
C665 C675 1.510 . S
C666 C662 1.401 . S
C666 C665 1.396 . S
C667 C662 1.499 . S
C667 H668 0.959 . S
C667 H669 0.960 . S
C667 H670 0.961 . S
H668 C667 0.959 . S
H669 C667 0.960 . S
H670 C667 0.961 . S
O671 Co646 1.967 . S
O671 C679 1.258 . S
O672 Co647 1.941 . S
O672 C679 1.266 . S
H673 C675 0.959 . S
H674 C675 0.961 . S
C675 C665 1.510 . S
C675 H673 0.959 . S
C675 H674 0.961 . S
C675 H676 0.960 . S
H676 C675 0.960 . S
H677 N657 0.862 . S
O678 Co646 1.920 . S
O678 C651 1.289 . S
C679 O671 1.258 . S
C679 O672 1.266 . S
Co680 O683 1.970 . S
Co680 N697 1.989 . S
Co680 O705 1.967 . S
Co680 O712 1.920 . S
Co681 O684 1.966 . S
Co681 N690 2.022 . S
Co681 N698 1.993 . S
Co681 O706 1.941 . S
C682 O683 1.258 . S
C682 O684 1.263 . S
O683 Co680 1.970 . S
O683 C682 1.258 . S
O684 Co681 1.966 . S
O684 C682 1.263 . S
C685 O686 1.235 . S
C685 O712 1.289 . S
O686 C685 1.235 . S
C687 C689 1.400 . S
C687 N690 1.351 . S
C687 C692 1.501 . S
C688 C689 1.387 . S
C688 N691 1.341 . S
C689 C687 1.400 . S
C689 C688 1.387 . S
N690 Co681 2.022 . S
N690 C687 1.351 . S
N690 N691 1.365 . S
N691 C688 1.341 . S
N691 N690 1.365 . S
N691 H711 0.862 . S
C692 C687 1.501 . S
C692 H693 0.961 . S
C692 H694 0.961 . S
C692 H695 0.960 . S
H693 C692 0.961 . S
H694 C692 0.961 . S
H695 C692 0.960 . S
C696 N697 1.342 . S
C696 C700 1.401 . S
C696 C701 1.499 . S
N697 Co680 1.989 . S
N697 C696 1.342 . S
N697 N698 1.388 . S
N698 Co681 1.993 . S
N698 N697 1.388 . S
N698 C699 1.346 . S
C699 N698 1.346 . S
C699 C700 1.396 . S
C699 C709 1.510 . S
C700 C696 1.401 . S
C700 C699 1.396 . S
C701 C696 1.499 . S
C701 H702 0.959 . S
C701 H703 0.960 . S
C701 H704 0.961 . S
H702 C701 0.959 . S
H703 C701 0.960 . S
H704 C701 0.961 . S
O705 Co680 1.967 . S
O705 C713 1.258 . S
O706 Co681 1.941 . S
O706 C713 1.266 . S
H707 C709 0.959 . S
H708 C709 0.961 . S
C709 C699 1.510 . S
C709 H707 0.959 . S
C709 H708 0.961 . S
C709 H710 0.960 . S
H710 C709 0.960 . S
H711 N691 0.862 . S
O712 Co680 1.920 . S
O712 C685 1.289 . S
C713 O705 1.258 . S
C713 O706 1.266 . S
Co714 O717 1.970 . S
Co714 N731 1.989 . S
Co714 O739 1.967 . S
Co714 O746 1.920 . S
Co715 O718 1.966 . S
Co715 N724 2.022 . S
Co715 N732 1.993 . S
Co715 O740 1.941 . S
C716 O717 1.258 . S
C716 O718 1.263 . S
O717 Co714 1.970 . S
O717 C716 1.258 . S
O718 Co715 1.966 . S
O718 C716 1.263 . S
C719 O720 1.235 . S
C719 O746 1.289 . S
O720 C719 1.235 . S
C721 C723 1.400 . S
C721 N724 1.351 . S
C721 C726 1.501 . S
C722 C723 1.387 . S
C722 N725 1.341 . S
C723 C721 1.400 . S
C723 C722 1.387 . S
N724 Co715 2.022 . S
N724 C721 1.351 . S
N724 N725 1.365 . S
N725 C722 1.341 . S
N725 N724 1.365 . S
N725 H745 0.862 . S
C726 C721 1.501 . S
C726 H727 0.961 . S
C726 H728 0.961 . S
C726 H729 0.960 . S
H727 C726 0.961 . S
H728 C726 0.961 . S
H729 C726 0.960 . S
C730 N731 1.342 . S
C730 C734 1.401 . S
C730 C735 1.499 . S
N731 Co714 1.989 . S
N731 C730 1.342 . S
N731 N732 1.388 . S
N732 Co715 1.993 . S
N732 N731 1.388 . S
N732 C733 1.346 . S
C733 N732 1.346 . S
C733 C734 1.396 . S
C733 C743 1.510 . S
C734 C730 1.401 . S
C734 C733 1.396 . S
C735 C730 1.499 . S
C735 H736 0.959 . S
C735 H737 0.960 . S
C735 H738 0.961 . S
H736 C735 0.959 . S
H737 C735 0.960 . S
H738 C735 0.961 . S
O739 Co714 1.967 . S
O739 C747 1.258 . S
O740 Co715 1.941 . S
O740 C747 1.266 . S
H741 C743 0.959 . S
H742 C743 0.961 . S
C743 C733 1.510 . S
C743 H741 0.959 . S
C743 H742 0.961 . S
C743 H744 0.960 . S
H744 C743 0.960 . S
H745 N725 0.862 . S
O746 Co714 1.920 . S
O746 C719 1.289 . S
C747 O739 1.258 . S
C747 O740 1.266 . S
Co748 O751 1.970 . S
Co748 N765 1.989 . S
Co748 O773 1.967 . S
Co748 O780 1.920 . S
Co749 O752 1.966 . S
Co749 N758 2.022 . S
Co749 N766 1.993 . S
Co749 O774 1.941 . S
C750 O751 1.258 . S
C750 O752 1.263 . S
O751 Co748 1.970 . S
O751 C750 1.258 . S
O752 Co749 1.966 . S
O752 C750 1.263 . S
C753 O754 1.235 . S
C753 O780 1.289 . S
O754 C753 1.235 . S
C755 C757 1.400 . S
C755 N758 1.351 . S
C755 C760 1.501 . S
C756 C757 1.387 . S
C756 N759 1.341 . S
C757 C755 1.400 . S
C757 C756 1.387 . S
N758 Co749 2.022 . S
N758 C755 1.351 . S
N758 N759 1.365 . S
N759 C756 1.341 . S
N759 N758 1.365 . S
N759 H779 0.862 . S
C760 C755 1.501 . S
C760 H761 0.961 . S
C760 H762 0.961 . S
C760 H763 0.960 . S
H761 C760 0.961 . S
H762 C760 0.961 . S
H763 C760 0.960 . S
C764 N765 1.342 . S
C764 C768 1.401 . S
C764 C769 1.499 . S
N765 Co748 1.989 . S
N765 C764 1.342 . S
N765 N766 1.388 . S
N766 Co749 1.993 . S
N766 N765 1.388 . S
N766 C767 1.346 . S
C767 N766 1.346 . S
C767 C768 1.396 . S
C767 C777 1.510 . S
C768 C764 1.401 . S
C768 C767 1.396 . S
C769 C764 1.499 . S
C769 H770 0.959 . S
C769 H771 0.960 . S
C769 H772 0.961 . S
H770 C769 0.959 . S
H771 C769 0.960 . S
H772 C769 0.961 . S
O773 Co748 1.967 . S
O773 C781 1.258 . S
O774 Co749 1.941 . S
O774 C781 1.266 . S
H775 C777 0.959 . S
H776 C777 0.961 . S
C777 C767 1.510 . S
C777 H775 0.959 . S
C777 H776 0.961 . S
C777 H778 0.960 . S
H778 C777 0.960 . S
H779 N759 0.862 . S
O780 Co748 1.920 . S
O780 C753 1.289 . S
C781 O773 1.258 . S
C781 O774 1.266 . S
Co782 O785 1.970 . S
Co782 N799 1.989 . S
Co782 O807 1.967 . S
Co782 O814 1.920 . S
Co783 O786 1.966 . S
Co783 N792 2.022 . S
Co783 N800 1.993 . S
Co783 O808 1.941 . S
C784 O785 1.258 . S
C784 O786 1.263 . S
O785 Co782 1.970 . S
O785 C784 1.258 . S
O786 Co783 1.966 . S
O786 C784 1.263 . S
C787 O788 1.235 . S
C787 O814 1.289 . S
O788 C787 1.235 . S
C789 C791 1.400 . S
C789 N792 1.351 . S
C789 C794 1.501 . S
C790 C791 1.387 . S
C790 N793 1.341 . S
C791 C789 1.400 . S
C791 C790 1.387 . S
N792 Co783 2.022 . S
N792 C789 1.351 . S
N792 N793 1.365 . S
N793 C790 1.341 . S
N793 N792 1.365 . S
N793 H813 0.862 . S
C794 C789 1.501 . S
C794 H795 0.961 . S
C794 H796 0.961 . S
C794 H797 0.960 . S
H795 C794 0.961 . S
H796 C794 0.961 . S
H797 C794 0.960 . S
C798 N799 1.342 . S
C798 C802 1.401 . S
C798 C803 1.499 . S
N799 Co782 1.989 . S
N799 C798 1.342 . S
N799 N800 1.388 . S
N800 Co783 1.993 . S
N800 N799 1.388 . S
N800 C801 1.346 . S
C801 N800 1.346 . S
C801 C802 1.396 . S
C801 C811 1.510 . S
C802 C798 1.401 . S
C802 C801 1.396 . S
C803 C798 1.499 . S
C803 H804 0.959 . S
C803 H805 0.960 . S
C803 H806 0.961 . S
H804 C803 0.959 . S
H805 C803 0.960 . S
H806 C803 0.961 . S
O807 Co782 1.967 . S
O807 C815 1.258 . S
O808 Co783 1.941 . S
O808 C815 1.266 . S
H809 C811 0.959 . S
H810 C811 0.961 . S
C811 C801 1.510 . S
C811 H809 0.959 . S
C811 H810 0.961 . S
C811 H812 0.960 . S
H812 C811 0.960 . S
H813 N793 0.862 . S
O814 Co782 1.920 . S
O814 C787 1.289 . S
C815 O807 1.258 . S
C815 O808 1.266 . S
C816 C817 1.387 . S
C816 H820 0.950 . S
C816 C825 1.390 . S
C817 C816 1.387 . S
C817 C819 1.387 . S
H818 C825 0.950 . S
C819 C817 1.387 . S
C819 C821 1.390 . S
C819 H823 0.950 . S
H820 C816 0.950 . S
C821 C819 1.390 . S
C821 C822 1.387 . S
C821 H824 0.950 . S
C822 C821 1.387 . S
C822 C825 1.387 . S
H823 C819 0.950 . S
H824 C821 0.950 . S
C825 C816 1.390 . S
C825 H818 0.950 . S
C825 C822 1.387 . S
C826 C827 1.387 . S
C826 H830 0.950 . S
C826 C835 1.390 . S
C827 C826 1.387 . S
C827 C829 1.387 . S
H828 C835 0.950 . S
C829 C827 1.387 . S
C829 C831 1.390 . S
C829 H833 0.950 . S
H830 C826 0.950 . S
C831 C829 1.390 . S
C831 C832 1.387 . S
C831 H834 0.950 . S
C832 C831 1.387 . S
C832 C835 1.387 . S
H833 C829 0.950 . S
H834 C831 0.950 . S
C835 C826 1.390 . S
C835 H828 0.950 . S
C835 C832 1.387 . S
C836 C837 1.387 . S
C836 H840 0.950 . S
C836 C845 1.390 . S
C837 C836 1.387 . S
C837 C839 1.387 . S
H838 C845 0.950 . S
C839 C837 1.387 . S
C839 C841 1.390 . S
C839 H843 0.950 . S
H840 C836 0.950 . S
C841 C839 1.390 . S
C841 C842 1.387 . S
C841 H844 0.950 . S
C842 C841 1.387 . S
C842 C845 1.387 . S
H843 C839 0.950 . S
H844 C841 0.950 . S
C845 C836 1.390 . S
C845 H838 0.950 . S
C845 C842 1.387 . S
C846 C847 1.387 . S
C846 H850 0.950 . S
C846 C855 1.390 . S
C847 C846 1.387 . S
C847 C849 1.387 . S
H848 C855 0.950 . S
C849 C847 1.387 . S
C849 C851 1.390 . S
C849 H853 0.950 . S
H850 C846 0.950 . S
C851 C849 1.390 . S
C851 C852 1.387 . S
C851 H854 0.950 . S
C852 C851 1.387 . S
C852 C855 1.387 . S
H853 C849 0.950 . S
H854 C851 0.950 . S
C855 C846 1.390 . S
C855 H848 0.950 . S
C855 C852 1.387 . S
C856 C857 1.387 . S
C856 H860 0.950 . S
C856 C865 1.390 . S
C857 C856 1.387 . S
C857 C859 1.387 . S
H858 C865 0.950 . S
C859 C857 1.387 . S
C859 C861 1.390 . S
C859 H863 0.950 . S
H860 C856 0.950 . S
C861 C859 1.390 . S
C861 C862 1.387 . S
C861 H864 0.950 . S
C862 C861 1.387 . S
C862 C865 1.387 . S
H863 C859 0.950 . S
H864 C861 0.950 . S
C865 C856 1.390 . S
C865 H858 0.950 . S
C865 C862 1.387 . S
C866 C867 1.387 . S
C866 H870 0.950 . S
C866 C875 1.390 . S
C867 C866 1.387 . S
C867 C869 1.387 . S
H868 C875 0.950 . S
C869 C867 1.387 . S
C869 C871 1.390 . S
C869 H873 0.950 . S
H870 C866 0.950 . S
C871 C869 1.390 . S
C871 C872 1.387 . S
C871 H874 0.950 . S
C872 C871 1.387 . S
C872 C875 1.387 . S
H873 C869 0.950 . S
H874 C871 0.950 . S
C875 C866 1.390 . S
C875 H868 0.950 . S
C875 C872 1.387 . S
C876 C877 1.387 . S
C876 H880 0.950 . S
C876 C885 1.390 . S
C877 C876 1.387 . S
C877 C879 1.387 . S
H878 C885 0.950 . S
C879 C877 1.387 . S
C879 C881 1.390 . S
C879 H883 0.950 . S
H880 C876 0.950 . S
C881 C879 1.390 . S
C881 C882 1.387 . S
C881 H884 0.950 . S
C882 C881 1.387 . S
C882 C885 1.387 . S
H883 C879 0.950 . S
H884 C881 0.950 . S
C885 C876 1.390 . S
C885 H878 0.950 . S
C885 C882 1.387 . S
C886 C887 1.387 . S
C886 H890 0.950 . S
C886 C895 1.390 . S
C887 C886 1.387 . S
C887 C889 1.387 . S
H888 C895 0.950 . S
C889 C887 1.387 . S
C889 C891 1.390 . S
C889 H893 0.950 . S
H890 C886 0.950 . S
C891 C889 1.390 . S
C891 C892 1.387 . S
C891 H894 0.950 . S
C892 C891 1.387 . S
C892 C895 1.387 . S
H893 C889 0.950 . S
H894 C891 0.950 . S
C895 C886 1.390 . S
C895 H888 0.950 . S
C895 C892 1.387 . S
C896 C897 1.387 . S
C896 H900 0.950 . S
C896 C905 1.390 . S
C897 C896 1.387 . S
C897 C899 1.387 . S
H898 C905 0.950 . S
C899 C897 1.387 . S
C899 C901 1.390 . S
C899 H903 0.950 . S
H900 C896 0.950 . S
C901 C899 1.390 . S
C901 C902 1.387 . S
C901 H904 0.950 . S
C902 C901 1.387 . S
C902 C905 1.387 . S
H903 C899 0.950 . S
H904 C901 0.950 . S
C905 C896 1.390 . S
C905 H898 0.950 . S
C905 C902 1.387 . S
C906 C907 1.387 . S
C906 H910 0.950 . S
C906 C915 1.390 . S
C907 C906 1.387 . S
C907 C909 1.387 . S
H908 C915 0.950 . S
C909 C907 1.387 . S
C909 C911 1.390 . S
C909 H913 0.950 . S
H910 C906 0.950 . S
C911 C909 1.390 . S
C911 C912 1.387 . S
C911 H914 0.950 . S
C912 C911 1.387 . S
C912 C915 1.387 . S
H913 C909 0.950 . S
H914 C911 0.950 . S
C915 C906 1.390 . S
C915 H908 0.950 . S
C915 C912 1.387 . S
C916 C917 1.387 . S
C916 H920 0.950 . S
C916 C925 1.390 . S
C917 C916 1.387 . S
C917 C919 1.387 . S
H918 C925 0.950 . S
C919 C917 1.387 . S
C919 C921 1.390 . S
C919 H923 0.950 . S
H920 C916 0.950 . S
C921 C919 1.390 . S
C921 C922 1.387 . S
C921 H924 0.950 . S
C922 C921 1.387 . S
C922 C925 1.387 . S
H923 C919 0.950 . S
H924 C921 0.950 . S
C925 C916 1.390 . S
C925 H918 0.950 . S
C925 C922 1.387 . S
C926 C927 1.387 . S
C926 H930 0.950 . S
C926 C935 1.390 . S
C927 C926 1.387 . S
C927 C929 1.387 . S
H928 C935 0.950 . S
C929 C927 1.387 . S
C929 C931 1.390 . S
C929 H933 0.950 . S
H930 C926 0.950 . S
C931 C929 1.390 . S
C931 C932 1.387 . S
C931 H934 0.950 . S
C932 C931 1.387 . S
C932 C935 1.387 . S
H933 C929 0.950 . S
H934 C931 0.950 . S
C935 C926 1.390 . S
C935 H928 0.950 . S
C935 C932 1.387 . S
C936 C937 1.387 . S
C936 H940 0.950 . S
C936 C945 1.390 . S
C937 C936 1.387 . S
C937 C939 1.387 . S
H938 C945 0.950 1_545 S
C939 C937 1.387 . S
C939 C941 1.390 . S
C939 H943 0.950 . S
H940 C936 0.950 . S
C941 C939 1.390 . S
C941 C942 1.387 1_565 S
C941 H944 0.950 . S
C942 C941 1.387 1_545 S
C942 C945 1.387 1_545 S
H943 C939 0.950 . S
H944 C941 0.950 . S
C945 C936 1.390 . S
C945 H938 0.950 1_565 S
C945 C942 1.387 1_565 S
C946 C947 1.387 1_455 S
C946 H950 0.950 1_455 S
C946 C955 1.390 . S
C947 C946 1.387 1_655 S
C947 C949 1.387 1_655 S
H948 C955 0.950 . S
C949 C947 1.387 1_455 S
C949 C951 1.390 . S
C949 H953 0.950 1_455 S
H950 C946 0.950 1_655 S
C951 C949 1.390 . S
C951 C952 1.387 . S
C951 H954 0.950 . S
C952 C951 1.387 . S
C952 C955 1.387 . S
H953 C949 0.950 1_655 S
H954 C951 0.950 . S
C955 C946 1.390 . S
C955 H948 0.950 . S
C955 C952 1.387 . S
C956 C957 1.387 1_545 S
C956 H960 0.950 1_545 S
C956 C965 1.390 . S
C957 C956 1.387 1_565 S
C957 C959 1.387 1_565 S
H958 C965 0.950 . S
C959 C957 1.387 1_545 S
C959 C961 1.390 . S
C959 H963 0.950 . S
H960 C956 0.950 1_565 S
C961 C959 1.390 . S
C961 C962 1.387 . S
C961 H964 0.950 . S
C962 C961 1.387 . S
C962 C965 1.387 . S
H963 C959 0.950 . S
H964 C961 0.950 . S
C965 C956 1.390 . S
C965 H958 0.950 . S
C965 C962 1.387 . S
C966 C967 1.387 . S
C966 H970 0.950 . S
C966 C975 1.390 . S
C967 C966 1.387 . S
C967 C969 1.387 . S
H968 C975 0.944 1_455 S
C969 C967 1.387 . S
C969 C971 1.390 . S
C969 H973 0.950 . S
H970 C966 0.950 . S
C971 C969 1.390 . S
C971 C972 1.387 1_655 S
C971 H974 0.950 1_655 S
C972 C971 1.387 1_455 S
C972 C975 1.387 1_455 S
H973 C969 0.950 . S
H974 C971 0.950 1_455 S
C975 C966 1.390 . S
C975 H968 0.944 1_655 S
C975 C972 1.387 1_655 S
C976 C977 1.387 . S
C976 H980 0.950 . S
C976 C985 1.390 . S
C977 C976 1.387 . S
C977 C979 1.387 . S
H978 C985 0.950 . S
C979 C977 1.387 . S
C979 C981 1.390 . S
C979 H983 0.950 . S
H980 C976 0.950 . S
C981 C979 1.390 . S
C981 C982 1.387 1_545 S
C981 H984 0.950 1_545 S
C982 C981 1.387 1_565 S
C982 C985 1.387 1_565 S
H983 C979 0.950 . S
H984 C981 0.950 1_565 S
C985 C976 1.390 . S
C985 H978 0.950 . S
C985 C982 1.387 1_545 S
C986 C987 1.387 1_655 S
C986 H990 0.950 1_655 S
C986 C995 1.390 . S
C987 C986 1.387 1_455 S
C987 C989 1.387 1_455 S
H988 C995 0.950 . S
C989 C987 1.387 1_655 S
C989 C991 1.390 . S
C989 H993 0.950 1_655 S
H990 C986 0.950 1_455 S
C991 C989 1.390 . S
C991 C992 1.387 . S
C991 H994 0.950 . S
C992 C991 1.387 . S
C992 C995 1.387 . S
H993 C989 0.950 1_455 S
H994 C991 0.950 . S
C995 C986 1.390 . S
C995 H988 0.950 . S
C995 C992 1.387 . S
C996 C997 1.387 . S
C996 H1000 0.950 . S
C996 C1005 1.390 . S
C997 C996 1.387 . S
C997 C999 1.387 . S
H998 C1005 0.950 1_545 S
C999 C997 1.387 . S
C999 C1001 1.390 . S
C999 H1003 0.950 . S
H1000 C996 0.950 . S
C1001 C999 1.390 . S
C1001 C1002 1.387 1_565 S
C1001 H1004 0.950 1_565 S
C1002 C1001 1.387 1_545 S
C1002 C1005 1.387 1_545 S
H1003 C999 0.950 . S
H1004 C1001 0.950 1_545 S
C1005 C996 1.390 . S
C1005 H998 0.950 1_565 S
C1005 C1002 1.387 1_565 S
C1006 C1007 1.387 . S
C1006 H1010 0.950 . S
C1006 C1015 1.390 . S
C1007 C1006 1.387 . S
C1007 C1009 1.387 . S
H1008 C1015 0.950 1_655 S
C1009 C1007 1.387 . S
C1009 C1011 1.390 . S
C1009 H1013 0.950 . S
H1010 C1006 0.950 . S
C1011 C1009 1.390 . S
C1011 C1012 1.387 1_455 S
C1011 H1014 0.950 1_455 S
C1012 C1011 1.387 1_655 S
C1012 C1015 1.387 1_655 S
H1013 C1009 0.950 . S
H1014 C1011 0.950 1_655 S
C1015 C1006 1.390 . S
C1015 H1008 0.950 1_455 S
C1015 C1012 1.387 1_455 S
C1016 C1017 1.387 . S
C1016 H1020 0.950 . S
C1016 C1025 1.390 . S
C1017 C1016 1.387 . S
C1017 C1019 1.387 . S
H1018 C1025 0.950 1_554 S
C1019 C1017 1.387 . S
C1019 C1021 1.390 . S
C1019 H1023 0.950 . S
H1020 C1016 0.950 . S
C1021 C1019 1.390 . S
C1021 C1022 1.387 1_556 S
C1021 H1024 0.950 1_556 S
C1022 C1021 1.387 1_554 S
C1022 C1025 1.387 1_554 S
H1023 C1019 0.950 . S
H1024 C1021 0.950 1_554 S
C1025 C1016 1.390 . S
C1025 H1018 0.950 1_556 S
C1025 C1022 1.387 1_556 S
C1026 C1027 1.387 1_556 S
C1026 H1030 0.951 . S
C1026 C1035 1.390 . S
C1027 C1026 1.387 1_554 S
C1027 C1029 1.387 1_554 S
H1028 C1035 0.950 . S
C1029 C1027 1.387 1_556 S
C1029 C1031 1.390 . S
C1029 H1033 0.950 1_556 S
H1030 C1026 0.951 . S
C1031 C1029 1.390 . S
C1031 C1032 1.387 . S
C1031 H1034 0.950 . S
C1032 C1031 1.387 . S
C1032 C1035 1.387 . S
H1033 C1029 0.950 1_554 S
H1034 C1031 0.950 . S
C1035 C1026 1.390 . S
C1035 H1028 0.950 . S
C1035 C1032 1.387 . S
C1036 C1037 1.387 . S
C1036 H1040 0.950 . S
C1036 C1045 1.390 . S
C1037 C1036 1.387 . S
C1037 C1039 1.387 . S
H1038 C1045 0.950 1_554 S
C1039 C1037 1.387 . S
C1039 C1041 1.390 . S
C1039 H1043 0.950 . S
H1040 C1036 0.950 . S
C1041 C1039 1.390 . S
C1041 C1042 1.387 1_556 S
C1041 H1044 0.950 . S
C1042 C1041 1.387 1_554 S
C1042 C1045 1.387 1_554 S
H1043 C1039 0.950 . S
H1044 C1041 0.950 . S
C1045 C1036 1.390 . S
C1045 H1038 0.950 1_556 S
C1045 C1042 1.387 1_556 S
C1046 C1047 1.387 1_556 S
C1046 H1050 0.950 1_556 S
C1046 C1055 1.390 . S
C1047 C1046 1.387 1_554 S
C1047 C1049 1.387 1_554 S
H1048 C1055 0.950 . S
C1049 C1047 1.387 1_556 S
C1049 C1051 1.390 . S
C1049 H1053 0.950 . S
H1050 C1046 0.950 1_554 S
C1051 C1049 1.390 . S
C1051 C1052 1.387 . S
C1051 H1054 0.950 . S
C1052 C1051 1.387 . S
C1052 C1055 1.387 . S
H1053 C1049 0.950 . S
H1054 C1051 0.950 . S
C1055 C1046 1.390 . S
C1055 H1048 0.950 . S
C1055 C1052 1.387 . S
C1056 C1057 1.387 . S
C1056 H1060 0.950 . S
C1056 C1065 1.390 . S
C1057 C1056 1.387 . S
C1057 C1059 1.387 . S
H1058 C1065 0.950 . S
C1059 C1057 1.387 . S
C1059 C1061 1.390 . S
C1059 H1063 0.950 . S
H1060 C1056 0.950 . S
C1061 C1059 1.390 . S
C1061 C1062 1.387 1_554 S
C1061 H1064 0.950 1_554 S
C1062 C1061 1.387 1_556 S
C1062 C1065 1.387 1_556 S
H1063 C1059 0.950 . S
H1064 C1061 0.950 1_556 S
C1065 C1056 1.390 . S
C1065 H1058 0.950 . S
C1065 C1062 1.387 1_554 S
C1066 C1067 1.387 1_554 S
C1066 H1070 0.950 . S
C1066 C1075 1.390 . S
C1067 C1066 1.387 1_556 S
C1067 C1069 1.387 1_556 S
H1068 C1075 0.950 . S
C1069 C1067 1.387 1_554 S
C1069 C1071 1.390 . S
C1069 H1073 0.950 1_554 S
H1070 C1066 0.950 . S
C1071 C1069 1.390 . S
C1071 C1072 1.387 . S
C1071 H1074 0.950 . S
C1072 C1071 1.387 . S
C1072 C1075 1.387 . S
H1073 C1069 0.950 1_556 S
H1074 C1071 0.950 . S
C1075 C1066 1.390 . S
C1075 H1068 0.950 . S
C1075 C1072 1.387 . S
C1076 C1077 1.387 . S
C1076 H1080 0.950 . S
C1076 C1085 1.390 . S
C1077 C1076 1.387 . S
C1077 C1079 1.387 . S
H1078 C1085 0.938 1_556 S
C1079 C1077 1.387 . S
C1079 C1081 1.390 . S
C1079 H1083 0.950 . S
H1080 C1076 0.950 . S
C1081 C1079 1.390 . S
C1081 C1082 1.387 1_554 S
C1081 H1084 0.950 1_554 S
C1082 C1081 1.387 1_556 S
C1082 C1085 1.387 1_556 S
H1083 C1079 0.950 . S
H1084 C1081 0.950 1_556 S
C1085 C1076 1.390 . S
C1085 H1078 0.938 1_554 S
C1085 C1082 1.387 1_554 S
C1086 C1087 1.387 1_554 S
C1086 H1090 0.950 1_554 S
C1086 C1095 1.390 . S
C1087 C1086 1.387 1_556 S
C1087 C1089 1.387 1_556 S
H1088 C1095 0.950 . S
C1089 C1087 1.387 1_554 S
C1089 C1091 1.390 . S
C1089 H1093 0.950 . S
H1090 C1086 0.950 1_556 S
C1091 C1089 1.390 . S
C1091 C1092 1.387 . S
C1091 H1094 0.950 . S
C1092 C1091 1.387 . S
C1092 C1095 1.387 . S
H1093 C1089 0.950 . S
H1094 C1091 0.950 . S
C1095 C1086 1.390 . S
C1095 H1088 0.950 . S
C1095 C1092 1.387 . S
C1096 C1097 1.387 . S
C1096 H1100 0.950 . S
C1096 C1105 1.390 . S
C1097 C1096 1.387 . S
C1097 C1099 1.387 . S
H1098 C1105 0.950 . S
C1099 C1097 1.387 . S
C1099 C1101 1.390 . S
C1099 H1103 0.950 . S
H1100 C1096 0.950 . S
C1101 C1099 1.390 . S
C1101 C1102 1.387 1_655 S
C1101 H1104 0.950 1_655 S
C1102 C1101 1.387 1_455 S
C1102 C1105 1.387 1_455 S
H1103 C1099 0.950 . S
H1104 C1101 0.950 1_455 S
C1105 C1096 1.390 . S
C1105 H1098 0.950 . S
C1105 C1102 1.387 1_655 S
C1106 C1107 1.387 . S
C1106 H1110 0.950 . S
C1106 C1115 1.390 . S
C1107 C1106 1.387 . S
C1107 C1109 1.387 . S
H1108 C1115 0.950 1_455 S
C1109 C1107 1.387 . S
C1109 C1111 1.390 . S
C1109 H1113 0.950 . S
H1110 C1106 0.950 . S
C1111 C1109 1.390 . S
C1111 C1112 1.387 1_655 S
C1111 H1114 0.937 1_655 S
C1112 C1111 1.387 1_455 S
C1112 C1115 1.387 1_455 S
H1113 C1109 0.950 . S
H1114 C1111 0.937 1_455 S
C1115 C1106 1.390 . S
C1115 H1108 0.950 1_655 S
C1115 C1112 1.387 1_655 S
C1116 C1117 1.387 1_565 S
C1116 H1120 0.950 1_565 S
C1116 C1125 1.390 . S
C1117 C1116 1.387 1_545 S
C1117 C1119 1.387 1_545 S
H1118 C1125 0.950 . S
C1119 C1117 1.387 1_565 S
C1119 C1121 1.390 . S
C1119 H1123 0.942 1_565 S
H1120 C1116 0.950 1_545 S
C1121 C1119 1.390 . S
C1121 C1122 1.387 . S
C1121 H1124 0.950 . S
C1122 C1121 1.387 . S
C1122 C1125 1.387 . S
H1123 C1119 0.942 1_545 S
H1124 C1121 0.950 . S
C1125 C1116 1.390 . S
C1125 H1118 0.950 . S
C1125 C1122 1.387 . S
C1126 C1127 1.387 1_455 S
C1126 H1130 0.950 1_455 S
C1126 C1135 1.390 . S
C1127 C1126 1.387 1_655 S
C1127 C1129 1.387 1_655 S
H1128 C1135 0.950 . S
C1129 C1127 1.387 1_455 S
C1129 C1131 1.390 . S
C1129 H1133 0.950 1_455 S
H1130 C1126 0.950 1_655 S
C1131 C1129 1.390 . S
C1131 C1132 1.387 . S
C1131 H1134 0.950 . S
C1132 C1131 1.387 . S
C1132 C1135 1.387 . S
H1133 C1129 0.950 1_655 S
H1134 C1131 0.950 . S
C1135 C1126 1.390 . S
C1135 H1128 0.950 . S
C1135 C1132 1.387 . S
C1136 C1137 1.387 . S
C1136 H1140 0.950 . S
C1136 C1145 1.390 . S
C1137 C1136 1.387 . S
C1137 C1139 1.387 . S
H1138 C1145 0.950 1_565 S
C1139 C1137 1.387 . S
C1139 C1141 1.390 . S
C1139 H1143 0.950 . S
H1140 C1136 0.950 . S
C1141 C1139 1.390 . S
C1141 C1142 1.387 1_545 S
C1141 H1144 0.950 1_545 S
C1142 C1141 1.387 1_565 S
C1142 C1145 1.387 1_565 S
H1143 C1139 0.950 . S
H1144 C1141 0.950 1_565 S
C1145 C1136 1.390 . S
C1145 H1138 0.950 1_545 S
C1145 C1142 1.387 1_545 S
C1146 C1147 1.387 . S
C1146 H1150 0.950 . S
C1146 C1155 1.390 . S
C1147 C1146 1.387 . S
C1147 C1149 1.387 . S
H1148 C1155 0.950 1_655 S
C1149 C1147 1.387 . S
C1149 C1151 1.390 . S
C1149 H1153 0.950 . S
H1150 C1146 0.950 . S
C1151 C1149 1.390 . S
C1151 C1152 1.387 1_455 S
C1151 H1154 0.950 . S
C1152 C1151 1.387 1_655 S
C1152 C1155 1.387 1_655 S
H1153 C1149 0.950 . S
H1154 C1151 0.950 . S
C1155 C1146 1.390 . S
C1155 H1148 0.950 1_455 S
C1155 C1152 1.387 1_455 S
C1156 C1157 1.387 . S
C1156 H1160 0.950 . S
C1156 C1165 1.390 . S
C1157 C1156 1.387 . S
C1157 C1159 1.387 . S
H1158 C1165 0.950 1_565 S
C1159 C1157 1.387 . S
C1159 C1161 1.390 . S
C1159 H1163 0.950 . S
H1160 C1156 0.950 . S
C1161 C1159 1.390 . S
C1161 C1162 1.387 1_545 S
C1161 H1164 0.950 1_545 S
C1162 C1161 1.387 1_565 S
C1162 C1165 1.387 1_565 S
H1163 C1159 0.950 . S
H1164 C1161 0.950 1_565 S
C1165 C1156 1.390 . S
C1165 H1158 0.950 1_545 S
C1165 C1162 1.387 1_545 S
C1166 C1167 1.387 1_565 S
C1166 H1170 0.950 1_565 S
C1166 C1175 1.390 . S
C1167 C1166 1.387 1_545 S
C1167 C1169 1.387 1_545 S
H1168 C1175 0.950 . S
C1169 C1167 1.387 1_565 S
C1169 C1171 1.390 . S
C1169 H1173 0.964 . S
H1170 C1166 0.950 1_545 S
C1171 C1169 1.390 . S
C1171 C1172 1.387 . S
C1171 H1174 0.950 . S
C1172 C1171 1.387 . S
C1172 C1175 1.387 . S
H1173 C1169 0.964 . S
H1174 C1171 0.950 . S
C1175 C1166 1.390 . S
C1175 H1168 0.950 . S
C1175 C1172 1.387 . S
C1176 C1177 1.387 . S
C1176 H1180 0.950 . S
C1176 C1185 1.390 . S
C1177 C1176 1.387 . S
C1177 C1179 1.387 . S
H1178 C1185 0.950 . S
C1179 C1177 1.387 . S
C1179 C1181 1.390 . S
C1179 H1183 0.950 . S
H1180 C1176 0.950 . S
C1181 C1179 1.390 . S
C1181 C1182 1.387 . S
C1181 H1184 0.950 . S
C1182 C1181 1.387 . S
C1182 C1185 1.387 . S
H1183 C1179 0.950 . S
H1184 C1181 0.950 . S
C1185 C1176 1.390 . S
C1185 H1178 0.950 . S
C1185 C1182 1.387 . S
C1186 C1187 1.387 . S
C1186 H1190 0.950 . S
C1186 C1195 1.390 . S
C1187 C1186 1.387 . S
C1187 C1189 1.387 . S
H1188 C1195 0.950 . S
C1189 C1187 1.387 . S
C1189 C1191 1.390 . S
C1189 H1193 0.950 . S
H1190 C1186 0.950 . S
C1191 C1189 1.390 . S
C1191 C1192 1.387 . S
C1191 H1194 0.950 . S
C1192 C1191 1.387 . S
C1192 C1195 1.387 . S
H1193 C1189 0.950 . S
H1194 C1191 0.950 . S
C1195 C1186 1.390 . S
C1195 H1188 0.950 . S
C1195 C1192 1.387 . S
C1196 C1197 1.387 . S
C1196 H1200 0.950 . S
C1196 C1205 1.390 . S
C1197 C1196 1.387 . S
C1197 C1199 1.387 . S
H1198 C1205 0.950 . S
C1199 C1197 1.387 . S
C1199 C1201 1.390 . S
C1199 H1203 0.950 . S
H1200 C1196 0.950 . S
C1201 C1199 1.390 . S
C1201 C1202 1.387 . S
C1201 H1204 0.950 . S
C1202 C1201 1.387 . S
C1202 C1205 1.387 . S
H1203 C1199 0.950 . S
H1204 C1201 0.950 . S
C1205 C1196 1.390 . S
C1205 H1198 0.950 . S
C1205 C1202 1.387 . S
C1206 C1207 1.387 . S
C1206 H1210 0.950 . S
C1206 C1215 1.390 . S
C1207 C1206 1.387 . S
C1207 C1209 1.387 . S
H1208 C1215 0.950 . S
C1209 C1207 1.387 . S
C1209 C1211 1.390 . S
C1209 H1213 0.950 . S
H1210 C1206 0.950 . S
C1211 C1209 1.390 . S
C1211 C1212 1.387 . S
C1211 H1214 0.950 . S
C1212 C1211 1.387 . S
C1212 C1215 1.387 . S
H1213 C1209 0.950 . S
H1214 C1211 0.950 . S
C1215 C1206 1.390 . S
C1215 H1208 0.950 . S
C1215 C1212 1.387 . S
C1216 C1217 1.387 . S
C1216 H1220 0.950 . S
C1216 C1225 1.390 . S
C1217 C1216 1.387 . S
C1217 C1219 1.387 . S
H1218 C1225 0.950 . S
C1219 C1217 1.387 . S
C1219 C1221 1.390 . S
C1219 H1223 0.950 . S
H1220 C1216 0.950 . S
C1221 C1219 1.390 . S
C1221 C1222 1.387 . S
C1221 H1224 0.950 . S
C1222 C1221 1.387 . S
C1222 C1225 1.387 . S
H1223 C1219 0.950 . S
H1224 C1221 0.950 . S
C1225 C1216 1.390 . S
C1225 H1218 0.950 . S
C1225 C1222 1.387 . S
C1226 C1227 1.387 . S
C1226 H1230 0.950 . S
C1226 C1235 1.390 . S
C1227 C1226 1.387 . S
C1227 C1229 1.387 . S
H1228 C1235 0.950 . S
C1229 C1227 1.387 . S
C1229 C1231 1.390 . S
C1229 H1233 0.950 . S
H1230 C1226 0.950 . S
C1231 C1229 1.390 . S
C1231 C1232 1.387 . S
C1231 H1234 0.950 . S
C1232 C1231 1.387 . S
C1232 C1235 1.387 . S
H1233 C1229 0.950 . S
H1234 C1231 0.950 . S
C1235 C1226 1.390 . S
C1235 H1228 0.950 . S
C1235 C1232 1.387 . S
C1236 C1237 1.387 . S
C1236 H1240 0.950 . S
C1236 C1245 1.390 . S
C1237 C1236 1.387 . S
C1237 C1239 1.387 . S
H1238 C1245 0.950 . S
C1239 C1237 1.387 . S
C1239 C1241 1.390 . S
C1239 H1243 0.950 . S
H1240 C1236 0.950 . S
C1241 C1239 1.390 . S
C1241 C1242 1.387 . S
C1241 H1244 0.950 . S
C1242 C1241 1.387 . S
C1242 C1245 1.387 . S
H1243 C1239 0.950 . S
H1244 C1241 0.950 . S
C1245 C1236 1.390 . S
C1245 H1238 0.950 . S
C1245 C1242 1.387 . S
C1246 C1247 1.387 . S
C1246 H1250 0.950 . S
C1246 C1255 1.390 . S
C1247 C1246 1.387 . S
C1247 C1249 1.387 . S
H1248 C1255 0.950 . S
C1249 C1247 1.387 . S
C1249 C1251 1.390 . S
C1249 H1253 0.950 . S
H1250 C1246 0.950 . S
C1251 C1249 1.390 . S
C1251 C1252 1.387 . S
C1251 H1254 0.950 . S
C1252 C1251 1.387 . S
C1252 C1255 1.387 . S
H1253 C1249 0.950 . S
H1254 C1251 0.950 . S
C1255 C1246 1.390 . S
C1255 H1248 0.950 . S
C1255 C1252 1.387 . S
C1256 C1257 1.387 . S
C1256 H1260 0.950 . S
C1256 C1265 1.390 . S
C1257 C1256 1.387 . S
C1257 C1259 1.387 . S
H1258 C1265 0.950 . S
C1259 C1257 1.387 . S
C1259 C1261 1.390 . S
C1259 H1263 0.950 . S
H1260 C1256 0.950 . S
C1261 C1259 1.390 . S
C1261 C1262 1.387 . S
C1261 H1264 0.950 . S
C1262 C1261 1.387 . S
C1262 C1265 1.387 . S
H1263 C1259 0.950 . S
H1264 C1261 0.950 . S
C1265 C1256 1.390 . S
C1265 H1258 0.950 . S
C1265 C1262 1.387 . S
C1266 C1267 1.387 . S
C1266 H1270 0.950 . S
C1266 C1275 1.390 . S
C1267 C1266 1.387 . S
C1267 C1269 1.387 . S
H1268 C1275 0.950 . S
C1269 C1267 1.387 . S
C1269 C1271 1.390 . S
C1269 H1273 0.950 . S
H1270 C1266 0.950 . S
C1271 C1269 1.390 . S
C1271 C1272 1.387 . S
C1271 H1274 0.950 . S
C1272 C1271 1.387 . S
C1272 C1275 1.387 . S
H1273 C1269 0.950 . S
H1274 C1271 0.950 . S
C1275 C1266 1.390 . S
C1275 H1268 0.950 . S
C1275 C1272 1.387 . S
C1276 C1277 1.387 . S
C1276 H1280 0.950 . S
C1276 C1285 1.390 . S
C1277 C1276 1.387 . S
C1277 C1279 1.387 . S
H1278 C1285 0.950 . S
C1279 C1277 1.387 . S
C1279 C1281 1.390 . S
C1279 H1283 0.950 . S
H1280 C1276 0.950 . S
C1281 C1279 1.390 . S
C1281 C1282 1.387 . S
C1281 H1284 0.950 . S
C1282 C1281 1.387 . S
C1282 C1285 1.387 . S
H1283 C1279 0.950 . S
H1284 C1281 0.950 . S
C1285 C1276 1.390 . S
C1285 H1278 0.950 . S
C1285 C1282 1.387 . S
C1286 C1287 1.387 . S
C1286 H1290 0.950 . S
C1286 C1295 1.390 . S
C1287 C1286 1.387 . S
C1287 C1289 1.387 . S
H1288 C1295 0.950 . S
C1289 C1287 1.387 . S
C1289 C1291 1.390 . S
C1289 H1293 0.950 . S
H1290 C1286 0.950 . S
C1291 C1289 1.390 . S
C1291 C1292 1.387 . S
C1291 H1294 0.950 . S
C1292 C1291 1.387 . S
C1292 C1295 1.387 . S
H1293 C1289 0.950 . S
H1294 C1291 0.950 . S
C1295 C1286 1.390 . S
C1295 H1288 0.950 . S
C1295 C1292 1.387 . S
C1296 C1297 1.387 . S
C1296 H1300 0.950 . S
C1296 C1305 1.390 . S
C1297 C1296 1.387 . S
C1297 C1299 1.387 . S
H1298 C1305 0.950 . S
C1299 C1297 1.387 . S
C1299 C1301 1.390 . S
C1299 H1303 0.950 . S
H1300 C1296 0.950 . S
C1301 C1299 1.390 . S
C1301 C1302 1.387 . S
C1301 H1304 0.950 . S
C1302 C1301 1.387 . S
C1302 C1305 1.387 . S
H1303 C1299 0.950 . S
H1304 C1301 0.950 . S
C1305 C1296 1.390 . S
C1305 H1298 0.950 . S
C1305 C1302 1.387 . S
C1306 C1307 1.387 . S
C1306 H1310 0.950 . S
C1306 C1315 1.390 . S
C1307 C1306 1.387 . S
C1307 C1309 1.387 . S
H1308 C1315 0.950 . S
C1309 C1307 1.387 . S
C1309 C1311 1.390 . S
C1309 H1313 0.950 . S
H1310 C1306 0.950 . S
C1311 C1309 1.390 . S
C1311 C1312 1.387 . S
C1311 H1314 0.950 . S
C1312 C1311 1.387 . S
C1312 C1315 1.387 . S
H1313 C1309 0.950 . S
H1314 C1311 0.950 . S
C1315 C1306 1.390 . S
C1315 H1308 0.950 . S
C1315 C1312 1.387 . S
C1316 C1317 1.387 . S
C1316 H1320 0.950 . S
C1316 C1325 1.390 . S
C1317 C1316 1.387 . S
C1317 C1319 1.387 . S
H1318 C1325 0.950 . S
C1319 C1317 1.387 . S
C1319 C1321 1.390 . S
C1319 H1323 0.950 . S
H1320 C1316 0.950 . S
C1321 C1319 1.390 . S
C1321 C1322 1.387 . S
C1321 H1324 0.950 . S
C1322 C1321 1.387 . S
C1322 C1325 1.387 . S
H1323 C1319 0.950 . S
H1324 C1321 0.950 . S
C1325 C1316 1.390 . S
C1325 H1318 0.950 . S
C1325 C1322 1.387 . S
C1326 C1327 1.387 . S
C1326 H1330 0.950 . S
C1326 C1335 1.390 . S
C1327 C1326 1.387 . S
C1327 C1329 1.387 . S
H1328 C1335 0.950 . S
C1329 C1327 1.387 . S
C1329 C1331 1.390 . S
C1329 H1333 0.950 . S
H1330 C1326 0.950 . S
C1331 C1329 1.390 . S
C1331 C1332 1.387 . S
C1331 H1334 0.950 . S
C1332 C1331 1.387 . S
C1332 C1335 1.387 . S
H1333 C1329 0.950 . S
H1334 C1331 0.950 . S
C1335 C1326 1.390 . S
C1335 H1328 0.950 . S
C1335 C1332 1.387 . S
C1336 C1337 1.387 . S
C1336 H1340 0.950 . S
C1336 C1345 1.390 . S
C1337 C1336 1.387 . S
C1337 C1339 1.387 . S
H1338 C1345 0.950 . S
C1339 C1337 1.387 . S
C1339 C1341 1.390 . S
C1339 H1343 0.950 . S
H1340 C1336 0.950 . S
C1341 C1339 1.390 . S
C1341 C1342 1.387 . S
C1341 H1344 0.950 . S
C1342 C1341 1.387 . S
C1342 C1345 1.387 . S
H1343 C1339 0.950 . S
H1344 C1341 0.950 . S
C1345 C1336 1.390 . S
C1345 H1338 0.950 . S
C1345 C1342 1.387 . S
C1346 C1347 1.387 . S
C1346 H1350 0.950 . S
C1346 C1355 1.390 . S
C1347 C1346 1.387 . S
C1347 C1349 1.387 . S
H1348 C1355 0.950 . S
C1349 C1347 1.387 . S
C1349 C1351 1.390 . S
C1349 H1353 0.950 . S
H1350 C1346 0.950 . S
C1351 C1349 1.390 . S
C1351 C1352 1.387 . S
C1351 H1354 0.950 . S
C1352 C1351 1.387 . S
C1352 C1355 1.387 . S
H1353 C1349 0.950 . S
H1354 C1351 0.950 . S
C1355 C1346 1.390 . S
C1355 H1348 0.950 . S
C1355 C1352 1.387 . S
C1356 C1357 1.387 . S
C1356 H1360 0.950 . S
C1356 C1365 1.390 . S
C1357 C1356 1.387 . S
C1357 C1359 1.387 . S
H1358 C1365 0.950 . S
C1359 C1357 1.387 . S
C1359 C1361 1.390 . S
C1359 H1363 0.950 . S
H1360 C1356 0.950 . S
C1361 C1359 1.390 . S
C1361 C1362 1.387 . S
C1361 H1364 0.950 . S
C1362 C1361 1.387 . S
C1362 C1365 1.387 . S
H1363 C1359 0.950 . S
H1364 C1361 0.950 . S
C1365 C1356 1.390 . S
C1365 H1358 0.950 . S
C1365 C1362 1.387 . S
C1366 C1367 1.387 . S
C1366 H1370 0.950 . S
C1366 C1375 1.390 . S
C1367 C1366 1.387 . S
C1367 C1369 1.387 . S
H1368 C1375 0.950 . S
C1369 C1367 1.387 . S
C1369 C1371 1.390 . S
C1369 H1373 0.950 . S
H1370 C1366 0.950 . S
C1371 C1369 1.390 . S
C1371 C1372 1.387 . S
C1371 H1374 0.950 . S
C1372 C1371 1.387 . S
C1372 C1375 1.387 . S
H1373 C1369 0.950 . S
H1374 C1371 0.950 . S
C1375 C1366 1.390 . S
C1375 H1368 0.950 . S
C1375 C1372 1.387 . S
C1376 C1377 1.387 . S
C1376 H1380 0.950 . S
C1376 C1385 1.390 . S
C1377 C1376 1.387 . S
C1377 C1379 1.387 . S
H1378 C1385 0.950 . S
C1379 C1377 1.387 . S
C1379 C1381 1.390 . S
C1379 H1383 0.950 . S
H1380 C1376 0.950 . S
C1381 C1379 1.390 . S
C1381 C1382 1.387 . S
C1381 H1384 0.950 . S
C1382 C1381 1.387 . S
C1382 C1385 1.387 . S
H1383 C1379 0.950 . S
H1384 C1381 0.950 . S
C1385 C1376 1.390 . S
C1385 H1378 0.950 . S
C1385 C1382 1.387 . S
C1386 C1387 1.387 . S
C1386 H1390 0.950 . S
C1386 C1395 1.390 . S
C1387 C1386 1.387 . S
C1387 C1389 1.387 . S
H1388 C1395 0.950 . S
C1389 C1387 1.387 . S
C1389 C1391 1.390 . S
C1389 H1393 0.950 . S
H1390 C1386 0.950 . S
C1391 C1389 1.390 . S
C1391 C1392 1.387 . S
C1391 H1394 0.950 . S
C1392 C1391 1.387 . S
C1392 C1395 1.387 . S
H1393 C1389 0.950 . S
H1394 C1391 0.950 . S
C1395 C1386 1.390 . S
C1395 H1388 0.950 . S
C1395 C1392 1.387 . S
C1396 C1397 1.387 . S
C1396 H1400 0.950 . S
C1396 C1405 1.390 . S
C1397 C1396 1.387 . S
C1397 C1399 1.387 . S
H1398 C1405 0.950 . S
C1399 C1397 1.387 . S
C1399 C1401 1.390 . S
C1399 H1403 0.950 . S
H1400 C1396 0.950 . S
C1401 C1399 1.390 . S
C1401 C1402 1.387 . S
C1401 H1404 0.950 . S
C1402 C1401 1.387 . S
C1402 C1405 1.387 . S
H1403 C1399 0.950 . S
H1404 C1401 0.950 . S
C1405 C1396 1.390 . S
C1405 H1398 0.950 . S
C1405 C1402 1.387 . S
C1406 C1407 1.387 . S
C1406 H1410 0.950 . S
C1406 C1415 1.390 . S
C1407 C1406 1.387 . S
C1407 C1409 1.387 . S
H1408 C1415 0.950 . S
C1409 C1407 1.387 . S
C1409 C1411 1.390 . S
C1409 H1413 0.950 . S
H1410 C1406 0.950 . S
C1411 C1409 1.390 . S
C1411 C1412 1.387 . S
C1411 H1414 0.950 . S
C1412 C1411 1.387 . S
C1412 C1415 1.387 . S
H1413 C1409 0.950 . S
H1414 C1411 0.950 . S
C1415 C1406 1.390 . S
C1415 H1408 0.950 . S
C1415 C1412 1.387 . S
C817 C203 0.777 . S
C822 C33 0.774 . S
C827 C67 0.775 . S
C832 C237 0.776 . S
C837 C101 0.774 . S
C842 C271 0.776 . S
C847 C169 0.776 . S
C852 C135 0.775 . S
C857 C305 0.776 . S
C862 C815 0.776 . S
C867 C747 0.776 . S
C872 C339 0.774 . S
C877 C373 0.776 . S
C882 C781 0.776 . S
C887 C577 0.776 . S
C892 C407 0.774 . S
C897 C441 0.775 . S
C902 C713 0.776 . S
C907 C475 0.776 . S
C912 C611 0.775 . S
C917 C645 0.776 . S
C922 C509 0.775 . S
C927 C543 0.774 . S
C932 C679 0.776 . S
C937 C104 1.834 . S
C942 C5 1.767 . S
C947 C39 1.769 . S
C952 C2 1.834 . S
C957 C73 1.768 . S
C962 C36 1.834 . S
C967 C70 1.834 . S
C972 C107 1.768 . S
C977 C172 1.833 . S
C982 C141 1.766 . S
C987 C175 1.769 . S
C992 C206 1.834 . S
C997 C240 1.833 . S
C1002 C209 1.766 . S
C1007 C138 1.833 . S
C1012 C243 1.766 . S
C1017 C614 1.834 . S
C1022 C277 1.769 . S
C1027 C311 1.766 . S
C1032 C648 1.833 . S
C1037 C682 1.834 . S
C1042 C345 1.768 . S
C1047 C379 1.768 . S
C1052 C580 1.834 . S
C1057 C750 1.833 . S
C1062 C413 1.766 . S
C1067 C447 1.767 . S
C1072 C546 1.834 . S
C1077 C784 1.833 . S
C1082 C481 1.766 . S
C1087 C515 1.768 . S
C1092 C716 1.834 . S
C1097 C308 1.834 . S
C1102 C549 1.767 . S
C1107 C512 1.833 . S
C1112 C583 1.766 . S
C1117 C617 1.769 . S
C1122 C410 1.834 . S
C1127 C651 1.766 . S
C1132 C444 1.833 . S
C1137 C478 1.834 . S
C1142 C685 1.769 . S
C1147 C376 1.834 . S
C1152 C719 1.767 . S
C1157 C274 1.834 . S
C1162 C753 1.769 . S
C1167 C787 1.769 . S
C1172 C342 1.834 . S
C1177 C9 1.523 . S
C1182 C564 1.541 . S
C1187 C802 1.541 . S
C1192 C43 1.524 . S
C1197 C77 1.523 . S
C1202 C734 1.541 . S
C1207 C768 1.541 . S
C1212 C111 1.524 . S
C1217 C145 1.524 . S
C1222 C598 1.541 . S
C1227 C179 1.524 . S
C1232 C632 1.541 . S
C1237 C666 1.542 . S
C1242 C213 1.523 . S
C1247 C700 1.541 . S
C1252 C247 1.524 . S
C1257 C20 1.541 . S
C1262 C281 1.523 . S
C1267 C315 1.523 . S
C1272 C54 1.541 . S
C1277 C349 1.524 . S
C1282 C88 1.541 . S
C1287 C383 1.523 . S
C1292 C122 1.541 . S
C1297 C417 1.524 . S
C1302 C156 1.541 . S
C1307 C451 1.524 . S
C1312 C190 1.541 . S
C1317 C485 1.523 . S
C1322 C224 1.541 . S
C1327 C519 1.524 . S
C1332 C258 1.541 . S
C1337 C292 1.541 . S
C1342 C553 1.523 . S
C1347 C587 1.524 . S
C1352 C428 1.541 . S
C1357 C621 1.524 . S
C1362 C462 1.541 . S
C1367 C496 1.541 . S
C1372 C655 1.524 . S
C1377 C689 1.523 . S
C1382 C530 1.541 . S
C1387 C360 1.541 . S
C1392 C723 1.523 . S
C1397 C394 1.542 . S
C1402 C757 1.523 . S
C1407 C791 1.523 . S
C1412 C326 1.541 . S
