# Generated by pormake.
# Topology qtz-x, (6)-cn, num edge types: 1
# Building blocks:
#     Node 0, Type 0, BuildingBlock: JUFBIX_clean_sbu_0, # of connection points: 6
#     Node 1, Type 0, BuildingBlock: JUFBIX_clean_sbu_0, # of connection points: 6
#     Node 2, Type 0, BuildingBlock: JUFBIX_clean_sbu_0, # of connection points: 6
#     Edge 3, Type (0, 0), BuildingBlock: MIFKUJ_clean_linker_0, # of connection points: 2
#     Edge 4, Type (0, 0), BuildingBlock: MIFKUJ_clean_linker_0, # of connection points: 2
#     Edge 5, Type (0, 0), BuildingBlock: MIFKUJ_clean_linker_0, # of connection points: 2
#     Edge 6, Type (0, 0), BuildingBlock: MIFKUJ_clean_linker_0, # of connection points: 2
#     Edge 7, Type (0, 0), BuildingBlock: MIFKUJ_clean_linker_0, # of connection points: 2
#     Edge 8, Type (0, 0), BuildingBlock: MIFKUJ_clean_linker_0, # of connection points: 2
#     Edge 9, Type (0, 0), BuildingBlock: MIFKUJ_clean_linker_0, # of connection points: 2
#     Edge 10, Type (0, 0), BuildingBlock: MIFKUJ_clean_linker_0, # of connection points: 2
#     Edge 11, Type (0, 0), BuildingBlock: MIFKUJ_clean_linker_0, # of connection points: 2
# Relax obj value: 0.446
# Max RMSD: 0.289
# Mean RMSD: 0.289
data_MOF--net-qtz-x--node1-JUFBIX_clean_sbu_0--edge1-MIFKUJ_clean_linker_0
_symmetry_space_group_name_H-M    P1
_symmetry_Int_Tables_number       1
_symmetry_cell_setting            triclinic
loop_
_symmetry_equiv_pos_as_xyz
'x, y, z'
_cell_length_a     19.532304
_cell_length_b     19.573879
_cell_length_c     53.910568
_cell_angle_alpha  89.9997
_cell_angle_beta   89.937221
_cell_angle_gamma 120.03401
loop_
_atom_site_label
_atom_site_type_symbol
_atom_site_fract_x
_atom_site_fract_y
_atom_site_fract_z
_atom_type_partial_charge
Co0 Co 0.08728 0.56144 0.15006 0.0
C1 C 0.02494 0.66095 0.15922 0.0
Co2 Co 0.96815 0.50152 0.1666 0.0
C3 C 0.21208 0.58785 0.11648 0.0
C4 C 0.24403 0.68907 0.13923 0.0
N5 N 0.18605 0.6139 0.1354 0.0
N6 N 0.2833 0.644 0.10811 0.0
C7 C 0.30369 0.70803 0.12224 0.0
H8 H 0.17743 0.53026 0.10803 0.0
H9 H 0.24161 0.7285 0.1528 0.0
C10 C 0.03041 0.40193 0.15752 0.0
N11 N 0.86887 0.44863 0.18083 0.0
C12 C 0.84725 0.46102 0.20337 0.0
C13 C 0.80469 0.38366 0.17207 0.0
N14 N 0.77271 0.40531 0.20937 0.0
C15 C 0.74553 0.35693 0.18955 0.0
C16 C 0.96413 0.50042 0.11589 0.0
O17 O 0.09081 0.4656 0.15046 0.0
O18 O 0.96954 0.40408 0.16485 0.0
O19 O 0.92184 0.48249 0.13523 0.0
O20 O 0.03895 0.53487 0.11791 0.0
O21 O 0.96693 0.59859 0.16813 0.0
H22 H 0.80249 0.35497 0.1547 0.0
H23 H 0.88689 0.50818 0.21556 0.0
O24 O 0.08302 0.65728 0.15002 0.0
O25 O 0.13438 0.58659 0.18203 0.0
O26 O 0.01576 0.52113 0.19831 0.0
C27 C 0.09024 0.56066 0.20108 0.0
H28 H 0.3568 0.76483 0.11998 0.0
H29 H 0.68919 0.30275 0.18844 0.0
Co30 Co 0.5394 0.96561 0.48291 0.0
C31 C 0.70186 0.02886 0.48977 0.0
Co32 Co 0.60045 0.08682 0.49803 0.0
C33 C 0.45826 0.84487 0.4465 0.0
C34 C 0.48015 0.79676 0.47912 0.0
N35 N 0.49006 0.86479 0.46937 0.0
N36 N 0.42988 0.7681 0.44152 0.0
C37 C 0.44251 0.73682 0.46199 0.0
H38 H 0.45588 0.88566 0.43347 0.0
H39 H 0.50036 0.7912 0.49728 0.0
C40 C 0.43791 0.02343 0.49113 0.0
N41 N 0.6491 0.18802 0.51109 0.0
C42 C 0.67869 0.21075 0.53412 0.0
C43 C 0.65317 0.25281 0.50079 0.0
N44 N 0.69917 0.28628 0.53886 0.0
C45 C 0.68383 0.3132 0.5178 0.0
C46 C 0.59461 0.08392 0.44719 0.0
O47 O 0.44082 0.96306 0.48393 0.0
O48 O 0.50138 0.08452 0.498 0.0
O49 O 0.62168 0.1296 0.46568 0.0
O50 O 0.55734 0.00999 0.45059 0.0
O51 O 0.69848 0.08803 0.49804 0.0
H52 H 0.63097 0.25495 0.48261 0.0
H53 H 0.6796 0.17095 0.54785 0.0
O54 O 0.6389 0.96909 0.48189 0.0
O55 O 0.52134 0.92282 0.51547 0.0
O56 O 0.57854 0.0429 0.53036 0.0
C57 C 0.54362 0.96899 0.53401 0.0
H58 H 0.42807 0.67602 0.46403 0.0
H59 H 0.69012 0.37093 0.51529 0.0
Co60 Co 0.49875 0.50489 0.81771 0.0
C61 C 0.39547 0.34587 0.82696 0.0
Co62 Co 0.55737 0.44449 0.83402 0.0
C63 C 0.48076 0.60504 0.78323 0.0
C64 C 0.38223 0.55187 0.80811 0.0
N65 N 0.45188 0.5563 0.80293 0.0
N66 N 0.432 0.63106 0.77572 0.0
C67 C 0.3696 0.59755 0.79129 0.0
H68 H 0.53539 0.61875 0.77397 0.0
H69 H 0.34261 0.51656 0.82284 0.0
C70 C 0.66084 0.60325 0.82488 0.0
N71 N 0.60477 0.39357 0.84838 0.0
C72 C 0.58301 0.35335 0.86989 0.0
C73 C 0.67308 0.39707 0.84203 0.0
N74 N 0.63655 0.33406 0.87802 0.0
C75 C 0.69291 0.3608 0.86021 0.0
C76 C 0.55626 0.43954 0.78334 0.0
O77 O 0.59826 0.60058 0.817 0.0
O78 O 0.65658 0.54058 0.83331 0.0
O79 O 0.57796 0.41819 0.80254 0.0
O80 O 0.51972 0.47762 0.78576 0.0
O81 O 0.45829 0.34887 0.83478 0.0
H82 H 0.7088 0.42867 0.82614 0.0
H83 H 0.531 0.34316 0.88002 0.0
O84 O 0.3993 0.40841 0.8185 0.0
O85 O 0.47872 0.53221 0.84981 0.0
O86 O 0.5371 0.4716 0.86571 0.0
C87 C 0.50216 0.51085 0.86873 0.0
H88 H 0.31828 0.60487 0.79045 0.0
H89 H 0.74813 0.36063 0.86109 0.0
H90 H 0.1526 0.81005 0.15603 0.0
H91 H 0.15334 0.93571 0.15645 0.0
H92 H 0.89925 0.81026 0.16265 0.0
H93 H 0.89809 0.6842 0.16296 0.0
H94 H 0.97536 0.93839 0.12324 0.0
H95 H 0.98253 0.88812 0.21097 0.0
H96 H 0.03678 0.85788 0.24795 0.0
H97 H 0.26104 0.06743 0.23594 0.0
H98 H 0.20843 0.09825 0.19863 0.0
H99 H 0.9036 0.25183 0.15571 0.0
H100 H 0.90503 0.12721 0.15528 0.0
H101 H 0.1596 0.256 0.15927 0.0
H102 H 0.15876 0.38095 0.15896 0.0
H103 H 0.08633 0.12715 0.19333 0.0
H104 H 0.09161 0.18305 0.10854 0.0
H105 H 0.05604 0.21653 0.06839 0.0
H106 H 0.83022 1.00369 0.07083 0.0
H107 H 0.86346 0.96998 0.11148 0.0
C108 C 0.09684 0.80914 0.15753 0.0
C109 C 0.02525 0.73707 0.15949 0.0
C110 C 0.09742 0.88102 0.15781 0.0
C111 C 0.02638 0.88233 0.1596 0.0
C112 C 0.95472 0.81054 0.16126 0.0
C113 C 0.9542 0.73863 0.16152 0.0
C114 C 0.02707 0.95872 0.1596 0.0
C115 C 0.99812 0.97906 0.13875 0.0
C116 C 0.06024 0.01325 0.17936 0.0
C117 C 0.09179 0.995 0.20185 0.0
C118 C 0.04364 0.92733 0.21607 0.0
C119 C 0.07405 0.91017 0.23712 0.0
C120 C 0.15239 0.96057 0.24425 0.0
C121 C 0.20041 0.02837 0.23037 0.0
C122 C 0.17031 0.04574 0.20928 0.0
C123 C 0.9599 0.25363 0.15646 0.0
C124 C 0.03108 0.32632 0.15734 0.0
C125 C 0.96063 0.18237 0.15616 0.0
C126 C 0.03243 0.18222 0.15724 0.0
C127 C 0.10353 0.25466 0.15846 0.0
C128 C 0.10294 0.32601 0.15818 0.0
C129 C 0.033 0.10634 0.15714 0.0
C130 C 0.06264 0.08623 0.17791 0.0
C131 C 1.00211 0.05276 0.13704 0.0
C132 C 0.97957 0.07462 0.11331 0.0
C133 C 0.03365 0.14416 0.10082 0.0
C134 C 1.01405 0.16307 0.07792 0.0
C135 C 0.94088 0.11243 0.06712 0.0
C136 C 0.88678 0.04305 0.0793 0.0
C137 C 0.9059 0.0241 0.10231 0.0
H138 H 0.92661 0.12677 0.04921 0.0
H139 H 0.17581 0.9472 0.26055 0.0
H140 H 0.40499 0.13001 0.51299 0.0
H141 H 0.27924 0.12918 0.51299 0.0
H142 H 0.17283 0.91565 0.46952 0.0
H143 H 0.29825 0.91578 0.46952 0.0
H144 H 0.13763 0.026 0.4514 0.0
H145 H 0.12905 0.90508 0.52926 0.0
H146 H 0.17415 0.89092 0.57064 0.0
H147 H 0.18021 0.10284 0.59487 0.0
H148 H 0.1361 0.11887 0.5535 0.0
H149 H 0.73436 0.92209 0.46778 0.0
H150 H 0.85974 0.9223 0.46775 0.0
H151 H 0.96704 0.1358 0.51123 0.0
H152 H 0.8419 0.13619 0.51132 0.0
H153 H 1.00157 0.02498 0.52928 0.0
H154 H 1.0089 0.14481 0.45113 0.0
H155 H 0.95931 0.15542 0.41011 0.0
H156 H 0.95394 0.9433 0.38648 0.0
H157 H 1.00239 0.93073 0.42752 0.0
C158 C 0.35481 0.08277 0.50346 0.0
C159 C 0.36163 0.02283 0.49131 0.0
C160 C 0.28287 0.08222 0.50356 0.0
C161 C 0.21643 0.02204 0.4914 0.0
C162 C 0.22326 0.96257 0.47905 0.0
C163 C 0.29494 0.9626 0.47916 0.0
C164 C 0.14016 0.02182 0.49128 0.0
C165 C 0.10731 0.02469 0.46842 0.0
C166 C 0.10147 0.02189 0.5135 0.0
C167 C 0.13006 0.01362 0.53819 0.0
C168 C 0.14093 0.94921 0.54331 0.0
C169 C 0.16609 0.94072 0.56679 0.0
C170 C 0.18013 0.99602 0.58535 0.0
C171 C 0.16936 0.0601 0.58045 0.0
C172 C 0.14423 0.06889 0.557 0.0
C173 C 0.78463 0.96922 0.47731 0.0
C174 C 0.77807 0.02924 0.48951 0.0
C175 C 0.85638 0.96939 0.47719 0.0
C176 C 0.92299 0.02938 0.48934 0.0
C177 C 0.91646 0.08898 0.50171 0.0
C178 C 0.84492 0.08925 0.50167 0.0
C179 C 0.99914 0.02934 0.48941 0.0
C180 C 0.03196 0.0264 0.51227 0.0
C181 C 0.03771 0.02907 0.46719 0.0
C182 C 1.00843 0.03635 0.4425 0.0
C183 C 0.99642 0.09999 0.43727 0.0
C184 C 0.96866 0.10645 0.414 0.0
C185 C 0.95325 0.04994 0.39572 0.0
C186 C 0.96576 0.98695 0.40067 0.0
C187 C 0.99341 0.98015 0.42393 0.0
H188 H 0.93182 0.05507 0.37771 0.0
H189 H 0.19888 0.98899 0.60358 0.0
H190 H 0.80188 0.63419 0.84534 0.0
H191 H 0.92679 0.75975 0.84562 0.0
H192 H 0.81808 0.86855 0.80408 0.0
H193 H 0.69303 0.74321 0.80361 0.0
H194 H 0.9662 0.90988 0.78624 0.0
H195 H 0.84575 0.89925 0.86529 0.0
H196 H 0.78339 0.83661 0.90506 0.0
H197 H 0.99384 0.83463 0.92674 0.0
H198 H 0.05708 0.89623 0.88692 0.0
H199 H 0.25419 0.3123 0.80593 0.0
H200 H 0.13025 0.18567 0.80574 0.0
H201 H 0.24028 0.08119 0.84878 0.0
H202 H 0.3643 0.20742 0.84908 0.0
H203 H 0.09234 0.03659 0.86603 0.0
H204 H 0.21351 0.04462 0.78842 0.0
H205 H 0.27732 0.10035 0.74822 0.0
H206 H 0.06903 0.10166 0.72353 0.0
H207 H 1.00433 0.04697 0.76378 0.0
C208 C 0.80455 0.68473 0.83619 0.0
C209 C 0.73729 0.67868 0.82455 0.0
C210 C 0.87597 0.75657 0.83644 0.0
C211 C 0.88163 0.82382 0.82508 0.0
C212 C 0.81508 0.81752 0.813 0.0
C213 C 0.74353 0.74585 0.81284 0.0
C214 C 0.9566 0.90099 0.82603 0.0
C215 C 0.9932 0.93816 0.80367 0.0
C216 C 0.99303 0.93682 0.8488 0.0
C217 C 0.95589 0.9017 0.87302 0.0
C218 C 0.87859 0.88507 0.87848 0.0
C219 C 0.84309 0.84977 0.90103 0.0
C220 C 0.88454 0.83142 0.91838 0.0
C221 C 0.96176 0.84876 0.91327 0.0
C222 C 0.9975 0.88395 0.89072 0.0
C223 C 0.25199 0.26247 0.81542 0.0
C224 C 0.31935 0.26999 0.82741 0.0
C225 C 0.18114 0.19001 0.81523 0.0
C226 C 0.1761 0.12365 0.82707 0.0
C227 C 0.24273 0.13147 0.83951 0.0
C228 C 0.31371 0.20369 0.83957 0.0
C229 C 0.10168 0.04588 0.8262 0.0
C230 C 0.06526 1.00851 0.84858 0.0
C231 C 0.06573 0.00947 0.80345 0.0
C232 C 0.10441 0.04256 0.77923 0.0
C233 C 0.18157 0.0575 0.77451 0.0
C234 C 0.21786 0.08876 0.75169 0.0
C235 C 0.17736 0.10477 0.73335 0.0
C236 C 0.10039 0.08937 0.73778 0.0
C237 C 0.06386 0.0582 0.76059 0.0
H238 H 0.20554 0.12892 0.71569 0.0
H239 H 0.85687 0.80389 0.9358 0.0
H240 H 0.52192 0.45196 0.91223 0.0
H241 H 0.49858 0.48235 0.95425 0.0
H242 H 0.4338 0.64721 0.92502 0.0
H243 H 0.45554 0.61606 0.88265 0.0
H244 H 0.54429 0.69848 0.96947 0.0
H245 H 0.29124 0.48617 0.93877 0.0
H246 H 0.20716 0.35504 0.92008 0.0
H247 H 0.26514 0.2469 0.97952 0.0
H248 H 0.35055 0.37762 -0.00164 0.0
H249 H 0.3439 0.75009 0.07106 0.0
H250 H 0.39605 0.73407 0.03158 0.0
H251 H 0.36599 0.51134 0.05708 0.0
H252 H 0.30897 0.52563 0.09589 0.0
H253 H 0.31211 0.48953 0.01456 0.0
H254 H 0.55587 0.69009 0.04783 0.0
H255 H 0.65033 0.81676 0.06733 0.0
H256 H 0.62567 0.94268 0.006 0.0
H257 H 0.53025 0.81676 0.98624 0.0
C258 C 0.50285 0.49485 0.91467 0.0
C259 C 0.48976 0.53111 0.8941 0.0
C260 C 0.48989 0.51228 0.9387 0.0
C261 C 0.46462 0.56697 0.94262 0.0
C262 C 0.45367 0.60506 0.92225 0.0
C263 C 0.46549 0.58678 0.89812 0.0
C264 C 0.44487 0.5805 0.96791 0.0
C265 C 0.49316 0.65346 0.97938 0.0
C266 C 0.38009 0.52029 0.98098 0.0
C267 C 0.32784 0.44169 0.96983 0.0
C268 C 0.28654 0.43449 0.94774 0.0
C269 C 0.23857 0.36023 0.93714 0.0
C270 C 0.23097 0.2927 0.94857 0.0
C271 C 0.27115 0.29926 0.97067 0.0
C272 C 0.31929 0.3734 0.98132 0.0
C273 C 0.34985 0.69853 0.06826 0.0
C274 C 0.32282 0.63907 0.08634 0.0
C275 C 0.38007 0.68947 0.04578 0.0
C276 C 0.38619 0.62191 0.04133 0.0
C277 C 0.36177 0.5639 0.05993 0.0
C278 C 0.3295 0.572 0.0821 0.0
C279 C 0.41134 0.60841 0.01661 0.0
C280 C 0.36387 0.53509 0.00505 0.0
C281 C 0.47821 0.66785 0.00378 0.0
C282 C 0.53527 0.74386 0.01566 0.0
C283 C 0.57005 0.74477 0.03858 0.0
C284 C 0.62388 0.81645 0.04967 0.0
C285 C 0.64382 0.8877 0.03794 0.0
C286 C 0.61009 0.88742 0.01507 0.0
C287 C 0.5562 0.8159 0.00391 0.0
H288 H 0.68553 0.94309 0.04655 0.0
H289 H 0.19383 0.23527 0.94033 0.0
H290 H 0.48261 0.02623 0.41128 0.0
H291 H 0.48668 0.08681 0.37124 0.0
H292 H 0.72446 0.27397 0.38691 0.0
H293 H 0.71763 0.21656 0.42776 0.0
H294 H 0.65105 0.3354 0.36716 0.0
H295 H 0.66739 0.10004 0.34623 0.0
H296 H 0.61914 0.95697 0.34458 0.0
H297 H 0.40747 0.91799 0.30794 0.0
H298 H 0.45416 0.06071 0.30958 0.0
H299 H 0.84765 0.45348 0.25372 0.0
H300 H 0.78972 0.40781 0.29435 0.0
H301 H 0.55831 0.2736 0.26144 0.0
H302 H 0.61615 0.32022 0.22029 0.0
H303 H 0.5947 0.18296 0.28904 0.0
H304 H 0.59573 0.42291 0.30181 0.0
H305 H 0.64909 0.56676 0.30133 0.0
H306 H 0.83221 0.59882 0.35205 0.0
H307 H 0.7806 0.45527 0.35262 0.0
C308 C 0.53584 0.08001 0.40599 0.0
C309 C 0.60024 0.11657 0.42231 0.0
C310 C 0.53824 0.11452 0.38311 0.0
C311 C 0.60642 0.18434 0.37578 0.0
C312 C 0.67104 0.22028 0.39212 0.0
C313 C 0.66754 0.18725 0.41534 0.0
C314 C 0.61146 0.2206 0.35117 0.0
C315 C 0.63926 0.30211 0.35007 0.0
C316 C 0.59224 0.17666 0.32884 0.0
C317 C 0.56391 0.09084 0.32825 0.0
C318 C 0.61031 0.06084 0.338 0.0
C319 C 0.58329 0.97986 0.33703 0.0
C320 C 0.51031 0.92849 0.32616 0.0
C321 C 0.46398 0.95787 0.31635 0.0
C322 C 0.4907 0.03875 0.31728 0.0
C323 C 0.78412 0.41656 0.25499 0.0
C324 C 0.73669 0.38987 0.23359 0.0
C325 C 0.75094 0.39044 0.27838 0.0
C326 C 0.66964 0.33753 0.28093 0.0
C327 C 0.62125 0.31443 0.25983 0.0
C328 C 0.65446 0.34074 0.23635 0.0
C329 C 0.63847 0.29823 0.30508 0.0
C330 C 0.60512 0.21604 0.30613 0.0
C331 C 0.65323 0.34162 0.32731 0.0
C332 C 0.68431 0.42815 0.32719 0.0
C333 C 0.64764 0.46063 0.31276 0.0
C334 C 0.67754 0.54215 0.31249 0.0
C335 C 0.74402 0.5919 0.32664 0.0
C336 C 0.78065 0.5602 0.34113 0.0
C337 C 0.75097 0.47872 0.34147 0.0
H338 H 0.76711 0.655 0.32639 0.0
H339 H 0.48987 0.86601 0.32516 0.0
H340 H 0.31687 0.62552 0.74627 0.0
H341 H 0.3354 0.69297 0.7065 0.0
H342 H 0.58835 0.81052 0.71619 0.0
H343 H 0.5702 0.74328 0.75591 0.0
H344 H 0.40937 0.84713 0.68978 0.0
H345 H 0.66987 0.80714 0.65957 0.0
H346 H 0.72801 0.72393 0.66965 0.0
H347 H 0.49985 0.53628 0.69233 0.0
H348 H 0.4402 0.61742 0.68178 0.0
H349 H 0.58459 0.05267 0.57731 0.0
H350 H 0.56381 1.00105 0.61954 0.0
H351 H 0.45053 0.76338 0.59099 0.0
H352 H 0.4721 0.81451 0.54857 0.0
H353 H 0.55707 0.78664 0.6268 0.0
H354 H 0.33938 0.83635 0.61641 0.0
H355 H 0.2841 0.92126 0.60539 0.0
H356 H 0.42336 0.0856 0.66234 0.0
H357 H 0.47984 1.00162 0.67357 0.0
C358 C 0.37633 0.66696 0.74018 0.0
C359 C 0.44212 0.67816 0.75403 0.0
C360 C 0.38685 0.70542 0.71745 0.0
C361 C 0.46324 0.75566 0.70823 0.0
C362 C 0.5289 0.77086 0.72277 0.0
C363 C 0.51845 0.73218 0.7454 0.0
C364 C 0.47424 0.78682 0.6826 0.0
C365 C 0.44173 0.83401 0.67602 0.0
C366 C 0.51616 0.76937 0.6646 0.0
C367 C 0.55082 0.71881 0.67021 0.0
C368 C 0.63209 0.74792 0.66657 0.0
C369 C 0.66533 0.70112 0.67235 0.0
C370 C 0.61782 0.62509 0.68177 0.0
C371 C 0.53679 0.59528 0.68513 0.0
C372 C 0.50319 0.64163 0.67923 0.0
C373 C 0.55511 0.98937 0.57997 0.0
C374 C 0.52986 0.93761 0.55957 0.0
C375 C 0.543 0.96001 0.60415 0.0
C376 C 0.50492 0.8784 0.60838 0.0
C377 C 0.47995 0.82659 0.58808 0.0
C378 C 0.49213 0.85589 0.56388 0.0
C379 C 0.49234 0.84694 0.63398 0.0
C380 C 0.52476 0.79982 0.64056 0.0
C381 C 0.4502 0.86423 0.65189 0.0
C382 C 0.41395 0.91297 0.64579 0.0
C383 C 0.35815 0.8906 0.62658 0.0
C384 C 0.32658 0.93852 0.62031 0.0
C385 C 0.35012 1.00878 0.6332 0.0
C386 C 0.40497 0.03103 0.65247 0.0
C387 C 0.43661 0.98323 0.65883 0.0
H388 H 0.32599 0.04609 0.62826 0.0
H389 H 0.64392 0.58941 0.68642 0.0
H390 H 0.54786 0.32536 0.91867 0.0
H391 H 0.5852 0.327 0.9614 0.0
H392 H 0.77886 0.29522 0.93854 0.0
H393 H 0.74102 0.29113 0.89528 0.0
H394 H 0.70718 0.22574 0.98646 0.0
H395 H 0.81338 0.47507 0.94012 0.0
H396 H 0.79336 0.56755 0.91421 0.0
H397 H 0.64937 0.58527 0.97124 0.0
H398 H 0.6675 0.4918 -0.00269 0.0
H399 H 1.01277 0.45516 0.07474 0.0
H400 H 0.93861 0.40321 0.03589 0.0
H401 H 0.75387 0.44196 0.06392 0.0
H402 H 0.82616 0.49135 0.10291 0.0
H403 H 0.80883 0.50096 0.01518 0.0
H404 H 0.71575 0.27465 0.0645 0.0
H405 H 0.71066 0.1695 0.09075 0.0
H406 H 0.80041 0.09303 0.03067 0.0
H407 H 0.81129 0.20114 0.00451 0.0
C408 C 0.59711 0.31642 0.92233 0.0
C409 C 0.64394 0.31232 0.90308 0.0
C410 C 0.61811 0.31713 0.94702 0.0
C411 C 0.68611 0.31384 0.95291 0.0
C412 C 0.72679 0.29915 0.93418 0.0
C413 C 0.70558 0.29795 0.90941 0.0
C414 C 0.72237 0.33945 0.97757 0.0
C415 C 0.73061 0.28602 0.99275 0.0
C416 C 0.74956 0.41744 0.98587 0.0
C417 C 0.74138 0.47608 0.97059 0.0
C418 C 0.77728 0.49853 0.9471 0.0
C419 C 0.7662 0.55104 0.93238 0.0
C420 C 0.71998 0.58213 0.94105 0.0
C421 C 0.68509 0.56108 0.96453 0.0
C422 C 0.69579 0.50838 0.97929 0.0
C423 C 0.95668 0.45313 0.07243 0.0
C424 C 0.92504 0.47732 0.09164 0.0
C425 C 0.9142 0.42286 0.05044 0.0
C426 C 0.84062 0.41814 0.04731 0.0
C427 C 0.81035 0.44476 0.06617 0.0
C428 C 0.8517 0.47307 0.08831 0.0
C429 C 0.79614 0.38779 0.02403 0.0
C430 C 0.78611 0.4406 0.00903 0.0
C431 C 0.76598 0.30872 0.01624 0.0
C432 C 0.76607 0.24761 0.03263 0.0
C433 C 0.73708 0.23733 0.05708 0.0
C434 C 0.73299 0.17695 0.07197 0.0
C435 C 0.75607 0.12516 0.0625 0.0
C436 C 0.78378 0.13398 0.03815 0.0
C437 C 0.78943 0.1952 0.02332 0.0
H438 H 0.75171 0.07776 0.07396 0.0
H439 H 0.71129 0.6226 0.92961 0.0
H440 H 0.24526 0.65389 0.21442 0.0
H441 H 0.30106 0.67574 0.25618 0.0
H442 H 0.06896 0.51947 0.28618 0.0
H443 H 1.01248 0.49898 0.24465 0.0
H444 H 0.14202 0.64655 0.31362 0.0
H445 H 0.2092 0.46186 0.27977 0.0
H446 H 0.26476 0.40907 0.2492 0.0
H447 H 0.49574 0.61064 0.25984 0.0
H448 H 0.44134 0.66532 0.29019 0.0
H449 H 0.29099 0.63498 0.43347 0.0
H450 H 0.22989 0.58328 0.39267 0.0
H451 H 0.43877 0.76615 0.35662 0.0
H452 H 0.49823 0.81899 0.39717 0.0
H453 H 0.37157 0.61313 0.3336 0.0
H454 H 0.30043 0.80245 0.36384 0.0
H455 H 0.24554 0.85524 0.39465 0.0
H456 H 0.02072 0.64147 0.39073 0.0
H457 H 0.07481 0.58685 0.3602 0.0
C458 C 0.20616 0.62414 0.22991 0.0
C459 C 0.12455 0.57457 0.22623 0.0
C460 C 0.23816 0.63628 0.25375 0.0
C461 C 0.18933 0.59819 0.27426 0.0
C462 C 0.10776 0.54923 0.27062 0.0
C463 C 0.07563 0.53755 0.24685 0.0
C464 C 0.22295 0.61101 0.29959 0.0
C465 C 0.19122 0.63771 0.31806 0.0
C466 C 0.28804 0.60078 0.30533 0.0
C467 C 0.32102 0.568 0.28711 0.0
C468 C 0.27173 0.49525 0.27545 0.0
C469 C 0.30304 0.46494 0.25818 0.0
C470 C 0.38369 0.50656 0.25254 0.0
C471 C 0.43325 0.57851 0.2642 0.0
C472 C 0.40223 0.60916 0.28146 0.0
C473 C 0.32388 0.66281 0.41673 0.0
C474 C 0.39867 0.7308 0.41817 0.0
C475 C 0.28921 0.63366 0.39357 0.0
C476 C 0.32987 0.67153 0.37174 0.0
C477 C 0.40658 0.73649 0.37326 0.0
C478 C 0.4403 0.76658 0.39631 0.0
C479 C 0.29052 0.64848 0.34735 0.0
C480 C 0.3215 0.62049 0.32911 0.0
C481 C 0.22464 0.65723 0.34179 0.0
C482 C 0.19193 0.69015 0.36001 0.0
C483 C 0.23953 0.76639 0.36974 0.0
C484 C 0.20853 0.7967 0.38712 0.0
C485 C 0.12977 0.75162 0.39471 0.0
C486 C 0.08178 0.67623 0.38489 0.0
C487 C 0.11257 0.64556 0.36755 0.0
H488 H 0.10586 0.77521 0.40816 0.0
H489 H 0.40782 0.48298 0.23917 0.0
H490 H 0.51455 0.47152 0.73827 0.0
H491 H 0.55427 0.44932 0.69732 0.0
H492 H 0.68605 0.35202 0.73146 0.0
H493 H 0.64514 0.37158 0.77245 0.0
H494 H 0.71275 0.51569 0.68017 0.0
H495 H 0.66665 0.20342 0.69109 0.0
H496 H 0.58371 0.08196 0.7151 0.0
H497 H 0.3992 0.14008 0.71928 0.0
H498 H 0.48064 0.26134 0.69511 0.0
H499 H 0.77165 0.26028 0.57745 0.0
H500 H 0.77095 0.29854 0.62062 0.0
H501 H 0.65613 0.42823 0.59836 0.0
H502 H 0.65659 0.39034 0.55545 0.0
H503 H 0.63882 0.25229 0.64612 0.0
H504 H 0.69102 0.57227 0.63951 0.0
H505 H 0.7743 0.69554 0.6165 0.0
H506 H 0.94573 0.62364 0.60292 0.0
H507 H 0.86422 0.50058 0.62627 0.0
C508 C 0.55163 0.44502 0.73708 0.0
C509 C 0.57685 0.42341 0.75857 0.0
C510 C 0.57475 0.43316 0.71374 0.0
C511 C 0.62371 0.40019 0.71153 0.0
C512 C 0.64812 0.37751 0.73287 0.0
C513 C 0.62464 0.38877 0.75623 0.0
C514 C 0.64989 0.3905 0.6868 0.0
C515 C 0.69589 0.45819 0.6725 0.0
C516 C 0.63047 0.31556 0.67745 0.0
C517 C 0.58025 0.24198 0.69159 0.0
C518 C 0.60834 0.19018 0.69711 0.0
C519 C 0.56166 0.12148 0.7108 0.0
C520 C 0.48643 0.10356 0.71885 0.0
C521 C 0.45767 0.15427 0.7132 0.0
C522 C 0.50415 0.22308 0.69955 0.0
C523 C 0.74769 0.2982 0.58175 0.0
C524 C 0.71353 0.32164 0.56308 0.0
C525 C 0.74745 0.3201 0.60637 0.0
C526 C 0.71354 0.36621 0.61268 0.0
C527 C 0.68384 0.39371 0.59387 0.0
C528 C 0.68423 0.37202 0.56927 0.0
C529 C 0.70015 0.37766 0.63897 0.0
C530 C 0.65651 0.31013 0.65371 0.0
C531 C 0.72152 0.45291 0.64866 0.0
C532 C 0.77107 0.52678 0.63451 0.0
C533 C 0.74665 0.58287 0.63173 0.0
C534 C 0.79355 0.65273 0.61861 0.0
C535 C 0.86515 0.6673 0.60818 0.0
C536 C 0.89009 0.61212 0.61092 0.0
C537 C 0.84349 0.54223 0.62407 0.0
H538 H 0.90139 0.72142 0.59802 0.0
H539 H 0.45027 0.05018 0.72935 0.0
loop_
_geom_bond_atom_site_label_1
_geom_bond_atom_site_label_2
_geom_bond_distance
_geom_bond_site_symmetry_2
_ccdc_geom_bond_type
Co0 N5 2.057 . S
Co0 O17 2.021 . S
Co0 O20 2.062 1_455 S
Co0 O24 2.117 . S
Co0 O25 2.020 . S
C1 O21 1.259 . S
C1 O24 1.258 1_655 S
Co2 N11 2.057 . S
Co2 O18 2.117 . S
Co2 O19 2.020 . S
Co2 O21 2.021 . S
Co2 O26 2.062 1_655 S
C3 N5 1.316 . S
C3 N6 1.347 . S
C3 H8 0.931 . S
C4 N5 1.375 . S
C4 C7 1.350 . S
C4 H9 0.930 . S
N5 Co0 2.057 . S
N5 C3 1.316 . S
N5 C4 1.375 . S
N6 C3 1.347 . S
N6 C7 1.373 . S
C7 C4 1.350 . S
C7 N6 1.373 . S
C7 H28 0.931 . S
H8 C3 0.931 . S
H9 C4 0.930 . S
C10 O17 1.259 . S
C10 O18 1.258 1_455 S
N11 Co2 2.057 . S
N11 C12 1.316 . S
N11 C13 1.375 . S
C12 N11 1.316 . S
C12 N14 1.347 . S
C12 H23 0.931 . S
C13 N11 1.375 . S
C13 C15 1.350 . S
C13 H22 0.930 . S
N14 C12 1.347 . S
N14 C15 1.373 . S
C15 C13 1.350 . S
C15 N14 1.373 . S
C15 H29 0.931 . S
C16 O19 1.256 . S
C16 O20 1.255 . S
O17 Co0 2.021 . S
O17 C10 1.259 . S
O18 Co2 2.117 . S
O18 C10 1.258 1_655 S
O19 Co2 2.020 . S
O19 C16 1.256 . S
O20 Co0 2.062 1_655 S
O20 C16 1.255 . S
O21 C1 1.259 . S
O21 Co2 2.021 . S
H22 C13 0.930 . S
H23 C12 0.931 . S
O24 Co0 2.117 . S
O24 C1 1.258 1_455 S
O25 Co0 2.020 . S
O25 C27 1.256 . S
O26 Co2 2.062 1_455 S
O26 C27 1.255 . S
C27 O25 1.256 . S
C27 O26 1.255 . S
H28 C7 0.931 . S
H29 C15 0.931 . S
Co30 N35 2.057 . S
Co30 O47 2.021 . S
Co30 O50 2.062 1_565 S
Co30 O54 2.117 . S
Co30 O55 2.020 . S
C31 O51 1.259 . S
C31 O54 1.258 1_545 S
Co32 N41 2.057 . S
Co32 O48 2.117 . S
Co32 O49 2.020 . S
Co32 O51 2.021 . S
Co32 O56 2.062 1_545 S
C33 N35 1.316 . S
C33 N36 1.347 . S
C33 H38 0.931 . S
C34 N35 1.375 . S
C34 C37 1.350 . S
C34 H39 0.930 . S
N35 Co30 2.057 . S
N35 C33 1.316 . S
N35 C34 1.375 . S
N36 C33 1.347 . S
N36 C37 1.373 . S
C37 C34 1.350 . S
C37 N36 1.373 . S
C37 H58 0.931 . S
H38 C33 0.931 . S
H39 C34 0.930 . S
C40 O47 1.259 1_545 S
C40 O48 1.258 . S
N41 Co32 2.057 . S
N41 C42 1.316 . S
N41 C43 1.375 . S
C42 N41 1.316 . S
C42 N44 1.347 . S
C42 H53 0.931 . S
C43 N41 1.375 . S
C43 C45 1.350 . S
C43 H52 0.930 . S
N44 C42 1.347 . S
N44 C45 1.373 . S
C45 C43 1.350 . S
C45 N44 1.373 . S
C45 H59 0.931 . S
C46 O49 1.256 . S
C46 O50 1.255 . S
O47 Co30 2.021 . S
O47 C40 1.259 1_565 S
O48 Co32 2.117 . S
O48 C40 1.258 . S
O49 Co32 2.020 . S
O49 C46 1.256 . S
O50 Co30 2.062 1_545 S
O50 C46 1.255 . S
O51 C31 1.259 . S
O51 Co32 2.021 . S
H52 C43 0.930 . S
H53 C42 0.931 . S
O54 Co30 2.117 . S
O54 C31 1.258 1_565 S
O55 Co30 2.020 . S
O55 C57 1.256 . S
O56 Co32 2.062 1_565 S
O56 C57 1.255 . S
C57 O55 1.256 . S
C57 O56 1.255 . S
H58 C37 0.931 . S
H59 C45 0.931 . S
Co60 N65 2.057 . S
Co60 O77 2.021 . S
Co60 O80 2.062 . S
Co60 O84 2.117 . S
Co60 O85 2.020 . S
C61 O81 1.259 . S
C61 O84 1.258 . S
Co62 N71 2.057 . S
Co62 O78 2.117 . S
Co62 O79 2.020 . S
Co62 O81 2.021 . S
Co62 O86 2.062 . S
C63 N65 1.316 . S
C63 N66 1.347 . S
C63 H68 0.931 . S
C64 N65 1.375 . S
C64 C67 1.350 . S
C64 H69 0.930 . S
N65 Co60 2.057 . S
N65 C63 1.316 . S
N65 C64 1.375 . S
N66 C63 1.347 . S
N66 C67 1.373 . S
C67 C64 1.350 . S
C67 N66 1.373 . S
C67 H88 0.931 . S
H68 C63 0.931 . S
H69 C64 0.930 . S
C70 O77 1.259 . S
C70 O78 1.258 . S
N71 Co62 2.057 . S
N71 C72 1.316 . S
N71 C73 1.375 . S
C72 N71 1.316 . S
C72 N74 1.347 . S
C72 H83 0.931 . S
C73 N71 1.375 . S
C73 C75 1.350 . S
C73 H82 0.930 . S
N74 C72 1.347 . S
N74 C75 1.373 . S
C75 C73 1.350 . S
C75 N74 1.373 . S
C75 H89 0.931 . S
C76 O79 1.256 . S
C76 O80 1.255 . S
O77 Co60 2.021 . S
O77 C70 1.259 . S
O78 Co62 2.117 . S
O78 C70 1.258 . S
O79 Co62 2.020 . S
O79 C76 1.256 . S
O80 Co60 2.062 . S
O80 C76 1.255 . S
O81 C61 1.259 . S
O81 Co62 2.021 . S
H82 C73 0.930 . S
H83 C72 0.931 . S
O84 Co60 2.117 . S
O84 C61 1.258 . S
O85 Co60 2.020 . S
O85 C87 1.256 . S
O86 Co62 2.062 . S
O86 C87 1.255 . S
C87 O85 1.256 . S
C87 O86 1.255 . S
H88 C67 0.931 . S
H89 C75 0.931 . S
H90 C108 0.951 . S
H91 C110 0.951 . S
H92 C112 0.950 . S
H93 C113 0.950 . S
H94 C115 0.950 . S
H95 C118 0.950 . S
H96 C119 0.950 . S
H97 C121 0.950 . S
H98 C122 0.950 1_545 S
H99 C123 0.951 . S
H100 C125 0.951 . S
H101 C127 0.950 . S
H102 C128 0.950 . S
H103 C130 0.950 . S
H104 C133 0.950 . S
H105 C134 0.950 . S
H106 C136 0.950 1_565 S
H107 C137 0.950 . S
C108 H90 0.951 . S
C108 C109 1.371 . S
C108 C110 1.388 . S
C109 C108 1.371 . S
C109 C113 1.373 1_455 S
C110 H91 0.951 . S
C110 C108 1.388 . S
C110 C111 1.366 1_455 S
C111 C110 1.366 1_655 S
C111 C112 1.414 . S
C111 C114 1.499 . S
C112 H92 0.950 . S
C112 C111 1.414 . S
C112 C113 1.374 . S
C113 H93 0.950 . S
C113 C109 1.373 1_655 S
C113 C112 1.374 . S
C114 C111 1.499 . S
C114 C115 1.373 . S
C114 C116 1.389 1_655 S
C115 H94 0.950 . S
C115 C114 1.373 . S
C115 C131 1.377 1_565 S
C116 C114 1.389 1_455 S
C116 C117 1.524 . S
C116 C130 1.377 1_565 S
C117 C116 1.524 . S
C117 C118 1.397 1_455 S
C117 C122 1.363 . S
C118 H95 0.950 . S
C118 C117 1.397 1_655 S
C118 C119 1.334 . S
C119 H96 0.950 . S
C119 C118 1.334 . S
C119 C120 1.287 1_655 S
C120 C119 1.287 1_455 S
C120 C121 1.524 . S
C120 H139 0.913 . S
C121 H97 0.950 . S
C121 C120 1.524 . S
C121 C122 1.415 . S
C122 H98 0.950 1_565 S
C122 C117 1.363 . S
C122 C121 1.415 . S
C123 H99 0.951 . S
C123 C124 1.363 1_655 S
C123 C125 1.388 . S
C124 C123 1.363 1_455 S
C124 C128 1.391 . S
C125 H100 0.951 . S
C125 C123 1.388 . S
C125 C126 1.366 1_655 S
C126 C125 1.366 1_455 S
C126 C127 1.414 . S
C126 C129 1.499 . S
C127 H101 0.950 . S
C127 C126 1.414 . S
C127 C128 1.374 . S
C128 H102 0.950 . S
C128 C124 1.391 . S
C128 C127 1.374 . S
C129 C126 1.499 . S
C129 C130 1.373 . S
C129 C131 1.389 1_455 S
C130 H103 0.950 . S
C130 C116 1.377 1_545 S
C130 C129 1.373 . S
C131 C115 1.377 1_545 S
C131 C129 1.389 1_655 S
C131 C132 1.524 . S
C132 C131 1.524 . S
C132 C133 1.397 1_655 S
C132 C137 1.363 1_545 S
C133 H104 0.950 . S
C133 C132 1.397 1_455 S
C133 C134 1.334 . S
C134 H105 0.950 . S
C134 C133 1.334 . S
C134 C135 1.287 1_455 S
C135 C134 1.287 1_655 S
C135 C136 1.524 . S
C135 H138 0.999 . S
C136 H106 0.950 1_545 S
C136 C135 1.524 . S
C136 C137 1.415 1_545 S
C137 H107 0.950 . S
C137 C132 1.363 1_565 S
C137 C136 1.415 1_565 S
H138 C135 0.999 . S
H139 C120 0.913 . S
H140 C158 0.951 . S
H141 C160 0.951 . S
H142 C162 0.950 . S
H143 C163 0.950 . S
H144 C165 0.950 . S
H145 C168 0.950 . S
H146 C169 0.950 . S
H147 C171 0.950 . S
H148 C172 0.950 . S
H149 C173 0.951 . S
H150 C175 0.951 . S
H151 C177 0.950 . S
H152 C178 0.950 . S
H153 C180 0.950 . S
H154 C183 0.950 . S
H155 C184 0.950 . S
H156 C186 0.950 . S
H157 C187 0.950 . S
C158 H140 0.951 . S
C158 C159 1.366 . S
C158 C160 1.388 . S
C159 C158 1.366 . S
C159 C163 1.385 . S
C160 H141 0.951 . S
C160 C158 1.388 . S
C160 C161 1.366 . S
C161 C160 1.366 . S
C161 C162 1.414 . S
C161 C164 1.499 . S
C162 H142 0.950 . S
C162 C161 1.414 . S
C162 C163 1.374 . S
C163 H143 0.950 . S
C163 C159 1.385 . S
C163 C162 1.374 . S
C164 C161 1.499 . S
C164 C165 1.373 . S
C164 C166 1.389 1_545 S
C165 H144 0.950 . S
C165 C164 1.373 . S
C165 C181 1.377 . S
C166 C164 1.389 1_565 S
C166 C167 1.524 . S
C166 C180 1.377 1_455 S
C167 C166 1.524 . S
C167 C168 1.397 . S
C167 C172 1.363 . S
C168 H145 0.950 . S
C168 C167 1.397 . S
C168 C169 1.334 . S
C169 H146 0.950 . S
C169 C168 1.334 . S
C169 C170 1.287 . S
C170 C169 1.287 . S
C170 C171 1.524 . S
C170 H189 0.913 . S
C171 H147 0.950 . S
C171 C170 1.524 . S
C171 C172 1.415 . S
C172 H148 0.950 . S
C172 C167 1.363 . S
C172 C171 1.415 . S
C173 H149 0.951 . S
C173 C174 1.366 . S
C173 C175 1.388 . S
C174 C173 1.366 . S
C174 C178 1.385 . S
C175 H150 0.951 . S
C175 C173 1.388 . S
C175 C176 1.366 . S
C176 C175 1.366 . S
C176 C177 1.414 . S
C176 C179 1.499 . S
C177 H151 0.950 . S
C177 C176 1.414 . S
C177 C178 1.374 . S
C178 H152 0.950 . S
C178 C174 1.385 . S
C178 C177 1.374 . S
C179 C176 1.499 . S
C179 C180 1.373 1_545 S
C179 C181 1.389 1_655 S
C180 H153 0.950 . S
C180 C166 1.377 1_655 S
C180 C179 1.373 1_565 S
C181 C165 1.377 . S
C181 C179 1.389 1_455 S
C181 C182 1.524 . S
C182 C181 1.524 . S
C182 C183 1.397 . S
C182 C187 1.363 . S
C183 H154 0.950 . S
C183 C182 1.397 . S
C183 C184 1.334 . S
C184 H155 0.950 . S
C184 C183 1.334 . S
C184 C185 1.287 . S
C185 C184 1.287 . S
C185 C186 1.524 . S
C185 H188 0.999 . S
C186 H156 0.950 . S
C186 C185 1.524 . S
C186 C187 1.415 . S
C187 H157 0.950 . S
C187 C182 1.363 . S
C187 C186 1.415 . S
H188 C185 0.999 . S
H189 C170 0.913 . S
H190 C208 0.951 . S
H191 C210 0.951 . S
H192 C212 0.950 . S
H193 C213 0.950 . S
H194 C215 0.951 1_655 S
H195 C218 0.950 . S
H196 C219 0.950 . S
H197 C221 0.950 . S
H198 C222 0.950 1_455 S
H199 C223 0.951 . S
H200 C225 0.951 . S
H201 C227 0.950 . S
H202 C228 0.950 . S
H203 C230 0.950 . S
H204 C233 0.950 . S
H205 C234 0.950 . S
H206 C236 0.950 . S
H207 C237 0.950 . S
C208 H190 0.951 . S
C208 C209 1.366 . S
C208 C210 1.388 . S
C209 C208 1.366 . S
C209 C213 1.385 . S
C210 H191 0.951 . S
C210 C208 1.388 . S
C210 C211 1.366 . S
C211 C210 1.366 . S
C211 C212 1.414 . S
C211 C214 1.499 . S
C212 H192 0.950 . S
C212 C211 1.414 . S
C212 C213 1.374 . S
C213 H193 0.950 . S
C213 C209 1.385 . S
C213 C212 1.374 . S
C214 C211 1.499 . S
C214 C215 1.373 1_655 S
C214 C216 1.389 . S
C215 H194 0.951 1_455 S
C215 C214 1.373 1_455 S
C215 C231 1.377 1_565 S
C216 C214 1.389 . S
C216 C217 1.524 . S
C216 C230 1.377 1_665 S
C217 C216 1.524 . S
C217 C218 1.397 . S
C217 C222 1.363 . S
C218 H195 0.950 . S
C218 C217 1.397 . S
C218 C219 1.334 . S
C219 H196 0.950 . S
C219 C218 1.334 . S
C219 C220 1.287 . S
C220 C219 1.287 . S
C220 C221 1.524 . S
C220 H239 0.913 . S
C221 H197 0.950 . S
C221 C220 1.524 . S
C221 C222 1.415 . S
C222 H198 0.950 1_655 S
C222 C217 1.363 . S
C222 C221 1.415 . S
C223 H199 0.951 . S
C223 C224 1.366 . S
C223 C225 1.388 . S
C224 C223 1.366 . S
C224 C228 1.385 . S
C225 H200 0.951 . S
C225 C223 1.388 . S
C225 C226 1.366 . S
C226 C225 1.366 . S
C226 C227 1.414 . S
C226 C229 1.499 . S
C227 H201 0.950 . S
C227 C226 1.414 . S
C227 C228 1.374 . S
C228 H202 0.950 . S
C228 C224 1.385 . S
C228 C227 1.374 . S
C229 C226 1.499 . S
C229 C230 1.373 . S
C229 C231 1.389 . S
C230 H203 0.950 . S
C230 C216 1.377 1_445 S
C230 C229 1.373 . S
C231 C215 1.377 1_545 S
C231 C229 1.389 . S
C231 C232 1.524 . S
C232 C231 1.524 . S
C232 C233 1.397 . S
C232 C237 1.363 . S
C233 H204 0.950 . S
C233 C232 1.397 . S
C233 C234 1.334 . S
C234 H205 0.950 . S
C234 C233 1.334 . S
C234 C235 1.287 . S
C235 C234 1.287 . S
C235 C236 1.524 . S
C235 H238 0.999 . S
C236 H206 0.950 . S
C236 C235 1.524 . S
C236 C237 1.415 . S
C237 H207 0.950 . S
C237 C232 1.363 . S
C237 C236 1.415 . S
H238 C235 0.999 . S
H239 C220 0.913 . S
H240 C258 0.951 . S
H241 C260 0.951 . S
H242 C262 0.950 . S
H243 C263 0.950 . S
H244 C265 0.950 . S
H245 C268 0.950 . S
H246 C269 0.950 . S
H247 C271 0.950 . S
H248 C272 0.950 . S
H249 C273 0.951 . S
H250 C275 0.951 . S
H251 C277 0.950 . S
H252 C278 0.950 . S
H253 C280 0.950 1_554 S
H254 C283 0.950 . S
H255 C284 0.950 . S
H256 C286 0.950 . S
H257 C287 0.950 . S
C258 H240 0.951 . S
C258 C259 1.366 . S
C258 C260 1.388 . S
C259 C258 1.366 . S
C259 C263 1.385 . S
C260 H241 0.951 . S
C260 C258 1.388 . S
C260 C261 1.366 . S
C261 C260 1.366 . S
C261 C262 1.414 . S
C261 C264 1.499 . S
C262 H242 0.950 . S
C262 C261 1.414 . S
C262 C263 1.374 . S
C263 H243 0.950 . S
C263 C259 1.385 . S
C263 C262 1.374 . S
C264 C261 1.499 . S
C264 C265 1.373 . S
C264 C266 1.389 . S
C265 H244 0.950 . S
C265 C264 1.373 . S
C265 C281 1.377 . S
C266 C264 1.389 . S
C266 C267 1.524 . S
C266 C280 1.377 . S
C267 C266 1.524 . S
C267 C268 1.397 . S
C267 C272 1.363 . S
C268 H245 0.950 . S
C268 C267 1.397 . S
C268 C269 1.334 . S
C269 H246 0.950 . S
C269 C268 1.334 . S
C269 C270 1.287 . S
C270 C269 1.287 . S
C270 C271 1.524 . S
C270 H289 0.913 . S
C271 H247 0.950 . S
C271 C270 1.524 . S
C271 C272 1.415 . S
C272 H248 0.950 . S
C272 C267 1.363 . S
C272 C271 1.415 . S
C273 H249 0.951 . S
C273 C274 1.366 . S
C273 C275 1.388 . S
C274 C273 1.366 . S
C274 C278 1.385 . S
C275 H250 0.951 . S
C275 C273 1.388 . S
C275 C276 1.366 . S
C276 C275 1.366 . S
C276 C277 1.414 . S
C276 C279 1.499 . S
C277 H251 0.950 . S
C277 C276 1.414 . S
C277 C278 1.374 . S
C278 H252 0.950 . S
C278 C274 1.385 . S
C278 C277 1.374 . S
C279 C276 1.499 . S
C279 C280 1.373 1_554 S
C279 C281 1.389 1_554 S
C280 H253 0.950 1_556 S
C280 C266 1.377 . S
C280 C279 1.373 1_556 S
C281 C265 1.377 . S
C281 C279 1.389 1_556 S
C281 C282 1.524 . S
C282 C281 1.524 . S
C282 C283 1.397 1_556 S
C282 C287 1.363 . S
C283 H254 0.950 . S
C283 C282 1.397 1_554 S
C283 C284 1.334 . S
C284 H255 0.950 . S
C284 C283 1.334 . S
C284 C285 1.287 . S
C285 C284 1.287 . S
C285 C286 1.524 1_554 S
C285 H288 0.999 . S
C286 H256 0.950 . S
C286 C285 1.524 1_556 S
C286 C287 1.415 . S
C287 H257 0.950 . S
C287 C282 1.363 . S
C287 C286 1.415 . S
H288 C285 0.999 . S
H289 C270 0.913 . S
H290 C308 0.951 . S
H291 C310 0.951 . S
H292 C312 0.950 . S
H293 C313 0.950 . S
H294 C315 0.950 . S
H295 C318 0.950 . S
H296 C319 0.950 . S
H297 C321 0.950 1_565 S
H298 C322 0.950 . S
H299 C323 0.951 . S
H300 C325 0.951 . S
H301 C327 0.950 . S
H302 C328 0.950 . S
H303 C330 0.950 . S
H304 C333 0.950 . S
H305 C334 0.950 . S
H306 C336 0.950 . S
H307 C337 0.950 . S
C308 H290 0.951 . S
C308 C309 1.366 . S
C308 C310 1.388 . S
C309 C308 1.366 . S
C309 C313 1.385 . S
C310 H291 0.951 . S
C310 C308 1.388 . S
C310 C311 1.366 . S
C311 C310 1.366 . S
C311 C312 1.414 . S
C311 C314 1.499 . S
C312 H292 0.950 . S
C312 C311 1.414 . S
C312 C313 1.374 . S
C313 H293 0.950 . S
C313 C309 1.385 . S
C313 C312 1.374 . S
C314 C311 1.499 . S
C314 C315 1.373 . S
C314 C316 1.389 . S
C315 H294 0.950 . S
C315 C314 1.373 . S
C315 C331 1.377 . S
C316 C314 1.389 . S
C316 C317 1.524 . S
C316 C330 1.377 . S
C317 C316 1.524 . S
C317 C318 1.397 . S
C317 C322 1.363 . S
C318 H295 0.950 . S
C318 C317 1.397 . S
C318 C319 1.334 1_545 S
C319 H296 0.950 . S
C319 C318 1.334 1_565 S
C319 C320 1.287 . S
C320 C319 1.287 . S
C320 C321 1.524 1_565 S
C320 H339 0.913 . S
C321 H297 0.950 1_545 S
C321 C320 1.524 1_545 S
C321 C322 1.415 . S
C322 H298 0.950 . S
C322 C317 1.363 . S
C322 C321 1.415 . S
C323 H299 0.951 . S
C323 C324 1.366 . S
C323 C325 1.388 . S
C324 C323 1.366 . S
C324 C328 1.385 . S
C325 H300 0.951 . S
C325 C323 1.388 . S
C325 C326 1.366 . S
C326 C325 1.366 . S
C326 C327 1.414 . S
C326 C329 1.499 . S
C327 H301 0.950 . S
C327 C326 1.414 . S
C327 C328 1.374 . S
C328 H302 0.950 . S
C328 C324 1.385 . S
C328 C327 1.374 . S
C329 C326 1.499 . S
C329 C330 1.373 . S
C329 C331 1.389 . S
C330 H303 0.950 . S
C330 C316 1.377 . S
C330 C329 1.373 . S
C331 C315 1.377 . S
C331 C329 1.389 . S
C331 C332 1.524 . S
C332 C331 1.524 . S
C332 C333 1.397 . S
C332 C337 1.363 . S
C333 H304 0.950 . S
C333 C332 1.397 . S
C333 C334 1.334 . S
C334 H305 0.950 . S
C334 C333 1.334 . S
C334 C335 1.287 . S
C335 C334 1.287 . S
C335 C336 1.524 . S
C335 H338 0.999 . S
C336 H306 0.950 . S
C336 C335 1.524 . S
C336 C337 1.415 . S
C337 H307 0.950 . S
C337 C332 1.363 . S
C337 C336 1.415 . S
H338 C335 0.999 . S
H339 C320 0.913 . S
H340 C358 0.951 . S
H341 C360 0.951 . S
H342 C362 0.950 . S
H343 C363 0.950 . S
H344 C365 0.950 . S
H345 C368 0.950 . S
H346 C369 0.950 . S
H347 C371 0.950 . S
H348 C372 0.950 . S
H349 C373 0.951 . S
H350 C375 0.951 . S
H351 C377 0.950 . S
H352 C378 0.950 . S
H353 C380 0.950 . S
H354 C383 0.950 . S
H355 C384 0.950 . S
H356 C386 0.950 1_545 S
H357 C387 0.950 . S
C358 H340 0.951 . S
C358 C359 1.366 . S
C358 C360 1.388 . S
C359 C358 1.366 . S
C359 C363 1.385 . S
C360 H341 0.951 . S
C360 C358 1.388 . S
C360 C361 1.366 . S
C361 C360 1.366 . S
C361 C362 1.414 . S
C361 C364 1.499 . S
C362 H342 0.950 . S
C362 C361 1.414 . S
C362 C363 1.374 . S
C363 H343 0.950 . S
C363 C359 1.385 . S
C363 C362 1.374 . S
C364 C361 1.499 . S
C364 C365 1.373 . S
C364 C366 1.389 . S
C365 H344 0.950 . S
C365 C364 1.373 . S
C365 C381 1.377 . S
C366 C364 1.389 . S
C366 C367 1.524 . S
C366 C380 1.377 . S
C367 C366 1.524 . S
C367 C368 1.397 . S
C367 C372 1.363 . S
C368 H345 0.950 . S
C368 C367 1.397 . S
C368 C369 1.334 . S
C369 H346 0.950 . S
C369 C368 1.334 . S
C369 C370 1.287 . S
C370 C369 1.287 . S
C370 C371 1.524 . S
C370 H389 0.913 . S
C371 H347 0.950 . S
C371 C370 1.524 . S
C371 C372 1.415 . S
C372 H348 0.950 . S
C372 C367 1.363 . S
C372 C371 1.415 . S
C373 H349 0.951 . S
C373 C374 1.366 . S
C373 C375 1.388 . S
C374 C373 1.366 . S
C374 C378 1.385 . S
C375 H350 0.951 . S
C375 C373 1.388 . S
C375 C376 1.366 . S
C376 C375 1.366 . S
C376 C377 1.414 . S
C376 C379 1.499 . S
C377 H351 0.950 . S
C377 C376 1.414 . S
C377 C378 1.374 . S
C378 H352 0.950 . S
C378 C374 1.385 . S
C378 C377 1.374 . S
C379 C376 1.499 . S
C379 C380 1.373 . S
C379 C381 1.389 . S
C380 H353 0.950 . S
C380 C366 1.377 . S
C380 C379 1.373 . S
C381 C365 1.377 . S
C381 C379 1.389 . S
C381 C382 1.524 . S
C382 C381 1.524 . S
C382 C383 1.397 . S
C382 C387 1.363 . S
C383 H354 0.950 . S
C383 C382 1.397 . S
C383 C384 1.334 . S
C384 H355 0.950 . S
C384 C383 1.334 . S
C384 C385 1.287 . S
C385 C384 1.287 . S
C385 C386 1.524 . S
C385 H388 0.999 . S
C386 H356 0.950 1_565 S
C386 C385 1.524 . S
C386 C387 1.415 . S
C387 H357 0.950 . S
C387 C382 1.363 . S
C387 C386 1.415 . S
H388 C385 0.999 . S
H389 C370 0.913 . S
H390 C408 0.951 . S
H391 C410 0.951 . S
H392 C412 0.950 . S
H393 C413 0.950 . S
H394 C415 0.950 1_556 S
H395 C418 0.950 . S
H396 C419 0.950 . S
H397 C421 0.950 . S
H398 C422 0.950 . S
H399 C423 0.951 . S
H400 C425 0.951 . S
H401 C427 0.950 . S
H402 C428 0.950 . S
H403 C430 0.950 . S
H404 C433 0.950 . S
H405 C434 0.950 . S
H406 C436 0.950 . S
H407 C437 0.950 . S
C408 H390 0.951 . S
C408 C409 1.366 . S
C408 C410 1.388 . S
C409 C408 1.366 . S
C409 C413 1.385 . S
C410 H391 0.951 . S
C410 C408 1.388 . S
C410 C411 1.366 . S
C411 C410 1.366 . S
C411 C412 1.414 . S
C411 C414 1.499 . S
C412 H392 0.950 . S
C412 C411 1.414 . S
C412 C413 1.374 . S
C413 H393 0.950 . S
C413 C409 1.385 . S
C413 C412 1.374 . S
C414 C411 1.499 . S
C414 C415 1.373 1_556 S
C414 C416 1.389 1_556 S
C415 H394 0.950 1_554 S
C415 C414 1.373 1_554 S
C415 C431 1.377 . S
C416 C414 1.389 1_554 S
C416 C417 1.524 . S
C416 C430 1.377 . S
C417 C416 1.524 . S
C417 C418 1.397 1_554 S
C417 C422 1.363 . S
C418 H395 0.950 . S
C418 C417 1.397 1_556 S
C418 C419 1.334 . S
C419 H396 0.950 . S
C419 C418 1.334 . S
C419 C420 1.287 . S
C420 C419 1.287 . S
C420 C421 1.524 1_556 S
C420 H439 0.913 . S
C421 H397 0.950 . S
C421 C420 1.524 1_554 S
C421 C422 1.415 . S
C422 H398 0.950 . S
C422 C417 1.363 . S
C422 C421 1.415 . S
C423 H399 0.951 . S
C423 C424 1.366 . S
C423 C425 1.388 . S
C424 C423 1.366 . S
C424 C428 1.385 . S
C425 H400 0.951 . S
C425 C423 1.388 . S
C425 C426 1.366 . S
C426 C425 1.366 . S
C426 C427 1.414 . S
C426 C429 1.499 . S
C427 H401 0.950 . S
C427 C426 1.414 . S
C427 C428 1.374 . S
C428 H402 0.950 . S
C428 C424 1.385 . S
C428 C427 1.374 . S
C429 C426 1.499 . S
C429 C430 1.373 . S
C429 C431 1.389 . S
C430 H403 0.950 . S
C430 C416 1.377 . S
C430 C429 1.373 . S
C431 C415 1.377 . S
C431 C429 1.389 . S
C431 C432 1.524 . S
C432 C431 1.524 . S
C432 C433 1.397 . S
C432 C437 1.363 . S
C433 H404 0.950 . S
C433 C432 1.397 . S
C433 C434 1.334 . S
C434 H405 0.950 . S
C434 C433 1.334 . S
C434 C435 1.287 . S
C435 C434 1.287 . S
C435 C436 1.524 . S
C435 H438 0.999 . S
C436 H406 0.950 . S
C436 C435 1.524 . S
C436 C437 1.415 . S
C437 H407 0.950 . S
C437 C432 1.363 . S
C437 C436 1.415 . S
H438 C435 0.999 . S
H439 C420 0.913 . S
H440 C458 0.951 . S
H441 C460 0.951 . S
H442 C462 0.950 . S
H443 C463 0.950 . S
H444 C465 0.950 . S
H445 C468 0.950 . S
H446 C469 0.950 . S
H447 C471 0.950 . S
H448 C472 0.950 . S
H449 C473 0.951 . S
H450 C475 0.951 . S
H451 C477 0.950 . S
H452 C478 0.950 . S
H453 C480 0.950 . S
H454 C483 0.950 . S
H455 C484 0.950 . S
H456 C486 0.950 . S
H457 C487 0.950 . S
C458 H440 0.951 . S
C458 C459 1.366 . S
C458 C460 1.388 . S
C459 C458 1.366 . S
C459 C463 1.385 . S
C460 H441 0.951 . S
C460 C458 1.388 . S
C460 C461 1.366 . S
C461 C460 1.366 . S
C461 C462 1.414 . S
C461 C464 1.499 . S
C462 H442 0.950 . S
C462 C461 1.414 . S
C462 C463 1.374 . S
C463 H443 0.950 . S
C463 C459 1.385 . S
C463 C462 1.374 . S
C464 C461 1.499 . S
C464 C465 1.373 . S
C464 C466 1.389 . S
C465 H444 0.950 . S
C465 C464 1.373 . S
C465 C481 1.377 . S
C466 C464 1.389 . S
C466 C467 1.524 . S
C466 C480 1.377 . S
C467 C466 1.524 . S
C467 C468 1.397 . S
C467 C472 1.363 . S
C468 H445 0.950 . S
C468 C467 1.397 . S
C468 C469 1.334 . S
C469 H446 0.950 . S
C469 C468 1.334 . S
C469 C470 1.287 . S
C470 C469 1.287 . S
C470 C471 1.524 . S
C470 H489 0.913 . S
C471 H447 0.950 . S
C471 C470 1.524 . S
C471 C472 1.415 . S
C472 H448 0.950 . S
C472 C467 1.363 . S
C472 C471 1.415 . S
C473 H449 0.951 . S
C473 C474 1.366 . S
C473 C475 1.388 . S
C474 C473 1.366 . S
C474 C478 1.385 . S
C475 H450 0.951 . S
C475 C473 1.388 . S
C475 C476 1.366 . S
C476 C475 1.366 . S
C476 C477 1.414 . S
C476 C479 1.499 . S
C477 H451 0.950 . S
C477 C476 1.414 . S
C477 C478 1.374 . S
C478 H452 0.950 . S
C478 C474 1.385 . S
C478 C477 1.374 . S
C479 C476 1.499 . S
C479 C480 1.373 . S
C479 C481 1.389 . S
C480 H453 0.950 . S
C480 C466 1.377 . S
C480 C479 1.373 . S
C481 C465 1.377 . S
C481 C479 1.389 . S
C481 C482 1.524 . S
C482 C481 1.524 . S
C482 C483 1.397 . S
C482 C487 1.363 . S
C483 H454 0.950 . S
C483 C482 1.397 . S
C483 C484 1.334 . S
C484 H455 0.950 . S
C484 C483 1.334 . S
C484 C485 1.287 . S
C485 C484 1.287 . S
C485 C486 1.524 . S
C485 H488 0.999 . S
C486 H456 0.950 . S
C486 C485 1.524 . S
C486 C487 1.415 . S
C487 H457 0.950 . S
C487 C482 1.363 . S
C487 C486 1.415 . S
H488 C485 0.999 . S
H489 C470 0.913 . S
H490 C508 0.951 . S
H491 C510 0.951 . S
H492 C512 0.950 . S
H493 C513 0.950 . S
H494 C515 0.950 . S
H495 C518 0.950 . S
H496 C519 0.950 . S
H497 C521 0.950 . S
H498 C522 0.950 . S
H499 C523 0.951 . S
H500 C525 0.951 . S
H501 C527 0.950 . S
H502 C528 0.950 . S
H503 C530 0.950 . S
H504 C533 0.950 . S
H505 C534 0.950 . S
H506 C536 0.950 . S
H507 C537 0.950 . S
C508 H490 0.951 . S
C508 C509 1.366 . S
C508 C510 1.388 . S
C509 C508 1.366 . S
C509 C513 1.385 . S
C510 H491 0.951 . S
C510 C508 1.388 . S
C510 C511 1.366 . S
C511 C510 1.366 . S
C511 C512 1.414 . S
C511 C514 1.499 . S
C512 H492 0.950 . S
C512 C511 1.414 . S
C512 C513 1.374 . S
C513 H493 0.950 . S
C513 C509 1.385 . S
C513 C512 1.374 . S
C514 C511 1.499 . S
C514 C515 1.373 . S
C514 C516 1.389 . S
C515 H494 0.950 . S
C515 C514 1.373 . S
C515 C531 1.377 . S
C516 C514 1.389 . S
C516 C517 1.524 . S
C516 C530 1.377 . S
C517 C516 1.524 . S
C517 C518 1.397 . S
C517 C522 1.363 . S
C518 H495 0.950 . S
C518 C517 1.397 . S
C518 C519 1.334 . S
C519 H496 0.950 . S
C519 C518 1.334 . S
C519 C520 1.287 . S
C520 C519 1.287 . S
C520 C521 1.524 . S
C520 H539 0.913 . S
C521 H497 0.950 . S
C521 C520 1.524 . S
C521 C522 1.415 . S
C522 H498 0.950 . S
C522 C517 1.363 . S
C522 C521 1.415 . S
C523 H499 0.951 . S
C523 C524 1.366 . S
C523 C525 1.388 . S
C524 C523 1.366 . S
C524 C528 1.385 . S
C525 H500 0.951 . S
C525 C523 1.388 . S
C525 C526 1.366 . S
C526 C525 1.366 . S
C526 C527 1.414 . S
C526 C529 1.499 . S
C527 H501 0.950 . S
C527 C526 1.414 . S
C527 C528 1.374 . S
C528 H502 0.950 . S
C528 C524 1.385 . S
C528 C527 1.374 . S
C529 C526 1.499 . S
C529 C530 1.373 . S
C529 C531 1.389 . S
C530 H503 0.950 . S
C530 C516 1.377 . S
C530 C529 1.373 . S
C531 C515 1.377 . S
C531 C529 1.389 . S
C531 C532 1.524 . S
C532 C531 1.524 . S
C532 C533 1.397 . S
C532 C537 1.363 . S
C533 H504 0.950 . S
C533 C532 1.397 . S
C533 C534 1.334 . S
C534 H505 0.950 . S
C534 C533 1.334 . S
C534 C535 1.287 . S
C535 C534 1.287 . S
C535 C536 1.524 . S
C535 H538 0.999 . S
C536 H506 0.950 . S
C536 C535 1.524 . S
C536 C537 1.415 . S
C537 H507 0.950 . S
C537 C532 1.363 . S
C537 C536 1.415 . S
H538 C535 0.999 . S
H539 C520 0.913 . S
C109 C1 1.691 1_455 S
C124 C10 1.682 . S
C159 C40 1.685 . S
C174 C31 1.685 . S
C209 C70 1.685 . S
C224 C61 1.685 . S
C259 C87 0.894 . S
C274 N6 0.898 . S
C309 C46 0.668 . S
C324 N14 0.682 . S
C359 N66 0.898 . S
C374 C57 0.893 . S
C409 N74 0.685 . S
C424 C16 0.667 . S
C459 C27 0.893 . S
C474 N36 0.898 . S
C509 C76 0.667 . S
C524 N44 0.683 . S
