# Generated by pormake.
# Topology sog, (5)-cn, num edge types: 1
# Building blocks:
#     Node 0, Type 0, BuildingBlock: XOMCOT_clean_sbu_0, # of connection points: 5
#     Node 1, Type 0, BuildingBlock: XOMCOT_clean_sbu_0, # of connection points: 5
#     Node 2, Type 0, BuildingBlock: XOMCOT_clean_sbu_0, # of connection points: 5
#     Node 3, Type 0, BuildingBlock: XOMCOT_clean_sbu_0, # of connection points: 5
#     Node 4, Type 0, BuildingBlock: XOMCOT_clean_sbu_0, # of connection points: 5
#     Node 5, Type 0, BuildingBlock: XOMCOT_clean_sbu_0, # of connection points: 5
#     Node 6, Type 0, BuildingBlock: XOMCOT_clean_sbu_0, # of connection points: 5
#     Node 7, Type 0, BuildingBlock: XOMCOT_clean_sbu_0, # of connection points: 5
#     Node 8, Type 0, BuildingBlock: XOMCOT_clean_sbu_0, # of connection points: 5
#     Node 9, Type 0, BuildingBlock: XOMCOT_clean_sbu_0, # of connection points: 5
#     Node 10, Type 0, BuildingBlock: XOMCOT_clean_sbu_0, # of connection points: 5
#     Node 11, Type 0, BuildingBlock: XOMCOT_clean_sbu_0, # of connection points: 5
#     Node 12, Type 0, BuildingBlock: XOMCOT_clean_sbu_0, # of connection points: 5
#     Node 13, Type 0, BuildingBlock: XOMCOT_clean_sbu_0, # of connection points: 5
#     Node 14, Type 0, BuildingBlock: XOMCOT_clean_sbu_0, # of connection points: 5
#     Node 15, Type 0, BuildingBlock: XOMCOT_clean_sbu_0, # of connection points: 5
#     Node 16, Type 0, BuildingBlock: XOMCOT_clean_sbu_0, # of connection points: 5
#     Node 17, Type 0, BuildingBlock: XOMCOT_clean_sbu_0, # of connection points: 5
#     Node 18, Type 0, BuildingBlock: XOMCOT_clean_sbu_0, # of connection points: 5
#     Node 19, Type 0, BuildingBlock: XOMCOT_clean_sbu_0, # of connection points: 5
#     Node 20, Type 0, BuildingBlock: XOMCOT_clean_sbu_0, # of connection points: 5
#     Node 21, Type 0, BuildingBlock: XOMCOT_clean_sbu_0, # of connection points: 5
#     Node 22, Type 0, BuildingBlock: XOMCOT_clean_sbu_0, # of connection points: 5
#     Node 23, Type 0, BuildingBlock: XOMCOT_clean_sbu_0, # of connection points: 5
#     Node 24, Type 0, BuildingBlock: XOMCOT_clean_sbu_0, # of connection points: 5
#     Node 25, Type 0, BuildingBlock: XOMCOT_clean_sbu_0, # of connection points: 5
#     Node 26, Type 0, BuildingBlock: XOMCOT_clean_sbu_0, # of connection points: 5
#     Node 27, Type 0, BuildingBlock: XOMCOT_clean_sbu_0, # of connection points: 5
#     Node 28, Type 0, BuildingBlock: XOMCOT_clean_sbu_0, # of connection points: 5
#     Node 29, Type 0, BuildingBlock: XOMCOT_clean_sbu_0, # of connection points: 5
#     Node 30, Type 0, BuildingBlock: XOMCOT_clean_sbu_0, # of connection points: 5
#     Node 31, Type 0, BuildingBlock: XOMCOT_clean_sbu_0, # of connection points: 5
#     Edge 32, Type (0, 0), BuildingBlock: CIFDUS_clean_linker_0, # of connection points: 2
#     Edge 33, Type (0, 0), BuildingBlock: CIFDUS_clean_linker_0, # of connection points: 2
#     Edge 34, Type (0, 0), BuildingBlock: CIFDUS_clean_linker_0, # of connection points: 2
#     Edge 35, Type (0, 0), BuildingBlock: CIFDUS_clean_linker_0, # of connection points: 2
#     Edge 36, Type (0, 0), BuildingBlock: CIFDUS_clean_linker_0, # of connection points: 2
#     Edge 37, Type (0, 0), BuildingBlock: CIFDUS_clean_linker_0, # of connection points: 2
#     Edge 38, Type (0, 0), BuildingBlock: CIFDUS_clean_linker_0, # of connection points: 2
#     Edge 39, Type (0, 0), BuildingBlock: CIFDUS_clean_linker_0, # of connection points: 2
#     Edge 40, Type (0, 0), BuildingBlock: CIFDUS_clean_linker_0, # of connection points: 2
#     Edge 41, Type (0, 0), BuildingBlock: CIFDUS_clean_linker_0, # of connection points: 2
#     Edge 42, Type (0, 0), BuildingBlock: CIFDUS_clean_linker_0, # of connection points: 2
#     Edge 43, Type (0, 0), BuildingBlock: CIFDUS_clean_linker_0, # of connection points: 2
#     Edge 44, Type (0, 0), BuildingBlock: CIFDUS_clean_linker_0, # of connection points: 2
#     Edge 45, Type (0, 0), BuildingBlock: CIFDUS_clean_linker_0, # of connection points: 2
#     Edge 46, Type (0, 0), BuildingBlock: CIFDUS_clean_linker_0, # of connection points: 2
#     Edge 47, Type (0, 0), BuildingBlock: CIFDUS_clean_linker_0, # of connection points: 2
#     Edge 48, Type (0, 0), BuildingBlock: CIFDUS_clean_linker_0, # of connection points: 2
#     Edge 49, Type (0, 0), BuildingBlock: CIFDUS_clean_linker_0, # of connection points: 2
#     Edge 50, Type (0, 0), BuildingBlock: CIFDUS_clean_linker_0, # of connection points: 2
#     Edge 51, Type (0, 0), BuildingBlock: CIFDUS_clean_linker_0, # of connection points: 2
#     Edge 52, Type (0, 0), BuildingBlock: CIFDUS_clean_linker_0, # of connection points: 2
#     Edge 53, Type (0, 0), BuildingBlock: CIFDUS_clean_linker_0, # of connection points: 2
#     Edge 54, Type (0, 0), BuildingBlock: CIFDUS_clean_linker_0, # of connection points: 2
#     Edge 55, Type (0, 0), BuildingBlock: CIFDUS_clean_linker_0, # of connection points: 2
#     Edge 56, Type (0, 0), BuildingBlock: CIFDUS_clean_linker_0, # of connection points: 2
#     Edge 57, Type (0, 0), BuildingBlock: CIFDUS_clean_linker_0, # of connection points: 2
#     Edge 58, Type (0, 0), BuildingBlock: CIFDUS_clean_linker_0, # of connection points: 2
#     Edge 59, Type (0, 0), BuildingBlock: CIFDUS_clean_linker_0, # of connection points: 2
#     Edge 60, Type (0, 0), BuildingBlock: CIFDUS_clean_linker_0, # of connection points: 2
#     Edge 61, Type (0, 0), BuildingBlock: CIFDUS_clean_linker_0, # of connection points: 2
#     Edge 62, Type (0, 0), BuildingBlock: CIFDUS_clean_linker_0, # of connection points: 2
#     Edge 63, Type (0, 0), BuildingBlock: CIFDUS_clean_linker_0, # of connection points: 2
#     Edge 64, Type (0, 0), BuildingBlock: CIFDUS_clean_linker_0, # of connection points: 2
#     Edge 65, Type (0, 0), BuildingBlock: CIFDUS_clean_linker_0, # of connection points: 2
#     Edge 66, Type (0, 0), BuildingBlock: CIFDUS_clean_linker_0, # of connection points: 2
#     Edge 67, Type (0, 0), BuildingBlock: CIFDUS_clean_linker_0, # of connection points: 2
#     Edge 68, Type (0, 0), BuildingBlock: CIFDUS_clean_linker_0, # of connection points: 2
#     Edge 69, Type (0, 0), BuildingBlock: CIFDUS_clean_linker_0, # of connection points: 2
#     Edge 70, Type (0, 0), BuildingBlock: CIFDUS_clean_linker_0, # of connection points: 2
#     Edge 71, Type (0, 0), BuildingBlock: CIFDUS_clean_linker_0, # of connection points: 2
#     Edge 72, Type (0, 0), BuildingBlock: CIFDUS_clean_linker_0, # of connection points: 2
#     Edge 73, Type (0, 0), BuildingBlock: CIFDUS_clean_linker_0, # of connection points: 2
#     Edge 74, Type (0, 0), BuildingBlock: CIFDUS_clean_linker_0, # of connection points: 2
#     Edge 75, Type (0, 0), BuildingBlock: CIFDUS_clean_linker_0, # of connection points: 2
#     Edge 76, Type (0, 0), BuildingBlock: CIFDUS_clean_linker_0, # of connection points: 2
#     Edge 77, Type (0, 0), BuildingBlock: CIFDUS_clean_linker_0, # of connection points: 2
#     Edge 78, Type (0, 0), BuildingBlock: CIFDUS_clean_linker_0, # of connection points: 2
#     Edge 79, Type (0, 0), BuildingBlock: CIFDUS_clean_linker_0, # of connection points: 2
#     Edge 80, Type (0, 0), BuildingBlock: CIFDUS_clean_linker_0, # of connection points: 2
#     Edge 81, Type (0, 0), BuildingBlock: CIFDUS_clean_linker_0, # of connection points: 2
#     Edge 82, Type (0, 0), BuildingBlock: CIFDUS_clean_linker_0, # of connection points: 2
#     Edge 83, Type (0, 0), BuildingBlock: CIFDUS_clean_linker_0, # of connection points: 2
#     Edge 84, Type (0, 0), BuildingBlock: CIFDUS_clean_linker_0, # of connection points: 2
#     Edge 85, Type (0, 0), BuildingBlock: CIFDUS_clean_linker_0, # of connection points: 2
#     Edge 86, Type (0, 0), BuildingBlock: CIFDUS_clean_linker_0, # of connection points: 2
#     Edge 87, Type (0, 0), BuildingBlock: CIFDUS_clean_linker_0, # of connection points: 2
#     Edge 88, Type (0, 0), BuildingBlock: CIFDUS_clean_linker_0, # of connection points: 2
#     Edge 89, Type (0, 0), BuildingBlock: CIFDUS_clean_linker_0, # of connection points: 2
#     Edge 90, Type (0, 0), BuildingBlock: CIFDUS_clean_linker_0, # of connection points: 2
#     Edge 91, Type (0, 0), BuildingBlock: CIFDUS_clean_linker_0, # of connection points: 2
#     Edge 92, Type (0, 0), BuildingBlock: CIFDUS_clean_linker_0, # of connection points: 2
#     Edge 93, Type (0, 0), BuildingBlock: CIFDUS_clean_linker_0, # of connection points: 2
#     Edge 94, Type (0, 0), BuildingBlock: CIFDUS_clean_linker_0, # of connection points: 2
#     Edge 95, Type (0, 0), BuildingBlock: CIFDUS_clean_linker_0, # of connection points: 2
#     Edge 96, Type (0, 0), BuildingBlock: CIFDUS_clean_linker_0, # of connection points: 2
#     Edge 97, Type (0, 0), BuildingBlock: CIFDUS_clean_linker_0, # of connection points: 2
#     Edge 98, Type (0, 0), BuildingBlock: CIFDUS_clean_linker_0, # of connection points: 2
#     Edge 99, Type (0, 0), BuildingBlock: CIFDUS_clean_linker_0, # of connection points: 2
#     Edge 100, Type (0, 0), BuildingBlock: CIFDUS_clean_linker_0, # of connection points: 2
#     Edge 101, Type (0, 0), BuildingBlock: CIFDUS_clean_linker_0, # of connection points: 2
#     Edge 102, Type (0, 0), BuildingBlock: CIFDUS_clean_linker_0, # of connection points: 2
#     Edge 103, Type (0, 0), BuildingBlock: CIFDUS_clean_linker_0, # of connection points: 2
#     Edge 104, Type (0, 0), BuildingBlock: CIFDUS_clean_linker_0, # of connection points: 2
#     Edge 105, Type (0, 0), BuildingBlock: CIFDUS_clean_linker_0, # of connection points: 2
#     Edge 106, Type (0, 0), BuildingBlock: CIFDUS_clean_linker_0, # of connection points: 2
#     Edge 107, Type (0, 0), BuildingBlock: CIFDUS_clean_linker_0, # of connection points: 2
#     Edge 108, Type (0, 0), BuildingBlock: CIFDUS_clean_linker_0, # of connection points: 2
#     Edge 109, Type (0, 0), BuildingBlock: CIFDUS_clean_linker_0, # of connection points: 2
#     Edge 110, Type (0, 0), BuildingBlock: CIFDUS_clean_linker_0, # of connection points: 2
#     Edge 111, Type (0, 0), BuildingBlock: CIFDUS_clean_linker_0, # of connection points: 2
# Relax obj value: 0.171
# Max RMSD: 0.189
# Mean RMSD: 0.189
data_MOF--net-sog--node1-XOMCOT_clean_sbu_0--edge1-CIFDUS_clean_linker_0
_symmetry_space_group_name_H-M    P1
_symmetry_Int_Tables_number       1
_symmetry_cell_setting            triclinic
loop_
_symmetry_equiv_pos_as_xyz
'x, y, z'
_cell_length_a     73.811509
_cell_length_b     15.564519
_cell_length_c     105.56724
_cell_angle_alpha  89.999016
_cell_angle_beta   90.010478
_cell_angle_gamma 90.042985
loop_
_atom_site_label
_atom_site_type_symbol
_atom_site_fract_x
_atom_site_fract_y
_atom_site_fract_z
_atom_type_partial_charge
Co0 Co 0.44965 0.09092 0.04588 0.0
C1 C 0.44652 0.90592 0.04949 0.0
C2 C 0.42285 0.95573 0.04024 0.0
C3 C 0.42165 0.8672 0.04057 0.0
N4 N 0.43848 0.97931 0.04582 0.0
N5 N 0.4366 0.83631 0.04637 0.0
H6 H 0.45995 0.90346 0.0536 0.0
H7 H 0.41346 0.99935 0.03572 0.0
C8 C 0.42131 0.2114 0.05537 0.0
O9 O 0.43369 0.24702 0.06262 0.0
N10 N 0.46101 0.20367 0.04545 0.0
C11 C 0.47685 0.23026 0.05049 0.0
C12 C 0.47834 0.3177 0.04885 0.0
C13 C 0.45375 0.27454 0.0401 0.0
N14 N 0.46363 0.3456 0.0425 0.0
C15 C 0.4704 0.06674 0.06889 0.0
C16 C 0.44101 0.06235 0.08508 0.0
C17 C 0.45846 0.05913 0.09024 0.0
C18 C 0.47329 0.05861 0.08195 0.0
C19 C 0.43877 0.06934 0.072 0.0
N20 N 0.45336 0.07829 0.06413 0.0
H21 H 0.48187 0.06216 0.06261 0.0
H22 H 0.42519 0.06644 0.06825 0.0
H23 H 0.48669 0.19055 0.05519 0.0
H24 H 0.44075 0.27505 0.03536 0.0
O25 O 0.4718 0.03947 0.03968 0.0
O26 O 0.44969 0.09043 0.02761 0.0
O27 O 0.42514 0.14647 0.04844 0.0
C28 C 0.46533 0.05227 0.02835 0.0
H29 H 0.4109 0.8286 0.03654 0.0
H30 H 0.48918 0.35794 0.05239 0.0
H31 H 0.42914 0.05797 0.09108 0.0
H32 H 0.48699 0.05276 0.08552 0.0
Co33 Co 0.80204 0.1139 0.04259 0.0
C34 C 0.80607 0.30467 0.04289 0.0
C35 C 0.83134 0.24156 0.03919 0.0
C36 C 0.83393 0.32901 0.03838 0.0
N37 N 0.81388 0.22604 0.04207 0.0
N38 N 0.818 0.3692 0.04057 0.0
H39 H 0.79177 0.31405 0.04462 0.0
H40 H 0.84147 0.19289 0.03744 0.0
C41 C 0.83076 1.00113 0.05361 0.0
O42 O 0.81871 0.97293 0.06177 0.0
N43 N 0.78999 1.0007 0.04246 0.0
C44 C 0.77203 0.98508 0.04334 0.0
C45 C 0.76901 0.89788 0.04292 0.0
C46 C 0.79735 0.92179 0.04048 0.0
N47 N 0.785 0.85756 0.04132 0.0
C48 C 0.78229 0.11693 0.0663 0.0
C49 C 0.81177 0.1579 0.08129 0.0
C50 C 0.79517 0.13958 0.08704 0.0
C51 C 0.7802 0.12062 0.07944 0.0
C52 C 0.81332 0.15228 0.06814 0.0
N53 N 0.79891 0.12732 0.06084 0.0
H54 H 0.77047 0.10632 0.06059 0.0
H55 H 0.82632 0.1654 0.06386 0.0
H56 H 0.76158 0.03342 0.04396 0.0
H57 H 0.81145 0.91103 0.0384 0.0
O58 O 0.77997 0.16754 0.03698 0.0
O59 O 0.80116 0.11452 0.02428 0.0
O60 O 0.82642 0.05634 0.04515 0.0
C61 C 0.7858 0.15509 0.0255 0.0
H62 H 0.84665 0.36001 0.03613 0.0
H63 H 0.75592 0.86688 0.04359 0.0
H64 H 0.82354 0.1742 0.08694 0.0
H65 H 0.76704 0.10869 0.08363 0.0
Co66 Co 0.44977 0.07988 0.21052 0.0
C67 C 0.44582 0.26678 0.20637 0.0
C68 C 0.42376 0.21584 0.21713 0.0
C69 C 0.42231 0.30415 0.21696 0.0
N70 N 0.43835 0.19219 0.21025 0.0
N71 N 0.43625 0.33575 0.21016 0.0
H72 H 0.45897 0.27211 0.20206 0.0
H73 H 0.41539 0.17226 0.22256 0.0
C74 C 0.41109 0.04064 0.20339 0.0
O75 O 0.41049 0.1103 0.19638 0.0
N76 N 0.46107 0.96878 0.2112 0.0
C77 C 0.47646 0.94398 0.20542 0.0
C78 C 0.47789 0.85589 0.20642 0.0
C79 C 0.45355 0.89655 0.21584 0.0
N80 N 0.46341 0.82648 0.21293 0.0
C81 C 0.46426 0.13401 0.18635 0.0
C82 C 0.44505 0.01835 0.17172 0.0
C83 C 0.4554 0.0816 0.16573 0.0
C84 C 0.46548 0.13857 0.17315 0.0
C85 C 0.44403 0.01694 0.18493 0.0
N86 N 0.45251 0.07839 0.19208 0.0
H87 H 0.473 0.17447 0.19191 0.0
H88 H 0.43649 0.9657 0.18935 0.0
H89 H 0.48543 0.98627 0.20024 0.0
H90 H 0.4405 0.89456 0.2205 0.0
O91 O 0.47239 0.13415 0.21531 0.0
O92 O 0.45133 0.08878 0.22872 0.0
O93 O 0.42544 0.02101 0.2095 0.0
C94 C 0.46682 0.12692 0.22698 0.0
H95 H 0.41228 0.34212 0.22192 0.0
H96 H 0.48837 0.8163 0.20226 0.0
H97 H 0.43759 0.97135 0.16622 0.0
H98 H 0.47422 0.18602 0.16878 0.0
Co99 Co 0.80475 0.16951 0.20641 0.0
C100 C 0.8065 0.98321 0.20295 0.0
C101 C 0.83205 0.03394 0.20885 0.0
C102 C 0.83263 0.94592 0.20995 0.0
N103 N 0.81569 0.05747 0.20429 0.0
N104 N 0.81639 0.91466 0.20642 0.0
H105 H 0.79223 0.97947 0.20085 0.0
H106 H 0.84216 0.07758 0.21253 0.0
C107 C 0.84142 0.21548 0.19627 0.0
O108 O 0.83928 0.15697 0.18742 0.0
N109 N 0.79408 0.28012 0.20905 0.0
C110 C 0.77804 0.30877 0.20469 0.0
C111 C 0.77773 0.39692 0.20594 0.0
C112 C 0.80303 0.34968 0.21318 0.0
N113 N 0.79362 0.42216 0.21109 0.0
C114 C 0.78966 0.12322 0.18207 0.0
C115 C 0.80395 0.26077 0.16887 0.0
C116 C 0.79445 0.19741 0.16214 0.0
C117 C 0.78678 0.12929 0.16902 0.0
C118 C 0.80625 0.25277 0.18193 0.0
N119 N 0.80019 0.18169 0.18827 0.0
H120 H 0.78308 0.07227 0.18716 0.0
H121 H 0.81323 0.30357 0.18692 0.0
H122 H 0.76804 0.26943 0.19995 0.0
H123 H 0.81673 0.348 0.21681 0.0
O124 O 0.78228 0.11588 0.21149 0.0
O125 O 0.8048 0.15014 0.22448 0.0
O126 O 0.82928 0.226 0.20475 0.0
C127 C 0.78888 0.11549 0.22292 0.0
H128 H 0.84341 0.90891 0.21425 0.0
H129 H 0.76739 0.43947 0.20226 0.0
H130 H 0.80996 0.31539 0.1641 0.0
H131 H 0.77849 0.08116 0.16439 0.0
Co132 Co 0.54064 0.80016 0.95643 0.0
C133 C 0.54496 0.99211 0.95648 0.0
C134 C 0.56741 0.92796 0.96512 0.0
C135 C 0.56972 0.01522 0.96654 0.0
N136 N 0.55211 0.91288 0.95851 0.0
N137 N 0.55554 0.05598 0.96115 0.0
H138 H 0.53168 1.00313 0.9526 0.0
H139 H 0.57596 0.87872 0.96917 0.0
C140 C 0.57935 0.76507 0.94858 0.0
O141 O 0.58042 0.83952 0.94277 0.0
N142 N 0.52923 0.6883 0.9547 0.0
C143 C 0.51286 0.67253 0.9496 0.0
C144 C 0.51049 0.58487 0.94869 0.0
C145 C 0.53654 0.60997 0.95694 0.0
N146 N 0.52544 0.5453 0.95323 0.0
C147 C 0.52584 0.87724 0.93387 0.0
C148 C 0.54469 0.7774 0.91673 0.0
C149 C 0.53359 0.8434 0.91216 0.0
C150 C 0.5237 0.89223 0.9209 0.0
C151 C 0.54623 0.76391 0.92976 0.0
N152 N 0.53779 0.8171 0.93821 0.0
H153 H 0.51756 0.91305 0.94039 0.0
H154 H 0.554 0.70945 0.93296 0.0
H155 H 0.50352 0.72144 0.94638 0.0
H156 H 0.54999 0.60048 0.96076 0.0
O157 O 0.51809 0.84926 0.96235 0.0
O158 O 0.53919 0.7912 0.97461 0.0
O159 O 0.56485 0.7423 0.95424 0.0
C160 C 0.52373 0.83078 0.97372 0.0
H161 H 0.58083 0.04577 0.97148 0.0
H162 H 0.4987 0.55294 0.94481 0.0
H163 H 0.55189 0.7355 0.91026 0.0
H164 H 0.51454 0.94218 0.91775 0.0
Co165 Co 0.20462 0.94356 0.96015 0.0
C166 C 0.20182 0.75691 0.95862 0.0
C167 C 0.18028 0.81012 0.96965 0.0
C168 C 0.18047 0.72248 0.97146 0.0
N169 N 0.19361 0.83152 0.96147 0.0
N170 N 0.19426 0.68983 0.96464 0.0
H171 H 0.21415 0.75205 0.95328 0.0
H172 H 0.17217 0.85572 0.97489 0.0
C173 C 0.16511 0.97862 0.95459 0.0
O174 O 0.16344 0.90446 0.94877 0.0
N175 N 0.21539 0.05496 0.95943 0.0
C176 C 0.22876 0.08454 0.95195 0.0
C177 C 0.22952 0.1727 0.95329 0.0
C178 C 0.20854 0.12365 0.96538 0.0
N179 N 0.21661 0.1968 0.96165 0.0
C180 C 0.21761 0.88031 0.93616 0.0
C181 C 0.19533 0.97907 0.92104 0.0
C182 C 0.20589 0.91486 0.91538 0.0
C183 C 0.21758 0.86703 0.92309 0.0
C184 C 0.19576 0.9899 0.93417 0.0
N185 N 0.20574 0.93617 0.94168 0.0
H186 H 0.2274 0.84618 0.94179 0.0
H187 H 0.18814 0.04222 0.93819 0.0
H188 H 0.23658 0.04576 0.94544 0.0
H189 H 0.19721 0.12013 0.97185 0.0
O190 O 0.22783 0.89353 0.96439 0.0
O191 O 0.20785 0.94265 0.97829 0.0
O192 O 0.18014 1.00076 0.9596 0.0
C193 C 0.22331 0.90515 0.97618 0.0
H194 H 0.17221 0.6869 0.97812 0.0
H195 H 0.238 0.21595 0.94787 0.0
H196 H 0.18657 0.01983 0.91542 0.0
H197 H 0.22679 0.82037 0.91904 0.0
Co198 Co 0.54684 0.94213 0.79281 0.0
C199 C 0.55154 0.7558 0.7969 0.0
C200 C 0.57177 0.80629 0.78444 0.0
C201 C 0.57321 0.71797 0.78456 0.0
N202 N 0.55833 0.83015 0.79235 0.0
N203 N 0.56041 0.68658 0.7924 0.0
H204 H 0.53925 0.75099 0.80233 0.0
H205 H 0.57927 0.84976 0.7784 0.0
C206 C 0.58635 0.98185 0.79805 0.0
O207 O 0.58841 0.90905 0.80417 0.0
N208 N 0.53543 0.05312 0.7929 0.0
C209 C 0.5208 0.07793 0.79958 0.0
C210 C 0.51932 0.16611 0.79874 0.0
C211 C 0.54241 0.12546 0.7879 0.0
N212 N 0.53298 0.19557 0.79142 0.0
C213 C 0.5327 0.88716 0.81697 0.0
C214 C 0.55521 0.98669 0.83184 0.0
C215 C 0.54388 0.92656 0.83772 0.0
C216 C 0.53202 0.87859 0.83015 0.0
C217 C 0.55529 0.99373 0.81866 0.0
N218 N 0.54517 0.93948 0.81131 0.0
H219 H 0.52312 0.85141 0.81134 0.0
H220 H 0.56339 0.04387 0.81449 0.0
H221 H 0.51242 0.0356 0.80521 0.0
H222 H 0.55486 0.12742 0.78249 0.0
O223 O 0.52402 0.88788 0.78839 0.0
O224 O 0.54427 0.93663 0.77466 0.0
O225 O 0.57107 1.00212 0.79324 0.0
C226 C 0.52897 0.89737 0.77663 0.0
H227 H 0.5824 0.67986 0.77889 0.0
H228 H 0.50939 0.2057 0.80351 0.0
H229 H 0.56388 0.02839 0.83739 0.0
H230 H 0.52261 0.83333 0.83432 0.0
Co231 Co 0.20003 0.87864 0.79491 0.0
C232 C 0.19489 0.06566 0.7984 0.0
C233 C 0.1763 0.01381 0.78484 0.0
C234 C 0.17443 0.10193 0.78497 0.0
N235 N 0.18896 0.991 0.79343 0.0
N236 N 0.18617 0.13406 0.79353 0.0
H237 H 0.20642 0.07158 0.80456 0.0
H238 H 0.16953 0.9697 0.7785 0.0
C239 C 0.16012 0.8439 0.79884 0.0
O240 O 0.15814 0.91749 0.80477 0.0
N241 N 0.21094 0.76702 0.79598 0.0
C242 C 0.22474 0.74163 0.80343 0.0
C243 C 0.22608 0.65337 0.8027 0.0
C244 C 0.20432 0.6951 0.79065 0.0
N245 N 0.21318 0.62464 0.79468 0.0
C246 C 0.21291 0.93796 0.81895 0.0
C247 C 0.18983 0.84349 0.83409 0.0
C248 C 0.2014 0.90379 0.83974 0.0
C249 C 0.21337 0.94958 0.83201 0.0
C250 C 0.1897 0.83451 0.82088 0.0
N251 N 0.20033 0.88569 0.8134 0.0
H252 H 0.22285 0.97131 0.81333 0.0
H253 H 0.18125 0.78524 0.81682 0.0
H254 H 0.23267 0.78366 0.80942 0.0
H255 H 0.19252 0.69382 0.78456 0.0
O256 O 0.22337 0.92919 0.79144 0.0
O257 O 0.20444 0.8807 0.77681 0.0
O258 O 0.17557 0.82091 0.79462 0.0
C259 C 0.21978 0.9179 0.77952 0.0
H260 H 0.16564 0.13946 0.77891 0.0
H261 H 0.2354 0.61326 0.80796 0.0
H262 H 0.18082 0.80441 0.83978 0.0
H263 H 0.2232 0.99347 0.83605 0.0
Co264 Co 0.4579 0.67983 0.54589 0.0
C265 C 0.45491 0.49493 0.54937 0.0
C266 C 0.43088 0.54466 0.54058 0.0
C267 C 0.42976 0.45606 0.54088 0.0
N268 N 0.44668 0.56829 0.5459 0.0
N269 N 0.44494 0.42525 0.5464 0.0
H270 H 0.46848 0.49264 0.55324 0.0
H271 H 0.4213 0.58831 0.53626 0.0
C272 C 0.43088 0.7965 0.5575 0.0
O273 O 0.44423 0.82259 0.56481 0.0
N274 N 0.46923 0.79273 0.5453 0.0
C275 C 0.48589 0.81865 0.54894 0.0
C276 C 0.48721 0.90623 0.54729 0.0
C277 C 0.46123 0.8641 0.54066 0.0
N278 N 0.47159 0.93456 0.54219 0.0
C279 C 0.47974 0.66111 0.56863 0.0
C280 C 0.45084 0.63739 0.58488 0.0
C281 C 0.46833 0.6421 0.58998 0.0
C282 C 0.48296 0.65224 0.58164 0.0
C283 C 0.44828 0.64685 0.57188 0.0
N284 N 0.46248 0.66508 0.56401 0.0
H285 H 0.49114 0.66177 0.56229 0.0
H286 H 0.43472 0.64008 0.56816 0.0
H287 H 0.49659 0.77822 0.55243 0.0
H288 H 0.44764 0.86525 0.53681 0.0
O289 O 0.47967 0.62839 0.53924 0.0
O290 O 0.45718 0.68004 0.52757 0.0
O291 O 0.43366 0.73681 0.54935 0.0
C292 C 0.47278 0.64105 0.52804 0.0
H293 H 0.41889 0.41739 0.53702 0.0
H294 H 0.49869 0.94614 0.54978 0.0
H295 H 0.43912 0.62757 0.59089 0.0
H296 H 0.49678 0.65133 0.58509 0.0
Co297 Co 0.7823 0.57389 0.5392 0.0
C298 C 0.78646 0.76586 0.53903 0.0
C299 C 0.81085 0.70263 0.5334 0.0
C300 C 0.81322 0.78996 0.53204 0.0
N301 N 0.79424 0.68682 0.53822 0.0
N302 N 0.79784 0.83009 0.53556 0.0
H303 H 0.7723 0.77624 0.54104 0.0
H304 H 0.82035 0.65412 0.53034 0.0
C305 C 0.81979 0.52864 0.54804 0.0
O306 O 0.82006 0.59692 0.55536 0.0
N307 N 0.77034 0.4623 0.53966 0.0
C308 C 0.7535 0.44684 0.54396 0.0
C309 C 0.75079 0.35927 0.54443 0.0
C310 C 0.77758 0.3837 0.53743 0.0
N311 N 0.76601 0.31917 0.54046 0.0
C312 C 0.77204 0.65036 0.56324 0.0
C313 C 0.78483 0.51718 0.57805 0.0
C314 C 0.77831 0.59127 0.58407 0.0
C315 C 0.77147 0.65774 0.57645 0.0
C316 C 0.78545 0.51328 0.56487 0.0
N317 N 0.77991 0.581 0.55759 0.0
H318 H 0.76603 0.70037 0.55765 0.0
H319 H 0.79062 0.4555 0.56052 0.0
H320 H 0.74408 0.49579 0.54704 0.0
H321 H 0.79132 0.37386 0.53422 0.0
O322 O 0.75988 0.62787 0.53397 0.0
O323 O 0.78074 0.57407 0.52106 0.0
O324 O 0.80624 0.51299 0.5409 0.0
C325 C 0.76543 0.61441 0.52241 0.0
H326 H 0.82523 0.82096 0.52835 0.0
H327 H 0.73859 0.32787 0.54773 0.0
H328 H 0.78945 0.46222 0.58343 0.0
H329 H 0.76597 0.71578 0.58057 0.0
Co330 Co 0.45487 0.57887 0.70997 0.0
C331 C 0.44975 0.77087 0.71239 0.0
C332 C 0.42839 0.71153 0.7018 0.0
C333 C 0.42544 0.79894 0.70211 0.0
N334 N 0.44368 0.69321 0.70824 0.0
N335 N 0.43888 0.83677 0.70878 0.0
H336 H 0.46209 0.77964 0.71772 0.0
H337 H 0.42027 0.6652 0.6967 0.0
C338 C 0.42348 0.46011 0.70203 0.0
O339 O 0.43428 0.4064 0.69624 0.0
N340 N 0.466 0.46566 0.71245 0.0
C341 C 0.48346 0.4464 0.70997 0.0
C342 C 0.48612 0.35979 0.71186 0.0
C343 C 0.45859 0.39068 0.7165 0.0
N344 N 0.47042 0.32415 0.71579 0.0
C345 C 0.46284 0.65203 0.68516 0.0
C346 C 0.46414 0.49989 0.67187 0.0
C347 C 0.46451 0.57697 0.66509 0.0
C348 C 0.46458 0.65394 0.67195 0.0
C349 C 0.4624 0.50102 0.68501 0.0
N350 N 0.46023 0.57633 0.69156 0.0
H351 H 0.46352 0.71243 0.6901 0.0
H352 H 0.46302 0.43998 0.68966 0.0
H353 H 0.49333 0.49139 0.70631 0.0
H354 H 0.44471 0.38421 0.71963 0.0
O355 O 0.47708 0.63124 0.71566 0.0
O356 O 0.45432 0.59259 0.72818 0.0
O357 O 0.42963 0.52713 0.70763 0.0
C358 C 0.47035 0.62694 0.72706 0.0
H359 H 0.41452 0.83197 0.69733 0.0
H360 H 0.49845 0.32504 0.70974 0.0
H361 H 0.46518 0.43866 0.66704 0.0
H362 H 0.46548 0.71535 0.66717 0.0
Co363 Co 0.79926 0.62944 0.70371 0.0
C364 C 0.80333 0.44464 0.70005 0.0
C365 C 0.82522 0.49481 0.71121 0.0
C366 C 0.82647 0.40624 0.71101 0.0
N367 N 0.81067 0.51827 0.70434 0.0
N368 N 0.81263 0.37507 0.704 0.0
H369 H 0.79067 0.44193 0.69489 0.0
H370 H 0.83368 0.5385 0.71655 0.0
C371 C 0.82798 0.75207 0.69593 0.0
O372 O 0.81627 0.77939 0.68745 0.0
N373 N 0.78761 0.74182 0.70357 0.0
C374 C 0.77261 0.76858 0.69741 0.0
C375 C 0.77101 0.85617 0.69885 0.0
C376 C 0.79415 0.81295 0.70934 0.0
N377 N 0.78476 0.88412 0.70617 0.0
C378 C 0.78188 0.60592 0.67952 0.0
C379 C 0.81317 0.59799 0.66525 0.0
C380 C 0.79641 0.59306 0.65901 0.0
C381 C 0.78063 0.59496 0.66641 0.0
C382 C 0.81376 0.60744 0.6784 0.0
N383 N 0.79824 0.61799 0.68529 0.0
H384 H 0.76964 0.60168 0.68504 0.0
H385 H 0.82681 0.60585 0.68301 0.0
H386 H 0.76348 0.72902 0.69203 0.0
H387 H 0.80642 0.81359 0.71494 0.0
O388 O 0.77645 0.57613 0.70778 0.0
O389 O 0.79606 0.62507 0.72195 0.0
O390 O 0.82388 0.68832 0.70308 0.0
C391 C 0.78078 0.58609 0.71961 0.0
H392 H 0.8364 0.3678 0.71598 0.0
H393 H 0.76083 0.8965 0.69449 0.0
H394 H 0.82581 0.59483 0.66008 0.0
H395 H 0.76739 0.58592 0.6622 0.0
Co396 Co 0.54372 0.34494 0.45724 0.0
C397 C 0.5464 0.53181 0.45289 0.0
C398 C 0.57091 0.4817 0.46077 0.0
C399 C 0.57218 0.57004 0.46043 0.0
N400 N 0.55484 0.45752 0.45578 0.0
N401 N 0.55671 0.60107 0.45544 0.0
H402 H 0.53233 0.53655 0.45031 0.0
H403 H 0.58054 0.43871 0.46516 0.0
C404 C 0.58111 0.30225 0.44782 0.0
O405 O 0.57983 0.36393 0.43936 0.0
N406 N 0.53271 0.23362 0.45904 0.0
C407 C 0.51634 0.20899 0.45475 0.0
C408 C 0.51499 0.12103 0.45595 0.0
C409 C 0.54096 0.16136 0.46299 0.0
N410 N 0.53054 0.09145 0.46108 0.0
C411 C 0.52775 0.39528 0.43326 0.0
C412 C 0.54453 0.27025 0.41887 0.0
C413 C 0.53439 0.33369 0.41265 0.0
C414 C 0.52544 0.39516 0.4201 0.0
C415 C 0.54636 0.27259 0.43203 0.0
N416 N 0.5392 0.33849 0.43898 0.0
H417 H 0.52002 0.44008 0.4388 0.0
H418 H 0.55375 0.22139 0.43659 0.0
H419 H 0.50654 0.25132 0.45039 0.0
H420 H 0.55478 0.15908 0.46639 0.0
O421 O 0.52144 0.39893 0.46293 0.0
O422 O 0.54409 0.35779 0.47533 0.0
O423 O 0.56808 0.28779 0.45547 0.0
C424 C 0.52829 0.39393 0.47429 0.0
H425 H 0.58324 0.60842 0.46408 0.0
H426 H 0.50376 0.08162 0.45282 0.0
H427 H 0.55138 0.22001 0.41365 0.0
H428 H 0.51658 0.44242 0.41583 0.0
Co429 Co 0.20005 0.40711 0.45788 0.0
C430 C 0.19609 0.21503 0.45801 0.0
C431 C 0.17221 0.27826 0.46466 0.0
C432 C 0.16988 0.19104 0.46601 0.0
N433 N 0.18844 0.29398 0.45926 0.0
N434 N 0.18494 0.15093 0.46187 0.0
H435 H 0.21003 0.2046 0.45536 0.0
H436 H 0.16297 0.32674 0.4681 0.0
C437 C 0.16217 0.44857 0.44986 0.0
O438 O 0.16264 0.38257 0.4421 0.0
N439 N 0.21163 0.51924 0.45695 0.0
C440 C 0.22846 0.5348 0.45262 0.0
C441 C 0.23107 0.62231 0.45197 0.0
C442 C 0.20423 0.59774 0.45895 0.0
N443 N 0.21578 0.66214 0.45585 0.0
C444 C 0.21002 0.33282 0.43374 0.0
C445 C 0.19403 0.45919 0.41912 0.0
C446 C 0.20132 0.38689 0.41317 0.0
C447 C 0.21 0.32458 0.42055 0.0
C448 C 0.19469 0.46563 0.43226 0.0
N449 N 0.2014 0.39995 0.43947 0.0
H450 H 0.21706 0.28552 0.43927 0.0
H451 H 0.18924 0.52268 0.43665 0.0
H452 H 0.23799 0.4859 0.4497 0.0
H453 H 0.19041 0.60766 0.462 0.0
O454 O 0.22294 0.35506 0.46219 0.0
O455 O 0.20302 0.40677 0.47599 0.0
O456 O 0.17567 0.4651 0.45704 0.0
C457 C 0.21838 0.36803 0.47395 0.0
H458 H 0.15813 0.16008 0.47011 0.0
H459 H 0.24324 0.65396 0.44867 0.0
H460 H 0.18781 0.51016 0.41365 0.0
H461 H 0.21632 0.26921 0.41618 0.0
Co462 Co 0.54381 0.4361 0.29304 0.0
C463 C 0.54875 0.24456 0.29473 0.0
C464 C 0.57105 0.30685 0.2856 0.0
C465 C 0.57368 0.21936 0.28499 0.0
N466 N 0.55568 0.3235 0.29207 0.0
N467 N 0.55961 0.17992 0.29069 0.0
H468 H 0.53562 0.23381 0.2989 0.0
H469 H 0.57936 0.35484 0.281 0.0
C470 C 0.58258 0.48 0.29971 0.0
O471 O 0.58406 0.41002 0.30659 0.0
N472 N 0.53198 0.54766 0.29365 0.0
C473 C 0.51557 0.5642 0.29862 0.0
C474 C 0.51278 0.6518 0.29858 0.0
C475 C 0.53895 0.62559 0.29061 0.0
N476 N 0.52752 0.69073 0.29359 0.0
C477 C 0.5309 0.37065 0.31698 0.0
C478 C 0.54837 0.48979 0.33205 0.0
C479 C 0.53785 0.42608 0.33792 0.0
C480 C 0.52885 0.36662 0.33014 0.0
C481 C 0.54991 0.49187 0.31887 0.0
N482 N 0.54199 0.43021 0.31149 0.0
H483 H 0.52299 0.3277 0.31122 0.0
H484 H 0.55716 0.5448 0.31466 0.0
H485 H 0.50653 0.51608 0.30246 0.0
H486 H 0.55219 0.63455 0.28643 0.0
O487 O 0.5212 0.38136 0.28841 0.0
O488 O 0.54133 0.43378 0.27486 0.0
O489 O 0.56787 0.49736 0.29389 0.0
C490 C 0.52614 0.39309 0.27669 0.0
H491 H 0.58462 0.18721 0.28007 0.0
H492 H 0.50105 0.68432 0.30242 0.0
H493 H 0.55541 0.53808 0.33756 0.0
H494 H 0.51988 0.3187 0.33415 0.0
Co495 Co 0.19682 0.38313 0.29371 0.0
C496 C 0.19512 0.57007 0.29653 0.0
C497 C 0.1709 0.51904 0.28831 0.0
C498 C 0.17053 0.60672 0.28705 0.0
N499 N 0.18619 0.49602 0.29449 0.0
N500 N 0.18592 0.63802 0.29206 0.0
H501 H 0.20886 0.57413 0.2999 0.0
H502 H 0.16159 0.47489 0.28383 0.0
C503 C 0.15926 0.353 0.30279 0.0
O504 O 0.16222 0.41703 0.31064 0.0
N505 N 0.20726 0.27172 0.29229 0.0
C506 C 0.22297 0.24366 0.29728 0.0
C507 C 0.22346 0.15562 0.29607 0.0
C508 C 0.19867 0.20223 0.28788 0.0
N509 N 0.20804 0.13017 0.29031 0.0
C510 C 0.21182 0.43153 0.31785 0.0
C511 C 0.19531 0.30342 0.33183 0.0
C512 C 0.20637 0.36314 0.33801 0.0
C513 C 0.21502 0.4266 0.33085 0.0
C514 C 0.19279 0.30963 0.31876 0.0
N515 N 0.2001 0.3763 0.31202 0.0
H516 H 0.21929 0.47818 0.31247 0.0
H517 H 0.18506 0.26004 0.31407 0.0
H518 H 0.23266 0.28353 0.30223 0.0
H519 H 0.18534 0.20392 0.28364 0.0
O520 O 0.21984 0.43274 0.28942 0.0
O521 O 0.19863 0.39825 0.27546 0.0
O522 O 0.17169 0.33018 0.29502 0.0
C523 C 0.21452 0.43179 0.27771 0.0
H524 H 0.16067 0.64355 0.28174 0.0
H525 H 0.23362 0.11331 0.30004 0.0
H526 H 0.18891 0.25158 0.33703 0.0
H527 H 0.22406 0.47251 0.33528 0.0
Co528 Co 0.9493 0.21114 0.54251 0.0
C529 C 0.94444 0.01909 0.54329 0.0
C530 C 0.92323 0.08218 0.53309 0.0
C531 C 0.92063 0.99474 0.53221 0.0
N532 N 0.93786 0.0982 0.5404 0.0
N533 N 0.93401 0.95486 0.5386 0.0
H534 H 0.95701 0.00786 0.54819 0.0
H535 H 0.91538 0.13072 0.52825 0.0
C536 C 0.91015 0.24926 0.54804 0.0
O537 O 0.90876 0.17697 0.5544 0.0
N538 N 0.96071 0.32303 0.54422 0.0
C539 C 0.97636 0.33986 0.55026 0.0
C540 C 0.97911 0.42747 0.55036 0.0
C541 C 0.95414 0.40067 0.54069 0.0
N542 N 0.9651 0.466 0.54438 0.0
C543 C 0.96009 0.13942 0.56652 0.0
C544 C 0.93983 0.24897 0.58145 0.0
C545 C 0.94929 0.18165 0.58723 0.0
C546 C 0.95999 0.12803 0.57965 0.0
C547 C 0.94053 0.25866 0.56832 0.0
N548 N 0.9495 0.20044 0.56092 0.0
H549 H 0.96899 0.10004 0.56092 0.0
H550 H 0.93394 0.31371 0.56417 0.0
H551 H 0.98492 0.29187 0.55463 0.0
H552 H 0.94157 0.40917 0.53559 0.0
O553 O 0.9724 0.15941 0.5387 0.0
O554 O 0.95344 0.2136 0.52448 0.0
O555 O 0.92503 0.27022 0.54271 0.0
C556 C 0.96856 0.17371 0.52685 0.0
H557 H 0.91018 0.96299 0.52674 0.0
H558 H 0.99029 0.46029 0.5549 0.0
H559 H 0.93214 0.29446 0.58705 0.0
H560 H 0.96802 0.07707 0.5838 0.0
Co561 Co 0.29906 0.07948 0.53954 0.0
C562 C 0.30327 0.27199 0.54042 0.0
C563 C 0.32782 0.209 0.53507 0.0
C564 C 0.33056 0.29636 0.53448 0.0
N565 N 0.31089 0.1928 0.53929 0.0
N566 N 0.31511 0.33626 0.53785 0.0
H567 H 0.28913 0.28296 0.54242 0.0
H568 H 0.33736 0.161 0.53191 0.0
C569 C 0.33589 0.0347 0.54915 0.0
O570 O 0.33427 0.09756 0.55739 0.0
N571 N 0.28736 0.96745 0.53926 0.0
C572 C 0.27025 0.95027 0.54287 0.0
C573 C 0.26748 0.86276 0.54231 0.0
C574 C 0.29479 0.89004 0.53654 0.0
N575 N 0.28293 0.82468 0.53839 0.0
C576 C 0.28702 0.14927 0.56341 0.0
C577 C 0.29843 0.01346 0.57823 0.0
C578 C 0.29053 0.08491 0.58416 0.0
C579 C 0.2846 0.15297 0.5765 0.0
C580 C 0.30083 0.0131 0.56511 0.0
N581 N 0.29586 0.08216 0.55789 0.0
H582 H 0.28138 0.19982 0.55775 0.0
H583 H 0.30673 0.95692 0.56075 0.0
H584 H 0.26062 0.99783 0.54609 0.0
H585 H 0.30863 0.88153 0.53343 0.0
O586 O 0.27668 0.13318 0.53461 0.0
O587 O 0.29766 0.08499 0.52131 0.0
O588 O 0.32325 0.02028 0.54116 0.0
C589 C 0.28219 0.12362 0.52299 0.0
H590 H 0.34274 0.32793 0.53117 0.0
H591 H 0.25521 0.8296 0.54507 0.0
H592 H 0.30258 0.95769 0.58362 0.0
H593 H 0.27822 0.20926 0.58054 0.0
Co594 Co 0.94933 0.10859 0.7065 0.0
C595 C 0.94582 0.29599 0.70253 0.0
C596 C 0.92397 0.24517 0.71356 0.0
C597 C 0.92235 0.33321 0.71323 0.0
N598 N 0.93852 0.22175 0.70663 0.0
N599 N 0.93615 0.3647 0.70628 0.0
H600 H 0.95879 0.30122 0.69794 0.0
H601 H 0.91563 0.20148 0.71899 0.0
C602 C 0.91117 0.08082 0.69813 0.0
O603 O 0.91311 0.14942 0.691 0.0
N604 N 0.96001 0.99663 0.70683 0.0
C605 C 0.97575 0.97211 0.7015 0.0
C606 C 0.97719 0.8842 0.70259 0.0
C607 C 0.95225 0.92465 0.71127 0.0
N608 N 0.96238 0.85494 0.70872 0.0
C609 C 0.96555 0.16281 0.68301 0.0
C610 C 0.94604 0.05474 0.66737 0.0
C611 C 0.95791 0.11439 0.66193 0.0
C612 C 0.96818 0.16703 0.66993 0.0
C613 C 0.94408 0.05178 0.68052 0.0
N614 N 0.95269 0.11011 0.68813 0.0
H615 H 0.97422 0.20092 0.68899 0.0
H616 H 0.93575 1.00168 0.68451 0.0
H617 H 0.9851 0.01463 0.69671 0.0
H618 H 0.93899 0.92266 0.71563 0.0
O619 O 0.97216 0.15836 0.71154 0.0
O620 O 0.95079 0.1145 0.72479 0.0
O621 O 0.92441 0.05462 0.70493 0.0
C622 C 0.9666 0.15006 0.72315 0.0
H623 H 0.91226 0.37112 0.71813 0.0
H624 H 0.98798 0.84461 0.69883 0.0
H625 H 0.93854 0.00995 0.66152 0.0
H626 H 0.97799 0.21188 0.66611 0.0
Co627 Co 0.29391 0.13399 0.70447 0.0
C628 C 0.29772 0.94876 0.7015 0.0
C629 C 0.31815 0.99853 0.71399 0.0
C630 C 0.31936 0.91003 0.71387 0.0
N631 N 0.30455 0.0221 0.70624 0.0
N632 N 0.30645 0.87923 0.70602 0.0
H633 H 0.28582 0.94623 0.69552 0.0
H634 H 0.32603 0.04218 0.71975 0.0
C635 C 0.32515 0.2522 0.69926 0.0
O636 O 0.31523 0.2917 0.69072 0.0
N637 N 0.28294 0.24688 0.70308 0.0
C638 C 0.26898 0.27299 0.69578 0.0
C639 C 0.26689 0.36025 0.69719 0.0
C640 C 0.28836 0.31783 0.70938 0.0
N641 N 0.27928 0.38845 0.7056 0.0
C642 C 0.27982 0.10441 0.67941 0.0
C643 C 0.31283 0.09924 0.66714 0.0
C644 C 0.29698 0.08939 0.65995 0.0
C645 C 0.28031 0.09033 0.66634 0.0
C646 C 0.3117 0.11168 0.6802 0.0
N647 N 0.2953 0.11991 0.6861 0.0
H648 H 0.26693 0.10019 0.68417 0.0
H649 H 0.32415 0.11237 0.68553 0.0
H650 H 0.26088 0.23301 0.6897 0.0
H651 H 0.29965 0.31871 0.71592 0.0
O652 O 0.27028 0.08437 0.70741 0.0
O653 O 0.28856 0.13423 0.72237 0.0
O654 O 0.3189 0.18734 0.7053 0.0
C655 C 0.27335 0.09688 0.7194 0.0
H656 H 0.32864 0.87137 0.71939 0.0
H657 H 0.25731 0.40022 0.69214 0.0
H658 H 0.32609 0.0973 0.66278 0.0
H659 H 0.26773 0.0783 0.66138 0.0
Co660 Co 0.05094 0.86505 0.46415 0.0
C661 C 0.05267 0.05202 0.46193 0.0
C662 C 0.07834 1.00082 0.46744 0.0
C663 C 0.07887 0.08868 0.46888 0.0
N664 N 0.06193 0.97775 0.46287 0.0
N665 N 0.06256 0.12007 0.46558 0.0
H666 H 0.03839 0.05596 0.4598 0.0
H667 H 0.08858 0.957 0.47085 0.0
C668 C 0.0883 0.81745 0.45568 0.0
O669 O 0.08682 0.87045 0.44606 0.0
N670 N 0.04015 0.75388 0.46606 0.0
C671 C 0.02443 0.72531 0.46114 0.0
C672 C 0.02397 0.63715 0.46241 0.0
C673 C 0.04872 0.68437 0.47056 0.0
N674 N 0.03942 0.61204 0.46815 0.0
C675 C 0.04121 0.91868 0.43872 0.0
C676 C 0.05369 0.77241 0.42673 0.0
C677 C 0.04756 0.84113 0.41928 0.0
C678 C 0.0409 0.91432 0.4255 0.0
C679 C 0.05401 0.78004 0.4399 0.0
N680 N 0.04863 0.8542 0.44575 0.0
H681 H 0.03551 0.97429 0.44319 0.0
H682 H 0.05915 0.72673 0.44537 0.0
H683 H 0.01479 0.76472 0.45606 0.0
H684 H 0.06212 0.68582 0.4747 0.0
O685 O 0.02785 0.917 0.46814 0.0
O686 O 0.04905 0.88221 0.48216 0.0
O687 O 0.0756 0.80996 0.46379 0.0
C688 C 0.03323 0.91575 0.4799 0.0
H689 H 0.08973 0.1254 0.47315 0.0
H690 H 0.0139 0.59445 0.4584 0.0
H691 H 0.05834 0.71316 0.42246 0.0
H692 H 0.03581 0.96896 0.42025 0.0
Co693 Co 0.69689 0.90741 0.45103 0.0
C694 C 0.69277 0.71728 0.45028 0.0
C695 C 0.66776 0.77943 0.45515 0.0
C696 C 0.6651 0.69162 0.45529 0.0
N697 N 0.68507 0.79554 0.45192 0.0
N698 N 0.68084 0.65245 0.45227 0.0
H699 H 0.70681 0.70808 0.44767 0.0
H700 H 0.65781 0.82795 0.45747 0.0
C701 C 0.67013 0.0185 0.43794 0.0
O702 O 0.68324 0.03592 0.42991 0.0
N703 N 0.70886 0.02069 0.45081 0.0
C704 C 0.72678 0.03767 0.4502 0.0
C705 C 0.72952 0.12505 0.4511 0.0
C706 C 0.70118 0.09876 0.45297 0.0
N707 N 0.71336 0.16389 0.45273 0.0
C708 C 0.71845 0.89215 0.42814 0.0
C709 C 0.69026 0.83617 0.41297 0.0
C710 C 0.70743 0.84696 0.40766 0.0
C711 C 0.72168 0.87494 0.41534 0.0
C712 C 0.68754 0.8559 0.4257 0.0
N713 N 0.7014 0.88632 0.43307 0.0
H714 H 0.7298 0.90771 0.43406 0.0
H715 H 0.67416 0.84719 0.42964 0.0
H716 H 0.73741 0.99021 0.44971 0.0
H717 H 0.68703 0.10794 0.45518 0.0
O718 O 0.71838 0.85534 0.45781 0.0
O719 O 0.69637 0.91308 0.46934 0.0
O720 O 0.67297 0.96582 0.44708 0.0
C721 C 0.71168 0.87134 0.46896 0.0
H722 H 0.65262 0.6591 0.45776 0.0
H723 H 0.7425 0.15713 0.45064 0.0
H724 H 0.679 0.81356 0.40728 0.0
H725 H 0.73525 0.88152 0.41154 0.0
Co726 Co 0.04517 0.91328 0.29887 0.0
C727 C 0.04896 0.72834 0.30243 0.0
C728 C 0.071 0.77841 0.2914 0.0
C729 C 0.07228 0.68991 0.29165 0.0
N730 N 0.05635 0.80185 0.29815 0.0
N731 N 0.05835 0.65883 0.29857 0.0
H732 H 0.03626 0.72566 0.30753 0.0
H733 H 0.07957 0.82209 0.28614 0.0
C734 C 0.07449 0.03394 0.30642 0.0
O735 O 0.06307 0.06306 0.31495 0.0
N736 N 0.03376 0.02603 0.29912 0.0
C737 C 0.01862 0.05257 0.30513 0.0
C738 C 0.01697 0.14004 0.30365 0.0
C739 C 0.04034 0.09711 0.29339 0.0
N740 N 0.03082 0.16806 0.29643 0.0
C741 C 0.02761 0.8899 0.3229 0.0
C742 C 0.0585 0.88554 0.33761 0.0
C743 C 0.04155 0.88234 0.34363 0.0
C744 C 0.02601 0.88159 0.336 0.0
C745 C 0.05945 0.89241 0.32441 0.0
N746 N 0.04409 0.90173 0.3173 0.0
H747 H 0.01549 0.88482 0.31726 0.0
H748 H 0.07261 0.89055 0.31996 0.0
H749 H 0.00938 0.01283 0.31039 0.0
H750 H 0.05266 0.09786 0.28784 0.0
O751 O 0.02221 0.86159 0.29485 0.0
O752 O 0.04178 0.90982 0.28062 0.0
O753 O 0.06995 0.97033 0.29939 0.0
C754 C 0.02633 0.87255 0.28301 0.0
H755 H 0.08231 0.65143 0.28678 0.0
H756 H 0.00664 0.18025 0.30786 0.0
H757 H 0.07097 0.88382 0.34299 0.0
H758 H 0.01265 0.87346 0.34006 0.0
Co759 Co 0.71106 0.80382 0.28767 0.0
C760 C 0.70613 0.9956 0.28891 0.0
C761 C 0.68442 0.93272 0.27917 0.0
C762 C 0.68176 0.02018 0.27845 0.0
N763 N 0.69943 0.91656 0.28607 0.0
N764 N 0.69546 0.05993 0.28454 0.0
H765 H 0.71891 0.00671 0.29354 0.0
H766 H 0.67633 0.88427 0.27448 0.0
C767 C 0.67223 0.7648 0.29456 0.0
O768 O 0.67116 0.83752 0.30083 0.0
N769 N 0.72263 0.69208 0.28891 0.0
C770 C 0.73871 0.67546 0.29438 0.0
C771 C 0.74145 0.58785 0.29443 0.0
C772 C 0.7158 0.61429 0.28567 0.0
N773 N 0.72701 0.54908 0.289 0.0
C774 C 0.72442 0.87405 0.31103 0.0
C775 C 0.70492 0.76867 0.32706 0.0
C776 C 0.71557 0.83429 0.33234 0.0
C777 C 0.72585 0.88554 0.3241 0.0
C778 C 0.70419 0.75842 0.31393 0.0
N779 N 0.71284 0.81471 0.30604 0.0
H780 H 0.73301 0.91189 0.30497 0.0
H781 H 0.69673 0.70448 0.31019 0.0
H782 H 0.74758 0.72357 0.29842 0.0
H783 H 0.70287 0.60559 0.28104 0.0
O784 O 0.73379 0.85605 0.28299 0.0
O785 O 0.71383 0.8021 0.26946 0.0
O786 O 0.68682 0.74407 0.28881 0.0
C787 C 0.72908 0.8425 0.2713 0.0
H788 H 0.67104 0.05207 0.27327 0.0
H789 H 0.75294 0.55523 0.29859 0.0
H790 H 0.69699 0.72589 0.33294 0.0
H791 H 0.73511 0.93373 0.32769 0.0
Co792 Co 0.94881 0.59441 0.04427 0.0
C793 C 0.94455 0.40391 0.04498 0.0
C794 C 0.9207 0.46659 0.03791 0.0
C795 C 0.91814 0.37896 0.03729 0.0
N796 N 0.93722 0.4824 0.04279 0.0
N797 N 0.93315 0.33919 0.04168 0.0
H798 H 0.95803 0.39453 0.04874 0.0
H799 H 0.91136 0.51519 0.03462 0.0
C800 C 0.91965 0.71277 0.05302 0.0
O801 O 0.93118 0.74106 0.06155 0.0
N802 N 0.96066 0.70771 0.04526 0.0
C803 C 0.97734 0.72632 0.04972 0.0
C804 C 0.98029 0.81349 0.04885 0.0
C805 C 0.95421 0.78445 0.04105 0.0
N806 N 0.96564 0.85058 0.04354 0.0
C807 C 0.96629 0.56641 0.06828 0.0
C808 C 0.93503 0.55343 0.08254 0.0
C809 C 0.95184 0.54974 0.08863 0.0
C810 C 0.96761 0.55364 0.08133 0.0
C811 C 0.93436 0.56415 0.06942 0.0
N812 N 0.94985 0.57732 0.06257 0.0
H813 H 0.97855 0.56525 0.06278 0.0
H814 H 0.92132 0.56198 0.0648 0.0
H815 H 0.98706 0.68052 0.0532 0.0
H816 H 0.94132 0.79203 0.0363 0.0
O817 O 0.97154 0.54242 0.03993 0.0
O818 O 0.95207 0.59595 0.02602 0.0
O819 O 0.92422 0.65239 0.04541 0.0
C820 C 0.96733 0.55625 0.02817 0.0
H821 H 0.90633 0.34716 0.03341 0.0
H822 H 0.99223 0.847 0.05217 0.0
H823 H 0.92256 0.54704 0.08787 0.0
H824 H 0.98085 0.54802 0.08569 0.0
Co825 Co 0.30337 0.61368 0.04195 0.0
C826 C 0.30611 0.79804 0.04467 0.0
C827 C 0.32927 0.748 0.03487 0.0
C828 C 0.32924 0.83628 0.0337 0.0
N829 N 0.31466 0.72468 0.04167 0.0
N830 N 0.31445 0.86728 0.03969 0.0
H831 H 0.2932 0.79955 0.0495 0.0
H832 H 0.33825 0.7038 0.03007 0.0
C833 C 0.33159 0.49154 0.05076 0.0
O834 O 0.31905 0.45826 0.05812 0.0
N835 N 0.29197 0.50154 0.04161 0.0
C836 C 0.2776 0.4699 0.04797 0.0
C837 C 0.27663 0.38277 0.04584 0.0
C838 C 0.29877 0.43432 0.03514 0.0
N839 N 0.29022 0.36023 0.03796 0.0
C840 C 0.28404 0.63712 0.06543 0.0
C841 C 0.31424 0.63857 0.0809 0.0
C842 C 0.29704 0.64169 0.08642 0.0
C843 C 0.28181 0.64413 0.07854 0.0
C844 C 0.31583 0.63359 0.06777 0.0
N845 N 0.30082 0.6253 0.06026 0.0
H846 H 0.27223 0.6415 0.05944 0.0
H847 H 0.32921 0.63656 0.06369 0.0
H848 H 0.26877 0.5052 0.05417 0.0
H849 H 0.31068 0.43903 0.02921 0.0
O850 O 0.28088 0.66574 0.03679 0.0
O851 O 0.30185 0.6167 0.02362 0.0
O852 O 0.32796 0.5567 0.04378 0.0
C853 C 0.28635 0.65528 0.02519 0.0
H854 H 0.33844 0.87361 0.02791 0.0
H855 H 0.26748 0.33876 0.05054 0.0
H856 H 0.32635 0.6411 0.0867 0.0
H857 H 0.26832 0.65001 0.08248 0.0
Co858 Co 0.95495 0.62773 0.20838 0.0
C859 C 0.95231 0.81535 0.20475 0.0
C860 C 0.92777 0.76475 0.21249 0.0
C861 C 0.92654 0.85315 0.2123 0.0
N862 N 0.9438 0.74075 0.20742 0.0
N863 N 0.94201 0.88434 0.20735 0.0
H864 H 0.96642 0.82038 0.20217 0.0
H865 H 0.91809 0.72189 0.21685 0.0
C866 C 0.9168 0.57988 0.20177 0.0
O867 O 0.91739 0.63405 0.19224 0.0
N868 N 0.96605 0.51631 0.20981 0.0
C869 C 0.98197 0.49162 0.20476 0.0
C870 C 0.98353 0.40391 0.20609 0.0
C871 C 0.95831 0.44427 0.21434 0.0
N872 N 0.96857 0.37443 0.21204 0.0
C873 C 0.96323 0.67872 0.18266 0.0
C874 C 0.94822 0.53607 0.1711 0.0
C875 C 0.95418 0.60454 0.1636 0.0
C876 C 0.9622 0.6755 0.16948 0.0
C877 C 0.9492 0.54276 0.18428 0.0
N878 N 0.9556 0.61594 0.18994 0.0
H879 H 0.97027 0.73157 0.18692 0.0
H880 H 0.9442 0.49002 0.18994 0.0
H881 H 0.99125 0.53364 0.19981 0.0
H882 H 0.94487 0.4419 0.2184 0.0
O883 O 0.97834 0.68061 0.21112 0.0
O884 O 0.95869 0.6465 0.22621 0.0
O885 O 0.93029 0.57186 0.20925 0.0
C886 C 0.97425 0.67992 0.22312 0.0
H887 H 0.9155 0.89144 0.21599 0.0
H888 H 0.99444 0.36452 0.20247 0.0
H889 H 0.9423 0.4793 0.16684 0.0
H890 H 0.96767 0.72796 0.16392 0.0
Co891 Co 0.2808 0.723 0.20518 0.0
C892 C 0.28508 0.53088 0.20526 0.0
C893 C 0.30789 0.59439 0.2135 0.0
C894 C 0.31 0.50717 0.21505 0.0
N895 N 0.29252 0.61007 0.20696 0.0
N896 N 0.2956 0.46682 0.20992 0.0
H897 H 0.27151 0.52023 0.20179 0.0
H898 H 0.31651 0.64294 0.21764 0.0
C899 C 0.31965 0.7681 0.2001 0.0
O900 O 0.32096 0.70059 0.19269 0.0
N901 N 0.26899 0.83454 0.20392 0.0
C902 C 0.25299 0.84995 0.19824 0.0
C903 C 0.25042 0.93746 0.1975 0.0
C904 C 0.27584 0.91319 0.20669 0.0
N905 N 0.26487 0.97758 0.20269 0.0
C906 C 0.27441 0.65159 0.18035 0.0
C907 C 0.28897 0.78777 0.16695 0.0
C908 C 0.28223 0.71687 0.16032 0.0
C909 C 0.27481 0.64829 0.16714 0.0
C910 C 0.28866 0.78763 0.18016 0.0
N911 N 0.28194 0.7189 0.18675 0.0
H912 H 0.26758 0.60103 0.18534 0.0
H913 H 0.29369 0.84356 0.18508 0.0
H914 H 0.24418 0.80102 0.19437 0.0
H915 H 0.28897 0.92324 0.21096 0.0
O916 O 0.25758 0.66851 0.20773 0.0
O917 O 0.27539 0.71827 0.22302 0.0
O918 O 0.30494 0.78402 0.20602 0.0
C919 C 0.26057 0.67823 0.2198 0.0
H920 H 0.32105 0.47641 0.22003 0.0
H921 H 0.23891 0.96887 0.19316 0.0
H922 H 0.2946 0.84247 0.16196 0.0
H923 H 0.26896 0.59358 0.16228 0.0
Co924 Co 0.03713 0.3157 0.95315 0.0
C925 C 0.04212 0.50767 0.9526 0.0
C926 C 0.06258 0.44444 0.9635 0.0
C927 C 0.06503 0.5319 0.96457 0.0
N928 N 0.04854 0.42846 0.95566 0.0
N929 N 0.05212 0.57195 0.95773 0.0
H930 H 0.02989 0.51883 0.9473 0.0
H931 H 0.07004 0.39592 0.96865 0.0
C932 C 0.07681 0.27303 0.94992 0.0
O933 O 0.07944 0.34412 0.94346 0.0
N934 N 0.02572 0.204 0.95103 0.0
C935 C 0.01098 0.18692 0.94396 0.0
C936 C 0.00823 0.09928 0.94377 0.0
C937 C 0.0317 0.12645 0.95509 0.0
N938 N 0.02131 0.06093 0.95072 0.0
C939 C 0.02944 0.38693 0.92856 0.0
C940 C 0.05093 0.27503 0.91491 0.0
C941 C 0.04247 0.34309 0.90857 0.0
C942 C 0.03118 0.39803 0.9155 0.0
C943 C 0.04866 0.26587 0.92797 0.0
N944 N 0.03904 0.32502 0.93478 0.0
H945 H 0.0201 0.42735 0.93361 0.0
H946 H 0.05455 0.21053 0.93253 0.0
H947 H 0.00315 0.23469 0.93892 0.0
H948 H 0.04346 0.11812 0.96106 0.0
O949 O 0.0137 0.36874 0.95567 0.0
O950 O 0.03113 0.31509 0.97086 0.0
O951 O 0.0612 0.25508 0.95441 0.0
C952 C 0.01637 0.35552 0.96771 0.0
H953 H 0.07499 0.56347 0.97049 0.0
H954 H 0.99777 0.06629 0.93847 0.0
H955 H 0.05904 0.22853 0.9098 0.0
H956 H 0.02391 0.44979 0.9109 0.0
Co957 Co 0.70869 0.44925 0.95832 0.0
C958 C 0.70442 0.25724 0.95828 0.0
C959 C 0.68101 0.32086 0.96561 0.0
C960 C 0.6787 0.23358 0.96701 0.0
N961 N 0.69693 0.33638 0.95976 0.0
N962 N 0.69348 0.19318 0.96245 0.0
H963 H 0.7182 0.24652 0.9553 0.0
H964 H 0.67203 0.36966 0.96929 0.0
C965 C 0.67049 0.49062 0.95043 0.0
O966 O 0.66998 0.42026 0.94356 0.0
N967 N 0.72045 0.56091 0.95729 0.0
C968 C 0.73691 0.57646 0.95232 0.0
C969 C 0.73948 0.66403 0.95161 0.0
C970 C 0.71329 0.63943 0.95967 0.0
N971 N 0.72456 0.70398 0.95612 0.0
C972 C 0.72063 0.3753 0.93469 0.0
C973 C 0.70484 0.49712 0.91919 0.0
C974 C 0.7141 0.42826 0.9136 0.0
C975 C 0.72231 0.36755 0.92156 0.0
C976 C 0.7036 0.50257 0.93235 0.0
N977 N 0.71061 0.43973 0.93995 0.0
H978 H 0.72791 0.33093 0.94059 0.0
H979 H 0.6971 0.55827 0.93639 0.0
H980 H 0.74613 0.52749 0.94896 0.0
H981 H 0.69984 0.64917 0.96342 0.0
O982 O 0.73135 0.39654 0.96315 0.0
O983 O 0.7111 0.45053 0.97649 0.0
O984 O 0.68451 0.50921 0.95696 0.0
C985 C 0.72638 0.41029 0.97481 0.0
H986 H 0.66719 0.20279 0.97145 0.0
H987 H 0.75136 0.69559 0.94781 0.0
H988 H 0.6985 0.54645 0.91348 0.0
H989 H 0.73034 0.31555 0.9177 0.0
Co990 Co 0.05022 0.42136 0.78905 0.0
C991 C 0.05473 0.23478 0.79323 0.0
C992 C 0.07526 0.28562 0.78103 0.0
C993 C 0.07698 0.19752 0.78134 0.0
N994 N 0.06146 0.30906 0.78866 0.0
N995 N 0.06399 0.16592 0.78902 0.0
H996 H 0.04235 0.22967 0.79856 0.0
H997 H 0.08294 0.32926 0.77513 0.0
C998 C 0.08938 0.4564 0.79567 0.0
O999 O 0.09038 0.38344 0.80188 0.0
N1000 N 0.03915 0.53288 0.78907 0.0
C1001 C 0.0241 0.55794 0.79527 0.0
C1002 C 0.02282 0.64616 0.79444 0.0
C1003 C 0.04659 0.60499 0.78437 0.0
N1004 N 0.03702 0.67522 0.78761 0.0
C1005 C 0.03381 0.36704 0.81234 0.0
C1006 C 0.05449 0.46631 0.82849 0.0
C1007 C 0.04144 0.41103 0.83361 0.0
C1008 C 0.0308 0.36222 0.82535 0.0
C1009 C 0.05688 0.47012 0.81537 0.0
N1010 N 0.04734 0.41707 0.80746 0.0
H1011 H 0.02491 0.33132 0.80621 0.0
H1012 H 0.066 0.51796 0.81168 0.0
H1013 H 0.01522 0.51571 0.80052 0.0
H1014 H 0.05938 0.60663 0.77937 0.0
O1015 O 0.0275 0.36974 0.78411 0.0
O1016 O 0.04837 0.41721 0.77077 0.0
O1017 O 0.07464 0.47922 0.7903 0.0
C1018 C 0.03277 0.37987 0.77247 0.0
H1019 H 0.08653 0.15965 0.77594 0.0
H1020 H 0.01261 0.68601 0.79886 0.0
H1021 H 0.06245 0.50791 0.83456 0.0
H1022 H 0.02026 0.32018 0.82891 0.0
Co1023 Co 0.71507 0.31425 0.79459 0.0
C1024 C 0.71028 0.50063 0.79884 0.0
C1025 C 0.69023 0.45021 0.78622 0.0
C1026 C 0.68873 0.53845 0.78638 0.0
N1027 N 0.70358 0.42629 0.79421 0.0
N1028 N 0.70142 0.56984 0.79432 0.0
H1029 H 0.72252 0.50548 0.80432 0.0
H1030 H 0.68286 0.40689 0.78008 0.0
C1031 C 0.67547 0.27329 0.79886 0.0
O1032 O 0.67342 0.34372 0.80556 0.0
N1033 N 0.72649 0.20322 0.7946 0.0
C1034 C 0.74093 0.17831 0.80146 0.0
C1035 C 0.74241 0.09015 0.80065 0.0
C1036 C 0.71961 0.13091 0.78951 0.0
N1037 N 0.72891 0.06073 0.79318 0.0
C1038 C 0.72743 0.3653 0.81929 0.0
C1039 C 0.70559 0.25603 0.83313 0.0
C1040 C 0.71656 0.31506 0.83961 0.0
C1041 C 0.72796 0.36845 0.83248 0.0
C1042 C 0.70561 0.25464 0.81989 0.0
N1043 N 0.71552 0.31292 0.8131 0.0
H1044 H 0.73696 0.40399 0.81408 0.0
H1045 H 0.69786 0.20528 0.81522 0.0
H1046 H 0.74914 0.22055 0.80723 0.0
H1047 H 0.7073 0.12896 0.78396 0.0
O1048 O 0.7382 0.36857 0.79137 0.0
O1049 O 0.71906 0.32433 0.77657 0.0
O1050 O 0.69079 0.2546 0.79399 0.0
C1051 C 0.73424 0.36242 0.7794 0.0
H1052 H 0.6796 0.57655 0.78066 0.0
H1053 H 0.75218 0.05054 0.80558 0.0
H1054 H 0.69692 0.21164 0.83818 0.0
H1055 H 0.73745 0.41162 0.83705 0.0
H1056 H 0.44202 0.15774 0.10794 0.0
H1057 H 0.48046 0.95122 0.1038 0.0
H1058 H 0.48324 0.94042 0.12687 0.0
H1059 H 0.47379 0.98694 0.14836 0.0
H1060 H 0.43596 0.1958 0.15224 0.0
H1061 H 0.43372 0.20835 0.12916 0.0
C1062 C 0.45098 0.11026 0.1121 0.0
C1063 C 0.46091 0.05493 0.10419 0.0
C1064 C 0.45254 0.10477 0.12532 0.0
C1065 C 0.47273 0.99476 0.10969 0.0
C1066 C 0.47425 0.98829 0.12288 0.0
C1067 C 0.46517 0.03527 0.14407 0.0
C1068 C 0.455 0.09037 0.15183 0.0
C1069 C 0.46411 0.0425 0.1308 0.0
C1070 C 0.44388 0.15307 0.14633 0.0
C1071 C 0.4426 0.16007 0.13318 0.0
H1072 H 0.79255 0.27415 0.10317 0.0
H1073 H 0.79481 0.9979 0.10174 0.0
H1074 H 0.79436 0.99082 0.12493 0.0
H1075 H 0.79479 0.06368 0.14546 0.0
H1076 H 0.7907 0.34035 0.14702 0.0
H1077 H 0.79062 0.34697 0.12394 0.0
C1078 C 0.79281 0.21269 0.10802 0.0
C1079 C 0.79375 0.13661 0.10093 0.0
C1080 C 0.79237 0.20928 0.12132 0.0
C1081 C 0.79405 0.05701 0.10714 0.0
C1082 C 0.79383 0.05307 0.12035 0.0
C1083 C 0.79351 0.12548 0.14081 0.0
C1084 C 0.79292 0.20137 0.14807 0.0
C1085 C 0.79314 0.12884 0.12753 0.0
C1086 C 0.79159 0.28083 0.14175 0.0
C1087 C 0.79141 0.28477 0.12852 0.0
H1088 H 0.56122 0.85882 0.89546 0.0
H1089 H 0.50295 0.86684 0.89799 0.0
H1090 H 0.50088 0.89358 0.87517 0.0
H1091 H 0.51575 0.91351 0.85443 0.0
H1092 H 0.5741 0.90854 0.85218 0.0
H1093 H 0.57605 0.88206 0.87493 0.0
C1094 C 0.54808 0.86599 0.89098 0.0
C1095 C 0.53227 0.86041 0.89836 0.0
C1096 C 0.54702 0.88213 0.87792 0.0
C1097 C 0.51532 0.87129 0.8925 0.0
C1098 C 0.51413 0.88627 0.87946 0.0
C1099 C 0.52887 0.90634 0.85894 0.0
C1100 C 0.54476 0.9129 0.85163 0.0
C1101 C 0.5299 0.89163 0.87207 0.0
C1102 C 0.56168 0.90459 0.85762 0.0
C1103 C 0.56281 0.889 0.87061 0.0
H1104 H 0.20167 0.78474 0.85868 0.0
H1105 H 0.20113 0.0579 0.8518 0.0
H1106 H 0.20246 0.08565 0.87454 0.0
H1107 H 0.20445 0.03258 0.89634 0.0
H1108 H 0.20505 0.75955 0.90338 0.0
H1109 H 0.20319 0.73145 0.88064 0.0
C1110 C 0.20165 0.85022 0.86219 0.0
C1111 C 0.20132 0.91914 0.85359 0.0
C1112 C 0.20259 0.86576 0.87529 0.0
C1113 C 0.20155 1.00378 0.85825 0.0
C1114 C 0.20227 0.01971 0.87124 0.0
C1115 C 0.204 0.96694 0.89291 0.0
C1116 C 0.20488 0.89833 0.90155 0.0
C1117 C 0.20291 0.95125 0.87984 0.0
C1118 C 0.2046 0.81358 0.89692 0.0
C1119 C 0.20343 0.79742 0.88393 0.0
H1120 H 0.48399 0.67757 0.64869 0.0
H1121 H 0.44417 0.47443 0.64985 0.0
H1122 H 0.44272 0.47306 0.6268 0.0
H1123 H 0.45191 0.53213 0.60635 0.0
H1124 H 0.491 0.738 0.60486 0.0
H1125 H 0.49376 0.73496 0.62796 0.0
C1126 C 0.47496 0.63329 0.64389 0.0
C1127 C 0.46423 0.57614 0.65101 0.0
C1128 C 0.4741 0.63307 0.63057 0.0
C1129 C 0.45277 0.51834 0.64462 0.0
C1130 C 0.45184 0.51777 0.63143 0.0
C1131 C 0.46099 0.57662 0.61107 0.0
C1132 C 0.47111 0.63569 0.60389 0.0
C1133 C 0.46233 0.57521 0.62432 0.0
C1134 C 0.48313 0.69149 0.61016 0.0
C1135 C 0.48462 0.69022 0.62337 0.0
H1136 H 0.77097 0.65988 0.64296 0.0
H1137 H 0.81949 0.50461 0.64331 0.0
H1138 H 0.81845 0.49377 0.62033 0.0
H1139 H 0.80405 0.5288 0.60016 0.0
H1140 H 0.75386 0.67152 0.59984 0.0
H1141 H 0.75539 0.68671 0.6228 0.0
C1142 C 0.7812 0.62249 0.63807 0.0
C1143 C 0.79538 0.58386 0.64497 0.0
C1144 C 0.78029 0.61449 0.62483 0.0
C1145 C 0.80863 0.53693 0.63833 0.0
C1146 C 0.80798 0.52996 0.62516 0.0
C1147 C 0.79321 0.56195 0.60507 0.0
C1148 C 0.77887 0.59895 0.59816 0.0
C1149 C 0.79389 0.56858 0.61832 0.0
C1150 C 0.76526 0.64355 0.60479 0.0
C1151 C 0.76603 0.65172 0.61797 0.0
H1152 H 0.53416 0.47507 0.39737 0.0
H1153 H 0.53252 0.19789 0.39604 0.0
H1154 H 0.5334 0.20212 0.37296 0.0
H1155 H 0.53577 0.28416 0.35314 0.0
H1156 H 0.5356 0.56151 0.3545 0.0
H1157 H 0.53426 0.55712 0.37755 0.0
C1158 C 0.53367 0.41548 0.39206 0.0
C1159 C 0.53343 0.33629 0.39853 0.0
C1160 C 0.534 0.41825 0.37876 0.0
C1161 C 0.53308 0.25985 0.3914 0.0
C1162 C 0.53347 0.26215 0.37816 0.0
C1163 C 0.53517 0.34377 0.35844 0.0
C1164 C 0.53601 0.42301 0.352 0.0
C1165 C 0.53413 0.34097 0.37174 0.0
C1166 C 0.53542 0.49943 0.35913 0.0
C1167 C 0.5345 0.49709 0.37234 0.0
H1168 H 0.17992 0.36345 0.35557 0.0
H1169 H 0.23797 0.35811 0.35137 0.0
H1170 H 0.24165 0.35968 0.37446 0.0
H1171 H 0.22817 0.36806 0.39585 0.0
H1172 H 0.17016 0.38386 0.39976 0.0
H1173 H 0.16652 0.37231 0.37679 0.0
C1174 C 0.19335 0.36176 0.35976 0.0
C1175 C 0.20866 0.36022 0.35189 0.0
C1176 C 0.19532 0.36485 0.37295 0.0
C1177 C 0.22602 0.35947 0.35733 0.0
C1178 C 0.22811 0.36029 0.37048 0.0
C1179 C 0.21478 0.36822 0.39161 0.0
C1180 C 0.19944 0.3765 0.39936 0.0
C1181 C 0.21285 0.36376 0.37839 0.0
C1182 C 0.18212 0.37777 0.39388 0.0
C1183 C 0.18005 0.37111 0.38079 0.0
H1184 H 0.9306 0.13094 0.64508 0.0
H1185 H 0.9888 0.11661 0.6477 0.0
H1186 H 0.99133 0.1342 0.62471 0.0
H1187 H 0.9769 0.15647 0.6039 0.0
H1188 H 0.91873 0.17642 0.60153 0.0
H1189 H 0.91623 0.15404 0.62438 0.0
C1190 C 0.94381 0.1309 0.64057 0.0
C1191 C 0.95949 0.12212 0.648 0.0
C1192 C 0.94515 0.14252 0.62743 0.0
C1193 C 0.97656 0.12361 0.64213 0.0
C1194 C 0.978 0.13351 0.62901 0.0
C1195 C 0.9637 0.15533 0.60841 0.0
C1196 C 0.94802 0.16796 0.60108 0.0
C1197 C 0.96239 0.14345 0.62157 0.0
C1198 C 0.93099 0.16753 0.60702 0.0
C1199 C 0.92955 0.1544 0.62006 0.0
H1200 H 0.31366 0.02186 0.60209 0.0
H1201 H 0.2628 0.15631 0.59799 0.0
H1202 H 0.26051 0.17036 0.6209 0.0
H1203 H 0.27329 0.14812 0.64206 0.0
H1204 H 0.32264 1.00167 0.64622 0.0
H1205 H 0.32504 0.98862 0.62331 0.0
C1206 C 0.30188 0.0529 0.60616 0.0
C1207 C 0.28854 0.08869 0.59821 0.0
C1208 C 0.3004 0.05918 0.61938 0.0
C1209 C 0.27354 0.12988 0.60377 0.0
C1210 C 0.27212 0.13741 0.61692 0.0
C1211 C 0.28442 0.112 0.63802 0.0
C1212 C 0.29786 0.07696 0.64596 0.0
C1213 C 0.28554 0.10286 0.62481 0.0
C1214 C 0.31231 0.03145 0.64042 0.0
C1215 C 0.31364 0.0232 0.62728 0.0
H1216 H 0.0238 0.90913 0.40208 0.0
H1217 H 0.07364 0.76476 0.40457 0.0
H1218 H 0.07568 0.76095 0.38156 0.0
H1219 H 0.06379 0.80144 0.36069 0.0
H1220 H 0.01561 0.95812 0.35839 0.0
H1221 H 0.01259 0.95432 0.38133 0.0
C1222 C 0.03525 0.87767 0.39765 0.0
C1223 C 0.0485 0.83722 0.40517 0.0
C1224 C 0.03668 0.87781 0.38438 0.0
C1225 C 0.06301 0.79515 0.39912 0.0
C1226 C 0.06431 0.79359 0.38592 0.0
C1227 C 0.05274 0.83572 0.36517 0.0
C1228 C 0.03992 0.87963 0.35771 0.0
C1229 C 0.05129 0.83524 0.37845 0.0
C1230 C 0.02551 0.92222 0.36379 0.0
C1231 C 0.02383 0.92075 0.37696 0.0
H1232 H 0.71308 0.7156 0.35146 0.0
H1233 H 0.71865 0.98831 0.34476 0.0
H1234 H 0.71833 0.01491 0.36747 0.0
H1235 H 0.71472 0.96208 0.3893 0.0
H1236 H 0.70601 0.6922 0.3959 0.0
H1237 H 0.70895 0.66313 0.37316 0.0
C1238 C 0.71402 0.78105 0.3549 0.0
C1239 C 0.7159 0.84964 0.34629 0.0
C1240 C 0.71318 0.79645 0.36799 0.0
C1241 C 0.71752 0.93378 0.35108 0.0
C1242 C 0.71717 0.94935 0.3641 0.0
C1243 C 0.71366 0.89698 0.3857 0.0
C1244 C 0.71031 0.82912 0.39411 0.0
C1245 C 0.71484 0.88135 0.37263 0.0
C1246 C 0.70867 0.74504 0.38948 0.0
C1247 C 0.71031 0.7286 0.37652 0.0
H1248 H 0.96618 0.48502 0.14684 0.0
H1249 H 0.93647 0.72262 0.14948 0.0
H1250 H 0.93213 0.72383 0.1265 0.0
H1251 H 0.9375 0.65925 0.10561 0.0
H1252 H 0.96913 0.42765 0.10264 0.0
H1253 H 0.97202 0.42144 0.12578 0.0
C1254 C 0.9587 0.53662 0.14233 0.0
C1255 C 0.95162 0.60358 0.14974 0.0
C1256 C 0.95664 0.53784 0.1291 0.0
C1257 C 0.9421 0.67078 0.14388 0.0
C1258 C 0.93959 0.67135 0.13078 0.0
C1259 C 0.94487 0.60713 0.11009 0.0
C1260 C 0.95297 0.54362 0.10256 0.0
C1261 C 0.94688 0.6055 0.1233 0.0
C1262 C 0.96278 0.47705 0.10835 0.0
C1263 C 0.96442 0.47358 0.12153 0.0
H1264 H 0.28012 0.76125 0.10087 0.0
H1265 H 0.31 0.52393 0.10294 0.0
H1266 H 0.30742 0.52421 0.12606 0.0
H1267 H 0.2971 0.59353 0.14569 0.0
H1268 H 0.26903 0.83581 0.14382 0.0
H1269 H 0.27041 0.83258 0.12063 0.0
C1270 C 0.28595 0.7096 0.10644 0.0
C1271 C 0.29515 0.64248 0.10033 0.0
C1272 C 0.28476 0.71133 0.11971 0.0
C1273 C 0.3029 0.57624 0.10754 0.0
C1274 C 0.3014 0.57635 0.12071 0.0
C1275 C 0.29122 0.6452 0.14016 0.0
C1276 C 0.2829 0.71451 0.14634 0.0
C1277 C 0.29243 0.64371 0.1269 0.0
C1278 C 0.27553 0.78195 0.13918 0.0
C1279 C 0.27629 0.78001 0.12595 0.0
H1280 H 0.0671 0.38724 0.85162 0.0
H1281 H 0.00955 0.41968 0.84655 0.0
H1282 H 0.00477 0.40291 0.86935 0.0
H1283 H 0.01692 0.37556 0.89064 0.0
H1284 H 0.0744 0.33922 0.89565 0.0
H1285 H 0.07927 0.36042 0.87296 0.0
C1286 C 0.05356 0.39144 0.85556 0.0
C1287 C 0.03871 0.40478 0.84747 0.0
C1288 C 0.0509 0.38041 0.86863 0.0
C1289 C 0.02117 0.40889 0.85262 0.0
C1290 C 0.01844 0.39945 0.86563 0.0
C1291 C 0.03051 0.37299 0.88677 0.0
C1292 C 0.04528 0.35593 0.89479 0.0
C1293 C 0.03319 0.38463 0.87371 0.0
C1294 C 0.0628 0.35144 0.88963 0.0
C1295 C 0.0656 0.36399 0.87668 0.0
H1296 H 0.71873 0.45948 0.85404 0.0
H1297 H 0.7136 0.18379 0.8569 0.0
H1298 H 0.71226 0.19468 0.87995 0.0
H1299 H 0.71224 0.28263 0.89928 0.0
H1300 H 0.71907 0.55749 0.89633 0.0
H1301 H 0.72015 0.54641 0.87332 0.0
C1302 C 0.71758 0.40151 0.85968 0.0
C1303 C 0.71623 0.32097 0.85369 0.0
C1304 C 0.71707 0.40805 0.87293 0.0
C1305 C 0.71438 0.24682 0.86121 0.0
C1306 C 0.71374 0.2529 0.87441 0.0
C1307 C 0.7142 0.34004 0.89363 0.0
C1308 C 0.71545 0.42082 0.89958 0.0
C1309 C 0.71503 0.33321 0.88037 0.0
C1310 C 0.71772 0.49462 0.89204 0.0
C1311 C 0.71847 0.48834 0.87886 0.0
H1312 H 0.49442 0.93631 0.97478 0.0
H1313 H 0.53151 0.79373 0.99836 0.0
H1314 H 0.51705 0.85141 0.01734 0.0
H1315 H 0.49416 0.94407 0.02727 0.0
H1316 H 0.457 0.08633 0.00371 0.0
H1317 H 0.47129 0.02769 0.98472 0.0
C1318 C 0.49923 0.91724 0.98407 0.0
C1319 C 0.51398 0.86055 0.98515 0.0
C1320 C 0.49096 0.95133 0.99496 0.0
C1321 C 0.52015 0.83708 0.99726 0.0
C1322 C 0.51193 0.87029 0.00813 0.0
C1323 C 0.48927 0.96266 0.01798 0.0
C1324 C 0.47461 0.01984 0.01691 0.0
C1325 C 0.49743 0.92799 0.00709 0.0
C1326 C 0.4683 0.04259 0.0048 0.0
C1327 C 0.47643 0.00891 0.99393 0.0
H1328 H 0.75795 0.26787 0.02612 0.0
H1329 H 0.79255 0.12933 0.00029 0.0
H1330 H 0.77769 0.19901 0.98228 0.0
H1331 H 0.7548 0.29925 0.97393 0.0
H1332 H 0.72044 0.43779 0.99995 0.0
H1333 H 0.73546 0.36881 0.01786 0.0
C1334 C 0.76217 0.25233 0.01655 0.0
C1335 C 0.77624 0.19298 0.01454 0.0
C1336 C 0.75374 0.29335 0.00629 0.0
C1337 C 0.78169 0.17446 0.00209 0.0
C1338 C 0.77324 0.21451 0.9918 0.0
C1339 C 0.75072 0.31498 0.98353 0.0
C1340 C 0.73656 0.37388 0.9856 0.0
C1341 C 0.7593 0.27434 0.99379 0.0
C1342 C 0.73132 0.39292 0.99808 0.0
C1343 C 0.73986 0.35324 0.00833 0.0
H1344 H 0.49451 0.242 0.22574 0.0
H1345 H 0.46096 0.10301 0.25222 0.0
H1346 H 0.47585 0.17545 0.26992 0.0
H1347 H 0.49832 0.27879 0.27791 0.0
H1348 H 0.53178 0.41828 0.25143 0.0
H1349 H 0.51687 0.34598 0.23373 0.0
C1350 C 0.49057 0.22703 0.23539 0.0
C1351 C 0.47673 0.16679 0.23766 0.0
C1352 C 0.49902 0.2698 0.24553 0.0
C1353 C 0.47162 0.14893 0.25021 0.0
C1354 C 0.48008 0.19055 0.26034 0.0
C1355 C 0.50222 0.29401 0.26826 0.0
C1356 C 0.51607 0.35425 0.266 0.0
C1357 C 0.49372 0.25148 0.25812 0.0
C1358 C 0.52111 0.37244 0.25344 0.0
C1359 C 0.51264 0.33085 0.2433 0.0
H1360 H 0.76088 1.00316 0.22113 0.0
H1361 H 0.79618 0.12651 0.24818 0.0
H1362 H 0.78139 0.0491 0.26547 0.0
H1363 H 0.75818 0.94829 0.27291 0.0
H1364 H 0.72291 0.82415 0.24591 0.0
H1365 H 0.73817 0.89891 0.22855 0.0
C1366 C 0.76525 0.0135 0.23082 0.0
C1367 C 0.77947 0.07113 0.2334 0.0
C1368 C 0.75684 0.96794 0.24069 0.0
C1369 C 0.7852 0.08283 0.24597 0.0
C1370 C 0.77678 0.03841 0.25585 0.0
C1371 C 0.75393 0.93683 0.26322 0.0
C1372 C 0.73944 0.88059 0.26071 0.0
C1373 C 0.7626 0.98083 0.25332 0.0
C1374 C 0.73405 0.86694 0.2481 0.0
C1375 C 0.74272 0.91 0.23817 0.0
H1376 H 0.25175 0.79482 0.97449 0.0
H1377 H 0.21904 0.93435 0.00142 0.0
H1378 H 0.23546 0.86761 0.01891 0.0
H1379 H 0.25864 0.76818 0.02656 0.0
H1380 H 0.29159 0.62845 0.99984 0.0
H1381 H 0.27541 0.69626 0.98223 0.0
C1382 C 0.24835 0.81127 0.98419 0.0
C1383 C 0.23426 0.86976 0.98666 0.0
C1384 C 0.25772 0.77191 0.99422 0.0
C1385 C 0.22986 0.88969 0.99927 0.0
C1386 C 0.23919 0.85135 0.00928 0.0
C1387 C 0.26221 0.75199 0.01689 0.0
C1388 C 0.27618 0.69279 0.0145 0.0
C1389 C 0.25302 0.79186 0.00686 0.0
C1390 C 0.28082 0.67352 0.00191 0.0
C1391 C 0.27161 0.71245 0.99185 0.0
H1392 H 0.49846 0.73832 0.72605 0.0
H1393 H 0.46255 0.61141 0.75231 0.0
H1394 H 0.47699 0.68675 0.77001 0.0
H1395 H 0.50005 0.78835 0.778 0.0
H1396 H 0.53542 0.91616 0.75143 0.0
H1397 H 0.52077 0.84172 0.73387 0.0
C1398 C 0.49387 0.72653 0.73565 0.0
C1399 C 0.47958 0.66867 0.73788 0.0
C1400 C 0.50201 0.77104 0.74572 0.0
C1401 C 0.47361 0.65527 0.75036 0.0
C1402 C 0.48181 0.69856 0.76047 0.0
C1403 C 0.50442 0.80052 0.76835 0.0
C1404 C 0.5188 0.85787 0.76604 0.0
C1405 C 0.49601 0.75681 0.75826 0.0
C1406 C 0.52438 0.87246 0.75349 0.0
C1407 C 0.51606 0.82963 0.74344 0.0
H1408 H 0.279 0.09013 0.74477 0.0
H1409 H 0.2398 0.02717 0.71589 0.0
H1410 H 0.21991 0.96386 0.73187 0.0
H1411 H 0.21376 0.92531 0.75409 0.0
H1412 H 0.2532 0.98789 0.78284 0.0
H1413 H 0.27292 0.05159 0.76687 0.0
C1414 C 0.26604 0.06315 0.74198 0.0
C1415 C 0.26085 0.06373 0.72918 0.0
C1416 C 0.25478 0.026 0.75119 0.0
C1417 C 0.24409 0.02779 0.7257 0.0
C1418 C 0.23273 0.9913 0.73483 0.0
C1419 C 0.22672 0.95237 0.75683 0.0
C1420 C 0.23202 0.95157 0.76962 0.0
C1421 C 0.23798 0.98958 0.7476 0.0
C1422 C 0.2488 0.98748 0.77305 0.0
C1423 C 0.26008 0.0242 0.76393 0.0
H1424 H 0.50212 0.53716 0.52702 0.0
H1425 H 0.46265 0.66318 0.5033 0.0
H1426 H 0.47598 0.59612 0.48451 0.0
H1427 H 0.49882 0.50011 0.47485 0.0
H1428 H 0.53795 0.37438 0.49893 0.0
H1429 H 0.52467 0.44224 0.51752 0.0
C1430 C 0.4965 0.55058 0.51774 0.0
C1431 C 0.48148 0.60545 0.51656 0.0
C1432 C 0.50407 0.5111 0.50703 0.0
C1433 C 0.47427 0.62144 0.50446 0.0
C1434 C 0.48184 0.58285 0.49371 0.0
C1435 C 0.50433 0.48716 0.48418 0.0
C1436 C 0.51931 0.432 0.48549 0.0
C1437 C 0.49669 0.52708 0.49489 0.0
C1438 C 0.52642 0.41647 0.49763 0.0
C1439 C 0.51886 0.45542 0.50829 0.0
H1440 H 0.73795 0.75132 0.46979 0.0
H1441 H 0.7039 0.90646 0.49385 0.0
H1442 H 0.71695 0.83769 0.51265 0.0
H1443 H 0.73826 0.7333 0.52217 0.0
H1444 H 0.77175 0.57815 0.49767 0.0
H1445 H 0.75847 0.64638 0.4791 0.0
C1446 C 0.73346 0.77079 0.47914 0.0
C1447 C 0.72012 0.83456 0.48044 0.0
C1448 C 0.74078 0.73017 0.48982 0.0
C1449 C 0.71426 0.85791 0.49262 0.0
C1450 C 0.72166 0.81836 0.50336 0.0
C1451 C 0.74248 0.71383 0.51276 0.0
C1452 C 0.75594 0.65057 0.5113 0.0
C1453 C 0.73489 0.7541 0.50207 0.0
C1454 C 0.76141 0.6266 0.49906 0.0
C1455 C 0.75388 0.66581 0.48842 0.0
H1456 H 0.72585 0.3871 0.75466 0.0
H1457 H 0.76779 0.43391 0.78229 0.0
H1458 H 0.78564 0.51099 0.76641 0.0
H1459 H 0.78934 0.56493 0.74458 0.0
H1460 H 0.74709 0.51798 0.71716 0.0
H1461 H 0.72931 0.44221 0.73308 0.0
C1462 C 0.73896 0.41354 0.75719 0.0
C1463 C 0.74554 0.40417 0.7696 0.0
C1464 C 0.74903 0.45867 0.74808 0.0
C1465 C 0.76246 0.43981 0.77277 0.0
C1466 C 0.77264 0.48421 0.76371 0.0
C1467 C 0.77616 0.53887 0.74214 0.0
C1468 C 0.76954 0.54735 0.72971 0.0
C1469 C 0.76603 0.49437 0.75134 0.0
C1470 C 0.75251 0.51251 0.72666 0.0
C1471 C 0.74234 0.46882 0.73575 0.0
H1472 H 0.25366 0.23214 0.52441 0.0
H1473 H 0.28814 0.10101 0.49766 0.0
H1474 H 0.27187 0.16819 0.48007 0.0
H1475 H 0.24767 0.26319 0.47235 0.0
H1476 H 0.21332 0.39414 0.49922 0.0
H1477 H 0.22989 0.3286 0.51674 0.0
C1478 C 0.25755 0.21777 0.51473 0.0
C1479 C 0.27198 0.16116 0.51233 0.0
C1480 C 0.24827 0.25715 0.50471 0.0
C1481 C 0.27701 0.14408 0.49975 0.0
C1482 C 0.26775 0.18263 0.4897 0.0
C1483 C 0.24391 0.27796 0.48204 0.0
C1484 C 0.22931 0.33355 0.48449 0.0
C1485 C 0.25338 0.23936 0.49207 0.0
C1486 C 0.22452 0.35161 0.49708 0.0
C1487 C 0.23395 0.31396 0.50711 0.0
H1488 H 0.2688 0.6462 0.24428 0.0
H1489 H 0.22663 0.61166 0.21647 0.0
H1490 H 0.20869 0.5295 0.23177 0.0
H1491 H 0.20524 0.46574 0.2531 0.0
H1492 H 0.24821 0.49842 0.28045 0.0
H1493 H 0.2656 0.58195 0.26525 0.0
C1494 C 0.25559 0.62163 0.24161 0.0
C1495 C 0.24897 0.63571 0.22932 0.0
C1496 C 0.24557 0.57298 0.25033 0.0
C1497 C 0.23196 0.60212 0.22592 0.0
C1498 C 0.22174 0.55477 0.23464 0.0
C1499 C 0.21848 0.49047 0.25567 0.0
C1500 C 0.22542 0.47548 0.26788 0.0
C1501 C 0.22848 0.53912 0.24686 0.0
C1502 C 0.24254 0.50864 0.27111 0.0
C1503 C 0.2525 0.55687 0.26244 0.0
H1504 H 0.00518 0.02719 0.47738 0.0
H1505 H 0.03787 0.89705 0.5053 0.0
H1506 H 0.02129 0.96876 0.5223 0.0
H1507 H 0.99738 0.06715 0.52922 0.0
H1508 H 0.96469 0.19818 0.50138 0.0
H1509 H 0.9816 0.1284 0.48434 0.0
C1510 C 0.00857 0.01412 0.48719 0.0
C1511 C 0.02261 0.95641 0.4901 0.0
C1512 C 0.99914 0.05643 0.49691 0.0
C1513 C 0.02706 0.94102 0.50283 0.0
C1514 C 0.01763 0.98215 0.51255 0.0
C1515 C 0.99406 0.08114 0.51943 0.0
C1516 C 0.97983 0.13791 0.51657 0.0
C1517 C 0.00367 0.04007 0.5097 0.0
C1518 C 0.97562 0.15485 0.50383 0.0
C1519 C 0.98522 0.11469 0.49408 0.0
H1520 H 0.99751 0.24393 0.72184 0.0
H1521 H 0.9594 0.13594 0.74845 0.0
H1522 H 0.97632 0.19941 0.76604 0.0
H1523 H 0.00183 0.286 0.77381 0.0
H1524 H 0.03989 0.39422 0.74717 0.0
H1525 H 0.02298 0.33068 0.7296 0.0
C1526 C 0.99295 0.23383 0.73149 0.0
C1527 C 0.97726 0.18495 0.73384 0.0
C1528 C 0.00265 0.27108 0.74153 0.0
C1529 C 0.97146 0.17306 0.74639 0.0
C1530 C 0.98111 0.20952 0.75644 0.0
C1531 C 0.00638 0.29612 0.76416 0.0
C1532 C 0.02206 0.34506 0.7618 0.0
C1533 C 0.99667 0.25892 0.75412 0.0
C1534 C 0.02783 0.35707 0.74924 0.0
C1535 C 0.0182 0.32055 0.73919 0.0
H1536 H 0.03326 0.85932 0.25764 0.0
H1537 H 0.99235 0.80951 0.28593 0.0
H1538 H 0.97281 0.74515 0.26996 0.0
H1539 H 0.96744 0.70013 0.24813 0.0
H1540 H 0.008 0.74865 0.21959 0.0
H1541 H 0.02756 0.81589 0.23547 0.0
C1542 C 0.02001 0.83498 0.26027 0.0
C1543 C 0.01429 0.83926 0.27296 0.0
C1544 C 0.00882 0.79715 0.25102 0.0
C1545 C 0.99712 0.80697 0.27624 0.0
C1546 C 0.98592 0.76994 0.26712 0.0
C1547 C 0.98058 0.72517 0.24537 0.0
C1548 C 0.98629 0.71897 0.23272 0.0
C1549 C 0.99168 0.76403 0.25451 0.0
C1550 C 0.00331 0.75232 0.22929 0.0
C1551 C 0.01449 0.79095 0.23836 0.0
H1552 H 0.02313 0.36828 0.99275 0.0
H1553 H 0.9831 0.43033 0.96443 0.0
H1554 H 0.9645 0.50154 0.98053 0.0
H1555 H 0.95975 0.54624 0.00281 0.0
H1556 H 0.00059 0.48511 0.03068 0.0
H1557 H 0.0188 0.41455 0.01457 0.0
C1558 C 0.01026 0.39665 0.9901 0.0
C1559 C 0.00441 0.39327 0.97745 0.0
C1560 C -0.00014 0.43861 0.99931 0.0
C1561 C 0.98783 0.43155 0.97414 0.0
C1562 C 0.97724 0.47261 0.98333 0.0
C1563 C 0.97271 0.5182 0.0053 0.0
C1564 C 0.97878 0.52106 0.01793 0.0
C1565 C 0.98317 0.47691 0.99595 0.0
C1566 C 0.99556 0.4839 0.02104 0.0
C1567 C 0.00599 0.44316 0.01184 0.0
H1568 H 0.42842 0.70417 0.03079 0.0
H1569 H 0.45763 0.77023 0.06482 0.0
H1570 H 0.46929 0.62399 0.0663 0.0
H1571 H 0.47122 0.47792 0.05797 0.0
H1572 H 0.44197 0.40969 0.02408 0.0
H1573 H 0.43007 0.55609 0.02256 0.0
C1574 C 0.43713 0.6862 0.03862 0.0
C1575 C 0.4422 0.74813 0.04766 0.0
C1576 C 0.44385 0.60188 0.03939 0.0
C1577 C 0.45371 0.72407 0.05766 0.0
C1578 C 0.46036 0.64045 0.05852 0.0
C1579 C 0.46251 0.49532 0.05012 0.0
C1580 C 0.45767 0.4332 0.04106 0.0
C1581 C 0.45566 0.57912 0.04938 0.0
C1582 C 0.44591 0.45637 0.03116 0.0
C1583 C 0.4391 0.53999 0.0303 0.0
H1584 H 0.81403 0.77029 0.03192 0.0
H1585 H 0.76347 0.73508 0.05183 0.0
H1586 H 0.7691 0.58153 0.05326 0.0
H1587 H 0.78866 0.4566 0.04945 0.0
H1588 H 0.83916 0.49174 0.02941 0.0
H1589 H 0.83343 0.64483 0.02786 0.0
C1590 C 0.80425 0.72944 0.03663 0.0
C1591 C 0.78826 0.7655 0.04168 0.0
C1592 C 0.80763 0.64037 0.03757 0.0
C1593 C 0.77574 0.71012 0.04761 0.0
C1594 C 0.77901 0.62181 0.04855 0.0
C1595 C 0.7984 0.49714 0.04464 0.0
C1596 C 0.81441 0.46096 0.03965 0.0
C1597 C 0.79494 0.58608 0.0436 0.0
C1598 C 0.82685 0.5163 0.03359 0.0
C1599 C 0.82353 0.60457 0.03259 0.0
H1600 H 0.46898 0.69594 0.19676 0.0
H1601 H 0.44472 0.76061 0.23263 0.0
H1602 H 0.43337 0.61356 0.23484 0.0
H1603 H 0.43055 0.4663 0.22653 0.0
H1604 H 0.45445 0.40343 0.19043 0.0
H1605 H 0.46585 0.54995 0.18836 0.0
C1606 C 0.46145 0.67744 0.20514 0.0
C1607 C 0.45781 0.73866 0.21457 0.0
C1608 C 0.45481 0.59331 0.20625 0.0
C1609 C 0.44764 0.71442 0.22525 0.0
C1610 C 0.44115 0.6305 0.2265 0.0
C1611 C 0.43804 0.48504 0.21814 0.0
C1612 C 0.44168 0.42402 0.20866 0.0
C1613 C 0.44458 0.56949 0.21702 0.0
C1614 C 0.45165 0.44901 0.19792 0.0
C1615 C 0.45815 0.53275 0.19672 0.0
H1616 H 0.77522 0.56786 0.21503 0.0
H1617 H 0.82849 0.46818 0.20689 0.0
H1618 H 0.84048 0.61323 0.20527 0.0
H1619 H 0.83544 0.76888 0.20483 0.0
H1620 H 0.78223 0.86882 0.21305 0.0
H1621 H 0.77055 0.72385 0.21571 0.0
C1622 C 0.78944 0.57825 0.21295 0.0
C1623 C 0.8009 0.50764 0.21115 0.0
C1624 C 0.79622 0.66191 0.21184 0.0
C1625 C 0.81939 0.52146 0.20856 0.0
C1626 C 0.82625 0.60446 0.20749 0.0
C1627 C 0.82135 0.75867 0.2073 0.0
C1628 C 0.80969 0.8292 0.20845 0.0
C1629 C 0.81474 0.67512 0.20894 0.0
C1630 C 0.7914 0.8155 0.21169 0.0
C1631 C 0.78472 0.73259 0.21334 0.0
H1632 H 0.53305 0.14505 0.94556 0.0
H1633 H 0.56962 0.17622 0.97716 0.0
H1634 H 0.56388 0.33003 0.97731 0.0
H1635 H 0.54815 0.45712 0.96873 0.0
H1636 H 0.51125 0.42549 0.93737 0.0
H1637 H 0.51715 0.27159 0.93712 0.0
C1638 C 0.53967 0.18504 0.95257 0.0
C1639 C 0.55185 0.14776 0.96129 0.0
C1640 C 0.53616 0.27421 0.95273 0.0
C1641 C 0.56041 0.20201 0.97017 0.0
C1642 C 0.55704 0.29054 0.97033 0.0
C1643 C 0.54147 0.41677 0.96179 0.0
C1644 C 0.52916 0.4537 0.95314 0.0
C1645 C 0.54495 0.32754 0.96166 0.0
C1646 C 0.52054 0.3995 0.94431 0.0
C1647 C 0.52401 0.3111 0.94409 0.0
H1648 H 0.23626 0.34197 0.96114 0.0
H1649 H 0.18237 0.24442 0.96787 0.0
H1650 H 0.17082 0.38931 0.96997 0.0
H1651 H 0.17551 0.54471 0.96839 0.0
H1652 H 0.22952 0.64297 0.96246 0.0
H1653 H 0.24142 0.49758 0.96142 0.0
C1654 C 0.22201 0.35261 0.96308 0.0
C1655 C 0.21023 0.28236 0.96412 0.0
C1656 C 0.21539 0.43646 0.9643 0.0
C1657 C 0.19183 0.29695 0.96695 0.0
C1658 C 0.18513 0.38008 0.96812 0.0
C1659 C 0.18989 0.53412 0.96703 0.0
C1660 C 0.20146 0.60428 0.96515 0.0
C1661 C 0.19673 0.45033 0.9666 0.0
C1662 C 0.22015 0.58994 0.96345 0.0
C1663 C 0.22704 0.50678 0.96298 0.0
H1664 H 0.5639 0.55574 0.77577 0.0
H1665 H 0.54483 0.6189 0.81325 0.0
H1666 H 0.53375 0.47239 0.81605 0.0
H1667 H 0.52952 0.32621 0.80788 0.0
H1668 H 0.54909 0.26142 0.77064 0.0
H1669 H 0.56008 0.40849 0.76771 0.0
C1670 C 0.55756 0.53713 0.78461 0.0
C1671 C 0.55517 0.59829 0.79427 0.0
C1672 C 0.55121 0.45266 0.78616 0.0
C1673 C 0.54665 0.57332 0.80561 0.0
C1674 C 0.54033 0.48954 0.80723 0.0
C1675 C 0.53595 0.3447 0.79906 0.0
C1676 C 0.53837 0.28341 0.78944 0.0
C1677 C 0.54241 0.42888 0.79753 0.0
C1678 C 0.54713 0.30764 0.77818 0.0
C1679 C 0.55341 0.39158 0.77651 0.0
H1680 H 0.18416 0.26567 0.77697 0.0
H1681 H 0.19853 0.20123 0.81541 0.0
H1682 H 0.20897 0.34795 0.81906 0.0
H1683 H 0.21432 0.49408 0.81124 0.0
H1684 H 0.19949 0.56006 0.77299 0.0
H1685 H 0.18875 0.41335 0.76933 0.0
C1686 C 0.18931 0.28412 0.78619 0.0
C1687 C 0.19066 0.22259 0.79589 0.0
C1688 C 0.19532 0.3686 0.78821 0.0
C1689 C 0.19759 0.24723 0.80775 0.0
C1690 C 0.20354 0.33106 0.80985 0.0
C1691 C 0.20897 0.47588 0.80207 0.0
C1692 C 0.20786 0.53724 0.79236 0.0
C1693 C 0.20266 0.39197 0.8001 0.0
C1694 C 0.20046 0.51363 0.78059 0.0
C1695 C 0.19432 0.42994 0.77851 0.0
H1696 H 0.43609 0.29284 0.53106 0.0
H1697 H 0.46697 0.35966 0.56433 0.0
H1698 H 0.47884 0.21371 0.56553 0.0
H1699 H 0.4804 0.0671 0.5572 0.0
H1700 H 0.44909 0.99791 0.52429 0.0
H1701 H 0.4373 0.14465 0.52289 0.0
C1702 C 0.44521 0.27512 0.53866 0.0
C1703 C 0.45068 0.33719 0.54757 0.0
C1704 C 0.452 0.1909 0.5393 0.0
C1705 C 0.46273 0.31341 0.55727 0.0
C1706 C 0.46951 0.22994 0.55797 0.0
C1707 C 0.47123 0.08458 0.5496 0.0
C1708 C 0.46576 0.0222 0.54078 0.0
C1709 C 0.46435 0.16841 0.54898 0.0
C1710 C 0.45348 0.04503 0.53118 0.0
C1711 C 0.44674 0.12876 0.53039 0.0
H1712 H 0.77226 0.91854 0.54863 0.0
H1713 H 0.81469 0.95011 0.52089 0.0
H1714 H 0.80876 0.10389 0.52003 0.0
H1715 H 0.79137 0.23081 0.527 0.0
H1716 H 0.74895 0.19825 0.55475 0.0
H1717 H 0.75478 0.04472 0.55546 0.0
C1718 C 0.78012 0.95864 0.54229 0.0
C1719 C 0.79397 0.92159 0.53488 0.0
C1720 C 0.77657 0.04771 0.54175 0.0
C1721 C 0.80412 0.97588 0.52687 0.0
C1722 C 0.80066 0.06432 0.5263 0.0
C1723 C 0.78344 0.19044 0.53325 0.0
C1724 C 0.7696 0.22731 0.54072 0.0
C1725 C 0.78694 0.10119 0.53372 0.0
C1726 C 0.75944 0.17273 0.54868 0.0
C1727 C 0.76286 0.08437 0.54918 0.0
H1728 H 0.46987 0.91993 0.71591 0.0
H1729 H 0.41366 0.96376 0.70653 0.0
H1730 H 0.41818 0.11792 0.70853 0.0
H1731 H 0.4384 0.24213 0.71189 0.0
H1732 H 0.49428 0.19829 0.72182 0.0
H1733 H 0.48943 0.04331 0.72088 0.0
C1734 C 0.45848 0.96252 0.71445 0.0
C1735 C 0.44146 0.92856 0.71086 0.0
C1736 C 0.4611 0.05208 0.71572 0.0
C1737 C 0.42703 0.98663 0.709 0.0
C1738 C 0.42956 0.07547 0.71023 0.0
C1739 C 0.44944 0.19888 0.71407 0.0
C1740 C 0.46675 0.23269 0.71682 0.0
C1741 C 0.44658 0.10917 0.71344 0.0
C1742 C 0.48089 0.17475 0.71949 0.0
C1743 C 0.47812 0.08577 0.71897 0.0
H1744 H 0.78005 0.0156 0.68998 0.0
H1745 H 0.80322 0.94921 0.72616 0.0
H1746 H 0.81482 0.0958 0.72851 0.0
H1747 H 0.81795 0.24356 0.72032 0.0
H1748 H 0.79486 0.30789 0.68401 0.0
H1749 H 0.7835 0.16146 0.6817 0.0
C1750 C 0.78737 0.03347 0.69848 0.0
C1751 C 0.79057 0.97178 0.70796 0.0
C1752 C 0.79409 0.1174 0.6997 0.0
C1753 C 0.80056 0.99553 0.71874 0.0
C1754 C 0.8072 0.07927 0.72008 0.0
C1755 C 0.81066 0.22519 0.71183 0.0
C1756 C 0.80722 0.28674 0.70236 0.0
C1757 C 0.80409 0.14074 0.71059 0.0
C1758 C 0.7975 0.26208 0.6915 0.0
C1759 C 0.79103 0.17833 0.69017 0.0
H1760 H 0.56597 0.73151 0.471 0.0
H1761 H 0.53414 0.66809 0.43804 0.0
H1762 H 0.5224 0.81454 0.43723 0.0
H1763 H 0.52131 0.96058 0.4458 0.0
H1764 H 0.5533 0.02561 0.47859 0.0
H1765 H 0.56498 0.87866 0.47954 0.0
C1766 C 0.55666 0.75015 0.46356 0.0
C1767 C 0.55092 0.68911 0.45459 0.0
C1768 C 0.54991 0.83445 0.46317 0.0
C1769 C 0.53861 0.71381 0.44511 0.0
C1770 C 0.53191 0.79747 0.44463 0.0
C1771 C 0.53061 0.94221 0.45327 0.0
C1772 C 0.53634 1.00355 0.46217 0.0
C1773 C 0.53737 0.85812 0.45366 0.0
C1774 C 0.54874 0.97938 0.47162 0.0
C1775 C 0.55542 0.89551 0.47216 0.0
H1776 H 0.20933 0.06226 0.44782 0.0
H1777 H 0.16914 0.03148 0.47716 0.0
H1778 H 0.17487 0.87761 0.47773 0.0
H1779 H 0.19151 0.75049 0.47009 0.0
H1780 H 0.23185 0.78181 0.44087 0.0
H1781 H 0.22613 0.93572 0.44033 0.0
C1782 C 0.20194 0.02227 0.45444 0.0
C1783 C 0.18874 0.05948 0.46238 0.0
C1784 C 0.2054 0.93319 0.45482 0.0
C1785 C 0.17917 0.00549 0.47076 0.0
C1786 C 0.18251 0.91702 0.47117 0.0
C1787 C 0.19898 0.79077 0.46355 0.0
C1788 C 0.21219 0.75376 0.4556 0.0
C1789 C 0.19558 0.87997 0.46322 0.0
C1790 C 0.22184 0.80786 0.44728 0.0
C1791 C 0.21849 0.89626 0.44689 0.0
H1792 H 0.52729 0.09611 0.2908 0.0
H1793 H 0.58503 0.05521 0.29206 0.0
H1794 H 0.58034 0.89993 0.29268 0.0
H1795 H 0.55983 0.77496 0.29313 0.0
H1796 H 0.50206 0.8158 0.29167 0.0
H1797 H 0.50678 0.97077 0.291 0.0
C1798 C 0.53884 0.05337 0.29134 0.0
C1799 C 0.55652 0.08793 0.2914 0.0
C1800 C 0.53605 0.96355 0.29165 0.0
C1801 C 0.5713 0.03084 0.29187 0.0
C1802 C 0.56862 0.94178 0.29227 0.0
C1803 C 0.54825 0.81744 0.29254 0.0
C1804 C 0.53058 0.78272 0.29253 0.0
C1805 C 0.55106 0.90722 0.29213 0.0
C1806 C 0.51581 0.83989 0.29189 0.0
C1807 C 0.51849 0.92894 0.29146 0.0
H1808 H 0.16652 0.78172 0.29298 0.0
H1809 H 0.22069 0.68472 0.28771 0.0
H1810 H 0.23241 0.83082 0.28615 0.0
H1811 H 0.22725 0.98641 0.28695 0.0
H1812 H 0.173 0.08208 0.29256 0.0
H1813 H 0.1612 0.93658 0.29291 0.0
C1814 C 0.18084 0.79298 0.29139 0.0
C1815 C 0.19275 0.72341 0.2907 0.0
C1816 C 0.18743 0.87671 0.29044 0.0
C1817 C 0.21133 0.73783 0.28864 0.0
C1818 C 0.21802 0.82115 0.28763 0.0
C1819 C 0.21288 0.975 0.28822 0.0
C1820 C 0.20105 0.04456 0.28963 0.0
C1821 C 0.20621 0.89105 0.28867 0.0
C1822 C 0.18237 0.02961 0.29117 0.0
C1823 C 0.1756 0.94637 0.29151 0.0
H1824 H 0.93305 0.55014 0.54173 0.0
H1825 H 0.99081 0.59053 0.54379 0.0
H1826 H 0.98634 0.74541 0.54247 0.0
H1827 H 0.96607 0.87065 0.54074 0.0
H1828 H 0.90835 0.83055 0.53848 0.0
H1829 H 0.91279 0.67527 0.53968 0.0
C1830 C 0.94469 0.59254 0.54176 0.0
C1831 C 0.96226 0.55781 0.54294 0.0
C1832 C 0.94204 0.68225 0.54096 0.0
C1833 C 0.97711 0.61474 0.5431 0.0
C1834 C 0.97458 0.7037 0.54228 0.0
C1835 C 0.95445 0.82811 0.54062 0.0
C1836 C 0.93688 0.86286 0.53953 0.0
C1837 C 0.9571 0.73838 0.5413 0.0
C1838 C 0.92203 0.80602 0.53918 0.0
C1839 C 0.92456 0.71697 0.53992 0.0
H1840 H 0.28325 0.42048 0.53428 0.0
H1841 H 0.34001 0.4608 0.54203 0.0
H1842 H 0.33528 0.61583 0.54238 0.0
H1843 H 0.31493 0.74081 0.54102 0.0
H1844 H 0.25815 0.70073 0.53334 0.0
H1845 H 0.26296 0.54573 0.53261 0.0
C1846 C 0.29457 0.46297 0.53615 0.0
C1847 C 0.31199 0.42826 0.53811 0.0
C1848 C 0.29175 0.55268 0.53638 0.0
C1849 C 0.3265 0.48516 0.54032 0.0
C1850 C 0.3238 0.57413 0.54058 0.0
C1851 C 0.30363 0.69839 0.53904 0.0
C1852 C 0.28617 0.73307 0.53729 0.0
C1853 C 0.30648 0.60877 0.53864 0.0
C1854 C 0.27169 0.67632 0.5349 0.0
C1855 C 0.27444 0.58738 0.53443 0.0
H1856 H 0.93012 0.49516 0.72249 0.0
H1857 H 0.95415 0.43204 0.68643 0.0
H1858 H 0.96533 0.5789 0.68428 0.0
H1859 H 0.96826 0.72493 0.69266 0.0
H1860 H 0.94364 0.78979 0.72839 0.0
H1861 H 0.93251 0.64238 0.73067 0.0
C1862 C 0.93756 0.51392 0.71408 0.0
C1863 C 0.94136 0.45292 0.70465 0.0
C1864 C 0.94392 0.59837 0.71291 0.0
C1865 C 0.95126 0.47778 0.69389 0.0
C1866 C 0.95763 0.56162 0.69264 0.0
C1867 C 0.96069 0.70626 0.70102 0.0
C1868 C 0.95689 0.76734 0.71041 0.0
C1869 C 0.95417 0.62217 0.70214 0.0
C1870 C 0.94668 0.74336 0.72106 0.0
C1871 C 0.94033 0.65938 0.72235 0.0
H1872 H 0.30911 0.7481 0.72261 0.0
H1873 H 0.29207 0.81281 0.68472 0.0
H1874 H 0.2813 0.66622 0.68145 0.0
H1875 H 0.27684 0.52015 0.68929 0.0
H1876 H 0.29394 0.45327 0.72707 0.0
H1877 H 0.30475 0.60029 0.73046 0.0
C1878 C 0.30326 0.72969 0.7136 0.0
C1879 C 0.30137 0.79116 0.70392 0.0
C1880 C 0.29702 0.64529 0.71181 0.0
C1881 C 0.2935 0.7668 0.69234 0.0
C1882 C 0.28736 0.68306 0.69047 0.0
C1883 C 0.28263 0.53803 0.69835 0.0
C1884 C 0.28441 0.4762 0.70797 0.0
C1885 C 0.28893 0.62205 0.70016 0.0
C1886 C 0.29244 0.49984 0.71953 0.0
C1887 C 0.29862 0.58375 0.72146 0.0
H1888 H 0.08155 0.26566 0.46349 0.0
H1889 H 0.02855 0.16585 0.47243 0.0
H1890 H 0.01667 0.31104 0.47437 0.0
H1891 H 0.0211 0.46707 0.4727 0.0
H1892 H 0.07419 0.56648 0.46393 0.0
H1893 H 0.08638 0.42141 0.46304 0.0
C1894 C 0.06748 0.27601 0.46599 0.0
C1895 C 0.0559 0.20553 0.46753 0.0
C1896 C 0.06076 0.35963 0.46718 0.0
C1897 C 0.03764 0.21926 0.47079 0.0
C1898 C 0.03085 0.30224 0.47202 0.0
C1899 C 0.03533 0.45648 0.47066 0.0
C1900 C 0.04671 0.52684 0.46848 0.0
C1901 C 0.04223 0.37288 0.47004 0.0
C1902 C 0.0652 0.51315 0.46589 0.0
C1903 C 0.07217 0.43023 0.46526 0.0
H1904 H 0.71208 0.56841 0.45762 0.0
H1905 H 0.65685 0.52859 0.44569 0.0
H1906 H 0.66181 0.37343 0.44508 0.0
H1907 H 0.68198 0.24842 0.44761 0.0
H1908 H 0.73705 0.28828 0.46007 0.0
H1909 H 0.73206 0.4429 0.46064 0.0
C1910 C 0.70118 0.52586 0.45479 0.0
C1911 C 0.68411 0.56063 0.45168 0.0
C1912 C 0.7041 0.43617 0.45454 0.0
C1913 C 0.67007 0.50396 0.44824 0.0
C1914 C 0.67292 0.41501 0.44784 0.0
C1915 C 0.69286 0.29058 0.45061 0.0
C1916 C 0.70993 0.25562 0.45373 0.0
C1917 C 0.68987 0.3802 0.451 0.0
C1918 C 0.72385 0.31242 0.45742 0.0
C1919 C 0.72099 0.40133 0.4578 0.0
H1920 H 0.02583 0.29949 0.31253 0.0
H1921 H 0.04935 0.23297 0.27648 0.0
H1922 H 0.06088 0.37968 0.27413 0.0
H1923 H 0.06387 0.52742 0.28231 0.0
H1924 H 0.04046 0.59188 0.31851 0.0
H1925 H 0.02913 0.44538 0.3208 0.0
C1926 C 0.0332 0.31739 0.30406 0.0
C1927 C 0.03654 0.25571 0.29462 0.0
C1928 C 0.03989 0.40132 0.30285 0.0
C1929 C 0.0466 0.27938 0.28387 0.0
C1930 C 0.05319 0.36316 0.28254 0.0
C1931 C 0.05651 0.50904 0.29077 0.0
C1932 C 0.05297 0.57057 0.30022 0.0
C1933 C 0.04997 0.42462 0.292 0.0
C1934 C 0.04317 0.546 0.31105 0.0
C1935 C 0.03672 0.46225 0.31237 0.0
H1936 H 0.72764 0.14416 0.28569 0.0
H1937 H 0.66985 0.18415 0.28525 0.0
H1938 H 0.6744 0.33949 0.28623 0.0
H1939 H 0.6948 0.46472 0.28749 0.0
H1940 H 0.75262 0.42446 0.28769 0.0
H1941 H 0.74803 0.26954 0.28667 0.0
C1942 C 0.71603 0.18671 0.28592 0.0
C1943 C 0.6984 0.15192 0.28541 0.0
C1944 C 0.71875 0.27648 0.28645 0.0
C1945 C 0.68356 0.20874 0.28551 0.0
C1946 C 0.68615 0.29781 0.28611 0.0
C1947 C 0.70642 0.42235 0.28719 0.0
C1948 C 0.72406 0.45718 0.28775 0.0
C1949 C 0.70369 0.33259 0.28656 0.0
C1950 C 0.73889 0.40023 0.28747 0.0
C1951 C 0.73628 0.31123 0.28683 0.0
H1952 H 0.93331 0.93363 0.04301 0.0
H1953 H 0.99096 0.97594 0.0408 0.0
H1954 H 0.98611 0.1309 0.0403 0.0
H1955 H 0.96552 0.25581 0.04083 0.0
H1956 H 0.90787 0.21298 0.04327 0.0
H1957 H 0.91272 0.05817 0.0431 0.0
C1958 C 0.94481 0.9765 0.04229 0.0
C1959 C 0.9625 0.94222 0.04206 0.0
C1960 C 0.94194 0.06625 0.04209 0.0
C1961 C 0.9772 0.99974 0.04119 0.0
C1962 C 0.97444 0.08878 0.04088 0.0
C1963 C 0.95401 0.21282 0.04147 0.0
C1964 C 0.93633 0.24706 0.04206 0.0
C1965 C 0.95688 0.123 0.04147 0.0
C1966 C 0.92162 0.18937 0.04267 0.0
C1967 C 0.92438 0.10036 0.04266 0.0
H1968 H 0.33309 0.01399 0.03603 0.0
H1969 H 0.27899 0.91346 0.04092 0.0
H1970 H 0.26659 0.05763 0.03994 0.0
H1971 H 0.27107 0.21308 0.03844 0.0
H1972 H 0.32504 0.31359 0.03304 0.0
H1973 H 0.33732 0.16905 0.03298 0.0
C1974 C 0.31859 0.02355 0.03677 0.0
C1975 C 0.30713 0.95285 0.03884 0.0
C1976 C 0.31143 0.10683 0.03598 0.0
C1977 C 0.28831 0.96653 0.03976 0.0
C1978 C 0.28111 0.04912 0.03905 0.0
C1979 C 0.2855 0.20336 0.0372 0.0
C1980 C 0.29705 0.27457 0.03595 0.0
C1981 C 0.29256 0.11981 0.0373 0.0
C1982 C 0.31571 0.26053 0.03403 0.0
C1983 C 0.32283 0.17757 0.03409 0.0
H1984 H 0.93371 0.01451 0.22317 0.0
H1985 H 0.96343 0.951 0.18929 0.0
H1986 H 0.9751 0.09754 0.18806 0.0
H1987 H 0.9767 0.2434 0.19652 0.0
H1988 H 0.94711 0.30866 0.23038 0.0
H1989 H 0.93541 0.16178 0.23171 0.0
C1990 C 0.94255 0.03326 0.21545 0.0
C1991 C 0.94772 0.97231 0.20633 0.0
C1992 C 0.94931 0.11753 0.21486 0.0
C1993 C 0.95942 0.99687 0.19647 0.0
C1994 C 0.96607 0.0805 0.19576 0.0
C1995 C 0.96795 0.22515 0.20431 0.0
C1996 C 0.96288 0.28653 0.21339 0.0
C1997 C 0.96121 0.14113 0.20495 0.0
C1998 C 0.95115 0.26242 0.22326 0.0
C1999 C 0.94446 0.17859 0.22402 0.0
H2000 H 0.27308 0.37725 0.19446 0.0
H2001 H 0.30903 0.34811 0.22641 0.0
H2002 H 0.30294 0.19447 0.22691 0.0
H2003 H 0.28718 0.06689 0.21842 0.0
H2004 H 0.25112 0.09687 0.18654 0.0
H2005 H 0.25716 0.25041 0.18612 0.0
C2006 C 0.27947 0.33769 0.20162 0.0
C2007 C 0.29159 0.37538 0.21033 0.0
C2008 C 0.27579 0.24868 0.20195 0.0
C2009 C 0.29987 0.32183 0.21942 0.0
C2010 C 0.2963 0.23346 0.21978 0.0
C2011 C 0.28069 0.10677 0.21134 0.0
C2012 C 0.26857 0.06931 0.2026 0.0
C2013 C 0.28431 0.19594 0.21107 0.0
C2014 C 0.26023 0.12307 0.19357 0.0
C2015 C 0.26378 0.21136 0.19325 0.0
H2016 H 0.05293 0.97711 0.95539 0.0
H2017 H 0.99575 0.93583 0.94957 0.0
H2018 H 0.00019 0.78091 0.95099 0.0
H2019 H 0.02029 0.65591 0.95382 0.0
H2020 H 0.07749 0.69716 0.95962 0.0
H2021 H 0.073 0.8523 0.95845 0.0
C2022 C 0.0414 0.93454 0.95456 0.0
C2023 C 0.02402 0.96908 0.95229 0.0
C2024 C 0.04404 0.84481 0.95538 0.0
C2025 C 0.00932 0.91183 0.95112 0.0
C2026 C 0.01183 0.82283 0.95199 0.0
C2027 C 0.03182 0.6986 0.95472 0.0
C2028 C 0.04923 0.66406 0.95681 0.0
C2029 C 0.02915 0.78837 0.95402 0.0
C2030 C 0.0639 0.72131 0.95815 0.0
C2031 C 0.06136 0.81036 0.95743 0.0
H2032 H 0.70083 0.79273 0.97086 0.0
H2033 H 0.73981 0.82389 0.94073 0.0
H2034 H 0.73388 0.9775 0.94019 0.0
H2035 H 0.7173 0.10406 0.94792 0.0
H2036 H 0.67843 0.07369 0.97813 0.0
H2037 H 0.68438 0.91997 0.97873 0.0
C2038 C 0.70798 0.83286 0.96413 0.0
C2039 C 0.72088 0.79571 0.95593 0.0
C2040 C 0.70444 0.92206 0.96379 0.0
C2041 C 0.73006 0.84983 0.94735 0.0
C2042 C 0.72659 0.93816 0.94695 0.0
C2043 C 0.71023 0.06423 0.95473 0.0
C2044 C 0.69735 0.10163 0.96292 0.0
C2045 C 0.71381 0.97517 0.95512 0.0
C2046 C 0.68821 0.04768 0.97154 0.0
C2047 C 0.69168 0.95926 0.97197 0.0
H2048 H 0.03287 0.80546 0.80401 0.0
H2049 H 0.05433 0.74043 0.76729 0.0
H2050 H 0.06551 0.88736 0.76462 0.0
H2051 H 0.06868 0.03467 0.77266 0.0
H2052 H 0.04773 0.09841 0.80963 0.0
H2053 H 0.03673 0.95161 0.81227 0.0
C2054 C 0.03977 0.82393 0.79536 0.0
C2055 C 0.04263 0.76276 0.7858 0.0
C2056 C 0.04631 0.90798 0.79398 0.0
C2057 C 0.052 0.78671 0.77477 0.0
C2058 C 0.05839 0.87052 0.77325 0.0
C2059 C 0.06196 0.01613 0.78137 0.0
C2060 C 0.05897 0.07748 0.79091 0.0
C2061 C 0.05566 0.93163 0.78282 0.0
C2062 C 0.04999 0.05262 0.80207 0.0
C2063 C 0.04372 0.96872 0.8036 0.0
H2064 H 0.73208 0.93063 0.80978 0.0
H2065 H 0.71297 0.99433 0.77236 0.0
H2066 H 0.70197 0.84726 0.76949 0.0
H2067 H 0.69809 0.70028 0.7776 0.0
H2068 H 0.71675 0.638 0.81522 0.0
H2069 H 0.72776 0.7847 0.81801 0.0
C2070 C 0.72575 0.91192 0.80093 0.0
C2071 C 0.72348 0.9729 0.79125 0.0
C2072 C 0.7193 0.82772 0.79942 0.0
C2073 C 0.71483 0.94838 0.77995 0.0
C2074 C 0.70855 0.86442 0.77831 0.0
C2075 C 0.70432 0.71911 0.78647 0.0
C2076 C 0.70662 0.65817 0.79618 0.0
C2077 C 0.71064 0.80363 0.78801 0.0
C2078 C 0.71501 0.68343 0.80755 0.0
C2079 C 0.72128 0.7673 0.80916 0.0
H2080 H 0.33967 0.32516 0.05475 0.0
H2081 H 0.36412 0.57078 0.04665 0.0
H2082 H 0.39434 0.50561 0.04777 0.0
H2083 H 0.41369 0.37847 0.05148 0.0
H2084 H 0.38886 0.13071 0.05713 0.0
H2085 H 0.3587 0.19662 0.05641 0.0
C2086 C 0.35162 0.36427 0.05314 0.0
C2087 C 0.34977 0.45256 0.0507 0.0
C2088 C 0.36877 0.32591 0.05339 0.0
C2089 C 0.36529 0.50258 0.04853 0.0
C2090 C 0.38252 0.46543 0.04921 0.0
C2091 C 0.40161 0.33934 0.05258 0.0
C2092 C 0.40328 0.25048 0.05458 0.0
C2093 C 0.38441 0.37726 0.05172 0.0
C2094 C 0.38772 0.19942 0.05568 0.0
C2095 C 0.37056 0.23704 0.05528 0.0
H2096 H 0.83858 0.83703 0.04765 0.0
H2097 H 0.86282 0.07625 0.05926 0.0
H2098 H 0.8926 0.00676 0.06054 0.0
H2099 H 0.91146 0.87745 0.05859 0.0
H2100 H 0.88783 0.64123 0.04502 0.0
H2101 H 0.85798 0.71 0.04408 0.0
C2102 C 0.85048 0.87382 0.0503 0.0
C2103 C 0.84873 0.96118 0.05338 0.0
C2104 C 0.86754 0.83406 0.05061 0.0
C2105 C 0.86406 0.0089 0.05681 0.0
C2106 C 0.881 0.9692 0.05754 0.0
C2107 C 0.89978 0.84117 0.05537 0.0
C2108 C 0.90175 0.75434 0.05196 0.0
C2109 C 0.88287 0.88177 0.05451 0.0
C2110 C 0.88659 0.70819 0.04768 0.0
C2111 C 0.86956 0.74742 0.04717 0.0
H2112 H 0.3555 0.73216 0.20169 0.0
H2113 H 0.31754 0.94214 0.20015 0.0
H2114 H 0.34245 0.04562 0.20078 0.0
H2115 H 0.3752 0.07648 0.20153 0.0
H2116 H 0.41303 0.8666 0.20475 0.0
H2117 H 0.38815 0.7632 0.20372 0.0
C2118 C 0.35276 0.80063 0.20151 0.0
C2119 C 0.33479 0.82971 0.20089 0.0
C2120 C 0.36714 0.85974 0.20216 0.0
C2121 C 0.33129 0.91841 0.20078 0.0
C2122 C 0.34553 0.97757 0.20107 0.0
C2123 C 0.37794 0.00808 0.20201 0.0
C2124 C 0.39587 0.97911 0.20315 0.0
C2125 C 0.36352 0.94901 0.20173 0.0
C2126 C 0.39929 0.89042 0.20393 0.0
C2127 C 0.38509 0.83123 0.20329 0.0
H2128 H 0.85484 0.31634 0.21506 0.0
H2129 H 0.86135 0.2566 0.17541 0.0
H2130 H 0.88438 0.3686 0.17345 0.0
H2131 H 0.90264 0.48418 0.18298 0.0
H2132 H 0.89812 0.5356 0.22295 0.0
H2133 H 0.87415 0.42709 0.22483 0.0
C2134 C 0.86138 0.32757 0.20601 0.0
C2135 C 0.85641 0.27818 0.1954 0.0
C2136 C 0.87479 0.39126 0.20499 0.0
C2137 C 0.86505 0.29315 0.18375 0.0
C2138 C 0.87813 0.35761 0.18259 0.0
C2139 C 0.89621 0.47203 0.19205 0.0
C2140 C 0.90175 0.51839 0.20278 0.0
C2141 C 0.88303 0.40734 0.19313 0.0
C2142 C 0.89383 0.50089 0.21457 0.0
C2143 C 0.88021 0.43881 0.21564 0.0
H2144 H 0.63464 0.45606 0.94779 0.0
H2145 H 0.67268 0.66478 0.95155 0.0
H2146 H 0.648 0.76882 0.95064 0.0
H2147 H 0.61535 0.80073 0.94919 0.0
H2148 H 0.57719 0.59154 0.9468 0.0
H2149 H 0.60199 0.48778 0.94669 0.0
C2150 C 0.63747 0.52435 0.94837 0.0
C2151 C 0.65541 0.55272 0.94982 0.0
C2152 C 0.62315 0.58382 0.94808 0.0
C2153 C 0.65894 0.64131 0.95065 0.0
C2154 C 0.64484 0.70092 0.95005 0.0
C2155 C 0.61254 0.73244 0.94856 0.0
C2156 C 0.59454 0.70369 0.94801 0.0
C2157 C 0.62687 0.67297 0.94883 0.0
C2158 C 0.59098 0.61506 0.94735 0.0
C2159 C 0.60515 0.5557 0.94725 0.0
H2160 H 0.12869 0.9514 0.95392 0.0
H2161 H 0.16912 0.1511 0.95285 0.0
H2162 H 0.14555 0.26053 0.95128 0.0
H2163 H 0.11326 0.2997 0.95008 0.0
H2164 H 0.07283 0.10008 0.95165 0.0
H2165 H 0.09638 0.99079 0.95311 0.0
C2166 C 0.13227 0.01889 0.95334 0.0
C2167 C 0.15056 0.04339 0.95368 0.0
C2168 C 0.11861 0.08157 0.95251 0.0
C2169 C 0.15508 0.13101 0.95293 0.0
C2170 C 0.14162 0.19355 0.95191 0.0
C2171 C 0.10966 0.23226 0.95074 0.0
C2172 C 0.09134 0.20804 0.95086 0.0
C2173 C 0.12332 0.16966 0.95171 0.0
C2174 C 0.08683 0.12045 0.95177 0.0
C2175 C 0.1003 0.05779 0.95251 0.0
H2176 H 0.63913 0.30164 0.79907 0.0
H2177 H 0.67904 0.09964 0.79767 0.0
H2178 H 0.65512 0.99134 0.79758 0.0
H2179 H 0.6227 0.95348 0.7981 0.0
H2180 H 0.58276 0.15565 0.79797 0.0
H2181 H 0.60669 0.26394 0.79844 0.0
C2182 C 0.64253 0.23389 0.79874 0.0
C2183 C 0.66079 0.20873 0.79839 0.0
C2184 C 0.62867 0.17182 0.79842 0.0
C2185 C 0.66506 0.12074 0.79783 0.0
C2186 C 0.65139 0.05867 0.79784 0.0
C2187 C 0.61929 0.02126 0.79819 0.0
C2188 C 0.60103 0.04649 0.79805 0.0
C2189 C 0.63314 0.08338 0.79816 0.0
C2190 C 0.59675 0.13455 0.798 0.0
C2191 C 0.61042 0.19659 0.79832 0.0
H2192 H 0.08755 0.63024 0.79525 0.0
H2193 H 0.12542 0.4197 0.79724 0.0
H2194 H 0.15074 0.52145 0.79795 0.0
H2195 H 0.16199 0.67015 0.79824 0.0
H2196 H 0.124 0.88067 0.79784 0.0
H2197 H 0.09874 0.77897 0.79629 0.0
C2198 C 0.10136 0.60668 0.79576 0.0
C2199 C 0.10467 0.51764 0.79607 0.0
C2200 C 0.11576 0.6655 0.7965 0.0
C2201 C 0.12258 0.48795 0.79699 0.0
C2202 C 0.13703 0.54607 0.79738 0.0
C2203 C 0.14818 0.69375 0.79775 0.0
C2204 C 0.14483 0.78277 0.79804 0.0
C2205 C 0.13377 0.63494 0.79717 0.0
C2206 C 0.12688 0.81244 0.79764 0.0
C2207 C 0.11247 0.75436 0.79673 0.0
H2208 H 0.40176 0.78007 0.54165 0.0
H2209 H 0.42067 0.91672 0.57473 0.0
H2210 H 0.39299 1.00128 0.5751 0.0
H2211 H 0.36392 0.04041 0.56573 0.0
H2212 H 0.34462 0.90526 0.53266 0.0
H2213 H 0.37188 0.8164 0.53263 0.0
C2214 C 0.39974 0.82782 0.549 0.0
C2215 C 0.41333 0.8421 0.55811 0.0
C2216 C 0.38377 0.87707 0.54913 0.0
C2217 C 0.4105 0.90444 0.56755 0.0
C2218 C 0.39467 0.9531 0.56778 0.0
C2219 C 0.36564 0.99159 0.5585 0.0
C2220 C 0.35229 0.98009 0.54917 0.0
C2221 C 0.38131 0.94068 0.55854 0.0
C2222 C 0.35472 0.91588 0.53994 0.0
C2223 C 0.37031 0.8649 0.53991 0.0
H2224 H 0.85578 0.5621 0.54897 0.0
H2225 H 0.81698 0.35514 0.54817 0.0
H2226 H 0.84147 0.24963 0.54847 0.0
H2227 H 0.87407 0.21611 0.54866 0.0
H2228 H 0.91288 0.42316 0.54802 0.0
H2229 H 0.88842 0.52855 0.54855 0.0
C2230 C 0.85278 0.49386 0.54892 0.0
C2231 C 0.83471 0.46613 0.54851 0.0
C2232 C 0.86695 0.43361 0.54878 0.0
C2233 C 0.83086 0.37774 0.54832 0.0
C2234 C 0.84483 0.31743 0.54855 0.0
C2235 C 0.8771 0.28432 0.54866 0.0
C2236 C 0.89519 0.31196 0.54825 0.0
C2237 C 0.86294 0.34458 0.54871 0.0
C2238 C 0.89902 0.40044 0.54816 0.0
C2239 C 0.88505 0.46075 0.54854 0.0
H2240 H 0.33862 0.41434 0.69899 0.0
H2241 H 0.35399 0.14905 0.70382 0.0
H2242 H 0.38585 0.19085 0.70543 0.0
H2243 H 0.40933 0.30178 0.70441 0.0
H2244 H 0.39426 0.56842 0.70127 0.0
H2245 H 0.36217 0.52759 0.70017 0.0
C2246 C 0.349 0.36599 0.70044 0.0
C2247 C 0.34411 0.27876 0.70113 0.0
C2248 C 0.36724 0.39076 0.70166 0.0
C2249 C 0.35751 0.21655 0.70325 0.0
C2250 C 0.3757 0.24037 0.70414 0.0
C2251 C 0.399 0.35099 0.70357 0.0
C2252 C 0.40409 0.43783 0.70274 0.0
C2253 C 0.38071 0.32709 0.7032 0.0
C2254 C 0.39062 0.50116 0.70189 0.0
C2255 C 0.37232 0.47776 0.70121 0.0
H2256 H 0.83544 0.91064 0.68708 0.0
H2257 H 0.85845 0.70515 0.70928 0.0
H2258 H 0.88622 0.78964 0.71227 0.0
H2259 H 0.90404 0.92183 0.7082 0.0
H2260 H 0.8801 0.12583 0.68606 0.0
H2261 H 0.85255 0.04181 0.68351 0.0
C2262 C 0.84654 0.88376 0.69252 0.0
C2263 C 0.84495 0.80123 0.69783 0.0
C2264 C 0.86228 0.9327 0.69426 0.0
C2265 C 0.85937 0.76837 0.70504 0.0
C2266 C 0.87523 0.8167 0.70676 0.0
C2267 C 0.89276 0.94804 0.70287 0.0
C2268 C 0.89422 0.03007 0.69729 0.0
C2269 C 0.87685 0.899 0.70137 0.0
C2270 C 0.87945 0.06288 0.69041 0.0
C2271 C 0.86365 0.01484 0.68893 0.0
H2272 H 0.64278 0.02544 0.45536 0.0
H2273 H 0.66034 0.13281 0.41969 0.0
H2274 H 0.63474 0.23123 0.41975 0.0
H2275 H 0.60767 0.28944 0.43006 0.0
H2276 H 0.58985 0.1821 0.46565 0.0
H2277 H 0.6152 0.08173 0.46547 0.0
C2278 C 0.6409 0.06972 0.44753 0.0
C2279 C 0.65349 0.07154 0.43755 0.0
C2280 C 0.62616 0.12692 0.44764 0.0
C2281 C 0.65088 0.12981 0.42752 0.0
C2282 C 0.63626 0.18652 0.42755 0.0
C2283 C 0.60937 0.24442 0.43781 0.0
C2284 C 0.5969 0.24369 0.44786 0.0
C2285 C 0.62391 0.18626 0.43761 0.0
C2286 C 0.59924 0.18421 0.45777 0.0
C2287 C 0.61373 0.12658 0.45768 0.0
H2288 H 0.09906 0.70837 0.43745 0.0
H2289 H 0.11052 0.78909 0.47564 0.0
H2290 H 0.1346 0.68114 0.47728 0.0
H2291 H 0.15203 0.56295 0.46785 0.0
H2292 H 0.13881 0.47424 0.43023 0.0
H2293 H 0.11553 0.58515 0.42839 0.0
C2294 C 0.10705 0.70268 0.44603 0.0
C2295 C 0.10349 0.75716 0.45631 0.0
C2296 C 0.12028 0.63839 0.44706 0.0
C2297 C 0.11336 0.74815 0.46758 0.0
C2298 C 0.127 0.68636 0.46852 0.0
C2299 C 0.14399 0.56772 0.45927 0.0
C2300 C 0.14712 0.51066 0.44919 0.0
C2301 C 0.13051 0.63086 0.45834 0.0
C2302 C 0.13654 0.51702 0.43817 0.0
C2303 C 0.12332 0.58078 0.43707 0.0
H2304 H 0.61871 0.4486 0.29836 0.0
H2305 H 0.57955 0.65332 0.30023 0.0
H2306 H 0.60375 0.76026 0.29905 0.0
H2307 H 0.63619 0.79568 0.29724 0.0
H2308 H 0.6752 0.59082 0.29408 0.0
H2309 H 0.65111 0.48411 0.29595 0.0
C2310 C 0.61556 0.51666 0.29857 0.0
C2311 C 0.59744 0.54331 0.29935 0.0
C2312 C 0.62955 0.57777 0.29759 0.0
C2313 C 0.59343 0.63154 0.29948 0.0
C2314 C 0.60726 0.69265 0.29886 0.0
C2315 C 0.63937 0.72767 0.29697 0.0
C2316 C 0.65742 0.70116 0.29546 0.0
C2317 C 0.62537 0.66657 0.29784 0.0
C2318 C 0.66137 0.61283 0.29504 0.0
C2319 C 0.64761 0.55172 0.2962 0.0
H2320 H 0.15051 0.19752 0.29211 0.0
H2321 H 0.12922 0.39965 0.31585 0.0
H2322 H 0.10146 0.31844 0.31902 0.0
H2323 H 0.08347 0.18989 0.31562 0.0
H2324 H 0.10392 0.98515 0.29209 0.0
H2325 H 0.13186 0.06704 0.2884 0.0
C2326 C 0.13977 0.22372 0.29794 0.0
C2327 C 0.14205 0.30439 0.3038 0.0
C2328 C 0.12377 0.17596 0.29987 0.0
C2329 C 0.12794 0.3376 0.31128 0.0
C2330 C 0.11203 0.29115 0.31313 0.0
C2331 C 0.09404 0.1626 0.30973 0.0
C2332 C 0.09166 0.08111 0.30424 0.0
C2333 C 0.10988 0.21005 0.3076 0.0
C2334 C 0.10544 0.04764 0.29648 0.0
C2335 C 0.12139 0.09453 0.29435 0.0
loop_
_geom_bond_atom_site_label_1
_geom_bond_atom_site_label_2
_geom_bond_distance
_geom_bond_site_symmetry_2
_ccdc_geom_bond_type
Co0 N4 2.148 . S
Co0 N10 2.128 . S
Co0 N20 2.194 . S
Co0 O25 2.351 . S
Co0 O26 2.155 . S
Co0 O27 2.096 . S
C1 N4 1.301 1_565 S
C1 N5 1.328 . S
C1 H6 0.930 . S
C2 C3 1.333 1_545 S
C2 N4 1.317 . S
C2 H7 0.930 . S
C3 C2 1.333 1_565 S
C3 N5 1.350 . S
C3 H29 0.931 . S
N4 Co0 2.148 . S
N4 C1 1.301 1_545 S
N4 C2 1.317 . S
N5 C1 1.328 . S
N5 C3 1.350 . S
H6 C1 0.930 . S
H7 C2 0.930 . S
C8 O9 1.224 . S
C8 O27 1.247 . S
O9 C8 1.224 . S
N10 Co0 2.128 . S
N10 C11 1.355 . S
N10 C13 1.311 . S
C11 N10 1.355 . S
C11 C12 1.363 . S
C11 H23 0.929 . S
C12 C11 1.363 . S
C12 N14 1.375 . S
C12 H30 0.931 . S
C13 N10 1.311 . S
C13 N14 1.347 . S
C13 H24 0.929 . S
N14 C12 1.375 . S
N14 C13 1.347 . S
C15 C18 1.365 . S
C15 N20 1.328 . S
C15 H21 0.929 . S
C16 C17 1.362 . S
C16 C19 1.378 . S
C16 H31 0.929 . S
C17 C16 1.362 . S
C17 C18 1.366 . S
C18 C15 1.365 . S
C18 C17 1.366 . S
C18 H32 0.930 . S
C19 C16 1.378 . S
C19 N20 1.315 . S
C19 H22 0.930 . S
N20 Co0 2.194 . S
N20 C15 1.328 . S
N20 C19 1.315 . S
H21 C15 0.929 . S
H22 C19 0.930 . S
H23 C11 0.929 . S
H24 C13 0.929 . S
O25 Co0 2.351 . S
O25 C28 1.244 . S
O26 Co0 2.155 . S
O26 C28 1.240 . S
O27 Co0 2.096 . S
O27 C8 1.247 . S
C28 O25 1.244 . S
C28 O26 1.240 . S
H29 C3 0.931 . S
H30 C12 0.931 . S
H31 C16 0.929 . S
H32 C18 0.930 . S
Co33 N37 2.148 . S
Co33 N43 2.128 1_545 S
Co33 N53 2.194 . S
Co33 O58 2.351 . S
Co33 O59 2.155 . S
Co33 O60 2.096 . S
C34 N37 1.301 . S
C34 N38 1.328 . S
C34 H39 0.930 . S
C35 C36 1.333 . S
C35 N37 1.317 . S
C35 H40 0.930 . S
C36 C35 1.333 . S
C36 N38 1.350 . S
C36 H62 0.931 . S
N37 Co33 2.148 . S
N37 C34 1.301 . S
N37 C35 1.317 . S
N38 C34 1.328 . S
N38 C36 1.350 . S
H39 C34 0.930 . S
H40 C35 0.930 . S
C41 O42 1.224 1_565 S
C41 O60 1.246 1_565 S
O42 C41 1.224 1_545 S
N43 Co33 2.128 1_565 S
N43 C44 1.355 . S
N43 C46 1.311 . S
C44 N43 1.355 . S
C44 C45 1.363 . S
C44 H56 0.929 . S
C45 C44 1.363 . S
C45 N47 1.375 . S
C45 H63 0.931 . S
C46 N43 1.311 . S
C46 N47 1.347 . S
C46 H57 0.929 . S
N47 C45 1.375 . S
N47 C46 1.347 . S
C48 C51 1.365 . S
C48 N53 1.328 . S
C48 H54 0.929 . S
C49 C50 1.362 . S
C49 C52 1.378 . S
C49 H64 0.929 . S
C50 C49 1.362 . S
C50 C51 1.366 . S
C51 C48 1.365 . S
C51 C50 1.366 . S
C51 H65 0.930 . S
C52 C49 1.378 . S
C52 N53 1.315 . S
C52 H55 0.930 . S
N53 Co33 2.194 . S
N53 C48 1.328 . S
N53 C52 1.315 . S
H54 C48 0.929 . S
H55 C52 0.930 . S
H56 C44 0.929 . S
H57 C46 0.929 . S
O58 Co33 2.351 . S
O58 C61 1.244 . S
O59 Co33 2.155 . S
O59 C61 1.240 . S
O60 Co33 2.096 . S
O60 C41 1.246 1_545 S
C61 O58 1.244 . S
C61 O59 1.240 . S
H62 C36 0.931 . S
H63 C45 0.931 . S
H64 C49 0.929 . S
H65 C51 0.930 . S
Co66 N70 2.148 . S
Co66 N76 2.128 1_545 S
Co66 N86 2.194 . S
Co66 O91 2.351 . S
Co66 O92 2.155 . S
Co66 O93 2.096 . S
C67 N70 1.301 . S
C67 N71 1.328 . S
C67 H72 0.930 . S
C68 C69 1.333 . S
C68 N70 1.317 . S
C68 H73 0.930 . S
C69 C68 1.333 . S
C69 N71 1.350 . S
C69 H95 0.931 . S
N70 Co66 2.148 . S
N70 C67 1.301 . S
N70 C68 1.317 . S
N71 C67 1.328 . S
N71 C69 1.350 . S
H72 C67 0.930 . S
H73 C68 0.930 . S
C74 O75 1.224 1_565 S
C74 O93 1.246 1_565 S
O75 C74 1.224 1_545 S
N76 Co66 2.128 1_565 S
N76 C77 1.355 . S
N76 C79 1.311 . S
C77 N76 1.355 . S
C77 C78 1.363 . S
C77 H89 0.929 . S
C78 C77 1.363 . S
C78 N80 1.375 . S
C78 H96 0.931 . S
C79 N76 1.311 . S
C79 N80 1.347 . S
C79 H90 0.929 . S
N80 C78 1.375 . S
N80 C79 1.347 . S
C81 C84 1.365 . S
C81 N86 1.328 . S
C81 H87 0.929 . S
C82 C83 1.362 . S
C82 C85 1.378 . S
C82 H97 0.929 . S
C83 C82 1.362 . S
C83 C84 1.366 . S
C84 C81 1.365 . S
C84 C83 1.366 . S
C84 H98 0.930 . S
C85 C82 1.378 . S
C85 N86 1.315 . S
C85 H88 0.930 . S
N86 Co66 2.194 . S
N86 C81 1.328 . S
N86 C85 1.315 . S
H87 C81 0.929 . S
H88 C85 0.930 . S
H89 C77 0.929 . S
H90 C79 0.929 . S
O91 Co66 2.351 . S
O91 C94 1.244 . S
O92 Co66 2.155 . S
O92 C94 1.240 . S
O93 Co66 2.096 . S
O93 C74 1.246 1_545 S
C94 O91 1.244 . S
C94 O92 1.240 . S
H95 C69 0.931 . S
H96 C78 0.931 . S
H97 C82 0.929 . S
H98 C84 0.930 . S
Co99 N103 2.148 . S
Co99 N109 2.128 . S
Co99 N119 2.194 . S
Co99 O124 2.351 . S
Co99 O125 2.155 . S
Co99 O126 2.096 . S
C100 N103 1.301 1_565 S
C100 N104 1.328 . S
C100 H105 0.930 . S
C101 C102 1.333 1_545 S
C101 N103 1.317 . S
C101 H106 0.930 . S
C102 C101 1.333 1_565 S
C102 N104 1.350 . S
C102 H128 0.931 . S
N103 Co99 2.148 . S
N103 C100 1.301 1_545 S
N103 C101 1.317 . S
N104 C100 1.328 . S
N104 C102 1.350 . S
H105 C100 0.930 . S
H106 C101 0.930 . S
C107 O108 1.224 . S
C107 O126 1.247 . S
O108 C107 1.224 . S
N109 Co99 2.128 . S
N109 C110 1.355 . S
N109 C112 1.311 . S
C110 N109 1.355 . S
C110 C111 1.363 . S
C110 H122 0.929 . S
C111 C110 1.363 . S
C111 N113 1.375 . S
C111 H129 0.931 . S
C112 N109 1.311 . S
C112 N113 1.347 . S
C112 H123 0.929 . S
N113 C111 1.375 . S
N113 C112 1.347 . S
C114 C117 1.365 . S
C114 N119 1.328 . S
C114 H120 0.929 . S
C115 C116 1.362 . S
C115 C118 1.378 . S
C115 H130 0.929 . S
C116 C115 1.362 . S
C116 C117 1.366 . S
C117 C114 1.365 . S
C117 C116 1.366 . S
C117 H131 0.930 . S
C118 C115 1.378 . S
C118 N119 1.315 . S
C118 H121 0.930 . S
N119 Co99 2.194 . S
N119 C114 1.328 . S
N119 C118 1.315 . S
H120 C114 0.929 . S
H121 C118 0.930 . S
H122 C110 0.929 . S
H123 C112 0.929 . S
O124 Co99 2.351 . S
O124 C127 1.244 . S
O125 Co99 2.155 . S
O125 C127 1.240 . S
O126 Co99 2.096 . S
O126 C107 1.247 . S
C127 O124 1.244 . S
C127 O125 1.240 . S
H128 C102 0.931 . S
H129 C111 0.931 . S
H130 C115 0.929 . S
H131 C117 0.930 . S
Co132 N136 2.148 . S
Co132 N142 2.128 . S
Co132 N152 2.194 . S
Co132 O157 2.351 . S
Co132 O158 2.155 . S
Co132 O159 2.096 . S
C133 N136 1.301 1_545 S
C133 N137 1.328 . S
C133 H138 0.930 . S
C134 C135 1.333 1_565 S
C134 N136 1.317 . S
C134 H139 0.930 . S
C135 C134 1.333 1_545 S
C135 N137 1.350 . S
C135 H161 0.931 . S
N136 Co132 2.148 . S
N136 C133 1.301 1_565 S
N136 C134 1.317 . S
N137 C133 1.328 . S
N137 C135 1.350 . S
H138 C133 0.930 . S
H139 C134 0.930 . S
C140 O141 1.224 . S
C140 O159 1.247 . S
O141 C140 1.224 . S
N142 Co132 2.128 . S
N142 C143 1.355 . S
N142 C145 1.311 . S
C143 N142 1.355 . S
C143 C144 1.363 . S
C143 H155 0.929 . S
C144 C143 1.363 . S
C144 N146 1.375 . S
C144 H162 0.931 . S
C145 N142 1.311 . S
C145 N146 1.347 . S
C145 H156 0.929 . S
N146 C144 1.375 . S
N146 C145 1.347 . S
C147 C150 1.365 . S
C147 N152 1.328 . S
C147 H153 0.929 . S
C148 C149 1.362 . S
C148 C151 1.378 . S
C148 H163 0.929 . S
C149 C148 1.362 . S
C149 C150 1.366 . S
C150 C147 1.365 . S
C150 C149 1.366 . S
C150 H164 0.930 . S
C151 C148 1.378 . S
C151 N152 1.315 . S
C151 H154 0.930 . S
N152 Co132 2.194 . S
N152 C147 1.328 . S
N152 C151 1.315 . S
H153 C147 0.929 . S
H154 C151 0.930 . S
H155 C143 0.929 . S
H156 C145 0.929 . S
O157 Co132 2.351 . S
O157 C160 1.244 . S
O158 Co132 2.155 . S
O158 C160 1.240 . S
O159 Co132 2.096 . S
O159 C140 1.247 . S
C160 O157 1.244 . S
C160 O158 1.240 . S
H161 C135 0.931 . S
H162 C144 0.931 . S
H163 C148 0.929 . S
H164 C150 0.930 . S
Co165 N169 2.148 . S
Co165 N175 2.128 1_565 S
Co165 N185 2.194 . S
Co165 O190 2.351 . S
Co165 O191 2.155 . S
Co165 O192 2.096 . S
C166 N169 1.301 . S
C166 N170 1.328 . S
C166 H171 0.930 . S
C167 C168 1.333 . S
C167 N169 1.317 . S
C167 H172 0.930 . S
C168 C167 1.333 . S
C168 N170 1.350 . S
C168 H194 0.931 . S
N169 Co165 2.148 . S
N169 C166 1.301 . S
N169 C167 1.317 . S
N170 C166 1.328 . S
N170 C168 1.350 . S
H171 C166 0.930 . S
H172 C167 0.930 . S
C173 O174 1.224 1_545 S
C173 O192 1.246 1_545 S
O174 C173 1.224 1_565 S
N175 Co165 2.128 1_545 S
N175 C176 1.355 . S
N175 C178 1.311 . S
C176 N175 1.355 . S
C176 C177 1.363 . S
C176 H188 0.929 . S
C177 C176 1.363 . S
C177 N179 1.375 . S
C177 H195 0.931 . S
C178 N175 1.311 . S
C178 N179 1.347 . S
C178 H189 0.929 . S
N179 C177 1.375 . S
N179 C178 1.347 . S
C180 C183 1.365 . S
C180 N185 1.328 . S
C180 H186 0.929 . S
C181 C182 1.362 . S
C181 C184 1.378 . S
C181 H196 0.929 . S
C182 C181 1.362 . S
C182 C183 1.366 . S
C183 C180 1.365 . S
C183 C182 1.366 . S
C183 H197 0.930 . S
C184 C181 1.378 . S
C184 N185 1.315 . S
C184 H187 0.930 . S
N185 Co165 2.194 . S
N185 C180 1.328 . S
N185 C184 1.315 . S
H186 C180 0.929 . S
H187 C184 0.930 . S
H188 C176 0.929 . S
H189 C178 0.929 . S
O190 Co165 2.351 . S
O190 C193 1.244 . S
O191 Co165 2.155 . S
O191 C193 1.240 . S
O192 Co165 2.096 . S
O192 C173 1.246 1_565 S
C193 O190 1.244 . S
C193 O191 1.240 . S
H194 C168 0.931 . S
H195 C177 0.931 . S
H196 C181 0.929 . S
H197 C183 0.930 . S
Co198 N202 2.148 . S
Co198 N208 2.128 1_565 S
Co198 N218 2.194 . S
Co198 O223 2.351 . S
Co198 O224 2.155 . S
Co198 O225 2.096 . S
C199 N202 1.301 . S
C199 N203 1.328 . S
C199 H204 0.930 . S
C200 C201 1.333 . S
C200 N202 1.317 . S
C200 H205 0.930 . S
C201 C200 1.333 . S
C201 N203 1.350 . S
C201 H227 0.931 . S
N202 Co198 2.148 . S
N202 C199 1.301 . S
N202 C200 1.317 . S
N203 C199 1.328 . S
N203 C201 1.350 . S
H204 C199 0.930 . S
H205 C200 0.930 . S
C206 O207 1.224 1_545 S
C206 O225 1.246 1_545 S
O207 C206 1.224 1_565 S
N208 Co198 2.128 1_545 S
N208 C209 1.355 . S
N208 C211 1.311 . S
C209 N208 1.355 . S
C209 C210 1.363 . S
C209 H221 0.929 . S
C210 C209 1.363 . S
C210 N212 1.375 . S
C210 H228 0.931 . S
C211 N208 1.311 . S
C211 N212 1.347 . S
C211 H222 0.929 . S
N212 C210 1.375 . S
N212 C211 1.347 . S
C213 C216 1.365 . S
C213 N218 1.328 . S
C213 H219 0.929 . S
C214 C215 1.362 . S
C214 C217 1.378 . S
C214 H229 0.929 . S
C215 C214 1.362 . S
C215 C216 1.366 . S
C216 C213 1.365 . S
C216 C215 1.366 . S
C216 H230 0.930 . S
C217 C214 1.378 . S
C217 N218 1.315 . S
C217 H220 0.930 . S
N218 Co198 2.194 . S
N218 C213 1.328 . S
N218 C217 1.315 . S
H219 C213 0.929 . S
H220 C217 0.930 . S
H221 C209 0.929 . S
H222 C211 0.929 . S
O223 Co198 2.351 . S
O223 C226 1.244 . S
O224 Co198 2.155 . S
O224 C226 1.240 . S
O225 Co198 2.096 . S
O225 C206 1.246 1_565 S
C226 O223 1.244 . S
C226 O224 1.240 . S
H227 C201 0.931 . S
H228 C210 0.931 . S
H229 C214 0.929 . S
H230 C216 0.930 . S
Co231 N235 2.148 . S
Co231 N241 2.128 . S
Co231 N251 2.194 . S
Co231 O256 2.351 . S
Co231 O257 2.155 . S
Co231 O258 2.096 . S
C232 N235 1.301 1_545 S
C232 N236 1.328 . S
C232 H237 0.930 . S
C233 C234 1.333 1_565 S
C233 N235 1.317 . S
C233 H238 0.930 . S
C234 C233 1.333 1_545 S
C234 N236 1.350 . S
C234 H260 0.931 . S
N235 Co231 2.148 . S
N235 C232 1.301 1_565 S
N235 C233 1.317 . S
N236 C232 1.328 . S
N236 C234 1.350 . S
H237 C232 0.930 . S
H238 C233 0.930 . S
C239 O240 1.224 . S
C239 O258 1.247 . S
O240 C239 1.224 . S
N241 Co231 2.128 . S
N241 C242 1.355 . S
N241 C244 1.311 . S
C242 N241 1.355 . S
C242 C243 1.363 . S
C242 H254 0.929 . S
C243 C242 1.363 . S
C243 N245 1.375 . S
C243 H261 0.931 . S
C244 N241 1.311 . S
C244 N245 1.347 . S
C244 H255 0.929 . S
N245 C243 1.375 . S
N245 C244 1.347 . S
C246 C249 1.365 . S
C246 N251 1.328 . S
C246 H252 0.929 . S
C247 C248 1.362 . S
C247 C250 1.378 . S
C247 H262 0.929 . S
C248 C247 1.362 . S
C248 C249 1.366 . S
C249 C246 1.365 . S
C249 C248 1.366 . S
C249 H263 0.930 . S
C250 C247 1.378 . S
C250 N251 1.315 . S
C250 H253 0.930 . S
N251 Co231 2.194 . S
N251 C246 1.328 . S
N251 C250 1.315 . S
H252 C246 0.929 . S
H253 C250 0.930 . S
H254 C242 0.929 . S
H255 C244 0.929 . S
O256 Co231 2.351 . S
O256 C259 1.244 . S
O257 Co231 2.155 . S
O257 C259 1.240 . S
O258 Co231 2.096 . S
O258 C239 1.247 . S
C259 O256 1.244 . S
C259 O257 1.240 . S
H260 C234 0.931 . S
H261 C243 0.931 . S
H262 C247 0.929 . S
H263 C249 0.930 . S
Co264 N268 2.148 . S
Co264 N274 2.128 . S
Co264 N284 2.194 . S
Co264 O289 2.351 . S
Co264 O290 2.155 . S
Co264 O291 2.096 . S
C265 N268 1.301 . S
C265 N269 1.328 . S
C265 H270 0.930 . S
C266 C267 1.333 . S
C266 N268 1.317 . S
C266 H271 0.930 . S
C267 C266 1.333 . S
C267 N269 1.350 . S
C267 H293 0.931 . S
N268 Co264 2.148 . S
N268 C265 1.301 . S
N268 C266 1.317 . S
N269 C265 1.328 . S
N269 C267 1.350 . S
H270 C265 0.930 . S
H271 C266 0.930 . S
C272 O273 1.224 . S
C272 O291 1.247 . S
O273 C272 1.224 . S
N274 Co264 2.128 . S
N274 C275 1.355 . S
N274 C277 1.311 . S
C275 N274 1.355 . S
C275 C276 1.363 . S
C275 H287 0.929 . S
C276 C275 1.363 . S
C276 N278 1.375 . S
C276 H294 0.931 . S
C277 N274 1.311 . S
C277 N278 1.347 . S
C277 H288 0.929 . S
N278 C276 1.375 . S
N278 C277 1.347 . S
C279 C282 1.365 . S
C279 N284 1.328 . S
C279 H285 0.929 . S
C280 C281 1.362 . S
C280 C283 1.378 . S
C280 H295 0.929 . S
C281 C280 1.362 . S
C281 C282 1.366 . S
C282 C279 1.365 . S
C282 C281 1.366 . S
C282 H296 0.930 . S
C283 C280 1.378 . S
C283 N284 1.315 . S
C283 H286 0.930 . S
N284 Co264 2.194 . S
N284 C279 1.328 . S
N284 C283 1.315 . S
H285 C279 0.929 . S
H286 C283 0.930 . S
H287 C275 0.929 . S
H288 C277 0.929 . S
O289 Co264 2.351 . S
O289 C292 1.244 . S
O290 Co264 2.155 . S
O290 C292 1.240 . S
O291 Co264 2.096 . S
O291 C272 1.247 . S
C292 O289 1.244 . S
C292 O290 1.240 . S
H293 C267 0.931 . S
H294 C276 0.931 . S
H295 C280 0.929 . S
H296 C282 0.930 . S
Co297 N301 2.148 . S
Co297 N307 2.128 . S
Co297 N317 2.194 . S
Co297 O322 2.351 . S
Co297 O323 2.155 . S
Co297 O324 2.096 . S
C298 N301 1.301 . S
C298 N302 1.328 . S
C298 H303 0.930 . S
C299 C300 1.333 . S
C299 N301 1.317 . S
C299 H304 0.930 . S
C300 C299 1.333 . S
C300 N302 1.350 . S
C300 H326 0.931 . S
N301 Co297 2.148 . S
N301 C298 1.301 . S
N301 C299 1.317 . S
N302 C298 1.328 . S
N302 C300 1.350 . S
H303 C298 0.930 . S
H304 C299 0.930 . S
C305 O306 1.224 . S
C305 O324 1.247 . S
O306 C305 1.224 . S
N307 Co297 2.128 . S
N307 C308 1.355 . S
N307 C310 1.311 . S
C308 N307 1.355 . S
C308 C309 1.363 . S
C308 H320 0.929 . S
C309 C308 1.363 . S
C309 N311 1.375 . S
C309 H327 0.931 . S
C310 N307 1.311 . S
C310 N311 1.347 . S
C310 H321 0.929 . S
N311 C309 1.375 . S
N311 C310 1.347 . S
C312 C315 1.365 . S
C312 N317 1.328 . S
C312 H318 0.929 . S
C313 C314 1.362 . S
C313 C316 1.378 . S
C313 H328 0.929 . S
C314 C313 1.362 . S
C314 C315 1.366 . S
C315 C312 1.365 . S
C315 C314 1.366 . S
C315 H329 0.930 . S
C316 C313 1.378 . S
C316 N317 1.315 . S
C316 H319 0.930 . S
N317 Co297 2.194 . S
N317 C312 1.328 . S
N317 C316 1.315 . S
H318 C312 0.929 . S
H319 C316 0.930 . S
H320 C308 0.929 . S
H321 C310 0.929 . S
O322 Co297 2.351 . S
O322 C325 1.244 . S
O323 Co297 2.155 . S
O323 C325 1.240 . S
O324 Co297 2.096 . S
O324 C305 1.247 . S
C325 O322 1.244 . S
C325 O323 1.240 . S
H326 C300 0.931 . S
H327 C309 0.931 . S
H328 C313 0.929 . S
H329 C315 0.930 . S
Co330 N334 2.148 . S
Co330 N340 2.128 . S
Co330 N350 2.194 . S
Co330 O355 2.351 . S
Co330 O356 2.155 . S
Co330 O357 2.096 . S
C331 N334 1.301 . S
C331 N335 1.328 . S
C331 H336 0.930 . S
C332 C333 1.333 . S
C332 N334 1.317 . S
C332 H337 0.930 . S
C333 C332 1.333 . S
C333 N335 1.350 . S
C333 H359 0.931 . S
N334 Co330 2.148 . S
N334 C331 1.301 . S
N334 C332 1.317 . S
N335 C331 1.328 . S
N335 C333 1.350 . S
H336 C331 0.930 . S
H337 C332 0.930 . S
C338 O339 1.224 . S
C338 O357 1.247 . S
O339 C338 1.224 . S
N340 Co330 2.128 . S
N340 C341 1.355 . S
N340 C343 1.311 . S
C341 N340 1.355 . S
C341 C342 1.363 . S
C341 H353 0.929 . S
C342 C341 1.363 . S
C342 N344 1.375 . S
C342 H360 0.931 . S
C343 N340 1.311 . S
C343 N344 1.347 . S
C343 H354 0.929 . S
N344 C342 1.375 . S
N344 C343 1.347 . S
C345 C348 1.365 . S
C345 N350 1.328 . S
C345 H351 0.929 . S
C346 C347 1.362 . S
C346 C349 1.378 . S
C346 H361 0.929 . S
C347 C346 1.362 . S
C347 C348 1.366 . S
C348 C345 1.365 . S
C348 C347 1.366 . S
C348 H362 0.930 . S
C349 C346 1.378 . S
C349 N350 1.315 . S
C349 H352 0.930 . S
N350 Co330 2.194 . S
N350 C345 1.328 . S
N350 C349 1.315 . S
H351 C345 0.929 . S
H352 C349 0.930 . S
H353 C341 0.929 . S
H354 C343 0.929 . S
O355 Co330 2.351 . S
O355 C358 1.244 . S
O356 Co330 2.155 . S
O356 C358 1.240 . S
O357 Co330 2.096 . S
O357 C338 1.247 . S
C358 O355 1.244 . S
C358 O356 1.240 . S
H359 C333 0.931 . S
H360 C342 0.931 . S
H361 C346 0.929 . S
H362 C348 0.930 . S
Co363 N367 2.148 . S
Co363 N373 2.128 . S
Co363 N383 2.194 . S
Co363 O388 2.351 . S
Co363 O389 2.155 . S
Co363 O390 2.096 . S
C364 N367 1.301 . S
C364 N368 1.328 . S
C364 H369 0.930 . S
C365 C366 1.333 . S
C365 N367 1.317 . S
C365 H370 0.930 . S
C366 C365 1.333 . S
C366 N368 1.350 . S
C366 H392 0.931 . S
N367 Co363 2.148 . S
N367 C364 1.301 . S
N367 C365 1.317 . S
N368 C364 1.328 . S
N368 C366 1.350 . S
H369 C364 0.930 . S
H370 C365 0.930 . S
C371 O372 1.224 . S
C371 O390 1.247 . S
O372 C371 1.224 . S
N373 Co363 2.128 . S
N373 C374 1.355 . S
N373 C376 1.311 . S
C374 N373 1.355 . S
C374 C375 1.363 . S
C374 H386 0.929 . S
C375 C374 1.363 . S
C375 N377 1.375 . S
C375 H393 0.931 . S
C376 N373 1.311 . S
C376 N377 1.347 . S
C376 H387 0.929 . S
N377 C375 1.375 . S
N377 C376 1.347 . S
C378 C381 1.365 . S
C378 N383 1.328 . S
C378 H384 0.929 . S
C379 C380 1.362 . S
C379 C382 1.378 . S
C379 H394 0.929 . S
C380 C379 1.362 . S
C380 C381 1.366 . S
C381 C378 1.365 . S
C381 C380 1.366 . S
C381 H395 0.930 . S
C382 C379 1.378 . S
C382 N383 1.315 . S
C382 H385 0.930 . S
N383 Co363 2.194 . S
N383 C378 1.328 . S
N383 C382 1.315 . S
H384 C378 0.929 . S
H385 C382 0.930 . S
H386 C374 0.929 . S
H387 C376 0.929 . S
O388 Co363 2.351 . S
O388 C391 1.244 . S
O389 Co363 2.155 . S
O389 C391 1.240 . S
O390 Co363 2.096 . S
O390 C371 1.247 . S
C391 O388 1.244 . S
C391 O389 1.240 . S
H392 C366 0.931 . S
H393 C375 0.931 . S
H394 C379 0.929 . S
H395 C381 0.930 . S
Co396 N400 2.148 . S
Co396 N406 2.128 . S
Co396 N416 2.194 . S
Co396 O421 2.351 . S
Co396 O422 2.155 . S
Co396 O423 2.096 . S
C397 N400 1.301 . S
C397 N401 1.328 . S
C397 H402 0.930 . S
C398 C399 1.333 . S
C398 N400 1.317 . S
C398 H403 0.930 . S
C399 C398 1.333 . S
C399 N401 1.350 . S
C399 H425 0.931 . S
N400 Co396 2.148 . S
N400 C397 1.301 . S
N400 C398 1.317 . S
N401 C397 1.328 . S
N401 C399 1.350 . S
H402 C397 0.930 . S
H403 C398 0.930 . S
C404 O405 1.224 . S
C404 O423 1.247 . S
O405 C404 1.224 . S
N406 Co396 2.128 . S
N406 C407 1.355 . S
N406 C409 1.311 . S
C407 N406 1.355 . S
C407 C408 1.363 . S
C407 H419 0.929 . S
C408 C407 1.363 . S
C408 N410 1.375 . S
C408 H426 0.931 . S
C409 N406 1.311 . S
C409 N410 1.347 . S
C409 H420 0.929 . S
N410 C408 1.375 . S
N410 C409 1.347 . S
C411 C414 1.365 . S
C411 N416 1.328 . S
C411 H417 0.929 . S
C412 C413 1.362 . S
C412 C415 1.378 . S
C412 H427 0.929 . S
C413 C412 1.362 . S
C413 C414 1.366 . S
C414 C411 1.365 . S
C414 C413 1.366 . S
C414 H428 0.930 . S
C415 C412 1.378 . S
C415 N416 1.315 . S
C415 H418 0.930 . S
N416 Co396 2.194 . S
N416 C411 1.328 . S
N416 C415 1.315 . S
H417 C411 0.929 . S
H418 C415 0.930 . S
H419 C407 0.929 . S
H420 C409 0.929 . S
O421 Co396 2.351 . S
O421 C424 1.244 . S
O422 Co396 2.155 . S
O422 C424 1.240 . S
O423 Co396 2.096 . S
O423 C404 1.247 . S
C424 O421 1.244 . S
C424 O422 1.240 . S
H425 C399 0.931 . S
H426 C408 0.931 . S
H427 C412 0.929 . S
H428 C414 0.930 . S
Co429 N433 2.148 . S
Co429 N439 2.128 . S
Co429 N449 2.194 . S
Co429 O454 2.351 . S
Co429 O455 2.155 . S
Co429 O456 2.096 . S
C430 N433 1.301 . S
C430 N434 1.328 . S
C430 H435 0.930 . S
C431 C432 1.333 . S
C431 N433 1.317 . S
C431 H436 0.930 . S
C432 C431 1.333 . S
C432 N434 1.350 . S
C432 H458 0.931 . S
N433 Co429 2.148 . S
N433 C430 1.301 . S
N433 C431 1.317 . S
N434 C430 1.328 . S
N434 C432 1.350 . S
H435 C430 0.930 . S
H436 C431 0.930 . S
C437 O438 1.224 . S
C437 O456 1.247 . S
O438 C437 1.224 . S
N439 Co429 2.128 . S
N439 C440 1.355 . S
N439 C442 1.311 . S
C440 N439 1.355 . S
C440 C441 1.363 . S
C440 H452 0.929 . S
C441 C440 1.363 . S
C441 N443 1.375 . S
C441 H459 0.931 . S
C442 N439 1.311 . S
C442 N443 1.347 . S
C442 H453 0.929 . S
N443 C441 1.375 . S
N443 C442 1.347 . S
C444 C447 1.365 . S
C444 N449 1.328 . S
C444 H450 0.929 . S
C445 C446 1.362 . S
C445 C448 1.378 . S
C445 H460 0.929 . S
C446 C445 1.362 . S
C446 C447 1.366 . S
C447 C444 1.365 . S
C447 C446 1.366 . S
C447 H461 0.930 . S
C448 C445 1.378 . S
C448 N449 1.315 . S
C448 H451 0.930 . S
N449 Co429 2.194 . S
N449 C444 1.328 . S
N449 C448 1.315 . S
H450 C444 0.929 . S
H451 C448 0.930 . S
H452 C440 0.929 . S
H453 C442 0.929 . S
O454 Co429 2.351 . S
O454 C457 1.244 . S
O455 Co429 2.155 . S
O455 C457 1.240 . S
O456 Co429 2.096 . S
O456 C437 1.247 . S
C457 O454 1.244 . S
C457 O455 1.240 . S
H458 C432 0.931 . S
H459 C441 0.931 . S
H460 C445 0.929 . S
H461 C447 0.930 . S
Co462 N466 2.148 . S
Co462 N472 2.128 . S
Co462 N482 2.194 . S
Co462 O487 2.351 . S
Co462 O488 2.155 . S
Co462 O489 2.096 . S
C463 N466 1.301 . S
C463 N467 1.328 . S
C463 H468 0.930 . S
C464 C465 1.333 . S
C464 N466 1.317 . S
C464 H469 0.930 . S
C465 C464 1.333 . S
C465 N467 1.350 . S
C465 H491 0.931 . S
N466 Co462 2.148 . S
N466 C463 1.301 . S
N466 C464 1.317 . S
N467 C463 1.328 . S
N467 C465 1.350 . S
H468 C463 0.930 . S
H469 C464 0.930 . S
C470 O471 1.224 . S
C470 O489 1.247 . S
O471 C470 1.224 . S
N472 Co462 2.128 . S
N472 C473 1.355 . S
N472 C475 1.311 . S
C473 N472 1.355 . S
C473 C474 1.363 . S
C473 H485 0.929 . S
C474 C473 1.363 . S
C474 N476 1.375 . S
C474 H492 0.931 . S
C475 N472 1.311 . S
C475 N476 1.347 . S
C475 H486 0.929 . S
N476 C474 1.375 . S
N476 C475 1.347 . S
C477 C480 1.365 . S
C477 N482 1.328 . S
C477 H483 0.929 . S
C478 C479 1.362 . S
C478 C481 1.378 . S
C478 H493 0.929 . S
C479 C478 1.362 . S
C479 C480 1.366 . S
C480 C477 1.365 . S
C480 C479 1.366 . S
C480 H494 0.930 . S
C481 C478 1.378 . S
C481 N482 1.315 . S
C481 H484 0.930 . S
N482 Co462 2.194 . S
N482 C477 1.328 . S
N482 C481 1.315 . S
H483 C477 0.929 . S
H484 C481 0.930 . S
H485 C473 0.929 . S
H486 C475 0.929 . S
O487 Co462 2.351 . S
O487 C490 1.244 . S
O488 Co462 2.155 . S
O488 C490 1.240 . S
O489 Co462 2.096 . S
O489 C470 1.247 . S
C490 O487 1.244 . S
C490 O488 1.240 . S
H491 C465 0.931 . S
H492 C474 0.931 . S
H493 C478 0.929 . S
H494 C480 0.930 . S
Co495 N499 2.148 . S
Co495 N505 2.128 . S
Co495 N515 2.194 . S
Co495 O520 2.351 . S
Co495 O521 2.155 . S
Co495 O522 2.096 . S
C496 N499 1.301 . S
C496 N500 1.328 . S
C496 H501 0.930 . S
C497 C498 1.333 . S
C497 N499 1.317 . S
C497 H502 0.930 . S
C498 C497 1.333 . S
C498 N500 1.350 . S
C498 H524 0.931 . S
N499 Co495 2.148 . S
N499 C496 1.301 . S
N499 C497 1.317 . S
N500 C496 1.328 . S
N500 C498 1.350 . S
H501 C496 0.930 . S
H502 C497 0.930 . S
C503 O504 1.224 . S
C503 O522 1.247 . S
O504 C503 1.224 . S
N505 Co495 2.128 . S
N505 C506 1.355 . S
N505 C508 1.311 . S
C506 N505 1.355 . S
C506 C507 1.363 . S
C506 H518 0.929 . S
C507 C506 1.363 . S
C507 N509 1.375 . S
C507 H525 0.931 . S
C508 N505 1.311 . S
C508 N509 1.347 . S
C508 H519 0.929 . S
N509 C507 1.375 . S
N509 C508 1.347 . S
C510 C513 1.365 . S
C510 N515 1.328 . S
C510 H516 0.929 . S
C511 C512 1.362 . S
C511 C514 1.378 . S
C511 H526 0.929 . S
C512 C511 1.362 . S
C512 C513 1.366 . S
C513 C510 1.365 . S
C513 C512 1.366 . S
C513 H527 0.930 . S
C514 C511 1.378 . S
C514 N515 1.315 . S
C514 H517 0.930 . S
N515 Co495 2.194 . S
N515 C510 1.328 . S
N515 C514 1.315 . S
H516 C510 0.929 . S
H517 C514 0.930 . S
H518 C506 0.929 . S
H519 C508 0.929 . S
O520 Co495 2.351 . S
O520 C523 1.244 . S
O521 Co495 2.155 . S
O521 C523 1.240 . S
O522 Co495 2.096 . S
O522 C503 1.247 . S
C523 O520 1.244 . S
C523 O521 1.240 . S
H524 C498 0.931 . S
H525 C507 0.931 . S
H526 C511 0.929 . S
H527 C513 0.930 . S
Co528 N532 2.148 . S
Co528 N538 2.128 . S
Co528 N548 2.194 . S
Co528 O553 2.351 . S
Co528 O554 2.155 . S
Co528 O555 2.096 . S
C529 N532 1.301 1_565 S
C529 N533 1.328 . S
C529 H534 0.930 . S
C530 C531 1.333 1_545 S
C530 N532 1.317 . S
C530 H535 0.930 . S
C531 C530 1.333 1_565 S
C531 N533 1.350 . S
C531 H557 0.931 . S
N532 Co528 2.148 . S
N532 C529 1.301 1_545 S
N532 C530 1.317 . S
N533 C529 1.328 . S
N533 C531 1.350 . S
H534 C529 0.930 . S
H535 C530 0.930 . S
C536 O537 1.224 . S
C536 O555 1.247 . S
O537 C536 1.224 . S
N538 Co528 2.128 . S
N538 C539 1.355 . S
N538 C541 1.311 . S
C539 N538 1.355 . S
C539 C540 1.363 . S
C539 H551 0.929 . S
C540 C539 1.363 . S
C540 N542 1.375 . S
C540 H558 0.931 . S
C541 N538 1.311 . S
C541 N542 1.347 . S
C541 H552 0.929 . S
N542 C540 1.375 . S
N542 C541 1.347 . S
C543 C546 1.365 . S
C543 N548 1.328 . S
C543 H549 0.929 . S
C544 C545 1.362 . S
C544 C547 1.378 . S
C544 H559 0.929 . S
C545 C544 1.362 . S
C545 C546 1.366 . S
C546 C543 1.365 . S
C546 C545 1.366 . S
C546 H560 0.930 . S
C547 C544 1.378 . S
C547 N548 1.315 . S
C547 H550 0.930 . S
N548 Co528 2.194 . S
N548 C543 1.328 . S
N548 C547 1.315 . S
H549 C543 0.929 . S
H550 C547 0.930 . S
H551 C539 0.929 . S
H552 C541 0.929 . S
O553 Co528 2.351 . S
O553 C556 1.244 . S
O554 Co528 2.155 . S
O554 C556 1.240 . S
O555 Co528 2.096 . S
O555 C536 1.247 . S
C556 O553 1.244 . S
C556 O554 1.240 . S
H557 C531 0.931 . S
H558 C540 0.931 . S
H559 C544 0.929 . S
H560 C546 0.930 . S
Co561 N565 2.148 . S
Co561 N571 2.128 1_545 S
Co561 N581 2.194 . S
Co561 O586 2.351 . S
Co561 O587 2.155 . S
Co561 O588 2.096 . S
C562 N565 1.301 . S
C562 N566 1.328 . S
C562 H567 0.930 . S
C563 C564 1.333 . S
C563 N565 1.317 . S
C563 H568 0.930 . S
C564 C563 1.333 . S
C564 N566 1.350 . S
C564 H590 0.931 . S
N565 Co561 2.148 . S
N565 C562 1.301 . S
N565 C563 1.317 . S
N566 C562 1.328 . S
N566 C564 1.350 . S
H567 C562 0.930 . S
H568 C563 0.930 . S
C569 O570 1.224 1_565 S
C569 O588 1.246 1_565 S
O570 C569 1.224 1_545 S
N571 Co561 2.128 1_565 S
N571 C572 1.355 . S
N571 C574 1.311 . S
C572 N571 1.355 . S
C572 C573 1.363 . S
C572 H584 0.929 . S
C573 C572 1.363 . S
C573 N575 1.375 . S
C573 H591 0.931 . S
C574 N571 1.311 . S
C574 N575 1.347 . S
C574 H585 0.929 . S
N575 C573 1.375 . S
N575 C574 1.347 . S
C576 C579 1.365 . S
C576 N581 1.328 . S
C576 H582 0.929 . S
C577 C578 1.362 . S
C577 C580 1.378 . S
C577 H592 0.929 . S
C578 C577 1.362 . S
C578 C579 1.366 . S
C579 C576 1.365 . S
C579 C578 1.366 . S
C579 H593 0.930 . S
C580 C577 1.378 . S
C580 N581 1.315 . S
C580 H583 0.930 . S
N581 Co561 2.194 . S
N581 C576 1.328 . S
N581 C580 1.315 . S
H582 C576 0.929 . S
H583 C580 0.930 . S
H584 C572 0.929 . S
H585 C574 0.929 . S
O586 Co561 2.351 . S
O586 C589 1.244 . S
O587 Co561 2.155 . S
O587 C589 1.240 . S
O588 Co561 2.096 . S
O588 C569 1.246 1_545 S
C589 O586 1.244 . S
C589 O587 1.240 . S
H590 C564 0.931 . S
H591 C573 0.931 . S
H592 C577 0.929 . S
H593 C579 0.930 . S
Co594 N598 2.148 . S
Co594 N604 2.128 1_545 S
Co594 N614 2.194 . S
Co594 O619 2.351 . S
Co594 O620 2.155 . S
Co594 O621 2.096 . S
C595 N598 1.301 . S
C595 N599 1.328 . S
C595 H600 0.930 . S
C596 C597 1.333 . S
C596 N598 1.317 . S
C596 H601 0.930 . S
C597 C596 1.333 . S
C597 N599 1.350 . S
C597 H623 0.931 . S
N598 Co594 2.148 . S
N598 C595 1.301 . S
N598 C596 1.317 . S
N599 C595 1.328 . S
N599 C597 1.350 . S
H600 C595 0.930 . S
H601 C596 0.930 . S
C602 O603 1.224 1_565 S
C602 O621 1.247 1_565 S
O603 C602 1.224 1_545 S
N604 Co594 2.128 1_565 S
N604 C605 1.355 . S
N604 C607 1.311 . S
C605 N604 1.355 . S
C605 C606 1.363 . S
C605 H617 0.929 . S
C606 C605 1.363 . S
C606 N608 1.375 . S
C606 H624 0.931 . S
C607 N604 1.311 . S
C607 N608 1.347 . S
C607 H618 0.929 . S
N608 C606 1.375 . S
N608 C607 1.347 . S
C609 C612 1.365 . S
C609 N614 1.328 . S
C609 H615 0.929 . S
C610 C611 1.362 . S
C610 C613 1.378 . S
C610 H625 0.929 . S
C611 C610 1.362 . S
C611 C612 1.366 . S
C612 C609 1.365 . S
C612 C611 1.366 . S
C612 H626 0.930 . S
C613 C610 1.378 . S
C613 N614 1.315 . S
C613 H616 0.930 . S
N614 Co594 2.194 . S
N614 C609 1.328 . S
N614 C613 1.315 . S
H615 C609 0.929 . S
H616 C613 0.930 . S
H617 C605 0.929 . S
H618 C607 0.929 . S
O619 Co594 2.351 . S
O619 C622 1.244 . S
O620 Co594 2.155 . S
O620 C622 1.240 . S
O621 Co594 2.096 . S
O621 C602 1.247 1_545 S
C622 O619 1.244 . S
C622 O620 1.240 . S
H623 C597 0.931 . S
H624 C606 0.931 . S
H625 C610 0.929 . S
H626 C612 0.930 . S
Co627 N631 2.148 . S
Co627 N637 2.128 . S
Co627 N647 2.194 . S
Co627 O652 2.351 . S
Co627 O653 2.155 . S
Co627 O654 2.096 . S
C628 N631 1.301 1_565 S
C628 N632 1.328 . S
C628 H633 0.930 . S
C629 C630 1.333 1_545 S
C629 N631 1.317 . S
C629 H634 0.930 . S
C630 C629 1.333 1_565 S
C630 N632 1.350 . S
C630 H656 0.931 . S
N631 Co627 2.148 . S
N631 C628 1.301 1_545 S
N631 C629 1.317 . S
N632 C628 1.328 . S
N632 C630 1.350 . S
H633 C628 0.930 . S
H634 C629 0.930 . S
C635 O636 1.224 . S
C635 O654 1.247 . S
O636 C635 1.224 . S
N637 Co627 2.128 . S
N637 C638 1.355 . S
N637 C640 1.311 . S
C638 N637 1.355 . S
C638 C639 1.363 . S
C638 H650 0.929 . S
C639 C638 1.363 . S
C639 N641 1.375 . S
C639 H657 0.931 . S
C640 N637 1.311 . S
C640 N641 1.347 . S
C640 H651 0.929 . S
N641 C639 1.375 . S
N641 C640 1.347 . S
C642 C645 1.365 . S
C642 N647 1.328 . S
C642 H648 0.929 . S
C643 C644 1.362 . S
C643 C646 1.378 . S
C643 H658 0.929 . S
C644 C643 1.362 . S
C644 C645 1.366 . S
C645 C642 1.365 . S
C645 C644 1.366 . S
C645 H659 0.930 . S
C646 C643 1.378 . S
C646 N647 1.315 . S
C646 H649 0.930 . S
N647 Co627 2.194 . S
N647 C642 1.328 . S
N647 C646 1.315 . S
H648 C642 0.929 . S
H649 C646 0.930 . S
H650 C638 0.929 . S
H651 C640 0.929 . S
O652 Co627 2.351 . S
O652 C655 1.244 . S
O653 Co627 2.155 . S
O653 C655 1.240 . S
O654 Co627 2.096 . S
O654 C635 1.247 . S
C655 O652 1.244 . S
C655 O653 1.240 . S
H656 C630 0.931 . S
H657 C639 0.931 . S
H658 C643 0.929 . S
H659 C645 0.930 . S
Co660 N664 2.148 . S
Co660 N670 2.128 . S
Co660 N680 2.194 . S
Co660 O685 2.351 . S
Co660 O686 2.155 . S
Co660 O687 2.096 . S
C661 N664 1.301 1_545 S
C661 N665 1.328 . S
C661 H666 0.930 . S
C662 C663 1.333 1_565 S
C662 N664 1.317 . S
C662 H667 0.930 . S
C663 C662 1.333 1_545 S
C663 N665 1.350 . S
C663 H689 0.931 . S
N664 Co660 2.148 . S
N664 C661 1.301 1_565 S
N664 C662 1.317 . S
N665 C661 1.328 . S
N665 C663 1.350 . S
H666 C661 0.930 . S
H667 C662 0.930 . S
C668 O669 1.224 . S
C668 O687 1.247 . S
O669 C668 1.224 . S
N670 Co660 2.128 . S
N670 C671 1.355 . S
N670 C673 1.311 . S
C671 N670 1.355 . S
C671 C672 1.363 . S
C671 H683 0.929 . S
C672 C671 1.363 . S
C672 N674 1.375 . S
C672 H690 0.931 . S
C673 N670 1.311 . S
C673 N674 1.347 . S
C673 H684 0.929 . S
N674 C672 1.375 . S
N674 C673 1.347 . S
C675 C678 1.365 . S
C675 N680 1.328 . S
C675 H681 0.929 . S
C676 C677 1.362 . S
C676 C679 1.378 . S
C676 H691 0.929 . S
C677 C676 1.362 . S
C677 C678 1.366 . S
C678 C675 1.365 . S
C678 C677 1.366 . S
C678 H692 0.930 . S
C679 C676 1.378 . S
C679 N680 1.315 . S
C679 H682 0.930 . S
N680 Co660 2.194 . S
N680 C675 1.328 . S
N680 C679 1.315 . S
H681 C675 0.929 . S
H682 C679 0.930 . S
H683 C671 0.929 . S
H684 C673 0.929 . S
O685 Co660 2.351 . S
O685 C688 1.244 . S
O686 Co660 2.155 . S
O686 C688 1.240 . S
O687 Co660 2.096 . S
O687 C668 1.247 . S
C688 O685 1.244 . S
C688 O686 1.240 . S
H689 C663 0.931 . S
H690 C672 0.931 . S
H691 C676 0.929 . S
H692 C678 0.930 . S
Co693 N697 2.148 . S
Co693 N703 2.128 1_565 S
Co693 N713 2.194 . S
Co693 O718 2.351 . S
Co693 O719 2.155 . S
Co693 O720 2.096 . S
C694 N697 1.301 . S
C694 N698 1.328 . S
C694 H699 0.930 . S
C695 C696 1.333 . S
C695 N697 1.317 . S
C695 H700 0.930 . S
C696 C695 1.333 . S
C696 N698 1.350 . S
C696 H722 0.931 . S
N697 Co693 2.148 . S
N697 C694 1.301 . S
N697 C695 1.317 . S
N698 C694 1.328 . S
N698 C696 1.350 . S
H699 C694 0.930 . S
H700 C695 0.930 . S
C701 O702 1.224 1_545 S
C701 O720 1.246 1_545 S
O702 C701 1.224 1_565 S
N703 Co693 2.128 1_545 S
N703 C704 1.355 . S
N703 C706 1.311 . S
C704 N703 1.355 . S
C704 C705 1.363 . S
C704 H716 0.929 . S
C705 C704 1.363 . S
C705 N707 1.375 . S
C705 H723 0.931 . S
C706 N703 1.311 . S
C706 N707 1.347 . S
C706 H717 0.929 . S
N707 C705 1.375 . S
N707 C706 1.347 . S
C708 C711 1.365 . S
C708 N713 1.328 . S
C708 H714 0.929 . S
C709 C710 1.362 . S
C709 C712 1.378 . S
C709 H724 0.929 . S
C710 C709 1.362 . S
C710 C711 1.366 . S
C711 C708 1.365 . S
C711 C710 1.366 . S
C711 H725 0.930 . S
C712 C709 1.378 . S
C712 N713 1.315 . S
C712 H715 0.930 . S
N713 Co693 2.194 . S
N713 C708 1.328 . S
N713 C712 1.315 . S
H714 C708 0.929 . S
H715 C712 0.930 . S
H716 C704 0.929 . S
H717 C706 0.929 . S
O718 Co693 2.351 . S
O718 C721 1.244 . S
O719 Co693 2.155 . S
O719 C721 1.240 . S
O720 Co693 2.096 . S
O720 C701 1.246 1_565 S
C721 O718 1.244 . S
C721 O719 1.240 . S
H722 C696 0.931 . S
H723 C705 0.931 . S
H724 C709 0.929 . S
H725 C711 0.930 . S
Co726 N730 2.148 . S
Co726 N736 2.128 1_565 S
Co726 N746 2.194 . S
Co726 O751 2.351 . S
Co726 O752 2.155 . S
Co726 O753 2.096 . S
C727 N730 1.301 . S
C727 N731 1.328 . S
C727 H732 0.930 . S
C728 C729 1.333 . S
C728 N730 1.317 . S
C728 H733 0.930 . S
C729 C728 1.333 . S
C729 N731 1.350 . S
C729 H755 0.931 . S
N730 Co726 2.148 . S
N730 C727 1.301 . S
N730 C728 1.317 . S
N731 C727 1.328 . S
N731 C729 1.350 . S
H732 C727 0.930 . S
H733 C728 0.930 . S
C734 O735 1.224 1_545 S
C734 O753 1.247 1_545 S
O735 C734 1.224 1_565 S
N736 Co726 2.128 1_545 S
N736 C737 1.355 . S
N736 C739 1.311 . S
C737 N736 1.355 . S
C737 C738 1.363 . S
C737 H749 0.929 . S
C738 C737 1.363 . S
C738 N740 1.375 . S
C738 H756 0.931 . S
C739 N736 1.311 . S
C739 N740 1.347 . S
C739 H750 0.929 . S
N740 C738 1.375 . S
N740 C739 1.347 . S
C741 C744 1.365 . S
C741 N746 1.328 . S
C741 H747 0.929 . S
C742 C743 1.362 . S
C742 C745 1.378 . S
C742 H757 0.929 . S
C743 C742 1.362 . S
C743 C744 1.366 . S
C744 C741 1.365 . S
C744 C743 1.366 . S
C744 H758 0.930 . S
C745 C742 1.378 . S
C745 N746 1.315 . S
C745 H748 0.930 . S
N746 Co726 2.194 . S
N746 C741 1.328 . S
N746 C745 1.315 . S
H747 C741 0.929 . S
H748 C745 0.930 . S
H749 C737 0.929 . S
H750 C739 0.929 . S
O751 Co726 2.351 . S
O751 C754 1.244 . S
O752 Co726 2.155 . S
O752 C754 1.240 . S
O753 Co726 2.096 . S
O753 C734 1.247 1_565 S
C754 O751 1.244 . S
C754 O752 1.240 . S
H755 C729 0.931 . S
H756 C738 0.931 . S
H757 C742 0.929 . S
H758 C744 0.930 . S
Co759 N763 2.148 . S
Co759 N769 2.128 . S
Co759 N779 2.194 . S
Co759 O784 2.351 . S
Co759 O785 2.155 . S
Co759 O786 2.096 . S
C760 N763 1.301 1_545 S
C760 N764 1.328 . S
C760 H765 0.930 . S
C761 C762 1.333 1_565 S
C761 N763 1.317 . S
C761 H766 0.930 . S
C762 C761 1.333 1_545 S
C762 N764 1.350 . S
C762 H788 0.931 . S
N763 Co759 2.148 . S
N763 C760 1.301 1_565 S
N763 C761 1.317 . S
N764 C760 1.328 . S
N764 C762 1.350 . S
H765 C760 0.930 . S
H766 C761 0.930 . S
C767 O768 1.224 . S
C767 O786 1.247 . S
O768 C767 1.224 . S
N769 Co759 2.128 . S
N769 C770 1.355 . S
N769 C772 1.311 . S
C770 N769 1.355 . S
C770 C771 1.363 . S
C770 H782 0.929 . S
C771 C770 1.363 . S
C771 N773 1.375 . S
C771 H789 0.931 . S
C772 N769 1.311 . S
C772 N773 1.347 . S
C772 H783 0.929 . S
N773 C771 1.375 . S
N773 C772 1.347 . S
C774 C777 1.365 . S
C774 N779 1.328 . S
C774 H780 0.929 . S
C775 C776 1.362 . S
C775 C778 1.378 . S
C775 H790 0.929 . S
C776 C775 1.362 . S
C776 C777 1.366 . S
C777 C774 1.365 . S
C777 C776 1.366 . S
C777 H791 0.930 . S
C778 C775 1.378 . S
C778 N779 1.315 . S
C778 H781 0.930 . S
N779 Co759 2.194 . S
N779 C774 1.328 . S
N779 C778 1.315 . S
H780 C774 0.929 . S
H781 C778 0.930 . S
H782 C770 0.929 . S
H783 C772 0.929 . S
O784 Co759 2.351 . S
O784 C787 1.244 . S
O785 Co759 2.155 . S
O785 C787 1.240 . S
O786 Co759 2.096 . S
O786 C767 1.247 . S
C787 O784 1.244 . S
C787 O785 1.240 . S
H788 C762 0.931 . S
H789 C771 0.931 . S
H790 C775 0.929 . S
H791 C777 0.930 . S
Co792 N796 2.148 . S
Co792 N802 2.128 . S
Co792 N812 2.194 . S
Co792 O817 2.351 . S
Co792 O818 2.155 . S
Co792 O819 2.096 . S
C793 N796 1.301 . S
C793 N797 1.328 . S
C793 H798 0.930 . S
C794 C795 1.333 . S
C794 N796 1.317 . S
C794 H799 0.930 . S
C795 C794 1.333 . S
C795 N797 1.350 . S
C795 H821 0.931 . S
N796 Co792 2.148 . S
N796 C793 1.301 . S
N796 C794 1.317 . S
N797 C793 1.328 . S
N797 C795 1.350 . S
H798 C793 0.930 . S
H799 C794 0.930 . S
C800 O801 1.224 . S
C800 O819 1.247 . S
O801 C800 1.224 . S
N802 Co792 2.128 . S
N802 C803 1.355 . S
N802 C805 1.311 . S
C803 N802 1.355 . S
C803 C804 1.363 . S
C803 H815 0.929 . S
C804 C803 1.363 . S
C804 N806 1.375 . S
C804 H822 0.931 . S
C805 N802 1.311 . S
C805 N806 1.347 . S
C805 H816 0.929 . S
N806 C804 1.375 . S
N806 C805 1.347 . S
C807 C810 1.365 . S
C807 N812 1.328 . S
C807 H813 0.929 . S
C808 C809 1.362 . S
C808 C811 1.378 . S
C808 H823 0.929 . S
C809 C808 1.362 . S
C809 C810 1.366 . S
C810 C807 1.365 . S
C810 C809 1.366 . S
C810 H824 0.930 . S
C811 C808 1.378 . S
C811 N812 1.315 . S
C811 H814 0.930 . S
N812 Co792 2.194 . S
N812 C807 1.328 . S
N812 C811 1.315 . S
H813 C807 0.929 . S
H814 C811 0.930 . S
H815 C803 0.929 . S
H816 C805 0.929 . S
O817 Co792 2.351 . S
O817 C820 1.244 . S
O818 Co792 2.155 . S
O818 C820 1.240 . S
O819 Co792 2.096 . S
O819 C800 1.247 . S
C820 O817 1.244 . S
C820 O818 1.240 . S
H821 C795 0.931 . S
H822 C804 0.931 . S
H823 C808 0.929 . S
H824 C810 0.930 . S
Co825 N829 2.148 . S
Co825 N835 2.128 . S
Co825 N845 2.194 . S
Co825 O850 2.351 . S
Co825 O851 2.155 . S
Co825 O852 2.096 . S
C826 N829 1.301 . S
C826 N830 1.328 . S
C826 H831 0.930 . S
C827 C828 1.333 . S
C827 N829 1.317 . S
C827 H832 0.930 . S
C828 C827 1.333 . S
C828 N830 1.350 . S
C828 H854 0.931 . S
N829 Co825 2.148 . S
N829 C826 1.301 . S
N829 C827 1.317 . S
N830 C826 1.328 . S
N830 C828 1.350 . S
H831 C826 0.930 . S
H832 C827 0.930 . S
C833 O834 1.224 . S
C833 O852 1.247 . S
O834 C833 1.224 . S
N835 Co825 2.128 . S
N835 C836 1.355 . S
N835 C838 1.311 . S
C836 N835 1.355 . S
C836 C837 1.363 . S
C836 H848 0.929 . S
C837 C836 1.363 . S
C837 N839 1.375 . S
C837 H855 0.931 . S
C838 N835 1.311 . S
C838 N839 1.347 . S
C838 H849 0.929 . S
N839 C837 1.375 . S
N839 C838 1.347 . S
C840 C843 1.365 . S
C840 N845 1.328 . S
C840 H846 0.929 . S
C841 C842 1.362 . S
C841 C844 1.378 . S
C841 H856 0.929 . S
C842 C841 1.362 . S
C842 C843 1.366 . S
C843 C840 1.365 . S
C843 C842 1.366 . S
C843 H857 0.930 . S
C844 C841 1.378 . S
C844 N845 1.315 . S
C844 H847 0.930 . S
N845 Co825 2.194 . S
N845 C840 1.328 . S
N845 C844 1.315 . S
H846 C840 0.929 . S
H847 C844 0.930 . S
H848 C836 0.929 . S
H849 C838 0.929 . S
O850 Co825 2.351 . S
O850 C853 1.244 . S
O851 Co825 2.155 . S
O851 C853 1.240 . S
O852 Co825 2.096 . S
O852 C833 1.247 . S
C853 O850 1.244 . S
C853 O851 1.240 . S
H854 C828 0.931 . S
H855 C837 0.931 . S
H856 C841 0.929 . S
H857 C843 0.930 . S
Co858 N862 2.148 . S
Co858 N868 2.128 . S
Co858 N878 2.194 . S
Co858 O883 2.351 . S
Co858 O884 2.155 . S
Co858 O885 2.096 . S
C859 N862 1.301 . S
C859 N863 1.328 . S
C859 H864 0.930 . S
C860 C861 1.333 . S
C860 N862 1.317 . S
C860 H865 0.930 . S
C861 C860 1.333 . S
C861 N863 1.350 . S
C861 H887 0.931 . S
N862 Co858 2.148 . S
N862 C859 1.301 . S
N862 C860 1.317 . S
N863 C859 1.328 . S
N863 C861 1.350 . S
H864 C859 0.930 . S
H865 C860 0.930 . S
C866 O867 1.224 . S
C866 O885 1.247 . S
O867 C866 1.224 . S
N868 Co858 2.128 . S
N868 C869 1.355 . S
N868 C871 1.311 . S
C869 N868 1.355 . S
C869 C870 1.363 . S
C869 H881 0.929 . S
C870 C869 1.363 . S
C870 N872 1.375 . S
C870 H888 0.931 . S
C871 N868 1.311 . S
C871 N872 1.347 . S
C871 H882 0.929 . S
N872 C870 1.375 . S
N872 C871 1.347 . S
C873 C876 1.365 . S
C873 N878 1.328 . S
C873 H879 0.929 . S
C874 C875 1.362 . S
C874 C877 1.378 . S
C874 H889 0.929 . S
C875 C874 1.362 . S
C875 C876 1.366 . S
C876 C873 1.365 . S
C876 C875 1.366 . S
C876 H890 0.930 . S
C877 C874 1.378 . S
C877 N878 1.315 . S
C877 H880 0.930 . S
N878 Co858 2.194 . S
N878 C873 1.328 . S
N878 C877 1.315 . S
H879 C873 0.929 . S
H880 C877 0.930 . S
H881 C869 0.929 . S
H882 C871 0.929 . S
O883 Co858 2.351 . S
O883 C886 1.244 . S
O884 Co858 2.155 . S
O884 C886 1.240 . S
O885 Co858 2.096 . S
O885 C866 1.247 . S
C886 O883 1.244 . S
C886 O884 1.240 . S
H887 C861 0.931 . S
H888 C870 0.931 . S
H889 C874 0.929 . S
H890 C876 0.930 . S
Co891 N895 2.148 . S
Co891 N901 2.128 . S
Co891 N911 2.194 . S
Co891 O916 2.351 . S
Co891 O917 2.155 . S
Co891 O918 2.096 . S
C892 N895 1.301 . S
C892 N896 1.328 . S
C892 H897 0.930 . S
C893 C894 1.333 . S
C893 N895 1.317 . S
C893 H898 0.930 . S
C894 C893 1.333 . S
C894 N896 1.350 . S
C894 H920 0.931 . S
N895 Co891 2.148 . S
N895 C892 1.301 . S
N895 C893 1.317 . S
N896 C892 1.328 . S
N896 C894 1.350 . S
H897 C892 0.930 . S
H898 C893 0.930 . S
C899 O900 1.224 . S
C899 O918 1.247 . S
O900 C899 1.224 . S
N901 Co891 2.128 . S
N901 C902 1.355 . S
N901 C904 1.311 . S
C902 N901 1.355 . S
C902 C903 1.363 . S
C902 H914 0.929 . S
C903 C902 1.363 . S
C903 N905 1.375 . S
C903 H921 0.931 . S
C904 N901 1.311 . S
C904 N905 1.347 . S
C904 H915 0.929 . S
N905 C903 1.375 . S
N905 C904 1.347 . S
C906 C909 1.365 . S
C906 N911 1.328 . S
C906 H912 0.929 . S
C907 C908 1.362 . S
C907 C910 1.378 . S
C907 H922 0.929 . S
C908 C907 1.362 . S
C908 C909 1.366 . S
C909 C906 1.365 . S
C909 C908 1.366 . S
C909 H923 0.930 . S
C910 C907 1.378 . S
C910 N911 1.315 . S
C910 H913 0.930 . S
N911 Co891 2.194 . S
N911 C906 1.328 . S
N911 C910 1.315 . S
H912 C906 0.929 . S
H913 C910 0.930 . S
H914 C902 0.929 . S
H915 C904 0.929 . S
O916 Co891 2.351 . S
O916 C919 1.244 . S
O917 Co891 2.155 . S
O917 C919 1.240 . S
O918 Co891 2.096 . S
O918 C899 1.247 . S
C919 O916 1.244 . S
C919 O917 1.240 . S
H920 C894 0.931 . S
H921 C903 0.931 . S
H922 C907 0.929 . S
H923 C909 0.930 . S
Co924 N928 2.148 . S
Co924 N934 2.128 . S
Co924 N944 2.194 . S
Co924 O949 2.351 . S
Co924 O950 2.155 . S
Co924 O951 2.096 . S
C925 N928 1.301 . S
C925 N929 1.328 . S
C925 H930 0.930 . S
C926 C927 1.333 . S
C926 N928 1.317 . S
C926 H931 0.930 . S
C927 C926 1.333 . S
C927 N929 1.350 . S
C927 H953 0.931 . S
N928 Co924 2.148 . S
N928 C925 1.301 . S
N928 C926 1.317 . S
N929 C925 1.328 . S
N929 C927 1.350 . S
H930 C925 0.930 . S
H931 C926 0.930 . S
C932 O933 1.224 . S
C932 O951 1.247 . S
O933 C932 1.224 . S
N934 Co924 2.128 . S
N934 C935 1.355 . S
N934 C937 1.311 . S
C935 N934 1.355 . S
C935 C936 1.363 . S
C935 H947 0.929 . S
C936 C935 1.363 . S
C936 N938 1.375 . S
C936 H954 0.931 . S
C937 N934 1.311 . S
C937 N938 1.347 . S
C937 H948 0.929 . S
N938 C936 1.375 . S
N938 C937 1.347 . S
C939 C942 1.365 . S
C939 N944 1.328 . S
C939 H945 0.929 . S
C940 C941 1.362 . S
C940 C943 1.378 . S
C940 H955 0.929 . S
C941 C940 1.362 . S
C941 C942 1.366 . S
C942 C939 1.365 . S
C942 C941 1.366 . S
C942 H956 0.930 . S
C943 C940 1.378 . S
C943 N944 1.315 . S
C943 H946 0.930 . S
N944 Co924 2.194 . S
N944 C939 1.328 . S
N944 C943 1.315 . S
H945 C939 0.929 . S
H946 C943 0.930 . S
H947 C935 0.929 . S
H948 C937 0.929 . S
O949 Co924 2.351 . S
O949 C952 1.244 . S
O950 Co924 2.155 . S
O950 C952 1.240 . S
O951 Co924 2.096 . S
O951 C932 1.247 . S
C952 O949 1.244 . S
C952 O950 1.240 . S
H953 C927 0.931 . S
H954 C936 0.931 . S
H955 C940 0.929 . S
H956 C942 0.930 . S
Co957 N961 2.148 . S
Co957 N967 2.128 . S
Co957 N977 2.194 . S
Co957 O982 2.351 . S
Co957 O983 2.155 . S
Co957 O984 2.096 . S
C958 N961 1.301 . S
C958 N962 1.328 . S
C958 H963 0.930 . S
C959 C960 1.333 . S
C959 N961 1.317 . S
C959 H964 0.930 . S
C960 C959 1.333 . S
C960 N962 1.350 . S
C960 H986 0.931 . S
N961 Co957 2.148 . S
N961 C958 1.301 . S
N961 C959 1.317 . S
N962 C958 1.328 . S
N962 C960 1.350 . S
H963 C958 0.930 . S
H964 C959 0.930 . S
C965 O966 1.224 . S
C965 O984 1.247 . S
O966 C965 1.224 . S
N967 Co957 2.128 . S
N967 C968 1.355 . S
N967 C970 1.311 . S
C968 N967 1.355 . S
C968 C969 1.363 . S
C968 H980 0.929 . S
C969 C968 1.363 . S
C969 N971 1.375 . S
C969 H987 0.931 . S
C970 N967 1.311 . S
C970 N971 1.347 . S
C970 H981 0.929 . S
N971 C969 1.375 . S
N971 C970 1.347 . S
C972 C975 1.365 . S
C972 N977 1.328 . S
C972 H978 0.929 . S
C973 C974 1.362 . S
C973 C976 1.378 . S
C973 H988 0.929 . S
C974 C973 1.362 . S
C974 C975 1.366 . S
C975 C972 1.365 . S
C975 C974 1.366 . S
C975 H989 0.930 . S
C976 C973 1.378 . S
C976 N977 1.315 . S
C976 H979 0.930 . S
N977 Co957 2.194 . S
N977 C972 1.328 . S
N977 C976 1.315 . S
H978 C972 0.929 . S
H979 C976 0.930 . S
H980 C968 0.929 . S
H981 C970 0.929 . S
O982 Co957 2.351 . S
O982 C985 1.244 . S
O983 Co957 2.155 . S
O983 C985 1.240 . S
O984 Co957 2.096 . S
O984 C965 1.247 . S
C985 O982 1.244 . S
C985 O983 1.240 . S
H986 C960 0.931 . S
H987 C969 0.931 . S
H988 C973 0.929 . S
H989 C975 0.930 . S
Co990 N994 2.148 . S
Co990 N1000 2.128 . S
Co990 N1010 2.194 . S
Co990 O1015 2.351 . S
Co990 O1016 2.155 . S
Co990 O1017 2.096 . S
C991 N994 1.301 . S
C991 N995 1.328 . S
C991 H996 0.930 . S
C992 C993 1.333 . S
C992 N994 1.317 . S
C992 H997 0.930 . S
C993 C992 1.333 . S
C993 N995 1.350 . S
C993 H1019 0.931 . S
N994 Co990 2.148 . S
N994 C991 1.301 . S
N994 C992 1.317 . S
N995 C991 1.328 . S
N995 C993 1.350 . S
H996 C991 0.930 . S
H997 C992 0.930 . S
C998 O999 1.224 . S
C998 O1017 1.247 . S
O999 C998 1.224 . S
N1000 Co990 2.128 . S
N1000 C1001 1.355 . S
N1000 C1003 1.311 . S
C1001 N1000 1.355 . S
C1001 C1002 1.363 . S
C1001 H1013 0.929 . S
C1002 C1001 1.363 . S
C1002 N1004 1.375 . S
C1002 H1020 0.931 . S
C1003 N1000 1.311 . S
C1003 N1004 1.347 . S
C1003 H1014 0.929 . S
N1004 C1002 1.375 . S
N1004 C1003 1.347 . S
C1005 C1008 1.365 . S
C1005 N1010 1.328 . S
C1005 H1011 0.929 . S
C1006 C1007 1.362 . S
C1006 C1009 1.378 . S
C1006 H1021 0.929 . S
C1007 C1006 1.362 . S
C1007 C1008 1.366 . S
C1008 C1005 1.365 . S
C1008 C1007 1.366 . S
C1008 H1022 0.930 . S
C1009 C1006 1.378 . S
C1009 N1010 1.315 . S
C1009 H1012 0.930 . S
N1010 Co990 2.194 . S
N1010 C1005 1.328 . S
N1010 C1009 1.315 . S
H1011 C1005 0.929 . S
H1012 C1009 0.930 . S
H1013 C1001 0.929 . S
H1014 C1003 0.929 . S
O1015 Co990 2.351 . S
O1015 C1018 1.244 . S
O1016 Co990 2.155 . S
O1016 C1018 1.240 . S
O1017 Co990 2.096 . S
O1017 C998 1.247 . S
C1018 O1015 1.244 . S
C1018 O1016 1.240 . S
H1019 C993 0.931 . S
H1020 C1002 0.931 . S
H1021 C1006 0.929 . S
H1022 C1008 0.930 . S
Co1023 N1027 2.148 . S
Co1023 N1033 2.128 . S
Co1023 N1043 2.194 . S
Co1023 O1048 2.351 . S
Co1023 O1049 2.155 . S
Co1023 O1050 2.096 . S
C1024 N1027 1.301 . S
C1024 N1028 1.328 . S
C1024 H1029 0.930 . S
C1025 C1026 1.333 . S
C1025 N1027 1.317 . S
C1025 H1030 0.930 . S
C1026 C1025 1.333 . S
C1026 N1028 1.350 . S
C1026 H1052 0.931 . S
N1027 Co1023 2.148 . S
N1027 C1024 1.301 . S
N1027 C1025 1.317 . S
N1028 C1024 1.328 . S
N1028 C1026 1.350 . S
H1029 C1024 0.930 . S
H1030 C1025 0.930 . S
C1031 O1032 1.224 . S
C1031 O1050 1.247 . S
O1032 C1031 1.224 . S
N1033 Co1023 2.128 . S
N1033 C1034 1.355 . S
N1033 C1036 1.311 . S
C1034 N1033 1.355 . S
C1034 C1035 1.363 . S
C1034 H1046 0.929 . S
C1035 C1034 1.363 . S
C1035 N1037 1.375 . S
C1035 H1053 0.931 . S
C1036 N1033 1.311 . S
C1036 N1037 1.347 . S
C1036 H1047 0.929 . S
N1037 C1035 1.375 . S
N1037 C1036 1.347 . S
C1038 C1041 1.365 . S
C1038 N1043 1.328 . S
C1038 H1044 0.929 . S
C1039 C1040 1.362 . S
C1039 C1042 1.378 . S
C1039 H1054 0.929 . S
C1040 C1039 1.362 . S
C1040 C1041 1.366 . S
C1041 C1038 1.365 . S
C1041 C1040 1.366 . S
C1041 H1055 0.930 . S
C1042 C1039 1.378 . S
C1042 N1043 1.315 . S
C1042 H1045 0.930 . S
N1043 Co1023 2.194 . S
N1043 C1038 1.328 . S
N1043 C1042 1.315 . S
H1044 C1038 0.929 . S
H1045 C1042 0.930 . S
H1046 C1034 0.929 . S
H1047 C1036 0.929 . S
O1048 Co1023 2.351 . S
O1048 C1051 1.244 . S
O1049 Co1023 2.155 . S
O1049 C1051 1.240 . S
O1050 Co1023 2.096 . S
O1050 C1031 1.247 . S
C1051 O1048 1.244 . S
C1051 O1049 1.240 . S
H1052 C1026 0.931 . S
H1053 C1035 0.931 . S
H1054 C1039 0.929 . S
H1055 C1041 0.930 . S
H1056 C1062 0.930 . S
H1057 C1065 0.930 . S
H1058 C1066 0.930 . S
H1059 C1067 0.930 . S
H1060 C1070 0.930 . S
H1061 C1071 0.930 . S
C1062 H1056 0.930 . S
C1062 C1063 1.355 . S
C1062 C1064 1.415 . S
C1063 C1062 1.355 . S
C1063 C1065 1.419 . S
C1064 C1062 1.415 . S
C1064 C1069 1.425 . S
C1064 C1071 1.409 . S
C1065 H1057 0.930 . S
C1065 C1063 1.419 . S
C1065 C1066 1.362 . S
C1066 H1058 0.930 . S
C1066 C1065 1.362 . S
C1066 C1069 1.409 . S
C1067 H1059 0.930 . S
C1067 C1068 1.355 . S
C1067 C1069 1.415 . S
C1068 C1067 1.355 . S
C1068 C1070 1.419 . S
C1069 C1064 1.425 . S
C1069 C1066 1.409 . S
C1069 C1067 1.415 . S
C1070 H1060 0.930 . S
C1070 C1068 1.419 . S
C1070 C1071 1.362 . S
C1071 H1061 0.930 . S
C1071 C1064 1.409 . S
C1071 C1070 1.362 . S
H1072 C1078 0.930 . S
H1073 C1081 0.930 1_565 S
H1074 C1082 0.930 1_565 S
H1075 C1083 0.930 . S
H1076 C1086 0.930 . S
H1077 C1087 0.930 . S
C1078 H1072 0.930 . S
C1078 C1079 1.355 . S
C1078 C1080 1.415 . S
C1079 C1078 1.355 . S
C1079 C1081 1.419 . S
C1080 C1078 1.415 . S
C1080 C1085 1.425 . S
C1080 C1087 1.409 . S
C1081 H1073 0.930 1_545 S
C1081 C1079 1.419 . S
C1081 C1082 1.362 . S
C1082 H1074 0.930 1_545 S
C1082 C1081 1.362 . S
C1082 C1085 1.409 . S
C1083 H1075 0.930 . S
C1083 C1084 1.355 . S
C1083 C1085 1.415 . S
C1084 C1083 1.355 . S
C1084 C1086 1.419 . S
C1085 C1080 1.425 . S
C1085 C1082 1.409 . S
C1085 C1083 1.415 . S
C1086 H1076 0.930 . S
C1086 C1084 1.419 . S
C1086 C1087 1.362 . S
C1087 H1077 0.930 . S
C1087 C1080 1.409 . S
C1087 C1086 1.362 . S
H1088 C1094 0.930 . S
H1089 C1097 0.930 . S
H1090 C1098 0.930 . S
H1091 C1099 0.930 . S
H1092 C1102 0.930 . S
H1093 C1103 0.930 . S
C1094 H1088 0.930 . S
C1094 C1095 1.355 . S
C1094 C1096 1.415 . S
C1095 C1094 1.355 . S
C1095 C1097 1.419 . S
C1096 C1094 1.415 . S
C1096 C1101 1.425 . S
C1096 C1103 1.409 . S
C1097 H1089 0.930 . S
C1097 C1095 1.419 . S
C1097 C1098 1.362 . S
C1098 H1090 0.930 . S
C1098 C1097 1.362 . S
C1098 C1101 1.409 . S
C1099 H1091 0.930 . S
C1099 C1100 1.355 . S
C1099 C1101 1.415 . S
C1100 C1099 1.355 . S
C1100 C1102 1.419 . S
C1101 C1096 1.425 . S
C1101 C1098 1.409 . S
C1101 C1099 1.415 . S
C1102 H1092 0.930 . S
C1102 C1100 1.419 . S
C1102 C1103 1.362 . S
C1103 H1093 0.930 . S
C1103 C1096 1.409 . S
C1103 C1102 1.362 . S
H1104 C1110 0.930 . S
H1105 C1113 0.930 . S
H1106 C1114 0.930 1_545 S
H1107 C1115 0.930 1_545 S
H1108 C1118 0.930 . S
H1109 C1119 0.930 . S
C1110 H1104 0.930 . S
C1110 C1111 1.355 . S
C1110 C1112 1.415 . S
C1111 C1110 1.355 . S
C1111 C1113 1.419 . S
C1112 C1110 1.415 . S
C1112 C1117 1.425 . S
C1112 C1119 1.409 . S
C1113 H1105 0.930 . S
C1113 C1111 1.419 . S
C1113 C1114 1.362 . S
C1114 H1106 0.930 1_565 S
C1114 C1113 1.362 . S
C1114 C1117 1.409 . S
C1115 H1107 0.930 1_565 S
C1115 C1116 1.355 . S
C1115 C1117 1.415 . S
C1116 C1115 1.355 . S
C1116 C1118 1.419 . S
C1117 C1112 1.425 . S
C1117 C1114 1.409 . S
C1117 C1115 1.415 . S
C1118 H1108 0.930 . S
C1118 C1116 1.419 . S
C1118 C1119 1.362 . S
C1119 H1109 0.930 . S
C1119 C1112 1.409 . S
C1119 C1118 1.362 . S
H1120 C1126 0.930 . S
H1121 C1129 0.930 . S
H1122 C1130 0.930 . S
H1123 C1131 0.930 . S
H1124 C1134 0.930 . S
H1125 C1135 0.930 . S
C1126 H1120 0.930 . S
C1126 C1127 1.355 . S
C1126 C1128 1.415 . S
C1127 C1126 1.355 . S
C1127 C1129 1.419 . S
C1128 C1126 1.415 . S
C1128 C1133 1.425 . S
C1128 C1135 1.409 . S
C1129 H1121 0.930 . S
C1129 C1127 1.419 . S
C1129 C1130 1.362 . S
C1130 H1122 0.930 . S
C1130 C1129 1.362 . S
C1130 C1133 1.409 . S
C1131 H1123 0.930 . S
C1131 C1132 1.355 . S
C1131 C1133 1.415 . S
C1132 C1131 1.355 . S
C1132 C1134 1.419 . S
C1133 C1128 1.425 . S
C1133 C1130 1.409 . S
C1133 C1131 1.415 . S
C1134 H1124 0.930 . S
C1134 C1132 1.419 . S
C1134 C1135 1.362 . S
C1135 H1125 0.930 . S
C1135 C1128 1.409 . S
C1135 C1134 1.362 . S
H1136 C1142 0.930 . S
H1137 C1145 0.930 . S
H1138 C1146 0.930 . S
H1139 C1147 0.930 . S
H1140 C1150 0.930 . S
H1141 C1151 0.930 . S
C1142 H1136 0.930 . S
C1142 C1143 1.355 . S
C1142 C1144 1.415 . S
C1143 C1142 1.355 . S
C1143 C1145 1.419 . S
C1144 C1142 1.415 . S
C1144 C1149 1.425 . S
C1144 C1151 1.409 . S
C1145 H1137 0.930 . S
C1145 C1143 1.419 . S
C1145 C1146 1.362 . S
C1146 H1138 0.930 . S
C1146 C1145 1.362 . S
C1146 C1149 1.409 . S
C1147 H1139 0.930 . S
C1147 C1148 1.355 . S
C1147 C1149 1.415 . S
C1148 C1147 1.355 . S
C1148 C1150 1.419 . S
C1149 C1144 1.425 . S
C1149 C1146 1.409 . S
C1149 C1147 1.415 . S
C1150 H1140 0.930 . S
C1150 C1148 1.419 . S
C1150 C1151 1.362 . S
C1151 H1141 0.930 . S
C1151 C1144 1.409 . S
C1151 C1150 1.362 . S
H1152 C1158 0.930 . S
H1153 C1161 0.930 . S
H1154 C1162 0.930 . S
H1155 C1163 0.930 . S
H1156 C1166 0.930 . S
H1157 C1167 0.930 . S
C1158 H1152 0.930 . S
C1158 C1159 1.355 . S
C1158 C1160 1.415 . S
C1159 C1158 1.355 . S
C1159 C1161 1.419 . S
C1160 C1158 1.415 . S
C1160 C1165 1.425 . S
C1160 C1167 1.409 . S
C1161 H1153 0.930 . S
C1161 C1159 1.419 . S
C1161 C1162 1.362 . S
C1162 H1154 0.930 . S
C1162 C1161 1.362 . S
C1162 C1165 1.409 . S
C1163 H1155 0.930 . S
C1163 C1164 1.355 . S
C1163 C1165 1.415 . S
C1164 C1163 1.355 . S
C1164 C1166 1.419 . S
C1165 C1160 1.425 . S
C1165 C1162 1.409 . S
C1165 C1163 1.415 . S
C1166 H1156 0.930 . S
C1166 C1164 1.419 . S
C1166 C1167 1.362 . S
C1167 H1157 0.930 . S
C1167 C1160 1.409 . S
C1167 C1166 1.362 . S
H1168 C1174 0.930 . S
H1169 C1177 0.930 . S
H1170 C1178 0.930 . S
H1171 C1179 0.930 . S
H1172 C1182 0.930 . S
H1173 C1183 0.930 . S
C1174 H1168 0.930 . S
C1174 C1175 1.355 . S
C1174 C1176 1.415 . S
C1175 C1174 1.355 . S
C1175 C1177 1.419 . S
C1176 C1174 1.415 . S
C1176 C1181 1.425 . S
C1176 C1183 1.409 . S
C1177 H1169 0.930 . S
C1177 C1175 1.419 . S
C1177 C1178 1.362 . S
C1178 H1170 0.930 . S
C1178 C1177 1.362 . S
C1178 C1181 1.409 . S
C1179 H1171 0.930 . S
C1179 C1180 1.355 . S
C1179 C1181 1.415 . S
C1180 C1179 1.355 . S
C1180 C1182 1.419 . S
C1181 C1176 1.425 . S
C1181 C1178 1.409 . S
C1181 C1179 1.415 . S
C1182 H1172 0.930 . S
C1182 C1180 1.419 . S
C1182 C1183 1.362 . S
C1183 H1173 0.930 . S
C1183 C1176 1.409 . S
C1183 C1182 1.362 . S
H1184 C1190 0.930 . S
H1185 C1193 0.930 1_455 S
H1186 C1194 0.927 1_455 S
H1187 C1195 0.931 1_455 S
H1188 C1198 0.930 . S
H1189 C1199 0.930 . S
C1190 H1184 0.930 . S
C1190 C1191 1.355 . S
C1190 C1192 1.415 . S
C1191 C1190 1.355 . S
C1191 C1193 1.419 . S
C1192 C1190 1.415 . S
C1192 C1197 1.425 . S
C1192 C1199 1.409 . S
C1193 H1185 0.930 1_655 S
C1193 C1191 1.419 . S
C1193 C1194 1.363 . S
C1194 H1186 0.927 1_655 S
C1194 C1193 1.363 . S
C1194 C1197 1.411 . S
C1195 H1187 0.931 1_655 S
C1195 C1196 1.355 . S
C1195 C1197 1.415 . S
C1196 C1195 1.355 . S
C1196 C1198 1.419 . S
C1197 C1192 1.425 . S
C1197 C1194 1.411 . S
C1197 C1195 1.415 . S
C1198 H1188 0.930 . S
C1198 C1196 1.419 . S
C1198 C1199 1.362 . S
C1199 H1189 0.930 . S
C1199 C1192 1.409 . S
C1199 C1198 1.362 . S
H1200 C1206 0.930 . S
H1201 C1209 0.930 . S
H1202 C1210 0.930 . S
H1203 C1211 0.930 . S
H1204 C1214 0.930 . S
H1205 C1215 0.930 . S
C1206 H1200 0.930 . S
C1206 C1207 1.355 . S
C1206 C1208 1.415 . S
C1207 C1206 1.355 . S
C1207 C1209 1.419 . S
C1208 C1206 1.415 . S
C1208 C1213 1.425 . S
C1208 C1215 1.409 . S
C1209 H1201 0.930 . S
C1209 C1207 1.419 . S
C1209 C1210 1.362 . S
C1210 H1202 0.930 . S
C1210 C1209 1.362 . S
C1210 C1213 1.409 . S
C1211 H1203 0.930 . S
C1211 C1212 1.355 . S
C1211 C1213 1.415 . S
C1212 C1211 1.355 . S
C1212 C1214 1.419 . S
C1213 C1208 1.425 . S
C1213 C1210 1.409 . S
C1213 C1211 1.415 . S
C1214 H1204 0.930 . S
C1214 C1212 1.419 . S
C1214 C1215 1.362 . S
C1215 H1205 0.930 . S
C1215 C1208 1.409 . S
C1215 C1214 1.362 . S
H1216 C1222 0.917 1_655 S
H1217 C1225 0.930 . S
H1218 C1226 0.930 . S
H1219 C1227 0.930 . S
H1220 C1230 0.930 1_655 S
H1221 C1231 0.925 . S
C1222 H1216 0.917 1_455 S
C1222 C1223 1.355 . S
C1222 C1224 1.415 . S
C1223 C1222 1.355 . S
C1223 C1225 1.419 . S
C1224 C1222 1.415 . S
C1224 C1229 1.425 . S
C1224 C1231 1.413 1_455 S
C1225 H1217 0.930 . S
C1225 C1223 1.419 . S
C1225 C1226 1.362 . S
C1226 H1218 0.930 . S
C1226 C1225 1.362 . S
C1226 C1229 1.409 . S
C1227 H1219 0.930 . S
C1227 C1228 1.355 . S
C1227 C1229 1.415 . S
C1228 C1227 1.355 . S
C1228 C1230 1.419 . S
C1229 C1224 1.425 . S
C1229 C1226 1.409 . S
C1229 C1227 1.415 . S
C1230 H1220 0.930 1_455 S
C1230 C1228 1.419 . S
C1230 C1231 1.363 1_455 S
C1231 H1221 0.925 . S
C1231 C1224 1.413 1_655 S
C1231 C1230 1.363 1_655 S
H1232 C1238 0.930 . S
H1233 C1241 0.930 . S
H1234 C1242 0.930 1_545 S
H1235 C1243 0.930 1_545 S
H1236 C1246 0.930 . S
H1237 C1247 0.930 . S
C1238 H1232 0.930 . S
C1238 C1239 1.355 . S
C1238 C1240 1.415 . S
C1239 C1238 1.355 . S
C1239 C1241 1.419 . S
C1240 C1238 1.415 . S
C1240 C1245 1.425 . S
C1240 C1247 1.409 . S
C1241 H1233 0.930 . S
C1241 C1239 1.419 . S
C1241 C1242 1.362 . S
C1242 H1234 0.930 1_565 S
C1242 C1241 1.362 . S
C1242 C1245 1.409 . S
C1243 H1235 0.930 1_565 S
C1243 C1244 1.355 . S
C1243 C1245 1.415 . S
C1244 C1243 1.355 . S
C1244 C1246 1.419 . S
C1245 C1240 1.425 . S
C1245 C1242 1.409 . S
C1245 C1243 1.415 . S
C1246 H1236 0.930 . S
C1246 C1244 1.419 . S
C1246 C1247 1.362 . S
C1247 H1237 0.930 . S
C1247 C1240 1.409 . S
C1247 C1246 1.362 . S
H1248 C1254 0.930 . S
H1249 C1257 0.930 . S
H1250 C1258 0.930 . S
H1251 C1259 0.930 . S
H1252 C1262 0.930 . S
H1253 C1263 0.930 . S
C1254 H1248 0.930 . S
C1254 C1255 1.355 . S
C1254 C1256 1.415 . S
C1255 C1254 1.355 . S
C1255 C1257 1.419 . S
C1256 C1254 1.415 . S
C1256 C1261 1.425 . S
C1256 C1263 1.409 . S
C1257 H1249 0.930 . S
C1257 C1255 1.419 . S
C1257 C1258 1.362 . S
C1258 H1250 0.930 . S
C1258 C1257 1.362 . S
C1258 C1261 1.409 . S
C1259 H1251 0.930 . S
C1259 C1260 1.355 . S
C1259 C1261 1.415 . S
C1260 C1259 1.355 . S
C1260 C1262 1.419 . S
C1261 C1256 1.425 . S
C1261 C1258 1.409 . S
C1261 C1259 1.415 . S
C1262 H1252 0.930 . S
C1262 C1260 1.419 . S
C1262 C1263 1.362 . S
C1263 H1253 0.930 . S
C1263 C1256 1.409 . S
C1263 C1262 1.362 . S
H1264 C1270 0.930 . S
H1265 C1273 0.930 . S
H1266 C1274 0.930 . S
H1267 C1275 0.930 . S
H1268 C1278 0.930 . S
H1269 C1279 0.930 . S
C1270 H1264 0.930 . S
C1270 C1271 1.355 . S
C1270 C1272 1.415 . S
C1271 C1270 1.355 . S
C1271 C1273 1.419 . S
C1272 C1270 1.415 . S
C1272 C1277 1.425 . S
C1272 C1279 1.409 . S
C1273 H1265 0.930 . S
C1273 C1271 1.419 . S
C1273 C1274 1.362 . S
C1274 H1266 0.930 . S
C1274 C1273 1.362 . S
C1274 C1277 1.409 . S
C1275 H1267 0.930 . S
C1275 C1276 1.355 . S
C1275 C1277 1.415 . S
C1276 C1275 1.355 . S
C1276 C1278 1.419 . S
C1277 C1272 1.425 . S
C1277 C1274 1.409 . S
C1277 C1275 1.415 . S
C1278 H1268 0.930 . S
C1278 C1276 1.419 . S
C1278 C1279 1.362 . S
C1279 H1269 0.930 . S
C1279 C1272 1.409 . S
C1279 C1278 1.362 . S
H1280 C1286 0.930 . S
H1281 C1289 0.930 1_655 S
H1282 C1290 0.926 1_655 S
H1283 C1291 0.872 1_655 S
H1284 C1294 0.930 . S
H1285 C1295 0.930 . S
C1286 H1280 0.930 . S
C1286 C1287 1.355 . S
C1286 C1288 1.415 . S
C1287 C1286 1.355 . S
C1287 C1289 1.419 . S
C1288 C1286 1.415 . S
C1288 C1293 1.425 . S
C1288 C1295 1.409 . S
C1289 H1281 0.930 1_455 S
C1289 C1287 1.419 . S
C1289 C1290 1.363 . S
C1290 H1282 0.926 1_455 S
C1290 C1289 1.363 . S
C1290 C1293 1.412 . S
C1291 H1283 0.872 1_455 S
C1291 C1292 1.355 . S
C1291 C1293 1.415 . S
C1292 C1291 1.355 . S
C1292 C1294 1.419 . S
C1293 C1288 1.425 . S
C1293 C1290 1.412 . S
C1293 C1291 1.415 . S
C1294 H1284 0.930 . S
C1294 C1292 1.419 . S
C1294 C1295 1.362 . S
C1295 H1285 0.930 . S
C1295 C1288 1.409 . S
C1295 C1294 1.362 . S
H1296 C1302 0.930 . S
H1297 C1305 0.930 . S
H1298 C1306 0.930 . S
H1299 C1307 0.930 . S
H1300 C1310 0.930 . S
H1301 C1311 0.930 . S
C1302 H1296 0.930 . S
C1302 C1303 1.355 . S
C1302 C1304 1.415 . S
C1303 C1302 1.355 . S
C1303 C1305 1.419 . S
C1304 C1302 1.415 . S
C1304 C1309 1.425 . S
C1304 C1311 1.409 . S
C1305 H1297 0.930 . S
C1305 C1303 1.419 . S
C1305 C1306 1.362 . S
C1306 H1298 0.930 . S
C1306 C1305 1.362 . S
C1306 C1309 1.409 . S
C1307 H1299 0.930 . S
C1307 C1308 1.355 . S
C1307 C1309 1.415 . S
C1308 C1307 1.355 . S
C1308 C1310 1.419 . S
C1309 C1304 1.425 . S
C1309 C1306 1.409 . S
C1309 C1307 1.415 . S
C1310 H1300 0.930 . S
C1310 C1308 1.419 . S
C1310 C1311 1.362 . S
C1311 H1301 0.930 . S
C1311 C1304 1.409 . S
C1311 C1310 1.362 . S
H1312 C1318 0.930 . S
H1313 C1321 0.930 . S
H1314 C1322 0.930 . S
H1315 C1323 0.930 . S
H1316 C1326 0.930 . S
H1317 C1327 0.930 . S
C1318 H1312 0.930 . S
C1318 C1319 1.355 . S
C1318 C1320 1.415 1_565 S
C1319 C1318 1.355 . S
C1319 C1321 1.419 . S
C1320 C1318 1.415 1_545 S
C1320 C1325 1.425 1_546 S
C1320 C1327 1.409 . S
C1321 H1313 0.930 . S
C1321 C1319 1.419 . S
C1321 C1322 1.362 1_556 S
C1322 H1314 0.930 . S
C1322 C1321 1.362 1_554 S
C1322 C1325 1.409 . S
C1323 H1315 0.930 . S
C1323 C1324 1.355 . S
C1323 C1325 1.415 1_545 S
C1324 C1323 1.355 . S
C1324 C1326 1.419 . S
C1325 C1320 1.425 1_564 S
C1325 C1322 1.409 . S
C1325 C1323 1.415 1_565 S
C1326 H1316 0.930 . S
C1326 C1324 1.419 . S
C1326 C1327 1.362 1_554 S
C1327 H1317 0.930 . S
C1327 C1320 1.409 . S
C1327 C1326 1.362 1_556 S
H1328 C1334 0.930 . S
H1329 C1337 0.930 . S
H1330 C1338 0.930 . S
H1331 C1339 0.930 . S
H1332 C1342 0.930 . S
H1333 C1343 0.930 . S
C1334 H1328 0.930 . S
C1334 C1335 1.355 . S
C1334 C1336 1.415 . S
C1335 C1334 1.355 . S
C1335 C1337 1.419 . S
C1336 C1334 1.415 . S
C1336 C1341 1.425 1_554 S
C1336 C1343 1.409 . S
C1337 H1329 0.930 . S
C1337 C1335 1.419 . S
C1337 C1338 1.362 1_554 S
C1338 H1330 0.930 . S
C1338 C1337 1.362 1_556 S
C1338 C1341 1.409 . S
C1339 H1331 0.930 . S
C1339 C1340 1.355 . S
C1339 C1341 1.415 . S
C1340 C1339 1.355 . S
C1340 C1342 1.419 . S
C1341 C1336 1.425 1_556 S
C1341 C1338 1.409 . S
C1341 C1339 1.415 . S
C1342 H1332 0.930 . S
C1342 C1340 1.419 . S
C1342 C1343 1.362 1_556 S
C1343 H1333 0.930 . S
C1343 C1336 1.409 . S
C1343 C1342 1.362 1_554 S
H1344 C1350 0.930 . S
H1345 C1353 0.930 . S
H1346 C1354 0.930 . S
H1347 C1355 0.930 . S
H1348 C1358 0.930 . S
H1349 C1359 0.930 . S
C1350 H1344 0.930 . S
C1350 C1351 1.355 . S
C1350 C1352 1.415 . S
C1351 C1350 1.355 . S
C1351 C1353 1.419 . S
C1352 C1350 1.415 . S
C1352 C1357 1.425 . S
C1352 C1359 1.409 . S
C1353 H1345 0.930 . S
C1353 C1351 1.419 . S
C1353 C1354 1.362 . S
C1354 H1346 0.930 . S
C1354 C1353 1.362 . S
C1354 C1357 1.409 . S
C1355 H1347 0.930 . S
C1355 C1356 1.355 . S
C1355 C1357 1.415 . S
C1356 C1355 1.355 . S
C1356 C1358 1.419 . S
C1357 C1352 1.425 . S
C1357 C1354 1.409 . S
C1357 C1355 1.415 . S
C1358 H1348 0.930 . S
C1358 C1356 1.419 . S
C1358 C1359 1.362 . S
C1359 H1349 0.930 . S
C1359 C1352 1.409 . S
C1359 C1358 1.362 . S
H1360 C1366 0.930 . S
H1361 C1369 0.930 . S
H1362 C1370 0.930 . S
H1363 C1371 0.930 . S
H1364 C1374 0.930 . S
H1365 C1375 0.930 . S
C1366 H1360 0.930 . S
C1366 C1367 1.355 . S
C1366 C1368 1.415 . S
C1367 C1366 1.355 . S
C1367 C1369 1.419 . S
C1368 C1366 1.415 . S
C1368 C1373 1.425 1_545 S
C1368 C1375 1.409 . S
C1369 H1361 0.930 . S
C1369 C1367 1.419 . S
C1369 C1370 1.362 1_545 S
C1370 H1362 0.930 . S
C1370 C1369 1.362 1_565 S
C1370 C1373 1.409 . S
C1371 H1363 0.930 . S
C1371 C1372 1.355 . S
C1371 C1373 1.415 . S
C1372 C1371 1.355 . S
C1372 C1374 1.419 . S
C1373 C1368 1.425 1_565 S
C1373 C1370 1.409 . S
C1373 C1371 1.415 . S
C1374 H1364 0.930 . S
C1374 C1372 1.419 . S
C1374 C1375 1.362 1_565 S
C1375 H1365 0.930 . S
C1375 C1368 1.409 . S
C1375 C1374 1.362 1_545 S
H1376 C1382 0.930 . S
H1377 C1385 0.930 . S
H1378 C1386 0.932 . S
H1379 C1387 0.930 . S
H1380 C1390 0.930 . S
H1381 C1391 0.932 . S
C1382 H1376 0.930 . S
C1382 C1383 1.355 . S
C1382 C1384 1.415 . S
C1383 C1382 1.355 . S
C1383 C1385 1.419 . S
C1384 C1382 1.415 . S
C1384 C1389 1.425 1_556 S
C1384 C1391 1.409 1_556 S
C1385 H1377 0.930 . S
C1385 C1383 1.419 . S
C1385 C1386 1.362 . S
C1386 H1378 0.932 . S
C1386 C1385 1.362 . S
C1386 C1389 1.409 1_556 S
C1387 H1379 0.930 . S
C1387 C1388 1.355 . S
C1387 C1389 1.415 . S
C1388 C1387 1.355 . S
C1388 C1390 1.419 . S
C1389 C1384 1.425 1_554 S
C1389 C1386 1.409 1_554 S
C1389 C1387 1.415 . S
C1390 H1380 0.930 . S
C1390 C1388 1.419 . S
C1390 C1391 1.362 . S
C1391 H1381 0.932 . S
C1391 C1384 1.409 1_554 S
C1391 C1390 1.362 . S
H1392 C1398 0.930 . S
H1393 C1401 0.930 . S
H1394 C1402 0.930 . S
H1395 C1403 0.930 . S
H1396 C1406 0.930 . S
H1397 C1407 0.930 . S
C1398 H1392 0.930 . S
C1398 C1399 1.355 . S
C1398 C1400 1.415 . S
C1399 C1398 1.355 . S
C1399 C1401 1.419 . S
C1400 C1398 1.415 . S
C1400 C1405 1.425 . S
C1400 C1407 1.409 . S
C1401 H1393 0.930 . S
C1401 C1399 1.419 . S
C1401 C1402 1.362 . S
C1402 H1394 0.930 . S
C1402 C1401 1.362 . S
C1402 C1405 1.409 . S
C1403 H1395 0.930 . S
C1403 C1404 1.355 . S
C1403 C1405 1.415 . S
C1404 C1403 1.355 . S
C1404 C1406 1.419 . S
C1405 C1400 1.425 . S
C1405 C1402 1.409 . S
C1405 C1403 1.415 . S
C1406 H1396 0.930 . S
C1406 C1404 1.419 . S
C1406 C1407 1.362 . S
C1407 H1397 0.930 . S
C1407 C1400 1.409 . S
C1407 C1406 1.362 . S
H1408 C1414 0.930 . S
H1409 C1417 0.930 . S
H1410 C1418 0.930 . S
H1411 C1419 0.930 . S
H1412 C1422 0.930 . S
H1413 C1423 0.930 . S
C1414 H1408 0.930 . S
C1414 C1415 1.355 . S
C1414 C1416 1.415 1_545 S
C1415 C1414 1.355 . S
C1415 C1417 1.419 . S
C1416 C1414 1.415 1_565 S
C1416 C1421 1.425 1_565 S
C1416 C1423 1.409 . S
C1417 H1409 0.930 . S
C1417 C1415 1.419 . S
C1417 C1418 1.362 . S
C1418 H1410 0.930 . S
C1418 C1417 1.362 . S
C1418 C1421 1.409 . S
C1419 H1411 0.930 . S
C1419 C1420 1.355 . S
C1419 C1421 1.415 1_565 S
C1420 C1419 1.355 . S
C1420 C1422 1.419 . S
C1421 C1416 1.425 1_545 S
C1421 C1418 1.409 . S
C1421 C1419 1.415 1_545 S
C1422 H1412 0.930 . S
C1422 C1420 1.419 . S
C1422 C1423 1.362 . S
C1423 H1413 0.930 . S
C1423 C1416 1.409 . S
C1423 C1422 1.362 . S
H1424 C1430 0.930 . S
H1425 C1433 0.930 . S
H1426 C1434 0.930 . S
H1427 C1435 0.930 . S
H1428 C1438 0.930 . S
H1429 C1439 0.930 . S
C1430 H1424 0.930 . S
C1430 C1431 1.355 . S
C1430 C1432 1.415 . S
C1431 C1430 1.355 . S
C1431 C1433 1.419 . S
C1432 C1430 1.415 . S
C1432 C1437 1.425 . S
C1432 C1439 1.409 . S
C1433 H1425 0.930 . S
C1433 C1431 1.419 . S
C1433 C1434 1.362 . S
C1434 H1426 0.930 . S
C1434 C1433 1.362 . S
C1434 C1437 1.409 . S
C1435 H1427 0.930 . S
C1435 C1436 1.355 . S
C1435 C1437 1.415 . S
C1436 C1435 1.355 . S
C1436 C1438 1.419 . S
C1437 C1432 1.425 . S
C1437 C1434 1.409 . S
C1437 C1435 1.415 . S
C1438 H1428 0.930 . S
C1438 C1436 1.419 . S
C1438 C1439 1.362 . S
C1439 H1429 0.930 . S
C1439 C1432 1.409 . S
C1439 C1438 1.362 . S
H1440 C1446 0.930 . S
H1441 C1449 0.930 . S
H1442 C1450 0.930 . S
H1443 C1451 0.930 . S
H1444 C1454 0.930 . S
H1445 C1455 0.930 . S
C1446 H1440 0.930 . S
C1446 C1447 1.355 . S
C1446 C1448 1.415 . S
C1447 C1446 1.355 . S
C1447 C1449 1.419 . S
C1448 C1446 1.415 . S
C1448 C1453 1.425 . S
C1448 C1455 1.409 . S
C1449 H1441 0.930 . S
C1449 C1447 1.419 . S
C1449 C1450 1.362 . S
C1450 H1442 0.930 . S
C1450 C1449 1.362 . S
C1450 C1453 1.409 . S
C1451 H1443 0.930 . S
C1451 C1452 1.355 . S
C1451 C1453 1.415 . S
C1452 C1451 1.355 . S
C1452 C1454 1.419 . S
C1453 C1448 1.425 . S
C1453 C1450 1.409 . S
C1453 C1451 1.415 . S
C1454 H1444 0.930 . S
C1454 C1452 1.419 . S
C1454 C1455 1.362 . S
C1455 H1445 0.930 . S
C1455 C1448 1.409 . S
C1455 C1454 1.362 . S
H1456 C1462 0.930 . S
H1457 C1465 0.930 . S
H1458 C1466 0.930 . S
H1459 C1467 0.930 . S
H1460 C1470 0.930 . S
H1461 C1471 0.930 . S
C1462 H1456 0.930 . S
C1462 C1463 1.355 . S
C1462 C1464 1.415 . S
C1463 C1462 1.355 . S
C1463 C1465 1.419 . S
C1464 C1462 1.415 . S
C1464 C1469 1.425 . S
C1464 C1471 1.409 . S
C1465 H1457 0.930 . S
C1465 C1463 1.419 . S
C1465 C1466 1.362 . S
C1466 H1458 0.930 . S
C1466 C1465 1.362 . S
C1466 C1469 1.409 . S
C1467 H1459 0.930 . S
C1467 C1468 1.355 . S
C1467 C1469 1.415 . S
C1468 C1467 1.355 . S
C1468 C1470 1.419 . S
C1469 C1464 1.425 . S
C1469 C1466 1.409 . S
C1469 C1467 1.415 . S
C1470 H1460 0.930 . S
C1470 C1468 1.419 . S
C1470 C1471 1.362 . S
C1471 H1461 0.930 . S
C1471 C1464 1.409 . S
C1471 C1470 1.362 . S
H1472 C1478 0.930 . S
H1473 C1481 0.930 . S
H1474 C1482 0.930 . S
H1475 C1483 0.930 . S
H1476 C1486 0.930 . S
H1477 C1487 0.930 . S
C1478 H1472 0.930 . S
C1478 C1479 1.355 . S
C1478 C1480 1.415 . S
C1479 C1478 1.355 . S
C1479 C1481 1.419 . S
C1480 C1478 1.415 . S
C1480 C1485 1.425 . S
C1480 C1487 1.409 . S
C1481 H1473 0.930 . S
C1481 C1479 1.419 . S
C1481 C1482 1.362 . S
C1482 H1474 0.930 . S
C1482 C1481 1.362 . S
C1482 C1485 1.409 . S
C1483 H1475 0.930 . S
C1483 C1484 1.355 . S
C1483 C1485 1.415 . S
C1484 C1483 1.355 . S
C1484 C1486 1.419 . S
C1485 C1480 1.425 . S
C1485 C1482 1.409 . S
C1485 C1483 1.415 . S
C1486 H1476 0.930 . S
C1486 C1484 1.419 . S
C1486 C1487 1.362 . S
C1487 H1477 0.930 . S
C1487 C1480 1.409 . S
C1487 C1486 1.362 . S
H1488 C1494 0.930 . S
H1489 C1497 0.930 . S
H1490 C1498 0.930 . S
H1491 C1499 0.930 . S
H1492 C1502 0.930 . S
H1493 C1503 0.930 . S
C1494 H1488 0.930 . S
C1494 C1495 1.355 . S
C1494 C1496 1.415 . S
C1495 C1494 1.355 . S
C1495 C1497 1.419 . S
C1496 C1494 1.415 . S
C1496 C1501 1.425 . S
C1496 C1503 1.409 . S
C1497 H1489 0.930 . S
C1497 C1495 1.419 . S
C1497 C1498 1.362 . S
C1498 H1490 0.930 . S
C1498 C1497 1.362 . S
C1498 C1501 1.409 . S
C1499 H1491 0.930 . S
C1499 C1500 1.355 . S
C1499 C1501 1.415 . S
C1500 C1499 1.355 . S
C1500 C1502 1.419 . S
C1501 C1496 1.425 . S
C1501 C1498 1.409 . S
C1501 C1499 1.415 . S
C1502 H1492 0.930 . S
C1502 C1500 1.419 . S
C1502 C1503 1.362 . S
C1503 H1493 0.930 . S
C1503 C1496 1.409 . S
C1503 C1502 1.362 . S
H1504 C1510 0.930 . S
H1505 C1513 0.930 . S
H1506 C1514 0.930 . S
H1507 C1515 0.930 . S
H1508 C1518 0.930 . S
H1509 C1519 0.930 . S
C1510 H1504 0.930 . S
C1510 C1511 1.355 1_655 S
C1510 C1512 1.415 1_565 S
C1511 C1510 1.355 1_455 S
C1511 C1513 1.419 . S
C1512 C1510 1.415 1_545 S
C1512 C1517 1.425 1_645 S
C1512 C1519 1.409 . S
C1513 H1505 0.930 . S
C1513 C1511 1.419 . S
C1513 C1514 1.362 . S
C1514 H1506 0.930 . S
C1514 C1513 1.362 . S
C1514 C1517 1.409 . S
C1515 H1507 0.930 . S
C1515 C1516 1.355 1_455 S
C1515 C1517 1.415 1_545 S
C1516 C1515 1.355 1_655 S
C1516 C1518 1.419 . S
C1517 C1512 1.425 1_465 S
C1517 C1514 1.409 . S
C1517 C1515 1.415 1_565 S
C1518 H1508 0.930 . S
C1518 C1516 1.419 . S
C1518 C1519 1.362 . S
C1519 H1509 0.930 . S
C1519 C1512 1.409 . S
C1519 C1518 1.362 . S
H1520 C1526 0.930 . S
H1521 C1529 0.930 . S
H1522 C1530 0.930 . S
H1523 C1531 0.930 . S
H1524 C1534 0.930 . S
H1525 C1535 0.930 . S
C1526 H1520 0.930 . S
C1526 C1527 1.355 1_455 S
C1526 C1528 1.415 . S
C1527 C1526 1.355 1_655 S
C1527 C1529 1.419 . S
C1528 C1526 1.415 . S
C1528 C1533 1.425 1_455 S
C1528 C1535 1.409 . S
C1529 H1521 0.930 . S
C1529 C1527 1.419 . S
C1529 C1530 1.362 . S
C1530 H1522 0.930 . S
C1530 C1529 1.362 . S
C1530 C1533 1.409 . S
C1531 H1523 0.930 . S
C1531 C1532 1.355 1_655 S
C1531 C1533 1.415 . S
C1532 C1531 1.355 1_455 S
C1532 C1534 1.419 . S
C1533 C1528 1.425 1_655 S
C1533 C1530 1.409 . S
C1533 C1531 1.415 . S
C1534 H1524 0.930 . S
C1534 C1532 1.419 . S
C1534 C1535 1.362 . S
C1535 H1525 0.930 . S
C1535 C1528 1.409 . S
C1535 C1534 1.362 . S
H1536 C1542 0.930 . S
H1537 C1545 0.930 . S
H1538 C1546 0.930 . S
H1539 C1547 0.930 . S
H1540 C1550 0.930 . S
H1541 C1551 0.930 . S
C1542 H1536 0.930 . S
C1542 C1543 1.355 . S
C1542 C1544 1.415 . S
C1543 C1542 1.355 . S
C1543 C1545 1.419 1_455 S
C1544 C1542 1.415 . S
C1544 C1549 1.425 1_455 S
C1544 C1551 1.409 . S
C1545 H1537 0.930 . S
C1545 C1543 1.419 1_655 S
C1545 C1546 1.362 . S
C1546 H1538 0.930 . S
C1546 C1545 1.362 . S
C1546 C1549 1.409 . S
C1547 H1539 0.930 . S
C1547 C1548 1.355 . S
C1547 C1549 1.415 . S
C1548 C1547 1.355 . S
C1548 C1550 1.419 1_655 S
C1549 C1544 1.425 1_655 S
C1549 C1546 1.409 . S
C1549 C1547 1.415 . S
C1550 H1540 0.930 . S
C1550 C1548 1.419 1_455 S
C1550 C1551 1.362 . S
C1551 H1541 0.930 . S
C1551 C1544 1.409 . S
C1551 C1550 1.362 . S
H1552 C1558 0.930 . S
H1553 C1561 0.930 . S
H1554 C1562 0.930 . S
H1555 C1563 0.930 . S
H1556 C1566 0.930 . S
H1557 C1567 0.930 . S
C1558 H1552 0.930 . S
C1558 C1559 1.355 . S
C1558 C1560 1.365 1_556 S
C1559 C1558 1.355 . S
C1559 C1561 1.419 1_455 S
C1560 C1558 1.365 1_554 S
C1560 C1565 1.414 1_454 S
C1560 C1567 1.471 . S
C1561 H1553 0.930 . S
C1561 C1559 1.419 1_655 S
C1561 C1562 1.362 . S
C1562 H1554 0.930 . S
C1562 C1561 1.362 . S
C1562 C1565 1.471 . S
C1563 H1555 0.930 . S
C1563 C1564 1.355 . S
C1563 C1565 1.365 1_554 S
C1564 C1563 1.355 . S
C1564 C1566 1.419 1_655 S
C1565 C1560 1.414 1_656 S
C1565 C1562 1.471 . S
C1565 C1563 1.365 1_556 S
C1566 H1556 0.930 . S
C1566 C1564 1.419 1_455 S
C1566 C1567 1.362 . S
C1567 H1557 0.930 . S
C1567 C1560 1.471 . S
C1567 C1566 1.362 . S
H1568 C1574 0.930 . S
H1569 C1577 0.930 . S
H1570 C1578 0.930 . S
H1571 C1579 0.930 . S
H1572 C1582 0.930 . S
H1573 C1583 0.930 . S
C1574 H1568 0.930 . S
C1574 C1575 1.355 . S
C1574 C1576 1.415 . S
C1575 C1574 1.355 . S
C1575 C1577 1.419 . S
C1576 C1574 1.415 . S
C1576 C1581 1.425 . S
C1576 C1583 1.409 . S
C1577 H1569 0.930 . S
C1577 C1575 1.419 . S
C1577 C1578 1.362 . S
C1578 H1570 0.930 . S
C1578 C1577 1.362 . S
C1578 C1581 1.409 . S
C1579 H1571 0.930 . S
C1579 C1580 1.355 . S
C1579 C1581 1.415 . S
C1580 C1579 1.355 . S
C1580 C1582 1.419 . S
C1581 C1576 1.425 . S
C1581 C1578 1.409 . S
C1581 C1579 1.415 . S
C1582 H1572 0.930 . S
C1582 C1580 1.419 . S
C1582 C1583 1.362 . S
C1583 H1573 0.930 . S
C1583 C1576 1.409 . S
C1583 C1582 1.362 . S
H1584 C1590 0.930 . S
H1585 C1593 0.930 . S
H1586 C1594 0.930 . S
H1587 C1595 0.930 . S
H1588 C1598 0.930 . S
H1589 C1599 0.930 . S
C1590 H1584 0.930 . S
C1590 C1591 1.355 . S
C1590 C1592 1.415 . S
C1591 C1590 1.355 . S
C1591 C1593 1.419 . S
C1592 C1590 1.415 . S
C1592 C1597 1.425 . S
C1592 C1599 1.409 . S
C1593 H1585 0.930 . S
C1593 C1591 1.419 . S
C1593 C1594 1.362 . S
C1594 H1586 0.930 . S
C1594 C1593 1.362 . S
C1594 C1597 1.409 . S
C1595 H1587 0.930 . S
C1595 C1596 1.355 . S
C1595 C1597 1.415 . S
C1596 C1595 1.355 . S
C1596 C1598 1.419 . S
C1597 C1592 1.425 . S
C1597 C1594 1.409 . S
C1597 C1595 1.415 . S
C1598 H1588 0.930 . S
C1598 C1596 1.419 . S
C1598 C1599 1.362 . S
C1599 H1589 0.930 . S
C1599 C1592 1.409 . S
C1599 C1598 1.362 . S
H1600 C1606 0.930 . S
H1601 C1609 0.930 . S
H1602 C1610 0.930 . S
H1603 C1611 0.930 . S
H1604 C1614 0.930 . S
H1605 C1615 0.930 . S
C1606 H1600 0.930 . S
C1606 C1607 1.355 . S
C1606 C1608 1.415 . S
C1607 C1606 1.355 . S
C1607 C1609 1.419 . S
C1608 C1606 1.415 . S
C1608 C1613 1.425 . S
C1608 C1615 1.409 . S
C1609 H1601 0.930 . S
C1609 C1607 1.419 . S
C1609 C1610 1.362 . S
C1610 H1602 0.930 . S
C1610 C1609 1.362 . S
C1610 C1613 1.409 . S
C1611 H1603 0.930 . S
C1611 C1612 1.355 . S
C1611 C1613 1.415 . S
C1612 C1611 1.355 . S
C1612 C1614 1.419 . S
C1613 C1608 1.425 . S
C1613 C1610 1.409 . S
C1613 C1611 1.415 . S
C1614 H1604 0.930 . S
C1614 C1612 1.419 . S
C1614 C1615 1.362 . S
C1615 H1605 0.930 . S
C1615 C1608 1.409 . S
C1615 C1614 1.362 . S
H1616 C1622 0.930 . S
H1617 C1625 0.930 . S
H1618 C1626 0.930 . S
H1619 C1627 0.930 . S
H1620 C1630 0.930 . S
H1621 C1631 0.930 . S
C1622 H1616 0.930 . S
C1622 C1623 1.355 . S
C1622 C1624 1.415 . S
C1623 C1622 1.355 . S
C1623 C1625 1.419 . S
C1624 C1622 1.415 . S
C1624 C1629 1.425 . S
C1624 C1631 1.409 . S
C1625 H1617 0.930 . S
C1625 C1623 1.419 . S
C1625 C1626 1.362 . S
C1626 H1618 0.930 . S
C1626 C1625 1.362 . S
C1626 C1629 1.409 . S
C1627 H1619 0.930 . S
C1627 C1628 1.355 . S
C1627 C1629 1.415 . S
C1628 C1627 1.355 . S
C1628 C1630 1.419 . S
C1629 C1624 1.425 . S
C1629 C1626 1.409 . S
C1629 C1627 1.415 . S
C1630 H1620 0.930 . S
C1630 C1628 1.419 . S
C1630 C1631 1.362 . S
C1631 H1621 0.930 . S
C1631 C1624 1.409 . S
C1631 C1630 1.362 . S
H1632 C1638 0.930 . S
H1633 C1641 0.930 . S
H1634 C1642 0.930 . S
H1635 C1643 0.930 . S
H1636 C1646 0.930 . S
H1637 C1647 0.930 . S
C1638 H1632 0.930 . S
C1638 C1639 1.355 . S
C1638 C1640 1.415 . S
C1639 C1638 1.355 . S
C1639 C1641 1.419 . S
C1640 C1638 1.415 . S
C1640 C1645 1.425 . S
C1640 C1647 1.409 . S
C1641 H1633 0.930 . S
C1641 C1639 1.419 . S
C1641 C1642 1.362 . S
C1642 H1634 0.930 . S
C1642 C1641 1.362 . S
C1642 C1645 1.409 . S
C1643 H1635 0.930 . S
C1643 C1644 1.355 . S
C1643 C1645 1.415 . S
C1644 C1643 1.355 . S
C1644 C1646 1.419 . S
C1645 C1640 1.425 . S
C1645 C1642 1.409 . S
C1645 C1643 1.415 . S
C1646 H1636 0.930 . S
C1646 C1644 1.419 . S
C1646 C1647 1.362 . S
C1647 H1637 0.930 . S
C1647 C1640 1.409 . S
C1647 C1646 1.362 . S
H1648 C1654 0.930 . S
H1649 C1657 0.930 . S
H1650 C1658 0.930 . S
H1651 C1659 0.930 . S
H1652 C1662 0.930 . S
H1653 C1663 0.930 . S
C1654 H1648 0.930 . S
C1654 C1655 1.355 . S
C1654 C1656 1.415 . S
C1655 C1654 1.355 . S
C1655 C1657 1.419 . S
C1656 C1654 1.415 . S
C1656 C1661 1.425 . S
C1656 C1663 1.409 . S
C1657 H1649 0.930 . S
C1657 C1655 1.419 . S
C1657 C1658 1.362 . S
C1658 H1650 0.930 . S
C1658 C1657 1.362 . S
C1658 C1661 1.409 . S
C1659 H1651 0.930 . S
C1659 C1660 1.355 . S
C1659 C1661 1.415 . S
C1660 C1659 1.355 . S
C1660 C1662 1.419 . S
C1661 C1656 1.425 . S
C1661 C1658 1.409 . S
C1661 C1659 1.415 . S
C1662 H1652 0.930 . S
C1662 C1660 1.419 . S
C1662 C1663 1.362 . S
C1663 H1653 0.930 . S
C1663 C1656 1.409 . S
C1663 C1662 1.362 . S
H1664 C1670 0.930 . S
H1665 C1673 0.930 . S
H1666 C1674 0.930 . S
H1667 C1675 0.930 . S
H1668 C1678 0.930 . S
H1669 C1679 0.930 . S
C1670 H1664 0.930 . S
C1670 C1671 1.355 . S
C1670 C1672 1.415 . S
C1671 C1670 1.355 . S
C1671 C1673 1.419 . S
C1672 C1670 1.415 . S
C1672 C1677 1.425 . S
C1672 C1679 1.409 . S
C1673 H1665 0.930 . S
C1673 C1671 1.419 . S
C1673 C1674 1.362 . S
C1674 H1666 0.930 . S
C1674 C1673 1.362 . S
C1674 C1677 1.409 . S
C1675 H1667 0.930 . S
C1675 C1676 1.355 . S
C1675 C1677 1.415 . S
C1676 C1675 1.355 . S
C1676 C1678 1.419 . S
C1677 C1672 1.425 . S
C1677 C1674 1.409 . S
C1677 C1675 1.415 . S
C1678 H1668 0.930 . S
C1678 C1676 1.419 . S
C1678 C1679 1.362 . S
C1679 H1669 0.930 . S
C1679 C1672 1.409 . S
C1679 C1678 1.362 . S
H1680 C1686 0.930 . S
H1681 C1689 0.930 . S
H1682 C1690 0.930 . S
H1683 C1691 0.930 . S
H1684 C1694 0.930 . S
H1685 C1695 0.930 . S
C1686 H1680 0.930 . S
C1686 C1687 1.355 . S
C1686 C1688 1.415 . S
C1687 C1686 1.355 . S
C1687 C1689 1.419 . S
C1688 C1686 1.415 . S
C1688 C1693 1.425 . S
C1688 C1695 1.409 . S
C1689 H1681 0.930 . S
C1689 C1687 1.419 . S
C1689 C1690 1.362 . S
C1690 H1682 0.930 . S
C1690 C1689 1.362 . S
C1690 C1693 1.409 . S
C1691 H1683 0.930 . S
C1691 C1692 1.355 . S
C1691 C1693 1.415 . S
C1692 C1691 1.355 . S
C1692 C1694 1.419 . S
C1693 C1688 1.425 . S
C1693 C1690 1.409 . S
C1693 C1691 1.415 . S
C1694 H1684 0.930 . S
C1694 C1692 1.419 . S
C1694 C1695 1.362 . S
C1695 H1685 0.930 . S
C1695 C1688 1.409 . S
C1695 C1694 1.362 . S
H1696 C1702 0.930 . S
H1697 C1705 0.930 . S
H1698 C1706 0.930 . S
H1699 C1707 0.930 . S
H1700 C1710 0.930 1_565 S
H1701 C1711 0.930 . S
C1702 H1696 0.930 . S
C1702 C1703 1.355 . S
C1702 C1704 1.415 . S
C1703 C1702 1.355 . S
C1703 C1705 1.419 . S
C1704 C1702 1.415 . S
C1704 C1709 1.425 . S
C1704 C1711 1.409 . S
C1705 H1697 0.930 . S
C1705 C1703 1.419 . S
C1705 C1706 1.362 . S
C1706 H1698 0.930 . S
C1706 C1705 1.362 . S
C1706 C1709 1.409 . S
C1707 H1699 0.930 . S
C1707 C1708 1.355 . S
C1707 C1709 1.415 . S
C1708 C1707 1.355 . S
C1708 C1710 1.419 . S
C1709 C1704 1.425 . S
C1709 C1706 1.409 . S
C1709 C1707 1.415 . S
C1710 H1700 0.930 1_545 S
C1710 C1708 1.419 . S
C1710 C1711 1.362 . S
C1711 H1701 0.930 . S
C1711 C1704 1.409 . S
C1711 C1710 1.362 . S
H1712 C1718 0.930 . S
H1713 C1721 0.930 . S
H1714 C1722 0.930 . S
H1715 C1723 0.930 . S
H1716 C1726 0.930 . S
H1717 C1727 0.930 . S
C1718 H1712 0.930 . S
C1718 C1719 1.355 . S
C1718 C1720 1.415 1_565 S
C1719 C1718 1.355 . S
C1719 C1721 1.419 . S
C1720 C1718 1.415 1_545 S
C1720 C1725 1.425 . S
C1720 C1727 1.409 . S
C1721 H1713 0.930 . S
C1721 C1719 1.419 . S
C1721 C1722 1.362 1_565 S
C1722 H1714 0.930 . S
C1722 C1721 1.362 1_545 S
C1722 C1725 1.409 . S
C1723 H1715 0.930 . S
C1723 C1724 1.355 . S
C1723 C1725 1.415 . S
C1724 C1723 1.355 . S
C1724 C1726 1.419 . S
C1725 C1720 1.425 . S
C1725 C1722 1.409 . S
C1725 C1723 1.415 . S
C1726 H1716 0.930 . S
C1726 C1724 1.419 . S
C1726 C1727 1.362 . S
C1727 H1717 0.930 . S
C1727 C1720 1.409 . S
C1727 C1726 1.362 . S
H1728 C1734 0.930 . S
H1729 C1737 0.930 . S
H1730 C1738 0.930 . S
H1731 C1739 0.930 . S
H1732 C1742 0.930 . S
H1733 C1743 0.930 . S
C1734 H1728 0.930 . S
C1734 C1735 1.355 . S
C1734 C1736 1.415 1_565 S
C1735 C1734 1.355 . S
C1735 C1737 1.419 . S
C1736 C1734 1.415 1_545 S
C1736 C1741 1.425 . S
C1736 C1743 1.409 . S
C1737 H1729 0.930 . S
C1737 C1735 1.419 . S
C1737 C1738 1.362 1_565 S
C1738 H1730 0.930 . S
C1738 C1737 1.362 1_545 S
C1738 C1741 1.409 . S
C1739 H1731 0.930 . S
C1739 C1740 1.355 . S
C1739 C1741 1.415 . S
C1740 C1739 1.355 . S
C1740 C1742 1.419 . S
C1741 C1736 1.425 . S
C1741 C1738 1.409 . S
C1741 C1739 1.415 . S
C1742 H1732 0.930 . S
C1742 C1740 1.419 . S
C1742 C1743 1.362 . S
C1743 H1733 0.930 . S
C1743 C1736 1.409 . S
C1743 C1742 1.362 . S
H1744 C1750 0.930 . S
H1745 C1753 0.930 1_565 S
H1746 C1754 0.930 . S
H1747 C1755 0.930 . S
H1748 C1758 0.930 . S
H1749 C1759 0.930 . S
C1750 H1744 0.930 . S
C1750 C1751 1.355 . S
C1750 C1752 1.415 . S
C1751 C1750 1.355 . S
C1751 C1753 1.419 . S
C1752 C1750 1.415 . S
C1752 C1757 1.425 . S
C1752 C1759 1.409 . S
C1753 H1745 0.930 1_545 S
C1753 C1751 1.419 . S
C1753 C1754 1.362 . S
C1754 H1746 0.930 . S
C1754 C1753 1.362 . S
C1754 C1757 1.409 . S
C1755 H1747 0.930 . S
C1755 C1756 1.355 . S
C1755 C1757 1.415 . S
C1756 C1755 1.355 . S
C1756 C1758 1.419 . S
C1757 C1752 1.425 . S
C1757 C1754 1.409 . S
C1757 C1755 1.415 . S
C1758 H1748 0.930 . S
C1758 C1756 1.419 . S
C1758 C1759 1.362 . S
C1759 H1749 0.930 . S
C1759 C1752 1.409 . S
C1759 C1758 1.362 . S
H1760 C1766 0.930 . S
H1761 C1769 0.930 . S
H1762 C1770 0.930 . S
H1763 C1771 0.930 . S
H1764 C1774 0.930 1_545 S
H1765 C1775 0.930 . S
C1766 H1760 0.930 . S
C1766 C1767 1.355 . S
C1766 C1768 1.415 . S
C1767 C1766 1.355 . S
C1767 C1769 1.419 . S
C1768 C1766 1.415 . S
C1768 C1773 1.425 . S
C1768 C1775 1.409 . S
C1769 H1761 0.930 . S
C1769 C1767 1.419 . S
C1769 C1770 1.362 . S
C1770 H1762 0.930 . S
C1770 C1769 1.362 . S
C1770 C1773 1.409 . S
C1771 H1763 0.930 . S
C1771 C1772 1.355 . S
C1771 C1773 1.415 . S
C1772 C1771 1.355 . S
C1772 C1774 1.419 . S
C1773 C1768 1.425 . S
C1773 C1770 1.409 . S
C1773 C1771 1.415 . S
C1774 H1764 0.930 1_565 S
C1774 C1772 1.419 . S
C1774 C1775 1.362 . S
C1775 H1765 0.930 . S
C1775 C1768 1.409 . S
C1775 C1774 1.362 . S
H1776 C1782 0.930 . S
H1777 C1785 0.930 . S
H1778 C1786 0.930 . S
H1779 C1787 0.930 . S
H1780 C1790 0.930 . S
H1781 C1791 0.930 . S
C1782 H1776 0.930 . S
C1782 C1783 1.355 . S
C1782 C1784 1.415 1_545 S
C1783 C1782 1.355 . S
C1783 C1785 1.419 . S
C1784 C1782 1.415 1_565 S
C1784 C1789 1.425 . S
C1784 C1791 1.409 . S
C1785 H1777 0.930 . S
C1785 C1783 1.419 . S
C1785 C1786 1.362 1_545 S
C1786 H1778 0.930 . S
C1786 C1785 1.362 1_565 S
C1786 C1789 1.409 . S
C1787 H1779 0.930 . S
C1787 C1788 1.355 . S
C1787 C1789 1.415 . S
C1788 C1787 1.355 . S
C1788 C1790 1.419 . S
C1789 C1784 1.425 . S
C1789 C1786 1.409 . S
C1789 C1787 1.415 . S
C1790 H1780 0.930 . S
C1790 C1788 1.419 . S
C1790 C1791 1.362 . S
C1791 H1781 0.930 . S
C1791 C1784 1.409 . S
C1791 C1790 1.362 . S
H1792 C1798 0.930 . S
H1793 C1801 0.930 . S
H1794 C1802 0.930 . S
H1795 C1803 0.930 . S
H1796 C1806 0.930 . S
H1797 C1807 0.930 . S
C1798 H1792 0.930 . S
C1798 C1799 1.355 . S
C1798 C1800 1.415 1_545 S
C1799 C1798 1.355 . S
C1799 C1801 1.419 . S
C1800 C1798 1.415 1_565 S
C1800 C1805 1.425 . S
C1800 C1807 1.409 . S
C1801 H1793 0.930 . S
C1801 C1799 1.419 . S
C1801 C1802 1.362 1_545 S
C1802 H1794 0.930 . S
C1802 C1801 1.362 1_565 S
C1802 C1805 1.409 . S
C1803 H1795 0.930 . S
C1803 C1804 1.355 . S
C1803 C1805 1.415 . S
C1804 C1803 1.355 . S
C1804 C1806 1.419 . S
C1805 C1800 1.425 . S
C1805 C1802 1.409 . S
C1805 C1803 1.415 . S
C1806 H1796 0.930 . S
C1806 C1804 1.419 . S
C1806 C1807 1.362 . S
C1807 H1797 0.930 . S
C1807 C1800 1.409 . S
C1807 C1806 1.362 . S
H1808 C1814 0.930 . S
H1809 C1817 0.930 . S
H1810 C1818 0.930 . S
H1811 C1819 0.930 . S
H1812 C1822 0.930 1_545 S
H1813 C1823 0.930 . S
C1814 H1808 0.930 . S
C1814 C1815 1.355 . S
C1814 C1816 1.415 . S
C1815 C1814 1.355 . S
C1815 C1817 1.419 . S
C1816 C1814 1.415 . S
C1816 C1821 1.425 . S
C1816 C1823 1.409 . S
C1817 H1809 0.930 . S
C1817 C1815 1.419 . S
C1817 C1818 1.362 . S
C1818 H1810 0.930 . S
C1818 C1817 1.362 . S
C1818 C1821 1.409 . S
C1819 H1811 0.930 . S
C1819 C1820 1.355 . S
C1819 C1821 1.415 . S
C1820 C1819 1.355 . S
C1820 C1822 1.419 . S
C1821 C1816 1.425 . S
C1821 C1818 1.409 . S
C1821 C1819 1.415 . S
C1822 H1812 0.930 1_565 S
C1822 C1820 1.419 . S
C1822 C1823 1.362 . S
C1823 H1813 0.930 . S
C1823 C1816 1.409 . S
C1823 C1822 1.362 . S
H1824 C1830 0.930 . S
H1825 C1833 0.930 . S
H1826 C1834 0.930 . S
H1827 C1835 0.930 . S
H1828 C1838 0.930 . S
H1829 C1839 0.930 . S
C1830 H1824 0.930 . S
C1830 C1831 1.355 . S
C1830 C1832 1.415 . S
C1831 C1830 1.355 . S
C1831 C1833 1.419 . S
C1832 C1830 1.415 . S
C1832 C1837 1.425 . S
C1832 C1839 1.409 . S
C1833 H1825 0.930 . S
C1833 C1831 1.419 . S
C1833 C1834 1.362 . S
C1834 H1826 0.930 . S
C1834 C1833 1.362 . S
C1834 C1837 1.409 . S
C1835 H1827 0.930 . S
C1835 C1836 1.355 . S
C1835 C1837 1.415 . S
C1836 C1835 1.355 . S
C1836 C1838 1.419 . S
C1837 C1832 1.425 . S
C1837 C1834 1.409 . S
C1837 C1835 1.415 . S
C1838 H1828 0.930 . S
C1838 C1836 1.419 . S
C1838 C1839 1.362 . S
C1839 H1829 0.930 . S
C1839 C1832 1.409 . S
C1839 C1838 1.362 . S
H1840 C1846 0.930 . S
H1841 C1849 0.930 . S
H1842 C1850 0.930 . S
H1843 C1851 0.930 . S
H1844 C1854 0.930 . S
H1845 C1855 0.930 . S
C1846 H1840 0.930 . S
C1846 C1847 1.355 . S
C1846 C1848 1.415 . S
C1847 C1846 1.355 . S
C1847 C1849 1.419 . S
C1848 C1846 1.415 . S
C1848 C1853 1.425 . S
C1848 C1855 1.409 . S
C1849 H1841 0.930 . S
C1849 C1847 1.419 . S
C1849 C1850 1.362 . S
C1850 H1842 0.930 . S
C1850 C1849 1.362 . S
C1850 C1853 1.409 . S
C1851 H1843 0.930 . S
C1851 C1852 1.355 . S
C1851 C1853 1.415 . S
C1852 C1851 1.355 . S
C1852 C1854 1.419 . S
C1853 C1848 1.425 . S
C1853 C1850 1.409 . S
C1853 C1851 1.415 . S
C1854 H1844 0.930 . S
C1854 C1852 1.419 . S
C1854 C1855 1.362 . S
C1855 H1845 0.930 . S
C1855 C1848 1.409 . S
C1855 C1854 1.362 . S
H1856 C1862 0.930 . S
H1857 C1865 0.930 . S
H1858 C1866 0.930 . S
H1859 C1867 0.930 . S
H1860 C1870 0.930 . S
H1861 C1871 0.930 . S
C1862 H1856 0.930 . S
C1862 C1863 1.355 . S
C1862 C1864 1.415 . S
C1863 C1862 1.355 . S
C1863 C1865 1.419 . S
C1864 C1862 1.415 . S
C1864 C1869 1.425 . S
C1864 C1871 1.409 . S
C1865 H1857 0.930 . S
C1865 C1863 1.419 . S
C1865 C1866 1.362 . S
C1866 H1858 0.930 . S
C1866 C1865 1.362 . S
C1866 C1869 1.409 . S
C1867 H1859 0.930 . S
C1867 C1868 1.355 . S
C1867 C1869 1.415 . S
C1868 C1867 1.355 . S
C1868 C1870 1.419 . S
C1869 C1864 1.425 . S
C1869 C1866 1.409 . S
C1869 C1867 1.415 . S
C1870 H1860 0.930 . S
C1870 C1868 1.419 . S
C1870 C1871 1.362 . S
C1871 H1861 0.930 . S
C1871 C1864 1.409 . S
C1871 C1870 1.362 . S
H1872 C1878 0.930 . S
H1873 C1881 0.930 . S
H1874 C1882 0.930 . S
H1875 C1883 0.930 . S
H1876 C1886 0.930 . S
H1877 C1887 0.930 . S
C1878 H1872 0.930 . S
C1878 C1879 1.355 . S
C1878 C1880 1.415 . S
C1879 C1878 1.355 . S
C1879 C1881 1.419 . S
C1880 C1878 1.415 . S
C1880 C1885 1.425 . S
C1880 C1887 1.409 . S
C1881 H1873 0.930 . S
C1881 C1879 1.419 . S
C1881 C1882 1.362 . S
C1882 H1874 0.930 . S
C1882 C1881 1.362 . S
C1882 C1885 1.409 . S
C1883 H1875 0.930 . S
C1883 C1884 1.355 . S
C1883 C1885 1.415 . S
C1884 C1883 1.355 . S
C1884 C1886 1.419 . S
C1885 C1880 1.425 . S
C1885 C1882 1.409 . S
C1885 C1883 1.415 . S
C1886 H1876 0.930 . S
C1886 C1884 1.419 . S
C1886 C1887 1.362 . S
C1887 H1877 0.930 . S
C1887 C1880 1.409 . S
C1887 C1886 1.362 . S
H1888 C1894 0.930 . S
H1889 C1897 0.930 . S
H1890 C1898 0.930 . S
H1891 C1899 0.930 . S
H1892 C1902 0.930 . S
H1893 C1903 0.930 . S
C1894 H1888 0.930 . S
C1894 C1895 1.355 . S
C1894 C1896 1.415 . S
C1895 C1894 1.355 . S
C1895 C1897 1.419 . S
C1896 C1894 1.415 . S
C1896 C1901 1.425 . S
C1896 C1903 1.409 . S
C1897 H1889 0.930 . S
C1897 C1895 1.419 . S
C1897 C1898 1.362 . S
C1898 H1890 0.930 . S
C1898 C1897 1.362 . S
C1898 C1901 1.409 . S
C1899 H1891 0.930 . S
C1899 C1900 1.355 . S
C1899 C1901 1.415 . S
C1900 C1899 1.355 . S
C1900 C1902 1.419 . S
C1901 C1896 1.425 . S
C1901 C1898 1.409 . S
C1901 C1899 1.415 . S
C1902 H1892 0.930 . S
C1902 C1900 1.419 . S
C1902 C1903 1.362 . S
C1903 H1893 0.930 . S
C1903 C1896 1.409 . S
C1903 C1902 1.362 . S
H1904 C1910 0.930 . S
H1905 C1913 0.930 . S
H1906 C1914 0.930 . S
H1907 C1915 0.930 . S
H1908 C1918 0.930 . S
H1909 C1919 0.930 . S
C1910 H1904 0.930 . S
C1910 C1911 1.355 . S
C1910 C1912 1.415 . S
C1911 C1910 1.355 . S
C1911 C1913 1.419 . S
C1912 C1910 1.415 . S
C1912 C1917 1.425 . S
C1912 C1919 1.409 . S
C1913 H1905 0.930 . S
C1913 C1911 1.419 . S
C1913 C1914 1.362 . S
C1914 H1906 0.930 . S
C1914 C1913 1.362 . S
C1914 C1917 1.409 . S
C1915 H1907 0.930 . S
C1915 C1916 1.355 . S
C1915 C1917 1.415 . S
C1916 C1915 1.355 . S
C1916 C1918 1.419 . S
C1917 C1912 1.425 . S
C1917 C1914 1.409 . S
C1917 C1915 1.415 . S
C1918 H1908 0.930 . S
C1918 C1916 1.419 . S
C1918 C1919 1.362 . S
C1919 H1909 0.930 . S
C1919 C1912 1.409 . S
C1919 C1918 1.362 . S
H1920 C1926 0.930 . S
H1921 C1929 0.930 . S
H1922 C1930 0.930 . S
H1923 C1931 0.930 . S
H1924 C1934 0.930 . S
H1925 C1935 0.930 . S
C1926 H1920 0.930 . S
C1926 C1927 1.355 . S
C1926 C1928 1.415 . S
C1927 C1926 1.355 . S
C1927 C1929 1.419 . S
C1928 C1926 1.415 . S
C1928 C1933 1.425 . S
C1928 C1935 1.409 . S
C1929 H1921 0.930 . S
C1929 C1927 1.419 . S
C1929 C1930 1.362 . S
C1930 H1922 0.930 . S
C1930 C1929 1.362 . S
C1930 C1933 1.409 . S
C1931 H1923 0.930 . S
C1931 C1932 1.355 . S
C1931 C1933 1.415 . S
C1932 C1931 1.355 . S
C1932 C1934 1.419 . S
C1933 C1928 1.425 . S
C1933 C1930 1.409 . S
C1933 C1931 1.415 . S
C1934 H1924 0.930 . S
C1934 C1932 1.419 . S
C1934 C1935 1.362 . S
C1935 H1925 0.930 . S
C1935 C1928 1.409 . S
C1935 C1934 1.362 . S
H1936 C1942 0.930 . S
H1937 C1945 0.930 . S
H1938 C1946 0.930 . S
H1939 C1947 0.930 . S
H1940 C1950 0.930 . S
H1941 C1951 0.930 . S
C1942 H1936 0.930 . S
C1942 C1943 1.355 . S
C1942 C1944 1.415 . S
C1943 C1942 1.355 . S
C1943 C1945 1.419 . S
C1944 C1942 1.415 . S
C1944 C1949 1.425 . S
C1944 C1951 1.409 . S
C1945 H1937 0.930 . S
C1945 C1943 1.419 . S
C1945 C1946 1.362 . S
C1946 H1938 0.930 . S
C1946 C1945 1.362 . S
C1946 C1949 1.409 . S
C1947 H1939 0.930 . S
C1947 C1948 1.355 . S
C1947 C1949 1.415 . S
C1948 C1947 1.355 . S
C1948 C1950 1.419 . S
C1949 C1944 1.425 . S
C1949 C1946 1.409 . S
C1949 C1947 1.415 . S
C1950 H1940 0.930 . S
C1950 C1948 1.419 . S
C1950 C1951 1.362 . S
C1951 H1941 0.930 . S
C1951 C1944 1.409 . S
C1951 C1950 1.362 . S
H1952 C1958 0.930 . S
H1953 C1961 0.930 . S
H1954 C1962 0.930 . S
H1955 C1963 0.930 . S
H1956 C1966 0.930 . S
H1957 C1967 0.930 . S
C1958 H1952 0.930 . S
C1958 C1959 1.355 . S
C1958 C1960 1.415 . S
C1959 C1958 1.355 . S
C1959 C1961 1.419 . S
C1960 C1958 1.415 . S
C1960 C1965 1.425 . S
C1960 C1967 1.409 . S
C1961 H1953 0.930 . S
C1961 C1959 1.419 . S
C1961 C1962 1.362 . S
C1962 H1954 0.930 . S
C1962 C1961 1.362 . S
C1962 C1965 1.409 . S
C1963 H1955 0.930 . S
C1963 C1964 1.355 . S
C1963 C1965 1.415 . S
C1964 C1963 1.355 . S
C1964 C1966 1.419 . S
C1965 C1960 1.425 . S
C1965 C1962 1.409 . S
C1965 C1963 1.415 . S
C1966 H1956 0.930 . S
C1966 C1964 1.419 . S
C1966 C1967 1.362 . S
C1967 H1957 0.930 . S
C1967 C1960 1.409 . S
C1967 C1966 1.362 . S
H1968 C1974 0.930 . S
H1969 C1977 0.930 . S
H1970 C1978 0.930 1_545 S
H1971 C1979 0.930 . S
H1972 C1982 0.930 . S
H1973 C1983 0.930 . S
C1974 H1968 0.930 . S
C1974 C1975 1.355 . S
C1974 C1976 1.415 1_565 S
C1975 C1974 1.355 . S
C1975 C1977 1.419 . S
C1976 C1974 1.415 1_545 S
C1976 C1981 1.425 . S
C1976 C1983 1.409 . S
C1977 H1969 0.930 . S
C1977 C1975 1.419 . S
C1977 C1978 1.362 . S
C1978 H1970 0.930 1_565 S
C1978 C1977 1.362 . S
C1978 C1981 1.409 1_565 S
C1979 H1971 0.930 . S
C1979 C1980 1.355 . S
C1979 C1981 1.415 . S
C1980 C1979 1.355 . S
C1980 C1982 1.419 . S
C1981 C1976 1.425 . S
C1981 C1978 1.409 1_545 S
C1981 C1979 1.415 . S
C1982 H1972 0.930 . S
C1982 C1980 1.419 . S
C1982 C1983 1.362 . S
C1983 H1973 0.930 . S
C1983 C1976 1.409 . S
C1983 C1982 1.362 . S
H1984 C1990 0.930 . S
H1985 C1993 0.930 . S
H1986 C1994 0.932 . S
H1987 C1995 0.930 . S
H1988 C1998 0.930 . S
H1989 C1999 0.930 . S
C1990 H1984 0.930 . S
C1990 C1991 1.355 . S
C1990 C1992 1.415 1_565 S
C1991 C1990 1.355 . S
C1991 C1993 1.419 . S
C1992 C1990 1.415 1_545 S
C1992 C1997 1.425 . S
C1992 C1999 1.409 . S
C1993 H1985 0.930 . S
C1993 C1991 1.419 . S
C1993 C1994 1.352 1_565 S
C1994 H1986 0.932 . S
C1994 C1993 1.352 1_545 S
C1994 C1997 1.418 . S
C1995 H1987 0.930 . S
C1995 C1996 1.355 . S
C1995 C1997 1.415 . S
C1996 C1995 1.355 . S
C1996 C1998 1.419 . S
C1997 C1992 1.425 . S
C1997 C1994 1.418 . S
C1997 C1995 1.415 . S
C1998 H1988 0.930 . S
C1998 C1996 1.419 . S
C1998 C1999 1.362 . S
C1999 H1989 0.930 . S
C1999 C1992 1.409 . S
C1999 C1998 1.362 . S
H2000 C2006 0.930 . S
H2001 C2009 0.930 . S
H2002 C2010 0.930 . S
H2003 C2011 0.930 . S
H2004 C2014 0.930 . S
H2005 C2015 0.930 . S
C2006 H2000 0.930 . S
C2006 C2007 1.355 . S
C2006 C2008 1.415 . S
C2007 C2006 1.355 . S
C2007 C2009 1.419 . S
C2008 C2006 1.415 . S
C2008 C2013 1.425 . S
C2008 C2015 1.409 . S
C2009 H2001 0.930 . S
C2009 C2007 1.419 . S
C2009 C2010 1.362 . S
C2010 H2002 0.930 . S
C2010 C2009 1.362 . S
C2010 C2013 1.409 . S
C2011 H2003 0.930 . S
C2011 C2012 1.355 . S
C2011 C2013 1.415 . S
C2012 C2011 1.355 . S
C2012 C2014 1.419 . S
C2013 C2008 1.425 . S
C2013 C2010 1.409 . S
C2013 C2011 1.415 . S
C2014 H2004 0.930 . S
C2014 C2012 1.419 . S
C2014 C2015 1.362 . S
C2015 H2005 0.930 . S
C2015 C2008 1.409 . S
C2015 C2014 1.362 . S
H2016 C2022 0.930 . S
H2017 C2025 0.930 . S
H2018 C2026 0.930 . S
H2019 C2027 0.930 . S
H2020 C2030 0.930 . S
H2021 C2031 0.930 . S
C2022 H2016 0.930 . S
C2022 C2023 1.355 . S
C2022 C2024 1.415 . S
C2023 C2022 1.355 . S
C2023 C2025 1.419 . S
C2024 C2022 1.415 . S
C2024 C2029 1.425 . S
C2024 C2031 1.409 . S
C2025 H2017 0.930 . S
C2025 C2023 1.419 . S
C2025 C2026 1.362 . S
C2026 H2018 0.930 . S
C2026 C2025 1.362 . S
C2026 C2029 1.409 . S
C2027 H2019 0.930 . S
C2027 C2028 1.355 . S
C2027 C2029 1.415 . S
C2028 C2027 1.355 . S
C2028 C2030 1.419 . S
C2029 C2024 1.425 . S
C2029 C2026 1.409 . S
C2029 C2027 1.415 . S
C2030 H2020 0.930 . S
C2030 C2028 1.419 . S
C2030 C2031 1.362 . S
C2031 H2021 0.930 . S
C2031 C2024 1.409 . S
C2031 C2030 1.362 . S
H2032 C2038 0.930 . S
H2033 C2041 0.930 . S
H2034 C2042 0.930 . S
H2035 C2043 0.930 . S
H2036 C2046 0.930 . S
H2037 C2047 0.930 . S
C2038 H2032 0.930 . S
C2038 C2039 1.355 . S
C2038 C2040 1.415 . S
C2039 C2038 1.355 . S
C2039 C2041 1.419 . S
C2040 C2038 1.415 . S
C2040 C2045 1.425 . S
C2040 C2047 1.409 . S
C2041 H2033 0.930 . S
C2041 C2039 1.419 . S
C2041 C2042 1.362 . S
C2042 H2034 0.930 . S
C2042 C2041 1.362 . S
C2042 C2045 1.409 . S
C2043 H2035 0.930 . S
C2043 C2044 1.355 . S
C2043 C2045 1.415 1_545 S
C2044 C2043 1.355 . S
C2044 C2046 1.419 . S
C2045 C2040 1.425 . S
C2045 C2042 1.409 . S
C2045 C2043 1.415 1_565 S
C2046 H2036 0.930 . S
C2046 C2044 1.419 . S
C2046 C2047 1.362 1_545 S
C2047 H2037 0.930 . S
C2047 C2040 1.409 . S
C2047 C2046 1.362 1_565 S
H2048 C2054 0.930 . S
H2049 C2057 0.930 . S
H2050 C2058 0.930 . S
H2051 C2059 0.930 . S
H2052 C2062 0.930 . S
H2053 C2063 0.930 . S
C2054 H2048 0.930 . S
C2054 C2055 1.355 . S
C2054 C2056 1.415 . S
C2055 C2054 1.355 . S
C2055 C2057 1.419 . S
C2056 C2054 1.415 . S
C2056 C2061 1.425 . S
C2056 C2063 1.409 . S
C2057 H2049 0.930 . S
C2057 C2055 1.419 . S
C2057 C2058 1.362 . S
C2058 H2050 0.930 . S
C2058 C2057 1.362 . S
C2058 C2061 1.409 . S
C2059 H2051 0.930 . S
C2059 C2060 1.355 . S
C2059 C2061 1.415 1_545 S
C2060 C2059 1.355 . S
C2060 C2062 1.419 . S
C2061 C2056 1.425 . S
C2061 C2058 1.409 . S
C2061 C2059 1.415 1_565 S
C2062 H2052 0.930 . S
C2062 C2060 1.419 . S
C2062 C2063 1.362 1_545 S
C2063 H2053 0.930 . S
C2063 C2056 1.409 . S
C2063 C2062 1.362 1_565 S
H2064 C2070 0.930 . S
H2065 C2073 0.930 . S
H2066 C2074 0.930 . S
H2067 C2075 0.930 . S
H2068 C2078 0.930 . S
H2069 C2079 0.930 . S
C2070 H2064 0.930 . S
C2070 C2071 1.355 . S
C2070 C2072 1.415 . S
C2071 C2070 1.355 . S
C2071 C2073 1.419 . S
C2072 C2070 1.415 . S
C2072 C2077 1.425 . S
C2072 C2079 1.409 . S
C2073 H2065 0.930 . S
C2073 C2071 1.419 . S
C2073 C2074 1.362 . S
C2074 H2066 0.930 . S
C2074 C2073 1.362 . S
C2074 C2077 1.409 . S
C2075 H2067 0.930 . S
C2075 C2076 1.355 . S
C2075 C2077 1.415 . S
C2076 C2075 1.355 . S
C2076 C2078 1.419 . S
C2077 C2072 1.425 . S
C2077 C2074 1.409 . S
C2077 C2075 1.415 . S
C2078 H2068 0.930 . S
C2078 C2076 1.419 . S
C2078 C2079 1.362 . S
C2079 H2069 0.930 . S
C2079 C2072 1.409 . S
C2079 C2078 1.362 . S
H2080 C2086 0.930 . S
H2081 C2089 0.930 . S
H2082 C2090 0.930 . S
H2083 C2091 0.930 . S
H2084 C2094 0.930 . S
H2085 C2095 0.930 . S
C2086 H2080 0.930 . S
C2086 C2087 1.355 . S
C2086 C2088 1.415 . S
C2087 C2086 1.355 . S
C2087 C2089 1.419 . S
C2088 C2086 1.415 . S
C2088 C2093 1.425 . S
C2088 C2095 1.409 . S
C2089 H2081 0.930 . S
C2089 C2087 1.419 . S
C2089 C2090 1.362 . S
C2090 H2082 0.930 . S
C2090 C2089 1.362 . S
C2090 C2093 1.409 . S
C2091 H2083 0.930 . S
C2091 C2092 1.355 . S
C2091 C2093 1.415 . S
C2092 C2091 1.355 . S
C2092 C2094 1.419 . S
C2093 C2088 1.425 . S
C2093 C2090 1.409 . S
C2093 C2091 1.415 . S
C2094 H2084 0.930 . S
C2094 C2092 1.419 . S
C2094 C2095 1.362 . S
C2095 H2085 0.930 . S
C2095 C2088 1.409 . S
C2095 C2094 1.362 . S
H2096 C2102 0.930 . S
H2097 C2105 0.930 . S
H2098 C2106 0.930 1_545 S
H2099 C2107 0.930 . S
H2100 C2110 0.930 . S
H2101 C2111 0.930 . S
C2102 H2096 0.930 . S
C2102 C2103 1.355 . S
C2102 C2104 1.415 . S
C2103 C2102 1.355 . S
C2103 C2105 1.419 1_565 S
C2104 C2102 1.415 . S
C2104 C2109 1.425 . S
C2104 C2111 1.409 . S
C2105 H2097 0.930 . S
C2105 C2103 1.419 1_545 S
C2105 C2106 1.362 1_545 S
C2106 H2098 0.930 1_565 S
C2106 C2105 1.362 1_565 S
C2106 C2109 1.409 . S
C2107 H2099 0.930 . S
C2107 C2108 1.355 . S
C2107 C2109 1.415 . S
C2108 C2107 1.355 . S
C2108 C2110 1.419 . S
C2109 C2104 1.425 . S
C2109 C2106 1.409 . S
C2109 C2107 1.415 . S
C2110 H2100 0.930 . S
C2110 C2108 1.419 . S
C2110 C2111 1.362 . S
C2111 H2101 0.930 . S
C2111 C2104 1.409 . S
C2111 C2110 1.362 . S
H2112 C2118 0.930 . S
H2113 C2121 0.930 . S
H2114 C2122 0.930 . S
H2115 C2123 0.930 1_545 S
H2116 C2126 0.930 . S
H2117 C2127 0.930 . S
C2118 H2112 0.930 . S
C2118 C2119 1.355 . S
C2118 C2120 1.415 . S
C2119 C2118 1.355 . S
C2119 C2121 1.419 . S
C2120 C2118 1.415 . S
C2120 C2125 1.425 . S
C2120 C2127 1.409 . S
C2121 H2113 0.930 . S
C2121 C2119 1.419 . S
C2121 C2122 1.362 . S
C2122 H2114 0.930 . S
C2122 C2121 1.362 . S
C2122 C2125 1.409 . S
C2123 H2115 0.930 1_565 S
C2123 C2124 1.355 . S
C2123 C2125 1.415 . S
C2124 C2123 1.355 . S
C2124 C2126 1.419 . S
C2125 C2120 1.425 . S
C2125 C2122 1.409 . S
C2125 C2123 1.415 . S
C2126 H2116 0.930 . S
C2126 C2124 1.419 . S
C2126 C2127 1.362 . S
C2127 H2117 0.930 . S
C2127 C2120 1.409 . S
C2127 C2126 1.362 . S
H2128 C2134 0.930 . S
H2129 C2137 0.930 . S
H2130 C2138 0.930 . S
H2131 C2139 0.930 . S
H2132 C2142 0.930 . S
H2133 C2143 0.930 . S
C2134 H2128 0.930 . S
C2134 C2135 1.355 . S
C2134 C2136 1.415 . S
C2135 C2134 1.355 . S
C2135 C2137 1.419 . S
C2136 C2134 1.415 . S
C2136 C2141 1.425 . S
C2136 C2143 1.409 . S
C2137 H2129 0.930 . S
C2137 C2135 1.419 . S
C2137 C2138 1.362 . S
C2138 H2130 0.930 . S
C2138 C2137 1.362 . S
C2138 C2141 1.409 . S
C2139 H2131 0.930 . S
C2139 C2140 1.355 . S
C2139 C2141 1.415 . S
C2140 C2139 1.355 . S
C2140 C2142 1.419 . S
C2141 C2136 1.425 . S
C2141 C2138 1.409 . S
C2141 C2139 1.415 . S
C2142 H2132 0.930 . S
C2142 C2140 1.419 . S
C2142 C2143 1.362 . S
C2143 H2133 0.930 . S
C2143 C2136 1.409 . S
C2143 C2142 1.362 . S
H2144 C2150 0.930 . S
H2145 C2153 0.930 . S
H2146 C2154 0.930 . S
H2147 C2155 0.930 . S
H2148 C2158 0.930 . S
H2149 C2159 0.930 . S
C2150 H2144 0.930 . S
C2150 C2151 1.355 . S
C2150 C2152 1.415 . S
C2151 C2150 1.355 . S
C2151 C2153 1.419 . S
C2152 C2150 1.415 . S
C2152 C2157 1.425 . S
C2152 C2159 1.409 . S
C2153 H2145 0.930 . S
C2153 C2151 1.419 . S
C2153 C2154 1.362 . S
C2154 H2146 0.930 . S
C2154 C2153 1.362 . S
C2154 C2157 1.409 . S
C2155 H2147 0.930 . S
C2155 C2156 1.355 . S
C2155 C2157 1.415 . S
C2156 C2155 1.355 . S
C2156 C2158 1.419 . S
C2157 C2152 1.425 . S
C2157 C2154 1.409 . S
C2157 C2155 1.415 . S
C2158 H2148 0.930 . S
C2158 C2156 1.419 . S
C2158 C2159 1.362 . S
C2159 H2149 0.930 . S
C2159 C2152 1.409 . S
C2159 C2158 1.362 . S
H2160 C2166 0.930 1_565 S
H2161 C2169 0.930 . S
H2162 C2170 0.930 . S
H2163 C2171 0.930 . S
H2164 C2174 0.930 . S
H2165 C2175 0.930 . S
C2166 H2160 0.930 1_545 S
C2166 C2167 1.355 . S
C2166 C2168 1.415 . S
C2167 C2166 1.355 . S
C2167 C2169 1.419 . S
C2168 C2166 1.415 . S
C2168 C2173 1.425 . S
C2168 C2175 1.409 . S
C2169 H2161 0.930 . S
C2169 C2167 1.419 . S
C2169 C2170 1.362 . S
C2170 H2162 0.930 . S
C2170 C2169 1.362 . S
C2170 C2173 1.409 . S
C2171 H2163 0.930 . S
C2171 C2172 1.355 . S
C2171 C2173 1.415 . S
C2172 C2171 1.355 . S
C2172 C2174 1.419 . S
C2173 C2168 1.425 . S
C2173 C2170 1.409 . S
C2173 C2171 1.415 . S
C2174 H2164 0.930 . S
C2174 C2172 1.419 . S
C2174 C2175 1.362 . S
C2175 H2165 0.930 . S
C2175 C2168 1.409 . S
C2175 C2174 1.362 . S
H2176 C2182 0.930 . S
H2177 C2185 0.930 . S
H2178 C2186 0.930 1_565 S
H2179 C2187 0.930 1_565 S
H2180 C2190 0.930 . S
H2181 C2191 0.930 . S
C2182 H2176 0.930 . S
C2182 C2183 1.355 . S
C2182 C2184 1.415 . S
C2183 C2182 1.355 . S
C2183 C2185 1.419 . S
C2184 C2182 1.415 . S
C2184 C2189 1.425 . S
C2184 C2191 1.409 . S
C2185 H2177 0.930 . S
C2185 C2183 1.419 . S
C2185 C2186 1.362 . S
C2186 H2178 0.930 1_545 S
C2186 C2185 1.362 . S
C2186 C2189 1.409 . S
C2187 H2179 0.930 1_545 S
C2187 C2188 1.355 . S
C2187 C2189 1.415 . S
C2188 C2187 1.355 . S
C2188 C2190 1.419 . S
C2189 C2184 1.425 . S
C2189 C2186 1.409 . S
C2189 C2187 1.415 . S
C2190 H2180 0.930 . S
C2190 C2188 1.419 . S
C2190 C2191 1.362 . S
C2191 H2181 0.930 . S
C2191 C2184 1.409 . S
C2191 C2190 1.362 . S
H2192 C2198 0.930 . S
H2193 C2201 0.930 . S
H2194 C2202 0.930 . S
H2195 C2203 0.930 . S
H2196 C2206 0.930 . S
H2197 C2207 0.930 . S
C2198 H2192 0.930 . S
C2198 C2199 1.355 . S
C2198 C2200 1.415 . S
C2199 C2198 1.355 . S
C2199 C2201 1.419 . S
C2200 C2198 1.415 . S
C2200 C2205 1.425 . S
C2200 C2207 1.409 . S
C2201 H2193 0.930 . S
C2201 C2199 1.419 . S
C2201 C2202 1.362 . S
C2202 H2194 0.930 . S
C2202 C2201 1.362 . S
C2202 C2205 1.409 . S
C2203 H2195 0.930 . S
C2203 C2204 1.355 . S
C2203 C2205 1.415 . S
C2204 C2203 1.355 . S
C2204 C2206 1.419 . S
C2205 C2200 1.425 . S
C2205 C2202 1.409 . S
C2205 C2203 1.415 . S
C2206 H2196 0.930 . S
C2206 C2204 1.419 . S
C2206 C2207 1.362 . S
C2207 H2197 0.930 . S
C2207 C2200 1.409 . S
C2207 C2206 1.362 . S
H2208 C2214 0.930 . S
H2209 C2217 0.930 . S
H2210 C2218 0.930 . S
H2211 C2219 0.930 . S
H2212 C2222 0.930 1_545 S
H2213 C2223 0.930 . S
C2214 H2208 0.930 . S
C2214 C2215 1.355 . S
C2214 C2216 1.415 . S
C2215 C2214 1.355 . S
C2215 C2217 1.419 . S
C2216 C2214 1.415 . S
C2216 C2221 1.425 . S
C2216 C2223 1.409 . S
C2217 H2209 0.930 . S
C2217 C2215 1.419 . S
C2217 C2218 1.362 . S
C2218 H2210 0.930 . S
C2218 C2217 1.362 . S
C2218 C2221 1.409 . S
C2219 H2211 0.930 . S
C2219 C2220 1.355 . S
C2219 C2221 1.415 . S
C2220 C2219 1.355 . S
C2220 C2222 1.419 . S
C2221 C2216 1.425 . S
C2221 C2218 1.409 . S
C2221 C2219 1.415 . S
C2222 H2212 0.930 1_565 S
C2222 C2220 1.419 . S
C2222 C2223 1.362 . S
C2223 H2213 0.930 . S
C2223 C2216 1.409 . S
C2223 C2222 1.362 . S
H2224 C2230 0.930 . S
H2225 C2233 0.930 . S
H2226 C2234 0.930 . S
H2227 C2235 0.930 . S
H2228 C2238 0.930 . S
H2229 C2239 0.930 . S
C2230 H2224 0.930 . S
C2230 C2231 1.355 . S
C2230 C2232 1.415 . S
C2231 C2230 1.355 . S
C2231 C2233 1.419 . S
C2232 C2230 1.415 . S
C2232 C2237 1.425 . S
C2232 C2239 1.409 . S
C2233 H2225 0.930 . S
C2233 C2231 1.419 . S
C2233 C2234 1.362 . S
C2234 H2226 0.930 . S
C2234 C2233 1.362 . S
C2234 C2237 1.409 . S
C2235 H2227 0.930 . S
C2235 C2236 1.355 . S
C2235 C2237 1.415 . S
C2236 C2235 1.355 . S
C2236 C2238 1.419 . S
C2237 C2232 1.425 . S
C2237 C2234 1.409 . S
C2237 C2235 1.415 . S
C2238 H2228 0.930 . S
C2238 C2236 1.419 . S
C2238 C2239 1.362 . S
C2239 H2229 0.930 . S
C2239 C2232 1.409 . S
C2239 C2238 1.362 . S
H2240 C2246 0.930 . S
H2241 C2249 0.930 . S
H2242 C2250 0.930 . S
H2243 C2251 0.930 . S
H2244 C2254 0.930 . S
H2245 C2255 0.930 . S
C2246 H2240 0.930 . S
C2246 C2247 1.355 . S
C2246 C2248 1.415 . S
C2247 C2246 1.355 . S
C2247 C2249 1.419 . S
C2248 C2246 1.415 . S
C2248 C2253 1.425 . S
C2248 C2255 1.409 . S
C2249 H2241 0.930 . S
C2249 C2247 1.419 . S
C2249 C2250 1.362 . S
C2250 H2242 0.930 . S
C2250 C2249 1.362 . S
C2250 C2253 1.409 . S
C2251 H2243 0.930 . S
C2251 C2252 1.355 . S
C2251 C2253 1.415 . S
C2252 C2251 1.355 . S
C2252 C2254 1.419 . S
C2253 C2248 1.425 . S
C2253 C2250 1.409 . S
C2253 C2251 1.415 . S
C2254 H2244 0.930 . S
C2254 C2252 1.419 . S
C2254 C2255 1.362 . S
C2255 H2245 0.930 . S
C2255 C2248 1.409 . S
C2255 C2254 1.362 . S
H2256 C2262 0.930 . S
H2257 C2265 0.930 . S
H2258 C2266 0.930 . S
H2259 C2267 0.930 . S
H2260 C2270 0.930 . S
H2261 C2271 0.930 1_545 S
C2262 H2256 0.930 . S
C2262 C2263 1.355 . S
C2262 C2264 1.415 . S
C2263 C2262 1.355 . S
C2263 C2265 1.419 . S
C2264 C2262 1.415 . S
C2264 C2269 1.425 . S
C2264 C2271 1.409 . S
C2265 H2257 0.930 . S
C2265 C2263 1.419 . S
C2265 C2266 1.362 . S
C2266 H2258 0.930 . S
C2266 C2265 1.362 . S
C2266 C2269 1.409 . S
C2267 H2259 0.930 . S
C2267 C2268 1.355 . S
C2267 C2269 1.415 . S
C2268 C2267 1.355 . S
C2268 C2270 1.419 1_565 S
C2269 C2264 1.425 . S
C2269 C2266 1.409 . S
C2269 C2267 1.415 . S
C2270 H2260 0.930 . S
C2270 C2268 1.419 1_545 S
C2270 C2271 1.362 1_545 S
C2271 H2261 0.930 1_565 S
C2271 C2264 1.409 . S
C2271 C2270 1.362 1_565 S
H2272 C2278 0.930 . S
H2273 C2281 0.930 . S
H2274 C2282 0.930 . S
H2275 C2283 0.930 . S
H2276 C2286 0.930 . S
H2277 C2287 0.930 . S
C2278 H2272 0.930 . S
C2278 C2279 1.355 . S
C2278 C2280 1.415 . S
C2279 C2278 1.355 . S
C2279 C2281 1.419 . S
C2280 C2278 1.415 . S
C2280 C2285 1.425 . S
C2280 C2287 1.409 . S
C2281 H2273 0.930 . S
C2281 C2279 1.419 . S
C2281 C2282 1.362 . S
C2282 H2274 0.930 . S
C2282 C2281 1.362 . S
C2282 C2285 1.409 . S
C2283 H2275 0.930 . S
C2283 C2284 1.355 . S
C2283 C2285 1.415 . S
C2284 C2283 1.355 . S
C2284 C2286 1.419 . S
C2285 C2280 1.425 . S
C2285 C2282 1.409 . S
C2285 C2283 1.415 . S
C2286 H2276 0.930 . S
C2286 C2284 1.419 . S
C2286 C2287 1.362 . S
C2287 H2277 0.930 . S
C2287 C2280 1.409 . S
C2287 C2286 1.362 . S
H2288 C2294 0.930 . S
H2289 C2297 0.930 . S
H2290 C2298 0.930 . S
H2291 C2299 0.930 . S
H2292 C2302 0.930 . S
H2293 C2303 0.930 . S
C2294 H2288 0.930 . S
C2294 C2295 1.355 . S
C2294 C2296 1.415 . S
C2295 C2294 1.355 . S
C2295 C2297 1.419 . S
C2296 C2294 1.415 . S
C2296 C2301 1.425 . S
C2296 C2303 1.409 . S
C2297 H2289 0.930 . S
C2297 C2295 1.419 . S
C2297 C2298 1.362 . S
C2298 H2290 0.930 . S
C2298 C2297 1.362 . S
C2298 C2301 1.409 . S
C2299 H2291 0.930 . S
C2299 C2300 1.355 . S
C2299 C2301 1.415 . S
C2300 C2299 1.355 . S
C2300 C2302 1.419 . S
C2301 C2296 1.425 . S
C2301 C2298 1.409 . S
C2301 C2299 1.415 . S
C2302 H2292 0.930 . S
C2302 C2300 1.419 . S
C2302 C2303 1.362 . S
C2303 H2293 0.930 . S
C2303 C2296 1.409 . S
C2303 C2302 1.362 . S
H2304 C2310 0.930 . S
H2305 C2313 0.930 . S
H2306 C2314 0.930 . S
H2307 C2315 0.930 . S
H2308 C2318 0.930 . S
H2309 C2319 0.930 . S
C2310 H2304 0.930 . S
C2310 C2311 1.355 . S
C2310 C2312 1.415 . S
C2311 C2310 1.355 . S
C2311 C2313 1.419 . S
C2312 C2310 1.415 . S
C2312 C2317 1.425 . S
C2312 C2319 1.409 . S
C2313 H2305 0.930 . S
C2313 C2311 1.419 . S
C2313 C2314 1.362 . S
C2314 H2306 0.930 . S
C2314 C2313 1.362 . S
C2314 C2317 1.409 . S
C2315 H2307 0.930 . S
C2315 C2316 1.355 . S
C2315 C2317 1.415 . S
C2316 C2315 1.355 . S
C2316 C2318 1.419 . S
C2317 C2312 1.425 . S
C2317 C2314 1.409 . S
C2317 C2315 1.415 . S
C2318 H2308 0.930 . S
C2318 C2316 1.419 . S
C2318 C2319 1.362 . S
C2319 H2309 0.930 . S
C2319 C2312 1.409 . S
C2319 C2318 1.362 . S
H2320 C2326 0.930 . S
H2321 C2329 0.930 . S
H2322 C2330 0.930 . S
H2323 C2331 0.930 . S
H2324 C2334 0.930 . S
H2325 C2335 0.930 1_565 S
C2326 H2320 0.930 . S
C2326 C2327 1.355 . S
C2326 C2328 1.415 . S
C2327 C2326 1.355 . S
C2327 C2329 1.419 . S
C2328 C2326 1.415 . S
C2328 C2333 1.425 . S
C2328 C2335 1.409 . S
C2329 H2321 0.930 . S
C2329 C2327 1.419 . S
C2329 C2330 1.362 . S
C2330 H2322 0.930 . S
C2330 C2329 1.362 . S
C2330 C2333 1.409 . S
C2331 H2323 0.930 . S
C2331 C2332 1.355 . S
C2331 C2333 1.415 . S
C2332 C2331 1.355 . S
C2332 C2334 1.419 1_545 S
C2333 C2328 1.425 . S
C2333 C2330 1.409 . S
C2333 C2331 1.415 . S
C2334 H2324 0.930 . S
C2334 C2332 1.419 1_565 S
C2334 C2335 1.362 1_565 S
C2335 H2325 0.930 1_545 S
C2335 C2328 1.409 . S
C2335 C2334 1.362 1_545 S
C1063 C17 1.549 . S
C1068 C83 1.514 . S
C1079 C50 1.548 . S
C1084 C116 1.550 . S
C1095 C149 1.550 . S
C1100 C215 1.515 . S
C1111 C248 1.521 . S
C1116 C182 1.529 . S
C1127 C347 1.516 . S
C1132 C281 1.554 . S
C1143 C380 1.515 . S
C1148 C314 1.552 . S
C1159 C413 1.560 . S
C1164 C479 1.528 . S
C1175 C512 1.556 . S
C1180 C446 1.518 . S
C1191 C611 1.556 . S
C1196 C545 1.518 . S
C1207 C578 1.552 . S
C1212 C644 1.515 . S
C1223 C677 1.519 . S
C1228 C743 1.557 . S
C1239 C776 1.516 . S
C1244 C710 1.537 . S
C1255 C875 1.527 . S
C1260 C809 1.522 . S
C1271 C842 1.535 . S
C1276 C908 1.558 . S
C1287 C1007 1.545 . S
C1292 C941 1.514 . S
C1303 C1040 1.547 . S
C1308 C974 1.551 . S
C1319 C160 1.243 . S
C1324 C28 1.243 . S
C1335 C61 1.302 . S
C1340 C985 1.302 . S
C1351 C94 1.229 . S
C1356 C490 1.229 . S
C1367 C127 1.228 . S
C1372 C787 1.228 . S
C1383 C193 1.228 . S
C1388 C853 1.228 . S
C1399 C358 1.244 . S
C1404 C226 1.244 . S
C1415 C655 1.305 . S
C1420 C259 1.305 . S
C1431 C292 1.277 . S
C1436 C424 1.277 . S
C1447 C721 1.244 . S
C1452 C325 1.244 . S
C1463 C1051 1.262 . S
C1468 C391 1.262 . S
C1479 C589 1.300 . S
C1484 C457 1.300 . S
C1495 C919 1.231 . S
C1500 C523 1.231 . S
C1511 C688 1.240 . S
C1516 C556 1.240 . S
C1527 C622 1.236 . S
C1532 C1018 1.236 . S
C1543 C754 1.296 . S
C1548 C886 1.296 . S
C1559 C952 1.305 . S
C1564 C820 1.305 . S
C1575 N5 1.253 . S
C1580 N14 1.257 . S
C1591 N47 1.245 . S
C1596 N38 1.249 . S
C1607 N80 1.255 . S
C1612 N71 1.252 . S
C1623 N113 1.252 . S
C1628 N104 1.251 . S
C1639 N137 1.248 . S
C1644 N146 1.242 . S
C1655 N179 1.256 . S
C1660 N170 1.253 . S
C1671 N203 1.253 . S
C1676 N212 1.255 . S
C1687 N236 1.253 . S
C1692 N245 1.256 . S
C1703 N269 1.253 . S
C1708 N278 1.256 1_545 S
C1719 N302 1.249 . S
C1724 N311 1.244 . S
C1735 N335 1.249 . S
C1740 N344 1.246 . S
C1751 N377 1.255 1_545 S
C1756 N368 1.253 . S
C1767 N401 1.253 . S
C1772 N410 1.255 1_565 S
C1783 N434 1.248 . S
C1788 N443 1.243 . S
C1799 N467 1.251 . S
C1804 N476 1.251 . S
C1815 N500 1.251 . S
C1820 N509 1.250 1_565 S
C1831 N542 1.247 . S
C1836 N533 1.250 . S
C1847 N566 1.250 . S
C1852 N575 1.246 . S
C1863 N599 1.252 . S
C1868 N608 1.255 . S
C1879 N632 1.253 . S
C1884 N641 1.256 . S
C1895 N665 1.250 . S
C1900 N674 1.248 . S
C1911 N698 1.251 . S
C1916 N707 1.249 . S
C1927 N740 1.256 . S
C1932 N731 1.253 . S
C1943 N764 1.249 . S
C1948 N773 1.246 . S
C1959 N806 1.247 1_545 S
C1964 N797 1.250 . S
C1975 N830 1.253 . S
C1980 N839 1.256 . S
C1991 N863 1.253 . S
C1996 N872 1.257 . S
C2007 N896 1.248 . S
C2012 N905 1.243 1_545 S
C2023 N938 1.249 1_565 S
C2028 N929 1.250 . S
C2039 N971 1.245 . S
C2044 N962 1.249 . S
C2055 N1004 1.257 . S
C2060 N995 1.253 . S
C2071 N1037 1.256 1_565 S
C2076 N1028 1.253 . S
C2087 C833 1.519 . S
C2092 C8 1.531 . S
C2103 C41 1.524 . S
C2108 C800 1.529 . S
C2119 C899 1.517 . S
C2124 C74 1.489 . S
C2135 C107 1.490 . S
C2140 C866 1.523 . S
C2151 C965 1.503 . S
C2156 C140 1.493 . S
C2167 C173 1.491 . S
C2172 C932 1.524 . S
C2183 C1031 1.492 . S
C2188 C206 1.504 . S
C2199 C998 1.520 . S
C2204 C239 1.489 . S
C2215 C272 1.497 . S
C2220 C569 1.532 . S
C2231 C305 1.493 . S
C2236 C536 1.503 . S
C2247 C635 1.522 . S
C2252 C338 1.529 . S
C2263 C371 1.510 . S
C2268 C602 1.534 . S
C2279 C701 1.505 . S
C2284 C404 1.534 . S
C2295 C668 1.497 . S
C2300 C437 1.497 . S
C2311 C470 1.495 . S
C2316 C767 1.499 . S
C2327 C503 1.534 . S
C2332 C734 1.511 . S
