# Generated by pormake.
# Topology unj, (4)-cn, num edge types: 1
# Building blocks:
#     Node 0, Type 0, BuildingBlock: TATPOV_clean_sbu_0, # of connection points: 4
#     Node 1, Type 0, BuildingBlock: TATPOV_clean_sbu_0, # of connection points: 4
#     Node 2, Type 0, BuildingBlock: TATPOV_clean_sbu_0, # of connection points: 4
#     Node 3, Type 0, BuildingBlock: TATPOV_clean_sbu_0, # of connection points: 4
#     Node 4, Type 0, BuildingBlock: TATPOV_clean_sbu_0, # of connection points: 4
#     Node 5, Type 0, BuildingBlock: TATPOV_clean_sbu_0, # of connection points: 4
#     Edge 6, Type (0, 0), BuildingBlock: UVAHIK_clean_linker_0, # of connection points: 2
#     Edge 7, Type (0, 0), BuildingBlock: UVAHIK_clean_linker_0, # of connection points: 2
#     Edge 8, Type (0, 0), BuildingBlock: UVAHIK_clean_linker_0, # of connection points: 2
#     Edge 9, Type (0, 0), BuildingBlock: UVAHIK_clean_linker_0, # of connection points: 2
#     Edge 10, Type (0, 0), BuildingBlock: UVAHIK_clean_linker_0, # of connection points: 2
#     Edge 11, Type (0, 0), BuildingBlock: UVAHIK_clean_linker_0, # of connection points: 2
#     Edge 12, Type (0, 0), BuildingBlock: UVAHIK_clean_linker_0, # of connection points: 2
#     Edge 13, Type (0, 0), BuildingBlock: UVAHIK_clean_linker_0, # of connection points: 2
#     Edge 14, Type (0, 0), BuildingBlock: UVAHIK_clean_linker_0, # of connection points: 2
#     Edge 15, Type (0, 0), BuildingBlock: UVAHIK_clean_linker_0, # of connection points: 2
#     Edge 16, Type (0, 0), BuildingBlock: UVAHIK_clean_linker_0, # of connection points: 2
#     Edge 17, Type (0, 0), BuildingBlock: UVAHIK_clean_linker_0, # of connection points: 2
# Relax obj value: 0.021
# Max RMSD: 0.060
# Mean RMSD: 0.060
data_MOF--net-unj--node1-TATPOV_clean_sbu_0--edge1-UVAHIK_clean_linker_0
_symmetry_space_group_name_H-M    P1
_symmetry_Int_Tables_number       1
_symmetry_cell_setting            triclinic
loop_
_symmetry_equiv_pos_as_xyz
'x, y, z'
_cell_length_a     43.927595
_cell_length_b     43.945792
_cell_length_c     45.19572
_cell_angle_alpha  89.822658
_cell_angle_beta   90.131553
_cell_angle_gamma 120.05781
loop_
_atom_site_label
_atom_site_type_symbol
_atom_site_fract_x
_atom_site_fract_y
_atom_site_fract_z
_atom_type_partial_charge
Zn0 Zn 0.40798 0.15511 0.62365 0.0
Zn1 Zn 0.45804 0.19684 0.58624 0.0
O2 O 0.42846 0.22087 0.59123 0.0
O3 O 0.38314 0.18269 0.61755 0.0
O4 O 0.49379 0.22804 0.55612 0.0
O5 O 0.39538 0.11324 0.59837 0.0
O6 O 0.4331 0.1486 0.56508 0.0
C7 C 0.39888 0.21134 0.60334 0.0
C8 C 0.4771 0.18831 0.64969 0.0
O9 O 0.48684 0.2004 0.62359 0.0
O10 O 0.4447 0.16899 0.65546 0.0
C11 C 0.51132 0.26107 0.56012 0.0
O12 O 0.50716 0.27413 0.5849 0.0
C13 C 0.4095 0.1179 0.57316 0.0
Zn14 Zn 0.24139 0.41703 0.79626 0.0
Zn15 Zn 0.25567 0.46856 0.75714 0.0
O16 O 0.20216 0.44428 0.76258 0.0
O17 O 0.18943 0.39954 0.79208 0.0
O18 O 0.26393 0.50474 0.72609 0.0
O19 O 0.26447 0.39803 0.7697 0.0
O20 O 0.27372 0.43875 0.73675 0.0
C21 C 0.1796 0.41705 0.7765 0.0
C22 C 0.28593 0.48688 0.81979 0.0
O23 O 0.28344 0.49669 0.79374 0.0
O24 O 0.27024 0.45447 0.82629 0.0
C25 C 0.25108 0.52475 0.72939 0.0
O26 O 0.23459 0.52298 0.75413 0.0
C27 C 0.27582 0.41199 0.74461 0.0
Zn28 Zn 0.82104 0.25627 0.95516 0.0
Zn29 Zn 0.77777 0.26598 0.91921 0.0
O30 O 0.75427 0.21246 0.9232 0.0
O31 O 0.79157 0.20364 0.94918 0.0
O32 O 0.7461 0.27105 0.88995 0.0
O33 O 0.86188 0.28608 0.9283 0.0
O34 O 0.82529 0.29047 0.89757 0.0
C35 C 0.7629 0.19155 0.93506 0.0
C36 C 0.78821 0.29211 0.98292 0.0
O37 O 0.77497 0.28994 0.95734 0.0
O38 O 0.80806 0.27934 0.98751 0.0
C39 C 0.71297 0.25442 0.89354 0.0
O40 O 0.69979 0.23572 0.91773 0.0
C41 C 0.8562 0.29702 0.90413 0.0
Zn42 Zn 0.57382 0.83292 0.12185 0.0
Zn43 Zn 0.52177 0.78932 0.08512 0.0
O44 O 0.5508 0.76518 0.09145 0.0
O45 O 0.59603 0.80226 0.11836 0.0
O46 O 0.48568 0.75746 0.05557 0.0
O47 O 0.58683 0.87317 0.09365 0.0
O48 O 0.54639 0.8364 0.06271 0.0
C49 C 0.5796 0.77343 0.10452 0.0
C50 C 0.50398 0.80167 0.1476 0.0
O51 O 0.49383 0.7877 0.12214 0.0
O52 O 0.53647 0.82148 0.15287 0.0
C53 C 0.46897 0.72436 0.05935 0.0
O54 O 0.47395 0.71124 0.08385 0.0
C55 C 0.57106 0.86723 0.06904 0.0
Zn56 Zn 0.7362 0.56918 0.29497 0.0
Zn57 Zn 0.7235 0.5166 0.25719 0.0
O58 O 0.77695 0.54291 0.26214 0.0
O59 O 0.78863 0.58831 0.2902 0.0
O60 O 0.71621 0.47996 0.22718 0.0
O61 O 0.71038 0.58498 0.26762 0.0
O62 O 0.70337 0.54401 0.2359 0.0
C63 C 0.79911 0.57096 0.27526 0.0
C64 C 0.69447 0.49933 0.32019 0.0
O65 O 0.69696 0.48912 0.29438 0.0
O66 O 0.70915 0.53188 0.32592 0.0
C67 C 0.73045 0.4612 0.2308 0.0
O68 O 0.74794 0.46449 0.25534 0.0
C69 C 0.69943 0.56987 0.2429 0.0
Zn70 Zn 0.15652 0.72559 0.4521 0.0
Zn71 Zn 0.20193 0.72012 0.4167 0.0
O72 O 0.22328 0.77339 0.42166 0.0
O73 O 0.18261 0.77826 0.44602 0.0
O74 O 0.23503 0.71749 0.3876 0.0
O75 O 0.11624 0.69425 0.42555 0.0
O76 O 0.15474 0.69473 0.39419 0.0
C77 C 0.21203 0.79242 0.43293 0.0
C78 C 0.19214 0.69284 0.48017 0.0
O79 O 0.20548 0.69573 0.45456 0.0
O80 O 0.1713 0.70438 0.48479 0.0
C81 C 0.26812 0.73584 0.39104 0.0
O82 O 0.28065 0.75503 0.41502 0.0
C83 C 0.12314 0.68561 0.40087 0.0
C84 C 0.37608 0.05346 0.5642 0.0
C85 C 0.39647 0.08763 0.55283 0.0
C86 C 0.3593 0.02483 0.54527 0.0
C87 C 0.30477 0.97701 0.50212 0.0
H88 H 0.34547 0.95501 0.4353 0.0
C89 C 0.21963 0.85231 0.43786 0.0
C90 C 0.23466 0.831 0.43373 0.0
C91 C 0.24081 0.88791 0.4444 0.0
C92 C 0.33374 0.96092 0.45384 0.0
H93 H 0.4171 0.11838 0.51268 0.0
H94 H 0.38722 0.06779 0.47929 0.0
H95 H 0.38173 0.00855 0.46413 0.0
H96 H 0.28373 0.83065 0.4308 0.0
H97 H 0.3207 0.89256 0.44347 0.0
H98 H 0.2575 0.92919 0.49322 0.0
C99 C 0.38441 0.06344 0.50297 0.0
C100 C 0.35442 0.99163 0.47017 0.0
C101 C 0.40145 0.09232 0.52206 0.0
C102 C 0.27146 0.8465 0.43397 0.0
C103 C 0.29266 0.88207 0.44108 0.0
C104 C 0.28424 0.94656 0.48594 0.0
C105 C 0.36227 0.02961 0.51447 0.0
C106 C 0.34028 -0.00061 0.49495 0.0
C107 C 0.2774 0.90278 0.44765 0.0
C108 C 0.29855 0.93771 0.46192 0.0
H109 H 0.3722 0.04886 0.58782 0.0
H110 H 0.34314 -0.00109 0.55478 0.0
H111 H 0.29297 0.98266 0.52079 0.0
H112 H 0.19135 0.84113 0.43726 0.0
H113 H 0.22829 0.90337 0.44844 0.0
C114 C 0.34767 0.22084 0.60496 0.0
C115 C 0.38419 0.23497 0.60361 0.0
C116 C 0.33365 0.2424 0.61121 0.0
C117 C 0.31479 0.28301 0.65258 0.0
H118 H 0.35886 0.3835 0.63927 0.0
C119 C 0.29682 0.3698 0.73488 0.0
C120 C 0.29011 0.39595 0.72428 0.0
C121 C 0.30752 0.35229 0.71568 0.0
C122 C 0.34599 0.35537 0.64287 0.0
H123 H 0.43473 0.28291 0.60547 0.0
H124 H 0.41046 0.32044 0.61796 0.0
H125 H 0.37699 0.34867 0.60973 0.0
H126 H 0.29067 0.42517 0.6853 0.0
H127 H 0.30917 0.394 0.65145 0.0
H128 H 0.28381 0.28945 0.68552 0.0
C129 C 0.39244 0.29293 0.61342 0.0
C130 C 0.35656 0.33547 0.62616 0.0
C131 C 0.40643 0.27142 0.60641 0.0
C132 C 0.29558 0.40508 0.69411 0.0
C133 C 0.30622 0.38732 0.67475 0.0
C134 C 0.30417 0.30275 0.66903 0.0
C135 C 0.35592 0.27837 0.61719 0.0
C136 C 0.34163 0.29913 0.63133 0.0
C137 C 0.31155 0.36022 0.68531 0.0
C138 C 0.32036 0.33928 0.66505 0.0
H139 H 0.32997 0.19284 0.60237 0.0
H140 H 0.30536 0.23047 0.61292 0.0
H141 H 0.30296 0.25528 0.65766 0.0
H142 H 0.29336 0.36245 0.75805 0.0
H143 H 0.31235 0.3322 0.72465 0.0
C144 C 0.92026 0.33466 0.89418 0.0
C145 C 0.88561 0.31677 0.88344 0.0
C146 C 0.94851 0.35127 0.87471 0.0
C147 C 0.97489 0.34143 0.80231 0.0
H148 H 0.05721 0.43171 0.81945 0.0
C149 C 0.13203 0.4321 0.76987 0.0
C150 C 0.14213 0.40709 0.77636 0.0
C151 C 0.09722 0.42398 0.77416 0.0
C152 C 0.03423 0.40681 0.81387 0.0
H153 H 0.8532 0.30289 0.84399 0.0
H154 H 0.90309 0.3312 0.80965 0.0
H155 H 0.00197 0.4144 0.84503 0.0
H156 H 0.12335 0.35327 0.79015 0.0
H157 H 0.06271 0.33903 0.79729 0.0
H158 H 0.00783 0.33287 0.77261 0.0
C159 C 0.90811 0.33266 0.83323 0.0
C160 C 0.00274 0.39685 0.82865 0.0
C161 C 0.87969 0.31658 0.85283 0.0
C162 C 0.11639 0.37315 0.7852 0.0
C163 C 0.08159 0.3649 0.78903 0.0
C164 C 0.00654 0.35123 0.78778 0.0
C165 C 0.94275 0.34987 0.84405 0.0
C166 C 0.9732 0.36356 0.8238 0.0
C167 C 0.07189 0.39054 0.78445 0.0
C168 C 0.03681 0.38347 0.79425 0.0
H169 H 0.92559 0.3354 0.91766 0.0
H170 H 0.97498 0.36396 0.88359 0.0
H171 H 0.9525 0.31555 0.7983 0.0
H172 H 0.15133 0.45847 0.76298 0.0
H173 H 0.09035 0.44417 0.77041 0.0
C174 C 0.57668 0.8899 0.01716 0.0
C175 C 0.58173 0.89632 0.04774 0.0
C176 C 0.58921 0.91799 0.99712 0.0
C177 C 0.61598 0.01118 0.99076 0.0
H178 H 0.68719 0.0195 0.93546 0.0
C179 C 0.74907 0.12979 0.94415 0.0
C180 C 0.73795 0.15327 0.93503 0.0
C181 C 0.72461 0.09435 0.94881 0.0
C182 C 0.66696 0.01727 0.95045 0.0
H183 H 0.60241 0.93685 0.08141 0.0
H184 H 0.62345 0.98564 0.04655 0.0
H185 H 0.65177 0.96428 0.96244 0.0
H186 H 0.69274 0.15755 0.92168 0.0
H187 H 0.64992 0.09558 0.93037 0.0
H188 H 0.63219 0.06457 0.98002 0.0
C189 C 0.61011 0.95903 0.03805 0.0
C190 C 0.64661 0.98569 0.96571 0.0
C191 C 0.59832 0.93113 0.05796 0.0
C192 C 0.70212 0.14014 0.92882 0.0
C193 C 0.67759 0.10472 0.93385 0.0
C194 C 0.63596 0.04253 0.97525 0.0
C195 C 0.60611 0.95276 0.00747 0.0
C196 C 0.62195 0.98292 0.98683 0.0
C197 C 0.68852 0.08175 0.94473 0.0
C198 C 0.66256 0.04633 0.9558 0.0
H199 H 0.56405 0.86329 0.00871 0.0
H200 H 0.58595 0.9126 0.9736 0.0
H201 H 0.59699 0.00954 0.00687 0.0
H202 H 0.77652 0.13907 0.9489 0.0
H203 H 0.73378 0.07733 0.95745 0.0
C204 C 0.66669 0.60152 0.23283 0.0
C205 C 0.68257 0.58286 0.2221 0.0
C206 C 0.65214 0.61539 0.21332 0.0
C207 C 0.66347 0.65304 0.14117 0.0
H208 H 0.57171 0.64283 0.15524 0.0
C209 C 0.56886 0.71203 0.10055 0.0
C210 C 0.59208 0.74787 0.1062 0.0
C211 C 0.57875 0.68706 0.10702 0.0
C212 C 0.59711 0.64547 0.15062 0.0
H213 H 0.69545 0.56378 0.18257 0.0
H214 H 0.67081 0.58924 0.14821 0.0
H215 H 0.58939 0.60617 0.18262 0.0
H216 H 0.64475 0.7859 0.12073 0.0
H217 H 0.66209 0.74233 0.13167 0.0
H218 H 0.67201 0.6939 0.11046 0.0
C219 C 0.66929 0.59254 0.17181 0.0
C220 C 0.60727 0.62468 0.16641 0.0
C221 C 0.68324 0.57796 0.19142 0.0
C222 C 0.62621 0.75846 0.11635 0.0
C223 C 0.63623 0.73355 0.12241 0.0
C224 C 0.65352 0.67426 0.12567 0.0
C225 C 0.65371 0.61143 0.18266 0.0
C226 C 0.64085 0.62895 0.16238 0.0
C227 C 0.61219 0.69754 0.11876 0.0
C228 C 0.62058 0.67125 0.13083 0.0
H229 H 0.66568 0.60558 0.25636 0.0
H230 H 0.64058 0.63019 0.22218 0.0
H231 H 0.68959 0.6569 0.13784 0.0
H232 H 0.5424 0.70304 0.09267 0.0
H233 H 0.55982 0.65945 0.10387 0.0
C234 C 0.05978 0.64537 0.38997 0.0
C235 C 0.09432 0.66623 0.37958 0.0
C236 C 0.0317 0.63006 0.37021 0.0
C237 C 0.00454 0.64816 0.30087 0.0
H238 H 0.92357 0.55521 0.31234 0.0
C239 C 0.84785 0.55811 0.26648 0.0
C240 C 0.83687 0.58184 0.27509 0.0
C241 C 0.88283 0.56663 0.27034 0.0
C242 C 0.94616 0.58098 0.30832 0.0
H243 H 0.12681 0.68651 0.34037 0.0
H244 H 0.07716 0.66037 0.30559 0.0
H245 H 0.97914 0.57062 0.3366 0.0
H246 H 0.85441 0.63402 0.29244 0.0
H247 H 0.91535 0.64889 0.29903 0.0
H248 H 0.97092 0.65921 0.27404 0.0
C249 C 0.07211 0.65563 0.32908 0.0
C250 C 0.97786 0.58983 0.32236 0.0
C251 C 0.10041 0.67044 0.34892 0.0
C252 C 0.862 0.61508 0.2858 0.0
C253 C 0.89699 0.62372 0.28933 0.0
C254 C 0.9727 0.63942 0.28706 0.0
C255 C 0.03748 0.63574 0.33964 0.0
C256 C 0.00693 0.62389 0.31962 0.0
C257 C 0.90753 0.5992 0.28248 0.0
C258 C 0.94288 0.60616 0.29154 0.0
H259 H 0.05437 0.64156 0.41348 0.0
H260 H 0.00524 0.61521 0.37897 0.0
H261 H 0.02653 0.67467 0.29854 0.0
H262 H 0.82913 0.53231 0.25806 0.0
H263 H 0.89033 0.54733 0.26474 0.0
C264 C 0.55068 0.32136 0.53965 0.0
C265 C 0.53337 0.28471 0.53603 0.0
C266 C 0.569 0.34376 0.51612 0.0
C267 C 0.60907 0.34788 0.44324 0.0
H268 H 0.59501 0.42735 0.43088 0.0
C269 C 0.65971 0.43714 0.33902 0.0
C270 C 0.67513 0.47348 0.34396 0.0
C271 C 0.64218 0.41313 0.36193 0.0
C272 C 0.5995 0.40549 0.43417 0.0
H273 H 0.52273 0.24282 0.50511 0.0
H274 H 0.55458 0.28197 0.46401 0.0
H275 H 0.56637 0.38774 0.47234 0.0
H276 H 0.68423 0.51302 0.37694 0.0
H277 H 0.65409 0.47138 0.41666 0.0
H278 H 0.64233 0.36581 0.405 0.0
C279 C 0.55414 0.29338 0.4851 0.0
C280 C 0.58313 0.38281 0.45798 0.0
C281 C 0.53576 0.27095 0.50864 0.0
C282 C 0.67254 0.48523 0.37225 0.0
C283 C 0.65506 0.46132 0.39504 0.0
C284 C 0.62552 0.37064 0.41939 0.0
C285 C 0.57047 0.33003 0.48844 0.0
C286 C 0.5879 0.35389 0.46293 0.0
C287 C 0.63963 0.425 0.39019 0.0
C288 C 0.62111 0.39985 0.41472 0.0
H289 H 0.54955 0.33284 0.5605 0.0
H290 H 0.58185 0.37189 0.51956 0.0
H291 H 0.61347 0.32597 0.4466 0.0
H292 H 0.66125 0.42721 0.3175 0.0
H293 H 0.63029 0.38528 0.35743 0.0
C294 C 0.18767 0.67582 0.53342 0.0
C295 C 0.20088 0.67642 0.50498 0.0
C296 C 0.19539 0.66041 0.55708 0.0
C297 C 0.25714 0.63223 0.58303 0.0
H298 H 0.18189 0.57713 0.63845 0.0
C299 C 0.26631 0.54658 0.67713 0.0
C300 C 0.25089 0.54651 0.7044 0.0
C301 C 0.26282 0.56413 0.65264 0.0
C302 C 0.2033 0.59278 0.62338 0.0
H303 H 0.23298 0.66155 0.47924 0.0
H304 H 0.24612 0.63402 0.52076 0.0
H305 H 0.17021 0.60305 0.59542 0.0
H306 H 0.22113 0.5662 0.72766 0.0
H307 H 0.21526 0.59693 0.68503 0.0
H308 H 0.29011 0.62152 0.61112 0.0
C309 C 0.23003 0.64589 0.52465 0.0
C310 C 0.19661 0.60762 0.59868 0.0
C311 C 0.22234 0.66146 0.50085 0.0
C312 C 0.23314 0.56552 0.70695 0.0
C313 C 0.22957 0.58296 0.68247 0.0
C314 C 0.26382 0.61722 0.60778 0.0
C315 C 0.21639 0.64499 0.553 0.0
C316 C 0.2235 0.62786 0.57837 0.0
C317 C 0.24374 0.58185 0.6549 0.0
C318 C 0.23702 0.59765 0.62838 0.0
H319 H 0.17133 0.68736 0.53754 0.0
H320 H 0.18505 0.66085 0.57871 0.0
H321 H 0.27849 0.64793 0.56794 0.0
H322 H 0.28023 0.53224 0.67443 0.0
H323 H 0.2739 0.56269 0.63166 0.0
C324 C 0.70361 0.26993 0.84218 0.0
C325 C 0.68953 0.2527 0.86923 0.0
C326 C 0.68156 0.26529 0.81818 0.0
C327 C 0.59434 0.20134 0.78924 0.0
H328 H 0.60838 0.27656 0.73585 0.0
C329 C 0.49155 0.18258 0.70213 0.0
C330 C 0.50312 0.19686 0.67374 0.0
C331 C 0.51545 0.19054 0.72519 0.0
C332 C 0.60443 0.25523 0.75036 0.0
H333 H 0.64113 0.21839 0.89268 0.0
H334 H 0.6027 0.21063 0.85096 0.0
H335 H 0.64749 0.28948 0.7784 0.0
H336 H 0.54906 0.23095 0.6474 0.0
H337 H 0.5911 0.2447 0.68792 0.0
H338 H 0.55143 0.16707 0.76138 0.0
C339 C 0.63084 0.22721 0.84813 0.0
C340 C 0.62675 0.26264 0.77476 0.0
C341 C 0.65286 0.23186 0.87211 0.0
C342 C 0.53931 0.21946 0.66899 0.0
C343 C 0.56334 0.2275 0.69222 0.0
C344 C 0.57213 0.19396 0.76493 0.0
C345 C 0.64497 0.24329 0.82073 0.0
C346 C 0.62169 0.2358 0.79462 0.0
C347 C 0.55161 0.21296 0.72054 0.0
C348 C 0.57666 0.22084 0.74537 0.0
H349 H 0.73177 0.28622 0.83922 0.0
H350 H 0.69328 0.27789 0.79733 0.0
H351 H 0.59026 0.17992 0.8037 0.0
H352 H 0.46388 0.16523 0.7067 0.0
H353 H 0.50547 0.17939 0.74684 0.0
C354 C 0.31002 0.50152 0.87116 0.0
C355 C 0.30628 0.513 0.84302 0.0
C356 C 0.32804 0.5256 0.89363 0.0
C357 C 0.35599 0.61554 0.91808 0.0
H358 H 0.41737 0.60004 0.97 0.0
C359 C 0.44406 0.71483 0.00803 0.0
C360 C 0.4472 0.70084 0.03515 0.0
C361 C 0.42614 0.69267 0.98429 0.0
C362 C 0.4 0.60451 0.95592 0.0
H363 H 0.3188 0.55899 0.81643 0.0
H364 H 0.35064 0.60128 0.85587 0.0
H365 H 0.38916 0.56077 0.92836 0.0
H366 H 0.43282 0.65253 0.05893 0.0
H367 H 0.40126 0.61391 0.01764 0.0
H368 H 0.36687 0.65932 0.94581 0.0
C369 C 0.33927 0.57348 0.86046 0.0
C370 C 0.3839 0.58206 0.93201 0.0
C371 C 0.32125 0.54928 0.83784 0.0
C372 C 0.43107 0.66418 0.0383 0.0
C373 C 0.41319 0.64205 0.01457 0.0
C374 C 0.37215 0.63807 0.94206 0.0
C375 C 0.34282 0.56184 0.88862 0.0
C376 C 0.36144 0.58708 0.91297 0.0
C377 C 0.41102 0.65606 0.98715 0.0
C378 C 0.39408 0.63258 0.9614 0.0
H379 H 0.29876 0.47378 0.87601 0.0
H380 H 0.32981 0.51572 0.91517 0.0
H381 H 0.33852 0.61986 0.904 0.0
H382 H 0.45619 0.74297 0.00486 0.0
H383 H 0.42513 0.7043 0.96341 0.0
C384 C 0.79433 0.31003 0.03598 0.0
C385 C 0.78028 0.30896 0.00776 0.0
C386 C 0.78699 0.32549 0.0597 0.0
C387 C 0.72455 0.35214 0.08635 0.0
H388 H 0.80048 0.40913 0.14061 0.0
C389 C 0.71458 0.43782 0.17911 0.0
C390 C 0.73095 0.43922 0.20627 0.0
C391 C 0.71822 0.4201 0.15496 0.0
C392 C 0.77887 0.39293 0.12589 0.0
H393 H 0.74725 0.32321 0.98244 0.0
H394 H 0.73472 0.35075 0.02404 0.0
H395 H 0.81204 0.38318 0.09773 0.0
H396 H 0.76261 0.42173 0.22972 0.0
H397 H 0.76866 0.39059 0.18768 0.0
H398 H 0.69147 0.36222 0.11463 0.0
C399 C 0.75117 0.33922 0.02774 0.0
C400 C 0.78551 0.3781 0.10127 0.0
C401 C 0.75853 0.32365 0.00388 0.0
C402 C 0.74985 0.42136 0.20908 0.0
C403 C 0.75352 0.4037 0.18493 0.0
C404 C 0.71791 0.36709 0.11103 0.0
C405 C 0.76549 0.34043 0.05589 0.0
C406 C 0.75839 0.35729 0.08133 0.0
C407 C 0.73835 0.40347 0.15745 0.0
C408 C 0.74498 0.38742 0.13119 0.0
H409 H 0.81099 0.29877 0.03989 0.0
H410 H 0.79792 0.3254 0.08119 0.0
H411 H 0.70302 0.33594 0.07157 0.0
H412 H 0.69979 0.45127 0.17622 0.0
H413 H 0.70637 0.42055 0.13405 0.0
C414 C 0.32851 0.76118 0.3695 0.0
C415 C 0.29204 0.73854 0.36687 0.0
C416 C 0.35078 0.76632 0.34565 0.0
C417 C 0.35661 0.72929 0.27387 0.0
H418 H 0.42867 0.82559 0.25767 0.0
C419 C 0.44218 0.7704 0.16755 0.0
C420 C 0.47824 0.79428 0.17158 0.0
C421 C 0.41842 0.76289 0.19082 0.0
C422 C 0.40889 0.79851 0.26203 0.0
H423 H 0.25049 0.70254 0.33744 0.0
H424 H 0.28938 0.71169 0.29581 0.0
H425 H 0.38989 0.81277 0.29997 0.0
H426 H 0.51749 0.82905 0.20325 0.0
H427 H 0.47631 0.81581 0.24355 0.0
H428 H 0.37579 0.7151 0.23583 0.0
C429 C 0.30077 0.72532 0.31636 0.0
C430 C 0.38672 0.79115 0.28633 0.0
C431 C 0.27848 0.7202 0.34021 0.0
C432 C 0.48991 0.81062 0.19926 0.0
C433 C 0.46624 0.80318 0.22239 0.0
C434 C 0.37886 0.73666 0.24951 0.0
C435 C 0.33709 0.74892 0.31865 0.0
C436 C 0.36049 0.75645 0.29267 0.0
C437 C 0.43024 0.77923 0.2185 0.0
C438 C 0.40543 0.77134 0.24347 0.0
H439 H 0.33985 0.77557 0.38977 0.0
H440 H 0.37874 0.7842 0.34829 0.0
H441 H 0.33681 0.70224 0.2783 0.0
H442 H 0.43233 0.75734 0.14652 0.0
H443 H 0.39077 0.74454 0.18706 0.0
loop_
_geom_bond_atom_site_label_1
_geom_bond_atom_site_label_2
_geom_bond_distance
_geom_bond_site_symmetry_2
_ccdc_geom_bond_type
Zn0 O3 2.031 . S
Zn0 O5 2.049 . S
Zn0 O10 2.067 . S
Zn1 O2 1.962 . S
Zn1 O4 1.986 . S
Zn1 O6 1.996 . S
Zn1 O9 1.943 . S
O2 Zn1 1.962 . S
O2 C7 1.254 . S
O3 Zn0 2.031 . S
O3 C7 1.269 . S
O4 Zn1 1.986 . S
O4 C11 1.262 . S
O5 Zn0 2.049 . S
O5 C13 1.260 . S
O6 Zn1 1.996 . S
O6 C13 1.257 . S
C7 O2 1.254 . S
C7 O3 1.269 . S
C8 O9 1.249 . S
C8 O10 1.270 . S
O9 Zn1 1.943 . S
O9 C8 1.249 . S
O10 Zn0 2.067 . S
O10 C8 1.270 . S
C11 O4 1.262 . S
C11 O12 1.232 . S
O12 C11 1.232 . S
C13 O5 1.260 . S
C13 O6 1.257 . S
Zn14 O17 2.031 . S
Zn14 O19 2.049 . S
Zn14 O24 2.067 . S
Zn15 O16 1.962 . S
Zn15 O18 1.986 . S
Zn15 O20 1.996 . S
Zn15 O23 1.943 . S
O16 Zn15 1.962 . S
O16 C21 1.254 . S
O17 Zn14 2.031 . S
O17 C21 1.269 . S
O18 Zn15 1.986 . S
O18 C25 1.262 . S
O19 Zn14 2.049 . S
O19 C27 1.260 . S
O20 Zn15 1.996 . S
O20 C27 1.257 . S
C21 O16 1.254 . S
C21 O17 1.269 . S
C22 O23 1.249 . S
C22 O24 1.270 . S
O23 Zn15 1.943 . S
O23 C22 1.249 . S
O24 Zn14 2.067 . S
O24 C22 1.270 . S
C25 O18 1.262 . S
C25 O26 1.232 . S
O26 C25 1.232 . S
C27 O19 1.260 . S
C27 O20 1.257 . S
Zn28 O31 2.031 . S
Zn28 O33 2.049 . S
Zn28 O38 2.067 . S
Zn29 O30 1.962 . S
Zn29 O32 1.986 . S
Zn29 O34 1.996 . S
Zn29 O37 1.943 . S
O30 Zn29 1.962 . S
O30 C35 1.254 . S
O31 Zn28 2.031 . S
O31 C35 1.269 . S
O32 Zn29 1.986 . S
O32 C39 1.262 . S
O33 Zn28 2.049 . S
O33 C41 1.260 . S
O34 Zn29 1.996 . S
O34 C41 1.257 . S
C35 O30 1.254 . S
C35 O31 1.269 . S
C36 O37 1.249 . S
C36 O38 1.270 . S
O37 Zn29 1.943 . S
O37 C36 1.249 . S
O38 Zn28 2.067 . S
O38 C36 1.270 . S
C39 O32 1.262 . S
C39 O40 1.232 . S
O40 C39 1.232 . S
C41 O33 1.260 . S
C41 O34 1.257 . S
Zn42 O45 2.031 . S
Zn42 O47 2.049 . S
Zn42 O52 2.067 . S
Zn43 O44 1.962 . S
Zn43 O46 1.986 . S
Zn43 O48 1.996 . S
Zn43 O51 1.943 . S
O44 Zn43 1.962 . S
O44 C49 1.254 . S
O45 Zn42 2.031 . S
O45 C49 1.269 . S
O46 Zn43 1.986 . S
O46 C53 1.262 . S
O47 Zn42 2.049 . S
O47 C55 1.260 . S
O48 Zn43 1.996 . S
O48 C55 1.257 . S
C49 O44 1.254 . S
C49 O45 1.269 . S
C50 O51 1.249 . S
C50 O52 1.270 . S
O51 Zn43 1.943 . S
O51 C50 1.249 . S
O52 Zn42 2.067 . S
O52 C50 1.270 . S
C53 O46 1.262 . S
C53 O54 1.232 . S
O54 C53 1.232 . S
C55 O47 1.260 . S
C55 O48 1.257 . S
Zn56 O59 2.031 . S
Zn56 O61 2.049 . S
Zn56 O66 2.067 . S
Zn57 O58 1.962 . S
Zn57 O60 1.986 . S
Zn57 O62 1.996 . S
Zn57 O65 1.943 . S
O58 Zn57 1.962 . S
O58 C63 1.254 . S
O59 Zn56 2.031 . S
O59 C63 1.269 . S
O60 Zn57 1.986 . S
O60 C67 1.262 . S
O61 Zn56 2.049 . S
O61 C69 1.260 . S
O62 Zn57 1.996 . S
O62 C69 1.257 . S
C63 O58 1.254 . S
C63 O59 1.269 . S
C64 O65 1.249 . S
C64 O66 1.270 . S
O65 Zn57 1.943 . S
O65 C64 1.249 . S
O66 Zn56 2.067 . S
O66 C64 1.270 . S
C67 O60 1.262 . S
C67 O68 1.232 . S
O68 C67 1.232 . S
C69 O61 1.260 . S
C69 O62 1.257 . S
Zn70 O73 2.031 . S
Zn70 O75 2.049 . S
Zn70 O80 2.067 . S
Zn71 O72 1.962 . S
Zn71 O74 1.986 . S
Zn71 O76 1.996 . S
Zn71 O79 1.943 . S
O72 Zn71 1.962 . S
O72 C77 1.254 . S
O73 Zn70 2.031 . S
O73 C77 1.269 . S
O74 Zn71 1.986 . S
O74 C81 1.262 . S
O75 Zn70 2.049 . S
O75 C83 1.260 . S
O76 Zn71 1.996 . S
O76 C83 1.257 . S
C77 O72 1.254 . S
C77 O73 1.269 . S
C78 O79 1.249 . S
C78 O80 1.270 . S
O79 Zn71 1.943 . S
O79 C78 1.249 . S
O80 Zn70 2.067 . S
O80 C78 1.270 . S
C81 O74 1.262 . S
C81 O82 1.232 . S
O82 C81 1.232 . S
C83 O75 1.260 . S
C83 O76 1.257 . S
C84 C85 1.349 . S
C84 C86 1.327 . S
C84 H109 0.950 . S
C85 C84 1.349 . S
C85 C101 1.349 . S
C86 C84 1.327 . S
C86 C105 1.429 . S
C86 H110 0.950 . S
C87 C104 1.574 1_545 S
C87 C106 1.368 . S
C87 H111 0.949 . S
H88 C92 0.949 . S
C89 C90 1.349 . S
C89 C91 1.327 . S
C89 H112 0.950 . S
C90 C89 1.349 . S
C90 C102 1.349 . S
C91 C89 1.327 . S
C91 C107 1.429 . S
C91 H113 0.950 . S
C92 H88 0.949 . S
C92 C100 1.574 1_565 S
C92 C108 1.368 . S
H93 C101 0.950 . S
H94 C99 0.950 . S
H95 C100 0.949 . S
H96 C102 0.950 . S
H97 C103 0.950 . S
H98 C104 0.949 . S
C99 H94 0.950 . S
C99 C101 1.327 . S
C99 C105 1.429 . S
C100 C92 1.574 1_545 S
C100 H95 0.949 . S
C100 C106 1.368 . S
C101 C85 1.349 . S
C101 H93 0.950 . S
C101 C99 1.327 . S
C102 C90 1.349 . S
C102 H96 0.950 . S
C102 C103 1.327 . S
C103 H97 0.950 . S
C103 C102 1.327 . S
C103 C107 1.429 . S
C104 C87 1.574 1_565 S
C104 H98 0.949 . S
C104 C108 1.368 . S
C105 C86 1.429 . S
C105 C99 1.429 . S
C105 C106 1.523 . S
C106 C87 1.368 . S
C106 C100 1.368 . S
C106 C105 1.523 . S
C107 C91 1.429 . S
C107 C103 1.429 . S
C107 C108 1.523 . S
C108 C92 1.368 . S
C108 C104 1.368 . S
C108 C107 1.523 . S
H109 C84 0.950 . S
H110 C86 0.950 . S
H111 C87 0.949 . S
H112 C89 0.950 . S
H113 C91 0.950 . S
C114 C115 1.349 . S
C114 C116 1.327 . S
C114 H139 0.950 . S
C115 C114 1.349 . S
C115 C131 1.349 . S
C116 C114 1.327 . S
C116 C135 1.429 . S
C116 H140 0.950 . S
C117 C134 1.574 . S
C117 C136 1.368 . S
C117 H141 0.949 . S
H118 C122 0.949 . S
C119 C120 1.349 . S
C119 C121 1.327 . S
C119 H142 0.950 . S
C120 C119 1.349 . S
C120 C132 1.349 . S
C121 C119 1.327 . S
C121 C137 1.429 . S
C121 H143 0.950 . S
C122 H118 0.949 . S
C122 C130 1.574 . S
C122 C138 1.368 . S
H123 C131 0.950 . S
H124 C129 0.950 . S
H125 C130 0.949 . S
H126 C132 0.950 . S
H127 C133 0.950 . S
H128 C134 0.949 . S
C129 H124 0.950 . S
C129 C131 1.327 . S
C129 C135 1.429 . S
C130 C122 1.574 . S
C130 H125 0.949 . S
C130 C136 1.368 . S
C131 C115 1.349 . S
C131 H123 0.950 . S
C131 C129 1.327 . S
C132 C120 1.349 . S
C132 H126 0.950 . S
C132 C133 1.327 . S
C133 H127 0.950 . S
C133 C132 1.327 . S
C133 C137 1.429 . S
C134 C117 1.574 . S
C134 H128 0.949 . S
C134 C138 1.368 . S
C135 C116 1.429 . S
C135 C129 1.429 . S
C135 C136 1.523 . S
C136 C117 1.368 . S
C136 C130 1.368 . S
C136 C135 1.523 . S
C137 C121 1.429 . S
C137 C133 1.429 . S
C137 C138 1.523 . S
C138 C122 1.368 . S
C138 C134 1.368 . S
C138 C137 1.523 . S
H139 C114 0.950 . S
H140 C116 0.950 . S
H141 C117 0.949 . S
H142 C119 0.950 . S
H143 C121 0.950 . S
C144 C145 1.349 . S
C144 C146 1.327 . S
C144 H169 0.950 . S
C145 C144 1.349 . S
C145 C161 1.349 . S
C146 C144 1.327 . S
C146 C165 1.429 . S
C146 H170 0.950 . S
C147 C164 1.574 1_655 S
C147 C166 1.368 . S
C147 H171 0.949 . S
H148 C152 0.949 . S
C149 C150 1.349 . S
C149 C151 1.327 . S
C149 H172 0.950 . S
C150 C149 1.349 . S
C150 C162 1.349 . S
C151 C149 1.327 . S
C151 C167 1.429 . S
C151 H173 0.950 . S
C152 H148 0.949 . S
C152 C160 1.574 1_455 S
C152 C168 1.368 . S
H153 C161 0.950 . S
H154 C159 0.950 . S
H155 C160 0.949 . S
H156 C162 0.950 . S
H157 C163 0.950 . S
H158 C164 0.949 . S
C159 H154 0.950 . S
C159 C161 1.327 . S
C159 C165 1.429 . S
C160 C152 1.574 1_655 S
C160 H155 0.949 . S
C160 C166 1.368 . S
C161 C145 1.349 . S
C161 H153 0.950 . S
C161 C159 1.327 . S
C162 C150 1.349 . S
C162 H156 0.950 . S
C162 C163 1.327 . S
C163 H157 0.950 . S
C163 C162 1.327 . S
C163 C167 1.429 . S
C164 C147 1.574 1_455 S
C164 H158 0.949 . S
C164 C168 1.368 . S
C165 C146 1.429 . S
C165 C159 1.429 . S
C165 C166 1.523 . S
C166 C147 1.368 . S
C166 C160 1.368 . S
C166 C165 1.523 . S
C167 C151 1.429 . S
C167 C163 1.429 . S
C167 C168 1.523 . S
C168 C152 1.368 . S
C168 C164 1.368 . S
C168 C167 1.523 . S
H169 C144 0.950 . S
H170 C146 0.950 . S
H171 C147 0.949 . S
H172 C149 0.950 . S
H173 C151 0.950 . S
C174 C175 1.349 . S
C174 C176 1.327 . S
C174 H199 0.950 . S
C175 C174 1.349 . S
C175 C191 1.349 . S
C176 C174 1.327 . S
C176 C195 1.429 . S
C176 H200 0.950 . S
C177 C194 1.574 1_565 S
C177 C196 1.368 . S
C177 H201 0.949 . S
H178 C182 0.949 . S
C179 C180 1.349 . S
C179 C181 1.327 . S
C179 H202 0.950 . S
C180 C179 1.349 . S
C180 C192 1.349 . S
C181 C179 1.327 . S
C181 C197 1.429 . S
C181 H203 0.950 1_556 S
C182 H178 0.949 . S
C182 C190 1.574 1_545 S
C182 C198 1.368 . S
H183 C191 0.950 . S
H184 C189 0.950 . S
H185 C190 0.949 . S
H186 C192 0.950 . S
H187 C193 0.950 . S
H188 C194 0.949 . S
C189 H184 0.950 . S
C189 C191 1.327 . S
C189 C195 1.429 . S
C190 C182 1.574 1_565 S
C190 H185 0.949 . S
C190 C196 1.368 1_556 S
C191 C175 1.349 . S
C191 H183 0.950 . S
C191 C189 1.327 . S
C192 C180 1.349 . S
C192 H186 0.950 . S
C192 C193 1.327 . S
C193 H187 0.950 . S
C193 C192 1.327 . S
C193 C197 1.429 . S
C194 C177 1.574 1_545 S
C194 H188 0.949 . S
C194 C198 1.368 1_554 S
C195 C176 1.429 . S
C195 C189 1.429 . S
C195 C196 1.523 . S
C196 C177 1.368 . S
C196 C190 1.368 1_554 S
C196 C195 1.523 . S
C197 C181 1.429 . S
C197 C193 1.429 . S
C197 C198 1.523 . S
C198 C182 1.368 . S
C198 C194 1.368 1_556 S
C198 C197 1.523 . S
H199 C174 0.950 . S
H200 C176 0.950 . S
H201 C177 0.949 . S
H202 C179 0.950 . S
H203 C181 0.950 1_554 S
C204 C205 1.349 . S
C204 C206 1.327 . S
C204 H229 0.950 . S
C205 C204 1.349 . S
C205 C221 1.349 . S
C206 C204 1.327 . S
C206 C225 1.429 . S
C206 H230 0.950 . S
C207 C224 1.574 . S
C207 C226 1.368 . S
C207 H231 0.949 . S
H208 C212 0.949 . S
C209 C210 1.349 . S
C209 C211 1.327 . S
C209 H232 0.950 . S
C210 C209 1.349 . S
C210 C222 1.349 . S
C211 C209 1.327 . S
C211 C227 1.429 . S
C211 H233 0.950 . S
C212 H208 0.949 . S
C212 C220 1.574 . S
C212 C228 1.368 . S
H213 C221 0.950 . S
H214 C219 0.950 . S
H215 C220 0.949 . S
H216 C222 0.950 . S
H217 C223 0.950 . S
H218 C224 0.949 . S
C219 H214 0.950 . S
C219 C221 1.327 . S
C219 C225 1.429 . S
C220 C212 1.574 . S
C220 H215 0.949 . S
C220 C226 1.368 . S
C221 C205 1.349 . S
C221 H213 0.950 . S
C221 C219 1.327 . S
C222 C210 1.349 . S
C222 H216 0.950 . S
C222 C223 1.327 . S
C223 H217 0.950 . S
C223 C222 1.327 . S
C223 C227 1.429 . S
C224 C207 1.574 . S
C224 H218 0.949 . S
C224 C228 1.368 . S
C225 C206 1.429 . S
C225 C219 1.429 . S
C225 C226 1.523 . S
C226 C207 1.368 . S
C226 C220 1.368 . S
C226 C225 1.523 . S
C227 C211 1.429 . S
C227 C223 1.429 . S
C227 C228 1.523 . S
C228 C212 1.368 . S
C228 C224 1.368 . S
C228 C227 1.523 . S
H229 C204 0.950 . S
H230 C206 0.950 . S
H231 C207 0.949 . S
H232 C209 0.950 . S
H233 C211 0.950 . S
C234 C235 1.349 . S
C234 C236 1.327 . S
C234 H259 0.950 . S
C235 C234 1.349 . S
C235 C251 1.349 . S
C236 C234 1.327 . S
C236 C255 1.429 . S
C236 H260 0.950 . S
C237 C254 1.574 1_455 S
C237 C256 1.368 . S
C237 H261 0.949 . S
H238 C242 0.949 . S
C239 C240 1.349 . S
C239 C241 1.327 . S
C239 H262 0.950 . S
C240 C239 1.349 . S
C240 C252 1.349 . S
C241 C239 1.327 . S
C241 C257 1.429 . S
C241 H263 0.950 . S
C242 H238 0.949 . S
C242 C250 1.574 1_655 S
C242 C258 1.368 . S
H243 C251 0.950 . S
H244 C249 0.950 . S
H245 C250 0.949 . S
H246 C252 0.950 . S
H247 C253 0.950 . S
H248 C254 0.949 . S
C249 H244 0.950 . S
C249 C251 1.327 . S
C249 C255 1.429 . S
C250 C242 1.574 1_455 S
C250 H245 0.949 . S
C250 C256 1.368 . S
C251 C235 1.349 . S
C251 H243 0.950 . S
C251 C249 1.327 . S
C252 C240 1.349 . S
C252 H246 0.950 . S
C252 C253 1.327 . S
C253 H247 0.950 . S
C253 C252 1.327 . S
C253 C257 1.429 . S
C254 C237 1.574 1_655 S
C254 H248 0.949 . S
C254 C258 1.368 . S
C255 C236 1.429 . S
C255 C249 1.429 . S
C255 C256 1.523 . S
C256 C237 1.368 . S
C256 C250 1.368 . S
C256 C255 1.523 . S
C257 C241 1.429 . S
C257 C253 1.429 . S
C257 C258 1.523 . S
C258 C242 1.368 . S
C258 C254 1.368 . S
C258 C257 1.523 . S
H259 C234 0.950 . S
H260 C236 0.950 . S
H261 C237 0.949 . S
H262 C239 0.950 . S
H263 C241 0.950 . S
C264 C265 1.349 . S
C264 C266 1.327 . S
C264 H289 0.950 . S
C265 C264 1.349 . S
C265 C281 1.349 . S
C266 C264 1.327 . S
C266 C285 1.429 . S
C266 H290 0.950 . S
C267 C284 1.574 . S
C267 C286 1.368 . S
C267 H291 0.949 . S
H268 C272 0.949 . S
C269 C270 1.349 . S
C269 C271 1.327 . S
C269 H292 0.950 . S
C270 C269 1.349 . S
C270 C282 1.349 . S
C271 C269 1.327 . S
C271 C287 1.429 . S
C271 H293 0.950 . S
C272 H268 0.949 . S
C272 C280 1.574 . S
C272 C288 1.368 . S
H273 C281 0.950 . S
H274 C279 0.950 . S
H275 C280 0.949 . S
H276 C282 0.950 . S
H277 C283 0.950 . S
H278 C284 0.949 . S
C279 H274 0.950 . S
C279 C281 1.327 . S
C279 C285 1.429 . S
C280 C272 1.574 . S
C280 H275 0.949 . S
C280 C286 1.368 . S
C281 C265 1.349 . S
C281 H273 0.950 . S
C281 C279 1.327 . S
C282 C270 1.349 . S
C282 H276 0.950 . S
C282 C283 1.327 . S
C283 H277 0.950 . S
C283 C282 1.327 . S
C283 C287 1.429 . S
C284 C267 1.574 . S
C284 H278 0.949 . S
C284 C288 1.368 . S
C285 C266 1.429 . S
C285 C279 1.429 . S
C285 C286 1.523 . S
C286 C267 1.368 . S
C286 C280 1.368 . S
C286 C285 1.523 . S
C287 C271 1.429 . S
C287 C283 1.429 . S
C287 C288 1.523 . S
C288 C272 1.368 . S
C288 C284 1.368 . S
C288 C287 1.523 . S
H289 C264 0.950 . S
H290 C266 0.950 . S
H291 C267 0.949 . S
H292 C269 0.950 . S
H293 C271 0.950 . S
C294 C295 1.349 . S
C294 C296 1.327 . S
C294 H319 0.950 . S
C295 C294 1.349 . S
C295 C311 1.349 . S
C296 C294 1.327 . S
C296 C315 1.429 . S
C296 H320 0.950 . S
C297 C314 1.574 . S
C297 C316 1.368 . S
C297 H321 0.949 . S
H298 C302 0.949 . S
C299 C300 1.349 . S
C299 C301 1.327 . S
C299 H322 0.950 . S
C300 C299 1.349 . S
C300 C312 1.349 . S
C301 C299 1.327 . S
C301 C317 1.429 . S
C301 H323 0.950 . S
C302 H298 0.949 . S
C302 C310 1.574 . S
C302 C318 1.368 . S
H303 C311 0.950 . S
H304 C309 0.950 . S
H305 C310 0.949 . S
H306 C312 0.950 . S
H307 C313 0.950 . S
H308 C314 0.949 . S
C309 H304 0.950 . S
C309 C311 1.327 . S
C309 C315 1.429 . S
C310 C302 1.574 . S
C310 H305 0.949 . S
C310 C316 1.368 . S
C311 C295 1.349 . S
C311 H303 0.950 . S
C311 C309 1.327 . S
C312 C300 1.349 . S
C312 H306 0.950 . S
C312 C313 1.327 . S
C313 H307 0.950 . S
C313 C312 1.327 . S
C313 C317 1.429 . S
C314 C297 1.574 . S
C314 H308 0.949 . S
C314 C318 1.368 . S
C315 C296 1.429 . S
C315 C309 1.429 . S
C315 C316 1.523 . S
C316 C297 1.368 . S
C316 C310 1.368 . S
C316 C315 1.523 . S
C317 C301 1.429 . S
C317 C313 1.429 . S
C317 C318 1.523 . S
C318 C302 1.368 . S
C318 C314 1.368 . S
C318 C317 1.523 . S
H319 C294 0.950 . S
H320 C296 0.950 . S
H321 C297 0.949 . S
H322 C299 0.950 . S
H323 C301 0.950 . S
C324 C325 1.349 . S
C324 C326 1.327 . S
C324 H349 0.950 . S
C325 C324 1.349 . S
C325 C341 1.349 . S
C326 C324 1.327 . S
C326 C345 1.429 . S
C326 H350 0.950 . S
C327 C344 1.574 . S
C327 C346 1.368 . S
C327 H351 0.949 . S
H328 C332 0.949 . S
C329 C330 1.349 . S
C329 C331 1.327 . S
C329 H352 0.950 . S
C330 C329 1.349 . S
C330 C342 1.349 . S
C331 C329 1.327 . S
C331 C347 1.429 . S
C331 H353 0.950 . S
C332 H328 0.949 . S
C332 C340 1.574 . S
C332 C348 1.368 . S
H333 C341 0.950 . S
H334 C339 0.950 . S
H335 C340 0.949 . S
H336 C342 0.950 . S
H337 C343 0.950 . S
H338 C344 0.949 . S
C339 H334 0.950 . S
C339 C341 1.327 . S
C339 C345 1.429 . S
C340 C332 1.574 . S
C340 H335 0.949 . S
C340 C346 1.368 . S
C341 C325 1.349 . S
C341 H333 0.950 . S
C341 C339 1.327 . S
C342 C330 1.349 . S
C342 H336 0.950 . S
C342 C343 1.327 . S
C343 H337 0.950 . S
C343 C342 1.327 . S
C343 C347 1.429 . S
C344 C327 1.574 . S
C344 H338 0.949 . S
C344 C348 1.368 . S
C345 C326 1.429 . S
C345 C339 1.429 . S
C345 C346 1.523 . S
C346 C327 1.368 . S
C346 C340 1.368 . S
C346 C345 1.523 . S
C347 C331 1.429 . S
C347 C343 1.429 . S
C347 C348 1.523 . S
C348 C332 1.368 . S
C348 C344 1.368 . S
C348 C347 1.523 . S
H349 C324 0.950 . S
H350 C326 0.950 . S
H351 C327 0.949 . S
H352 C329 0.950 . S
H353 C331 0.950 . S
C354 C355 1.349 . S
C354 C356 1.327 . S
C354 H379 0.950 . S
C355 C354 1.349 . S
C355 C371 1.349 . S
C356 C354 1.327 . S
C356 C375 1.429 . S
C356 H380 0.950 . S
C357 C374 1.574 . S
C357 C376 1.368 . S
C357 H381 0.949 . S
H358 C362 0.949 . S
C359 C360 1.349 1_556 S
C359 C361 1.327 . S
C359 H382 0.950 . S
C360 C359 1.349 1_554 S
C360 C372 1.349 . S
C361 C359 1.327 . S
C361 C377 1.429 . S
C361 H383 0.950 . S
C362 H358 0.949 . S
C362 C370 1.574 . S
C362 C378 1.368 . S
H363 C371 0.950 . S
H364 C369 0.950 . S
H365 C370 0.949 . S
H366 C372 0.950 . S
H367 C373 0.950 . S
H368 C374 0.949 . S
C369 H364 0.950 . S
C369 C371 1.327 . S
C369 C375 1.429 . S
C370 C362 1.574 . S
C370 H365 0.949 . S
C370 C376 1.368 . S
C371 C355 1.349 . S
C371 H363 0.950 . S
C371 C369 1.327 . S
C372 C360 1.349 . S
C372 H366 0.950 . S
C372 C373 1.327 1_554 S
C373 H367 0.950 . S
C373 C372 1.327 1_556 S
C373 C377 1.429 . S
C374 C357 1.574 . S
C374 H368 0.949 . S
C374 C378 1.368 . S
C375 C356 1.429 . S
C375 C369 1.429 . S
C375 C376 1.523 . S
C376 C357 1.368 . S
C376 C370 1.368 . S
C376 C375 1.523 . S
C377 C361 1.429 . S
C377 C373 1.429 . S
C377 C378 1.523 . S
C378 C362 1.368 . S
C378 C374 1.368 . S
C378 C377 1.523 . S
H379 C354 0.950 . S
H380 C356 0.950 . S
H381 C357 0.949 . S
H382 C359 0.950 . S
H383 C361 0.950 . S
C384 C385 1.349 1_554 S
C384 C386 1.327 . S
C384 H409 0.950 . S
C385 C384 1.349 1_556 S
C385 C401 1.349 . S
C386 C384 1.327 . S
C386 C405 1.429 . S
C386 H410 0.950 . S
C387 C404 1.574 . S
C387 C406 1.368 . S
C387 H411 0.949 . S
H388 C392 0.949 . S
C389 C390 1.349 . S
C389 C391 1.327 . S
C389 H412 0.950 . S
C390 C389 1.349 . S
C390 C402 1.349 . S
C391 C389 1.327 . S
C391 C407 1.429 . S
C391 H413 0.950 . S
C392 H388 0.949 . S
C392 C400 1.574 . S
C392 C408 1.368 . S
H393 C401 0.950 . S
H394 C399 0.950 1_556 S
H395 C400 0.949 . S
H396 C402 0.950 . S
H397 C403 0.950 . S
H398 C404 0.949 . S
C399 H394 0.950 1_554 S
C399 C401 1.327 1_554 S
C399 C405 1.429 . S
C400 C392 1.574 . S
C400 H395 0.949 . S
C400 C406 1.368 . S
C401 C385 1.349 . S
C401 H393 0.950 . S
C401 C399 1.327 1_556 S
C402 C390 1.349 . S
C402 H396 0.950 . S
C402 C403 1.327 . S
C403 H397 0.950 . S
C403 C402 1.327 . S
C403 C407 1.429 . S
C404 C387 1.574 . S
C404 H398 0.949 . S
C404 C408 1.368 . S
C405 C386 1.429 . S
C405 C399 1.429 . S
C405 C406 1.523 . S
C406 C387 1.368 . S
C406 C400 1.368 . S
C406 C405 1.523 . S
C407 C391 1.429 . S
C407 C403 1.429 . S
C407 C408 1.523 . S
C408 C392 1.368 . S
C408 C404 1.368 . S
C408 C407 1.523 . S
H409 C384 0.950 . S
H410 C386 0.950 . S
H411 C387 0.949 . S
H412 C389 0.950 . S
H413 C391 0.950 . S
C414 C415 1.349 . S
C414 C416 1.327 . S
C414 H439 0.950 . S
C415 C414 1.349 . S
C415 C431 1.349 . S
C416 C414 1.327 . S
C416 C435 1.429 . S
C416 H440 0.950 . S
C417 C434 1.574 . S
C417 C436 1.368 . S
C417 H441 0.949 . S
H418 C422 0.949 . S
C419 C420 1.349 . S
C419 C421 1.327 . S
C419 H442 0.950 . S
C420 C419 1.349 . S
C420 C432 1.349 . S
C421 C419 1.327 . S
C421 C437 1.429 . S
C421 H443 0.950 . S
C422 H418 0.949 . S
C422 C430 1.574 . S
C422 C438 1.368 . S
H423 C431 0.950 . S
H424 C429 0.950 . S
H425 C430 0.949 . S
H426 C432 0.950 . S
H427 C433 0.950 . S
H428 C434 0.949 . S
C429 H424 0.950 . S
C429 C431 1.327 . S
C429 C435 1.429 . S
C430 C422 1.574 . S
C430 H425 0.949 . S
C430 C436 1.368 . S
C431 C415 1.349 . S
C431 H423 0.950 . S
C431 C429 1.327 . S
C432 C420 1.349 . S
C432 H426 0.950 . S
C432 C433 1.327 . S
C433 H427 0.950 . S
C433 C432 1.327 . S
C433 C437 1.429 . S
C434 C417 1.574 . S
C434 H428 0.949 . S
C434 C438 1.368 . S
C435 C416 1.429 . S
C435 C429 1.429 . S
C435 C436 1.523 . S
C436 C417 1.368 . S
C436 C430 1.368 . S
C436 C435 1.523 . S
C437 C421 1.429 . S
C437 C433 1.429 . S
C437 C438 1.523 . S
C438 C422 1.368 . S
C438 C434 1.368 . S
C438 C437 1.523 . S
H439 C414 0.950 . S
H440 C416 0.950 . S
H441 C417 0.949 . S
H442 C419 0.950 . S
H443 C421 0.950 . S
C85 C13 1.338 . S
C90 C77 1.400 . S
C115 C7 1.400 . S
C120 C27 1.338 . S
C145 C41 1.338 . S
C150 C21 1.400 . S
C175 C55 1.338 . S
C180 C35 1.400 . S
C205 C69 1.338 . S
C210 C49 1.400 . S
C235 C83 1.338 . S
C240 C63 1.400 . S
C265 C11 1.537 . S
C270 C64 1.510 . S
C295 C78 1.510 . S
C300 C25 1.537 . S
C325 C39 1.537 . S
C330 C8 1.510 . S
C355 C22 1.510 . S
C360 C53 1.537 . S
C385 C36 1.510 . S
C390 C67 1.537 . S
C415 C81 1.537 . S
C420 C50 1.510 . S
