# Generated by pormake.
# Topology rob, (6)-cn, num edge types: 1
# Building blocks:
#     Node 0, Type 0, BuildingBlock: BETDIP_clean_sbu_0, # of connection points: 6
#     Node 1, Type 0, BuildingBlock: BETDIP_clean_sbu_0, # of connection points: 6
#     Node 2, Type 0, BuildingBlock: BETDIP_clean_sbu_0, # of connection points: 6
#     Node 3, Type 0, BuildingBlock: BETDIP_clean_sbu_0, # of connection points: 6
#     Edge 4, Type (0, 0), BuildingBlock: XUDNAN_clean_linker_2, # of connection points: 2
#     Edge 5, Type (0, 0), BuildingBlock: XUDNAN_clean_linker_2, # of connection points: 2
#     Edge 6, Type (0, 0), BuildingBlock: XUDNAN_clean_linker_2, # of connection points: 2
#     Edge 7, Type (0, 0), BuildingBlock: XUDNAN_clean_linker_2, # of connection points: 2
#     Edge 8, Type (0, 0), BuildingBlock: XUDNAN_clean_linker_2, # of connection points: 2
#     Edge 9, Type (0, 0), BuildingBlock: XUDNAN_clean_linker_2, # of connection points: 2
#     Edge 10, Type (0, 0), BuildingBlock: XUDNAN_clean_linker_2, # of connection points: 2
#     Edge 11, Type (0, 0), BuildingBlock: XUDNAN_clean_linker_2, # of connection points: 2
#     Edge 12, Type (0, 0), BuildingBlock: XUDNAN_clean_linker_2, # of connection points: 2
#     Edge 13, Type (0, 0), BuildingBlock: XUDNAN_clean_linker_2, # of connection points: 2
#     Edge 14, Type (0, 0), BuildingBlock: XUDNAN_clean_linker_2, # of connection points: 2
#     Edge 15, Type (0, 0), BuildingBlock: XUDNAN_clean_linker_2, # of connection points: 2
# Relax obj value: 0.036
# Max RMSD: 0.140
# Mean RMSD: 0.140
data_MOF--net-rob--node1-BETDIP_clean_sbu_0--edge1-XUDNAN_clean_linker_2
_symmetry_space_group_name_H-M    P1
_symmetry_Int_Tables_number       1
_symmetry_cell_setting            triclinic
loop_
_symmetry_equiv_pos_as_xyz
'x, y, z'
_cell_length_a     15.003763
_cell_length_b     24.056066
_cell_length_c     36.828882
_cell_angle_alpha  95.270268
_cell_angle_beta   90.094344
_cell_angle_gamma 90.067979
loop_
_atom_site_label
_atom_site_type_symbol
_atom_site_fract_x
_atom_site_fract_y
_atom_site_fract_z
_atom_type_partial_charge
Tb0 Tb 0.17654 0.31052 0.04983 0.0
Tb1 Tb 0.32449 0.25201 1.00617 0.0
C2 C 0.04965 0.32932 0.09406 0.0
C3 C 0.03657 0.33145 0.13391 0.0
C4 C 0.08806 0.2984 0.15546 0.0
C5 C 0.07433 0.30066 0.1931 0.0
C6 C 0.00932 0.33614 0.20999 0.0
C7 C 0.95672 0.36844 0.18837 0.0
C8 C 0.9705 0.36623 0.15063 0.0
C9 C 0.30925 0.37545 0.0334 0.0
C10 C 0.34042 0.2536 0.09021 0.0
C11 C 0.44546 0.2302 0.95989 0.0
C12 C 0.45188 0.22925 0.91962 0.0
C13 C 0.49709 0.27226 0.90394 0.0
C14 C 0.50502 0.27156 0.86608 0.0
C15 C 0.46868 0.2275 0.84288 0.0
C16 C 0.42276 0.18468 0.85857 0.0
C17 C 0.41451 0.1855 0.89647 0.0
C18 C 0.1904 0.1877 0.02245 0.0
C19 C 0.16534 0.31111 0.96562 0.0
O20 O 0.06739 0.28016 0.07738 0.0
O21 O 0.09912 0.36869 0.08221 0.0
O22 O 0.31482 0.32614 0.04211 0.0
O23 O 0.22684 0.39175 0.03629 0.0
O24 O 0.25863 0.27483 0.09179 0.0
O25 O 0.38476 0.24551 0.05917 0.0
O26 O 0.43532 0.2793 0.97793 0.0
O27 O 0.39548 0.19207 0.97292 0.0
O28 O 0.18595 0.23688 1.01354 0.0
O29 O 0.27261 0.17124 0.01999 0.0
O30 O 0.24859 0.29273 0.96482 0.0
O31 O 0.11818 0.31527 0.99609 0.0
H32 H 0.1385 0.27055 0.14325 0.0
H33 H 0.11382 0.27416 0.20906 0.0
H34 H 0.90608 0.39606 0.20077 0.0
H35 H 0.92966 0.39179 0.13449 0.0
H36 H 0.52664 0.30652 0.92101 0.0
H37 H 0.5395 0.30576 0.85499 0.0
H38 H 0.39481 0.14977 0.84163 0.0
H39 H 0.37949 0.15151 0.90756 0.0
Tb40 Tb 0.6647 0.79281 0.0476 0.0
Tb41 Tb 0.83609 0.76978 1.00817 0.0
C42 C 0.53549 0.78756 0.09031 0.0
C43 C 0.52598 0.7953 0.13024 0.0
C44 C 0.47808 0.75582 0.148 0.0
C45 C 0.47118 0.7609 0.18596 0.0
C46 C 0.51137 0.80602 0.207 0.0
C47 C 0.55953 0.84556 0.18902 0.0
C48 C 0.56726 0.84006 0.15104 0.0
C49 C 0.75591 0.88242 0.03417 0.0
C50 C 0.84442 0.77106 0.09193 0.0
C51 C 0.96449 0.77531 0.96502 0.0
C52 C 0.97214 0.77167 0.92486 0.0
C53 C 1.00241 0.81807 0.90794 0.0
C54 C 0.0081 0.81595 0.86997 0.0
C55 C 0.98442 0.76711 0.84806 0.0
C56 C 0.95415 0.72065 0.86511 0.0
C57 C 0.94779 0.72294 0.90306 0.0
C58 C 0.74474 0.68019 0.02179 0.0
C59 C 0.65591 0.78904 0.96394 0.0
O60 O 0.58206 0.744 0.07784 0.0
O61 O 0.55462 0.83201 0.0738 0.0
O62 O 0.78749 0.83751 0.04366 0.0
O63 O 0.66968 0.87962 0.0344 0.0
O64 O 0.75619 0.77288 0.09111 0.0
O65 O 0.89291 0.77617 0.06251 0.0
O66 O 0.92296 0.81928 0.98017 0.0
O67 O 0.94186 0.72965 0.9795 0.0
O68 O 0.71361 0.72513 1.01227 0.0
O69 O 0.83097 0.68275 0.02118 0.0
O70 O 0.74411 0.79152 0.96498 0.0
O71 O 0.60888 0.78084 0.99323 0.0
H72 H 0.44691 0.72054 0.13248 0.0
H73 H 0.43546 0.72885 0.1988 0.0
H74 H 0.59072 0.88108 0.20419 0.0
H75 H 0.60575 0.87074 0.138 0.0
H76 H 0.02106 0.85623 0.92413 0.0
H77 H 0.03019 0.85286 0.85779 0.0
H78 H 0.93652 0.68211 0.8492 0.0
H79 H 0.92386 0.68643 0.91522 0.0
Tb80 Tb 0.16723 0.77121 0.50856 0.0
Tb81 Tb 0.33834 0.79835 0.54794 0.0
C82 C 0.03763 0.77413 0.4656 0.0
C83 C 0.02842 0.76763 0.42557 0.0
C84 C 0.98028 0.80747 0.4082 0.0
C85 C 0.97287 0.80316 0.37023 0.0
C86 C 0.01279 0.75849 0.34879 0.0
C87 C 0.06117 0.71861 0.36637 0.0
C88 C 0.06939 0.72331 0.40434 0.0
C89 C 0.26028 0.68363 0.52385 0.0
C90 C 0.34581 0.79522 0.464 0.0
C91 C 0.46966 0.79633 0.59022 0.0
C92 C 0.48132 0.79016 0.62952 0.0
C93 C 0.46405 0.7392 0.64409 0.0
C94 C 0.47335 0.73471 0.68148 0.0
C95 C 0.49987 0.78106 0.70513 0.0
C96 C 0.5179 0.83179 0.69039 0.0
C97 C 0.50918 0.83616 0.65301 0.0
C98 C 0.24514 0.88537 0.53177 0.0
C99 C 0.15986 0.77517 0.59222 0.0
O100 O 0.0806 0.81875 0.47905 0.0
O101 O 0.06032 0.7296 0.48134 0.0
O102 O 0.29111 0.72842 0.51371 0.0
O103 O 0.17399 0.68537 0.52306 0.0
O104 O 0.25799 0.7895 0.46455 0.0
O105 O 0.39479 0.79452 0.49376 0.0
O106 O 0.44099 0.75257 0.56971 0.0
O107 O 0.43129 0.84242 0.5821 0.0
O108 O 0.21463 0.84101 0.54266 0.0
O109 O 0.33152 0.88339 0.53182 0.0
O110 O 0.24817 0.77625 0.59144 0.0
O111 O 0.11131 0.78 0.56278 0.0
H112 H 0.94914 0.84236 0.42404 0.0
H113 H 0.9369 0.83543 0.35772 0.0
H114 H 0.0921 0.68337 0.35089 0.0
H115 H 0.1079 0.69228 0.41702 0.0
H116 H 0.44299 0.70275 0.62672 0.0
H117 H 0.46025 0.69477 0.69177 0.0
H118 H 0.53714 0.86857 0.70782 0.0
H119 H 0.52318 0.87587 0.6425 0.0
Tb120 Tb 0.67697 0.25459 0.50616 0.0
Tb121 Tb 0.82558 0.31277 0.54966 0.0
C122 C 0.55541 0.23279 0.45998 0.0
C123 C 0.54944 0.2323 0.41972 0.0
C124 C 0.5504 0.28213 0.40246 0.0
C125 C 0.54409 0.28079 0.36447 0.0
C126 C 0.53732 0.22967 0.34282 0.0
C127 C 0.53693 0.1799 0.3601 0.0
C128 C 0.54246 0.18125 0.39809 0.0
C129 C 0.81108 0.19015 0.52168 0.0
C130 C 0.83406 0.31558 0.46553 0.0
C131 C 0.95245 0.33428 0.59377 0.0
C132 C 0.96859 0.33126 0.63318 0.0
C133 C 0.93762 0.28598 0.65117 0.0
C134 C 0.95218 0.28445 0.68858 0.0
C135 C 0.99694 0.32829 0.70888 0.0
C136 C 0.02981 0.37292 0.69074 0.0
C137 C 0.01558 0.3744 0.6532 0.0
C138 C 0.69217 0.37739 0.53359 0.0
C139 C 0.66495 0.2529 0.58983 0.0
O140 O 0.56474 0.28148 0.47868 0.0
O141 O 0.60627 0.19464 0.47245 0.0
O142 O 0.81587 0.23949 0.51302 0.0
O143 O 0.72869 0.1738 0.51965 0.0
O144 O 0.75162 0.29575 0.46487 0.0
O145 O 0.88176 0.32058 0.49594 0.0
O146 O 0.94317 0.28672 0.57376 0.0
O147 O 0.89457 0.37151 0.58513 0.0
O148 O 0.68707 0.32821 0.54254 0.0
O149 O 0.7747 0.3936 0.53575 0.0
O150 O 0.74842 0.27169 0.59086 0.0
O151 O 0.61807 0.24858 0.55927 0.0
H152 H 0.55596 0.32228 0.41821 0.0
H153 H 0.54508 0.31984 0.352 0.0
H154 H 0.53035 0.13986 0.3443 0.0
H155 H 0.54094 0.14222 0.41061 0.0
H156 H 0.9019 0.25184 0.63641 0.0
H157 H 0.92892 0.24881 0.70173 0.0
H158 H 0.06445 0.40729 0.70575 0.0
H159 H 0.04041 0.4096 0.63985 0.0
H160 H 0.56305 0.66542 1.01583 0.0
H161 H 0.80936 0.57818 0.03467 0.0
H162 H 0.72497 0.49061 0.03829 0.0
H163 H 0.42825 0.59257 0.07785 0.0
H164 H 0.33025 0.5912 0.0494 0.0
H165 H 0.4103 0.64684 0.04801 0.0
H166 H 0.42617 0.62393 0.97818 0.0
H167 H 0.34654 0.56801 0.9794 0.0
H168 H 0.45568 0.5541 0.96031 0.0
H169 H 0.6146 0.41241 0.03933 0.0
H170 H 0.48481 0.3494 0.04032 0.0
H171 H 0.30864 0.48686 0.02163 0.0
C172 C 0.59905 0.62791 0.02088 0.0
C173 C 0.69282 0.6285 0.02497 0.0
C174 C 0.73761 0.5786 0.03144 0.0
C175 C 0.69025 0.52866 0.03349 0.0
C176 C 0.59796 0.52932 0.02917 0.0
C177 C 0.55264 0.57765 0.02322 0.0
C178 C 0.45307 0.56698 0.02004 0.0
C179 C 0.40249 0.60143 0.05065 0.0
C180 C 0.41835 0.57897 0.98223 0.0
C181 C 0.44958 0.50502 0.02495 0.0
C182 C 0.53404 0.48419 0.03007 0.0
C183 C 0.54816 0.42824 0.03533 0.0
C184 C 0.47402 0.3927 0.03571 0.0
C185 C 0.38674 0.41313 0.03089 0.0
C186 C 0.37464 0.47003 0.02526 0.0
H187 H 0.44145 0.6677 0.51574 0.0
H188 H 0.19575 0.58284 0.53923 0.0
H189 H 0.27902 0.49505 0.54285 0.0
H190 H 0.54261 0.55465 0.46051 0.0
H191 H 0.65349 0.56818 0.4781 0.0
H192 H 0.57484 0.62458 0.47728 0.0
H193 H 0.59659 0.64908 0.54671 0.0
H194 H 0.67582 0.59302 0.54772 0.0
H195 H 0.58018 0.59577 0.57739 0.0
H196 H 0.38795 0.41612 0.54293 0.0
H197 H 0.51682 0.3523 0.54273 0.0
H198 H 0.69338 0.48814 0.5207 0.0
C199 C 0.40543 0.63075 0.52197 0.0
C200 C 0.31211 0.63206 0.52729 0.0
C201 C 0.26719 0.58274 0.53505 0.0
C202 C 0.3139 0.53266 0.53712 0.0
C203 C 0.40571 0.53259 0.53157 0.0
C204 C 0.45124 0.58038 0.52444 0.0
C205 C 0.55029 0.56897 0.52011 0.0
C206 C 0.58215 0.57973 0.48171 0.0
C207 C 0.60388 0.60377 0.54975 0.0
C208 C 0.55315 0.50724 0.52565 0.0
C209 C 0.46888 0.48711 0.5321 0.0
C210 C 0.45428 0.43141 0.53797 0.0
C211 C 0.52783 0.39542 0.53767 0.0
C212 C 0.61495 0.41523 0.53163 0.0
C213 C 0.62747 0.47183 0.52533 0.0
H214 H 0.19066 0.07678 0.03489 0.0
H215 H 0.01488 0.21332 1.01391 0.0
H216 H 0.88518 0.15004 1.01457 0.0
H217 H 0.07372 0.97018 0.97859 0.0
H218 H 0.09153 0.91657 1.00891 0.0
H219 H 0.17085 0.97263 1.00759 0.0
H220 H 0.15261 0.99706 0.07719 0.0
H221 H 0.07366 0.94086 0.07875 0.0
H222 H 0.04294 1.01084 0.0958 0.0
H223 H 0.77486 0.07148 1.01588 0.0
H224 H 0.69093 0.98384 0.02003 0.0
H225 H 0.93731 0.89799 0.04087 0.0
C226 C 0.12476 0.09335 0.03066 0.0
C227 C 0.1127 0.15006 0.02455 0.0
C228 C 0.02557 0.17017 0.01893 0.0
C229 C 0.95153 0.13448 0.01912 0.0
C230 C 0.96564 0.0787 0.02493 0.0
C231 C 0.05 0.0582 0.03073 0.0
C232 C 0.04666 0.99641 0.03615 0.0
C233 C 0.09879 0.96193 1.00601 0.0
C234 C 0.08099 0.98568 0.07424 0.0
C235 C 0.9473 0.98545 0.03259 0.0
C236 C 0.90189 0.03345 0.02593 0.0
C237 C 0.80971 0.03371 0.02121 0.0
C238 C 0.7626 0.98372 0.02357 0.0
C239 C 0.80754 0.93418 0.03074 0.0
C240 C 0.90118 0.93519 0.03524 0.0
H241 H 0.81072 0.07946 0.53465 0.0
H242 H 0.98599 0.21539 0.51159 0.0
H243 H 0.11526 0.15191 0.51127 0.0
H244 H 0.96215 1.01403 0.59455 0.0
H245 H 0.92999 0.94394 0.57816 0.0
H246 H 0.85121 1.00022 0.57708 0.0
H247 H 0.82825 0.97496 0.50777 0.0
H248 H 0.90746 0.91885 0.50859 0.0
H249 H 0.92338 0.97206 0.47781 0.0
H250 H 0.22488 0.07347 0.51171 0.0
H251 H 0.30897 0.98607 0.51578 0.0
H252 H 0.06392 0.90056 0.53938 0.0
C253 C 0.87644 0.09584 0.52975 0.0
C254 C 0.88851 0.15242 0.52332 0.0
C255 C 0.97535 0.17233 0.51687 0.0
C256 C 0.04913 0.13652 0.51648 0.0
C257 C 0.035 0.08087 0.52258 0.0
C258 C 0.95097 0.06058 0.52928 0.0
C259 C 0.9544 0.9989 0.53498 0.0
C260 C 0.92256 0.98869 0.57349 0.0
C261 C 0.90014 0.96416 0.50553 0.0
C262 C 0.05344 0.98779 0.53051 0.0
C263 C 0.09853 0.03562 0.52316 0.0
C264 C 0.19034 0.03581 0.51758 0.0
C265 C 0.23751 0.98596 0.5199 0.0
C266 C 0.19301 0.93664 0.5279 0.0
C267 C 0.09966 0.93763 0.53313 0.0
H268 H 0.43376 0.29723 0.30402 0.0
H269 H 0.61838 0.15826 0.29043 0.0
H270 H 0.59373 0.15166 0.22374 0.0
H271 H 0.27635 0.2474 0.23856 0.0
H272 H 0.25514 0.31522 0.22311 0.0
H273 H 0.29254 0.30974 0.26903 0.0
H274 H 0.42312 0.37678 0.25697 0.0
H275 H 0.38497 0.38027 0.21081 0.0
H276 H 0.49756 0.35884 0.21934 0.0
H277 H 0.54372 0.15836 0.15831 0.0
H278 H 0.4696 0.17619 0.10033 0.0
H279 H 0.31443 0.30846 0.15771 0.0
C280 C 0.4704 0.26609 0.287 0.0
C281 C 0.52785 0.22817 0.3025 0.0
C282 C 0.57322 0.18736 0.27922 0.0
C283 C 0.56013 0.18355 0.24129 0.0
C284 C 0.50168 0.22097 0.22699 0.0
C285 C 0.45794 0.26162 0.24917 0.0
C286 C 0.39603 0.29535 0.22729 0.0
C287 C 0.29924 0.29155 0.24033 0.0
C288 C 0.42732 0.35643 0.22869 0.0
C289 C 0.40831 0.2657 0.18958 0.0
C290 C 0.47121 0.22379 0.18974 0.0
C291 C 0.49439 0.19109 0.15791 0.0
C292 C 0.45195 0.20142 0.12514 0.0
C293 C 0.3857 0.24321 0.12465 0.0
C294 C 0.36396 0.27569 0.15735 0.0
H295 H 0.36682 0.78037 0.24807 0.0
H296 H 0.63695 0.84448 0.25791 0.0
H297 H 0.62603 0.84848 0.32486 0.0
H298 H 0.27647 0.86242 0.32525 0.0
H299 H 0.20543 0.80708 0.33804 0.0
H300 H 0.2358 0.81033 0.29094 0.0
H301 H 0.29877 0.70881 0.28889 0.0
H302 H 0.26883 0.7058 0.33611 0.0
H303 H 0.38207 0.69298 0.32163 0.0
H304 H 0.58578 0.84189 0.39151 0.0
H305 H 0.51645 0.8306 0.45141 0.0
H306 H 0.27308 0.77202 0.39648 0.0
C307 C 0.4242 0.79481 0.26414 0.0
C308 C 0.50353 0.8112 0.24747 0.0
C309 C 0.57569 0.83145 0.26986 0.0
C310 C 0.57018 0.83372 0.30799 0.0
C311 C 0.4915 0.81619 0.3234 0.0
C312 C 0.41966 0.79756 0.30211 0.0
C313 C 0.34255 0.7811 0.32513 0.0
C314 C 0.26017 0.81736 0.3195 0.0
C315 C 0.32175 0.71848 0.31747 0.0
C316 C 0.38165 0.79386 0.36275 0.0
C317 C 0.46795 0.81356 0.36134 0.0
C318 C 0.51801 0.82678 0.39291 0.0
C319 C 0.47826 0.82007 0.42676 0.0
C320 C 0.38928 0.80076 0.4286 0.0
C321 C 0.34092 0.78742 0.39607 0.0
H322 H 0.71526 0.83521 0.90349 0.0
H323 H 0.49678 0.74004 0.94394 0.0
H324 H 0.43049 0.72958 0.8822 0.0
H325 H 0.57993 0.90848 0.83876 0.0
H326 H 0.6685 0.90632 0.80564 0.0
H327 H 0.69456 0.90942 0.85357 0.0
H328 H 0.79045 0.82033 0.8417 0.0
H329 H 0.76341 0.8156 0.79387 0.0
H330 H 0.74003 0.75765 0.8202 0.0
H331 H 0.39838 0.72024 0.81493 0.0
H332 H 0.39171 0.72256 0.74826 0.0
H333 H 0.6266 0.8285 0.75244 0.0
C334 C 0.65268 0.81298 0.89944 0.0
C335 C 0.61101 0.7884 0.92834 0.0
C336 C 0.52931 0.75956 0.92214 0.0
C337 C 0.49139 0.75322 0.88718 0.0
C338 C 0.53524 0.77694 0.85904 0.0
C339 C 0.61305 0.80726 0.86496 0.0
C340 C 0.64778 0.82765 0.82999 0.0
C341 C 0.64763 0.89178 0.83212 0.0
C342 C 0.741 0.80393 0.8209 0.0
C343 C 0.57859 0.80285 0.80327 0.0
C344 C 0.51449 0.77357 0.82055 0.0
C345 C 0.44703 0.7441 0.80121 0.0
C346 C 0.44399 0.74555 0.76328 0.0
C347 C 0.50693 0.77708 0.74509 0.0
C348 C 0.57566 0.80549 0.76554 0.0
H349 H 0.73253 0.26903 0.65937 0.0
H350 H 0.49669 0.21093 0.59872 0.0
H351 H 0.42043 0.19671 0.65657 0.0
H352 H 0.71364 0.17372 0.73173 0.0
H353 H 0.756 0.22667 0.7652 0.0
H354 H 0.78882 0.22608 0.71816 0.0
H355 H 0.73305 0.33022 0.71988 0.0
H356 H 0.69699 0.32757 0.76638 0.0
H357 H 0.61881 0.34519 0.73209 0.0
H358 H 0.36914 0.19042 0.72207 0.0
H359 H 0.3479 0.19331 0.78875 0.0
H360 H 0.61728 0.25666 0.80553 0.0
C361 C 0.66523 0.2527 0.65809 0.0
C362 C 0.62089 0.24096 0.62436 0.0
C363 C 0.53234 0.22018 0.62415 0.0
C364 C 0.48835 0.21195 0.65691 0.0
C365 C 0.53371 0.22468 0.68968 0.0
C366 C 0.62029 0.2444 0.69044 0.0
C367 C 0.65357 0.25635 0.72917 0.0
C368 C 0.73272 0.21848 0.73654 0.0
C369 C 0.67704 0.31851 0.73736 0.0
C370 C 0.57221 0.24086 0.75016 0.0
C371 C 0.50379 0.22225 0.72701 0.0
C372 C 0.42248 0.20489 0.74039 0.0
C373 C 0.41118 0.20648 0.77836 0.0
C374 C 0.48055 0.22573 0.80259 0.0
C375 C 0.56207 0.24287 0.78798 0.0
H376 H 0.77215 0.79353 0.15941 0.0
H377 H 0.0158 0.73722 0.10437 0.0
H378 H 0.08592 0.72591 0.16424 0.0
H379 H 0.88158 0.87301 0.2343 0.0
H380 H 0.79846 0.85684 0.26693 0.0
H381 H 0.76837 0.85968 0.21967 0.0
H382 H 0.70562 0.75851 0.21748 0.0
H383 H 0.73582 0.75489 0.26459 0.0
H384 H 0.77677 0.70319 0.2302 0.0
H385 H 0.12643 0.71818 0.23074 0.0
H386 H 0.13779 0.72104 0.29763 0.0
H387 H 0.86779 0.78473 0.30789 0.0
C388 C 0.84022 0.77863 0.15983 0.0
C389 C 0.88846 0.76582 0.12728 0.0
C390 C 0.97778 0.7473 0.12906 0.0
C391 C 0.01794 0.74057 0.16288 0.0
C392 C 0.968 0.75319 0.19448 0.0
C393 C 0.88144 0.77239 0.19315 0.0
C394 C 0.8427 0.78473 0.23085 0.0
C395 C 0.82144 0.84726 0.23838 0.0
C396 C 0.76033 0.74817 0.23608 0.0
C397 C 0.92018 0.76838 0.25378 0.0
C398 C 0.99192 0.75028 0.2324 0.0
C399 C 0.07072 0.73264 0.24768 0.0
C400 C 0.07649 0.73428 0.28579 0.0
C401 C 0.00454 0.75409 0.3083 0.0
C402 C 0.92506 0.77064 0.29174 0.0
H403 H 0.75474 0.31021 0.39802 0.0
H404 H 0.00694 0.34674 0.45329 0.0
H405 H 0.07744 0.35944 0.39403 0.0
H406 H 0.84309 0.2313 0.32033 0.0
H407 H 0.76434 0.25741 0.28902 0.0
H408 H 0.73435 0.25406 0.33606 0.0
H409 H 0.69699 0.36026 0.34128 0.0
H410 H 0.72703 0.3626 0.29411 0.0
H411 H 0.78021 0.40905 0.32882 0.0
H412 H 0.12253 0.36268 0.32845 0.0
H413 H 0.13757 0.35956 0.26145 0.0
H414 H 0.85618 0.32162 0.24891 0.0
C415 C 0.82461 0.32151 0.39785 0.0
C416 C 0.87527 0.32755 0.43047 0.0
C417 C 0.96659 0.34209 0.42879 0.0
C418 C 0.00727 0.34932 0.39522 0.0
C419 C 0.95567 0.34219 0.36359 0.0
C420 C 0.86616 0.32899 0.36464 0.0
C421 C 0.82607 0.32227 0.32664 0.0
C422 C 0.78987 0.26273 0.31748 0.0
C423 C 0.75327 0.36617 0.32247 0.0
C424 C 0.90739 0.33308 0.30395 0.0
C425 C 0.98143 0.34449 0.32583 0.0
C426 C 0.06495 0.35406 0.31111 0.0
C427 C 0.07307 0.35178 0.27307 0.0
C428 C 0.99829 0.34007 0.25015 0.0
C429 C 0.91424 0.33114 0.26588 0.0
H430 H 0.1483 0.34282 0.75133 0.0
H431 H 0.8641 0.3133 0.75699 0.0
H432 H 0.87428 0.31275 0.82387 0.0
H433 H 0.20843 0.25149 0.81841 0.0
H434 H 0.29809 0.29478 0.8375 0.0
H435 H 0.26718 0.29713 0.79043 0.0
H436 H 0.24438 0.40398 0.8016 0.0
H437 H 0.27491 0.40176 0.84879 0.0
H438 H 0.16967 0.43154 0.83708 0.0
H439 H 0.91552 0.31498 0.89011 0.0
H440 H 0.98681 0.30982 0.95022 0.0
H441 H 0.24609 0.33239 0.90149 0.0
C442 C 0.08827 0.33687 0.7668 0.0
C443 C 0.00501 0.32847 0.7491 0.0
C444 C 0.92819 0.31975 0.77009 0.0
C445 C 0.93338 0.31971 0.80808 0.0
C446 C 0.01631 0.32798 0.82477 0.0
C447 C 0.09263 0.33578 0.80482 0.0
C448 C 0.17425 0.34009 0.8293 0.0
C449 C 0.24087 0.29305 0.81824 0.0
C450 C 0.21838 0.39778 0.82918 0.0
C451 C 0.13197 0.33273 0.86593 0.0
C452 C 0.04061 0.3269 0.86281 0.0
C453 C 0.98704 0.31951 0.89291 0.0
C454 C 0.02809 0.31689 0.92699 0.0
C455 C 0.12193 0.3207 0.93059 0.0
C456 C 0.17417 0.32933 0.89962 0.0
H457 H 0.21964 0.81493 0.65949 0.0
H458 H 0.99902 0.72664 0.60397 0.0
H459 H 0.92679 0.7169 0.66352 0.0
H460 H 0.23175 0.73796 0.73571 0.0
H461 H 0.25525 0.79723 0.76794 0.0
H462 H 0.28735 0.79847 0.72095 0.0
H463 H 0.19821 0.88978 0.71706 0.0
H464 H 0.16573 0.88888 0.76409 0.0
H465 H 0.08183 0.89185 0.72923 0.0
H466 H 0.88586 0.71048 0.72954 0.0
H467 H 0.87247 0.7144 0.7964 0.0
H468 H 0.11616 0.81198 0.80802 0.0
C469 C 0.15597 0.7937 0.6599 0.0
C470 C 0.11498 0.77106 0.62736 0.0
C471 C 0.03123 0.74424 0.62877 0.0
C472 C 0.98989 0.73851 0.66238 0.0
C473 C 0.03243 0.76101 0.69408 0.0
C474 C 0.11284 0.7889 0.69304 0.0
C475 C 0.14434 0.80972 0.73088 0.0
C476 C 0.23504 0.78432 0.73936 0.0
C477 C 0.14768 0.87387 0.73558 0.0
C478 C 0.07083 0.78742 0.75355 0.0
C479 C 0.00679 0.75954 0.73186 0.0
C480 C 0.93487 0.73299 0.74677 0.0
C481 C 0.92805 0.73531 0.78485 0.0
C482 C 0.99214 0.76455 0.80767 0.0
C483 C 0.06452 0.79069 0.79152 0.0
loop_
_geom_bond_atom_site_label_1
_geom_bond_atom_site_label_2
_geom_bond_distance
_geom_bond_site_symmetry_2
_ccdc_geom_bond_type
Tb0 C2 2.809 . S
Tb0 O20 2.484 . S
Tb0 O21 2.440 . S
Tb0 O22 2.658 1_554 S
Tb0 O23 2.409 . S
Tb0 O24 2.378 . S
Tb0 O28 2.325 . S
Tb0 O31 2.341 1_554 S
Tb1 C11 2.809 . S
Tb1 O22 2.325 . S
Tb1 O25 2.341 1_556 S
Tb1 O26 2.484 . S
Tb1 O27 2.440 . S
Tb1 O28 2.658 1_556 S
Tb1 O29 2.409 . S
Tb1 O30 2.378 . S
C2 Tb0 2.809 . S
C2 C3 1.514 . S
C2 O20 1.248 . S
C2 O21 1.266 . S
C3 C2 1.514 . S
C3 C4 1.359 . S
C3 C8 1.348 . S
C4 C3 1.359 . S
C4 C5 1.380 . S
C4 H32 0.929 . S
C5 C4 1.380 . S
C5 C6 1.347 . S
C5 H33 0.931 1_455 S
C6 C5 1.347 . S
C6 C7 1.369 . S
C7 C6 1.369 . S
C7 C8 1.408 . S
C7 H34 0.930 . S
C8 C3 1.348 . S
C8 C7 1.408 . S
C8 H35 0.930 . S
C9 O22 1.281 1_554 S
C9 O23 1.254 . S
C10 O24 1.236 . S
C10 O25 1.266 . S
C11 Tb1 2.809 . S
C11 C12 1.514 . S
C11 O26 1.248 . S
C11 O27 1.266 . S
C12 C11 1.514 . S
C12 C13 1.359 . S
C12 C17 1.348 . S
C13 C12 1.359 . S
C13 C14 1.380 . S
C13 H36 0.929 . S
C14 C13 1.380 . S
C14 C15 1.347 . S
C14 H37 0.931 . S
C15 C14 1.347 . S
C15 C16 1.369 . S
C16 C15 1.369 . S
C16 C17 1.408 . S
C16 H38 0.930 . S
C17 C12 1.348 . S
C17 C16 1.408 . S
C17 H39 0.930 . S
C18 O28 1.281 . S
C18 O29 1.254 1_554 S
C19 O30 1.236 . S
C19 O31 1.266 . S
O20 Tb0 2.484 . S
O20 C2 1.248 . S
O21 Tb0 2.440 . S
O21 C2 1.266 . S
O22 Tb0 2.658 1_556 S
O22 Tb1 2.325 . S
O22 C9 1.281 1_556 S
O23 Tb0 2.409 . S
O23 C9 1.254 . S
O24 Tb0 2.378 . S
O24 C10 1.236 . S
O25 Tb1 2.341 1_554 S
O25 C10 1.266 . S
O26 Tb1 2.484 . S
O26 C11 1.248 . S
O27 Tb1 2.440 . S
O27 C11 1.266 . S
O28 Tb0 2.325 . S
O28 Tb1 2.658 1_554 S
O28 C18 1.281 . S
O29 Tb1 2.409 . S
O29 C18 1.254 1_556 S
O30 Tb1 2.378 . S
O30 C19 1.236 . S
O31 Tb0 2.341 1_556 S
O31 C19 1.266 . S
H32 C4 0.929 . S
H33 C5 0.931 1_655 S
H34 C7 0.930 . S
H35 C8 0.930 . S
H36 C13 0.929 . S
H37 C14 0.931 . S
H38 C16 0.930 . S
H39 C17 0.930 . S
Tb40 C42 2.809 . S
Tb40 O60 2.484 . S
Tb40 O61 2.440 . S
Tb40 O62 2.658 1_554 S
Tb40 O63 2.409 . S
Tb40 O64 2.378 . S
Tb40 O68 2.325 . S
Tb40 O71 2.341 1_554 S
Tb41 C51 2.809 . S
Tb41 O62 2.325 . S
Tb41 O65 2.341 1_556 S
Tb41 O66 2.484 . S
Tb41 O67 2.440 . S
Tb41 O68 2.658 1_556 S
Tb41 O69 2.409 . S
Tb41 O70 2.378 . S
C42 Tb40 2.809 . S
C42 C43 1.514 . S
C42 O60 1.248 . S
C42 O61 1.266 . S
C43 C42 1.514 . S
C43 C44 1.359 . S
C43 C48 1.348 . S
C44 C43 1.359 . S
C44 C45 1.380 . S
C44 H72 0.929 . S
C45 C44 1.380 . S
C45 C46 1.347 . S
C45 H73 0.931 . S
C46 C45 1.347 . S
C46 C47 1.369 . S
C47 C46 1.369 . S
C47 C48 1.408 . S
C47 H74 0.930 . S
C48 C43 1.348 . S
C48 C47 1.408 . S
C48 H75 0.930 . S
C49 O62 1.281 1_554 S
C49 O63 1.254 . S
C50 O64 1.236 . S
C50 O65 1.266 . S
C51 Tb41 2.809 . S
C51 C52 1.514 . S
C51 O66 1.248 . S
C51 O67 1.266 . S
C52 C51 1.514 . S
C52 C53 1.359 . S
C52 C57 1.348 . S
C53 C52 1.359 . S
C53 C54 1.380 . S
C53 H76 0.929 . S
C54 C53 1.380 . S
C54 C55 1.347 . S
C54 H77 0.931 1_655 S
C55 C54 1.347 . S
C55 C56 1.369 . S
C56 C55 1.369 . S
C56 C57 1.408 . S
C56 H78 0.930 . S
C57 C52 1.348 . S
C57 C56 1.408 . S
C57 H79 0.930 . S
C58 O68 1.281 . S
C58 O69 1.254 1_554 S
C59 O70 1.236 . S
C59 O71 1.266 . S
O60 Tb40 2.484 . S
O60 C42 1.248 . S
O61 Tb40 2.440 . S
O61 C42 1.266 . S
O62 Tb40 2.658 1_556 S
O62 Tb41 2.325 . S
O62 C49 1.281 1_556 S
O63 Tb40 2.409 . S
O63 C49 1.254 . S
O64 Tb40 2.378 . S
O64 C50 1.236 . S
O65 Tb41 2.341 1_554 S
O65 C50 1.266 . S
O66 Tb41 2.484 . S
O66 C51 1.248 . S
O67 Tb41 2.440 . S
O67 C51 1.266 . S
O68 Tb40 2.325 . S
O68 Tb41 2.658 1_554 S
O68 C58 1.281 . S
O69 Tb41 2.409 . S
O69 C58 1.254 1_556 S
O70 Tb41 2.378 . S
O70 C59 1.236 . S
O71 Tb40 2.341 1_556 S
O71 C59 1.266 . S
H72 C44 0.929 . S
H73 C45 0.931 . S
H74 C47 0.930 . S
H75 C48 0.930 . S
H76 C53 0.929 . S
H77 C54 0.931 1_455 S
H78 C56 0.930 . S
H79 C57 0.930 . S
Tb80 C82 2.809 . S
Tb80 O100 2.484 . S
Tb80 O101 2.440 . S
Tb80 O102 2.658 . S
Tb80 O103 2.409 . S
Tb80 O104 2.378 . S
Tb80 O108 2.325 . S
Tb80 O111 2.341 . S
Tb81 C91 2.809 . S
Tb81 O102 2.325 . S
Tb81 O105 2.341 . S
Tb81 O106 2.484 . S
Tb81 O107 2.440 . S
Tb81 O108 2.658 . S
Tb81 O109 2.409 . S
Tb81 O110 2.378 . S
C82 Tb80 2.809 . S
C82 C83 1.514 . S
C82 O100 1.248 . S
C82 O101 1.266 . S
C83 C82 1.514 . S
C83 C84 1.359 . S
C83 C88 1.348 . S
C84 C83 1.359 . S
C84 C85 1.380 . S
C84 H112 0.929 . S
C85 C84 1.380 . S
C85 C86 1.347 . S
C85 H113 0.931 1_455 S
C86 C85 1.347 . S
C86 C87 1.369 . S
C87 C86 1.369 . S
C87 C88 1.408 . S
C87 H114 0.930 . S
C88 C83 1.348 . S
C88 C87 1.408 . S
C88 H115 0.930 . S
C89 O102 1.281 . S
C89 O103 1.254 . S
C90 O104 1.236 . S
C90 O105 1.266 . S
C91 Tb81 2.809 . S
C91 C92 1.514 . S
C91 O106 1.248 . S
C91 O107 1.266 . S
C92 C91 1.514 . S
C92 C93 1.359 . S
C92 C97 1.348 . S
C93 C92 1.359 . S
C93 C94 1.380 . S
C93 H116 0.929 . S
C94 C93 1.380 . S
C94 C95 1.347 . S
C94 H117 0.931 . S
C95 C94 1.347 . S
C95 C96 1.369 . S
C96 C95 1.369 . S
C96 C97 1.408 . S
C96 H118 0.930 . S
C97 C92 1.348 . S
C97 C96 1.408 . S
C97 H119 0.930 . S
C98 O108 1.281 . S
C98 O109 1.254 . S
C99 O110 1.236 . S
C99 O111 1.266 . S
O100 Tb80 2.484 . S
O100 C82 1.248 . S
O101 Tb80 2.440 . S
O101 C82 1.266 . S
O102 Tb80 2.658 . S
O102 Tb81 2.325 . S
O102 C89 1.281 . S
O103 Tb80 2.409 . S
O103 C89 1.254 . S
O104 Tb80 2.378 . S
O104 C90 1.236 . S
O105 Tb81 2.341 . S
O105 C90 1.266 . S
O106 Tb81 2.484 . S
O106 C91 1.248 . S
O107 Tb81 2.440 . S
O107 C91 1.266 . S
O108 Tb80 2.325 . S
O108 Tb81 2.658 . S
O108 C98 1.281 . S
O109 Tb81 2.409 . S
O109 C98 1.254 . S
O110 Tb81 2.378 . S
O110 C99 1.236 . S
O111 Tb80 2.341 . S
O111 C99 1.266 . S
H112 C84 0.929 . S
H113 C85 0.931 1_655 S
H114 C87 0.930 . S
H115 C88 0.930 . S
H116 C93 0.929 . S
H117 C94 0.931 . S
H118 C96 0.930 . S
H119 C97 0.930 . S
Tb120 C122 2.809 . S
Tb120 O140 2.484 . S
Tb120 O141 2.440 . S
Tb120 O142 2.658 . S
Tb120 O143 2.409 . S
Tb120 O144 2.378 . S
Tb120 O148 2.325 . S
Tb120 O151 2.341 . S
Tb121 C131 2.809 . S
Tb121 O142 2.325 . S
Tb121 O145 2.341 . S
Tb121 O146 2.484 . S
Tb121 O147 2.440 . S
Tb121 O148 2.658 . S
Tb121 O149 2.409 . S
Tb121 O150 2.378 . S
C122 Tb120 2.809 . S
C122 C123 1.514 . S
C122 O140 1.248 . S
C122 O141 1.266 . S
C123 C122 1.514 . S
C123 C124 1.359 . S
C123 C128 1.348 . S
C124 C123 1.359 . S
C124 C125 1.380 . S
C124 H152 0.929 . S
C125 C124 1.380 . S
C125 C126 1.347 . S
C125 H153 0.931 . S
C126 C125 1.347 . S
C126 C127 1.369 . S
C127 C126 1.369 . S
C127 C128 1.408 . S
C127 H154 0.930 . S
C128 C123 1.348 . S
C128 C127 1.408 . S
C128 H155 0.930 . S
C129 O142 1.281 . S
C129 O143 1.254 . S
C130 O144 1.236 . S
C130 O145 1.266 . S
C131 Tb121 2.809 . S
C131 C132 1.514 . S
C131 O146 1.248 . S
C131 O147 1.266 . S
C132 C131 1.514 . S
C132 C133 1.359 . S
C132 C137 1.348 . S
C133 C132 1.359 . S
C133 C134 1.380 . S
C133 H156 0.929 . S
C134 C133 1.380 . S
C134 C135 1.347 . S
C134 H157 0.931 1_655 S
C135 C134 1.347 . S
C135 C136 1.369 . S
C136 C135 1.369 . S
C136 C137 1.408 . S
C136 H158 0.930 . S
C137 C132 1.348 . S
C137 C136 1.408 . S
C137 H159 0.930 . S
C138 O148 1.281 . S
C138 O149 1.254 . S
C139 O150 1.236 . S
C139 O151 1.266 . S
O140 Tb120 2.484 . S
O140 C122 1.248 . S
O141 Tb120 2.440 . S
O141 C122 1.266 . S
O142 Tb120 2.658 . S
O142 Tb121 2.325 . S
O142 C129 1.281 . S
O143 Tb120 2.409 . S
O143 C129 1.254 . S
O144 Tb120 2.378 . S
O144 C130 1.236 . S
O145 Tb121 2.341 . S
O145 C130 1.266 . S
O146 Tb121 2.484 . S
O146 C131 1.248 . S
O147 Tb121 2.440 . S
O147 C131 1.266 . S
O148 Tb120 2.325 . S
O148 Tb121 2.658 . S
O148 C138 1.281 . S
O149 Tb121 2.409 . S
O149 C138 1.254 . S
O150 Tb121 2.378 . S
O150 C139 1.236 . S
O151 Tb120 2.341 . S
O151 C139 1.266 . S
H152 C124 0.929 . S
H153 C125 0.931 . S
H154 C127 0.930 . S
H155 C128 0.930 . S
H156 C133 0.929 . S
H157 C134 0.931 1_455 S
H158 C136 0.930 . S
H159 C137 0.930 . S
H160 C172 0.932 . S
H161 C174 0.930 . S
H162 C175 0.930 . S
H163 C179 0.959 . S
H164 C179 0.959 . S
H165 C179 0.961 . S
H166 C180 0.960 . S
H167 C180 0.961 . S
H168 C180 0.959 . S
H169 C183 0.929 . S
H170 C184 0.931 . S
H171 C186 0.928 1_556 S
C172 H160 0.932 . S
C172 C173 1.399 . S
C172 C177 1.399 . S
C173 C172 1.399 . S
C173 C174 1.376 . S
C174 H161 0.930 . S
C174 C173 1.376 . S
C174 C175 1.388 . S
C175 H162 0.930 . S
C175 C174 1.388 . S
C175 C176 1.390 . S
C176 C175 1.390 . S
C176 C177 1.394 . S
C176 C182 1.465 . S
C177 C172 1.399 . S
C177 C176 1.394 . S
C177 C178 1.516 1_554 S
C178 C177 1.516 1_556 S
C178 C179 1.502 1_556 S
C178 C180 1.561 . S
C178 C181 1.526 1_556 S
C179 H163 0.959 . S
C179 H164 0.959 . S
C179 H165 0.961 . S
C179 C178 1.502 1_554 S
C180 H166 0.960 . S
C180 H167 0.961 . S
C180 H168 0.959 . S
C180 C178 1.561 . S
C181 C178 1.526 1_554 S
C181 C182 1.396 . S
C181 C186 1.390 . S
C182 C176 1.465 . S
C182 C181 1.396 . S
C182 C183 1.399 . S
C183 H169 0.929 . S
C183 C182 1.399 . S
C183 C184 1.385 . S
C184 H170 0.931 . S
C184 C183 1.385 . S
C184 C185 1.389 . S
C185 C184 1.389 . S
C185 C186 1.387 . S
C186 H171 0.928 1_554 S
C186 C181 1.390 . S
C186 C185 1.387 . S
H187 C199 0.930 . S
H188 C201 0.930 . S
H189 C202 0.930 . S
H190 C206 0.959 . S
H191 C206 0.959 . S
H192 C206 0.961 . S
H193 C207 0.960 . S
H194 C207 0.961 . S
H195 C207 0.959 . S
H196 C210 0.929 . S
H197 C211 0.931 . S
H198 C213 0.930 . S
C199 H187 0.930 . S
C199 C200 1.399 . S
C199 C204 1.399 . S
C200 C199 1.399 . S
C200 C201 1.376 . S
C201 H188 0.930 . S
C201 C200 1.376 . S
C201 C202 1.388 . S
C202 H189 0.930 . S
C202 C201 1.388 . S
C202 C203 1.390 . S
C203 C202 1.390 . S
C203 C204 1.394 . S
C203 C209 1.465 . S
C204 C199 1.399 . S
C204 C203 1.394 . S
C204 C205 1.516 . S
C205 C204 1.516 . S
C205 C206 1.502 . S
C205 C207 1.561 . S
C205 C208 1.526 . S
C206 H190 0.959 . S
C206 H191 0.959 . S
C206 H192 0.961 . S
C206 C205 1.502 . S
C207 H193 0.960 . S
C207 H194 0.961 . S
C207 H195 0.959 . S
C207 C205 1.561 . S
C208 C205 1.526 . S
C208 C209 1.396 . S
C208 C213 1.390 . S
C209 C203 1.465 . S
C209 C208 1.396 . S
C209 C210 1.399 . S
C210 H196 0.929 . S
C210 C209 1.399 . S
C210 C211 1.385 . S
C211 H197 0.931 . S
C211 C210 1.385 . S
C211 C212 1.389 . S
C212 C211 1.389 . S
C212 C213 1.387 . S
C213 H198 0.930 . S
C213 C208 1.390 . S
C213 C212 1.387 . S
H214 C226 0.930 . S
H215 C228 0.930 . S
H216 C229 0.930 1_655 S
H217 C233 0.959 . S
H218 C233 0.959 . S
H219 C233 0.961 . S
H220 C234 0.960 1_455 S
H221 C234 0.961 1_565 S
H222 C234 0.959 . S
H223 C237 0.929 . S
H224 C238 0.931 . S
H225 C240 0.930 . S
C226 H214 0.930 . S
C226 C227 1.399 . S
C226 C231 1.399 . S
C227 C226 1.399 . S
C227 C228 1.376 1_554 S
C228 H215 0.930 . S
C228 C227 1.376 1_556 S
C228 C229 1.388 . S
C229 H216 0.930 1_455 S
C229 C228 1.388 . S
C229 C230 1.390 . S
C230 C229 1.390 . S
C230 C231 1.394 1_556 S
C230 C236 1.465 1_445 S
C231 C226 1.399 . S
C231 C230 1.394 1_554 S
C231 C232 1.516 1_545 S
C232 C231 1.516 1_565 S
C232 C233 1.502 . S
C232 C234 1.561 1_465 S
C232 C235 1.526 1_455 S
C233 H217 0.959 . S
C233 H218 0.959 . S
C233 H219 0.961 . S
C233 C232 1.502 . S
C234 H220 0.960 1_655 S
C234 H221 0.961 1_545 S
C234 H222 0.959 . S
C234 C232 1.561 1_645 S
C235 C232 1.526 1_655 S
C235 C236 1.396 1_554 S
C235 C240 1.390 . S
C236 C230 1.465 1_665 S
C236 C235 1.396 1_556 S
C236 C237 1.399 . S
C237 H223 0.929 . S
C237 C236 1.399 . S
C237 C238 1.385 . S
C238 H224 0.931 . S
C238 C237 1.385 . S
C238 C239 1.389 1_556 S
C239 C238 1.389 1_554 S
C239 C240 1.387 . S
C240 H225 0.930 . S
C240 C235 1.390 . S
C240 C239 1.387 . S
H241 C253 0.930 . S
H242 C255 0.930 . S
H243 C256 0.930 1_455 S
H244 C260 0.959 . S
H245 C260 0.959 . S
H246 C260 0.961 . S
H247 C261 0.960 1_545 S
H248 C261 0.961 1_455 S
H249 C261 0.959 1_445 S
H250 C264 0.929 . S
H251 C265 0.931 . S
H252 C267 0.930 . S
C253 H241 0.930 . S
C253 C254 1.399 . S
C253 C258 1.399 . S
C254 C253 1.399 . S
C254 C255 1.376 . S
C255 H242 0.930 . S
C255 C254 1.376 . S
C255 C256 1.388 . S
C256 H243 0.930 1_655 S
C256 C255 1.388 . S
C256 C257 1.390 . S
C257 C256 1.390 . S
C257 C258 1.394 . S
C257 C263 1.465 1_645 S
C258 C253 1.399 . S
C258 C257 1.394 . S
C258 C259 1.516 1_545 S
C259 C258 1.516 1_565 S
C259 C260 1.502 . S
C259 C261 1.561 . S
C259 C262 1.526 1_655 S
C260 H244 0.959 . S
C260 H245 0.959 . S
C260 H246 0.961 . S
C260 C259 1.502 . S
C261 H247 0.960 1_565 S
C261 H248 0.961 1_655 S
C261 H249 0.959 1_665 S
C261 C259 1.561 . S
C262 C259 1.526 1_455 S
C262 C263 1.396 . S
C262 C267 1.390 . S
C263 C257 1.465 1_465 S
C263 C262 1.396 . S
C263 C264 1.399 . S
C264 H250 0.929 . S
C264 C263 1.399 . S
C264 C265 1.385 . S
C265 H251 0.931 . S
C265 C264 1.385 . S
C265 C266 1.389 . S
C266 C265 1.389 . S
C266 C267 1.387 . S
C267 H252 0.930 . S
C267 C262 1.390 . S
C267 C266 1.387 . S
H268 C280 0.930 . S
H269 C282 0.930 . S
H270 C283 0.930 . S
H271 C287 0.959 . S
H272 C287 0.959 . S
H273 C287 0.961 . S
H274 C288 0.960 . S
H275 C288 0.961 . S
H276 C288 0.959 . S
H277 C291 0.929 . S
H278 C292 0.931 . S
H279 C294 0.930 . S
C280 H268 0.930 . S
C280 C281 1.399 . S
C280 C285 1.399 . S
C281 C280 1.399 . S
C281 C282 1.376 . S
C282 H269 0.930 . S
C282 C281 1.376 . S
C282 C283 1.388 . S
C283 H270 0.930 . S
C283 C282 1.388 . S
C283 C284 1.390 . S
C284 C283 1.390 . S
C284 C285 1.394 . S
C284 C290 1.465 . S
C285 C280 1.399 . S
C285 C284 1.394 . S
C285 C286 1.516 . S
C286 C285 1.516 . S
C286 C287 1.502 . S
C286 C288 1.561 . S
C286 C289 1.526 . S
C287 H271 0.959 . S
C287 H272 0.959 . S
C287 H273 0.961 . S
C287 C286 1.502 . S
C288 H274 0.960 . S
C288 H275 0.961 . S
C288 H276 0.959 . S
C288 C286 1.561 . S
C289 C286 1.526 . S
C289 C290 1.396 . S
C289 C294 1.390 . S
C290 C284 1.465 . S
C290 C289 1.396 . S
C290 C291 1.399 . S
C291 H277 0.929 . S
C291 C290 1.399 . S
C291 C292 1.385 . S
C292 H278 0.931 . S
C292 C291 1.385 . S
C292 C293 1.389 . S
C293 C292 1.389 . S
C293 C294 1.387 . S
C294 H279 0.930 . S
C294 C289 1.390 . S
C294 C293 1.387 . S
H295 C307 0.930 . S
H296 C309 0.930 . S
H297 C310 0.930 . S
H298 C314 0.959 . S
H299 C314 0.959 . S
H300 C314 0.961 . S
H301 C315 0.960 . S
H302 C315 0.961 . S
H303 C315 0.959 . S
H304 C318 0.929 . S
H305 C319 0.931 . S
H306 C321 0.930 . S
C307 H295 0.930 . S
C307 C308 1.399 . S
C307 C312 1.399 . S
C308 C307 1.399 . S
C308 C309 1.376 . S
C309 H296 0.930 . S
C309 C308 1.376 . S
C309 C310 1.388 . S
C310 H297 0.930 . S
C310 C309 1.388 . S
C310 C311 1.390 . S
C311 C310 1.390 . S
C311 C312 1.394 . S
C311 C317 1.465 . S
C312 C307 1.399 . S
C312 C311 1.394 . S
C312 C313 1.516 . S
C313 C312 1.516 . S
C313 C314 1.502 . S
C313 C315 1.561 . S
C313 C316 1.526 . S
C314 H298 0.959 . S
C314 H299 0.959 . S
C314 H300 0.961 . S
C314 C313 1.502 . S
C315 H301 0.960 . S
C315 H302 0.961 . S
C315 H303 0.959 . S
C315 C313 1.561 . S
C316 C313 1.526 . S
C316 C317 1.396 . S
C316 C321 1.390 . S
C317 C311 1.465 . S
C317 C316 1.396 . S
C317 C318 1.399 . S
C318 H304 0.929 . S
C318 C317 1.399 . S
C318 C319 1.385 . S
C319 H305 0.931 . S
C319 C318 1.385 . S
C319 C320 1.389 . S
C320 C319 1.389 . S
C320 C321 1.387 . S
C321 H306 0.930 . S
C321 C316 1.390 . S
C321 C320 1.387 . S
H322 C334 0.930 . S
H323 C336 0.930 . S
H324 C337 0.930 . S
H325 C341 0.959 . S
H326 C341 0.959 . S
H327 C341 0.961 . S
H328 C342 0.960 . S
H329 C342 0.961 . S
H330 C342 0.959 . S
H331 C345 0.929 . S
H332 C346 0.931 . S
H333 C348 0.930 . S
C334 H322 0.930 . S
C334 C335 1.399 . S
C334 C339 1.399 . S
C335 C334 1.399 . S
C335 C336 1.376 . S
C336 H323 0.930 . S
C336 C335 1.376 . S
C336 C337 1.388 . S
C337 H324 0.930 . S
C337 C336 1.388 . S
C337 C338 1.390 . S
C338 C337 1.390 . S
C338 C339 1.394 . S
C338 C344 1.465 . S
C339 C334 1.399 . S
C339 C338 1.394 . S
C339 C340 1.516 . S
C340 C339 1.516 . S
C340 C341 1.502 . S
C340 C342 1.561 . S
C340 C343 1.526 . S
C341 H325 0.959 . S
C341 H326 0.959 . S
C341 H327 0.961 . S
C341 C340 1.502 . S
C342 H328 0.960 . S
C342 H329 0.961 . S
C342 H330 0.959 . S
C342 C340 1.561 . S
C343 C340 1.526 . S
C343 C344 1.396 . S
C343 C348 1.390 . S
C344 C338 1.465 . S
C344 C343 1.396 . S
C344 C345 1.399 . S
C345 H331 0.929 . S
C345 C344 1.399 . S
C345 C346 1.385 . S
C346 H332 0.931 . S
C346 C345 1.385 . S
C346 C347 1.389 . S
C347 C346 1.389 . S
C347 C348 1.387 . S
C348 H333 0.930 . S
C348 C343 1.390 . S
C348 C347 1.387 . S
H349 C361 0.930 . S
H350 C363 0.930 . S
H351 C364 0.930 . S
H352 C368 0.959 . S
H353 C368 0.959 . S
H354 C368 0.961 . S
H355 C369 0.960 . S
H356 C369 0.961 . S
H357 C369 0.959 . S
H358 C372 0.929 . S
H359 C373 0.931 . S
H360 C375 0.930 . S
C361 H349 0.930 . S
C361 C362 1.399 . S
C361 C366 1.399 . S
C362 C361 1.399 . S
C362 C363 1.376 . S
C363 H350 0.930 . S
C363 C362 1.376 . S
C363 C364 1.388 . S
C364 H351 0.930 . S
C364 C363 1.388 . S
C364 C365 1.390 . S
C365 C364 1.390 . S
C365 C366 1.394 . S
C365 C371 1.465 . S
C366 C361 1.399 . S
C366 C365 1.394 . S
C366 C367 1.516 . S
C367 C366 1.516 . S
C367 C368 1.502 . S
C367 C369 1.561 . S
C367 C370 1.526 . S
C368 H352 0.959 . S
C368 H353 0.959 . S
C368 H354 0.961 . S
C368 C367 1.502 . S
C369 H355 0.960 . S
C369 H356 0.961 . S
C369 H357 0.959 . S
C369 C367 1.561 . S
C370 C367 1.526 . S
C370 C371 1.396 . S
C370 C375 1.390 . S
C371 C365 1.465 . S
C371 C370 1.396 . S
C371 C372 1.399 . S
C372 H358 0.929 . S
C372 C371 1.399 . S
C372 C373 1.385 . S
C373 H359 0.931 . S
C373 C372 1.385 . S
C373 C374 1.389 . S
C374 C373 1.389 . S
C374 C375 1.387 . S
C375 H360 0.930 . S
C375 C370 1.390 . S
C375 C374 1.387 . S
H376 C388 0.930 . S
H377 C390 0.930 . S
H378 C391 0.930 . S
H379 C395 0.959 . S
H380 C395 0.959 . S
H381 C395 0.961 . S
H382 C396 0.960 . S
H383 C396 0.961 . S
H384 C396 0.959 . S
H385 C399 0.929 . S
H386 C400 0.931 . S
H387 C402 0.930 . S
C388 H376 0.930 . S
C388 C389 1.399 . S
C388 C393 1.399 . S
C389 C388 1.399 . S
C389 C390 1.376 . S
C390 H377 0.930 . S
C390 C389 1.376 . S
C390 C391 1.388 . S
C391 H378 0.930 . S
C391 C390 1.388 . S
C391 C392 1.390 . S
C392 C391 1.390 . S
C392 C393 1.394 . S
C392 C398 1.465 . S
C393 C388 1.399 . S
C393 C392 1.394 . S
C393 C394 1.516 . S
C394 C393 1.516 . S
C394 C395 1.502 1_655 S
C394 C396 1.561 . S
C394 C397 1.526 . S
C395 H379 0.959 . S
C395 H380 0.959 . S
C395 H381 0.961 . S
C395 C394 1.502 1_455 S
C396 H382 0.960 . S
C396 H383 0.961 . S
C396 H384 0.959 . S
C396 C394 1.561 . S
C397 C394 1.526 . S
C397 C398 1.396 . S
C397 C402 1.390 . S
C398 C392 1.465 . S
C398 C397 1.396 . S
C398 C399 1.399 . S
C399 H385 0.929 . S
C399 C398 1.399 . S
C399 C400 1.385 . S
C400 H386 0.931 . S
C400 C399 1.385 . S
C400 C401 1.389 . S
C401 C400 1.389 . S
C401 C402 1.387 . S
C402 H387 0.930 . S
C402 C397 1.390 . S
C402 C401 1.387 . S
H403 C415 0.930 . S
H404 C417 0.930 . S
H405 C418 0.930 . S
H406 C422 0.959 . S
H407 C422 0.959 . S
H408 C422 0.961 . S
H409 C423 0.960 . S
H410 C423 0.961 . S
H411 C423 0.959 1_455 S
H412 C426 0.929 1_455 S
H413 C427 0.931 . S
H414 C429 0.930 . S
C415 H403 0.930 . S
C415 C416 1.399 . S
C415 C420 1.399 . S
C416 C415 1.399 . S
C416 C417 1.376 . S
C417 H404 0.930 . S
C417 C416 1.376 . S
C417 C418 1.388 . S
C418 H405 0.930 . S
C418 C417 1.388 . S
C418 C419 1.390 . S
C419 C418 1.390 . S
C419 C420 1.394 . S
C419 C425 1.465 . S
C420 C415 1.399 . S
C420 C419 1.394 . S
C420 C421 1.516 . S
C421 C420 1.516 . S
C421 C422 1.502 . S
C421 C423 1.561 . S
C421 C424 1.526 . S
C422 H406 0.959 . S
C422 H407 0.959 . S
C422 H408 0.961 . S
C422 C421 1.502 . S
C423 H409 0.960 . S
C423 H410 0.961 . S
C423 H411 0.959 1_655 S
C423 C421 1.561 . S
C424 C421 1.526 . S
C424 C425 1.396 . S
C424 C429 1.390 . S
C425 C419 1.465 . S
C425 C424 1.396 . S
C425 C426 1.399 . S
C426 H412 0.929 1_655 S
C426 C425 1.399 . S
C426 C427 1.385 1_655 S
C427 H413 0.931 . S
C427 C426 1.385 1_455 S
C427 C428 1.389 1_455 S
C428 C427 1.389 1_655 S
C428 C429 1.387 . S
C429 H414 0.930 . S
C429 C424 1.390 . S
C429 C428 1.387 . S
H430 C442 0.930 . S
H431 C444 0.930 . S
H432 C445 0.930 1_655 S
H433 C449 0.959 . S
H434 C449 0.959 . S
H435 C449 0.961 . S
H436 C450 0.960 . S
H437 C450 0.961 . S
H438 C450 0.959 1_655 S
H439 C453 0.929 . S
H440 C454 0.931 . S
H441 C456 0.930 . S
C442 H430 0.930 . S
C442 C443 1.399 . S
C442 C447 1.399 . S
C443 C442 1.399 . S
C443 C444 1.376 1_455 S
C444 H431 0.930 . S
C444 C443 1.376 1_655 S
C444 C445 1.388 1_655 S
C445 H432 0.930 1_455 S
C445 C444 1.388 1_455 S
C445 C446 1.390 . S
C446 C445 1.390 . S
C446 C447 1.394 . S
C446 C452 1.465 . S
C447 C442 1.399 . S
C447 C446 1.394 . S
C447 C448 1.516 . S
C448 C447 1.516 . S
C448 C449 1.502 . S
C448 C450 1.561 . S
C448 C451 1.526 . S
C449 H433 0.959 . S
C449 H434 0.959 . S
C449 H435 0.961 . S
C449 C448 1.502 . S
C450 H436 0.960 . S
C450 H437 0.961 . S
C450 H438 0.959 1_455 S
C450 C448 1.561 . S
C451 C448 1.526 . S
C451 C452 1.396 . S
C451 C456 1.390 . S
C452 C446 1.465 . S
C452 C451 1.396 . S
C452 C453 1.399 . S
C453 H439 0.929 . S
C453 C452 1.399 . S
C453 C454 1.385 . S
C454 H440 0.931 . S
C454 C453 1.385 . S
C454 C455 1.389 . S
C455 C454 1.389 . S
C455 C456 1.387 . S
C456 H441 0.930 . S
C456 C451 1.390 . S
C456 C455 1.387 . S
H457 C469 0.930 . S
H458 C471 0.930 . S
H459 C472 0.930 . S
H460 C476 0.959 . S
H461 C476 0.959 . S
H462 C476 0.961 . S
H463 C477 0.960 . S
H464 C477 0.961 . S
H465 C477 0.959 1_655 S
H466 C480 0.929 . S
H467 C481 0.931 1_655 S
H468 C483 0.930 . S
C469 H457 0.930 . S
C469 C470 1.399 . S
C469 C474 1.399 . S
C470 C469 1.399 . S
C470 C471 1.376 . S
C471 H458 0.930 . S
C471 C470 1.376 . S
C471 C472 1.388 . S
C472 H459 0.930 . S
C472 C471 1.388 . S
C472 C473 1.390 . S
C473 C472 1.390 . S
C473 C474 1.394 . S
C473 C479 1.465 . S
C474 C469 1.399 . S
C474 C473 1.394 . S
C474 C475 1.516 . S
C475 C474 1.516 . S
C475 C476 1.502 . S
C475 C477 1.561 . S
C475 C478 1.526 . S
C476 H460 0.959 . S
C476 H461 0.959 . S
C476 H462 0.961 . S
C476 C475 1.502 . S
C477 H463 0.960 . S
C477 H464 0.961 . S
C477 H465 0.959 1_455 S
C477 C475 1.561 . S
C478 C475 1.526 . S
C478 C479 1.396 . S
C478 C483 1.390 . S
C479 C473 1.465 . S
C479 C478 1.396 . S
C479 C480 1.399 . S
C480 H466 0.929 . S
C480 C479 1.399 . S
C480 C481 1.385 . S
C481 H467 0.931 1_455 S
C481 C480 1.385 . S
C481 C482 1.389 . S
C482 C481 1.389 . S
C482 C483 1.387 . S
C483 H468 0.930 . S
C483 C478 1.390 . S
C483 C482 1.387 . S
C173 C58 1.475 . S
C185 C9 1.520 . S
C200 C89 1.474 . S
C212 C138 1.522 . S
C227 C18 1.506 . S
C239 C49 1.501 . S
C254 C129 1.524 . S
C266 C98 1.476 . S
C281 C126 1.294 . S
C293 C10 1.308 . S
C308 C46 1.294 . S
C320 C90 1.308 . S
C335 C59 1.281 . S
C347 C95 1.285 . S
C362 C139 1.298 . S
C374 C15 1.289 . S
C389 C50 1.304 . S
C401 C86 1.309 1_655 S
C416 C130 1.280 . S
C428 C6 1.269 1_655 S
C443 C135 1.268 1_455 S
C455 C19 1.277 . S
C470 C99 1.306 . S
C482 C55 1.300 1_455 S
