# Generated by pormake.
# Topology dei, (4)-cn, num edge types: 1
# Building blocks:
#     Node 0, Type 0, BuildingBlock: NAHDIM_clean_sbu_0, # of connection points: 4
#     Node 1, Type 0, BuildingBlock: NAHDIM_clean_sbu_0, # of connection points: 4
#     Node 2, Type 0, BuildingBlock: NAHDIM_clean_sbu_0, # of connection points: 4
#     Node 3, Type 0, BuildingBlock: NAHDIM_clean_sbu_0, # of connection points: 4
#     Node 4, Type 0, BuildingBlock: NAHDIM_clean_sbu_0, # of connection points: 4
#     Node 5, Type 0, BuildingBlock: NAHDIM_clean_sbu_0, # of connection points: 4
#     Node 6, Type 0, BuildingBlock: NAHDIM_clean_sbu_0, # of connection points: 4
#     Node 7, Type 0, BuildingBlock: NAHDIM_clean_sbu_0, # of connection points: 4
#     Node 8, Type 0, BuildingBlock: NAHDIM_clean_sbu_0, # of connection points: 4
#     Node 9, Type 0, BuildingBlock: NAHDIM_clean_sbu_0, # of connection points: 4
#     Node 10, Type 0, BuildingBlock: NAHDIM_clean_sbu_0, # of connection points: 4
#     Node 11, Type 0, BuildingBlock: NAHDIM_clean_sbu_0, # of connection points: 4
#     Node 12, Type 0, BuildingBlock: NAHDIM_clean_sbu_0, # of connection points: 4
#     Node 13, Type 0, BuildingBlock: NAHDIM_clean_sbu_0, # of connection points: 4
#     Node 14, Type 0, BuildingBlock: NAHDIM_clean_sbu_0, # of connection points: 4
#     Node 15, Type 0, BuildingBlock: NAHDIM_clean_sbu_0, # of connection points: 4
#     Node 16, Type 0, BuildingBlock: NAHDIM_clean_sbu_0, # of connection points: 4
#     Node 17, Type 0, BuildingBlock: NAHDIM_clean_sbu_0, # of connection points: 4
#     Node 18, Type 0, BuildingBlock: NAHDIM_clean_sbu_0, # of connection points: 4
#     Node 19, Type 0, BuildingBlock: NAHDIM_clean_sbu_0, # of connection points: 4
#     Node 20, Type 0, BuildingBlock: NAHDIM_clean_sbu_0, # of connection points: 4
#     Node 21, Type 0, BuildingBlock: NAHDIM_clean_sbu_0, # of connection points: 4
#     Node 22, Type 0, BuildingBlock: NAHDIM_clean_sbu_0, # of connection points: 4
#     Node 23, Type 0, BuildingBlock: NAHDIM_clean_sbu_0, # of connection points: 4
#     Node 24, Type 0, BuildingBlock: NAHDIM_clean_sbu_0, # of connection points: 4
#     Node 25, Type 0, BuildingBlock: NAHDIM_clean_sbu_0, # of connection points: 4
#     Node 26, Type 0, BuildingBlock: NAHDIM_clean_sbu_0, # of connection points: 4
#     Node 27, Type 0, BuildingBlock: NAHDIM_clean_sbu_0, # of connection points: 4
#     Node 28, Type 0, BuildingBlock: NAHDIM_clean_sbu_0, # of connection points: 4
#     Node 29, Type 0, BuildingBlock: NAHDIM_clean_sbu_0, # of connection points: 4
#     Node 30, Type 0, BuildingBlock: NAHDIM_clean_sbu_0, # of connection points: 4
#     Node 31, Type 0, BuildingBlock: NAHDIM_clean_sbu_0, # of connection points: 4
#     Edge 32, Type (0, 0), BuildingBlock: UVAHIK_clean_linker_0, # of connection points: 2
#     Edge 33, Type (0, 0), BuildingBlock: UVAHIK_clean_linker_0, # of connection points: 2
#     Edge 34, Type (0, 0), BuildingBlock: UVAHIK_clean_linker_0, # of connection points: 2
#     Edge 35, Type (0, 0), BuildingBlock: UVAHIK_clean_linker_0, # of connection points: 2
#     Edge 36, Type (0, 0), BuildingBlock: UVAHIK_clean_linker_0, # of connection points: 2
#     Edge 37, Type (0, 0), BuildingBlock: UVAHIK_clean_linker_0, # of connection points: 2
#     Edge 38, Type (0, 0), BuildingBlock: UVAHIK_clean_linker_0, # of connection points: 2
#     Edge 39, Type (0, 0), BuildingBlock: UVAHIK_clean_linker_0, # of connection points: 2
#     Edge 40, Type (0, 0), BuildingBlock: UVAHIK_clean_linker_0, # of connection points: 2
#     Edge 41, Type (0, 0), BuildingBlock: UVAHIK_clean_linker_0, # of connection points: 2
#     Edge 42, Type (0, 0), BuildingBlock: UVAHIK_clean_linker_0, # of connection points: 2
#     Edge 43, Type (0, 0), BuildingBlock: UVAHIK_clean_linker_0, # of connection points: 2
#     Edge 44, Type (0, 0), BuildingBlock: UVAHIK_clean_linker_0, # of connection points: 2
#     Edge 45, Type (0, 0), BuildingBlock: UVAHIK_clean_linker_0, # of connection points: 2
#     Edge 46, Type (0, 0), BuildingBlock: UVAHIK_clean_linker_0, # of connection points: 2
#     Edge 47, Type (0, 0), BuildingBlock: UVAHIK_clean_linker_0, # of connection points: 2
#     Edge 48, Type (0, 0), BuildingBlock: UVAHIK_clean_linker_0, # of connection points: 2
#     Edge 49, Type (0, 0), BuildingBlock: UVAHIK_clean_linker_0, # of connection points: 2
#     Edge 50, Type (0, 0), BuildingBlock: UVAHIK_clean_linker_0, # of connection points: 2
#     Edge 51, Type (0, 0), BuildingBlock: UVAHIK_clean_linker_0, # of connection points: 2
#     Edge 52, Type (0, 0), BuildingBlock: UVAHIK_clean_linker_0, # of connection points: 2
#     Edge 53, Type (0, 0), BuildingBlock: UVAHIK_clean_linker_0, # of connection points: 2
#     Edge 54, Type (0, 0), BuildingBlock: UVAHIK_clean_linker_0, # of connection points: 2
#     Edge 55, Type (0, 0), BuildingBlock: UVAHIK_clean_linker_0, # of connection points: 2
#     Edge 56, Type (0, 0), BuildingBlock: UVAHIK_clean_linker_0, # of connection points: 2
#     Edge 57, Type (0, 0), BuildingBlock: UVAHIK_clean_linker_0, # of connection points: 2
#     Edge 58, Type (0, 0), BuildingBlock: UVAHIK_clean_linker_0, # of connection points: 2
#     Edge 59, Type (0, 0), BuildingBlock: UVAHIK_clean_linker_0, # of connection points: 2
#     Edge 60, Type (0, 0), BuildingBlock: UVAHIK_clean_linker_0, # of connection points: 2
#     Edge 61, Type (0, 0), BuildingBlock: UVAHIK_clean_linker_0, # of connection points: 2
#     Edge 62, Type (0, 0), BuildingBlock: UVAHIK_clean_linker_0, # of connection points: 2
#     Edge 63, Type (0, 0), BuildingBlock: UVAHIK_clean_linker_0, # of connection points: 2
#     Edge 64, Type (0, 0), BuildingBlock: UVAHIK_clean_linker_0, # of connection points: 2
#     Edge 65, Type (0, 0), BuildingBlock: UVAHIK_clean_linker_0, # of connection points: 2
#     Edge 66, Type (0, 0), BuildingBlock: UVAHIK_clean_linker_0, # of connection points: 2
#     Edge 67, Type (0, 0), BuildingBlock: UVAHIK_clean_linker_0, # of connection points: 2
#     Edge 68, Type (0, 0), BuildingBlock: UVAHIK_clean_linker_0, # of connection points: 2
#     Edge 69, Type (0, 0), BuildingBlock: UVAHIK_clean_linker_0, # of connection points: 2
#     Edge 70, Type (0, 0), BuildingBlock: UVAHIK_clean_linker_0, # of connection points: 2
#     Edge 71, Type (0, 0), BuildingBlock: UVAHIK_clean_linker_0, # of connection points: 2
#     Edge 72, Type (0, 0), BuildingBlock: UVAHIK_clean_linker_0, # of connection points: 2
#     Edge 73, Type (0, 0), BuildingBlock: UVAHIK_clean_linker_0, # of connection points: 2
#     Edge 74, Type (0, 0), BuildingBlock: UVAHIK_clean_linker_0, # of connection points: 2
#     Edge 75, Type (0, 0), BuildingBlock: UVAHIK_clean_linker_0, # of connection points: 2
#     Edge 76, Type (0, 0), BuildingBlock: UVAHIK_clean_linker_0, # of connection points: 2
#     Edge 77, Type (0, 0), BuildingBlock: UVAHIK_clean_linker_0, # of connection points: 2
#     Edge 78, Type (0, 0), BuildingBlock: UVAHIK_clean_linker_0, # of connection points: 2
#     Edge 79, Type (0, 0), BuildingBlock: UVAHIK_clean_linker_0, # of connection points: 2
#     Edge 80, Type (0, 0), BuildingBlock: UVAHIK_clean_linker_0, # of connection points: 2
#     Edge 81, Type (0, 0), BuildingBlock: UVAHIK_clean_linker_0, # of connection points: 2
#     Edge 82, Type (0, 0), BuildingBlock: UVAHIK_clean_linker_0, # of connection points: 2
#     Edge 83, Type (0, 0), BuildingBlock: UVAHIK_clean_linker_0, # of connection points: 2
#     Edge 84, Type (0, 0), BuildingBlock: UVAHIK_clean_linker_0, # of connection points: 2
#     Edge 85, Type (0, 0), BuildingBlock: UVAHIK_clean_linker_0, # of connection points: 2
#     Edge 86, Type (0, 0), BuildingBlock: UVAHIK_clean_linker_0, # of connection points: 2
#     Edge 87, Type (0, 0), BuildingBlock: UVAHIK_clean_linker_0, # of connection points: 2
#     Edge 88, Type (0, 0), BuildingBlock: UVAHIK_clean_linker_0, # of connection points: 2
#     Edge 89, Type (0, 0), BuildingBlock: UVAHIK_clean_linker_0, # of connection points: 2
#     Edge 90, Type (0, 0), BuildingBlock: UVAHIK_clean_linker_0, # of connection points: 2
#     Edge 91, Type (0, 0), BuildingBlock: UVAHIK_clean_linker_0, # of connection points: 2
#     Edge 92, Type (0, 0), BuildingBlock: UVAHIK_clean_linker_0, # of connection points: 2
#     Edge 93, Type (0, 0), BuildingBlock: UVAHIK_clean_linker_0, # of connection points: 2
#     Edge 94, Type (0, 0), BuildingBlock: UVAHIK_clean_linker_0, # of connection points: 2
#     Edge 95, Type (0, 0), BuildingBlock: UVAHIK_clean_linker_0, # of connection points: 2
# Relax obj value: 0.226
# Max RMSD: 0.088
# Mean RMSD: 0.088
data_MOF--net-dei--node1-NAHDIM_clean_sbu_0--edge1-UVAHIK_clean_linker_0
_symmetry_space_group_name_H-M    P1
_symmetry_Int_Tables_number       1
_symmetry_cell_setting            triclinic
loop_
_symmetry_equiv_pos_as_xyz
'x, y, z'
_cell_length_a     68.002073
_cell_length_b     67.994951
_cell_length_c     120.38293
_cell_angle_alpha  89.993206
_cell_angle_beta   90.007826
_cell_angle_gamma 90.000794
loop_
_atom_site_label
_atom_site_type_symbol
_atom_site_fract_x
_atom_site_fract_y
_atom_site_fract_z
_atom_type_partial_charge
C0 C 0.16959 0.58013 0.03704 0.0
O1 O 0.17548 0.58118 0.04741 0.0
O2 O 0.15002 0.6084 0.05927 0.0
Zn3 Zn 0.14281 0.61167 0.04321 0.0
O4 O 0.1134 0.60939 0.04182 0.0
C5 C 0.16615 0.64692 0.04175 0.0
O6 O 0.1777 0.63739 0.04865 0.0
O7 O 0.15608 0.59154 0.03363 0.0
C8 C 0.10312 0.62119 0.04759 0.0
O9 O 0.11213 0.634 0.05399 0.0
C10 C 0.14242 0.59477 0.06508 0.0
O11 O 0.13023 0.58234 0.06036 0.0
O12 O 0.15063 0.63862 0.03821 0.0
C13 C 0.67869 0.91035 0.28493 0.0
O14 O 0.68192 0.89939 0.29374 0.0
O15 O 0.64238 0.90137 0.3058 0.0
Zn16 Zn 0.64008 0.89727 0.28933 0.0
O17 O 0.6436 0.86827 0.28669 0.0
C18 C 0.605 0.921 0.2877 0.0
O19 O 0.61449 0.9324 0.2947 0.0
O20 O 0.66122 0.91211 0.28135 0.0
C21 C 0.63555 0.85898 0.27874 0.0
O22 O 0.62465 0.86864 0.27157 0.0
C23 C 0.6284 0.89544 0.31195 0.0
O24 O 0.61271 0.88774 0.30729 0.0
O25 O 0.61331 0.90553 0.28411 0.0
C26 C 0.33909 0.4233 0.53358 0.0
O27 O 0.34651 0.42753 0.54337 0.0
O28 O 0.3464 0.38801 0.55544 0.0
Zn29 Zn 0.35337 0.38488 0.53923 0.0
O30 O 0.38283 0.38652 0.53766 0.0
C31 C 0.3297 0.34976 0.53818 0.0
O32 O 0.31898 0.35921 0.54553 0.0
O33 O 0.34022 0.40576 0.53 0.0
C34 C 0.39293 0.37341 0.54258 0.0
O35 O 0.38371 0.35955 0.54813 0.0
C36 C 0.3573 0.39778 0.56201 0.0
O37 O 0.37317 0.40637 0.55812 0.0
O38 O 0.34481 0.35811 0.53414 0.0
C39 C 0.82584 0.08565 0.78819 0.0
O40 O 0.8238 0.08572 0.79904 0.0
O41 O 0.85781 0.10178 0.8092 0.0
Zn42 Zn 0.86098 0.10801 0.79301 0.0
O43 O 0.85792 0.13724 0.79112 0.0
C44 C 0.89429 0.08273 0.79044 0.0
O45 O 0.88274 0.07035 0.7957 0.0
O46 O 0.84066 0.09406 0.78385 0.0
C47 C 0.86498 0.14645 0.78285 0.0
O48 O 0.87441 0.13659 0.77512 0.0
C49 C 0.86916 0.11038 0.81602 0.0
O50 O 0.88253 0.12257 0.8122 0.0
O51 O 0.88797 0.09986 0.7882 0.0
C52 C 0.16551 0.42639 0.96168 0.0
O53 O 0.16118 0.43084 0.95135 0.0
O54 O 0.15125 0.39257 0.94012 0.0
Zn55 Zn 0.14606 0.38956 0.9565 0.0
O56 O 0.11683 0.39168 0.95898 0.0
C57 C 0.16935 0.35417 0.957 0.0
O58 O 0.17991 0.36358 0.94956 0.0
O59 O 0.16056 0.40972 0.96553 0.0
C60 C 0.10632 0.37879 0.95416 0.0
O61 O 0.11507 0.36515 0.94821 0.0
C62 C 0.14047 0.40363 0.93416 0.0
O63 O 0.12645 0.41391 0.93892 0.0
O64 O 0.15447 0.36261 0.96123 0.0
C65 C 0.84002 0.91816 0.21415 0.0
O66 O 0.84411 0.92826 0.20514 0.0
O67 O 0.86459 0.89625 0.18987 0.0
Zn68 Zn 0.86898 0.88982 0.20597 0.0
O69 O 0.86832 0.86037 0.20753 0.0
C70 C 0.90181 0.91627 0.2074 0.0
O71 O 0.89024 0.92765 0.20148 0.0
O72 O 0.84866 0.90188 0.21592 0.0
C73 C 0.87948 0.85029 0.20126 0.0
O74 O 0.89099 0.85949 0.1942 0.0
C75 C 0.84789 0.89643 0.18515 0.0
O76 O 0.83199 0.89297 0.19103 0.0
O77 O 0.89568 0.89944 0.2104 0.0
C78 C 0.32648 0.58465 0.46242 0.0
O79 O 0.31792 0.58756 0.45278 0.0
O80 O 0.34774 0.61168 0.43933 0.0
Zn81 Zn 0.3539 0.6155 0.4555 0.0
O82 O 0.38328 0.61449 0.45731 0.0
C83 C 0.32745 0.64829 0.45755 0.0
O84 O 0.31559 0.63666 0.45198 0.0
O85 O 0.34147 0.59479 0.46507 0.0
C86 C 0.39355 0.62704 0.45206 0.0
O87 O 0.38458 0.6401 0.44581 0.0
C88 C 0.35025 0.59541 0.43434 0.0
O89 O 0.35645 0.58006 0.43997 0.0
O90 O 0.34449 0.64216 0.46015 0.0
C91 C 0.67218 0.08283 0.71112 0.0
O92 O 0.67646 0.08317 0.70049 0.0
O93 O 0.64136 0.0966 0.68829 0.0
Zn94 Zn 0.63635 0.10306 0.70435 0.0
O95 O 0.63733 0.13248 0.70619 0.0
C96 C 0.60272 0.07728 0.70562 0.0
O97 O 0.61405 0.06531 0.69992 0.0
O98 O 0.65608 0.09024 0.71447 0.0
C99 C 0.62513 0.14266 0.70063 0.0
O100 O 0.61255 0.13357 0.69412 0.0
C101 C 0.65366 0.10658 0.68269 0.0
O102 O 0.66357 0.12068 0.68763 0.0
O103 O 0.60932 0.09401 0.70848 0.0
C104 C 0.8346 0.42547 0.96166 0.0
O105 O 0.83838 0.42986 0.95126 0.0
O106 O 0.84989 0.39237 0.94008 0.0
Zn107 Zn 0.85483 0.38901 0.95647 0.0
O108 O 0.88403 0.39108 0.95909 0.0
C109 C 0.8313 0.35375 0.95682 0.0
O110 O 0.82077 0.36332 0.94944 0.0
O111 O 0.8402 0.40902 0.96554 0.0
C112 C 0.89459 0.37829 0.95422 0.0
O113 O 0.88589 0.36474 0.94817 0.0
C114 C 0.86062 0.40382 0.93435 0.0
O115 O 0.87441 0.4141 0.93933 0.0
O116 O 0.84629 0.36201 0.96105 0.0
C117 C 0.33229 0.07784 0.7136 0.0
O118 O 0.33377 0.06996 0.70367 0.0
O119 O 0.35727 0.09701 0.68997 0.0
Zn120 Zn 0.36276 0.10446 0.70581 0.0
O121 O 0.36154 0.13394 0.70708 0.0
C122 C 0.39608 0.07857 0.70713 0.0
O123 O 0.38433 0.06658 0.70173 0.0
O124 O 0.34313 0.09236 0.71616 0.0
C125 C 0.37319 0.14416 0.70118 0.0
O126 O 0.38562 0.1351 0.69457 0.0
C127 C 0.34245 0.1039 0.68486 0.0
O128 O 0.33031 0.11564 0.69017 0.0
O129 O 0.38987 0.09551 0.70987 0.0
C130 C 0.66124 0.57712 0.46113 0.0
O131 O 0.65572 0.5726 0.451 0.0
O132 O 0.65131 0.61212 0.43932 0.0
Zn133 Zn 0.64487 0.61512 0.45556 0.0
O134 O 0.61548 0.61384 0.45753 0.0
C135 C 0.67111 0.64796 0.45835 0.0
O136 O 0.68338 0.63656 0.45291 0.0
O137 O 0.65816 0.59439 0.46477 0.0
C138 C 0.60529 0.62699 0.45272 0.0
O139 O 0.61436 0.64057 0.44687 0.0
C140 C 0.64054 0.6019 0.43291 0.0
O141 O 0.62529 0.59258 0.43704 0.0
O142 O 0.65395 0.64168 0.46055 0.0
C143 C 0.16067 0.91314 0.21914 0.0
O144 O 0.14324 0.92005 0.22175 0.0
O145 O 0.14165 0.88932 0.18807 0.0
Zn146 Zn 0.13915 0.88624 0.2046 0.0
O147 O 0.13907 0.85725 0.20791 0.0
C148 C 0.10701 0.91399 0.2058 0.0
O149 O 0.11792 0.92413 0.19885 0.0
O150 O 0.16206 0.89908 0.21224 0.0
C151 C 0.12504 0.84702 0.20401 0.0
O152 O 0.11122 0.85585 0.19823 0.0
C153 C 0.15151 0.90289 0.18342 0.0
O154 O 0.16071 0.91591 0.18958 0.0
O155 O 0.11336 0.89769 0.20951 0.0
C156 C 0.82537 0.57919 0.03706 0.0
O157 O 0.81956 0.57983 0.04746 0.0
O158 O 0.84403 0.6073 0.05948 0.0
Zn159 Zn 0.85156 0.61103 0.04349 0.0
O160 O 0.881 0.60887 0.04221 0.0
C161 C 0.8282 0.64632 0.04208 0.0
O162 O 0.81648 0.6367 0.04885 0.0
O163 O 0.83859 0.591 0.03371 0.0
C164 C 0.89127 0.62069 0.04797 0.0
O165 O 0.88225 0.63348 0.05438 0.0
C166 C 0.85213 0.59396 0.06528 0.0
O167 O 0.86511 0.58229 0.06061 0.0
O168 O 0.84378 0.63806 0.03861 0.0
C169 C 0.17387 0.0859 0.78674 0.0
O170 O 0.1777 0.09569 0.7959 0.0
O171 O 0.13843 0.09343 0.80818 0.0
Zn172 Zn 0.13574 0.09955 0.79196 0.0
O173 O 0.13947 0.12871 0.79006 0.0
C174 C 0.10133 0.07549 0.78941 0.0
O175 O 0.11193 0.06283 0.79508 0.0
O176 O 0.15626 0.08515 0.78326 0.0
C177 C 0.13258 0.13804 0.78178 0.0
O178 O 0.12299 0.12834 0.77405 0.0
C179 C 0.12675 0.10212 0.81479 0.0
O180 O 0.11345 0.11411 0.81068 0.0
O181 O 0.1087 0.09207 0.78691 0.0
C182 C 0.6692 0.42136 0.53649 0.0
O183 O 0.67478 0.42121 0.54693 0.0
O184 O 0.65209 0.39191 0.55886 0.0
Zn185 Zn 0.64434 0.38836 0.54288 0.0
O186 O 0.61486 0.39003 0.54169 0.0
C187 C 0.66817 0.35341 0.54142 0.0
O188 O 0.6795 0.36303 0.54839 0.0
O189 O 0.65669 0.40882 0.53312 0.0
C190 C 0.60466 0.37744 0.54695 0.0
O191 O 0.61375 0.36402 0.5529 0.0
C192 C 0.64358 0.40456 0.56496 0.0
O193 O 0.62986 0.41579 0.56062 0.0
O194 O 0.65261 0.36156 0.53783 0.0
C195 C 0.33178 0.9204 0.28251 0.0
O196 O 0.33541 0.92956 0.2919 0.0
O197 O 0.35599 0.90087 0.30616 0.0
Zn198 Zn 0.36126 0.89302 0.29035 0.0
O199 O 0.35995 0.8635 0.28945 0.0
C200 C 0.39657 0.91676 0.28974 0.0
O201 O 0.38701 0.92779 0.29688 0.0
O202 O 0.34115 0.90478 0.28018 0.0
C203 C 0.37088 0.85365 0.29596 0.0
O204 O 0.38256 0.86311 0.30282 0.0
C205 C 0.34132 0.8935 0.3112 0.0
O206 O 0.32968 0.88135 0.30583 0.0
O207 O 0.3883 0.90152 0.28581 0.0
C208 C 0.66624 0.07319 0.5352 0.0
O209 O 0.66474 0.06832 0.54572 0.0
O210 O 0.65496 0.10525 0.55813 0.0
Zn211 Zn 0.64714 0.10939 0.54217 0.0
O212 O 0.61765 0.10751 0.54105 0.0
C213 C 0.6701 0.1451 0.54129 0.0
O214 O 0.68152 0.13568 0.54831 0.0
O215 O 0.65987 0.0898 0.53198 0.0
C216 C 0.60769 0.11993 0.54658 0.0
O217 O 0.61705 0.13313 0.55255 0.0
C218 C 0.64527 0.09364 0.56434 0.0
O219 O 0.63055 0.08364 0.56009 0.0
O220 O 0.65489 0.13658 0.5375 0.0
C221 C 0.17247 0.41307 0.78735 0.0
O222 O 0.17413 0.4147 0.79818 0.0
O223 O 0.14298 0.39375 0.80886 0.0
Zn224 Zn 0.13936 0.38785 0.79265 0.0
O225 O 0.14296 0.35873 0.7905 0.0
C226 C 0.10396 0.41084 0.7918 0.0
O227 O 0.11399 0.42251 0.7984 0.0
O228 O 0.15878 0.40257 0.78329 0.0
C229 C 0.1356 0.34968 0.78225 0.0
O230 O 0.1258 0.35969 0.77473 0.0
C231 C 0.13289 0.38378 0.81572 0.0
O232 O 0.12064 0.37044 0.8119 0.0
O233 O 0.11198 0.39524 0.78819 0.0
C234 C 0.82709 0.92492 0.03815 0.0
O235 O 0.82669 0.92862 0.04885 0.0
O236 O 0.84373 0.8933 0.06043 0.0
Zn237 Zn 0.85052 0.89048 0.04425 0.0
O238 O 0.87982 0.89362 0.04252 0.0
C239 C 0.82798 0.85477 0.04278 0.0
O240 O 0.81601 0.86426 0.04946 0.0
O241 O 0.83615 0.90984 0.0346 0.0
C242 C 0.8905 0.88146 0.0478 0.0
O243 O 0.88193 0.86801 0.05397 0.0
C244 C 0.85126 0.90671 0.06643 0.0
O245 O 0.86315 0.91962 0.06186 0.0
O246 O 0.8435 0.86324 0.03938 0.0
C247 C 0.33061 0.57424 0.28681 0.0
O248 O 0.33276 0.56617 0.29665 0.0
O249 O 0.35809 0.59446 0.31 0.0
Zn250 Zn 0.36097 0.60207 0.29396 0.0
O251 O 0.35833 0.63147 0.29289 0.0
C252 C 0.39699 0.57981 0.29231 0.0
O253 O 0.38806 0.56798 0.29931 0.0
O254 O 0.34092 0.58912 0.28418 0.0
C255 C 0.36943 0.64179 0.29907 0.0
O256 O 0.38173 0.63282 0.3058 0.0
C257 C 0.34238 0.59741 0.31546 0.0
O258 O 0.327 0.60485 0.31037 0.0
O259 O 0.38803 0.59497 0.28879 0.0
C260 C 0.66301 0.92076 0.4577 0.0
O261 O 0.66342 0.92241 0.44683 0.0
O262 O 0.64561 0.88862 0.43689 0.0
Zn263 Zn 0.64063 0.88529 0.45325 0.0
O264 O 0.61142 0.88741 0.45552 0.0
C265 C 0.6676 0.8533 0.45681 0.0
O266 O 0.68006 0.86531 0.45195 0.0
O267 O 0.65427 0.9062 0.46209 0.0
C268 C 0.60235 0.87957 0.46361 0.0
O269 O 0.61236 0.86975 0.47112 0.0
C270 C 0.64411 0.87399 0.43038 0.0
O271 O 0.64006 0.85659 0.43453 0.0
O272 O 0.64995 0.85881 0.4583 0.0
C273 C 0.32151 0.41541 0.70865 0.0
O274 O 0.31661 0.41344 0.69816 0.0
O275 O 0.35291 0.40122 0.68594 0.0
Zn276 Zn 0.35762 0.39544 0.70212 0.0
O277 O 0.35651 0.3661 0.70434 0.0
C278 C 0.39318 0.41882 0.70169 0.0
O279 O 0.38383 0.42883 0.69399 0.0
O280 O 0.33801 0.40893 0.71199 0.0
C281 C 0.36898 0.35589 0.69899 0.0
O282 O 0.3816 0.36494 0.69249 0.0
C283 C 0.34087 0.39097 0.68032 0.0
O284 O 0.33083 0.37701 0.6853 0.0
O285 O 0.38469 0.40432 0.7063 0.0
C286 C 0.82589 0.07734 0.96149 0.0
O287 O 0.82183 0.07762 0.95083 0.0
O288 O 0.84637 0.10708 0.94004 0.0
Zn289 Zn 0.85185 0.11016 0.95635 0.0
O290 O 0.88116 0.10812 0.95843 0.0
C291 C 0.82855 0.14554 0.95706 0.0
O292 O 0.81792 0.13624 0.94961 0.0
O293 O 0.83802 0.0897 0.96546 0.0
C294 C 0.89154 0.12005 0.95281 0.0
O295 O 0.88262 0.13283 0.94634 0.0
C296 C 0.85503 0.09372 0.93452 0.0
O297 O 0.86669 0.08138 0.93974 0.0
O298 O 0.84346 0.13703 0.96122 0.0
C299 C 0.17508 0.58112 0.21168 0.0
O300 O 0.1797 0.58838 0.20192 0.0
O301 O 0.14104 0.59189 0.18967 0.0
Zn302 Zn 0.13676 0.59623 0.20606 0.0
O303 O 0.13708 0.62535 0.20913 0.0
C304 C 0.10381 0.56962 0.2063 0.0
O305 O 0.11514 0.55915 0.19973 0.0
O306 O 0.1575 0.58261 0.21514 0.0
C307 C 0.12333 0.63571 0.20502 0.0
O308 O 0.10952 0.62698 0.19919 0.0
C309 C 0.15089 0.60408 0.18391 0.0
O310 O 0.15885 0.61939 0.18881 0.0
O311 O 0.11019 0.58579 0.21015 0.0
C312 C 0.34424 0.9263 0.45733 0.0
O313 O 0.3578 0.92954 0.44977 0.0
O314 O 0.34849 0.8891 0.4348 0.0
Zn315 Zn 0.35289 0.88699 0.45125 0.0
O316 O 0.38205 0.88906 0.45382 0.0
C317 C 0.32641 0.85426 0.45432 0.0
O318 O 0.31429 0.86535 0.44857 0.0
O319 O 0.33922 0.9087 0.45943 0.0
C320 C 0.39062 0.88167 0.46222 0.0
O321 O 0.38011 0.87247 0.46977 0.0
C322 C 0.33451 0.89833 0.43011 0.0
O323 O 0.32125 0.90727 0.43624 0.0
O324 O 0.3435 0.86069 0.45656 0.0
C325 C 0.83264 0.57435 0.21183 0.0
O326 O 0.83307 0.56761 0.2016 0.0
O327 O 0.85936 0.5927 0.1887 0.0
Zn328 Zn 0.8652 0.59902 0.20465 0.0
O329 O 0.86547 0.62845 0.20637 0.0
C330 C 0.89782 0.572 0.20514 0.0
O331 O 0.88614 0.5612 0.19895 0.0
O332 O 0.8449 0.58744 0.2148 0.0
C333 C 0.87677 0.63843 0.20013 0.0
O334 O 0.88793 0.62916 0.19292 0.0
C335 C 0.84541 0.60139 0.18368 0.0
O336 O 0.83454 0.61408 0.18916 0.0
O337 O 0.89182 0.58859 0.20862 0.0
C338 C 0.16998 0.07894 0.96056 0.0
O339 O 0.17494 0.07976 0.95002 0.0
O340 O 0.14843 0.10726 0.93882 0.0
Zn341 Zn 0.14312 0.11088 0.9551 0.0
O342 O 0.11386 0.10885 0.95734 0.0
C343 C 0.16681 0.14602 0.95569 0.0
O344 O 0.17747 0.13648 0.94836 0.0
O345 O 0.15701 0.09065 0.96431 0.0
C346 C 0.10327 0.12053 0.95167 0.0
O347 O 0.11194 0.13315 0.945 0.0
C348 C 0.14021 0.09326 0.9336 0.0
O349 O 0.1291 0.08081 0.93911 0.0
O350 O 0.15168 0.13779 0.95978 0.0
C351 C 0.66742 0.42057 0.71191 0.0
O352 O 0.6666 0.42774 0.70179 0.0
O353 O 0.6421 0.40112 0.68843 0.0
Zn354 Zn 0.63661 0.39411 0.70433 0.0
O355 O 0.63771 0.36465 0.70585 0.0
C356 C 0.60154 0.41796 0.70391 0.0
O357 O 0.61156 0.42832 0.69664 0.0
O358 O 0.65612 0.40649 0.71463 0.0
C359 C 0.62582 0.35449 0.70008 0.0
O360 O 0.61343 0.36359 0.69346 0.0
C361 C 0.65608 0.39302 0.68314 0.0
O362 O 0.66744 0.38034 0.6883 0.0
O363 O 0.60946 0.40299 0.70836 0.0
C364 C 0.32981 0.08588 0.53042 0.0
O365 O 0.32053 0.10268 0.52922 0.0
O366 O 0.35062 0.10653 0.56125 0.0
Zn367 Zn 0.35629 0.10797 0.5449 0.0
O368 O 0.38569 0.10725 0.54317 0.0
C369 C 0.3318 0.14254 0.54286 0.0
O370 O 0.32188 0.1342 0.55095 0.0
O371 O 0.34479 0.08499 0.53671 0.0
C372 C 0.39582 0.11998 0.54836 0.0
O373 O 0.38671 0.13316 0.55446 0.0
C374 C 0.33862 0.09487 0.56594 0.0
O375 O 0.32838 0.0825 0.55987 0.0
O376 O 0.34663 0.13373 0.53881 0.0
C377 C 0.67778 0.59167 0.2866 0.0
O378 O 0.68281 0.59902 0.29628 0.0
O379 O 0.64376 0.60465 0.30829 0.0
Zn380 Zn 0.64073 0.60979 0.2919 0.0
O381 O 0.64443 0.63874 0.28908 0.0
C382 C 0.60547 0.58656 0.29095 0.0
O383 O 0.61551 0.57499 0.2976 0.0
O384 O 0.66038 0.59427 0.28305 0.0
C385 C 0.63681 0.64747 0.2808 0.0
O386 O 0.62648 0.63725 0.2736 0.0
C387 C 0.65429 0.61576 0.31435 0.0
O388 O 0.66372 0.63054 0.30976 0.0
O389 O 0.61344 0.60219 0.28733 0.0
C390 C 0.16214 0.92668 0.03627 0.0
O391 O 0.15892 0.93153 0.04667 0.0
O392 O 0.14871 0.89462 0.05852 0.0
Zn393 Zn 0.14197 0.89074 0.04237 0.0
O394 O 0.11262 0.89314 0.04048 0.0
C395 C 0.16513 0.85524 0.04157 0.0
O396 O 0.17658 0.86492 0.04845 0.0
O397 O 0.15617 0.91015 0.0327 0.0
C398 C 0.10217 0.88059 0.04562 0.0
O399 O 0.11101 0.86711 0.05165 0.0
C400 C 0.13854 0.90597 0.06462 0.0
O401 O 0.1238 0.91572 0.06021 0.0
O402 O 0.14974 0.86351 0.03784 0.0
C403 C 0.82147 0.4118 0.78729 0.0
O404 O 0.81696 0.40249 0.79651 0.0
O405 O 0.85629 0.40197 0.80889 0.0
Zn406 Zn 0.85903 0.39631 0.79261 0.0
O407 O 0.85482 0.36727 0.79041 0.0
C408 C 0.89531 0.4181 0.79153 0.0
O409 O 0.88628 0.42972 0.79859 0.0
O410 O 0.83914 0.41148 0.78388 0.0
C411 C 0.86202 0.35811 0.78216 0.0
O412 O 0.87196 0.36796 0.77463 0.0
C413 C 0.86665 0.39166 0.81546 0.0
O414 O 0.87859 0.37838 0.81129 0.0
O415 O 0.88632 0.40319 0.78771 0.0
C416 C 0.14287 0.5861 0.16631 0.0
C417 C 0.15278 0.60146 0.17176 0.0
C418 C 0.14384 0.5843 0.15476 0.0
C419 C 0.15321 0.61387 0.12972 0.0
H420 H 0.15597 0.56314 0.11507 0.0
C421 C 0.15886 0.60754 0.08222 0.0
C422 C 0.14633 0.59377 0.07715 0.0
C423 C 0.1615 0.6075 0.09372 0.0
C424 C 0.15508 0.5774 0.11905 0.0
H425 H 0.17199 0.6266 0.1694 0.0
H426 H 0.17388 0.62329 0.14929 0.0
H427 H 0.15731 0.56487 0.13533 0.0
H428 H 0.12722 0.56877 0.08014 0.0
H429 H 0.13172 0.56882 0.10024 0.0
H430 H 0.15077 0.62641 0.11349 0.0
C431 C 0.16507 0.61285 0.15392 0.0
C432 C 0.15583 0.57839 0.13064 0.0
C433 C 0.16407 0.61468 0.16545 0.0
C434 C 0.13696 0.57958 0.08379 0.0
C435 C 0.13962 0.57954 0.0953 0.0
C436 C 0.15249 0.61288 0.11815 0.0
C437 C 0.15477 0.59779 0.14842 0.0
C438 C 0.15479 0.59664 0.13611 0.0
C439 C 0.15168 0.59369 0.10041 0.0
C440 C 0.15331 0.59464 0.11269 0.0
H441 H 0.13403 0.57568 0.17094 0.0
H442 H 0.13556 0.57266 0.15078 0.0
H443 H 0.15201 0.62814 0.13366 0.0
H444 H 0.1664 0.61859 0.07734 0.0
H445 H 0.17113 0.6184 0.09739 0.0
C446 C 0.64525 0.86051 0.41107 0.0
C447 C 0.64523 0.87682 0.41822 0.0
C448 C 0.64478 0.86314 0.39957 0.0
C449 C 0.65188 0.90024 0.37724 0.0
H450 H 0.61818 0.86486 0.36065 0.0
C451 C 0.64862 0.89959 0.32919 0.0
C452 C 0.63036 0.89572 0.32417 0.0
C453 C 0.65078 0.89823 0.34071 0.0
C454 C 0.62749 0.87502 0.36516 0.0
H455 H 0.64524 0.9087 0.41893 0.0
H456 H 0.64397 0.9133 0.39888 0.0
H457 H 0.62176 0.86055 0.38056 0.0
H458 H 0.59986 0.88825 0.32733 0.0
H459 H 0.6035 0.88638 0.34741 0.0
H460 H 0.65706 0.9151 0.36184 0.0
C461 C 0.64467 0.89846 0.40213 0.0
C462 C 0.6298 0.87234 0.37657 0.0
C463 C 0.6453 0.89582 0.41364 0.0
C464 C 0.61417 0.89113 0.33093 0.0
C465 C 0.6163 0.88992 0.34245 0.0
C466 C 0.64947 0.90299 0.36581 0.0
C467 C 0.64411 0.88214 0.39496 0.0
C468 C 0.64204 0.88489 0.38276 0.0
C469 C 0.6347 0.89311 0.34746 0.0
C470 C 0.63721 0.89043 0.35964 0.0
H471 H 0.64539 0.84567 0.41434 0.0
H472 H 0.6448 0.85025 0.39429 0.0
H473 H 0.66156 0.91007 0.38174 0.0
H474 H 0.66139 0.90311 0.3242 0.0
H475 H 0.66521 0.90059 0.34428 0.0
C476 C 0.35143 0.4073 0.66267 0.0
C477 C 0.33907 0.39394 0.6682 0.0
C478 C 0.3507 0.40911 0.65112 0.0
C479 C 0.33636 0.38122 0.62621 0.0
H480 H 0.34452 0.4312 0.61138 0.0
C481 C 0.33681 0.38814 0.57844 0.0
C482 C 0.35251 0.39901 0.57397 0.0
C483 C 0.33292 0.38863 0.58983 0.0
C484 C 0.34229 0.41713 0.61542 0.0
H485 H 0.31571 0.37256 0.66599 0.0
H486 H 0.31423 0.37595 0.64585 0.0
H487 H 0.34142 0.43022 0.63158 0.0
H488 H 0.37615 0.41929 0.57791 0.0
H489 H 0.3694 0.42006 0.59778 0.0
H490 H 0.33747 0.36811 0.61007 0.0
C491 C 0.32476 0.38475 0.65042 0.0
C492 C 0.34054 0.41656 0.62698 0.0
C493 C 0.32554 0.38288 0.66197 0.0
C494 C 0.36396 0.41072 0.58109 0.0
C495 C 0.36001 0.41128 0.59247 0.0
C496 C 0.33803 0.3818 0.61466 0.0
C497 C 0.33753 0.39768 0.64485 0.0
C498 C 0.33784 0.39856 0.63252 0.0
C499 C 0.34459 0.40008 0.59698 0.0
C500 C 0.3413 0.39972 0.60915 0.0
H501 H 0.36205 0.41602 0.66722 0.0
H502 H 0.36092 0.41902 0.64709 0.0
H503 H 0.33459 0.36707 0.63022 0.0
H504 H 0.32767 0.37902 0.57316 0.0
H505 H 0.32082 0.37999 0.59306 0.0
C506 C 0.86405 0.07937 0.91606 0.0
C507 C 0.85339 0.09323 0.92228 0.0
C508 C 0.86392 0.08006 0.90446 0.0
C509 C 0.85684 0.11518 0.88172 0.0
H510 H 0.85629 0.06857 0.86314 0.0
C511 C 0.87876 0.11771 0.83564 0.0
C512 C 0.86692 0.10727 0.82811 0.0
C513 C 0.87625 0.11533 0.84707 0.0
C514 C 0.85631 0.08172 0.86822 0.0
H515 H 0.83355 0.11816 0.9212 0.0
H516 H 0.83324 0.11926 0.90097 0.0
H517 H 0.85224 0.0653 0.88324 0.0
H518 H 0.84334 0.08591 0.82667 0.0
H519 H 0.83894 0.08181 0.84666 0.0
H520 H 0.86083 0.13162 0.86674 0.0
C521 C 0.84193 0.10805 0.90507 0.0
C522 C 0.85416 0.07984 0.87972 0.0
C523 C 0.84203 0.10734 0.91666 0.0
C524 C 0.8527 0.09417 0.83226 0.0
C525 C 0.85024 0.09174 0.8437 0.0
C526 C 0.85906 0.11705 0.87024 0.0
C527 C 0.85316 0.09464 0.89885 0.0
C528 C 0.8545 0.09655 0.88659 0.0
C529 C 0.86188 0.10243 0.85123 0.0
C530 C 0.85896 0.10035 0.86338 0.0
H531 H 0.87293 0.06829 0.92014 0.0
H532 H 0.87284 0.06962 0.8999 0.0
H533 H 0.8574 0.12832 0.88679 0.0
H534 H 0.88989 0.12786 0.83272 0.0
H535 H 0.88565 0.12354 0.85266 0.0
C536 C 0.13058 0.41575 0.91535 0.0
C537 C 0.14275 0.40383 0.92195 0.0
C538 C 0.13163 0.41479 0.90377 0.0
C539 C 0.14534 0.38072 0.88154 0.0
H540 H 0.14018 0.42664 0.86264 0.0
C541 C 0.12485 0.37486 0.83534 0.0
C542 C 0.13511 0.38684 0.82781 0.0
C543 C 0.12711 0.37747 0.84676 0.0
C544 C 0.14181 0.4137 0.86781 0.0
H545 H 0.1661 0.38207 0.9216 0.0
H546 H 0.16797 0.38048 0.90139 0.0
H547 H 0.14271 0.43077 0.88276 0.0
H548 H 0.15571 0.41108 0.82635 0.0
H549 H 0.15967 0.41563 0.84636 0.0
H550 H 0.14441 0.36364 0.86663 0.0
C551 C 0.15745 0.39039 0.90517 0.0
C552 C 0.14308 0.41606 0.87932 0.0
C553 C 0.15644 0.39139 0.91675 0.0
C554 C 0.14759 0.40161 0.83195 0.0
C555 C 0.1498 0.40428 0.84339 0.0
C556 C 0.14398 0.37837 0.87005 0.0
C557 C 0.14484 0.40186 0.89856 0.0
C558 C 0.1447 0.39957 0.88631 0.0
C559 C 0.13965 0.39217 0.85092 0.0
C560 C 0.142 0.39481 0.86307 0.0
H561 H 0.11989 0.42552 0.9191 0.0
H562 H 0.1216 0.42368 0.89891 0.0
H563 H 0.14636 0.36772 0.88671 0.0
H564 H 0.11507 0.36338 0.83243 0.0
H565 H 0.11887 0.36811 0.85236 0.0
C566 C 0.85307 0.92336 0.08496 0.0
C567 C 0.84762 0.907 0.07852 0.0
C568 C 0.85077 0.92305 0.0965 0.0
C569 C 0.85092 0.88885 0.11952 0.0
H570 H 0.82832 0.93145 0.13676 0.0
C571 C 0.86361 0.89721 0.16642 0.0
C572 C 0.84666 0.89924 0.173 0.0
C573 C 0.86246 0.89873 0.15489 0.0
C574 C 0.83458 0.91944 0.13202 0.0
H575 H 0.83505 0.87767 0.0791 0.0
H576 H 0.83141 0.87704 0.09926 0.0
H577 H 0.82795 0.9331 0.11638 0.0
H578 H 0.8153 0.90503 0.17267 0.0
H579 H 0.8134 0.9081 0.1524 0.0
H580 H 0.85799 0.8754 0.1351 0.0
C581 C 0.83738 0.8901 0.09536 0.0
C582 C 0.83446 0.92043 0.12041 0.0
C583 C 0.83941 0.89051 0.08382 0.0
C584 C 0.82859 0.90333 0.16781 0.0
C585 C 0.8275 0.90517 0.15625 0.0
C586 C 0.85133 0.88803 0.13109 0.0
C587 C 0.84325 0.90627 0.10181 0.0
C588 C 0.84266 0.90513 0.11407 0.0
C589 C 0.84439 0.90259 0.1497 0.0
C590 C 0.84325 0.90334 0.13744 0.0
H591 H 0.85936 0.93631 0.0811 0.0
H592 H 0.85552 0.93565 0.10131 0.0
H593 H 0.85749 0.87695 0.11482 0.0
H594 H 0.87775 0.89403 0.17016 0.0
H595 H 0.87571 0.89685 0.15001 0.0
C596 C 0.3469 0.5759 0.41676 0.0
C597 C 0.34726 0.59419 0.4222 0.0
C598 C 0.34506 0.57495 0.4052 0.0
C599 C 0.35639 0.6032 0.38042 0.0
H600 H 0.31907 0.56944 0.36522 0.0
C601 C 0.3597 0.59043 0.33334 0.0
C602 C 0.34206 0.59397 0.32758 0.0
C603 C 0.35977 0.58887 0.34489 0.0
C604 C 0.32954 0.57892 0.36938 0.0
H605 H 0.34561 0.6258 0.41982 0.0
H606 H 0.34273 0.62409 0.39966 0.0
H607 H 0.31984 0.57011 0.38561 0.0
H608 H 0.31055 0.59779 0.32939 0.0
H609 H 0.3107 0.59479 0.34965 0.0
H610 H 0.36621 0.61196 0.36428 0.0
C611 C 0.34384 0.61052 0.40434 0.0
C612 C 0.33005 0.57922 0.381 0.0
C613 C 0.34541 0.61147 0.41588 0.0
C614 C 0.32438 0.59514 0.33359 0.0
C615 C 0.32443 0.59333 0.34517 0.0
C616 C 0.35609 0.60268 0.36884 0.0
C617 C 0.34384 0.59228 0.39888 0.0
C618 C 0.34339 0.59149 0.38661 0.0
C619 C 0.34219 0.59058 0.35092 0.0
C620 C 0.34262 0.5906 0.36321 0.0
H621 H 0.34823 0.56233 0.42141 0.0
H622 H 0.34517 0.56071 0.40116 0.0
H623 H 0.36692 0.61267 0.38455 0.0
H624 H 0.37357 0.58941 0.32895 0.0
H625 H 0.37363 0.58656 0.34913 0.0
C626 C 0.64441 0.089 0.66518 0.0
C627 C 0.65615 0.10297 0.67067 0.0
C628 C 0.64591 0.08646 0.65369 0.0
C629 C 0.66106 0.11312 0.62855 0.0
H630 H 0.65595 0.062 0.61455 0.0
C631 C 0.6645 0.10415 0.58106 0.0
C632 C 0.64968 0.0924 0.57634 0.0
C633 C 0.66764 0.10409 0.59252 0.0
C634 C 0.65731 0.07638 0.61835 0.0
H635 H 0.67916 0.12473 0.66847 0.0
H636 H 0.68193 0.12012 0.64845 0.0
H637 H 0.65731 0.06433 0.63479 0.0
H638 H 0.62699 0.07088 0.57992 0.0
H639 H 0.63238 0.0709 0.59993 0.0
H640 H 0.66075 0.12521 0.61216 0.0
C641 C 0.67133 0.11137 0.653 0.0
C642 C 0.65807 0.07772 0.62993 0.0
C643 C 0.6698 0.11394 0.66448 0.0
C644 C 0.63851 0.08012 0.58329 0.0
C645 C 0.64168 0.08004 0.59476 0.0
C646 C 0.66033 0.11178 0.61699 0.0
C647 C 0.65921 0.0978 0.64745 0.0
C648 C 0.65973 0.09614 0.63516 0.0
C649 C 0.65607 0.09226 0.59951 0.0
C650 C 0.65823 0.09342 0.61176 0.0
H651 H 0.63373 0.08031 0.6697 0.0
H652 H 0.6362 0.07605 0.64967 0.0
H653 H 0.66201 0.12756 0.63231 0.0
H654 H 0.67343 0.11371 0.57593 0.0
H655 H 0.67902 0.11347 0.59593 0.0
C656 C 0.87551 0.38175 0.83482 0.0
C657 C 0.86492 0.3941 0.82763 0.0
C658 C 0.87356 0.38364 0.84631 0.0
C659 C 0.85898 0.41823 0.86825 0.0
H660 H 0.8551 0.37088 0.8861 0.0
C661 C 0.8705 0.41711 0.91578 0.0
C662 C 0.85845 0.40465 0.92214 0.0
C663 C 0.86946 0.41688 0.9042 0.0
C664 C 0.85595 0.38426 0.88123 0.0
H665 H 0.84412 0.41827 0.82685 0.0
H666 H 0.84073 0.42154 0.84696 0.0
H667 H 0.85683 0.36827 0.86594 0.0
H668 H 0.83536 0.38266 0.92133 0.0
H669 H 0.8335 0.38234 0.9011 0.0
H670 H 0.85809 0.4342 0.88358 0.0
C671 C 0.8506 0.41047 0.84368 0.0
C672 C 0.85717 0.38275 0.86969 0.0
C673 C 0.85249 0.40853 0.83217 0.0
C674 C 0.84492 0.39237 0.91667 0.0
C675 C 0.84392 0.39211 0.90509 0.0
C676 C 0.85783 0.41974 0.87981 0.0
C677 C 0.86103 0.39794 0.85087 0.0
C678 C 0.85889 0.3997 0.86309 0.0
C679 C 0.85637 0.40416 0.89872 0.0
C680 C 0.85645 0.40275 0.88643 0.0
H681 H 0.88525 0.37053 0.83159 0.0
H682 H 0.88202 0.37397 0.85164 0.0
H683 H 0.8604 0.43154 0.86338 0.0
H684 H 0.88106 0.42676 0.91974 0.0
H685 H 0.87938 0.4262 0.89952 0.0
C686 C 0.32444 0.1088 0.66691 0.0
C687 C 0.33974 0.09981 0.6729 0.0
C688 C 0.32289 0.10615 0.65542 0.0
C689 C 0.35383 0.0947 0.63134 0.0
H690 H 0.30417 0.09003 0.6157 0.0
C691 C 0.34819 0.10813 0.58451 0.0
C692 C 0.337 0.09483 0.57819 0.0
C693 C 0.34752 0.10766 0.59608 0.0
C694 C 0.31815 0.09116 0.61997 0.0
H695 H 0.36486 0.08024 0.67162 0.0
H696 H 0.36205 0.07552 0.65163 0.0
H697 H 0.30459 0.09001 0.63603 0.0
H698 H 0.31595 0.07091 0.57908 0.0
H699 H 0.31485 0.07007 0.59939 0.0
H700 H 0.36742 0.09582 0.61536 0.0
C701 C 0.35145 0.08489 0.65577 0.0
C702 C 0.31837 0.09133 0.63159 0.0
C703 C 0.353 0.08753 0.66724 0.0
C704 C 0.32477 0.08133 0.58371 0.0
C705 C 0.32407 0.0809 0.59534 0.0
C706 C 0.35359 0.0946 0.61976 0.0
C707 C 0.33661 0.09446 0.64971 0.0
C708 C 0.33622 0.09323 0.6374 0.0
C709 C 0.33565 0.09391 0.60163 0.0
C710 C 0.33575 0.09305 0.61394 0.0
H711 H 0.31396 0.11831 0.67103 0.0
H712 H 0.31139 0.11385 0.65097 0.0
H713 H 0.3678 0.09642 0.63555 0.0
H714 H 0.35766 0.11883 0.58054 0.0
H715 H 0.35633 0.11813 0.6007 0.0
C716 C 0.65957 0.61293 0.41622 0.0
C717 C 0.64458 0.60128 0.42085 0.0
C718 C 0.6626 0.61325 0.40475 0.0
C719 C 0.65248 0.58614 0.37881 0.0
H720 H 0.65777 0.63743 0.36504 0.0
C721 C 0.6434 0.5984 0.33164 0.0
C722 C 0.65541 0.61252 0.32648 0.0
C723 C 0.64375 0.59605 0.34317 0.0
C724 C 0.65665 0.62296 0.36875 0.0
H725 H 0.6214 0.58039 0.41708 0.0
H726 H 0.62669 0.58098 0.39705 0.0
H727 H 0.65564 0.63492 0.38517 0.0
H728 H 0.67769 0.63479 0.32932 0.0
H729 H 0.67856 0.63046 0.3494 0.0
H730 H 0.65338 0.57419 0.36237 0.0
C731 C 0.63615 0.58979 0.40231 0.0
C732 C 0.6554 0.62154 0.38029 0.0
C733 C 0.63305 0.58955 0.41378 0.0
C734 C 0.66813 0.62389 0.33305 0.0
C735 C 0.66856 0.62148 0.34457 0.0
C736 C 0.65381 0.58756 0.36725 0.0
C737 C 0.65079 0.60184 0.39767 0.0
C738 C 0.65314 0.60314 0.38544 0.0
C739 C 0.6562 0.6077 0.34978 0.0
C740 C 0.65575 0.60601 0.36208 0.0
H741 H 0.66876 0.62209 0.42144 0.0
H742 H 0.67415 0.62249 0.40141 0.0
H743 H 0.65098 0.57174 0.38257 0.0
H744 H 0.6334 0.58942 0.3268 0.0
H745 H 0.63386 0.58548 0.34691 0.0
C746 C 0.14278 0.88974 0.16467 0.0
C747 C 0.15237 0.90399 0.17116 0.0
C748 C 0.1434 0.89072 0.1531 0.0
C749 C 0.15098 0.92504 0.12995 0.0
H750 H 0.15664 0.877 0.11288 0.0
C751 C 0.13096 0.91944 0.08349 0.0
C752 C 0.14276 0.90759 0.07663 0.0
C753 C 0.13423 0.92011 0.09493 0.0
C754 C 0.15529 0.89059 0.11751 0.0
H755 H 0.17021 0.93042 0.17058 0.0
H756 H 0.17135 0.93207 0.15032 0.0
H757 H 0.15882 0.8758 0.13306 0.0
H758 H 0.16766 0.88762 0.07637 0.0
H759 H 0.17343 0.88892 0.09635 0.0
H760 H 0.14747 0.93983 0.11436 0.0
C761 C 0.16323 0.92023 0.15422 0.0
C762 C 0.1563 0.88986 0.12908 0.0
C763 C 0.16264 0.91923 0.16582 0.0
C764 C 0.15822 0.89681 0.08143 0.0
C765 C 0.16148 0.89748 0.09288 0.0
C766 C 0.14993 0.92577 0.11836 0.0
C767 C 0.15362 0.90596 0.14774 0.0
C768 C 0.15389 0.90703 0.13543 0.0
C769 C 0.14937 0.90894 0.09978 0.0
C770 C 0.15184 0.90851 0.11202 0.0
H771 H 0.13468 0.87783 0.16851 0.0
H772 H 0.13558 0.87968 0.14835 0.0
H773 H 0.14894 0.9385 0.13462 0.0
H774 H 0.11893 0.92793 0.08005 0.0
H775 H 0.12449 0.92891 0.10003 0.0
C776 C 0.8583 0.57913 0.084 0.0
C777 C 0.84776 0.59233 0.07728 0.0
C778 C 0.85511 0.57855 0.09545 0.0
C779 C 0.83719 0.60971 0.11827 0.0
H780 H 0.83954 0.56124 0.1352 0.0
C781 C 0.82817 0.60914 0.16583 0.0
C782 C 0.84229 0.59816 0.17167 0.0
C783 C 0.82625 0.60711 0.15433 0.0
C784 C 0.83891 0.5749 0.13058 0.0
H785 H 0.82505 0.61475 0.07725 0.0
H786 H 0.81931 0.61355 0.09721 0.0
H787 H 0.84074 0.56002 0.11494 0.0
H788 H 0.86501 0.57591 0.17008 0.0
H789 H 0.86174 0.57248 0.15003 0.0
H790 H 0.83569 0.62461 0.13388 0.0
C791 C 0.8303 0.6039 0.09366 0.0
C792 C 0.83962 0.5742 0.11899 0.0
C793 C 0.83353 0.60452 0.08221 0.0
C794 C 0.854 0.58463 0.16582 0.0
C795 C 0.85204 0.58256 0.15434 0.0
C796 C 0.83643 0.61039 0.12985 0.0
C797 C 0.84126 0.59113 0.10044 0.0
C798 C 0.83903 0.59163 0.1127 0.0
C799 C 0.83836 0.59399 0.14844 0.0
C800 C 0.83755 0.59302 0.13614 0.0
H801 H 0.86938 0.56955 0.08046 0.0
H802 H 0.86397 0.5687 0.10045 0.0
H803 H 0.83702 0.62343 0.1137 0.0
H804 H 0.81885 0.61962 0.17009 0.0
H805 H 0.8154 0.61594 0.15002 0.0
C806 C 0.1431 0.08703 0.8314 0.0
C807 C 0.12867 0.09955 0.82693 0.0
C808 C 0.14537 0.0853 0.8429 0.0
C809 C 0.13548 0.11207 0.86885 0.0
H810 H 0.14374 0.06148 0.88298 0.0
C811 C 0.15267 0.10611 0.91544 0.0
C812 C 0.14177 0.09203 0.92137 0.0
C813 C 0.15273 0.10602 0.90384 0.0
C814 C 0.1414 0.07569 0.87914 0.0
H815 H 0.10504 0.11975 0.83102 0.0
H816 H 0.10894 0.11662 0.85105 0.0
H817 H 0.13973 0.06325 0.86282 0.0
H818 H 0.12302 0.06636 0.9198 0.0
H819 H 0.12303 0.06632 0.89954 0.0
H820 H 0.1367 0.12451 0.88513 0.0
C821 C 0.11867 0.10835 0.84567 0.0
C822 C 0.13928 0.07673 0.8676 0.0
C823 C 0.11637 0.11005 0.83419 0.0
C824 C 0.13154 0.07743 0.91547 0.0
C825 C 0.13162 0.07733 0.90386 0.0
C826 C 0.13767 0.11105 0.88035 0.0
C827 C 0.13331 0.0961 0.85015 0.0
C828 C 0.13612 0.09492 0.86235 0.0
C829 C 0.14192 0.09185 0.89793 0.0
C830 C 0.14054 0.09285 0.88564 0.0
H831 H 0.15281 0.07874 0.82603 0.0
H832 H 0.15686 0.07585 0.84611 0.0
H833 H 0.13331 0.12633 0.86503 0.0
H834 H 0.16082 0.11748 0.91973 0.0
H835 H 0.16106 0.1172 0.89949 0.0
C836 C 0.66326 0.39401 0.5815 0.0
C837 C 0.64836 0.40584 0.57692 0.0
C838 C 0.66697 0.39429 0.5929 0.0
C839 C 0.65782 0.42268 0.61871 0.0
H840 H 0.66423 0.37192 0.63295 0.0
C841 C 0.64623 0.41021 0.66562 0.0
C842 C 0.65859 0.39682 0.67113 0.0
C843 C 0.64756 0.41275 0.65414 0.0
C844 C 0.6628 0.38625 0.62909 0.0
H845 H 0.62605 0.42764 0.58069 0.0
H846 H 0.63233 0.42791 0.60061 0.0
H847 H 0.66184 0.37377 0.61281 0.0
H848 H 0.68255 0.3761 0.66895 0.0
H849 H 0.68492 0.3806 0.64889 0.0
H850 H 0.65832 0.43507 0.63506 0.0
C851 C 0.64131 0.4186 0.59537 0.0
C852 C 0.66143 0.38731 0.61754 0.0
C853 C 0.63763 0.41835 0.58395 0.0
C854 C 0.67274 0.38646 0.66495 0.0
C855 C 0.67404 0.38896 0.65345 0.0
C856 C 0.65916 0.42161 0.63028 0.0
C857 C 0.65585 0.40637 0.59999 0.0
C858 C 0.65869 0.40551 0.61222 0.0
C859 C 0.66127 0.40192 0.6479 0.0
C860 C 0.66143 0.40335 0.6356 0.0
H861 H 0.6719 0.3843 0.57629 0.0
H862 H 0.67847 0.38492 0.59618 0.0
H863 H 0.65602 0.43695 0.61484 0.0
H864 H 0.63519 0.41845 0.67014 0.0
H865 H 0.63737 0.42268 0.6501 0.0
C866 C 0.32402 0.88688 0.32917 0.0
C867 C 0.33826 0.89742 0.32315 0.0
C868 C 0.32222 0.8894 0.34064 0.0
C869 C 0.35151 0.90496 0.36477 0.0
H870 H 0.3016 0.90169 0.38024 0.0
C871 C 0.34748 0.88899 0.41143 0.0
C872 C 0.33367 0.89934 0.41785 0.0
C873 C 0.3472 0.89026 0.39987 0.0
C874 C 0.31563 0.90284 0.37604 0.0
H875 H 0.36112 0.91957 0.32436 0.0
H876 H 0.35775 0.92421 0.34434 0.0
H877 H 0.30215 0.90239 0.35996 0.0
H878 H 0.30859 0.91902 0.41714 0.0
H879 H 0.30823 0.92138 0.39688 0.0
H880 H 0.36501 0.9056 0.38079 0.0
C881 C 0.34827 0.91367 0.34024 0.0
C882 C 0.31596 0.90304 0.36442 0.0
C883 C 0.35014 0.91108 0.32878 0.0
C884 C 0.31941 0.91084 0.41243 0.0
C885 C 0.31916 0.91214 0.40083 0.0
C886 C 0.35117 0.90481 0.37635 0.0
C887 C 0.33455 0.90259 0.34634 0.0
C888 C 0.33393 0.90386 0.35865 0.0
C889 C 0.33316 0.90196 0.39443 0.0
C890 C 0.33327 0.90344 0.38213 0.0
H891 H 0.31464 0.87624 0.32508 0.0
H892 H 0.31166 0.88047 0.34509 0.0
H893 H 0.36563 0.90538 0.36061 0.0
H894 H 0.35858 0.87989 0.41533 0.0
H895 H 0.35794 0.88192 0.39519 0.0
C896 C 0.0715 0.60694 0.04039 0.0
C897 C 0.08137 0.62064 0.04714 0.0
C898 C 0.05094 0.6066 0.03999 0.0
C899 C 0.0074 0.63754 0.04566 0.0
H900 H 0.97933 0.58791 0.04637 0.0
C901 C 0.92416 0.63353 0.0538 0.0
C902 C 0.91302 0.6202 0.04748 0.0
C903 C 0.94467 0.6333 0.05332 0.0
C904 C 0.98695 0.60188 0.04603 0.0
H905 H 0.07735 0.64463 0.05881 0.0
H906 H 0.0416 0.6439 0.05818 0.0
H907 H 0.01524 0.58802 0.04628 0.0
H908 H 0.91472 0.59608 0.03572 0.0
H909 H 0.9506 0.59577 0.03483 0.0
H910 H 0.97918 0.65143 0.04547 0.0
C911 C 0.04972 0.6336 0.05308 0.0
C912 C 0.00753 0.60194 0.04597 0.0
C913 C 0.07024 0.63393 0.05349 0.0
C914 C 0.92287 0.60654 0.04071 0.0
C915 C 0.94343 0.60629 0.04024 0.0
C916 C 0.98687 0.63748 0.04572 0.0
C917 C 0.03982 0.61998 0.04631 0.0
C918 C 0.01798 0.61979 0.0459 0.0
C919 C 0.95456 0.61973 0.04651 0.0
C920 C 0.9764 0.61967 0.04601 0.0
H921 H 0.07965 0.59651 0.03539 0.0
H922 H 0.04376 0.59603 0.03462 0.0
H923 H 0.015 0.65153 0.04538 0.0
H924 H 0.91706 0.64419 0.05915 0.0
H925 H 0.9528 0.64363 0.0584 0.0
C926 C 0.64977 0.67992 0.28737 0.0
C927 C 0.63866 0.66908 0.27966 0.0
C928 C 0.65068 0.7004 0.28669 0.0
C929 C 0.64199 0.74261 0.26785 0.0
H930 H 0.63724 0.77163 0.29545 0.0
C931 C 0.62771 0.82664 0.26972 0.0
C932 C 0.63761 0.83734 0.27799 0.0
C933 C 0.62886 0.8061 0.26943 0.0
C934 C 0.63885 0.76377 0.28768 0.0
H935 H 0.62015 0.67124 0.26503 0.0
H936 H 0.62158 0.70704 0.26392 0.0
H937 H 0.63748 0.73586 0.29582 0.0
H938 H 0.65697 0.83488 0.29227 0.0
H939 H 0.65909 0.79917 0.2917 0.0
H940 H 0.64317 0.77063 0.25973 0.0
C941 C 0.62975 0.69967 0.27043 0.0
C942 C 0.63899 0.74324 0.28789 0.0
C943 C 0.62885 0.67915 0.2711 0.0
C944 C 0.64905 0.8271 0.28582 0.0
C945 C 0.65018 0.8066 0.28554 0.0
C946 C 0.64183 0.76318 0.26764 0.0
C947 C 0.64049 0.71055 0.27829 0.0
C948 C 0.64058 0.7324 0.27799 0.0
C949 C 0.63991 0.79584 0.27743 0.0
C950 C 0.64028 0.77399 0.27756 0.0
H951 H 0.65761 0.67262 0.29403 0.0
H952 H 0.65937 0.70831 0.29276 0.0
H953 H 0.64346 0.73469 0.26009 0.0
H954 H 0.61877 0.83407 0.26357 0.0
H955 H 0.62064 0.79823 0.26314 0.0
C956 C 0.4256 0.36004 0.54842 0.0
C957 C 0.41468 0.37419 0.54255 0.0
C958 C 0.4461 0.36101 0.54874 0.0
C959 C 0.48915 0.3817 0.53424 0.0
H960 H 0.51542 0.37149 0.56225 0.0
C961 C 0.57304 0.39225 0.54018 0.0
C962 C 0.58292 0.37777 0.54638 0.0
C963 C 0.55249 0.39245 0.53965 0.0
C964 C 0.50833 0.37418 0.55434 0.0
H965 H 0.41678 0.40036 0.53231 0.0
H966 H 0.45265 0.40208 0.5329 0.0
H967 H 0.47965 0.37058 0.56134 0.0
H968 H 0.57894 0.35211 0.55685 0.0
H969 H 0.5432 0.35233 0.55584 0.0
H970 H 0.51789 0.38518 0.52723 0.0
C971 C 0.44531 0.39015 0.53719 0.0
C972 C 0.48783 0.37367 0.55382 0.0
C973 C 0.42476 0.38921 0.53689 0.0
C974 C 0.57181 0.36352 0.55203 0.0
C975 C 0.55129 0.36371 0.55151 0.0
C976 C 0.5097 0.38219 0.53476 0.0
C977 C 0.4562 0.37613 0.54318 0.0
C978 C 0.478 0.37727 0.54375 0.0
C979 C 0.54138 0.37818 0.54532 0.0
C980 C 0.51953 0.3783 0.5448 0.0
H981 H 0.41832 0.34823 0.55284 0.0
H982 H 0.45406 0.34981 0.55328 0.0
H983 H 0.48203 0.38434 0.52633 0.0
H984 H 0.58116 0.40348 0.53574 0.0
H985 H 0.5453 0.40392 0.53492 0.0
C986 C 0.85021 0.32588 0.78972 0.0
C987 C 0.86029 0.33644 0.78145 0.0
C988 C 0.84953 0.30536 0.78944 0.0
C989 C 0.85654 0.26231 0.77105 0.0
H990 H 0.86528 0.23476 0.79882 0.0
C991 C 0.87179 0.1786 0.77336 0.0
C992 C 0.86312 0.16811 0.78215 0.0
C993 C 0.87057 0.19912 0.77295 0.0
C994 C 0.86256 0.2422 0.79102 0.0
H995 H 0.87719 0.33368 0.76625 0.0
H996 H 0.87614 0.29783 0.7658 0.0
H997 H 0.86449 0.27053 0.79864 0.0
H998 H 0.84602 0.17096 0.79729 0.0
H999 H 0.84373 0.20666 0.7965 0.0
H1000 H 0.85472 0.2339 0.76343 0.0
C1001 C 0.86861 0.30546 0.77246 0.0
C1002 C 0.8621 0.26273 0.79091 0.0
C1003 C 0.86929 0.32601 0.77275 0.0
C1004 C 0.85296 0.17858 0.79043 0.0
C1005 C 0.85174 0.19907 0.79001 0.0
C1006 C 0.85699 0.24174 0.77116 0.0
C1007 C 0.85892 0.29489 0.78088 0.0
C1008 C 0.85909 0.27303 0.78093 0.0
C1009 C 0.86066 0.2096 0.78132 0.0
C1010 C 0.86 0.23145 0.78115 0.0
H1011 H 0.84302 0.33345 0.79652 0.0
H1012 H 0.84167 0.29768 0.79595 0.0
H1013 H 0.85397 0.26981 0.76325 0.0
H1014 H 0.87974 0.17099 0.76686 0.0
H1015 H 0.87778 0.2068 0.7662 0.0
C1016 C 0.92594 0.39385 0.96093 0.0
C1017 C 0.91631 0.379 0.95489 0.0
C1018 C 0.94651 0.39471 0.96121 0.0
C1019 C 0.99017 0.37824 0.94554 0.0
H1020 H 0.01845 0.38875 0.97288 0.0
C1021 C 0.07329 0.3653 0.94919 0.0
C1022 C 0.08459 0.37944 0.95481 0.0
C1023 C 0.05279 0.36608 0.94946 0.0
C1024 C 0.01075 0.38604 0.96516 0.0
H1025 H 0.92074 0.35321 0.94457 0.0
H1026 H 0.95644 0.35462 0.94513 0.0
H1027 H 0.98249 0.38864 0.97291 0.0
H1028 H 0.08319 0.40541 0.96525 0.0
H1029 H 0.04727 0.40682 0.96567 0.0
H1030 H 0.01832 0.37553 0.93778 0.0
C1031 C 0.94816 0.36579 0.94951 0.0
C1032 C 0.99016 0.38597 0.96517 0.0
C1033 C 0.92766 0.36491 0.94926 0.0
C1034 C 0.07491 0.39428 0.96084 0.0
C1035 C 0.05434 0.39504 0.96112 0.0
C1036 C 0.01069 0.37831 0.94552 0.0
C1037 C 0.95783 0.38077 0.95541 0.0
C1038 C 0.97966 0.38183 0.95538 0.0
C1039 C 0.04306 0.38103 0.95535 0.0
C1040 C 0.02123 0.38196 0.95535 0.0
H1041 H 0.91761 0.40494 0.96536 0.0
H1042 H 0.95353 0.40651 0.96576 0.0
H1043 H 0.98253 0.37542 0.93781 0.0
H1044 H 0.08026 0.35361 0.94451 0.0
H1045 H 0.04455 0.35486 0.94509 0.0
C1046 C 0.89167 0.81754 0.19474 0.0
C1047 C 0.87938 0.82854 0.20177 0.0
C1048 C 0.8915 0.79701 0.19509 0.0
C1049 C 0.86088 0.75482 0.20357 0.0
H1050 H 0.90993 0.72601 0.20125 0.0
C1051 C 0.86504 0.67023 0.20838 0.0
C1052 C 0.87721 0.66016 0.20085 0.0
C1053 C 0.86538 0.69078 0.20894 0.0
C1054 C 0.89609 0.73383 0.2018 0.0
H1055 H 0.8573 0.82657 0.21474 0.0
H1056 H 0.85713 0.79069 0.21541 0.0
H1057 H 0.9104 0.76185 0.20147 0.0
H1058 H 0.89926 0.6638 0.18798 0.0
H1059 H 0.89971 0.69956 0.1889 0.0
H1060 H 0.84657 0.72678 0.20384 0.0
C1061 C 0.86675 0.79797 0.20954 0.0
C1062 C 0.89636 0.75437 0.20193 0.0
C1063 C 0.86693 0.81853 0.20919 0.0
C1064 C 0.88975 0.67108 0.19391 0.0
C1065 C 0.89009 0.69159 0.19448 0.0
C1066 C 0.86061 0.73426 0.20344 0.0
C1067 C 0.87903 0.78697 0.20248 0.0
C1068 C 0.87875 0.76512 0.20273 0.0
C1069 C 0.87791 0.70169 0.20199 0.0
C1070 C 0.8782 0.72353 0.20248 0.0
H1071 H 0.9014 0.82477 0.1889 0.0
H1072 H 0.90094 0.78898 0.18944 0.0
H1073 H 0.84704 0.76265 0.20405 0.0
H1074 H 0.85523 0.66226 0.21386 0.0
H1075 H 0.85596 0.6981 0.2149 0.0
C1076 C 0.42507 0.61255 0.4592 0.0
C1077 C 0.41527 0.62692 0.45288 0.0
C1078 C 0.4456 0.61241 0.45986 0.0
C1079 C 0.48911 0.64423 0.45595 0.0
H1080 H 0.51734 0.59494 0.45312 0.0
C1081 C 0.5725 0.64136 0.44795 0.0
C1082 C 0.58356 0.62689 0.45346 0.0
C1083 C 0.55199 0.64125 0.44849 0.0
C1084 C 0.50968 0.60879 0.45408 0.0
H1085 H 0.41939 0.65245 0.44231 0.0
H1086 H 0.45514 0.65213 0.44341 0.0
H1087 H 0.48146 0.59495 0.45298 0.0
H1088 H 0.58175 0.60098 0.46393 0.0
H1089 H 0.54588 0.60091 0.46497 0.0
H1090 H 0.51728 0.65811 0.45698 0.0
C1091 C 0.44696 0.64109 0.44796 0.0
C1092 C 0.48912 0.6088 0.454 0.0
C1093 C 0.42646 0.64119 0.44728 0.0
C1094 C 0.57365 0.61232 0.45957 0.0
C1095 C 0.5531 0.61221 0.46012 0.0
C1096 C 0.50965 0.64423 0.45605 0.0
C1097 C 0.45678 0.6267 0.45425 0.0
C1098 C 0.4786 0.62654 0.45482 0.0
C1099 C 0.54203 0.62668 0.45458 0.0
C1100 C 0.52019 0.62653 0.455 0.0
H1101 H 0.41688 0.60136 0.46363 0.0
H1102 H 0.45273 0.60125 0.46486 0.0
H1103 H 0.48145 0.65811 0.45681 0.0
H1104 H 0.57965 0.65276 0.44313 0.0
H1105 H 0.54392 0.65243 0.44399 0.0
C1106 C 0.61168 0.17547 0.69508 0.0
C1107 C 0.62522 0.1644 0.70129 0.0
C1108 C 0.6118 0.19598 0.69556 0.0
C1109 C 0.6435 0.23822 0.70252 0.0
H1110 H 0.59408 0.26667 0.70304 0.0
C1111 C 0.63939 0.32284 0.7076 0.0
C1112 C 0.62588 0.33275 0.70075 0.0
C1113 C 0.6394 0.30229 0.70817 0.0
C1114 C 0.608 0.25895 0.7028 0.0
H1115 H 0.64949 0.16623 0.71295 0.0
H1116 H 0.64959 0.2021 0.71387 0.0
H1117 H 0.5939 0.23083 0.70321 0.0
H1118 H 0.60182 0.32882 0.68912 0.0
H1119 H 0.60194 0.29306 0.69006 0.0
H1120 H 0.65758 0.26638 0.70205 0.0
C1121 C 0.639 0.19488 0.70852 0.0
C1122 C 0.6079 0.23841 0.70289 0.0
C1123 C 0.63887 0.17432 0.70804 0.0
C1124 C 0.61238 0.32167 0.69451 0.0
C1125 C 0.61237 0.30116 0.6951 0.0
C1126 C 0.64359 0.25879 0.70243 0.0
C1127 C 0.62546 0.20594 0.70228 0.0
C1128 C 0.62564 0.2278 0.70266 0.0
C1129 C 0.62586 0.29122 0.70194 0.0
C1130 C 0.62584 0.26938 0.70247 0.0
H1131 H 0.601 0.1683 0.68976 0.0
H1132 H 0.60136 0.20406 0.69053 0.0
H1133 H 0.65741 0.23049 0.7022 0.0
H1134 H 0.64997 0.33094 0.71253 0.0
H1135 H 0.64985 0.29508 0.7136 0.0
C1136 C 0.38311 0.32315 0.69391 0.0
C1137 C 0.36926 0.33418 0.69993 0.0
C1138 C 0.38346 0.30266 0.6947 0.0
C1139 C 0.35275 0.25999 0.70222 0.0
H1140 H 0.40289 0.23286 0.70324 0.0
C1141 C 0.35897 0.17574 0.70839 0.0
C1142 C 0.37271 0.16591 0.70166 0.0
C1143 C 0.35848 0.1963 0.70874 0.0
C1144 C 0.38877 0.2402 0.70286 0.0
H1145 H 0.34491 0.33234 0.71152 0.0
H1146 H 0.34562 0.29652 0.71296 0.0
H1147 H 0.40214 0.26868 0.70291 0.0
H1148 H 0.39671 0.16999 0.69001 0.0
H1149 H 0.39575 0.20577 0.69055 0.0
H1150 H 0.33941 0.23146 0.70211 0.0
C1151 C 0.35609 0.30373 0.70755 0.0
C1152 C 0.38834 0.26074 0.70267 0.0
C1153 C 0.35575 0.32426 0.70676 0.0
C1154 C 0.38597 0.17708 0.69531 0.0
C1155 C 0.38551 0.1976 0.69567 0.0
C1156 C 0.35319 0.23943 0.70242 0.0
C1157 C 0.36997 0.2927 0.70153 0.0
C1158 C 0.37034 0.27088 0.70224 0.0
C1159 C 0.37176 0.20746 0.70238 0.0
C1160 C 0.37121 0.2293 0.70264 0.0
H1161 H 0.39369 0.3303 0.68853 0.0
H1162 H 0.39413 0.29461 0.68982 0.0
H1163 H 0.33865 0.26734 0.70176 0.0
H1164 H 0.34856 0.16757 0.7134 0.0
H1165 H 0.34784 0.20345 0.71407 0.0
C1166 C 0.10793 0.66864 0.20179 0.0
C1167 C 0.12323 0.65736 0.20636 0.0
C1168 C 0.10806 0.68911 0.2027 0.0
C1169 C 0.14152 0.73099 0.20694 0.0
H1170 H 0.09311 0.75965 0.21224 0.0
C1171 C 0.13976 0.8157 0.21128 0.0
C1172 C 0.12457 0.82543 0.20557 0.0
C1173 C 0.13957 0.79522 0.21237 0.0
C1174 C 0.10673 0.75186 0.21068 0.0
H1175 H 0.15057 0.65873 0.21562 0.0
H1176 H 0.15072 0.69452 0.21727 0.0
H1177 H 0.09283 0.72379 0.2124 0.0
H1178 H 0.09713 0.82128 0.19667 0.0
H1179 H 0.0969 0.78564 0.1985 0.0
H1180 H 0.15535 0.75907 0.20507 0.0
C1181 C 0.13872 0.68751 0.21288 0.0
C1182 C 0.10657 0.73132 0.21077 0.0
C1183 C 0.13857 0.667 0.21198 0.0
C1184 C 0.10905 0.81426 0.20113 0.0
C1185 C 0.10885 0.79382 0.20224 0.0
C1186 C 0.14167 0.75155 0.20685 0.0
C1187 C 0.12351 0.69881 0.2082 0.0
C1188 C 0.12391 0.72064 0.20877 0.0
C1189 C 0.12416 0.78404 0.20782 0.0
C1190 C 0.12423 0.76222 0.20859 0.0
H1191 H 0.0959 0.66169 0.19738 0.0
H1192 H 0.09626 0.69738 0.19886 0.0
H1193 H 0.15508 0.72321 0.20523 0.0
H1194 H 0.15191 0.82388 0.21482 0.0
H1195 H 0.15147 0.78815 0.21683 0.0
C1196 C 0.14487 0.16999 0.78946 0.0
C1197 C 0.13463 0.15969 0.78115 0.0
C1198 C 0.14613 0.19048 0.78915 0.0
C1199 C 0.14071 0.23355 0.77059 0.0
H1200 H 0.1331 0.26172 0.79827 0.0
C1201 C 0.12815 0.31773 0.77272 0.0
C1202 C 0.13718 0.32801 0.78147 0.0
C1203 C 0.12883 0.29719 0.77232 0.0
C1204 C 0.13552 0.25408 0.79049 0.0
H1205 H 0.11796 0.16285 0.76589 0.0
H1206 H 0.11999 0.19866 0.76542 0.0
H1207 H 0.1325 0.22593 0.79821 0.0
H1208 H 0.15444 0.32476 0.79653 0.0
H1209 H 0.15578 0.289 0.79576 0.0
H1210 H 0.14357 0.2618 0.76287 0.0
C1211 C 0.12723 0.19086 0.77211 0.0
C1212 C 0.13517 0.23356 0.79046 0.0
C1213 C 0.12597 0.17033 0.77242 0.0
C1214 C 0.14723 0.31731 0.7897 0.0
C1215 C 0.14791 0.2968 0.7893 0.0
C1216 C 0.14104 0.25412 0.77063 0.0
C1217 C 0.13716 0.20118 0.78053 0.0
C1218 C 0.13776 0.22303 0.78051 0.0
C1219 C 0.13854 0.28648 0.78067 0.0
C1220 C 0.13846 0.26462 0.78058 0.0
H1221 H 0.15181 0.16225 0.79628 0.0
H1222 H 0.15416 0.19796 0.79567 0.0
H1223 H 0.14299 0.22588 0.76282 0.0
H1224 H 0.12026 0.32552 0.76626 0.0
H1225 H 0.12131 0.28967 0.76562 0.0
C1226 C 0.35622 0.67332 0.29118 0.0
C1227 C 0.3689 0.66354 0.29857 0.0
C1228 C 0.3561 0.69387 0.2906 0.0
C1229 C 0.38674 0.73724 0.29712 0.0
H1230 H 0.33761 0.76592 0.2949 0.0
C1231 C 0.38268 0.82115 0.30308 0.0
C1232 C 0.37043 0.83188 0.2959 0.0
C1233 C 0.3823 0.80061 0.30309 0.0
C1234 C 0.35147 0.75812 0.29538 0.0
H1235 H 0.3912 0.66769 0.31124 0.0
H1236 H 0.39084 0.70343 0.31031 0.0
H1237 H 0.33719 0.73004 0.29553 0.0
H1238 H 0.34812 0.82943 0.28309 0.0
H1239 H 0.34757 0.79353 0.28305 0.0
H1240 H 0.40103 0.76526 0.29702 0.0
C1241 C 0.3812 0.69525 0.30484 0.0
C1242 C 0.35123 0.73756 0.29574 0.0
C1243 C 0.38132 0.67474 0.30542 0.0
C1244 C 0.35774 0.8216 0.28873 0.0
C1245 C 0.35734 0.80103 0.28875 0.0
C1246 C 0.38698 0.75776 0.29676 0.0
C1247 C 0.36867 0.70506 0.29739 0.0
C1248 C 0.36886 0.72689 0.2967 0.0
C1249 C 0.36965 0.79031 0.29592 0.0
C1250 C 0.36935 0.76845 0.29597 0.0
H1251 H 0.34648 0.66512 0.28577 0.0
H1252 H 0.3464 0.70098 0.2847 0.0
H1253 H 0.40061 0.72946 0.29764 0.0
H1254 H 0.39257 0.82859 0.30875 0.0
H1255 H 0.39176 0.79281 0.30883 0.0
C1256 C 0.42866 0.13356 0.55376 0.0
C1257 C 0.41757 0.1197 0.54779 0.0
C1258 C 0.44919 0.13311 0.55346 0.0
C1259 C 0.49123 0.11479 0.53706 0.0
H1260 H 0.52005 0.1234 0.56443 0.0
C1261 C 0.57572 0.10522 0.54027 0.0
C1262 C 0.58593 0.11945 0.54648 0.0
C1263 C 0.55515 0.10476 0.5403 0.0
C1264 C 0.51223 0.12116 0.55669 0.0
H1265 H 0.41935 0.09457 0.53673 0.0
H1266 H 0.45522 0.09372 0.53626 0.0
H1267 H 0.48424 0.12357 0.56467 0.0
H1268 H 0.58254 0.14443 0.55753 0.0
H1269 H 0.54677 0.14373 0.5575 0.0
H1270 H 0.51928 0.11244 0.52908 0.0
C1271 C 0.44802 0.10505 0.5411 0.0
C1272 C 0.4917 0.12127 0.55683 0.0
C1273 C 0.42746 0.10548 0.54142 0.0
C1274 C 0.57515 0.13323 0.55268 0.0
C1275 C 0.55462 0.13276 0.55273 0.0
C1276 C 0.51179 0.11469 0.53692 0.0
C1277 C 0.45911 0.1188 0.54717 0.0
C1278 C 0.48095 0.11821 0.54701 0.0
C1279 C 0.54437 0.1185 0.54657 0.0
C1280 C 0.52253 0.11801 0.54672 0.0
H1281 H 0.42152 0.14477 0.55872 0.0
H1282 H 0.45729 0.1441 0.55809 0.0
H1283 H 0.48338 0.1126 0.52933 0.0
H1284 H 0.5836 0.09437 0.53541 0.0
H1285 H 0.5477 0.09347 0.53556 0.0
C1286 C 0.92371 0.86809 0.05254 0.0
C1287 C 0.91222 0.88211 0.04694 0.0
C1288 C 0.94418 0.86838 0.05167 0.0
C1289 C 0.98613 0.90049 0.04491 0.0
H1290 H 0.01385 0.85093 0.04188 0.0
C1291 C 0.07068 0.89579 0.03885 0.0
C1292 C 0.08043 0.88118 0.04502 0.0
C1293 C 0.05012 0.89626 0.0384 0.0
C1294 C 0.00634 0.86489 0.04281 0.0
H1295 H 0.91324 0.90756 0.03609 0.0
H1296 H 0.94908 0.90802 0.03454 0.0
H1297 H 0.97805 0.85119 0.04236 0.0
H1298 H 0.07621 0.85568 0.0556 0.0
H1299 H 0.0405 0.85663 0.0549 0.0
H1300 H 0.0145 0.91415 0.04547 0.0
C1301 C 0.94221 0.89687 0.03966 0.0
C1302 C 0.98582 0.86503 0.04309 0.0
C1303 C 0.92168 0.89655 0.04051 0.0
C1304 C 0.06919 0.86709 0.05072 0.0
C1305 C 0.04869 0.86755 0.05027 0.0
C1306 C 0.0067 0.90034 0.04464 0.0
C1307 C 0.95368 0.88271 0.04519 0.0
C1308 C 0.97547 0.8828 0.04429 0.0
C1309 C 0.03889 0.88211 0.0441 0.0
C1310 C 0.01704 0.8825 0.04373 0.0
H1311 H 0.91693 0.85681 0.05761 0.0
H1312 H 0.95259 0.85747 0.05619 0.0
H1313 H 0.97859 0.9144 0.04593 0.0
H1314 H 0.07892 0.90685 0.03435 0.0
H1315 H 0.04301 0.90757 0.0335 0.0
C1316 C 0.42218 0.87315 0.47192 0.0
C1317 C 0.4123 0.88268 0.46318 0.0
C1318 C 0.44273 0.8734 0.47248 0.0
C1319 C 0.48637 0.88015 0.45469 0.0
H1320 H 0.51414 0.88666 0.48259 0.0
C1321 C 0.57007 0.89132 0.45615 0.0
C1322 C 0.58064 0.88089 0.46427 0.0
C1323 C 0.54956 0.89196 0.45644 0.0
C1324 C 0.50659 0.88463 0.47475 0.0
H1325 H 0.41627 0.9004 0.44835 0.0
H1326 H 0.45199 0.90101 0.44941 0.0
H1327 H 0.4782 0.88712 0.48236 0.0
H1328 H 0.57793 0.86323 0.4792 0.0
H1329 H 0.54204 0.86423 0.47966 0.0
H1330 H 0.51465 0.87762 0.44707 0.0
C1331 C 0.4439 0.89304 0.45572 0.0
C1332 C 0.48601 0.88489 0.47462 0.0
C1333 C 0.4234 0.89278 0.45515 0.0
C1334 C 0.57023 0.8714 0.47282 0.0
C1335 C 0.54967 0.87205 0.47311 0.0
C1336 C 0.50689 0.8799 0.45482 0.0
C1337 C 0.45383 0.88318 0.46432 0.0
C1338 C 0.47568 0.88275 0.46457 0.0
C1339 C 0.5391 0.88218 0.46486 0.0
C1340 C 0.51725 0.88223 0.46484 0.0
H1341 H 0.41407 0.86522 0.47823 0.0
H1342 H 0.44993 0.86552 0.47916 0.0
H1343 H 0.47888 0.87804 0.44684 0.0
H1344 H 0.57762 0.8989 0.44948 0.0
H1345 H 0.54189 0.90017 0.45007 0.0
C1346 C 0.07011 0.1325 0.94579 0.0
C1347 C 0.08154 0.11969 0.95228 0.0
C1348 C 0.04962 0.13156 0.94611 0.0
C1349 C 0.0079 0.11446 0.96312 0.0
H1350 H 0.9792 0.11973 0.93543 0.0
C1351 C 0.92311 0.10559 0.95996 0.0
C1352 C 0.91328 0.11931 0.9532 0.0
C1353 C 0.94368 0.10476 0.96007 0.0
C1354 C 0.98698 0.11841 0.94325 0.0
H1355 H 0.0804 0.09591 0.96428 0.0
H1356 H 0.04451 0.0942 0.96479 0.0
H1357 H 0.015 0.11981 0.93523 0.0
H1358 H 0.91737 0.14305 0.94137 0.0
H1359 H 0.95309 0.14169 0.94165 0.0
H1360 H 0.97978 0.11317 0.97112 0.0
C1361 C 0.05145 0.10508 0.95952 0.0
C1362 C 0.0075 0.11846 0.94313 0.0
C1363 C 0.072 0.10601 0.95918 0.0
C1364 C 0.92445 0.13225 0.94664 0.0
C1365 C 0.94495 0.13139 0.94674 0.0
C1366 C 0.98732 0.11441 0.96323 0.0
C1367 C 0.04003 0.11778 0.95292 0.0
C1368 C 0.01821 0.11673 0.95307 0.0
C1369 C 0.95481 0.11758 0.9534 0.0
C1370 C 0.97664 0.11662 0.95331 0.0
H1371 H 0.07696 0.14328 0.94041 0.0
H1372 H 0.04126 0.14178 0.94107 0.0
H1373 H 0.01572 0.11327 0.97092 0.0
H1374 H 0.91493 0.0954 0.9651 0.0
H1375 H 0.95085 0.09386 0.96523 0.0
C1376 C 0.18167 0.43579 0.97957 0.0
C1377 C 0.17445 0.44122 0.96907 0.0
C1378 C 0.1882 0.45009 0.98703 0.0
C1379 C 0.19965 0.50369 0.98971 0.0
H1380 H 0.17862 0.49641 0.01937 0.0
C1381 C 0.17431 0.56637 0.01802 0.0
C1382 C 0.17757 0.56498 0.02952 0.0
C1383 C 0.18012 0.55119 0.01096 0.0
C1384 C 0.18499 0.49852 0.01121 0.0
H1385 H 0.16931 0.46576 0.95794 0.0
H1386 H 0.18 0.49073 0.97105 0.0
H1387 H 0.17754 0.46938 0.00622 0.0
H1388 H 0.19027 0.54705 0.04258 0.0
H1389 H 0.20008 0.52025 0.03019 0.0
H1390 H 0.20585 0.53336 0.9946 0.0
C1391 C 0.18107 0.47544 0.97349 0.0
C1392 C 0.18441 0.483 0.00364 0.0
C1393 C 0.17477 0.46112 0.96598 0.0
C1394 C 0.18751 0.54849 0.03376 0.0
C1395 C 0.1931 0.53316 0.02669 0.0
C1396 C 0.20002 0.5193 0.99725 0.0
C1397 C 0.18742 0.47014 0.98421 0.0
C1398 C 0.19118 0.48556 0.99269 0.0
C1399 C 0.18911 0.53423 0.01525 0.0
C1400 C 0.19217 0.517 0.00796 0.0
H1401 H 0.18187 0.42051 0.98213 0.0
H1402 H 0.19337 0.44545 0.99513 0.0
H1403 H 0.20538 0.50604 0.98142 0.0
H1404 H 0.16682 0.57897 0.0145 0.0
H1405 H 0.17666 0.55232 0.00219 0.0
C1406 C 0.81038 0.93857 0.21865 0.0
C1407 C 0.8248 0.92499 0.22198 0.0
C1408 C 0.79494 0.94347 0.22582 0.0
C1409 C 0.77881 0.94152 0.25511 0.0
H1410 H 0.72711 0.93099 0.24291 0.0
C1411 C 0.71474 0.91449 0.28176 0.0
C1412 C 0.69533 0.919 0.27873 0.0
C1413 C 0.73047 0.92092 0.27527 0.0
C1414 C 0.74133 0.9345 0.24644 0.0
H1415 H 0.83502 0.90673 0.23558 0.0
H1416 H 0.80828 0.9154 0.24808 0.0
H1417 H 0.7554 0.93257 0.23057 0.0
H1418 H 0.6772 0.93478 0.26687 0.0
H1419 H 0.70474 0.94628 0.25561 0.0
H1420 H 0.76487 0.94292 0.27101 0.0
C1421 C 0.80883 0.92224 0.23996 0.0
C1422 C 0.75755 0.93538 0.23935 0.0
C1423 C 0.82404 0.91714 0.23276 0.0
C1424 C 0.69201 0.93089 0.26936 0.0
C1425 C 0.70777 0.93742 0.26289 0.0
C1426 C 0.76257 0.94082 0.26219 0.0
C1427 C 0.79392 0.93514 0.23649 0.0
C1428 C 0.77652 0.93819 0.24367 0.0
C1429 C 0.72717 0.93212 0.26563 0.0
C1430 C 0.74374 0.93656 0.25799 0.0
H1431 H 0.81061 0.94485 0.21038 0.0
H1432 H 0.78362 0.95348 0.22297 0.0
H1433 H 0.79327 0.94398 0.25862 0.0
H1434 H 0.71781 0.90538 0.28894 0.0
H1435 H 0.74516 0.91629 0.27755 0.0
C1436 C 0.33207 0.45876 0.52993 0.0
C1437 C 0.33064 0.43903 0.52658 0.0
C1438 C 0.32549 0.47381 0.52299 0.0
C1439 C 0.31703 0.48405 0.49342 0.0
H1440 H 0.2981 0.53376 0.50505 0.0
C1441 C 0.30897 0.55276 0.4657 0.0
C1442 C 0.31986 0.56872 0.46985 0.0
C1443 C 0.30477 0.53664 0.47252 0.0
C1444 C 0.30322 0.5199 0.50168 0.0
H1445 H 0.32028 0.41953 0.51358 0.0
H1446 H 0.30845 0.44586 0.50152 0.0
H1447 H 0.30047 0.50528 0.51734 0.0
H1448 H 0.33386 0.5809 0.4845 0.0
H1449 H 0.32633 0.55295 0.4964 0.0
H1450 H 0.32021 0.49886 0.47783 0.0
C1451 C 0.31504 0.4497 0.50942 0.0
C1452 C 0.30468 0.50362 0.50871 0.0
C1453 C 0.32176 0.43462 0.51634 0.0
C1454 C 0.32555 0.56875 0.48106 0.0
C1455 C 0.32109 0.55282 0.4879 0.0
C1456 C 0.31538 0.50028 0.48637 0.0
C1457 C 0.31716 0.4695 0.51258 0.0
C1458 C 0.31229 0.4857 0.50476 0.0
C1459 C 0.31107 0.53642 0.48364 0.0
C1460 C 0.30911 0.51852 0.49054 0.0
H1461 H 0.33883 0.46267 0.53777 0.0
H1462 H 0.32768 0.48888 0.52563 0.0
H1463 H 0.32314 0.47057 0.4901 0.0
H1464 H 0.30442 0.55236 0.45708 0.0
H1465 H 0.29698 0.52417 0.46906 0.0
C1466 C 0.81271 0.07686 0.76943 0.0
C1467 C 0.81017 0.07758 0.78101 0.0
C1468 C 0.79717 0.07135 0.76252 0.0
C1469 C 0.74398 0.07388 0.76193 0.0
H1470 H 0.7494 0.04436 0.73454 0.0
C1471 C 0.68108 0.07223 0.73036 0.0
C1472 C 0.68665 0.07552 0.71928 0.0
C1473 C 0.69513 0.06729 0.73834 0.0
C1474 C 0.74766 0.05269 0.74214 0.0
H1475 H 0.7897 0.07197 0.79447 0.0
H1476 H 0.7625 0.06246 0.78237 0.0
H1477 H 0.77645 0.04485 0.74791 0.0
H1478 H 0.71115 0.07531 0.70775 0.0
H1479 H 0.73576 0.06736 0.7217 0.0
H1480 H 0.71575 0.08264 0.75602 0.0
C1481 C 0.77649 0.06631 0.77866 0.0
C1482 C 0.76311 0.05289 0.7498 0.0
C1483 C 0.79208 0.07171 0.78557 0.0
C1484 C 0.7064 0.07288 0.71623 0.0
C1485 C 0.72051 0.06817 0.72423 0.0
C1486 C 0.72862 0.07381 0.75425 0.0
C1487 C 0.77876 0.06653 0.76706 0.0
C1488 C 0.76156 0.06384 0.75966 0.0
C1489 C 0.71511 0.06577 0.73544 0.0
C1490 C 0.73043 0.06357 0.74415 0.0
H1491 H 0.82651 0.08117 0.76565 0.0
H1492 H 0.7993 0.07183 0.75361 0.0
H1493 H 0.74246 0.0827 0.76937 0.0
H1494 H 0.6659 0.07387 0.73293 0.0
H1495 H 0.6904 0.06512 0.74684 0.0
C1496 C 0.80838 0.54709 0.03366 0.0
C1497 C 0.81783 0.56391 0.02947 0.0
C1498 C 0.80337 0.53162 0.02655 0.0
C1499 C 0.79732 0.51753 0.99709 0.0
H1500 H 0.82145 0.46845 0.00618 0.0
C1501 C 0.82445 0.45996 0.96593 0.0
C1502 C 0.82538 0.4401 0.96907 0.0
C1503 C 0.81777 0.47414 0.97341 0.0
C1504 C 0.81413 0.48182 0.00357 0.0
H1505 H 0.82825 0.57833 0.01451 0.0
H1506 H 0.81942 0.55142 0.00214 0.0
H1507 H 0.8193 0.49547 0.01929 0.0
H1508 H 0.81869 0.41928 0.98219 0.0
H1509 H 0.8065 0.44396 0.99514 0.0
H1510 H 0.79255 0.50404 0.98126 0.0
C1511 C 0.8159 0.55015 0.01088 0.0
C1512 C 0.81294 0.49734 0.01111 0.0
C1513 C 0.82113 0.56547 0.01799 0.0
C1514 C 0.81842 0.43454 0.9796 0.0
C1515 C 0.8115 0.44869 0.98703 0.0
C1516 C 0.79831 0.50192 0.98956 0.0
C1517 C 0.80746 0.53287 0.01513 0.0
C1518 C 0.80514 0.51554 0.00783 0.0
C1519 C 0.81164 0.46874 0.98415 0.0
C1520 C 0.80736 0.4841 0.9926 0.0
H1521 H 0.8056 0.5455 0.04247 0.0
H1522 H 0.7968 0.51847 0.03001 0.0
H1523 H 0.79103 0.53138 0.9944 0.0
H1524 H 0.82971 0.46469 0.95787 0.0
H1525 H 0.81836 0.48944 0.97093 0.0
C1526 C 0.20967 0.08082 0.78309 0.0
C1527 C 0.19001 0.07736 0.7801 0.0
C1528 C 0.22497 0.0745 0.77624 0.0
C1529 C 0.23444 0.06365 0.74691 0.0
H1530 H 0.28619 0.05017 0.75811 0.0
C1531 C 0.3016 0.05893 0.71794 0.0
C1532 C 0.31723 0.0709 0.72151 0.0
C1533 C 0.28631 0.05415 0.72523 0.0
C1534 C 0.27178 0.05379 0.75487 0.0
H1535 H 0.17099 0.06352 0.76792 0.0
H1536 H 0.19774 0.05221 0.75604 0.0
H1537 H 0.25831 0.05147 0.77087 0.0
H1538 H 0.3297 0.08626 0.73565 0.0
H1539 H 0.30312 0.0779 0.74832 0.0
H1540 H 0.24802 0.06654 0.73097 0.0
C1541 C 0.20131 0.06018 0.76356 0.0
C1542 C 0.25584 0.05461 0.76216 0.0
C1543 C 0.18599 0.0666 0.77039 0.0
C1544 C 0.31779 0.07713 0.73263 0.0
C1545 C 0.30265 0.07219 0.73992 0.0
C1546 C 0.25035 0.0627 0.73961 0.0
C1547 C 0.22096 0.06446 0.76628 0.0
C1548 C 0.23712 0.06021 0.75833 0.0
C1549 C 0.28654 0.06103 0.73623 0.0
C1550 C 0.26928 0.0584 0.74358 0.0
H1551 H 0.21327 0.08904 0.79052 0.0
H1552 H 0.23989 0.07831 0.77852 0.0
H1553 H 0.2203 0.06824 0.74368 0.0
H1554 H 0.3008 0.05386 0.70942 0.0
H1555 H 0.27411 0.04543 0.72219 0.0
C1556 C 0.68546 0.45382 0.53294 0.0
C1557 C 0.67617 0.43684 0.52884 0.0
C1558 C 0.69006 0.46935 0.52579 0.0
C1559 C 0.69523 0.48321 0.4962 0.0
H1560 H 0.67272 0.53287 0.50561 0.0
C1561 C 0.66909 0.54203 0.46544 0.0
C1562 C 0.66956 0.56193 0.46854 0.0
C1563 C 0.67515 0.52747 0.47286 0.0
C1564 C 0.67955 0.5193 0.50291 0.0
H1565 H 0.66553 0.4223 0.51397 0.0
H1566 H 0.67359 0.44933 0.50153 0.0
H1567 H 0.67458 0.50571 0.51867 0.0
H1568 H 0.67792 0.5823 0.48158 0.0
H1569 H 0.68889 0.55691 0.49446 0.0
H1570 H 0.69974 0.49666 0.48033 0.0
C1571 C 0.67733 0.45067 0.51024 0.0
C1572 C 0.68059 0.50371 0.51041 0.0
C1573 C 0.67255 0.43526 0.51739 0.0
C1574 C 0.67714 0.56706 0.479 0.0
C1575 C 0.68337 0.5525 0.4864 0.0
C1576 C 0.69434 0.49887 0.4887 0.0
C1577 C 0.68569 0.46805 0.51441 0.0
C1578 C 0.68788 0.48534 0.50704 0.0
C1579 C 0.68199 0.53251 0.48352 0.0
C1580 C 0.68591 0.51691 0.49187 0.0
H1581 H 0.6885 0.45543 0.54173 0.0
H1582 H 0.69662 0.48256 0.5292 0.0
H1583 H 0.70116 0.46926 0.49343 0.0
H1584 H 0.66333 0.5376 0.45743 0.0
H1585 H 0.67361 0.51223 0.47041 0.0
C1586 C 0.19717 0.91402 0.22134 0.0
C1587 C 0.17856 0.92098 0.22452 0.0
C1588 C 0.21404 0.9203 0.22687 0.0
C1589 C 0.22963 0.93811 0.25404 0.0
H1590 H 0.28 0.94306 0.23918 0.0
C1591 C 0.3022 0.94133 0.27866 0.0
C1592 C 0.31592 0.92724 0.27507 0.0
C1593 C 0.28607 0.9462 0.27199 0.0
C1594 C 0.26602 0.94183 0.24344 0.0
H1595 H 0.16312 0.94066 0.23572 0.0
H1596 H 0.19272 0.95165 0.24542 0.0
H1597 H 0.24987 0.94161 0.22819 0.0
H1598 H 0.32413 0.90803 0.26144 0.0
H1599 H 0.29608 0.91646 0.24987 0.0
H1600 H 0.24583 0.93754 0.26926 0.0
C1601 C 0.19417 0.94119 0.23869 0.0
C1602 C 0.24879 0.94097 0.23716 0.0
C1603 C 0.17725 0.93492 0.23312 0.0
C1604 C 0.31375 0.91885 0.26448 0.0
C1605 C 0.29776 0.92382 0.2578 0.0
C1606 C 0.24687 0.93902 0.26032 0.0
C1607 C 0.21272 0.9337 0.23573 0.0
C1608 C 0.23048 0.93837 0.24237 0.0
C1609 C 0.28353 0.93722 0.26157 0.0
C1610 C 0.26527 0.94018 0.25507 0.0
H1611 H 0.19871 0.90334 0.21472 0.0
H1612 H 0.22805 0.91401 0.22449 0.0
H1613 H 0.21578 0.93594 0.25831 0.0
H1614 H 0.30353 0.9481 0.28677 0.0
H1615 H 0.27538 0.95667 0.27507 0.0
C1616 C 0.67594 0.03901 0.52984 0.0
C1617 C 0.67366 0.05889 0.52697 0.0
C1618 C 0.6808 0.02512 0.52175 0.0
C1619 C 0.67587 0.0179 0.49167 0.0
H1620 H 0.70438 0.96973 0.49784 0.0
C1621 C 0.67709 0.95451 0.46022 0.0
C1622 C 0.67114 0.93647 0.46482 0.0
C1623 C 0.68269 0.97007 0.46712 0.0
C1624 C 0.69647 0.98316 0.49599 0.0
H1625 H 0.67605 0.08007 0.51356 0.0
H1626 H 0.68495 0.05591 0.49949 0.0
H1627 H 0.70494 0.99652 0.51136 0.0
H1628 H 0.66756 0.92019 0.4802 0.0
H1629 H 0.67721 0.94732 0.49219 0.0
H1630 H 0.66695 0.00439 0.47646 0.0
C1631 C 0.68246 0.05094 0.50792 0.0
C1632 C 0.69672 0.99847 0.50373 0.0
C1633 C 0.67742 0.06479 0.51599 0.0
C1634 C 0.67193 0.93395 0.4764 0.0
C1635 C 0.67763 0.94945 0.48327 0.0
C1636 C 0.67572 0.00268 0.48391 0.0
C1637 C 0.68366 0.03086 0.51064 0.0
C1638 C 0.68596 0.0158 0.5018 0.0
C1639 C 0.68259 0.96781 0.47872 0.0
C1640 C 0.68555 0.98495 0.48613 0.0
H1641 H 0.67316 0.03401 0.53824 0.0
H1642 H 0.68136 0.00977 0.52412 0.0
H1643 H 0.66716 0.03089 0.48996 0.0
H1644 H 0.67676 0.95686 0.45133 0.0
H1645 H 0.68661 0.98403 0.46339 0.0
C1646 C 0.18459 0.42148 0.76835 0.0
C1647 C 0.18736 0.42182 0.77991 0.0
C1648 C 0.19954 0.42762 0.76122 0.0
C1649 C 0.25265 0.42845 0.76027 0.0
H1650 H 0.24455 0.45464 0.73202 0.0
C1651 C 0.31353 0.42851 0.72751 0.0
C1652 C 0.30736 0.4235 0.71674 0.0
C1653 C 0.29985 0.43415 0.73555 0.0
C1654 C 0.24705 0.44728 0.73987 0.0
H1655 H 0.20755 0.42995 0.7931 0.0
H1656 H 0.2338 0.44051 0.78059 0.0
H1657 H 0.21815 0.45428 0.74579 0.0
H1658 H 0.28216 0.4214 0.70577 0.0
H1659 H 0.25821 0.43056 0.71986 0.0
H1660 H 0.28099 0.42041 0.75422 0.0
C1661 C 0.22005 0.4354 0.77707 0.0
C1662 C 0.23197 0.44715 0.74776 0.0
C1663 C 0.20501 0.42939 0.78422 0.0
C1664 C 0.28736 0.42515 0.71401 0.0
C1665 C 0.27364 0.43057 0.72208 0.0
C1666 C 0.26764 0.42844 0.75237 0.0
C1667 C 0.21762 0.43412 0.7655 0.0
C1668 C 0.23446 0.43728 0.75792 0.0
C1669 C 0.27967 0.43465 0.73302 0.0
C1670 C 0.26484 0.43739 0.74195 0.0
H1671 H 0.17109 0.41587 0.76477 0.0
H1672 H 0.19731 0.42628 0.75234 0.0
H1673 H 0.25491 0.42048 0.76796 0.0
H1674 H 0.32891 0.42766 0.72982 0.0
H1675 H 0.30505 0.4376 0.74382 0.0
C1676 C 0.81559 0.95869 0.03321 0.0
C1677 C 0.81863 0.93901 0.03015 0.0
C1678 C 0.80996 0.97256 0.02526 0.0
C1679 C 0.81322 0.9802 0.99501 0.0
H1680 H 0.78569 0.02851 0.00216 0.0
C1681 C 0.80992 0.04451 0.96416 0.0
C1682 C 0.81771 0.06186 0.96873 0.0
C1683 C 0.80438 0.02895 0.97107 0.0
C1684 C 0.79325 0.015 3e-05 0.0
H1685 H 0.81666 0.91804 0.01664 0.0
H1686 H 0.80611 0.94205 0.00286 0.0
H1687 H 0.7857 0.00137 0.01547 0.0
H1688 H 0.82456 0.07706 0.9841 0.0
H1689 H 0.81473 0.04997 0.99613 0.0
H1690 H 0.82104 0.99397 0.97967 0.0
C1691 C 0.80877 0.94699 0.01128 0.0
C1692 C 0.79338 -0.00049 0.00767 0.0
C1693 C 0.81473 0.9332 0.01918 0.0
C1694 C 0.81876 0.0638 0.98033 0.0
C1695 C 0.81297 0.04837 0.98723 0.0
C1696 C 0.81286 0.99556 0.98734 0.0
C1697 C 0.80695 0.96697 0.01413 0.0
C1698 C 0.80392 0.98215 0.0054 0.0
C1699 C 0.80623 0.03062 0.98266 0.0
C1700 C 0.80341 0.01332 0.98993 0.0
H1701 H 0.81851 0.9636 0.04161 0.0
H1702 H 0.80897 0.98782 0.02777 0.0
H1703 H 0.82177 0.96725 0.99301 0.0
H1704 H 0.8089 0.04262 0.95525 0.0
H1705 H 0.79915 0.01541 0.96736 0.0
C1706 C 0.31635 0.57233 0.26777 0.0
C1707 C 0.31547 0.56703 0.27904 0.0
C1708 C 0.30119 0.5672 0.26054 0.0
C1709 C 0.24875 0.55992 0.26068 0.0
H1710 H 0.25688 0.54443 0.23002 0.0
C1711 C 0.18554 0.5638 0.22908 0.0
C1712 C 0.19049 0.57273 0.21893 0.0
C1713 C 0.20025 0.55747 0.23636 0.0
C1714 C 0.25435 0.54879 0.23855 0.0
H1715 H 0.29841 0.55155 0.2915 0.0
H1716 H 0.27156 0.54291 0.27883 0.0
H1717 H 0.28433 0.54329 0.24308 0.0
H1718 H 0.2147 0.58127 0.20824 0.0
H1719 H 0.24027 0.5708 0.22101 0.0
H1720 H 0.21918 0.56662 0.25608 0.0
C1721 C 0.2841 0.55094 0.27563 0.0
C1722 C 0.27004 0.54804 0.24603 0.0
C1723 C 0.29946 0.55584 0.28285 0.0
C1724 C 0.21039 0.57447 0.21601 0.0
C1725 C 0.22508 0.56828 0.22331 0.0
C1726 C 0.23311 0.56086 0.25318 0.0
C1727 C 0.28471 0.55685 0.26445 0.0
C1728 C 0.26751 0.55415 0.25708 0.0
C1729 C 0.22021 0.56005 0.23367 0.0
C1730 C 0.23588 0.55589 0.24195 0.0
H1731 H 0.32857 0.58084 0.26458 0.0
H1732 H 0.30194 0.57214 0.252 0.0
H1733 H 0.24644 0.56492 0.26912 0.0
H1734 H 0.17031 0.56205 0.23152 0.0
H1735 H 0.19597 0.55089 0.24419 0.0
C1736 C 0.30992 0.06996 0.51534 0.0
C1737 C 0.32416 0.06851 0.52376 0.0
C1738 C 0.30624 0.054 0.5083 0.0
C1739 C 0.3145 0.02429 0.48996 0.0
H1740 H 0.31848 0.9703 0.50007 0.0
C1741 C 0.34314 0.96195 0.46233 0.0
C1742 C 0.33598 0.94277 0.46384 0.0
C1743 C 0.33668 0.97725 0.46914 0.0
C1744 C 0.31695 0.98524 0.49708 0.0
H1745 H 0.34493 0.04887 0.53179 0.0
H1746 H 0.33871 0.02129 0.51951 0.0
H1747 H 0.31528 0.99668 0.5136 0.0
H1748 H 0.31561 0.92477 0.47328 0.0
H1749 H 0.30416 0.95156 0.48511 0.0
H1750 H 0.31643 0.01286 0.47343 0.0
C1751 C 0.33023 0.03461 0.51835 0.0
C1752 C 0.31535 0.00038 0.50485 0.0
C1753 C 0.33393 0.05052 0.52535 0.0
C1754 C 0.32156 0.93936 0.47198 0.0
C1755 C 0.31504 0.95469 0.47878 0.0
C1756 C 0.31604 0.00913 0.48218 0.0
C1757 C 0.31664 0.03628 0.50961 0.0
C1758 C 0.31477 0.02011 0.50139 0.0
C1759 C 0.32283 0.97373 0.47759 0.0
C1760 C 0.31793 0.98949 0.48566 0.0
H1761 H 0.30207 0.08359 0.51394 0.0
H1762 H 0.29552 0.05566 0.50171 0.0
H1763 H 0.31417 0.03933 0.48701 0.0
H1764 H 0.35423 0.96508 0.45612 0.0
H1765 H 0.3432 0.99166 0.46809 0.0
C1766 C 0.68718 0.57323 0.26939 0.0
C1767 C 0.69263 0.582 0.2795 0.0
C1768 C 0.70149 0.56581 0.26219 0.0
C1769 C 0.75492 0.55365 0.26011 0.0
H1770 H 0.74822 0.57048 0.22957 0.0
C1771 C 0.81861 0.57268 0.23096 0.0
C1772 C 0.81714 0.56799 0.21962 0.0
C1773 C 0.80316 0.56851 0.23819 0.0
C1774 C 0.75017 0.56527 0.238 0.0
H1775 H 0.71726 0.58903 0.29024 0.0
H1776 H 0.74219 0.57663 0.27762 0.0
H1777 H 0.72109 0.57388 0.24256 0.0
H1778 H 0.79869 0.55445 0.20706 0.0
H1779 H 0.77147 0.54742 0.21975 0.0
H1780 H 0.78447 0.54614 0.25561 0.0
C1781 C 0.72688 0.57511 0.27528 0.0
C1782 C 0.7346 0.56719 0.24547 0.0
C1783 C 0.71258 0.5824 0.2825 0.0
C1784 C 0.80022 0.55828 0.21575 0.0
C1785 C 0.78464 0.5543 0.22299 0.0
C1786 C 0.77055 0.55188 0.25266 0.0
C1787 C 0.72155 0.56711 0.26494 0.0
C1788 C 0.73697 0.56196 0.25669 0.0
C1789 C 0.78584 0.55972 0.23423 0.0
C1790 C 0.76849 0.55821 0.24161 0.0
H1791 H 0.67189 0.5725 0.2669 0.0
H1792 H 0.69687 0.55944 0.25437 0.0
H1793 H 0.7571 0.54909 0.26865 0.0
H1794 H 0.83152 0.58005 0.2342 0.0
H1795 H 0.80441 0.57305 0.24679 0.0
C1796 C 0.17749 0.93481 0.01795 0.0
C1797 C 0.17134 0.94084 0.02856 0.0
C1798 C 0.18451 0.94855 0.0103 0.0
C1799 C 0.19961 0.00116 0.00719 0.0
H1800 H 0.17626 0.99524 0.97799 0.0
C1801 C 0.17604 0.06517 0.97944 0.0
C1802 C 0.17814 0.06357 0.96787 0.0
C1803 C 0.1817 0.04974 0.98637 0.0
C1804 C 0.18329 0.99694 0.98601 0.0
H1805 H 0.16856 0.9658 0.03965 0.0
H1806 H 0.18009 0.98984 0.02622 0.0
H1807 H 0.17415 0.9684 0.99122 0.0
H1808 H 0.18874 0.04501 0.9545 0.0
H1809 H 0.19828 0.01777 0.96665 0.0
H1810 H 0.20753 0.03032 0.0021 0.0
C1811 C 0.17996 0.97448 0.02384 0.0
C1812 C 0.18212 0.98152 0.99362 0.0
C1813 C 0.17317 0.96071 0.03153 0.0
C1814 C 0.18689 0.04662 0.96339 0.0
C1815 C 0.19232 0.03104 0.97032 0.0
C1816 C 0.2006 0.01667 -0.0004 0.0
C1817 C 0.18531 0.96864 0.01304 0.0
C1818 C 0.18969 0.98367 0.00443 0.0
C1819 C 0.18937 0.03232 0.98185 0.0
C1820 C 0.19191 0.01489 0.98907 0.0
H1821 H 0.17653 0.91953 0.01548 0.0
H1822 H 0.18887 0.94348 0.00213 0.0
H1823 H 0.20599 0.00314 0.01535 0.0
H1824 H 0.16949 0.07813 0.98314 0.0
H1825 H 0.17905 0.05105 0.99521 0.0
C1826 C 0.78605 0.41833 0.78319 0.0
C1827 C 0.80594 0.42095 0.78044 0.0
C1828 C 0.77129 0.42504 0.77608 0.0
C1829 C 0.76368 0.43505 0.7465 0.0
H1830 H 0.71174 0.45027 0.75663 0.0
C1831 C 0.69817 0.43929 0.71637 0.0
C1832 C 0.68217 0.42782 0.71992 0.0
C1833 C 0.71314 0.44434 0.72381 0.0
C1834 C 0.72622 0.44617 0.75368 0.0
H1835 H 0.82598 0.43382 0.76844 0.0
H1836 H 0.80019 0.44581 0.75611 0.0
H1837 H 0.73892 0.44889 0.76987 0.0
H1838 H 0.66869 0.41365 0.73416 0.0
H1839 H 0.69472 0.42243 0.74709 0.0
H1840 H 0.75085 0.43171 0.7304 0.0
C1841 C 0.796 0.43818 0.76364 0.0
C1842 C 0.74176 0.44531 0.76125 0.0
C1843 C 0.81077 0.43136 0.77073 0.0
C1844 C 0.68091 0.42238 0.73116 0.0
C1845 C 0.69573 0.42757 0.73859 0.0
C1846 C 0.74818 0.43603 0.73892 0.0
C1847 C 0.7761 0.43464 0.76609 0.0
C1848 C 0.76051 0.43906 0.75782 0.0
C1849 C 0.71222 0.43821 0.73495 0.0
C1850 C 0.72916 0.44094 0.74252 0.0
H1851 H 0.78183 0.4104 0.79062 0.0
H1852 H 0.75614 0.42181 0.77816 0.0
H1853 H 0.77785 0.42996 0.74357 0.0
H1854 H 0.69951 0.44376 0.70777 0.0
H1855 H 0.72565 0.45264 0.72081 0.0
C1856 C 0.18357 0.82381 0.04467 0.0
C1857 C 0.16903 0.83438 0.03892 0.0
C1858 C 0.18576 0.80359 0.04296 0.0
C1859 C 0.15631 0.76118 0.03427 0.0
H1860 H 0.20604 0.73329 0.035 0.0
C1861 C 0.1583 0.67738 0.03103 0.0
C1862 C 0.17 0.66772 0.03895 0.0
C1863 C 0.16036 0.69754 0.02925 0.0
C1864 C 0.19205 0.7409 0.03482 0.0
H1865 H 0.14623 0.83233 0.02635 0.0
H1866 H 0.15025 0.79719 0.02327 0.0
H1867 H 0.20579 0.76928 0.03504 0.0
H1868 H 0.19376 0.67142 0.05079 0.0
H1869 H 0.19711 0.70675 0.04782 0.0
H1870 H 0.1425 0.73301 0.03434 0.0
C1871 C 0.15966 0.8044 0.02929 0.0
C1872 C 0.19191 0.76148 0.03484 0.0
C1873 C 0.15741 0.82455 0.03102 0.0
C1874 C 0.18449 0.67846 0.04465 0.0
C1875 C 0.18649 0.69869 0.0429 0.0
C1876 C 0.15646 0.7407 0.03425 0.0
C1877 C 0.1735 0.79359 0.03544 0.0
C1878 C 0.17401 0.77182 0.03466 0.0
C1879 C 0.17409 0.70852 0.03538 0.0
C1880 C 0.1743 0.7303 0.03461 0.0
H1881 H 0.19279 0.83098 0.05079 0.0
H1882 H 0.19646 0.79566 0.0479 0.0
H1883 H 0.14225 0.76867 0.03437 0.0
H1884 H 0.14717 0.66948 0.0264 0.0
H1885 H 0.15087 0.70463 0.02323 0.0
C1886 C 0.57332 0.93887 0.29101 0.0
C1887 C 0.58408 0.92467 0.28509 0.0
C1888 C 0.55299 0.94054 0.28953 0.0
C1889 C 0.51114 0.90991 0.28122 0.0
H1890 H 0.48175 0.9587 0.2828 0.0
C1891 C 0.42712 0.90965 0.27891 0.0
C1892 C 0.41734 0.92094 0.28698 0.0
C1893 C 0.4472 0.91218 0.27703 0.0
C1894 C 0.48978 0.94497 0.28239 0.0
H1895 H 0.58222 0.90202 0.27244 0.0
H1896 H 0.54689 0.90516 0.26973 0.0
H1897 H 0.51771 0.95959 0.2823 0.0
H1898 H 0.42079 0.94439 0.29903 0.0
H1899 H 0.45598 0.94859 0.29588 0.0
H1900 H 0.48342 0.89522 0.28158 0.0
C1901 C 0.55405 0.91468 0.27571 0.0
C1902 C 0.51035 0.94548 0.2821 0.0
C1903 C 0.57431 0.91295 0.27723 0.0
C1904 C 0.42791 0.93543 0.29278 0.0
C1905 C 0.44806 0.93792 0.29092 0.0
C1906 C 0.49067 0.9094 0.28151 0.0
C1907 C 0.54307 0.92809 0.28207 0.0
C1908 C 0.52125 0.92792 0.28159 0.0
C1909 C 0.458 0.926 0.28321 0.0
C1910 C 0.47973 0.9269 0.28218 0.0
H1911 H 0.58042 0.94814 0.29712 0.0
H1912 H 0.54495 0.95092 0.29461 0.0
H1913 H 0.51907 0.89609 0.28108 0.0
H1914 H 0.41936 0.89851 0.2742 0.0
H1915 H 0.45435 0.90304 0.27087 0.0
C1916 C 0.31316 0.17407 0.54507 0.0
C1917 C 0.32716 0.16283 0.5393 0.0
C1918 C 0.31058 0.19399 0.54259 0.0
C1919 C 0.33887 0.23527 0.53141 0.0
H1920 H 0.28929 0.26325 0.53329 0.0
C1921 C 0.33664 0.3191 0.52739 0.0
C1922 C 0.3256 0.32892 0.53555 0.0
C1923 C 0.33443 0.29889 0.52579 0.0
C1924 C 0.30325 0.25563 0.53277 0.0
H1925 H 0.34847 0.1633 0.52588 0.0
H1926 H 0.34378 0.19794 0.52147 0.0
H1927 H 0.28959 0.22731 0.53411 0.0
H1928 H 0.30284 0.32544 0.54802 0.0
H1929 H 0.29926 0.2901 0.54538 0.0
H1930 H 0.35264 0.26341 0.53043 0.0
C1931 C 0.3351 0.19149 0.52808 0.0
C1932 C 0.30341 0.23507 0.53323 0.0
C1933 C 0.33772 0.17161 0.53058 0.0
C1934 C 0.3116 0.31829 0.54168 0.0
C1935 C 0.30946 0.29804 0.54012 0.0
C1936 C 0.33871 0.25575 0.53096 0.0
C1937 C 0.32191 0.20303 0.53426 0.0
C1938 C 0.32127 0.22468 0.53271 0.0
C1939 C 0.32121 0.28802 0.53235 0.0
C1940 C 0.32094 0.2662 0.53178 0.0
H1941 H 0.30474 0.16773 0.55181 0.0
H1942 H 0.3004 0.2025 0.54756 0.0
H1943 H 0.35292 0.22777 0.53121 0.0
H1944 H 0.34739 0.32691 0.52244 0.0
H1945 H 0.34342 0.29168 0.51958 0.0
C1946 C 0.92279 0.05944 0.79153 0.0
C1947 C 0.91486 0.07739 0.78786 0.0
C1948 C 0.94268 0.05518 0.78988 0.0
C1949 C 0.98698 0.07048 0.77409 0.0
H1950 H 0.01508 0.05314 0.80035 0.0
C1951 C 0.06911 0.08523 0.78106 0.0
C1952 C 0.08046 0.07135 0.78687 0.0
C1953 C 0.04897 0.08232 0.77958 0.0
C1954 C 0.00746 0.05758 0.79286 0.0
H1955 H 0.92138 0.10458 0.77916 0.0
H1956 H 0.95603 0.09721 0.77637 0.0
H1957 H 0.97933 0.05453 0.80061 0.0
H1958 H 0.07976 0.04307 0.79521 0.0
H1959 H 0.04453 0.03794 0.79255 0.0
H1960 H 0.01518 0.07412 0.76647 0.0
C1961 C 0.94688 0.08635 0.78044 0.0
C1962 C 0.98695 0.05838 0.79301 0.0
C1963 C 0.92704 0.09064 0.78212 0.0
C1964 C 0.0714 0.0541 0.79075 0.0
C1965 C 0.05121 0.0512 0.78928 0.0
C1966 C 0.0075 0.06965 0.77394 0.0
C1967 C 0.955 0.06873 0.78447 0.0
C1968 C 0.97651 0.06532 0.78373 0.0
C1969 C 0.03972 0.06546 0.78386 0.0
C1970 C 0.01798 0.06367 0.78342 0.0
H1971 H 0.91376 0.04887 0.79593 0.0
H1972 H 0.94849 0.04139 0.79297 0.0
H1973 H 0.97931 0.07557 0.76675 0.0
H1974 H 0.07564 0.09866 0.77793 0.0
H1975 H 0.04052 0.09371 0.77549 0.0
C1976 C 0.18522 0.17739 0.95235 0.0
C1977 C 0.17119 0.16674 0.95846 0.0
C1978 C 0.18775 0.19754 0.95419 0.0
C1979 C 0.15955 0.23986 0.96424 0.0
H1980 H 0.2093 0.26746 0.96199 0.0
C1981 C 0.16251 0.32362 0.96787 0.0
C1982 C 0.17337 0.33331 0.95958 0.0
C1983 C 0.16462 0.30341 0.96949 0.0
C1984 C 0.19531 0.25993 0.96261 0.0
H1985 H 0.14973 0.16854 0.97176 0.0
H1986 H 0.15436 0.20354 0.97507 0.0
H1987 H 0.20879 0.23147 0.96172 0.0
H1988 H 0.19572 0.32959 0.9469 0.0
H1989 H 0.19914 0.29421 0.94961 0.0
H1990 H 0.14596 0.26812 0.96485 0.0
C1991 C 0.16308 0.19646 0.96868 0.0
C1992 C 0.19501 0.23936 0.96245 0.0
C1993 C 0.16049 0.17639 0.96682 0.0
C1994 C 0.1871 0.32254 0.95333 0.0
C1995 C 0.18915 0.30228 0.95493 0.0
C1996 C 0.15984 0.26035 0.96441 0.0
C1997 C 0.17635 0.20737 0.9622 0.0
C1998 C 0.17709 0.22912 0.96317 0.0
C1999 C 0.17755 0.29243 0.96283 0.0
C2000 C 0.17768 0.27064 0.96349 0.0
H2001 H 0.19373 0.17036 0.94587 0.0
H2002 H 0.19798 0.20555 0.94899 0.0
H2003 H 0.14545 0.23247 0.96457 0.0
H2004 H 0.15197 0.33153 0.97292 0.0
H2005 H 0.15575 0.29631 0.9758 0.0
C2006 C 0.93434 0.91022 0.21643 0.0
C2007 C 0.92229 0.92219 0.20979 0.0
C2008 C 0.9542 0.91471 0.21785 0.0
C2009 C 0.99433 0.93869 0.20315 0.0
H2010 H 0.02307 0.92774 0.23028 0.0
C2011 C 0.07885 0.93747 0.20362 0.0
C2012 C 0.08687 0.92055 0.20856 0.0
C2013 C 0.05912 0.94241 0.20533 0.0
C2014 C 0.01525 0.93089 0.22265 0.0
H2015 H 0.92139 0.94882 0.19987 0.0
H2016 H 0.95618 0.95664 0.20234 0.0
H2017 H 0.98717 0.92797 0.23052 0.0
H2018 H 0.08076 0.89611 0.21964 0.0
H2019 H 0.04643 0.90454 0.22249 0.0
H2020 H 0.02229 0.94074 0.19514 0.0
C2021 C 0.95024 0.94369 0.20637 0.0
C2022 C 0.99471 0.93104 0.22279 0.0
C2023 C 0.93032 0.93923 0.20498 0.0
C2024 C 0.07503 0.90921 0.21567 0.0
C2025 C 0.05535 0.91414 0.21738 0.0
C2026 C 0.01485 0.9385 0.203 0.0
C2027 C 0.96246 0.93126 0.21265 0.0
C2028 C 0.98404 0.93435 0.21297 0.0
C2029 C 0.04705 0.93054 0.21204 0.0
C2030 C 0.02553 0.93401 0.21267 0.0
H2031 H 0.9286 0.89702 0.22029 0.0
H2032 H 0.96326 0.90471 0.22263 0.0
H2033 H 0.98655 0.94108 0.19541 0.0
H2034 H 0.08763 0.9466 0.19816 0.0
H2035 H 0.05321 0.95527 0.20121 0.0
C2036 C 0.30422 0.67675 0.45574 0.0
C2037 C 0.32183 0.66887 0.45993 0.0
C2038 C 0.29994 0.69673 0.45707 0.0
C2039 C 0.31479 0.74175 0.47245 0.0
H2040 H 0.3003 0.76851 0.4452 0.0
C2041 C 0.33394 0.82232 0.46366 0.0
C2042 C 0.321 0.83389 0.45733 0.0
C2043 C 0.32984 0.80253 0.46564 0.0
C2044 C 0.30392 0.76129 0.45296 0.0
H2045 H 0.3483 0.67556 0.46928 0.0
H2046 H 0.34095 0.7103 0.4715 0.0
H2047 H 0.30049 0.73275 0.44577 0.0
H2048 H 0.29312 0.83401 0.44857 0.0
H2049 H 0.28595 0.79934 0.45205 0.0
H2050 H 0.31896 0.77036 0.4795 0.0
C2051 C 0.33034 0.70108 0.46726 0.0
C2052 C 0.30403 0.74076 0.45328 0.0
C2053 C 0.33463 0.68117 0.46591 0.0
C2054 C 0.30345 0.82545 0.45342 0.0
C2055 C 0.29937 0.80559 0.45538 0.0
C2056 C 0.31469 0.76229 0.47212 0.0
C2057 C 0.31314 0.70918 0.46267 0.0
C2058 C 0.31002 0.73077 0.46293 0.0
C2059 C 0.31271 0.79383 0.46134 0.0
C2060 C 0.3098 0.77227 0.46228 0.0
H2061 H 0.29399 0.66764 0.45115 0.0
H2062 H 0.28648 0.70251 0.45354 0.0
H2063 H 0.31914 0.73446 0.48006 0.0
H2064 H 0.34756 0.82838 0.46684 0.0
H2065 H 0.34055 0.79384 0.47014 0.0
C2066 C 0.42901 0.08576 0.71541 0.0
C2067 C 0.41677 0.07309 0.70931 0.0
C2068 C 0.44894 0.08151 0.71672 0.0
C2069 C 0.48888 0.05586 0.70263 0.0
H2070 H 0.51786 0.06927 0.72933 0.0
C2071 C 0.57365 0.05483 0.70366 0.0
C2072 C 0.58207 0.07204 0.70805 0.0
C2073 C 0.55366 0.05085 0.70523 0.0
C2074 C 0.50996 0.06543 0.72182 0.0
H2075 H 0.41566 0.04559 0.7002 0.0
H2076 H 0.45059 0.03817 0.70249 0.0
H2077 H 0.48196 0.06954 0.72961 0.0
H2078 H 0.57632 0.09813 0.71792 0.0
H2079 H 0.54158 0.09129 0.72056 0.0
H2080 H 0.51682 0.05248 0.69472 0.0
C2081 C 0.44474 0.05148 0.70617 0.0
C2082 C 0.48943 0.06559 0.72198 0.0
C2083 C 0.42474 0.0557 0.70489 0.0
C2084 C 0.57029 0.08477 0.7144 0.0
C2085 C 0.55038 0.08076 0.71599 0.0
C2086 C 0.50941 0.05571 0.70247 0.0
C2087 C 0.4571 0.0645 0.71195 0.0
C2088 C 0.47868 0.06135 0.7123 0.0
C2089 C 0.54176 0.06394 0.71128 0.0
C2090 C 0.52017 0.06106 0.71197 0.0
H2091 H 0.42333 0.09926 0.71895 0.0
H2092 H 0.45811 0.09198 0.72109 0.0
H2093 H 0.48103 0.05272 0.69501 0.0
H2094 H 0.58236 0.04469 0.69877 0.0
H2095 H 0.54746 0.03768 0.70158 0.0
C2096 C 0.83766 0.32318 0.96777 0.0
C2097 C 0.82695 0.33298 0.95946 0.0
C2098 C 0.83507 0.30307 0.96953 0.0
C2099 C 0.80309 0.26031 0.96307 0.0
H2100 H 0.85209 0.23143 0.96535 0.0
C2101 C 0.81084 0.17725 0.95356 0.0
C2102 C 0.82456 0.16636 0.95976 0.0
C2103 C 0.80883 0.19749 0.95525 0.0
C2104 C 0.83823 0.23923 0.96494 0.0
H2105 H 0.80444 0.32955 0.94684 0.0
H2106 H 0.80019 0.29432 0.94977 0.0
H2107 H 0.85266 0.26709 0.96525 0.0
H2108 H 0.84598 0.16789 0.9731 0.0
H2109 H 0.84227 0.20308 0.97614 0.0
H2110 H 0.78876 0.23224 0.96248 0.0
C2111 C 0.81042 0.30224 0.95502 0.0
C2112 C 0.83855 0.25972 0.96488 0.0
C2113 C 0.81294 0.32241 0.95329 0.0
C2114 C 0.83545 0.17591 0.96808 0.0
C2115 C 0.83338 0.19609 0.9698 0.0
C2116 C 0.80277 0.23973 0.96313 0.0
C2117 C 0.82181 0.29227 0.96298 0.0
C2118 C 0.82103 0.27051 0.96385 0.0
C2119 C 0.82046 0.2072 0.9632 0.0
C2120 C 0.82037 0.22899 0.96397 0.0
H2121 H 0.8484 0.33094 0.97276 0.0
H2122 H 0.84379 0.29588 0.97588 0.0
H2123 H 0.78933 0.26823 0.96238 0.0
H2124 H 0.8022 0.17031 0.9471 0.0
H2125 H 0.79885 0.20566 0.94997 0.0
C2126 C 0.66046 0.82079 0.46558 0.0
C2127 C 0.6735 0.83304 0.45974 0.0
C2128 C 0.66518 0.80113 0.46754 0.0
C2129 C 0.69349 0.76123 0.45533 0.0
H2130 H 0.67732 0.73341 0.48193 0.0
C2131 C 0.69424 0.67663 0.45729 0.0
C2132 C 0.67647 0.66847 0.46107 0.0
C2133 C 0.69829 0.69659 0.45893 0.0
C2134 C 0.68196 0.74098 0.47446 0.0
H2135 H 0.7021 0.8345 0.4518 0.0
H2136 H 0.71031 0.80002 0.45521 0.0
H2137 H 0.67656 0.7693 0.4816 0.0
H2138 H 0.64946 0.67461 0.47003 0.0
H2139 H 0.65639 0.7093 0.47277 0.0
H2140 H 0.69806 0.73296 0.448 0.0
C2141 C 0.69639 0.80567 0.45819 0.0
C2142 C 0.68153 0.76151 0.47427 0.0
C2143 C 0.6917 0.8254 0.45628 0.0
C2144 C 0.66326 0.68044 0.46697 0.0
C2145 C 0.66732 0.70033 0.46863 0.0
C2146 C 0.69389 0.7407 0.4555 0.0
C2147 C 0.68302 0.79325 0.46369 0.0
C2148 C 0.6867 0.77182 0.46458 0.0
C2149 C 0.68468 0.70873 0.46443 0.0
C2150 C 0.68753 0.73034 0.46495 0.0
H2151 H 0.64635 0.82623 0.4684 0.0
H2152 H 0.65445 0.7919 0.47167 0.0
H2153 H 0.69738 0.76873 0.4477 0.0
H2154 H 0.70478 0.66776 0.45277 0.0
H2155 H 0.71188 0.70261 0.4557 0.0
C2156 C 0.80967 0.67778 0.0449 0.0
C2157 C 0.82445 0.66718 0.03936 0.0
C2158 C 0.8077 0.69803 0.04323 0.0
C2159 C 0.83796 0.7403 0.03529 0.0
H2160 H 0.78845 0.76861 0.03524 0.0
C2161 C 0.83668 0.82422 0.03235 0.0
C2162 C 0.82446 0.8339 0.04001 0.0
C2163 C 0.8347 0.80406 0.03051 0.0
C2164 C 0.80238 0.76089 0.03528 0.0
H2165 H 0.84789 0.66922 0.02718 0.0
H2166 H 0.84426 0.70441 0.02416 0.0
H2167 H 0.7884 0.73262 0.03508 0.0
H2168 H 0.79997 0.8302 0.05136 0.0
H2169 H 0.79677 0.79488 0.04831 0.0
H2170 H 0.85199 0.76835 0.03578 0.0
C2171 C 0.83449 0.6972 0.02999 0.0
C2172 C 0.80234 0.74031 0.03519 0.0
C2173 C 0.83652 0.67701 0.03169 0.0
C2174 C 0.80964 0.82315 0.04542 0.0
C2175 C 0.80773 0.80293 0.04363 0.0
C2176 C 0.83799 0.76079 0.03538 0.0
C2177 C 0.82043 0.70803 0.03596 0.0
C2178 C 0.82016 0.72981 0.03528 0.0
C2179 C 0.82055 0.7931 0.03634 0.0
C2180 C 0.82022 0.77133 0.03547 0.0
H2181 H 0.80011 0.67061 0.05085 0.0
H2182 H 0.79681 0.70598 0.04801 0.0
H2183 H 0.85193 0.73268 0.0356 0.0
H2184 H 0.84809 0.83213 0.02793 0.0
H2185 H 0.84455 0.79698 0.02468 0.0
C2186 C 0.68688 0.3221 0.54434 0.0
C2187 C 0.67227 0.33266 0.53863 0.0
C2188 C 0.68914 0.3019 0.54259 0.0
C2189 C 0.65974 0.25946 0.53387 0.0
H2190 H 0.7095 0.23164 0.53473 0.0
C2191 C 0.66203 0.17561 0.53066 0.0
C2192 C 0.67374 0.16598 0.5386 0.0
C2193 C 0.66398 0.1958 0.52891 0.0
C2194 C 0.69551 0.23923 0.53451 0.0
H2195 H 0.64947 0.33061 0.52606 0.0
H2196 H 0.65363 0.29551 0.5229 0.0
H2197 H 0.70921 0.26763 0.5347 0.0
H2198 H 0.69735 0.1698 0.55053 0.0
H2199 H 0.7005 0.20516 0.54761 0.0
H2200 H 0.64597 0.23127 0.53396 0.0
C2201 C 0.66302 0.30271 0.52892 0.0
C2202 C 0.69534 0.25981 0.5345 0.0
C2203 C 0.6607 0.32284 0.5307 0.0
C2204 C 0.68807 0.1768 0.54437 0.0
C2205 C 0.68996 0.19705 0.54265 0.0
C2206 C 0.65991 0.23898 0.53388 0.0
C2207 C 0.67689 0.29191 0.53506 0.0
C2208 C 0.67742 0.27013 0.53427 0.0
C2209 C 0.6776 0.20683 0.5351 0.0
C2210 C 0.67777 0.22861 0.5343 0.0
H2211 H 0.69605 0.32925 0.55048 0.0
H2212 H 0.69986 0.29398 0.54751 0.0
H2213 H 0.64568 0.26693 0.53394 0.0
H2214 H 0.65101 0.16765 0.52598 0.0
H2215 H 0.6545 0.20284 0.52288 0.0
C2216 C 0.92751 0.43516 0.79462 0.0
C2217 C 0.91633 0.42104 0.78889 0.0
C2218 C 0.94783 0.43634 0.79301 0.0
C2219 C 0.98892 0.40472 0.78483 0.0
H2220 H 0.01908 0.45313 0.78515 0.0
C2221 C 0.07287 0.40309 0.78164 0.0
C2222 C 0.08309 0.4149 0.78928 0.0
C2223 C 0.05274 0.4057 0.77996 0.0
C2224 C 0.01084 0.4395 0.7851 0.0
H2225 H 0.91748 0.39794 0.77647 0.0
H2226 H 0.95284 0.40019 0.77357 0.0
H2227 H 0.98313 0.45454 0.78503 0.0
H2228 H 0.0804 0.43928 0.8008 0.0
H2229 H 0.04513 0.4436 0.79803 0.0
H2230 H 0.01642 0.38962 0.78518 0.0
C2231 C 0.94598 0.41005 0.77948 0.0
C2232 C 0.99028 0.44031 0.78502 0.0
C2233 C 0.92571 0.40883 0.78111 0.0
C2234 C 0.07292 0.42992 0.79487 0.0
C2235 C 0.05273 0.43247 0.79323 0.0
C2236 C 0.00939 0.40391 0.78492 0.0
C2237 C 0.95734 0.42346 0.78563 0.0
C2238 C 0.97911 0.42291 0.78497 0.0
C2239 C 0.04235 0.42011 0.78593 0.0
C2240 C 0.0206 0.42127 0.78513 0.0
H2241 H 0.9207 0.4448 0.80066 0.0
H2242 H 0.95619 0.44673 0.79793 0.0
H2243 H 0.98077 0.39104 0.78503 0.0
H2244 H 0.08033 0.39153 0.7771 0.0
H2245 H 0.04524 0.39619 0.77412 0.0
C2246 C 0.42918 0.56248 0.29493 0.0
C2247 C 0.41789 0.57677 0.28942 0.0
C2248 C 0.44945 0.56122 0.29309 0.0
C2249 C 0.4904 0.59283 0.28463 0.0
H2250 H 0.5204 0.54433 0.28452 0.0
C2251 C 0.57427 0.59431 0.28087 0.0
C2252 C 0.58459 0.58245 0.28845 0.0
C2253 C 0.55412 0.59171 0.27927 0.0
C2254 C 0.5122 0.55799 0.28458 0.0
H2255 H 0.41875 0.6001 0.27711 0.0
H2256 H 0.45397 0.59771 0.27381 0.0
H2257 H 0.48444 0.54303 0.28471 0.0
H2258 H 0.58204 0.55796 0.29991 0.0
H2259 H 0.54675 0.55367 0.29727 0.0
H2260 H 0.51796 0.60784 0.28479 0.0
C2261 C 0.44727 0.58777 0.27974 0.0
C2262 C 0.49164 0.55724 0.28469 0.0
C2263 C 0.42707 0.58908 0.2816 0.0
C2264 C 0.5745 0.56737 0.29403 0.0
C2265 C 0.55429 0.56483 0.29247 0.0
C2266 C 0.51087 0.59358 0.28453 0.0
C2267 C 0.45877 0.5742 0.28568 0.0
C2268 C 0.48053 0.57468 0.2848 0.0
C2269 C 0.5438 0.57727 0.28526 0.0
C2270 C 0.52203 0.57619 0.2846 0.0
H2271 H 0.42254 0.55276 0.30099 0.0
H2272 H 0.45792 0.5507 0.29786 0.0
H2273 H 0.48231 0.60654 0.28495 0.0
H2274 H 0.58167 0.60591 0.27634 0.0
H2275 H 0.54654 0.60128 0.2735 0.0
C2276 C 0.42344 0.41309 0.71299 0.0
C2277 C 0.41398 0.42311 0.70429 0.0
C2278 C 0.44356 0.41548 0.71477 0.0
C2279 C 0.48703 0.44591 0.70764 0.0
H2280 H 0.51481 0.39657 0.71149 0.0
C2281 C 0.57033 0.43591 0.69948 0.0
C2282 C 0.58065 0.42244 0.70614 0.0
C2283 C 0.55006 0.43839 0.7008 0.0
C2284 C 0.50731 0.41054 0.71063 0.0
H2285 H 0.41799 0.44425 0.69099 0.0
H2286 H 0.45327 0.44816 0.69398 0.0
H2287 H 0.47916 0.39672 0.71107 0.0
H2288 H 0.57809 0.402 0.71991 0.0
H2289 H 0.54286 0.40658 0.72234 0.0
H2290 H 0.5154 0.45962 0.70696 0.0
C2291 C 0.44507 0.43862 0.6995 0.0
C2292 C 0.48684 0.41063 0.71039 0.0
C2293 C 0.42488 0.43629 0.69774 0.0
C2294 C 0.57051 0.4123 0.71454 0.0
C2295 C 0.55031 0.41486 0.71591 0.0
C2296 C 0.5076 0.44583 0.70789 0.0
C2297 C 0.4547 0.42786 0.70786 0.0
C2298 C 0.47645 0.42827 0.70881 0.0
C2299 C 0.53976 0.42751 0.70885 0.0
C2300 C 0.51796 0.4281 0.70931 0.0
H2301 H 0.41541 0.40301 0.71828 0.0
H2302 H 0.45049 0.40729 0.72142 0.0
H2303 H 0.47942 0.45975 0.70651 0.0
H2304 H 0.57775 0.44396 0.69294 0.0
H2305 H 0.54234 0.44814 0.69518 0.0
C2306 C 0.93031 0.57699 0.21442 0.0
C2307 C 0.91825 0.56573 0.20739 0.0
C2308 C 0.95008 0.57216 0.21583 0.0
C2309 C 0.99042 0.54874 0.20095 0.0
H2310 H 0.01817 0.55681 0.22872 0.0
C2311 C 0.07502 0.54735 0.20294 0.0
C2312 C 0.08323 0.56366 0.2084 0.0
C2313 C 0.05502 0.543 0.2041 0.0
C2314 C 0.01062 0.55447 0.22091 0.0
H2315 H 0.91729 0.54008 0.19669 0.0
H2316 H 0.95196 0.53166 0.19915 0.0
H2317 H 0.98227 0.55734 0.22847 0.0
H2318 H 0.07713 0.58763 0.2198 0.0
H2319 H 0.04237 0.58019 0.22173 0.0
H2320 H 0.0187 0.54667 0.19329 0.0
C2321 C 0.94607 0.54431 0.2035 0.0
C2322 C 0.99009 0.55476 0.22077 0.0
C2323 C 0.92622 0.54909 0.20212 0.0
C2324 C 0.07126 0.57499 0.21544 0.0
C2325 C 0.05133 0.57062 0.21662 0.0
C2326 C 0.01095 0.54846 0.20108 0.0
C2327 C 0.95828 0.55599 0.21023 0.0
C2328 C 0.97979 0.55249 0.21073 0.0
C2329 C 0.0429 0.55482 0.2108 0.0
C2330 C 0.02127 0.55191 0.21101 0.0
H2331 H 0.92461 0.58986 0.21863 0.0
H2332 H 0.95914 0.58161 0.22096 0.0
H2333 H 0.98292 0.54715 0.19306 0.0
H2334 H 0.08388 0.53826 0.1975 0.0
H2335 H 0.04897 0.53061 0.1996 0.0
loop_
_geom_bond_atom_site_label_1
_geom_bond_atom_site_label_2
_geom_bond_distance
_geom_bond_site_symmetry_2
_ccdc_geom_bond_type
C0 O1 1.160 . S
C0 O7 1.185 . S
O1 C0 1.160 . S
O2 Zn3 1.899 . S
O2 C10 1.284 . S
Zn3 O2 1.899 . S
Zn3 O4 2.032 . S
Zn3 O7 2.086 . S
Zn3 O12 1.977 . S
O4 Zn3 2.032 . S
O4 C8 1.278 . S
C5 O6 1.203 . S
C5 O12 1.267 . S
O6 C5 1.203 . S
O7 C0 1.185 . S
O7 Zn3 2.086 . S
C8 O4 1.278 . S
C8 O9 1.211 . S
O9 C8 1.211 . S
C10 O2 1.284 . S
C10 O11 1.273 . S
O11 C10 1.273 . S
O12 Zn3 1.977 . S
O12 C5 1.267 . S
C13 O14 1.160 . S
C13 O20 1.185 . S
O14 C13 1.160 . S
O15 Zn16 1.899 . S
O15 C23 1.284 . S
Zn16 O15 1.899 . S
Zn16 O17 2.032 . S
Zn16 O20 2.086 . S
Zn16 O25 1.977 . S
O17 Zn16 2.032 . S
O17 C21 1.278 . S
C18 O19 1.203 . S
C18 O25 1.267 . S
O19 C18 1.203 . S
O20 C13 1.185 . S
O20 Zn16 2.086 . S
C21 O17 1.278 . S
C21 O22 1.211 . S
O22 C21 1.211 . S
C23 O15 1.284 . S
C23 O24 1.273 . S
O24 C23 1.273 . S
O25 Zn16 1.977 . S
O25 C18 1.267 . S
C26 O27 1.160 . S
C26 O33 1.185 . S
O27 C26 1.160 . S
O28 Zn29 1.899 . S
O28 C36 1.284 . S
Zn29 O28 1.899 . S
Zn29 O30 2.032 . S
Zn29 O33 2.086 . S
Zn29 O38 1.977 . S
O30 Zn29 2.032 . S
O30 C34 1.278 . S
C31 O32 1.203 . S
C31 O38 1.267 . S
O32 C31 1.203 . S
O33 C26 1.185 . S
O33 Zn29 2.086 . S
C34 O30 1.278 . S
C34 O35 1.211 . S
O35 C34 1.211 . S
C36 O28 1.284 . S
C36 O37 1.273 . S
O37 C36 1.273 . S
O38 Zn29 1.977 . S
O38 C31 1.267 . S
C39 O40 1.160 . S
C39 O46 1.185 . S
O40 C39 1.160 . S
O41 Zn42 1.899 . S
O41 C49 1.284 . S
Zn42 O41 1.899 . S
Zn42 O43 2.032 . S
Zn42 O46 2.086 . S
Zn42 O51 1.977 . S
O43 Zn42 2.032 . S
O43 C47 1.278 . S
C44 O45 1.203 . S
C44 O51 1.267 . S
O45 C44 1.203 . S
O46 C39 1.185 . S
O46 Zn42 2.086 . S
C47 O43 1.278 . S
C47 O48 1.211 . S
O48 C47 1.211 . S
C49 O41 1.284 . S
C49 O50 1.273 . S
O50 C49 1.273 . S
O51 Zn42 1.977 . S
O51 C44 1.267 . S
C52 O53 1.160 . S
C52 O59 1.185 . S
O53 C52 1.160 . S
O54 Zn55 1.899 . S
O54 C62 1.284 . S
Zn55 O54 1.899 . S
Zn55 O56 2.032 . S
Zn55 O59 2.086 . S
Zn55 O64 1.977 . S
O56 Zn55 2.032 . S
O56 C60 1.278 . S
C57 O58 1.203 . S
C57 O64 1.267 . S
O58 C57 1.203 . S
O59 C52 1.185 . S
O59 Zn55 2.086 . S
C60 O56 1.278 . S
C60 O61 1.211 . S
O61 C60 1.211 . S
C62 O54 1.284 . S
C62 O63 1.273 . S
O63 C62 1.273 . S
O64 Zn55 1.977 . S
O64 C57 1.267 . S
C65 O66 1.160 . S
C65 O72 1.185 . S
O66 C65 1.160 . S
O67 Zn68 1.899 . S
O67 C75 1.284 . S
Zn68 O67 1.899 . S
Zn68 O69 2.032 . S
Zn68 O72 2.086 . S
Zn68 O77 1.977 . S
O69 Zn68 2.032 . S
O69 C73 1.278 . S
C70 O71 1.203 . S
C70 O77 1.267 . S
O71 C70 1.203 . S
O72 C65 1.185 . S
O72 Zn68 2.086 . S
C73 O69 1.278 . S
C73 O74 1.211 . S
O74 C73 1.211 . S
C75 O67 1.284 . S
C75 O76 1.273 . S
O76 C75 1.273 . S
O77 Zn68 1.977 . S
O77 C70 1.267 . S
C78 O79 1.160 . S
C78 O85 1.185 . S
O79 C78 1.160 . S
O80 Zn81 1.899 . S
O80 C88 1.284 . S
Zn81 O80 1.899 . S
Zn81 O82 2.032 . S
Zn81 O85 2.086 . S
Zn81 O90 1.977 . S
O82 Zn81 2.032 . S
O82 C86 1.278 . S
C83 O84 1.203 . S
C83 O90 1.267 . S
O84 C83 1.203 . S
O85 C78 1.185 . S
O85 Zn81 2.086 . S
C86 O82 1.278 . S
C86 O87 1.211 . S
O87 C86 1.211 . S
C88 O80 1.284 . S
C88 O89 1.273 . S
O89 C88 1.273 . S
O90 Zn81 1.977 . S
O90 C83 1.267 . S
C91 O92 1.160 . S
C91 O98 1.185 . S
O92 C91 1.160 . S
O93 Zn94 1.899 . S
O93 C101 1.284 . S
Zn94 O93 1.899 . S
Zn94 O95 2.032 . S
Zn94 O98 2.086 . S
Zn94 O103 1.977 . S
O95 Zn94 2.032 . S
O95 C99 1.278 . S
C96 O97 1.203 . S
C96 O103 1.267 . S
O97 C96 1.203 . S
O98 C91 1.185 . S
O98 Zn94 2.086 . S
C99 O95 1.278 . S
C99 O100 1.211 . S
O100 C99 1.211 . S
C101 O93 1.284 . S
C101 O102 1.273 . S
O102 C101 1.273 . S
O103 Zn94 1.977 . S
O103 C96 1.267 . S
C104 O105 1.160 . S
C104 O111 1.185 . S
O105 C104 1.160 . S
O106 Zn107 1.899 . S
O106 C114 1.284 . S
Zn107 O106 1.899 . S
Zn107 O108 2.032 . S
Zn107 O111 2.086 . S
Zn107 O116 1.977 . S
O108 Zn107 2.032 . S
O108 C112 1.278 . S
C109 O110 1.203 . S
C109 O116 1.267 . S
O110 C109 1.203 . S
O111 C104 1.185 . S
O111 Zn107 2.086 . S
C112 O108 1.278 . S
C112 O113 1.211 . S
O113 C112 1.211 . S
C114 O106 1.284 . S
C114 O115 1.273 . S
O115 C114 1.273 . S
O116 Zn107 1.977 . S
O116 C109 1.267 . S
C117 O118 1.160 . S
C117 O124 1.185 . S
O118 C117 1.160 . S
O119 Zn120 1.899 . S
O119 C127 1.284 . S
Zn120 O119 1.899 . S
Zn120 O121 2.032 . S
Zn120 O124 2.086 . S
Zn120 O129 1.977 . S
O121 Zn120 2.032 . S
O121 C125 1.278 . S
C122 O123 1.203 . S
C122 O129 1.267 . S
O123 C122 1.203 . S
O124 C117 1.185 . S
O124 Zn120 2.086 . S
C125 O121 1.278 . S
C125 O126 1.211 . S
O126 C125 1.211 . S
C127 O119 1.284 . S
C127 O128 1.273 . S
O128 C127 1.273 . S
O129 Zn120 1.977 . S
O129 C122 1.267 . S
C130 O131 1.160 . S
C130 O137 1.185 . S
O131 C130 1.160 . S
O132 Zn133 1.899 . S
O132 C140 1.284 . S
Zn133 O132 1.899 . S
Zn133 O134 2.032 . S
Zn133 O137 2.086 . S
Zn133 O142 1.977 . S
O134 Zn133 2.032 . S
O134 C138 1.278 . S
C135 O136 1.203 . S
C135 O142 1.267 . S
O136 C135 1.203 . S
O137 C130 1.185 . S
O137 Zn133 2.086 . S
C138 O134 1.278 . S
C138 O139 1.211 . S
O139 C138 1.211 . S
C140 O132 1.284 . S
C140 O141 1.273 . S
O141 C140 1.273 . S
O142 Zn133 1.977 . S
O142 C135 1.267 . S
C143 O144 1.160 . S
C143 O150 1.185 . S
O144 C143 1.160 . S
O145 Zn146 1.899 . S
O145 C153 1.284 . S
Zn146 O145 1.899 . S
Zn146 O147 2.032 . S
Zn146 O150 2.086 . S
Zn146 O155 1.977 . S
O147 Zn146 2.032 . S
O147 C151 1.278 . S
C148 O149 1.203 . S
C148 O155 1.267 . S
O149 C148 1.203 . S
O150 C143 1.185 . S
O150 Zn146 2.086 . S
C151 O147 1.278 . S
C151 O152 1.211 . S
O152 C151 1.211 . S
C153 O145 1.284 . S
C153 O154 1.273 . S
O154 C153 1.273 . S
O155 Zn146 1.977 . S
O155 C148 1.267 . S
C156 O157 1.160 . S
C156 O163 1.185 . S
O157 C156 1.160 . S
O158 Zn159 1.899 . S
O158 C166 1.284 . S
Zn159 O158 1.899 . S
Zn159 O160 2.032 . S
Zn159 O163 2.086 . S
Zn159 O168 1.977 . S
O160 Zn159 2.032 . S
O160 C164 1.278 . S
C161 O162 1.203 . S
C161 O168 1.267 . S
O162 C161 1.203 . S
O163 C156 1.185 . S
O163 Zn159 2.086 . S
C164 O160 1.278 . S
C164 O165 1.211 . S
O165 C164 1.211 . S
C166 O158 1.284 . S
C166 O167 1.273 . S
O167 C166 1.273 . S
O168 Zn159 1.977 . S
O168 C161 1.267 . S
C169 O170 1.160 . S
C169 O176 1.185 . S
O170 C169 1.160 . S
O171 Zn172 1.899 . S
O171 C179 1.284 . S
Zn172 O171 1.899 . S
Zn172 O173 2.032 . S
Zn172 O176 2.086 . S
Zn172 O181 1.977 . S
O173 Zn172 2.032 . S
O173 C177 1.278 . S
C174 O175 1.203 . S
C174 O181 1.267 . S
O175 C174 1.203 . S
O176 C169 1.185 . S
O176 Zn172 2.086 . S
C177 O173 1.278 . S
C177 O178 1.211 . S
O178 C177 1.211 . S
C179 O171 1.284 . S
C179 O180 1.273 . S
O180 C179 1.273 . S
O181 Zn172 1.977 . S
O181 C174 1.267 . S
C182 O183 1.160 . S
C182 O189 1.185 . S
O183 C182 1.160 . S
O184 Zn185 1.899 . S
O184 C192 1.284 . S
Zn185 O184 1.899 . S
Zn185 O186 2.032 . S
Zn185 O189 2.086 . S
Zn185 O194 1.977 . S
O186 Zn185 2.032 . S
O186 C190 1.278 . S
C187 O188 1.203 . S
C187 O194 1.267 . S
O188 C187 1.203 . S
O189 C182 1.185 . S
O189 Zn185 2.086 . S
C190 O186 1.278 . S
C190 O191 1.211 . S
O191 C190 1.211 . S
C192 O184 1.284 . S
C192 O193 1.273 . S
O193 C192 1.273 . S
O194 Zn185 1.977 . S
O194 C187 1.267 . S
C195 O196 1.160 . S
C195 O202 1.185 . S
O196 C195 1.160 . S
O197 Zn198 1.899 . S
O197 C205 1.284 . S
Zn198 O197 1.899 . S
Zn198 O199 2.032 . S
Zn198 O202 2.086 . S
Zn198 O207 1.977 . S
O199 Zn198 2.032 . S
O199 C203 1.278 . S
C200 O201 1.203 . S
C200 O207 1.267 . S
O201 C200 1.203 . S
O202 C195 1.185 . S
O202 Zn198 2.086 . S
C203 O199 1.278 . S
C203 O204 1.211 . S
O204 C203 1.211 . S
C205 O197 1.284 . S
C205 O206 1.273 . S
O206 C205 1.273 . S
O207 Zn198 1.977 . S
O207 C200 1.267 . S
C208 O209 1.160 . S
C208 O215 1.185 . S
O209 C208 1.160 . S
O210 Zn211 1.899 . S
O210 C218 1.284 . S
Zn211 O210 1.899 . S
Zn211 O212 2.032 . S
Zn211 O215 2.086 . S
Zn211 O220 1.977 . S
O212 Zn211 2.032 . S
O212 C216 1.278 . S
C213 O214 1.203 . S
C213 O220 1.267 . S
O214 C213 1.203 . S
O215 C208 1.185 . S
O215 Zn211 2.086 . S
C216 O212 1.278 . S
C216 O217 1.211 . S
O217 C216 1.211 . S
C218 O210 1.284 . S
C218 O219 1.273 . S
O219 C218 1.273 . S
O220 Zn211 1.977 . S
O220 C213 1.267 . S
C221 O222 1.160 . S
C221 O228 1.185 . S
O222 C221 1.160 . S
O223 Zn224 1.899 . S
O223 C231 1.284 . S
Zn224 O223 1.899 . S
Zn224 O225 2.032 . S
Zn224 O228 2.086 . S
Zn224 O233 1.977 . S
O225 Zn224 2.032 . S
O225 C229 1.278 . S
C226 O227 1.203 . S
C226 O233 1.267 . S
O227 C226 1.203 . S
O228 C221 1.185 . S
O228 Zn224 2.086 . S
C229 O225 1.278 . S
C229 O230 1.211 . S
O230 C229 1.211 . S
C231 O223 1.284 . S
C231 O232 1.273 . S
O232 C231 1.273 . S
O233 Zn224 1.977 . S
O233 C226 1.267 . S
C234 O235 1.160 . S
C234 O241 1.185 . S
O235 C234 1.160 . S
O236 Zn237 1.899 . S
O236 C244 1.284 . S
Zn237 O236 1.899 . S
Zn237 O238 2.032 . S
Zn237 O241 2.086 . S
Zn237 O246 1.977 . S
O238 Zn237 2.032 . S
O238 C242 1.278 . S
C239 O240 1.203 . S
C239 O246 1.267 . S
O240 C239 1.203 . S
O241 C234 1.185 . S
O241 Zn237 2.086 . S
C242 O238 1.278 . S
C242 O243 1.211 . S
O243 C242 1.211 . S
C244 O236 1.284 . S
C244 O245 1.273 . S
O245 C244 1.273 . S
O246 Zn237 1.977 . S
O246 C239 1.267 . S
C247 O248 1.160 . S
C247 O254 1.185 . S
O248 C247 1.160 . S
O249 Zn250 1.899 . S
O249 C257 1.284 . S
Zn250 O249 1.899 . S
Zn250 O251 2.032 . S
Zn250 O254 2.086 . S
Zn250 O259 1.977 . S
O251 Zn250 2.032 . S
O251 C255 1.278 . S
C252 O253 1.203 . S
C252 O259 1.267 . S
O253 C252 1.203 . S
O254 C247 1.185 . S
O254 Zn250 2.086 . S
C255 O251 1.278 . S
C255 O256 1.211 . S
O256 C255 1.211 . S
C257 O249 1.284 . S
C257 O258 1.273 . S
O258 C257 1.273 . S
O259 Zn250 1.977 . S
O259 C252 1.267 . S
C260 O261 1.160 . S
C260 O267 1.185 . S
O261 C260 1.160 . S
O262 Zn263 1.899 . S
O262 C270 1.284 . S
Zn263 O262 1.899 . S
Zn263 O264 2.032 . S
Zn263 O267 2.086 . S
Zn263 O272 1.977 . S
O264 Zn263 2.032 . S
O264 C268 1.278 . S
C265 O266 1.203 . S
C265 O272 1.267 . S
O266 C265 1.203 . S
O267 C260 1.185 . S
O267 Zn263 2.086 . S
C268 O264 1.278 . S
C268 O269 1.211 . S
O269 C268 1.211 . S
C270 O262 1.284 . S
C270 O271 1.273 . S
O271 C270 1.273 . S
O272 Zn263 1.977 . S
O272 C265 1.267 . S
C273 O274 1.160 . S
C273 O280 1.185 . S
O274 C273 1.160 . S
O275 Zn276 1.899 . S
O275 C283 1.284 . S
Zn276 O275 1.899 . S
Zn276 O277 2.032 . S
Zn276 O280 2.086 . S
Zn276 O285 1.977 . S
O277 Zn276 2.032 . S
O277 C281 1.278 . S
C278 O279 1.203 . S
C278 O285 1.267 . S
O279 C278 1.203 . S
O280 C273 1.185 . S
O280 Zn276 2.086 . S
C281 O277 1.278 . S
C281 O282 1.211 . S
O282 C281 1.211 . S
C283 O275 1.284 . S
C283 O284 1.273 . S
O284 C283 1.273 . S
O285 Zn276 1.977 . S
O285 C278 1.267 . S
C286 O287 1.160 . S
C286 O293 1.185 . S
O287 C286 1.160 . S
O288 Zn289 1.899 . S
O288 C296 1.284 . S
Zn289 O288 1.899 . S
Zn289 O290 2.032 . S
Zn289 O293 2.086 . S
Zn289 O298 1.977 . S
O290 Zn289 2.032 . S
O290 C294 1.278 . S
C291 O292 1.203 . S
C291 O298 1.267 . S
O292 C291 1.203 . S
O293 C286 1.185 . S
O293 Zn289 2.086 . S
C294 O290 1.278 . S
C294 O295 1.211 . S
O295 C294 1.211 . S
C296 O288 1.284 . S
C296 O297 1.273 . S
O297 C296 1.273 . S
O298 Zn289 1.977 . S
O298 C291 1.267 . S
C299 O300 1.160 . S
C299 O306 1.185 . S
O300 C299 1.160 . S
O301 Zn302 1.899 . S
O301 C309 1.284 . S
Zn302 O301 1.899 . S
Zn302 O303 2.032 . S
Zn302 O306 2.086 . S
Zn302 O311 1.977 . S
O303 Zn302 2.032 . S
O303 C307 1.278 . S
C304 O305 1.203 . S
C304 O311 1.267 . S
O305 C304 1.203 . S
O306 C299 1.185 . S
O306 Zn302 2.086 . S
C307 O303 1.278 . S
C307 O308 1.211 . S
O308 C307 1.211 . S
C309 O301 1.284 . S
C309 O310 1.273 . S
O310 C309 1.273 . S
O311 Zn302 1.977 . S
O311 C304 1.267 . S
C312 O313 1.160 . S
C312 O319 1.185 . S
O313 C312 1.160 . S
O314 Zn315 1.899 . S
O314 C322 1.284 . S
Zn315 O314 1.899 . S
Zn315 O316 2.032 . S
Zn315 O319 2.086 . S
Zn315 O324 1.977 . S
O316 Zn315 2.032 . S
O316 C320 1.278 . S
C317 O318 1.203 . S
C317 O324 1.267 . S
O318 C317 1.203 . S
O319 C312 1.185 . S
O319 Zn315 2.086 . S
C320 O316 1.278 . S
C320 O321 1.211 . S
O321 C320 1.211 . S
C322 O314 1.284 . S
C322 O323 1.273 . S
O323 C322 1.273 . S
O324 Zn315 1.977 . S
O324 C317 1.267 . S
C325 O326 1.160 . S
C325 O332 1.185 . S
O326 C325 1.160 . S
O327 Zn328 1.899 . S
O327 C335 1.284 . S
Zn328 O327 1.899 . S
Zn328 O329 2.032 . S
Zn328 O332 2.086 . S
Zn328 O337 1.977 . S
O329 Zn328 2.032 . S
O329 C333 1.278 . S
C330 O331 1.203 . S
C330 O337 1.267 . S
O331 C330 1.203 . S
O332 C325 1.185 . S
O332 Zn328 2.086 . S
C333 O329 1.278 . S
C333 O334 1.211 . S
O334 C333 1.211 . S
C335 O327 1.284 . S
C335 O336 1.273 . S
O336 C335 1.273 . S
O337 Zn328 1.977 . S
O337 C330 1.267 . S
C338 O339 1.160 . S
C338 O345 1.185 . S
O339 C338 1.160 . S
O340 Zn341 1.899 . S
O340 C348 1.284 . S
Zn341 O340 1.899 . S
Zn341 O342 2.032 . S
Zn341 O345 2.086 . S
Zn341 O350 1.977 . S
O342 Zn341 2.032 . S
O342 C346 1.278 . S
C343 O344 1.203 . S
C343 O350 1.267 . S
O344 C343 1.203 . S
O345 C338 1.185 . S
O345 Zn341 2.086 . S
C346 O342 1.278 . S
C346 O347 1.211 . S
O347 C346 1.211 . S
C348 O340 1.284 . S
C348 O349 1.273 . S
O349 C348 1.273 . S
O350 Zn341 1.977 . S
O350 C343 1.267 . S
C351 O352 1.160 . S
C351 O358 1.185 . S
O352 C351 1.160 . S
O353 Zn354 1.899 . S
O353 C361 1.284 . S
Zn354 O353 1.899 . S
Zn354 O355 2.032 . S
Zn354 O358 2.086 . S
Zn354 O363 1.977 . S
O355 Zn354 2.032 . S
O355 C359 1.278 . S
C356 O357 1.203 . S
C356 O363 1.267 . S
O357 C356 1.203 . S
O358 C351 1.185 . S
O358 Zn354 2.086 . S
C359 O355 1.278 . S
C359 O360 1.211 . S
O360 C359 1.211 . S
C361 O353 1.284 . S
C361 O362 1.273 . S
O362 C361 1.273 . S
O363 Zn354 1.977 . S
O363 C356 1.267 . S
C364 O365 1.160 . S
C364 O371 1.185 . S
O365 C364 1.160 . S
O366 Zn367 1.899 . S
O366 C374 1.284 . S
Zn367 O366 1.899 . S
Zn367 O368 2.032 . S
Zn367 O371 2.086 . S
Zn367 O376 1.977 . S
O368 Zn367 2.032 . S
O368 C372 1.278 . S
C369 O370 1.203 . S
C369 O376 1.267 . S
O370 C369 1.203 . S
O371 C364 1.185 . S
O371 Zn367 2.086 . S
C372 O368 1.278 . S
C372 O373 1.211 . S
O373 C372 1.211 . S
C374 O366 1.284 . S
C374 O375 1.273 . S
O375 C374 1.273 . S
O376 Zn367 1.977 . S
O376 C369 1.267 . S
C377 O378 1.160 . S
C377 O384 1.185 . S
O378 C377 1.160 . S
O379 Zn380 1.899 . S
O379 C387 1.284 . S
Zn380 O379 1.899 . S
Zn380 O381 2.032 . S
Zn380 O384 2.086 . S
Zn380 O389 1.977 . S
O381 Zn380 2.032 . S
O381 C385 1.278 . S
C382 O383 1.203 . S
C382 O389 1.267 . S
O383 C382 1.203 . S
O384 C377 1.185 . S
O384 Zn380 2.086 . S
C385 O381 1.278 . S
C385 O386 1.211 . S
O386 C385 1.211 . S
C387 O379 1.284 . S
C387 O388 1.273 . S
O388 C387 1.273 . S
O389 Zn380 1.977 . S
O389 C382 1.267 . S
C390 O391 1.160 . S
C390 O397 1.185 . S
O391 C390 1.160 . S
O392 Zn393 1.899 . S
O392 C400 1.284 . S
Zn393 O392 1.899 . S
Zn393 O394 2.032 . S
Zn393 O397 2.086 . S
Zn393 O402 1.977 . S
O394 Zn393 2.032 . S
O394 C398 1.278 . S
C395 O396 1.203 . S
C395 O402 1.267 . S
O396 C395 1.203 . S
O397 C390 1.185 . S
O397 Zn393 2.086 . S
C398 O394 1.278 . S
C398 O399 1.211 . S
O399 C398 1.211 . S
C400 O392 1.284 . S
C400 O401 1.273 . S
O401 C400 1.273 . S
O402 Zn393 1.977 . S
O402 C395 1.267 . S
C403 O404 1.160 . S
C403 O410 1.185 . S
O404 C403 1.160 . S
O405 Zn406 1.899 . S
O405 C413 1.284 . S
Zn406 O405 1.899 . S
Zn406 O407 2.032 . S
Zn406 O410 2.086 . S
Zn406 O415 1.977 . S
O407 Zn406 2.032 . S
O407 C411 1.278 . S
C408 O409 1.203 . S
C408 O415 1.267 . S
O409 C408 1.203 . S
O410 C403 1.185 . S
O410 Zn406 2.086 . S
C411 O407 1.278 . S
C411 O412 1.211 . S
O412 C411 1.211 . S
C413 O405 1.284 . S
C413 O414 1.273 . S
O414 C413 1.273 . S
O415 Zn406 1.977 . S
O415 C408 1.267 . S
C416 C417 1.349 . S
C416 C418 1.327 . S
C416 H441 0.950 . S
C417 C416 1.349 . S
C417 C433 1.349 . S
C418 C416 1.327 . S
C418 C437 1.429 . S
C418 H442 0.950 . S
C419 C436 1.574 . S
C419 C438 1.368 . S
C419 H443 0.949 . S
H420 C424 0.949 . S
C421 C422 1.349 . S
C421 C423 1.327 . S
C421 H444 0.950 . S
C422 C421 1.349 . S
C422 C434 1.349 . S
C423 C421 1.327 . S
C423 C439 1.429 . S
C423 H445 0.950 . S
C424 H420 0.949 . S
C424 C432 1.574 . S
C424 C440 1.368 . S
H425 C433 0.950 . S
H426 C431 0.950 . S
H427 C432 0.949 . S
H428 C434 0.950 . S
H429 C435 0.950 . S
H430 C436 0.949 . S
C431 H426 0.950 . S
C431 C433 1.327 . S
C431 C437 1.429 . S
C432 C424 1.574 . S
C432 H427 0.949 . S
C432 C438 1.368 . S
C433 C417 1.349 . S
C433 H425 0.950 . S
C433 C431 1.327 . S
C434 C422 1.349 . S
C434 H428 0.950 . S
C434 C435 1.327 . S
C435 H429 0.950 . S
C435 C434 1.327 . S
C435 C439 1.429 . S
C436 C419 1.574 . S
C436 H430 0.949 . S
C436 C440 1.368 . S
C437 C418 1.429 . S
C437 C431 1.429 . S
C437 C438 1.523 . S
C438 C419 1.368 . S
C438 C432 1.368 . S
C438 C437 1.523 . S
C439 C423 1.429 . S
C439 C435 1.429 . S
C439 C440 1.523 . S
C440 C424 1.368 . S
C440 C436 1.368 . S
C440 C439 1.523 . S
H441 C416 0.950 . S
H442 C418 0.950 . S
H443 C419 0.949 . S
H444 C421 0.950 . S
H445 C423 0.950 . S
C446 C447 1.349 . S
C446 C448 1.327 . S
C446 H471 0.950 . S
C447 C446 1.349 . S
C447 C463 1.349 . S
C448 C446 1.327 . S
C448 C467 1.429 . S
C448 H472 0.950 . S
C449 C466 1.574 . S
C449 C468 1.368 . S
C449 H473 0.949 . S
H450 C454 0.949 . S
C451 C452 1.349 . S
C451 C453 1.327 . S
C451 H474 0.950 . S
C452 C451 1.349 . S
C452 C464 1.349 . S
C453 C451 1.327 . S
C453 C469 1.429 . S
C453 H475 0.950 . S
C454 H450 0.949 . S
C454 C462 1.574 . S
C454 C470 1.368 . S
H455 C463 0.950 . S
H456 C461 0.950 . S
H457 C462 0.949 . S
H458 C464 0.950 . S
H459 C465 0.950 . S
H460 C466 0.949 . S
C461 H456 0.950 . S
C461 C463 1.327 . S
C461 C467 1.429 . S
C462 C454 1.574 . S
C462 H457 0.949 . S
C462 C468 1.368 . S
C463 C447 1.349 . S
C463 H455 0.950 . S
C463 C461 1.327 . S
C464 C452 1.349 . S
C464 H458 0.950 . S
C464 C465 1.327 . S
C465 H459 0.950 . S
C465 C464 1.327 . S
C465 C469 1.429 . S
C466 C449 1.574 . S
C466 H460 0.949 . S
C466 C470 1.368 . S
C467 C448 1.429 . S
C467 C461 1.429 . S
C467 C468 1.523 . S
C468 C449 1.368 . S
C468 C462 1.368 . S
C468 C467 1.523 . S
C469 C453 1.429 . S
C469 C465 1.429 . S
C469 C470 1.523 . S
C470 C454 1.368 . S
C470 C466 1.368 . S
C470 C469 1.523 . S
H471 C446 0.950 . S
H472 C448 0.950 . S
H473 C449 0.949 . S
H474 C451 0.950 . S
H475 C453 0.950 . S
C476 C477 1.349 . S
C476 C478 1.327 . S
C476 H501 0.950 . S
C477 C476 1.349 . S
C477 C493 1.349 . S
C478 C476 1.327 . S
C478 C497 1.429 . S
C478 H502 0.950 . S
C479 C496 1.574 . S
C479 C498 1.368 . S
C479 H503 0.949 . S
H480 C484 0.949 . S
C481 C482 1.349 . S
C481 C483 1.327 . S
C481 H504 0.950 . S
C482 C481 1.349 . S
C482 C494 1.349 . S
C483 C481 1.327 . S
C483 C499 1.429 . S
C483 H505 0.950 . S
C484 H480 0.949 . S
C484 C492 1.574 . S
C484 C500 1.368 . S
H485 C493 0.950 . S
H486 C491 0.950 . S
H487 C492 0.949 . S
H488 C494 0.950 . S
H489 C495 0.950 . S
H490 C496 0.949 . S
C491 H486 0.950 . S
C491 C493 1.327 . S
C491 C497 1.429 . S
C492 C484 1.574 . S
C492 H487 0.949 . S
C492 C498 1.368 . S
C493 C477 1.349 . S
C493 H485 0.950 . S
C493 C491 1.327 . S
C494 C482 1.349 . S
C494 H488 0.950 . S
C494 C495 1.327 . S
C495 H489 0.950 . S
C495 C494 1.327 . S
C495 C499 1.429 . S
C496 C479 1.574 . S
C496 H490 0.949 . S
C496 C500 1.368 . S
C497 C478 1.429 . S
C497 C491 1.429 . S
C497 C498 1.523 . S
C498 C479 1.368 . S
C498 C492 1.368 . S
C498 C497 1.523 . S
C499 C483 1.429 . S
C499 C495 1.429 . S
C499 C500 1.523 . S
C500 C484 1.368 . S
C500 C496 1.368 . S
C500 C499 1.523 . S
H501 C476 0.950 . S
H502 C478 0.950 . S
H503 C479 0.949 . S
H504 C481 0.950 . S
H505 C483 0.950 . S
C506 C507 1.349 . S
C506 C508 1.327 . S
C506 H531 0.950 . S
C507 C506 1.349 . S
C507 C523 1.349 . S
C508 C506 1.327 . S
C508 C527 1.429 . S
C508 H532 0.950 . S
C509 C526 1.574 . S
C509 C528 1.368 . S
C509 H533 0.949 . S
H510 C514 0.949 . S
C511 C512 1.349 . S
C511 C513 1.327 . S
C511 H534 0.950 . S
C512 C511 1.349 . S
C512 C524 1.349 . S
C513 C511 1.327 . S
C513 C529 1.429 . S
C513 H535 0.950 . S
C514 H510 0.949 . S
C514 C522 1.574 . S
C514 C530 1.368 . S
H515 C523 0.950 . S
H516 C521 0.950 . S
H517 C522 0.949 . S
H518 C524 0.950 . S
H519 C525 0.950 . S
H520 C526 0.949 . S
C521 H516 0.950 . S
C521 C523 1.327 . S
C521 C527 1.429 . S
C522 C514 1.574 . S
C522 H517 0.949 . S
C522 C528 1.368 . S
C523 C507 1.349 . S
C523 H515 0.950 . S
C523 C521 1.327 . S
C524 C512 1.349 . S
C524 H518 0.950 . S
C524 C525 1.327 . S
C525 H519 0.950 . S
C525 C524 1.327 . S
C525 C529 1.429 . S
C526 C509 1.574 . S
C526 H520 0.949 . S
C526 C530 1.368 . S
C527 C508 1.429 . S
C527 C521 1.429 . S
C527 C528 1.523 . S
C528 C509 1.368 . S
C528 C522 1.368 . S
C528 C527 1.523 . S
C529 C513 1.429 . S
C529 C525 1.429 . S
C529 C530 1.523 . S
C530 C514 1.368 . S
C530 C526 1.368 . S
C530 C529 1.523 . S
H531 C506 0.950 . S
H532 C508 0.950 . S
H533 C509 0.949 . S
H534 C511 0.950 . S
H535 C513 0.950 . S
C536 C537 1.349 . S
C536 C538 1.327 . S
C536 H561 0.950 . S
C537 C536 1.349 . S
C537 C553 1.349 . S
C538 C536 1.327 . S
C538 C557 1.429 . S
C538 H562 0.950 . S
C539 C556 1.574 . S
C539 C558 1.368 . S
C539 H563 0.949 . S
H540 C544 0.949 . S
C541 C542 1.349 . S
C541 C543 1.327 . S
C541 H564 0.950 . S
C542 C541 1.349 . S
C542 C554 1.349 . S
C543 C541 1.327 . S
C543 C559 1.429 . S
C543 H565 0.950 . S
C544 H540 0.949 . S
C544 C552 1.574 . S
C544 C560 1.368 . S
H545 C553 0.950 . S
H546 C551 0.950 . S
H547 C552 0.949 . S
H548 C554 0.950 . S
H549 C555 0.950 . S
H550 C556 0.949 . S
C551 H546 0.950 . S
C551 C553 1.327 . S
C551 C557 1.429 . S
C552 C544 1.574 . S
C552 H547 0.949 . S
C552 C558 1.368 . S
C553 C537 1.349 . S
C553 H545 0.950 . S
C553 C551 1.327 . S
C554 C542 1.349 . S
C554 H548 0.950 . S
C554 C555 1.327 . S
C555 H549 0.950 . S
C555 C554 1.327 . S
C555 C559 1.429 . S
C556 C539 1.574 . S
C556 H550 0.949 . S
C556 C560 1.368 . S
C557 C538 1.429 . S
C557 C551 1.429 . S
C557 C558 1.523 . S
C558 C539 1.368 . S
C558 C552 1.368 . S
C558 C557 1.523 . S
C559 C543 1.429 . S
C559 C555 1.429 . S
C559 C560 1.523 . S
C560 C544 1.368 . S
C560 C556 1.368 . S
C560 C559 1.523 . S
H561 C536 0.950 . S
H562 C538 0.950 . S
H563 C539 0.949 . S
H564 C541 0.950 . S
H565 C543 0.950 . S
C566 C567 1.349 . S
C566 C568 1.327 . S
C566 H591 0.950 . S
C567 C566 1.349 . S
C567 C583 1.349 . S
C568 C566 1.327 . S
C568 C587 1.429 . S
C568 H592 0.950 . S
C569 C586 1.574 . S
C569 C588 1.368 . S
C569 H593 0.949 . S
H570 C574 0.949 . S
C571 C572 1.349 . S
C571 C573 1.327 . S
C571 H594 0.950 . S
C572 C571 1.349 . S
C572 C584 1.349 . S
C573 C571 1.327 . S
C573 C589 1.429 . S
C573 H595 0.950 . S
C574 H570 0.949 . S
C574 C582 1.574 . S
C574 C590 1.368 . S
H575 C583 0.950 . S
H576 C581 0.950 . S
H577 C582 0.949 . S
H578 C584 0.950 . S
H579 C585 0.950 . S
H580 C586 0.949 . S
C581 H576 0.950 . S
C581 C583 1.327 . S
C581 C587 1.429 . S
C582 C574 1.574 . S
C582 H577 0.949 . S
C582 C588 1.368 . S
C583 C567 1.349 . S
C583 H575 0.950 . S
C583 C581 1.327 . S
C584 C572 1.349 . S
C584 H578 0.950 . S
C584 C585 1.327 . S
C585 H579 0.950 . S
C585 C584 1.327 . S
C585 C589 1.429 . S
C586 C569 1.574 . S
C586 H580 0.949 . S
C586 C590 1.368 . S
C587 C568 1.429 . S
C587 C581 1.429 . S
C587 C588 1.523 . S
C588 C569 1.368 . S
C588 C582 1.368 . S
C588 C587 1.523 . S
C589 C573 1.429 . S
C589 C585 1.429 . S
C589 C590 1.523 . S
C590 C574 1.368 . S
C590 C586 1.368 . S
C590 C589 1.523 . S
H591 C566 0.950 . S
H592 C568 0.950 . S
H593 C569 0.949 . S
H594 C571 0.950 . S
H595 C573 0.950 . S
C596 C597 1.349 . S
C596 C598 1.327 . S
C596 H621 0.950 . S
C597 C596 1.349 . S
C597 C613 1.349 . S
C598 C596 1.327 . S
C598 C617 1.429 . S
C598 H622 0.950 . S
C599 C616 1.574 . S
C599 C618 1.368 . S
C599 H623 0.949 . S
H600 C604 0.949 . S
C601 C602 1.349 . S
C601 C603 1.327 . S
C601 H624 0.950 . S
C602 C601 1.349 . S
C602 C614 1.349 . S
C603 C601 1.327 . S
C603 C619 1.429 . S
C603 H625 0.950 . S
C604 H600 0.949 . S
C604 C612 1.574 . S
C604 C620 1.368 . S
H605 C613 0.950 . S
H606 C611 0.950 . S
H607 C612 0.949 . S
H608 C614 0.950 . S
H609 C615 0.950 . S
H610 C616 0.949 . S
C611 H606 0.950 . S
C611 C613 1.327 . S
C611 C617 1.429 . S
C612 C604 1.574 . S
C612 H607 0.949 . S
C612 C618 1.368 . S
C613 C597 1.349 . S
C613 H605 0.950 . S
C613 C611 1.327 . S
C614 C602 1.349 . S
C614 H608 0.950 . S
C614 C615 1.327 . S
C615 H609 0.950 . S
C615 C614 1.327 . S
C615 C619 1.429 . S
C616 C599 1.574 . S
C616 H610 0.949 . S
C616 C620 1.368 . S
C617 C598 1.429 . S
C617 C611 1.429 . S
C617 C618 1.523 . S
C618 C599 1.368 . S
C618 C612 1.368 . S
C618 C617 1.523 . S
C619 C603 1.429 . S
C619 C615 1.429 . S
C619 C620 1.523 . S
C620 C604 1.368 . S
C620 C616 1.368 . S
C620 C619 1.523 . S
H621 C596 0.950 . S
H622 C598 0.950 . S
H623 C599 0.949 . S
H624 C601 0.950 . S
H625 C603 0.950 . S
C626 C627 1.349 . S
C626 C628 1.327 . S
C626 H651 0.950 . S
C627 C626 1.349 . S
C627 C643 1.349 . S
C628 C626 1.327 . S
C628 C647 1.429 . S
C628 H652 0.950 . S
C629 C646 1.574 . S
C629 C648 1.368 . S
C629 H653 0.949 . S
H630 C634 0.949 . S
C631 C632 1.349 . S
C631 C633 1.327 . S
C631 H654 0.950 . S
C632 C631 1.349 . S
C632 C644 1.349 . S
C633 C631 1.327 . S
C633 C649 1.429 . S
C633 H655 0.950 . S
C634 H630 0.949 . S
C634 C642 1.574 . S
C634 C650 1.368 . S
H635 C643 0.950 . S
H636 C641 0.950 . S
H637 C642 0.949 . S
H638 C644 0.950 . S
H639 C645 0.950 . S
H640 C646 0.949 . S
C641 H636 0.950 . S
C641 C643 1.327 . S
C641 C647 1.429 . S
C642 C634 1.574 . S
C642 H637 0.949 . S
C642 C648 1.368 . S
C643 C627 1.349 . S
C643 H635 0.950 . S
C643 C641 1.327 . S
C644 C632 1.349 . S
C644 H638 0.950 . S
C644 C645 1.327 . S
C645 H639 0.950 . S
C645 C644 1.327 . S
C645 C649 1.429 . S
C646 C629 1.574 . S
C646 H640 0.949 . S
C646 C650 1.368 . S
C647 C628 1.429 . S
C647 C641 1.429 . S
C647 C648 1.523 . S
C648 C629 1.368 . S
C648 C642 1.368 . S
C648 C647 1.523 . S
C649 C633 1.429 . S
C649 C645 1.429 . S
C649 C650 1.523 . S
C650 C634 1.368 . S
C650 C646 1.368 . S
C650 C649 1.523 . S
H651 C626 0.950 . S
H652 C628 0.950 . S
H653 C629 0.949 . S
H654 C631 0.950 . S
H655 C633 0.950 . S
C656 C657 1.349 . S
C656 C658 1.327 . S
C656 H681 0.950 . S
C657 C656 1.349 . S
C657 C673 1.349 . S
C658 C656 1.327 . S
C658 C677 1.429 . S
C658 H682 0.950 . S
C659 C676 1.574 . S
C659 C678 1.368 . S
C659 H683 0.949 . S
H660 C664 0.949 . S
C661 C662 1.349 . S
C661 C663 1.327 . S
C661 H684 0.950 . S
C662 C661 1.349 . S
C662 C674 1.349 . S
C663 C661 1.327 . S
C663 C679 1.429 . S
C663 H685 0.950 . S
C664 H660 0.949 . S
C664 C672 1.574 . S
C664 C680 1.368 . S
H665 C673 0.950 . S
H666 C671 0.950 . S
H667 C672 0.949 . S
H668 C674 0.950 . S
H669 C675 0.950 . S
H670 C676 0.949 . S
C671 H666 0.950 . S
C671 C673 1.327 . S
C671 C677 1.429 . S
C672 C664 1.574 . S
C672 H667 0.949 . S
C672 C678 1.368 . S
C673 C657 1.349 . S
C673 H665 0.950 . S
C673 C671 1.327 . S
C674 C662 1.349 . S
C674 H668 0.950 . S
C674 C675 1.327 . S
C675 H669 0.950 . S
C675 C674 1.327 . S
C675 C679 1.429 . S
C676 C659 1.574 . S
C676 H670 0.949 . S
C676 C680 1.368 . S
C677 C658 1.429 . S
C677 C671 1.429 . S
C677 C678 1.523 . S
C678 C659 1.368 . S
C678 C672 1.368 . S
C678 C677 1.523 . S
C679 C663 1.429 . S
C679 C675 1.429 . S
C679 C680 1.523 . S
C680 C664 1.368 . S
C680 C676 1.368 . S
C680 C679 1.523 . S
H681 C656 0.950 . S
H682 C658 0.950 . S
H683 C659 0.949 . S
H684 C661 0.950 . S
H685 C663 0.950 . S
C686 C687 1.349 . S
C686 C688 1.327 . S
C686 H711 0.950 . S
C687 C686 1.349 . S
C687 C703 1.349 . S
C688 C686 1.327 . S
C688 C707 1.429 . S
C688 H712 0.950 . S
C689 C706 1.574 . S
C689 C708 1.368 . S
C689 H713 0.949 . S
H690 C694 0.949 . S
C691 C692 1.349 . S
C691 C693 1.327 . S
C691 H714 0.950 . S
C692 C691 1.349 . S
C692 C704 1.349 . S
C693 C691 1.327 . S
C693 C709 1.429 . S
C693 H715 0.950 . S
C694 H690 0.949 . S
C694 C702 1.574 . S
C694 C710 1.368 . S
H695 C703 0.950 . S
H696 C701 0.950 . S
H697 C702 0.949 . S
H698 C704 0.950 . S
H699 C705 0.950 . S
H700 C706 0.949 . S
C701 H696 0.950 . S
C701 C703 1.327 . S
C701 C707 1.429 . S
C702 C694 1.574 . S
C702 H697 0.949 . S
C702 C708 1.368 . S
C703 C687 1.349 . S
C703 H695 0.950 . S
C703 C701 1.327 . S
C704 C692 1.349 . S
C704 H698 0.950 . S
C704 C705 1.327 . S
C705 H699 0.950 . S
C705 C704 1.327 . S
C705 C709 1.429 . S
C706 C689 1.574 . S
C706 H700 0.949 . S
C706 C710 1.368 . S
C707 C688 1.429 . S
C707 C701 1.429 . S
C707 C708 1.523 . S
C708 C689 1.368 . S
C708 C702 1.368 . S
C708 C707 1.523 . S
C709 C693 1.429 . S
C709 C705 1.429 . S
C709 C710 1.523 . S
C710 C694 1.368 . S
C710 C706 1.368 . S
C710 C709 1.523 . S
H711 C686 0.950 . S
H712 C688 0.950 . S
H713 C689 0.949 . S
H714 C691 0.950 . S
H715 C693 0.950 . S
C716 C717 1.349 . S
C716 C718 1.327 . S
C716 H741 0.950 . S
C717 C716 1.349 . S
C717 C733 1.349 . S
C718 C716 1.327 . S
C718 C737 1.429 . S
C718 H742 0.950 . S
C719 C736 1.574 . S
C719 C738 1.368 . S
C719 H743 0.949 . S
H720 C724 0.949 . S
C721 C722 1.349 . S
C721 C723 1.327 . S
C721 H744 0.950 . S
C722 C721 1.349 . S
C722 C734 1.349 . S
C723 C721 1.327 . S
C723 C739 1.429 . S
C723 H745 0.950 . S
C724 H720 0.949 . S
C724 C732 1.574 . S
C724 C740 1.368 . S
H725 C733 0.950 . S
H726 C731 0.950 . S
H727 C732 0.949 . S
H728 C734 0.950 . S
H729 C735 0.950 . S
H730 C736 0.949 . S
C731 H726 0.950 . S
C731 C733 1.327 . S
C731 C737 1.429 . S
C732 C724 1.574 . S
C732 H727 0.949 . S
C732 C738 1.368 . S
C733 C717 1.349 . S
C733 H725 0.950 . S
C733 C731 1.327 . S
C734 C722 1.349 . S
C734 H728 0.950 . S
C734 C735 1.327 . S
C735 H729 0.950 . S
C735 C734 1.327 . S
C735 C739 1.429 . S
C736 C719 1.574 . S
C736 H730 0.949 . S
C736 C740 1.368 . S
C737 C718 1.429 . S
C737 C731 1.429 . S
C737 C738 1.523 . S
C738 C719 1.368 . S
C738 C732 1.368 . S
C738 C737 1.523 . S
C739 C723 1.429 . S
C739 C735 1.429 . S
C739 C740 1.523 . S
C740 C724 1.368 . S
C740 C736 1.368 . S
C740 C739 1.523 . S
H741 C716 0.950 . S
H742 C718 0.950 . S
H743 C719 0.949 . S
H744 C721 0.950 . S
H745 C723 0.950 . S
C746 C747 1.349 . S
C746 C748 1.327 . S
C746 H771 0.950 . S
C747 C746 1.349 . S
C747 C763 1.349 . S
C748 C746 1.327 . S
C748 C767 1.429 . S
C748 H772 0.950 . S
C749 C766 1.574 . S
C749 C768 1.368 . S
C749 H773 0.949 . S
H750 C754 0.949 . S
C751 C752 1.349 . S
C751 C753 1.327 . S
C751 H774 0.950 . S
C752 C751 1.349 . S
C752 C764 1.349 . S
C753 C751 1.327 . S
C753 C769 1.429 . S
C753 H775 0.950 . S
C754 H750 0.949 . S
C754 C762 1.574 . S
C754 C770 1.368 . S
H755 C763 0.950 . S
H756 C761 0.950 . S
H757 C762 0.949 . S
H758 C764 0.950 . S
H759 C765 0.950 . S
H760 C766 0.949 . S
C761 H756 0.950 . S
C761 C763 1.327 . S
C761 C767 1.429 . S
C762 C754 1.574 . S
C762 H757 0.949 . S
C762 C768 1.368 . S
C763 C747 1.349 . S
C763 H755 0.950 . S
C763 C761 1.327 . S
C764 C752 1.349 . S
C764 H758 0.950 . S
C764 C765 1.327 . S
C765 H759 0.950 . S
C765 C764 1.327 . S
C765 C769 1.429 . S
C766 C749 1.574 . S
C766 H760 0.949 . S
C766 C770 1.368 . S
C767 C748 1.429 . S
C767 C761 1.429 . S
C767 C768 1.523 . S
C768 C749 1.368 . S
C768 C762 1.368 . S
C768 C767 1.523 . S
C769 C753 1.429 . S
C769 C765 1.429 . S
C769 C770 1.523 . S
C770 C754 1.368 . S
C770 C766 1.368 . S
C770 C769 1.523 . S
H771 C746 0.950 . S
H772 C748 0.950 . S
H773 C749 0.949 . S
H774 C751 0.950 . S
H775 C753 0.950 . S
C776 C777 1.349 . S
C776 C778 1.327 . S
C776 H801 0.950 . S
C777 C776 1.349 . S
C777 C793 1.349 . S
C778 C776 1.327 . S
C778 C797 1.429 . S
C778 H802 0.950 . S
C779 C796 1.574 . S
C779 C798 1.368 . S
C779 H803 0.949 . S
H780 C784 0.949 . S
C781 C782 1.349 . S
C781 C783 1.327 . S
C781 H804 0.950 . S
C782 C781 1.349 . S
C782 C794 1.349 . S
C783 C781 1.327 . S
C783 C799 1.429 . S
C783 H805 0.950 . S
C784 H780 0.949 . S
C784 C792 1.574 . S
C784 C800 1.368 . S
H785 C793 0.950 . S
H786 C791 0.950 . S
H787 C792 0.949 . S
H788 C794 0.950 . S
H789 C795 0.950 . S
H790 C796 0.949 . S
C791 H786 0.950 . S
C791 C793 1.327 . S
C791 C797 1.429 . S
C792 C784 1.574 . S
C792 H787 0.949 . S
C792 C798 1.368 . S
C793 C777 1.349 . S
C793 H785 0.950 . S
C793 C791 1.327 . S
C794 C782 1.349 . S
C794 H788 0.950 . S
C794 C795 1.327 . S
C795 H789 0.950 . S
C795 C794 1.327 . S
C795 C799 1.429 . S
C796 C779 1.574 . S
C796 H790 0.949 . S
C796 C800 1.368 . S
C797 C778 1.429 . S
C797 C791 1.429 . S
C797 C798 1.523 . S
C798 C779 1.368 . S
C798 C792 1.368 . S
C798 C797 1.523 . S
C799 C783 1.429 . S
C799 C795 1.429 . S
C799 C800 1.523 . S
C800 C784 1.368 . S
C800 C796 1.368 . S
C800 C799 1.523 . S
H801 C776 0.950 . S
H802 C778 0.950 . S
H803 C779 0.949 . S
H804 C781 0.950 . S
H805 C783 0.950 . S
C806 C807 1.349 . S
C806 C808 1.327 . S
C806 H831 0.950 . S
C807 C806 1.349 . S
C807 C823 1.349 . S
C808 C806 1.327 . S
C808 C827 1.429 . S
C808 H832 0.950 . S
C809 C826 1.574 . S
C809 C828 1.368 . S
C809 H833 0.949 . S
H810 C814 0.949 . S
C811 C812 1.349 . S
C811 C813 1.327 . S
C811 H834 0.950 . S
C812 C811 1.349 . S
C812 C824 1.349 . S
C813 C811 1.327 . S
C813 C829 1.429 . S
C813 H835 0.950 . S
C814 H810 0.949 . S
C814 C822 1.574 . S
C814 C830 1.368 . S
H815 C823 0.950 . S
H816 C821 0.950 . S
H817 C822 0.949 . S
H818 C824 0.950 . S
H819 C825 0.950 . S
H820 C826 0.949 . S
C821 H816 0.950 . S
C821 C823 1.327 . S
C821 C827 1.429 . S
C822 C814 1.574 . S
C822 H817 0.949 . S
C822 C828 1.368 . S
C823 C807 1.349 . S
C823 H815 0.950 . S
C823 C821 1.327 . S
C824 C812 1.349 . S
C824 H818 0.950 . S
C824 C825 1.327 . S
C825 H819 0.950 . S
C825 C824 1.327 . S
C825 C829 1.429 . S
C826 C809 1.574 . S
C826 H820 0.949 . S
C826 C830 1.368 . S
C827 C808 1.429 . S
C827 C821 1.429 . S
C827 C828 1.523 . S
C828 C809 1.368 . S
C828 C822 1.368 . S
C828 C827 1.523 . S
C829 C813 1.429 . S
C829 C825 1.429 . S
C829 C830 1.523 . S
C830 C814 1.368 . S
C830 C826 1.368 . S
C830 C829 1.523 . S
H831 C806 0.950 . S
H832 C808 0.950 . S
H833 C809 0.949 . S
H834 C811 0.950 . S
H835 C813 0.950 . S
C836 C837 1.349 . S
C836 C838 1.327 . S
C836 H861 0.950 . S
C837 C836 1.349 . S
C837 C853 1.349 . S
C838 C836 1.327 . S
C838 C857 1.429 . S
C838 H862 0.950 . S
C839 C856 1.574 . S
C839 C858 1.368 . S
C839 H863 0.949 . S
H840 C844 0.949 . S
C841 C842 1.349 . S
C841 C843 1.327 . S
C841 H864 0.950 . S
C842 C841 1.349 . S
C842 C854 1.349 . S
C843 C841 1.327 . S
C843 C859 1.429 . S
C843 H865 0.950 . S
C844 H840 0.949 . S
C844 C852 1.574 . S
C844 C860 1.368 . S
H845 C853 0.950 . S
H846 C851 0.950 . S
H847 C852 0.949 . S
H848 C854 0.950 . S
H849 C855 0.950 . S
H850 C856 0.949 . S
C851 H846 0.950 . S
C851 C853 1.327 . S
C851 C857 1.429 . S
C852 C844 1.574 . S
C852 H847 0.949 . S
C852 C858 1.368 . S
C853 C837 1.349 . S
C853 H845 0.950 . S
C853 C851 1.327 . S
C854 C842 1.349 . S
C854 H848 0.950 . S
C854 C855 1.327 . S
C855 H849 0.950 . S
C855 C854 1.327 . S
C855 C859 1.429 . S
C856 C839 1.574 . S
C856 H850 0.949 . S
C856 C860 1.368 . S
C857 C838 1.429 . S
C857 C851 1.429 . S
C857 C858 1.523 . S
C858 C839 1.368 . S
C858 C852 1.368 . S
C858 C857 1.523 . S
C859 C843 1.429 . S
C859 C855 1.429 . S
C859 C860 1.523 . S
C860 C844 1.368 . S
C860 C856 1.368 . S
C860 C859 1.523 . S
H861 C836 0.950 . S
H862 C838 0.950 . S
H863 C839 0.949 . S
H864 C841 0.950 . S
H865 C843 0.950 . S
C866 C867 1.349 . S
C866 C868 1.327 . S
C866 H891 0.950 . S
C867 C866 1.349 . S
C867 C883 1.349 . S
C868 C866 1.327 . S
C868 C887 1.429 . S
C868 H892 0.950 . S
C869 C886 1.574 . S
C869 C888 1.368 . S
C869 H893 0.949 . S
H870 C874 0.949 . S
C871 C872 1.349 . S
C871 C873 1.327 . S
C871 H894 0.950 . S
C872 C871 1.349 . S
C872 C884 1.349 . S
C873 C871 1.327 . S
C873 C889 1.429 . S
C873 H895 0.950 . S
C874 H870 0.949 . S
C874 C882 1.574 . S
C874 C890 1.368 . S
H875 C883 0.950 . S
H876 C881 0.950 . S
H877 C882 0.949 . S
H878 C884 0.950 . S
H879 C885 0.950 . S
H880 C886 0.949 . S
C881 H876 0.950 . S
C881 C883 1.327 . S
C881 C887 1.429 . S
C882 C874 1.574 . S
C882 H877 0.949 . S
C882 C888 1.368 . S
C883 C867 1.349 . S
C883 H875 0.950 . S
C883 C881 1.327 . S
C884 C872 1.349 . S
C884 H878 0.950 . S
C884 C885 1.327 . S
C885 H879 0.950 . S
C885 C884 1.327 . S
C885 C889 1.429 . S
C886 C869 1.574 . S
C886 H880 0.949 . S
C886 C890 1.368 . S
C887 C868 1.429 . S
C887 C881 1.429 . S
C887 C888 1.523 . S
C888 C869 1.368 . S
C888 C882 1.368 . S
C888 C887 1.523 . S
C889 C873 1.429 . S
C889 C885 1.429 . S
C889 C890 1.523 . S
C890 C874 1.368 . S
C890 C886 1.368 . S
C890 C889 1.523 . S
H891 C866 0.950 . S
H892 C868 0.950 . S
H893 C869 0.949 . S
H894 C871 0.950 . S
H895 C873 0.950 . S
C896 C897 1.349 . S
C896 C898 1.327 . S
C896 H921 0.950 . S
C897 C896 1.349 . S
C897 C913 1.349 . S
C898 C896 1.327 . S
C898 C917 1.429 . S
C898 H922 0.950 . S
C899 C916 1.574 1_455 S
C899 C918 1.368 . S
C899 H923 0.949 . S
H900 C904 0.949 . S
C901 C902 1.349 . S
C901 C903 1.327 . S
C901 H924 0.950 . S
C902 C901 1.349 . S
C902 C914 1.349 . S
C903 C901 1.327 . S
C903 C919 1.429 . S
C903 H925 0.950 . S
C904 H900 0.949 . S
C904 C912 1.574 1_655 S
C904 C920 1.368 . S
H905 C913 0.950 . S
H906 C911 0.950 . S
H907 C912 0.949 . S
H908 C914 0.950 . S
H909 C915 0.950 . S
H910 C916 0.949 . S
C911 H906 0.950 . S
C911 C913 1.327 . S
C911 C917 1.429 . S
C912 C904 1.574 1_455 S
C912 H907 0.949 . S
C912 C918 1.368 . S
C913 C897 1.349 . S
C913 H905 0.950 . S
C913 C911 1.327 . S
C914 C902 1.349 . S
C914 H908 0.950 . S
C914 C915 1.327 . S
C915 H909 0.950 . S
C915 C914 1.327 . S
C915 C919 1.429 . S
C916 C899 1.574 1_655 S
C916 H910 0.949 . S
C916 C920 1.368 . S
C917 C898 1.429 . S
C917 C911 1.429 . S
C917 C918 1.523 . S
C918 C899 1.368 . S
C918 C912 1.368 . S
C918 C917 1.523 . S
C919 C903 1.429 . S
C919 C915 1.429 . S
C919 C920 1.523 . S
C920 C904 1.368 . S
C920 C916 1.368 . S
C920 C919 1.523 . S
H921 C896 0.950 . S
H922 C898 0.950 . S
H923 C899 0.949 . S
H924 C901 0.950 . S
H925 C903 0.950 . S
C926 C927 1.349 . S
C926 C928 1.327 . S
C926 H951 0.950 . S
C927 C926 1.349 . S
C927 C943 1.349 . S
C928 C926 1.327 . S
C928 C947 1.429 . S
C928 H952 0.950 . S
C929 C946 1.574 . S
C929 C948 1.368 . S
C929 H953 0.949 . S
H930 C934 0.949 . S
C931 C932 1.349 . S
C931 C933 1.327 . S
C931 H954 0.950 . S
C932 C931 1.349 . S
C932 C944 1.349 . S
C933 C931 1.327 . S
C933 C949 1.429 . S
C933 H955 0.950 . S
C934 H930 0.949 . S
C934 C942 1.574 . S
C934 C950 1.368 . S
H935 C943 0.950 . S
H936 C941 0.950 . S
H937 C942 0.949 . S
H938 C944 0.950 . S
H939 C945 0.950 . S
H940 C946 0.949 . S
C941 H936 0.950 . S
C941 C943 1.327 . S
C941 C947 1.429 . S
C942 C934 1.574 . S
C942 H937 0.949 . S
C942 C948 1.368 . S
C943 C927 1.349 . S
C943 H935 0.950 . S
C943 C941 1.327 . S
C944 C932 1.349 . S
C944 H938 0.950 . S
C944 C945 1.327 . S
C945 H939 0.950 . S
C945 C944 1.327 . S
C945 C949 1.429 . S
C946 C929 1.574 . S
C946 H940 0.949 . S
C946 C950 1.368 . S
C947 C928 1.429 . S
C947 C941 1.429 . S
C947 C948 1.523 . S
C948 C929 1.368 . S
C948 C942 1.368 . S
C948 C947 1.523 . S
C949 C933 1.429 . S
C949 C945 1.429 . S
C949 C950 1.523 . S
C950 C934 1.368 . S
C950 C946 1.368 . S
C950 C949 1.523 . S
H951 C926 0.950 . S
H952 C928 0.950 . S
H953 C929 0.949 . S
H954 C931 0.950 . S
H955 C933 0.950 . S
C956 C957 1.349 . S
C956 C958 1.327 . S
C956 H981 0.950 . S
C957 C956 1.349 . S
C957 C973 1.349 . S
C958 C956 1.327 . S
C958 C977 1.429 . S
C958 H982 0.950 . S
C959 C976 1.574 . S
C959 C978 1.368 . S
C959 H983 0.949 . S
H960 C964 0.949 . S
C961 C962 1.349 . S
C961 C963 1.327 . S
C961 H984 0.950 . S
C962 C961 1.349 . S
C962 C974 1.349 . S
C963 C961 1.327 . S
C963 C979 1.429 . S
C963 H985 0.950 . S
C964 H960 0.949 . S
C964 C972 1.574 . S
C964 C980 1.368 . S
H965 C973 0.950 . S
H966 C971 0.950 . S
H967 C972 0.949 . S
H968 C974 0.950 . S
H969 C975 0.950 . S
H970 C976 0.949 . S
C971 H966 0.950 . S
C971 C973 1.327 . S
C971 C977 1.429 . S
C972 C964 1.574 . S
C972 H967 0.949 . S
C972 C978 1.368 . S
C973 C957 1.349 . S
C973 H965 0.950 . S
C973 C971 1.327 . S
C974 C962 1.349 . S
C974 H968 0.950 . S
C974 C975 1.327 . S
C975 H969 0.950 . S
C975 C974 1.327 . S
C975 C979 1.429 . S
C976 C959 1.574 . S
C976 H970 0.949 . S
C976 C980 1.368 . S
C977 C958 1.429 . S
C977 C971 1.429 . S
C977 C978 1.523 . S
C978 C959 1.368 . S
C978 C972 1.368 . S
C978 C977 1.523 . S
C979 C963 1.429 . S
C979 C975 1.429 . S
C979 C980 1.523 . S
C980 C964 1.368 . S
C980 C976 1.368 . S
C980 C979 1.523 . S
H981 C956 0.950 . S
H982 C958 0.950 . S
H983 C959 0.949 . S
H984 C961 0.950 . S
H985 C963 0.950 . S
C986 C987 1.349 . S
C986 C988 1.327 . S
C986 H1011 0.950 . S
C987 C986 1.349 . S
C987 C1003 1.349 . S
C988 C986 1.327 . S
C988 C1007 1.429 . S
C988 H1012 0.950 . S
C989 C1006 1.574 . S
C989 C1008 1.368 . S
C989 H1013 0.949 . S
H990 C994 0.949 . S
C991 C992 1.349 . S
C991 C993 1.327 . S
C991 H1014 0.950 . S
C992 C991 1.349 . S
C992 C1004 1.349 . S
C993 C991 1.327 . S
C993 C1009 1.429 . S
C993 H1015 0.950 . S
C994 H990 0.949 . S
C994 C1002 1.574 . S
C994 C1010 1.368 . S
H995 C1003 0.950 . S
H996 C1001 0.950 . S
H997 C1002 0.949 . S
H998 C1004 0.950 . S
H999 C1005 0.950 . S
H1000 C1006 0.949 . S
C1001 H996 0.950 . S
C1001 C1003 1.327 . S
C1001 C1007 1.429 . S
C1002 C994 1.574 . S
C1002 H997 0.949 . S
C1002 C1008 1.368 . S
C1003 C987 1.349 . S
C1003 H995 0.950 . S
C1003 C1001 1.327 . S
C1004 C992 1.349 . S
C1004 H998 0.950 . S
C1004 C1005 1.327 . S
C1005 H999 0.950 . S
C1005 C1004 1.327 . S
C1005 C1009 1.429 . S
C1006 C989 1.574 . S
C1006 H1000 0.949 . S
C1006 C1010 1.368 . S
C1007 C988 1.429 . S
C1007 C1001 1.429 . S
C1007 C1008 1.523 . S
C1008 C989 1.368 . S
C1008 C1002 1.368 . S
C1008 C1007 1.523 . S
C1009 C993 1.429 . S
C1009 C1005 1.429 . S
C1009 C1010 1.523 . S
C1010 C994 1.368 . S
C1010 C1006 1.368 . S
C1010 C1009 1.523 . S
H1011 C986 0.950 . S
H1012 C988 0.950 . S
H1013 C989 0.949 . S
H1014 C991 0.950 . S
H1015 C993 0.950 . S
C1016 C1017 1.349 . S
C1016 C1018 1.327 . S
C1016 H1041 0.950 . S
C1017 C1016 1.349 . S
C1017 C1033 1.349 . S
C1018 C1016 1.327 . S
C1018 C1037 1.429 . S
C1018 H1042 0.950 . S
C1019 C1036 1.574 1_655 S
C1019 C1038 1.368 . S
C1019 H1043 0.949 . S
H1020 C1024 0.949 . S
C1021 C1022 1.349 . S
C1021 C1023 1.327 . S
C1021 H1044 0.950 . S
C1022 C1021 1.349 . S
C1022 C1034 1.349 . S
C1023 C1021 1.327 . S
C1023 C1039 1.429 . S
C1023 H1045 0.950 . S
C1024 H1020 0.949 . S
C1024 C1032 1.574 1_455 S
C1024 C1040 1.368 . S
H1025 C1033 0.950 . S
H1026 C1031 0.950 . S
H1027 C1032 0.949 . S
H1028 C1034 0.950 . S
H1029 C1035 0.950 . S
H1030 C1036 0.949 . S
C1031 H1026 0.950 . S
C1031 C1033 1.327 . S
C1031 C1037 1.429 . S
C1032 C1024 1.574 1_655 S
C1032 H1027 0.949 . S
C1032 C1038 1.368 . S
C1033 C1017 1.349 . S
C1033 H1025 0.950 . S
C1033 C1031 1.327 . S
C1034 C1022 1.349 . S
C1034 H1028 0.950 . S
C1034 C1035 1.327 . S
C1035 H1029 0.950 . S
C1035 C1034 1.327 . S
C1035 C1039 1.429 . S
C1036 C1019 1.574 1_455 S
C1036 H1030 0.949 . S
C1036 C1040 1.368 . S
C1037 C1018 1.429 . S
C1037 C1031 1.429 . S
C1037 C1038 1.523 . S
C1038 C1019 1.368 . S
C1038 C1032 1.368 . S
C1038 C1037 1.523 . S
C1039 C1023 1.429 . S
C1039 C1035 1.429 . S
C1039 C1040 1.523 . S
C1040 C1024 1.368 . S
C1040 C1036 1.368 . S
C1040 C1039 1.523 . S
H1041 C1016 0.950 . S
H1042 C1018 0.950 . S
H1043 C1019 0.949 . S
H1044 C1021 0.950 . S
H1045 C1023 0.950 . S
C1046 C1047 1.349 . S
C1046 C1048 1.327 . S
C1046 H1071 0.950 . S
C1047 C1046 1.349 . S
C1047 C1063 1.349 . S
C1048 C1046 1.327 . S
C1048 C1067 1.429 . S
C1048 H1072 0.950 . S
C1049 C1066 1.574 . S
C1049 C1068 1.368 . S
C1049 H1073 0.949 . S
H1050 C1054 0.949 . S
C1051 C1052 1.349 . S
C1051 C1053 1.327 . S
C1051 H1074 0.950 . S
C1052 C1051 1.349 . S
C1052 C1064 1.349 . S
C1053 C1051 1.327 . S
C1053 C1069 1.429 . S
C1053 H1075 0.950 . S
C1054 H1050 0.949 . S
C1054 C1062 1.574 . S
C1054 C1070 1.368 . S
H1055 C1063 0.950 . S
H1056 C1061 0.950 . S
H1057 C1062 0.949 . S
H1058 C1064 0.950 . S
H1059 C1065 0.950 . S
H1060 C1066 0.949 . S
C1061 H1056 0.950 . S
C1061 C1063 1.327 . S
C1061 C1067 1.429 . S
C1062 C1054 1.574 . S
C1062 H1057 0.949 . S
C1062 C1068 1.368 . S
C1063 C1047 1.349 . S
C1063 H1055 0.950 . S
C1063 C1061 1.327 . S
C1064 C1052 1.349 . S
C1064 H1058 0.950 . S
C1064 C1065 1.327 . S
C1065 H1059 0.950 . S
C1065 C1064 1.327 . S
C1065 C1069 1.429 . S
C1066 C1049 1.574 . S
C1066 H1060 0.949 . S
C1066 C1070 1.368 . S
C1067 C1048 1.429 . S
C1067 C1061 1.429 . S
C1067 C1068 1.523 . S
C1068 C1049 1.368 . S
C1068 C1062 1.368 . S
C1068 C1067 1.523 . S
C1069 C1053 1.429 . S
C1069 C1065 1.429 . S
C1069 C1070 1.523 . S
C1070 C1054 1.368 . S
C1070 C1066 1.368 . S
C1070 C1069 1.523 . S
H1071 C1046 0.950 . S
H1072 C1048 0.950 . S
H1073 C1049 0.949 . S
H1074 C1051 0.950 . S
H1075 C1053 0.950 . S
C1076 C1077 1.349 . S
C1076 C1078 1.327 . S
C1076 H1101 0.950 . S
C1077 C1076 1.349 . S
C1077 C1093 1.349 . S
C1078 C1076 1.327 . S
C1078 C1097 1.429 . S
C1078 H1102 0.950 . S
C1079 C1096 1.574 . S
C1079 C1098 1.368 . S
C1079 H1103 0.949 . S
H1080 C1084 0.949 . S
C1081 C1082 1.349 . S
C1081 C1083 1.327 . S
C1081 H1104 0.950 . S
C1082 C1081 1.349 . S
C1082 C1094 1.349 . S
C1083 C1081 1.327 . S
C1083 C1099 1.429 . S
C1083 H1105 0.950 . S
C1084 H1080 0.949 . S
C1084 C1092 1.574 . S
C1084 C1100 1.368 . S
H1085 C1093 0.950 . S
H1086 C1091 0.950 . S
H1087 C1092 0.949 . S
H1088 C1094 0.950 . S
H1089 C1095 0.950 . S
H1090 C1096 0.949 . S
C1091 H1086 0.950 . S
C1091 C1093 1.327 . S
C1091 C1097 1.429 . S
C1092 C1084 1.574 . S
C1092 H1087 0.949 . S
C1092 C1098 1.368 . S
C1093 C1077 1.349 . S
C1093 H1085 0.950 . S
C1093 C1091 1.327 . S
C1094 C1082 1.349 . S
C1094 H1088 0.950 . S
C1094 C1095 1.327 . S
C1095 H1089 0.950 . S
C1095 C1094 1.327 . S
C1095 C1099 1.429 . S
C1096 C1079 1.574 . S
C1096 H1090 0.949 . S
C1096 C1100 1.368 . S
C1097 C1078 1.429 . S
C1097 C1091 1.429 . S
C1097 C1098 1.523 . S
C1098 C1079 1.368 . S
C1098 C1092 1.368 . S
C1098 C1097 1.523 . S
C1099 C1083 1.429 . S
C1099 C1095 1.429 . S
C1099 C1100 1.523 . S
C1100 C1084 1.368 . S
C1100 C1096 1.368 . S
C1100 C1099 1.523 . S
H1101 C1076 0.950 . S
H1102 C1078 0.950 . S
H1103 C1079 0.949 . S
H1104 C1081 0.950 . S
H1105 C1083 0.950 . S
C1106 C1107 1.349 . S
C1106 C1108 1.327 . S
C1106 H1131 0.950 . S
C1107 C1106 1.349 . S
C1107 C1123 1.349 . S
C1108 C1106 1.327 . S
C1108 C1127 1.429 . S
C1108 H1132 0.950 . S
C1109 C1126 1.574 . S
C1109 C1128 1.368 . S
C1109 H1133 0.949 . S
H1110 C1114 0.949 . S
C1111 C1112 1.349 . S
C1111 C1113 1.327 . S
C1111 H1134 0.950 . S
C1112 C1111 1.349 . S
C1112 C1124 1.349 . S
C1113 C1111 1.327 . S
C1113 C1129 1.429 . S
C1113 H1135 0.950 . S
C1114 H1110 0.949 . S
C1114 C1122 1.574 . S
C1114 C1130 1.368 . S
H1115 C1123 0.950 . S
H1116 C1121 0.950 . S
H1117 C1122 0.949 . S
H1118 C1124 0.950 . S
H1119 C1125 0.950 . S
H1120 C1126 0.949 . S
C1121 H1116 0.950 . S
C1121 C1123 1.327 . S
C1121 C1127 1.429 . S
C1122 C1114 1.574 . S
C1122 H1117 0.949 . S
C1122 C1128 1.368 . S
C1123 C1107 1.349 . S
C1123 H1115 0.950 . S
C1123 C1121 1.327 . S
C1124 C1112 1.349 . S
C1124 H1118 0.950 . S
C1124 C1125 1.327 . S
C1125 H1119 0.950 . S
C1125 C1124 1.327 . S
C1125 C1129 1.429 . S
C1126 C1109 1.574 . S
C1126 H1120 0.949 . S
C1126 C1130 1.368 . S
C1127 C1108 1.429 . S
C1127 C1121 1.429 . S
C1127 C1128 1.523 . S
C1128 C1109 1.368 . S
C1128 C1122 1.368 . S
C1128 C1127 1.523 . S
C1129 C1113 1.429 . S
C1129 C1125 1.429 . S
C1129 C1130 1.523 . S
C1130 C1114 1.368 . S
C1130 C1126 1.368 . S
C1130 C1129 1.523 . S
H1131 C1106 0.950 . S
H1132 C1108 0.950 . S
H1133 C1109 0.949 . S
H1134 C1111 0.950 . S
H1135 C1113 0.950 . S
C1136 C1137 1.349 . S
C1136 C1138 1.327 . S
C1136 H1161 0.950 . S
C1137 C1136 1.349 . S
C1137 C1153 1.349 . S
C1138 C1136 1.327 . S
C1138 C1157 1.429 . S
C1138 H1162 0.950 . S
C1139 C1156 1.574 . S
C1139 C1158 1.368 . S
C1139 H1163 0.949 . S
H1140 C1144 0.949 . S
C1141 C1142 1.349 . S
C1141 C1143 1.327 . S
C1141 H1164 0.950 . S
C1142 C1141 1.349 . S
C1142 C1154 1.349 . S
C1143 C1141 1.327 . S
C1143 C1159 1.429 . S
C1143 H1165 0.950 . S
C1144 H1140 0.949 . S
C1144 C1152 1.574 . S
C1144 C1160 1.368 . S
H1145 C1153 0.950 . S
H1146 C1151 0.950 . S
H1147 C1152 0.949 . S
H1148 C1154 0.950 . S
H1149 C1155 0.950 . S
H1150 C1156 0.949 . S
C1151 H1146 0.950 . S
C1151 C1153 1.327 . S
C1151 C1157 1.429 . S
C1152 C1144 1.574 . S
C1152 H1147 0.949 . S
C1152 C1158 1.368 . S
C1153 C1137 1.349 . S
C1153 H1145 0.950 . S
C1153 C1151 1.327 . S
C1154 C1142 1.349 . S
C1154 H1148 0.950 . S
C1154 C1155 1.327 . S
C1155 H1149 0.950 . S
C1155 C1154 1.327 . S
C1155 C1159 1.429 . S
C1156 C1139 1.574 . S
C1156 H1150 0.949 . S
C1156 C1160 1.368 . S
C1157 C1138 1.429 . S
C1157 C1151 1.429 . S
C1157 C1158 1.523 . S
C1158 C1139 1.368 . S
C1158 C1152 1.368 . S
C1158 C1157 1.523 . S
C1159 C1143 1.429 . S
C1159 C1155 1.429 . S
C1159 C1160 1.523 . S
C1160 C1144 1.368 . S
C1160 C1156 1.368 . S
C1160 C1159 1.523 . S
H1161 C1136 0.950 . S
H1162 C1138 0.950 . S
H1163 C1139 0.949 . S
H1164 C1141 0.950 . S
H1165 C1143 0.950 . S
C1166 C1167 1.349 . S
C1166 C1168 1.327 . S
C1166 H1191 0.950 . S
C1167 C1166 1.349 . S
C1167 C1183 1.349 . S
C1168 C1166 1.327 . S
C1168 C1187 1.429 . S
C1168 H1192 0.950 . S
C1169 C1186 1.574 . S
C1169 C1188 1.368 . S
C1169 H1193 0.949 . S
H1170 C1174 0.949 . S
C1171 C1172 1.349 . S
C1171 C1173 1.327 . S
C1171 H1194 0.950 . S
C1172 C1171 1.349 . S
C1172 C1184 1.349 . S
C1173 C1171 1.327 . S
C1173 C1189 1.429 . S
C1173 H1195 0.950 . S
C1174 H1170 0.949 . S
C1174 C1182 1.574 . S
C1174 C1190 1.368 . S
H1175 C1183 0.950 . S
H1176 C1181 0.950 . S
H1177 C1182 0.949 . S
H1178 C1184 0.950 . S
H1179 C1185 0.950 . S
H1180 C1186 0.949 . S
C1181 H1176 0.950 . S
C1181 C1183 1.327 . S
C1181 C1187 1.429 . S
C1182 C1174 1.574 . S
C1182 H1177 0.949 . S
C1182 C1188 1.368 . S
C1183 C1167 1.349 . S
C1183 H1175 0.950 . S
C1183 C1181 1.327 . S
C1184 C1172 1.349 . S
C1184 H1178 0.950 . S
C1184 C1185 1.327 . S
C1185 H1179 0.950 . S
C1185 C1184 1.327 . S
C1185 C1189 1.429 . S
C1186 C1169 1.574 . S
C1186 H1180 0.949 . S
C1186 C1190 1.368 . S
C1187 C1168 1.429 . S
C1187 C1181 1.429 . S
C1187 C1188 1.523 . S
C1188 C1169 1.368 . S
C1188 C1182 1.368 . S
C1188 C1187 1.523 . S
C1189 C1173 1.429 . S
C1189 C1185 1.429 . S
C1189 C1190 1.523 . S
C1190 C1174 1.368 . S
C1190 C1186 1.368 . S
C1190 C1189 1.523 . S
H1191 C1166 0.950 . S
H1192 C1168 0.950 . S
H1193 C1169 0.949 . S
H1194 C1171 0.950 . S
H1195 C1173 0.950 . S
C1196 C1197 1.349 . S
C1196 C1198 1.327 . S
C1196 H1221 0.950 . S
C1197 C1196 1.349 . S
C1197 C1213 1.349 . S
C1198 C1196 1.327 . S
C1198 C1217 1.429 . S
C1198 H1222 0.950 . S
C1199 C1216 1.574 . S
C1199 C1218 1.368 . S
C1199 H1223 0.949 . S
H1200 C1204 0.949 . S
C1201 C1202 1.349 . S
C1201 C1203 1.327 . S
C1201 H1224 0.950 . S
C1202 C1201 1.349 . S
C1202 C1214 1.349 . S
C1203 C1201 1.327 . S
C1203 C1219 1.429 . S
C1203 H1225 0.950 . S
C1204 H1200 0.949 . S
C1204 C1212 1.574 . S
C1204 C1220 1.368 . S
H1205 C1213 0.950 . S
H1206 C1211 0.950 . S
H1207 C1212 0.949 . S
H1208 C1214 0.950 . S
H1209 C1215 0.950 . S
H1210 C1216 0.949 . S
C1211 H1206 0.950 . S
C1211 C1213 1.327 . S
C1211 C1217 1.429 . S
C1212 C1204 1.574 . S
C1212 H1207 0.949 . S
C1212 C1218 1.368 . S
C1213 C1197 1.349 . S
C1213 H1205 0.950 . S
C1213 C1211 1.327 . S
C1214 C1202 1.349 . S
C1214 H1208 0.950 . S
C1214 C1215 1.327 . S
C1215 H1209 0.950 . S
C1215 C1214 1.327 . S
C1215 C1219 1.429 . S
C1216 C1199 1.574 . S
C1216 H1210 0.949 . S
C1216 C1220 1.368 . S
C1217 C1198 1.429 . S
C1217 C1211 1.429 . S
C1217 C1218 1.523 . S
C1218 C1199 1.368 . S
C1218 C1212 1.368 . S
C1218 C1217 1.523 . S
C1219 C1203 1.429 . S
C1219 C1215 1.429 . S
C1219 C1220 1.523 . S
C1220 C1204 1.368 . S
C1220 C1216 1.368 . S
C1220 C1219 1.523 . S
H1221 C1196 0.950 . S
H1222 C1198 0.950 . S
H1223 C1199 0.949 . S
H1224 C1201 0.950 . S
H1225 C1203 0.950 . S
C1226 C1227 1.349 . S
C1226 C1228 1.327 . S
C1226 H1251 0.950 . S
C1227 C1226 1.349 . S
C1227 C1243 1.349 . S
C1228 C1226 1.327 . S
C1228 C1247 1.429 . S
C1228 H1252 0.950 . S
C1229 C1246 1.574 . S
C1229 C1248 1.368 . S
C1229 H1253 0.949 . S
H1230 C1234 0.949 . S
C1231 C1232 1.349 . S
C1231 C1233 1.327 . S
C1231 H1254 0.950 . S
C1232 C1231 1.349 . S
C1232 C1244 1.349 . S
C1233 C1231 1.327 . S
C1233 C1249 1.429 . S
C1233 H1255 0.950 . S
C1234 H1230 0.949 . S
C1234 C1242 1.574 . S
C1234 C1250 1.368 . S
H1235 C1243 0.950 . S
H1236 C1241 0.950 . S
H1237 C1242 0.949 . S
H1238 C1244 0.950 . S
H1239 C1245 0.950 . S
H1240 C1246 0.949 . S
C1241 H1236 0.950 . S
C1241 C1243 1.327 . S
C1241 C1247 1.429 . S
C1242 C1234 1.574 . S
C1242 H1237 0.949 . S
C1242 C1248 1.368 . S
C1243 C1227 1.349 . S
C1243 H1235 0.950 . S
C1243 C1241 1.327 . S
C1244 C1232 1.349 . S
C1244 H1238 0.950 . S
C1244 C1245 1.327 . S
C1245 H1239 0.950 . S
C1245 C1244 1.327 . S
C1245 C1249 1.429 . S
C1246 C1229 1.574 . S
C1246 H1240 0.949 . S
C1246 C1250 1.368 . S
C1247 C1228 1.429 . S
C1247 C1241 1.429 . S
C1247 C1248 1.523 . S
C1248 C1229 1.368 . S
C1248 C1242 1.368 . S
C1248 C1247 1.523 . S
C1249 C1233 1.429 . S
C1249 C1245 1.429 . S
C1249 C1250 1.523 . S
C1250 C1234 1.368 . S
C1250 C1246 1.368 . S
C1250 C1249 1.523 . S
H1251 C1226 0.950 . S
H1252 C1228 0.950 . S
H1253 C1229 0.949 . S
H1254 C1231 0.950 . S
H1255 C1233 0.950 . S
C1256 C1257 1.349 . S
C1256 C1258 1.327 . S
C1256 H1281 0.950 . S
C1257 C1256 1.349 . S
C1257 C1273 1.349 . S
C1258 C1256 1.327 . S
C1258 C1277 1.429 . S
C1258 H1282 0.950 . S
C1259 C1276 1.574 . S
C1259 C1278 1.368 . S
C1259 H1283 0.949 . S
H1260 C1264 0.949 . S
C1261 C1262 1.349 . S
C1261 C1263 1.327 . S
C1261 H1284 0.950 . S
C1262 C1261 1.349 . S
C1262 C1274 1.349 . S
C1263 C1261 1.327 . S
C1263 C1279 1.429 . S
C1263 H1285 0.950 . S
C1264 H1260 0.949 . S
C1264 C1272 1.574 . S
C1264 C1280 1.368 . S
H1265 C1273 0.950 . S
H1266 C1271 0.950 . S
H1267 C1272 0.949 . S
H1268 C1274 0.950 . S
H1269 C1275 0.950 . S
H1270 C1276 0.949 . S
C1271 H1266 0.950 . S
C1271 C1273 1.327 . S
C1271 C1277 1.429 . S
C1272 C1264 1.574 . S
C1272 H1267 0.949 . S
C1272 C1278 1.368 . S
C1273 C1257 1.349 . S
C1273 H1265 0.950 . S
C1273 C1271 1.327 . S
C1274 C1262 1.349 . S
C1274 H1268 0.950 . S
C1274 C1275 1.327 . S
C1275 H1269 0.950 . S
C1275 C1274 1.327 . S
C1275 C1279 1.429 . S
C1276 C1259 1.574 . S
C1276 H1270 0.949 . S
C1276 C1280 1.368 . S
C1277 C1258 1.429 . S
C1277 C1271 1.429 . S
C1277 C1278 1.523 . S
C1278 C1259 1.368 . S
C1278 C1272 1.368 . S
C1278 C1277 1.523 . S
C1279 C1263 1.429 . S
C1279 C1275 1.429 . S
C1279 C1280 1.523 . S
C1280 C1264 1.368 . S
C1280 C1276 1.368 . S
C1280 C1279 1.523 . S
H1281 C1256 0.950 . S
H1282 C1258 0.950 . S
H1283 C1259 0.949 . S
H1284 C1261 0.950 . S
H1285 C1263 0.950 . S
C1286 C1287 1.349 . S
C1286 C1288 1.327 . S
C1286 H1311 0.950 . S
C1287 C1286 1.349 . S
C1287 C1303 1.349 . S
C1288 C1286 1.327 . S
C1288 C1307 1.429 . S
C1288 H1312 0.950 . S
C1289 C1306 1.574 1_655 S
C1289 C1308 1.368 . S
C1289 H1313 0.949 . S
H1290 C1294 0.949 . S
C1291 C1292 1.349 . S
C1291 C1293 1.327 . S
C1291 H1314 0.950 . S
C1292 C1291 1.349 . S
C1292 C1304 1.349 . S
C1293 C1291 1.327 . S
C1293 C1309 1.429 . S
C1293 H1315 0.950 . S
C1294 H1290 0.949 . S
C1294 C1302 1.574 1_455 S
C1294 C1310 1.368 . S
H1295 C1303 0.950 . S
H1296 C1301 0.950 . S
H1297 C1302 0.949 . S
H1298 C1304 0.950 . S
H1299 C1305 0.950 . S
H1300 C1306 0.949 . S
C1301 H1296 0.950 . S
C1301 C1303 1.327 . S
C1301 C1307 1.429 . S
C1302 C1294 1.574 1_655 S
C1302 H1297 0.949 . S
C1302 C1308 1.368 . S
C1303 C1287 1.349 . S
C1303 H1295 0.950 . S
C1303 C1301 1.327 . S
C1304 C1292 1.349 . S
C1304 H1298 0.950 . S
C1304 C1305 1.327 . S
C1305 H1299 0.950 . S
C1305 C1304 1.327 . S
C1305 C1309 1.429 . S
C1306 C1289 1.574 1_455 S
C1306 H1300 0.949 . S
C1306 C1310 1.368 . S
C1307 C1288 1.429 . S
C1307 C1301 1.429 . S
C1307 C1308 1.523 . S
C1308 C1289 1.368 . S
C1308 C1302 1.368 . S
C1308 C1307 1.523 . S
C1309 C1293 1.429 . S
C1309 C1305 1.429 . S
C1309 C1310 1.523 . S
C1310 C1294 1.368 . S
C1310 C1306 1.368 . S
C1310 C1309 1.523 . S
H1311 C1286 0.950 . S
H1312 C1288 0.950 . S
H1313 C1289 0.949 . S
H1314 C1291 0.950 . S
H1315 C1293 0.950 . S
C1316 C1317 1.349 . S
C1316 C1318 1.327 . S
C1316 H1341 0.950 . S
C1317 C1316 1.349 . S
C1317 C1333 1.349 . S
C1318 C1316 1.327 . S
C1318 C1337 1.429 . S
C1318 H1342 0.950 . S
C1319 C1336 1.574 . S
C1319 C1338 1.368 . S
C1319 H1343 0.949 . S
H1320 C1324 0.949 . S
C1321 C1322 1.349 . S
C1321 C1323 1.327 . S
C1321 H1344 0.950 . S
C1322 C1321 1.349 . S
C1322 C1334 1.349 . S
C1323 C1321 1.327 . S
C1323 C1339 1.429 . S
C1323 H1345 0.950 . S
C1324 H1320 0.949 . S
C1324 C1332 1.574 . S
C1324 C1340 1.368 . S
H1325 C1333 0.950 . S
H1326 C1331 0.950 . S
H1327 C1332 0.949 . S
H1328 C1334 0.950 . S
H1329 C1335 0.950 . S
H1330 C1336 0.949 . S
C1331 H1326 0.950 . S
C1331 C1333 1.327 . S
C1331 C1337 1.429 . S
C1332 C1324 1.574 . S
C1332 H1327 0.949 . S
C1332 C1338 1.368 . S
C1333 C1317 1.349 . S
C1333 H1325 0.950 . S
C1333 C1331 1.327 . S
C1334 C1322 1.349 . S
C1334 H1328 0.950 . S
C1334 C1335 1.327 . S
C1335 H1329 0.950 . S
C1335 C1334 1.327 . S
C1335 C1339 1.429 . S
C1336 C1319 1.574 . S
C1336 H1330 0.949 . S
C1336 C1340 1.368 . S
C1337 C1318 1.429 . S
C1337 C1331 1.429 . S
C1337 C1338 1.523 . S
C1338 C1319 1.368 . S
C1338 C1332 1.368 . S
C1338 C1337 1.523 . S
C1339 C1323 1.429 . S
C1339 C1335 1.429 . S
C1339 C1340 1.523 . S
C1340 C1324 1.368 . S
C1340 C1336 1.368 . S
C1340 C1339 1.523 . S
H1341 C1316 0.950 . S
H1342 C1318 0.950 . S
H1343 C1319 0.949 . S
H1344 C1321 0.950 . S
H1345 C1323 0.950 . S
C1346 C1347 1.349 . S
C1346 C1348 1.327 . S
C1346 H1371 0.950 . S
C1347 C1346 1.349 . S
C1347 C1363 1.349 . S
C1348 C1346 1.327 . S
C1348 C1367 1.429 . S
C1348 H1372 0.950 . S
C1349 C1366 1.574 1_455 S
C1349 C1368 1.368 . S
C1349 H1373 0.949 . S
H1350 C1354 0.949 . S
C1351 C1352 1.349 . S
C1351 C1353 1.327 . S
C1351 H1374 0.950 . S
C1352 C1351 1.349 . S
C1352 C1364 1.349 . S
C1353 C1351 1.327 . S
C1353 C1369 1.429 . S
C1353 H1375 0.950 . S
C1354 H1350 0.949 . S
C1354 C1362 1.574 1_655 S
C1354 C1370 1.368 . S
H1355 C1363 0.950 . S
H1356 C1361 0.950 . S
H1357 C1362 0.949 . S
H1358 C1364 0.950 . S
H1359 C1365 0.950 . S
H1360 C1366 0.949 . S
C1361 H1356 0.950 . S
C1361 C1363 1.327 . S
C1361 C1367 1.429 . S
C1362 C1354 1.574 1_455 S
C1362 H1357 0.949 . S
C1362 C1368 1.368 . S
C1363 C1347 1.349 . S
C1363 H1355 0.950 . S
C1363 C1361 1.327 . S
C1364 C1352 1.349 . S
C1364 H1358 0.950 . S
C1364 C1365 1.327 . S
C1365 H1359 0.950 . S
C1365 C1364 1.327 . S
C1365 C1369 1.429 . S
C1366 C1349 1.574 1_655 S
C1366 H1360 0.949 . S
C1366 C1370 1.368 . S
C1367 C1348 1.429 . S
C1367 C1361 1.429 . S
C1367 C1368 1.523 . S
C1368 C1349 1.368 . S
C1368 C1362 1.368 . S
C1368 C1367 1.523 . S
C1369 C1353 1.429 . S
C1369 C1365 1.429 . S
C1369 C1370 1.523 . S
C1370 C1354 1.368 . S
C1370 C1366 1.368 . S
C1370 C1369 1.523 . S
H1371 C1346 0.950 . S
H1372 C1348 0.950 . S
H1373 C1349 0.949 . S
H1374 C1351 0.950 . S
H1375 C1353 0.950 . S
C1376 C1377 1.349 . S
C1376 C1378 1.327 . S
C1376 H1401 0.950 . S
C1377 C1376 1.349 . S
C1377 C1393 1.349 . S
C1378 C1376 1.327 . S
C1378 C1397 1.429 . S
C1378 H1402 0.950 . S
C1379 C1396 1.574 . S
C1379 C1398 1.368 . S
C1379 H1403 0.949 . S
H1380 C1384 0.949 . S
C1381 C1382 1.349 . S
C1381 C1383 1.327 . S
C1381 H1404 0.950 . S
C1382 C1381 1.349 . S
C1382 C1394 1.349 . S
C1383 C1381 1.327 . S
C1383 C1399 1.429 . S
C1383 H1405 0.950 . S
C1384 H1380 0.949 . S
C1384 C1392 1.574 . S
C1384 C1400 1.368 . S
H1385 C1393 0.950 . S
H1386 C1391 0.950 . S
H1387 C1392 0.949 . S
H1388 C1394 0.950 . S
H1389 C1395 0.950 . S
H1390 C1396 0.949 . S
C1391 H1386 0.950 . S
C1391 C1393 1.327 . S
C1391 C1397 1.429 . S
C1392 C1384 1.574 . S
C1392 H1387 0.949 . S
C1392 C1398 1.368 1_554 S
C1393 C1377 1.349 . S
C1393 H1385 0.950 . S
C1393 C1391 1.327 . S
C1394 C1382 1.349 . S
C1394 H1388 0.950 . S
C1394 C1395 1.327 . S
C1395 H1389 0.950 . S
C1395 C1394 1.327 . S
C1395 C1399 1.429 . S
C1396 C1379 1.574 . S
C1396 H1390 0.949 . S
C1396 C1400 1.368 1_556 S
C1397 C1378 1.429 . S
C1397 C1391 1.429 . S
C1397 C1398 1.523 . S
C1398 C1379 1.368 . S
C1398 C1392 1.368 1_556 S
C1398 C1397 1.523 . S
C1399 C1383 1.429 . S
C1399 C1395 1.429 . S
C1399 C1400 1.523 . S
C1400 C1384 1.368 . S
C1400 C1396 1.368 1_554 S
C1400 C1399 1.523 . S
H1401 C1376 0.950 . S
H1402 C1378 0.950 . S
H1403 C1379 0.949 . S
H1404 C1381 0.950 . S
H1405 C1383 0.950 . S
C1406 C1407 1.349 . S
C1406 C1408 1.327 . S
C1406 H1431 0.950 . S
C1407 C1406 1.349 . S
C1407 C1423 1.349 . S
C1408 C1406 1.327 . S
C1408 C1427 1.429 . S
C1408 H1432 0.950 . S
C1409 C1426 1.574 . S
C1409 C1428 1.368 . S
C1409 H1433 0.949 . S
H1410 C1414 0.949 . S
C1411 C1412 1.349 . S
C1411 C1413 1.327 . S
C1411 H1434 0.950 . S
C1412 C1411 1.349 . S
C1412 C1424 1.349 . S
C1413 C1411 1.327 . S
C1413 C1429 1.429 . S
C1413 H1435 0.950 . S
C1414 H1410 0.949 . S
C1414 C1422 1.574 . S
C1414 C1430 1.368 . S
H1415 C1423 0.950 . S
H1416 C1421 0.950 . S
H1417 C1422 0.949 . S
H1418 C1424 0.950 . S
H1419 C1425 0.950 . S
H1420 C1426 0.949 . S
C1421 H1416 0.950 . S
C1421 C1423 1.327 . S
C1421 C1427 1.429 . S
C1422 C1414 1.574 . S
C1422 H1417 0.949 . S
C1422 C1428 1.368 . S
C1423 C1407 1.349 . S
C1423 H1415 0.950 . S
C1423 C1421 1.327 . S
C1424 C1412 1.349 . S
C1424 H1418 0.950 . S
C1424 C1425 1.327 . S
C1425 H1419 0.950 . S
C1425 C1424 1.327 . S
C1425 C1429 1.429 . S
C1426 C1409 1.574 . S
C1426 H1420 0.949 . S
C1426 C1430 1.368 . S
C1427 C1408 1.429 . S
C1427 C1421 1.429 . S
C1427 C1428 1.523 . S
C1428 C1409 1.368 . S
C1428 C1422 1.368 . S
C1428 C1427 1.523 . S
C1429 C1413 1.429 . S
C1429 C1425 1.429 . S
C1429 C1430 1.523 . S
C1430 C1414 1.368 . S
C1430 C1426 1.368 . S
C1430 C1429 1.523 . S
H1431 C1406 0.950 . S
H1432 C1408 0.950 . S
H1433 C1409 0.949 . S
H1434 C1411 0.950 . S
H1435 C1413 0.950 . S
C1436 C1437 1.349 . S
C1436 C1438 1.327 . S
C1436 H1461 0.950 . S
C1437 C1436 1.349 . S
C1437 C1453 1.349 . S
C1438 C1436 1.327 . S
C1438 C1457 1.429 . S
C1438 H1462 0.950 . S
C1439 C1456 1.574 . S
C1439 C1458 1.368 . S
C1439 H1463 0.949 . S
H1440 C1444 0.949 . S
C1441 C1442 1.349 . S
C1441 C1443 1.327 . S
C1441 H1464 0.950 . S
C1442 C1441 1.349 . S
C1442 C1454 1.349 . S
C1443 C1441 1.327 . S
C1443 C1459 1.429 . S
C1443 H1465 0.950 . S
C1444 H1440 0.949 . S
C1444 C1452 1.574 . S
C1444 C1460 1.368 . S
H1445 C1453 0.950 . S
H1446 C1451 0.950 . S
H1447 C1452 0.949 . S
H1448 C1454 0.950 . S
H1449 C1455 0.950 . S
H1450 C1456 0.949 . S
C1451 H1446 0.950 . S
C1451 C1453 1.327 . S
C1451 C1457 1.429 . S
C1452 C1444 1.574 . S
C1452 H1447 0.949 . S
C1452 C1458 1.368 . S
C1453 C1437 1.349 . S
C1453 H1445 0.950 . S
C1453 C1451 1.327 . S
C1454 C1442 1.349 . S
C1454 H1448 0.950 . S
C1454 C1455 1.327 . S
C1455 H1449 0.950 . S
C1455 C1454 1.327 . S
C1455 C1459 1.429 . S
C1456 C1439 1.574 . S
C1456 H1450 0.949 . S
C1456 C1460 1.368 . S
C1457 C1438 1.429 . S
C1457 C1451 1.429 . S
C1457 C1458 1.523 . S
C1458 C1439 1.368 . S
C1458 C1452 1.368 . S
C1458 C1457 1.523 . S
C1459 C1443 1.429 . S
C1459 C1455 1.429 . S
C1459 C1460 1.523 . S
C1460 C1444 1.368 . S
C1460 C1456 1.368 . S
C1460 C1459 1.523 . S
H1461 C1436 0.950 . S
H1462 C1438 0.950 . S
H1463 C1439 0.949 . S
H1464 C1441 0.950 . S
H1465 C1443 0.950 . S
C1466 C1467 1.349 . S
C1466 C1468 1.327 . S
C1466 H1491 0.950 . S
C1467 C1466 1.349 . S
C1467 C1483 1.349 . S
C1468 C1466 1.327 . S
C1468 C1487 1.429 . S
C1468 H1492 0.950 . S
C1469 C1486 1.574 . S
C1469 C1488 1.368 . S
C1469 H1493 0.949 . S
H1470 C1474 0.949 . S
C1471 C1472 1.349 . S
C1471 C1473 1.327 . S
C1471 H1494 0.950 . S
C1472 C1471 1.349 . S
C1472 C1484 1.349 . S
C1473 C1471 1.327 . S
C1473 C1489 1.429 . S
C1473 H1495 0.950 . S
C1474 H1470 0.949 . S
C1474 C1482 1.574 . S
C1474 C1490 1.368 . S
H1475 C1483 0.950 . S
H1476 C1481 0.950 . S
H1477 C1482 0.949 . S
H1478 C1484 0.950 . S
H1479 C1485 0.950 . S
H1480 C1486 0.949 . S
C1481 H1476 0.950 . S
C1481 C1483 1.327 . S
C1481 C1487 1.429 . S
C1482 C1474 1.574 . S
C1482 H1477 0.949 . S
C1482 C1488 1.368 . S
C1483 C1467 1.349 . S
C1483 H1475 0.950 . S
C1483 C1481 1.327 . S
C1484 C1472 1.349 . S
C1484 H1478 0.950 . S
C1484 C1485 1.327 . S
C1485 H1479 0.950 . S
C1485 C1484 1.327 . S
C1485 C1489 1.429 . S
C1486 C1469 1.574 . S
C1486 H1480 0.949 . S
C1486 C1490 1.368 . S
C1487 C1468 1.429 . S
C1487 C1481 1.429 . S
C1487 C1488 1.523 . S
C1488 C1469 1.368 . S
C1488 C1482 1.368 . S
C1488 C1487 1.523 . S
C1489 C1473 1.429 . S
C1489 C1485 1.429 . S
C1489 C1490 1.523 . S
C1490 C1474 1.368 . S
C1490 C1486 1.368 . S
C1490 C1489 1.523 . S
H1491 C1466 0.950 . S
H1492 C1468 0.950 . S
H1493 C1469 0.949 . S
H1494 C1471 0.950 . S
H1495 C1473 0.950 . S
C1496 C1497 1.349 . S
C1496 C1498 1.327 . S
C1496 H1521 0.950 . S
C1497 C1496 1.349 . S
C1497 C1513 1.349 . S
C1498 C1496 1.327 . S
C1498 C1517 1.429 . S
C1498 H1522 0.950 . S
C1499 C1516 1.574 . S
C1499 C1518 1.368 1_556 S
C1499 H1523 0.949 . S
H1500 C1504 0.949 . S
C1501 C1502 1.349 . S
C1501 C1503 1.327 . S
C1501 H1524 0.950 . S
C1502 C1501 1.349 . S
C1502 C1514 1.349 . S
C1503 C1501 1.327 . S
C1503 C1519 1.429 . S
C1503 H1525 0.950 . S
C1504 H1500 0.949 . S
C1504 C1512 1.574 . S
C1504 C1520 1.368 1_554 S
H1505 C1513 0.950 . S
H1506 C1511 0.950 . S
H1507 C1512 0.949 . S
H1508 C1514 0.950 . S
H1509 C1515 0.950 . S
H1510 C1516 0.949 . S
C1511 H1506 0.950 . S
C1511 C1513 1.327 . S
C1511 C1517 1.429 . S
C1512 C1504 1.574 . S
C1512 H1507 0.949 . S
C1512 C1518 1.368 . S
C1513 C1497 1.349 . S
C1513 H1505 0.950 . S
C1513 C1511 1.327 . S
C1514 C1502 1.349 . S
C1514 H1508 0.950 . S
C1514 C1515 1.327 . S
C1515 H1509 0.950 . S
C1515 C1514 1.327 . S
C1515 C1519 1.429 . S
C1516 C1499 1.574 . S
C1516 H1510 0.949 . S
C1516 C1520 1.368 . S
C1517 C1498 1.429 . S
C1517 C1511 1.429 . S
C1517 C1518 1.523 . S
C1518 C1499 1.368 1_554 S
C1518 C1512 1.368 . S
C1518 C1517 1.523 . S
C1519 C1503 1.429 . S
C1519 C1515 1.429 . S
C1519 C1520 1.523 . S
C1520 C1504 1.368 1_556 S
C1520 C1516 1.368 . S
C1520 C1519 1.523 . S
H1521 C1496 0.950 . S
H1522 C1498 0.950 . S
H1523 C1499 0.949 . S
H1524 C1501 0.950 . S
H1525 C1503 0.950 . S
C1526 C1527 1.349 . S
C1526 C1528 1.327 . S
C1526 H1551 0.950 . S
C1527 C1526 1.349 . S
C1527 C1543 1.349 . S
C1528 C1526 1.327 . S
C1528 C1547 1.429 . S
C1528 H1552 0.950 . S
C1529 C1546 1.574 . S
C1529 C1548 1.368 . S
C1529 H1553 0.949 . S
H1530 C1534 0.949 . S
C1531 C1532 1.349 . S
C1531 C1533 1.327 . S
C1531 H1554 0.950 . S
C1532 C1531 1.349 . S
C1532 C1544 1.349 . S
C1533 C1531 1.327 . S
C1533 C1549 1.429 . S
C1533 H1555 0.950 . S
C1534 H1530 0.949 . S
C1534 C1542 1.574 . S
C1534 C1550 1.368 . S
H1535 C1543 0.950 . S
H1536 C1541 0.950 . S
H1537 C1542 0.949 . S
H1538 C1544 0.950 . S
H1539 C1545 0.950 . S
H1540 C1546 0.949 . S
C1541 H1536 0.950 . S
C1541 C1543 1.327 . S
C1541 C1547 1.429 . S
C1542 C1534 1.574 . S
C1542 H1537 0.949 . S
C1542 C1548 1.368 . S
C1543 C1527 1.349 . S
C1543 H1535 0.950 . S
C1543 C1541 1.327 . S
C1544 C1532 1.349 . S
C1544 H1538 0.950 . S
C1544 C1545 1.327 . S
C1545 H1539 0.950 . S
C1545 C1544 1.327 . S
C1545 C1549 1.429 . S
C1546 C1529 1.574 . S
C1546 H1540 0.949 . S
C1546 C1550 1.368 . S
C1547 C1528 1.429 . S
C1547 C1541 1.429 . S
C1547 C1548 1.523 . S
C1548 C1529 1.368 . S
C1548 C1542 1.368 . S
C1548 C1547 1.523 . S
C1549 C1533 1.429 . S
C1549 C1545 1.429 . S
C1549 C1550 1.523 . S
C1550 C1534 1.368 . S
C1550 C1546 1.368 . S
C1550 C1549 1.523 . S
H1551 C1526 0.950 . S
H1552 C1528 0.950 . S
H1553 C1529 0.949 . S
H1554 C1531 0.950 . S
H1555 C1533 0.950 . S
C1556 C1557 1.349 . S
C1556 C1558 1.327 . S
C1556 H1581 0.950 . S
C1557 C1556 1.349 . S
C1557 C1573 1.349 . S
C1558 C1556 1.327 . S
C1558 C1577 1.429 . S
C1558 H1582 0.950 . S
C1559 C1576 1.574 . S
C1559 C1578 1.368 . S
C1559 H1583 0.949 . S
H1560 C1564 0.949 . S
C1561 C1562 1.349 . S
C1561 C1563 1.327 . S
C1561 H1584 0.950 . S
C1562 C1561 1.349 . S
C1562 C1574 1.349 . S
C1563 C1561 1.327 . S
C1563 C1579 1.429 . S
C1563 H1585 0.950 . S
C1564 H1560 0.949 . S
C1564 C1572 1.574 . S
C1564 C1580 1.368 . S
H1565 C1573 0.950 . S
H1566 C1571 0.950 . S
H1567 C1572 0.949 . S
H1568 C1574 0.950 . S
H1569 C1575 0.950 . S
H1570 C1576 0.949 . S
C1571 H1566 0.950 . S
C1571 C1573 1.327 . S
C1571 C1577 1.429 . S
C1572 C1564 1.574 . S
C1572 H1567 0.949 . S
C1572 C1578 1.368 . S
C1573 C1557 1.349 . S
C1573 H1565 0.950 . S
C1573 C1571 1.327 . S
C1574 C1562 1.349 . S
C1574 H1568 0.950 . S
C1574 C1575 1.327 . S
C1575 H1569 0.950 . S
C1575 C1574 1.327 . S
C1575 C1579 1.429 . S
C1576 C1559 1.574 . S
C1576 H1570 0.949 . S
C1576 C1580 1.368 . S
C1577 C1558 1.429 . S
C1577 C1571 1.429 . S
C1577 C1578 1.523 . S
C1578 C1559 1.368 . S
C1578 C1572 1.368 . S
C1578 C1577 1.523 . S
C1579 C1563 1.429 . S
C1579 C1575 1.429 . S
C1579 C1580 1.523 . S
C1580 C1564 1.368 . S
C1580 C1576 1.368 . S
C1580 C1579 1.523 . S
H1581 C1556 0.950 . S
H1582 C1558 0.950 . S
H1583 C1559 0.949 . S
H1584 C1561 0.950 . S
H1585 C1563 0.950 . S
C1586 C1587 1.349 . S
C1586 C1588 1.327 . S
C1586 H1611 0.950 . S
C1587 C1586 1.349 . S
C1587 C1603 1.349 . S
C1588 C1586 1.327 . S
C1588 C1607 1.429 . S
C1588 H1612 0.950 . S
C1589 C1606 1.574 . S
C1589 C1608 1.368 . S
C1589 H1613 0.949 . S
H1590 C1594 0.949 . S
C1591 C1592 1.349 . S
C1591 C1593 1.327 . S
C1591 H1614 0.950 . S
C1592 C1591 1.349 . S
C1592 C1604 1.349 . S
C1593 C1591 1.327 . S
C1593 C1609 1.429 . S
C1593 H1615 0.950 . S
C1594 H1590 0.949 . S
C1594 C1602 1.574 . S
C1594 C1610 1.368 . S
H1595 C1603 0.950 . S
H1596 C1601 0.950 . S
H1597 C1602 0.949 . S
H1598 C1604 0.950 . S
H1599 C1605 0.950 . S
H1600 C1606 0.949 . S
C1601 H1596 0.950 . S
C1601 C1603 1.327 . S
C1601 C1607 1.429 . S
C1602 C1594 1.574 . S
C1602 H1597 0.949 . S
C1602 C1608 1.368 . S
C1603 C1587 1.349 . S
C1603 H1595 0.950 . S
C1603 C1601 1.327 . S
C1604 C1592 1.349 . S
C1604 H1598 0.950 . S
C1604 C1605 1.327 . S
C1605 H1599 0.950 . S
C1605 C1604 1.327 . S
C1605 C1609 1.429 . S
C1606 C1589 1.574 . S
C1606 H1600 0.949 . S
C1606 C1610 1.368 . S
C1607 C1588 1.429 . S
C1607 C1601 1.429 . S
C1607 C1608 1.523 . S
C1608 C1589 1.368 . S
C1608 C1602 1.368 . S
C1608 C1607 1.523 . S
C1609 C1593 1.429 . S
C1609 C1605 1.429 . S
C1609 C1610 1.523 . S
C1610 C1594 1.368 . S
C1610 C1606 1.368 . S
C1610 C1609 1.523 . S
H1611 C1586 0.950 . S
H1612 C1588 0.950 . S
H1613 C1589 0.949 . S
H1614 C1591 0.950 . S
H1615 C1593 0.950 . S
C1616 C1617 1.349 . S
C1616 C1618 1.327 . S
C1616 H1641 0.950 . S
C1617 C1616 1.349 . S
C1617 C1633 1.349 . S
C1618 C1616 1.327 . S
C1618 C1637 1.429 . S
C1618 H1642 0.950 . S
C1619 C1636 1.574 1_545 S
C1619 C1638 1.368 . S
C1619 H1643 0.949 . S
H1620 C1624 0.949 . S
C1621 C1622 1.349 . S
C1621 C1623 1.327 . S
C1621 H1644 0.950 . S
C1622 C1621 1.349 . S
C1622 C1634 1.349 . S
C1623 C1621 1.327 . S
C1623 C1639 1.429 . S
C1623 H1645 0.950 . S
C1624 H1620 0.949 . S
C1624 C1632 1.574 1_565 S
C1624 C1640 1.368 . S
H1625 C1633 0.950 . S
H1626 C1631 0.950 . S
H1627 C1632 0.949 . S
H1628 C1634 0.950 . S
H1629 C1635 0.950 . S
H1630 C1636 0.949 . S
C1631 H1626 0.950 . S
C1631 C1633 1.327 . S
C1631 C1637 1.429 . S
C1632 C1624 1.574 1_545 S
C1632 H1627 0.949 . S
C1632 C1638 1.368 . S
C1633 C1617 1.349 . S
C1633 H1625 0.950 . S
C1633 C1631 1.327 . S
C1634 C1622 1.349 . S
C1634 H1628 0.950 . S
C1634 C1635 1.327 . S
C1635 H1629 0.950 . S
C1635 C1634 1.327 . S
C1635 C1639 1.429 . S
C1636 C1619 1.574 1_565 S
C1636 H1630 0.949 . S
C1636 C1640 1.368 . S
C1637 C1618 1.429 . S
C1637 C1631 1.429 . S
C1637 C1638 1.523 . S
C1638 C1619 1.368 . S
C1638 C1632 1.368 . S
C1638 C1637 1.523 . S
C1639 C1623 1.429 . S
C1639 C1635 1.429 . S
C1639 C1640 1.523 . S
C1640 C1624 1.368 . S
C1640 C1636 1.368 . S
C1640 C1639 1.523 . S
H1641 C1616 0.950 . S
H1642 C1618 0.950 . S
H1643 C1619 0.949 . S
H1644 C1621 0.950 . S
H1645 C1623 0.950 . S
C1646 C1647 1.349 . S
C1646 C1648 1.327 . S
C1646 H1671 0.950 . S
C1647 C1646 1.349 . S
C1647 C1663 1.349 . S
C1648 C1646 1.327 . S
C1648 C1667 1.429 . S
C1648 H1672 0.950 . S
C1649 C1666 1.574 . S
C1649 C1668 1.368 . S
C1649 H1673 0.949 . S
H1650 C1654 0.949 . S
C1651 C1652 1.349 . S
C1651 C1653 1.327 . S
C1651 H1674 0.950 . S
C1652 C1651 1.349 . S
C1652 C1664 1.349 . S
C1653 C1651 1.327 . S
C1653 C1669 1.429 . S
C1653 H1675 0.950 . S
C1654 H1650 0.949 . S
C1654 C1662 1.574 . S
C1654 C1670 1.368 . S
H1655 C1663 0.950 . S
H1656 C1661 0.950 . S
H1657 C1662 0.949 . S
H1658 C1664 0.950 . S
H1659 C1665 0.950 . S
H1660 C1666 0.949 . S
C1661 H1656 0.950 . S
C1661 C1663 1.327 . S
C1661 C1667 1.429 . S
C1662 C1654 1.574 . S
C1662 H1657 0.949 . S
C1662 C1668 1.368 . S
C1663 C1647 1.349 . S
C1663 H1655 0.950 . S
C1663 C1661 1.327 . S
C1664 C1652 1.349 . S
C1664 H1658 0.950 . S
C1664 C1665 1.327 . S
C1665 H1659 0.950 . S
C1665 C1664 1.327 . S
C1665 C1669 1.429 . S
C1666 C1649 1.574 . S
C1666 H1660 0.949 . S
C1666 C1670 1.368 . S
C1667 C1648 1.429 . S
C1667 C1661 1.429 . S
C1667 C1668 1.523 . S
C1668 C1649 1.368 . S
C1668 C1662 1.368 . S
C1668 C1667 1.523 . S
C1669 C1653 1.429 . S
C1669 C1665 1.429 . S
C1669 C1670 1.523 . S
C1670 C1654 1.368 . S
C1670 C1666 1.368 . S
C1670 C1669 1.523 . S
H1671 C1646 0.950 . S
H1672 C1648 0.950 . S
H1673 C1649 0.949 . S
H1674 C1651 0.950 . S
H1675 C1653 0.950 . S
C1676 C1677 1.349 . S
C1676 C1678 1.327 . S
C1676 H1701 0.950 . S
C1677 C1676 1.349 . S
C1677 C1693 1.349 . S
C1678 C1676 1.327 . S
C1678 C1697 1.429 . S
C1678 H1702 0.950 . S
C1679 C1696 1.592 . S
C1679 C1698 1.368 1_556 S
C1679 H1703 0.949 . S
H1680 C1684 0.949 . S
C1681 C1682 1.349 . S
C1681 C1683 1.327 . S
C1681 H1704 0.950 . S
C1682 C1681 1.349 . S
C1682 C1694 1.349 . S
C1683 C1681 1.327 . S
C1683 C1699 1.429 . S
C1683 H1705 0.950 . S
C1684 H1680 0.949 . S
C1684 C1692 1.592 . S
C1684 C1700 1.368 1_554 S
H1685 C1693 0.950 . S
H1686 C1691 0.950 . S
H1687 C1692 0.949 . S
H1688 C1694 0.950 . S
H1689 C1695 0.950 . S
H1690 C1696 0.949 . S
C1691 H1686 0.950 . S
C1691 C1693 1.327 . S
C1691 C1697 1.429 . S
C1692 C1684 1.592 . S
C1692 H1687 0.949 . S
C1692 C1698 1.350 1_545 S
C1693 C1677 1.349 . S
C1693 H1685 0.950 . S
C1693 C1691 1.327 . S
C1694 C1682 1.349 . S
C1694 H1688 0.950 . S
C1694 C1695 1.327 . S
C1695 H1689 0.950 . S
C1695 C1694 1.327 . S
C1695 C1699 1.429 . S
C1696 C1679 1.592 . S
C1696 H1690 0.949 . S
C1696 C1700 1.350 1_565 S
C1697 C1678 1.429 . S
C1697 C1691 1.429 . S
C1697 C1698 1.523 . S
C1698 C1679 1.368 1_554 S
C1698 C1692 1.350 1_565 S
C1698 C1697 1.523 . S
C1699 C1683 1.429 . S
C1699 C1695 1.429 . S
C1699 C1700 1.523 . S
C1700 C1684 1.368 1_556 S
C1700 C1696 1.350 1_545 S
C1700 C1699 1.523 . S
H1701 C1676 0.950 . S
H1702 C1678 0.950 . S
H1703 C1679 0.949 . S
H1704 C1681 0.950 . S
H1705 C1683 0.950 . S
C1706 C1707 1.349 . S
C1706 C1708 1.327 . S
C1706 H1731 0.950 . S
C1707 C1706 1.349 . S
C1707 C1723 1.349 . S
C1708 C1706 1.327 . S
C1708 C1727 1.429 . S
C1708 H1732 0.950 . S
C1709 C1726 1.574 . S
C1709 C1728 1.368 . S
C1709 H1733 0.949 . S
H1710 C1714 0.949 . S
C1711 C1712 1.349 . S
C1711 C1713 1.327 . S
C1711 H1734 0.950 . S
C1712 C1711 1.349 . S
C1712 C1724 1.349 . S
C1713 C1711 1.327 . S
C1713 C1729 1.429 . S
C1713 H1735 0.950 . S
C1714 H1710 0.949 . S
C1714 C1722 1.574 . S
C1714 C1730 1.368 . S
H1715 C1723 0.950 . S
H1716 C1721 0.950 . S
H1717 C1722 0.949 . S
H1718 C1724 0.950 . S
H1719 C1725 0.950 . S
H1720 C1726 0.949 . S
C1721 H1716 0.950 . S
C1721 C1723 1.327 . S
C1721 C1727 1.429 . S
C1722 C1714 1.574 . S
C1722 H1717 0.949 . S
C1722 C1728 1.368 . S
C1723 C1707 1.349 . S
C1723 H1715 0.950 . S
C1723 C1721 1.327 . S
C1724 C1712 1.349 . S
C1724 H1718 0.950 . S
C1724 C1725 1.327 . S
C1725 H1719 0.950 . S
C1725 C1724 1.327 . S
C1725 C1729 1.429 . S
C1726 C1709 1.574 . S
C1726 H1720 0.949 . S
C1726 C1730 1.368 . S
C1727 C1708 1.429 . S
C1727 C1721 1.429 . S
C1727 C1728 1.523 . S
C1728 C1709 1.368 . S
C1728 C1722 1.368 . S
C1728 C1727 1.523 . S
C1729 C1713 1.429 . S
C1729 C1725 1.429 . S
C1729 C1730 1.523 . S
C1730 C1714 1.368 . S
C1730 C1726 1.368 . S
C1730 C1729 1.523 . S
H1731 C1706 0.950 . S
H1732 C1708 0.950 . S
H1733 C1709 0.949 . S
H1734 C1711 0.950 . S
H1735 C1713 0.950 . S
C1736 C1737 1.349 . S
C1736 C1738 1.327 . S
C1736 H1761 0.950 . S
C1737 C1736 1.349 . S
C1737 C1753 1.349 . S
C1738 C1736 1.327 . S
C1738 C1757 1.429 . S
C1738 H1762 0.950 . S
C1739 C1756 1.574 1_545 S
C1739 C1758 1.368 . S
C1739 H1763 0.949 . S
H1740 C1744 0.949 . S
C1741 C1742 1.349 . S
C1741 C1743 1.327 . S
C1741 H1764 0.950 . S
C1742 C1741 1.349 . S
C1742 C1754 1.349 . S
C1743 C1741 1.327 . S
C1743 C1759 1.429 . S
C1743 H1765 0.950 . S
C1744 H1740 0.949 . S
C1744 C1752 1.574 1_565 S
C1744 C1760 1.368 . S
H1745 C1753 0.950 . S
H1746 C1751 0.950 . S
H1747 C1752 0.949 . S
H1748 C1754 0.950 . S
H1749 C1755 0.950 . S
H1750 C1756 0.949 . S
C1751 H1746 0.950 . S
C1751 C1753 1.327 . S
C1751 C1757 1.429 . S
C1752 C1744 1.574 1_545 S
C1752 H1747 0.949 . S
C1752 C1758 1.368 . S
C1753 C1737 1.349 . S
C1753 H1745 0.950 . S
C1753 C1751 1.327 . S
C1754 C1742 1.349 . S
C1754 H1748 0.950 . S
C1754 C1755 1.327 . S
C1755 H1749 0.950 . S
C1755 C1754 1.327 . S
C1755 C1759 1.429 . S
C1756 C1739 1.574 1_565 S
C1756 H1750 0.949 . S
C1756 C1760 1.368 . S
C1757 C1738 1.429 . S
C1757 C1751 1.429 . S
C1757 C1758 1.523 . S
C1758 C1739 1.368 . S
C1758 C1752 1.368 . S
C1758 C1757 1.523 . S
C1759 C1743 1.429 . S
C1759 C1755 1.429 . S
C1759 C1760 1.523 . S
C1760 C1744 1.368 . S
C1760 C1756 1.368 . S
C1760 C1759 1.523 . S
H1761 C1736 0.950 . S
H1762 C1738 0.950 . S
H1763 C1739 0.949 . S
H1764 C1741 0.950 . S
H1765 C1743 0.950 . S
C1766 C1767 1.349 . S
C1766 C1768 1.327 . S
C1766 H1791 0.950 . S
C1767 C1766 1.349 . S
C1767 C1783 1.349 . S
C1768 C1766 1.327 . S
C1768 C1787 1.429 . S
C1768 H1792 0.950 . S
C1769 C1786 1.574 . S
C1769 C1788 1.368 . S
C1769 H1793 0.949 . S
H1770 C1774 0.949 . S
C1771 C1772 1.349 . S
C1771 C1773 1.327 . S
C1771 H1794 0.950 . S
C1772 C1771 1.349 . S
C1772 C1784 1.349 . S
C1773 C1771 1.327 . S
C1773 C1789 1.429 . S
C1773 H1795 0.950 . S
C1774 H1770 0.949 . S
C1774 C1782 1.574 . S
C1774 C1790 1.368 . S
H1775 C1783 0.950 . S
H1776 C1781 0.950 . S
H1777 C1782 0.949 . S
H1778 C1784 0.950 . S
H1779 C1785 0.950 . S
H1780 C1786 0.949 . S
C1781 H1776 0.950 . S
C1781 C1783 1.327 . S
C1781 C1787 1.429 . S
C1782 C1774 1.574 . S
C1782 H1777 0.949 . S
C1782 C1788 1.368 . S
C1783 C1767 1.349 . S
C1783 H1775 0.950 . S
C1783 C1781 1.327 . S
C1784 C1772 1.349 . S
C1784 H1778 0.950 . S
C1784 C1785 1.327 . S
C1785 H1779 0.950 . S
C1785 C1784 1.327 . S
C1785 C1789 1.429 . S
C1786 C1769 1.574 . S
C1786 H1780 0.949 . S
C1786 C1790 1.368 . S
C1787 C1768 1.429 . S
C1787 C1781 1.429 . S
C1787 C1788 1.523 . S
C1788 C1769 1.368 . S
C1788 C1782 1.368 . S
C1788 C1787 1.523 . S
C1789 C1773 1.429 . S
C1789 C1785 1.429 . S
C1789 C1790 1.523 . S
C1790 C1774 1.368 . S
C1790 C1786 1.368 . S
C1790 C1789 1.523 . S
H1791 C1766 0.950 . S
H1792 C1768 0.950 . S
H1793 C1769 0.949 . S
H1794 C1771 0.950 . S
H1795 C1773 0.950 . S
C1796 C1797 1.349 . S
C1796 C1798 1.327 . S
C1796 H1821 0.950 . S
C1797 C1796 1.349 . S
C1797 C1813 1.349 . S
C1798 C1796 1.327 . S
C1798 C1817 1.429 . S
C1798 H1822 0.950 . S
C1799 C1816 1.574 . S
C1799 C1818 1.368 1_545 S
C1799 H1823 0.949 . S
H1800 C1804 0.949 . S
C1801 C1802 1.349 . S
C1801 C1803 1.327 . S
C1801 H1824 0.950 . S
C1802 C1801 1.349 . S
C1802 C1814 1.349 . S
C1803 C1801 1.327 . S
C1803 C1819 1.429 . S
C1803 H1825 0.950 . S
C1804 H1800 0.949 . S
C1804 C1812 1.574 . S
C1804 C1820 1.368 1_565 S
H1805 C1813 0.950 . S
H1806 C1811 0.950 . S
H1807 C1812 0.949 . S
H1808 C1814 0.950 . S
H1809 C1815 0.950 . S
H1810 C1816 0.949 . S
C1811 H1806 0.950 . S
C1811 C1813 1.327 . S
C1811 C1817 1.429 . S
C1812 C1804 1.574 . S
C1812 H1807 0.949 . S
C1812 C1818 1.368 1_556 S
C1813 C1797 1.349 . S
C1813 H1805 0.950 . S
C1813 C1811 1.327 . S
C1814 C1802 1.349 . S
C1814 H1808 0.950 . S
C1814 C1815 1.327 . S
C1815 H1809 0.950 . S
C1815 C1814 1.327 . S
C1815 C1819 1.429 . S
C1816 C1799 1.574 . S
C1816 H1810 0.949 . S
C1816 C1820 1.368 1_554 S
C1817 C1798 1.429 . S
C1817 C1811 1.429 . S
C1817 C1818 1.523 . S
C1818 C1799 1.368 1_565 S
C1818 C1812 1.368 1_554 S
C1818 C1817 1.523 . S
C1819 C1803 1.429 . S
C1819 C1815 1.429 . S
C1819 C1820 1.523 . S
C1820 C1804 1.368 1_545 S
C1820 C1816 1.368 1_556 S
C1820 C1819 1.523 . S
H1821 C1796 0.950 . S
H1822 C1798 0.950 . S
H1823 C1799 0.949 . S
H1824 C1801 0.950 . S
H1825 C1803 0.950 . S
C1826 C1827 1.349 . S
C1826 C1828 1.327 . S
C1826 H1851 0.950 . S
C1827 C1826 1.349 . S
C1827 C1843 1.349 . S
C1828 C1826 1.327 . S
C1828 C1847 1.429 . S
C1828 H1852 0.950 . S
C1829 C1846 1.574 . S
C1829 C1848 1.368 . S
C1829 H1853 0.949 . S
H1830 C1834 0.949 . S
C1831 C1832 1.349 . S
C1831 C1833 1.327 . S
C1831 H1854 0.950 . S
C1832 C1831 1.349 . S
C1832 C1844 1.349 . S
C1833 C1831 1.327 . S
C1833 C1849 1.429 . S
C1833 H1855 0.950 . S
C1834 H1830 0.949 . S
C1834 C1842 1.574 . S
C1834 C1850 1.368 . S
H1835 C1843 0.950 . S
H1836 C1841 0.950 . S
H1837 C1842 0.949 . S
H1838 C1844 0.950 . S
H1839 C1845 0.950 . S
H1840 C1846 0.949 . S
C1841 H1836 0.950 . S
C1841 C1843 1.327 . S
C1841 C1847 1.429 . S
C1842 C1834 1.574 . S
C1842 H1837 0.949 . S
C1842 C1848 1.368 . S
C1843 C1827 1.349 . S
C1843 H1835 0.950 . S
C1843 C1841 1.327 . S
C1844 C1832 1.349 . S
C1844 H1838 0.950 . S
C1844 C1845 1.327 . S
C1845 H1839 0.950 . S
C1845 C1844 1.327 . S
C1845 C1849 1.429 . S
C1846 C1829 1.574 . S
C1846 H1840 0.949 . S
C1846 C1850 1.368 . S
C1847 C1828 1.429 . S
C1847 C1841 1.429 . S
C1847 C1848 1.523 . S
C1848 C1829 1.368 . S
C1848 C1842 1.368 . S
C1848 C1847 1.523 . S
C1849 C1833 1.429 . S
C1849 C1845 1.429 . S
C1849 C1850 1.523 . S
C1850 C1834 1.368 . S
C1850 C1846 1.368 . S
C1850 C1849 1.523 . S
H1851 C1826 0.950 . S
H1852 C1828 0.950 . S
H1853 C1829 0.949 . S
H1854 C1831 0.950 . S
H1855 C1833 0.950 . S
C1856 C1857 1.349 . S
C1856 C1858 1.327 . S
C1856 H1881 0.950 . S
C1857 C1856 1.349 . S
C1857 C1873 1.349 . S
C1858 C1856 1.327 . S
C1858 C1877 1.429 . S
C1858 H1882 0.950 . S
C1859 C1876 1.574 . S
C1859 C1878 1.368 . S
C1859 H1883 0.949 . S
H1860 C1864 0.949 . S
C1861 C1862 1.349 . S
C1861 C1863 1.327 . S
C1861 H1884 0.950 . S
C1862 C1861 1.349 . S
C1862 C1874 1.349 . S
C1863 C1861 1.327 . S
C1863 C1879 1.429 . S
C1863 H1885 0.950 . S
C1864 H1860 0.949 . S
C1864 C1872 1.574 . S
C1864 C1880 1.368 . S
H1865 C1873 0.950 . S
H1866 C1871 0.950 . S
H1867 C1872 0.949 . S
H1868 C1874 0.950 . S
H1869 C1875 0.950 . S
H1870 C1876 0.949 . S
C1871 H1866 0.950 . S
C1871 C1873 1.327 . S
C1871 C1877 1.429 . S
C1872 C1864 1.574 . S
C1872 H1867 0.949 . S
C1872 C1878 1.368 . S
C1873 C1857 1.349 . S
C1873 H1865 0.950 . S
C1873 C1871 1.327 . S
C1874 C1862 1.349 . S
C1874 H1868 0.950 . S
C1874 C1875 1.327 . S
C1875 H1869 0.950 . S
C1875 C1874 1.327 . S
C1875 C1879 1.429 . S
C1876 C1859 1.574 . S
C1876 H1870 0.949 . S
C1876 C1880 1.368 . S
C1877 C1858 1.429 . S
C1877 C1871 1.429 . S
C1877 C1878 1.523 . S
C1878 C1859 1.368 . S
C1878 C1872 1.368 . S
C1878 C1877 1.523 . S
C1879 C1863 1.429 . S
C1879 C1875 1.429 . S
C1879 C1880 1.523 . S
C1880 C1864 1.368 . S
C1880 C1876 1.368 . S
C1880 C1879 1.523 . S
H1881 C1856 0.950 . S
H1882 C1858 0.950 . S
H1883 C1859 0.949 . S
H1884 C1861 0.950 . S
H1885 C1863 0.950 . S
C1886 C1887 1.349 . S
C1886 C1888 1.327 . S
C1886 H1911 0.950 . S
C1887 C1886 1.349 . S
C1887 C1903 1.349 . S
C1888 C1886 1.327 . S
C1888 C1907 1.429 . S
C1888 H1912 0.950 . S
C1889 C1906 1.574 . S
C1889 C1908 1.368 . S
C1889 H1913 0.949 . S
H1890 C1894 0.949 . S
C1891 C1892 1.349 . S
C1891 C1893 1.327 . S
C1891 H1914 0.950 . S
C1892 C1891 1.349 . S
C1892 C1904 1.349 . S
C1893 C1891 1.327 . S
C1893 C1909 1.429 . S
C1893 H1915 0.950 . S
C1894 H1890 0.949 . S
C1894 C1902 1.574 . S
C1894 C1910 1.368 . S
H1895 C1903 0.950 . S
H1896 C1901 0.950 . S
H1897 C1902 0.949 . S
H1898 C1904 0.950 . S
H1899 C1905 0.950 . S
H1900 C1906 0.949 . S
C1901 H1896 0.950 . S
C1901 C1903 1.327 . S
C1901 C1907 1.429 . S
C1902 C1894 1.574 . S
C1902 H1897 0.949 . S
C1902 C1908 1.368 . S
C1903 C1887 1.349 . S
C1903 H1895 0.950 . S
C1903 C1901 1.327 . S
C1904 C1892 1.349 . S
C1904 H1898 0.950 . S
C1904 C1905 1.327 . S
C1905 H1899 0.950 . S
C1905 C1904 1.327 . S
C1905 C1909 1.429 . S
C1906 C1889 1.574 . S
C1906 H1900 0.949 . S
C1906 C1910 1.368 . S
C1907 C1888 1.429 . S
C1907 C1901 1.429 . S
C1907 C1908 1.523 . S
C1908 C1889 1.368 . S
C1908 C1902 1.368 . S
C1908 C1907 1.523 . S
C1909 C1893 1.429 . S
C1909 C1905 1.429 . S
C1909 C1910 1.523 . S
C1910 C1894 1.368 . S
C1910 C1906 1.368 . S
C1910 C1909 1.523 . S
H1911 C1886 0.950 . S
H1912 C1888 0.950 . S
H1913 C1889 0.949 . S
H1914 C1891 0.950 . S
H1915 C1893 0.950 . S
C1916 C1917 1.349 . S
C1916 C1918 1.327 . S
C1916 H1941 0.950 . S
C1917 C1916 1.349 . S
C1917 C1933 1.349 . S
C1918 C1916 1.327 . S
C1918 C1937 1.429 . S
C1918 H1942 0.950 . S
C1919 C1936 1.574 . S
C1919 C1938 1.368 . S
C1919 H1943 0.949 . S
H1920 C1924 0.949 . S
C1921 C1922 1.349 . S
C1921 C1923 1.327 . S
C1921 H1944 0.950 . S
C1922 C1921 1.349 . S
C1922 C1934 1.349 . S
C1923 C1921 1.327 . S
C1923 C1939 1.429 . S
C1923 H1945 0.950 . S
C1924 H1920 0.949 . S
C1924 C1932 1.574 . S
C1924 C1940 1.368 . S
H1925 C1933 0.950 . S
H1926 C1931 0.950 . S
H1927 C1932 0.949 . S
H1928 C1934 0.950 . S
H1929 C1935 0.950 . S
H1930 C1936 0.949 . S
C1931 H1926 0.950 . S
C1931 C1933 1.327 . S
C1931 C1937 1.429 . S
C1932 C1924 1.574 . S
C1932 H1927 0.949 . S
C1932 C1938 1.368 . S
C1933 C1917 1.349 . S
C1933 H1925 0.950 . S
C1933 C1931 1.327 . S
C1934 C1922 1.349 . S
C1934 H1928 0.950 . S
C1934 C1935 1.327 . S
C1935 H1929 0.950 . S
C1935 C1934 1.327 . S
C1935 C1939 1.429 . S
C1936 C1919 1.574 . S
C1936 H1930 0.949 . S
C1936 C1940 1.368 . S
C1937 C1918 1.429 . S
C1937 C1931 1.429 . S
C1937 C1938 1.523 . S
C1938 C1919 1.368 . S
C1938 C1932 1.368 . S
C1938 C1937 1.523 . S
C1939 C1923 1.429 . S
C1939 C1935 1.429 . S
C1939 C1940 1.523 . S
C1940 C1924 1.368 . S
C1940 C1936 1.368 . S
C1940 C1939 1.523 . S
H1941 C1916 0.950 . S
H1942 C1918 0.950 . S
H1943 C1919 0.949 . S
H1944 C1921 0.950 . S
H1945 C1923 0.950 . S
C1946 C1947 1.349 . S
C1946 C1948 1.327 . S
C1946 H1971 0.950 . S
C1947 C1946 1.349 . S
C1947 C1963 1.349 . S
C1948 C1946 1.327 . S
C1948 C1967 1.429 . S
C1948 H1972 0.950 . S
C1949 C1966 1.574 1_655 S
C1949 C1968 1.368 . S
C1949 H1973 0.949 . S
H1950 C1954 0.949 . S
C1951 C1952 1.349 . S
C1951 C1953 1.327 . S
C1951 H1974 0.950 . S
C1952 C1951 1.349 . S
C1952 C1964 1.349 . S
C1953 C1951 1.327 . S
C1953 C1969 1.429 . S
C1953 H1975 0.950 . S
C1954 H1950 0.949 . S
C1954 C1962 1.574 1_455 S
C1954 C1970 1.368 . S
H1955 C1963 0.950 . S
H1956 C1961 0.950 . S
H1957 C1962 0.949 . S
H1958 C1964 0.950 . S
H1959 C1965 0.950 . S
H1960 C1966 0.949 . S
C1961 H1956 0.950 . S
C1961 C1963 1.327 . S
C1961 C1967 1.429 . S
C1962 C1954 1.574 1_655 S
C1962 H1957 0.949 . S
C1962 C1968 1.368 . S
C1963 C1947 1.349 . S
C1963 H1955 0.950 . S
C1963 C1961 1.327 . S
C1964 C1952 1.349 . S
C1964 H1958 0.950 . S
C1964 C1965 1.327 . S
C1965 H1959 0.950 . S
C1965 C1964 1.327 . S
C1965 C1969 1.429 . S
C1966 C1949 1.574 1_455 S
C1966 H1960 0.949 . S
C1966 C1970 1.368 . S
C1967 C1948 1.429 . S
C1967 C1961 1.429 . S
C1967 C1968 1.523 . S
C1968 C1949 1.368 . S
C1968 C1962 1.368 . S
C1968 C1967 1.523 . S
C1969 C1953 1.429 . S
C1969 C1965 1.429 . S
C1969 C1970 1.523 . S
C1970 C1954 1.368 . S
C1970 C1966 1.368 . S
C1970 C1969 1.523 . S
H1971 C1946 0.950 . S
H1972 C1948 0.950 . S
H1973 C1949 0.949 . S
H1974 C1951 0.950 . S
H1975 C1953 0.950 . S
C1976 C1977 1.349 . S
C1976 C1978 1.327 . S
C1976 H2001 0.950 . S
C1977 C1976 1.349 . S
C1977 C1993 1.349 . S
C1978 C1976 1.327 . S
C1978 C1997 1.429 . S
C1978 H2002 0.950 . S
C1979 C1996 1.574 . S
C1979 C1998 1.368 . S
C1979 H2003 0.949 . S
H1980 C1984 0.949 . S
C1981 C1982 1.349 . S
C1981 C1983 1.327 . S
C1981 H2004 0.950 . S
C1982 C1981 1.349 . S
C1982 C1994 1.349 . S
C1983 C1981 1.327 . S
C1983 C1999 1.429 . S
C1983 H2005 0.950 . S
C1984 H1980 0.949 . S
C1984 C1992 1.574 . S
C1984 C2000 1.368 . S
H1985 C1993 0.950 . S
H1986 C1991 0.950 . S
H1987 C1992 0.949 . S
H1988 C1994 0.950 . S
H1989 C1995 0.950 . S
H1990 C1996 0.949 . S
C1991 H1986 0.950 . S
C1991 C1993 1.327 . S
C1991 C1997 1.429 . S
C1992 C1984 1.574 . S
C1992 H1987 0.949 . S
C1992 C1998 1.368 . S
C1993 C1977 1.349 . S
C1993 H1985 0.950 . S
C1993 C1991 1.327 . S
C1994 C1982 1.349 . S
C1994 H1988 0.950 . S
C1994 C1995 1.327 . S
C1995 H1989 0.950 . S
C1995 C1994 1.327 . S
C1995 C1999 1.429 . S
C1996 C1979 1.574 . S
C1996 H1990 0.949 . S
C1996 C2000 1.368 . S
C1997 C1978 1.429 . S
C1997 C1991 1.429 . S
C1997 C1998 1.523 . S
C1998 C1979 1.368 . S
C1998 C1992 1.368 . S
C1998 C1997 1.523 . S
C1999 C1983 1.429 . S
C1999 C1995 1.429 . S
C1999 C2000 1.523 . S
C2000 C1984 1.368 . S
C2000 C1996 1.368 . S
C2000 C1999 1.523 . S
H2001 C1976 0.950 . S
H2002 C1978 0.950 . S
H2003 C1979 0.949 . S
H2004 C1981 0.950 . S
H2005 C1983 0.950 . S
C2006 C2007 1.349 . S
C2006 C2008 1.327 . S
C2006 H2031 0.950 . S
C2007 C2006 1.349 . S
C2007 C2023 1.349 . S
C2008 C2006 1.327 . S
C2008 C2027 1.429 . S
C2008 H2032 0.950 . S
C2009 C2026 1.574 1_655 S
C2009 C2028 1.368 . S
C2009 H2033 0.949 . S
H2010 C2014 0.949 . S
C2011 C2012 1.349 . S
C2011 C2013 1.327 . S
C2011 H2034 0.950 . S
C2012 C2011 1.349 . S
C2012 C2024 1.349 . S
C2013 C2011 1.327 . S
C2013 C2029 1.429 . S
C2013 H2035 0.950 . S
C2014 H2010 0.949 . S
C2014 C2022 1.574 1_455 S
C2014 C2030 1.368 . S
H2015 C2023 0.950 . S
H2016 C2021 0.950 . S
H2017 C2022 0.949 . S
H2018 C2024 0.950 . S
H2019 C2025 0.950 . S
H2020 C2026 0.949 . S
C2021 H2016 0.950 . S
C2021 C2023 1.327 . S
C2021 C2027 1.429 . S
C2022 C2014 1.574 1_655 S
C2022 H2017 0.949 . S
C2022 C2028 1.368 . S
C2023 C2007 1.349 . S
C2023 H2015 0.950 . S
C2023 C2021 1.327 . S
C2024 C2012 1.349 . S
C2024 H2018 0.950 . S
C2024 C2025 1.327 . S
C2025 H2019 0.950 . S
C2025 C2024 1.327 . S
C2025 C2029 1.429 . S
C2026 C2009 1.574 1_455 S
C2026 H2020 0.949 . S
C2026 C2030 1.368 . S
C2027 C2008 1.429 . S
C2027 C2021 1.429 . S
C2027 C2028 1.523 . S
C2028 C2009 1.368 . S
C2028 C2022 1.368 . S
C2028 C2027 1.523 . S
C2029 C2013 1.429 . S
C2029 C2025 1.429 . S
C2029 C2030 1.523 . S
C2030 C2014 1.368 . S
C2030 C2026 1.368 . S
C2030 C2029 1.523 . S
H2031 C2006 0.950 . S
H2032 C2008 0.950 . S
H2033 C2009 0.949 . S
H2034 C2011 0.950 . S
H2035 C2013 0.950 . S
C2036 C2037 1.349 . S
C2036 C2038 1.327 . S
C2036 H2061 0.950 . S
C2037 C2036 1.349 . S
C2037 C2053 1.349 . S
C2038 C2036 1.327 . S
C2038 C2057 1.429 . S
C2038 H2062 0.950 . S
C2039 C2056 1.574 . S
C2039 C2058 1.368 . S
C2039 H2063 0.949 . S
H2040 C2044 0.949 . S
C2041 C2042 1.349 . S
C2041 C2043 1.327 . S
C2041 H2064 0.950 . S
C2042 C2041 1.349 . S
C2042 C2054 1.349 . S
C2043 C2041 1.327 . S
C2043 C2059 1.429 . S
C2043 H2065 0.950 . S
C2044 H2040 0.949 . S
C2044 C2052 1.574 . S
C2044 C2060 1.368 . S
H2045 C2053 0.950 . S
H2046 C2051 0.950 . S
H2047 C2052 0.949 . S
H2048 C2054 0.950 . S
H2049 C2055 0.950 . S
H2050 C2056 0.949 . S
C2051 H2046 0.950 . S
C2051 C2053 1.327 . S
C2051 C2057 1.429 . S
C2052 C2044 1.574 . S
C2052 H2047 0.949 . S
C2052 C2058 1.368 . S
C2053 C2037 1.349 . S
C2053 H2045 0.950 . S
C2053 C2051 1.327 . S
C2054 C2042 1.349 . S
C2054 H2048 0.950 . S
C2054 C2055 1.327 . S
C2055 H2049 0.950 . S
C2055 C2054 1.327 . S
C2055 C2059 1.429 . S
C2056 C2039 1.574 . S
C2056 H2050 0.949 . S
C2056 C2060 1.368 . S
C2057 C2038 1.429 . S
C2057 C2051 1.429 . S
C2057 C2058 1.523 . S
C2058 C2039 1.368 . S
C2058 C2052 1.368 . S
C2058 C2057 1.523 . S
C2059 C2043 1.429 . S
C2059 C2055 1.429 . S
C2059 C2060 1.523 . S
C2060 C2044 1.368 . S
C2060 C2056 1.368 . S
C2060 C2059 1.523 . S
H2061 C2036 0.950 . S
H2062 C2038 0.950 . S
H2063 C2039 0.949 . S
H2064 C2041 0.950 . S
H2065 C2043 0.950 . S
C2066 C2067 1.349 . S
C2066 C2068 1.327 . S
C2066 H2091 0.950 . S
C2067 C2066 1.349 . S
C2067 C2083 1.349 . S
C2068 C2066 1.327 . S
C2068 C2087 1.429 . S
C2068 H2092 0.950 . S
C2069 C2086 1.574 . S
C2069 C2088 1.368 . S
C2069 H2093 0.949 . S
H2070 C2074 0.949 . S
C2071 C2072 1.349 . S
C2071 C2073 1.327 . S
C2071 H2094 0.950 . S
C2072 C2071 1.349 . S
C2072 C2084 1.349 . S
C2073 C2071 1.327 . S
C2073 C2089 1.429 . S
C2073 H2095 0.950 . S
C2074 H2070 0.949 . S
C2074 C2082 1.574 . S
C2074 C2090 1.368 . S
H2075 C2083 0.950 . S
H2076 C2081 0.950 . S
H2077 C2082 0.949 . S
H2078 C2084 0.950 . S
H2079 C2085 0.950 . S
H2080 C2086 0.949 . S
C2081 H2076 0.950 . S
C2081 C2083 1.327 . S
C2081 C2087 1.429 . S
C2082 C2074 1.574 . S
C2082 H2077 0.949 . S
C2082 C2088 1.368 . S
C2083 C2067 1.349 . S
C2083 H2075 0.950 . S
C2083 C2081 1.327 . S
C2084 C2072 1.349 . S
C2084 H2078 0.950 . S
C2084 C2085 1.327 . S
C2085 H2079 0.950 . S
C2085 C2084 1.327 . S
C2085 C2089 1.429 . S
C2086 C2069 1.574 . S
C2086 H2080 0.949 . S
C2086 C2090 1.368 . S
C2087 C2068 1.429 . S
C2087 C2081 1.429 . S
C2087 C2088 1.523 . S
C2088 C2069 1.368 . S
C2088 C2082 1.368 . S
C2088 C2087 1.523 . S
C2089 C2073 1.429 . S
C2089 C2085 1.429 . S
C2089 C2090 1.523 . S
C2090 C2074 1.368 . S
C2090 C2086 1.368 . S
C2090 C2089 1.523 . S
H2091 C2066 0.950 . S
H2092 C2068 0.950 . S
H2093 C2069 0.949 . S
H2094 C2071 0.950 . S
H2095 C2073 0.950 . S
C2096 C2097 1.349 . S
C2096 C2098 1.327 . S
C2096 H2121 0.950 . S
C2097 C2096 1.349 . S
C2097 C2113 1.349 . S
C2098 C2096 1.327 . S
C2098 C2117 1.429 . S
C2098 H2122 0.950 . S
C2099 C2116 1.574 . S
C2099 C2118 1.368 . S
C2099 H2123 0.949 . S
H2100 C2104 0.949 . S
C2101 C2102 1.349 . S
C2101 C2103 1.327 . S
C2101 H2124 0.950 . S
C2102 C2101 1.349 . S
C2102 C2114 1.349 . S
C2103 C2101 1.327 . S
C2103 C2119 1.429 . S
C2103 H2125 0.950 . S
C2104 H2100 0.949 . S
C2104 C2112 1.574 . S
C2104 C2120 1.368 . S
H2105 C2113 0.950 . S
H2106 C2111 0.950 . S
H2107 C2112 0.949 . S
H2108 C2114 0.950 . S
H2109 C2115 0.950 . S
H2110 C2116 0.949 . S
C2111 H2106 0.950 . S
C2111 C2113 1.327 . S
C2111 C2117 1.429 . S
C2112 C2104 1.574 . S
C2112 H2107 0.949 . S
C2112 C2118 1.368 . S
C2113 C2097 1.349 . S
C2113 H2105 0.950 . S
C2113 C2111 1.327 . S
C2114 C2102 1.349 . S
C2114 H2108 0.950 . S
C2114 C2115 1.327 . S
C2115 H2109 0.950 . S
C2115 C2114 1.327 . S
C2115 C2119 1.429 . S
C2116 C2099 1.574 . S
C2116 H2110 0.949 . S
C2116 C2120 1.368 . S
C2117 C2098 1.429 . S
C2117 C2111 1.429 . S
C2117 C2118 1.523 . S
C2118 C2099 1.368 . S
C2118 C2112 1.368 . S
C2118 C2117 1.523 . S
C2119 C2103 1.429 . S
C2119 C2115 1.429 . S
C2119 C2120 1.523 . S
C2120 C2104 1.368 . S
C2120 C2116 1.368 . S
C2120 C2119 1.523 . S
H2121 C2096 0.950 . S
H2122 C2098 0.950 . S
H2123 C2099 0.949 . S
H2124 C2101 0.950 . S
H2125 C2103 0.950 . S
C2126 C2127 1.349 . S
C2126 C2128 1.327 . S
C2126 H2151 0.950 . S
C2127 C2126 1.349 . S
C2127 C2143 1.349 . S
C2128 C2126 1.327 . S
C2128 C2147 1.429 . S
C2128 H2152 0.950 . S
C2129 C2146 1.574 . S
C2129 C2148 1.368 . S
C2129 H2153 0.949 . S
H2130 C2134 0.949 . S
C2131 C2132 1.349 . S
C2131 C2133 1.327 . S
C2131 H2154 0.950 . S
C2132 C2131 1.349 . S
C2132 C2144 1.349 . S
C2133 C2131 1.327 . S
C2133 C2149 1.429 . S
C2133 H2155 0.950 . S
C2134 H2130 0.949 . S
C2134 C2142 1.574 . S
C2134 C2150 1.368 . S
H2135 C2143 0.950 . S
H2136 C2141 0.950 . S
H2137 C2142 0.949 . S
H2138 C2144 0.950 . S
H2139 C2145 0.950 . S
H2140 C2146 0.949 . S
C2141 H2136 0.950 . S
C2141 C2143 1.327 . S
C2141 C2147 1.429 . S
C2142 C2134 1.574 . S
C2142 H2137 0.949 . S
C2142 C2148 1.368 . S
C2143 C2127 1.349 . S
C2143 H2135 0.950 . S
C2143 C2141 1.327 . S
C2144 C2132 1.349 . S
C2144 H2138 0.950 . S
C2144 C2145 1.327 . S
C2145 H2139 0.950 . S
C2145 C2144 1.327 . S
C2145 C2149 1.429 . S
C2146 C2129 1.574 . S
C2146 H2140 0.949 . S
C2146 C2150 1.368 . S
C2147 C2128 1.429 . S
C2147 C2141 1.429 . S
C2147 C2148 1.523 . S
C2148 C2129 1.368 . S
C2148 C2142 1.368 . S
C2148 C2147 1.523 . S
C2149 C2133 1.429 . S
C2149 C2145 1.429 . S
C2149 C2150 1.523 . S
C2150 C2134 1.368 . S
C2150 C2146 1.368 . S
C2150 C2149 1.523 . S
H2151 C2126 0.950 . S
H2152 C2128 0.950 . S
H2153 C2129 0.949 . S
H2154 C2131 0.950 . S
H2155 C2133 0.950 . S
C2156 C2157 1.349 . S
C2156 C2158 1.327 . S
C2156 H2181 0.950 . S
C2157 C2156 1.349 . S
C2157 C2173 1.349 . S
C2158 C2156 1.327 . S
C2158 C2177 1.429 . S
C2158 H2182 0.950 . S
C2159 C2176 1.574 . S
C2159 C2178 1.368 . S
C2159 H2183 0.949 . S
H2160 C2164 0.949 . S
C2161 C2162 1.349 . S
C2161 C2163 1.327 . S
C2161 H2184 0.950 . S
C2162 C2161 1.349 . S
C2162 C2174 1.349 . S
C2163 C2161 1.327 . S
C2163 C2179 1.429 . S
C2163 H2185 0.950 . S
C2164 H2160 0.949 . S
C2164 C2172 1.574 . S
C2164 C2180 1.368 . S
H2165 C2173 0.950 . S
H2166 C2171 0.950 . S
H2167 C2172 0.949 . S
H2168 C2174 0.950 . S
H2169 C2175 0.950 . S
H2170 C2176 0.949 . S
C2171 H2166 0.950 . S
C2171 C2173 1.327 . S
C2171 C2177 1.429 . S
C2172 C2164 1.574 . S
C2172 H2167 0.949 . S
C2172 C2178 1.368 . S
C2173 C2157 1.349 . S
C2173 H2165 0.950 . S
C2173 C2171 1.327 . S
C2174 C2162 1.349 . S
C2174 H2168 0.950 . S
C2174 C2175 1.327 . S
C2175 H2169 0.950 . S
C2175 C2174 1.327 . S
C2175 C2179 1.429 . S
C2176 C2159 1.574 . S
C2176 H2170 0.949 . S
C2176 C2180 1.368 . S
C2177 C2158 1.429 . S
C2177 C2171 1.429 . S
C2177 C2178 1.523 . S
C2178 C2159 1.368 . S
C2178 C2172 1.368 . S
C2178 C2177 1.523 . S
C2179 C2163 1.429 . S
C2179 C2175 1.429 . S
C2179 C2180 1.523 . S
C2180 C2164 1.368 . S
C2180 C2176 1.368 . S
C2180 C2179 1.523 . S
H2181 C2156 0.950 . S
H2182 C2158 0.950 . S
H2183 C2159 0.949 . S
H2184 C2161 0.950 . S
H2185 C2163 0.950 . S
C2186 C2187 1.349 . S
C2186 C2188 1.327 . S
C2186 H2211 0.950 . S
C2187 C2186 1.349 . S
C2187 C2203 1.349 . S
C2188 C2186 1.327 . S
C2188 C2207 1.429 . S
C2188 H2212 0.950 . S
C2189 C2206 1.574 . S
C2189 C2208 1.368 . S
C2189 H2213 0.949 . S
H2190 C2194 0.949 . S
C2191 C2192 1.349 . S
C2191 C2193 1.327 . S
C2191 H2214 0.950 . S
C2192 C2191 1.349 . S
C2192 C2204 1.349 . S
C2193 C2191 1.327 . S
C2193 C2209 1.429 . S
C2193 H2215 0.950 . S
C2194 H2190 0.949 . S
C2194 C2202 1.574 . S
C2194 C2210 1.368 . S
H2195 C2203 0.950 . S
H2196 C2201 0.950 . S
H2197 C2202 0.949 . S
H2198 C2204 0.950 . S
H2199 C2205 0.950 . S
H2200 C2206 0.949 . S
C2201 H2196 0.950 . S
C2201 C2203 1.327 . S
C2201 C2207 1.429 . S
C2202 C2194 1.574 . S
C2202 H2197 0.949 . S
C2202 C2208 1.368 . S
C2203 C2187 1.349 . S
C2203 H2195 0.950 . S
C2203 C2201 1.327 . S
C2204 C2192 1.349 . S
C2204 H2198 0.950 . S
C2204 C2205 1.327 . S
C2205 H2199 0.950 . S
C2205 C2204 1.327 . S
C2205 C2209 1.429 . S
C2206 C2189 1.574 . S
C2206 H2200 0.949 . S
C2206 C2210 1.368 . S
C2207 C2188 1.429 . S
C2207 C2201 1.429 . S
C2207 C2208 1.523 . S
C2208 C2189 1.368 . S
C2208 C2202 1.368 . S
C2208 C2207 1.523 . S
C2209 C2193 1.429 . S
C2209 C2205 1.429 . S
C2209 C2210 1.523 . S
C2210 C2194 1.368 . S
C2210 C2206 1.368 . S
C2210 C2209 1.523 . S
H2211 C2186 0.950 . S
H2212 C2188 0.950 . S
H2213 C2189 0.949 . S
H2214 C2191 0.950 . S
H2215 C2193 0.950 . S
C2216 C2217 1.349 . S
C2216 C2218 1.327 . S
C2216 H2241 0.950 . S
C2217 C2216 1.349 . S
C2217 C2233 1.349 . S
C2218 C2216 1.327 . S
C2218 C2237 1.429 . S
C2218 H2242 0.950 . S
C2219 C2236 1.574 1_655 S
C2219 C2238 1.368 . S
C2219 H2243 0.949 . S
H2220 C2224 0.949 . S
C2221 C2222 1.349 . S
C2221 C2223 1.327 . S
C2221 H2244 0.950 . S
C2222 C2221 1.349 . S
C2222 C2234 1.349 . S
C2223 C2221 1.327 . S
C2223 C2239 1.429 . S
C2223 H2245 0.950 . S
C2224 H2220 0.949 . S
C2224 C2232 1.574 1_455 S
C2224 C2240 1.368 . S
H2225 C2233 0.950 . S
H2226 C2231 0.950 . S
H2227 C2232 0.949 . S
H2228 C2234 0.950 . S
H2229 C2235 0.950 . S
H2230 C2236 0.949 . S
C2231 H2226 0.950 . S
C2231 C2233 1.327 . S
C2231 C2237 1.429 . S
C2232 C2224 1.574 1_655 S
C2232 H2227 0.949 . S
C2232 C2238 1.368 . S
C2233 C2217 1.349 . S
C2233 H2225 0.950 . S
C2233 C2231 1.327 . S
C2234 C2222 1.349 . S
C2234 H2228 0.950 . S
C2234 C2235 1.327 . S
C2235 H2229 0.950 . S
C2235 C2234 1.327 . S
C2235 C2239 1.429 . S
C2236 C2219 1.574 1_455 S
C2236 H2230 0.949 . S
C2236 C2240 1.368 . S
C2237 C2218 1.429 . S
C2237 C2231 1.429 . S
C2237 C2238 1.523 . S
C2238 C2219 1.368 . S
C2238 C2232 1.368 . S
C2238 C2237 1.523 . S
C2239 C2223 1.429 . S
C2239 C2235 1.429 . S
C2239 C2240 1.523 . S
C2240 C2224 1.368 . S
C2240 C2236 1.368 . S
C2240 C2239 1.523 . S
H2241 C2216 0.950 . S
H2242 C2218 0.950 . S
H2243 C2219 0.949 . S
H2244 C2221 0.950 . S
H2245 C2223 0.950 . S
C2246 C2247 1.349 . S
C2246 C2248 1.327 . S
C2246 H2271 0.950 . S
C2247 C2246 1.349 . S
C2247 C2263 1.349 . S
C2248 C2246 1.327 . S
C2248 C2267 1.429 . S
C2248 H2272 0.950 . S
C2249 C2266 1.574 . S
C2249 C2268 1.368 . S
C2249 H2273 0.949 . S
H2250 C2254 0.949 . S
C2251 C2252 1.349 . S
C2251 C2253 1.327 . S
C2251 H2274 0.950 . S
C2252 C2251 1.349 . S
C2252 C2264 1.349 . S
C2253 C2251 1.327 . S
C2253 C2269 1.429 . S
C2253 H2275 0.950 . S
C2254 H2250 0.949 . S
C2254 C2262 1.574 . S
C2254 C2270 1.368 . S
H2255 C2263 0.950 . S
H2256 C2261 0.950 . S
H2257 C2262 0.949 . S
H2258 C2264 0.950 . S
H2259 C2265 0.950 . S
H2260 C2266 0.949 . S
C2261 H2256 0.950 . S
C2261 C2263 1.327 . S
C2261 C2267 1.429 . S
C2262 C2254 1.574 . S
C2262 H2257 0.949 . S
C2262 C2268 1.368 . S
C2263 C2247 1.349 . S
C2263 H2255 0.950 . S
C2263 C2261 1.327 . S
C2264 C2252 1.349 . S
C2264 H2258 0.950 . S
C2264 C2265 1.327 . S
C2265 H2259 0.950 . S
C2265 C2264 1.327 . S
C2265 C2269 1.429 . S
C2266 C2249 1.574 . S
C2266 H2260 0.949 . S
C2266 C2270 1.368 . S
C2267 C2248 1.429 . S
C2267 C2261 1.429 . S
C2267 C2268 1.523 . S
C2268 C2249 1.368 . S
C2268 C2262 1.368 . S
C2268 C2267 1.523 . S
C2269 C2253 1.429 . S
C2269 C2265 1.429 . S
C2269 C2270 1.523 . S
C2270 C2254 1.368 . S
C2270 C2266 1.368 . S
C2270 C2269 1.523 . S
H2271 C2246 0.950 . S
H2272 C2248 0.950 . S
H2273 C2249 0.949 . S
H2274 C2251 0.950 . S
H2275 C2253 0.950 . S
C2276 C2277 1.349 . S
C2276 C2278 1.327 . S
C2276 H2301 0.950 . S
C2277 C2276 1.349 . S
C2277 C2293 1.349 . S
C2278 C2276 1.327 . S
C2278 C2297 1.429 . S
C2278 H2302 0.950 . S
C2279 C2296 1.574 . S
C2279 C2298 1.368 . S
C2279 H2303 0.949 . S
H2280 C2284 0.949 . S
C2281 C2282 1.349 . S
C2281 C2283 1.327 . S
C2281 H2304 0.950 . S
C2282 C2281 1.349 . S
C2282 C2294 1.349 . S
C2283 C2281 1.327 . S
C2283 C2299 1.429 . S
C2283 H2305 0.950 . S
C2284 H2280 0.949 . S
C2284 C2292 1.574 . S
C2284 C2300 1.368 . S
H2285 C2293 0.950 . S
H2286 C2291 0.950 . S
H2287 C2292 0.949 . S
H2288 C2294 0.950 . S
H2289 C2295 0.950 . S
H2290 C2296 0.949 . S
C2291 H2286 0.950 . S
C2291 C2293 1.327 . S
C2291 C2297 1.429 . S
C2292 C2284 1.574 . S
C2292 H2287 0.949 . S
C2292 C2298 1.368 . S
C2293 C2277 1.349 . S
C2293 H2285 0.950 . S
C2293 C2291 1.327 . S
C2294 C2282 1.349 . S
C2294 H2288 0.950 . S
C2294 C2295 1.327 . S
C2295 H2289 0.950 . S
C2295 C2294 1.327 . S
C2295 C2299 1.429 . S
C2296 C2279 1.574 . S
C2296 H2290 0.949 . S
C2296 C2300 1.368 . S
C2297 C2278 1.429 . S
C2297 C2291 1.429 . S
C2297 C2298 1.523 . S
C2298 C2279 1.368 . S
C2298 C2292 1.368 . S
C2298 C2297 1.523 . S
C2299 C2283 1.429 . S
C2299 C2295 1.429 . S
C2299 C2300 1.523 . S
C2300 C2284 1.368 . S
C2300 C2296 1.368 . S
C2300 C2299 1.523 . S
H2301 C2276 0.950 . S
H2302 C2278 0.950 . S
H2303 C2279 0.949 . S
H2304 C2281 0.950 . S
H2305 C2283 0.950 . S
C2306 C2307 1.349 . S
C2306 C2308 1.327 . S
C2306 H2331 0.950 . S
C2307 C2306 1.349 . S
C2307 C2323 1.349 . S
C2308 C2306 1.327 . S
C2308 C2327 1.429 . S
C2308 H2332 0.950 . S
C2309 C2326 1.574 1_655 S
C2309 C2328 1.368 . S
C2309 H2333 0.949 . S
H2310 C2314 0.949 . S
C2311 C2312 1.349 . S
C2311 C2313 1.327 . S
C2311 H2334 0.950 . S
C2312 C2311 1.349 . S
C2312 C2324 1.349 . S
C2313 C2311 1.327 . S
C2313 C2329 1.429 . S
C2313 H2335 0.950 . S
C2314 H2310 0.949 . S
C2314 C2322 1.574 1_455 S
C2314 C2330 1.368 . S
H2315 C2323 0.950 . S
H2316 C2321 0.950 . S
H2317 C2322 0.949 . S
H2318 C2324 0.950 . S
H2319 C2325 0.950 . S
H2320 C2326 0.949 . S
C2321 H2316 0.950 . S
C2321 C2323 1.327 . S
C2321 C2327 1.429 . S
C2322 C2314 1.574 1_655 S
C2322 H2317 0.949 . S
C2322 C2328 1.368 . S
C2323 C2307 1.349 . S
C2323 H2315 0.950 . S
C2323 C2321 1.327 . S
C2324 C2312 1.349 . S
C2324 H2318 0.950 . S
C2324 C2325 1.327 . S
C2325 H2319 0.950 . S
C2325 C2324 1.327 . S
C2325 C2329 1.429 . S
C2326 C2309 1.574 1_455 S
C2326 H2320 0.949 . S
C2326 C2330 1.368 . S
C2327 C2308 1.429 . S
C2327 C2321 1.429 . S
C2327 C2328 1.523 . S
C2328 C2309 1.368 . S
C2328 C2322 1.368 . S
C2328 C2327 1.523 . S
C2329 C2313 1.429 . S
C2329 C2325 1.429 . S
C2329 C2330 1.523 . S
C2330 C2314 1.368 . S
C2330 C2326 1.368 . S
C2330 C2329 1.523 . S
H2331 C2306 0.950 . S
H2332 C2308 0.950 . S
H2333 C2309 0.949 . S
H2334 C2311 0.950 . S
H2335 C2313 0.950 . S
C417 C309 1.355 . S
C422 C10 1.355 . S
C447 C270 1.356 . S
C452 C23 1.356 . S
C477 C283 1.356 . S
C482 C36 1.356 . S
C507 C296 1.355 . S
C512 C49 1.355 . S
C537 C62 1.355 . S
C542 C231 1.355 . S
C567 C244 1.355 . S
C572 C75 1.355 . S
C597 C88 1.356 . S
C602 C257 1.356 . S
C627 C101 1.356 . S
C632 C218 1.356 . S
C657 C413 1.355 . S
C662 C114 1.355 . S
C687 C127 1.356 . S
C692 C374 1.356 . S
C717 C140 1.356 . S
C722 C387 1.356 . S
C747 C153 1.356 . S
C752 C400 1.355 . S
C777 C166 1.355 . S
C782 C335 1.355 . S
C807 C179 1.355 . S
C812 C348 1.355 . S
C837 C192 1.355 . S
C842 C361 1.355 . S
C867 C205 1.356 . S
C872 C322 1.356 . S
C897 C8 1.472 . S
C902 C164 1.472 . S
C927 C385 1.472 . S
C932 C21 1.472 . S
C957 C34 1.472 . S
C962 C190 1.472 . S
C987 C411 1.472 . S
C992 C47 1.472 . S
C1017 C112 1.472 . S
C1022 C60 1.472 . S
C1047 C73 1.472 . S
C1052 C333 1.472 . S
C1077 C86 1.472 . S
C1082 C138 1.472 . S
C1107 C99 1.472 . S
C1112 C359 1.472 . S
C1137 C281 1.472 . S
C1142 C125 1.472 . S
C1167 C307 1.472 . S
C1172 C151 1.472 . S
C1197 C177 1.472 . S
C1202 C229 1.472 . S
C1227 C255 1.472 . S
C1232 C203 1.472 . S
C1257 C372 1.472 . S
C1262 C216 1.472 . S
C1287 C242 1.472 . S
C1292 C398 1.472 . S
C1317 C320 1.472 . S
C1322 C268 1.472 . S
C1347 C346 1.472 . S
C1352 C294 1.472 . S
C1377 C52 0.980 . S
C1382 C0 0.980 . S
C1407 C65 0.980 . S
C1412 C13 0.980 . S
C1437 C26 0.980 . S
C1442 C78 0.980 . S
C1467 C39 0.980 . S
C1472 C91 0.980 . S
C1497 C156 0.979 . S
C1502 C104 0.979 . S
C1527 C169 0.980 . S
C1532 C117 0.980 . S
C1557 C182 0.980 . S
C1562 C130 0.980 . S
C1587 C143 0.980 . S
C1592 C195 0.980 . S
C1617 C208 0.980 . S
C1622 C260 0.980 . S
C1647 C221 0.980 . S
C1652 C273 0.980 . S
C1677 C234 0.979 . S
C1682 C286 0.979 . S
C1707 C247 0.980 . S
C1712 C299 0.980 . S
C1737 C364 0.980 . S
C1742 C312 0.980 . S
C1767 C377 0.980 . S
C1772 C325 0.980 . S
C1797 C390 0.979 . S
C1802 C338 0.979 . S
C1827 C403 0.980 . S
C1832 C351 0.980 . S
C1857 C395 1.189 . S
C1862 C5 1.189 . S
C1887 C18 1.189 . S
C1892 C200 1.189 . S
C1917 C369 1.189 . S
C1922 C31 1.189 . S
C1947 C44 1.189 . S
C1952 C174 1.189 . S
C1977 C343 1.189 . S
C1982 C57 1.189 . S
C2007 C70 1.189 . S
C2012 C148 1.189 . S
C2037 C83 1.189 . S
C2042 C317 1.189 . S
C2067 C122 1.189 . S
C2072 C96 1.189 . S
C2097 C109 1.189 . S
C2102 C291 1.189 . S
C2127 C265 1.189 . S
C2132 C135 1.189 . S
C2157 C161 1.189 . S
C2162 C239 1.189 . S
C2187 C187 1.189 . S
C2192 C213 1.189 . S
C2217 C408 1.189 . S
C2222 C226 1.189 . S
C2247 C252 1.189 . S
C2252 C382 1.189 . S
C2277 C278 1.189 . S
C2282 C356 1.189 . S
C2307 C330 1.189 . S
C2312 C304 1.189 . S
