# Generated by pormake.
# Topology wmt, (6)-cn, num edge types: 1
# Building blocks:
#     Node 0, Type 0, BuildingBlock: GEDQOX_clean_sbu_0, # of connection points: 6
#     Node 1, Type 0, BuildingBlock: GEDQOX_clean_sbu_0, # of connection points: 6
#     Node 2, Type 0, BuildingBlock: GEDQOX_clean_sbu_0, # of connection points: 6
#     Node 3, Type 0, BuildingBlock: GEDQOX_clean_sbu_0, # of connection points: 6
#     Node 4, Type 0, BuildingBlock: GEDQOX_clean_sbu_0, # of connection points: 6
#     Node 5, Type 0, BuildingBlock: GEDQOX_clean_sbu_0, # of connection points: 6
#     Node 6, Type 0, BuildingBlock: GEDQOX_clean_sbu_0, # of connection points: 6
#     Node 7, Type 0, BuildingBlock: GEDQOX_clean_sbu_0, # of connection points: 6
#     Node 8, Type 0, BuildingBlock: GEDQOX_clean_sbu_0, # of connection points: 6
#     Node 9, Type 0, BuildingBlock: GEDQOX_clean_sbu_0, # of connection points: 6
#     Node 10, Type 0, BuildingBlock: GEDQOX_clean_sbu_0, # of connection points: 6
#     Node 11, Type 0, BuildingBlock: GEDQOX_clean_sbu_0, # of connection points: 6
#     Node 12, Type 0, BuildingBlock: GEDQOX_clean_sbu_0, # of connection points: 6
#     Node 13, Type 0, BuildingBlock: GEDQOX_clean_sbu_0, # of connection points: 6
#     Node 14, Type 0, BuildingBlock: GEDQOX_clean_sbu_0, # of connection points: 6
#     Node 15, Type 0, BuildingBlock: GEDQOX_clean_sbu_0, # of connection points: 6
#     Node 16, Type 0, BuildingBlock: GEDQOX_clean_sbu_0, # of connection points: 6
#     Node 17, Type 0, BuildingBlock: GEDQOX_clean_sbu_0, # of connection points: 6
#     Node 18, Type 0, BuildingBlock: GEDQOX_clean_sbu_0, # of connection points: 6
#     Node 19, Type 0, BuildingBlock: GEDQOX_clean_sbu_0, # of connection points: 6
#     Node 20, Type 0, BuildingBlock: GEDQOX_clean_sbu_0, # of connection points: 6
#     Node 21, Type 0, BuildingBlock: GEDQOX_clean_sbu_0, # of connection points: 6
#     Node 22, Type 0, BuildingBlock: GEDQOX_clean_sbu_0, # of connection points: 6
#     Node 23, Type 0, BuildingBlock: GEDQOX_clean_sbu_0, # of connection points: 6
#     Node 24, Type 0, BuildingBlock: GEDQOX_clean_sbu_0, # of connection points: 6
#     Node 25, Type 0, BuildingBlock: GEDQOX_clean_sbu_0, # of connection points: 6
#     Node 26, Type 0, BuildingBlock: GEDQOX_clean_sbu_0, # of connection points: 6
#     Node 27, Type 0, BuildingBlock: GEDQOX_clean_sbu_0, # of connection points: 6
#     Node 28, Type 0, BuildingBlock: GEDQOX_clean_sbu_0, # of connection points: 6
#     Node 29, Type 0, BuildingBlock: GEDQOX_clean_sbu_0, # of connection points: 6
#     Node 30, Type 0, BuildingBlock: GEDQOX_clean_sbu_0, # of connection points: 6
#     Node 31, Type 0, BuildingBlock: GEDQOX_clean_sbu_0, # of connection points: 6
#     Node 32, Type 0, BuildingBlock: GEDQOX_clean_sbu_0, # of connection points: 6
#     Node 33, Type 0, BuildingBlock: GEDQOX_clean_sbu_0, # of connection points: 6
#     Node 34, Type 0, BuildingBlock: GEDQOX_clean_sbu_0, # of connection points: 6
#     Node 35, Type 0, BuildingBlock: GEDQOX_clean_sbu_0, # of connection points: 6
#     Edge 36, Type (0, 0), BuildingBlock: XUDNAN_clean_linker_2, # of connection points: 2
#     Edge 37, Type (0, 0), BuildingBlock: XUDNAN_clean_linker_2, # of connection points: 2
#     Edge 38, Type (0, 0), BuildingBlock: XUDNAN_clean_linker_2, # of connection points: 2
#     Edge 39, Type (0, 0), BuildingBlock: XUDNAN_clean_linker_2, # of connection points: 2
#     Edge 40, Type (0, 0), BuildingBlock: XUDNAN_clean_linker_2, # of connection points: 2
#     Edge 41, Type (0, 0), BuildingBlock: XUDNAN_clean_linker_2, # of connection points: 2
#     Edge 42, Type (0, 0), BuildingBlock: XUDNAN_clean_linker_2, # of connection points: 2
#     Edge 43, Type (0, 0), BuildingBlock: XUDNAN_clean_linker_2, # of connection points: 2
#     Edge 44, Type (0, 0), BuildingBlock: XUDNAN_clean_linker_2, # of connection points: 2
#     Edge 45, Type (0, 0), BuildingBlock: XUDNAN_clean_linker_2, # of connection points: 2
#     Edge 46, Type (0, 0), BuildingBlock: XUDNAN_clean_linker_2, # of connection points: 2
#     Edge 47, Type (0, 0), BuildingBlock: XUDNAN_clean_linker_2, # of connection points: 2
#     Edge 48, Type (0, 0), BuildingBlock: XUDNAN_clean_linker_2, # of connection points: 2
#     Edge 49, Type (0, 0), BuildingBlock: XUDNAN_clean_linker_2, # of connection points: 2
#     Edge 50, Type (0, 0), BuildingBlock: XUDNAN_clean_linker_2, # of connection points: 2
#     Edge 51, Type (0, 0), BuildingBlock: XUDNAN_clean_linker_2, # of connection points: 2
#     Edge 52, Type (0, 0), BuildingBlock: XUDNAN_clean_linker_2, # of connection points: 2
#     Edge 53, Type (0, 0), BuildingBlock: XUDNAN_clean_linker_2, # of connection points: 2
#     Edge 54, Type (0, 0), BuildingBlock: XUDNAN_clean_linker_2, # of connection points: 2
#     Edge 55, Type (0, 0), BuildingBlock: XUDNAN_clean_linker_2, # of connection points: 2
#     Edge 56, Type (0, 0), BuildingBlock: XUDNAN_clean_linker_2, # of connection points: 2
#     Edge 57, Type (0, 0), BuildingBlock: XUDNAN_clean_linker_2, # of connection points: 2
#     Edge 58, Type (0, 0), BuildingBlock: XUDNAN_clean_linker_2, # of connection points: 2
#     Edge 59, Type (0, 0), BuildingBlock: XUDNAN_clean_linker_2, # of connection points: 2
#     Edge 60, Type (0, 0), BuildingBlock: XUDNAN_clean_linker_2, # of connection points: 2
#     Edge 61, Type (0, 0), BuildingBlock: XUDNAN_clean_linker_2, # of connection points: 2
#     Edge 62, Type (0, 0), BuildingBlock: XUDNAN_clean_linker_2, # of connection points: 2
#     Edge 63, Type (0, 0), BuildingBlock: XUDNAN_clean_linker_2, # of connection points: 2
#     Edge 64, Type (0, 0), BuildingBlock: XUDNAN_clean_linker_2, # of connection points: 2
#     Edge 65, Type (0, 0), BuildingBlock: XUDNAN_clean_linker_2, # of connection points: 2
#     Edge 66, Type (0, 0), BuildingBlock: XUDNAN_clean_linker_2, # of connection points: 2
#     Edge 67, Type (0, 0), BuildingBlock: XUDNAN_clean_linker_2, # of connection points: 2
#     Edge 68, Type (0, 0), BuildingBlock: XUDNAN_clean_linker_2, # of connection points: 2
#     Edge 69, Type (0, 0), BuildingBlock: XUDNAN_clean_linker_2, # of connection points: 2
#     Edge 70, Type (0, 0), BuildingBlock: XUDNAN_clean_linker_2, # of connection points: 2
#     Edge 71, Type (0, 0), BuildingBlock: XUDNAN_clean_linker_2, # of connection points: 2
#     Edge 72, Type (0, 0), BuildingBlock: XUDNAN_clean_linker_2, # of connection points: 2
#     Edge 73, Type (0, 0), BuildingBlock: XUDNAN_clean_linker_2, # of connection points: 2
#     Edge 74, Type (0, 0), BuildingBlock: XUDNAN_clean_linker_2, # of connection points: 2
#     Edge 75, Type (0, 0), BuildingBlock: XUDNAN_clean_linker_2, # of connection points: 2
#     Edge 76, Type (0, 0), BuildingBlock: XUDNAN_clean_linker_2, # of connection points: 2
#     Edge 77, Type (0, 0), BuildingBlock: XUDNAN_clean_linker_2, # of connection points: 2
#     Edge 78, Type (0, 0), BuildingBlock: XUDNAN_clean_linker_2, # of connection points: 2
#     Edge 79, Type (0, 0), BuildingBlock: XUDNAN_clean_linker_2, # of connection points: 2
#     Edge 80, Type (0, 0), BuildingBlock: XUDNAN_clean_linker_2, # of connection points: 2
#     Edge 81, Type (0, 0), BuildingBlock: XUDNAN_clean_linker_2, # of connection points: 2
#     Edge 82, Type (0, 0), BuildingBlock: XUDNAN_clean_linker_2, # of connection points: 2
#     Edge 83, Type (0, 0), BuildingBlock: XUDNAN_clean_linker_2, # of connection points: 2
#     Edge 84, Type (0, 0), BuildingBlock: XUDNAN_clean_linker_2, # of connection points: 2
#     Edge 85, Type (0, 0), BuildingBlock: XUDNAN_clean_linker_2, # of connection points: 2
#     Edge 86, Type (0, 0), BuildingBlock: XUDNAN_clean_linker_2, # of connection points: 2
#     Edge 87, Type (0, 0), BuildingBlock: XUDNAN_clean_linker_2, # of connection points: 2
#     Edge 88, Type (0, 0), BuildingBlock: XUDNAN_clean_linker_2, # of connection points: 2
#     Edge 89, Type (0, 0), BuildingBlock: XUDNAN_clean_linker_2, # of connection points: 2
#     Edge 90, Type (0, 0), BuildingBlock: XUDNAN_clean_linker_2, # of connection points: 2
#     Edge 91, Type (0, 0), BuildingBlock: XUDNAN_clean_linker_2, # of connection points: 2
#     Edge 92, Type (0, 0), BuildingBlock: XUDNAN_clean_linker_2, # of connection points: 2
#     Edge 93, Type (0, 0), BuildingBlock: XUDNAN_clean_linker_2, # of connection points: 2
#     Edge 94, Type (0, 0), BuildingBlock: XUDNAN_clean_linker_2, # of connection points: 2
#     Edge 95, Type (0, 0), BuildingBlock: XUDNAN_clean_linker_2, # of connection points: 2
#     Edge 96, Type (0, 0), BuildingBlock: XUDNAN_clean_linker_2, # of connection points: 2
#     Edge 97, Type (0, 0), BuildingBlock: XUDNAN_clean_linker_2, # of connection points: 2
#     Edge 98, Type (0, 0), BuildingBlock: XUDNAN_clean_linker_2, # of connection points: 2
#     Edge 99, Type (0, 0), BuildingBlock: XUDNAN_clean_linker_2, # of connection points: 2
#     Edge 100, Type (0, 0), BuildingBlock: XUDNAN_clean_linker_2, # of connection points: 2
#     Edge 101, Type (0, 0), BuildingBlock: XUDNAN_clean_linker_2, # of connection points: 2
#     Edge 102, Type (0, 0), BuildingBlock: XUDNAN_clean_linker_2, # of connection points: 2
#     Edge 103, Type (0, 0), BuildingBlock: XUDNAN_clean_linker_2, # of connection points: 2
#     Edge 104, Type (0, 0), BuildingBlock: XUDNAN_clean_linker_2, # of connection points: 2
#     Edge 105, Type (0, 0), BuildingBlock: XUDNAN_clean_linker_2, # of connection points: 2
#     Edge 106, Type (0, 0), BuildingBlock: XUDNAN_clean_linker_2, # of connection points: 2
#     Edge 107, Type (0, 0), BuildingBlock: XUDNAN_clean_linker_2, # of connection points: 2
#     Edge 108, Type (0, 0), BuildingBlock: XUDNAN_clean_linker_2, # of connection points: 2
#     Edge 109, Type (0, 0), BuildingBlock: XUDNAN_clean_linker_2, # of connection points: 2
#     Edge 110, Type (0, 0), BuildingBlock: XUDNAN_clean_linker_2, # of connection points: 2
#     Edge 111, Type (0, 0), BuildingBlock: XUDNAN_clean_linker_2, # of connection points: 2
#     Edge 112, Type (0, 0), BuildingBlock: XUDNAN_clean_linker_2, # of connection points: 2
#     Edge 113, Type (0, 0), BuildingBlock: XUDNAN_clean_linker_2, # of connection points: 2
#     Edge 114, Type (0, 0), BuildingBlock: XUDNAN_clean_linker_2, # of connection points: 2
#     Edge 115, Type (0, 0), BuildingBlock: XUDNAN_clean_linker_2, # of connection points: 2
#     Edge 116, Type (0, 0), BuildingBlock: XUDNAN_clean_linker_2, # of connection points: 2
#     Edge 117, Type (0, 0), BuildingBlock: XUDNAN_clean_linker_2, # of connection points: 2
#     Edge 118, Type (0, 0), BuildingBlock: XUDNAN_clean_linker_2, # of connection points: 2
#     Edge 119, Type (0, 0), BuildingBlock: XUDNAN_clean_linker_2, # of connection points: 2
#     Edge 120, Type (0, 0), BuildingBlock: XUDNAN_clean_linker_2, # of connection points: 2
#     Edge 121, Type (0, 0), BuildingBlock: XUDNAN_clean_linker_2, # of connection points: 2
#     Edge 122, Type (0, 0), BuildingBlock: XUDNAN_clean_linker_2, # of connection points: 2
#     Edge 123, Type (0, 0), BuildingBlock: XUDNAN_clean_linker_2, # of connection points: 2
#     Edge 124, Type (0, 0), BuildingBlock: XUDNAN_clean_linker_2, # of connection points: 2
#     Edge 125, Type (0, 0), BuildingBlock: XUDNAN_clean_linker_2, # of connection points: 2
#     Edge 126, Type (0, 0), BuildingBlock: XUDNAN_clean_linker_2, # of connection points: 2
#     Edge 127, Type (0, 0), BuildingBlock: XUDNAN_clean_linker_2, # of connection points: 2
#     Edge 128, Type (0, 0), BuildingBlock: XUDNAN_clean_linker_2, # of connection points: 2
#     Edge 129, Type (0, 0), BuildingBlock: XUDNAN_clean_linker_2, # of connection points: 2
#     Edge 130, Type (0, 0), BuildingBlock: XUDNAN_clean_linker_2, # of connection points: 2
#     Edge 131, Type (0, 0), BuildingBlock: XUDNAN_clean_linker_2, # of connection points: 2
#     Edge 132, Type (0, 0), BuildingBlock: XUDNAN_clean_linker_2, # of connection points: 2
#     Edge 133, Type (0, 0), BuildingBlock: XUDNAN_clean_linker_2, # of connection points: 2
#     Edge 134, Type (0, 0), BuildingBlock: XUDNAN_clean_linker_2, # of connection points: 2
#     Edge 135, Type (0, 0), BuildingBlock: XUDNAN_clean_linker_2, # of connection points: 2
#     Edge 136, Type (0, 0), BuildingBlock: XUDNAN_clean_linker_2, # of connection points: 2
#     Edge 137, Type (0, 0), BuildingBlock: XUDNAN_clean_linker_2, # of connection points: 2
#     Edge 138, Type (0, 0), BuildingBlock: XUDNAN_clean_linker_2, # of connection points: 2
#     Edge 139, Type (0, 0), BuildingBlock: XUDNAN_clean_linker_2, # of connection points: 2
#     Edge 140, Type (0, 0), BuildingBlock: XUDNAN_clean_linker_2, # of connection points: 2
#     Edge 141, Type (0, 0), BuildingBlock: XUDNAN_clean_linker_2, # of connection points: 2
#     Edge 142, Type (0, 0), BuildingBlock: XUDNAN_clean_linker_2, # of connection points: 2
#     Edge 143, Type (0, 0), BuildingBlock: XUDNAN_clean_linker_2, # of connection points: 2
# Relax obj value: 0.160
# Max RMSD: 0.201
# Mean RMSD: 0.201
data_MOF--net-wmt--node1-GEDQOX_clean_sbu_0--edge1-XUDNAN_clean_linker_2
_symmetry_space_group_name_H-M    P1
_symmetry_Int_Tables_number       1
_symmetry_cell_setting            triclinic
loop_
_symmetry_equiv_pos_as_xyz
'x, y, z'
_cell_length_a     84.361523
_cell_length_b     84.444762
_cell_length_c     36.601427
_cell_angle_alpha  89.915955
_cell_angle_beta   90.017266
_cell_angle_gamma 119.93281
loop_
_atom_site_label
_atom_site_type_symbol
_atom_site_fract_x
_atom_site_fract_y
_atom_site_fract_z
_atom_type_partial_charge
Nd0 Nd 0.0377 0.47463 0.04199 0.0
Nd1 Nd 0.06835 0.50383 0.99359 0.0
C2 C 0.01272 0.45772 0.09376 0.0
C3 C 0.0121 0.45685 0.13422 0.0
C4 C -0.00384 0.45353 0.15281 0.0
C5 C -0.00478 0.45227 0.19108 0.0
C6 C 0.01016 0.45407 0.21157 0.0
C7 C 0.0263 0.45794 0.19282 0.0
C8 C 0.02729 0.4594 0.15464 0.0
C9 C 0.06381 0.46626 1.02171 0.0
C10 C 0.07323 0.51 0.08051 0.0
C11 C 0.09324 0.52177 0.94249 0.0
C12 C 0.09308 0.5253 0.90306 0.0
C13 C 0.1096 0.53559 0.88424 0.0
C14 C 0.10961 0.53953 0.84705 0.0
C15 C 0.09305 0.53325 0.8279 0.0
C16 C 0.07648 0.52278 0.84695 0.0
C17 C 0.07651 0.51888 0.88416 0.0
C18 C 0.0408 0.51044 1.01187 0.0
C19 C 0.03077 0.46893 0.95555 0.0
O20 O 0.01613 0.4732 0.07895 0.0
O21 O 0.02128 0.45042 0.07722 0.0
O22 O 0.04652 0.45439 1.02475 0.0
O23 O 0.06721 0.48206 0.0312 0.0
O24 O 0.05593 0.49704 0.08261 0.0
O25 O 0.08243 0.51402 0.04937 0.0
O26 O 0.08805 0.50491 0.95202 0.0
O27 O 0.08658 0.52944 0.96383 0.0
O28 O 0.05782 0.5233 1.01224 0.0
O29 O 0.03939 0.49558 1.00242 0.0
O30 O 0.04804 0.48224 0.95151 0.0
O31 O 0.02274 0.46468 0.98789 0.0
H32 H 0.98432 0.45164 0.13765 0.0
H33 H 0.98257 0.44922 0.2045 0.0
H34 H 0.03819 0.45975 0.2077 0.0
H35 H 0.03986 0.46231 0.14103 0.0
H36 H 0.12253 0.54075 0.89842 0.0
H37 H 0.12262 0.54782 0.8335 0.0
H38 H 0.06347 0.51747 0.83307 0.0
H39 H 0.0636 0.51096 0.89828 0.0
Nd40 Nd 0.52052 0.56327 0.04621 0.0
Nd41 Nd 0.49208 0.56565 0.99495 0.0
C42 C 0.53716 0.5547 0.09809 0.0
C43 C 0.53703 0.55308 0.13861 0.0
C44 C 0.54048 0.54005 0.15518 0.0
C45 C 0.53965 0.53787 0.1934 0.0
C46 C 0.5353 0.54867 0.21594 0.0
C47 C 0.53223 0.56195 0.19918 0.0
C48 C 0.53297 0.56406 0.16108 0.0
C49 C 0.52833 0.59785 0.02871 0.0
C50 C 0.48319 0.56091 0.08155 0.0
C51 C 0.47511 0.57387 0.94367 0.0
C52 C 0.47113 0.57057 0.90419 0.0
C53 C 0.45815 0.57418 0.88827 0.0
C54 C 0.4535 0.57031 0.85131 0.0
C55 C 0.46175 0.56274 0.82933 0.0
C56 C 0.47492 0.55929 0.84546 0.0
C57 C 0.47951 0.56311 0.88252 0.0
C58 C 0.48609 0.53144 1.00891 0.0
C59 C 0.5285 0.56445 0.95959 0.0
O60 O 0.5226 0.54257 0.0806 0.0
O61 O 0.54371 0.57114 0.08447 0.0
O62 O 0.54055 0.59293 0.03269 0.0
O63 O 0.51245 0.58493 0.03604 0.0
O64 O 0.49627 0.5567 0.08409 0.0
O65 O 0.48016 0.5673 0.05077 0.0
O66 O 0.49219 0.5848 0.95311 0.0
O67 O 0.46685 0.55951 0.96484 0.0
O68 O 0.4727 0.53485 1.00762 0.0
O69 O 0.50105 0.54551 1.00301 0.0
O70 O 0.51501 0.56814 0.95471 0.0
O71 O 0.53212 0.56016 0.99215 0.0
H72 H 0.54347 0.53128 0.13846 0.0
H73 H 0.54186 0.52737 0.20522 0.0
H74 H 0.52918 0.57073 0.21563 0.0
H75 H 0.53018 0.57417 0.14917 0.0
H76 H 0.45139 0.57976 0.90459 0.0
H77 H 0.44309 0.57288 0.84023 0.0
H78 H 0.48176 0.55369 0.82946 0.0
H79 H 0.48948 0.5601 0.89436 0.0
Nd80 Nd 0.42867 0.94961 0.04839 0.0
Nd81 Nd 0.42998 0.92126 0.99408 0.0
C82 C 0.43272 0.97132 0.10447 0.0
C83 C 0.43466 0.97215 0.14495 0.0
C84 C 0.42434 0.95659 0.1666 0.0
C85 C 0.4249 0.95782 0.20478 0.0
C86 C 0.43566 0.97468 0.22271 0.0
C87 C 0.44647 0.99017 0.20083 0.0
C88 C 0.44597 0.9889 0.16246 0.0
C89 C 0.39658 0.92684 1.01302 0.0
C90 C 0.42733 0.91245 0.08212 0.0
C91 C 0.42444 0.89525 0.94698 0.0
C92 C 0.42923 0.89462 0.90829 0.0
C93 C 0.44537 0.90878 0.89292 0.0
C94 C 0.44956 0.90818 0.85608 0.0
C95 C 0.43763 0.89348 0.83356 0.0
C96 C 0.42144 0.87936 0.84917 0.0
C97 C 0.41732 0.87993 0.88609 0.0
C98 C 0.46267 0.95013 1.01516 0.0
C99 C 0.43439 0.95964 0.96273 0.0
O100 O 0.44644 0.97289 0.0849 0.0
O101 O 0.41683 0.95912 0.09122 0.0
O102 O 0.40234 0.94399 1.0196 0.0
O103 O 0.40747 0.92207 1.02582 0.0
O104 O 0.42712 0.92781 0.08758 0.0
O105 O 0.42775 0.90637 0.04885 0.0
O106 O 0.41249 0.90059 0.95287 0.0
O107 O 0.43797 0.9021 0.9705 0.0
O108 O 0.46042 0.94342 0.98241 0.0
O109 O 0.44878 0.94107 0.03421 0.0
O110 O 0.42727 0.94187 0.95719 0.0
O111 O 0.43946 0.96696 0.99569 0.0
H112 H 0.41549 0.94348 0.154 0.0
H113 H 0.41675 0.94542 0.22019 0.0
H114 H 0.45482 0.00346 0.21315 0.0
H115 H 0.45404 0.00115 0.14643 0.0
H116 H 0.45474 0.92035 0.9094 0.0
H117 H 0.46227 0.9192 0.84537 0.0
H118 H 0.41175 0.86797 0.83274 0.0
H119 H 0.40471 0.86894 0.89727 0.0
Nd120 Nd 0.4702 0.03896 0.65276 0.0
Nd121 Nd 0.50041 0.07057 0.69839 0.0
C122 C 0.45191 0.0124 0.60467 0.0
C123 C 0.45149 0.00827 0.56514 0.0
C124 C 0.44673 0.9905 0.55446 0.0
C125 C 0.44512 0.98579 0.51742 0.0
C126 C 0.44838 -0.00119 0.49006 0.0
C127 C 0.45406 0.01688 0.50067 0.0
C128 C 0.45547 0.02155 0.5379 0.0
C129 C 0.46277 0.06593 0.67109 0.0
C130 C 0.50558 0.07294 0.61076 0.0
C131 C 0.51901 0.09675 0.74666 0.0
C132 C 0.52303 0.09758 0.78606 0.0
C133 C 0.53313 0.11454 0.80336 0.0
C134 C 0.53751 0.11549 0.84052 0.0
C135 C 0.53187 0.09945 0.86114 0.0
C136 C 0.52153 0.08243 0.84364 0.0
C137 C 0.51719 0.08152 0.80647 0.0
C138 C 0.50611 0.04222 0.68307 0.0
C139 C 0.46555 0.03438 0.74053 0.0
O140 O 0.46569 0.01388 0.62378 0.0
O141 O 0.44703 0.02428 0.61429 0.0
O142 O 0.45054 0.04868 0.66971 0.0
O143 O 0.47831 0.06874 0.66105 0.0
O144 O 0.49272 0.05556 0.6106 0.0
O145 O 0.50974 0.08297 0.64085 0.0
O146 O 0.502 0.09129 0.73778 0.0
O147 O 0.52645 0.08959 0.72597 0.0
O148 O 0.51928 0.05909 0.68148 0.0
O149 O 0.49145 0.04134 0.69226 0.0
O150 O 0.47959 0.05137 0.74289 0.0
O151 O 0.46011 0.02583 0.70879 0.0
H152 H 0.44385 0.98009 0.57486 0.0
H153 H 0.44091 0.97181 0.51013 0.0
H154 H 0.45663 0.02719 0.48025 0.0
H155 H 0.45941 0.03544 0.54538 0.0
H156 H 0.53782 0.12709 0.78802 0.0
H157 H 0.54567 0.12881 0.85288 0.0
H158 H 0.51672 0.06979 0.85867 0.0
H159 H 0.50938 0.06828 0.79357 0.0
Nd160 Nd 0.95138 0.43268 0.64545 0.0
Nd161 Nd 0.91933 0.42773 0.69419 0.0
C162 C 0.97672 0.44261 0.59387 0.0
C163 C 0.97988 0.44148 0.55439 0.0
C164 C 0.96717 0.43981 0.52762 0.0
C165 C 0.97119 0.43992 0.49028 0.0
C166 C 0.98799 0.44175 0.47901 0.0
C167 C 0.00066 0.44355 0.50608 0.0
C168 C -0.00336 0.4434 0.54322 0.0
C169 C 0.92562 0.39714 0.65917 0.0
C170 C 0.91561 0.43254 0.60801 0.0
C171 C 0.89363 0.41764 0.74506 0.0
C172 C 0.89292 0.42051 0.78474 0.0
C173 C 0.90804 0.43446 0.80313 0.0
C174 C 0.90694 0.43754 0.84044 0.0
C175 C 0.8907 0.42668 0.86028 0.0
C176 C 0.87571 0.41249 0.84172 0.0
C177 C 0.87682 0.40947 0.80438 0.0
C178 C 0.94608 0.46335 0.68083 0.0
C179 C 0.95713 0.43136 0.73138 0.0
O180 O 0.969 0.45209 0.60318 0.0
O181 O 0.97161 0.42815 0.61439 0.0
O182 O 0.94301 0.40303 0.65673 0.0
O183 O 0.922 0.40965 0.65243 0.0
O184 O 0.93331 0.43838 0.60704 0.0
O185 O 0.90578 0.42472 0.63773 0.0
O186 O 0.9006 0.40751 0.73509 0.0
O187 O 0.89902 0.43205 0.72426 0.0
O188 O 0.9288 0.45818 0.68312 0.0
O189 O 0.94823 0.45002 0.68763 0.0
O190 O 0.9391 0.42407 0.73334 0.0
O191 O 0.96612 0.43881 0.70074 0.0
H192 H 0.95418 0.43848 0.53554 0.0
H193 H 0.96105 0.43827 0.47023 0.0
H194 H 0.01386 0.4453 0.49858 0.0
H195 H 0.00678 0.44504 0.56332 0.0
H196 H 0.92063 0.44314 0.78849 0.0
H197 H 0.91871 0.44875 0.85347 0.0
H198 H 0.86309 0.40365 0.85605 0.0
H199 H 0.86501 0.39857 0.79074 0.0
Nd200 Nd 0.55947 0.51751 0.65003 0.0
Nd201 Nd 0.56354 0.48956 0.69747 0.0
C202 C 0.549 0.53368 0.60089 0.0
C203 C 0.54591 0.5339 0.56105 0.0
C204 C 0.55253 0.52615 0.53556 0.0
C205 C 0.54915 0.52649 0.49796 0.0
C206 C 0.53898 0.53449 0.48501 0.0
C207 C 0.53267 0.54243 0.51098 0.0
C208 C 0.53598 0.54201 0.54835 0.0
C209 C 0.59477 0.52624 0.66322 0.0
C210 C 0.55874 0.48176 0.6114 0.0
C211 C 0.57157 0.47194 0.74756 0.0
C212 C 0.56782 0.46784 0.78693 0.0
C213 C 0.56246 0.47793 0.80907 0.0
C214 C 0.55833 0.47346 0.84609 0.0
C215 C 0.55939 0.45875 0.86175 0.0
C216 C 0.56482 0.44874 0.83932 0.0
C217 C 0.56898 0.45325 0.80235 0.0
C218 C 0.52864 0.48346 0.6888 0.0
C219 C 0.56383 0.52569 0.73609 0.0
O220 O 0.53758 0.51894 0.61888 0.0
O221 O 0.56591 0.54048 0.61199 0.0
O222 O 0.58931 0.53813 0.66145 0.0
O223 O 0.58199 0.5103 0.65603 0.0
O224 O 0.5524 0.49327 0.61149 0.0
O225 O 0.56678 0.47972 0.64067 0.0
O226 O 0.58262 0.48904 0.7386 0.0
O227 O 0.55741 0.46388 0.72586 0.0
O228 O 0.53239 0.47037 0.68621 0.0
O229 O 0.54282 0.49827 0.69448 0.0
O230 O 0.56947 0.51354 0.73744 0.0
O231 O 0.5567 0.52817 0.70589 0.0
H232 H 0.56017 0.5197 0.54475 0.0
H233 H 0.55427 0.52022 0.47918 0.0
H234 H 0.52529 0.54924 0.50257 0.0
H235 H 0.53078 0.54813 0.56745 0.0
H236 H 0.56138 0.4892 0.79771 0.0
H237 H 0.55443 0.48163 0.86248 0.0
H238 H 0.56552 0.43716 0.8501 0.0
H239 H 0.57292 0.44519 0.78567 0.0
Nd240 Nd 0.9198 0.48794 0.19445 0.0
Nd241 Nd 0.94955 0.51518 0.138 0.0
C242 C 0.89313 0.46909 0.24151 0.0
C243 C 0.89214 0.46461 0.28094 0.0
C244 C 0.90396 0.47761 0.30637 0.0
C245 C 0.90315 0.47307 0.34343 0.0
C246 C 0.89061 0.45535 0.356 0.0
C247 C 0.8788 0.44239 0.33034 0.0
C248 C 0.87955 0.44699 0.29329 0.0
C249 C 0.94938 0.48369 0.18216 0.0
C250 C 0.95781 0.52274 0.22418 0.0
C251 C 0.97211 0.53095 0.082 0.0
C252 C 0.97524 0.52746 0.04361 0.0
C253 C 0.96056 0.5168 1.02009 0.0
C254 C 0.96368 0.51519 0.98299 0.0
C255 C 0.98151 0.524 0.96853 0.0
C256 C -0.00377 0.53437 0.99225 0.0
C257 C 0.99312 0.53602 0.02943 0.0
C258 C 0.92611 0.52581 0.16593 0.0
C259 C 0.91352 0.47761 0.1072 0.0
O260 O 0.8988 0.48622 0.23308 0.0
O261 O 0.89987 0.46149 0.22002 0.0
O262 O 0.9415 0.48014 0.2139 0.0
O263 O 0.9408 0.48756 0.15953 0.0
O264 O 0.93986 0.51274 0.22872 0.0
O265 O 0.96574 0.52367 0.1923 0.0
O266 O 0.97513 0.52209 0.108 0.0
O267 O 0.95764 0.53248 0.08829 0.0
O268 O 0.94331 0.53699 0.15939 0.0
O269 O 0.92163 0.50978 0.15642 0.0
O270 O 0.93011 0.49151 0.10131 0.0
O271 O 0.90553 0.47411 0.13981 0.0
H272 H 0.91391 0.4913 0.29762 0.0
H273 H 0.91231 0.48353 0.36225 0.0
H274 H 0.86918 0.42854 0.33868 0.0
H275 H 0.87039 0.43669 0.27418 0.0
H276 H 0.94662 0.51009 0.03015 0.0
H277 H 0.95207 0.5075 0.96523 0.0
H278 H 0.01014 0.54122 0.98203 0.0
H279 H 0.00468 0.54429 0.047 0.0
Nd280 Nd 0.50167 0.42735 0.19837 0.0
Nd281 Nd 0.47357 0.4315 0.15108 0.0
C282 C 0.51821 0.41801 0.24851 0.0
C283 C 0.52346 0.42275 0.28719 0.0
C284 C 0.52553 0.439 0.30197 0.0
C285 C 0.53095 0.44367 0.33836 0.0
C286 C 0.53427 0.4321 0.361 0.0
C287 C 0.53203 0.41574 0.34602 0.0
C288 C 0.5267 0.41114 0.30949 0.0
C289 C 0.51046 0.4627 0.18376 0.0
C290 C 0.46769 0.43128 0.23713 0.0
C291 C 0.45765 0.43992 0.09778 0.0
C292 C 0.45617 0.43921 0.05707 0.0
C293 C 0.47029 0.4524 0.03494 0.0
C294 C 0.46838 0.45229 0.99681 0.0
C295 C 0.45247 0.4387 0.97974 0.0
C296 C 0.43841 0.42545 1.00178 0.0
C297 C 0.44015 0.42582 0.03992 0.0
C298 C 0.46442 0.3963 0.16714 0.0
C299 C 0.50875 0.43133 0.11181 0.0
O300 O 0.50068 0.40828 0.24155 0.0
O301 O 0.52694 0.4312 0.22486 0.0
O302 O 0.52257 0.45757 0.18644 0.0
O303 O 0.49496 0.44956 0.1913 0.0
O304 O 0.47911 0.42474 0.23897 0.0
O305 O 0.46493 0.43765 0.20616 0.0
O306 O 0.47353 0.45137 0.1119 0.0
O307 O 0.44923 0.42457 0.11613 0.0
O308 O 0.45279 0.4021 0.16612 0.0
O309 O 0.48025 0.40874 0.15833 0.0
O310 O 0.49685 0.4371 0.11168 0.0
O311 O 0.51142 0.42393 0.14143 0.0
H312 H 0.52309 0.44817 0.28526 0.0
H313 H 0.53278 0.4565 0.34855 0.0
H314 H 0.53417 0.40635 0.36262 0.0
H315 H 0.52512 0.3985 0.29863 0.0
H316 H 0.4829 0.46276 0.04703 0.0
H317 H 0.47954 0.46254 0.98059 0.0
H318 H 0.42594 0.41484 0.98945 0.0
H319 H 0.42892 0.41559 0.05602 0.0
Nd320 Nd 0.56285 0.07408 0.19865 0.0
Nd321 Nd 0.56329 0.04482 0.14771 0.0
C322 C 0.56699 0.10014 0.24427 0.0
C323 C 0.56204 0.09986 0.28312 0.0
C324 C 0.56685 0.11619 0.30155 0.0
C325 C 0.56244 0.11593 0.3386 0.0
C326 C 0.5531 0.09931 0.35801 0.0
C327 C 0.54822 0.08296 0.33921 0.0
C328 C 0.55267 0.08324 0.30221 0.0
C329 C 0.52971 0.04486 0.18081 0.0
C330 C 0.55992 0.03739 0.23439 0.0
C331 C 0.55852 0.0212 0.09518 0.0
C332 C 0.55344 0.01706 0.05599 0.0
C333 C 0.54058 -0.00086 0.0455 0.0
C334 C 0.53733 0.99434 1.00843 0.0
C335 C 0.54681 0.0074 0.9811 0.0
C336 C 0.55901 0.02551 0.99145 0.0
C337 C 0.56228 0.03032 0.02851 0.0
C338 C 0.59626 0.06849 0.17986 0.0
C339 C 0.56372 0.08048 0.10968 0.0
O340 O 0.57988 0.09614 0.23778 0.0
O341 O 0.55328 0.09221 0.22135 0.0
O342 O 0.53357 0.05061 0.21425 0.0
O343 O 0.54308 0.0537 0.16034 0.0
O344 O 0.56735 0.0553 0.23753 0.0
O345 O 0.55391 0.02912 0.20251 0.0
O346 O 0.54567 0.01848 0.11871 0.0
O347 O 0.57425 0.03574 0.10258 0.0
O348 O 0.59025 0.05118 0.1751 0.0
O349 O 0.58517 0.07294 0.16692 0.0
O350 O 0.56293 0.06457 0.10592 0.0
O351 O 0.56465 0.08782 0.14233 0.0
H352 H 0.57406 0.12915 0.28733 0.0
H353 H 0.56623 0.12877 0.35195 0.0
H354 H 0.54127 0.06993 0.35324 0.0
H355 H 0.5489 0.07047 0.28854 0.0
H356 H 0.53357 0.98865 0.06602 0.0
H357 H 0.52798 0.98026 1.00111 0.0
H358 H 0.56663 0.03577 0.97086 0.0
H359 H 0.57224 0.04426 0.03559 0.0
Nd360 Nd 0.49059 0.92287 0.49284 0.0
Nd361 Nd 0.51764 0.95439 0.54348 0.0
C362 C 0.47548 0.89723 0.44213 0.0
C363 C 0.47029 0.89569 0.4029 0.0
C364 C 0.45413 0.89541 0.39218 0.0
C365 C 0.44916 0.89378 0.35535 0.0
C366 C 0.46015 0.89233 0.32814 0.0
C367 C 0.47616 0.89231 0.33887 0.0
C368 C 0.48115 0.89395 0.37582 0.0
C369 C 0.48108 0.94876 0.50856 0.0
C370 C 0.52468 0.96201 0.45705 0.0
C371 C 0.53163 0.9782 0.59809 0.0
C372 C 0.53162 0.97823 0.63868 0.0
C373 C 0.53204 0.96429 0.65888 0.0
C374 C 0.53304 0.96515 0.69716 0.0
C375 C 0.53349 0.97988 0.71623 0.0
C376 C 0.53219 0.99335 0.69592 0.0
C377 C 0.53135 0.99256 0.65761 0.0
C378 C 0.52743 0.92886 0.52669 0.0
C379 C 0.48215 0.91834 0.57932 0.0
O380 O 0.49298 0.9055 0.45002 0.0
O381 O 0.46607 0.90114 0.46521 0.0
O382 O 0.46912 0.93153 0.50474 0.0
O383 O 0.49681 0.95142 0.50199 0.0
O384 O 0.51224 0.94445 0.45232 0.0
O385 O 0.52803 0.96983 0.48965 0.0
O386 O 0.51611 0.97374 0.58219 0.0
O387 O 0.54059 0.97136 0.58138 0.0
O388 O 0.53904 0.94616 0.53046 0.0
O389 O 0.51139 0.92531 0.53406 0.0
O390 O 0.49375 0.93601 0.58068 0.0
O391 O 0.4803 0.90881 0.54926 0.0
H392 H 0.44524 0.89642 0.41222 0.0
H393 H 0.43657 0.89351 0.34822 0.0
H394 H 0.48503 0.89137 0.31866 0.0
H395 H 0.49357 0.89391 0.38319 0.0
H396 H 0.53189 0.95289 0.64507 0.0
H397 H 0.53363 0.95432 0.71187 0.0
H398 H 0.53255 0.00492 0.70951 0.0
H399 H 0.5309 0.00342 0.64273 0.0
Nd400 Nd 0.06678 0.56355 0.49097 0.0
Nd401 Nd 0.03471 0.56105 0.53684 0.0
C402 C 0.09318 0.57177 0.44283 0.0
C403 C 0.09455 0.56781 0.40374 0.0
C404 C 0.09688 0.5805 0.37634 0.0
C405 C 0.09804 0.5767 0.3395 0.0
C406 C 0.09696 0.56014 0.32915 0.0
C407 C 0.0949 0.54759 0.35662 0.0
C408 C 0.09376 0.55138 0.3934 0.0
C409 C 0.03893 0.52907 0.50456 0.0
C410 C 0.03033 0.56196 0.44922 0.0
C411 C 0.00847 0.55275 0.58598 0.0
C412 C 0.00541 0.54877 0.62577 0.0
C413 C 0.98877 0.53406 0.63788 0.0
C414 C 0.98601 0.52912 0.67491 0.0
C415 C -0.00019 0.53882 0.70101 0.0
C416 C 0.01627 0.55398 0.68892 0.0
C417 C 0.01909 0.55883 0.65176 0.0
C418 C 0.06147 0.59571 0.51975 0.0
C419 C 0.06876 0.55958 0.57814 0.0
O420 O 0.08666 0.58265 0.45014 0.0
O421 O 0.08736 0.55805 0.46572 0.0
O422 O 0.05593 0.53312 0.50566 0.0
O423 O 0.0376 0.54274 0.49654 0.0
O424 O 0.04745 0.56521 0.44679 0.0
O425 O 0.02162 0.55836 0.4809 0.0
O426 O 0.00947 0.54053 0.56564 0.0
O427 O 0.02033 0.56948 0.5763 0.0
O428 O 0.04413 0.59042 0.52057 0.0
O429 O 0.06443 0.58305 0.52944 0.0
O430 O 0.05122 0.55453 0.57813 0.0
O431 O 0.07898 0.56632 0.54848 0.0
H432 H 0.09769 0.59334 0.38335 0.0
H433 H 0.09945 0.58661 0.31906 0.0
H434 H 0.09431 0.53484 0.34973 0.0
H435 H 0.09223 0.54138 0.41372 0.0
H436 H 0.97795 0.52617 0.61852 0.0
H437 H 0.97297 0.51766 0.68304 0.0
H438 H 0.02724 0.56178 0.708 0.0
H439 H 0.03214 0.57018 0.64328 0.0
Nd440 Nd 0.42474 0.50253 0.49539 0.0
Nd441 Nd 0.42405 0.47255 0.54522 0.0
C442 C 0.41806 0.52022 0.443 0.0
C443 C 0.42096 0.52318 0.40316 0.0
C444 C 0.41468 0.53356 0.38465 0.0
C445 C 0.4181 0.53723 0.34721 0.0
C446 C 0.42791 0.53061 0.32743 0.0
C447 C 0.43384 0.51987 0.3461 0.0
C448 C 0.43045 0.51625 0.38355 0.0
C449 C 0.45806 0.50913 0.51999 0.0
C450 C 0.42882 0.46785 0.45964 0.0
C451 C 0.428 0.45355 0.59886 0.0
C452 C 0.4296 0.45264 0.63923 0.0
C453 C 0.44352 0.46702 0.65957 0.0
C454 C 0.44607 0.46468 0.6968 0.0
C455 C 0.43468 0.44792 0.71451 0.0
C456 C 0.42012 0.43403 0.69443 0.0
C457 C 0.41774 0.43631 0.65736 0.0
C458 C 0.39087 0.46524 0.5185 0.0
C459 C 0.42675 0.5094 0.58237 0.0
O460 O 0.40611 0.50369 0.45383 0.0
O461 O 0.43279 0.52771 0.46328 0.0
O462 O 0.45406 0.52203 0.51582 0.0
O463 O 0.4451 0.49415 0.50916 0.0
O464 O 0.42543 0.48149 0.45429 0.0
O465 O 0.43082 0.46286 0.49279 0.0
O466 O 0.44162 0.46675 0.58106 0.0
O467 O 0.41208 0.44953 0.58529 0.0
O468 O 0.3962 0.45327 0.52113 0.0
O469 O 0.40283 0.48064 0.53069 0.0
O470 O 0.43008 0.49578 0.58435 0.0
O471 O 0.42156 0.51359 0.55129 0.0
H472 H 0.40738 0.53909 0.39932 0.0
H473 H 0.4135 0.54571 0.33402 0.0
H474 H 0.44117 0.51427 0.33179 0.0
H475 H 0.43543 0.50822 0.39731 0.0
H476 H 0.45269 0.4799 0.64655 0.0
H477 H 0.45737 0.47574 0.71123 0.0
H478 H 0.41068 0.42113 0.70719 0.0
H479 H 0.40683 0.42504 0.64255 0.0
Nd480 Nd 0.70475 0.80603 0.38172 0.0
Nd481 Nd 0.73523 0.83235 0.32837 0.0
C482 C 0.68202 0.79108 0.43811 0.0
C483 C 0.68113 0.79327 0.47844 0.0
C484 C 0.68367 0.80965 0.49358 0.0
C485 C 0.68137 0.81109 0.53113 0.0
C486 C 0.67732 0.79652 0.55526 0.0
C487 C 0.6751 0.78018 0.54007 0.0
C488 C 0.67681 0.77855 0.50219 0.0
C489 C 0.72993 0.79612 0.36287 0.0
C490 C 0.74091 0.843 0.41269 0.0
C491 C 0.75959 0.84752 0.27509 0.0
C492 C 0.7601 0.85137 0.23529 0.0
C493 C 0.76701 0.86945 0.2232 0.0
C494 C 0.76777 0.87347 0.18589 0.0
C495 C 0.76181 0.85952 0.15959 0.0
C496 C 0.75505 0.84143 0.17165 0.0
C497 C 0.75417 0.83739 0.20904 0.0
C498 C 0.70879 0.84123 0.34423 0.0
C499 C 0.69642 0.79679 0.29668 0.0
O500 O 0.6824 0.80373 0.41689 0.0
O501 O 0.69261 0.78503 0.42608 0.0
O502 O 0.71255 0.78469 0.36628 0.0
O503 O 0.7338 0.81225 0.37034 0.0
O504 O 0.72312 0.83177 0.41515 0.0
O505 O 0.75016 0.8435 0.38311 0.0
O506 O 0.7529 0.8305 0.28552 0.0
O507 O 0.75488 0.85678 0.29681 0.0
O508 O 0.72591 0.85341 0.34002 0.0
O509 O 0.70656 0.82565 0.3385 0.0
O510 O 0.71418 0.80841 0.29188 0.0
O511 O 0.68835 0.79484 0.32873 0.0
H512 H 0.68734 0.82137 0.47636 0.0
H513 H 0.68257 0.82367 0.54115 0.0
H514 H 0.67222 0.76865 0.55738 0.0
H515 H 0.67475 0.76571 0.49142 0.0
H516 H 0.77188 0.88056 0.24268 0.0
H517 H 0.77327 0.88757 0.1776 0.0
H518 H 0.75016 0.83032 0.15219 0.0
H519 H 0.74881 0.8233 0.2173 0.0
Nd520 Nd 0.18279 0.89827 0.36905 0.0
Nd521 Nd 0.1547 0.9017 0.32083 0.0
C522 C 0.19939 0.88911 0.42002 0.0
C523 C 0.19968 0.88749 0.46044 0.0
C524 C 0.19006 0.89321 0.48314 0.0
C525 C 0.18954 0.89054 0.52111 0.0
C526 C 0.19862 0.88212 0.53734 0.0
C527 C 0.20862 0.87684 0.51461 0.0
C528 C 0.20905 0.87941 0.47657 0.0
C529 C 0.19165 0.93341 0.35349 0.0
C530 C 0.14691 0.89831 0.40659 0.0
C531 C 0.13702 0.9091 0.26962 0.0
C532 C 0.13293 0.90519 0.23028 0.0
C533 C 0.12516 0.91391 0.21069 0.0
C534 C 0.12071 0.90996 0.17365 0.0
C535 C 0.12389 0.89714 0.15535 0.0
C536 C 0.13182 0.8885 0.17515 0.0
C537 C 0.13632 0.89252 0.21219 0.0
C538 C 0.14807 0.86695 0.33376 0.0
C539 C 0.19033 0.90071 0.28265 0.0
O540 O 0.18441 0.87731 0.40321 0.0
O541 O 0.20623 0.90558 0.4065 0.0
O542 O 0.20341 0.92777 0.35537 0.0
O543 O 0.17569 0.92081 0.36127 0.0
O544 O 0.15857 0.89212 0.40747 0.0
O545 O 0.14488 0.90595 0.37671 0.0
O546 O 0.1541 0.9203 0.27841 0.0
O547 O 0.12909 0.89506 0.29168 0.0
O548 O 0.13518 0.87104 0.33555 0.0
O549 O 0.16298 0.88073 0.32633 0.0
O550 O 0.17829 0.90648 0.28073 0.0
O551 O 0.19297 0.89414 0.3135 0.0
H552 H 0.18268 0.89944 0.47144 0.0
H553 H 0.18198 0.89504 0.53789 0.0
H554 H 0.21566 0.87022 0.52614 0.0
H555 H 0.21648 0.87479 0.45963 0.0
H556 H 0.12237 0.92368 0.22415 0.0
H557 H 0.11445 0.91673 0.15952 0.0
H558 H 0.13472 0.87876 0.16193 0.0
H559 H 0.14239 0.88568 0.22677 0.0
Nd560 Nd 0.09239 0.28384 0.37336 0.0
Nd561 Nd 0.09334 0.2532 0.3286 0.0
C562 C 0.09652 0.30879 0.42255 0.0
C563 C 0.10017 0.31334 0.46195 0.0
C564 C 0.10961 0.307 0.4837 0.0
C565 C 0.11389 0.3126 0.52033 0.0
C566 C 0.10909 0.32491 0.53569 0.0
C567 C 0.09937 0.33093 0.51386 0.0
C568 C 0.09495 0.32519 0.47755 0.0
C569 C 0.05922 0.25591 0.35136 0.0
C570 C 0.09511 0.25064 0.41586 0.0
C571 C 0.08742 0.22753 0.28015 0.0
C572 C 0.09175 0.2263 0.24123 0.0
C573 C 0.07785 0.2198 0.21471 0.0
C574 C 0.08173 0.2184 0.17799 0.0
C575 C 0.0996 0.22339 0.1669 0.0
C576 C 0.11345 0.22972 0.19359 0.0
C577 C 0.10959 0.23116 0.23022 0.0
C578 C 0.12692 0.28194 0.34795 0.0
C579 C 0.0943 0.28895 0.28621 0.0
O580 O 0.1098 0.30948 0.40303 0.0
O581 O 0.08056 0.29516 0.41328 0.0
O582 O 0.06361 0.273 0.35037 0.0
O583 O 0.07198 0.25388 0.36415 0.0
O584 O 0.09943 0.268 0.41556 0.0
O585 O 0.08919 0.2405 0.38598 0.0
O586 O 0.07565 0.233 0.28677 0.0
O587 O 0.10101 0.23414 0.30345 0.0
O588 O 0.12353 0.26518 0.34574 0.0
O589 O 0.11319 0.28271 0.33739 0.0
O590 O 0.09035 0.27164 0.28487 0.0
O591 O 0.09793 0.29799 0.31744 0.0
H592 H 0.11402 0.29807 0.47211 0.0
H593 H 0.12149 0.30779 0.53624 0.0
H594 H 0.09522 0.34021 0.52483 0.0
H595 H 0.08772 0.33033 0.46136 0.0
H596 H 0.06395 0.21583 0.22235 0.0
H597 H 0.07074 0.21367 0.15823 0.0
H598 H 0.12731 0.2334 0.18629 0.0
H599 H 0.12064 0.23606 0.24988 0.0
Nd600 Nd 0.13867 0.37338 0.97673 0.0
Nd601 Nd 0.16642 0.40341 0.02922 0.0
C602 C 0.12396 0.35075 0.92037 0.0
C603 C 0.12449 0.35094 0.87961 0.0
C604 C 0.12887 0.33908 0.86096 0.0
C605 C 0.12929 0.33879 0.82262 0.0
C606 C 0.12509 0.35022 0.8017 0.0
C607 C 0.12055 0.36201 0.82055 0.0
C608 C 0.12037 0.36245 0.85891 0.0
C609 C 0.12977 0.3991 0.99725 0.0
C610 C 0.17565 0.40914 0.94322 0.0
C611 C 0.18185 0.42759 0.08254 0.0
C612 C 0.1847 0.42729 0.12228 0.0
C613 C 0.19396 0.44376 0.14162 0.0
C614 C 0.19753 0.44375 0.17901 0.0
C615 C 0.19192 0.42724 0.19788 0.0
C616 C 0.1824 0.41071 0.17835 0.0
C617 C 0.17886 0.41074 0.14092 0.0
C618 C 0.17497 0.37748 1.00893 0.0
C619 C 0.13159 0.36379 0.06232 0.0
O620 O 0.13876 0.35351 0.93727 0.0
O621 O 0.11595 0.35863 0.93692 0.0
O622 O 0.11794 0.3819 0.99284 0.0
O623 O 0.14575 0.40258 0.98918 0.0
O624 O 0.16272 0.39195 0.94042 0.0
O625 O 0.17852 0.4183 0.97425 0.0
O626 O 0.16501 0.42154 0.07149 0.0
O627 O 0.19078 0.42206 0.06185 0.0
O628 O 0.18734 0.39451 1.01355 0.0
O629 O 0.15944 0.375 1.01692 0.0
O630 O 0.14441 0.3811 0.06833 0.0
O631 O 0.12799 0.35675 0.02902 0.0
H632 H 0.1319 0.32992 0.87607 0.0
H633 H 0.13309 0.32969 0.80947 0.0
H634 H 0.1169 0.37083 0.80573 0.0
H635 H 0.11686 0.37172 0.87228 0.0
H636 H 0.19867 0.45667 0.12767 0.0
H637 H 0.20509 0.45675 0.19291 0.0
H638 H 0.17764 0.39771 0.19199 0.0
H639 H 0.17173 0.39787 0.12644 0.0
Nd640 Nd 0.61803 0.76553 0.98731 0.0
Nd641 Nd 0.58572 0.76176 0.03429 0.0
C642 C 0.64466 0.77446 0.93876 0.0
C643 C 0.64847 0.77853 0.89916 0.0
C644 C 0.66579 0.79244 0.88802 0.0
C645 C 0.66969 0.79685 0.85094 0.0
C646 C 0.65632 0.78753 0.82383 0.0
C647 C 0.63896 0.77349 0.83516 0.0
C648 C 0.63507 0.76905 0.87234 0.0
C649 C 0.59206 0.7305 1.00399 0.0
C650 C 0.58349 0.76621 0.94701 0.0
C651 C 0.55948 0.75294 0.08325 0.0
C652 C 0.55883 0.75721 0.12214 0.0
C653 C 0.57487 0.76586 0.14319 0.0
C654 C 0.57429 0.77092 0.1794 0.0
C655 C 0.55766 0.76757 0.19519 0.0
C656 C 0.5416 0.75867 0.17404 0.0
C657 C 0.5422 0.75354 0.13791 0.0
C658 C 0.6131 0.79665 1.02243 0.0
C659 C 0.62254 0.76327 0.07412 0.0
O660 O 0.64319 0.7865 0.95883 0.0
O661 O 0.6328 0.75763 0.94786 0.0
O662 O 0.60949 0.73631 1.0027 0.0
O663 O 0.5885 0.74284 0.99494 0.0
O664 O 0.60117 0.7719 0.94696 0.0
O665 O 0.57334 0.75903 0.97668 0.0
O666 O 0.5665 0.74254 0.07574 0.0
O667 O 0.56496 0.76672 0.06068 0.0
O668 O 0.59602 0.79226 1.02142 0.0
O669 O 0.61477 0.78305 0.02923 0.0
O670 O 0.60525 0.75944 0.07711 0.0
O671 O 0.63134 0.76796 0.04258 0.0
H672 H 0.67636 0.79995 0.90809 0.0
H673 H 0.68333 0.80748 0.84359 0.0
H674 H 0.62821 0.76612 0.81537 0.0
H675 H 0.62152 0.75836 0.88013 0.0
H676 H 0.58789 0.76901 0.13138 0.0
H677 H 0.58696 0.77794 0.19465 0.0
H678 H 0.52855 0.75569 0.18541 0.0
H679 H 0.52969 0.74694 0.12208 0.0
Nd680 Nd 0.22922 0.85739 0.97298 0.0
Nd681 Nd 0.2315 0.8295 1.0246 0.0
C682 C 0.22227 0.87512 0.92076 0.0
C683 C 0.21841 0.87449 0.88094 0.0
C684 C 0.20598 0.87978 0.86851 0.0
C685 C 0.20146 0.87863 0.83135 0.0
C686 C 0.20949 0.87246 0.80544 0.0
C687 C 0.22218 0.86743 0.81784 0.0
C688 C 0.22649 0.8683 0.85521 0.0
C689 C 0.26394 0.86519 0.99024 0.0
C690 C 0.22605 0.82001 0.93888 0.0
C691 C 0.23954 0.81243 0.07597 0.0
C692 C 0.23585 0.80818 0.11533 0.0
C693 C 0.24131 0.79678 0.13228 0.0
C694 C 0.23737 0.79205 0.16923 0.0
C695 C 0.22786 0.79864 0.19015 0.0
C696 C 0.22253 0.81023 0.17299 0.0
C697 C 0.22646 0.81492 0.13596 0.0
C698 C 0.19718 0.82346 1.0112 0.0
C699 C 0.23064 0.86603 0.05955 0.0
O700 O 0.20956 0.86265 0.94171 0.0
O701 O 0.23872 0.87893 0.93037 0.0
O702 O 0.25889 0.87734 0.98746 0.0
O703 O 0.25095 0.84938 0.98297 0.0
O704 O 0.22007 0.83176 0.93722 0.0
O705 O 0.2345 0.81878 0.96838 0.0
O706 O 0.25036 0.8296 0.06713 0.0
O707 O 0.22545 0.80414 0.05413 0.0
O708 O 0.20065 0.81013 1.01219 0.0
O709 O 0.21125 0.83845 1.01673 0.0
O710 O 0.2342 0.85247 0.06467 0.0
O711 O 0.22663 0.86971 0.02676 0.0
H712 H 0.19947 0.8845 0.88773 0.0
H713 H 0.19172 0.88272 0.82286 0.0
H714 H 0.22847 0.86243 0.79874 0.0
H715 H 0.236 0.86396 0.86401 0.0
H716 H 0.24845 0.79133 0.1168 0.0
H717 H 0.24145 0.7829 0.18116 0.0
H718 H 0.2154 0.81577 0.18819 0.0
H719 H 0.22207 0.8237 0.12336 0.0
Nd720 Nd 0.5869 0.82387 0.53019 0.0
Nd721 Nd 0.61859 0.85195 0.48257 0.0
C722 C 0.56187 0.80613 0.58123 0.0
C723 C 0.56156 0.80127 0.62049 0.0
C724 C 0.55618 0.80955 0.64729 0.0
C725 C 0.55566 0.805 0.68431 0.0
C726 C 0.56042 0.79195 0.69556 0.0
C727 C 0.56574 0.78362 0.66863 0.0
C728 C 0.5663 0.78821 0.63165 0.0
C729 C 0.61501 0.81707 0.51776 0.0
C730 C 0.62357 0.85902 0.56896 0.0
C731 C 0.64385 0.86869 0.43093 0.0
C732 C 0.64488 0.86768 0.39055 0.0
C733 C 0.6615 0.87194 0.37363 0.0
C734 C 0.66233 0.86958 0.33579 0.0
C735 C 0.64652 0.86289 0.31387 0.0
C736 C 0.62994 0.85888 0.33103 0.0
C737 C 0.62912 0.8612 0.36882 0.0
C738 C 0.59269 0.86119 0.49953 0.0
C739 C 0.58311 0.81665 0.44458 0.0
O740 O 0.5681 0.82339 0.57341 0.0
O741 O 0.56708 0.79803 0.55752 0.0
O742 O 0.59803 0.80429 0.51546 0.0
O743 O 0.61605 0.83193 0.52516 0.0
O744 O 0.60572 0.84715 0.5706 0.0
O745 O 0.63287 0.86174 0.53819 0.0
O746 O 0.6419 0.85458 0.44944 0.0
O747 O 0.63365 0.87503 0.44384 0.0
O748 O 0.61012 0.87274 0.49812 0.0
O749 O 0.58912 0.84532 0.4905 0.0
O750 O 0.60105 0.82748 0.44425 0.0
O751 O 0.5733 0.81537 0.47376 0.0
H752 H 0.55238 0.81961 0.63961 0.0
H753 H 0.55175 0.81191 0.70416 0.0
H754 H 0.56924 0.77332 0.67602 0.0
H755 H 0.57041 0.78143 0.61183 0.0
H756 H 0.67379 0.87666 0.38987 0.0
H757 H 0.67528 0.87256 0.32389 0.0
H758 H 0.6175 0.85395 0.31525 0.0
H759 H 0.61607 0.8576 0.38116 0.0
Nd760 Nd 0.16699 0.76181 0.5234 0.0
Nd761 Nd 0.1375 0.76161 0.47145 0.0
C762 C 0.18417 0.75524 0.57698 0.0
C763 C 0.18857 0.75958 0.61613 0.0
C764 C 0.1829 0.77025 0.63547 0.0
C765 C 0.18822 0.77511 0.67201 0.0
C766 C 0.19942 0.76949 0.68987 0.0
C767 C 0.20469 0.75848 0.67042 0.0
C768 C 0.19934 0.7536 0.63403 0.0
C769 C 0.17416 0.79514 0.49847 0.0
C770 C 0.13213 0.76665 0.55699 0.0
C771 C 0.12052 0.76595 0.41415 0.0
C772 C 0.12331 0.77008 0.37402 0.0
C773 C 0.12674 0.78715 0.36096 0.0
C774 C 0.12877 0.79122 0.32355 0.0
C775 C 0.12706 0.77818 0.29769 0.0
C776 C 0.12324 0.76088 0.31044 0.0
C777 C 0.12154 0.75692 0.34814 0.0
C778 C 0.12954 0.72839 0.49903 0.0
C779 C 0.17449 0.76354 0.43693 0.0
O780 O 0.16702 0.7441 0.56845 0.0
O781 O 0.19231 0.76893 0.55416 0.0
O782 O 0.187 0.79111 0.5033 0.0
O783 O 0.159 0.78219 0.50842 0.0
O784 O 0.1459 0.76347 0.56306 0.0
O785 O 0.12697 0.76801 0.52347 0.0
O786 O 0.13063 0.77909 0.43698 0.0
O787 O 0.11772 0.75004 0.42539 0.0
O788 O 0.11761 0.73371 0.49485 0.0
O789 O 0.14516 0.74029 0.48758 0.0
O790 O 0.16178 0.76818 0.43477 0.0
O791 O 0.17784 0.75765 0.46805 0.0
H792 H 0.17466 0.7751 0.62211 0.0
H793 H 0.184 0.78372 0.68589 0.0
H794 H 0.21302 0.75361 0.6833 0.0
H795 H 0.20384 0.74534 0.61966 0.0
H796 H 0.12761 0.79738 0.37962 0.0
H797 H 0.13126 0.80452 0.31475 0.0
H798 H 0.12183 0.75049 0.29127 0.0
H799 H 0.11868 0.7435 0.3569 0.0
Nd800 Nd 0.22774 0.40217 0.53266 0.0
Nd801 Nd 0.2228 0.36958 0.48344 0.0
C802 C 0.23877 0.42858 0.58185 0.0
C803 C 0.23663 0.42981 0.62164 0.0
C804 C 0.23195 0.41479 0.64463 0.0
C805 C 0.22875 0.41574 0.68191 0.0
C806 C 0.23006 0.4317 0.69701 0.0
C807 C 0.23508 0.44682 0.67386 0.0
C808 C 0.2383 0.44585 0.63659 0.0
C809 C 0.19268 0.37531 0.52184 0.0
C810 C 0.22499 0.36425 0.57043 0.0
C811 C 0.21215 0.34397 0.43196 0.0
C812 C 0.21143 0.34322 0.39116 0.0
C813 C 0.19618 0.32921 0.37293 0.0
C814 C 0.19516 0.32876 0.33447 0.0
C815 C 0.20952 0.34218 0.31309 0.0
C816 C 0.22494 0.35593 0.33171 0.0
C817 C 0.22578 0.35656 0.37 0.0
C818 C 0.25819 0.39614 0.49626 0.0
C819 C 0.22155 0.40473 0.4461 0.0
O820 O 0.2488 0.42155 0.5712 0.0
O821 O 0.22388 0.42284 0.56242 0.0
O822 O 0.19711 0.3924 0.5228 0.0
O823 O 0.20624 0.37331 0.52694 0.0
O824 O 0.22946 0.38171 0.57406 0.0
O825 O 0.21999 0.35574 0.53856 0.0
O826 O 0.20098 0.34813 0.44857 0.0
O827 O 0.22836 0.35182 0.44717 0.0
O828 O 0.25291 0.37888 0.49325 0.0
O829 O 0.2452 0.39911 0.49005 0.0
O830 O 0.21677 0.3873 0.44476 0.0
O831 O 0.22862 0.41468 0.47599 0.0
H832 H 0.23053 0.40225 0.63369 0.0
H833 H 0.22517 0.4039 0.69886 0.0
H834 H 0.23598 0.45924 0.68427 0.0
H835 H 0.24176 0.45755 0.61925 0.0
H836 H 0.18486 0.31878 0.38853 0.0
H837 H 0.18293 0.31807 0.32162 0.0
H838 H 0.23659 0.3663 0.3168 0.0
H839 H 0.23774 0.36755 0.38304 0.0
Nd840 Nd 0.15397 0.25209 0.82766 0.0
Nd841 Nd 0.18209 0.282 0.88194 0.0
C842 C 0.1325 0.22587 0.78168 0.0
C843 C 0.12868 0.22568 0.74218 0.0
C844 C 0.11422 0.2101 0.72611 0.0
C845 C 0.11 0.21013 0.68904 0.0
C846 C 0.12016 0.22579 0.66717 0.0
C847 C 0.13472 0.24137 0.68351 0.0
C848 C 0.13891 0.24131 0.72058 0.0
C849 C 0.14782 0.27973 0.84595 0.0
C850 C 0.1876 0.28947 0.79311 0.0
C851 C 0.20105 0.30906 0.9287 0.0
C852 C 0.20055 0.31333 0.96815 0.0
C853 C 0.20145 0.32982 0.97788 0.0
C854 C 0.20122 0.33435 1.01466 0.0
C855 C 0.2007 0.32279 0.0432 0.0
C856 C 0.19939 0.30602 0.03328 0.0
C857 C 0.19921 0.30132 0.99631 0.0
C858 C 0.18839 0.25387 0.86505 0.0
C859 C 0.14833 0.24611 0.9172 0.0
O860 O 0.14891 0.22918 0.79066 0.0
O861 O 0.1268 0.23469 0.80226 0.0
O862 O 0.14631 0.27409 0.81251 0.0
O863 O 0.15278 0.2713 0.86687 0.0
O864 O 0.17588 0.2719 0.78791 0.0
O865 O 0.19104 0.2971 0.82601 0.0
O866 O 0.18825 0.30844 0.90745 0.0
O867 O 0.2052 0.29646 0.92068 0.0
O868 O 0.19187 0.26169 0.89682 0.0
O869 O 0.18311 0.26175 0.8431 0.0
O870 O 0.1592 0.26389 0.92013 0.0
O871 O 0.14548 0.2376 0.88513 0.0
H872 H 0.10603 0.19795 0.74235 0.0
H873 H 0.09853 0.19797 0.67772 0.0
H874 H 0.14301 0.2536 0.66759 0.0
H875 H 0.15008 0.25354 0.73245 0.0
H876 H 0.20222 0.33924 0.95688 0.0
H877 H 0.20154 0.34705 1.02055 0.0
H878 H 0.19902 0.29668 0.05399 0.0
H879 H 0.19829 0.28837 0.98984 0.0
Nd880 Nd 0.73442 0.89314 0.82757 0.0
Nd881 Nd 0.70569 0.89305 0.88055 0.0
C882 C 0.75889 0.90018 0.77552 0.0
C883 C 0.76011 0.89722 0.73598 0.0
C884 C 0.75185 0.90278 0.70939 0.0
C885 C 0.75364 0.90007 0.67215 0.0
C886 C 0.76364 0.89168 0.66067 0.0
C887 C 0.77172 0.88603 0.68754 0.0
C888 C 0.77004 0.88885 0.72463 0.0
C889 C 0.70665 0.8593 0.84823 0.0
C890 C 0.69691 0.89215 0.79398 0.0
C891 C 0.68166 0.88697 0.93362 0.0
C892 C 0.67681 0.88092 0.97217 0.0
C893 C 0.68948 0.88082 0.99699 0.0
C894 C 0.68442 0.87553 0.03358 0.0
C895 C 0.66663 0.87006 0.04602 0.0
C896 C 0.65393 0.8698 1.02076 0.0
C897 C 0.659 0.87527 0.98444 0.0
C898 C 0.73174 0.92682 0.85713 0.0
C899 C 0.74069 0.89038 0.91358 0.0
O900 O 0.75357 0.91172 0.78534 0.0
O901 O 0.75232 0.8857 0.7965 0.0
O902 O 0.72341 0.8629 0.84375 0.0
O903 O 0.70547 0.87309 0.84035 0.0
O904 O 0.71353 0.89462 0.78784 0.0
O905 O 0.69006 0.88983 0.8274 0.0
O906 O 0.68001 0.87476 0.90982 0.0
O907 O 0.69605 0.90295 0.9274 0.0
O908 O 0.71455 0.92174 0.86118 0.0
O909 O 0.73498 0.91425 0.86627 0.0
O910 O 0.72362 0.88659 0.91782 0.0
O911 O 0.74928 0.89575 0.88186 0.0
H912 H 0.74407 0.90926 0.71728 0.0
H913 H 0.74733 0.90476 0.65238 0.0
H914 H 0.77916 0.87914 0.68004 0.0
H915 H 0.7765 0.8844 0.74459 0.0
H916 H 0.70325 0.88492 0.98816 0.0
H917 H 0.6943 0.87547 0.05225 0.0
H918 H 0.64013 0.86577 0.02928 0.0
H919 H 0.64897 0.87526 0.96593 0.0
Nd920 Nd 0.09264 0.84095 0.81968 0.0
Nd921 Nd 0.09464 0.81104 0.86672 0.0
C922 C 0.0851 0.85908 0.76979 0.0
C923 C 0.08795 0.86327 0.73016 0.0
C924 C 0.08572 0.85002 0.70432 0.0
C925 C 0.08899 0.85454 0.66711 0.0
C926 C 0.09469 0.87245 0.65485 0.0
C927 C 0.09677 0.8856 0.68093 0.0
C928 C 0.09341 0.88105 0.71805 0.0
C929 C 0.12689 0.84884 0.84134 0.0
C930 C 0.09686 0.80748 0.77953 0.0
C931 C 0.10099 0.7921 0.91727 0.0
C932 C 0.10569 0.79271 0.95663 0.0
C933 C 0.11468 0.80925 0.97588 0.0
C934 C 0.11987 0.80961 1.01248 0.0
C935 C 0.11578 0.7934 0.03131 0.0
C936 C 0.10659 0.77682 1.01181 0.0
C937 C 0.1017 0.77652 0.97498 0.0
C938 C 0.06063 0.80245 0.84272 0.0
C939 C 0.09403 0.84599 0.9069 0.0
O940 O 0.07356 0.8422 0.77948 0.0
O941 O 0.09973 0.86669 0.7903 0.0
O942 O 0.12202 0.86116 0.83868 0.0
O943 O 0.1142 0.83373 0.8305 0.0
O944 O 0.09176 0.82001 0.77733 0.0
O945 O 0.101 0.80277 0.81114 0.0
O946 O 0.11349 0.80436 0.89585 0.0
O947 O 0.0846 0.78901 0.9091 0.0
O948 O 0.06657 0.79092 0.84399 0.0
O949 O 0.07232 0.8179 0.85504 0.0
O950 O 0.09908 0.83348 0.90805 0.0
O951 O 0.08821 0.84985 0.87635 0.0
H952 H 0.08156 0.8362 0.71285 0.0
H953 H 0.087 0.84394 0.64795 0.0
H954 H 0.10144 0.89959 0.67286 0.0
H955 H 0.09533 0.89153 0.73747 0.0
H956 H 0.11779 0.82193 0.96256 0.0
H957 H 0.12696 0.82269 0.02607 0.0
H958 H 0.10347 0.76404 1.0247 0.0
H959 H 0.0949 0.76357 0.96068 0.0
Nd960 Nd 0.37467 0.14635 0.70555 0.0
Nd961 Nd 0.40649 0.17465 0.6592 0.0
C962 C 0.34896 0.12885 0.75597 0.0
C963 C 0.34755 0.1285 0.79635 0.0
C964 C 0.33051 0.12259 0.81307 0.0
C965 C 0.32913 0.12332 0.85119 0.0
C966 C 0.34482 0.13023 0.87336 0.0
C967 C 0.36187 0.13605 0.85649 0.0
C968 C 0.36321 0.13507 0.81844 0.0
C969 C 0.40016 0.13667 0.68752 0.0
C970 C 0.41062 0.18055 0.74528 0.0
C971 C 0.43174 0.19251 0.60851 0.0
C972 C 0.43246 0.19676 0.56876 0.0
C973 C 0.43043 0.21143 0.55642 0.0
C974 C 0.43133 0.2155 0.51908 0.0
C975 C 0.43436 0.20506 0.49296 0.0
C976 C 0.43658 0.19049 0.50535 0.0
C977 C 0.43568 0.18643 0.54274 0.0
C978 C 0.37908 0.18225 0.67464 0.0
C979 C 0.36962 0.14039 0.61914 0.0
O980 O 0.35174 0.14382 0.73974 0.0
O981 O 0.35875 0.12235 0.74171 0.0
O982 O 0.38266 0.12541 0.68836 0.0
O983 O 0.404 0.15254 0.6973 0.0
O984 O 0.39267 0.16974 0.74581 0.0
O985 O 0.42027 0.18237 0.71552 0.0
O986 O 0.42613 0.17551 0.61765 0.0
O987 O 0.42565 0.20043 0.63069 0.0
O988 O 0.39625 0.19453 0.67741 0.0
O989 O 0.3775 0.16736 0.66503 0.0
O990 O 0.38751 0.15208 0.61778 0.0
O991 O 0.36032 0.13749 0.64988 0.0
H992 H 0.31829 0.11769 0.79657 0.0
H993 H 0.31585 0.11894 0.86326 0.0
H994 H 0.37421 0.14139 0.87277 0.0
H995 H 0.37653 0.13991 0.80617 0.0
H996 H 0.42818 0.21988 0.57559 0.0
H997 H 0.42986 0.22701 0.51075 0.0
H998 H 0.43874 0.18202 0.48612 0.0
H999 H 0.43747 0.17513 0.55126 0.0
Nd1000 Nd 0.85376 0.23206 0.71627 0.0
Nd1001 Nd 0.82419 0.23149 0.66365 0.0
C1002 C 0.8732 0.22971 0.77084 0.0
C1003 C 0.87187 0.22294 0.80899 0.0
C1004 C 0.86512 0.22901 0.83774 0.0
C1005 C 0.86654 0.22464 0.87422 0.0
C1006 C 0.87459 0.21398 0.88289 0.0
C1007 C 0.88048 0.2072 0.85389 0.0
C1008 C 0.87927 0.21175 0.81754 0.0
C1009 C 0.86137 0.26499 0.68705 0.0
C1010 C 0.81482 0.22511 0.7516 0.0
C1011 C 0.80353 0.23827 0.61941 0.0
C1012 C 0.7979 0.23454 0.58035 0.0
C1013 C 0.8077 0.24769 0.55324 0.0
C1014 C 0.80285 0.24399 0.51632 0.0
C1015 C 0.78801 0.22707 0.50551 0.0
C1016 C 0.77796 0.2141 0.53274 0.0
C1017 C 0.78281 0.21779 0.56963 0.0
C1018 C 0.82375 0.19909 0.67018 0.0
C1019 C 0.85953 0.22987 0.62972 0.0
O1020 O 0.86656 0.21777 0.74418 0.0
O1021 O 0.87071 0.24367 0.76575 0.0
O1022 O 0.87339 0.25985 0.69107 0.0
O1023 O 0.84597 0.25307 0.69898 0.0
O1024 O 0.83008 0.22458 0.75546 0.0
O1025 O 0.8099 0.22886 0.71968 0.0
O1026 O 0.82078 0.25015 0.62596 0.0
O1027 O 0.79689 0.2242 0.64173 0.0
O1028 O 0.81835 0.20359 0.64078 0.0
O1029 O 0.82669 0.21035 0.69533 0.0
O1030 O 0.84777 0.23582 0.62475 0.0
O1031 O 0.86258 0.22513 0.66237 0.0
H1032 H 0.85934 0.2377 0.83223 0.0
H1033 H 0.86206 0.2303 0.89573 0.0
H1034 H 0.88652 0.19874 0.85933 0.0
H1035 H 0.88477 0.20701 0.79615 0.0
H1036 H 0.8193 0.26079 0.56048 0.0
H1037 H 0.81103 0.25425 0.49617 0.0
H1038 H 0.76626 0.20105 0.52556 0.0
H1039 H 0.77477 0.20742 0.58972 0.0
Nd1040 Nd 0.76212 0.61734 0.71 0.0
Nd1041 Nd 0.75976 0.58609 0.66182 0.0
C1042 C 0.77052 0.64337 0.75941 0.0
C1043 C 0.77512 0.64762 0.7987 0.0
C1044 C 0.79009 0.66456 0.80833 0.0
C1045 C 0.79436 0.66947 0.84503 0.0
C1046 C 0.78345 0.65776 0.87339 0.0
C1047 C 0.76875 0.64047 0.86365 0.0
C1048 C 0.76467 0.63543 0.82675 0.0
C1049 C 0.72746 0.59112 0.6918 0.0
C1050 C 0.76404 0.58314 0.74877 0.0
C1051 C 0.75212 0.56088 0.61114 0.0
C1052 C 0.75596 0.56113 0.57169 0.0
C1053 C 0.7496 0.54467 0.55263 0.0
C1054 C 0.75375 0.54475 0.51552 0.0
C1055 C 0.7644 0.56134 0.49666 0.0
C1056 C 0.7706 0.57784 0.51593 0.0
C1057 C 0.76645 0.57772 0.55306 0.0
C1058 C 0.79417 0.61424 0.67516 0.0
C1059 C 0.76024 0.6227 0.62349 0.0
O1060 O 0.78271 0.64264 0.73839 0.0
O1061 O 0.75374 0.63101 0.7511 0.0
O1062 O 0.7329 0.60843 0.69412 0.0
O1063 O 0.73995 0.58773 0.70084 0.0
O1064 O 0.76908 0.60063 0.74945 0.0
O1065 O 0.75732 0.57318 0.71877 0.0
O1066 O 0.74078 0.56653 0.62054 0.0
O1067 O 0.76632 0.56707 0.63276 0.0
O1068 O 0.79041 0.59735 0.67594 0.0
O1069 O 0.78024 0.61527 0.668 0.0
O1070 O 0.75696 0.60564 0.61987 0.0
O1071 O 0.76447 0.63113 0.65538 0.0
H1072 H 0.79839 0.67416 0.78731 0.0
H1073 H 0.80614 0.68265 0.85106 0.0
H1074 H 0.75996 0.63103 0.88441 0.0
H1075 H 0.75313 0.62217 0.82021 0.0
H1076 H 0.74158 0.53172 0.56657 0.0
H1077 H 0.74893 0.53179 0.50181 0.0
H1078 H 0.77859 0.59087 0.5023 0.0
H1079 H 0.77154 0.59059 0.56731 0.0
Nd1080 Nd 0.80438 0.7028 0.31467 0.0
Nd1081 Nd 0.83185 0.73434 0.36513 0.0
C1082 C 0.78972 0.67888 0.26038 0.0
C1083 C 0.78952 0.67876 0.21973 0.0
C1084 C 0.79214 0.66579 0.20078 0.0
C1085 C 0.79276 0.66576 0.16248 0.0
C1086 C 0.79035 0.67851 0.14182 0.0
C1087 C 0.78729 0.69125 0.1611 0.0
C1088 C 0.7871 0.69151 0.19944 0.0
C1089 C 0.79505 0.72862 0.33125 0.0
C1090 C 0.84035 0.73893 0.27894 0.0
C1091 C 0.84762 0.75971 0.41639 0.0
C1092 C 0.85195 0.76047 0.45568 0.0
C1093 C 0.85701 0.77647 0.47559 0.0
C1094 C 0.86201 0.7777 0.51245 0.0
C1095 C 0.86209 0.76292 0.53021 0.0
C1096 C 0.85677 0.7468 0.51009 0.0
C1097 C 0.85172 0.74558 0.47328 0.0
C1098 C 0.84046 0.70761 0.35018 0.0
C1099 C 0.79677 0.69623 0.40035 0.0
O1100 O 0.80531 0.6832 0.27584 0.0
O1101 O 0.781 0.68586 0.27752 0.0
O1102 O 0.78333 0.71131 0.32803 0.0
O1103 O 0.81109 0.73212 0.32386 0.0
O1104 O 0.82801 0.72145 0.2769 0.0
O1105 O 0.84307 0.74837 0.30945 0.0
O1106 O 0.83033 0.7524 0.40757 0.0
O1107 O 0.8566 0.75471 0.39457 0.0
O1108 O 0.85269 0.72471 0.35417 0.0
O1109 O 0.82493 0.7055 0.35656 0.0
O1110 O 0.80836 0.71406 0.40354 0.0
O1111 O 0.79457 0.68751 0.36908 0.0
H1112 H 0.79381 0.65566 0.21566 0.0
H1113 H 0.79542 0.65588 0.14923 0.0
H1114 H 0.78489 0.70106 0.14672 0.0
H1115 H 0.78503 0.70169 0.21318 0.0
H1116 H 0.85724 0.78811 0.46252 0.0
H1117 H 0.86573 0.79021 0.52707 0.0
H1118 H 0.85689 0.73521 0.52252 0.0
H1119 H 0.84789 0.7331 0.45838 0.0
Nd1120 Nd 0.28776 0.09788 0.30704 0.0
Nd1121 Nd 0.2597 0.1014 0.35606 0.0
C1122 C 0.31091 0.10069 0.25479 0.0
C1123 C 0.3149 0.10564 0.21552 0.0
C1124 C 0.30128 0.09806 0.18841 0.0
C1125 C 0.3056 0.10309 0.15154 0.0
C1126 C 0.3236 0.11592 0.14085 0.0
C1127 C 0.33719 0.12312 0.16817 0.0
C1128 C 0.33289 0.11802 0.20485 0.0
C1129 C 0.26052 0.06572 0.33437 0.0
C1130 C 0.25479 0.10279 0.26937 0.0
C1131 C 0.23555 0.09727 0.40688 0.0
C1132 C 0.2347 0.09989 0.44657 0.0
C1133 C 0.21816 0.08932 0.4652 0.0
C1134 C 0.21672 0.09212 0.50246 0.0
C1135 C 0.2318 0.10564 0.52195 0.0
C1136 C 0.24852 0.11597 0.50323 0.0
C1137 C 0.24996 0.1131 0.46595 0.0
C1138 C 0.28895 0.13338 0.33248 0.0
C1139 C 0.2961 0.10129 0.39391 0.0
O1140 O 0.31424 0.11389 0.27768 0.0
O1141 O 0.29601 0.08543 0.26295 0.0
O1142 O 0.27746 0.06971 0.33114 0.0
O1143 O 0.25807 0.07834 0.32202 0.0
O1144 O 0.27163 0.1056 0.267 0.0
O1145 O 0.24568 0.09826 0.30062 0.0
O1146 O 0.23843 0.08405 0.39667 0.0
O1147 O 0.24446 0.11204 0.38697 0.0
O1148 O 0.27254 0.13113 0.33336 0.0
O1149 O 0.28887 0.1194 0.34378 0.0
O1150 O 0.27976 0.09985 0.39848 0.0
O1151 O 0.30303 0.10227 0.36097 0.0
H1152 H 0.28725 0.0884 0.19569 0.0
H1153 H 0.29471 0.09716 0.13156 0.0
H1154 H 0.35132 0.13257 0.16127 0.0
H1155 H 0.34371 0.12376 0.22504 0.0
H1156 H 0.20626 0.07898 0.45081 0.0
H1157 H 0.20375 0.08364 0.51597 0.0
H1158 H 0.2604 0.12663 0.51708 0.0
H1159 H 0.2629 0.12137 0.45214 0.0
Nd1160 Nd 0.89375 0.1841 0.31765 0.0
Nd1161 Nd 0.89568 0.15597 0.37279 0.0
C1162 C 0.8851 0.20179 0.26895 0.0
C1163 C 0.88438 0.20154 0.2285 0.0
C1164 C 0.87571 0.2096 0.20959 0.0
C1165 C 0.87529 0.20954 0.17117 0.0
C1166 C 0.88354 0.20139 0.15086 0.0
C1167 C 0.89162 0.19278 0.17021 0.0
C1168 C 0.89202 0.19284 0.20847 0.0
C1169 C 0.92742 0.18685 0.32451 0.0
C1170 C 0.89118 0.14732 0.28459 0.0
C1171 C 0.90173 0.13509 0.41813 0.0
C1172 C 0.89732 0.13011 0.45703 0.0
C1173 C 0.90665 0.12311 0.47701 0.0
C1174 C 0.90275 0.11877 0.51414 0.0
C1175 C 0.88937 0.12129 0.53199 0.0
C1176 C 0.88004 0.12829 0.51171 0.0
C1177 C 0.88402 0.13271 0.4747 0.0
C1178 C 0.8622 0.15263 0.36039 0.0
C1179 C 0.89466 0.19129 0.40623 0.0
O1180 O 0.87307 0.18669 0.28507 0.0
O1181 O 0.90136 0.20883 0.28391 0.0
O1182 O 0.92144 0.19032 0.29465 0.0
O1183 O 0.91638 0.18359 0.35051 0.0
O1184 O 0.88568 0.15939 0.28185 0.0
O1185 O 0.89845 0.1453 0.31533 0.0
O1186 O 0.91383 0.15219 0.41151 0.0
O1187 O 0.88779 0.1287 0.3957 0.0
O1188 O 0.86614 0.14829 0.39174 0.0
O1189 O 0.87474 0.15642 0.33807 0.0
O1190 O 0.89977 0.17897 0.41128 0.0
O1191 O 0.88984 0.19456 0.37374 0.0
H1192 H 0.86945 0.21613 0.22453 0.0
H1193 H 0.86899 0.21636 0.15742 0.0
H1194 H 0.89777 0.186 0.15579 0.0
H1195 H 0.89845 0.18618 0.22245 0.0
H1196 H 0.917 0.12106 0.46392 0.0
H1197 H 0.9101 0.11328 0.5288 0.0
H1198 H 0.86988 0.13069 0.52463 0.0
H1199 H 0.87679 0.1383 0.45991 0.0
Nd1200 Nd 0.25714 0.1608 0.86079 0.0
Nd1201 Nd 0.28584 0.188 0.80386 0.0
C1202 C 0.23011 0.14096 0.90651 0.0
C1203 C 0.22881 0.13655 0.94618 0.0
C1204 C 0.23066 0.14934 0.97293 0.0
C1205 C 0.23014 0.14524 1.01018 0.0
C1206 C 0.22781 0.1283 1.02163 0.0
C1207 C 0.22568 0.11543 0.99492 0.0
C1208 C 0.22606 0.11946 0.95769 0.0
C1209 C 0.28569 0.15564 0.84371 0.0
C1210 C 0.29492 0.19431 0.89308 0.0
C1211 C 0.31288 0.20682 0.75711 0.0
C1212 C 0.31714 0.20726 0.71767 0.0
C1213 C 0.30907 0.19142 0.69585 0.0
C1214 C 0.31418 0.19222 0.65898 0.0
C1215 C 0.32753 0.20882 0.64335 0.0
C1216 C 0.33529 0.22462 0.66528 0.0
C1217 C 0.33015 0.22383 0.70189 0.0
C1218 C 0.25563 0.19141 0.8143 0.0
C1219 C 0.25152 0.15132 0.77229 0.0
O1220 O 0.23482 0.15778 0.89739 0.0
O1221 O 0.23778 0.13405 0.88574 0.0
O1222 O 0.27861 0.15198 0.87625 0.0
O1223 O 0.27686 0.16002 0.82287 0.0
O1224 O 0.278 0.18147 0.90073 0.0
O1225 O 0.30105 0.19867 0.85902 0.0
O1226 O 0.31104 0.19282 0.77593 0.0
O1227 O 0.30111 0.21188 0.76665 0.0
O1228 O 0.26356 0.19339 0.78291 0.0
O1229 O 0.26425 0.18877 0.83964 0.0
O1230 O 0.26904 0.16328 0.76824 0.0
O1231 O 0.24287 0.1496 0.80382 0.0
H1232 H 0.23276 0.16263 0.96516 0.0
H1233 H 0.232 0.15553 0.03004 0.0
H1234 H 0.22364 0.10217 1.00282 0.0
H1235 H 0.2244 0.10924 0.93785 0.0
H1236 H 0.29904 0.1784 0.70744 0.0
H1237 H 0.30809 0.17979 0.64299 0.0
H1238 H 0.34542 0.23769 0.65411 0.0
H1239 H 0.33657 0.23621 0.7181 0.0
Nd1240 Nd 0.83334 0.09458 0.8684 0.0
Nd1241 Nd 0.8018 0.09185 0.81971 0.0
C1242 C 0.85291 0.08968 0.9191 0.0
C1243 C 0.85668 0.09309 0.95861 0.0
C1244 C 0.85652 0.10784 0.97595 0.0
C1245 C 0.86088 0.11128 1.01312 0.0
C1246 C 0.86534 0.09996 0.03388 0.0
C1247 C 0.86505 0.08495 1.01641 0.0
C1248 C 0.86081 0.08161 0.97921 0.0
C1249 C 0.8366 0.12697 0.84597 0.0
C1250 C 0.79719 0.09482 0.90695 0.0
C1251 C 0.78069 0.09462 0.76885 0.0
C1252 C 0.78131 0.10164 0.73139 0.0
C1253 C 0.79691 0.10815 0.70916 0.0
C1254 C 0.79677 0.11406 0.67324 0.0
C1255 C 0.78099 0.11337 0.65871 0.0
C1256 C 0.76554 0.10713 0.68142 0.0
C1257 C 0.76572 0.10136 0.71728 0.0
C1258 C 0.79663 0.05939 0.84628 0.0
C1259 C 0.83938 0.09663 0.78157 0.0
O1260 O 0.83637 0.077 0.90987 0.0
O1261 O 0.85946 0.10408 0.89784 0.0
O1262 O 0.85065 0.12454 0.84757 0.0
O1263 O 0.82254 0.11298 0.85666 0.0
O1264 O 0.81211 0.09341 0.91116 0.0
O1265 O 0.79103 0.09578 0.8742 0.0
O1266 O 0.78878 0.1066 0.79481 0.0
O1267 O 0.78302 0.08049 0.77217 0.0
O1268 O 0.78382 0.06359 0.84344 0.0
O1269 O 0.81166 0.07198 0.83389 0.0
O1270 O 0.82588 0.10029 0.77994 0.0
O1271 O 0.84364 0.09134 0.81233 0.0
H1272 H 0.85327 0.11684 0.96066 0.0
H1273 H 0.86113 0.12308 1.0253 0.0
H1274 H 0.86801 0.0757 0.03149 0.0
H1275 H 0.86086 0.07007 0.96643 0.0
H1276 H 0.80912 0.10857 0.71959 0.0
H1277 H 0.80901 0.11938 0.65678 0.0
H1278 H 0.75311 0.10633 0.67121 0.0
H1279 H 0.75351 0.0964 0.73388 0.0
Nd1280 Nd 0.89562 0.73532 0.86375 0.0
Nd1281 Nd 0.89287 0.70559 0.81082 0.0
C1282 C 0.90418 0.75965 0.91659 0.0
C1283 C 0.89994 0.75975 0.95602 0.0
C1284 C 0.91333 0.76341 0.9827 0.0
C1285 C 0.90954 0.76384 1.01988 0.0
C1286 C 0.89226 0.7607 0.03128 0.0
C1287 C 0.87893 0.75715 1.00448 0.0
C1288 C 0.8827 0.75668 0.96741 0.0
C1289 C 0.86073 0.70782 0.84872 0.0
C1290 C 0.89404 0.69733 0.89633 0.0
C1291 C 0.88423 0.6812 0.75773 0.0
C1292 C 0.88267 0.67827 0.7177 0.0
C1293 C 0.87819 0.68857 0.69396 0.0
C1294 C 0.87522 0.68421 0.65656 0.0
C1295 C 0.87646 0.66937 0.64238 0.0
C1296 C 0.88134 0.65942 0.66625 0.0
C1297 C 0.88441 0.66383 0.70338 0.0
C1298 C 0.92776 0.73223 0.82737 0.0
C1299 C 0.89067 0.74079 0.7783 0.0
O1300 O 0.91454 0.75275 0.90764 0.0
O1301 O 0.89085 0.75538 0.89333 0.0
O1302 O 0.86494 0.72475 0.85293 0.0
O1303 O 0.87455 0.70629 0.85419 0.0
O1304 O 0.89849 0.71462 0.90208 0.0
O1305 O 0.88913 0.68978 0.86363 0.0
O1306 O 0.87265 0.68505 0.7733 0.0
O1307 O 0.90053 0.68994 0.77235 0.0
O1308 O 0.92276 0.71512 0.82313 0.0
O1309 O 0.91472 0.73511 0.82108 0.0
O1310 O 0.88554 0.72334 0.77533 0.0
O1311 O 0.89834 0.75002 0.80862 0.0
H1312 H 0.92678 0.76594 0.97482 0.0
H1313 H 0.92009 0.76642 0.03969 0.0
H1314 H 0.86558 0.75498 1.01206 0.0
H1315 H 0.87207 0.75399 0.9477 0.0
H1316 H 0.87662 0.6997 0.70443 0.0
H1317 H 0.87139 0.69202 0.63891 0.0
H1318 H 0.88266 0.64807 0.65626 0.0
H1319 H 0.88775 0.65564 0.72115 0.0
Nd1320 Nd 0.82421 0.58797 0.16244 0.0
Nd1321 Nd 0.85286 0.62076 0.20753 0.0
C1322 C 0.80645 0.56223 0.11286 0.0
C1323 C 0.80146 0.56174 0.07364 0.0
C1324 C 0.81038 0.55729 0.04652 0.0
C1325 C 0.80576 0.5568 1.00955 0.0
C1326 C 0.79201 0.56066 0.99871 0.0
C1327 C 0.78302 0.565 0.02594 0.0
C1328 C 0.78766 0.56552 0.06284 0.0
C1329 C 0.81681 0.61565 0.17342 0.0
C1330 C 0.85878 0.62411 0.1209 0.0
C1331 C 0.86943 0.64746 0.25622 0.0
C1332 C 0.8703 0.64885 0.29671 0.0
C1333 C 0.87014 0.66357 0.31428 0.0
C1334 C 0.86939 0.6642 0.3526 0.0
C1335 C 0.86904 0.65022 0.37433 0.0
C1336 C 0.86978 0.63581 0.3564 0.0
C1337 C 0.87019 0.63503 0.31822 0.0
C1338 C 0.86183 0.59436 0.19377 0.0
C1339 C 0.81779 0.58575 0.24911 0.0
O1340 O 0.82376 0.56861 0.12058 0.0
O1341 O 0.79834 0.56752 0.13634 0.0
O1342 O 0.80425 0.59862 0.17565 0.0
O1343 O 0.8319 0.6171 0.16591 0.0
O1344 O 0.84694 0.60626 0.1205 0.0
O1345 O 0.86174 0.63389 0.15093 0.0
O1346 O 0.85365 0.64299 0.24134 0.0
O1347 O 0.87728 0.63916 0.24072 0.0
O1348 O 0.87357 0.61175 0.19443 0.0
O1349 O 0.84599 0.59115 0.20228 0.0
O1350 O 0.83017 0.60334 0.24921 0.0
O1351 O 0.81459 0.57555 0.21958 0.0
H1352 H 0.82102 0.55424 0.05389 0.0
H1353 H 0.81317 0.55363 0.98943 0.0
H1354 H 0.77218 0.56777 1.01883 0.0
H1355 H 0.78036 0.56887 0.08288 0.0
H1356 H 0.87004 0.67432 0.29829 0.0
H1357 H 0.86857 0.67539 0.36505 0.0
H1358 H 0.86998 0.62496 0.3718 0.0
H1359 H 0.87021 0.62346 0.30552 0.0
Nd1360 Nd 0.40747 0.23251 0.15224 0.0
Nd1361 Nd 0.3755 0.22862 0.20352 0.0
C1362 C 0.43551 0.2413 0.10843 0.0
C1363 C 0.43655 0.237 0.0697 0.0
C1364 C 0.42089 0.2298 0.04751 0.0
C1365 C 0.42159 0.22495 1.01122 0.0
C1366 C 0.43794 0.22711 0.99631 0.0
C1367 C 0.45364 0.23449 1.01865 0.0
C1368 C 0.45293 0.23938 0.05497 0.0
C1369 C 0.37771 0.19839 0.15858 0.0
C1370 C 0.37023 0.22886 0.11647 0.0
C1371 C 0.35136 0.21907 0.25759 0.0
C1372 C 0.351 0.2182 0.29829 0.0
C1373 C 0.33852 0.20201 0.31643 0.0
C1374 C 0.33778 0.20114 0.35484 0.0
C1375 C 0.34949 0.2165 0.3761 0.0
C1376 C 0.36184 0.23273 0.35766 0.0
C1377 C 0.36268 0.23353 0.31943 0.0
C1378 C 0.39936 0.26316 0.17932 0.0
C1379 C 0.41234 0.23114 0.24136 0.0
O1380 O 0.42885 0.25216 0.11465 0.0
O1381 O 0.4291 0.22736 0.13097 0.0
O1382 O 0.38735 0.20361 0.12889 0.0
O1383 O 0.38507 0.21013 0.18309 0.0
O1384 O 0.38834 0.23738 0.11495 0.0
O1385 O 0.36121 0.22126 0.14715 0.0
O1386 O 0.35451 0.20741 0.24008 0.0
O1387 O 0.35952 0.23528 0.24241 0.0
O1388 O 0.38191 0.25687 0.18343 0.0
O1389 O 0.4038 0.25162 0.18942 0.0
O1390 O 0.39664 0.23085 0.24514 0.0
O1391 O 0.41972 0.23195 0.20883 0.0
H1392 H 0.40804 0.22769 0.05843 0.0
H1393 H 0.40916 0.21906 0.99515 0.0
H1394 H 0.46651 0.23652 1.00803 0.0
H1395 H 0.46515 0.24487 0.07166 0.0
H1396 H 0.3293 0.19002 0.30084 0.0
H1397 H 0.32823 0.18834 0.36782 0.0
H1398 H 0.37089 0.24498 0.37275 0.0
H1399 H 0.37245 0.24624 0.30646 0.0
Nd1400 Nd 0.76192 0.16965 0.17009 0.0
Nd1401 Nd 0.76429 0.1408 0.21849 0.0
C1402 C 0.75498 0.18726 0.11791 0.0
C1403 C 0.75783 0.19026 0.07797 0.0
C1404 C 0.76108 0.17862 0.05574 0.0
C1405 C 0.76427 0.18206 1.01812 0.0
C1406 C 0.76433 0.19725 1.00187 0.0
C1407 C 0.76104 0.20883 1.02443 0.0
C1408 C 0.75783 0.20536 0.06196 0.0
C1409 C 0.79641 0.17638 0.18634 0.0
C1410 C 0.7636 0.13434 0.13236 0.0
C1411 C 0.77261 0.12445 0.27133 0.0
C1412 C 0.77246 0.12403 0.31203 0.0
C1413 C 0.7865 0.12327 0.33116 0.0
C1414 C 0.78722 0.12396 0.36954 0.0
C1415 C 0.77362 0.12503 0.39003 0.0
C1416 C 0.75926 0.12528 0.37052 0.0
C1417 C 0.75883 0.12503 0.33218 0.0
C1418 C 0.72947 0.13247 0.20057 0.0
C1419 C 0.76431 0.17666 0.25641 0.0
O1420 O 0.74309 0.17076 0.129 0.0
O1421 O 0.7697 0.19488 0.13816 0.0
O1422 O 0.79215 0.18916 0.18702 0.0
O1423 O 0.78285 0.16144 0.17769 0.0
O1424 O 0.7578 0.14634 0.13023 0.0
O1425 O 0.76974 0.13139 0.16343 0.0
O1426 O 0.78453 0.13982 0.25596 0.0
O1427 O 0.7568 0.11682 0.25455 0.0
O1428 O 0.73487 0.12053 0.20284 0.0
O1429 O 0.74211 0.14825 0.20936 0.0
O1430 O 0.76904 0.16393 0.25826 0.0
O1431 O 0.75839 0.18017 0.22562 0.0
H1432 H 0.76122 0.16691 0.06746 0.0
H1433 H 0.76654 0.17271 1.00175 0.0
H1434 H 0.7613 0.22083 1.01326 0.0
H1435 H 0.75552 0.21462 0.0786 0.0
H1436 H 0.79711 0.12239 0.31632 0.0
H1437 H 0.79867 0.12401 0.38297 0.0
H1438 H 0.74819 0.12559 0.38475 0.0
H1439 H 0.74782 0.12566 0.31829 0.0
H1440 H 0.0952 0.39285 1.00281 0.0
H1441 H 0.15177 0.43649 1.00306 0.0
H1442 H 0.14144 0.45927 1.00911 0.0
H1443 H 0.07785 0.4157 0.94882 0.0
H1444 H 0.0565 0.40612 0.97335 0.0
H1445 H 0.06862 0.39365 0.9705 0.0
H1446 H 0.06891 0.39167 0.04123 0.0
H1447 H 0.05667 0.40401 0.0443 0.0
H1448 H 0.07814 0.41234 0.06784 0.0
H1449 H 0.12398 0.47713 1.01488 0.0
H1450 H 0.10146 0.48788 1.02 0.0
H1451 H 0.05719 0.43175 1.01342 0.0
C1452 C 0.10548 0.40719 1.00433 0.0
C1453 C 0.12426 0.41297 1.00253 0.0
C1454 C 0.13727 0.43184 1.00446 0.0
C1455 C 0.13153 0.44483 1.00784 0.0
C1456 C 0.11277 0.43862 1.00907 0.0
C1457 C 0.10001 0.42019 1.00736 0.0
C1458 C 0.0807 0.41678 1.00852 0.0
C1459 C 0.07032 0.40752 0.97319 0.0
C1460 C 0.07051 0.40555 0.0425 0.0
C1461 C 0.08445 0.43616 1.01117 0.0
C1462 C 0.10297 0.44867 1.0116 0.0
C1463 C 0.10946 0.46742 1.01449 0.0
C1464 C 0.09662 0.4734 1.01732 0.0
C1465 C 0.07764 0.46063 1.01706 0.0
C1466 C 0.07162 0.44186 1.01361 0.0
H1467 H 0.59925 0.70307 1.01285 0.0
H1468 H 0.55437 0.71408 1.00459 0.0
H1469 H 0.53224 0.68077 1.0099 0.0
H1470 H 0.57929 0.66289 0.95895 0.0
H1471 H 0.58879 0.65182 0.98614 0.0
H1472 H 0.60056 0.67636 0.98295 0.0
H1473 H 0.60032 0.67873 0.05362 0.0
H1474 H 0.58864 0.65421 0.05705 0.0
H1475 H 0.57891 0.66675 0.07787 0.0
H1476 H 0.51528 0.64547 1.01614 0.0
H1477 H 0.50558 0.61251 1.02246 0.0
H1478 H 0.56252 0.62652 1.02415 0.0
C1479 C 0.58477 0.69855 1.01231 0.0
C1480 C 0.57845 0.71104 1.00835 0.0
C1481 C 0.55941 0.70461 1.00763 0.0
C1482 C 0.5468 0.68577 1.0106 0.0
C1483 C 0.55358 0.67375 1.01408 0.0
C1484 C 0.57217 0.68001 1.01489 0.0
C1485 C 0.57628 0.66465 1.01815 0.0
C1486 C 0.58685 0.66389 0.98454 0.0
C1487 C 0.58664 0.66618 0.05379 0.0
C1488 C 0.55711 0.64862 1.01913 0.0
C1489 C 0.54408 0.65396 1.0169 0.0
C1490 C 0.5254 0.64119 1.01783 0.0
C1491 C 0.52001 0.62256 1.02138 0.0
C1492 C 0.53333 0.61707 1.02374 0.0
C1493 C 0.55202 0.6303 1.02231 0.0
H1494 H 0.37028 0.93516 0.99644 0.0
H1495 H 0.37956 0.88939 1.00967 0.0
H1496 H 0.34633 0.86793 1.00212 0.0
H1497 H 0.33079 0.91737 0.04849 0.0
H1498 H 0.31957 0.92642 1.02049 0.0
H1499 H 0.34414 0.93789 1.02211 0.0
H1500 H 0.34551 0.93565 0.95163 0.0
H1501 H 0.32091 0.92439 0.94971 0.0
H1502 H 0.33275 0.91369 0.92977 0.0
H1503 H 0.31137 0.85168 0.99794 0.0
H1504 H 0.27841 0.8424 0.996 0.0
H1505 H 0.29315 0.89938 0.98811 0.0
C1506 C 0.36539 0.92062 0.997 0.0
C1507 C 0.37741 0.91388 1.00356 0.0
C1508 C 0.37051 0.89478 1.00448 0.0
C1509 C 0.35168 0.88252 1.00028 0.0
C1510 C 0.34008 0.88966 0.99508 0.0
C1511 C 0.34676 0.9083 0.99314 0.0
C1512 C 0.33154 0.9127 0.98968 0.0
C1513 C 0.33152 0.92427 1.02213 0.0
C1514 C 0.33275 0.92216 0.95301 0.0
C1515 C 0.31518 0.89367 0.99081 0.0
C1516 C 0.32026 0.88048 0.9935 0.0
C1517 C 0.30727 0.86191 0.99557 0.0
C1518 C 0.28863 0.85676 0.9946 0.0
C1519 C 0.28332 0.87019 0.99201 0.0
C1520 C 0.2968 0.88881 0.99019 0.0
H1521 H 0.42861 0.06074 0.67729 0.0
H1522 H 0.48559 0.1033 0.67314 0.0
H1523 H 0.47616 0.12683 0.67724 0.0
H1524 H 0.41164 0.08314 0.62105 0.0
H1525 H 0.39058 0.07465 0.64627 0.0
H1526 H 0.40212 0.06159 0.6448 0.0
H1527 H 0.40306 0.06124 0.71565 0.0
H1528 H 0.39142 0.07421 0.71735 0.0
H1529 H 0.41306 0.08255 0.74027 0.0
H1530 H 0.4596 0.14556 0.68176 0.0
H1531 H 0.43782 0.15729 0.68523 0.0
H1532 H 0.39243 0.10161 0.6833 0.0
C1533 C 0.43917 0.075 0.67749 0.0
C1534 C 0.45781 0.08026 0.67503 0.0
C1535 C 0.4712 0.09905 0.6751 0.0
C1536 C 0.46596 0.11246 0.67739 0.0
C1537 C 0.44733 0.10674 0.67935 0.0
C1538 C 0.4342 0.08841 0.67932 0.0
C1539 C 0.41509 0.08557 0.6806 0.0
C1540 C 0.40423 0.07566 0.64613 0.0
C1541 C 0.40508 0.07529 0.71555 0.0
C1542 C 0.41939 0.10516 0.68137 0.0
C1543 C 0.43801 0.11728 0.68087 0.0
C1544 C 0.445 0.13616 0.68205 0.0
C1545 C 0.43259 0.14269 0.68398 0.0
C1546 C 0.4135 0.13033 0.68439 0.0
C1547 C 0.40695 0.1114 0.68283 0.0
H1548 H 0.93246 0.36919 0.65674 0.0
H1549 H 0.88826 0.38114 0.66647 0.0
H1550 H 0.86595 0.34787 0.67055 0.0
H1551 H 0.90806 0.32858 0.60111 0.0
H1552 H 0.91883 0.31726 0.62308 0.0
H1553 H 0.93081 0.34182 0.61956 0.0
H1554 H 0.9354 0.34446 0.68985 0.0
H1555 H 0.92353 0.31996 0.69356 0.0
H1556 H 0.91575 0.33295 0.71939 0.0
H1557 H 0.84897 0.31296 0.67699 0.0
H1558 H 0.83912 0.28016 0.68575 0.0
H1559 H 0.89503 0.29243 0.66932 0.0
C1560 C 0.91808 0.36485 0.65955 0.0
C1561 C 0.912 0.37761 0.66136 0.0
C1562 C 0.8931 0.37145 0.66501 0.0
C1563 C 0.88039 0.35264 0.66724 0.0
C1564 C 0.88691 0.34037 0.66532 0.0
C1565 C 0.90534 0.34631 0.66139 0.0
C1566 C 0.90913 0.33066 0.66092 0.0
C1567 C 0.91718 0.32952 0.62397 0.0
C1568 C 0.92168 0.3321 0.69284 0.0
C1569 C 0.88999 0.31488 0.66601 0.0
C1570 C 0.87727 0.32062 0.66832 0.0
C1571 C 0.8588 0.30832 0.67485 0.0
C1572 C 0.85333 0.28977 0.67975 0.0
C1573 C 0.86635 0.28388 0.67813 0.0
C1574 C 0.88477 0.29656 0.67047 0.0
H1575 H 0.62324 0.5606 0.66766 0.0
H1576 H 0.60993 0.50393 0.66809 0.0
H1577 H 0.64296 0.51394 0.67469 0.0
H1578 H 0.66416 0.578 0.61497 0.0
H1579 H 0.67562 0.59914 0.64007 0.0
H1580 H 0.6511 0.58718 0.63578 0.0
H1581 H 0.64788 0.5865 0.70637 0.0
H1582 H 0.67239 0.59851 0.71087 0.0
H1583 H 0.65881 0.57691 0.73374 0.0
H1584 H 0.67824 0.53114 0.68229 0.0
H1585 H 0.71143 0.55346 0.68955 0.0
H1586 H 0.69982 0.59794 0.68191 0.0
C1587 C 0.62721 0.55024 0.66915 0.0
C1588 C 0.61414 0.53153 0.66739 0.0
C1589 C 0.61986 0.51838 0.66937 0.0
C1590 C 0.63854 0.52395 0.6731 0.0
C1591 C 0.65115 0.54264 0.67458 0.0
C1592 C 0.64561 0.55552 0.67256 0.0
C1593 C 0.66153 0.57474 0.67456 0.0
C1594 C 0.6632 0.58538 0.63924 0.0
C1595 C 0.66006 0.58474 0.7084 0.0
C1596 C 0.67701 0.57081 0.67819 0.0
C1597 C 0.67094 0.55228 0.67827 0.0
C1598 C 0.68309 0.54567 0.68212 0.0
C1599 C 0.70186 0.55838 0.6862 0.0
C1600 C 0.7081 0.57736 0.68626 0.0
C1601 C 0.69548 0.58351 0.68189 0.0
H1602 H 0.89645 0.60047 0.18923 0.0
H1603 H 0.83984 0.55696 0.19261 0.0
H1604 H 0.85001 0.53401 0.18886 0.0
H1605 H 0.91228 0.57999 0.12552 0.0
H1606 H 0.93416 0.58844 0.14748 0.0
H1607 H 0.92216 0.60098 0.15122 0.0
H1608 H 0.92368 0.59977 0.22189 0.0
H1609 H 0.9356 0.58711 0.21837 0.0
H1610 H 0.91474 0.57797 0.24446 0.0
H1611 H 0.86695 0.51605 0.18265 0.0
H1612 H 0.88885 0.50488 0.17369 0.0
H1613 H 0.93389 0.56073 0.17646 0.0
C1614 C 0.88616 0.58611 0.18925 0.0
C1615 C 0.86738 0.58041 0.1912 0.0
C1616 C 0.85432 0.56154 0.19117 0.0
C1617 C 0.85997 0.54846 0.18913 0.0
C1618 C 0.87869 0.55459 0.18744 0.0
C1619 C 0.89154 0.573 0.18756 0.0
C1620 C 0.91079 0.57623 0.18502 0.0
C1621 C 0.9204 0.58704 0.15024 0.0
C1622 C 0.92185 0.58583 0.21949 0.0
C1623 C 0.90686 0.55676 0.18291 0.0
C1624 C 0.8883 0.5444 0.18445 0.0
C1625 C 0.8815 0.52562 0.18168 0.0
C1626 C 0.894 0.5194 0.17665 0.0
C1627 C 0.91301 0.53197 0.17449 0.0
C1628 C 0.91944 0.55081 0.17823 0.0
H1629 H 0.39177 0.29068 0.17321 0.0
H1630 H 0.43665 0.27946 0.17385 0.0
H1631 H 0.45875 0.31269 0.16983 0.0
H1632 H 0.41191 0.32929 0.11099 0.0
H1633 H 0.40266 0.34135 0.13557 0.0
H1634 H 0.39071 0.31674 0.13578 0.0
H1635 H 0.39118 0.31693 0.20665 0.0
H1636 H 0.4033 0.34152 0.20666 0.0
H1637 H 0.41273 0.32935 0.23025 0.0
H1638 H 0.47583 0.34751 0.16791 0.0
H1639 H 0.48622 0.38068 0.16738 0.0
H1640 H 0.42968 0.36804 0.17062 0.0
C1641 C 0.40623 0.29518 0.17198 0.0
C1642 C 0.41257 0.28262 0.17366 0.0
C1643 C 0.43159 0.28898 0.17241 0.0
C1644 C 0.4442 0.30777 0.1702 0.0
C1645 C 0.43749 0.31988 0.1694 0.0
C1646 C 0.41893 0.31378 0.17016 0.0
C1647 C 0.41511 0.32944 0.17051 0.0
C1648 C 0.40448 0.32919 0.13616 0.0
C1649 C 0.40499 0.32929 0.20561 0.0
C1650 C 0.43442 0.34535 0.17 0.0
C1651 C 0.4472 0.33966 0.16917 0.0
C1652 C 0.46594 0.35211 0.16849 0.0
C1653 C 0.47171 0.37086 0.16828 0.0
C1654 C 0.45872 0.3768 0.169 0.0
C1655 C 0.43992 0.36387 0.17016 0.0
H1656 H 0.62348 0.06072 0.19068 0.0
H1657 H 0.61281 0.10585 0.18472 0.0
H1658 H 0.64604 0.12775 0.191 0.0
H1659 H 0.66111 0.08106 0.2557 0.0
H1660 H 0.67337 0.07143 0.23323 0.0
H1661 H 0.64876 0.05971 0.2315 0.0
H1662 H 0.65009 0.05957 0.16071 0.0
H1663 H 0.67469 0.07147 0.16221 0.0
H1664 H 0.66308 0.08088 0.13653 0.0
H1665 H 0.68106 0.14462 0.1952 0.0
H1666 H 0.71419 0.15463 0.19768 0.0
H1667 H 0.7008 0.09792 0.19803 0.0
C1668 C 0.62807 0.0752 0.19129 0.0
C1669 C 0.61564 0.08164 0.18738 0.0
C1670 C 0.62218 0.10069 0.18786 0.0
C1671 C 0.641 0.11319 0.19134 0.0
C1672 C 0.65298 0.10636 0.19422 0.0
C1673 C 0.6467 0.08778 0.19434 0.0
C1674 C 0.66225 0.08378 0.19598 0.0
C1675 C 0.66131 0.07339 0.2312 0.0
C1676 C 0.66254 0.07332 0.16182 0.0
C1677 C 0.67833 0.103 0.19646 0.0
C1678 C 0.67282 0.11591 0.1957 0.0
C1679 C 0.68549 0.13461 0.1959 0.0
C1680 C 0.70423 0.14017 0.19721 0.0
C1681 C 0.70998 0.12704 0.19798 0.0
C1682 C 0.69682 0.10829 0.19738 0.0
H1683 H 0.59971 0.89572 0.51001 0.0
H1684 H 0.55508 0.83997 0.49937 0.0
H1685 H 0.53279 0.85094 0.50531 0.0
H1686 H 0.57866 0.91069 0.57602 0.0
H1687 H 0.58832 0.9332 0.5563 0.0
H1688 H 0.60024 0.92058 0.55226 0.0
H1689 H 0.60091 0.92414 0.48177 0.0
H1690 H 0.58891 0.93669 0.48556 0.0
H1691 H 0.57976 0.91654 0.45737 0.0
H1692 H 0.51562 0.86884 0.51213 0.0
H1693 H 0.50543 0.89167 0.51909 0.0
H1694 H 0.56207 0.93504 0.5232 0.0
C1695 C 0.58525 0.88576 0.50908 0.0
C1696 C 0.57904 0.86702 0.50426 0.0
C1697 C 0.56004 0.85441 0.50309 0.0
C1698 C 0.54734 0.86053 0.5064 0.0
C1699 C 0.55398 0.87923 0.51075 0.0
C1700 C 0.57253 0.8916 0.51208 0.0
C1701 C 0.57641 0.91097 0.5163 0.0
C1702 C 0.5865 0.91934 0.55237 0.0
C1703 C 0.58712 0.92277 0.48328 0.0
C1704 C 0.55715 0.9077 0.51711 0.0
C1705 C 0.54431 0.88935 0.51403 0.0
C1706 C 0.52558 0.88323 0.51451 0.0
C1707 C 0.51992 0.89624 0.51844 0.0
C1708 C 0.533 0.91505 0.52161 0.0
C1709 C 0.55177 0.92075 0.52071 0.0
H1710 H 0.05571 0.62437 0.51982 0.0
H1711 H 0.09887 0.61072 0.51493 0.0
H1712 H 0.12201 0.64382 0.51197 0.0
H1713 H 0.07496 0.66161 0.4585 0.0
H1714 H 0.06708 0.67463 0.4839 0.0
H1715 H 0.05453 0.65007 0.48591 0.0
H1716 H 0.05727 0.65144 0.5566 0.0
H1717 H 0.06995 0.67603 0.55479 0.0
H1718 H 0.07956 0.66378 0.57744 0.0
H1719 H 0.14011 0.67904 0.50697 0.0
H1720 H 0.15104 0.71225 0.50071 0.0
H1721 H 0.09525 0.70113 0.5124 0.0
C1722 C 0.07003 0.62828 0.51811 0.0
C1723 C 0.07558 0.6151 0.51744 0.0
C1724 C 0.09442 0.62074 0.51542 0.0
C1725 C 0.1076 0.63945 0.51381 0.0
C1726 C 0.1016 0.65215 0.51474 0.0
C1727 C 0.08321 0.6467 0.51703 0.0
C1728 C 0.08001 0.66272 0.51755 0.0
C1729 C 0.06847 0.66223 0.4845 0.0
C1730 C 0.07118 0.66353 0.55375 0.0
C1731 C 0.09945 0.67817 0.51458 0.0
C1732 C 0.11181 0.67197 0.51299 0.0
C1733 C 0.13053 0.68401 0.50853 0.0
C1734 C 0.13662 0.70279 0.50506 0.0
C1735 C 0.12396 0.70917 0.50617 0.0
C1736 C 0.10527 0.69668 0.51166 0.0
H1737 H 0.36407 0.43141 0.50107 0.0
H1738 H 0.37419 0.48628 0.52127 0.0
H1739 H 0.34087 0.47505 0.51515 0.0
H1740 H 0.32706 0.41744 0.43587 0.0
H1741 H 0.315 0.39448 0.45371 0.0
H1742 H 0.33958 0.40752 0.45617 0.0
H1743 H 0.33793 0.40227 0.52626 0.0
H1744 H 0.31337 0.38938 0.5241 0.0
H1745 H 0.32452 0.4089 0.5539 0.0
H1746 H 0.30564 0.45662 0.50957 0.0
H1747 H 0.27267 0.4332 0.50547 0.0
H1748 H 0.28728 0.39105 0.4923 0.0
C1749 C 0.35938 0.44118 0.50371 0.0
C1750 C 0.37162 0.45969 0.51156 0.0
C1751 C 0.36494 0.47202 0.51508 0.0
C1752 C 0.34609 0.46575 0.51169 0.0
C1753 C 0.3343 0.4472 0.50484 0.0
C1754 C 0.34081 0.43517 0.50083 0.0
C1755 C 0.32557 0.41577 0.49573 0.0
C1756 C 0.32688 0.40838 0.45813 0.0
C1757 C 0.32534 0.40336 0.52685 0.0
C1758 C 0.30932 0.41858 0.49784 0.0
C1759 C 0.31448 0.43676 0.50274 0.0
C1760 C 0.30152 0.44238 0.50564 0.0
C1761 C 0.28288 0.42903 0.50338 0.0
C1762 C 0.27754 0.41038 0.49874 0.0
C1763 C 0.29096 0.40521 0.49599 0.0
H1764 H 0.7605 0.7223 0.33817 0.0
H1765 H 0.81705 0.76597 0.336 0.0
H1766 H 0.80681 0.78874 0.34315 0.0
H1767 H 0.74222 0.74525 0.28639 0.0
H1768 H 0.7213 0.73568 0.31241 0.0
H1769 H 0.73334 0.72319 0.30783 0.0
H1770 H 0.73479 0.72114 0.37838 0.0
H1771 H 0.72268 0.73354 0.38319 0.0
H1772 H 0.74454 0.7418 0.40512 0.0
H1773 H 0.78964 0.80655 0.35062 0.0
H1774 H 0.7674 0.81745 0.35837 0.0
H1775 H 0.72277 0.76142 0.35399 0.0
C1776 C 0.77077 0.73665 0.33929 0.0
C1777 C 0.78953 0.74245 0.33654 0.0
C1778 C 0.80257 0.76132 0.33806 0.0
C1779 C 0.79688 0.7743 0.34207 0.0
C1780 C 0.77816 0.76807 0.34437 0.0
C1781 C 0.76536 0.74966 0.34304 0.0
C1782 C 0.74608 0.74628 0.34583 0.0
C1783 C 0.7351 0.73706 0.31104 0.0
C1784 C 0.73647 0.73503 0.38017 0.0
C1785 C 0.74993 0.76567 0.34907 0.0
C1786 C 0.76847 0.77813 0.34821 0.0
C1787 C 0.77511 0.79689 0.35126 0.0
C1788 C 0.76243 0.80295 0.35561 0.0
C1789 C 0.74344 0.79024 0.35676 0.0
C1790 C 0.73722 0.77145 0.35314 0.0
H1791 H 0.22583 0.96144 0.3639 0.0
H1792 H 0.17047 0.94934 0.34106 0.0
H1793 H 0.18134 0.98267 0.33827 0.0
H1794 H 0.23835 0.00094 0.42165 0.0
H1795 H 0.26155 0.01267 0.40499 0.0
H1796 H 0.24894 0.98807 0.40667 0.0
H1797 H 0.25501 0.9867 0.33755 0.0
H1798 H 0.26769 0.01124 0.33571 0.0
H1799 H 0.24861 -0.0013 0.30536 0.0
H1800 H 0.19964 0.01798 0.33351 0.0
H1801 H 0.22309 0.05087 0.3277 0.0
H1802 H 0.26523 0.03808 0.35723 0.0
C1803 C 0.21592 0.96575 0.35848 0.0
C1804 C 0.19737 0.95294 0.35247 0.0
C1805 C 0.18479 0.95907 0.34571 0.0
C1806 C 0.19084 0.97791 0.34418 0.0
C1807 C 0.20937 0.99024 0.35015 0.0
C1808 C 0.22162 0.98428 0.35749 0.0
C1809 C 0.24086 -7e-05 0.36212 0.0
C1810 C 0.24782 0.00043 0.40118 0.0
C1811 C 0.25379 -0.00091 0.33347 0.0
C1812 C 0.23774 0.01575 0.35521 0.0
C1813 C 0.21955 0.01008 0.34851 0.0
C1814 C 0.21387 0.02254 0.33921 0.0
C1815 C 0.22722 0.04115 0.33601 0.0
C1816 C 0.24591 0.04692 0.34204 0.0
C1817 C 0.25103 0.03408 0.3526 0.0
H1818 H 0.95629 0.21479 0.29052 0.0
H1819 H 0.94204 0.17204 0.37079 0.0
H1820 H 0.97497 0.18293 0.38103 0.0
H1821 H -0.0022 0.21667 0.25369 0.0
H1822 H 0.00968 0.24123 0.25003 0.0
H1823 H 0.98515 0.22833 0.24525 0.0
H1824 H 0.98176 0.24739 0.29699 0.0
H1825 H 0.00621 0.26034 0.30184 0.0
H1826 H 0.99209 0.24872 0.34084 0.0
H1827 H 0.00961 0.19957 0.38394 0.0
H1828 H 0.04262 0.22268 0.38551 0.0
H1829 H 0.03344 0.25583 0.30724 0.0
C1830 C 0.96012 0.20748 0.30966 0.0
C1831 C 0.94677 0.19247 0.32965 0.0
C1832 C 0.95218 0.18355 0.35528 0.0
C1833 C 0.9708 0.18956 0.36098 0.0
C1834 C 0.9837 0.20461 0.34107 0.0
C1835 C 0.97855 0.21357 0.31624 0.0
C1836 C -0.00511 0.23065 0.30153 0.0
C1837 C -0.003 0.22912 0.26017 0.0
C1838 C 0.99366 0.24778 0.31088 0.0
C1839 C 0.01005 0.23015 0.32249 0.0
C1840 C 0.00343 0.21478 0.34441 0.0
C1841 C 0.01494 0.21161 0.3668 0.0
C1842 C 0.03363 0.22474 0.36746 0.0
C1843 C 0.04037 0.24095 0.34658 0.0
C1844 C 0.02851 0.2435 0.32343 0.0
H1845 H 0.24602 0.20302 0.87636 0.0
H1846 H 0.23172 0.1888 0.76259 0.0
H1847 H 0.20949 0.19956 0.76618 0.0
H1848 H 0.19896 0.19282 0.90789 0.0
H1849 H 0.20863 0.21213 0.93841 0.0
H1850 H 0.22078 0.20005 0.92921 0.0
H1851 H 0.24909 0.23041 0.909 0.0
H1852 H 0.23701 0.24253 0.91771 0.0
H1853 H 0.24671 0.24377 0.8732 0.0
H1854 H 0.19336 0.2165 0.77805 0.0
H1855 H 0.18287 0.23748 0.79876 0.0
H1856 H 0.2065 0.24052 0.90558 0.0
C1857 C 0.2377 0.20161 0.85271 0.0
C1858 C 0.24044 0.19504 0.81924 0.0
C1859 C 0.22975 0.1938 0.78846 0.0
C1860 C 0.21704 0.1998 0.79027 0.0
C1861 C 0.21513 0.20692 0.82315 0.0
C1862 C 0.22498 0.2077 0.85401 0.0
C1863 C 0.2217 0.2178 0.88465 0.0
C1864 C 0.21193 0.20493 0.91695 0.0
C1865 C 0.23969 0.23462 0.89683 0.0
C1866 C 0.20922 0.22332 0.86554 0.0
C1867 C 0.20542 0.21665 0.83025 0.0
C1868 C 0.19574 0.22136 0.80596 0.0
C1869 C 0.18982 0.23328 0.81795 0.0
C1870 C 0.19352 0.24026 0.85394 0.0
C1871 C 0.20314 0.23502 0.87815 0.0
H1872 H 0.76392 0.03156 0.86625 0.0
H1873 H 0.81902 0.04435 0.83849 0.0
H1874 H 0.80912 0.01123 0.84102 0.0
H1875 H 0.7522 0.99292 0.92669 0.0
H1876 H 0.72899 0.98084 0.91014 0.0
H1877 H 0.7414 0.00545 0.91071 0.0
H1878 H 0.73498 0.0058 0.84144 0.0
H1879 H 0.7228 0.98124 0.84051 0.0
H1880 H 0.74183 0.99389 0.81003 0.0
H1881 H 0.79167 0.9757 0.84326 0.0
H1882 H 0.76889 0.9424 0.84465 0.0
H1883 H 0.72591 0.95509 0.86635 0.0
C1884 C 0.77405 0.0275 0.86133 0.0
C1885 C 0.7922 0.0404 0.85223 0.0
C1886 C 0.80502 0.03456 0.84572 0.0
C1887 C 0.79951 0.01583 0.84704 0.0
C1888 C 0.7812 0.00334 0.85487 0.0
C1889 C 0.76877 0.00909 0.86203 0.0
C1890 C 0.74965 0.99332 0.86705 0.0
C1891 C 0.74266 0.99312 0.90596 0.0
C1892 C 0.73656 0.99359 0.83802 0.0
C1893 C 0.75307 0.97766 0.86111 0.0
C1894 C 0.77131 0.98349 0.85461 0.0
C1895 C 0.77738 0.97105 0.8484 0.0
C1896 C 0.76441 0.95224 0.8491 0.0
C1897 C 0.7457 0.94628 0.85531 0.0
C1898 C 0.7401 0.95921 0.86122 0.0
H1899 H 0.03389 0.76838 0.82594 0.0
H1900 H 0.0436 0.82299 0.84751 0.0
H1901 H 0.01018 0.81142 0.84364 0.0
H1902 H -0.00423 0.75417 0.76298 0.0
H1903 H 0.98417 0.73116 0.78065 0.0
H1904 H 0.00877 0.74441 0.78165 0.0
H1905 H 0.00823 0.73899 0.85155 0.0
H1906 H 0.98365 0.72592 0.85086 0.0
H1907 H -0.00488 0.74539 0.88069 0.0
H1908 H 0.97502 0.79279 0.84039 0.0
H1909 H 0.94206 0.76918 0.83783 0.0
H1910 H 0.95695 0.72741 0.82135 0.0
C1911 C 0.02906 0.778 0.82931 0.0
C1912 C 0.04122 0.79654 0.83695 0.0
C1913 C 0.03439 0.8087 0.84149 0.0
C1914 C 0.01549 0.80225 0.83937 0.0
C1915 C 0.00378 0.78368 0.83271 0.0
C1916 C 0.01041 0.77181 0.82762 0.0
C1917 C -0.00478 0.75236 0.82285 0.0
C1918 C -0.00397 0.7451 0.78477 0.0
C1919 C -0.00442 0.73995 0.85331 0.0
C1920 C 0.9789 0.75499 0.82651 0.0
C1921 C 0.98396 0.77311 0.83182 0.0
C1922 C 0.97094 0.77858 0.83611 0.0
C1923 C 0.95232 0.76514 0.83471 0.0
C1924 C 0.94708 0.74655 0.82951 0.0
C1925 C 0.96056 0.74152 0.8255 0.0
H1926 H 0.03445 0.48153 0.88433 0.0
H1927 H 0.00093 0.43501 0.95415 0.0
H1928 H 0.97979 0.41974 0.90302 0.0
H1929 H -0.00288 0.48136 0.83855 0.0
H1930 H 0.00816 0.48788 0.79458 0.0
H1931 H 0.0217 0.49476 0.83564 0.0
H1932 H 0.03999 0.47966 0.81237 0.0
H1933 H 0.02651 0.47275 0.77115 0.0
H1934 H 0.02795 0.45593 0.79915 0.0
H1935 H 0.96088 0.41046 0.84702 0.0
H1936 H 0.94556 0.40729 0.78781 0.0
H1937 H 0.99107 0.45918 0.75234 0.0
C1938 C 0.02288 0.46797 0.88855 0.0
C1939 C 0.01942 0.45939 0.92322 0.0
C1940 C 0.00388 0.44184 0.92788 0.0
C1941 C 0.99179 0.43302 0.89897 0.0
C1942 C -0.00466 0.44193 0.86542 0.0
C1943 C 0.01049 0.45898 0.85988 0.0
C1944 C 0.0104 0.46586 0.82149 0.0
C1945 C 0.00927 0.4835 0.82266 0.0
C1946 C 0.02721 0.46871 0.79976 0.0
C1947 C 0.99287 0.44995 0.80648 0.0
C1948 C 0.98441 0.43637 0.83247 0.0
C1949 C 0.96748 0.42085 0.8262 0.0
C1950 C 0.95887 0.41917 0.79254 0.0
C1951 C 0.96726 0.43279 0.76535 0.0
C1952 C 0.98458 0.44831 0.77232 0.0
H1953 H 0.51777 0.55855 0.88697 0.0
H1954 H 0.56115 0.56524 0.96026 0.0
H1955 H 0.57591 0.55816 0.90985 0.0
H1956 H 0.5142 0.52056 0.83976 0.0
H1957 H 0.50987 0.527 0.79552 0.0
H1958 H 0.50344 0.53435 0.83625 0.0
H1959 H 0.52258 0.56803 0.81545 0.0
H1960 H 0.52903 0.56083 0.77447 0.0
H1961 H 0.54643 0.57733 0.8043 0.0
H1962 H 0.58435 0.54721 0.85393 0.0
H1963 H 0.58675 0.53465 0.79456 0.0
H1964 H 0.53876 0.53588 0.75594 0.0
C1965 C 0.53061 0.55899 0.89216 0.0
C1966 C 0.53834 0.56258 0.92765 0.0
C1967 C 0.55495 0.56257 0.93341 0.0
C1968 C 0.56348 0.55857 0.9049 0.0
C1969 C 0.5553 0.55463 0.87056 0.0
C1970 C 0.53932 0.55493 0.86389 0.0
C1971 C 0.53291 0.54918 0.82484 0.0
C1972 C 0.51399 0.53174 0.82407 0.0
C1973 C 0.53274 0.56478 0.8035 0.0
C1974 C 0.54774 0.5455 0.81082 0.0
C1975 C 0.56046 0.54868 0.83776 0.0
C1976 C 0.57468 0.545 0.83237 0.0
C1977 C 0.57594 0.53785 0.7986 0.0
C1978 C 0.5632 0.53465 0.77043 0.0
C1979 C 0.54902 0.53869 0.77662 0.0
H1980 H 0.4619 0.99437 0.94187 0.0
H1981 H 0.40848 0.94985 0.911 0.0
H1982 H 0.40955 0.96608 0.85438 0.0
H1983 H 0.45664 0.03214 0.90091 0.0
H1984 H 0.47992 0.04441 0.8847 0.0
H1985 H 0.47437 0.03059 0.92541 0.0
H1986 H 0.48866 0.01235 0.89705 0.0
H1987 H 0.49448 0.02659 0.85701 0.0
H1988 H 0.48097 0.00214 0.85259 0.0
H1989 H 0.4171 0.98495 0.79895 0.0
H1990 H 0.43112 0.0055 0.74641 0.0
H1991 H 0.48009 0.03858 0.81034 0.0
C1992 C 0.45028 0.98835 0.92353 0.0
C1993 C 0.43499 0.9709 0.93099 0.0
C1994 C 0.42028 0.96318 0.90588 0.0
C1995 C 0.42072 0.97234 0.87368 0.0
C1996 C 0.43604 0.98927 0.86662 0.0
C1997 C 0.45061 -0.0027 0.89066 0.0
C1998 C 0.46598 0.01497 0.87448 0.0
C1999 C 0.46942 0.03151 0.89777 0.0
C2000 C 0.48357 0.01394 0.87006 0.0
C2001 C 0.45788 0.01527 0.83744 0.0
C2002 C 0.44051 0.00037 0.83387 0.0
C2003 C 0.43059 -0.00319 0.80154 0.0
C2004 C 0.43872 0.00856 0.77175 0.0
C2005 C 0.45664 0.02375 0.77421 0.0
C2006 C 0.46621 0.02732 0.80782 0.0
H2007 H 0.99229 0.52966 0.24555 0.0
H2008 H 0.94762 0.53844 0.27641 0.0
H2009 H 0.96324 0.55239 0.33421 0.0
H2010 H -0.00176 0.51615 0.33271 0.0
H2011 H 0.02282 0.52683 0.33077 0.0
H2012 H 0.00965 0.51987 0.28925 0.0
H2013 H 0.02836 0.55279 0.26388 0.0
H2014 H 0.04166 0.55987 0.30535 0.0
H2015 H 0.02992 0.57159 0.29007 0.0
H2016 H 0.98142 0.56224 0.39085 0.0
H2017 H 0.00139 0.56753 0.44391 0.0
H2018 H 0.03499 0.55266 0.37889 0.0
C2019 C 0.98614 0.53505 0.26407 0.0
C2020 C 0.96882 0.53317 0.25628 0.0
C2021 C 0.96089 0.53981 0.2817 0.0
C2022 C 0.96969 0.54782 0.3146 0.0
C2023 C 0.98648 0.5491 0.32199 0.0
C2024 C -0.00528 0.54298 0.29754 0.0
C2025 C 0.01205 0.54459 0.31406 0.0
C2026 C 0.0106 0.52574 0.31685 0.0
C2027 C 0.02901 0.55801 0.29202 0.0
C2028 C 0.01196 0.55219 0.35173 0.0
C2029 C -0.00288 0.5548 0.35539 0.0
C2030 C 0.99324 0.56052 0.38819 0.0
C2031 C 0.00465 0.56343 0.41826 0.0
C2032 C 0.01986 0.56068 0.41559 0.0
C2033 C 0.0237 0.55526 0.3816 0.0
H2034 H 0.45826 0.45718 0.25607 0.0
H2035 H 0.45862 0.40898 0.29624 0.0
H2036 H 0.44667 0.41216 0.35558 0.0
H2037 H 0.47418 0.48236 0.33891 0.0
H2038 H 0.46051 0.49325 0.33545 0.0
H2039 H 0.46743 0.4864 0.29469 0.0
H2040 H 0.43357 0.46727 0.27466 0.0
H2041 H 0.4266 0.47414 0.31539 0.0
H2042 H 0.41712 0.45021 0.30519 0.0
H2043 H 0.43634 0.42107 0.411 0.0
H2044 H 0.42901 0.43575 0.46092 0.0
H2045 H 0.43586 0.47905 0.38706 0.0
C2046 C 0.45543 0.4471 0.27716 0.0
C2047 C 0.45913 0.43265 0.27143 0.0
C2048 C 0.45579 0.42005 0.29998 0.0
C2049 C 0.44897 0.42173 0.33376 0.0
C2050 C 0.4457 0.43621 0.33878 0.0
C2051 C 0.44887 0.44876 0.31145 0.0
C2052 C 0.44537 0.46375 0.32521 0.0
C2053 C 0.46292 0.48255 0.32346 0.0
C2054 C 0.42973 0.46384 0.30384 0.0
C2055 C 0.43981 0.45763 0.36452 0.0
C2056 C 0.44002 0.44164 0.37148 0.0
C2057 C 0.43602 0.43353 0.40587 0.0
C2058 C 0.4319 0.44204 0.43412 0.0
C2059 C 0.4318 0.45858 0.42807 0.0
C2060 C 0.43561 0.46633 0.39255 0.0
H2061 H 0.53378 0.00185 0.25346 0.0
H2062 H 0.58327 0.04953 0.29167 0.0
H2063 H 0.58076 0.03415 0.35028 0.0
H2064 H 0.51025 0.99301 0.33802 0.0
H2065 H 0.49868 0.96846 0.33453 0.0
H2066 H 0.50523 0.98225 0.29375 0.0
H2067 H 0.52335 0.96673 0.27157 0.0
H2068 H 0.51685 0.95291 0.31237 0.0
H2069 H 0.54068 0.96687 0.30066 0.0
H2070 H 0.57204 0.01523 0.40611 0.0
H2071 H 0.55732 0.99362 0.45692 0.0
H2072 H 0.513 0.95757 0.38494 0.0
C2073 C 0.54427 0.00884 0.27391 0.0
C2074 C 0.55883 0.02688 0.26782 0.0
C2075 C 0.57203 0.03574 0.29563 0.0
C2076 C 0.57076 0.02709 0.32903 0.0
C2077 C 0.55613 0.00952 0.33455 0.0
C2078 C 0.54308 0.00042 0.3079 0.0
C2079 C 0.52802 0.98212 0.32235 0.0
C2080 C 0.50944 0.98142 0.32214 0.0
C2081 C 0.52718 0.96622 0.30043 0.0
C2082 C 0.53466 0.9825 0.3612 0.0
C2083 C 0.55096 -0.00155 0.36741 0.0
C2084 C 0.55939 0.00258 0.40152 0.0
C2085 C 0.55088 0.99022 0.43027 0.0
C2086 C 0.53409 0.97382 0.42496 0.0
C2087 C 0.52601 0.96981 0.38971 0.0
H2088 H 0.66243 0.7912 0.2774 0.0
H2089 H 0.70624 0.78213 0.24151 0.0
H2090 H 0.69001 0.76944 0.18338 0.0
H2091 H 0.62386 0.75114 0.23173 0.0
H2092 H 0.6127 0.76377 0.2187 0.0
H2093 H 0.62633 0.7698 0.25969 0.0
H2094 H 0.64574 0.803 0.23618 0.0
H2095 H 0.63221 0.79705 0.19517 0.0
H2096 H 0.65669 0.80712 0.19214 0.0
H2097 H 0.67102 0.76048 0.12777 0.0
H2098 H 0.65065 0.75646 0.07616 0.0
H2099 H 0.61884 0.77182 0.14563 0.0
C2100 C 0.66826 0.786 0.25767 0.0
C2101 C 0.68541 0.78725 0.26413 0.0
C2102 C 0.69303 0.78105 0.23719 0.0
C2103 C 0.68389 0.7738 0.20416 0.0
C2104 C 0.6672 0.77304 0.19822 0.0
C2105 C 0.65942 0.77901 0.22406 0.0
C2106 C 0.64225 0.77831 0.20901 0.0
C2107 C 0.62528 0.76495 0.2311 0.0
C2108 C 0.64436 0.79751 0.20807 0.0
C2109 C 0.64175 0.77117 0.17064 0.0
C2110 C 0.65624 0.76812 0.16531 0.0
C2111 C 0.6595 0.7626 0.1317 0.0
C2112 C 0.64786 0.76039 0.1025 0.0
C2113 C 0.63306 0.76366 0.1069 0.0
C2114 C 0.62979 0.76883 0.14166 0.0
H2115 H 0.22413 0.85495 0.13208 0.0
H2116 H 0.23128 0.89859 0.05906 0.0
H2117 H 0.22376 0.91306 0.10936 0.0
H2118 H 0.18567 0.85114 0.17847 0.0
H2119 H 0.19179 0.84661 0.22287 0.0
H2120 H 0.19943 0.84037 0.18232 0.0
H2121 H 0.23298 0.85938 0.20393 0.0
H2122 H 0.22549 0.86565 0.24475 0.0
H2123 H 0.24222 0.88315 0.21534 0.0
H2124 H 0.21257 0.92132 0.16514 0.0
H2125 H 0.19976 0.92363 0.22424 0.0
H2126 H 0.20044 0.8754 0.263 0.0
C2127 C 0.22457 0.86778 0.12693 0.0
C2128 C 0.22847 0.87569 0.09151 0.0
C2129 C 0.22842 0.89227 0.08583 0.0
C2130 C 0.22416 0.90062 0.11429 0.0
C2131 C 0.21996 0.8923 0.14854 0.0
C2132 C 0.22024 0.87631 0.15516 0.0
C2133 C 0.21419 0.86975 0.19413 0.0
C2134 C 0.19674 0.85086 0.19445 0.0
C2135 C 0.22965 0.86948 0.21582 0.0
C2136 C 0.2104 0.8845 0.20816 0.0
C2137 C 0.21378 0.89731 0.18126 0.0
C2138 C 0.21017 0.91156 0.18663 0.0
C2139 C 0.20286 0.91276 0.22028 0.0
C2140 C 0.19941 0.89993 0.24845 0.0
C2141 C 0.2034 0.88571 0.24232 0.0
H2142 H 0.11832 0.32492 0.26781 0.0
H2143 H 0.07408 0.27412 0.22506 0.0
H2144 H 0.0776 0.28865 0.1648 0.0
H2145 H 0.10922 0.35651 0.21435 0.0
H2146 H 0.13311 0.37248 0.20642 0.0
H2147 H 0.12609 0.35874 0.24734 0.0
H2148 H 0.14805 0.34664 0.23163 0.0
H2149 H 0.15504 0.36025 0.19062 0.0
H2150 H 0.1461 0.33594 0.18799 0.0
H2151 H 0.08656 0.30778 0.10885 0.0
H2152 H 0.10118 0.33006 0.05919 0.0
H2153 H 0.14065 0.36882 0.13612 0.0
C2154 C 0.10914 0.31703 0.24591 0.0
C2155 C 0.09571 0.29844 0.25121 0.0
C2156 C 0.08434 0.28837 0.22165 0.0
C2157 C 0.08622 0.29653 0.18734 0.0
C2158 C 0.0997 0.31475 0.18278 0.0
C2159 C 0.11107 0.32491 0.2111 0.0
C2160 C 0.12533 0.34385 0.19782 0.0
C2161 C 0.1233 0.35878 0.21767 0.0
C2162 C 0.14477 0.34683 0.20227 0.0
C2163 C 0.12012 0.3427 0.15772 0.0
C2164 C 0.10523 0.32579 0.14987 0.0
C2165 C 0.09816 0.3211 0.11468 0.0
C2166 C 0.10662 0.3339 0.08658 0.0
C2167 C 0.12207 0.35128 0.09357 0.0
C2168 C 0.12875 0.35577 0.12985 0.0
H2169 H 0.65851 0.86763 0.58872 0.0
H2170 H 0.61024 0.8681 0.62802 0.0
H2171 H 0.62486 0.87879 0.68831 0.0
H2172 H 0.66607 0.84966 0.67033 0.0
H2173 H 0.69067 0.86267 0.66807 0.0
H2174 H 0.6774 0.85695 0.62673 0.0
H2175 H 0.69327 0.8912 0.60911 0.0
H2176 H 0.70665 0.89699 0.65042 0.0
H2177 H 0.69293 0.90739 0.6407 0.0
H2178 H 0.64355 0.8874 0.74515 0.0
H2179 H 0.66497 0.89297 0.79573 0.0
H2180 H 0.70129 0.8864 0.72107 0.0
C2181 C 0.65125 0.87047 0.60977 0.0
C2182 C 0.63334 0.86736 0.60353 0.0
C2183 C 0.62401 0.87057 0.63212 0.0
C2184 C 0.63222 0.87665 0.66644 0.0
C2185 C 0.64973 0.87929 0.67197 0.0
C2186 C 0.65916 0.87628 0.64452 0.0
C2187 C 0.67726 0.87884 0.6587 0.0
C2188 C 0.67787 0.86097 0.65578 0.0
C2189 C 0.69349 0.89454 0.63853 0.0
C2190 C 0.67646 0.88377 0.69833 0.0
C2191 C 0.66047 0.88399 0.70524 0.0
C2192 C 0.65619 0.88742 0.74003 0.0
C2193 C 0.66847 0.89055 0.76864 0.0
C2194 C 0.68491 0.89025 0.76251 0.0
C2195 C 0.68899 0.88699 0.72666 0.0
H2196 H 0.14292 0.77313 0.62989 0.0
H2197 H 0.10115 0.76916 0.55489 0.0
H2198 H 0.08717 0.77764 0.6044 0.0
H2199 H 0.11339 0.75537 0.71069 0.0
H2200 H 0.13072 0.77105 0.74172 0.0
H2201 H 0.13724 0.76379 0.70092 0.0
H2202 H 0.15787 0.79751 0.68164 0.0
H2203 H 0.15143 0.80489 0.72233 0.0
H2204 H 0.14818 0.81227 0.67812 0.0
H2205 H 0.07878 0.78861 0.65976 0.0
H2206 H 0.07568 0.80036 0.71935 0.0
H2207 H 0.12185 0.79656 0.76095 0.0
C2208 C 0.13068 0.77377 0.62402 0.0
C2209 C 0.12315 0.77039 0.58827 0.0
C2210 C 0.10725 0.77166 0.58182 0.0
C2211 C 0.09915 0.77646 0.60985 0.0
C2212 C 0.10701 0.77996 0.64447 0.0
C2213 C 0.12236 0.77861 0.65187 0.0
C2214 C 0.1283 0.78374 0.69144 0.0
C2215 C 0.12735 0.76751 0.71243 0.0
C2216 C 0.14758 0.8006 0.69348 0.0
C2217 C 0.11386 0.78816 0.70492 0.0
C2218 C 0.10183 0.78596 0.67714 0.0
C2219 C 0.08795 0.79015 0.68189 0.0
C2220 C 0.08632 0.79685 0.71584 0.0
C2221 C 0.09834 0.79914 0.74493 0.0
C2222 C 0.1122 0.79456 0.73945 0.0
H2223 H 0.1952 0.32441 0.77412 0.0
H2224 H 0.20095 0.27871 0.7374 0.0
H2225 H 0.21397 0.29458 0.67918 0.0
H2226 H 0.18006 0.33173 0.68894 0.0
H2227 H 0.19162 0.35629 0.69212 0.0
H2228 H 0.18494 0.34263 0.73306 0.0
H2229 H 0.21835 0.3602 0.7561 0.0
H2230 H 0.22519 0.37388 0.71511 0.0
H2231 H 0.23641 0.3613 0.72793 0.0
H2232 H 0.22374 0.31354 0.6235 0.0
H2233 H 0.22923 0.3345 0.57209 0.0
H2234 H 0.21686 0.36835 0.64214 0.0
C2235 C 0.19968 0.31804 0.75413 0.0
C2236 C 0.19733 0.30043 0.76046 0.0
C2237 C 0.20277 0.29223 0.73322 0.0
C2238 C 0.21022 0.30116 0.70008 0.0
C2239 C 0.21202 0.31828 0.69424 0.0
C2240 C 0.2069 0.3267 0.72034 0.0
C2241 C 0.20886 0.34445 0.70541 0.0
C2242 C 0.19027 0.34372 0.70485 0.0
C2243 C 0.22305 0.36093 0.72746 0.0
C2244 C 0.21569 0.3445 0.66686 0.0
C2245 C 0.21751 0.3293 0.66132 0.0
C2246 C 0.22259 0.32561 0.62758 0.0
C2247 C 0.22565 0.3376 0.59849 0.0
C2248 C 0.2237 0.35319 0.60308 0.0
C2249 C 0.2189 0.35681 0.63797 0.0
H2250 H 0.33448 0.13094 0.59852 0.0
H2251 H 0.38329 0.13094 0.56126 0.0
H2252 H 0.36855 0.11854 0.50177 0.0
H2253 H 0.30049 0.0896 0.54971 0.0
H2254 H 0.28629 0.09924 0.53809 0.0
H2255 H 0.29979 0.10631 0.57926 0.0
H2256 H 0.31488 0.14001 0.55827 0.0
H2257 H 0.30153 0.13308 0.51695 0.0
H2258 H 0.32613 0.14644 0.51448 0.0
H2259 H 0.34953 0.10769 0.44571 0.0
H2260 H 0.32802 0.1005 0.39477 0.0
H2261 H 0.29139 0.10844 0.46604 0.0
C2262 C 0.34186 0.12792 0.57807 0.0
C2263 C 0.35996 0.13163 0.58468 0.0
C2264 C 0.36941 0.12808 0.55687 0.0
C2265 C 0.36112 0.12098 0.52303 0.0
C2266 C 0.34339 0.11767 0.51713 0.0
C2267 C 0.33386 0.12109 0.54371 0.0
C2268 C 0.31554 0.1177 0.52899 0.0
C2269 C 0.29958 0.10229 0.55028 0.0
C2270 C 0.31446 0.13536 0.52972 0.0
C2271 C 0.31635 0.11191 0.49001 0.0
C2272 C 0.3325 0.11185 0.48404 0.0
C2273 C 0.3368 0.10759 0.45008 0.0
C2274 C 0.32444 0.10353 0.42123 0.0
C2275 C 0.30792 0.10383 0.42619 0.0
C2276 C 0.30376 0.10786 0.46133 0.0
H2277 H 0.86932 0.20166 0.42503 0.0
H2278 H 0.9185 0.20249 0.46259 0.0
H2279 H 0.91614 0.21505 0.5217 0.0
H2280 H 0.8768 0.24355 0.47451 0.0
H2281 H 0.85291 0.23379 0.48565 0.0
H2282 H 0.8596 0.22706 0.44434 0.0
H2283 H 0.84093 0.19317 0.46427 0.0
H2284 H 0.83428 0.19979 0.50569 0.0
H2285 H 0.8455 0.1864 0.50797 0.0
H2286 H 0.90702 0.22416 0.57852 0.0
H2287 H 0.89194 0.23019 0.62995 0.0
H2288 H 0.84843 0.22389 0.55751 0.0
C2289 C 0.87987 0.20506 0.44535 0.0
C2290 C 0.89426 0.20135 0.43906 0.0
C2291 C 0.90746 0.20535 0.46674 0.0
C2292 C 0.90624 0.2125 0.50042 0.0
C2293 C 0.89168 0.21556 0.50626 0.0
C2294 C 0.87874 0.21208 0.47956 0.0
C2295 C 0.86371 0.21529 0.49431 0.0
C2296 C 0.86323 0.23085 0.47346 0.0
C2297 C 0.845 0.19761 0.49298 0.0
C2298 C 0.87013 0.22081 0.53349 0.0
C2299 C 0.88635 0.22092 0.53958 0.0
C2300 C 0.89447 0.2244 0.57399 0.0
C2301 C 0.88576 0.22776 0.6031 0.0
C2302 C 0.86913 0.22773 0.59775 0.0
C2303 C 0.86134 0.22441 0.56229 0.0
H2304 H 0.7673 0.61803 0.55162 0.0
H2305 H 0.75589 0.65243 0.62216 0.0
H2306 H 0.76125 0.67331 0.57073 0.0
H2307 H 0.80383 0.65381 0.50489 0.0
H2308 H 0.79869 0.6429 0.46078 0.0
H2309 H 0.79176 0.62922 0.50168 0.0
H2310 H 0.75825 0.6123 0.47917 0.0
H2311 H 0.76505 0.62588 0.43804 0.0
H2312 H 0.74733 0.62523 0.46662 0.0
H2313 H 0.7714 0.69241 0.51509 0.0
H2314 H 0.78453 0.70808 0.45661 0.0
H2315 H 0.78876 0.6615 0.41996 0.0
C2316 C 0.76543 0.62968 0.55591 0.0
C2317 C 0.76107 0.63354 0.59092 0.0
C2318 C 0.75921 0.64918 0.59564 0.0
C2319 C 0.76219 0.66112 0.56655 0.0
C2320 C 0.76697 0.65726 0.53271 0.0
C2321 C 0.76847 0.64187 0.52702 0.0
C2322 C 0.77509 0.64175 0.48844 0.0
C2323 C 0.79343 0.64194 0.48901 0.0
C2324 C 0.76056 0.62531 0.46679 0.0
C2325 C 0.77738 0.65963 0.47376 0.0
C2326 C 0.77257 0.66829 0.49986 0.0
C2327 C 0.77486 0.68562 0.49411 0.0
C2328 C 0.78237 0.69445 0.4609 0.0
C2329 C 0.78735 0.68588 0.43364 0.0
C2330 C 0.78459 0.66814 0.43999 0.0
H2331 H 0.29082 0.18351 0.96536 0.0
H2332 H 0.32847 0.2255 0.89072 0.0
H2333 H 0.35065 0.23971 0.94097 0.0
H2334 H 0.30161 0.21232 0.04651 0.0
H2335 H 0.30009 0.19488 0.07715 0.0
H2336 H 0.28654 0.18854 0.03602 0.0
H2337 H 0.30028 0.16844 1.01646 0.0
H2338 H 0.31384 0.1747 0.05749 0.0
H2339 H 0.32477 0.17847 1.01351 0.0
H2340 H 0.36934 0.2486 0.9979 0.0
H2341 H 0.38384 0.25139 0.05765 0.0
H2342 H 0.33454 0.20362 0.09669 0.0
C2343 C 0.3036 0.19587 0.95967 0.0
C2344 C 0.30778 0.20349 0.92398 0.0
C2345 C 0.32486 0.21944 0.9177 0.0
C2346 C 0.33756 0.22764 0.94614 0.0
C2347 C 0.33307 0.21972 0.98081 0.0
C2348 C 0.31654 0.20416 0.98775 0.0
C2349 C 0.31558 0.19791 0.02713 0.0
C2350 C 0.30003 0.19845 0.04793 0.0
C2351 C 0.3135 0.17875 0.02872 0.0
C2352 C 0.3342 0.21238 0.04119 0.0
C2353 C 0.34398 0.22482 1.01392 0.0
C2354 C 0.36176 0.23902 1.01953 0.0
C2355 C 0.36989 0.24047 0.05366 0.0
C2356 C 0.36033 0.22781 0.08208 0.0
C2357 C 0.34211 0.2137 0.0758 0.0
H2358 H 0.81005 0.10327 0.97817 0.0
H2359 H 0.76388 0.09269 0.90918 0.0
H2360 H 0.7497 0.09979 0.96055 0.0
H2361 H 0.78395 0.08489 0.06355 0.0
H2362 H 0.80147 0.10244 0.09158 0.0
H2363 H 0.80764 0.0953 0.05018 0.0
H2364 H 0.82455 0.12874 0.02723 0.0
H2365 H 0.81839 0.136 0.06844 0.0
H2366 H 0.8124 0.14124 1.02458 0.0
H2367 H 0.74172 0.11075 1.01661 0.0
H2368 H 0.73962 0.12345 0.07592 0.0
H2369 H 0.78995 0.12597 0.111 0.0
C2370 C 0.79679 0.10208 0.9741 0.0
C2371 C 0.78807 0.09732 0.93948 0.0
C2372 C 0.77087 0.09628 0.93526 0.0
C2373 C 0.76266 0.10028 0.96435 0.0
C2374 C 0.77172 0.10525 0.99777 0.0
C2375 C 0.78834 0.10606 1.00303 0.0
C2376 C 0.79546 0.11262 0.04147 0.0
C2377 C 0.79723 0.09793 0.06296 0.0
C2378 C 0.81378 0.13072 0.04035 0.0
C2379 C 0.78025 0.1154 0.05678 0.0
C2380 C 0.76678 0.11115 0.0309 0.0
C2381 C 0.75199 0.1138 0.03736 0.0
C2382 C 0.75092 0.12104 0.07109 0.0
C2383 C 0.76439 0.12534 0.09826 0.0
C2384 C 0.77917 0.12231 0.09109 0.0
H2385 H 0.891 0.70284 0.96989 0.0
H2386 H 0.89238 0.6643 0.89338 0.0
H2387 H 0.8859 0.64247 0.9436 0.0
H2388 H 0.91126 0.69158 0.04845 0.0
H2389 H 0.89648 0.69377 0.08111 0.0
H2390 H 0.90299 0.70724 0.03984 0.0
H2391 H 0.86885 0.69455 1.024 0.0
H2392 H 0.86222 0.68101 0.06508 0.0
H2393 H 0.85374 0.67018 1.02145 0.0
H2394 H 0.87628 0.62356 1.00022 0.0
H2395 H 0.86505 0.60914 0.06055 0.0
H2396 H 0.87037 0.65976 0.10158 0.0
C2397 C 0.89038 0.68999 0.96387 0.0
C2398 C 0.89233 0.68536 0.92763 0.0
C2399 C 0.89098 0.66821 0.92084 0.0
C2400 C 0.88733 0.65569 0.94924 0.0
C2401 C 0.88507 0.66048 0.98444 0.0
C2402 C 0.88663 0.67724 0.992 0.0
C2403 C 0.88246 0.67844 0.03195 0.0
C2404 C 0.89931 0.69366 0.05149 0.0
C2405 C 0.86583 0.6812 0.03582 0.0
C2406 C 0.87811 0.65966 0.04543 0.0
C2407 C 0.87972 0.64956 1.01751 0.0
C2408 C 0.87525 0.63142 1.02248 0.0
C2409 C 0.86885 0.62334 0.05681 0.0
C2410 C 0.86709 0.63338 0.08589 0.0
C2411 C 0.872 0.65187 0.08013 0.0
H2412 H 0.05589 0.55756 0.64762 0.0
H2413 H 0.09927 0.5561 0.58679 0.0
H2414 H 0.11074 0.54981 0.64424 0.0
H2415 H 0.08395 0.58012 0.72877 0.0
H2416 H 0.06488 0.56774 0.75932 0.0
H2417 H 0.06104 0.57286 0.71347 0.0
H2418 H 0.03849 0.53849 0.70411 0.0
H2419 H 0.04288 0.53314 0.74909 0.0
H2420 H 0.04617 0.52216 0.70993 0.0
H2421 H 0.11614 0.54168 0.70836 0.0
H2422 H 0.11613 0.53418 0.77365 0.0
H2423 H 0.07 0.54251 0.79245 0.0
C2424 C 0.06788 0.55603 0.64634 0.0
C2425 C 0.07667 0.55725 0.61262 0.0
C2426 C 0.09239 0.55531 0.61227 0.0
C2427 C 0.09894 0.55166 0.64476 0.0
C2428 C 0.08978 0.55029 0.67744 0.0
C2429 C 0.07473 0.55266 0.67849 0.0
C2430 C 0.06749 0.55079 0.71715 0.0
C2431 C 0.06946 0.56895 0.73047 0.0
C2432 C 0.04758 0.53518 0.72022 0.0
C2433 C 0.08033 0.54624 0.73748 0.0
C2434 C 0.09319 0.54614 0.71423 0.0
C2435 C 0.10624 0.54192 0.72681 0.0
C2436 C 0.10616 0.53774 0.76404 0.0
C2437 C 0.09309 0.53776 0.7884 0.0
C2438 C 0.08007 0.54214 0.77466 0.0
H2439 H 0.45768 0.53302 0.79019 0.0
H2440 H 0.45333 0.5819 0.77924 0.0
H2441 H 0.44314 0.57359 0.71535 0.0
H2442 H 0.47534 0.53465 0.69915 0.0
H2443 H 0.46295 0.51016 0.69406 0.0
H2444 H 0.46993 0.52012 0.73875 0.0
H2445 H 0.43636 0.50154 0.76087 0.0
H2446 H 0.42933 0.49167 0.71613 0.0
H2447 H 0.41878 0.50352 0.73673 0.0
H2448 H 0.43315 0.55947 0.65117 0.0
H2449 H 0.42525 0.54125 0.5939 0.0
H2450 H 0.43667 0.50234 0.64862 0.0
C2451 C 0.45484 0.54215 0.77435 0.0
C2452 C 0.4563 0.55812 0.79011 0.0
C2453 C 0.45208 0.56944 0.76822 0.0
C2454 C 0.44636 0.56489 0.73172 0.0
C2455 C 0.44494 0.54897 0.71722 0.0
C2456 C 0.44916 0.53784 0.73792 0.0
C2457 C 0.44657 0.5215 0.71611 0.0
C2458 C 0.46478 0.52163 0.71176 0.0
C2459 C 0.43188 0.5035 0.7335 0.0
C2460 C 0.44014 0.52512 0.68004 0.0
C2461 C 0.43927 0.54099 0.68092 0.0
C2462 C 0.43378 0.54699 0.65025 0.0
C2463 C 0.42924 0.53654 0.61785 0.0
C2464 C 0.43021 0.5203 0.61647 0.0
C2465 C 0.43565 0.51463 0.64832 0.0
H2466 H 0.45422 0.92232 0.78516 0.0
H2467 H 0.43104 0.86352 0.79194 0.0
H2468 H 0.43813 0.86281 0.72668 0.0
H2469 H 0.43896 0.92381 0.69412 0.0
H2470 H 0.45962 0.94464 0.68258 0.0
H2471 H 0.45196 0.94013 0.72927 0.0
H2472 H 0.48348 0.94434 0.74874 0.0
H2473 H 0.49095 0.94889 0.70194 0.0
H2474 H 0.49191 0.93092 0.72668 0.0
H2475 H 0.44874 0.86893 0.65945 0.0
H2476 H 0.46273 0.88162 0.59887 0.0
H2477 H 0.47893 0.93608 0.63831 0.0
C2478 C 0.45075 0.90927 0.77319 0.0
C2479 C 0.44199 0.89297 0.79402 0.0
C2480 C 0.43747 0.8762 0.77667 0.0
C2481 C 0.44154 0.87565 0.73955 0.0
C2482 C 0.45018 0.89199 0.71992 0.0
C2483 C 0.45478 0.90849 0.73632 0.0
C2484 C 0.46428 0.9242 0.70967 0.0
C2485 C 0.45302 0.93374 0.70355 0.0
C2486 C 0.48381 0.93788 0.72254 0.0
C2487 C 0.46448 0.91401 0.67582 0.0
C2488 C 0.45623 0.89544 0.68194 0.0
C2489 C 0.4552 0.88347 0.65439 0.0
C2490 C 0.46309 0.89075 0.62001 0.0
C2491 C 0.47197 0.90982 0.61365 0.0
C2492 C 0.47232 0.92142 0.642 0.0
H2493 H 0.54272 0.07796 0.89758 0.0
H2494 H 0.53288 0.12323 0.91388 0.0
H2495 H 0.54182 0.12495 0.97876 0.0
H2496 H 0.52462 0.05616 0.98329 0.0
H2497 H 0.5413 0.04896 0.98915 0.0
H2498 H 0.53475 0.05184 0.94394 0.0
H2499 H 0.56867 0.07425 0.92827 0.0
H2500 H 0.57536 0.07155 0.97354 0.0
H2501 H 0.5818 0.09403 0.95662 0.0
H2502 H 0.55103 0.12076 0.04368 0.0
H2503 H 0.55875 0.11045 0.10122 0.0
H2504 H 0.56263 0.06844 0.04021 0.0
C2505 C 0.54231 0.08818 0.91474 0.0
C2506 C 0.53708 0.10047 0.90044 0.0
C2507 C 0.53703 0.11379 0.92397 0.0
C2508 C 0.54204 0.11484 0.96095 0.0
C2509 C 0.54714 0.10252 0.97409 0.0
C2510 C 0.54728 0.08944 0.95157 0.0
C2511 C 0.55292 0.07753 0.97224 0.0
C2512 C 0.53747 0.05744 0.97215 0.0
C2513 C 0.57075 0.07947 0.95673 0.0
C2514 C 0.55584 0.08586 1.00995 0.0
C2515 C 0.5525 0.10027 1.01074 0.0
C2516 C 0.5538 0.10955 0.04325 0.0
C2517 C 0.55828 0.10368 0.0758 0.0
C2518 C 0.56143 0.0887 0.07549 0.0
C2519 C 0.56046 0.08002 0.04178 0.0
H2520 H 0.91725 0.43773 0.9137 0.0
H2521 H 0.8611 0.42467 0.89657 0.0
H2522 H 0.85938 0.43263 0.96076 0.0
H2523 H 0.91218 0.42256 1.01026 0.0
H2524 H 0.93443 0.44123 1.02226 0.0
H2525 H 0.93025 0.43189 0.97673 0.0
H2526 H 0.94118 0.46398 0.95036 0.0
H2527 H 0.94506 0.47366 0.99544 0.0
H2528 H 0.93003 0.47646 0.96426 0.0
H2529 H 0.86467 0.4444 0.02677 0.0
H2530 H 0.87734 0.46074 0.08543 0.0
H2531 H 0.9302 0.46741 0.05704 0.0
C2532 C 0.90451 0.43638 0.92339 0.0
C2533 C 0.88929 0.43044 0.89981 0.0
C2534 C 0.87289 0.42884 0.91402 0.0
C2535 C 0.87177 0.43338 0.95055 0.0
C2536 C 0.88713 0.43943 0.97284 0.0
C2537 C 0.90317 0.44087 0.95971 0.0
C2538 C 0.91823 0.44914 0.98804 0.0
C2539 C 0.92411 0.43538 1.00003 0.0
C2540 C 0.93461 0.46688 0.97371 0.0
C2541 C 0.9084 0.45282 1.01861 0.0
C2542 C 0.89033 0.44672 1.0099 0.0
C2543 C 0.87877 0.4491 0.03391 0.0
C2544 C 0.88601 0.4583 0.06722 0.0
C2545 C 0.9047 0.46532 0.07567 0.0
C2546 C 0.91583 0.46219 0.05125 0.0
H2547 H 0.50284 0.44283 0.04618 0.0
H2548 H 0.53761 0.42515 0.0985 0.0
H2549 H 0.55456 0.43027 0.04015 0.0
H2550 H 0.49991 0.42223 0.95824 0.0
H2551 H 0.49978 0.4408 0.93415 0.0
H2552 H 0.49069 0.43506 0.97978 0.0
H2553 H 0.51278 0.46864 0.99946 0.0
H2554 H 0.52205 0.47414 0.95393 0.0
H2555 H 0.53702 0.47839 0.99237 0.0
H2556 H 0.56795 0.43807 0.97535 0.0
H2557 H 0.5762 0.44708 0.91086 0.0
H2558 H 0.53185 0.45895 0.90212 0.0
C2559 C 0.51398 0.43993 0.04566 0.0
C2560 C 0.51889 0.43356 0.07716 0.0
C2561 C 0.53356 0.42998 0.07482 0.0
C2562 C 0.54327 0.43289 0.04179 0.0
C2563 C 0.53807 0.4393 1.0114 0.0
C2564 C 0.52368 0.44267 1.01315 0.0
C2565 C 0.52064 0.4495 0.97698 0.0
C2566 C 0.50164 0.4361 0.96137 0.0
C2567 C 0.52329 0.46881 0.98092 0.0
C2568 C 0.53572 0.44962 0.95433 0.0
C2569 C 0.54562 0.44368 0.97457 0.0
C2570 C 0.56021 0.44264 0.9593 0.0
C2571 C 0.56472 0.4477 0.92249 0.0
C2572 C 0.55469 0.45372 0.9011 0.0
C2573 C 0.54001 0.45468 0.91759 0.0
H2574 H 0.91958 0.46673 0.40375 0.0
H2575 H 0.86053 0.43255 0.39811 0.0
H2576 H 0.85997 0.42374 0.46272 0.0
H2577 H 0.92872 0.43828 0.46058 0.0
H2578 H 0.94653 0.45718 0.48561 0.0
H2579 H 0.94169 0.46041 0.43925 0.0
H2580 H 0.93693 0.48706 0.46123 0.0
H2581 H 0.94164 0.48333 0.50739 0.0
H2582 H 0.92056 0.4829 0.49692 0.0
H2583 H 0.86624 0.41807 0.52891 0.0
H2584 H 0.87899 0.41572 0.58856 0.0
H2585 H 0.93353 0.45425 0.54967 0.0
C2586 C 0.90645 0.45761 0.41608 0.0
C2587 C 0.8901 0.45036 0.39548 0.0
C2588 C 0.87331 0.43814 0.41291 0.0
C2589 C 0.87282 0.43316 0.44979 0.0
C2590 C 0.88922 0.44056 0.46917 0.0
C2591 C 0.90571 0.45258 0.45282 0.0
C2592 C 0.92146 0.45853 0.47926 0.0
C2593 C 0.9354 0.45326 0.46531 0.0
C2594 C 0.93068 0.47918 0.48664 0.0
C2595 C 0.91137 0.44754 0.51272 0.0
C2596 C 0.89276 0.43741 0.50673 0.0
C2597 C 0.88081 0.42602 0.53387 0.0
C2598 C 0.88814 0.42478 0.56772 0.0
C2599 C 0.90725 0.43473 0.57394 0.0
C2600 C 0.91885 0.44639 0.54601 0.0
H2601 H 0.53827 0.47908 0.55187 0.0
H2602 H 0.57573 0.46208 0.59206 0.0
H2603 H 0.57347 0.44693 0.53259 0.0
H2604 H 0.50872 0.43494 0.50236 0.0
H2605 H 0.50326 0.44647 0.46733 0.0
H2606 H 0.50737 0.45496 0.51331 0.0
H2607 H 0.53225 0.48647 0.4892 0.0
H2608 H 0.52879 0.47805 0.44315 0.0
H2609 H 0.55127 0.48824 0.46327 0.0
H2610 H 0.56792 0.43504 0.466 0.0
H2611 H 0.55871 0.42648 0.40163 0.0
H2612 H 0.52254 0.44906 0.40922 0.0
C2613 C 0.54549 0.47164 0.54883 0.0
C2614 C 0.5569 0.47154 0.57702 0.0
C2615 C 0.56677 0.46225 0.57108 0.0
C2616 C 0.56555 0.4536 0.53737 0.0
C2617 C 0.55401 0.45394 0.51028 0.0
C2618 C 0.54382 0.46239 0.51617 0.0
C2619 C 0.53215 0.46065 0.48328 0.0
C2620 C 0.51168 0.44855 0.49212 0.0
C2621 C 0.5364 0.47948 0.46886 0.0
C2622 C 0.53825 0.45102 0.45691 0.0
C2623 C 0.55063 0.44694 0.47296 0.0
C2624 C 0.55807 0.43801 0.45347 0.0
C2625 C 0.55266 0.4331 0.41689 0.0
C2626 C 0.53988 0.43709 0.40002 0.0
C2627 C 0.53258 0.44607 0.42074 0.0
H2628 H 0.52174 0.07474 0.39494 0.0
H2629 H 0.57472 0.1232 0.4115 0.0
H2630 H 0.56792 0.12261 0.47726 0.0
H2631 H 0.49715 0.08667 0.46098 0.0
H2632 H 0.48273 0.06344 0.47604 0.0
H2633 H 0.49134 0.06801 0.42991 0.0
H2634 H 0.50602 0.04754 0.43878 0.0
H2635 H 0.49634 0.04247 0.48388 0.0
H2636 H 0.52059 0.05141 0.47777 0.0
H2637 H 0.55544 0.11639 0.54215 0.0
H2638 H 0.53872 0.10437 0.60047 0.0
H2639 H 0.49451 0.05948 0.54158 0.0
C2640 C 0.53198 0.0852 0.41236 0.0
C2641 C 0.54879 0.09906 0.39777 0.0
C2642 C 0.56164 0.1126 0.42169 0.0
C2643 C 0.55793 0.11233 0.45921 0.0
C2644 C 0.54127 0.09846 0.47263 0.0
C2645 C 0.5285 0.08515 0.44989 0.0
C2646 C 0.51171 0.07163 0.47118 0.0
C2647 C 0.49473 0.0725 0.45878 0.0
C2648 C 0.50852 0.05212 0.46771 0.0
C2649 C 0.51732 0.07904 0.50966 0.0
C2650 C 0.53427 0.09471 0.50988 0.0
C2651 C 0.54215 0.10411 0.54227 0.0
C2652 C 0.53255 0.09722 0.57529 0.0
C2653 C 0.51534 0.08096 0.57578 0.0
C2654 C 0.50768 0.07189 0.54232 0.0
H2655 H 0.44652 0.9117 0.29339 0.0
H2656 H 0.46248 0.87095 0.2736 0.0
H2657 H 0.45388 0.86965 0.20842 0.0
H2658 H 0.40747 0.89292 0.23488 0.0
H2659 H 0.41132 0.91463 0.21834 0.0
H2660 H 0.41875 0.91287 0.26357 0.0
H2661 H 0.45151 0.9378 0.24955 0.0
H2662 H 0.44563 0.9405 0.20362 0.0
H2663 H 0.46357 0.93533 0.21129 0.0
H2664 H 0.44406 0.87398 0.14351 0.0
H2665 H 0.43557 0.88447 0.08716 0.0
H2666 H 0.42508 0.92099 0.15281 0.0
C2667 C 0.44794 0.90224 0.27562 0.0
C2668 C 0.45504 0.89131 0.28882 0.0
C2669 C 0.45716 0.87955 0.26415 0.0
C2670 C 0.45218 0.87862 0.22711 0.0
C2671 C 0.44508 0.88952 0.21514 0.0
C2672 C 0.44304 0.90112 0.23885 0.0
C2673 C 0.43589 0.91206 0.21943 0.0
C2674 C 0.41726 0.90788 0.23501 0.0
C2675 C 0.44997 0.93263 0.22111 0.0
C2676 C 0.43401 0.90474 0.18109 0.0
C2677 C 0.4394 0.8918 0.17877 0.0
C2678 C 0.43964 0.88398 0.14523 0.0
C2679 C 0.43468 0.88992 0.11334 0.0
C2680 C 0.42951 0.9035 0.11533 0.0
C2681 C 0.4288 0.91053 0.14997 0.0
H2682 H 0.0628 0.49828 0.1504 0.0
H2683 H 0.1027 0.54482 0.0877 0.0
H2684 H 0.11432 0.56258 0.14506 0.0
H2685 H 0.0516 0.52188 0.21493 0.0
H2686 H 0.04961 0.50718 0.25243 0.0
H2687 H 0.04549 0.4984 0.20663 0.0
H2688 H 0.07011 0.48882 0.21553 0.0
H2689 H 0.07419 0.49787 0.26128 0.0
H2690 H 0.09288 0.50574 0.22932 0.0
H2691 H 0.11943 0.57599 0.20939 0.0
H2692 H 0.11913 0.58316 0.27482 0.0
H2693 H 0.07615 0.52731 0.29441 0.0
C2694 C 0.07415 0.51214 0.14867 0.0
C2695 C 0.08186 0.5202 0.11453 0.0
C2696 C 0.0967 0.53834 0.11355 0.0
C2697 C 0.10332 0.54853 0.14598 0.0
C2698 C 0.09512 0.54025 0.17912 0.0
C2699 C 0.08102 0.52235 0.18065 0.0
C2700 C 0.07441 0.51657 0.21949 0.0
C2701 C 0.05406 0.51066 0.22355 0.0
C2702 C 0.07813 0.50135 0.23215 0.0
C2703 C 0.08644 0.53425 0.2395 0.0
C2704 C 0.09839 0.54775 0.2159 0.0
C2705 C 0.11024 0.56546 0.2281 0.0
C2706 C 0.10986 0.56944 0.26527 0.0
C2707 C 0.09767 0.5558 0.2899 0.0
C2708 C 0.0859 0.53798 0.27658 0.0
H2709 H 0.49178 0.55711 0.1516 0.0
H2710 H 0.44904 0.55802 0.08729 0.0
H2711 H 0.42991 0.55084 0.14322 0.0
H2712 H 0.46388 0.52036 0.20598 0.0
H2713 H 0.47602 0.52862 0.24837 0.0
H2714 H 0.48822 0.53612 0.20572 0.0
H2715 H 0.50061 0.57021 0.21816 0.0
H2716 H 0.49067 0.56393 0.26315 0.0
H2717 H 0.48523 0.57771 0.23383 0.0
H2718 H 0.41496 0.54181 0.20791 0.0
H2719 H 0.40659 0.53326 0.27277 0.0
H2720 H 0.46003 0.5393 0.29256 0.0
C2721 C 0.47846 0.55598 0.14907 0.0
C2722 C 0.47192 0.55812 0.11486 0.0
C2723 C 0.4544 0.55654 0.11315 0.0
C2724 C 0.44343 0.5524 0.1448 0.0
C2725 C 0.45026 0.55009 0.17801 0.0
C2726 C 0.4675 0.55206 0.18018 0.0
C2727 C 0.47181 0.54876 0.21859 0.0
C2728 C 0.47518 0.53249 0.21971 0.0
C2729 C 0.48805 0.56617 0.23439 0.0
C2730 C 0.45426 0.54424 0.23787 0.0
C2731 C 0.44192 0.54512 0.2143 0.0
C2732 C 0.42466 0.54124 0.22646 0.0
C2733 C 0.42004 0.53645 0.26346 0.0
C2734 C 0.4326 0.53549 0.28801 0.0
C2735 C 0.44993 0.53954 0.27466 0.0
H2736 H 0.74066 0.90137 0.98323 0.0
H2737 H 0.75977 0.87202 0.91633 0.0
H2738 H 0.76929 0.86225 0.97224 0.0
H2739 H 0.77811 0.91633 0.0538 0.0
H2740 H 0.76274 0.91444 0.08994 0.0
H2741 H 0.75963 0.92066 0.04447 0.0
H2742 H 0.72656 0.8941 0.04516 0.0
H2743 H 0.7293 0.88703 0.08991 0.0
H2744 H 0.72191 0.87101 0.05252 0.0
H2745 H 0.77264 0.85236 0.03648 0.0
H2746 H 0.77249 0.84578 0.10244 0.0
H2747 H 0.75229 0.88284 0.12664 0.0
C2748 C 0.74735 0.89333 0.98038 0.0
C2749 C 0.74966 0.88754 0.9456 0.0
C2750 C 0.75822 0.87684 0.94276 0.0
C2751 C 0.76355 0.87117 0.97437 0.0
C2752 C 0.76064 0.87673 1.00845 0.0
C2753 C 0.75319 0.888 1.0115 0.0
C2754 C 0.75102 0.89169 0.05116 0.0
C2755 C 0.76363 0.91199 0.06038 0.0
C2756 C 0.731 0.88556 0.06023 0.0
C2757 C 0.75731 0.87985 0.07009 0.0
C2758 C 0.76301 0.87146 0.04509 0.0
C2759 C 0.76848 0.85911 0.05623 0.0
C2760 C 0.76819 0.85532 0.09376 0.0
C2761 C 0.76246 0.86384 0.11985 0.0
C2762 C 0.75707 0.87634 0.10758 0.0
H2763 H 0.09058 0.83381 0.97725 0.0
H2764 H 0.10312 0.88194 0.91337 0.0
H2765 H 0.111 0.90027 0.97025 0.0
H2766 H 0.0704 0.84623 0.056 0.0
H2767 H 0.0789 0.8362 0.08851 0.0
H2768 H 0.07277 0.82693 0.04304 0.0
H2769 H 0.10449 0.83081 0.03587 0.0
H2770 H 0.11184 0.84114 0.08007 0.0
H2771 H 0.12471 0.85306 0.03991 0.0
H2772 H 0.12029 0.91379 0.03436 0.0
H2773 H 0.12825 0.92091 0.09956 0.0
H2774 H 0.10834 0.8635 0.12146 0.0
C2775 C 0.09465 0.84815 0.97529 0.0
C2776 C 0.09619 0.85647 0.94088 0.0
C2777 C 0.10162 0.87526 0.93944 0.0
C2778 C 0.1062 0.88577 0.97162 0.0
C2779 C 0.10488 0.8772 1.00508 0.0
C2780 C 0.09882 0.85871 1.00713 0.0
C2781 C 0.09871 0.85278 0.04632 0.0
C2782 C 0.07902 0.83977 0.05923 0.0
C2783 C 0.11072 0.84397 0.05082 0.0
C2784 C 0.10677 0.87097 0.06581 0.0
C2785 C 0.10995 0.88488 0.04172 0.0
C2786 C 0.11762 0.90293 0.05345 0.0
C2787 C 0.12206 0.90684 0.09064 0.0
C2788 C 0.11894 0.8928 0.11588 0.0
C2789 C 0.11112 0.87462 0.103 0.0
H2790 H 0.15906 0.25869 0.98574 0.0
H2791 H 0.116 0.21288 0.92663 0.0
H2792 H 0.09903 0.2009 0.98513 0.0
H2793 H 0.1571 0.2352 0.07012 0.0
H2794 H 0.16142 0.25467 0.09756 0.0
H2795 H 0.17056 0.258 0.05196 0.0
H2796 H 0.15488 0.27669 0.03571 0.0
H2797 H 0.14543 0.27325 0.08096 0.0
H2798 H 0.13053 0.2666 0.04177 0.0
H2799 H 0.086 0.19564 0.05099 0.0
H2800 H 0.07873 0.19692 0.11605 0.0
H2801 H 0.13024 0.24755 0.12855 0.0
C2802 C 0.14615 0.24596 0.98482 0.0
C2803 C 0.13883 0.23671 0.95144 0.0
C2804 C 0.12195 0.2201 0.95185 0.0
C2805 C 0.11221 0.2133 0.98494 0.0
C2806 C 0.11962 0.22327 1.01713 0.0
C2807 C 0.13632 0.23921 1.0171 0.0
C2808 C 0.14113 0.24816 0.05432 0.0
C2809 C 0.15858 0.24904 0.06937 0.0
C2810 C 0.14309 0.26729 0.05309 0.0
C2811 C 0.12442 0.23484 0.0757 0.0
C2812 C 0.11217 0.22051 0.05404 0.0
C2813 C 0.09558 0.20678 0.06808 0.0
C2814 C 0.0915 0.20771 0.10505 0.0
C2815 C 0.10392 0.22231 0.12768 0.0
C2816 C 0.12056 0.236 0.11244 0.0
H2817 H 0.22039 0.39296 0.37648 0.0
H2818 H 0.21603 0.43422 0.43901 0.0
H2819 H 0.20825 0.44496 0.38212 0.0
H2820 H 0.24112 0.42182 0.29658 0.0
H2821 H 0.22973 0.40324 0.2648 0.0
H2822 H 0.23533 0.39903 0.31005 0.0
H2823 H 0.20145 0.37481 0.32194 0.0
H2824 H 0.19559 0.3785 0.27668 0.0
H2825 H 0.18398 0.38095 0.31569 0.0
H2826 H 0.19903 0.44968 0.3178 0.0
H2827 H 0.19116 0.44927 0.2526 0.0
H2828 H 0.20282 0.40542 0.2331 0.0
C2829 C 0.21793 0.40436 0.37831 0.0
C2830 C 0.21875 0.41274 0.41226 0.0
C2831 C 0.21559 0.42769 0.41329 0.0
C2832 C 0.21107 0.43379 0.38114 0.0
C2833 C 0.21003 0.42494 0.34821 0.0
C2834 C 0.21364 0.4107 0.34663 0.0
C2835 C 0.21197 0.40361 0.30803 0.0
C2836 C 0.23064 0.40712 0.29404 0.0
C2837 C 0.19738 0.38326 0.30547 0.0
C2838 C 0.20603 0.41549 0.28815 0.0
C2839 C 0.20515 0.42785 0.31161 0.0
C2840 C 0.19985 0.44015 0.29924 0.0
C2841 C 0.19546 0.43985 0.26206 0.0
C2842 C 0.19634 0.42732 0.23749 0.0
C2843 C 0.20173 0.41502 0.25104 0.0
H2844 H 0.57594 0.76598 0.2563 0.0
H2845 H 0.5385 0.78388 0.21962 0.0
H2846 H 0.53867 0.79569 0.28137 0.0
H2847 H 0.55664 0.75308 0.34944 0.0
H2848 H 0.57869 0.76065 0.36999 0.0
H2849 H 0.57438 0.75209 0.32383 0.0
H2850 H 0.60192 0.78286 0.29804 0.0
H2851 H 0.60655 0.78854 0.34527 0.0
H2852 H 0.60425 0.80405 0.31443 0.0
H2853 H 0.54404 0.80692 0.34661 0.0
H2854 H 0.55581 0.81843 0.40875 0.0
H2855 H 0.59038 0.79411 0.40278 0.0
C2856 C 0.56774 0.77235 0.26127 0.0
C2857 C 0.55717 0.77394 0.23301 0.0
C2858 C 0.5465 0.78222 0.24085 0.0
C2859 C 0.54654 0.78903 0.27588 0.0
C2860 C 0.55723 0.78738 0.303 0.0
C2861 C 0.56759 0.77919 0.29612 0.0
C2862 C 0.57838 0.77967 0.32964 0.0
C2863 C 0.57161 0.76021 0.34407 0.0
C2864 C 0.59899 0.78943 0.32133 0.0
C2865 C 0.57339 0.79046 0.3558 0.0
C2866 C 0.56071 0.79426 0.34024 0.0
C2867 C 0.55392 0.80398 0.3591 0.0
C2868 C 0.56057 0.81037 0.39442 0.0
C2869 C 0.57409 0.80729 0.41022 0.0
C2870 C 0.58031 0.79693 0.39089 0.0
H2871 H 0.16524 0.76851 0.36854 0.0
H2872 H 0.20825 0.76553 0.42784 0.0
H2873 H 0.22676 0.77389 0.37077 0.0
H2874 H 0.17059 0.75064 0.28157 0.0
H2875 H 0.16507 0.76568 0.25656 0.0
H2876 H 0.15572 0.75785 0.3015 0.0
H2877 H 0.16919 0.79192 0.32044 0.0
H2878 H 0.17941 0.7995 0.27606 0.0
H2879 H 0.19347 0.80731 0.31643 0.0
H2880 H 0.24095 0.78421 0.30642 0.0
H2881 H 0.24902 0.79426 0.2423 0.0
H2882 H 0.19617 0.7904 0.22721 0.0
C2883 C 0.17849 0.76941 0.3698 0.0
C2884 C 0.18528 0.76633 0.40292 0.0
C2885 C 0.20268 0.76766 0.40286 0.0
C2886 C 0.2133 0.7725 0.37059 0.0
C2887 C 0.20628 0.77591 0.33871 0.0
C2888 C 0.18916 0.77425 0.33822 0.0
C2889 C 0.18464 0.77897 0.30114 0.0
C2890 C 0.16803 0.7623 0.28417 0.0
C2891 C 0.1815 0.7954 0.3037 0.0
C2892 C 0.20202 0.7838 0.28053 0.0
C2893 C 0.21433 0.78189 0.30247 0.0
C2894 C 0.23133 0.7856 0.28909 0.0
C2895 C 0.23575 0.79124 0.25248 0.0
C2896 C 0.22326 0.79314 0.22939 0.0
C2897 C 0.20619 0.78938 0.24399 0.0
H2898 H 0.59715 0.76907 0.8782 0.0
H2899 H 0.55184 0.76777 0.93686 0.0
H2900 H 0.54033 0.77338 0.87862 0.0
H2901 H 0.6061 0.8042 0.81756 0.0
H2902 H 0.61059 0.79431 0.77802 0.0
H2903 H 0.61473 0.78861 0.82291 0.0
H2904 H 0.59365 0.75428 0.81227 0.0
H2905 H 0.59011 0.75942 0.76621 0.0
H2906 H 0.57076 0.74607 0.79558 0.0
H2907 H 0.53499 0.781 0.81355 0.0
H2908 H 0.53537 0.78837 0.74809 0.0
H2909 H 0.58435 0.78448 0.73302 0.0
C2910 C 0.58471 0.76982 0.8789 0.0
C2911 C 0.57542 0.76805 0.91223 0.0
C2912 C 0.55914 0.769 0.91172 0.0
C2913 C 0.55255 0.77224 0.87876 0.0
C2914 C 0.56226 0.77422 0.8465 0.0
C2915 C 0.57787 0.7728 0.84635 0.0
C2916 C 0.58583 0.77537 0.80821 0.0
C2917 C 0.60547 0.79162 0.80661 0.0
C2918 C 0.58503 0.75774 0.79477 0.0
C2919 C 0.57272 0.77923 0.78702 0.0
C2920 C 0.5591 0.77834 0.80942 0.0
C2921 C 0.54558 0.78167 0.79586 0.0
C2922 C 0.54601 0.78601 0.7586 0.0
C2923 C 0.55991 0.78708 0.7351 0.0
C2924 C 0.57336 0.78355 0.74984 0.0
H2925 H 0.1807 0.77286 0.74872 0.0
H2926 H 0.23361 0.78027 0.71758 0.0
H2927 H 0.24516 0.79098 0.77982 0.0
H2928 H 0.19692 0.81287 0.80522 0.0
H2929 H 0.17767 0.80048 0.83551 0.0
H2930 H 0.17583 0.7939 0.78864 0.0
H2931 H 0.16559 0.76115 0.81527 0.0
H2932 H 0.17028 0.76975 0.86139 0.0
H2933 H 0.18144 0.75801 0.84315 0.0
H2934 H 0.25149 0.80223 0.84537 0.0
H2935 H 0.25257 0.8152 0.90669 0.0
H2936 H 0.196 0.80128 0.89497 0.0
C2937 C 0.19472 0.77672 0.75495 0.0
C2938 C 0.20616 0.77557 0.72803 0.0
C2939 C 0.22439 0.78065 0.73767 0.0
C2940 C 0.23113 0.78683 0.77304 0.0
C2941 C 0.21951 0.78784 0.79882 0.0
C2942 C 0.20168 0.78291 0.7902 0.0
C2943 C 0.19221 0.78593 0.82244 0.0
C2944 C 0.18533 0.79914 0.81231 0.0
C2945 C 0.17645 0.76762 0.83638 0.0
C2946 C 0.20778 0.79423 0.84995 0.0
C2947 C 0.22327 0.79474 0.83613 0.0
C2948 C 0.23941 0.80184 0.85648 0.0
C2949 C 0.23989 0.80906 0.89139 0.0
C2950 C 0.22444 0.80941 0.90537 0.0
C2951 C 0.2081 0.80152 0.8846 0.0
H2952 H 0.20263 0.40431 0.73739 0.0
H2953 H 0.24679 0.46046 0.74566 0.0
H2954 H 0.23811 0.46146 0.80986 0.0
H2955 H 0.17033 0.40932 0.79012 0.0
H2956 H 0.16087 0.3872 0.81146 0.0
H2957 H 0.17093 0.39085 0.76669 0.0
H2958 H 0.19294 0.37982 0.78927 0.0
H2959 H 0.18249 0.37573 0.83371 0.0
H2960 H 0.20688 0.39029 0.82906 0.0
H2961 H 0.22371 0.45594 0.87475 0.0
H2962 H 0.20536 0.44421 0.93182 0.0
H2963 H 0.17158 0.39203 0.8782 0.0
C2964 C 0.21073 0.41676 0.75273 0.0
C2965 C 0.22545 0.43228 0.73627 0.0
C2966 C 0.23533 0.44841 0.7574 0.0
C2967 C 0.23056 0.44909 0.79402 0.0
C2968 C 0.21589 0.43353 0.80928 0.0
C2969 C 0.2062 0.41765 0.78915 0.0
C2970 C 0.1908 0.40284 0.81122 0.0
C2971 C 0.17214 0.39724 0.79383 0.0
C2972 C 0.19346 0.3862 0.81611 0.0
C2973 C 0.19328 0.41281 0.84691 0.0
C2974 C 0.20777 0.43048 0.84565 0.0
C2975 C 0.21234 0.44209 0.87594 0.0
C2976 C 0.20184 0.43536 0.90823 0.0
C2977 C 0.18695 0.41723 0.9098 0.0
C2978 C 0.18279 0.40601 0.87843 0.0
H2979 H 0.10602 0.26786 0.48208 0.0
H2980 H 0.08956 0.21599 0.42917 0.0
H2981 H 0.09418 0.20392 0.48754 0.0
H2982 H 0.14128 0.26898 0.53782 0.0
H2983 H 0.13649 0.27934 0.57614 0.0
H2984 H 0.13153 0.28345 0.53039 0.0
H2985 H 0.09788 0.27201 0.54868 0.0
H2986 H 0.10284 0.26799 0.59449 0.0
H2987 H 0.08461 0.2497 0.56903 0.0
H2988 H 0.10102 0.19778 0.55234 0.0
H2989 H 0.10915 0.19789 0.61718 0.0
H2990 H 0.12066 0.25388 0.62724 0.0
C2991 C 0.10333 0.25395 0.48255 0.0
C2992 C 0.0974 0.24291 0.4508 0.0
C2993 C 0.09407 0.22474 0.453 0.0
C2994 C 0.09668 0.21778 0.48607 0.0
C2995 C 0.1026 0.22913 0.51675 0.0
C2996 C 0.10583 0.24683 0.5152 0.0
C2997 C 0.11217 0.25634 0.55182 0.0
C2998 C 0.13152 0.27301 0.54887 0.0
C2999 C 0.09856 0.26182 0.56689 0.0
C3000 C 0.11205 0.24122 0.57441 0.0
C3001 C 0.10649 0.22563 0.55373 0.0
C3002 C 0.10531 0.2099 0.56875 0.0
C3003 C 0.10986 0.21007 0.60577 0.0
C3004 C 0.11553 0.22586 0.62766 0.0
C3005 C 0.11662 0.24163 0.61142 0.0
H3006 H 0.7378 0.88227 0.60642 0.0
H3007 H 0.79326 0.89338 0.62488 0.0
H3008 H 0.79496 0.88523 0.56086 0.0
H3009 H 0.7226 0.84448 0.55167 0.0
H3010 H 0.70967 0.85049 0.52101 0.0
H3011 H 0.71363 0.85877 0.56717 0.0
H3012 H 0.72771 0.89178 0.54235 0.0
H3013 H 0.7239 0.88332 0.49615 0.0
H3014 H 0.74652 0.90028 0.51056 0.0
H3015 H 0.78944 0.87307 0.49532 0.0
H3016 H 0.77659 0.85725 0.43635 0.0
H3017 H 0.72532 0.85485 0.46218 0.0
C3018 C 0.75051 0.8835 0.59692 0.0
C3019 C 0.76533 0.88839 0.62106 0.0
C3020 C 0.78154 0.88936 0.60731 0.0
C3021 C 0.78274 0.88496 0.57077 0.0
C3022 C 0.76775 0.87989 0.54794 0.0
C3023 C 0.75201 0.87934 0.56049 0.0
C3024 C 0.73748 0.87263 0.53113 0.0
C3025 C 0.71982 0.85556 0.54357 0.0
C3026 C 0.73369 0.88792 0.51935 0.0
C3027 C 0.74698 0.86825 0.50105 0.0
C3028 C 0.76464 0.87301 0.51063 0.0
C3029 C 0.77569 0.86949 0.48741 0.0
C3030 C 0.76833 0.86054 0.45396 0.0
C3031 C 0.74999 0.85488 0.44463 0.0
C3032 C 0.73942 0.85913 0.46833 0.0
H3033 H 0.11128 0.86039 0.60642 0.0
H3034 H 0.08859 0.89645 0.61364 0.0
H3035 H 0.09788 0.9062 0.5497 0.0
H3036 H 0.1499 0.88871 0.55531 0.0
H3037 H 0.14896 0.87037 0.5284 0.0
H3038 H 0.13923 0.86582 0.57354 0.0
H3039 H 0.10848 0.84087 0.54646 0.0
H3040 H 0.11806 0.84578 0.50115 0.0
H3041 H 0.0977 0.84686 0.51072 0.0
H3042 H 0.111 0.91266 0.48358 0.0
H3043 H 0.12747 0.91577 0.42526 0.0
H3044 H 0.1423 0.87669 0.4648 0.0
C3045 C 0.10785 0.87003 0.5945 0.0
C3046 C 0.09915 0.87758 0.6154 0.0
C3047 C 0.09542 0.89055 0.59856 0.0
C3048 C 0.10051 0.89608 0.56205 0.0
C3049 C 0.10924 0.88846 0.54242 0.0
C3050 C 0.11277 0.87565 0.55821 0.0
C3051 C 0.12294 0.86998 0.53221 0.0
C3052 C 0.14137 0.87399 0.54833 0.0
C3053 C 0.1111 0.84968 0.52203 0.0
C3054 C 0.12541 0.88221 0.49992 0.0
C3055 C 0.11703 0.89245 0.50563 0.0
C3056 C 0.11756 0.90462 0.47896 0.0
C3057 C 0.12696 0.90633 0.4459 0.0
C3058 C 0.13608 0.89627 0.44024 0.0
C3059 C 0.13523 0.88421 0.46789 0.0
H3060 H 0.41283 0.21549 0.45534 0.0
H3061 H 0.4571 0.20402 0.43978 0.0
H3062 H 0.45767 0.21076 0.37379 0.0
H3063 H 0.3895 0.1958 0.37235 0.0
H3064 H 0.38286 0.21278 0.36518 0.0
H3065 H 0.38645 0.20726 0.41087 0.0
H3066 H 0.41077 0.24179 0.42249 0.0
H3067 H 0.40631 0.24686 0.37699 0.0
H3068 H 0.4293 0.25334 0.39055 0.0
H3069 H 0.4526 0.21845 0.30767 0.0
H3070 H 0.44165 0.22509 0.24973 0.0
H3071 H 0.40166 0.23224 0.31123 0.0
C3072 C 0.42286 0.21463 0.4383 0.0
C3073 C 0.43496 0.20927 0.45304 0.0
C3074 C 0.44754 0.20792 0.42926 0.0
C3075 C 0.44806 0.21186 0.3917 0.0
C3076 C 0.43595 0.21717 0.37817 0.0
C3077 C 0.42359 0.21853 0.40092 0.0
C3078 C 0.41169 0.22405 0.37992 0.0
C3079 C 0.39143 0.20909 0.38224 0.0
C3080 C 0.41468 0.24261 0.39328 0.0
C3081 C 0.41914 0.22554 0.34173 0.0
C3082 C 0.43317 0.2216 0.34098 0.0
C3083 C 0.44169 0.22166 0.30812 0.0
C3084 C 0.43545 0.22554 0.27532 0.0
C3085 C 0.42083 0.22928 0.27565 0.0
C3086 C 0.41291 0.22953 0.30961 0.0
H3087 H 0.77752 0.19458 0.4705 0.0
H3088 H 0.78831 0.24976 0.45073 0.0
H3089 H 0.78185 0.24265 0.38498 0.0
H3090 H 0.79809 0.19018 0.39155 0.0
H3091 H 0.78135 0.1664 0.38451 0.0
H3092 H 0.78576 0.17593 0.42978 0.0
H3093 H 0.75104 0.16528 0.43709 0.0
H3094 H 0.74687 0.1558 0.39161 0.0
H3095 H 0.74012 0.17227 0.40358 0.0
H3096 H 0.77448 0.22913 0.32011 0.0
H3097 H 0.76894 0.21126 0.26303 0.0
H3098 H 0.76385 0.16555 0.3266 0.0
C3099 C 0.77819 0.20511 0.45258 0.0
C3100 C 0.78338 0.22273 0.46601 0.0
C3101 C 0.78453 0.2362 0.44119 0.0
C3102 C 0.78073 0.23224 0.40378 0.0
C3103 C 0.77576 0.21473 0.3915 0.0
C3104 C 0.77447 0.20142 0.41531 0.0
C3105 C 0.76963 0.18392 0.39536 0.0
C3106 C 0.7846 0.1788 0.40058 0.0
C3107 C 0.7508 0.16839 0.40765 0.0
C3108 C 0.76896 0.18956 0.35638 0.0
C3109 C 0.77212 0.20725 0.35462 0.0
C3110 C 0.77198 0.21526 0.32128 0.0
C3111 C 0.76874 0.205 0.289 0.0
C3112 C 0.76601 0.18705 0.29029 0.0
C3113 C 0.76598 0.17928 0.32458 0.0
H3114 H 0.82802 0.59804 0.31907 0.0
H3115 H 0.78347 0.55565 0.25627 0.0
H3116 H 0.76492 0.54426 0.3128 0.0
H3117 H 0.82049 0.569 0.39997 0.0
H3118 H 0.82734 0.58789 0.43087 0.0
H3119 H 0.83693 0.59178 0.38545 0.0
H3120 H 0.82625 0.6154 0.37458 0.0
H3121 H 0.81602 0.61113 0.41928 0.0
H3122 H 0.80233 0.60836 0.37948 0.0
H3123 H 0.75062 0.53886 0.37656 0.0
H3124 H 0.74256 0.5388 0.44151 0.0
H3125 H 0.79717 0.58403 0.46233 0.0
C3126 C 0.8144 0.58626 0.31718 0.0
C3127 C 0.80716 0.57775 0.28317 0.0
C3128 C 0.78934 0.56231 0.28202 0.0
C3129 C 0.77868 0.55581 0.31398 0.0
C3130 C 0.78616 0.56471 0.34698 0.0
C3131 C 0.80373 0.57944 0.3488 0.0
C3132 C 0.80873 0.58644 0.38759 0.0
C3133 C 0.8243 0.58363 0.40182 0.0
C3134 C 0.81362 0.60653 0.39037 0.0
C3135 C 0.79098 0.57397 0.40715 0.0
C3136 C 0.77815 0.56138 0.38342 0.0
C3137 C 0.76066 0.54856 0.39536 0.0
C3138 C 0.75622 0.5486 0.43241 0.0
C3139 C 0.76919 0.5614 0.45727 0.0
C3140 C 0.78681 0.5742 0.44415 0.0
H3141 H 0.86464 0.72393 0.72658 0.0
H3142 H 0.91015 0.77694 0.75553 0.0
H3143 H 0.90679 0.78934 0.69612 0.0
H3144 H 0.87442 0.72343 0.63666 0.0
H3145 H 0.85121 0.7126 0.62014 0.0
H3146 H 0.85569 0.70859 0.66622 0.0
H3147 H 0.83433 0.71961 0.69173 0.0
H3148 H 0.82922 0.7232 0.64572 0.0
H3149 H 0.83773 0.74162 0.67832 0.0
H3150 H 0.90002 0.79454 0.62972 0.0
H3151 H 0.8898 0.79271 0.56577 0.0
H3152 H 0.84773 0.73628 0.58339 0.0
C3153 C 0.87364 0.73827 0.721 0.0
C3154 C 0.88761 0.74949 0.74581 0.0
C3155 C 0.89924 0.76815 0.73711 0.0
C3156 C 0.89744 0.77525 0.70338 0.0
C3157 C 0.8837 0.76358 0.67918 0.0
C3158 C 0.87177 0.74556 0.68811 0.0
C3159 C 0.85848 0.73553 0.6574 0.0
C3160 C 0.86007 0.71908 0.64433 0.0
C3161 C 0.83878 0.72965 0.66899 0.0
C3162 C 0.86529 0.75043 0.62881 0.0
C3163 C 0.87968 0.7666 0.64187 0.0
C3164 C 0.88857 0.78202 0.61958 0.0
C3165 C 0.8826 0.78085 0.58324 0.0
C3166 C 0.86789 0.76434 0.56929 0.0
C3167 C 0.85911 0.74906 0.59281 0.0
H3168 H 0.25719 0.11481 0.57718 0.0
H3169 H 0.20237 0.105 0.55606 0.0
H3170 H 0.19967 0.11185 0.62052 0.0
H3171 H 0.2491 0.09682 0.67046 0.0
H3172 H 0.27128 0.11425 0.68614 0.0
H3173 H 0.2682 0.10678 0.63927 0.0
H3174 H 0.28094 0.14018 0.61716 0.0
H3175 H 0.28429 0.14757 0.66397 0.0
H3176 H 0.2708 0.15315 0.63404 0.0
H3177 H 0.20397 0.12227 0.68733 0.0
H3178 H 0.21585 0.13683 0.74784 0.0
H3179 H 0.26756 0.13979 0.72367 0.0
C3180 C 0.24457 0.11404 0.58599 0.0
C3181 C 0.22996 0.10921 0.56132 0.0
C3182 C 0.21367 0.10829 0.5744 0.0
C3183 C 0.21201 0.11223 0.61104 0.0
C3184 C 0.22672 0.11705 0.63452 0.0
C3185 C 0.24271 0.11798 0.62239 0.0
C3186 C 0.25697 0.12456 0.6523 0.0
C3187 C 0.26165 0.10971 0.66265 0.0
C3188 C 0.27425 0.14242 0.64118 0.0
C3189 C 0.24671 0.12767 0.6828 0.0
C3190 C 0.22919 0.12305 0.67244 0.0
C3191 C 0.21761 0.12574 0.69586 0.0
C3192 C 0.22437 0.13388 0.73025 0.0
C3193 C 0.24255 0.13937 0.74044 0.0
C3194 C 0.25355 0.13568 0.7167 0.0
H3195 H 0.82691 0.09075 0.71125 0.0
H3196 H 0.87607 0.10854 0.77559 0.0
H3197 H 0.89428 0.11551 0.71859 0.0
H3198 H 0.84088 0.06925 0.6388 0.0
H3199 H 0.82987 0.07511 0.60336 0.0
H3200 H 0.82077 0.07073 0.64913 0.0
H3201 H 0.82298 0.10223 0.65041 0.0
H3202 H 0.83175 0.10657 0.60453 0.0
H3203 H 0.84448 0.12257 0.64022 0.0
H3204 H 0.90732 0.12285 0.65394 0.0
H3205 H 0.91386 0.12858 0.58789 0.0
H3206 H 0.8558 0.10444 0.56612 0.0
C3207 C 0.84149 0.09597 0.71332 0.0
C3208 C 0.85013 0.09919 0.74782 0.0
C3209 C 0.86919 0.10586 0.74944 0.0
C3210 C 0.87962 0.1099 0.71721 0.0
C3211 C 0.87071 0.10678 0.68359 0.0
C3212 C 0.852 0.09964 0.68148 0.0
C3213 C 0.84567 0.09725 0.64204 0.0
C3214 C 0.83359 0.07688 0.6328 0.0
C3215 C 0.83565 0.10784 0.63383 0.0
C3216 C 0.86384 0.10541 0.62231 0.0
C3217 C 0.87811 0.11051 0.64664 0.0
C3218 C 0.8962 0.1187 0.6347 0.0
C3219 C 0.89979 0.12186 0.59706 0.0
C3220 C 0.88537 0.11699 0.57168 0.0
C3221 C 0.86716 0.1085 0.58473 0.0
H3222 H 0.24601 0.11279 0.05455 0.0
H3223 H 0.21063 0.13505 0.07836 0.0
H3224 H 0.21208 0.12926 0.14428 0.0
H3225 H 0.22854 0.07711 0.12579 0.0
H3226 H 0.25104 0.08058 0.13515 0.0
H3227 H 0.24544 0.08478 0.08997 0.0
H3228 H 0.27334 0.11693 0.09247 0.0
H3229 H 0.2787 0.11417 0.13875 0.0
H3230 H 0.27477 0.1327 0.12713 0.0
H3231 H 0.21762 0.12092 0.20828 0.0
H3232 H 0.2291 0.11363 0.26456 0.0
H3233 H 0.26231 0.09877 0.19842 0.0
C3234 C 0.23824 0.11609 0.07353 0.0
C3235 C 0.22806 0.12422 0.06122 0.0
C3236 C 0.21855 0.12885 0.08714 0.0
C3237 C 0.21918 0.12547 0.12462 0.0
C3238 C 0.22942 0.11751 0.13583 0.0
C3239 C 0.23881 0.11293 0.11097 0.0
C3240 C 0.24998 0.10587 0.13008 0.0
C3241 C 0.24334 0.0859 0.11962 0.0
C3242 C 0.27042 0.11815 0.12161 0.0
C3243 C 0.24564 0.1074 0.16967 0.0
C3244 C 0.23344 0.11376 0.17247 0.0
C3245 C 0.22718 0.11594 0.20637 0.0
C3246 C 0.23369 0.11168 0.23819 0.0
C3247 C 0.24658 0.10565 0.23591 0.0
C3248 C 0.2525 0.10342 0.20109 0.0
H3249 H 0.86636 0.14023 0.23102 0.0
H3250 H 0.90947 0.1292 0.26289 0.0
H3251 H 0.90646 0.11411 0.20289 0.0
H3252 H 0.83857 0.09841 0.17919 0.0
H3253 H 0.83253 0.1101 0.14554 0.0
H3254 H 0.83712 0.11826 0.19195 0.0
H3255 H 0.86181 0.15026 0.16894 0.0
H3256 H 0.85723 0.14213 0.12259 0.0
H3257 H 0.88014 0.15221 0.14044 0.0
H3258 H 0.90042 0.10302 0.13628 0.0
H3259 H 0.89127 0.09568 0.07172 0.0
H3260 H 0.8516 0.11371 0.08563 0.0
C3261 C 0.87507 0.13444 0.22578 0.0
C3262 C 0.88822 0.13592 0.25169 0.0
C3263 C 0.89922 0.12808 0.24362 0.0
C3264 C 0.89764 0.11959 0.20955 0.0
C3265 C 0.88488 0.11894 0.18421 0.0
C3266 C 0.87366 0.12601 0.19227 0.0
C3267 C 0.86157 0.12442 0.16025 0.0
C3268 C 0.84125 0.11205 0.16981 0.0
C3269 C 0.86543 0.14338 0.14732 0.0
C3270 C 0.86789 0.11555 0.13237 0.0
C3271 C 0.8813 0.11245 0.14659 0.0
C3272 C 0.88973 0.10514 0.12517 0.0
C3273 C 0.88434 0.10091 0.08846 0.0
C3274 C 0.87058 0.10396 0.0733 0.0
C3275 C 0.86224 0.11129 0.09596 0.0
H3276 H 0.86016 0.73819 0.06742 0.0
H3277 H 0.91478 0.78403 0.08499 0.0
H3278 H 0.90744 0.78465 0.15025 0.0
H3279 H 0.83741 0.7548 0.12841 0.0
H3280 H 0.8208 0.73197 0.14239 0.0
H3281 H 0.83093 0.73603 0.09745 0.0
H3282 H 0.84085 0.71194 0.1116 0.0
H3283 H 0.83132 0.70854 0.1568 0.0
H3284 H 0.85504 0.71517 0.15093 0.0
H3285 H 0.89351 0.77999 0.21493 0.0
H3286 H 0.875 0.7692 0.27189 0.0
H3287 H 0.8299 0.72716 0.20959 0.0
C3288 C 0.87057 0.74851 0.08477 0.0
C3289 C 0.88806 0.76108 0.07084 0.0
C3290 C 0.90134 0.7741 0.09496 0.0
C3291 C 0.89725 0.77465 0.13207 0.0
C3292 C 0.8798 0.76213 0.14475 0.0
C3293 C 0.86672 0.74929 0.1217 0.0
C3294 C 0.849 0.73731 0.1417 0.0
C3295 C 0.83361 0.74018 0.12659 0.0
C3296 C 0.84376 0.71705 0.14016 0.0
C3297 C 0.85428 0.74497 0.17988 0.0
C3298 C 0.87197 0.75948 0.18127 0.0
C3299 C 0.87963 0.76864 0.21404 0.0
C3300 C 0.86901 0.76254 0.24622 0.0
C3301 C 0.85105 0.74734 0.24525 0.0
C3302 C 0.84364 0.73876 0.21142 0.0
H3303 H 0.78309 0.58378 0.96229 0.0
H3304 H 0.78971 0.53653 0.94544 0.0
H3305 H 0.78201 0.53613 0.88019 0.0
H3306 H 0.74424 0.569 0.90002 0.0
H3307 H 0.75163 0.59195 0.88466 0.0
H3308 H 0.75703 0.58807 0.93025 0.0
H3309 H 0.79158 0.61 0.91819 0.0
H3310 H 0.78576 0.61412 0.87335 0.0
H3311 H 0.8021 0.60637 0.87863 0.0
H3312 H 0.77365 0.54115 0.81568 0.0
H3313 H 0.76717 0.55232 0.75792 0.0
H3314 H 0.76631 0.59618 0.81788 0.0
C3315 C 0.78269 0.57316 0.9451 0.0
C3316 C 0.78706 0.56019 0.95927 0.0
C3317 C 0.78668 0.54679 0.93536 0.0
C3318 C 0.78216 0.54634 0.89823 0.0
C3319 C 0.77795 0.55935 0.88524 0.0
C3320 C 0.77817 0.5725 0.90804 0.0
C3321 C 0.77352 0.58519 0.88732 0.0
C3322 C 0.75553 0.58343 0.9014 0.0
C3323 C 0.78921 0.60509 0.88947 0.0
C3324 C 0.77125 0.57751 0.84902 0.0
C3325 C 0.77349 0.56239 0.84838 0.0
C3326 C 0.77186 0.55298 0.81591 0.0
C3327 C 0.76811 0.55935 0.78324 0.0
C3328 C 0.76629 0.57513 0.78324 0.0
C3329 C 0.76772 0.58412 0.81678 0.0
H3330 H 0.40521 0.20403 0.78812 0.0
H3331 H 0.43653 0.17625 0.78067 0.0
H3332 H 0.44871 0.18687 0.84299 0.0
H3333 H 0.44084 0.24372 0.84202 0.0
H3334 H 0.42384 0.24594 0.86779 0.0
H3335 H 0.41912 0.23763 0.82147 0.0
H3336 H 0.39021 0.21036 0.8451 0.0
H3337 H 0.39492 0.21605 0.89237 0.0
H3338 H 0.39134 0.19432 0.87636 0.0
H3339 H 0.45468 0.19764 0.90866 0.0
H3340 H 0.45542 0.20918 0.97096 0.0
H3341 H 0.42121 0.23114 0.93508 0.0
C3342 C 0.41473 0.20033 0.79966 0.0
C3343 C 0.41989 0.18924 0.7799 0.0
C3344 C 0.4326 0.18489 0.79536 0.0
C3345 C 0.4395 0.19079 0.83075 0.0
C3346 C 0.4338 0.20134 0.85001 0.0
C3347 C 0.42197 0.20639 0.83475 0.0
C3348 C 0.41796 0.21773 0.86141 0.0
C3349 C 0.42592 0.23742 0.84734 0.0
C3350 C 0.39738 0.20903 0.86927 0.0
C3351 C 0.42829 0.21713 0.89477 0.0
C3352 C 0.43763 0.20792 0.88747 0.0
C3353 C 0.44764 0.20512 0.91447 0.0
C3354 C 0.44804 0.2118 0.94982 0.0
C3355 C 0.4384 0.22112 0.95809 0.0
C3356 C 0.42859 0.22394 0.92986 0.0
H3357 H 0.81724 0.20874 0.81402 0.0
H3358 H 0.78613 0.23159 0.76523 0.0
H3359 H 0.76872 0.22579 0.82321 0.0
H3360 H 0.77981 0.17302 0.86673 0.0
H3361 H 0.79454 0.17518 0.90438 0.0
H3362 H 0.80354 0.18026 0.85856 0.0
H3363 H 0.82841 0.21228 0.87931 0.0
H3364 H 0.81964 0.20753 0.9252 0.0
H3365 H 0.82202 0.22733 0.90145 0.0
H3366 H 0.75595 0.21876 0.88889 0.0
H3367 H 0.74861 0.21077 0.95404 0.0
H3368 H 0.7888 0.19301 0.95859 0.0
C3369 C 0.8067 0.21249 0.81519 0.0
C3370 C 0.80314 0.22075 0.78489 0.0
C3371 C 0.7891 0.22523 0.78789 0.0
C3372 C 0.77918 0.222 0.82078 0.0
C3373 C 0.78332 0.21409 0.85025 0.0
C3374 C 0.79668 0.20927 0.84747 0.0
C3375 C 0.79891 0.2013 0.88297 0.0
C3376 C 0.7939 0.18125 0.87784 0.0
C3377 C 0.8184 0.21282 0.89817 0.0
C3378 C 0.78503 0.20278 0.90676 0.0
C3379 C 0.77605 0.21005 0.88742 0.0
C3380 C 0.7629 0.21303 0.9041 0.0
C3381 C 0.75893 0.20856 0.94133 0.0
C3382 C 0.76811 0.20126 0.96184 0.0
C3383 C 0.78126 0.19827 0.94389 0.0
H3384 H 0.99441 0.46575 0.264 0.0
H3385 H 0.02214 0.43449 0.25064 0.0
H3386 H 0.01924 0.42799 0.31668 0.0
H3387 H 0.01493 0.48557 0.35182 0.0
H3388 H 0.99447 0.48456 0.36932 0.0
H3389 H -0.00107 0.48672 0.32087 0.0
H3390 H 0.96739 0.45796 0.30993 0.0
H3391 H 0.96307 0.45548 0.35839 0.0
H3392 H 0.96204 0.43686 0.33243 0.0
H3393 H 0.01292 0.4242 0.38371 0.0
H3394 H 0.00456 0.42425 0.44813 0.0
H3395 H 0.98116 0.45827 0.41994 0.0
C3396 C -0.00019 0.45748 0.27498 0.0
C3397 C 0.0086 0.45071 0.25193 0.0
C3398 C 0.01562 0.4401 0.2676 0.0
C3399 C 0.01392 0.4362 0.30514 0.0
C3400 C 0.0052 0.44303 0.327 0.0
C3401 C -0.00168 0.45352 0.31265 0.0
C3402 C 0.98983 0.4594 0.3426 0.0
C3403 C 0.00016 0.48031 0.34642 0.0
C3404 C 0.96937 0.45197 0.3354 0.0
C3405 C 0.99278 0.45034 0.37583 0.0
C3406 C 0.00171 0.441 0.36607 0.0
C3407 C 0.00604 0.43156 0.39172 0.0
C3408 C 0.0013 0.43176 0.42838 0.0
C3409 C 0.99231 0.44137 0.43943 0.0
C3410 C 0.9879 0.45067 0.41251 0.0
H3411 H 0.55968 0.5361 0.42372 0.0
H3412 H 0.50817 0.53245 0.4545 0.0
H3413 H 0.50199 0.53535 0.39011 0.0
H3414 H 0.57173 0.56784 0.35161 0.0
H3415 H 0.58032 0.55698 0.32145 0.0
H3416 H 0.58093 0.5543 0.37016 0.0
H3417 H 0.56264 0.51912 0.36311 0.0
H3418 H 0.56209 0.52168 0.31429 0.0
H3419 H 0.54106 0.50859 0.33931 0.0
H3420 H 0.50254 0.54172 0.32352 0.0
H3421 H 0.50804 0.54737 0.25765 0.0
H3422 H 0.55706 0.5433 0.26649 0.0
C3423 C 0.54695 0.53561 0.41706 0.0
C3424 C 0.53472 0.53455 0.44499 0.0
C3425 C 0.51824 0.53399 0.43437 0.0
C3426 C 0.51444 0.53542 0.39759 0.0
C3427 C 0.52698 0.53697 0.37112 0.0
C3428 C 0.54272 0.53667 0.38014 0.0
C3429 C 0.55369 0.53826 0.34585 0.0
C3430 C 0.5728 0.55537 0.34737 0.0
C3431 C 0.55494 0.52088 0.34031 0.0
C3432 C 0.54191 0.54007 0.31641 0.0
C3433 C 0.52662 0.53936 0.33186 0.0
C3434 C 0.51426 0.54189 0.31105 0.0
C3435 C 0.51748 0.54511 0.27348 0.0
C3436 C 0.5327 0.54543 0.25641 0.0
C3437 C 0.54507 0.54278 0.27841 0.0
H3438 H 0.46273 -0.00154 0.2717 0.0
H3439 H 0.40615 0.95438 0.26764 0.0
H3440 H 0.40419 0.95545 0.33416 0.0
H3441 H 0.47502 0.98573 0.35677 0.0
H3442 H 0.48862 0.00882 0.37318 0.0
H3443 H 0.48627 0.00435 0.32478 0.0
H3444 H 0.47436 0.02702 0.31634 0.0
H3445 H 0.4767 0.0316 0.3647 0.0
H3446 H 0.45497 0.02399 0.34266 0.0
H3447 H 0.40789 0.96046 0.40105 0.0
H3448 H 0.41658 0.97079 0.46459 0.0
H3449 H 0.46983 0.01345 0.42763 0.0
C3450 C 0.44986 0.98908 0.28461 0.0
C3451 C 0.43474 0.976 0.26369 0.0
C3452 C 0.41824 0.96408 0.28239 0.0
C3453 C 0.41687 0.96468 0.32046 0.0
C3454 C 0.43197 0.97752 0.34002 0.0
C3455 C 0.44811 0.98969 0.32288 0.0
C3456 C 0.46203 0.00251 0.35078 0.0
C3457 C 0.47899 0.00021 0.35141 0.0
C3458 C 0.46732 0.02247 0.34316 0.0
C3459 C 0.45111 0.99559 0.3861 0.0
C3460 C 0.43387 0.98102 0.37905 0.0
C3461 C 0.42132 0.97191 0.40692 0.0
C3462 C 0.42641 0.97783 0.44298 0.0
C3463 C 0.44385 0.99289 0.45117 0.0
C3464 C 0.45635 0.00196 0.42219 0.0
H3465 H 0.00147 0.55173 0.91921 0.0
H3466 H 0.96796 0.49286 0.92767 0.0
H3467 H 0.97072 0.49009 0.861 0.0
H3468 H 0.98237 0.55624 0.83694 0.0
H3469 H 0.00347 0.5743 0.81829 0.0
H3470 H 0.00048 0.57157 0.86702 0.0
H3471 H 0.02989 0.56923 0.87218 0.0
H3472 H 0.03299 0.57201 0.82339 0.0
H3473 H 0.03193 0.55242 0.84547 0.0
H3474 H 0.97589 0.49386 0.79271 0.0
H3475 H 0.98207 0.50377 0.7284 0.0
H3476 H 0.01131 0.56043 0.76338 0.0
C3477 C -0.00498 0.53825 0.90707 0.0
C3478 C 0.98451 0.52247 0.92872 0.0
C3479 C 0.97597 0.5051 0.91165 0.0
C3480 C 0.97756 0.50341 0.8738 0.0
C3481 C 0.98771 0.51923 0.85312 0.0
C3482 C -0.00368 0.53633 0.86913 0.0
C3483 C 0.00544 0.55121 0.84035 0.0
C3484 C -0.00254 0.56409 0.84068 0.0
C3485 C 0.0263 0.56185 0.84568 0.0
C3486 C 0.00028 0.53986 0.80564 0.0
C3487 C 0.99028 0.52143 0.81369 0.0
C3488 C 0.98368 0.50827 0.78617 0.0
C3489 C 0.98715 0.51408 0.74956 0.0
C3490 C -0.00297 0.53293 0.74038 0.0
C3491 C 0.00385 0.54592 0.76914 0.0
H3492 H 0.44662 0.47125 0.77508 0.0
H3493 H 0.43144 0.41618 0.7411 0.0
H3494 H 0.43537 0.40866 0.80398 0.0
H3495 H 0.48177 0.47578 0.84152 0.0
H3496 H 0.47647 0.4886 0.87372 0.0
H3497 H 0.47307 0.49018 0.82553 0.0
H3498 H 0.43926 0.48067 0.83764 0.0
H3499 H 0.44252 0.47901 0.88582 0.0
H3500 H 0.42473 0.45968 0.86176 0.0
H3501 H 0.43887 0.40601 0.87051 0.0
H3502 H 0.44315 0.40895 0.93733 0.0
H3503 H 0.45774 0.46593 0.93032 0.0
C3504 C 0.44435 0.45769 0.78077 0.0
C3505 C 0.43832 0.44422 0.75286 0.0
C3506 C 0.4355 0.42663 0.76183 0.0
C3507 C 0.43788 0.42224 0.79755 0.0
C3508 C 0.44341 0.4356 0.8244 0.0
C3509 C 0.44683 0.45305 0.81658 0.0
C3510 C 0.45243 0.46466 0.85111 0.0
C3511 C 0.47211 0.48076 0.84777 0.0
C3512 C 0.43893 0.4714 0.85957 0.0
C3513 C 0.45117 0.45084 0.87949 0.0
C3514 C 0.44598 0.4342 0.86323 0.0
C3515 C 0.4431 0.41901 0.88355 0.0
C3516 C 0.44547 0.42078 0.92153 0.0
C3517 C 0.45076 0.43762 0.93909 0.0
C3518 C 0.45387 0.45293 0.91761 0.0
H3519 H 0.52532 0.00759 0.92392 0.0
H3520 H 0.56726 0.99432 0.95175 0.0
H3521 H 0.5677 0.98506 0.88782 0.0
H3522 H 0.50114 0.96947 0.8582 0.0
H3523 H 0.49536 0.98292 0.82867 0.0
H3524 H 0.49813 0.98744 0.87713 0.0
H3525 H 0.52261 0.02154 0.86255 0.0
H3526 H 0.51946 0.01632 0.81448 0.0
H3527 H 0.54195 0.02607 0.83443 0.0
H3528 H 0.56416 0.97783 0.82113 0.0
H3529 H 0.55735 0.97352 0.7553 0.0
H3530 H 0.51734 0.99112 0.7689 0.0
C3531 C 0.53449 0.00265 0.91637 0.0
C3532 C 0.54627 0.0016 0.94261 0.0
C3533 C 0.55813 0.99513 0.93197 0.0
C3534 C 0.55846 0.98985 0.89577 0.0
C3535 C 0.54675 0.99103 0.87042 0.0
C3536 C 0.53493 -0.0028 0.88015 0.0
C3537 C 0.52383 -0.0029 0.84726 0.0
C3538 C 0.5034 0.98343 0.85315 0.0
C3539 C 0.52716 0.0164 0.83919 0.0
C3540 C 0.53173 0.99054 0.81737 0.0
C3541 C 0.54473 0.98687 0.8316 0.0
C3542 C 0.55393 0.98057 0.80972 0.0
C3543 C 0.54985 0.97803 0.77228 0.0
C3544 C 0.53673 0.98184 0.75667 0.0
C3545 C 0.52753 0.98816 0.77979 0.0
H3546 H 0.64412 0.76484 0.76285 0.0
H3547 H 0.67809 0.82173 0.79418 0.0
H3548 H 0.68675 0.82998 0.72978 0.0
H3549 H 0.67282 0.76386 0.69326 0.0
H3550 H 0.6545 0.74954 0.66258 0.0
H3551 H 0.6505 0.74795 0.71113 0.0
H3552 H 0.62378 0.75437 0.70187 0.0
H3553 H 0.6276 0.75583 0.65323 0.0
H3554 H 0.62775 0.77453 0.67724 0.0
H3555 H 0.69336 0.83189 0.66238 0.0
H3556 H 0.69589 0.82781 0.5968 0.0
H3557 H 0.65574 0.77009 0.60715 0.0
C3558 C 0.65318 0.77909 0.75626 0.0
C3559 C 0.66059 0.79255 0.78416 0.0
C3560 C 0.67254 0.811 0.77385 0.0
C3561 C 0.67746 0.81588 0.73715 0.0
C3562 C 0.6702 0.80225 0.71062 0.0
C3563 C 0.65814 0.78426 0.71959 0.0
C3564 C 0.65231 0.7723 0.68561 0.0
C3565 C 0.65787 0.75754 0.68832 0.0
C3566 C 0.63163 0.76375 0.6791 0.0
C3567 C 0.66326 0.78631 0.65627 0.0
C3568 C 0.67347 0.80349 0.67139 0.0
C3569 C 0.68516 0.81855 0.65018 0.0
C3570 C 0.68638 0.81606 0.61258 0.0
C3571 C 0.67584 0.79866 0.59587 0.0
C3572 C 0.66413 0.7836 0.61849 0.0
H3573 H 0.23211 0.88351 0.74454 0.0
H3574 H 0.1751 0.85827 0.77661 0.0
H3575 H 0.16624 0.85704 0.71189 0.0
H3576 H 0.23016 0.91179 0.67416 0.0
H3577 H 0.24557 0.90934 0.64366 0.0
H3578 H 0.24745 0.90735 0.69227 0.0
H3579 H 0.24409 0.8754 0.68346 0.0
H3580 H 0.24224 0.8773 0.63478 0.0
H3581 H 0.22455 0.858 0.65918 0.0
H3582 H 0.16353 0.85937 0.64371 0.0
H3583 H 0.16724 0.86521 0.57725 0.0
H3584 H 0.22592 0.88945 0.58825 0.0
C3585 C 0.21775 0.87752 0.73788 0.0
C3586 C 0.20431 0.87103 0.76587 0.0
C3587 C 0.18568 0.86353 0.75587 0.0
C3588 C 0.1805 0.86268 0.71909 0.0
C3589 C 0.19408 0.86945 0.6923 0.0
C3590 C 0.21233 0.8767 0.70116 0.0
C3591 C 0.22422 0.88357 0.66705 0.0
C3592 C 0.23764 0.90424 0.66944 0.0
C3593 C 0.23437 0.87293 0.66075 0.0
C3594 C 0.20984 0.8792 0.63771 0.0
C3595 C 0.19253 0.87098 0.65295 0.0
C3596 C 0.17704 0.86589 0.6316 0.0
C3597 C 0.17927 0.86944 0.59388 0.0
C3598 C 0.19682 0.8781 0.57751 0.0
C3599 C 0.2123 0.88281 0.59986 0.0
H3600 H 0.11555 0.32079 0.7548 0.0
H3601 H 0.13564 0.37923 0.75457 0.0
H3602 H 0.13523 0.37909 0.68745 0.0
H3603 H 0.14173 0.32107 0.6734 0.0
H3604 H 0.12358 0.29947 0.65694 0.0
H3605 H 0.12626 0.3041 0.7053 0.0
H3606 H 0.09274 0.29714 0.70929 0.0
H3607 H 0.08997 0.2925 0.66101 0.0
H3608 H 0.08527 0.30939 0.68015 0.0
H3609 H 0.13124 0.37267 0.62041 0.0
H3610 H 0.1239 0.36033 0.55785 0.0
H3611 H 0.10694 0.30605 0.59965 0.0
C3612 C 0.12017 0.33365 0.74075 0.0
C3613 C 0.12554 0.35004 0.76057 0.0
C3614 C 0.13116 0.36641 0.74059 0.0
C3615 C 0.13113 0.36652 0.70223 0.0
C3616 C 0.12558 0.35017 0.68374 0.0
C3617 C 0.1203 0.33402 0.70224 0.0
C3618 C 0.11445 0.31826 0.67547 0.0
C3619 C 0.12727 0.31026 0.67793 0.0
C3620 C 0.09442 0.30345 0.68187 0.0
C3621 C 0.11676 0.32801 0.63917 0.0
C3622 C 0.12337 0.34645 0.64472 0.0
C3623 C 0.12612 0.35827 0.61575 0.0
C3624 C 0.12179 0.35109 0.58027 0.0
C3625 C 0.11469 0.33219 0.57367 0.0
C3626 C 0.11245 0.32057 0.60366 0.0
H3627 H 0.68591 0.88753 0.10846 0.0
H3628 H 0.635 0.84095 0.07239 0.0
H3629 H 0.6253 0.83301 0.13665 0.0
H3630 H 0.69164 0.86628 0.19169 0.0
H3631 H 0.70054 0.88703 0.21792 0.0
H3632 H 0.70417 0.88814 0.16923 0.0
H3633 H 0.6894 0.90852 0.16261 0.0
H3634 H 0.68568 0.90743 0.2112 0.0
H3635 H 0.6667 0.90052 0.18033 0.0
H3636 H 0.62056 0.83071 0.20518 0.0
H3637 H 0.62058 0.83492 0.27182 0.0
H3638 H 0.67394 0.88387 0.26391 0.0
C3639 C 0.67286 0.87548 0.11411 0.0
C3640 C 0.66128 0.8648 0.08516 0.0
C3641 C 0.64412 0.84937 0.09388 0.0
C3642 C 0.63851 0.8447 0.1304 0.0
C3643 C 0.65012 0.85565 0.1582 0.0
C3644 C 0.66692 0.87075 0.15051 0.0
C3645 C 0.67633 0.88081 0.18541 0.0
C3646 C 0.69423 0.88055 0.19141 0.0
C3647 C 0.67972 0.90048 0.18484 0.0
C3648 C 0.66206 0.86922 0.21386 0.0
C3649 C 0.64715 0.85464 0.19759 0.0
C3650 C 0.63215 0.84215 0.21812 0.0
C3651 C 0.63223 0.84477 0.25608 0.0
C3652 C 0.64715 0.85987 0.27351 0.0
C3653 C 0.66235 0.8721 0.25182 0.0
H3654 H 0.1049 0.75802 0.24001 0.0
H3655 H 0.15402 0.80915 0.26511 0.0
H3656 H 0.15704 0.81805 0.20004 0.0
H3657 H 0.11937 0.7508 0.1502 0.0
H3658 H 0.09697 0.74181 0.13025 0.0
H3659 H 0.09925 0.73893 0.1784 0.0
H3660 H 0.08006 0.75432 0.19313 0.0
H3661 H 0.07774 0.75727 0.14506 0.0
H3662 H 0.08708 0.77676 0.17511 0.0
H3663 H 0.1544 0.82177 0.13207 0.0
H3664 H 0.14604 0.82039 0.06733 0.0
H3665 H 0.0977 0.76746 0.086 0.0
C3666 C 0.11644 0.77096 0.23168 0.0
C3667 C 0.12929 0.78284 0.2578 0.0
C3668 C 0.14399 0.79982 0.24577 0.0
C3669 C 0.14585 0.80498 0.20878 0.0
C3670 C 0.13284 0.7931 0.18385 0.0
C3671 C 0.11839 0.77645 0.19478 0.0
C3672 C 0.10586 0.7666 0.16266 0.0
C3673 C 0.10534 0.74846 0.15493 0.0
C3674 C 0.08654 0.76357 0.1694 0.0
C3675 C 0.11547 0.78032 0.13205 0.0
C3676 C 0.13107 0.79545 0.14486 0.0
C3677 C 0.14216 0.80999 0.12183 0.0
C3678 C 0.13718 0.80911 0.0849 0.0
C3679 C 0.12111 0.79386 0.07086 0.0
C3680 C 0.11021 0.77926 0.09518 0.0
H3681 H 0.18655 0.30157 0.10689 0.0
H3682 H 0.21984 0.35783 0.07024 0.0
H3683 H 0.22349 0.36827 0.13361 0.0
H3684 H 0.16456 0.31076 0.18375 0.0
H3685 H 0.16555 0.29424 0.21348 0.0
H3686 H 0.16403 0.29082 0.16472 0.0
H3687 H 0.19334 0.28827 0.16589 0.0
H3688 H 0.19494 0.29165 0.21463 0.0
H3689 H 0.21396 0.30647 0.18577 0.0
H3690 H 0.22442 0.37316 0.2007 0.0
H3691 H 0.22409 0.37203 0.2675 0.0
H3692 H 0.19241 0.31275 0.26394 0.0
C3693 C 0.19464 0.31609 0.11201 0.0
C3694 C 0.20256 0.32879 0.08265 0.0
C3695 C 0.213 0.34768 0.09137 0.0
C3696 C 0.21534 0.35383 0.12761 0.0
C3697 C 0.20738 0.34104 0.15556 0.0
C3698 C 0.19734 0.32255 0.14839 0.0
C3699 C 0.19104 0.31176 0.18406 0.0
C3700 C 0.17004 0.30127 0.18664 0.0
C3701 C 0.19879 0.29877 0.1878 0.0
C3702 C 0.19942 0.3271 0.21222 0.0
C3703 C 0.20856 0.34385 0.1949 0.0
C3704 C 0.21743 0.36009 0.21454 0.0
C3705 C 0.21728 0.35927 0.25281 0.0
C3706 C 0.2085 0.34235 0.27182 0.0
C3707 C 0.19923 0.32601 0.25081 0.0
H3708 H 0.30887 0.09563 0.07736 0.0
H3709 H 0.34903 0.14988 0.11476 0.0
H3710 H 0.35827 0.15943 0.05117 0.0
H3711 H 0.33477 0.09222 1.00502 0.0
H3712 H 0.3158 0.08085 0.97391 0.0
H3713 H 0.31189 0.07826 1.02246 0.0
H3714 H 0.28868 0.08974 1.01693 0.0
H3715 H 0.29244 0.09229 0.96828 0.0
H3716 H 0.29562 0.11146 0.99541 0.0
H3717 H 0.36459 0.16271 0.98331 0.0
H3718 H 0.36607 0.15988 0.91632 0.0
H3719 H 0.32079 0.10421 0.92192 0.0
C3720 C 0.31942 0.10961 0.07233 0.0
C3721 C 0.32833 0.12187 0.10168 0.0
C3722 C 0.34221 0.13999 0.09329 0.0
C3723 C 0.3475 0.14564 0.05704 0.0
C3724 C 0.33868 0.13313 0.029 0.0
C3725 C 0.32477 0.11556 0.03614 0.0
C3726 C 0.31754 0.10481 1.00088 0.0
C3727 C 0.32016 0.08805 1.00056 0.0
C3728 C 0.29737 0.09925 0.99503 0.0
C3729 C 0.3298 0.11896 0.97291 0.0
C3730 C 0.34191 0.13521 0.98975 0.0
C3731 C 0.35507 0.15009 0.96984 0.0
C3732 C 0.35588 0.14833 0.9318 0.0
C3733 C 0.34355 0.13185 0.9138 0.0
C3734 C 0.33026 0.11705 0.93479 0.0
H3735 H 0.8524 0.20675 0.94431 0.0
H3736 H 0.90548 0.21548 0.91008 0.0
H3737 H 0.91269 0.21215 0.97374 0.0
H3738 H 0.86726 0.23173 0.02798 0.0
H3739 H 0.84727 0.21624 0.05387 0.0
H3740 H 0.8456 0.21835 1.00523 0.0
H3741 H 0.83222 0.18349 0.99787 0.0
H3742 H 0.83383 0.18123 0.04651 0.0
H3743 H 0.84471 0.17299 1.01562 0.0
H3744 H 0.91509 0.20939 0.04091 0.0
H3745 H 0.91237 0.20687 0.10776 0.0
H3746 H 0.85762 0.19936 0.10067 0.0
C3747 C 0.86552 0.20791 0.95021 0.0
C3748 C 0.87829 0.21121 0.92179 0.0
C3749 C 0.89527 0.21258 0.93092 0.0
C3750 C 0.89958 0.21083 0.96717 0.0
C3751 C 0.88678 0.20763 0.99437 0.0
C3752 C 0.87005 0.20608 0.98647 0.0
C3753 C 0.85892 0.20281 1.02128 0.0
C3754 C 0.85451 0.2182 0.02744 0.0
C3755 C 0.84138 0.18402 1.02025 0.0
C3756 C 0.87223 0.20324 0.04992 0.0
C3757 C 0.88814 0.20591 0.03358 0.0
C3758 C 0.90262 0.20709 0.054 0.0
C3759 C 0.90086 0.2055 0.09212 0.0
C3760 C 0.88471 0.20268 0.10991 0.0
C3761 C 0.8702 0.20157 0.08821 0.0
H3762 H 0.77822 0.63762 0.9375 0.0
H3763 H 0.79555 0.69257 0.89857 0.0
H3764 H 0.80058 0.7036 0.96175 0.0
H3765 H 0.75294 0.63957 1.01435 0.0
H3766 H 0.75916 0.6266 0.04437 0.0
H3767 H 0.7582 0.62296 0.99576 0.0
H3768 H 0.79167 0.62966 0.99642 0.0
H3769 H 0.79276 0.63335 0.04506 0.0
H3770 H 0.80934 0.65085 1.01546 0.0
H3771 H 0.8031 0.70897 0.02891 0.0
H3772 H 0.80196 0.70812 0.09575 0.0
H3773 H 0.78103 0.64952 0.09331 0.0
C3774 C 0.78306 0.65198 0.94215 0.0
C3775 C 0.78674 0.6642 0.91242 0.0
C3776 C 0.79312 0.6829 0.92027 0.0
C3777 C 0.7959 0.68934 0.9563 0.0
C3778 C 0.79214 0.677 0.98471 0.0
C3779 C 0.78579 0.6587 0.97821 0.0
C3780 C 0.78216 0.64829 1.0141 0.0
C3781 C 0.76191 0.63348 1.01733 0.0
C3782 C 0.79473 0.64005 1.01798 0.0
C3783 C 0.78717 0.66359 0.04161 0.0
C3784 C 0.79308 0.68004 1.0239 0.0
C3785 C 0.79842 0.69614 0.04309 0.0
C3786 C 0.79759 0.69546 0.08136 0.0
C3787 C 0.79134 0.67878 0.10065 0.0
C3788 C 0.78613 0.66263 0.08004 0.0
H3789 H 0.31991 0.19815 0.4239 0.0
H3790 H 0.37891 0.23318 0.42203 0.0
H3791 H 0.37956 0.23316 0.489 0.0
H3792 H 0.31182 0.21925 0.50015 0.0
H3793 H 0.29384 0.19839 0.51975 0.0
H3794 H 0.29789 0.19995 0.47123 0.0
H3795 H 0.30164 0.1714 0.47412 0.0
H3796 H 0.29783 0.16977 0.5228 0.0
H3797 H 0.31837 0.17126 0.50453 0.0
H3798 H 0.37414 0.23076 0.55593 0.0
H3799 H 0.36281 0.22665 0.61919 0.0
H3800 H 0.3071 0.19334 0.58028 0.0
C3801 C 0.333 0.20559 0.43754 0.0
C3802 C 0.34942 0.21567 0.41716 0.0
C3803 C 0.36614 0.22547 0.43651 0.0
C3804 C 0.36667 0.22546 0.47477 0.0
C3805 C 0.35033 0.21561 0.49387 0.0
C3806 C 0.33376 0.20584 0.47608 0.0
C3807 C 0.31816 0.19707 0.50364 0.0
C3808 C 0.30463 0.20409 0.49837 0.0
C3809 C 0.30841 0.17613 0.50112 0.0
C3810 C 0.32857 0.20381 0.53951 0.0
C3811 C 0.34714 0.21433 0.53303 0.0
C3812 C 0.35963 0.22253 0.56136 0.0
C3813 C 0.35304 0.22021 0.59726 0.0
C3814 C 0.33405 0.20983 0.60489 0.0
C3815 C 0.3217 0.20126 0.57548 0.0
H3816 H 0.7933 0.10445 0.59606 0.0
H3817 H 0.76716 0.13457 0.63355 0.0
H3818 H 0.76379 0.1418 0.56963 0.0
H3819 H 0.81785 0.13477 0.51798 0.0
H3820 H 0.81446 0.1161 0.48898 0.0
H3821 H 0.8161 0.1144 0.53779 0.0
H3822 H 0.78481 0.08445 0.53809 0.0
H3823 H 0.78303 0.0861 0.48938 0.0
H3824 H 0.7651 0.08436 0.51881 0.0
H3825 H 0.76169 0.14445 0.50178 0.0
H3826 H 0.7611 0.14259 0.43501 0.0
H3827 H 0.78807 0.11025 0.43975 0.0
C3828 C 0.78715 0.11284 0.59082 0.0
C3829 C 0.78043 0.11889 0.62001 0.0
C3830 C 0.77223 0.1296 0.61181 0.0
C3831 C 0.77034 0.13386 0.57553 0.0
C3832 C 0.77673 0.12737 0.54743 0.0
C3833 C 0.78505 0.11715 0.55456 0.0
C3834 C 0.79 0.11124 0.51908 0.0
C3835 C 0.81084 0.11963 0.51577 0.0
C3836 C 0.78014 0.09029 0.51618 0.0
C3837 C 0.7828 0.1194 0.49095 0.0
C3838 C 0.77537 0.12878 0.50804 0.0
C3839 C 0.76751 0.13716 0.48816 0.0
C3840 C 0.76713 0.13589 0.44991 0.0
C3841 C 0.7745 0.12628 0.43124 0.0
C3842 C 0.78252 0.11799 0.45252 0.0
H3843 H 0.8871 0.69088 0.57963 0.0
H3844 H 0.85546 0.63467 0.61678 0.0
H3845 H 0.84923 0.62421 0.5529 0.0
H3846 H 0.85797 0.68552 0.49948 0.0
H3847 H 0.8771 0.70057 0.47112 0.0
H3848 H 0.87821 0.70398 0.51987 0.0
H3849 H 0.90796 0.70218 0.52237 0.0
H3850 H 0.9069 0.69871 0.4737 0.0
H3851 H 0.90801 0.68242 0.50393 0.0
H3852 H 0.84779 0.61942 0.48585 0.0
H3853 H 0.85077 0.6205 0.41928 0.0
H3854 H 0.8832 0.67969 0.42305 0.0
C3855 C 0.87865 0.6764 0.57425 0.0
C3856 C 0.87192 0.66358 0.60338 0.0
C3857 C 0.86104 0.64474 0.59509 0.0
C3858 C 0.85731 0.63866 0.55883 0.0
C3859 C 0.86444 0.65155 0.53084 0.0
C3860 C 0.87479 0.67004 0.53795 0.0
C3861 C 0.88127 0.68084 0.50243 0.0
C3862 C 0.87315 0.69348 0.49797 0.0
C3863 C 0.90228 0.69167 0.50051 0.0
C3864 C 0.87331 0.66547 0.47443 0.0
C3865 C 0.86354 0.64874 0.49163 0.0
C3866 C 0.85534 0.63246 0.47209 0.0
C3867 C 0.85722 0.63323 0.43402 0.0
C3868 C 0.86718 0.65011 0.41524 0.0
C3869 C 0.87524 0.6665 0.43609 0.0
H3870 H 0.04146 0.52573 0.07837 0.0
H3871 H 0.00628 0.4937 0.98902 0.0
H3872 H 0.97987 0.48012 0.03052 0.0
H3873 H 0.02285 0.49345 0.1438 0.0
H3874 H 0.02238 0.50672 0.18172 0.0
H3875 H 0.03934 0.51739 0.14616 0.0
H3876 H 0.0303 0.54086 0.13504 0.0
H3877 H 0.01272 0.53177 0.16948 0.0
H3878 H 0.00744 0.53477 0.12312 0.0
H3879 H 0.96108 0.46309 0.083 0.0
H3880 H 0.94253 0.4559 0.13861 0.0
H3881 H 0.98667 0.50275 0.19289 0.0
C3882 C 0.02798 0.51682 0.0672 0.0
C3883 C 0.02572 0.51055 0.0308 0.0
C3884 C 0.00807 0.49853 1.01697 0.0
C3885 C 0.99311 0.49052 0.04039 0.0
C3886 C -0.00389 0.49525 0.07707 0.0
C3887 C 0.01266 0.50901 0.09017 0.0
C3888 C 0.0117 0.51136 0.13111 0.0
C3889 C 0.02487 0.50697 0.15187 0.0
C3890 C 0.01567 0.53078 0.14027 0.0
C3891 C 0.99197 0.49677 0.13843 0.0
C3892 C 0.9839 0.48691 0.10714 0.0
C3893 C 0.9668 0.47123 0.10737 0.0
C3894 C 0.95664 0.46688 0.1395 0.0
C3895 C 0.96296 0.47924 0.16914 0.0
C3896 C 0.98145 0.49329 0.17019 0.0
H3897 H 0.47044 0.51529 0.0735 0.0
H3898 H 0.50301 0.51441 0.98275 0.0
H3899 H 0.51527 0.49915 1.02136 0.0
H3900 H 0.50234 0.52556 0.14064 0.0
H3901 H 0.48763 0.51078 0.17601 0.0
H3902 H 0.47878 0.51962 0.14145 0.0
H3903 H 0.45426 0.48848 0.12778 0.0
H3904 H 0.46189 0.47656 0.15734 0.0
H3905 H 0.45888 0.47178 0.10891 0.0
H3906 H 0.5278 0.4893 0.0707 0.0
H3907 H 0.53279 0.47499 0.12476 0.0
H3908 H 0.49111 0.48045 0.18365 0.0
C3909 C 0.47928 0.51086 0.06136 0.0
C3910 C 0.48574 0.51571 1.02537 0.0
C3911 C 0.49781 0.51042 1.01031 0.0
C3912 C 0.50512 0.50215 0.03217 0.0
C3913 C 0.49988 0.49909 0.06861 0.0
C3914 C 0.48666 0.50248 0.08285 0.0
C3915 C 0.48348 0.49763 0.12298 0.0
C3916 C 0.48835 0.51442 0.14664 0.0
C3917 C 0.46351 0.48268 0.12974 0.0
C3918 C 0.49706 0.49105 0.12879 0.0
C3919 C 0.50673 0.49261 0.09726 0.0
C3920 C 0.52028 0.48782 0.09564 0.0
C3921 C 0.52323 0.47999 0.12659 0.0
C3922 C 0.51227 0.47666 0.15798 0.0
C3923 C 0.49968 0.48303 0.15981 0.0
H3924 H 0.51075 0.04149 0.12065 0.0
H3925 H 0.5163 0.01059 0.20929 0.0
H3926 H 0.50319 0.98307 0.1699 0.0
H3927 H 0.46875 0.00604 0.08334 0.0
H3928 H 0.4749 0.01114 0.03578 0.0
H3929 H 0.48396 0.02906 0.0694 0.0
H3930 H 0.51652 0.03969 0.05323 0.0
H3931 H 0.50967 0.02284 1.01755 0.0
H3932 H 0.52509 0.02406 0.05286 0.0
H3933 H 0.49542 0.96142 0.11773 0.0
H3934 H 0.48126 0.94217 0.06362 0.0
H3935 H 0.47984 0.98708 1.00952 0.0
C3936 C 0.50819 0.02863 0.13236 0.0
C3937 C 0.51436 0.0279 0.16776 0.0
C3938 C 0.51136 0.01116 0.18229 0.0
C3939 C 0.50434 0.99566 0.15985 0.0
C3940 C 0.5003 -0.00259 0.12357 0.0
C3941 C 0.50136 0.01323 0.11037 0.0
C3942 C 0.4965 0.01176 0.07025 0.0
C3943 C 0.48002 0.01458 0.06427 0.0
C3944 C 0.51292 0.02539 0.04712 0.0
C3945 C 0.4921 0.99235 0.06303 0.0
C3946 C 0.49518 0.98468 0.09377 0.0
C3947 C 0.4927 0.96714 0.09367 0.0
C3948 C 0.48513 0.95648 0.06248 0.0
C3949 C 0.47966 0.96329 0.03261 0.0
C3950 C 0.4843 0.98177 0.0318 0.0
H3951 H 0.499 0.98575 0.5069 0.0
H3952 H 0.45881 0.93855 0.56768 0.0
H3953 H 0.46382 0.95805 0.62134 0.0
H3954 H 0.53129 0.00879 0.57553 0.0
H3955 H 0.5357 0.03094 0.56187 0.0
H3956 H 0.52756 0.0128 0.52877 0.0
H3957 H 0.50043 0.01906 0.51479 0.0
H3958 H 0.51028 0.03708 0.54836 0.0
H3959 H 0.48689 0.01935 0.55244 0.0
H3960 H 0.47725 0.98051 0.67061 0.0
H3961 H 0.4896 0.00811 0.70886 0.0
H3962 H 0.52005 0.04155 0.61622 0.0
C3963 C 0.4907 0.97978 0.53106 0.0
C3964 C 0.47864 0.96076 0.53363 0.0
C3965 C 0.468 0.95315 0.56537 0.0
C3966 C 0.47099 0.96404 0.59611 0.0
C3967 C 0.48424 0.98245 0.59391 0.0
C3968 C 0.49325 0.99056 0.56178 0.0
C3969 C 0.50659 0.01079 0.56699 0.0
C3970 C 0.52641 0.01605 0.5577 0.0
C3971 C 0.50069 0.02225 0.54429 0.0
C3972 C 0.50418 0.01247 0.6075 0.0
C3973 C 0.4915 0.99582 0.62242 0.0
C3974 C 0.48695 0.99369 0.65926 0.0
C3975 C 0.49427 0.00934 0.68086 0.0
C3976 C 0.50579 0.02671 0.66529 0.0
C3977 C 0.51161 0.02829 0.62876 0.0
H3978 H 0.98322 0.48114 0.68168 0.0
H3979 H 0.93648 0.47586 0.6215 0.0
H3980 H 0.95578 0.48873 0.56698 0.0
H3981 H 0.01852 0.52631 0.63121 0.0
H3982 H 0.03484 0.51919 0.6397 0.0
H3983 H 0.01619 0.51292 0.67133 0.0
H3984 H 0.00925 0.47811 0.65961 0.0
H3985 H 0.02829 0.48841 0.62846 0.0
H3986 H 0.00672 0.47093 0.61253 0.0
H3987 H 0.97748 0.49579 0.51716 0.0
H3988 H 0.00495 0.51085 0.47842 0.0
H3989 H 0.03874 0.51414 0.57066 0.0
C3990 C 0.97734 0.48351 0.65741 0.0
C3991 C 0.95842 0.47737 0.65531 0.0
C3992 C 0.95097 0.48055 0.62347 0.0
C3993 C 0.96173 0.48751 0.59222 0.0
C3994 C 0.9799 0.49174 0.59402 0.0
C3995 C 0.98806 0.49098 0.6262 0.0
C3996 C 0.00822 0.49737 0.62058 0.0
C3997 C 0.02013 0.51499 0.64202 0.0
C3998 C 0.01329 0.48279 0.631 0.0
C3999 C 0.00967 0.5008 0.57977 0.0
C4000 C 0.993 0.49696 0.56511 0.0
C4001 C 0.9907 0.49917 0.52825 0.0
C4002 C 0.00626 0.50739 0.50637 0.0
C4003 C 0.0237 0.51341 0.52179 0.0
C4004 C 0.02542 0.50913 0.55824 0.0
H4005 H 0.50926 0.46688 0.62761 0.0
H4006 H 0.51346 0.50177 0.7181 0.0
H4007 H 0.49573 0.51277 0.68362 0.0
H4008 H 0.51688 0.49732 0.56052 0.0
H4009 H 0.50096 0.48165 0.5275 0.0
H4010 H 0.51039 0.47355 0.56204 0.0
H4011 H 0.4793 0.44956 0.58015 0.0
H4012 H 0.46744 0.45719 0.55038 0.0
H4013 H 0.4634 0.45545 0.59915 0.0
H4014 H 0.48378 0.5247 0.63519 0.0
H4015 H 0.46998 0.53056 0.58093 0.0
H4016 H 0.4733 0.48772 0.52223 0.0
C4017 C 0.50542 0.47594 0.64086 0.0
C4018 C 0.51236 0.48335 0.67542 0.0
C4019 C 0.50786 0.4958 0.69169 0.0
C4020 C 0.49806 0.50229 0.67218 0.0
C4021 C 0.4928 0.49601 0.63673 0.0
C4022 C 0.49569 0.48263 0.62164 0.0
C4023 C 0.48952 0.47902 0.58232 0.0
C4024 C 0.50543 0.4832 0.55648 0.0
C4025 C 0.47395 0.45917 0.57766 0.0
C4026 C 0.48323 0.49279 0.57746 0.0
C4027 C 0.48551 0.50266 0.60897 0.0
C4028 C 0.4816 0.51686 0.61049 0.0
C4029 C 0.47414 0.52034 0.57942 0.0
C4030 C 0.47063 0.50951 0.54778 0.0
C4031 C 0.4759 0.49612 0.54631 0.0
H4032 H 0.616 0.80135 0.45312 0.0
H4033 H 0.64913 0.83495 0.54308 0.0
H4034 H 0.67652 0.84786 0.50404 0.0
H4035 H 0.64835 0.79037 0.41725 0.0
H4036 H 0.64552 0.79301 0.36909 0.0
H4037 H 0.62659 0.78571 0.40014 0.0
H4038 H 0.62051 0.81186 0.38689 0.0
H4039 H 0.63689 0.81796 0.35009 0.0
H4040 H 0.63925 0.83449 0.38347 0.0
H4041 H 0.69857 0.86108 0.45357 0.0
H4042 H 0.71817 0.86538 0.40015 0.0
H4043 H 0.67182 0.82147 0.34391 0.0
C4044 C 0.6292 0.8106 0.46504 0.0
C4045 C 0.63065 0.81719 0.50089 0.0
C4046 C 0.64797 0.82971 0.51559 0.0
C4047 C 0.66347 0.83741 0.49348 0.0
C4048 C 0.66138 0.83195 0.45721 0.0
C4049 C 0.64496 0.81825 0.44342 0.0
C4050 C 0.64674 0.81486 0.40346 0.0
C4051 C 0.64159 0.79485 0.39705 0.0
C4052 C 0.63513 0.82003 0.37946 0.0
C4053 C 0.66687 0.82833 0.39766 0.0
C4054 C 0.6747 0.83875 0.42846 0.0
C4055 C 0.6928 0.85286 0.42934 0.0
C4056 C 0.70372 0.8554 0.39876 0.0
C4057 C 0.69644 0.84354 0.36856 0.0
C4058 C 0.67761 0.83058 0.36706 0.0
H4059 H 0.13379 0.85004 0.39887 0.0
H4060 H 0.1636 0.84951 0.30284 0.0
H4061 H 0.17438 0.83125 0.33594 0.0
H4062 H 0.16729 0.85625 0.46111 0.0
H4063 H 0.15232 0.84214 0.49692 0.0
H4064 H 0.14445 0.85257 0.46445 0.0
H4065 H 0.11709 0.8218 0.44875 0.0
H4066 H 0.12476 0.81091 0.48094 0.0
H4067 H 0.12037 0.80337 0.43435 0.0
H4068 H 0.18697 0.81915 0.38197 0.0
H4069 H 0.1939 0.80551 0.43519 0.0
H4070 H 0.15488 0.81244 0.50039 0.0
C4071 C 0.14163 0.84507 0.38434 0.0
C4072 C 0.14765 0.85073 0.3483 0.0
C4073 C 0.15868 0.84489 0.33035 0.0
C4074 C 0.16509 0.83483 0.34904 0.0
C4075 C 0.16013 0.83063 0.38545 0.0
C4076 C 0.14812 0.83492 0.40271 0.0
C4077 C 0.14588 0.82951 0.44268 0.0
C4078 C 0.15295 0.84616 0.4678 0.0
C4079 C 0.12588 0.81554 0.45214 0.0
C4080 C 0.15836 0.82155 0.44471 0.0
C4081 C 0.16682 0.82275 0.41173 0.0
C4082 C 0.18021 0.81779 0.40785 0.0
C4083 C 0.18435 0.81047 0.43827 0.0
C4084 C 0.17483 0.80802 0.47141 0.0
C4085 C 0.16224 0.81422 0.47505 0.0
H4086 H 0.17623 0.37517 0.45801 0.0
H4087 H 0.17377 0.34208 0.55082 0.0
H4088 H 0.15687 0.31426 0.51403 0.0
H4089 H 0.13067 0.34213 0.42263 0.0
H4090 H 0.13629 0.34432 0.37447 0.0
H4091 H 0.14738 0.3637 0.40458 0.0
H4092 H 0.1786 0.37086 0.39066 0.0
H4093 H 0.17082 0.35283 0.35732 0.0
H4094 H 0.18551 0.35405 0.39405 0.0
H4095 H 0.14858 0.29206 0.46554 0.0
H4096 H 0.13749 0.2729 0.41058 0.0
H4097 H 0.14248 0.31907 0.34861 0.0
C4098 C 0.17094 0.36196 0.47108 0.0
C4099 C 0.17597 0.36047 0.50704 0.0
C4100 C 0.16963 0.34319 0.52332 0.0
C4101 C 0.16032 0.3274 0.50253 0.0
C4102 C 0.15716 0.32931 0.46599 0.0
C4103 C 0.16143 0.34597 0.45064 0.0
C4104 C 0.15704 0.34407 0.41019 0.0
C4105 C 0.14191 0.34873 0.40242 0.0
C4106 C 0.174 0.35615 0.38672 0.0
C4107 C 0.15064 0.32389 0.40518 0.0
C4108 C 0.15122 0.31588 0.43772 0.0
C4109 C 0.14747 0.29789 0.43998 0.0
C4110 C 0.14153 0.28722 0.40853 0.0
C4111 C 0.13895 0.29454 0.37584 0.0
C4112 C 0.1443 0.31326 0.37359 0.0
H4113 H 0.13362 0.28393 0.9071 0.0
H4114 H 0.16658 0.31322 0.81331 0.0
H4115 H 0.17931 0.34231 0.84782 0.0
H4116 H 0.12396 0.31874 0.93912 0.0
H4117 H 0.1264 0.31547 0.98704 0.0
H4118 H 0.118 0.29657 0.95573 0.0
H4119 H 0.14123 0.28869 0.97448 0.0
H4120 H 0.15247 0.30734 1.00621 0.0
H4121 H 0.16509 0.30449 0.96962 0.0
H4122 H 0.19155 0.36685 0.89573 0.0
H4123 H 0.19676 0.38707 0.9486 0.0
H4124 H 0.15612 0.34084 1.01078 0.0
C4125 C 0.1428 0.29664 0.8933 0.0
C4126 C 0.14912 0.29667 0.85781 0.0
C4127 C 0.16145 0.31324 0.84041 0.0
C4128 C 0.16896 0.32966 0.86004 0.0
C4129 C 0.16374 0.32891 0.89647 0.0
C4130 C 0.15043 0.31291 0.91248 0.0
C4131 C 0.14755 0.3154 0.95225 0.0
C4132 C 0.12787 0.3114 0.95896 0.0
C4133 C 0.15187 0.30332 0.97713 0.0
C4134 C 0.16154 0.33541 0.95629 0.0
C4135 C 0.17086 0.3429 0.92399 0.0
C4136 C 0.18428 0.36124 0.92108 0.0
C4137 C 0.18738 0.37254 0.95134 0.0
C4138 C 0.17683 0.36532 0.98338 0.0
C4139 C 0.16444 0.34648 0.98649 0.0
H4140 H 0.66965 0.84199 0.84726 0.0
H4141 H 0.71612 0.84917 0.91107 0.0
H4142 H 0.69692 0.83923 0.9664 0.0
H4143 H 0.64667 0.8558 0.91416 0.0
H4144 H 0.62506 0.83822 0.89844 0.0
H4145 H 0.64432 0.84771 0.86774 0.0
H4146 H 0.63695 0.81251 0.85911 0.0
H4147 H 0.61808 0.80715 0.88948 0.0
H4148 H 0.63393 0.79975 0.90051 0.0
H4149 H 0.67447 0.83198 1.01468 0.0
H4150 H 0.64643 0.81578 0.05148 0.0
H4151 H 0.61373 0.81195 0.95703 0.0
C4152 C 0.67548 0.84069 0.8727 0.0
C4153 C 0.6943 0.84651 0.87544 0.0
C4154 C 0.7017 0.84472 0.90873 0.0
C4155 C 0.69101 0.83947 0.94032 0.0
C4156 C 0.67293 0.8355 0.93746 0.0
C4157 C 0.66485 0.83501 0.90433 0.0
C4158 C 0.64471 0.82896 0.90885 0.0
C4159 C 0.64003 0.84358 0.8965 0.0
C4160 C 0.63274 0.81103 0.88822 0.0
C4161 C 0.64293 0.82628 0.94985 0.0
C4162 C 0.65956 0.83074 0.96572 0.0
C4163 C 0.66136 0.82837 1.00274 0.0
C4164 C 0.64545 0.81945 1.0235 0.0
C4165 C 0.62821 0.81297 1.00686 0.0
C4166 C 0.6269 0.81744 0.97039 0.0
H4167 H 0.14485 0.82984 0.84102 0.0
H4168 H 0.13659 0.86855 0.90429 0.0
H4169 H 0.15001 0.86216 0.95835 0.0
H4170 H 0.13688 0.79501 0.91072 0.0
H4171 H 0.15543 0.79318 0.89187 0.0
H4172 H 0.14276 0.80018 0.86293 0.0
H4173 H 0.17571 0.82807 0.84775 0.0
H4174 H 0.18668 0.82177 0.88278 0.0
H4175 H 0.18817 0.8435 0.88409 0.0
H4176 H 0.16185 0.85007 1.00583 0.0
H4177 H 0.17973 0.83937 0.04073 0.0
H4178 H 0.18064 0.80867 0.94688 0.0
C4179 C 0.14626 0.83721 0.86615 0.0
C4180 C 0.13962 0.8495 0.86898 0.0
C4181 C 0.14176 0.85916 0.9018 0.0
C4182 C 0.14902 0.85536 0.93271 0.0
C4183 C 0.15421 0.84214 0.9298 0.0
C4184 C 0.15345 0.83358 0.8972 0.0
C4185 C 0.16171 0.82133 0.90071 0.0
C4186 C 0.14834 0.80128 0.8909 0.0
C4187 C 0.17907 0.82904 0.87732 0.0
C4188 C 0.16614 0.82347 0.94098 0.0
C4189 C 0.16162 0.83549 0.95718 0.0
C4190 C 0.16542 0.8406 0.99359 0.0
C4191 C 0.17523 0.83421 1.01333 0.0
C4192 C 0.18098 0.82289 0.99647 0.0
C4193 C 0.17568 0.81671 0.96055 0.0
H4194 H 0.32293 0.17438 0.85315 0.0
H4195 H 0.27832 0.12917 0.79606 0.0
H4196 H 0.29749 0.13615 0.74132 0.0
H4197 H 0.34517 0.20685 0.78454 0.0
H4198 H 0.36773 0.21207 0.79739 0.0
H4199 H 0.34977 0.20327 0.83107 0.0
H4200 H 0.35891 0.17856 0.84387 0.0
H4201 H 0.37495 0.18593 0.80627 0.0
H4202 H 0.35649 0.16305 0.80802 0.0
H4203 H 0.31773 0.15268 0.68991 0.0
H4204 H 0.34482 0.16594 0.65011 0.0
H4205 H 0.37889 0.19708 0.74139 0.0
C4206 C 0.31766 0.16525 0.82994 0.0
C4207 C 0.29908 0.15152 0.82823 0.0
C4208 C 0.29258 0.13974 0.79766 0.0
C4209 C 0.30314 0.14398 0.76606 0.0
C4210 C 0.32055 0.15921 0.76677 0.0
C4211 C 0.3284 0.16875 0.7985 0.0
C4212 C 0.34838 0.18283 0.7923 0.0
C4213 C 0.35295 0.20237 0.80196 0.0
C4214 C 0.36043 0.17733 0.81401 0.0
C4215 C 0.34988 0.18066 0.75148 0.0
C4216 C 0.33336 0.16734 0.73741 0.0
C4217 C 0.33091 0.1628 0.70059 0.0
C4218 C 0.34627 0.17065 0.67811 0.0
C4219 C 0.36379 0.18237 0.69292 0.0
C4220 C 0.36556 0.18839 0.72943 0.0
H4221 H 0.84638 0.18498 0.66956 0.0
H4222 H 0.79145 0.17324 0.69492 0.0
H4223 H 0.78919 0.15182 0.74278 0.0
H4224 H 0.83608 0.1343 0.69617 0.0
H4225 H 0.85915 0.14392 0.71228 0.0
H4226 H 0.85425 0.15362 0.67289 0.0
H4227 H 0.87025 0.18561 0.70562 0.0
H4228 H 0.87477 0.17492 0.74364 0.0
H4229 H 0.86244 0.18684 0.75096 0.0
H4230 H 0.79914 0.14665 0.80149 0.0
H4231 H 0.81127 0.13688 0.85233 0.0
H4232 H 0.8572 0.14518 0.78511 0.0
C4233 C 0.83339 0.17666 0.68316 0.0
C4234 C 0.81906 0.18055 0.67911 0.0
C4235 C 0.80237 0.17009 0.6977 0.0
C4236 C 0.80109 0.15813 0.72521 0.0
C4237 C 0.81632 0.15632 0.73197 0.0
C4238 C 0.83162 0.16394 0.70972 0.0
C4239 C 0.84632 0.16032 0.72494 0.0
C4240 C 0.8491 0.14726 0.7001 0.0
C4241 C 0.86453 0.17802 0.73153 0.0
C4242 C 0.83754 0.15134 0.76083 0.0
C4243 C 0.82058 0.14991 0.76462 0.0
C4244 C 0.81165 0.1462 0.79802 0.0
C4245 C 0.8189 0.14118 0.82695 0.0
C4246 C 0.83464 0.13957 0.8218 0.0
C4247 C 0.84478 0.14576 0.78917 0.0
H4248 H 0.84364 0.67082 0.8498 0.0
H4249 H 0.84717 0.71697 0.79038 0.0
H4250 H 0.83406 0.6975 0.73599 0.0
H4251 H 0.85484 0.64942 0.77921 0.0
H4252 H 0.83816 0.62695 0.79355 0.0
H4253 H 0.84764 0.64525 0.82636 0.0
H4254 H 0.8133 0.63696 0.84128 0.0
H4255 H 0.80636 0.61887 0.80819 0.0
H4256 H 0.79882 0.63517 0.80352 0.0
H4257 H 0.82671 0.67574 0.68617 0.0
H4258 H 0.81145 0.64809 0.64816 0.0
H4259 H 0.81038 0.61507 0.73997 0.0
C4260 C 0.84086 0.67654 0.82575 0.0
C4261 C 0.84657 0.69533 0.8237 0.0
C4262 C 0.84286 0.70257 0.79219 0.0
C4263 C 0.83581 0.69176 0.76105 0.0
C4264 C 0.8321 0.67377 0.76268 0.0
C4265 C 0.83338 0.6658 0.79468 0.0
C4266 C 0.82756 0.64582 0.78901 0.0
C4267 C 0.843 0.64171 0.7976 0.0
C4268 C 0.81049 0.63349 0.81185 0.0
C4269 C 0.82337 0.64412 0.74855 0.0
C4270 C 0.82668 0.66062 0.7339 0.0
C4271 C 0.82378 0.66267 0.69728 0.0
C4272 C 0.81544 0.647 0.6758 0.0
C4273 C 0.80997 0.62971 0.69138 0.0
C4274 C 0.81494 0.62828 0.72742 0.0
H4275 H 0.80198 0.61551 0.2396 0.0
H4276 H 0.83231 0.64971 0.14769 0.0
H4277 H 0.84383 0.67709 0.18634 0.0
H4278 H 0.78993 0.64802 0.28088 0.0
H4279 H 0.7934 0.6435 0.32742 0.0
H4280 H 0.78547 0.62573 0.29351 0.0
H4281 H 0.81032 0.61942 0.30807 0.0
H4282 H 0.82105 0.63758 0.34116 0.0
H4283 H 0.83384 0.63651 0.30292 0.0
H4284 H 0.85672 0.69928 0.23569 0.0
H4285 H 0.8621 0.71826 0.29029 0.0
H4286 H 0.8224 0.67053 0.35054 0.0
C4287 C 0.81014 0.62887 0.22728 0.0
C4288 C 0.81623 0.63076 0.19086 0.0
C4289 C 0.82743 0.64826 0.17557 0.0
C4290 C 0.83428 0.66378 0.19741 0.0
C4291 C 0.82956 0.66138 0.23417 0.0
C4292 C 0.8171 0.64456 0.24881 0.0
C4293 C 0.81463 0.64597 0.28944 0.0
C4294 C 0.79473 0.64057 0.29835 0.0
C4295 C 0.82032 0.63419 0.31168 0.0
C4296 C 0.82786 0.66619 0.29508 0.0
C4297 C 0.83668 0.67458 0.26295 0.0
C4298 C 0.84977 0.69304 0.26102 0.0
C4299 C 0.85295 0.70365 0.29225 0.0
C4300 C 0.84256 0.69575 0.32417 0.0
C4301 C 0.83054 0.67671 0.32628 0.0
H4302 H 0.34074 0.18071 0.14909 0.0
H4303 H 0.38546 0.17584 0.19482 0.0
H4304 H 0.36678 0.16034 0.24866 0.0
H4305 H 0.32218 0.18906 0.21936 0.0
H4306 H 0.29848 0.17319 0.21162 0.0
H4307 H 0.31419 0.18099 0.17379 0.0
H4308 H 0.30421 0.14698 0.15779 0.0
H4309 H 0.28792 0.14049 0.1948 0.0
H4310 H 0.30382 0.13221 0.19368 0.0
H4311 H 0.34875 0.15676 0.30338 0.0
H4312 H 0.32406 0.14674 0.34866 0.0
H4313 H 0.28792 0.14789 0.26555 0.0
C4314 C 0.34597 0.17497 0.16901 0.0
C4315 C 0.36457 0.17976 0.16869 0.0
C4316 C 0.37119 0.17222 0.19494 0.0
C4317 C 0.36087 0.16387 0.22605 0.0
C4318 C 0.34348 0.16176 0.22828 0.0
C4319 C 0.33535 0.16551 0.19936 0.0
C4320 C 0.316 0.16094 0.20916 0.0
C4321 C 0.3126 0.17703 0.20309 0.0
C4322 C 0.30214 0.14415 0.18758 0.0
C4323 C 0.31566 0.15641 0.24933 0.0
C4324 C 0.33185 0.15728 0.25957 0.0
C4325 C 0.33567 0.15516 0.29554 0.0
C4326 C 0.32173 0.14989 0.32113 0.0
C4327 C 0.30421 0.14644 0.31028 0.0
C4328 C 0.3013 0.15063 0.27445 0.0
H4329 H 0.84376 0.17153 0.36866 0.0
H4330 H 0.84181 0.12435 0.3175 0.0
H4331 H 0.82997 0.13044 0.26123 0.0
H4332 H 0.79777 0.16131 0.3191 0.0
H4333 H 0.80546 0.18529 0.32092 0.0
H4334 H 0.81167 0.17471 0.35677 0.0
H4335 H 0.84607 0.19985 0.34392 0.0
H4336 H 0.83795 0.20851 0.30787 0.0
H4337 H 0.85464 0.20199 0.298 0.0
H4338 H 0.82691 0.14604 0.20785 0.0
H4339 H 0.81376 0.15889 0.16524 0.0
H4340 H 0.81136 0.19256 0.25207 0.0
C4341 C 0.83948 0.1617 0.34661 0.0
C4342 C 0.8442 0.14783 0.34663 0.0
C4343 C 0.83835 0.13511 0.31763 0.0
C4344 C 0.83223 0.13883 0.28515 0.0
C4345 C 0.83028 0.1542 0.28396 0.0
C4346 C 0.83202 0.16446 0.31463 0.0
C4347 C 0.82684 0.17893 0.30607 0.0
C4348 C 0.80939 0.17481 0.3269 0.0
C4349 C 0.84233 0.19842 0.31452 0.0
C4350 C 0.82339 0.17594 0.26529 0.0
C4351 C 0.82618 0.16202 0.25323 0.0
C4352 C 0.82418 0.15664 0.21691 0.0
C4353 C 0.81703 0.16423 0.19283 0.0
C4354 C 0.81158 0.17656 0.20565 0.0
C4355 C 0.81581 0.18343 0.24162 0.0
loop_
_geom_bond_atom_site_label_1
_geom_bond_atom_site_label_2
_geom_bond_distance
_geom_bond_site_symmetry_2
_ccdc_geom_bond_type
Nd0 C2 2.836 . S
Nd0 O20 2.500 . S
Nd0 O21 2.492 . S
Nd0 O22 2.487 . S
Nd0 O23 2.682 1_554 S
Nd0 O24 2.410 . S
Nd0 O29 2.414 . S
Nd0 O31 2.424 1_554 S
Nd1 C11 2.836 . S
Nd1 O23 2.414 . S
Nd1 O25 2.424 1_556 S
Nd1 O26 2.500 . S
Nd1 O27 2.492 . S
Nd1 O28 2.487 . S
Nd1 O29 2.682 1_556 S
Nd1 O30 2.410 . S
C2 Nd0 2.836 . S
C2 C3 1.498 . S
C2 O20 1.258 . S
C2 O21 1.239 . S
C3 C2 1.498 . S
C3 C4 1.366 . S
C3 C8 1.407 . S
C4 C3 1.366 . S
C4 C5 1.392 . S
C4 H32 0.930 . S
C5 C4 1.392 . S
C5 C6 1.398 . S
C5 H33 0.929 . S
C6 C5 1.398 . S
C6 C7 1.352 . S
C7 C6 1.352 . S
C7 C8 1.384 . S
C7 H34 0.930 . S
C8 C3 1.407 . S
C8 C7 1.384 . S
C8 H35 0.929 . S
C9 O22 1.241 1_556 S
C9 O23 1.273 . S
C10 O24 1.251 . S
C10 O25 1.268 . S
C11 Nd1 2.836 . S
C11 C12 1.498 . S
C11 O26 1.258 . S
C11 O27 1.239 . S
C12 C11 1.498 . S
C12 C13 1.366 . S
C12 C17 1.407 . S
C13 C12 1.366 . S
C13 C14 1.392 . S
C13 H36 0.930 . S
C14 C13 1.392 . S
C14 C15 1.398 . S
C14 H37 0.929 . S
C15 C14 1.398 . S
C15 C16 1.352 . S
C16 C15 1.352 . S
C16 C17 1.384 . S
C16 H38 0.930 . S
C17 C12 1.407 . S
C17 C16 1.384 . S
C17 H39 0.929 . S
C18 O28 1.241 1_554 S
C18 O29 1.273 . S
C19 O30 1.251 . S
C19 O31 1.268 . S
O20 Nd0 2.500 . S
O20 C2 1.258 . S
O21 Nd0 2.492 . S
O21 C2 1.239 . S
O22 Nd0 2.487 . S
O22 C9 1.241 1_554 S
O23 Nd0 2.682 1_556 S
O23 Nd1 2.414 . S
O23 C9 1.273 . S
O24 Nd0 2.410 . S
O24 C10 1.251 . S
O25 Nd1 2.424 1_554 S
O25 C10 1.268 . S
O26 Nd1 2.500 . S
O26 C11 1.258 . S
O27 Nd1 2.492 . S
O27 C11 1.239 . S
O28 Nd1 2.487 . S
O28 C18 1.241 1_556 S
O29 Nd0 2.414 . S
O29 Nd1 2.682 1_554 S
O29 C18 1.273 . S
O30 Nd1 2.410 . S
O30 C19 1.251 . S
O31 Nd0 2.424 1_556 S
O31 C19 1.268 . S
H32 C4 0.930 . S
H33 C5 0.929 . S
H34 C7 0.930 . S
H35 C8 0.929 . S
H36 C13 0.930 . S
H37 C14 0.929 . S
H38 C16 0.930 . S
H39 C17 0.929 . S
Nd40 C42 2.836 . S
Nd40 O60 2.500 . S
Nd40 O61 2.492 . S
Nd40 O62 2.487 . S
Nd40 O63 2.682 1_554 S
Nd40 O64 2.410 . S
Nd40 O69 2.414 . S
Nd40 O71 2.424 1_554 S
Nd41 C51 2.836 . S
Nd41 O63 2.414 . S
Nd41 O65 2.424 1_556 S
Nd41 O66 2.500 . S
Nd41 O67 2.492 . S
Nd41 O68 2.487 . S
Nd41 O69 2.682 1_556 S
Nd41 O70 2.410 . S
C42 Nd40 2.836 . S
C42 C43 1.498 . S
C42 O60 1.258 . S
C42 O61 1.239 . S
C43 C42 1.498 . S
C43 C44 1.366 . S
C43 C48 1.407 . S
C44 C43 1.366 . S
C44 C45 1.392 . S
C44 H72 0.930 . S
C45 C44 1.392 . S
C45 C46 1.398 . S
C45 H73 0.929 . S
C46 C45 1.398 . S
C46 C47 1.352 . S
C47 C46 1.352 . S
C47 C48 1.384 . S
C47 H74 0.930 . S
C48 C43 1.407 . S
C48 C47 1.384 . S
C48 H75 0.929 . S
C49 O62 1.241 1_556 S
C49 O63 1.273 . S
C50 O64 1.251 . S
C50 O65 1.268 . S
C51 Nd41 2.836 . S
C51 C52 1.498 . S
C51 O66 1.258 . S
C51 O67 1.239 . S
C52 C51 1.498 . S
C52 C53 1.366 . S
C52 C57 1.407 . S
C53 C52 1.366 . S
C53 C54 1.392 . S
C53 H76 0.930 . S
C54 C53 1.392 . S
C54 C55 1.398 . S
C54 H77 0.929 . S
C55 C54 1.398 . S
C55 C56 1.352 . S
C56 C55 1.352 . S
C56 C57 1.384 . S
C56 H78 0.930 . S
C57 C52 1.407 . S
C57 C56 1.384 . S
C57 H79 0.929 . S
C58 O68 1.241 1_554 S
C58 O69 1.273 . S
C59 O70 1.251 . S
C59 O71 1.268 . S
O60 Nd40 2.500 . S
O60 C42 1.258 . S
O61 Nd40 2.492 . S
O61 C42 1.239 . S
O62 Nd40 2.487 . S
O62 C49 1.241 1_554 S
O63 Nd40 2.682 1_556 S
O63 Nd41 2.414 . S
O63 C49 1.273 . S
O64 Nd40 2.410 . S
O64 C50 1.251 . S
O65 Nd41 2.424 1_554 S
O65 C50 1.268 . S
O66 Nd41 2.500 . S
O66 C51 1.258 . S
O67 Nd41 2.492 . S
O67 C51 1.239 . S
O68 Nd41 2.487 . S
O68 C58 1.241 1_556 S
O69 Nd40 2.414 . S
O69 Nd41 2.682 1_554 S
O69 C58 1.273 . S
O70 Nd41 2.410 . S
O70 C59 1.251 . S
O71 Nd40 2.424 1_556 S
O71 C59 1.268 . S
H72 C44 0.930 . S
H73 C45 0.929 . S
H74 C47 0.930 . S
H75 C48 0.929 . S
H76 C53 0.930 . S
H77 C54 0.929 . S
H78 C56 0.930 . S
H79 C57 0.929 . S
Nd80 C82 2.836 . S
Nd80 O100 2.500 . S
Nd80 O101 2.492 . S
Nd80 O102 2.487 . S
Nd80 O103 2.682 1_554 S
Nd80 O104 2.410 . S
Nd80 O109 2.414 . S
Nd80 O111 2.424 1_554 S
Nd81 C91 2.836 . S
Nd81 O103 2.414 . S
Nd81 O105 2.424 1_556 S
Nd81 O106 2.500 . S
Nd81 O107 2.492 . S
Nd81 O108 2.487 . S
Nd81 O109 2.682 1_556 S
Nd81 O110 2.410 . S
C82 Nd80 2.836 . S
C82 C83 1.498 . S
C82 O100 1.258 . S
C82 O101 1.239 . S
C83 C82 1.498 . S
C83 C84 1.366 . S
C83 C88 1.407 . S
C84 C83 1.366 . S
C84 C85 1.392 . S
C84 H112 0.930 . S
C85 C84 1.392 . S
C85 C86 1.398 . S
C85 H113 0.929 . S
C86 C85 1.398 . S
C86 C87 1.352 . S
C87 C86 1.352 . S
C87 C88 1.384 . S
C87 H114 0.930 . S
C88 C83 1.407 . S
C88 C87 1.384 . S
C88 H115 0.929 . S
C89 O102 1.241 1_556 S
C89 O103 1.273 . S
C90 O104 1.251 . S
C90 O105 1.268 . S
C91 Nd81 2.836 . S
C91 C92 1.498 . S
C91 O106 1.258 . S
C91 O107 1.239 . S
C92 C91 1.498 . S
C92 C93 1.366 . S
C92 C97 1.407 . S
C93 C92 1.366 . S
C93 C94 1.392 . S
C93 H116 0.930 . S
C94 C93 1.392 . S
C94 C95 1.398 . S
C94 H117 0.929 . S
C95 C94 1.398 . S
C95 C96 1.352 . S
C96 C95 1.352 . S
C96 C97 1.384 . S
C96 H118 0.930 . S
C97 C92 1.407 . S
C97 C96 1.384 . S
C97 H119 0.929 . S
C98 O108 1.241 1_554 S
C98 O109 1.273 . S
C99 O110 1.251 . S
C99 O111 1.268 . S
O100 Nd80 2.500 . S
O100 C82 1.258 . S
O101 Nd80 2.492 . S
O101 C82 1.239 . S
O102 Nd80 2.487 . S
O102 C89 1.241 1_554 S
O103 Nd80 2.682 1_556 S
O103 Nd81 2.414 . S
O103 C89 1.273 . S
O104 Nd80 2.410 . S
O104 C90 1.251 . S
O105 Nd81 2.424 1_554 S
O105 C90 1.268 . S
O106 Nd81 2.500 . S
O106 C91 1.258 . S
O107 Nd81 2.492 . S
O107 C91 1.239 . S
O108 Nd81 2.487 . S
O108 C98 1.241 1_556 S
O109 Nd80 2.414 . S
O109 Nd81 2.682 1_554 S
O109 C98 1.273 . S
O110 Nd81 2.410 . S
O110 C99 1.251 . S
O111 Nd80 2.424 1_556 S
O111 C99 1.268 . S
H112 C84 0.930 . S
H113 C85 0.929 . S
H114 C87 0.930 . S
H115 C88 0.929 . S
H116 C93 0.930 . S
H117 C94 0.929 . S
H118 C96 0.930 . S
H119 C97 0.929 . S
Nd120 C122 2.836 . S
Nd120 O140 2.500 . S
Nd120 O141 2.492 . S
Nd120 O142 2.487 . S
Nd120 O143 2.682 . S
Nd120 O144 2.410 . S
Nd120 O149 2.414 . S
Nd120 O151 2.424 . S
Nd121 C131 2.836 . S
Nd121 O143 2.414 . S
Nd121 O145 2.424 . S
Nd121 O146 2.500 . S
Nd121 O147 2.492 . S
Nd121 O148 2.487 . S
Nd121 O149 2.682 . S
Nd121 O150 2.410 . S
C122 Nd120 2.836 . S
C122 C123 1.498 . S
C122 O140 1.258 . S
C122 O141 1.239 . S
C123 C122 1.498 . S
C123 C124 1.366 . S
C123 C128 1.407 . S
C124 C123 1.366 . S
C124 C125 1.392 . S
C124 H152 0.930 . S
C125 C124 1.392 . S
C125 C126 1.398 . S
C125 H153 0.929 . S
C126 C125 1.398 . S
C126 C127 1.352 . S
C127 C126 1.352 . S
C127 C128 1.384 . S
C127 H154 0.930 . S
C128 C123 1.407 . S
C128 C127 1.384 . S
C128 H155 0.929 . S
C129 O142 1.241 . S
C129 O143 1.273 . S
C130 O144 1.251 . S
C130 O145 1.268 . S
C131 Nd121 2.836 . S
C131 C132 1.498 . S
C131 O146 1.258 . S
C131 O147 1.239 . S
C132 C131 1.498 . S
C132 C133 1.366 . S
C132 C137 1.407 . S
C133 C132 1.366 . S
C133 C134 1.392 . S
C133 H156 0.930 . S
C134 C133 1.392 . S
C134 C135 1.398 . S
C134 H157 0.929 . S
C135 C134 1.398 . S
C135 C136 1.352 . S
C136 C135 1.352 . S
C136 C137 1.384 . S
C136 H158 0.930 . S
C137 C132 1.407 . S
C137 C136 1.384 . S
C137 H159 0.929 . S
C138 O148 1.241 . S
C138 O149 1.273 . S
C139 O150 1.251 . S
C139 O151 1.268 . S
O140 Nd120 2.500 . S
O140 C122 1.258 . S
O141 Nd120 2.492 . S
O141 C122 1.239 . S
O142 Nd120 2.487 . S
O142 C129 1.241 . S
O143 Nd120 2.682 . S
O143 Nd121 2.414 . S
O143 C129 1.273 . S
O144 Nd120 2.410 . S
O144 C130 1.251 . S
O145 Nd121 2.424 . S
O145 C130 1.268 . S
O146 Nd121 2.500 . S
O146 C131 1.258 . S
O147 Nd121 2.492 . S
O147 C131 1.239 . S
O148 Nd121 2.487 . S
O148 C138 1.241 . S
O149 Nd120 2.414 . S
O149 Nd121 2.682 . S
O149 C138 1.273 . S
O150 Nd121 2.410 . S
O150 C139 1.251 . S
O151 Nd120 2.424 . S
O151 C139 1.268 . S
H152 C124 0.930 . S
H153 C125 0.929 . S
H154 C127 0.930 . S
H155 C128 0.929 . S
H156 C133 0.930 . S
H157 C134 0.929 . S
H158 C136 0.930 . S
H159 C137 0.929 . S
Nd160 C162 2.836 . S
Nd160 O180 2.500 . S
Nd160 O181 2.492 . S
Nd160 O182 2.487 . S
Nd160 O183 2.682 . S
Nd160 O184 2.410 . S
Nd160 O189 2.414 . S
Nd160 O191 2.424 . S
Nd161 C171 2.836 . S
Nd161 O183 2.414 . S
Nd161 O185 2.424 . S
Nd161 O186 2.500 . S
Nd161 O187 2.492 . S
Nd161 O188 2.487 . S
Nd161 O189 2.682 . S
Nd161 O190 2.410 . S
C162 Nd160 2.836 . S
C162 C163 1.498 . S
C162 O180 1.258 . S
C162 O181 1.239 . S
C163 C162 1.498 . S
C163 C164 1.366 . S
C163 C168 1.407 . S
C164 C163 1.366 . S
C164 C165 1.392 . S
C164 H192 0.930 . S
C165 C164 1.392 . S
C165 C166 1.398 . S
C165 H193 0.929 . S
C166 C165 1.398 . S
C166 C167 1.352 . S
C167 C166 1.352 . S
C167 C168 1.384 . S
C167 H194 0.930 . S
C168 C163 1.407 . S
C168 C167 1.384 . S
C168 H195 0.929 . S
C169 O182 1.241 . S
C169 O183 1.273 . S
C170 O184 1.251 . S
C170 O185 1.268 . S
C171 Nd161 2.836 . S
C171 C172 1.498 . S
C171 O186 1.258 . S
C171 O187 1.239 . S
C172 C171 1.498 . S
C172 C173 1.366 . S
C172 C177 1.407 . S
C173 C172 1.366 . S
C173 C174 1.392 . S
C173 H196 0.930 . S
C174 C173 1.392 . S
C174 C175 1.398 . S
C174 H197 0.929 . S
C175 C174 1.398 . S
C175 C176 1.352 . S
C176 C175 1.352 . S
C176 C177 1.384 . S
C176 H198 0.930 . S
C177 C172 1.407 . S
C177 C176 1.384 . S
C177 H199 0.929 . S
C178 O188 1.241 . S
C178 O189 1.273 . S
C179 O190 1.251 . S
C179 O191 1.268 . S
O180 Nd160 2.500 . S
O180 C162 1.258 . S
O181 Nd160 2.492 . S
O181 C162 1.239 . S
O182 Nd160 2.487 . S
O182 C169 1.241 . S
O183 Nd160 2.682 . S
O183 Nd161 2.414 . S
O183 C169 1.273 . S
O184 Nd160 2.410 . S
O184 C170 1.251 . S
O185 Nd161 2.424 . S
O185 C170 1.268 . S
O186 Nd161 2.500 . S
O186 C171 1.258 . S
O187 Nd161 2.492 . S
O187 C171 1.239 . S
O188 Nd161 2.487 . S
O188 C178 1.241 . S
O189 Nd160 2.414 . S
O189 Nd161 2.682 . S
O189 C178 1.273 . S
O190 Nd161 2.410 . S
O190 C179 1.251 . S
O191 Nd160 2.424 . S
O191 C179 1.268 . S
H192 C164 0.930 . S
H193 C165 0.929 . S
H194 C167 0.930 . S
H195 C168 0.929 . S
H196 C173 0.930 . S
H197 C174 0.929 . S
H198 C176 0.930 . S
H199 C177 0.929 . S
Nd200 C202 2.836 . S
Nd200 O220 2.500 . S
Nd200 O221 2.492 . S
Nd200 O222 2.487 . S
Nd200 O223 2.682 . S
Nd200 O224 2.410 . S
Nd200 O229 2.414 . S
Nd200 O231 2.424 . S
Nd201 C211 2.836 . S
Nd201 O223 2.414 . S
Nd201 O225 2.424 . S
Nd201 O226 2.500 . S
Nd201 O227 2.492 . S
Nd201 O228 2.487 . S
Nd201 O229 2.682 . S
Nd201 O230 2.410 . S
C202 Nd200 2.836 . S
C202 C203 1.498 . S
C202 O220 1.258 . S
C202 O221 1.239 . S
C203 C202 1.498 . S
C203 C204 1.366 . S
C203 C208 1.407 . S
C204 C203 1.366 . S
C204 C205 1.392 . S
C204 H232 0.930 . S
C205 C204 1.392 . S
C205 C206 1.398 . S
C205 H233 0.929 . S
C206 C205 1.398 . S
C206 C207 1.352 . S
C207 C206 1.352 . S
C207 C208 1.384 . S
C207 H234 0.930 . S
C208 C203 1.407 . S
C208 C207 1.384 . S
C208 H235 0.929 . S
C209 O222 1.241 . S
C209 O223 1.273 . S
C210 O224 1.251 . S
C210 O225 1.268 . S
C211 Nd201 2.836 . S
C211 C212 1.498 . S
C211 O226 1.258 . S
C211 O227 1.239 . S
C212 C211 1.498 . S
C212 C213 1.366 . S
C212 C217 1.407 . S
C213 C212 1.366 . S
C213 C214 1.392 . S
C213 H236 0.930 . S
C214 C213 1.392 . S
C214 C215 1.398 . S
C214 H237 0.929 . S
C215 C214 1.398 . S
C215 C216 1.352 . S
C216 C215 1.352 . S
C216 C217 1.384 . S
C216 H238 0.930 . S
C217 C212 1.407 . S
C217 C216 1.384 . S
C217 H239 0.929 . S
C218 O228 1.241 . S
C218 O229 1.273 . S
C219 O230 1.251 . S
C219 O231 1.268 . S
O220 Nd200 2.500 . S
O220 C202 1.258 . S
O221 Nd200 2.492 . S
O221 C202 1.239 . S
O222 Nd200 2.487 . S
O222 C209 1.241 . S
O223 Nd200 2.682 . S
O223 Nd201 2.414 . S
O223 C209 1.273 . S
O224 Nd200 2.410 . S
O224 C210 1.251 . S
O225 Nd201 2.424 . S
O225 C210 1.268 . S
O226 Nd201 2.500 . S
O226 C211 1.258 . S
O227 Nd201 2.492 . S
O227 C211 1.239 . S
O228 Nd201 2.487 . S
O228 C218 1.241 . S
O229 Nd200 2.414 . S
O229 Nd201 2.682 . S
O229 C218 1.273 . S
O230 Nd201 2.410 . S
O230 C219 1.251 . S
O231 Nd200 2.424 . S
O231 C219 1.268 . S
H232 C204 0.930 . S
H233 C205 0.929 . S
H234 C207 0.930 . S
H235 C208 0.929 . S
H236 C213 0.930 . S
H237 C214 0.929 . S
H238 C216 0.930 . S
H239 C217 0.929 . S
Nd240 C242 2.836 . S
Nd240 O260 2.500 . S
Nd240 O261 2.492 . S
Nd240 O262 2.487 . S
Nd240 O263 2.682 . S
Nd240 O264 2.410 . S
Nd240 O269 2.414 . S
Nd240 O271 2.424 . S
Nd241 C251 2.836 . S
Nd241 O263 2.414 . S
Nd241 O265 2.424 . S
Nd241 O266 2.500 . S
Nd241 O267 2.492 . S
Nd241 O268 2.487 . S
Nd241 O269 2.682 . S
Nd241 O270 2.410 . S
C242 Nd240 2.836 . S
C242 C243 1.498 . S
C242 O260 1.258 . S
C242 O261 1.239 . S
C243 C242 1.498 . S
C243 C244 1.366 . S
C243 C248 1.407 . S
C244 C243 1.366 . S
C244 C245 1.392 . S
C244 H272 0.930 . S
C245 C244 1.392 . S
C245 C246 1.398 . S
C245 H273 0.929 . S
C246 C245 1.398 . S
C246 C247 1.352 . S
C247 C246 1.352 . S
C247 C248 1.384 . S
C247 H274 0.930 . S
C248 C243 1.407 . S
C248 C247 1.384 . S
C248 H275 0.929 . S
C249 O262 1.241 . S
C249 O263 1.273 . S
C250 O264 1.251 . S
C250 O265 1.268 . S
C251 Nd241 2.836 . S
C251 C252 1.496 1_554 S
C251 O266 1.258 . S
C251 O267 1.239 . S
C252 C251 1.496 1_556 S
C252 C253 1.367 . S
C252 C257 1.408 . S
C253 C252 1.367 . S
C253 C254 1.392 . S
C253 H276 0.930 . S
C254 C253 1.392 . S
C254 C255 1.398 . S
C254 H277 0.929 . S
C255 C254 1.398 . S
C255 C256 1.352 . S
C256 C255 1.352 . S
C256 C257 1.384 . S
C256 H278 0.930 . S
C257 C252 1.408 . S
C257 C256 1.384 . S
C257 H279 0.917 1_556 S
C258 O268 1.241 . S
C258 O269 1.273 . S
C259 O270 1.251 . S
C259 O271 1.268 . S
O260 Nd240 2.500 . S
O260 C242 1.258 . S
O261 Nd240 2.492 . S
O261 C242 1.239 . S
O262 Nd240 2.487 . S
O262 C249 1.241 . S
O263 Nd240 2.682 . S
O263 Nd241 2.414 . S
O263 C249 1.273 . S
O264 Nd240 2.410 . S
O264 C250 1.251 . S
O265 Nd241 2.424 . S
O265 C250 1.268 . S
O266 Nd241 2.500 . S
O266 C251 1.258 . S
O267 Nd241 2.492 . S
O267 C251 1.239 . S
O268 Nd241 2.487 . S
O268 C258 1.241 . S
O269 Nd240 2.414 . S
O269 Nd241 2.682 . S
O269 C258 1.273 . S
O270 Nd241 2.410 . S
O270 C259 1.251 . S
O271 Nd240 2.424 . S
O271 C259 1.268 . S
H272 C244 0.930 . S
H273 C245 0.929 . S
H274 C247 0.930 . S
H275 C248 0.929 . S
H276 C253 0.930 . S
H277 C254 0.929 . S
H278 C256 0.930 . S
H279 C257 0.917 1_554 S
Nd280 C282 2.836 . S
Nd280 O300 2.500 . S
Nd280 O301 2.492 . S
Nd280 O302 2.487 . S
Nd280 O303 2.682 . S
Nd280 O304 2.410 . S
Nd280 O309 2.414 . S
Nd280 O311 2.424 . S
Nd281 C291 2.836 . S
Nd281 O303 2.414 . S
Nd281 O305 2.424 . S
Nd281 O306 2.500 . S
Nd281 O307 2.492 . S
Nd281 O308 2.487 . S
Nd281 O309 2.682 . S
Nd281 O310 2.410 . S
C282 Nd280 2.836 . S
C282 C283 1.498 . S
C282 O300 1.258 . S
C282 O301 1.239 . S
C283 C282 1.498 . S
C283 C284 1.366 . S
C283 C288 1.407 . S
C284 C283 1.366 . S
C284 C285 1.392 . S
C284 H312 0.930 . S
C285 C284 1.392 . S
C285 C286 1.398 . S
C285 H313 0.929 . S
C286 C285 1.398 . S
C286 C287 1.352 . S
C287 C286 1.352 . S
C287 C288 1.384 . S
C287 H314 0.930 . S
C288 C283 1.407 . S
C288 C287 1.384 . S
C288 H315 0.929 . S
C289 O302 1.241 . S
C289 O303 1.273 . S
C290 O304 1.251 . S
C290 O305 1.268 . S
C291 Nd281 2.836 . S
C291 C292 1.496 1_554 S
C291 O306 1.258 . S
C291 O307 1.239 . S
C292 C291 1.496 1_556 S
C292 C293 1.368 . S
C292 C297 1.408 . S
C293 C292 1.368 . S
C293 C294 1.392 . S
C293 H316 0.930 . S
C294 C293 1.392 . S
C294 C295 1.398 . S
C294 H317 0.929 . S
C295 C294 1.398 . S
C295 C296 1.352 . S
C296 C295 1.352 . S
C296 C297 1.384 . S
C296 H318 0.930 . S
C297 C292 1.408 . S
C297 C296 1.384 . S
C297 H319 0.917 1_556 S
C298 O308 1.241 . S
C298 O309 1.273 . S
C299 O310 1.251 . S
C299 O311 1.268 . S
O300 Nd280 2.500 . S
O300 C282 1.258 . S
O301 Nd280 2.492 . S
O301 C282 1.239 . S
O302 Nd280 2.487 . S
O302 C289 1.241 . S
O303 Nd280 2.682 . S
O303 Nd281 2.414 . S
O303 C289 1.273 . S
O304 Nd280 2.410 . S
O304 C290 1.251 . S
O305 Nd281 2.424 . S
O305 C290 1.268 . S
O306 Nd281 2.500 . S
O306 C291 1.258 . S
O307 Nd281 2.492 . S
O307 C291 1.239 . S
O308 Nd281 2.487 . S
O308 C298 1.241 . S
O309 Nd280 2.414 . S
O309 Nd281 2.682 . S
O309 C298 1.273 . S
O310 Nd281 2.410 . S
O310 C299 1.251 . S
O311 Nd280 2.424 . S
O311 C299 1.268 . S
H312 C284 0.930 . S
H313 C285 0.929 . S
H314 C287 0.930 . S
H315 C288 0.929 . S
H316 C293 0.930 . S
H317 C294 0.929 . S
H318 C296 0.930 . S
H319 C297 0.917 1_554 S
Nd320 C322 2.836 . S
Nd320 O340 2.500 . S
Nd320 O341 2.492 . S
Nd320 O342 2.487 . S
Nd320 O343 2.682 . S
Nd320 O344 2.410 . S
Nd320 O349 2.414 . S
Nd320 O351 2.424 . S
Nd321 C331 2.836 . S
Nd321 O343 2.414 . S
Nd321 O345 2.424 . S
Nd321 O346 2.500 . S
Nd321 O347 2.492 . S
Nd321 O348 2.487 . S
Nd321 O349 2.682 . S
Nd321 O350 2.410 . S
C322 Nd320 2.836 . S
C322 C323 1.498 . S
C322 O340 1.258 . S
C322 O341 1.239 . S
C323 C322 1.498 . S
C323 C324 1.366 . S
C323 C328 1.407 . S
C324 C323 1.366 . S
C324 C325 1.392 . S
C324 H352 0.930 . S
C325 C324 1.392 . S
C325 C326 1.398 . S
C325 H353 0.929 . S
C326 C325 1.398 . S
C326 C327 1.352 . S
C327 C326 1.352 . S
C327 C328 1.384 . S
C327 H354 0.930 . S
C328 C323 1.407 . S
C328 C327 1.384 . S
C328 H355 0.929 . S
C329 O342 1.241 . S
C329 O343 1.273 . S
C330 O344 1.251 . S
C330 O345 1.268 . S
C331 Nd321 2.836 . S
C331 C332 1.496 1_554 S
C331 O346 1.258 . S
C331 O347 1.239 . S
C332 C331 1.496 1_556 S
C332 C333 1.367 . S
C332 C337 1.408 . S
C333 C332 1.367 . S
C333 C334 1.392 . S
C333 H356 0.930 . S
C334 C333 1.392 . S
C334 C335 1.398 . S
C334 H357 0.929 . S
C335 C334 1.398 . S
C335 C336 1.352 . S
C336 C335 1.352 . S
C336 C337 1.384 . S
C336 H358 0.930 . S
C337 C332 1.408 . S
C337 C336 1.384 . S
C337 H359 0.917 1_556 S
C338 O348 1.241 . S
C338 O349 1.273 . S
C339 O350 1.251 . S
C339 O351 1.268 . S
O340 Nd320 2.500 . S
O340 C322 1.258 . S
O341 Nd320 2.492 . S
O341 C322 1.239 . S
O342 Nd320 2.487 . S
O342 C329 1.241 . S
O343 Nd320 2.682 . S
O343 Nd321 2.414 . S
O343 C329 1.273 . S
O344 Nd320 2.410 . S
O344 C330 1.251 . S
O345 Nd321 2.424 . S
O345 C330 1.268 . S
O346 Nd321 2.500 . S
O346 C331 1.258 . S
O347 Nd321 2.492 . S
O347 C331 1.239 . S
O348 Nd321 2.487 . S
O348 C338 1.241 . S
O349 Nd320 2.414 . S
O349 Nd321 2.682 . S
O349 C338 1.273 . S
O350 Nd321 2.410 . S
O350 C339 1.251 . S
O351 Nd320 2.424 . S
O351 C339 1.268 . S
H352 C324 0.930 . S
H353 C325 0.929 . S
H354 C327 0.930 . S
H355 C328 0.929 . S
H356 C333 0.930 . S
H357 C334 0.929 . S
H358 C336 0.930 . S
H359 C337 0.917 1_554 S
Nd360 C362 2.836 . S
Nd360 O380 2.500 . S
Nd360 O381 2.492 . S
Nd360 O382 2.487 . S
Nd360 O383 2.682 . S
Nd360 O384 2.410 . S
Nd360 O389 2.414 . S
Nd360 O391 2.424 . S
Nd361 C371 2.836 . S
Nd361 O383 2.414 . S
Nd361 O385 2.424 . S
Nd361 O386 2.500 . S
Nd361 O387 2.492 . S
Nd361 O388 2.487 . S
Nd361 O389 2.682 . S
Nd361 O390 2.410 . S
C362 Nd360 2.836 . S
C362 C363 1.498 . S
C362 O380 1.258 . S
C362 O381 1.239 . S
C363 C362 1.498 . S
C363 C364 1.366 . S
C363 C368 1.407 . S
C364 C363 1.366 . S
C364 C365 1.392 . S
C364 H392 0.930 . S
C365 C364 1.392 . S
C365 C366 1.398 . S
C365 H393 0.929 . S
C366 C365 1.398 . S
C366 C367 1.352 . S
C367 C366 1.352 . S
C367 C368 1.384 . S
C367 H394 0.930 . S
C368 C363 1.407 . S
C368 C367 1.384 . S
C368 H395 0.929 . S
C369 O382 1.241 . S
C369 O383 1.273 . S
C370 O384 1.251 . S
C370 O385 1.268 . S
C371 Nd361 2.836 . S
C371 C372 1.498 . S
C371 O386 1.258 . S
C371 O387 1.239 . S
C372 C371 1.498 . S
C372 C373 1.366 . S
C372 C377 1.407 . S
C373 C372 1.366 . S
C373 C374 1.392 . S
C373 H396 0.930 . S
C374 C373 1.392 . S
C374 C375 1.398 . S
C374 H397 0.929 . S
C375 C374 1.398 . S
C375 C376 1.352 . S
C376 C375 1.352 . S
C376 C377 1.384 . S
C376 H398 0.930 . S
C377 C372 1.407 . S
C377 C376 1.384 . S
C377 H399 0.929 . S
C378 O388 1.241 . S
C378 O389 1.273 . S
C379 O390 1.251 . S
C379 O391 1.268 . S
O380 Nd360 2.500 . S
O380 C362 1.258 . S
O381 Nd360 2.492 . S
O381 C362 1.239 . S
O382 Nd360 2.487 . S
O382 C369 1.241 . S
O383 Nd360 2.682 . S
O383 Nd361 2.414 . S
O383 C369 1.273 . S
O384 Nd360 2.410 . S
O384 C370 1.251 . S
O385 Nd361 2.424 . S
O385 C370 1.268 . S
O386 Nd361 2.500 . S
O386 C371 1.258 . S
O387 Nd361 2.492 . S
O387 C371 1.239 . S
O388 Nd361 2.487 . S
O388 C378 1.241 . S
O389 Nd360 2.414 . S
O389 Nd361 2.682 . S
O389 C378 1.273 . S
O390 Nd361 2.410 . S
O390 C379 1.251 . S
O391 Nd360 2.424 . S
O391 C379 1.268 . S
H392 C364 0.930 . S
H393 C365 0.929 . S
H394 C367 0.930 . S
H395 C368 0.929 . S
H396 C373 0.930 . S
H397 C374 0.929 . S
H398 C376 0.930 . S
H399 C377 0.929 . S
Nd400 C402 2.836 . S
Nd400 O420 2.500 . S
Nd400 O421 2.492 . S
Nd400 O422 2.487 . S
Nd400 O423 2.682 . S
Nd400 O424 2.410 . S
Nd400 O429 2.414 . S
Nd400 O431 2.424 . S
Nd401 C411 2.836 . S
Nd401 O423 2.414 . S
Nd401 O425 2.424 . S
Nd401 O426 2.500 . S
Nd401 O427 2.492 . S
Nd401 O428 2.487 . S
Nd401 O429 2.682 . S
Nd401 O430 2.410 . S
C402 Nd400 2.836 . S
C402 C403 1.498 . S
C402 O420 1.258 . S
C402 O421 1.239 . S
C403 C402 1.498 . S
C403 C404 1.366 . S
C403 C408 1.407 . S
C404 C403 1.366 . S
C404 C405 1.392 . S
C404 H432 0.930 . S
C405 C404 1.392 . S
C405 C406 1.398 . S
C405 H433 0.929 . S
C406 C405 1.398 . S
C406 C407 1.352 . S
C407 C406 1.352 . S
C407 C408 1.384 . S
C407 H434 0.930 . S
C408 C403 1.407 . S
C408 C407 1.384 . S
C408 H435 0.929 . S
C409 O422 1.241 . S
C409 O423 1.273 . S
C410 O424 1.251 . S
C410 O425 1.268 . S
C411 Nd401 2.836 . S
C411 C412 1.498 . S
C411 O426 1.258 . S
C411 O427 1.239 . S
C412 C411 1.498 . S
C412 C413 1.366 . S
C412 C417 1.407 . S
C413 C412 1.366 . S
C413 C414 1.392 . S
C413 H436 0.930 . S
C414 C413 1.392 . S
C414 C415 1.398 . S
C414 H437 0.929 . S
C415 C414 1.398 . S
C415 C416 1.352 . S
C416 C415 1.352 . S
C416 C417 1.384 . S
C416 H438 0.930 . S
C417 C412 1.407 . S
C417 C416 1.384 . S
C417 H439 0.929 . S
C418 O428 1.241 . S
C418 O429 1.273 . S
C419 O430 1.251 . S
C419 O431 1.268 . S
O420 Nd400 2.500 . S
O420 C402 1.258 . S
O421 Nd400 2.492 . S
O421 C402 1.239 . S
O422 Nd400 2.487 . S
O422 C409 1.241 . S
O423 Nd400 2.682 . S
O423 Nd401 2.414 . S
O423 C409 1.273 . S
O424 Nd400 2.410 . S
O424 C410 1.251 . S
O425 Nd401 2.424 . S
O425 C410 1.268 . S
O426 Nd401 2.500 . S
O426 C411 1.258 . S
O427 Nd401 2.492 . S
O427 C411 1.239 . S
O428 Nd401 2.487 . S
O428 C418 1.241 . S
O429 Nd400 2.414 . S
O429 Nd401 2.682 . S
O429 C418 1.273 . S
O430 Nd401 2.410 . S
O430 C419 1.251 . S
O431 Nd400 2.424 . S
O431 C419 1.268 . S
H432 C404 0.930 . S
H433 C405 0.929 . S
H434 C407 0.930 . S
H435 C408 0.929 . S
H436 C413 0.930 . S
H437 C414 0.929 . S
H438 C416 0.930 . S
H439 C417 0.929 . S
Nd440 C442 2.836 . S
Nd440 O460 2.500 . S
Nd440 O461 2.492 . S
Nd440 O462 2.487 . S
Nd440 O463 2.682 . S
Nd440 O464 2.410 . S
Nd440 O469 2.414 . S
Nd440 O471 2.424 . S
Nd441 C451 2.836 . S
Nd441 O463 2.414 . S
Nd441 O465 2.424 . S
Nd441 O466 2.500 . S
Nd441 O467 2.492 . S
Nd441 O468 2.487 . S
Nd441 O469 2.682 . S
Nd441 O470 2.410 . S
C442 Nd440 2.836 . S
C442 C443 1.498 . S
C442 O460 1.258 . S
C442 O461 1.239 . S
C443 C442 1.498 . S
C443 C444 1.366 . S
C443 C448 1.407 . S
C444 C443 1.366 . S
C444 C445 1.392 . S
C444 H472 0.930 . S
C445 C444 1.392 . S
C445 C446 1.398 . S
C445 H473 0.929 . S
C446 C445 1.398 . S
C446 C447 1.352 . S
C447 C446 1.352 . S
C447 C448 1.384 . S
C447 H474 0.930 . S
C448 C443 1.407 . S
C448 C447 1.384 . S
C448 H475 0.929 . S
C449 O462 1.241 . S
C449 O463 1.273 . S
C450 O464 1.251 . S
C450 O465 1.268 . S
C451 Nd441 2.836 . S
C451 C452 1.498 . S
C451 O466 1.258 . S
C451 O467 1.239 . S
C452 C451 1.498 . S
C452 C453 1.366 . S
C452 C457 1.407 . S
C453 C452 1.366 . S
C453 C454 1.392 . S
C453 H476 0.930 . S
C454 C453 1.392 . S
C454 C455 1.398 . S
C454 H477 0.929 . S
C455 C454 1.398 . S
C455 C456 1.352 . S
C456 C455 1.352 . S
C456 C457 1.384 . S
C456 H478 0.930 . S
C457 C452 1.407 . S
C457 C456 1.384 . S
C457 H479 0.929 . S
C458 O468 1.241 . S
C458 O469 1.273 . S
C459 O470 1.251 . S
C459 O471 1.268 . S
O460 Nd440 2.500 . S
O460 C442 1.258 . S
O461 Nd440 2.492 . S
O461 C442 1.239 . S
O462 Nd440 2.487 . S
O462 C449 1.241 . S
O463 Nd440 2.682 . S
O463 Nd441 2.414 . S
O463 C449 1.273 . S
O464 Nd440 2.410 . S
O464 C450 1.251 . S
O465 Nd441 2.424 . S
O465 C450 1.268 . S
O466 Nd441 2.500 . S
O466 C451 1.258 . S
O467 Nd441 2.492 . S
O467 C451 1.239 . S
O468 Nd441 2.487 . S
O468 C458 1.241 . S
O469 Nd440 2.414 . S
O469 Nd441 2.682 . S
O469 C458 1.273 . S
O470 Nd441 2.410 . S
O470 C459 1.251 . S
O471 Nd440 2.424 . S
O471 C459 1.268 . S
H472 C444 0.930 . S
H473 C445 0.929 . S
H474 C447 0.930 . S
H475 C448 0.929 . S
H476 C453 0.930 . S
H477 C454 0.929 . S
H478 C456 0.930 . S
H479 C457 0.929 . S
Nd480 C482 2.836 . S
Nd480 O500 2.500 . S
Nd480 O501 2.492 . S
Nd480 O502 2.487 . S
Nd480 O503 2.682 . S
Nd480 O504 2.410 . S
Nd480 O509 2.414 . S
Nd480 O511 2.424 . S
Nd481 C491 2.836 . S
Nd481 O503 2.414 . S
Nd481 O505 2.424 . S
Nd481 O506 2.500 . S
Nd481 O507 2.492 . S
Nd481 O508 2.487 . S
Nd481 O509 2.682 . S
Nd481 O510 2.410 . S
C482 Nd480 2.836 . S
C482 C483 1.498 . S
C482 O500 1.258 . S
C482 O501 1.239 . S
C483 C482 1.498 . S
C483 C484 1.366 . S
C483 C488 1.407 . S
C484 C483 1.366 . S
C484 C485 1.392 . S
C484 H512 0.930 . S
C485 C484 1.392 . S
C485 C486 1.398 . S
C485 H513 0.929 . S
C486 C485 1.398 . S
C486 C487 1.352 . S
C487 C486 1.352 . S
C487 C488 1.384 . S
C487 H514 0.930 . S
C488 C483 1.407 . S
C488 C487 1.384 . S
C488 H515 0.929 . S
C489 O502 1.241 . S
C489 O503 1.273 . S
C490 O504 1.251 . S
C490 O505 1.268 . S
C491 Nd481 2.836 . S
C491 C492 1.498 . S
C491 O506 1.258 . S
C491 O507 1.239 . S
C492 C491 1.498 . S
C492 C493 1.366 . S
C492 C497 1.407 . S
C493 C492 1.366 . S
C493 C494 1.392 . S
C493 H516 0.930 . S
C494 C493 1.392 . S
C494 C495 1.398 . S
C494 H517 0.929 . S
C495 C494 1.398 . S
C495 C496 1.352 . S
C496 C495 1.352 . S
C496 C497 1.384 . S
C496 H518 0.930 . S
C497 C492 1.407 . S
C497 C496 1.384 . S
C497 H519 0.929 . S
C498 O508 1.241 . S
C498 O509 1.273 . S
C499 O510 1.251 . S
C499 O511 1.268 . S
O500 Nd480 2.500 . S
O500 C482 1.258 . S
O501 Nd480 2.492 . S
O501 C482 1.239 . S
O502 Nd480 2.487 . S
O502 C489 1.241 . S
O503 Nd480 2.682 . S
O503 Nd481 2.414 . S
O503 C489 1.273 . S
O504 Nd480 2.410 . S
O504 C490 1.251 . S
O505 Nd481 2.424 . S
O505 C490 1.268 . S
O506 Nd481 2.500 . S
O506 C491 1.258 . S
O507 Nd481 2.492 . S
O507 C491 1.239 . S
O508 Nd481 2.487 . S
O508 C498 1.241 . S
O509 Nd480 2.414 . S
O509 Nd481 2.682 . S
O509 C498 1.273 . S
O510 Nd481 2.410 . S
O510 C499 1.251 . S
O511 Nd480 2.424 . S
O511 C499 1.268 . S
H512 C484 0.930 . S
H513 C485 0.929 . S
H514 C487 0.930 . S
H515 C488 0.929 . S
H516 C493 0.930 . S
H517 C494 0.929 . S
H518 C496 0.930 . S
H519 C497 0.929 . S
Nd520 C522 2.836 . S
Nd520 O540 2.500 . S
Nd520 O541 2.492 . S
Nd520 O542 2.487 . S
Nd520 O543 2.682 . S
Nd520 O544 2.410 . S
Nd520 O549 2.414 . S
Nd520 O551 2.424 . S
Nd521 C531 2.836 . S
Nd521 O543 2.414 . S
Nd521 O545 2.424 . S
Nd521 O546 2.500 . S
Nd521 O547 2.492 . S
Nd521 O548 2.487 . S
Nd521 O549 2.682 . S
Nd521 O550 2.410 . S
C522 Nd520 2.836 . S
C522 C523 1.498 . S
C522 O540 1.258 . S
C522 O541 1.239 . S
C523 C522 1.498 . S
C523 C524 1.366 . S
C523 C528 1.407 . S
C524 C523 1.366 . S
C524 C525 1.392 . S
C524 H552 0.930 . S
C525 C524 1.392 . S
C525 C526 1.398 . S
C525 H553 0.929 . S
C526 C525 1.398 . S
C526 C527 1.352 . S
C527 C526 1.352 . S
C527 C528 1.384 . S
C527 H554 0.930 . S
C528 C523 1.407 . S
C528 C527 1.384 . S
C528 H555 0.929 . S
C529 O542 1.241 . S
C529 O543 1.273 . S
C530 O544 1.251 . S
C530 O545 1.268 . S
C531 Nd521 2.836 . S
C531 C532 1.498 . S
C531 O546 1.258 . S
C531 O547 1.239 . S
C532 C531 1.498 . S
C532 C533 1.366 . S
C532 C537 1.407 . S
C533 C532 1.366 . S
C533 C534 1.392 . S
C533 H556 0.930 . S
C534 C533 1.392 . S
C534 C535 1.398 . S
C534 H557 0.929 . S
C535 C534 1.398 . S
C535 C536 1.352 . S
C536 C535 1.352 . S
C536 C537 1.384 . S
C536 H558 0.930 . S
C537 C532 1.407 . S
C537 C536 1.384 . S
C537 H559 0.929 . S
C538 O548 1.241 . S
C538 O549 1.273 . S
C539 O550 1.251 . S
C539 O551 1.268 . S
O540 Nd520 2.500 . S
O540 C522 1.258 . S
O541 Nd520 2.492 . S
O541 C522 1.239 . S
O542 Nd520 2.487 . S
O542 C529 1.241 . S
O543 Nd520 2.682 . S
O543 Nd521 2.414 . S
O543 C529 1.273 . S
O544 Nd520 2.410 . S
O544 C530 1.251 . S
O545 Nd521 2.424 . S
O545 C530 1.268 . S
O546 Nd521 2.500 . S
O546 C531 1.258 . S
O547 Nd521 2.492 . S
O547 C531 1.239 . S
O548 Nd521 2.487 . S
O548 C538 1.241 . S
O549 Nd520 2.414 . S
O549 Nd521 2.682 . S
O549 C538 1.273 . S
O550 Nd521 2.410 . S
O550 C539 1.251 . S
O551 Nd520 2.424 . S
O551 C539 1.268 . S
H552 C524 0.930 . S
H553 C525 0.929 . S
H554 C527 0.930 . S
H555 C528 0.929 . S
H556 C533 0.930 . S
H557 C534 0.929 . S
H558 C536 0.930 . S
H559 C537 0.929 . S
Nd560 C562 2.836 . S
Nd560 O580 2.500 . S
Nd560 O581 2.492 . S
Nd560 O582 2.487 . S
Nd560 O583 2.682 . S
Nd560 O584 2.410 . S
Nd560 O589 2.414 . S
Nd560 O591 2.424 . S
Nd561 C571 2.836 . S
Nd561 O583 2.414 . S
Nd561 O585 2.424 . S
Nd561 O586 2.500 . S
Nd561 O587 2.492 . S
Nd561 O588 2.487 . S
Nd561 O589 2.682 . S
Nd561 O590 2.410 . S
C562 Nd560 2.836 . S
C562 C563 1.498 . S
C562 O580 1.258 . S
C562 O581 1.239 . S
C563 C562 1.498 . S
C563 C564 1.366 . S
C563 C568 1.407 . S
C564 C563 1.366 . S
C564 C565 1.392 . S
C564 H592 0.930 . S
C565 C564 1.392 . S
C565 C566 1.398 . S
C565 H593 0.929 . S
C566 C565 1.398 . S
C566 C567 1.352 . S
C567 C566 1.352 . S
C567 C568 1.384 . S
C567 H594 0.930 . S
C568 C563 1.407 . S
C568 C567 1.384 . S
C568 H595 0.929 . S
C569 O582 1.241 . S
C569 O583 1.273 . S
C570 O584 1.251 . S
C570 O585 1.268 . S
C571 Nd561 2.836 . S
C571 C572 1.498 . S
C571 O586 1.258 . S
C571 O587 1.239 . S
C572 C571 1.498 . S
C572 C573 1.366 . S
C572 C577 1.407 . S
C573 C572 1.366 . S
C573 C574 1.392 . S
C573 H596 0.930 . S
C574 C573 1.392 . S
C574 C575 1.398 . S
C574 H597 0.929 . S
C575 C574 1.398 . S
C575 C576 1.352 . S
C576 C575 1.352 . S
C576 C577 1.384 . S
C576 H598 0.930 . S
C577 C572 1.407 . S
C577 C576 1.384 . S
C577 H599 0.929 . S
C578 O588 1.241 . S
C578 O589 1.273 . S
C579 O590 1.251 . S
C579 O591 1.268 . S
O580 Nd560 2.500 . S
O580 C562 1.258 . S
O581 Nd560 2.492 . S
O581 C562 1.239 . S
O582 Nd560 2.487 . S
O582 C569 1.241 . S
O583 Nd560 2.682 . S
O583 Nd561 2.414 . S
O583 C569 1.273 . S
O584 Nd560 2.410 . S
O584 C570 1.251 . S
O585 Nd561 2.424 . S
O585 C570 1.268 . S
O586 Nd561 2.500 . S
O586 C571 1.258 . S
O587 Nd561 2.492 . S
O587 C571 1.239 . S
O588 Nd561 2.487 . S
O588 C578 1.241 . S
O589 Nd560 2.414 . S
O589 Nd561 2.682 . S
O589 C578 1.273 . S
O590 Nd561 2.410 . S
O590 C579 1.251 . S
O591 Nd560 2.424 . S
O591 C579 1.268 . S
H592 C564 0.930 . S
H593 C565 0.929 . S
H594 C567 0.930 . S
H595 C568 0.929 . S
H596 C573 0.930 . S
H597 C574 0.929 . S
H598 C576 0.930 . S
H599 C577 0.929 . S
Nd600 C602 2.836 . S
Nd600 O620 2.500 . S
Nd600 O621 2.492 . S
Nd600 O622 2.487 . S
Nd600 O623 2.682 . S
Nd600 O624 2.410 . S
Nd600 O629 2.414 . S
Nd600 O631 2.424 1_556 S
Nd601 C611 2.836 1_556 S
Nd601 O623 2.414 . S
Nd601 O625 2.424 . S
Nd601 O626 2.500 1_556 S
Nd601 O627 2.492 1_556 S
Nd601 O628 2.487 . S
Nd601 O629 2.682 . S
Nd601 O630 2.410 1_556 S
C602 Nd600 2.836 . S
C602 C603 1.498 . S
C602 O620 1.258 . S
C602 O621 1.239 . S
C603 C602 1.498 . S
C603 C604 1.366 . S
C603 C608 1.407 . S
C604 C603 1.366 . S
C604 C605 1.392 . S
C604 H632 0.930 . S
C605 C604 1.392 . S
C605 C606 1.398 . S
C605 H633 0.929 . S
C606 C605 1.398 . S
C606 C607 1.352 . S
C607 C606 1.352 . S
C607 C608 1.384 . S
C607 H634 0.930 . S
C608 C603 1.407 . S
C608 C607 1.384 . S
C608 H635 0.929 . S
C609 O622 1.241 . S
C609 O623 1.273 . S
C610 O624 1.251 . S
C610 O625 1.268 . S
C611 Nd601 2.836 1_554 S
C611 C612 1.498 . S
C611 O626 1.258 . S
C611 O627 1.239 . S
C612 C611 1.498 . S
C612 C613 1.366 . S
C612 C617 1.407 . S
C613 C612 1.366 . S
C613 C614 1.392 . S
C613 H636 0.930 . S
C614 C613 1.392 . S
C614 C615 1.398 . S
C614 H637 0.929 . S
C615 C614 1.398 . S
C615 C616 1.352 . S
C616 C615 1.352 . S
C616 C617 1.384 . S
C616 H638 0.930 . S
C617 C612 1.407 . S
C617 C616 1.384 . S
C617 H639 0.929 . S
C618 O628 1.241 . S
C618 O629 1.273 . S
C619 O630 1.251 . S
C619 O631 1.268 . S
O620 Nd600 2.500 . S
O620 C602 1.258 . S
O621 Nd600 2.492 . S
O621 C602 1.239 . S
O622 Nd600 2.487 . S
O622 C609 1.241 . S
O623 Nd600 2.682 . S
O623 Nd601 2.414 . S
O623 C609 1.273 . S
O624 Nd600 2.410 . S
O624 C610 1.251 . S
O625 Nd601 2.424 . S
O625 C610 1.268 . S
O626 Nd601 2.500 1_554 S
O626 C611 1.258 . S
O627 Nd601 2.492 1_554 S
O627 C611 1.239 . S
O628 Nd601 2.487 . S
O628 C618 1.241 . S
O629 Nd600 2.414 . S
O629 Nd601 2.682 . S
O629 C618 1.273 . S
O630 Nd601 2.410 1_554 S
O630 C619 1.251 . S
O631 Nd600 2.424 1_554 S
O631 C619 1.268 . S
H632 C604 0.930 . S
H633 C605 0.929 . S
H634 C607 0.930 . S
H635 C608 0.929 . S
H636 C613 0.930 . S
H637 C614 0.929 . S
H638 C616 0.930 . S
H639 C617 0.929 . S
Nd640 C642 2.836 . S
Nd640 O660 2.500 . S
Nd640 O661 2.492 . S
Nd640 O662 2.487 . S
Nd640 O663 2.682 . S
Nd640 O664 2.410 . S
Nd640 O669 2.414 . S
Nd640 O671 2.424 1_556 S
Nd641 C651 2.836 1_556 S
Nd641 O663 2.414 . S
Nd641 O665 2.424 . S
Nd641 O666 2.500 1_556 S
Nd641 O667 2.492 1_556 S
Nd641 O668 2.487 . S
Nd641 O669 2.682 . S
Nd641 O670 2.410 1_556 S
C642 Nd640 2.836 . S
C642 C643 1.498 . S
C642 O660 1.258 . S
C642 O661 1.239 . S
C643 C642 1.498 . S
C643 C644 1.366 . S
C643 C648 1.407 . S
C644 C643 1.366 . S
C644 C645 1.392 . S
C644 H672 0.930 . S
C645 C644 1.392 . S
C645 C646 1.398 . S
C645 H673 0.929 . S
C646 C645 1.398 . S
C646 C647 1.352 . S
C647 C646 1.352 . S
C647 C648 1.384 . S
C647 H674 0.930 . S
C648 C643 1.407 . S
C648 C647 1.384 . S
C648 H675 0.929 . S
C649 O662 1.241 . S
C649 O663 1.273 . S
C650 O664 1.251 . S
C650 O665 1.268 . S
C651 Nd641 2.836 1_554 S
C651 C652 1.498 . S
C651 O666 1.258 . S
C651 O667 1.239 . S
C652 C651 1.498 . S
C652 C653 1.366 . S
C652 C657 1.407 . S
C653 C652 1.366 . S
C653 C654 1.392 . S
C653 H676 0.930 . S
C654 C653 1.392 . S
C654 C655 1.398 . S
C654 H677 0.929 . S
C655 C654 1.398 . S
C655 C656 1.352 . S
C656 C655 1.352 . S
C656 C657 1.384 . S
C656 H678 0.930 . S
C657 C652 1.407 . S
C657 C656 1.384 . S
C657 H679 0.929 . S
C658 O668 1.241 . S
C658 O669 1.273 . S
C659 O670 1.251 . S
C659 O671 1.268 . S
O660 Nd640 2.500 . S
O660 C642 1.258 . S
O661 Nd640 2.492 . S
O661 C642 1.239 . S
O662 Nd640 2.487 . S
O662 C649 1.241 . S
O663 Nd640 2.682 . S
O663 Nd641 2.414 . S
O663 C649 1.273 . S
O664 Nd640 2.410 . S
O664 C650 1.251 . S
O665 Nd641 2.424 . S
O665 C650 1.268 . S
O666 Nd641 2.500 1_554 S
O666 C651 1.258 . S
O667 Nd641 2.492 1_554 S
O667 C651 1.239 . S
O668 Nd641 2.487 . S
O668 C658 1.241 . S
O669 Nd640 2.414 . S
O669 Nd641 2.682 . S
O669 C658 1.273 . S
O670 Nd641 2.410 1_554 S
O670 C659 1.251 . S
O671 Nd640 2.424 1_554 S
O671 C659 1.268 . S
H672 C644 0.930 . S
H673 C645 0.929 . S
H674 C647 0.930 . S
H675 C648 0.929 . S
H676 C653 0.930 . S
H677 C654 0.929 . S
H678 C656 0.930 . S
H679 C657 0.929 . S
Nd680 C682 2.836 . S
Nd680 O700 2.500 . S
Nd680 O701 2.492 . S
Nd680 O702 2.487 . S
Nd680 O703 2.682 . S
Nd680 O704 2.410 . S
Nd680 O709 2.414 . S
Nd680 O711 2.424 1_556 S
Nd681 C691 2.836 1_556 S
Nd681 O703 2.414 . S
Nd681 O705 2.424 . S
Nd681 O706 2.500 1_556 S
Nd681 O707 2.492 1_556 S
Nd681 O708 2.487 . S
Nd681 O709 2.682 . S
Nd681 O710 2.410 1_556 S
C682 Nd680 2.836 . S
C682 C683 1.498 . S
C682 O700 1.258 . S
C682 O701 1.239 . S
C683 C682 1.498 . S
C683 C684 1.366 . S
C683 C688 1.407 . S
C684 C683 1.366 . S
C684 C685 1.392 . S
C684 H712 0.930 . S
C685 C684 1.392 . S
C685 C686 1.398 . S
C685 H713 0.929 . S
C686 C685 1.398 . S
C686 C687 1.352 . S
C687 C686 1.352 . S
C687 C688 1.384 . S
C687 H714 0.930 . S
C688 C683 1.407 . S
C688 C687 1.384 . S
C688 H715 0.929 . S
C689 O702 1.241 . S
C689 O703 1.273 . S
C690 O704 1.251 . S
C690 O705 1.268 . S
C691 Nd681 2.836 1_554 S
C691 C692 1.498 . S
C691 O706 1.258 . S
C691 O707 1.239 . S
C692 C691 1.498 . S
C692 C693 1.366 . S
C692 C697 1.407 . S
C693 C692 1.366 . S
C693 C694 1.392 . S
C693 H716 0.930 . S
C694 C693 1.392 . S
C694 C695 1.398 . S
C694 H717 0.929 . S
C695 C694 1.398 . S
C695 C696 1.352 . S
C696 C695 1.352 . S
C696 C697 1.384 . S
C696 H718 0.930 . S
C697 C692 1.407 . S
C697 C696 1.384 . S
C697 H719 0.929 . S
C698 O708 1.241 . S
C698 O709 1.273 . S
C699 O710 1.251 . S
C699 O711 1.268 . S
O700 Nd680 2.500 . S
O700 C682 1.258 . S
O701 Nd680 2.492 . S
O701 C682 1.239 . S
O702 Nd680 2.487 . S
O702 C689 1.241 . S
O703 Nd680 2.682 . S
O703 Nd681 2.414 . S
O703 C689 1.273 . S
O704 Nd680 2.410 . S
O704 C690 1.251 . S
O705 Nd681 2.424 . S
O705 C690 1.268 . S
O706 Nd681 2.500 1_554 S
O706 C691 1.258 . S
O707 Nd681 2.492 1_554 S
O707 C691 1.239 . S
O708 Nd681 2.487 . S
O708 C698 1.241 . S
O709 Nd680 2.414 . S
O709 Nd681 2.682 . S
O709 C698 1.273 . S
O710 Nd681 2.410 1_554 S
O710 C699 1.251 . S
O711 Nd680 2.424 1_554 S
O711 C699 1.268 . S
H712 C684 0.930 . S
H713 C685 0.929 . S
H714 C687 0.930 . S
H715 C688 0.929 . S
H716 C693 0.930 . S
H717 C694 0.929 . S
H718 C696 0.930 . S
H719 C697 0.929 . S
Nd720 C722 2.836 . S
Nd720 O740 2.500 . S
Nd720 O741 2.492 . S
Nd720 O742 2.487 . S
Nd720 O743 2.682 . S
Nd720 O744 2.410 . S
Nd720 O749 2.414 . S
Nd720 O751 2.424 . S
Nd721 C731 2.836 . S
Nd721 O743 2.414 . S
Nd721 O745 2.424 . S
Nd721 O746 2.500 . S
Nd721 O747 2.492 . S
Nd721 O748 2.487 . S
Nd721 O749 2.682 . S
Nd721 O750 2.410 . S
C722 Nd720 2.836 . S
C722 C723 1.498 . S
C722 O740 1.258 . S
C722 O741 1.239 . S
C723 C722 1.498 . S
C723 C724 1.366 . S
C723 C728 1.407 . S
C724 C723 1.366 . S
C724 C725 1.392 . S
C724 H752 0.930 . S
C725 C724 1.392 . S
C725 C726 1.398 . S
C725 H753 0.929 . S
C726 C725 1.398 . S
C726 C727 1.352 . S
C727 C726 1.352 . S
C727 C728 1.384 . S
C727 H754 0.930 . S
C728 C723 1.407 . S
C728 C727 1.384 . S
C728 H755 0.929 . S
C729 O742 1.241 . S
C729 O743 1.273 . S
C730 O744 1.251 . S
C730 O745 1.268 . S
C731 Nd721 2.836 . S
C731 C732 1.498 . S
C731 O746 1.258 . S
C731 O747 1.239 . S
C732 C731 1.498 . S
C732 C733 1.366 . S
C732 C737 1.407 . S
C733 C732 1.366 . S
C733 C734 1.392 . S
C733 H756 0.930 . S
C734 C733 1.392 . S
C734 C735 1.398 . S
C734 H757 0.929 . S
C735 C734 1.398 . S
C735 C736 1.352 . S
C736 C735 1.352 . S
C736 C737 1.384 . S
C736 H758 0.930 . S
C737 C732 1.407 . S
C737 C736 1.384 . S
C737 H759 0.929 . S
C738 O748 1.241 . S
C738 O749 1.273 . S
C739 O750 1.251 . S
C739 O751 1.268 . S
O740 Nd720 2.500 . S
O740 C722 1.258 . S
O741 Nd720 2.492 . S
O741 C722 1.239 . S
O742 Nd720 2.487 . S
O742 C729 1.241 . S
O743 Nd720 2.682 . S
O743 Nd721 2.414 . S
O743 C729 1.273 . S
O744 Nd720 2.410 . S
O744 C730 1.251 . S
O745 Nd721 2.424 . S
O745 C730 1.268 . S
O746 Nd721 2.500 . S
O746 C731 1.258 . S
O747 Nd721 2.492 . S
O747 C731 1.239 . S
O748 Nd721 2.487 . S
O748 C738 1.241 . S
O749 Nd720 2.414 . S
O749 Nd721 2.682 . S
O749 C738 1.273 . S
O750 Nd721 2.410 . S
O750 C739 1.251 . S
O751 Nd720 2.424 . S
O751 C739 1.268 . S
H752 C724 0.930 . S
H753 C725 0.929 . S
H754 C727 0.930 . S
H755 C728 0.929 . S
H756 C733 0.930 . S
H757 C734 0.929 . S
H758 C736 0.930 . S
H759 C737 0.929 . S
Nd760 C762 2.836 . S
Nd760 O780 2.500 . S
Nd760 O781 2.492 . S
Nd760 O782 2.487 . S
Nd760 O783 2.682 . S
Nd760 O784 2.410 . S
Nd760 O789 2.414 . S
Nd760 O791 2.424 . S
Nd761 C771 2.836 . S
Nd761 O783 2.414 . S
Nd761 O785 2.424 . S
Nd761 O786 2.500 . S
Nd761 O787 2.492 . S
Nd761 O788 2.487 . S
Nd761 O789 2.682 . S
Nd761 O790 2.410 . S
C762 Nd760 2.836 . S
C762 C763 1.498 . S
C762 O780 1.258 . S
C762 O781 1.239 . S
C763 C762 1.498 . S
C763 C764 1.366 . S
C763 C768 1.407 . S
C764 C763 1.366 . S
C764 C765 1.392 . S
C764 H792 0.930 . S
C765 C764 1.392 . S
C765 C766 1.398 . S
C765 H793 0.929 . S
C766 C765 1.398 . S
C766 C767 1.352 . S
C767 C766 1.352 . S
C767 C768 1.384 . S
C767 H794 0.930 . S
C768 C763 1.407 . S
C768 C767 1.384 . S
C768 H795 0.929 . S
C769 O782 1.241 . S
C769 O783 1.273 . S
C770 O784 1.251 . S
C770 O785 1.268 . S
C771 Nd761 2.836 . S
C771 C772 1.498 . S
C771 O786 1.258 . S
C771 O787 1.239 . S
C772 C771 1.498 . S
C772 C773 1.366 . S
C772 C777 1.407 . S
C773 C772 1.366 . S
C773 C774 1.392 . S
C773 H796 0.930 . S
C774 C773 1.392 . S
C774 C775 1.398 . S
C774 H797 0.929 . S
C775 C774 1.398 . S
C775 C776 1.352 . S
C776 C775 1.352 . S
C776 C777 1.384 . S
C776 H798 0.930 . S
C777 C772 1.407 . S
C777 C776 1.384 . S
C777 H799 0.929 . S
C778 O788 1.241 . S
C778 O789 1.273 . S
C779 O790 1.251 . S
C779 O791 1.268 . S
O780 Nd760 2.500 . S
O780 C762 1.258 . S
O781 Nd760 2.492 . S
O781 C762 1.239 . S
O782 Nd760 2.487 . S
O782 C769 1.241 . S
O783 Nd760 2.682 . S
O783 Nd761 2.414 . S
O783 C769 1.273 . S
O784 Nd760 2.410 . S
O784 C770 1.251 . S
O785 Nd761 2.424 . S
O785 C770 1.268 . S
O786 Nd761 2.500 . S
O786 C771 1.258 . S
O787 Nd761 2.492 . S
O787 C771 1.239 . S
O788 Nd761 2.487 . S
O788 C778 1.241 . S
O789 Nd760 2.414 . S
O789 Nd761 2.682 . S
O789 C778 1.273 . S
O790 Nd761 2.410 . S
O790 C779 1.251 . S
O791 Nd760 2.424 . S
O791 C779 1.268 . S
H792 C764 0.930 . S
H793 C765 0.929 . S
H794 C767 0.930 . S
H795 C768 0.929 . S
H796 C773 0.930 . S
H797 C774 0.929 . S
H798 C776 0.930 . S
H799 C777 0.929 . S
Nd800 C802 2.836 . S
Nd800 O820 2.500 . S
Nd800 O821 2.492 . S
Nd800 O822 2.487 . S
Nd800 O823 2.682 . S
Nd800 O824 2.410 . S
Nd800 O829 2.414 . S
Nd800 O831 2.424 . S
Nd801 C811 2.836 . S
Nd801 O823 2.414 . S
Nd801 O825 2.424 . S
Nd801 O826 2.500 . S
Nd801 O827 2.492 . S
Nd801 O828 2.487 . S
Nd801 O829 2.682 . S
Nd801 O830 2.410 . S
C802 Nd800 2.836 . S
C802 C803 1.498 . S
C802 O820 1.258 . S
C802 O821 1.239 . S
C803 C802 1.498 . S
C803 C804 1.366 . S
C803 C808 1.407 . S
C804 C803 1.366 . S
C804 C805 1.392 . S
C804 H832 0.930 . S
C805 C804 1.392 . S
C805 C806 1.398 . S
C805 H833 0.929 . S
C806 C805 1.398 . S
C806 C807 1.352 . S
C807 C806 1.352 . S
C807 C808 1.384 . S
C807 H834 0.930 . S
C808 C803 1.407 . S
C808 C807 1.384 . S
C808 H835 0.929 . S
C809 O822 1.241 . S
C809 O823 1.273 . S
C810 O824 1.251 . S
C810 O825 1.268 . S
C811 Nd801 2.836 . S
C811 C812 1.498 . S
C811 O826 1.258 . S
C811 O827 1.239 . S
C812 C811 1.498 . S
C812 C813 1.366 . S
C812 C817 1.407 . S
C813 C812 1.366 . S
C813 C814 1.392 . S
C813 H836 0.930 . S
C814 C813 1.392 . S
C814 C815 1.398 . S
C814 H837 0.929 . S
C815 C814 1.398 . S
C815 C816 1.352 . S
C816 C815 1.352 . S
C816 C817 1.384 . S
C816 H838 0.930 . S
C817 C812 1.407 . S
C817 C816 1.384 . S
C817 H839 0.929 . S
C818 O828 1.241 . S
C818 O829 1.273 . S
C819 O830 1.251 . S
C819 O831 1.268 . S
O820 Nd800 2.500 . S
O820 C802 1.258 . S
O821 Nd800 2.492 . S
O821 C802 1.239 . S
O822 Nd800 2.487 . S
O822 C809 1.241 . S
O823 Nd800 2.682 . S
O823 Nd801 2.414 . S
O823 C809 1.273 . S
O824 Nd800 2.410 . S
O824 C810 1.251 . S
O825 Nd801 2.424 . S
O825 C810 1.268 . S
O826 Nd801 2.500 . S
O826 C811 1.258 . S
O827 Nd801 2.492 . S
O827 C811 1.239 . S
O828 Nd801 2.487 . S
O828 C818 1.241 . S
O829 Nd800 2.414 . S
O829 Nd801 2.682 . S
O829 C818 1.273 . S
O830 Nd801 2.410 . S
O830 C819 1.251 . S
O831 Nd800 2.424 . S
O831 C819 1.268 . S
H832 C804 0.930 . S
H833 C805 0.929 . S
H834 C807 0.930 . S
H835 C808 0.929 . S
H836 C813 0.930 . S
H837 C814 0.929 . S
H838 C816 0.930 . S
H839 C817 0.929 . S
Nd840 C842 2.836 . S
Nd840 O860 2.500 . S
Nd840 O861 2.492 . S
Nd840 O862 2.487 . S
Nd840 O863 2.682 . S
Nd840 O864 2.410 . S
Nd840 O869 2.414 . S
Nd840 O871 2.424 . S
Nd841 C851 2.836 . S
Nd841 O863 2.414 . S
Nd841 O865 2.424 . S
Nd841 O866 2.500 . S
Nd841 O867 2.492 . S
Nd841 O868 2.487 . S
Nd841 O869 2.682 . S
Nd841 O870 2.410 . S
C842 Nd840 2.836 . S
C842 C843 1.498 . S
C842 O860 1.258 . S
C842 O861 1.239 . S
C843 C842 1.498 . S
C843 C844 1.366 . S
C843 C848 1.407 . S
C844 C843 1.366 . S
C844 C845 1.392 . S
C844 H872 0.930 . S
C845 C844 1.392 . S
C845 C846 1.398 . S
C845 H873 0.929 . S
C846 C845 1.398 . S
C846 C847 1.352 . S
C847 C846 1.352 . S
C847 C848 1.384 . S
C847 H874 0.930 . S
C848 C843 1.407 . S
C848 C847 1.384 . S
C848 H875 0.929 . S
C849 O862 1.241 . S
C849 O863 1.273 . S
C850 O864 1.251 . S
C850 O865 1.268 . S
C851 Nd841 2.836 . S
C851 C852 1.498 . S
C851 O866 1.258 . S
C851 O867 1.239 . S
C852 C851 1.498 . S
C852 C853 1.366 . S
C852 C857 1.407 . S
C853 C852 1.366 . S
C853 C854 1.392 1_556 S
C853 H876 0.930 . S
C854 C853 1.392 1_554 S
C854 C855 1.398 . S
C854 H877 0.929 . S
C855 C854 1.398 . S
C855 C856 1.352 . S
C856 C855 1.352 . S
C856 C857 1.384 1_554 S
C856 H878 0.930 . S
C857 C852 1.407 . S
C857 C856 1.384 1_556 S
C857 H879 0.929 . S
C858 O868 1.241 . S
C858 O869 1.273 . S
C859 O870 1.251 . S
C859 O871 1.268 . S
O860 Nd840 2.500 . S
O860 C842 1.258 . S
O861 Nd840 2.492 . S
O861 C842 1.239 . S
O862 Nd840 2.487 . S
O862 C849 1.241 . S
O863 Nd840 2.682 . S
O863 Nd841 2.414 . S
O863 C849 1.273 . S
O864 Nd840 2.410 . S
O864 C850 1.251 . S
O865 Nd841 2.424 . S
O865 C850 1.268 . S
O866 Nd841 2.500 . S
O866 C851 1.258 . S
O867 Nd841 2.492 . S
O867 C851 1.239 . S
O868 Nd841 2.487 . S
O868 C858 1.241 . S
O869 Nd840 2.414 . S
O869 Nd841 2.682 . S
O869 C858 1.273 . S
O870 Nd841 2.410 . S
O870 C859 1.251 . S
O871 Nd840 2.424 . S
O871 C859 1.268 . S
H872 C844 0.930 . S
H873 C845 0.929 . S
H874 C847 0.930 . S
H875 C848 0.929 . S
H876 C853 0.930 . S
H877 C854 0.929 . S
H878 C856 0.930 . S
H879 C857 0.929 . S
Nd880 C882 2.836 . S
Nd880 O900 2.500 . S
Nd880 O901 2.492 . S
Nd880 O902 2.487 . S
Nd880 O903 2.682 . S
Nd880 O904 2.410 . S
Nd880 O909 2.414 . S
Nd880 O911 2.424 . S
Nd881 C891 2.836 . S
Nd881 O903 2.414 . S
Nd881 O905 2.424 . S
Nd881 O906 2.500 . S
Nd881 O907 2.492 . S
Nd881 O908 2.487 . S
Nd881 O909 2.682 . S
Nd881 O910 2.410 . S
C882 Nd880 2.836 . S
C882 C883 1.498 . S
C882 O900 1.258 . S
C882 O901 1.239 . S
C883 C882 1.498 . S
C883 C884 1.366 . S
C883 C888 1.407 . S
C884 C883 1.366 . S
C884 C885 1.392 . S
C884 H912 0.930 . S
C885 C884 1.392 . S
C885 C886 1.398 . S
C885 H913 0.929 . S
C886 C885 1.398 . S
C886 C887 1.352 . S
C887 C886 1.352 . S
C887 C888 1.384 . S
C887 H914 0.930 . S
C888 C883 1.407 . S
C888 C887 1.384 . S
C888 H915 0.929 . S
C889 O902 1.241 . S
C889 O903 1.273 . S
C890 O904 1.251 . S
C890 O905 1.268 . S
C891 Nd881 2.836 . S
C891 C892 1.498 . S
C891 O906 1.258 . S
C891 O907 1.239 . S
C892 C891 1.498 . S
C892 C893 1.366 . S
C892 C897 1.407 . S
C893 C892 1.366 . S
C893 C894 1.392 1_556 S
C893 H916 0.930 . S
C894 C893 1.392 1_554 S
C894 C895 1.398 . S
C894 H917 0.929 . S
C895 C894 1.398 . S
C895 C896 1.352 . S
C896 C895 1.352 . S
C896 C897 1.384 1_554 S
C896 H918 0.930 . S
C897 C892 1.407 . S
C897 C896 1.384 1_556 S
C897 H919 0.929 . S
C898 O908 1.241 . S
C898 O909 1.273 . S
C899 O910 1.251 . S
C899 O911 1.268 . S
O900 Nd880 2.500 . S
O900 C882 1.258 . S
O901 Nd880 2.492 . S
O901 C882 1.239 . S
O902 Nd880 2.487 . S
O902 C889 1.241 . S
O903 Nd880 2.682 . S
O903 Nd881 2.414 . S
O903 C889 1.273 . S
O904 Nd880 2.410 . S
O904 C890 1.251 . S
O905 Nd881 2.424 . S
O905 C890 1.268 . S
O906 Nd881 2.500 . S
O906 C891 1.258 . S
O907 Nd881 2.492 . S
O907 C891 1.239 . S
O908 Nd881 2.487 . S
O908 C898 1.241 . S
O909 Nd880 2.414 . S
O909 Nd881 2.682 . S
O909 C898 1.273 . S
O910 Nd881 2.410 . S
O910 C899 1.251 . S
O911 Nd880 2.424 . S
O911 C899 1.268 . S
H912 C884 0.930 . S
H913 C885 0.929 . S
H914 C887 0.930 . S
H915 C888 0.929 . S
H916 C893 0.930 . S
H917 C894 0.929 . S
H918 C896 0.930 . S
H919 C897 0.929 . S
Nd920 C922 2.836 . S
Nd920 O940 2.500 . S
Nd920 O941 2.492 . S
Nd920 O942 2.487 . S
Nd920 O943 2.682 . S
Nd920 O944 2.410 . S
Nd920 O949 2.414 . S
Nd920 O951 2.424 . S
Nd921 C931 2.836 . S
Nd921 O943 2.414 . S
Nd921 O945 2.424 . S
Nd921 O946 2.500 . S
Nd921 O947 2.492 . S
Nd921 O948 2.487 . S
Nd921 O949 2.682 . S
Nd921 O950 2.410 . S
C922 Nd920 2.836 . S
C922 C923 1.498 . S
C922 O940 1.258 . S
C922 O941 1.239 . S
C923 C922 1.498 . S
C923 C924 1.366 . S
C923 C928 1.407 . S
C924 C923 1.366 . S
C924 C925 1.392 . S
C924 H952 0.930 . S
C925 C924 1.392 . S
C925 C926 1.398 . S
C925 H953 0.929 . S
C926 C925 1.398 . S
C926 C927 1.352 . S
C927 C926 1.352 . S
C927 C928 1.384 . S
C927 H954 0.930 . S
C928 C923 1.407 . S
C928 C927 1.384 . S
C928 H955 0.929 . S
C929 O942 1.241 . S
C929 O943 1.273 . S
C930 O944 1.251 . S
C930 O945 1.268 . S
C931 Nd921 2.836 . S
C931 C932 1.498 . S
C931 O946 1.258 . S
C931 O947 1.239 . S
C932 C931 1.498 . S
C932 C933 1.366 . S
C932 C937 1.407 . S
C933 C932 1.366 . S
C933 C934 1.392 1_556 S
C933 H956 0.930 . S
C934 C933 1.392 1_554 S
C934 C935 1.398 . S
C934 H957 0.929 . S
C935 C934 1.398 . S
C935 C936 1.352 . S
C936 C935 1.352 . S
C936 C937 1.384 1_554 S
C936 H958 0.930 . S
C937 C932 1.407 . S
C937 C936 1.384 1_556 S
C937 H959 0.929 . S
C938 O948 1.241 . S
C938 O949 1.273 . S
C939 O950 1.251 . S
C939 O951 1.268 . S
O940 Nd920 2.500 . S
O940 C922 1.258 . S
O941 Nd920 2.492 . S
O941 C922 1.239 . S
O942 Nd920 2.487 . S
O942 C929 1.241 . S
O943 Nd920 2.682 . S
O943 Nd921 2.414 . S
O943 C929 1.273 . S
O944 Nd920 2.410 . S
O944 C930 1.251 . S
O945 Nd921 2.424 . S
O945 C930 1.268 . S
O946 Nd921 2.500 . S
O946 C931 1.258 . S
O947 Nd921 2.492 . S
O947 C931 1.239 . S
O948 Nd921 2.487 . S
O948 C938 1.241 . S
O949 Nd920 2.414 . S
O949 Nd921 2.682 . S
O949 C938 1.273 . S
O950 Nd921 2.410 . S
O950 C939 1.251 . S
O951 Nd920 2.424 . S
O951 C939 1.268 . S
H952 C924 0.930 . S
H953 C925 0.929 . S
H954 C927 0.930 . S
H955 C928 0.929 . S
H956 C933 0.930 . S
H957 C934 0.929 . S
H958 C936 0.930 . S
H959 C937 0.929 . S
Nd960 C962 2.836 . S
Nd960 O980 2.500 . S
Nd960 O981 2.492 . S
Nd960 O982 2.487 . S
Nd960 O983 2.682 . S
Nd960 O984 2.410 . S
Nd960 O989 2.414 . S
Nd960 O991 2.424 . S
Nd961 C971 2.836 . S
Nd961 O983 2.414 . S
Nd961 O985 2.424 . S
Nd961 O986 2.500 . S
Nd961 O987 2.492 . S
Nd961 O988 2.487 . S
Nd961 O989 2.682 . S
Nd961 O990 2.410 . S
C962 Nd960 2.836 . S
C962 C963 1.498 . S
C962 O980 1.258 . S
C962 O981 1.239 . S
C963 C962 1.498 . S
C963 C964 1.366 . S
C963 C968 1.407 . S
C964 C963 1.366 . S
C964 C965 1.392 . S
C964 H992 0.930 . S
C965 C964 1.392 . S
C965 C966 1.398 . S
C965 H993 0.929 . S
C966 C965 1.398 . S
C966 C967 1.352 . S
C967 C966 1.352 . S
C967 C968 1.384 . S
C967 H994 0.930 . S
C968 C963 1.407 . S
C968 C967 1.384 . S
C968 H995 0.929 . S
C969 O982 1.241 . S
C969 O983 1.273 . S
C970 O984 1.251 . S
C970 O985 1.268 . S
C971 Nd961 2.836 . S
C971 C972 1.498 . S
C971 O986 1.258 . S
C971 O987 1.239 . S
C972 C971 1.498 . S
C972 C973 1.366 . S
C972 C977 1.407 . S
C973 C972 1.366 . S
C973 C974 1.392 . S
C973 H996 0.930 . S
C974 C973 1.392 . S
C974 C975 1.398 . S
C974 H997 0.929 . S
C975 C974 1.398 . S
C975 C976 1.352 . S
C976 C975 1.352 . S
C976 C977 1.384 . S
C976 H998 0.930 . S
C977 C972 1.407 . S
C977 C976 1.384 . S
C977 H999 0.929 . S
C978 O988 1.241 . S
C978 O989 1.273 . S
C979 O990 1.251 . S
C979 O991 1.268 . S
O980 Nd960 2.500 . S
O980 C962 1.258 . S
O981 Nd960 2.492 . S
O981 C962 1.239 . S
O982 Nd960 2.487 . S
O982 C969 1.241 . S
O983 Nd960 2.682 . S
O983 Nd961 2.414 . S
O983 C969 1.273 . S
O984 Nd960 2.410 . S
O984 C970 1.251 . S
O985 Nd961 2.424 . S
O985 C970 1.268 . S
O986 Nd961 2.500 . S
O986 C971 1.258 . S
O987 Nd961 2.492 . S
O987 C971 1.239 . S
O988 Nd961 2.487 . S
O988 C978 1.241 . S
O989 Nd960 2.414 . S
O989 Nd961 2.682 . S
O989 C978 1.273 . S
O990 Nd961 2.410 . S
O990 C979 1.251 . S
O991 Nd960 2.424 . S
O991 C979 1.268 . S
H992 C964 0.930 . S
H993 C965 0.929 . S
H994 C967 0.930 . S
H995 C968 0.929 . S
H996 C973 0.930 . S
H997 C974 0.929 . S
H998 C976 0.930 . S
H999 C977 0.929 . S
Nd1000 C1002 2.836 . S
Nd1000 O1020 2.500 . S
Nd1000 O1021 2.492 . S
Nd1000 O1022 2.487 . S
Nd1000 O1023 2.682 . S
Nd1000 O1024 2.410 . S
Nd1000 O1029 2.414 . S
Nd1000 O1031 2.424 . S
Nd1001 C1011 2.836 . S
Nd1001 O1023 2.414 . S
Nd1001 O1025 2.424 . S
Nd1001 O1026 2.500 . S
Nd1001 O1027 2.492 . S
Nd1001 O1028 2.487 . S
Nd1001 O1029 2.682 . S
Nd1001 O1030 2.410 . S
C1002 Nd1000 2.836 . S
C1002 C1003 1.498 . S
C1002 O1020 1.258 . S
C1002 O1021 1.239 . S
C1003 C1002 1.498 . S
C1003 C1004 1.366 . S
C1003 C1008 1.407 . S
C1004 C1003 1.366 . S
C1004 C1005 1.392 . S
C1004 H1032 0.930 . S
C1005 C1004 1.392 . S
C1005 C1006 1.398 . S
C1005 H1033 0.929 . S
C1006 C1005 1.398 . S
C1006 C1007 1.352 . S
C1007 C1006 1.352 . S
C1007 C1008 1.384 . S
C1007 H1034 0.930 . S
C1008 C1003 1.407 . S
C1008 C1007 1.384 . S
C1008 H1035 0.929 . S
C1009 O1022 1.241 . S
C1009 O1023 1.273 . S
C1010 O1024 1.251 . S
C1010 O1025 1.268 . S
C1011 Nd1001 2.836 . S
C1011 C1012 1.498 . S
C1011 O1026 1.258 . S
C1011 O1027 1.239 . S
C1012 C1011 1.498 . S
C1012 C1013 1.366 . S
C1012 C1017 1.407 . S
C1013 C1012 1.366 . S
C1013 C1014 1.392 . S
C1013 H1036 0.930 . S
C1014 C1013 1.392 . S
C1014 C1015 1.398 . S
C1014 H1037 0.929 . S
C1015 C1014 1.398 . S
C1015 C1016 1.352 . S
C1016 C1015 1.352 . S
C1016 C1017 1.384 . S
C1016 H1038 0.930 . S
C1017 C1012 1.407 . S
C1017 C1016 1.384 . S
C1017 H1039 0.929 . S
C1018 O1028 1.241 . S
C1018 O1029 1.273 . S
C1019 O1030 1.251 . S
C1019 O1031 1.268 . S
O1020 Nd1000 2.500 . S
O1020 C1002 1.258 . S
O1021 Nd1000 2.492 . S
O1021 C1002 1.239 . S
O1022 Nd1000 2.487 . S
O1022 C1009 1.241 . S
O1023 Nd1000 2.682 . S
O1023 Nd1001 2.414 . S
O1023 C1009 1.273 . S
O1024 Nd1000 2.410 . S
O1024 C1010 1.251 . S
O1025 Nd1001 2.424 . S
O1025 C1010 1.268 . S
O1026 Nd1001 2.500 . S
O1026 C1011 1.258 . S
O1027 Nd1001 2.492 . S
O1027 C1011 1.239 . S
O1028 Nd1001 2.487 . S
O1028 C1018 1.241 . S
O1029 Nd1000 2.414 . S
O1029 Nd1001 2.682 . S
O1029 C1018 1.273 . S
O1030 Nd1001 2.410 . S
O1030 C1019 1.251 . S
O1031 Nd1000 2.424 . S
O1031 C1019 1.268 . S
H1032 C1004 0.930 . S
H1033 C1005 0.929 . S
H1034 C1007 0.930 . S
H1035 C1008 0.929 . S
H1036 C1013 0.930 . S
H1037 C1014 0.929 . S
H1038 C1016 0.930 . S
H1039 C1017 0.929 . S
Nd1040 C1042 2.836 . S
Nd1040 O1060 2.500 . S
Nd1040 O1061 2.492 . S
Nd1040 O1062 2.487 . S
Nd1040 O1063 2.682 . S
Nd1040 O1064 2.410 . S
Nd1040 O1069 2.414 . S
Nd1040 O1071 2.424 . S
Nd1041 C1051 2.836 . S
Nd1041 O1063 2.414 . S
Nd1041 O1065 2.424 . S
Nd1041 O1066 2.500 . S
Nd1041 O1067 2.492 . S
Nd1041 O1068 2.487 . S
Nd1041 O1069 2.682 . S
Nd1041 O1070 2.410 . S
C1042 Nd1040 2.836 . S
C1042 C1043 1.498 . S
C1042 O1060 1.258 . S
C1042 O1061 1.239 . S
C1043 C1042 1.498 . S
C1043 C1044 1.366 . S
C1043 C1048 1.407 . S
C1044 C1043 1.366 . S
C1044 C1045 1.392 . S
C1044 H1072 0.930 . S
C1045 C1044 1.392 . S
C1045 C1046 1.398 . S
C1045 H1073 0.929 . S
C1046 C1045 1.398 . S
C1046 C1047 1.352 . S
C1047 C1046 1.352 . S
C1047 C1048 1.384 . S
C1047 H1074 0.930 . S
C1048 C1043 1.407 . S
C1048 C1047 1.384 . S
C1048 H1075 0.929 . S
C1049 O1062 1.241 . S
C1049 O1063 1.273 . S
C1050 O1064 1.251 . S
C1050 O1065 1.268 . S
C1051 Nd1041 2.836 . S
C1051 C1052 1.498 . S
C1051 O1066 1.258 . S
C1051 O1067 1.239 . S
C1052 C1051 1.498 . S
C1052 C1053 1.366 . S
C1052 C1057 1.407 . S
C1053 C1052 1.366 . S
C1053 C1054 1.392 . S
C1053 H1076 0.930 . S
C1054 C1053 1.392 . S
C1054 C1055 1.398 . S
C1054 H1077 0.929 . S
C1055 C1054 1.398 . S
C1055 C1056 1.352 . S
C1056 C1055 1.352 . S
C1056 C1057 1.384 . S
C1056 H1078 0.930 . S
C1057 C1052 1.407 . S
C1057 C1056 1.384 . S
C1057 H1079 0.929 . S
C1058 O1068 1.241 . S
C1058 O1069 1.273 . S
C1059 O1070 1.251 . S
C1059 O1071 1.268 . S
O1060 Nd1040 2.500 . S
O1060 C1042 1.258 . S
O1061 Nd1040 2.492 . S
O1061 C1042 1.239 . S
O1062 Nd1040 2.487 . S
O1062 C1049 1.241 . S
O1063 Nd1040 2.682 . S
O1063 Nd1041 2.414 . S
O1063 C1049 1.273 . S
O1064 Nd1040 2.410 . S
O1064 C1050 1.251 . S
O1065 Nd1041 2.424 . S
O1065 C1050 1.268 . S
O1066 Nd1041 2.500 . S
O1066 C1051 1.258 . S
O1067 Nd1041 2.492 . S
O1067 C1051 1.239 . S
O1068 Nd1041 2.487 . S
O1068 C1058 1.241 . S
O1069 Nd1040 2.414 . S
O1069 Nd1041 2.682 . S
O1069 C1058 1.273 . S
O1070 Nd1041 2.410 . S
O1070 C1059 1.251 . S
O1071 Nd1040 2.424 . S
O1071 C1059 1.268 . S
H1072 C1044 0.930 . S
H1073 C1045 0.929 . S
H1074 C1047 0.930 . S
H1075 C1048 0.929 . S
H1076 C1053 0.930 . S
H1077 C1054 0.929 . S
H1078 C1056 0.930 . S
H1079 C1057 0.929 . S
Nd1080 C1082 2.836 . S
Nd1080 O1100 2.500 . S
Nd1080 O1101 2.492 . S
Nd1080 O1102 2.487 . S
Nd1080 O1103 2.682 . S
Nd1080 O1104 2.410 . S
Nd1080 O1109 2.414 . S
Nd1080 O1111 2.424 . S
Nd1081 C1091 2.836 . S
Nd1081 O1103 2.414 . S
Nd1081 O1105 2.424 . S
Nd1081 O1106 2.500 . S
Nd1081 O1107 2.492 . S
Nd1081 O1108 2.487 . S
Nd1081 O1109 2.682 . S
Nd1081 O1110 2.410 . S
C1082 Nd1080 2.836 . S
C1082 C1083 1.498 . S
C1082 O1100 1.258 . S
C1082 O1101 1.239 . S
C1083 C1082 1.498 . S
C1083 C1084 1.366 . S
C1083 C1088 1.407 . S
C1084 C1083 1.366 . S
C1084 C1085 1.392 . S
C1084 H1112 0.930 . S
C1085 C1084 1.392 . S
C1085 C1086 1.398 . S
C1085 H1113 0.929 . S
C1086 C1085 1.398 . S
C1086 C1087 1.352 . S
C1087 C1086 1.352 . S
C1087 C1088 1.384 . S
C1087 H1114 0.930 . S
C1088 C1083 1.407 . S
C1088 C1087 1.384 . S
C1088 H1115 0.929 . S
C1089 O1102 1.241 . S
C1089 O1103 1.273 . S
C1090 O1104 1.251 . S
C1090 O1105 1.268 . S
C1091 Nd1081 2.836 . S
C1091 C1092 1.498 . S
C1091 O1106 1.258 . S
C1091 O1107 1.239 . S
C1092 C1091 1.498 . S
C1092 C1093 1.366 . S
C1092 C1097 1.407 . S
C1093 C1092 1.366 . S
C1093 C1094 1.392 . S
C1093 H1116 0.930 . S
C1094 C1093 1.392 . S
C1094 C1095 1.398 . S
C1094 H1117 0.929 . S
C1095 C1094 1.398 . S
C1095 C1096 1.352 . S
C1096 C1095 1.352 . S
C1096 C1097 1.384 . S
C1096 H1118 0.930 . S
C1097 C1092 1.407 . S
C1097 C1096 1.384 . S
C1097 H1119 0.929 . S
C1098 O1108 1.241 . S
C1098 O1109 1.273 . S
C1099 O1110 1.251 . S
C1099 O1111 1.268 . S
O1100 Nd1080 2.500 . S
O1100 C1082 1.258 . S
O1101 Nd1080 2.492 . S
O1101 C1082 1.239 . S
O1102 Nd1080 2.487 . S
O1102 C1089 1.241 . S
O1103 Nd1080 2.682 . S
O1103 Nd1081 2.414 . S
O1103 C1089 1.273 . S
O1104 Nd1080 2.410 . S
O1104 C1090 1.251 . S
O1105 Nd1081 2.424 . S
O1105 C1090 1.268 . S
O1106 Nd1081 2.500 . S
O1106 C1091 1.258 . S
O1107 Nd1081 2.492 . S
O1107 C1091 1.239 . S
O1108 Nd1081 2.487 . S
O1108 C1098 1.241 . S
O1109 Nd1080 2.414 . S
O1109 Nd1081 2.682 . S
O1109 C1098 1.273 . S
O1110 Nd1081 2.410 . S
O1110 C1099 1.251 . S
O1111 Nd1080 2.424 . S
O1111 C1099 1.268 . S
H1112 C1084 0.930 . S
H1113 C1085 0.929 . S
H1114 C1087 0.930 . S
H1115 C1088 0.929 . S
H1116 C1093 0.930 . S
H1117 C1094 0.929 . S
H1118 C1096 0.930 . S
H1119 C1097 0.929 . S
Nd1120 C1122 2.836 . S
Nd1120 O1140 2.500 . S
Nd1120 O1141 2.492 . S
Nd1120 O1142 2.487 . S
Nd1120 O1143 2.682 . S
Nd1120 O1144 2.410 . S
Nd1120 O1149 2.414 . S
Nd1120 O1151 2.424 . S
Nd1121 C1131 2.836 . S
Nd1121 O1143 2.414 . S
Nd1121 O1145 2.424 . S
Nd1121 O1146 2.500 . S
Nd1121 O1147 2.492 . S
Nd1121 O1148 2.487 . S
Nd1121 O1149 2.682 . S
Nd1121 O1150 2.410 . S
C1122 Nd1120 2.836 . S
C1122 C1123 1.498 . S
C1122 O1140 1.258 . S
C1122 O1141 1.239 . S
C1123 C1122 1.498 . S
C1123 C1124 1.366 . S
C1123 C1128 1.407 . S
C1124 C1123 1.366 . S
C1124 C1125 1.392 . S
C1124 H1152 0.930 . S
C1125 C1124 1.392 . S
C1125 C1126 1.398 . S
C1125 H1153 0.929 . S
C1126 C1125 1.398 . S
C1126 C1127 1.352 . S
C1127 C1126 1.352 . S
C1127 C1128 1.384 . S
C1127 H1154 0.930 . S
C1128 C1123 1.407 . S
C1128 C1127 1.384 . S
C1128 H1155 0.929 . S
C1129 O1142 1.241 . S
C1129 O1143 1.273 . S
C1130 O1144 1.251 . S
C1130 O1145 1.268 . S
C1131 Nd1121 2.836 . S
C1131 C1132 1.498 . S
C1131 O1146 1.258 . S
C1131 O1147 1.239 . S
C1132 C1131 1.498 . S
C1132 C1133 1.366 . S
C1132 C1137 1.407 . S
C1133 C1132 1.366 . S
C1133 C1134 1.392 . S
C1133 H1156 0.930 . S
C1134 C1133 1.392 . S
C1134 C1135 1.398 . S
C1134 H1157 0.929 . S
C1135 C1134 1.398 . S
C1135 C1136 1.352 . S
C1136 C1135 1.352 . S
C1136 C1137 1.384 . S
C1136 H1158 0.930 . S
C1137 C1132 1.407 . S
C1137 C1136 1.384 . S
C1137 H1159 0.929 . S
C1138 O1148 1.241 . S
C1138 O1149 1.273 . S
C1139 O1150 1.251 . S
C1139 O1151 1.268 . S
O1140 Nd1120 2.500 . S
O1140 C1122 1.258 . S
O1141 Nd1120 2.492 . S
O1141 C1122 1.239 . S
O1142 Nd1120 2.487 . S
O1142 C1129 1.241 . S
O1143 Nd1120 2.682 . S
O1143 Nd1121 2.414 . S
O1143 C1129 1.273 . S
O1144 Nd1120 2.410 . S
O1144 C1130 1.251 . S
O1145 Nd1121 2.424 . S
O1145 C1130 1.268 . S
O1146 Nd1121 2.500 . S
O1146 C1131 1.258 . S
O1147 Nd1121 2.492 . S
O1147 C1131 1.239 . S
O1148 Nd1121 2.487 . S
O1148 C1138 1.241 . S
O1149 Nd1120 2.414 . S
O1149 Nd1121 2.682 . S
O1149 C1138 1.273 . S
O1150 Nd1121 2.410 . S
O1150 C1139 1.251 . S
O1151 Nd1120 2.424 . S
O1151 C1139 1.268 . S
H1152 C1124 0.930 . S
H1153 C1125 0.929 . S
H1154 C1127 0.930 . S
H1155 C1128 0.929 . S
H1156 C1133 0.930 . S
H1157 C1134 0.929 . S
H1158 C1136 0.930 . S
H1159 C1137 0.929 . S
Nd1160 C1162 2.836 . S
Nd1160 O1180 2.500 . S
Nd1160 O1181 2.492 . S
Nd1160 O1182 2.487 . S
Nd1160 O1183 2.682 . S
Nd1160 O1184 2.410 . S
Nd1160 O1189 2.414 . S
Nd1160 O1191 2.424 . S
Nd1161 C1171 2.836 . S
Nd1161 O1183 2.414 . S
Nd1161 O1185 2.424 . S
Nd1161 O1186 2.500 . S
Nd1161 O1187 2.492 . S
Nd1161 O1188 2.487 . S
Nd1161 O1189 2.682 . S
Nd1161 O1190 2.410 . S
C1162 Nd1160 2.836 . S
C1162 C1163 1.498 . S
C1162 O1180 1.258 . S
C1162 O1181 1.239 . S
C1163 C1162 1.498 . S
C1163 C1164 1.366 . S
C1163 C1168 1.407 . S
C1164 C1163 1.366 . S
C1164 C1165 1.392 . S
C1164 H1192 0.930 . S
C1165 C1164 1.392 . S
C1165 C1166 1.398 . S
C1165 H1193 0.929 . S
C1166 C1165 1.398 . S
C1166 C1167 1.352 . S
C1167 C1166 1.352 . S
C1167 C1168 1.384 . S
C1167 H1194 0.930 . S
C1168 C1163 1.407 . S
C1168 C1167 1.384 . S
C1168 H1195 0.929 . S
C1169 O1182 1.241 . S
C1169 O1183 1.273 . S
C1170 O1184 1.251 . S
C1170 O1185 1.268 . S
C1171 Nd1161 2.836 . S
C1171 C1172 1.498 . S
C1171 O1186 1.258 . S
C1171 O1187 1.239 . S
C1172 C1171 1.498 . S
C1172 C1173 1.366 . S
C1172 C1177 1.407 . S
C1173 C1172 1.366 . S
C1173 C1174 1.392 . S
C1173 H1196 0.930 . S
C1174 C1173 1.392 . S
C1174 C1175 1.398 . S
C1174 H1197 0.929 . S
C1175 C1174 1.398 . S
C1175 C1176 1.352 . S
C1176 C1175 1.352 . S
C1176 C1177 1.384 . S
C1176 H1198 0.930 . S
C1177 C1172 1.407 . S
C1177 C1176 1.384 . S
C1177 H1199 0.929 . S
C1178 O1188 1.241 . S
C1178 O1189 1.273 . S
C1179 O1190 1.251 . S
C1179 O1191 1.268 . S
O1180 Nd1160 2.500 . S
O1180 C1162 1.258 . S
O1181 Nd1160 2.492 . S
O1181 C1162 1.239 . S
O1182 Nd1160 2.487 . S
O1182 C1169 1.241 . S
O1183 Nd1160 2.682 . S
O1183 Nd1161 2.414 . S
O1183 C1169 1.273 . S
O1184 Nd1160 2.410 . S
O1184 C1170 1.251 . S
O1185 Nd1161 2.424 . S
O1185 C1170 1.268 . S
O1186 Nd1161 2.500 . S
O1186 C1171 1.258 . S
O1187 Nd1161 2.492 . S
O1187 C1171 1.239 . S
O1188 Nd1161 2.487 . S
O1188 C1178 1.241 . S
O1189 Nd1160 2.414 . S
O1189 Nd1161 2.682 . S
O1189 C1178 1.273 . S
O1190 Nd1161 2.410 . S
O1190 C1179 1.251 . S
O1191 Nd1160 2.424 . S
O1191 C1179 1.268 . S
H1192 C1164 0.930 . S
H1193 C1165 0.929 . S
H1194 C1167 0.930 . S
H1195 C1168 0.929 . S
H1196 C1173 0.930 . S
H1197 C1174 0.929 . S
H1198 C1176 0.930 . S
H1199 C1177 0.929 . S
Nd1200 C1202 2.836 . S
Nd1200 O1220 2.500 . S
Nd1200 O1221 2.492 . S
Nd1200 O1222 2.487 . S
Nd1200 O1223 2.682 . S
Nd1200 O1224 2.410 . S
Nd1200 O1229 2.414 . S
Nd1200 O1231 2.424 . S
Nd1201 C1211 2.836 . S
Nd1201 O1223 2.414 . S
Nd1201 O1225 2.424 . S
Nd1201 O1226 2.500 . S
Nd1201 O1227 2.492 . S
Nd1201 O1228 2.487 . S
Nd1201 O1229 2.682 . S
Nd1201 O1230 2.410 . S
C1202 Nd1200 2.836 . S
C1202 C1203 1.498 . S
C1202 O1220 1.258 . S
C1202 O1221 1.239 . S
C1203 C1202 1.498 . S
C1203 C1204 1.366 . S
C1203 C1208 1.407 . S
C1204 C1203 1.366 . S
C1204 C1205 1.392 . S
C1204 H1232 0.930 . S
C1205 C1204 1.392 . S
C1205 C1206 1.398 1_556 S
C1205 H1233 0.929 1_556 S
C1206 C1205 1.398 1_554 S
C1206 C1207 1.352 1_554 S
C1207 C1206 1.352 1_556 S
C1207 C1208 1.384 . S
C1207 H1234 0.930 . S
C1208 C1203 1.407 . S
C1208 C1207 1.384 . S
C1208 H1235 0.929 . S
C1209 O1222 1.241 . S
C1209 O1223 1.273 . S
C1210 O1224 1.251 . S
C1210 O1225 1.268 . S
C1211 Nd1201 2.836 . S
C1211 C1212 1.498 . S
C1211 O1226 1.258 . S
C1211 O1227 1.239 . S
C1212 C1211 1.498 . S
C1212 C1213 1.366 . S
C1212 C1217 1.407 . S
C1213 C1212 1.366 . S
C1213 C1214 1.392 . S
C1213 H1236 0.930 . S
C1214 C1213 1.392 . S
C1214 C1215 1.398 . S
C1214 H1237 0.929 . S
C1215 C1214 1.398 . S
C1215 C1216 1.352 . S
C1216 C1215 1.352 . S
C1216 C1217 1.384 . S
C1216 H1238 0.930 . S
C1217 C1212 1.407 . S
C1217 C1216 1.384 . S
C1217 H1239 0.929 . S
C1218 O1228 1.241 . S
C1218 O1229 1.273 . S
C1219 O1230 1.251 . S
C1219 O1231 1.268 . S
O1220 Nd1200 2.500 . S
O1220 C1202 1.258 . S
O1221 Nd1200 2.492 . S
O1221 C1202 1.239 . S
O1222 Nd1200 2.487 . S
O1222 C1209 1.241 . S
O1223 Nd1200 2.682 . S
O1223 Nd1201 2.414 . S
O1223 C1209 1.273 . S
O1224 Nd1200 2.410 . S
O1224 C1210 1.251 . S
O1225 Nd1201 2.424 . S
O1225 C1210 1.268 . S
O1226 Nd1201 2.500 . S
O1226 C1211 1.258 . S
O1227 Nd1201 2.492 . S
O1227 C1211 1.239 . S
O1228 Nd1201 2.487 . S
O1228 C1218 1.241 . S
O1229 Nd1200 2.414 . S
O1229 Nd1201 2.682 . S
O1229 C1218 1.273 . S
O1230 Nd1201 2.410 . S
O1230 C1219 1.251 . S
O1231 Nd1200 2.424 . S
O1231 C1219 1.268 . S
H1232 C1204 0.930 . S
H1233 C1205 0.929 1_554 S
H1234 C1207 0.930 . S
H1235 C1208 0.929 . S
H1236 C1213 0.930 . S
H1237 C1214 0.929 . S
H1238 C1216 0.930 . S
H1239 C1217 0.929 . S
Nd1240 C1242 2.836 . S
Nd1240 O1260 2.500 . S
Nd1240 O1261 2.492 . S
Nd1240 O1262 2.487 . S
Nd1240 O1263 2.682 . S
Nd1240 O1264 2.410 . S
Nd1240 O1269 2.414 . S
Nd1240 O1271 2.424 . S
Nd1241 C1251 2.836 . S
Nd1241 O1263 2.414 . S
Nd1241 O1265 2.424 . S
Nd1241 O1266 2.500 . S
Nd1241 O1267 2.492 . S
Nd1241 O1268 2.487 . S
Nd1241 O1269 2.682 . S
Nd1241 O1270 2.410 . S
C1242 Nd1240 2.836 . S
C1242 C1243 1.498 . S
C1242 O1260 1.258 . S
C1242 O1261 1.239 . S
C1243 C1242 1.498 . S
C1243 C1244 1.366 . S
C1243 C1248 1.407 . S
C1244 C1243 1.366 . S
C1244 C1245 1.392 . S
C1244 H1272 0.930 . S
C1245 C1244 1.392 . S
C1245 C1246 1.398 1_556 S
C1245 H1273 0.929 1_556 S
C1246 C1245 1.398 1_554 S
C1246 C1247 1.352 1_554 S
C1247 C1246 1.352 1_556 S
C1247 C1248 1.384 . S
C1247 H1274 0.930 . S
C1248 C1243 1.407 . S
C1248 C1247 1.384 . S
C1248 H1275 0.929 . S
C1249 O1262 1.241 . S
C1249 O1263 1.273 . S
C1250 O1264 1.251 . S
C1250 O1265 1.268 . S
C1251 Nd1241 2.836 . S
C1251 C1252 1.498 . S
C1251 O1266 1.258 . S
C1251 O1267 1.239 . S
C1252 C1251 1.498 . S
C1252 C1253 1.366 . S
C1252 C1257 1.407 . S
C1253 C1252 1.366 . S
C1253 C1254 1.392 . S
C1253 H1276 0.930 . S
C1254 C1253 1.392 . S
C1254 C1255 1.398 . S
C1254 H1277 0.929 . S
C1255 C1254 1.398 . S
C1255 C1256 1.352 . S
C1256 C1255 1.352 . S
C1256 C1257 1.384 . S
C1256 H1278 0.930 . S
C1257 C1252 1.407 . S
C1257 C1256 1.384 . S
C1257 H1279 0.929 . S
C1258 O1268 1.241 . S
C1258 O1269 1.273 . S
C1259 O1270 1.251 . S
C1259 O1271 1.268 . S
O1260 Nd1240 2.500 . S
O1260 C1242 1.258 . S
O1261 Nd1240 2.492 . S
O1261 C1242 1.239 . S
O1262 Nd1240 2.487 . S
O1262 C1249 1.241 . S
O1263 Nd1240 2.682 . S
O1263 Nd1241 2.414 . S
O1263 C1249 1.273 . S
O1264 Nd1240 2.410 . S
O1264 C1250 1.251 . S
O1265 Nd1241 2.424 . S
O1265 C1250 1.268 . S
O1266 Nd1241 2.500 . S
O1266 C1251 1.258 . S
O1267 Nd1241 2.492 . S
O1267 C1251 1.239 . S
O1268 Nd1241 2.487 . S
O1268 C1258 1.241 . S
O1269 Nd1240 2.414 . S
O1269 Nd1241 2.682 . S
O1269 C1258 1.273 . S
O1270 Nd1241 2.410 . S
O1270 C1259 1.251 . S
O1271 Nd1240 2.424 . S
O1271 C1259 1.268 . S
H1272 C1244 0.930 . S
H1273 C1245 0.929 1_554 S
H1274 C1247 0.930 . S
H1275 C1248 0.929 . S
H1276 C1253 0.930 . S
H1277 C1254 0.929 . S
H1278 C1256 0.930 . S
H1279 C1257 0.929 . S
Nd1280 C1282 2.836 . S
Nd1280 O1300 2.500 . S
Nd1280 O1301 2.492 . S
Nd1280 O1302 2.487 . S
Nd1280 O1303 2.682 . S
Nd1280 O1304 2.410 . S
Nd1280 O1309 2.414 . S
Nd1280 O1311 2.424 . S
Nd1281 C1291 2.836 . S
Nd1281 O1303 2.414 . S
Nd1281 O1305 2.424 . S
Nd1281 O1306 2.500 . S
Nd1281 O1307 2.492 . S
Nd1281 O1308 2.487 . S
Nd1281 O1309 2.682 . S
Nd1281 O1310 2.410 . S
C1282 Nd1280 2.836 . S
C1282 C1283 1.498 . S
C1282 O1300 1.258 . S
C1282 O1301 1.239 . S
C1283 C1282 1.498 . S
C1283 C1284 1.366 . S
C1283 C1288 1.407 . S
C1284 C1283 1.366 . S
C1284 C1285 1.392 . S
C1284 H1312 0.930 . S
C1285 C1284 1.392 . S
C1285 C1286 1.398 1_556 S
C1285 H1313 0.929 1_556 S
C1286 C1285 1.398 1_554 S
C1286 C1287 1.352 1_554 S
C1287 C1286 1.352 1_556 S
C1287 C1288 1.384 . S
C1287 H1314 0.930 . S
C1288 C1283 1.407 . S
C1288 C1287 1.384 . S
C1288 H1315 0.929 . S
C1289 O1302 1.241 . S
C1289 O1303 1.273 . S
C1290 O1304 1.251 . S
C1290 O1305 1.268 . S
C1291 Nd1281 2.836 . S
C1291 C1292 1.498 . S
C1291 O1306 1.258 . S
C1291 O1307 1.239 . S
C1292 C1291 1.498 . S
C1292 C1293 1.366 . S
C1292 C1297 1.407 . S
C1293 C1292 1.366 . S
C1293 C1294 1.392 . S
C1293 H1316 0.930 . S
C1294 C1293 1.392 . S
C1294 C1295 1.398 . S
C1294 H1317 0.929 . S
C1295 C1294 1.398 . S
C1295 C1296 1.352 . S
C1296 C1295 1.352 . S
C1296 C1297 1.384 . S
C1296 H1318 0.930 . S
C1297 C1292 1.407 . S
C1297 C1296 1.384 . S
C1297 H1319 0.929 . S
C1298 O1308 1.241 . S
C1298 O1309 1.273 . S
C1299 O1310 1.251 . S
C1299 O1311 1.268 . S
O1300 Nd1280 2.500 . S
O1300 C1282 1.258 . S
O1301 Nd1280 2.492 . S
O1301 C1282 1.239 . S
O1302 Nd1280 2.487 . S
O1302 C1289 1.241 . S
O1303 Nd1280 2.682 . S
O1303 Nd1281 2.414 . S
O1303 C1289 1.273 . S
O1304 Nd1280 2.410 . S
O1304 C1290 1.251 . S
O1305 Nd1281 2.424 . S
O1305 C1290 1.268 . S
O1306 Nd1281 2.500 . S
O1306 C1291 1.258 . S
O1307 Nd1281 2.492 . S
O1307 C1291 1.239 . S
O1308 Nd1281 2.487 . S
O1308 C1298 1.241 . S
O1309 Nd1280 2.414 . S
O1309 Nd1281 2.682 . S
O1309 C1298 1.273 . S
O1310 Nd1281 2.410 . S
O1310 C1299 1.251 . S
O1311 Nd1280 2.424 . S
O1311 C1299 1.268 . S
H1312 C1284 0.930 . S
H1313 C1285 0.929 1_554 S
H1314 C1287 0.930 . S
H1315 C1288 0.929 . S
H1316 C1293 0.930 . S
H1317 C1294 0.929 . S
H1318 C1296 0.930 . S
H1319 C1297 0.929 . S
Nd1320 C1322 2.836 . S
Nd1320 O1340 2.500 . S
Nd1320 O1341 2.492 . S
Nd1320 O1342 2.487 . S
Nd1320 O1343 2.682 . S
Nd1320 O1344 2.410 . S
Nd1320 O1349 2.414 . S
Nd1320 O1351 2.424 . S
Nd1321 C1331 2.836 . S
Nd1321 O1343 2.414 . S
Nd1321 O1345 2.424 . S
Nd1321 O1346 2.500 . S
Nd1321 O1347 2.492 . S
Nd1321 O1348 2.487 . S
Nd1321 O1349 2.682 . S
Nd1321 O1350 2.410 . S
C1322 Nd1320 2.836 . S
C1322 C1323 1.498 . S
C1322 O1340 1.258 . S
C1322 O1341 1.239 . S
C1323 C1322 1.498 . S
C1323 C1324 1.366 . S
C1323 C1328 1.407 . S
C1324 C1323 1.366 . S
C1324 C1325 1.392 1_554 S
C1324 H1352 0.930 . S
C1325 C1324 1.392 1_556 S
C1325 C1326 1.398 . S
C1325 H1353 0.929 . S
C1326 C1325 1.398 . S
C1326 C1327 1.352 . S
C1327 C1326 1.352 . S
C1327 C1328 1.384 1_556 S
C1327 H1354 0.930 . S
C1328 C1323 1.407 . S
C1328 C1327 1.384 1_554 S
C1328 H1355 0.929 . S
C1329 O1342 1.241 . S
C1329 O1343 1.273 . S
C1330 O1344 1.251 . S
C1330 O1345 1.268 . S
C1331 Nd1321 2.836 . S
C1331 C1332 1.498 . S
C1331 O1346 1.258 . S
C1331 O1347 1.239 . S
C1332 C1331 1.498 . S
C1332 C1333 1.366 . S
C1332 C1337 1.407 . S
C1333 C1332 1.366 . S
C1333 C1334 1.392 . S
C1333 H1356 0.930 . S
C1334 C1333 1.392 . S
C1334 C1335 1.398 . S
C1334 H1357 0.929 . S
C1335 C1334 1.398 . S
C1335 C1336 1.352 . S
C1336 C1335 1.352 . S
C1336 C1337 1.384 . S
C1336 H1358 0.930 . S
C1337 C1332 1.407 . S
C1337 C1336 1.384 . S
C1337 H1359 0.929 . S
C1338 O1348 1.241 . S
C1338 O1349 1.273 . S
C1339 O1350 1.251 . S
C1339 O1351 1.268 . S
O1340 Nd1320 2.500 . S
O1340 C1322 1.258 . S
O1341 Nd1320 2.492 . S
O1341 C1322 1.239 . S
O1342 Nd1320 2.487 . S
O1342 C1329 1.241 . S
O1343 Nd1320 2.682 . S
O1343 Nd1321 2.414 . S
O1343 C1329 1.273 . S
O1344 Nd1320 2.410 . S
O1344 C1330 1.251 . S
O1345 Nd1321 2.424 . S
O1345 C1330 1.268 . S
O1346 Nd1321 2.500 . S
O1346 C1331 1.258 . S
O1347 Nd1321 2.492 . S
O1347 C1331 1.239 . S
O1348 Nd1321 2.487 . S
O1348 C1338 1.241 . S
O1349 Nd1320 2.414 . S
O1349 Nd1321 2.682 . S
O1349 C1338 1.273 . S
O1350 Nd1321 2.410 . S
O1350 C1339 1.251 . S
O1351 Nd1320 2.424 . S
O1351 C1339 1.268 . S
H1352 C1324 0.930 . S
H1353 C1325 0.929 . S
H1354 C1327 0.930 . S
H1355 C1328 0.929 . S
H1356 C1333 0.930 . S
H1357 C1334 0.929 . S
H1358 C1336 0.930 . S
H1359 C1337 0.929 . S
Nd1360 C1362 2.836 . S
Nd1360 O1380 2.500 . S
Nd1360 O1381 2.492 . S
Nd1360 O1382 2.487 . S
Nd1360 O1383 2.682 . S
Nd1360 O1384 2.410 . S
Nd1360 O1389 2.414 . S
Nd1360 O1391 2.424 . S
Nd1361 C1371 2.836 . S
Nd1361 O1383 2.414 . S
Nd1361 O1385 2.424 . S
Nd1361 O1386 2.500 . S
Nd1361 O1387 2.492 . S
Nd1361 O1388 2.487 . S
Nd1361 O1389 2.682 . S
Nd1361 O1390 2.410 . S
C1362 Nd1360 2.836 . S
C1362 C1363 1.498 . S
C1362 O1380 1.258 . S
C1362 O1381 1.239 . S
C1363 C1362 1.498 . S
C1363 C1364 1.366 . S
C1363 C1368 1.407 . S
C1364 C1363 1.366 . S
C1364 C1365 1.392 1_554 S
C1364 H1392 0.930 . S
C1365 C1364 1.392 1_556 S
C1365 C1366 1.398 . S
C1365 H1393 0.929 . S
C1366 C1365 1.398 . S
C1366 C1367 1.352 . S
C1367 C1366 1.352 . S
C1367 C1368 1.384 1_556 S
C1367 H1394 0.930 . S
C1368 C1363 1.407 . S
C1368 C1367 1.384 1_554 S
C1368 H1395 0.929 . S
C1369 O1382 1.241 . S
C1369 O1383 1.273 . S
C1370 O1384 1.251 . S
C1370 O1385 1.268 . S
C1371 Nd1361 2.836 . S
C1371 C1372 1.498 . S
C1371 O1386 1.258 . S
C1371 O1387 1.239 . S
C1372 C1371 1.498 . S
C1372 C1373 1.366 . S
C1372 C1377 1.407 . S
C1373 C1372 1.366 . S
C1373 C1374 1.392 . S
C1373 H1396 0.930 . S
C1374 C1373 1.392 . S
C1374 C1375 1.398 . S
C1374 H1397 0.929 . S
C1375 C1374 1.398 . S
C1375 C1376 1.352 . S
C1376 C1375 1.352 . S
C1376 C1377 1.384 . S
C1376 H1398 0.930 . S
C1377 C1372 1.407 . S
C1377 C1376 1.384 . S
C1377 H1399 0.929 . S
C1378 O1388 1.241 . S
C1378 O1389 1.273 . S
C1379 O1390 1.251 . S
C1379 O1391 1.268 . S
O1380 Nd1360 2.500 . S
O1380 C1362 1.258 . S
O1381 Nd1360 2.492 . S
O1381 C1362 1.239 . S
O1382 Nd1360 2.487 . S
O1382 C1369 1.241 . S
O1383 Nd1360 2.682 . S
O1383 Nd1361 2.414 . S
O1383 C1369 1.273 . S
O1384 Nd1360 2.410 . S
O1384 C1370 1.251 . S
O1385 Nd1361 2.424 . S
O1385 C1370 1.268 . S
O1386 Nd1361 2.500 . S
O1386 C1371 1.258 . S
O1387 Nd1361 2.492 . S
O1387 C1371 1.239 . S
O1388 Nd1361 2.487 . S
O1388 C1378 1.241 . S
O1389 Nd1360 2.414 . S
O1389 Nd1361 2.682 . S
O1389 C1378 1.273 . S
O1390 Nd1361 2.410 . S
O1390 C1379 1.251 . S
O1391 Nd1360 2.424 . S
O1391 C1379 1.268 . S
H1392 C1364 0.930 . S
H1393 C1365 0.929 . S
H1394 C1367 0.930 . S
H1395 C1368 0.929 . S
H1396 C1373 0.930 . S
H1397 C1374 0.929 . S
H1398 C1376 0.930 . S
H1399 C1377 0.929 . S
Nd1400 C1402 2.836 . S
Nd1400 O1420 2.500 . S
Nd1400 O1421 2.492 . S
Nd1400 O1422 2.487 . S
Nd1400 O1423 2.682 . S
Nd1400 O1424 2.410 . S
Nd1400 O1429 2.414 . S
Nd1400 O1431 2.424 . S
Nd1401 C1411 2.836 . S
Nd1401 O1423 2.414 . S
Nd1401 O1425 2.424 . S
Nd1401 O1426 2.500 . S
Nd1401 O1427 2.492 . S
Nd1401 O1428 2.487 . S
Nd1401 O1429 2.682 . S
Nd1401 O1430 2.410 . S
C1402 Nd1400 2.836 . S
C1402 C1403 1.498 . S
C1402 O1420 1.258 . S
C1402 O1421 1.239 . S
C1403 C1402 1.498 . S
C1403 C1404 1.366 . S
C1403 C1408 1.407 . S
C1404 C1403 1.366 . S
C1404 C1405 1.392 1_554 S
C1404 H1432 0.930 . S
C1405 C1404 1.392 1_556 S
C1405 C1406 1.398 . S
C1405 H1433 0.929 . S
C1406 C1405 1.398 . S
C1406 C1407 1.352 . S
C1407 C1406 1.352 . S
C1407 C1408 1.384 1_556 S
C1407 H1434 0.930 . S
C1408 C1403 1.407 . S
C1408 C1407 1.384 1_554 S
C1408 H1435 0.929 . S
C1409 O1422 1.241 . S
C1409 O1423 1.273 . S
C1410 O1424 1.251 . S
C1410 O1425 1.268 . S
C1411 Nd1401 2.836 . S
C1411 C1412 1.498 . S
C1411 O1426 1.258 . S
C1411 O1427 1.239 . S
C1412 C1411 1.498 . S
C1412 C1413 1.366 . S
C1412 C1417 1.407 . S
C1413 C1412 1.366 . S
C1413 C1414 1.392 . S
C1413 H1436 0.930 . S
C1414 C1413 1.392 . S
C1414 C1415 1.398 . S
C1414 H1437 0.929 . S
C1415 C1414 1.398 . S
C1415 C1416 1.352 . S
C1416 C1415 1.352 . S
C1416 C1417 1.384 . S
C1416 H1438 0.930 . S
C1417 C1412 1.407 . S
C1417 C1416 1.384 . S
C1417 H1439 0.929 . S
C1418 O1428 1.241 . S
C1418 O1429 1.273 . S
C1419 O1430 1.251 . S
C1419 O1431 1.268 . S
O1420 Nd1400 2.500 . S
O1420 C1402 1.258 . S
O1421 Nd1400 2.492 . S
O1421 C1402 1.239 . S
O1422 Nd1400 2.487 . S
O1422 C1409 1.241 . S
O1423 Nd1400 2.682 . S
O1423 Nd1401 2.414 . S
O1423 C1409 1.273 . S
O1424 Nd1400 2.410 . S
O1424 C1410 1.251 . S
O1425 Nd1401 2.424 . S
O1425 C1410 1.268 . S
O1426 Nd1401 2.500 . S
O1426 C1411 1.258 . S
O1427 Nd1401 2.492 . S
O1427 C1411 1.239 . S
O1428 Nd1401 2.487 . S
O1428 C1418 1.241 . S
O1429 Nd1400 2.414 . S
O1429 Nd1401 2.682 . S
O1429 C1418 1.273 . S
O1430 Nd1401 2.410 . S
O1430 C1419 1.251 . S
O1431 Nd1400 2.424 . S
O1431 C1419 1.268 . S
H1432 C1404 0.930 . S
H1433 C1405 0.929 . S
H1434 C1407 0.930 . S
H1435 C1408 0.929 . S
H1436 C1413 0.930 . S
H1437 C1414 0.929 . S
H1438 C1416 0.930 . S
H1439 C1417 0.929 . S
H1440 C1452 0.930 . S
H1441 C1454 0.930 . S
H1442 C1455 0.930 . S
H1443 C1459 0.959 . S
H1444 C1459 0.959 . S
H1445 C1459 0.961 . S
H1446 C1460 0.960 . S
H1447 C1460 0.961 . S
H1448 C1460 0.959 . S
H1449 C1463 0.929 . S
H1450 C1464 0.931 . S
H1451 C1466 0.930 . S
C1452 H1440 0.930 . S
C1452 C1453 1.399 . S
C1452 C1457 1.399 . S
C1453 C1452 1.399 . S
C1453 C1454 1.376 1_556 S
C1454 H1441 0.930 . S
C1454 C1453 1.376 1_554 S
C1454 C1455 1.388 . S
C1455 H1442 0.930 . S
C1455 C1454 1.388 . S
C1455 C1456 1.390 1_554 S
C1456 C1455 1.390 1_556 S
C1456 C1457 1.394 . S
C1456 C1462 1.465 . S
C1457 C1452 1.399 . S
C1457 C1456 1.394 . S
C1457 C1458 1.516 . S
C1458 C1457 1.516 . S
C1458 C1459 1.502 . S
C1458 C1460 1.561 . S
C1458 C1461 1.526 . S
C1459 H1443 0.959 . S
C1459 H1444 0.959 . S
C1459 H1445 0.961 . S
C1459 C1458 1.502 . S
C1460 H1446 0.960 . S
C1460 H1447 0.961 . S
C1460 H1448 0.959 . S
C1460 C1458 1.561 . S
C1461 C1458 1.526 . S
C1461 C1462 1.396 . S
C1461 C1466 1.390 . S
C1462 C1456 1.465 . S
C1462 C1461 1.396 . S
C1462 C1463 1.399 1_556 S
C1463 H1449 0.929 . S
C1463 C1462 1.399 1_554 S
C1463 C1464 1.385 . S
C1464 H1450 0.931 . S
C1464 C1463 1.385 . S
C1464 C1465 1.389 1_554 S
C1465 C1464 1.389 1_556 S
C1465 C1466 1.387 . S
C1466 H1451 0.930 . S
C1466 C1461 1.390 . S
C1466 C1465 1.387 . S
H1467 C1479 0.930 . S
H1468 C1481 0.930 . S
H1469 C1482 0.930 . S
H1470 C1486 0.959 . S
H1471 C1486 0.959 . S
H1472 C1486 0.961 . S
H1473 C1487 0.960 . S
H1474 C1487 0.961 . S
H1475 C1487 0.959 . S
H1476 C1490 0.929 . S
H1477 C1491 0.931 . S
H1478 C1493 0.930 . S
C1479 H1467 0.930 . S
C1479 C1480 1.399 1_554 S
C1479 C1484 1.399 . S
C1480 C1479 1.399 1_556 S
C1480 C1481 1.376 . S
C1481 H1468 0.930 . S
C1481 C1480 1.376 . S
C1481 C1482 1.388 . S
C1482 H1469 0.930 . S
C1482 C1481 1.388 . S
C1482 C1483 1.390 . S
C1483 C1482 1.390 . S
C1483 C1484 1.394 1_556 S
C1483 C1489 1.465 . S
C1484 C1479 1.399 . S
C1484 C1483 1.394 1_554 S
C1484 C1485 1.516 . S
C1485 C1484 1.516 . S
C1485 C1486 1.502 . S
C1485 C1487 1.561 . S
C1485 C1488 1.526 . S
C1486 H1470 0.959 . S
C1486 H1471 0.959 . S
C1486 H1472 0.961 . S
C1486 C1485 1.502 . S
C1487 H1473 0.960 . S
C1487 H1474 0.961 . S
C1487 H1475 0.959 . S
C1487 C1485 1.561 . S
C1488 C1485 1.526 . S
C1488 C1489 1.396 1_554 S
C1488 C1493 1.390 . S
C1489 C1483 1.465 . S
C1489 C1488 1.396 1_556 S
C1489 C1490 1.399 . S
C1490 H1476 0.929 . S
C1490 C1489 1.399 . S
C1490 C1491 1.385 . S
C1491 H1477 0.931 . S
C1491 C1490 1.385 . S
C1491 C1492 1.389 . S
C1492 C1491 1.389 . S
C1492 C1493 1.387 1_556 S
C1493 H1478 0.930 . S
C1493 C1488 1.390 . S
C1493 C1492 1.387 1_554 S
H1494 C1506 0.930 . S
H1495 C1508 0.930 . S
H1496 C1509 0.930 . S
H1497 C1513 0.959 . S
H1498 C1513 0.959 . S
H1499 C1513 0.961 . S
H1500 C1514 0.960 . S
H1501 C1514 0.961 . S
H1502 C1514 0.959 . S
H1503 C1517 0.929 . S
H1504 C1518 0.931 . S
H1505 C1520 0.930 . S
C1506 H1494 0.930 . S
C1506 C1507 1.399 1_554 S
C1506 C1511 1.399 . S
C1507 C1506 1.399 1_556 S
C1507 C1508 1.376 . S
C1508 H1495 0.930 . S
C1508 C1507 1.376 . S
C1508 C1509 1.388 . S
C1509 H1496 0.930 . S
C1509 C1508 1.388 . S
C1509 C1510 1.390 . S
C1510 C1509 1.390 . S
C1510 C1511 1.394 1_556 S
C1510 C1516 1.465 . S
C1511 C1506 1.399 . S
C1511 C1510 1.394 1_554 S
C1511 C1512 1.516 . S
C1512 C1511 1.516 . S
C1512 C1513 1.502 . S
C1512 C1514 1.561 . S
C1512 C1515 1.539 . S
C1513 H1497 0.959 . S
C1513 H1498 0.959 . S
C1513 H1499 0.961 . S
C1513 C1512 1.502 . S
C1514 H1500 0.960 . S
C1514 H1501 0.961 . S
C1514 H1502 0.959 . S
C1514 C1512 1.561 . S
C1515 C1512 1.539 . S
C1515 C1516 1.378 1_554 S
C1515 C1520 1.392 . S
C1516 C1510 1.465 . S
C1516 C1515 1.378 1_556 S
C1516 C1517 1.399 . S
C1517 H1503 0.929 . S
C1517 C1516 1.399 . S
C1517 C1518 1.385 . S
C1518 H1504 0.931 . S
C1518 C1517 1.385 . S
C1518 C1519 1.389 . S
C1519 C1518 1.389 . S
C1519 C1520 1.387 1_556 S
C1520 H1505 0.930 . S
C1520 C1515 1.392 . S
C1520 C1519 1.387 1_554 S
H1521 C1533 0.930 . S
H1522 C1535 0.930 . S
H1523 C1536 0.930 . S
H1524 C1540 0.959 . S
H1525 C1540 0.959 . S
H1526 C1540 0.961 . S
H1527 C1541 0.960 . S
H1528 C1541 0.961 . S
H1529 C1541 0.959 . S
H1530 C1544 0.929 . S
H1531 C1545 0.931 . S
H1532 C1547 0.930 . S
C1533 H1521 0.930 . S
C1533 C1534 1.399 . S
C1533 C1538 1.399 . S
C1534 C1533 1.399 . S
C1534 C1535 1.376 . S
C1535 H1522 0.930 . S
C1535 C1534 1.376 . S
C1535 C1536 1.388 . S
C1536 H1523 0.930 . S
C1536 C1535 1.388 . S
C1536 C1537 1.390 . S
C1537 C1536 1.390 . S
C1537 C1538 1.394 . S
C1537 C1543 1.465 . S
C1538 C1533 1.399 . S
C1538 C1537 1.394 . S
C1538 C1539 1.516 . S
C1539 C1538 1.516 . S
C1539 C1540 1.502 . S
C1539 C1541 1.561 . S
C1539 C1542 1.526 . S
C1540 H1524 0.959 . S
C1540 H1525 0.959 . S
C1540 H1526 0.961 . S
C1540 C1539 1.502 . S
C1541 H1527 0.960 . S
C1541 H1528 0.961 . S
C1541 H1529 0.959 . S
C1541 C1539 1.561 . S
C1542 C1539 1.526 . S
C1542 C1543 1.396 . S
C1542 C1547 1.390 . S
C1543 C1537 1.465 . S
C1543 C1542 1.396 . S
C1543 C1544 1.399 . S
C1544 H1530 0.929 . S
C1544 C1543 1.399 . S
C1544 C1545 1.385 . S
C1545 H1531 0.931 . S
C1545 C1544 1.385 . S
C1545 C1546 1.389 . S
C1546 C1545 1.389 . S
C1546 C1547 1.387 . S
C1547 H1532 0.930 . S
C1547 C1542 1.390 . S
C1547 C1546 1.387 . S
H1548 C1560 0.930 . S
H1549 C1562 0.930 . S
H1550 C1563 0.930 . S
H1551 C1567 0.959 . S
H1552 C1567 0.959 . S
H1553 C1567 0.961 . S
H1554 C1568 0.960 . S
H1555 C1568 0.961 . S
H1556 C1568 0.959 . S
H1557 C1571 0.929 . S
H1558 C1572 0.931 . S
H1559 C1574 0.930 . S
C1560 H1548 0.930 . S
C1560 C1561 1.399 . S
C1560 C1565 1.399 . S
C1561 C1560 1.399 . S
C1561 C1562 1.376 . S
C1562 H1549 0.930 . S
C1562 C1561 1.376 . S
C1562 C1563 1.388 . S
C1563 H1550 0.930 . S
C1563 C1562 1.388 . S
C1563 C1564 1.390 . S
C1564 C1563 1.390 . S
C1564 C1565 1.394 . S
C1564 C1570 1.465 . S
C1565 C1560 1.399 . S
C1565 C1564 1.394 . S
C1565 C1566 1.516 . S
C1566 C1565 1.516 . S
C1566 C1567 1.502 . S
C1566 C1568 1.561 . S
C1566 C1569 1.526 . S
C1567 H1551 0.959 . S
C1567 H1552 0.959 . S
C1567 H1553 0.961 . S
C1567 C1566 1.502 . S
C1568 H1554 0.960 . S
C1568 H1555 0.961 . S
C1568 H1556 0.959 . S
C1568 C1566 1.561 . S
C1569 C1566 1.526 . S
C1569 C1570 1.396 . S
C1569 C1574 1.390 . S
C1570 C1564 1.465 . S
C1570 C1569 1.396 . S
C1570 C1571 1.399 . S
C1571 H1557 0.929 . S
C1571 C1570 1.399 . S
C1571 C1572 1.385 . S
C1572 H1558 0.931 . S
C1572 C1571 1.385 . S
C1572 C1573 1.389 . S
C1573 C1572 1.389 . S
C1573 C1574 1.387 . S
C1574 H1559 0.930 . S
C1574 C1569 1.390 . S
C1574 C1573 1.387 . S
H1575 C1587 0.930 . S
H1576 C1589 0.930 . S
H1577 C1590 0.930 . S
H1578 C1594 0.959 . S
H1579 C1594 0.959 . S
H1580 C1594 0.961 . S
H1581 C1595 0.960 . S
H1582 C1595 0.961 . S
H1583 C1595 0.959 . S
H1584 C1598 0.929 . S
H1585 C1599 0.931 . S
H1586 C1601 0.930 . S
C1587 H1575 0.930 . S
C1587 C1588 1.399 . S
C1587 C1592 1.399 . S
C1588 C1587 1.399 . S
C1588 C1589 1.376 . S
C1589 H1576 0.930 . S
C1589 C1588 1.376 . S
C1589 C1590 1.388 . S
C1590 H1577 0.930 . S
C1590 C1589 1.388 . S
C1590 C1591 1.390 . S
C1591 C1590 1.390 . S
C1591 C1592 1.394 . S
C1591 C1597 1.465 . S
C1592 C1587 1.399 . S
C1592 C1591 1.394 . S
C1592 C1593 1.516 . S
C1593 C1592 1.516 . S
C1593 C1594 1.502 . S
C1593 C1595 1.561 . S
C1593 C1596 1.526 . S
C1594 H1578 0.959 . S
C1594 H1579 0.959 . S
C1594 H1580 0.961 . S
C1594 C1593 1.502 . S
C1595 H1581 0.960 . S
C1595 H1582 0.961 . S
C1595 H1583 0.959 . S
C1595 C1593 1.561 . S
C1596 C1593 1.526 . S
C1596 C1597 1.396 . S
C1596 C1601 1.390 . S
C1597 C1591 1.465 . S
C1597 C1596 1.396 . S
C1597 C1598 1.399 . S
C1598 H1584 0.929 . S
C1598 C1597 1.399 . S
C1598 C1599 1.385 . S
C1599 H1585 0.931 . S
C1599 C1598 1.385 . S
C1599 C1600 1.389 . S
C1600 C1599 1.389 . S
C1600 C1601 1.387 . S
C1601 H1586 0.930 . S
C1601 C1596 1.390 . S
C1601 C1600 1.387 . S
H1602 C1614 0.930 . S
H1603 C1616 0.930 . S
H1604 C1617 0.930 . S
H1605 C1621 0.959 . S
H1606 C1621 0.959 . S
H1607 C1621 0.961 . S
H1608 C1622 0.960 . S
H1609 C1622 0.961 . S
H1610 C1622 0.959 . S
H1611 C1625 0.929 . S
H1612 C1626 0.931 . S
H1613 C1628 0.930 . S
C1614 H1602 0.930 . S
C1614 C1615 1.399 . S
C1614 C1619 1.399 . S
C1615 C1614 1.399 . S
C1615 C1616 1.376 . S
C1616 H1603 0.930 . S
C1616 C1615 1.376 . S
C1616 C1617 1.388 . S
C1617 H1604 0.930 . S
C1617 C1616 1.388 . S
C1617 C1618 1.390 . S
C1618 C1617 1.390 . S
C1618 C1619 1.394 . S
C1618 C1624 1.465 . S
C1619 C1614 1.399 . S
C1619 C1618 1.394 . S
C1619 C1620 1.516 . S
C1620 C1619 1.516 . S
C1620 C1621 1.502 . S
C1620 C1622 1.561 . S
C1620 C1623 1.526 . S
C1621 H1605 0.959 . S
C1621 H1606 0.959 . S
C1621 H1607 0.961 . S
C1621 C1620 1.502 . S
C1622 H1608 0.960 . S
C1622 H1609 0.961 . S
C1622 H1610 0.959 . S
C1622 C1620 1.561 . S
C1623 C1620 1.526 . S
C1623 C1624 1.396 . S
C1623 C1628 1.390 . S
C1624 C1618 1.465 . S
C1624 C1623 1.396 . S
C1624 C1625 1.399 . S
C1625 H1611 0.929 . S
C1625 C1624 1.399 . S
C1625 C1626 1.385 . S
C1626 H1612 0.931 . S
C1626 C1625 1.385 . S
C1626 C1627 1.389 . S
C1627 C1626 1.389 . S
C1627 C1628 1.387 . S
C1628 H1613 0.930 . S
C1628 C1623 1.390 . S
C1628 C1627 1.387 . S
H1629 C1641 0.930 . S
H1630 C1643 0.930 . S
H1631 C1644 0.930 . S
H1632 C1648 0.959 . S
H1633 C1648 0.959 . S
H1634 C1648 0.961 . S
H1635 C1649 0.960 . S
H1636 C1649 0.961 . S
H1637 C1649 0.959 . S
H1638 C1652 0.929 . S
H1639 C1653 0.931 . S
H1640 C1655 0.930 . S
C1641 H1629 0.930 . S
C1641 C1642 1.399 . S
C1641 C1646 1.399 . S
C1642 C1641 1.399 . S
C1642 C1643 1.376 . S
C1643 H1630 0.930 . S
C1643 C1642 1.376 . S
C1643 C1644 1.388 . S
C1644 H1631 0.930 . S
C1644 C1643 1.388 . S
C1644 C1645 1.390 . S
C1645 C1644 1.390 . S
C1645 C1646 1.394 . S
C1645 C1651 1.465 . S
C1646 C1641 1.399 . S
C1646 C1645 1.394 . S
C1646 C1647 1.516 . S
C1647 C1646 1.516 . S
C1647 C1648 1.502 . S
C1647 C1649 1.561 . S
C1647 C1650 1.526 . S
C1648 H1632 0.959 . S
C1648 H1633 0.959 . S
C1648 H1634 0.961 . S
C1648 C1647 1.502 . S
C1649 H1635 0.960 . S
C1649 H1636 0.961 . S
C1649 H1637 0.959 . S
C1649 C1647 1.561 . S
C1650 C1647 1.526 . S
C1650 C1651 1.396 . S
C1650 C1655 1.390 . S
C1651 C1645 1.465 . S
C1651 C1650 1.396 . S
C1651 C1652 1.399 . S
C1652 H1638 0.929 . S
C1652 C1651 1.399 . S
C1652 C1653 1.385 . S
C1653 H1639 0.931 . S
C1653 C1652 1.385 . S
C1653 C1654 1.389 . S
C1654 C1653 1.389 . S
C1654 C1655 1.387 . S
C1655 H1640 0.930 . S
C1655 C1650 1.390 . S
C1655 C1654 1.387 . S
H1656 C1668 0.930 . S
H1657 C1670 0.930 . S
H1658 C1671 0.930 . S
H1659 C1675 0.959 . S
H1660 C1675 0.959 . S
H1661 C1675 0.961 . S
H1662 C1676 0.960 . S
H1663 C1676 0.961 . S
H1664 C1676 0.959 . S
H1665 C1679 0.929 . S
H1666 C1680 0.931 . S
H1667 C1682 0.930 . S
C1668 H1656 0.930 . S
C1668 C1669 1.399 . S
C1668 C1673 1.399 . S
C1669 C1668 1.399 . S
C1669 C1670 1.376 . S
C1670 H1657 0.930 . S
C1670 C1669 1.376 . S
C1670 C1671 1.388 . S
C1671 H1658 0.930 . S
C1671 C1670 1.388 . S
C1671 C1672 1.390 . S
C1672 C1671 1.390 . S
C1672 C1673 1.394 . S
C1672 C1678 1.465 . S
C1673 C1668 1.399 . S
C1673 C1672 1.394 . S
C1673 C1674 1.516 . S
C1674 C1673 1.516 . S
C1674 C1675 1.502 . S
C1674 C1676 1.561 . S
C1674 C1677 1.526 . S
C1675 H1659 0.959 . S
C1675 H1660 0.959 . S
C1675 H1661 0.961 . S
C1675 C1674 1.502 . S
C1676 H1662 0.960 . S
C1676 H1663 0.961 . S
C1676 H1664 0.959 . S
C1676 C1674 1.561 . S
C1677 C1674 1.526 . S
C1677 C1678 1.396 . S
C1677 C1682 1.390 . S
C1678 C1672 1.465 . S
C1678 C1677 1.396 . S
C1678 C1679 1.399 . S
C1679 H1665 0.929 . S
C1679 C1678 1.399 . S
C1679 C1680 1.385 . S
C1680 H1666 0.931 . S
C1680 C1679 1.385 . S
C1680 C1681 1.389 . S
C1681 C1680 1.389 . S
C1681 C1682 1.387 . S
C1682 H1667 0.930 . S
C1682 C1677 1.390 . S
C1682 C1681 1.387 . S
H1683 C1695 0.930 . S
H1684 C1697 0.930 . S
H1685 C1698 0.930 . S
H1686 C1702 0.959 . S
H1687 C1702 0.959 . S
H1688 C1702 0.961 . S
H1689 C1703 0.960 . S
H1690 C1703 0.961 . S
H1691 C1703 0.959 . S
H1692 C1706 0.929 . S
H1693 C1707 0.931 . S
H1694 C1709 0.930 . S
C1695 H1683 0.930 . S
C1695 C1696 1.399 . S
C1695 C1700 1.399 . S
C1696 C1695 1.399 . S
C1696 C1697 1.376 . S
C1697 H1684 0.930 . S
C1697 C1696 1.376 . S
C1697 C1698 1.388 . S
C1698 H1685 0.930 . S
C1698 C1697 1.388 . S
C1698 C1699 1.390 . S
C1699 C1698 1.390 . S
C1699 C1700 1.394 . S
C1699 C1705 1.465 . S
C1700 C1695 1.399 . S
C1700 C1699 1.394 . S
C1700 C1701 1.516 . S
C1701 C1700 1.516 . S
C1701 C1702 1.502 . S
C1701 C1703 1.561 . S
C1701 C1704 1.526 . S
C1702 H1686 0.959 . S
C1702 H1687 0.959 . S
C1702 H1688 0.961 . S
C1702 C1701 1.502 . S
C1703 H1689 0.960 . S
C1703 H1690 0.961 . S
C1703 H1691 0.959 . S
C1703 C1701 1.561 . S
C1704 C1701 1.526 . S
C1704 C1705 1.396 . S
C1704 C1709 1.390 . S
C1705 C1699 1.465 . S
C1705 C1704 1.396 . S
C1705 C1706 1.399 . S
C1706 H1692 0.929 . S
C1706 C1705 1.399 . S
C1706 C1707 1.385 . S
C1707 H1693 0.931 . S
C1707 C1706 1.385 . S
C1707 C1708 1.389 . S
C1708 C1707 1.389 . S
C1708 C1709 1.387 . S
C1709 H1694 0.930 . S
C1709 C1704 1.390 . S
C1709 C1708 1.387 . S
H1710 C1722 0.930 . S
H1711 C1724 0.930 . S
H1712 C1725 0.930 . S
H1713 C1729 0.959 . S
H1714 C1729 0.959 . S
H1715 C1729 0.961 . S
H1716 C1730 0.960 . S
H1717 C1730 0.961 . S
H1718 C1730 0.959 . S
H1719 C1733 0.929 . S
H1720 C1734 0.931 . S
H1721 C1736 0.930 . S
C1722 H1710 0.930 . S
C1722 C1723 1.399 . S
C1722 C1727 1.399 . S
C1723 C1722 1.399 . S
C1723 C1724 1.376 . S
C1724 H1711 0.930 . S
C1724 C1723 1.376 . S
C1724 C1725 1.388 . S
C1725 H1712 0.930 . S
C1725 C1724 1.388 . S
C1725 C1726 1.390 . S
C1726 C1725 1.390 . S
C1726 C1727 1.394 . S
C1726 C1732 1.465 . S
C1727 C1722 1.399 . S
C1727 C1726 1.394 . S
C1727 C1728 1.516 . S
C1728 C1727 1.516 . S
C1728 C1729 1.502 . S
C1728 C1730 1.561 . S
C1728 C1731 1.526 . S
C1729 H1713 0.959 . S
C1729 H1714 0.959 . S
C1729 H1715 0.961 . S
C1729 C1728 1.502 . S
C1730 H1716 0.960 . S
C1730 H1717 0.961 . S
C1730 H1718 0.959 . S
C1730 C1728 1.561 . S
C1731 C1728 1.526 . S
C1731 C1732 1.396 . S
C1731 C1736 1.390 . S
C1732 C1726 1.465 . S
C1732 C1731 1.396 . S
C1732 C1733 1.399 . S
C1733 H1719 0.929 . S
C1733 C1732 1.399 . S
C1733 C1734 1.385 . S
C1734 H1720 0.931 . S
C1734 C1733 1.385 . S
C1734 C1735 1.389 . S
C1735 C1734 1.389 . S
C1735 C1736 1.387 . S
C1736 H1721 0.930 . S
C1736 C1731 1.390 . S
C1736 C1735 1.387 . S
H1737 C1749 0.930 . S
H1738 C1751 0.930 . S
H1739 C1752 0.930 . S
H1740 C1756 0.959 . S
H1741 C1756 0.959 . S
H1742 C1756 0.961 . S
H1743 C1757 0.960 . S
H1744 C1757 0.961 . S
H1745 C1757 0.959 . S
H1746 C1760 0.929 . S
H1747 C1761 0.931 . S
H1748 C1763 0.930 . S
C1749 H1737 0.930 . S
C1749 C1750 1.399 . S
C1749 C1754 1.399 . S
C1750 C1749 1.399 . S
C1750 C1751 1.376 . S
C1751 H1738 0.930 . S
C1751 C1750 1.376 . S
C1751 C1752 1.388 . S
C1752 H1739 0.930 . S
C1752 C1751 1.388 . S
C1752 C1753 1.390 . S
C1753 C1752 1.390 . S
C1753 C1754 1.394 . S
C1753 C1759 1.465 . S
C1754 C1749 1.399 . S
C1754 C1753 1.394 . S
C1754 C1755 1.516 . S
C1755 C1754 1.516 . S
C1755 C1756 1.502 . S
C1755 C1757 1.561 . S
C1755 C1758 1.526 . S
C1756 H1740 0.959 . S
C1756 H1741 0.959 . S
C1756 H1742 0.961 . S
C1756 C1755 1.502 . S
C1757 H1743 0.960 . S
C1757 H1744 0.961 . S
C1757 H1745 0.959 . S
C1757 C1755 1.561 . S
C1758 C1755 1.526 . S
C1758 C1759 1.396 . S
C1758 C1763 1.390 . S
C1759 C1753 1.465 . S
C1759 C1758 1.396 . S
C1759 C1760 1.399 . S
C1760 H1746 0.929 . S
C1760 C1759 1.399 . S
C1760 C1761 1.385 . S
C1761 H1747 0.931 . S
C1761 C1760 1.385 . S
C1761 C1762 1.389 . S
C1762 C1761 1.389 . S
C1762 C1763 1.387 . S
C1763 H1748 0.930 . S
C1763 C1758 1.390 . S
C1763 C1762 1.387 . S
H1764 C1776 0.930 . S
H1765 C1778 0.930 . S
H1766 C1779 0.930 . S
H1767 C1783 0.959 . S
H1768 C1783 0.959 . S
H1769 C1783 0.961 . S
H1770 C1784 0.960 . S
H1771 C1784 0.961 . S
H1772 C1784 0.959 . S
H1773 C1787 0.929 . S
H1774 C1788 0.931 . S
H1775 C1790 0.930 . S
C1776 H1764 0.930 . S
C1776 C1777 1.399 . S
C1776 C1781 1.399 . S
C1777 C1776 1.399 . S
C1777 C1778 1.376 . S
C1778 H1765 0.930 . S
C1778 C1777 1.376 . S
C1778 C1779 1.388 . S
C1779 H1766 0.930 . S
C1779 C1778 1.388 . S
C1779 C1780 1.390 . S
C1780 C1779 1.390 . S
C1780 C1781 1.394 . S
C1780 C1786 1.465 . S
C1781 C1776 1.399 . S
C1781 C1780 1.394 . S
C1781 C1782 1.516 . S
C1782 C1781 1.516 . S
C1782 C1783 1.502 . S
C1782 C1784 1.561 . S
C1782 C1785 1.526 . S
C1783 H1767 0.959 . S
C1783 H1768 0.959 . S
C1783 H1769 0.961 . S
C1783 C1782 1.502 . S
C1784 H1770 0.960 . S
C1784 H1771 0.961 . S
C1784 H1772 0.959 . S
C1784 C1782 1.561 . S
C1785 C1782 1.526 . S
C1785 C1786 1.396 . S
C1785 C1790 1.390 . S
C1786 C1780 1.465 . S
C1786 C1785 1.396 . S
C1786 C1787 1.399 . S
C1787 H1773 0.929 . S
C1787 C1786 1.399 . S
C1787 C1788 1.385 . S
C1788 H1774 0.931 . S
C1788 C1787 1.385 . S
C1788 C1789 1.389 . S
C1789 C1788 1.389 . S
C1789 C1790 1.387 . S
C1790 H1775 0.930 . S
C1790 C1785 1.390 . S
C1790 C1789 1.387 . S
H1791 C1803 0.930 . S
H1792 C1805 0.930 . S
H1793 C1806 0.930 . S
H1794 C1810 0.961 1_545 S
H1795 C1810 0.951 1_545 S
H1796 C1810 0.976 . S
H1797 C1811 0.960 . S
H1798 C1811 0.961 1_545 S
H1799 C1811 0.961 . S
H1800 C1814 0.929 . S
H1801 C1815 0.931 . S
H1802 C1817 0.930 . S
C1803 H1791 0.930 . S
C1803 C1804 1.399 . S
C1803 C1808 1.399 . S
C1804 C1803 1.399 . S
C1804 C1805 1.376 . S
C1805 H1792 0.930 . S
C1805 C1804 1.376 . S
C1805 C1806 1.388 . S
C1806 H1793 0.930 . S
C1806 C1805 1.388 . S
C1806 C1807 1.390 . S
C1807 C1806 1.390 . S
C1807 C1808 1.394 . S
C1807 C1813 1.465 1_565 S
C1808 C1803 1.399 . S
C1808 C1807 1.394 . S
C1808 C1809 1.536 . S
C1809 C1808 1.536 . S
C1809 C1810 1.514 . S
C1809 C1811 1.555 . S
C1809 C1812 1.489 1_565 S
C1810 H1794 0.961 1_565 S
C1810 H1795 0.951 1_565 S
C1810 H1796 0.976 . S
C1810 C1809 1.514 . S
C1811 H1797 0.960 . S
C1811 H1798 0.961 1_565 S
C1811 H1799 0.961 . S
C1811 C1809 1.555 . S
C1812 C1809 1.489 1_545 S
C1812 C1813 1.396 . S
C1812 C1817 1.390 . S
C1813 C1807 1.465 1_545 S
C1813 C1812 1.396 . S
C1813 C1814 1.399 . S
C1814 H1800 0.929 . S
C1814 C1813 1.399 . S
C1814 C1815 1.385 . S
C1815 H1801 0.931 . S
C1815 C1814 1.385 . S
C1815 C1816 1.389 . S
C1816 C1815 1.389 . S
C1816 C1817 1.387 . S
C1817 H1802 0.930 . S
C1817 C1812 1.390 . S
C1817 C1816 1.387 . S
H1818 C1830 0.930 . S
H1819 C1832 0.930 . S
H1820 C1833 0.930 . S
H1821 C1837 0.959 . S
H1822 C1837 0.959 . S
H1823 C1837 0.961 1_655 S
H1824 C1838 0.991 . S
H1825 C1838 0.950 1_455 S
H1826 C1838 0.946 1_455 S
H1827 C1841 0.929 . S
H1828 C1842 0.931 . S
H1829 C1844 0.930 . S
C1830 H1818 0.930 . S
C1830 C1831 1.399 . S
C1830 C1835 1.399 . S
C1831 C1830 1.399 . S
C1831 C1832 1.376 . S
C1832 H1819 0.930 . S
C1832 C1831 1.376 . S
C1832 C1833 1.388 . S
C1833 H1820 0.930 . S
C1833 C1832 1.388 . S
C1833 C1834 1.390 . S
C1834 C1833 1.390 . S
C1834 C1835 1.394 . S
C1834 C1840 1.465 1_655 S
C1835 C1830 1.399 . S
C1835 C1834 1.394 . S
C1835 C1836 1.516 1_655 S
C1836 C1835 1.516 1_455 S
C1836 C1837 1.502 . S
C1836 C1838 1.551 1_455 S
C1836 C1839 1.526 . S
C1837 H1821 0.959 . S
C1837 H1822 0.959 . S
C1837 H1823 0.961 1_455 S
C1837 C1836 1.502 . S
C1838 H1824 0.991 . S
C1838 H1825 0.950 1_655 S
C1838 H1826 0.946 1_655 S
C1838 C1836 1.551 1_655 S
C1839 C1836 1.526 . S
C1839 C1840 1.396 . S
C1839 C1844 1.390 . S
C1840 C1834 1.465 1_455 S
C1840 C1839 1.396 . S
C1840 C1841 1.399 . S
C1841 H1827 0.929 . S
C1841 C1840 1.399 . S
C1841 C1842 1.385 . S
C1842 H1828 0.931 . S
C1842 C1841 1.385 . S
C1842 C1843 1.389 . S
C1843 C1842 1.389 . S
C1843 C1844 1.387 . S
C1844 H1829 0.930 . S
C1844 C1839 1.390 . S
C1844 C1843 1.387 . S
H1845 C1857 0.930 . S
H1846 C1859 0.930 . S
H1847 C1860 0.930 . S
H1848 C1864 0.959 . S
H1849 C1864 0.959 . S
H1850 C1864 0.961 . S
H1851 C1865 0.960 . S
H1852 C1865 0.961 . S
H1853 C1865 0.959 . S
H1854 C1868 0.929 . S
H1855 C1869 0.931 . S
H1856 C1871 0.930 . S
C1857 H1845 0.930 . S
C1857 C1858 1.399 . S
C1857 C1862 1.399 . S
C1858 C1857 1.399 . S
C1858 C1859 1.376 . S
C1859 H1846 0.930 . S
C1859 C1858 1.376 . S
C1859 C1860 1.388 . S
C1860 H1847 0.930 . S
C1860 C1859 1.388 . S
C1860 C1861 1.390 . S
C1861 C1860 1.390 . S
C1861 C1862 1.394 . S
C1861 C1867 1.465 . S
C1862 C1857 1.399 . S
C1862 C1861 1.394 . S
C1862 C1863 1.516 . S
C1863 C1862 1.516 . S
C1863 C1864 1.502 . S
C1863 C1865 1.561 . S
C1863 C1866 1.526 . S
C1864 H1848 0.959 . S
C1864 H1849 0.959 . S
C1864 H1850 0.961 . S
C1864 C1863 1.502 . S
C1865 H1851 0.960 . S
C1865 H1852 0.961 . S
C1865 H1853 0.959 . S
C1865 C1863 1.561 . S
C1866 C1863 1.526 . S
C1866 C1867 1.396 . S
C1866 C1871 1.390 . S
C1867 C1861 1.465 . S
C1867 C1866 1.396 . S
C1867 C1868 1.399 . S
C1868 H1854 0.929 . S
C1868 C1867 1.399 . S
C1868 C1869 1.385 . S
C1869 H1855 0.931 . S
C1869 C1868 1.385 . S
C1869 C1870 1.389 . S
C1870 C1869 1.389 . S
C1870 C1871 1.387 . S
C1871 H1856 0.930 . S
C1871 C1866 1.390 . S
C1871 C1870 1.387 . S
H1872 C1884 0.930 . S
H1873 C1886 0.930 . S
H1874 C1887 0.930 . S
H1875 C1891 0.920 1_565 S
H1876 C1891 0.926 1_565 S
H1877 C1891 0.993 . S
H1878 C1892 0.960 . S
H1879 C1892 0.961 1_565 S
H1880 C1892 0.957 1_565 S
H1881 C1895 0.929 . S
H1882 C1896 0.931 . S
H1883 C1898 0.930 . S
C1884 H1872 0.930 . S
C1884 C1885 1.399 . S
C1884 C1889 1.399 . S
C1885 C1884 1.399 . S
C1885 C1886 1.376 . S
C1886 H1873 0.930 . S
C1886 C1885 1.376 . S
C1886 C1887 1.388 . S
C1887 H1874 0.930 . S
C1887 C1886 1.388 . S
C1887 C1888 1.390 . S
C1888 C1887 1.390 . S
C1888 C1889 1.394 . S
C1888 C1894 1.465 1_545 S
C1889 C1884 1.399 . S
C1889 C1888 1.394 . S
C1889 C1890 1.555 . S
C1890 C1889 1.555 . S
C1890 C1891 1.500 . S
C1890 C1892 1.581 . S
C1890 C1893 1.495 1_545 S
C1891 H1875 0.920 1_545 S
C1891 H1876 0.926 1_545 S
C1891 H1877 0.993 . S
C1891 C1890 1.500 . S
C1892 H1878 0.960 . S
C1892 H1879 0.961 1_545 S
C1892 H1880 0.957 1_545 S
C1892 C1890 1.581 . S
C1893 C1890 1.495 1_565 S
C1893 C1894 1.396 . S
C1893 C1898 1.390 . S
C1894 C1888 1.465 1_565 S
C1894 C1893 1.396 . S
C1894 C1895 1.399 . S
C1895 H1881 0.929 . S
C1895 C1894 1.399 . S
C1895 C1896 1.385 . S
C1896 H1882 0.931 . S
C1896 C1895 1.385 . S
C1896 C1897 1.389 . S
C1897 C1896 1.389 . S
C1897 C1898 1.387 . S
C1898 H1883 0.930 . S
C1898 C1893 1.390 . S
C1898 C1897 1.387 . S
H1899 C1911 0.930 . S
H1900 C1913 0.930 . S
H1901 C1914 0.930 . S
H1902 C1918 0.959 . S
H1903 C1918 0.959 . S
H1904 C1918 0.961 1_455 S
H1905 C1919 0.960 1_455 S
H1906 C1919 0.961 . S
H1907 C1919 0.959 . S
H1908 C1922 0.929 . S
H1909 C1923 0.931 . S
H1910 C1925 0.930 . S
C1911 H1899 0.930 . S
C1911 C1912 1.399 . S
C1911 C1916 1.399 . S
C1912 C1911 1.399 . S
C1912 C1913 1.376 . S
C1913 H1900 0.930 . S
C1913 C1912 1.376 . S
C1913 C1914 1.388 . S
C1914 H1901 0.930 . S
C1914 C1913 1.388 . S
C1914 C1915 1.390 . S
C1915 C1914 1.390 . S
C1915 C1916 1.394 . S
C1915 C1921 1.465 1_455 S
C1916 C1911 1.399 . S
C1916 C1915 1.394 . S
C1916 C1917 1.479 1_455 S
C1917 C1916 1.479 1_655 S
C1917 C1918 1.476 . S
C1917 C1919 1.586 . S
C1917 C1920 1.572 . S
C1918 H1902 0.959 . S
C1918 H1903 0.959 . S
C1918 H1904 0.961 1_655 S
C1918 C1917 1.476 . S
C1919 H1905 0.960 1_655 S
C1919 H1906 0.961 . S
C1919 H1907 0.959 . S
C1919 C1917 1.586 . S
C1920 C1917 1.572 . S
C1920 C1921 1.396 . S
C1920 C1925 1.390 . S
C1921 C1915 1.465 1_655 S
C1921 C1920 1.396 . S
C1921 C1922 1.399 . S
C1922 H1908 0.929 . S
C1922 C1921 1.399 . S
C1922 C1923 1.385 . S
C1923 H1909 0.931 . S
C1923 C1922 1.385 . S
C1923 C1924 1.389 . S
C1924 C1923 1.389 . S
C1924 C1925 1.387 . S
C1925 H1910 0.930 . S
C1925 C1920 1.390 . S
C1925 C1924 1.387 . S
H1926 C1938 0.930 . S
H1927 C1940 0.930 . S
H1928 C1941 0.930 . S
H1929 C1945 0.959 . S
H1930 C1945 0.959 . S
H1931 C1945 0.961 . S
H1932 C1946 0.960 . S
H1933 C1946 0.961 . S
H1934 C1946 0.959 . S
H1935 C1949 0.929 . S
H1936 C1950 0.931 . S
H1937 C1952 0.930 . S
C1938 H1926 0.930 . S
C1938 C1939 1.399 . S
C1938 C1943 1.399 . S
C1939 C1938 1.399 . S
C1939 C1940 1.376 . S
C1940 H1927 0.930 . S
C1940 C1939 1.376 . S
C1940 C1941 1.388 . S
C1941 H1928 0.930 . S
C1941 C1940 1.388 . S
C1941 C1942 1.390 . S
C1942 C1941 1.390 . S
C1942 C1943 1.394 . S
C1942 C1948 1.465 1_455 S
C1943 C1938 1.399 . S
C1943 C1942 1.394 . S
C1943 C1944 1.517 . S
C1944 C1943 1.517 . S
C1944 C1945 1.546 . S
C1944 C1946 1.547 1_455 S
C1944 C1947 1.490 1_455 S
C1945 H1929 0.959 . S
C1945 H1930 0.959 . S
C1945 H1931 0.961 . S
C1945 C1944 1.546 . S
C1946 H1932 0.960 . S
C1946 H1933 0.961 . S
C1946 H1934 0.959 . S
C1946 C1944 1.547 1_655 S
C1947 C1944 1.490 1_655 S
C1947 C1948 1.396 . S
C1947 C1952 1.390 . S
C1948 C1942 1.465 1_655 S
C1948 C1947 1.396 . S
C1948 C1949 1.399 . S
C1949 H1935 0.929 . S
C1949 C1948 1.399 . S
C1949 C1950 1.385 . S
C1950 H1936 0.931 . S
C1950 C1949 1.385 . S
C1950 C1951 1.389 . S
C1951 C1950 1.389 . S
C1951 C1952 1.387 . S
C1952 H1937 0.930 . S
C1952 C1947 1.390 . S
C1952 C1951 1.387 . S
H1953 C1965 0.930 . S
H1954 C1967 0.930 . S
H1955 C1968 0.930 . S
H1956 C1972 0.959 . S
H1957 C1972 0.959 . S
H1958 C1972 0.961 . S
H1959 C1973 0.960 . S
H1960 C1973 0.961 . S
H1961 C1973 0.959 . S
H1962 C1976 0.929 . S
H1963 C1977 0.931 . S
H1964 C1979 0.930 . S
C1965 H1953 0.930 . S
C1965 C1966 1.399 . S
C1965 C1970 1.399 . S
C1966 C1965 1.399 . S
C1966 C1967 1.376 . S
C1967 H1954 0.930 . S
C1967 C1966 1.376 . S
C1967 C1968 1.388 . S
C1968 H1955 0.930 . S
C1968 C1967 1.388 . S
C1968 C1969 1.390 . S
C1969 C1968 1.390 . S
C1969 C1970 1.394 . S
C1969 C1975 1.465 . S
C1970 C1965 1.399 . S
C1970 C1969 1.394 . S
C1970 C1971 1.516 . S
C1971 C1970 1.516 . S
C1971 C1972 1.502 . S
C1971 C1973 1.561 . S
C1971 C1974 1.526 . S
C1972 H1956 0.959 . S
C1972 H1957 0.959 . S
C1972 H1958 0.961 . S
C1972 C1971 1.502 . S
C1973 H1959 0.960 . S
C1973 H1960 0.961 . S
C1973 H1961 0.959 . S
C1973 C1971 1.561 . S
C1974 C1971 1.526 . S
C1974 C1975 1.396 . S
C1974 C1979 1.390 . S
C1975 C1969 1.465 . S
C1975 C1974 1.396 . S
C1975 C1976 1.399 . S
C1976 H1962 0.929 . S
C1976 C1975 1.399 . S
C1976 C1977 1.385 . S
C1977 H1963 0.931 . S
C1977 C1976 1.385 . S
C1977 C1978 1.389 . S
C1978 C1977 1.389 . S
C1978 C1979 1.387 . S
C1979 H1964 0.930 . S
C1979 C1974 1.390 . S
C1979 C1978 1.387 . S
H1980 C1992 0.930 . S
H1981 C1994 0.930 . S
H1982 C1995 0.930 . S
H1983 C1999 0.943 1_565 S
H1984 C1999 0.959 . S
H1985 C1999 0.961 . S
H1986 C2000 0.960 . S
H1987 C2000 0.961 . S
H1988 C2000 0.959 . S
H1989 C2003 0.865 1_565 S
H1990 C2004 0.931 . S
H1991 C2006 0.930 . S
C1992 H1980 0.930 . S
C1992 C1993 1.399 . S
C1992 C1997 1.399 . S
C1993 C1992 1.399 . S
C1993 C1994 1.376 . S
C1994 H1981 0.930 . S
C1994 C1993 1.376 . S
C1994 C1995 1.388 . S
C1995 H1982 0.930 . S
C1995 C1994 1.388 . S
C1995 C1996 1.390 . S
C1996 C1995 1.390 . S
C1996 C1997 1.394 . S
C1996 C2002 1.465 1_565 S
C1997 C1992 1.399 . S
C1997 C1996 1.394 . S
C1997 C1998 1.516 1_565 S
C1998 C1997 1.516 1_545 S
C1998 C1999 1.502 . S
C1998 C2000 1.561 . S
C1998 C2001 1.526 . S
C1999 H1983 0.943 1_545 S
C1999 H1984 0.959 . S
C1999 H1985 0.961 . S
C1999 C1998 1.502 . S
C2000 H1986 0.960 . S
C2000 H1987 0.961 . S
C2000 H1988 0.959 . S
C2000 C1998 1.561 . S
C2001 C1998 1.526 . S
C2001 C2002 1.396 . S
C2001 C2006 1.390 . S
C2002 C1996 1.465 1_545 S
C2002 C2001 1.396 . S
C2002 C2003 1.424 . S
C2003 H1989 0.865 1_545 S
C2003 C2002 1.424 . S
C2003 C2004 1.429 . S
C2004 H1990 0.931 . S
C2004 C2003 1.429 . S
C2004 C2005 1.389 . S
C2005 C2004 1.389 . S
C2005 C2006 1.387 . S
C2006 H1991 0.930 . S
C2006 C2001 1.390 . S
C2006 C2005 1.387 . S
H2007 C2019 0.930 . S
H2008 C2021 0.930 . S
H2009 C2022 0.930 . S
H2010 C2026 0.959 . S
H2011 C2026 0.959 . S
H2012 C2026 0.961 . S
H2013 C2027 0.960 . S
H2014 C2027 0.961 . S
H2015 C2027 0.959 1_655 S
H2016 C2030 0.929 . S
H2017 C2031 0.931 . S
H2018 C2033 0.930 . S
C2019 H2007 0.930 . S
C2019 C2020 1.399 . S
C2019 C2024 1.399 . S
C2020 C2019 1.399 . S
C2020 C2021 1.376 . S
C2021 H2008 0.930 . S
C2021 C2020 1.376 . S
C2021 C2022 1.388 . S
C2022 H2009 0.930 . S
C2022 C2021 1.388 . S
C2022 C2023 1.390 . S
C2023 C2022 1.390 . S
C2023 C2024 1.394 . S
C2023 C2029 1.465 . S
C2024 C2019 1.399 . S
C2024 C2023 1.394 . S
C2024 C2025 1.516 1_655 S
C2025 C2024 1.516 1_455 S
C2025 C2026 1.502 . S
C2025 C2027 1.561 . S
C2025 C2028 1.526 . S
C2026 H2010 0.959 . S
C2026 H2011 0.959 . S
C2026 H2012 0.961 . S
C2026 C2025 1.502 . S
C2027 H2013 0.960 . S
C2027 H2014 0.961 . S
C2027 H2015 0.959 1_455 S
C2027 C2025 1.561 . S
C2028 C2025 1.526 . S
C2028 C2029 1.396 1_455 S
C2028 C2033 1.390 . S
C2029 C2023 1.465 . S
C2029 C2028 1.396 1_655 S
C2029 C2030 1.399 . S
C2030 H2016 0.929 . S
C2030 C2029 1.399 . S
C2030 C2031 1.385 1_655 S
C2031 H2017 0.931 . S
C2031 C2030 1.385 1_455 S
C2031 C2032 1.389 . S
C2032 C2031 1.389 . S
C2032 C2033 1.387 . S
C2033 H2018 0.930 . S
C2033 C2028 1.390 . S
C2033 C2032 1.387 . S
H2034 C2046 0.930 . S
H2035 C2048 0.930 . S
H2036 C2049 0.930 . S
H2037 C2053 0.959 . S
H2038 C2053 0.959 . S
H2039 C2053 0.961 . S
H2040 C2054 0.960 . S
H2041 C2054 0.961 . S
H2042 C2054 0.959 . S
H2043 C2057 0.929 . S
H2044 C2058 0.931 . S
H2045 C2060 0.930 . S
C2046 H2034 0.930 . S
C2046 C2047 1.399 . S
C2046 C2051 1.399 . S
C2047 C2046 1.399 . S
C2047 C2048 1.376 . S
C2048 H2035 0.930 . S
C2048 C2047 1.376 . S
C2048 C2049 1.388 . S
C2049 H2036 0.930 . S
C2049 C2048 1.388 . S
C2049 C2050 1.390 . S
C2050 C2049 1.390 . S
C2050 C2051 1.394 . S
C2050 C2056 1.465 . S
C2051 C2046 1.399 . S
C2051 C2050 1.394 . S
C2051 C2052 1.516 . S
C2052 C2051 1.516 . S
C2052 C2053 1.502 . S
C2052 C2054 1.561 . S
C2052 C2055 1.526 . S
C2053 H2037 0.959 . S
C2053 H2038 0.959 . S
C2053 H2039 0.961 . S
C2053 C2052 1.502 . S
C2054 H2040 0.960 . S
C2054 H2041 0.961 . S
C2054 H2042 0.959 . S
C2054 C2052 1.561 . S
C2055 C2052 1.526 . S
C2055 C2056 1.396 . S
C2055 C2060 1.390 . S
C2056 C2050 1.465 . S
C2056 C2055 1.396 . S
C2056 C2057 1.399 . S
C2057 H2043 0.929 . S
C2057 C2056 1.399 . S
C2057 C2058 1.385 . S
C2058 H2044 0.931 . S
C2058 C2057 1.385 . S
C2058 C2059 1.389 . S
C2059 C2058 1.389 . S
C2059 C2060 1.387 . S
C2060 H2045 0.930 . S
C2060 C2055 1.390 . S
C2060 C2059 1.387 . S
H2061 C2073 0.930 . S
H2062 C2075 0.930 . S
H2063 C2076 0.930 . S
H2064 C2080 0.959 . S
H2065 C2080 0.959 . S
H2066 C2080 0.961 . S
H2067 C2081 0.960 . S
H2068 C2081 0.961 . S
H2069 C2081 0.959 . S
H2070 C2084 0.933 . S
H2071 C2085 0.931 . S
H2072 C2087 0.930 . S
C2073 H2061 0.930 . S
C2073 C2074 1.399 . S
C2073 C2078 1.399 . S
C2074 C2073 1.399 . S
C2074 C2075 1.376 . S
C2075 H2062 0.930 . S
C2075 C2074 1.376 . S
C2075 C2076 1.388 . S
C2076 H2063 0.930 . S
C2076 C2075 1.388 . S
C2076 C2077 1.390 . S
C2077 C2076 1.390 . S
C2077 C2078 1.394 . S
C2077 C2083 1.465 1_545 S
C2078 C2073 1.399 . S
C2078 C2077 1.394 . S
C2078 C2079 1.516 1_545 S
C2079 C2078 1.516 1_565 S
C2079 C2080 1.502 . S
C2079 C2081 1.561 . S
C2079 C2082 1.526 . S
C2080 H2064 0.959 . S
C2080 H2065 0.959 . S
C2080 H2066 0.961 . S
C2080 C2079 1.502 . S
C2081 H2067 0.960 . S
C2081 H2068 0.961 . S
C2081 H2069 0.959 . S
C2081 C2079 1.561 . S
C2082 C2079 1.526 . S
C2082 C2083 1.396 . S
C2082 C2087 1.390 . S
C2083 C2077 1.465 1_565 S
C2083 C2082 1.396 . S
C2083 C2084 1.402 1_565 S
C2084 H2070 0.933 . S
C2084 C2083 1.402 1_545 S
C2084 C2085 1.379 1_545 S
C2085 H2071 0.931 . S
C2085 C2084 1.379 1_565 S
C2085 C2086 1.389 . S
C2086 C2085 1.389 . S
C2086 C2087 1.387 . S
C2087 H2072 0.930 . S
C2087 C2082 1.390 . S
C2087 C2086 1.387 . S
H2088 C2100 0.930 . S
H2089 C2102 0.930 . S
H2090 C2103 0.930 . S
H2091 C2107 0.959 . S
H2092 C2107 0.959 . S
H2093 C2107 0.961 . S
H2094 C2108 0.960 . S
H2095 C2108 0.961 . S
H2096 C2108 0.959 . S
H2097 C2111 0.929 . S
H2098 C2112 0.931 . S
H2099 C2114 0.930 . S
C2100 H2088 0.930 . S
C2100 C2101 1.399 . S
C2100 C2105 1.399 . S
C2101 C2100 1.399 . S
C2101 C2102 1.376 . S
C2102 H2089 0.930 . S
C2102 C2101 1.376 . S
C2102 C2103 1.388 . S
C2103 H2090 0.930 . S
C2103 C2102 1.388 . S
C2103 C2104 1.390 . S
C2104 C2103 1.390 . S
C2104 C2105 1.394 . S
C2104 C2110 1.465 . S
C2105 C2100 1.399 . S
C2105 C2104 1.394 . S
C2105 C2106 1.516 . S
C2106 C2105 1.516 . S
C2106 C2107 1.502 . S
C2106 C2108 1.561 . S
C2106 C2109 1.526 . S
C2107 H2091 0.959 . S
C2107 H2092 0.959 . S
C2107 H2093 0.961 . S
C2107 C2106 1.502 . S
C2108 H2094 0.960 . S
C2108 H2095 0.961 . S
C2108 H2096 0.959 . S
C2108 C2106 1.561 . S
C2109 C2106 1.526 . S
C2109 C2110 1.396 . S
C2109 C2114 1.390 . S
C2110 C2104 1.465 . S
C2110 C2109 1.396 . S
C2110 C2111 1.399 . S
C2111 H2097 0.929 . S
C2111 C2110 1.399 . S
C2111 C2112 1.385 . S
C2112 H2098 0.931 . S
C2112 C2111 1.385 . S
C2112 C2113 1.389 . S
C2113 C2112 1.389 . S
C2113 C2114 1.387 . S
C2114 H2099 0.930 . S
C2114 C2109 1.390 . S
C2114 C2113 1.387 . S
H2115 C2127 0.930 . S
H2116 C2129 0.930 . S
H2117 C2130 0.930 . S
H2118 C2134 0.959 . S
H2119 C2134 0.959 . S
H2120 C2134 0.961 . S
H2121 C2135 0.960 . S
H2122 C2135 0.961 . S
H2123 C2135 0.959 . S
H2124 C2138 0.929 . S
H2125 C2139 0.931 . S
H2126 C2141 0.930 . S
C2127 H2115 0.930 . S
C2127 C2128 1.399 . S
C2127 C2132 1.399 . S
C2128 C2127 1.399 . S
C2128 C2129 1.376 . S
C2129 H2116 0.930 . S
C2129 C2128 1.376 . S
C2129 C2130 1.388 . S
C2130 H2117 0.930 . S
C2130 C2129 1.388 . S
C2130 C2131 1.390 . S
C2131 C2130 1.390 . S
C2131 C2132 1.394 . S
C2131 C2137 1.465 . S
C2132 C2127 1.399 . S
C2132 C2131 1.394 . S
C2132 C2133 1.516 . S
C2133 C2132 1.516 . S
C2133 C2134 1.502 . S
C2133 C2135 1.561 . S
C2133 C2136 1.526 . S
C2134 H2118 0.959 . S
C2134 H2119 0.959 . S
C2134 H2120 0.961 . S
C2134 C2133 1.502 . S
C2135 H2121 0.960 . S
C2135 H2122 0.961 . S
C2135 H2123 0.959 . S
C2135 C2133 1.561 . S
C2136 C2133 1.526 . S
C2136 C2137 1.396 . S
C2136 C2141 1.390 . S
C2137 C2131 1.465 . S
C2137 C2136 1.396 . S
C2137 C2138 1.399 . S
C2138 H2124 0.929 . S
C2138 C2137 1.399 . S
C2138 C2139 1.385 . S
C2139 H2125 0.931 . S
C2139 C2138 1.385 . S
C2139 C2140 1.389 . S
C2140 C2139 1.389 . S
C2140 C2141 1.387 . S
C2141 H2126 0.930 . S
C2141 C2136 1.390 . S
C2141 C2140 1.387 . S
H2142 C2154 0.930 . S
H2143 C2156 0.930 . S
H2144 C2157 0.930 . S
H2145 C2161 0.959 . S
H2146 C2161 0.959 . S
H2147 C2161 0.961 . S
H2148 C2162 0.960 . S
H2149 C2162 0.961 . S
H2150 C2162 0.959 . S
H2151 C2165 0.929 . S
H2152 C2166 0.931 . S
H2153 C2168 0.930 . S
C2154 H2142 0.930 . S
C2154 C2155 1.399 . S
C2154 C2159 1.399 . S
C2155 C2154 1.399 . S
C2155 C2156 1.376 . S
C2156 H2143 0.930 . S
C2156 C2155 1.376 . S
C2156 C2157 1.388 . S
C2157 H2144 0.930 . S
C2157 C2156 1.388 . S
C2157 C2158 1.390 . S
C2158 C2157 1.390 . S
C2158 C2159 1.394 . S
C2158 C2164 1.465 . S
C2159 C2154 1.399 . S
C2159 C2158 1.394 . S
C2159 C2160 1.516 . S
C2160 C2159 1.516 . S
C2160 C2161 1.502 . S
C2160 C2162 1.561 . S
C2160 C2163 1.526 . S
C2161 H2145 0.959 . S
C2161 H2146 0.959 . S
C2161 H2147 0.961 . S
C2161 C2160 1.502 . S
C2162 H2148 0.960 . S
C2162 H2149 0.961 . S
C2162 H2150 0.959 . S
C2162 C2160 1.561 . S
C2163 C2160 1.526 . S
C2163 C2164 1.396 . S
C2163 C2168 1.390 . S
C2164 C2158 1.465 . S
C2164 C2163 1.396 . S
C2164 C2165 1.399 . S
C2165 H2151 0.929 . S
C2165 C2164 1.399 . S
C2165 C2166 1.385 . S
C2166 H2152 0.931 . S
C2166 C2165 1.385 . S
C2166 C2167 1.389 . S
C2167 C2166 1.389 . S
C2167 C2168 1.387 . S
C2168 H2153 0.930 . S
C2168 C2163 1.390 . S
C2168 C2167 1.387 . S
H2169 C2181 0.930 . S
H2170 C2183 0.930 . S
H2171 C2184 0.930 . S
H2172 C2188 0.959 . S
H2173 C2188 0.959 . S
H2174 C2188 0.961 . S
H2175 C2189 0.960 . S
H2176 C2189 0.961 . S
H2177 C2189 0.959 . S
H2178 C2192 0.929 . S
H2179 C2193 0.931 . S
H2180 C2195 0.930 . S
C2181 H2169 0.930 . S
C2181 C2182 1.399 . S
C2181 C2186 1.399 . S
C2182 C2181 1.399 . S
C2182 C2183 1.376 . S
C2183 H2170 0.930 . S
C2183 C2182 1.376 . S
C2183 C2184 1.388 . S
C2184 H2171 0.930 . S
C2184 C2183 1.388 . S
C2184 C2185 1.390 . S
C2185 C2184 1.390 . S
C2185 C2186 1.394 . S
C2185 C2191 1.465 . S
C2186 C2181 1.399 . S
C2186 C2185 1.394 . S
C2186 C2187 1.516 . S
C2187 C2186 1.516 . S
C2187 C2188 1.502 . S
C2187 C2189 1.561 . S
C2187 C2190 1.526 . S
C2188 H2172 0.959 . S
C2188 H2173 0.959 . S
C2188 H2174 0.961 . S
C2188 C2187 1.502 . S
C2189 H2175 0.960 . S
C2189 H2176 0.961 . S
C2189 H2177 0.959 . S
C2189 C2187 1.561 . S
C2190 C2187 1.526 . S
C2190 C2191 1.396 . S
C2190 C2195 1.390 . S
C2191 C2185 1.465 . S
C2191 C2190 1.396 . S
C2191 C2192 1.399 . S
C2192 H2178 0.929 . S
C2192 C2191 1.399 . S
C2192 C2193 1.385 . S
C2193 H2179 0.931 . S
C2193 C2192 1.385 . S
C2193 C2194 1.389 . S
C2194 C2193 1.389 . S
C2194 C2195 1.387 . S
C2195 H2180 0.930 . S
C2195 C2190 1.390 . S
C2195 C2194 1.387 . S
H2196 C2208 0.930 . S
H2197 C2210 0.930 . S
H2198 C2211 0.930 . S
H2199 C2215 0.959 . S
H2200 C2215 0.959 . S
H2201 C2215 0.961 . S
H2202 C2216 0.960 . S
H2203 C2216 0.961 . S
H2204 C2216 0.959 . S
H2205 C2219 0.929 . S
H2206 C2220 0.931 . S
H2207 C2222 0.930 . S
C2208 H2196 0.930 . S
C2208 C2209 1.399 . S
C2208 C2213 1.399 . S
C2209 C2208 1.399 . S
C2209 C2210 1.376 . S
C2210 H2197 0.930 . S
C2210 C2209 1.376 . S
C2210 C2211 1.388 . S
C2211 H2198 0.930 . S
C2211 C2210 1.388 . S
C2211 C2212 1.390 . S
C2212 C2211 1.390 . S
C2212 C2213 1.394 . S
C2212 C2218 1.465 . S
C2213 C2208 1.399 . S
C2213 C2212 1.394 . S
C2213 C2214 1.516 . S
C2214 C2213 1.516 . S
C2214 C2215 1.502 . S
C2214 C2216 1.561 . S
C2214 C2217 1.526 . S
C2215 H2199 0.959 . S
C2215 H2200 0.959 . S
C2215 H2201 0.961 . S
C2215 C2214 1.502 . S
C2216 H2202 0.960 . S
C2216 H2203 0.961 . S
C2216 H2204 0.959 . S
C2216 C2214 1.561 . S
C2217 C2214 1.526 . S
C2217 C2218 1.396 . S
C2217 C2222 1.390 . S
C2218 C2212 1.465 . S
C2218 C2217 1.396 . S
C2218 C2219 1.399 . S
C2219 H2205 0.929 . S
C2219 C2218 1.399 . S
C2219 C2220 1.385 . S
C2220 H2206 0.931 . S
C2220 C2219 1.385 . S
C2220 C2221 1.389 . S
C2221 C2220 1.389 . S
C2221 C2222 1.387 . S
C2222 H2207 0.930 . S
C2222 C2217 1.390 . S
C2222 C2221 1.387 . S
H2223 C2235 0.930 . S
H2224 C2237 0.930 . S
H2225 C2238 0.930 . S
H2226 C2242 0.959 . S
H2227 C2242 0.959 . S
H2228 C2242 0.961 . S
H2229 C2243 0.960 . S
H2230 C2243 0.961 . S
H2231 C2243 0.959 . S
H2232 C2246 0.929 . S
H2233 C2247 0.931 . S
H2234 C2249 0.930 . S
C2235 H2223 0.930 . S
C2235 C2236 1.399 . S
C2235 C2240 1.399 . S
C2236 C2235 1.399 . S
C2236 C2237 1.376 . S
C2237 H2224 0.930 . S
C2237 C2236 1.376 . S
C2237 C2238 1.388 . S
C2238 H2225 0.930 . S
C2238 C2237 1.388 . S
C2238 C2239 1.390 . S
C2239 C2238 1.390 . S
C2239 C2240 1.394 . S
C2239 C2245 1.465 . S
C2240 C2235 1.399 . S
C2240 C2239 1.394 . S
C2240 C2241 1.516 . S
C2241 C2240 1.516 . S
C2241 C2242 1.502 . S
C2241 C2243 1.561 . S
C2241 C2244 1.526 . S
C2242 H2226 0.959 . S
C2242 H2227 0.959 . S
C2242 H2228 0.961 . S
C2242 C2241 1.502 . S
C2243 H2229 0.960 . S
C2243 H2230 0.961 . S
C2243 H2231 0.959 . S
C2243 C2241 1.561 . S
C2244 C2241 1.526 . S
C2244 C2245 1.396 . S
C2244 C2249 1.390 . S
C2245 C2239 1.465 . S
C2245 C2244 1.396 . S
C2245 C2246 1.399 . S
C2246 H2232 0.929 . S
C2246 C2245 1.399 . S
C2246 C2247 1.385 . S
C2247 H2233 0.931 . S
C2247 C2246 1.385 . S
C2247 C2248 1.389 . S
C2248 C2247 1.389 . S
C2248 C2249 1.387 . S
C2249 H2234 0.930 . S
C2249 C2244 1.390 . S
C2249 C2248 1.387 . S
H2250 C2262 0.930 . S
H2251 C2264 0.930 . S
H2252 C2265 0.930 . S
H2253 C2269 0.959 . S
H2254 C2269 0.959 . S
H2255 C2269 0.961 . S
H2256 C2270 0.960 . S
H2257 C2270 0.961 . S
H2258 C2270 0.959 . S
H2259 C2273 0.929 . S
H2260 C2274 0.931 . S
H2261 C2276 0.930 . S
C2262 H2250 0.930 . S
C2262 C2263 1.399 . S
C2262 C2267 1.399 . S
C2263 C2262 1.399 . S
C2263 C2264 1.376 . S
C2264 H2251 0.930 . S
C2264 C2263 1.376 . S
C2264 C2265 1.388 . S
C2265 H2252 0.930 . S
C2265 C2264 1.388 . S
C2265 C2266 1.390 . S
C2266 C2265 1.390 . S
C2266 C2267 1.394 . S
C2266 C2272 1.465 . S
C2267 C2262 1.399 . S
C2267 C2266 1.394 . S
C2267 C2268 1.516 . S
C2268 C2267 1.516 . S
C2268 C2269 1.502 . S
C2268 C2270 1.561 . S
C2268 C2271 1.526 . S
C2269 H2253 0.959 . S
C2269 H2254 0.959 . S
C2269 H2255 0.961 . S
C2269 C2268 1.502 . S
C2270 H2256 0.960 . S
C2270 H2257 0.961 . S
C2270 H2258 0.959 . S
C2270 C2268 1.561 . S
C2271 C2268 1.526 . S
C2271 C2272 1.396 . S
C2271 C2276 1.390 . S
C2272 C2266 1.465 . S
C2272 C2271 1.396 . S
C2272 C2273 1.399 . S
C2273 H2259 0.929 . S
C2273 C2272 1.399 . S
C2273 C2274 1.385 . S
C2274 H2260 0.931 . S
C2274 C2273 1.385 . S
C2274 C2275 1.389 . S
C2275 C2274 1.389 . S
C2275 C2276 1.387 . S
C2276 H2261 0.930 . S
C2276 C2271 1.390 . S
C2276 C2275 1.387 . S
H2277 C2289 0.930 . S
H2278 C2291 0.930 . S
H2279 C2292 0.930 . S
H2280 C2296 0.959 . S
H2281 C2296 0.959 . S
H2282 C2296 0.961 . S
H2283 C2297 0.960 . S
H2284 C2297 0.961 . S
H2285 C2297 0.959 . S
H2286 C2300 0.929 . S
H2287 C2301 0.931 . S
H2288 C2303 0.930 . S
C2289 H2277 0.930 . S
C2289 C2290 1.399 . S
C2289 C2294 1.399 . S
C2290 C2289 1.399 . S
C2290 C2291 1.376 . S
C2291 H2278 0.930 . S
C2291 C2290 1.376 . S
C2291 C2292 1.388 . S
C2292 H2279 0.930 . S
C2292 C2291 1.388 . S
C2292 C2293 1.390 . S
C2293 C2292 1.390 . S
C2293 C2294 1.394 . S
C2293 C2299 1.465 . S
C2294 C2289 1.399 . S
C2294 C2293 1.394 . S
C2294 C2295 1.516 . S
C2295 C2294 1.516 . S
C2295 C2296 1.502 . S
C2295 C2297 1.561 . S
C2295 C2298 1.526 . S
C2296 H2280 0.959 . S
C2296 H2281 0.959 . S
C2296 H2282 0.961 . S
C2296 C2295 1.502 . S
C2297 H2283 0.960 . S
C2297 H2284 0.961 . S
C2297 H2285 0.959 . S
C2297 C2295 1.561 . S
C2298 C2295 1.526 . S
C2298 C2299 1.396 . S
C2298 C2303 1.390 . S
C2299 C2293 1.465 . S
C2299 C2298 1.396 . S
C2299 C2300 1.399 . S
C2300 H2286 0.929 . S
C2300 C2299 1.399 . S
C2300 C2301 1.385 . S
C2301 H2287 0.931 . S
C2301 C2300 1.385 . S
C2301 C2302 1.389 . S
C2302 C2301 1.389 . S
C2302 C2303 1.387 . S
C2303 H2288 0.930 . S
C2303 C2298 1.390 . S
C2303 C2302 1.387 . S
H2304 C2316 0.930 . S
H2305 C2318 0.930 . S
H2306 C2319 0.930 . S
H2307 C2323 0.959 . S
H2308 C2323 0.959 . S
H2309 C2323 0.961 . S
H2310 C2324 0.960 . S
H2311 C2324 0.961 . S
H2312 C2324 0.959 . S
H2313 C2327 0.929 . S
H2314 C2328 0.931 . S
H2315 C2330 0.930 . S
C2316 H2304 0.930 . S
C2316 C2317 1.399 . S
C2316 C2321 1.399 . S
C2317 C2316 1.399 . S
C2317 C2318 1.376 . S
C2318 H2305 0.930 . S
C2318 C2317 1.376 . S
C2318 C2319 1.388 . S
C2319 H2306 0.930 . S
C2319 C2318 1.388 . S
C2319 C2320 1.390 . S
C2320 C2319 1.390 . S
C2320 C2321 1.394 . S
C2320 C2326 1.465 . S
C2321 C2316 1.399 . S
C2321 C2320 1.394 . S
C2321 C2322 1.516 . S
C2322 C2321 1.516 . S
C2322 C2323 1.502 . S
C2322 C2324 1.561 . S
C2322 C2325 1.526 . S
C2323 H2307 0.959 . S
C2323 H2308 0.959 . S
C2323 H2309 0.961 . S
C2323 C2322 1.502 . S
C2324 H2310 0.960 . S
C2324 H2311 0.961 . S
C2324 H2312 0.959 . S
C2324 C2322 1.561 . S
C2325 C2322 1.526 . S
C2325 C2326 1.396 . S
C2325 C2330 1.390 . S
C2326 C2320 1.465 . S
C2326 C2325 1.396 . S
C2326 C2327 1.399 . S
C2327 H2313 0.929 . S
C2327 C2326 1.399 . S
C2327 C2328 1.385 . S
C2328 H2314 0.931 . S
C2328 C2327 1.385 . S
C2328 C2329 1.389 . S
C2329 C2328 1.389 . S
C2329 C2330 1.387 . S
C2330 H2315 0.930 . S
C2330 C2325 1.390 . S
C2330 C2329 1.387 . S
H2331 C2343 0.930 . S
H2332 C2345 0.930 . S
H2333 C2346 0.930 . S
H2334 C2350 0.959 . S
H2335 C2350 0.959 1_554 S
H2336 C2350 0.961 . S
H2337 C2351 0.960 . S
H2338 C2351 0.961 . S
H2339 C2351 0.959 . S
H2340 C2354 0.929 1_556 S
H2341 C2355 0.931 . S
H2342 C2357 0.930 . S
C2343 H2331 0.930 . S
C2343 C2344 1.399 . S
C2343 C2348 1.399 . S
C2344 C2343 1.399 . S
C2344 C2345 1.376 . S
C2345 H2332 0.930 . S
C2345 C2344 1.376 . S
C2345 C2346 1.388 . S
C2346 H2333 0.930 . S
C2346 C2345 1.388 . S
C2346 C2347 1.390 . S
C2347 C2346 1.390 . S
C2347 C2348 1.394 . S
C2347 C2353 1.465 . S
C2348 C2343 1.399 . S
C2348 C2347 1.394 . S
C2348 C2349 1.523 . S
C2349 C2348 1.523 . S
C2349 C2350 1.503 . S
C2349 C2351 1.557 1_556 S
C2349 C2352 1.522 1_556 S
C2350 H2334 0.959 . S
C2350 H2335 0.959 1_556 S
C2350 H2336 0.961 . S
C2350 C2349 1.503 . S
C2351 H2337 0.960 . S
C2351 H2338 0.961 . S
C2351 H2339 0.959 . S
C2351 C2349 1.557 1_554 S
C2352 C2349 1.522 1_554 S
C2352 C2353 1.396 1_554 S
C2352 C2357 1.390 . S
C2353 C2347 1.465 . S
C2353 C2352 1.396 1_556 S
C2353 C2354 1.399 1_556 S
C2354 H2340 0.929 1_554 S
C2354 C2353 1.399 1_554 S
C2354 C2355 1.385 . S
C2355 H2341 0.931 . S
C2355 C2354 1.385 . S
C2355 C2356 1.389 . S
C2356 C2355 1.389 . S
C2356 C2357 1.387 . S
C2357 H2342 0.930 . S
C2357 C2352 1.390 . S
C2357 C2356 1.387 . S
H2358 C2370 0.930 . S
H2359 C2372 0.930 . S
H2360 C2373 0.930 . S
H2361 C2377 0.959 . S
H2362 C2377 0.959 . S
H2363 C2377 0.961 1_556 S
H2364 C2378 0.960 . S
H2365 C2378 0.961 . S
H2366 C2378 0.959 . S
H2367 C2381 0.929 . S
H2368 C2382 0.931 . S
H2369 C2384 0.930 . S
C2370 H2358 0.930 . S
C2370 C2371 1.399 . S
C2370 C2375 1.399 . S
C2371 C2370 1.399 . S
C2371 C2372 1.376 . S
C2372 H2359 0.930 . S
C2372 C2371 1.376 . S
C2372 C2373 1.388 . S
C2373 H2360 0.930 . S
C2373 C2372 1.388 . S
C2373 C2374 1.390 . S
C2374 C2373 1.390 . S
C2374 C2375 1.394 . S
C2374 C2380 1.494 . S
C2375 C2370 1.399 . S
C2375 C2374 1.394 . S
C2375 C2376 1.516 . S
C2376 C2375 1.516 . S
C2376 C2377 1.502 1_556 S
C2376 C2378 1.561 . S
C2376 C2379 1.526 1_556 S
C2377 H2361 0.959 . S
C2377 H2362 0.959 . S
C2377 H2363 0.961 1_554 S
C2377 C2376 1.502 1_554 S
C2378 H2364 0.960 . S
C2378 H2365 0.961 . S
C2378 H2366 0.959 . S
C2378 C2376 1.561 . S
C2379 C2376 1.526 1_554 S
C2379 C2380 1.385 1_554 S
C2379 C2384 1.390 . S
C2380 C2374 1.494 . S
C2380 C2379 1.385 1_556 S
C2380 C2381 1.382 1_556 S
C2381 H2367 0.929 . S
C2381 C2380 1.382 1_554 S
C2381 C2382 1.385 . S
C2382 H2368 0.931 . S
C2382 C2381 1.385 . S
C2382 C2383 1.389 . S
C2383 C2382 1.389 . S
C2383 C2384 1.387 . S
C2384 H2369 0.930 . S
C2384 C2379 1.390 . S
C2384 C2383 1.387 . S
H2385 C2397 0.930 . S
H2386 C2399 0.930 . S
H2387 C2400 0.930 . S
H2388 C2404 0.959 . S
H2389 C2404 0.959 . S
H2390 C2404 0.961 . S
H2391 C2405 0.960 1_556 S
H2392 C2405 0.961 . S
H2393 C2405 0.959 . S
H2394 C2408 0.929 . S
H2395 C2409 0.931 . S
H2396 C2411 0.930 . S
C2397 H2385 0.930 . S
C2397 C2398 1.399 . S
C2397 C2402 1.399 . S
C2398 C2397 1.399 . S
C2398 C2399 1.376 . S
C2399 H2386 0.930 . S
C2399 C2398 1.376 . S
C2399 C2400 1.388 . S
C2400 H2387 0.930 . S
C2400 C2399 1.388 . S
C2400 C2401 1.390 . S
C2401 C2400 1.390 . S
C2401 C2402 1.394 . S
C2401 C2407 1.465 1_556 S
C2402 C2397 1.399 . S
C2402 C2401 1.394 . S
C2402 C2403 1.516 . S
C2403 C2402 1.516 . S
C2403 C2404 1.502 . S
C2403 C2405 1.561 1_556 S
C2403 C2406 1.526 1_556 S
C2404 H2388 0.959 . S
C2404 H2389 0.959 . S
C2404 H2390 0.961 . S
C2404 C2403 1.502 . S
C2405 H2391 0.960 1_554 S
C2405 H2392 0.961 . S
C2405 H2393 0.959 . S
C2405 C2403 1.561 1_554 S
C2406 C2403 1.526 1_554 S
C2406 C2407 1.396 . S
C2406 C2411 1.390 . S
C2407 C2401 1.465 1_554 S
C2407 C2406 1.396 . S
C2407 C2408 1.399 . S
C2408 H2394 0.929 . S
C2408 C2407 1.399 . S
C2408 C2409 1.385 . S
C2409 H2395 0.931 . S
C2409 C2408 1.385 . S
C2409 C2410 1.389 . S
C2410 C2409 1.389 . S
C2410 C2411 1.387 . S
C2411 H2396 0.930 . S
C2411 C2406 1.390 . S
C2411 C2410 1.387 . S
H2412 C2424 0.930 . S
H2413 C2426 0.930 . S
H2414 C2427 0.930 . S
H2415 C2431 0.959 . S
H2416 C2431 0.959 . S
H2417 C2431 0.961 . S
H2418 C2432 0.960 . S
H2419 C2432 0.961 . S
H2420 C2432 0.959 . S
H2421 C2435 0.929 . S
H2422 C2436 0.931 . S
H2423 C2438 0.930 . S
C2424 H2412 0.930 . S
C2424 C2425 1.399 . S
C2424 C2429 1.399 . S
C2425 C2424 1.399 . S
C2425 C2426 1.376 . S
C2426 H2413 0.930 . S
C2426 C2425 1.376 . S
C2426 C2427 1.388 . S
C2427 H2414 0.930 . S
C2427 C2426 1.388 . S
C2427 C2428 1.390 . S
C2428 C2427 1.390 . S
C2428 C2429 1.394 . S
C2428 C2434 1.465 . S
C2429 C2424 1.399 . S
C2429 C2428 1.394 . S
C2429 C2430 1.516 . S
C2430 C2429 1.516 . S
C2430 C2431 1.502 . S
C2430 C2432 1.561 . S
C2430 C2433 1.526 . S
C2431 H2415 0.959 . S
C2431 H2416 0.959 . S
C2431 H2417 0.961 . S
C2431 C2430 1.502 . S
C2432 H2418 0.960 . S
C2432 H2419 0.961 . S
C2432 H2420 0.959 . S
C2432 C2430 1.561 . S
C2433 C2430 1.526 . S
C2433 C2434 1.396 . S
C2433 C2438 1.390 . S
C2434 C2428 1.465 . S
C2434 C2433 1.396 . S
C2434 C2435 1.399 . S
C2435 H2421 0.929 . S
C2435 C2434 1.399 . S
C2435 C2436 1.385 . S
C2436 H2422 0.931 . S
C2436 C2435 1.385 . S
C2436 C2437 1.389 . S
C2437 C2436 1.389 . S
C2437 C2438 1.387 . S
C2438 H2423 0.930 . S
C2438 C2433 1.390 . S
C2438 C2437 1.387 . S
H2439 C2451 0.930 . S
H2440 C2453 0.930 . S
H2441 C2454 0.930 . S
H2442 C2458 0.959 . S
H2443 C2458 0.959 . S
H2444 C2458 0.961 . S
H2445 C2459 0.960 . S
H2446 C2459 0.961 . S
H2447 C2459 0.959 . S
H2448 C2462 0.929 . S
H2449 C2463 0.931 . S
H2450 C2465 0.930 . S
C2451 H2439 0.930 . S
C2451 C2452 1.399 . S
C2451 C2456 1.399 . S
C2452 C2451 1.399 . S
C2452 C2453 1.376 . S
C2453 H2440 0.930 . S
C2453 C2452 1.376 . S
C2453 C2454 1.388 . S
C2454 H2441 0.930 . S
C2454 C2453 1.388 . S
C2454 C2455 1.390 . S
C2455 C2454 1.390 . S
C2455 C2456 1.394 . S
C2455 C2461 1.465 . S
C2456 C2451 1.399 . S
C2456 C2455 1.394 . S
C2456 C2457 1.516 . S
C2457 C2456 1.516 . S
C2457 C2458 1.502 . S
C2457 C2459 1.561 . S
C2457 C2460 1.526 . S
C2458 H2442 0.959 . S
C2458 H2443 0.959 . S
C2458 H2444 0.961 . S
C2458 C2457 1.502 . S
C2459 H2445 0.960 . S
C2459 H2446 0.961 . S
C2459 H2447 0.959 . S
C2459 C2457 1.561 . S
C2460 C2457 1.526 . S
C2460 C2461 1.396 . S
C2460 C2465 1.390 . S
C2461 C2455 1.465 . S
C2461 C2460 1.396 . S
C2461 C2462 1.399 . S
C2462 H2448 0.929 . S
C2462 C2461 1.399 . S
C2462 C2463 1.385 . S
C2463 H2449 0.931 . S
C2463 C2462 1.385 . S
C2463 C2464 1.389 . S
C2464 C2463 1.389 . S
C2464 C2465 1.387 . S
C2465 H2450 0.930 . S
C2465 C2460 1.390 . S
C2465 C2464 1.387 . S
H2466 C2478 0.930 . S
H2467 C2480 0.930 . S
H2468 C2481 0.930 . S
H2469 C2485 0.959 . S
H2470 C2485 0.959 . S
H2471 C2485 0.961 . S
H2472 C2486 0.960 . S
H2473 C2486 0.961 . S
H2474 C2486 0.959 . S
H2475 C2489 0.929 . S
H2476 C2490 0.931 . S
H2477 C2492 0.930 . S
C2478 H2466 0.930 . S
C2478 C2479 1.399 . S
C2478 C2483 1.399 . S
C2479 C2478 1.399 . S
C2479 C2480 1.376 . S
C2480 H2467 0.930 . S
C2480 C2479 1.376 . S
C2480 C2481 1.388 . S
C2481 H2468 0.930 . S
C2481 C2480 1.388 . S
C2481 C2482 1.390 . S
C2482 C2481 1.390 . S
C2482 C2483 1.394 . S
C2482 C2488 1.465 . S
C2483 C2478 1.399 . S
C2483 C2482 1.394 . S
C2483 C2484 1.516 . S
C2484 C2483 1.516 . S
C2484 C2485 1.502 . S
C2484 C2486 1.561 . S
C2484 C2487 1.526 . S
C2485 H2469 0.959 . S
C2485 H2470 0.959 . S
C2485 H2471 0.961 . S
C2485 C2484 1.502 . S
C2486 H2472 0.960 . S
C2486 H2473 0.961 . S
C2486 H2474 0.959 . S
C2486 C2484 1.561 . S
C2487 C2484 1.526 . S
C2487 C2488 1.396 . S
C2487 C2492 1.390 . S
C2488 C2482 1.465 . S
C2488 C2487 1.396 . S
C2488 C2489 1.399 . S
C2489 H2475 0.929 . S
C2489 C2488 1.399 . S
C2489 C2490 1.385 . S
C2490 H2476 0.931 . S
C2490 C2489 1.385 . S
C2490 C2491 1.389 . S
C2491 C2490 1.389 . S
C2491 C2492 1.387 . S
C2492 H2477 0.930 . S
C2492 C2487 1.390 . S
C2492 C2491 1.387 . S
H2493 C2505 0.930 . S
H2494 C2507 0.930 . S
H2495 C2508 0.930 . S
H2496 C2512 0.959 . S
H2497 C2512 0.959 . S
H2498 C2512 0.961 . S
H2499 C2513 0.960 . S
H2500 C2513 0.961 . S
H2501 C2513 0.959 . S
H2502 C2516 0.929 . S
H2503 C2517 0.931 . S
H2504 C2519 0.930 . S
C2505 H2493 0.930 . S
C2505 C2506 1.399 . S
C2505 C2510 1.399 . S
C2506 C2505 1.399 . S
C2506 C2507 1.376 . S
C2507 H2494 0.930 . S
C2507 C2506 1.376 . S
C2507 C2508 1.388 . S
C2508 H2495 0.930 . S
C2508 C2507 1.388 . S
C2508 C2509 1.390 . S
C2509 C2508 1.390 . S
C2509 C2510 1.394 . S
C2509 C2515 1.465 . S
C2510 C2505 1.399 . S
C2510 C2509 1.394 . S
C2510 C2511 1.516 . S
C2511 C2510 1.516 . S
C2511 C2512 1.502 . S
C2511 C2513 1.561 . S
C2511 C2514 1.526 . S
C2512 H2496 0.959 . S
C2512 H2497 0.959 . S
C2512 H2498 0.961 . S
C2512 C2511 1.502 . S
C2513 H2499 0.960 . S
C2513 H2500 0.961 . S
C2513 H2501 0.959 . S
C2513 C2511 1.561 . S
C2514 C2511 1.526 . S
C2514 C2515 1.396 . S
C2514 C2519 1.390 1_556 S
C2515 C2509 1.465 . S
C2515 C2514 1.396 . S
C2515 C2516 1.399 . S
C2516 H2502 0.929 . S
C2516 C2515 1.399 . S
C2516 C2517 1.385 1_556 S
C2517 H2503 0.931 . S
C2517 C2516 1.385 1_554 S
C2517 C2518 1.389 . S
C2518 C2517 1.389 . S
C2518 C2519 1.387 . S
C2519 H2504 0.930 . S
C2519 C2514 1.390 1_554 S
C2519 C2518 1.387 . S
H2520 C2532 0.930 . S
H2521 C2534 0.930 . S
H2522 C2535 0.930 . S
H2523 C2539 0.959 . S
H2524 C2539 0.959 1_554 S
H2525 C2539 0.961 . S
H2526 C2540 0.960 . S
H2527 C2540 0.961 1_554 S
H2528 C2540 0.959 . S
H2529 C2543 0.929 . S
H2530 C2544 0.931 . S
H2531 C2546 0.930 . S
C2532 H2520 0.930 . S
C2532 C2533 1.399 . S
C2532 C2537 1.399 . S
C2533 C2532 1.399 . S
C2533 C2534 1.376 . S
C2534 H2521 0.930 . S
C2534 C2533 1.376 . S
C2534 C2535 1.388 . S
C2535 H2522 0.930 . S
C2535 C2534 1.388 . S
C2535 C2536 1.390 . S
C2536 C2535 1.390 . S
C2536 C2537 1.394 . S
C2536 C2542 1.465 . S
C2537 C2532 1.399 . S
C2537 C2536 1.394 . S
C2537 C2538 1.516 . S
C2538 C2537 1.516 . S
C2538 C2539 1.502 . S
C2538 C2540 1.561 . S
C2538 C2541 1.526 . S
C2539 H2523 0.959 . S
C2539 H2524 0.959 1_556 S
C2539 H2525 0.961 . S
C2539 C2538 1.502 . S
C2540 H2526 0.960 . S
C2540 H2527 0.961 1_556 S
C2540 H2528 0.959 . S
C2540 C2538 1.561 . S
C2541 C2538 1.526 . S
C2541 C2542 1.396 . S
C2541 C2546 1.390 1_556 S
C2542 C2536 1.465 . S
C2542 C2541 1.396 . S
C2542 C2543 1.399 . S
C2543 H2529 0.929 . S
C2543 C2542 1.399 . S
C2543 C2544 1.385 1_556 S
C2544 H2530 0.931 . S
C2544 C2543 1.385 1_554 S
C2544 C2545 1.389 . S
C2545 C2544 1.389 . S
C2545 C2546 1.387 . S
C2546 H2531 0.930 . S
C2546 C2541 1.390 1_554 S
C2546 C2545 1.387 . S
H2547 C2559 0.930 . S
H2548 C2561 0.930 . S
H2549 C2562 0.930 . S
H2550 C2566 0.959 . S
H2551 C2566 0.959 . S
H2552 C2566 0.961 . S
H2553 C2567 0.983 . S
H2554 C2567 0.961 . S
H2555 C2567 0.959 . S
H2556 C2570 0.929 . S
H2557 C2571 0.931 . S
H2558 C2573 0.930 . S
C2559 H2547 0.930 . S
C2559 C2560 1.399 . S
C2559 C2564 1.399 1_554 S
C2560 C2559 1.399 . S
C2560 C2561 1.376 . S
C2561 H2548 0.930 . S
C2561 C2560 1.376 . S
C2561 C2562 1.388 1_554 S
C2562 H2549 0.930 . S
C2562 C2561 1.388 1_556 S
C2562 C2563 1.390 . S
C2563 C2562 1.390 . S
C2563 C2564 1.394 . S
C2563 C2569 1.465 . S
C2564 C2559 1.399 1_556 S
C2564 C2563 1.394 . S
C2564 C2565 1.516 . S
C2565 C2564 1.516 . S
C2565 C2566 1.502 . S
C2565 C2567 1.561 . S
C2565 C2568 1.526 . S
C2566 H2550 0.959 . S
C2566 H2551 0.959 . S
C2566 H2552 0.961 . S
C2566 C2565 1.502 . S
C2567 H2553 0.983 . S
C2567 H2554 0.961 . S
C2567 H2555 0.959 . S
C2567 C2565 1.561 . S
C2568 C2565 1.526 . S
C2568 C2569 1.396 . S
C2568 C2573 1.390 . S
C2569 C2563 1.465 . S
C2569 C2568 1.396 . S
C2569 C2570 1.399 . S
C2570 H2556 0.929 . S
C2570 C2569 1.399 . S
C2570 C2571 1.385 . S
C2571 H2557 0.931 . S
C2571 C2570 1.385 . S
C2571 C2572 1.389 . S
C2572 C2571 1.389 . S
C2572 C2573 1.387 . S
C2573 H2558 0.930 . S
C2573 C2568 1.390 . S
C2573 C2572 1.387 . S
H2574 C2586 0.930 . S
H2575 C2588 0.930 . S
H2576 C2589 0.930 . S
H2577 C2593 0.959 . S
H2578 C2593 0.959 . S
H2579 C2593 0.961 . S
H2580 C2594 0.960 . S
H2581 C2594 0.961 . S
H2582 C2594 0.959 . S
H2583 C2597 0.929 . S
H2584 C2598 0.931 . S
H2585 C2600 0.930 . S
C2586 H2574 0.930 . S
C2586 C2587 1.399 . S
C2586 C2591 1.399 . S
C2587 C2586 1.399 . S
C2587 C2588 1.376 . S
C2588 H2575 0.930 . S
C2588 C2587 1.376 . S
C2588 C2589 1.388 . S
C2589 H2576 0.930 . S
C2589 C2588 1.388 . S
C2589 C2590 1.390 . S
C2590 C2589 1.390 . S
C2590 C2591 1.394 . S
C2590 C2596 1.465 . S
C2591 C2586 1.399 . S
C2591 C2590 1.394 . S
C2591 C2592 1.516 . S
C2592 C2591 1.516 . S
C2592 C2593 1.502 . S
C2592 C2594 1.561 . S
C2592 C2595 1.526 . S
C2593 H2577 0.959 . S
C2593 H2578 0.959 . S
C2593 H2579 0.961 . S
C2593 C2592 1.502 . S
C2594 H2580 0.960 . S
C2594 H2581 0.961 . S
C2594 H2582 0.959 . S
C2594 C2592 1.561 . S
C2595 C2592 1.526 . S
C2595 C2596 1.396 . S
C2595 C2600 1.390 . S
C2596 C2590 1.465 . S
C2596 C2595 1.396 . S
C2596 C2597 1.399 . S
C2597 H2583 0.929 . S
C2597 C2596 1.399 . S
C2597 C2598 1.385 . S
C2598 H2584 0.931 . S
C2598 C2597 1.385 . S
C2598 C2599 1.389 . S
C2599 C2598 1.389 . S
C2599 C2600 1.387 . S
C2600 H2585 0.930 . S
C2600 C2595 1.390 . S
C2600 C2599 1.387 . S
H2601 C2613 0.930 . S
H2602 C2615 0.930 . S
H2603 C2616 0.930 . S
H2604 C2620 0.959 . S
H2605 C2620 0.959 . S
H2606 C2620 0.961 . S
H2607 C2621 0.960 . S
H2608 C2621 0.961 . S
H2609 C2621 0.959 . S
H2610 C2624 0.929 . S
H2611 C2625 0.931 . S
H2612 C2627 0.930 . S
C2613 H2601 0.930 . S
C2613 C2614 1.399 . S
C2613 C2618 1.399 . S
C2614 C2613 1.399 . S
C2614 C2615 1.376 . S
C2615 H2602 0.930 . S
C2615 C2614 1.376 . S
C2615 C2616 1.388 . S
C2616 H2603 0.930 . S
C2616 C2615 1.388 . S
C2616 C2617 1.390 . S
C2617 C2616 1.390 . S
C2617 C2618 1.394 . S
C2617 C2623 1.465 . S
C2618 C2613 1.399 . S
C2618 C2617 1.394 . S
C2618 C2619 1.516 . S
C2619 C2618 1.516 . S
C2619 C2620 1.502 . S
C2619 C2621 1.561 . S
C2619 C2622 1.526 . S
C2620 H2604 0.959 . S
C2620 H2605 0.959 . S
C2620 H2606 0.961 . S
C2620 C2619 1.502 . S
C2621 H2607 0.960 . S
C2621 H2608 0.961 . S
C2621 H2609 0.959 . S
C2621 C2619 1.561 . S
C2622 C2619 1.526 . S
C2622 C2623 1.396 . S
C2622 C2627 1.390 . S
C2623 C2617 1.465 . S
C2623 C2622 1.396 . S
C2623 C2624 1.399 . S
C2624 H2610 0.929 . S
C2624 C2623 1.399 . S
C2624 C2625 1.385 . S
C2625 H2611 0.931 . S
C2625 C2624 1.385 . S
C2625 C2626 1.389 . S
C2626 C2625 1.389 . S
C2626 C2627 1.387 . S
C2627 H2612 0.930 . S
C2627 C2622 1.390 . S
C2627 C2626 1.387 . S
H2628 C2640 0.930 . S
H2629 C2642 0.930 . S
H2630 C2643 0.930 . S
H2631 C2647 0.959 . S
H2632 C2647 0.959 . S
H2633 C2647 0.961 . S
H2634 C2648 0.960 . S
H2635 C2648 0.961 . S
H2636 C2648 0.959 . S
H2637 C2651 0.929 . S
H2638 C2652 0.931 . S
H2639 C2654 0.930 . S
C2640 H2628 0.930 . S
C2640 C2641 1.399 . S
C2640 C2645 1.399 . S
C2641 C2640 1.399 . S
C2641 C2642 1.376 . S
C2642 H2629 0.930 . S
C2642 C2641 1.376 . S
C2642 C2643 1.388 . S
C2643 H2630 0.930 . S
C2643 C2642 1.388 . S
C2643 C2644 1.390 . S
C2644 C2643 1.390 . S
C2644 C2645 1.394 . S
C2644 C2650 1.465 . S
C2645 C2640 1.399 . S
C2645 C2644 1.394 . S
C2645 C2646 1.516 . S
C2646 C2645 1.516 . S
C2646 C2647 1.502 . S
C2646 C2648 1.561 . S
C2646 C2649 1.526 . S
C2647 H2631 0.959 . S
C2647 H2632 0.959 . S
C2647 H2633 0.961 . S
C2647 C2646 1.502 . S
C2648 H2634 0.960 . S
C2648 H2635 0.961 . S
C2648 H2636 0.959 . S
C2648 C2646 1.561 . S
C2649 C2646 1.526 . S
C2649 C2650 1.396 . S
C2649 C2654 1.390 . S
C2650 C2644 1.465 . S
C2650 C2649 1.396 . S
C2650 C2651 1.399 . S
C2651 H2637 0.929 . S
C2651 C2650 1.399 . S
C2651 C2652 1.385 . S
C2652 H2638 0.931 . S
C2652 C2651 1.385 . S
C2652 C2653 1.389 . S
C2653 C2652 1.389 . S
C2653 C2654 1.387 . S
C2654 H2639 0.930 . S
C2654 C2649 1.390 . S
C2654 C2653 1.387 . S
H2655 C2667 0.930 . S
H2656 C2669 0.930 . S
H2657 C2670 0.930 . S
H2658 C2674 0.959 . S
H2659 C2674 0.959 . S
H2660 C2674 0.961 . S
H2661 C2675 0.960 . S
H2662 C2675 0.961 . S
H2663 C2675 0.959 . S
H2664 C2678 0.929 . S
H2665 C2679 0.931 . S
H2666 C2681 0.930 . S
C2667 H2655 0.930 . S
C2667 C2668 1.399 . S
C2667 C2672 1.399 . S
C2668 C2667 1.399 . S
C2668 C2669 1.376 . S
C2669 H2656 0.930 . S
C2669 C2668 1.376 . S
C2669 C2670 1.388 . S
C2670 H2657 0.930 . S
C2670 C2669 1.388 . S
C2670 C2671 1.390 . S
C2671 C2670 1.390 . S
C2671 C2672 1.394 . S
C2671 C2677 1.465 . S
C2672 C2667 1.399 . S
C2672 C2671 1.394 . S
C2672 C2673 1.516 . S
C2673 C2672 1.516 . S
C2673 C2674 1.502 . S
C2673 C2675 1.561 . S
C2673 C2676 1.526 . S
C2674 H2658 0.959 . S
C2674 H2659 0.959 . S
C2674 H2660 0.961 . S
C2674 C2673 1.502 . S
C2675 H2661 0.960 . S
C2675 H2662 0.961 . S
C2675 H2663 0.959 . S
C2675 C2673 1.561 . S
C2676 C2673 1.526 . S
C2676 C2677 1.396 . S
C2676 C2681 1.390 . S
C2677 C2671 1.465 . S
C2677 C2676 1.396 . S
C2677 C2678 1.399 . S
C2678 H2664 0.929 . S
C2678 C2677 1.399 . S
C2678 C2679 1.385 . S
C2679 H2665 0.931 . S
C2679 C2678 1.385 . S
C2679 C2680 1.389 . S
C2680 C2679 1.389 . S
C2680 C2681 1.387 . S
C2681 H2666 0.930 . S
C2681 C2676 1.390 . S
C2681 C2680 1.387 . S
H2682 C2694 0.930 . S
H2683 C2696 0.930 . S
H2684 C2697 0.930 . S
H2685 C2701 0.959 . S
H2686 C2701 0.959 . S
H2687 C2701 0.961 . S
H2688 C2702 0.960 . S
H2689 C2702 0.961 . S
H2690 C2702 0.959 . S
H2691 C2705 0.929 . S
H2692 C2706 0.931 . S
H2693 C2708 0.930 . S
C2694 H2682 0.930 . S
C2694 C2695 1.399 . S
C2694 C2699 1.399 . S
C2695 C2694 1.399 . S
C2695 C2696 1.376 . S
C2696 H2683 0.930 . S
C2696 C2695 1.376 . S
C2696 C2697 1.388 . S
C2697 H2684 0.930 . S
C2697 C2696 1.388 . S
C2697 C2698 1.390 . S
C2698 C2697 1.390 . S
C2698 C2699 1.394 . S
C2698 C2704 1.465 . S
C2699 C2694 1.399 . S
C2699 C2698 1.394 . S
C2699 C2700 1.516 . S
C2700 C2699 1.516 . S
C2700 C2701 1.502 . S
C2700 C2702 1.561 . S
C2700 C2703 1.526 . S
C2701 H2685 0.959 . S
C2701 H2686 0.959 . S
C2701 H2687 0.961 . S
C2701 C2700 1.502 . S
C2702 H2688 0.960 . S
C2702 H2689 0.961 . S
C2702 H2690 0.959 . S
C2702 C2700 1.561 . S
C2703 C2700 1.526 . S
C2703 C2704 1.396 . S
C2703 C2708 1.390 . S
C2704 C2698 1.465 . S
C2704 C2703 1.396 . S
C2704 C2705 1.399 . S
C2705 H2691 0.929 . S
C2705 C2704 1.399 . S
C2705 C2706 1.385 . S
C2706 H2692 0.931 . S
C2706 C2705 1.385 . S
C2706 C2707 1.389 . S
C2707 C2706 1.389 . S
C2707 C2708 1.387 . S
C2708 H2693 0.930 . S
C2708 C2703 1.390 . S
C2708 C2707 1.387 . S
H2709 C2721 0.930 . S
H2710 C2723 0.930 . S
H2711 C2724 0.930 . S
H2712 C2728 0.959 . S
H2713 C2728 0.959 . S
H2714 C2728 0.961 . S
H2715 C2729 0.960 . S
H2716 C2729 0.961 . S
H2717 C2729 0.959 . S
H2718 C2732 0.929 . S
H2719 C2733 0.931 . S
H2720 C2735 0.930 . S
C2721 H2709 0.930 . S
C2721 C2722 1.399 . S
C2721 C2726 1.399 . S
C2722 C2721 1.399 . S
C2722 C2723 1.376 . S
C2723 H2710 0.930 . S
C2723 C2722 1.376 . S
C2723 C2724 1.388 . S
C2724 H2711 0.930 . S
C2724 C2723 1.388 . S
C2724 C2725 1.390 . S
C2725 C2724 1.390 . S
C2725 C2726 1.394 . S
C2725 C2731 1.465 . S
C2726 C2721 1.399 . S
C2726 C2725 1.394 . S
C2726 C2727 1.516 . S
C2727 C2726 1.516 . S
C2727 C2728 1.502 . S
C2727 C2729 1.561 . S
C2727 C2730 1.526 . S
C2728 H2712 0.959 . S
C2728 H2713 0.959 . S
C2728 H2714 0.961 . S
C2728 C2727 1.502 . S
C2729 H2715 0.960 . S
C2729 H2716 0.961 . S
C2729 H2717 0.959 . S
C2729 C2727 1.561 . S
C2730 C2727 1.526 . S
C2730 C2731 1.396 . S
C2730 C2735 1.390 . S
C2731 C2725 1.465 . S
C2731 C2730 1.396 . S
C2731 C2732 1.399 . S
C2732 H2718 0.929 . S
C2732 C2731 1.399 . S
C2732 C2733 1.385 . S
C2733 H2719 0.931 . S
C2733 C2732 1.385 . S
C2733 C2734 1.389 . S
C2734 C2733 1.389 . S
C2734 C2735 1.387 . S
C2735 H2720 0.930 . S
C2735 C2730 1.390 . S
C2735 C2734 1.387 . S
H2736 C2748 0.930 . S
H2737 C2750 0.930 . S
H2738 C2751 0.936 . S
H2739 C2755 0.959 . S
H2740 C2755 0.959 1_554 S
H2741 C2755 0.961 . S
H2742 C2756 0.960 . S
H2743 C2756 0.961 . S
H2744 C2756 0.959 . S
H2745 C2759 0.929 . S
H2746 C2760 0.931 . S
H2747 C2762 0.930 . S
C2748 H2736 0.930 . S
C2748 C2749 1.399 . S
C2748 C2753 1.399 . S
C2749 C2748 1.399 . S
C2749 C2750 1.376 . S
C2750 H2737 0.930 . S
C2750 C2749 1.376 . S
C2750 C2751 1.388 . S
C2751 H2738 0.936 . S
C2751 C2750 1.388 . S
C2751 C2752 1.390 1_556 S
C2752 C2751 1.390 1_554 S
C2752 C2753 1.394 1_554 S
C2752 C2758 1.465 . S
C2753 C2748 1.399 . S
C2753 C2752 1.394 1_556 S
C2753 C2754 1.516 1_556 S
C2754 C2753 1.516 1_554 S
C2754 C2755 1.502 1_554 S
C2754 C2756 1.561 . S
C2754 C2757 1.526 . S
C2755 H2739 0.959 . S
C2755 H2740 0.959 1_556 S
C2755 H2741 0.961 . S
C2755 C2754 1.502 1_556 S
C2756 H2742 0.960 . S
C2756 H2743 0.961 . S
C2756 H2744 0.959 . S
C2756 C2754 1.561 . S
C2757 C2754 1.526 . S
C2757 C2758 1.396 . S
C2757 C2762 1.390 . S
C2758 C2752 1.465 . S
C2758 C2757 1.396 . S
C2758 C2759 1.399 . S
C2759 H2745 0.929 . S
C2759 C2758 1.399 . S
C2759 C2760 1.385 . S
C2760 H2746 0.931 . S
C2760 C2759 1.385 . S
C2760 C2761 1.389 . S
C2761 C2760 1.389 . S
C2761 C2762 1.387 . S
C2762 H2747 0.930 . S
C2762 C2757 1.390 . S
C2762 C2761 1.387 . S
H2763 C2775 0.930 . S
H2764 C2777 0.930 . S
H2765 C2778 0.930 . S
H2766 C2782 0.959 . S
H2767 C2782 0.959 . S
H2768 C2782 0.961 . S
H2769 C2783 0.960 . S
H2770 C2783 0.961 . S
H2771 C2783 0.959 . S
H2772 C2786 0.929 . S
H2773 C2787 0.931 . S
H2774 C2789 0.930 . S
C2775 H2763 0.930 . S
C2775 C2776 1.399 . S
C2775 C2780 1.399 . S
C2776 C2775 1.399 . S
C2776 C2777 1.376 . S
C2777 H2764 0.930 . S
C2777 C2776 1.376 . S
C2777 C2778 1.388 . S
C2778 H2765 0.930 . S
C2778 C2777 1.388 . S
C2778 C2779 1.390 . S
C2779 C2778 1.390 . S
C2779 C2780 1.394 . S
C2779 C2785 1.465 1_556 S
C2780 C2775 1.399 . S
C2780 C2779 1.394 . S
C2780 C2781 1.516 1_556 S
C2781 C2780 1.516 1_554 S
C2781 C2782 1.502 . S
C2781 C2783 1.561 . S
C2781 C2784 1.526 . S
C2782 H2766 0.959 . S
C2782 H2767 0.959 . S
C2782 H2768 0.961 . S
C2782 C2781 1.502 . S
C2783 H2769 0.960 . S
C2783 H2770 0.961 . S
C2783 H2771 0.959 . S
C2783 C2781 1.561 . S
C2784 C2781 1.526 . S
C2784 C2785 1.396 . S
C2784 C2789 1.390 . S
C2785 C2779 1.465 1_554 S
C2785 C2784 1.396 . S
C2785 C2786 1.399 . S
C2786 H2772 0.929 . S
C2786 C2785 1.399 . S
C2786 C2787 1.385 . S
C2787 H2773 0.931 . S
C2787 C2786 1.385 . S
C2787 C2788 1.389 . S
C2788 C2787 1.389 . S
C2788 C2789 1.387 . S
C2789 H2774 0.930 . S
C2789 C2784 1.390 . S
C2789 C2788 1.387 . S
H2790 C2802 0.930 . S
H2791 C2804 0.930 . S
H2792 C2805 0.930 . S
H2793 C2809 0.959 . S
H2794 C2809 0.959 . S
H2795 C2809 0.961 . S
H2796 C2810 0.942 1_556 S
H2797 C2810 0.961 . S
H2798 C2810 0.959 . S
H2799 C2813 0.929 . S
H2800 C2814 0.931 . S
H2801 C2816 0.930 . S
C2802 H2790 0.930 . S
C2802 C2803 1.399 . S
C2802 C2807 1.399 . S
C2803 C2802 1.399 . S
C2803 C2804 1.376 . S
C2804 H2791 0.930 . S
C2804 C2803 1.376 . S
C2804 C2805 1.388 . S
C2805 H2792 0.930 . S
C2805 C2804 1.388 . S
C2805 C2806 1.390 . S
C2806 C2805 1.390 . S
C2806 C2807 1.394 . S
C2806 C2812 1.465 1_556 S
C2807 C2802 1.399 . S
C2807 C2806 1.394 . S
C2807 C2808 1.516 1_556 S
C2808 C2807 1.516 1_554 S
C2808 C2809 1.502 . S
C2808 C2810 1.561 . S
C2808 C2811 1.526 . S
C2809 H2793 0.959 . S
C2809 H2794 0.959 . S
C2809 H2795 0.961 . S
C2809 C2808 1.502 . S
C2810 H2796 0.942 1_554 S
C2810 H2797 0.961 . S
C2810 H2798 0.959 . S
C2810 C2808 1.561 . S
C2811 C2808 1.526 . S
C2811 C2812 1.396 . S
C2811 C2816 1.390 . S
C2812 C2806 1.465 1_554 S
C2812 C2811 1.396 . S
C2812 C2813 1.399 . S
C2813 H2799 0.929 . S
C2813 C2812 1.399 . S
C2813 C2814 1.385 . S
C2814 H2800 0.931 . S
C2814 C2813 1.385 . S
C2814 C2815 1.389 . S
C2815 C2814 1.389 . S
C2815 C2816 1.387 . S
C2816 H2801 0.930 . S
C2816 C2811 1.390 . S
C2816 C2815 1.387 . S
H2817 C2829 0.930 . S
H2818 C2831 0.930 . S
H2819 C2832 0.930 . S
H2820 C2836 0.959 . S
H2821 C2836 0.959 . S
H2822 C2836 0.961 . S
H2823 C2837 0.960 . S
H2824 C2837 0.961 . S
H2825 C2837 0.959 . S
H2826 C2840 0.929 . S
H2827 C2841 0.931 . S
H2828 C2843 0.930 . S
C2829 H2817 0.930 . S
C2829 C2830 1.399 . S
C2829 C2834 1.399 . S
C2830 C2829 1.399 . S
C2830 C2831 1.376 . S
C2831 H2818 0.930 . S
C2831 C2830 1.376 . S
C2831 C2832 1.388 . S
C2832 H2819 0.930 . S
C2832 C2831 1.388 . S
C2832 C2833 1.390 . S
C2833 C2832 1.390 . S
C2833 C2834 1.394 . S
C2833 C2839 1.465 . S
C2834 C2829 1.399 . S
C2834 C2833 1.394 . S
C2834 C2835 1.516 . S
C2835 C2834 1.516 . S
C2835 C2836 1.502 . S
C2835 C2837 1.561 . S
C2835 C2838 1.526 . S
C2836 H2820 0.959 . S
C2836 H2821 0.959 . S
C2836 H2822 0.961 . S
C2836 C2835 1.502 . S
C2837 H2823 0.960 . S
C2837 H2824 0.961 . S
C2837 H2825 0.959 . S
C2837 C2835 1.561 . S
C2838 C2835 1.526 . S
C2838 C2839 1.396 . S
C2838 C2843 1.390 . S
C2839 C2833 1.465 . S
C2839 C2838 1.396 . S
C2839 C2840 1.399 . S
C2840 H2826 0.929 . S
C2840 C2839 1.399 . S
C2840 C2841 1.385 . S
C2841 H2827 0.931 . S
C2841 C2840 1.385 . S
C2841 C2842 1.389 . S
C2842 C2841 1.389 . S
C2842 C2843 1.387 . S
C2843 H2828 0.930 . S
C2843 C2838 1.390 . S
C2843 C2842 1.387 . S
H2844 C2856 0.930 . S
H2845 C2858 0.930 . S
H2846 C2859 0.930 . S
H2847 C2863 0.959 . S
H2848 C2863 0.959 . S
H2849 C2863 0.961 . S
H2850 C2864 0.960 . S
H2851 C2864 0.961 . S
H2852 C2864 0.959 . S
H2853 C2867 0.929 . S
H2854 C2868 0.931 . S
H2855 C2870 0.930 . S
C2856 H2844 0.930 . S
C2856 C2857 1.399 . S
C2856 C2861 1.399 . S
C2857 C2856 1.399 . S
C2857 C2858 1.376 . S
C2858 H2845 0.930 . S
C2858 C2857 1.376 . S
C2858 C2859 1.388 . S
C2859 H2846 0.930 . S
C2859 C2858 1.388 . S
C2859 C2860 1.390 . S
C2860 C2859 1.390 . S
C2860 C2861 1.394 . S
C2860 C2866 1.465 . S
C2861 C2856 1.399 . S
C2861 C2860 1.394 . S
C2861 C2862 1.516 . S
C2862 C2861 1.516 . S
C2862 C2863 1.502 . S
C2862 C2864 1.561 . S
C2862 C2865 1.526 . S
C2863 H2847 0.959 . S
C2863 H2848 0.959 . S
C2863 H2849 0.961 . S
C2863 C2862 1.502 . S
C2864 H2850 0.960 . S
C2864 H2851 0.961 . S
C2864 H2852 0.959 . S
C2864 C2862 1.561 . S
C2865 C2862 1.526 . S
C2865 C2866 1.396 . S
C2865 C2870 1.390 . S
C2866 C2860 1.465 . S
C2866 C2865 1.396 . S
C2866 C2867 1.399 . S
C2867 H2853 0.929 . S
C2867 C2866 1.399 . S
C2867 C2868 1.385 . S
C2868 H2854 0.931 . S
C2868 C2867 1.385 . S
C2868 C2869 1.389 . S
C2869 C2868 1.389 . S
C2869 C2870 1.387 . S
C2870 H2855 0.930 . S
C2870 C2865 1.390 . S
C2870 C2869 1.387 . S
H2871 C2883 0.930 . S
H2872 C2885 0.930 . S
H2873 C2886 0.930 . S
H2874 C2890 0.959 . S
H2875 C2890 0.959 . S
H2876 C2890 0.961 . S
H2877 C2891 0.960 . S
H2878 C2891 0.961 . S
H2879 C2891 0.959 . S
H2880 C2894 0.929 . S
H2881 C2895 0.931 . S
H2882 C2897 0.930 . S
C2883 H2871 0.930 . S
C2883 C2884 1.399 . S
C2883 C2888 1.399 . S
C2884 C2883 1.399 . S
C2884 C2885 1.376 . S
C2885 H2872 0.930 . S
C2885 C2884 1.376 . S
C2885 C2886 1.388 . S
C2886 H2873 0.930 . S
C2886 C2885 1.388 . S
C2886 C2887 1.390 . S
C2887 C2886 1.390 . S
C2887 C2888 1.394 . S
C2887 C2893 1.465 . S
C2888 C2883 1.399 . S
C2888 C2887 1.394 . S
C2888 C2889 1.516 . S
C2889 C2888 1.516 . S
C2889 C2890 1.502 . S
C2889 C2891 1.561 . S
C2889 C2892 1.526 . S
C2890 H2874 0.959 . S
C2890 H2875 0.959 . S
C2890 H2876 0.961 . S
C2890 C2889 1.502 . S
C2891 H2877 0.960 . S
C2891 H2878 0.961 . S
C2891 H2879 0.959 . S
C2891 C2889 1.561 . S
C2892 C2889 1.526 . S
C2892 C2893 1.396 . S
C2892 C2897 1.390 . S
C2893 C2887 1.465 . S
C2893 C2892 1.396 . S
C2893 C2894 1.399 . S
C2894 H2880 0.929 . S
C2894 C2893 1.399 . S
C2894 C2895 1.385 . S
C2895 H2881 0.931 . S
C2895 C2894 1.385 . S
C2895 C2896 1.389 . S
C2896 C2895 1.389 . S
C2896 C2897 1.387 . S
C2897 H2882 0.930 . S
C2897 C2892 1.390 . S
C2897 C2896 1.387 . S
H2898 C2910 0.930 . S
H2899 C2912 0.930 . S
H2900 C2913 0.930 . S
H2901 C2917 0.959 . S
H2902 C2917 0.959 . S
H2903 C2917 0.961 . S
H2904 C2918 0.960 . S
H2905 C2918 0.961 . S
H2906 C2918 0.959 . S
H2907 C2921 0.929 . S
H2908 C2922 0.931 . S
H2909 C2924 0.930 . S
C2910 H2898 0.930 . S
C2910 C2911 1.399 . S
C2910 C2915 1.399 . S
C2911 C2910 1.399 . S
C2911 C2912 1.376 . S
C2912 H2899 0.930 . S
C2912 C2911 1.376 . S
C2912 C2913 1.388 . S
C2913 H2900 0.930 . S
C2913 C2912 1.388 . S
C2913 C2914 1.390 . S
C2914 C2913 1.390 . S
C2914 C2915 1.394 . S
C2914 C2920 1.465 . S
C2915 C2910 1.399 . S
C2915 C2914 1.394 . S
C2915 C2916 1.516 . S
C2916 C2915 1.516 . S
C2916 C2917 1.502 . S
C2916 C2918 1.561 . S
C2916 C2919 1.526 . S
C2917 H2901 0.959 . S
C2917 H2902 0.959 . S
C2917 H2903 0.961 . S
C2917 C2916 1.502 . S
C2918 H2904 0.960 . S
C2918 H2905 0.961 . S
C2918 H2906 0.959 . S
C2918 C2916 1.561 . S
C2919 C2916 1.526 . S
C2919 C2920 1.396 . S
C2919 C2924 1.390 . S
C2920 C2914 1.465 . S
C2920 C2919 1.396 . S
C2920 C2921 1.399 . S
C2921 H2907 0.929 . S
C2921 C2920 1.399 . S
C2921 C2922 1.385 . S
C2922 H2908 0.931 . S
C2922 C2921 1.385 . S
C2922 C2923 1.389 . S
C2923 C2922 1.389 . S
C2923 C2924 1.387 . S
C2924 H2909 0.930 . S
C2924 C2919 1.390 . S
C2924 C2923 1.387 . S
H2925 C2937 0.930 . S
H2926 C2939 0.930 . S
H2927 C2940 0.930 . S
H2928 C2944 0.959 . S
H2929 C2944 0.959 . S
H2930 C2944 0.961 . S
H2931 C2945 0.960 . S
H2932 C2945 0.961 . S
H2933 C2945 0.959 . S
H2934 C2948 0.929 . S
H2935 C2949 0.931 . S
H2936 C2951 0.930 . S
C2937 H2925 0.930 . S
C2937 C2938 1.399 . S
C2937 C2942 1.399 . S
C2938 C2937 1.399 . S
C2938 C2939 1.376 . S
C2939 H2926 0.930 . S
C2939 C2938 1.376 . S
C2939 C2940 1.388 . S
C2940 H2927 0.930 . S
C2940 C2939 1.388 . S
C2940 C2941 1.390 . S
C2941 C2940 1.390 . S
C2941 C2942 1.394 . S
C2941 C2947 1.465 . S
C2942 C2937 1.399 . S
C2942 C2941 1.394 . S
C2942 C2943 1.516 . S
C2943 C2942 1.516 . S
C2943 C2944 1.502 . S
C2943 C2945 1.561 . S
C2943 C2946 1.526 . S
C2944 H2928 0.959 . S
C2944 H2929 0.959 . S
C2944 H2930 0.961 . S
C2944 C2943 1.502 . S
C2945 H2931 0.960 . S
C2945 H2932 0.961 . S
C2945 H2933 0.959 . S
C2945 C2943 1.561 . S
C2946 C2943 1.526 . S
C2946 C2947 1.396 . S
C2946 C2951 1.390 . S
C2947 C2941 1.465 . S
C2947 C2946 1.396 . S
C2947 C2948 1.399 . S
C2948 H2934 0.929 . S
C2948 C2947 1.399 . S
C2948 C2949 1.385 . S
C2949 H2935 0.931 . S
C2949 C2948 1.385 . S
C2949 C2950 1.389 . S
C2950 C2949 1.389 . S
C2950 C2951 1.387 . S
C2951 H2936 0.930 . S
C2951 C2946 1.390 . S
C2951 C2950 1.387 . S
H2952 C2964 0.930 . S
H2953 C2966 0.930 . S
H2954 C2967 0.930 . S
H2955 C2971 0.959 . S
H2956 C2971 0.959 . S
H2957 C2971 0.961 . S
H2958 C2972 0.960 . S
H2959 C2972 0.961 . S
H2960 C2972 0.959 . S
H2961 C2975 0.929 . S
H2962 C2976 0.931 . S
H2963 C2978 0.930 . S
C2964 H2952 0.930 . S
C2964 C2965 1.399 . S
C2964 C2969 1.399 . S
C2965 C2964 1.399 . S
C2965 C2966 1.376 . S
C2966 H2953 0.930 . S
C2966 C2965 1.376 . S
C2966 C2967 1.388 . S
C2967 H2954 0.930 . S
C2967 C2966 1.388 . S
C2967 C2968 1.390 . S
C2968 C2967 1.390 . S
C2968 C2969 1.394 . S
C2968 C2974 1.465 . S
C2969 C2964 1.399 . S
C2969 C2968 1.394 . S
C2969 C2970 1.516 . S
C2970 C2969 1.516 . S
C2970 C2971 1.502 . S
C2970 C2972 1.561 . S
C2970 C2973 1.526 . S
C2971 H2955 0.959 . S
C2971 H2956 0.959 . S
C2971 H2957 0.961 . S
C2971 C2970 1.502 . S
C2972 H2958 0.960 . S
C2972 H2959 0.961 . S
C2972 H2960 0.959 . S
C2972 C2970 1.561 . S
C2973 C2970 1.526 . S
C2973 C2974 1.396 . S
C2973 C2978 1.390 . S
C2974 C2968 1.465 . S
C2974 C2973 1.396 . S
C2974 C2975 1.399 . S
C2975 H2961 0.929 . S
C2975 C2974 1.399 . S
C2975 C2976 1.385 . S
C2976 H2962 0.931 . S
C2976 C2975 1.385 . S
C2976 C2977 1.389 . S
C2977 C2976 1.389 . S
C2977 C2978 1.387 . S
C2978 H2963 0.930 . S
C2978 C2973 1.390 . S
C2978 C2977 1.387 . S
H2979 C2991 0.930 . S
H2980 C2993 0.930 . S
H2981 C2994 0.930 . S
H2982 C2998 0.959 . S
H2983 C2998 0.959 . S
H2984 C2998 0.961 . S
H2985 C2999 0.960 . S
H2986 C2999 0.961 . S
H2987 C2999 0.959 . S
H2988 C3002 0.929 . S
H2989 C3003 0.931 . S
H2990 C3005 0.930 . S
C2991 H2979 0.930 . S
C2991 C2992 1.399 . S
C2991 C2996 1.399 . S
C2992 C2991 1.399 . S
C2992 C2993 1.376 . S
C2993 H2980 0.930 . S
C2993 C2992 1.376 . S
C2993 C2994 1.388 . S
C2994 H2981 0.930 . S
C2994 C2993 1.388 . S
C2994 C2995 1.390 . S
C2995 C2994 1.390 . S
C2995 C2996 1.394 . S
C2995 C3001 1.465 . S
C2996 C2991 1.399 . S
C2996 C2995 1.394 . S
C2996 C2997 1.516 . S
C2997 C2996 1.516 . S
C2997 C2998 1.502 . S
C2997 C2999 1.561 . S
C2997 C3000 1.526 . S
C2998 H2982 0.959 . S
C2998 H2983 0.959 . S
C2998 H2984 0.961 . S
C2998 C2997 1.502 . S
C2999 H2985 0.960 . S
C2999 H2986 0.961 . S
C2999 H2987 0.959 . S
C2999 C2997 1.561 . S
C3000 C2997 1.526 . S
C3000 C3001 1.396 . S
C3000 C3005 1.390 . S
C3001 C2995 1.465 . S
C3001 C3000 1.396 . S
C3001 C3002 1.399 . S
C3002 H2988 0.929 . S
C3002 C3001 1.399 . S
C3002 C3003 1.385 . S
C3003 H2989 0.931 . S
C3003 C3002 1.385 . S
C3003 C3004 1.389 . S
C3004 C3003 1.389 . S
C3004 C3005 1.387 . S
C3005 H2990 0.930 . S
C3005 C3000 1.390 . S
C3005 C3004 1.387 . S
H3006 C3018 0.930 . S
H3007 C3020 0.930 . S
H3008 C3021 0.930 . S
H3009 C3025 0.959 . S
H3010 C3025 0.959 . S
H3011 C3025 0.961 . S
H3012 C3026 0.960 . S
H3013 C3026 0.961 . S
H3014 C3026 0.959 . S
H3015 C3029 0.929 . S
H3016 C3030 0.931 . S
H3017 C3032 0.930 . S
C3018 H3006 0.930 . S
C3018 C3019 1.399 . S
C3018 C3023 1.399 . S
C3019 C3018 1.399 . S
C3019 C3020 1.376 . S
C3020 H3007 0.930 . S
C3020 C3019 1.376 . S
C3020 C3021 1.388 . S
C3021 H3008 0.930 . S
C3021 C3020 1.388 . S
C3021 C3022 1.390 . S
C3022 C3021 1.390 . S
C3022 C3023 1.394 . S
C3022 C3028 1.465 . S
C3023 C3018 1.399 . S
C3023 C3022 1.394 . S
C3023 C3024 1.516 . S
C3024 C3023 1.516 . S
C3024 C3025 1.502 . S
C3024 C3026 1.561 . S
C3024 C3027 1.526 . S
C3025 H3009 0.959 . S
C3025 H3010 0.959 . S
C3025 H3011 0.961 . S
C3025 C3024 1.502 . S
C3026 H3012 0.960 . S
C3026 H3013 0.961 . S
C3026 H3014 0.959 . S
C3026 C3024 1.561 . S
C3027 C3024 1.526 . S
C3027 C3028 1.396 . S
C3027 C3032 1.390 . S
C3028 C3022 1.465 . S
C3028 C3027 1.396 . S
C3028 C3029 1.399 . S
C3029 H3015 0.929 . S
C3029 C3028 1.399 . S
C3029 C3030 1.385 . S
C3030 H3016 0.931 . S
C3030 C3029 1.385 . S
C3030 C3031 1.389 . S
C3031 C3030 1.389 . S
C3031 C3032 1.387 . S
C3032 H3017 0.930 . S
C3032 C3027 1.390 . S
C3032 C3031 1.387 . S
H3033 C3045 0.930 . S
H3034 C3047 0.930 . S
H3035 C3048 0.930 . S
H3036 C3052 0.959 . S
H3037 C3052 0.959 . S
H3038 C3052 0.961 . S
H3039 C3053 0.960 . S
H3040 C3053 0.961 . S
H3041 C3053 0.959 . S
H3042 C3056 0.929 . S
H3043 C3057 0.931 . S
H3044 C3059 0.930 . S
C3045 H3033 0.930 . S
C3045 C3046 1.399 . S
C3045 C3050 1.399 . S
C3046 C3045 1.399 . S
C3046 C3047 1.376 . S
C3047 H3034 0.930 . S
C3047 C3046 1.376 . S
C3047 C3048 1.388 . S
C3048 H3035 0.930 . S
C3048 C3047 1.388 . S
C3048 C3049 1.390 . S
C3049 C3048 1.390 . S
C3049 C3050 1.394 . S
C3049 C3055 1.465 . S
C3050 C3045 1.399 . S
C3050 C3049 1.394 . S
C3050 C3051 1.516 . S
C3051 C3050 1.516 . S
C3051 C3052 1.502 . S
C3051 C3053 1.561 . S
C3051 C3054 1.526 . S
C3052 H3036 0.959 . S
C3052 H3037 0.959 . S
C3052 H3038 0.961 . S
C3052 C3051 1.502 . S
C3053 H3039 0.960 . S
C3053 H3040 0.961 . S
C3053 H3041 0.959 . S
C3053 C3051 1.561 . S
C3054 C3051 1.526 . S
C3054 C3055 1.396 . S
C3054 C3059 1.390 . S
C3055 C3049 1.465 . S
C3055 C3054 1.396 . S
C3055 C3056 1.399 . S
C3056 H3042 0.929 . S
C3056 C3055 1.399 . S
C3056 C3057 1.385 . S
C3057 H3043 0.931 . S
C3057 C3056 1.385 . S
C3057 C3058 1.389 . S
C3058 C3057 1.389 . S
C3058 C3059 1.387 . S
C3059 H3044 0.930 . S
C3059 C3054 1.390 . S
C3059 C3058 1.387 . S
H3060 C3072 0.930 . S
H3061 C3074 0.930 . S
H3062 C3075 0.930 . S
H3063 C3079 0.959 . S
H3064 C3079 0.959 . S
H3065 C3079 0.961 . S
H3066 C3080 0.960 . S
H3067 C3080 0.961 . S
H3068 C3080 0.959 . S
H3069 C3083 0.929 . S
H3070 C3084 0.931 . S
H3071 C3086 0.930 . S
C3072 H3060 0.930 . S
C3072 C3073 1.399 . S
C3072 C3077 1.399 . S
C3073 C3072 1.399 . S
C3073 C3074 1.376 . S
C3074 H3061 0.930 . S
C3074 C3073 1.376 . S
C3074 C3075 1.388 . S
C3075 H3062 0.930 . S
C3075 C3074 1.388 . S
C3075 C3076 1.390 . S
C3076 C3075 1.390 . S
C3076 C3077 1.394 . S
C3076 C3082 1.465 . S
C3077 C3072 1.399 . S
C3077 C3076 1.394 . S
C3077 C3078 1.516 . S
C3078 C3077 1.516 . S
C3078 C3079 1.502 . S
C3078 C3080 1.561 . S
C3078 C3081 1.526 . S
C3079 H3063 0.959 . S
C3079 H3064 0.959 . S
C3079 H3065 0.961 . S
C3079 C3078 1.502 . S
C3080 H3066 0.960 . S
C3080 H3067 0.961 . S
C3080 H3068 0.959 . S
C3080 C3078 1.561 . S
C3081 C3078 1.526 . S
C3081 C3082 1.396 . S
C3081 C3086 1.390 . S
C3082 C3076 1.465 . S
C3082 C3081 1.396 . S
C3082 C3083 1.399 . S
C3083 H3069 0.929 . S
C3083 C3082 1.399 . S
C3083 C3084 1.385 . S
C3084 H3070 0.931 . S
C3084 C3083 1.385 . S
C3084 C3085 1.389 . S
C3085 C3084 1.389 . S
C3085 C3086 1.387 . S
C3086 H3071 0.930 . S
C3086 C3081 1.390 . S
C3086 C3085 1.387 . S
H3087 C3099 0.930 . S
H3088 C3101 0.930 . S
H3089 C3102 0.930 . S
H3090 C3106 0.959 . S
H3091 C3106 0.959 . S
H3092 C3106 0.961 . S
H3093 C3107 0.960 . S
H3094 C3107 0.961 . S
H3095 C3107 0.959 . S
H3096 C3110 0.929 . S
H3097 C3111 0.931 . S
H3098 C3113 0.930 . S
C3099 H3087 0.930 . S
C3099 C3100 1.399 . S
C3099 C3104 1.399 . S
C3100 C3099 1.399 . S
C3100 C3101 1.376 . S
C3101 H3088 0.930 . S
C3101 C3100 1.376 . S
C3101 C3102 1.388 . S
C3102 H3089 0.930 . S
C3102 C3101 1.388 . S
C3102 C3103 1.390 . S
C3103 C3102 1.390 . S
C3103 C3104 1.394 . S
C3103 C3109 1.465 . S
C3104 C3099 1.399 . S
C3104 C3103 1.394 . S
C3104 C3105 1.516 . S
C3105 C3104 1.516 . S
C3105 C3106 1.502 . S
C3105 C3107 1.561 . S
C3105 C3108 1.526 . S
C3106 H3090 0.959 . S
C3106 H3091 0.959 . S
C3106 H3092 0.961 . S
C3106 C3105 1.502 . S
C3107 H3093 0.960 . S
C3107 H3094 0.961 . S
C3107 H3095 0.959 . S
C3107 C3105 1.561 . S
C3108 C3105 1.526 . S
C3108 C3109 1.396 . S
C3108 C3113 1.390 . S
C3109 C3103 1.465 . S
C3109 C3108 1.396 . S
C3109 C3110 1.399 . S
C3110 H3096 0.929 . S
C3110 C3109 1.399 . S
C3110 C3111 1.385 . S
C3111 H3097 0.931 . S
C3111 C3110 1.385 . S
C3111 C3112 1.389 . S
C3112 C3111 1.389 . S
C3112 C3113 1.387 . S
C3113 H3098 0.930 . S
C3113 C3108 1.390 . S
C3113 C3112 1.387 . S
H3114 C3126 0.930 . S
H3115 C3128 0.930 . S
H3116 C3129 0.930 . S
H3117 C3133 0.959 . S
H3118 C3133 0.959 . S
H3119 C3133 0.961 . S
H3120 C3134 0.960 . S
H3121 C3134 0.961 . S
H3122 C3134 0.959 . S
H3123 C3137 0.929 . S
H3124 C3138 0.931 . S
H3125 C3140 0.930 . S
C3126 H3114 0.930 . S
C3126 C3127 1.399 . S
C3126 C3131 1.399 . S
C3127 C3126 1.399 . S
C3127 C3128 1.376 . S
C3128 H3115 0.930 . S
C3128 C3127 1.376 . S
C3128 C3129 1.388 . S
C3129 H3116 0.930 . S
C3129 C3128 1.388 . S
C3129 C3130 1.390 . S
C3130 C3129 1.390 . S
C3130 C3131 1.394 . S
C3130 C3136 1.465 . S
C3131 C3126 1.399 . S
C3131 C3130 1.394 . S
C3131 C3132 1.516 . S
C3132 C3131 1.516 . S
C3132 C3133 1.502 . S
C3132 C3134 1.561 . S
C3132 C3135 1.526 . S
C3133 H3117 0.959 . S
C3133 H3118 0.959 . S
C3133 H3119 0.961 . S
C3133 C3132 1.502 . S
C3134 H3120 0.960 . S
C3134 H3121 0.961 . S
C3134 H3122 0.959 . S
C3134 C3132 1.561 . S
C3135 C3132 1.526 . S
C3135 C3136 1.396 . S
C3135 C3140 1.390 . S
C3136 C3130 1.465 . S
C3136 C3135 1.396 . S
C3136 C3137 1.399 . S
C3137 H3123 0.929 . S
C3137 C3136 1.399 . S
C3137 C3138 1.385 . S
C3138 H3124 0.931 . S
C3138 C3137 1.385 . S
C3138 C3139 1.389 . S
C3139 C3138 1.389 . S
C3139 C3140 1.387 . S
C3140 H3125 0.930 . S
C3140 C3135 1.390 . S
C3140 C3139 1.387 . S
H3141 C3153 0.930 . S
H3142 C3155 0.930 . S
H3143 C3156 0.930 . S
H3144 C3160 0.959 . S
H3145 C3160 0.959 . S
H3146 C3160 0.961 . S
H3147 C3161 0.960 . S
H3148 C3161 0.961 . S
H3149 C3161 0.959 . S
H3150 C3164 0.929 . S
H3151 C3165 0.931 . S
H3152 C3167 0.930 . S
C3153 H3141 0.930 . S
C3153 C3154 1.399 . S
C3153 C3158 1.399 . S
C3154 C3153 1.399 . S
C3154 C3155 1.376 . S
C3155 H3142 0.930 . S
C3155 C3154 1.376 . S
C3155 C3156 1.388 . S
C3156 H3143 0.930 . S
C3156 C3155 1.388 . S
C3156 C3157 1.390 . S
C3157 C3156 1.390 . S
C3157 C3158 1.394 . S
C3157 C3163 1.465 . S
C3158 C3153 1.399 . S
C3158 C3157 1.394 . S
C3158 C3159 1.516 . S
C3159 C3158 1.516 . S
C3159 C3160 1.502 . S
C3159 C3161 1.561 . S
C3159 C3162 1.526 . S
C3160 H3144 0.959 . S
C3160 H3145 0.959 . S
C3160 H3146 0.961 . S
C3160 C3159 1.502 . S
C3161 H3147 0.960 . S
C3161 H3148 0.961 . S
C3161 H3149 0.959 . S
C3161 C3159 1.561 . S
C3162 C3159 1.526 . S
C3162 C3163 1.396 . S
C3162 C3167 1.390 . S
C3163 C3157 1.465 . S
C3163 C3162 1.396 . S
C3163 C3164 1.399 . S
C3164 H3150 0.929 . S
C3164 C3163 1.399 . S
C3164 C3165 1.385 . S
C3165 H3151 0.931 . S
C3165 C3164 1.385 . S
C3165 C3166 1.389 . S
C3166 C3165 1.389 . S
C3166 C3167 1.387 . S
C3167 H3152 0.930 . S
C3167 C3162 1.390 . S
C3167 C3166 1.387 . S
H3168 C3180 0.930 . S
H3169 C3182 0.930 . S
H3170 C3183 0.930 . S
H3171 C3187 0.959 . S
H3172 C3187 0.959 . S
H3173 C3187 0.961 . S
H3174 C3188 0.960 . S
H3175 C3188 0.961 . S
H3176 C3188 0.959 . S
H3177 C3191 0.929 . S
H3178 C3192 0.931 . S
H3179 C3194 0.930 . S
C3180 H3168 0.930 . S
C3180 C3181 1.399 . S
C3180 C3185 1.399 . S
C3181 C3180 1.399 . S
C3181 C3182 1.376 . S
C3182 H3169 0.930 . S
C3182 C3181 1.376 . S
C3182 C3183 1.388 . S
C3183 H3170 0.930 . S
C3183 C3182 1.388 . S
C3183 C3184 1.390 . S
C3184 C3183 1.390 . S
C3184 C3185 1.394 . S
C3184 C3190 1.465 . S
C3185 C3180 1.399 . S
C3185 C3184 1.394 . S
C3185 C3186 1.516 . S
C3186 C3185 1.516 . S
C3186 C3187 1.502 . S
C3186 C3188 1.561 . S
C3186 C3189 1.526 . S
C3187 H3171 0.959 . S
C3187 H3172 0.959 . S
C3187 H3173 0.961 . S
C3187 C3186 1.502 . S
C3188 H3174 0.960 . S
C3188 H3175 0.961 . S
C3188 H3176 0.959 . S
C3188 C3186 1.561 . S
C3189 C3186 1.526 . S
C3189 C3190 1.396 . S
C3189 C3194 1.390 . S
C3190 C3184 1.465 . S
C3190 C3189 1.396 . S
C3190 C3191 1.399 . S
C3191 H3177 0.929 . S
C3191 C3190 1.399 . S
C3191 C3192 1.385 . S
C3192 H3178 0.931 . S
C3192 C3191 1.385 . S
C3192 C3193 1.389 . S
C3193 C3192 1.389 . S
C3193 C3194 1.387 . S
C3194 H3179 0.930 . S
C3194 C3189 1.390 . S
C3194 C3193 1.387 . S
H3195 C3207 0.930 . S
H3196 C3209 0.930 . S
H3197 C3210 0.930 . S
H3198 C3214 0.959 . S
H3199 C3214 0.959 . S
H3200 C3214 0.961 . S
H3201 C3215 0.960 . S
H3202 C3215 0.961 . S
H3203 C3215 0.959 . S
H3204 C3218 0.929 . S
H3205 C3219 0.931 . S
H3206 C3221 0.930 . S
C3207 H3195 0.930 . S
C3207 C3208 1.399 . S
C3207 C3212 1.399 . S
C3208 C3207 1.399 . S
C3208 C3209 1.376 . S
C3209 H3196 0.930 . S
C3209 C3208 1.376 . S
C3209 C3210 1.388 . S
C3210 H3197 0.930 . S
C3210 C3209 1.388 . S
C3210 C3211 1.390 . S
C3211 C3210 1.390 . S
C3211 C3212 1.394 . S
C3211 C3217 1.465 . S
C3212 C3207 1.399 . S
C3212 C3211 1.394 . S
C3212 C3213 1.516 . S
C3213 C3212 1.516 . S
C3213 C3214 1.502 . S
C3213 C3215 1.561 . S
C3213 C3216 1.526 . S
C3214 H3198 0.959 . S
C3214 H3199 0.959 . S
C3214 H3200 0.961 . S
C3214 C3213 1.502 . S
C3215 H3201 0.960 . S
C3215 H3202 0.961 . S
C3215 H3203 0.959 . S
C3215 C3213 1.561 . S
C3216 C3213 1.526 . S
C3216 C3217 1.396 . S
C3216 C3221 1.390 . S
C3217 C3211 1.465 . S
C3217 C3216 1.396 . S
C3217 C3218 1.399 . S
C3218 H3204 0.929 . S
C3218 C3217 1.399 . S
C3218 C3219 1.385 . S
C3219 H3205 0.931 . S
C3219 C3218 1.385 . S
C3219 C3220 1.389 . S
C3220 C3219 1.389 . S
C3220 C3221 1.387 . S
C3221 H3206 0.930 . S
C3221 C3216 1.390 . S
C3221 C3220 1.387 . S
H3222 C3234 0.930 . S
H3223 C3236 0.930 . S
H3224 C3237 0.930 . S
H3225 C3241 0.959 . S
H3226 C3241 0.959 . S
H3227 C3241 0.961 . S
H3228 C3242 0.960 . S
H3229 C3242 0.961 . S
H3230 C3242 0.959 . S
H3231 C3245 0.929 . S
H3232 C3246 0.931 . S
H3233 C3248 0.930 . S
C3234 H3222 0.930 . S
C3234 C3235 1.399 . S
C3234 C3239 1.399 . S
C3235 C3234 1.399 . S
C3235 C3236 1.376 . S
C3236 H3223 0.930 . S
C3236 C3235 1.376 . S
C3236 C3237 1.388 . S
C3237 H3224 0.930 . S
C3237 C3236 1.388 . S
C3237 C3238 1.390 . S
C3238 C3237 1.390 . S
C3238 C3239 1.394 . S
C3238 C3244 1.465 . S
C3239 C3234 1.399 . S
C3239 C3238 1.394 . S
C3239 C3240 1.516 . S
C3240 C3239 1.516 . S
C3240 C3241 1.502 . S
C3240 C3242 1.561 . S
C3240 C3243 1.526 . S
C3241 H3225 0.959 . S
C3241 H3226 0.959 . S
C3241 H3227 0.961 . S
C3241 C3240 1.502 . S
C3242 H3228 0.960 . S
C3242 H3229 0.961 . S
C3242 H3230 0.959 . S
C3242 C3240 1.561 . S
C3243 C3240 1.526 . S
C3243 C3244 1.396 . S
C3243 C3248 1.390 . S
C3244 C3238 1.465 . S
C3244 C3243 1.396 . S
C3244 C3245 1.399 . S
C3245 H3231 0.929 . S
C3245 C3244 1.399 . S
C3245 C3246 1.385 . S
C3246 H3232 0.931 . S
C3246 C3245 1.385 . S
C3246 C3247 1.389 . S
C3247 C3246 1.389 . S
C3247 C3248 1.387 . S
C3248 H3233 0.930 . S
C3248 C3243 1.390 . S
C3248 C3247 1.387 . S
H3249 C3261 0.930 . S
H3250 C3263 0.930 . S
H3251 C3264 0.930 . S
H3252 C3268 0.959 . S
H3253 C3268 0.959 . S
H3254 C3268 0.961 . S
H3255 C3269 0.960 . S
H3256 C3269 0.961 . S
H3257 C3269 0.959 . S
H3258 C3272 0.929 . S
H3259 C3273 0.931 . S
H3260 C3275 0.930 . S
C3261 H3249 0.930 . S
C3261 C3262 1.399 . S
C3261 C3266 1.399 . S
C3262 C3261 1.399 . S
C3262 C3263 1.376 . S
C3263 H3250 0.930 . S
C3263 C3262 1.376 . S
C3263 C3264 1.388 . S
C3264 H3251 0.930 . S
C3264 C3263 1.388 . S
C3264 C3265 1.390 . S
C3265 C3264 1.390 . S
C3265 C3266 1.394 . S
C3265 C3271 1.465 . S
C3266 C3261 1.399 . S
C3266 C3265 1.394 . S
C3266 C3267 1.516 . S
C3267 C3266 1.516 . S
C3267 C3268 1.502 . S
C3267 C3269 1.561 . S
C3267 C3270 1.526 . S
C3268 H3252 0.959 . S
C3268 H3253 0.959 . S
C3268 H3254 0.961 . S
C3268 C3267 1.502 . S
C3269 H3255 0.960 . S
C3269 H3256 0.961 . S
C3269 H3257 0.959 . S
C3269 C3267 1.561 . S
C3270 C3267 1.526 . S
C3270 C3271 1.396 . S
C3270 C3275 1.390 . S
C3271 C3265 1.465 . S
C3271 C3270 1.396 . S
C3271 C3272 1.399 . S
C3272 H3258 0.929 . S
C3272 C3271 1.399 . S
C3272 C3273 1.385 . S
C3273 H3259 0.931 . S
C3273 C3272 1.385 . S
C3273 C3274 1.389 . S
C3274 C3273 1.389 . S
C3274 C3275 1.387 . S
C3275 H3260 0.930 . S
C3275 C3270 1.390 . S
C3275 C3274 1.387 . S
H3276 C3288 0.930 . S
H3277 C3290 0.930 . S
H3278 C3291 0.930 . S
H3279 C3295 0.959 . S
H3280 C3295 0.959 . S
H3281 C3295 0.961 . S
H3282 C3296 0.960 . S
H3283 C3296 0.961 . S
H3284 C3296 0.959 . S
H3285 C3299 0.929 . S
H3286 C3300 0.931 . S
H3287 C3302 0.930 . S
C3288 H3276 0.930 . S
C3288 C3289 1.399 . S
C3288 C3293 1.399 . S
C3289 C3288 1.399 . S
C3289 C3290 1.376 . S
C3290 H3277 0.930 . S
C3290 C3289 1.376 . S
C3290 C3291 1.388 . S
C3291 H3278 0.930 . S
C3291 C3290 1.388 . S
C3291 C3292 1.390 . S
C3292 C3291 1.390 . S
C3292 C3293 1.394 . S
C3292 C3298 1.465 . S
C3293 C3288 1.399 . S
C3293 C3292 1.394 . S
C3293 C3294 1.516 . S
C3294 C3293 1.516 . S
C3294 C3295 1.502 . S
C3294 C3296 1.561 . S
C3294 C3297 1.526 . S
C3295 H3279 0.959 . S
C3295 H3280 0.959 . S
C3295 H3281 0.961 . S
C3295 C3294 1.502 . S
C3296 H3282 0.960 . S
C3296 H3283 0.961 . S
C3296 H3284 0.959 . S
C3296 C3294 1.561 . S
C3297 C3294 1.526 . S
C3297 C3298 1.396 . S
C3297 C3302 1.390 . S
C3298 C3292 1.465 . S
C3298 C3297 1.396 . S
C3298 C3299 1.399 . S
C3299 H3285 0.929 . S
C3299 C3298 1.399 . S
C3299 C3300 1.385 . S
C3300 H3286 0.931 . S
C3300 C3299 1.385 . S
C3300 C3301 1.389 . S
C3301 C3300 1.389 . S
C3301 C3302 1.387 . S
C3302 H3287 0.930 . S
C3302 C3297 1.390 . S
C3302 C3301 1.387 . S
H3303 C3315 0.930 . S
H3304 C3317 0.930 . S
H3305 C3318 0.930 . S
H3306 C3322 0.959 . S
H3307 C3322 0.959 . S
H3308 C3322 0.961 . S
H3309 C3323 0.960 . S
H3310 C3323 0.961 . S
H3311 C3323 0.959 . S
H3312 C3326 0.929 . S
H3313 C3327 0.931 . S
H3314 C3329 0.930 . S
C3315 H3303 0.930 . S
C3315 C3316 1.399 . S
C3315 C3320 1.399 . S
C3316 C3315 1.399 . S
C3316 C3317 1.376 . S
C3317 H3304 0.930 . S
C3317 C3316 1.376 . S
C3317 C3318 1.388 . S
C3318 H3305 0.930 . S
C3318 C3317 1.388 . S
C3318 C3319 1.390 . S
C3319 C3318 1.390 . S
C3319 C3320 1.394 . S
C3319 C3325 1.465 . S
C3320 C3315 1.399 . S
C3320 C3319 1.394 . S
C3320 C3321 1.516 . S
C3321 C3320 1.516 . S
C3321 C3322 1.502 . S
C3321 C3323 1.561 . S
C3321 C3324 1.526 . S
C3322 H3306 0.959 . S
C3322 H3307 0.959 . S
C3322 H3308 0.961 . S
C3322 C3321 1.502 . S
C3323 H3309 0.960 . S
C3323 H3310 0.961 . S
C3323 H3311 0.959 . S
C3323 C3321 1.561 . S
C3324 C3321 1.526 . S
C3324 C3325 1.396 . S
C3324 C3329 1.390 . S
C3325 C3319 1.465 . S
C3325 C3324 1.396 . S
C3325 C3326 1.399 . S
C3326 H3312 0.929 . S
C3326 C3325 1.399 . S
C3326 C3327 1.385 . S
C3327 H3313 0.931 . S
C3327 C3326 1.385 . S
C3327 C3328 1.389 . S
C3328 C3327 1.389 . S
C3328 C3329 1.387 . S
C3329 H3314 0.930 . S
C3329 C3324 1.390 . S
C3329 C3328 1.387 . S
H3330 C3342 0.930 . S
H3331 C3344 0.930 . S
H3332 C3345 0.930 . S
H3333 C3349 0.959 . S
H3334 C3349 0.959 . S
H3335 C3349 0.961 . S
H3336 C3350 0.960 . S
H3337 C3350 0.961 . S
H3338 C3350 0.959 . S
H3339 C3353 0.929 . S
H3340 C3354 0.931 . S
H3341 C3356 0.930 . S
C3342 H3330 0.930 . S
C3342 C3343 1.399 . S
C3342 C3347 1.399 . S
C3343 C3342 1.399 . S
C3343 C3344 1.376 . S
C3344 H3331 0.930 . S
C3344 C3343 1.376 . S
C3344 C3345 1.388 . S
C3345 H3332 0.930 . S
C3345 C3344 1.388 . S
C3345 C3346 1.390 . S
C3346 C3345 1.390 . S
C3346 C3347 1.394 . S
C3346 C3352 1.465 . S
C3347 C3342 1.399 . S
C3347 C3346 1.394 . S
C3347 C3348 1.516 . S
C3348 C3347 1.516 . S
C3348 C3349 1.502 . S
C3348 C3350 1.561 . S
C3348 C3351 1.526 . S
C3349 H3333 0.959 . S
C3349 H3334 0.959 . S
C3349 H3335 0.961 . S
C3349 C3348 1.502 . S
C3350 H3336 0.960 . S
C3350 H3337 0.961 . S
C3350 H3338 0.959 . S
C3350 C3348 1.561 . S
C3351 C3348 1.526 . S
C3351 C3352 1.396 . S
C3351 C3356 1.390 . S
C3352 C3346 1.465 . S
C3352 C3351 1.396 . S
C3352 C3353 1.399 . S
C3353 H3339 0.929 . S
C3353 C3352 1.399 . S
C3353 C3354 1.385 . S
C3354 H3340 0.931 . S
C3354 C3353 1.385 . S
C3354 C3355 1.389 . S
C3355 C3354 1.389 . S
C3355 C3356 1.387 . S
C3356 H3341 0.930 . S
C3356 C3351 1.390 . S
C3356 C3355 1.387 . S
H3357 C3369 0.930 . S
H3358 C3371 0.930 . S
H3359 C3372 0.930 . S
H3360 C3376 0.959 . S
H3361 C3376 0.959 . S
H3362 C3376 0.961 . S
H3363 C3377 0.960 . S
H3364 C3377 0.961 . S
H3365 C3377 0.959 . S
H3366 C3380 0.929 . S
H3367 C3381 0.931 . S
H3368 C3383 0.930 . S
C3369 H3357 0.930 . S
C3369 C3370 1.399 . S
C3369 C3374 1.399 . S
C3370 C3369 1.399 . S
C3370 C3371 1.376 . S
C3371 H3358 0.930 . S
C3371 C3370 1.376 . S
C3371 C3372 1.388 . S
C3372 H3359 0.930 . S
C3372 C3371 1.388 . S
C3372 C3373 1.390 . S
C3373 C3372 1.390 . S
C3373 C3374 1.394 . S
C3373 C3379 1.465 . S
C3374 C3369 1.399 . S
C3374 C3373 1.394 . S
C3374 C3375 1.516 . S
C3375 C3374 1.516 . S
C3375 C3376 1.502 . S
C3375 C3377 1.561 . S
C3375 C3378 1.526 . S
C3376 H3360 0.959 . S
C3376 H3361 0.959 . S
C3376 H3362 0.961 . S
C3376 C3375 1.502 . S
C3377 H3363 0.960 . S
C3377 H3364 0.961 . S
C3377 H3365 0.959 . S
C3377 C3375 1.561 . S
C3378 C3375 1.526 . S
C3378 C3379 1.396 . S
C3378 C3383 1.390 . S
C3379 C3373 1.465 . S
C3379 C3378 1.396 . S
C3379 C3380 1.399 . S
C3380 H3366 0.929 . S
C3380 C3379 1.399 . S
C3380 C3381 1.385 . S
C3381 H3367 0.931 . S
C3381 C3380 1.385 . S
C3381 C3382 1.389 . S
C3382 C3381 1.389 . S
C3382 C3383 1.387 . S
C3383 H3368 0.930 . S
C3383 C3378 1.390 . S
C3383 C3382 1.387 . S
H3384 C3396 0.930 . S
H3385 C3398 0.930 . S
H3386 C3399 0.930 . S
H3387 C3403 0.959 . S
H3388 C3403 0.959 . S
H3389 C3403 0.961 . S
H3390 C3404 0.960 . S
H3391 C3404 0.961 . S
H3392 C3404 0.991 . S
H3393 C3407 0.929 . S
H3394 C3408 0.931 . S
H3395 C3410 0.930 1_455 S
C3396 H3384 0.930 . S
C3396 C3397 1.399 . S
C3396 C3401 1.399 . S
C3397 C3396 1.399 . S
C3397 C3398 1.376 1_455 S
C3398 H3385 0.930 . S
C3398 C3397 1.376 1_655 S
C3398 C3399 1.388 . S
C3399 H3386 0.930 . S
C3399 C3398 1.388 . S
C3399 C3400 1.390 . S
C3400 C3399 1.390 . S
C3400 C3401 1.394 1_655 S
C3400 C3406 1.465 . S
C3401 C3396 1.399 . S
C3401 C3400 1.394 1_455 S
C3401 C3402 1.516 . S
C3402 C3401 1.516 . S
C3402 C3403 1.502 . S
C3402 C3404 1.561 . S
C3402 C3405 1.540 . S
C3403 H3387 0.959 . S
C3403 H3388 0.959 . S
C3403 H3389 0.961 . S
C3403 C3402 1.502 . S
C3404 H3390 0.960 . S
C3404 H3391 0.961 . S
C3404 H3392 0.991 . S
C3404 C3402 1.561 . S
C3405 C3402 1.540 . S
C3405 C3406 1.387 1_455 S
C3405 C3410 1.384 1_455 S
C3406 C3400 1.465 . S
C3406 C3405 1.387 1_655 S
C3406 C3407 1.399 . S
C3407 H3393 0.929 . S
C3407 C3406 1.399 . S
C3407 C3408 1.385 . S
C3408 H3394 0.931 . S
C3408 C3407 1.385 . S
C3408 C3409 1.389 . S
C3409 C3408 1.389 . S
C3409 C3410 1.387 . S
C3410 H3395 0.930 1_655 S
C3410 C3405 1.384 1_655 S
C3410 C3409 1.387 . S
H3411 C3423 0.930 . S
H3412 C3425 0.930 . S
H3413 C3426 0.930 . S
H3414 C3430 0.959 . S
H3415 C3430 0.959 . S
H3416 C3430 0.961 . S
H3417 C3431 0.960 . S
H3418 C3431 0.961 . S
H3419 C3431 0.959 . S
H3420 C3434 0.929 . S
H3421 C3435 0.931 . S
H3422 C3437 0.930 . S
C3423 H3411 0.930 . S
C3423 C3424 1.399 . S
C3423 C3428 1.399 . S
C3424 C3423 1.399 . S
C3424 C3425 1.376 . S
C3425 H3412 0.930 . S
C3425 C3424 1.376 . S
C3425 C3426 1.388 . S
C3426 H3413 0.930 . S
C3426 C3425 1.388 . S
C3426 C3427 1.390 . S
C3427 C3426 1.390 . S
C3427 C3428 1.394 . S
C3427 C3433 1.465 . S
C3428 C3423 1.399 . S
C3428 C3427 1.394 . S
C3428 C3429 1.516 . S
C3429 C3428 1.516 . S
C3429 C3430 1.502 . S
C3429 C3431 1.561 . S
C3429 C3432 1.526 . S
C3430 H3414 0.959 . S
C3430 H3415 0.959 . S
C3430 H3416 0.961 . S
C3430 C3429 1.502 . S
C3431 H3417 0.960 . S
C3431 H3418 0.961 . S
C3431 H3419 0.959 . S
C3431 C3429 1.561 . S
C3432 C3429 1.526 . S
C3432 C3433 1.396 . S
C3432 C3437 1.390 . S
C3433 C3427 1.465 . S
C3433 C3432 1.396 . S
C3433 C3434 1.399 . S
C3434 H3420 0.929 . S
C3434 C3433 1.399 . S
C3434 C3435 1.385 . S
C3435 H3421 0.931 . S
C3435 C3434 1.385 . S
C3435 C3436 1.389 . S
C3436 C3435 1.389 . S
C3436 C3437 1.387 . S
C3437 H3422 0.930 . S
C3437 C3432 1.390 . S
C3437 C3436 1.387 . S
H3438 C3450 0.929 . S
H3439 C3452 0.930 . S
H3440 C3453 0.930 . S
H3441 C3457 0.959 . S
H3442 C3457 0.959 . S
H3443 C3457 0.961 . S
H3444 C3458 0.960 . S
H3445 C3458 0.961 . S
H3446 C3458 0.959 . S
H3447 C3461 0.929 . S
H3448 C3462 0.931 . S
H3449 C3464 0.930 . S
C3450 H3438 0.929 . S
C3450 C3451 1.400 1_545 S
C3450 C3455 1.399 . S
C3451 C3450 1.400 1_565 S
C3451 C3452 1.376 . S
C3452 H3439 0.930 . S
C3452 C3451 1.376 . S
C3452 C3453 1.388 . S
C3453 H3440 0.930 . S
C3453 C3452 1.388 . S
C3453 C3454 1.390 . S
C3454 C3453 1.390 . S
C3454 C3455 1.394 1_565 S
C3454 C3460 1.465 . S
C3455 C3450 1.399 . S
C3455 C3454 1.394 1_545 S
C3455 C3456 1.516 . S
C3456 C3455 1.516 . S
C3456 C3457 1.502 . S
C3456 C3458 1.561 . S
C3456 C3459 1.526 . S
C3457 H3441 0.959 . S
C3457 H3442 0.959 . S
C3457 H3443 0.961 . S
C3457 C3456 1.502 . S
C3458 H3444 0.960 . S
C3458 H3445 0.961 . S
C3458 H3446 0.959 . S
C3458 C3456 1.561 . S
C3459 C3456 1.526 . S
C3459 C3460 1.396 1_545 S
C3459 C3464 1.390 . S
C3460 C3454 1.465 . S
C3460 C3459 1.396 1_565 S
C3460 C3461 1.399 . S
C3461 H3447 0.929 . S
C3461 C3460 1.399 . S
C3461 C3462 1.385 . S
C3462 H3448 0.931 . S
C3462 C3461 1.385 . S
C3462 C3463 1.389 1_565 S
C3463 C3462 1.389 1_545 S
C3463 C3464 1.387 . S
C3464 H3449 0.930 . S
C3464 C3459 1.390 . S
C3464 C3463 1.387 . S
H3465 C3477 0.930 . S
H3466 C3479 0.930 . S
H3467 C3480 0.888 1_455 S
H3468 C3484 0.959 . S
H3469 C3484 0.959 . S
H3470 C3484 0.961 . S
H3471 C3485 0.960 . S
H3472 C3485 0.961 . S
H3473 C3485 0.959 . S
H3474 C3488 0.929 . S
H3475 C3489 0.931 . S
H3476 C3491 0.930 . S
C3477 H3465 0.930 . S
C3477 C3478 1.399 . S
C3477 C3482 1.399 . S
C3478 C3477 1.399 . S
C3478 C3479 1.376 . S
C3479 H3466 0.930 . S
C3479 C3478 1.376 . S
C3479 C3480 1.415 . S
C3480 H3467 0.888 1_655 S
C3480 C3479 1.415 . S
C3480 C3481 1.418 1_655 S
C3481 C3480 1.418 1_455 S
C3481 C3482 1.376 1_455 S
C3481 C3487 1.472 . S
C3482 C3477 1.399 . S
C3482 C3481 1.376 1_655 S
C3482 C3483 1.516 . S
C3483 C3482 1.516 . S
C3483 C3484 1.502 . S
C3483 C3485 1.561 1_655 S
C3483 C3486 1.526 1_655 S
C3484 H3468 0.959 . S
C3484 H3469 0.959 . S
C3484 H3470 0.961 . S
C3484 C3483 1.502 . S
C3485 H3471 0.960 . S
C3485 H3472 0.961 . S
C3485 H3473 0.959 . S
C3485 C3483 1.561 1_455 S
C3486 C3483 1.526 1_455 S
C3486 C3487 1.396 . S
C3486 C3491 1.390 . S
C3487 C3481 1.472 . S
C3487 C3486 1.396 . S
C3487 C3488 1.399 . S
C3488 H3474 0.929 . S
C3488 C3487 1.399 . S
C3488 C3489 1.385 . S
C3489 H3475 0.931 . S
C3489 C3488 1.385 . S
C3489 C3490 1.389 . S
C3490 C3489 1.389 . S
C3490 C3491 1.387 . S
C3491 H3476 0.930 . S
C3491 C3486 1.390 . S
C3491 C3490 1.387 . S
H3492 C3504 0.930 . S
H3493 C3506 0.930 . S
H3494 C3507 0.930 . S
H3495 C3511 0.959 . S
H3496 C3511 0.959 . S
H3497 C3511 0.961 . S
H3498 C3512 0.960 . S
H3499 C3512 0.961 . S
H3500 C3512 0.959 . S
H3501 C3515 0.929 . S
H3502 C3516 0.931 . S
H3503 C3518 0.930 . S
C3504 H3492 0.930 . S
C3504 C3505 1.399 . S
C3504 C3509 1.399 . S
C3505 C3504 1.399 . S
C3505 C3506 1.376 . S
C3506 H3493 0.930 . S
C3506 C3505 1.376 . S
C3506 C3507 1.388 . S
C3507 H3494 0.930 . S
C3507 C3506 1.388 . S
C3507 C3508 1.390 . S
C3508 C3507 1.390 . S
C3508 C3509 1.394 . S
C3508 C3514 1.465 . S
C3509 C3504 1.399 . S
C3509 C3508 1.394 . S
C3509 C3510 1.516 . S
C3510 C3509 1.516 . S
C3510 C3511 1.502 . S
C3510 C3512 1.561 . S
C3510 C3513 1.526 . S
C3511 H3495 0.959 . S
C3511 H3496 0.959 . S
C3511 H3497 0.961 . S
C3511 C3510 1.502 . S
C3512 H3498 0.960 . S
C3512 H3499 0.961 . S
C3512 H3500 0.959 . S
C3512 C3510 1.561 . S
C3513 C3510 1.526 . S
C3513 C3514 1.396 . S
C3513 C3518 1.390 . S
C3514 C3508 1.465 . S
C3514 C3513 1.396 . S
C3514 C3515 1.399 . S
C3515 H3501 0.929 . S
C3515 C3514 1.399 . S
C3515 C3516 1.385 . S
C3516 H3502 0.931 . S
C3516 C3515 1.385 . S
C3516 C3517 1.389 . S
C3517 C3516 1.389 . S
C3517 C3518 1.387 . S
C3518 H3503 0.930 . S
C3518 C3513 1.390 . S
C3518 C3517 1.387 . S
H3519 C3531 0.930 . S
H3520 C3533 0.930 . S
H3521 C3534 0.930 . S
H3522 C3538 0.959 . S
H3523 C3538 0.959 . S
H3524 C3538 0.961 . S
H3525 C3539 0.960 . S
H3526 C3539 0.961 . S
H3527 C3539 0.959 . S
H3528 C3542 0.929 . S
H3529 C3543 0.931 . S
H3530 C3545 0.916 1_545 S
C3531 H3519 0.930 . S
C3531 C3532 1.399 . S
C3531 C3536 1.399 . S
C3532 C3531 1.399 . S
C3532 C3533 1.376 1_545 S
C3533 H3520 0.930 . S
C3533 C3532 1.376 1_565 S
C3533 C3534 1.388 . S
C3534 H3521 0.930 . S
C3534 C3533 1.388 . S
C3534 C3535 1.390 . S
C3535 C3534 1.390 . S
C3535 C3536 1.394 1_565 S
C3535 C3541 1.465 . S
C3536 C3531 1.399 . S
C3536 C3535 1.394 1_545 S
C3536 C3537 1.516 . S
C3537 C3536 1.516 . S
C3537 C3538 1.502 . S
C3537 C3539 1.561 . S
C3537 C3540 1.526 . S
C3538 H3522 0.959 . S
C3538 H3523 0.959 . S
C3538 H3524 0.961 . S
C3538 C3537 1.502 . S
C3539 H3525 0.960 . S
C3539 H3526 0.961 . S
C3539 H3527 0.959 . S
C3539 C3537 1.561 . S
C3540 C3537 1.526 . S
C3540 C3541 1.396 1_545 S
C3540 C3545 1.388 1_545 S
C3541 C3535 1.465 . S
C3541 C3540 1.396 1_565 S
C3541 C3542 1.399 . S
C3542 H3528 0.929 . S
C3542 C3541 1.399 . S
C3542 C3543 1.385 . S
C3543 H3529 0.931 . S
C3543 C3542 1.385 . S
C3543 C3544 1.389 . S
C3544 C3543 1.389 . S
C3544 C3545 1.403 . S
C3545 H3530 0.916 1_565 S
C3545 C3540 1.388 1_565 S
C3545 C3544 1.403 . S
H3546 C3558 0.930 . S
H3547 C3560 0.930 . S
H3548 C3561 0.930 . S
H3549 C3565 0.959 . S
H3550 C3565 0.959 . S
H3551 C3565 0.961 . S
H3552 C3566 0.960 . S
H3553 C3566 0.961 . S
H3554 C3566 0.959 . S
H3555 C3569 0.929 . S
H3556 C3570 0.931 . S
H3557 C3572 0.930 . S
C3558 H3546 0.930 . S
C3558 C3559 1.399 . S
C3558 C3563 1.399 . S
C3559 C3558 1.399 . S
C3559 C3560 1.376 . S
C3560 H3547 0.930 . S
C3560 C3559 1.376 . S
C3560 C3561 1.388 . S
C3561 H3548 0.930 . S
C3561 C3560 1.388 . S
C3561 C3562 1.390 . S
C3562 C3561 1.390 . S
C3562 C3563 1.394 . S
C3562 C3568 1.465 . S
C3563 C3558 1.399 . S
C3563 C3562 1.394 . S
C3563 C3564 1.516 . S
C3564 C3563 1.516 . S
C3564 C3565 1.502 . S
C3564 C3566 1.561 . S
C3564 C3567 1.526 . S
C3565 H3549 0.959 . S
C3565 H3550 0.959 . S
C3565 H3551 0.961 . S
C3565 C3564 1.502 . S
C3566 H3552 0.960 . S
C3566 H3553 0.961 . S
C3566 H3554 0.959 . S
C3566 C3564 1.561 . S
C3567 C3564 1.526 . S
C3567 C3568 1.396 . S
C3567 C3572 1.390 . S
C3568 C3562 1.465 . S
C3568 C3567 1.396 . S
C3568 C3569 1.399 . S
C3569 H3555 0.929 . S
C3569 C3568 1.399 . S
C3569 C3570 1.385 . S
C3570 H3556 0.931 . S
C3570 C3569 1.385 . S
C3570 C3571 1.389 . S
C3571 C3570 1.389 . S
C3571 C3572 1.387 . S
C3572 H3557 0.930 . S
C3572 C3567 1.390 . S
C3572 C3571 1.387 . S
H3573 C3585 0.930 . S
H3574 C3587 0.930 . S
H3575 C3588 0.930 . S
H3576 C3592 0.959 . S
H3577 C3592 0.959 . S
H3578 C3592 0.961 . S
H3579 C3593 0.960 . S
H3580 C3593 0.961 . S
H3581 C3593 0.959 . S
H3582 C3596 0.929 . S
H3583 C3597 0.931 . S
H3584 C3599 0.930 . S
C3585 H3573 0.930 . S
C3585 C3586 1.399 . S
C3585 C3590 1.399 . S
C3586 C3585 1.399 . S
C3586 C3587 1.376 . S
C3587 H3574 0.930 . S
C3587 C3586 1.376 . S
C3587 C3588 1.388 . S
C3588 H3575 0.930 . S
C3588 C3587 1.388 . S
C3588 C3589 1.390 . S
C3589 C3588 1.390 . S
C3589 C3590 1.394 . S
C3589 C3595 1.465 . S
C3590 C3585 1.399 . S
C3590 C3589 1.394 . S
C3590 C3591 1.516 . S
C3591 C3590 1.516 . S
C3591 C3592 1.502 . S
C3591 C3593 1.561 . S
C3591 C3594 1.526 . S
C3592 H3576 0.959 . S
C3592 H3577 0.959 . S
C3592 H3578 0.961 . S
C3592 C3591 1.502 . S
C3593 H3579 0.960 . S
C3593 H3580 0.961 . S
C3593 H3581 0.959 . S
C3593 C3591 1.561 . S
C3594 C3591 1.526 . S
C3594 C3595 1.396 . S
C3594 C3599 1.390 . S
C3595 C3589 1.465 . S
C3595 C3594 1.396 . S
C3595 C3596 1.399 . S
C3596 H3582 0.929 . S
C3596 C3595 1.399 . S
C3596 C3597 1.385 . S
C3597 H3583 0.931 . S
C3597 C3596 1.385 . S
C3597 C3598 1.389 . S
C3598 C3597 1.389 . S
C3598 C3599 1.387 . S
C3599 H3584 0.930 . S
C3599 C3594 1.390 . S
C3599 C3598 1.387 . S
H3600 C3612 0.930 . S
H3601 C3614 0.930 . S
H3602 C3615 0.930 . S
H3603 C3619 0.959 . S
H3604 C3619 0.959 . S
H3605 C3619 0.961 . S
H3606 C3620 0.960 . S
H3607 C3620 0.961 . S
H3608 C3620 0.959 . S
H3609 C3623 0.929 . S
H3610 C3624 0.931 . S
H3611 C3626 0.930 . S
C3612 H3600 0.930 . S
C3612 C3613 1.399 . S
C3612 C3617 1.399 . S
C3613 C3612 1.399 . S
C3613 C3614 1.376 . S
C3614 H3601 0.930 . S
C3614 C3613 1.376 . S
C3614 C3615 1.388 . S
C3615 H3602 0.930 . S
C3615 C3614 1.388 . S
C3615 C3616 1.390 . S
C3616 C3615 1.390 . S
C3616 C3617 1.394 . S
C3616 C3622 1.465 . S
C3617 C3612 1.399 . S
C3617 C3616 1.394 . S
C3617 C3618 1.516 . S
C3618 C3617 1.516 . S
C3618 C3619 1.502 . S
C3618 C3620 1.561 . S
C3618 C3621 1.526 . S
C3619 H3603 0.959 . S
C3619 H3604 0.959 . S
C3619 H3605 0.961 . S
C3619 C3618 1.502 . S
C3620 H3606 0.960 . S
C3620 H3607 0.961 . S
C3620 H3608 0.959 . S
C3620 C3618 1.561 . S
C3621 C3618 1.526 . S
C3621 C3622 1.396 . S
C3621 C3626 1.390 . S
C3622 C3616 1.465 . S
C3622 C3621 1.396 . S
C3622 C3623 1.399 . S
C3623 H3609 0.929 . S
C3623 C3622 1.399 . S
C3623 C3624 1.385 . S
C3624 H3610 0.931 . S
C3624 C3623 1.385 . S
C3624 C3625 1.389 . S
C3625 C3624 1.389 . S
C3625 C3626 1.387 . S
C3626 H3611 0.930 . S
C3626 C3621 1.390 . S
C3626 C3625 1.387 . S
H3627 C3639 0.930 . S
H3628 C3641 0.930 . S
H3629 C3642 0.930 . S
H3630 C3646 0.959 . S
H3631 C3646 0.959 . S
H3632 C3646 0.961 . S
H3633 C3647 0.960 . S
H3634 C3647 0.961 . S
H3635 C3647 0.959 . S
H3636 C3650 0.929 . S
H3637 C3651 0.931 . S
H3638 C3653 0.930 . S
C3639 H3627 0.930 . S
C3639 C3640 1.399 . S
C3639 C3644 1.399 . S
C3640 C3639 1.399 . S
C3640 C3641 1.376 . S
C3641 H3628 0.930 . S
C3641 C3640 1.376 . S
C3641 C3642 1.388 . S
C3642 H3629 0.930 . S
C3642 C3641 1.388 . S
C3642 C3643 1.390 . S
C3643 C3642 1.390 . S
C3643 C3644 1.394 . S
C3643 C3649 1.465 . S
C3644 C3639 1.399 . S
C3644 C3643 1.394 . S
C3644 C3645 1.516 . S
C3645 C3644 1.516 . S
C3645 C3646 1.502 . S
C3645 C3647 1.561 . S
C3645 C3648 1.526 . S
C3646 H3630 0.959 . S
C3646 H3631 0.959 . S
C3646 H3632 0.961 . S
C3646 C3645 1.502 . S
C3647 H3633 0.960 . S
C3647 H3634 0.961 . S
C3647 H3635 0.959 . S
C3647 C3645 1.561 . S
C3648 C3645 1.526 . S
C3648 C3649 1.396 . S
C3648 C3653 1.390 . S
C3649 C3643 1.465 . S
C3649 C3648 1.396 . S
C3649 C3650 1.399 . S
C3650 H3636 0.929 . S
C3650 C3649 1.399 . S
C3650 C3651 1.385 . S
C3651 H3637 0.931 . S
C3651 C3650 1.385 . S
C3651 C3652 1.389 . S
C3652 C3651 1.389 . S
C3652 C3653 1.387 . S
C3653 H3638 0.930 . S
C3653 C3648 1.390 . S
C3653 C3652 1.387 . S
H3654 C3666 0.930 . S
H3655 C3668 0.930 . S
H3656 C3669 0.930 . S
H3657 C3673 0.959 . S
H3658 C3673 0.959 . S
H3659 C3673 0.961 . S
H3660 C3674 0.960 . S
H3661 C3674 0.961 . S
H3662 C3674 0.959 . S
H3663 C3677 0.929 . S
H3664 C3678 0.931 . S
H3665 C3680 0.930 . S
C3666 H3654 0.930 . S
C3666 C3667 1.399 . S
C3666 C3671 1.399 . S
C3667 C3666 1.399 . S
C3667 C3668 1.376 . S
C3668 H3655 0.930 . S
C3668 C3667 1.376 . S
C3668 C3669 1.388 . S
C3669 H3656 0.930 . S
C3669 C3668 1.388 . S
C3669 C3670 1.390 . S
C3670 C3669 1.390 . S
C3670 C3671 1.394 . S
C3670 C3676 1.465 . S
C3671 C3666 1.399 . S
C3671 C3670 1.394 . S
C3671 C3672 1.516 . S
C3672 C3671 1.516 . S
C3672 C3673 1.502 . S
C3672 C3674 1.561 . S
C3672 C3675 1.526 . S
C3673 H3657 0.959 . S
C3673 H3658 0.959 . S
C3673 H3659 0.961 . S
C3673 C3672 1.502 . S
C3674 H3660 0.960 . S
C3674 H3661 0.961 . S
C3674 H3662 0.959 . S
C3674 C3672 1.561 . S
C3675 C3672 1.526 . S
C3675 C3676 1.396 . S
C3675 C3680 1.390 . S
C3676 C3670 1.465 . S
C3676 C3675 1.396 . S
C3676 C3677 1.399 . S
C3677 H3663 0.929 . S
C3677 C3676 1.399 . S
C3677 C3678 1.385 . S
C3678 H3664 0.931 . S
C3678 C3677 1.385 . S
C3678 C3679 1.389 . S
C3679 C3678 1.389 . S
C3679 C3680 1.387 . S
C3680 H3665 0.930 . S
C3680 C3675 1.390 . S
C3680 C3679 1.387 . S
H3681 C3693 0.930 . S
H3682 C3695 0.930 . S
H3683 C3696 0.930 . S
H3684 C3700 0.959 . S
H3685 C3700 0.959 . S
H3686 C3700 0.961 . S
H3687 C3701 0.960 . S
H3688 C3701 0.961 . S
H3689 C3701 0.959 . S
H3690 C3704 0.929 . S
H3691 C3705 0.931 . S
H3692 C3707 0.930 . S
C3693 H3681 0.930 . S
C3693 C3694 1.399 . S
C3693 C3698 1.399 . S
C3694 C3693 1.399 . S
C3694 C3695 1.376 . S
C3695 H3682 0.930 . S
C3695 C3694 1.376 . S
C3695 C3696 1.388 . S
C3696 H3683 0.930 . S
C3696 C3695 1.388 . S
C3696 C3697 1.390 . S
C3697 C3696 1.390 . S
C3697 C3698 1.394 . S
C3697 C3703 1.465 . S
C3698 C3693 1.399 . S
C3698 C3697 1.394 . S
C3698 C3699 1.516 . S
C3699 C3698 1.516 . S
C3699 C3700 1.502 . S
C3699 C3701 1.561 . S
C3699 C3702 1.526 . S
C3700 H3684 0.959 . S
C3700 H3685 0.959 . S
C3700 H3686 0.961 . S
C3700 C3699 1.502 . S
C3701 H3687 0.960 . S
C3701 H3688 0.961 . S
C3701 H3689 0.959 . S
C3701 C3699 1.561 . S
C3702 C3699 1.526 . S
C3702 C3703 1.396 . S
C3702 C3707 1.390 . S
C3703 C3697 1.465 . S
C3703 C3702 1.396 . S
C3703 C3704 1.399 . S
C3704 H3690 0.929 . S
C3704 C3703 1.399 . S
C3704 C3705 1.385 . S
C3705 H3691 0.931 . S
C3705 C3704 1.385 . S
C3705 C3706 1.389 . S
C3706 C3705 1.389 . S
C3706 C3707 1.387 . S
C3707 H3692 0.930 . S
C3707 C3702 1.390 . S
C3707 C3706 1.387 . S
H3708 C3720 0.930 . S
H3709 C3722 0.930 . S
H3710 C3723 0.930 . S
H3711 C3727 0.959 . S
H3712 C3727 0.959 . S
H3713 C3727 0.961 . S
H3714 C3728 0.960 1_554 S
H3715 C3728 0.961 . S
H3716 C3728 0.959 . S
H3717 C3731 0.929 . S
H3718 C3732 0.931 . S
H3719 C3734 0.930 . S
C3720 H3708 0.930 . S
C3720 C3721 1.399 . S
C3720 C3725 1.399 . S
C3721 C3720 1.399 . S
C3721 C3722 1.376 . S
C3722 H3709 0.930 . S
C3722 C3721 1.376 . S
C3722 C3723 1.388 . S
C3723 H3710 0.930 . S
C3723 C3722 1.388 . S
C3723 C3724 1.390 . S
C3724 C3723 1.390 . S
C3724 C3725 1.394 . S
C3724 C3730 1.465 1_554 S
C3725 C3720 1.399 . S
C3725 C3724 1.394 . S
C3725 C3726 1.516 1_554 S
C3726 C3725 1.516 1_556 S
C3726 C3727 1.502 . S
C3726 C3728 1.561 . S
C3726 C3729 1.526 . S
C3727 H3711 0.959 . S
C3727 H3712 0.959 . S
C3727 H3713 0.961 . S
C3727 C3726 1.502 . S
C3728 H3714 0.960 1_556 S
C3728 H3715 0.961 . S
C3728 H3716 0.959 . S
C3728 C3726 1.561 . S
C3729 C3726 1.526 . S
C3729 C3730 1.396 . S
C3729 C3734 1.390 . S
C3730 C3724 1.465 1_556 S
C3730 C3729 1.396 . S
C3730 C3731 1.399 . S
C3731 H3717 0.929 . S
C3731 C3730 1.399 . S
C3731 C3732 1.385 . S
C3732 H3718 0.931 . S
C3732 C3731 1.385 . S
C3732 C3733 1.389 . S
C3733 C3732 1.389 . S
C3733 C3734 1.387 . S
C3734 H3719 0.930 . S
C3734 C3729 1.390 . S
C3734 C3733 1.387 . S
H3735 C3747 0.930 . S
H3736 C3749 0.930 . S
H3737 C3750 0.930 . S
H3738 C3754 0.959 1_554 S
H3739 C3754 0.959 1_554 S
H3740 C3754 0.961 . S
H3741 C3755 0.960 . S
H3742 C3755 0.961 . S
H3743 C3755 0.959 . S
H3744 C3758 0.929 . S
H3745 C3759 0.931 . S
H3746 C3761 0.930 . S
C3747 H3735 0.930 . S
C3747 C3748 1.399 . S
C3747 C3752 1.399 . S
C3748 C3747 1.399 . S
C3748 C3749 1.376 . S
C3749 H3736 0.930 . S
C3749 C3748 1.376 . S
C3749 C3750 1.388 . S
C3750 H3737 0.930 . S
C3750 C3749 1.388 . S
C3750 C3751 1.390 . S
C3751 C3750 1.390 . S
C3751 C3752 1.394 . S
C3751 C3757 1.465 1_556 S
C3752 C3747 1.399 . S
C3752 C3751 1.394 . S
C3752 C3753 1.516 . S
C3753 C3752 1.516 . S
C3753 C3754 1.502 . S
C3753 C3755 1.561 . S
C3753 C3756 1.526 1_556 S
C3754 H3738 0.959 1_556 S
C3754 H3739 0.959 1_556 S
C3754 H3740 0.961 . S
C3754 C3753 1.502 . S
C3755 H3741 0.960 . S
C3755 H3742 0.961 . S
C3755 H3743 0.959 . S
C3755 C3753 1.561 . S
C3756 C3753 1.526 1_554 S
C3756 C3757 1.396 . S
C3756 C3761 1.390 . S
C3757 C3751 1.465 1_554 S
C3757 C3756 1.396 . S
C3757 C3758 1.399 . S
C3758 H3744 0.929 . S
C3758 C3757 1.399 . S
C3758 C3759 1.385 . S
C3759 H3745 0.931 . S
C3759 C3758 1.385 . S
C3759 C3760 1.389 . S
C3760 C3759 1.389 . S
C3760 C3761 1.387 . S
C3761 H3746 0.930 . S
C3761 C3756 1.390 . S
C3761 C3760 1.387 . S
H3762 C3774 0.930 . S
H3763 C3776 0.930 . S
H3764 C3777 0.930 . S
H3765 C3781 0.959 . S
H3766 C3781 0.959 . S
H3767 C3781 0.961 1_556 S
H3768 C3782 0.960 1_556 S
H3769 C3782 0.961 . S
H3770 C3782 0.956 1_556 S
H3771 C3785 0.929 1_556 S
H3772 C3786 0.931 . S
H3773 C3788 0.930 . S
C3774 H3762 0.930 . S
C3774 C3775 1.399 . S
C3774 C3779 1.399 . S
C3775 C3774 1.399 . S
C3775 C3776 1.376 . S
C3776 H3763 0.930 . S
C3776 C3775 1.376 . S
C3776 C3777 1.388 . S
C3777 H3764 0.930 . S
C3777 C3776 1.388 . S
C3777 C3778 1.390 . S
C3778 C3777 1.390 . S
C3778 C3779 1.394 . S
C3778 C3784 1.465 . S
C3779 C3774 1.399 . S
C3779 C3778 1.394 . S
C3779 C3780 1.531 . S
C3780 C3779 1.531 . S
C3780 C3781 1.497 1_556 S
C3780 C3782 1.560 1_556 S
C3780 C3783 1.518 1_556 S
C3781 H3765 0.959 . S
C3781 H3766 0.959 . S
C3781 H3767 0.961 1_554 S
C3781 C3780 1.497 1_554 S
C3782 H3768 0.960 1_554 S
C3782 H3769 0.961 . S
C3782 H3770 0.956 1_554 S
C3782 C3780 1.560 1_554 S
C3783 C3780 1.518 1_554 S
C3783 C3784 1.396 1_554 S
C3783 C3788 1.390 . S
C3784 C3778 1.465 . S
C3784 C3783 1.396 1_556 S
C3784 C3785 1.399 1_556 S
C3785 H3771 0.929 1_554 S
C3785 C3784 1.399 1_554 S
C3785 C3786 1.385 . S
C3786 H3772 0.931 . S
C3786 C3785 1.385 . S
C3786 C3787 1.389 . S
C3787 C3786 1.389 . S
C3787 C3788 1.387 . S
C3788 H3773 0.930 . S
C3788 C3783 1.390 . S
C3788 C3787 1.387 . S
H3789 C3801 0.930 . S
H3790 C3803 0.930 . S
H3791 C3804 0.930 . S
H3792 C3808 0.959 . S
H3793 C3808 0.959 . S
H3794 C3808 0.961 . S
H3795 C3809 0.960 . S
H3796 C3809 0.961 . S
H3797 C3809 0.959 . S
H3798 C3812 0.929 . S
H3799 C3813 0.931 . S
H3800 C3815 0.930 . S
C3801 H3789 0.930 . S
C3801 C3802 1.399 . S
C3801 C3806 1.399 . S
C3802 C3801 1.399 . S
C3802 C3803 1.376 . S
C3803 H3790 0.930 . S
C3803 C3802 1.376 . S
C3803 C3804 1.388 . S
C3804 H3791 0.930 . S
C3804 C3803 1.388 . S
C3804 C3805 1.390 . S
C3805 C3804 1.390 . S
C3805 C3806 1.394 . S
C3805 C3811 1.465 . S
C3806 C3801 1.399 . S
C3806 C3805 1.394 . S
C3806 C3807 1.516 . S
C3807 C3806 1.516 . S
C3807 C3808 1.502 . S
C3807 C3809 1.561 . S
C3807 C3810 1.526 . S
C3808 H3792 0.959 . S
C3808 H3793 0.959 . S
C3808 H3794 0.961 . S
C3808 C3807 1.502 . S
C3809 H3795 0.960 . S
C3809 H3796 0.961 . S
C3809 H3797 0.959 . S
C3809 C3807 1.561 . S
C3810 C3807 1.526 . S
C3810 C3811 1.396 . S
C3810 C3815 1.390 . S
C3811 C3805 1.465 . S
C3811 C3810 1.396 . S
C3811 C3812 1.399 . S
C3812 H3798 0.929 . S
C3812 C3811 1.399 . S
C3812 C3813 1.385 . S
C3813 H3799 0.931 . S
C3813 C3812 1.385 . S
C3813 C3814 1.389 . S
C3814 C3813 1.389 . S
C3814 C3815 1.387 . S
C3815 H3800 0.930 . S
C3815 C3810 1.390 . S
C3815 C3814 1.387 . S
H3816 C3828 0.930 . S
H3817 C3830 0.930 . S
H3818 C3831 0.930 . S
H3819 C3835 0.959 . S
H3820 C3835 0.959 . S
H3821 C3835 0.961 . S
H3822 C3836 0.960 . S
H3823 C3836 0.961 . S
H3824 C3836 0.959 . S
H3825 C3839 0.929 . S
H3826 C3840 0.931 . S
H3827 C3842 0.930 . S
C3828 H3816 0.930 . S
C3828 C3829 1.399 . S
C3828 C3833 1.399 . S
C3829 C3828 1.399 . S
C3829 C3830 1.376 . S
C3830 H3817 0.930 . S
C3830 C3829 1.376 . S
C3830 C3831 1.388 . S
C3831 H3818 0.930 . S
C3831 C3830 1.388 . S
C3831 C3832 1.390 . S
C3832 C3831 1.390 . S
C3832 C3833 1.394 . S
C3832 C3838 1.465 . S
C3833 C3828 1.399 . S
C3833 C3832 1.394 . S
C3833 C3834 1.516 . S
C3834 C3833 1.516 . S
C3834 C3835 1.502 . S
C3834 C3836 1.561 . S
C3834 C3837 1.526 . S
C3835 H3819 0.959 . S
C3835 H3820 0.959 . S
C3835 H3821 0.961 . S
C3835 C3834 1.502 . S
C3836 H3822 0.960 . S
C3836 H3823 0.961 . S
C3836 H3824 0.959 . S
C3836 C3834 1.561 . S
C3837 C3834 1.526 . S
C3837 C3838 1.396 . S
C3837 C3842 1.390 . S
C3838 C3832 1.465 . S
C3838 C3837 1.396 . S
C3838 C3839 1.399 . S
C3839 H3825 0.929 . S
C3839 C3838 1.399 . S
C3839 C3840 1.385 . S
C3840 H3826 0.931 . S
C3840 C3839 1.385 . S
C3840 C3841 1.389 . S
C3841 C3840 1.389 . S
C3841 C3842 1.387 . S
C3842 H3827 0.930 . S
C3842 C3837 1.390 . S
C3842 C3841 1.387 . S
H3843 C3855 0.930 . S
H3844 C3857 0.930 . S
H3845 C3858 0.930 . S
H3846 C3862 0.959 . S
H3847 C3862 0.959 . S
H3848 C3862 0.961 . S
H3849 C3863 0.960 . S
H3850 C3863 0.961 . S
H3851 C3863 0.959 . S
H3852 C3866 0.929 . S
H3853 C3867 0.931 . S
H3854 C3869 0.930 . S
C3855 H3843 0.930 . S
C3855 C3856 1.399 . S
C3855 C3860 1.399 . S
C3856 C3855 1.399 . S
C3856 C3857 1.376 . S
C3857 H3844 0.930 . S
C3857 C3856 1.376 . S
C3857 C3858 1.388 . S
C3858 H3845 0.930 . S
C3858 C3857 1.388 . S
C3858 C3859 1.390 . S
C3859 C3858 1.390 . S
C3859 C3860 1.394 . S
C3859 C3865 1.465 . S
C3860 C3855 1.399 . S
C3860 C3859 1.394 . S
C3860 C3861 1.516 . S
C3861 C3860 1.516 . S
C3861 C3862 1.502 . S
C3861 C3863 1.561 . S
C3861 C3864 1.526 . S
C3862 H3846 0.959 . S
C3862 H3847 0.959 . S
C3862 H3848 0.961 . S
C3862 C3861 1.502 . S
C3863 H3849 0.960 . S
C3863 H3850 0.961 . S
C3863 H3851 0.959 . S
C3863 C3861 1.561 . S
C3864 C3861 1.526 . S
C3864 C3865 1.396 . S
C3864 C3869 1.390 . S
C3865 C3859 1.465 . S
C3865 C3864 1.396 . S
C3865 C3866 1.399 . S
C3866 H3852 0.929 . S
C3866 C3865 1.399 . S
C3866 C3867 1.385 . S
C3867 H3853 0.931 . S
C3867 C3866 1.385 . S
C3867 C3868 1.389 . S
C3868 C3867 1.389 . S
C3868 C3869 1.387 . S
C3869 H3854 0.930 . S
C3869 C3864 1.390 . S
C3869 C3868 1.387 . S
H3870 C3882 0.930 . S
H3871 C3884 0.930 1_556 S
H3872 C3885 0.930 . S
H3873 C3889 0.959 . S
H3874 C3889 0.959 . S
H3875 C3889 0.961 . S
H3876 C3890 0.960 . S
H3877 C3890 0.961 . S
H3878 C3890 0.959 . S
H3879 C3893 0.929 . S
H3880 C3894 0.931 . S
H3881 C3896 0.930 . S
C3882 H3870 0.930 . S
C3882 C3883 1.399 . S
C3882 C3887 1.399 . S
C3883 C3882 1.399 . S
C3883 C3884 1.376 . S
C3884 H3871 0.930 1_554 S
C3884 C3883 1.376 . S
C3884 C3885 1.388 1_455 S
C3885 H3872 0.930 . S
C3885 C3884 1.388 1_655 S
C3885 C3886 1.379 . S
C3886 C3885 1.379 . S
C3886 C3887 1.377 1_655 S
C3886 C3892 1.493 . S
C3887 C3882 1.399 . S
C3887 C3886 1.377 1_455 S
C3887 C3888 1.516 . S
C3888 C3887 1.516 . S
C3888 C3889 1.502 . S
C3888 C3890 1.561 . S
C3888 C3891 1.526 1_455 S
C3889 H3873 0.959 . S
C3889 H3874 0.959 . S
C3889 H3875 0.961 . S
C3889 C3888 1.502 . S
C3890 H3876 0.960 . S
C3890 H3877 0.961 . S
C3890 H3878 0.959 . S
C3890 C3888 1.561 . S
C3891 C3888 1.526 1_655 S
C3891 C3892 1.396 . S
C3891 C3896 1.390 . S
C3892 C3886 1.493 . S
C3892 C3891 1.396 . S
C3892 C3893 1.399 . S
C3893 H3879 0.929 . S
C3893 C3892 1.399 . S
C3893 C3894 1.385 . S
C3894 H3880 0.931 . S
C3894 C3893 1.385 . S
C3894 C3895 1.389 . S
C3895 C3894 1.389 . S
C3895 C3896 1.387 . S
C3896 H3881 0.930 . S
C3896 C3891 1.390 . S
C3896 C3895 1.387 . S
H3897 C3909 0.930 . S
H3898 C3911 0.930 . S
H3899 C3912 0.930 . S
H3900 C3916 0.959 . S
H3901 C3916 0.959 . S
H3902 C3916 0.961 . S
H3903 C3917 0.960 1_556 S
H3904 C3917 0.961 . S
H3905 C3917 0.959 . S
H3906 C3920 0.929 . S
H3907 C3921 0.931 . S
H3908 C3923 0.930 . S
C3909 H3897 0.930 . S
C3909 C3910 1.399 . S
C3909 C3914 1.399 . S
C3910 C3909 1.399 . S
C3910 C3911 1.376 . S
C3911 H3898 0.930 . S
C3911 C3910 1.376 . S
C3911 C3912 1.388 . S
C3912 H3899 0.930 . S
C3912 C3911 1.388 . S
C3912 C3913 1.390 . S
C3913 C3912 1.390 . S
C3913 C3914 1.394 . S
C3913 C3919 1.465 . S
C3914 C3909 1.399 . S
C3914 C3913 1.394 . S
C3914 C3915 1.516 . S
C3915 C3914 1.516 . S
C3915 C3916 1.502 . S
C3915 C3917 1.561 . S
C3915 C3918 1.526 . S
C3916 H3900 0.959 . S
C3916 H3901 0.959 . S
C3916 H3902 0.961 . S
C3916 C3915 1.502 . S
C3917 H3903 0.960 1_554 S
C3917 H3904 0.961 . S
C3917 H3905 0.959 . S
C3917 C3915 1.561 . S
C3918 C3915 1.526 . S
C3918 C3919 1.396 . S
C3918 C3923 1.390 . S
C3919 C3913 1.465 . S
C3919 C3918 1.396 . S
C3919 C3920 1.399 . S
C3920 H3906 0.929 . S
C3920 C3919 1.399 . S
C3920 C3921 1.385 . S
C3921 H3907 0.931 . S
C3921 C3920 1.385 . S
C3921 C3922 1.389 . S
C3922 C3921 1.389 . S
C3922 C3923 1.387 . S
C3923 H3908 0.930 . S
C3923 C3918 1.390 . S
C3923 C3922 1.387 . S
H3924 C3936 0.930 . S
H3925 C3938 0.930 . S
H3926 C3939 0.930 1_565 S
H3927 C3943 0.949 1_565 S
H3928 C3943 0.959 . S
H3929 C3943 0.961 . S
H3930 C3944 0.960 . S
H3931 C3944 0.961 . S
H3932 C3944 0.959 . S
H3933 C3947 0.929 . S
H3934 C3948 0.931 . S
H3935 C3950 0.930 . S
C3936 H3924 0.930 . S
C3936 C3937 1.399 . S
C3936 C3941 1.399 . S
C3937 C3936 1.399 . S
C3937 C3938 1.376 . S
C3938 H3925 0.930 . S
C3938 C3937 1.376 . S
C3938 C3939 1.388 . S
C3939 H3926 0.930 1_545 S
C3939 C3938 1.388 . S
C3939 C3940 1.390 . S
C3940 C3939 1.390 . S
C3940 C3941 1.394 . S
C3940 C3946 1.465 1_545 S
C3941 C3936 1.399 . S
C3941 C3940 1.394 . S
C3941 C3942 1.516 . S
C3942 C3941 1.516 . S
C3942 C3943 1.502 . S
C3942 C3944 1.561 . S
C3942 C3945 1.526 1_545 S
C3943 H3927 0.949 1_545 S
C3943 H3928 0.959 . S
C3943 H3929 0.961 . S
C3943 C3942 1.502 . S
C3944 H3930 0.960 . S
C3944 H3931 0.961 . S
C3944 H3932 0.959 . S
C3944 C3942 1.561 . S
C3945 C3942 1.526 1_565 S
C3945 C3946 1.396 . S
C3945 C3950 1.390 . S
C3946 C3940 1.465 1_565 S
C3946 C3945 1.396 . S
C3946 C3947 1.399 . S
C3947 H3933 0.929 . S
C3947 C3946 1.399 . S
C3947 C3948 1.385 . S
C3948 H3934 0.931 . S
C3948 C3947 1.385 . S
C3948 C3949 1.389 . S
C3949 C3948 1.389 . S
C3949 C3950 1.387 . S
C3950 H3935 0.930 . S
C3950 C3945 1.390 . S
C3950 C3949 1.387 . S
H3951 C3963 0.930 . S
H3952 C3965 0.930 . S
H3953 C3966 0.930 1_545 S
H3954 C3970 0.959 . S
H3955 C3970 0.959 . S
H3956 C3970 0.961 . S
H3957 C3971 0.960 . S
H3958 C3971 0.961 1_545 S
H3959 C3971 0.959 1_545 S
H3960 C3974 0.929 . S
H3961 C3975 0.931 . S
H3962 C3977 0.930 . S
C3963 H3951 0.930 . S
C3963 C3964 1.399 . S
C3963 C3968 1.399 . S
C3964 C3963 1.399 . S
C3964 C3965 1.376 . S
C3965 H3952 0.930 . S
C3965 C3964 1.376 . S
C3965 C3966 1.388 . S
C3966 H3953 0.930 1_565 S
C3966 C3965 1.388 . S
C3966 C3967 1.392 . S
C3967 C3966 1.392 . S
C3967 C3968 1.442 . S
C3967 C3973 1.422 1_565 S
C3968 C3963 1.399 . S
C3968 C3967 1.442 . S
C3968 C3969 1.516 . S
C3969 C3968 1.516 . S
C3969 C3970 1.502 . S
C3969 C3971 1.561 . S
C3969 C3972 1.526 1_565 S
C3970 H3954 0.959 . S
C3970 H3955 0.959 . S
C3970 H3956 0.961 . S
C3970 C3969 1.502 . S
C3971 H3957 0.960 . S
C3971 H3958 0.961 1_565 S
C3971 H3959 0.959 1_565 S
C3971 C3969 1.561 . S
C3972 C3969 1.526 1_545 S
C3972 C3973 1.396 . S
C3972 C3977 1.390 . S
C3973 C3967 1.422 1_545 S
C3973 C3972 1.396 . S
C3973 C3974 1.399 . S
C3974 H3960 0.929 . S
C3974 C3973 1.399 . S
C3974 C3975 1.385 . S
C3975 H3961 0.931 . S
C3975 C3974 1.385 . S
C3975 C3976 1.389 . S
C3976 C3975 1.389 . S
C3976 C3977 1.387 . S
C3977 H3962 0.930 . S
C3977 C3972 1.390 . S
C3977 C3976 1.387 . S
H3978 C3990 0.930 . S
H3979 C3992 0.930 . S
H3980 C3993 0.930 . S
H3981 C3997 0.959 . S
H3982 C3997 0.959 . S
H3983 C3997 0.961 . S
H3984 C3998 0.960 . S
H3985 C3998 0.961 . S
H3986 C3998 0.959 . S
H3987 C4001 0.929 . S
H3988 C4002 0.931 . S
H3989 C4004 0.930 . S
C3990 H3978 0.930 . S
C3990 C3991 1.399 . S
C3990 C3995 1.399 . S
C3991 C3990 1.399 . S
C3991 C3992 1.376 . S
C3992 H3979 0.930 . S
C3992 C3991 1.376 . S
C3992 C3993 1.388 . S
C3993 H3980 0.930 . S
C3993 C3992 1.388 . S
C3993 C3994 1.390 . S
C3994 C3993 1.390 . S
C3994 C3995 1.394 . S
C3994 C4000 1.486 . S
C3995 C3990 1.399 . S
C3995 C3994 1.394 . S
C3995 C3996 1.516 1_655 S
C3996 C3995 1.516 1_455 S
C3996 C3997 1.502 . S
C3996 C3998 1.561 . S
C3996 C3999 1.526 . S
C3997 H3981 0.959 . S
C3997 H3982 0.959 . S
C3997 H3983 0.961 . S
C3997 C3996 1.502 . S
C3998 H3984 0.960 . S
C3998 H3985 0.961 . S
C3998 H3986 0.959 . S
C3998 C3996 1.561 . S
C3999 C3996 1.526 . S
C3999 C4000 1.342 1_455 S
C3999 C4004 1.390 . S
C4000 C3994 1.486 . S
C4000 C3999 1.342 1_655 S
C4000 C4001 1.425 . S
C4001 H3987 0.929 . S
C4001 C4000 1.425 . S
C4001 C4002 1.385 1_655 S
C4002 H3988 0.931 . S
C4002 C4001 1.385 1_455 S
C4002 C4003 1.389 . S
C4003 C4002 1.389 . S
C4003 C4004 1.387 . S
C4004 H3989 0.930 . S
C4004 C3999 1.390 . S
C4004 C4003 1.387 . S
H4005 C4017 0.930 . S
H4006 C4019 0.930 . S
H4007 C4020 0.930 . S
H4008 C4024 0.959 . S
H4009 C4024 0.959 . S
H4010 C4024 0.961 . S
H4011 C4025 0.960 . S
H4012 C4025 0.961 . S
H4013 C4025 0.959 . S
H4014 C4028 0.929 . S
H4015 C4029 0.931 . S
H4016 C4031 0.930 . S
C4017 H4005 0.930 . S
C4017 C4018 1.399 . S
C4017 C4022 1.399 . S
C4018 C4017 1.399 . S
C4018 C4019 1.376 . S
C4019 H4006 0.930 . S
C4019 C4018 1.376 . S
C4019 C4020 1.388 . S
C4020 H4007 0.930 . S
C4020 C4019 1.388 . S
C4020 C4021 1.390 . S
C4021 C4020 1.390 . S
C4021 C4022 1.394 . S
C4021 C4027 1.465 . S
C4022 C4017 1.399 . S
C4022 C4021 1.394 . S
C4022 C4023 1.516 . S
C4023 C4022 1.516 . S
C4023 C4024 1.502 . S
C4023 C4025 1.561 . S
C4023 C4026 1.526 . S
C4024 H4008 0.959 . S
C4024 H4009 0.959 . S
C4024 H4010 0.961 . S
C4024 C4023 1.502 . S
C4025 H4011 0.960 . S
C4025 H4012 0.961 . S
C4025 H4013 0.959 . S
C4025 C4023 1.561 . S
C4026 C4023 1.526 . S
C4026 C4027 1.396 . S
C4026 C4031 1.390 . S
C4027 C4021 1.465 . S
C4027 C4026 1.396 . S
C4027 C4028 1.399 . S
C4028 H4014 0.929 . S
C4028 C4027 1.399 . S
C4028 C4029 1.385 . S
C4029 H4015 0.931 . S
C4029 C4028 1.385 . S
C4029 C4030 1.389 . S
C4030 C4029 1.389 . S
C4030 C4031 1.387 . S
C4031 H4016 0.930 . S
C4031 C4026 1.390 . S
C4031 C4030 1.387 . S
H4032 C4044 0.930 . S
H4033 C4046 0.930 . S
H4034 C4047 0.930 . S
H4035 C4051 0.959 . S
H4036 C4051 0.959 . S
H4037 C4051 0.961 . S
H4038 C4052 0.960 . S
H4039 C4052 0.961 . S
H4040 C4052 0.959 . S
H4041 C4055 0.929 . S
H4042 C4056 0.931 . S
H4043 C4058 0.930 . S
C4044 H4032 0.930 . S
C4044 C4045 1.399 . S
C4044 C4049 1.399 . S
C4045 C4044 1.399 . S
C4045 C4046 1.376 . S
C4046 H4033 0.930 . S
C4046 C4045 1.376 . S
C4046 C4047 1.388 . S
C4047 H4034 0.930 . S
C4047 C4046 1.388 . S
C4047 C4048 1.390 . S
C4048 C4047 1.390 . S
C4048 C4049 1.394 . S
C4048 C4054 1.465 . S
C4049 C4044 1.399 . S
C4049 C4048 1.394 . S
C4049 C4050 1.516 . S
C4050 C4049 1.516 . S
C4050 C4051 1.502 . S
C4050 C4052 1.561 . S
C4050 C4053 1.526 . S
C4051 H4035 0.959 . S
C4051 H4036 0.959 . S
C4051 H4037 0.961 . S
C4051 C4050 1.502 . S
C4052 H4038 0.960 . S
C4052 H4039 0.961 . S
C4052 H4040 0.959 . S
C4052 C4050 1.561 . S
C4053 C4050 1.526 . S
C4053 C4054 1.396 . S
C4053 C4058 1.390 . S
C4054 C4048 1.465 . S
C4054 C4053 1.396 . S
C4054 C4055 1.399 . S
C4055 H4041 0.929 . S
C4055 C4054 1.399 . S
C4055 C4056 1.385 . S
C4056 H4042 0.931 . S
C4056 C4055 1.385 . S
C4056 C4057 1.389 . S
C4057 C4056 1.389 . S
C4057 C4058 1.387 . S
C4058 H4043 0.930 . S
C4058 C4053 1.390 . S
C4058 C4057 1.387 . S
H4059 C4071 0.930 . S
H4060 C4073 0.930 . S
H4061 C4074 0.930 . S
H4062 C4078 0.959 . S
H4063 C4078 0.959 . S
H4064 C4078 0.961 . S
H4065 C4079 0.960 . S
H4066 C4079 0.961 . S
H4067 C4079 0.959 . S
H4068 C4082 0.929 . S
H4069 C4083 0.931 . S
H4070 C4085 0.930 . S
C4071 H4059 0.930 . S
C4071 C4072 1.399 . S
C4071 C4076 1.399 . S
C4072 C4071 1.399 . S
C4072 C4073 1.376 . S
C4073 H4060 0.930 . S
C4073 C4072 1.376 . S
C4073 C4074 1.388 . S
C4074 H4061 0.930 . S
C4074 C4073 1.388 . S
C4074 C4075 1.390 . S
C4075 C4074 1.390 . S
C4075 C4076 1.394 . S
C4075 C4081 1.465 . S
C4076 C4071 1.399 . S
C4076 C4075 1.394 . S
C4076 C4077 1.516 . S
C4077 C4076 1.516 . S
C4077 C4078 1.502 . S
C4077 C4079 1.561 . S
C4077 C4080 1.526 . S
C4078 H4062 0.959 . S
C4078 H4063 0.959 . S
C4078 H4064 0.961 . S
C4078 C4077 1.502 . S
C4079 H4065 0.960 . S
C4079 H4066 0.961 . S
C4079 H4067 0.959 . S
C4079 C4077 1.561 . S
C4080 C4077 1.526 . S
C4080 C4081 1.396 . S
C4080 C4085 1.390 . S
C4081 C4075 1.465 . S
C4081 C4080 1.396 . S
C4081 C4082 1.399 . S
C4082 H4068 0.929 . S
C4082 C4081 1.399 . S
C4082 C4083 1.385 . S
C4083 H4069 0.931 . S
C4083 C4082 1.385 . S
C4083 C4084 1.389 . S
C4084 C4083 1.389 . S
C4084 C4085 1.387 . S
C4085 H4070 0.930 . S
C4085 C4080 1.390 . S
C4085 C4084 1.387 . S
H4086 C4098 0.930 . S
H4087 C4100 0.930 . S
H4088 C4101 0.930 . S
H4089 C4105 0.959 . S
H4090 C4105 0.959 . S
H4091 C4105 0.961 . S
H4092 C4106 0.960 . S
H4093 C4106 0.961 . S
H4094 C4106 0.959 . S
H4095 C4109 0.929 . S
H4096 C4110 0.931 . S
H4097 C4112 0.930 . S
C4098 H4086 0.930 . S
C4098 C4099 1.399 . S
C4098 C4103 1.399 . S
C4099 C4098 1.399 . S
C4099 C4100 1.376 . S
C4100 H4087 0.930 . S
C4100 C4099 1.376 . S
C4100 C4101 1.388 . S
C4101 H4088 0.930 . S
C4101 C4100 1.388 . S
C4101 C4102 1.390 . S
C4102 C4101 1.390 . S
C4102 C4103 1.394 . S
C4102 C4108 1.465 . S
C4103 C4098 1.399 . S
C4103 C4102 1.394 . S
C4103 C4104 1.516 . S
C4104 C4103 1.516 . S
C4104 C4105 1.502 . S
C4104 C4106 1.561 . S
C4104 C4107 1.526 . S
C4105 H4089 0.959 . S
C4105 H4090 0.959 . S
C4105 H4091 0.961 . S
C4105 C4104 1.502 . S
C4106 H4092 0.960 . S
C4106 H4093 0.961 . S
C4106 H4094 0.959 . S
C4106 C4104 1.561 . S
C4107 C4104 1.526 . S
C4107 C4108 1.396 . S
C4107 C4112 1.390 . S
C4108 C4102 1.465 . S
C4108 C4107 1.396 . S
C4108 C4109 1.399 . S
C4109 H4095 0.929 . S
C4109 C4108 1.399 . S
C4109 C4110 1.385 . S
C4110 H4096 0.931 . S
C4110 C4109 1.385 . S
C4110 C4111 1.389 . S
C4111 C4110 1.389 . S
C4111 C4112 1.387 . S
C4112 H4097 0.930 . S
C4112 C4107 1.390 . S
C4112 C4111 1.387 . S
H4113 C4125 0.930 . S
H4114 C4127 0.930 . S
H4115 C4128 0.930 . S
H4116 C4132 0.959 . S
H4117 C4132 0.959 . S
H4118 C4132 0.961 . S
H4119 C4133 0.960 . S
H4120 C4133 0.961 . S
H4121 C4133 0.959 . S
H4122 C4136 0.929 . S
H4123 C4137 0.931 . S
H4124 C4139 0.930 . S
C4125 H4113 0.930 . S
C4125 C4126 1.399 . S
C4125 C4130 1.399 . S
C4126 C4125 1.399 . S
C4126 C4127 1.376 . S
C4127 H4114 0.930 . S
C4127 C4126 1.376 . S
C4127 C4128 1.388 . S
C4128 H4115 0.930 . S
C4128 C4127 1.388 . S
C4128 C4129 1.390 . S
C4129 C4128 1.390 . S
C4129 C4130 1.394 . S
C4129 C4135 1.465 . S
C4130 C4125 1.399 . S
C4130 C4129 1.394 . S
C4130 C4131 1.516 . S
C4131 C4130 1.516 . S
C4131 C4132 1.502 . S
C4131 C4133 1.561 . S
C4131 C4134 1.526 . S
C4132 H4116 0.959 . S
C4132 H4117 0.959 . S
C4132 H4118 0.961 . S
C4132 C4131 1.502 . S
C4133 H4119 0.960 . S
C4133 H4120 0.961 . S
C4133 H4121 0.959 . S
C4133 C4131 1.561 . S
C4134 C4131 1.526 . S
C4134 C4135 1.396 . S
C4134 C4139 1.390 . S
C4135 C4129 1.465 . S
C4135 C4134 1.396 . S
C4135 C4136 1.399 . S
C4136 H4122 0.929 . S
C4136 C4135 1.399 . S
C4136 C4137 1.385 . S
C4137 H4123 0.931 . S
C4137 C4136 1.385 . S
C4137 C4138 1.389 . S
C4138 C4137 1.389 . S
C4138 C4139 1.387 . S
C4139 H4124 0.930 . S
C4139 C4134 1.390 . S
C4139 C4138 1.387 . S
H4140 C4152 0.930 . S
H4141 C4154 0.930 . S
H4142 C4155 0.930 . S
H4143 C4159 0.959 . S
H4144 C4159 0.959 . S
H4145 C4159 0.961 . S
H4146 C4160 0.960 . S
H4147 C4160 0.961 . S
H4148 C4160 0.959 . S
H4149 C4163 0.929 . S
H4150 C4164 0.931 1_554 S
H4151 C4166 0.930 . S
C4152 H4140 0.930 . S
C4152 C4153 1.399 . S
C4152 C4157 1.399 . S
C4153 C4152 1.399 . S
C4153 C4154 1.376 . S
C4154 H4141 0.930 . S
C4154 C4153 1.376 . S
C4154 C4155 1.388 . S
C4155 H4142 0.930 . S
C4155 C4154 1.388 . S
C4155 C4156 1.390 . S
C4156 C4155 1.390 . S
C4156 C4157 1.394 . S
C4156 C4162 1.465 . S
C4157 C4152 1.399 . S
C4157 C4156 1.394 . S
C4157 C4158 1.516 . S
C4158 C4157 1.516 . S
C4158 C4159 1.502 . S
C4158 C4160 1.561 . S
C4158 C4161 1.526 . S
C4159 H4143 0.959 . S
C4159 H4144 0.959 . S
C4159 H4145 0.961 . S
C4159 C4158 1.502 . S
C4160 H4146 0.960 . S
C4160 H4147 0.961 . S
C4160 H4148 0.959 . S
C4160 C4158 1.561 . S
C4161 C4158 1.526 . S
C4161 C4162 1.396 . S
C4161 C4166 1.390 . S
C4162 C4156 1.465 . S
C4162 C4161 1.396 . S
C4162 C4163 1.399 . S
C4163 H4149 0.929 . S
C4163 C4162 1.399 . S
C4163 C4164 1.385 . S
C4164 H4150 0.931 1_556 S
C4164 C4163 1.385 . S
C4164 C4165 1.389 . S
C4165 C4164 1.389 . S
C4165 C4166 1.387 . S
C4166 H4151 0.930 . S
C4166 C4161 1.390 . S
C4166 C4165 1.387 . S
H4167 C4179 0.930 . S
H4168 C4181 0.930 . S
H4169 C4182 0.930 . S
H4170 C4186 0.959 . S
H4171 C4186 0.959 . S
H4172 C4186 0.961 . S
H4173 C4187 0.960 . S
H4174 C4187 0.961 . S
H4175 C4187 0.959 . S
H4176 C4190 0.929 . S
H4177 C4191 0.931 . S
H4178 C4193 0.930 . S
C4179 H4167 0.930 . S
C4179 C4180 1.399 . S
C4179 C4184 1.399 . S
C4180 C4179 1.399 . S
C4180 C4181 1.376 . S
C4181 H4168 0.930 . S
C4181 C4180 1.376 . S
C4181 C4182 1.388 . S
C4182 H4169 0.930 . S
C4182 C4181 1.388 . S
C4182 C4183 1.390 . S
C4183 C4182 1.390 . S
C4183 C4184 1.394 . S
C4183 C4189 1.465 . S
C4184 C4179 1.399 . S
C4184 C4183 1.394 . S
C4184 C4185 1.516 . S
C4185 C4184 1.516 . S
C4185 C4186 1.502 . S
C4185 C4187 1.561 . S
C4185 C4188 1.526 . S
C4186 H4170 0.959 . S
C4186 H4171 0.959 . S
C4186 H4172 0.961 . S
C4186 C4185 1.502 . S
C4187 H4173 0.960 . S
C4187 H4174 0.961 . S
C4187 H4175 0.959 . S
C4187 C4185 1.561 . S
C4188 C4185 1.526 . S
C4188 C4189 1.396 . S
C4188 C4193 1.390 . S
C4189 C4183 1.465 . S
C4189 C4188 1.396 . S
C4189 C4190 1.399 . S
C4190 H4176 0.929 . S
C4190 C4189 1.399 . S
C4190 C4191 1.385 . S
C4191 H4177 0.931 . S
C4191 C4190 1.385 . S
C4191 C4192 1.389 . S
C4192 C4191 1.389 . S
C4192 C4193 1.387 . S
C4193 H4178 0.930 . S
C4193 C4188 1.390 . S
C4193 C4192 1.387 . S
H4194 C4206 0.930 . S
H4195 C4208 0.930 . S
H4196 C4209 0.930 . S
H4197 C4213 0.959 . S
H4198 C4213 0.959 . S
H4199 C4213 0.961 . S
H4200 C4214 0.960 . S
H4201 C4214 0.961 . S
H4202 C4214 0.959 . S
H4203 C4217 0.929 . S
H4204 C4218 0.931 . S
H4205 C4220 0.930 . S
C4206 H4194 0.930 . S
C4206 C4207 1.399 . S
C4206 C4211 1.399 . S
C4207 C4206 1.399 . S
C4207 C4208 1.376 . S
C4208 H4195 0.930 . S
C4208 C4207 1.376 . S
C4208 C4209 1.388 . S
C4209 H4196 0.930 . S
C4209 C4208 1.388 . S
C4209 C4210 1.390 . S
C4210 C4209 1.390 . S
C4210 C4211 1.394 . S
C4210 C4216 1.465 . S
C4211 C4206 1.399 . S
C4211 C4210 1.394 . S
C4211 C4212 1.516 . S
C4212 C4211 1.516 . S
C4212 C4213 1.502 . S
C4212 C4214 1.561 . S
C4212 C4215 1.526 . S
C4213 H4197 0.959 . S
C4213 H4198 0.959 . S
C4213 H4199 0.961 . S
C4213 C4212 1.502 . S
C4214 H4200 0.960 . S
C4214 H4201 0.961 . S
C4214 H4202 0.959 . S
C4214 C4212 1.561 . S
C4215 C4212 1.526 . S
C4215 C4216 1.396 . S
C4215 C4220 1.390 . S
C4216 C4210 1.465 . S
C4216 C4215 1.396 . S
C4216 C4217 1.399 . S
C4217 H4203 0.929 . S
C4217 C4216 1.399 . S
C4217 C4218 1.385 . S
C4218 H4204 0.931 . S
C4218 C4217 1.385 . S
C4218 C4219 1.389 . S
C4219 C4218 1.389 . S
C4219 C4220 1.387 . S
C4220 H4205 0.930 . S
C4220 C4215 1.390 . S
C4220 C4219 1.387 . S
H4221 C4233 0.930 . S
H4222 C4235 0.930 . S
H4223 C4236 0.930 . S
H4224 C4240 0.959 . S
H4225 C4240 0.959 . S
H4226 C4240 0.961 . S
H4227 C4241 0.960 . S
H4228 C4241 0.961 . S
H4229 C4241 0.959 . S
H4230 C4244 0.929 . S
H4231 C4245 0.931 . S
H4232 C4247 0.930 . S
C4233 H4221 0.930 . S
C4233 C4234 1.399 . S
C4233 C4238 1.399 . S
C4234 C4233 1.399 . S
C4234 C4235 1.376 . S
C4235 H4222 0.930 . S
C4235 C4234 1.376 . S
C4235 C4236 1.388 . S
C4236 H4223 0.930 . S
C4236 C4235 1.388 . S
C4236 C4237 1.390 . S
C4237 C4236 1.390 . S
C4237 C4238 1.394 . S
C4237 C4243 1.465 . S
C4238 C4233 1.399 . S
C4238 C4237 1.394 . S
C4238 C4239 1.516 . S
C4239 C4238 1.516 . S
C4239 C4240 1.502 . S
C4239 C4241 1.561 . S
C4239 C4242 1.526 . S
C4240 H4224 0.959 . S
C4240 H4225 0.959 . S
C4240 H4226 0.961 . S
C4240 C4239 1.502 . S
C4241 H4227 0.960 . S
C4241 H4228 0.961 . S
C4241 H4229 0.959 . S
C4241 C4239 1.561 . S
C4242 C4239 1.526 . S
C4242 C4243 1.396 . S
C4242 C4247 1.390 . S
C4243 C4237 1.465 . S
C4243 C4242 1.396 . S
C4243 C4244 1.399 . S
C4244 H4230 0.929 . S
C4244 C4243 1.399 . S
C4244 C4245 1.385 . S
C4245 H4231 0.931 . S
C4245 C4244 1.385 . S
C4245 C4246 1.389 . S
C4246 C4245 1.389 . S
C4246 C4247 1.387 . S
C4247 H4232 0.930 . S
C4247 C4242 1.390 . S
C4247 C4246 1.387 . S
H4248 C4260 0.930 . S
H4249 C4262 0.930 . S
H4250 C4263 0.930 . S
H4251 C4267 0.959 . S
H4252 C4267 0.959 . S
H4253 C4267 0.961 . S
H4254 C4268 0.960 . S
H4255 C4268 0.961 . S
H4256 C4268 0.959 . S
H4257 C4271 0.929 . S
H4258 C4272 0.931 . S
H4259 C4274 0.930 . S
C4260 H4248 0.930 . S
C4260 C4261 1.399 . S
C4260 C4265 1.399 . S
C4261 C4260 1.399 . S
C4261 C4262 1.376 . S
C4262 H4249 0.930 . S
C4262 C4261 1.376 . S
C4262 C4263 1.388 . S
C4263 H4250 0.930 . S
C4263 C4262 1.388 . S
C4263 C4264 1.390 . S
C4264 C4263 1.390 . S
C4264 C4265 1.394 . S
C4264 C4270 1.465 . S
C4265 C4260 1.399 . S
C4265 C4264 1.394 . S
C4265 C4266 1.516 . S
C4266 C4265 1.516 . S
C4266 C4267 1.502 . S
C4266 C4268 1.561 . S
C4266 C4269 1.526 . S
C4267 H4251 0.959 . S
C4267 H4252 0.959 . S
C4267 H4253 0.961 . S
C4267 C4266 1.502 . S
C4268 H4254 0.960 . S
C4268 H4255 0.961 . S
C4268 H4256 0.959 . S
C4268 C4266 1.561 . S
C4269 C4266 1.526 . S
C4269 C4270 1.396 . S
C4269 C4274 1.390 . S
C4270 C4264 1.465 . S
C4270 C4269 1.396 . S
C4270 C4271 1.399 . S
C4271 H4257 0.929 . S
C4271 C4270 1.399 . S
C4271 C4272 1.385 . S
C4272 H4258 0.931 . S
C4272 C4271 1.385 . S
C4272 C4273 1.389 . S
C4273 C4272 1.389 . S
C4273 C4274 1.387 . S
C4274 H4259 0.930 . S
C4274 C4269 1.390 . S
C4274 C4273 1.387 . S
H4275 C4287 0.930 . S
H4276 C4289 0.930 . S
H4277 C4290 0.930 . S
H4278 C4294 0.959 . S
H4279 C4294 0.959 . S
H4280 C4294 0.961 . S
H4281 C4295 0.960 . S
H4282 C4295 0.961 . S
H4283 C4295 0.959 . S
H4284 C4298 0.929 . S
H4285 C4299 0.931 . S
H4286 C4301 0.930 . S
C4287 H4275 0.930 . S
C4287 C4288 1.399 . S
C4287 C4292 1.399 . S
C4288 C4287 1.399 . S
C4288 C4289 1.376 . S
C4289 H4276 0.930 . S
C4289 C4288 1.376 . S
C4289 C4290 1.388 . S
C4290 H4277 0.930 . S
C4290 C4289 1.388 . S
C4290 C4291 1.390 . S
C4291 C4290 1.390 . S
C4291 C4292 1.394 . S
C4291 C4297 1.465 . S
C4292 C4287 1.399 . S
C4292 C4291 1.394 . S
C4292 C4293 1.516 . S
C4293 C4292 1.516 . S
C4293 C4294 1.502 . S
C4293 C4295 1.561 . S
C4293 C4296 1.526 . S
C4294 H4278 0.959 . S
C4294 H4279 0.959 . S
C4294 H4280 0.961 . S
C4294 C4293 1.502 . S
C4295 H4281 0.960 . S
C4295 H4282 0.961 . S
C4295 H4283 0.959 . S
C4295 C4293 1.561 . S
C4296 C4293 1.526 . S
C4296 C4297 1.396 . S
C4296 C4301 1.390 . S
C4297 C4291 1.465 . S
C4297 C4296 1.396 . S
C4297 C4298 1.399 . S
C4298 H4284 0.929 . S
C4298 C4297 1.399 . S
C4298 C4299 1.385 . S
C4299 H4285 0.931 . S
C4299 C4298 1.385 . S
C4299 C4300 1.389 . S
C4300 C4299 1.389 . S
C4300 C4301 1.387 . S
C4301 H4286 0.930 . S
C4301 C4296 1.390 . S
C4301 C4300 1.387 . S
H4302 C4314 0.930 . S
H4303 C4316 0.930 . S
H4304 C4317 0.930 . S
H4305 C4321 0.959 . S
H4306 C4321 0.959 . S
H4307 C4321 0.961 . S
H4308 C4322 0.960 . S
H4309 C4322 0.961 . S
H4310 C4322 0.959 . S
H4311 C4325 0.929 . S
H4312 C4326 0.931 . S
H4313 C4328 0.930 . S
C4314 H4302 0.930 . S
C4314 C4315 1.399 . S
C4314 C4319 1.399 . S
C4315 C4314 1.399 . S
C4315 C4316 1.376 . S
C4316 H4303 0.930 . S
C4316 C4315 1.376 . S
C4316 C4317 1.388 . S
C4317 H4304 0.930 . S
C4317 C4316 1.388 . S
C4317 C4318 1.390 . S
C4318 C4317 1.390 . S
C4318 C4319 1.394 . S
C4318 C4324 1.465 . S
C4319 C4314 1.399 . S
C4319 C4318 1.394 . S
C4319 C4320 1.516 . S
C4320 C4319 1.516 . S
C4320 C4321 1.502 . S
C4320 C4322 1.561 . S
C4320 C4323 1.526 . S
C4321 H4305 0.959 . S
C4321 H4306 0.959 . S
C4321 H4307 0.961 . S
C4321 C4320 1.502 . S
C4322 H4308 0.960 . S
C4322 H4309 0.961 . S
C4322 H4310 0.959 . S
C4322 C4320 1.561 . S
C4323 C4320 1.526 . S
C4323 C4324 1.396 . S
C4323 C4328 1.390 . S
C4324 C4318 1.465 . S
C4324 C4323 1.396 . S
C4324 C4325 1.399 . S
C4325 H4311 0.929 . S
C4325 C4324 1.399 . S
C4325 C4326 1.385 . S
C4326 H4312 0.931 . S
C4326 C4325 1.385 . S
C4326 C4327 1.389 . S
C4327 C4326 1.389 . S
C4327 C4328 1.387 . S
C4328 H4313 0.930 . S
C4328 C4323 1.390 . S
C4328 C4327 1.387 . S
H4329 C4341 0.930 . S
H4330 C4343 0.930 . S
H4331 C4344 0.930 . S
H4332 C4348 0.959 . S
H4333 C4348 0.959 . S
H4334 C4348 0.961 . S
H4335 C4349 0.960 . S
H4336 C4349 0.961 . S
H4337 C4349 0.959 . S
H4338 C4352 0.929 . S
H4339 C4353 0.931 . S
H4340 C4355 0.930 . S
C4341 H4329 0.930 . S
C4341 C4342 1.399 . S
C4341 C4346 1.399 . S
C4342 C4341 1.399 . S
C4342 C4343 1.376 . S
C4343 H4330 0.930 . S
C4343 C4342 1.376 . S
C4343 C4344 1.388 . S
C4344 H4331 0.930 . S
C4344 C4343 1.388 . S
C4344 C4345 1.390 . S
C4345 C4344 1.390 . S
C4345 C4346 1.394 . S
C4345 C4351 1.465 . S
C4346 C4341 1.399 . S
C4346 C4345 1.394 . S
C4346 C4347 1.516 . S
C4347 C4346 1.516 . S
C4347 C4348 1.502 . S
C4347 C4349 1.561 . S
C4347 C4350 1.526 . S
C4348 H4332 0.959 . S
C4348 H4333 0.959 . S
C4348 H4334 0.961 . S
C4348 C4347 1.502 . S
C4349 H4335 0.960 . S
C4349 H4336 0.961 . S
C4349 H4337 0.959 . S
C4349 C4347 1.561 . S
C4350 C4347 1.526 . S
C4350 C4351 1.396 . S
C4350 C4355 1.390 . S
C4351 C4345 1.465 . S
C4351 C4350 1.396 . S
C4351 C4352 1.399 . S
C4352 H4338 0.929 . S
C4352 C4351 1.399 . S
C4352 C4353 1.385 . S
C4353 H4339 0.931 . S
C4353 C4352 1.385 . S
C4353 C4354 1.389 . S
C4354 C4353 1.389 . S
C4354 C4355 1.387 . S
C4355 H4340 0.930 . S
C4355 C4350 1.390 . S
C4355 C4354 1.387 . S
C1453 C609 0.978 . S
C1465 C9 0.939 . S
C1480 C649 1.025 . S
C1492 C49 1.076 . S
C1507 C89 0.996 . S
C1519 C689 0.943 . S
C1534 C129 1.045 . S
C1546 C969 1.080 . S
C1561 C169 1.002 . S
C1573 C1009 0.946 . S
C1588 C209 1.030 . S
C1600 C1049 1.078 . S
C1615 C1338 0.948 . S
C1627 C258 1.050 . S
C1642 C1378 0.939 . S
C1654 C298 1.020 . S
C1669 C338 1.080 . S
C1681 C1418 0.990 . S
C1696 C738 1.079 . S
C1708 C378 0.991 . S
C1723 C418 0.954 . S
C1735 C778 1.059 . S
C1750 C458 1.048 . S
C1762 C818 1.070 . S
C1777 C1089 1.039 . S
C1789 C489 0.969 . S
C1804 C529 1.045 . S
C1816 C1129 1.081 . S
C1831 C1169 1.083 . S
C1843 C569 1.051 . S
C1858 C1218 0.965 . S
C1870 C858 0.960 . S
C1885 C1258 0.940 . S
C1897 C898 1.027 . S
C1912 C938 1.081 . S
C1924 C1298 0.998 . S
C1939 C19 2.033 . S
C1951 C179 2.045 . S
C1966 C59 2.036 . S
C1978 C219 2.061 . S
C1993 C99 2.043 . S
C2005 C139 2.035 . S
C2020 C250 2.070 . S
C2032 C410 2.035 . S
C2047 C290 2.073 . S
C2059 C450 2.073 . S
C2074 C330 2.080 . S
C2086 C370 2.064 . S
C2101 C499 2.058 . S
C2113 C659 2.036 . S
C2128 C699 2.034 . S
C2140 C539 2.044 . S
C2155 C579 2.053 . S
C2167 C619 2.034 . S
C2182 C730 2.075 . S
C2194 C890 2.037 . S
C2209 C770 2.035 . S
C2221 C930 2.073 . S
C2236 C850 2.067 . S
C2248 C810 2.034 . S
C2263 C979 2.042 . S
C2275 C1139 2.035 . S
C2290 C1179 2.081 . S
C2302 C1019 2.060 . S
C2317 C1059 2.077 . S
C2329 C1099 2.079 . S
C2344 C1210 2.038 . S
C2356 C1370 2.049 . S
C2371 C1250 2.064 . S
C2383 C1410 2.079 . S
C2398 C1290 2.051 . S
C2410 C1330 2.037 . S
C2425 C419 1.559 . S
C2437 C15 1.514 . S
C2452 C55 1.538 . S
C2464 C459 1.558 . S
C2479 C95 1.502 . S
C2491 C379 1.562 . S
C2506 C135 1.522 . S
C2518 C339 1.558 . S
C2533 C175 1.501 . S
C2545 C259 1.566 . S
C2560 C299 1.568 . S
C2572 C215 1.549 . S
C2587 C246 1.556 . S
C2599 C170 1.569 . S
C2614 C210 1.561 . S
C2626 C286 1.502 . S
C2641 C326 1.529 . S
C2653 C130 1.558 . S
C2668 C366 1.501 . S
C2680 C90 1.562 . S
C2695 C10 1.567 . S
C2707 C406 1.559 . S
C2722 C50 1.560 . S
C2734 C446 1.543 . S
C2749 C899 1.563 . S
C2761 C495 1.502 . S
C2776 C939 1.557 . S
C2788 C535 1.527 . S
C2803 C859 1.563 . S
C2815 C575 1.559 . S
C2830 C819 1.560 . S
C2842 C615 1.509 . S
C2857 C655 1.502 . S
C2869 C739 1.562 . S
C2884 C779 1.558 . S
C2896 C695 1.544 . S
C2911 C650 1.564 . S
C2923 C726 1.556 . S
C2938 C766 1.509 . S
C2950 C690 1.566 . S
C2965 C806 1.518 . S
C2977 C610 1.567 . S
C2992 C570 1.557 . S
C3004 C846 1.518 . S
C3019 C886 1.539 . S
C3031 C490 1.570 . S
C3046 C926 1.556 . S
C3058 C530 1.569 . S
C3073 C975 1.500 . S
C3085 C1379 1.565 . S
C3100 C1015 1.554 . S
C3112 C1419 1.567 . S
C3127 C1339 1.561 . S
C3139 C1055 1.504 . S
C3154 C1299 1.566 . S
C3166 C1095 1.556 . S
C3181 C1135 1.558 . S
C3193 C1219 1.565 . S
C3208 C1259 1.559 . S
C3220 C1175 1.512 . S
C3235 C1206 1.558 . S
C3247 C1130 1.568 . S
C3262 C1170 1.563 . S
C3274 C1246 1.504 . S
C3289 C1286 1.557 . S
C3301 C1090 1.564 . S
C3316 C1326 1.559 . S
C3328 C1050 1.566 . S
C3343 C970 1.559 . S
C3355 C1366 1.502 . S
C3370 C1010 1.569 . S
C3382 C1406 1.529 . S
C3397 C6 1.105 . S
C3409 C166 1.129 . S
C3424 C206 1.092 . S
C3436 C46 1.118 . S
C3451 C86 1.132 . S
C3463 C126 1.111 . S
C3478 C255 1.086 . S
C3490 C415 1.092 . S
C3505 C455 1.130 . S
C3517 C295 1.134 . S
C3532 C335 1.119 . S
C3544 C375 1.128 . S
C3559 C646 1.094 . S
C3571 C486 1.086 . S
C3586 C686 1.115 . S
C3598 C526 1.091 . S
C3613 C606 1.132 . S
C3625 C566 1.111 . S
C3640 C895 1.116 . S
C3652 C735 1.126 . S
C3667 C775 1.085 . S
C3679 C935 1.087 . S
C3694 C855 1.107 . S
C3706 C815 1.119 . S
C3721 C1126 1.121 . S
C3733 C966 1.135 . S
C3748 C1006 1.128 . S
C3760 C1166 1.134 . S
C3775 C1046 1.095 . S
C3787 C1086 1.120 . S
C3802 C1375 1.126 . S
C3814 C1215 1.116 . S
C3829 C1255 1.135 . S
C3841 C1415 1.134 . S
C3856 C1295 1.120 . S
C3868 C1335 1.129 . S
C3883 C18 0.396 . S
C3895 C249 0.237 . S
C3910 C58 0.349 . S
C3922 C289 0.315 . S
C3937 C329 0.312 . S
C3949 C98 0.296 . S
C3964 C369 0.400 . S
C3976 C138 0.220 . S
C3991 C178 0.207 . S
C4003 C409 0.396 . S
C4018 C218 0.348 . S
C4030 C449 0.258 . S
C4045 C729 0.400 . S
C4057 C498 0.209 . S
C4072 C538 0.360 . S
C4084 C769 0.245 . S
C4099 C809 0.386 . S
C4111 C578 0.215 . S
C4126 C849 0.363 . S
C4138 C618 0.241 . S
C4153 C889 0.210 . S
C4165 C658 0.398 . S
C4180 C929 0.369 . S
C4192 C698 0.288 . S
C4207 C1209 0.348 . S
C4219 C978 0.316 . S
C4234 C1018 0.220 . S
C4246 C1249 0.379 . S
C4261 C1289 0.208 . S
C4273 C1058 0.397 . S
C4288 C1329 0.397 . S
C4300 C1098 0.208 . S
C4315 C1369 0.334 . S
C4327 C1138 0.330 . S
C4342 C1178 0.217 . S
C4354 C1409 0.382 . S
