# Generated by pormake.
# Topology yfj, (5)-cn, num edge types: 1
# Building blocks:
#     Node 0, Type 0, BuildingBlock: BEQFEK_clean_sbu_0, # of connection points: 5
#     Node 1, Type 0, BuildingBlock: BEQFEK_clean_sbu_0, # of connection points: 5
#     Node 2, Type 0, BuildingBlock: BEQFEK_clean_sbu_0, # of connection points: 5
#     Node 3, Type 0, BuildingBlock: BEQFEK_clean_sbu_0, # of connection points: 5
#     Node 4, Type 0, BuildingBlock: BEQFEK_clean_sbu_0, # of connection points: 5
#     Node 5, Type 0, BuildingBlock: BEQFEK_clean_sbu_0, # of connection points: 5
#     Node 6, Type 0, BuildingBlock: BEQFEK_clean_sbu_0, # of connection points: 5
#     Node 7, Type 0, BuildingBlock: BEQFEK_clean_sbu_0, # of connection points: 5
#     Node 8, Type 0, BuildingBlock: BEQFEK_clean_sbu_0, # of connection points: 5
#     Node 9, Type 0, BuildingBlock: BEQFEK_clean_sbu_0, # of connection points: 5
#     Node 10, Type 0, BuildingBlock: BEQFEK_clean_sbu_0, # of connection points: 5
#     Node 11, Type 0, BuildingBlock: BEQFEK_clean_sbu_0, # of connection points: 5
#     Node 12, Type 0, BuildingBlock: BEQFEK_clean_sbu_0, # of connection points: 5
#     Node 13, Type 0, BuildingBlock: BEQFEK_clean_sbu_0, # of connection points: 5
#     Node 14, Type 0, BuildingBlock: BEQFEK_clean_sbu_0, # of connection points: 5
#     Node 15, Type 0, BuildingBlock: BEQFEK_clean_sbu_0, # of connection points: 5
#     Edge 16, Type (0, 0), BuildingBlock: UVAHIK_clean_linker_0, # of connection points: 2
#     Edge 17, Type (0, 0), BuildingBlock: UVAHIK_clean_linker_0, # of connection points: 2
#     Edge 18, Type (0, 0), BuildingBlock: UVAHIK_clean_linker_0, # of connection points: 2
#     Edge 19, Type (0, 0), BuildingBlock: UVAHIK_clean_linker_0, # of connection points: 2
#     Edge 20, Type (0, 0), BuildingBlock: UVAHIK_clean_linker_0, # of connection points: 2
#     Edge 21, Type (0, 0), BuildingBlock: UVAHIK_clean_linker_0, # of connection points: 2
#     Edge 22, Type (0, 0), BuildingBlock: UVAHIK_clean_linker_0, # of connection points: 2
#     Edge 23, Type (0, 0), BuildingBlock: UVAHIK_clean_linker_0, # of connection points: 2
#     Edge 24, Type (0, 0), BuildingBlock: UVAHIK_clean_linker_0, # of connection points: 2
#     Edge 25, Type (0, 0), BuildingBlock: UVAHIK_clean_linker_0, # of connection points: 2
#     Edge 26, Type (0, 0), BuildingBlock: UVAHIK_clean_linker_0, # of connection points: 2
#     Edge 27, Type (0, 0), BuildingBlock: UVAHIK_clean_linker_0, # of connection points: 2
#     Edge 28, Type (0, 0), BuildingBlock: UVAHIK_clean_linker_0, # of connection points: 2
#     Edge 29, Type (0, 0), BuildingBlock: UVAHIK_clean_linker_0, # of connection points: 2
#     Edge 30, Type (0, 0), BuildingBlock: UVAHIK_clean_linker_0, # of connection points: 2
#     Edge 31, Type (0, 0), BuildingBlock: UVAHIK_clean_linker_0, # of connection points: 2
#     Edge 32, Type (0, 0), BuildingBlock: UVAHIK_clean_linker_0, # of connection points: 2
#     Edge 33, Type (0, 0), BuildingBlock: UVAHIK_clean_linker_0, # of connection points: 2
#     Edge 34, Type (0, 0), BuildingBlock: UVAHIK_clean_linker_0, # of connection points: 2
#     Edge 35, Type (0, 0), BuildingBlock: UVAHIK_clean_linker_0, # of connection points: 2
#     Edge 36, Type (0, 0), BuildingBlock: UVAHIK_clean_linker_0, # of connection points: 2
#     Edge 37, Type (0, 0), BuildingBlock: UVAHIK_clean_linker_0, # of connection points: 2
#     Edge 38, Type (0, 0), BuildingBlock: UVAHIK_clean_linker_0, # of connection points: 2
#     Edge 39, Type (0, 0), BuildingBlock: UVAHIK_clean_linker_0, # of connection points: 2
#     Edge 40, Type (0, 0), BuildingBlock: UVAHIK_clean_linker_0, # of connection points: 2
#     Edge 41, Type (0, 0), BuildingBlock: UVAHIK_clean_linker_0, # of connection points: 2
#     Edge 42, Type (0, 0), BuildingBlock: UVAHIK_clean_linker_0, # of connection points: 2
#     Edge 43, Type (0, 0), BuildingBlock: UVAHIK_clean_linker_0, # of connection points: 2
#     Edge 44, Type (0, 0), BuildingBlock: UVAHIK_clean_linker_0, # of connection points: 2
#     Edge 45, Type (0, 0), BuildingBlock: UVAHIK_clean_linker_0, # of connection points: 2
#     Edge 46, Type (0, 0), BuildingBlock: UVAHIK_clean_linker_0, # of connection points: 2
#     Edge 47, Type (0, 0), BuildingBlock: UVAHIK_clean_linker_0, # of connection points: 2
#     Edge 48, Type (0, 0), BuildingBlock: UVAHIK_clean_linker_0, # of connection points: 2
#     Edge 49, Type (0, 0), BuildingBlock: UVAHIK_clean_linker_0, # of connection points: 2
#     Edge 50, Type (0, 0), BuildingBlock: UVAHIK_clean_linker_0, # of connection points: 2
#     Edge 51, Type (0, 0), BuildingBlock: UVAHIK_clean_linker_0, # of connection points: 2
#     Edge 52, Type (0, 0), BuildingBlock: UVAHIK_clean_linker_0, # of connection points: 2
#     Edge 53, Type (0, 0), BuildingBlock: UVAHIK_clean_linker_0, # of connection points: 2
#     Edge 54, Type (0, 0), BuildingBlock: UVAHIK_clean_linker_0, # of connection points: 2
#     Edge 55, Type (0, 0), BuildingBlock: UVAHIK_clean_linker_0, # of connection points: 2
# Relax obj value: 0.517
# Max RMSD: 0.221
# Mean RMSD: 0.221
data_MOF--net-yfj--node1-BEQFEK_clean_sbu_0--edge1-UVAHIK_clean_linker_0
_symmetry_space_group_name_H-M    P1
_symmetry_Int_Tables_number       1
_symmetry_cell_setting            triclinic
loop_
_symmetry_equiv_pos_as_xyz
'x, y, z'
_cell_length_a     58.117805
_cell_length_b     58.12322
_cell_length_c     61.148634
_cell_angle_alpha  90.014302
_cell_angle_beta   89.977215
_cell_angle_gamma 89.98109
loop_
_atom_site_label
_atom_site_type_symbol
_atom_site_fract_x
_atom_site_fract_y
_atom_site_fract_z
_atom_type_partial_charge
Co0 Co 0.09134 0.1341 0.35627 0.0
Co1 Co 0.11227 0.14927 0.31052 0.0
C2 C 0.13955 0.12186 0.34252 0.0
O3 O 0.12284 0.12183 0.35589 0.0
O4 O 0.13807 0.13197 0.32412 0.0
C5 C 0.0839 0.10207 0.39052 0.0
O6 O 0.09732 0.08949 0.37802 0.0
C7 C 0.13636 0.14564 0.26798 0.0
C8 C 0.11883 0.17191 0.24795 0.0
C9 C 0.13578 0.15516 0.24712 0.0
N10 N 0.12024 0.15597 0.28042 0.0
N11 N 0.10989 0.17173 0.26832 0.0
C12 C 0.1534 0.12872 0.27679 0.0
H13 H 0.16326 0.13724 0.28999 0.0
H14 H 0.14418 0.11378 0.28391 0.0
H15 H 0.16589 0.12278 0.26436 0.0
C16 C 0.05838 0.11048 0.32759 0.0
N17 N 0.07586 0.12531 0.33055 0.0
N18 N 0.085 0.13053 0.31146 0.0
C19 C 0.07393 0.11844 0.2958 0.0
C20 C 0.05661 0.10552 0.30551 0.0
C21 C 0.04584 0.09877 0.34583 0.0
H22 H 0.05673 0.0847 0.35238 0.0
H23 H 0.02936 0.09126 0.34009 0.0
H24 H 0.04236 0.11121 0.35918 0.0
O25 O 0.09308 0.16766 0.35864 0.0
O26 O 0.10856 0.17919 0.32723 0.0
H27 H 0.0704 0.10535 0.2628 0.0
H28 H 0.09951 0.11161 0.27152 0.0
C29 C 0.08132 0.11733 0.27239 0.0
H30 H 0.08017 0.13473 0.26507 0.0
H31 H 0.09662 0.18229 0.27394 0.0
O32 O 0.0774 0.12172 0.38368 0.0
C33 C 0.10064 0.18359 0.34631 0.0
Co34 Co 0.86333 0.59011 0.6054 0.0
Co35 Co 0.85044 0.61126 0.55914 0.0
C36 C 0.87729 0.63796 0.59154 0.0
O37 O 0.87569 0.62177 0.60541 0.0
O38 O 0.8686 0.63618 0.57255 0.0
C39 C 0.89541 0.58251 0.63927 0.0
O40 O 0.90816 0.59481 0.62592 0.0
C41 C 0.8536 0.63655 0.51714 0.0
C42 C 0.83035 0.61676 0.49569 0.0
C43 C 0.84542 0.63523 0.4958 0.0
N44 N 0.84427 0.61934 0.52895 0.0
N45 N 0.83021 0.60772 0.51602 0.0
C46 C 0.86854 0.65495 0.5267 0.0
H47 H 0.85995 0.66225 0.54132 0.0
H48 H 0.88519 0.64731 0.5318 0.0
H49 H 0.87167 0.66927 0.51513 0.0
C50 C 0.88834 0.55728 0.57726 0.0
N51 N 0.87294 0.57439 0.57983 0.0
N52 N 0.86848 0.58367 0.56063 0.0
C53 C 0.88172 0.57328 0.54541 0.0
C54 C 0.89468 0.55616 0.55541 0.0
C55 C 0.89957 0.54479 0.59579 0.0
H56 H 0.8871 0.54221 0.60929 0.0
H57 H 0.91427 0.55511 0.60189 0.0
H58 H 0.90623 0.52783 0.5904 0.0
O59 O 0.82966 0.59203 0.60705 0.0
O60 O 0.8203 0.60899 0.57566 0.0
H61 H 0.86753 0.57973 0.51381 0.0
H62 H 0.89745 0.57167 0.51328 0.0
C63 C 0.88422 0.58159 0.52237 0.0
H64 H 0.88892 0.60008 0.52243 0.0
H65 H 0.82075 0.59339 0.52099 0.0
O66 O 0.87532 0.57659 0.63317 0.0
C67 C 0.8147 0.60078 0.59432 0.0
Co68 Co 0.406 0.3653 0.85515 0.0
Co69 Co 0.38653 0.35026 0.8088 0.0
C70 C 0.35873 0.37865 0.83952 0.0
O71 O 0.3748 0.37862 0.85359 0.0
O72 O 0.36081 0.36814 0.82138 0.0
C73 C 0.41338 0.39787 0.88886 0.0
O74 O 0.4015 0.41076 0.87529 0.0
C75 C 0.36151 0.35115 0.76659 0.0
C76 C 0.38443 0.33125 0.74491 0.0
C77 C 0.36431 0.34405 0.74503 0.0
N78 N 0.37945 0.3435 0.77851 0.0
N79 N 0.39291 0.33133 0.76545 0.0
C80 C 0.34113 0.36321 0.77621 0.0
H81 H 0.33548 0.35379 0.79101 0.0
H82 H 0.34608 0.38094 0.78102 0.0
H83 H 0.3264 0.36386 0.76473 0.0
C84 C 0.44054 0.3881 0.82747 0.0
N85 N 0.42275 0.37352 0.82991 0.0
N86 N 0.41403 0.36862 0.81056 0.0
C87 C 0.42552 0.38089 0.7953 0.0
C88 C 0.44284 0.39339 0.8055 0.0
C89 C 0.4529 0.39939 0.84605 0.0
H90 H 0.45508 0.38705 0.85971 0.0
H91 H 0.44263 0.41426 0.85189 0.0
H92 H 0.47002 0.4058 0.84081 0.0
O93 O 0.40346 0.33171 0.85774 0.0
O94 O 0.38885 0.32053 0.82582 0.0
H95 H 0.42727 0.39722 0.76348 0.0
H96 H 0.3995 0.38536 0.77084 0.0
C97 C 0.41838 0.38282 0.77187 0.0
H98 H 0.42281 0.36662 0.76328 0.0
H99 H 0.40819 0.3235 0.77045 0.0
O100 O 0.41908 0.37766 0.88293 0.0
C101 C 0.39596 0.31598 0.84513 0.0
Co102 Co 0.63795 0.91046 0.1055 0.0
Co103 Co 0.64998 0.88764 0.05976 0.0
C104 C 0.62283 0.86241 0.09294 0.0
O105 O 0.62476 0.87925 0.10604 0.0
O106 O 0.63164 0.86308 0.07391 0.0
C107 C 0.60662 0.91907 0.1399 0.0
O108 O 0.59347 0.90643 0.12721 0.0
C109 C 0.64649 0.86179 0.01809 0.0
C110 C 0.66951 0.88141 0.99626 0.0
C111 C 0.65447 0.86293 0.99666 0.0
N112 N 0.65592 0.87912 0.02966 0.0
N113 N 0.66985 0.89063 0.01652 0.0
C114 C 0.63187 0.84338 0.02803 0.0
H115 H 0.64091 0.83629 0.04248 0.0
H116 H 0.61531 0.85092 0.03354 0.0
H117 H 0.62856 0.82897 0.0166 0.0
C118 C 0.61351 0.94309 0.07696 0.0
N119 N 0.62851 0.92568 0.07975 0.0
N120 N 0.63245 0.91569 0.06076 0.0
C121 C 0.6193 0.92602 0.04544 0.0
C122 C 0.60691 0.94376 0.05517 0.0
C123 C 0.60278 0.95619 0.09541 0.0
H124 H 0.61554 0.95894 0.10861 0.0
H125 H 0.5881 0.94618 0.10202 0.0
H126 H 0.59622 0.9731 0.08982 0.0
O127 O 0.67158 0.90775 0.10698 0.0
O128 O 0.6803 0.88979 0.07592 0.0
H129 H 0.63313 0.91887 0.01383 0.0
H130 H 0.60332 0.92719 0.0134 0.0
C131 C 0.6165 0.91731 0.02256 0.0
H132 H 0.61164 0.89886 0.02295 0.0
H133 H 0.67934 0.90502 0.02129 0.0
O134 O 0.62653 0.92483 0.13311 0.0
C135 C 0.68623 0.89834 0.09434 0.0
Co136 Co 0.09316 0.36345 0.90493 0.0
Co137 Co 0.11319 0.34825 0.95102 0.0
C138 C 0.14058 0.37677 0.92004 0.0
O139 O 0.12434 0.37686 0.90613 0.0
O140 O 0.13873 0.36614 0.93813 0.0
C141 C 0.08551 0.39499 0.87016 0.0
O142 O 0.09875 0.40798 0.88241 0.0
C143 C 0.13816 0.34962 0.99327 0.0
C144 C 0.11621 0.3282 0.01454 0.0
C145 C 0.13574 0.34188 0.01467 0.0
N146 N 0.12056 0.34143 0.98121 0.0
N147 N 0.10767 0.3284 0.99403 0.0
C148 C 0.15788 0.36291 0.98388 0.0
H149 H 0.15188 0.38028 0.97896 0.0
H150 H 0.17241 0.36448 0.99551 0.0
H151 H 0.16428 0.35384 0.96916 0.0
C152 C 0.05945 0.38678 0.93305 0.0
N153 N 0.07681 0.37172 0.93038 0.0
N154 N 0.08569 0.36663 0.94961 0.0
C155 C 0.07467 0.37912 0.96502 0.0
C156 C 0.05754 0.39208 0.95505 0.0
C157 C 0.04739 0.39866 0.91463 0.0
H158 H 0.04395 0.38628 0.90123 0.0
H159 H 0.05858 0.41259 0.90825 0.0
H160 H 0.03093 0.40639 0.92018 0.0
O161 O 0.09579 0.32984 0.90232 0.0
O162 O 0.11073 0.31853 0.93403 0.0
H163 H 0.07329 0.39517 0.997 0.0
H164 H 0.1012 0.38425 0.98883 0.0
C165 C 0.08239 0.3811 0.98829 0.0
H166 H 0.07878 0.36469 0.99686 0.0
H167 H 0.09276 0.32001 0.98887 0.0
O168 O 0.07932 0.37537 0.87731 0.0
C169 C 0.10343 0.31406 0.91478 0.0
Co170 Co 0.63208 0.59251 0.15333 0.0
Co171 Co 0.64849 0.6125 0.19909 0.0
C172 C 0.62039 0.64041 0.16813 0.0
O173 O 0.62027 0.62426 0.15415 0.0
O174 O 0.63053 0.63821 0.18644 0.0
C175 C 0.59934 0.58572 0.11959 0.0
O176 O 0.58699 0.59881 0.13261 0.0
C177 C 0.64805 0.6378 0.24125 0.0
C178 C 0.67003 0.61611 0.26223 0.0
C179 C 0.65626 0.63558 0.26251 0.0
N180 N 0.65602 0.62013 0.22913 0.0
N181 N 0.66941 0.60741 0.24177 0.0
C182 C 0.63433 0.65733 0.2321 0.0
H183 H 0.64265 0.66358 0.21692 0.0
H184 H 0.61677 0.65116 0.22808 0.0
H185 H 0.63322 0.67204 0.24358 0.0
C186 C 0.60819 0.55975 0.18205 0.0
N187 N 0.62364 0.57669 0.17905 0.0
N188 N 0.62943 0.58545 0.19816 0.0
C189 C 0.61697 0.57484 0.21385 0.0
C190 C 0.60323 0.55811 0.20417 0.0
C191 C 0.59567 0.54801 0.16381 0.0
H192 H 0.60758 0.54476 0.15 0.0
H193 H 0.58152 0.5593 0.15807 0.0
H194 H 0.58812 0.53146 0.16927 0.0
O195 O 0.6655 0.59384 0.15034 0.0
O196 O 0.678 0.60913 0.18148 0.0
H197 H 0.63298 0.57914 0.24497 0.0
H198 H 0.60267 0.57309 0.24656 0.0
C199 C 0.61608 0.58245 0.23721 0.0
H200 H 0.61264 0.60121 0.23796 0.0
H201 H 0.67776 0.59248 0.23655 0.0
O202 O 0.61916 0.57917 0.12591 0.0
C203 C 0.68181 0.60126 0.16228 0.0
Co204 Co 0.41062 0.13743 0.40396 0.0
Co205 Co 0.3897 0.15083 0.45009 0.0
C206 C 0.36229 0.12494 0.41748 0.0
O207 O 0.37869 0.12593 0.40378 0.0
O208 O 0.36411 0.13369 0.43644 0.0
C209 C 0.41762 0.10522 0.3701 0.0
O210 O 0.40514 0.0927 0.3835 0.0
C211 C 0.36497 0.14611 0.49198 0.0
C212 C 0.38005 0.17367 0.51223 0.0
C213 C 0.36365 0.15637 0.51244 0.0
N214 N 0.38113 0.15698 0.48006 0.0
N215 N 0.39012 0.17343 0.49233 0.0
C216 C 0.35195 0.12541 0.48436 0.0
H217 H 0.36293 0.11467 0.4736 0.0
H218 H 0.34602 0.11485 0.49838 0.0
H219 H 0.33671 0.1312 0.47494 0.0
C220 C 0.44322 0.11215 0.43211 0.0
N221 N 0.42601 0.12742 0.4295 0.0
N222 N 0.41701 0.13231 0.44874 0.0
C223 C 0.42789 0.11967 0.4641 0.0
C224 C 0.44483 0.10647 0.45409 0.0
C225 C 0.45549 0.10066 0.41356 0.0
H226 H 0.45811 0.11303 0.4 0.0
H227 H 0.44493 0.08608 0.40756 0.0
H228 H 0.47242 0.09382 0.41879 0.0
O229 O 0.4097 0.17114 0.40247 0.0
O230 O 0.39279 0.181 0.43379 0.0
H231 H 0.42031 0.13605 0.49457 0.0
H232 H 0.43271 0.1077 0.49731 0.0
C233 C 0.42072 0.11847 0.48757 0.0
H234 H 0.40315 0.11114 0.48866 0.0
H235 H 0.40308 0.18456 0.48709 0.0
O236 O 0.42391 0.1252 0.3762 0.0
C237 C 0.40133 0.18632 0.41519 0.0
Co238 Co 0.86332 0.90871 0.65257 0.0
Co239 Co 0.84954 0.88724 0.69835 0.0
C240 C 0.87634 0.86049 0.6656 0.0
O241 O 0.87589 0.87727 0.65231 0.0
O242 O 0.86667 0.86181 0.68421 0.0
C243 C 0.89463 0.91664 0.61786 0.0
O244 O 0.90755 0.90334 0.63014 0.0
C245 C 0.85546 0.86254 0.74003 0.0
C246 C 0.82709 0.87602 0.76032 0.0
C247 C 0.84529 0.86061 0.76048 0.0
N248 N 0.84371 0.87813 0.72818 0.0
N249 N 0.82677 0.88615 0.74046 0.0
C250 C 0.87693 0.85079 0.73243 0.0
H251 H 0.88667 0.86207 0.72112 0.0
H252 H 0.88808 0.84612 0.74648 0.0
H253 H 0.87216 0.8348 0.72365 0.0
C254 C 0.88782 0.94133 0.68113 0.0
N255 N 0.87273 0.92404 0.67828 0.0
N256 N 0.86773 0.91484 0.6974 0.0
C257 C 0.87999 0.92583 0.71297 0.0
C258 C 0.89316 0.94294 0.70319 0.0
C259 C 0.89961 0.95352 0.66271 0.0
H260 H 0.88718 0.95692 0.64935 0.0
H261 H 0.9136 0.94243 0.65627 0.0
H262 H 0.90725 0.97003 0.66812 0.0
O263 O 0.82959 0.90668 0.65081 0.0
O264 O 0.81935 0.89036 0.68226 0.0
H265 H 0.8631 0.91755 0.74304 0.0
H266 H 0.89076 0.93123 0.74645 0.0
C267 C 0.88083 0.91875 0.73647 0.0
H268 H 0.88898 0.90156 0.73778 0.0
H269 H 0.81495 0.89852 0.73527 0.0
O270 O 0.87501 0.9229 0.625 0.0
C271 C 0.81423 0.89847 0.66344 0.0
Co272 Co 0.59182 0.63742 0.85446 0.0
Co273 Co 0.61315 0.65063 0.80836 0.0
C274 C 0.64003 0.62424 0.84106 0.0
O275 O 0.62369 0.62559 0.85482 0.0
O276 O 0.63824 0.63283 0.82202 0.0
C277 C 0.58434 0.60647 0.8896 0.0
O278 O 0.59836 0.59378 0.87781 0.0
C279 C 0.63905 0.64845 0.76654 0.0
C280 C 0.6176 0.66965 0.74462 0.0
C281 C 0.63708 0.6559 0.74499 0.0
N282 N 0.62122 0.65686 0.77818 0.0
N283 N 0.60865 0.66977 0.76498 0.0
C284 C 0.65847 0.6351 0.77638 0.0
H285 H 0.65236 0.61758 0.78063 0.0
H286 H 0.67345 0.63388 0.76522 0.0
H287 H 0.66429 0.64377 0.79154 0.0
C288 C 0.55953 0.61207 0.82632 0.0
N289 N 0.57654 0.62754 0.82888 0.0
N290 N 0.58577 0.63217 0.80969 0.0
C291 C 0.57538 0.61898 0.79443 0.0
C292 C 0.55831 0.60593 0.80443 0.0
C293 C 0.54733 0.60064 0.84493 0.0
H294 H 0.54351 0.61342 0.85789 0.0
H295 H 0.55858 0.58707 0.85186 0.0
H296 H 0.53104 0.59253 0.8395 0.0
O297 O 0.59298 0.67105 0.85588 0.0
O298 O 0.61031 0.68084 0.82477 0.0
H299 H 0.58042 0.63333 0.76267 0.0
H300 H 0.57415 0.60304 0.76237 0.0
C301 C 0.58344 0.61683 0.77127 0.0
H302 H 0.60218 0.61322 0.77102 0.0
H303 H 0.59367 0.6783 0.76977 0.0
O304 O 0.57769 0.62577 0.88206 0.0
C305 C 0.6016 0.6862 0.84329 0.0
Co306 Co 0.36262 0.09185 0.10602 0.0
Co307 Co 0.34999 0.114 0.06019 0.0
C308 C 0.37743 0.13982 0.09269 0.0
O309 O 0.3757 0.1232 0.10609 0.0
O310 O 0.36843 0.13877 0.07376 0.0
C311 C 0.39415 0.0835 0.14038 0.0
O312 O 0.4072 0.09634 0.12778 0.0
C313 C 0.35093 0.14057 0.01881 0.0
C314 C 0.33231 0.11768 0.99612 0.0
C315 C 0.34439 0.13821 0.99703 0.0
N316 N 0.34368 0.12201 0.03005 0.0
N317 N 0.33225 0.10857 0.0164 0.0
C318 C 0.36215 0.16098 0.02922 0.0
H319 H 0.35301 0.16524 0.04461 0.0
H320 H 0.38029 0.15671 0.03318 0.0
H321 H 0.36162 0.17633 0.01848 0.0
C322 C 0.38642 0.05862 0.07773 0.0
N323 N 0.37177 0.07632 0.08041 0.0
N324 N 0.3678 0.08609 0.06133 0.0
C325 C 0.38077 0.07539 0.04606 0.0
C326 C 0.39277 0.05749 0.05592 0.0
C327 C 0.39691 0.04537 0.09618 0.0
H328 H 0.38396 0.04253 0.10923 0.0
H329 H 0.41145 0.05537 0.10306 0.0
H330 H 0.40359 0.02852 0.09049 0.0
O331 O 0.32903 0.09411 0.10774 0.0
O332 O 0.31979 0.11189 0.07671 0.0
H333 H 0.39887 0.07568 0.01505 0.0
H334 H 0.38603 0.10281 0.02314 0.0
C335 C 0.38385 0.08385 0.02313 0.0
H336 H 0.36825 0.07959 0.01353 0.0
H337 H 0.32487 0.09288 0.02082 0.0
O338 O 0.37429 0.07764 0.13357 0.0
C339 C 0.31416 0.10326 0.09519 0.0
Co340 Co 0.90786 0.86266 0.35433 0.0
Co341 Co 0.88686 0.84888 0.30826 0.0
C342 C 0.86001 0.87631 0.34015 0.0
O343 O 0.87616 0.87493 0.35407 0.0
O344 O 0.86186 0.8673 0.32129 0.0
C345 C 0.91529 0.89508 0.38801 0.0
O346 O 0.90286 0.9077 0.37466 0.0
C347 C 0.86142 0.85057 0.26622 0.0
C348 C 0.88279 0.82874 0.24478 0.0
C349 C 0.86348 0.84273 0.24481 0.0
N350 N 0.87904 0.84216 0.27812 0.0
N351 N 0.89156 0.82887 0.26521 0.0
C352 C 0.84206 0.86433 0.2757 0.0
H353 H 0.83595 0.85596 0.29091 0.0
H354 H 0.84837 0.88183 0.27977 0.0
H355 H 0.82723 0.86559 0.26439 0.0
C356 C 0.94088 0.88702 0.326 0.0
N357 N 0.92363 0.87184 0.32872 0.0
N358 N 0.91445 0.86703 0.30954 0.0
C359 C 0.92508 0.87986 0.29415 0.0
C360 C 0.94226 0.89285 0.30405 0.0
C361 C 0.95331 0.89848 0.34445 0.0
H362 H 0.95589 0.88615 0.35805 0.0
H363 H 0.94289 0.91319 0.35043 0.0
H364 H 0.97026 0.90515 0.33908 0.0
O365 O 0.9063 0.82905 0.35635 0.0
O366 O 0.8892 0.81897 0.32522 0.0
H367 H 0.91994 0.86516 0.26256 0.0
H368 H 0.92661 0.89536 0.26192 0.0
C369 C 0.91711 0.88181 0.27096 0.0
H370 H 0.89842 0.88567 0.27064 0.0
H371 H 0.9064 0.82025 0.27023 0.0
O372 O 0.92132 0.875 0.38195 0.0
C373 C 0.89765 0.81381 0.34389 0.0
Co374 Co 0.13733 0.40647 0.6056 0.0
Co375 Co 0.15107 0.38715 0.55905 0.0
C376 C 0.12384 0.35914 0.59052 0.0
O377 O 0.12476 0.37499 0.60478 0.0
O378 O 0.13312 0.36157 0.57185 0.0
C379 C 0.10544 0.41366 0.63988 0.0
O380 O 0.09254 0.40135 0.62668 0.0
C381 C 0.14297 0.36603 0.51622 0.0
C382 C 0.17573 0.37175 0.49883 0.0
C383 C 0.1544 0.36121 0.49669 0.0
N384 N 0.15698 0.37839 0.52922 0.0
N385 N 0.17651 0.38185 0.51867 0.0
C386 C 0.11875 0.36003 0.5223 0.0
H387 H 0.11219 0.37189 0.53507 0.0
H388 H 0.10738 0.36078 0.50774 0.0
H389 H 0.11836 0.34234 0.52902 0.0
C390 C 0.11395 0.44122 0.57834 0.0
N391 N 0.12823 0.42313 0.58045 0.0
N392 N 0.13355 0.41516 0.56089 0.0
C393 C 0.12239 0.42792 0.54577 0.0
C394 C 0.10958 0.44475 0.55633 0.0
C395 C 0.10237 0.45298 0.59712 0.0
H396 H 0.11478 0.45544 0.61068 0.0
H397 H 0.08801 0.44207 0.60304 0.0
H398 H 0.09528 0.46993 0.59221 0.0
O399 O 0.17104 0.40437 0.60745 0.0
O400 O 0.18118 0.38907 0.5755 0.0
H401 H 0.11712 0.43886 0.51247 0.0
H402 H 0.11028 0.40928 0.51795 0.0
C403 C 0.12254 0.42333 0.5217 0.0
H404 H 0.13998 0.41811 0.51633 0.0
H405 H 0.19054 0.39074 0.52516 0.0
O406 O 0.12545 0.4196 0.63356 0.0
C407 C 0.18634 0.39648 0.59456 0.0
Co408 Co 0.59133 0.86221 0.40253 0.0
Co409 Co 0.61358 0.84971 0.44835 0.0
C410 C 0.63908 0.87761 0.41606 0.0
O411 O 0.62247 0.8757 0.40268 0.0
O412 O 0.63817 0.86851 0.43495 0.0
C413 C 0.58262 0.89471 0.36936 0.0
O414 O 0.59413 0.90765 0.38316 0.0
C415 C 0.63992 0.85099 0.48985 0.0
C416 C 0.61733 0.83176 0.51236 0.0
C417 C 0.63759 0.84431 0.51159 0.0
N418 N 0.62159 0.84336 0.47848 0.0
N419 N 0.60834 0.83157 0.49203 0.0
C420 C 0.66011 0.86275 0.47959 0.0
H421 H 0.66477 0.8537 0.46426 0.0
H422 H 0.65539 0.88076 0.47555 0.0
H423 H 0.67537 0.86266 0.49045 0.0
C424 C 0.55769 0.88543 0.43099 0.0
N425 N 0.57556 0.87098 0.4282 0.0
N426 N 0.58547 0.86714 0.44723 0.0
C427 C 0.57475 0.88001 0.46255 0.0
C428 C 0.55666 0.89182 0.4528 0.0
C429 C 0.5441 0.89572 0.41268 0.0
H430 H 0.54213 0.8831 0.39922 0.0
H431 H 0.55325 0.91111 0.4064 0.0
H432 H 0.52684 0.90122 0.41842 0.0
O433 O 0.59426 0.82864 0.4005 0.0
O434 O 0.61183 0.81962 0.43168 0.0
H435 H 0.57508 0.8982 0.49352 0.0
H436 H 0.60233 0.88585 0.48515 0.0
C437 C 0.58342 0.88331 0.48538 0.0
H438 H 0.57957 0.86767 0.49507 0.0
H439 H 0.59283 0.82387 0.48751 0.0
O440 O 0.57745 0.87425 0.37497 0.0
C441 C 0.60357 0.81388 0.41308 0.0
Co442 Co 0.13742 0.08862 0.65375 0.0
Co443 Co 0.14981 0.11171 0.69922 0.0
C444 C 0.12271 0.13696 0.66622 0.0
O445 O 0.12457 0.12006 0.65315 0.0
O446 O 0.13146 0.13628 0.68527 0.0
C447 C 0.10522 0.07968 0.62031 0.0
O448 O 0.09225 0.09175 0.63367 0.0
C449 C 0.14877 0.1388 0.74034 0.0
C450 C 0.16763 0.11627 0.76318 0.0
C451 C 0.1554 0.13671 0.76212 0.0
N452 N 0.15613 0.12016 0.72924 0.0
N453 N 0.16769 0.10694 0.74298 0.0
C454 C 0.1373 0.15898 0.72977 0.0
H455 H 0.14631 0.16317 0.7143 0.0
H456 H 0.11918 0.1545 0.72592 0.0
H457 H 0.13771 0.17445 0.74037 0.0
C458 C 0.11352 0.05594 0.68262 0.0
N459 N 0.12814 0.0736 0.6796 0.0
N460 N 0.13199 0.08383 0.69849 0.0
C461 C 0.11894 0.07352 0.71392 0.0
C462 C 0.10703 0.05537 0.70441 0.0
C463 C 0.10323 0.04208 0.66448 0.0
H464 H 0.11599 0.0396 0.65121 0.0
H465 H 0.08808 0.05135 0.65783 0.0
H466 H 0.09738 0.02506 0.6705 0.0
O467 O 0.17102 0.09072 0.65204 0.0
O468 O 0.18001 0.10928 0.68273 0.0
H469 H 0.10053 0.07469 0.74475 0.0
H470 H 0.11342 0.10158 0.73609 0.0
C471 C 0.11563 0.08263 0.7366 0.0
H472 H 0.13113 0.07867 0.74645 0.0
H473 H 0.17516 0.09125 0.73869 0.0
O474 O 0.1255 0.07432 0.62634 0.0
C475 C 0.18577 0.10023 0.66447 0.0
Co476 Co 0.91189 0.63486 0.9035 0.0
Co477 Co 0.8904 0.64944 0.94897 0.0
C478 C 0.86349 0.62258 0.91645 0.0
O479 O 0.88023 0.62284 0.90311 0.0
O480 O 0.86498 0.63222 0.93504 0.0
C481 C 0.91936 0.60309 0.86908 0.0
O482 O 0.9059 0.5905 0.88151 0.0
C483 C 0.86639 0.6423 0.99053 0.0
C484 C 0.87349 0.67427 0.00878 0.0
C485 C 0.86138 0.65373 0.01 0.0
N486 N 0.88039 0.65561 0.97839 0.0
N487 N 0.88469 0.67465 0.98945 0.0
C488 C 0.85902 0.61866 0.98379 0.0
H489 H 0.87163 0.61109 0.97222 0.0
H490 H 0.85726 0.60727 0.99826 0.0
H491 H 0.84218 0.61972 0.97533 0.0
C492 C 0.94427 0.61048 0.93242 0.0
N493 N 0.92696 0.62553 0.92939 0.0
N494 N 0.91806 0.6312 0.94849 0.0
C495 C 0.92945 0.61957 0.96426 0.0
C496 C 0.94631 0.60597 0.95461 0.0
C497 C 0.95616 0.59812 0.91416 0.0
H498 H 0.95985 0.61027 0.90064 0.0
H499 H 0.94471 0.58436 0.90789 0.0
H500 H 0.97248 0.59013 0.91963 0.0
O501 O 0.91055 0.66863 0.90143 0.0
O502 O 0.89365 0.67935 0.93249 0.0
H503 H 0.91932 0.63788 0.99317 0.0
H504 H 0.93784 0.6134 0.99811 0.0
C505 C 0.92342 0.62006 0.98803 0.0
H506 H 0.90815 0.60908 0.99093 0.0
H507 H 0.89491 0.68809 0.98365 0.0
O508 O 0.92598 0.62265 0.87607 0.0
C509 C 0.90222 0.68417 0.9138 0.0
Co510 Co 0.36063 0.40826 0.15396 0.0
Co511 Co 0.34861 0.38715 0.20045 0.0
C512 C 0.37615 0.36099 0.16794 0.0
O513 O 0.37408 0.37704 0.15397 0.0
O514 O 0.36741 0.36267 0.18694 0.0
C515 C 0.39131 0.4167 0.11889 0.0
O516 O 0.40467 0.40378 0.13112 0.0
C517 C 0.35297 0.36235 0.24259 0.0
C518 C 0.32945 0.38171 0.26416 0.0
C519 C 0.34504 0.36367 0.26402 0.0
N520 N 0.343 0.37917 0.23075 0.0
N521 N 0.32878 0.39053 0.24375 0.0
C522 C 0.36828 0.34426 0.233 0.0
H523 H 0.35973 0.33666 0.21851 0.0
H524 H 0.38467 0.35229 0.22768 0.0
H525 H 0.3719 0.33011 0.24463 0.0
C526 C 0.38427 0.44236 0.18165 0.0
N527 N 0.36982 0.42443 0.17932 0.0
N528 N 0.36569 0.41531 0.19866 0.0
C529 C 0.37818 0.42673 0.21377 0.0
C530 C 0.39018 0.44435 0.20352 0.0
C531 C 0.39494 0.45506 0.16294 0.0
H532 H 0.38197 0.45794 0.14994 0.0
H533 H 0.40919 0.44459 0.1561 0.0
H534 H 0.40203 0.47185 0.16831 0.0
O535 O 0.32703 0.40532 0.15269 0.0
O536 O 0.31822 0.38853 0.18431 0.0
H537 H 0.39385 0.42962 0.24582 0.0
H538 H 0.38587 0.40078 0.23749 0.0
C539 C 0.38082 0.41918 0.23703 0.0
H540 H 0.36408 0.42101 0.24554 0.0
H541 H 0.31885 0.40454 0.23877 0.0
O542 O 0.37159 0.42247 0.12614 0.0
C543 C 0.31235 0.39644 0.16561 0.0
C544 C 0.06417 0.10732 0.42674 0.0
C545 C 0.07959 0.09504 0.41344 0.0
C546 C 0.06245 0.1024 0.44909 0.0
C547 C 0.0808 0.06021 0.4922 0.0
H548 H 0.07639 0.1137 0.52985 0.0
C549 C 0.11154 0.06371 0.58256 0.0
C550 C 0.09766 0.07586 0.59746 0.0
C551 C 0.10584 0.06306 0.56032 0.0
C552 C 0.07732 0.09853 0.51957 0.0
H553 H 0.10466 0.06737 0.41302 0.0
H554 H 0.10227 0.05935 0.45186 0.0
H555 H 0.07243 0.1183 0.49055 0.0
H556 H 0.06625 0.0958 0.6008 0.0
H557 H 0.05653 0.0948 0.56207 0.0
H558 H 0.08687 0.04073 0.52147 0.0
C559 C 0.09105 0.07242 0.44513 0.0
C560 C 0.07493 0.10113 0.49699 0.0
C561 C 0.09252 0.07712 0.42277 0.0
C562 C 0.0774 0.08636 0.5898 0.0
C563 C 0.07185 0.0859 0.56759 0.0
C564 C 0.08351 0.05768 0.51483 0.0
C565 C 0.07636 0.08531 0.45871 0.0
C566 C 0.07687 0.08206 0.48293 0.0
C567 C 0.08629 0.07472 0.55254 0.0
C568 C 0.08197 0.07686 0.52871 0.0
H569 H 0.05382 0.12109 0.41999 0.0
H570 H 0.05054 0.11235 0.45889 0.0
H571 H 0.082 0.04504 0.48199 0.0
H572 H 0.12724 0.05541 0.58794 0.0
H573 H 0.11734 0.05439 0.54906 0.0
C574 C 0.91055 0.57835 0.83674 0.0
C575 C 0.92349 0.59625 0.84608 0.0
C576 C 0.91175 0.57387 0.81433 0.0
C577 C 0.92688 0.60323 0.76257 0.0
H578 H 0.91498 0.54303 0.73762 0.0
C579 C 0.92334 0.58936 0.66966 0.0
C580 C 0.9031 0.57874 0.66209 0.0
C581 C 0.9291 0.58879 0.69182 0.0
C582 C 0.91832 0.55993 0.7444 0.0
H583 H 0.94903 0.62249 0.83946 0.0
H584 H 0.95184 0.61414 0.80044 0.0
H585 H 0.92044 0.54693 0.77707 0.0
H586 H 0.87379 0.55798 0.67171 0.0
H587 H 0.88407 0.55677 0.7105 0.0
H588 H 0.92482 0.61616 0.72988 0.0
C589 C 0.94012 0.60403 0.8103 0.0
C590 C 0.92137 0.56222 0.767 0.0
C591 C 0.93868 0.60872 0.83272 0.0
C592 C 0.88946 0.56639 0.67702 0.0
C593 C 0.89537 0.56562 0.69921 0.0
C594 C 0.92415 0.60088 0.74 0.0
C595 C 0.92617 0.58698 0.80069 0.0
C596 C 0.9253 0.58399 0.77645 0.0
C597 C 0.91491 0.57737 0.7069 0.0
C598 C 0.91951 0.57927 0.7307 0.0
H599 H 0.89859 0.56844 0.84653 0.0
H600 H 0.9005 0.56082 0.80761 0.0
H601 H 0.92937 0.62034 0.76916 0.0
H602 H 0.93432 0.59894 0.65863 0.0
H603 H 0.94441 0.59774 0.69726 0.0
C604 C 0.38466 0.43637 0.08286 0.0
C605 C 0.39781 0.42145 0.09591 0.0
C606 C 0.38929 0.43854 0.06048 0.0
C607 C 0.43205 0.42272 0.01694 0.0
H608 H 0.37819 0.42481 0.97962 0.0
C609 C 0.42944 0.39204 0.9266 0.0
C610 C 0.41676 0.40547 0.91176 0.0
C611 C 0.42989 0.39772 0.94885 0.0
C612 C 0.39343 0.42454 0.9898 0.0
H613 H 0.42667 0.39776 0.09585 0.0
H614 H 0.43419 0.40088 0.05698 0.0
H615 H 0.37362 0.42828 0.01897 0.0
H616 H 0.39554 0.43604 0.90851 0.0
H617 H 0.39615 0.44569 0.94728 0.0
H618 H 0.45162 0.41776 0.98753 0.0
C619 C 0.42065 0.4114 0.06393 0.0
C620 C 0.39085 0.42665 0.01242 0.0
C621 C 0.41623 0.40948 0.0863 0.0
C622 C 0.40543 0.42526 0.91948 0.0
C623 C 0.40566 0.43076 0.94171 0.0
C624 C 0.43457 0.42028 0.99429 0.0
C625 C 0.40696 0.42559 0.05059 0.0
C626 C 0.41008 0.42551 0.02636 0.0
C627 C 0.41746 0.41677 0.95669 0.0
C628 C 0.41525 0.42096 0.98053 0.0
H629 H 0.37047 0.44599 0.08982 0.0
H630 H 0.37869 0.45005 0.05088 0.0
H631 H 0.44732 0.42219 0.02706 0.0
H632 H 0.4384 0.37672 0.92117 0.0
H633 H 0.43904 0.38657 0.96006 0.0
C634 C 0.56709 0.88909 0.33136 0.0
C635 C 0.57923 0.9026 0.34655 0.0
C636 C 0.56675 0.89515 0.30919 0.0
C637 C 0.60299 0.92351 0.26909 0.0
H638 H 0.54955 0.92125 0.23128 0.0
C639 C 0.61261 0.9379 0.17645 0.0
C640 C 0.59978 0.92322 0.16289 0.0
C641 C 0.60772 0.9394 0.19883 0.0
C642 C 0.5647 0.92176 0.24155 0.0
H643 H 0.59956 0.93367 0.35051 0.0
H644 H 0.59915 0.94395 0.3119 0.0
H645 H 0.54492 0.91571 0.27064 0.0
H646 H 0.57118 0.89925 0.16206 0.0
H647 H 0.5632 0.90119 0.2009 0.0
H648 H 0.62304 0.92832 0.24022 0.0
C649 C 0.58998 0.92869 0.31713 0.0
C650 C 0.56199 0.91868 0.26411 0.0
C651 C 0.59009 0.92282 0.33927 0.0
C652 C 0.58137 0.91081 0.17201 0.0
C653 C 0.57669 0.91205 0.19437 0.0
C654 C 0.60577 0.92624 0.24656 0.0
C655 C 0.57875 0.91466 0.3018 0.0
C656 C 0.58114 0.91935 0.27806 0.0
C657 C 0.59009 0.92599 0.20821 0.0
C658 C 0.58671 0.92517 0.2324 0.0
H659 H 0.55852 0.87344 0.33645 0.0
H660 H 0.55804 0.88396 0.29769 0.0
H661 H 0.61812 0.92379 0.27944 0.0
H662 H 0.62679 0.94783 0.16988 0.0
H663 H 0.61808 0.95074 0.20883 0.0
C664 C 0.07808 0.40665 0.67073 0.0
C665 C 0.09803 0.41749 0.66278 0.0
C666 C 0.07264 0.40737 0.69296 0.0
C667 C 0.08388 0.43695 0.74512 0.0
H668 H 0.07406 0.37665 0.77058 0.0
C669 C 0.09359 0.4195 0.83747 0.0
C670 C 0.08099 0.40156 0.84716 0.0
C671 C 0.09195 0.42375 0.81505 0.0
C672 C 0.07621 0.39372 0.76381 0.0
H673 H 0.12717 0.43878 0.67179 0.0
H674 H 0.11748 0.44024 0.71071 0.0
H675 H 0.07783 0.38049 0.7312 0.0
H676 H 0.05559 0.37501 0.84117 0.0
H677 H 0.05202 0.38296 0.80215 0.0
H678 H 0.08223 0.45024 0.77772 0.0
C679 C 0.10613 0.4311 0.69966 0.0
C680 C 0.07849 0.39588 0.74117 0.0
C681 C 0.11172 0.43019 0.6774 0.0
C682 C 0.0657 0.38881 0.83415 0.0
C683 C 0.06381 0.39327 0.81173 0.0
C684 C 0.08129 0.43484 0.7678 0.0
C685 C 0.08688 0.41916 0.70773 0.0
C686 C 0.08268 0.41745 0.73161 0.0
C687 C 0.07742 0.41037 0.80175 0.0
C688 C 0.07781 0.41313 0.77749 0.0
H689 H 0.06708 0.39679 0.65993 0.0
H690 H 0.05755 0.39825 0.6987 0.0
H691 H 0.08689 0.45381 0.73815 0.0
H692 H 0.10561 0.42961 0.847 0.0
H693 H 0.10293 0.43685 0.80803 0.0
C694 C 0.59137 0.58175 0.92237 0.0
C695 C 0.57914 0.59982 0.91245 0.0
C696 C 0.58893 0.57727 0.94468 0.0
C697 C 0.57172 0.60677 0.99571 0.0
H698 H 0.58105 0.54627 0.02096 0.0
C699 C 0.57216 0.59321 0.08871 0.0
C700 C 0.59182 0.58191 0.09673 0.0
C701 C 0.56686 0.59265 0.06644 0.0
C702 C 0.5784 0.56325 0.0141 0.0
H703 H 0.55361 0.6264 0.91791 0.0
H704 H 0.54873 0.6181 0.95675 0.0
H705 H 0.57751 0.55036 0.98133 0.0
H706 H 0.62051 0.55993 0.08783 0.0
H707 H 0.61108 0.5588 0.04888 0.0
H708 H 0.57268 0.61962 0.02847 0.0
C709 C 0.5608 0.60784 0.94743 0.0
C710 C 0.57645 0.56564 0.9914 0.0
C711 C 0.56345 0.6125 0.92511 0.0
C712 C 0.60528 0.56887 0.08217 0.0
C713 C 0.59984 0.56816 0.05988 0.0
C714 C 0.57339 0.60433 0.01836 0.0
C715 C 0.57398 0.59056 0.95764 0.0
C716 C 0.57351 0.58751 0.98186 0.0
C717 C 0.58096 0.5806 0.05171 0.0
C718 C 0.57712 0.58261 0.02779 0.0
H719 H 0.60366 0.57166 0.91312 0.0
H720 H 0.59962 0.56405 0.95191 0.0
H721 H 0.56994 0.62394 0.98905 0.0
H722 H 0.56134 0.60332 0.09946 0.0
H723 H 0.55203 0.60216 0.06063 0.0
C724 C 0.40989 0.0776 0.33964 0.0
C725 C 0.42105 0.09753 0.34723 0.0
C726 C 0.41011 0.07198 0.31744 0.0
C727 C 0.43861 0.08246 0.26463 0.0
H728 H 0.37761 0.07332 0.24047 0.0
C729 C 0.41937 0.09153 0.17256 0.0
C730 C 0.40103 0.07913 0.16331 0.0
C731 C 0.42404 0.09005 0.19492 0.0
C732 C 0.39487 0.07527 0.24688 0.0
H733 H 0.44241 0.12641 0.3376 0.0
H734 H 0.44301 0.11637 0.29874 0.0
H735 H 0.38239 0.07735 0.27974 0.0
H736 H 0.37414 0.0543 0.17003 0.0
H737 H 0.38281 0.05099 0.20894 0.0
H738 H 0.45115 0.08031 0.23179 0.0
C739 C 0.434 0.1052 0.31005 0.0
C740 C 0.39757 0.07771 0.26945 0.0
C741 C 0.43359 0.11098 0.33228 0.0
C742 C 0.38826 0.06423 0.17671 0.0
C743 C 0.39314 0.0625 0.19906 0.0
C744 C 0.43596 0.0797 0.24202 0.0
C745 C 0.42171 0.086 0.30235 0.0
C746 C 0.4194 0.08166 0.27853 0.0
C747 C 0.41068 0.07589 0.20859 0.0
C748 C 0.41398 0.07646 0.23279 0.0
H749 H 0.40015 0.06678 0.35069 0.0
H750 H 0.40073 0.05694 0.31198 0.0
H751 H 0.45567 0.08528 0.27124 0.0
H752 H 0.42951 0.10326 0.16274 0.0
H753 H 0.43747 0.10088 0.20158 0.0
C754 C 0.93166 0.88936 0.42567 0.0
C755 C 0.91902 0.90283 0.41082 0.0
C756 C 0.93238 0.89522 0.44787 0.0
C757 C 0.89663 0.92311 0.48883 0.0
H758 H 0.95065 0.91996 0.52585 0.0
C759 C 0.88855 0.93627 0.58173 0.0
C760 C 0.90131 0.92112 0.59488 0.0
C761 C 0.89319 0.9381 0.55933 0.0
C762 C 0.93534 0.92073 0.51579 0.0
H763 H 0.89824 0.93369 0.4075 0.0
H764 H 0.89935 0.94368 0.44617 0.0
H765 H 0.95464 0.91501 0.48635 0.0
H766 H 0.92957 0.8967 0.59499 0.0
H767 H 0.93712 0.89929 0.55609 0.0
H768 H 0.87707 0.92764 0.51805 0.0
C769 C 0.90858 0.92855 0.44065 0.0
C770 C 0.93769 0.91798 0.49316 0.0
C771 C 0.90806 0.92285 0.41847 0.0
C772 C 0.91943 0.90861 0.58536 0.0
C773 C 0.92387 0.91021 0.56296 0.0
C774 C 0.89423 0.92554 0.51143 0.0
C775 C 0.92029 0.91452 0.45566 0.0
C776 C 0.91832 0.91895 0.47948 0.0
C777 C 0.9105 0.9246 0.54953 0.0
C778 C 0.9135 0.92414 0.52529 0.0
H779 H 0.94033 0.87386 0.42029 0.0
H780 H 0.94146 0.88403 0.4591 0.0
H781 H 0.88134 0.9236 0.47872 0.0
H782 H 0.87461 0.9463 0.58862 0.0
H783 H 0.88287 0.94978 0.54964 0.0
C784 C 0.27892 0.12708 0.10194 0.0
C785 C 0.29055 0.10599 0.10384 0.0
C786 C 0.25919 0.13145 0.11451 0.0
C787 C 0.23185 0.1105 0.16594 0.0
H788 H 0.18349 0.15348 0.1505 0.0
C789 C 0.15445 0.12604 0.22255 0.0
C790 C 0.15005 0.14915 0.22781 0.0
C791 C 0.16931 0.12038 0.20539 0.0
C792 C 0.19693 0.14148 0.15501 0.0
H793 H 0.28967 0.07227 0.1188 0.0
H794 H 0.2546 0.07918 0.13952 0.0
H795 H 0.21286 0.14339 0.12344 0.0
H796 H 0.15607 0.18443 0.218 0.0
H797 H 0.18194 0.17452 0.18768 0.0
H798 H 0.2158 0.10841 0.19736 0.0
C799 C 0.26116 0.09288 0.12928 0.0
C800 C 0.21383 0.13572 0.13954 0.0
C801 C 0.28111 0.08875 0.11715 0.0
C802 C 0.15947 0.16648 0.21451 0.0
C803 C 0.17419 0.16081 0.19714 0.0
C804 C 0.21484 0.11598 0.1812 0.0
C805 C 0.25047 0.11464 0.12894 0.0
C806 C 0.23162 0.12018 0.14481 0.0
C807 C 0.17971 0.1377 0.19276 0.0
C808 C 0.19724 0.13159 0.17599 0.0
H809 H 0.286 0.14077 0.09199 0.0
H810 H 0.25162 0.14845 0.1138 0.0
H811 H 0.24553 0.09905 0.17101 0.0
H812 H 0.14656 0.11229 0.23186 0.0
H813 H 0.17281 0.1024 0.20209 0.0
C814 C 0.83479 0.65727 0.46194 0.0
C815 C 0.85168 0.6498 0.47677 0.0
C816 C 0.84057 0.6722 0.44476 0.0
C817 C 0.88323 0.71628 0.43124 0.0
H818 H 0.86067 0.71109 0.37178 0.0
C819 C 0.912 0.78182 0.36732 0.0
C820 C 0.89527 0.79028 0.35286 0.0
C821 C 0.90789 0.76201 0.37963 0.0
C822 C 0.86696 0.71293 0.38835 0.0
H823 H 0.8882 0.65006 0.48386 0.0
H824 H 0.89819 0.6765 0.45437 0.0
H825 H 0.8505 0.68169 0.3988 0.0
H826 H 0.86152 0.78402 0.33913 0.0
H827 H 0.8539 0.74977 0.36117 0.0
H828 H 0.89893 0.74775 0.42142 0.0
C829 C 0.88039 0.67138 0.45631 0.0
C830 C 0.86115 0.69604 0.40381 0.0
C831 C 0.87464 0.65637 0.4733 0.0
C832 C 0.87483 0.77774 0.35 0.0
C833 C 0.87048 0.7581 0.3627 0.0
C834 C 0.88879 0.73322 0.41595 0.0
C835 C 0.86337 0.67984 0.4421 0.0
C836 C 0.86935 0.6975 0.4254 0.0
C837 C 0.88665 0.75044 0.37826 0.0
C838 C 0.88089 0.73178 0.39422 0.0
H839 H 0.817 0.65218 0.46404 0.0
H840 H 0.82708 0.6784 0.43407 0.0
H841 H 0.88943 0.71817 0.44785 0.0
H842 H 0.928 0.79105 0.36972 0.0
H843 H 0.92112 0.75626 0.39082 0.0
C844 C 0.34599 0.33334 0.70925 0.0
C845 C 0.34992 0.34974 0.7257 0.0
C846 C 0.33189 0.33857 0.69132 0.0
C847 C 0.30411 0.38801 0.66213 0.0
H848 H 0.26073 0.34154 0.64297 0.0
C849 C 0.21767 0.4081 0.62024 0.0
C850 C 0.21 0.39376 0.60322 0.0
C851 C 0.23816 0.40333 0.63127 0.0
C852 C 0.273 0.35459 0.64785 0.0
H853 H 0.34385 0.38514 0.73523 0.0
H854 H 0.3185 0.39393 0.70481 0.0
H855 H 0.28988 0.3317 0.67005 0.0
H856 H 0.2183 0.36364 0.58387 0.0
H857 H 0.2541 0.35504 0.6035 0.0
H858 H 0.28635 0.41115 0.64066 0.0
C859 C 0.3262 0.37699 0.70554 0.0
C860 C 0.28977 0.34896 0.66339 0.0
C861 C 0.34039 0.3718 0.72332 0.0
C862 C 0.22385 0.3751 0.5968 0.0
C863 C 0.24421 0.37006 0.60815 0.0
C864 C 0.28717 0.39369 0.64679 0.0
C865 C 0.32154 0.3604 0.68937 0.0
C866 C 0.30527 0.36572 0.67111 0.0
C867 C 0.25132 0.38387 0.62581 0.0
C868 C 0.27116 0.37715 0.63978 0.0
H869 H 0.35348 0.31632 0.71046 0.0
H870 H 0.32911 0.32547 0.67901 0.0
H871 H 0.31606 0.40125 0.6672 0.0
H872 H 0.20737 0.42261 0.62556 0.0
H873 H 0.24306 0.4142 0.64489 0.0
C874 C 0.66472 0.84112 0.96256 0.0
C875 C 0.64802 0.84829 0.97774 0.0
C876 C 0.65876 0.82642 0.94527 0.0
C877 C 0.6158 0.78263 0.93129 0.0
H878 H 0.63841 0.78883 0.87192 0.0
C879 C 0.58692 0.71831 0.86637 0.0
C880 C 0.6038 0.70982 0.85207 0.0
C881 C 0.59098 0.73803 0.87883 0.0
C882 C 0.63209 0.78672 0.88845 0.0
H883 H 0.61162 0.84766 0.98539 0.0
H884 H 0.60132 0.82163 0.95567 0.0
H885 H 0.6487 0.81767 0.89943 0.0
H886 H 0.63774 0.71597 0.83871 0.0
H887 H 0.64525 0.7501 0.86098 0.0
H888 H 0.5999 0.75146 0.92089 0.0
C889 C 0.61913 0.82679 0.95743 0.0
C890 C 0.63798 0.80328 0.9042 0.0
C891 C 0.62506 0.84156 0.97456 0.0
C892 C 0.62432 0.72229 0.84945 0.0
C893 C 0.62861 0.74185 0.86228 0.0
C894 C 0.61012 0.76604 0.9157 0.0
C895 C 0.63596 0.8187 0.9428 0.0
C896 C 0.6298 0.80144 0.92579 0.0
C897 C 0.61231 0.74947 0.87775 0.0
C898 C 0.61806 0.76784 0.894 0.0
H899 H 0.6825 0.84634 0.96442 0.0
H900 H 0.67212 0.82049 0.93428 0.0
H901 H 0.60961 0.78043 0.94787 0.0
H902 H 0.57087 0.70912 0.8686 0.0
H903 H 0.57767 0.74377 0.88996 0.0
C904 C 0.15479 0.33075 0.04996 0.0
C905 C 0.14998 0.34755 0.03409 0.0
C906 C 0.16875 0.33596 0.06799 0.0
C907 C 0.19438 0.38548 0.09877 0.0
H908 H 0.23999 0.34034 0.11607 0.0
C909 C 0.28004 0.40787 0.141 0.0
C910 C 0.28864 0.39312 0.15728 0.0
C911 C 0.25964 0.40265 0.12999 0.0
C912 C 0.2271 0.35299 0.11172 0.0
H913 H 0.15432 0.38351 0.02573 0.0
H914 H 0.17944 0.39235 0.05634 0.0
H915 H 0.21119 0.33025 0.08875 0.0
H916 H 0.28206 0.36178 0.17541 0.0
H917 H 0.24642 0.35242 0.15583 0.0
H918 H 0.21114 0.40855 0.12102 0.0
C919 C 0.17254 0.37511 0.05505 0.0
C920 C 0.21052 0.34722 0.09603 0.0
C921 C 0.15849 0.36992 0.03718 0.0
C922 C 0.27577 0.37357 0.16306 0.0
C923 C 0.2555 0.3681 0.15173 0.0
C924 C 0.21111 0.39132 0.11426 0.0
C925 C 0.17808 0.35816 0.07063 0.0
C926 C 0.19421 0.36353 0.08899 0.0
C927 C 0.24752 0.38234 0.13474 0.0
C928 C 0.22791 0.37528 0.12061 0.0
H929 H 0.1481 0.31346 0.04822 0.0
H930 H 0.17222 0.32257 0.07984 0.0
H931 H 0.18179 0.39835 0.09422 0.0
H932 H 0.28957 0.42307 0.13617 0.0
H933 H 0.25406 0.41389 0.11689 0.0
C934 C 0.62649 0.77734 0.41006 0.0
C935 C 0.6069 0.79026 0.40446 0.0
C936 C 0.63185 0.75708 0.39866 0.0
C937 C 0.60814 0.71251 0.36176 0.0
H938 H 0.6689 0.71206 0.33557 0.0
C939 C 0.62847 0.65837 0.28532 0.0
C940 C 0.65085 0.64997 0.28194 0.0
C941 C 0.62353 0.67271 0.30306 0.0
C942 C 0.65202 0.71153 0.34305 0.0
H943 H 0.57682 0.7913 0.38354 0.0
H944 H 0.5858 0.75577 0.36414 0.0
H945 H 0.65919 0.74129 0.36262 0.0
H946 H 0.68522 0.64853 0.29548 0.0
H947 H 0.67655 0.67311 0.32691 0.0
H948 H 0.60084 0.68287 0.34225 0.0
C949 C 0.59715 0.76134 0.37715 0.0
C950 C 0.64646 0.72836 0.35857 0.0
C951 C 0.59204 0.78174 0.38823 0.0
C952 C 0.66791 0.65513 0.29744 0.0
C953 C 0.66294 0.66937 0.31536 0.0
C954 C 0.61377 0.69551 0.34645 0.0
C955 C 0.61745 0.74913 0.38177 0.0
C956 C 0.62428 0.72937 0.36771 0.0
C957 C 0.64074 0.67865 0.31825 0.0
C958 C 0.63561 0.69512 0.33642 0.0
H959 H 0.63837 0.78356 0.42237 0.0
H960 H 0.64753 0.74794 0.40265 0.0
H961 H 0.591 0.71269 0.36871 0.0
H962 H 0.61469 0.65393 0.27418 0.0
H963 H 0.60627 0.67954 0.30452 0.0
C964 C 0.21878 0.08603 0.64221 0.0
C965 C 0.20936 0.10309 0.65577 0.0
C966 C 0.23854 0.09044 0.62989 0.0
C967 C 0.26637 0.10922 0.5927 0.0
H968 H 0.31435 0.1528 0.6075 0.0
C969 C 0.32404 0.14738 0.52588 0.0
C970 C 0.34741 0.151 0.53042 0.0
C971 C 0.3087 0.14156 0.54257 0.0
C972 C 0.30124 0.14038 0.60315 0.0
H973 H 0.21385 0.13775 0.66797 0.0
H974 H 0.2479 0.14588 0.64586 0.0
H975 H 0.28667 0.14101 0.63537 0.0
H976 H 0.37299 0.15229 0.55609 0.0
H977 H 0.34631 0.14144 0.58537 0.0
H978 H 0.28116 0.10797 0.5608 0.0
C979 C 0.24045 0.12883 0.64507 0.0
C980 C 0.28516 0.13381 0.6191 0.0
C981 C 0.2209 0.1242 0.65781 0.0
C982 C 0.35505 0.14942 0.55215 0.0
C983 C 0.33972 0.14332 0.56891 0.0
C984 C 0.2825 0.11557 0.57691 0.0
C985 C 0.24904 0.11228 0.63032 0.0
C986 C 0.26734 0.11828 0.61404 0.0
C987 C 0.31636 0.13901 0.56428 0.0
C988 C 0.29997 0.13152 0.58174 0.0
H989 H 0.21031 0.06953 0.64045 0.0
H990 H 0.24503 0.07694 0.61936 0.0
H991 H 0.25275 0.09758 0.58788 0.0
H992 H 0.31752 0.14922 0.50938 0.0
H993 H 0.29076 0.13916 0.5384 0.0
C994 C 0.91692 0.71613 0.89047 0.0
C995 C 0.89993 0.70759 0.9046 0.0
C996 C 0.91285 0.73581 0.87792 0.0
C997 C 0.89448 0.76417 0.8409 0.0
H998 H 0.85118 0.81244 0.85561 0.0
C999 C 0.85605 0.82144 0.77382 0.0
C1000 C 0.85153 0.84465 0.7784 0.0
C1001 C 0.86234 0.8063 0.79051 0.0
C1002 C 0.86355 0.79929 0.85126 0.0
H1003 H 0.86574 0.71346 0.91747 0.0
H1004 H 0.8581 0.7472 0.89492 0.0
H1005 H 0.86311 0.7851 0.88359 0.0
H1006 H 0.8494 0.87018 0.80406 0.0
H1007 H 0.86125 0.84395 0.8333 0.0
H1008 H 0.8957 0.77873 0.80891 0.0
C1009 C 0.87491 0.73924 0.89388 0.0
C1010 C 0.87019 0.78335 0.8673 0.0
C1011 C 0.87925 0.71984 0.90687 0.0
C1012 C 0.85291 0.85235 0.80011 0.0
C1013 C 0.85958 0.83726 0.81686 0.0
C1014 C 0.88815 0.78024 0.82504 0.0
C1015 C 0.89137 0.74705 0.87864 0.0
C1016 C 0.88554 0.76534 0.86228 0.0
C1017 C 0.86459 0.81402 0.81225 0.0
C1018 C 0.87226 0.7978 0.82981 0.0
H1019 H 0.93309 0.70707 0.88851 0.0
H1020 H 0.92633 0.74167 0.86705 0.0
H1021 H 0.90598 0.75043 0.83606 0.0
H1022 H 0.85443 0.81487 0.75732 0.0
H1023 H 0.86525 0.78844 0.78632 0.0
C1024 C 0.65651 0.66643 0.70971 0.0
C1025 C 0.65169 0.64994 0.72586 0.0
C1026 C 0.67072 0.66098 0.69191 0.0
C1027 C 0.6972 0.61105 0.66231 0.0
H1028 H 0.74196 0.65652 0.64388 0.0
C1029 C 0.7829 0.58919 0.61954 0.0
C1030 C 0.79103 0.6038 0.60292 0.0
C1031 C 0.76257 0.59428 0.63075 0.0
C1032 C 0.72931 0.64375 0.64856 0.0
H1033 H 0.65632 0.6142 0.73494 0.0
H1034 H 0.68192 0.60498 0.70478 0.0
H1035 H 0.7131 0.66676 0.6711 0.0
H1036 H 0.78364 0.63472 0.58442 0.0
H1037 H 0.74813 0.64382 0.6043 0.0
H1038 H 0.71427 0.58775 0.64046 0.0
C1039 C 0.67482 0.62218 0.70566 0.0
C1040 C 0.7127 0.64962 0.66419 0.0
C1041 C 0.6605 0.6276 0.7233 0.0
C1042 C 0.77774 0.62304 0.59702 0.0
C1043 C 0.75754 0.62836 0.60853 0.0
C1044 C 0.71398 0.60513 0.64688 0.0
C1045 C 0.68034 0.63883 0.68978 0.0
C1046 C 0.69665 0.63322 0.67161 0.0
C1047 C 0.75003 0.6143 0.62585 0.0
C1048 C 0.73046 0.6213 0.64009 0.0
H1049 H 0.6496 0.68369 0.71103 0.0
H1050 H 0.67413 0.67415 0.67982 0.0
H1051 H 0.68483 0.59809 0.66715 0.0
H1052 H 0.79276 0.57424 0.62447 0.0
H1053 H 0.75735 0.58317 0.64409 0.0
C1054 C 0.33412 0.15643 0.9611 0.0
C1055 C 0.35003 0.15325 0.97813 0.0
C1056 C 0.33938 0.17073 0.94333 0.0
C1057 C 0.38871 0.19995 0.91547 0.0
H1058 H 0.34142 0.2412 0.89396 0.0
C1059 C 0.4076 0.28562 0.87181 0.0
C1060 C 0.39347 0.29253 0.85435 0.0
C1061 C 0.40302 0.26534 0.88326 0.0
C1062 C 0.35473 0.22952 0.8995 0.0
H1063 H 0.38467 0.16109 0.98892 0.0
H1064 H 0.39345 0.18677 0.95874 0.0
H1065 H 0.33169 0.21234 0.92137 0.0
H1066 H 0.36395 0.28309 0.83466 0.0
H1067 H 0.35571 0.24763 0.85497 0.0
H1068 H 0.41193 0.21793 0.89426 0.0
C1069 C 0.37687 0.17829 0.95893 0.0
C1070 C 0.34916 0.21293 0.91524 0.0
C1071 C 0.37164 0.16392 0.97656 0.0
C1072 C 0.37524 0.27813 0.84794 0.0
C1073 C 0.37041 0.25796 0.85968 0.0
C1074 C 0.39431 0.21668 0.8999 0.0
C1075 C 0.36077 0.18205 0.9421 0.0
C1076 C 0.36618 0.19821 0.92379 0.0
C1077 C 0.38399 0.25161 0.87775 0.0
C1078 C 0.37748 0.23193 0.89203 0.0
H1079 H 0.31746 0.14809 0.96166 0.0
H1080 H 0.3267 0.17283 0.93052 0.0
H1081 H 0.40218 0.18858 0.9212 0.0
H1082 H 0.42178 0.29634 0.87714 0.0
H1083 H 0.41371 0.26105 0.89718 0.0
C1084 C 0.84073 0.87104 0.22255 0.0
C1085 C 0.84909 0.84858 0.22552 0.0
C1086 C 0.8265 0.87637 0.20484 0.0
C1087 C 0.78792 0.84881 0.1641 0.0
H1088 H 0.78733 0.91022 0.13932 0.0
C1089 C 0.72277 0.8754 0.0971 0.0
C1090 C 0.70991 0.89501 0.10281 0.0
C1091 C 0.74297 0.8699 0.1085 0.0
C1092 C 0.78735 0.89298 0.14603 0.0
H1093 H 0.85053 0.8145 0.21131 0.0
H1094 H 0.82614 0.82387 0.17995 0.0
H1095 H 0.81681 0.89983 0.16593 0.0
H1096 H 0.70896 0.92498 0.12389 0.0
H1097 H 0.74438 0.91571 0.14332 0.0
H1098 H 0.75834 0.84209 0.14417 0.0
C1099 C 0.82984 0.83722 0.19179 0.0
C1100 C 0.80415 0.88703 0.16142 0.0
C1101 C 0.84396 0.83186 0.20967 0.0
C1102 C 0.71848 0.90976 0.11911 0.0
C1103 C 0.73882 0.90447 0.13021 0.0
C1104 C 0.77128 0.8547 0.14852 0.0
C1105 C 0.82063 0.8595 0.18929 0.0
C1106 C 0.80433 0.86504 0.1711 0.0
C1107 C 0.75091 0.88412 0.12552 0.0
C1108 C 0.77049 0.87701 0.13968 0.0
H1109 H 0.84515 0.88458 0.23397 0.0
H1110 H 0.81972 0.89367 0.20367 0.0
H1111 H 0.78724 0.83182 0.17132 0.0
H1112 H 0.71652 0.86361 0.08473 0.0
H1113 H 0.75203 0.85418 0.10443 0.0
C1114 C 0.08994 0.2123 0.37495 0.0
C1115 C 0.10209 0.20715 0.35566 0.0
C1116 C 0.09381 0.23283 0.38617 0.0
C1117 C 0.1388 0.27655 0.3946 0.0
H1118 H 0.09115 0.30478 0.43001 0.0
C1119 C 0.15595 0.35096 0.45676 0.0
C1120 C 0.14689 0.34689 0.47777 0.0
C1121 C 0.14972 0.33699 0.43901 0.0
C1122 C 0.10463 0.29712 0.42017 0.0
H1123 H 0.12701 0.22028 0.33243 0.0
H1124 H 0.13357 0.25653 0.35196 0.0
H1125 H 0.08077 0.27587 0.40287 0.0
H1126 H 0.12534 0.32359 0.49653 0.0
H1127 H 0.1137 0.30025 0.46568 0.0
H1128 H 0.16265 0.29781 0.41223 0.0
C1129 C 0.12127 0.24438 0.35854 0.0
C1130 C 0.09872 0.28049 0.40465 0.0
C1131 C 0.11734 0.22371 0.34722 0.0
C1132 C 0.13172 0.32828 0.48058 0.0
C1133 C 0.12522 0.3146 0.46284 0.0
C1134 C 0.14469 0.29342 0.41001 0.0
C1135 C 0.1099 0.24895 0.37844 0.0
C1136 C 0.11579 0.2694 0.39215 0.0
C1137 C 0.13415 0.31875 0.44186 0.0
C1138 C 0.12773 0.30335 0.42342 0.0
H1139 H 0.078 0.20002 0.38193 0.0
H1140 H 0.08492 0.23547 0.40153 0.0
H1141 H 0.15246 0.26829 0.38546 0.0
H1142 H 0.16791 0.36496 0.45402 0.0
H1143 H 0.15696 0.34054 0.42303 0.0
C1144 C 0.66245 0.87213 0.5323 0.0
C1145 C 0.65237 0.85024 0.53058 0.0
C1146 C 0.67664 0.87762 0.55 0.0
C1147 C 0.71196 0.8505 0.59349 0.0
H1148 H 0.71539 0.91321 0.61493 0.0
C1149 C 0.77665 0.87729 0.6608 0.0
C1150 C 0.79063 0.89591 0.65457 0.0
C1151 C 0.7565 0.87223 0.64913 0.0
C1152 C 0.71458 0.89561 0.60916 0.0
H1153 H 0.64804 0.81745 0.54685 0.0
H1154 H 0.67245 0.82714 0.5781 0.0
H1155 H 0.68629 0.90294 0.58791 0.0
H1156 H 0.79363 0.92472 0.63224 0.0
H1157 H 0.75836 0.91624 0.6123 0.0
H1158 H 0.74042 0.84331 0.61471 0.0
C1159 C 0.67004 0.83985 0.56536 0.0
C1160 C 0.698 0.88971 0.59355 0.0
C1161 C 0.65593 0.83432 0.54753 0.0
C1162 C 0.78324 0.91024 0.63743 0.0
C1163 C 0.76298 0.90541 0.62603 0.0
C1164 C 0.72841 0.85636 0.60927 0.0
C1165 C 0.68079 0.86152 0.56673 0.0
C1166 C 0.69682 0.86721 0.58508 0.0
C1167 C 0.74975 0.88595 0.63128 0.0
C1168 C 0.73024 0.8791 0.61691 0.0
H1169 H 0.6593 0.88515 0.52001 0.0
H1170 H 0.68467 0.89442 0.5503 0.0
H1171 H 0.71182 0.83307 0.58724 0.0
H1172 H 0.78196 0.86584 0.67383 0.0
H1173 H 0.74654 0.85722 0.65366 0.0
C1174 C 0.09176 0.28384 0.88795 0.0
C1175 C 0.10594 0.29067 0.9054 0.0
C1176 C 0.09638 0.26367 0.87632 0.0
C1177 C 0.14478 0.22815 0.85964 0.0
H1178 H 0.09746 0.18715 0.83782 0.0
C1179 C 0.16565 0.15521 0.79792 0.0
C1180 C 0.14973 0.15188 0.78093 0.0
C1181 C 0.16034 0.16954 0.81566 0.0
C1182 C 0.11089 0.19855 0.84358 0.0
H1183 H 0.13559 0.28117 0.92489 0.0
H1184 H 0.14388 0.2459 0.90427 0.0
H1185 H 0.08763 0.21634 0.86492 0.0
H1186 H 0.11502 0.15954 0.77017 0.0
H1187 H 0.10617 0.18531 0.80029 0.0
H1188 H 0.16786 0.21115 0.83766 0.0
C1189 C 0.12912 0.25622 0.89971 0.0
C1190 C 0.10525 0.21518 0.85924 0.0
C1191 C 0.12426 0.27628 0.91162 0.0
C1192 C 0.12807 0.16249 0.78249 0.0
C1193 C 0.1228 0.1769 0.80009 0.0
C1194 C 0.15039 0.21165 0.84381 0.0
C1195 C 0.1155 0.24998 0.88163 0.0
C1196 C 0.12204 0.23043 0.86717 0.0
C1197 C 0.13889 0.18077 0.8169 0.0
C1198 C 0.13342 0.19691 0.83523 0.0
H1199 H 0.07752 0.29456 0.88275 0.0
H1200 H 0.08564 0.25946 0.8624 0.0
H1201 H 0.15805 0.23984 0.86523 0.0
H1202 H 0.18234 0.14693 0.79737 0.0
H1203 H 0.17303 0.17172 0.82846 0.0
C1204 C 0.82544 0.63409 0.02349 0.0
C1205 C 0.84529 0.64707 0.02788 0.0
C1206 C 0.80989 0.62872 0.04012 0.0
C1207 C 0.80218 0.62709 0.1007 0.0
H1208 H 0.73781 0.62514 0.08418 0.0
C1209 C 0.7214 0.61901 0.15926 0.0
C1210 C 0.70496 0.60292 0.15206 0.0
C1211 C 0.74094 0.62378 0.14646 0.0
C1212 C 0.75574 0.62553 0.08904 0.0
H1213 H 0.86393 0.66515 0.05332 0.0
H1214 H 0.83631 0.65639 0.08234 0.0
H1215 H 0.76651 0.63571 0.05715 0.0
H1216 H 0.6973 0.57775 0.12685 0.0
H1217 H 0.731 0.58615 0.10476 0.0
H1218 H 0.79084 0.61737 0.13294 0.0
C1219 C 0.83318 0.6497 0.06608 0.0
C1220 C 0.77227 0.63145 0.07349 0.0
C1221 C 0.84894 0.65488 0.0494 0.0
C1222 C 0.70939 0.59049 0.13276 0.0
C1223 C 0.72868 0.59532 0.12004 0.0
C1224 C 0.78548 0.62143 0.11643 0.0
C1225 C 0.81332 0.63667 0.06161 0.0
C1226 C 0.79579 0.63182 0.07891 0.0
C1227 C 0.74419 0.61259 0.12629 0.0
C1228 C 0.76214 0.62014 0.11057 0.0
H1229 H 0.82134 0.62859 0.00708 0.0
H1230 H 0.79501 0.61839 0.03599 0.0
H1231 H 0.82011 0.62712 0.10549 0.0
H1232 H 0.71849 0.62889 0.17402 0.0
H1233 H 0.75271 0.63715 0.15166 0.0
C1234 C 0.37514 0.34353 0.28629 0.0
C1235 C 0.35196 0.34949 0.28309 0.0
C1236 C 0.38152 0.32882 0.3033 0.0
C1237 C 0.36371 0.30409 0.35621 0.0
H1238 H 0.40195 0.25285 0.33817 0.0
C1239 C 0.37866 0.22255 0.40972 0.0
C1240 C 0.39903 0.20997 0.40651 0.0
C1241 C 0.37417 0.24227 0.39719 0.0
C1242 C 0.39172 0.26726 0.34375 0.0
H1243 H 0.31754 0.34636 0.29633 0.0
H1244 H 0.32873 0.32067 0.32636 0.0
H1245 H 0.39164 0.28223 0.31181 0.0
H1246 H 0.43153 0.20921 0.38923 0.0
H1247 H 0.42444 0.24418 0.36842 0.0
H1248 H 0.36393 0.28914 0.38827 0.0
C1249 C 0.34191 0.32712 0.31543 0.0
C1250 C 0.38568 0.28408 0.32851 0.0
C1251 C 0.33549 0.34174 0.29823 0.0
C1252 C 0.4156 0.21849 0.39191 0.0
C1253 C 0.41135 0.23839 0.37976 0.0
C1254 C 0.37001 0.28734 0.37162 0.0
C1255 C 0.36493 0.32007 0.31781 0.0
C1256 C 0.37157 0.30266 0.3345 0.0
C1257 C 0.39013 0.24998 0.38144 0.0
C1258 C 0.38409 0.26863 0.36559 0.0
H1259 H 0.38837 0.35008 0.27548 0.0
H1260 H 0.39947 0.32415 0.30503 0.0
H1261 H 0.35291 0.31829 0.36132 0.0
H1262 H 0.36548 0.21623 0.42071 0.0
H1263 H 0.35761 0.25059 0.39896 0.0
C1264 C 0.05625 0.06512 0.29222 0.0
C1265 C 0.0443 0.08562 0.29625 0.0
C1266 C 0.04425 0.04493 0.28736 0.0
C1267 C 0.98682 0.01942 0.29641 0.0
H1268 H 0.01195 0.96916 0.26216 0.0
C1269 C 0.93969 0.93299 0.29014 0.0
C1270 C 0.95329 0.91385 0.29545 0.0
C1271 C 0.94996 0.95415 0.2855 0.0
C1272 C 0.00473 0.98308 0.27174 0.0
H1273 H 0.01084 0.10176 0.29743 0.0
H1274 H 0.98971 0.06674 0.28801 0.0
H1275 H 0.03111 0.0066 0.26188 0.0
H1276 H 0.98806 0.90129 0.29933 0.0
H1277 H 0.0062 0.93837 0.29103 0.0
H1278 H 0.96059 0.99588 0.3064 0.0
C1279 C 0.00828 0.06594 0.28912 0.0
C1280 C 0.01572 0.00451 0.27166 0.0
C1281 C 0.02031 0.08605 0.29426 0.0
C1282 C 0.97732 0.91586 0.29508 0.0
C1283 C 0.98763 0.93701 0.29029 0.0
C1284 C 0.97573 0.99813 0.29629 0.0
C1285 C 0.02004 0.04493 0.28631 0.0
C1286 C 0.00713 0.02286 0.28431 0.0
C1287 C 0.97402 0.95653 0.28604 0.0
C1288 C 0.98475 0.97962 0.28426 0.0
H1289 H 0.07479 0.06446 0.294 0.0
H1290 H 0.05392 0.02911 0.28562 0.0
H1291 H 0.97991 0.03287 0.30675 0.0
H1292 H 0.92109 0.93182 0.29057 0.0
H1293 H 0.93905 0.96884 0.28211 0.0
C1294 C 0.06975 0.44573 0.54168 0.0
C1295 C 0.08981 0.45761 0.5475 0.0
C1296 C 0.04948 0.45776 0.53719 0.0
C1297 C 0.02234 0.51383 0.54986 0.0
H1298 H 0.97376 0.49042 0.51253 0.0
C1299 C 0.93526 0.55996 0.54301 0.0
C1300 C 0.91623 0.54582 0.54726 0.0
C1301 C 0.95678 0.55028 0.53867 0.0
C1302 C 0.98721 0.49715 0.52298 0.0
H1303 H 0.10512 0.49112 0.55213 0.0
H1304 H 0.07 0.5124 0.54328 0.0
H1305 H 0.01162 0.47211 0.51196 0.0
H1306 H 0.90426 0.5107 0.5496 0.0
H1307 H 0.94197 0.49358 0.54168 0.0
H1308 H 0.99791 0.53882 0.56085 0.0
C1309 C 0.06957 0.49379 0.54279 0.0
C1310 C 0.00889 0.48663 0.52275 0.0
C1311 C 0.08976 0.4817 0.5476 0.0
C1312 C 0.91874 0.52186 0.54617 0.0
C1313 C 0.94025 0.51213 0.5416 0.0
C1314 C 0.00082 0.5245 0.54985 0.0
C1315 C 0.04894 0.48196 0.53823 0.0
C1316 C 0.02664 0.49457 0.5365 0.0
C1317 C 0.9596 0.52627 0.53838 0.0
C1318 C 0.98293 0.51605 0.53669 0.0
H1319 H 0.06944 0.42709 0.5418 0.0
H1320 H 0.03399 0.44796 0.53407 0.0
H1321 H 0.03529 0.52019 0.56106 0.0
H1322 H 0.93369 0.57851 0.54401 0.0
H1323 H 0.97136 0.56157 0.53612 0.0
C1324 C 0.44365 0.43408 0.79308 0.0
C1325 C 0.45541 0.41341 0.79683 0.0
C1326 C 0.45582 0.45422 0.78843 0.0
C1327 C 0.5134 0.47936 0.79739 0.0
H1328 H 0.48863 0.52958 0.7629 0.0
C1329 C 0.5609 0.56564 0.79088 0.0
C1330 C 0.54731 0.58486 0.79597 0.0
C1331 C 0.5506 0.54446 0.78636 0.0
C1332 C 0.49575 0.51567 0.77255 0.0
H1333 H 0.48874 0.397 0.79793 0.0
H1334 H 0.51019 0.43199 0.78895 0.0
H1335 H 0.46924 0.49227 0.76276 0.0
H1336 H 0.51256 0.59755 0.7996 0.0
H1337 H 0.49436 0.56045 0.79152 0.0
H1338 H 0.53974 0.5028 0.80732 0.0
C1339 C 0.49162 0.43291 0.79005 0.0
C1340 C 0.48463 0.49432 0.77256 0.0
C1341 C 0.47941 0.41283 0.79494 0.0
C1342 C 0.52328 0.58291 0.79551 0.0
C1343 C 0.51294 0.56175 0.79084 0.0
C1344 C 0.5246 0.50059 0.79721 0.0
C1345 C 0.48002 0.45402 0.78735 0.0
C1346 C 0.49308 0.47599 0.7853 0.0
C1347 C 0.52652 0.54216 0.7868 0.0
C1348 C 0.51571 0.51909 0.78508 0.0
H1349 H 0.42511 0.43487 0.79481 0.0
H1350 H 0.44628 0.47012 0.7868 0.0
H1351 H 0.5202 0.4659 0.80778 0.0
H1352 H 0.5795 0.56678 0.79137 0.0
H1353 H 0.56148 0.52971 0.78313 0.0
C1354 C 0.43381 0.05738 0.0444 0.0
C1355 C 0.41319 0.04532 0.0475 0.0
C1356 C 0.4542 0.04553 0.03993 0.0
C1357 C 0.47991 0.98817 0.04842 0.0
H1358 H 0.53022 0.01373 0.01456 0.0
C1359 C 0.56647 0.94117 0.04199 0.0
C1360 C 0.58573 0.95476 0.0469 0.0
C1361 C 0.54524 0.95144 0.03759 0.0
C1362 C 0.51631 0.0064 0.02406 0.0
H1363 H 0.39717 0.01179 0.04764 0.0
H1364 H 0.43265 0.99092 0.03907 0.0
H1365 H 0.49276 0.03287 0.01442 0.0
H1366 H 0.5984 0.98954 0.05027 0.0
H1367 H 0.5612 0.00769 0.04253 0.0
H1368 H 0.50347 0.9619 0.05827 0.0
C1369 C 0.4333 0.00948 0.0405 0.0
C1370 C 0.49486 0.01737 0.02404 0.0
C1371 C 0.41296 0.02136 0.04517 0.0
C1372 C 0.58374 0.97879 0.04638 0.0
C1373 C 0.56251 0.98911 0.04188 0.0
C1374 C 0.50124 0.97714 0.04829 0.0
C1375 C 0.45432 0.02136 0.03841 0.0
C1376 C 0.47648 0.00859 0.03651 0.0
C1377 C 0.54289 0.97552 0.03802 0.0
C1378 C 0.51978 0.98629 0.03638 0.0
H1379 H 0.43434 0.07589 0.04648 0.0
H1380 H 0.47003 0.05527 0.03877 0.0
H1381 H 0.46639 0.98113 0.0586 0.0
H1382 H 0.56761 0.92257 0.04252 0.0
H1383 H 0.5305 0.94053 0.03446 0.0
C1384 C 0.02228 0.4126 0.96768 0.0
C1385 C 0.04602 0.41268 0.96382 0.0
C1386 C 0.01086 0.43309 0.97284 0.0
C1387 C 0.02047 0.49504 0.98744 0.0
H1388 H 0.96233 0.50323 0.95737 0.0
C1389 C 0.98165 0.5831 0.96295 0.0
C1390 C 0.95769 0.58561 0.96416 0.0
C1391 C 0.99196 0.56207 0.96827 0.0
C1392 C 0.97835 0.50113 0.96621 0.0
H1393 H 0.0767 0.43364 0.96256 0.0
H1394 H 0.05686 0.46957 0.97096 0.0
H1395 H 0.98106 0.46591 0.95672 0.0
H1396 H 0.92572 0.56885 0.97282 0.0
H1397 H 0.94368 0.53206 0.98218 0.0
H1398 H 0.01811 0.53082 0.99587 0.0
C1399 C 0.04697 0.45379 0.97072 0.0
C1400 C 0.9891 0.47965 0.96591 0.0
C1401 C 0.05837 0.43327 0.96581 0.0
C1402 C 0.94428 0.56729 0.97191 0.0
C1403 C 0.95452 0.54624 0.97707 0.0
C1404 C 0.0098 0.51664 0.98752 0.0
C1405 C 0.02296 0.45408 0.97384 0.0
C1406 C 0.01048 0.47637 0.97624 0.0
C1407 C 0.97839 0.54321 0.97469 0.0
C1408 C 0.98876 0.51996 0.97666 0.0
H1409 H 0.0125 0.39683 0.96606 0.0
H1410 H 0.99245 0.43254 0.97552 0.0
H1411 H 0.03671 0.49309 0.9959 0.0
H1412 H 0.99226 0.59706 0.95694 0.0
H1413 H 0.01036 0.56021 0.96613 0.0
C1414 C 0.431 0.44491 0.21562 0.0
C1415 C 0.41041 0.45682 0.2119 0.0
C1416 C 0.4512 0.45691 0.22036 0.0
C1417 C 0.47678 0.51447 0.21214 0.0
H1418 H 0.52669 0.48878 0.24644 0.0
C1419 C 0.56349 0.56097 0.21903 0.0
C1420 C 0.58242 0.54725 0.21332 0.0
C1421 C 0.54227 0.55085 0.22377 0.0
C1422 C 0.51286 0.49617 0.23686 0.0
H1423 H 0.39421 0.49026 0.21096 0.0
H1424 H 0.42933 0.51143 0.2201 0.0
H1425 H 0.48921 0.46972 0.24624 0.0
H1426 H 0.59461 0.51242 0.20895 0.0
H1427 H 0.55748 0.49453 0.21748 0.0
H1428 H 0.50047 0.54077 0.20265 0.0
C1429 C 0.43014 0.49286 0.21888 0.0
C1430 C 0.49141 0.48522 0.23665 0.0
C1431 C 0.40999 0.48082 0.21388 0.0
C1432 C 0.58021 0.52324 0.21353 0.0
C1433 C 0.55902 0.51307 0.21844 0.0
C1434 C 0.4981 0.52551 0.21256 0.0
C1435 C 0.45116 0.48111 0.22161 0.0
C1436 C 0.47321 0.49399 0.22393 0.0
C1437 C 0.53967 0.52682 0.22296 0.0
C1438 C 0.51648 0.51628 0.22461 0.0
H1439 H 0.43165 0.42637 0.21386 0.0
H1440 H 0.46704 0.44725 0.22199 0.0
H1441 H 0.46342 0.52153 0.20179 0.0
H1442 H 0.56483 0.57957 0.21872 0.0
H1443 H 0.5277 0.56185 0.22736 0.0
C1444 C 0.55699 0.933 0.46373 0.0
C1445 C 0.54475 0.91241 0.46116 0.0
C1446 C 0.54539 0.95347 0.46843 0.0
C1447 C 0.48777 0.97946 0.46203 0.0
H1448 H 0.5154 0.02987 0.49423 0.0
C1449 C 0.44232 0.06679 0.46917 0.0
C1450 C 0.45594 0.08554 0.46278 0.0
C1451 C 0.45246 0.04554 0.47374 0.0
C1452 C 0.50748 0.01591 0.48523 0.0
H1453 H 0.51116 0.89655 0.46208 0.0
H1454 H 0.49073 0.93216 0.47109 0.0
H1455 H 0.53411 0.99221 0.49401 0.0
H1456 H 0.49069 0.09742 0.45718 0.0
H1457 H 0.50861 0.06021 0.46532 0.0
H1458 H 0.46128 0.0032 0.4531 0.0
C1459 C 0.50923 0.93274 0.46907 0.0
C1460 C 0.51821 0.99435 0.48502 0.0
C1461 C 0.52087 0.91231 0.46415 0.0
C1462 C 0.47993 0.08313 0.46217 0.0
C1463 C 0.49013 0.0619 0.46689 0.0
C1464 C 0.47695 0.0009 0.46243 0.0
C1465 C 0.52128 0.95371 0.47073 0.0
C1466 C 0.50872 0.97595 0.47306 0.0
C1467 C 0.47643 0.04271 0.47209 0.0
C1468 C 0.48687 0.01947 0.47371 0.0
H1469 H 0.57543 0.93342 0.46114 0.0
H1470 H 0.55525 0.96924 0.4692 0.0
H1471 H 0.48013 0.96592 0.45227 0.0
H1472 H 0.42374 0.06828 0.46957 0.0
H1473 H 0.44151 0.03111 0.4779 0.0
C1474 C 0.06575 0.05586 0.71498 0.0
C1475 C 0.08642 0.04364 0.71291 0.0
C1476 C 0.04525 0.04429 0.7196 0.0
C1477 C 0.0197 0.98648 0.71359 0.0
H1478 H 0.96839 0.01441 0.7443 0.0
C1479 C 0.93246 0.94079 0.7192 0.0
C1480 C 0.91381 0.95424 0.71225 0.0
C1481 C 0.95353 0.95109 0.72419 0.0
C1482 C 0.9826 0.00641 0.73571 0.0
H1483 H 0.10241 0.01015 0.71473 0.0
H1484 H 0.06674 0.98979 0.72364 0.0
H1485 H 0.00597 0.03329 0.74463 0.0
H1486 H 0.90188 0.98887 0.70611 0.0
H1487 H 0.93877 0.00707 0.71495 0.0
H1488 H 0.99631 0.95977 0.7045 0.0
C1489 C 0.06613 0.00824 0.72126 0.0
C1490 C 0.00412 0.01723 0.73582 0.0
C1491 C 0.08658 0.01984 0.7164 0.0
C1492 C 0.91609 0.97824 0.71152 0.0
C1493 C 0.93714 0.98859 0.71664 0.0
C1494 C 0.9983 0.97559 0.71368 0.0
C1495 C 0.04507 0.02023 0.72233 0.0
C1496 C 0.02285 0.00762 0.7244 0.0
C1497 C 0.95627 0.97504 0.7224 0.0
C1498 C 0.97942 0.98561 0.72441 0.0
H1499 H 0.06529 0.07423 0.71199 0.0
H1500 H 0.02942 0.0541 0.71992 0.0
H1501 H 0.0335 0.97875 0.70423 0.0
H1502 H 0.93108 0.9222 0.71973 0.0
H1503 H 0.9679 0.94025 0.72879 0.0
C1504 C 0.32454 0.10655 0.4264 0.0
C1505 C 0.3404 0.11429 0.41074 0.0
C1506 C 0.30301 0.09837 0.41996 0.0
C1507 C 0.26776 0.08266 0.37096 0.0
H1508 H 0.21853 0.1097 0.40519 0.0
C1509 C 0.18123 0.11274 0.3362 0.0
C1510 C 0.16145 0.11105 0.34932 0.0
C1511 C 0.20247 0.10514 0.34401 0.0
C1512 C 0.23198 0.10154 0.39568 0.0
H1513 H 0.34673 0.11839 0.376 0.0
H1514 H 0.30897 0.10508 0.36478 0.0
H1515 H 0.25756 0.11097 0.41893 0.0
H1516 H 0.1482 0.09834 0.3803 0.0
H1517 H 0.18533 0.08531 0.3939 0.0
H1518 H 0.24202 0.07471 0.34701 0.0
C1519 C 0.31319 0.10475 0.38202 0.0
C1520 C 0.25444 0.10221 0.40359 0.0
C1521 C 0.3348 0.11262 0.38847 0.0
C1522 C 0.16313 0.10023 0.36985 0.0
C1523 C 0.18438 0.09271 0.37767 0.0
C1524 C 0.24526 0.08221 0.36293 0.0
C1525 C 0.29681 0.09807 0.39772 0.0
C1526 C 0.27271 0.09344 0.39102 0.0
C1527 C 0.20435 0.09577 0.3651 0.0
C1528 C 0.2273 0.09225 0.37496 0.0
H1529 H 0.32862 0.10707 0.44365 0.0
H1530 H 0.291 0.09285 0.43244 0.0
H1531 H 0.28138 0.07532 0.36108 0.0
H1532 H 0.18058 0.12085 0.32033 0.0
H1533 H 0.21764 0.10791 0.33404 0.0
C1534 C 0.89592 0.67553 0.58238 0.0
C1535 C 0.88829 0.65973 0.59814 0.0
C1536 C 0.90394 0.69716 0.58868 0.0
C1537 C 0.91873 0.73321 0.63746 0.0
H1538 H 0.89038 0.78137 0.60287 0.0
C1539 C 0.88592 0.81897 0.67174 0.0
C1540 C 0.88733 0.83876 0.65864 0.0
C1541 C 0.89403 0.79789 0.66399 0.0
C1542 C 0.8989 0.76823 0.61248 0.0
H1543 H 0.88442 0.65357 0.63294 0.0
H1544 H 0.89744 0.6915 0.6439 0.0
H1545 H 0.89037 0.74224 0.58933 0.0
H1546 H 0.89983 0.85226 0.62769 0.0
H1547 H 0.91373 0.81538 0.61415 0.0
H1548 H 0.92575 0.75933 0.66132 0.0
C1549 C 0.89779 0.68717 0.62669 0.0
C1550 C 0.89896 0.74572 0.60469 0.0
C1551 C 0.89009 0.66544 0.62039 0.0
C1552 C 0.8982 0.83729 0.63812 0.0
C1553 C 0.90622 0.8162 0.63035 0.0
C1554 C 0.91844 0.75576 0.64538 0.0
C1555 C 0.90418 0.70353 0.61087 0.0
C1556 C 0.9082 0.7278 0.61739 0.0
C1557 C 0.90361 0.7962 0.64295 0.0
C1558 C 0.9079 0.77333 0.63322 0.0
H1559 H 0.89528 0.67138 0.56514 0.0
H1560 H 0.90926 0.70915 0.57611 0.0
H1561 H 0.92642 0.71988 0.64745 0.0
H1562 H 0.87766 0.81949 0.68759 0.0
H1563 H 0.89156 0.78268 0.67396 0.0
C1564 C 0.18303 0.38118 0.92436 0.0
C1565 C 0.16246 0.38814 0.91437 0.0
C1566 C 0.20407 0.38976 0.91708 0.0
C1567 C 0.24751 0.41293 0.90257 0.0
H1568 H 0.25236 0.41348 0.83936 0.0
C1569 C 0.33574 0.40642 0.86184 0.0
C1570 C 0.33675 0.3899 0.84508 0.0
C1571 C 0.31456 0.41495 0.86897 0.0
C1572 C 0.25133 0.41344 0.85704 0.0
H1573 H 0.14758 0.41085 0.89004 0.0
H1574 H 0.18432 0.42636 0.8777 0.0
H1575 H 0.21469 0.41197 0.85633 0.0
H1576 H 0.31649 0.37015 0.82201 0.0
H1577 H 0.2797 0.38424 0.83482 0.0
H1578 H 0.28416 0.41209 0.90326 0.0
C1579 C 0.18427 0.41376 0.89074 0.0
C1580 C 0.22965 0.41294 0.86683 0.0
C1581 C 0.16322 0.40492 0.89785 0.0
C1582 C 0.31631 0.38297 0.83484 0.0
C1583 C 0.29515 0.39123 0.84215 0.0
C1584 C 0.26919 0.41302 0.89278 0.0
C1585 C 0.20501 0.40573 0.8998 0.0
C1586 C 0.22751 0.41163 0.88971 0.0
C1587 C 0.29395 0.40686 0.8597 0.0
C1588 C 0.27135 0.41221 0.86988 0.0
H1589 H 0.18304 0.36815 0.93699 0.0
H1590 H 0.21963 0.38279 0.92421 0.0
H1591 H 0.24648 0.4126 0.92025 0.0
H1592 H 0.35128 0.41232 0.86985 0.0
H1593 H 0.31432 0.42731 0.88222 0.0
C1594 C 0.60257 0.8402 0.12217 0.0
C1595 C 0.61127 0.84128 0.10072 0.0
C1596 C 0.59446 0.81948 0.13067 0.0
C1597 C 0.57853 0.75944 0.11707 0.0
H1598 H 0.61168 0.74525 0.1704 0.0
C1599 C 0.60607 0.66827 0.14026 0.0
C1600 C 0.60972 0.66262 0.16232 0.0
C1601 C 0.59863 0.69024 0.13445 0.0
C1602 C 0.60171 0.74895 0.15587 0.0
H1603 H 0.6164 0.82183 0.07083 0.0
H1604 H 0.60257 0.78559 0.08578 0.0
H1605 H 0.61165 0.78426 0.15662 0.0
H1606 H 0.60633 0.67479 0.19567 0.0
H1607 H 0.59285 0.71301 0.18559 0.0
H1608 H 0.5692 0.72385 0.11601 0.0
C1609 C 0.60196 0.80082 0.09598 0.0
C1610 C 0.60174 0.7714 0.14793 0.0
C1611 C 0.61012 0.82156 0.08747 0.0
C1612 C 0.60424 0.67883 0.17853 0.0
C1613 C 0.59649 0.70073 0.17273 0.0
C1614 C 0.5783 0.73695 0.12514 0.0
C1615 C 0.5948 0.79943 0.11789 0.0
C1616 C 0.59083 0.77671 0.12808 0.0
C1617 C 0.59438 0.70695 0.15059 0.0
C1618 C 0.5906 0.7313 0.14422 0.0
H1619 H 0.60285 0.85514 0.13277 0.0
H1620 H 0.58874 0.81893 0.14753 0.0
H1621 H 0.56975 0.76318 0.10186 0.0
H1622 H 0.61005 0.65611 0.12738 0.0
H1623 H 0.59749 0.69444 0.11723 0.0
C1624 C 0.66738 0.61175 0.87016 0.0
C1625 C 0.66196 0.61366 0.84785 0.0
C1626 C 0.68915 0.60434 0.87667 0.0
C1627 C 0.74814 0.60373 0.85545 0.0
H1628 H 0.76109 0.57566 0.91166 0.0
C1629 C 0.83969 0.60172 0.88877 0.0
C1630 C 0.84153 0.61208 0.9095 0.0
C1631 C 0.81837 0.59445 0.88094 0.0
C1632 C 0.7577 0.58335 0.89585 0.0
H1633 H 0.67428 0.60733 0.81494 0.0
H1634 H 0.7121 0.59381 0.82629 0.0
H1635 H 0.72173 0.57569 0.89757 0.0
H1636 H 0.82268 0.62143 0.93883 0.0
H1637 H 0.78543 0.60884 0.92505 0.0
H1638 H 0.7839 0.6119 0.85396 0.0
C1639 C 0.69983 0.5988 0.83875 0.0
C1640 C 0.73519 0.58347 0.88781 0.0
C1641 C 0.67816 0.60654 0.83223 0.0
C1642 C 0.82185 0.61361 0.92277 0.0
C1643 C 0.80052 0.60625 0.91495 0.0
C1644 C 0.7706 0.60338 0.86337 0.0
C1645 C 0.70586 0.59837 0.86103 0.0
C1646 C 0.73005 0.59435 0.86784 0.0
C1647 C 0.79849 0.59729 0.89369 0.0
C1648 C 0.77548 0.59384 0.88394 0.0
H1649 H 0.65521 0.61705 0.88261 0.0
H1650 H 0.6932 0.60452 0.89395 0.0
H1651 H 0.74486 0.61262 0.84021 0.0
H1652 H 0.85456 0.6 0.87821 0.0
H1653 H 0.81729 0.58736 0.86459 0.0
C1654 C 0.39867 0.16246 0.12099 0.0
C1655 C 0.38897 0.16116 0.09995 0.0
C1656 C 0.40679 0.18337 0.12909 0.0
C1657 C 0.42026 0.24391 0.11459 0.0
H1658 H 0.39015 0.25711 0.16977 0.0
C1659 C 0.39011 0.33387 0.13922 0.0
C1660 C 0.38773 0.33946 0.16145 0.0
C1661 C 0.39829 0.31228 0.13298 0.0
C1662 C 0.39929 0.25371 0.15467 0.0
H1663 H 0.38197 0.18043 0.07031 0.0
H1664 H 0.39573 0.21696 0.08458 0.0
H1665 H 0.39069 0.21808 0.15606 0.0
H1666 H 0.39423 0.32775 0.19452 0.0
H1667 H 0.40892 0.2902 0.18367 0.0
H1668 H 0.4281 0.27986 0.1129 0.0
C1669 C 0.3972 0.20178 0.09476 0.0
C1670 C 0.39955 0.23124 0.14677 0.0
C1671 C 0.38908 0.18086 0.08664 0.0
C1672 C 0.39529 0.3237 0.17729 0.0
C1673 C 0.40374 0.3022 0.17105 0.0
C1674 C 0.42015 0.26644 0.12259 0.0
C1675 C 0.40539 0.20339 0.11632 0.0
C1676 C 0.40933 0.22625 0.12631 0.0
C1677 C 0.40453 0.29592 0.14885 0.0
C1678 C 0.40891 0.27171 0.14235 0.0
H1679 H 0.3992 0.14754 0.13159 0.0
H1680 H 0.41332 0.18406 0.14566 0.0
H1681 H 0.42818 0.24045 0.09889 0.0
H1682 H 0.38453 0.3457 0.1266 0.0
H1683 H 0.3984 0.308 0.11575 0.0
C1684 C 0.83279 0.89044 0.36872 0.0
C1685 C 0.83826 0.88756 0.34651 0.0
C1686 C 0.81117 0.89856 0.37491 0.0
C1687 C 0.75237 0.89894 0.35356 0.0
H1688 H 0.73953 0.92893 0.40891 0.0
C1689 C 0.6614 0.89909 0.38771 0.0
C1690 C 0.66027 0.88938 0.40876 0.0
C1691 C 0.68224 0.90722 0.37947 0.0
C1692 C 0.74288 0.92072 0.39333 0.0
H1693 H 0.82621 0.89295 0.31337 0.0
H1694 H 0.78862 0.90763 0.32412 0.0
H1695 H 0.77883 0.92857 0.39463 0.0
H1696 H 0.67974 0.8825 0.43831 0.0
H1697 H 0.71616 0.89634 0.42378 0.0
H1698 H 0.71671 0.8904 0.35256 0.0
C1699 C 0.80075 0.90288 0.33678 0.0
C1700 C 0.76535 0.92043 0.38518 0.0
C1701 C 0.82228 0.89446 0.3306 0.0
C1702 C 0.68004 0.88961 0.42197 0.0
C1703 C 0.7009 0.89776 0.41371 0.0
C1704 C 0.72996 0.89942 0.36159 0.0
C1705 C 0.79465 0.90426 0.35901 0.0
C1706 C 0.77048 0.90877 0.3656 0.0
C1707 C 0.70234 0.90586 0.3921 0.0
C1708 C 0.72512 0.90959 0.3819 0.0
H1709 H 0.8448 0.88537 0.38138 0.0
H1710 H 0.80703 0.8991 0.39217 0.0
H1711 H 0.75564 0.88948 0.33862 0.0
H1712 H 0.64641 0.89956 0.3772 0.0
H1713 H 0.68282 0.91369 0.36286 0.0
C1714 C 0.11049 0.17796 0.67162 0.0
C1715 C 0.11145 0.15823 0.65837 0.0
C1716 C 0.10277 0.19884 0.66304 0.0
C1717 C 0.1039 0.22827 0.61117 0.0
H1718 H 0.07133 0.27633 0.64242 0.0
C1719 C 0.10792 0.32063 0.58018 0.0
C1720 C 0.11297 0.33702 0.59634 0.0
C1721 C 0.09995 0.29883 0.58599 0.0
C1722 C 0.08047 0.26309 0.63349 0.0
H1723 H 0.10314 0.1445 0.62626 0.0
H1724 H 0.08985 0.18097 0.61136 0.0
H1725 H 0.07113 0.23703 0.65667 0.0
H1726 H 0.1124 0.34386 0.63124 0.0
H1727 H 0.09955 0.30565 0.64143 0.0
H1728 H 0.11464 0.25422 0.58884 0.0
C1729 C 0.09534 0.18031 0.62827 0.0
C1730 C 0.08026 0.24061 0.64161 0.0
C1731 C 0.10299 0.15944 0.63684 0.0
C1732 C 0.10875 0.33158 0.61837 0.0
C1733 C 0.10113 0.30967 0.62421 0.0
C1734 C 0.10433 0.2507 0.6032 0.0
C1735 C 0.0959 0.20036 0.64106 0.0
C1736 C 0.0925 0.22315 0.63082 0.0
C1737 C 0.09725 0.29282 0.60812 0.0
C1738 C 0.0932 0.26853 0.61459 0.0
H1739 H 0.11661 0.17758 0.68831 0.0
H1740 H 0.10354 0.21406 0.67324 0.0
H1741 H 0.11379 0.21524 0.60267 0.0
H1742 H 0.11062 0.32443 0.56306 0.0
H1743 H 0.09662 0.28644 0.57315 0.0
loop_
_geom_bond_atom_site_label_1
_geom_bond_atom_site_label_2
_geom_bond_distance
_geom_bond_site_symmetry_2
_ccdc_geom_bond_type
Co0 O3 1.970 . S
Co0 N17 1.989 . S
Co0 O25 1.967 . S
Co0 O32 1.920 . S
Co1 O4 1.966 . S
Co1 N10 2.022 . S
Co1 N18 1.993 . S
Co1 O26 1.941 . S
C2 O3 1.258 . S
C2 O4 1.263 . S
O3 Co0 1.970 . S
O3 C2 1.258 . S
O4 Co1 1.966 . S
O4 C2 1.263 . S
C5 O6 1.235 . S
C5 O32 1.289 . S
O6 C5 1.235 . S
C7 C9 1.400 . S
C7 N10 1.351 . S
C7 C12 1.501 . S
C8 C9 1.387 . S
C8 N11 1.341 . S
C9 C7 1.400 . S
C9 C8 1.387 . S
N10 Co1 2.022 . S
N10 C7 1.351 . S
N10 N11 1.365 . S
N11 C8 1.341 . S
N11 N10 1.365 . S
N11 H31 0.862 . S
C12 C7 1.501 . S
C12 H13 0.961 . S
C12 H14 0.961 . S
C12 H15 0.960 . S
H13 C12 0.961 . S
H14 C12 0.961 . S
H15 C12 0.960 . S
C16 N17 1.342 . S
C16 C20 1.401 . S
C16 C21 1.499 . S
N17 Co0 1.989 . S
N17 C16 1.342 . S
N17 N18 1.388 . S
N18 Co1 1.993 . S
N18 N17 1.388 . S
N18 C19 1.346 . S
C19 N18 1.346 . S
C19 C20 1.396 . S
C19 C29 1.510 . S
C20 C16 1.401 . S
C20 C19 1.396 . S
C21 C16 1.499 . S
C21 H22 0.959 . S
C21 H23 0.960 . S
C21 H24 0.961 . S
H22 C21 0.959 . S
H23 C21 0.960 . S
H24 C21 0.961 . S
O25 Co0 1.967 . S
O25 C33 1.258 . S
O26 Co1 1.941 . S
O26 C33 1.266 . S
H27 C29 0.959 . S
H28 C29 0.961 . S
C29 C19 1.510 . S
C29 H27 0.959 . S
C29 H28 0.961 . S
C29 H30 0.960 . S
H30 C29 0.960 . S
H31 N11 0.862 . S
O32 Co0 1.920 . S
O32 C5 1.289 . S
C33 O25 1.258 . S
C33 O26 1.266 . S
Co34 O37 1.970 . S
Co34 N51 1.989 . S
Co34 O59 1.967 . S
Co34 O66 1.920 . S
Co35 O38 1.966 . S
Co35 N44 2.022 . S
Co35 N52 1.993 . S
Co35 O60 1.941 . S
C36 O37 1.258 . S
C36 O38 1.263 . S
O37 Co34 1.970 . S
O37 C36 1.258 . S
O38 Co35 1.966 . S
O38 C36 1.263 . S
C39 O40 1.235 . S
C39 O66 1.289 . S
O40 C39 1.235 . S
C41 C43 1.400 . S
C41 N44 1.351 . S
C41 C46 1.501 . S
C42 C43 1.387 . S
C42 N45 1.341 . S
C43 C41 1.400 . S
C43 C42 1.387 . S
N44 Co35 2.022 . S
N44 C41 1.351 . S
N44 N45 1.365 . S
N45 C42 1.341 . S
N45 N44 1.365 . S
N45 H65 0.862 . S
C46 C41 1.501 . S
C46 H47 0.961 . S
C46 H48 0.961 . S
C46 H49 0.960 . S
H47 C46 0.961 . S
H48 C46 0.961 . S
H49 C46 0.960 . S
C50 N51 1.342 . S
C50 C54 1.401 . S
C50 C55 1.499 . S
N51 Co34 1.989 . S
N51 C50 1.342 . S
N51 N52 1.388 . S
N52 Co35 1.993 . S
N52 N51 1.388 . S
N52 C53 1.346 . S
C53 N52 1.346 . S
C53 C54 1.396 . S
C53 C63 1.510 . S
C54 C50 1.401 . S
C54 C53 1.396 . S
C55 C50 1.499 . S
C55 H56 0.959 . S
C55 H57 0.960 . S
C55 H58 0.961 . S
H56 C55 0.959 . S
H57 C55 0.960 . S
H58 C55 0.961 . S
O59 Co34 1.967 . S
O59 C67 1.258 . S
O60 Co35 1.941 . S
O60 C67 1.266 . S
H61 C63 0.959 . S
H62 C63 0.961 . S
C63 C53 1.510 . S
C63 H61 0.959 . S
C63 H62 0.961 . S
C63 H64 0.960 . S
H64 C63 0.960 . S
H65 N45 0.862 . S
O66 Co34 1.920 . S
O66 C39 1.289 . S
C67 O59 1.258 . S
C67 O60 1.266 . S
Co68 O71 1.970 . S
Co68 N85 1.989 . S
Co68 O93 1.967 . S
Co68 O100 1.920 . S
Co69 O72 1.966 . S
Co69 N78 2.022 . S
Co69 N86 1.993 . S
Co69 O94 1.941 . S
C70 O71 1.258 . S
C70 O72 1.263 . S
O71 Co68 1.970 . S
O71 C70 1.258 . S
O72 Co69 1.966 . S
O72 C70 1.263 . S
C73 O74 1.235 . S
C73 O100 1.289 . S
O74 C73 1.235 . S
C75 C77 1.400 . S
C75 N78 1.351 . S
C75 C80 1.501 . S
C76 C77 1.387 . S
C76 N79 1.341 . S
C77 C75 1.400 . S
C77 C76 1.387 . S
N78 Co69 2.022 . S
N78 C75 1.351 . S
N78 N79 1.365 . S
N79 C76 1.341 . S
N79 N78 1.365 . S
N79 H99 0.862 . S
C80 C75 1.501 . S
C80 H81 0.961 . S
C80 H82 0.961 . S
C80 H83 0.960 . S
H81 C80 0.961 . S
H82 C80 0.961 . S
H83 C80 0.960 . S
C84 N85 1.342 . S
C84 C88 1.401 . S
C84 C89 1.499 . S
N85 Co68 1.989 . S
N85 C84 1.342 . S
N85 N86 1.388 . S
N86 Co69 1.993 . S
N86 N85 1.388 . S
N86 C87 1.346 . S
C87 N86 1.346 . S
C87 C88 1.396 . S
C87 C97 1.510 . S
C88 C84 1.401 . S
C88 C87 1.396 . S
C89 C84 1.499 . S
C89 H90 0.959 . S
C89 H91 0.960 . S
C89 H92 0.961 . S
H90 C89 0.959 . S
H91 C89 0.960 . S
H92 C89 0.961 . S
O93 Co68 1.967 . S
O93 C101 1.258 . S
O94 Co69 1.941 . S
O94 C101 1.266 . S
H95 C97 0.959 . S
H96 C97 0.961 . S
C97 C87 1.510 . S
C97 H95 0.959 . S
C97 H96 0.961 . S
C97 H98 0.960 . S
H98 C97 0.960 . S
H99 N79 0.862 . S
O100 Co68 1.920 . S
O100 C73 1.289 . S
C101 O93 1.258 . S
C101 O94 1.266 . S
Co102 O105 1.970 . S
Co102 N119 1.989 . S
Co102 O127 1.967 . S
Co102 O134 1.920 . S
Co103 O106 1.966 . S
Co103 N112 2.022 . S
Co103 N120 1.993 . S
Co103 O128 1.941 . S
C104 O105 1.258 . S
C104 O106 1.263 . S
O105 Co102 1.970 . S
O105 C104 1.258 . S
O106 Co103 1.966 . S
O106 C104 1.263 . S
C107 O108 1.235 . S
C107 O134 1.289 . S
O108 C107 1.235 . S
C109 C111 1.400 1_554 S
C109 N112 1.351 . S
C109 C114 1.501 . S
C110 C111 1.387 . S
C110 N113 1.341 1_556 S
C111 C109 1.400 1_556 S
C111 C110 1.387 . S
N112 Co103 2.022 . S
N112 C109 1.351 . S
N112 N113 1.365 . S
N113 C110 1.341 1_554 S
N113 N112 1.365 . S
N113 H133 0.862 . S
C114 C109 1.501 . S
C114 H115 0.961 . S
C114 H116 0.961 . S
C114 H117 0.960 . S
H115 C114 0.961 . S
H116 C114 0.961 . S
H117 C114 0.960 . S
C118 N119 1.342 . S
C118 C122 1.401 . S
C118 C123 1.499 . S
N119 Co102 1.989 . S
N119 C118 1.342 . S
N119 N120 1.388 . S
N120 Co103 1.993 . S
N120 N119 1.388 . S
N120 C121 1.346 . S
C121 N120 1.346 . S
C121 C122 1.396 . S
C121 C131 1.510 . S
C122 C118 1.401 . S
C122 C121 1.396 . S
C123 C118 1.499 . S
C123 H124 0.959 . S
C123 H125 0.960 . S
C123 H126 0.961 . S
H124 C123 0.959 . S
H125 C123 0.960 . S
H126 C123 0.961 . S
O127 Co102 1.967 . S
O127 C135 1.258 . S
O128 Co103 1.941 . S
O128 C135 1.266 . S
H129 C131 0.959 . S
H130 C131 0.961 . S
C131 C121 1.510 . S
C131 H129 0.959 . S
C131 H130 0.961 . S
C131 H132 0.960 . S
H132 C131 0.960 . S
H133 N113 0.862 . S
O134 Co102 1.920 . S
O134 C107 1.289 . S
C135 O127 1.258 . S
C135 O128 1.266 . S
Co136 O139 1.970 . S
Co136 N153 1.989 . S
Co136 O161 1.967 . S
Co136 O168 1.920 . S
Co137 O140 1.966 . S
Co137 N146 2.022 . S
Co137 N154 1.993 . S
Co137 O162 1.941 . S
C138 O139 1.258 . S
C138 O140 1.263 . S
O139 Co136 1.970 . S
O139 C138 1.258 . S
O140 Co137 1.966 . S
O140 C138 1.263 . S
C141 O142 1.235 . S
C141 O168 1.289 . S
O142 C141 1.235 . S
C143 C145 1.400 1_556 S
C143 N146 1.351 . S
C143 C148 1.501 . S
C144 C145 1.387 . S
C144 N147 1.341 1_554 S
C145 C143 1.400 1_554 S
C145 C144 1.387 . S
N146 Co137 2.022 . S
N146 C143 1.351 . S
N146 N147 1.365 . S
N147 C144 1.341 1_556 S
N147 N146 1.365 . S
N147 H167 0.862 . S
C148 C143 1.501 . S
C148 H149 0.961 . S
C148 H150 0.961 . S
C148 H151 0.960 . S
H149 C148 0.961 . S
H150 C148 0.961 . S
H151 C148 0.960 . S
C152 N153 1.342 . S
C152 C156 1.401 . S
C152 C157 1.499 . S
N153 Co136 1.989 . S
N153 C152 1.342 . S
N153 N154 1.388 . S
N154 Co137 1.993 . S
N154 N153 1.388 . S
N154 C155 1.346 . S
C155 N154 1.346 . S
C155 C156 1.396 . S
C155 C165 1.510 . S
C156 C152 1.401 . S
C156 C155 1.396 . S
C157 C152 1.499 . S
C157 H158 0.959 . S
C157 H159 0.960 . S
C157 H160 0.961 . S
H158 C157 0.959 . S
H159 C157 0.960 . S
H160 C157 0.961 . S
O161 Co136 1.967 . S
O161 C169 1.258 . S
O162 Co137 1.941 . S
O162 C169 1.266 . S
H163 C165 0.959 . S
H164 C165 0.961 . S
C165 C155 1.510 . S
C165 H163 0.959 . S
C165 H164 0.961 . S
C165 H166 0.960 . S
H166 C165 0.960 . S
H167 N147 0.862 . S
O168 Co136 1.920 . S
O168 C141 1.289 . S
C169 O161 1.258 . S
C169 O162 1.266 . S
Co170 O173 1.970 . S
Co170 N187 1.989 . S
Co170 O195 1.967 . S
Co170 O202 1.920 . S
Co171 O174 1.966 . S
Co171 N180 2.022 . S
Co171 N188 1.993 . S
Co171 O196 1.941 . S
C172 O173 1.258 . S
C172 O174 1.263 . S
O173 Co170 1.970 . S
O173 C172 1.258 . S
O174 Co171 1.966 . S
O174 C172 1.263 . S
C175 O176 1.235 . S
C175 O202 1.289 . S
O176 C175 1.235 . S
C177 C179 1.400 . S
C177 N180 1.351 . S
C177 C182 1.501 . S
C178 C179 1.387 . S
C178 N181 1.341 . S
C179 C177 1.400 . S
C179 C178 1.387 . S
N180 Co171 2.022 . S
N180 C177 1.351 . S
N180 N181 1.365 . S
N181 C178 1.341 . S
N181 N180 1.365 . S
N181 H201 0.862 . S
C182 C177 1.501 . S
C182 H183 0.961 . S
C182 H184 0.961 . S
C182 H185 0.960 . S
H183 C182 0.961 . S
H184 C182 0.961 . S
H185 C182 0.960 . S
C186 N187 1.342 . S
C186 C190 1.401 . S
C186 C191 1.499 . S
N187 Co170 1.989 . S
N187 C186 1.342 . S
N187 N188 1.388 . S
N188 Co171 1.993 . S
N188 N187 1.388 . S
N188 C189 1.346 . S
C189 N188 1.346 . S
C189 C190 1.396 . S
C189 C199 1.510 . S
C190 C186 1.401 . S
C190 C189 1.396 . S
C191 C186 1.499 . S
C191 H192 0.959 . S
C191 H193 0.960 . S
C191 H194 0.961 . S
H192 C191 0.959 . S
H193 C191 0.960 . S
H194 C191 0.961 . S
O195 Co170 1.967 . S
O195 C203 1.258 . S
O196 Co171 1.941 . S
O196 C203 1.266 . S
H197 C199 0.959 . S
H198 C199 0.961 . S
C199 C189 1.510 . S
C199 H197 0.959 . S
C199 H198 0.961 . S
C199 H200 0.960 . S
H200 C199 0.960 . S
H201 N181 0.862 . S
O202 Co170 1.920 . S
O202 C175 1.289 . S
C203 O195 1.258 . S
C203 O196 1.266 . S
Co204 O207 1.970 . S
Co204 N221 1.989 . S
Co204 O229 1.967 . S
Co204 O236 1.920 . S
Co205 O208 1.966 . S
Co205 N214 2.022 . S
Co205 N222 1.993 . S
Co205 O230 1.941 . S
C206 O207 1.258 . S
C206 O208 1.263 . S
O207 Co204 1.970 . S
O207 C206 1.258 . S
O208 Co205 1.966 . S
O208 C206 1.263 . S
C209 O210 1.235 . S
C209 O236 1.289 . S
O210 C209 1.235 . S
C211 C213 1.400 . S
C211 N214 1.351 . S
C211 C216 1.501 . S
C212 C213 1.387 . S
C212 N215 1.341 . S
C213 C211 1.400 . S
C213 C212 1.387 . S
N214 Co205 2.022 . S
N214 C211 1.351 . S
N214 N215 1.365 . S
N215 C212 1.341 . S
N215 N214 1.365 . S
N215 H235 0.862 . S
C216 C211 1.501 . S
C216 H217 0.961 . S
C216 H218 0.961 . S
C216 H219 0.960 . S
H217 C216 0.961 . S
H218 C216 0.961 . S
H219 C216 0.960 . S
C220 N221 1.342 . S
C220 C224 1.401 . S
C220 C225 1.499 . S
N221 Co204 1.989 . S
N221 C220 1.342 . S
N221 N222 1.388 . S
N222 Co205 1.993 . S
N222 N221 1.388 . S
N222 C223 1.346 . S
C223 N222 1.346 . S
C223 C224 1.396 . S
C223 C233 1.510 . S
C224 C220 1.401 . S
C224 C223 1.396 . S
C225 C220 1.499 . S
C225 H226 0.959 . S
C225 H227 0.960 . S
C225 H228 0.961 . S
H226 C225 0.959 . S
H227 C225 0.960 . S
H228 C225 0.961 . S
O229 Co204 1.967 . S
O229 C237 1.258 . S
O230 Co205 1.941 . S
O230 C237 1.266 . S
H231 C233 0.959 . S
H232 C233 0.961 . S
C233 C223 1.510 . S
C233 H231 0.959 . S
C233 H232 0.961 . S
C233 H234 0.960 . S
H234 C233 0.960 . S
H235 N215 0.862 . S
O236 Co204 1.920 . S
O236 C209 1.289 . S
C237 O229 1.258 . S
C237 O230 1.266 . S
Co238 O241 1.970 . S
Co238 N255 1.989 . S
Co238 O263 1.967 . S
Co238 O270 1.920 . S
Co239 O242 1.966 . S
Co239 N248 2.022 . S
Co239 N256 1.993 . S
Co239 O264 1.941 . S
C240 O241 1.258 . S
C240 O242 1.263 . S
O241 Co238 1.970 . S
O241 C240 1.258 . S
O242 Co239 1.966 . S
O242 C240 1.263 . S
C243 O244 1.235 . S
C243 O270 1.289 . S
O244 C243 1.235 . S
C245 C247 1.400 . S
C245 N248 1.351 . S
C245 C250 1.501 . S
C246 C247 1.387 . S
C246 N249 1.341 . S
C247 C245 1.400 . S
C247 C246 1.387 . S
N248 Co239 2.022 . S
N248 C245 1.351 . S
N248 N249 1.365 . S
N249 C246 1.341 . S
N249 N248 1.365 . S
N249 H269 0.862 . S
C250 C245 1.501 . S
C250 H251 0.961 . S
C250 H252 0.961 . S
C250 H253 0.960 . S
H251 C250 0.961 . S
H252 C250 0.961 . S
H253 C250 0.960 . S
C254 N255 1.342 . S
C254 C258 1.401 . S
C254 C259 1.499 . S
N255 Co238 1.989 . S
N255 C254 1.342 . S
N255 N256 1.388 . S
N256 Co239 1.993 . S
N256 N255 1.388 . S
N256 C257 1.346 . S
C257 N256 1.346 . S
C257 C258 1.396 . S
C257 C267 1.510 . S
C258 C254 1.401 . S
C258 C257 1.396 . S
C259 C254 1.499 . S
C259 H260 0.959 . S
C259 H261 0.960 . S
C259 H262 0.961 . S
H260 C259 0.959 . S
H261 C259 0.960 . S
H262 C259 0.961 . S
O263 Co238 1.967 . S
O263 C271 1.258 . S
O264 Co239 1.941 . S
O264 C271 1.266 . S
H265 C267 0.959 . S
H266 C267 0.961 . S
C267 C257 1.510 . S
C267 H265 0.959 . S
C267 H266 0.961 . S
C267 H268 0.960 . S
H268 C267 0.960 . S
H269 N249 0.862 . S
O270 Co238 1.920 . S
O270 C243 1.289 . S
C271 O263 1.258 . S
C271 O264 1.266 . S
Co272 O275 1.970 . S
Co272 N289 1.989 . S
Co272 O297 1.967 . S
Co272 O304 1.920 . S
Co273 O276 1.966 . S
Co273 N282 2.022 . S
Co273 N290 1.993 . S
Co273 O298 1.941 . S
C274 O275 1.258 . S
C274 O276 1.263 . S
O275 Co272 1.970 . S
O275 C274 1.258 . S
O276 Co273 1.966 . S
O276 C274 1.263 . S
C277 O278 1.235 . S
C277 O304 1.289 . S
O278 C277 1.235 . S
C279 C281 1.400 . S
C279 N282 1.351 . S
C279 C284 1.501 . S
C280 C281 1.387 . S
C280 N283 1.341 . S
C281 C279 1.400 . S
C281 C280 1.387 . S
N282 Co273 2.022 . S
N282 C279 1.351 . S
N282 N283 1.365 . S
N283 C280 1.341 . S
N283 N282 1.365 . S
N283 H303 0.862 . S
C284 C279 1.501 . S
C284 H285 0.961 . S
C284 H286 0.961 . S
C284 H287 0.960 . S
H285 C284 0.961 . S
H286 C284 0.961 . S
H287 C284 0.960 . S
C288 N289 1.342 . S
C288 C292 1.401 . S
C288 C293 1.499 . S
N289 Co272 1.989 . S
N289 C288 1.342 . S
N289 N290 1.388 . S
N290 Co273 1.993 . S
N290 N289 1.388 . S
N290 C291 1.346 . S
C291 N290 1.346 . S
C291 C292 1.396 . S
C291 C301 1.510 . S
C292 C288 1.401 . S
C292 C291 1.396 . S
C293 C288 1.499 . S
C293 H294 0.959 . S
C293 H295 0.960 . S
C293 H296 0.961 . S
H294 C293 0.959 . S
H295 C293 0.960 . S
H296 C293 0.961 . S
O297 Co272 1.967 . S
O297 C305 1.258 . S
O298 Co273 1.941 . S
O298 C305 1.266 . S
H299 C301 0.959 . S
H300 C301 0.961 . S
C301 C291 1.510 . S
C301 H299 0.959 . S
C301 H300 0.961 . S
C301 H302 0.960 . S
H302 C301 0.960 . S
H303 N283 0.862 . S
O304 Co272 1.920 . S
O304 C277 1.289 . S
C305 O297 1.258 . S
C305 O298 1.266 . S
Co306 O309 1.970 . S
Co306 N323 1.989 . S
Co306 O331 1.967 . S
Co306 O338 1.920 . S
Co307 O310 1.966 . S
Co307 N316 2.022 . S
Co307 N324 1.993 . S
Co307 O332 1.941 . S
C308 O309 1.258 . S
C308 O310 1.263 . S
O309 Co306 1.970 . S
O309 C308 1.258 . S
O310 Co307 1.966 . S
O310 C308 1.263 . S
C311 O312 1.235 . S
C311 O338 1.289 . S
O312 C311 1.235 . S
C313 C315 1.400 1_554 S
C313 N316 1.351 . S
C313 C318 1.501 . S
C314 C315 1.387 . S
C314 N317 1.341 1_556 S
C315 C313 1.400 1_556 S
C315 C314 1.387 . S
N316 Co307 2.022 . S
N316 C313 1.351 . S
N316 N317 1.365 . S
N317 C314 1.341 1_554 S
N317 N316 1.365 . S
N317 H337 0.862 . S
C318 C313 1.501 . S
C318 H319 0.961 . S
C318 H320 0.961 . S
C318 H321 0.960 . S
H319 C318 0.961 . S
H320 C318 0.961 . S
H321 C318 0.960 . S
C322 N323 1.342 . S
C322 C326 1.401 . S
C322 C327 1.499 . S
N323 Co306 1.989 . S
N323 C322 1.342 . S
N323 N324 1.388 . S
N324 Co307 1.993 . S
N324 N323 1.388 . S
N324 C325 1.346 . S
C325 N324 1.346 . S
C325 C326 1.396 . S
C325 C335 1.510 . S
C326 C322 1.401 . S
C326 C325 1.396 . S
C327 C322 1.499 . S
C327 H328 0.959 . S
C327 H329 0.960 . S
C327 H330 0.961 . S
H328 C327 0.959 . S
H329 C327 0.960 . S
H330 C327 0.961 . S
O331 Co306 1.967 . S
O331 C339 1.258 . S
O332 Co307 1.941 . S
O332 C339 1.266 . S
H333 C335 0.959 . S
H334 C335 0.961 . S
C335 C325 1.510 . S
C335 H333 0.959 . S
C335 H334 0.961 . S
C335 H336 0.960 . S
H336 C335 0.960 . S
H337 N317 0.862 . S
O338 Co306 1.920 . S
O338 C311 1.289 . S
C339 O331 1.258 . S
C339 O332 1.266 . S
Co340 O343 1.970 . S
Co340 N357 1.989 . S
Co340 O365 1.967 . S
Co340 O372 1.920 . S
Co341 O344 1.966 . S
Co341 N350 2.022 . S
Co341 N358 1.993 . S
Co341 O366 1.941 . S
C342 O343 1.258 . S
C342 O344 1.263 . S
O343 Co340 1.970 . S
O343 C342 1.258 . S
O344 Co341 1.966 . S
O344 C342 1.263 . S
C345 O346 1.235 . S
C345 O372 1.289 . S
O346 C345 1.235 . S
C347 C349 1.400 . S
C347 N350 1.351 . S
C347 C352 1.501 . S
C348 C349 1.387 . S
C348 N351 1.341 . S
C349 C347 1.400 . S
C349 C348 1.387 . S
N350 Co341 2.022 . S
N350 C347 1.351 . S
N350 N351 1.365 . S
N351 C348 1.341 . S
N351 N350 1.365 . S
N351 H371 0.862 . S
C352 C347 1.501 . S
C352 H353 0.961 . S
C352 H354 0.961 . S
C352 H355 0.960 . S
H353 C352 0.961 . S
H354 C352 0.961 . S
H355 C352 0.960 . S
C356 N357 1.342 . S
C356 C360 1.401 . S
C356 C361 1.499 . S
N357 Co340 1.989 . S
N357 C356 1.342 . S
N357 N358 1.388 . S
N358 Co341 1.993 . S
N358 N357 1.388 . S
N358 C359 1.346 . S
C359 N358 1.346 . S
C359 C360 1.396 . S
C359 C369 1.510 . S
C360 C356 1.401 . S
C360 C359 1.396 . S
C361 C356 1.499 . S
C361 H362 0.959 . S
C361 H363 0.960 . S
C361 H364 0.961 . S
H362 C361 0.959 . S
H363 C361 0.960 . S
H364 C361 0.961 . S
O365 Co340 1.967 . S
O365 C373 1.258 . S
O366 Co341 1.941 . S
O366 C373 1.266 . S
H367 C369 0.959 . S
H368 C369 0.961 . S
C369 C359 1.510 . S
C369 H367 0.959 . S
C369 H368 0.961 . S
C369 H370 0.960 . S
H370 C369 0.960 . S
H371 N351 0.862 . S
O372 Co340 1.920 . S
O372 C345 1.289 . S
C373 O365 1.258 . S
C373 O366 1.266 . S
Co374 O377 1.970 . S
Co374 N391 1.989 . S
Co374 O399 1.967 . S
Co374 O406 1.920 . S
Co375 O378 1.966 . S
Co375 N384 2.022 . S
Co375 N392 1.993 . S
Co375 O400 1.941 . S
C376 O377 1.258 . S
C376 O378 1.263 . S
O377 Co374 1.970 . S
O377 C376 1.258 . S
O378 Co375 1.966 . S
O378 C376 1.263 . S
C379 O380 1.235 . S
C379 O406 1.289 . S
O380 C379 1.235 . S
C381 C383 1.400 . S
C381 N384 1.351 . S
C381 C386 1.501 . S
C382 C383 1.387 . S
C382 N385 1.341 . S
C383 C381 1.400 . S
C383 C382 1.387 . S
N384 Co375 2.022 . S
N384 C381 1.351 . S
N384 N385 1.365 . S
N385 C382 1.341 . S
N385 N384 1.365 . S
N385 H405 0.862 . S
C386 C381 1.501 . S
C386 H387 0.961 . S
C386 H388 0.961 . S
C386 H389 0.960 . S
H387 C386 0.961 . S
H388 C386 0.961 . S
H389 C386 0.960 . S
C390 N391 1.342 . S
C390 C394 1.401 . S
C390 C395 1.499 . S
N391 Co374 1.989 . S
N391 C390 1.342 . S
N391 N392 1.388 . S
N392 Co375 1.993 . S
N392 N391 1.388 . S
N392 C393 1.346 . S
C393 N392 1.346 . S
C393 C394 1.396 . S
C393 C403 1.510 . S
C394 C390 1.401 . S
C394 C393 1.396 . S
C395 C390 1.499 . S
C395 H396 0.959 . S
C395 H397 0.960 . S
C395 H398 0.961 . S
H396 C395 0.959 . S
H397 C395 0.960 . S
H398 C395 0.961 . S
O399 Co374 1.967 . S
O399 C407 1.258 . S
O400 Co375 1.941 . S
O400 C407 1.266 . S
H401 C403 0.959 . S
H402 C403 0.961 . S
C403 C393 1.510 . S
C403 H401 0.959 . S
C403 H402 0.961 . S
C403 H404 0.960 . S
H404 C403 0.960 . S
H405 N385 0.862 . S
O406 Co374 1.920 . S
O406 C379 1.289 . S
C407 O399 1.258 . S
C407 O400 1.266 . S
Co408 O411 1.970 . S
Co408 N425 1.989 . S
Co408 O433 1.967 . S
Co408 O440 1.920 . S
Co409 O412 1.966 . S
Co409 N418 2.022 . S
Co409 N426 1.993 . S
Co409 O434 1.941 . S
C410 O411 1.258 . S
C410 O412 1.263 . S
O411 Co408 1.970 . S
O411 C410 1.258 . S
O412 Co409 1.966 . S
O412 C410 1.263 . S
C413 O414 1.235 . S
C413 O440 1.289 . S
O414 C413 1.235 . S
C415 C417 1.400 . S
C415 N418 1.351 . S
C415 C420 1.501 . S
C416 C417 1.387 . S
C416 N419 1.341 . S
C417 C415 1.400 . S
C417 C416 1.387 . S
N418 Co409 2.022 . S
N418 C415 1.351 . S
N418 N419 1.365 . S
N419 C416 1.341 . S
N419 N418 1.365 . S
N419 H439 0.862 . S
C420 C415 1.501 . S
C420 H421 0.961 . S
C420 H422 0.961 . S
C420 H423 0.960 . S
H421 C420 0.961 . S
H422 C420 0.961 . S
H423 C420 0.960 . S
C424 N425 1.342 . S
C424 C428 1.401 . S
C424 C429 1.499 . S
N425 Co408 1.989 . S
N425 C424 1.342 . S
N425 N426 1.388 . S
N426 Co409 1.993 . S
N426 N425 1.388 . S
N426 C427 1.346 . S
C427 N426 1.346 . S
C427 C428 1.396 . S
C427 C437 1.510 . S
C428 C424 1.401 . S
C428 C427 1.396 . S
C429 C424 1.499 . S
C429 H430 0.959 . S
C429 H431 0.960 . S
C429 H432 0.961 . S
H430 C429 0.959 . S
H431 C429 0.960 . S
H432 C429 0.961 . S
O433 Co408 1.967 . S
O433 C441 1.258 . S
O434 Co409 1.941 . S
O434 C441 1.266 . S
H435 C437 0.959 . S
H436 C437 0.961 . S
C437 C427 1.510 . S
C437 H435 0.959 . S
C437 H436 0.961 . S
C437 H438 0.960 . S
H438 C437 0.960 . S
H439 N419 0.862 . S
O440 Co408 1.920 . S
O440 C413 1.289 . S
C441 O433 1.258 . S
C441 O434 1.266 . S
Co442 O445 1.970 . S
Co442 N459 1.989 . S
Co442 O467 1.967 . S
Co442 O474 1.920 . S
Co443 O446 1.966 . S
Co443 N452 2.022 . S
Co443 N460 1.993 . S
Co443 O468 1.941 . S
C444 O445 1.258 . S
C444 O446 1.263 . S
O445 Co442 1.970 . S
O445 C444 1.258 . S
O446 Co443 1.966 . S
O446 C444 1.263 . S
C447 O448 1.235 . S
C447 O474 1.289 . S
O448 C447 1.235 . S
C449 C451 1.400 . S
C449 N452 1.351 . S
C449 C454 1.501 . S
C450 C451 1.387 . S
C450 N453 1.341 . S
C451 C449 1.400 . S
C451 C450 1.387 . S
N452 Co443 2.022 . S
N452 C449 1.351 . S
N452 N453 1.365 . S
N453 C450 1.341 . S
N453 N452 1.365 . S
N453 H473 0.862 . S
C454 C449 1.501 . S
C454 H455 0.961 . S
C454 H456 0.961 . S
C454 H457 0.960 . S
H455 C454 0.961 . S
H456 C454 0.961 . S
H457 C454 0.960 . S
C458 N459 1.342 . S
C458 C462 1.401 . S
C458 C463 1.499 . S
N459 Co442 1.989 . S
N459 C458 1.342 . S
N459 N460 1.388 . S
N460 Co443 1.993 . S
N460 N459 1.388 . S
N460 C461 1.346 . S
C461 N460 1.346 . S
C461 C462 1.396 . S
C461 C471 1.510 . S
C462 C458 1.401 . S
C462 C461 1.396 . S
C463 C458 1.499 . S
C463 H464 0.959 . S
C463 H465 0.960 . S
C463 H466 0.961 . S
H464 C463 0.959 . S
H465 C463 0.960 . S
H466 C463 0.961 . S
O467 Co442 1.967 . S
O467 C475 1.258 . S
O468 Co443 1.941 . S
O468 C475 1.266 . S
H469 C471 0.959 . S
H470 C471 0.961 . S
C471 C461 1.510 . S
C471 H469 0.959 . S
C471 H470 0.961 . S
C471 H472 0.960 . S
H472 C471 0.960 . S
H473 N453 0.862 . S
O474 Co442 1.920 . S
O474 C447 1.289 . S
C475 O467 1.258 . S
C475 O468 1.266 . S
Co476 O479 1.970 . S
Co476 N493 1.989 . S
Co476 O501 1.967 . S
Co476 O508 1.920 . S
Co477 O480 1.966 . S
Co477 N486 2.022 . S
Co477 N494 1.993 . S
Co477 O502 1.941 . S
C478 O479 1.258 . S
C478 O480 1.263 . S
O479 Co476 1.970 . S
O479 C478 1.258 . S
O480 Co477 1.966 . S
O480 C478 1.263 . S
C481 O482 1.235 . S
C481 O508 1.289 . S
O482 C481 1.235 . S
C483 C485 1.400 1_556 S
C483 N486 1.351 . S
C483 C488 1.501 . S
C484 C485 1.387 . S
C484 N487 1.341 1_554 S
C485 C483 1.400 1_554 S
C485 C484 1.387 . S
N486 Co477 2.022 . S
N486 C483 1.351 . S
N486 N487 1.365 . S
N487 C484 1.341 1_556 S
N487 N486 1.365 . S
N487 H507 0.862 . S
C488 C483 1.501 . S
C488 H489 0.961 . S
C488 H490 0.961 . S
C488 H491 0.960 . S
H489 C488 0.961 . S
H490 C488 0.961 . S
H491 C488 0.960 . S
C492 N493 1.342 . S
C492 C496 1.401 . S
C492 C497 1.499 . S
N493 Co476 1.989 . S
N493 C492 1.342 . S
N493 N494 1.388 . S
N494 Co477 1.993 . S
N494 N493 1.388 . S
N494 C495 1.346 . S
C495 N494 1.346 . S
C495 C496 1.396 . S
C495 C505 1.510 . S
C496 C492 1.401 . S
C496 C495 1.396 . S
C497 C492 1.499 . S
C497 H498 0.959 . S
C497 H499 0.960 . S
C497 H500 0.961 . S
H498 C497 0.959 . S
H499 C497 0.960 . S
H500 C497 0.961 . S
O501 Co476 1.967 . S
O501 C509 1.258 . S
O502 Co477 1.941 . S
O502 C509 1.266 . S
H503 C505 0.959 . S
H504 C505 0.961 . S
C505 C495 1.510 . S
C505 H503 0.959 . S
C505 H504 0.961 . S
C505 H506 0.960 . S
H506 C505 0.960 . S
H507 N487 0.862 . S
O508 Co476 1.920 . S
O508 C481 1.289 . S
C509 O501 1.258 . S
C509 O502 1.266 . S
Co510 O513 1.970 . S
Co510 N527 1.989 . S
Co510 O535 1.967 . S
Co510 O542 1.920 . S
Co511 O514 1.966 . S
Co511 N520 2.022 . S
Co511 N528 1.993 . S
Co511 O536 1.941 . S
C512 O513 1.258 . S
C512 O514 1.263 . S
O513 Co510 1.970 . S
O513 C512 1.258 . S
O514 Co511 1.966 . S
O514 C512 1.263 . S
C515 O516 1.235 . S
C515 O542 1.289 . S
O516 C515 1.235 . S
C517 C519 1.400 . S
C517 N520 1.351 . S
C517 C522 1.501 . S
C518 C519 1.387 . S
C518 N521 1.341 . S
C519 C517 1.400 . S
C519 C518 1.387 . S
N520 Co511 2.022 . S
N520 C517 1.351 . S
N520 N521 1.365 . S
N521 C518 1.341 . S
N521 N520 1.365 . S
N521 H541 0.862 . S
C522 C517 1.501 . S
C522 H523 0.961 . S
C522 H524 0.961 . S
C522 H525 0.960 . S
H523 C522 0.961 . S
H524 C522 0.961 . S
H525 C522 0.960 . S
C526 N527 1.342 . S
C526 C530 1.401 . S
C526 C531 1.499 . S
N527 Co510 1.989 . S
N527 C526 1.342 . S
N527 N528 1.388 . S
N528 Co511 1.993 . S
N528 N527 1.388 . S
N528 C529 1.346 . S
C529 N528 1.346 . S
C529 C530 1.396 . S
C529 C539 1.510 . S
C530 C526 1.401 . S
C530 C529 1.396 . S
C531 C526 1.499 . S
C531 H532 0.959 . S
C531 H533 0.960 . S
C531 H534 0.961 . S
H532 C531 0.959 . S
H533 C531 0.960 . S
H534 C531 0.961 . S
O535 Co510 1.967 . S
O535 C543 1.258 . S
O536 Co511 1.941 . S
O536 C543 1.266 . S
H537 C539 0.959 . S
H538 C539 0.961 . S
C539 C529 1.510 . S
C539 H537 0.959 . S
C539 H538 0.961 . S
C539 H540 0.960 . S
H540 C539 0.960 . S
H541 N521 0.862 . S
O542 Co510 1.920 . S
O542 C515 1.289 . S
C543 O535 1.258 . S
C543 O536 1.266 . S
C544 C545 1.349 . S
C544 C546 1.327 . S
C544 H569 0.950 . S
C545 C544 1.349 . S
C545 C561 1.349 . S
C546 C544 1.327 . S
C546 C565 1.429 . S
C546 H570 0.950 . S
C547 C564 1.574 . S
C547 C566 1.368 . S
C547 H571 0.949 . S
H548 C552 0.949 . S
C549 C550 1.349 . S
C549 C551 1.327 . S
C549 H572 0.950 . S
C550 C549 1.349 . S
C550 C562 1.349 . S
C551 C549 1.327 . S
C551 C567 1.429 . S
C551 H573 0.950 . S
C552 H548 0.949 . S
C552 C560 1.574 . S
C552 C568 1.368 . S
H553 C561 0.950 . S
H554 C559 0.950 . S
H555 C560 0.949 . S
H556 C562 0.950 . S
H557 C563 0.950 . S
H558 C564 0.949 . S
C559 H554 0.950 . S
C559 C561 1.327 . S
C559 C565 1.429 . S
C560 C552 1.574 . S
C560 H555 0.949 . S
C560 C566 1.368 . S
C561 C545 1.349 . S
C561 H553 0.950 . S
C561 C559 1.327 . S
C562 C550 1.349 . S
C562 H556 0.950 . S
C562 C563 1.327 . S
C563 H557 0.950 . S
C563 C562 1.327 . S
C563 C567 1.429 . S
C564 C547 1.574 . S
C564 H558 0.949 . S
C564 C568 1.368 . S
C565 C546 1.429 . S
C565 C559 1.429 . S
C565 C566 1.523 . S
C566 C547 1.368 . S
C566 C560 1.368 . S
C566 C565 1.523 . S
C567 C551 1.429 . S
C567 C563 1.429 . S
C567 C568 1.523 . S
C568 C552 1.368 . S
C568 C564 1.368 . S
C568 C567 1.523 . S
H569 C544 0.950 . S
H570 C546 0.950 . S
H571 C547 0.949 . S
H572 C549 0.950 . S
H573 C551 0.950 . S
C574 C575 1.349 . S
C574 C576 1.327 . S
C574 H599 0.950 . S
C575 C574 1.349 . S
C575 C591 1.349 . S
C576 C574 1.327 . S
C576 C595 1.429 . S
C576 H600 0.950 . S
C577 C594 1.574 . S
C577 C596 1.368 . S
C577 H601 0.949 . S
H578 C582 0.949 . S
C579 C580 1.349 . S
C579 C581 1.327 . S
C579 H602 0.950 . S
C580 C579 1.349 . S
C580 C592 1.349 . S
C581 C579 1.327 . S
C581 C597 1.429 . S
C581 H603 0.950 . S
C582 H578 0.949 . S
C582 C590 1.574 . S
C582 C598 1.368 . S
H583 C591 0.950 . S
H584 C589 0.950 . S
H585 C590 0.949 . S
H586 C592 0.950 . S
H587 C593 0.950 . S
H588 C594 0.949 . S
C589 H584 0.950 . S
C589 C591 1.327 . S
C589 C595 1.429 . S
C590 C582 1.574 . S
C590 H585 0.949 . S
C590 C596 1.368 . S
C591 C575 1.349 . S
C591 H583 0.950 . S
C591 C589 1.327 . S
C592 C580 1.349 . S
C592 H586 0.950 . S
C592 C593 1.327 . S
C593 H587 0.950 . S
C593 C592 1.327 . S
C593 C597 1.429 . S
C594 C577 1.574 . S
C594 H588 0.949 . S
C594 C598 1.368 . S
C595 C576 1.429 . S
C595 C589 1.429 . S
C595 C596 1.523 . S
C596 C577 1.368 . S
C596 C590 1.368 . S
C596 C595 1.523 . S
C597 C581 1.429 . S
C597 C593 1.429 . S
C597 C598 1.523 . S
C598 C582 1.368 . S
C598 C594 1.368 . S
C598 C597 1.523 . S
H599 C574 0.950 . S
H600 C576 0.950 . S
H601 C577 0.949 . S
H602 C579 0.950 . S
H603 C581 0.950 . S
C604 C605 1.349 . S
C604 C606 1.327 . S
C604 H629 0.950 . S
C605 C604 1.349 . S
C605 C621 1.349 . S
C606 C604 1.327 . S
C606 C625 1.429 . S
C606 H630 0.950 . S
C607 C624 1.574 1_554 S
C607 C626 1.368 . S
C607 H631 0.949 . S
H608 C612 0.949 . S
C609 C610 1.349 . S
C609 C611 1.327 . S
C609 H632 0.950 . S
C610 C609 1.349 . S
C610 C622 1.349 . S
C611 C609 1.327 . S
C611 C627 1.429 . S
C611 H633 0.950 . S
C612 H608 0.949 . S
C612 C620 1.574 1_556 S
C612 C628 1.368 . S
H613 C621 0.950 . S
H614 C619 0.950 . S
H615 C620 0.949 . S
H616 C622 0.950 . S
H617 C623 0.950 . S
H618 C624 0.949 . S
C619 H614 0.950 . S
C619 C621 1.327 . S
C619 C625 1.429 . S
C620 C612 1.574 1_554 S
C620 H615 0.949 . S
C620 C626 1.368 . S
C621 C605 1.349 . S
C621 H613 0.950 . S
C621 C619 1.327 . S
C622 C610 1.349 . S
C622 H616 0.950 . S
C622 C623 1.327 . S
C623 H617 0.950 . S
C623 C622 1.327 . S
C623 C627 1.429 . S
C624 C607 1.574 1_556 S
C624 H618 0.949 . S
C624 C628 1.368 . S
C625 C606 1.429 . S
C625 C619 1.429 . S
C625 C626 1.523 . S
C626 C607 1.368 . S
C626 C620 1.368 . S
C626 C625 1.523 . S
C627 C611 1.429 . S
C627 C623 1.429 . S
C627 C628 1.523 . S
C628 C612 1.368 . S
C628 C624 1.368 . S
C628 C627 1.523 . S
H629 C604 0.950 . S
H630 C606 0.950 . S
H631 C607 0.949 . S
H632 C609 0.950 . S
H633 C611 0.950 . S
C634 C635 1.349 . S
C634 C636 1.327 . S
C634 H659 0.950 . S
C635 C634 1.349 . S
C635 C651 1.349 . S
C636 C634 1.327 . S
C636 C655 1.429 . S
C636 H660 0.950 . S
C637 C654 1.574 . S
C637 C656 1.368 . S
C637 H661 0.949 . S
H638 C642 0.949 . S
C639 C640 1.349 . S
C639 C641 1.327 . S
C639 H662 0.950 . S
C640 C639 1.349 . S
C640 C652 1.349 . S
C641 C639 1.327 . S
C641 C657 1.429 . S
C641 H663 0.950 . S
C642 H638 0.949 . S
C642 C650 1.574 . S
C642 C658 1.368 . S
H643 C651 0.950 . S
H644 C649 0.950 . S
H645 C650 0.949 . S
H646 C652 0.950 . S
H647 C653 0.950 . S
H648 C654 0.949 . S
C649 H644 0.950 . S
C649 C651 1.327 . S
C649 C655 1.429 . S
C650 C642 1.574 . S
C650 H645 0.949 . S
C650 C656 1.368 . S
C651 C635 1.349 . S
C651 H643 0.950 . S
C651 C649 1.327 . S
C652 C640 1.349 . S
C652 H646 0.950 . S
C652 C653 1.327 . S
C653 H647 0.950 . S
C653 C652 1.327 . S
C653 C657 1.429 . S
C654 C637 1.574 . S
C654 H648 0.949 . S
C654 C658 1.368 . S
C655 C636 1.429 . S
C655 C649 1.429 . S
C655 C656 1.523 . S
C656 C637 1.368 . S
C656 C650 1.368 . S
C656 C655 1.523 . S
C657 C641 1.429 . S
C657 C653 1.429 . S
C657 C658 1.523 . S
C658 C642 1.368 . S
C658 C654 1.368 . S
C658 C657 1.523 . S
H659 C634 0.950 . S
H660 C636 0.950 . S
H661 C637 0.949 . S
H662 C639 0.950 . S
H663 C641 0.950 . S
C664 C665 1.349 . S
C664 C666 1.327 . S
C664 H689 0.950 . S
C665 C664 1.349 . S
C665 C681 1.349 . S
C666 C664 1.327 . S
C666 C685 1.429 . S
C666 H690 0.950 . S
C667 C684 1.574 . S
C667 C686 1.368 . S
C667 H691 0.949 . S
H668 C672 0.949 . S
C669 C670 1.349 . S
C669 C671 1.327 . S
C669 H692 0.950 . S
C670 C669 1.349 . S
C670 C682 1.349 . S
C671 C669 1.327 . S
C671 C687 1.429 . S
C671 H693 0.950 . S
C672 H668 0.949 . S
C672 C680 1.574 . S
C672 C688 1.368 . S
H673 C681 0.950 . S
H674 C679 0.950 . S
H675 C680 0.949 . S
H676 C682 0.950 . S
H677 C683 0.950 . S
H678 C684 0.949 . S
C679 H674 0.950 . S
C679 C681 1.327 . S
C679 C685 1.429 . S
C680 C672 1.574 . S
C680 H675 0.949 . S
C680 C686 1.368 . S
C681 C665 1.349 . S
C681 H673 0.950 . S
C681 C679 1.327 . S
C682 C670 1.349 . S
C682 H676 0.950 . S
C682 C683 1.327 . S
C683 H677 0.950 . S
C683 C682 1.327 . S
C683 C687 1.429 . S
C684 C667 1.574 . S
C684 H678 0.949 . S
C684 C688 1.368 . S
C685 C666 1.429 . S
C685 C679 1.429 . S
C685 C686 1.523 . S
C686 C667 1.368 . S
C686 C680 1.368 . S
C686 C685 1.523 . S
C687 C671 1.429 . S
C687 C683 1.429 . S
C687 C688 1.523 . S
C688 C672 1.368 . S
C688 C684 1.368 . S
C688 C687 1.523 . S
H689 C664 0.950 . S
H690 C666 0.950 . S
H691 C667 0.949 . S
H692 C669 0.950 . S
H693 C671 0.950 . S
C694 C695 1.349 . S
C694 C696 1.327 . S
C694 H719 0.950 . S
C695 C694 1.349 . S
C695 C711 1.349 . S
C696 C694 1.327 . S
C696 C715 1.429 . S
C696 H720 0.950 . S
C697 C714 1.574 1_556 S
C697 C716 1.368 . S
C697 H721 0.949 . S
H698 C702 0.949 . S
C699 C700 1.349 . S
C699 C701 1.327 . S
C699 H722 0.950 . S
C700 C699 1.349 . S
C700 C712 1.349 . S
C701 C699 1.327 . S
C701 C717 1.429 . S
C701 H723 0.950 . S
C702 H698 0.949 . S
C702 C710 1.574 1_554 S
C702 C718 1.368 . S
H703 C711 0.950 . S
H704 C709 0.950 . S
H705 C710 0.949 . S
H706 C712 0.950 . S
H707 C713 0.950 . S
H708 C714 0.949 . S
C709 H704 0.950 . S
C709 C711 1.327 . S
C709 C715 1.429 . S
C710 C702 1.574 1_556 S
C710 H705 0.949 . S
C710 C716 1.368 . S
C711 C695 1.349 . S
C711 H703 0.950 . S
C711 C709 1.327 . S
C712 C700 1.349 . S
C712 H706 0.950 . S
C712 C713 1.327 . S
C713 H707 0.950 . S
C713 C712 1.327 . S
C713 C717 1.429 . S
C714 C697 1.574 1_554 S
C714 H708 0.949 . S
C714 C718 1.368 . S
C715 C696 1.429 . S
C715 C709 1.429 . S
C715 C716 1.523 . S
C716 C697 1.368 . S
C716 C710 1.368 . S
C716 C715 1.523 . S
C717 C701 1.429 . S
C717 C713 1.429 . S
C717 C718 1.523 . S
C718 C702 1.368 . S
C718 C714 1.368 . S
C718 C717 1.523 . S
H719 C694 0.950 . S
H720 C696 0.950 . S
H721 C697 0.949 . S
H722 C699 0.950 . S
H723 C701 0.950 . S
C724 C725 1.349 . S
C724 C726 1.327 . S
C724 H749 0.950 . S
C725 C724 1.349 . S
C725 C741 1.349 . S
C726 C724 1.327 . S
C726 C745 1.429 . S
C726 H750 0.950 . S
C727 C744 1.574 . S
C727 C746 1.368 . S
C727 H751 0.949 . S
H728 C732 0.949 . S
C729 C730 1.349 . S
C729 C731 1.327 . S
C729 H752 0.950 . S
C730 C729 1.349 . S
C730 C742 1.349 . S
C731 C729 1.327 . S
C731 C747 1.429 . S
C731 H753 0.950 . S
C732 H728 0.949 . S
C732 C740 1.574 . S
C732 C748 1.368 . S
H733 C741 0.950 . S
H734 C739 0.950 . S
H735 C740 0.949 . S
H736 C742 0.950 . S
H737 C743 0.950 . S
H738 C744 0.949 . S
C739 H734 0.950 . S
C739 C741 1.327 . S
C739 C745 1.429 . S
C740 C732 1.574 . S
C740 H735 0.949 . S
C740 C746 1.368 . S
C741 C725 1.349 . S
C741 H733 0.950 . S
C741 C739 1.327 . S
C742 C730 1.349 . S
C742 H736 0.950 . S
C742 C743 1.327 . S
C743 H737 0.950 . S
C743 C742 1.327 . S
C743 C747 1.429 . S
C744 C727 1.574 . S
C744 H738 0.949 . S
C744 C748 1.368 . S
C745 C726 1.429 . S
C745 C739 1.429 . S
C745 C746 1.523 . S
C746 C727 1.368 . S
C746 C740 1.368 . S
C746 C745 1.523 . S
C747 C731 1.429 . S
C747 C743 1.429 . S
C747 C748 1.523 . S
C748 C732 1.368 . S
C748 C744 1.368 . S
C748 C747 1.523 . S
H749 C724 0.950 . S
H750 C726 0.950 . S
H751 C727 0.949 . S
H752 C729 0.950 . S
H753 C731 0.950 . S
C754 C755 1.349 . S
C754 C756 1.327 . S
C754 H779 0.950 . S
C755 C754 1.349 . S
C755 C771 1.349 . S
C756 C754 1.327 . S
C756 C775 1.429 . S
C756 H780 0.950 . S
C757 C774 1.574 . S
C757 C776 1.368 . S
C757 H781 0.949 . S
H758 C762 0.949 . S
C759 C760 1.349 . S
C759 C761 1.327 . S
C759 H782 0.950 . S
C760 C759 1.349 . S
C760 C772 1.349 . S
C761 C759 1.327 . S
C761 C777 1.429 . S
C761 H783 0.950 . S
C762 H758 0.949 . S
C762 C770 1.574 . S
C762 C778 1.368 . S
H763 C771 0.950 . S
H764 C769 0.950 . S
H765 C770 0.949 . S
H766 C772 0.950 . S
H767 C773 0.950 . S
H768 C774 0.949 . S
C769 H764 0.950 . S
C769 C771 1.327 . S
C769 C775 1.429 . S
C770 C762 1.574 . S
C770 H765 0.949 . S
C770 C776 1.368 . S
C771 C755 1.349 . S
C771 H763 0.950 . S
C771 C769 1.327 . S
C772 C760 1.349 . S
C772 H766 0.950 . S
C772 C773 1.327 . S
C773 H767 0.950 . S
C773 C772 1.327 . S
C773 C777 1.429 . S
C774 C757 1.574 . S
C774 H768 0.949 . S
C774 C778 1.368 . S
C775 C756 1.429 . S
C775 C769 1.429 . S
C775 C776 1.523 . S
C776 C757 1.368 . S
C776 C770 1.368 . S
C776 C775 1.523 . S
C777 C761 1.429 . S
C777 C773 1.429 . S
C777 C778 1.523 . S
C778 C762 1.368 . S
C778 C774 1.368 . S
C778 C777 1.523 . S
H779 C754 0.950 . S
H780 C756 0.950 . S
H781 C757 0.949 . S
H782 C759 0.950 . S
H783 C761 0.950 . S
C784 C785 1.349 . S
C784 C786 1.327 . S
C784 H809 0.950 . S
C785 C784 1.349 . S
C785 C801 1.349 . S
C786 C784 1.327 . S
C786 C805 1.429 . S
C786 H810 0.950 . S
C787 C804 1.574 . S
C787 C806 1.368 . S
C787 H811 0.949 . S
H788 C792 0.949 . S
C789 C790 1.349 . S
C789 C791 1.327 . S
C789 H812 0.950 . S
C790 C789 1.349 . S
C790 C802 1.349 . S
C791 C789 1.327 . S
C791 C807 1.429 . S
C791 H813 0.950 . S
C792 H788 0.949 . S
C792 C800 1.574 . S
C792 C808 1.368 . S
H793 C801 0.950 . S
H794 C799 0.950 . S
H795 C800 0.949 . S
H796 C802 0.950 . S
H797 C803 0.950 . S
H798 C804 0.949 . S
C799 H794 0.950 . S
C799 C801 1.327 . S
C799 C805 1.429 . S
C800 C792 1.574 . S
C800 H795 0.949 . S
C800 C806 1.368 . S
C801 C785 1.349 . S
C801 H793 0.950 . S
C801 C799 1.327 . S
C802 C790 1.349 . S
C802 H796 0.950 . S
C802 C803 1.327 . S
C803 H797 0.950 . S
C803 C802 1.327 . S
C803 C807 1.429 . S
C804 C787 1.574 . S
C804 H798 0.949 . S
C804 C808 1.368 . S
C805 C786 1.429 . S
C805 C799 1.429 . S
C805 C806 1.523 . S
C806 C787 1.368 . S
C806 C800 1.368 . S
C806 C805 1.523 . S
C807 C791 1.429 . S
C807 C803 1.429 . S
C807 C808 1.523 . S
C808 C792 1.368 . S
C808 C804 1.368 . S
C808 C807 1.523 . S
H809 C784 0.950 . S
H810 C786 0.950 . S
H811 C787 0.949 . S
H812 C789 0.950 . S
H813 C791 0.950 . S
C814 C815 1.349 . S
C814 C816 1.327 . S
C814 H839 0.950 . S
C815 C814 1.349 . S
C815 C831 1.349 . S
C816 C814 1.327 . S
C816 C835 1.429 . S
C816 H840 0.950 . S
C817 C834 1.574 . S
C817 C836 1.368 . S
C817 H841 0.949 . S
H818 C822 0.949 . S
C819 C820 1.349 . S
C819 C821 1.327 . S
C819 H842 0.950 . S
C820 C819 1.349 . S
C820 C832 1.349 . S
C821 C819 1.327 . S
C821 C837 1.429 . S
C821 H843 0.950 . S
C822 H818 0.949 . S
C822 C830 1.574 . S
C822 C838 1.368 . S
H823 C831 0.950 . S
H824 C829 0.950 . S
H825 C830 0.949 . S
H826 C832 0.950 . S
H827 C833 0.950 . S
H828 C834 0.949 . S
C829 H824 0.950 . S
C829 C831 1.327 . S
C829 C835 1.429 . S
C830 C822 1.574 . S
C830 H825 0.949 . S
C830 C836 1.368 . S
C831 C815 1.349 . S
C831 H823 0.950 . S
C831 C829 1.327 . S
C832 C820 1.349 . S
C832 H826 0.950 . S
C832 C833 1.327 . S
C833 H827 0.950 . S
C833 C832 1.327 . S
C833 C837 1.429 . S
C834 C817 1.574 . S
C834 H828 0.949 . S
C834 C838 1.368 . S
C835 C816 1.429 . S
C835 C829 1.429 . S
C835 C836 1.523 . S
C836 C817 1.368 . S
C836 C830 1.368 . S
C836 C835 1.523 . S
C837 C821 1.429 . S
C837 C833 1.429 . S
C837 C838 1.523 . S
C838 C822 1.368 . S
C838 C834 1.368 . S
C838 C837 1.523 . S
H839 C814 0.950 . S
H840 C816 0.950 . S
H841 C817 0.949 . S
H842 C819 0.950 . S
H843 C821 0.950 . S
C844 C845 1.349 . S
C844 C846 1.327 . S
C844 H869 0.950 . S
C845 C844 1.349 . S
C845 C861 1.349 . S
C846 C844 1.327 . S
C846 C865 1.429 . S
C846 H870 0.950 . S
C847 C864 1.574 . S
C847 C866 1.368 . S
C847 H871 0.949 . S
H848 C852 0.949 . S
C849 C850 1.349 . S
C849 C851 1.327 . S
C849 H872 0.950 . S
C850 C849 1.349 . S
C850 C862 1.349 . S
C851 C849 1.327 . S
C851 C867 1.429 . S
C851 H873 0.950 . S
C852 H848 0.949 . S
C852 C860 1.574 . S
C852 C868 1.368 . S
H853 C861 0.950 . S
H854 C859 0.950 . S
H855 C860 0.949 . S
H856 C862 0.950 . S
H857 C863 0.950 . S
H858 C864 0.949 . S
C859 H854 0.950 . S
C859 C861 1.327 . S
C859 C865 1.429 . S
C860 C852 1.574 . S
C860 H855 0.949 . S
C860 C866 1.368 . S
C861 C845 1.349 . S
C861 H853 0.950 . S
C861 C859 1.327 . S
C862 C850 1.349 . S
C862 H856 0.950 . S
C862 C863 1.327 . S
C863 H857 0.950 . S
C863 C862 1.327 . S
C863 C867 1.429 . S
C864 C847 1.574 . S
C864 H858 0.949 . S
C864 C868 1.368 . S
C865 C846 1.429 . S
C865 C859 1.429 . S
C865 C866 1.523 . S
C866 C847 1.368 . S
C866 C860 1.368 . S
C866 C865 1.523 . S
C867 C851 1.429 . S
C867 C863 1.429 . S
C867 C868 1.523 . S
C868 C852 1.368 . S
C868 C864 1.368 . S
C868 C867 1.523 . S
H869 C844 0.950 . S
H870 C846 0.950 . S
H871 C847 0.949 . S
H872 C849 0.950 . S
H873 C851 0.950 . S
C874 C875 1.349 . S
C874 C876 1.327 . S
C874 H899 0.950 . S
C875 C874 1.349 . S
C875 C891 1.349 . S
C876 C874 1.327 . S
C876 C895 1.429 . S
C876 H900 0.950 . S
C877 C894 1.574 . S
C877 C896 1.368 . S
C877 H901 0.949 . S
H878 C882 0.949 . S
C879 C880 1.349 . S
C879 C881 1.327 . S
C879 H902 0.950 . S
C880 C879 1.349 . S
C880 C892 1.349 . S
C881 C879 1.327 . S
C881 C897 1.429 . S
C881 H903 0.950 . S
C882 H878 0.949 . S
C882 C890 1.574 . S
C882 C898 1.368 . S
H883 C891 0.950 . S
H884 C889 0.950 . S
H885 C890 0.949 . S
H886 C892 0.950 . S
H887 C893 0.950 . S
H888 C894 0.949 . S
C889 H884 0.950 . S
C889 C891 1.327 . S
C889 C895 1.429 . S
C890 C882 1.574 . S
C890 H885 0.949 . S
C890 C896 1.368 . S
C891 C875 1.349 . S
C891 H883 0.950 . S
C891 C889 1.327 . S
C892 C880 1.349 . S
C892 H886 0.950 . S
C892 C893 1.327 . S
C893 H887 0.950 . S
C893 C892 1.327 . S
C893 C897 1.429 . S
C894 C877 1.574 . S
C894 H888 0.949 . S
C894 C898 1.368 . S
C895 C876 1.429 . S
C895 C889 1.429 . S
C895 C896 1.523 . S
C896 C877 1.368 . S
C896 C890 1.368 . S
C896 C895 1.523 . S
C897 C881 1.429 . S
C897 C893 1.429 . S
C897 C898 1.523 . S
C898 C882 1.368 . S
C898 C894 1.368 . S
C898 C897 1.523 . S
H899 C874 0.950 . S
H900 C876 0.950 . S
H901 C877 0.949 . S
H902 C879 0.950 . S
H903 C881 0.950 . S
C904 C905 1.349 . S
C904 C906 1.327 . S
C904 H929 0.950 . S
C905 C904 1.349 . S
C905 C921 1.349 . S
C906 C904 1.327 . S
C906 C925 1.429 . S
C906 H930 0.950 . S
C907 C924 1.574 . S
C907 C926 1.368 . S
C907 H931 0.949 . S
H908 C912 0.949 . S
C909 C910 1.349 . S
C909 C911 1.327 . S
C909 H932 0.950 . S
C910 C909 1.349 . S
C910 C922 1.349 . S
C911 C909 1.327 . S
C911 C927 1.429 . S
C911 H933 0.950 . S
C912 H908 0.949 . S
C912 C920 1.574 . S
C912 C928 1.368 . S
H913 C921 0.950 . S
H914 C919 0.950 . S
H915 C920 0.949 . S
H916 C922 0.950 . S
H917 C923 0.950 . S
H918 C924 0.949 . S
C919 H914 0.950 . S
C919 C921 1.327 . S
C919 C925 1.429 . S
C920 C912 1.574 . S
C920 H915 0.949 . S
C920 C926 1.368 . S
C921 C905 1.349 . S
C921 H913 0.950 . S
C921 C919 1.327 . S
C922 C910 1.349 . S
C922 H916 0.950 . S
C922 C923 1.327 . S
C923 H917 0.950 . S
C923 C922 1.327 . S
C923 C927 1.429 . S
C924 C907 1.574 . S
C924 H918 0.949 . S
C924 C928 1.368 . S
C925 C906 1.429 . S
C925 C919 1.429 . S
C925 C926 1.523 . S
C926 C907 1.368 . S
C926 C920 1.368 . S
C926 C925 1.523 . S
C927 C911 1.429 . S
C927 C923 1.429 . S
C927 C928 1.523 . S
C928 C912 1.368 . S
C928 C924 1.368 . S
C928 C927 1.523 . S
H929 C904 0.950 . S
H930 C906 0.950 . S
H931 C907 0.949 . S
H932 C909 0.950 . S
H933 C911 0.950 . S
C934 C935 1.349 . S
C934 C936 1.327 . S
C934 H959 0.950 . S
C935 C934 1.349 . S
C935 C951 1.349 . S
C936 C934 1.327 . S
C936 C955 1.429 . S
C936 H960 0.950 . S
C937 C954 1.574 . S
C937 C956 1.368 . S
C937 H961 0.949 . S
H938 C942 0.949 . S
C939 C940 1.349 . S
C939 C941 1.327 . S
C939 H962 0.950 . S
C940 C939 1.349 . S
C940 C952 1.349 . S
C941 C939 1.327 . S
C941 C957 1.429 . S
C941 H963 0.950 . S
C942 H938 0.949 . S
C942 C950 1.574 . S
C942 C958 1.368 . S
H943 C951 0.950 . S
H944 C949 0.950 . S
H945 C950 0.949 . S
H946 C952 0.950 . S
H947 C953 0.950 . S
H948 C954 0.949 . S
C949 H944 0.950 . S
C949 C951 1.327 . S
C949 C955 1.429 . S
C950 C942 1.574 . S
C950 H945 0.949 . S
C950 C956 1.368 . S
C951 C935 1.349 . S
C951 H943 0.950 . S
C951 C949 1.327 . S
C952 C940 1.349 . S
C952 H946 0.950 . S
C952 C953 1.327 . S
C953 H947 0.950 . S
C953 C952 1.327 . S
C953 C957 1.429 . S
C954 C937 1.574 . S
C954 H948 0.949 . S
C954 C958 1.368 . S
C955 C936 1.429 . S
C955 C949 1.429 . S
C955 C956 1.523 . S
C956 C937 1.368 . S
C956 C950 1.368 . S
C956 C955 1.523 . S
C957 C941 1.429 . S
C957 C953 1.429 . S
C957 C958 1.523 . S
C958 C942 1.368 . S
C958 C954 1.368 . S
C958 C957 1.523 . S
H959 C934 0.950 . S
H960 C936 0.950 . S
H961 C937 0.949 . S
H962 C939 0.950 . S
H963 C941 0.950 . S
C964 C965 1.349 . S
C964 C966 1.327 . S
C964 H989 0.950 . S
C965 C964 1.349 . S
C965 C981 1.349 . S
C966 C964 1.327 . S
C966 C985 1.429 . S
C966 H990 0.950 . S
C967 C984 1.574 . S
C967 C986 1.368 . S
C967 H991 0.949 . S
H968 C972 0.949 . S
C969 C970 1.349 . S
C969 C971 1.327 . S
C969 H992 0.950 . S
C970 C969 1.349 . S
C970 C982 1.349 . S
C971 C969 1.327 . S
C971 C987 1.429 . S
C971 H993 0.950 . S
C972 H968 0.949 . S
C972 C980 1.574 . S
C972 C988 1.368 . S
H973 C981 0.950 . S
H974 C979 0.950 . S
H975 C980 0.949 . S
H976 C982 0.950 . S
H977 C983 0.950 . S
H978 C984 0.949 . S
C979 H974 0.950 . S
C979 C981 1.327 . S
C979 C985 1.429 . S
C980 C972 1.574 . S
C980 H975 0.949 . S
C980 C986 1.368 . S
C981 C965 1.349 . S
C981 H973 0.950 . S
C981 C979 1.327 . S
C982 C970 1.349 . S
C982 H976 0.950 . S
C982 C983 1.327 . S
C983 H977 0.950 . S
C983 C982 1.327 . S
C983 C987 1.429 . S
C984 C967 1.574 . S
C984 H978 0.949 . S
C984 C988 1.368 . S
C985 C966 1.429 . S
C985 C979 1.429 . S
C985 C986 1.523 . S
C986 C967 1.368 . S
C986 C980 1.368 . S
C986 C985 1.523 . S
C987 C971 1.429 . S
C987 C983 1.429 . S
C987 C988 1.523 . S
C988 C972 1.368 . S
C988 C984 1.368 . S
C988 C987 1.523 . S
H989 C964 0.950 . S
H990 C966 0.950 . S
H991 C967 0.949 . S
H992 C969 0.950 . S
H993 C971 0.950 . S
C994 C995 1.349 . S
C994 C996 1.327 . S
C994 H1019 0.950 . S
C995 C994 1.349 . S
C995 C1011 1.349 . S
C996 C994 1.327 . S
C996 C1015 1.429 . S
C996 H1020 0.950 . S
C997 C1014 1.574 . S
C997 C1016 1.368 . S
C997 H1021 0.949 . S
H998 C1002 0.949 . S
C999 C1000 1.349 . S
C999 C1001 1.327 . S
C999 H1022 0.950 . S
C1000 C999 1.349 . S
C1000 C1012 1.349 . S
C1001 C999 1.327 . S
C1001 C1017 1.429 . S
C1001 H1023 0.950 . S
C1002 H998 0.949 . S
C1002 C1010 1.574 . S
C1002 C1018 1.368 . S
H1003 C1011 0.950 . S
H1004 C1009 0.950 . S
H1005 C1010 0.949 . S
H1006 C1012 0.950 . S
H1007 C1013 0.950 . S
H1008 C1014 0.949 . S
C1009 H1004 0.950 . S
C1009 C1011 1.327 . S
C1009 C1015 1.429 . S
C1010 C1002 1.574 . S
C1010 H1005 0.949 . S
C1010 C1016 1.368 . S
C1011 C995 1.349 . S
C1011 H1003 0.950 . S
C1011 C1009 1.327 . S
C1012 C1000 1.349 . S
C1012 H1006 0.950 . S
C1012 C1013 1.327 . S
C1013 H1007 0.950 . S
C1013 C1012 1.327 . S
C1013 C1017 1.429 . S
C1014 C997 1.574 . S
C1014 H1008 0.949 . S
C1014 C1018 1.368 . S
C1015 C996 1.429 . S
C1015 C1009 1.429 . S
C1015 C1016 1.523 . S
C1016 C997 1.368 . S
C1016 C1010 1.368 . S
C1016 C1015 1.523 . S
C1017 C1001 1.429 . S
C1017 C1013 1.429 . S
C1017 C1018 1.523 . S
C1018 C1002 1.368 . S
C1018 C1014 1.368 . S
C1018 C1017 1.523 . S
H1019 C994 0.950 . S
H1020 C996 0.950 . S
H1021 C997 0.949 . S
H1022 C999 0.950 . S
H1023 C1001 0.950 . S
C1024 C1025 1.349 . S
C1024 C1026 1.327 . S
C1024 H1049 0.950 . S
C1025 C1024 1.349 . S
C1025 C1041 1.349 . S
C1026 C1024 1.327 . S
C1026 C1045 1.429 . S
C1026 H1050 0.950 . S
C1027 C1044 1.574 . S
C1027 C1046 1.368 . S
C1027 H1051 0.949 . S
H1028 C1032 0.949 . S
C1029 C1030 1.349 . S
C1029 C1031 1.327 . S
C1029 H1052 0.950 . S
C1030 C1029 1.349 . S
C1030 C1042 1.349 . S
C1031 C1029 1.327 . S
C1031 C1047 1.429 . S
C1031 H1053 0.950 . S
C1032 H1028 0.949 . S
C1032 C1040 1.574 . S
C1032 C1048 1.368 . S
H1033 C1041 0.950 . S
H1034 C1039 0.950 . S
H1035 C1040 0.949 . S
H1036 C1042 0.950 . S
H1037 C1043 0.950 . S
H1038 C1044 0.949 . S
C1039 H1034 0.950 . S
C1039 C1041 1.327 . S
C1039 C1045 1.429 . S
C1040 C1032 1.574 . S
C1040 H1035 0.949 . S
C1040 C1046 1.368 . S
C1041 C1025 1.349 . S
C1041 H1033 0.950 . S
C1041 C1039 1.327 . S
C1042 C1030 1.349 . S
C1042 H1036 0.950 . S
C1042 C1043 1.327 . S
C1043 H1037 0.950 . S
C1043 C1042 1.327 . S
C1043 C1047 1.429 . S
C1044 C1027 1.574 . S
C1044 H1038 0.949 . S
C1044 C1048 1.368 . S
C1045 C1026 1.429 . S
C1045 C1039 1.429 . S
C1045 C1046 1.523 . S
C1046 C1027 1.368 . S
C1046 C1040 1.368 . S
C1046 C1045 1.523 . S
C1047 C1031 1.429 . S
C1047 C1043 1.429 . S
C1047 C1048 1.523 . S
C1048 C1032 1.368 . S
C1048 C1044 1.368 . S
C1048 C1047 1.523 . S
H1049 C1024 0.950 . S
H1050 C1026 0.950 . S
H1051 C1027 0.949 . S
H1052 C1029 0.950 . S
H1053 C1031 0.950 . S
C1054 C1055 1.349 . S
C1054 C1056 1.327 . S
C1054 H1079 0.950 . S
C1055 C1054 1.349 . S
C1055 C1071 1.349 . S
C1056 C1054 1.327 . S
C1056 C1075 1.429 . S
C1056 H1080 0.950 . S
C1057 C1074 1.574 . S
C1057 C1076 1.368 . S
C1057 H1081 0.949 . S
H1058 C1062 0.949 . S
C1059 C1060 1.349 . S
C1059 C1061 1.327 . S
C1059 H1082 0.950 . S
C1060 C1059 1.349 . S
C1060 C1072 1.349 . S
C1061 C1059 1.327 . S
C1061 C1077 1.429 . S
C1061 H1083 0.950 . S
C1062 H1058 0.949 . S
C1062 C1070 1.574 . S
C1062 C1078 1.368 . S
H1063 C1071 0.950 . S
H1064 C1069 0.950 . S
H1065 C1070 0.949 . S
H1066 C1072 0.950 . S
H1067 C1073 0.950 . S
H1068 C1074 0.949 . S
C1069 H1064 0.950 . S
C1069 C1071 1.327 . S
C1069 C1075 1.429 . S
C1070 C1062 1.574 . S
C1070 H1065 0.949 . S
C1070 C1076 1.368 . S
C1071 C1055 1.349 . S
C1071 H1063 0.950 . S
C1071 C1069 1.327 . S
C1072 C1060 1.349 . S
C1072 H1066 0.950 . S
C1072 C1073 1.327 . S
C1073 H1067 0.950 . S
C1073 C1072 1.327 . S
C1073 C1077 1.429 . S
C1074 C1057 1.574 . S
C1074 H1068 0.949 . S
C1074 C1078 1.368 . S
C1075 C1056 1.429 . S
C1075 C1069 1.429 . S
C1075 C1076 1.523 . S
C1076 C1057 1.368 . S
C1076 C1070 1.368 . S
C1076 C1075 1.523 . S
C1077 C1061 1.429 . S
C1077 C1073 1.429 . S
C1077 C1078 1.523 . S
C1078 C1062 1.368 . S
C1078 C1074 1.368 . S
C1078 C1077 1.523 . S
H1079 C1054 0.950 . S
H1080 C1056 0.950 . S
H1081 C1057 0.949 . S
H1082 C1059 0.950 . S
H1083 C1061 0.950 . S
C1084 C1085 1.349 . S
C1084 C1086 1.327 . S
C1084 H1109 0.950 . S
C1085 C1084 1.349 . S
C1085 C1101 1.349 . S
C1086 C1084 1.327 . S
C1086 C1105 1.429 . S
C1086 H1110 0.950 . S
C1087 C1104 1.574 . S
C1087 C1106 1.368 . S
C1087 H1111 0.949 . S
H1088 C1092 0.949 . S
C1089 C1090 1.349 . S
C1089 C1091 1.327 . S
C1089 H1112 0.950 . S
C1090 C1089 1.349 . S
C1090 C1102 1.349 . S
C1091 C1089 1.327 . S
C1091 C1107 1.429 . S
C1091 H1113 0.950 . S
C1092 H1088 0.949 . S
C1092 C1100 1.574 . S
C1092 C1108 1.368 . S
H1093 C1101 0.950 . S
H1094 C1099 0.950 . S
H1095 C1100 0.949 . S
H1096 C1102 0.950 . S
H1097 C1103 0.950 . S
H1098 C1104 0.949 . S
C1099 H1094 0.950 . S
C1099 C1101 1.327 . S
C1099 C1105 1.429 . S
C1100 C1092 1.574 . S
C1100 H1095 0.949 . S
C1100 C1106 1.368 . S
C1101 C1085 1.349 . S
C1101 H1093 0.950 . S
C1101 C1099 1.327 . S
C1102 C1090 1.349 . S
C1102 H1096 0.950 . S
C1102 C1103 1.327 . S
C1103 H1097 0.950 . S
C1103 C1102 1.327 . S
C1103 C1107 1.429 . S
C1104 C1087 1.574 . S
C1104 H1098 0.949 . S
C1104 C1108 1.368 . S
C1105 C1086 1.429 . S
C1105 C1099 1.429 . S
C1105 C1106 1.523 . S
C1106 C1087 1.368 . S
C1106 C1100 1.368 . S
C1106 C1105 1.523 . S
C1107 C1091 1.429 . S
C1107 C1103 1.429 . S
C1107 C1108 1.523 . S
C1108 C1092 1.368 . S
C1108 C1104 1.368 . S
C1108 C1107 1.523 . S
H1109 C1084 0.950 . S
H1110 C1086 0.950 . S
H1111 C1087 0.949 . S
H1112 C1089 0.950 . S
H1113 C1091 0.950 . S
C1114 C1115 1.349 . S
C1114 C1116 1.327 . S
C1114 H1139 0.950 . S
C1115 C1114 1.349 . S
C1115 C1131 1.349 . S
C1116 C1114 1.327 . S
C1116 C1135 1.429 . S
C1116 H1140 0.950 . S
C1117 C1134 1.574 . S
C1117 C1136 1.368 . S
C1117 H1141 0.949 . S
H1118 C1122 0.949 . S
C1119 C1120 1.349 . S
C1119 C1121 1.327 . S
C1119 H1142 0.950 . S
C1120 C1119 1.349 . S
C1120 C1132 1.349 . S
C1121 C1119 1.327 . S
C1121 C1137 1.429 . S
C1121 H1143 0.950 . S
C1122 H1118 0.949 . S
C1122 C1130 1.574 . S
C1122 C1138 1.368 . S
H1123 C1131 0.950 . S
H1124 C1129 0.950 . S
H1125 C1130 0.949 . S
H1126 C1132 0.950 . S
H1127 C1133 0.950 . S
H1128 C1134 0.949 . S
C1129 H1124 0.950 . S
C1129 C1131 1.327 . S
C1129 C1135 1.429 . S
C1130 C1122 1.574 . S
C1130 H1125 0.949 . S
C1130 C1136 1.368 . S
C1131 C1115 1.349 . S
C1131 H1123 0.950 . S
C1131 C1129 1.327 . S
C1132 C1120 1.349 . S
C1132 H1126 0.950 . S
C1132 C1133 1.327 . S
C1133 H1127 0.950 . S
C1133 C1132 1.327 . S
C1133 C1137 1.429 . S
C1134 C1117 1.574 . S
C1134 H1128 0.949 . S
C1134 C1138 1.368 . S
C1135 C1116 1.429 . S
C1135 C1129 1.429 . S
C1135 C1136 1.523 . S
C1136 C1117 1.368 . S
C1136 C1130 1.368 . S
C1136 C1135 1.523 . S
C1137 C1121 1.429 . S
C1137 C1133 1.429 . S
C1137 C1138 1.523 . S
C1138 C1122 1.368 . S
C1138 C1134 1.368 . S
C1138 C1137 1.523 . S
H1139 C1114 0.950 . S
H1140 C1116 0.950 . S
H1141 C1117 0.949 . S
H1142 C1119 0.950 . S
H1143 C1121 0.950 . S
C1144 C1145 1.349 . S
C1144 C1146 1.327 . S
C1144 H1169 0.950 . S
C1145 C1144 1.349 . S
C1145 C1161 1.349 . S
C1146 C1144 1.327 . S
C1146 C1165 1.429 . S
C1146 H1170 0.950 . S
C1147 C1164 1.574 . S
C1147 C1166 1.368 . S
C1147 H1171 0.949 . S
H1148 C1152 0.949 . S
C1149 C1150 1.349 . S
C1149 C1151 1.327 . S
C1149 H1172 0.950 . S
C1150 C1149 1.349 . S
C1150 C1162 1.349 . S
C1151 C1149 1.327 . S
C1151 C1167 1.429 . S
C1151 H1173 0.950 . S
C1152 H1148 0.949 . S
C1152 C1160 1.574 . S
C1152 C1168 1.368 . S
H1153 C1161 0.950 . S
H1154 C1159 0.950 . S
H1155 C1160 0.949 . S
H1156 C1162 0.950 . S
H1157 C1163 0.950 . S
H1158 C1164 0.949 . S
C1159 H1154 0.950 . S
C1159 C1161 1.327 . S
C1159 C1165 1.429 . S
C1160 C1152 1.574 . S
C1160 H1155 0.949 . S
C1160 C1166 1.368 . S
C1161 C1145 1.349 . S
C1161 H1153 0.950 . S
C1161 C1159 1.327 . S
C1162 C1150 1.349 . S
C1162 H1156 0.950 . S
C1162 C1163 1.327 . S
C1163 H1157 0.950 . S
C1163 C1162 1.327 . S
C1163 C1167 1.429 . S
C1164 C1147 1.574 . S
C1164 H1158 0.949 . S
C1164 C1168 1.368 . S
C1165 C1146 1.429 . S
C1165 C1159 1.429 . S
C1165 C1166 1.523 . S
C1166 C1147 1.368 . S
C1166 C1160 1.368 . S
C1166 C1165 1.523 . S
C1167 C1151 1.429 . S
C1167 C1163 1.429 . S
C1167 C1168 1.523 . S
C1168 C1152 1.368 . S
C1168 C1164 1.368 . S
C1168 C1167 1.523 . S
H1169 C1144 0.950 . S
H1170 C1146 0.950 . S
H1171 C1147 0.949 . S
H1172 C1149 0.950 . S
H1173 C1151 0.950 . S
C1174 C1175 1.349 . S
C1174 C1176 1.327 . S
C1174 H1199 0.950 . S
C1175 C1174 1.349 . S
C1175 C1191 1.349 . S
C1176 C1174 1.327 . S
C1176 C1195 1.429 . S
C1176 H1200 0.950 . S
C1177 C1194 1.574 . S
C1177 C1196 1.368 . S
C1177 H1201 0.949 . S
H1178 C1182 0.949 . S
C1179 C1180 1.349 . S
C1179 C1181 1.327 . S
C1179 H1202 0.950 . S
C1180 C1179 1.349 . S
C1180 C1192 1.349 . S
C1181 C1179 1.327 . S
C1181 C1197 1.429 . S
C1181 H1203 0.950 . S
C1182 H1178 0.949 . S
C1182 C1190 1.574 . S
C1182 C1198 1.368 . S
H1183 C1191 0.950 . S
H1184 C1189 0.950 . S
H1185 C1190 0.949 . S
H1186 C1192 0.950 . S
H1187 C1193 0.950 . S
H1188 C1194 0.949 . S
C1189 H1184 0.950 . S
C1189 C1191 1.327 . S
C1189 C1195 1.429 . S
C1190 C1182 1.574 . S
C1190 H1185 0.949 . S
C1190 C1196 1.368 . S
C1191 C1175 1.349 . S
C1191 H1183 0.950 . S
C1191 C1189 1.327 . S
C1192 C1180 1.349 . S
C1192 H1186 0.950 . S
C1192 C1193 1.327 . S
C1193 H1187 0.950 . S
C1193 C1192 1.327 . S
C1193 C1197 1.429 . S
C1194 C1177 1.574 . S
C1194 H1188 0.949 . S
C1194 C1198 1.368 . S
C1195 C1176 1.429 . S
C1195 C1189 1.429 . S
C1195 C1196 1.523 . S
C1196 C1177 1.368 . S
C1196 C1190 1.368 . S
C1196 C1195 1.523 . S
C1197 C1181 1.429 . S
C1197 C1193 1.429 . S
C1197 C1198 1.523 . S
C1198 C1182 1.368 . S
C1198 C1194 1.368 . S
C1198 C1197 1.523 . S
H1199 C1174 0.950 . S
H1200 C1176 0.950 . S
H1201 C1177 0.949 . S
H1202 C1179 0.950 . S
H1203 C1181 0.950 . S
C1204 C1205 1.349 . S
C1204 C1206 1.327 . S
C1204 H1229 0.950 . S
C1205 C1204 1.349 . S
C1205 C1221 1.349 . S
C1206 C1204 1.327 . S
C1206 C1225 1.429 . S
C1206 H1230 0.950 . S
C1207 C1224 1.574 . S
C1207 C1226 1.368 . S
C1207 H1231 0.949 . S
H1208 C1212 0.949 . S
C1209 C1210 1.349 . S
C1209 C1211 1.327 . S
C1209 H1232 0.950 . S
C1210 C1209 1.349 . S
C1210 C1222 1.349 . S
C1211 C1209 1.327 . S
C1211 C1227 1.429 . S
C1211 H1233 0.950 . S
C1212 H1208 0.949 . S
C1212 C1220 1.574 . S
C1212 C1228 1.368 . S
H1213 C1221 0.950 . S
H1214 C1219 0.950 . S
H1215 C1220 0.949 . S
H1216 C1222 0.950 . S
H1217 C1223 0.950 . S
H1218 C1224 0.949 . S
C1219 H1214 0.950 . S
C1219 C1221 1.327 . S
C1219 C1225 1.429 . S
C1220 C1212 1.574 . S
C1220 H1215 0.949 . S
C1220 C1226 1.368 . S
C1221 C1205 1.349 . S
C1221 H1213 0.950 . S
C1221 C1219 1.327 . S
C1222 C1210 1.349 . S
C1222 H1216 0.950 . S
C1222 C1223 1.327 . S
C1223 H1217 0.950 . S
C1223 C1222 1.327 . S
C1223 C1227 1.429 . S
C1224 C1207 1.574 . S
C1224 H1218 0.949 . S
C1224 C1228 1.368 . S
C1225 C1206 1.429 . S
C1225 C1219 1.429 . S
C1225 C1226 1.523 . S
C1226 C1207 1.368 . S
C1226 C1220 1.368 . S
C1226 C1225 1.523 . S
C1227 C1211 1.429 . S
C1227 C1223 1.429 . S
C1227 C1228 1.523 . S
C1228 C1212 1.368 . S
C1228 C1224 1.368 . S
C1228 C1227 1.523 . S
H1229 C1204 0.950 . S
H1230 C1206 0.950 . S
H1231 C1207 0.949 . S
H1232 C1209 0.950 . S
H1233 C1211 0.950 . S
C1234 C1235 1.349 . S
C1234 C1236 1.327 . S
C1234 H1259 0.950 . S
C1235 C1234 1.349 . S
C1235 C1251 1.349 . S
C1236 C1234 1.327 . S
C1236 C1255 1.429 . S
C1236 H1260 0.950 . S
C1237 C1254 1.574 . S
C1237 C1256 1.368 . S
C1237 H1261 0.949 . S
H1238 C1242 0.949 . S
C1239 C1240 1.349 . S
C1239 C1241 1.327 . S
C1239 H1262 0.950 . S
C1240 C1239 1.349 . S
C1240 C1252 1.349 . S
C1241 C1239 1.327 . S
C1241 C1257 1.429 . S
C1241 H1263 0.950 . S
C1242 H1238 0.949 . S
C1242 C1250 1.574 . S
C1242 C1258 1.368 . S
H1243 C1251 0.950 . S
H1244 C1249 0.950 . S
H1245 C1250 0.949 . S
H1246 C1252 0.950 . S
H1247 C1253 0.950 . S
H1248 C1254 0.949 . S
C1249 H1244 0.950 . S
C1249 C1251 1.327 . S
C1249 C1255 1.429 . S
C1250 C1242 1.574 . S
C1250 H1245 0.949 . S
C1250 C1256 1.368 . S
C1251 C1235 1.349 . S
C1251 H1243 0.950 . S
C1251 C1249 1.327 . S
C1252 C1240 1.349 . S
C1252 H1246 0.950 . S
C1252 C1253 1.327 . S
C1253 H1247 0.950 . S
C1253 C1252 1.327 . S
C1253 C1257 1.429 . S
C1254 C1237 1.574 . S
C1254 H1248 0.949 . S
C1254 C1258 1.368 . S
C1255 C1236 1.429 . S
C1255 C1249 1.429 . S
C1255 C1256 1.523 . S
C1256 C1237 1.368 . S
C1256 C1250 1.368 . S
C1256 C1255 1.523 . S
C1257 C1241 1.429 . S
C1257 C1253 1.429 . S
C1257 C1258 1.523 . S
C1258 C1242 1.368 . S
C1258 C1254 1.368 . S
C1258 C1257 1.523 . S
H1259 C1234 0.950 . S
H1260 C1236 0.950 . S
H1261 C1237 0.949 . S
H1262 C1239 0.950 . S
H1263 C1241 0.950 . S
C1264 C1265 1.349 . S
C1264 C1266 1.327 . S
C1264 H1289 0.950 . S
C1265 C1264 1.349 . S
C1265 C1281 1.349 . S
C1266 C1264 1.327 . S
C1266 C1285 1.429 . S
C1266 H1290 0.950 . S
C1267 C1284 1.574 1_545 S
C1267 C1286 1.368 1_655 S
C1267 H1291 0.949 . S
H1268 C1272 0.949 . S
C1269 C1270 1.349 . S
C1269 C1271 1.327 . S
C1269 H1292 0.950 . S
C1270 C1269 1.349 . S
C1270 C1282 1.349 . S
C1271 C1269 1.327 . S
C1271 C1287 1.429 . S
C1271 H1293 0.950 . S
C1272 H1268 0.949 . S
C1272 C1280 1.574 1_565 S
C1272 C1288 1.368 1_455 S
H1273 C1281 0.950 . S
H1274 C1279 0.950 . S
H1275 C1280 0.949 . S
H1276 C1282 0.950 . S
H1277 C1283 0.950 . S
H1278 C1284 0.949 . S
C1279 H1274 0.950 . S
C1279 C1281 1.327 . S
C1279 C1285 1.429 . S
C1280 C1272 1.574 1_545 S
C1280 H1275 0.949 . S
C1280 C1286 1.368 . S
C1281 C1265 1.349 . S
C1281 H1273 0.950 . S
C1281 C1279 1.327 . S
C1282 C1270 1.349 . S
C1282 H1276 0.950 . S
C1282 C1283 1.327 . S
C1283 H1277 0.950 . S
C1283 C1282 1.327 . S
C1283 C1287 1.429 . S
C1284 C1267 1.574 1_565 S
C1284 H1278 0.949 . S
C1284 C1288 1.368 . S
C1285 C1266 1.429 . S
C1285 C1279 1.429 . S
C1285 C1286 1.523 . S
C1286 C1267 1.368 1_455 S
C1286 C1280 1.368 . S
C1286 C1285 1.523 . S
C1287 C1271 1.429 . S
C1287 C1283 1.429 . S
C1287 C1288 1.523 . S
C1288 C1272 1.368 1_655 S
C1288 C1284 1.368 . S
C1288 C1287 1.523 . S
H1289 C1264 0.950 . S
H1290 C1266 0.950 . S
H1291 C1267 0.949 . S
H1292 C1269 0.950 . S
H1293 C1271 0.950 . S
C1294 C1295 1.349 . S
C1294 C1296 1.327 . S
C1294 H1319 0.950 . S
C1295 C1294 1.349 . S
C1295 C1311 1.349 . S
C1296 C1294 1.327 . S
C1296 C1315 1.429 . S
C1296 H1320 0.950 . S
C1297 C1314 1.574 1_455 S
C1297 C1316 1.368 . S
C1297 H1321 0.949 . S
H1298 C1302 0.949 . S
C1299 C1300 1.349 . S
C1299 C1301 1.327 . S
C1299 H1322 0.950 . S
C1300 C1299 1.349 . S
C1300 C1312 1.349 . S
C1301 C1299 1.327 . S
C1301 C1317 1.429 . S
C1301 H1323 0.950 . S
C1302 H1298 0.949 . S
C1302 C1310 1.574 1_655 S
C1302 C1318 1.368 . S
H1303 C1311 0.950 . S
H1304 C1309 0.950 . S
H1305 C1310 0.949 . S
H1306 C1312 0.950 . S
H1307 C1313 0.950 . S
H1308 C1314 0.949 . S
C1309 H1304 0.950 . S
C1309 C1311 1.327 . S
C1309 C1315 1.429 . S
C1310 C1302 1.574 1_455 S
C1310 H1305 0.949 . S
C1310 C1316 1.368 . S
C1311 C1295 1.349 . S
C1311 H1303 0.950 . S
C1311 C1309 1.327 . S
C1312 C1300 1.349 . S
C1312 H1306 0.950 . S
C1312 C1313 1.327 . S
C1313 H1307 0.950 . S
C1313 C1312 1.327 . S
C1313 C1317 1.429 . S
C1314 C1297 1.574 1_655 S
C1314 H1308 0.949 . S
C1314 C1318 1.368 . S
C1315 C1296 1.429 . S
C1315 C1309 1.429 . S
C1315 C1316 1.523 . S
C1316 C1297 1.368 . S
C1316 C1310 1.368 . S
C1316 C1315 1.523 . S
C1317 C1301 1.429 . S
C1317 C1313 1.429 . S
C1317 C1318 1.523 . S
C1318 C1302 1.368 . S
C1318 C1314 1.368 . S
C1318 C1317 1.523 . S
H1319 C1294 0.950 . S
H1320 C1296 0.950 . S
H1321 C1297 0.949 . S
H1322 C1299 0.950 . S
H1323 C1301 0.950 . S
C1324 C1325 1.349 . S
C1324 C1326 1.327 . S
C1324 H1349 0.950 . S
C1325 C1324 1.349 . S
C1325 C1341 1.349 . S
C1326 C1324 1.327 . S
C1326 C1345 1.429 . S
C1326 H1350 0.950 . S
C1327 C1344 1.574 . S
C1327 C1346 1.368 . S
C1327 H1351 0.949 . S
H1328 C1332 0.949 . S
C1329 C1330 1.349 . S
C1329 C1331 1.327 . S
C1329 H1352 0.950 . S
C1330 C1329 1.349 . S
C1330 C1342 1.349 . S
C1331 C1329 1.327 . S
C1331 C1347 1.429 . S
C1331 H1353 0.950 . S
C1332 H1328 0.949 . S
C1332 C1340 1.574 . S
C1332 C1348 1.368 . S
H1333 C1341 0.950 . S
H1334 C1339 0.950 . S
H1335 C1340 0.949 . S
H1336 C1342 0.950 . S
H1337 C1343 0.950 . S
H1338 C1344 0.949 . S
C1339 H1334 0.950 . S
C1339 C1341 1.327 . S
C1339 C1345 1.429 . S
C1340 C1332 1.574 . S
C1340 H1335 0.949 . S
C1340 C1346 1.368 . S
C1341 C1325 1.349 . S
C1341 H1333 0.950 . S
C1341 C1339 1.327 . S
C1342 C1330 1.349 . S
C1342 H1336 0.950 . S
C1342 C1343 1.327 . S
C1343 H1337 0.950 . S
C1343 C1342 1.327 . S
C1343 C1347 1.429 . S
C1344 C1327 1.574 . S
C1344 H1338 0.949 . S
C1344 C1348 1.368 . S
C1345 C1326 1.429 . S
C1345 C1339 1.429 . S
C1345 C1346 1.523 . S
C1346 C1327 1.368 . S
C1346 C1340 1.368 . S
C1346 C1345 1.523 . S
C1347 C1331 1.429 . S
C1347 C1343 1.429 . S
C1347 C1348 1.523 . S
C1348 C1332 1.368 . S
C1348 C1344 1.368 . S
C1348 C1347 1.523 . S
H1349 C1324 0.950 . S
H1350 C1326 0.950 . S
H1351 C1327 0.949 . S
H1352 C1329 0.950 . S
H1353 C1331 0.950 . S
C1354 C1355 1.349 . S
C1354 C1356 1.327 . S
C1354 H1379 0.950 . S
C1355 C1354 1.349 . S
C1355 C1371 1.349 . S
C1356 C1354 1.327 . S
C1356 C1375 1.429 . S
C1356 H1380 0.950 . S
C1357 C1374 1.574 . S
C1357 C1376 1.368 1_565 S
C1357 H1381 0.949 . S
H1358 C1362 0.949 . S
C1359 C1360 1.349 . S
C1359 C1361 1.327 . S
C1359 H1382 0.950 . S
C1360 C1359 1.349 . S
C1360 C1372 1.349 . S
C1361 C1359 1.327 . S
C1361 C1377 1.429 . S
C1361 H1383 0.950 . S
C1362 H1358 0.949 . S
C1362 C1370 1.574 . S
C1362 C1378 1.368 1_545 S
H1363 C1371 0.950 . S
H1364 C1369 0.950 . S
H1365 C1370 0.949 . S
H1366 C1372 0.950 . S
H1367 C1373 0.950 . S
H1368 C1374 0.949 . S
C1369 H1364 0.950 . S
C1369 C1371 1.327 . S
C1369 C1375 1.429 . S
C1370 C1362 1.574 . S
C1370 H1365 0.949 . S
C1370 C1376 1.368 . S
C1371 C1355 1.349 . S
C1371 H1363 0.950 . S
C1371 C1369 1.327 . S
C1372 C1360 1.349 . S
C1372 H1366 0.950 . S
C1372 C1373 1.327 . S
C1373 H1367 0.950 . S
C1373 C1372 1.327 . S
C1373 C1377 1.429 . S
C1374 C1357 1.574 . S
C1374 H1368 0.949 . S
C1374 C1378 1.368 . S
C1375 C1356 1.429 . S
C1375 C1369 1.429 . S
C1375 C1376 1.523 . S
C1376 C1357 1.368 1_545 S
C1376 C1370 1.368 . S
C1376 C1375 1.523 . S
C1377 C1361 1.429 . S
C1377 C1373 1.429 . S
C1377 C1378 1.523 . S
C1378 C1362 1.368 1_565 S
C1378 C1374 1.368 . S
C1378 C1377 1.523 . S
H1379 C1354 0.950 . S
H1380 C1356 0.950 . S
H1381 C1357 0.949 . S
H1382 C1359 0.950 . S
H1383 C1361 0.950 . S
C1384 C1385 1.349 . S
C1384 C1386 1.327 . S
C1384 H1409 0.950 . S
C1385 C1384 1.349 . S
C1385 C1401 1.349 . S
C1386 C1384 1.327 . S
C1386 C1405 1.429 . S
C1386 H1410 0.950 . S
C1387 C1404 1.574 . S
C1387 C1406 1.368 . S
C1387 H1411 0.949 . S
H1388 C1392 0.949 . S
C1389 C1390 1.349 . S
C1389 C1391 1.327 . S
C1389 H1412 0.950 . S
C1390 C1389 1.349 . S
C1390 C1402 1.349 . S
C1391 C1389 1.327 . S
C1391 C1407 1.429 . S
C1391 H1413 0.950 . S
C1392 H1388 0.949 . S
C1392 C1400 1.574 . S
C1392 C1408 1.368 . S
H1393 C1401 0.950 . S
H1394 C1399 0.950 . S
H1395 C1400 0.949 . S
H1396 C1402 0.950 . S
H1397 C1403 0.950 . S
H1398 C1404 0.949 . S
C1399 H1394 0.950 . S
C1399 C1401 1.327 . S
C1399 C1405 1.429 . S
C1400 C1392 1.574 . S
C1400 H1395 0.949 . S
C1400 C1406 1.368 1_655 S
C1401 C1385 1.349 . S
C1401 H1393 0.950 . S
C1401 C1399 1.327 . S
C1402 C1390 1.349 . S
C1402 H1396 0.950 . S
C1402 C1403 1.327 . S
C1403 H1397 0.950 . S
C1403 C1402 1.327 . S
C1403 C1407 1.429 . S
C1404 C1387 1.574 . S
C1404 H1398 0.949 . S
C1404 C1408 1.368 1_455 S
C1405 C1386 1.429 . S
C1405 C1399 1.429 . S
C1405 C1406 1.523 . S
C1406 C1387 1.368 . S
C1406 C1400 1.368 1_455 S
C1406 C1405 1.523 . S
C1407 C1391 1.429 . S
C1407 C1403 1.429 . S
C1407 C1408 1.523 . S
C1408 C1392 1.368 . S
C1408 C1404 1.368 1_655 S
C1408 C1407 1.523 . S
H1409 C1384 0.950 . S
H1410 C1386 0.950 . S
H1411 C1387 0.949 . S
H1412 C1389 0.950 . S
H1413 C1391 0.950 . S
C1414 C1415 1.349 . S
C1414 C1416 1.327 . S
C1414 H1439 0.950 . S
C1415 C1414 1.349 . S
C1415 C1431 1.349 . S
C1416 C1414 1.327 . S
C1416 C1435 1.429 . S
C1416 H1440 0.950 . S
C1417 C1434 1.574 . S
C1417 C1436 1.368 . S
C1417 H1441 0.949 . S
H1418 C1422 0.949 . S
C1419 C1420 1.349 . S
C1419 C1421 1.327 . S
C1419 H1442 0.950 . S
C1420 C1419 1.349 . S
C1420 C1432 1.349 . S
C1421 C1419 1.327 . S
C1421 C1437 1.429 . S
C1421 H1443 0.950 . S
C1422 H1418 0.949 . S
C1422 C1430 1.574 . S
C1422 C1438 1.368 . S
H1423 C1431 0.950 . S
H1424 C1429 0.950 . S
H1425 C1430 0.949 . S
H1426 C1432 0.950 . S
H1427 C1433 0.950 . S
H1428 C1434 0.949 . S
C1429 H1424 0.950 . S
C1429 C1431 1.327 . S
C1429 C1435 1.429 . S
C1430 C1422 1.574 . S
C1430 H1425 0.949 . S
C1430 C1436 1.368 . S
C1431 C1415 1.349 . S
C1431 H1423 0.950 . S
C1431 C1429 1.327 . S
C1432 C1420 1.349 . S
C1432 H1426 0.950 . S
C1432 C1433 1.327 . S
C1433 H1427 0.950 . S
C1433 C1432 1.327 . S
C1433 C1437 1.429 . S
C1434 C1417 1.574 . S
C1434 H1428 0.949 . S
C1434 C1438 1.368 . S
C1435 C1416 1.429 . S
C1435 C1429 1.429 . S
C1435 C1436 1.523 . S
C1436 C1417 1.368 . S
C1436 C1430 1.368 . S
C1436 C1435 1.523 . S
C1437 C1421 1.429 . S
C1437 C1433 1.429 . S
C1437 C1438 1.523 . S
C1438 C1422 1.368 . S
C1438 C1434 1.368 . S
C1438 C1437 1.523 . S
H1439 C1414 0.950 . S
H1440 C1416 0.950 . S
H1441 C1417 0.949 . S
H1442 C1419 0.950 . S
H1443 C1421 0.950 . S
C1444 C1445 1.349 . S
C1444 C1446 1.327 . S
C1444 H1469 0.950 . S
C1445 C1444 1.349 . S
C1445 C1461 1.349 . S
C1446 C1444 1.327 . S
C1446 C1465 1.429 . S
C1446 H1470 0.950 . S
C1447 C1464 1.574 1_565 S
C1447 C1466 1.368 . S
C1447 H1471 0.949 . S
H1448 C1452 0.949 . S
C1449 C1450 1.349 . S
C1449 C1451 1.327 . S
C1449 H1472 0.950 . S
C1450 C1449 1.349 . S
C1450 C1462 1.349 . S
C1451 C1449 1.327 . S
C1451 C1467 1.429 . S
C1451 H1473 0.950 . S
C1452 H1448 0.949 . S
C1452 C1460 1.574 1_545 S
C1452 C1468 1.368 . S
H1453 C1461 0.950 . S
H1454 C1459 0.950 . S
H1455 C1460 0.949 . S
H1456 C1462 0.950 . S
H1457 C1463 0.950 . S
H1458 C1464 0.949 . S
C1459 H1454 0.950 . S
C1459 C1461 1.327 . S
C1459 C1465 1.429 . S
C1460 C1452 1.574 1_565 S
C1460 H1455 0.949 . S
C1460 C1466 1.368 . S
C1461 C1445 1.349 . S
C1461 H1453 0.950 . S
C1461 C1459 1.327 . S
C1462 C1450 1.349 . S
C1462 H1456 0.950 . S
C1462 C1463 1.327 . S
C1463 H1457 0.950 . S
C1463 C1462 1.327 . S
C1463 C1467 1.429 . S
C1464 C1447 1.574 1_545 S
C1464 H1458 0.949 . S
C1464 C1468 1.368 . S
C1465 C1446 1.429 . S
C1465 C1459 1.429 . S
C1465 C1466 1.523 . S
C1466 C1447 1.368 . S
C1466 C1460 1.368 . S
C1466 C1465 1.523 . S
C1467 C1451 1.429 . S
C1467 C1463 1.429 . S
C1467 C1468 1.523 . S
C1468 C1452 1.368 . S
C1468 C1464 1.368 . S
C1468 C1467 1.523 . S
H1469 C1444 0.950 . S
H1470 C1446 0.950 . S
H1471 C1447 0.949 . S
H1472 C1449 0.950 . S
H1473 C1451 0.950 . S
C1474 C1475 1.349 . S
C1474 C1476 1.327 . S
C1474 H1499 0.950 . S
C1475 C1474 1.349 . S
C1475 C1491 1.349 . S
C1476 C1474 1.327 . S
C1476 C1495 1.429 . S
C1476 H1500 0.950 . S
C1477 C1494 1.574 1_455 S
C1477 C1496 1.368 1_565 S
C1477 H1501 0.949 . S
H1478 C1482 0.949 . S
C1479 C1480 1.349 . S
C1479 C1481 1.327 . S
C1479 H1502 0.950 . S
C1480 C1479 1.349 . S
C1480 C1492 1.349 . S
C1481 C1479 1.327 . S
C1481 C1497 1.429 . S
C1481 H1503 0.950 . S
C1482 H1478 0.949 . S
C1482 C1490 1.574 1_655 S
C1482 C1498 1.368 1_545 S
H1483 C1491 0.950 . S
H1484 C1489 0.950 . S
H1485 C1490 0.949 . S
H1486 C1492 0.950 . S
H1487 C1493 0.950 . S
H1488 C1494 0.949 . S
C1489 H1484 0.950 . S
C1489 C1491 1.327 . S
C1489 C1495 1.429 . S
C1490 C1482 1.574 1_455 S
C1490 H1485 0.949 . S
C1490 C1496 1.368 . S
C1491 C1475 1.349 . S
C1491 H1483 0.950 . S
C1491 C1489 1.327 . S
C1492 C1480 1.349 . S
C1492 H1486 0.950 . S
C1492 C1493 1.327 . S
C1493 H1487 0.950 . S
C1493 C1492 1.327 . S
C1493 C1497 1.429 . S
C1494 C1477 1.574 1_655 S
C1494 H1488 0.949 . S
C1494 C1498 1.368 . S
C1495 C1476 1.429 . S
C1495 C1489 1.429 . S
C1495 C1496 1.523 . S
C1496 C1477 1.368 1_545 S
C1496 C1490 1.368 . S
C1496 C1495 1.523 . S
C1497 C1481 1.429 . S
C1497 C1493 1.429 . S
C1497 C1498 1.523 . S
C1498 C1482 1.368 1_565 S
C1498 C1494 1.368 . S
C1498 C1497 1.523 . S
H1499 C1474 0.950 . S
H1500 C1476 0.950 . S
H1501 C1477 0.949 . S
H1502 C1479 0.950 . S
H1503 C1481 0.950 . S
C1504 C1505 1.349 . S
C1504 C1506 1.327 . S
C1504 H1529 0.950 . S
C1505 C1504 1.349 . S
C1505 C1521 1.349 . S
C1506 C1504 1.327 . S
C1506 C1525 1.429 . S
C1506 H1530 0.950 . S
C1507 C1524 1.574 . S
C1507 C1526 1.368 . S
C1507 H1531 0.949 . S
H1508 C1512 0.949 . S
C1509 C1510 1.349 . S
C1509 C1511 1.327 . S
C1509 H1532 0.950 . S
C1510 C1509 1.349 . S
C1510 C1522 1.349 . S
C1511 C1509 1.327 . S
C1511 C1527 1.429 . S
C1511 H1533 0.950 . S
C1512 H1508 0.949 . S
C1512 C1520 1.574 . S
C1512 C1528 1.368 . S
H1513 C1521 0.950 . S
H1514 C1519 0.950 . S
H1515 C1520 0.949 . S
H1516 C1522 0.950 . S
H1517 C1523 0.950 . S
H1518 C1524 0.949 . S
C1519 H1514 0.950 . S
C1519 C1521 1.327 . S
C1519 C1525 1.429 . S
C1520 C1512 1.574 . S
C1520 H1515 0.949 . S
C1520 C1526 1.368 . S
C1521 C1505 1.349 . S
C1521 H1513 0.950 . S
C1521 C1519 1.327 . S
C1522 C1510 1.349 . S
C1522 H1516 0.950 . S
C1522 C1523 1.327 . S
C1523 H1517 0.950 . S
C1523 C1522 1.327 . S
C1523 C1527 1.429 . S
C1524 C1507 1.574 . S
C1524 H1518 0.949 . S
C1524 C1528 1.368 . S
C1525 C1506 1.429 . S
C1525 C1519 1.429 . S
C1525 C1526 1.523 . S
C1526 C1507 1.368 . S
C1526 C1520 1.368 . S
C1526 C1525 1.523 . S
C1527 C1511 1.429 . S
C1527 C1523 1.429 . S
C1527 C1528 1.523 . S
C1528 C1512 1.368 . S
C1528 C1524 1.368 . S
C1528 C1527 1.523 . S
H1529 C1504 0.950 . S
H1530 C1506 0.950 . S
H1531 C1507 0.949 . S
H1532 C1509 0.950 . S
H1533 C1511 0.950 . S
C1534 C1535 1.349 . S
C1534 C1536 1.327 . S
C1534 H1559 0.950 . S
C1535 C1534 1.349 . S
C1535 C1551 1.349 . S
C1536 C1534 1.327 . S
C1536 C1555 1.429 . S
C1536 H1560 0.950 . S
C1537 C1554 1.574 . S
C1537 C1556 1.368 . S
C1537 H1561 0.949 . S
H1538 C1542 0.949 . S
C1539 C1540 1.349 . S
C1539 C1541 1.327 . S
C1539 H1562 0.950 . S
C1540 C1539 1.349 . S
C1540 C1552 1.349 . S
C1541 C1539 1.327 . S
C1541 C1557 1.429 . S
C1541 H1563 0.950 . S
C1542 H1538 0.949 . S
C1542 C1550 1.574 . S
C1542 C1558 1.368 . S
H1543 C1551 0.950 . S
H1544 C1549 0.950 . S
H1545 C1550 0.949 . S
H1546 C1552 0.950 . S
H1547 C1553 0.950 . S
H1548 C1554 0.949 . S
C1549 H1544 0.950 . S
C1549 C1551 1.327 . S
C1549 C1555 1.429 . S
C1550 C1542 1.574 . S
C1550 H1545 0.949 . S
C1550 C1556 1.368 . S
C1551 C1535 1.349 . S
C1551 H1543 0.950 . S
C1551 C1549 1.327 . S
C1552 C1540 1.349 . S
C1552 H1546 0.950 . S
C1552 C1553 1.327 . S
C1553 H1547 0.950 . S
C1553 C1552 1.327 . S
C1553 C1557 1.429 . S
C1554 C1537 1.574 . S
C1554 H1548 0.949 . S
C1554 C1558 1.368 . S
C1555 C1536 1.429 . S
C1555 C1549 1.429 . S
C1555 C1556 1.523 . S
C1556 C1537 1.368 . S
C1556 C1550 1.368 . S
C1556 C1555 1.523 . S
C1557 C1541 1.429 . S
C1557 C1553 1.429 . S
C1557 C1558 1.523 . S
C1558 C1542 1.368 . S
C1558 C1554 1.368 . S
C1558 C1557 1.523 . S
H1559 C1534 0.950 . S
H1560 C1536 0.950 . S
H1561 C1537 0.949 . S
H1562 C1539 0.950 . S
H1563 C1541 0.950 . S
C1564 C1565 1.349 . S
C1564 C1566 1.327 . S
C1564 H1589 0.950 . S
C1565 C1564 1.349 . S
C1565 C1581 1.349 . S
C1566 C1564 1.327 . S
C1566 C1585 1.429 . S
C1566 H1590 0.950 . S
C1567 C1584 1.574 . S
C1567 C1586 1.368 . S
C1567 H1591 0.949 . S
H1568 C1572 0.949 . S
C1569 C1570 1.349 . S
C1569 C1571 1.327 . S
C1569 H1592 0.950 . S
C1570 C1569 1.349 . S
C1570 C1582 1.349 . S
C1571 C1569 1.327 . S
C1571 C1587 1.429 . S
C1571 H1593 0.950 . S
C1572 H1568 0.949 . S
C1572 C1580 1.574 . S
C1572 C1588 1.368 . S
H1573 C1581 0.950 . S
H1574 C1579 0.950 . S
H1575 C1580 0.949 . S
H1576 C1582 0.950 . S
H1577 C1583 0.950 . S
H1578 C1584 0.949 . S
C1579 H1574 0.950 . S
C1579 C1581 1.327 . S
C1579 C1585 1.429 . S
C1580 C1572 1.574 . S
C1580 H1575 0.949 . S
C1580 C1586 1.368 . S
C1581 C1565 1.349 . S
C1581 H1573 0.950 . S
C1581 C1579 1.327 . S
C1582 C1570 1.349 . S
C1582 H1576 0.950 . S
C1582 C1583 1.327 . S
C1583 H1577 0.950 . S
C1583 C1582 1.327 . S
C1583 C1587 1.429 . S
C1584 C1567 1.574 . S
C1584 H1578 0.949 . S
C1584 C1588 1.368 . S
C1585 C1566 1.429 . S
C1585 C1579 1.429 . S
C1585 C1586 1.523 . S
C1586 C1567 1.368 . S
C1586 C1580 1.368 . S
C1586 C1585 1.523 . S
C1587 C1571 1.429 . S
C1587 C1583 1.429 . S
C1587 C1588 1.523 . S
C1588 C1572 1.368 . S
C1588 C1584 1.368 . S
C1588 C1587 1.523 . S
H1589 C1564 0.950 . S
H1590 C1566 0.950 . S
H1591 C1567 0.949 . S
H1592 C1569 0.950 . S
H1593 C1571 0.950 . S
C1594 C1595 1.349 . S
C1594 C1596 1.327 . S
C1594 H1619 0.950 . S
C1595 C1594 1.349 . S
C1595 C1611 1.349 . S
C1596 C1594 1.327 . S
C1596 C1615 1.429 . S
C1596 H1620 0.950 . S
C1597 C1614 1.574 . S
C1597 C1616 1.368 . S
C1597 H1621 0.949 . S
H1598 C1602 0.949 . S
C1599 C1600 1.349 . S
C1599 C1601 1.327 . S
C1599 H1622 0.950 . S
C1600 C1599 1.349 . S
C1600 C1612 1.349 . S
C1601 C1599 1.327 . S
C1601 C1617 1.429 . S
C1601 H1623 0.950 . S
C1602 H1598 0.949 . S
C1602 C1610 1.574 . S
C1602 C1618 1.368 . S
H1603 C1611 0.950 . S
H1604 C1609 0.950 . S
H1605 C1610 0.949 . S
H1606 C1612 0.950 . S
H1607 C1613 0.950 . S
H1608 C1614 0.949 . S
C1609 H1604 0.950 . S
C1609 C1611 1.327 . S
C1609 C1615 1.429 . S
C1610 C1602 1.574 . S
C1610 H1605 0.949 . S
C1610 C1616 1.368 . S
C1611 C1595 1.349 . S
C1611 H1603 0.950 . S
C1611 C1609 1.327 . S
C1612 C1600 1.349 . S
C1612 H1606 0.950 . S
C1612 C1613 1.327 . S
C1613 H1607 0.950 . S
C1613 C1612 1.327 . S
C1613 C1617 1.429 . S
C1614 C1597 1.574 . S
C1614 H1608 0.949 . S
C1614 C1618 1.368 . S
C1615 C1596 1.429 . S
C1615 C1609 1.429 . S
C1615 C1616 1.523 . S
C1616 C1597 1.368 . S
C1616 C1610 1.368 . S
C1616 C1615 1.523 . S
C1617 C1601 1.429 . S
C1617 C1613 1.429 . S
C1617 C1618 1.523 . S
C1618 C1602 1.368 . S
C1618 C1614 1.368 . S
C1618 C1617 1.523 . S
H1619 C1594 0.950 . S
H1620 C1596 0.950 . S
H1621 C1597 0.949 . S
H1622 C1599 0.950 . S
H1623 C1601 0.950 . S
C1624 C1625 1.349 . S
C1624 C1626 1.327 . S
C1624 H1649 0.950 . S
C1625 C1624 1.349 . S
C1625 C1641 1.349 . S
C1626 C1624 1.327 . S
C1626 C1645 1.429 . S
C1626 H1650 0.950 . S
C1627 C1644 1.574 . S
C1627 C1646 1.368 . S
C1627 H1651 0.949 . S
H1628 C1632 0.949 . S
C1629 C1630 1.349 . S
C1629 C1631 1.327 . S
C1629 H1652 0.950 . S
C1630 C1629 1.349 . S
C1630 C1642 1.349 . S
C1631 C1629 1.327 . S
C1631 C1647 1.429 . S
C1631 H1653 0.950 . S
C1632 H1628 0.949 . S
C1632 C1640 1.574 . S
C1632 C1648 1.368 . S
H1633 C1641 0.950 . S
H1634 C1639 0.950 . S
H1635 C1640 0.949 . S
H1636 C1642 0.950 . S
H1637 C1643 0.950 . S
H1638 C1644 0.949 . S
C1639 H1634 0.950 . S
C1639 C1641 1.327 . S
C1639 C1645 1.429 . S
C1640 C1632 1.574 . S
C1640 H1635 0.949 . S
C1640 C1646 1.368 . S
C1641 C1625 1.349 . S
C1641 H1633 0.950 . S
C1641 C1639 1.327 . S
C1642 C1630 1.349 . S
C1642 H1636 0.950 . S
C1642 C1643 1.327 . S
C1643 H1637 0.950 . S
C1643 C1642 1.327 . S
C1643 C1647 1.429 . S
C1644 C1627 1.574 . S
C1644 H1638 0.949 . S
C1644 C1648 1.368 . S
C1645 C1626 1.429 . S
C1645 C1639 1.429 . S
C1645 C1646 1.523 . S
C1646 C1627 1.368 . S
C1646 C1640 1.368 . S
C1646 C1645 1.523 . S
C1647 C1631 1.429 . S
C1647 C1643 1.429 . S
C1647 C1648 1.523 . S
C1648 C1632 1.368 . S
C1648 C1644 1.368 . S
C1648 C1647 1.523 . S
H1649 C1624 0.950 . S
H1650 C1626 0.950 . S
H1651 C1627 0.949 . S
H1652 C1629 0.950 . S
H1653 C1631 0.950 . S
C1654 C1655 1.349 . S
C1654 C1656 1.327 . S
C1654 H1679 0.950 . S
C1655 C1654 1.349 . S
C1655 C1671 1.349 . S
C1656 C1654 1.327 . S
C1656 C1675 1.429 . S
C1656 H1680 0.950 . S
C1657 C1674 1.574 . S
C1657 C1676 1.368 . S
C1657 H1681 0.949 . S
H1658 C1662 0.949 . S
C1659 C1660 1.349 . S
C1659 C1661 1.327 . S
C1659 H1682 0.950 . S
C1660 C1659 1.349 . S
C1660 C1672 1.349 . S
C1661 C1659 1.327 . S
C1661 C1677 1.429 . S
C1661 H1683 0.950 . S
C1662 H1658 0.949 . S
C1662 C1670 1.574 . S
C1662 C1678 1.368 . S
H1663 C1671 0.950 . S
H1664 C1669 0.950 . S
H1665 C1670 0.949 . S
H1666 C1672 0.950 . S
H1667 C1673 0.950 . S
H1668 C1674 0.949 . S
C1669 H1664 0.950 . S
C1669 C1671 1.327 . S
C1669 C1675 1.429 . S
C1670 C1662 1.574 . S
C1670 H1665 0.949 . S
C1670 C1676 1.368 . S
C1671 C1655 1.349 . S
C1671 H1663 0.950 . S
C1671 C1669 1.327 . S
C1672 C1660 1.349 . S
C1672 H1666 0.950 . S
C1672 C1673 1.327 . S
C1673 H1667 0.950 . S
C1673 C1672 1.327 . S
C1673 C1677 1.429 . S
C1674 C1657 1.574 . S
C1674 H1668 0.949 . S
C1674 C1678 1.368 . S
C1675 C1656 1.429 . S
C1675 C1669 1.429 . S
C1675 C1676 1.523 . S
C1676 C1657 1.368 . S
C1676 C1670 1.368 . S
C1676 C1675 1.523 . S
C1677 C1661 1.429 . S
C1677 C1673 1.429 . S
C1677 C1678 1.523 . S
C1678 C1662 1.368 . S
C1678 C1674 1.368 . S
C1678 C1677 1.523 . S
H1679 C1654 0.950 . S
H1680 C1656 0.950 . S
H1681 C1657 0.949 . S
H1682 C1659 0.950 . S
H1683 C1661 0.950 . S
C1684 C1685 1.349 . S
C1684 C1686 1.327 . S
C1684 H1709 0.950 . S
C1685 C1684 1.349 . S
C1685 C1701 1.349 . S
C1686 C1684 1.327 . S
C1686 C1705 1.429 . S
C1686 H1710 0.950 . S
C1687 C1704 1.574 . S
C1687 C1706 1.368 . S
C1687 H1711 0.949 . S
H1688 C1692 0.949 . S
C1689 C1690 1.349 . S
C1689 C1691 1.327 . S
C1689 H1712 0.950 . S
C1690 C1689 1.349 . S
C1690 C1702 1.349 . S
C1691 C1689 1.327 . S
C1691 C1707 1.429 . S
C1691 H1713 0.950 . S
C1692 H1688 0.949 . S
C1692 C1700 1.574 . S
C1692 C1708 1.368 . S
H1693 C1701 0.950 . S
H1694 C1699 0.950 . S
H1695 C1700 0.949 . S
H1696 C1702 0.950 . S
H1697 C1703 0.950 . S
H1698 C1704 0.949 . S
C1699 H1694 0.950 . S
C1699 C1701 1.327 . S
C1699 C1705 1.429 . S
C1700 C1692 1.574 . S
C1700 H1695 0.949 . S
C1700 C1706 1.368 . S
C1701 C1685 1.349 . S
C1701 H1693 0.950 . S
C1701 C1699 1.327 . S
C1702 C1690 1.349 . S
C1702 H1696 0.950 . S
C1702 C1703 1.327 . S
C1703 H1697 0.950 . S
C1703 C1702 1.327 . S
C1703 C1707 1.429 . S
C1704 C1687 1.574 . S
C1704 H1698 0.949 . S
C1704 C1708 1.368 . S
C1705 C1686 1.429 . S
C1705 C1699 1.429 . S
C1705 C1706 1.523 . S
C1706 C1687 1.368 . S
C1706 C1700 1.368 . S
C1706 C1705 1.523 . S
C1707 C1691 1.429 . S
C1707 C1703 1.429 . S
C1707 C1708 1.523 . S
C1708 C1692 1.368 . S
C1708 C1704 1.368 . S
C1708 C1707 1.523 . S
H1709 C1684 0.950 . S
H1710 C1686 0.950 . S
H1711 C1687 0.949 . S
H1712 C1689 0.950 . S
H1713 C1691 0.950 . S
C1714 C1715 1.349 . S
C1714 C1716 1.327 . S
C1714 H1739 0.950 . S
C1715 C1714 1.349 . S
C1715 C1731 1.349 . S
C1716 C1714 1.327 . S
C1716 C1735 1.429 . S
C1716 H1740 0.950 . S
C1717 C1734 1.574 . S
C1717 C1736 1.368 . S
C1717 H1741 0.949 . S
H1718 C1722 0.949 . S
C1719 C1720 1.349 . S
C1719 C1721 1.327 . S
C1719 H1742 0.950 . S
C1720 C1719 1.349 . S
C1720 C1732 1.349 . S
C1721 C1719 1.327 . S
C1721 C1737 1.429 . S
C1721 H1743 0.950 . S
C1722 H1718 0.949 . S
C1722 C1730 1.574 . S
C1722 C1738 1.368 . S
H1723 C1731 0.950 . S
H1724 C1729 0.950 . S
H1725 C1730 0.949 . S
H1726 C1732 0.950 . S
H1727 C1733 0.950 . S
H1728 C1734 0.949 . S
C1729 H1724 0.950 . S
C1729 C1731 1.327 . S
C1729 C1735 1.429 . S
C1730 C1722 1.574 . S
C1730 H1725 0.949 . S
C1730 C1736 1.368 . S
C1731 C1715 1.349 . S
C1731 H1723 0.950 . S
C1731 C1729 1.327 . S
C1732 C1720 1.349 . S
C1732 H1726 0.950 . S
C1732 C1733 1.327 . S
C1733 H1727 0.950 . S
C1733 C1732 1.327 . S
C1733 C1737 1.429 . S
C1734 C1717 1.574 . S
C1734 H1728 0.949 . S
C1734 C1738 1.368 . S
C1735 C1716 1.429 . S
C1735 C1729 1.429 . S
C1735 C1736 1.523 . S
C1736 C1717 1.368 . S
C1736 C1730 1.368 . S
C1736 C1735 1.523 . S
C1737 C1721 1.429 . S
C1737 C1733 1.429 . S
C1737 C1738 1.523 . S
C1738 C1722 1.368 . S
C1738 C1734 1.368 . S
C1738 C1737 1.523 . S
H1739 C1714 0.950 . S
H1740 C1716 0.950 . S
H1741 C1717 0.949 . S
H1742 C1719 0.950 . S
H1743 C1721 0.950 . S
C545 C5 0.808 . S
C550 C447 0.808 . S
C575 C481 0.807 . S
C580 C39 0.807 . S
C605 C515 0.807 . S
C610 C73 0.807 . S
C635 C413 0.808 . S
C640 C107 0.808 . S
C665 C379 0.808 . S
C670 C141 0.808 . S
C695 C277 0.807 . S
C700 C175 0.807 . S
C725 C209 0.807 . S
C730 C311 0.807 . S
C755 C345 0.808 . S
C760 C243 0.808 . S
C785 C339 1.597 . S
C790 C9 1.667 . S
C815 C43 1.667 . S
C820 C373 1.597 . S
C845 C77 1.667 . S
C850 C407 1.597 . S
C875 C111 1.667 . S
C880 C305 1.597 . S
C905 C145 1.667 . S
C910 C543 1.597 . S
C935 C441 1.597 . S
C940 C179 1.667 . S
C965 C475 1.597 . S
C970 C213 1.667 . S
C995 C509 1.597 . S
C1000 C247 1.667 . S
C1025 C281 1.667 . S
C1030 C67 1.597 . S
C1055 C315 1.667 . S
C1060 C101 1.597 . S
C1085 C349 1.667 . S
C1090 C135 1.597 . S
C1115 C33 1.597 . S
C1120 C383 1.667 . S
C1145 C417 1.667 . S
C1150 C271 1.597 . S
C1175 C169 1.597 . S
C1180 C451 1.667 . S
C1205 C485 1.667 . S
C1210 C203 1.597 . S
C1235 C519 1.667 . S
C1240 C237 1.597 . S
C1265 C20 1.695 . S
C1270 C360 1.695 . S
C1295 C394 1.695 . S
C1300 C54 1.695 . S
C1325 C88 1.695 . S
C1330 C292 1.695 . S
C1355 C326 1.695 . S
C1360 C122 1.695 . S
C1385 C156 1.695 . S
C1390 C496 1.695 . S
C1415 C530 1.695 . S
C1420 C190 1.695 . S
C1445 C428 1.695 . S
C1450 C224 1.695 . S
C1475 C462 1.695 . S
C1480 C258 1.695 . S
C1505 C206 0.515 . S
C1510 C2 0.515 . S
C1535 C36 0.515 . S
C1540 C240 0.515 . S
C1565 C138 0.515 . S
C1570 C70 0.515 . S
C1595 C104 0.515 . S
C1600 C172 0.515 . S
C1625 C274 0.515 . S
C1630 C478 0.515 . S
C1655 C308 0.515 . S
C1660 C512 0.515 . S
C1685 C342 0.515 . S
C1690 C410 0.515 . S
C1715 C444 0.515 . S
C1720 C376 0.515 . S
