# Generated by pormake.
# Topology uox, (4)-cn, num edge types: 1
# Building blocks:
#     Node 0, Type 0, BuildingBlock: ICAMEG_clean_sbu_1, # of connection points: 4
#     Node 1, Type 0, BuildingBlock: ICAMEG_clean_sbu_1, # of connection points: 4
#     Node 2, Type 0, BuildingBlock: ICAMEG_clean_sbu_1, # of connection points: 4
#     Node 3, Type 0, BuildingBlock: ICAMEG_clean_sbu_1, # of connection points: 4
#     Node 4, Type 0, BuildingBlock: ICAMEG_clean_sbu_1, # of connection points: 4
#     Node 5, Type 0, BuildingBlock: ICAMEG_clean_sbu_1, # of connection points: 4
#     Node 6, Type 0, BuildingBlock: ICAMEG_clean_sbu_1, # of connection points: 4
#     Node 7, Type 0, BuildingBlock: ICAMEG_clean_sbu_1, # of connection points: 4
#     Node 8, Type 0, BuildingBlock: ICAMEG_clean_sbu_1, # of connection points: 4
#     Node 9, Type 0, BuildingBlock: ICAMEG_clean_sbu_1, # of connection points: 4
#     Node 10, Type 0, BuildingBlock: ICAMEG_clean_sbu_1, # of connection points: 4
#     Node 11, Type 0, BuildingBlock: ICAMEG_clean_sbu_1, # of connection points: 4
#     Node 12, Type 0, BuildingBlock: ICAMEG_clean_sbu_1, # of connection points: 4
#     Node 13, Type 0, BuildingBlock: ICAMEG_clean_sbu_1, # of connection points: 4
#     Node 14, Type 0, BuildingBlock: ICAMEG_clean_sbu_1, # of connection points: 4
#     Node 15, Type 0, BuildingBlock: ICAMEG_clean_sbu_1, # of connection points: 4
#     Node 16, Type 0, BuildingBlock: ICAMEG_clean_sbu_1, # of connection points: 4
#     Node 17, Type 0, BuildingBlock: ICAMEG_clean_sbu_1, # of connection points: 4
#     Node 18, Type 0, BuildingBlock: ICAMEG_clean_sbu_1, # of connection points: 4
#     Node 19, Type 0, BuildingBlock: ICAMEG_clean_sbu_1, # of connection points: 4
#     Node 20, Type 0, BuildingBlock: ICAMEG_clean_sbu_1, # of connection points: 4
#     Node 21, Type 0, BuildingBlock: ICAMEG_clean_sbu_1, # of connection points: 4
#     Node 22, Type 0, BuildingBlock: ICAMEG_clean_sbu_1, # of connection points: 4
#     Node 23, Type 0, BuildingBlock: ICAMEG_clean_sbu_1, # of connection points: 4
#     Node 24, Type 0, BuildingBlock: ICAMEG_clean_sbu_1, # of connection points: 4
#     Node 25, Type 0, BuildingBlock: ICAMEG_clean_sbu_1, # of connection points: 4
#     Node 26, Type 0, BuildingBlock: ICAMEG_clean_sbu_1, # of connection points: 4
#     Node 27, Type 0, BuildingBlock: ICAMEG_clean_sbu_1, # of connection points: 4
#     Node 28, Type 0, BuildingBlock: ICAMEG_clean_sbu_1, # of connection points: 4
#     Node 29, Type 0, BuildingBlock: ICAMEG_clean_sbu_1, # of connection points: 4
#     Node 30, Type 0, BuildingBlock: ICAMEG_clean_sbu_1, # of connection points: 4
#     Node 31, Type 0, BuildingBlock: ICAMEG_clean_sbu_1, # of connection points: 4
#     Edge 32, Type (0, 0), BuildingBlock: XIVTED_clean_linker_0, # of connection points: 2
#     Edge 33, Type (0, 0), BuildingBlock: XIVTED_clean_linker_0, # of connection points: 2
#     Edge 34, Type (0, 0), BuildingBlock: XIVTED_clean_linker_0, # of connection points: 2
#     Edge 35, Type (0, 0), BuildingBlock: XIVTED_clean_linker_0, # of connection points: 2
#     Edge 36, Type (0, 0), BuildingBlock: XIVTED_clean_linker_0, # of connection points: 2
#     Edge 37, Type (0, 0), BuildingBlock: XIVTED_clean_linker_0, # of connection points: 2
#     Edge 38, Type (0, 0), BuildingBlock: XIVTED_clean_linker_0, # of connection points: 2
#     Edge 39, Type (0, 0), BuildingBlock: XIVTED_clean_linker_0, # of connection points: 2
#     Edge 40, Type (0, 0), BuildingBlock: XIVTED_clean_linker_0, # of connection points: 2
#     Edge 41, Type (0, 0), BuildingBlock: XIVTED_clean_linker_0, # of connection points: 2
#     Edge 42, Type (0, 0), BuildingBlock: XIVTED_clean_linker_0, # of connection points: 2
#     Edge 43, Type (0, 0), BuildingBlock: XIVTED_clean_linker_0, # of connection points: 2
#     Edge 44, Type (0, 0), BuildingBlock: XIVTED_clean_linker_0, # of connection points: 2
#     Edge 45, Type (0, 0), BuildingBlock: XIVTED_clean_linker_0, # of connection points: 2
#     Edge 46, Type (0, 0), BuildingBlock: XIVTED_clean_linker_0, # of connection points: 2
#     Edge 47, Type (0, 0), BuildingBlock: XIVTED_clean_linker_0, # of connection points: 2
#     Edge 48, Type (0, 0), BuildingBlock: XIVTED_clean_linker_0, # of connection points: 2
#     Edge 49, Type (0, 0), BuildingBlock: XIVTED_clean_linker_0, # of connection points: 2
#     Edge 50, Type (0, 0), BuildingBlock: XIVTED_clean_linker_0, # of connection points: 2
#     Edge 51, Type (0, 0), BuildingBlock: XIVTED_clean_linker_0, # of connection points: 2
#     Edge 52, Type (0, 0), BuildingBlock: XIVTED_clean_linker_0, # of connection points: 2
#     Edge 53, Type (0, 0), BuildingBlock: XIVTED_clean_linker_0, # of connection points: 2
#     Edge 54, Type (0, 0), BuildingBlock: XIVTED_clean_linker_0, # of connection points: 2
#     Edge 55, Type (0, 0), BuildingBlock: XIVTED_clean_linker_0, # of connection points: 2
#     Edge 56, Type (0, 0), BuildingBlock: XIVTED_clean_linker_0, # of connection points: 2
#     Edge 57, Type (0, 0), BuildingBlock: XIVTED_clean_linker_0, # of connection points: 2
#     Edge 58, Type (0, 0), BuildingBlock: XIVTED_clean_linker_0, # of connection points: 2
#     Edge 59, Type (0, 0), BuildingBlock: XIVTED_clean_linker_0, # of connection points: 2
#     Edge 60, Type (0, 0), BuildingBlock: XIVTED_clean_linker_0, # of connection points: 2
#     Edge 61, Type (0, 0), BuildingBlock: XIVTED_clean_linker_0, # of connection points: 2
#     Edge 62, Type (0, 0), BuildingBlock: XIVTED_clean_linker_0, # of connection points: 2
#     Edge 63, Type (0, 0), BuildingBlock: XIVTED_clean_linker_0, # of connection points: 2
#     Edge 64, Type (0, 0), BuildingBlock: XIVTED_clean_linker_0, # of connection points: 2
#     Edge 65, Type (0, 0), BuildingBlock: XIVTED_clean_linker_0, # of connection points: 2
#     Edge 66, Type (0, 0), BuildingBlock: XIVTED_clean_linker_0, # of connection points: 2
#     Edge 67, Type (0, 0), BuildingBlock: XIVTED_clean_linker_0, # of connection points: 2
#     Edge 68, Type (0, 0), BuildingBlock: XIVTED_clean_linker_0, # of connection points: 2
#     Edge 69, Type (0, 0), BuildingBlock: XIVTED_clean_linker_0, # of connection points: 2
#     Edge 70, Type (0, 0), BuildingBlock: XIVTED_clean_linker_0, # of connection points: 2
#     Edge 71, Type (0, 0), BuildingBlock: XIVTED_clean_linker_0, # of connection points: 2
#     Edge 72, Type (0, 0), BuildingBlock: XIVTED_clean_linker_0, # of connection points: 2
#     Edge 73, Type (0, 0), BuildingBlock: XIVTED_clean_linker_0, # of connection points: 2
#     Edge 74, Type (0, 0), BuildingBlock: XIVTED_clean_linker_0, # of connection points: 2
#     Edge 75, Type (0, 0), BuildingBlock: XIVTED_clean_linker_0, # of connection points: 2
#     Edge 76, Type (0, 0), BuildingBlock: XIVTED_clean_linker_0, # of connection points: 2
#     Edge 77, Type (0, 0), BuildingBlock: XIVTED_clean_linker_0, # of connection points: 2
#     Edge 78, Type (0, 0), BuildingBlock: XIVTED_clean_linker_0, # of connection points: 2
#     Edge 79, Type (0, 0), BuildingBlock: XIVTED_clean_linker_0, # of connection points: 2
#     Edge 80, Type (0, 0), BuildingBlock: XIVTED_clean_linker_0, # of connection points: 2
#     Edge 81, Type (0, 0), BuildingBlock: XIVTED_clean_linker_0, # of connection points: 2
#     Edge 82, Type (0, 0), BuildingBlock: XIVTED_clean_linker_0, # of connection points: 2
#     Edge 83, Type (0, 0), BuildingBlock: XIVTED_clean_linker_0, # of connection points: 2
#     Edge 84, Type (0, 0), BuildingBlock: XIVTED_clean_linker_0, # of connection points: 2
#     Edge 85, Type (0, 0), BuildingBlock: XIVTED_clean_linker_0, # of connection points: 2
#     Edge 86, Type (0, 0), BuildingBlock: XIVTED_clean_linker_0, # of connection points: 2
#     Edge 87, Type (0, 0), BuildingBlock: XIVTED_clean_linker_0, # of connection points: 2
#     Edge 88, Type (0, 0), BuildingBlock: XIVTED_clean_linker_0, # of connection points: 2
#     Edge 89, Type (0, 0), BuildingBlock: XIVTED_clean_linker_0, # of connection points: 2
#     Edge 90, Type (0, 0), BuildingBlock: XIVTED_clean_linker_0, # of connection points: 2
#     Edge 91, Type (0, 0), BuildingBlock: XIVTED_clean_linker_0, # of connection points: 2
#     Edge 92, Type (0, 0), BuildingBlock: XIVTED_clean_linker_0, # of connection points: 2
#     Edge 93, Type (0, 0), BuildingBlock: XIVTED_clean_linker_0, # of connection points: 2
#     Edge 94, Type (0, 0), BuildingBlock: XIVTED_clean_linker_0, # of connection points: 2
#     Edge 95, Type (0, 0), BuildingBlock: XIVTED_clean_linker_0, # of connection points: 2
# Relax obj value: 0.070
# Max RMSD: 0.115
# Mean RMSD: 0.115
data_MOF--net-uox--node1-ICAMEG_clean_sbu_1--edge1-XIVTED_clean_linker_0
_symmetry_space_group_name_H-M    P1
_symmetry_Int_Tables_number       1
_symmetry_cell_setting            triclinic
loop_
_symmetry_equiv_pos_as_xyz
'x, y, z'
_cell_length_a     48.363714
_cell_length_b     48.366843
_cell_length_c     84.713802
_cell_angle_alpha  89.999194
_cell_angle_beta   90.022043
_cell_angle_gamma 90.012507
loop_
_atom_site_label
_atom_site_type_symbol
_atom_site_fract_x
_atom_site_fract_y
_atom_site_fract_z
_atom_type_partial_charge
Co0 Co 0.42071 0.04749 0.14537 0.0
Co1 Co 0.42493 0.08949 0.17793 0.0
O2 O 0.41377 0.05453 0.16783 0.0
C3 C 0.36143 0.03076 0.14873 0.0
O4 O 0.35715 0.05123 0.1586 0.0
C5 C 0.44644 0.04664 0.20008 0.0
O6 O 0.45605 0.03306 0.18783 0.0
O7 O 0.46388 0.08457 0.1707 0.0
O8 O 0.45636 0.06831 0.14633 0.0
H9 H 0.47269 0.18167 0.18061 0.0
H10 H 0.40805 1.00032 0.16635 0.0
O11 O 0.38543 0.02618 0.14318 0.0
H12 H 0.50052 0.98055 0.14459 0.0
H13 H 0.42278 0.99004 0.09577 0.0
H14 H 0.44062 0.08199 0.11877 0.0
H15 H 0.47533 0.02272 0.1368 0.0
H16 H 0.41474 0.99858 0.1241 0.0
O17 O 0.43356 0.06934 0.1981 0.0
H18 H 0.45803 0.13812 0.168 0.0
H19 H 0.41587 0.11418 0.2098 0.0
H20 H 0.44916 0.07428 0.09042 0.0
H21 H 0.43241 0.95772 0.17436 0.0
H22 H 0.44022 0.02803 0.07874 0.0
H23 H 0.47902 0.94767 0.16347 0.0
O24 O 0.40061 0.08192 0.13966 0.0
H25 H 0.33558 0.05897 0.20265 0.0
H26 H 0.38445 0.13608 0.17672 0.0
H27 H 0.33602 0.14224 0.18509 0.0
H28 H 0.31128 0.10353 0.1982 0.0
H29 H 0.38393 0.05358 0.1939 0.0
H30 H 0.43025 0.15738 0.22291 0.0
H31 H 0.45879 0.19153 0.20827 0.0
O32 O 0.41641 0.11108 0.15821 0.0
C33 C 0.47208 0.07906 0.15675 0.0
C34 C 0.46019 0.16699 0.1871 0.0
C35 C 0.43641 0.15334 0.21085 0.0
N36 N 0.43596 0.1237 0.18811 0.0
C37 C 0.45177 0.14232 0.18 0.0
C38 C 0.42838 0.12888 0.20337 0.0
C39 C 0.45241 0.1725 0.20262 0.0
C40 C 0.42822 0.99593 0.16147 0.0
N41 N 0.44021 0.01392 0.15109 0.0
C42 C 0.44196 0.97185 0.16608 0.0
C43 C 0.46813 0.96625 0.15999 0.0
C44 C 0.48021 0.9847 0.14941 0.0
C45 C 0.46588 0.00859 0.14508 0.0
C46 C 0.42681 0.01027 0.10073 0.0
C47 C 0.43682 0.06176 0.1138 0.0
C48 C 0.42225 0.01525 0.11676 0.0
N49 N 0.42741 0.04071 0.12312 0.0
C50 C 0.44164 0.05754 0.09772 0.0
C51 C 0.4366 0.03159 0.09118 0.0
C52 C 0.40425 0.1062 0.14512 0.0
C53 C 0.34616 0.07601 0.19699 0.0
C54 C 0.37379 0.11907 0.18233 0.0
C55 C 0.34639 0.12272 0.1871 0.0
C56 C 0.33253 0.101 0.19446 0.0
N57 N 0.38703 0.0945 0.18486 0.0
C58 C 0.37358 0.07312 0.19207 0.0
Co59 Co 0.20675 0.17155 0.39561 0.0
Co60 Co 0.1648 0.17601 0.42818 0.0
O61 O 0.19964 0.16462 0.41806 0.0
C62 C 0.22293 0.11219 0.39913 0.0
O63 O 0.20246 0.10827 0.40904 0.0
C64 C 0.20794 0.19707 0.4503 0.0
O65 O 0.2216 0.20652 0.43804 0.0
O66 O 0.17002 0.21492 0.42095 0.0
O67 O 0.1863 0.20741 0.3966 0.0
H68 H 0.07299 0.22441 0.4309 0.0
H69 H 0.25381 0.15835 0.41659 0.0
O70 O 0.22769 0.13605 0.39343 0.0
H71 H 0.27452 0.25068 0.39492 0.0
H72 H 0.26429 0.17318 0.34605 0.0
H73 H 0.17251 0.19193 0.36901 0.0
H74 H 0.23209 0.22594 0.3871 0.0
H75 H 0.25562 0.16512 0.37436 0.0
O76 O 0.18507 0.18447 0.44834 0.0
H77 H 0.11642 0.20948 0.41827 0.0
H78 H 0.14011 0.16709 0.46006 0.0
H79 H 0.18036 0.20049 0.34066 0.0
H80 H 0.29665 0.18225 0.42463 0.0
H81 H 0.22653 0.1911 0.32901 0.0
H82 H 0.30718 0.2288 0.41379 0.0
O83 O 0.17211 0.15184 0.38985 0.0
H84 H 0.19464 0.08647 0.45294 0.0
H85 H 0.11792 0.13585 0.42695 0.0
H86 H 0.11139 0.08747 0.43534 0.0
H87 H 0.1499 0.06248 0.44848 0.0
H88 H 0.2004 0.13476 0.44418 0.0
H89 H 0.09703 0.18175 0.47318 0.0
H90 H 0.06306 0.21054 0.45856 0.0
O91 O 0.14312 0.16768 0.40846 0.0
C92 C 0.17563 0.22315 0.40702 0.0
C93 C 0.08759 0.21181 0.43738 0.0
C94 C 0.1011 0.18789 0.46112 0.0
N95 N 0.1307 0.18728 0.43838 0.0
C96 C 0.11219 0.20323 0.43028 0.0
C97 C 0.12548 0.17971 0.45364 0.0
C98 C 0.08204 0.20404 0.45291 0.0
C99 C 0.2584 0.17849 0.41173 0.0
N100 N 0.24053 0.19069 0.40136 0.0
C101 C 0.28262 0.19197 0.41636 0.0
C102 C 0.28849 0.2181 0.4103 0.0
C103 C 0.27017 0.23041 0.39972 0.0
C104 C 0.24613 0.21633 0.39537 0.0
C105 C 0.2441 0.1774 0.35099 0.0
C106 C 0.1927 0.18793 0.36404 0.0
C107 C 0.23905 0.17283 0.36702 0.0
N108 N 0.21363 0.17825 0.37336 0.0
C109 C 0.197 0.19276 0.34798 0.0
C110 C 0.22291 0.18746 0.34144 0.0
C111 C 0.14786 0.15565 0.39531 0.0
C112 C 0.17768 0.09716 0.44727 0.0
C113 C 0.13484 0.12507 0.43258 0.0
C114 C 0.13099 0.09771 0.43735 0.0
C115 C 0.15259 0.0837 0.44474 0.0
N116 N 0.15951 0.13815 0.43511 0.0
C117 C 0.18079 0.12455 0.44234 0.0
Co118 Co 0.08 0.95709 0.64509 0.0
Co119 Co 0.07714 0.9188 0.67946 0.0
O120 O 0.08698 0.95267 0.66783 0.0
C121 C 0.13935 0.9733 0.64805 0.0
O122 O 0.14303 0.95382 0.65862 0.0
C123 C 0.05397 0.96384 0.69993 0.0
O124 O 0.04609 0.97752 0.68733 0.0
O125 O 0.03823 0.92039 0.67148 0.0
O126 O 0.04427 0.93696 0.64701 0.0
H127 H 0.03462 0.8246 0.68546 0.0
H128 H 0.09377 0.00646 0.66418 0.0
O129 O 0.11559 0.97756 0.64209 0.0
H130 H 1.00111 0.02492 0.64227 0.0
H131 H 0.07817 0.00912 0.59357 0.0
H132 H 0.05903 0.92016 0.61984 0.0
H133 H 0.02554 0.98156 0.63599 0.0
H134 H 0.0865 0.00349 0.62212 0.0
O135 O 0.06633 0.94074 0.69857 0.0
H136 H 0.04743 0.86718 0.67121 0.0
H137 H 0.08599 0.8989 0.71248 0.0
H138 H 0.0502 0.92496 0.59129 0.0
H139 H 0.07019 0.05027 0.67064 0.0
H140 H 0.05979 0.9697 0.57798 0.0
H141 H 0.02348 0.05967 0.65968 0.0
O142 O 0.09938 0.92172 0.64028 0.0
H143 H 0.16327 0.95859 0.70362 0.0
H144 H 0.12021 0.87461 0.68164 0.0
H145 H 0.16846 0.8728 0.69095 0.0
H146 H 0.19029 0.91501 0.70209 0.0
H147 H 0.11517 0.95954 0.69395 0.0
H148 H 0.07338 0.85676 0.7272 0.0
H149 H 0.0476 0.81919 0.71366 0.0
O150 O 0.08806 0.89532 0.66106 0.0
C151 C 0.02938 0.92563 0.6576 0.0
C152 C 0.0459 0.84079 0.69148 0.0
C153 C 0.06763 0.85886 0.71491 0.0
N154 N 0.06756 0.88546 0.69097 0.0
C155 C 0.05327 0.86493 0.68346 0.0
C156 C 0.07464 0.88271 0.70652 0.0
C157 C 0.05318 0.83779 0.7073 0.0
C158 C 0.07355 0.01054 0.65926 0.0
N159 N 0.06109 0.99153 0.64969 0.0
C160 C 0.06026 0.03532 0.663 0.0
C161 C 0.03403 0.04056 0.65687 0.0
C162 C 0.02146 0.02106 0.64711 0.0
C163 C 0.03536 0.9965 0.64364 0.0
C164 C 0.07386 0.98954 0.59925 0.0
C165 C 0.06311 0.93974 0.61415 0.0
C166 C 0.07857 0.98621 0.6154 0.0
N167 N 0.07305 0.96157 0.62267 0.0
C168 C 0.05814 0.94231 0.59797 0.0
C169 C 0.06354 0.96741 0.5905 0.0
C170 C 0.09817 0.8984 0.64726 0.0
C171 C 0.15398 0.94005 0.69881 0.0
C172 C 0.12962 0.89311 0.68632 0.0
C173 C 0.15692 0.89193 0.69166 0.0
C174 C 0.16914 0.91561 0.69793 0.0
N175 N 0.11488 0.91716 0.68721 0.0
C176 C 0.12671 0.94044 0.69337 0.0
Co177 Co 0.29677 0.82955 0.89536 0.0
Co178 Co 0.33592 0.82656 0.92941 0.0
O179 O 0.30167 0.83631 0.9181 0.0
C180 C 0.27989 0.88873 0.89858 0.0
O181 O 0.29941 0.89261 0.90911 0.0
C182 C 0.29152 0.80329 0.95041 0.0
O183 O 0.27723 0.79553 0.93799 0.0
O184 O 0.33429 0.78767 0.92136 0.0
O185 O 0.31731 0.79402 0.89701 0.0
H186 H 0.43046 0.78441 0.93449 0.0
H187 H 0.2477 0.84259 0.91484 0.0
O188 O 0.27585 0.86495 0.8926 0.0
H189 H 0.22968 0.74999 0.89276 0.0
H190 H 0.2436 0.82766 0.84422 0.0
H191 H 0.33337 0.80934 0.86977 0.0
H192 H 0.27266 0.77494 0.88626 0.0
H193 H 0.24977 0.83573 0.87274 0.0
O194 O 0.31461 0.81555 0.94873 0.0
H195 H 0.38742 0.7971 0.92066 0.0
H196 H 0.35676 0.83538 0.96225 0.0
H197 H 0.32804 0.80079 0.84123 0.0
H198 H 0.20427 0.8185 0.92152 0.0
H199 H 0.28288 0.80996 0.82827 0.0
H200 H 0.19509 0.77181 0.91048 0.0
O201 O 0.33183 0.84938 0.89038 0.0
H202 H 0.29638 0.91233 0.95407 0.0
H203 H 0.37998 0.86984 0.93132 0.0
H204 H 0.38181 0.91804 0.94071 0.0
H205 H 0.3398 0.93958 0.95223 0.0
H206 H 0.2954 0.8643 0.94431 0.0
H207 H 0.39936 0.8229 0.97656 0.0
H208 H 0.43663 0.79732 0.96266 0.0
O209 O 0.35886 0.83772 0.91083 0.0
C210 C 0.32889 0.77902 0.90746 0.0
C211 C 0.41439 0.79561 0.94067 0.0
C212 C 0.39692 0.81718 0.96429 0.0
N213 N 0.36964 0.81707 0.9406 0.0
C214 C 0.39 0.8029 0.93289 0.0
C215 C 0.37281 0.82412 0.95613 0.0
C216 C 0.41783 0.80284 0.95648 0.0
C217 C 0.24371 0.82239 0.90988 0.0
N218 N 0.26264 0.81023 0.90014 0.0
C219 C 0.21915 0.8088 0.91376 0.0
C220 C 0.21403 0.78259 0.90758 0.0
C221 C 0.23344 0.77032 0.89764 0.0
C222 C 0.25779 0.78451 0.89405 0.0
C223 C 0.26336 0.82353 0.84973 0.0
C224 C 0.31361 0.81325 0.86424 0.0
C225 C 0.26699 0.8281 0.86588 0.0
N226 N 0.29186 0.82281 0.87295 0.0
C227 C 0.31074 0.80842 0.84806 0.0
C228 C 0.28541 0.8136 0.8408 0.0
C229 C 0.35536 0.84811 0.89713 0.0
C230 C 0.31483 0.90317 0.94909 0.0
C231 C 0.36156 0.87913 0.93616 0.0
C232 C 0.36275 0.9064 0.94154 0.0
C233 C 0.33919 0.91846 0.94803 0.0
N234 N 0.3376 0.86427 0.93722 0.0
C235 C 0.31443 0.87594 0.94359 0.0
Co236 Co 0.42297 0.9608 0.36532 0.0
Co237 Co 0.42756 0.92375 0.33058 0.0
O238 O 0.41658 0.957 0.34247 0.0
C239 C 0.36338 0.97589 0.36208 0.0
O240 O 0.36038 0.95663 0.3513 0.0
C241 C 0.44852 0.97054 0.31045 0.0
O242 O 0.45491 0.98474 0.32313 0.0
O243 O 0.46632 0.92628 0.33876 0.0
O244 O 0.45918 0.94146 0.36343 0.0
H245 H 0.47286 0.831 0.32394 0.0
H246 H 0.40853 0.01063 0.34678 0.0
O247 O 0.38689 0.98046 0.36828 0.0
H248 H 0.50041 0.03012 0.36947 0.0
H249 H 0.4227 0.01103 0.41742 0.0
H250 H 0.44415 0.92342 0.39028 0.0
H251 H 0.47677 0.98602 0.37504 0.0
H252 H 0.41504 0.00624 0.38876 0.0
O253 O 0.43794 0.94654 0.31167 0.0
H254 H 0.45868 0.87281 0.3385 0.0
H255 H 0.41971 0.90451 0.29735 0.0
H256 H 0.45232 0.9274 0.41893 0.0
H257 H 0.43129 0.05518 0.34105 0.0
H258 H 0.44158 0.97146 0.43269 0.0
H259 H 0.47761 0.0651 0.35239 0.0
O260 O 0.40418 0.92489 0.36956 0.0
H261 H 0.34055 0.96154 0.3064 0.0
H262 H 0.38586 0.87834 0.32785 0.0
H263 H 0.33781 0.87531 0.31831 0.0
H264 H 0.31485 0.91711 0.30743 0.0
H265 H 0.38846 0.96371 0.31629 0.0
H266 H 0.43367 0.86315 0.28233 0.0
H267 H 0.46035 0.82598 0.29564 0.0
O268 O 0.41709 0.8994 0.34873 0.0
C269 C 0.47466 0.93104 0.35281 0.0
C270 C 0.46119 0.84703 0.31801 0.0
C271 C 0.43923 0.86509 0.29466 0.0
N272 N 0.43827 0.89103 0.31882 0.0
C273 C 0.45305 0.87073 0.3262 0.0
C274 C 0.43145 0.8885 0.30322 0.0
C275 C 0.45419 0.84423 0.30214 0.0
C276 C 0.42857 0.01493 0.35188 0.0
N277 N 0.44127 0.99578 0.36126 0.0
C278 C 0.4414 0.04013 0.34854 0.0
C279 C 0.46741 0.04567 0.35489 0.0
C280 C 0.48023 0.02603 0.36445 0.0
C281 C 0.46678 1.00105 0.36752 0.0
C282 C 0.42752 0.99175 0.41155 0.0
C283 C 0.43956 0.94271 0.39617 0.0
C284 C 0.42318 0.98889 0.39533 0.0
N285 N 0.42934 0.96463 0.38783 0.0
C286 C 0.44417 0.94482 0.4124 0.0
C287 C 0.43811 0.96954 0.42011 0.0
C288 C 0.40634 0.9018 0.36241 0.0
C289 C 0.35034 0.94317 0.31108 0.0
C290 C 0.37596 0.89666 0.32328 0.0
C291 C 0.34878 0.8948 0.31781 0.0
C292 C 0.33592 0.91825 0.31169 0.0
N293 N 0.38998 0.92118 0.32266 0.0
C294 C 0.37751 0.94424 0.31665 0.0
Co295 Co 0.29383 0.1722 0.61543 0.0
Co296 Co 0.33104 0.17554 0.5807 0.0
O297 O 0.29758 0.16539 0.59262 0.0
C298 C 0.27783 0.11282 0.61248 0.0
O299 O 0.29712 0.10933 0.60178 0.0
C300 C 0.28475 0.19742 0.56053 0.0
O301 O 0.27084 0.20439 0.57322 0.0
O302 O 0.32934 0.21442 0.58873 0.0
O303 O 0.31381 0.20801 0.61339 0.0
H304 H 0.42472 0.21884 0.5739 0.0
H305 H 0.2438 0.15832 0.5969 0.0
O306 O 0.27357 0.13651 0.61853 0.0
H307 H 0.22587 0.25086 0.61907 0.0
H308 H 0.24338 0.17347 0.66744 0.0
H309 H 0.33147 0.19309 0.64036 0.0
H310 H 0.26954 0.22656 0.62482 0.0
H311 H 0.24816 0.16537 0.63883 0.0
O312 O 0.30845 0.18619 0.56175 0.0
H313 H 0.38264 0.20566 0.58851 0.0
H314 H 0.35008 0.16696 0.5475 0.0
H315 H 0.32751 0.20169 0.66896 0.0
H316 H 0.19968 0.18175 0.59099 0.0
H317 H 0.28322 0.19186 0.68269 0.0
H318 H 0.19054 0.2284 0.60207 0.0
O319 O 0.3294 0.1529 0.61983 0.0
H320 H 0.2914 0.08907 0.55686 0.0
H321 H 0.37556 0.1329 0.57811 0.0
H322 H 0.37758 0.0847 0.56875 0.0
H323 H 0.33529 0.06248 0.55798 0.0
H324 H 0.29024 0.13712 0.56657 0.0
H325 H 0.39171 0.17993 0.53242 0.0
H326 H 0.42945 0.20597 0.54565 0.0
O327 O 0.35516 0.16478 0.5989 0.0
C328 C 0.32465 0.22308 0.60271 0.0
C329 C 0.40845 0.20744 0.56802 0.0
C330 C 0.3899 0.18564 0.54473 0.0
N331 N 0.36397 0.18544 0.5689 0.0
C332 C 0.38459 0.19987 0.57623 0.0
C333 C 0.36634 0.17842 0.55332 0.0
C334 C 0.41108 0.20023 0.55216 0.0
C335 C 0.23984 0.1785 0.60189 0.0
N336 N 0.25919 0.19102 0.61122 0.0
C337 C 0.21488 0.19172 0.59845 0.0
C338 C 0.20979 0.21792 0.60465 0.0
C339 C 0.22962 0.23054 0.61417 0.0
C340 C 0.25435 0.21672 0.61734 0.0
C341 C 0.26277 0.17789 0.66158 0.0
C342 C 0.31207 0.1889 0.64623 0.0
C343 C 0.26562 0.1733 0.64539 0.0
N344 N 0.29001 0.17895 0.6379 0.0
C345 C 0.30998 0.19375 0.66244 0.0
C346 C 0.28513 0.18821 0.67014 0.0
C347 C 0.35253 0.15443 0.61267 0.0
C348 C 0.30998 0.09853 0.5615 0.0
C349 C 0.35703 0.12332 0.57359 0.0
C350 C 0.35832 0.09605 0.56822 0.0
C351 C 0.3346 0.08361 0.56216 0.0
N352 N 0.33281 0.13783 0.57292 0.0
C353 C 0.30948 0.12578 0.56696 0.0
Co354 Co 0.08172 0.04444 0.86506 0.0
Co355 Co 0.08003 0.08324 0.83084 0.0
O356 O 0.0891 0.04908 0.84238 0.0
C357 C 0.14092 0.02758 0.86238 0.0
O358 O 0.145 0.04724 0.85196 0.0
C359 C 0.05571 0.03907 0.81022 0.0
O360 O 0.04709 0.02576 0.82279 0.0
O361 O 0.04101 0.08235 0.83868 0.0
O362 O 0.0463 0.0651 0.86305 0.0
H363 H 0.03941 0.1783 0.82499 0.0
H364 H 0.09506 0.99519 0.84578 0.0
O365 O 0.117 0.02343 0.86815 0.0
H366 H 1.00179 0.97773 0.86707 0.0
H367 H 0.07837 0.99167 0.9163 0.0
H368 H 0.06101 0.08131 0.8904 0.0
H369 H 0.02678 0.02061 0.87375 0.0
H370 H 0.08716 0.99759 0.88783 0.0
O371 O 0.06894 0.06168 0.81163 0.0
H372 H 0.05127 0.13535 0.83915 0.0
H373 H 0.08956 0.10328 0.79792 0.0
H374 H 0.05175 0.07622 0.91887 0.0
H375 H 0.07091 0.95187 0.83892 0.0
H376 H 0.06043 0.03113 0.93201 0.0
H377 H 0.02389 0.94298 0.84956 0.0
O378 O 0.10152 0.07948 0.87014 0.0
H379 H 0.16556 0.04199 0.80685 0.0
H380 H 0.12399 0.1266 0.82893 0.0
H381 H 0.17235 0.12755 0.81978 0.0
H382 H 0.19344 0.08502 0.8086 0.0
H383 H 0.11736 0.0419 0.81635 0.0
H384 H 0.07792 0.14579 0.78329 0.0
H385 H 0.05276 0.18372 0.79685 0.0
O386 O 0.09124 0.10632 0.84936 0.0
C387 C 0.03183 0.07695 0.85246 0.0
C388 C 0.05044 0.16195 0.81896 0.0
C389 C 0.07202 0.14368 0.79555 0.0
N390 N 0.07121 0.11688 0.8194 0.0
C391 C 0.05726 0.1376 0.82693 0.0
C392 C 0.07849 0.11962 0.80389 0.0
C393 C 0.05791 0.16496 0.80317 0.0
C394 C 0.07471 0.99132 0.85057 0.0
N395 N 0.0624 0.01034 0.86019 0.0
C396 C 0.06109 0.96682 0.8466 0.0
C397 C 0.03469 0.96187 0.85255 0.0
C398 C 0.02227 0.98137 0.86236 0.0
C399 C 0.03649 0.00565 0.86606 0.0
C400 C 0.07444 0.0114 0.9107 0.0
C401 C 0.0647 0.06158 0.89601 0.0
C402 C 0.07942 0.01489 0.89459 0.0
N403 N 0.07439 0.03972 0.88742 0.0
C404 C 0.05948 0.05884 0.91215 0.0
C405 C 0.06438 0.03355 0.91951 0.0
C406 C 0.10095 0.10289 0.86323 0.0
C407 C 0.1566 0.06066 0.81168 0.0
C408 C 0.13307 0.10797 0.82423 0.0
C409 C 0.16044 0.10865 0.81898 0.0
C410 C 0.17224 0.0848 0.81269 0.0
N411 N 0.11786 0.08422 0.82322 0.0
C412 C 0.12928 0.06077 0.81703 0.0
Co413 Co 0.20775 0.83114 0.11565 0.0
Co414 Co 0.16996 0.827 0.08116 0.0
O415 O 0.20366 0.83747 0.0928 0.0
C416 C 0.22401 0.8905 0.11239 0.0
O417 O 0.20474 0.89402 0.10167 0.0
C418 C 0.21536 0.80434 0.06059 0.0
O419 O 0.22963 0.79711 0.07312 0.0
O420 O 0.17205 0.78824 0.08935 0.0
O421 O 0.18766 0.79532 0.11394 0.0
H422 H 0.07637 0.78307 0.07524 0.0
H423 H 0.2574 0.84443 0.09671 0.0
O424 O 0.22818 0.86682 0.11847 0.0
H425 H 0.27559 0.75241 0.11952 0.0
H426 H 0.25897 0.8307 0.16744 0.0
H427 H 0.1704 0.81091 0.14088 0.0
H428 H 0.23211 0.77696 0.12535 0.0
H429 H 0.2538 0.83824 0.1388 0.0
O430 O 0.19202 0.81617 0.06208 0.0
H431 H 0.11875 0.79662 0.08947 0.0
H432 H 0.14996 0.8352 0.04809 0.0
H433 H 0.17475 0.80287 0.16952 0.0
H434 H 0.30134 0.82073 0.0907 0.0
H435 H 0.21929 0.81278 0.18299 0.0
H436 H 0.31061 0.77434 0.10211 0.0
O437 O 0.17228 0.85065 0.12008 0.0
H438 H 0.20872 0.91325 0.05663 0.0
H439 H 0.1252 0.86947 0.0787 0.0
H440 H 0.12282 0.91754 0.06915 0.0
H441 H 0.16479 0.93973 0.05797 0.0
H442 H 0.21025 0.86533 0.06654 0.0
H443 H 0.10802 0.82185 0.03339 0.0
H444 H 0.0708 0.79568 0.047 0.0
O445 O 0.14623 0.83787 0.09944 0.0
C446 C 0.17688 0.77993 0.10339 0.0
C447 C 0.09241 0.79451 0.06919 0.0
C448 C 0.11019 0.81625 0.0457 0.0
N449 N 0.13677 0.81679 0.06965 0.0
C450 C 0.11644 0.80229 0.07719 0.0
C451 C 0.13394 0.82368 0.05408 0.0
C452 C 0.08931 0.80158 0.05334 0.0
C453 C 0.26142 0.82436 0.10182 0.0
N454 N 0.24226 0.81214 0.1114 0.0
C455 C 0.28628 0.81099 0.09833 0.0
C456 C 0.29144 0.78494 0.10472 0.0
C457 C 0.2718 0.77261 0.11448 0.0
C458 C 0.24716 0.78658 0.11769 0.0
C459 C 0.23947 0.82625 0.1617 0.0
C460 C 0.1899 0.81513 0.14664 0.0
C461 C 0.2364 0.83052 0.14549 0.0
N462 N 0.21188 0.82482 0.13815 0.0
C463 C 0.19222 0.8106 0.16287 0.0
C464 C 0.2172 0.81619 0.17042 0.0
C465 C 0.14902 0.84871 0.11308 0.0
C466 C 0.19028 0.9038 0.06146 0.0
C467 C 0.1436 0.87904 0.074 0.0
C468 C 0.1421 0.90623 0.06853 0.0
C469 C 0.16564 0.91866 0.06223 0.0
N470 N 0.16784 0.86459 0.07322 0.0
C471 C 0.19099 0.87663 0.06703 0.0
Co472 Co 0.58228 0.9571 0.86521 0.0
Co473 Co 0.57892 0.91863 0.83092 0.0
O474 O 0.58879 0.95261 0.84243 0.0
C475 C 0.64141 0.97386 0.86173 0.0
O476 O 0.64493 0.95436 0.85115 0.0
C477 C 0.55489 0.96337 0.81054 0.0
O478 O 0.54694 0.97688 0.82319 0.0
O479 O 0.54017 0.92002 0.83915 0.0
O480 O 0.54665 0.93667 0.86357 0.0
H481 H 0.53681 0.82416 0.82532 0.0
H482 H 0.59522 0.00646 0.84593 0.0
O483 O 0.6178 0.9779 0.86793 0.0
H484 H 0.5029 0.02429 0.86843 0.0
H485 H 0.58113 0.00941 0.91664 0.0
H486 H 0.56221 0.92013 0.89067 0.0
H487 H 0.52784 0.98117 0.87464 0.0
H488 H 0.58889 0.00369 0.88805 0.0
O489 O 0.56759 0.94045 0.81183 0.0
H490 H 0.54968 0.86687 0.83943 0.0
H491 H 0.58721 0.89864 0.79788 0.0
H492 H 0.55397 0.92501 0.91926 0.0
H493 H 0.57113 0.05001 0.83952 0.0
H494 H 0.56344 0.96992 0.93243 0.0
H495 H 0.52459 0.0591 0.85078 0.0
O496 O 0.60202 0.92188 0.86994 0.0
H497 H 0.66428 0.95884 0.80614 0.0
H498 H 0.62221 0.87469 0.82851 0.0
H499 H 0.67028 0.87314 0.81889 0.0
H500 H 0.69161 0.91543 0.80756 0.0
H501 H 0.61639 0.95953 0.81612 0.0
H502 H 0.57454 0.85637 0.78329 0.0
H503 H 0.54925 0.81871 0.79704 0.0
O504 O 0.59037 0.89528 0.8493 0.0
C505 C 0.5316 0.92521 0.85309 0.0
C506 C 0.54789 0.8404 0.81921 0.0
C507 C 0.56903 0.85849 0.79562 0.0
N508 N 0.5693 0.88518 0.81952 0.0
C509 C 0.55528 0.86461 0.82714 0.0
C510 C 0.57608 0.88241 0.80393 0.0
C511 C 0.55485 0.83736 0.80334 0.0
C512 C 0.57509 0.01041 0.85098 0.0
N513 N 0.563 0.99136 0.86068 0.0
C514 C 0.5615 0.03504 0.84726 0.0
C515 C 0.53536 0.0401 0.85356 0.0
C516 C 0.52317 0.02057 0.86345 0.0
C517 C 0.53736 0.99615 0.86689 0.0
C518 C 0.57687 0.98975 0.91103 0.0
C519 C 0.56624 0.93978 0.8963 0.0
C520 C 0.58127 0.98637 0.89485 0.0
N521 N 0.5758 0.96165 0.88767 0.0
C522 C 0.5616 0.9424 0.9125 0.0
C523 C 0.56694 0.96759 0.91988 0.0
C524 C 0.60076 0.8985 0.86303 0.0
C525 C 0.65521 0.94026 0.81103 0.0
C526 C 0.63142 0.89323 0.82375 0.0
C527 C 0.65861 0.8922 0.81824 0.0
C528 C 0.67055 0.91592 0.81186 0.0
N529 N 0.61651 0.91718 0.82293 0.0
C530 C 0.62807 0.9405 0.81665 0.0
Co531 Co 0.79354 0.83061 0.61676 0.0
Co532 Co 0.83183 0.82811 0.58237 0.0
O533 O 0.79789 0.83761 0.59401 0.0
C534 C 0.77703 0.88984 0.61378 0.0
O535 O 0.79657 0.89357 0.60325 0.0
C536 C 0.78679 0.80479 0.56189 0.0
O537 O 0.77281 0.79733 0.57447 0.0
O538 O 0.83068 0.78922 0.59038 0.0
O539 O 0.81393 0.79502 0.61483 0.0
H540 H 0.92647 0.78661 0.57635 0.0
H541 H 0.74399 0.84407 0.59774 0.0
O542 O 0.77284 0.86607 0.61975 0.0
H543 H 0.7263 0.7512 0.61953 0.0
H544 H 0.74155 0.82841 0.66826 0.0
H545 H 0.83064 0.80994 0.64201 0.0
H546 H 0.76951 0.77594 0.6258 0.0
H547 H 0.74711 0.83678 0.63972 0.0
O548 O 0.80999 0.81695 0.56329 0.0
H549 H 0.8838 0.79901 0.59061 0.0
H550 H 0.85154 0.83702 0.54932 0.0
H551 H 0.82592 0.80109 0.67055 0.0
H552 H 0.70032 0.8202 0.5913 0.0
H553 H 0.78112 0.81034 0.68386 0.0
H554 H 0.6913 0.77338 0.60219 0.0
O555 O 0.82878 0.85024 0.62157 0.0
H556 H 0.79101 0.91368 0.55816 0.0
H557 H 0.87556 0.87164 0.58006 0.0
H558 H 0.87682 0.91986 0.57068 0.0
H559 H 0.83432 0.94118 0.55958 0.0
H560 H 0.79062 0.86563 0.5679 0.0
H561 H 0.89376 0.82482 0.53459 0.0
H562 H 0.93165 0.79952 0.54813 0.0
O563 O 0.85524 0.83936 0.60074 0.0
C564 C 0.82546 0.78028 0.60424 0.0
C565 C 0.91014 0.79769 0.57033 0.0
C566 C 0.89176 0.8191 0.54689 0.0
N567 N 0.86525 0.81885 0.57085 0.0
C568 C 0.88595 0.80482 0.57835 0.0
C569 C 0.86786 0.82589 0.55529 0.0
C570 C 0.91302 0.80492 0.55449 0.0
C571 C 0.74007 0.82382 0.60264 0.0
N572 N 0.75923 0.81146 0.61216 0.0
C573 C 0.71537 0.81035 0.5989 0.0
C574 C 0.71035 0.78406 0.605 0.0
C575 C 0.72998 0.77159 0.61471 0.0
C576 C 0.75446 0.78567 0.61818 0.0
C577 C 0.76116 0.82425 0.66259 0.0
C578 C 0.81103 0.81388 0.6477 0.0
C579 C 0.76445 0.82899 0.64644 0.0
N580 N 0.78912 0.82365 0.63918 0.0
C581 C 0.8085 0.80889 0.66387 0.0
C582 C 0.78337 0.8141 0.67134 0.0
C583 C 0.85209 0.84935 0.61456 0.0
C584 C 0.80967 0.90462 0.56295 0.0
C585 C 0.85694 0.88083 0.5754 0.0
C586 C 0.8578 0.90812 0.57002 0.0
C587 C 0.83397 0.92005 0.56377 0.0
N588 N 0.83303 0.86583 0.57457 0.0
C589 C 0.8096 0.87738 0.56843 0.0
Co590 Co 0.9287 0.0475 0.36237 0.0
Co591 Co 0.92203 0.08756 0.32861 0.0
O592 O 0.91767 0.0528 0.34028 0.0
C593 C 0.86888 0.03246 0.36378 0.0
O594 O 0.86289 0.05596 0.3568 0.0
C595 C 0.94892 0.04568 0.30752 0.0
O596 O 0.95911 0.03304 0.31994 0.0
O597 O 0.9614 0.0913 0.33557 0.0
O598 O 0.96377 0.06819 0.35864 0.0
H599 H 0.95007 0.18694 0.32202 0.0
H600 H 0.91248 0.99923 0.34289 0.0
O601 O 0.89396 0.02608 0.36659 0.0
H602 H 0.00822 0.98045 0.35982 0.0
H603 H 0.93939 0.99277 0.41259 0.0
H604 H 0.95423 0.08304 0.38687 0.0
H605 H 0.98434 0.02298 0.36831 0.0
H606 H 0.92609 0.99992 0.38478 0.0
O607 O 0.93409 0.06722 0.30915 0.0
H608 H 0.94432 0.143 0.33642 0.0
H609 H 0.90841 0.10593 0.29585 0.0
H610 H 0.96804 0.07672 0.41468 0.0
H611 H 0.93545 0.95628 0.33426 0.0
H612 H 0.96062 0.03131 0.42772 0.0
H613 H 0.98371 0.94672 0.34269 0.0
O614 O 0.9099 0.08253 0.36913 0.0
H615 H 0.83961 0.03618 0.30757 0.0
H616 H 0.87353 0.12578 0.32741 0.0
H617 H 0.82459 0.12103 0.31974 0.0
H618 H 0.80734 0.07596 0.30969 0.0
H619 H 0.88834 0.04182 0.31554 0.0
H620 H 0.91398 0.14939 0.28097 0.0
H621 H 0.93485 0.19032 0.29408 0.0
O622 O 0.90978 0.10898 0.34736 0.0
C623 C 0.97433 0.08342 0.34793 0.0
C624 C 0.94093 0.16925 0.31618 0.0
C625 C 0.9207 0.14817 0.29313 0.0
N626 N 0.92605 0.12192 0.317 0.0
C627 C 0.9376 0.14432 0.32428 0.0
C628 C 0.91771 0.12358 0.30161 0.0
C629 C 0.9324 0.17113 0.3005 0.0
C630 C 0.93341 0.99511 0.3467 0.0
N631 N 0.94708 0.01361 0.35607 0.0
C632 C 0.94634 0.9708 0.34173 0.0
C633 C 0.97343 0.96547 0.34645 0.0
C634 C 0.98721 0.9844 0.35605 0.0
C635 C 0.97363 0.00851 0.36076 0.0
C636 C 0.94275 0.01264 0.40703 0.0
C637 C 0.95109 0.06318 0.39244 0.0
C638 C 0.9352 0.01684 0.3913 0.0
N639 N 0.93954 0.04183 0.38419 0.0
C640 C 0.95888 0.05974 0.4082 0.0
C641 C 0.95468 0.03427 0.41551 0.0
C642 C 0.9051 0.10531 0.36201 0.0
C643 C 0.84688 0.05594 0.31191 0.0
C644 C 0.86615 0.10608 0.32317 0.0
C645 C 0.83844 0.10353 0.31877 0.0
C646 C 0.82878 0.07825 0.31312 0.0
N647 N 0.88378 0.08412 0.32194 0.0
C648 C 0.87447 0.05928 0.3164 0.0
Co649 Co 0.70743 0.1728 0.11424 0.0
Co650 Co 0.66842 0.17564 0.0801 0.0
O651 O 0.70263 0.16607 0.0915 0.0
C652 C 0.72413 0.1136 0.11101 0.0
O653 O 0.70459 0.10984 0.10047 0.0
C654 C 0.71286 0.19961 0.05945 0.0
O655 O 0.72686 0.20731 0.07198 0.0
O656 O 0.66956 0.21445 0.08828 0.0
O657 O 0.68699 0.20837 0.11256 0.0
H658 H 0.57352 0.21686 0.07481 0.0
H659 H 0.75655 0.15964 0.09482 0.0
O660 O 0.72824 0.13734 0.11702 0.0
H661 H 0.77471 0.2522 0.11693 0.0
H662 H 0.76039 0.17454 0.16546 0.0
H663 H 0.67079 0.19318 0.13977 0.0
H664 H 0.73165 0.22735 0.12339 0.0
H665 H 0.75431 0.16646 0.13693 0.0
O666 O 0.68987 0.1871 0.06093 0.0
H667 H 0.61652 0.20443 0.08877 0.0
H668 H 0.6481 0.16706 0.04713 0.0
H669 H 0.67604 0.20175 0.16831 0.0
H670 H 0.80005 0.18363 0.08819 0.0
H671 H 0.7211 0.19242 0.18134 0.0
H672 H 0.80931 0.23029 0.09924 0.0
O673 O 0.6723 0.15306 0.11919 0.0
H674 H 0.70915 0.09053 0.05532 0.0
H675 H 0.62481 0.13197 0.07781 0.0
H676 H 0.62359 0.08386 0.06825 0.0
H677 H 0.66598 0.06284 0.05685 0.0
H678 H 0.70952 0.13846 0.06524 0.0
H679 H 0.60555 0.1793 0.0327 0.0
H680 H 0.56784 0.20429 0.04657 0.0
O681 O 0.64542 0.16404 0.09854 0.0
C682 C 0.67514 0.22322 0.10213 0.0
C683 C 0.58978 0.20592 0.06865 0.0
C684 C 0.60777 0.18487 0.04501 0.0
N685 N 0.63475 0.18492 0.06881 0.0
C686 C 0.61415 0.19877 0.0765 0.0
C687 C 0.63186 0.17807 0.05324 0.0
C688 C 0.58661 0.19888 0.0528 0.0
C689 C 0.76056 0.17983 0.09979 0.0
N690 N 0.74163 0.19203 0.10951 0.0
C691 C 0.78517 0.19336 0.09594 0.0
C692 C 0.79033 0.21956 0.10213 0.0
C693 C 0.77092 0.23187 0.11204 0.0
C694 C 0.74652 0.21774 0.11561 0.0
C695 C 0.74067 0.17874 0.15991 0.0
C696 C 0.69051 0.1892 0.14534 0.0
C697 C 0.73708 0.17416 0.14376 0.0
N698 N 0.71227 0.17954 0.13666 0.0
C699 C 0.69334 0.19404 0.16151 0.0
C700 C 0.71862 0.18877 0.16882 0.0
C701 C 0.64887 0.15391 0.11231 0.0
C702 C 0.69054 0.09946 0.06024 0.0
C703 C 0.64339 0.12291 0.07302 0.0
C704 C 0.64254 0.09569 0.06754 0.0
C705 C 0.66632 0.08392 0.06113 0.0
N706 N 0.66722 0.13801 0.07214 0.0
C707 C 0.69059 0.12663 0.06583 0.0
Co708 Co 0.57936 0.04705 0.64554 0.0
Co709 Co 0.57623 0.08484 0.68005 0.0
O710 O 0.58592 0.051 0.66836 0.0
C711 C 0.63834 0.02975 0.64884 0.0
O712 O 0.64216 0.04913 0.65946 0.0
C713 C 0.55282 0.03966 0.70042 0.0
O714 O 0.54511 0.02595 0.68779 0.0
O715 O 0.53741 0.08356 0.6719 0.0
O716 O 0.54397 0.06789 0.64728 0.0
H717 H 0.53427 0.17926 0.68615 0.0
H718 H 0.59173 0.99709 0.66444 0.0
O719 O 0.61462 0.02592 0.64272 0.0
H720 H 0.49918 0.98087 0.6418 0.0
H721 H 0.57771 0.99579 0.59378 0.0
H722 H 0.55988 0.08478 0.62029 0.0
H723 H 0.52461 0.02386 0.63595 0.0
H724 H 0.58542 1.00084 0.62242 0.0
O725 O 0.56508 0.06282 0.69909 0.0
H726 H 0.54693 0.1367 0.67184 0.0
H727 H 0.5849 0.10444 0.71314 0.0
H728 H 0.5517 0.08058 0.59166 0.0
H729 H 0.56715 0.95364 0.67048 0.0
H730 H 0.56062 0.03582 0.57822 0.0
H731 H 0.52049 0.94536 0.65915 0.0
O732 O 0.59955 0.08211 0.64108 0.0
H733 H 0.66183 0.04428 0.70439 0.0
H734 H 0.61958 0.12874 0.68252 0.0
H735 H 0.66774 0.13015 0.692 0.0
H736 H 0.68917 0.0877 0.70309 0.0
H737 H 0.61384 0.04373 0.69454 0.0
H738 H 0.57245 0.14655 0.72792 0.0
H739 H 0.54704 0.18438 0.7144 0.0
O740 O 0.58752 0.10844 0.66175 0.0
C741 C 0.52891 0.079 0.65787 0.0
C742 C 0.54539 0.16295 0.69216 0.0
C743 C 0.56679 0.14457 0.71561 0.0
N744 N 0.56675 0.11816 0.69161 0.0
C745 C 0.55267 0.13882 0.68411 0.0
C746 C 0.57371 0.12074 0.70719 0.0
C747 C 0.55254 0.1658 0.70802 0.0
C748 C 0.57154 0.9935 0.65936 0.0
N749 N 0.55967 0.01293 0.64982 0.0
C750 C 0.55768 0.96892 0.66287 0.0
C751 C 0.53148 0.96431 0.65653 0.0
C752 C 0.5195 0.98423 0.64681 0.0
C753 C 0.53396 0.00858 0.64358 0.0
C754 C 0.57368 0.01538 0.59951 0.0
C755 C 0.56367 0.06519 0.61455 0.0
C756 C 0.57805 0.01838 0.61572 0.0
N757 N 0.57289 0.04303 0.62305 0.0
C758 C 0.55906 0.06296 0.59832 0.0
C759 C 0.56409 0.03785 0.59079 0.0
C760 C 0.59817 0.1054 0.64808 0.0
C761 C 0.65272 0.06292 0.69961 0.0
C762 C 0.62882 0.11014 0.68717 0.0
C763 C 0.65607 0.11109 0.69261 0.0
C764 C 0.66806 0.08728 0.69885 0.0
N765 N 0.6139 0.08617 0.68794 0.0
C766 C 0.62551 0.06276 0.69407 0.0
Co767 Co 0.70808 0.8351 0.39778 0.0
Co768 Co 0.66675 0.83164 0.43071 0.0
O769 O 0.7016 0.84146 0.42031 0.0
C770 C 0.72399 0.89529 0.39745 0.0
O771 O 0.69836 0.90249 0.40048 0.0
C772 C 0.70927 0.80703 0.45215 0.0
O773 O 0.72276 0.79785 0.43977 0.0
O774 O 0.66923 0.79291 0.4226 0.0
O775 O 0.68635 0.8 0.39834 0.0
H776 H 0.57216 0.78898 0.43359 0.0
H777 H 0.7558 0.84573 0.41891 0.0
O778 O 0.73073 0.86986 0.3966 0.0
H779 H 0.77295 0.75371 0.39584 0.0
H780 H 0.76576 0.83419 0.34829 0.0
H781 H 0.67341 0.81675 0.37084 0.0
H782 H 0.73135 0.78025 0.38854 0.0
H783 H 0.75715 0.84122 0.3767 0.0
O784 O 0.687 0.8207 0.4504 0.0
H785 H 0.61598 0.80208 0.42073 0.0
H786 H 0.64381 0.83992 0.4631 0.0
H787 H 0.68118 0.80926 0.34239 0.0
H788 H 0.79784 0.82001 0.42641 0.0
H789 H 0.72765 0.81799 0.33094 0.0
H790 H 0.80658 0.77361 0.41487 0.0
O791 O 0.67368 0.85566 0.39209 0.0
H792 H 0.7045 0.91808 0.45553 0.0
H793 H 0.62214 0.87437 0.43202 0.0
H794 H 0.61947 0.92266 0.4412 0.0
H795 H 0.66087 0.94482 0.4531 0.0
H796 H 0.70629 0.8699 0.44604 0.0
H797 H 0.60039 0.82702 0.47646 0.0
H798 H 0.56414 0.80146 0.46166 0.0
O799 O 0.6451 0.84279 0.41161 0.0
C800 C 0.67469 0.78467 0.40863 0.0
C801 C 0.58776 0.80018 0.44015 0.0
C802 C 0.60362 0.82149 0.46422 0.0
N803 N 0.63238 0.82188 0.44112 0.0
C804 C 0.61259 0.8077 0.43292 0.0
C805 C 0.62821 0.82867 0.4566 0.0
C806 C 0.58329 0.80716 0.45591 0.0
C807 C 0.7596 0.82566 0.41373 0.0
N808 N 0.74118 0.81456 0.40326 0.0
C809 C 0.78338 0.81115 0.41807 0.0
C810 C 0.78825 0.7851 0.41161 0.0
C811 C 0.76937 0.77391 0.40094 0.0
C812 C 0.7458 0.789 0.39689 0.0
C813 C 0.74544 0.83026 0.35315 0.0
C814 C 0.69372 0.82045 0.36597 0.0
C815 C 0.74042 0.83426 0.36922 0.0
N816 N 0.71484 0.8292 0.37545 0.0
C817 C 0.69798 0.81624 0.34984 0.0
C818 C 0.72405 0.82116 0.34342 0.0
C819 C 0.64961 0.85389 0.39818 0.0
C820 C 0.68632 0.90865 0.45038 0.0
C821 C 0.64027 0.88391 0.43707 0.0
C822 C 0.63862 0.91124 0.44231 0.0
C823 C 0.66184 0.92365 0.449 0.0
N824 N 0.66434 0.86932 0.43847 0.0
C825 C 0.68719 0.88135 0.44502 0.0
Co826 Co 0.92205 0.95713 0.14381 0.0
Co827 Co 0.9242 0.91966 0.17851 0.0
O828 O 0.91495 0.95336 0.16658 0.0
C829 C 0.86292 0.97413 0.14661 0.0
O830 O 0.85904 0.95486 0.15729 0.0
C831 C 0.9481 0.96496 0.19855 0.0
O832 O 0.95586 0.97834 0.18582 0.0
O833 O 0.96311 0.92037 0.17053 0.0
O834 O 0.95752 0.93655 0.14593 0.0
H835 H 0.96507 0.82493 0.18536 0.0
H836 H 0.90886 0.00719 0.16244 0.0
O837 O 0.88672 0.978 0.14062 0.0
H838 H 1.00192 0.02377 0.14063 0.0
H839 H 0.92474 0.00795 0.09192 0.0
H840 H 0.94246 0.91931 0.11885 0.0
H841 H 0.97691 0.98058 0.13466 0.0
H842 H 0.91629 0.00309 0.1205 0.0
O843 O 0.93551 0.94194 0.19741 0.0
H844 H 0.95295 0.8673 0.17072 0.0
H845 H 0.91514 0.90088 0.21172 0.0
H846 H 0.95138 0.92333 0.09028 0.0
H847 H 0.93301 0.05083 0.16858 0.0
H848 H 0.94252 0.96791 0.07663 0.0
H849 H 0.97993 0.05929 0.15768 0.0
O850 O 0.90222 0.92189 0.13925 0.0
H851 H 0.83888 0.96165 0.20233 0.0
H852 H 0.88036 0.8763 0.18114 0.0
H853 H 0.83211 0.87561 0.1905 0.0
H854 H 0.81108 0.91851 0.20124 0.0
H855 H 0.88695 0.96148 0.19262 0.0
H856 H 0.92706 0.85896 0.22682 0.0
H857 H 0.95212 0.82056 0.21362 0.0
O858 O 0.91279 0.89586 0.16032 0.0
C859 C 0.97213 0.92519 0.15664 0.0
C860 C 0.95409 0.84149 0.19123 0.0
C861 C 0.93279 0.8606 0.21451 0.0
N862 N 0.93322 0.88649 0.19032 0.0
C863 C 0.94711 0.86551 0.183 0.0
C864 C 0.92616 0.88432 0.2059 0.0
C865 C 0.94684 0.83906 0.20709 0.0
C866 C 0.92916 0.01086 0.15753 0.0
N867 N 0.94141 0.99142 0.14816 0.0
C868 C 0.94278 0.03555 0.1611 0.0
C869 C 0.96912 0.04026 0.15501 0.0
C870 C 0.98149 0.02033 0.14545 0.0
C871 C 0.96726 0.99587 0.14215 0.0
C872 C 0.92874 0.98844 0.09774 0.0
C873 C 0.9387 0.93882 0.11301 0.0
C874 C 0.92396 0.98554 0.11392 0.0
N875 N 0.9291 0.961 0.12136 0.0
C876 C 0.94372 0.94095 0.09683 0.0
C877 C 0.93872 0.96596 0.08917 0.0
C878 C 0.90291 0.89875 0.14644 0.0
C879 C 0.84782 0.94282 0.1977 0.0
C880 C 0.87129 0.89509 0.18564 0.0
C881 C 0.844 0.89455 0.19101 0.0
C882 C 0.83222 0.91862 0.19706 0.0
N883 N 0.88646 0.91891 0.18629 0.0
C884 C 0.87507 0.94257 0.19224 0.0
Co885 Co 0.79732 0.17183 0.89481 0.0
Co886 Co 0.83532 0.17469 0.92927 0.0
O887 O 0.80144 0.16508 0.91761 0.0
C888 C 0.7804 0.11275 0.89802 0.0
O889 O 0.79996 0.10908 0.90856 0.0
C890 C 0.79053 0.19845 0.94976 0.0
O891 O 0.77679 0.20641 0.93718 0.0
O892 O 0.83401 0.21354 0.92124 0.0
O893 O 0.81795 0.20735 0.89666 0.0
H894 H 0.92977 0.21666 0.93537 0.0
H895 H 0.74759 0.15899 0.91381 0.0
O896 O 0.77636 0.13644 0.89192 0.0
H897 H 0.73063 0.25161 0.89149 0.0
H898 H 0.74569 0.1737 0.84316 0.0
H899 H 0.83474 0.1919 0.86957 0.0
H900 H 0.77371 0.2265 0.88544 0.0
H901 H 0.751 0.16567 0.87175 0.0
O902 O 0.81344 0.18577 0.94835 0.0
H903 H 0.88715 0.20407 0.92108 0.0
H904 H 0.85509 0.16577 0.96232 0.0
H905 H 0.83027 0.20041 0.84098 0.0
H906 H 0.70407 0.18326 0.92005 0.0
H907 H 0.78548 0.19129 0.82759 0.0
H908 H 0.69542 0.22995 0.90888 0.0
O909 O 0.83249 0.15192 0.89019 0.0
H910 H 0.79477 0.08901 0.95351 0.0
H911 H 0.87917 0.13127 0.93158 0.0
H912 H 0.88055 0.08305 0.94095 0.0
H913 H 0.83813 0.06162 0.95207 0.0
H914 H 0.79425 0.13707 0.94378 0.0
H915 H 0.89726 0.17815 0.97708 0.0
H916 H 0.93502 0.20369 0.96358 0.0
O917 O 0.85881 0.16354 0.91094 0.0
C918 C 0.82918 0.22226 0.90728 0.0
C919 C 0.91348 0.20548 0.94137 0.0
C920 C 0.89522 0.18389 0.96479 0.0
N921 N 0.8687 0.18408 0.94082 0.0
C922 C 0.88933 0.19824 0.93333 0.0
C923 C 0.87136 0.17701 0.95638 0.0
C924 C 0.91641 0.19821 0.9572 0.0
C925 C 0.74384 0.17919 0.9088 0.0
N926 N 0.76311 0.19126 0.89924 0.0
C927 C 0.71922 0.19288 0.91242 0.0
C928 C 0.7144 0.2191 0.90617 0.0
C929 C 0.73416 0.23127 0.89643 0.0
C930 C 0.75856 0.21699 0.89308 0.0
C931 C 0.76529 0.1778 0.84887 0.0
C932 C 0.81514 0.18803 0.86385 0.0
C933 C 0.76844 0.17325 0.86505 0.0
N934 N 0.7931 0.17852 0.87235 0.0
C935 C 0.81275 0.19282 0.84765 0.0
C936 C 0.78763 0.18768 0.84014 0.0
C937 C 0.85578 0.15319 0.8972 0.0
C938 C 0.8134 0.09813 0.94871 0.0
C939 C 0.86059 0.12204 0.93625 0.0
C940 C 0.86152 0.09475 0.94162 0.0
C941 C 0.83772 0.08276 0.94787 0.0
N942 N 0.83665 0.13697 0.93708 0.0
C943 C 0.81326 0.12536 0.94324 0.0
Co944 Co 0.9227 0.54546 0.64526 0.0
Co945 Co 0.92624 0.58459 0.6793 0.0
O946 O 0.91635 0.55035 0.66804 0.0
C947 C 0.86359 0.52876 0.64886 0.0
O948 O 0.86004 0.54844 0.65933 0.0
C949 C 0.95026 0.54029 0.70005 0.0
O950 O 0.95794 0.52621 0.68756 0.0
O951 O 0.96495 0.58309 0.67101 0.0
O952 O 0.95829 0.56599 0.64671 0.0
H953 H 0.96823 0.67923 0.68418 0.0
H954 H 0.90998 0.49642 0.66485 0.0
O955 O 0.88722 0.52457 0.64273 0.0
H956 H 0.00218 0.47835 0.64225 0.0
H957 H 0.92365 0.49227 0.59413 0.0
H958 H 0.94253 0.58203 0.61955 0.0
H959 H 0.97713 0.52132 0.63586 0.0
H960 H 0.91605 0.49847 0.6227 0.0
O961 O 0.93771 0.56325 0.69852 0.0
H962 H 0.95537 0.6362 0.6704 0.0
H963 H 0.91804 0.60529 0.71222 0.0
H964 H 0.95061 0.57666 0.59098 0.0
H965 H 0.93417 0.45301 0.67143 0.0
H966 H 0.94115 0.53151 0.57808 0.0
H967 H 0.98065 0.4438 0.66014 0.0
O968 O 0.90283 0.58054 0.64038 0.0
H969 H 0.84107 0.54469 0.70447 0.0
H970 H 0.88287 0.6285 0.68154 0.0
H971 H 0.83486 0.63013 0.69122 0.0
H972 H 0.81366 0.58801 0.70284 0.0
H973 H 0.88892 0.5439 0.69441 0.0
H974 H 0.9307 0.64789 0.72648 0.0
H975 H 0.95589 0.68528 0.71243 0.0
O976 O 0.91465 0.60752 0.66082 0.0
C977 C 0.97341 0.57764 0.65708 0.0
C978 C 0.9572 0.66311 0.69043 0.0
C979 C 0.93618 0.64551 0.71417 0.0
N980 N 0.93586 0.61829 0.69046 0.0
C981 C 0.94982 0.63872 0.68267 0.0
C982 C 0.92913 0.62139 0.70604 0.0
C983 C 0.95029 0.66648 0.70628 0.0
C984 C 0.93009 0.49242 0.65978 0.0
N985 N 0.94208 0.51133 0.64995 0.0
C986 C 0.94373 0.46787 0.6636 0.0
C987 C 0.96983 0.46274 0.65727 0.0
C988 C 0.98193 0.48212 0.64725 0.0
C989 C 0.96769 0.50646 0.64371 0.0
C990 C 0.9279 0.51202 0.59962 0.0
C991 C 0.9385 0.56228 0.61405 0.0
C992 C 0.92359 0.51568 0.61579 0.0
N993 N 0.92904 0.54054 0.62282 0.0
C994 C 0.94306 0.55938 0.59785 0.0
C995 C 0.93773 0.53405 0.59062 0.0
C996 C 0.90409 0.60404 0.64716 0.0
C997 C 0.85009 0.56319 0.69945 0.0
C998 C 0.87373 0.61004 0.68642 0.0
C999 C 0.84657 0.61111 0.69197 0.0
C1000 C 0.8347 0.58749 0.69851 0.0
N1001 N 0.88869 0.58612 0.68736 0.0
C1002 C 0.87721 0.5629 0.69379 0.0
Co1003 Co 0.70915 0.67107 0.89494 0.0
Co1004 Co 0.66993 0.67392 0.92898 0.0
O1005 O 0.70426 0.66443 0.9177 0.0
C1006 C 0.72624 0.61203 0.89837 0.0
O1007 O 0.70653 0.60825 0.90879 0.0
C1008 C 0.71423 0.69767 0.9499 0.0
O1009 O 0.72852 0.70527 0.93746 0.0
O1010 O 0.67116 0.71274 0.92081 0.0
O1011 O 0.68837 0.7065 0.8965 0.0
H1012 H 0.57496 0.71511 0.93392 0.0
H1013 H 0.75831 0.65844 0.91448 0.0
O1014 O 0.73029 0.63575 0.89231 0.0
H1015 H 0.7757 0.75107 0.89226 0.0
H1016 H 0.76243 0.67293 0.84386 0.0
H1017 H 0.67248 0.69087 0.86927 0.0
H1018 H 0.73289 0.7258 0.88578 0.0
H1019 H 0.75624 0.66502 0.8724 0.0
O1020 O 0.69116 0.68535 0.94826 0.0
H1021 H 0.61811 0.70272 0.92012 0.0
H1022 H 0.64925 0.66526 0.96186 0.0
H1023 H 0.67783 0.69925 0.84072 0.0
H1024 H 0.80157 0.68286 0.92114 0.0
H1025 H 0.72307 0.69027 0.82783 0.0
H1026 H 0.81043 0.72956 0.91003 0.0
O1027 O 0.67421 0.65103 0.88996 0.0
H1028 H 0.71046 0.5888 0.95386 0.0
H1029 H 0.62631 0.63023 0.93111 0.0
H1030 H 0.62501 0.58211 0.94065 0.0
H1031 H 0.6673 0.5611 0.95218 0.0
H1032 H 0.71091 0.63673 0.94394 0.0
H1033 H 0.60654 0.67745 0.97613 0.0
H1034 H 0.56898 0.70247 0.96213 0.0
O1035 O 0.64708 0.66233 0.91043 0.0
C1036 C 0.67657 0.7214 0.90691 0.0
C1037 C 0.59116 0.70416 0.94014 0.0
C1038 C 0.6089 0.68306 0.96384 0.0
N1039 N 0.63614 0.68317 0.94014 0.0
C1040 C 0.61562 0.69703 0.93238 0.0
C1041 C 0.63307 0.67628 0.9557 0.0
C1042 C 0.58782 0.69708 0.95597 0.0
C1043 C 0.76216 0.67864 0.90949 0.0
N1044 N 0.74315 0.69063 0.89972 0.0
C1045 C 0.78663 0.69242 0.91335 0.0
C1046 C 0.79157 0.71864 0.90713 0.0
C1047 C 0.77208 0.73073 0.89717 0.0
C1048 C 0.74782 0.71636 0.89359 0.0
C1049 C 0.74263 0.67698 0.84935 0.0
C1050 C 0.69228 0.68706 0.86376 0.0
C1051 C 0.73898 0.67249 0.8655 0.0
N1052 N 0.71407 0.67769 0.87252 0.0
C1053 C 0.69516 0.69178 0.84758 0.0
C1054 C 0.72054 0.68671 0.84036 0.0
C1055 C 0.65069 0.65203 0.89672 0.0
C1056 C 0.69188 0.59773 0.94888 0.0
C1057 C 0.64485 0.62117 0.93595 0.0
C1058 C 0.64396 0.59395 0.94142 0.0
C1059 C 0.66768 0.58218 0.94791 0.0
N1060 N 0.66867 0.63628 0.93691 0.0
C1061 C 0.69198 0.6249 0.9433 0.0
Co1062 Co 0.58089 0.45774 0.14655 0.0
Co1063 Co 0.57968 0.4176 0.18037 0.0
O1064 O 0.58903 0.45194 0.16907 0.0
C1065 C 0.64074 0.47268 0.14886 0.0
O1066 O 0.64442 0.45288 0.15924 0.0
C1067 C 0.5565 0.46158 0.20151 0.0
O1068 O 0.54788 0.47536 0.1891 0.0
O1069 O 0.5405 0.41912 0.17282 0.0
O1070 O 0.54474 0.43847 0.14888 0.0
H1071 H 0.53801 0.32289 0.18564 0.0
H1072 H 0.59705 0.50545 0.16639 0.0
O1073 O 0.61686 0.47748 0.14319 0.0
H1074 H 0.50398 0.528 0.1464 0.0
H1075 H 0.57744 0.51247 0.09599 0.0
H1076 H 0.55718 0.42281 0.12118 0.0
H1077 H 0.52682 0.48443 0.1388 0.0
H1078 H 0.5874 0.50511 0.12423 0.0
O1079 O 0.56929 0.43879 0.19983 0.0
H1080 H 0.55012 0.36606 0.17179 0.0
H1081 H 0.58964 0.39657 0.21305 0.0
H1082 H 0.54669 0.42936 0.09293 0.0
H1083 H 0.5751 0.54944 0.17417 0.0
H1084 H 0.55683 0.47446 0.08016 0.0
H1085 H 0.52818 0.5609 0.16419 0.0
O1086 O 0.59907 0.42213 0.14073 0.0
H1087 H 0.66624 0.45707 0.20421 0.0
H1088 H 0.62314 0.37368 0.18153 0.0
H1089 H 0.67169 0.37188 0.19033 0.0
H1090 H 0.69355 0.41378 0.20181 0.0
H1091 H 0.61784 0.45803 0.19504 0.0
H1092 H 0.57776 0.35382 0.22739 0.0
H1093 H 0.55184 0.31656 0.21365 0.0
O1094 O 0.59017 0.39499 0.16159 0.0
C1095 C 0.53065 0.42597 0.1594 0.0
C1096 C 0.54936 0.33895 0.19175 0.0
C1097 C 0.57163 0.35632 0.21518 0.0
N1098 N 0.57068 0.38377 0.19157 0.0
C1099 C 0.55633 0.36342 0.18395 0.0
C1100 C 0.57824 0.38052 0.20701 0.0
C1101 C 0.55711 0.33542 0.20747 0.0
C1102 C 0.57673 0.51042 0.1619 0.0
N1103 N 0.56325 0.49241 0.15214 0.0
C1104 C 0.56436 0.5353 0.16639 0.0
C1105 C 0.53802 0.5417 0.1608 0.0
C1106 C 0.52442 0.52324 0.15083 0.0
C1107 C 0.53741 0.49853 0.14662 0.0
C1108 C 0.57289 0.49274 0.10143 0.0
C1109 C 0.56152 0.44255 0.11573 0.0
C1110 C 0.57853 0.48843 0.11741 0.0
N1111 N 0.57271 0.46361 0.12438 0.0
C1112 C 0.5556 0.44611 0.09972 0.0
C1113 C 0.56132 0.47141 0.09255 0.0
C1114 C 0.59888 0.39861 0.14753 0.0
C1115 C 0.65694 0.43866 0.19925 0.0
C1116 C 0.63256 0.39205 0.18637 0.0
C1117 C 0.66003 0.39088 0.19141 0.0
C1118 C 0.67226 0.41438 0.19788 0.0
N1119 N 0.61767 0.41595 0.18773 0.0
C1120 C 0.62951 0.43905 0.19409 0.0
Co1121 Co 0.79688 0.32977 0.39603 0.0
Co1122 Co 0.83636 0.32761 0.43009 0.0
O1123 O 0.80223 0.33728 0.41866 0.0
C1124 C 0.78145 0.38952 0.39875 0.0
O1125 O 0.80081 0.39313 0.40941 0.0
C1126 C 0.79193 0.30381 0.45068 0.0
O1127 O 0.7785 0.29551 0.43807 0.0
O1128 O 0.83503 0.28862 0.42218 0.0
O1129 O 0.81619 0.29364 0.39816 0.0
H1130 H 0.93105 0.28598 0.43561 0.0
H1131 H 0.74875 0.3452 0.4157 0.0
O1132 O 0.77708 0.36575 0.39284 0.0
H1133 H 0.72683 0.25267 0.39471 0.0
H1134 H 0.7432 0.32754 0.34506 0.0
H1135 H 0.83241 0.30692 0.3707 0.0
H1136 H 0.77048 0.27586 0.3876 0.0
H1137 H 0.74994 0.33673 0.37344 0.0
O1138 O 0.81477 0.31665 0.44932 0.0
H1139 H 0.88812 0.2984 0.42158 0.0
H1140 H 0.85671 0.33661 0.46301 0.0
H1141 H 0.82648 0.29719 0.34232 0.0
H1142 H 0.70468 0.32289 0.423 0.0
H1143 H 0.78161 0.30752 0.32932 0.0
H1144 H 0.69354 0.27624 0.41251 0.0
O1145 O 0.83255 0.34824 0.39063 0.0
H1146 H 0.79639 0.41343 0.45448 0.0
H1147 H 0.88023 0.37106 0.43194 0.0
H1148 H 0.88185 0.41934 0.44121 0.0
H1149 H 0.83972 0.44083 0.45262 0.0
H1150 H 0.79562 0.36531 0.44485 0.0
H1151 H 0.8992 0.32441 0.47751 0.0
H1152 H 0.93679 0.299 0.46379 0.0
O1153 O 0.85935 0.33868 0.41155 0.0
C1154 C 0.82846 0.2792 0.40862 0.0
C1155 C 0.91484 0.29711 0.44171 0.0
C1156 C 0.89695 0.31864 0.46524 0.0
N1157 N 0.86997 0.31833 0.44143 0.0
C1158 C 0.89051 0.30425 0.43382 0.0
C1159 C 0.8729 0.32543 0.45697 0.0
C1160 C 0.91804 0.3044 0.45752 0.0
C1161 C 0.74392 0.32501 0.41099 0.0
N1162 N 0.76215 0.31187 0.40122 0.0
C1163 C 0.71899 0.31243 0.41521 0.0
C1164 C 0.71277 0.28624 0.40934 0.0
C1165 C 0.73146 0.27299 0.39936 0.0
C1166 C 0.7562 0.28618 0.39542 0.0
C1167 C 0.76283 0.32291 0.3506 0.0
C1168 C 0.81277 0.31134 0.36514 0.0
C1169 C 0.76679 0.32812 0.36666 0.0
N1170 N 0.7915 0.3222 0.37375 0.0
C1171 C 0.80956 0.30585 0.34906 0.0
C1172 C 0.78439 0.31167 0.34177 0.0
C1173 C 0.85596 0.34786 0.39757 0.0
C1174 C 0.8149 0.40429 0.44955 0.0
C1175 C 0.86177 0.38032 0.43674 0.0
C1176 C 0.86283 0.40764 0.44205 0.0
C1177 C 0.8392 0.41967 0.44848 0.0
N1178 N 0.83785 0.36538 0.43781 0.0
C1179 C 0.81462 0.37702 0.44413 0.0
Co1180 Co 0.92442 0.45673 0.86506 0.0
Co1181 Co 0.92785 0.41872 0.83064 0.0
O1182 O 0.91794 0.4526 0.84223 0.0
C1183 C 0.86534 0.47366 0.86166 0.0
O1184 O 0.86173 0.4542 0.85107 0.0
C1185 C 0.9511 0.46373 0.81005 0.0
O1186 O 0.95862 0.47784 0.82257 0.0
O1187 O 0.96665 0.42034 0.83878 0.0
O1188 O 0.95999 0.43615 0.86336 0.0
H1189 H 0.97049 0.32455 0.82481 0.0
H1190 H 0.91176 0.50647 0.84603 0.0
O1191 O 0.889 0.47765 0.86783 0.0
H1192 H 0.00411 0.52352 0.86873 0.0
H1193 H 0.92569 0.50828 0.91673 0.0
H1194 H 0.94421 0.41929 0.89037 0.0
H1195 H 0.97898 0.48039 0.87465 0.0
H1196 H 0.918 0.50302 0.88811 0.0
O1197 O 0.9389 0.44057 0.81154 0.0
H1198 H 0.95754 0.36714 0.83899 0.0
H1199 H 0.91925 0.39873 0.79761 0.0
H1200 H 0.95238 0.42372 0.91899 0.0
H1201 H 0.93604 0.55005 0.83992 0.0
H1202 H 0.9431 0.46847 0.93236 0.0
H1203 H 0.9826 0.55875 0.85128 0.0
O1204 O 0.90446 0.42155 0.86959 0.0
H1205 H 0.84206 0.45857 0.80614 0.0
H1206 H 0.88474 0.37455 0.82829 0.0
H1207 H 0.83659 0.37279 0.8188 0.0
H1208 H 0.81495 0.41502 0.80758 0.0
H1209 H 0.89004 0.45947 0.816 0.0
H1210 H 0.932 0.35658 0.78295 0.0
H1211 H 0.95771 0.31907 0.79658 0.0
O1212 O 0.91671 0.39521 0.84898 0.0
C1213 C 0.97514 0.4251 0.85278 0.0
C1214 C 0.95923 0.34072 0.81875 0.0
C1215 C 0.93766 0.35871 0.79525 0.0
N1216 N 0.93754 0.38536 0.81917 0.0
C1217 C 0.95179 0.36487 0.82673 0.0
C1218 C 0.93057 0.38257 0.80361 0.0
C1219 C 0.95208 0.33767 0.80291 0.0
C1220 C 0.9319 0.51024 0.85112 0.0
N1221 N 0.94389 0.49096 0.86072 0.0
C1222 C 0.9456 0.5349 0.84758 0.0
C1223 C 0.97174 0.53974 0.85393 0.0
C1224 C 0.98383 0.51997 0.86371 0.0
C1225 C 0.96954 0.49554 0.86698 0.0
C1226 C 0.92986 0.48869 0.91103 0.0
C1227 C 0.94027 0.43888 0.89608 0.0
C1228 C 0.9255 0.48557 0.89483 0.0
N1229 N 0.93086 0.46092 0.88754 0.0
C1230 C 0.94487 0.44124 0.9123 0.0
C1231 C 0.93964 0.46635 0.9198 0.0
C1232 C 0.90602 0.39823 0.86263 0.0
C1233 C 0.85127 0.44002 0.81099 0.0
C1234 C 0.87541 0.39306 0.82358 0.0
C1235 C 0.84817 0.39191 0.81814 0.0
C1236 C 0.83605 0.41559 0.81182 0.0
N1237 N 0.89019 0.4171 0.82274 0.0
C1238 C 0.87847 0.44038 0.81653 0.0
Co1239 Co 0.79625 0.67004 0.11508 0.0
Co1240 Co 0.835 0.67357 0.08091 0.0
O1241 O 0.80092 0.66354 0.09229 0.0
C1242 C 0.77947 0.61087 0.11156 0.0
O1243 O 0.79889 0.60732 0.10094 0.0
C1244 C 0.7903 0.6969 0.06012 0.0
O1245 O 0.77609 0.70444 0.07259 0.0
O1246 O 0.83324 0.71235 0.08909 0.0
O1247 O 0.81665 0.70571 0.1135 0.0
H1248 H 0.92925 0.71632 0.07569 0.0
H1249 H 0.74702 0.65702 0.09569 0.0
O1250 O 0.77547 0.63449 0.11776 0.0
H1251 H 0.72891 0.74931 0.11816 0.0
H1252 H 0.74359 0.67115 0.16638 0.0
H1253 H 0.83303 0.69014 0.14063 0.0
H1254 H 0.77204 0.72445 0.12445 0.0
H1255 H 0.74951 0.66339 0.13781 0.0
O1256 O 0.81344 0.68469 0.06169 0.0
H1257 H 0.88643 0.70323 0.08961 0.0
H1258 H 0.85555 0.6652 0.04798 0.0
H1259 H 0.82794 0.69839 0.16921 0.0
H1260 H 0.70344 0.68102 0.08921 0.0
H1261 H 0.78295 0.68888 0.18227 0.0
H1262 H 0.69422 0.72755 0.10045 0.0
O1263 O 0.83145 0.65032 0.11988 0.0
H1264 H 0.79567 0.58789 0.05602 0.0
H1265 H 0.87924 0.63054 0.07875 0.0
H1266 H 0.88123 0.58246 0.06918 0.0
H1267 H 0.83923 0.56084 0.05766 0.0
H1268 H 0.79454 0.6358 0.06597 0.0
H1269 H 0.89793 0.67809 0.03358 0.0
H1270 H 0.93521 0.70374 0.04747 0.0
O1271 O 0.85819 0.66236 0.09939 0.0
C1272 C 0.82801 0.72085 0.10304 0.0
C1273 C 0.91319 0.70509 0.06952 0.0
C1274 C 0.89559 0.68367 0.04589 0.0
N1275 N 0.86855 0.68336 0.06965 0.0
C1276 C 0.88891 0.69757 0.07735 0.0
C1277 C 0.8716 0.6765 0.05409 0.0
C1278 C 0.9165 0.69805 0.05368 0.0
C1279 C 0.74301 0.67715 0.10073 0.0
N1280 N 0.76199 0.68927 0.11047 0.0
C1281 C 0.71837 0.69069 0.09698 0.0
C1282 C 0.71322 0.71681 0.10327 0.0
C1283 C 0.73269 0.72904 0.11319 0.0
C1284 C 0.75712 0.7149 0.11667 0.0
C1285 C 0.76327 0.67543 0.16082 0.0
C1286 C 0.81334 0.68609 0.14621 0.0
C1287 C 0.76677 0.67103 0.14464 0.0
N1288 N 0.79154 0.67651 0.13753 0.0
C1289 C 0.8106 0.69074 0.1624 0.0
C1290 C 0.78537 0.68538 0.16972 0.0
C1291 C 0.8549 0.65181 0.11307 0.0
C1292 C 0.81412 0.59709 0.061 0.0
C1293 C 0.86083 0.62121 0.07392 0.0
C1294 C 0.86211 0.59401 0.06843 0.0
C1295 C 0.83855 0.58191 0.06194 0.0
N1296 N 0.83679 0.63596 0.07297 0.0
C1297 C 0.81363 0.62425 0.06659 0.0
Co1298 Co 0.58498 0.54825 0.36614 0.0
Co1299 Co 0.58199 0.5852 0.33133 0.0
O1300 O 0.5917 0.55165 0.34329 0.0
C1301 C 0.64396 0.53043 0.36301 0.0
O1302 O 0.64786 0.54919 0.35205 0.0
C1303 C 0.55855 0.53973 0.31115 0.0
O1304 O 0.55089 0.52604 0.32379 0.0
O1305 O 0.54313 0.58395 0.33935 0.0
O1306 O 0.54952 0.56893 0.36412 0.0
H1307 H 0.53972 0.67931 0.32444 0.0
H1308 H 0.59756 0.49788 0.34764 0.0
O1309 O 0.62027 0.52721 0.36926 0.0
H1310 H 0.50493 0.48197 0.37019 0.0
H1311 H 0.58295 0.49828 0.41831 0.0
H1312 H 0.56514 0.58655 0.39101 0.0
H1313 H 0.53023 0.52513 0.37579 0.0
H1314 H 0.59094 0.50263 0.38967 0.0
O1315 O 0.57096 0.56281 0.31243 0.0
H1316 H 0.55244 0.63713 0.33908 0.0
H1317 H 0.59086 0.60413 0.29812 0.0
H1318 H 0.55668 0.58303 0.41964 0.0
H1319 H 0.57311 0.45425 0.34187 0.0
H1320 H 0.56559 0.53864 0.43348 0.0
H1321 H 0.52641 0.44613 0.35315 0.0
O1322 O 0.60504 0.5835 0.37039 0.0
H1323 H 0.66773 0.54435 0.30736 0.0
H1324 H 0.62529 0.62913 0.32868 0.0
H1325 H 0.67347 0.63045 0.31925 0.0
H1326 H 0.69499 0.58784 0.30844 0.0
H1327 H 0.61971 0.54389 0.31715 0.0
H1328 H 0.57835 0.64586 0.28301 0.0
H1329 H 0.55268 0.68387 0.29619 0.0
O1330 O 0.59306 0.60922 0.34946 0.0
C1331 C 0.5345 0.57965 0.35338 0.0
C1332 C 0.55096 0.66292 0.31857 0.0
C1333 C 0.5726 0.64413 0.29531 0.0
N1334 N 0.5725 0.61823 0.3195 0.0
C1335 C 0.55827 0.639 0.32681 0.0
C1336 C 0.57957 0.62051 0.30393 0.0
C1337 C 0.55821 0.66545 0.30272 0.0
C1338 C 0.57736 0.49436 0.3527 0.0
N1339 N 0.56539 0.51398 0.36207 0.0
C1340 C 0.56356 0.46968 0.34934 0.0
C1341 C 0.53734 0.46515 0.35566 0.0
C1342 C 0.52527 0.48527 0.36521 0.0
C1343 C 0.53966 0.50971 0.36829 0.0
C1344 C 0.57893 0.51772 0.41241 0.0
C1345 C 0.56893 0.56712 0.39693 0.0
C1346 C 0.58346 0.52033 0.39619 0.0
N1347 N 0.57831 0.54477 0.38864 0.0
C1348 C 0.56416 0.56527 0.41315 0.0
C1349 C 0.56919 0.54037 0.42091 0.0
C1350 C 0.60357 0.60661 0.36319 0.0
C1351 C 0.65858 0.56306 0.31203 0.0
C1352 C 0.63457 0.61046 0.32415 0.0
C1353 C 0.66183 0.61135 0.31874 0.0
C1354 C 0.67388 0.58745 0.31266 0.0
N1355 N 0.6197 0.58645 0.32352 0.0
C1356 C 0.63136 0.56295 0.31753 0.0
Co1357 Co 0.70813 0.33092 0.61534 0.0
Co1358 Co 0.67034 0.32806 0.58078 0.0
O1359 O 0.70417 0.33755 0.59253 0.0
C1360 C 0.72501 0.38997 0.61213 0.0
O1361 O 0.70544 0.39361 0.6016 0.0
C1362 C 0.71537 0.30395 0.56064 0.0
O1363 O 0.72882 0.29614 0.57334 0.0
O1364 O 0.67121 0.28928 0.58898 0.0
O1365 O 0.68743 0.29546 0.61353 0.0
H1366 H 0.57561 0.28684 0.57449 0.0
H1367 H 0.75803 0.34358 0.59646 0.0
O1368 O 0.72912 0.36628 0.61821 0.0
H1369 H 0.7746 0.25098 0.61891 0.0
H1370 H 0.75943 0.32923 0.6671 0.0
H1371 H 0.67049 0.31112 0.64055 0.0
H1372 H 0.73154 0.27623 0.62484 0.0
H1373 H 0.75433 0.33709 0.63848 0.0
O1374 O 0.6924 0.31659 0.56184 0.0
H1375 H 0.61815 0.29926 0.5889 0.0
H1376 H 0.65108 0.33668 0.54762 0.0
H1377 H 0.67476 0.3028 0.66917 0.0
H1378 H 0.80154 0.31918 0.59035 0.0
H1379 H 0.71949 0.31186 0.68263 0.0
H1380 H 0.80999 0.2725 0.60158 0.0
O1381 O 0.67299 0.35093 0.61985 0.0
H1382 H 0.71192 0.41317 0.55645 0.0
H1383 H 0.62685 0.37176 0.57808 0.0
H1384 H 0.62598 0.41989 0.56853 0.0
H1385 H 0.66873 0.44089 0.55757 0.0
H1386 H 0.71193 0.36522 0.56636 0.0
H1387 H 0.60899 0.32446 0.53274 0.0
H1388 H 0.57083 0.29945 0.5462 0.0
O1389 O 0.64673 0.33966 0.599 0.0
C1390 C 0.67602 0.2806 0.60294 0.0
C1391 C 0.59206 0.29779 0.5685 0.0
C1392 C 0.61081 0.31888 0.54507 0.0
N1393 N 0.63703 0.3188 0.56914 0.0
C1394 C 0.61618 0.30493 0.57661 0.0
C1395 C 0.63463 0.32567 0.55355 0.0
C1396 C 0.58941 0.30485 0.55263 0.0
C1397 C 0.7617 0.32339 0.6015 0.0
N1398 N 0.74233 0.31139 0.61103 0.0
C1399 C 0.78631 0.30962 0.59795 0.0
C1400 C 0.79102 0.28341 0.60424 0.0
C1401 C 0.77116 0.27132 0.61395 0.0
C1402 C 0.74677 0.28568 0.61722 0.0
C1403 C 0.73985 0.32514 0.66136 0.0
C1404 C 0.69007 0.31497 0.6463 0.0
C1405 C 0.73682 0.32959 0.64516 0.0
N1406 N 0.71219 0.32435 0.63782 0.0
C1407 C 0.69234 0.31028 0.66252 0.0
C1408 C 0.71743 0.31539 0.67007 0.0
C1409 C 0.64976 0.34994 0.61276 0.0
C1410 C 0.69314 0.40424 0.56118 0.0
C1411 C 0.64558 0.38082 0.57348 0.0
C1412 C 0.64494 0.40804 0.56801 0.0
C1413 C 0.66892 0.4198 0.56184 0.0
N1414 N 0.66942 0.36569 0.57282 0.0
C1415 C 0.693 0.37706 0.56675 0.0
Co1416 Co 0.08173 0.45877 0.36535 0.0
Co1417 Co 0.079 0.42035 0.331 0.0
O1418 O 0.0883 0.45447 0.34255 0.0
C1419 C 0.14068 0.47636 0.36202 0.0
O1420 O 0.1446 0.45695 0.35143 0.0
C1421 C 0.05443 0.46486 0.31062 0.0
O1422 O 0.04666 0.47855 0.32324 0.0
O1423 O 0.04024 0.42097 0.33927 0.0
O1424 O 0.04642 0.43782 0.36367 0.0
H1425 H 0.03864 0.32514 0.32533 0.0
H1426 H 0.09398 0.50842 0.34617 0.0
O1427 O 0.11693 0.48007 0.36811 0.0
H1428 H 1.00138 0.52477 0.36865 0.0
H1429 H 0.0798 0.51081 0.41685 0.0
H1430 H 0.06221 0.42138 0.39075 0.0
H1431 H 0.02692 0.48198 0.37479 0.0
H1432 H 0.08764 0.50534 0.38826 0.0
O1433 O 0.06719 0.44198 0.31196 0.0
H1434 H 0.05077 0.36803 0.33947 0.0
H1435 H 0.08753 0.40064 0.29791 0.0
H1436 H 0.0539 0.42601 0.41934 0.0
H1437 H 0.06927 0.55167 0.33985 0.0
H1438 H 0.06271 0.47098 0.43258 0.0
H1439 H 0.02259 0.56001 0.35109 0.0
O1440 O 0.10201 0.42384 0.37003 0.0
H1441 H 0.16354 0.46235 0.30627 0.0
H1442 H 0.12306 0.37722 0.32837 0.0
H1443 H 0.17112 0.37664 0.3187 0.0
H1444 H 0.19165 0.41943 0.3075 0.0
H1445 H 0.11568 0.46208 0.3163 0.0
H1446 H 0.0756 0.3582 0.2833 0.0
H1447 H 0.05107 0.32002 0.29703 0.0
O1448 O 0.09096 0.39716 0.34931 0.0
C1449 C 0.03157 0.42606 0.3532 0.0
C1450 C 0.04939 0.3416 0.31922 0.0
C1451 C 0.07009 0.36017 0.29563 0.0
N1452 N 0.06996 0.38677 0.31956 0.0
C1453 C 0.05636 0.36591 0.32718 0.0
C1454 C 0.07673 0.38419 0.30396 0.0
C1455 C 0.05634 0.33875 0.30334 0.0
C1456 C 0.07378 0.51204 0.35121 0.0
N1457 N 0.06195 0.49276 0.36087 0.0
C1458 C 0.05984 0.53651 0.34755 0.0
C1459 C 0.03363 0.54115 0.35384 0.0
C1460 C 0.02171 0.52138 0.36368 0.0
C1461 C 0.03624 0.49714 0.36707 0.0
C1462 C 0.07583 0.49112 0.41121 0.0
C1463 C 0.06595 0.44106 0.3964 0.0
C1464 C 0.08027 0.48788 0.39503 0.0
N1465 N 0.07518 0.46312 0.38781 0.0
C1466 C 0.06127 0.44354 0.41261 0.0
C1467 C 0.06624 0.46877 0.42003 0.0
C1468 C 0.10125 0.4005 0.36305 0.0
C1469 C 0.15483 0.44357 0.31111 0.0
C1470 C 0.13192 0.39597 0.32367 0.0
C1471 C 0.1591 0.39549 0.31813 0.0
C1472 C 0.1706 0.41949 0.31183 0.0
N1473 N 0.11658 0.41966 0.32296 0.0
C1474 C 0.1277 0.44326 0.31675 0.0
Co1475 Co 0.29739 0.32721 0.11573 0.0
Co1476 Co 0.33434 0.33406 0.08072 0.0
O1477 O 0.30051 0.3379 0.09338 0.0
C1478 C 0.28127 0.38662 0.1155 0.0
O1479 O 0.30042 0.39111 0.10483 0.0
C1480 C 0.29112 0.30537 0.06117 0.0
O1481 O 0.27867 0.29671 0.07402 0.0
O1482 O 0.34011 0.29527 0.08823 0.0
O1483 O 0.31711 0.29189 0.11128 0.0
H1484 H 0.43393 0.30897 0.07182 0.0
H1485 H 0.24735 0.34416 0.09802 0.0
O1486 O 0.27726 0.36237 0.12089 0.0
H1487 H 0.22909 0.2486 0.11544 0.0
H1488 H 0.24809 0.31729 0.16779 0.0
H1489 H 0.33516 0.3012 0.13893 0.0
H1490 H 0.2728 0.27185 0.12245 0.0
H1491 H 0.25238 0.33049 0.13978 0.0
O1492 O 0.31292 0.32001 0.06209 0.0
H1493 H 0.39107 0.314 0.08732 0.0
H1494 H 0.34942 0.34644 0.04724 0.0
H1495 H 0.33169 0.28748 0.16691 0.0
H1496 H 0.20321 0.32181 0.09088 0.0
H1497 H 0.28791 0.29552 0.18153 0.0
H1498 H 0.19391 0.27365 0.09957 0.0
O1499 O 0.33319 0.34568 0.12128 0.0
H1500 H 0.2782 0.41298 0.05929 0.0
H1501 H 0.37052 0.38384 0.07748 0.0
H1502 H 0.36327 0.43201 0.0689 0.0
H1503 H 0.31682 0.44684 0.05969 0.0
H1504 H 0.28634 0.36511 0.06817 0.0
H1505 H 0.39175 0.34153 0.03127 0.0
H1506 H 0.43444 0.32278 0.04358 0.0
O1507 O 0.3569 0.34827 0.09857 0.0
C1508 C 0.33247 0.28189 0.10047 0.0
C1509 C 0.41547 0.31721 0.06633 0.0
C1510 C 0.39179 0.33545 0.04357 0.0
N1511 N 0.36778 0.33056 0.06822 0.0
C1512 C 0.39115 0.32015 0.07505 0.0
C1513 C 0.36785 0.33808 0.05266 0.0
C1514 C 0.41574 0.32494 0.05048 0.0
C1515 C 0.24333 0.32328 0.10195 0.0
N1516 N 0.26261 0.30933 0.11064 0.0
C1517 C 0.21836 0.3107 0.09782 0.0
C1518 C 0.21317 0.28366 0.10268 0.0
C1519 C 0.23291 0.26958 0.11157 0.0
C1520 C 0.25767 0.28281 0.11546 0.0
C1521 C 0.26726 0.31364 0.16154 0.0
C1522 C 0.31599 0.30461 0.1452 0.0
C1523 C 0.26984 0.32113 0.14569 0.0
N1524 N 0.29395 0.31645 0.13771 0.0
C1525 C 0.31417 0.29687 0.16105 0.0
C1526 C 0.28961 0.30142 0.16924 0.0
C1527 C 0.35473 0.35208 0.11339 0.0
C1528 C 0.29854 0.40677 0.06326 0.0
C1529 C 0.35023 0.3902 0.07363 0.0
C1530 C 0.34626 0.41746 0.0687 0.0
C1531 C 0.3202 0.42576 0.06351 0.0
N1532 N 0.32888 0.37169 0.07339 0.0
C1533 C 0.3033 0.37966 0.06826 0.0
Co1534 Co 0.42322 0.54554 0.86175 0.0
Co1535 Co 0.42762 0.58721 0.82893 0.0
O1536 O 0.41688 0.55252 0.83925 0.0
C1537 C 0.36249 0.53166 0.86306 0.0
O1538 O 0.3559 0.55769 0.86079 0.0
C1539 C 0.45083 0.54401 0.80741 0.0
O1540 O 0.45953 0.53016 0.81978 0.0
O1541 O 0.46631 0.58382 0.83706 0.0
O1542 O 0.45895 0.56609 0.86115 0.0
H1543 H 0.47244 0.68081 0.82626 0.0
H1544 H 0.41074 0.49844 0.84051 0.0
O1545 O 0.38773 0.52404 0.86299 0.0
H1546 H 0.50241 0.47795 0.86317 0.0
H1547 H 0.42268 0.48728 0.91103 0.0
H1548 H 0.44301 0.57925 0.88875 0.0
H1549 H 0.47736 0.52034 0.8707 0.0
H1550 H 0.41569 0.49645 0.88268 0.0
O1551 O 0.43805 0.5668 0.80919 0.0
H1552 H 0.45831 0.63722 0.83903 0.0
H1553 H 0.41997 0.61052 0.79657 0.0
H1554 H 0.4505 0.5709 0.91714 0.0
H1555 H 0.43494 0.45565 0.83277 0.0
H1556 H 0.44031 0.52463 0.92846 0.0
H1557 H 0.48115 0.44522 0.8441 0.0
O1558 O 0.40391 0.58051 0.86762 0.0
H1559 H 0.34033 0.55183 0.80389 0.0
H1560 H 0.38597 0.63283 0.82774 0.0
H1561 H 0.33781 0.63679 0.8185 0.0
H1562 H 0.31468 0.59609 0.80642 0.0
H1563 H 0.38841 0.54874 0.81346 0.0
H1564 H 0.43388 0.65372 0.7833 0.0
H1565 H 0.46022 0.68928 0.79819 0.0
O1566 O 0.41697 0.60897 0.84807 0.0
C1567 C 0.47446 0.57778 0.85097 0.0
C1568 C 0.46091 0.66551 0.81966 0.0
C1569 C 0.4393 0.65028 0.79554 0.0
N1570 N 0.43821 0.6214 0.81859 0.0
C1571 C 0.4528 0.64081 0.82684 0.0
C1572 C 0.43155 0.62582 0.80311 0.0
C1573 C 0.45407 0.67023 0.80391 0.0
C1574 C 0.43073 0.49392 0.8456 0.0
N1575 N 0.44257 0.51183 0.85608 0.0
C1576 C 0.44438 0.46971 0.84113 0.0
C1577 C 0.47033 0.4639 0.84747 0.0
C1578 C 0.48228 0.48227 0.85815 0.0
C1579 C 0.46803 0.50629 0.86233 0.0
C1580 C 0.42724 0.50751 0.90623 0.0
C1581 C 0.43866 0.55902 0.89356 0.0
C1582 C 0.42327 0.51285 0.89019 0.0
N1583 N 0.42912 0.53831 0.88403 0.0
C1584 C 0.44289 0.55443 0.90966 0.0
C1585 C 0.43714 0.52848 0.91601 0.0
C1586 C 0.40605 0.60457 0.86156 0.0
C1587 C 0.35019 0.56972 0.80912 0.0
C1588 C 0.37601 0.61499 0.82262 0.0
C1589 C 0.34875 0.61738 0.81734 0.0
C1590 C 0.3358 0.59455 0.81056 0.0
N1591 N 0.39001 0.59059 0.82115 0.0
C1592 C 0.37743 0.56811 0.81452 0.0
Co1593 Co 0.2075 0.67326 0.61361 0.0
Co1594 Co 0.16822 0.67553 0.57957 0.0
O1595 O 0.20255 0.66629 0.5909 0.0
C1596 C 0.22403 0.61414 0.61047 0.0
O1597 O 0.20398 0.61041 0.60025 0.0
C1598 C 0.21227 0.69966 0.55871 0.0
O1599 O 0.2261 0.70788 0.5712 0.0
O1600 O 0.16933 0.71443 0.58759 0.0
O1601 O 0.18678 0.7087 0.6119 0.0
H1602 H 0.07316 0.71642 0.57438 0.0
H1603 H 0.25654 0.66025 0.59408 0.0
O1604 O 0.22853 0.63791 0.61636 0.0
H1605 H 0.27423 0.75314 0.61586 0.0
H1606 H 0.261 0.67564 0.66463 0.0
H1607 H 0.171 0.69352 0.63923 0.0
H1608 H 0.2314 0.72805 0.62251 0.0
H1609 H 0.25466 0.66737 0.63613 0.0
O1610 O 0.18948 0.6868 0.56028 0.0
H1611 H 0.11632 0.70432 0.58826 0.0
H1612 H 0.14761 0.66639 0.54672 0.0
H1613 H 0.1765 0.70226 0.66774 0.0
H1614 H 0.29981 0.6845 0.58724 0.0
H1615 H 0.22177 0.69332 0.68062 0.0
H1616 H 0.30883 0.73132 0.59813 0.0
O1617 O 0.17254 0.65338 0.61873 0.0
H1618 H 0.20901 0.5902 0.55509 0.0
H1619 H 0.12475 0.63167 0.57766 0.0
H1620 H 0.12361 0.5834 0.56836 0.0
H1621 H 0.16596 0.56236 0.55692 0.0
H1622 H 0.20929 0.6383 0.56475 0.0
H1623 H 0.10489 0.67829 0.53235 0.0
H1624 H 0.06725 0.7034 0.54621 0.0
O1625 O 0.1454 0.66413 0.59815 0.0
C1626 C 0.17482 0.72336 0.60142 0.0
C1627 C 0.08939 0.70542 0.56822 0.0
C1628 C 0.10721 0.68406 0.54463 0.0
N1629 N 0.13442 0.68455 0.56834 0.0
C1630 C 0.11385 0.69846 0.57603 0.0
C1631 C 0.1314 0.67745 0.55282 0.0
C1632 C 0.08609 0.69813 0.55241 0.0
C1633 C 0.26046 0.68052 0.59897 0.0
N1634 N 0.24153 0.69267 0.60872 0.0
C1635 C 0.28493 0.69419 0.59501 0.0
C1636 C 0.28996 0.72048 0.60111 0.0
C1637 C 0.27054 0.73275 0.61104 0.0
C1638 C 0.24628 0.71847 0.61472 0.0
C1639 C 0.24119 0.67968 0.65914 0.0
C1640 C 0.19081 0.68972 0.64473 0.0
C1641 C 0.23746 0.67499 0.64301 0.0
N1642 N 0.21254 0.68017 0.63599 0.0
C1643 C 0.19378 0.69465 0.66089 0.0
C1644 C 0.21918 0.6896 0.66811 0.0
C1645 C 0.14902 0.65415 0.61194 0.0
C1646 C 0.19041 0.59914 0.56002 0.0
C1647 C 0.14331 0.62261 0.57285 0.0
C1648 C 0.14251 0.5953 0.56752 0.0
C1649 C 0.16627 0.58352 0.56108 0.0
N1650 N 0.16707 0.63779 0.5718 0.0
C1651 C 0.19042 0.6264 0.56546 0.0
Co1652 Co 0.08285 0.54452 0.14561 0.0
Co1653 Co 0.07901 0.58355 0.17966 0.0
O1654 O 0.08898 0.54932 0.16842 0.0
C1655 C 0.14159 0.52651 0.14984 0.0
O1656 O 0.14511 0.54545 0.16074 0.0
C1657 C 0.05467 0.53926 0.20021 0.0
O1658 O 0.04684 0.52552 0.18761 0.0
O1659 O 0.04038 0.58197 0.17127 0.0
O1660 O 0.04736 0.56532 0.1469 0.0
H1661 H 0.03689 0.67814 0.18442 0.0
H1662 H 0.09487 0.49534 0.16524 0.0
O1663 O 0.1182 0.52333 0.14321 0.0
H1664 H 0.00286 0.47806 0.14215 0.0
H1665 H 0.08216 0.49147 0.09443 0.0
H1666 H 0.0637 0.58132 0.11984 0.0
H1667 H 0.02836 0.52084 0.13592 0.0
H1668 H 0.08939 0.49753 0.12304 0.0
O1669 O 0.06743 0.56214 0.19882 0.0
H1670 H 0.04991 0.63513 0.17067 0.0
H1671 H 0.08688 0.60423 0.2126 0.0
H1672 H 0.056 0.57611 0.09122 0.0
H1673 H 0.07021 0.45211 0.17167 0.0
H1674 H 0.06524 0.53091 0.07833 0.0
H1675 H 0.02382 0.4433 0.16012 0.0
O1676 O 0.10305 0.57947 0.14087 0.0
H1677 H 0.16389 0.54399 0.20533 0.0
H1678 H 0.12233 0.62751 0.18192 0.0
H1679 H 0.17021 0.62931 0.19183 0.0
H1680 H 0.19129 0.58734 0.2037 0.0
H1681 H 0.1162 0.54302 0.19502 0.0
H1682 H 0.07406 0.6468 0.22684 0.0
H1683 H 0.04897 0.68418 0.21271 0.0
O1684 O 0.0907 0.60653 0.16118 0.0
C1685 C 0.0321 0.57679 0.15727 0.0
C1686 C 0.04788 0.66203 0.19069 0.0
C1687 C 0.0687 0.64443 0.2145 0.0
N1688 N 0.06926 0.61724 0.19079 0.0
C1689 C 0.05536 0.63765 0.18296 0.0
C1690 C 0.07584 0.62033 0.20639 0.0
C1691 C 0.05464 0.66539 0.20657 0.0
C1692 C 0.07481 0.49151 0.16006 0.0
N1693 N 0.06313 0.51053 0.15018 0.0
C1694 C 0.0609 0.46706 0.16379 0.0
C1695 C 0.03485 0.46215 0.15733 0.0
C1696 C 0.02306 0.48166 0.14726 0.0
C1697 C 0.03757 0.50589 0.14381 0.0
C1698 C 0.078 0.51125 0.09992 0.0
C1699 C 0.06763 0.56155 0.11434 0.0
C1700 C 0.0821 0.51482 0.11611 0.0
N1701 N 0.07676 0.5397 0.12314 0.0
C1702 C 0.06329 0.55874 0.09812 0.0
C1703 C 0.06851 0.53339 0.09089 0.0
C1704 C 0.10153 0.60301 0.14759 0.0
C1705 C 0.15494 0.56242 0.2002 0.0
C1706 C 0.13143 0.6091 0.18689 0.0
C1707 C 0.15851 0.61028 0.19258 0.0
C1708 C 0.17031 0.58674 0.19926 0.0
N1709 N 0.11649 0.58517 0.18783 0.0
C1710 C 0.1279 0.56203 0.1944 0.0
Co1711 Co 0.20828 0.32993 0.89772 0.0
Co1712 Co 0.16847 0.32556 0.93124 0.0
O1713 O 0.20276 0.33593 0.92037 0.0
C1714 C 0.22339 0.39009 0.89862 0.0
O1715 O 0.19865 0.39623 0.90396 0.0
C1716 C 0.21245 0.30143 0.95189 0.0
O1717 O 0.22561 0.29288 0.93924 0.0
O1718 O 0.17085 0.28693 0.92289 0.0
O1719 O 0.18715 0.29458 0.89851 0.0
H1720 H 0.07434 0.28217 0.9353 0.0
H1721 H 0.25684 0.3412 0.91807 0.0
O1722 O 0.23019 0.36501 0.89618 0.0
H1723 H 0.27428 0.24955 0.8946 0.0
H1724 H 0.26353 0.3301 0.84732 0.0
H1725 H 0.17255 0.31132 0.8713 0.0
H1726 H 0.23195 0.27549 0.88799 0.0
H1727 H 0.25623 0.33681 0.87587 0.0
O1728 O 0.18974 0.3145 0.95057 0.0
H1729 H 0.11748 0.29577 0.92186 0.0
H1730 H 0.147 0.33308 0.96402 0.0
H1731 H 0.17902 0.30413 0.84273 0.0
H1732 H 0.29961 0.3161 0.92488 0.0
H1733 H 0.22478 0.31353 0.83055 0.0
H1734 H 0.30851 0.26989 0.91314 0.0
O1735 O 0.17341 0.35015 0.89263 0.0
H1736 H 0.20655 0.41196 0.95596 0.0
H1737 H 0.12358 0.36788 0.93339 0.0
H1738 H 0.1209 0.416 0.94283 0.0
H1739 H 0.1626 0.43835 0.95426 0.0
H1740 H 0.20835 0.36394 0.94621 0.0
H1741 H 0.10429 0.31966 0.97795 0.0
H1742 H 0.06754 0.29412 0.96355 0.0
O1743 O 0.14587 0.3368 0.91253 0.0
C1744 C 0.17593 0.27899 0.90882 0.0
C1745 C 0.09017 0.29335 0.9417 0.0
C1746 C 0.107 0.31436 0.96564 0.0
N1747 N 0.13468 0.31533 0.94212 0.0
C1748 C 0.11462 0.30116 0.93414 0.0
C1749 C 0.13118 0.32183 0.9577 0.0
C1750 C 0.08638 0.30004 0.95755 0.0
C1751 C 0.2607 0.32122 0.91281 0.0
N1752 N 0.24195 0.30987 0.90262 0.0
C1753 C 0.2849 0.30705 0.91675 0.0
C1754 C 0.28985 0.28111 0.91018 0.0
C1755 C 0.27064 0.26967 0.89979 0.0
C1756 C 0.24665 0.28442 0.89614 0.0
C1757 C 0.24351 0.32588 0.85249 0.0
C1758 C 0.19257 0.31533 0.86611 0.0
C1759 C 0.23923 0.32971 0.86865 0.0
N1760 N 0.21403 0.32429 0.87528 0.0
C1761 C 0.19609 0.31128 0.84991 0.0
C1762 C 0.22176 0.31658 0.84309 0.0
C1763 C 0.14965 0.34808 0.89908 0.0
C1764 C 0.18823 0.40244 0.95102 0.0
C1765 C 0.14184 0.37749 0.93823 0.0
C1766 C 0.14018 0.40473 0.94363 0.0
C1767 C 0.16357 0.41725 0.95005 0.0
N1768 N 0.16609 0.36309 0.93924 0.0
C1769 C 0.18911 0.37523 0.94552 0.0
Co1770 Co 0.42164 0.45829 0.64324 0.0
Co1771 Co 0.42478 0.42005 0.67763 0.0
O1772 O 0.4151 0.45398 0.66603 0.0
C1773 C 0.36256 0.47499 0.64669 0.0
O1774 O 0.35908 0.4555 0.65728 0.0
C1775 C 0.44866 0.46508 0.69791 0.0
O1776 O 0.45607 0.47887 0.68526 0.0
O1777 O 0.46352 0.42118 0.66938 0.0
O1778 O 0.45723 0.43782 0.64494 0.0
H1779 H 0.46634 0.3254 0.68346 0.0
H1780 H 0.40872 0.50788 0.66234 0.0
O1781 O 0.38615 0.47908 0.64048 0.0
H1782 H 0.50115 0.52533 0.6399 0.0
H1783 H 0.4229 0.51024 0.5917 0.0
H1784 H 0.44167 0.42112 0.61787 0.0
H1785 H 0.47616 0.48218 0.63381 0.0
H1786 H 0.4151 0.50472 0.62029 0.0
O1787 O 0.43633 0.44194 0.69664 0.0
H1788 H 0.45367 0.36805 0.66924 0.0
H1789 H 0.41651 0.4004 0.71075 0.0
H1790 H 0.44995 0.4258 0.58928 0.0
H1791 H 0.43285 0.55148 0.6686 0.0
H1792 H 0.44056 0.47062 0.576 0.0
H1793 H 0.47945 0.56037 0.65738 0.0
O1794 O 0.40181 0.4231 0.63859 0.0
H1795 H 0.33974 0.46095 0.70238 0.0
H1796 H 0.38125 0.37637 0.68023 0.0
H1797 H 0.33322 0.37516 0.68991 0.0
H1798 H 0.31216 0.41767 0.70114 0.0
H1799 H 0.38759 0.4613 0.69233 0.0
H1800 H 0.42898 0.35819 0.72544 0.0
H1801 H 0.45399 0.32027 0.71176 0.0
O1802 O 0.41312 0.39661 0.65934 0.0
C1803 C 0.47217 0.42634 0.65546 0.0
C1804 C 0.45538 0.34175 0.68953 0.0
C1805 C 0.43445 0.36017 0.7131 0.0
N1806 N 0.43424 0.38664 0.68912 0.0
C1807 C 0.4481 0.36593 0.68154 0.0
C1808 C 0.42751 0.38406 0.70473 0.0
C1809 C 0.44847 0.33889 0.70542 0.0
C1810 C 0.42887 0.51174 0.6573 0.0
N1811 N 0.44097 0.49256 0.64769 0.0
C1812 C 0.44249 0.5364 0.66094 0.0
C1813 C 0.46866 0.54136 0.65466 0.0
C1814 C 0.48086 0.52169 0.64486 0.0
C1815 C 0.46664 0.49725 0.6415 0.0
C1816 C 0.42713 0.49062 0.59735 0.0
C1817 C 0.43767 0.44073 0.6122 0.0
C1818 C 0.42271 0.48735 0.61354 0.0
N1819 N 0.42813 0.46267 0.62077 0.0
C1820 C 0.44234 0.44324 0.596 0.0
C1821 C 0.43704 0.46839 0.58855 0.0
C1822 C 0.40281 0.39979 0.64559 0.0
C1823 C 0.34869 0.44228 0.69753 0.0
C1824 C 0.37217 0.395 0.68494 0.0
C1825 C 0.345 0.39416 0.69049 0.0
C1826 C 0.33321 0.41801 0.69681 0.0
N1827 N 0.38721 0.41888 0.68567 0.0
C1828 C 0.37581 0.44233 0.69188 0.0
Co1829 Co 0.29888 0.67408 0.39389 0.0
Co1830 Co 0.33578 0.67741 0.42869 0.0
O1831 O 0.30217 0.66768 0.41678 0.0
C1832 C 0.28076 0.61529 0.39722 0.0
O1833 O 0.29975 0.61137 0.40806 0.0
C1834 C 0.29018 0.70048 0.44898 0.0
O1835 O 0.27613 0.70772 0.43638 0.0
O1836 O 0.33454 0.7162 0.42054 0.0
O1837 O 0.32 0.70935 0.39572 0.0
H1838 H 0.42998 0.71967 0.43538 0.0
H1839 H 0.24828 0.6623 0.41235 0.0
O1840 O 0.27747 0.63897 0.39097 0.0
H1841 H 0.23353 0.75477 0.38932 0.0
H1842 H 0.24902 0.67575 0.34168 0.0
H1843 H 0.33747 0.69299 0.36893 0.0
H1844 H 0.27647 0.72895 0.38395 0.0
H1845 H 0.25323 0.66824 0.37037 0.0
O1846 O 0.3135 0.68855 0.44762 0.0
H1847 H 0.38771 0.70689 0.42081 0.0
H1848 H 0.35487 0.6687 0.46189 0.0
H1849 H 0.3341 0.70096 0.34024 0.0
H1850 H 0.20486 0.68728 0.41788 0.0
H1851 H 0.28962 0.69233 0.32642 0.0
H1852 H 0.19733 0.7339 0.40636 0.0
O1853 O 0.3339 0.65356 0.3898 0.0
H1854 H 0.29491 0.5918 0.45282 0.0
H1855 H 0.37969 0.63412 0.4314 0.0
H1856 H 0.38099 0.58598 0.44092 0.0
H1857 H 0.33839 0.56452 0.45178 0.0
H1858 H 0.29447 0.63976 0.44295 0.0
H1859 H 0.39668 0.68127 0.47692 0.0
H1860 H 0.43466 0.70685 0.46365 0.0
O1861 O 0.35974 0.66619 0.41055 0.0
C1862 C 0.33063 0.72454 0.40642 0.0
C1863 C 0.4136 0.70847 0.44129 0.0
C1864 C 0.39489 0.68695 0.46461 0.0
N1865 N 0.36888 0.68695 0.44046 0.0
C1866 C 0.38963 0.70113 0.43309 0.0
C1867 C 0.37123 0.67996 0.45604 0.0
C1868 C 0.4162 0.70129 0.45715 0.0
C1869 C 0.24501 0.68247 0.40718 0.0
N1870 N 0.26483 0.69411 0.39781 0.0
C1871 C 0.22045 0.69656 0.4104 0.0
C1872 C 0.21625 0.72274 0.40396 0.0
C1873 C 0.23657 0.73447 0.39441 0.0
C1874 C 0.26089 0.71979 0.39146 0.0
C1875 C 0.26849 0.67964 0.34757 0.0
C1876 C 0.318 0.68933 0.36302 0.0
C1877 C 0.27102 0.67539 0.36381 0.0
N1878 N 0.29553 0.68039 0.37135 0.0
C1879 C 0.31624 0.69382 0.34676 0.0
C1880 C 0.29128 0.68895 0.33902 0.0
C1881 C 0.35705 0.65524 0.39694 0.0
C1882 C 0.31362 0.60092 0.44814 0.0
C1883 C 0.36102 0.62487 0.43596 0.0
C1884 C 0.36191 0.59763 0.44141 0.0
C1885 C 0.33801 0.58562 0.44752 0.0
N1886 N 0.33702 0.63975 0.43658 0.0
C1887 C 0.31353 0.62811 0.44259 0.0
H1888 H 0.45451 0.02524 0.30205 0.0
H1889 H 0.46127 0.99409 0.20905 0.0
H1890 H 0.45003 0.94315 0.28227 0.0
H1891 H 0.43919 0.0738 0.22815 0.0
H1892 H 0.46462 0.97592 0.23601 0.0
H1893 H 0.45643 0.04425 0.27517 0.0
C1894 C 0.45422 0.01121 0.29209 0.0
C1895 C 0.45195 0.98257 0.29443 0.0
C1896 C 0.45913 0.99741 0.23428 0.0
C1897 C 0.45423 0.00413 0.26369 0.0
C1898 C 0.45731 0.00782 0.2189 0.0
C1899 C 0.44979 0.03548 0.21631 0.0
C1900 C 0.45375 0.01485 0.24721 0.0
C1901 C 0.44485 0.05229 0.22956 0.0
C1902 C 0.45516 0.02207 0.27675 0.0
C1903 C 0.45154 0.96538 0.28105 0.0
N1904 N 0.44694 0.04174 0.24441 0.0
N1905 N 0.45267 0.9764 0.26629 0.0
H1906 H 0.23017 0.20483 0.55223 0.0
H1907 H 0.26083 0.21086 0.45919 0.0
H1908 H 0.31198 0.198 0.5323 0.0
H1909 H 0.1808 0.19032 0.47842 0.0
H1910 H 0.27924 0.21376 0.48611 0.0
H1911 H 0.21104 0.20717 0.52538 0.0
C1912 C 0.24412 0.2041 0.54224 0.0
C1913 C 0.2727 0.20106 0.54453 0.0
C1914 C 0.25762 0.20871 0.48442 0.0
C1915 C 0.251 0.20384 0.51383 0.0
C1916 C 0.24708 0.20715 0.46905 0.0
C1917 C 0.21925 0.2002 0.46651 0.0
C1918 C 0.24016 0.20364 0.49737 0.0
C1919 C 0.20243 0.19555 0.47979 0.0
C1920 C 0.23319 0.2053 0.52693 0.0
C1921 C 0.28979 0.20012 0.53112 0.0
N1922 N 0.21312 0.19739 0.49462 0.0
N1923 N 0.2787 0.20152 0.51638 0.0
H1924 H 0.04286 0.98571 0.80158 0.0
H1925 H 0.04376 0.01778 0.70855 0.0
H1926 H 0.05847 0.06669 0.78214 0.0
H1927 H 0.05503 0.93609 0.728 0.0
H1928 H 0.04078 0.03628 0.7355 0.0
H1929 H 0.03897 0.96739 0.77462 0.0
C1930 C 0.0452 0.99967 0.79167 0.0
C1931 C 0.05121 0.02773 0.79414 0.0
C1932 C 0.04375 0.01428 0.73383 0.0
C1933 C 0.04664 0.00698 0.76331 0.0
C1934 C 0.04532 0.00371 0.71846 0.0
C1935 C 0.04986 0.97538 0.716 0.0
C1936 C 0.04635 0.99634 0.74682 0.0
C1937 C 0.0518 0.95812 0.72932 0.0
C1938 C 0.04309 0.9892 0.7763 0.0
C1939 C 0.0541 0.04486 0.78082 0.0
N1940 N 0.05005 0.96885 0.74412 0.0
N1941 N 0.0518 0.03424 0.76602 0.0
H1942 H 0.32032 0.80518 0.97813 0.0
H1943 H 0.18664 0.80454 0.03284 0.0
H1944 H 0.23804 0.79246 0.9598 0.0
H1945 H 0.26915 0.79455 0.05137 0.0
H1946 H 0.205 0.80088 0.0061 0.0
H1947 H 0.3021 0.80204 1.00493 0.0
C1948 C 0.2984 0.80159 0.97973 0.0
C1949 C 0.28065 0.79923 0.96664 0.0
C1950 C 0.2191 0.79927 0.01599 0.0
C1951 C 0.25959 0.79582 0.99746 0.0
C1952 C 0.20866 0.80146 0.0313 0.0
C1953 C 0.22641 0.80001 0.04442 0.0
C1954 C 0.24763 0.79598 0.01367 0.0
C1955 C 0.2547 0.79576 0.04164 0.0
C1956 C 0.28803 0.79971 0.99507 0.0
C1957 C 0.25248 0.79439 0.9695 0.0
N1958 N 0.26447 0.79419 0.02657 0.0
N1959 N 0.24278 0.79313 0.9846 0.0
H1960 H 0.54284 0.01702 0.80207 0.0
H1961 H 0.54242 0.98569 0.70894 0.0
H1962 H 0.55682 0.93595 0.78236 0.0
H1963 H 0.55422 0.06717 0.72857 0.0
H1964 H 0.53958 0.96699 0.73584 0.0
H1965 H 0.53892 0.03562 0.77519 0.0
C1966 C 0.54482 0.0031 0.79212 0.0
C1967 C 0.55036 0.97492 0.79449 0.0
C1968 C 0.54263 0.98898 0.73423 0.0
C1969 C 0.54578 0.99601 0.76373 0.0
C1970 C 0.54413 0.99968 0.71888 0.0
C1971 C 0.54877 0.02801 0.71648 0.0
C1972 C 0.54543 0.0068 0.74727 0.0
C1973 C 0.5509 0.04515 0.72984 0.0
C1974 C 0.5427 0.01373 0.77678 0.0
C1975 C 0.5528 0.95786 0.78112 0.0
N1976 N 0.54924 0.0343 0.74462 0.0
N1977 N 0.55051 0.96864 0.76635 0.0
H1978 H 0.68109 0.81138 0.47998 0.0
H1979 H 0.81512 0.80419 0.53406 0.0
H1980 H 0.76203 0.79295 0.46132 0.0
H1981 H 0.73267 0.7963 0.55297 0.0
H1982 H 0.7962 0.80127 0.50739 0.0
H1983 H 0.69952 0.8072 0.50672 0.0
C1984 C 0.70275 0.80633 0.4815 0.0
C1985 C 0.72008 0.80265 0.46835 0.0
C1986 C 0.78224 0.79993 0.51735 0.0
C1987 C 0.74137 0.79804 0.49905 0.0
C1988 C 0.793 0.80169 0.53261 0.0
C1989 C 0.77542 0.80063 0.5458 0.0
C1990 C 0.75358 0.79753 0.51518 0.0
C1991 C 0.74698 0.79716 0.54316 0.0
C1992 C 0.71321 0.80384 0.4968 0.0
C1993 C 0.74791 0.79594 0.47109 0.0
N1994 N 0.7369 0.79606 0.52815 0.0
N1995 N 0.75776 0.79415 0.48612 0.0
H1996 H 0.94368 0.07299 0.27946 0.0
H1997 H 0.94858 0.93751 0.2267 0.0
H1998 H 0.96351 0.99285 0.29877 0.0
H1999 H 0.95762 0.01918 0.20687 0.0
H2000 H 0.95245 0.95722 0.25315 0.0
H2001 H 0.94714 0.05374 0.25287 0.0
C2002 C 0.94892 0.05134 0.27811 0.0
C2003 C 0.9532 0.03446 0.2914 0.0
C2004 C 0.95384 0.97083 0.24303 0.0
C2005 C 0.95691 0.01223 0.26089 0.0
C2006 C 0.95152 0.95962 0.2279 0.0
C2007 C 0.95265 0.97675 0.21452 0.0
C2008 C 0.95683 0.9995 0.24489 0.0
C2009 C 0.95668 0.00521 0.21683 0.0
C2010 C 0.95099 0.04041 0.2629 0.0
C2011 C 0.96009 0.00662 0.28888 0.0
N2012 N 0.9583 0.01573 0.23173 0.0
N2013 N 0.96141 0.9963 0.27393 0.0
H2014 H 0.81881 0.19729 0.97763 0.0
H2015 H 0.68443 0.19857 0.03161 0.0
H2016 H 0.7369 0.20966 0.9587 0.0
H2017 H 0.76655 0.21021 0.05041 0.0
H2018 H 0.70311 0.20189 1.00492 0.0
H2019 H 0.80013 0.20124 1.00428 0.0
C2020 C 0.79686 0.20096 0.97907 0.0
C2021 C 0.77936 0.20298 0.96587 0.0
C2022 C 0.71703 0.20397 0.01486 0.0
C2023 C 0.75777 0.20733 0.9965 0.0
C2024 C 0.70641 0.20197 0.03014 0.0
C2025 C 0.72398 0.20395 0.04331 0.0
C2026 C 0.74555 0.20756 0.01264 0.0
C2027 C 0.75224 0.20858 0.04062 0.0
C2028 C 0.78624 0.20332 0.99432 0.0
C2029 C 0.75115 0.20798 0.96851 0.0
N2030 N 0.76219 0.20992 0.02559 0.0
N2031 N 0.74118 0.20968 0.98353 0.0
H2032 H 0.94895 0.56896 0.72781 0.0
H2033 H 0.9506 0.43509 0.78229 0.0
H2034 H 0.96157 0.48683 0.70927 0.0
H2035 H 0.96111 0.51749 0.80088 0.0
H2036 H 0.95399 0.45356 0.75556 0.0
H2037 H 0.95276 0.55062 0.75456 0.0
C2038 C 0.95266 0.54704 0.72935 0.0
C2039 C 0.95478 0.52937 0.71623 0.0
C2040 C 0.95579 0.4676 0.76546 0.0
C2041 C 0.95897 0.50818 0.74697 0.0
C2042 C 0.95376 0.4571 0.78076 0.0
C2043 C 0.9554 0.4748 0.79389 0.0
C2044 C 0.95911 0.49614 0.76316 0.0
C2045 C 0.95974 0.50309 0.79113 0.0
C2046 C 0.95493 0.53661 0.74466 0.0
C2047 C 0.95982 0.50121 0.71901 0.0
N2048 N 0.96114 0.51292 0.77607 0.0
N2049 N 0.96144 0.49144 0.73407 0.0
H2050 H 0.81905 0.69595 0.03238 0.0
H2051 H 0.68541 0.69638 0.97761 0.0
H2052 H 0.7367 0.70747 0.05083 0.0
H2053 H 0.76778 0.70824 0.95927 0.0
H2054 H 0.70368 0.69964 1.00441 0.0
H2055 H 0.80075 0.69963 0.00561 0.0
C2056 C 0.79709 0.69938 0.03082 0.0
C2057 C 0.77935 0.70125 0.04392 0.0
C2058 C 0.71776 0.70177 0.99455 0.0
C2059 C 0.7582 0.70529 0.01314 0.0
C2060 C 0.70736 0.69981 0.97921 0.0
C2061 C 0.72512 0.70189 0.96612 0.0
C2062 C 0.74623 0.70543 0.99693 0.0
C2063 C 0.75333 0.70654 0.96897 0.0
C2064 C 0.78668 0.70158 0.01549 0.0
C2065 C 0.75113 0.70592 0.0411 0.0
N2066 N 0.76306 0.70786 0.98406 0.0
N2067 N 0.74139 0.70748 0.02602 0.0
H2068 H 0.55839 0.56788 0.28324 0.0
H2069 H 0.55977 0.43335 0.22937 0.0
H2070 H 0.54854 0.48577 0.30236 0.0
H2071 H 0.54471 0.51495 0.21064 0.0
H2072 H 0.55674 0.45202 0.25609 0.0
H2073 H 0.55442 0.54895 0.25664 0.0
C2074 C 0.55527 0.54583 0.28185 0.0
C2075 C 0.55396 0.52835 0.29509 0.0
C2076 C 0.55387 0.46583 0.24616 0.0
C2077 C 0.5496 0.50649 0.26451 0.0
C2078 C 0.5557 0.45522 0.23087 0.0
C2079 C 0.55263 0.47265 0.2177 0.0
C2080 C 0.54935 0.49421 0.24839 0.0
C2081 C 0.54718 0.50075 0.22042 0.0
C2082 C 0.5529 0.53507 0.26663 0.0
C2083 C 0.54965 0.50001 0.29252 0.0
N2084 N 0.54601 0.51071 0.23546 0.0
N2085 N 0.54794 0.48991 0.27752 0.0
H2086 H 0.76931 0.29304 0.5523 0.0
H2087 H 0.73832 0.29171 0.45914 0.0
H2088 H 0.68798 0.30492 0.53245 0.0
H2089 H 0.81931 0.30633 0.47886 0.0
H2090 H 0.71966 0.28822 0.48602 0.0
H2091 H 0.78811 0.28956 0.52544 0.0
C2092 C 0.75538 0.29462 0.54232 0.0
C2093 C 0.72707 0.29949 0.54464 0.0
C2094 C 0.74154 0.29204 0.48443 0.0
C2095 C 0.74838 0.29542 0.51392 0.0
C2096 C 0.75221 0.29391 0.46909 0.0
C2097 C 0.78037 0.29952 0.46673 0.0
C2098 C 0.75922 0.29543 0.49748 0.0
C2099 C 0.7974 0.30225 0.4801 0.0
C2100 C 0.76613 0.29277 0.527 0.0
C2101 C 0.70999 0.30145 0.53124 0.0
N2102 N 0.78658 0.3002 0.49487 0.0
N2103 N 0.72089 0.29943 0.5165 0.0
H2104 H 0.04314 0.51855 0.30191 0.0
H2105 H 0.04289 0.4857 0.20895 0.0
H2106 H 0.05549 0.43691 0.28263 0.0
H2107 H 0.05622 0.56723 0.22821 0.0
H2108 H 0.03916 0.46753 0.23594 0.0
H2109 H 0.03958 0.53679 0.27493 0.0
C2110 C 0.0448 0.50443 0.29203 0.0
C2111 C 0.04984 0.4762 0.29455 0.0
C2112 C 0.04274 0.48942 0.23422 0.0
C2113 C 0.04568 0.49687 0.26368 0.0
C2114 C 0.04475 0.49981 0.21882 0.0
C2115 C 0.05009 0.52798 0.2163 0.0
C2116 C 0.04574 0.50739 0.24717 0.0
C2117 C 0.05237 0.54531 0.22957 0.0
C2118 C 0.0429 0.51486 0.27664 0.0
C2119 C 0.05189 0.45887 0.28127 0.0
N2120 N 0.05021 0.53475 0.2444 0.0
N2121 N 0.04983 0.46946 0.26645 0.0
H2122 H 0.23761 0.29159 0.05336 0.0
H2123 H 0.26626 0.2898 0.96002 0.0
H2124 H 0.31782 0.30678 0.03282 0.0
H2125 H 0.18558 0.30386 0.98022 0.0
H2126 H 0.28556 0.28684 0.98678 0.0
H2127 H 0.21829 0.28686 0.02666 0.0
C2128 C 0.2512 0.29358 0.04326 0.0
C2129 C 0.27932 0.29979 0.04532 0.0
C2130 C 0.2636 0.29039 0.98532 0.0
C2131 C 0.25744 0.29428 0.01481 0.0
C2132 C 0.25257 0.29196 0.97006 0.0
C2133 C 0.22431 0.29729 0.96787 0.0
C2134 C 0.24618 0.29378 0.99848 0.0
C2135 C 0.20754 0.29999 0.98134 0.0
C2136 C 0.24016 0.29103 0.02804 0.0
C2137 C 0.29597 0.30226 0.03179 0.0
N2138 N 0.21871 0.29822 0.99604 0.0
N2139 N 0.2848 0.29952 0.01715 0.0
H2140 H 0.44681 0.57204 0.77949 0.0
H2141 H 0.44883 0.43712 0.7259 0.0
H2142 H 0.46292 0.49073 0.79833 0.0
H2143 H 0.45846 0.51911 0.70658 0.0
H2144 H 0.45268 0.4563 0.75247 0.0
H2145 H 0.4497 0.55318 0.75279 0.0
C2146 C 0.45109 0.55021 0.77802 0.0
C2147 C 0.45451 0.53291 0.79121 0.0
C2148 C 0.45419 0.4701 0.74244 0.0
C2149 C 0.45762 0.51113 0.76056 0.0
C2150 C 0.45189 0.45919 0.72724 0.0
C2151 C 0.45319 0.47656 0.71396 0.0
C2152 C 0.45738 0.49871 0.74448 0.0
C2153 C 0.45738 0.50495 0.71646 0.0
C2154 C 0.45284 0.53949 0.76275 0.0
C2155 C 0.46018 0.50484 0.78854 0.0
N2156 N 0.45902 0.51518 0.73142 0.0
N2157 N 0.46127 0.49477 0.77352 0.0
H2158 H 0.184 0.697 0.53083 0.0
H2159 H 0.31846 0.70072 0.47687 0.0
H2160 H 0.26559 0.71188 0.54963 0.0
H2161 H 0.23613 0.70961 0.4579 0.0
H2162 H 0.29959 0.70398 0.50352 0.0
H2163 H 0.2026 0.70073 0.50413 0.0
C2164 C 0.20585 0.70118 0.52936 0.0
C2165 C 0.2233 0.70399 0.54254 0.0
C2166 C 0.28565 0.70546 0.49355 0.0
C2167 C 0.24479 0.70808 0.51186 0.0
C2168 C 0.29638 0.7035 0.47829 0.0
C2169 C 0.27883 0.70474 0.46508 0.0
C2170 C 0.25703 0.70828 0.49572 0.0
C2171 C 0.25043 0.70858 0.46771 0.0
C2172 C 0.21642 0.70341 0.51408 0.0
C2173 C 0.25138 0.7096 0.53984 0.0
N2174 N 0.24038 0.7099 0.48273 0.0
N2175 N 0.2613 0.71117 0.52481 0.0
H2176 H 0.35449 0.00926 0.11941 0.0
H2177 H 0.24385 0.8989 0.14202 0.0
H2178 H 0.31617 0.01238 0.16533 0.0
H2179 H 0.24285 0.9352 0.09552 0.0
H2180 H 0.27433 0.93619 0.15104 0.0
H2181 H 0.31786 0.97803 0.11038 0.0
C2182 C 0.33826 0.00342 0.12757 0.0
C2183 C 0.33833 0.01331 0.14316 0.0
C2184 C 0.2672 0.93612 0.13891 0.0
C2185 C 0.29678 0.97726 0.13297 0.0
C2186 C 0.24998 0.91483 0.13373 0.0
C2187 C 0.24092 0.914 0.11798 0.0
C2188 C 0.27611 0.95627 0.12817 0.0
C2189 C 0.24934 0.93518 0.10775 0.0
C2190 C 0.31734 0.98577 0.12238 0.0
C2191 C 0.31677 0.00524 0.15322 0.0
N2192 N 0.26691 0.95524 0.11295 0.0
N2193 N 0.29707 0.98724 0.14804 0.0
H2194 H 0.2408 0.06735 0.41622 0.0
H2195 H 0.31888 0.99379 0.34476 0.0
H2196 H 0.24473 0.10433 0.36995 0.0
H2197 H 0.35393 0.99591 0.39157 0.0
H2198 H 0.28167 0.02477 0.35383 0.0
H2199 H 0.27292 0.03103 0.40719 0.0
C2200 C 0.24812 0.06758 0.40414 0.0
C2201 C 0.24036 0.08889 0.39384 0.0
C2202 C 0.29741 0.01814 0.3621 0.0
C2203 C 0.27626 0.04741 0.38342 0.0
C2204 C 0.3185 1.00046 0.35697 0.0
C2205 C 0.33954 0.99253 0.36742 0.0
C2206 C 0.29702 0.02717 0.37786 0.0
C2207 C 0.3382 1.00181 0.38311 0.0
C2208 C 0.26644 0.04701 0.39903 0.0
C2209 C 0.25047 0.08837 0.3783 0.0
N2210 N 0.31724 0.01855 0.38789 0.0
N2211 N 0.2678 0.0679 0.37353 0.0
H2212 H 0.14734 0.99398 0.6186 0.0
H2213 H 0.25741 0.10452 0.64197 0.0
H2214 H 0.18412 0.99182 0.66497 0.0
H2215 H 0.25942 0.06806 0.59553 0.0
H2216 H 0.2267 0.0673 0.6508 0.0
H2217 H 0.18433 0.02498 0.60978 0.0
C2218 C 0.16332 0.99996 0.6269 0.0
C2219 C 0.16271 0.99043 0.64255 0.0
C2220 C 0.23411 0.06731 0.63873 0.0
C2221 C 0.20463 0.0262 0.6326 0.0
C2222 C 0.25146 0.08857 0.63366 0.0
C2223 C 0.26086 0.08933 0.61799 0.0
C2224 C 0.22542 0.04713 0.62794 0.0
C2225 C 0.25266 0.06812 0.60771 0.0
C2226 C 0.18444 0.01748 0.62183 0.0
C2227 C 0.18394 0.99867 0.6528 0.0
N2228 N 0.23497 0.04809 0.61279 0.0
N2229 N 0.20383 0.01653 0.64772 0.0
H2230 H 0.14806 0.00626 0.89178 0.0
H2231 H 0.2595 0.8967 0.86905 0.0
H2232 H 0.18612 0.00929 0.84578 0.0
H2233 H 0.26071 0.93324 0.91548 0.0
H2234 H 0.22845 0.93356 0.86011 0.0
H2235 H 0.18494 0.97529 0.9008 0.0
C2236 C 0.16427 1.00045 0.8836 0.0
C2237 C 0.16408 0.01025 0.86799 0.0
C2238 C 0.23574 0.93363 0.8722 0.0
C2239 C 0.20589 0.97453 0.87817 0.0
C2240 C 0.25329 0.91258 0.87734 0.0
C2241 C 0.26259 0.91197 0.89304 0.0
C2242 C 0.22675 0.95373 0.88295 0.0
C2243 C 0.25405 0.93308 0.90328 0.0
C2244 C 0.18533 0.98296 0.88879 0.0
C2245 C 0.18561 0.00223 0.8579 0.0
N2246 N 0.23616 0.9529 0.89813 0.0
N2247 N 0.20545 0.9844 0.86309 0.0
H2248 H 0.76234 0.0683 0.91532 0.0
H2249 H 0.6855 0.99235 0.84428 0.0
H2250 H 0.75865 0.10437 0.86881 0.0
H2251 H 0.65027 0.99508 0.89102 0.0
H2252 H 0.72209 0.0243 0.85311 0.0
H2253 H 0.73041 0.03173 0.90645 0.0
C2254 C 0.75509 0.06829 0.90322 0.0
C2255 C 0.76291 0.08941 0.8928 0.0
C2256 C 0.70643 0.01762 0.86141 0.0
C2257 C 0.72718 0.04761 0.88257 0.0
C2258 C 0.6857 0.99938 0.85642 0.0
C2259 C 0.66481 0.99129 0.86692 0.0
C2260 C 0.70662 0.02706 0.8771 0.0
C2261 C 0.6659 1.00106 0.88252 0.0
C2262 C 0.73688 0.04757 0.89821 0.0
C2263 C 0.75288 0.08857 0.87724 0.0
N2264 N 0.68653 0.01832 0.88718 0.0
N2265 N 0.73564 0.06793 0.87256 0.0
H2266 H 0.64645 0.00888 0.61943 0.0
H2267 H 0.75578 0.89772 0.64312 0.0
H2268 H 0.68265 0.01069 0.66595 0.0
H2269 H 0.75882 0.93467 0.59682 0.0
H2270 H 0.72485 0.93483 0.65184 0.0
H2271 H 0.6833 0.97761 0.61075 0.0
C2272 C 0.66225 0.00275 0.62779 0.0
C2273 C 0.66154 0.01229 0.64344 0.0
C2274 C 0.73252 0.93494 0.63983 0.0
C2275 C 0.7033 0.97621 0.63365 0.0
C2276 C 0.75 0.91374 0.63481 0.0
C2277 C 0.75978 0.91317 0.61921 0.0
C2278 C 0.72408 0.95523 0.62905 0.0
C2279 C 0.75178 0.93447 0.60895 0.0
C2280 C 0.6833 0.98508 0.6228 0.0
C2281 C 0.68256 0.00385 0.65378 0.0
N2282 N 0.73396 0.95443 0.61397 0.0
N2283 N 0.70238 0.98585 0.64878 0.0
H2284 H 0.77977 0.88793 0.39515 0.0
H2285 H 0.81238 0.04044 0.36337 0.0
H2286 H 0.7168 0.95078 0.3911 0.0
H2287 H 0.87476 0.98036 0.37573 0.0
H2288 H 0.77663 0.00797 0.37237 0.0
H2289 H 0.81442 0.92166 0.38722 0.0
C2290 C 0.7732 0.90891 0.39267 0.0
C2291 C 0.74525 0.91648 0.39379 0.0
C2292 C 0.79817 0.00199 0.37313 0.0
C2293 C 0.78507 0.95539 0.3845 0.0
C2294 C 0.81858 0.02046 0.36794 0.0
C2295 C 0.84666 0.01317 0.36879 0.0
C2296 C 0.8059 0.97599 0.37909 0.0
C2297 C 0.85343 0.98699 0.37485 0.0
C2298 C 0.79307 0.92821 0.38812 0.0
C2299 C 0.73811 0.94404 0.39044 0.0
N2300 N 0.83326 0.96942 0.37971 0.0
N2301 N 0.75786 0.96247 0.38585 0.0
H2302 H 0.74495 0.10559 0.14044 0.0
H2303 H 0.85522 0.99509 0.11717 0.0
H2304 H 0.74282 0.06896 0.09403 0.0
H2305 H 0.81823 0.99291 0.16347 0.0
H2306 H 0.81837 0.02623 0.10831 0.0
H2307 H 0.77594 0.06859 0.14924 0.0
C2308 C 0.75095 0.08966 0.13212 0.0
C2309 C 0.7414 0.0903 0.11647 0.0
C2310 C 0.8182 0.01871 0.12036 0.0
C2311 C 0.77717 0.04835 0.12641 0.0
C2312 C 0.83924 1.00111 0.12545 0.0
C2313 C 0.83973 0.9915 0.14109 0.0
C2314 C 0.79797 0.02744 0.13109 0.0
C2315 C 0.8185 0.99981 0.15131 0.0
C2316 C 0.76846 0.06853 0.13718 0.0
C2317 C 0.74967 0.06911 0.1062 0.0
N2318 N 0.79868 0.01773 0.14621 0.0
N2319 N 0.76752 0.0492 0.11128 0.0
H2320 H 0.74303 0.43455 0.59492 0.0
H2321 H 0.81937 0.51031 0.66623 0.0
H2322 H 0.74647 0.39833 0.64141 0.0
H2323 H 0.85482 0.50773 0.61954 0.0
H2324 H 0.78277 0.47844 0.65729 0.0
H2325 H 0.77476 0.47119 0.60392 0.0
C2326 C 0.75018 0.43454 0.60704 0.0
C2327 C 0.74236 0.41335 0.61742 0.0
C2328 C 0.79848 0.48515 0.64903 0.0
C2329 C 0.77786 0.45523 0.62779 0.0
C2330 C 0.81921 0.50333 0.65408 0.0
C2331 C 0.84017 0.51142 0.64363 0.0
C2332 C 0.79836 0.47577 0.63332 0.0
C2333 C 0.83914 0.50173 0.62801 0.0
C2334 C 0.76828 0.4553 0.61213 0.0
C2335 C 0.75226 0.41418 0.63301 0.0
N2336 N 0.81851 0.48452 0.62329 0.0
N2337 N 0.76939 0.43485 0.63776 0.0
H2338 H 0.82103 0.49206 0.84435 0.0
H2339 H 0.74458 0.56763 0.91563 0.0
H2340 H 0.85677 0.49487 0.89098 0.0
H2341 H 0.7478 0.60376 0.86912 0.0
H2342 H 0.77659 0.53119 0.90668 0.0
H2343 H 0.78443 0.52387 0.85331 0.0
C2344 C 0.82094 0.49909 0.85649 0.0
C2345 C 0.84198 0.49106 0.86692 0.0
C2346 C 0.77001 0.54702 0.89846 0.0
C2347 C 0.80015 0.52665 0.87726 0.0
C2348 C 0.75175 0.56766 0.90352 0.0
C2349 C 0.74377 0.58876 0.89312 0.0
C2350 C 0.77959 0.54712 0.88279 0.0
C2351 C 0.7537 0.58798 0.87754 0.0
C2352 C 0.80021 0.51723 0.86156 0.0
C2353 C 0.84103 0.50081 0.88254 0.0
N2354 N 0.77097 0.56742 0.87282 0.0
N2355 N 0.82039 0.51798 0.88727 0.0
H2356 H 0.76047 0.56688 0.09418 0.0
H2357 H 0.68606 0.48992 0.16571 0.0
H2358 H 0.75898 0.6019 0.14099 0.0
H2359 H 0.6485 0.49441 0.11959 0.0
H2360 H 0.72267 0.52155 0.15654 0.0
H2361 H 0.72864 0.53031 0.10321 0.0
C2362 C 0.75374 0.56663 0.10637 0.0
C2363 C 0.76213 0.58746 0.11684 0.0
C2364 C 0.7065 0.5153 0.14844 0.0
C2365 C 0.72654 0.54567 0.12724 0.0
C2366 C 0.68576 0.49725 0.15362 0.0
C2367 C 0.66421 0.48977 0.14341 0.0
C2368 C 0.70603 0.52517 0.13284 0.0
C2369 C 0.66466 0.49991 0.12787 0.0
C2370 C 0.73558 0.54591 0.11148 0.0
C2371 C 0.75275 0.58632 0.13252 0.0
N2372 N 0.68531 0.51699 0.12302 0.0
N2373 N 0.73557 0.5657 0.13728 0.0
H2374 H 0.76035 0.39732 0.36934 0.0
H2375 H 0.65201 0.51002 0.39257 0.0
H2376 H 0.76349 0.4347 0.41553 0.0
H2377 H 0.68793 0.5104 0.34598 0.0
H2378 H 0.6885 0.47843 0.40139 0.0
H2379 H 0.72966 0.43453 0.36046 0.0
C2380 C 0.75465 0.41346 0.37759 0.0
C2381 C 0.76441 0.41297 0.3932 0.0
C2382 C 0.68852 0.48565 0.38929 0.0
C2383 C 0.72895 0.45517 0.38319 0.0
C2384 C 0.66768 0.50352 0.38421 0.0
C2385 C 0.66699 0.51277 0.36851 0.0
C2386 C 0.70835 0.47629 0.37847 0.0
C2387 C 0.68783 0.50381 0.35819 0.0
C2388 C 0.7373 0.43471 0.37248 0.0
C2389 C 0.75649 0.43442 0.40339 0.0
N2390 N 0.70744 0.48566 0.36329 0.0
N2391 N 0.7388 0.45445 0.39828 0.0
H2392 H 0.14839 0.49781 0.39135 0.0
H2393 H 0.25986 0.60731 0.36777 0.0
H2394 H 0.18531 0.49509 0.34504 0.0
H2395 H 0.26113 0.57119 0.41431 0.0
H2396 H 0.22835 0.57067 0.35904 0.0
H2397 H 0.18529 0.529 0.40008 0.0
C2398 C 0.16434 0.50374 0.38304 0.0
C2399 C 0.16383 0.49394 0.36744 0.0
C2400 C 0.23574 0.57065 0.37112 0.0
C2401 C 0.20568 0.52994 0.37729 0.0
C2402 C 0.25356 0.59158 0.37614 0.0
C2403 C 0.26304 0.59225 0.3918 0.0
C2404 C 0.22668 0.55071 0.38195 0.0
C2405 C 0.25435 0.57132 0.40213 0.0
C2406 C 0.18542 0.52137 0.38806 0.0
C2407 C 0.18506 0.50214 0.35717 0.0
N2408 N 0.23624 0.55161 0.39709 0.0
N2409 N 0.20492 0.52007 0.36221 0.0
H2410 H 0.25746 0.39226 0.1445 0.0
H2411 H 0.15143 0.50669 0.12038 0.0
H2412 H 0.26451 0.43266 0.09928 0.0
H2413 H 0.18402 0.50549 0.16777 0.0
H2414 H 0.1882 0.47495 0.11214 0.0
H2415 H 0.22599 0.429 0.15327 0.0
C2416 C 0.25245 0.40894 0.13645 0.0
C2417 C 0.26355 0.40948 0.12114 0.0
C2418 C 0.18742 0.48184 0.12431 0.0
C2419 C 0.22727 0.45106 0.131 0.0
C2420 C 0.16643 0.49979 0.12903 0.0
C2421 C 0.16476 0.50868 0.14478 0.0
C2422 C 0.20638 0.47201 0.13549 0.0
C2423 C 0.18472 0.4992 0.15551 0.0
C2424 C 0.23466 0.4299 0.14149 0.0
C2425 C 0.25648 0.43157 0.11119 0.0
N2426 N 0.2045 0.48096 0.15073 0.0
N2427 N 0.23839 0.45128 0.11621 0.0
H2428 H 0.36875 0.47581 0.86579 0.0
H2429 H 0.2151 0.44656 0.89722 0.0
H2430 H 0.30745 0.54024 0.87015 0.0
H2431 H 0.27717 0.3838 0.88965 0.0
H2432 H 0.24816 0.48164 0.88804 0.0
H2433 H 0.33482 0.44222 0.87471 0.0
C2434 C 0.34806 0.48292 0.86854 0.0
C2435 C 0.34101 0.51099 0.86722 0.0
C2436 C 0.25448 0.46017 0.88843 0.0
C2437 C 0.30181 0.47234 0.87765 0.0
C2438 C 0.23567 0.44016 0.89374 0.0
C2439 C 0.24329 0.41214 0.89419 0.0
C2440 C 0.28109 0.45208 0.88358 0.0
C2441 C 0.27022 0.40508 0.88947 0.0
C2442 C 0.32864 0.46366 0.87368 0.0
C2443 C 0.31379 0.51882 0.87095 0.0
N2444 N 0.28802 0.42484 0.88437 0.0
N2445 N 0.2952 0.49962 0.87607 0.0
H2446 H 0.31871 0.49373 0.66424 0.0
H2447 H 0.24129 0.56925 0.59328 0.0
H2448 H 0.35344 0.49585 0.61736 0.0
H2449 H 0.2463 0.60607 0.63957 0.0
H2450 H 0.27303 0.53251 0.60215 0.0
H2451 H 0.28214 0.52571 0.65542 0.0
C2452 C 0.31839 0.50063 0.65207 0.0
C2453 C 0.33914 0.49238 0.64152 0.0
C2454 C 0.26689 0.54856 0.61035 0.0
C2455 C 0.29736 0.52815 0.63137 0.0
C2456 C 0.24879 0.56938 0.60534 0.0
C2457 C 0.24142 0.59075 0.61569 0.0
C2458 C 0.2769 0.54878 0.62592 0.0
C2459 C 0.25175 0.59007 0.63119 0.0
C2460 C 0.29768 0.51887 0.64709 0.0
C2461 C 0.33792 0.50197 0.62589 0.0
N2462 N 0.26886 0.56935 0.63587 0.0
N2463 N 0.3173 0.51925 0.62125 0.0
H2464 H 0.35752 0.10991 0.12699 0.0
H2465 H 0.38561 0.26375 0.09721 0.0
H2466 H 0.42848 0.15682 0.14231 0.0
H2467 H 0.30387 0.23646 0.11022 0.0
H2468 H 0.40418 0.21895 0.10601 0.0
H2469 H 0.34007 0.15128 0.11327 0.0
C2470 C 0.36956 0.12879 0.12727 0.0
C2471 C 0.39434 0.1301 0.13586 0.0
C2472 C 0.38213 0.22271 0.10667 0.0
C2473 C 0.37494 0.17693 0.12 0.0
C2474 C 0.37153 0.24808 0.10155 0.0
C2475 C 0.34323 0.25372 0.10307 0.0
C2476 C 0.36415 0.20273 0.11294 0.0
C2477 C 0.32586 0.2329 0.10897 0.0
C2478 C 0.35959 0.1523 0.11952 0.0
C2479 C 0.40915 0.15507 0.13593 0.0
N2480 N 0.33658 0.20826 0.11368 0.0
N2481 N 0.39929 0.17749 0.12807 0.0
H2482 H 0.09709 0.17979 0.39332 0.0
H2483 H 0.01964 0.05374 0.3567 0.0
H2484 H 0.14394 0.11013 0.37615 0.0
H2485 H 0.99257 0.13675 0.34659 0.0
H2486 H 0.06406 0.07219 0.36598 0.0
H2487 H 0.05666 0.16299 0.37873 0.0
C2488 C 0.09886 0.16099 0.38644 0.0
C2489 C 0.12384 0.14626 0.38595 0.0
C2490 C 0.04856 0.08629 0.36147 0.0
C2491 C 0.07764 0.1268 0.36948 0.0
C2492 C 0.02326 0.07582 0.35622 0.0
C2493 C 0.00254 0.09379 0.35085 0.0
C2494 C 0.05274 0.11498 0.36185 0.0
C2495 C 0.00816 0.12223 0.3505 0.0
C2496 C 0.07588 0.15156 0.37805 0.0
C2497 C 0.12507 0.12211 0.37678 0.0
N2498 N 0.03256 0.13204 0.35623 0.0
N2499 N 0.10212 0.11285 0.36909 0.0
H2500 H 0.10513 0.84707 0.65999 0.0
H2501 H 0.14793 0.76381 0.58387 0.0
H2502 H 0.11591 0.89205 0.61634 0.0
H2503 H 0.18027 0.74692 0.63046 0.0
H2504 H 0.12953 0.8081 0.59387 0.0
H2505 H 0.12471 0.80638 0.64764 0.0
C2506 C 0.1117 0.84855 0.64781 0.0
C2507 C 0.1093 0.87338 0.63932 0.0
C2508 C 0.14092 0.79462 0.60175 0.0
C2509 C 0.13138 0.82616 0.62496 0.0
C2510 C 0.15138 0.7694 0.59609 0.0
C2511 C 0.16551 0.75136 0.60633 0.0
C2512 C 0.1442 0.80139 0.61776 0.0
C2513 C 0.16937 0.75979 0.62207 0.0
C2514 C 0.12289 0.82518 0.64076 0.0
C2515 C 0.11771 0.87349 0.6234 0.0
N2516 N 0.15851 0.7839 0.62729 0.0
N2517 N 0.12834 0.85014 0.61667 0.0
H2518 H 0.50845 0.93096 0.88221 0.0
H2519 H 0.36078 0.86654 0.86628 0.0
H2520 H 0.49048 0.89898 0.83567 0.0
H2521 H 0.40697 0.85523 0.90947 0.0
H2522 H 0.40262 0.88636 0.854 0.0
H2523 H 0.46477 0.91285 0.89153 0.0
C2524 C 0.49531 0.92029 0.87384 0.0
C2525 C 0.50353 0.91626 0.8581 0.0
C2526 C 0.40333 0.87946 0.86616 0.0
C2527 C 0.45292 0.89548 0.86891 0.0
C2528 C 0.37953 0.86828 0.8732 0.0
C2529 C 0.38012 0.85955 0.88905 0.0
C2530 C 0.42752 0.88239 0.87517 0.0
C2531 C 0.40515 0.86202 0.89735 0.0
C2532 C 0.47031 0.90988 0.87925 0.0
C2533 C 0.48512 0.90243 0.84791 0.0
N2534 N 0.42761 0.87343 0.89038 0.0
N2535 N 0.46058 0.89243 0.85351 0.0
H2536 H 0.35359 0.76652 0.42462 0.0
H2537 H 0.40219 0.85038 0.34937 0.0
H2538 H 0.32978 0.74641 0.3768 0.0
H2539 H 0.3866 0.8944 0.39285 0.0
H2540 H 0.38317 0.80886 0.3611 0.0
H2541 H 0.37196 0.81105 0.41495 0.0
C2542 C 0.35204 0.77143 0.41218 0.0
C2543 C 0.34023 0.75247 0.40153 0.0
C2544 C 0.38381 0.82761 0.36809 0.0
C2545 C 0.36153 0.80283 0.39049 0.0
C2546 C 0.39469 0.85147 0.36139 0.0
C2547 C 0.39559 0.87626 0.37 0.0
C2548 C 0.37408 0.8281 0.38367 0.0
C2549 C 0.38599 0.87587 0.38569 0.0
C2550 C 0.36248 0.7968 0.40671 0.0
C2551 C 0.33879 0.76004 0.38552 0.0
N2552 N 0.37566 0.85209 0.39208 0.0
N2553 N 0.34953 0.78436 0.38053 0.0
H2554 H 0.40373 0.14827 0.59963 0.0
H2555 H 0.48752 0.10392 0.67566 0.0
H2556 H 0.35965 0.13634 0.64346 0.0
H2557 H 0.50636 0.07565 0.62847 0.0
H2558 H 0.4431 0.12211 0.66571 0.0
H2559 H 0.44493 0.12919 0.6117 0.0
C2560 C 0.40256 0.14155 0.61179 0.0
C2561 C 0.37785 0.14351 0.62041 0.0
C2562 C 0.45704 0.11168 0.65768 0.0
C2563 C 0.42563 0.12195 0.63447 0.0
C2564 C 0.48235 0.10134 0.66331 0.0
C2565 C 0.50094 0.08836 0.6529 0.0
C2566 C 0.45072 0.10945 0.64154 0.0
C2567 C 0.49304 0.08561 0.637 0.0
C2568 C 0.42623 0.13063 0.61869 0.0
C2569 C 0.37813 0.13489 0.6363 0.0
N2570 N 0.4688 0.09629 0.63183 0.0
N2571 N 0.40173 0.12453 0.64287 0.0
H2572 H 0.11744 0.10859 0.89441 0.0
H2573 H 0.18194 0.25694 0.87944 0.0
H2574 H 0.1098 0.1541 0.85073 0.0
H2575 H 0.14993 0.2371 0.92571 0.0
H2576 H 0.1645 0.21333 0.86963 0.0
H2577 H 0.13676 0.15043 0.90693 0.0
C2578 C 0.1199 0.1272 0.88743 0.0
C2579 C 0.11229 0.1276 0.87139 0.0
C2580 C 0.16133 0.21844 0.88195 0.0
C2581 C 0.13453 0.17504 0.88557 0.0
C2582 C 0.17138 0.2434 0.88764 0.0
C2583 C 0.16718 0.25105 0.90346 0.0
C2584 C 0.14711 0.20053 0.89208 0.0
C2585 C 0.1535 0.23217 0.91342 0.0
C2586 C 0.13079 0.151 0.89461 0.0
C2587 C 0.11567 0.15244 0.86301 0.0
N2588 N 0.14386 0.20769 0.90755 0.0
N2589 N 0.12673 0.17493 0.87015 0.0
H2590 H 0.09759 0.85342 0.10017 0.0
H2591 H 0.01286 0.90031 0.17494 0.0
H2592 H 0.1421 0.86855 0.14356 0.0
H2593 H 0.99574 0.92861 0.12753 0.0
H2594 H 0.05758 0.882 0.16552 0.0
H2595 H 0.05641 0.87295 0.11195 0.0
C2596 C 0.09887 0.86094 0.11217 0.0
C2597 C 0.12371 0.85978 0.12074 0.0
C2598 C 0.04396 0.89248 0.15733 0.0
C2599 C 0.07591 0.88182 0.13447 0.0
C2600 C 0.01848 0.90288 0.16265 0.0
C2601 C 1.00027 0.91586 0.15201 0.0
C2602 C 0.05081 0.89466 0.14127 0.0
C2603 C 0.00875 0.91862 0.13622 0.0
C2604 C 0.07521 0.8721 0.1189 0.0
C2605 C 0.12354 0.86938 0.13644 0.0
N2606 N 0.03312 0.90785 0.13134 0.0
N2607 N 0.09991 0.87997 0.14287 0.0
H2608 H 0.68221 0.74444 0.87775 0.0
H2609 H 0.61842 0.89237 0.89398 0.0
H2610 H 0.65034 0.76259 0.92428 0.0
H2611 H 0.60831 0.84721 0.85035 0.0
H2612 H 0.63776 0.85022 0.90615 0.0
H2613 H 0.66438 0.7882 0.86841 0.0
C2614 C 0.6716 0.75763 0.88611 0.0
C2615 C 0.66756 0.74945 0.90186 0.0
C2616 C 0.63123 0.84979 0.89392 0.0
C2617 C 0.64708 0.80018 0.89102 0.0
C2618 C 0.62034 0.87378 0.88694 0.0
C2619 C 0.61206 0.87357 0.871 0.0
C2620 C 0.63432 0.82578 0.88478 0.0
C2621 C 0.61474 0.84873 0.86254 0.0
C2622 C 0.66134 0.78268 0.88069 0.0
C2623 C 0.6538 0.76792 0.91203 0.0
N2624 N 0.62585 0.82607 0.86947 0.0
N2625 N 0.64397 0.79252 0.90642 0.0
H2626 H 0.00534 0.93229 0.62878 0.0
H2627 H 0.85838 0.86679 0.64554 0.0
H2628 H 0.98876 0.89903 0.67519 0.0
H2629 H 0.90317 0.85738 0.60174 0.0
H2630 H 0.90048 0.88651 0.65759 0.0
H2631 H 0.96138 0.91448 0.61971 0.0
C2632 C 0.99244 0.9214 0.63718 0.0
C2633 C 1.00113 0.91692 0.6528 0.0
C2634 C 0.90082 0.88005 0.64536 0.0
C2635 C 0.95021 0.89645 0.64228 0.0
C2636 C 0.87688 0.86894 0.63844 0.0
C2637 C 0.877 0.86076 0.62249 0.0
C2638 C 0.92468 0.88347 0.63613 0.0
C2639 C 0.90171 0.86373 0.61395 0.0
C2640 C 0.96728 0.91116 0.63191 0.0
C2641 C 0.98302 0.90283 0.66303 0.0
N2642 N 0.92432 0.87506 0.62081 0.0
N2643 N 0.95832 0.89298 0.65758 0.0
H2644 H 0.8137 0.25171 0.38187 0.0
H2645 H 0.89847 0.11254 0.39438 0.0
H2646 H 0.86181 0.24139 0.42448 0.0
H2647 H 0.88429 0.15281 0.34958 0.0
H2648 H 0.87804 0.15316 0.40775 0.0
H2649 H 0.83065 0.20778 0.37239 0.0
C2650 C 0.82765 0.24015 0.38938 0.0
C2651 C 0.83653 0.25065 0.40399 0.0
C2652 C 0.87945 0.1528 0.39499 0.0
C2653 C 0.85635 0.19981 0.39291 0.0
C2654 C 0.89096 0.12967 0.38735 0.0
C2655 C 0.89289 0.12899 0.37077 0.0
C2656 C 0.86938 0.17493 0.38591 0.0
C2657 C 0.88308 0.15196 0.36231 0.0
C2658 C 0.83742 0.21498 0.38387 0.0
C2659 C 0.85452 0.23422 0.41311 0.0
N2660 N 0.87166 0.17371 0.36994 0.0
N2661 N 0.86407 0.2096 0.40736 0.0
H2662 H 0.6431 0.13654 0.14333 0.0
H2663 H 0.49496 0.07209 0.12764 0.0
H2664 H 0.59768 0.14543 0.09969 0.0
H2665 H 0.51378 0.1047 0.17392 0.0
H2666 H 0.53893 0.08926 0.11812 0.0
H2667 H 0.60123 0.11683 0.15561 0.0
C2668 C 0.62452 0.13425 0.13631 0.0
C2669 C 0.62414 0.14234 0.12034 0.0
C2670 C 0.53352 0.09256 0.13038 0.0
C2671 C 0.57671 0.11961 0.13423 0.0
C2672 C 0.50836 0.08269 0.1359 0.0
C2673 C 0.50032 0.08721 0.15163 0.0
C2674 C 0.55119 0.10691 0.1406 0.0
C2675 C 0.51902 0.1009 0.16169 0.0
C2676 C 0.6007 0.12314 0.14335 0.0
C2677 C 0.59933 0.13917 0.1119 0.0
N2678 N 0.54367 0.11039 0.15599 0.0
N2679 N 0.57684 0.12786 0.11889 0.0
H2680 H 0.65029 0.23972 0.58514 0.0
H2681 H 0.6048 0.15667 0.66095 0.0
H2682 H 0.67996 0.25755 0.63219 0.0
H2683 H 0.61695 0.11185 0.61737 0.0
H2684 H 0.62471 0.19743 0.64884 0.0
H2685 H 0.6317 0.19543 0.59503 0.0
C2686 C 0.65312 0.23434 0.59745 0.0
C2687 C 0.66656 0.25263 0.60784 0.0
C2688 C 0.62314 0.17865 0.64192 0.0
C2689 C 0.64502 0.20258 0.61913 0.0
C2690 C 0.61175 0.15524 0.64883 0.0
C2691 C 0.60962 0.13044 0.6403 0.0
C2692 C 0.63209 0.17774 0.6262 0.0
C2693 C 0.61853 0.13039 0.62447 0.0
C2694 C 0.64254 0.20911 0.60304 0.0
C2695 C 0.66962 0.24447 0.62368 0.0
N2696 N 0.62933 0.15377 0.61787 0.0
N2697 N 0.65868 0.22033 0.62882 0.0
H2698 H 0.49805 0.93787 0.38179 0.0
H2699 H 0.64613 0.874 0.36752 0.0
H2700 H 0.51604 0.90501 0.33546 0.0
H2701 H 0.59715 0.85986 0.4094 0.0
H2702 H 0.6049 0.89421 0.35469 0.0
H2703 H 0.54177 0.92005 0.39123 0.0
C2704 C 0.51122 0.92711 0.37348 0.0
C2705 C 0.50295 0.92267 0.35778 0.0
C2706 C 0.60347 0.88659 0.36668 0.0
C2707 C 0.55362 0.90224 0.36874 0.0
C2708 C 0.62691 0.8752 0.37404 0.0
C2709 C 0.62535 0.86557 0.3897 0.0
C2710 C 0.57869 0.88885 0.37521 0.0
C2711 C 0.59975 0.86736 0.39747 0.0
C2712 C 0.53625 0.91688 0.37896 0.0
C2713 C 0.52143 0.90876 0.34768 0.0
N2714 N 0.57768 0.87902 0.39023 0.0
N2715 N 0.54598 0.89888 0.35335 0.0
H2716 H 0.822 0.74399 0.13215 0.0
H2717 H 0.88636 0.89181 0.11536 0.0
H2718 H 0.85397 0.76216 0.08565 0.0
H2719 H 0.89409 0.84802 0.15959 0.0
H2720 H 0.86707 0.84949 0.10338 0.0
H2721 H 0.83943 0.78795 0.14144 0.0
C2722 C 0.83254 0.75723 0.12379 0.0
C2723 C 0.83673 0.749 0.10806 0.0
C2724 C 0.87305 0.84939 0.1157 0.0
C2725 C 0.85679 0.79995 0.11884 0.0
C2726 C 0.88391 0.87348 0.12257 0.0
C2727 C 0.89155 0.8737 0.13861 0.0
C2728 C 0.86934 0.8257 0.12504 0.0
C2729 C 0.8882 0.8492 0.1473 0.0
C2730 C 0.84259 0.7824 0.12918 0.0
C2731 C 0.8504 0.76752 0.09788 0.0
N2732 N 0.87716 0.82642 0.14045 0.0
N2733 N 0.86004 0.79222 0.10346 0.0
H2734 H 0.99166 0.10371 0.83461 0.0
H2735 H 0.90698 0.14646 0.91012 0.0
H2736 H 0.00762 0.07135 0.8813 0.0
H2737 H 0.86247 0.13507 0.86635 0.0
H2738 H 0.94785 0.12693 0.89798 0.0
H2739 H 0.94705 0.12189 0.84429 0.0
C2740 C 0.9858 0.1002 0.84678 0.0
C2741 C 0.00368 0.08615 0.85715 0.0
C2742 C 0.92912 0.12859 0.89103 0.0
C2743 C 0.95327 0.10719 0.86821 0.0
C2744 C 0.90563 0.13975 0.89795 0.0
C2745 C 0.88088 0.14197 0.88938 0.0
C2746 C 0.92835 0.11996 0.87525 0.0
C2747 C 0.88097 0.1334 0.87348 0.0
C2748 C 0.96039 0.11053 0.85225 0.0
C2749 C 0.9949 0.08221 0.87281 0.0
N2750 N 0.90444 0.12281 0.86687 0.0
N2751 N 0.97061 0.09294 0.87786 0.0
H2752 H 0.81959 0.75629 0.63313 0.0
H2753 H 0.88511 0.60956 0.61641 0.0
H2754 H 0.85202 0.73983 0.58652 0.0
H2755 H 0.89701 0.65552 0.65963 0.0
H2756 H 0.8648 0.65137 0.60435 0.0
H2757 H 0.83803 0.71254 0.64213 0.0
C2758 C 0.83041 0.74346 0.62468 0.0
C2759 C 0.8345 0.75213 0.60902 0.0
C2760 C 0.87195 0.65203 0.61646 0.0
C2761 C 0.85564 0.70145 0.61945 0.0
C2762 C 0.88339 0.62825 0.62338 0.0
C2763 C 0.89242 0.62878 0.63918 0.0
C2764 C 0.86904 0.67612 0.62555 0.0
C2765 C 0.88998 0.65373 0.64755 0.0
C2766 C 0.84101 0.71842 0.6299 0.0
C2767 C 0.84853 0.73411 0.59871 0.0
N2768 N 0.8783 0.67617 0.6407 0.0
N2769 N 0.85872 0.70953 0.60412 0.0
H2770 H 0.64522 0.63515 0.8656 0.0
H2771 H 0.49694 0.57039 0.88017 0.0
H2772 H 0.59937 0.64329 0.90911 0.0
H2773 H 0.51625 0.60416 0.83423 0.0
H2774 H 0.54071 0.5875 0.89004 0.0
H2775 H 0.60345 0.61578 0.85303 0.0
C2776 C 0.62656 0.63276 0.87254 0.0
C2777 C 0.62603 0.64054 0.88855 0.0
C2778 C 0.53544 0.59109 0.87777 0.0
C2779 C 0.57869 0.61821 0.87432 0.0
C2780 C 0.5104 0.58124 0.87205 0.0
C2781 C 0.50255 0.58608 0.85632 0.0
C2782 C 0.55322 0.6057 0.86775 0.0
C2783 C 0.52133 0.6001 0.84646 0.0
C2784 C 0.6028 0.62184 0.86533 0.0
C2785 C 0.60113 0.63726 0.89687 0.0
N2786 N 0.54588 0.60952 0.85235 0.0
N2787 N 0.57868 0.62614 0.88971 0.0
H2788 H 0.61485 0.39341 0.1162 0.0
H2789 H 0.68303 0.24719 0.13086 0.0
H2790 H 0.60743 0.34706 0.1596 0.0
H2791 H 0.64693 0.26357 0.08511 0.0
H2792 H 0.66496 0.29072 0.14037 0.0
H2793 H 0.63437 0.35184 0.10344 0.0
C2794 C 0.61735 0.37468 0.12305 0.0
C2795 C 0.60984 0.37398 0.13911 0.0
C2796 C 0.66107 0.28488 0.12822 0.0
C2797 C 0.63232 0.32692 0.12469 0.0
C2798 C 0.67146 0.25996 0.1227 0.0
C2799 C 0.66626 0.25131 0.10714 0.0
C2800 C 0.64548 0.30176 0.11818 0.0
C2801 C 0.6513 0.26927 0.09721 0.0
C2802 C 0.62835 0.35104 0.11575 0.0
C2803 C 0.61326 0.34899 0.14733 0.0
N2804 N 0.64131 0.29373 0.10292 0.0
N2805 N 0.62448 0.32671 0.14009 0.0
H2806 H 0.86163 0.36477 0.36643 0.0
H2807 H 0.0082 0.43192 0.38225 0.0
H2808 H 0.90733 0.35618 0.40999 0.0
H2809 H 0.99096 0.39881 0.33588 0.0
H2810 H 0.96477 0.41335 0.39161 0.0
H2811 H 0.90336 0.38468 0.35406 0.0
C2812 C 0.88026 0.3671 0.3734 0.0
C2813 C 0.88072 0.35912 0.38939 0.0
C2814 C 0.9704 0.4102 0.37936 0.0
C2815 C 0.928 0.38205 0.37539 0.0
C2816 C 0.99527 0.42089 0.37393 0.0
C2817 C 0.00362 0.41671 0.35822 0.0
C2818 C 0.95328 0.39534 0.36909 0.0
C2819 C 0.98548 0.40239 0.3481 0.0
C2820 C 0.90399 0.37833 0.36631 0.0
C2821 C 0.90559 0.36235 0.39776 0.0
N2822 N 0.96107 0.39212 0.35372 0.0
N2823 N 0.92798 0.37378 0.39073 0.0
H2824 H 0.90018 0.34685 0.84981 0.0
H2825 H 0.85436 0.26324 0.92525 0.0
H2826 H 0.88675 0.39169 0.89326 0.0
H2827 H 0.82527 0.24547 0.87808 0.0
H2828 H 0.87263 0.30777 0.91552 0.0
H2829 H 0.88044 0.30596 0.86182 0.0
C2830 C 0.89298 0.34827 0.86187 0.0
C2831 C 0.8947 0.37311 0.87039 0.0
C2832 C 0.86198 0.29405 0.90745 0.0
C2833 C 0.87242 0.32563 0.88438 0.0
C2834 C 0.85159 0.26869 0.91295 0.0
C2835 C 0.83842 0.25034 0.90247 0.0
C2836 C 0.85958 0.30067 0.89137 0.0
C2837 C 0.83542 0.25859 0.88665 0.0
C2838 C 0.88169 0.32477 0.86873 0.0
C2839 C 0.88549 0.37312 0.88617 0.0
N2840 N 0.84617 0.28287 0.8816 0.0
N2841 N 0.87478 0.34964 0.89272 0.0
H2842 H 0.00988 0.57203 0.12784 0.0
H2843 H 0.86078 0.63341 0.14389 0.0
H2844 H 0.99021 0.60184 0.17462 0.0
H2845 H 0.90645 0.64517 0.10058 0.0
H2846 H 0.90296 0.61419 0.15609 0.0
H2847 H 0.96607 0.5896 0.1184 0.0
C2848 C 0.99634 0.58213 0.13623 0.0
C2849 C 0.0041 0.58567 0.15209 0.0
C2850 C 0.90349 0.62105 0.14393 0.0
C2851 C 0.95332 0.60585 0.14113 0.0
C2852 C 0.87949 0.63188 0.13693 0.0
C2853 C 0.87983 0.64059 0.12107 0.0
C2854 C 0.92766 0.61846 0.13487 0.0
C2855 C 0.90481 0.6384 0.11271 0.0
C2856 C 0.97126 0.59225 0.13075 0.0
C2857 C 0.98521 0.59879 0.16228 0.0
N2858 N 0.9275 0.62735 0.11965 0.0
N2859 N 0.9606 0.60848 0.15662 0.0
H2860 H 0.61004 0.65751 0.34986 0.0
H2861 H 0.65095 0.74237 0.42617 0.0
H2862 H 0.62123 0.61429 0.39405 0.0
H2863 H 0.67832 0.7629 0.37904 0.0
H2864 H 0.6343 0.69749 0.41607 0.0
H2865 H 0.6283 0.6991 0.36185 0.0
C2866 C 0.61649 0.6566 0.36209 0.0
C2867 C 0.61449 0.63202 0.37084 0.0
C2868 C 0.64418 0.71189 0.40808 0.0
C2869 C 0.63508 0.68032 0.38481 0.0
C2870 C 0.65362 0.73748 0.41379 0.0
C2871 C 0.66593 0.75665 0.40345 0.0
C2872 C 0.64665 0.70582 0.39192 0.0
C2873 C 0.66887 0.74908 0.38752 0.0
C2874 C 0.62693 0.6805 0.36894 0.0
C2875 C 0.62272 0.63264 0.38679 0.0
N2876 N 0.65908 0.72451 0.38227 0.0
N2877 N 0.63258 0.6565 0.39332 0.0
H2878 H 0.64313 0.36771 0.64364 0.0
H2879 H 0.49549 0.43174 0.62636 0.0
H2880 H 0.59883 0.35793 0.59969 0.0
H2881 H 0.51324 0.40056 0.6731 0.0
H2882 H 0.53944 0.41394 0.61728 0.0
H2883 H 0.60088 0.3874 0.65549 0.0
C2884 C 0.62471 0.36979 0.63647 0.0
C2885 C 0.62477 0.36148 0.62054 0.0
C2886 C 0.5338 0.41105 0.62954 0.0
C2887 C 0.57689 0.38414 0.63395 0.0
C2888 C 0.50864 0.4213 0.63481 0.0
C2889 C 0.5003 0.41742 0.65055 0.0
C2890 C 0.55121 0.39697 0.64002 0.0
C2891 C 0.5187 0.40387 0.66086 0.0
C2892 C 0.60067 0.38088 0.64326 0.0
C2893 C 0.60015 0.36436 0.61189 0.0
N2894 N 0.54339 0.39404 0.6554 0.0
N2895 N 0.57743 0.37565 0.61865 0.0
H2896 H 0.11846 0.39431 0.39406 0.0
H2897 H 0.18284 0.24618 0.37795 0.0
H2898 H 0.11031 0.34964 0.35014 0.0
H2899 H 0.15024 0.26489 0.42424 0.0
H2900 H 0.16596 0.29032 0.3685 0.0
H2901 H 0.1382 0.35233 0.40619 0.0
C2902 C 0.12094 0.37588 0.38694 0.0
C2903 C 0.11302 0.37574 0.37095 0.0
C2904 C 0.1626 0.28485 0.38075 0.0
C2905 C 0.13578 0.32816 0.38467 0.0
C2906 C 0.17231 0.25959 0.38623 0.0
C2907 C 0.1677 0.25147 0.40194 0.0
C2908 C 0.14833 0.30253 0.39099 0.0
C2909 C 0.1541 0.27018 0.41202 0.0
C2910 C 0.13207 0.35199 0.3939 0.0
C2911 C 0.11642 0.35111 0.36238 0.0
N2912 N 0.14478 0.29492 0.40636 0.0
N2913 N 0.12773 0.32853 0.3693 0.0
H2914 H 0.39825 0.37859 0.09981 0.0
H2915 H 0.49371 0.39202 0.17541 0.0
H2916 H 0.36681 0.35412 0.14543 0.0
H2917 H 0.50209 0.44122 0.1331 0.0
H2918 H 0.44864 0.37543 0.16557 0.0
H2919 H 0.4384 0.39828 0.11242 0.0
C2920 C 0.39961 0.37747 0.11254 0.0
C2921 C 0.37882 0.36478 0.12153 0.0
C2922 C 0.46033 0.39015 0.15863 0.0
C2923 C 0.42561 0.38732 0.13622 0.0
C2924 C 0.48601 0.39964 0.16422 0.0
C2925 C 0.50198 0.4179 0.15504 0.0
C2926 C 0.45086 0.39883 0.14374 0.0
C2927 C 0.49089 0.42702 0.14061 0.0
C2928 C 0.4227 0.38885 0.11977 0.0
C2929 C 0.38222 0.36389 0.13803 0.0
N2930 N 0.46631 0.41722 0.13541 0.0
N2931 N 0.40535 0.37484 0.14488 0.0
H2932 H 0.32216 0.75568 0.87847 0.0
H2933 H 0.38619 0.60794 0.89225 0.0
H2934 H 0.35596 0.73808 0.92464 0.0
H2935 H 0.40099 0.6573 0.85058 0.0
H2936 H 0.36642 0.6492 0.90523 0.0
H2937 H 0.34047 0.71225 0.86893 0.0
C2938 C 0.33325 0.74266 0.88672 0.0
C2939 C 0.33778 0.75095 0.90241 0.0
C2940 C 0.37413 0.65072 0.89326 0.0
C2941 C 0.35872 0.7006 0.89134 0.0
C2942 C 0.38526 0.62727 0.88582 0.0
C2943 C 0.3949 0.62893 0.87016 0.0
C2944 C 0.37214 0.67561 0.88482 0.0
C2945 C 0.39346 0.65465 0.8625 0.0
C2946 C 0.34375 0.7178 0.88118 0.0
C2947 C 0.35213 0.73267 0.91244 0.0
N2948 N 0.38202 0.67674 0.86982 0.0
N2949 N 0.36222 0.70825 0.90672 0.0
H2950 H 0.99654 0.57073 0.62804 0.0
H2951 H 0.14369 0.63718 0.64306 0.0
H2952 H 0.01446 0.60477 0.67412 0.0
H2953 H 0.09765 0.64552 0.5996 0.0
H2954 H 0.10205 0.61748 0.6556 0.0
H2955 H 0.0401 0.58862 0.61844 0.0
C2956 C 0.00965 0.58181 0.63625 0.0
C2957 C 1.00144 0.58648 0.65194 0.0
C2958 C 0.10132 0.6237 0.64333 0.0
C2959 C 0.05192 0.60703 0.6408 0.0
C2960 C 0.12501 0.63479 0.63614 0.0
C2961 C 0.1244 0.64268 0.62014 0.0
C2962 C 0.07722 0.62 0.63433 0.0
C2963 C 0.09948 0.63941 0.61183 0.0
C2964 C 0.03458 0.5921 0.63068 0.0
C2965 C 0.01981 0.60082 0.66192 0.0
N2966 N 0.07711 0.62811 0.61897 0.0
N2967 N 0.04428 0.6107 0.65616 0.0
H2968 H 0.12004 0.60852 0.11676 0.0
H2969 H 0.18262 0.75711 0.13259 0.0
H2970 H 0.10853 0.6546 0.15996 0.0
H2971 H 0.15146 0.73826 0.08598 0.0
H2972 H 0.16511 0.71325 0.14197 0.0
H2973 H 0.13951 0.65051 0.10447 0.0
C2974 C 0.12169 0.62728 0.12368 0.0
C2975 C 0.11298 0.6278 0.13954 0.0
C2976 C 0.16217 0.71863 0.12967 0.0
C2977 C 0.13539 0.67538 0.12563 0.0
C2978 C 0.17225 0.74374 0.12422 0.0
C2979 C 0.16828 0.75176 0.10843 0.0
C2980 C 0.14816 0.70093 0.11933 0.0
C2981 C 0.15485 0.73305 0.09825 0.0
C2982 C 0.13266 0.65116 0.11663 0.0
C2983 C 0.11531 0.65283 0.14784 0.0
N2984 N 0.14517 0.70841 0.10389 0.0
N2985 N 0.1265 0.67539 0.14085 0.0
H2986 H 0.09759 0.35313 0.91103 0.0
H2987 H 0.01644 0.3998 0.8351 0.0
H2988 H 0.14461 0.36833 0.86854 0.0
H2989 H 0.99798 0.42943 0.88206 0.0
H2990 H 0.0608 0.38158 0.84514 0.0
H2991 H 0.05722 0.373 0.89854 0.0
C2992 C 0.0996 0.36074 0.89908 0.0
C2993 C 0.12489 0.35948 0.89098 0.0
C2994 C 0.04698 0.39236 0.85309 0.0
C2995 C 0.078 0.38191 0.87642 0.0
C2996 C 0.02171 0.40271 0.84741 0.0
C2997 C 0.00319 0.41599 0.85775 0.0
C2998 C 0.05332 0.39489 0.86921 0.0
C2999 C 0.01122 0.41918 0.8736 0.0
C3000 C 0.07639 0.3721 0.89195 0.0
C3001 C 0.12565 0.36922 0.87531 0.0
N3002 N 0.03538 0.40843 0.87882 0.0
N3003 N 0.10244 0.37999 0.86847 0.0
H3004 H 0.31902 0.24677 0.6317 0.0
H3005 H 0.38472 0.39364 0.61473 0.0
H3006 H 0.3508 0.26388 0.58502 0.0
H3007 H 0.39481 0.34867 0.65842 0.0
H3008 H 0.36454 0.35169 0.60276 0.0
H3009 H 0.33734 0.29051 0.64077 0.0
C3010 C 0.32968 0.25974 0.62325 0.0
C3011 C 0.33359 0.25126 0.60754 0.0
C3012 C 0.37125 0.35127 0.61496 0.0
C3013 C 0.35466 0.30194 0.61807 0.0
C3014 C 0.38263 0.37513 0.62182 0.0
C3015 C 0.39114 0.37492 0.63772 0.0
C3016 C 0.3679 0.32739 0.62419 0.0
C3017 C 0.38822 0.3502 0.64626 0.0
C3018 C 0.34023 0.28478 0.62852 0.0
C3019 C 0.34743 0.26946 0.59724 0.0
N3020 N 0.37663 0.32766 0.63944 0.0
N3021 N 0.35757 0.29403 0.6027 0.0
H3022 H 0.49313 0.60358 0.33513 0.0
H3023 H 0.40813 0.64967 0.41019 0.0
H3024 H 0.5115 0.57684 0.38267 0.0
H3025 H 0.36439 0.63577 0.36641 0.0
H3026 H 0.44947 0.63032 0.3985 0.0
H3027 H 0.44831 0.62148 0.34463 0.0
C3028 C 0.48777 0.60127 0.34747 0.0
C3029 C 0.50635 0.58883 0.3581 0.0
C3030 C 0.43081 0.63136 0.39144 0.0
C3031 C 0.45566 0.60955 0.36896 0.0
C3032 C 0.40705 0.64243 0.39812 0.0
C3033 C 0.38239 0.64394 0.3894 0.0
C3034 C 0.43039 0.62207 0.37578 0.0
C3035 C 0.38281 0.63467 0.37364 0.0
C3036 C 0.46223 0.61143 0.35284 0.0
C3037 C 0.4982 0.58639 0.37397 0.0
N3038 N 0.40653 0.62418 0.36727 0.0
N3039 N 0.47373 0.5969 0.37889 0.0
loop_
_geom_bond_atom_site_label_1
_geom_bond_atom_site_label_2
_geom_bond_distance
_geom_bond_site_symmetry_2
_ccdc_geom_bond_type
Co0 O2 2.143 . S
Co0 O8 2.074 . S
Co0 O11 2.093 . S
Co0 O24 2.097 . S
Co0 N41 2.151 . S
Co0 N49 2.214 . S
Co1 O2 2.160 . S
Co1 O7 2.058 . S
Co1 O17 2.057 . S
Co1 O32 2.037 . S
Co1 N36 2.145 . S
Co1 N57 2.257 . S
O2 Co0 2.143 . S
O2 Co1 2.160 . S
C3 O4 1.278 . S
C3 O11 1.224 . S
O4 C3 1.278 . S
C5 O6 1.245 . S
C5 O17 1.232 . S
O6 C5 1.245 . S
O7 Co1 2.058 . S
O7 C33 1.269 . S
O8 Co0 2.074 . S
O8 C33 1.257 . S
H9 C34 0.930 . S
H10 C40 0.930 . S
O11 Co0 2.093 . S
O11 C3 1.224 . S
H12 C44 0.929 . S
H13 C46 0.930 . S
H14 C47 0.930 . S
H15 C45 0.929 . S
H16 C48 0.928 . S
O17 Co1 2.057 . S
O17 C5 1.232 . S
H18 C37 0.929 . S
H19 C38 0.929 . S
H20 C50 0.931 . S
H21 C42 0.929 . S
H22 C51 0.930 . S
H23 C43 0.931 . S
O24 Co0 2.097 . S
O24 C52 1.214 . S
H25 C53 0.929 . S
H26 C54 0.929 . S
H27 C55 0.930 . S
H28 C56 0.929 . S
H29 C58 0.930 . S
H30 C35 0.930 . S
H31 C39 0.930 . S
O32 Co1 2.037 . S
O32 C52 1.234 . S
C33 O7 1.269 . S
C33 O8 1.257 . S
C34 H9 0.930 . S
C34 C37 1.388 . S
C34 C39 1.418 . S
C35 H30 0.930 . S
C35 C38 1.404 . S
C35 C39 1.353 . S
N36 Co1 2.145 . S
N36 C37 1.397 . S
N36 C38 1.334 . S
C37 H18 0.929 . S
C37 C34 1.388 . S
C37 N36 1.397 . S
C38 H19 0.929 . S
C38 C35 1.404 . S
C38 N36 1.334 . S
C39 H31 0.930 . S
C39 C34 1.418 . S
C39 C35 1.353 . S
C40 H10 0.930 . S
C40 N41 1.330 1_565 S
C40 C42 1.446 . S
N41 Co0 2.151 . S
N41 C40 1.330 1_545 S
N41 C45 1.418 . S
C42 H21 0.929 . S
C42 C40 1.446 . S
C42 C43 1.332 . S
C43 H23 0.931 . S
C43 C42 1.332 . S
C43 C44 1.267 . S
C44 H12 0.929 . S
C44 C43 1.267 . S
C44 C45 1.251 1_565 S
C45 H15 0.929 . S
C45 N41 1.418 . S
C45 C44 1.251 1_545 S
C46 H13 0.930 . S
C46 C48 1.406 . S
C46 C51 1.261 . S
C47 H14 0.930 . S
C47 N49 1.325 . S
C47 C50 1.357 . S
C48 H16 0.928 . S
C48 C46 1.406 . S
C48 N49 1.261 . S
N49 Co0 2.214 . S
N49 C47 1.325 . S
N49 C48 1.261 . S
C50 H20 0.931 . S
C50 C47 1.357 . S
C50 C51 1.312 . S
C51 H22 0.930 . S
C51 C46 1.261 . S
C51 C50 1.312 . S
C52 O24 1.214 . S
C52 O32 1.234 . S
C53 H25 0.929 . S
C53 C56 1.391 . S
C53 C58 1.391 . S
C54 H26 0.929 . S
C54 C55 1.390 . S
C54 N57 1.391 . S
C55 H27 0.930 . S
C55 C54 1.390 . S
C55 C56 1.392 . S
C56 H28 0.929 . S
C56 C53 1.391 . S
C56 C55 1.392 . S
N57 Co1 2.257 . S
N57 C54 1.391 . S
N57 C58 1.388 . S
C58 H29 0.930 . S
C58 C53 1.391 . S
C58 N57 1.388 . S
Co59 O61 2.143 . S
Co59 O67 2.074 . S
Co59 O70 2.093 . S
Co59 O83 2.097 . S
Co59 N100 2.151 . S
Co59 N108 2.214 . S
Co60 O61 2.160 . S
Co60 O66 2.058 . S
Co60 O76 2.057 . S
Co60 O91 2.037 . S
Co60 N95 2.145 . S
Co60 N116 2.257 . S
O61 Co59 2.143 . S
O61 Co60 2.160 . S
C62 O63 1.278 . S
C62 O70 1.224 . S
O63 C62 1.278 . S
C64 O65 1.245 . S
C64 O76 1.232 . S
O65 C64 1.245 . S
O66 Co60 2.058 . S
O66 C92 1.269 . S
O67 Co59 2.074 . S
O67 C92 1.257 . S
H68 C93 0.930 . S
H69 C99 0.930 . S
O70 Co59 2.093 . S
O70 C62 1.224 . S
H71 C103 0.929 . S
H72 C105 0.930 . S
H73 C106 0.930 . S
H74 C104 0.929 . S
H75 C107 0.928 . S
O76 Co60 2.057 . S
O76 C64 1.232 . S
H77 C96 0.929 . S
H78 C97 0.929 . S
H79 C109 0.931 . S
H80 C101 0.929 . S
H81 C110 0.930 . S
H82 C102 0.931 . S
O83 Co59 2.097 . S
O83 C111 1.214 . S
H84 C112 0.929 . S
H85 C113 0.929 . S
H86 C114 0.930 . S
H87 C115 0.929 . S
H88 C117 0.930 . S
H89 C94 0.930 . S
H90 C98 0.930 . S
O91 Co60 2.037 . S
O91 C111 1.234 . S
C92 O66 1.269 . S
C92 O67 1.257 . S
C93 H68 0.930 . S
C93 C96 1.388 . S
C93 C98 1.418 . S
C94 H89 0.930 . S
C94 C97 1.404 . S
C94 C98 1.353 . S
N95 Co60 2.145 . S
N95 C96 1.397 . S
N95 C97 1.334 . S
C96 H77 0.929 . S
C96 C93 1.388 . S
C96 N95 1.397 . S
C97 H78 0.929 . S
C97 C94 1.404 . S
C97 N95 1.334 . S
C98 H90 0.930 . S
C98 C93 1.418 . S
C98 C94 1.353 . S
C99 H69 0.930 . S
C99 N100 1.330 . S
C99 C101 1.446 . S
N100 Co59 2.151 . S
N100 C99 1.330 . S
N100 C104 1.418 . S
C101 H80 0.929 . S
C101 C99 1.446 . S
C101 C102 1.332 . S
C102 H82 0.931 . S
C102 C101 1.332 . S
C102 C103 1.267 . S
C103 H71 0.929 . S
C103 C102 1.267 . S
C103 C104 1.251 . S
C104 H74 0.929 . S
C104 N100 1.418 . S
C104 C103 1.251 . S
C105 H72 0.930 . S
C105 C107 1.406 . S
C105 C110 1.261 . S
C106 H73 0.930 . S
C106 N108 1.325 . S
C106 C109 1.357 . S
C107 H75 0.928 . S
C107 C105 1.406 . S
C107 N108 1.261 . S
N108 Co59 2.214 . S
N108 C106 1.325 . S
N108 C107 1.261 . S
C109 H79 0.931 . S
C109 C106 1.357 . S
C109 C110 1.312 . S
C110 H81 0.930 . S
C110 C105 1.261 . S
C110 C109 1.312 . S
C111 O83 1.214 . S
C111 O91 1.234 . S
C112 H84 0.929 . S
C112 C115 1.391 . S
C112 C117 1.391 . S
C113 H85 0.929 . S
C113 C114 1.390 . S
C113 N116 1.391 . S
C114 H86 0.930 . S
C114 C113 1.390 . S
C114 C115 1.392 . S
C115 H87 0.929 . S
C115 C112 1.391 . S
C115 C114 1.392 . S
N116 Co60 2.257 . S
N116 C113 1.391 . S
N116 C117 1.388 . S
C117 H88 0.930 . S
C117 C112 1.391 . S
C117 N116 1.388 . S
Co118 O120 2.143 . S
Co118 O126 2.074 . S
Co118 O129 2.093 . S
Co118 O142 2.097 . S
Co118 N159 2.151 . S
Co118 N167 2.214 . S
Co119 O120 2.160 . S
Co119 O125 2.058 . S
Co119 O135 2.057 . S
Co119 O150 2.037 . S
Co119 N154 2.145 . S
Co119 N175 2.257 . S
O120 Co118 2.143 . S
O120 Co119 2.160 . S
C121 O122 1.278 . S
C121 O129 1.224 . S
O122 C121 1.278 . S
C123 O124 1.245 . S
C123 O135 1.232 . S
O124 C123 1.245 . S
O125 Co119 2.058 . S
O125 C151 1.269 . S
O126 Co118 2.074 . S
O126 C151 1.257 . S
H127 C152 0.930 . S
H128 C158 0.930 . S
O129 Co118 2.093 . S
O129 C121 1.224 . S
H130 C162 0.929 1_655 S
H131 C164 0.930 . S
H132 C165 0.930 . S
H133 C163 0.929 . S
H134 C166 0.928 . S
O135 Co119 2.057 . S
O135 C123 1.232 . S
H136 C155 0.929 . S
H137 C156 0.929 . S
H138 C168 0.931 . S
H139 C160 0.929 . S
H140 C169 0.930 . S
H141 C161 0.931 . S
O142 Co118 2.097 . S
O142 C170 1.214 . S
H143 C171 0.929 . S
H144 C172 0.929 . S
H145 C173 0.930 . S
H146 C174 0.929 . S
H147 C176 0.930 . S
H148 C153 0.930 . S
H149 C157 0.930 . S
O150 Co119 2.037 . S
O150 C170 1.234 . S
C151 O125 1.269 . S
C151 O126 1.257 . S
C152 H127 0.930 . S
C152 C155 1.388 . S
C152 C157 1.418 . S
C153 H148 0.930 . S
C153 C156 1.404 . S
C153 C157 1.353 . S
N154 Co119 2.145 . S
N154 C155 1.397 . S
N154 C156 1.334 . S
C155 H136 0.929 . S
C155 C152 1.388 . S
C155 N154 1.397 . S
C156 H137 0.929 . S
C156 C153 1.404 . S
C156 N154 1.334 . S
C157 H149 0.930 . S
C157 C152 1.418 . S
C157 C153 1.353 . S
C158 H128 0.930 . S
C158 N159 1.330 1_545 S
C158 C160 1.446 . S
N159 Co118 2.151 . S
N159 C158 1.330 1_565 S
N159 C163 1.418 . S
C160 H139 0.929 . S
C160 C158 1.446 . S
C160 C161 1.332 . S
C161 H141 0.931 . S
C161 C160 1.332 . S
C161 C162 1.267 . S
C162 H130 0.929 1_455 S
C162 C161 1.267 . S
C162 C163 1.251 1_545 S
C163 H133 0.929 . S
C163 N159 1.418 . S
C163 C162 1.251 1_565 S
C164 H131 0.930 . S
C164 C166 1.406 . S
C164 C169 1.261 . S
C165 H132 0.930 . S
C165 N167 1.325 . S
C165 C168 1.357 . S
C166 H134 0.928 . S
C166 C164 1.406 . S
C166 N167 1.261 . S
N167 Co118 2.214 . S
N167 C165 1.325 . S
N167 C166 1.261 . S
C168 H138 0.931 . S
C168 C165 1.357 . S
C168 C169 1.312 . S
C169 H140 0.930 . S
C169 C164 1.261 . S
C169 C168 1.312 . S
C170 O142 1.214 . S
C170 O150 1.234 . S
C171 H143 0.929 . S
C171 C174 1.391 . S
C171 C176 1.391 . S
C172 H144 0.929 . S
C172 C173 1.390 . S
C172 N175 1.391 . S
C173 H145 0.930 . S
C173 C172 1.390 . S
C173 C174 1.392 . S
C174 H146 0.929 . S
C174 C171 1.391 . S
C174 C173 1.392 . S
N175 Co119 2.257 . S
N175 C172 1.391 . S
N175 C176 1.388 . S
C176 H147 0.930 . S
C176 C171 1.391 . S
C176 N175 1.388 . S
Co177 O179 2.143 . S
Co177 O185 2.074 . S
Co177 O188 2.093 . S
Co177 O201 2.097 . S
Co177 N218 2.151 . S
Co177 N226 2.214 . S
Co178 O179 2.160 . S
Co178 O184 2.058 . S
Co178 O194 2.057 . S
Co178 O209 2.037 . S
Co178 N213 2.145 . S
Co178 N234 2.257 . S
O179 Co177 2.143 . S
O179 Co178 2.160 . S
C180 O181 1.278 . S
C180 O188 1.224 . S
O181 C180 1.278 . S
C182 O183 1.245 . S
C182 O194 1.232 . S
O183 C182 1.245 . S
O184 Co178 2.058 . S
O184 C210 1.269 . S
O185 Co177 2.074 . S
O185 C210 1.257 . S
H186 C211 0.930 . S
H187 C217 0.930 . S
O188 Co177 2.093 . S
O188 C180 1.224 . S
H189 C221 0.929 . S
H190 C223 0.930 . S
H191 C224 0.930 . S
H192 C222 0.929 . S
H193 C225 0.928 . S
O194 Co178 2.057 . S
O194 C182 1.232 . S
H195 C214 0.929 . S
H196 C215 0.929 . S
H197 C227 0.931 . S
H198 C219 0.929 . S
H199 C228 0.930 . S
H200 C220 0.931 . S
O201 Co177 2.097 . S
O201 C229 1.214 . S
H202 C230 0.929 . S
H203 C231 0.929 . S
H204 C232 0.930 . S
H205 C233 0.929 . S
H206 C235 0.930 . S
H207 C212 0.930 . S
H208 C216 0.930 . S
O209 Co178 2.037 . S
O209 C229 1.234 . S
C210 O184 1.269 . S
C210 O185 1.257 . S
C211 H186 0.930 . S
C211 C214 1.388 . S
C211 C216 1.418 . S
C212 H207 0.930 . S
C212 C215 1.404 . S
C212 C216 1.353 . S
N213 Co178 2.145 . S
N213 C214 1.397 . S
N213 C215 1.334 . S
C214 H195 0.929 . S
C214 C211 1.388 . S
C214 N213 1.397 . S
C215 H196 0.929 . S
C215 C212 1.404 . S
C215 N213 1.334 . S
C216 H208 0.930 . S
C216 C211 1.418 . S
C216 C212 1.353 . S
C217 H187 0.930 . S
C217 N218 1.330 . S
C217 C219 1.446 . S
N218 Co177 2.151 . S
N218 C217 1.330 . S
N218 C222 1.418 . S
C219 H198 0.929 . S
C219 C217 1.446 . S
C219 C220 1.332 . S
C220 H200 0.931 . S
C220 C219 1.332 . S
C220 C221 1.267 . S
C221 H189 0.929 . S
C221 C220 1.267 . S
C221 C222 1.251 . S
C222 H192 0.929 . S
C222 N218 1.418 . S
C222 C221 1.251 . S
C223 H190 0.930 . S
C223 C225 1.406 . S
C223 C228 1.261 . S
C224 H191 0.930 . S
C224 N226 1.325 . S
C224 C227 1.357 . S
C225 H193 0.928 . S
C225 C223 1.406 . S
C225 N226 1.261 . S
N226 Co177 2.214 . S
N226 C224 1.325 . S
N226 C225 1.261 . S
C227 H197 0.931 . S
C227 C224 1.357 . S
C227 C228 1.312 . S
C228 H199 0.930 . S
C228 C223 1.261 . S
C228 C227 1.312 . S
C229 O201 1.214 . S
C229 O209 1.234 . S
C230 H202 0.929 . S
C230 C233 1.391 . S
C230 C235 1.391 . S
C231 H203 0.929 . S
C231 C232 1.390 . S
C231 N234 1.391 . S
C232 H204 0.930 . S
C232 C231 1.390 . S
C232 C233 1.392 . S
C233 H205 0.929 . S
C233 C230 1.391 . S
C233 C232 1.392 . S
N234 Co178 2.257 . S
N234 C231 1.391 . S
N234 C235 1.388 . S
C235 H206 0.930 . S
C235 C230 1.391 . S
C235 N234 1.388 . S
Co236 O238 2.143 . S
Co236 O244 2.074 . S
Co236 O247 2.093 . S
Co236 O260 2.097 . S
Co236 N277 2.151 . S
Co236 N285 2.214 . S
Co237 O238 2.160 . S
Co237 O243 2.058 . S
Co237 O253 2.057 . S
Co237 O268 2.037 . S
Co237 N272 2.145 . S
Co237 N293 2.257 . S
O238 Co236 2.143 . S
O238 Co237 2.160 . S
C239 O240 1.278 . S
C239 O247 1.224 . S
O240 C239 1.278 . S
C241 O242 1.245 . S
C241 O253 1.232 . S
O242 C241 1.245 . S
O243 Co237 2.058 . S
O243 C269 1.269 . S
O244 Co236 2.074 . S
O244 C269 1.257 . S
H245 C270 0.930 . S
H246 C276 0.930 . S
O247 Co236 2.093 . S
O247 C239 1.224 . S
H248 C280 0.929 . S
H249 C282 0.930 . S
H250 C283 0.930 . S
H251 C281 0.929 . S
H252 C284 0.928 . S
O253 Co237 2.057 . S
O253 C241 1.232 . S
H254 C273 0.929 . S
H255 C274 0.929 . S
H256 C286 0.931 . S
H257 C278 0.929 . S
H258 C287 0.930 . S
H259 C279 0.931 . S
O260 Co236 2.097 . S
O260 C288 1.214 . S
H261 C289 0.929 . S
H262 C290 0.929 . S
H263 C291 0.930 . S
H264 C292 0.929 . S
H265 C294 0.930 . S
H266 C271 0.930 . S
H267 C275 0.930 . S
O268 Co237 2.037 . S
O268 C288 1.234 . S
C269 O243 1.269 . S
C269 O244 1.257 . S
C270 H245 0.930 . S
C270 C273 1.388 . S
C270 C275 1.418 . S
C271 H266 0.930 . S
C271 C274 1.404 . S
C271 C275 1.353 . S
N272 Co237 2.145 . S
N272 C273 1.397 . S
N272 C274 1.334 . S
C273 H254 0.929 . S
C273 C270 1.388 . S
C273 N272 1.397 . S
C274 H255 0.929 . S
C274 C271 1.404 . S
C274 N272 1.334 . S
C275 H267 0.930 . S
C275 C270 1.418 . S
C275 C271 1.353 . S
C276 H246 0.930 . S
C276 N277 1.330 1_545 S
C276 C278 1.446 . S
N277 Co236 2.151 . S
N277 C276 1.330 1_565 S
N277 C281 1.418 . S
C278 H257 0.929 . S
C278 C276 1.446 . S
C278 C279 1.332 . S
C279 H259 0.931 . S
C279 C278 1.332 . S
C279 C280 1.267 . S
C280 H248 0.929 . S
C280 C279 1.267 . S
C280 C281 1.251 1_545 S
C281 H251 0.929 . S
C281 N277 1.418 . S
C281 C280 1.251 1_565 S
C282 H249 0.930 . S
C282 C284 1.406 . S
C282 C287 1.261 . S
C283 H250 0.930 . S
C283 N285 1.325 . S
C283 C286 1.357 . S
C284 H252 0.928 . S
C284 C282 1.406 . S
C284 N285 1.261 . S
N285 Co236 2.214 . S
N285 C283 1.325 . S
N285 C284 1.261 . S
C286 H256 0.931 . S
C286 C283 1.357 . S
C286 C287 1.312 . S
C287 H258 0.930 . S
C287 C282 1.261 . S
C287 C286 1.312 . S
C288 O260 1.214 . S
C288 O268 1.234 . S
C289 H261 0.929 . S
C289 C292 1.391 . S
C289 C294 1.391 . S
C290 H262 0.929 . S
C290 C291 1.390 . S
C290 N293 1.391 . S
C291 H263 0.930 . S
C291 C290 1.390 . S
C291 C292 1.392 . S
C292 H264 0.929 . S
C292 C289 1.391 . S
C292 C291 1.392 . S
N293 Co237 2.257 . S
N293 C290 1.391 . S
N293 C294 1.388 . S
C294 H265 0.930 . S
C294 C289 1.391 . S
C294 N293 1.388 . S
Co295 O297 2.143 . S
Co295 O303 2.074 . S
Co295 O306 2.093 . S
Co295 O319 2.097 . S
Co295 N336 2.151 . S
Co295 N344 2.214 . S
Co296 O297 2.160 . S
Co296 O302 2.058 . S
Co296 O312 2.057 . S
Co296 O327 2.037 . S
Co296 N331 2.145 . S
Co296 N352 2.257 . S
O297 Co295 2.143 . S
O297 Co296 2.160 . S
C298 O299 1.278 . S
C298 O306 1.224 . S
O299 C298 1.278 . S
C300 O301 1.245 . S
C300 O312 1.232 . S
O301 C300 1.245 . S
O302 Co296 2.058 . S
O302 C328 1.269 . S
O303 Co295 2.074 . S
O303 C328 1.257 . S
H304 C329 0.930 . S
H305 C335 0.930 . S
O306 Co295 2.093 . S
O306 C298 1.224 . S
H307 C339 0.929 . S
H308 C341 0.930 . S
H309 C342 0.930 . S
H310 C340 0.929 . S
H311 C343 0.928 . S
O312 Co296 2.057 . S
O312 C300 1.232 . S
H313 C332 0.929 . S
H314 C333 0.929 . S
H315 C345 0.931 . S
H316 C337 0.929 . S
H317 C346 0.930 . S
H318 C338 0.931 . S
O319 Co295 2.097 . S
O319 C347 1.214 . S
H320 C348 0.929 . S
H321 C349 0.929 . S
H322 C350 0.930 . S
H323 C351 0.929 . S
H324 C353 0.930 . S
H325 C330 0.930 . S
H326 C334 0.930 . S
O327 Co296 2.037 . S
O327 C347 1.234 . S
C328 O302 1.269 . S
C328 O303 1.257 . S
C329 H304 0.930 . S
C329 C332 1.388 . S
C329 C334 1.418 . S
C330 H325 0.930 . S
C330 C333 1.404 . S
C330 C334 1.353 . S
N331 Co296 2.145 . S
N331 C332 1.397 . S
N331 C333 1.334 . S
C332 H313 0.929 . S
C332 C329 1.388 . S
C332 N331 1.397 . S
C333 H314 0.929 . S
C333 C330 1.404 . S
C333 N331 1.334 . S
C334 H326 0.930 . S
C334 C329 1.418 . S
C334 C330 1.353 . S
C335 H305 0.930 . S
C335 N336 1.330 . S
C335 C337 1.446 . S
N336 Co295 2.151 . S
N336 C335 1.330 . S
N336 C340 1.418 . S
C337 H316 0.929 . S
C337 C335 1.446 . S
C337 C338 1.332 . S
C338 H318 0.931 . S
C338 C337 1.332 . S
C338 C339 1.267 . S
C339 H307 0.929 . S
C339 C338 1.267 . S
C339 C340 1.251 . S
C340 H310 0.929 . S
C340 N336 1.418 . S
C340 C339 1.251 . S
C341 H308 0.930 . S
C341 C343 1.406 . S
C341 C346 1.261 . S
C342 H309 0.930 . S
C342 N344 1.325 . S
C342 C345 1.357 . S
C343 H311 0.928 . S
C343 C341 1.406 . S
C343 N344 1.261 . S
N344 Co295 2.214 . S
N344 C342 1.325 . S
N344 C343 1.261 . S
C345 H315 0.931 . S
C345 C342 1.357 . S
C345 C346 1.312 . S
C346 H317 0.930 . S
C346 C341 1.261 . S
C346 C345 1.312 . S
C347 O319 1.214 . S
C347 O327 1.234 . S
C348 H320 0.929 . S
C348 C351 1.391 . S
C348 C353 1.391 . S
C349 H321 0.929 . S
C349 C350 1.390 . S
C349 N352 1.391 . S
C350 H322 0.930 . S
C350 C349 1.390 . S
C350 C351 1.392 . S
C351 H323 0.929 . S
C351 C348 1.391 . S
C351 C350 1.392 . S
N352 Co296 2.257 . S
N352 C349 1.391 . S
N352 C353 1.388 . S
C353 H324 0.930 . S
C353 C348 1.391 . S
C353 N352 1.388 . S
Co354 O356 2.143 . S
Co354 O362 2.074 . S
Co354 O365 2.093 . S
Co354 O378 2.097 . S
Co354 N395 2.151 . S
Co354 N403 2.214 . S
Co355 O356 2.160 . S
Co355 O361 2.058 . S
Co355 O371 2.057 . S
Co355 O386 2.037 . S
Co355 N390 2.145 . S
Co355 N411 2.257 . S
O356 Co354 2.143 . S
O356 Co355 2.160 . S
C357 O358 1.278 . S
C357 O365 1.224 . S
O358 C357 1.278 . S
C359 O360 1.245 . S
C359 O371 1.232 . S
O360 C359 1.245 . S
O361 Co355 2.058 . S
O361 C387 1.269 . S
O362 Co354 2.074 . S
O362 C387 1.257 . S
H363 C388 0.930 . S
H364 C394 0.930 . S
O365 Co354 2.093 . S
O365 C357 1.224 . S
H366 C398 0.929 1_655 S
H367 C400 0.930 . S
H368 C401 0.930 . S
H369 C399 0.929 . S
H370 C402 0.928 . S
O371 Co355 2.057 . S
O371 C359 1.232 . S
H372 C391 0.929 . S
H373 C392 0.929 . S
H374 C404 0.931 . S
H375 C396 0.929 . S
H376 C405 0.930 . S
H377 C397 0.931 . S
O378 Co354 2.097 . S
O378 C406 1.214 . S
H379 C407 0.929 . S
H380 C408 0.929 . S
H381 C409 0.930 . S
H382 C410 0.929 . S
H383 C412 0.930 . S
H384 C389 0.930 . S
H385 C393 0.930 . S
O386 Co355 2.037 . S
O386 C406 1.234 . S
C387 O361 1.269 . S
C387 O362 1.257 . S
C388 H363 0.930 . S
C388 C391 1.388 . S
C388 C393 1.418 . S
C389 H384 0.930 . S
C389 C392 1.404 . S
C389 C393 1.353 . S
N390 Co355 2.145 . S
N390 C391 1.397 . S
N390 C392 1.334 . S
C391 H372 0.929 . S
C391 C388 1.388 . S
C391 N390 1.397 . S
C392 H373 0.929 . S
C392 C389 1.404 . S
C392 N390 1.334 . S
C393 H385 0.930 . S
C393 C388 1.418 . S
C393 C389 1.353 . S
C394 H364 0.930 . S
C394 N395 1.330 1_565 S
C394 C396 1.446 . S
N395 Co354 2.151 . S
N395 C394 1.330 1_545 S
N395 C399 1.418 . S
C396 H375 0.929 . S
C396 C394 1.446 . S
C396 C397 1.332 . S
C397 H377 0.931 . S
C397 C396 1.332 . S
C397 C398 1.267 . S
C398 H366 0.929 1_455 S
C398 C397 1.267 . S
C398 C399 1.251 1_565 S
C399 H369 0.929 . S
C399 N395 1.418 . S
C399 C398 1.251 1_545 S
C400 H367 0.930 . S
C400 C402 1.406 . S
C400 C405 1.261 . S
C401 H368 0.930 . S
C401 N403 1.325 . S
C401 C404 1.357 . S
C402 H370 0.928 . S
C402 C400 1.406 . S
C402 N403 1.261 . S
N403 Co354 2.214 . S
N403 C401 1.325 . S
N403 C402 1.261 . S
C404 H374 0.931 . S
C404 C401 1.357 . S
C404 C405 1.312 . S
C405 H376 0.930 . S
C405 C400 1.261 . S
C405 C404 1.312 . S
C406 O378 1.214 . S
C406 O386 1.234 . S
C407 H379 0.929 . S
C407 C410 1.391 . S
C407 C412 1.391 . S
C408 H380 0.929 . S
C408 C409 1.390 . S
C408 N411 1.391 . S
C409 H381 0.930 . S
C409 C408 1.390 . S
C409 C410 1.392 . S
C410 H382 0.929 . S
C410 C407 1.391 . S
C410 C409 1.392 . S
N411 Co355 2.257 . S
N411 C408 1.391 . S
N411 C412 1.388 . S
C412 H383 0.930 . S
C412 C407 1.391 . S
C412 N411 1.388 . S
Co413 O415 2.143 . S
Co413 O421 2.074 . S
Co413 O424 2.093 . S
Co413 O437 2.097 . S
Co413 N454 2.151 . S
Co413 N462 2.214 . S
Co414 O415 2.160 . S
Co414 O420 2.058 . S
Co414 O430 2.057 . S
Co414 O445 2.037 . S
Co414 N449 2.145 . S
Co414 N470 2.257 . S
O415 Co413 2.143 . S
O415 Co414 2.160 . S
C416 O417 1.278 . S
C416 O424 1.224 . S
O417 C416 1.278 . S
C418 O419 1.245 . S
C418 O430 1.232 . S
O419 C418 1.245 . S
O420 Co414 2.058 . S
O420 C446 1.269 . S
O421 Co413 2.074 . S
O421 C446 1.257 . S
H422 C447 0.930 . S
H423 C453 0.930 . S
O424 Co413 2.093 . S
O424 C416 1.224 . S
H425 C457 0.929 . S
H426 C459 0.930 . S
H427 C460 0.930 . S
H428 C458 0.929 . S
H429 C461 0.928 . S
O430 Co414 2.057 . S
O430 C418 1.232 . S
H431 C450 0.929 . S
H432 C451 0.929 . S
H433 C463 0.931 . S
H434 C455 0.929 . S
H435 C464 0.930 . S
H436 C456 0.931 . S
O437 Co413 2.097 . S
O437 C465 1.214 . S
H438 C466 0.929 . S
H439 C467 0.929 . S
H440 C468 0.930 . S
H441 C469 0.929 . S
H442 C471 0.930 . S
H443 C448 0.930 . S
H444 C452 0.930 . S
O445 Co414 2.037 . S
O445 C465 1.234 . S
C446 O420 1.269 . S
C446 O421 1.257 . S
C447 H422 0.930 . S
C447 C450 1.388 . S
C447 C452 1.418 . S
C448 H443 0.930 . S
C448 C451 1.404 . S
C448 C452 1.353 . S
N449 Co414 2.145 . S
N449 C450 1.397 . S
N449 C451 1.334 . S
C450 H431 0.929 . S
C450 C447 1.388 . S
C450 N449 1.397 . S
C451 H432 0.929 . S
C451 C448 1.404 . S
C451 N449 1.334 . S
C452 H444 0.930 . S
C452 C447 1.418 . S
C452 C448 1.353 . S
C453 H423 0.930 . S
C453 N454 1.330 . S
C453 C455 1.446 . S
N454 Co413 2.151 . S
N454 C453 1.330 . S
N454 C458 1.418 . S
C455 H434 0.929 . S
C455 C453 1.446 . S
C455 C456 1.332 . S
C456 H436 0.931 . S
C456 C455 1.332 . S
C456 C457 1.267 . S
C457 H425 0.929 . S
C457 C456 1.267 . S
C457 C458 1.251 . S
C458 H428 0.929 . S
C458 N454 1.418 . S
C458 C457 1.251 . S
C459 H426 0.930 . S
C459 C461 1.406 . S
C459 C464 1.261 . S
C460 H427 0.930 . S
C460 N462 1.325 . S
C460 C463 1.357 . S
C461 H429 0.928 . S
C461 C459 1.406 . S
C461 N462 1.261 . S
N462 Co413 2.214 . S
N462 C460 1.325 . S
N462 C461 1.261 . S
C463 H433 0.931 . S
C463 C460 1.357 . S
C463 C464 1.312 . S
C464 H435 0.930 . S
C464 C459 1.261 . S
C464 C463 1.312 . S
C465 O437 1.214 . S
C465 O445 1.234 . S
C466 H438 0.929 . S
C466 C469 1.391 . S
C466 C471 1.391 . S
C467 H439 0.929 . S
C467 C468 1.390 . S
C467 N470 1.391 . S
C468 H440 0.930 . S
C468 C467 1.390 . S
C468 C469 1.392 . S
C469 H441 0.929 . S
C469 C466 1.391 . S
C469 C468 1.392 . S
N470 Co414 2.257 . S
N470 C467 1.391 . S
N470 C471 1.388 . S
C471 H442 0.930 . S
C471 C466 1.391 . S
C471 N470 1.388 . S
Co472 O474 2.143 . S
Co472 O480 2.074 . S
Co472 O483 2.093 . S
Co472 O496 2.097 . S
Co472 N513 2.151 . S
Co472 N521 2.214 . S
Co473 O474 2.160 . S
Co473 O479 2.058 . S
Co473 O489 2.057 . S
Co473 O504 2.037 . S
Co473 N508 2.145 . S
Co473 N529 2.257 . S
O474 Co472 2.143 . S
O474 Co473 2.160 . S
C475 O476 1.278 . S
C475 O483 1.224 . S
O476 C475 1.278 . S
C477 O478 1.245 . S
C477 O489 1.232 . S
O478 C477 1.245 . S
O479 Co473 2.058 . S
O479 C505 1.269 . S
O480 Co472 2.074 . S
O480 C505 1.257 . S
H481 C506 0.930 . S
H482 C512 0.930 . S
O483 Co472 2.093 . S
O483 C475 1.224 . S
H484 C516 0.929 . S
H485 C518 0.930 . S
H486 C519 0.930 . S
H487 C517 0.929 . S
H488 C520 0.928 . S
O489 Co473 2.057 . S
O489 C477 1.232 . S
H490 C509 0.929 . S
H491 C510 0.929 . S
H492 C522 0.931 . S
H493 C514 0.929 . S
H494 C523 0.930 . S
H495 C515 0.931 . S
O496 Co472 2.097 . S
O496 C524 1.214 . S
H497 C525 0.929 . S
H498 C526 0.929 . S
H499 C527 0.930 . S
H500 C528 0.929 . S
H501 C530 0.930 . S
H502 C507 0.930 . S
H503 C511 0.930 . S
O504 Co473 2.037 . S
O504 C524 1.234 . S
C505 O479 1.269 . S
C505 O480 1.257 . S
C506 H481 0.930 . S
C506 C509 1.388 . S
C506 C511 1.418 . S
C507 H502 0.930 . S
C507 C510 1.404 . S
C507 C511 1.353 . S
N508 Co473 2.145 . S
N508 C509 1.397 . S
N508 C510 1.334 . S
C509 H490 0.929 . S
C509 C506 1.388 . S
C509 N508 1.397 . S
C510 H491 0.929 . S
C510 C507 1.404 . S
C510 N508 1.334 . S
C511 H503 0.930 . S
C511 C506 1.418 . S
C511 C507 1.353 . S
C512 H482 0.930 . S
C512 N513 1.330 1_545 S
C512 C514 1.446 . S
N513 Co472 2.151 . S
N513 C512 1.330 1_565 S
N513 C517 1.418 . S
C514 H493 0.929 . S
C514 C512 1.446 . S
C514 C515 1.332 . S
C515 H495 0.931 . S
C515 C514 1.332 . S
C515 C516 1.267 . S
C516 H484 0.929 . S
C516 C515 1.267 . S
C516 C517 1.251 1_545 S
C517 H487 0.929 . S
C517 N513 1.418 . S
C517 C516 1.251 1_565 S
C518 H485 0.930 . S
C518 C520 1.406 . S
C518 C523 1.261 . S
C519 H486 0.930 . S
C519 N521 1.325 . S
C519 C522 1.357 . S
C520 H488 0.928 . S
C520 C518 1.406 . S
C520 N521 1.261 . S
N521 Co472 2.214 . S
N521 C519 1.325 . S
N521 C520 1.261 . S
C522 H492 0.931 . S
C522 C519 1.357 . S
C522 C523 1.312 . S
C523 H494 0.930 . S
C523 C518 1.261 . S
C523 C522 1.312 . S
C524 O496 1.214 . S
C524 O504 1.234 . S
C525 H497 0.929 . S
C525 C528 1.391 . S
C525 C530 1.391 . S
C526 H498 0.929 . S
C526 C527 1.390 . S
C526 N529 1.391 . S
C527 H499 0.930 . S
C527 C526 1.390 . S
C527 C528 1.392 . S
C528 H500 0.929 . S
C528 C525 1.391 . S
C528 C527 1.392 . S
N529 Co473 2.257 . S
N529 C526 1.391 . S
N529 C530 1.388 . S
C530 H501 0.930 . S
C530 C525 1.391 . S
C530 N529 1.388 . S
Co531 O533 2.143 . S
Co531 O539 2.074 . S
Co531 O542 2.093 . S
Co531 O555 2.097 . S
Co531 N572 2.151 . S
Co531 N580 2.214 . S
Co532 O533 2.160 . S
Co532 O538 2.058 . S
Co532 O548 2.057 . S
Co532 O563 2.037 . S
Co532 N567 2.145 . S
Co532 N588 2.257 . S
O533 Co531 2.143 . S
O533 Co532 2.160 . S
C534 O535 1.278 . S
C534 O542 1.224 . S
O535 C534 1.278 . S
C536 O537 1.245 . S
C536 O548 1.232 . S
O537 C536 1.245 . S
O538 Co532 2.058 . S
O538 C564 1.269 . S
O539 Co531 2.074 . S
O539 C564 1.257 . S
H540 C565 0.930 . S
H541 C571 0.930 . S
O542 Co531 2.093 . S
O542 C534 1.224 . S
H543 C575 0.929 . S
H544 C577 0.930 . S
H545 C578 0.930 . S
H546 C576 0.929 . S
H547 C579 0.928 . S
O548 Co532 2.057 . S
O548 C536 1.232 . S
H549 C568 0.929 . S
H550 C569 0.929 . S
H551 C581 0.931 . S
H552 C573 0.929 . S
H553 C582 0.930 . S
H554 C574 0.931 . S
O555 Co531 2.097 . S
O555 C583 1.214 . S
H556 C584 0.929 . S
H557 C585 0.929 . S
H558 C586 0.930 . S
H559 C587 0.929 . S
H560 C589 0.930 . S
H561 C566 0.930 . S
H562 C570 0.930 . S
O563 Co532 2.037 . S
O563 C583 1.234 . S
C564 O538 1.269 . S
C564 O539 1.257 . S
C565 H540 0.930 . S
C565 C568 1.388 . S
C565 C570 1.418 . S
C566 H561 0.930 . S
C566 C569 1.404 . S
C566 C570 1.353 . S
N567 Co532 2.145 . S
N567 C568 1.397 . S
N567 C569 1.334 . S
C568 H549 0.929 . S
C568 C565 1.388 . S
C568 N567 1.397 . S
C569 H550 0.929 . S
C569 C566 1.404 . S
C569 N567 1.334 . S
C570 H562 0.930 . S
C570 C565 1.418 . S
C570 C566 1.353 . S
C571 H541 0.930 . S
C571 N572 1.330 . S
C571 C573 1.446 . S
N572 Co531 2.151 . S
N572 C571 1.330 . S
N572 C576 1.418 . S
C573 H552 0.929 . S
C573 C571 1.446 . S
C573 C574 1.332 . S
C574 H554 0.931 . S
C574 C573 1.332 . S
C574 C575 1.267 . S
C575 H543 0.929 . S
C575 C574 1.267 . S
C575 C576 1.251 . S
C576 H546 0.929 . S
C576 N572 1.418 . S
C576 C575 1.251 . S
C577 H544 0.930 . S
C577 C579 1.406 . S
C577 C582 1.261 . S
C578 H545 0.930 . S
C578 N580 1.325 . S
C578 C581 1.357 . S
C579 H547 0.928 . S
C579 C577 1.406 . S
C579 N580 1.261 . S
N580 Co531 2.214 . S
N580 C578 1.325 . S
N580 C579 1.261 . S
C581 H551 0.931 . S
C581 C578 1.357 . S
C581 C582 1.312 . S
C582 H553 0.930 . S
C582 C577 1.261 . S
C582 C581 1.312 . S
C583 O555 1.214 . S
C583 O563 1.234 . S
C584 H556 0.929 . S
C584 C587 1.391 . S
C584 C589 1.391 . S
C585 H557 0.929 . S
C585 C586 1.390 . S
C585 N588 1.391 . S
C586 H558 0.930 . S
C586 C585 1.390 . S
C586 C587 1.392 . S
C587 H559 0.929 . S
C587 C584 1.391 . S
C587 C586 1.392 . S
N588 Co532 2.257 . S
N588 C585 1.391 . S
N588 C589 1.388 . S
C589 H560 0.930 . S
C589 C584 1.391 . S
C589 N588 1.388 . S
Co590 O592 2.143 . S
Co590 O598 2.074 . S
Co590 O601 2.093 . S
Co590 O614 2.097 . S
Co590 N631 2.151 . S
Co590 N639 2.214 . S
Co591 O592 2.160 . S
Co591 O597 2.058 . S
Co591 O607 2.057 . S
Co591 O622 2.037 . S
Co591 N626 2.145 . S
Co591 N647 2.257 . S
O592 Co590 2.143 . S
O592 Co591 2.160 . S
C593 O594 1.278 . S
C593 O601 1.224 . S
O594 C593 1.278 . S
C595 O596 1.245 . S
C595 O607 1.232 . S
O596 C595 1.245 . S
O597 Co591 2.058 . S
O597 C623 1.269 . S
O598 Co590 2.074 . S
O598 C623 1.257 . S
H599 C624 0.930 . S
H600 C630 0.930 . S
O601 Co590 2.093 . S
O601 C593 1.224 . S
H602 C634 0.929 1_455 S
H603 C636 0.930 . S
H604 C637 0.930 . S
H605 C635 0.929 . S
H606 C638 0.928 . S
O607 Co591 2.057 . S
O607 C595 1.232 . S
H608 C627 0.929 . S
H609 C628 0.929 . S
H610 C640 0.931 . S
H611 C632 0.929 . S
H612 C641 0.930 . S
H613 C633 0.931 . S
O614 Co590 2.097 . S
O614 C642 1.214 . S
H615 C643 0.929 . S
H616 C644 0.929 . S
H617 C645 0.930 . S
H618 C646 0.929 . S
H619 C648 0.930 . S
H620 C625 0.930 . S
H621 C629 0.930 . S
O622 Co591 2.037 . S
O622 C642 1.234 . S
C623 O597 1.269 . S
C623 O598 1.257 . S
C624 H599 0.930 . S
C624 C627 1.388 . S
C624 C629 1.418 . S
C625 H620 0.930 . S
C625 C628 1.404 . S
C625 C629 1.353 . S
N626 Co591 2.145 . S
N626 C627 1.397 . S
N626 C628 1.334 . S
C627 H608 0.929 . S
C627 C624 1.388 . S
C627 N626 1.397 . S
C628 H609 0.929 . S
C628 C625 1.404 . S
C628 N626 1.334 . S
C629 H621 0.930 . S
C629 C624 1.418 . S
C629 C625 1.353 . S
C630 H600 0.930 . S
C630 N631 1.330 1_565 S
C630 C632 1.446 . S
N631 Co590 2.151 . S
N631 C630 1.330 1_545 S
N631 C635 1.418 . S
C632 H611 0.929 . S
C632 C630 1.446 . S
C632 C633 1.332 . S
C633 H613 0.931 . S
C633 C632 1.332 . S
C633 C634 1.267 . S
C634 H602 0.929 1_655 S
C634 C633 1.267 . S
C634 C635 1.251 1_565 S
C635 H605 0.929 . S
C635 N631 1.418 . S
C635 C634 1.251 1_545 S
C636 H603 0.930 . S
C636 C638 1.406 . S
C636 C641 1.261 . S
C637 H604 0.930 . S
C637 N639 1.325 . S
C637 C640 1.357 . S
C638 H606 0.928 . S
C638 C636 1.406 . S
C638 N639 1.261 . S
N639 Co590 2.214 . S
N639 C637 1.325 . S
N639 C638 1.261 . S
C640 H610 0.931 . S
C640 C637 1.357 . S
C640 C641 1.312 . S
C641 H612 0.930 . S
C641 C636 1.261 . S
C641 C640 1.312 . S
C642 O614 1.214 . S
C642 O622 1.234 . S
C643 H615 0.929 . S
C643 C646 1.391 . S
C643 C648 1.391 . S
C644 H616 0.929 . S
C644 C645 1.390 . S
C644 N647 1.391 . S
C645 H617 0.930 . S
C645 C644 1.390 . S
C645 C646 1.392 . S
C646 H618 0.929 . S
C646 C643 1.391 . S
C646 C645 1.392 . S
N647 Co591 2.257 . S
N647 C644 1.391 . S
N647 C648 1.388 . S
C648 H619 0.930 . S
C648 C643 1.391 . S
C648 N647 1.388 . S
Co649 O651 2.143 . S
Co649 O657 2.074 . S
Co649 O660 2.093 . S
Co649 O673 2.097 . S
Co649 N690 2.151 . S
Co649 N698 2.214 . S
Co650 O651 2.160 . S
Co650 O656 2.058 . S
Co650 O666 2.057 . S
Co650 O681 2.037 . S
Co650 N685 2.145 . S
Co650 N706 2.257 . S
O651 Co649 2.143 . S
O651 Co650 2.160 . S
C652 O653 1.278 . S
C652 O660 1.224 . S
O653 C652 1.278 . S
C654 O655 1.245 . S
C654 O666 1.232 . S
O655 C654 1.245 . S
O656 Co650 2.058 . S
O656 C682 1.269 . S
O657 Co649 2.074 . S
O657 C682 1.257 . S
H658 C683 0.930 . S
H659 C689 0.930 . S
O660 Co649 2.093 . S
O660 C652 1.224 . S
H661 C693 0.929 . S
H662 C695 0.930 . S
H663 C696 0.930 . S
H664 C694 0.929 . S
H665 C697 0.928 . S
O666 Co650 2.057 . S
O666 C654 1.232 . S
H667 C686 0.929 . S
H668 C687 0.929 . S
H669 C699 0.931 . S
H670 C691 0.929 . S
H671 C700 0.930 . S
H672 C692 0.931 . S
O673 Co649 2.097 . S
O673 C701 1.214 . S
H674 C702 0.929 . S
H675 C703 0.929 . S
H676 C704 0.930 . S
H677 C705 0.929 . S
H678 C707 0.930 . S
H679 C684 0.930 . S
H680 C688 0.930 . S
O681 Co650 2.037 . S
O681 C701 1.234 . S
C682 O656 1.269 . S
C682 O657 1.257 . S
C683 H658 0.930 . S
C683 C686 1.388 . S
C683 C688 1.418 . S
C684 H679 0.930 . S
C684 C687 1.404 . S
C684 C688 1.353 . S
N685 Co650 2.145 . S
N685 C686 1.397 . S
N685 C687 1.334 . S
C686 H667 0.929 . S
C686 C683 1.388 . S
C686 N685 1.397 . S
C687 H668 0.929 . S
C687 C684 1.404 . S
C687 N685 1.334 . S
C688 H680 0.930 . S
C688 C683 1.418 . S
C688 C684 1.353 . S
C689 H659 0.930 . S
C689 N690 1.330 . S
C689 C691 1.446 . S
N690 Co649 2.151 . S
N690 C689 1.330 . S
N690 C694 1.418 . S
C691 H670 0.929 . S
C691 C689 1.446 . S
C691 C692 1.332 . S
C692 H672 0.931 . S
C692 C691 1.332 . S
C692 C693 1.267 . S
C693 H661 0.929 . S
C693 C692 1.267 . S
C693 C694 1.251 . S
C694 H664 0.929 . S
C694 N690 1.418 . S
C694 C693 1.251 . S
C695 H662 0.930 . S
C695 C697 1.406 . S
C695 C700 1.261 . S
C696 H663 0.930 . S
C696 N698 1.325 . S
C696 C699 1.357 . S
C697 H665 0.928 . S
C697 C695 1.406 . S
C697 N698 1.261 . S
N698 Co649 2.214 . S
N698 C696 1.325 . S
N698 C697 1.261 . S
C699 H669 0.931 . S
C699 C696 1.357 . S
C699 C700 1.312 . S
C700 H671 0.930 . S
C700 C695 1.261 . S
C700 C699 1.312 . S
C701 O673 1.214 . S
C701 O681 1.234 . S
C702 H674 0.929 . S
C702 C705 1.391 . S
C702 C707 1.391 . S
C703 H675 0.929 . S
C703 C704 1.390 . S
C703 N706 1.391 . S
C704 H676 0.930 . S
C704 C703 1.390 . S
C704 C705 1.392 . S
C705 H677 0.929 . S
C705 C702 1.391 . S
C705 C704 1.392 . S
N706 Co650 2.257 . S
N706 C703 1.391 . S
N706 C707 1.388 . S
C707 H678 0.930 . S
C707 C702 1.391 . S
C707 N706 1.388 . S
Co708 O710 2.143 . S
Co708 O716 2.074 . S
Co708 O719 2.093 . S
Co708 O732 2.097 . S
Co708 N749 2.151 . S
Co708 N757 2.214 . S
Co709 O710 2.160 . S
Co709 O715 2.058 . S
Co709 O725 2.057 . S
Co709 O740 2.037 . S
Co709 N744 2.145 . S
Co709 N765 2.257 . S
O710 Co708 2.143 . S
O710 Co709 2.160 . S
C711 O712 1.278 . S
C711 O719 1.224 . S
O712 C711 1.278 . S
C713 O714 1.245 . S
C713 O725 1.232 . S
O714 C713 1.245 . S
O715 Co709 2.058 . S
O715 C741 1.269 . S
O716 Co708 2.074 . S
O716 C741 1.257 . S
H717 C742 0.930 . S
H718 C748 0.930 . S
O719 Co708 2.093 . S
O719 C711 1.224 . S
H720 C752 0.929 . S
H721 C754 0.930 . S
H722 C755 0.930 . S
H723 C753 0.929 . S
H724 C756 0.928 . S
O725 Co709 2.057 . S
O725 C713 1.232 . S
H726 C745 0.929 . S
H727 C746 0.929 . S
H728 C758 0.931 . S
H729 C750 0.929 . S
H730 C759 0.930 . S
H731 C751 0.931 . S
O732 Co708 2.097 . S
O732 C760 1.214 . S
H733 C761 0.929 . S
H734 C762 0.929 . S
H735 C763 0.930 . S
H736 C764 0.929 . S
H737 C766 0.930 . S
H738 C743 0.930 . S
H739 C747 0.930 . S
O740 Co709 2.037 . S
O740 C760 1.234 . S
C741 O715 1.269 . S
C741 O716 1.257 . S
C742 H717 0.930 . S
C742 C745 1.388 . S
C742 C747 1.418 . S
C743 H738 0.930 . S
C743 C746 1.404 . S
C743 C747 1.353 . S
N744 Co709 2.145 . S
N744 C745 1.397 . S
N744 C746 1.334 . S
C745 H726 0.929 . S
C745 C742 1.388 . S
C745 N744 1.397 . S
C746 H727 0.929 . S
C746 C743 1.404 . S
C746 N744 1.334 . S
C747 H739 0.930 . S
C747 C742 1.418 . S
C747 C743 1.353 . S
C748 H718 0.930 . S
C748 N749 1.330 1_565 S
C748 C750 1.446 . S
N749 Co708 2.151 . S
N749 C748 1.330 1_545 S
N749 C753 1.418 . S
C750 H729 0.929 . S
C750 C748 1.446 . S
C750 C751 1.332 . S
C751 H731 0.931 . S
C751 C750 1.332 . S
C751 C752 1.267 . S
C752 H720 0.929 . S
C752 C751 1.267 . S
C752 C753 1.251 1_565 S
C753 H723 0.929 . S
C753 N749 1.418 . S
C753 C752 1.251 1_545 S
C754 H721 0.930 . S
C754 C756 1.406 . S
C754 C759 1.261 . S
C755 H722 0.930 . S
C755 N757 1.325 . S
C755 C758 1.357 . S
C756 H724 0.928 . S
C756 C754 1.406 . S
C756 N757 1.261 . S
N757 Co708 2.214 . S
N757 C755 1.325 . S
N757 C756 1.261 . S
C758 H728 0.931 . S
C758 C755 1.357 . S
C758 C759 1.312 . S
C759 H730 0.930 . S
C759 C754 1.261 . S
C759 C758 1.312 . S
C760 O732 1.214 . S
C760 O740 1.234 . S
C761 H733 0.929 . S
C761 C764 1.391 . S
C761 C766 1.391 . S
C762 H734 0.929 . S
C762 C763 1.390 . S
C762 N765 1.391 . S
C763 H735 0.930 . S
C763 C762 1.390 . S
C763 C764 1.392 . S
C764 H736 0.929 . S
C764 C761 1.391 . S
C764 C763 1.392 . S
N765 Co709 2.257 . S
N765 C762 1.391 . S
N765 C766 1.388 . S
C766 H737 0.930 . S
C766 C761 1.391 . S
C766 N765 1.388 . S
Co767 O769 2.143 . S
Co767 O775 2.074 . S
Co767 O778 2.093 . S
Co767 O791 2.097 . S
Co767 N808 2.151 . S
Co767 N816 2.214 . S
Co768 O769 2.160 . S
Co768 O774 2.058 . S
Co768 O784 2.057 . S
Co768 O799 2.037 . S
Co768 N803 2.145 . S
Co768 N824 2.257 . S
O769 Co767 2.143 . S
O769 Co768 2.160 . S
C770 O771 1.278 . S
C770 O778 1.224 . S
O771 C770 1.278 . S
C772 O773 1.245 . S
C772 O784 1.232 . S
O773 C772 1.245 . S
O774 Co768 2.058 . S
O774 C800 1.269 . S
O775 Co767 2.074 . S
O775 C800 1.257 . S
H776 C801 0.930 . S
H777 C807 0.930 . S
O778 Co767 2.093 . S
O778 C770 1.224 . S
H779 C811 0.929 . S
H780 C813 0.930 . S
H781 C814 0.930 . S
H782 C812 0.929 . S
H783 C815 0.928 . S
O784 Co768 2.057 . S
O784 C772 1.232 . S
H785 C804 0.929 . S
H786 C805 0.929 . S
H787 C817 0.931 . S
H788 C809 0.929 . S
H789 C818 0.930 . S
H790 C810 0.931 . S
O791 Co767 2.097 . S
O791 C819 1.214 . S
H792 C820 0.929 . S
H793 C821 0.929 . S
H794 C822 0.930 . S
H795 C823 0.929 . S
H796 C825 0.930 . S
H797 C802 0.930 . S
H798 C806 0.930 . S
O799 Co768 2.037 . S
O799 C819 1.234 . S
C800 O774 1.269 . S
C800 O775 1.257 . S
C801 H776 0.930 . S
C801 C804 1.388 . S
C801 C806 1.418 . S
C802 H797 0.930 . S
C802 C805 1.404 . S
C802 C806 1.353 . S
N803 Co768 2.145 . S
N803 C804 1.397 . S
N803 C805 1.334 . S
C804 H785 0.929 . S
C804 C801 1.388 . S
C804 N803 1.397 . S
C805 H786 0.929 . S
C805 C802 1.404 . S
C805 N803 1.334 . S
C806 H798 0.930 . S
C806 C801 1.418 . S
C806 C802 1.353 . S
C807 H777 0.930 . S
C807 N808 1.330 . S
C807 C809 1.446 . S
N808 Co767 2.151 . S
N808 C807 1.330 . S
N808 C812 1.418 . S
C809 H788 0.929 . S
C809 C807 1.446 . S
C809 C810 1.332 . S
C810 H790 0.931 . S
C810 C809 1.332 . S
C810 C811 1.267 . S
C811 H779 0.929 . S
C811 C810 1.267 . S
C811 C812 1.251 . S
C812 H782 0.929 . S
C812 N808 1.418 . S
C812 C811 1.251 . S
C813 H780 0.930 . S
C813 C815 1.406 . S
C813 C818 1.261 . S
C814 H781 0.930 . S
C814 N816 1.325 . S
C814 C817 1.357 . S
C815 H783 0.928 . S
C815 C813 1.406 . S
C815 N816 1.261 . S
N816 Co767 2.214 . S
N816 C814 1.325 . S
N816 C815 1.261 . S
C817 H787 0.931 . S
C817 C814 1.357 . S
C817 C818 1.312 . S
C818 H789 0.930 . S
C818 C813 1.261 . S
C818 C817 1.312 . S
C819 O791 1.214 . S
C819 O799 1.234 . S
C820 H792 0.929 . S
C820 C823 1.391 . S
C820 C825 1.391 . S
C821 H793 0.929 . S
C821 C822 1.390 . S
C821 N824 1.391 . S
C822 H794 0.930 . S
C822 C821 1.390 . S
C822 C823 1.392 . S
C823 H795 0.929 . S
C823 C820 1.391 . S
C823 C822 1.392 . S
N824 Co768 2.257 . S
N824 C821 1.391 . S
N824 C825 1.388 . S
C825 H796 0.930 . S
C825 C820 1.391 . S
C825 N824 1.388 . S
Co826 O828 2.143 . S
Co826 O834 2.074 . S
Co826 O837 2.093 . S
Co826 O850 2.097 . S
Co826 N867 2.151 . S
Co826 N875 2.214 . S
Co827 O828 2.160 . S
Co827 O833 2.058 . S
Co827 O843 2.057 . S
Co827 O858 2.037 . S
Co827 N862 2.145 . S
Co827 N883 2.257 . S
O828 Co826 2.143 . S
O828 Co827 2.160 . S
C829 O830 1.278 . S
C829 O837 1.224 . S
O830 C829 1.278 . S
C831 O832 1.245 . S
C831 O843 1.232 . S
O832 C831 1.245 . S
O833 Co827 2.058 . S
O833 C859 1.269 . S
O834 Co826 2.074 . S
O834 C859 1.257 . S
H835 C860 0.930 . S
H836 C866 0.930 . S
O837 Co826 2.093 . S
O837 C829 1.224 . S
H838 C870 0.929 1_455 S
H839 C872 0.930 . S
H840 C873 0.930 . S
H841 C871 0.929 . S
H842 C874 0.928 . S
O843 Co827 2.057 . S
O843 C831 1.232 . S
H844 C863 0.929 . S
H845 C864 0.929 . S
H846 C876 0.931 . S
H847 C868 0.929 . S
H848 C877 0.930 . S
H849 C869 0.931 . S
O850 Co826 2.097 . S
O850 C878 1.214 . S
H851 C879 0.929 . S
H852 C880 0.929 . S
H853 C881 0.930 . S
H854 C882 0.929 . S
H855 C884 0.930 . S
H856 C861 0.930 . S
H857 C865 0.930 . S
O858 Co827 2.037 . S
O858 C878 1.234 . S
C859 O833 1.269 . S
C859 O834 1.257 . S
C860 H835 0.930 . S
C860 C863 1.388 . S
C860 C865 1.418 . S
C861 H856 0.930 . S
C861 C864 1.404 . S
C861 C865 1.353 . S
N862 Co827 2.145 . S
N862 C863 1.397 . S
N862 C864 1.334 . S
C863 H844 0.929 . S
C863 C860 1.388 . S
C863 N862 1.397 . S
C864 H845 0.929 . S
C864 C861 1.404 . S
C864 N862 1.334 . S
C865 H857 0.930 . S
C865 C860 1.418 . S
C865 C861 1.353 . S
C866 H836 0.930 . S
C866 N867 1.330 1_545 S
C866 C868 1.446 . S
N867 Co826 2.151 . S
N867 C866 1.330 1_565 S
N867 C871 1.418 . S
C868 H847 0.929 . S
C868 C866 1.446 . S
C868 C869 1.332 . S
C869 H849 0.931 . S
C869 C868 1.332 . S
C869 C870 1.267 . S
C870 H838 0.929 1_655 S
C870 C869 1.267 . S
C870 C871 1.251 1_545 S
C871 H841 0.929 . S
C871 N867 1.418 . S
C871 C870 1.251 1_565 S
C872 H839 0.930 . S
C872 C874 1.406 . S
C872 C877 1.261 . S
C873 H840 0.930 . S
C873 N875 1.325 . S
C873 C876 1.357 . S
C874 H842 0.928 . S
C874 C872 1.406 . S
C874 N875 1.261 . S
N875 Co826 2.214 . S
N875 C873 1.325 . S
N875 C874 1.261 . S
C876 H846 0.931 . S
C876 C873 1.357 . S
C876 C877 1.312 . S
C877 H848 0.930 . S
C877 C872 1.261 . S
C877 C876 1.312 . S
C878 O850 1.214 . S
C878 O858 1.234 . S
C879 H851 0.929 . S
C879 C882 1.391 . S
C879 C884 1.391 . S
C880 H852 0.929 . S
C880 C881 1.390 . S
C880 N883 1.391 . S
C881 H853 0.930 . S
C881 C880 1.390 . S
C881 C882 1.392 . S
C882 H854 0.929 . S
C882 C879 1.391 . S
C882 C881 1.392 . S
N883 Co827 2.257 . S
N883 C880 1.391 . S
N883 C884 1.388 . S
C884 H855 0.930 . S
C884 C879 1.391 . S
C884 N883 1.388 . S
Co885 O887 2.143 . S
Co885 O893 2.074 . S
Co885 O896 2.093 . S
Co885 O909 2.097 . S
Co885 N926 2.151 . S
Co885 N934 2.214 . S
Co886 O887 2.160 . S
Co886 O892 2.058 . S
Co886 O902 2.057 . S
Co886 O917 2.037 . S
Co886 N921 2.145 . S
Co886 N942 2.257 . S
O887 Co885 2.143 . S
O887 Co886 2.160 . S
C888 O889 1.278 . S
C888 O896 1.224 . S
O889 C888 1.278 . S
C890 O891 1.245 . S
C890 O902 1.232 . S
O891 C890 1.245 . S
O892 Co886 2.058 . S
O892 C918 1.269 . S
O893 Co885 2.074 . S
O893 C918 1.257 . S
H894 C919 0.930 . S
H895 C925 0.930 . S
O896 Co885 2.093 . S
O896 C888 1.224 . S
H897 C929 0.929 . S
H898 C931 0.930 . S
H899 C932 0.930 . S
H900 C930 0.929 . S
H901 C933 0.928 . S
O902 Co886 2.057 . S
O902 C890 1.232 . S
H903 C922 0.929 . S
H904 C923 0.929 . S
H905 C935 0.931 . S
H906 C927 0.929 . S
H907 C936 0.930 . S
H908 C928 0.931 . S
O909 Co885 2.097 . S
O909 C937 1.214 . S
H910 C938 0.929 . S
H911 C939 0.929 . S
H912 C940 0.930 . S
H913 C941 0.929 . S
H914 C943 0.930 . S
H915 C920 0.930 . S
H916 C924 0.930 . S
O917 Co886 2.037 . S
O917 C937 1.234 . S
C918 O892 1.269 . S
C918 O893 1.257 . S
C919 H894 0.930 . S
C919 C922 1.388 . S
C919 C924 1.418 . S
C920 H915 0.930 . S
C920 C923 1.404 . S
C920 C924 1.353 . S
N921 Co886 2.145 . S
N921 C922 1.397 . S
N921 C923 1.334 . S
C922 H903 0.929 . S
C922 C919 1.388 . S
C922 N921 1.397 . S
C923 H904 0.929 . S
C923 C920 1.404 . S
C923 N921 1.334 . S
C924 H916 0.930 . S
C924 C919 1.418 . S
C924 C920 1.353 . S
C925 H895 0.930 . S
C925 N926 1.330 . S
C925 C927 1.446 . S
N926 Co885 2.151 . S
N926 C925 1.330 . S
N926 C930 1.418 . S
C927 H906 0.929 . S
C927 C925 1.446 . S
C927 C928 1.332 . S
C928 H908 0.931 . S
C928 C927 1.332 . S
C928 C929 1.267 . S
C929 H897 0.929 . S
C929 C928 1.267 . S
C929 C930 1.251 . S
C930 H900 0.929 . S
C930 N926 1.418 . S
C930 C929 1.251 . S
C931 H898 0.930 . S
C931 C933 1.406 . S
C931 C936 1.261 . S
C932 H899 0.930 . S
C932 N934 1.325 . S
C932 C935 1.357 . S
C933 H901 0.928 . S
C933 C931 1.406 . S
C933 N934 1.261 . S
N934 Co885 2.214 . S
N934 C932 1.325 . S
N934 C933 1.261 . S
C935 H905 0.931 . S
C935 C932 1.357 . S
C935 C936 1.312 . S
C936 H907 0.930 . S
C936 C931 1.261 . S
C936 C935 1.312 . S
C937 O909 1.214 . S
C937 O917 1.234 . S
C938 H910 0.929 . S
C938 C941 1.391 . S
C938 C943 1.391 . S
C939 H911 0.929 . S
C939 C940 1.390 . S
C939 N942 1.391 . S
C940 H912 0.930 . S
C940 C939 1.390 . S
C940 C941 1.392 . S
C941 H913 0.929 . S
C941 C938 1.391 . S
C941 C940 1.392 . S
N942 Co886 2.257 . S
N942 C939 1.391 . S
N942 C943 1.388 . S
C943 H914 0.930 . S
C943 C938 1.391 . S
C943 N942 1.388 . S
Co944 O946 2.143 . S
Co944 O952 2.074 . S
Co944 O955 2.093 . S
Co944 O968 2.097 . S
Co944 N985 2.151 . S
Co944 N993 2.214 . S
Co945 O946 2.160 . S
Co945 O951 2.058 . S
Co945 O961 2.057 . S
Co945 O976 2.037 . S
Co945 N980 2.145 . S
Co945 N1001 2.257 . S
O946 Co944 2.143 . S
O946 Co945 2.160 . S
C947 O948 1.278 . S
C947 O955 1.224 . S
O948 C947 1.278 . S
C949 O950 1.245 . S
C949 O961 1.232 . S
O950 C949 1.245 . S
O951 Co945 2.058 . S
O951 C977 1.269 . S
O952 Co944 2.074 . S
O952 C977 1.257 . S
H953 C978 0.930 . S
H954 C984 0.930 . S
O955 Co944 2.093 . S
O955 C947 1.224 . S
H956 C988 0.929 1_455 S
H957 C990 0.930 . S
H958 C991 0.930 . S
H959 C989 0.929 . S
H960 C992 0.928 . S
O961 Co945 2.057 . S
O961 C949 1.232 . S
H962 C981 0.929 . S
H963 C982 0.929 . S
H964 C994 0.931 . S
H965 C986 0.929 . S
H966 C995 0.930 . S
H967 C987 0.931 . S
O968 Co944 2.097 . S
O968 C996 1.214 . S
H969 C997 0.929 . S
H970 C998 0.929 . S
H971 C999 0.930 . S
H972 C1000 0.929 . S
H973 C1002 0.930 . S
H974 C979 0.930 . S
H975 C983 0.930 . S
O976 Co945 2.037 . S
O976 C996 1.234 . S
C977 O951 1.269 . S
C977 O952 1.257 . S
C978 H953 0.930 . S
C978 C981 1.388 . S
C978 C983 1.418 . S
C979 H974 0.930 . S
C979 C982 1.404 . S
C979 C983 1.353 . S
N980 Co945 2.145 . S
N980 C981 1.397 . S
N980 C982 1.334 . S
C981 H962 0.929 . S
C981 C978 1.388 . S
C981 N980 1.397 . S
C982 H963 0.929 . S
C982 C979 1.404 . S
C982 N980 1.334 . S
C983 H975 0.930 . S
C983 C978 1.418 . S
C983 C979 1.353 . S
C984 H954 0.930 . S
C984 N985 1.330 . S
C984 C986 1.446 . S
N985 Co944 2.151 . S
N985 C984 1.330 . S
N985 C989 1.418 . S
C986 H965 0.929 . S
C986 C984 1.446 . S
C986 C987 1.332 . S
C987 H967 0.931 . S
C987 C986 1.332 . S
C987 C988 1.267 . S
C988 H956 0.929 1_655 S
C988 C987 1.267 . S
C988 C989 1.251 . S
C989 H959 0.929 . S
C989 N985 1.418 . S
C989 C988 1.251 . S
C990 H957 0.930 . S
C990 C992 1.406 . S
C990 C995 1.261 . S
C991 H958 0.930 . S
C991 N993 1.325 . S
C991 C994 1.357 . S
C992 H960 0.928 . S
C992 C990 1.406 . S
C992 N993 1.261 . S
N993 Co944 2.214 . S
N993 C991 1.325 . S
N993 C992 1.261 . S
C994 H964 0.931 . S
C994 C991 1.357 . S
C994 C995 1.312 . S
C995 H966 0.930 . S
C995 C990 1.261 . S
C995 C994 1.312 . S
C996 O968 1.214 . S
C996 O976 1.234 . S
C997 H969 0.929 . S
C997 C1000 1.391 . S
C997 C1002 1.391 . S
C998 H970 0.929 . S
C998 C999 1.390 . S
C998 N1001 1.391 . S
C999 H971 0.930 . S
C999 C998 1.390 . S
C999 C1000 1.392 . S
C1000 H972 0.929 . S
C1000 C997 1.391 . S
C1000 C999 1.392 . S
N1001 Co945 2.257 . S
N1001 C998 1.391 . S
N1001 C1002 1.388 . S
C1002 H973 0.930 . S
C1002 C997 1.391 . S
C1002 N1001 1.388 . S
Co1003 O1005 2.143 . S
Co1003 O1011 2.074 . S
Co1003 O1014 2.093 . S
Co1003 O1027 2.097 . S
Co1003 N1044 2.151 . S
Co1003 N1052 2.214 . S
Co1004 O1005 2.160 . S
Co1004 O1010 2.058 . S
Co1004 O1020 2.057 . S
Co1004 O1035 2.037 . S
Co1004 N1039 2.145 . S
Co1004 N1060 2.257 . S
O1005 Co1003 2.143 . S
O1005 Co1004 2.160 . S
C1006 O1007 1.278 . S
C1006 O1014 1.224 . S
O1007 C1006 1.278 . S
C1008 O1009 1.245 . S
C1008 O1020 1.232 . S
O1009 C1008 1.245 . S
O1010 Co1004 2.058 . S
O1010 C1036 1.269 . S
O1011 Co1003 2.074 . S
O1011 C1036 1.257 . S
H1012 C1037 0.930 . S
H1013 C1043 0.930 . S
O1014 Co1003 2.093 . S
O1014 C1006 1.224 . S
H1015 C1047 0.929 . S
H1016 C1049 0.930 . S
H1017 C1050 0.930 . S
H1018 C1048 0.929 . S
H1019 C1051 0.928 . S
O1020 Co1004 2.057 . S
O1020 C1008 1.232 . S
H1021 C1040 0.929 . S
H1022 C1041 0.929 . S
H1023 C1053 0.931 . S
H1024 C1045 0.929 . S
H1025 C1054 0.930 . S
H1026 C1046 0.931 . S
O1027 Co1003 2.097 . S
O1027 C1055 1.214 . S
H1028 C1056 0.929 . S
H1029 C1057 0.929 . S
H1030 C1058 0.930 . S
H1031 C1059 0.929 . S
H1032 C1061 0.930 . S
H1033 C1038 0.930 . S
H1034 C1042 0.930 . S
O1035 Co1004 2.037 . S
O1035 C1055 1.234 . S
C1036 O1010 1.269 . S
C1036 O1011 1.257 . S
C1037 H1012 0.930 . S
C1037 C1040 1.388 . S
C1037 C1042 1.418 . S
C1038 H1033 0.930 . S
C1038 C1041 1.404 . S
C1038 C1042 1.353 . S
N1039 Co1004 2.145 . S
N1039 C1040 1.397 . S
N1039 C1041 1.334 . S
C1040 H1021 0.929 . S
C1040 C1037 1.388 . S
C1040 N1039 1.397 . S
C1041 H1022 0.929 . S
C1041 C1038 1.404 . S
C1041 N1039 1.334 . S
C1042 H1034 0.930 . S
C1042 C1037 1.418 . S
C1042 C1038 1.353 . S
C1043 H1013 0.930 . S
C1043 N1044 1.330 . S
C1043 C1045 1.446 . S
N1044 Co1003 2.151 . S
N1044 C1043 1.330 . S
N1044 C1048 1.418 . S
C1045 H1024 0.929 . S
C1045 C1043 1.446 . S
C1045 C1046 1.332 . S
C1046 H1026 0.931 . S
C1046 C1045 1.332 . S
C1046 C1047 1.267 . S
C1047 H1015 0.929 . S
C1047 C1046 1.267 . S
C1047 C1048 1.251 . S
C1048 H1018 0.929 . S
C1048 N1044 1.418 . S
C1048 C1047 1.251 . S
C1049 H1016 0.930 . S
C1049 C1051 1.406 . S
C1049 C1054 1.261 . S
C1050 H1017 0.930 . S
C1050 N1052 1.325 . S
C1050 C1053 1.357 . S
C1051 H1019 0.928 . S
C1051 C1049 1.406 . S
C1051 N1052 1.261 . S
N1052 Co1003 2.214 . S
N1052 C1050 1.325 . S
N1052 C1051 1.261 . S
C1053 H1023 0.931 . S
C1053 C1050 1.357 . S
C1053 C1054 1.312 . S
C1054 H1025 0.930 . S
C1054 C1049 1.261 . S
C1054 C1053 1.312 . S
C1055 O1027 1.214 . S
C1055 O1035 1.234 . S
C1056 H1028 0.929 . S
C1056 C1059 1.391 . S
C1056 C1061 1.391 . S
C1057 H1029 0.929 . S
C1057 C1058 1.390 . S
C1057 N1060 1.391 . S
C1058 H1030 0.930 . S
C1058 C1057 1.390 . S
C1058 C1059 1.392 . S
C1059 H1031 0.929 . S
C1059 C1056 1.391 . S
C1059 C1058 1.392 . S
N1060 Co1004 2.257 . S
N1060 C1057 1.391 . S
N1060 C1061 1.388 . S
C1061 H1032 0.930 . S
C1061 C1056 1.391 . S
C1061 N1060 1.388 . S
Co1062 O1064 2.143 . S
Co1062 O1070 2.074 . S
Co1062 O1073 2.093 . S
Co1062 O1086 2.097 . S
Co1062 N1103 2.151 . S
Co1062 N1111 2.214 . S
Co1063 O1064 2.160 . S
Co1063 O1069 2.058 . S
Co1063 O1079 2.057 . S
Co1063 O1094 2.037 . S
Co1063 N1098 2.145 . S
Co1063 N1119 2.257 . S
O1064 Co1062 2.143 . S
O1064 Co1063 2.160 . S
C1065 O1066 1.278 . S
C1065 O1073 1.224 . S
O1066 C1065 1.278 . S
C1067 O1068 1.245 . S
C1067 O1079 1.232 . S
O1068 C1067 1.245 . S
O1069 Co1063 2.058 . S
O1069 C1095 1.269 . S
O1070 Co1062 2.074 . S
O1070 C1095 1.257 . S
H1071 C1096 0.930 . S
H1072 C1102 0.930 . S
O1073 Co1062 2.093 . S
O1073 C1065 1.224 . S
H1074 C1106 0.929 . S
H1075 C1108 0.930 . S
H1076 C1109 0.930 . S
H1077 C1107 0.929 . S
H1078 C1110 0.928 . S
O1079 Co1063 2.057 . S
O1079 C1067 1.232 . S
H1080 C1099 0.929 . S
H1081 C1100 0.929 . S
H1082 C1112 0.931 . S
H1083 C1104 0.929 . S
H1084 C1113 0.930 . S
H1085 C1105 0.931 . S
O1086 Co1062 2.097 . S
O1086 C1114 1.214 . S
H1087 C1115 0.929 . S
H1088 C1116 0.929 . S
H1089 C1117 0.930 . S
H1090 C1118 0.929 . S
H1091 C1120 0.930 . S
H1092 C1097 0.930 . S
H1093 C1101 0.930 . S
O1094 Co1063 2.037 . S
O1094 C1114 1.234 . S
C1095 O1069 1.269 . S
C1095 O1070 1.257 . S
C1096 H1071 0.930 . S
C1096 C1099 1.388 . S
C1096 C1101 1.418 . S
C1097 H1092 0.930 . S
C1097 C1100 1.404 . S
C1097 C1101 1.353 . S
N1098 Co1063 2.145 . S
N1098 C1099 1.397 . S
N1098 C1100 1.334 . S
C1099 H1080 0.929 . S
C1099 C1096 1.388 . S
C1099 N1098 1.397 . S
C1100 H1081 0.929 . S
C1100 C1097 1.404 . S
C1100 N1098 1.334 . S
C1101 H1093 0.930 . S
C1101 C1096 1.418 . S
C1101 C1097 1.353 . S
C1102 H1072 0.930 . S
C1102 N1103 1.330 . S
C1102 C1104 1.446 . S
N1103 Co1062 2.151 . S
N1103 C1102 1.330 . S
N1103 C1107 1.418 . S
C1104 H1083 0.929 . S
C1104 C1102 1.446 . S
C1104 C1105 1.332 . S
C1105 H1085 0.931 . S
C1105 C1104 1.332 . S
C1105 C1106 1.267 . S
C1106 H1074 0.929 . S
C1106 C1105 1.267 . S
C1106 C1107 1.251 . S
C1107 H1077 0.929 . S
C1107 N1103 1.418 . S
C1107 C1106 1.251 . S
C1108 H1075 0.930 . S
C1108 C1110 1.406 . S
C1108 C1113 1.261 . S
C1109 H1076 0.930 . S
C1109 N1111 1.325 . S
C1109 C1112 1.357 . S
C1110 H1078 0.928 . S
C1110 C1108 1.406 . S
C1110 N1111 1.261 . S
N1111 Co1062 2.214 . S
N1111 C1109 1.325 . S
N1111 C1110 1.261 . S
C1112 H1082 0.931 . S
C1112 C1109 1.357 . S
C1112 C1113 1.312 . S
C1113 H1084 0.930 . S
C1113 C1108 1.261 . S
C1113 C1112 1.312 . S
C1114 O1086 1.214 . S
C1114 O1094 1.234 . S
C1115 H1087 0.929 . S
C1115 C1118 1.391 . S
C1115 C1120 1.391 . S
C1116 H1088 0.929 . S
C1116 C1117 1.390 . S
C1116 N1119 1.391 . S
C1117 H1089 0.930 . S
C1117 C1116 1.390 . S
C1117 C1118 1.392 . S
C1118 H1090 0.929 . S
C1118 C1115 1.391 . S
C1118 C1117 1.392 . S
N1119 Co1063 2.257 . S
N1119 C1116 1.391 . S
N1119 C1120 1.388 . S
C1120 H1091 0.930 . S
C1120 C1115 1.391 . S
C1120 N1119 1.388 . S
Co1121 O1123 2.143 . S
Co1121 O1129 2.074 . S
Co1121 O1132 2.093 . S
Co1121 O1145 2.097 . S
Co1121 N1162 2.151 . S
Co1121 N1170 2.214 . S
Co1122 O1123 2.160 . S
Co1122 O1128 2.058 . S
Co1122 O1138 2.057 . S
Co1122 O1153 2.037 . S
Co1122 N1157 2.145 . S
Co1122 N1178 2.257 . S
O1123 Co1121 2.143 . S
O1123 Co1122 2.160 . S
C1124 O1125 1.278 . S
C1124 O1132 1.224 . S
O1125 C1124 1.278 . S
C1126 O1127 1.245 . S
C1126 O1138 1.232 . S
O1127 C1126 1.245 . S
O1128 Co1122 2.058 . S
O1128 C1154 1.269 . S
O1129 Co1121 2.074 . S
O1129 C1154 1.257 . S
H1130 C1155 0.930 . S
H1131 C1161 0.930 . S
O1132 Co1121 2.093 . S
O1132 C1124 1.224 . S
H1133 C1165 0.929 . S
H1134 C1167 0.930 . S
H1135 C1168 0.930 . S
H1136 C1166 0.929 . S
H1137 C1169 0.928 . S
O1138 Co1122 2.057 . S
O1138 C1126 1.232 . S
H1139 C1158 0.929 . S
H1140 C1159 0.929 . S
H1141 C1171 0.931 . S
H1142 C1163 0.929 . S
H1143 C1172 0.930 . S
H1144 C1164 0.931 . S
O1145 Co1121 2.097 . S
O1145 C1173 1.214 . S
H1146 C1174 0.929 . S
H1147 C1175 0.929 . S
H1148 C1176 0.930 . S
H1149 C1177 0.929 . S
H1150 C1179 0.930 . S
H1151 C1156 0.930 . S
H1152 C1160 0.930 . S
O1153 Co1122 2.037 . S
O1153 C1173 1.234 . S
C1154 O1128 1.269 . S
C1154 O1129 1.257 . S
C1155 H1130 0.930 . S
C1155 C1158 1.388 . S
C1155 C1160 1.418 . S
C1156 H1151 0.930 . S
C1156 C1159 1.404 . S
C1156 C1160 1.353 . S
N1157 Co1122 2.145 . S
N1157 C1158 1.397 . S
N1157 C1159 1.334 . S
C1158 H1139 0.929 . S
C1158 C1155 1.388 . S
C1158 N1157 1.397 . S
C1159 H1140 0.929 . S
C1159 C1156 1.404 . S
C1159 N1157 1.334 . S
C1160 H1152 0.930 . S
C1160 C1155 1.418 . S
C1160 C1156 1.353 . S
C1161 H1131 0.930 . S
C1161 N1162 1.330 . S
C1161 C1163 1.446 . S
N1162 Co1121 2.151 . S
N1162 C1161 1.330 . S
N1162 C1166 1.418 . S
C1163 H1142 0.929 . S
C1163 C1161 1.446 . S
C1163 C1164 1.332 . S
C1164 H1144 0.931 . S
C1164 C1163 1.332 . S
C1164 C1165 1.267 . S
C1165 H1133 0.929 . S
C1165 C1164 1.267 . S
C1165 C1166 1.251 . S
C1166 H1136 0.929 . S
C1166 N1162 1.418 . S
C1166 C1165 1.251 . S
C1167 H1134 0.930 . S
C1167 C1169 1.406 . S
C1167 C1172 1.261 . S
C1168 H1135 0.930 . S
C1168 N1170 1.325 . S
C1168 C1171 1.357 . S
C1169 H1137 0.928 . S
C1169 C1167 1.406 . S
C1169 N1170 1.261 . S
N1170 Co1121 2.214 . S
N1170 C1168 1.325 . S
N1170 C1169 1.261 . S
C1171 H1141 0.931 . S
C1171 C1168 1.357 . S
C1171 C1172 1.312 . S
C1172 H1143 0.930 . S
C1172 C1167 1.261 . S
C1172 C1171 1.312 . S
C1173 O1145 1.214 . S
C1173 O1153 1.234 . S
C1174 H1146 0.929 . S
C1174 C1177 1.391 . S
C1174 C1179 1.391 . S
C1175 H1147 0.929 . S
C1175 C1176 1.390 . S
C1175 N1178 1.391 . S
C1176 H1148 0.930 . S
C1176 C1175 1.390 . S
C1176 C1177 1.392 . S
C1177 H1149 0.929 . S
C1177 C1174 1.391 . S
C1177 C1176 1.392 . S
N1178 Co1122 2.257 . S
N1178 C1175 1.391 . S
N1178 C1179 1.388 . S
C1179 H1150 0.930 . S
C1179 C1174 1.391 . S
C1179 N1178 1.388 . S
Co1180 O1182 2.143 . S
Co1180 O1188 2.074 . S
Co1180 O1191 2.093 . S
Co1180 O1204 2.097 . S
Co1180 N1221 2.151 . S
Co1180 N1229 2.214 . S
Co1181 O1182 2.160 . S
Co1181 O1187 2.058 . S
Co1181 O1197 2.057 . S
Co1181 O1212 2.037 . S
Co1181 N1216 2.145 . S
Co1181 N1237 2.257 . S
O1182 Co1180 2.143 . S
O1182 Co1181 2.160 . S
C1183 O1184 1.278 . S
C1183 O1191 1.224 . S
O1184 C1183 1.278 . S
C1185 O1186 1.245 . S
C1185 O1197 1.232 . S
O1186 C1185 1.245 . S
O1187 Co1181 2.058 . S
O1187 C1213 1.269 . S
O1188 Co1180 2.074 . S
O1188 C1213 1.257 . S
H1189 C1214 0.930 . S
H1190 C1220 0.930 . S
O1191 Co1180 2.093 . S
O1191 C1183 1.224 . S
H1192 C1224 0.929 1_455 S
H1193 C1226 0.930 . S
H1194 C1227 0.930 . S
H1195 C1225 0.929 . S
H1196 C1228 0.928 . S
O1197 Co1181 2.057 . S
O1197 C1185 1.232 . S
H1198 C1217 0.929 . S
H1199 C1218 0.929 . S
H1200 C1230 0.931 . S
H1201 C1222 0.929 . S
H1202 C1231 0.930 . S
H1203 C1223 0.931 . S
O1204 Co1180 2.097 . S
O1204 C1232 1.214 . S
H1205 C1233 0.929 . S
H1206 C1234 0.929 . S
H1207 C1235 0.930 . S
H1208 C1236 0.929 . S
H1209 C1238 0.930 . S
H1210 C1215 0.930 . S
H1211 C1219 0.930 . S
O1212 Co1181 2.037 . S
O1212 C1232 1.234 . S
C1213 O1187 1.269 . S
C1213 O1188 1.257 . S
C1214 H1189 0.930 . S
C1214 C1217 1.388 . S
C1214 C1219 1.418 . S
C1215 H1210 0.930 . S
C1215 C1218 1.404 . S
C1215 C1219 1.353 . S
N1216 Co1181 2.145 . S
N1216 C1217 1.397 . S
N1216 C1218 1.334 . S
C1217 H1198 0.929 . S
C1217 C1214 1.388 . S
C1217 N1216 1.397 . S
C1218 H1199 0.929 . S
C1218 C1215 1.404 . S
C1218 N1216 1.334 . S
C1219 H1211 0.930 . S
C1219 C1214 1.418 . S
C1219 C1215 1.353 . S
C1220 H1190 0.930 . S
C1220 N1221 1.330 . S
C1220 C1222 1.446 . S
N1221 Co1180 2.151 . S
N1221 C1220 1.330 . S
N1221 C1225 1.418 . S
C1222 H1201 0.929 . S
C1222 C1220 1.446 . S
C1222 C1223 1.332 . S
C1223 H1203 0.931 . S
C1223 C1222 1.332 . S
C1223 C1224 1.267 . S
C1224 H1192 0.929 1_655 S
C1224 C1223 1.267 . S
C1224 C1225 1.251 . S
C1225 H1195 0.929 . S
C1225 N1221 1.418 . S
C1225 C1224 1.251 . S
C1226 H1193 0.930 . S
C1226 C1228 1.406 . S
C1226 C1231 1.261 . S
C1227 H1194 0.930 . S
C1227 N1229 1.325 . S
C1227 C1230 1.357 . S
C1228 H1196 0.928 . S
C1228 C1226 1.406 . S
C1228 N1229 1.261 . S
N1229 Co1180 2.214 . S
N1229 C1227 1.325 . S
N1229 C1228 1.261 . S
C1230 H1200 0.931 . S
C1230 C1227 1.357 . S
C1230 C1231 1.312 . S
C1231 H1202 0.930 . S
C1231 C1226 1.261 . S
C1231 C1230 1.312 . S
C1232 O1204 1.214 . S
C1232 O1212 1.234 . S
C1233 H1205 0.929 . S
C1233 C1236 1.391 . S
C1233 C1238 1.391 . S
C1234 H1206 0.929 . S
C1234 C1235 1.390 . S
C1234 N1237 1.391 . S
C1235 H1207 0.930 . S
C1235 C1234 1.390 . S
C1235 C1236 1.392 . S
C1236 H1208 0.929 . S
C1236 C1233 1.391 . S
C1236 C1235 1.392 . S
N1237 Co1181 2.257 . S
N1237 C1234 1.391 . S
N1237 C1238 1.388 . S
C1238 H1209 0.930 . S
C1238 C1233 1.391 . S
C1238 N1237 1.388 . S
Co1239 O1241 2.143 . S
Co1239 O1247 2.074 . S
Co1239 O1250 2.093 . S
Co1239 O1263 2.097 . S
Co1239 N1280 2.151 . S
Co1239 N1288 2.214 . S
Co1240 O1241 2.160 . S
Co1240 O1246 2.058 . S
Co1240 O1256 2.057 . S
Co1240 O1271 2.037 . S
Co1240 N1275 2.145 . S
Co1240 N1296 2.257 . S
O1241 Co1239 2.143 . S
O1241 Co1240 2.160 . S
C1242 O1243 1.278 . S
C1242 O1250 1.224 . S
O1243 C1242 1.278 . S
C1244 O1245 1.245 . S
C1244 O1256 1.232 . S
O1245 C1244 1.245 . S
O1246 Co1240 2.058 . S
O1246 C1272 1.269 . S
O1247 Co1239 2.074 . S
O1247 C1272 1.257 . S
H1248 C1273 0.930 . S
H1249 C1279 0.930 . S
O1250 Co1239 2.093 . S
O1250 C1242 1.224 . S
H1251 C1283 0.929 . S
H1252 C1285 0.930 . S
H1253 C1286 0.930 . S
H1254 C1284 0.929 . S
H1255 C1287 0.928 . S
O1256 Co1240 2.057 . S
O1256 C1244 1.232 . S
H1257 C1276 0.929 . S
H1258 C1277 0.929 . S
H1259 C1289 0.931 . S
H1260 C1281 0.929 . S
H1261 C1290 0.930 . S
H1262 C1282 0.931 . S
O1263 Co1239 2.097 . S
O1263 C1291 1.214 . S
H1264 C1292 0.929 . S
H1265 C1293 0.929 . S
H1266 C1294 0.930 . S
H1267 C1295 0.929 . S
H1268 C1297 0.930 . S
H1269 C1274 0.930 . S
H1270 C1278 0.930 . S
O1271 Co1240 2.037 . S
O1271 C1291 1.234 . S
C1272 O1246 1.269 . S
C1272 O1247 1.257 . S
C1273 H1248 0.930 . S
C1273 C1276 1.388 . S
C1273 C1278 1.418 . S
C1274 H1269 0.930 . S
C1274 C1277 1.404 . S
C1274 C1278 1.353 . S
N1275 Co1240 2.145 . S
N1275 C1276 1.397 . S
N1275 C1277 1.334 . S
C1276 H1257 0.929 . S
C1276 C1273 1.388 . S
C1276 N1275 1.397 . S
C1277 H1258 0.929 . S
C1277 C1274 1.404 . S
C1277 N1275 1.334 . S
C1278 H1270 0.930 . S
C1278 C1273 1.418 . S
C1278 C1274 1.353 . S
C1279 H1249 0.930 . S
C1279 N1280 1.330 . S
C1279 C1281 1.446 . S
N1280 Co1239 2.151 . S
N1280 C1279 1.330 . S
N1280 C1284 1.418 . S
C1281 H1260 0.929 . S
C1281 C1279 1.446 . S
C1281 C1282 1.332 . S
C1282 H1262 0.931 . S
C1282 C1281 1.332 . S
C1282 C1283 1.267 . S
C1283 H1251 0.929 . S
C1283 C1282 1.267 . S
C1283 C1284 1.251 . S
C1284 H1254 0.929 . S
C1284 N1280 1.418 . S
C1284 C1283 1.251 . S
C1285 H1252 0.930 . S
C1285 C1287 1.406 . S
C1285 C1290 1.261 . S
C1286 H1253 0.930 . S
C1286 N1288 1.325 . S
C1286 C1289 1.357 . S
C1287 H1255 0.928 . S
C1287 C1285 1.406 . S
C1287 N1288 1.261 . S
N1288 Co1239 2.214 . S
N1288 C1286 1.325 . S
N1288 C1287 1.261 . S
C1289 H1259 0.931 . S
C1289 C1286 1.357 . S
C1289 C1290 1.312 . S
C1290 H1261 0.930 . S
C1290 C1285 1.261 . S
C1290 C1289 1.312 . S
C1291 O1263 1.214 . S
C1291 O1271 1.234 . S
C1292 H1264 0.929 . S
C1292 C1295 1.391 . S
C1292 C1297 1.391 . S
C1293 H1265 0.929 . S
C1293 C1294 1.390 . S
C1293 N1296 1.391 . S
C1294 H1266 0.930 . S
C1294 C1293 1.390 . S
C1294 C1295 1.392 . S
C1295 H1267 0.929 . S
C1295 C1292 1.391 . S
C1295 C1294 1.392 . S
N1296 Co1240 2.257 . S
N1296 C1293 1.391 . S
N1296 C1297 1.388 . S
C1297 H1268 0.930 . S
C1297 C1292 1.391 . S
C1297 N1296 1.388 . S
Co1298 O1300 2.143 . S
Co1298 O1306 2.074 . S
Co1298 O1309 2.093 . S
Co1298 O1322 2.097 . S
Co1298 N1339 2.151 . S
Co1298 N1347 2.214 . S
Co1299 O1300 2.160 . S
Co1299 O1305 2.058 . S
Co1299 O1315 2.057 . S
Co1299 O1330 2.037 . S
Co1299 N1334 2.145 . S
Co1299 N1355 2.257 . S
O1300 Co1298 2.143 . S
O1300 Co1299 2.160 . S
C1301 O1302 1.278 . S
C1301 O1309 1.224 . S
O1302 C1301 1.278 . S
C1303 O1304 1.245 . S
C1303 O1315 1.232 . S
O1304 C1303 1.245 . S
O1305 Co1299 2.058 . S
O1305 C1331 1.269 . S
O1306 Co1298 2.074 . S
O1306 C1331 1.257 . S
H1307 C1332 0.930 . S
H1308 C1338 0.930 . S
O1309 Co1298 2.093 . S
O1309 C1301 1.224 . S
H1310 C1342 0.929 . S
H1311 C1344 0.930 . S
H1312 C1345 0.930 . S
H1313 C1343 0.929 . S
H1314 C1346 0.928 . S
O1315 Co1299 2.057 . S
O1315 C1303 1.232 . S
H1316 C1335 0.929 . S
H1317 C1336 0.929 . S
H1318 C1348 0.931 . S
H1319 C1340 0.929 . S
H1320 C1349 0.930 . S
H1321 C1341 0.931 . S
O1322 Co1298 2.097 . S
O1322 C1350 1.214 . S
H1323 C1351 0.929 . S
H1324 C1352 0.929 . S
H1325 C1353 0.930 . S
H1326 C1354 0.929 . S
H1327 C1356 0.930 . S
H1328 C1333 0.930 . S
H1329 C1337 0.930 . S
O1330 Co1299 2.037 . S
O1330 C1350 1.234 . S
C1331 O1305 1.269 . S
C1331 O1306 1.257 . S
C1332 H1307 0.930 . S
C1332 C1335 1.388 . S
C1332 C1337 1.418 . S
C1333 H1328 0.930 . S
C1333 C1336 1.404 . S
C1333 C1337 1.353 . S
N1334 Co1299 2.145 . S
N1334 C1335 1.397 . S
N1334 C1336 1.334 . S
C1335 H1316 0.929 . S
C1335 C1332 1.388 . S
C1335 N1334 1.397 . S
C1336 H1317 0.929 . S
C1336 C1333 1.404 . S
C1336 N1334 1.334 . S
C1337 H1329 0.930 . S
C1337 C1332 1.418 . S
C1337 C1333 1.353 . S
C1338 H1308 0.930 . S
C1338 N1339 1.330 . S
C1338 C1340 1.446 . S
N1339 Co1298 2.151 . S
N1339 C1338 1.330 . S
N1339 C1343 1.418 . S
C1340 H1319 0.929 . S
C1340 C1338 1.446 . S
C1340 C1341 1.332 . S
C1341 H1321 0.931 . S
C1341 C1340 1.332 . S
C1341 C1342 1.267 . S
C1342 H1310 0.929 . S
C1342 C1341 1.267 . S
C1342 C1343 1.251 . S
C1343 H1313 0.929 . S
C1343 N1339 1.418 . S
C1343 C1342 1.251 . S
C1344 H1311 0.930 . S
C1344 C1346 1.406 . S
C1344 C1349 1.261 . S
C1345 H1312 0.930 . S
C1345 N1347 1.325 . S
C1345 C1348 1.357 . S
C1346 H1314 0.928 . S
C1346 C1344 1.406 . S
C1346 N1347 1.261 . S
N1347 Co1298 2.214 . S
N1347 C1345 1.325 . S
N1347 C1346 1.261 . S
C1348 H1318 0.931 . S
C1348 C1345 1.357 . S
C1348 C1349 1.312 . S
C1349 H1320 0.930 . S
C1349 C1344 1.261 . S
C1349 C1348 1.312 . S
C1350 O1322 1.214 . S
C1350 O1330 1.234 . S
C1351 H1323 0.929 . S
C1351 C1354 1.391 . S
C1351 C1356 1.391 . S
C1352 H1324 0.929 . S
C1352 C1353 1.390 . S
C1352 N1355 1.391 . S
C1353 H1325 0.930 . S
C1353 C1352 1.390 . S
C1353 C1354 1.392 . S
C1354 H1326 0.929 . S
C1354 C1351 1.391 . S
C1354 C1353 1.392 . S
N1355 Co1299 2.257 . S
N1355 C1352 1.391 . S
N1355 C1356 1.388 . S
C1356 H1327 0.930 . S
C1356 C1351 1.391 . S
C1356 N1355 1.388 . S
Co1357 O1359 2.143 . S
Co1357 O1365 2.074 . S
Co1357 O1368 2.093 . S
Co1357 O1381 2.097 . S
Co1357 N1398 2.151 . S
Co1357 N1406 2.214 . S
Co1358 O1359 2.160 . S
Co1358 O1364 2.058 . S
Co1358 O1374 2.057 . S
Co1358 O1389 2.037 . S
Co1358 N1393 2.145 . S
Co1358 N1414 2.257 . S
O1359 Co1357 2.143 . S
O1359 Co1358 2.160 . S
C1360 O1361 1.278 . S
C1360 O1368 1.224 . S
O1361 C1360 1.278 . S
C1362 O1363 1.245 . S
C1362 O1374 1.232 . S
O1363 C1362 1.245 . S
O1364 Co1358 2.058 . S
O1364 C1390 1.269 . S
O1365 Co1357 2.074 . S
O1365 C1390 1.257 . S
H1366 C1391 0.930 . S
H1367 C1397 0.930 . S
O1368 Co1357 2.093 . S
O1368 C1360 1.224 . S
H1369 C1401 0.929 . S
H1370 C1403 0.930 . S
H1371 C1404 0.930 . S
H1372 C1402 0.929 . S
H1373 C1405 0.928 . S
O1374 Co1358 2.057 . S
O1374 C1362 1.232 . S
H1375 C1394 0.929 . S
H1376 C1395 0.929 . S
H1377 C1407 0.931 . S
H1378 C1399 0.929 . S
H1379 C1408 0.930 . S
H1380 C1400 0.931 . S
O1381 Co1357 2.097 . S
O1381 C1409 1.214 . S
H1382 C1410 0.929 . S
H1383 C1411 0.929 . S
H1384 C1412 0.930 . S
H1385 C1413 0.929 . S
H1386 C1415 0.930 . S
H1387 C1392 0.930 . S
H1388 C1396 0.930 . S
O1389 Co1358 2.037 . S
O1389 C1409 1.234 . S
C1390 O1364 1.269 . S
C1390 O1365 1.257 . S
C1391 H1366 0.930 . S
C1391 C1394 1.388 . S
C1391 C1396 1.418 . S
C1392 H1387 0.930 . S
C1392 C1395 1.404 . S
C1392 C1396 1.353 . S
N1393 Co1358 2.145 . S
N1393 C1394 1.397 . S
N1393 C1395 1.334 . S
C1394 H1375 0.929 . S
C1394 C1391 1.388 . S
C1394 N1393 1.397 . S
C1395 H1376 0.929 . S
C1395 C1392 1.404 . S
C1395 N1393 1.334 . S
C1396 H1388 0.930 . S
C1396 C1391 1.418 . S
C1396 C1392 1.353 . S
C1397 H1367 0.930 . S
C1397 N1398 1.330 . S
C1397 C1399 1.446 . S
N1398 Co1357 2.151 . S
N1398 C1397 1.330 . S
N1398 C1402 1.418 . S
C1399 H1378 0.929 . S
C1399 C1397 1.446 . S
C1399 C1400 1.332 . S
C1400 H1380 0.931 . S
C1400 C1399 1.332 . S
C1400 C1401 1.267 . S
C1401 H1369 0.929 . S
C1401 C1400 1.267 . S
C1401 C1402 1.251 . S
C1402 H1372 0.929 . S
C1402 N1398 1.418 . S
C1402 C1401 1.251 . S
C1403 H1370 0.930 . S
C1403 C1405 1.406 . S
C1403 C1408 1.261 . S
C1404 H1371 0.930 . S
C1404 N1406 1.325 . S
C1404 C1407 1.357 . S
C1405 H1373 0.928 . S
C1405 C1403 1.406 . S
C1405 N1406 1.261 . S
N1406 Co1357 2.214 . S
N1406 C1404 1.325 . S
N1406 C1405 1.261 . S
C1407 H1377 0.931 . S
C1407 C1404 1.357 . S
C1407 C1408 1.312 . S
C1408 H1379 0.930 . S
C1408 C1403 1.261 . S
C1408 C1407 1.312 . S
C1409 O1381 1.214 . S
C1409 O1389 1.234 . S
C1410 H1382 0.929 . S
C1410 C1413 1.391 . S
C1410 C1415 1.391 . S
C1411 H1383 0.929 . S
C1411 C1412 1.390 . S
C1411 N1414 1.391 . S
C1412 H1384 0.930 . S
C1412 C1411 1.390 . S
C1412 C1413 1.392 . S
C1413 H1385 0.929 . S
C1413 C1410 1.391 . S
C1413 C1412 1.392 . S
N1414 Co1358 2.257 . S
N1414 C1411 1.391 . S
N1414 C1415 1.388 . S
C1415 H1386 0.930 . S
C1415 C1410 1.391 . S
C1415 N1414 1.388 . S
Co1416 O1418 2.143 . S
Co1416 O1424 2.074 . S
Co1416 O1427 2.093 . S
Co1416 O1440 2.097 . S
Co1416 N1457 2.151 . S
Co1416 N1465 2.214 . S
Co1417 O1418 2.160 . S
Co1417 O1423 2.058 . S
Co1417 O1433 2.057 . S
Co1417 O1448 2.037 . S
Co1417 N1452 2.145 . S
Co1417 N1473 2.257 . S
O1418 Co1416 2.143 . S
O1418 Co1417 2.160 . S
C1419 O1420 1.278 . S
C1419 O1427 1.224 . S
O1420 C1419 1.278 . S
C1421 O1422 1.245 . S
C1421 O1433 1.232 . S
O1422 C1421 1.245 . S
O1423 Co1417 2.058 . S
O1423 C1449 1.269 . S
O1424 Co1416 2.074 . S
O1424 C1449 1.257 . S
H1425 C1450 0.930 . S
H1426 C1456 0.930 . S
O1427 Co1416 2.093 . S
O1427 C1419 1.224 . S
H1428 C1460 0.929 1_655 S
H1429 C1462 0.930 . S
H1430 C1463 0.930 . S
H1431 C1461 0.929 . S
H1432 C1464 0.928 . S
O1433 Co1417 2.057 . S
O1433 C1421 1.232 . S
H1434 C1453 0.929 . S
H1435 C1454 0.929 . S
H1436 C1466 0.931 . S
H1437 C1458 0.929 . S
H1438 C1467 0.930 . S
H1439 C1459 0.931 . S
O1440 Co1416 2.097 . S
O1440 C1468 1.214 . S
H1441 C1469 0.929 . S
H1442 C1470 0.929 . S
H1443 C1471 0.930 . S
H1444 C1472 0.929 . S
H1445 C1474 0.930 . S
H1446 C1451 0.930 . S
H1447 C1455 0.930 . S
O1448 Co1417 2.037 . S
O1448 C1468 1.234 . S
C1449 O1423 1.269 . S
C1449 O1424 1.257 . S
C1450 H1425 0.930 . S
C1450 C1453 1.388 . S
C1450 C1455 1.418 . S
C1451 H1446 0.930 . S
C1451 C1454 1.404 . S
C1451 C1455 1.353 . S
N1452 Co1417 2.145 . S
N1452 C1453 1.397 . S
N1452 C1454 1.334 . S
C1453 H1434 0.929 . S
C1453 C1450 1.388 . S
C1453 N1452 1.397 . S
C1454 H1435 0.929 . S
C1454 C1451 1.404 . S
C1454 N1452 1.334 . S
C1455 H1447 0.930 . S
C1455 C1450 1.418 . S
C1455 C1451 1.353 . S
C1456 H1426 0.930 . S
C1456 N1457 1.330 . S
C1456 C1458 1.446 . S
N1457 Co1416 2.151 . S
N1457 C1456 1.330 . S
N1457 C1461 1.418 . S
C1458 H1437 0.929 . S
C1458 C1456 1.446 . S
C1458 C1459 1.332 . S
C1459 H1439 0.931 . S
C1459 C1458 1.332 . S
C1459 C1460 1.267 . S
C1460 H1428 0.929 1_455 S
C1460 C1459 1.267 . S
C1460 C1461 1.251 . S
C1461 H1431 0.929 . S
C1461 N1457 1.418 . S
C1461 C1460 1.251 . S
C1462 H1429 0.930 . S
C1462 C1464 1.406 . S
C1462 C1467 1.261 . S
C1463 H1430 0.930 . S
C1463 N1465 1.325 . S
C1463 C1466 1.357 . S
C1464 H1432 0.928 . S
C1464 C1462 1.406 . S
C1464 N1465 1.261 . S
N1465 Co1416 2.214 . S
N1465 C1463 1.325 . S
N1465 C1464 1.261 . S
C1466 H1436 0.931 . S
C1466 C1463 1.357 . S
C1466 C1467 1.312 . S
C1467 H1438 0.930 . S
C1467 C1462 1.261 . S
C1467 C1466 1.312 . S
C1468 O1440 1.214 . S
C1468 O1448 1.234 . S
C1469 H1441 0.929 . S
C1469 C1472 1.391 . S
C1469 C1474 1.391 . S
C1470 H1442 0.929 . S
C1470 C1471 1.390 . S
C1470 N1473 1.391 . S
C1471 H1443 0.930 . S
C1471 C1470 1.390 . S
C1471 C1472 1.392 . S
C1472 H1444 0.929 . S
C1472 C1469 1.391 . S
C1472 C1471 1.392 . S
N1473 Co1417 2.257 . S
N1473 C1470 1.391 . S
N1473 C1474 1.388 . S
C1474 H1445 0.930 . S
C1474 C1469 1.391 . S
C1474 N1473 1.388 . S
Co1475 O1477 2.143 . S
Co1475 O1483 2.074 . S
Co1475 O1486 2.093 . S
Co1475 O1499 2.097 . S
Co1475 N1516 2.151 . S
Co1475 N1524 2.214 . S
Co1476 O1477 2.160 . S
Co1476 O1482 2.058 . S
Co1476 O1492 2.057 . S
Co1476 O1507 2.037 . S
Co1476 N1511 2.145 . S
Co1476 N1532 2.257 . S
O1477 Co1475 2.143 . S
O1477 Co1476 2.160 . S
C1478 O1479 1.278 . S
C1478 O1486 1.224 . S
O1479 C1478 1.278 . S
C1480 O1481 1.245 . S
C1480 O1492 1.232 . S
O1481 C1480 1.245 . S
O1482 Co1476 2.058 . S
O1482 C1508 1.269 . S
O1483 Co1475 2.074 . S
O1483 C1508 1.257 . S
H1484 C1509 0.930 . S
H1485 C1515 0.930 . S
O1486 Co1475 2.093 . S
O1486 C1478 1.224 . S
H1487 C1519 0.929 . S
H1488 C1521 0.930 . S
H1489 C1522 0.930 . S
H1490 C1520 0.929 . S
H1491 C1523 0.928 . S
O1492 Co1476 2.057 . S
O1492 C1480 1.232 . S
H1493 C1512 0.929 . S
H1494 C1513 0.929 . S
H1495 C1525 0.931 . S
H1496 C1517 0.929 . S
H1497 C1526 0.930 . S
H1498 C1518 0.931 . S
O1499 Co1475 2.097 . S
O1499 C1527 1.214 . S
H1500 C1528 0.929 . S
H1501 C1529 0.929 . S
H1502 C1530 0.930 . S
H1503 C1531 0.929 . S
H1504 C1533 0.930 . S
H1505 C1510 0.930 . S
H1506 C1514 0.930 . S
O1507 Co1476 2.037 . S
O1507 C1527 1.234 . S
C1508 O1482 1.269 . S
C1508 O1483 1.257 . S
C1509 H1484 0.930 . S
C1509 C1512 1.388 . S
C1509 C1514 1.418 . S
C1510 H1505 0.930 . S
C1510 C1513 1.404 . S
C1510 C1514 1.353 . S
N1511 Co1476 2.145 . S
N1511 C1512 1.397 . S
N1511 C1513 1.334 . S
C1512 H1493 0.929 . S
C1512 C1509 1.388 . S
C1512 N1511 1.397 . S
C1513 H1494 0.929 . S
C1513 C1510 1.404 . S
C1513 N1511 1.334 . S
C1514 H1506 0.930 . S
C1514 C1509 1.418 . S
C1514 C1510 1.353 . S
C1515 H1485 0.930 . S
C1515 N1516 1.330 . S
C1515 C1517 1.446 . S
N1516 Co1475 2.151 . S
N1516 C1515 1.330 . S
N1516 C1520 1.418 . S
C1517 H1496 0.929 . S
C1517 C1515 1.446 . S
C1517 C1518 1.332 . S
C1518 H1498 0.931 . S
C1518 C1517 1.332 . S
C1518 C1519 1.267 . S
C1519 H1487 0.929 . S
C1519 C1518 1.267 . S
C1519 C1520 1.251 . S
C1520 H1490 0.929 . S
C1520 N1516 1.418 . S
C1520 C1519 1.251 . S
C1521 H1488 0.930 . S
C1521 C1523 1.406 . S
C1521 C1526 1.261 . S
C1522 H1489 0.930 . S
C1522 N1524 1.325 . S
C1522 C1525 1.357 . S
C1523 H1491 0.928 . S
C1523 C1521 1.406 . S
C1523 N1524 1.261 . S
N1524 Co1475 2.214 . S
N1524 C1522 1.325 . S
N1524 C1523 1.261 . S
C1525 H1495 0.931 . S
C1525 C1522 1.357 . S
C1525 C1526 1.312 . S
C1526 H1497 0.930 . S
C1526 C1521 1.261 . S
C1526 C1525 1.312 . S
C1527 O1499 1.214 . S
C1527 O1507 1.234 . S
C1528 H1500 0.929 . S
C1528 C1531 1.391 . S
C1528 C1533 1.391 . S
C1529 H1501 0.929 . S
C1529 C1530 1.390 . S
C1529 N1532 1.391 . S
C1530 H1502 0.930 . S
C1530 C1529 1.390 . S
C1530 C1531 1.392 . S
C1531 H1503 0.929 . S
C1531 C1528 1.391 . S
C1531 C1530 1.392 . S
N1532 Co1476 2.257 . S
N1532 C1529 1.391 . S
N1532 C1533 1.388 . S
C1533 H1504 0.930 . S
C1533 C1528 1.391 . S
C1533 N1532 1.388 . S
Co1534 O1536 2.143 . S
Co1534 O1542 2.074 . S
Co1534 O1545 2.093 . S
Co1534 O1558 2.097 . S
Co1534 N1575 2.151 . S
Co1534 N1583 2.214 . S
Co1535 O1536 2.160 . S
Co1535 O1541 2.058 . S
Co1535 O1551 2.057 . S
Co1535 O1566 2.037 . S
Co1535 N1570 2.145 . S
Co1535 N1591 2.257 . S
O1536 Co1534 2.143 . S
O1536 Co1535 2.160 . S
C1537 O1538 1.278 . S
C1537 O1545 1.224 . S
O1538 C1537 1.278 . S
C1539 O1540 1.245 . S
C1539 O1551 1.232 . S
O1540 C1539 1.245 . S
O1541 Co1535 2.058 . S
O1541 C1567 1.269 . S
O1542 Co1534 2.074 . S
O1542 C1567 1.257 . S
H1543 C1568 0.930 . S
H1544 C1574 0.930 . S
O1545 Co1534 2.093 . S
O1545 C1537 1.224 . S
H1546 C1578 0.929 . S
H1547 C1580 0.930 . S
H1548 C1581 0.930 . S
H1549 C1579 0.929 . S
H1550 C1582 0.928 . S
O1551 Co1535 2.057 . S
O1551 C1539 1.232 . S
H1552 C1571 0.929 . S
H1553 C1572 0.929 . S
H1554 C1584 0.931 . S
H1555 C1576 0.929 . S
H1556 C1585 0.930 . S
H1557 C1577 0.931 . S
O1558 Co1534 2.097 . S
O1558 C1586 1.214 . S
H1559 C1587 0.929 . S
H1560 C1588 0.929 . S
H1561 C1589 0.930 . S
H1562 C1590 0.929 . S
H1563 C1592 0.930 . S
H1564 C1569 0.930 . S
H1565 C1573 0.930 . S
O1566 Co1535 2.037 . S
O1566 C1586 1.234 . S
C1567 O1541 1.269 . S
C1567 O1542 1.257 . S
C1568 H1543 0.930 . S
C1568 C1571 1.388 . S
C1568 C1573 1.418 . S
C1569 H1564 0.930 . S
C1569 C1572 1.404 . S
C1569 C1573 1.353 . S
N1570 Co1535 2.145 . S
N1570 C1571 1.397 . S
N1570 C1572 1.334 . S
C1571 H1552 0.929 . S
C1571 C1568 1.388 . S
C1571 N1570 1.397 . S
C1572 H1553 0.929 . S
C1572 C1569 1.404 . S
C1572 N1570 1.334 . S
C1573 H1565 0.930 . S
C1573 C1568 1.418 . S
C1573 C1569 1.353 . S
C1574 H1544 0.930 . S
C1574 N1575 1.330 . S
C1574 C1576 1.446 . S
N1575 Co1534 2.151 . S
N1575 C1574 1.330 . S
N1575 C1579 1.418 . S
C1576 H1555 0.929 . S
C1576 C1574 1.446 . S
C1576 C1577 1.332 . S
C1577 H1557 0.931 . S
C1577 C1576 1.332 . S
C1577 C1578 1.267 . S
C1578 H1546 0.929 . S
C1578 C1577 1.267 . S
C1578 C1579 1.251 . S
C1579 H1549 0.929 . S
C1579 N1575 1.418 . S
C1579 C1578 1.251 . S
C1580 H1547 0.930 . S
C1580 C1582 1.406 . S
C1580 C1585 1.261 . S
C1581 H1548 0.930 . S
C1581 N1583 1.325 . S
C1581 C1584 1.357 . S
C1582 H1550 0.928 . S
C1582 C1580 1.406 . S
C1582 N1583 1.261 . S
N1583 Co1534 2.214 . S
N1583 C1581 1.325 . S
N1583 C1582 1.261 . S
C1584 H1554 0.931 . S
C1584 C1581 1.357 . S
C1584 C1585 1.312 . S
C1585 H1556 0.930 . S
C1585 C1580 1.261 . S
C1585 C1584 1.312 . S
C1586 O1558 1.214 . S
C1586 O1566 1.234 . S
C1587 H1559 0.929 . S
C1587 C1590 1.391 . S
C1587 C1592 1.391 . S
C1588 H1560 0.929 . S
C1588 C1589 1.390 . S
C1588 N1591 1.391 . S
C1589 H1561 0.930 . S
C1589 C1588 1.390 . S
C1589 C1590 1.392 . S
C1590 H1562 0.929 . S
C1590 C1587 1.391 . S
C1590 C1589 1.392 . S
N1591 Co1535 2.257 . S
N1591 C1588 1.391 . S
N1591 C1592 1.388 . S
C1592 H1563 0.930 . S
C1592 C1587 1.391 . S
C1592 N1591 1.388 . S
Co1593 O1595 2.143 . S
Co1593 O1601 2.074 . S
Co1593 O1604 2.093 . S
Co1593 O1617 2.097 . S
Co1593 N1634 2.151 . S
Co1593 N1642 2.214 . S
Co1594 O1595 2.160 . S
Co1594 O1600 2.058 . S
Co1594 O1610 2.057 . S
Co1594 O1625 2.037 . S
Co1594 N1629 2.145 . S
Co1594 N1650 2.257 . S
O1595 Co1593 2.143 . S
O1595 Co1594 2.160 . S
C1596 O1597 1.278 . S
C1596 O1604 1.224 . S
O1597 C1596 1.278 . S
C1598 O1599 1.245 . S
C1598 O1610 1.232 . S
O1599 C1598 1.245 . S
O1600 Co1594 2.058 . S
O1600 C1626 1.269 . S
O1601 Co1593 2.074 . S
O1601 C1626 1.257 . S
H1602 C1627 0.930 . S
H1603 C1633 0.930 . S
O1604 Co1593 2.093 . S
O1604 C1596 1.224 . S
H1605 C1637 0.929 . S
H1606 C1639 0.930 . S
H1607 C1640 0.930 . S
H1608 C1638 0.929 . S
H1609 C1641 0.928 . S
O1610 Co1594 2.057 . S
O1610 C1598 1.232 . S
H1611 C1630 0.929 . S
H1612 C1631 0.929 . S
H1613 C1643 0.931 . S
H1614 C1635 0.929 . S
H1615 C1644 0.930 . S
H1616 C1636 0.931 . S
O1617 Co1593 2.097 . S
O1617 C1645 1.214 . S
H1618 C1646 0.929 . S
H1619 C1647 0.929 . S
H1620 C1648 0.930 . S
H1621 C1649 0.929 . S
H1622 C1651 0.930 . S
H1623 C1628 0.930 . S
H1624 C1632 0.930 . S
O1625 Co1594 2.037 . S
O1625 C1645 1.234 . S
C1626 O1600 1.269 . S
C1626 O1601 1.257 . S
C1627 H1602 0.930 . S
C1627 C1630 1.388 . S
C1627 C1632 1.418 . S
C1628 H1623 0.930 . S
C1628 C1631 1.404 . S
C1628 C1632 1.353 . S
N1629 Co1594 2.145 . S
N1629 C1630 1.397 . S
N1629 C1631 1.334 . S
C1630 H1611 0.929 . S
C1630 C1627 1.388 . S
C1630 N1629 1.397 . S
C1631 H1612 0.929 . S
C1631 C1628 1.404 . S
C1631 N1629 1.334 . S
C1632 H1624 0.930 . S
C1632 C1627 1.418 . S
C1632 C1628 1.353 . S
C1633 H1603 0.930 . S
C1633 N1634 1.330 . S
C1633 C1635 1.446 . S
N1634 Co1593 2.151 . S
N1634 C1633 1.330 . S
N1634 C1638 1.418 . S
C1635 H1614 0.929 . S
C1635 C1633 1.446 . S
C1635 C1636 1.332 . S
C1636 H1616 0.931 . S
C1636 C1635 1.332 . S
C1636 C1637 1.267 . S
C1637 H1605 0.929 . S
C1637 C1636 1.267 . S
C1637 C1638 1.251 . S
C1638 H1608 0.929 . S
C1638 N1634 1.418 . S
C1638 C1637 1.251 . S
C1639 H1606 0.930 . S
C1639 C1641 1.406 . S
C1639 C1644 1.261 . S
C1640 H1607 0.930 . S
C1640 N1642 1.325 . S
C1640 C1643 1.357 . S
C1641 H1609 0.928 . S
C1641 C1639 1.406 . S
C1641 N1642 1.261 . S
N1642 Co1593 2.214 . S
N1642 C1640 1.325 . S
N1642 C1641 1.261 . S
C1643 H1613 0.931 . S
C1643 C1640 1.357 . S
C1643 C1644 1.312 . S
C1644 H1615 0.930 . S
C1644 C1639 1.261 . S
C1644 C1643 1.312 . S
C1645 O1617 1.214 . S
C1645 O1625 1.234 . S
C1646 H1618 0.929 . S
C1646 C1649 1.391 . S
C1646 C1651 1.391 . S
C1647 H1619 0.929 . S
C1647 C1648 1.390 . S
C1647 N1650 1.391 . S
C1648 H1620 0.930 . S
C1648 C1647 1.390 . S
C1648 C1649 1.392 . S
C1649 H1621 0.929 . S
C1649 C1646 1.391 . S
C1649 C1648 1.392 . S
N1650 Co1594 2.257 . S
N1650 C1647 1.391 . S
N1650 C1651 1.388 . S
C1651 H1622 0.930 . S
C1651 C1646 1.391 . S
C1651 N1650 1.388 . S
Co1652 O1654 2.143 . S
Co1652 O1660 2.074 . S
Co1652 O1663 2.093 . S
Co1652 O1676 2.097 . S
Co1652 N1693 2.151 . S
Co1652 N1701 2.214 . S
Co1653 O1654 2.160 . S
Co1653 O1659 2.058 . S
Co1653 O1669 2.057 . S
Co1653 O1684 2.037 . S
Co1653 N1688 2.145 . S
Co1653 N1709 2.257 . S
O1654 Co1652 2.143 . S
O1654 Co1653 2.160 . S
C1655 O1656 1.278 . S
C1655 O1663 1.224 . S
O1656 C1655 1.278 . S
C1657 O1658 1.245 . S
C1657 O1669 1.232 . S
O1658 C1657 1.245 . S
O1659 Co1653 2.058 . S
O1659 C1685 1.269 . S
O1660 Co1652 2.074 . S
O1660 C1685 1.257 . S
H1661 C1686 0.930 . S
H1662 C1692 0.930 . S
O1663 Co1652 2.093 . S
O1663 C1655 1.224 . S
H1664 C1696 0.929 1_655 S
H1665 C1698 0.930 . S
H1666 C1699 0.930 . S
H1667 C1697 0.929 . S
H1668 C1700 0.928 . S
O1669 Co1653 2.057 . S
O1669 C1657 1.232 . S
H1670 C1689 0.929 . S
H1671 C1690 0.929 . S
H1672 C1702 0.931 . S
H1673 C1694 0.929 . S
H1674 C1703 0.930 . S
H1675 C1695 0.931 . S
O1676 Co1652 2.097 . S
O1676 C1704 1.214 . S
H1677 C1705 0.929 . S
H1678 C1706 0.929 . S
H1679 C1707 0.930 . S
H1680 C1708 0.929 . S
H1681 C1710 0.930 . S
H1682 C1687 0.930 . S
H1683 C1691 0.930 . S
O1684 Co1653 2.037 . S
O1684 C1704 1.234 . S
C1685 O1659 1.269 . S
C1685 O1660 1.257 . S
C1686 H1661 0.930 . S
C1686 C1689 1.388 . S
C1686 C1691 1.418 . S
C1687 H1682 0.930 . S
C1687 C1690 1.404 . S
C1687 C1691 1.353 . S
N1688 Co1653 2.145 . S
N1688 C1689 1.397 . S
N1688 C1690 1.334 . S
C1689 H1670 0.929 . S
C1689 C1686 1.388 . S
C1689 N1688 1.397 . S
C1690 H1671 0.929 . S
C1690 C1687 1.404 . S
C1690 N1688 1.334 . S
C1691 H1683 0.930 . S
C1691 C1686 1.418 . S
C1691 C1687 1.353 . S
C1692 H1662 0.930 . S
C1692 N1693 1.330 . S
C1692 C1694 1.446 . S
N1693 Co1652 2.151 . S
N1693 C1692 1.330 . S
N1693 C1697 1.418 . S
C1694 H1673 0.929 . S
C1694 C1692 1.446 . S
C1694 C1695 1.332 . S
C1695 H1675 0.931 . S
C1695 C1694 1.332 . S
C1695 C1696 1.267 . S
C1696 H1664 0.929 1_455 S
C1696 C1695 1.267 . S
C1696 C1697 1.251 . S
C1697 H1667 0.929 . S
C1697 N1693 1.418 . S
C1697 C1696 1.251 . S
C1698 H1665 0.930 . S
C1698 C1700 1.406 . S
C1698 C1703 1.261 . S
C1699 H1666 0.930 . S
C1699 N1701 1.325 . S
C1699 C1702 1.357 . S
C1700 H1668 0.928 . S
C1700 C1698 1.406 . S
C1700 N1701 1.261 . S
N1701 Co1652 2.214 . S
N1701 C1699 1.325 . S
N1701 C1700 1.261 . S
C1702 H1672 0.931 . S
C1702 C1699 1.357 . S
C1702 C1703 1.312 . S
C1703 H1674 0.930 . S
C1703 C1698 1.261 . S
C1703 C1702 1.312 . S
C1704 O1676 1.214 . S
C1704 O1684 1.234 . S
C1705 H1677 0.929 . S
C1705 C1708 1.391 . S
C1705 C1710 1.391 . S
C1706 H1678 0.929 . S
C1706 C1707 1.390 . S
C1706 N1709 1.391 . S
C1707 H1679 0.930 . S
C1707 C1706 1.390 . S
C1707 C1708 1.392 . S
C1708 H1680 0.929 . S
C1708 C1705 1.391 . S
C1708 C1707 1.392 . S
N1709 Co1653 2.257 . S
N1709 C1706 1.391 . S
N1709 C1710 1.388 . S
C1710 H1681 0.930 . S
C1710 C1705 1.391 . S
C1710 N1709 1.388 . S
Co1711 O1713 2.143 . S
Co1711 O1719 2.074 . S
Co1711 O1722 2.093 . S
Co1711 O1735 2.097 . S
Co1711 N1752 2.151 . S
Co1711 N1760 2.214 . S
Co1712 O1713 2.160 . S
Co1712 O1718 2.058 . S
Co1712 O1728 2.057 . S
Co1712 O1743 2.037 . S
Co1712 N1747 2.145 . S
Co1712 N1768 2.257 . S
O1713 Co1711 2.143 . S
O1713 Co1712 2.160 . S
C1714 O1715 1.278 . S
C1714 O1722 1.224 . S
O1715 C1714 1.278 . S
C1716 O1717 1.245 . S
C1716 O1728 1.232 . S
O1717 C1716 1.245 . S
O1718 Co1712 2.058 . S
O1718 C1744 1.269 . S
O1719 Co1711 2.074 . S
O1719 C1744 1.257 . S
H1720 C1745 0.930 . S
H1721 C1751 0.930 . S
O1722 Co1711 2.093 . S
O1722 C1714 1.224 . S
H1723 C1755 0.929 . S
H1724 C1757 0.930 . S
H1725 C1758 0.930 . S
H1726 C1756 0.929 . S
H1727 C1759 0.928 . S
O1728 Co1712 2.057 . S
O1728 C1716 1.232 . S
H1729 C1748 0.929 . S
H1730 C1749 0.929 . S
H1731 C1761 0.931 . S
H1732 C1753 0.929 . S
H1733 C1762 0.930 . S
H1734 C1754 0.931 . S
O1735 Co1711 2.097 . S
O1735 C1763 1.214 . S
H1736 C1764 0.929 . S
H1737 C1765 0.929 . S
H1738 C1766 0.930 . S
H1739 C1767 0.929 . S
H1740 C1769 0.930 . S
H1741 C1746 0.930 . S
H1742 C1750 0.930 . S
O1743 Co1712 2.037 . S
O1743 C1763 1.234 . S
C1744 O1718 1.269 . S
C1744 O1719 1.257 . S
C1745 H1720 0.930 . S
C1745 C1748 1.388 . S
C1745 C1750 1.418 . S
C1746 H1741 0.930 . S
C1746 C1749 1.404 . S
C1746 C1750 1.353 . S
N1747 Co1712 2.145 . S
N1747 C1748 1.397 . S
N1747 C1749 1.334 . S
C1748 H1729 0.929 . S
C1748 C1745 1.388 . S
C1748 N1747 1.397 . S
C1749 H1730 0.929 . S
C1749 C1746 1.404 . S
C1749 N1747 1.334 . S
C1750 H1742 0.930 . S
C1750 C1745 1.418 . S
C1750 C1746 1.353 . S
C1751 H1721 0.930 . S
C1751 N1752 1.330 . S
C1751 C1753 1.446 . S
N1752 Co1711 2.151 . S
N1752 C1751 1.330 . S
N1752 C1756 1.418 . S
C1753 H1732 0.929 . S
C1753 C1751 1.446 . S
C1753 C1754 1.332 . S
C1754 H1734 0.931 . S
C1754 C1753 1.332 . S
C1754 C1755 1.267 . S
C1755 H1723 0.929 . S
C1755 C1754 1.267 . S
C1755 C1756 1.251 . S
C1756 H1726 0.929 . S
C1756 N1752 1.418 . S
C1756 C1755 1.251 . S
C1757 H1724 0.930 . S
C1757 C1759 1.406 . S
C1757 C1762 1.261 . S
C1758 H1725 0.930 . S
C1758 N1760 1.325 . S
C1758 C1761 1.357 . S
C1759 H1727 0.928 . S
C1759 C1757 1.406 . S
C1759 N1760 1.261 . S
N1760 Co1711 2.214 . S
N1760 C1758 1.325 . S
N1760 C1759 1.261 . S
C1761 H1731 0.931 . S
C1761 C1758 1.357 . S
C1761 C1762 1.312 . S
C1762 H1733 0.930 . S
C1762 C1757 1.261 . S
C1762 C1761 1.312 . S
C1763 O1735 1.214 . S
C1763 O1743 1.234 . S
C1764 H1736 0.929 . S
C1764 C1767 1.391 . S
C1764 C1769 1.391 . S
C1765 H1737 0.929 . S
C1765 C1766 1.390 . S
C1765 N1768 1.391 . S
C1766 H1738 0.930 . S
C1766 C1765 1.390 . S
C1766 C1767 1.392 . S
C1767 H1739 0.929 . S
C1767 C1764 1.391 . S
C1767 C1766 1.392 . S
N1768 Co1712 2.257 . S
N1768 C1765 1.391 . S
N1768 C1769 1.388 . S
C1769 H1740 0.930 . S
C1769 C1764 1.391 . S
C1769 N1768 1.388 . S
Co1770 O1772 2.143 . S
Co1770 O1778 2.074 . S
Co1770 O1781 2.093 . S
Co1770 O1794 2.097 . S
Co1770 N1811 2.151 . S
Co1770 N1819 2.214 . S
Co1771 O1772 2.160 . S
Co1771 O1777 2.058 . S
Co1771 O1787 2.057 . S
Co1771 O1802 2.037 . S
Co1771 N1806 2.145 . S
Co1771 N1827 2.257 . S
O1772 Co1770 2.143 . S
O1772 Co1771 2.160 . S
C1773 O1774 1.278 . S
C1773 O1781 1.224 . S
O1774 C1773 1.278 . S
C1775 O1776 1.245 . S
C1775 O1787 1.232 . S
O1776 C1775 1.245 . S
O1777 Co1771 2.058 . S
O1777 C1803 1.269 . S
O1778 Co1770 2.074 . S
O1778 C1803 1.257 . S
H1779 C1804 0.930 . S
H1780 C1810 0.930 . S
O1781 Co1770 2.093 . S
O1781 C1773 1.224 . S
H1782 C1814 0.929 . S
H1783 C1816 0.930 . S
H1784 C1817 0.930 . S
H1785 C1815 0.929 . S
H1786 C1818 0.928 . S
O1787 Co1771 2.057 . S
O1787 C1775 1.232 . S
H1788 C1807 0.929 . S
H1789 C1808 0.929 . S
H1790 C1820 0.931 . S
H1791 C1812 0.929 . S
H1792 C1821 0.930 . S
H1793 C1813 0.931 . S
O1794 Co1770 2.097 . S
O1794 C1822 1.214 . S
H1795 C1823 0.929 . S
H1796 C1824 0.929 . S
H1797 C1825 0.930 . S
H1798 C1826 0.929 . S
H1799 C1828 0.930 . S
H1800 C1805 0.930 . S
H1801 C1809 0.930 . S
O1802 Co1771 2.037 . S
O1802 C1822 1.234 . S
C1803 O1777 1.269 . S
C1803 O1778 1.257 . S
C1804 H1779 0.930 . S
C1804 C1807 1.388 . S
C1804 C1809 1.418 . S
C1805 H1800 0.930 . S
C1805 C1808 1.404 . S
C1805 C1809 1.353 . S
N1806 Co1771 2.145 . S
N1806 C1807 1.397 . S
N1806 C1808 1.334 . S
C1807 H1788 0.929 . S
C1807 C1804 1.388 . S
C1807 N1806 1.397 . S
C1808 H1789 0.929 . S
C1808 C1805 1.404 . S
C1808 N1806 1.334 . S
C1809 H1801 0.930 . S
C1809 C1804 1.418 . S
C1809 C1805 1.353 . S
C1810 H1780 0.930 . S
C1810 N1811 1.330 . S
C1810 C1812 1.446 . S
N1811 Co1770 2.151 . S
N1811 C1810 1.330 . S
N1811 C1815 1.418 . S
C1812 H1791 0.929 . S
C1812 C1810 1.446 . S
C1812 C1813 1.332 . S
C1813 H1793 0.931 . S
C1813 C1812 1.332 . S
C1813 C1814 1.267 . S
C1814 H1782 0.929 . S
C1814 C1813 1.267 . S
C1814 C1815 1.251 . S
C1815 H1785 0.929 . S
C1815 N1811 1.418 . S
C1815 C1814 1.251 . S
C1816 H1783 0.930 . S
C1816 C1818 1.406 . S
C1816 C1821 1.261 . S
C1817 H1784 0.930 . S
C1817 N1819 1.325 . S
C1817 C1820 1.357 . S
C1818 H1786 0.928 . S
C1818 C1816 1.406 . S
C1818 N1819 1.261 . S
N1819 Co1770 2.214 . S
N1819 C1817 1.325 . S
N1819 C1818 1.261 . S
C1820 H1790 0.931 . S
C1820 C1817 1.357 . S
C1820 C1821 1.312 . S
C1821 H1792 0.930 . S
C1821 C1816 1.261 . S
C1821 C1820 1.312 . S
C1822 O1794 1.214 . S
C1822 O1802 1.234 . S
C1823 H1795 0.929 . S
C1823 C1826 1.391 . S
C1823 C1828 1.391 . S
C1824 H1796 0.929 . S
C1824 C1825 1.390 . S
C1824 N1827 1.391 . S
C1825 H1797 0.930 . S
C1825 C1824 1.390 . S
C1825 C1826 1.392 . S
C1826 H1798 0.929 . S
C1826 C1823 1.391 . S
C1826 C1825 1.392 . S
N1827 Co1771 2.257 . S
N1827 C1824 1.391 . S
N1827 C1828 1.388 . S
C1828 H1799 0.930 . S
C1828 C1823 1.391 . S
C1828 N1827 1.388 . S
Co1829 O1831 2.143 . S
Co1829 O1837 2.074 . S
Co1829 O1840 2.093 . S
Co1829 O1853 2.097 . S
Co1829 N1870 2.151 . S
Co1829 N1878 2.214 . S
Co1830 O1831 2.160 . S
Co1830 O1836 2.058 . S
Co1830 O1846 2.057 . S
Co1830 O1861 2.037 . S
Co1830 N1865 2.145 . S
Co1830 N1886 2.257 . S
O1831 Co1829 2.143 . S
O1831 Co1830 2.160 . S
C1832 O1833 1.278 . S
C1832 O1840 1.224 . S
O1833 C1832 1.278 . S
C1834 O1835 1.245 . S
C1834 O1846 1.232 . S
O1835 C1834 1.245 . S
O1836 Co1830 2.058 . S
O1836 C1862 1.269 . S
O1837 Co1829 2.074 . S
O1837 C1862 1.257 . S
H1838 C1863 0.930 . S
H1839 C1869 0.930 . S
O1840 Co1829 2.093 . S
O1840 C1832 1.224 . S
H1841 C1873 0.929 . S
H1842 C1875 0.930 . S
H1843 C1876 0.930 . S
H1844 C1874 0.929 . S
H1845 C1877 0.928 . S
O1846 Co1830 2.057 . S
O1846 C1834 1.232 . S
H1847 C1866 0.929 . S
H1848 C1867 0.929 . S
H1849 C1879 0.931 . S
H1850 C1871 0.929 . S
H1851 C1880 0.930 . S
H1852 C1872 0.931 . S
O1853 Co1829 2.097 . S
O1853 C1881 1.214 . S
H1854 C1882 0.929 . S
H1855 C1883 0.929 . S
H1856 C1884 0.930 . S
H1857 C1885 0.929 . S
H1858 C1887 0.930 . S
H1859 C1864 0.930 . S
H1860 C1868 0.930 . S
O1861 Co1830 2.037 . S
O1861 C1881 1.234 . S
C1862 O1836 1.269 . S
C1862 O1837 1.257 . S
C1863 H1838 0.930 . S
C1863 C1866 1.388 . S
C1863 C1868 1.418 . S
C1864 H1859 0.930 . S
C1864 C1867 1.404 . S
C1864 C1868 1.353 . S
N1865 Co1830 2.145 . S
N1865 C1866 1.397 . S
N1865 C1867 1.334 . S
C1866 H1847 0.929 . S
C1866 C1863 1.388 . S
C1866 N1865 1.397 . S
C1867 H1848 0.929 . S
C1867 C1864 1.404 . S
C1867 N1865 1.334 . S
C1868 H1860 0.930 . S
C1868 C1863 1.418 . S
C1868 C1864 1.353 . S
C1869 H1839 0.930 . S
C1869 N1870 1.330 . S
C1869 C1871 1.446 . S
N1870 Co1829 2.151 . S
N1870 C1869 1.330 . S
N1870 C1874 1.418 . S
C1871 H1850 0.929 . S
C1871 C1869 1.446 . S
C1871 C1872 1.332 . S
C1872 H1852 0.931 . S
C1872 C1871 1.332 . S
C1872 C1873 1.267 . S
C1873 H1841 0.929 . S
C1873 C1872 1.267 . S
C1873 C1874 1.251 . S
C1874 H1844 0.929 . S
C1874 N1870 1.418 . S
C1874 C1873 1.251 . S
C1875 H1842 0.930 . S
C1875 C1877 1.406 . S
C1875 C1880 1.261 . S
C1876 H1843 0.930 . S
C1876 N1878 1.325 . S
C1876 C1879 1.357 . S
C1877 H1845 0.928 . S
C1877 C1875 1.406 . S
C1877 N1878 1.261 . S
N1878 Co1829 2.214 . S
N1878 C1876 1.325 . S
N1878 C1877 1.261 . S
C1879 H1849 0.931 . S
C1879 C1876 1.357 . S
C1879 C1880 1.312 . S
C1880 H1851 0.930 . S
C1880 C1875 1.261 . S
C1880 C1879 1.312 . S
C1881 O1853 1.214 . S
C1881 O1861 1.234 . S
C1882 H1854 0.929 . S
C1882 C1885 1.391 . S
C1882 C1887 1.391 . S
C1883 H1855 0.929 . S
C1883 C1884 1.390 . S
C1883 N1886 1.391 . S
C1884 H1856 0.930 . S
C1884 C1883 1.390 . S
C1884 C1885 1.392 . S
C1885 H1857 0.929 . S
C1885 C1882 1.391 . S
C1885 C1884 1.392 . S
N1886 Co1830 2.257 . S
N1886 C1883 1.391 . S
N1886 C1887 1.388 . S
C1887 H1858 0.930 . S
C1887 C1882 1.391 . S
C1887 N1886 1.388 . S
H1888 C1894 0.930 . S
H1889 C1898 0.930 . S
H1890 C1903 0.929 . S
H1891 C1901 0.929 . S
H1892 C1896 0.929 . S
H1893 C1902 0.929 . S
C1894 H1888 0.930 . S
C1894 C1895 1.367 1_545 S
C1894 C1902 1.378 . S
C1895 C1894 1.367 1_565 S
C1895 C1903 1.433 . S
C1896 H1892 0.929 . S
C1896 C1898 1.378 . S
C1896 C1900 1.350 1_565 S
C1897 C1900 1.463 1_565 S
C1897 C1902 1.350 1_565 S
C1897 N1905 1.427 . S
C1898 H1889 0.930 . S
C1898 C1896 1.378 . S
C1898 C1899 1.367 1_565 S
C1899 C1898 1.367 1_545 S
C1899 C1901 1.433 . S
C1900 C1896 1.350 1_545 S
C1900 C1897 1.463 1_545 S
C1900 N1904 1.427 . S
C1901 H1891 0.929 . S
C1901 C1899 1.433 . S
C1901 N1904 1.384 . S
C1902 H1893 0.929 . S
C1902 C1894 1.378 . S
C1902 C1897 1.350 1_545 S
C1903 H1890 0.929 . S
C1903 C1895 1.433 . S
C1903 N1905 1.384 . S
N1904 C1900 1.427 . S
N1904 C1901 1.384 . S
N1905 C1897 1.427 . S
N1905 C1903 1.384 . S
H1906 C1912 0.930 . S
H1907 C1916 0.930 . S
H1908 C1921 0.929 . S
H1909 C1919 0.929 . S
H1910 C1914 0.929 . S
H1911 C1920 0.929 . S
C1912 H1906 0.930 . S
C1912 C1913 1.367 . S
C1912 C1920 1.378 . S
C1913 C1912 1.367 . S
C1913 C1921 1.433 . S
C1914 H1910 0.929 . S
C1914 C1916 1.378 . S
C1914 C1918 1.350 . S
C1915 C1918 1.463 . S
C1915 C1920 1.350 . S
C1915 N1923 1.427 . S
C1916 H1907 0.930 . S
C1916 C1914 1.378 . S
C1916 C1917 1.367 . S
C1917 C1916 1.367 . S
C1917 C1919 1.433 . S
C1918 C1914 1.350 . S
C1918 C1915 1.463 . S
C1918 N1922 1.427 . S
C1919 H1909 0.929 . S
C1919 C1917 1.433 . S
C1919 N1922 1.384 . S
C1920 H1911 0.929 . S
C1920 C1912 1.378 . S
C1920 C1915 1.350 . S
C1921 H1908 0.929 . S
C1921 C1913 1.433 . S
C1921 N1923 1.384 . S
N1922 C1918 1.427 . S
N1922 C1919 1.384 . S
N1923 C1915 1.427 . S
N1923 C1921 1.384 . S
H1924 C1930 0.930 . S
H1925 C1934 0.930 . S
H1926 C1939 0.929 . S
H1927 C1937 0.929 . S
H1928 C1932 0.929 . S
H1929 C1938 0.929 . S
C1930 H1924 0.930 . S
C1930 C1931 1.367 1_565 S
C1930 C1938 1.378 . S
C1931 C1930 1.367 1_545 S
C1931 C1939 1.433 . S
C1932 H1928 0.929 . S
C1932 C1934 1.378 . S
C1932 C1936 1.350 1_545 S
C1933 C1936 1.463 1_545 S
C1933 C1938 1.350 1_545 S
C1933 N1941 1.427 . S
C1934 H1925 0.930 . S
C1934 C1932 1.378 . S
C1934 C1935 1.367 1_545 S
C1935 C1934 1.367 1_565 S
C1935 C1937 1.433 . S
C1936 C1932 1.350 1_565 S
C1936 C1933 1.463 1_565 S
C1936 N1940 1.427 . S
C1937 H1927 0.929 . S
C1937 C1935 1.433 . S
C1937 N1940 1.384 . S
C1938 H1929 0.929 . S
C1938 C1930 1.378 . S
C1938 C1933 1.350 1_565 S
C1939 H1926 0.929 . S
C1939 C1931 1.433 . S
C1939 N1941 1.384 . S
N1940 C1936 1.427 . S
N1940 C1937 1.384 . S
N1941 C1933 1.427 . S
N1941 C1939 1.384 . S
H1942 C1948 0.930 . S
H1943 C1952 0.930 . S
H1944 C1957 0.929 . S
H1945 C1955 0.929 . S
H1946 C1950 0.929 . S
H1947 C1956 0.929 . S
C1948 H1942 0.930 . S
C1948 C1949 1.367 . S
C1948 C1956 1.378 . S
C1949 C1948 1.367 . S
C1949 C1957 1.433 . S
C1950 H1946 0.929 . S
C1950 C1952 1.378 . S
C1950 C1954 1.350 . S
C1951 C1954 1.463 1_556 S
C1951 C1956 1.350 . S
C1951 N1959 1.427 . S
C1952 H1943 0.930 . S
C1952 C1950 1.378 . S
C1952 C1953 1.367 . S
C1953 C1952 1.367 . S
C1953 C1955 1.433 . S
C1954 C1950 1.350 . S
C1954 C1951 1.463 1_554 S
C1954 N1958 1.427 . S
C1955 H1945 0.929 . S
C1955 C1953 1.433 . S
C1955 N1958 1.384 . S
C1956 H1947 0.929 . S
C1956 C1948 1.378 . S
C1956 C1951 1.350 . S
C1957 H1944 0.929 . S
C1957 C1949 1.433 . S
C1957 N1959 1.384 . S
N1958 C1954 1.427 . S
N1958 C1955 1.384 . S
N1959 C1951 1.427 . S
N1959 C1957 1.384 . S
H1960 C1966 0.930 . S
H1961 C1970 0.930 . S
H1962 C1975 0.929 . S
H1963 C1973 0.929 . S
H1964 C1968 0.929 . S
H1965 C1974 0.929 . S
C1966 H1960 0.930 . S
C1966 C1967 1.367 1_545 S
C1966 C1974 1.378 . S
C1967 C1966 1.367 1_565 S
C1967 C1975 1.433 . S
C1968 H1964 0.929 . S
C1968 C1970 1.378 . S
C1968 C1972 1.350 1_565 S
C1969 C1972 1.463 1_565 S
C1969 C1974 1.350 1_565 S
C1969 N1977 1.427 . S
C1970 H1961 0.930 . S
C1970 C1968 1.378 . S
C1970 C1971 1.367 1_565 S
C1971 C1970 1.367 1_545 S
C1971 C1973 1.433 . S
C1972 C1968 1.350 1_545 S
C1972 C1969 1.463 1_545 S
C1972 N1976 1.427 . S
C1973 H1963 0.929 . S
C1973 C1971 1.433 . S
C1973 N1976 1.384 . S
C1974 H1965 0.929 . S
C1974 C1966 1.378 . S
C1974 C1969 1.350 1_545 S
C1975 H1962 0.929 . S
C1975 C1967 1.433 . S
C1975 N1977 1.384 . S
N1976 C1972 1.427 . S
N1976 C1973 1.384 . S
N1977 C1969 1.427 . S
N1977 C1975 1.384 . S
H1978 C1984 0.930 . S
H1979 C1988 0.930 . S
H1980 C1993 0.929 . S
H1981 C1991 0.929 . S
H1982 C1986 0.929 . S
H1983 C1992 0.929 . S
C1984 H1978 0.930 . S
C1984 C1985 1.367 . S
C1984 C1992 1.378 . S
C1985 C1984 1.367 . S
C1985 C1993 1.433 . S
C1986 H1982 0.929 . S
C1986 C1988 1.378 . S
C1986 C1990 1.350 . S
C1987 C1990 1.463 . S
C1987 C1992 1.350 . S
C1987 N1995 1.427 . S
C1988 H1979 0.930 . S
C1988 C1986 1.378 . S
C1988 C1989 1.367 . S
C1989 C1988 1.367 . S
C1989 C1991 1.433 . S
C1990 C1986 1.350 . S
C1990 C1987 1.463 . S
C1990 N1994 1.427 . S
C1991 H1981 0.929 . S
C1991 C1989 1.433 . S
C1991 N1994 1.384 . S
C1992 H1983 0.929 . S
C1992 C1984 1.378 . S
C1992 C1987 1.350 . S
C1993 H1980 0.929 . S
C1993 C1985 1.433 . S
C1993 N1995 1.384 . S
N1994 C1990 1.427 . S
N1994 C1991 1.384 . S
N1995 C1987 1.427 . S
N1995 C1993 1.384 . S
H1996 C2002 0.930 . S
H1997 C2006 0.930 . S
H1998 C2011 0.929 . S
H1999 C2009 0.929 . S
H2000 C2004 0.929 . S
H2001 C2010 0.929 . S
C2002 H1996 0.930 . S
C2002 C2003 1.367 . S
C2002 C2010 1.378 . S
C2003 C2002 1.367 . S
C2003 C2011 1.433 1_545 S
C2004 H2000 0.929 . S
C2004 C2006 1.378 . S
C2004 C2008 1.350 . S
C2005 C2008 1.463 1_545 S
C2005 C2010 1.350 . S
C2005 N2013 1.427 1_545 S
C2006 H1997 0.930 . S
C2006 C2004 1.378 . S
C2006 C2007 1.367 . S
C2007 C2006 1.367 . S
C2007 C2009 1.433 1_565 S
C2008 C2004 1.350 . S
C2008 C2005 1.463 1_565 S
C2008 N2012 1.427 1_565 S
C2009 H1999 0.929 . S
C2009 C2007 1.433 1_545 S
C2009 N2012 1.384 . S
C2010 H2001 0.929 . S
C2010 C2002 1.378 . S
C2010 C2005 1.350 . S
C2011 H1998 0.929 . S
C2011 C2003 1.433 1_565 S
C2011 N2013 1.384 . S
N2012 C2008 1.427 1_545 S
N2012 C2009 1.384 . S
N2013 C2005 1.427 1_565 S
N2013 C2011 1.384 . S
H2014 C2020 0.930 . S
H2015 C2024 0.930 . S
H2016 C2029 0.929 . S
H2017 C2027 0.929 . S
H2018 C2022 0.929 . S
H2019 C2028 0.929 . S
C2020 H2014 0.930 . S
C2020 C2021 1.367 . S
C2020 C2028 1.378 . S
C2021 C2020 1.367 . S
C2021 C2029 1.433 . S
C2022 H2018 0.929 . S
C2022 C2024 1.378 . S
C2022 C2026 1.350 . S
C2023 C2026 1.463 1_556 S
C2023 C2028 1.350 . S
C2023 N2031 1.427 . S
C2024 H2015 0.930 . S
C2024 C2022 1.378 . S
C2024 C2025 1.367 . S
C2025 C2024 1.367 . S
C2025 C2027 1.433 . S
C2026 C2022 1.350 . S
C2026 C2023 1.463 1_554 S
C2026 N2030 1.427 . S
C2027 H2017 0.929 . S
C2027 C2025 1.433 . S
C2027 N2030 1.384 . S
C2028 H2019 0.929 . S
C2028 C2020 1.378 . S
C2028 C2023 1.350 . S
C2029 H2016 0.929 . S
C2029 C2021 1.433 . S
C2029 N2031 1.384 . S
N2030 C2026 1.427 . S
N2030 C2027 1.384 . S
N2031 C2023 1.427 . S
N2031 C2029 1.384 . S
H2032 C2038 0.930 . S
H2033 C2042 0.930 . S
H2034 C2047 0.929 . S
H2035 C2045 0.929 . S
H2036 C2040 0.929 . S
H2037 C2046 0.929 . S
C2038 H2032 0.930 . S
C2038 C2039 1.367 . S
C2038 C2046 1.378 . S
C2039 C2038 1.367 . S
C2039 C2047 1.433 . S
C2040 H2036 0.929 . S
C2040 C2042 1.378 . S
C2040 C2044 1.350 . S
C2041 C2044 1.463 . S
C2041 C2046 1.350 . S
C2041 N2049 1.427 . S
C2042 H2033 0.930 . S
C2042 C2040 1.378 . S
C2042 C2043 1.367 . S
C2043 C2042 1.367 . S
C2043 C2045 1.433 . S
C2044 C2040 1.350 . S
C2044 C2041 1.463 . S
C2044 N2048 1.427 . S
C2045 H2035 0.929 . S
C2045 C2043 1.433 . S
C2045 N2048 1.384 . S
C2046 H2037 0.929 . S
C2046 C2038 1.378 . S
C2046 C2041 1.350 . S
C2047 H2034 0.929 . S
C2047 C2039 1.433 . S
C2047 N2049 1.384 . S
N2048 C2044 1.427 . S
N2048 C2045 1.384 . S
N2049 C2041 1.427 . S
N2049 C2047 1.384 . S
H2050 C2056 0.930 . S
H2051 C2060 0.930 . S
H2052 C2065 0.929 . S
H2053 C2063 0.929 . S
H2054 C2058 0.929 . S
H2055 C2064 0.929 . S
C2056 H2050 0.930 . S
C2056 C2057 1.367 . S
C2056 C2064 1.378 . S
C2057 C2056 1.367 . S
C2057 C2065 1.433 . S
C2058 H2054 0.929 . S
C2058 C2060 1.378 . S
C2058 C2062 1.350 . S
C2059 C2062 1.463 1_554 S
C2059 C2064 1.350 . S
C2059 N2067 1.427 . S
C2060 H2051 0.930 . S
C2060 C2058 1.378 . S
C2060 C2061 1.367 . S
C2061 C2060 1.367 . S
C2061 C2063 1.433 . S
C2062 C2058 1.350 . S
C2062 C2059 1.463 1_556 S
C2062 N2066 1.427 . S
C2063 H2053 0.929 . S
C2063 C2061 1.433 . S
C2063 N2066 1.384 . S
C2064 H2055 0.929 . S
C2064 C2056 1.378 . S
C2064 C2059 1.350 . S
C2065 H2052 0.929 . S
C2065 C2057 1.433 . S
C2065 N2067 1.384 . S
N2066 C2062 1.427 . S
N2066 C2063 1.384 . S
N2067 C2059 1.427 . S
N2067 C2065 1.384 . S
H2068 C2074 0.930 . S
H2069 C2078 0.930 . S
H2070 C2083 0.929 . S
H2071 C2081 0.929 . S
H2072 C2076 0.929 . S
H2073 C2082 0.929 . S
C2074 H2068 0.930 . S
C2074 C2075 1.367 . S
C2074 C2082 1.378 . S
C2075 C2074 1.367 . S
C2075 C2083 1.433 . S
C2076 H2072 0.929 . S
C2076 C2078 1.378 . S
C2076 C2080 1.350 . S
C2077 C2080 1.463 . S
C2077 C2082 1.350 . S
C2077 N2085 1.427 . S
C2078 H2069 0.930 . S
C2078 C2076 1.378 . S
C2078 C2079 1.367 . S
C2079 C2078 1.367 . S
C2079 C2081 1.433 . S
C2080 C2076 1.350 . S
C2080 C2077 1.463 . S
C2080 N2084 1.427 . S
C2081 H2071 0.929 . S
C2081 C2079 1.433 . S
C2081 N2084 1.384 . S
C2082 H2073 0.929 . S
C2082 C2074 1.378 . S
C2082 C2077 1.350 . S
C2083 H2070 0.929 . S
C2083 C2075 1.433 . S
C2083 N2085 1.384 . S
N2084 C2080 1.427 . S
N2084 C2081 1.384 . S
N2085 C2077 1.427 . S
N2085 C2083 1.384 . S
H2086 C2092 0.930 . S
H2087 C2096 0.930 . S
H2088 C2101 0.929 . S
H2089 C2099 0.929 . S
H2090 C2094 0.929 . S
H2091 C2100 0.929 . S
C2092 H2086 0.930 . S
C2092 C2093 1.367 . S
C2092 C2100 1.378 . S
C2093 C2092 1.367 . S
C2093 C2101 1.433 . S
C2094 H2090 0.929 . S
C2094 C2096 1.378 . S
C2094 C2098 1.350 . S
C2095 C2098 1.463 . S
C2095 C2100 1.350 . S
C2095 N2103 1.427 . S
C2096 H2087 0.930 . S
C2096 C2094 1.378 . S
C2096 C2097 1.367 . S
C2097 C2096 1.367 . S
C2097 C2099 1.433 . S
C2098 C2094 1.350 . S
C2098 C2095 1.463 . S
C2098 N2102 1.427 . S
C2099 H2089 0.929 . S
C2099 C2097 1.433 . S
C2099 N2102 1.384 . S
C2100 H2091 0.929 . S
C2100 C2092 1.378 . S
C2100 C2095 1.350 . S
C2101 H2088 0.929 . S
C2101 C2093 1.433 . S
C2101 N2103 1.384 . S
N2102 C2098 1.427 . S
N2102 C2099 1.384 . S
N2103 C2095 1.427 . S
N2103 C2101 1.384 . S
H2104 C2110 0.930 . S
H2105 C2114 0.930 . S
H2106 C2119 0.929 . S
H2107 C2117 0.929 . S
H2108 C2112 0.929 . S
H2109 C2118 0.929 . S
C2110 H2104 0.930 . S
C2110 C2111 1.367 . S
C2110 C2118 1.378 . S
C2111 C2110 1.367 . S
C2111 C2119 1.433 . S
C2112 H2108 0.929 . S
C2112 C2114 1.378 . S
C2112 C2116 1.350 . S
C2113 C2116 1.463 . S
C2113 C2118 1.350 . S
C2113 N2121 1.427 . S
C2114 H2105 0.930 . S
C2114 C2112 1.378 . S
C2114 C2115 1.367 . S
C2115 C2114 1.367 . S
C2115 C2117 1.433 . S
C2116 C2112 1.350 . S
C2116 C2113 1.463 . S
C2116 N2120 1.427 . S
C2117 H2107 0.929 . S
C2117 C2115 1.433 . S
C2117 N2120 1.384 . S
C2118 H2109 0.929 . S
C2118 C2110 1.378 . S
C2118 C2113 1.350 . S
C2119 H2106 0.929 . S
C2119 C2111 1.433 . S
C2119 N2121 1.384 . S
N2120 C2116 1.427 . S
N2120 C2117 1.384 . S
N2121 C2113 1.427 . S
N2121 C2119 1.384 . S
H2122 C2128 0.930 . S
H2123 C2132 0.930 . S
H2124 C2137 0.929 . S
H2125 C2135 0.929 . S
H2126 C2130 0.929 . S
H2127 C2136 0.929 . S
C2128 H2122 0.930 . S
C2128 C2129 1.367 . S
C2128 C2136 1.378 . S
C2129 C2128 1.367 . S
C2129 C2137 1.433 . S
C2130 H2126 0.929 . S
C2130 C2132 1.378 . S
C2130 C2134 1.350 . S
C2131 C2134 1.463 1_554 S
C2131 C2136 1.350 . S
C2131 N2139 1.427 . S
C2132 H2123 0.930 . S
C2132 C2130 1.378 . S
C2132 C2133 1.367 . S
C2133 C2132 1.367 . S
C2133 C2135 1.433 . S
C2134 C2130 1.350 . S
C2134 C2131 1.463 1_556 S
C2134 N2138 1.427 . S
C2135 H2125 0.929 . S
C2135 C2133 1.433 . S
C2135 N2138 1.384 . S
C2136 H2127 0.929 . S
C2136 C2128 1.378 . S
C2136 C2131 1.350 . S
C2137 H2124 0.929 . S
C2137 C2129 1.433 . S
C2137 N2139 1.384 . S
N2138 C2134 1.427 . S
N2138 C2135 1.384 . S
N2139 C2131 1.427 . S
N2139 C2137 1.384 . S
H2140 C2146 0.930 . S
H2141 C2150 0.930 . S
H2142 C2155 0.929 . S
H2143 C2153 0.929 . S
H2144 C2148 0.929 . S
H2145 C2154 0.929 . S
C2146 H2140 0.930 . S
C2146 C2147 1.367 . S
C2146 C2154 1.378 . S
C2147 C2146 1.367 . S
C2147 C2155 1.433 . S
C2148 H2144 0.929 . S
C2148 C2150 1.378 . S
C2148 C2152 1.350 . S
C2149 C2152 1.463 . S
C2149 C2154 1.350 . S
C2149 N2157 1.427 . S
C2150 H2141 0.930 . S
C2150 C2148 1.378 . S
C2150 C2151 1.367 . S
C2151 C2150 1.367 . S
C2151 C2153 1.433 . S
C2152 C2148 1.350 . S
C2152 C2149 1.463 . S
C2152 N2156 1.427 . S
C2153 H2143 0.929 . S
C2153 C2151 1.433 . S
C2153 N2156 1.384 . S
C2154 H2145 0.929 . S
C2154 C2146 1.378 . S
C2154 C2149 1.350 . S
C2155 H2142 0.929 . S
C2155 C2147 1.433 . S
C2155 N2157 1.384 . S
N2156 C2152 1.427 . S
N2156 C2153 1.384 . S
N2157 C2149 1.427 . S
N2157 C2155 1.384 . S
H2158 C2164 0.930 . S
H2159 C2168 0.930 . S
H2160 C2173 0.929 . S
H2161 C2171 0.929 . S
H2162 C2166 0.929 . S
H2163 C2172 0.929 . S
C2164 H2158 0.930 . S
C2164 C2165 1.367 . S
C2164 C2172 1.378 . S
C2165 C2164 1.367 . S
C2165 C2173 1.433 . S
C2166 H2162 0.929 . S
C2166 C2168 1.378 . S
C2166 C2170 1.350 . S
C2167 C2170 1.463 . S
C2167 C2172 1.350 . S
C2167 N2175 1.427 . S
C2168 H2159 0.930 . S
C2168 C2166 1.378 . S
C2168 C2169 1.367 . S
C2169 C2168 1.367 . S
C2169 C2171 1.433 . S
C2170 C2166 1.350 . S
C2170 C2167 1.463 . S
C2170 N2174 1.427 . S
C2171 H2161 0.929 . S
C2171 C2169 1.433 . S
C2171 N2174 1.384 . S
C2172 H2163 0.929 . S
C2172 C2164 1.378 . S
C2172 C2167 1.350 . S
C2173 H2160 0.929 . S
C2173 C2165 1.433 . S
C2173 N2175 1.384 . S
N2174 C2170 1.427 . S
N2174 C2171 1.384 . S
N2175 C2167 1.427 . S
N2175 C2173 1.384 . S
H2176 C2182 0.930 . S
H2177 C2186 0.930 . S
H2178 C2191 0.929 . S
H2179 C2189 0.929 . S
H2180 C2184 0.929 . S
H2181 C2190 0.929 . S
C2182 H2176 0.930 . S
C2182 C2183 1.367 . S
C2182 C2190 1.378 . S
C2183 C2182 1.367 . S
C2183 C2191 1.433 . S
C2184 H2180 0.929 . S
C2184 C2186 1.378 . S
C2184 C2188 1.350 . S
C2185 C2188 1.463 . S
C2185 C2190 1.350 . S
C2185 N2193 1.427 . S
C2186 H2177 0.930 . S
C2186 C2184 1.378 . S
C2186 C2187 1.367 . S
C2187 C2186 1.367 . S
C2187 C2189 1.433 . S
C2188 C2184 1.350 . S
C2188 C2185 1.463 . S
C2188 N2192 1.427 . S
C2189 H2179 0.929 . S
C2189 C2187 1.433 . S
C2189 N2192 1.384 . S
C2190 H2181 0.929 . S
C2190 C2182 1.378 . S
C2190 C2185 1.350 . S
C2191 H2178 0.929 . S
C2191 C2183 1.433 . S
C2191 N2193 1.384 . S
N2192 C2188 1.427 . S
N2192 C2189 1.384 . S
N2193 C2185 1.427 . S
N2193 C2191 1.384 . S
H2194 C2200 0.930 . S
H2195 C2204 0.930 . S
H2196 C2209 0.929 . S
H2197 C2207 0.929 1_565 S
H2198 C2202 0.929 . S
H2199 C2208 0.929 . S
C2200 H2194 0.930 . S
C2200 C2201 1.367 . S
C2200 C2208 1.378 . S
C2201 C2200 1.367 . S
C2201 C2209 1.433 . S
C2202 H2198 0.929 . S
C2202 C2204 1.378 . S
C2202 C2206 1.350 . S
C2203 C2206 1.463 . S
C2203 C2208 1.350 . S
C2203 N2211 1.427 . S
C2204 H2195 0.930 . S
C2204 C2202 1.378 . S
C2204 C2205 1.367 . S
C2205 C2204 1.367 . S
C2205 C2207 1.433 . S
C2206 C2202 1.350 . S
C2206 C2203 1.463 . S
C2206 N2210 1.427 . S
C2207 H2197 0.929 1_545 S
C2207 C2205 1.433 . S
C2207 N2210 1.384 . S
C2208 H2199 0.929 . S
C2208 C2200 1.378 . S
C2208 C2203 1.350 . S
C2209 H2196 0.929 . S
C2209 C2201 1.433 . S
C2209 N2211 1.384 . S
N2210 C2206 1.427 . S
N2210 C2207 1.384 . S
N2211 C2203 1.427 . S
N2211 C2209 1.384 . S
H2212 C2218 0.930 . S
H2213 C2222 0.930 . S
H2214 C2227 0.929 . S
H2215 C2225 0.929 . S
H2216 C2220 0.929 . S
H2217 C2226 0.929 . S
C2218 H2212 0.930 . S
C2218 C2219 1.367 . S
C2218 C2226 1.378 . S
C2219 C2218 1.367 . S
C2219 C2227 1.433 . S
C2220 H2216 0.929 . S
C2220 C2222 1.378 . S
C2220 C2224 1.350 . S
C2221 C2224 1.463 . S
C2221 C2226 1.350 . S
C2221 N2229 1.427 . S
C2222 H2213 0.930 . S
C2222 C2220 1.378 . S
C2222 C2223 1.367 . S
C2223 C2222 1.367 . S
C2223 C2225 1.433 . S
C2224 C2220 1.350 . S
C2224 C2221 1.463 . S
C2224 N2228 1.427 . S
C2225 H2215 0.929 . S
C2225 C2223 1.433 . S
C2225 N2228 1.384 . S
C2226 H2217 0.929 . S
C2226 C2218 1.378 . S
C2226 C2221 1.350 . S
C2227 H2214 0.929 . S
C2227 C2219 1.433 . S
C2227 N2229 1.384 . S
N2228 C2224 1.427 . S
N2228 C2225 1.384 . S
N2229 C2221 1.427 . S
N2229 C2227 1.384 . S
H2230 C2236 0.930 . S
H2231 C2240 0.930 . S
H2232 C2245 0.929 . S
H2233 C2243 0.929 . S
H2234 C2238 0.929 . S
H2235 C2244 0.929 . S
C2236 H2230 0.930 . S
C2236 C2237 1.367 . S
C2236 C2244 1.378 . S
C2237 C2236 1.367 . S
C2237 C2245 1.433 . S
C2238 H2234 0.929 . S
C2238 C2240 1.378 . S
C2238 C2242 1.350 . S
C2239 C2242 1.463 . S
C2239 C2244 1.350 . S
C2239 N2247 1.427 . S
C2240 H2231 0.930 . S
C2240 C2238 1.378 . S
C2240 C2241 1.367 . S
C2241 C2240 1.367 . S
C2241 C2243 1.433 . S
C2242 C2238 1.350 . S
C2242 C2239 1.463 . S
C2242 N2246 1.427 . S
C2243 H2233 0.929 . S
C2243 C2241 1.433 . S
C2243 N2246 1.384 . S
C2244 H2235 0.929 . S
C2244 C2236 1.378 . S
C2244 C2239 1.350 . S
C2245 H2232 0.929 . S
C2245 C2237 1.433 . S
C2245 N2247 1.384 . S
N2246 C2242 1.427 . S
N2246 C2243 1.384 . S
N2247 C2239 1.427 . S
N2247 C2245 1.384 . S
H2248 C2254 0.930 . S
H2249 C2258 0.936 . S
H2250 C2263 0.929 . S
H2251 C2261 0.929 . S
H2252 C2256 0.929 . S
H2253 C2262 0.929 . S
C2254 H2248 0.930 . S
C2254 C2255 1.367 . S
C2254 C2262 1.378 . S
C2255 C2254 1.367 . S
C2255 C2263 1.433 . S
C2256 H2252 0.929 . S
C2256 C2258 1.378 . S
C2256 C2260 1.350 . S
C2257 C2260 1.463 . S
C2257 C2262 1.350 . S
C2257 N2265 1.427 . S
C2258 H2249 0.936 . S
C2258 C2256 1.378 . S
C2258 C2259 1.367 . S
C2259 C2258 1.367 . S
C2259 C2261 1.433 . S
C2260 C2256 1.350 . S
C2260 C2257 1.463 . S
C2260 N2264 1.427 . S
C2261 H2251 0.929 . S
C2261 C2259 1.433 . S
C2261 N2264 1.384 . S
C2262 H2253 0.929 . S
C2262 C2254 1.378 . S
C2262 C2257 1.350 . S
C2263 H2250 0.929 . S
C2263 C2255 1.433 . S
C2263 N2265 1.384 . S
N2264 C2260 1.427 . S
N2264 C2261 1.384 . S
N2265 C2257 1.427 . S
N2265 C2263 1.384 . S
H2266 C2272 0.930 . S
H2267 C2276 0.930 . S
H2268 C2281 0.929 . S
H2269 C2279 0.929 . S
H2270 C2274 0.929 . S
H2271 C2280 0.929 . S
C2272 H2266 0.930 . S
C2272 C2273 1.367 . S
C2272 C2280 1.378 . S
C2273 C2272 1.367 . S
C2273 C2281 1.433 . S
C2274 H2270 0.929 . S
C2274 C2276 1.378 . S
C2274 C2278 1.350 . S
C2275 C2278 1.463 . S
C2275 C2280 1.350 . S
C2275 N2283 1.427 . S
C2276 H2267 0.930 . S
C2276 C2274 1.378 . S
C2276 C2277 1.367 . S
C2277 C2276 1.367 . S
C2277 C2279 1.433 . S
C2278 C2274 1.350 . S
C2278 C2275 1.463 . S
C2278 N2282 1.427 . S
C2279 H2269 0.929 . S
C2279 C2277 1.433 . S
C2279 N2282 1.384 . S
C2280 H2271 0.929 . S
C2280 C2272 1.378 . S
C2280 C2275 1.350 . S
C2281 H2268 0.929 . S
C2281 C2273 1.433 . S
C2281 N2283 1.384 . S
N2282 C2278 1.427 . S
N2282 C2279 1.384 . S
N2283 C2275 1.427 . S
N2283 C2281 1.384 . S
H2284 C2290 0.930 . S
H2285 C2294 0.930 1_545 S
H2286 C2299 0.929 . S
H2287 C2297 0.929 . S
H2288 C2292 0.929 . S
H2289 C2298 0.929 . S
C2290 H2284 0.930 . S
C2290 C2291 1.367 . S
C2290 C2298 1.378 . S
C2291 C2290 1.367 . S
C2291 C2299 1.433 . S
C2292 H2288 0.929 . S
C2292 C2294 1.378 . S
C2292 C2296 1.350 . S
C2293 C2296 1.463 . S
C2293 C2298 1.350 . S
C2293 N2301 1.427 . S
C2294 H2285 0.930 1_565 S
C2294 C2292 1.378 . S
C2294 C2295 1.367 . S
C2295 C2294 1.367 . S
C2295 C2297 1.433 . S
C2296 C2292 1.350 . S
C2296 C2293 1.463 . S
C2296 N2300 1.427 . S
C2297 H2287 0.929 . S
C2297 C2295 1.433 . S
C2297 N2300 1.384 . S
C2298 H2289 0.929 . S
C2298 C2290 1.378 . S
C2298 C2293 1.350 . S
C2299 H2286 0.929 . S
C2299 C2291 1.433 . S
C2299 N2301 1.384 . S
N2300 C2296 1.427 . S
N2300 C2297 1.384 . S
N2301 C2293 1.427 . S
N2301 C2299 1.384 . S
H2302 C2308 0.930 . S
H2303 C2312 0.930 . S
H2304 C2317 0.929 . S
H2305 C2315 0.929 . S
H2306 C2310 0.929 . S
H2307 C2316 0.929 . S
C2308 H2302 0.930 . S
C2308 C2309 1.367 . S
C2308 C2316 1.378 . S
C2309 C2308 1.367 . S
C2309 C2317 1.433 . S
C2310 H2306 0.929 . S
C2310 C2312 1.378 . S
C2310 C2314 1.350 . S
C2311 C2314 1.463 . S
C2311 C2316 1.350 . S
C2311 N2319 1.427 . S
C2312 H2303 0.930 . S
C2312 C2310 1.378 . S
C2312 C2313 1.367 . S
C2313 C2312 1.367 . S
C2313 C2315 1.433 . S
C2314 C2310 1.350 . S
C2314 C2311 1.463 . S
C2314 N2318 1.427 . S
C2315 H2305 0.929 . S
C2315 C2313 1.433 . S
C2315 N2318 1.384 . S
C2316 H2307 0.929 . S
C2316 C2308 1.378 . S
C2316 C2311 1.350 . S
C2317 H2304 0.929 . S
C2317 C2309 1.433 . S
C2317 N2319 1.384 . S
N2318 C2314 1.427 . S
N2318 C2315 1.384 . S
N2319 C2311 1.427 . S
N2319 C2317 1.384 . S
H2320 C2326 0.930 . S
H2321 C2330 0.930 . S
H2322 C2335 0.929 . S
H2323 C2333 0.929 . S
H2324 C2328 0.929 . S
H2325 C2334 0.929 . S
C2326 H2320 0.930 . S
C2326 C2327 1.367 . S
C2326 C2334 1.378 . S
C2327 C2326 1.367 . S
C2327 C2335 1.433 . S
C2328 H2324 0.929 . S
C2328 C2330 1.378 . S
C2328 C2332 1.350 . S
C2329 C2332 1.463 . S
C2329 C2334 1.350 . S
C2329 N2337 1.427 . S
C2330 H2321 0.930 . S
C2330 C2328 1.378 . S
C2330 C2331 1.367 . S
C2331 C2330 1.367 . S
C2331 C2333 1.433 . S
C2332 C2328 1.350 . S
C2332 C2329 1.463 . S
C2332 N2336 1.427 . S
C2333 H2323 0.929 . S
C2333 C2331 1.433 . S
C2333 N2336 1.384 . S
C2334 H2325 0.929 . S
C2334 C2326 1.378 . S
C2334 C2329 1.350 . S
C2335 H2322 0.929 . S
C2335 C2327 1.433 . S
C2335 N2337 1.384 . S
N2336 C2332 1.427 . S
N2336 C2333 1.384 . S
N2337 C2329 1.427 . S
N2337 C2335 1.384 . S
H2338 C2344 0.930 . S
H2339 C2348 0.930 . S
H2340 C2353 0.929 . S
H2341 C2351 0.929 . S
H2342 C2346 0.929 . S
H2343 C2352 0.929 . S
C2344 H2338 0.930 . S
C2344 C2345 1.367 . S
C2344 C2352 1.378 . S
C2345 C2344 1.367 . S
C2345 C2353 1.433 . S
C2346 H2342 0.929 . S
C2346 C2348 1.378 . S
C2346 C2350 1.350 . S
C2347 C2350 1.463 . S
C2347 C2352 1.350 . S
C2347 N2355 1.427 . S
C2348 H2339 0.930 . S
C2348 C2346 1.378 . S
C2348 C2349 1.367 . S
C2349 C2348 1.367 . S
C2349 C2351 1.433 . S
C2350 C2346 1.350 . S
C2350 C2347 1.463 . S
C2350 N2354 1.427 . S
C2351 H2341 0.929 . S
C2351 C2349 1.433 . S
C2351 N2354 1.384 . S
C2352 H2343 0.929 . S
C2352 C2344 1.378 . S
C2352 C2347 1.350 . S
C2353 H2340 0.929 . S
C2353 C2345 1.433 . S
C2353 N2355 1.384 . S
N2354 C2350 1.427 . S
N2354 C2351 1.384 . S
N2355 C2347 1.427 . S
N2355 C2353 1.384 . S
H2356 C2362 0.930 . S
H2357 C2366 0.930 . S
H2358 C2371 0.929 . S
H2359 C2369 0.929 . S
H2360 C2364 0.929 . S
H2361 C2370 0.929 . S
C2362 H2356 0.930 . S
C2362 C2363 1.367 . S
C2362 C2370 1.378 . S
C2363 C2362 1.367 . S
C2363 C2371 1.433 . S
C2364 H2360 0.929 . S
C2364 C2366 1.378 . S
C2364 C2368 1.350 . S
C2365 C2368 1.463 . S
C2365 C2370 1.350 . S
C2365 N2373 1.427 . S
C2366 H2357 0.930 . S
C2366 C2364 1.378 . S
C2366 C2367 1.367 . S
C2367 C2366 1.367 . S
C2367 C2369 1.433 . S
C2368 C2364 1.350 . S
C2368 C2365 1.463 . S
C2368 N2372 1.427 . S
C2369 H2359 0.929 . S
C2369 C2367 1.433 . S
C2369 N2372 1.384 . S
C2370 H2361 0.929 . S
C2370 C2362 1.378 . S
C2370 C2365 1.350 . S
C2371 H2358 0.929 . S
C2371 C2363 1.433 . S
C2371 N2373 1.384 . S
N2372 C2368 1.427 . S
N2372 C2369 1.384 . S
N2373 C2365 1.427 . S
N2373 C2371 1.384 . S
H2374 C2380 0.930 . S
H2375 C2384 0.930 . S
H2376 C2389 0.929 . S
H2377 C2387 0.929 . S
H2378 C2382 0.929 . S
H2379 C2388 0.929 . S
C2380 H2374 0.930 . S
C2380 C2381 1.367 . S
C2380 C2388 1.378 . S
C2381 C2380 1.367 . S
C2381 C2389 1.433 . S
C2382 H2378 0.929 . S
C2382 C2384 1.378 . S
C2382 C2386 1.350 . S
C2383 C2386 1.463 . S
C2383 C2388 1.350 . S
C2383 N2391 1.427 . S
C2384 H2375 0.930 . S
C2384 C2382 1.378 . S
C2384 C2385 1.367 . S
C2385 C2384 1.367 . S
C2385 C2387 1.433 . S
C2386 C2382 1.350 . S
C2386 C2383 1.463 . S
C2386 N2390 1.427 . S
C2387 H2377 0.929 . S
C2387 C2385 1.433 . S
C2387 N2390 1.384 . S
C2388 H2379 0.929 . S
C2388 C2380 1.378 . S
C2388 C2383 1.350 . S
C2389 H2376 0.929 . S
C2389 C2381 1.433 . S
C2389 N2391 1.384 . S
N2390 C2386 1.427 . S
N2390 C2387 1.384 . S
N2391 C2383 1.427 . S
N2391 C2389 1.384 . S
H2392 C2398 0.930 . S
H2393 C2402 0.930 . S
H2394 C2407 0.929 . S
H2395 C2405 0.929 . S
H2396 C2400 0.929 . S
H2397 C2406 0.929 . S
C2398 H2392 0.930 . S
C2398 C2399 1.367 . S
C2398 C2406 1.378 . S
C2399 C2398 1.367 . S
C2399 C2407 1.433 . S
C2400 H2396 0.929 . S
C2400 C2402 1.378 . S
C2400 C2404 1.350 . S
C2401 C2404 1.463 . S
C2401 C2406 1.350 . S
C2401 N2409 1.427 . S
C2402 H2393 0.930 . S
C2402 C2400 1.378 . S
C2402 C2403 1.367 . S
C2403 C2402 1.367 . S
C2403 C2405 1.433 . S
C2404 C2400 1.350 . S
C2404 C2401 1.463 . S
C2404 N2408 1.427 . S
C2405 H2395 0.929 . S
C2405 C2403 1.433 . S
C2405 N2408 1.384 . S
C2406 H2397 0.929 . S
C2406 C2398 1.378 . S
C2406 C2401 1.350 . S
C2407 H2394 0.929 . S
C2407 C2399 1.433 . S
C2407 N2409 1.384 . S
N2408 C2404 1.427 . S
N2408 C2405 1.384 . S
N2409 C2401 1.427 . S
N2409 C2407 1.384 . S
H2410 C2416 0.930 . S
H2411 C2420 0.930 . S
H2412 C2425 0.929 . S
H2413 C2423 0.929 . S
H2414 C2418 0.929 . S
H2415 C2424 0.929 . S
C2416 H2410 0.930 . S
C2416 C2417 1.367 . S
C2416 C2424 1.378 . S
C2417 C2416 1.367 . S
C2417 C2425 1.433 . S
C2418 H2414 0.929 . S
C2418 C2420 1.378 . S
C2418 C2422 1.350 . S
C2419 C2422 1.463 . S
C2419 C2424 1.350 . S
C2419 N2427 1.427 . S
C2420 H2411 0.930 . S
C2420 C2418 1.378 . S
C2420 C2421 1.367 . S
C2421 C2420 1.367 . S
C2421 C2423 1.433 . S
C2422 C2418 1.350 . S
C2422 C2419 1.463 . S
C2422 N2426 1.427 . S
C2423 H2413 0.929 . S
C2423 C2421 1.433 . S
C2423 N2426 1.384 . S
C2424 H2415 0.929 . S
C2424 C2416 1.378 . S
C2424 C2419 1.350 . S
C2425 H2412 0.929 . S
C2425 C2417 1.433 . S
C2425 N2427 1.384 . S
N2426 C2422 1.427 . S
N2426 C2423 1.384 . S
N2427 C2419 1.427 . S
N2427 C2425 1.384 . S
H2428 C2434 0.930 . S
H2429 C2438 0.930 . S
H2430 C2443 0.929 . S
H2431 C2441 0.929 . S
H2432 C2436 0.929 . S
H2433 C2442 0.929 . S
C2434 H2428 0.930 . S
C2434 C2435 1.367 . S
C2434 C2442 1.378 . S
C2435 C2434 1.367 . S
C2435 C2443 1.433 . S
C2436 H2432 0.929 . S
C2436 C2438 1.378 . S
C2436 C2440 1.350 . S
C2437 C2440 1.463 . S
C2437 C2442 1.350 . S
C2437 N2445 1.427 . S
C2438 H2429 0.930 . S
C2438 C2436 1.378 . S
C2438 C2439 1.367 . S
C2439 C2438 1.367 . S
C2439 C2441 1.433 . S
C2440 C2436 1.350 . S
C2440 C2437 1.463 . S
C2440 N2444 1.427 . S
C2441 H2431 0.929 . S
C2441 C2439 1.433 . S
C2441 N2444 1.384 . S
C2442 H2433 0.929 . S
C2442 C2434 1.378 . S
C2442 C2437 1.350 . S
C2443 H2430 0.929 . S
C2443 C2435 1.433 . S
C2443 N2445 1.384 . S
N2444 C2440 1.427 . S
N2444 C2441 1.384 . S
N2445 C2437 1.427 . S
N2445 C2443 1.384 . S
H2446 C2452 0.930 . S
H2447 C2456 0.930 . S
H2448 C2461 0.929 . S
H2449 C2459 0.929 . S
H2450 C2454 0.929 . S
H2451 C2460 0.929 . S
C2452 H2446 0.930 . S
C2452 C2453 1.367 . S
C2452 C2460 1.378 . S
C2453 C2452 1.367 . S
C2453 C2461 1.433 . S
C2454 H2450 0.929 . S
C2454 C2456 1.378 . S
C2454 C2458 1.350 . S
C2455 C2458 1.463 . S
C2455 C2460 1.350 . S
C2455 N2463 1.427 . S
C2456 H2447 0.930 . S
C2456 C2454 1.378 . S
C2456 C2457 1.367 . S
C2457 C2456 1.367 . S
C2457 C2459 1.433 . S
C2458 C2454 1.350 . S
C2458 C2455 1.463 . S
C2458 N2462 1.427 . S
C2459 H2449 0.929 . S
C2459 C2457 1.433 . S
C2459 N2462 1.384 . S
C2460 H2451 0.929 . S
C2460 C2452 1.378 . S
C2460 C2455 1.350 . S
C2461 H2448 0.929 . S
C2461 C2453 1.433 . S
C2461 N2463 1.384 . S
N2462 C2458 1.427 . S
N2462 C2459 1.384 . S
N2463 C2455 1.427 . S
N2463 C2461 1.384 . S
H2464 C2470 0.930 . S
H2465 C2474 0.930 . S
H2466 C2479 0.929 . S
H2467 C2477 0.929 . S
H2468 C2472 0.929 . S
H2469 C2478 0.929 . S
C2470 H2464 0.930 . S
C2470 C2471 1.367 . S
C2470 C2478 1.378 . S
C2471 C2470 1.367 . S
C2471 C2479 1.433 . S
C2472 H2468 0.929 . S
C2472 C2474 1.378 . S
C2472 C2476 1.350 . S
C2473 C2476 1.463 . S
C2473 C2478 1.350 . S
C2473 N2481 1.427 . S
C2474 H2465 0.930 . S
C2474 C2472 1.378 . S
C2474 C2475 1.367 . S
C2475 C2474 1.367 . S
C2475 C2477 1.433 . S
C2476 C2472 1.350 . S
C2476 C2473 1.463 . S
C2476 N2480 1.427 . S
C2477 H2467 0.929 . S
C2477 C2475 1.433 . S
C2477 N2480 1.384 . S
C2478 H2469 0.929 . S
C2478 C2470 1.378 . S
C2478 C2473 1.350 . S
C2479 H2466 0.929 . S
C2479 C2471 1.433 . S
C2479 N2481 1.384 . S
N2480 C2476 1.427 . S
N2480 C2477 1.384 . S
N2481 C2473 1.427 . S
N2481 C2479 1.384 . S
H2482 C2488 0.930 . S
H2483 C2492 0.930 . S
H2484 C2497 0.929 . S
H2485 C2495 0.945 . S
H2486 C2490 0.929 . S
H2487 C2496 0.929 . S
C2488 H2482 0.930 . S
C2488 C2489 1.367 . S
C2488 C2496 1.378 . S
C2489 C2488 1.367 . S
C2489 C2497 1.433 . S
C2490 H2486 0.929 . S
C2490 C2492 1.378 . S
C2490 C2494 1.350 . S
C2491 C2494 1.463 . S
C2491 C2496 1.350 . S
C2491 N2499 1.427 . S
C2492 H2483 0.930 . S
C2492 C2490 1.378 . S
C2492 C2493 1.367 . S
C2493 C2492 1.367 . S
C2493 C2495 1.433 . S
C2494 C2490 1.350 . S
C2494 C2491 1.463 . S
C2494 N2498 1.427 . S
C2495 H2485 0.945 . S
C2495 C2493 1.433 . S
C2495 N2498 1.384 . S
C2496 H2487 0.929 . S
C2496 C2488 1.378 . S
C2496 C2491 1.350 . S
C2497 H2484 0.929 . S
C2497 C2489 1.433 . S
C2497 N2499 1.384 . S
N2498 C2494 1.427 . S
N2498 C2495 1.384 . S
N2499 C2491 1.427 . S
N2499 C2497 1.384 . S
H2500 C2506 0.930 . S
H2501 C2510 0.930 . S
H2502 C2515 0.929 . S
H2503 C2513 0.929 . S
H2504 C2508 0.929 . S
H2505 C2514 0.929 . S
C2506 H2500 0.930 . S
C2506 C2507 1.367 . S
C2506 C2514 1.378 . S
C2507 C2506 1.367 . S
C2507 C2515 1.433 . S
C2508 H2504 0.929 . S
C2508 C2510 1.378 . S
C2508 C2512 1.350 . S
C2509 C2512 1.463 . S
C2509 C2514 1.350 . S
C2509 N2517 1.427 . S
C2510 H2501 0.930 . S
C2510 C2508 1.378 . S
C2510 C2511 1.367 . S
C2511 C2510 1.367 . S
C2511 C2513 1.433 . S
C2512 C2508 1.350 . S
C2512 C2509 1.463 . S
C2512 N2516 1.427 . S
C2513 H2503 0.929 . S
C2513 C2511 1.433 . S
C2513 N2516 1.384 . S
C2514 H2505 0.929 . S
C2514 C2506 1.378 . S
C2514 C2509 1.350 . S
C2515 H2502 0.929 . S
C2515 C2507 1.433 . S
C2515 N2517 1.384 . S
N2516 C2512 1.427 . S
N2516 C2513 1.384 . S
N2517 C2509 1.427 . S
N2517 C2515 1.384 . S
H2518 C2524 0.930 . S
H2519 C2528 0.930 . S
H2520 C2533 0.929 . S
H2521 C2531 0.929 . S
H2522 C2526 0.929 . S
H2523 C2532 0.929 . S
C2524 H2518 0.930 . S
C2524 C2525 1.367 . S
C2524 C2532 1.378 . S
C2525 C2524 1.367 . S
C2525 C2533 1.433 . S
C2526 H2522 0.929 . S
C2526 C2528 1.378 . S
C2526 C2530 1.350 . S
C2527 C2530 1.463 . S
C2527 C2532 1.350 . S
C2527 N2535 1.427 . S
C2528 H2519 0.930 . S
C2528 C2526 1.378 . S
C2528 C2529 1.367 . S
C2529 C2528 1.367 . S
C2529 C2531 1.433 . S
C2530 C2526 1.350 . S
C2530 C2527 1.463 . S
C2530 N2534 1.427 . S
C2531 H2521 0.929 . S
C2531 C2529 1.433 . S
C2531 N2534 1.384 . S
C2532 H2523 0.929 . S
C2532 C2524 1.378 . S
C2532 C2527 1.350 . S
C2533 H2520 0.929 . S
C2533 C2525 1.433 . S
C2533 N2535 1.384 . S
N2534 C2530 1.427 . S
N2534 C2531 1.384 . S
N2535 C2527 1.427 . S
N2535 C2533 1.384 . S
H2536 C2542 0.930 . S
H2537 C2546 0.930 . S
H2538 C2551 0.929 . S
H2539 C2549 0.929 . S
H2540 C2544 0.929 . S
H2541 C2550 0.929 . S
C2542 H2536 0.930 . S
C2542 C2543 1.367 . S
C2542 C2550 1.378 . S
C2543 C2542 1.367 . S
C2543 C2551 1.433 . S
C2544 H2540 0.929 . S
C2544 C2546 1.378 . S
C2544 C2548 1.350 . S
C2545 C2548 1.463 . S
C2545 C2550 1.350 . S
C2545 N2553 1.427 . S
C2546 H2537 0.930 . S
C2546 C2544 1.378 . S
C2546 C2547 1.367 . S
C2547 C2546 1.367 . S
C2547 C2549 1.433 . S
C2548 C2544 1.350 . S
C2548 C2545 1.463 . S
C2548 N2552 1.427 . S
C2549 H2539 0.929 . S
C2549 C2547 1.433 . S
C2549 N2552 1.384 . S
C2550 H2541 0.929 . S
C2550 C2542 1.378 . S
C2550 C2545 1.350 . S
C2551 H2538 0.929 . S
C2551 C2543 1.433 . S
C2551 N2553 1.384 . S
N2552 C2548 1.427 . S
N2552 C2549 1.384 . S
N2553 C2545 1.427 . S
N2553 C2551 1.384 . S
H2554 C2560 0.930 . S
H2555 C2564 0.930 . S
H2556 C2569 0.929 . S
H2557 C2567 0.929 . S
H2558 C2562 0.929 . S
H2559 C2568 0.929 . S
C2560 H2554 0.930 . S
C2560 C2561 1.367 . S
C2560 C2568 1.378 . S
C2561 C2560 1.367 . S
C2561 C2569 1.433 . S
C2562 H2558 0.929 . S
C2562 C2564 1.378 . S
C2562 C2566 1.350 . S
C2563 C2566 1.463 . S
C2563 C2568 1.350 . S
C2563 N2571 1.427 . S
C2564 H2555 0.930 . S
C2564 C2562 1.378 . S
C2564 C2565 1.367 . S
C2565 C2564 1.367 . S
C2565 C2567 1.433 . S
C2566 C2562 1.350 . S
C2566 C2563 1.463 . S
C2566 N2570 1.427 . S
C2567 H2557 0.929 . S
C2567 C2565 1.433 . S
C2567 N2570 1.384 . S
C2568 H2559 0.929 . S
C2568 C2560 1.378 . S
C2568 C2563 1.350 . S
C2569 H2556 0.929 . S
C2569 C2561 1.433 . S
C2569 N2571 1.384 . S
N2570 C2566 1.427 . S
N2570 C2567 1.384 . S
N2571 C2563 1.427 . S
N2571 C2569 1.384 . S
H2572 C2578 0.930 . S
H2573 C2582 0.930 . S
H2574 C2587 0.929 . S
H2575 C2585 0.929 . S
H2576 C2580 0.929 . S
H2577 C2586 0.929 . S
C2578 H2572 0.930 . S
C2578 C2579 1.367 . S
C2578 C2586 1.378 . S
C2579 C2578 1.367 . S
C2579 C2587 1.433 . S
C2580 H2576 0.929 . S
C2580 C2582 1.378 . S
C2580 C2584 1.350 . S
C2581 C2584 1.463 . S
C2581 C2586 1.350 . S
C2581 N2589 1.427 . S
C2582 H2573 0.930 . S
C2582 C2580 1.378 . S
C2582 C2583 1.367 . S
C2583 C2582 1.367 . S
C2583 C2585 1.433 . S
C2584 C2580 1.350 . S
C2584 C2581 1.463 . S
C2584 N2588 1.427 . S
C2585 H2575 0.929 . S
C2585 C2583 1.433 . S
C2585 N2588 1.384 . S
C2586 H2577 0.929 . S
C2586 C2578 1.378 . S
C2586 C2581 1.350 . S
C2587 H2574 0.929 . S
C2587 C2579 1.433 . S
C2587 N2589 1.384 . S
N2588 C2584 1.427 . S
N2588 C2585 1.384 . S
N2589 C2581 1.427 . S
N2589 C2587 1.384 . S
H2590 C2596 0.930 . S
H2591 C2600 0.930 . S
H2592 C2605 0.929 . S
H2593 C2603 0.929 . S
H2594 C2598 0.929 . S
H2595 C2604 0.929 . S
C2596 H2590 0.930 . S
C2596 C2597 1.367 . S
C2596 C2604 1.378 . S
C2597 C2596 1.367 . S
C2597 C2605 1.433 . S
C2598 H2594 0.929 . S
C2598 C2600 1.378 . S
C2598 C2602 1.350 . S
C2599 C2602 1.463 . S
C2599 C2604 1.350 . S
C2599 N2607 1.427 . S
C2600 H2591 0.930 . S
C2600 C2598 1.378 . S
C2600 C2601 1.367 . S
C2601 C2600 1.367 . S
C2601 C2603 1.433 . S
C2602 C2598 1.350 . S
C2602 C2599 1.463 . S
C2602 N2606 1.427 . S
C2603 H2593 0.929 . S
C2603 C2601 1.433 . S
C2603 N2606 1.384 . S
C2604 H2595 0.929 . S
C2604 C2596 1.378 . S
C2604 C2599 1.350 . S
C2605 H2592 0.929 . S
C2605 C2597 1.433 . S
C2605 N2607 1.384 . S
N2606 C2602 1.427 . S
N2606 C2603 1.384 . S
N2607 C2599 1.427 . S
N2607 C2605 1.384 . S
H2608 C2614 0.930 . S
H2609 C2618 0.930 . S
H2610 C2623 0.929 . S
H2611 C2621 0.929 . S
H2612 C2616 0.929 . S
H2613 C2622 0.929 . S
C2614 H2608 0.930 . S
C2614 C2615 1.367 . S
C2614 C2622 1.378 . S
C2615 C2614 1.367 . S
C2615 C2623 1.433 . S
C2616 H2612 0.929 . S
C2616 C2618 1.378 . S
C2616 C2620 1.350 . S
C2617 C2620 1.463 . S
C2617 C2622 1.350 . S
C2617 N2625 1.427 . S
C2618 H2609 0.930 . S
C2618 C2616 1.378 . S
C2618 C2619 1.367 . S
C2619 C2618 1.367 . S
C2619 C2621 1.433 . S
C2620 C2616 1.350 . S
C2620 C2617 1.463 . S
C2620 N2624 1.427 . S
C2621 H2611 0.929 . S
C2621 C2619 1.433 . S
C2621 N2624 1.384 . S
C2622 H2613 0.929 . S
C2622 C2614 1.378 . S
C2622 C2617 1.350 . S
C2623 H2610 0.929 . S
C2623 C2615 1.433 . S
C2623 N2625 1.384 . S
N2624 C2620 1.427 . S
N2624 C2621 1.384 . S
N2625 C2617 1.427 . S
N2625 C2623 1.384 . S
H2626 C2632 0.930 . S
H2627 C2636 0.930 . S
H2628 C2641 0.929 . S
H2629 C2639 0.929 . S
H2630 C2634 0.929 . S
H2631 C2640 0.929 . S
C2632 H2626 0.930 . S
C2632 C2633 1.367 . S
C2632 C2640 1.378 . S
C2633 C2632 1.367 . S
C2633 C2641 1.433 . S
C2634 H2630 0.929 . S
C2634 C2636 1.378 . S
C2634 C2638 1.350 . S
C2635 C2638 1.463 . S
C2635 C2640 1.350 . S
C2635 N2643 1.427 . S
C2636 H2627 0.930 . S
C2636 C2634 1.378 . S
C2636 C2637 1.367 . S
C2637 C2636 1.367 . S
C2637 C2639 1.433 . S
C2638 C2634 1.350 . S
C2638 C2635 1.463 . S
C2638 N2642 1.427 . S
C2639 H2629 0.929 . S
C2639 C2637 1.433 . S
C2639 N2642 1.384 . S
C2640 H2631 0.929 . S
C2640 C2632 1.378 . S
C2640 C2635 1.350 . S
C2641 H2628 0.929 . S
C2641 C2633 1.433 . S
C2641 N2643 1.384 . S
N2642 C2638 1.427 . S
N2642 C2639 1.384 . S
N2643 C2635 1.427 . S
N2643 C2641 1.384 . S
H2644 C2650 0.930 . S
H2645 C2654 0.930 . S
H2646 C2659 0.929 . S
H2647 C2657 0.929 . S
H2648 C2652 0.929 . S
H2649 C2658 0.929 . S
C2650 H2644 0.930 . S
C2650 C2651 1.367 . S
C2650 C2658 1.378 . S
C2651 C2650 1.367 . S
C2651 C2659 1.433 . S
C2652 H2648 0.929 . S
C2652 C2654 1.378 . S
C2652 C2656 1.350 . S
C2653 C2656 1.463 . S
C2653 C2658 1.350 . S
C2653 N2661 1.427 . S
C2654 H2645 0.930 . S
C2654 C2652 1.378 . S
C2654 C2655 1.367 . S
C2655 C2654 1.367 . S
C2655 C2657 1.433 . S
C2656 C2652 1.350 . S
C2656 C2653 1.463 . S
C2656 N2660 1.427 . S
C2657 H2647 0.929 . S
C2657 C2655 1.433 . S
C2657 N2660 1.384 . S
C2658 H2649 0.929 . S
C2658 C2650 1.378 . S
C2658 C2653 1.350 . S
C2659 H2646 0.929 . S
C2659 C2651 1.433 . S
C2659 N2661 1.384 . S
N2660 C2656 1.427 . S
N2660 C2657 1.384 . S
N2661 C2653 1.427 . S
N2661 C2659 1.384 . S
H2662 C2668 0.930 . S
H2663 C2672 0.930 . S
H2664 C2677 0.929 . S
H2665 C2675 0.929 . S
H2666 C2670 0.929 . S
H2667 C2676 0.929 . S
C2668 H2662 0.930 . S
C2668 C2669 1.367 . S
C2668 C2676 1.378 . S
C2669 C2668 1.367 . S
C2669 C2677 1.433 . S
C2670 H2666 0.929 . S
C2670 C2672 1.378 . S
C2670 C2674 1.350 . S
C2671 C2674 1.463 . S
C2671 C2676 1.350 . S
C2671 N2679 1.427 . S
C2672 H2663 0.930 . S
C2672 C2670 1.378 . S
C2672 C2673 1.367 . S
C2673 C2672 1.367 . S
C2673 C2675 1.433 . S
C2674 C2670 1.350 . S
C2674 C2671 1.463 . S
C2674 N2678 1.427 . S
C2675 H2665 0.929 . S
C2675 C2673 1.433 . S
C2675 N2678 1.384 . S
C2676 H2667 0.929 . S
C2676 C2668 1.378 . S
C2676 C2671 1.350 . S
C2677 H2664 0.929 . S
C2677 C2669 1.433 . S
C2677 N2679 1.384 . S
N2678 C2674 1.427 . S
N2678 C2675 1.384 . S
N2679 C2671 1.427 . S
N2679 C2677 1.384 . S
H2680 C2686 0.930 . S
H2681 C2690 0.930 . S
H2682 C2695 0.929 . S
H2683 C2693 0.929 . S
H2684 C2688 0.929 . S
H2685 C2694 0.929 . S
C2686 H2680 0.930 . S
C2686 C2687 1.367 . S
C2686 C2694 1.378 . S
C2687 C2686 1.367 . S
C2687 C2695 1.433 . S
C2688 H2684 0.929 . S
C2688 C2690 1.378 . S
C2688 C2692 1.350 . S
C2689 C2692 1.463 . S
C2689 C2694 1.350 . S
C2689 N2697 1.427 . S
C2690 H2681 0.930 . S
C2690 C2688 1.378 . S
C2690 C2691 1.367 . S
C2691 C2690 1.367 . S
C2691 C2693 1.433 . S
C2692 C2688 1.350 . S
C2692 C2689 1.463 . S
C2692 N2696 1.427 . S
C2693 H2683 0.929 . S
C2693 C2691 1.433 . S
C2693 N2696 1.384 . S
C2694 H2685 0.929 . S
C2694 C2686 1.378 . S
C2694 C2689 1.350 . S
C2695 H2682 0.929 . S
C2695 C2687 1.433 . S
C2695 N2697 1.384 . S
N2696 C2692 1.427 . S
N2696 C2693 1.384 . S
N2697 C2689 1.427 . S
N2697 C2695 1.384 . S
H2698 C2704 0.930 . S
H2699 C2708 0.930 . S
H2700 C2713 0.929 . S
H2701 C2711 0.929 . S
H2702 C2706 0.929 . S
H2703 C2712 0.929 . S
C2704 H2698 0.930 . S
C2704 C2705 1.367 . S
C2704 C2712 1.378 . S
C2705 C2704 1.367 . S
C2705 C2713 1.433 . S
C2706 H2702 0.929 . S
C2706 C2708 1.378 . S
C2706 C2710 1.350 . S
C2707 C2710 1.463 . S
C2707 C2712 1.350 . S
C2707 N2715 1.427 . S
C2708 H2699 0.930 . S
C2708 C2706 1.378 . S
C2708 C2709 1.367 . S
C2709 C2708 1.367 . S
C2709 C2711 1.433 . S
C2710 C2706 1.350 . S
C2710 C2707 1.463 . S
C2710 N2714 1.427 . S
C2711 H2701 0.929 . S
C2711 C2709 1.433 . S
C2711 N2714 1.384 . S
C2712 H2703 0.929 . S
C2712 C2704 1.378 . S
C2712 C2707 1.350 . S
C2713 H2700 0.929 . S
C2713 C2705 1.433 . S
C2713 N2715 1.384 . S
N2714 C2710 1.427 . S
N2714 C2711 1.384 . S
N2715 C2707 1.427 . S
N2715 C2713 1.384 . S
H2716 C2722 0.930 . S
H2717 C2726 0.930 . S
H2718 C2731 0.929 . S
H2719 C2729 0.929 . S
H2720 C2724 0.929 . S
H2721 C2730 0.929 . S
C2722 H2716 0.930 . S
C2722 C2723 1.367 . S
C2722 C2730 1.378 . S
C2723 C2722 1.367 . S
C2723 C2731 1.433 . S
C2724 H2720 0.929 . S
C2724 C2726 1.378 . S
C2724 C2728 1.350 . S
C2725 C2728 1.463 . S
C2725 C2730 1.350 . S
C2725 N2733 1.427 . S
C2726 H2717 0.930 . S
C2726 C2724 1.378 . S
C2726 C2727 1.367 . S
C2727 C2726 1.367 . S
C2727 C2729 1.433 . S
C2728 C2724 1.350 . S
C2728 C2725 1.463 . S
C2728 N2732 1.427 . S
C2729 H2719 0.929 . S
C2729 C2727 1.433 . S
C2729 N2732 1.384 . S
C2730 H2721 0.929 . S
C2730 C2722 1.378 . S
C2730 C2725 1.350 . S
C2731 H2718 0.929 . S
C2731 C2723 1.433 . S
C2731 N2733 1.384 . S
N2732 C2728 1.427 . S
N2732 C2729 1.384 . S
N2733 C2725 1.427 . S
N2733 C2731 1.384 . S
H2734 C2740 0.930 . S
H2735 C2744 0.930 . S
H2736 C2749 0.929 . S
H2737 C2747 0.929 . S
H2738 C2742 0.929 . S
H2739 C2748 0.929 . S
C2740 H2734 0.930 . S
C2740 C2741 1.367 . S
C2740 C2748 1.378 . S
C2741 C2740 1.367 . S
C2741 C2749 1.433 . S
C2742 H2738 0.929 . S
C2742 C2744 1.378 . S
C2742 C2746 1.350 . S
C2743 C2746 1.463 . S
C2743 C2748 1.350 . S
C2743 N2751 1.427 . S
C2744 H2735 0.930 . S
C2744 C2742 1.378 . S
C2744 C2745 1.367 . S
C2745 C2744 1.367 . S
C2745 C2747 1.433 . S
C2746 C2742 1.350 . S
C2746 C2743 1.463 . S
C2746 N2750 1.427 . S
C2747 H2737 0.929 . S
C2747 C2745 1.433 . S
C2747 N2750 1.384 . S
C2748 H2739 0.929 . S
C2748 C2740 1.378 . S
C2748 C2743 1.350 . S
C2749 H2736 0.929 . S
C2749 C2741 1.433 . S
C2749 N2751 1.384 . S
N2750 C2746 1.427 . S
N2750 C2747 1.384 . S
N2751 C2743 1.427 . S
N2751 C2749 1.384 . S
H2752 C2758 0.930 . S
H2753 C2762 0.930 . S
H2754 C2767 0.929 . S
H2755 C2765 0.929 . S
H2756 C2760 0.929 . S
H2757 C2766 0.929 . S
C2758 H2752 0.930 . S
C2758 C2759 1.367 . S
C2758 C2766 1.378 . S
C2759 C2758 1.367 . S
C2759 C2767 1.433 . S
C2760 H2756 0.929 . S
C2760 C2762 1.378 . S
C2760 C2764 1.350 . S
C2761 C2764 1.463 . S
C2761 C2766 1.350 . S
C2761 N2769 1.427 . S
C2762 H2753 0.930 . S
C2762 C2760 1.378 . S
C2762 C2763 1.367 . S
C2763 C2762 1.367 . S
C2763 C2765 1.433 . S
C2764 C2760 1.350 . S
C2764 C2761 1.463 . S
C2764 N2768 1.427 . S
C2765 H2755 0.929 . S
C2765 C2763 1.433 . S
C2765 N2768 1.384 . S
C2766 H2757 0.929 . S
C2766 C2758 1.378 . S
C2766 C2761 1.350 . S
C2767 H2754 0.929 . S
C2767 C2759 1.433 . S
C2767 N2769 1.384 . S
N2768 C2764 1.427 . S
N2768 C2765 1.384 . S
N2769 C2761 1.427 . S
N2769 C2767 1.384 . S
H2770 C2776 0.930 . S
H2771 C2780 0.930 . S
H2772 C2785 0.929 . S
H2773 C2783 0.929 . S
H2774 C2778 0.929 . S
H2775 C2784 0.929 . S
C2776 H2770 0.930 . S
C2776 C2777 1.367 . S
C2776 C2784 1.378 . S
C2777 C2776 1.367 . S
C2777 C2785 1.433 . S
C2778 H2774 0.929 . S
C2778 C2780 1.378 . S
C2778 C2782 1.350 . S
C2779 C2782 1.463 . S
C2779 C2784 1.350 . S
C2779 N2787 1.427 . S
C2780 H2771 0.930 . S
C2780 C2778 1.378 . S
C2780 C2781 1.367 . S
C2781 C2780 1.367 . S
C2781 C2783 1.433 . S
C2782 C2778 1.350 . S
C2782 C2779 1.463 . S
C2782 N2786 1.427 . S
C2783 H2773 0.929 . S
C2783 C2781 1.433 . S
C2783 N2786 1.384 . S
C2784 H2775 0.929 . S
C2784 C2776 1.378 . S
C2784 C2779 1.350 . S
C2785 H2772 0.929 . S
C2785 C2777 1.433 . S
C2785 N2787 1.384 . S
N2786 C2782 1.427 . S
N2786 C2783 1.384 . S
N2787 C2779 1.427 . S
N2787 C2785 1.384 . S
H2788 C2794 0.930 . S
H2789 C2798 0.930 . S
H2790 C2803 0.929 . S
H2791 C2801 0.929 . S
H2792 C2796 0.929 . S
H2793 C2802 0.929 . S
C2794 H2788 0.930 . S
C2794 C2795 1.367 . S
C2794 C2802 1.378 . S
C2795 C2794 1.367 . S
C2795 C2803 1.433 . S
C2796 H2792 0.929 . S
C2796 C2798 1.378 . S
C2796 C2800 1.350 . S
C2797 C2800 1.463 . S
C2797 C2802 1.350 . S
C2797 N2805 1.427 . S
C2798 H2789 0.930 . S
C2798 C2796 1.378 . S
C2798 C2799 1.367 . S
C2799 C2798 1.367 . S
C2799 C2801 1.433 . S
C2800 C2796 1.350 . S
C2800 C2797 1.463 . S
C2800 N2804 1.427 . S
C2801 H2791 0.929 . S
C2801 C2799 1.433 . S
C2801 N2804 1.384 . S
C2802 H2793 0.929 . S
C2802 C2794 1.378 . S
C2802 C2797 1.350 . S
C2803 H2790 0.929 . S
C2803 C2795 1.433 . S
C2803 N2805 1.384 . S
N2804 C2800 1.427 . S
N2804 C2801 1.384 . S
N2805 C2797 1.427 . S
N2805 C2803 1.384 . S
H2806 C2812 0.930 . S
H2807 C2816 0.930 . S
H2808 C2821 0.929 . S
H2809 C2819 0.929 . S
H2810 C2814 0.929 . S
H2811 C2820 0.929 . S
C2812 H2806 0.930 . S
C2812 C2813 1.367 . S
C2812 C2820 1.378 . S
C2813 C2812 1.367 . S
C2813 C2821 1.433 . S
C2814 H2810 0.929 . S
C2814 C2816 1.378 . S
C2814 C2818 1.350 . S
C2815 C2818 1.463 . S
C2815 C2820 1.350 . S
C2815 N2823 1.427 . S
C2816 H2807 0.930 . S
C2816 C2814 1.378 . S
C2816 C2817 1.367 . S
C2817 C2816 1.367 . S
C2817 C2819 1.433 . S
C2818 C2814 1.350 . S
C2818 C2815 1.463 . S
C2818 N2822 1.427 . S
C2819 H2809 0.929 . S
C2819 C2817 1.433 . S
C2819 N2822 1.384 . S
C2820 H2811 0.929 . S
C2820 C2812 1.378 . S
C2820 C2815 1.350 . S
C2821 H2808 0.929 . S
C2821 C2813 1.433 . S
C2821 N2823 1.384 . S
N2822 C2818 1.427 . S
N2822 C2819 1.384 . S
N2823 C2815 1.427 . S
N2823 C2821 1.384 . S
H2824 C2830 0.930 . S
H2825 C2834 0.930 . S
H2826 C2839 0.929 . S
H2827 C2837 0.929 . S
H2828 C2832 0.929 . S
H2829 C2838 0.929 . S
C2830 H2824 0.930 . S
C2830 C2831 1.367 . S
C2830 C2838 1.378 . S
C2831 C2830 1.367 . S
C2831 C2839 1.433 . S
C2832 H2828 0.929 . S
C2832 C2834 1.378 . S
C2832 C2836 1.350 . S
C2833 C2836 1.463 . S
C2833 C2838 1.350 . S
C2833 N2841 1.427 . S
C2834 H2825 0.930 . S
C2834 C2832 1.378 . S
C2834 C2835 1.367 . S
C2835 C2834 1.367 . S
C2835 C2837 1.433 . S
C2836 C2832 1.350 . S
C2836 C2833 1.463 . S
C2836 N2840 1.427 . S
C2837 H2827 0.929 . S
C2837 C2835 1.433 . S
C2837 N2840 1.384 . S
C2838 H2829 0.929 . S
C2838 C2830 1.378 . S
C2838 C2833 1.350 . S
C2839 H2826 0.929 . S
C2839 C2831 1.433 . S
C2839 N2841 1.384 . S
N2840 C2836 1.427 . S
N2840 C2837 1.384 . S
N2841 C2833 1.427 . S
N2841 C2839 1.384 . S
H2842 C2848 0.930 1_455 S
H2843 C2852 0.930 . S
H2844 C2857 0.929 . S
H2845 C2855 0.929 . S
H2846 C2850 0.929 . S
H2847 C2856 0.929 . S
C2848 H2842 0.930 1_655 S
C2848 C2849 1.367 . S
C2848 C2856 1.378 . S
C2849 C2848 1.367 . S
C2849 C2857 1.433 . S
C2850 H2846 0.929 . S
C2850 C2852 1.378 . S
C2850 C2854 1.350 . S
C2851 C2854 1.463 . S
C2851 C2856 1.350 . S
C2851 N2859 1.427 . S
C2852 H2843 0.930 . S
C2852 C2850 1.378 . S
C2852 C2853 1.367 . S
C2853 C2852 1.367 . S
C2853 C2855 1.433 . S
C2854 C2850 1.350 . S
C2854 C2851 1.463 . S
C2854 N2858 1.427 . S
C2855 H2845 0.929 . S
C2855 C2853 1.433 . S
C2855 N2858 1.384 . S
C2856 H2847 0.929 . S
C2856 C2848 1.378 . S
C2856 C2851 1.350 . S
C2857 H2844 0.929 . S
C2857 C2849 1.433 . S
C2857 N2859 1.384 . S
N2858 C2854 1.427 . S
N2858 C2855 1.384 . S
N2859 C2851 1.427 . S
N2859 C2857 1.384 . S
H2860 C2866 0.930 . S
H2861 C2870 0.930 . S
H2862 C2875 0.929 . S
H2863 C2873 0.929 . S
H2864 C2868 0.929 . S
H2865 C2874 0.929 . S
C2866 H2860 0.930 . S
C2866 C2867 1.367 . S
C2866 C2874 1.378 . S
C2867 C2866 1.367 . S
C2867 C2875 1.433 . S
C2868 H2864 0.929 . S
C2868 C2870 1.378 . S
C2868 C2872 1.350 . S
C2869 C2872 1.463 . S
C2869 C2874 1.350 . S
C2869 N2877 1.427 . S
C2870 H2861 0.930 . S
C2870 C2868 1.378 . S
C2870 C2871 1.367 . S
C2871 C2870 1.367 . S
C2871 C2873 1.433 . S
C2872 C2868 1.350 . S
C2872 C2869 1.463 . S
C2872 N2876 1.427 . S
C2873 H2863 0.929 . S
C2873 C2871 1.433 . S
C2873 N2876 1.384 . S
C2874 H2865 0.929 . S
C2874 C2866 1.378 . S
C2874 C2869 1.350 . S
C2875 H2862 0.929 . S
C2875 C2867 1.433 . S
C2875 N2877 1.384 . S
N2876 C2872 1.427 . S
N2876 C2873 1.384 . S
N2877 C2869 1.427 . S
N2877 C2875 1.384 . S
H2878 C2884 0.930 . S
H2879 C2888 0.930 . S
H2880 C2893 0.929 . S
H2881 C2891 0.929 . S
H2882 C2886 0.929 . S
H2883 C2892 0.929 . S
C2884 H2878 0.930 . S
C2884 C2885 1.367 . S
C2884 C2892 1.378 . S
C2885 C2884 1.367 . S
C2885 C2893 1.433 . S
C2886 H2882 0.929 . S
C2886 C2888 1.378 . S
C2886 C2890 1.350 . S
C2887 C2890 1.463 . S
C2887 C2892 1.350 . S
C2887 N2895 1.427 . S
C2888 H2879 0.930 . S
C2888 C2886 1.378 . S
C2888 C2889 1.367 . S
C2889 C2888 1.367 . S
C2889 C2891 1.433 . S
C2890 C2886 1.350 . S
C2890 C2887 1.463 . S
C2890 N2894 1.427 . S
C2891 H2881 0.929 . S
C2891 C2889 1.433 . S
C2891 N2894 1.384 . S
C2892 H2883 0.929 . S
C2892 C2884 1.378 . S
C2892 C2887 1.350 . S
C2893 H2880 0.929 . S
C2893 C2885 1.433 . S
C2893 N2895 1.384 . S
N2894 C2890 1.427 . S
N2894 C2891 1.384 . S
N2895 C2887 1.427 . S
N2895 C2893 1.384 . S
H2896 C2902 0.930 . S
H2897 C2906 0.930 . S
H2898 C2911 0.929 . S
H2899 C2909 0.929 . S
H2900 C2904 0.929 . S
H2901 C2910 0.929 . S
C2902 H2896 0.930 . S
C2902 C2903 1.367 . S
C2902 C2910 1.378 . S
C2903 C2902 1.367 . S
C2903 C2911 1.433 . S
C2904 H2900 0.929 . S
C2904 C2906 1.378 . S
C2904 C2908 1.350 . S
C2905 C2908 1.463 . S
C2905 C2910 1.350 . S
C2905 N2913 1.427 . S
C2906 H2897 0.930 . S
C2906 C2904 1.378 . S
C2906 C2907 1.367 . S
C2907 C2906 1.367 . S
C2907 C2909 1.433 . S
C2908 C2904 1.350 . S
C2908 C2905 1.463 . S
C2908 N2912 1.427 . S
C2909 H2899 0.929 . S
C2909 C2907 1.433 . S
C2909 N2912 1.384 . S
C2910 H2901 0.929 . S
C2910 C2902 1.378 . S
C2910 C2905 1.350 . S
C2911 H2898 0.929 . S
C2911 C2903 1.433 . S
C2911 N2913 1.384 . S
N2912 C2908 1.427 . S
N2912 C2909 1.384 . S
N2913 C2905 1.427 . S
N2913 C2911 1.384 . S
H2914 C2920 0.930 . S
H2915 C2924 0.930 . S
H2916 C2929 0.929 . S
H2917 C2927 0.929 . S
H2918 C2922 0.929 . S
H2919 C2928 0.929 . S
C2920 H2914 0.930 . S
C2920 C2921 1.367 . S
C2920 C2928 1.378 . S
C2921 C2920 1.367 . S
C2921 C2929 1.433 . S
C2922 H2918 0.929 . S
C2922 C2924 1.378 . S
C2922 C2926 1.350 . S
C2923 C2926 1.463 . S
C2923 C2928 1.350 . S
C2923 N2931 1.427 . S
C2924 H2915 0.930 . S
C2924 C2922 1.378 . S
C2924 C2925 1.367 . S
C2925 C2924 1.367 . S
C2925 C2927 1.433 . S
C2926 C2922 1.350 . S
C2926 C2923 1.463 . S
C2926 N2930 1.427 . S
C2927 H2917 0.929 . S
C2927 C2925 1.433 . S
C2927 N2930 1.384 . S
C2928 H2919 0.929 . S
C2928 C2920 1.378 . S
C2928 C2923 1.350 . S
C2929 H2916 0.929 . S
C2929 C2921 1.433 . S
C2929 N2931 1.384 . S
N2930 C2926 1.427 . S
N2930 C2927 1.384 . S
N2931 C2923 1.427 . S
N2931 C2929 1.384 . S
H2932 C2938 0.930 . S
H2933 C2942 0.930 . S
H2934 C2947 0.929 . S
H2935 C2945 0.929 . S
H2936 C2940 0.929 . S
H2937 C2946 0.929 . S
C2938 H2932 0.930 . S
C2938 C2939 1.367 . S
C2938 C2946 1.378 . S
C2939 C2938 1.367 . S
C2939 C2947 1.433 . S
C2940 H2936 0.929 . S
C2940 C2942 1.378 . S
C2940 C2944 1.350 . S
C2941 C2944 1.463 . S
C2941 C2946 1.350 . S
C2941 N2949 1.427 . S
C2942 H2933 0.930 . S
C2942 C2940 1.378 . S
C2942 C2943 1.367 . S
C2943 C2942 1.367 . S
C2943 C2945 1.433 . S
C2944 C2940 1.350 . S
C2944 C2941 1.463 . S
C2944 N2948 1.427 . S
C2945 H2935 0.929 . S
C2945 C2943 1.433 . S
C2945 N2948 1.384 . S
C2946 H2937 0.929 . S
C2946 C2938 1.378 . S
C2946 C2941 1.350 . S
C2947 H2934 0.929 . S
C2947 C2939 1.433 . S
C2947 N2949 1.384 . S
N2948 C2944 1.427 . S
N2948 C2945 1.384 . S
N2949 C2941 1.427 . S
N2949 C2947 1.384 . S
H2950 C2956 0.930 . S
H2951 C2960 0.930 . S
H2952 C2965 0.929 . S
H2953 C2963 0.929 . S
H2954 C2958 0.929 . S
H2955 C2964 0.929 . S
C2956 H2950 0.930 . S
C2956 C2957 1.367 . S
C2956 C2964 1.378 . S
C2957 C2956 1.367 . S
C2957 C2965 1.433 . S
C2958 H2954 0.929 . S
C2958 C2960 1.378 . S
C2958 C2962 1.350 . S
C2959 C2962 1.463 . S
C2959 C2964 1.350 . S
C2959 N2967 1.427 . S
C2960 H2951 0.930 . S
C2960 C2958 1.378 . S
C2960 C2961 1.367 . S
C2961 C2960 1.367 . S
C2961 C2963 1.433 . S
C2962 C2958 1.350 . S
C2962 C2959 1.463 . S
C2962 N2966 1.427 . S
C2963 H2953 0.929 . S
C2963 C2961 1.433 . S
C2963 N2966 1.384 . S
C2964 H2955 0.929 . S
C2964 C2956 1.378 . S
C2964 C2959 1.350 . S
C2965 H2952 0.929 . S
C2965 C2957 1.433 . S
C2965 N2967 1.384 . S
N2966 C2962 1.427 . S
N2966 C2963 1.384 . S
N2967 C2959 1.427 . S
N2967 C2965 1.384 . S
H2968 C2974 0.930 . S
H2969 C2978 0.930 . S
H2970 C2983 0.929 . S
H2971 C2981 0.929 . S
H2972 C2976 0.929 . S
H2973 C2982 0.929 . S
C2974 H2968 0.930 . S
C2974 C2975 1.367 . S
C2974 C2982 1.378 . S
C2975 C2974 1.367 . S
C2975 C2983 1.433 . S
C2976 H2972 0.929 . S
C2976 C2978 1.378 . S
C2976 C2980 1.350 . S
C2977 C2980 1.463 . S
C2977 C2982 1.350 . S
C2977 N2985 1.427 . S
C2978 H2969 0.930 . S
C2978 C2976 1.378 . S
C2978 C2979 1.367 . S
C2979 C2978 1.367 . S
C2979 C2981 1.433 . S
C2980 C2976 1.350 . S
C2980 C2977 1.463 . S
C2980 N2984 1.427 . S
C2981 H2971 0.929 . S
C2981 C2979 1.433 . S
C2981 N2984 1.384 . S
C2982 H2973 0.929 . S
C2982 C2974 1.378 . S
C2982 C2977 1.350 . S
C2983 H2970 0.929 . S
C2983 C2975 1.433 . S
C2983 N2985 1.384 . S
N2984 C2980 1.427 . S
N2984 C2981 1.384 . S
N2985 C2977 1.427 . S
N2985 C2983 1.384 . S
H2986 C2992 0.930 . S
H2987 C2996 0.930 . S
H2988 C3001 0.929 . S
H2989 C2999 0.929 1_655 S
H2990 C2994 0.929 . S
H2991 C3000 0.929 . S
C2992 H2986 0.930 . S
C2992 C2993 1.367 . S
C2992 C3000 1.378 . S
C2993 C2992 1.367 . S
C2993 C3001 1.433 . S
C2994 H2990 0.929 . S
C2994 C2996 1.378 . S
C2994 C2998 1.350 . S
C2995 C2998 1.463 . S
C2995 C3000 1.350 . S
C2995 N3003 1.427 . S
C2996 H2987 0.930 . S
C2996 C2994 1.378 . S
C2996 C2997 1.367 . S
C2997 C2996 1.367 . S
C2997 C2999 1.433 . S
C2998 C2994 1.350 . S
C2998 C2995 1.463 . S
C2998 N3002 1.427 . S
C2999 H2989 0.929 1_455 S
C2999 C2997 1.433 . S
C2999 N3002 1.384 . S
C3000 H2991 0.929 . S
C3000 C2992 1.378 . S
C3000 C2995 1.350 . S
C3001 H2988 0.929 . S
C3001 C2993 1.433 . S
C3001 N3003 1.384 . S
N3002 C2998 1.427 . S
N3002 C2999 1.384 . S
N3003 C2995 1.427 . S
N3003 C3001 1.384 . S
H3004 C3010 0.930 . S
H3005 C3014 0.930 . S
H3006 C3019 0.929 . S
H3007 C3017 0.929 . S
H3008 C3012 0.929 . S
H3009 C3018 0.929 . S
C3010 H3004 0.930 . S
C3010 C3011 1.367 . S
C3010 C3018 1.378 . S
C3011 C3010 1.367 . S
C3011 C3019 1.433 . S
C3012 H3008 0.929 . S
C3012 C3014 1.378 . S
C3012 C3016 1.350 . S
C3013 C3016 1.463 . S
C3013 C3018 1.350 . S
C3013 N3021 1.427 . S
C3014 H3005 0.930 . S
C3014 C3012 1.378 . S
C3014 C3015 1.367 . S
C3015 C3014 1.367 . S
C3015 C3017 1.433 . S
C3016 C3012 1.350 . S
C3016 C3013 1.463 . S
C3016 N3020 1.427 . S
C3017 H3007 0.929 . S
C3017 C3015 1.433 . S
C3017 N3020 1.384 . S
C3018 H3009 0.929 . S
C3018 C3010 1.378 . S
C3018 C3013 1.350 . S
C3019 H3006 0.929 . S
C3019 C3011 1.433 . S
C3019 N3021 1.384 . S
N3020 C3016 1.427 . S
N3020 C3017 1.384 . S
N3021 C3013 1.427 . S
N3021 C3019 1.384 . S
H3022 C3028 0.930 . S
H3023 C3032 0.930 . S
H3024 C3037 0.929 . S
H3025 C3035 0.929 . S
H3026 C3030 0.929 . S
H3027 C3036 0.929 . S
C3028 H3022 0.930 . S
C3028 C3029 1.367 . S
C3028 C3036 1.378 . S
C3029 C3028 1.367 . S
C3029 C3037 1.433 . S
C3030 H3026 0.929 . S
C3030 C3032 1.378 . S
C3030 C3034 1.350 . S
C3031 C3034 1.463 . S
C3031 C3036 1.350 . S
C3031 N3039 1.427 . S
C3032 H3023 0.930 . S
C3032 C3030 1.378 . S
C3032 C3033 1.367 . S
C3033 C3032 1.367 . S
C3033 C3035 1.433 . S
C3034 C3030 1.350 . S
C3034 C3031 1.463 . S
C3034 N3038 1.427 . S
C3035 H3025 0.929 . S
C3035 C3033 1.433 . S
C3035 N3038 1.384 . S
C3036 H3027 0.929 . S
C3036 C3028 1.378 . S
C3036 C3031 1.350 . S
C3037 H3024 0.929 . S
C3037 C3029 1.433 . S
C3037 N3039 1.384 . S
N3038 C3034 1.427 . S
N3038 C3035 1.384 . S
N3039 C3031 1.427 . S
N3039 C3037 1.384 . S
C1895 C241 1.610 . S
C1899 C5 1.608 . S
C1913 C300 1.609 . S
C1917 C64 1.606 . S
C1931 C359 1.610 . S
C1935 C123 1.608 . S
C1949 C182 1.608 . S
C1953 C418 1.605 . S
C1967 C477 1.608 . S
C1971 C713 1.610 . S
C1985 C772 1.606 . S
C1989 C536 1.609 . S
C2003 C595 1.606 . S
C2007 C831 1.606 . S
C2021 C890 1.608 . S
C2025 C654 1.605 . S
C2039 C949 1.606 . S
C2043 C1185 1.607 . S
C2057 C1244 1.609 . S
C2061 C1008 1.606 . S
C2075 C1303 1.609 . S
C2079 C1067 1.606 . S
C2093 C1362 1.610 . S
C2097 C1126 1.608 . S
C2111 C1421 1.608 . S
C2115 C1657 1.610 . S
C2129 C1480 1.609 . S
C2133 C1716 1.606 . S
C2147 C1539 1.606 . S
C2151 C1775 1.607 . S
C2165 C1598 1.606 . S
C2169 C1834 1.608 . S
C2183 C3 1.402 1_565 S
C2187 C416 1.404 . S
C2201 C62 1.405 . S
C2205 C239 1.407 1_545 S
C2219 C121 1.404 1_545 S
C2223 C298 1.402 . S
C2237 C357 1.403 1_565 S
C2241 C180 1.403 . S
C2255 C888 1.408 . S
C2259 C475 1.404 1_545 S
C2273 C711 1.402 1_565 S
C2277 C534 1.404 . S
C2291 C770 1.407 . S
C2295 C593 1.402 1_565 S
C2309 C652 1.402 . S
C2313 C829 1.404 1_545 S
C2327 C1360 1.405 . S
C2331 C947 1.407 . S
C2345 C1183 1.404 . S
C2349 C1006 1.408 . S
C2363 C1242 1.405 . S
C2367 C1065 1.407 . S
C2381 C1124 1.404 . S
C2385 C1301 1.402 . S
C2399 C1419 1.404 . S
C2403 C1832 1.402 . S
C2417 C1478 1.402 . S
C2421 C1655 1.404 . S
C2435 C1537 1.407 . S
C2439 C1714 1.402 . S
C2453 C1773 1.407 . S
C2457 C1596 1.405 . S
C2471 C52 1.594 . S
C2475 C1508 1.593 . S
C2489 C111 1.598 . S
C2493 C623 1.595 1_455 S
C2507 C170 1.596 . S
C2511 C1626 1.597 . S
C2525 C505 1.593 . S
C2529 C229 1.598 . S
C2543 C1862 1.594 . S
C2547 C288 1.594 . S
C2561 C347 1.594 . S
C2565 C741 1.596 . S
C2579 C406 1.596 . S
C2583 C1744 1.592 . S
C2597 C465 1.594 . S
C2601 C859 1.594 1_455 S
C2615 C1036 1.592 . S
C2619 C524 1.596 . S
C2633 C151 1.594 1_655 S
C2637 C583 1.598 . S
C2651 C1154 1.592 . S
C2655 C642 1.596 . S
C2669 C701 1.598 . S
C2673 C33 1.593 . S
C2687 C1390 1.596 . S
C2691 C760 1.595 . S
C2705 C269 1.594 . S
C2709 C819 1.598 . S
C2723 C1272 1.592 . S
C2727 C878 1.597 . S
C2741 C387 1.593 1_655 S
C2745 C937 1.594 . S
C2759 C564 1.593 . S
C2763 C996 1.598 . S
C2777 C1055 1.598 . S
C2781 C1567 1.594 . S
C2795 C1114 1.598 . S
C2799 C682 1.593 . S
C2813 C1173 1.598 . S
C2817 C1449 1.594 1_655 S
C2831 C1232 1.594 . S
C2835 C918 1.596 . S
C2849 C1685 1.592 1_655 S
C2853 C1291 1.594 . S
C2867 C1350 1.595 . S
C2871 C800 1.596 . S
C2885 C1409 1.598 . S
C2889 C1803 1.594 . S
C2903 C1468 1.596 . S
C2907 C92 1.592 . S
C2921 C1527 1.594 . S
C2925 C1095 1.593 . S
C2939 C210 1.592 . S
C2943 C1586 1.596 . S
C2957 C977 1.594 1_455 S
C2961 C1645 1.598 . S
C2975 C1704 1.596 . S
C2979 C446 1.592 . S
C2993 C1763 1.596 . S
C2997 C1213 1.596 1_455 S
C3011 C328 1.592 . S
C3015 C1822 1.597 . S
C3029 C1331 1.595 . S
C3033 C1881 1.594 . S
