# Generated by pormake.
# Topology swf, (7)-cn, num edge types: 1
# Building blocks:
#     Node 0, Type 0, BuildingBlock: HICVOG_clean_sbu_0, # of connection points: 7
#     Node 1, Type 0, BuildingBlock: HICVOG_clean_sbu_0, # of connection points: 7
#     Node 2, Type 0, BuildingBlock: HICVOG_clean_sbu_0, # of connection points: 7
#     Node 3, Type 0, BuildingBlock: HICVOG_clean_sbu_0, # of connection points: 7
#     Node 4, Type 0, BuildingBlock: HICVOG_clean_sbu_0, # of connection points: 7
#     Node 5, Type 0, BuildingBlock: HICVOG_clean_sbu_0, # of connection points: 7
#     Node 6, Type 0, BuildingBlock: HICVOG_clean_sbu_0, # of connection points: 7
#     Node 7, Type 0, BuildingBlock: HICVOG_clean_sbu_0, # of connection points: 7
#     Node 8, Type 0, BuildingBlock: HICVOG_clean_sbu_0, # of connection points: 7
#     Node 9, Type 0, BuildingBlock: HICVOG_clean_sbu_0, # of connection points: 7
#     Node 10, Type 0, BuildingBlock: HICVOG_clean_sbu_0, # of connection points: 7
#     Node 11, Type 0, BuildingBlock: HICVOG_clean_sbu_0, # of connection points: 7
#     Edge 12, Type (0, 0), BuildingBlock: XUDNAN_clean_linker_2, # of connection points: 2
#     Edge 13, Type (0, 0), BuildingBlock: XUDNAN_clean_linker_2, # of connection points: 2
#     Edge 14, Type (0, 0), BuildingBlock: XUDNAN_clean_linker_2, # of connection points: 2
#     Edge 15, Type (0, 0), BuildingBlock: XUDNAN_clean_linker_2, # of connection points: 2
#     Edge 16, Type (0, 0), BuildingBlock: XUDNAN_clean_linker_2, # of connection points: 2
#     Edge 17, Type (0, 0), BuildingBlock: XUDNAN_clean_linker_2, # of connection points: 2
#     Edge 18, Type (0, 0), BuildingBlock: XUDNAN_clean_linker_2, # of connection points: 2
#     Edge 19, Type (0, 0), BuildingBlock: XUDNAN_clean_linker_2, # of connection points: 2
#     Edge 20, Type (0, 0), BuildingBlock: XUDNAN_clean_linker_2, # of connection points: 2
#     Edge 21, Type (0, 0), BuildingBlock: XUDNAN_clean_linker_2, # of connection points: 2
#     Edge 22, Type (0, 0), BuildingBlock: XUDNAN_clean_linker_2, # of connection points: 2
#     Edge 23, Type (0, 0), BuildingBlock: XUDNAN_clean_linker_2, # of connection points: 2
#     Edge 24, Type (0, 0), BuildingBlock: XUDNAN_clean_linker_2, # of connection points: 2
#     Edge 25, Type (0, 0), BuildingBlock: XUDNAN_clean_linker_2, # of connection points: 2
#     Edge 26, Type (0, 0), BuildingBlock: XUDNAN_clean_linker_2, # of connection points: 2
#     Edge 27, Type (0, 0), BuildingBlock: XUDNAN_clean_linker_2, # of connection points: 2
#     Edge 28, Type (0, 0), BuildingBlock: XUDNAN_clean_linker_2, # of connection points: 2
#     Edge 29, Type (0, 0), BuildingBlock: XUDNAN_clean_linker_2, # of connection points: 2
#     Edge 30, Type (0, 0), BuildingBlock: XUDNAN_clean_linker_2, # of connection points: 2
#     Edge 31, Type (0, 0), BuildingBlock: XUDNAN_clean_linker_2, # of connection points: 2
#     Edge 32, Type (0, 0), BuildingBlock: XUDNAN_clean_linker_2, # of connection points: 2
#     Edge 33, Type (0, 0), BuildingBlock: XUDNAN_clean_linker_2, # of connection points: 2
#     Edge 34, Type (0, 0), BuildingBlock: XUDNAN_clean_linker_2, # of connection points: 2
#     Edge 35, Type (0, 0), BuildingBlock: XUDNAN_clean_linker_2, # of connection points: 2
#     Edge 36, Type (0, 0), BuildingBlock: XUDNAN_clean_linker_2, # of connection points: 2
#     Edge 37, Type (0, 0), BuildingBlock: XUDNAN_clean_linker_2, # of connection points: 2
#     Edge 38, Type (0, 0), BuildingBlock: XUDNAN_clean_linker_2, # of connection points: 2
#     Edge 39, Type (0, 0), BuildingBlock: XUDNAN_clean_linker_2, # of connection points: 2
#     Edge 40, Type (0, 0), BuildingBlock: XUDNAN_clean_linker_2, # of connection points: 2
#     Edge 41, Type (0, 0), BuildingBlock: XUDNAN_clean_linker_2, # of connection points: 2
#     Edge 42, Type (0, 0), BuildingBlock: XUDNAN_clean_linker_2, # of connection points: 2
#     Edge 43, Type (0, 0), BuildingBlock: XUDNAN_clean_linker_2, # of connection points: 2
#     Edge 44, Type (0, 0), BuildingBlock: XUDNAN_clean_linker_2, # of connection points: 2
#     Edge 45, Type (0, 0), BuildingBlock: XUDNAN_clean_linker_2, # of connection points: 2
#     Edge 46, Type (0, 0), BuildingBlock: XUDNAN_clean_linker_2, # of connection points: 2
#     Edge 47, Type (0, 0), BuildingBlock: XUDNAN_clean_linker_2, # of connection points: 2
#     Edge 48, Type (0, 0), BuildingBlock: XUDNAN_clean_linker_2, # of connection points: 2
#     Edge 49, Type (0, 0), BuildingBlock: XUDNAN_clean_linker_2, # of connection points: 2
#     Edge 50, Type (0, 0), BuildingBlock: XUDNAN_clean_linker_2, # of connection points: 2
#     Edge 51, Type (0, 0), BuildingBlock: XUDNAN_clean_linker_2, # of connection points: 2
#     Edge 52, Type (0, 0), BuildingBlock: XUDNAN_clean_linker_2, # of connection points: 2
#     Edge 53, Type (0, 0), BuildingBlock: XUDNAN_clean_linker_2, # of connection points: 2
# Relax obj value: 0.353
# Max RMSD: 0.195
# Mean RMSD: 0.195
data_MOF--net-swf--node1-HICVOG_clean_sbu_0--edge1-XUDNAN_clean_linker_2
_symmetry_space_group_name_H-M    P1
_symmetry_Int_Tables_number       1
_symmetry_cell_setting            triclinic
loop_
_symmetry_equiv_pos_as_xyz
'x, y, z'
_cell_length_a     46.807191
_cell_length_b     47.052934
_cell_length_c     24.387177
_cell_angle_alpha  90.568372
_cell_angle_beta   89.503202
_cell_angle_gamma 119.94939
loop_
_atom_site_label
_atom_site_type_symbol
_atom_site_fract_x
_atom_site_fract_y
_atom_site_fract_z
_atom_type_partial_charge
Zn0 Zn 0.44942 0.1407 0.96842 0.0
C1 C 0.47106 0.20428 0.09572 0.0
N2 N 0.47344 0.22518 1.0543 0.0
C3 C 0.46969 0.20782 1.00633 0.0
N4 N 0.46588 0.17798 1.01876 0.0
N5 N 0.467 0.17566 0.07291 0.0
C6 C 0.42192 0.08927 0.14823 0.0
O7 O 0.41459 0.08973 0.09646 0.0
O8 O 0.47243 0.15989 0.89708 0.0
Zn9 Zn 0.47705 0.14281 0.1052 0.0
N10 N 0.40201 0.12336 0.97086 0.0
C11 C 0.35585 0.11993 1.0196 0.0
C12 C 0.38976 0.13384 1.0125 0.0
C13 C 0.38133 0.09969 0.9356 0.0
N14 N 0.33522 0.09571 0.98521 0.0
C15 C 0.34713 0.08543 0.94324 0.0
O16 O 0.47942 0.10704 1.06024 0.0
C17 C 0.4722 0.09272 1.01398 0.0
O18 O 0.45979 0.1024 0.97725 0.0
H19 H 0.40585 0.15231 1.04122 0.0
H20 H 0.3914 0.09116 0.90347 0.0
C21 C 0.52982 0.18908 0.16796 0.0
C22 C 0.56266 0.21322 0.17623 0.0
C23 C 0.57782 0.19671 0.09398 0.0
C24 C 0.54507 0.17268 0.08608 0.0
N25 N 0.52191 0.16942 0.12346 0.0
N26 N 0.58588 0.21641 0.13889 0.0
H27 H 0.51042 0.18628 0.19554 0.0
C28 C 0.50324 0.17266 0.90575 0.0
O29 O 0.51314 0.17113 0.95533 0.0
O30 O 0.44757 0.11419 0.16742 0.0
H31 H 0.53803 0.15758 1.04951 0.0
H32 H 0.34601 0.1279 1.05285 0.0
H33 H 0.59661 0.1999 0.06456 0.0
Zn34 Zn 0.32462 0.44572 0.9827 0.0
C35 C 0.26972 0.45229 0.10456 0.0
N36 N 0.25089 0.453 1.06187 0.0
C37 C 0.26859 0.45495 1.01509 0.0
N38 N 0.29711 0.45587 1.02956 0.0
N39 N 0.29833 0.45482 0.08384 0.0
C40 C 0.34801 0.41089 0.14515 0.0
O41 O 0.3528 0.41264 0.09195 0.0
O42 O 0.32438 0.46352 0.90879 0.0
Zn43 Zn 0.34081 0.46675 0.12282 0.0
N44 N 0.30349 0.39852 0.98683 0.0
C45 C 0.2576 0.34846 1.01688 0.0
C46 C 0.27129 0.38119 1.00241 0.0
C47 C 0.32248 0.38426 0.98453 0.0
N48 N 0.27671 0.33435 1.01558 0.0
C49 C 0.30901 0.35118 1.00011 0.0
O50 O 0.38667 0.48462 0.08321 0.0
C51 C 0.39633 0.4804 1.03627 0.0
O52 O 0.37511 0.46583 0.99838 0.0
H53 H 0.25654 0.39283 1.00582 0.0
H54 H 0.34785 0.39932 0.97225 0.0
C55 C 0.33983 0.49494 0.22486 0.0
C56 C 0.33232 0.51498 0.25747 0.0
C57 C 0.33969 0.5483 0.18017 0.0
C58 C 0.34558 0.52734 0.1474 0.0
N59 N 0.34502 0.5009 0.17044 0.0
N60 N 0.33266 0.54135 0.23416 0.0
H61 H 0.33874 0.47316 0.24127 0.0
C62 C 0.33853 0.49454 0.91424 0.0
O63 O 0.34845 0.50743 0.96329 0.0
O64 O 0.34013 0.4304 0.16806 0.0
H65 H 0.3488 0.531 0.10356 0.0
H66 H 0.23211 0.33445 1.02984 0.0
H67 H 0.3395 0.56923 0.16257 0.0
Zn68 Zn 0.89067 0.3208 0.99034 0.0
C69 C 0.81829 0.26204 0.0974 0.0
N70 N 0.8034 0.24421 1.05045 0.0
C71 C 0.82201 0.26327 1.00733 0.0
N72 N 0.84801 0.29153 1.02806 0.0
N73 N 0.84542 0.29121 0.08271 0.0
C74 C 0.91811 0.33427 0.19121 0.0
O75 O 0.92911 0.33564 0.14102 0.0
O76 O 0.88067 0.32287 0.91015 0.0
Zn77 Zn 0.86915 0.33303 0.1248 0.0
N78 N 0.91635 0.29962 1.00657 0.0
C79 C 0.91979 0.25725 1.05367 0.0
C80 C 0.90126 0.27046 1.03362 0.0
C81 C 0.94949 0.31591 0.99852 0.0
N82 N 0.9528 0.27347 1.04555 0.0
C83 C 0.96847 0.30254 1.01852 0.0
O84 O 0.91039 0.37496 0.09497 0.0
C85 C 0.92808 0.38854 1.05282 0.0
O86 O 0.92214 0.37171 1.00871 0.0
H87 H 0.87506 0.25746 1.04067 0.0
H88 H 0.96042 0.33875 0.97637 0.0
C89 C 0.8119 0.34152 0.15635 0.0
C90 C 0.7877 0.34908 0.1398 0.0
C91 C 0.81415 0.36647 1.0536 0.0
C92 C 0.83831 0.35958 0.0704 0.0
N93 N 0.83675 0.34701 0.12105 0.0
N94 N 0.78964 0.36148 0.08888 0.0
H95 H 0.8115 0.33257 0.19711 0.0
C96 C 0.85868 0.3312 0.90833 0.0
O97 O 0.845 0.33311 0.95426 0.0
O98 O 0.88887 0.32951 0.19806 0.0
H99 H 0.85795 0.3635 1.04265 0.0
H100 H 0.90804 0.23422 0.07546 0.0
H101 H 0.81513 0.37619 1.01316 0.0
Zn102 Zn 0.53399 0.8688 0.10455 0.0
C103 C 0.54254 0.8035 0.99976 0.0
N104 N 0.54131 0.78711 1.04707 0.0
C105 C 0.54329 0.80768 0.08949 0.0
N106 N 0.5446 0.83539 0.0682 0.0
N107 N 0.54431 0.83251 1.01362 0.0
C108 C 0.51208 0.83415 0.88522 0.0
O109 O 0.49506 0.82447 0.93115 0.0
O110 O 0.56309 0.89817 0.16915 0.0
Zn111 Zn 0.55541 0.86933 0.96494 0.0
N112 N 0.48765 0.8416 0.12218 0.0
C113 C 0.43238 0.82339 0.0951 0.0
C114 C 0.46583 0.84619 0.0924 0.0
C115 C 0.47713 0.81498 0.1549 0.0
N116 N 0.42194 0.7969 0.12773 0.0
C117 C 0.44328 0.7918 0.15799 0.0
O118 O 0.53351 0.89804 0.97247 0.0
C119 C 0.52998 0.91363 1.01238 0.0
O120 O 0.53313 0.90627 1.06106 0.0
H121 H 0.47412 0.86665 0.06503 0.0
H122 H 0.49504 0.81171 0.17704 0.0
C123 C 0.61319 0.93047 0.97914 0.0
C124 C 0.64554 0.95176 0.99689 0.0
C125 C 0.65395 0.9062 1.00466 0.0
C126 C 0.62157 0.88518 0.9881 0.0
N127 N 0.60192 0.89781 0.97554 0.0
N128 N 0.66519 0.93892 1.00859 0.0
H129 H 0.59692 0.93951 0.96793 0.0
C130 C 0.55668 0.9199 0.1881 0.0
O131 O 0.52936 0.91881 0.17243 0.0
O132 O 0.54301 0.85358 0.88794 0.0
H133 H 0.61193 0.85899 0.9868 0.0
H134 H 0.41482 0.82658 0.07123 0.0
H135 H 0.66994 0.89658 1.01484 0.0
Zn136 Zn 0.7069 0.56746 0.97885 0.0
C137 C 0.75935 0.55473 0.09965 0.0
N138 N 0.77947 0.55681 1.05601 0.0
C139 C 0.7632 0.55762 1.00951 0.0
N140 N 0.73463 0.55678 1.02514 0.0
N141 N 0.73157 0.55431 0.07956 0.0
C142 C 0.68558 0.59266 0.1643 0.0
O143 O 0.69358 0.60106 0.11281 0.0
O144 O 0.70684 0.55122 0.90266 0.0
Zn145 Zn 0.68635 0.53937 0.1148 0.0
N146 N 0.72555 0.61421 0.98709 0.0
C147 C 0.76284 0.66406 1.03226 0.0
C148 C 0.75309 0.63181 1.01791 0.0
C149 C 0.70716 0.62744 0.97058 0.0
N150 N 0.74422 0.67716 1.01642 0.0
C151 C 0.71629 0.65978 0.98625 0.0
O152 O 0.64512 0.53563 0.07614 0.0
C153 C 0.6355 0.53847 1.02909 0.0
O154 O 0.65611 0.54831 0.98955 0.0
H155 H 0.76692 0.62075 1.03273 0.0
H156 H 0.68548 0.61231 0.94645 0.0
C157 C 0.67223 0.47799 0.16849 0.0
C158 C 0.66825 0.44635 0.16366 0.0
C159 C 0.65834 0.44644 0.06834 0.0
C160 C 0.66349 0.47808 0.07317 0.0
N161 N 0.67096 0.49344 0.12276 0.0
N162 N 0.66117 0.43151 0.11344 0.0
H163 H 0.67661 0.49054 0.20736 0.0
C164 C 0.69987 0.5214 0.90406 0.0
O165 O 0.69953 0.50836 0.9515 0.0
O166 O 0.68465 0.56653 0.18083 0.0
H167 H 0.66264 0.4909 1.03731 0.0
H168 H 0.78467 0.67838 1.05676 0.0
H169 H 0.65278 0.43408 1.02896 0.0
Zn170 Zn 0.17021 0.68929 0.10334 0.0
C171 C 0.19809 0.75839 0.98912 0.0
N172 N 0.21644 0.77911 1.03122 0.0
C173 C 0.20424 0.761 0.07877 0.0
N174 N 0.17947 0.7301 0.06548 0.0
N175 N 0.17478 0.72899 1.01148 0.0
C176 C 0.17233 0.67014 0.92916 0.0
O177 O 0.17724 0.67233 0.98227 0.0
O178 O 0.15197 0.68593 0.18126 0.0
Zn179 Zn 0.13534 0.69156 0.97605 0.0
N180 N 0.21186 0.68917 0.09176 0.0
C181 C 0.26259 0.7095 1.04186 0.0
C182 C 0.23491 0.7115 1.0567 0.0
C183 C 0.21574 0.66462 0.11187 0.0
N184 N 0.26634 0.6849 1.06187 0.0
C185 C 0.24351 0.66211 0.09599 0.0
O186 O 0.10615 0.64405 1.00808 0.0
C187 C 0.10862 0.62769 1.04708 0.0
O188 O 0.13229 0.64247 0.0809 0.0
H189 H 0.23176 0.73014 1.03784 0.0
H190 H 0.19727 0.64742 0.13983 0.0
C191 C 0.0719 0.68475 0.9777 0.0
C192 C 0.04909 0.6949 0.99166 0.0
C193 C 0.09201 0.75036 0.98545 0.0
C194 C 0.11463 0.74005 0.97408 0.0
N195 N 0.10416 0.7074 0.97014 0.0
N196 N 0.05996 0.72766 0.99433 0.0
H197 H 0.0646 0.65917 0.97405 0.0
C198 C 0.12699 0.68991 0.1861 0.0
O199 O 0.12012 0.70372 0.14565 0.0
O200 O 0.1524 0.67848 0.90987 0.0
H201 H 0.14043 0.75807 0.97095 0.0
H202 H 0.28075 0.72711 1.01396 0.0
H203 H 0.10002 0.77621 0.98874 0.0
Zn204 Zn 0.88065 0.53482 0.4899 0.0
C205 C 0.82312 0.55392 0.5976 0.0
N206 N 0.80803 0.55674 0.55185 0.0
C207 C 0.82433 0.55293 0.50739 0.0
N208 N 0.84982 0.54869 0.52619 0.0
N209 N 0.84835 0.54911 0.58125 0.0
C210 C 0.8351 0.47606 0.65482 0.0
O211 O 0.82677 0.47401 0.60311 0.0
O212 O 0.90202 0.55466 0.41588 0.0
Zn213 Zn 0.8774 0.546 0.63508 0.0
N214 N 0.85507 0.48773 0.48458 0.0
C215 C 0.84694 0.4356 0.51074 0.0
C216 C 0.86592 0.4696 0.51115 0.0
C217 C 0.82605 0.47313 0.45716 0.0
N218 N 0.81839 0.42098 0.48221 0.0
C219 C 0.80738 0.43869 0.45477 0.0
O220 O 0.92041 0.54612 0.6157 0.0
C221 C 0.93556 0.54347 0.57413 0.0
O222 O 0.92345 0.54091 0.52668 0.0
H223 H 0.88867 0.48121 0.53378 0.0
H224 H 0.8181 0.48832 0.43687 0.0
C225 C 0.88575 0.57638 0.73943 0.0
C226 C 0.8923 0.60241 0.77543 0.0
C227 C 0.90262 0.63707 0.69848 0.0
C228 C 0.89705 0.61141 0.66331 0.0
N229 N 0.88855 0.58165 0.68458 0.0
N230 N 0.90039 0.63205 0.75338 0.0
H231 H 0.87824 0.55205 0.75397 0.0
C232 C 0.92558 0.58432 0.41364 0.0
O233 O 0.92978 0.60408 0.45504 0.0
O234 O 0.85323 0.50408 0.67645 0.0
H235 H 0.89861 0.6148 0.61935 0.0
H236 H 0.85504 0.42089 0.53224 0.0
H237 H 0.90897 0.66087 0.68244 0.0
Zn238 Zn 0.34156 0.8568 0.47086 0.0
C239 C 0.26474 0.81474 0.57807 0.0
N240 N 0.24729 0.80001 0.53078 0.0
C241 C 0.2689 0.81521 0.48812 0.0
N242 N 0.29857 0.83841 0.50898 0.0
N243 N 0.29625 0.83841 0.56363 0.0
C244 C 0.34304 0.83583 0.67622 0.0
O245 O 0.3229 0.81177 0.64391 0.0
O246 O 0.34053 0.87193 0.39262 0.0
Zn247 Zn 0.32938 0.87679 0.60725 0.0
N248 N 0.35303 0.82335 0.48326 0.0
C249 C 0.37172 0.80241 0.55458 0.0
C250 C 0.36401 0.8255 0.53542 0.0
C251 C 0.34916 0.79866 0.44918 0.0
N252 N 0.36896 0.77841 0.52027 0.0
C253 C 0.35775 0.77572 0.46816 0.0
O254 O 0.37736 0.91243 0.58152 0.0
C255 C 0.39537 0.91751 0.5392 0.0
O256 O 0.38342 0.8982 0.49838 0.0
H257 H 0.36644 0.84503 0.56211 0.0
H258 H 0.34085 0.7977 0.40755 0.0
C259 C 0.29908 0.91151 0.66164 0.0
C260 C 0.28147 0.92841 0.65823 0.0
C261 C 0.27866 0.92187 0.56178 0.0
C262 C 0.29654 0.90566 0.56506 0.0
N263 N 0.30647 0.90085 0.61468 0.0
N264 N 0.27192 0.93329 0.60836 0.0
H265 H 0.30778 0.90795 0.70052 0.0
C266 C 0.34412 0.90067 0.39637 0.0
O267 O 0.34254 0.9119 0.44512 0.0
O268 O 0.34384 0.8632 0.67449 0.0
H269 H 0.30245 0.89683 0.52814 0.0
H270 H 0.38051 0.8039 0.59593 0.0
H271 H 0.27069 0.92585 0.52253 0.0
Zn272 Zn 0.46468 0.32259 0.62921 0.0
C273 C 0.46787 0.26394 0.5068 0.0
N274 N 0.46541 0.24511 0.55174 0.0
C275 C 0.466 0.26308 0.59685 0.0
N276 N 0.4684 0.29164 0.57953 0.0
N277 N 0.46995 0.29279 0.52492 0.0
C278 C 0.44172 0.3288 0.41569 0.0
O279 O 0.42756 0.32495 0.4639 0.0
O280 O 0.50347 0.34077 0.67895 0.0
Zn281 Zn 0.48718 0.33661 0.49057 0.0
N282 N 0.4246 0.2954 0.66791 0.0
C283 C 0.36919 0.25177 0.66306 0.0
C284 C 0.39861 0.2736 0.63727 0.0
C285 C 0.42258 0.29641 0.72331 0.0
N286 N 0.36678 0.25325 0.71832 0.0
C287 C 0.39257 0.27518 0.74951 0.0
O288 O 0.4794 0.37483 0.51759 0.0
C289 C 0.47103 0.3832 0.56194 0.0
O290 O 0.46383 0.36459 0.60359 0.0
H291 H 0.40098 0.27298 0.59317 0.0
H292 H 0.4442 0.31344 0.74615 0.0
C293 C 0.55542 0.35349 0.47256 0.0
C294 C 0.5879 0.36578 0.49098 0.0
C295 C 0.57453 0.38263 0.57429 0.0
C296 C 0.54234 0.3703 0.556 0.0
N297 N 0.53348 0.35625 0.50535 0.0
N298 N 0.59673 0.38044 0.54112 0.0
H299 H 0.54788 0.34262 0.43226 0.0
C300 C 0.51174 0.36766 0.70346 0.0
O301 O 0.49195 0.37988 0.70241 0.0
O302 O 0.47045 0.33202 0.413 0.0
H303 H 0.52435 0.37149 0.58234 0.0
H304 H 0.34831 0.23406 0.6394 0.0
H305 H 0.58186 0.39401 0.61433 0.0
Zn306 Zn 0.16022 0.47206 0.49393 0.0
C307 C 0.21085 0.45066 0.60529 0.0
N308 N 0.2265 0.44696 0.56031 0.0
C309 C 0.20963 0.44872 0.51541 0.0
N310 N 0.18446 0.45367 0.53335 0.0
N311 N 0.1856 0.4548 0.588 0.0
C312 C 0.18264 0.51688 0.6808 0.0
O313 O 0.17584 0.52097 0.63041 0.0
O314 O 0.13099 0.44285 0.43084 0.0
Zn315 Zn 0.1529 0.4544 0.63794 0.0
N316 N 0.19661 0.51388 0.47505 0.0
C317 C 0.24768 0.55924 0.50378 0.0
C318 C 0.21841 0.53064 0.51583 0.0
C319 C 0.20278 0.52444 0.42282 0.0
N320 N 0.25438 0.56944 0.45107 0.0
C321 C 0.23273 0.55273 0.41005 0.0
O322 O 0.11609 0.46406 0.61485 0.0
C323 C 0.10967 0.47726 0.57498 0.0
O324 O 0.12618 0.48314 0.53059 0.0
H325 H 0.21369 0.52117 0.557 0.0
H326 H 0.18508 0.50975 0.39189 0.0
C327 C 0.13086 0.40731 0.7233 0.0
C328 C 0.11786 0.37558 0.74444 0.0
C329 C 0.11162 0.3545 0.65375 0.0
C330 C 0.12372 0.38593 0.63304 0.0
N331 N 0.13297 0.41156 0.66828 0.0
N332 N 0.10878 0.35003 0.70882 0.0
H333 H 0.13958 0.42856 0.74985 0.0
C334 C 0.10466 0.4186 0.44965 0.0
O335 O 0.10287 0.41322 0.50268 0.0
O336 O 0.17607 0.48848 0.69588 0.0
H337 H 0.12637 0.39007 0.58929 0.0
H338 H 0.26537 0.5727 0.5357 0.0
H339 H 0.10435 0.3338 0.62638 0.0
Zn340 Zn 0.69361 0.14717 0.63086 0.0
C341 C 0.75962 0.19864 0.50693 0.0
N342 N 0.7811 0.21349 0.54994 0.0
C343 C 0.7627 0.19954 0.59684 0.0
N344 N 0.73127 0.17632 0.58195 0.0
N345 N 0.72939 0.17609 0.52732 0.0
C346 C 0.68148 0.11721 0.41786 0.0
O347 O 0.68781 0.10876 0.46546 0.0
O348 O 0.67789 0.17418 0.67196 0.0
Zn349 Zn 0.68709 0.16464 0.49257 0.0
N350 N 0.71375 0.13118 0.6805 0.0
C351 C 0.75448 0.11578 0.69173 0.0
C352 C 0.73637 0.12443 0.65801 0.0
C353 C 0.70791 0.12908 0.73536 0.0
N354 N 0.74838 0.11315 0.74635 0.0
C355 C 0.72537 0.11921 0.76978 0.0
O356 O 0.6446 0.12469 0.52186 0.0
C357 C 0.63174 0.10321 0.55944 0.0
O358 O 0.6487 0.10614 0.6022 0.0
H359 H 0.74074 0.12645 0.61424 0.0
H360 H 0.69 0.13518 0.75097 0.0
C361 C 0.66319 0.21231 0.47949 0.0
C362 C 0.66318 0.24151 0.49357 0.0
C363 C 0.7054 0.25496 0.55763 0.0
C364 C 0.70599 0.2267 0.54301 0.0
N365 N 0.68494 0.20547 0.50428 0.0
N366 N 0.68435 0.26204 0.53201 0.0
H367 H 0.64687 0.19586 0.44821 0.0
C368 C 0.65811 0.18084 0.64752 0.0
O369 O 0.6493 0.17025 0.59725 0.0
O370 O 0.6828 0.14501 0.41427 0.0
H371 H 0.72288 0.22199 0.56439 0.0
H372 H 0.77295 0.11079 0.67469 0.0
H373 H 0.72192 0.27143 0.58864 0.0
Zn374 Zn 0.51781 0.6706 0.47466 0.0
C375 C 0.53982 0.744 0.58778 0.0
N376 N 0.54391 0.7633 0.54333 0.0
C377 C 0.54118 0.7444 0.49766 0.0
N378 N 0.53527 0.71397 0.51464 0.0
N379 N 0.53476 0.71438 0.5695 0.0
C380 C 0.47144 0.65175 0.6477 0.0
O381 O 0.47206 0.64993 0.59404 0.0
O382 O 0.54508 0.6735 0.40531 0.0
Zn383 Zn 0.53609 0.68317 0.62047 0.0
N384 N 0.47149 0.65771 0.46459 0.0
C385 C 0.43058 0.67372 0.46674 0.0
C386 C 0.46292 0.68113 0.45752 0.0
C387 C 0.44854 0.6269 0.48045 0.0
N388 N 0.408 0.64322 0.48323 0.0
C389 C 0.4158 0.61929 0.49094 0.0
O390 O 0.53001 0.63804 0.59718 0.0
C391 C 0.51998 0.61841 0.5563 0.0
O392 O 0.5143 0.62802 0.51106 0.0
H393 H 0.48109 0.70594 0.44829 0.0
H394 H 0.45646 0.60942 0.48793 0.0
C395 C 0.5832 0.70653 0.70972 0.0
C396 C 0.61454 0.72759 0.73192 0.0
C397 C 0.63337 0.75184 0.64452 0.0
C398 C 0.60267 0.73036 0.62242 0.0
N399 N 0.57813 0.70845 0.65545 0.0
N400 N 0.63862 0.74986 0.6985 0.0
H401 H 0.56305 0.68902 0.73495 0.0
C402 C 0.5677 0.66634 0.41388 0.0
O403 O 0.57377 0.66176 0.46449 0.0
O404 O 0.49854 0.6685 0.67298 0.0
H405 H 0.59824 0.73147 0.57928 0.0
H406 H 0.42355 0.69224 0.4624 0.0
H407 H 0.653 0.76973 0.61894 0.0
H408 H 0.42815 0.07736 0.25742 0.0
H409 H 0.37763 0.02913 0.10685 0.0
H410 H 0.3537 0.97546 0.15204 0.0
H411 H 0.44732 0.01627 0.30004 0.0
H412 H 0.43971 0.01934 0.37183 0.0
H413 H 0.45303 0.05437 0.328 0.0
H414 H 0.40193 0.05887 0.35634 0.0
H415 H 0.38871 0.02415 0.40084 0.0
H416 H 0.36131 0.02362 0.34883 0.0
H417 H 0.33763 0.92584 0.21264 0.0
H418 H 0.32546 0.88591 0.2877 0.0
H419 H 0.3834 0.96664 0.3991 0.0
C420 C 0.41178 0.05556 0.23415 0.0
C421 C 0.40487 0.05767 0.17849 0.0
C422 C 0.3833 0.02839 0.14959 0.0
C423 C 0.36967 0.99762 0.17479 0.0
C424 C 0.37743 0.99631 0.22931 0.0
C425 C 0.39753 0.02455 0.25894 0.0
C426 C 0.40129 0.01638 0.31742 0.0
C427 C 0.43749 0.02724 0.33004 0.0
C428 C 0.38748 0.03165 0.35826 0.0
C429 C 0.38021 0.97928 0.31591 0.0
C430 C 0.36702 0.96801 0.26457 0.0
C431 C 0.34754 0.93444 0.25322 0.0
C432 C 0.34084 0.9119 0.29587 0.0
C433 C 0.35306 0.9232 0.34922 0.0
C434 C 0.37325 0.95729 0.35885 0.0
H435 H 0.35502 0.41201 0.25691 0.0
H436 H 0.36313 0.36486 0.10831 0.0
H437 H 0.38574 0.33647 0.16205 0.0
H438 H 0.42968 0.42764 0.31496 0.0
H439 H 0.41466 0.41974 0.38462 0.0
H440 H 0.39611 0.43388 0.33561 0.0
H441 H 0.33881 0.38354 0.35578 0.0
H442 H 0.35721 0.36941 0.40526 0.0
H443 H 0.33318 0.34283 0.34975 0.0
H444 H 0.41156 0.31644 0.23118 0.0
H445 H 0.43615 0.30488 0.31194 0.0
H446 H 0.41203 0.36569 0.41354 0.0
C447 C 0.36085 0.39516 0.23581 0.0
C448 C 0.35717 0.39056 0.17842 0.0
C449 C 0.36562 0.36869 0.15228 0.0
C450 C 0.37852 0.35247 0.18244 0.0
C451 C 0.38274 0.35828 0.23873 0.0
C452 C 0.37388 0.37889 0.26525 0.0
C453 C 0.38234 0.38218 0.32562 0.0
C454 C 0.40718 0.41799 0.34105 0.0
C455 C 0.35101 0.36867 0.36119 0.0
C456 C 0.3978 0.36064 0.32873 0.0
C457 C 0.39776 0.347 0.27826 0.0
C458 C 0.41172 0.32703 0.27085 0.0
C459 C 0.42609 0.32095 0.3163 0.0
C460 C 0.42651 0.33483 0.36793 0.0
C461 C 0.41188 0.35463 0.37428 0.0
H462 H 0.09432 0.42696 0.33992 0.0
H463 H 0.04581 0.36765 0.48312 0.0
H464 H 0.99337 0.33986 0.43319 0.0
H465 H 0.02775 0.4379 0.29778 0.0
H466 H 0.03347 0.43452 0.22532 0.0
H467 H 0.06809 0.44935 0.27107 0.0
H468 H 0.08013 0.40414 0.23653 0.0
H469 H 0.04579 0.38943 0.19014 0.0
H470 H 0.04783 0.36179 0.23854 0.0
H471 H 0.94468 0.32071 0.37031 0.0
H472 H 0.90496 0.30829 0.29468 0.0
H473 H 0.98432 0.37772 0.19113 0.0
C474 C 0.07279 0.40778 0.36045 0.0
C475 C 0.07443 0.39964 0.4157 0.0
C476 C 0.04546 0.37449 0.44097 0.0
C477 C 0.01536 0.35851 0.41297 0.0
C478 C 0.01435 0.36757 0.35922 0.0
C479 C 0.04235 0.39127 0.33281 0.0
C480 C 0.03423 0.39627 0.27476 0.0
C481 C 0.04131 0.43161 0.26679 0.0
C482 C 0.05311 0.38737 0.23249 0.0
C483 C 0.99741 0.37191 0.27308 0.0
C484 C 0.98638 0.35582 0.32241 0.0
C485 C 0.9531 0.33304 0.33135 0.0
C486 C 0.93057 0.32632 0.28854 0.0
C487 C 0.94138 0.34203 0.23741 0.0
C488 C 0.97531 0.36508 0.22976 0.0
H489 H 0.55042 0.97153 0.22831 0.0
H490 H 0.61845 0.93412 0.22292 0.0
H491 H 0.6597 0.98363 0.2729 0.0
H492 H 0.61074 0.05665 0.20884 0.0
H493 H 0.59157 0.0721 0.25557 0.0
H494 H 0.56674 0.03394 0.21967 0.0
H495 H 0.54322 1.00301 0.31068 0.0
H496 H 0.56653 0.04146 0.3464 0.0
H497 H 0.57119 0.00692 0.36445 0.0
H498 H 0.69308 0.03672 0.32596 0.0
H499 H 0.71428 0.08663 0.38356 0.0
H500 H 0.6253 0.09064 0.35372 0.0
C501 C 0.57393 0.97356 0.2378 0.0
C502 C 0.58102 0.9486 0.2216 0.0
C503 C 0.61224 0.95261 0.23487 0.0
C504 C 0.63593 0.98082 0.26303 0.0
C505 C 0.62823 0.00505 0.27767 0.0
C506 C 0.59786 1.00157 0.26587 0.0
C507 C 0.59544 0.03081 0.28738 0.0
C508 C 0.59087 0.04948 0.24002 0.0
C509 C 0.56744 0.01986 0.32977 0.0
C510 C 0.62905 0.05116 0.314 0.0
C511 C 0.64765 0.03592 0.30741 0.0
C512 C 0.67884 0.04897 0.33073 0.0
C513 C 0.69081 0.07751 0.3631 0.0
C514 C 0.67195 0.09313 0.37189 0.0
C515 C 0.64088 0.08006 0.34598 0.0
H516 H 0.65729 0.57794 0.26852 0.0
H517 H 0.68274 0.64695 0.13492 0.0
H518 H 0.65504 0.67281 0.18289 0.0
H519 H 0.57752 0.56715 0.29536 0.0
H520 H 0.57998 0.56527 0.36882 0.0
H521 H 0.60281 0.55247 0.32529 0.0
H522 H 0.65707 0.59355 0.37407 0.0
H523 H 0.63429 0.6061 0.41832 0.0
H524 H 0.66856 0.63622 0.3786 0.0
H525 H 0.62126 0.68946 0.24295 0.0
H526 H 0.58904 0.69858 0.31541 0.0
H527 H 0.5871 0.62052 0.41106 0.0
C528 C 0.65752 0.59882 0.24979 0.0
C529 C 0.67235 0.6103 0.19778 0.0
C530 C 0.6717 0.63757 0.17466 0.0
C531 C 0.65587 0.65246 0.20154 0.0
C532 C 0.64086 0.64013 0.252 0.0
C533 C 0.64195 0.61423 0.27634 0.0
C534 C 0.62378 0.60576 0.3309 0.0
C535 C 0.59428 0.57057 0.32999 0.0
C536 C 0.64734 0.61072 0.37827 0.0
C537 C 0.61239 0.63086 0.33328 0.0
C538 C 0.62215 0.65025 0.2871 0.0
C539 C 0.61363 0.67451 0.27945 0.0
C540 C 0.59505 0.67935 0.32044 0.0
C541 C 0.58549 0.66028 0.36862 0.0
C542 C 0.5943 0.63571 0.37479 0.0
H543 H 0.96298 0.64297 0.35993 0.0
H544 H 0.95257 0.54702 0.383 0.0
H545 H 1.00489 0.56487 0.33277 0.0
H546 H 0.99635 0.65321 0.21921 0.0
H547 H 0.02322 0.69677 0.22771 0.0
H548 H 0.98495 0.67611 0.26531 0.0
H549 H 0.01713 0.69905 0.35602 0.0
H550 H 0.05555 0.71916 0.31875 0.0
H551 H 0.04978 0.69089 0.37278 0.0
H552 H 0.06117 0.59502 0.28669 0.0
H553 H 0.11107 0.63107 0.23242 0.0
H554 H 0.08261 0.70576 0.23103 0.0
C555 C 0.97145 0.62558 0.35339 0.0
C556 C 0.95355 0.5935 0.37499 0.0
C557 C 0.96553 0.57149 0.36598 0.0
C558 C 0.99546 0.58156 0.33804 0.0
C559 C 0.01289 0.61355 0.31821 0.0
C560 C 1.00085 0.63494 0.32406 0.0
C561 C 0.02369 0.66749 0.29663 0.0
C562 C 1.006 0.67376 0.24941 0.0
C563 C 0.03734 0.69582 0.33856 0.0
C564 C 0.05071 0.66129 0.27527 0.0
C565 C 0.04432 0.63023 0.28907 0.0
C566 C 0.06622 0.61927 0.27525 0.0
C567 C 0.09476 0.64009 0.24494 0.0
C568 C 0.10092 0.67134 0.22773 0.0
C569 C 0.07869 0.68209 0.24383 0.0
H570 H 0.7593 0.10438 0.84267 0.0
H571 H 0.67266 0.11527 0.83186 0.0
H572 H 0.65294 0.08717 0.91886 0.0
H573 H 0.72131 0.02931 0.86329 0.0
H574 H 0.74826 0.02539 0.91125 0.0
H575 H 0.7645 0.05982 0.86663 0.0
H576 H 0.78604 0.09938 0.94997 0.0
H577 H 0.76985 0.06463 0.99535 0.0
H578 H 0.75818 0.09554 1.00462 0.0
H579 H 0.63266 0.04308 0.9849 0.0
H580 H 0.61312 0.98677 1.01521 0.0
H581 H 0.7091 0.99821 0.97896 0.0
C582 C 0.73679 0.10206 0.85957 0.0
C583 C 0.71752 0.11166 0.82908 0.0
C584 C 0.68828 0.10825 0.85316 0.0
C585 C 0.67682 0.09238 0.90351 0.0
C586 C 0.69465 0.07992 0.92946 0.0
C587 C 0.72445 0.08506 0.90858 0.0
C588 C 0.73459 0.06237 0.93474 0.0
C589 C 0.74253 0.04308 0.89138 0.0
C590 C 0.76389 0.08164 0.97349 0.0
C591 C 0.70358 0.04041 0.96687 0.0
C592 C 0.68188 0.05237 0.96661 0.0
C593 C 0.64967 0.03384 0.98618 0.0
C594 C 0.63858 1.00154 1.0024 0.0
C595 C 0.65936 0.98777 0.99718 0.0
C596 C 0.69281 0.00822 0.98328 0.0
H597 H 0.6519 0.63116 0.9465 0.0
H598 H 0.73738 0.7253 0.98771 0.0
H599 H 0.71072 0.7533 0.9464 0.0
H600 H 0.64597 0.64981 0.81896 0.0
H601 H 0.60162 0.62784 0.81405 0.0
H602 H 0.62147 0.61503 0.86237 0.0
H603 H 0.58709 0.62056 0.94117 0.0
H604 H 0.56706 0.63359 0.8928 0.0
H605 H 0.58772 0.65885 0.95164 0.0
H606 H 0.68389 0.77097 0.88123 0.0
H607 H 0.65938 0.77675 0.79648 0.0
H608 H 0.59165 0.6718 0.79339 0.0
C609 C 0.66515 0.65763 0.9476 0.0
C610 C 0.69738 0.67587 0.96927 0.0
C611 C 0.71281 0.71055 0.97119 0.0
C612 C 0.69771 0.72679 0.94811 0.0
C613 C 0.66697 0.70809 0.92377 0.0
C614 C 0.65065 0.67421 0.92383 0.0
C615 C 0.62088 0.6599 0.88655 0.0
C616 C 0.62265 0.63684 0.84291 0.0
C617 C 0.58879 0.64219 0.92006 0.0
C618 C 0.62496 0.69103 0.86149 0.0
C619 C 0.65092 0.71858 0.88523 0.0
C620 C 0.66281 0.74977 0.86354 0.0
C621 C 0.64884 0.75278 0.81514 0.0
C622 C 0.62317 0.72482 0.78893 0.0
C623 C 0.61028 0.69377 0.81366 0.0
H624 H 0.99861 0.70732 0.98451 0.0
H625 H 0.01821 0.62836 1.0176 0.0
H626 H 0.96124 0.58833 0.99562 0.0
H627 H 0.89856 0.64871 1.01947 0.0
H628 H 0.89097 0.67145 0.96823 0.0
H629 H 0.92547 0.69241 1.01421 0.0
H630 H 0.9645 0.71669 0.93104 0.0
H631 H 0.93065 0.696 0.88547 0.0
H632 H 0.96537 0.68941 0.87921 0.0
H633 H 0.92002 0.56279 0.92738 0.0
H634 H 0.89853 0.55557 0.83543 0.0
H635 H 0.89401 0.64509 0.85221 0.0
C636 C 0.99034 0.68158 0.98992 0.0
C637 C 0.01338 0.6711 0.99898 0.0
C638 C 1.00172 0.6373 1.00704 0.0
C639 C 0.96889 0.61417 0.99605 0.0
C640 C 0.94769 0.62516 0.97915 0.0
C641 C 0.95738 0.65825 0.97936 0.0
C642 C 0.93265 0.66416 0.94921 0.0
C643 C 0.9106 0.66947 0.99023 0.0
C644 C 0.94933 0.69318 0.9088 0.0
C645 C 0.91304 0.63133 0.92046 0.0
C646 C 0.92044 0.60843 0.94131 0.0
C647 C 0.91272 0.57978 0.91237 0.0
C648 C 0.90041 0.57591 0.85921 0.0
C649 C 0.89463 0.60003 0.83583 0.0
C650 C 0.89822 0.62631 0.86905 0.0
H651 H 0.34149 0.08609 0.8334 0.0
H652 H 0.30302 0.024 0.97611 0.0
H653 H 0.27174 0.97552 0.916 0.0
H654 H 0.26482 0.03715 0.74402 0.0
H655 H 0.29042 0.04509 0.68402 0.0
H656 H 0.30325 0.07526 0.73828 0.0
H657 H 0.35853 0.07541 0.7455 0.0
H658 H 0.34589 0.04518 0.69197 0.0
H659 H 0.35789 0.03735 0.75764 0.0
H660 H 0.25725 0.93385 0.84214 0.0
H661 H 0.25585 0.90253 0.7588 0.0
H662 H 0.30007 0.99202 0.6645 0.0
C663 C 0.32544 0.06237 0.85162 0.0
C664 C 0.32433 0.05824 0.90863 0.0
C665 C 0.30367 0.02721 0.93209 0.0
C666 C 0.28584 0.99972 0.89839 0.0
C667 C 0.28841 0.00423 0.84179 0.0
C668 C 0.30706 0.03496 0.81861 0.0
C669 C 0.30888 0.03294 0.75706 0.0
C670 C 0.29074 0.04853 0.72921 0.0
C671 C 0.34492 0.04861 0.73693 0.0
C672 C 0.29058 0.99619 0.74957 0.0
C673 C 0.27853 0.97996 0.79872 0.0
C674 C 0.26542 0.94613 0.80308 0.0
C675 C 0.26504 0.92861 0.75606 0.0
C676 C 0.27757 0.9451 0.70597 0.0
C677 C 0.28948 0.97895 0.70234 0.0
H678 H 0.42464 0.32885 0.81764 0.0
H679 H 0.34672 0.22709 0.81464 0.0
H680 H 0.32966 0.23344 0.90693 0.0
H681 H 0.43371 0.33604 0.98123 0.0
H682 H 0.44047 0.37716 0.97662 0.0
H683 H 0.45677 0.36167 0.92438 0.0
H684 H 0.42706 0.37619 0.85025 0.0
H685 H 0.41066 0.39131 0.90163 0.0
H686 H 0.38304 0.35947 0.85521 0.0
H687 H 0.30898 0.25361 0.97799 0.0
H688 H 0.28476 0.28546 1.01359 0.0
H689 H 0.37596 0.37543 0.9773 0.0
C690 C 0.40532 0.30737 0.83763 0.0
C691 C 0.38735 0.27737 0.809 0.0
C692 C 0.36101 0.25033 0.83575 0.0
C693 C 0.35144 0.25359 0.88871 0.0
C694 C 0.3682 0.28413 0.91453 0.0
C695 C 0.39506 0.31057 0.89018 0.0
C696 C 0.40357 0.34238 0.91939 0.0
C697 C 0.43552 0.35504 0.95239 0.0
C698 C 0.40613 0.36879 0.87922 0.0
C699 C 0.37408 0.33035 0.95735 0.0
C700 C 0.35528 0.29647 0.95669 0.0
C701 C 0.32388 0.28007 0.97994 0.0
C702 C 0.31015 0.29857 0.99973 0.0
C703 C 0.32762 0.33322 0.99557 0.0
C704 C 0.36105 0.3491 0.97895 0.0
H705 H 0.10265 0.40932 0.82026 0.0
H706 H 0.11657 0.32534 0.80104 0.0
H707 H 0.09472 0.30736 0.89396 0.0
H708 H 0.11135 0.41537 0.98264 0.0
H709 H 0.0797 0.42654 0.98542 0.0
H710 H 0.10909 0.44061 0.92965 0.0
H711 H 0.06095 0.41556 0.86042 0.0
H712 H 0.03169 0.40118 0.91528 0.0
H713 H 0.03067 0.37251 0.86459 0.0
H714 H 0.05655 0.28912 0.96964 0.0
H715 H 1.00373 0.27081 1.01585 0.0
H716 H 0.01401 0.36678 0.99175 0.0
C717 C 0.103 0.38826 0.83678 0.0
C718 C 0.11163 0.36892 0.80365 0.0
C719 C 0.1101 0.34055 0.82581 0.0
C720 C 0.09818 0.33044 0.87895 0.0
C721 C 0.08787 0.34892 0.90949 0.0
C722 C 0.09065 0.37766 0.8895 0.0
C723 C 0.07103 0.38887 0.92407 0.0
C724 C 0.09418 0.41967 0.95744 0.0
C725 C 0.04718 0.39479 0.88897 0.0
C726 C 0.05293 0.35949 0.96109 0.0
C727 C 0.06449 0.33772 0.95436 0.0
C728 C 0.04792 0.30634 0.97653 0.0
C729 C 0.01767 0.29607 1.00259 0.0
C730 C 1.00401 0.31696 1.00558 0.0
C731 C 0.02318 0.34983 0.98848 0.0
H732 H 0.52741 0.95847 0.08614 0.0
H733 H 0.51104 0.92858 0.91515 0.0
H734 H 0.49443 0.96989 0.89735 0.0
H735 H 0.45959 0.97401 0.10205 0.0
H736 H 0.48188 0.0097 0.14516 0.0
H737 H 0.49257 0.97785 0.14488 0.0
H738 H 0.55302 0.02009 0.11954 0.0
H739 H 0.54245 0.05205 0.12137 0.0
H740 H 0.56121 0.04601 1.06081 0.0
H741 H 0.47809 0.01467 0.89812 0.0
H742 H 0.46606 0.05945 0.91672 0.0
H743 H 0.49406 0.06203 0.08662 0.0
C744 C 0.52031 0.96051 1.0449 0.0
C745 C 0.52056 0.9397 1.00214 0.0
C746 C 0.51123 0.94384 0.94883 0.0
C747 C 0.50162 0.96737 0.93827 0.0
C748 C 0.50151 0.98725 0.98119 0.0
C749 C 0.51084 0.98421 1.03346 0.0
C750 C 0.50912 0.00909 0.0721 0.0
C751 C 0.48431 0.99161 0.11881 0.0
C752 C 0.54349 0.03326 0.09481 0.0
C753 C 0.497 0.02632 1.0337 0.0
C754 C 0.49272 0.01328 0.9814 0.0
C755 C 0.48149 0.025 0.93899 0.0
C756 C 0.47461 0.05057 0.95001 0.0
C757 C 0.47896 0.06474 1.00313 0.0
C758 C 0.49038 0.0521 1.04539 0.0
H759 H 0.44771 0.49479 0.11117 0.0
H760 H 0.42781 0.48928 0.93688 0.0
H761 H 0.48532 0.50385 0.91692 0.0
H762 H 0.533 0.56325 0.10581 0.0
H763 H 0.54778 0.54656 0.15729 0.0
H764 H 0.5054 0.53705 0.15846 0.0
H765 H 0.48613 0.4751 0.15659 0.0
H766 H 0.52846 0.48445 0.15528 0.0
H767 H 0.50043 0.45881 0.10253 0.0
H768 H 0.54646 0.51956 0.91491 0.0
H769 H 0.60377 0.53256 0.93123 0.0
H770 H 0.58554 0.52612 0.10664 0.0
C771 C 0.4555 0.49701 0.06875 0.0
C772 C 0.43255 0.49104 1.02565 0.0
C773 C 0.44427 0.49372 0.97091 0.0
C774 C 0.47719 0.50207 0.95906 0.0
C775 C 0.49894 0.50756 1.00216 0.0
C776 C 0.48852 0.505 1.05604 0.0
C777 C 0.5168 0.5111 0.09459 0.0
C778 C 0.5263 0.54128 0.13121 0.0
C779 C 0.50739 0.48055 0.12931 0.0
C780 C 0.54465 0.51754 1.05413 0.0
C781 C 0.53377 0.51558 1.00098 0.0
C782 C 0.55499 0.52099 0.9565 0.0
C783 C 0.58781 0.52846 0.96625 0.0
C784 C 0.59989 0.53037 1.02022 0.0
C785 C 0.57754 0.52473 0.06469 0.0
H786 H 0.05999 0.58113 0.97444 0.0
H787 H 0.09856 0.5905 0.13888 0.0
H788 H 0.05802 0.53247 0.15611 0.0
H789 H 0.9735 0.52468 1.00794 0.0
H790 H 0.96497 0.5003 0.94637 0.0
H791 H 0.99663 0.54291 0.94616 0.0
H792 H 0.03906 0.52684 0.91166 0.0
H793 H 1.0075 0.48418 0.91179 0.0
H794 H 0.04501 0.49757 0.94977 0.0
H795 H 0.01162 0.47303 0.15815 0.0
H796 H 0.96561 0.41687 0.14329 0.0
H797 H 0.95669 0.44121 0.97556 0.0
C798 C 0.05996 0.57102 1.01412 0.0
C799 C 0.08312 0.5913 1.05529 0.0
C800 C 0.08172 0.57629 0.10631 0.0
C801 C 0.05849 0.54301 0.11664 0.0
C802 C 0.03631 0.52389 0.07558 0.0
C803 C 0.03693 0.5372 1.02502 0.0
C804 C 0.01047 0.51055 0.98791 0.0
C805 C 0.98488 0.52019 0.97109 0.0
C806 C 0.02647 0.50443 0.93726 0.0
C807 C 0.99488 0.48037 1.02549 0.0
C808 C 0.01018 0.489 0.07606 0.0
C809 C 0.99977 0.46615 0.1185 0.0
C810 C 0.97332 0.434 0.10957 0.0
C811 C 0.95707 0.42371 1.05816 0.0
C812 C 0.96849 0.44761 1.01529 0.0
H813 H 0.97259 0.52999 0.4965 0.0
H814 H 0.9646 0.54322 0.6713 0.0
H815 H 1.00729 0.52848 0.68874 0.0
H816 H 0.9849 0.46072 0.50601 0.0
H817 H 0.01483 0.47305 0.45133 0.0
H818 H 0.98441 0.48587 0.45113 0.0
H819 H 0.03055 0.5465 0.44517 0.0
H820 H 0.06113 0.53388 0.44495 0.0
H821 H 0.06293 0.56289 0.49559 0.0
H822 H 0.04858 0.50868 0.68918 0.0
H823 H 0.08821 0.4896 0.6721 0.0
H824 H 0.07355 0.49072 0.49683 0.0
C825 C 0.98016 0.53033 0.53843 0.0
C826 C 0.96479 0.53815 0.58247 0.0
C827 C 0.97562 0.53771 0.63655 0.0
C828 C 0.99998 0.52917 0.64702 0.0
C829 C 0.01408 0.52113 0.60316 0.0
C830 C 1.00494 0.52202 0.54977 0.0
C831 C 0.02425 0.51212 0.51037 0.0
C832 C 1.00069 0.4811 0.47778 0.0
C833 C 0.046 0.54054 0.47172 0.0
C834 C 0.04532 0.50522 0.54997 0.0
C835 C 0.03874 0.51045 0.60333 0.0
C836 C 0.05401 0.50477 0.64747 0.0
C837 C 0.07655 0.49368 0.63725 0.0
C838 C 0.08448 0.48844 0.58311 0.0
C839 C 0.06848 0.49455 0.53881 0.0
H840 H 0.44217 0.95402 0.62282 0.0
H841 H 0.42973 0.94661 0.4461 0.0
H842 H 0.48699 0.99108 0.4344 0.0
H843 H 0.49639 0.0437 0.62898 0.0
H844 H 0.52257 0.0429 0.68199 0.0
H845 H 0.48006 0.01078 0.678 0.0
H846 H 0.49841 0.96734 0.67336 0.0
H847 H 0.54098 0.99934 0.6772 0.0
H848 H 0.52723 0.97038 0.62105 0.0
H849 H 0.54547 0.03665 0.4398 0.0
H850 H 0.60182 0.08005 0.46107 0.0
H851 H 0.5815 0.06044 0.63492 0.0
C852 C 0.45141 0.96196 0.58169 0.0
C853 C 0.43063 0.94629 0.53531 0.0
C854 C 0.44446 0.95758 0.48245 0.0
C855 C 0.47725 0.98309 0.47528 0.0
C856 C 0.497 0.99763 0.52125 0.0
C857 C 0.48479 0.98758 0.57358 0.0
C858 C 0.51219 0.0075 0.61549 0.0
C859 C 0.5022 0.0274 0.65338 0.0
C860 C 0.52017 0.98478 0.64876 0.0
C861 C 0.54143 0.03027 0.57849 0.0
C862 C 0.53167 0.02392 0.5243 0.0
C863 C 0.55338 0.04166 0.48203 0.0
C864 C 0.58563 0.06657 0.49481 0.0
C865 C 0.59701 0.07428 0.54979 0.0
C866 C 0.57424 0.05534 0.59234 0.0
H867 H 0.51284 0.56943 0.47868 0.0
H868 H 0.50761 0.58562 0.65311 0.0
H869 H 0.49239 0.52843 0.671 0.0
H870 H 0.44482 0.48342 0.4744 0.0
H871 H 0.46535 0.4704 0.42599 0.0
H872 H 0.474 0.51227 0.42603 0.0
H873 H 0.53615 0.53196 0.43748 0.0
H874 H 0.52719 0.48999 0.438 0.0
H875 H 0.54941 0.51712 0.49414 0.0
H876 H 0.47576 0.4684 0.67164 0.0
H877 H 0.46511 0.41227 0.65619 0.0
H878 H 0.48465 0.43237 0.48238 0.0
C879 C 0.50847 0.56095 0.52065 0.0
C880 C 0.51164 0.58287 0.56445 0.0
C881 C 0.50577 0.57015 0.61858 0.0
C882 C 0.49682 0.53731 0.62928 0.0
C883 C 0.49396 0.51657 0.58573 0.0
C884 C 0.49998 0.52787 0.53241 0.0
C885 C 0.49651 0.50028 0.49381 0.0
C886 C 0.46851 0.49106 0.45261 0.0
C887 C 0.52927 0.51044 0.46409 0.0
C888 C 0.48776 0.47197 0.53378 0.0
C889 C 0.48592 0.48203 0.58645 0.0
C890 C 0.47747 0.4605 0.63053 0.0
C891 C 0.47135 0.42827 0.62118 0.0
C892 C 0.4741 0.41706 0.56813 0.0
C893 C 0.48226 0.43961 0.52367 0.0
H894 H 0.5353 0.19481 0.27761 0.0
H895 H 0.61468 0.27495 0.18847 0.0
H896 H 0.64044 0.30124 0.27573 0.0
H897 H 0.54221 0.24758 0.4112 0.0
H898 H 0.53274 0.21223 0.45213 0.0
H899 H 0.51306 0.20712 0.38661 0.0
H900 H 0.5331 0.16715 0.35622 0.0
H901 H 0.553 0.17228 0.42051 0.0
H902 H 0.57662 0.18073 0.35787 0.0
H903 H 0.66414 0.31174 0.36482 0.0
H904 H 0.68934 0.29876 0.44153 0.0
H905 H 0.59748 0.20968 0.47261 0.0
C906 C 0.55682 0.21901 0.27638 0.0
C907 C 0.5728 0.23313 0.22648 0.0
C908 C 0.60191 0.26397 0.22645 0.0
C909 C 0.6164 0.27934 0.27586 0.0
C910 C 0.60102 0.26397 0.32475 0.0
C911 C 0.57166 0.23441 0.32539 0.0
C912 C 0.56448 0.21875 0.38135 0.0
C913 C 0.53649 0.22161 0.40951 0.0
C914 C 0.55643 0.18267 0.37871 0.0
C915 C 0.59707 0.241 0.40881 0.0
C916 C 0.61637 0.26863 0.37746 0.0
C917 C 0.64911 0.29069 0.39029 0.0
C918 C 0.66332 0.28304 0.43344 0.0
C919 C 0.64511 0.25306 0.4612 0.0
C920 C 0.61134 0.23272 0.45122 0.0
H921 H 0.35735 0.49001 0.33048 0.0
H922 H 0.28972 0.52648 0.31575 0.0
H923 H 0.28417 0.52665 0.41531 0.0
H924 H 0.32921 0.46147 0.49742 0.0
H925 H 0.3718 0.47379 0.50925 0.0
H926 H 0.35114 0.45035 0.44875 0.0
H927 H 0.397 0.49359 0.38955 0.0
H928 H 0.41751 0.51764 0.44848 0.0
H929 H 0.40663 0.53583 0.39341 0.0
H930 H 0.30525 0.54922 0.5021 0.0
H931 H 0.3533 0.60145 0.52527 0.0
H932 H 0.41619 0.5603 0.4917 0.0
C933 C 0.33991 0.49601 0.34882 0.0
C934 C 0.32363 0.50787 0.31594 0.0
C935 C 0.30207 0.51699 0.34046 0.0
C936 C 0.29861 0.51676 0.39732 0.0
C937 C 0.31826 0.50898 0.42975 0.0
C938 C 0.33804 0.49778 0.40601 0.0
C939 C 0.3647 0.5021 0.44547 0.0
C940 C 0.35352 0.47005 0.47712 0.0
C941 C 0.39843 0.51307 0.41745 0.0
C942 C 0.36426 0.52774 0.48318 0.0
C943 C 0.33375 0.5261 0.48052 0.0
C944 C 0.32917 0.55094 0.50294 0.0
C945 C 0.35692 0.58099 0.51518 0.0
C946 C 0.38876 0.58573 0.50509 0.0
C947 C 0.39219 0.55783 0.4967 0.0
H948 H 0.78189 0.40132 0.1577 0.0
H949 H 0.74673 0.30269 0.2147 0.0
H950 H 0.72492 0.31492 0.29862 0.0
H951 H 0.82211 0.4279 0.26292 0.0
H952 H 0.82277 0.46591 0.27353 0.0
H953 H 0.8164 0.44888 0.20622 0.0
H954 H 0.76282 0.44832 0.19469 0.0
H955 H 0.76374 0.46458 0.26249 0.0
H956 H 0.7291 0.42604 0.24121 0.0
H957 H 0.72634 0.34105 0.38441 0.0
H958 H 0.75586 0.37614 0.46302 0.0
H959 H 0.79896 0.46084 0.3567 0.0
C960 C 0.76762 0.3818 0.18647 0.0
C961 C 0.76541 0.35113 0.18006 0.0
C962 C 0.74819 0.32632 0.21909 0.0
C963 C 0.73561 0.33314 0.26666 0.0
C964 C 0.74169 0.36516 0.27516 0.0
C965 C 0.7577 0.38925 0.23584 0.0
C966 C 0.77293 0.42329 0.26046 0.0
C967 C 0.81066 0.44258 0.25022 0.0
C968 C 0.75622 0.44176 0.23845 0.0
C969 C 0.76475 0.41483 0.32019 0.0
C970 C 0.74525 0.38131 0.32759 0.0
C971 C 0.74029 0.36731 0.37937 0.0
C972 C 0.75746 0.38748 0.42381 0.0
C973 C 0.77991 0.42122 0.41588 0.0
C974 C 0.78158 0.43529 0.36438 0.0
H975 H 0.41296 0.77424 0.45219 0.0
H976 H 0.31252 0.73084 0.396 0.0
H977 H 0.32591 0.70671 0.31659 0.0
H978 H 0.44282 0.80998 0.34336 0.0
H979 H 0.48046 0.80822 0.34035 0.0
H980 H 0.46093 0.80469 0.40473 0.0
H981 H 0.45646 0.74788 0.42222 0.0
H982 H 0.47892 0.75471 0.35923 0.0
H983 H 0.44043 0.71706 0.36858 0.0
H984 H 0.35158 0.70499 0.23244 0.0
H985 H 0.38377 0.73545 0.15249 0.0
H986 H 0.47063 0.78671 0.25423 0.0
C987 C 0.39357 0.75798 0.42449 0.0
C988 C 0.36184 0.75384 0.42984 0.0
C989 C 0.33695 0.7338 0.39245 0.0
C990 C 0.34442 0.7198 0.34759 0.0
C991 C 0.37708 0.72707 0.33996 0.0
C992 C 0.40142 0.746 0.3777 0.0
C993 C 0.43556 0.76027 0.35287 0.0
C994 C 0.456 0.79796 0.36069 0.0
C995 C 0.45383 0.74388 0.37712 0.0
C996 C 0.42655 0.75038 0.29348 0.0
C997 C 0.39295 0.72888 0.2878 0.0
C998 C 0.37787 0.72134 0.23653 0.0
C999 C 0.39639 0.73901 0.19115 0.0
C1000 C 0.42946 0.76436 0.19757 0.0
C1001 C 0.44543 0.76761 0.24796 0.0
H1002 H 0.64649 0.41877 0.47049 0.0
H1003 H 0.58364 0.31721 0.42387 0.0
H1004 H 0.61453 0.32713 0.33822 0.0
H1005 H 0.64155 0.44894 0.36187 0.0
H1006 H 0.68278 0.48312 0.3533 0.0
H1007 H 0.66837 0.46692 0.42014 0.0
H1008 H 0.71816 0.45975 0.43117 0.0
H1009 H 0.73311 0.47193 0.36195 0.0
H1010 H 0.72394 0.43232 0.38692 0.0
H1011 H 0.63706 0.34849 0.25138 0.0
H1012 H 0.64533 0.38072 0.16929 0.0
H1013 H 0.69528 0.47017 0.26675 0.0
C1014 C 0.64123 0.39812 0.44405 0.0
C1015 C 0.61311 0.36736 0.45329 0.0
C1016 C 0.60548 0.3409 0.4174 0.0
C1017 C 0.62337 0.34612 0.36902 0.0
C1018 C 0.64935 0.37748 0.35803 0.0
C1019 C 0.65868 0.40318 0.39501 0.0
C1020 C 0.6805 0.43594 0.36779 0.0
C1021 C 0.66745 0.46005 0.37624 0.0
C1022 C 0.71609 0.45097 0.38813 0.0
C1023 C 0.67773 0.4248 0.30874 0.0
C1024 C 0.6615 0.39099 0.30448 0.0
C1025 C 0.65093 0.37492 0.25421 0.0
C1026 C 0.65539 0.3936 0.20758 0.0
C1027 C 0.66983 0.42808 0.21149 0.0
C1028 C 0.68292 0.44385 0.26224 0.0
H1029 H 0.19799 0.60009 0.1256 0.0
H1030 H 0.30313 0.66831 0.11983 0.0
H1031 H 0.31231 0.63444 0.18543 0.0
H1032 H 0.19439 0.60368 0.25461 0.0
H1033 H 0.16269 0.56211 0.26875 0.0
H1034 H 0.16456 0.57928 0.20298 0.0
H1035 H 0.16767 0.53173 0.15666 0.0
H1036 H 0.16681 0.51375 0.22206 0.0
H1037 H 0.19991 0.52322 0.174 0.0
H1038 H 0.30927 0.6065 0.27093 0.0
H1039 H 0.29456 0.58634 0.36575 0.0
H1040 H 0.19102 0.54514 0.32646 0.0
C1041 C 0.22301 0.60726 0.13696 0.0
C1042 C 0.2497 0.63713 0.11946 0.0
C1043 C 0.28224 0.64541 0.13326 0.0
C1044 C 0.28768 0.62621 0.17043 0.0
C1045 C 0.26032 0.59908 0.19305 0.0
C1046 C 0.22847 0.58939 0.17622 0.0
C1047 C 0.203 0.56606 0.21624 0.0
C1048 C 0.1799 0.57859 0.23685 0.0
C1049 C 0.1832 0.53162 0.19079 0.0
C1050 C 0.2255 0.567 0.26086 0.0
C1051 C 0.25833 0.5845 0.24563 0.0
C1052 C 0.28362 0.59186 0.28276 0.0
C1053 C 0.27508 0.58094 0.33674 0.0
C1054 C 0.24159 0.56367 0.35313 0.0
C1055 C 0.21673 0.55704 0.31471 0.0
H1056 H 0.34667 0.79228 0.74532 0.0
H1057 H 0.4057 0.87967 0.64912 0.0
H1058 H 0.45626 0.87959 0.67622 0.0
H1059 H 0.39902 0.81902 0.85676 0.0
H1060 H 0.39278 0.77928 0.87507 0.0
H1061 H 0.3612 0.78233 0.83885 0.0
H1062 H 0.36228 0.74367 0.76319 0.0
H1063 H 0.3946 0.74127 0.79886 0.0
H1064 H 0.40048 0.7544 0.72845 0.0
H1065 H 0.50024 0.87392 0.71997 0.0
H1066 H 0.53495 0.87036 0.79177 0.0
H1067 H 0.44849 0.78824 0.86404 0.0
C1068 C 0.37031 0.81099 0.72958 0.0
C1069 C 0.37261 0.83595 0.69538 0.0
C1070 C 0.40372 0.86054 0.67595 0.0
C1071 C 0.43245 0.86034 0.69026 0.0
C1072 C 0.42961 0.8355 0.72435 0.0
C1073 C 0.39942 0.81162 0.74467 0.0
C1074 C 0.40375 0.79122 0.78784 0.0
C1075 C 0.3883 0.79311 0.84286 0.0
C1076 C 0.38942 0.75552 0.7684 0.0
C1077 C 0.44105 0.80854 0.79063 0.0
C1078 C 0.45544 0.83308 0.75196 0.0
C1079 C 0.48939 0.85449 0.74993 0.0
C1080 C 0.50897 0.85218 0.79074 0.0
C1081 C 0.49427 0.82915 0.83345 0.0
C1082 C 0.46027 0.80592 0.83151 0.0
H1083 H 0.5459 0.43381 0.71892 0.0
H1084 H 0.55332 0.34606 0.735 0.0
H1085 H 0.60942 0.37923 0.77246 0.0
H1086 H 0.63493 0.48923 0.68168 0.0
H1087 H 0.63643 0.5232 0.71903 0.0
H1088 H 0.59858 0.49312 0.68694 0.0
H1089 H 0.56781 0.48233 0.78018 0.0
H1090 H 0.60531 0.51263 0.81206 0.0
H1091 H 0.58356 0.47155 0.83883 0.0
H1092 H 0.65783 0.41901 0.82482 0.0
H1093 H 0.69662 0.46319 0.88574 0.0
H1094 H 0.66286 0.52745 0.82473 0.0
C1095 C 0.55948 0.42165 0.72996 0.0
C1096 C 0.54522 0.38732 0.72525 0.0
C1097 C 0.56376 0.37226 0.73916 0.0
C1098 C 0.59573 0.39096 0.75977 0.0
C1099 C 0.60902 0.42477 0.76446 0.0
C1100 C 0.59167 0.44007 0.74929 0.0
C1101 C 0.61061 0.47639 0.76218 0.0
C1102 C 0.62074 0.49668 0.7093 0.0
C1103 C 0.59064 0.48627 0.80061 0.0
C1104 C 0.6403 0.4787 0.79063 0.0
C1105 C 0.63905 0.44866 0.79082 0.0
C1106 C 0.66011 0.44302 0.82292 0.0
C1107 C 0.68215 0.46829 0.85724 0.0
C1108 C 0.68372 0.49909 0.85783 0.0
C1109 C 0.6634 0.50472 0.82261 0.0
H1110 H 0.17617 0.5707 0.67107 0.0
H1111 H 0.20989 0.52223 0.78201 0.0
H1112 H 0.2221 0.56509 0.85173 0.0
H1113 H 0.23023 0.6578 0.71988 0.0
H1114 H 0.1968 0.66622 0.71411 0.0
H1115 H 0.19933 0.63745 0.66774 0.0
H1116 H 0.14015 0.59296 0.69567 0.0
H1117 H 0.13748 0.62142 0.74205 0.0
H1118 H 0.13075 0.58261 0.76705 0.0
H1119 H 0.22375 0.60804 0.91254 0.0
H1120 H 0.20824 0.64311 0.9649 0.0
H1121 H 0.16764 0.66027 0.81761 0.0
C1122 C 0.18735 0.56983 0.70925 0.0
C1123 C 0.19322 0.54385 0.72062 0.0
C1124 C 0.20628 0.54255 0.77195 0.0
C1125 C 0.21331 0.56681 0.81169 0.0
C1126 C 0.20657 0.59178 0.79959 0.0
C1127 C 0.19352 0.59325 0.7498 0.0
C1128 C 0.18267 0.61865 0.75058 0.0
C1129 C 0.20351 0.6467 0.71071 0.0
C1130 C 0.14558 0.60296 0.73814 0.0
C1131 C 0.19022 0.63017 0.80946 0.0
C1132 C 0.20511 0.61523 0.83631 0.0
C1133 C 0.21247 0.62019 0.89186 0.0
C1134 C 0.20341 0.6401 0.92125 0.0
C1135 C 0.18643 0.65414 0.89524 0.0
C1136 C 0.18067 0.64991 0.83835 0.0
H1137 H 0.6602 0.19347 0.75725 0.0
H1138 H 0.61583 0.19901 0.60528 0.0
H1139 H 0.57684 0.20963 0.65749 0.0
H1140 H 0.59172 0.14779 0.82409 0.0
H1141 H 0.6041 0.16636 0.89107 0.0
H1142 H 0.63467 0.16937 0.84305 0.0
H1143 H 0.66555 0.23269 0.85065 0.0
H1144 H 0.6353 0.23001 0.89982 0.0
H1145 H 0.64367 0.25456 0.83914 0.0
H1146 H 0.53444 0.2047 0.72442 0.0
H1147 H 0.49469 0.18823 0.80121 0.0
H1148 H 0.56704 0.18739 0.90969 0.0
C1149 C 0.64325 0.19838 0.73495 0.0
C1150 C 0.6408 0.19515 0.67746 0.0
C1151 C 0.61798 0.20119 0.64951 0.0
C1152 C 0.59584 0.20746 0.6788 0.0
C1153 C 0.59733 0.20823 0.73584 0.0
C1154 C 0.62098 0.2046 0.76366 0.0
C1155 C 0.61438 0.20147 0.8247 0.0
C1156 C 0.61099 0.16934 0.84694 0.0
C1157 C 0.64133 0.23148 0.85538 0.0
C1158 C 0.58187 0.20108 0.8263 0.0
C1159 C 0.57281 0.20585 0.77491 0.0
C1160 C 0.5417 0.20194 0.76514 0.0
C1161 C 0.51912 0.19229 0.80877 0.0
C1162 C 0.52776 0.18659 0.86119 0.0
C1163 C 0.55988 0.1921 0.87021 0.0
H1164 H 0.45872 0.65405 0.75674 0.0
H1165 H 0.41629 0.59954 0.60681 0.0
H1166 H 0.36955 0.55694 0.65881 0.0
H1167 H 0.4462 0.59083 0.83214 0.0
H1168 H 0.43585 0.60321 0.89598 0.0
H1169 H 0.46079 0.63359 0.84634 0.0
H1170 H 0.41945 0.65502 0.84499 0.0
H1171 H 0.39437 0.62481 0.8954 0.0
H1172 H 0.37648 0.6269 0.83148 0.0
H1173 H 0.33604 0.51458 0.72773 0.0
H1174 H 0.31679 0.47786 0.80804 0.0
H1175 H 0.37922 0.56034 0.91341 0.0
C1176 C 0.43888 0.63377 0.7348 0.0
C1177 C 0.44083 0.63018 0.67774 0.0
C1178 C 0.41483 0.60308 0.65032 0.0
C1179 C 0.38819 0.57868 0.67962 0.0
C1180 C 0.38769 0.58207 0.73631 0.0
C1181 C 0.41204 0.60929 0.76357 0.0
C1182 C 0.40825 0.60505 0.82499 0.0
C1183 C 0.43961 0.60834 0.85134 0.0
C1184 C 0.39908 0.62939 0.85072 0.0
C1185 C 0.37969 0.57026 0.82785 0.0
C1186 C 0.36767 0.55758 0.7764 0.0
C1187 C 0.34449 0.52449 0.7684 0.0
C1188 C 0.33385 0.50376 0.81408 0.0
C1189 C 0.34633 0.51634 0.86682 0.0
C1190 C 0.36873 0.55014 0.87371 0.0
H1191 H 0.86314 0.38979 0.90706 0.0
H1192 H 0.84375 0.30736 0.80201 0.0
H1193 H 0.83015 0.33323 0.72536 0.0
H1194 H 0.80023 0.40425 0.85821 0.0
H1195 H 0.82541 0.44824 0.86302 0.0
H1196 H 0.83252 0.42256 0.90866 0.0
H1197 H 0.89372 0.45012 0.87721 0.0
H1198 H 0.88687 0.47636 0.83267 0.0
H1199 H 0.90312 0.4516 0.80509 0.0
H1200 H 0.81673 0.36894 0.66191 0.0
H1201 H 0.81383 0.41373 0.6143 0.0
H1202 H 0.84647 0.4727 0.76273 0.0
C1203 C 0.85613 0.37722 0.86777 0.0
C1204 C 0.85418 0.34666 0.85996 0.0
C1205 C 0.84542 0.33096 0.80821 0.0
C1206 C 0.83741 0.34533 0.7649 0.0
C1207 C 0.83885 0.3754 0.7745 0.0
C1208 C 0.8487 0.39133 0.82455 0.0
C1209 C 0.85023 0.42408 0.8246 0.0
C1210 C 0.82562 0.4248 0.86608 0.0
C1211 C 0.88558 0.45218 0.83549 0.0
C1212 C 0.83976 0.42442 0.76654 0.0
C1213 C 0.83264 0.39602 0.73828 0.0
C1214 C 0.82248 0.39131 0.6837 0.0
C1215 C 0.8208 0.41683 0.65705 0.0
C1216 C 0.82997 0.44677 0.6848 0.0
C1217 C 0.8388 0.45005 0.74051 0.0
H1218 H 0.50256 0.26295 0.16627 0.0
H1219 H 0.43297 0.15879 0.17241 0.0
H1220 H 0.42728 0.16283 0.27228 0.0
H1221 H 0.54068 0.26959 0.30838 0.0
H1222 H 0.54484 0.30914 0.3208 0.0
H1223 H 0.54648 0.29608 0.25154 0.0
H1224 H 0.50202 0.31007 0.23041 0.0
H1225 H 0.49414 0.31707 0.30032 0.0
H1226 H 0.46146 0.28579 0.25853 0.0
H1227 H 0.42898 0.1774 0.37561 0.0
H1228 H 0.43413 0.20099 0.46801 0.0
H1229 H 0.49917 0.29786 0.40313 0.0
C1230 C 0.48633 0.24083 0.18854 0.0
C1231 C 0.46899 0.20985 0.15914 0.0
C1232 C 0.44777 0.18237 0.19199 0.0
C1233 C 0.4441 0.18459 0.24967 0.0
C1234 C 0.46155 0.21486 0.27707 0.0
C1235 C 0.48244 0.24266 0.24761 0.0
C1236 C 0.49692 0.2724 0.28791 0.0
C1237 C 0.53448 0.28775 0.2923 0.0
C1238 C 0.48811 0.29792 0.26836 0.0
C1239 C 0.4802 0.25714 0.34388 0.0
C1240 C 0.46058 0.22367 0.33621 0.0
C1241 C 0.44407 0.20365 0.38128 0.0
C1242 C 0.44729 0.21753 0.43465 0.0
C1243 C 0.46646 0.25183 0.4456 0.0
C1244 C 0.48334 0.27178 0.39811 0.0
H1245 H 0.18817 0.4597 0.40862 0.0
H1246 H 0.25471 0.43137 0.47932 0.0
H1247 H 0.27249 0.42569 0.38658 0.0
H1248 H 0.16879 0.40257 0.28386 0.0
H1249 H 0.16465 0.43021 0.2383 0.0
H1250 H 0.15436 0.42912 0.31 0.0
H1251 H 0.1921 0.48962 0.31145 0.0
H1252 H 0.2084 0.49285 0.24358 0.0
H1253 H 0.23591 0.50718 0.30103 0.0
H1254 H 0.28113 0.41888 0.28204 0.0
H1255 H 0.28744 0.42249 0.18154 0.0
H1256 H 0.22401 0.46406 0.17176 0.0
C1257 C 0.20632 0.45219 0.40512 0.0
C1258 C 0.2195 0.44603 0.45429 0.0
C1259 C 0.24354 0.43631 0.44476 0.0
C1260 C 0.25385 0.43275 0.39121 0.0
C1261 C 0.24056 0.43904 0.34459 0.0
C1262 C 0.21733 0.44877 0.35082 0.0
C1263 C 0.20744 0.45406 0.29269 0.0
C1264 C 0.17169 0.42742 0.28048 0.0
C1265 C 0.21129 0.48804 0.28699 0.0
C1266 C 0.23144 0.44984 0.25385 0.0
C1267 C 0.24862 0.43897 0.28491 0.0
C1268 C 0.2689 0.42907 0.25851 0.0
C1269 C 0.27327 0.43206 0.20062 0.0
C1270 C 0.25969 0.44681 0.16706 0.0
C1271 C 0.23695 0.45452 0.19495 0.0
H1272 H 0.7914 0.25821 0.44005 0.0
H1273 H 0.74848 0.15297 0.42735 0.0
H1274 H 0.75591 0.15742 0.32689 0.0
H1275 H 0.75881 0.26977 0.30739 0.0
H1276 H 0.79585 0.30753 0.29118 0.0
H1277 H 0.78482 0.29587 0.36171 0.0
H1278 H 0.84168 0.30177 0.37636 0.0
H1279 H 0.8528 0.31156 0.30525 0.0
H1280 H 0.85384 0.27728 0.3361 0.0
H1281 H 0.76645 0.17304 0.2226 0.0
H1282 H 0.78379 0.1977 0.13088 0.0
H1283 H 0.82678 0.29436 0.20438 0.0
C1284 C 0.7835 0.23599 0.41631 0.0
C1285 C 0.76782 0.20461 0.44387 0.0
C1286 C 0.75882 0.17697 0.40912 0.0
C1287 C 0.76341 0.17941 0.35111 0.0
C1288 C 0.77795 0.21011 0.32539 0.0
C1289 C 0.78824 0.23811 0.35704 0.0
C1290 C 0.80442 0.26819 0.31832 0.0
C1291 C 0.78482 0.28642 0.31975 0.0
C1292 C 0.84036 0.29113 0.33494 0.0
C1293 C 0.80229 0.25291 0.2606 0.0
C1294 C 0.78609 0.2192 0.26597 0.0
C1295 C 0.77945 0.19947 0.21883 0.0
C1296 C 0.7895 0.21396 0.16588 0.0
C1297 C 0.80721 0.24855 0.15755 0.0
C1298 C 0.81361 0.26805 0.20712 0.0
H1299 H 0.52276 0.74804 0.1538 0.0
H1300 H 0.57265 0.85338 0.17078 0.0
H1301 H 0.57465 0.84848 0.27105 0.0
H1302 H 0.47583 0.72598 0.27768 0.0
H1303 H 0.48252 0.69366 0.30174 0.0
H1304 H 0.48388 0.70187 0.22937 0.0
H1305 H 0.54207 0.71211 0.21557 0.0
H1306 H 0.54045 0.69966 0.28569 0.0
H1307 H 0.5741 0.73843 0.26269 0.0
H1308 H 0.56978 0.83218 0.37371 0.0
H1309 H 0.56438 0.80779 0.46458 0.0
H1310 H 0.52394 0.71176 0.3885 0.0
C1311 C 0.53401 0.77018 0.17847 0.0
C1312 C 0.54567 0.80168 0.15236 0.0
C1313 C 0.56108 0.82923 0.18815 0.0
C1314 C 0.56297 0.82651 0.24594 0.0
C1315 C 0.5505 0.79562 0.27023 0.0
C1316 C 0.537 0.76782 0.23744 0.0
C1317 C 0.52739 0.73777 0.27484 0.0
C1318 C 0.49021 0.71337 0.27079 0.0
C1319 C 0.54721 0.72101 0.25872 0.0
C1320 C 0.53704 0.75295 0.33342 0.0
C1321 C 0.55011 0.78645 0.32915 0.0
C1322 C 0.5599 0.80598 0.37676 0.0
C1323 C 0.55663 0.79158 0.42925 0.0
C1324 C 0.54398 0.75732 0.43691 0.0
C1325 C 0.53431 0.73796 0.3866 0.0
H1326 H 0.85577 0.56398 0.39736 0.0
H1327 H 0.76258 0.53819 0.47566 0.0
H1328 H 0.73864 0.53624 0.38568 0.0
H1329 H 0.85041 0.61512 0.28915 0.0
H1330 H 0.86786 0.60203 0.23517 0.0
H1331 H 0.87894 0.60128 0.30559 0.0
H1332 H 0.86019 0.53961 0.29662 0.0
H1333 H 0.84982 0.54065 0.22576 0.0
H1334 H 0.81913 0.51191 0.27225 0.0
H1335 H 0.72325 0.53834 0.28556 0.0
H1336 H 0.71788 0.54238 0.18688 0.0
H1337 H 0.81794 0.56407 0.16123 0.0
C1338 C 0.8302 0.55724 0.39592 0.0
C1339 C 0.81158 0.55086 0.44671 0.0
C1340 C 0.77825 0.5433 0.43993 0.0
C1341 C 0.76409 0.54209 0.38793 0.0
C1342 C 0.78283 0.54845 0.33976 0.0
C1343 C 0.81528 0.55586 0.3429 0.0
C1344 C 0.82951 0.56196 0.28341 0.0
C1345 C 0.85842 0.59719 0.27801 0.0
C1346 C 0.84043 0.53709 0.2686 0.0
C1347 C 0.80007 0.55656 0.24674 0.0
C1348 C 0.77364 0.54905 0.28115 0.0
C1349 C 0.74398 0.54392 0.2589 0.0
C1350 C 0.74091 0.54622 0.20142 0.0
C1351 C 0.76635 0.55292 0.16286 0.0
C1352 C 0.79696 0.55831 0.18735 0.0
H1353 H 0.20929 0.72892 0.17693 0.0
H1354 H 0.23058 0.82419 0.1193 0.0
H1355 H 0.24834 0.84682 0.21275 0.0
H1356 H 0.17572 0.73387 0.31133 0.0
H1357 H 0.1936 0.71406 0.34963 0.0
H1358 H 0.18376 0.7041 0.27831 0.0
H1359 H 0.24318 0.71893 0.25567 0.0
H1360 H 0.25361 0.7279 0.32719 0.0
H1361 H 0.27682 0.75838 0.27609 0.0
H1362 H 0.26276 0.85995 0.31759 0.0
H1363 H 0.27407 0.86218 0.41682 0.0
H1364 H 0.24272 0.75868 0.41389 0.0
C1365 C 0.21651 0.75426 0.18394 0.0
C1366 C 0.21699 0.77407 0.13849 0.0
C1367 C 0.22933 0.80781 0.15131 0.0
C1368 C 0.23947 0.82104 0.20527 0.0
C1369 C 0.23778 0.80081 0.24876 0.0
C1370 C 0.22671 0.76799 0.23861 0.0
C1371 C 0.22785 0.75177 0.29307 0.0
C1372 C 0.19316 0.72433 0.30901 0.0
C1373 C 0.25178 0.73844 0.28768 0.0
C1374 C 0.24082 0.78028 0.33544 0.0
C1375 C 0.24649 0.8084 0.30847 0.0
C1376 C 0.25849 0.83789 0.33819 0.0
C1377 C 0.2651 0.83901 0.39543 0.0
C1378 C 0.26008 0.81107 0.42541 0.0
C1379 C 0.2472 0.78096 0.39386 0.0
H1380 H 0.58588 0.79046 0.66854 0.0
H1381 H 0.48345 0.71586 0.65052 0.0
H1382 H 0.47424 0.7204 0.7494 0.0
H1383 H 0.59859 0.77036 0.80801 0.0
H1384 H 0.62366 0.81238 0.82988 0.0
H1385 H 0.6223 0.80172 0.75827 0.0
H1386 H 0.60457 0.84445 0.73578 0.0
H1387 H 0.6048 0.85402 0.80765 0.0
H1388 H 0.56804 0.84085 0.76769 0.0
H1389 H 0.47649 0.73097 0.85687 0.0
H1390 H 0.4878 0.75123 0.95282 0.0
H1391 H 0.58709 0.82407 0.90577 0.0
C1392 C 0.56136 0.77517 0.68506 0.0
C1393 C 0.53557 0.75158 0.64956 0.0
C1394 C 0.50415 0.73302 0.67512 0.0
C1395 C 0.49857 0.7357 0.73215 0.0
C1396 C 0.52435 0.75813 0.7659 0.0
C1397 C 0.55507 0.77823 0.74284 0.0
C1398 C 0.578 0.8015 0.78842 0.0
C1399 C 0.60746 0.79624 0.79656 0.0
C1400 C 0.58957 0.83735 0.77402 0.0
C1401 C 0.55585 0.79108 0.84047 0.0
C1402 C 0.52499 0.76566 0.82635 0.0
C1403 C 0.50064 0.7511 0.86737 0.0
C1404 C 0.50742 0.76275 0.92281 0.0
C1405 C 0.53833 0.78962 0.93946 0.0
C1406 C 0.56298 0.8036 0.89639 0.0
H1407 H 0.80284 0.51147 0.6936 0.0
H1408 H 0.82283 0.60772 0.64406 0.0
H1409 H 0.81249 0.61912 0.73933 0.0
H1410 H 0.73643 0.49755 0.78794 0.0
H1411 H 0.74585 0.47511 0.83783 0.0
H1412 H 0.75639 0.47501 0.76678 0.0
H1413 H 0.81663 0.49653 0.7926 0.0
H1414 H 0.80561 0.49546 0.8639 0.0
H1415 H 0.83773 0.53276 0.83459 0.0
H1416 H 0.80049 0.62112 0.84559 0.0
H1417 H 0.78497 0.61224 0.94337 0.0
H1418 H 0.77016 0.51395 0.93088 0.0
C1419 C 0.80577 0.53528 0.70261 0.0
C1420 C 0.81481 0.55894 0.6588 0.0
C1421 C 0.81635 0.58891 0.67462 0.0
C1422 C 0.81058 0.59574 0.72971 0.0
C1423 C 0.80233 0.57235 0.77142 0.0
C1424 C 0.7996 0.54244 0.7583 0.0
C1425 C 0.78833 0.52083 0.81056 0.0
C1426 C 0.75467 0.4903 0.80027 0.0
C1427 C 0.81361 0.51077 0.82636 0.0
C1428 C 0.78606 0.54334 0.85554 0.0
C1429 C 0.79431 0.57302 0.83151 0.0
C1430 C 0.79405 0.5978 0.8639 0.0
C1431 C 0.78508 0.59249 0.92067 0.0
C1432 C 0.77621 0.56255 0.94806 0.0
C1433 C 0.77712 0.53763 0.91355 0.0
H1434 H 0.2879 0.84412 0.68764 0.0
H1435 H 0.20485 0.762 0.60953 0.0
H1436 H 0.17966 0.74216 0.70056 0.0
H1437 H 0.29191 0.79281 0.80055 0.0
H1438 H 0.30455 0.82383 0.8533 0.0
H1439 H 0.31614 0.83559 0.78305 0.0
H1440 H 0.28931 0.87174 0.78403 0.0
H1441 H 0.27918 0.86178 0.85534 0.0
H1442 H 0.24721 0.85458 0.80733 0.0
H1443 H 0.1606 0.73269 0.80389 0.0
H1444 H 0.15375 0.72915 0.90327 0.0
H1445 H 0.25409 0.8077 0.92402 0.0
C1446 C 0.2655 0.82103 0.68906 0.0
C1447 C 0.24988 0.80447 0.6382 0.0
C1448 C 0.2184 0.7758 0.6453 0.0
C1449 C 0.20364 0.76406 0.69791 0.0
C1450 C 0.2203 0.78021 0.74623 0.0
C1451 C 0.25107 0.80781 0.74242 0.0
C1452 C 0.26438 0.81919 0.80166 0.0
C1453 C 0.29613 0.81776 0.81012 0.0
C1454 C 0.27042 0.85393 0.81269 0.0
C1455 C 0.23628 0.79407 0.83922 0.0
C1456 C 0.21085 0.77239 0.80568 0.0
C1457 C 0.1812 0.74884 0.82965 0.0
C1458 C 0.17763 0.74647 0.88776 0.0
C1459 C 0.20348 0.76593 0.92515 0.0
C1460 C 0.23341 0.79104 0.8989 0.0
H1461 H 0.422 0.21491 0.67735 0.0
H1462 H 0.52184 0.29568 0.65896 0.0
H1463 H 0.53243 0.29059 0.75661 0.0
H1464 H 0.40971 0.23472 0.82186 0.0
H1465 H 0.38529 0.19224 0.84025 0.0
H1466 H 0.38635 0.20441 0.7699 0.0
H1467 H 0.40374 0.16167 0.74535 0.0
H1468 H 0.40691 0.15295 0.81616 0.0
H1469 H 0.44187 0.16675 0.77084 0.0
H1470 H 0.53172 0.28084 0.86224 0.0
H1471 H 0.52227 0.26142 0.95823 0.0
H1472 H 0.42444 0.18392 0.91434 0.0
C1473 C 0.44623 0.23153 0.69357 0.0
C1474 C 0.47099 0.25635 0.65817 0.0
C1475 C 0.50204 0.27697 0.68332 0.0
C1476 C 0.50834 0.27432 0.73963 0.0
C1477 C 0.48357 0.25066 0.77328 0.0
C1478 C 0.45316 0.22906 0.7509 0.0
C1479 C 0.43129 0.20532 0.79689 0.0
C1480 C 0.40123 0.20931 0.80771 0.0
C1481 C 0.42035 0.16958 0.78147 0.0
C1482 C 0.45404 0.21687 0.84797 0.0
C1483 C 0.48393 0.24357 0.83324 0.0
C1484 C 0.50835 0.25977 0.8734 0.0
C1485 C 0.50261 0.24863 0.92884 0.0
C1486 C 0.47268 0.22086 0.94626 0.0
C1487 C 0.44791 0.20508 0.90405 0.0
H1488 H 0.20775 0.40551 0.68908 0.0
H1489 H 0.2432 0.50868 0.66265 0.0
H1490 H 0.26025 0.52026 0.75983 0.0
H1491 H 0.1776 0.40047 0.83048 0.0
H1492 H 0.19132 0.37297 0.85299 0.0
H1493 H 0.18148 0.3734 0.78174 0.0
H1494 H 0.24011 0.38426 0.75677 0.0
H1495 H 0.24997 0.38538 0.82837 0.0
H1496 H 0.27552 0.41977 0.78503 0.0
H1497 H 0.26832 0.52033 0.8674 0.0
H1498 H 0.27643 0.51045 0.96417 0.0
H1499 H 0.24106 0.40832 0.92483 0.0
C1500 C 0.2192 0.43064 0.70348 0.0
C1501 C 0.22336 0.45612 0.6661 0.0
C1502 C 0.23894 0.4884 0.68868 0.0
C1503 C 0.24866 0.49526 0.74478 0.0
C1504 C 0.24316 0.46979 0.78061 0.0
C1505 C 0.22957 0.4381 0.76033 0.0
C1506 C 0.22819 0.41561 0.80751 0.0
C1507 C 0.19249 0.38895 0.81877 0.0
C1508 C 0.24972 0.40034 0.79359 0.0
C1509 C 0.24222 0.43916 0.85737 0.0
C1510 C 0.25025 0.4703 0.84086 0.0
C1511 C 0.26221 0.49591 0.87983 0.0
C1512 C 0.26658 0.48998 0.93568 0.0
C1513 C 0.25961 0.45862 0.95467 0.0
C1514 C 0.24701 0.43283 0.91364 0.0
H1515 H 0.73466 0.21113 0.69613 0.0
H1516 H 0.82285 0.21224 0.63888 0.0
H1517 H 0.84587 0.22689 0.73264 0.0
H1518 H 0.77582 0.27991 0.79097 0.0
H1519 H 0.74463 0.26374 0.84376 0.0
H1520 H 0.7335 0.25197 0.77315 0.0
H1521 H 0.70757 0.19049 0.79686 0.0
H1522 H 0.71678 0.20259 0.86779 0.0
H1523 H 0.73134 0.17745 0.8363 0.0
H1524 H 0.86031 0.24161 0.83806 0.0
H1525 H 0.86474 0.25593 0.93644 0.0
H1526 H 0.76779 0.2461 0.93202 0.0
C1527 C 0.75837 0.21342 0.70315 0.0
C1528 C 0.77603 0.20912 0.65759 0.0
C1529 C 0.80804 0.21474 0.67084 0.0
C1530 C 0.82147 0.22313 0.72501 0.0
C1531 C 0.80338 0.22668 0.76838 0.0
C1532 C 0.77239 0.22214 0.75789 0.0
C1533 C 0.75863 0.22871 0.81185 0.0
C1534 C 0.7528 0.25781 0.8045 0.0
C1535 C 0.72662 0.19797 0.82917 0.0
C1536 C 0.78624 0.23703 0.85445 0.0
C1537 C 0.81186 0.23571 0.82807 0.0
C1538 C 0.84009 0.2425 0.85824 0.0
C1539 C 0.84246 0.25074 0.91528 0.0
C1540 C 0.81702 0.25257 0.94485 0.0
C1541 C 0.78815 0.2451 0.91263 0.0
loop_
_geom_bond_atom_site_label_1
_geom_bond_atom_site_label_2
_geom_bond_distance
_geom_bond_site_symmetry_2
_ccdc_geom_bond_type
Zn0 N4 2.020 . S
Zn0 O8 2.019 . S
Zn0 N10 2.119 . S
Zn0 O18 1.975 . S
C1 N2 1.334 . S
C1 N5 1.336 . S
N2 C1 1.334 . S
N2 C3 1.333 1_554 S
C3 N2 1.333 1_556 S
C3 N4 1.336 . S
N4 Zn0 2.020 . S
N4 C3 1.336 . S
N4 N5 1.354 1_556 S
N5 C1 1.336 . S
N5 N4 1.354 1_554 S
N5 Zn9 2.020 . S
C6 O7 1.244 . S
C6 O30 1.257 . S
O7 C6 1.244 . S
O8 Zn0 2.019 . S
O8 C28 1.257 . S
Zn9 N5 2.020 . S
Zn9 O16 1.975 . S
Zn9 N25 2.119 . S
Zn9 O30 2.019 . S
N10 Zn0 2.119 . S
N10 C12 1.334 . S
N10 C13 1.328 . S
C11 C12 1.391 . S
C11 N14 1.329 . S
C11 H32 0.930 . S
C12 N10 1.334 . S
C12 C11 1.391 . S
C12 H19 0.930 . S
C13 N10 1.328 . S
C13 C15 1.392 . S
C13 H20 0.930 . S
N14 C11 1.329 . S
N14 C15 1.331 . S
C15 C13 1.392 . S
C15 N14 1.331 . S
O16 Zn9 1.975 . S
O16 C17 1.252 . S
C17 O16 1.252 . S
C17 O18 1.252 1_554 S
O18 Zn0 1.975 . S
O18 C17 1.252 1_556 S
H19 C12 0.930 . S
H20 C13 0.930 . S
C21 C22 1.392 . S
C21 N25 1.328 . S
C21 H27 0.930 . S
C22 C21 1.392 . S
C22 N26 1.331 . S
C23 C24 1.391 . S
C23 N26 1.329 . S
C23 H33 0.930 . S
C24 C23 1.391 . S
C24 N25 1.334 . S
C24 H31 0.930 . S
N25 Zn9 2.119 . S
N25 C21 1.328 . S
N25 C24 1.334 . S
N26 C22 1.331 . S
N26 C23 1.329 . S
H27 C21 0.930 . S
C28 O8 1.257 . S
C28 O29 1.244 . S
O29 C28 1.244 . S
O30 C6 1.257 . S
O30 Zn9 2.019 . S
H31 C24 0.930 . S
H32 C11 0.930 . S
H33 C23 0.930 . S
Zn34 N38 2.020 . S
Zn34 O42 2.019 . S
Zn34 N44 2.119 . S
Zn34 O52 1.975 . S
C35 N36 1.334 . S
C35 N39 1.336 . S
N36 C35 1.334 . S
N36 C37 1.333 1_554 S
C37 N36 1.333 1_556 S
C37 N38 1.336 . S
N38 Zn34 2.020 . S
N38 C37 1.336 . S
N38 N39 1.354 1_556 S
N39 C35 1.336 . S
N39 N38 1.354 1_554 S
N39 Zn43 2.020 . S
C40 O41 1.244 . S
C40 O64 1.257 . S
O41 C40 1.244 . S
O42 Zn34 2.019 . S
O42 C62 1.257 . S
Zn43 N39 2.020 . S
Zn43 O50 1.975 . S
Zn43 N59 2.119 . S
Zn43 O64 2.019 . S
N44 Zn34 2.119 . S
N44 C46 1.334 . S
N44 C47 1.328 . S
C45 C46 1.391 . S
C45 N48 1.329 . S
C45 H66 0.930 . S
C46 N44 1.334 . S
C46 C45 1.391 . S
C46 H53 0.930 . S
C47 N44 1.328 . S
C47 C49 1.392 . S
C47 H54 0.930 . S
N48 C45 1.329 . S
N48 C49 1.331 . S
C49 C47 1.392 . S
C49 N48 1.331 . S
O50 Zn43 1.975 . S
O50 C51 1.252 . S
C51 O50 1.252 . S
C51 O52 1.252 1_554 S
O52 Zn34 1.975 . S
O52 C51 1.252 1_556 S
H53 C46 0.930 . S
H54 C47 0.930 . S
C55 C56 1.392 . S
C55 N59 1.328 . S
C55 H61 0.930 . S
C56 C55 1.392 . S
C56 N60 1.331 . S
C57 C58 1.391 . S
C57 N60 1.329 . S
C57 H67 0.930 . S
C58 C57 1.391 . S
C58 N59 1.334 . S
C58 H65 0.930 . S
N59 Zn43 2.119 . S
N59 C55 1.328 . S
N59 C58 1.334 . S
N60 C56 1.331 . S
N60 C57 1.329 . S
H61 C55 0.930 . S
C62 O42 1.257 . S
C62 O63 1.244 . S
O63 C62 1.244 . S
O64 C40 1.257 . S
O64 Zn43 2.019 . S
H65 C58 0.930 . S
H66 C45 0.930 . S
H67 C57 0.930 . S
Zn68 N72 2.020 . S
Zn68 O76 2.019 . S
Zn68 N78 2.119 . S
Zn68 O86 1.975 . S
C69 N70 1.334 . S
C69 N73 1.336 . S
N70 C69 1.334 . S
N70 C71 1.333 1_554 S
C71 N70 1.333 1_556 S
C71 N72 1.336 . S
N72 Zn68 2.020 . S
N72 C71 1.336 . S
N72 N73 1.354 1_556 S
N73 C69 1.336 . S
N73 N72 1.354 1_554 S
N73 Zn77 2.020 . S
C74 O75 1.244 . S
C74 O98 1.257 . S
O75 C74 1.244 . S
O76 Zn68 2.019 . S
O76 C96 1.257 . S
Zn77 N73 2.020 . S
Zn77 O84 1.975 . S
Zn77 N93 2.119 . S
Zn77 O98 2.019 . S
N78 Zn68 2.119 . S
N78 C80 1.334 . S
N78 C81 1.328 . S
C79 C80 1.391 . S
C79 N82 1.329 . S
C79 H100 0.930 . S
C80 N78 1.334 . S
C80 C79 1.391 . S
C80 H87 0.930 . S
C81 N78 1.328 . S
C81 C83 1.392 . S
C81 H88 0.930 . S
N82 C79 1.329 . S
N82 C83 1.331 . S
C83 C81 1.392 . S
C83 N82 1.331 . S
O84 Zn77 1.975 . S
O84 C85 1.252 . S
C85 O84 1.252 . S
C85 O86 1.252 1_554 S
O86 Zn68 1.975 . S
O86 C85 1.252 1_556 S
H87 C80 0.930 . S
H88 C81 0.930 . S
C89 C90 1.392 . S
C89 N93 1.328 . S
C89 H95 0.930 . S
C90 C89 1.392 . S
C90 N94 1.331 . S
C91 C92 1.391 . S
C91 N94 1.329 . S
C91 H101 0.930 . S
C92 C91 1.391 . S
C92 N93 1.334 . S
C92 H99 0.930 . S
N93 Zn77 2.119 . S
N93 C89 1.328 . S
N93 C92 1.334 . S
N94 C90 1.331 . S
N94 C91 1.329 . S
H95 C89 0.930 . S
C96 O76 1.257 . S
C96 O97 1.244 . S
O97 C96 1.244 . S
O98 C74 1.257 . S
O98 Zn77 2.019 . S
H99 C92 0.930 . S
H100 C79 0.930 . S
H101 C91 0.930 . S
Zn102 N106 2.020 . S
Zn102 O110 2.019 . S
Zn102 N112 2.119 . S
Zn102 O120 1.975 . S
C103 N104 1.333 1_556 S
C103 N107 1.336 . S
N104 C103 1.333 1_554 S
N104 C105 1.334 . S
C105 N104 1.334 . S
C105 N106 1.336 . S
N106 Zn102 2.020 . S
N106 C105 1.336 . S
N106 N107 1.354 1_554 S
N107 C103 1.336 . S
N107 N106 1.354 1_556 S
N107 Zn111 2.020 . S
C108 O109 1.244 . S
C108 O132 1.257 . S
O109 C108 1.244 . S
O110 Zn102 2.019 . S
O110 C130 1.257 . S
Zn111 N107 2.020 . S
Zn111 O118 1.975 . S
Zn111 N127 2.119 . S
Zn111 O132 2.019 . S
N112 Zn102 2.119 . S
N112 C114 1.334 . S
N112 C115 1.328 . S
C113 C114 1.391 . S
C113 N116 1.329 . S
C113 H134 0.930 . S
C114 N112 1.334 . S
C114 C113 1.391 . S
C114 H121 0.930 . S
C115 N112 1.328 . S
C115 C117 1.392 . S
C115 H122 0.930 . S
N116 C113 1.329 . S
N116 C117 1.331 . S
C117 C115 1.392 . S
C117 N116 1.331 . S
O118 Zn111 1.975 . S
O118 C119 1.252 1_556 S
C119 O118 1.252 1_554 S
C119 O120 1.252 . S
O120 Zn102 1.975 . S
O120 C119 1.252 . S
H121 C114 0.930 . S
H122 C115 0.930 . S
C123 C124 1.392 . S
C123 N127 1.328 . S
C123 H129 0.930 . S
C124 C123 1.392 . S
C124 N128 1.331 . S
C125 C126 1.391 . S
C125 N128 1.329 . S
C125 H135 0.930 . S
C126 C125 1.391 . S
C126 N127 1.334 . S
C126 H133 0.930 . S
N127 Zn111 2.119 . S
N127 C123 1.328 . S
N127 C126 1.334 . S
N128 C124 1.331 . S
N128 C125 1.329 . S
H129 C123 0.930 . S
C130 O110 1.257 . S
C130 O131 1.244 . S
O131 C130 1.244 . S
O132 C108 1.257 . S
O132 Zn111 2.019 . S
H133 C126 0.930 . S
H134 C113 0.930 . S
H135 C125 0.930 . S
Zn136 N140 2.020 . S
Zn136 O144 2.019 . S
Zn136 N146 2.119 . S
Zn136 O154 1.975 . S
C137 N138 1.334 . S
C137 N141 1.336 . S
N138 C137 1.334 . S
N138 C139 1.333 1_554 S
C139 N138 1.333 1_556 S
C139 N140 1.336 . S
N140 Zn136 2.020 . S
N140 C139 1.336 . S
N140 N141 1.354 1_556 S
N141 C137 1.336 . S
N141 N140 1.354 1_554 S
N141 Zn145 2.020 . S
C142 O143 1.244 . S
C142 O166 1.257 . S
O143 C142 1.244 . S
O144 Zn136 2.019 . S
O144 C164 1.257 . S
Zn145 N141 2.020 . S
Zn145 O152 1.975 . S
Zn145 N161 2.119 . S
Zn145 O166 2.019 . S
N146 Zn136 2.119 . S
N146 C148 1.334 . S
N146 C149 1.328 . S
C147 C148 1.391 . S
C147 N150 1.329 . S
C147 H168 0.930 . S
C148 N146 1.334 . S
C148 C147 1.391 . S
C148 H155 0.930 . S
C149 N146 1.328 . S
C149 C151 1.392 . S
C149 H156 0.930 . S
N150 C147 1.329 . S
N150 C151 1.331 . S
C151 C149 1.392 . S
C151 N150 1.331 . S
O152 Zn145 1.975 . S
O152 C153 1.252 . S
C153 O152 1.252 . S
C153 O154 1.252 1_554 S
O154 Zn136 1.975 . S
O154 C153 1.252 1_556 S
H155 C148 0.930 . S
H156 C149 0.930 . S
C157 C158 1.392 . S
C157 N161 1.328 . S
C157 H163 0.930 . S
C158 C157 1.392 . S
C158 N162 1.331 . S
C159 C160 1.391 . S
C159 N162 1.329 . S
C159 H169 0.930 . S
C160 C159 1.391 . S
C160 N161 1.334 . S
C160 H167 0.930 . S
N161 Zn145 2.119 . S
N161 C157 1.328 . S
N161 C160 1.334 . S
N162 C158 1.331 . S
N162 C159 1.329 . S
H163 C157 0.930 . S
C164 O144 1.257 . S
C164 O165 1.244 . S
O165 C164 1.244 . S
O166 C142 1.257 . S
O166 Zn145 2.019 . S
H167 C160 0.930 . S
H168 C147 0.930 . S
H169 C159 0.930 . S
Zn170 N174 2.020 . S
Zn170 O178 2.019 . S
Zn170 N180 2.119 . S
Zn170 O188 1.975 . S
C171 N172 1.333 1_556 S
C171 N175 1.336 . S
N172 C171 1.333 1_554 S
N172 C173 1.334 . S
C173 N172 1.334 . S
C173 N174 1.336 . S
N174 Zn170 2.020 . S
N174 C173 1.336 . S
N174 N175 1.354 1_554 S
N175 C171 1.336 . S
N175 N174 1.354 1_556 S
N175 Zn179 2.020 . S
C176 O177 1.244 . S
C176 O200 1.257 . S
O177 C176 1.244 . S
O178 Zn170 2.019 . S
O178 C198 1.257 . S
Zn179 N175 2.020 . S
Zn179 O186 1.975 . S
Zn179 N195 2.119 . S
Zn179 O200 2.019 . S
N180 Zn170 2.119 . S
N180 C182 1.334 . S
N180 C183 1.328 . S
C181 C182 1.391 . S
C181 N184 1.329 . S
C181 H202 0.930 . S
C182 N180 1.334 . S
C182 C181 1.391 . S
C182 H189 0.930 . S
C183 N180 1.328 . S
C183 C185 1.392 . S
C183 H190 0.930 . S
N184 C181 1.329 . S
N184 C185 1.331 . S
C185 C183 1.392 . S
C185 N184 1.331 . S
O186 Zn179 1.975 . S
O186 C187 1.252 1_556 S
C187 O186 1.252 1_554 S
C187 O188 1.252 . S
O188 Zn170 1.975 . S
O188 C187 1.252 . S
H189 C182 0.930 . S
H190 C183 0.930 . S
C191 C192 1.392 . S
C191 N195 1.328 . S
C191 H197 0.930 . S
C192 C191 1.392 . S
C192 N196 1.331 . S
C193 C194 1.391 . S
C193 N196 1.329 . S
C193 H203 0.930 . S
C194 C193 1.391 . S
C194 N195 1.334 . S
C194 H201 0.930 . S
N195 Zn179 2.119 . S
N195 C191 1.328 . S
N195 C194 1.334 . S
N196 C192 1.331 . S
N196 C193 1.329 . S
H197 C191 0.930 . S
C198 O178 1.257 . S
C198 O199 1.244 . S
O199 C198 1.244 . S
O200 C176 1.257 . S
O200 Zn179 2.019 . S
H201 C194 0.930 . S
H202 C181 0.930 . S
H203 C193 0.930 . S
Zn204 N208 2.020 . S
Zn204 O212 2.019 . S
Zn204 N214 2.119 . S
Zn204 O222 1.975 . S
C205 N206 1.334 . S
C205 N209 1.336 . S
N206 C205 1.334 . S
N206 C207 1.334 . S
C207 N206 1.334 . S
C207 N208 1.336 . S
N208 Zn204 2.020 . S
N208 C207 1.336 . S
N208 N209 1.354 . S
N209 C205 1.336 . S
N209 N208 1.354 . S
N209 Zn213 2.020 . S
C210 O211 1.244 . S
C210 O234 1.257 . S
O211 C210 1.244 . S
O212 Zn204 2.019 . S
O212 C232 1.257 . S
Zn213 N209 2.020 . S
Zn213 O220 1.975 . S
Zn213 N229 2.119 . S
Zn213 O234 2.019 . S
N214 Zn204 2.119 . S
N214 C216 1.334 . S
N214 C217 1.328 . S
C215 C216 1.391 . S
C215 N218 1.329 . S
C215 H236 0.930 . S
C216 N214 1.334 . S
C216 C215 1.391 . S
C216 H223 0.930 . S
C217 N214 1.328 . S
C217 C219 1.392 . S
C217 H224 0.930 . S
N218 C215 1.329 . S
N218 C219 1.331 . S
C219 C217 1.392 . S
C219 N218 1.331 . S
O220 Zn213 1.975 . S
O220 C221 1.252 . S
C221 O220 1.252 . S
C221 O222 1.252 . S
O222 Zn204 1.975 . S
O222 C221 1.252 . S
H223 C216 0.930 . S
H224 C217 0.930 . S
C225 C226 1.392 . S
C225 N229 1.328 . S
C225 H231 0.930 . S
C226 C225 1.392 . S
C226 N230 1.331 . S
C227 C228 1.391 . S
C227 N230 1.329 . S
C227 H237 0.930 . S
C228 C227 1.391 . S
C228 N229 1.334 . S
C228 H235 0.930 . S
N229 Zn213 2.119 . S
N229 C225 1.328 . S
N229 C228 1.334 . S
N230 C226 1.331 . S
N230 C227 1.329 . S
H231 C225 0.930 . S
C232 O212 1.257 . S
C232 O233 1.244 . S
O233 C232 1.244 . S
O234 C210 1.257 . S
O234 Zn213 2.019 . S
H235 C228 0.930 . S
H236 C215 0.930 . S
H237 C227 0.930 . S
Zn238 N242 2.020 . S
Zn238 O246 2.019 . S
Zn238 N248 2.119 . S
Zn238 O256 1.975 . S
C239 N240 1.334 . S
C239 N243 1.336 . S
N240 C239 1.334 . S
N240 C241 1.334 . S
C241 N240 1.334 . S
C241 N242 1.336 . S
N242 Zn238 2.020 . S
N242 C241 1.336 . S
N242 N243 1.354 . S
N243 C239 1.336 . S
N243 N242 1.354 . S
N243 Zn247 2.020 . S
C244 O245 1.244 . S
C244 O268 1.257 . S
O245 C244 1.244 . S
O246 Zn238 2.019 . S
O246 C266 1.257 . S
Zn247 N243 2.020 . S
Zn247 O254 1.975 . S
Zn247 N263 2.119 . S
Zn247 O268 2.019 . S
N248 Zn238 2.119 . S
N248 C250 1.334 . S
N248 C251 1.328 . S
C249 C250 1.391 . S
C249 N252 1.329 . S
C249 H270 0.930 . S
C250 N248 1.334 . S
C250 C249 1.391 . S
C250 H257 0.930 . S
C251 N248 1.328 . S
C251 C253 1.392 . S
C251 H258 0.930 . S
N252 C249 1.329 . S
N252 C253 1.331 . S
C253 C251 1.392 . S
C253 N252 1.331 . S
O254 Zn247 1.975 . S
O254 C255 1.252 . S
C255 O254 1.252 . S
C255 O256 1.252 . S
O256 Zn238 1.975 . S
O256 C255 1.252 . S
H257 C250 0.930 . S
H258 C251 0.930 . S
C259 C260 1.392 . S
C259 N263 1.328 . S
C259 H265 0.930 . S
C260 C259 1.392 . S
C260 N264 1.331 . S
C261 C262 1.391 . S
C261 N264 1.329 . S
C261 H271 0.930 . S
C262 C261 1.391 . S
C262 N263 1.334 . S
C262 H269 0.930 . S
N263 Zn247 2.119 . S
N263 C259 1.328 . S
N263 C262 1.334 . S
N264 C260 1.331 . S
N264 C261 1.329 . S
H265 C259 0.930 . S
C266 O246 1.257 . S
C266 O267 1.244 . S
O267 C266 1.244 . S
O268 C244 1.257 . S
O268 Zn247 2.019 . S
H269 C262 0.930 . S
H270 C249 0.930 . S
H271 C261 0.930 . S
Zn272 N276 2.020 . S
Zn272 O280 2.019 . S
Zn272 N282 2.119 . S
Zn272 O290 1.975 . S
C273 N274 1.334 . S
C273 N277 1.336 . S
N274 C273 1.334 . S
N274 C275 1.334 . S
C275 N274 1.334 . S
C275 N276 1.336 . S
N276 Zn272 2.020 . S
N276 C275 1.336 . S
N276 N277 1.354 . S
N277 C273 1.336 . S
N277 N276 1.354 . S
N277 Zn281 2.020 . S
C278 O279 1.244 . S
C278 O302 1.257 . S
O279 C278 1.244 . S
O280 Zn272 2.019 . S
O280 C300 1.257 . S
Zn281 N277 2.020 . S
Zn281 O288 1.975 . S
Zn281 N297 2.119 . S
Zn281 O302 2.019 . S
N282 Zn272 2.119 . S
N282 C284 1.334 . S
N282 C285 1.328 . S
C283 C284 1.391 . S
C283 N286 1.329 . S
C283 H304 0.930 . S
C284 N282 1.334 . S
C284 C283 1.391 . S
C284 H291 0.930 . S
C285 N282 1.328 . S
C285 C287 1.392 . S
C285 H292 0.930 . S
N286 C283 1.329 . S
N286 C287 1.331 . S
C287 C285 1.392 . S
C287 N286 1.331 . S
O288 Zn281 1.975 . S
O288 C289 1.252 . S
C289 O288 1.252 . S
C289 O290 1.252 . S
O290 Zn272 1.975 . S
O290 C289 1.252 . S
H291 C284 0.930 . S
H292 C285 0.930 . S
C293 C294 1.392 . S
C293 N297 1.328 . S
C293 H299 0.930 . S
C294 C293 1.392 . S
C294 N298 1.331 . S
C295 C296 1.391 . S
C295 N298 1.329 . S
C295 H305 0.930 . S
C296 C295 1.391 . S
C296 N297 1.334 . S
C296 H303 0.930 . S
N297 Zn281 2.119 . S
N297 C293 1.328 . S
N297 C296 1.334 . S
N298 C294 1.331 . S
N298 C295 1.329 . S
H299 C293 0.930 . S
C300 O280 1.257 . S
C300 O301 1.244 . S
O301 C300 1.244 . S
O302 C278 1.257 . S
O302 Zn281 2.019 . S
H303 C296 0.930 . S
H304 C283 0.930 . S
H305 C295 0.930 . S
Zn306 N310 2.020 . S
Zn306 O314 2.019 . S
Zn306 N316 2.119 . S
Zn306 O324 1.975 . S
C307 N308 1.334 . S
C307 N311 1.336 . S
N308 C307 1.334 . S
N308 C309 1.334 . S
C309 N308 1.334 . S
C309 N310 1.336 . S
N310 Zn306 2.020 . S
N310 C309 1.336 . S
N310 N311 1.354 . S
N311 C307 1.336 . S
N311 N310 1.354 . S
N311 Zn315 2.020 . S
C312 O313 1.244 . S
C312 O336 1.257 . S
O313 C312 1.244 . S
O314 Zn306 2.019 . S
O314 C334 1.257 . S
Zn315 N311 2.020 . S
Zn315 O322 1.975 . S
Zn315 N331 2.119 . S
Zn315 O336 2.019 . S
N316 Zn306 2.119 . S
N316 C318 1.334 . S
N316 C319 1.328 . S
C317 C318 1.391 . S
C317 N320 1.329 . S
C317 H338 0.930 . S
C318 N316 1.334 . S
C318 C317 1.391 . S
C318 H325 0.930 . S
C319 N316 1.328 . S
C319 C321 1.392 . S
C319 H326 0.930 . S
N320 C317 1.329 . S
N320 C321 1.331 . S
C321 C319 1.392 . S
C321 N320 1.331 . S
O322 Zn315 1.975 . S
O322 C323 1.252 . S
C323 O322 1.252 . S
C323 O324 1.252 . S
O324 Zn306 1.975 . S
O324 C323 1.252 . S
H325 C318 0.930 . S
H326 C319 0.930 . S
C327 C328 1.392 . S
C327 N331 1.328 . S
C327 H333 0.930 . S
C328 C327 1.392 . S
C328 N332 1.331 . S
C329 C330 1.391 . S
C329 N332 1.329 . S
C329 H339 0.930 . S
C330 C329 1.391 . S
C330 N331 1.334 . S
C330 H337 0.930 . S
N331 Zn315 2.119 . S
N331 C327 1.328 . S
N331 C330 1.334 . S
N332 C328 1.331 . S
N332 C329 1.329 . S
H333 C327 0.930 . S
C334 O314 1.257 . S
C334 O335 1.244 . S
O335 C334 1.244 . S
O336 C312 1.257 . S
O336 Zn315 2.019 . S
H337 C330 0.930 . S
H338 C317 0.930 . S
H339 C329 0.930 . S
Zn340 N344 2.020 . S
Zn340 O348 2.019 . S
Zn340 N350 2.119 . S
Zn340 O358 1.975 . S
C341 N342 1.334 . S
C341 N345 1.336 . S
N342 C341 1.334 . S
N342 C343 1.334 . S
C343 N342 1.334 . S
C343 N344 1.336 . S
N344 Zn340 2.020 . S
N344 C343 1.336 . S
N344 N345 1.354 . S
N345 C341 1.336 . S
N345 N344 1.354 . S
N345 Zn349 2.020 . S
C346 O347 1.244 . S
C346 O370 1.257 . S
O347 C346 1.244 . S
O348 Zn340 2.019 . S
O348 C368 1.257 . S
Zn349 N345 2.020 . S
Zn349 O356 1.975 . S
Zn349 N365 2.119 . S
Zn349 O370 2.019 . S
N350 Zn340 2.119 . S
N350 C352 1.334 . S
N350 C353 1.328 . S
C351 C352 1.391 . S
C351 N354 1.329 . S
C351 H372 0.930 . S
C352 N350 1.334 . S
C352 C351 1.391 . S
C352 H359 0.930 . S
C353 N350 1.328 . S
C353 C355 1.392 . S
C353 H360 0.930 . S
N354 C351 1.329 . S
N354 C355 1.331 . S
C355 C353 1.392 . S
C355 N354 1.331 . S
O356 Zn349 1.975 . S
O356 C357 1.252 . S
C357 O356 1.252 . S
C357 O358 1.252 . S
O358 Zn340 1.975 . S
O358 C357 1.252 . S
H359 C352 0.930 . S
H360 C353 0.930 . S
C361 C362 1.392 . S
C361 N365 1.328 . S
C361 H367 0.930 . S
C362 C361 1.392 . S
C362 N366 1.331 . S
C363 C364 1.391 . S
C363 N366 1.329 . S
C363 H373 0.930 . S
C364 C363 1.391 . S
C364 N365 1.334 . S
C364 H371 0.930 . S
N365 Zn349 2.119 . S
N365 C361 1.328 . S
N365 C364 1.334 . S
N366 C362 1.331 . S
N366 C363 1.329 . S
H367 C361 0.930 . S
C368 O348 1.257 . S
C368 O369 1.244 . S
O369 C368 1.244 . S
O370 C346 1.257 . S
O370 Zn349 2.019 . S
H371 C364 0.930 . S
H372 C351 0.930 . S
H373 C363 0.930 . S
Zn374 N378 2.020 . S
Zn374 O382 2.019 . S
Zn374 N384 2.119 . S
Zn374 O392 1.975 . S
C375 N376 1.334 . S
C375 N379 1.336 . S
N376 C375 1.334 . S
N376 C377 1.334 . S
C377 N376 1.334 . S
C377 N378 1.336 . S
N378 Zn374 2.020 . S
N378 C377 1.336 . S
N378 N379 1.354 . S
N379 C375 1.336 . S
N379 N378 1.354 . S
N379 Zn383 2.020 . S
C380 O381 1.244 . S
C380 O404 1.257 . S
O381 C380 1.244 . S
O382 Zn374 2.019 . S
O382 C402 1.257 . S
Zn383 N379 2.020 . S
Zn383 O390 1.975 . S
Zn383 N399 2.119 . S
Zn383 O404 2.019 . S
N384 Zn374 2.119 . S
N384 C386 1.334 . S
N384 C387 1.328 . S
C385 C386 1.391 . S
C385 N388 1.329 . S
C385 H406 0.930 . S
C386 N384 1.334 . S
C386 C385 1.391 . S
C386 H393 0.930 . S
C387 N384 1.328 . S
C387 C389 1.392 . S
C387 H394 0.930 . S
N388 C385 1.329 . S
N388 C389 1.331 . S
C389 C387 1.392 . S
C389 N388 1.331 . S
O390 Zn383 1.975 . S
O390 C391 1.252 . S
C391 O390 1.252 . S
C391 O392 1.252 . S
O392 Zn374 1.975 . S
O392 C391 1.252 . S
H393 C386 0.930 . S
H394 C387 0.930 . S
C395 C396 1.392 . S
C395 N399 1.328 . S
C395 H401 0.930 . S
C396 C395 1.392 . S
C396 N400 1.331 . S
C397 C398 1.391 . S
C397 N400 1.329 . S
C397 H407 0.930 . S
C398 C397 1.391 . S
C398 N399 1.334 . S
C398 H405 0.930 . S
N399 Zn383 2.119 . S
N399 C395 1.328 . S
N399 C398 1.334 . S
N400 C396 1.331 . S
N400 C397 1.329 . S
H401 C395 0.930 . S
C402 O382 1.257 . S
C402 O403 1.244 . S
O403 C402 1.244 . S
O404 C380 1.257 . S
O404 Zn383 2.019 . S
H405 C398 0.930 . S
H406 C385 0.930 . S
H407 C397 0.930 . S
H408 C420 0.930 . S
H409 C422 0.930 . S
H410 C423 0.930 1_565 S
H411 C427 0.959 . S
H412 C427 0.959 . S
H413 C427 0.961 . S
H414 C428 0.960 . S
H415 C428 0.961 . S
H416 C428 0.959 . S
H417 C431 0.929 . S
H418 C432 0.931 . S
H419 C434 0.930 . S
C420 H408 0.930 . S
C420 C421 1.399 . S
C420 C425 1.399 . S
C421 C420 1.399 . S
C421 C422 1.376 . S
C422 H409 0.930 . S
C422 C421 1.376 . S
C422 C423 1.388 . S
C423 H410 0.930 1_545 S
C423 C422 1.388 . S
C423 C424 1.390 . S
C424 C423 1.390 . S
C424 C425 1.394 . S
C424 C430 1.465 1_545 S
C425 C420 1.399 . S
C425 C424 1.394 . S
C425 C426 1.516 . S
C426 C425 1.516 . S
C426 C427 1.502 . S
C426 C428 1.561 . S
C426 C429 1.526 1_545 S
C427 H411 0.959 . S
C427 H412 0.959 . S
C427 H413 0.961 . S
C427 C426 1.502 . S
C428 H414 0.960 . S
C428 H415 0.961 . S
C428 H416 0.959 . S
C428 C426 1.561 . S
C429 C426 1.526 1_565 S
C429 C430 1.396 . S
C429 C434 1.390 . S
C430 C424 1.465 1_565 S
C430 C429 1.396 . S
C430 C431 1.399 . S
C431 H417 0.929 . S
C431 C430 1.399 . S
C431 C432 1.385 . S
C432 H418 0.931 . S
C432 C431 1.385 . S
C432 C433 1.389 . S
C433 C432 1.389 . S
C433 C434 1.387 . S
C434 H419 0.930 . S
C434 C429 1.390 . S
C434 C433 1.387 . S
H435 C447 0.930 . S
H436 C449 0.930 . S
H437 C450 0.930 . S
H438 C454 0.959 . S
H439 C454 0.959 . S
H440 C454 0.961 . S
H441 C455 0.960 . S
H442 C455 0.961 . S
H443 C455 0.959 . S
H444 C458 0.929 . S
H445 C459 0.931 . S
H446 C461 0.930 . S
C447 H435 0.930 . S
C447 C448 1.399 . S
C447 C452 1.399 . S
C448 C447 1.399 . S
C448 C449 1.376 . S
C449 H436 0.930 . S
C449 C448 1.376 . S
C449 C450 1.388 . S
C450 H437 0.930 . S
C450 C449 1.388 . S
C450 C451 1.390 . S
C451 C450 1.390 . S
C451 C452 1.394 . S
C451 C457 1.465 . S
C452 C447 1.399 . S
C452 C451 1.394 . S
C452 C453 1.516 . S
C453 C452 1.516 . S
C453 C454 1.502 . S
C453 C455 1.561 . S
C453 C456 1.526 . S
C454 H438 0.959 . S
C454 H439 0.959 . S
C454 H440 0.961 . S
C454 C453 1.502 . S
C455 H441 0.960 . S
C455 H442 0.961 . S
C455 H443 0.959 . S
C455 C453 1.561 . S
C456 C453 1.526 . S
C456 C457 1.396 . S
C456 C461 1.390 . S
C457 C451 1.465 . S
C457 C456 1.396 . S
C457 C458 1.399 . S
C458 H444 0.929 . S
C458 C457 1.399 . S
C458 C459 1.385 . S
C459 H445 0.931 . S
C459 C458 1.385 . S
C459 C460 1.389 . S
C460 C459 1.389 . S
C460 C461 1.387 . S
C461 H446 0.930 . S
C461 C456 1.390 . S
C461 C460 1.387 . S
H462 C474 0.930 . S
H463 C476 0.930 . S
H464 C477 0.930 . S
H465 C481 0.959 . S
H466 C481 0.959 . S
H467 C481 0.961 1_455 S
H468 C482 0.960 . S
H469 C482 0.961 . S
H470 C482 0.959 . S
H471 C485 0.929 . S
H472 C486 0.931 . S
H473 C488 0.930 . S
C474 H462 0.930 . S
C474 C475 1.399 . S
C474 C479 1.399 . S
C475 C474 1.399 . S
C475 C476 1.376 . S
C476 H463 0.930 . S
C476 C475 1.376 . S
C476 C477 1.388 . S
C477 H464 0.930 . S
C477 C476 1.388 . S
C477 C478 1.390 . S
C478 C477 1.390 . S
C478 C479 1.394 . S
C478 C484 1.465 1_455 S
C479 C474 1.399 . S
C479 C478 1.394 . S
C479 C480 1.516 . S
C480 C479 1.516 . S
C480 C481 1.502 1_455 S
C480 C482 1.561 . S
C480 C483 1.526 1_455 S
C481 H465 0.959 . S
C481 H466 0.959 . S
C481 H467 0.961 1_655 S
C481 C480 1.502 1_655 S
C482 H468 0.960 . S
C482 H469 0.961 . S
C482 H470 0.959 . S
C482 C480 1.561 . S
C483 C480 1.526 1_655 S
C483 C484 1.396 . S
C483 C488 1.390 . S
C484 C478 1.465 1_655 S
C484 C483 1.396 . S
C484 C485 1.399 . S
C485 H471 0.929 . S
C485 C484 1.399 . S
C485 C486 1.385 . S
C486 H472 0.931 . S
C486 C485 1.385 . S
C486 C487 1.389 . S
C487 C486 1.389 . S
C487 C488 1.387 . S
C488 H473 0.930 . S
C488 C483 1.390 . S
C488 C487 1.387 . S
H489 C501 0.930 . S
H490 C503 0.930 . S
H491 C504 0.930 . S
H492 C508 0.959 . S
H493 C508 0.959 . S
H494 C508 0.961 . S
H495 C509 0.960 . S
H496 C509 0.961 . S
H497 C509 0.959 . S
H498 C512 0.929 . S
H499 C513 0.931 . S
H500 C515 0.930 . S
C501 H489 0.930 . S
C501 C502 1.399 . S
C501 C506 1.399 . S
C502 C501 1.399 . S
C502 C503 1.376 . S
C503 H490 0.930 . S
C503 C502 1.376 . S
C503 C504 1.388 . S
C504 H491 0.930 . S
C504 C503 1.388 . S
C504 C505 1.390 . S
C505 C504 1.390 . S
C505 C506 1.394 . S
C505 C511 1.465 1_565 S
C506 C501 1.399 . S
C506 C505 1.394 . S
C506 C507 1.516 1_565 S
C507 C506 1.516 1_545 S
C507 C508 1.502 . S
C507 C509 1.561 1_545 S
C507 C510 1.526 . S
C508 H492 0.959 . S
C508 H493 0.959 . S
C508 H494 0.961 . S
C508 C507 1.502 . S
C509 H495 0.960 . S
C509 H496 0.961 . S
C509 H497 0.959 . S
C509 C507 1.561 1_565 S
C510 C507 1.526 . S
C510 C511 1.396 . S
C510 C515 1.390 . S
C511 C505 1.465 1_545 S
C511 C510 1.396 . S
C511 C512 1.399 . S
C512 H498 0.929 . S
C512 C511 1.399 . S
C512 C513 1.385 . S
C513 H499 0.931 . S
C513 C512 1.385 . S
C513 C514 1.389 . S
C514 C513 1.389 . S
C514 C515 1.387 . S
C515 H500 0.930 . S
C515 C510 1.390 . S
C515 C514 1.387 . S
H516 C528 0.930 . S
H517 C530 0.930 . S
H518 C531 0.930 . S
H519 C535 0.959 . S
H520 C535 0.959 . S
H521 C535 0.961 . S
H522 C536 0.960 . S
H523 C536 0.961 . S
H524 C536 0.959 . S
H525 C539 0.929 . S
H526 C540 0.931 . S
H527 C542 0.930 . S
C528 H516 0.930 . S
C528 C529 1.399 . S
C528 C533 1.399 . S
C529 C528 1.399 . S
C529 C530 1.376 . S
C530 H517 0.930 . S
C530 C529 1.376 . S
C530 C531 1.388 . S
C531 H518 0.930 . S
C531 C530 1.388 . S
C531 C532 1.390 . S
C532 C531 1.390 . S
C532 C533 1.394 . S
C532 C538 1.465 . S
C533 C528 1.399 . S
C533 C532 1.394 . S
C533 C534 1.516 . S
C534 C533 1.516 . S
C534 C535 1.502 . S
C534 C536 1.561 . S
C534 C537 1.526 . S
C535 H519 0.959 . S
C535 H520 0.959 . S
C535 H521 0.961 . S
C535 C534 1.502 . S
C536 H522 0.960 . S
C536 H523 0.961 . S
C536 H524 0.959 . S
C536 C534 1.561 . S
C537 C534 1.526 . S
C537 C538 1.396 . S
C537 C542 1.390 . S
C538 C532 1.465 . S
C538 C537 1.396 . S
C538 C539 1.399 . S
C539 H525 0.929 . S
C539 C538 1.399 . S
C539 C540 1.385 . S
C540 H526 0.931 . S
C540 C539 1.385 . S
C540 C541 1.389 . S
C541 C540 1.389 . S
C541 C542 1.387 . S
C542 H527 0.930 . S
C542 C537 1.390 . S
C542 C541 1.387 . S
H543 C555 0.930 . S
H544 C557 0.930 . S
H545 C558 0.930 . S
H546 C562 0.955 1_655 S
H547 C562 0.963 . S
H548 C562 0.954 1_655 S
H549 C563 0.960 . S
H550 C563 0.961 . S
H551 C563 0.959 . S
H552 C566 0.929 . S
H553 C567 0.931 . S
H554 C569 0.930 . S
C555 H543 0.930 . S
C555 C556 1.399 . S
C555 C560 1.399 . S
C556 C555 1.399 . S
C556 C557 1.376 . S
C557 H544 0.930 . S
C557 C556 1.376 . S
C557 C558 1.388 . S
C558 H545 0.930 . S
C558 C557 1.388 . S
C558 C559 1.390 . S
C559 C558 1.390 . S
C559 C560 1.394 . S
C559 C565 1.465 1_655 S
C560 C555 1.399 . S
C560 C559 1.394 . S
C560 C561 1.516 1_655 S
C561 C560 1.516 1_455 S
C561 C562 1.509 . S
C561 C563 1.561 . S
C561 C564 1.526 . S
C562 H546 0.955 1_455 S
C562 H547 0.963 . S
C562 H548 0.954 1_455 S
C562 C561 1.509 . S
C563 H549 0.960 . S
C563 H550 0.961 . S
C563 H551 0.959 . S
C563 C561 1.561 . S
C564 C561 1.526 . S
C564 C565 1.396 . S
C564 C569 1.390 . S
C565 C559 1.465 1_455 S
C565 C564 1.396 . S
C565 C566 1.399 . S
C566 H552 0.929 . S
C566 C565 1.399 . S
C566 C567 1.385 . S
C567 H553 0.931 . S
C567 C566 1.385 . S
C567 C568 1.389 . S
C568 C567 1.389 . S
C568 C569 1.387 . S
C569 H554 0.930 . S
C569 C564 1.390 . S
C569 C568 1.387 . S
H570 C582 0.930 . S
H571 C584 0.930 . S
H572 C585 0.930 . S
H573 C589 0.959 . S
H574 C589 0.959 . S
H575 C589 0.961 . S
H576 C590 0.960 . S
H577 C590 0.961 . S
H578 C590 0.959 . S
H579 C593 0.929 1_545 S
H580 C594 0.931 . S
H581 C596 0.930 . S
C582 H570 0.930 . S
C582 C583 1.399 . S
C582 C587 1.399 . S
C583 C582 1.399 . S
C583 C584 1.376 . S
C584 H571 0.930 . S
C584 C583 1.376 . S
C584 C585 1.388 . S
C585 H572 0.930 . S
C585 C584 1.388 . S
C585 C586 1.390 . S
C586 C585 1.390 . S
C586 C587 1.394 . S
C586 C592 1.465 1_545 S
C587 C582 1.399 . S
C587 C586 1.394 . S
C587 C588 1.516 1_545 S
C588 C587 1.516 1_565 S
C588 C589 1.502 . S
C588 C590 1.561 . S
C588 C591 1.526 . S
C589 H573 0.959 . S
C589 H574 0.959 . S
C589 H575 0.961 . S
C589 C588 1.502 . S
C590 H576 0.960 . S
C590 H577 0.961 . S
C590 H578 0.959 . S
C590 C588 1.561 . S
C591 C588 1.526 . S
C591 C592 1.396 . S
C591 C596 1.390 . S
C592 C586 1.465 1_565 S
C592 C591 1.396 . S
C592 C593 1.399 . S
C593 H579 0.929 1_565 S
C593 C592 1.399 . S
C593 C594 1.385 . S
C594 H580 0.931 . S
C594 C593 1.385 . S
C594 C595 1.389 . S
C595 C594 1.389 . S
C595 C596 1.387 . S
C596 H581 0.930 . S
C596 C591 1.390 . S
C596 C595 1.387 . S
H597 C609 0.930 . S
H598 C611 0.930 . S
H599 C612 0.930 . S
H600 C616 0.959 . S
H601 C616 0.959 . S
H602 C616 0.961 . S
H603 C617 0.960 . S
H604 C617 0.961 . S
H605 C617 0.959 . S
H606 C620 0.929 . S
H607 C621 0.931 . S
H608 C623 0.930 . S
C609 H597 0.930 . S
C609 C610 1.399 . S
C609 C614 1.399 . S
C610 C609 1.399 . S
C610 C611 1.376 . S
C611 H598 0.930 . S
C611 C610 1.376 . S
C611 C612 1.388 . S
C612 H599 0.930 . S
C612 C611 1.388 . S
C612 C613 1.390 . S
C613 C612 1.390 . S
C613 C614 1.394 . S
C613 C619 1.465 . S
C614 C609 1.399 . S
C614 C613 1.394 . S
C614 C615 1.516 . S
C615 C614 1.516 . S
C615 C616 1.502 . S
C615 C617 1.561 . S
C615 C618 1.526 . S
C616 H600 0.959 . S
C616 H601 0.959 . S
C616 H602 0.961 . S
C616 C615 1.502 . S
C617 H603 0.960 . S
C617 H604 0.961 . S
C617 H605 0.959 . S
C617 C615 1.561 . S
C618 C615 1.526 . S
C618 C619 1.396 . S
C618 C623 1.390 . S
C619 C613 1.465 . S
C619 C618 1.396 . S
C619 C620 1.399 . S
C620 H606 0.929 . S
C620 C619 1.399 . S
C620 C621 1.385 . S
C621 H607 0.931 . S
C621 C620 1.385 . S
C621 C622 1.389 . S
C622 C621 1.389 . S
C622 C623 1.387 . S
C623 H608 0.930 . S
C623 C618 1.390 . S
C623 C622 1.387 . S
H624 C636 0.930 . S
H625 C638 0.930 . S
H626 C639 0.930 . S
H627 C643 0.939 1_655 S
H628 C643 0.938 1_655 S
H629 C643 0.977 . S
H630 C644 0.960 . S
H631 C644 0.961 . S
H632 C644 0.959 . S
H633 C647 0.929 . S
H634 C648 0.931 . S
H635 C650 0.930 . S
C636 H624 0.930 . S
C636 C637 1.399 . S
C636 C641 1.399 . S
C637 C636 1.399 . S
C637 C638 1.376 . S
C638 H625 0.930 . S
C638 C637 1.376 . S
C638 C639 1.388 . S
C639 H626 0.930 . S
C639 C638 1.388 . S
C639 C640 1.390 . S
C640 C639 1.390 . S
C640 C641 1.394 . S
C640 C646 1.465 1_455 S
C641 C636 1.399 . S
C641 C640 1.394 . S
C641 C642 1.516 . S
C642 C641 1.516 . S
C642 C643 1.529 . S
C642 C644 1.561 . S
C642 C645 1.526 1_455 S
C643 H627 0.939 1_455 S
C643 H628 0.938 1_455 S
C643 H629 0.977 . S
C643 C642 1.529 . S
C644 H630 0.960 . S
C644 H631 0.961 . S
C644 H632 0.959 . S
C644 C642 1.561 . S
C645 C642 1.526 1_655 S
C645 C646 1.396 . S
C645 C650 1.390 . S
C646 C640 1.465 1_655 S
C646 C645 1.396 . S
C646 C647 1.399 . S
C647 H633 0.929 . S
C647 C646 1.399 . S
C647 C648 1.385 . S
C648 H634 0.931 . S
C648 C647 1.385 . S
C648 C649 1.389 . S
C649 C648 1.389 . S
C649 C650 1.387 . S
C650 H635 0.930 . S
C650 C645 1.390 . S
C650 C649 1.387 . S
H651 C663 0.930 . S
H652 C665 0.930 . S
H653 C666 0.899 1_565 S
H654 C670 0.959 . S
H655 C670 0.959 . S
H656 C670 0.961 . S
H657 C671 0.960 . S
H658 C671 0.961 . S
H659 C671 0.959 . S
H660 C674 0.929 . S
H661 C675 0.931 . S
H662 C677 0.930 . S
C663 H651 0.930 . S
C663 C664 1.399 . S
C663 C668 1.399 . S
C664 C663 1.399 . S
C664 C665 1.376 . S
C665 H652 0.930 . S
C665 C664 1.376 . S
C665 C666 1.420 . S
C666 H653 0.899 1_545 S
C666 C665 1.420 . S
C666 C667 1.391 . S
C667 C666 1.391 . S
C667 C668 1.394 . S
C667 C673 1.465 1_545 S
C668 C663 1.399 . S
C668 C667 1.394 . S
C668 C669 1.516 . S
C669 C668 1.516 . S
C669 C670 1.502 . S
C669 C671 1.561 . S
C669 C672 1.526 1_545 S
C670 H654 0.959 . S
C670 H655 0.959 . S
C670 H656 0.961 . S
C670 C669 1.502 . S
C671 H657 0.960 . S
C671 H658 0.961 . S
C671 H659 0.959 . S
C671 C669 1.561 . S
C672 C669 1.526 1_565 S
C672 C673 1.396 . S
C672 C677 1.390 . S
C673 C667 1.465 1_565 S
C673 C672 1.396 . S
C673 C674 1.399 . S
C674 H660 0.929 . S
C674 C673 1.399 . S
C674 C675 1.385 . S
C675 H661 0.931 . S
C675 C674 1.385 . S
C675 C676 1.389 . S
C676 C675 1.389 . S
C676 C677 1.387 . S
C677 H662 0.930 . S
C677 C672 1.390 . S
C677 C676 1.387 . S
H678 C690 0.930 . S
H679 C692 0.930 . S
H680 C693 0.930 . S
H681 C697 0.959 . S
H682 C697 0.959 . S
H683 C697 0.961 . S
H684 C698 0.960 . S
H685 C698 0.961 . S
H686 C698 0.959 . S
H687 C701 0.929 . S
H688 C702 0.931 . S
H689 C704 0.930 . S
C690 H678 0.930 . S
C690 C691 1.399 . S
C690 C695 1.399 . S
C691 C690 1.399 . S
C691 C692 1.376 . S
C692 H679 0.930 . S
C692 C691 1.376 . S
C692 C693 1.388 . S
C693 H680 0.930 . S
C693 C692 1.388 . S
C693 C694 1.390 . S
C694 C693 1.390 . S
C694 C695 1.394 . S
C694 C700 1.465 . S
C695 C690 1.399 . S
C695 C694 1.394 . S
C695 C696 1.516 . S
C696 C695 1.516 . S
C696 C697 1.502 . S
C696 C698 1.561 . S
C696 C699 1.526 . S
C697 H681 0.959 . S
C697 H682 0.959 . S
C697 H683 0.961 . S
C697 C696 1.502 . S
C698 H684 0.960 . S
C698 H685 0.961 . S
C698 H686 0.959 . S
C698 C696 1.561 . S
C699 C696 1.526 . S
C699 C700 1.396 . S
C699 C704 1.390 . S
C700 C694 1.465 . S
C700 C699 1.396 . S
C700 C701 1.399 . S
C701 H687 0.929 . S
C701 C700 1.399 . S
C701 C702 1.385 . S
C702 H688 0.931 . S
C702 C701 1.385 . S
C702 C703 1.389 . S
C703 C702 1.389 . S
C703 C704 1.387 . S
C704 H689 0.930 . S
C704 C699 1.390 . S
C704 C703 1.387 . S
H705 C717 0.930 . S
H706 C719 0.930 . S
H707 C720 0.930 1_655 S
H708 C724 0.959 . S
H709 C724 0.959 . S
H710 C724 0.961 . S
H711 C725 0.960 . S
H712 C725 0.961 . S
H713 C725 0.959 1_655 S
H714 C728 0.929 . S
H715 C729 0.931 . S
H716 C731 0.930 . S
C717 H705 0.930 . S
C717 C718 1.399 . S
C717 C722 1.399 . S
C718 C717 1.399 . S
C718 C719 1.376 . S
C719 H706 0.930 . S
C719 C718 1.376 . S
C719 C720 1.388 . S
C720 H707 0.930 1_455 S
C720 C719 1.388 . S
C720 C721 1.390 . S
C721 C720 1.390 . S
C721 C722 1.394 . S
C721 C727 1.465 1_455 S
C722 C717 1.399 . S
C722 C721 1.394 . S
C722 C723 1.516 . S
C723 C722 1.516 . S
C723 C724 1.502 . S
C723 C725 1.561 . S
C723 C726 1.526 1_455 S
C724 H708 0.959 . S
C724 H709 0.959 . S
C724 H710 0.961 . S
C724 C723 1.502 . S
C725 H711 0.960 . S
C725 H712 0.961 . S
C725 H713 0.959 1_455 S
C725 C723 1.561 . S
C726 C723 1.526 1_655 S
C726 C727 1.396 . S
C726 C731 1.390 . S
C727 C721 1.465 1_655 S
C727 C726 1.396 . S
C727 C728 1.399 . S
C728 H714 0.929 . S
C728 C727 1.399 . S
C728 C729 1.385 . S
C729 H715 0.931 . S
C729 C728 1.385 . S
C729 C730 1.389 . S
C730 C729 1.389 . S
C730 C731 1.387 . S
C731 H716 0.930 . S
C731 C726 1.390 . S
C731 C730 1.387 . S
H732 C744 0.930 . S
H733 C746 0.930 . S
H734 C747 0.930 . S
H735 C751 0.959 . S
H736 C751 0.959 1_545 S
H737 C751 0.961 . S
H738 C752 0.960 . S
H739 C752 0.961 . S
H740 C752 0.959 . S
H741 C755 0.929 . S
H742 C756 0.931 . S
H743 C758 0.930 . S
C744 H732 0.930 . S
C744 C745 1.399 1_554 S
C744 C749 1.399 . S
C745 C744 1.399 1_556 S
C745 C746 1.376 . S
C746 H733 0.930 . S
C746 C745 1.376 . S
C746 C747 1.388 . S
C747 H734 0.930 . S
C747 C746 1.388 . S
C747 C748 1.390 . S
C748 C747 1.390 . S
C748 C749 1.394 1_556 S
C748 C754 1.465 1_565 S
C749 C744 1.399 . S
C749 C748 1.394 1_554 S
C749 C750 1.516 1_565 S
C750 C749 1.516 1_545 S
C750 C751 1.502 1_545 S
C750 C752 1.561 . S
C750 C753 1.526 . S
C751 H735 0.959 . S
C751 H736 0.959 1_565 S
C751 H737 0.961 . S
C751 C750 1.502 1_565 S
C752 H738 0.960 . S
C752 H739 0.961 . S
C752 H740 0.959 . S
C752 C750 1.561 . S
C753 C750 1.526 . S
C753 C754 1.396 1_554 S
C753 C758 1.390 . S
C754 C748 1.465 1_545 S
C754 C753 1.396 1_556 S
C754 C755 1.399 . S
C755 H741 0.929 . S
C755 C754 1.399 . S
C755 C756 1.385 . S
C756 H742 0.931 . S
C756 C755 1.385 . S
C756 C757 1.389 . S
C757 C756 1.389 . S
C757 C758 1.387 1_556 S
C758 H743 0.930 . S
C758 C753 1.390 . S
C758 C757 1.387 1_554 S
H759 C771 0.930 . S
H760 C773 0.930 . S
H761 C774 0.930 . S
H762 C778 0.959 . S
H763 C778 0.959 . S
H764 C778 0.961 . S
H765 C779 0.960 . S
H766 C779 0.961 . S
H767 C779 0.959 . S
H768 C782 0.929 . S
H769 C783 0.931 . S
H770 C785 0.930 . S
C771 H759 0.930 . S
C771 C772 1.399 1_554 S
C771 C776 1.399 . S
C772 C771 1.399 1_556 S
C772 C773 1.376 . S
C773 H760 0.930 . S
C773 C772 1.376 . S
C773 C774 1.388 . S
C774 H761 0.930 . S
C774 C773 1.388 . S
C774 C775 1.390 . S
C775 C774 1.390 . S
C775 C776 1.394 1_556 S
C775 C781 1.465 . S
C776 C771 1.399 . S
C776 C775 1.394 1_554 S
C776 C777 1.516 . S
C777 C776 1.516 . S
C777 C778 1.502 . S
C777 C779 1.561 . S
C777 C780 1.526 . S
C778 H762 0.959 . S
C778 H763 0.959 . S
C778 H764 0.961 . S
C778 C777 1.502 . S
C779 H765 0.960 . S
C779 H766 0.961 . S
C779 H767 0.959 . S
C779 C777 1.561 . S
C780 C777 1.526 . S
C780 C781 1.396 1_554 S
C780 C785 1.390 . S
C781 C775 1.465 . S
C781 C780 1.396 1_556 S
C781 C782 1.399 . S
C782 H768 0.929 . S
C782 C781 1.399 . S
C782 C783 1.385 . S
C783 H769 0.931 . S
C783 C782 1.385 . S
C783 C784 1.389 . S
C784 C783 1.389 . S
C784 C785 1.387 1_556 S
C785 H770 0.930 . S
C785 C780 1.390 . S
C785 C784 1.387 1_554 S
H786 C798 0.930 . S
H787 C800 0.930 . S
H788 C801 0.930 . S
H789 C805 0.959 . S
H790 C805 0.959 . S
H791 C805 0.961 . S
H792 C806 0.958 1_556 S
H793 C806 0.961 1_556 S
H794 C806 0.959 . S
H795 C809 0.929 . S
H796 C810 0.931 . S
H797 C812 0.930 . S
C798 H786 0.930 . S
C798 C799 1.399 1_556 S
C798 C803 1.399 . S
C799 C798 1.399 1_554 S
C799 C800 1.376 . S
C800 H787 0.930 . S
C800 C799 1.376 . S
C800 C801 1.388 1_455 S
C801 H788 0.930 . S
C801 C800 1.388 1_655 S
C801 C802 1.390 1_655 S
C802 C801 1.390 1_455 S
C802 C803 1.394 1_554 S
C802 C808 1.465 1_455 S
C803 C798 1.399 . S
C803 C802 1.394 1_556 S
C803 C804 1.516 . S
C804 C803 1.516 . S
C804 C805 1.502 . S
C804 C806 1.561 1_556 S
C804 C807 1.526 1_455 S
C805 H789 0.959 . S
C805 H790 0.959 . S
C805 H791 0.961 . S
C805 C804 1.502 . S
C806 H792 0.958 1_554 S
C806 H793 0.961 1_554 S
C806 H794 0.959 . S
C806 C804 1.561 1_554 S
C807 C804 1.526 1_655 S
C807 C808 1.396 1_556 S
C807 C812 1.390 . S
C808 C802 1.465 1_655 S
C808 C807 1.396 1_554 S
C808 C809 1.399 . S
C809 H795 0.929 . S
C809 C808 1.399 . S
C809 C810 1.385 . S
C810 H796 0.931 . S
C810 C809 1.385 . S
C810 C811 1.389 . S
C811 C810 1.389 . S
C811 C812 1.387 1_554 S
C812 H797 0.930 . S
C812 C807 1.390 . S
C812 C811 1.387 1_556 S
H813 C825 0.930 . S
H814 C827 0.930 . S
H815 C828 0.930 . S
H816 C832 0.959 . S
H817 C832 0.959 1_455 S
H818 C832 0.961 . S
H819 C833 0.960 . S
H820 C833 0.961 . S
H821 C833 0.959 . S
H822 C836 0.929 . S
H823 C837 0.931 . S
H824 C839 0.930 . S
C825 H813 0.930 . S
C825 C826 1.399 . S
C825 C830 1.399 . S
C826 C825 1.399 . S
C826 C827 1.376 . S
C827 H814 0.930 . S
C827 C826 1.376 . S
C827 C828 1.388 . S
C828 H815 0.930 . S
C828 C827 1.388 . S
C828 C829 1.390 . S
C829 C828 1.390 . S
C829 C830 1.394 . S
C829 C835 1.465 1_655 S
C830 C825 1.399 . S
C830 C829 1.394 . S
C830 C831 1.516 1_655 S
C831 C830 1.516 1_455 S
C831 C832 1.502 1_455 S
C831 C833 1.561 . S
C831 C834 1.526 . S
C832 H816 0.959 . S
C832 H817 0.959 1_655 S
C832 H818 0.961 . S
C832 C831 1.502 1_655 S
C833 H819 0.960 . S
C833 H820 0.961 . S
C833 H821 0.959 . S
C833 C831 1.561 . S
C834 C831 1.526 . S
C834 C835 1.396 . S
C834 C839 1.390 . S
C835 C829 1.465 1_455 S
C835 C834 1.396 . S
C835 C836 1.399 . S
C836 H822 0.929 . S
C836 C835 1.399 . S
C836 C837 1.385 . S
C837 H823 0.931 . S
C837 C836 1.385 . S
C837 C838 1.389 . S
C838 C837 1.389 . S
C838 C839 1.387 . S
C839 H824 0.930 . S
C839 C834 1.390 . S
C839 C838 1.387 . S
H840 C852 0.930 . S
H841 C854 0.930 . S
H842 C855 0.930 . S
H843 C859 0.959 . S
H844 C859 0.959 . S
H845 C859 0.961 . S
H846 C860 0.960 . S
H847 C860 0.961 . S
H848 C860 0.959 . S
H849 C863 0.929 . S
H850 C864 0.931 . S
H851 C866 0.930 . S
C852 H840 0.930 . S
C852 C853 1.399 . S
C852 C857 1.399 . S
C853 C852 1.399 . S
C853 C854 1.376 . S
C854 H841 0.930 . S
C854 C853 1.376 . S
C854 C855 1.388 . S
C855 H842 0.930 . S
C855 C854 1.388 . S
C855 C856 1.390 . S
C856 C855 1.390 . S
C856 C857 1.394 . S
C856 C862 1.465 1_565 S
C857 C852 1.399 . S
C857 C856 1.394 . S
C857 C858 1.516 1_565 S
C858 C857 1.516 1_545 S
C858 C859 1.502 . S
C858 C860 1.561 1_545 S
C858 C861 1.526 . S
C859 H843 0.959 . S
C859 H844 0.959 . S
C859 H845 0.961 . S
C859 C858 1.502 . S
C860 H846 0.960 . S
C860 H847 0.961 . S
C860 H848 0.959 . S
C860 C858 1.561 1_565 S
C861 C858 1.526 . S
C861 C862 1.396 . S
C861 C866 1.390 . S
C862 C856 1.465 1_545 S
C862 C861 1.396 . S
C862 C863 1.399 . S
C863 H849 0.929 . S
C863 C862 1.399 . S
C863 C864 1.385 . S
C864 H850 0.931 . S
C864 C863 1.385 . S
C864 C865 1.389 . S
C865 C864 1.389 . S
C865 C866 1.387 . S
C866 H851 0.930 . S
C866 C861 1.390 . S
C866 C865 1.387 . S
H867 C879 0.930 . S
H868 C881 0.930 . S
H869 C882 0.930 . S
H870 C886 0.959 . S
H871 C886 0.959 . S
H872 C886 0.961 . S
H873 C887 0.960 . S
H874 C887 0.961 . S
H875 C887 0.959 . S
H876 C890 0.929 . S
H877 C891 0.931 . S
H878 C893 0.930 . S
C879 H867 0.930 . S
C879 C880 1.399 . S
C879 C884 1.399 . S
C880 C879 1.399 . S
C880 C881 1.376 . S
C881 H868 0.930 . S
C881 C880 1.376 . S
C881 C882 1.388 . S
C882 H869 0.930 . S
C882 C881 1.388 . S
C882 C883 1.390 . S
C883 C882 1.390 . S
C883 C884 1.394 . S
C883 C889 1.465 . S
C884 C879 1.399 . S
C884 C883 1.394 . S
C884 C885 1.516 . S
C885 C884 1.516 . S
C885 C886 1.502 . S
C885 C887 1.561 . S
C885 C888 1.526 . S
C886 H870 0.959 . S
C886 H871 0.959 . S
C886 H872 0.961 . S
C886 C885 1.502 . S
C887 H873 0.960 . S
C887 H874 0.961 . S
C887 H875 0.959 . S
C887 C885 1.561 . S
C888 C885 1.526 . S
C888 C889 1.396 . S
C888 C893 1.390 . S
C889 C883 1.465 . S
C889 C888 1.396 . S
C889 C890 1.399 . S
C890 H876 0.929 . S
C890 C889 1.399 . S
C890 C891 1.385 . S
C891 H877 0.931 . S
C891 C890 1.385 . S
C891 C892 1.389 . S
C892 C891 1.389 . S
C892 C893 1.387 . S
C893 H878 0.930 . S
C893 C888 1.390 . S
C893 C892 1.387 . S
H894 C906 0.930 . S
H895 C908 0.930 . S
H896 C909 0.930 . S
H897 C913 0.959 . S
H898 C913 0.959 . S
H899 C913 0.961 . S
H900 C914 0.960 . S
H901 C914 0.961 . S
H902 C914 0.959 . S
H903 C917 0.929 . S
H904 C918 0.931 . S
H905 C920 0.930 . S
C906 H894 0.930 . S
C906 C907 1.399 . S
C906 C911 1.399 . S
C907 C906 1.399 . S
C907 C908 1.376 . S
C908 H895 0.930 . S
C908 C907 1.376 . S
C908 C909 1.388 . S
C909 H896 0.930 . S
C909 C908 1.388 . S
C909 C910 1.390 . S
C910 C909 1.390 . S
C910 C911 1.394 . S
C910 C916 1.465 . S
C911 C906 1.399 . S
C911 C910 1.394 . S
C911 C912 1.516 . S
C912 C911 1.516 . S
C912 C913 1.502 . S
C912 C914 1.561 . S
C912 C915 1.526 . S
C913 H897 0.959 . S
C913 H898 0.959 . S
C913 H899 0.961 . S
C913 C912 1.502 . S
C914 H900 0.960 . S
C914 H901 0.961 . S
C914 H902 0.959 . S
C914 C912 1.561 . S
C915 C912 1.526 . S
C915 C916 1.396 . S
C915 C920 1.390 . S
C916 C910 1.465 . S
C916 C915 1.396 . S
C916 C917 1.399 . S
C917 H903 0.929 . S
C917 C916 1.399 . S
C917 C918 1.385 . S
C918 H904 0.931 . S
C918 C917 1.385 . S
C918 C919 1.389 . S
C919 C918 1.389 . S
C919 C920 1.387 . S
C920 H905 0.930 . S
C920 C915 1.390 . S
C920 C919 1.387 . S
H921 C933 0.930 . S
H922 C935 0.930 . S
H923 C936 0.930 . S
H924 C940 0.959 . S
H925 C940 0.959 . S
H926 C940 0.961 . S
H927 C941 0.960 . S
H928 C941 0.961 . S
H929 C941 0.959 . S
H930 C944 0.929 . S
H931 C945 0.931 . S
H932 C947 0.930 . S
C933 H921 0.930 . S
C933 C934 1.399 . S
C933 C938 1.399 . S
C934 C933 1.399 . S
C934 C935 1.376 . S
C935 H922 0.930 . S
C935 C934 1.376 . S
C935 C936 1.388 . S
C936 H923 0.930 . S
C936 C935 1.388 . S
C936 C937 1.390 . S
C937 C936 1.390 . S
C937 C938 1.394 . S
C937 C943 1.465 . S
C938 C933 1.399 . S
C938 C937 1.394 . S
C938 C939 1.516 . S
C939 C938 1.516 . S
C939 C940 1.502 . S
C939 C941 1.561 . S
C939 C942 1.526 . S
C940 H924 0.959 . S
C940 H925 0.959 . S
C940 H926 0.961 . S
C940 C939 1.502 . S
C941 H927 0.960 . S
C941 H928 0.961 . S
C941 H929 0.959 . S
C941 C939 1.561 . S
C942 C939 1.526 . S
C942 C943 1.396 . S
C942 C947 1.390 . S
C943 C937 1.465 . S
C943 C942 1.396 . S
C943 C944 1.399 . S
C944 H930 0.929 . S
C944 C943 1.399 . S
C944 C945 1.385 . S
C945 H931 0.931 . S
C945 C944 1.385 . S
C945 C946 1.389 . S
C946 C945 1.389 . S
C946 C947 1.387 . S
C947 H932 0.930 . S
C947 C942 1.390 . S
C947 C946 1.387 . S
H948 C960 0.930 . S
H949 C962 0.930 . S
H950 C963 0.930 . S
H951 C967 0.959 . S
H952 C967 0.959 . S
H953 C967 0.961 . S
H954 C968 0.960 . S
H955 C968 0.961 . S
H956 C968 0.959 . S
H957 C971 0.929 . S
H958 C972 0.931 . S
H959 C974 0.930 . S
C960 H948 0.930 . S
C960 C961 1.399 . S
C960 C965 1.399 . S
C961 C960 1.399 . S
C961 C962 1.376 . S
C962 H949 0.930 . S
C962 C961 1.376 . S
C962 C963 1.388 . S
C963 H950 0.930 . S
C963 C962 1.388 . S
C963 C964 1.390 . S
C964 C963 1.390 . S
C964 C965 1.394 . S
C964 C970 1.465 . S
C965 C960 1.399 . S
C965 C964 1.394 . S
C965 C966 1.516 . S
C966 C965 1.516 . S
C966 C967 1.502 . S
C966 C968 1.561 . S
C966 C969 1.526 . S
C967 H951 0.959 . S
C967 H952 0.959 . S
C967 H953 0.961 . S
C967 C966 1.502 . S
C968 H954 0.960 . S
C968 H955 0.961 . S
C968 H956 0.959 . S
C968 C966 1.561 . S
C969 C966 1.526 . S
C969 C970 1.396 . S
C969 C974 1.390 . S
C970 C964 1.465 . S
C970 C969 1.396 . S
C970 C971 1.399 . S
C971 H957 0.929 . S
C971 C970 1.399 . S
C971 C972 1.385 . S
C972 H958 0.931 . S
C972 C971 1.385 . S
C972 C973 1.389 . S
C973 C972 1.389 . S
C973 C974 1.387 . S
C974 H959 0.930 . S
C974 C969 1.390 . S
C974 C973 1.387 . S
H975 C987 0.930 . S
H976 C989 0.930 . S
H977 C990 0.930 . S
H978 C994 0.959 . S
H979 C994 0.959 . S
H980 C994 0.961 . S
H981 C995 0.960 . S
H982 C995 0.961 . S
H983 C995 0.959 . S
H984 C998 0.929 . S
H985 C999 0.931 . S
H986 C1001 0.930 . S
C987 H975 0.930 . S
C987 C988 1.399 . S
C987 C992 1.399 . S
C988 C987 1.399 . S
C988 C989 1.376 . S
C989 H976 0.930 . S
C989 C988 1.376 . S
C989 C990 1.388 . S
C990 H977 0.930 . S
C990 C989 1.388 . S
C990 C991 1.390 . S
C991 C990 1.390 . S
C991 C992 1.394 . S
C991 C997 1.465 . S
C992 C987 1.399 . S
C992 C991 1.394 . S
C992 C993 1.516 . S
C993 C992 1.516 . S
C993 C994 1.502 . S
C993 C995 1.561 . S
C993 C996 1.526 . S
C994 H978 0.959 . S
C994 H979 0.959 . S
C994 H980 0.961 . S
C994 C993 1.502 . S
C995 H981 0.960 . S
C995 H982 0.961 . S
C995 H983 0.959 . S
C995 C993 1.561 . S
C996 C993 1.526 . S
C996 C997 1.396 . S
C996 C1001 1.390 . S
C997 C991 1.465 . S
C997 C996 1.396 . S
C997 C998 1.399 . S
C998 H984 0.929 . S
C998 C997 1.399 . S
C998 C999 1.385 . S
C999 H985 0.931 . S
C999 C998 1.385 . S
C999 C1000 1.389 . S
C1000 C999 1.389 . S
C1000 C1001 1.387 . S
C1001 H986 0.930 . S
C1001 C996 1.390 . S
C1001 C1000 1.387 . S
H1002 C1014 0.930 . S
H1003 C1016 0.930 . S
H1004 C1017 0.930 . S
H1005 C1021 0.959 . S
H1006 C1021 0.959 . S
H1007 C1021 0.961 . S
H1008 C1022 0.960 . S
H1009 C1022 0.961 . S
H1010 C1022 0.959 . S
H1011 C1025 0.929 . S
H1012 C1026 0.931 . S
H1013 C1028 0.930 . S
C1014 H1002 0.930 . S
C1014 C1015 1.399 . S
C1014 C1019 1.399 . S
C1015 C1014 1.399 . S
C1015 C1016 1.376 . S
C1016 H1003 0.930 . S
C1016 C1015 1.376 . S
C1016 C1017 1.388 . S
C1017 H1004 0.930 . S
C1017 C1016 1.388 . S
C1017 C1018 1.390 . S
C1018 C1017 1.390 . S
C1018 C1019 1.394 . S
C1018 C1024 1.465 . S
C1019 C1014 1.399 . S
C1019 C1018 1.394 . S
C1019 C1020 1.516 . S
C1020 C1019 1.516 . S
C1020 C1021 1.502 . S
C1020 C1022 1.561 . S
C1020 C1023 1.526 . S
C1021 H1005 0.959 . S
C1021 H1006 0.959 . S
C1021 H1007 0.961 . S
C1021 C1020 1.502 . S
C1022 H1008 0.960 . S
C1022 H1009 0.961 . S
C1022 H1010 0.959 . S
C1022 C1020 1.561 . S
C1023 C1020 1.526 . S
C1023 C1024 1.396 . S
C1023 C1028 1.390 . S
C1024 C1018 1.465 . S
C1024 C1023 1.396 . S
C1024 C1025 1.399 . S
C1025 H1011 0.929 . S
C1025 C1024 1.399 . S
C1025 C1026 1.385 . S
C1026 H1012 0.931 . S
C1026 C1025 1.385 . S
C1026 C1027 1.389 . S
C1027 C1026 1.389 . S
C1027 C1028 1.387 . S
C1028 H1013 0.930 . S
C1028 C1023 1.390 . S
C1028 C1027 1.387 . S
H1029 C1041 0.930 . S
H1030 C1043 0.930 . S
H1031 C1044 0.930 . S
H1032 C1048 0.959 . S
H1033 C1048 0.959 . S
H1034 C1048 0.961 . S
H1035 C1049 0.960 . S
H1036 C1049 0.961 . S
H1037 C1049 0.959 . S
H1038 C1052 0.929 . S
H1039 C1053 0.931 . S
H1040 C1055 0.930 . S
C1041 H1029 0.930 . S
C1041 C1042 1.399 . S
C1041 C1046 1.399 . S
C1042 C1041 1.399 . S
C1042 C1043 1.376 . S
C1043 H1030 0.930 . S
C1043 C1042 1.376 . S
C1043 C1044 1.388 . S
C1044 H1031 0.930 . S
C1044 C1043 1.388 . S
C1044 C1045 1.390 . S
C1045 C1044 1.390 . S
C1045 C1046 1.394 . S
C1045 C1051 1.465 . S
C1046 C1041 1.399 . S
C1046 C1045 1.394 . S
C1046 C1047 1.516 . S
C1047 C1046 1.516 . S
C1047 C1048 1.502 . S
C1047 C1049 1.561 . S
C1047 C1050 1.526 . S
C1048 H1032 0.959 . S
C1048 H1033 0.959 . S
C1048 H1034 0.961 . S
C1048 C1047 1.502 . S
C1049 H1035 0.960 . S
C1049 H1036 0.961 . S
C1049 H1037 0.959 . S
C1049 C1047 1.561 . S
C1050 C1047 1.526 . S
C1050 C1051 1.396 . S
C1050 C1055 1.390 . S
C1051 C1045 1.465 . S
C1051 C1050 1.396 . S
C1051 C1052 1.399 . S
C1052 H1038 0.929 . S
C1052 C1051 1.399 . S
C1052 C1053 1.385 . S
C1053 H1039 0.931 . S
C1053 C1052 1.385 . S
C1053 C1054 1.389 . S
C1054 C1053 1.389 . S
C1054 C1055 1.387 . S
C1055 H1040 0.930 . S
C1055 C1050 1.390 . S
C1055 C1054 1.387 . S
H1056 C1068 0.930 . S
H1057 C1070 0.930 . S
H1058 C1071 0.930 . S
H1059 C1075 0.959 . S
H1060 C1075 0.959 . S
H1061 C1075 0.961 . S
H1062 C1076 0.960 . S
H1063 C1076 0.961 . S
H1064 C1076 0.959 . S
H1065 C1079 0.929 . S
H1066 C1080 0.931 . S
H1067 C1082 0.930 . S
C1068 H1056 0.930 . S
C1068 C1069 1.399 . S
C1068 C1073 1.399 . S
C1069 C1068 1.399 . S
C1069 C1070 1.376 . S
C1070 H1057 0.930 . S
C1070 C1069 1.376 . S
C1070 C1071 1.388 . S
C1071 H1058 0.930 . S
C1071 C1070 1.388 . S
C1071 C1072 1.390 . S
C1072 C1071 1.390 . S
C1072 C1073 1.394 . S
C1072 C1078 1.465 . S
C1073 C1068 1.399 . S
C1073 C1072 1.394 . S
C1073 C1074 1.516 . S
C1074 C1073 1.516 . S
C1074 C1075 1.502 . S
C1074 C1076 1.561 . S
C1074 C1077 1.526 . S
C1075 H1059 0.959 . S
C1075 H1060 0.959 . S
C1075 H1061 0.961 . S
C1075 C1074 1.502 . S
C1076 H1062 0.960 . S
C1076 H1063 0.961 . S
C1076 H1064 0.959 . S
C1076 C1074 1.561 . S
C1077 C1074 1.526 . S
C1077 C1078 1.396 . S
C1077 C1082 1.390 . S
C1078 C1072 1.465 . S
C1078 C1077 1.396 . S
C1078 C1079 1.399 . S
C1079 H1065 0.929 . S
C1079 C1078 1.399 . S
C1079 C1080 1.385 . S
C1080 H1066 0.931 . S
C1080 C1079 1.385 . S
C1080 C1081 1.389 . S
C1081 C1080 1.389 . S
C1081 C1082 1.387 . S
C1082 H1067 0.930 . S
C1082 C1077 1.390 . S
C1082 C1081 1.387 . S
H1083 C1095 0.930 . S
H1084 C1097 0.930 . S
H1085 C1098 0.930 . S
H1086 C1102 0.959 . S
H1087 C1102 0.959 . S
H1088 C1102 0.961 . S
H1089 C1103 0.960 . S
H1090 C1103 0.961 . S
H1091 C1103 0.959 . S
H1092 C1106 0.929 . S
H1093 C1107 0.931 . S
H1094 C1109 0.930 . S
C1095 H1083 0.930 . S
C1095 C1096 1.399 . S
C1095 C1100 1.399 . S
C1096 C1095 1.399 . S
C1096 C1097 1.376 . S
C1097 H1084 0.930 . S
C1097 C1096 1.376 . S
C1097 C1098 1.388 . S
C1098 H1085 0.930 . S
C1098 C1097 1.388 . S
C1098 C1099 1.390 . S
C1099 C1098 1.390 . S
C1099 C1100 1.394 . S
C1099 C1105 1.465 . S
C1100 C1095 1.399 . S
C1100 C1099 1.394 . S
C1100 C1101 1.516 . S
C1101 C1100 1.516 . S
C1101 C1102 1.502 . S
C1101 C1103 1.561 . S
C1101 C1104 1.526 . S
C1102 H1086 0.959 . S
C1102 H1087 0.959 . S
C1102 H1088 0.961 . S
C1102 C1101 1.502 . S
C1103 H1089 0.960 . S
C1103 H1090 0.961 . S
C1103 H1091 0.959 . S
C1103 C1101 1.561 . S
C1104 C1101 1.526 . S
C1104 C1105 1.396 . S
C1104 C1109 1.390 . S
C1105 C1099 1.465 . S
C1105 C1104 1.396 . S
C1105 C1106 1.399 . S
C1106 H1092 0.929 . S
C1106 C1105 1.399 . S
C1106 C1107 1.385 . S
C1107 H1093 0.931 . S
C1107 C1106 1.385 . S
C1107 C1108 1.389 . S
C1108 C1107 1.389 . S
C1108 C1109 1.387 . S
C1109 H1094 0.930 . S
C1109 C1104 1.390 . S
C1109 C1108 1.387 . S
H1110 C1122 0.930 . S
H1111 C1124 0.930 . S
H1112 C1125 0.930 . S
H1113 C1129 0.959 . S
H1114 C1129 0.959 . S
H1115 C1129 0.961 . S
H1116 C1130 0.960 . S
H1117 C1130 0.961 . S
H1118 C1130 0.959 . S
H1119 C1133 0.929 . S
H1120 C1134 0.931 . S
H1121 C1136 0.930 . S
C1122 H1110 0.930 . S
C1122 C1123 1.399 . S
C1122 C1127 1.399 . S
C1123 C1122 1.399 . S
C1123 C1124 1.376 . S
C1124 H1111 0.930 . S
C1124 C1123 1.376 . S
C1124 C1125 1.388 . S
C1125 H1112 0.930 . S
C1125 C1124 1.388 . S
C1125 C1126 1.390 . S
C1126 C1125 1.390 . S
C1126 C1127 1.394 . S
C1126 C1132 1.465 . S
C1127 C1122 1.399 . S
C1127 C1126 1.394 . S
C1127 C1128 1.516 . S
C1128 C1127 1.516 . S
C1128 C1129 1.502 . S
C1128 C1130 1.561 . S
C1128 C1131 1.526 . S
C1129 H1113 0.959 . S
C1129 H1114 0.959 . S
C1129 H1115 0.961 . S
C1129 C1128 1.502 . S
C1130 H1116 0.960 . S
C1130 H1117 0.961 . S
C1130 H1118 0.959 . S
C1130 C1128 1.561 . S
C1131 C1128 1.526 . S
C1131 C1132 1.396 . S
C1131 C1136 1.390 . S
C1132 C1126 1.465 . S
C1132 C1131 1.396 . S
C1132 C1133 1.399 . S
C1133 H1119 0.929 . S
C1133 C1132 1.399 . S
C1133 C1134 1.385 . S
C1134 H1120 0.931 . S
C1134 C1133 1.385 . S
C1134 C1135 1.389 . S
C1135 C1134 1.389 . S
C1135 C1136 1.387 . S
C1136 H1121 0.930 . S
C1136 C1131 1.390 . S
C1136 C1135 1.387 . S
H1137 C1149 0.930 . S
H1138 C1151 0.930 . S
H1139 C1152 0.930 . S
H1140 C1156 0.959 . S
H1141 C1156 0.959 . S
H1142 C1156 0.961 . S
H1143 C1157 0.960 . S
H1144 C1157 0.961 . S
H1145 C1157 0.959 . S
H1146 C1160 0.929 . S
H1147 C1161 0.931 . S
H1148 C1163 0.930 . S
C1149 H1137 0.930 . S
C1149 C1150 1.399 . S
C1149 C1154 1.399 . S
C1150 C1149 1.399 . S
C1150 C1151 1.376 . S
C1151 H1138 0.930 . S
C1151 C1150 1.376 . S
C1151 C1152 1.388 . S
C1152 H1139 0.930 . S
C1152 C1151 1.388 . S
C1152 C1153 1.390 . S
C1153 C1152 1.390 . S
C1153 C1154 1.394 . S
C1153 C1159 1.465 . S
C1154 C1149 1.399 . S
C1154 C1153 1.394 . S
C1154 C1155 1.516 . S
C1155 C1154 1.516 . S
C1155 C1156 1.502 . S
C1155 C1157 1.561 . S
C1155 C1158 1.526 . S
C1156 H1140 0.959 . S
C1156 H1141 0.959 . S
C1156 H1142 0.961 . S
C1156 C1155 1.502 . S
C1157 H1143 0.960 . S
C1157 H1144 0.961 . S
C1157 H1145 0.959 . S
C1157 C1155 1.561 . S
C1158 C1155 1.526 . S
C1158 C1159 1.396 . S
C1158 C1163 1.390 . S
C1159 C1153 1.465 . S
C1159 C1158 1.396 . S
C1159 C1160 1.399 . S
C1160 H1146 0.929 . S
C1160 C1159 1.399 . S
C1160 C1161 1.385 . S
C1161 H1147 0.931 . S
C1161 C1160 1.385 . S
C1161 C1162 1.389 . S
C1162 C1161 1.389 . S
C1162 C1163 1.387 . S
C1163 H1148 0.930 . S
C1163 C1158 1.390 . S
C1163 C1162 1.387 . S
H1164 C1176 0.930 . S
H1165 C1178 0.930 . S
H1166 C1179 0.930 . S
H1167 C1183 0.959 . S
H1168 C1183 0.959 . S
H1169 C1183 0.961 . S
H1170 C1184 0.960 . S
H1171 C1184 0.961 . S
H1172 C1184 0.959 . S
H1173 C1187 0.929 . S
H1174 C1188 0.931 . S
H1175 C1190 0.930 . S
C1176 H1164 0.930 . S
C1176 C1177 1.399 . S
C1176 C1181 1.399 . S
C1177 C1176 1.399 . S
C1177 C1178 1.376 . S
C1178 H1165 0.930 . S
C1178 C1177 1.376 . S
C1178 C1179 1.388 . S
C1179 H1166 0.930 . S
C1179 C1178 1.388 . S
C1179 C1180 1.390 . S
C1180 C1179 1.390 . S
C1180 C1181 1.394 . S
C1180 C1186 1.465 . S
C1181 C1176 1.399 . S
C1181 C1180 1.394 . S
C1181 C1182 1.516 . S
C1182 C1181 1.516 . S
C1182 C1183 1.502 . S
C1182 C1184 1.561 . S
C1182 C1185 1.526 . S
C1183 H1167 0.959 . S
C1183 H1168 0.959 . S
C1183 H1169 0.961 . S
C1183 C1182 1.502 . S
C1184 H1170 0.960 . S
C1184 H1171 0.961 . S
C1184 H1172 0.959 . S
C1184 C1182 1.561 . S
C1185 C1182 1.526 . S
C1185 C1186 1.396 . S
C1185 C1190 1.390 . S
C1186 C1180 1.465 . S
C1186 C1185 1.396 . S
C1186 C1187 1.399 . S
C1187 H1173 0.929 . S
C1187 C1186 1.399 . S
C1187 C1188 1.385 . S
C1188 H1174 0.931 . S
C1188 C1187 1.385 . S
C1188 C1189 1.389 . S
C1189 C1188 1.389 . S
C1189 C1190 1.387 . S
C1190 H1175 0.930 . S
C1190 C1185 1.390 . S
C1190 C1189 1.387 . S
H1191 C1203 0.930 . S
H1192 C1205 0.930 . S
H1193 C1206 0.930 . S
H1194 C1210 0.959 . S
H1195 C1210 0.959 . S
H1196 C1210 0.961 . S
H1197 C1211 0.960 . S
H1198 C1211 0.961 . S
H1199 C1211 0.959 . S
H1200 C1214 0.929 . S
H1201 C1215 0.931 . S
H1202 C1217 0.930 . S
C1203 H1191 0.930 . S
C1203 C1204 1.399 . S
C1203 C1208 1.399 . S
C1204 C1203 1.399 . S
C1204 C1205 1.376 . S
C1205 H1192 0.930 . S
C1205 C1204 1.376 . S
C1205 C1206 1.388 . S
C1206 H1193 0.930 . S
C1206 C1205 1.388 . S
C1206 C1207 1.390 . S
C1207 C1206 1.390 . S
C1207 C1208 1.394 . S
C1207 C1213 1.465 . S
C1208 C1203 1.399 . S
C1208 C1207 1.394 . S
C1208 C1209 1.516 . S
C1209 C1208 1.516 . S
C1209 C1210 1.502 . S
C1209 C1211 1.561 . S
C1209 C1212 1.526 . S
C1210 H1194 0.959 . S
C1210 H1195 0.959 . S
C1210 H1196 0.961 . S
C1210 C1209 1.502 . S
C1211 H1197 0.960 . S
C1211 H1198 0.961 . S
C1211 H1199 0.959 . S
C1211 C1209 1.561 . S
C1212 C1209 1.526 . S
C1212 C1213 1.396 . S
C1212 C1217 1.390 . S
C1213 C1207 1.465 . S
C1213 C1212 1.396 . S
C1213 C1214 1.399 . S
C1214 H1200 0.929 . S
C1214 C1213 1.399 . S
C1214 C1215 1.385 . S
C1215 H1201 0.931 . S
C1215 C1214 1.385 . S
C1215 C1216 1.389 . S
C1216 C1215 1.389 . S
C1216 C1217 1.387 . S
C1217 H1202 0.930 . S
C1217 C1212 1.390 . S
C1217 C1216 1.387 . S
H1218 C1230 0.930 . S
H1219 C1232 0.930 . S
H1220 C1233 0.930 . S
H1221 C1237 0.959 . S
H1222 C1237 0.959 . S
H1223 C1237 0.961 . S
H1224 C1238 0.960 . S
H1225 C1238 0.961 . S
H1226 C1238 0.959 . S
H1227 C1241 0.929 . S
H1228 C1242 0.931 . S
H1229 C1244 0.930 . S
C1230 H1218 0.930 . S
C1230 C1231 1.399 . S
C1230 C1235 1.399 . S
C1231 C1230 1.399 . S
C1231 C1232 1.376 . S
C1232 H1219 0.930 . S
C1232 C1231 1.376 . S
C1232 C1233 1.388 . S
C1233 H1220 0.930 . S
C1233 C1232 1.388 . S
C1233 C1234 1.390 . S
C1234 C1233 1.390 . S
C1234 C1235 1.394 . S
C1234 C1240 1.465 . S
C1235 C1230 1.399 . S
C1235 C1234 1.394 . S
C1235 C1236 1.516 . S
C1236 C1235 1.516 . S
C1236 C1237 1.502 . S
C1236 C1238 1.561 . S
C1236 C1239 1.526 . S
C1237 H1221 0.959 . S
C1237 H1222 0.959 . S
C1237 H1223 0.961 . S
C1237 C1236 1.502 . S
C1238 H1224 0.960 . S
C1238 H1225 0.961 . S
C1238 H1226 0.959 . S
C1238 C1236 1.561 . S
C1239 C1236 1.526 . S
C1239 C1240 1.396 . S
C1239 C1244 1.390 . S
C1240 C1234 1.465 . S
C1240 C1239 1.396 . S
C1240 C1241 1.399 . S
C1241 H1227 0.929 . S
C1241 C1240 1.399 . S
C1241 C1242 1.385 . S
C1242 H1228 0.931 . S
C1242 C1241 1.385 . S
C1242 C1243 1.389 . S
C1243 C1242 1.389 . S
C1243 C1244 1.387 . S
C1244 H1229 0.930 . S
C1244 C1239 1.390 . S
C1244 C1243 1.387 . S
H1245 C1257 0.930 . S
H1246 C1259 0.930 . S
H1247 C1260 0.930 . S
H1248 C1264 0.959 . S
H1249 C1264 0.959 . S
H1250 C1264 0.961 . S
H1251 C1265 0.960 . S
H1252 C1265 0.961 . S
H1253 C1265 0.959 . S
H1254 C1268 0.929 . S
H1255 C1269 0.931 . S
H1256 C1271 0.930 . S
C1257 H1245 0.930 . S
C1257 C1258 1.399 . S
C1257 C1262 1.399 . S
C1258 C1257 1.399 . S
C1258 C1259 1.376 . S
C1259 H1246 0.930 . S
C1259 C1258 1.376 . S
C1259 C1260 1.388 . S
C1260 H1247 0.930 . S
C1260 C1259 1.388 . S
C1260 C1261 1.390 . S
C1261 C1260 1.390 . S
C1261 C1262 1.394 . S
C1261 C1267 1.465 . S
C1262 C1257 1.399 . S
C1262 C1261 1.394 . S
C1262 C1263 1.516 . S
C1263 C1262 1.516 . S
C1263 C1264 1.502 . S
C1263 C1265 1.561 . S
C1263 C1266 1.526 . S
C1264 H1248 0.959 . S
C1264 H1249 0.959 . S
C1264 H1250 0.961 . S
C1264 C1263 1.502 . S
C1265 H1251 0.960 . S
C1265 H1252 0.961 . S
C1265 H1253 0.959 . S
C1265 C1263 1.561 . S
C1266 C1263 1.526 . S
C1266 C1267 1.396 . S
C1266 C1271 1.390 . S
C1267 C1261 1.465 . S
C1267 C1266 1.396 . S
C1267 C1268 1.399 . S
C1268 H1254 0.929 . S
C1268 C1267 1.399 . S
C1268 C1269 1.385 . S
C1269 H1255 0.931 . S
C1269 C1268 1.385 . S
C1269 C1270 1.389 . S
C1270 C1269 1.389 . S
C1270 C1271 1.387 . S
C1271 H1256 0.930 . S
C1271 C1266 1.390 . S
C1271 C1270 1.387 . S
H1272 C1284 0.930 . S
H1273 C1286 0.930 . S
H1274 C1287 0.930 . S
H1275 C1291 0.959 . S
H1276 C1291 0.959 . S
H1277 C1291 0.961 . S
H1278 C1292 0.960 . S
H1279 C1292 0.961 . S
H1280 C1292 0.959 . S
H1281 C1295 0.929 . S
H1282 C1296 0.931 . S
H1283 C1298 0.930 . S
C1284 H1272 0.930 . S
C1284 C1285 1.399 . S
C1284 C1289 1.399 . S
C1285 C1284 1.399 . S
C1285 C1286 1.376 . S
C1286 H1273 0.930 . S
C1286 C1285 1.376 . S
C1286 C1287 1.388 . S
C1287 H1274 0.930 . S
C1287 C1286 1.388 . S
C1287 C1288 1.390 . S
C1288 C1287 1.390 . S
C1288 C1289 1.394 . S
C1288 C1294 1.465 . S
C1289 C1284 1.399 . S
C1289 C1288 1.394 . S
C1289 C1290 1.516 . S
C1290 C1289 1.516 . S
C1290 C1291 1.502 . S
C1290 C1292 1.561 . S
C1290 C1293 1.526 . S
C1291 H1275 0.959 . S
C1291 H1276 0.959 . S
C1291 H1277 0.961 . S
C1291 C1290 1.502 . S
C1292 H1278 0.960 . S
C1292 H1279 0.961 . S
C1292 H1280 0.959 . S
C1292 C1290 1.561 . S
C1293 C1290 1.526 . S
C1293 C1294 1.396 . S
C1293 C1298 1.390 . S
C1294 C1288 1.465 . S
C1294 C1293 1.396 . S
C1294 C1295 1.399 . S
C1295 H1281 0.929 . S
C1295 C1294 1.399 . S
C1295 C1296 1.385 . S
C1296 H1282 0.931 . S
C1296 C1295 1.385 . S
C1296 C1297 1.389 . S
C1297 C1296 1.389 . S
C1297 C1298 1.387 . S
C1298 H1283 0.930 . S
C1298 C1293 1.390 . S
C1298 C1297 1.387 . S
H1299 C1311 0.930 . S
H1300 C1313 0.930 . S
H1301 C1314 0.930 . S
H1302 C1318 0.959 . S
H1303 C1318 0.959 . S
H1304 C1318 0.961 . S
H1305 C1319 0.960 . S
H1306 C1319 0.961 . S
H1307 C1319 0.959 . S
H1308 C1322 0.929 . S
H1309 C1323 0.931 . S
H1310 C1325 0.930 . S
C1311 H1299 0.930 . S
C1311 C1312 1.399 . S
C1311 C1316 1.399 . S
C1312 C1311 1.399 . S
C1312 C1313 1.376 . S
C1313 H1300 0.930 . S
C1313 C1312 1.376 . S
C1313 C1314 1.388 . S
C1314 H1301 0.930 . S
C1314 C1313 1.388 . S
C1314 C1315 1.390 . S
C1315 C1314 1.390 . S
C1315 C1316 1.394 . S
C1315 C1321 1.465 . S
C1316 C1311 1.399 . S
C1316 C1315 1.394 . S
C1316 C1317 1.516 . S
C1317 C1316 1.516 . S
C1317 C1318 1.502 . S
C1317 C1319 1.561 . S
C1317 C1320 1.526 . S
C1318 H1302 0.959 . S
C1318 H1303 0.959 . S
C1318 H1304 0.961 . S
C1318 C1317 1.502 . S
C1319 H1305 0.960 . S
C1319 H1306 0.961 . S
C1319 H1307 0.959 . S
C1319 C1317 1.561 . S
C1320 C1317 1.526 . S
C1320 C1321 1.396 . S
C1320 C1325 1.390 . S
C1321 C1315 1.465 . S
C1321 C1320 1.396 . S
C1321 C1322 1.399 . S
C1322 H1308 0.929 . S
C1322 C1321 1.399 . S
C1322 C1323 1.385 . S
C1323 H1309 0.931 . S
C1323 C1322 1.385 . S
C1323 C1324 1.389 . S
C1324 C1323 1.389 . S
C1324 C1325 1.387 . S
C1325 H1310 0.930 . S
C1325 C1320 1.390 . S
C1325 C1324 1.387 . S
H1326 C1338 0.930 . S
H1327 C1340 0.930 . S
H1328 C1341 0.930 . S
H1329 C1345 0.959 . S
H1330 C1345 0.959 . S
H1331 C1345 0.961 . S
H1332 C1346 0.960 . S
H1333 C1346 0.961 . S
H1334 C1346 0.959 . S
H1335 C1349 0.929 . S
H1336 C1350 0.931 . S
H1337 C1352 0.930 . S
C1338 H1326 0.930 . S
C1338 C1339 1.399 . S
C1338 C1343 1.399 . S
C1339 C1338 1.399 . S
C1339 C1340 1.376 . S
C1340 H1327 0.930 . S
C1340 C1339 1.376 . S
C1340 C1341 1.388 . S
C1341 H1328 0.930 . S
C1341 C1340 1.388 . S
C1341 C1342 1.390 . S
C1342 C1341 1.390 . S
C1342 C1343 1.394 . S
C1342 C1348 1.465 . S
C1343 C1338 1.399 . S
C1343 C1342 1.394 . S
C1343 C1344 1.516 . S
C1344 C1343 1.516 . S
C1344 C1345 1.502 . S
C1344 C1346 1.561 . S
C1344 C1347 1.526 . S
C1345 H1329 0.959 . S
C1345 H1330 0.959 . S
C1345 H1331 0.961 . S
C1345 C1344 1.502 . S
C1346 H1332 0.960 . S
C1346 H1333 0.961 . S
C1346 H1334 0.959 . S
C1346 C1344 1.561 . S
C1347 C1344 1.526 . S
C1347 C1348 1.396 . S
C1347 C1352 1.390 . S
C1348 C1342 1.465 . S
C1348 C1347 1.396 . S
C1348 C1349 1.399 . S
C1349 H1335 0.929 . S
C1349 C1348 1.399 . S
C1349 C1350 1.385 . S
C1350 H1336 0.931 . S
C1350 C1349 1.385 . S
C1350 C1351 1.389 . S
C1351 C1350 1.389 . S
C1351 C1352 1.387 . S
C1352 H1337 0.930 . S
C1352 C1347 1.390 . S
C1352 C1351 1.387 . S
H1353 C1365 0.930 . S
H1354 C1367 0.930 . S
H1355 C1368 0.930 . S
H1356 C1372 0.959 . S
H1357 C1372 0.959 . S
H1358 C1372 0.961 . S
H1359 C1373 0.960 . S
H1360 C1373 0.961 . S
H1361 C1373 0.959 . S
H1362 C1376 0.929 . S
H1363 C1377 0.931 . S
H1364 C1379 0.930 . S
C1365 H1353 0.930 . S
C1365 C1366 1.399 . S
C1365 C1370 1.399 . S
C1366 C1365 1.399 . S
C1366 C1367 1.376 . S
C1367 H1354 0.930 . S
C1367 C1366 1.376 . S
C1367 C1368 1.388 . S
C1368 H1355 0.930 . S
C1368 C1367 1.388 . S
C1368 C1369 1.390 . S
C1369 C1368 1.390 . S
C1369 C1370 1.394 . S
C1369 C1375 1.465 . S
C1370 C1365 1.399 . S
C1370 C1369 1.394 . S
C1370 C1371 1.516 . S
C1371 C1370 1.516 . S
C1371 C1372 1.502 . S
C1371 C1373 1.561 . S
C1371 C1374 1.526 . S
C1372 H1356 0.959 . S
C1372 H1357 0.959 . S
C1372 H1358 0.961 . S
C1372 C1371 1.502 . S
C1373 H1359 0.960 . S
C1373 H1360 0.961 . S
C1373 H1361 0.959 . S
C1373 C1371 1.561 . S
C1374 C1371 1.526 . S
C1374 C1375 1.396 . S
C1374 C1379 1.390 . S
C1375 C1369 1.465 . S
C1375 C1374 1.396 . S
C1375 C1376 1.399 . S
C1376 H1362 0.929 . S
C1376 C1375 1.399 . S
C1376 C1377 1.385 . S
C1377 H1363 0.931 . S
C1377 C1376 1.385 . S
C1377 C1378 1.389 . S
C1378 C1377 1.389 . S
C1378 C1379 1.387 . S
C1379 H1364 0.930 . S
C1379 C1374 1.390 . S
C1379 C1378 1.387 . S
H1380 C1392 0.930 . S
H1381 C1394 0.930 . S
H1382 C1395 0.930 . S
H1383 C1399 0.959 . S
H1384 C1399 0.959 . S
H1385 C1399 0.961 . S
H1386 C1400 0.960 . S
H1387 C1400 0.961 . S
H1388 C1400 0.959 . S
H1389 C1403 0.929 . S
H1390 C1404 0.931 . S
H1391 C1406 0.930 . S
C1392 H1380 0.930 . S
C1392 C1393 1.399 . S
C1392 C1397 1.399 . S
C1393 C1392 1.399 . S
C1393 C1394 1.376 . S
C1394 H1381 0.930 . S
C1394 C1393 1.376 . S
C1394 C1395 1.388 . S
C1395 H1382 0.930 . S
C1395 C1394 1.388 . S
C1395 C1396 1.390 . S
C1396 C1395 1.390 . S
C1396 C1397 1.394 . S
C1396 C1402 1.465 . S
C1397 C1392 1.399 . S
C1397 C1396 1.394 . S
C1397 C1398 1.516 . S
C1398 C1397 1.516 . S
C1398 C1399 1.502 . S
C1398 C1400 1.561 . S
C1398 C1401 1.526 . S
C1399 H1383 0.959 . S
C1399 H1384 0.959 . S
C1399 H1385 0.961 . S
C1399 C1398 1.502 . S
C1400 H1386 0.960 . S
C1400 H1387 0.961 . S
C1400 H1388 0.959 . S
C1400 C1398 1.561 . S
C1401 C1398 1.526 . S
C1401 C1402 1.396 . S
C1401 C1406 1.390 . S
C1402 C1396 1.465 . S
C1402 C1401 1.396 . S
C1402 C1403 1.399 . S
C1403 H1389 0.929 . S
C1403 C1402 1.399 . S
C1403 C1404 1.385 . S
C1404 H1390 0.931 . S
C1404 C1403 1.385 . S
C1404 C1405 1.389 . S
C1405 C1404 1.389 . S
C1405 C1406 1.387 . S
C1406 H1391 0.930 . S
C1406 C1401 1.390 . S
C1406 C1405 1.387 . S
H1407 C1419 0.930 . S
H1408 C1421 0.930 . S
H1409 C1422 0.930 . S
H1410 C1426 0.959 . S
H1411 C1426 0.959 . S
H1412 C1426 0.961 . S
H1413 C1427 0.960 . S
H1414 C1427 0.961 . S
H1415 C1427 0.959 . S
H1416 C1430 0.929 . S
H1417 C1431 0.931 . S
H1418 C1433 0.930 . S
C1419 H1407 0.930 . S
C1419 C1420 1.399 . S
C1419 C1424 1.399 . S
C1420 C1419 1.399 . S
C1420 C1421 1.376 . S
C1421 H1408 0.930 . S
C1421 C1420 1.376 . S
C1421 C1422 1.388 . S
C1422 H1409 0.930 . S
C1422 C1421 1.388 . S
C1422 C1423 1.390 . S
C1423 C1422 1.390 . S
C1423 C1424 1.394 . S
C1423 C1429 1.465 . S
C1424 C1419 1.399 . S
C1424 C1423 1.394 . S
C1424 C1425 1.516 . S
C1425 C1424 1.516 . S
C1425 C1426 1.502 . S
C1425 C1427 1.561 . S
C1425 C1428 1.526 . S
C1426 H1410 0.959 . S
C1426 H1411 0.959 . S
C1426 H1412 0.961 . S
C1426 C1425 1.502 . S
C1427 H1413 0.960 . S
C1427 H1414 0.961 . S
C1427 H1415 0.959 . S
C1427 C1425 1.561 . S
C1428 C1425 1.526 . S
C1428 C1429 1.396 . S
C1428 C1433 1.390 . S
C1429 C1423 1.465 . S
C1429 C1428 1.396 . S
C1429 C1430 1.399 . S
C1430 H1416 0.929 . S
C1430 C1429 1.399 . S
C1430 C1431 1.385 . S
C1431 H1417 0.931 . S
C1431 C1430 1.385 . S
C1431 C1432 1.389 . S
C1432 C1431 1.389 . S
C1432 C1433 1.387 . S
C1433 H1418 0.930 . S
C1433 C1428 1.390 . S
C1433 C1432 1.387 . S
H1434 C1446 0.930 . S
H1435 C1448 0.930 . S
H1436 C1449 0.930 . S
H1437 C1453 0.959 . S
H1438 C1453 0.959 . S
H1439 C1453 0.961 . S
H1440 C1454 0.960 . S
H1441 C1454 0.961 . S
H1442 C1454 0.959 . S
H1443 C1457 0.929 . S
H1444 C1458 0.931 . S
H1445 C1460 0.930 . S
C1446 H1434 0.930 . S
C1446 C1447 1.399 . S
C1446 C1451 1.399 . S
C1447 C1446 1.399 . S
C1447 C1448 1.376 . S
C1448 H1435 0.930 . S
C1448 C1447 1.376 . S
C1448 C1449 1.388 . S
C1449 H1436 0.930 . S
C1449 C1448 1.388 . S
C1449 C1450 1.390 . S
C1450 C1449 1.390 . S
C1450 C1451 1.394 . S
C1450 C1456 1.465 . S
C1451 C1446 1.399 . S
C1451 C1450 1.394 . S
C1451 C1452 1.516 . S
C1452 C1451 1.516 . S
C1452 C1453 1.502 . S
C1452 C1454 1.561 . S
C1452 C1455 1.526 . S
C1453 H1437 0.959 . S
C1453 H1438 0.959 . S
C1453 H1439 0.961 . S
C1453 C1452 1.502 . S
C1454 H1440 0.960 . S
C1454 H1441 0.961 . S
C1454 H1442 0.959 . S
C1454 C1452 1.561 . S
C1455 C1452 1.526 . S
C1455 C1456 1.396 . S
C1455 C1460 1.390 . S
C1456 C1450 1.465 . S
C1456 C1455 1.396 . S
C1456 C1457 1.399 . S
C1457 H1443 0.929 . S
C1457 C1456 1.399 . S
C1457 C1458 1.385 . S
C1458 H1444 0.931 . S
C1458 C1457 1.385 . S
C1458 C1459 1.389 . S
C1459 C1458 1.389 . S
C1459 C1460 1.387 . S
C1460 H1445 0.930 . S
C1460 C1455 1.390 . S
C1460 C1459 1.387 . S
H1461 C1473 0.930 . S
H1462 C1475 0.930 . S
H1463 C1476 0.930 . S
H1464 C1480 0.959 . S
H1465 C1480 0.959 . S
H1466 C1480 0.961 . S
H1467 C1481 0.960 . S
H1468 C1481 0.961 . S
H1469 C1481 0.959 . S
H1470 C1484 0.929 . S
H1471 C1485 0.931 . S
H1472 C1487 0.930 . S
C1473 H1461 0.930 . S
C1473 C1474 1.399 . S
C1473 C1478 1.399 . S
C1474 C1473 1.399 . S
C1474 C1475 1.376 . S
C1475 H1462 0.930 . S
C1475 C1474 1.376 . S
C1475 C1476 1.388 . S
C1476 H1463 0.930 . S
C1476 C1475 1.388 . S
C1476 C1477 1.390 . S
C1477 C1476 1.390 . S
C1477 C1478 1.394 . S
C1477 C1483 1.465 . S
C1478 C1473 1.399 . S
C1478 C1477 1.394 . S
C1478 C1479 1.516 . S
C1479 C1478 1.516 . S
C1479 C1480 1.502 . S
C1479 C1481 1.561 . S
C1479 C1482 1.526 . S
C1480 H1464 0.959 . S
C1480 H1465 0.959 . S
C1480 H1466 0.961 . S
C1480 C1479 1.502 . S
C1481 H1467 0.960 . S
C1481 H1468 0.961 . S
C1481 H1469 0.959 . S
C1481 C1479 1.561 . S
C1482 C1479 1.526 . S
C1482 C1483 1.396 . S
C1482 C1487 1.390 . S
C1483 C1477 1.465 . S
C1483 C1482 1.396 . S
C1483 C1484 1.399 . S
C1484 H1470 0.929 . S
C1484 C1483 1.399 . S
C1484 C1485 1.385 . S
C1485 H1471 0.931 . S
C1485 C1484 1.385 . S
C1485 C1486 1.389 . S
C1486 C1485 1.389 . S
C1486 C1487 1.387 . S
C1487 H1472 0.930 . S
C1487 C1482 1.390 . S
C1487 C1486 1.387 . S
H1488 C1500 0.930 . S
H1489 C1502 0.930 . S
H1490 C1503 0.930 . S
H1491 C1507 0.959 . S
H1492 C1507 0.959 . S
H1493 C1507 0.961 . S
H1494 C1508 0.960 . S
H1495 C1508 0.961 . S
H1496 C1508 0.959 . S
H1497 C1511 0.929 . S
H1498 C1512 0.931 . S
H1499 C1514 0.930 . S
C1500 H1488 0.930 . S
C1500 C1501 1.399 . S
C1500 C1505 1.399 . S
C1501 C1500 1.399 . S
C1501 C1502 1.376 . S
C1502 H1489 0.930 . S
C1502 C1501 1.376 . S
C1502 C1503 1.388 . S
C1503 H1490 0.930 . S
C1503 C1502 1.388 . S
C1503 C1504 1.390 . S
C1504 C1503 1.390 . S
C1504 C1505 1.394 . S
C1504 C1510 1.465 . S
C1505 C1500 1.399 . S
C1505 C1504 1.394 . S
C1505 C1506 1.516 . S
C1506 C1505 1.516 . S
C1506 C1507 1.502 . S
C1506 C1508 1.561 . S
C1506 C1509 1.526 . S
C1507 H1491 0.959 . S
C1507 H1492 0.959 . S
C1507 H1493 0.961 . S
C1507 C1506 1.502 . S
C1508 H1494 0.960 . S
C1508 H1495 0.961 . S
C1508 H1496 0.959 . S
C1508 C1506 1.561 . S
C1509 C1506 1.526 . S
C1509 C1510 1.396 . S
C1509 C1514 1.390 . S
C1510 C1504 1.465 . S
C1510 C1509 1.396 . S
C1510 C1511 1.399 . S
C1511 H1497 0.929 . S
C1511 C1510 1.399 . S
C1511 C1512 1.385 . S
C1512 H1498 0.931 . S
C1512 C1511 1.385 . S
C1512 C1513 1.389 . S
C1513 C1512 1.389 . S
C1513 C1514 1.387 . S
C1514 H1499 0.930 . S
C1514 C1509 1.390 . S
C1514 C1513 1.387 . S
H1515 C1527 0.930 . S
H1516 C1529 0.930 . S
H1517 C1530 0.930 . S
H1518 C1534 0.959 . S
H1519 C1534 0.959 . S
H1520 C1534 0.961 . S
H1521 C1535 0.960 . S
H1522 C1535 0.961 . S
H1523 C1535 0.959 . S
H1524 C1538 0.929 . S
H1525 C1539 0.931 . S
H1526 C1541 0.930 . S
C1527 H1515 0.930 . S
C1527 C1528 1.399 . S
C1527 C1532 1.399 . S
C1528 C1527 1.399 . S
C1528 C1529 1.376 . S
C1529 H1516 0.930 . S
C1529 C1528 1.376 . S
C1529 C1530 1.388 . S
C1530 H1517 0.930 . S
C1530 C1529 1.388 . S
C1530 C1531 1.390 . S
C1531 C1530 1.390 . S
C1531 C1532 1.394 . S
C1531 C1537 1.465 . S
C1532 C1527 1.399 . S
C1532 C1531 1.394 . S
C1532 C1533 1.516 . S
C1533 C1532 1.516 . S
C1533 C1534 1.502 . S
C1533 C1535 1.561 . S
C1533 C1536 1.526 . S
C1534 H1518 0.959 . S
C1534 H1519 0.959 . S
C1534 H1520 0.961 . S
C1534 C1533 1.502 . S
C1535 H1521 0.960 . S
C1535 H1522 0.961 . S
C1535 H1523 0.959 . S
C1535 C1533 1.561 . S
C1536 C1533 1.526 . S
C1536 C1537 1.396 . S
C1536 C1541 1.390 . S
C1537 C1531 1.465 . S
C1537 C1536 1.396 . S
C1537 C1538 1.399 . S
C1538 H1524 0.929 . S
C1538 C1537 1.399 . S
C1538 C1539 1.385 . S
C1539 H1525 0.931 . S
C1539 C1538 1.385 . S
C1539 C1540 1.389 . S
C1540 C1539 1.389 . S
C1540 C1541 1.387 . S
C1541 H1526 0.930 . S
C1541 C1536 1.390 . S
C1541 C1540 1.387 . S
C421 C6 1.034 . S
C433 C266 1.062 . S
C448 C40 1.059 . S
C460 C278 1.067 . S
C475 C334 1.066 . S
C487 C74 1.063 . S
C502 C130 1.070 . S
C514 C346 1.048 . S
C529 C142 1.065 . S
C541 C402 1.064 . S
C556 C232 0.977 . S
C568 C198 0.974 . S
C583 C355 0.648 . S
C595 C124 0.400 . S
C610 C151 0.389 . S
C622 C396 0.653 . S
C637 C192 0.525 . S
C649 C226 0.545 . S
C664 C15 0.391 . S
C676 C260 0.651 . S
C691 C287 0.522 . S
C703 C49 0.562 . S
C718 C328 0.410 . S
C730 C83 0.644 . S
C745 C119 1.183 1_556 S
C757 C17 1.182 1_556 S
C772 C51 1.185 1_556 S
C784 C153 1.180 1_556 S
C799 C187 1.190 . S
C811 C85 1.165 . S
C826 C221 1.184 . S
C838 C323 1.181 . S
C853 C255 1.169 . S
C865 C357 1.186 . S
C880 C391 1.177 . S
C892 C289 1.188 . S
C907 C22 0.536 . S
C919 C362 0.511 . S
C934 C56 0.629 . S
C946 C389 0.396 . S
C961 C90 0.514 . S
C973 C219 0.533 . S
C988 C253 0.491 . S
C1000 C117 0.554 . S
C1015 C294 0.626 . S
C1027 C158 0.400 . S
C1042 C185 0.620 . S
C1054 C321 0.410 . S
C1069 C244 1.046 . S
C1081 C108 1.069 . S
C1096 C300 1.071 . S
C1108 C164 1.050 . S
C1123 C312 1.067 . S
C1135 C176 1.049 . S
C1150 C368 1.054 . S
C1162 C28 1.088 . S
C1177 C380 1.077 . S
C1189 C62 1.113 . S
C1204 C96 1.070 . S
C1216 C210 1.050 . S
C1231 C1 2.958 . S
C1243 C273 2.952 . S
C1258 C309 2.950 . S
C1270 C35 2.958 . S
C1285 C341 2.954 . S
C1297 C69 2.956 . S
C1312 C105 2.960 . S
C1324 C377 2.950 . S
C1339 C207 2.949 . S
C1351 C137 2.958 . S
C1366 C173 2.944 . S
C1378 C241 2.956 . S
C1393 C375 2.930 . S
C1405 C103 2.928 . S
C1420 C205 2.926 . S
C1432 C139 2.924 . S
C1447 C239 2.920 . S
C1459 C171 2.932 . S
C1474 C275 2.930 . S
C1486 C3 2.927 . S
C1501 C307 2.921 . S
C1513 C37 2.933 . S
C1528 C343 2.920 . S
C1540 C71 2.932 . S
