# Generated by pormake.
# Topology qtz-x, (6)-cn, num edge types: 1
# Building blocks:
#     Node 0, Type 0, BuildingBlock: PAMTOO_clean_sbu_0, # of connection points: 6
#     Node 1, Type 0, BuildingBlock: PAMTOO_clean_sbu_0, # of connection points: 6
#     Node 2, Type 0, BuildingBlock: PAMTOO_clean_sbu_0, # of connection points: 6
#     Edge 3, Type (0, 0), BuildingBlock: UVAHIK_clean_linker_0, # of connection points: 2
#     Edge 4, Type (0, 0), BuildingBlock: UVAHIK_clean_linker_0, # of connection points: 2
#     Edge 5, Type (0, 0), BuildingBlock: UVAHIK_clean_linker_0, # of connection points: 2
#     Edge 6, Type (0, 0), BuildingBlock: UVAHIK_clean_linker_0, # of connection points: 2
#     Edge 7, Type (0, 0), BuildingBlock: UVAHIK_clean_linker_0, # of connection points: 2
#     Edge 8, Type (0, 0), BuildingBlock: UVAHIK_clean_linker_0, # of connection points: 2
#     Edge 9, Type (0, 0), BuildingBlock: UVAHIK_clean_linker_0, # of connection points: 2
#     Edge 10, Type (0, 0), BuildingBlock: UVAHIK_clean_linker_0, # of connection points: 2
#     Edge 11, Type (0, 0), BuildingBlock: UVAHIK_clean_linker_0, # of connection points: 2
# Relax obj value: 0.124
# Max RMSD: 0.227
# Mean RMSD: 0.227
data_MOF--net-qtz-x--node1-PAMTOO_clean_sbu_0--edge1-UVAHIK_clean_linker_0
_symmetry_space_group_name_H-M    P1
_symmetry_Int_Tables_number       1
_symmetry_cell_setting            triclinic
loop_
_symmetry_equiv_pos_as_xyz
'x, y, z'
_cell_length_a     19.708851
_cell_length_b     19.645358
_cell_length_c     66.769822
_cell_angle_alpha  89.642388
_cell_angle_beta   90.503029
_cell_angle_gamma 119.69797
loop_
_atom_site_label
_atom_site_type_symbol
_atom_site_fract_x
_atom_site_fract_y
_atom_site_fract_z
_atom_type_partial_charge
Dy0 Dy 0.07427 0.64297 0.1573 0.0
Dy1 Dy 0.90133 0.55956 0.17989 0.0
C2 C -0.00622 0.73897 0.17005 0.0
O3 O 0.1053 0.63915 0.18939 0.0
O4 O -0.01029 0.61389 0.20443 0.0
O5 O 0.16133 0.73986 0.1402 0.0
O6 O 0.1775 0.64092 0.1472 0.0
O7 O 0.95199 0.48162 0.18425 0.0
O8 O 0.02009 0.51323 0.15501 0.0
O9 O 0.87283 0.52514 0.14767 0.0
O10 O -0.01389 0.62197 0.13349 0.0
O11 O 0.7903 0.45934 0.18764 0.0
O12 O 0.82043 0.57524 0.19824 0.0
C13 C 0.06378 0.63287 0.20535 0.0
O14 O 0.05865 0.73623 0.17159 0.0
O15 O 0.92677 0.67486 0.1673 0.0
C16 C 0.21798 0.69923 0.11524 0.0
C17 C 0.2488 0.68507 0.07467 0.0
C18 C 0.18516 0.69483 0.07986 0.0
C19 C 0.16983 0.70169 0.09992 0.0
C20 C 0.2817 0.68985 0.11013 0.0
C21 C 0.29697 0.68273 0.09004 0.0
C22 C 0.2011 0.70448 0.13651 0.0
C23 C -0.0128 0.46525 0.1701 0.0
C24 C 0.91346 0.56485 0.13198 0.0
C25 C 0.74881 0.46999 0.22024 0.0
C26 C 0.70934 0.42082 0.26046 0.0
C27 C 0.75612 0.39898 0.24941 0.0
C28 C 0.77604 0.42369 0.22956 0.0
C29 C 0.70181 0.49144 0.23111 0.0
C30 C 0.68245 0.46738 0.251 0.0
C31 C 0.77221 0.50009 0.19967 0.0
H32 H 0.14626 0.69572 0.06843 0.0
H33 H 0.11996 0.70846 0.10343 0.0
H34 H 0.31952 0.68771 0.12169 0.0
H35 H 0.34687 0.676 0.08653 0.0
H36 H 0.77708 0.36234 0.25604 0.0
H37 H 0.81314 0.40699 0.22157 0.0
H38 H 0.68102 0.52795 0.22428 0.0
H39 H 0.6476 0.48666 0.25907 0.0
Dy40 Dy 0.4233 0.98046 0.49082 0.0
Dy41 Dy 0.51214 0.1568 0.5116 0.0
C42 C 0.60447 0.06888 0.49993 0.0
O43 O 0.43915 0.95873 0.52301 0.0
O44 O 0.44848 0.07104 0.53606 0.0
O45 O 0.41787 0.8732 0.48082 0.0
O46 O 0.31814 0.89029 0.47687 0.0
O47 O 0.40019 0.13682 0.49806 0.0
O48 O 0.3339 0.00532 0.50356 0.0
O49 O 0.54558 0.18101 0.47932 0.0
O50 O 0.44859 0.06539 0.46575 0.0
O51 O 0.50164 0.25064 0.52508 0.0
O52 O 0.61476 0.25848 0.5234 0.0
C53 C 0.43831 8e-05 0.53833 0.0
O54 O 0.55069 0.02847 0.48648 0.0
O55 O 0.59283 0.10814 0.51403 0.0
C56 C 0.34055 0.82289 0.45123 0.0
C57 C 0.31798 0.78453 0.41002 0.0
C58 C 0.39375 0.83079 0.41798 0.0
C59 C 0.40491 0.85022 0.43835 0.0
C60 C 0.26523 0.77559 0.44344 0.0
C61 C 0.25395 0.75695 0.42309 0.0
C62 C 0.34953 0.84762 0.47236 0.0
C63 C 0.33432 0.07134 0.50044 0.0
C64 C 0.50603 0.138 0.46383 0.0
C65 C 0.58646 0.30899 0.55223 0.0
C66 C 0.59273 0.34456 0.59333 0.0
C67 C 0.60588 0.40142 0.57863 0.0
C68 C 0.60265 0.38369 0.55827 0.0
C69 C 0.57536 0.25256 0.5668 0.0
C70 C 0.57873 0.27027 0.58719 0.0
C71 C 0.57438 0.28839 0.53086 0.0
H72 H 0.44457 0.85231 0.40849 0.0
H73 H 0.46372 0.88752 0.44393 0.0
H74 H 0.2147 0.75469 0.45305 0.0
H75 H 0.19464 0.72271 0.41756 0.0
H76 H 0.61783 0.45948 0.58286 0.0
H77 H 0.61098 0.4278 0.54723 0.0
H78 H 0.56204 0.19423 0.56239 0.0
H79 H 0.56756 0.22493 0.5981 0.0
Dy80 Dy 0.41254 0.58547 0.82366 0.0
Dy81 Dy 0.49989 0.49696 0.84578 0.0
C82 C 0.32078 0.40438 0.83404 0.0
O83 O 0.41566 0.61476 0.85615 0.0
O84 O 0.43281 0.51618 0.86962 0.0
O85 O 0.31772 0.57766 0.80556 0.0
O86 O 0.40954 0.69083 0.81566 0.0
O87 O 0.57564 0.62609 0.84949 0.0
O88 O 0.54107 0.66198 0.82033 0.0
O89 O 0.53091 0.50076 0.81343 0.0
O90 O 0.43697 0.52379 0.79929 0.0
O91 O 0.60521 0.49627 0.85497 0.0
O92 O 0.4919 0.4006 0.86328 0.0
C93 C 0.41544 0.5723 0.8715 0.0
O94 O 0.3194 0.47036 0.83526 0.0
O95 O 0.38693 0.40364 0.83312 0.0
C96 C 0.35842 0.68285 0.78316 0.0
C97 C 0.37073 0.7319 0.74288 0.0
C98 C 0.41754 0.7017 0.75032 0.0
C99 C 0.41156 0.6776 0.7703 0.0
C100 C 0.31207 0.7134 0.77592 0.0
C101 C 0.31827 0.73794 0.75596 0.0
C102 C 0.34915 0.65346 0.80384 0.0
C103 C 0.59113 0.67672 0.83496 0.0
C104 C 0.49196 0.50479 0.79776 0.0
C105 C 0.59263 0.44137 0.88714 0.0
C106 C 0.63725 0.45193 0.9278 0.0
C107 C 0.59274 0.48571 0.92107 0.0
C108 C 0.57105 0.48085 0.90092 0.0
C109 C 0.63735 0.40797 0.89371 0.0
C110 C 0.65978 0.41344 0.91386 0.0
C111 C 0.56718 0.43393 0.86609 0.0
H112 H 0.4592 0.69716 0.74075 0.0
H113 H 0.448 0.65431 0.77568 0.0
H114 H 0.27043 0.71742 0.78563 0.0
H115 H 0.28079 0.7601 0.75066 0.0
H116 H 0.57541 0.51667 0.93136 0.0
H117 H 0.53717 0.5077 0.89607 0.0
H118 H 0.65448 0.37724 0.88329 0.0
H119 H 0.69361 0.38639 0.91861 0.0
C120 C 0.0659 0.88326 0.17642 0.0
C121 C -0.00399 0.81486 0.17152 0.0
C122 C 0.06771 0.95497 0.17788 0.0
C123 C 0.06467 0.10355 0.16714 0.0
H124 H 0.88925 0.11331 0.18985 0.0
C125 C 0.0197 0.36853 0.15529 0.0
C126 C -0.00922 0.39218 0.17136 0.0
C127 C 0.02345 0.29958 0.15655 0.0
C128 C 0.93914 0.11183 0.18368 0.0
H129 H 0.87322 0.76785 0.16431 0.0
H130 H 0.8768 0.89307 0.16644 0.0
H131 H 0.89073 -0.00982 0.19056 0.0
H132 H 0.94423 0.36289 0.20149 0.0
H133 H 0.95201 0.24325 0.20379 0.0
H134 H 0.11372 0.22556 0.16058 0.0
C135 C 0.92987 0.89116 0.16954 0.0
C136 C 0.93951 0.04105 0.18386 0.0
C137 C 0.92797 0.81948 0.16817 0.0
C138 C 0.9662 0.34587 0.18877 0.0
C139 C 0.97041 0.27718 0.19008 0.0
C140 C 0.06448 0.17445 0.16705 0.0
C141 C -0.00026 0.95967 0.1744 0.0
C142 C 0.00175 0.03591 0.17535 0.0
C143 C -0.00116 0.25317 0.17396 0.0
C144 C 0.00122 0.17909 0.17507 0.0
H145 H 0.11922 0.88149 0.17923 0.0
H146 H 0.12221 0.00661 0.18189 0.0
H147 H 0.11322 0.10136 0.16034 0.0
H148 H 0.03887 0.40285 0.14164 0.0
H149 H 0.04444 0.282 0.14375 0.0
C150 C 0.19008 0.00281 0.49508 0.0
C151 C 0.25984 0.07176 0.4996 0.0
C152 C 0.11942 0.00302 0.49421 0.0
C153 C 0.03701 0.13744 0.4911 0.0
H154 H 0.84919 0.95342 0.50951 0.0
C155 C 0.74629 0.13028 0.50857 0.0
C156 C 0.67965 0.06983 0.49923 0.0
C157 C 0.81759 0.13138 0.5078 0.0
C158 C 0.90121 0.00493 0.50422 0.0
H159 H 0.31071 0.19483 0.50695 0.0
H160 H 0.1871 0.19468 0.50632 0.0
H161 H 0.9731 0.95404 0.51015 0.0
H162 H 0.635 0.9629 0.48189 0.0
H163 H 0.75953 0.9639 0.48104 0.0
H164 H 0.96461 0.189 0.48596 0.0
C165 C 0.18688 0.14087 0.50279 0.0
C166 C 0.97219 0.00529 0.50445 0.0
C167 C 0.25776 0.14094 0.50329 0.0
C168 C 0.68548 0.01031 0.48919 0.0
C169 C 0.75645 0.01065 0.48875 0.0
C170 C 0.96619 0.1375 0.49121 0.0
C171 C 0.11674 0.07189 0.49821 0.0
C172 C 0.04106 0.0715 0.49786 0.0
C173 C 0.82302 0.07128 0.49801 0.0
C174 C 0.8978 0.07118 0.49773 0.0
H175 H 0.19018 0.94882 0.49194 0.0
H176 H 0.06705 0.94921 0.4902 0.0
H177 H 0.08834 0.18889 0.48553 0.0
H178 H 0.74354 0.17712 0.51633 0.0
H179 H 0.86823 0.17847 0.51513 0.0
C180 C 0.6743 0.81565 0.82373 0.0
C181 C 0.66599 0.75136 0.83503 0.0
C182 C 0.745 0.88635 0.82384 0.0
C183 C 0.954 0.96893 0.83035 0.0
H184 H 0.95703 0.16275 0.843 0.0
C185 C 0.24398 0.25964 0.83986 0.0
C186 C 0.24628 0.32943 0.83392 0.0
C187 C 0.17319 0.18902 0.84014 0.0
C188 C 0.95735 0.10954 0.83908 0.0
H189 H 0.72536 0.71033 0.85508 0.0
H190 H 0.8497 0.83363 0.85482 0.0
H191 H 0.83338 0.03981 0.84279 0.0
H192 H 0.17676 0.37992 0.82319 0.0
H193 H 0.05397 0.25657 0.8228 0.0
H194 H 0.07709 0.03807 0.82588 0.0
C195 C 0.80112 0.82923 0.84608 0.0
C196 C 0.88644 0.03908 0.8391 0.0
C197 C 0.72996 0.75896 0.84629 0.0
C198 C 0.17664 0.32711 0.82803 0.0
C199 C 0.10607 0.2563 0.82795 0.0
C200 C 0.02479 0.03953 0.82996 0.0
C201 C 0.80911 0.89359 0.83492 0.0
C202 C 0.88421 0.96819 0.83481 0.0
C203 C 0.10318 0.18626 0.83414 0.0
C204 C 0.02757 0.11089 0.83439 0.0
H205 H 0.62596 0.8116 0.81495 0.0
H206 H 0.74995 0.93511 0.81504 0.0
H207 H 0.95356 0.91498 0.82679 0.0
H208 H 0.2967 0.25978 0.84466 0.0
H209 H 0.1734 0.13688 0.84539 0.0
C210 C 0.39306 0.54016 0.90802 0.0
C211 C 0.39426 0.58652 0.89173 0.0
C212 C 0.37372 0.55261 0.92717 0.0
C213 C 0.36236 0.69974 0.95889 0.0
H214 H 0.23779 0.51896 0.99254 0.0
C215 C 0.25752 0.7233 0.03833 0.0
C216 C 0.26401 0.67615 0.05332 0.0
C217 C 0.2707 0.71397 0.01823 0.0
C218 C 0.27316 0.57008 0.9834 0.0
H219 H 0.37582 0.68266 0.88295 0.0
H220 H 0.341 0.70389 0.91653 0.0
H221 H 0.26397 0.49993 0.95807 0.0
H222 H 0.28887 0.58181 0.05888 0.0
H223 H 0.3126 0.56605 0.02389 0.0
H224 H 0.37151 0.76978 0.98437 0.0
C225 C 0.35597 0.65831 0.9144 0.0
C226 C 0.28821 0.55921 0.96362 0.0
C227 C 0.37552 0.64587 0.89514 0.0
C228 C 0.28412 0.61958 0.04774 0.0
C229 C 0.29685 0.60996 0.02765 0.0
C230 C 0.34705 0.71063 0.97871 0.0
C231 C 0.35458 0.61154 0.93063 0.0
C232 C 0.33402 0.62383 0.9512 0.0
C233 C 0.29011 0.65688 0.01264 0.0
C234 C 0.30322 0.64586 0.99128 0.0
H235 H 0.40723 0.49395 0.90608 0.0
H236 H 0.37477 0.51646 0.93935 0.0
H237 H 0.39844 0.75079 0.94981 0.0
H238 H 0.24277 0.76788 0.04216 0.0
H239 H 0.26458 0.7507 0.00702 0.0
C240 C 0.57777 0.25165 0.44016 0.0
C241 C 0.52689 0.17121 0.44332 0.0
C242 C 0.59739 0.2819 0.42069 0.0
C243 C 0.53226 0.23275 0.36756 0.0
H244 H 0.74268 0.3978 0.3559 0.0
C245 C 0.61508 0.37599 0.2893 0.0
C246 C 0.68898 0.39555 0.28174 0.0
C247 C 0.59592 0.35235 0.30922 0.0
C248 C 0.68379 0.3512 0.35884 0.0
H249 H 0.45795 0.0593 0.42839 0.0
H250 H 0.49338 0.1114 0.39472 0.0
H251 H 0.70862 0.34855 0.39002 0.0
H252 H 0.80112 0.40655 0.28957 0.0
H253 H 0.76659 0.36218 0.32397 0.0
H254 H 0.50814 0.23292 0.33631 0.0
C255 C 0.51662 0.15179 0.40717 0.0
C256 C 0.66391 0.3237 0.3785 0.0
C257 C 0.49656 0.12176 0.42657 0.0
C258 C 0.74321 0.39087 0.29471 0.0
C259 C 0.7238 0.36656 0.3146 0.0
C260 C 0.55226 0.25978 0.3479 0.0
C261 C 0.56705 0.23231 0.40393 0.0
C262 C 0.58794 0.26376 0.38312 0.0
C263 C 0.6498 0.34681 0.32213 0.0
C264 C 0.62837 0.31922 0.34323 0.0
H265 H 0.60204 0.29142 0.45272 0.0
H266 H 0.63563 0.34434 0.41879 0.0
H267 H 0.47284 0.18743 0.37054 0.0
H268 H 0.57135 0.37794 0.27976 0.0
H269 H 0.53877 0.33878 0.31451 0.0
C270 C 0.38198 0.71086 0.70619 0.0
C271 C 0.37608 0.75635 0.72154 0.0
C272 C 0.38606 0.73341 0.68611 0.0
C273 C 0.34358 0.85923 0.65256 0.0
H274 H 0.48331 0.83668 0.61612 0.0
C275 C 0.4216 0.00926 0.57521 0.0
C276 C 0.42617 0.96683 0.55887 0.0
C277 C 0.41244 0.97972 0.59468 0.0
C278 C 0.44327 0.84245 0.62604 0.0
H279 H 0.3716 0.8622 0.72779 0.0
H280 H 0.37937 0.90189 0.69286 0.0
H281 H 0.47421 0.79334 0.65083 0.0
H282 H 0.42444 0.85961 0.55032 0.0
H283 H 0.4081 0.80785 0.58441 0.0
H284 H 0.31341 0.90924 0.62785 0.0
C285 C 0.37916 0.84783 0.69627 0.0
C286 C 0.43801 0.81759 0.64595 0.0
C287 C 0.37484 0.82516 0.71632 0.0
C288 C 0.42103 0.89382 0.56253 0.0
C289 C 0.41215 0.86435 0.58208 0.0
C290 C 0.34903 0.88428 0.6327 0.0
C291 C 0.38454 0.80213 0.68088 0.0
C292 C 0.38856 0.82627 0.65951 0.0
C293 C 0.40778 0.90703 0.59838 0.0
C294 C 0.39941 0.87682 0.61924 0.0
H295 H 0.38201 0.65694 0.70966 0.0
H296 H 0.38906 0.6962 0.67466 0.0
H297 H 0.30365 0.86533 0.66244 0.0
H298 H 0.42561 0.06582 0.57303 0.0
H299 H 0.41044 0.01466 0.6069 0.0
C300 C 0.60591 0.44301 0.96448 0.0
C301 C 0.66019 0.45703 0.94926 0.0
C302 C 0.62759 0.44795 0.98467 0.0
C303 C 0.78202 0.45085 0.01795 0.0
H304 H 0.70271 0.54069 0.0565 0.0
C305 C 0.9262 0.56513 0.09482 0.0
C306 C 0.87781 0.5449 0.11171 0.0
C307 C 0.89424 0.54766 0.07556 0.0
C308 C 0.72453 0.51458 0.04595 0.0
H309 H 0.78015 0.4887 0.9433 0.0
H310 H 0.81862 0.49909 0.97839 0.0
H311 H 0.65828 0.52468 0.0217 0.0
H312 H 0.75763 0.49017 0.1216 0.0
H313 H 0.70142 0.46071 0.08765 0.0
H314 H 0.85028 0.4434 0.04211 0.0
C315 C 0.75859 0.48207 0.97484 0.0
C316 C 0.69903 0.50522 0.02599 0.0
C317 C 0.73668 0.47641 0.95467 0.0
C318 C 0.79639 0.50643 0.10888 0.0
C319 C 0.76429 0.48994 0.08948 0.0
C320 C 0.80806 0.461 0.03782 0.0
C321 C 0.70432 0.46768 0.99014 0.0
C322 C 0.72819 0.47409 0.01165 0.0
C323 C 0.81303 0.51021 0.07264 0.0
C324 C 0.78032 0.4938 0.05198 0.0
H325 H 0.54623 0.42705 0.96078 0.0
H326 H 0.58383 0.43529 0.99598 0.0
H327 H 0.80437 0.42487 0.00752 0.0
H328 H -0.01092 0.59404 0.09646 0.0
H329 H 0.93333 0.56464 0.06289 0.0
C330 C 0.18099 0.6997 0.22802 0.0
C331 C 0.10085 0.64691 0.22537 0.0
C332 C 0.21442 0.71483 0.24723 0.0
C333 C 0.19345 0.63116 0.297 0.0
H334 H 0.28864 0.8432 0.31748 0.0
C335 C 0.24319 0.69485 0.38141 0.0
C336 C 0.30504 0.76685 0.38815 0.0
C337 C 0.2272 0.68024 0.36098 0.0
C338 C 0.26397 0.78387 0.31196 0.0
H339 H -0.00655 0.56671 0.24057 0.0
H340 H 0.05245 0.59136 0.27395 0.0
H341 H 0.2464 0.81744 0.28255 0.0
H342 H 0.39994 0.87923 0.37832 0.0
H343 H 0.37481 0.85207 0.34274 0.0
H344 H 0.21181 0.59705 0.32607 0.0
C345 C 0.08901 0.62177 0.26124 0.0
C346 C 0.23946 0.76924 0.29194 0.0
C347 C 0.05528 0.60808 0.24217 0.0
C348 C 0.35224 0.82276 0.37379 0.0
C349 C 0.33696 0.80763 0.35329 0.0
C350 C 0.21931 0.64587 0.31688 0.0
C351 C 0.16863 0.6758 0.26398 0.0
C352 C 0.2025 0.69255 0.28443 0.0
C353 C 0.27344 0.73658 0.34659 0.0
C354 C 0.25324 0.72217 0.32482 0.0
H355 H 0.21734 0.7306 0.21532 0.0
H356 H 0.276 0.75672 0.24902 0.0
H357 H 0.16573 0.57157 0.29145 0.0
H358 H 0.20635 0.64963 0.39193 0.0
H359 H 0.17706 0.62525 0.35656 0.0
C360 C 0.47657 0.50354 0.76053 0.0
C361 C 0.51002 0.48815 0.77743 0.0
C362 C 0.4934 0.48948 0.74126 0.0
C363 C 0.5577 0.37399 0.71247 0.0
H364 H 0.59782 0.52997 0.67147 0.0
C365 C 0.62468 0.3374 0.6297 0.0
C366 C 0.59001 0.3618 0.6149 0.0
C367 C 0.62151 0.35395 0.64995 0.0
C368 C 0.586 0.4854 0.68267 0.0
H369 H 0.58702 0.44487 0.7872 0.0
H370 H 0.6159 0.41943 0.75329 0.0
H371 H 0.58081 0.55657 0.70606 0.0
H372 H 0.52251 0.42024 0.60989 0.0
H373 H 0.51638 0.44837 0.645 0.0
H374 H 0.56094 0.30195 0.68893 0.0
C375 C 0.57666 0.44266 0.75513 0.0
C376 C 0.57652 0.50082 0.70252 0.0
C377 C 0.56037 0.45752 0.77453 0.0
C378 C 0.55139 0.4022 0.62084 0.0
C379 C 0.54796 0.41841 0.64101 0.0
C380 C 0.56676 0.35829 0.69252 0.0
C381 C 0.54375 0.45912 0.7383 0.0
C382 C 0.56089 0.44482 0.71759 0.0
C383 C 0.58336 0.39501 0.65584 0.0
C384 C 0.5796 0.41331 0.67731 0.0
H385 H 0.43736 0.52692 0.76209 0.0
H386 H 0.46613 0.50166 0.72863 0.0
H387 H 0.54524 0.32952 0.72375 0.0
H388 H 0.65528 0.30657 0.62559 0.0
H389 H 0.64996 0.33561 0.66094 0.0
loop_
_geom_bond_atom_site_label_1
_geom_bond_atom_site_label_2
_geom_bond_distance
_geom_bond_site_symmetry_2
_ccdc_geom_bond_type
Dy0 O3 2.307 . S
Dy0 O5 2.395 . S
Dy0 O6 2.379 . S
Dy0 O8 2.339 . S
Dy0 O10 2.298 . S
Dy0 O14 2.275 . S
Dy0 C22 2.738 . S
Dy1 O4 2.298 1_655 S
Dy1 O7 2.275 1_655 S
Dy1 O9 2.307 . S
Dy1 O11 2.395 . S
Dy1 O12 2.379 . S
Dy1 O15 2.339 1_655 S
Dy1 C31 2.738 . S
C2 O14 1.254 . S
C2 O15 1.257 . S
O3 Dy0 2.307 . S
O3 C13 1.266 . S
O4 Dy1 2.298 1_455 S
O4 C13 1.236 . S
O5 Dy0 2.395 . S
O5 C22 1.255 . S
O6 Dy0 2.379 . S
O6 C22 1.249 . S
O7 Dy1 2.275 1_455 S
O7 C23 1.254 . S
O8 Dy0 2.339 . S
O8 C23 1.257 . S
O9 Dy1 2.307 . S
O9 C24 1.266 1_655 S
O10 Dy0 2.298 . S
O10 C24 1.236 . S
O11 Dy1 2.395 . S
O11 C31 1.255 . S
O12 Dy1 2.379 . S
O12 C31 1.249 . S
C13 O3 1.266 . S
C13 O4 1.236 . S
O14 Dy0 2.275 . S
O14 C2 1.254 . S
O15 Dy1 2.339 1_455 S
O15 C2 1.257 . S
C16 C19 1.344 . S
C16 C20 1.328 . S
C16 C22 1.516 . S
C17 C18 1.304 . S
C17 C21 1.323 . S
C18 C17 1.304 . S
C18 C19 1.371 . S
C18 H32 0.930 . S
C19 C16 1.344 . S
C19 C18 1.371 . S
C19 H33 0.931 . S
C20 C16 1.328 . S
C20 C21 1.433 . S
C20 H34 0.931 . S
C21 C17 1.323 . S
C21 C20 1.433 . S
C21 H35 0.933 . S
C22 Dy0 2.738 . S
C22 O5 1.255 . S
C22 O6 1.249 . S
C22 C16 1.516 . S
C23 O7 1.254 . S
C23 O8 1.257 . S
C24 O9 1.266 1_455 S
C24 O10 1.236 . S
C25 C28 1.344 . S
C25 C29 1.328 . S
C25 C31 1.516 . S
C26 C27 1.304 . S
C26 C30 1.323 . S
C27 C26 1.304 . S
C27 C28 1.371 . S
C27 H36 0.930 . S
C28 C25 1.344 . S
C28 C27 1.371 . S
C28 H37 0.931 . S
C29 C25 1.328 . S
C29 C30 1.433 . S
C29 H38 0.931 . S
C30 C26 1.323 . S
C30 C29 1.433 . S
C30 H39 0.933 . S
C31 Dy1 2.738 . S
C31 O11 1.255 . S
C31 O12 1.249 . S
C31 C25 1.516 . S
H32 C18 0.930 . S
H33 C19 0.931 . S
H34 C20 0.931 . S
H35 C21 0.933 . S
H36 C27 0.930 . S
H37 C28 0.931 . S
H38 C29 0.931 . S
H39 C30 0.933 . S
Dy40 O43 2.307 . S
Dy40 O45 2.395 . S
Dy40 O46 2.379 . S
Dy40 O48 2.339 . S
Dy40 O50 2.298 1_565 S
Dy40 O54 2.275 . S
Dy40 C62 2.738 . S
Dy41 O44 2.298 1_545 S
Dy41 O47 2.275 . S
Dy41 O49 2.307 . S
Dy41 O51 2.395 . S
Dy41 O52 2.379 . S
Dy41 O55 2.339 . S
Dy41 C71 2.738 . S
C42 O54 1.254 1_545 S
C42 O55 1.257 . S
O43 Dy40 2.307 . S
O43 C53 1.266 . S
O44 Dy41 2.298 1_565 S
O44 C53 1.236 . S
O45 Dy40 2.395 . S
O45 C62 1.255 . S
O46 Dy40 2.379 . S
O46 C62 1.249 . S
O47 Dy41 2.275 . S
O47 C63 1.254 1_545 S
O48 Dy40 2.339 . S
O48 C63 1.257 . S
O49 Dy41 2.307 . S
O49 C64 1.266 . S
O50 Dy40 2.298 1_545 S
O50 C64 1.236 . S
O51 Dy41 2.395 . S
O51 C71 1.255 . S
O52 Dy41 2.379 . S
O52 C71 1.249 . S
C53 O43 1.266 . S
C53 O44 1.236 . S
O54 Dy40 2.275 . S
O54 C42 1.254 1_565 S
O55 Dy41 2.339 . S
O55 C42 1.257 . S
C56 C59 1.344 . S
C56 C60 1.328 . S
C56 C62 1.516 . S
C57 C58 1.304 . S
C57 C61 1.323 . S
C58 C57 1.304 . S
C58 C59 1.371 . S
C58 H72 0.930 . S
C59 C56 1.344 . S
C59 C58 1.371 . S
C59 H73 0.931 . S
C60 C56 1.328 . S
C60 C61 1.433 . S
C60 H74 0.931 . S
C61 C57 1.323 . S
C61 C60 1.433 . S
C61 H75 0.933 . S
C62 Dy40 2.738 . S
C62 O45 1.255 . S
C62 O46 1.249 . S
C62 C56 1.516 . S
C63 O47 1.254 1_565 S
C63 O48 1.257 . S
C64 O49 1.266 . S
C64 O50 1.236 . S
C65 C68 1.344 . S
C65 C69 1.328 . S
C65 C71 1.516 . S
C66 C67 1.304 . S
C66 C70 1.323 . S
C67 C66 1.304 . S
C67 C68 1.371 . S
C67 H76 0.930 . S
C68 C65 1.344 . S
C68 C67 1.371 . S
C68 H77 0.931 . S
C69 C65 1.328 . S
C69 C70 1.433 . S
C69 H78 0.931 . S
C70 C66 1.323 . S
C70 C69 1.433 . S
C70 H79 0.933 . S
C71 Dy41 2.738 . S
C71 O51 1.255 . S
C71 O52 1.249 . S
C71 C65 1.516 . S
H72 C58 0.930 . S
H73 C59 0.931 . S
H74 C60 0.931 . S
H75 C61 0.933 . S
H76 C67 0.930 . S
H77 C68 0.931 . S
H78 C69 0.931 . S
H79 C70 0.933 . S
Dy80 O83 2.307 . S
Dy80 O85 2.395 . S
Dy80 O86 2.379 . S
Dy80 O88 2.339 . S
Dy80 O90 2.298 . S
Dy80 O94 2.275 . S
Dy80 C102 2.738 . S
Dy81 O84 2.298 . S
Dy81 O87 2.275 . S
Dy81 O89 2.307 . S
Dy81 O91 2.395 . S
Dy81 O92 2.379 . S
Dy81 O95 2.339 . S
Dy81 C111 2.738 . S
C82 O94 1.254 . S
C82 O95 1.257 . S
O83 Dy80 2.307 . S
O83 C93 1.266 . S
O84 Dy81 2.298 . S
O84 C93 1.236 . S
O85 Dy80 2.395 . S
O85 C102 1.255 . S
O86 Dy80 2.379 . S
O86 C102 1.249 . S
O87 Dy81 2.275 . S
O87 C103 1.254 . S
O88 Dy80 2.339 . S
O88 C103 1.257 . S
O89 Dy81 2.307 . S
O89 C104 1.266 . S
O90 Dy80 2.298 . S
O90 C104 1.236 . S
O91 Dy81 2.395 . S
O91 C111 1.255 . S
O92 Dy81 2.379 . S
O92 C111 1.249 . S
C93 O83 1.266 . S
C93 O84 1.236 . S
O94 Dy80 2.275 . S
O94 C82 1.254 . S
O95 Dy81 2.339 . S
O95 C82 1.257 . S
C96 C99 1.344 . S
C96 C100 1.328 . S
C96 C102 1.516 . S
C97 C98 1.304 . S
C97 C101 1.323 . S
C98 C97 1.304 . S
C98 C99 1.371 . S
C98 H112 0.930 . S
C99 C96 1.344 . S
C99 C98 1.371 . S
C99 H113 0.931 . S
C100 C96 1.328 . S
C100 C101 1.433 . S
C100 H114 0.931 . S
C101 C97 1.323 . S
C101 C100 1.433 . S
C101 H115 0.933 . S
C102 Dy80 2.738 . S
C102 O85 1.255 . S
C102 O86 1.249 . S
C102 C96 1.516 . S
C103 O87 1.254 . S
C103 O88 1.257 . S
C104 O89 1.266 . S
C104 O90 1.236 . S
C105 C108 1.344 . S
C105 C109 1.328 . S
C105 C111 1.516 . S
C106 C107 1.304 . S
C106 C110 1.323 . S
C107 C106 1.304 . S
C107 C108 1.371 . S
C107 H116 0.930 . S
C108 C105 1.344 . S
C108 C107 1.371 . S
C108 H117 0.931 . S
C109 C105 1.328 . S
C109 C110 1.433 . S
C109 H118 0.931 . S
C110 C106 1.323 . S
C110 C109 1.433 . S
C110 H119 0.933 . S
C111 Dy81 2.738 . S
C111 O91 1.255 . S
C111 O92 1.249 . S
C111 C105 1.516 . S
H112 C98 0.930 . S
H113 C99 0.931 . S
H114 C100 0.931 . S
H115 C101 0.933 . S
H116 C107 0.930 . S
H117 C108 0.931 . S
H118 C109 0.931 . S
H119 C110 0.933 . S
C120 C121 1.349 . S
C120 C122 1.327 . S
C120 H145 0.950 . S
C121 C120 1.349 . S
C121 C137 1.349 . S
C122 C120 1.327 . S
C122 C141 1.429 . S
C122 H146 0.950 . S
C123 C140 1.574 . S
C123 C142 1.368 . S
C123 H147 0.949 . S
H124 C128 0.949 . S
C125 C126 1.349 . S
C125 C127 1.327 . S
C125 H148 0.950 . S
C126 C125 1.349 . S
C126 C138 1.349 . S
C127 C125 1.327 . S
C127 C143 1.429 . S
C127 H149 0.950 . S
C128 H124 0.949 . S
C128 C136 1.574 . S
C128 C144 1.368 . S
H129 C137 0.950 . S
H130 C135 0.950 . S
H131 C136 0.949 . S
H132 C138 0.950 . S
H133 C139 0.950 . S
H134 C140 0.949 . S
C135 H130 0.950 . S
C135 C137 1.327 . S
C135 C141 1.429 . S
C136 C128 1.574 . S
C136 H131 0.949 . S
C136 C142 1.368 . S
C137 C121 1.349 . S
C137 H129 0.950 . S
C137 C135 1.327 . S
C138 C126 1.349 . S
C138 H132 0.950 . S
C138 C139 1.327 . S
C139 H133 0.950 . S
C139 C138 1.327 . S
C139 C143 1.429 . S
C140 C123 1.574 . S
C140 H134 0.949 . S
C140 C144 1.368 . S
C141 C122 1.429 . S
C141 C135 1.429 . S
C141 C142 1.523 1_565 S
C142 C123 1.368 . S
C142 C136 1.368 . S
C142 C141 1.523 1_545 S
C143 C127 1.429 . S
C143 C139 1.429 . S
C143 C144 1.523 . S
C144 C128 1.368 . S
C144 C140 1.368 . S
C144 C143 1.523 . S
H145 C120 0.950 . S
H146 C122 0.950 . S
H147 C123 0.949 . S
H148 C125 0.950 . S
H149 C127 0.950 . S
C150 C151 1.349 1_565 S
C150 C152 1.327 . S
C150 H175 0.950 . S
C151 C150 1.349 1_545 S
C151 C167 1.349 . S
C152 C150 1.327 . S
C152 C171 1.418 1_565 S
C152 H176 0.950 . S
C153 C170 1.574 1_455 S
C153 C172 1.373 . S
C153 H177 0.949 . S
H154 C158 0.949 . S
C155 C156 1.349 1_545 S
C155 C157 1.327 . S
C155 H178 0.950 . S
C156 C155 1.349 1_565 S
C156 C168 1.349 . S
C157 C155 1.327 . S
C157 C173 1.421 1_545 S
C157 H179 0.950 . S
C158 H154 0.949 . S
C158 C166 1.574 . S
C158 C174 1.370 . S
H159 C167 0.950 . S
H160 C165 0.950 . S
H161 C166 0.949 . S
H162 C168 0.950 . S
H163 C169 0.950 . S
H164 C170 0.949 . S
C165 H160 0.950 . S
C165 C167 1.327 . S
C165 C171 1.433 . S
C166 C158 1.574 . S
C166 H161 0.949 . S
C166 C172 1.366 1_665 S
C167 C151 1.349 . S
C167 H159 0.950 . S
C167 C165 1.327 . S
C168 C156 1.349 . S
C168 H162 0.950 . S
C168 C169 1.327 . S
C169 H163 0.950 . S
C169 C168 1.327 . S
C169 C173 1.432 . S
C170 C153 1.574 1_655 S
C170 H164 0.949 . S
C170 C174 1.367 1_545 S
C171 C152 1.418 1_545 S
C171 C165 1.433 . S
C171 C172 1.526 . S
C172 C153 1.373 . S
C172 C166 1.366 1_445 S
C172 C171 1.526 . S
C173 C157 1.421 1_565 S
C173 C169 1.432 . S
C173 C174 1.526 . S
C174 C158 1.370 . S
C174 C170 1.367 1_565 S
C174 C173 1.526 . S
H175 C150 0.950 . S
H176 C152 0.950 . S
H177 C153 0.949 . S
H178 C155 0.950 . S
H179 C157 0.950 . S
C180 C181 1.349 . S
C180 C182 1.327 . S
C180 H205 0.950 . S
C181 C180 1.349 . S
C181 C197 1.349 . S
C182 C180 1.327 . S
C182 C201 1.429 . S
C182 H206 0.942 1_565 S
C183 C200 1.574 1_655 S
C183 C202 1.368 . S
C183 H207 0.949 . S
H184 C188 0.949 . S
C185 C186 1.349 . S
C185 C187 1.327 . S
C185 H208 0.950 . S
C186 C185 1.349 . S
C186 C198 1.349 . S
C187 C185 1.327 . S
C187 C203 1.429 . S
C187 H209 0.950 . S
C188 H184 0.949 . S
C188 C196 1.574 . S
C188 C204 1.368 1_655 S
H189 C197 0.950 . S
H190 C195 0.950 . S
H191 C196 0.949 . S
H192 C198 0.950 . S
H193 C199 0.950 . S
H194 C200 0.949 . S
C195 H190 0.950 . S
C195 C197 1.327 . S
C195 C201 1.429 . S
C196 C188 1.574 . S
C196 H191 0.949 . S
C196 C202 1.368 . S
C197 C181 1.349 . S
C197 H189 0.950 . S
C197 C195 1.327 . S
C198 C186 1.349 . S
C198 H192 0.950 . S
C198 C199 1.327 . S
C199 H193 0.950 . S
C199 C198 1.327 . S
C199 C203 1.429 . S
C200 C183 1.574 1_455 S
C200 H194 0.949 . S
C200 C204 1.368 . S
C201 C182 1.429 . S
C201 C195 1.429 . S
C201 C202 1.523 1_565 S
C202 C183 1.368 . S
C202 C196 1.368 . S
C202 C201 1.523 1_545 S
C203 C187 1.429 . S
C203 C199 1.429 . S
C203 C204 1.523 . S
C204 C188 1.368 1_455 S
C204 C200 1.368 . S
C204 C203 1.523 . S
H205 C180 0.950 . S
H206 C182 0.942 1_545 S
H207 C183 0.949 . S
H208 C185 0.950 . S
H209 C187 0.950 . S
C210 C211 1.349 . S
C210 C212 1.327 . S
C210 H235 0.950 . S
C211 C210 1.349 . S
C211 C227 1.349 . S
C212 C210 1.327 . S
C212 C231 1.429 . S
C212 H236 0.950 . S
C213 C230 1.574 . S
C213 C232 1.368 . S
C213 H237 0.949 . S
H214 C218 0.949 . S
C215 C216 1.349 . S
C215 C217 1.327 . S
C215 H238 0.950 . S
C216 C215 1.349 . S
C216 C228 1.349 . S
C217 C215 1.327 . S
C217 C233 1.429 . S
C217 H239 0.952 1_554 S
C218 H214 0.949 . S
C218 C226 1.574 . S
C218 C234 1.368 . S
H219 C227 0.950 . S
H220 C225 0.950 . S
H221 C226 0.949 . S
H222 C228 0.950 . S
H223 C229 0.950 . S
H224 C230 0.949 . S
C225 H220 0.950 . S
C225 C227 1.327 . S
C225 C231 1.429 . S
C226 C218 1.574 . S
C226 H221 0.949 . S
C226 C232 1.368 . S
C227 C211 1.349 . S
C227 H219 0.950 . S
C227 C225 1.327 . S
C228 C216 1.349 . S
C228 H222 0.950 . S
C228 C229 1.327 . S
C229 H223 0.950 . S
C229 C228 1.327 . S
C229 C233 1.429 . S
C230 C213 1.574 . S
C230 H224 0.949 . S
C230 C234 1.368 . S
C231 C212 1.429 . S
C231 C225 1.429 . S
C231 C232 1.523 . S
C232 C213 1.368 . S
C232 C226 1.368 . S
C232 C231 1.523 . S
C233 C217 1.429 . S
C233 C229 1.429 . S
C233 C234 1.523 1_554 S
C234 C218 1.368 . S
C234 C230 1.368 . S
C234 C233 1.523 1_556 S
H235 C210 0.950 . S
H236 C212 0.950 . S
H237 C213 0.949 . S
H238 C215 0.950 . S
H239 C217 0.952 1_556 S
C240 C241 1.349 . S
C240 C242 1.327 . S
C240 H265 0.950 . S
C241 C240 1.349 . S
C241 C257 1.349 . S
C242 C240 1.327 . S
C242 C261 1.429 . S
C242 H266 0.950 . S
C243 C260 1.574 . S
C243 C262 1.368 . S
C243 H267 0.949 . S
H244 C248 0.949 . S
C245 C246 1.349 . S
C245 C247 1.327 . S
C245 H268 0.950 . S
C246 C245 1.349 . S
C246 C258 1.349 . S
C247 C245 1.327 . S
C247 C263 1.429 . S
C247 H269 0.950 . S
C248 H244 0.949 . S
C248 C256 1.574 . S
C248 C264 1.368 . S
H249 C257 0.950 . S
H250 C255 0.950 . S
H251 C256 0.949 . S
H252 C258 0.950 . S
H253 C259 0.950 . S
H254 C260 0.949 . S
C255 H250 0.950 . S
C255 C257 1.327 . S
C255 C261 1.429 . S
C256 C248 1.574 . S
C256 H251 0.949 . S
C256 C262 1.368 . S
C257 C241 1.349 . S
C257 H249 0.950 . S
C257 C255 1.327 . S
C258 C246 1.349 . S
C258 H252 0.950 . S
C258 C259 1.327 . S
C259 H253 0.950 . S
C259 C258 1.327 . S
C259 C263 1.429 . S
C260 C243 1.574 . S
C260 H254 0.949 . S
C260 C264 1.368 . S
C261 C242 1.429 . S
C261 C255 1.429 . S
C261 C262 1.523 . S
C262 C243 1.368 . S
C262 C256 1.368 . S
C262 C261 1.523 . S
C263 C247 1.429 . S
C263 C259 1.429 . S
C263 C264 1.523 . S
C264 C248 1.368 . S
C264 C260 1.368 . S
C264 C263 1.523 . S
H265 C240 0.950 . S
H266 C242 0.950 . S
H267 C243 0.949 . S
H268 C245 0.950 . S
H269 C247 0.950 . S
C270 C271 1.349 . S
C270 C272 1.327 . S
C270 H295 0.950 . S
C271 C270 1.349 . S
C271 C287 1.349 . S
C272 C270 1.327 . S
C272 C291 1.429 . S
C272 H296 0.950 . S
C273 C290 1.574 . S
C273 C292 1.368 . S
C273 H297 0.949 . S
H274 C278 0.949 . S
C275 C276 1.349 . S
C275 C277 1.327 . S
C275 H298 0.950 . S
C276 C275 1.349 . S
C276 C288 1.349 . S
C277 C275 1.327 . S
C277 C293 1.429 . S
C277 H299 0.950 . S
C278 H274 0.949 . S
C278 C286 1.574 . S
C278 C294 1.368 . S
H279 C287 0.950 . S
H280 C285 0.950 . S
H281 C286 0.949 . S
H282 C288 0.950 . S
H283 C289 0.950 . S
H284 C290 0.949 . S
C285 H280 0.950 . S
C285 C287 1.327 . S
C285 C291 1.429 . S
C286 C278 1.574 . S
C286 H281 0.949 . S
C286 C292 1.368 . S
C287 C271 1.349 . S
C287 H279 0.950 . S
C287 C285 1.327 . S
C288 C276 1.349 . S
C288 H282 0.950 . S
C288 C289 1.327 . S
C289 H283 0.950 . S
C289 C288 1.327 . S
C289 C293 1.429 . S
C290 C273 1.574 . S
C290 H284 0.949 . S
C290 C294 1.368 . S
C291 C272 1.429 . S
C291 C285 1.429 . S
C291 C292 1.523 . S
C292 C273 1.368 . S
C292 C286 1.368 . S
C292 C291 1.523 . S
C293 C277 1.429 . S
C293 C289 1.429 . S
C293 C294 1.523 . S
C294 C278 1.368 . S
C294 C290 1.368 . S
C294 C293 1.523 . S
H295 C270 0.950 . S
H296 C272 0.950 . S
H297 C273 0.949 . S
H298 C275 0.950 . S
H299 C277 0.950 . S
C300 C301 1.349 . S
C300 C302 1.327 . S
C300 H325 0.950 . S
C301 C300 1.349 . S
C301 C317 1.349 . S
C302 C300 1.327 . S
C302 C321 1.415 1_556 S
C302 H326 0.950 1_556 S
C303 C320 1.574 . S
C303 C322 1.368 . S
C303 H327 0.949 . S
H304 C308 0.949 . S
C305 C306 1.349 . S
C305 C307 1.327 . S
C305 H328 0.950 . S
C306 C305 1.349 . S
C306 C318 1.349 . S
C307 C305 1.327 . S
C307 C323 1.429 . S
C307 H329 0.950 . S
C308 H304 0.949 . S
C308 C316 1.574 . S
C308 C324 1.368 . S
H309 C317 0.950 . S
H310 C315 0.950 . S
H311 C316 0.949 . S
H312 C318 0.950 . S
H313 C319 0.950 . S
H314 C320 0.949 . S
C315 H310 0.950 . S
C315 C317 1.327 . S
C315 C321 1.397 1_556 S
C316 C308 1.574 . S
C316 H311 0.949 . S
C316 C322 1.368 . S
C317 C301 1.349 . S
C317 H309 0.950 . S
C317 C315 1.327 . S
C318 C306 1.349 . S
C318 H312 0.950 . S
C318 C319 1.327 . S
C319 H313 0.950 . S
C319 C318 1.327 . S
C319 C323 1.429 . S
C320 C303 1.574 . S
C320 H314 0.949 . S
C320 C324 1.368 . S
C321 C302 1.415 1_554 S
C321 C315 1.397 1_554 S
C321 C322 1.566 . S
C322 C303 1.368 . S
C322 C316 1.368 . S
C322 C321 1.566 . S
C323 C307 1.429 . S
C323 C319 1.429 . S
C323 C324 1.523 . S
C324 C308 1.368 . S
C324 C320 1.368 . S
C324 C323 1.523 . S
H325 C300 0.950 . S
H326 C302 0.950 1_554 S
H327 C303 0.949 . S
H328 C305 0.950 . S
H329 C307 0.950 . S
C330 C331 1.349 . S
C330 C332 1.327 . S
C330 H355 0.950 . S
C331 C330 1.349 . S
C331 C347 1.349 . S
C332 C330 1.327 . S
C332 C351 1.429 . S
C332 H356 0.950 . S
C333 C350 1.574 . S
C333 C352 1.368 . S
C333 H357 0.949 . S
H334 C338 0.949 . S
C335 C336 1.349 . S
C335 C337 1.327 . S
C335 H358 0.950 . S
C336 C335 1.349 . S
C336 C348 1.349 . S
C337 C335 1.327 . S
C337 C353 1.429 . S
C337 H359 0.950 . S
C338 H334 0.949 . S
C338 C346 1.574 . S
C338 C354 1.368 . S
H339 C347 0.950 . S
H340 C345 0.950 . S
H341 C346 0.949 . S
H342 C348 0.950 . S
H343 C349 0.950 . S
H344 C350 0.949 . S
C345 H340 0.950 . S
C345 C347 1.327 . S
C345 C351 1.429 . S
C346 C338 1.574 . S
C346 H341 0.949 . S
C346 C352 1.368 . S
C347 C331 1.349 . S
C347 H339 0.950 . S
C347 C345 1.327 . S
C348 C336 1.349 . S
C348 H342 0.950 . S
C348 C349 1.327 . S
C349 H343 0.950 . S
C349 C348 1.327 . S
C349 C353 1.429 . S
C350 C333 1.574 . S
C350 H344 0.949 . S
C350 C354 1.368 . S
C351 C332 1.429 . S
C351 C345 1.429 . S
C351 C352 1.523 . S
C352 C333 1.368 . S
C352 C346 1.368 . S
C352 C351 1.523 . S
C353 C337 1.429 . S
C353 C349 1.429 . S
C353 C354 1.523 . S
C354 C338 1.368 . S
C354 C350 1.368 . S
C354 C353 1.523 . S
H355 C330 0.950 . S
H356 C332 0.950 . S
H357 C333 0.949 . S
H358 C335 0.950 . S
H359 C337 0.950 . S
C360 C361 1.349 . S
C360 C362 1.327 . S
C360 H385 0.950 . S
C361 C360 1.349 . S
C361 C377 1.349 . S
C362 C360 1.327 . S
C362 C381 1.429 . S
C362 H386 0.950 . S
C363 C380 1.574 . S
C363 C382 1.368 . S
C363 H387 0.949 . S
H364 C368 0.949 . S
C365 C366 1.349 . S
C365 C367 1.327 . S
C365 H388 0.950 . S
C366 C365 1.349 . S
C366 C378 1.349 . S
C367 C365 1.327 . S
C367 C383 1.429 . S
C367 H389 0.950 . S
C368 H364 0.949 . S
C368 C376 1.574 . S
C368 C384 1.368 . S
H369 C377 0.950 . S
H370 C375 0.950 . S
H371 C376 0.949 . S
H372 C378 0.950 . S
H373 C379 0.950 . S
H374 C380 0.949 . S
C375 H370 0.950 . S
C375 C377 1.327 . S
C375 C381 1.429 . S
C376 C368 1.574 . S
C376 H371 0.949 . S
C376 C382 1.368 . S
C377 C361 1.349 . S
C377 H369 0.950 . S
C377 C375 1.327 . S
C378 C366 1.349 . S
C378 H372 0.950 . S
C378 C379 1.327 . S
C379 H373 0.950 . S
C379 C378 1.327 . S
C379 C383 1.429 . S
C380 C363 1.574 . S
C380 H374 0.949 . S
C380 C384 1.368 . S
C381 C362 1.429 . S
C381 C375 1.429 . S
C381 C382 1.523 . S
C382 C363 1.368 . S
C382 C376 1.368 . S
C382 C381 1.523 . S
C383 C367 1.429 . S
C383 C379 1.429 . S
C383 C384 1.523 . S
C384 C368 1.368 . S
C384 C380 1.368 . S
C384 C383 1.523 . S
H385 C360 0.950 . S
H386 C362 0.950 . S
H387 C363 0.949 . S
H388 C365 0.950 . S
H389 C367 0.950 . S
C121 C2 1.395 . S
C126 C23 1.395 . S
C151 C63 1.395 1_545 S
C156 C42 1.395 1_565 S
C181 C103 1.395 . S
C186 C82 1.395 . S
C211 C93 0.974 . S
C216 C17 0.954 . S
C241 C64 1.513 . S
C246 C26 1.491 . S
C271 C97 0.953 . S
C276 C53 0.974 . S
C301 C106 1.491 . S
C306 C24 1.513 1_655 S
C331 C13 0.974 . S
C336 C57 0.954 . S
C361 C104 1.513 . S
C366 C66 1.491 . S
