# Generated by pormake.
# Topology dia-f, (3)-cn, num edge types: 1
# Building blocks:
#     Node 0, Type 0, BuildingBlock: WUSLED_clean_sbu_0, # of connection points: 3
#     Node 1, Type 0, BuildingBlock: WUSLED_clean_sbu_0, # of connection points: 3
#     Node 2, Type 0, BuildingBlock: WUSLED_clean_sbu_0, # of connection points: 3
#     Node 3, Type 0, BuildingBlock: WUSLED_clean_sbu_0, # of connection points: 3
#     Node 4, Type 0, BuildingBlock: WUSLED_clean_sbu_0, # of connection points: 3
#     Node 5, Type 0, BuildingBlock: WUSLED_clean_sbu_0, # of connection points: 3
#     Node 6, Type 0, BuildingBlock: WUSLED_clean_sbu_0, # of connection points: 3
#     Node 7, Type 0, BuildingBlock: WUSLED_clean_sbu_0, # of connection points: 3
#     Node 8, Type 0, BuildingBlock: WUSLED_clean_sbu_0, # of connection points: 3
#     Node 9, Type 0, BuildingBlock: WUSLED_clean_sbu_0, # of connection points: 3
#     Node 10, Type 0, BuildingBlock: WUSLED_clean_sbu_0, # of connection points: 3
#     Node 11, Type 0, BuildingBlock: WUSLED_clean_sbu_0, # of connection points: 3
#     Node 12, Type 0, BuildingBlock: WUSLED_clean_sbu_0, # of connection points: 3
#     Node 13, Type 0, BuildingBlock: WUSLED_clean_sbu_0, # of connection points: 3
#     Node 14, Type 0, BuildingBlock: WUSLED_clean_sbu_0, # of connection points: 3
#     Node 15, Type 0, BuildingBlock: WUSLED_clean_sbu_0, # of connection points: 3
#     Edge 16, Type (0, 0), BuildingBlock: UVAHIK_clean_linker_0, # of connection points: 2
#     Edge 17, Type (0, 0), BuildingBlock: UVAHIK_clean_linker_0, # of connection points: 2
#     Edge 18, Type (0, 0), BuildingBlock: UVAHIK_clean_linker_0, # of connection points: 2
#     Edge 19, Type (0, 0), BuildingBlock: UVAHIK_clean_linker_0, # of connection points: 2
#     Edge 20, Type (0, 0), BuildingBlock: UVAHIK_clean_linker_0, # of connection points: 2
#     Edge 21, Type (0, 0), BuildingBlock: UVAHIK_clean_linker_0, # of connection points: 2
#     Edge 22, Type (0, 0), BuildingBlock: UVAHIK_clean_linker_0, # of connection points: 2
#     Edge 23, Type (0, 0), BuildingBlock: UVAHIK_clean_linker_0, # of connection points: 2
#     Edge 24, Type (0, 0), BuildingBlock: UVAHIK_clean_linker_0, # of connection points: 2
#     Edge 25, Type (0, 0), BuildingBlock: UVAHIK_clean_linker_0, # of connection points: 2
#     Edge 26, Type (0, 0), BuildingBlock: UVAHIK_clean_linker_0, # of connection points: 2
#     Edge 27, Type (0, 0), BuildingBlock: UVAHIK_clean_linker_0, # of connection points: 2
#     Edge 28, Type (0, 0), BuildingBlock: UVAHIK_clean_linker_0, # of connection points: 2
#     Edge 29, Type (0, 0), BuildingBlock: UVAHIK_clean_linker_0, # of connection points: 2
#     Edge 30, Type (0, 0), BuildingBlock: UVAHIK_clean_linker_0, # of connection points: 2
#     Edge 31, Type (0, 0), BuildingBlock: UVAHIK_clean_linker_0, # of connection points: 2
#     Edge 32, Type (0, 0), BuildingBlock: UVAHIK_clean_linker_0, # of connection points: 2
#     Edge 33, Type (0, 0), BuildingBlock: UVAHIK_clean_linker_0, # of connection points: 2
#     Edge 34, Type (0, 0), BuildingBlock: UVAHIK_clean_linker_0, # of connection points: 2
#     Edge 35, Type (0, 0), BuildingBlock: UVAHIK_clean_linker_0, # of connection points: 2
#     Edge 36, Type (0, 0), BuildingBlock: UVAHIK_clean_linker_0, # of connection points: 2
#     Edge 37, Type (0, 0), BuildingBlock: UVAHIK_clean_linker_0, # of connection points: 2
#     Edge 38, Type (0, 0), BuildingBlock: UVAHIK_clean_linker_0, # of connection points: 2
#     Edge 39, Type (0, 0), BuildingBlock: UVAHIK_clean_linker_0, # of connection points: 2
# Relax obj value: 0.109
# Max RMSD: 0.090
# Mean RMSD: 0.088
data_MOF--net-dia-f--node1-WUSLED_clean_sbu_0--edge1-UVAHIK_clean_linker_0
_symmetry_space_group_name_H-M    P1
_symmetry_Int_Tables_number       1
_symmetry_cell_setting            triclinic
loop_
_symmetry_equiv_pos_as_xyz
'x, y, z'
_cell_length_a     118.51897
_cell_length_b     118.08743
_cell_length_c     77.144072
_cell_angle_alpha  89.451861
_cell_angle_beta   89.650946
_cell_angle_gamma 90.386026
loop_
_atom_site_label
_atom_site_type_symbol
_atom_site_fract_x
_atom_site_fract_y
_atom_site_fract_z
_atom_type_partial_charge
C0 C 0.02838 0.61005 0.11131 0.0
C1 C 0.03031 0.62106 0.11734 0.0
C2 C 1.01015 0.62361 0.12195 0.0
C3 C 0.02129 0.62779 0.12254 0.0
C4 C 1.00829 0.61249 0.11611 0.0
C5 C 0.01734 0.60578 0.11081 0.0
U6 U 0.05977 0.60625 0.1072 0.0
O7 O 0.07063 0.59128 0.10903 0.0
O8 O 0.07031 0.60137 0.08496 0.0
C9 C 0.07388 0.59213 0.09273 0.0
C10 C 0.03788 0.6032 0.10523 0.0
C11 C 0.07309 0.58174 0.08244 0.0
C12 C 0.06355 0.56426 0.0746 0.0
C13 C 0.06407 0.57408 0.08458 0.0
C14 C 0.08093 0.5698 0.06004 0.0
C15 C 0.072 0.56199 0.06222 0.0
C16 C 0.08148 0.57955 0.0701 0.0
C17 C 0.07875 0.62897 0.12653 0.0
C18 C 0.09861 0.63103 0.11911 0.0
C19 C 0.09044 0.64245 0.14185 0.0
C20 C 0.07999 0.63722 0.13929 0.0
C21 C 0.09984 0.63953 0.13162 0.0
C22 C 0.08815 0.62576 0.11662 0.0
C23 C 0.06754 0.62411 0.12329 0.0
O24 O 0.04394 0.60796 0.09279 0.0
O25 O 0.04406 0.59862 0.11751 0.0
O26 O 0.06531 0.61446 0.13124 0.0
O27 O 0.06434 0.62429 0.107 0.0
H28 H 0.03881 0.6245 0.11779 0.0
H29 H 0.02305 0.63635 0.12668 0.0
H30 H 0.99984 0.60896 0.11569 0.0
H31 H 0.01572 0.59727 0.10624 0.0
H32 H 0.05661 0.55839 0.07674 0.0
H33 H 0.05745 0.57567 0.09399 0.0
H34 H 0.08746 0.56845 0.05042 0.0
H35 H 0.08845 0.58543 0.06817 0.0
H36 H 0.10572 0.62853 0.11116 0.0
H37 H 0.09107 0.64907 0.15144 0.0
H38 H 0.07281 0.63979 0.14704 0.0
H39 H 0.08735 0.61933 0.10677 0.0
C40 C 0.71274 0.79632 0.36035 0.0
C41 C 0.7012 0.79403 0.36266 0.0
C42 C 0.69744 0.81414 0.36534 0.0
C43 C 0.69361 0.80286 0.36504 0.0
C44 C 0.70906 0.8164 0.36363 0.0
C45 C 0.71667 0.80753 0.36105 0.0
U46 U 0.71785 0.76503 0.36008 0.0
O47 O 0.7245 0.7539 0.33988 0.0
O48 O 0.73292 0.75472 0.36511 0.0
C49 C 0.7333 0.75096 0.34912 0.0
C50 C 0.72051 0.78699 0.35669 0.0
C51 C 0.74417 0.75229 0.34012 0.0
C52 C 0.75796 0.76416 0.32511 0.0
C53 C 0.74801 0.76304 0.33482 0.0
C54 C 0.76042 0.74381 0.32624 0.0
C55 C 0.76421 0.75454 0.32053 0.0
C56 C 0.75046 0.7427 0.33594 0.0
C57 C 0.69335 0.7464 0.3765 0.0
C58 C 0.69088 0.72652 0.36955 0.0
C59 C 0.67766 0.73573 0.38884 0.0
C60 C 0.6838 0.74582 0.38722 0.0
C61 C 0.68097 0.72604 0.37968 0.0
C62 C 0.69703 0.73664 0.36796 0.0
C63 C 0.69882 0.75742 0.37338 0.0
O64 O 0.72402 0.78129 0.37034 0.0
O65 O 0.71731 0.78042 0.34395 0.0
O66 O 0.70007 0.76029 0.35698 0.0
O67 O 0.70773 0.75968 0.38283 0.0
H68 H 0.69803 0.78541 0.36233 0.0
H69 H 0.68472 0.80087 0.36659 0.0
H70 H 0.71221 0.82503 0.36379 0.0
H71 H 0.72556 0.80943 0.35934 0.0
H72 H 0.76056 0.77253 0.32076 0.0
H73 H 0.74319 0.77053 0.33788 0.0
H74 H 0.76512 0.73625 0.32315 0.0
H75 H 0.74759 0.73434 0.33995 0.0
H76 H 0.6936 0.71923 0.36225 0.0
H77 H 0.67019 0.73558 0.39699 0.0
H78 H 0.68089 0.75328 0.39396 0.0
H79 H 0.70442 0.73695 0.35962 0.0
C80 C 0.52783 0.41065 0.60514 0.0
C81 C 0.52924 0.40136 0.61638 0.0
C82 C 0.50958 0.39593 0.61247 0.0
C83 C 0.52018 0.39409 0.62007 0.0
C84 C 0.50818 0.40535 0.6014 0.0
C85 C 0.51725 0.41266 0.59779 0.0
U86 U 0.55939 0.41507 0.60271 0.0
O87 O 0.57016 0.42171 0.58164 0.0
O88 O 0.56992 0.43021 0.60682 0.0
C89 C 0.57332 0.4306 0.59056 0.0
C90 C 0.53753 0.41782 0.60026 0.0
C91 C 0.57178 0.4415 0.58166 0.0
C92 C 0.55953 0.45568 0.56895 0.0
C93 C 0.56092 0.44551 0.57808 0.0
C94 C 0.57984 0.45798 0.56711 0.0
C95 C 0.56897 0.462 0.56328 0.0
C96 C 0.58122 0.4478 0.57622 0.0
C97 C 0.57842 0.39161 0.61969 0.0
C98 C 0.59883 0.39356 0.62044 0.0
C99 C 0.59003 0.37534 0.6264 0.0
C100 C 0.57941 0.38012 0.62395 0.0
C101 C 0.59988 0.382 0.62467 0.0
C102 C 0.58817 0.39833 0.61793 0.0
C103 C 0.56719 0.39636 0.61662 0.0
O104 O 0.5435 0.42172 0.61324 0.0
O105 O 0.54376 0.41382 0.58762 0.0
O106 O 0.56433 0.39724 0.60024 0.0
O107 O 0.56463 0.40535 0.62572 0.0
H108 H 0.5374 0.39961 0.62202 0.0
H109 H 0.52157 0.38682 0.62843 0.0
H110 H 0.5001 0.40702 0.59546 0.0
H111 H 0.51605 0.41977 0.58903 0.0
H112 H 0.55105 0.45861 0.56639 0.0
H113 H 0.55354 0.44071 0.58222 0.0
H114 H 0.58729 0.46257 0.56273 0.0
H115 H 0.58966 0.44478 0.57883 0.0
H116 H 0.60622 0.39896 0.61918 0.0
H117 H 0.59053 0.36637 0.62933 0.0
H118 H 0.57195 0.3748 0.62521 0.0
H119 H 0.58754 0.40723 0.61457 0.0
C120 C 0.91195 0.29703 0.85258 0.0
C121 C 0.92351 0.29528 0.85527 0.0
C122 C 0.92629 0.31542 0.8602 0.0
C123 C 0.93062 0.30439 0.85898 0.0
C124 C 0.91466 0.31711 0.85782 0.0
C125 C 0.90755 0.30797 0.85398 0.0
U126 U 0.90707 0.26547 0.85008 0.0
O127 O 0.89192 0.25503 0.85517 0.0
O128 O 0.89993 0.255 0.82944 0.0
C129 C 0.89125 0.25175 0.83897 0.0
C130 C 0.90454 0.28748 0.8482 0.0
C131 C 0.88024 0.25328 0.83071 0.0
C132 C 0.86597 0.26551 0.81828 0.0
C133 C 0.87613 0.26416 0.82716 0.0
C134 C 0.86388 0.24511 0.81672 0.0
C135 C 0.85978 0.256 0.81282 0.0
C136 C 0.87403 0.24378 0.82558 0.0
C137 C 0.93056 0.24579 0.86489 0.0
C138 C 0.92813 0.22549 0.86899 0.0
C139 C 0.94692 0.23361 0.86657 0.0
C140 C 0.94228 0.24439 0.8647 0.0
C141 C 0.9399 0.22404 0.86871 0.0
C142 C 0.92349 0.23628 0.86699 0.0
C143 C 0.9259 0.25718 0.86237 0.0
O144 O 0.90803 0.28135 0.8351 0.0
O145 O 0.90096 0.28134 0.86146 0.0
O146 O 0.91721 0.25976 0.87223 0.0
O147 O 0.92471 0.26037 0.84613 0.0
H148 H 0.92703 0.28685 0.8544 0.0
H149 H 0.93951 0.30281 0.86101 0.0
H150 H 0.91111 0.32551 0.85859 0.0
H151 H 0.89864 0.30945 0.85197 0.0
H152 H 0.86298 0.274 0.81565 0.0
H153 H 0.88086 0.2716 0.83104 0.0
H154 H 0.8594 0.23761 0.81249 0.0
H155 H 0.87715 0.23533 0.82814 0.0
H156 H 0.92252 0.21826 0.87046 0.0
H157 H 0.95602 0.23277 0.86649 0.0
H158 H 0.94786 0.25163 0.86305 0.0
H159 H 0.9144 0.2372 0.86698 0.0
C160 C 0.02897 0.41219 0.91187 0.0
C161 C 0.03065 0.40116 0.90585 0.0
C162 C 1.01046 0.39887 0.90131 0.0
C163 C 0.02149 0.39455 0.90066 0.0
C164 C 1.00883 0.40999 0.90723 0.0
C165 C 0.01803 0.41659 0.91248 0.0
U166 U 0.06045 0.41582 0.91575 0.0
O167 O 0.07155 0.43072 0.91297 0.0
O168 O 0.07092 0.42127 0.93764 0.0
C169 C 0.07462 0.43033 0.92932 0.0
C170 C 0.03861 0.419 0.91768 0.0
C171 C 0.0738 0.44098 0.93898 0.0
C172 C 0.06471 0.45893 0.94493 0.0
C173 C 0.06529 0.44889 0.93551 0.0
C174 C 0.08098 0.45315 0.96161 0.0
C175 C 0.07257 0.4612 0.9581 0.0
C176 C 0.0816 0.44317 0.9521 0.0
C177 C 0.07929 0.39284 0.89733 0.0
C178 C 0.09971 0.39474 0.89623 0.0
C179 C 0.09084 0.37672 0.88981 0.0
C180 C 0.08023 0.38146 0.89265 0.0
C181 C 0.10071 0.38329 0.89154 0.0
C182 C 0.08908 0.39946 0.89915 0.0
C183 C 0.06808 0.39759 0.9006 0.0
O184 O 0.04449 0.41438 0.93025 0.0
O185 O 0.04495 0.42332 0.90521 0.0
O186 O 0.0658 0.40702 0.89215 0.0
O187 O 0.06498 0.3978 0.91697 0.0
H188 H 0.03906 0.39763 0.90531 0.0
H189 H 0.02305 0.38598 0.89645 0.0
H190 H 1.00047 0.41362 0.90769 0.0
H191 H 0.0166 0.42511 0.91705 0.0
H192 H 0.0582 0.46497 0.94175 0.0
H193 H 0.05912 0.44732 0.92549 0.0
H194 H 0.08704 0.45449 0.97186 0.0
H195 H 0.08816 0.43712 0.95506 0.0
H196 H 0.10712 0.40007 0.89752 0.0
H197 H 0.09129 0.36783 0.88654 0.0
H198 H 0.07275 0.37622 0.89133 0.0
H199 H 0.08849 0.40827 0.90282 0.0
C200 C 0.91274 0.72626 0.16824 0.0
C201 C 0.92428 0.72811 0.16507 0.0
C202 C 0.92706 0.7079 0.16113 0.0
C203 C 0.93139 0.71901 0.16162 0.0
C204 C 0.91545 0.7061 0.16399 0.0
C205 C 0.90835 0.71522 0.16759 0.0
U206 U 0.90727 0.75772 0.16724 0.0
O207 O 0.89175 0.76739 0.16253 0.0
O208 O 0.90072 0.76913 0.18718 0.0
C209 C 0.89161 0.77154 0.17828 0.0
C210 C 0.90531 0.73581 0.17224 0.0
C211 C 0.88098 0.77008 0.1879 0.0
C212 C 0.86757 0.75806 0.20345 0.0
C213 C 0.87739 0.7593 0.19347 0.0
C214 C 0.86476 0.77837 0.20215 0.0
C215 C 0.8612 0.7676 0.20805 0.0
C216 C 0.87458 0.77959 0.19217 0.0
C217 C 0.92971 0.77706 0.147 0.0
C218 C 0.92774 0.79752 0.14618 0.0
C219 C 0.94487 0.78883 0.13551 0.0
C220 C 0.94047 0.77814 0.13958 0.0
C221 C 0.93858 0.79866 0.13877 0.0
C222 C 0.92334 0.78679 0.15026 0.0
C223 C 0.92538 0.76576 0.15164 0.0
O224 O 0.90915 0.74276 0.18406 0.0
O225 O 0.90107 0.74107 0.1587 0.0
O226 O 0.91633 0.76247 0.14326 0.0
O227 O 0.92489 0.76354 0.16835 0.0
H228 H 0.9278 0.7366 0.16533 0.0
H229 H 0.94026 0.72067 0.15921 0.0
H230 H 0.9119 0.69763 0.16378 0.0
H231 H 0.89945 0.71366 0.16995 0.0
H232 H 0.86514 0.74967 0.20794 0.0
H233 H 0.8823 0.75187 0.19033 0.0
H234 H 0.85995 0.78585 0.20526 0.0
H235 H 0.87724 0.78797 0.18794 0.0
H236 H 0.92264 0.8049 0.14871 0.0
H237 H 0.95332 0.78941 0.1301 0.0
H238 H 0.94551 0.7707 0.13709 0.0
H239 H 0.915 0.78607 0.15602 0.0
C240 C 0.52517 0.6112 0.40551 0.0
C241 C 0.52774 0.62154 0.39727 0.0
C242 C 0.50776 0.62605 0.39571 0.0
C243 C 0.51913 0.6289 0.39244 0.0
C244 C 0.50522 0.61556 0.40372 0.0
C245 C 0.51388 0.6082 0.4086 0.0
U246 U 0.55629 0.60624 0.40902 0.0
O247 O 0.56678 0.60096 0.43099 0.0
O248 O 0.56663 0.59089 0.4072 0.0
C249 C 0.57004 0.59163 0.42334 0.0
C250 C 0.53434 0.60389 0.41153 0.0
C251 C 0.56883 0.58128 0.43387 0.0
C252 C 0.55717 0.56738 0.44905 0.0
C253 C 0.55814 0.577 0.43842 0.0
C254 C 0.57756 0.56622 0.4505 0.0
C255 C 0.56687 0.56194 0.45533 0.0
C256 C 0.57851 0.57582 0.43986 0.0
C257 C 0.57588 0.62865 0.38919 0.0
C258 C 0.59571 0.63028 0.39654 0.0
C259 C 0.58787 0.6422 0.37395 0.0
C260 C 0.57732 0.63709 0.37649 0.0
C261 C 0.59714 0.63899 0.38413 0.0
C262 C 0.58516 0.62512 0.39901 0.0
C263 C 0.56455 0.62402 0.39259 0.0
O264 O 0.54035 0.59918 0.39919 0.0
O265 O 0.54056 0.60832 0.4238 0.0
O266 O 0.56131 0.62416 0.40891 0.0
O267 O 0.56211 0.61447 0.38478 0.0
H268 H 0.53643 0.62401 0.39488 0.0
H269 H 0.52142 0.63697 0.3866 0.0
H270 H 0.49655 0.61306 0.40626 0.0
H271 H 0.51177 0.60024 0.41497 0.0
H272 H 0.54882 0.56435 0.45267 0.0
H273 H 0.55058 0.58118 0.43392 0.0
H274 H 0.58519 0.56213 0.45488 0.0
H275 H 0.58683 0.57902 0.43642 0.0
H276 H 0.60272 0.62755 0.40446 0.0
H277 H 0.58866 0.64898 0.36444 0.0
H278 H 0.57023 0.63991 0.36882 0.0
H279 H 0.58419 0.61855 0.40882 0.0
C280 C 0.71351 0.29616 0.65244 0.0
C281 C 0.70286 0.29362 0.64563 0.0
C282 C 0.69846 0.31371 0.64384 0.0
C283 C 0.69539 0.30229 0.64142 0.0
C284 C 0.70928 0.31621 0.65028 0.0
C285 C 0.71674 0.30749 0.65458 0.0
U286 U 0.71907 0.26491 0.65522 0.0
O287 O 0.73465 0.25496 0.65317 0.0
O288 O 0.72443 0.25416 0.677 0.0
C289 C 0.73389 0.25129 0.66929 0.0
C290 C 0.72095 0.28695 0.65802 0.0
C291 C 0.74405 0.25274 0.67981 0.0
C292 C 0.75729 0.26479 0.69505 0.0
C293 C 0.74792 0.26357 0.68427 0.0
C294 C 0.75903 0.24437 0.69682 0.0
C295 C 0.76288 0.25519 0.70159 0.0
C296 C 0.74969 0.24317 0.68603 0.0
C297 C 0.69708 0.24517 0.63547 0.0
C298 C 0.69498 0.22526 0.64316 0.0
C299 C 0.68407 0.23325 0.61961 0.0
C300 C 0.68917 0.24379 0.62224 0.0
C301 C 0.68677 0.22392 0.63024 0.0
C302 C 0.70013 0.2358 0.64572 0.0
C303 C 0.70158 0.25652 0.63898 0.0
O304 O 0.71667 0.2804 0.67029 0.0
O305 O 0.72573 0.28124 0.64543 0.0
O306 O 0.71109 0.25923 0.63106 0.0
O307 O 0.70133 0.25953 0.65533 0.0
H308 H 0.70022 0.28489 0.64395 0.0
H309 H 0.68708 0.30002 0.63679 0.0
H310 H 0.71197 0.3249 0.65209 0.0
H311 H 0.72495 0.30958 0.6598 0.0
H312 H 0.75998 0.27323 0.69861 0.0
H313 H 0.7436 0.27105 0.67961 0.0
H314 H 0.76325 0.23682 0.70142 0.0
H315 H 0.74679 0.23475 0.68268 0.0
H316 H 0.69731 0.2182 0.65144 0.0
H317 H 0.67768 0.23254 0.6097 0.0
H318 H 0.68672 0.25094 0.61424 0.0
H319 H 0.7063 0.23671 0.65594 0.0
C320 C 0.41197 0.22614 0.66525 0.0
C321 C 0.42341 0.22809 0.66145 0.0
C322 C 0.42631 0.20788 0.65774 0.0
C323 C 0.43053 0.21904 0.65779 0.0
C324 C 0.41477 0.20599 0.66114 0.0
C325 C 0.40766 0.21506 0.66494 0.0
U326 U 0.40659 0.25763 0.6664 0.0
O327 O 0.39108 0.26746 0.66264 0.0
O328 O 0.40017 0.26838 0.6873 0.0
C329 C 0.39103 0.27109 0.67871 0.0
C330 C 0.40459 0.2356 0.66987 0.0
C331 C 0.38043 0.26933 0.6883 0.0
C332 C 0.36681 0.25678 0.70235 0.0
C333 C 0.37667 0.25836 0.69256 0.0
C334 C 0.36434 0.27712 0.70352 0.0
C335 C 0.36057 0.26615 0.70804 0.0
C336 C 0.3742 0.27869 0.69374 0.0
C337 C 0.42885 0.27769 0.64735 0.0
C338 C 0.43051 0.29761 0.65459 0.0
C339 C 0.44061 0.29024 0.62978 0.0
C340 C 0.43611 0.27947 0.63319 0.0
C341 C 0.43796 0.29939 0.64056 0.0
C342 C 0.42594 0.28686 0.65791 0.0
C343 C 0.42456 0.26622 0.6511 0.0
O344 O 0.40851 0.24218 0.68212 0.0
O345 O 0.40035 0.24127 0.65672 0.0
O346 O 0.41547 0.2632 0.6426 0.0
O347 O 0.42425 0.26329 0.66759 0.0
H348 H 0.42685 0.23661 0.66148 0.0
H349 H 0.43934 0.22076 0.65497 0.0
H350 H 0.4113 0.19748 0.66129 0.0
H351 H 0.39884 0.21342 0.66782 0.0
H352 H 0.36406 0.24823 0.70543 0.0
H353 H 0.38141 0.25104 0.68843 0.0
H354 H 0.35981 0.28452 0.70788 0.0
H355 H 0.37704 0.28721 0.69061 0.0
H356 H 0.42822 0.30454 0.663 0.0
H357 H 0.44641 0.29133 0.61898 0.0
H358 H 0.43843 0.2725 0.6249 0.0
H359 H 0.42024 0.28567 0.66882 0.0
C360 C 0.2149 0.79783 0.15052 0.0
C361 C 0.20433 0.79551 0.14328 0.0
C362 C 0.20016 0.81565 0.14201 0.0
C363 C 0.19702 0.80432 0.13909 0.0
C364 C 0.21091 0.81795 0.14887 0.0
C365 C 0.21822 0.80909 0.15313 0.0
U366 U 0.2188 0.76649 0.15513 0.0
O367 O 0.23368 0.75552 0.15293 0.0
O368 O 0.22402 0.75601 0.17729 0.0
C369 C 0.23311 0.75237 0.16932 0.0
C370 C 0.22205 0.78844 0.15631 0.0
C371 C 0.24357 0.75356 0.1792 0.0
C372 C 0.25751 0.76531 0.19352 0.0
C373 C 0.24789 0.7643 0.18322 0.0
C374 C 0.25864 0.74485 0.19562 0.0
C375 C 0.26292 0.75559 0.19999 0.0
C376 C 0.24904 0.74386 0.18532 0.0
C377 C 0.19486 0.74785 0.13817 0.0
C378 C 0.19256 0.72799 0.14595 0.0
C379 C 0.17918 0.73703 0.12672 0.0
C380 C 0.18524 0.74717 0.12779 0.0
C381 C 0.18263 0.72739 0.1361 0.0
C382 C 0.19863 0.73816 0.147 0.0
C383 C 0.20034 0.75889 0.14057 0.0
O384 O 0.21777 0.7825 0.16928 0.0
O385 O 0.22616 0.78211 0.14388 0.0
O386 O 0.2098 0.76062 0.13194 0.0
O387 O 0.20077 0.76232 0.1567 0.0
H388 H 0.2016 0.78684 0.14129 0.0
H389 H 0.18875 0.8022 0.13414 0.0
H390 H 0.21364 0.82658 0.1511 0.0
H391 H 0.22636 0.81101 0.15874 0.0
H392 H 0.26052 0.77369 0.19679 0.0
H393 H 0.24371 0.77188 0.17863 0.0
H394 H 0.26271 0.7372 0.20018 0.0
H395 H 0.2458 0.7355 0.1823 0.0
H396 H 0.19539 0.72073 0.15341 0.0
H397 H 0.17168 0.73679 0.11879 0.0
H398 H 0.18225 0.75458 0.12085 0.0
H399 H 0.20606 0.73857 0.1551 0.0
C400 C 0.21222 0.29541 0.86156 0.0
C401 C 0.20132 0.29315 0.86793 0.0
C402 C 0.19758 0.31335 0.86967 0.0
C403 C 0.19407 0.30202 0.8719 0.0
C404 C 0.2086 0.31557 0.86351 0.0
C405 C 0.21586 0.30665 0.85948 0.0
U406 U 0.2167 0.26403 0.85962 0.0
O407 O 0.22276 0.25314 0.83866 0.0
O408 O 0.23174 0.25347 0.86346 0.0
C409 C 0.23173 0.24997 0.84732 0.0
C410 C 0.21955 0.28599 0.85665 0.0
C411 C 0.24242 0.25136 0.83787 0.0
C412 C 0.25639 0.26345 0.8237 0.0
C413 C 0.24652 0.2622 0.83353 0.0
C414 C 0.25826 0.24303 0.82269 0.0
C415 C 0.26233 0.25387 0.81804 0.0
C416 C 0.24837 0.2418 0.83251 0.0
C417 C 0.19292 0.24528 0.8778 0.0
C418 C 0.1937 0.22473 0.87838 0.0
C419 C 0.17622 0.23428 0.8853 0.0
C420 C 0.18154 0.24474 0.88268 0.0
C421 C 0.18221 0.22414 0.88312 0.0
C422 C 0.19901 0.23523 0.87571 0.0
C423 C 0.1981 0.25638 0.87427 0.0
O424 O 0.22357 0.28003 0.86967 0.0
O425 O 0.21557 0.27968 0.84412 0.0
O426 O 0.19882 0.25922 0.85779 0.0
O427 O 0.20729 0.25873 0.88302 0.0
H428 H 0.19837 0.28449 0.86956 0.0
H429 H 0.18559 0.29997 0.87629 0.0
H430 H 0.21161 0.32419 0.86182 0.0
H431 H 0.22426 0.30853 0.8546 0.0
H432 H 0.25938 0.27191 0.82052 0.0
H433 H 0.24199 0.26968 0.83759 0.0
H434 H 0.26256 0.23549 0.81837 0.0
H435 H 0.24528 0.23337 0.8357 0.0
H436 H 0.19857 0.21709 0.87674 0.0
H437 H 0.16733 0.23417 0.88859 0.0
H438 H 0.1767 0.25243 0.8842 0.0
H439 H 0.20781 0.23552 0.87186 0.0
C440 C 0.41219 0.79724 0.35284 0.0
C441 C 0.4234 0.79525 0.35763 0.0
C442 C 0.42613 0.81532 0.36336 0.0
C443 C 0.43031 0.80421 0.36279 0.0
C444 C 0.41484 0.81725 0.35859 0.0
C445 C 0.40793 0.80827 0.35337 0.0
U446 U 0.40771 0.76579 0.34816 0.0
O447 O 0.39263 0.75506 0.3521 0.0
O448 O 0.40105 0.75573 0.32667 0.0
C449 C 0.39227 0.75214 0.3357 0.0
C450 C 0.40497 0.7878 0.34734 0.0
C451 C 0.38136 0.75363 0.32716 0.0
C452 C 0.3671 0.76577 0.31447 0.0
C453 C 0.37725 0.76448 0.32341 0.0
C454 C 0.36502 0.74536 0.31322 0.0
C455 C 0.36091 0.75621 0.30917 0.0
C456 C 0.37516 0.74409 0.32213 0.0
C457 C 0.43105 0.74602 0.36333 0.0
C458 C 0.42873 0.72571 0.36753 0.0
C459 C 0.44747 0.73388 0.36462 0.0
C460 C 0.44278 0.74465 0.36285 0.0
C461 C 0.4405 0.7243 0.36699 0.0
C462 C 0.42403 0.73649 0.36561 0.0
C463 C 0.42634 0.75742 0.36103 0.0
O464 O 0.40889 0.78204 0.33413 0.0
O465 O 0.40109 0.7813 0.35999 0.0
O466 O 0.41743 0.75977 0.37056 0.0
O467 O 0.42546 0.76089 0.34486 0.0
H468 H 0.42682 0.78677 0.35729 0.0
H469 H 0.43899 0.80243 0.36609 0.0
H470 H 0.41132 0.82568 0.35908 0.0
H471 H 0.39927 0.80992 0.34978 0.0
H472 H 0.3641 0.77424 0.31172 0.0
H473 H 0.38196 0.77194 0.32723 0.0
H474 H 0.36054 0.73783 0.30913 0.0
H475 H 0.37826 0.73565 0.32487 0.0
H476 H 0.42315 0.71847 0.36917 0.0
H477 H 0.45656 0.73307 0.36434 0.0
H478 H 0.44831 0.75191 0.36106 0.0
H479 H 0.41494 0.73737 0.36582 0.0
C480 C 0.52759 0.10917 0.61199 0.0
C481 C 0.52949 0.12039 0.61709 0.0
C482 C 0.50935 0.12295 0.62184 0.0
C483 C 0.52046 0.12722 0.62191 0.0
C484 C 0.50751 0.11163 0.61688 0.0
C485 C 0.51658 0.10481 0.61198 0.0
U486 U 0.55895 0.10582 0.60715 0.0
O487 O 0.57009 0.09112 0.61038 0.0
O488 O 0.56932 0.10004 0.58532 0.0
C489 C 0.5731 0.09121 0.59395 0.0
C490 C 0.53712 0.10219 0.60639 0.0
C491 C 0.57195 0.08038 0.58499 0.0
C492 C 0.56028 0.06588 0.57182 0.0
C493 C 0.56126 0.07598 0.58102 0.0
C494 C 0.58066 0.06443 0.57071 0.0
C495 C 0.56997 0.06002 0.56647 0.0
C496 C 0.58163 0.07453 0.57988 0.0
C497 C 0.5774 0.13029 0.6228 0.0
C498 C 0.59731 0.13217 0.61557 0.0
C499 C 0.58822 0.14622 0.6335 0.0
C500 C 0.57806 0.14023 0.63249 0.0
C501 C 0.59791 0.14238 0.62478 0.0
C502 C 0.58711 0.12617 0.61457 0.0
C503 C 0.56641 0.12474 0.62062 0.0
O504 O 0.54287 0.10638 0.59318 0.0
O505 O 0.54358 0.09841 0.61894 0.0
O506 O 0.5647 0.11544 0.6298 0.0
O507 O 0.563 0.12391 0.6045 0.0
H508 H 0.53796 0.1239 0.61713 0.0
H509 H 0.52218 0.13592 0.62536 0.0
H510 H 0.49908 0.10804 0.61688 0.0
H511 H 0.51499 0.09615 0.60812 0.0
H512 H 0.55193 0.06264 0.56894 0.0
H513 H 0.55369 0.08041 0.58492 0.0
H514 H 0.58829 0.06021 0.56659 0.0
H515 H 0.58994 0.07785 0.58279 0.0
H516 H 0.60459 0.12903 0.60862 0.0
H517 H 0.58846 0.15395 0.64094 0.0
H518 H 0.57064 0.14349 0.63897 0.0
H519 H 0.58672 0.11849 0.60702 0.0
C520 C 0.02846 0.90901 0.10206 0.0
C521 C 0.03031 0.8973 0.10297 0.0
C522 C 1.01028 0.89394 0.10787 0.0
C523 C 0.0213 0.88983 0.10575 0.0
C524 C 1.00848 0.9057 0.10743 0.0
C525 C 0.01752 0.91318 0.10446 0.0
U526 U 0.05978 0.91485 0.10222 0.0
O527 O 0.07101 0.92212 0.08225 0.0
O528 O 0.06955 0.93034 0.10757 0.0
C529 C 0.07356 0.93098 0.09165 0.0
C530 C 0.03791 0.91682 0.09847 0.0
C531 C 0.07215 0.94189 0.08272 0.0
C532 C 0.06012 0.95593 0.06915 0.0
C533 C 0.06135 0.94601 0.07898 0.0
C534 C 0.08047 0.95778 0.067 0.0
C535 C 0.06967 0.96183 0.06283 0.0
C536 C 0.08169 0.94788 0.07686 0.0
C537 C 0.07916 0.89166 0.119 0.0
C538 C 0.09947 0.89424 0.12059 0.0
C539 C 0.09118 0.87565 0.12543 0.0
C540 C 0.08045 0.88014 0.12281 0.0
C541 C 0.10084 0.88264 0.12433 0.0
C542 C 0.08872 0.89871 0.1179 0.0
C543 C 0.06785 0.8961 0.11561 0.0
O544 O 0.04329 0.92049 0.11219 0.0
O545 O 0.04471 0.91366 0.08592 0.0
O546 O 0.06531 0.89725 0.09914 0.0
O547 O 0.0648 0.90481 0.12502 0.0
H548 H 0.03873 0.89392 0.10138 0.0
H549 H 0.02295 0.88082 0.10631 0.0
H550 H 1.00006 0.90907 0.10899 0.0
H551 H 0.01595 0.92221 0.10388 0.0
H552 H 0.0517 0.95877 0.06601 0.0
H553 H 0.0539 0.94141 0.08332 0.0
H554 H 0.08798 0.96221 0.06253 0.0
H555 H 0.09008 0.94478 0.07962 0.0
H556 H 0.10671 0.89988 0.11981 0.0
H557 H 0.09192 0.86665 0.12798 0.0
H558 H 0.07315 0.87457 0.12355 0.0
H559 H 0.08785 0.90764 0.11489 0.0
C560 C 0.52952 0.91157 0.41472 0.0
C561 C 0.53113 0.90014 0.41069 0.0
C562 C 0.51093 0.89765 0.40661 0.0
C563 C 0.52191 0.89322 0.40673 0.0
C564 C 0.50938 0.90918 0.4103 0.0
C565 C 0.51861 0.91608 0.41439 0.0
U566 U 0.56103 0.91625 0.41583 0.0
O567 O 0.57139 0.93162 0.41198 0.0
O568 O 0.57211 0.92219 0.43661 0.0
C569 C 0.57513 0.93138 0.42799 0.0
C570 C 0.53918 0.91873 0.41942 0.0
C571 C 0.57394 0.94194 0.43767 0.0
C572 C 0.56222 0.95586 0.45197 0.0
C573 C 0.56324 0.94614 0.44187 0.0
C574 C 0.5826 0.95731 0.45355 0.0
C575 C 0.57189 0.96148 0.45808 0.0
C576 C 0.5836 0.94761 0.44344 0.0
C577 C 0.57996 0.89356 0.39668 0.0
C578 C 0.60037 0.89552 0.39587 0.0
C579 C 0.59154 0.8779 0.38725 0.0
C580 C 0.58092 0.88247 0.39064 0.0
C581 C 0.6014 0.88437 0.38982 0.0
C582 C 0.58973 0.90008 0.3993 0.0
C583 C 0.56875 0.89809 0.40058 0.0
O584 O 0.54564 0.91451 0.43164 0.0
O585 O 0.54493 0.92304 0.40628 0.0
O586 O 0.56601 0.90737 0.39208 0.0
O587 O 0.5661 0.89839 0.41713 0.0
H588 H 0.53952 0.89654 0.41072 0.0
H589 H 0.52339 0.88442 0.40368 0.0
H590 H 0.501 0.9128 0.41039 0.0
H591 H 0.51724 0.92491 0.41743 0.0
H592 H 0.55386 0.95879 0.45537 0.0
H593 H 0.55569 0.9418 0.43757 0.0
H594 H 0.59021 0.96154 0.45784 0.0
H595 H 0.59192 0.94446 0.4403 0.0
H596 H 0.60778 0.90076 0.39783 0.0
H597 H 0.59201 0.86923 0.3829 0.0
H598 H 0.57345 0.87731 0.38868 0.0
H599 H 0.58912 0.90867 0.40402 0.0
C600 C 0.02482 0.11121 0.90685 0.0
C601 C 0.02734 0.12178 0.89932 0.0
C602 C 1.00733 0.12606 0.89737 0.0
C603 C 0.0187 0.12914 0.89465 0.0
C604 C 1.00483 0.11537 0.90477 0.0
C605 C 0.01353 0.108 0.90948 0.0
U606 U 0.05595 0.10657 0.91054 0.0
O607 O 0.06638 0.10039 0.93203 0.0
O608 O 0.06652 0.09149 0.90717 0.0
C609 C 0.06977 0.09147 0.92344 0.0
C610 C 0.03402 0.1038 0.91243 0.0
C611 C 0.06847 0.08065 0.93275 0.0
C612 C 0.05666 0.06637 0.9468 0.0
C613 C 0.05774 0.07646 0.93728 0.0
C614 C 0.07702 0.06454 0.94712 0.0
C615 C 0.0663 0.06032 0.9519 0.0
C616 C 0.07809 0.07462 0.93764 0.0
C617 C 0.07514 0.13021 0.89309 0.0
C618 C 0.09559 0.12903 0.8933 0.0
C619 C 0.08651 0.14676 0.88596 0.0
C620 C 0.07596 0.14162 0.88821 0.0
C621 C 0.09647 0.14054 0.88853 0.0
C622 C 0.085 0.12391 0.8956 0.0
C623 C 0.06394 0.12519 0.89613 0.0
O624 O 0.0402 0.09967 0.89979 0.0
O625 O 0.04007 0.10781 0.92523 0.0
O626 O 0.06083 0.12449 0.91248 0.0
O627 O 0.06164 0.11599 0.88732 0.0
H628 H 0.03603 0.12441 0.89729 0.0
H629 H 0.02095 0.13737 0.88929 0.0
H630 H 0.99617 0.11271 0.90689 0.0
H631 H 0.01145 0.09986 0.91529 0.0
H632 H 0.04829 0.06328 0.95011 0.0
H633 H 0.05023 0.08104 0.93358 0.0
H634 H 0.08462 0.06018 0.95105 0.0
H635 H 0.08643 0.0778 0.9343 0.0
H636 H 0.10308 0.12398 0.89524 0.0
H637 H 0.08685 0.15568 0.88263 0.0
H638 H 0.06841 0.14662 0.88637 0.0
H639 H 0.08449 0.11507 0.89945 0.0
C640 C 0.16369 0.71797 0.13808 0.0
C641 C 0.17546 0.71702 0.13643 0.0
C642 C 0.15685 0.70833 0.13879 0.0
C643 C 0.15568 0.67832 0.12707 0.0
H644 H 0.13016 0.67806 0.15877 0.0
C645 C 0.11645 0.64978 0.11851 0.0
C646 C 0.11062 0.64588 0.13334 0.0
C647 C 0.12584 0.65691 0.12004 0.0
C648 C 0.13733 0.67787 0.15003 0.0
H649 H 0.18927 0.70517 0.13412 0.0
H650 H 0.17725 0.68823 0.13545 0.0
H651 H 0.14371 0.69357 0.1596 0.0
H652 H 0.11053 0.64575 0.16144 0.0
H653 H 0.12698 0.65815 0.16415 0.0
H654 H 0.14922 0.66261 0.11744 0.0
C655 C 0.17335 0.69648 0.13612 0.0
C656 C 0.14503 0.68686 0.15035 0.0
C657 C 0.18024 0.70617 0.13548 0.0
C658 C 0.11473 0.64879 0.14977 0.0
C659 C 0.12414 0.65589 0.15131 0.0
C660 C 0.14796 0.66931 0.12673 0.0
C661 C 0.16159 0.69748 0.13789 0.0
C662 C 0.15414 0.68731 0.13863 0.0
C663 C 0.12963 0.66028 0.13646 0.0
C664 C 0.13857 0.66909 0.138 0.0
H665 H 0.15975 0.72619 0.13909 0.0
H666 H 0.1478 0.70939 0.1399 0.0
H667 H 0.16261 0.67845 0.11785 0.0
H668 H 0.11343 0.64778 0.10566 0.0
H669 H 0.12977 0.66024 0.10833 0.0
C670 C 0.67949 0.82347 0.35655 0.0
C671 C 0.68919 0.82345 0.36692 0.0
C672 C 0.67136 0.83186 0.35845 0.0
C673 C 0.65961 0.85105 0.39033 0.0
H674 H 0.64488 0.86442 0.35039 0.0
C675 C 0.62174 0.8813 0.3977 0.0
C676 C 0.61267 0.87937 0.38639 0.0
C677 C 0.63215 0.87608 0.39493 0.0
C678 C 0.64885 0.86071 0.36169 0.0
H679 H 0.69811 0.83228 0.38721 0.0
H680 H 0.68375 0.84699 0.3907 0.0
H681 H 0.66127 0.85235 0.34622 0.0
H682 H 0.6076 0.87078 0.36294 0.0
H683 H 0.62557 0.86143 0.35842 0.0
H684 H 0.64695 0.85902 0.40578 0.0
C685 C 0.68249 0.84048 0.38108 0.0
C686 C 0.65826 0.85384 0.35929 0.0
C687 C 0.69071 0.83213 0.37903 0.0
C688 C 0.61435 0.87232 0.37204 0.0
C689 C 0.62472 0.86709 0.36931 0.0
C690 C 0.65013 0.85787 0.39273 0.0
C691 C 0.6727 0.84038 0.37086 0.0
C692 C 0.6636 0.84875 0.37356 0.0
C693 C 0.63373 0.8688 0.3808 0.0
C694 C 0.6445 0.86259 0.37841 0.0
H695 H 0.67815 0.81693 0.347 0.0
H696 H 0.66386 0.83149 0.35052 0.0
H697 H 0.66348 0.84715 0.40156 0.0
H698 H 0.62072 0.88662 0.40895 0.0
H699 H 0.63893 0.87768 0.40393 0.0
C700 C 0.44423 0.31518 0.62065 0.0
C701 C 0.4433 0.31064 0.6375 0.0
C702 C 0.4499 0.32543 0.61767 0.0
C703 C 0.46148 0.35085 0.63977 0.0
H704 H 0.48149 0.35208 0.59984 0.0
C705 C 0.49816 0.38309 0.63201 0.0
C706 C 0.50023 0.38769 0.61541 0.0
C707 C 0.48996 0.37466 0.63449 0.0
C708 C 0.47582 0.35195 0.6109 0.0
H709 H 0.44746 0.31335 0.66447 0.0
H710 H 0.45753 0.33113 0.65927 0.0
H711 H 0.46946 0.33555 0.60452 0.0
H712 H 0.49516 0.38721 0.58846 0.0
H713 H 0.48079 0.37254 0.59282 0.0
H714 H 0.46815 0.36716 0.64637 0.0
C715 C 0.45368 0.32691 0.64837 0.0
C716 C 0.4689 0.34247 0.61359 0.0
C717 C 0.44793 0.3167 0.65136 0.0
C718 C 0.49371 0.3839 0.60143 0.0
C719 C 0.48556 0.37542 0.60389 0.0
C720 C 0.46846 0.36031 0.63714 0.0
C721 C 0.45486 0.33133 0.63145 0.0
C722 C 0.4617 0.34175 0.62813 0.0
C723 C 0.48371 0.37059 0.62039 0.0
C724 C 0.47577 0.36091 0.62274 0.0
H725 H 0.44059 0.31077 0.60975 0.0
H726 H 0.45046 0.32869 0.60452 0.0
H727 H 0.45592 0.35066 0.65096 0.0
H728 H 0.50298 0.38592 0.64306 0.0
H729 H 0.48879 0.37105 0.64734 0.0
C730 C 0.94099 0.20504 0.88349 0.0
C731 C 0.9449 0.21261 0.8706 0.0
C732 C 0.94612 0.1945 0.88577 0.0
C733 C 0.96435 0.17365 0.86403 0.0
H734 H 0.97321 0.16533 0.91072 0.0
C735 C 0.99903 0.14102 0.87804 0.0
C736 C 0.99822 0.13419 0.89303 0.0
C737 C 0.99107 0.14942 0.87475 0.0
C738 C 0.97062 0.16738 0.89763 0.0
H739 H 0.95695 0.21493 0.84959 0.0
H740 H 0.96592 0.19657 0.8536 0.0
H741 H 0.96185 0.18217 0.90598 0.0
H742 H 0.98813 0.13059 0.916 0.0
H743 H 0.97404 0.14504 0.91 0.0
H744 H 0.97321 0.15894 0.85564 0.0
C745 C 0.95889 0.19876 0.86193 0.0
C746 C 0.96412 0.17706 0.89492 0.0
C747 C 0.95384 0.20932 0.85975 0.0
C748 C 0.98898 0.13565 0.90429 0.0
C749 C 0.98098 0.14403 0.90095 0.0
C750 C 0.97079 0.16393 0.86675 0.0
C751 C 0.95517 0.19128 0.87508 0.0
C752 C 0.9611 0.18041 0.87807 0.0
C753 C 0.98204 0.15116 0.88631 0.0
C754 C 0.9742 0.16079 0.88355 0.0
H755 H 0.93416 0.20738 0.89209 0.0
H756 H 0.94303 0.18888 0.89594 0.0
H757 H 0.962 0.17593 0.85092 0.0
H758 H 1.00595 0.14001 0.86896 0.0
H759 H 0.99224 0.1548 0.86343 0.0
C760 C 0.11363 0.37026 0.8754 0.0
C761 C 0.11199 0.37814 0.88871 0.0
C762 C 0.12402 0.36494 0.87328 0.0
C763 C 0.14972 0.3575 0.89754 0.0
H764 H 0.16055 0.34913 0.85194 0.0
C765 C 0.18197 0.32196 0.88721 0.0
C766 C 0.18957 0.32271 0.87317 0.0
C767 C 0.1737 0.33018 0.88956 0.0
C768 C 0.15778 0.35154 0.86477 0.0
H769 H 0.12012 0.38674 0.91005 0.0
H770 H 0.13836 0.37769 0.90603 0.0
H771 H 0.14404 0.36113 0.85457 0.0
H772 H 0.19467 0.33298 0.85097 0.0
H773 H 0.18047 0.34752 0.8554 0.0
H774 H 0.16354 0.34802 0.90774 0.0
C775 C 0.13153 0.37549 0.8974 0.0
C776 C 0.14819 0.3583 0.86629 0.0
C777 C 0.1211 0.38078 0.89957 0.0
C778 C 0.189 0.33216 0.86198 0.0
C779 C 0.18076 0.34042 0.86439 0.0
C780 C 0.15935 0.3508 0.89602 0.0
C781 C 0.13308 0.3674 0.88435 0.0
C782 C 0.1439 0.36116 0.88269 0.0
C783 C 0.17286 0.33942 0.87802 0.0
C784 C 0.16336 0.34754 0.87963 0.0
H785 H 0.10685 0.36814 0.86663 0.0
H786 H 0.12485 0.35866 0.86322 0.0
H787 H 0.14663 0.35946 0.91039 0.0
H788 H 0.18228 0.3149 0.89625 0.0
H789 H 0.16771 0.32904 0.9001 0.0
C790 C 0.99982 0.87639 0.09951 0.0
C791 C 1.00074 0.88588 0.11026 0.0
C792 C 0.99121 0.86845 0.10215 0.0
C793 C 0.97306 0.8566 0.13609 0.0
H794 H 0.95755 0.84269 0.09754 0.0
C795 C 0.94216 0.81904 0.14636 0.0
C796 C 0.94346 0.81002 0.13476 0.0
C797 C 0.94744 0.82948 0.14309 0.0
C798 C 0.96184 0.84644 0.10844 0.0
H799 H 0.99327 0.89461 0.13203 0.0
H800 H 0.97818 0.88059 0.13678 0.0
H801 H 0.96997 0.85893 0.09229 0.0
H802 H 0.9509 0.80509 0.11023 0.0
H803 H 0.96032 0.82313 0.10477 0.0
H804 H 0.9653 0.84387 0.15217 0.0
C805 C 0.98415 0.87935 0.1263 0.0
C806 C 0.96893 0.85576 0.10544 0.0
C807 C 0.99272 0.88739 0.12352 0.0
C808 C 0.94986 0.8118 0.11957 0.0
C809 C 0.95514 0.82221 0.11632 0.0
C810 C 0.96602 0.84723 0.1391 0.0
C811 C 0.98336 0.86976 0.1157 0.0
C812 C 0.9748 0.86079 0.11917 0.0
C813 C 0.95412 0.83114 0.12814 0.0
C814 C 0.96052 0.84188 0.12525 0.0
H815 H 1.00582 0.87508 0.08908 0.0
H816 H 0.9909 0.86108 0.09389 0.0
H817 H 0.97755 0.86023 0.14691 0.0
H818 H 0.93735 0.81793 0.15824 0.0
H819 H 0.94637 0.83622 0.15237 0.0
C820 C 0.45438 0.70956 0.3579 0.0
C821 C 0.44555 0.7129 0.3689 0.0
C822 C 0.45948 0.69902 0.36011 0.0
C823 C 0.4651 0.67755 0.39329 0.0
H824 H 0.47362 0.65905 0.35413 0.0
C825 C 0.48964 0.636 0.40289 0.0
C826 C 0.4987 0.63426 0.39139 0.0
C827 C 0.48172 0.64446 0.39958 0.0
C828 C 0.47137 0.66415 0.3652 0.0
H829 H 0.43503 0.70777 0.39073 0.0
H830 H 0.44399 0.68932 0.39463 0.0
H831 H 0.46246 0.67609 0.34939 0.0
H832 H 0.50616 0.63968 0.36691 0.0
H833 H 0.49261 0.65462 0.36143 0.0
H834 H 0.47431 0.6659 0.40906 0.0
C835 C 0.44696 0.69488 0.38431 0.0
C836 C 0.46496 0.67389 0.36247 0.0
C837 C 0.44179 0.7054 0.382 0.0
C838 C 0.4994 0.6409 0.37619 0.0
C839 C 0.49152 0.64939 0.37293 0.0
C840 C 0.47158 0.66786 0.39601 0.0
C841 C 0.45592 0.69162 0.37346 0.0
C842 C 0.46189 0.68078 0.37646 0.0
C843 C 0.48268 0.6514 0.38472 0.0
C844 C 0.47494 0.66112 0.38197 0.0
H845 H 0.45738 0.71512 0.34759 0.0
H846 H 0.46643 0.69679 0.35165 0.0
H847 H 0.46298 0.68277 0.4043 0.0
H848 H 0.48888 0.6311 0.41478 0.0
H849 H 0.47492 0.64566 0.40882 0.0
C850 C 0.61906 0.14439 0.62629 0.0
C851 C 0.60838 0.14937 0.62453 0.0
C852 C 0.62886 0.15109 0.6258 0.0
C853 C 0.63931 0.1791 0.61081 0.0
H854 H 0.66272 0.17489 0.64511 0.0
C855 C 0.67774 0.20882 0.61218 0.0
C856 C 0.6804 0.21312 0.62859 0.0
C857 C 0.67055 0.19947 0.61062 0.0
C858 C 0.65626 0.17616 0.63543 0.0
H859 H 0.59963 0.16525 0.62057 0.0
H860 H 0.6166 0.1769 0.62004 0.0
H861 H 0.64668 0.16178 0.64444 0.0
H862 H 0.67796 0.21069 0.65626 0.0
H863 H 0.66534 0.19446 0.65357 0.0
H864 H 0.64853 0.19372 0.60224 0.0
C865 C 0.61746 0.16783 0.62166 0.0
C866 C 0.64713 0.16859 0.63494 0.0
C867 C 0.60771 0.16116 0.6222 0.0
C868 C 0.67616 0.20752 0.64343 0.0
C869 C 0.66894 0.19819 0.64188 0.0
C870 C 0.64841 0.18664 0.61128 0.0
C871 C 0.62815 0.16288 0.6234 0.0
C872 C 0.63843 0.17014 0.62287 0.0
C873 C 0.66581 0.19423 0.62545 0.0
C874 C 0.65689 0.1854 0.6238 0.0
H875 H 0.61985 0.13533 0.62819 0.0
H876 H 0.63698 0.14704 0.62711 0.0
H877 H 0.63282 0.18042 0.60117 0.0
H878 H 0.68103 0.21285 0.60051 0.0
H879 H 0.66849 0.19649 0.59778 0.0
C880 C 0.99055 0.39177 0.90559 0.0
C881 C 1.00072 0.39168 0.89608 0.0
C882 C 0.98162 0.38457 0.90117 0.0
C883 C 0.97092 0.3664 0.86565 0.0
H884 H 0.9549 0.35083 0.90291 0.0
C885 C 0.94437 0.32607 0.85503 0.0
C886 C 0.93396 0.3251 0.86374 0.0
C887 C 0.95173 0.33502 0.85854 0.0
C888 C 0.95919 0.35522 0.89237 0.0
H889 H 1.00928 0.38422 0.87408 0.0
H890 H 0.99389 0.37147 0.86672 0.0
H891 H 0.96917 0.36503 0.90978 0.0
H892 H 0.92307 0.33279 0.88294 0.0
H893 H 0.93598 0.34848 0.88911 0.0
H894 H 0.96113 0.35635 0.84827 0.0
C895 C 0.99274 0.37718 0.87747 0.0
C896 C 0.96736 0.36339 0.89629 0.0
C897 C 1.00164 0.3844 0.88184 0.0
C898 C 0.93101 0.33335 0.87595 0.0
C899 C 0.93843 0.34227 0.87958 0.0
C900 C 0.96281 0.3582 0.86174 0.0
C901 C 0.98265 0.37711 0.88716 0.0
C902 C 0.97343 0.36898 0.88298 0.0
C903 C 0.94888 0.34319 0.87093 0.0
C904 C 0.95695 0.35243 0.87506 0.0
H905 H 0.98958 0.3972 0.91672 0.0
H906 H 0.97393 0.38484 0.90879 0.0
H907 H 0.97527 0.3707 0.85507 0.0
H908 H 0.94682 0.3199 0.84543 0.0
H909 H 0.95976 0.33543 0.85179 0.0
C910 C 0.48958 0.13001 0.61733 0.0
C911 C 0.49975 0.13038 0.62661 0.0
C912 C 0.48081 0.13746 0.62124 0.0
C913 C 0.4706 0.15714 0.6552 0.0
H914 H 0.45464 0.17118 0.61696 0.0
C915 C 0.44454 0.19781 0.66273 0.0
C916 C 0.434 0.19826 0.65451 0.0
C917 C 0.45186 0.18882 0.6597 0.0
C918 C 0.45892 0.16722 0.62779 0.0
H919 H 0.50849 0.13863 0.6477 0.0
H920 H 0.49342 0.15181 0.65412 0.0
H921 H 0.46867 0.15667 0.61111 0.0
H922 H 0.42288 0.18967 0.63665 0.0
H923 H 0.43574 0.17392 0.63129 0.0
H924 H 0.46105 0.16796 0.67181 0.0
C925 C 0.49212 0.14568 0.64397 0.0
C926 C 0.46695 0.15888 0.62445 0.0
C927 C 0.50085 0.13822 0.64012 0.0
C928 C 0.43092 0.1895 0.64323 0.0
C929 C 0.4383 0.18055 0.64007 0.0
C930 C 0.46264 0.16554 0.65851 0.0
C931 C 0.48202 0.14547 0.63449 0.0
C932 C 0.47298 0.15382 0.63811 0.0
C933 C 0.44885 0.18011 0.6483 0.0
C934 C 0.4568 0.17075 0.64483 0.0
H935 H 0.48847 0.12416 0.60675 0.0
H936 H 0.4731 0.13695 0.61383 0.0
H937 H 0.47491 0.15328 0.66606 0.0
H938 H 0.4471 0.20438 0.67162 0.0
H939 H 0.45997 0.18877 0.6661 0.0
C940 C 0.61372 0.64883 0.39745 0.0
C941 C 0.608 0.64525 0.38254 0.0
C942 C 0.62317 0.65592 0.39605 0.0
C943 C 0.63508 0.67736 0.36641 0.0
H944 H 0.66014 0.6771 0.39852 0.0
C945 C 0.66189 0.71693 0.37834 0.0
C946 C 0.67364 0.71579 0.37975 0.0
C947 C 0.65491 0.7074 0.37781 0.0
C948 C 0.65327 0.67721 0.38933 0.0
H949 H 0.60818 0.64566 0.35444 0.0
H950 H 0.62474 0.65797 0.35197 0.0
H951 H 0.64658 0.66139 0.39877 0.0
H952 H 0.68728 0.70371 0.38189 0.0
H953 H 0.675 0.68695 0.38084 0.0
H954 H 0.64168 0.69316 0.35702 0.0
C955 C 0.62176 0.6555 0.36476 0.0
C956 C 0.64545 0.66827 0.38957 0.0
C957 C 0.61229 0.64844 0.36617 0.0
C958 C 0.67825 0.70485 0.3807 0.0
C959 C 0.67123 0.69528 0.38023 0.0
C960 C 0.64286 0.68627 0.36618 0.0
C961 C 0.62714 0.65957 0.3797 0.0
C962 C 0.63616 0.66834 0.37831 0.0
C963 C 0.65948 0.69646 0.37864 0.0
C964 C 0.65191 0.68642 0.37787 0.0
H965 H 0.61056 0.64662 0.41025 0.0
H966 H 0.62701 0.659 0.40782 0.0
H967 H 0.62797 0.67777 0.35768 0.0
H968 H 0.65807 0.72521 0.37734 0.0
H969 H 0.64588 0.70861 0.37684 0.0
C970 C 0.11407 0.8693 0.13939 0.0
C971 C 0.11226 0.87774 0.12675 0.0
C972 C 0.12462 0.86424 0.14107 0.0
C973 C 0.15081 0.85887 0.1164 0.0
H974 H 0.16159 0.84902 0.16138 0.0
C975 C 0.18459 0.82443 0.12455 0.0
C976 C 0.19194 0.8249 0.13878 0.0
C977 C 0.17601 0.83237 0.1226 0.0
C978 C 0.15883 0.85186 0.14872 0.0
H979 H 0.12025 0.8876 0.10615 0.0
H980 H 0.13876 0.87899 0.10943 0.0
H981 H 0.1446 0.86037 0.15954 0.0
H982 H 0.19627 0.83445 0.16171 0.0
H983 H 0.18156 0.84854 0.15797 0.0
H984 H 0.16512 0.85046 0.10561 0.0
C985 C 0.13194 0.87615 0.11786 0.0
C986 C 0.14897 0.85824 0.14765 0.0
C987 C 0.12136 0.88119 0.11612 0.0
C988 C 0.19082 0.83385 0.15054 0.0
C989 C 0.18228 0.84185 0.14852 0.0
C990 C 0.16071 0.85254 0.11748 0.0
C991 C 0.13368 0.86753 0.13024 0.0
C992 C 0.14471 0.86164 0.13146 0.0
C993 C 0.1746 0.84106 0.13475 0.0
C994 C 0.16473 0.84877 0.13363 0.0
H995 H 0.1073 0.86655 0.14796 0.0
H996 H 0.12559 0.85753 0.15061 0.0
H997 H 0.14774 0.86127 0.1037 0.0
H998 H 0.18532 0.81776 0.11508 0.0
H999 H 0.17021 0.83142 0.1119 0.0
C1000 C 1.00159 0.63841 0.14109 0.0
C1001 C 1.00056 0.63097 0.12706 0.0
C1002 C 0.99286 0.64581 0.14527 0.0
C1003 C 0.96784 0.65961 0.12619 0.0
H1004 H 0.96165 0.66748 0.17398 0.0
C1005 C 0.93171 0.68975 0.14602 0.0
C1006 C 0.9347 0.69825 0.1578 0.0
C1007 C 0.93909 0.68084 0.14259 0.0
C1008 C 0.96332 0.66539 0.16057 0.0
H1009 H 0.98939 0.62536 0.10662 0.0
H1010 H 0.97402 0.63801 0.11429 0.0
H1011 H 0.97555 0.65295 0.16756 0.0
H1012 H 0.94764 0.70394 0.17551 0.0
H1013 H 0.96052 0.68842 0.16951 0.0
H1014 H 0.95558 0.67207 0.11925 0.0
C1015 C 0.98168 0.63827 0.12185 0.0
C1016 C 0.97131 0.65709 0.15687 0.0
C1017 C 0.99045 0.6309 0.1176 0.0
C1018 C 0.94514 0.69757 0.16626 0.0
C1019 C 0.95247 0.68862 0.16295 0.0
C1020 C 0.9598 0.66785 0.1299 0.0
C1021 C 0.98283 0.64591 0.13563 0.0
C1022 C 0.97379 0.6542 0.13962 0.0
C1023 C 0.94956 0.6802 0.15101 0.0
C1024 C 0.95756 0.67094 0.14712 0.0
H1025 H 1.00918 0.63858 0.14882 0.0
H1026 H 0.99411 0.65164 0.15584 0.0
H1027 H 0.96964 0.65773 0.11274 0.0
H1028 H 0.92374 0.69009 0.13924 0.0
H1029 H 0.9366 0.67443 0.1334 0.0
C1030 C 0.11632 0.14402 0.89868 0.0
C1031 C 0.10765 0.14624 0.88678 0.0
C1032 C 0.12643 0.1502 0.89799 0.0
C1033 C 0.1431 0.17043 0.8703 0.0
H1034 H 0.15397 0.18126 0.91449 0.0
C1035 C 0.17831 0.20419 0.87352 0.0
C1036 C 0.17629 0.21305 0.88516 0.0
C1037 C 0.17188 0.19422 0.87438 0.0
C1038 C 0.15104 0.17833 0.90203 0.0
H1039 H 0.10311 0.15624 0.86416 0.0
H1040 H 0.12047 0.16725 0.86333 0.0
H1041 H 0.13892 0.16718 0.91385 0.0
H1042 H 0.1664 0.21806 0.90753 0.0
H1043 H 0.15495 0.20096 0.90864 0.0
H1044 H 0.15468 0.18213 0.85847 0.0
C1045 C 0.11958 0.16065 0.8731 0.0
C1046 C 0.1425 0.17011 0.90166 0.0
C1047 C 0.10952 0.15444 0.87373 0.0
C1048 C 0.16804 0.2115 0.89815 0.0
C1049 C 0.16158 0.20159 0.89895 0.0
C1050 C 0.15157 0.17872 0.87067 0.0
C1051 C 0.12809 0.15876 0.8854 0.0
C1052 C 0.13822 0.16628 0.88578 0.0
C1053 C 0.16325 0.19291 0.88686 0.0
C1054 C 0.15544 0.18299 0.88654 0.0
H1055 H 0.11515 0.13781 0.90896 0.0
H1056 H 0.13286 0.1484 0.90752 0.0
H1057 H 0.14016 0.16752 0.85784 0.0
H1058 H 0.18456 0.20512 0.86329 0.0
H1059 H 0.17352 0.18765 0.86503 0.0
C1060 C 0.68916 0.33205 0.65175 0.0
C1061 C 0.69014 0.32284 0.64042 0.0
C1062 C 0.68063 0.34004 0.6495 0.0
C1063 C 0.65896 0.35023 0.61825 0.0
H1064 H 0.64332 0.35935 0.66008 0.0
C1065 C 0.62026 0.37976 0.61604 0.0
C1066 C 0.61118 0.3768 0.62704 0.0
C1067 C 0.63072 0.37447 0.61781 0.0
C1068 C 0.64756 0.35686 0.64826 0.0
H1069 H 0.68327 0.3152 0.61726 0.0
H1070 H 0.66819 0.32886 0.61371 0.0
H1071 H 0.6601 0.34773 0.66229 0.0
H1072 H 0.60612 0.3662 0.6489 0.0
H1073 H 0.62418 0.35675 0.65163 0.0
H1074 H 0.64606 0.35888 0.60421 0.0
C1075 C 0.67408 0.33001 0.62423 0.0
C1076 C 0.6573 0.35032 0.64953 0.0
C1077 C 0.68265 0.32207 0.62641 0.0
C1078 C 0.61288 0.36858 0.64004 0.0
C1079 C 0.6233 0.36326 0.64177 0.0
C1080 C 0.64917 0.35672 0.61698 0.0
C1081 C 0.67283 0.33899 0.63592 0.0
C1082 C 0.66304 0.34678 0.63454 0.0
C1083 C 0.63234 0.36608 0.6306 0.0
C1084 C 0.64324 0.35996 0.63197 0.0
H1085 H 0.69472 0.33288 0.66275 0.0
H1086 H 0.68004 0.34694 0.65859 0.0
H1087 H 0.66325 0.3478 0.60644 0.0
H1088 H 0.61922 0.38599 0.60579 0.0
H1089 H 0.63752 0.37694 0.60911 0.0
C1090 C 0.43325 0.83537 0.36018 0.0
C1091 C 0.43357 0.82483 0.36879 0.0
C1092 C 0.4406 0.84412 0.36486 0.0
C1093 C 0.45974 0.85341 0.40008 0.0
H1094 H 0.47429 0.87093 0.3634 0.0
C1095 C 0.50036 0.87937 0.41064 0.0
C1096 C 0.50115 0.89017 0.40289 0.0
C1097 C 0.4913 0.87219 0.40697 0.0
C1098 C 0.47019 0.86622 0.3738 0.0
H1099 H 0.44165 0.81537 0.38946 0.0
H1100 H 0.45467 0.83045 0.39724 0.0
H1101 H 0.45988 0.85694 0.35614 0.0
H1102 H 0.49304 0.90192 0.38525 0.0
H1103 H 0.47716 0.88932 0.37879 0.0
H1104 H 0.47029 0.86249 0.41768 0.0
C1105 C 0.44865 0.83204 0.38701 0.0
C1106 C 0.46191 0.85821 0.36965 0.0
C1107 C 0.44128 0.82332 0.38238 0.0
C1108 C 0.49262 0.89367 0.39149 0.0
C1109 C 0.48359 0.88643 0.38769 0.0
C1110 C 0.46806 0.86136 0.4042 0.0
C1111 C 0.44846 0.84253 0.37824 0.0
C1112 C 0.45669 0.8516 0.38273 0.0
C1113 C 0.48285 0.87561 0.39539 0.0
C1114 C 0.47347 0.86775 0.39109 0.0
H1115 H 0.42748 0.8368 0.34956 0.0
H1116 H 0.44014 0.85214 0.35796 0.0
H1117 H 0.45574 0.84864 0.41051 0.0
H1118 H 0.50674 0.87648 0.41961 0.0
H1119 H 0.49102 0.86386 0.41297 0.0
C1120 C 0.06122 0.54742 0.04521 0.0
C1121 C 0.07155 0.55155 0.05158 0.0
C1122 C 0.06089 0.53776 0.03487 0.0
C1123 C 0.07854 0.52092 1.00575 0.0
H1124 H 0.05671 0.49692 0.01461 0.0
C1125 C 0.082 0.47751 0.97299 0.0
C1126 C 0.07204 0.47188 0.96814 0.0
C1127 C 0.08157 0.48739 0.98275 0.0
C1128 C 0.06275 0.50361 0.01177 0.0
H1129 H 0.08958 0.54848 0.05247 0.0
H1130 H 0.089 0.53179 0.03421 0.0
H1131 H 0.05655 0.51385 0.03251 0.0
H1132 H 0.05376 0.47232 0.96977 0.0
H1133 H 0.05299 0.48979 0.98627 0.0
H1134 H 0.08469 0.51082 0.98494 0.0
C1135 C 0.08118 0.53612 0.03706 0.0
C1136 C 0.06267 0.5133 0.02207 0.0
C1137 C 0.08151 0.54571 0.0475 0.0
C1138 C 0.0616 0.47648 0.97312 0.0
C1139 C 0.06117 0.48643 0.98279 0.0
C1140 C 0.07856 0.5113 0.99537 0.0
C1141 C 0.07088 0.53207 0.03058 0.0
C1142 C 0.07064 0.52199 0.01927 0.0
C1143 C 0.07115 0.49199 0.98779 0.0
C1144 C 0.07075 0.50246 0.99836 0.0
H1145 H 0.05341 0.55179 0.04789 0.0
H1146 H 0.05285 0.53488 0.02993 0.0
H1147 H 0.08466 0.52757 1.00311 0.0
H1148 H 0.09019 0.47431 0.96919 0.0
H1149 H 0.08943 0.49134 0.98654 0.0
C1150 C 0.78216 0.76458 0.31176 0.0
C1151 C 0.77443 0.75566 0.30936 0.0
C1152 C 0.79158 0.7658 0.30089 0.0
C1153 C 0.80228 0.75783 0.25767 0.0
H1154 H 0.83135 0.76621 0.27663 0.0
C1155 C 0.84341 0.75735 0.21701 0.0
C1156 C 0.85105 0.76635 0.21934 0.0
C1157 C 0.83401 0.75606 0.22791 0.0
C1158 C 0.82327 0.76399 0.27111 0.0
H1159 H 0.77053 0.74105 0.29358 0.0
H1160 H 0.78707 0.74304 0.27488 0.0
H1161 H 0.81514 0.76386 0.29596 0.0
H1162 H 0.85483 0.78103 0.23502 0.0
H1163 H 0.83834 0.77891 0.25382 0.0
H1164 H 0.81042 0.75796 0.23282 0.0
C1165 C 0.78579 0.74917 0.28505 0.0
C1166 C 0.81397 0.76264 0.28219 0.0
C1167 C 0.77638 0.74794 0.29592 0.0
C1168 C 0.84905 0.77407 0.23276 0.0
C1169 C 0.83967 0.77278 0.24367 0.0
C1170 C 0.81158 0.75918 0.24659 0.0
C1171 C 0.79347 0.75814 0.28736 0.0
C1172 C 0.80337 0.75955 0.2756 0.0
C1173 C 0.83206 0.76373 0.24141 0.0
C1174 C 0.82218 0.76228 0.25318 0.0
H1175 H 0.78095 0.77061 0.32209 0.0
H1176 H 0.79728 0.77287 0.30293 0.0
H1177 H 0.79419 0.75562 0.25214 0.0
H1178 H 0.84466 0.75131 0.2067 0.0
H1179 H 0.82837 0.74895 0.22593 0.0
C1180 C 0.57444 0.4821 0.55616 0.0
C1181 C 0.56753 0.47262 0.55307 0.0
C1182 C 0.57335 0.49195 0.54614 0.0
C1183 C 0.56324 0.50194 0.50367 0.0
H1184 H 0.56581 0.5316 0.52448 0.0
C1185 C 0.55796 0.54331 0.46391 0.0
C1186 C 0.56592 0.55193 0.46706 0.0
C1187 C 0.55729 0.53379 0.47479 0.0
C1188 C 0.56515 0.52337 0.51846 0.0
H1189 H 0.55403 0.46607 0.53709 0.0
H1190 H 0.55201 0.48333 0.5198 0.0
H1191 H 0.56618 0.51469 0.54288 0.0
H1192 H 0.57918 0.55743 0.48436 0.0
H1193 H 0.57814 0.54076 0.50313 0.0
H1194 H 0.56235 0.51061 0.47923 0.0
C1195 C 0.55833 0.48311 0.52986 0.0
C1196 C 0.56537 0.51369 0.529 0.0
C1197 C 0.55941 0.47327 0.5399 0.0
C1198 C 0.57306 0.55088 0.48145 0.0
C1199 C 0.57237 0.54139 0.49234 0.0
C1200 C 0.56302 0.51162 0.49313 0.0
C1201 C 0.56534 0.49254 0.5328 0.0
C1202 C 0.56453 0.50286 0.52171 0.0
C1203 C 0.56452 0.5327 0.48909 0.0
C1204 C 0.5641 0.52245 0.50039 0.0
H1205 H 0.58069 0.48192 0.56633 0.0
H1206 H 0.57895 0.49903 0.54863 0.0
H1207 H 0.56272 0.49371 0.49762 0.0
H1208 H 0.55239 0.54384 0.45286 0.0
H1209 H 0.55108 0.52729 0.47204 0.0
C1210 C 0.83992 0.25024 0.8056 0.0
C1211 C 0.84929 0.25737 0.80256 0.0
C1212 C 0.8303 0.2511 0.79531 0.0
C1213 C 0.82121 0.26091 0.75218 0.0
H1214 H 0.79119 0.25721 0.77177 0.0
C1215 C 0.78093 0.2647 0.7106 0.0
C1216 C 0.77255 0.25641 0.71359 0.0
C1217 C 0.7901 0.2657 0.72183 0.0
C1218 C 0.79952 0.25818 0.76609 0.0
H1219 H 0.85582 0.27109 0.78645 0.0
H1220 H 0.83895 0.27274 0.7687 0.0
H1221 H 0.8075 0.25749 0.7909 0.0
H1222 H 0.7671 0.24287 0.73094 0.0
H1223 H 0.78316 0.24447 0.75032 0.0
H1224 H 0.81325 0.26146 0.72736 0.0
C1225 C 0.8391 0.2664 0.77892 0.0
C1226 C 0.80887 0.25834 0.77705 0.0
C1227 C 0.84872 0.26554 0.78923 0.0
C1228 C 0.77348 0.24924 0.72815 0.0
C1229 C 0.78261 0.25026 0.73938 0.0
C1230 C 0.81186 0.26076 0.74122 0.0
C1231 C 0.82982 0.25912 0.78173 0.0
C1232 C 0.81983 0.25959 0.77021 0.0
C1233 C 0.79105 0.25846 0.73633 0.0
C1234 C 0.80093 0.25927 0.74804 0.0
H1235 H 0.84004 0.24394 0.81589 0.0
H1236 H 0.82335 0.24529 0.79772 0.0
H1237 H 0.82955 0.26172 0.74646 0.0
H1238 H 0.7805 0.27031 0.69943 0.0
H1239 H 0.79642 0.27217 0.7192 0.0
C1240 C 0.35013 0.25641 0.73242 0.0
C1241 C 0.35031 0.26452 0.71897 0.0
C1242 C 0.3406 0.25508 0.74302 0.0
C1243 C 0.31003 0.26093 0.74497 0.0
H1244 H 0.31405 0.25705 0.79452 0.0
C1245 C 0.27285 0.2632 0.79338 0.0
C1246 C 0.27256 0.25517 0.80695 0.0
C1247 C 0.28235 0.26426 0.78267 0.0
C1248 C 0.31279 0.258 0.78069 0.0
H1249 H 0.34052 0.27745 0.70589 0.0
H1250 H 0.32396 0.27527 0.72457 0.0
H1251 H 0.33054 0.25894 0.77563 0.0
H1252 H 0.28211 0.24208 0.82007 0.0
H1253 H 0.29864 0.24383 0.80121 0.0
H1254 H 0.29227 0.26002 0.75003 0.0
C1255 C 0.33116 0.26987 0.72684 0.0
C1256 C 0.32224 0.25907 0.76986 0.0
C1257 C 0.34069 0.27121 0.71625 0.0
C1258 C 0.28203 0.24828 0.80963 0.0
C1259 C 0.29154 0.24936 0.79894 0.0
C1260 C 0.30058 0.25986 0.75579 0.0
C1261 C 0.33102 0.26183 0.7404 0.0
C1262 C 0.32097 0.26056 0.75188 0.0
C1263 C 0.29179 0.25734 0.78529 0.0
C1264 C 0.30185 0.2584 0.77378 0.0
H1265 H 0.35743 0.2512 0.73498 0.0
H1266 H 0.34072 0.24872 0.75323 0.0
H1267 H 0.30876 0.26189 0.73114 0.0
H1268 H 0.26565 0.26856 0.79084 0.0
H1269 H 0.28232 0.27058 0.77239 0.0
C1270 C 0.34976 0.76557 0.28551 0.0
C1271 C 0.35038 0.7575 0.299 0.0
C1272 C 0.34008 0.76636 0.27532 0.0
C1273 C 0.3098 0.75845 0.27413 0.0
H1274 H 0.3138 0.76111 0.22432 0.0
C1275 C 0.2738 0.74952 0.22624 0.0
C1276 C 0.27283 0.75662 0.2116 0.0
C1277 C 0.28309 0.75042 0.23719 0.0
C1278 C 0.31253 0.76053 0.23821 0.0
H1279 H 0.34118 0.74421 0.3127 0.0
H1280 H 0.32438 0.74546 0.29475 0.0
H1281 H 0.33026 0.7614 0.2431 0.0
H1282 H 0.28089 0.77023 0.19698 0.0
H1283 H 0.29707 0.77192 0.21625 0.0
H1284 H 0.29207 0.75745 0.26922 0.0
C1285 C 0.33134 0.75123 0.29212 0.0
C1286 C 0.32196 0.7607 0.24898 0.0
C1287 C 0.34102 0.75042 0.30229 0.0
C1288 C 0.28135 0.76469 0.20821 0.0
C1289 C 0.29067 0.76559 0.21916 0.0
C1290 C 0.30037 0.75828 0.26336 0.0
C1291 C 0.33079 0.75913 0.27841 0.0
C1292 C 0.32072 0.75956 0.26706 0.0
C1293 C 0.29165 0.75845 0.23377 0.0
C1294 C 0.30163 0.7592 0.24526 0.0
H1295 H 0.35686 0.77108 0.28253 0.0
H1296 H 0.33988 0.77262 0.26498 0.0
H1297 H 0.30854 0.75774 0.28802 0.0
H1298 H 0.26731 0.7433 0.22934 0.0
H1299 H 0.28365 0.74471 0.24821 0.0
C1300 C 0.56282 0.97992 0.46607 0.0
C1301 C 0.57085 0.97149 0.46949 0.0
C1302 C 0.5619 0.98932 0.47686 0.0
C1303 C 0.56891 0.99931 0.52082 0.0
H1304 H 0.56588 0.02921 0.50025 0.0
C1305 C 0.57613 0.04027 0.55945 0.0
C1306 C 0.569 0.0495 0.55616 0.0
C1307 C 0.57554 0.03056 0.54927 0.0
C1308 C 0.56656 0.02091 0.50622 0.0
H1309 H 0.58405 0.96623 0.48711 0.0
H1310 H 0.58258 0.9827 0.50572 0.0
H1311 H 0.56635 0.01265 0.48164 0.0
H1312 H 0.5556 0.05572 0.53965 0.0
H1313 H 0.55445 0.0387 0.52207 0.0
H1314 H 0.56923 1.00758 0.54538 0.0
C1315 C 0.57693 0.98201 0.49478 0.0
C1316 C 0.56684 1.01142 0.49555 0.0
C1317 C 0.57788 0.97264 0.48399 0.0
C1318 C 0.56115 0.04872 0.54263 0.0
C1319 C 0.56057 0.03902 0.53243 0.0
C1320 C 0.56863 1.0088 0.53148 0.0
C1321 C 0.56895 0.99047 0.49134 0.0
C1322 C 0.56812 1.00052 0.50272 0.0
C1323 C 0.56782 0.02986 0.53556 0.0
C1324 C 0.56756 0.01972 0.5243 0.0
H1325 H 0.55734 0.97932 0.45493 0.0
H1326 H 0.5556 0.99565 0.47393 0.0
H1327 H 0.56971 0.99101 0.52676 0.0
H1328 H 0.58219 0.04055 0.56989 0.0
H1329 H 0.58132 0.02371 0.55193 0.0
C1330 C 0.05752 0.04911 0.97638 0.0
C1331 C 0.06525 0.04979 0.9625 0.0
C1332 C 0.05694 0.0394 0.98689 0.0
C1333 C 0.06484 1.00911 0.98845 0.0
H1334 H 0.06322 0.01303 0.03826 0.0
C1335 C 0.07526 0.97321 0.03654 0.0
C1336 C 0.0684 0.9719 0.05136 0.0
C1337 C 0.07404 0.98258 0.02556 0.0
C1338 C 0.06352 1.01178 0.02437 0.0
H1339 H 0.07817 0.04068 0.94846 0.0
H1340 H 0.07731 0.02386 0.96694 0.0
H1341 H 0.06245 0.02957 0.01913 0.0
H1342 H 0.0549 0.97945 0.06631 0.0
H1343 H 0.05269 0.99581 0.04701 0.0
H1344 H 0.06608 0.99134 0.9937 0.0
C1345 C 0.07163 0.03078 0.96964 0.0
C1346 C 0.06307 0.02126 0.01341 0.0
C1347 C 0.07222 0.04047 0.95916 0.0
C1348 C 0.06027 0.98018 0.05494 0.0
C1349 C 0.05907 0.98959 0.04397 0.0
C1350 C 0.06531 0.99965 0.9994 0.0
C1351 C 0.06405 0.03016 0.98372 0.0
C1352 C 0.06385 0.02004 0.99532 0.0
C1353 C 0.06593 0.99088 0.02914 0.0
C1354 C 0.06479 1.00089 0.0175 0.0
H1355 H 0.0521 0.05618 0.97939 0.0
H1356 H 0.05093 0.03915 0.99751 0.0
H1357 H 0.06525 1.00786 0.97457 0.0
H1358 H 0.08151 0.96691 0.0333 0.0
H1359 H 0.07955 0.98338 0.01436 0.0
loop_
_geom_bond_atom_site_label_1
_geom_bond_atom_site_label_2
_geom_bond_distance
_geom_bond_site_symmetry_2
_ccdc_geom_bond_type
C0 C1 1.264 . S
C0 C5 1.479 . S
C0 C10 1.465 . S
C1 C0 1.264 . S
C1 C3 1.339 . S
C1 H28 0.931 . S
C2 C3 1.395 . S
C2 C4 1.320 . S
C3 C1 1.339 . S
C3 C2 1.395 . S
C3 H29 0.929 . S
C4 C2 1.320 . S
C4 C5 1.405 . S
C4 H30 0.930 1_455 S
C5 C0 1.479 . S
C5 C4 1.405 . S
C5 H31 0.931 . S
U6 O7 2.454 . S
U6 O8 2.458 . S
U6 C9 2.984 . S
U6 C10 2.847 . S
U6 C23 2.882 . S
U6 O24 2.441 . S
U6 O25 2.420 . S
U6 O26 2.455 . S
U6 O27 2.449 . S
O7 U6 2.454 . S
O7 C9 1.353 . S
O8 U6 2.458 . S
O8 C9 1.286 . S
C9 U6 2.984 . S
C9 O7 1.353 . S
C9 O8 1.286 . S
C9 C11 1.363 . S
C10 C0 1.465 . S
C10 U6 2.847 . S
C10 O24 1.249 . S
C10 O25 1.202 . S
C11 C9 1.363 . S
C11 C13 1.408 . S
C11 C16 1.342 . S
C12 C13 1.310 . S
C12 C15 1.461 . S
C12 H32 0.932 . S
C13 C11 1.408 . S
C13 C12 1.310 . S
C13 H33 0.930 . S
C14 C15 1.474 . S
C14 C16 1.285 . S
C14 H34 0.929 . S
C15 C12 1.461 . S
C15 C14 1.474 . S
C16 C11 1.342 . S
C16 C14 1.285 . S
C16 H35 0.930 . S
C17 C20 1.424 . S
C17 C22 1.245 . S
C17 C23 1.428 . S
C18 C21 1.260 . S
C18 C22 1.477 . S
C18 H36 0.932 . S
C19 C20 1.384 . S
C19 C21 1.479 . S
C19 H37 0.929 . S
C20 C17 1.424 . S
C20 C19 1.384 . S
C20 H38 0.928 . S
C21 C18 1.260 . S
C21 C19 1.479 . S
C22 C17 1.245 . S
C22 C18 1.477 . S
C22 H39 0.932 . S
C23 U6 2.882 . S
C23 C17 1.428 . S
C23 O26 1.301 . S
C23 O27 1.282 . S
O24 U6 2.441 . S
O24 C10 1.249 . S
O25 U6 2.420 . S
O25 C10 1.202 . S
O26 U6 2.455 . S
O26 C23 1.301 . S
O27 U6 2.449 . S
O27 C23 1.282 . S
H28 C1 0.931 . S
H29 C3 0.929 . S
H30 C4 0.930 1_655 S
H31 C5 0.931 . S
H32 C12 0.932 . S
H33 C13 0.930 . S
H34 C14 0.929 . S
H35 C16 0.930 . S
H36 C18 0.932 . S
H37 C19 0.929 . S
H38 C20 0.928 . S
H39 C22 0.932 . S
C40 C41 1.264 . S
C40 C45 1.479 . S
C40 C50 1.465 . S
C41 C40 1.264 . S
C41 C43 1.339 . S
C41 H68 0.931 . S
C42 C43 1.395 . S
C42 C44 1.320 . S
C43 C41 1.339 . S
C43 C42 1.395 . S
C43 H69 0.929 . S
C44 C42 1.320 . S
C44 C45 1.405 . S
C44 H70 0.930 . S
C45 C40 1.479 . S
C45 C44 1.405 . S
C45 H71 0.931 . S
U46 O47 2.454 . S
U46 O48 2.458 . S
U46 C49 2.984 . S
U46 C50 2.847 . S
U46 C63 2.882 . S
U46 O64 2.441 . S
U46 O65 2.420 . S
U46 O66 2.455 . S
U46 O67 2.449 . S
O47 U46 2.454 . S
O47 C49 1.353 . S
O48 U46 2.458 . S
O48 C49 1.286 . S
C49 U46 2.984 . S
C49 O47 1.353 . S
C49 O48 1.286 . S
C49 C51 1.363 . S
C50 C40 1.465 . S
C50 U46 2.847 . S
C50 O64 1.249 . S
C50 O65 1.202 . S
C51 C49 1.363 . S
C51 C53 1.408 . S
C51 C56 1.342 . S
C52 C53 1.310 . S
C52 C55 1.461 . S
C52 H72 0.932 . S
C53 C51 1.408 . S
C53 C52 1.310 . S
C53 H73 0.930 . S
C54 C55 1.474 . S
C54 C56 1.285 . S
C54 H74 0.929 . S
C55 C52 1.461 . S
C55 C54 1.474 . S
C56 C51 1.342 . S
C56 C54 1.285 . S
C56 H75 0.930 . S
C57 C60 1.424 . S
C57 C62 1.245 . S
C57 C63 1.428 . S
C58 C61 1.260 . S
C58 C62 1.477 . S
C58 H76 0.932 . S
C59 C60 1.384 . S
C59 C61 1.479 . S
C59 H77 0.929 . S
C60 C57 1.424 . S
C60 C59 1.384 . S
C60 H78 0.928 . S
C61 C58 1.260 . S
C61 C59 1.479 . S
C62 C57 1.245 . S
C62 C58 1.477 . S
C62 H79 0.932 . S
C63 U46 2.882 . S
C63 C57 1.428 . S
C63 O66 1.301 . S
C63 O67 1.282 . S
O64 U46 2.441 . S
O64 C50 1.249 . S
O65 U46 2.420 . S
O65 C50 1.202 . S
O66 U46 2.455 . S
O66 C63 1.301 . S
O67 U46 2.449 . S
O67 C63 1.282 . S
H68 C41 0.931 . S
H69 C43 0.929 . S
H70 C44 0.930 . S
H71 C45 0.931 . S
H72 C52 0.932 . S
H73 C53 0.930 . S
H74 C54 0.929 . S
H75 C56 0.930 . S
H76 C58 0.932 . S
H77 C59 0.929 . S
H78 C60 0.928 . S
H79 C62 0.932 . S
C80 C81 1.264 . S
C80 C85 1.479 . S
C80 C90 1.465 . S
C81 C80 1.264 . S
C81 C83 1.339 . S
C81 H108 0.931 . S
C82 C83 1.395 . S
C82 C84 1.320 . S
C83 C81 1.339 . S
C83 C82 1.395 . S
C83 H109 0.929 . S
C84 C82 1.320 . S
C84 C85 1.405 . S
C84 H110 0.930 . S
C85 C80 1.479 . S
C85 C84 1.405 . S
C85 H111 0.931 . S
U86 O87 2.454 . S
U86 O88 2.458 . S
U86 C89 2.984 . S
U86 C90 2.847 . S
U86 C103 2.882 . S
U86 O104 2.441 . S
U86 O105 2.420 . S
U86 O106 2.455 . S
U86 O107 2.449 . S
O87 U86 2.454 . S
O87 C89 1.353 . S
O88 U86 2.458 . S
O88 C89 1.286 . S
C89 U86 2.984 . S
C89 O87 1.353 . S
C89 O88 1.286 . S
C89 C91 1.363 . S
C90 C80 1.465 . S
C90 U86 2.847 . S
C90 O104 1.249 . S
C90 O105 1.202 . S
C91 C89 1.363 . S
C91 C93 1.408 . S
C91 C96 1.342 . S
C92 C93 1.310 . S
C92 C95 1.461 . S
C92 H112 0.932 . S
C93 C91 1.408 . S
C93 C92 1.310 . S
C93 H113 0.930 . S
C94 C95 1.474 . S
C94 C96 1.285 . S
C94 H114 0.929 . S
C95 C92 1.461 . S
C95 C94 1.474 . S
C96 C91 1.342 . S
C96 C94 1.285 . S
C96 H115 0.930 . S
C97 C100 1.424 . S
C97 C102 1.245 . S
C97 C103 1.428 . S
C98 C101 1.260 . S
C98 C102 1.477 . S
C98 H116 0.932 . S
C99 C100 1.384 . S
C99 C101 1.479 . S
C99 H117 0.929 . S
C100 C97 1.424 . S
C100 C99 1.384 . S
C100 H118 0.928 . S
C101 C98 1.260 . S
C101 C99 1.479 . S
C102 C97 1.245 . S
C102 C98 1.477 . S
C102 H119 0.932 . S
C103 U86 2.882 . S
C103 C97 1.428 . S
C103 O106 1.301 . S
C103 O107 1.282 . S
O104 U86 2.441 . S
O104 C90 1.249 . S
O105 U86 2.420 . S
O105 C90 1.202 . S
O106 U86 2.455 . S
O106 C103 1.301 . S
O107 U86 2.449 . S
O107 C103 1.282 . S
H108 C81 0.931 . S
H109 C83 0.929 . S
H110 C84 0.930 . S
H111 C85 0.931 . S
H112 C92 0.932 . S
H113 C93 0.930 . S
H114 C94 0.929 . S
H115 C96 0.930 . S
H116 C98 0.932 . S
H117 C99 0.929 . S
H118 C100 0.928 . S
H119 C102 0.932 . S
C120 C121 1.264 . S
C120 C125 1.479 . S
C120 C130 1.465 . S
C121 C120 1.264 . S
C121 C123 1.339 . S
C121 H148 0.931 . S
C122 C123 1.395 . S
C122 C124 1.320 . S
C123 C121 1.339 . S
C123 C122 1.395 . S
C123 H149 0.929 . S
C124 C122 1.320 . S
C124 C125 1.405 . S
C124 H150 0.930 . S
C125 C120 1.479 . S
C125 C124 1.405 . S
C125 H151 0.931 . S
U126 O127 2.454 . S
U126 O128 2.458 . S
U126 C129 2.984 . S
U126 C130 2.847 . S
U126 C143 2.882 . S
U126 O144 2.441 . S
U126 O145 2.420 . S
U126 O146 2.455 . S
U126 O147 2.449 . S
O127 U126 2.454 . S
O127 C129 1.353 . S
O128 U126 2.458 . S
O128 C129 1.286 . S
C129 U126 2.984 . S
C129 O127 1.353 . S
C129 O128 1.286 . S
C129 C131 1.363 . S
C130 C120 1.465 . S
C130 U126 2.847 . S
C130 O144 1.249 . S
C130 O145 1.202 . S
C131 C129 1.363 . S
C131 C133 1.408 . S
C131 C136 1.342 . S
C132 C133 1.310 . S
C132 C135 1.461 . S
C132 H152 0.932 . S
C133 C131 1.408 . S
C133 C132 1.310 . S
C133 H153 0.930 . S
C134 C135 1.474 . S
C134 C136 1.285 . S
C134 H154 0.929 . S
C135 C132 1.461 . S
C135 C134 1.474 . S
C136 C131 1.342 . S
C136 C134 1.285 . S
C136 H155 0.930 . S
C137 C140 1.424 . S
C137 C142 1.245 . S
C137 C143 1.428 . S
C138 C141 1.260 . S
C138 C142 1.477 . S
C138 H156 0.932 . S
C139 C140 1.384 . S
C139 C141 1.479 . S
C139 H157 0.929 . S
C140 C137 1.424 . S
C140 C139 1.384 . S
C140 H158 0.928 . S
C141 C138 1.260 . S
C141 C139 1.479 . S
C142 C137 1.245 . S
C142 C138 1.477 . S
C142 H159 0.932 . S
C143 U126 2.882 . S
C143 C137 1.428 . S
C143 O146 1.301 . S
C143 O147 1.282 . S
O144 U126 2.441 . S
O144 C130 1.249 . S
O145 U126 2.420 . S
O145 C130 1.202 . S
O146 U126 2.455 . S
O146 C143 1.301 . S
O147 U126 2.449 . S
O147 C143 1.282 . S
H148 C121 0.931 . S
H149 C123 0.929 . S
H150 C124 0.930 . S
H151 C125 0.931 . S
H152 C132 0.932 . S
H153 C133 0.930 . S
H154 C134 0.929 . S
H155 C136 0.930 . S
H156 C138 0.932 . S
H157 C139 0.929 . S
H158 C140 0.928 . S
H159 C142 0.932 . S
C160 C161 1.264 . S
C160 C165 1.479 . S
C160 C170 1.465 . S
C161 C160 1.264 . S
C161 C163 1.339 . S
C161 H188 0.931 . S
C162 C163 1.395 . S
C162 C164 1.320 . S
C163 C161 1.339 . S
C163 C162 1.395 . S
C163 H189 0.929 . S
C164 C162 1.320 . S
C164 C165 1.405 . S
C164 H190 0.930 1_455 S
C165 C160 1.479 . S
C165 C164 1.405 . S
C165 H191 0.931 . S
U166 O167 2.454 . S
U166 O168 2.458 . S
U166 C169 2.984 . S
U166 C170 2.847 . S
U166 C183 2.882 . S
U166 O184 2.441 . S
U166 O185 2.420 . S
U166 O186 2.455 . S
U166 O187 2.449 . S
O167 U166 2.454 . S
O167 C169 1.353 . S
O168 U166 2.458 . S
O168 C169 1.286 . S
C169 U166 2.984 . S
C169 O167 1.353 . S
C169 O168 1.286 . S
C169 C171 1.363 . S
C170 C160 1.465 . S
C170 U166 2.847 . S
C170 O184 1.249 . S
C170 O185 1.202 . S
C171 C169 1.363 . S
C171 C173 1.408 . S
C171 C176 1.342 . S
C172 C173 1.310 . S
C172 C175 1.461 . S
C172 H192 0.932 . S
C173 C171 1.408 . S
C173 C172 1.310 . S
C173 H193 0.930 . S
C174 C175 1.474 . S
C174 C176 1.285 . S
C174 H194 0.929 . S
C175 C172 1.461 . S
C175 C174 1.474 . S
C176 C171 1.342 . S
C176 C174 1.285 . S
C176 H195 0.930 . S
C177 C180 1.424 . S
C177 C182 1.245 . S
C177 C183 1.428 . S
C178 C181 1.260 . S
C178 C182 1.477 . S
C178 H196 0.932 . S
C179 C180 1.384 . S
C179 C181 1.479 . S
C179 H197 0.929 . S
C180 C177 1.424 . S
C180 C179 1.384 . S
C180 H198 0.928 . S
C181 C178 1.260 . S
C181 C179 1.479 . S
C182 C177 1.245 . S
C182 C178 1.477 . S
C182 H199 0.932 . S
C183 U166 2.882 . S
C183 C177 1.428 . S
C183 O186 1.301 . S
C183 O187 1.282 . S
O184 U166 2.441 . S
O184 C170 1.249 . S
O185 U166 2.420 . S
O185 C170 1.202 . S
O186 U166 2.455 . S
O186 C183 1.301 . S
O187 U166 2.449 . S
O187 C183 1.282 . S
H188 C161 0.931 . S
H189 C163 0.929 . S
H190 C164 0.930 1_655 S
H191 C165 0.931 . S
H192 C172 0.932 . S
H193 C173 0.930 . S
H194 C174 0.929 . S
H195 C176 0.930 . S
H196 C178 0.932 . S
H197 C179 0.929 . S
H198 C180 0.928 . S
H199 C182 0.932 . S
C200 C201 1.264 . S
C200 C205 1.479 . S
C200 C210 1.465 . S
C201 C200 1.264 . S
C201 C203 1.339 . S
C201 H228 0.931 . S
C202 C203 1.395 . S
C202 C204 1.320 . S
C203 C201 1.339 . S
C203 C202 1.395 . S
C203 H229 0.929 . S
C204 C202 1.320 . S
C204 C205 1.405 . S
C204 H230 0.930 . S
C205 C200 1.479 . S
C205 C204 1.405 . S
C205 H231 0.931 . S
U206 O207 2.454 . S
U206 O208 2.458 . S
U206 C209 2.984 . S
U206 C210 2.847 . S
U206 C223 2.882 . S
U206 O224 2.441 . S
U206 O225 2.420 . S
U206 O226 2.455 . S
U206 O227 2.449 . S
O207 U206 2.454 . S
O207 C209 1.353 . S
O208 U206 2.458 . S
O208 C209 1.286 . S
C209 U206 2.984 . S
C209 O207 1.353 . S
C209 O208 1.286 . S
C209 C211 1.363 . S
C210 C200 1.465 . S
C210 U206 2.847 . S
C210 O224 1.249 . S
C210 O225 1.202 . S
C211 C209 1.363 . S
C211 C213 1.408 . S
C211 C216 1.342 . S
C212 C213 1.310 . S
C212 C215 1.461 . S
C212 H232 0.932 . S
C213 C211 1.408 . S
C213 C212 1.310 . S
C213 H233 0.930 . S
C214 C215 1.474 . S
C214 C216 1.285 . S
C214 H234 0.929 . S
C215 C212 1.461 . S
C215 C214 1.474 . S
C216 C211 1.342 . S
C216 C214 1.285 . S
C216 H235 0.930 . S
C217 C220 1.424 . S
C217 C222 1.245 . S
C217 C223 1.428 . S
C218 C221 1.260 . S
C218 C222 1.477 . S
C218 H236 0.932 . S
C219 C220 1.384 . S
C219 C221 1.479 . S
C219 H237 0.929 . S
C220 C217 1.424 . S
C220 C219 1.384 . S
C220 H238 0.928 . S
C221 C218 1.260 . S
C221 C219 1.479 . S
C222 C217 1.245 . S
C222 C218 1.477 . S
C222 H239 0.932 . S
C223 U206 2.882 . S
C223 C217 1.428 . S
C223 O226 1.301 . S
C223 O227 1.282 . S
O224 U206 2.441 . S
O224 C210 1.249 . S
O225 U206 2.420 . S
O225 C210 1.202 . S
O226 U206 2.455 . S
O226 C223 1.301 . S
O227 U206 2.449 . S
O227 C223 1.282 . S
H228 C201 0.931 . S
H229 C203 0.929 . S
H230 C204 0.930 . S
H231 C205 0.931 . S
H232 C212 0.932 . S
H233 C213 0.930 . S
H234 C214 0.929 . S
H235 C216 0.930 . S
H236 C218 0.932 . S
H237 C219 0.929 . S
H238 C220 0.928 . S
H239 C222 0.932 . S
C240 C241 1.264 . S
C240 C245 1.479 . S
C240 C250 1.465 . S
C241 C240 1.264 . S
C241 C243 1.339 . S
C241 H268 0.931 . S
C242 C243 1.395 . S
C242 C244 1.320 . S
C243 C241 1.339 . S
C243 C242 1.395 . S
C243 H269 0.929 . S
C244 C242 1.320 . S
C244 C245 1.405 . S
C244 H270 0.930 . S
C245 C240 1.479 . S
C245 C244 1.405 . S
C245 H271 0.931 . S
U246 O247 2.454 . S
U246 O248 2.458 . S
U246 C249 2.984 . S
U246 C250 2.847 . S
U246 C263 2.882 . S
U246 O264 2.441 . S
U246 O265 2.420 . S
U246 O266 2.455 . S
U246 O267 2.449 . S
O247 U246 2.454 . S
O247 C249 1.353 . S
O248 U246 2.458 . S
O248 C249 1.286 . S
C249 U246 2.984 . S
C249 O247 1.353 . S
C249 O248 1.286 . S
C249 C251 1.363 . S
C250 C240 1.465 . S
C250 U246 2.847 . S
C250 O264 1.249 . S
C250 O265 1.202 . S
C251 C249 1.363 . S
C251 C253 1.408 . S
C251 C256 1.342 . S
C252 C253 1.310 . S
C252 C255 1.461 . S
C252 H272 0.932 . S
C253 C251 1.408 . S
C253 C252 1.310 . S
C253 H273 0.930 . S
C254 C255 1.474 . S
C254 C256 1.285 . S
C254 H274 0.929 . S
C255 C252 1.461 . S
C255 C254 1.474 . S
C256 C251 1.342 . S
C256 C254 1.285 . S
C256 H275 0.930 . S
C257 C260 1.424 . S
C257 C262 1.245 . S
C257 C263 1.428 . S
C258 C261 1.260 . S
C258 C262 1.477 . S
C258 H276 0.932 . S
C259 C260 1.384 . S
C259 C261 1.479 . S
C259 H277 0.929 . S
C260 C257 1.424 . S
C260 C259 1.384 . S
C260 H278 0.928 . S
C261 C258 1.260 . S
C261 C259 1.479 . S
C262 C257 1.245 . S
C262 C258 1.477 . S
C262 H279 0.932 . S
C263 U246 2.882 . S
C263 C257 1.428 . S
C263 O266 1.301 . S
C263 O267 1.282 . S
O264 U246 2.441 . S
O264 C250 1.249 . S
O265 U246 2.420 . S
O265 C250 1.202 . S
O266 U246 2.455 . S
O266 C263 1.301 . S
O267 U246 2.449 . S
O267 C263 1.282 . S
H268 C241 0.931 . S
H269 C243 0.929 . S
H270 C244 0.930 . S
H271 C245 0.931 . S
H272 C252 0.932 . S
H273 C253 0.930 . S
H274 C254 0.929 . S
H275 C256 0.930 . S
H276 C258 0.932 . S
H277 C259 0.929 . S
H278 C260 0.928 . S
H279 C262 0.932 . S
C280 C281 1.264 . S
C280 C285 1.479 . S
C280 C290 1.465 . S
C281 C280 1.264 . S
C281 C283 1.339 . S
C281 H308 0.931 . S
C282 C283 1.395 . S
C282 C284 1.320 . S
C283 C281 1.339 . S
C283 C282 1.395 . S
C283 H309 0.929 . S
C284 C282 1.320 . S
C284 C285 1.405 . S
C284 H310 0.930 . S
C285 C280 1.479 . S
C285 C284 1.405 . S
C285 H311 0.931 . S
U286 O287 2.454 . S
U286 O288 2.458 . S
U286 C289 2.984 . S
U286 C290 2.847 . S
U286 C303 2.882 . S
U286 O304 2.441 . S
U286 O305 2.420 . S
U286 O306 2.455 . S
U286 O307 2.449 . S
O287 U286 2.454 . S
O287 C289 1.353 . S
O288 U286 2.458 . S
O288 C289 1.286 . S
C289 U286 2.984 . S
C289 O287 1.353 . S
C289 O288 1.286 . S
C289 C291 1.363 . S
C290 C280 1.465 . S
C290 U286 2.847 . S
C290 O304 1.249 . S
C290 O305 1.202 . S
C291 C289 1.363 . S
C291 C293 1.408 . S
C291 C296 1.342 . S
C292 C293 1.310 . S
C292 C295 1.461 . S
C292 H312 0.932 . S
C293 C291 1.408 . S
C293 C292 1.310 . S
C293 H313 0.930 . S
C294 C295 1.474 . S
C294 C296 1.285 . S
C294 H314 0.929 . S
C295 C292 1.461 . S
C295 C294 1.474 . S
C296 C291 1.342 . S
C296 C294 1.285 . S
C296 H315 0.930 . S
C297 C300 1.424 . S
C297 C302 1.245 . S
C297 C303 1.428 . S
C298 C301 1.260 . S
C298 C302 1.477 . S
C298 H316 0.932 . S
C299 C300 1.384 . S
C299 C301 1.479 . S
C299 H317 0.929 . S
C300 C297 1.424 . S
C300 C299 1.384 . S
C300 H318 0.928 . S
C301 C298 1.260 . S
C301 C299 1.479 . S
C302 C297 1.245 . S
C302 C298 1.477 . S
C302 H319 0.932 . S
C303 U286 2.882 . S
C303 C297 1.428 . S
C303 O306 1.301 . S
C303 O307 1.282 . S
O304 U286 2.441 . S
O304 C290 1.249 . S
O305 U286 2.420 . S
O305 C290 1.202 . S
O306 U286 2.455 . S
O306 C303 1.301 . S
O307 U286 2.449 . S
O307 C303 1.282 . S
H308 C281 0.931 . S
H309 C283 0.929 . S
H310 C284 0.930 . S
H311 C285 0.931 . S
H312 C292 0.932 . S
H313 C293 0.930 . S
H314 C294 0.929 . S
H315 C296 0.930 . S
H316 C298 0.932 . S
H317 C299 0.929 . S
H318 C300 0.928 . S
H319 C302 0.932 . S
C320 C321 1.264 . S
C320 C325 1.479 . S
C320 C330 1.465 . S
C321 C320 1.264 . S
C321 C323 1.339 . S
C321 H348 0.931 . S
C322 C323 1.395 . S
C322 C324 1.320 . S
C323 C321 1.339 . S
C323 C322 1.395 . S
C323 H349 0.929 . S
C324 C322 1.320 . S
C324 C325 1.405 . S
C324 H350 0.930 . S
C325 C320 1.479 . S
C325 C324 1.405 . S
C325 H351 0.931 . S
U326 O327 2.454 . S
U326 O328 2.458 . S
U326 C329 2.984 . S
U326 C330 2.847 . S
U326 C343 2.882 . S
U326 O344 2.441 . S
U326 O345 2.420 . S
U326 O346 2.455 . S
U326 O347 2.449 . S
O327 U326 2.454 . S
O327 C329 1.353 . S
O328 U326 2.458 . S
O328 C329 1.286 . S
C329 U326 2.984 . S
C329 O327 1.353 . S
C329 O328 1.286 . S
C329 C331 1.363 . S
C330 C320 1.465 . S
C330 U326 2.847 . S
C330 O344 1.249 . S
C330 O345 1.202 . S
C331 C329 1.363 . S
C331 C333 1.408 . S
C331 C336 1.342 . S
C332 C333 1.310 . S
C332 C335 1.461 . S
C332 H352 0.932 . S
C333 C331 1.408 . S
C333 C332 1.310 . S
C333 H353 0.930 . S
C334 C335 1.474 . S
C334 C336 1.285 . S
C334 H354 0.929 . S
C335 C332 1.461 . S
C335 C334 1.474 . S
C336 C331 1.342 . S
C336 C334 1.285 . S
C336 H355 0.930 . S
C337 C340 1.424 . S
C337 C342 1.245 . S
C337 C343 1.428 . S
C338 C341 1.260 . S
C338 C342 1.477 . S
C338 H356 0.932 . S
C339 C340 1.384 . S
C339 C341 1.479 . S
C339 H357 0.929 . S
C340 C337 1.424 . S
C340 C339 1.384 . S
C340 H358 0.928 . S
C341 C338 1.260 . S
C341 C339 1.479 . S
C342 C337 1.245 . S
C342 C338 1.477 . S
C342 H359 0.932 . S
C343 U326 2.882 . S
C343 C337 1.428 . S
C343 O346 1.301 . S
C343 O347 1.282 . S
O344 U326 2.441 . S
O344 C330 1.249 . S
O345 U326 2.420 . S
O345 C330 1.202 . S
O346 U326 2.455 . S
O346 C343 1.301 . S
O347 U326 2.449 . S
O347 C343 1.282 . S
H348 C321 0.931 . S
H349 C323 0.929 . S
H350 C324 0.930 . S
H351 C325 0.931 . S
H352 C332 0.932 . S
H353 C333 0.930 . S
H354 C334 0.929 . S
H355 C336 0.930 . S
H356 C338 0.932 . S
H357 C339 0.929 . S
H358 C340 0.928 . S
H359 C342 0.932 . S
C360 C361 1.264 . S
C360 C365 1.479 . S
C360 C370 1.465 . S
C361 C360 1.264 . S
C361 C363 1.339 . S
C361 H388 0.931 . S
C362 C363 1.395 . S
C362 C364 1.320 . S
C363 C361 1.339 . S
C363 C362 1.395 . S
C363 H389 0.929 . S
C364 C362 1.320 . S
C364 C365 1.405 . S
C364 H390 0.930 . S
C365 C360 1.479 . S
C365 C364 1.405 . S
C365 H391 0.931 . S
U366 O367 2.454 . S
U366 O368 2.458 . S
U366 C369 2.984 . S
U366 C370 2.847 . S
U366 C383 2.882 . S
U366 O384 2.441 . S
U366 O385 2.420 . S
U366 O386 2.455 . S
U366 O387 2.449 . S
O367 U366 2.454 . S
O367 C369 1.353 . S
O368 U366 2.458 . S
O368 C369 1.286 . S
C369 U366 2.984 . S
C369 O367 1.353 . S
C369 O368 1.286 . S
C369 C371 1.363 . S
C370 C360 1.465 . S
C370 U366 2.847 . S
C370 O384 1.249 . S
C370 O385 1.202 . S
C371 C369 1.363 . S
C371 C373 1.408 . S
C371 C376 1.342 . S
C372 C373 1.310 . S
C372 C375 1.461 . S
C372 H392 0.932 . S
C373 C371 1.408 . S
C373 C372 1.310 . S
C373 H393 0.930 . S
C374 C375 1.474 . S
C374 C376 1.285 . S
C374 H394 0.929 . S
C375 C372 1.461 . S
C375 C374 1.474 . S
C376 C371 1.342 . S
C376 C374 1.285 . S
C376 H395 0.930 . S
C377 C380 1.424 . S
C377 C382 1.245 . S
C377 C383 1.428 . S
C378 C381 1.260 . S
C378 C382 1.477 . S
C378 H396 0.932 . S
C379 C380 1.384 . S
C379 C381 1.479 . S
C379 H397 0.929 . S
C380 C377 1.424 . S
C380 C379 1.384 . S
C380 H398 0.928 . S
C381 C378 1.260 . S
C381 C379 1.479 . S
C382 C377 1.245 . S
C382 C378 1.477 . S
C382 H399 0.932 . S
C383 U366 2.882 . S
C383 C377 1.428 . S
C383 O386 1.301 . S
C383 O387 1.282 . S
O384 U366 2.441 . S
O384 C370 1.249 . S
O385 U366 2.420 . S
O385 C370 1.202 . S
O386 U366 2.455 . S
O386 C383 1.301 . S
O387 U366 2.449 . S
O387 C383 1.282 . S
H388 C361 0.931 . S
H389 C363 0.929 . S
H390 C364 0.930 . S
H391 C365 0.931 . S
H392 C372 0.932 . S
H393 C373 0.930 . S
H394 C374 0.929 . S
H395 C376 0.930 . S
H396 C378 0.932 . S
H397 C379 0.929 . S
H398 C380 0.928 . S
H399 C382 0.932 . S
C400 C401 1.264 . S
C400 C405 1.479 . S
C400 C410 1.465 . S
C401 C400 1.264 . S
C401 C403 1.339 . S
C401 H428 0.931 . S
C402 C403 1.395 . S
C402 C404 1.320 . S
C403 C401 1.339 . S
C403 C402 1.395 . S
C403 H429 0.929 . S
C404 C402 1.320 . S
C404 C405 1.405 . S
C404 H430 0.930 . S
C405 C400 1.479 . S
C405 C404 1.405 . S
C405 H431 0.931 . S
U406 O407 2.454 . S
U406 O408 2.458 . S
U406 C409 2.984 . S
U406 C410 2.847 . S
U406 C423 2.882 . S
U406 O424 2.441 . S
U406 O425 2.420 . S
U406 O426 2.455 . S
U406 O427 2.449 . S
O407 U406 2.454 . S
O407 C409 1.353 . S
O408 U406 2.458 . S
O408 C409 1.286 . S
C409 U406 2.984 . S
C409 O407 1.353 . S
C409 O408 1.286 . S
C409 C411 1.363 . S
C410 C400 1.465 . S
C410 U406 2.847 . S
C410 O424 1.249 . S
C410 O425 1.202 . S
C411 C409 1.363 . S
C411 C413 1.408 . S
C411 C416 1.342 . S
C412 C413 1.310 . S
C412 C415 1.461 . S
C412 H432 0.932 . S
C413 C411 1.408 . S
C413 C412 1.310 . S
C413 H433 0.930 . S
C414 C415 1.474 . S
C414 C416 1.285 . S
C414 H434 0.929 . S
C415 C412 1.461 . S
C415 C414 1.474 . S
C416 C411 1.342 . S
C416 C414 1.285 . S
C416 H435 0.930 . S
C417 C420 1.424 . S
C417 C422 1.245 . S
C417 C423 1.428 . S
C418 C421 1.260 . S
C418 C422 1.477 . S
C418 H436 0.932 . S
C419 C420 1.384 . S
C419 C421 1.479 . S
C419 H437 0.929 . S
C420 C417 1.424 . S
C420 C419 1.384 . S
C420 H438 0.928 . S
C421 C418 1.260 . S
C421 C419 1.479 . S
C422 C417 1.245 . S
C422 C418 1.477 . S
C422 H439 0.932 . S
C423 U406 2.882 . S
C423 C417 1.428 . S
C423 O426 1.301 . S
C423 O427 1.282 . S
O424 U406 2.441 . S
O424 C410 1.249 . S
O425 U406 2.420 . S
O425 C410 1.202 . S
O426 U406 2.455 . S
O426 C423 1.301 . S
O427 U406 2.449 . S
O427 C423 1.282 . S
H428 C401 0.931 . S
H429 C403 0.929 . S
H430 C404 0.930 . S
H431 C405 0.931 . S
H432 C412 0.932 . S
H433 C413 0.930 . S
H434 C414 0.929 . S
H435 C416 0.930 . S
H436 C418 0.932 . S
H437 C419 0.929 . S
H438 C420 0.928 . S
H439 C422 0.932 . S
C440 C441 1.264 . S
C440 C445 1.479 . S
C440 C450 1.465 . S
C441 C440 1.264 . S
C441 C443 1.339 . S
C441 H468 0.931 . S
C442 C443 1.395 . S
C442 C444 1.320 . S
C443 C441 1.339 . S
C443 C442 1.395 . S
C443 H469 0.929 . S
C444 C442 1.320 . S
C444 C445 1.405 . S
C444 H470 0.930 . S
C445 C440 1.479 . S
C445 C444 1.405 . S
C445 H471 0.931 . S
U446 O447 2.454 . S
U446 O448 2.458 . S
U446 C449 2.984 . S
U446 C450 2.847 . S
U446 C463 2.882 . S
U446 O464 2.441 . S
U446 O465 2.420 . S
U446 O466 2.455 . S
U446 O467 2.449 . S
O447 U446 2.454 . S
O447 C449 1.353 . S
O448 U446 2.458 . S
O448 C449 1.286 . S
C449 U446 2.984 . S
C449 O447 1.353 . S
C449 O448 1.286 . S
C449 C451 1.363 . S
C450 C440 1.465 . S
C450 U446 2.847 . S
C450 O464 1.249 . S
C450 O465 1.202 . S
C451 C449 1.363 . S
C451 C453 1.408 . S
C451 C456 1.342 . S
C452 C453 1.310 . S
C452 C455 1.461 . S
C452 H472 0.932 . S
C453 C451 1.408 . S
C453 C452 1.310 . S
C453 H473 0.930 . S
C454 C455 1.474 . S
C454 C456 1.285 . S
C454 H474 0.929 . S
C455 C452 1.461 . S
C455 C454 1.474 . S
C456 C451 1.342 . S
C456 C454 1.285 . S
C456 H475 0.930 . S
C457 C460 1.424 . S
C457 C462 1.245 . S
C457 C463 1.428 . S
C458 C461 1.260 . S
C458 C462 1.477 . S
C458 H476 0.932 . S
C459 C460 1.384 . S
C459 C461 1.479 . S
C459 H477 0.929 . S
C460 C457 1.424 . S
C460 C459 1.384 . S
C460 H478 0.928 . S
C461 C458 1.260 . S
C461 C459 1.479 . S
C462 C457 1.245 . S
C462 C458 1.477 . S
C462 H479 0.932 . S
C463 U446 2.882 . S
C463 C457 1.428 . S
C463 O466 1.301 . S
C463 O467 1.282 . S
O464 U446 2.441 . S
O464 C450 1.249 . S
O465 U446 2.420 . S
O465 C450 1.202 . S
O466 U446 2.455 . S
O466 C463 1.301 . S
O467 U446 2.449 . S
O467 C463 1.282 . S
H468 C441 0.931 . S
H469 C443 0.929 . S
H470 C444 0.930 . S
H471 C445 0.931 . S
H472 C452 0.932 . S
H473 C453 0.930 . S
H474 C454 0.929 . S
H475 C456 0.930 . S
H476 C458 0.932 . S
H477 C459 0.929 . S
H478 C460 0.928 . S
H479 C462 0.932 . S
C480 C481 1.264 . S
C480 C485 1.479 . S
C480 C490 1.465 . S
C481 C480 1.264 . S
C481 C483 1.339 . S
C481 H508 0.931 . S
C482 C483 1.395 . S
C482 C484 1.320 . S
C483 C481 1.339 . S
C483 C482 1.395 . S
C483 H509 0.929 . S
C484 C482 1.320 . S
C484 C485 1.405 . S
C484 H510 0.930 . S
C485 C480 1.479 . S
C485 C484 1.405 . S
C485 H511 0.931 . S
U486 O487 2.454 . S
U486 O488 2.458 . S
U486 C489 2.984 . S
U486 C490 2.847 . S
U486 C503 2.882 . S
U486 O504 2.441 . S
U486 O505 2.420 . S
U486 O506 2.455 . S
U486 O507 2.449 . S
O487 U486 2.454 . S
O487 C489 1.353 . S
O488 U486 2.458 . S
O488 C489 1.286 . S
C489 U486 2.984 . S
C489 O487 1.353 . S
C489 O488 1.286 . S
C489 C491 1.363 . S
C490 C480 1.465 . S
C490 U486 2.847 . S
C490 O504 1.249 . S
C490 O505 1.202 . S
C491 C489 1.363 . S
C491 C493 1.408 . S
C491 C496 1.342 . S
C492 C493 1.310 . S
C492 C495 1.461 . S
C492 H512 0.932 . S
C493 C491 1.408 . S
C493 C492 1.310 . S
C493 H513 0.930 . S
C494 C495 1.474 . S
C494 C496 1.285 . S
C494 H514 0.929 . S
C495 C492 1.461 . S
C495 C494 1.474 . S
C496 C491 1.342 . S
C496 C494 1.285 . S
C496 H515 0.930 . S
C497 C500 1.424 . S
C497 C502 1.245 . S
C497 C503 1.428 . S
C498 C501 1.260 . S
C498 C502 1.477 . S
C498 H516 0.932 . S
C499 C500 1.384 . S
C499 C501 1.479 . S
C499 H517 0.929 . S
C500 C497 1.424 . S
C500 C499 1.384 . S
C500 H518 0.928 . S
C501 C498 1.260 . S
C501 C499 1.479 . S
C502 C497 1.245 . S
C502 C498 1.477 . S
C502 H519 0.932 . S
C503 U486 2.882 . S
C503 C497 1.428 . S
C503 O506 1.301 . S
C503 O507 1.282 . S
O504 U486 2.441 . S
O504 C490 1.249 . S
O505 U486 2.420 . S
O505 C490 1.202 . S
O506 U486 2.455 . S
O506 C503 1.301 . S
O507 U486 2.449 . S
O507 C503 1.282 . S
H508 C481 0.931 . S
H509 C483 0.929 . S
H510 C484 0.930 . S
H511 C485 0.931 . S
H512 C492 0.932 . S
H513 C493 0.930 . S
H514 C494 0.929 . S
H515 C496 0.930 . S
H516 C498 0.932 . S
H517 C499 0.929 . S
H518 C500 0.928 . S
H519 C502 0.932 . S
C520 C521 1.264 . S
C520 C525 1.479 . S
C520 C530 1.465 . S
C521 C520 1.264 . S
C521 C523 1.339 . S
C521 H548 0.931 . S
C522 C523 1.395 1_655 S
C522 C524 1.320 . S
C523 C521 1.339 . S
C523 C522 1.395 1_455 S
C523 H549 0.929 . S
C524 C522 1.320 . S
C524 C525 1.405 1_655 S
C524 H550 0.930 . S
C525 C520 1.479 . S
C525 C524 1.405 1_455 S
C525 H551 0.931 . S
U526 O527 2.454 . S
U526 O528 2.458 . S
U526 C529 2.984 . S
U526 C530 2.847 . S
U526 C543 2.882 . S
U526 O544 2.441 . S
U526 O545 2.420 . S
U526 O546 2.455 . S
U526 O547 2.449 . S
O527 U526 2.454 . S
O527 C529 1.353 . S
O528 U526 2.458 . S
O528 C529 1.286 . S
C529 U526 2.984 . S
C529 O527 1.353 . S
C529 O528 1.286 . S
C529 C531 1.363 . S
C530 C520 1.465 . S
C530 U526 2.847 . S
C530 O544 1.249 . S
C530 O545 1.202 . S
C531 C529 1.363 . S
C531 C533 1.408 . S
C531 C536 1.342 . S
C532 C533 1.310 . S
C532 C535 1.461 . S
C532 H552 0.932 . S
C533 C531 1.408 . S
C533 C532 1.310 . S
C533 H553 0.930 . S
C534 C535 1.474 . S
C534 C536 1.285 . S
C534 H554 0.929 . S
C535 C532 1.461 . S
C535 C534 1.474 . S
C536 C531 1.342 . S
C536 C534 1.285 . S
C536 H555 0.930 . S
C537 C540 1.424 . S
C537 C542 1.245 . S
C537 C543 1.428 . S
C538 C541 1.260 . S
C538 C542 1.477 . S
C538 H556 0.932 . S
C539 C540 1.384 . S
C539 C541 1.479 . S
C539 H557 0.929 . S
C540 C537 1.424 . S
C540 C539 1.384 . S
C540 H558 0.928 . S
C541 C538 1.260 . S
C541 C539 1.479 . S
C542 C537 1.245 . S
C542 C538 1.477 . S
C542 H559 0.932 . S
C543 U526 2.882 . S
C543 C537 1.428 . S
C543 O546 1.301 . S
C543 O547 1.282 . S
O544 U526 2.441 . S
O544 C530 1.249 . S
O545 U526 2.420 . S
O545 C530 1.202 . S
O546 U526 2.455 . S
O546 C543 1.301 . S
O547 U526 2.449 . S
O547 C543 1.282 . S
H548 C521 0.931 . S
H549 C523 0.929 . S
H550 C524 0.930 . S
H551 C525 0.931 . S
H552 C532 0.932 . S
H553 C533 0.930 . S
H554 C534 0.929 . S
H555 C536 0.930 . S
H556 C538 0.932 . S
H557 C539 0.929 . S
H558 C540 0.928 . S
H559 C542 0.932 . S
C560 C561 1.264 . S
C560 C565 1.479 . S
C560 C570 1.465 . S
C561 C560 1.264 . S
C561 C563 1.339 . S
C561 H588 0.931 . S
C562 C563 1.395 . S
C562 C564 1.320 . S
C563 C561 1.339 . S
C563 C562 1.395 . S
C563 H589 0.929 . S
C564 C562 1.320 . S
C564 C565 1.405 . S
C564 H590 0.930 . S
C565 C560 1.479 . S
C565 C564 1.405 . S
C565 H591 0.931 . S
U566 O567 2.454 . S
U566 O568 2.458 . S
U566 C569 2.984 . S
U566 C570 2.847 . S
U566 C583 2.882 . S
U566 O584 2.441 . S
U566 O585 2.420 . S
U566 O586 2.455 . S
U566 O587 2.449 . S
O567 U566 2.454 . S
O567 C569 1.353 . S
O568 U566 2.458 . S
O568 C569 1.286 . S
C569 U566 2.984 . S
C569 O567 1.353 . S
C569 O568 1.286 . S
C569 C571 1.363 . S
C570 C560 1.465 . S
C570 U566 2.847 . S
C570 O584 1.249 . S
C570 O585 1.202 . S
C571 C569 1.363 . S
C571 C573 1.408 . S
C571 C576 1.342 . S
C572 C573 1.310 . S
C572 C575 1.461 . S
C572 H592 0.932 . S
C573 C571 1.408 . S
C573 C572 1.310 . S
C573 H593 0.930 . S
C574 C575 1.474 . S
C574 C576 1.285 . S
C574 H594 0.929 . S
C575 C572 1.461 . S
C575 C574 1.474 . S
C576 C571 1.342 . S
C576 C574 1.285 . S
C576 H595 0.930 . S
C577 C580 1.424 . S
C577 C582 1.245 . S
C577 C583 1.428 . S
C578 C581 1.260 . S
C578 C582 1.477 . S
C578 H596 0.932 . S
C579 C580 1.384 . S
C579 C581 1.479 . S
C579 H597 0.929 . S
C580 C577 1.424 . S
C580 C579 1.384 . S
C580 H598 0.928 . S
C581 C578 1.260 . S
C581 C579 1.479 . S
C582 C577 1.245 . S
C582 C578 1.477 . S
C582 H599 0.932 . S
C583 U566 2.882 . S
C583 C577 1.428 . S
C583 O586 1.301 . S
C583 O587 1.282 . S
O584 U566 2.441 . S
O584 C570 1.249 . S
O585 U566 2.420 . S
O585 C570 1.202 . S
O586 U566 2.455 . S
O586 C583 1.301 . S
O587 U566 2.449 . S
O587 C583 1.282 . S
H588 C561 0.931 . S
H589 C563 0.929 . S
H590 C564 0.930 . S
H591 C565 0.931 . S
H592 C572 0.932 . S
H593 C573 0.930 . S
H594 C574 0.929 . S
H595 C576 0.930 . S
H596 C578 0.932 . S
H597 C579 0.929 . S
H598 C580 0.928 . S
H599 C582 0.932 . S
C600 C601 1.264 . S
C600 C605 1.479 . S
C600 C610 1.465 . S
C601 C600 1.264 . S
C601 C603 1.339 . S
C601 H628 0.931 . S
C602 C603 1.310 1_655 S
C602 C604 1.331 . S
C603 C601 1.339 . S
C603 C602 1.310 1_455 S
C603 H629 0.929 . S
C604 C602 1.331 . S
C604 C605 1.405 1_655 S
C604 H630 0.930 . S
C605 C600 1.479 . S
C605 C604 1.405 1_455 S
C605 H631 0.931 . S
U606 O607 2.454 . S
U606 O608 2.458 . S
U606 C609 2.984 . S
U606 C610 2.847 . S
U606 C623 2.882 . S
U606 O624 2.441 . S
U606 O625 2.420 . S
U606 O626 2.455 . S
U606 O627 2.449 . S
O607 U606 2.454 . S
O607 C609 1.353 . S
O608 U606 2.458 . S
O608 C609 1.286 . S
C609 U606 2.984 . S
C609 O607 1.353 . S
C609 O608 1.286 . S
C609 C611 1.363 . S
C610 C600 1.465 . S
C610 U606 2.847 . S
C610 O624 1.249 . S
C610 O625 1.202 . S
C611 C609 1.363 . S
C611 C613 1.408 . S
C611 C616 1.342 . S
C612 C613 1.310 . S
C612 C615 1.461 . S
C612 H632 0.932 . S
C613 C611 1.408 . S
C613 C612 1.310 . S
C613 H633 0.930 . S
C614 C615 1.474 . S
C614 C616 1.285 . S
C614 H634 0.929 . S
C615 C612 1.461 . S
C615 C614 1.474 . S
C616 C611 1.342 . S
C616 C614 1.285 . S
C616 H635 0.930 . S
C617 C620 1.424 . S
C617 C622 1.245 . S
C617 C623 1.428 . S
C618 C621 1.260 . S
C618 C622 1.477 . S
C618 H636 0.932 . S
C619 C620 1.384 . S
C619 C621 1.479 . S
C619 H637 0.929 . S
C620 C617 1.424 . S
C620 C619 1.384 . S
C620 H638 0.928 . S
C621 C618 1.260 . S
C621 C619 1.479 . S
C622 C617 1.245 . S
C622 C618 1.477 . S
C622 H639 0.932 . S
C623 U606 2.882 . S
C623 C617 1.428 . S
C623 O626 1.301 . S
C623 O627 1.282 . S
O624 U606 2.441 . S
O624 C610 1.249 . S
O625 U606 2.420 . S
O625 C610 1.202 . S
O626 U606 2.455 . S
O626 C623 1.301 . S
O627 U606 2.449 . S
O627 C623 1.282 . S
H628 C601 0.931 . S
H629 C603 0.929 . S
H630 C604 0.930 . S
H631 C605 0.931 . S
H632 C612 0.932 . S
H633 C613 0.930 . S
H634 C614 0.929 . S
H635 C616 0.930 . S
H636 C618 0.932 . S
H637 C619 0.929 . S
H638 C620 0.928 . S
H639 C622 0.932 . S
C640 C641 1.349 . S
C640 C642 1.327 . S
C640 H665 0.950 . S
C641 C640 1.349 . S
C641 C657 1.349 . S
C642 C640 1.327 . S
C642 C661 1.429 . S
C642 H666 0.950 . S
C643 C660 1.574 . S
C643 C662 1.368 . S
C643 H667 0.949 . S
H644 C648 0.949 . S
C645 C646 1.349 . S
C645 C647 1.327 . S
C645 H668 0.950 . S
C646 C645 1.349 . S
C646 C658 1.349 . S
C647 C645 1.327 . S
C647 C663 1.429 . S
C647 H669 0.950 . S
C648 H644 0.949 . S
C648 C656 1.574 . S
C648 C664 1.368 . S
H649 C657 0.950 . S
H650 C655 0.950 . S
H651 C656 0.949 . S
H652 C658 0.950 . S
H653 C659 0.950 . S
H654 C660 0.949 . S
C655 H650 0.950 . S
C655 C657 1.327 . S
C655 C661 1.429 . S
C656 C648 1.574 . S
C656 H651 0.949 . S
C656 C662 1.368 . S
C657 C641 1.349 . S
C657 H649 0.950 . S
C657 C655 1.327 . S
C658 C646 1.349 . S
C658 H652 0.950 . S
C658 C659 1.327 . S
C659 H653 0.950 . S
C659 C658 1.327 . S
C659 C663 1.429 . S
C660 C643 1.574 . S
C660 H654 0.949 . S
C660 C664 1.368 . S
C661 C642 1.429 . S
C661 C655 1.429 . S
C661 C662 1.523 . S
C662 C643 1.368 . S
C662 C656 1.368 . S
C662 C661 1.523 . S
C663 C647 1.429 . S
C663 C659 1.429 . S
C663 C664 1.523 . S
C664 C648 1.368 . S
C664 C660 1.368 . S
C664 C663 1.523 . S
H665 C640 0.950 . S
H666 C642 0.950 . S
H667 C643 0.949 . S
H668 C645 0.950 . S
H669 C647 0.950 . S
C670 C671 1.349 . S
C670 C672 1.327 . S
C670 H695 0.950 . S
C671 C670 1.349 . S
C671 C687 1.349 . S
C672 C670 1.327 . S
C672 C691 1.429 . S
C672 H696 0.950 . S
C673 C690 1.574 . S
C673 C692 1.368 . S
C673 H697 0.949 . S
H674 C678 0.949 . S
C675 C676 1.349 . S
C675 C677 1.327 . S
C675 H698 0.950 . S
C676 C675 1.349 . S
C676 C688 1.349 . S
C677 C675 1.327 . S
C677 C693 1.429 . S
C677 H699 0.950 . S
C678 H674 0.949 . S
C678 C686 1.574 . S
C678 C694 1.368 . S
H679 C687 0.950 . S
H680 C685 0.950 . S
H681 C686 0.949 . S
H682 C688 0.950 . S
H683 C689 0.950 . S
H684 C690 0.949 . S
C685 H680 0.950 . S
C685 C687 1.327 . S
C685 C691 1.429 . S
C686 C678 1.574 . S
C686 H681 0.949 . S
C686 C692 1.368 . S
C687 C671 1.349 . S
C687 H679 0.950 . S
C687 C685 1.327 . S
C688 C676 1.349 . S
C688 H682 0.950 . S
C688 C689 1.327 . S
C689 H683 0.950 . S
C689 C688 1.327 . S
C689 C693 1.429 . S
C690 C673 1.574 . S
C690 H684 0.949 . S
C690 C694 1.368 . S
C691 C672 1.429 . S
C691 C685 1.429 . S
C691 C692 1.523 . S
C692 C673 1.368 . S
C692 C686 1.368 . S
C692 C691 1.523 . S
C693 C677 1.429 . S
C693 C689 1.429 . S
C693 C694 1.523 . S
C694 C678 1.368 . S
C694 C690 1.368 . S
C694 C693 1.523 . S
H695 C670 0.950 . S
H696 C672 0.950 . S
H697 C673 0.949 . S
H698 C675 0.950 . S
H699 C677 0.950 . S
C700 C701 1.349 . S
C700 C702 1.327 . S
C700 H725 0.950 . S
C701 C700 1.349 . S
C701 C717 1.349 . S
C702 C700 1.327 . S
C702 C721 1.429 . S
C702 H726 0.950 . S
C703 C720 1.574 . S
C703 C722 1.368 . S
C703 H727 0.949 . S
H704 C708 0.949 . S
C705 C706 1.349 . S
C705 C707 1.327 . S
C705 H728 0.950 . S
C706 C705 1.349 . S
C706 C718 1.349 . S
C707 C705 1.327 . S
C707 C723 1.429 . S
C707 H729 0.950 . S
C708 H704 0.949 . S
C708 C716 1.574 . S
C708 C724 1.368 . S
H709 C717 0.950 . S
H710 C715 0.950 . S
H711 C716 0.949 . S
H712 C718 0.950 . S
H713 C719 0.950 . S
H714 C720 0.949 . S
C715 H710 0.950 . S
C715 C717 1.327 . S
C715 C721 1.429 . S
C716 C708 1.574 . S
C716 H711 0.949 . S
C716 C722 1.368 . S
C717 C701 1.349 . S
C717 H709 0.950 . S
C717 C715 1.327 . S
C718 C706 1.349 . S
C718 H712 0.950 . S
C718 C719 1.327 . S
C719 H713 0.950 . S
C719 C718 1.327 . S
C719 C723 1.429 . S
C720 C703 1.574 . S
C720 H714 0.949 . S
C720 C724 1.368 . S
C721 C702 1.429 . S
C721 C715 1.429 . S
C721 C722 1.523 . S
C722 C703 1.368 . S
C722 C716 1.368 . S
C722 C721 1.523 . S
C723 C707 1.429 . S
C723 C719 1.429 . S
C723 C724 1.523 . S
C724 C708 1.368 . S
C724 C720 1.368 . S
C724 C723 1.523 . S
H725 C700 0.950 . S
H726 C702 0.950 . S
H727 C703 0.949 . S
H728 C705 0.950 . S
H729 C707 0.950 . S
C730 C731 1.349 . S
C730 C732 1.327 . S
C730 H755 0.950 . S
C731 C730 1.349 . S
C731 C747 1.349 . S
C732 C730 1.327 . S
C732 C751 1.429 . S
C732 H756 0.950 . S
C733 C750 1.574 . S
C733 C752 1.368 . S
C733 H757 0.949 . S
H734 C738 0.949 . S
C735 C736 1.349 . S
C735 C737 1.327 . S
C735 H758 0.950 . S
C736 C735 1.349 . S
C736 C748 1.349 . S
C737 C735 1.327 . S
C737 C753 1.429 . S
C737 H759 0.950 . S
C738 H734 0.949 . S
C738 C746 1.574 . S
C738 C754 1.368 . S
H739 C747 0.950 . S
H740 C745 0.950 . S
H741 C746 0.949 . S
H742 C748 0.950 . S
H743 C749 0.950 . S
H744 C750 0.949 . S
C745 H740 0.950 . S
C745 C747 1.327 . S
C745 C751 1.429 . S
C746 C738 1.574 . S
C746 H741 0.949 . S
C746 C752 1.368 . S
C747 C731 1.349 . S
C747 H739 0.950 . S
C747 C745 1.327 . S
C748 C736 1.349 . S
C748 H742 0.950 . S
C748 C749 1.327 . S
C749 H743 0.950 . S
C749 C748 1.327 . S
C749 C753 1.429 . S
C750 C733 1.574 . S
C750 H744 0.949 . S
C750 C754 1.368 . S
C751 C732 1.429 . S
C751 C745 1.429 . S
C751 C752 1.523 . S
C752 C733 1.368 . S
C752 C746 1.368 . S
C752 C751 1.523 . S
C753 C737 1.429 . S
C753 C749 1.429 . S
C753 C754 1.523 . S
C754 C738 1.368 . S
C754 C750 1.368 . S
C754 C753 1.523 . S
H755 C730 0.950 . S
H756 C732 0.950 . S
H757 C733 0.949 . S
H758 C735 0.950 . S
H759 C737 0.950 . S
C760 C761 1.349 . S
C760 C762 1.327 . S
C760 H785 0.950 . S
C761 C760 1.349 . S
C761 C777 1.349 . S
C762 C760 1.327 . S
C762 C781 1.429 . S
C762 H786 0.950 . S
C763 C780 1.574 . S
C763 C782 1.368 . S
C763 H787 0.949 . S
H764 C768 0.949 . S
C765 C766 1.349 . S
C765 C767 1.327 . S
C765 H788 0.950 . S
C766 C765 1.349 . S
C766 C778 1.349 . S
C767 C765 1.327 . S
C767 C783 1.429 . S
C767 H789 0.950 . S
C768 H764 0.949 . S
C768 C776 1.574 . S
C768 C784 1.368 . S
H769 C777 0.950 . S
H770 C775 0.950 . S
H771 C776 0.949 . S
H772 C778 0.950 . S
H773 C779 0.950 . S
H774 C780 0.949 . S
C775 H770 0.950 . S
C775 C777 1.327 . S
C775 C781 1.429 . S
C776 C768 1.574 . S
C776 H771 0.949 . S
C776 C782 1.368 . S
C777 C761 1.349 . S
C777 H769 0.950 . S
C777 C775 1.327 . S
C778 C766 1.349 . S
C778 H772 0.950 . S
C778 C779 1.327 . S
C779 H773 0.950 . S
C779 C778 1.327 . S
C779 C783 1.429 . S
C780 C763 1.574 . S
C780 H774 0.949 . S
C780 C784 1.368 . S
C781 C762 1.429 . S
C781 C775 1.429 . S
C781 C782 1.523 . S
C782 C763 1.368 . S
C782 C776 1.368 . S
C782 C781 1.523 . S
C783 C767 1.429 . S
C783 C779 1.429 . S
C783 C784 1.523 . S
C784 C768 1.368 . S
C784 C780 1.368 . S
C784 C783 1.523 . S
H785 C760 0.950 . S
H786 C762 0.950 . S
H787 C763 0.949 . S
H788 C765 0.950 . S
H789 C767 0.950 . S
C790 C791 1.349 . S
C790 C792 1.327 . S
C790 H815 0.950 . S
C791 C790 1.349 . S
C791 C807 1.349 . S
C792 C790 1.327 . S
C792 C811 1.429 . S
C792 H816 0.950 . S
C793 C810 1.574 . S
C793 C812 1.368 . S
C793 H817 0.949 . S
H794 C798 0.949 . S
C795 C796 1.349 . S
C795 C797 1.327 . S
C795 H818 0.950 . S
C796 C795 1.349 . S
C796 C808 1.349 . S
C797 C795 1.327 . S
C797 C813 1.429 . S
C797 H819 0.950 . S
C798 H794 0.949 . S
C798 C806 1.574 . S
C798 C814 1.368 . S
H799 C807 0.950 . S
H800 C805 0.950 . S
H801 C806 0.949 . S
H802 C808 0.950 . S
H803 C809 0.950 . S
H804 C810 0.949 . S
C805 H800 0.950 . S
C805 C807 1.327 . S
C805 C811 1.429 . S
C806 C798 1.574 . S
C806 H801 0.949 . S
C806 C812 1.368 . S
C807 C791 1.349 . S
C807 H799 0.950 . S
C807 C805 1.327 . S
C808 C796 1.349 . S
C808 H802 0.950 . S
C808 C809 1.327 . S
C809 H803 0.950 . S
C809 C808 1.327 . S
C809 C813 1.429 . S
C810 C793 1.574 . S
C810 H804 0.949 . S
C810 C814 1.368 . S
C811 C792 1.429 . S
C811 C805 1.429 . S
C811 C812 1.523 . S
C812 C793 1.368 . S
C812 C806 1.368 . S
C812 C811 1.523 . S
C813 C797 1.429 . S
C813 C809 1.429 . S
C813 C814 1.523 . S
C814 C798 1.368 . S
C814 C810 1.368 . S
C814 C813 1.523 . S
H815 C790 0.950 . S
H816 C792 0.950 . S
H817 C793 0.949 . S
H818 C795 0.950 . S
H819 C797 0.950 . S
C820 C821 1.349 . S
C820 C822 1.327 . S
C820 H845 0.950 . S
C821 C820 1.349 . S
C821 C837 1.349 . S
C822 C820 1.327 . S
C822 C841 1.429 . S
C822 H846 0.950 . S
C823 C840 1.574 . S
C823 C842 1.368 . S
C823 H847 0.949 . S
H824 C828 0.949 . S
C825 C826 1.349 . S
C825 C827 1.327 . S
C825 H848 0.950 . S
C826 C825 1.349 . S
C826 C838 1.349 . S
C827 C825 1.327 . S
C827 C843 1.429 . S
C827 H849 0.950 . S
C828 H824 0.949 . S
C828 C836 1.574 . S
C828 C844 1.368 . S
H829 C837 0.950 . S
H830 C835 0.950 . S
H831 C836 0.949 . S
H832 C838 0.950 . S
H833 C839 0.950 . S
H834 C840 0.949 . S
C835 H830 0.950 . S
C835 C837 1.327 . S
C835 C841 1.429 . S
C836 C828 1.574 . S
C836 H831 0.949 . S
C836 C842 1.368 . S
C837 C821 1.349 . S
C837 H829 0.950 . S
C837 C835 1.327 . S
C838 C826 1.349 . S
C838 H832 0.950 . S
C838 C839 1.327 . S
C839 H833 0.950 . S
C839 C838 1.327 . S
C839 C843 1.429 . S
C840 C823 1.574 . S
C840 H834 0.949 . S
C840 C844 1.368 . S
C841 C822 1.429 . S
C841 C835 1.429 . S
C841 C842 1.523 . S
C842 C823 1.368 . S
C842 C836 1.368 . S
C842 C841 1.523 . S
C843 C827 1.429 . S
C843 C839 1.429 . S
C843 C844 1.523 . S
C844 C828 1.368 . S
C844 C840 1.368 . S
C844 C843 1.523 . S
H845 C820 0.950 . S
H846 C822 0.950 . S
H847 C823 0.949 . S
H848 C825 0.950 . S
H849 C827 0.950 . S
C850 C851 1.349 . S
C850 C852 1.327 . S
C850 H875 0.950 . S
C851 C850 1.349 . S
C851 C867 1.349 . S
C852 C850 1.327 . S
C852 C871 1.429 . S
C852 H876 0.950 . S
C853 C870 1.574 . S
C853 C872 1.368 . S
C853 H877 0.949 . S
H854 C858 0.949 . S
C855 C856 1.349 . S
C855 C857 1.327 . S
C855 H878 0.950 . S
C856 C855 1.349 . S
C856 C868 1.349 . S
C857 C855 1.327 . S
C857 C873 1.429 . S
C857 H879 0.950 . S
C858 H854 0.949 . S
C858 C866 1.574 . S
C858 C874 1.368 . S
H859 C867 0.950 . S
H860 C865 0.950 . S
H861 C866 0.949 . S
H862 C868 0.950 . S
H863 C869 0.950 . S
H864 C870 0.949 . S
C865 H860 0.950 . S
C865 C867 1.327 . S
C865 C871 1.429 . S
C866 C858 1.574 . S
C866 H861 0.949 . S
C866 C872 1.368 . S
C867 C851 1.349 . S
C867 H859 0.950 . S
C867 C865 1.327 . S
C868 C856 1.349 . S
C868 H862 0.950 . S
C868 C869 1.327 . S
C869 H863 0.950 . S
C869 C868 1.327 . S
C869 C873 1.429 . S
C870 C853 1.574 . S
C870 H864 0.949 . S
C870 C874 1.368 . S
C871 C852 1.429 . S
C871 C865 1.429 . S
C871 C872 1.523 . S
C872 C853 1.368 . S
C872 C866 1.368 . S
C872 C871 1.523 . S
C873 C857 1.429 . S
C873 C869 1.429 . S
C873 C874 1.523 . S
C874 C858 1.368 . S
C874 C870 1.368 . S
C874 C873 1.523 . S
H875 C850 0.950 . S
H876 C852 0.950 . S
H877 C853 0.949 . S
H878 C855 0.950 . S
H879 C857 0.950 . S
C880 C881 1.349 . S
C880 C882 1.327 . S
C880 H905 0.950 . S
C881 C880 1.349 . S
C881 C897 1.349 . S
C882 C880 1.327 . S
C882 C901 1.429 . S
C882 H906 0.950 . S
C883 C900 1.574 . S
C883 C902 1.368 . S
C883 H907 0.949 . S
H884 C888 0.949 . S
C885 C886 1.349 . S
C885 C887 1.327 . S
C885 H908 0.950 . S
C886 C885 1.349 . S
C886 C898 1.349 . S
C887 C885 1.327 . S
C887 C903 1.429 . S
C887 H909 0.950 . S
C888 H884 0.949 . S
C888 C896 1.574 . S
C888 C904 1.368 . S
H889 C897 0.950 . S
H890 C895 0.950 . S
H891 C896 0.949 . S
H892 C898 0.950 . S
H893 C899 0.950 . S
H894 C900 0.949 . S
C895 H890 0.950 . S
C895 C897 1.327 . S
C895 C901 1.429 . S
C896 C888 1.574 . S
C896 H891 0.949 . S
C896 C902 1.368 . S
C897 C881 1.349 . S
C897 H889 0.950 . S
C897 C895 1.327 . S
C898 C886 1.349 . S
C898 H892 0.950 . S
C898 C899 1.327 . S
C899 H893 0.950 . S
C899 C898 1.327 . S
C899 C903 1.429 . S
C900 C883 1.574 . S
C900 H894 0.949 . S
C900 C904 1.368 . S
C901 C882 1.429 . S
C901 C895 1.429 . S
C901 C902 1.523 . S
C902 C883 1.368 . S
C902 C896 1.368 . S
C902 C901 1.523 . S
C903 C887 1.429 . S
C903 C899 1.429 . S
C903 C904 1.523 . S
C904 C888 1.368 . S
C904 C900 1.368 . S
C904 C903 1.523 . S
H905 C880 0.950 . S
H906 C882 0.950 . S
H907 C883 0.949 . S
H908 C885 0.950 . S
H909 C887 0.950 . S
C910 C911 1.349 . S
C910 C912 1.327 . S
C910 H935 0.950 . S
C911 C910 1.349 . S
C911 C927 1.349 . S
C912 C910 1.327 . S
C912 C931 1.429 . S
C912 H936 0.950 . S
C913 C930 1.574 . S
C913 C932 1.368 . S
C913 H937 0.949 . S
H914 C918 0.949 . S
C915 C916 1.349 . S
C915 C917 1.327 . S
C915 H938 0.950 . S
C916 C915 1.349 . S
C916 C928 1.349 . S
C917 C915 1.327 . S
C917 C933 1.429 . S
C917 H939 0.950 . S
C918 H914 0.949 . S
C918 C926 1.574 . S
C918 C934 1.368 . S
H919 C927 0.950 . S
H920 C925 0.950 . S
H921 C926 0.949 . S
H922 C928 0.950 . S
H923 C929 0.950 . S
H924 C930 0.949 . S
C925 H920 0.950 . S
C925 C927 1.327 . S
C925 C931 1.429 . S
C926 C918 1.574 . S
C926 H921 0.949 . S
C926 C932 1.368 . S
C927 C911 1.349 . S
C927 H919 0.950 . S
C927 C925 1.327 . S
C928 C916 1.349 . S
C928 H922 0.950 . S
C928 C929 1.327 . S
C929 H923 0.950 . S
C929 C928 1.327 . S
C929 C933 1.429 . S
C930 C913 1.574 . S
C930 H924 0.949 . S
C930 C934 1.368 . S
C931 C912 1.429 . S
C931 C925 1.429 . S
C931 C932 1.523 . S
C932 C913 1.368 . S
C932 C926 1.368 . S
C932 C931 1.523 . S
C933 C917 1.429 . S
C933 C929 1.429 . S
C933 C934 1.523 . S
C934 C918 1.368 . S
C934 C930 1.368 . S
C934 C933 1.523 . S
H935 C910 0.950 . S
H936 C912 0.950 . S
H937 C913 0.949 . S
H938 C915 0.950 . S
H939 C917 0.950 . S
C940 C941 1.349 . S
C940 C942 1.327 . S
C940 H965 0.950 . S
C941 C940 1.349 . S
C941 C957 1.349 . S
C942 C940 1.327 . S
C942 C961 1.429 . S
C942 H966 0.950 . S
C943 C960 1.574 . S
C943 C962 1.368 . S
C943 H967 0.949 . S
H944 C948 0.949 . S
C945 C946 1.349 . S
C945 C947 1.327 . S
C945 H968 0.950 . S
C946 C945 1.349 . S
C946 C958 1.349 . S
C947 C945 1.327 . S
C947 C963 1.429 . S
C947 H969 0.950 . S
C948 H944 0.949 . S
C948 C956 1.574 . S
C948 C964 1.368 . S
H949 C957 0.950 . S
H950 C955 0.950 . S
H951 C956 0.949 . S
H952 C958 0.950 . S
H953 C959 0.950 . S
H954 C960 0.949 . S
C955 H950 0.950 . S
C955 C957 1.327 . S
C955 C961 1.429 . S
C956 C948 1.574 . S
C956 H951 0.949 . S
C956 C962 1.368 . S
C957 C941 1.349 . S
C957 H949 0.950 . S
C957 C955 1.327 . S
C958 C946 1.349 . S
C958 H952 0.950 . S
C958 C959 1.327 . S
C959 H953 0.950 . S
C959 C958 1.327 . S
C959 C963 1.429 . S
C960 C943 1.574 . S
C960 H954 0.949 . S
C960 C964 1.368 . S
C961 C942 1.429 . S
C961 C955 1.429 . S
C961 C962 1.523 . S
C962 C943 1.368 . S
C962 C956 1.368 . S
C962 C961 1.523 . S
C963 C947 1.429 . S
C963 C959 1.429 . S
C963 C964 1.523 . S
C964 C948 1.368 . S
C964 C960 1.368 . S
C964 C963 1.523 . S
H965 C940 0.950 . S
H966 C942 0.950 . S
H967 C943 0.949 . S
H968 C945 0.950 . S
H969 C947 0.950 . S
C970 C971 1.349 . S
C970 C972 1.327 . S
C970 H995 0.950 . S
C971 C970 1.349 . S
C971 C987 1.349 . S
C972 C970 1.327 . S
C972 C991 1.429 . S
C972 H996 0.950 . S
C973 C990 1.574 . S
C973 C992 1.368 . S
C973 H997 0.949 . S
H974 C978 0.949 . S
C975 C976 1.349 . S
C975 C977 1.327 . S
C975 H998 0.950 . S
C976 C975 1.349 . S
C976 C988 1.349 . S
C977 C975 1.327 . S
C977 C993 1.429 . S
C977 H999 0.950 . S
C978 H974 0.949 . S
C978 C986 1.574 . S
C978 C994 1.368 . S
H979 C987 0.950 . S
H980 C985 0.950 . S
H981 C986 0.949 . S
H982 C988 0.950 . S
H983 C989 0.950 . S
H984 C990 0.949 . S
C985 H980 0.950 . S
C985 C987 1.327 . S
C985 C991 1.429 . S
C986 C978 1.574 . S
C986 H981 0.949 . S
C986 C992 1.368 . S
C987 C971 1.349 . S
C987 H979 0.950 . S
C987 C985 1.327 . S
C988 C976 1.349 . S
C988 H982 0.950 . S
C988 C989 1.327 . S
C989 H983 0.950 . S
C989 C988 1.327 . S
C989 C993 1.429 . S
C990 C973 1.574 . S
C990 H984 0.949 . S
C990 C994 1.368 . S
C991 C972 1.429 . S
C991 C985 1.429 . S
C991 C992 1.523 . S
C992 C973 1.368 . S
C992 C986 1.368 . S
C992 C991 1.523 . S
C993 C977 1.429 . S
C993 C989 1.429 . S
C993 C994 1.523 . S
C994 C978 1.368 . S
C994 C990 1.368 . S
C994 C993 1.523 . S
H995 C970 0.950 . S
H996 C972 0.950 . S
H997 C973 0.949 . S
H998 C975 0.950 . S
H999 C977 0.950 . S
C1000 C1001 1.349 . S
C1000 C1002 1.327 . S
C1000 H1025 0.950 . S
C1001 C1000 1.349 . S
C1001 C1017 1.349 . S
C1002 C1000 1.327 . S
C1002 C1021 1.429 . S
C1002 H1026 0.950 . S
C1003 C1020 1.574 . S
C1003 C1022 1.368 . S
C1003 H1027 0.949 . S
H1004 C1008 0.949 . S
C1005 C1006 1.349 . S
C1005 C1007 1.327 . S
C1005 H1028 0.950 . S
C1006 C1005 1.349 . S
C1006 C1018 1.349 . S
C1007 C1005 1.327 . S
C1007 C1023 1.429 . S
C1007 H1029 0.950 . S
C1008 H1004 0.949 . S
C1008 C1016 1.574 . S
C1008 C1024 1.368 . S
H1009 C1017 0.950 . S
H1010 C1015 0.950 . S
H1011 C1016 0.949 . S
H1012 C1018 0.950 . S
H1013 C1019 0.950 . S
H1014 C1020 0.949 . S
C1015 H1010 0.950 . S
C1015 C1017 1.327 . S
C1015 C1021 1.429 . S
C1016 C1008 1.574 . S
C1016 H1011 0.949 . S
C1016 C1022 1.368 . S
C1017 C1001 1.349 . S
C1017 H1009 0.950 . S
C1017 C1015 1.327 . S
C1018 C1006 1.349 . S
C1018 H1012 0.950 . S
C1018 C1019 1.327 . S
C1019 H1013 0.950 . S
C1019 C1018 1.327 . S
C1019 C1023 1.429 . S
C1020 C1003 1.574 . S
C1020 H1014 0.949 . S
C1020 C1024 1.368 . S
C1021 C1002 1.429 . S
C1021 C1015 1.429 . S
C1021 C1022 1.523 . S
C1022 C1003 1.368 . S
C1022 C1016 1.368 . S
C1022 C1021 1.523 . S
C1023 C1007 1.429 . S
C1023 C1019 1.429 . S
C1023 C1024 1.523 . S
C1024 C1008 1.368 . S
C1024 C1020 1.368 . S
C1024 C1023 1.523 . S
H1025 C1000 0.950 . S
H1026 C1002 0.950 . S
H1027 C1003 0.949 . S
H1028 C1005 0.950 . S
H1029 C1007 0.950 . S
C1030 C1031 1.349 . S
C1030 C1032 1.327 . S
C1030 H1055 0.950 . S
C1031 C1030 1.349 . S
C1031 C1047 1.349 . S
C1032 C1030 1.327 . S
C1032 C1051 1.429 . S
C1032 H1056 0.950 . S
C1033 C1050 1.574 . S
C1033 C1052 1.368 . S
C1033 H1057 0.949 . S
H1034 C1038 0.949 . S
C1035 C1036 1.349 . S
C1035 C1037 1.327 . S
C1035 H1058 0.950 . S
C1036 C1035 1.349 . S
C1036 C1048 1.349 . S
C1037 C1035 1.327 . S
C1037 C1053 1.429 . S
C1037 H1059 0.950 . S
C1038 H1034 0.949 . S
C1038 C1046 1.574 . S
C1038 C1054 1.368 . S
H1039 C1047 0.950 . S
H1040 C1045 0.950 . S
H1041 C1046 0.949 . S
H1042 C1048 0.950 . S
H1043 C1049 0.950 . S
H1044 C1050 0.949 . S
C1045 H1040 0.950 . S
C1045 C1047 1.327 . S
C1045 C1051 1.429 . S
C1046 C1038 1.574 . S
C1046 H1041 0.949 . S
C1046 C1052 1.368 . S
C1047 C1031 1.349 . S
C1047 H1039 0.950 . S
C1047 C1045 1.327 . S
C1048 C1036 1.349 . S
C1048 H1042 0.950 . S
C1048 C1049 1.327 . S
C1049 H1043 0.950 . S
C1049 C1048 1.327 . S
C1049 C1053 1.429 . S
C1050 C1033 1.574 . S
C1050 H1044 0.949 . S
C1050 C1054 1.368 . S
C1051 C1032 1.429 . S
C1051 C1045 1.429 . S
C1051 C1052 1.523 . S
C1052 C1033 1.368 . S
C1052 C1046 1.368 . S
C1052 C1051 1.523 . S
C1053 C1037 1.429 . S
C1053 C1049 1.429 . S
C1053 C1054 1.523 . S
C1054 C1038 1.368 . S
C1054 C1050 1.368 . S
C1054 C1053 1.523 . S
H1055 C1030 0.950 . S
H1056 C1032 0.950 . S
H1057 C1033 0.949 . S
H1058 C1035 0.950 . S
H1059 C1037 0.950 . S
C1060 C1061 1.349 . S
C1060 C1062 1.327 . S
C1060 H1085 0.950 . S
C1061 C1060 1.349 . S
C1061 C1077 1.349 . S
C1062 C1060 1.327 . S
C1062 C1081 1.429 . S
C1062 H1086 0.950 . S
C1063 C1080 1.574 . S
C1063 C1082 1.368 . S
C1063 H1087 0.949 . S
H1064 C1068 0.949 . S
C1065 C1066 1.349 . S
C1065 C1067 1.327 . S
C1065 H1088 0.950 . S
C1066 C1065 1.349 . S
C1066 C1078 1.349 . S
C1067 C1065 1.327 . S
C1067 C1083 1.429 . S
C1067 H1089 0.950 . S
C1068 H1064 0.949 . S
C1068 C1076 1.574 . S
C1068 C1084 1.368 . S
H1069 C1077 0.950 . S
H1070 C1075 0.950 . S
H1071 C1076 0.949 . S
H1072 C1078 0.950 . S
H1073 C1079 0.950 . S
H1074 C1080 0.949 . S
C1075 H1070 0.950 . S
C1075 C1077 1.327 . S
C1075 C1081 1.429 . S
C1076 C1068 1.574 . S
C1076 H1071 0.949 . S
C1076 C1082 1.368 . S
C1077 C1061 1.349 . S
C1077 H1069 0.950 . S
C1077 C1075 1.327 . S
C1078 C1066 1.349 . S
C1078 H1072 0.950 . S
C1078 C1079 1.327 . S
C1079 H1073 0.950 . S
C1079 C1078 1.327 . S
C1079 C1083 1.429 . S
C1080 C1063 1.574 . S
C1080 H1074 0.949 . S
C1080 C1084 1.368 . S
C1081 C1062 1.429 . S
C1081 C1075 1.429 . S
C1081 C1082 1.523 . S
C1082 C1063 1.368 . S
C1082 C1076 1.368 . S
C1082 C1081 1.523 . S
C1083 C1067 1.429 . S
C1083 C1079 1.429 . S
C1083 C1084 1.523 . S
C1084 C1068 1.368 . S
C1084 C1080 1.368 . S
C1084 C1083 1.523 . S
H1085 C1060 0.950 . S
H1086 C1062 0.950 . S
H1087 C1063 0.949 . S
H1088 C1065 0.950 . S
H1089 C1067 0.950 . S
C1090 C1091 1.349 . S
C1090 C1092 1.327 . S
C1090 H1115 0.950 . S
C1091 C1090 1.349 . S
C1091 C1107 1.349 . S
C1092 C1090 1.327 . S
C1092 C1111 1.429 . S
C1092 H1116 0.950 . S
C1093 C1110 1.574 . S
C1093 C1112 1.368 . S
C1093 H1117 0.949 . S
H1094 C1098 0.949 . S
C1095 C1096 1.349 . S
C1095 C1097 1.327 . S
C1095 H1118 0.950 . S
C1096 C1095 1.349 . S
C1096 C1108 1.349 . S
C1097 C1095 1.327 . S
C1097 C1113 1.429 . S
C1097 H1119 0.950 . S
C1098 H1094 0.949 . S
C1098 C1106 1.574 . S
C1098 C1114 1.368 . S
H1099 C1107 0.950 . S
H1100 C1105 0.950 . S
H1101 C1106 0.949 . S
H1102 C1108 0.950 . S
H1103 C1109 0.950 . S
H1104 C1110 0.949 . S
C1105 H1100 0.950 . S
C1105 C1107 1.327 . S
C1105 C1111 1.429 . S
C1106 C1098 1.574 . S
C1106 H1101 0.949 . S
C1106 C1112 1.368 . S
C1107 C1091 1.349 . S
C1107 H1099 0.950 . S
C1107 C1105 1.327 . S
C1108 C1096 1.349 . S
C1108 H1102 0.950 . S
C1108 C1109 1.327 . S
C1109 H1103 0.950 . S
C1109 C1108 1.327 . S
C1109 C1113 1.429 . S
C1110 C1093 1.574 . S
C1110 H1104 0.949 . S
C1110 C1114 1.368 . S
C1111 C1092 1.429 . S
C1111 C1105 1.429 . S
C1111 C1112 1.523 . S
C1112 C1093 1.368 . S
C1112 C1106 1.368 . S
C1112 C1111 1.523 . S
C1113 C1097 1.429 . S
C1113 C1109 1.429 . S
C1113 C1114 1.523 . S
C1114 C1098 1.368 . S
C1114 C1110 1.368 . S
C1114 C1113 1.523 . S
H1115 C1090 0.950 . S
H1116 C1092 0.950 . S
H1117 C1093 0.949 . S
H1118 C1095 0.950 . S
H1119 C1097 0.950 . S
C1120 C1121 1.349 . S
C1120 C1122 1.327 . S
C1120 H1145 0.950 . S
C1121 C1120 1.349 . S
C1121 C1137 1.349 . S
C1122 C1120 1.327 . S
C1122 C1141 1.429 . S
C1122 H1146 0.950 . S
C1123 C1140 1.574 1_554 S
C1123 C1142 1.368 . S
C1123 H1147 0.949 . S
H1124 C1128 0.949 . S
C1125 C1126 1.349 . S
C1125 C1127 1.327 . S
C1125 H1148 0.950 . S
C1126 C1125 1.349 . S
C1126 C1138 1.349 . S
C1127 C1125 1.327 . S
C1127 C1143 1.429 . S
C1127 H1149 0.950 . S
C1128 H1124 0.949 . S
C1128 C1136 1.574 1_556 S
C1128 C1144 1.368 . S
H1129 C1137 0.950 . S
H1130 C1135 0.950 . S
H1131 C1136 0.949 . S
H1132 C1138 0.950 . S
H1133 C1139 0.950 . S
H1134 C1140 0.949 . S
C1135 H1130 0.950 . S
C1135 C1137 1.327 . S
C1135 C1141 1.429 . S
C1136 C1128 1.574 1_554 S
C1136 H1131 0.949 . S
C1136 C1142 1.368 . S
C1137 C1121 1.349 . S
C1137 H1129 0.950 . S
C1137 C1135 1.327 . S
C1138 C1126 1.349 . S
C1138 H1132 0.950 . S
C1138 C1139 1.327 . S
C1139 H1133 0.950 . S
C1139 C1138 1.327 . S
C1139 C1143 1.429 . S
C1140 C1123 1.574 1_556 S
C1140 H1134 0.949 . S
C1140 C1144 1.368 . S
C1141 C1122 1.429 . S
C1141 C1135 1.429 . S
C1141 C1142 1.523 . S
C1142 C1123 1.368 . S
C1142 C1136 1.368 . S
C1142 C1141 1.523 . S
C1143 C1127 1.429 . S
C1143 C1139 1.429 . S
C1143 C1144 1.523 . S
C1144 C1128 1.368 . S
C1144 C1140 1.368 . S
C1144 C1143 1.523 . S
H1145 C1120 0.950 . S
H1146 C1122 0.950 . S
H1147 C1123 0.949 . S
H1148 C1125 0.950 . S
H1149 C1127 0.950 . S
C1150 C1151 1.349 . S
C1150 C1152 1.327 . S
C1150 H1175 0.950 . S
C1151 C1150 1.349 . S
C1151 C1167 1.349 . S
C1152 C1150 1.327 . S
C1152 C1171 1.429 . S
C1152 H1176 0.950 . S
C1153 C1170 1.574 . S
C1153 C1172 1.368 . S
C1153 H1177 0.949 . S
H1154 C1158 0.949 . S
C1155 C1156 1.349 . S
C1155 C1157 1.327 . S
C1155 H1178 0.950 . S
C1156 C1155 1.349 . S
C1156 C1168 1.349 . S
C1157 C1155 1.327 . S
C1157 C1173 1.429 . S
C1157 H1179 0.950 . S
C1158 H1154 0.949 . S
C1158 C1166 1.574 . S
C1158 C1174 1.368 . S
H1159 C1167 0.950 . S
H1160 C1165 0.950 . S
H1161 C1166 0.949 . S
H1162 C1168 0.950 . S
H1163 C1169 0.950 . S
H1164 C1170 0.949 . S
C1165 H1160 0.950 . S
C1165 C1167 1.327 . S
C1165 C1171 1.429 . S
C1166 C1158 1.574 . S
C1166 H1161 0.949 . S
C1166 C1172 1.368 . S
C1167 C1151 1.349 . S
C1167 H1159 0.950 . S
C1167 C1165 1.327 . S
C1168 C1156 1.349 . S
C1168 H1162 0.950 . S
C1168 C1169 1.327 . S
C1169 H1163 0.950 . S
C1169 C1168 1.327 . S
C1169 C1173 1.429 . S
C1170 C1153 1.574 . S
C1170 H1164 0.949 . S
C1170 C1174 1.368 . S
C1171 C1152 1.429 . S
C1171 C1165 1.429 . S
C1171 C1172 1.523 . S
C1172 C1153 1.368 . S
C1172 C1166 1.368 . S
C1172 C1171 1.523 . S
C1173 C1157 1.429 . S
C1173 C1169 1.429 . S
C1173 C1174 1.523 . S
C1174 C1158 1.368 . S
C1174 C1170 1.368 . S
C1174 C1173 1.523 . S
H1175 C1150 0.950 . S
H1176 C1152 0.950 . S
H1177 C1153 0.949 . S
H1178 C1155 0.950 . S
H1179 C1157 0.950 . S
C1180 C1181 1.349 . S
C1180 C1182 1.327 . S
C1180 H1205 0.950 . S
C1181 C1180 1.349 . S
C1181 C1197 1.349 . S
C1182 C1180 1.327 . S
C1182 C1201 1.429 . S
C1182 H1206 0.950 . S
C1183 C1200 1.574 . S
C1183 C1202 1.368 . S
C1183 H1207 0.949 . S
H1184 C1188 0.949 . S
C1185 C1186 1.349 . S
C1185 C1187 1.327 . S
C1185 H1208 0.950 . S
C1186 C1185 1.349 . S
C1186 C1198 1.349 . S
C1187 C1185 1.327 . S
C1187 C1203 1.429 . S
C1187 H1209 0.950 . S
C1188 H1184 0.949 . S
C1188 C1196 1.574 . S
C1188 C1204 1.368 . S
H1189 C1197 0.950 . S
H1190 C1195 0.950 . S
H1191 C1196 0.949 . S
H1192 C1198 0.950 . S
H1193 C1199 0.950 . S
H1194 C1200 0.949 . S
C1195 H1190 0.950 . S
C1195 C1197 1.327 . S
C1195 C1201 1.429 . S
C1196 C1188 1.574 . S
C1196 H1191 0.949 . S
C1196 C1202 1.368 . S
C1197 C1181 1.349 . S
C1197 H1189 0.950 . S
C1197 C1195 1.327 . S
C1198 C1186 1.349 . S
C1198 H1192 0.950 . S
C1198 C1199 1.327 . S
C1199 H1193 0.950 . S
C1199 C1198 1.327 . S
C1199 C1203 1.429 . S
C1200 C1183 1.574 . S
C1200 H1194 0.949 . S
C1200 C1204 1.368 . S
C1201 C1182 1.429 . S
C1201 C1195 1.429 . S
C1201 C1202 1.523 . S
C1202 C1183 1.368 . S
C1202 C1196 1.368 . S
C1202 C1201 1.523 . S
C1203 C1187 1.429 . S
C1203 C1199 1.429 . S
C1203 C1204 1.523 . S
C1204 C1188 1.368 . S
C1204 C1200 1.368 . S
C1204 C1203 1.523 . S
H1205 C1180 0.950 . S
H1206 C1182 0.950 . S
H1207 C1183 0.949 . S
H1208 C1185 0.950 . S
H1209 C1187 0.950 . S
C1210 C1211 1.349 . S
C1210 C1212 1.327 . S
C1210 H1235 0.950 . S
C1211 C1210 1.349 . S
C1211 C1227 1.349 . S
C1212 C1210 1.327 . S
C1212 C1231 1.429 . S
C1212 H1236 0.950 . S
C1213 C1230 1.574 . S
C1213 C1232 1.368 . S
C1213 H1237 0.949 . S
H1214 C1218 0.949 . S
C1215 C1216 1.349 . S
C1215 C1217 1.327 . S
C1215 H1238 0.950 . S
C1216 C1215 1.349 . S
C1216 C1228 1.349 . S
C1217 C1215 1.327 . S
C1217 C1233 1.429 . S
C1217 H1239 0.950 . S
C1218 H1214 0.949 . S
C1218 C1226 1.574 . S
C1218 C1234 1.368 . S
H1219 C1227 0.950 . S
H1220 C1225 0.950 . S
H1221 C1226 0.949 . S
H1222 C1228 0.950 . S
H1223 C1229 0.950 . S
H1224 C1230 0.949 . S
C1225 H1220 0.950 . S
C1225 C1227 1.327 . S
C1225 C1231 1.429 . S
C1226 C1218 1.574 . S
C1226 H1221 0.949 . S
C1226 C1232 1.368 . S
C1227 C1211 1.349 . S
C1227 H1219 0.950 . S
C1227 C1225 1.327 . S
C1228 C1216 1.349 . S
C1228 H1222 0.950 . S
C1228 C1229 1.327 . S
C1229 H1223 0.950 . S
C1229 C1228 1.327 . S
C1229 C1233 1.429 . S
C1230 C1213 1.574 . S
C1230 H1224 0.949 . S
C1230 C1234 1.368 . S
C1231 C1212 1.429 . S
C1231 C1225 1.429 . S
C1231 C1232 1.523 . S
C1232 C1213 1.368 . S
C1232 C1226 1.368 . S
C1232 C1231 1.523 . S
C1233 C1217 1.429 . S
C1233 C1229 1.429 . S
C1233 C1234 1.523 . S
C1234 C1218 1.368 . S
C1234 C1230 1.368 . S
C1234 C1233 1.523 . S
H1235 C1210 0.950 . S
H1236 C1212 0.950 . S
H1237 C1213 0.949 . S
H1238 C1215 0.950 . S
H1239 C1217 0.950 . S
C1240 C1241 1.349 . S
C1240 C1242 1.327 . S
C1240 H1265 0.950 . S
C1241 C1240 1.349 . S
C1241 C1257 1.349 . S
C1242 C1240 1.327 . S
C1242 C1261 1.429 . S
C1242 H1266 0.950 . S
C1243 C1260 1.574 . S
C1243 C1262 1.368 . S
C1243 H1267 0.949 . S
H1244 C1248 0.949 . S
C1245 C1246 1.349 . S
C1245 C1247 1.327 . S
C1245 H1268 0.950 . S
C1246 C1245 1.349 . S
C1246 C1258 1.349 . S
C1247 C1245 1.327 . S
C1247 C1263 1.429 . S
C1247 H1269 0.950 . S
C1248 H1244 0.949 . S
C1248 C1256 1.574 . S
C1248 C1264 1.368 . S
H1249 C1257 0.950 . S
H1250 C1255 0.950 . S
H1251 C1256 0.949 . S
H1252 C1258 0.950 . S
H1253 C1259 0.950 . S
H1254 C1260 0.949 . S
C1255 H1250 0.950 . S
C1255 C1257 1.327 . S
C1255 C1261 1.429 . S
C1256 C1248 1.574 . S
C1256 H1251 0.949 . S
C1256 C1262 1.368 . S
C1257 C1241 1.349 . S
C1257 H1249 0.950 . S
C1257 C1255 1.327 . S
C1258 C1246 1.349 . S
C1258 H1252 0.950 . S
C1258 C1259 1.327 . S
C1259 H1253 0.950 . S
C1259 C1258 1.327 . S
C1259 C1263 1.429 . S
C1260 C1243 1.574 . S
C1260 H1254 0.949 . S
C1260 C1264 1.368 . S
C1261 C1242 1.429 . S
C1261 C1255 1.429 . S
C1261 C1262 1.523 . S
C1262 C1243 1.368 . S
C1262 C1256 1.368 . S
C1262 C1261 1.523 . S
C1263 C1247 1.429 . S
C1263 C1259 1.429 . S
C1263 C1264 1.523 . S
C1264 C1248 1.368 . S
C1264 C1260 1.368 . S
C1264 C1263 1.523 . S
H1265 C1240 0.950 . S
H1266 C1242 0.950 . S
H1267 C1243 0.949 . S
H1268 C1245 0.950 . S
H1269 C1247 0.950 . S
C1270 C1271 1.349 . S
C1270 C1272 1.327 . S
C1270 H1295 0.950 . S
C1271 C1270 1.349 . S
C1271 C1287 1.349 . S
C1272 C1270 1.327 . S
C1272 C1291 1.429 . S
C1272 H1296 0.950 . S
C1273 C1290 1.574 . S
C1273 C1292 1.368 . S
C1273 H1297 0.949 . S
H1274 C1278 0.949 . S
C1275 C1276 1.349 . S
C1275 C1277 1.327 . S
C1275 H1298 0.950 . S
C1276 C1275 1.349 . S
C1276 C1288 1.349 . S
C1277 C1275 1.327 . S
C1277 C1293 1.429 . S
C1277 H1299 0.950 . S
C1278 H1274 0.949 . S
C1278 C1286 1.574 . S
C1278 C1294 1.368 . S
H1279 C1287 0.950 . S
H1280 C1285 0.950 . S
H1281 C1286 0.949 . S
H1282 C1288 0.950 . S
H1283 C1289 0.950 . S
H1284 C1290 0.949 . S
C1285 H1280 0.950 . S
C1285 C1287 1.327 . S
C1285 C1291 1.429 . S
C1286 C1278 1.574 . S
C1286 H1281 0.949 . S
C1286 C1292 1.368 . S
C1287 C1271 1.349 . S
C1287 H1279 0.950 . S
C1287 C1285 1.327 . S
C1288 C1276 1.349 . S
C1288 H1282 0.950 . S
C1288 C1289 1.327 . S
C1289 H1283 0.950 . S
C1289 C1288 1.327 . S
C1289 C1293 1.429 . S
C1290 C1273 1.574 . S
C1290 H1284 0.949 . S
C1290 C1294 1.368 . S
C1291 C1272 1.429 . S
C1291 C1285 1.429 . S
C1291 C1292 1.523 . S
C1292 C1273 1.368 . S
C1292 C1286 1.368 . S
C1292 C1291 1.523 . S
C1293 C1277 1.429 . S
C1293 C1289 1.429 . S
C1293 C1294 1.523 . S
C1294 C1278 1.368 . S
C1294 C1290 1.368 . S
C1294 C1293 1.523 . S
H1295 C1270 0.950 . S
H1296 C1272 0.950 . S
H1297 C1273 0.949 . S
H1298 C1275 0.950 . S
H1299 C1277 0.950 . S
C1300 C1301 1.349 . S
C1300 C1302 1.327 . S
C1300 H1325 0.950 . S
C1301 C1300 1.349 . S
C1301 C1317 1.349 . S
C1302 C1300 1.327 . S
C1302 C1321 1.429 . S
C1302 H1326 0.950 1_565 S
C1303 C1320 1.574 . S
C1303 C1322 1.368 . S
C1303 H1327 0.949 . S
H1304 C1308 0.949 . S
C1305 C1306 1.349 . S
C1305 C1307 1.327 . S
C1305 H1328 0.950 . S
C1306 C1305 1.349 . S
C1306 C1318 1.349 . S
C1307 C1305 1.327 . S
C1307 C1323 1.429 . S
C1307 H1329 0.950 1_545 S
C1308 H1304 0.949 . S
C1308 C1316 1.574 . S
C1308 C1324 1.368 . S
H1309 C1317 0.950 . S
H1310 C1315 0.950 . S
H1311 C1316 0.949 . S
H1312 C1318 0.950 . S
H1313 C1319 0.950 . S
H1314 C1320 0.949 . S
C1315 H1310 0.950 . S
C1315 C1317 1.327 . S
C1315 C1321 1.429 . S
C1316 C1308 1.574 . S
C1316 H1311 0.949 . S
C1316 C1322 1.368 1_545 S
C1317 C1301 1.349 . S
C1317 H1309 0.950 . S
C1317 C1315 1.327 . S
C1318 C1306 1.349 . S
C1318 H1312 0.950 . S
C1318 C1319 1.327 . S
C1319 H1313 0.950 . S
C1319 C1318 1.327 . S
C1319 C1323 1.429 . S
C1320 C1303 1.574 . S
C1320 H1314 0.949 . S
C1320 C1324 1.368 1_565 S
C1321 C1302 1.429 . S
C1321 C1315 1.429 . S
C1321 C1322 1.523 . S
C1322 C1303 1.368 . S
C1322 C1316 1.368 1_565 S
C1322 C1321 1.523 . S
C1323 C1307 1.429 . S
C1323 C1319 1.429 . S
C1323 C1324 1.523 . S
C1324 C1308 1.368 . S
C1324 C1320 1.368 1_545 S
C1324 C1323 1.523 . S
H1325 C1300 0.950 . S
H1326 C1302 0.950 1_545 S
H1327 C1303 0.949 . S
H1328 C1305 0.950 . S
H1329 C1307 0.950 1_565 S
C1330 C1331 1.349 . S
C1330 C1332 1.327 . S
C1330 H1355 0.950 . S
C1331 C1330 1.349 . S
C1331 C1347 1.349 . S
C1332 C1330 1.327 . S
C1332 C1351 1.429 . S
C1332 H1356 0.950 . S
C1333 C1350 1.567 . S
C1333 C1352 1.368 1_565 S
C1333 H1357 0.949 . S
H1334 C1338 0.949 . S
C1335 C1336 1.349 . S
C1335 C1337 1.327 . S
C1335 H1358 0.950 . S
C1336 C1335 1.349 . S
C1336 C1348 1.349 . S
C1337 C1335 1.327 . S
C1337 C1353 1.429 . S
C1337 H1359 0.950 . S
C1338 H1334 0.949 . S
C1338 C1346 1.574 1_554 S
C1338 C1354 1.368 1_545 S
H1339 C1347 0.950 . S
H1340 C1345 0.889 1_565 S
H1341 C1346 0.949 . S
H1342 C1348 0.950 . S
H1343 C1349 0.890 1_545 S
H1344 C1350 0.950 1_554 S
C1345 H1340 0.889 1_545 S
C1345 C1347 1.327 . S
C1345 C1351 1.429 . S
C1346 C1338 1.574 1_556 S
C1346 H1341 0.949 . S
C1346 C1352 1.368 . S
C1347 C1331 1.349 . S
C1347 H1339 0.950 . S
C1347 C1345 1.327 . S
C1348 C1336 1.349 . S
C1348 H1342 0.950 . S
C1348 C1349 1.327 . S
C1349 H1343 0.890 1_565 S
C1349 C1348 1.327 . S
C1349 C1353 1.429 . S
C1350 C1333 1.567 . S
C1350 H1344 0.950 1_556 S
C1350 C1354 1.374 1_556 S
C1351 C1332 1.429 . S
C1351 C1345 1.429 . S
C1351 C1352 1.523 . S
C1352 C1333 1.368 1_545 S
C1352 C1346 1.368 . S
C1352 C1351 1.523 . S
C1353 C1337 1.429 . S
C1353 C1349 1.429 . S
C1353 C1354 1.523 . S
C1354 C1338 1.368 1_565 S
C1354 C1350 1.374 1_554 S
C1354 C1353 1.523 . S
H1355 C1330 0.950 . S
H1356 C1332 0.950 . S
H1357 C1333 0.949 . S
H1358 C1335 0.950 . S
H1359 C1337 0.950 . S
C641 C381 2.235 . S
C646 C21 2.235 . S
C671 C42 2.081 . S
C676 C581 2.203 . S
C701 C341 2.145 . S
C706 C82 2.027 . S
C731 C141 2.180 . S
C736 C602 2.134 . S
C761 C181 2.202 . S
C766 C402 2.080 . S
C791 C522 2.027 . S
C796 C221 2.145 . S
C821 C461 2.180 . S
C826 C242 2.059 . S
C851 C501 2.235 . S
C856 C301 2.235 . S
C881 C162 2.145 1_655 S
C886 C122 2.146 . S
C911 C482 2.179 . S
C916 C322 2.180 . S
C941 C261 2.122 . S
C946 C61 2.122 . S
C971 C541 2.095 . S
C976 C362 2.223 . S
C1001 C2 2.178 1_655 S
C1006 C202 2.180 . S
C1031 C621 2.123 . S
C1036 C421 2.122 . S
C1061 C282 2.223 . S
C1066 C101 2.095 . S
C1091 C442 2.146 . S
C1096 C562 2.146 . S
C1121 C15 2.189 . S
C1126 C175 2.191 . S
C1151 C55 2.169 . S
C1156 C215 2.187 . S
C1181 C95 2.173 . S
C1186 C255 2.170 . S
C1211 C135 2.187 . S
C1216 C295 2.183 . S
C1241 C335 2.186 . S
C1246 C415 2.168 . S
C1271 C455 2.187 . S
C1276 C375 2.183 . S
C1301 C575 2.191 . S
C1306 C495 2.189 . S
C1331 C615 2.170 . S
C1336 C535 2.173 . S
