# Generated by pormake.
# Topology whv, (6)-cn, num edge types: 1
# Building blocks:
#     Node 0, Type 0, BuildingBlock: OJICUG_clean_sbu_0, # of connection points: 6
#     Node 1, Type 0, BuildingBlock: OJICUG_clean_sbu_0, # of connection points: 6
#     Node 2, Type 0, BuildingBlock: OJICUG_clean_sbu_0, # of connection points: 6
#     Node 3, Type 0, BuildingBlock: OJICUG_clean_sbu_0, # of connection points: 6
#     Node 4, Type 0, BuildingBlock: OJICUG_clean_sbu_0, # of connection points: 6
#     Node 5, Type 0, BuildingBlock: OJICUG_clean_sbu_0, # of connection points: 6
#     Node 6, Type 0, BuildingBlock: OJICUG_clean_sbu_0, # of connection points: 6
#     Node 7, Type 0, BuildingBlock: OJICUG_clean_sbu_0, # of connection points: 6
#     Node 8, Type 0, BuildingBlock: OJICUG_clean_sbu_0, # of connection points: 6
#     Node 9, Type 0, BuildingBlock: OJICUG_clean_sbu_0, # of connection points: 6
#     Node 10, Type 0, BuildingBlock: OJICUG_clean_sbu_0, # of connection points: 6
#     Node 11, Type 0, BuildingBlock: OJICUG_clean_sbu_0, # of connection points: 6
#     Node 12, Type 0, BuildingBlock: OJICUG_clean_sbu_0, # of connection points: 6
#     Node 13, Type 0, BuildingBlock: OJICUG_clean_sbu_0, # of connection points: 6
#     Node 14, Type 0, BuildingBlock: OJICUG_clean_sbu_0, # of connection points: 6
#     Node 15, Type 0, BuildingBlock: OJICUG_clean_sbu_0, # of connection points: 6
#     Edge 16, Type (0, 0), BuildingBlock: CIFDUS_clean_linker_0, # of connection points: 2
#     Edge 17, Type (0, 0), BuildingBlock: CIFDUS_clean_linker_0, # of connection points: 2
#     Edge 18, Type (0, 0), BuildingBlock: CIFDUS_clean_linker_0, # of connection points: 2
#     Edge 19, Type (0, 0), BuildingBlock: CIFDUS_clean_linker_0, # of connection points: 2
#     Edge 20, Type (0, 0), BuildingBlock: CIFDUS_clean_linker_0, # of connection points: 2
#     Edge 21, Type (0, 0), BuildingBlock: CIFDUS_clean_linker_0, # of connection points: 2
#     Edge 22, Type (0, 0), BuildingBlock: CIFDUS_clean_linker_0, # of connection points: 2
#     Edge 23, Type (0, 0), BuildingBlock: CIFDUS_clean_linker_0, # of connection points: 2
#     Edge 24, Type (0, 0), BuildingBlock: CIFDUS_clean_linker_0, # of connection points: 2
#     Edge 25, Type (0, 0), BuildingBlock: CIFDUS_clean_linker_0, # of connection points: 2
#     Edge 26, Type (0, 0), BuildingBlock: CIFDUS_clean_linker_0, # of connection points: 2
#     Edge 27, Type (0, 0), BuildingBlock: CIFDUS_clean_linker_0, # of connection points: 2
#     Edge 28, Type (0, 0), BuildingBlock: CIFDUS_clean_linker_0, # of connection points: 2
#     Edge 29, Type (0, 0), BuildingBlock: CIFDUS_clean_linker_0, # of connection points: 2
#     Edge 30, Type (0, 0), BuildingBlock: CIFDUS_clean_linker_0, # of connection points: 2
#     Edge 31, Type (0, 0), BuildingBlock: CIFDUS_clean_linker_0, # of connection points: 2
#     Edge 32, Type (0, 0), BuildingBlock: CIFDUS_clean_linker_0, # of connection points: 2
#     Edge 33, Type (0, 0), BuildingBlock: CIFDUS_clean_linker_0, # of connection points: 2
#     Edge 34, Type (0, 0), BuildingBlock: CIFDUS_clean_linker_0, # of connection points: 2
#     Edge 35, Type (0, 0), BuildingBlock: CIFDUS_clean_linker_0, # of connection points: 2
#     Edge 36, Type (0, 0), BuildingBlock: CIFDUS_clean_linker_0, # of connection points: 2
#     Edge 37, Type (0, 0), BuildingBlock: CIFDUS_clean_linker_0, # of connection points: 2
#     Edge 38, Type (0, 0), BuildingBlock: CIFDUS_clean_linker_0, # of connection points: 2
#     Edge 39, Type (0, 0), BuildingBlock: CIFDUS_clean_linker_0, # of connection points: 2
#     Edge 40, Type (0, 0), BuildingBlock: CIFDUS_clean_linker_0, # of connection points: 2
#     Edge 41, Type (0, 0), BuildingBlock: CIFDUS_clean_linker_0, # of connection points: 2
#     Edge 42, Type (0, 0), BuildingBlock: CIFDUS_clean_linker_0, # of connection points: 2
#     Edge 43, Type (0, 0), BuildingBlock: CIFDUS_clean_linker_0, # of connection points: 2
#     Edge 44, Type (0, 0), BuildingBlock: CIFDUS_clean_linker_0, # of connection points: 2
#     Edge 45, Type (0, 0), BuildingBlock: CIFDUS_clean_linker_0, # of connection points: 2
#     Edge 46, Type (0, 0), BuildingBlock: CIFDUS_clean_linker_0, # of connection points: 2
#     Edge 47, Type (0, 0), BuildingBlock: CIFDUS_clean_linker_0, # of connection points: 2
#     Edge 48, Type (0, 0), BuildingBlock: CIFDUS_clean_linker_0, # of connection points: 2
#     Edge 49, Type (0, 0), BuildingBlock: CIFDUS_clean_linker_0, # of connection points: 2
#     Edge 50, Type (0, 0), BuildingBlock: CIFDUS_clean_linker_0, # of connection points: 2
#     Edge 51, Type (0, 0), BuildingBlock: CIFDUS_clean_linker_0, # of connection points: 2
#     Edge 52, Type (0, 0), BuildingBlock: CIFDUS_clean_linker_0, # of connection points: 2
#     Edge 53, Type (0, 0), BuildingBlock: CIFDUS_clean_linker_0, # of connection points: 2
#     Edge 54, Type (0, 0), BuildingBlock: CIFDUS_clean_linker_0, # of connection points: 2
#     Edge 55, Type (0, 0), BuildingBlock: CIFDUS_clean_linker_0, # of connection points: 2
#     Edge 56, Type (0, 0), BuildingBlock: CIFDUS_clean_linker_0, # of connection points: 2
#     Edge 57, Type (0, 0), BuildingBlock: CIFDUS_clean_linker_0, # of connection points: 2
#     Edge 58, Type (0, 0), BuildingBlock: CIFDUS_clean_linker_0, # of connection points: 2
#     Edge 59, Type (0, 0), BuildingBlock: CIFDUS_clean_linker_0, # of connection points: 2
#     Edge 60, Type (0, 0), BuildingBlock: CIFDUS_clean_linker_0, # of connection points: 2
#     Edge 61, Type (0, 0), BuildingBlock: CIFDUS_clean_linker_0, # of connection points: 2
#     Edge 62, Type (0, 0), BuildingBlock: CIFDUS_clean_linker_0, # of connection points: 2
#     Edge 63, Type (0, 0), BuildingBlock: CIFDUS_clean_linker_0, # of connection points: 2
# Relax obj value: 0.290
# Max RMSD: 0.262
# Mean RMSD: 0.262
data_MOF--net-whv--node1-OJICUG_clean_sbu_0--edge1-CIFDUS_clean_linker_0
_symmetry_space_group_name_H-M    P1
_symmetry_Int_Tables_number       1
_symmetry_cell_setting            triclinic
loop_
_symmetry_equiv_pos_as_xyz
'x, y, z'
_cell_length_a     46.039053
_cell_length_b     45.979096
_cell_length_c     24.249516
_cell_angle_alpha  90.025794
_cell_angle_beta   89.978221
_cell_angle_gamma 90.303527
loop_
_atom_site_label
_atom_site_type_symbol
_atom_site_fract_x
_atom_site_fract_y
_atom_site_fract_z
_atom_type_partial_charge
Sc0 Sc 0.27625 0.21687 0.00943 0.0
Sc1 Sc 0.3009 0.15025 0.96752 0.0
Sc2 Sc 0.34143 0.19186 0.05934 0.0
O3 O 0.3063 0.18594 0.01264 0.0
C4 C 0.33412 0.25323 0.01121 0.0
C5 C 0.27949 0.20216 0.88821 0.0
C6 C 0.36673 0.16068 0.95087 0.0
C7 C 0.23804 0.15872 -0.00249 0.0
C8 C 0.2881 0.21583 0.13236 0.0
C9 C 0.32982 0.12663 0.08019 0.0
O10 O 0.30709 0.25232 0.02217 0.0
O11 O 0.28093 0.17489 0.89903 0.0
O12 O 0.37012 0.17086 -0.00046 0.0
O13 O 0.24076 0.18623 -0.00685 0.0
O14 O 0.31551 0.21338 0.12396 0.0
O15 O 0.32007 0.12269 0.03131 0.0
O16 O 0.26946 0.21224 0.09454 0.0
O17 O 0.25976 0.14239 0.00413 0.0
O18 O 0.33476 0.15163 0.10044 0.0
O19 O 0.28381 0.22144 0.92453 0.0
O20 O 0.35039 0.23143 0.01759 0.0
O21 O 0.34197 0.15608 0.92958 0.0
Sc22 Sc 0.54791 0.5921 0.30873 0.0
Sc23 Sc 0.58955 0.55102 0.21842 0.0
Sc24 Sc 0.52215 0.52708 0.25796 0.0
O25 O 0.5536 0.55686 0.26231 0.0
C26 C 0.52297 0.53868 0.38107 0.0
C27 C 0.61278 0.57972 0.33162 0.0
C28 C 0.5795 0.48826 0.24683 0.0
C29 C 0.58021 0.61703 0.201 0.0
C30 C 0.48668 0.58514 0.25965 0.0
C31 C 0.5379 0.53052 0.13752 0.0
O32 O 0.52592 0.56613 0.3729 0.0
O33 O 0.61693 0.56973 0.28302 0.0
O34 O 0.55213 0.49128 0.24144 0.0
O35 O 0.56948 0.62062 0.24916 0.0
O36 O 0.48716 0.55808 0.27055 0.0
O37 O 0.56506 0.53135 0.14924 0.0
O38 O 0.5087 0.6013 0.26623 0.0
O39 O 0.58508 0.59219 0.18037 0.0
O40 O 0.51846 0.53526 0.17319 0.0
O41 O 0.58778 0.58536 0.35077 0.0
O42 O 0.52609 0.52001 0.34309 0.0
O43 O 0.59604 0.50979 0.25539 0.0
Sc44 Sc 0.14776 0.79872 0.55998 0.0
Sc45 Sc 0.18809 0.84022 0.46773 0.0
Sc46 Sc 0.21307 0.77387 0.51022 0.0
O47 O 0.18287 0.80464 0.51316 0.0
C48 C 0.20112 0.77506 0.63312 0.0
C49 C 0.15911 0.86403 0.58029 0.0
C50 C 0.25097 0.83219 0.49793 0.0
C51 C 0.12233 0.82952 0.45131 0.0
C52 C 0.15531 0.73731 0.51214 0.0
C53 C 0.20988 0.78822 0.38883 0.0
O54 O 0.17371 0.77736 0.62467 0.0
O55 O 0.16876 0.86786 0.5313 0.0
O56 O 0.24842 0.80465 0.49385 0.0
O57 O 0.11899 0.81956 0.50014 0.0
O58 O 0.18234 0.73832 0.52308 0.0
O59 O 0.20821 0.81551 0.39942 0.0
O60 O 0.13896 0.75906 0.51847 0.0
O61 O 0.14707 0.83402 0.42986 0.0
O62 O 0.2057 0.76901 0.42531 0.0
O63 O 0.15434 0.83906 0.60083 0.0
O64 O 0.21977 0.77876 0.59532 0.0
O65 O 0.22915 0.84842 0.50428 0.0
Sc66 Sc 0.96737 0.46356 0.75872 0.0
Sc67 Sc 0.90005 0.4395 0.71896 0.0
Sc68 Sc 0.94166 0.39848 0.80926 0.0
O69 O 0.93596 0.43372 0.76292 0.0
C70 C 0.0029 0.40555 0.76022 0.0
C71 C 0.95176 0.46006 0.6382 0.0
C72 C 0.90945 0.37348 0.70152 0.0
C73 C 0.90997 0.50231 0.74745 0.0
C74 C 0.9665 0.4519 0.88177 0.0
C75 C 0.87678 0.41078 0.8321 0.0
O76 O 0.00239 0.4326 0.77128 0.0
O77 O 0.92458 0.45917 0.64984 0.0
O78 O 0.92015 0.36991 0.74968 0.0
O79 O 0.93735 0.49933 0.74221 0.0
O80 O 0.96362 0.42446 0.87348 0.0
O81 O 0.87265 0.42077 0.78353 0.0
O82 O 0.96333 0.47059 0.84387 0.0
O83 O 0.89344 0.48075 0.75586 0.0
O84 O 0.90178 0.40516 0.85129 0.0
O85 O 0.97117 0.45542 0.67394 0.0
O86 O 0.9809 0.38935 0.76674 0.0
O87 O 0.90461 0.39832 0.68089 0.0
Sc88 Sc 0.71315 0.77371 0.01603 0.0
Sc89 Sc 0.68798 0.83982 0.05967 0.0
Sc90 Sc 0.64791 0.7988 0.96637 0.0
O91 O 0.68292 0.80446 0.01353 0.0
C92 C 0.70132 0.77533 0.89308 0.0
C93 C 0.75091 0.83208 0.02917 0.0
C94 C 0.65918 0.86415 0.94743 0.0
C95 C 0.70996 0.78757 0.13767 0.0
C96 C 0.65532 0.73722 0.01345 0.0
C97 C 0.62226 0.82906 0.07549 0.0
O98 O 0.71992 0.77889 0.93098 0.0
O99 O 0.72905 0.84831 0.02333 0.0
O100 O 0.65471 0.83928 0.92624 0.0
O101 O 0.70581 0.76848 0.10092 0.0
O102 O 0.63899 0.75899 0.0072 0.0
O103 O 0.64695 0.83325 0.09734 0.0
O104 O 0.68238 0.73822 0.00273 0.0
O105 O 0.70817 0.81488 0.12749 0.0
O106 O 0.61905 0.81947 0.02634 0.0
O107 O 0.74844 0.80451 0.03274 0.0
O108 O 0.6739 0.77762 0.90149 0.0
O109 O 0.66857 0.86773 -0.00334 0.0
Sc110 Sc 0.46727 0.46379 0.76745 0.0
Sc111 Sc 0.39997 0.43958 0.80712 0.0
Sc112 Sc 0.44167 0.39873 0.71654 0.0
O113 O 0.4359 0.43392 0.76308 0.0
C114 C 0.46648 0.45227 0.64433 0.0
C115 C 0.40981 0.50244 0.77895 0.0
C116 C 0.37677 0.41091 0.69382 0.0
C117 C 0.45162 0.46013 0.88797 0.0
C118 C 0.50288 0.40583 0.76566 0.0
C119 C 0.40947 0.37355 0.82414 0.0
O120 O 0.46328 0.47092 0.68233 0.0
O121 O 0.39328 0.48087 0.77052 0.0
O122 O 0.40178 0.40539 0.67456 0.0
O123 O 0.47105 0.45557 0.8522 0.0
O124 O 0.4809 0.38962 0.75902 0.0
O125 O 0.40461 0.39836 0.84494 0.0
O126 O 0.50234 0.43289 0.75474 0.0
O127 O 0.42445 0.45921 0.87633 0.0
O128 O 0.42017 0.37005 0.77594 0.0
O129 O 0.43719 0.49949 0.78411 0.0
O130 O 0.46361 0.42481 0.65247 0.0
O131 O 0.37262 0.42085 0.74246 0.0
Sc132 Sc 0.84132 0.19197 0.46595 0.0
Sc133 Sc 0.80093 0.15053 0.55818 0.0
Sc134 Sc 0.77619 0.21705 0.51613 0.0
O135 O 0.80625 0.18614 0.51287 0.0
C136 C 0.83406 0.25339 0.51395 0.0
C137 C 0.86675 0.16097 0.57445 0.0
C138 C 0.77949 0.20253 0.63738 0.0
C139 C 0.82971 0.12672 0.44547 0.0
C140 C 0.78791 0.21587 0.39313 0.0
C141 C 0.73805 0.15888 0.52848 0.0
O142 O 0.85032 0.23158 0.50752 0.0
O143 O 0.84201 0.15648 0.59592 0.0
O144 O 0.7838 0.22176 0.60101 0.0
O145 O 0.83458 0.15168 0.42502 0.0
O146 O 0.7693 0.2123 0.43104 0.0
O147 O 0.75979 0.14258 0.52171 0.0
O148 O 0.81533 0.21342 0.40142 0.0
O149 O 0.82008 0.12287 0.49446 0.0
O150 O 0.74074 0.1864 0.53272 0.0
O151 O 0.87009 0.17102 0.52567 0.0
O152 O 0.80702 0.25248 0.50313 0.0
O153 O 0.78096 0.17525 0.62662 0.0
Sc154 Sc 0.04803 0.59166 0.2174 0.0
Sc155 Sc 0.08978 0.55078 0.3077 0.0
Sc156 Sc 0.02248 0.52657 0.26811 0.0
O157 O 0.05383 0.55646 0.2638 0.0
C158 C 0.98685 0.58452 0.26664 0.0
C159 C 0.0803 0.6168 0.32496 0.0
C160 C 0.03816 0.53021 0.38863 0.0
C161 C 0.11291 0.57942 0.19437 0.0
C162 C 0.02321 0.53817 0.14506 0.0
C163 C 0.07993 0.48793 0.27927 0.0
O164 O 0.00882 0.60075 0.26004 0.0
O165 O 0.0852 0.59199 0.34566 0.0
O166 O 0.01873 0.53474 0.35289 0.0
O167 O 0.08788 0.58499 0.17526 0.0
O168 O 0.02645 0.5195 0.18296 0.0
O169 O 0.09645 0.50951 0.27091 0.0
O170 O 0.02605 0.56562 0.15332 0.0
O171 O 0.1171 0.5695 0.24298 0.0
O172 O 0.05255 0.49087 0.28455 0.0
O173 O 0.06956 0.6203 0.27682 0.0
O174 O 0.9874 0.55747 0.2556 0.0
O175 O 0.06534 0.53114 0.37694 0.0
Sc176 Sc 0.77613 0.71649 0.51022 0.0
Sc177 Sc 0.80095 0.64991 0.46844 0.0
Sc178 Sc 0.84133 0.69166 0.5603 0.0
O179 O 0.80623 0.68563 0.51353 0.0
C180 C 0.83394 0.75293 0.51185 0.0
C181 C 0.77946 0.70175 0.38895 0.0
C182 C 0.86679 0.66036 0.4521 0.0
C183 C 0.73802 0.65828 0.49823 0.0
C184 C 0.78795 0.71573 0.6331 0.0
C185 C 0.82977 0.62644 0.58137 0.0
O186 O 0.80692 0.752 0.52289 0.0
O187 O 0.78103 0.67448 0.39975 0.0
O188 O 0.87011 0.67057 0.50076 0.0
O189 O 0.7407 0.6858 0.49397 0.0
O190 O 0.81536 0.71331 0.62471 0.0
O191 O 0.82007 0.62245 0.53247 0.0
O192 O 0.76932 0.7119 0.59534 0.0
O193 O 0.75976 0.64197 0.50482 0.0
O194 O 0.83467 0.65146 0.60158 0.0
O195 O 0.78367 0.72103 0.42531 0.0
O196 O 0.85025 0.73117 0.5183 0.0
O197 O 0.84207 0.65577 0.43068 0.0
Sc198 Sc 0.04773 0.09205 0.80947 0.0
Sc199 Sc 0.08932 0.05103 0.71897 0.0
Sc200 Sc 0.02193 0.02707 0.75853 0.0
O201 O 0.0534 0.05684 0.76295 0.0
C202 C 0.02272 0.03859 0.88168 0.0
C203 C 0.11259 0.07967 0.83223 0.0
C204 C 0.07927 0.98824 0.74717 0.0
C205 C 0.08004 0.11708 0.70183 0.0
C206 C 0.98651 0.08515 0.76031 0.0
C207 C 0.03766 0.03056 0.63808 0.0
O208 O 0.0257 0.06604 0.87357 0.0
O209 O 0.11672 0.06972 0.7836 0.0
O210 O 0.05189 0.99128 0.7419 0.0
O211 O 0.06933 0.12063 0.75001 0.0
O212 O 0.98697 0.05809 0.77122 0.0
O213 O 0.06482 0.03141 0.64978 0.0
O214 O 0.00853 0.10129 0.76695 0.0
O215 O 0.08483 0.09225 0.68107 0.0
O216 O 0.01823 0.03531 0.67377 0.0
O217 O 0.0876 0.08527 0.85148 0.0
O218 O 0.02586 0.01994 0.84366 0.0
O219 O 0.09584 0.00976 0.75573 0.0
Sc220 Sc 0.64802 0.29886 0.05983 0.0
Sc221 Sc 0.68855 0.34039 0.96792 0.0
Sc222 Sc 0.71316 0.27377 0.00976 0.0
O223 O 0.68314 0.30472 0.01304 0.0
C224 C 0.70134 0.27483 0.13273 0.0
C225 C 0.65968 0.36408 0.08064 0.0
C226 C 0.7514 0.33189 -0.00216 0.0
C227 C 0.62272 0.33003 0.95141 0.0
C228 C 0.65525 0.23747 0.01167 0.0
C229 C 0.70998 0.28844 0.88856 0.0
O230 O 0.67393 0.27732 0.12439 0.0
O231 O 0.66939 0.36798 0.03173 0.0
O232 O 0.74866 0.30437 -0.00654 0.0
O233 O 0.61934 0.31989 0.0001 0.0
O234 O 0.68229 0.23835 0.02254 0.0
O235 O 0.70853 0.31572 0.8994 0.0
O236 O 0.639 0.25929 0.01809 0.0
O237 O 0.64747 0.33457 0.93004 0.0
O238 O 0.70561 0.26918 0.92485 0.0
O239 O 0.65476 0.33909 0.10094 0.0
O240 O 0.71998 0.27842 0.09487 0.0
O241 O 0.72969 0.34823 0.00451 0.0
Sc242 Sc 0.46691 0.96358 0.25818 0.0
Sc243 Sc 0.39946 0.93973 0.21872 0.0
Sc244 Sc 0.44096 0.89871 0.30918 0.0
O245 O 0.43538 0.93389 0.26263 0.0
C246 C 0.5022 0.90539 0.26002 0.0
C247 C 0.45117 0.96007 0.13773 0.0
C248 C 0.40859 0.87366 0.20164 0.0
C249 C 0.40964 0.00252 0.24693 0.0
C250 C 0.46616 0.95212 0.38131 0.0
C251 C 0.37616 0.91127 0.33208 0.0
O252 O 0.5018 0.93248 0.27079 0.0
O253 O 0.42399 0.95927 0.14947 0.0
O254 O 0.41927 0.87015 0.24983 0.0
O255 O 0.43701 -0.00057 0.24162 0.0
O256 O 0.4631 0.92468 0.37318 0.0
O257 O 0.37203 0.92113 0.28341 0.0
O258 O 0.46302 0.97077 0.34333 0.0
O259 O 0.39304 0.98103 0.25553 0.0
O260 O 0.40116 0.90569 0.35129 0.0
O261 O 0.47058 0.95531 0.17341 0.0
O262 O 0.48012 0.88932 0.26663 0.0
O263 O 0.40385 0.89848 0.18082 0.0
Sc264 Sc 0.21337 0.27347 0.51618 0.0
Sc265 Sc 0.18873 0.34009 0.55804 0.0
Sc266 Sc 0.14824 0.29851 0.46614 0.0
O267 O 0.18334 0.3044 0.51291 0.0
C268 C 0.2016 0.27451 0.39323 0.0
C269 C 0.25159 0.3316 0.52819 0.0
C270 C 0.15993 0.36372 0.4453 0.0
C271 C 0.21009 0.28816 0.63738 0.0
C272 C 0.15549 0.23715 0.51431 0.0
C273 C 0.12289 0.32972 0.57456 0.0
O274 O 0.22023 0.2781 0.43108 0.0
O275 O 0.22988 0.34792 0.52146 0.0
O276 O 0.15498 0.33873 0.42503 0.0
O277 O 0.20576 0.26889 0.60106 0.0
O278 O 0.13924 0.25896 0.50789 0.0
O279 O 0.14763 0.3343 0.59591 0.0
O280 O 0.18252 0.23803 0.50336 0.0
O281 O 0.20867 0.31544 0.62655 0.0
O282 O 0.11953 0.31955 0.52587 0.0
O283 O 0.24887 0.30408 0.53257 0.0
O284 O 0.17419 0.27697 0.4016 0.0
O285 O 0.16962 0.36766 0.49421 0.0
Sc286 Sc 0.96706 0.9635 0.26803 0.0
Sc287 Sc 0.89976 0.93938 0.3079 0.0
Sc288 Sc 0.94122 0.89856 0.21694 0.0
O289 O 0.93562 0.9337 0.26368 0.0
C290 C 0.96614 0.95209 0.14484 0.0
C291 C 0.90968 0.00224 0.27969 0.0
C292 C 0.87635 0.91097 0.19458 0.0
C293 C 0.9515 0.95987 0.3886 0.0
C294 C 0.00249 0.90541 0.26586 0.0
C295 C 0.90909 0.87333 0.3246 0.0
O296 O 0.96304 0.9707 0.18292 0.0
O297 O 0.89311 0.98069 0.27137 0.0
O298 O 0.90133 0.90546 0.17514 0.0
O299 O 0.97089 0.95525 0.35278 0.0
O300 O 0.98047 0.88927 0.25921 0.0
O301 O 0.90437 0.89812 0.34559 0.0
O302 O 0.00202 0.9325 0.25516 0.0
O303 O 0.92432 0.95895 0.37703 0.0
O304 O 0.91969 0.86988 0.2763 0.0
O305 O 0.93706 -0.00075 0.28478 0.0
O306 O 0.96319 0.92464 0.15288 0.0
O307 O 0.87229 0.92076 0.24334 0.0
Sc308 Sc 0.34117 0.69194 0.96598 0.0
Sc309 Sc 0.30087 0.65038 0.05818 0.0
Sc310 Sc 0.27588 0.71677 0.01586 0.0
O311 O 0.30608 0.68599 0.01282 0.0
C312 C 0.33363 0.75332 0.01398 0.0
C313 C 0.36666 0.66103 0.07449 0.0
C314 C 0.27917 0.70236 0.13724 0.0
C315 C 0.32978 0.62665 0.94548 0.0
C316 C 0.28777 0.71565 0.89297 0.0
C317 C 0.23796 0.65848 0.02814 0.0
O318 O 0.34998 0.73158 0.00762 0.0
O319 O 0.34193 0.65649 0.09597 0.0
O320 O 0.28332 0.72158 0.10076 0.0
O321 O 0.33458 0.65162 0.92503 0.0
O322 O 0.26913 0.71192 0.93077 0.0
O323 O 0.25976 0.64224 0.02172 0.0
O324 O 0.31519 0.71335 0.90139 0.0
O325 O 0.32013 0.62278 -0.00554 0.0
O326 O 0.24053 0.68601 0.03228 0.0
O327 O 0.36997 0.67106 0.02571 0.0
O328 O 0.30661 0.75231 0.00297 0.0
O329 O 0.28082 0.67507 0.1266 0.0
Sc330 Sc 0.54802 0.09184 0.71681 0.0
Sc331 Sc 0.58943 0.05109 0.80784 0.0
Sc332 Sc 0.52227 0.0268 0.76753 0.0
O333 O 0.55364 0.05669 0.76345 0.0
C334 C 0.4867 0.0848 0.76542 0.0
C335 C 0.5799 0.1171 0.82469 0.0
C336 C 0.53758 0.03044 0.8882 0.0
C337 C 0.61296 0.07968 0.69474 0.0
C338 C 0.52334 0.0383 0.64442 0.0
C339 C 0.57974 0.98823 0.77959 0.0
O340 O 0.5087 0.10099 0.75895 0.0
O341 O 0.5846 0.09231 0.84565 0.0
O342 O 0.51823 0.035 0.85228 0.0
O343 O 0.588 0.08506 0.67517 0.0
O344 O 0.5265 0.01965 0.68241 0.0
O345 O 0.59627 0.00981 0.77125 0.0
O346 O 0.5262 0.06575 0.65261 0.0
O347 O 0.61698 0.06986 0.74348 0.0
O348 O 0.55233 0.99114 0.78446 0.0
O349 O 0.56942 0.12054 0.77633 0.0
O350 O 0.48725 0.05772 0.75455 0.0
O351 O 0.56478 0.03143 0.87678 0.0
H352 H 0.23226 0.10754 0.94484 0.0
H353 H 0.18267 0.17939 0.00914 0.0
H354 H 0.13845 0.15904 0.96762 0.0
H355 H 0.11532 0.12345 0.90612 0.0
H356 H 0.16645 0.05502 0.83332 0.0
H357 H 0.20903 0.0715 0.88537 0.0
C358 C 0.21166 0.11846 0.9509 0.0
C359 C 0.21057 0.14478 0.98053 0.0
C360 C 0.18686 0.10744 0.92479 0.0
C361 C 0.18391 0.15903 0.98679 0.0
C362 C 0.15875 0.14748 0.96286 0.0
C363 C 0.13569 0.11187 0.90229 0.0
C364 C 0.13783 0.08797 0.86619 0.0
C365 C 0.16017 0.12209 0.93071 0.0
C366 C 0.1644 0.07349 0.86077 0.0
C367 C 0.18866 0.08288 0.89053 0.0
H368 H 0.61535 0.36619 0.15315 0.0
H369 H 0.68338 0.4187 0.08096 0.0
H370 H 0.66625 0.4611 0.13259 0.0
H371 H 0.63015 0.48356 0.19258 0.0
H372 H 0.55879 0.4325 0.25647 0.0
H373 H 0.57931 0.38871 0.21409 0.0
C374 C 0.62668 0.38684 0.14932 0.0
C375 C 0.65073 0.38939 0.11368 0.0
C376 C 0.61611 0.41117 0.17753 0.0
C377 C 0.66484 0.41632 0.10814 0.0
C378 C 0.65507 0.44046 0.13765 0.0
C379 C 0.61937 0.46273 0.19829 0.0
C380 C 0.59321 0.46107 0.22828 0.0
C381 C 0.63052 0.43817 0.1718 0.0
C382 C 0.57906 0.43416 0.23395 0.0
C383 C 0.59072 0.40925 0.20955 0.0
H384 H 0.37359 0.86779 0.40654 0.0
H385 H 0.32218 0.9357 0.33283 0.0
H386 H 0.27964 0.9192 0.38503 0.0
H387 H 0.25654 0.88323 0.44482 0.0
H388 H 0.30644 0.81188 0.51003 0.0
H389 H 0.3506 0.83234 0.46843 0.0
C390 C 0.35317 0.87927 0.40254 0.0
C391 C 0.35094 0.90301 0.36614 0.0
C392 C 0.32872 0.86903 0.43104 0.0
C393 C 0.3243 0.91734 0.36052 0.0
C394 C 0.30007 0.90794 0.39035 0.0
C395 C 0.27719 0.87245 0.45105 0.0
C396 C 0.27839 0.84624 0.48095 0.0
C397 C 0.30196 0.88352 0.42489 0.0
C398 C 0.30512 0.83216 0.48746 0.0
C399 C 0.33024 0.84377 0.46348 0.0
H400 H 0.87422 0.62435 0.65357 0.0
H401 H 0.8059 0.57189 0.58224 0.0
H402 H 0.823 0.52955 0.63398 0.0
H403 H 0.85916 0.50709 0.69374 0.0
H404 H 0.93081 0.55805 0.75673 0.0
H405 H 0.91031 0.60183 0.71436 0.0
C406 C 0.86283 0.60373 0.64995 0.0
C407 C 0.83871 0.60117 0.61452 0.0
C408 C 0.87338 0.57942 0.67822 0.0
C409 C 0.8245 0.57427 0.60926 0.0
C410 C 0.83425 0.55016 0.63883 0.0
C411 C 0.87002 0.52789 0.69926 0.0
C412 C 0.89626 0.52952 0.72899 0.0
C413 C 0.85888 0.55244 0.67276 0.0
C414 C 0.91048 0.55641 0.73442 0.0
C415 C 0.89884 0.58132 0.71001 0.0
H416 H 0.75654 0.883 0.08275 0.0
H417 H 0.80638 0.81187 0.01632 0.0
H418 H 0.85061 0.8323 0.05768 0.0
H419 H 0.8737 0.86765 0.1197 0.0
H420 H 0.82236 0.93531 0.19456 0.0
H421 H 0.77972 0.91887 0.14263 0.0
C422 C 0.77719 0.87226 0.0762 0.0
C423 C 0.77835 0.84612 0.04604 0.0
C424 C 0.802 0.88331 0.10221 0.0
C425 C 0.80508 0.8321 0.0391 0.0
C426 C 0.83025 0.84369 0.06295 0.0
C427 C 0.85327 0.87908 0.12401 0.0
C428 C 0.85109 0.90274 0.16066 0.0
C429 C 0.82877 0.86887 0.09565 0.0
C430 C 0.82444 0.91702 0.16668 0.0
C431 C 0.80015 0.90765 0.137 0.0
H432 H 0.35932 0.50708 0.83381 0.0
H433 H 0.43033 0.55824 0.76883 0.0
H434 H 0.40983 0.60204 0.81126 0.0
H435 H 0.37392 0.62455 0.87251 0.0
H436 H 0.30626 0.57195 0.94573 0.0
H437 H 0.32336 0.52953 0.89413 0.0
C438 C 0.37003 0.52792 0.82788 0.0
C439 C 0.39608 0.52962 0.79755 0.0
C440 C 0.3589 0.55249 0.85439 0.0
C441 C 0.41014 0.55656 0.7916 0.0
C442 C 0.3985 0.58147 0.81603 0.0
C443 C 0.36267 0.60387 0.87659 0.0
C444 C 0.33874 0.60131 0.9125 0.0
C445 C 0.37322 0.57953 0.84837 0.0
C446 C 0.32472 0.57434 0.91834 0.0
C447 C 0.33446 0.55018 0.88884 0.0
H448 H 0.61551 0.1232 0.62038 0.0
H449 H 0.66708 0.05558 0.69458 0.0
H450 H 0.70964 0.07219 0.64254 0.0
H451 H 0.73264 0.10807 0.58241 0.0
H452 H 0.68256 0.17914 0.51659 0.0
H453 H 0.63845 0.15869 0.55845 0.0
C454 C 0.63598 0.11182 0.62454 0.0
C455 C 0.63824 0.08811 0.66098 0.0
C456 C 0.66042 0.12212 0.5961 0.0
C457 C 0.66494 0.0739 0.66683 0.0
C458 C 0.68917 0.08337 0.63709 0.0
C459 C 0.71196 0.11879 0.57611 0.0
C460 C 0.71069 0.1449 0.5459 0.0
C461 C 0.68722 0.10773 0.60238 0.0
C462 C 0.68393 0.15892 0.53936 0.0
C463 C 0.65884 0.14732 0.56349 0.0
H464 H 0.11572 0.36583 0.37257 0.0
H465 H 0.18369 0.41832 0.44505 0.0
H466 H 0.16665 0.46072 0.39341 0.0
H467 H 0.1306 0.4832 0.33344 0.0
H468 H 0.05929 0.43217 0.26929 0.0
H469 H 0.07978 0.38836 0.31154 0.0
C470 C 0.12706 0.38647 0.37647 0.0
C471 C 0.15105 0.38902 0.4122 0.0
C472 C 0.11654 0.41081 0.34825 0.0
C473 C 0.16518 0.41595 0.41781 0.0
C474 C 0.15547 0.44009 0.38829 0.0
C475 C 0.11982 0.46238 0.32764 0.0
C476 C 0.09368 0.46073 0.29763 0.0
C477 C 0.13095 0.43781 0.35407 0.0
C478 C 0.07954 0.43382 0.29183 0.0
C479 C 0.09118 0.4089 0.31616 0.0
H480 H 0.61541 0.62319 0.4062 0.0
H481 H 0.66669 0.55517 0.33238 0.0
H482 H 0.70922 0.57148 0.38477 0.0
H483 H 0.73235 0.60731 0.44485 0.0
H484 H 0.68261 0.67877 0.51023 0.0
H485 H 0.63844 0.65852 0.46834 0.0
C486 C 0.6358 0.61166 0.4022 0.0
C487 C 0.63799 0.58793 0.36572 0.0
C488 C 0.66024 0.62178 0.43085 0.0
C489 C 0.6646 0.57351 0.36012 0.0
C490 C 0.68882 0.58281 0.39008 0.0
C491 C 0.71174 0.61815 0.45107 0.0
C492 C 0.71058 0.64434 0.4811 0.0
C493 C 0.68696 0.60721 0.42474 0.0
C494 C 0.6839 0.65851 0.48757 0.0
C495 C 0.65877 0.64702 0.46342 0.0
H496 H 0.11496 0.86615 0.65323 0.0
H497 H 0.18261 0.91873 0.57993 0.0
H498 H 0.16555 0.96115 0.63157 0.0
H499 H 0.12966 0.98359 0.69207 0.0
H500 H 0.05867 0.93246 0.75717 0.0
H501 H 0.07909 0.88867 0.71457 0.0
C502 C 0.12622 0.88682 0.64914 0.0
C503 C 0.15014 0.88938 0.61321 0.0
C504 C 0.11569 0.91117 0.6774 0.0
C505 C 0.16416 0.91635 0.60734 0.0
C506 C 0.15444 0.9405 0.63687 0.0
C507 C 0.11895 0.96275 0.69798 0.0
C508 C 0.09293 0.96106 0.72841 0.0
C509 C 0.13002 0.9382 0.67138 0.0
C510 C 0.07884 0.93413 0.73433 0.0
C511 C 0.09044 0.90923 0.7098 0.0
H512 H 0.87407 0.36702 0.90595 0.0
H513 H 0.82294 0.43545 0.83335 0.0
H514 H 0.78038 0.41903 0.88559 0.0
H515 H 0.75718 0.38304 0.94518 0.0
H516 H 0.80676 0.31119 0.0093 0.0
H517 H 0.85096 0.33149 0.96758 0.0
C518 C 0.8537 0.37861 0.9022 0.0
C519 C 0.85156 0.40249 0.86611 0.0
C520 C 0.82924 0.36843 0.93073 0.0
C521 C 0.82499 0.41699 0.86079 0.0
C522 C 0.80075 0.40763 0.89066 0.0
C523 C 0.77777 0.37211 0.95115 0.0
C524 C 0.77886 0.34581 0.98078 0.0
C525 C 0.80256 0.38309 0.92492 0.0
C526 C 0.80552 0.33154 0.98695 0.0
C527 C 0.83067 0.34306 0.96289 0.0
H528 H 0.35902 0.00726 0.19263 0.0
H529 H 0.43049 0.05824 0.25628 0.0
H530 H 0.41012 0.10201 0.21366 0.0
H531 H 0.37416 0.12452 0.15261 0.0
H532 H 0.30601 0.07206 0.08069 0.0
H533 H 0.32302 0.0297 0.1325 0.0
C534 C 0.36986 0.02807 0.19824 0.0
C535 C 0.39601 0.02971 0.22824 0.0
C536 C 0.3588 0.0526 0.17161 0.0
C537 C 0.41023 0.0566 0.23377 0.0
C538 C 0.39866 0.08149 0.20922 0.0
C539 C 0.36278 0.10389 0.14887 0.0
C540 C 0.33873 0.10134 0.11327 0.0
C541 C 0.37328 0.07958 0.1772 0.0
C542 C 0.32455 0.07443 0.10784 0.0
C543 C 0.33425 0.05032 0.13746 0.0
H544 H 0.37417 0.36707 0.62007 0.0
H545 H 0.32286 0.43544 0.6926 0.0
H546 H 0.28035 0.41886 0.64045 0.0
H547 H 0.25725 0.38277 0.58091 0.0
H548 H 0.30701 0.31098 0.51687 0.0
H549 H 0.35115 0.33141 0.55856 0.0
C550 C 0.35378 0.37861 0.62383 0.0
C551 C 0.35157 0.40253 0.65986 0.0
C552 C 0.32934 0.36833 0.59535 0.0
C553 C 0.32496 0.41696 0.66519 0.0
C554 C 0.30075 0.40751 0.63538 0.0
C555 C 0.27786 0.37188 0.57495 0.0
C556 C 0.27903 0.34556 0.54533 0.0
C557 C 0.30262 0.38294 0.60116 0.0
C558 C 0.30571 0.33134 0.5392 0.0
C559 C 0.33083 0.34294 0.56324 0.0
H560 H 0.87399 0.12449 0.37285 0.0
H561 H 0.80596 0.07212 0.44547 0.0
H562 H 0.82302 0.02964 0.394 0.0
H563 H 0.85906 0.00707 0.33404 0.0
H564 H 0.93042 0.05797 0.26971 0.0
H565 H 0.90996 0.10185 0.31191 0.0
C566 C 0.86265 0.10385 0.37681 0.0
C567 C 0.83862 0.10136 0.41252 0.0
C568 C 0.87317 0.07947 0.34869 0.0
C569 C 0.82449 0.07445 0.41823 0.0
C570 C 0.83421 0.05026 0.38881 0.0
C571 C 0.86985 0.02787 0.3282 0.0
C572 C 0.896 0.02947 0.29813 0.0
C573 C 0.85875 0.05248 0.35459 0.0
C574 C 0.91016 0.05636 0.29229 0.0
C575 C 0.89855 0.08132 0.31659 0.0
H576 H 0.11542 0.62298 0.12008 0.0
H577 H 0.16684 0.55493 0.19326 0.0
H578 H 0.20933 0.5714 0.14088 0.0
H579 H 0.23238 0.60738 0.08107 0.0
H580 H 0.1825 0.67887 0.01637 0.0
H581 H 0.13837 0.65846 0.05816 0.0
C582 C 0.13583 0.61148 0.12393 0.0
C583 C 0.13808 0.5877 0.16024 0.0
C584 C 0.16025 0.6217 0.09531 0.0
C585 C 0.16471 0.57332 0.16566 0.0
C586 C 0.1889 0.5827 0.13571 0.0
C587 C 0.21174 0.6182 0.07498 0.0
C588 C 0.21054 0.64444 0.04518 0.0
C589 C 0.187 0.60716 0.10125 0.0
C590 C 0.18383 0.65857 0.03886 0.0
C591 C 0.15872 0.64698 0.06295 0.0
H592 H 0.61619 0.86609 0.87197 0.0
H593 H 0.68137 0.91937 0.95132 0.0
H594 H 0.6642 0.96194 0.90038 0.0
H595 H 0.62894 0.98418 0.83833 0.0
H596 H 0.56034 0.93219 0.76686 0.0
H597 H 0.58089 0.88844 0.80936 0.0
C598 C 0.62691 0.88695 0.87756 0.0
C599 C 0.65018 0.88965 0.91497 0.0
C600 C 0.61632 0.91134 0.84961 0.0
C601 C 0.66345 0.91686 0.92273 0.0
C602 C 0.65366 0.9411 0.89361 0.0
C603 C 0.6188 0.96317 0.83105 0.0
C604 C 0.59345 0.9612 0.79878 0.0
C605 C 0.62992 0.93861 0.85752 0.0
C606 C 0.58002 0.93406 0.79112 0.0
C607 C 0.59169 0.90918 0.81558 0.0
H608 H 0.36749 0.11947 0.87198 0.0
H609 H 0.42296 0.18042 0.95792 0.0
H610 H 0.46476 0.16347 0.90431 0.0
H611 H 0.48539 0.13024 0.8356 0.0
H612 H 0.43025 0.06697 0.75512 0.0
H613 H 0.388 0.08625 0.80406 0.0
C614 C 0.38867 0.12931 0.87871 0.0
C615 C 0.39216 0.15135 0.91854 0.0
C616 C 0.41247 0.11906 0.8488 0.0
C617 C 0.4198 0.16343 0.92751 0.0
C618 C 0.44361 0.15379 0.89684 0.0
C619 C 0.46404 0.12093 0.82818 0.0
C620 C 0.46076 0.09744 0.79138 0.0
C621 C 0.44016 0.13151 0.85764 0.0
C622 C 0.43318 0.08513 0.78309 0.0
C623 C 0.40912 0.09611 0.81109 0.0
H624 H 0.6218 0.618 0.12294 0.0
H625 H 0.55995 0.67294 0.20631 0.0
H626 H 0.57657 0.71466 0.15166 0.0
H627 H 0.60968 0.7354 0.08282 0.0
H628 H 0.67379 0.68098 0.0046 0.0
H629 H 0.65492 0.63867 0.05463 0.0
C630 C 0.61172 0.63904 0.1289 0.0
C631 C 0.58953 0.64242 0.16832 0.0
C632 C 0.62174 0.66281 0.09831 0.0
C633 C 0.57709 0.66989 0.17627 0.0
C634 C 0.58653 0.69364 0.14498 0.0
C635 C 0.61926 0.71418 0.07607 0.0
C636 C 0.64287 0.71113 0.03964 0.0
C637 C 0.60892 0.69032 0.10615 0.0
C638 C 0.65553 0.68373 0.03226 0.0
C639 C 0.6448 0.65964 0.0609 0.0
H640 H 0.00364 0.86015 0.33642 0.0
H641 H 0.059 0.9229 0.25507 0.0
H642 H 0.10122 0.90354 0.3039 0.0
H643 H 0.12164 0.87044 0.37198 0.0
H644 H 0.066 0.81004 0.45889 0.0
H645 H 0.02421 0.82702 0.40535 0.0
C646 C 0.02503 0.86932 0.32879 0.0
C647 C 0.02838 0.89269 0.29178 0.0
C648 C 0.0489 0.8587 0.35821 0.0
C649 C 0.05602 0.90484 0.28321 0.0
C650 C 0.08006 0.89381 0.31114 0.0
C651 C 0.10043 0.86072 0.37894 0.0
C652 C 0.09689 0.83883 0.41902 0.0
C653 C 0.07664 0.87099 0.34908 0.0
C654 C 0.0692 0.82691 0.42828 0.0
C655 C 0.0454 0.83657 0.39764 0.0
H656 H 0.87963 0.25507 0.58352 0.0
H657 H 0.81579 0.30967 0.50514 0.0
H658 H 0.83478 0.35195 0.55514 0.0
H659 H 0.86792 0.37257 0.62339 0.0
H660 H 0.92952 0.3175 0.70696 0.0
H661 H 0.91277 0.27576 0.6524 0.0
C662 C 0.87013 0.27632 0.57675 0.0
C663 C 0.84657 0.27943 0.54026 0.0
C664 C 0.88054 0.30017 0.6068 0.0
C665 C 0.83401 0.30687 0.53284 0.0
C666 C 0.84481 0.33094 0.56146 0.0
C667 C 0.87792 0.35149 0.62942 0.0
C668 C 0.90008 0.34808 0.66886 0.0
C669 C 0.86783 0.32772 0.59889 0.0
C670 C 0.91241 0.32058 0.6769 0.0
C671 C 0.9029 0.29681 0.64566 0.0
H672 H 0.62156 0.86964 0.15549 0.0
H673 H 0.56582 0.81006 0.06681 0.0
H674 H 0.52391 0.82725 0.11985 0.0
H675 H 0.50328 0.86038 0.18883 0.0
H676 H 0.55879 0.92239 0.27187 0.0
H677 H 0.60108 0.90276 0.22357 0.0
C678 C 0.6003 0.86014 0.14805 0.0
C679 C 0.59676 0.83842 0.10761 0.0
C680 C 0.57645 0.87056 0.17759 0.0
C681 C 0.56902 0.82679 0.09771 0.0
C682 C 0.54514 0.83657 0.12805 0.0
C683 C 0.52472 0.86933 0.19692 0.0
C684 C 0.52809 0.89257 0.23426 0.0
C685 C 0.54864 0.85857 0.16781 0.0
C686 C 0.55578 0.90444 0.24345 0.0
C687 C 0.57987 0.89326 0.21583 0.0
H688 H 0.37962 0.25496 0.9414 0.0
H689 H 0.31587 0.3095 0.02038 0.0
H690 H 0.33484 0.35183 0.97057 0.0
H691 H 0.36797 0.37253 0.90237 0.0
H692 H 0.42949 0.31755 0.81821 0.0
H693 H 0.41273 0.27574 0.87251 0.0
C694 C 0.37014 0.2762 0.94833 0.0
C695 C 0.3466 0.27928 0.98494 0.0
C696 C 0.38054 0.30009 0.91839 0.0
C697 C 0.33407 0.30672 -0.00742 0.0
C698 C 0.34486 0.33083 0.96407 0.0
C699 C 0.37795 0.35145 0.89616 0.0
C700 C 0.40009 0.3481 0.85663 0.0
C701 C 0.36786 0.32764 0.92654 0.0
C702 C 0.4124 0.32059 0.84835 0.0
C703 C 0.40288 0.29678 0.87943 0.0
H704 H 0.86743 0.12 0.6537 0.0
H705 H 0.9231 0.1804 0.56686 0.0
H706 H 0.96487 0.16343 0.62047 0.0
H707 H 0.98541 0.13034 0.68955 0.0
H708 H 0.93 0.06763 0.7709 0.0
H709 H 0.88782 0.08693 0.72186 0.0
C710 C 0.88865 0.12972 0.64676 0.0
C711 C 0.8922 0.15161 0.60669 0.0
C712 C 0.91242 0.11946 0.67668 0.0
C713 C 0.91989 0.16353 0.59746 0.0
C714 C 0.94368 0.15387 0.62814 0.0
C715 C 0.96401 0.12117 0.69713 0.0
C716 C 0.96064 0.09782 0.73421 0.0
C717 C 0.94017 0.13175 0.6676 0.0
C718 C 0.93301 0.08567 0.74271 0.0
C719 C 0.90898 0.09666 0.71465 0.0
H720 H 0.1219 0.61792 0.40296 0.0
H721 H 0.06004 0.6727 0.31941 0.0
H722 H 0.07666 0.71453 0.37383 0.0
H723 H 0.10974 0.7354 0.4426 0.0
H724 H 0.17384 0.68111 0.521 0.0
H725 H 0.15501 0.63872 0.4711 0.0
C726 C 0.11182 0.63896 0.39691 0.0
C727 C 0.08962 0.64225 0.35752 0.0
C728 C 0.12183 0.66278 0.42736 0.0
C729 C 0.07718 0.66971 0.34944 0.0
C730 C 0.08662 0.69352 0.3806 0.0
C731 C 0.11933 0.71419 0.4494 0.0
C732 C 0.14292 0.7112 0.48586 0.0
C733 C 0.10901 0.69028 0.41941 0.0
C734 C 0.1556 0.68382 0.49331 0.0
C735 C 0.14489 0.65968 0.46476 0.0
H736 H 0.86763 0.61908 0.37336 0.0
H737 H 0.92305 0.68004 0.45938 0.0
H738 H 0.96489 0.66306 0.40589 0.0
H739 H 0.98555 0.62988 0.33708 0.0
H740 H 0.93042 0.56664 0.25647 0.0
H741 H 0.88817 0.58586 0.30549 0.0
C742 C 0.88881 0.62891 0.38014 0.0
C743 C 0.89227 0.65097 0.41994 0.0
C744 C 0.91262 0.61866 0.35027 0.0
C745 C 0.91991 0.66304 0.42899 0.0
C746 C 0.94374 0.65338 0.39837 0.0
C747 C 0.9642 0.62056 0.32966 0.0
C748 C 0.96093 0.5971 0.29278 0.0
C749 C 0.94032 0.63111 0.35916 0.0
C750 C 0.93335 0.58478 0.28449 0.0
C751 C 0.90929 0.59571 0.31254 0.0
H752 H 0.11 0.23552 0.58414 0.0
H753 H 0.1737 0.18085 0.50535 0.0
H754 H 0.15471 0.13859 0.55535 0.0
H755 H 0.12157 0.11799 0.62363 0.0
H756 H 0.06009 0.17311 0.70758 0.0
H757 H 0.07689 0.21485 0.65312 0.0
C758 C 0.11947 0.21426 0.57729 0.0
C759 C 0.14299 0.21112 0.54068 0.0
C760 C 0.10905 0.19041 0.60733 0.0
C761 C 0.15551 0.18367 0.53315 0.0
C762 C 0.1447 0.1596 0.56176 0.0
C763 C 0.1116 0.13908 0.62976 0.0
C764 C 0.08946 0.14249 0.66927 0.0
C765 C 0.12171 0.16284 0.59929 0.0
C766 C 0.07718 0.17002 0.67746 0.0
C767 C 0.08672 0.19378 0.64628 0.0
H768 H 0.62199 0.37124 0.87259 0.0
H769 H 0.56645 0.31037 0.95852 0.0
H770 H 0.52468 0.32732 0.90488 0.0
H771 H 0.50411 0.36048 0.83603 0.0
H772 H 0.55934 0.42366 0.75555 0.0
H773 H 0.60153 0.40443 0.80464 0.0
C774 C 0.6008 0.36143 0.87932 0.0
C775 C 0.59728 0.33941 0.91914 0.0
C776 C 0.57702 0.37167 0.84937 0.0
C777 C 0.56963 0.32735 0.92811 0.0
C778 C 0.54584 0.33699 0.89742 0.0
C779 C 0.52547 0.36978 0.82865 0.0
C780 C 0.52878 0.39323 0.79179 0.0
C781 C 0.54932 0.35923 0.8582 0.0
C782 C 0.55637 0.40553 0.78355 0.0
C783 C 0.58041 0.39459 0.81164 0.0
H784 H 0.37903 0.75512 0.08388 0.0
H785 H 0.31517 0.80955 0.00511 0.0
H786 H 0.33398 0.85189 0.05521 0.0
H787 H 0.36704 0.87262 0.12353 0.0
H788 H 0.42866 0.81771 0.20739 0.0
H789 H 0.41201 0.77591 0.15291 0.0
C790 C 0.36949 0.77635 0.07705 0.0
C791 C 0.34598 0.7794 0.04041 0.0
C792 C 0.37979 0.80023 0.10714 0.0
C793 C 0.33336 0.8068 0.03293 0.0
C794 C 0.34406 0.83091 0.06159 0.0
C795 C 0.37706 0.85157 0.12964 0.0
C796 C 0.3992 0.84822 0.16912 0.0
C797 C 0.36704 0.82776 0.09913 0.0
C798 C 0.41156 0.82074 0.17729 0.0
C799 C 0.40211 0.79694 0.14609 0.0
H800 H 0.12211 0.37087 0.65356 0.0
H801 H 0.06661 0.31009 0.56729 0.0
H802 H 0.0248 0.32705 0.62087 0.0
H803 H 0.00418 0.36021 0.68974 0.0
H804 H 0.05937 0.4233 0.77057 0.0
H805 H 0.10161 0.40405 0.72157 0.0
C806 C 0.10092 0.36108 0.64675 0.0
C807 C 0.09743 0.33908 0.60684 0.0
C808 C 0.07712 0.37132 0.67666 0.0
C809 C 0.06978 0.32704 0.59776 0.0
C810 C 0.04596 0.33669 0.62842 0.0
C811 C 0.02554 0.36949 0.69721 0.0
C812 C 0.02882 0.39292 0.73414 0.0
C813 C 0.04941 0.35892 0.66771 0.0
C814 C 0.05642 0.40519 0.7425 0.0
C815 C 0.08048 0.39423 0.71447 0.0
H816 H 0.87929 0.75466 0.44169 0.0
H817 H 0.81571 0.8092 0.52115 0.0
H818 H 0.83461 0.85155 0.47129 0.0
H819 H 0.86766 0.87227 0.40298 0.0
H820 H 0.92901 0.81731 0.31835 0.0
H821 H 0.91229 0.77546 0.37261 0.0
C822 C 0.86983 0.77591 0.4487 0.0
C823 C 0.84637 0.77899 0.48548 0.0
C824 C 0.88019 0.79981 0.41874 0.0
C825 C 0.83385 0.80642 0.49322 0.0
C826 C 0.84461 0.83054 0.46469 0.0
C827 C 0.87761 0.8512 0.39666 0.0
C828 C 0.8997 0.84785 0.35702 0.0
C829 C 0.86754 0.82737 0.42702 0.0
C830 C 0.91196 0.82034 0.34858 0.0
C831 C 0.90247 0.79651 0.37965 0.0
H832 H 0.36744 0.62001 0.15366 0.0
H833 H 0.42297 0.68056 0.06688 0.0
H834 H 0.46481 0.66358 0.12027 0.0
H835 H 0.48545 0.63042 0.1891 0.0
H836 H 0.43019 0.56755 0.27037 0.0
H837 H 0.38795 0.58688 0.22161 0.0
C838 C 0.38864 0.62976 0.1467 0.0
C839 C 0.39213 0.6517 0.1067 0.0
C840 C 0.41246 0.61949 0.17649 0.0
C841 C 0.4198 0.66366 0.09743 0.0
C842 C 0.44364 0.654 0.12798 0.0
C843 C 0.46408 0.62122 0.19672 0.0
C844 C 0.46077 0.59782 0.2337 0.0
C845 C 0.44019 0.63182 0.16735 0.0
C846 C 0.43315 0.58563 0.24225 0.0
C847 C 0.40909 0.59663 0.21436 0.0
H848 H 0.6212 0.1181 0.90323 0.0
H849 H 0.56006 0.17315 0.81841 0.0
H850 H 0.57683 0.21499 0.87264 0.0
H851 H 0.60988 0.23578 0.94163 0.0
H852 H 0.67329 0.18116 0.02121 0.0
H853 H 0.65426 0.1388 0.97151 0.0
C854 C 0.6113 0.1392 0.89686 0.0
C855 C 0.58926 0.14257 0.85717 0.0
C856 C 0.62141 0.16303 0.92719 0.0
C857 C 0.57707 0.1701 0.84868 0.0
C858 C 0.5866 0.19393 0.87973 0.0
C859 C 0.61927 0.21452 0.94871 0.0
C860 C 0.64273 0.21142 0.98545 0.0
C861 C 0.60885 0.19061 0.91884 0.0
C862 C 0.65515 0.18395 -0.0067 0.0
C863 C 0.64433 0.15983 0.96486 0.0
H864 H 0.2317 0.22299 0.16046 0.0
H865 H 0.31894 0.23165 0.22473 0.0
H866 H 0.29938 0.25177 0.31038 0.0
H867 H 0.25801 0.26734 0.36516 0.0
H868 H 0.17077 0.25869 0.30085 0.0
H869 H 0.19033 0.23856 0.21523 0.0
C870 C 0.24662 0.22915 0.19309 0.0
C871 C 0.27686 0.22584 0.18609 0.0
C872 C 0.23531 0.241 0.24149 0.0
C873 C 0.29565 0.23389 0.22907 0.0
C874 C 0.28448 0.24552 0.27782 0.0
C875 C 0.24309 0.26117 0.33253 0.0
C876 C 0.21285 0.26449 0.33951 0.0
C877 C 0.2544 0.24933 0.28412 0.0
C878 C 0.19407 0.25645 0.29653 0.0
C879 C 0.20524 0.24481 0.24779 0.0
H880 H 0.47474 0.5087 0.61656 0.0
H881 H 0.48043 0.42139 0.5511 0.0
H882 H 0.49943 0.44092 0.46442 0.0
H883 H 0.51474 0.48227 0.40892 0.0
H884 H 0.50904 0.56959 0.47431 0.0
H885 H 0.49006 0.55007 0.56103 0.0
C886 C 0.48003 0.49377 0.58346 0.0
C887 C 0.47619 0.46352 0.59039 0.0
C888 C 0.49117 0.50505 0.53438 0.0
C889 C 0.48311 0.4447 0.54683 0.0
C890 C 0.49408 0.45584 0.49746 0.0
C891 C 0.50946 0.49721 0.44201 0.0
C892 C 0.51328 0.52746 0.43505 0.0
C893 C 0.49832 0.48593 0.49109 0.0
C894 C 0.50637 0.54628 0.4786 0.0
C895 C 0.49541 0.53514 0.528 0.0
H896 H 0.25755 0.76842 0.6614 0.0
H897 H 0.17029 0.75849 0.72505 0.0
H898 H 0.1899 0.73798 0.81025 0.0
H899 H 0.23134 0.72235 0.86475 0.0
H900 H 0.31859 0.73226 0.80106 0.0
H901 H 0.29898 0.75281 0.7159 0.0
C902 C 0.24264 0.76189 0.6938 0.0
C903 C 0.21238 0.76496 0.68675 0.0
C904 C 0.25398 0.7498 0.74192 0.0
C905 C 0.1936 0.75646 0.72944 0.0
C906 C 0.2048 0.74459 0.77792 0.0
C907 C 0.24625 0.72888 0.83235 0.0
C908 C 0.27651 0.7258 0.83938 0.0
C909 C 0.2349 0.74098 0.78423 0.0
C910 C 0.29528 0.7343 0.79669 0.0
C911 C 0.28408 0.74619 0.74822 0.0
H912 H 0.01509 0.48175 0.11701 0.0
H913 H 0.009 0.56912 0.05213 0.0
H914 H 0.98987 0.54964 0.96551 0.0
H915 H 0.97456 0.50831 0.9099 0.0
H916 H 0.98066 0.42093 0.97472 0.0
H917 H -0.00023 0.4404 0.06139 0.0
C918 C 0.00968 0.49671 0.08405 0.0
C919 C 0.01344 0.52695 0.09113 0.0
C920 C -0.00153 0.48545 0.035 0.0
C921 C 0.00638 0.54581 0.04775 0.0
C922 C -0.00467 0.53469 -0.00159 0.0
C923 C 0.97996 0.49334 0.94285 0.0
C924 C 0.97622 0.4631 0.93575 0.0
C925 C 0.99116 0.5046 -0.0081 0.0
C926 C 0.98327 0.44424 0.97913 0.0
C927 C 0.9943 0.45536 0.02849 0.0
H928 H 0.75776 0.76837 0.865 0.0
H929 H 0.67055 0.75942 0.80069 0.0
H930 H 0.69016 0.73906 0.71531 0.0
H931 H 0.73154 0.72316 0.66091 0.0
H932 H 0.81875 0.73201 0.72525 0.0
H933 H 0.79917 0.7526 0.81047 0.0
C934 C 0.74286 0.7621 0.83241 0.0
C935 C 0.71261 0.76537 0.83935 0.0
C936 C 0.7542 0.75008 0.78417 0.0
C937 C 0.69385 0.75721 0.79641 0.0
C938 C 0.70505 0.74543 0.74781 0.0
C939 C 0.74645 0.72947 0.69346 0.0
C940 C 0.77669 0.72605 0.68662 0.0
C941 C 0.73513 0.74157 0.74163 0.0
C942 C 0.79546 0.73431 0.72948 0.0
C943 C 0.78427 0.74621 0.77799 0.0
H944 H 0.75774 0.26752 0.1606 0.0
H945 H 0.67053 0.25904 0.22519 0.0
H946 H 0.6901 0.23884 0.3107 0.0
H947 H 0.73149 0.22315 0.36529 0.0
H948 H 0.81869 0.23163 0.30065 0.0
H949 H 0.79911 0.25182 0.21516 0.0
C950 C 0.74283 0.26137 0.19327 0.0
C951 C 0.71259 0.26476 0.1864 0.0
C952 C 0.75415 0.24948 0.24159 0.0
C953 C 0.69382 0.25674 0.22943 0.0
C954 C 0.705 0.24506 0.2781 0.0
C955 C 0.74639 0.22929 0.33261 0.0
C956 C 0.77663 0.22591 0.33947 0.0
C957 C 0.73507 0.24118 0.28428 0.0
C958 C 0.7954 0.23392 0.29643 0.0
C959 C 0.78422 0.2456 0.24776 0.0
H960 H 0.01417 0.98218 0.90926 0.0
H961 H 0.00901 0.06944 0.97511 0.0
H962 H 0.99003 0.0499 0.06182 0.0
H963 H 0.97462 0.00853 0.11727 0.0
H964 H 0.97979 0.92128 0.05137 0.0
H965 H -0.00126 0.94082 0.96466 0.0
C966 C 0.00901 -0.0029 0.94245 0.0
C967 C 0.01299 0.02734 0.93562 0.0
C968 C -0.00211 0.98581 -0.00846 0.0
C969 C 0.00622 0.04614 0.9793 0.0
C970 C -0.00474 0.03499 0.02869 0.0
C971 C 0.97978 0.99361 0.08407 0.0
C972 C 0.97582 0.96337 0.09089 0.0
C973 C 0.99089 0.00491 0.03496 0.0
C974 C 0.98258 0.94458 0.04719 0.0
C975 C 0.99351 0.95573 -0.0022 0.0
H976 H 0.51448 0.98191 0.61682 0.0
H977 H 0.50997 0.06918 0.55095 0.0
H978 H 0.49093 0.04974 0.46423 0.0
H979 H 0.47519 0.00848 0.40883 0.0
H980 H 0.47966 0.92121 0.4747 0.0
H981 H 0.49878 0.94063 0.56137 0.0
C982 C 0.50945 -0.00315 0.58362 0.0
C983 C 0.51363 0.02706 0.59046 0.0
C984 C 0.49828 0.98562 0.53451 0.0
C985 C 0.50702 0.04589 0.54677 0.0
C986 C 0.49603 0.0348 0.49737 0.0
C987 C 0.48024 0.99353 0.44201 0.0
C988 C 0.47601 0.96333 0.43521 0.0
C989 C 0.49144 0.00475 0.4911 0.0
C990 C 0.48264 0.94449 0.47887 0.0
C991 C 0.49368 0.95558 0.52824 0.0
H992 H 0.20991 0.23258 0.6737 0.0
H993 H 0.23736 0.3194 0.71916 0.0
H994 H 0.26353 0.29954 0.79841 0.0
H995 H 0.27969 0.25774 0.85186 0.0
H996 H 0.25224 0.17092 0.80641 0.0
H997 H 0.22608 0.19078 0.72714 0.0
C998 C 0.22146 0.24733 0.70101 0.0
C999 C 0.22171 0.27753 0.69041 0.0
C1000 C 0.23707 0.23573 0.74514 0.0
C1001 C 0.23658 0.29618 0.7266 0.0
C1002 C 0.25183 0.28478 0.77141 0.0
C1003 C 0.26814 0.24299 0.82455 0.0
C1004 C 0.26788 0.21279 0.83516 0.0
C1005 C 0.25254 0.25459 0.78041 0.0
C1006 C 0.25302 0.19413 0.79896 0.0
C1007 C 0.23777 0.20553 0.75414 0.0
H1008 H 0.5065 0.45803 0.92688 0.0
H1009 H 0.42077 0.48964 0.96693 0.0
H1010 H 0.44104 0.51668 0.04505 0.0
H1011 H 0.48301 0.53255 0.09864 0.0
H1012 H 0.56874 0.50094 0.05863 0.0
H1013 H 0.54847 0.47387 0.98053 0.0
C1014 C 0.49208 0.47066 0.95282 0.0
C1015 C 0.4621 0.47188 0.94101 0.0
C1016 C 0.50397 0.48682 -0.00389 0.0
C1017 C 0.44381 0.48811 0.97542 0.0
C1018 C 0.45547 0.50388 0.01949 0.0
C1019 C 0.49743 0.51991 0.07272 0.0
C1020 C 0.52742 0.5187 0.08453 0.0
C1021 C 0.48554 0.50374 0.02945 0.0
C1022 C 0.5457 0.50246 0.05014 0.0
C1023 C 0.53404 0.48667 0.00608 0.0
H1024 H 0.2106 0.73246 0.35334 0.0
H1025 H 0.23615 0.81955 0.30601 0.0
H1026 H 0.26206 0.79983 0.22625 0.0
H1027 H 0.2785 0.75811 0.17278 0.0
H1028 H 0.25292 0.67101 0.22008 0.0
H1029 H 0.22704 0.69073 0.29987 0.0
C1030 C 0.22168 0.7473 0.32554 0.0
C1031 C 0.22148 0.77754 0.33575 0.0
C1032 C 0.23712 0.73579 0.28105 0.0
C1033 C 0.23574 0.79629 0.2989 0.0
C1034 C 0.25084 0.78498 0.25377 0.0
C1035 C 0.26742 0.74327 0.20059 0.0
C1036 C 0.26761 0.71302 0.19035 0.0
C1037 C 0.25198 0.75477 0.24508 0.0
C1038 C 0.25335 0.69427 0.2272 0.0
C1039 C 0.23826 0.70558 0.27235 0.0
H1040 H 0.98331 0.53247 0.42767 0.0
H1041 H 0.06898 0.50069 0.46752 0.0
H1042 H 0.04866 0.4737 0.54566 0.0
H1043 H 0.00665 0.45791 0.5993 0.0
H1044 H 0.92099 0.48966 0.55937 0.0
H1045 H 0.94131 0.51669 0.48131 0.0
C1046 C -0.00229 0.5198 0.45357 0.0
C1047 C 0.02769 0.51852 0.4417 0.0
C1048 C 0.98579 0.50367 0.49685 0.0
C1049 C 0.04594 0.50227 0.47606 0.0
C1050 C 0.03426 0.48652 0.52014 0.0
C1051 C 0.99226 0.47058 0.5734 0.0
C1052 C 0.96227 0.47183 0.58522 0.0
C1053 C 0.00419 0.48672 0.53014 0.0
C1054 C 0.94403 0.4881 0.55087 0.0
C1055 C 0.95571 0.50387 0.50683 0.0
H1056 H 0.7113 0.73164 0.1723 0.0
H1057 H 0.73583 0.81885 0.22095 0.0
H1058 H 0.76177 0.79916 0.30059 0.0
H1059 H 0.77844 0.75751 0.3537 0.0
H1060 H 0.7537 0.67028 0.3056 0.0
H1061 H 0.72793 0.68992 0.22564 0.0
C1062 C 0.72216 0.74651 0.20038 0.0
C1063 C 0.72165 0.77679 0.19057 0.0
C1064 C 0.73758 0.73503 0.24491 0.0
C1065 C 0.73565 0.79557 0.22773 0.0
C1066 C 0.75077 0.78428 0.27281 0.0
C1067 C 0.76756 0.74261 0.32571 0.0
C1068 C 0.76795 0.71236 0.33577 0.0
C1069 C 0.75216 0.75407 0.28118 0.0
C1070 C 0.75395 0.69355 0.29864 0.0
C1071 C 0.73893 0.70481 0.25339 0.0
H1072 H 0.77927 0.25819 0.6734 0.0
H1073 H 0.75261 0.17125 0.71955 0.0
H1074 H 0.72651 0.19104 0.799 0.0
H1075 H 0.71019 0.2328 0.85247 0.0
H1076 H 0.73687 0.31975 0.80641 0.0
H1077 H 0.76297 0.29996 0.72693 0.0
C1078 C 0.76791 0.2434 0.7009 0.0
C1079 C 0.76786 0.21318 0.69043 0.0
C1080 C 0.75235 0.25496 0.74519 0.0
C1081 C 0.75323 0.19449 0.72687 0.0
C1082 C 0.73801 0.20584 0.77181 0.0
C1083 C 0.72156 0.2476 0.82499 0.0
C1084 C 0.72162 0.27781 0.83549 0.0
C1085 C 0.73712 0.23604 0.78071 0.0
C1086 C 0.73625 0.29651 0.79907 0.0
C1087 C 0.75146 0.28516 0.75411 0.0
H1088 H 0.0065 0.9582 0.4271 0.0
H1089 H 0.92058 0.98904 0.4679 0.0
H1090 H 0.94076 0.01609 0.54607 0.0
H1091 H 0.98268 0.03218 0.59954 0.0
H1092 H 0.06859 0.00132 0.55886 0.0
H1093 H 0.04842 0.97425 0.48068 0.0
C1094 C 0.99202 0.97067 0.45321 0.0
C1095 C 0.962 0.97167 0.44159 0.0
C1096 C 0.00385 0.98682 0.49657 0.0
C1097 C 0.94365 0.98768 0.47622 0.0
C1098 C 0.95525 0.00346 0.52033 0.0
C1099 C -0.00284 0.0197 0.57347 0.0
C1100 C 0.02717 0.01871 0.58511 0.0
C1101 C 0.98533 0.00353 0.53013 0.0
C1102 C 0.04553 0.00267 0.55052 0.0
C1103 C 0.03393 0.98688 0.5064 0.0
H1104 H 0.48254 0.03215 0.92657 0.0
H1105 H 0.56838 0.00124 0.9675 0.0
H1106 H 0.54811 0.97426 0.04566 0.0
H1107 H 0.50615 0.95829 0.09915 0.0
H1108 H 0.4203 0.98928 0.05844 0.0
H1109 H 0.44055 0.01622 0.98018 0.0
C1110 C 0.49698 0.01968 0.95271 0.0
C1111 C 0.527 0.01865 0.94114 0.0
C1112 C 0.48509 0.00358 -0.00391 0.0
C1113 C 0.54531 0.00263 0.9758 0.0
C1114 C 0.53366 0.98689 0.01991 0.0
C1115 C 0.49169 0.97077 0.07306 0.0
C1116 C 0.46168 0.97184 0.08472 0.0
C1117 C 0.50357 0.98688 0.02969 0.0
C1118 C 0.44336 0.98787 0.05009 0.0
C1119 C 0.455 0.00358 0.00592 0.0
loop_
_geom_bond_atom_site_label_1
_geom_bond_atom_site_label_2
_geom_bond_distance
_geom_bond_site_symmetry_2
_ccdc_geom_bond_type
Sc0 O3 2.025 . S
Sc0 O10 2.105 . S
Sc0 O13 2.105 . S
Sc0 O16 2.105 . S
Sc0 O19 2.105 1_554 S
Sc1 O3 2.025 1_556 S
Sc1 O11 2.105 . S
Sc1 O15 2.105 1_556 S
Sc1 O17 2.105 . S
Sc1 O21 2.105 . S
Sc2 O3 2.025 . S
Sc2 O12 2.105 . S
Sc2 O14 2.105 . S
Sc2 O18 2.105 . S
Sc2 O20 2.105 . S
O3 Sc0 2.025 . S
O3 Sc1 2.025 1_554 S
O3 Sc2 2.025 . S
C4 O10 1.268 . S
C4 O20 1.268 . S
C5 O11 1.268 . S
C5 O19 1.268 . S
C6 O12 1.268 1_556 S
C6 O21 1.268 . S
C7 O13 1.268 . S
C7 O17 1.268 1_554 S
C8 O14 1.268 . S
C8 O16 1.268 . S
C9 O15 1.268 . S
C9 O18 1.268 . S
O10 Sc0 2.105 . S
O10 C4 1.268 . S
O11 Sc1 2.105 . S
O11 C5 1.268 . S
O12 Sc2 2.105 . S
O12 C6 1.268 1_554 S
O13 Sc0 2.105 . S
O13 C7 1.268 . S
O14 Sc2 2.105 . S
O14 C8 1.268 . S
O15 Sc1 2.105 1_554 S
O15 C9 1.268 . S
O16 Sc0 2.105 . S
O16 C8 1.268 . S
O17 Sc1 2.105 . S
O17 C7 1.268 1_556 S
O18 Sc2 2.105 . S
O18 C9 1.268 . S
O19 Sc0 2.105 1_556 S
O19 C5 1.268 . S
O20 Sc2 2.105 . S
O20 C4 1.268 . S
O21 Sc1 2.105 . S
O21 C6 1.268 . S
Sc22 O25 2.025 . S
Sc22 O32 2.105 . S
Sc22 O35 2.105 . S
Sc22 O38 2.105 . S
Sc22 O41 2.105 . S
Sc23 O25 2.025 . S
Sc23 O33 2.105 . S
Sc23 O37 2.105 . S
Sc23 O39 2.105 . S
Sc23 O43 2.105 . S
Sc24 O25 2.025 . S
Sc24 O34 2.105 . S
Sc24 O36 2.105 . S
Sc24 O40 2.105 . S
Sc24 O42 2.105 . S
O25 Sc22 2.025 . S
O25 Sc23 2.025 . S
O25 Sc24 2.025 . S
C26 O32 1.268 . S
C26 O42 1.268 . S
C27 O33 1.268 . S
C27 O41 1.268 . S
C28 O34 1.268 . S
C28 O43 1.268 . S
C29 O35 1.268 . S
C29 O39 1.268 . S
C30 O36 1.268 . S
C30 O38 1.268 . S
C31 O37 1.268 . S
C31 O40 1.268 . S
O32 Sc22 2.105 . S
O32 C26 1.268 . S
O33 Sc23 2.105 . S
O33 C27 1.268 . S
O34 Sc24 2.105 . S
O34 C28 1.268 . S
O35 Sc22 2.105 . S
O35 C29 1.268 . S
O36 Sc24 2.105 . S
O36 C30 1.268 . S
O37 Sc23 2.105 . S
O37 C31 1.268 . S
O38 Sc22 2.105 . S
O38 C30 1.268 . S
O39 Sc23 2.105 . S
O39 C29 1.268 . S
O40 Sc24 2.105 . S
O40 C31 1.268 . S
O41 Sc22 2.105 . S
O41 C27 1.268 . S
O42 Sc24 2.105 . S
O42 C26 1.268 . S
O43 Sc23 2.105 . S
O43 C28 1.268 . S
Sc44 O47 2.025 . S
Sc44 O54 2.105 . S
Sc44 O57 2.105 . S
Sc44 O60 2.105 . S
Sc44 O63 2.105 . S
Sc45 O47 2.025 . S
Sc45 O55 2.105 . S
Sc45 O59 2.105 . S
Sc45 O61 2.105 . S
Sc45 O65 2.105 . S
Sc46 O47 2.025 . S
Sc46 O56 2.105 . S
Sc46 O58 2.105 . S
Sc46 O62 2.105 . S
Sc46 O64 2.105 . S
O47 Sc44 2.025 . S
O47 Sc45 2.025 . S
O47 Sc46 2.025 . S
C48 O54 1.268 . S
C48 O64 1.268 . S
C49 O55 1.268 . S
C49 O63 1.268 . S
C50 O56 1.268 . S
C50 O65 1.268 . S
C51 O57 1.268 . S
C51 O61 1.268 . S
C52 O58 1.268 . S
C52 O60 1.268 . S
C53 O59 1.268 . S
C53 O62 1.268 . S
O54 Sc44 2.105 . S
O54 C48 1.268 . S
O55 Sc45 2.105 . S
O55 C49 1.268 . S
O56 Sc46 2.105 . S
O56 C50 1.268 . S
O57 Sc44 2.105 . S
O57 C51 1.268 . S
O58 Sc46 2.105 . S
O58 C52 1.268 . S
O59 Sc45 2.105 . S
O59 C53 1.268 . S
O60 Sc44 2.105 . S
O60 C52 1.268 . S
O61 Sc45 2.105 . S
O61 C51 1.268 . S
O62 Sc46 2.105 . S
O62 C53 1.268 . S
O63 Sc44 2.105 . S
O63 C49 1.268 . S
O64 Sc46 2.105 . S
O64 C48 1.268 . S
O65 Sc45 2.105 . S
O65 C50 1.268 . S
Sc66 O69 2.025 . S
Sc66 O76 2.105 1_655 S
Sc66 O79 2.105 . S
Sc66 O82 2.105 . S
Sc66 O85 2.105 . S
Sc67 O69 2.025 . S
Sc67 O77 2.105 . S
Sc67 O81 2.105 . S
Sc67 O83 2.105 . S
Sc67 O87 2.105 . S
Sc68 O69 2.025 . S
Sc68 O78 2.105 . S
Sc68 O80 2.105 . S
Sc68 O84 2.105 . S
Sc68 O86 2.105 . S
O69 Sc66 2.025 . S
O69 Sc67 2.025 . S
O69 Sc68 2.025 . S
C70 O76 1.268 . S
C70 O86 1.268 1_455 S
C71 O77 1.268 . S
C71 O85 1.268 . S
C72 O78 1.268 . S
C72 O87 1.268 . S
C73 O79 1.268 . S
C73 O83 1.268 . S
C74 O80 1.268 . S
C74 O82 1.268 . S
C75 O81 1.268 . S
C75 O84 1.268 . S
O76 Sc66 2.105 1_455 S
O76 C70 1.268 . S
O77 Sc67 2.105 . S
O77 C71 1.268 . S
O78 Sc68 2.105 . S
O78 C72 1.268 . S
O79 Sc66 2.105 . S
O79 C73 1.268 . S
O80 Sc68 2.105 . S
O80 C74 1.268 . S
O81 Sc67 2.105 . S
O81 C75 1.268 . S
O82 Sc66 2.105 . S
O82 C74 1.268 . S
O83 Sc67 2.105 . S
O83 C73 1.268 . S
O84 Sc68 2.105 . S
O84 C75 1.268 . S
O85 Sc66 2.105 . S
O85 C71 1.268 . S
O86 Sc68 2.105 . S
O86 C70 1.268 1_655 S
O87 Sc67 2.105 . S
O87 C72 1.268 . S
Sc88 O91 2.025 . S
Sc88 O98 2.105 1_554 S
Sc88 O101 2.105 . S
Sc88 O104 2.105 . S
Sc88 O107 2.105 . S
Sc89 O91 2.025 . S
Sc89 O99 2.105 . S
Sc89 O103 2.105 . S
Sc89 O105 2.105 . S
Sc89 O109 2.105 . S
Sc90 O91 2.025 1_556 S
Sc90 O100 2.105 . S
Sc90 O102 2.105 1_556 S
Sc90 O106 2.105 1_556 S
Sc90 O108 2.105 . S
O91 Sc88 2.025 . S
O91 Sc89 2.025 . S
O91 Sc90 2.025 1_554 S
C92 O98 1.268 . S
C92 O108 1.268 . S
C93 O99 1.268 . S
C93 O107 1.268 . S
C94 O100 1.268 . S
C94 O109 1.268 1_556 S
C95 O101 1.268 . S
C95 O105 1.268 . S
C96 O102 1.268 . S
C96 O104 1.268 . S
C97 O103 1.268 . S
C97 O106 1.268 . S
O98 Sc88 2.105 1_556 S
O98 C92 1.268 . S
O99 Sc89 2.105 . S
O99 C93 1.268 . S
O100 Sc90 2.105 . S
O100 C94 1.268 . S
O101 Sc88 2.105 . S
O101 C95 1.268 . S
O102 Sc90 2.105 1_554 S
O102 C96 1.268 . S
O103 Sc89 2.105 . S
O103 C97 1.268 . S
O104 Sc88 2.105 . S
O104 C96 1.268 . S
O105 Sc89 2.105 . S
O105 C95 1.268 . S
O106 Sc90 2.105 1_554 S
O106 C97 1.268 . S
O107 Sc88 2.105 . S
O107 C93 1.268 . S
O108 Sc90 2.105 . S
O108 C92 1.268 . S
O109 Sc89 2.105 . S
O109 C94 1.268 1_554 S
Sc110 O113 2.025 . S
Sc110 O120 2.105 . S
Sc110 O123 2.105 . S
Sc110 O126 2.105 . S
Sc110 O129 2.105 . S
Sc111 O113 2.025 . S
Sc111 O121 2.105 . S
Sc111 O125 2.105 . S
Sc111 O127 2.105 . S
Sc111 O131 2.105 . S
Sc112 O113 2.025 . S
Sc112 O122 2.105 . S
Sc112 O124 2.105 . S
Sc112 O128 2.105 . S
Sc112 O130 2.105 . S
O113 Sc110 2.025 . S
O113 Sc111 2.025 . S
O113 Sc112 2.025 . S
C114 O120 1.268 . S
C114 O130 1.268 . S
C115 O121 1.268 . S
C115 O129 1.268 . S
C116 O122 1.268 . S
C116 O131 1.268 . S
C117 O123 1.268 . S
C117 O127 1.268 . S
C118 O124 1.268 . S
C118 O126 1.268 . S
C119 O125 1.268 . S
C119 O128 1.268 . S
O120 Sc110 2.105 . S
O120 C114 1.268 . S
O121 Sc111 2.105 . S
O121 C115 1.268 . S
O122 Sc112 2.105 . S
O122 C116 1.268 . S
O123 Sc110 2.105 . S
O123 C117 1.268 . S
O124 Sc112 2.105 . S
O124 C118 1.268 . S
O125 Sc111 2.105 . S
O125 C119 1.268 . S
O126 Sc110 2.105 . S
O126 C118 1.268 . S
O127 Sc111 2.105 . S
O127 C117 1.268 . S
O128 Sc112 2.105 . S
O128 C119 1.268 . S
O129 Sc110 2.105 . S
O129 C115 1.268 . S
O130 Sc112 2.105 . S
O130 C114 1.268 . S
O131 Sc111 2.105 . S
O131 C116 1.268 . S
Sc132 O135 2.025 . S
Sc132 O142 2.105 . S
Sc132 O145 2.105 . S
Sc132 O148 2.105 . S
Sc132 O151 2.105 . S
Sc133 O135 2.025 . S
Sc133 O143 2.105 . S
Sc133 O147 2.105 . S
Sc133 O149 2.105 . S
Sc133 O153 2.105 . S
Sc134 O135 2.025 . S
Sc134 O144 2.105 . S
Sc134 O146 2.105 . S
Sc134 O150 2.105 . S
Sc134 O152 2.105 . S
O135 Sc132 2.025 . S
O135 Sc133 2.025 . S
O135 Sc134 2.025 . S
C136 O142 1.268 . S
C136 O152 1.268 . S
C137 O143 1.268 . S
C137 O151 1.268 . S
C138 O144 1.268 . S
C138 O153 1.268 . S
C139 O145 1.268 . S
C139 O149 1.268 . S
C140 O146 1.268 . S
C140 O148 1.268 . S
C141 O147 1.268 . S
C141 O150 1.268 . S
O142 Sc132 2.105 . S
O142 C136 1.268 . S
O143 Sc133 2.105 . S
O143 C137 1.268 . S
O144 Sc134 2.105 . S
O144 C138 1.268 . S
O145 Sc132 2.105 . S
O145 C139 1.268 . S
O146 Sc134 2.105 . S
O146 C140 1.268 . S
O147 Sc133 2.105 . S
O147 C141 1.268 . S
O148 Sc132 2.105 . S
O148 C140 1.268 . S
O149 Sc133 2.105 . S
O149 C139 1.268 . S
O150 Sc134 2.105 . S
O150 C141 1.268 . S
O151 Sc132 2.105 . S
O151 C137 1.268 . S
O152 Sc134 2.105 . S
O152 C136 1.268 . S
O153 Sc133 2.105 . S
O153 C138 1.268 . S
Sc154 O157 2.025 . S
Sc154 O164 2.105 . S
Sc154 O167 2.105 . S
Sc154 O170 2.105 . S
Sc154 O173 2.105 . S
Sc155 O157 2.025 . S
Sc155 O165 2.105 . S
Sc155 O169 2.105 . S
Sc155 O171 2.105 . S
Sc155 O175 2.105 . S
Sc156 O157 2.025 . S
Sc156 O166 2.105 . S
Sc156 O168 2.105 . S
Sc156 O172 2.105 . S
Sc156 O174 2.105 1_455 S
O157 Sc154 2.025 . S
O157 Sc155 2.025 . S
O157 Sc156 2.025 . S
C158 O164 1.268 1_655 S
C158 O174 1.268 . S
C159 O165 1.268 . S
C159 O173 1.268 . S
C160 O166 1.268 . S
C160 O175 1.268 . S
C161 O167 1.268 . S
C161 O171 1.268 . S
C162 O168 1.268 . S
C162 O170 1.268 . S
C163 O169 1.268 . S
C163 O172 1.268 . S
O164 Sc154 2.105 . S
O164 C158 1.268 1_455 S
O165 Sc155 2.105 . S
O165 C159 1.268 . S
O166 Sc156 2.105 . S
O166 C160 1.268 . S
O167 Sc154 2.105 . S
O167 C161 1.268 . S
O168 Sc156 2.105 . S
O168 C162 1.268 . S
O169 Sc155 2.105 . S
O169 C163 1.268 . S
O170 Sc154 2.105 . S
O170 C162 1.268 . S
O171 Sc155 2.105 . S
O171 C161 1.268 . S
O172 Sc156 2.105 . S
O172 C163 1.268 . S
O173 Sc154 2.105 . S
O173 C159 1.268 . S
O174 Sc156 2.105 1_655 S
O174 C158 1.268 . S
O175 Sc155 2.105 . S
O175 C160 1.268 . S
Sc176 O179 2.025 . S
Sc176 O186 2.105 . S
Sc176 O189 2.105 . S
Sc176 O192 2.105 . S
Sc176 O195 2.105 . S
Sc177 O179 2.025 . S
Sc177 O187 2.105 . S
Sc177 O191 2.105 . S
Sc177 O193 2.105 . S
Sc177 O197 2.105 . S
Sc178 O179 2.025 . S
Sc178 O188 2.105 . S
Sc178 O190 2.105 . S
Sc178 O194 2.105 . S
Sc178 O196 2.105 . S
O179 Sc176 2.025 . S
O179 Sc177 2.025 . S
O179 Sc178 2.025 . S
C180 O186 1.268 . S
C180 O196 1.268 . S
C181 O187 1.268 . S
C181 O195 1.268 . S
C182 O188 1.268 . S
C182 O197 1.268 . S
C183 O189 1.268 . S
C183 O193 1.268 . S
C184 O190 1.268 . S
C184 O192 1.268 . S
C185 O191 1.268 . S
C185 O194 1.268 . S
O186 Sc176 2.105 . S
O186 C180 1.268 . S
O187 Sc177 2.105 . S
O187 C181 1.268 . S
O188 Sc178 2.105 . S
O188 C182 1.268 . S
O189 Sc176 2.105 . S
O189 C183 1.268 . S
O190 Sc178 2.105 . S
O190 C184 1.268 . S
O191 Sc177 2.105 . S
O191 C185 1.268 . S
O192 Sc176 2.105 . S
O192 C184 1.268 . S
O193 Sc177 2.105 . S
O193 C183 1.268 . S
O194 Sc178 2.105 . S
O194 C185 1.268 . S
O195 Sc176 2.105 . S
O195 C181 1.268 . S
O196 Sc178 2.105 . S
O196 C180 1.268 . S
O197 Sc177 2.105 . S
O197 C182 1.268 . S
Sc198 O201 2.025 . S
Sc198 O208 2.105 . S
Sc198 O211 2.105 . S
Sc198 O214 2.105 . S
Sc198 O217 2.105 . S
Sc199 O201 2.025 . S
Sc199 O209 2.105 . S
Sc199 O213 2.105 . S
Sc199 O215 2.105 . S
Sc199 O219 2.105 . S
Sc200 O201 2.025 . S
Sc200 O210 2.105 1_545 S
Sc200 O212 2.105 1_455 S
Sc200 O216 2.105 . S
Sc200 O218 2.105 . S
O201 Sc198 2.025 . S
O201 Sc199 2.025 . S
O201 Sc200 2.025 . S
C202 O208 1.268 . S
C202 O218 1.268 . S
C203 O209 1.268 . S
C203 O217 1.268 . S
C204 O210 1.268 . S
C204 O219 1.268 1_565 S
C205 O211 1.268 . S
C205 O215 1.268 . S
C206 O212 1.268 . S
C206 O214 1.268 1_655 S
C207 O213 1.268 . S
C207 O216 1.268 . S
O208 Sc198 2.105 . S
O208 C202 1.268 . S
O209 Sc199 2.105 . S
O209 C203 1.268 . S
O210 Sc200 2.105 1_565 S
O210 C204 1.268 . S
O211 Sc198 2.105 . S
O211 C205 1.268 . S
O212 Sc200 2.105 1_655 S
O212 C206 1.268 . S
O213 Sc199 2.105 . S
O213 C207 1.268 . S
O214 Sc198 2.105 . S
O214 C206 1.268 1_455 S
O215 Sc199 2.105 . S
O215 C205 1.268 . S
O216 Sc200 2.105 . S
O216 C207 1.268 . S
O217 Sc198 2.105 . S
O217 C203 1.268 . S
O218 Sc200 2.105 . S
O218 C202 1.268 . S
O219 Sc199 2.105 . S
O219 C204 1.268 1_545 S
Sc220 O223 2.025 . S
Sc220 O230 2.105 . S
Sc220 O233 2.105 . S
Sc220 O236 2.105 . S
Sc220 O239 2.105 . S
Sc221 O223 2.025 1_556 S
Sc221 O231 2.105 1_556 S
Sc221 O235 2.105 . S
Sc221 O237 2.105 . S
Sc221 O241 2.105 . S
Sc222 O223 2.025 . S
Sc222 O232 2.105 . S
Sc222 O234 2.105 . S
Sc222 O238 2.105 1_554 S
Sc222 O240 2.105 . S
O223 Sc220 2.025 . S
O223 Sc221 2.025 1_554 S
O223 Sc222 2.025 . S
C224 O230 1.268 . S
C224 O240 1.268 . S
C225 O231 1.268 . S
C225 O239 1.268 . S
C226 O232 1.268 . S
C226 O241 1.268 1_554 S
C227 O233 1.268 1_556 S
C227 O237 1.268 . S
C228 O234 1.268 . S
C228 O236 1.268 . S
C229 O235 1.268 . S
C229 O238 1.268 . S
O230 Sc220 2.105 . S
O230 C224 1.268 . S
O231 Sc221 2.105 1_554 S
O231 C225 1.268 . S
O232 Sc222 2.105 . S
O232 C226 1.268 . S
O233 Sc220 2.105 . S
O233 C227 1.268 1_554 S
O234 Sc222 2.105 . S
O234 C228 1.268 . S
O235 Sc221 2.105 . S
O235 C229 1.268 . S
O236 Sc220 2.105 . S
O236 C228 1.268 . S
O237 Sc221 2.105 . S
O237 C227 1.268 . S
O238 Sc222 2.105 1_556 S
O238 C229 1.268 . S
O239 Sc220 2.105 . S
O239 C225 1.268 . S
O240 Sc222 2.105 . S
O240 C224 1.268 . S
O241 Sc221 2.105 . S
O241 C226 1.268 1_556 S
Sc242 O245 2.025 . S
Sc242 O252 2.105 . S
Sc242 O255 2.105 1_565 S
Sc242 O258 2.105 . S
Sc242 O261 2.105 . S
Sc243 O245 2.025 . S
Sc243 O253 2.105 . S
Sc243 O257 2.105 . S
Sc243 O259 2.105 . S
Sc243 O263 2.105 . S
Sc244 O245 2.025 . S
Sc244 O254 2.105 . S
Sc244 O256 2.105 . S
Sc244 O260 2.105 . S
Sc244 O262 2.105 . S
O245 Sc242 2.025 . S
O245 Sc243 2.025 . S
O245 Sc244 2.025 . S
C246 O252 1.268 . S
C246 O262 1.268 . S
C247 O253 1.268 . S
C247 O261 1.268 . S
C248 O254 1.268 . S
C248 O263 1.268 . S
C249 O255 1.268 . S
C249 O259 1.268 1_545 S
C250 O256 1.268 . S
C250 O258 1.268 . S
C251 O257 1.268 . S
C251 O260 1.268 . S
O252 Sc242 2.105 . S
O252 C246 1.268 . S
O253 Sc243 2.105 . S
O253 C247 1.268 . S
O254 Sc244 2.105 . S
O254 C248 1.268 . S
O255 Sc242 2.105 1_545 S
O255 C249 1.268 . S
O256 Sc244 2.105 . S
O256 C250 1.268 . S
O257 Sc243 2.105 . S
O257 C251 1.268 . S
O258 Sc242 2.105 . S
O258 C250 1.268 . S
O259 Sc243 2.105 . S
O259 C249 1.268 1_565 S
O260 Sc244 2.105 . S
O260 C251 1.268 . S
O261 Sc242 2.105 . S
O261 C247 1.268 . S
O262 Sc244 2.105 . S
O262 C246 1.268 . S
O263 Sc243 2.105 . S
O263 C248 1.268 . S
Sc264 O267 2.025 . S
Sc264 O274 2.105 . S
Sc264 O277 2.105 . S
Sc264 O280 2.105 . S
Sc264 O283 2.105 . S
Sc265 O267 2.025 . S
Sc265 O275 2.105 . S
Sc265 O279 2.105 . S
Sc265 O281 2.105 . S
Sc265 O285 2.105 . S
Sc266 O267 2.025 . S
Sc266 O276 2.105 . S
Sc266 O278 2.105 . S
Sc266 O282 2.105 . S
Sc266 O284 2.105 . S
O267 Sc264 2.025 . S
O267 Sc265 2.025 . S
O267 Sc266 2.025 . S
C268 O274 1.268 . S
C268 O284 1.268 . S
C269 O275 1.268 . S
C269 O283 1.268 . S
C270 O276 1.268 . S
C270 O285 1.268 . S
C271 O277 1.268 . S
C271 O281 1.268 . S
C272 O278 1.268 . S
C272 O280 1.268 . S
C273 O279 1.268 . S
C273 O282 1.268 . S
O274 Sc264 2.105 . S
O274 C268 1.268 . S
O275 Sc265 2.105 . S
O275 C269 1.268 . S
O276 Sc266 2.105 . S
O276 C270 1.268 . S
O277 Sc264 2.105 . S
O277 C271 1.268 . S
O278 Sc266 2.105 . S
O278 C272 1.268 . S
O279 Sc265 2.105 . S
O279 C273 1.268 . S
O280 Sc264 2.105 . S
O280 C272 1.268 . S
O281 Sc265 2.105 . S
O281 C271 1.268 . S
O282 Sc266 2.105 . S
O282 C273 1.268 . S
O283 Sc264 2.105 . S
O283 C269 1.268 . S
O284 Sc266 2.105 . S
O284 C268 1.268 . S
O285 Sc265 2.105 . S
O285 C270 1.268 . S
Sc286 O289 2.025 . S
Sc286 O296 2.105 . S
Sc286 O299 2.105 . S
Sc286 O302 2.105 1_655 S
Sc286 O305 2.105 1_565 S
Sc287 O289 2.025 . S
Sc287 O297 2.105 . S
Sc287 O301 2.105 . S
Sc287 O303 2.105 . S
Sc287 O307 2.105 . S
Sc288 O289 2.025 . S
Sc288 O298 2.105 . S
Sc288 O300 2.105 . S
Sc288 O304 2.105 . S
Sc288 O306 2.105 . S
O289 Sc286 2.025 . S
O289 Sc287 2.025 . S
O289 Sc288 2.025 . S
C290 O296 1.268 . S
C290 O306 1.268 . S
C291 O297 1.268 1_545 S
C291 O305 1.268 . S
C292 O298 1.268 . S
C292 O307 1.268 . S
C293 O299 1.268 . S
C293 O303 1.268 . S
C294 O300 1.268 1_455 S
C294 O302 1.268 . S
C295 O301 1.268 . S
C295 O304 1.268 . S
O296 Sc286 2.105 . S
O296 C290 1.268 . S
O297 Sc287 2.105 . S
O297 C291 1.268 1_565 S
O298 Sc288 2.105 . S
O298 C292 1.268 . S
O299 Sc286 2.105 . S
O299 C293 1.268 . S
O300 Sc288 2.105 . S
O300 C294 1.268 1_655 S
O301 Sc287 2.105 . S
O301 C295 1.268 . S
O302 Sc286 2.105 1_455 S
O302 C294 1.268 . S
O303 Sc287 2.105 . S
O303 C293 1.268 . S
O304 Sc288 2.105 . S
O304 C295 1.268 . S
O305 Sc286 2.105 1_545 S
O305 C291 1.268 . S
O306 Sc288 2.105 . S
O306 C290 1.268 . S
O307 Sc287 2.105 . S
O307 C292 1.268 . S
Sc308 O311 2.025 1_556 S
Sc308 O318 2.105 1_556 S
Sc308 O321 2.105 . S
Sc308 O324 2.105 . S
Sc308 O327 2.105 1_556 S
Sc309 O311 2.025 . S
Sc309 O319 2.105 . S
Sc309 O323 2.105 . S
Sc309 O325 2.105 . S
Sc309 O329 2.105 . S
Sc310 O311 2.025 . S
Sc310 O320 2.105 . S
Sc310 O322 2.105 1_554 S
Sc310 O326 2.105 . S
Sc310 O328 2.105 . S
O311 Sc308 2.025 1_554 S
O311 Sc309 2.025 . S
O311 Sc310 2.025 . S
C312 O318 1.268 . S
C312 O328 1.268 . S
C313 O319 1.268 . S
C313 O327 1.268 . S
C314 O320 1.268 . S
C314 O329 1.268 . S
C315 O321 1.268 . S
C315 O325 1.268 1_556 S
C316 O322 1.268 . S
C316 O324 1.268 . S
C317 O323 1.268 . S
C317 O326 1.268 . S
O318 Sc308 2.105 1_554 S
O318 C312 1.268 . S
O319 Sc309 2.105 . S
O319 C313 1.268 . S
O320 Sc310 2.105 . S
O320 C314 1.268 . S
O321 Sc308 2.105 . S
O321 C315 1.268 . S
O322 Sc310 2.105 1_556 S
O322 C316 1.268 . S
O323 Sc309 2.105 . S
O323 C317 1.268 . S
O324 Sc308 2.105 . S
O324 C316 1.268 . S
O325 Sc309 2.105 . S
O325 C315 1.268 1_554 S
O326 Sc310 2.105 . S
O326 C317 1.268 . S
O327 Sc308 2.105 1_554 S
O327 C313 1.268 . S
O328 Sc310 2.105 . S
O328 C312 1.268 . S
O329 Sc309 2.105 . S
O329 C314 1.268 . S
Sc330 O333 2.025 . S
Sc330 O340 2.105 . S
Sc330 O343 2.105 . S
Sc330 O346 2.105 . S
Sc330 O349 2.105 . S
Sc331 O333 2.025 . S
Sc331 O341 2.105 . S
Sc331 O345 2.105 . S
Sc331 O347 2.105 . S
Sc331 O351 2.105 . S
Sc332 O333 2.025 . S
Sc332 O342 2.105 . S
Sc332 O344 2.105 . S
Sc332 O348 2.105 1_545 S
Sc332 O350 2.105 . S
O333 Sc330 2.025 . S
O333 Sc331 2.025 . S
O333 Sc332 2.025 . S
C334 O340 1.268 . S
C334 O350 1.268 . S
C335 O341 1.268 . S
C335 O349 1.268 . S
C336 O342 1.268 . S
C336 O351 1.268 . S
C337 O343 1.268 . S
C337 O347 1.268 . S
C338 O344 1.268 . S
C338 O346 1.268 . S
C339 O345 1.268 1_565 S
C339 O348 1.268 . S
O340 Sc330 2.105 . S
O340 C334 1.268 . S
O341 Sc331 2.105 . S
O341 C335 1.268 . S
O342 Sc332 2.105 . S
O342 C336 1.268 . S
O343 Sc330 2.105 . S
O343 C337 1.268 . S
O344 Sc332 2.105 . S
O344 C338 1.268 . S
O345 Sc331 2.105 . S
O345 C339 1.268 1_545 S
O346 Sc330 2.105 . S
O346 C338 1.268 . S
O347 Sc331 2.105 . S
O347 C337 1.268 . S
O348 Sc332 2.105 1_565 S
O348 C339 1.268 . S
O349 Sc330 2.105 . S
O349 C335 1.268 . S
O350 Sc332 2.105 . S
O350 C334 1.268 . S
O351 Sc331 2.105 . S
O351 C336 1.268 . S
H352 C358 0.930 1_554 S
H353 C361 0.930 . S
H354 C362 0.930 . S
H355 C363 0.930 . S
H356 C366 0.930 . S
H357 C367 0.930 . S
C358 H352 0.930 1_556 S
C358 C359 1.355 . S
C358 C360 1.415 . S
C359 C358 1.355 . S
C359 C361 1.419 . S
C360 C358 1.415 . S
C360 C365 1.425 . S
C360 C367 1.409 . S
C361 H353 0.930 . S
C361 C359 1.419 . S
C361 C362 1.362 . S
C362 H354 0.930 . S
C362 C361 1.362 . S
C362 C365 1.409 . S
C363 H355 0.930 . S
C363 C364 1.355 . S
C363 C365 1.415 . S
C364 C363 1.355 . S
C364 C366 1.419 . S
C365 C360 1.425 . S
C365 C362 1.409 . S
C365 C363 1.415 . S
C366 H356 0.930 . S
C366 C364 1.419 . S
C366 C367 1.362 . S
C367 H357 0.930 . S
C367 C360 1.409 . S
C367 C366 1.362 . S
H368 C374 0.930 . S
H369 C377 0.930 . S
H370 C378 0.930 . S
H371 C379 0.930 . S
H372 C382 0.930 . S
H373 C383 0.930 . S
C374 H368 0.930 . S
C374 C375 1.355 . S
C374 C376 1.415 . S
C375 C374 1.355 . S
C375 C377 1.419 . S
C376 C374 1.415 . S
C376 C381 1.425 . S
C376 C383 1.409 . S
C377 H369 0.930 . S
C377 C375 1.419 . S
C377 C378 1.362 . S
C378 H370 0.930 . S
C378 C377 1.362 . S
C378 C381 1.409 . S
C379 H371 0.930 . S
C379 C380 1.355 . S
C379 C381 1.415 . S
C380 C379 1.355 . S
C380 C382 1.419 . S
C381 C376 1.425 . S
C381 C378 1.409 . S
C381 C379 1.415 . S
C382 H372 0.930 . S
C382 C380 1.419 . S
C382 C383 1.362 . S
C383 H373 0.930 . S
C383 C376 1.409 . S
C383 C382 1.362 . S
H384 C390 0.930 . S
H385 C393 0.930 . S
H386 C394 0.930 . S
H387 C395 0.930 . S
H388 C398 0.930 . S
H389 C399 0.930 . S
C390 H384 0.930 . S
C390 C391 1.355 . S
C390 C392 1.415 . S
C391 C390 1.355 . S
C391 C393 1.419 . S
C392 C390 1.415 . S
C392 C397 1.425 . S
C392 C399 1.409 . S
C393 H385 0.930 . S
C393 C391 1.419 . S
C393 C394 1.362 . S
C394 H386 0.930 . S
C394 C393 1.362 . S
C394 C397 1.409 . S
C395 H387 0.930 . S
C395 C396 1.355 . S
C395 C397 1.415 . S
C396 C395 1.355 . S
C396 C398 1.419 . S
C397 C392 1.425 . S
C397 C394 1.409 . S
C397 C395 1.415 . S
C398 H388 0.930 . S
C398 C396 1.419 . S
C398 C399 1.362 . S
C399 H389 0.930 . S
C399 C392 1.409 . S
C399 C398 1.362 . S
H400 C406 0.930 . S
H401 C409 0.930 . S
H402 C410 0.930 . S
H403 C411 0.930 . S
H404 C414 0.930 . S
H405 C415 0.930 . S
C406 H400 0.930 . S
C406 C407 1.355 . S
C406 C408 1.415 . S
C407 C406 1.355 . S
C407 C409 1.419 . S
C408 C406 1.415 . S
C408 C413 1.425 . S
C408 C415 1.409 . S
C409 H401 0.930 . S
C409 C407 1.419 . S
C409 C410 1.362 . S
C410 H402 0.930 . S
C410 C409 1.362 . S
C410 C413 1.409 . S
C411 H403 0.930 . S
C411 C412 1.355 . S
C411 C413 1.415 . S
C412 C411 1.355 . S
C412 C414 1.419 . S
C413 C408 1.425 . S
C413 C410 1.409 . S
C413 C411 1.415 . S
C414 H404 0.930 . S
C414 C412 1.419 . S
C414 C415 1.362 . S
C415 H405 0.930 . S
C415 C408 1.409 . S
C415 C414 1.362 . S
H416 C422 0.930 . S
H417 C425 0.930 . S
H418 C426 0.930 . S
H419 C427 0.930 . S
H420 C430 0.930 . S
H421 C431 0.930 . S
C422 H416 0.930 . S
C422 C423 1.355 . S
C422 C424 1.415 . S
C423 C422 1.355 . S
C423 C425 1.419 . S
C424 C422 1.415 . S
C424 C429 1.425 . S
C424 C431 1.409 . S
C425 H417 0.930 . S
C425 C423 1.419 . S
C425 C426 1.362 . S
C426 H418 0.930 . S
C426 C425 1.362 . S
C426 C429 1.409 . S
C427 H419 0.930 . S
C427 C428 1.355 . S
C427 C429 1.415 . S
C428 C427 1.355 . S
C428 C430 1.419 . S
C429 C424 1.425 . S
C429 C426 1.409 . S
C429 C427 1.415 . S
C430 H420 0.930 . S
C430 C428 1.419 . S
C430 C431 1.362 . S
C431 H421 0.930 . S
C431 C424 1.409 . S
C431 C430 1.362 . S
H432 C438 0.930 . S
H433 C441 0.930 . S
H434 C442 0.930 . S
H435 C443 0.930 . S
H436 C446 0.930 . S
H437 C447 0.930 . S
C438 H432 0.930 . S
C438 C439 1.355 . S
C438 C440 1.415 . S
C439 C438 1.355 . S
C439 C441 1.419 . S
C440 C438 1.415 . S
C440 C445 1.425 . S
C440 C447 1.409 . S
C441 H433 0.930 . S
C441 C439 1.419 . S
C441 C442 1.362 . S
C442 H434 0.930 . S
C442 C441 1.362 . S
C442 C445 1.409 . S
C443 H435 0.930 . S
C443 C444 1.355 . S
C443 C445 1.415 . S
C444 C443 1.355 . S
C444 C446 1.419 . S
C445 C440 1.425 . S
C445 C442 1.409 . S
C445 C443 1.415 . S
C446 H436 0.930 . S
C446 C444 1.419 . S
C446 C447 1.362 . S
C447 H437 0.930 . S
C447 C440 1.409 . S
C447 C446 1.362 . S
H448 C454 0.930 . S
H449 C457 0.930 . S
H450 C458 0.930 . S
H451 C459 0.930 . S
H452 C462 0.930 . S
H453 C463 0.930 . S
C454 H448 0.930 . S
C454 C455 1.355 . S
C454 C456 1.415 . S
C455 C454 1.355 . S
C455 C457 1.419 . S
C456 C454 1.415 . S
C456 C461 1.425 . S
C456 C463 1.409 . S
C457 H449 0.930 . S
C457 C455 1.419 . S
C457 C458 1.362 . S
C458 H450 0.930 . S
C458 C457 1.362 . S
C458 C461 1.409 . S
C459 H451 0.930 . S
C459 C460 1.355 . S
C459 C461 1.415 . S
C460 C459 1.355 . S
C460 C462 1.419 . S
C461 C456 1.425 . S
C461 C458 1.409 . S
C461 C459 1.415 . S
C462 H452 0.930 . S
C462 C460 1.419 . S
C462 C463 1.362 . S
C463 H453 0.930 . S
C463 C456 1.409 . S
C463 C462 1.362 . S
H464 C470 0.930 . S
H465 C473 0.930 . S
H466 C474 0.930 . S
H467 C475 0.930 . S
H468 C478 0.930 . S
H469 C479 0.930 . S
C470 H464 0.930 . S
C470 C471 1.355 . S
C470 C472 1.415 . S
C471 C470 1.355 . S
C471 C473 1.419 . S
C472 C470 1.415 . S
C472 C477 1.425 . S
C472 C479 1.409 . S
C473 H465 0.930 . S
C473 C471 1.419 . S
C473 C474 1.362 . S
C474 H466 0.930 . S
C474 C473 1.362 . S
C474 C477 1.409 . S
C475 H467 0.930 . S
C475 C476 1.355 . S
C475 C477 1.415 . S
C476 C475 1.355 . S
C476 C478 1.419 . S
C477 C472 1.425 . S
C477 C474 1.409 . S
C477 C475 1.415 . S
C478 H468 0.930 . S
C478 C476 1.419 . S
C478 C479 1.362 . S
C479 H469 0.930 . S
C479 C472 1.409 . S
C479 C478 1.362 . S
H480 C486 0.930 . S
H481 C489 0.930 . S
H482 C490 0.930 . S
H483 C491 0.930 . S
H484 C494 0.930 . S
H485 C495 0.930 . S
C486 H480 0.930 . S
C486 C487 1.355 . S
C486 C488 1.415 . S
C487 C486 1.355 . S
C487 C489 1.419 . S
C488 C486 1.415 . S
C488 C493 1.425 . S
C488 C495 1.409 . S
C489 H481 0.930 . S
C489 C487 1.419 . S
C489 C490 1.362 . S
C490 H482 0.930 . S
C490 C489 1.362 . S
C490 C493 1.409 . S
C491 H483 0.930 . S
C491 C492 1.355 . S
C491 C493 1.415 . S
C492 C491 1.355 . S
C492 C494 1.419 . S
C493 C488 1.425 . S
C493 C490 1.409 . S
C493 C491 1.415 . S
C494 H484 0.930 . S
C494 C492 1.419 . S
C494 C495 1.362 . S
C495 H485 0.930 . S
C495 C488 1.409 . S
C495 C494 1.362 . S
H496 C502 0.930 . S
H497 C505 0.930 . S
H498 C506 0.930 . S
H499 C507 0.930 . S
H500 C510 0.930 . S
H501 C511 0.930 . S
C502 H496 0.930 . S
C502 C503 1.355 . S
C502 C504 1.415 . S
C503 C502 1.355 . S
C503 C505 1.419 . S
C504 C502 1.415 . S
C504 C509 1.425 . S
C504 C511 1.409 . S
C505 H497 0.930 . S
C505 C503 1.419 . S
C505 C506 1.362 . S
C506 H498 0.930 . S
C506 C505 1.362 . S
C506 C509 1.409 . S
C507 H499 0.930 . S
C507 C508 1.355 . S
C507 C509 1.415 . S
C508 C507 1.355 . S
C508 C510 1.419 . S
C509 C504 1.425 . S
C509 C506 1.409 . S
C509 C507 1.415 . S
C510 H500 0.930 . S
C510 C508 1.419 . S
C510 C511 1.362 . S
C511 H501 0.930 . S
C511 C504 1.409 . S
C511 C510 1.362 . S
H512 C518 0.930 . S
H513 C521 0.930 . S
H514 C522 0.930 . S
H515 C523 0.930 . S
H516 C526 0.930 1_554 S
H517 C527 0.930 . S
C518 H512 0.930 . S
C518 C519 1.355 . S
C518 C520 1.415 . S
C519 C518 1.355 . S
C519 C521 1.419 . S
C520 C518 1.415 . S
C520 C525 1.425 . S
C520 C527 1.409 . S
C521 H513 0.930 . S
C521 C519 1.419 . S
C521 C522 1.362 . S
C522 H514 0.930 . S
C522 C521 1.362 . S
C522 C525 1.409 . S
C523 H515 0.930 . S
C523 C524 1.355 . S
C523 C525 1.415 . S
C524 C523 1.355 . S
C524 C526 1.419 . S
C525 C520 1.425 . S
C525 C522 1.409 . S
C525 C523 1.415 . S
C526 H516 0.930 1_556 S
C526 C524 1.419 . S
C526 C527 1.362 . S
C527 H517 0.930 . S
C527 C520 1.409 . S
C527 C526 1.362 . S
H528 C534 0.930 . S
H529 C537 0.930 . S
H530 C538 0.930 . S
H531 C539 0.930 . S
H532 C542 0.930 . S
H533 C543 0.930 . S
C534 H528 0.930 . S
C534 C535 1.355 . S
C534 C536 1.415 . S
C535 C534 1.355 . S
C535 C537 1.419 . S
C536 C534 1.415 . S
C536 C541 1.425 . S
C536 C543 1.409 . S
C537 H529 0.930 . S
C537 C535 1.419 . S
C537 C538 1.362 . S
C538 H530 0.930 . S
C538 C537 1.362 . S
C538 C541 1.409 . S
C539 H531 0.930 . S
C539 C540 1.355 . S
C539 C541 1.415 . S
C540 C539 1.355 . S
C540 C542 1.419 . S
C541 C536 1.425 . S
C541 C538 1.409 . S
C541 C539 1.415 . S
C542 H532 0.930 . S
C542 C540 1.419 . S
C542 C543 1.362 . S
C543 H533 0.930 . S
C543 C536 1.409 . S
C543 C542 1.362 . S
H544 C550 0.930 . S
H545 C553 0.930 . S
H546 C554 0.930 . S
H547 C555 0.930 . S
H548 C558 0.930 . S
H549 C559 0.930 . S
C550 H544 0.930 . S
C550 C551 1.355 . S
C550 C552 1.415 . S
C551 C550 1.355 . S
C551 C553 1.419 . S
C552 C550 1.415 . S
C552 C557 1.425 . S
C552 C559 1.409 . S
C553 H545 0.930 . S
C553 C551 1.419 . S
C553 C554 1.362 . S
C554 H546 0.930 . S
C554 C553 1.362 . S
C554 C557 1.409 . S
C555 H547 0.930 . S
C555 C556 1.355 . S
C555 C557 1.415 . S
C556 C555 1.355 . S
C556 C558 1.419 . S
C557 C552 1.425 . S
C557 C554 1.409 . S
C557 C555 1.415 . S
C558 H548 0.930 . S
C558 C556 1.419 . S
C558 C559 1.362 . S
C559 H549 0.930 . S
C559 C552 1.409 . S
C559 C558 1.362 . S
H560 C566 0.930 . S
H561 C569 0.930 . S
H562 C570 0.930 . S
H563 C571 0.930 . S
H564 C574 0.930 . S
H565 C575 0.930 . S
C566 H560 0.930 . S
C566 C567 1.355 . S
C566 C568 1.415 . S
C567 C566 1.355 . S
C567 C569 1.419 . S
C568 C566 1.415 . S
C568 C573 1.425 . S
C568 C575 1.409 . S
C569 H561 0.930 . S
C569 C567 1.419 . S
C569 C570 1.362 . S
C570 H562 0.930 . S
C570 C569 1.362 . S
C570 C573 1.409 . S
C571 H563 0.930 . S
C571 C572 1.355 . S
C571 C573 1.415 . S
C572 C571 1.355 . S
C572 C574 1.419 . S
C573 C568 1.425 . S
C573 C570 1.409 . S
C573 C571 1.415 . S
C574 H564 0.930 . S
C574 C572 1.419 . S
C574 C575 1.362 . S
C575 H565 0.930 . S
C575 C568 1.409 . S
C575 C574 1.362 . S
H576 C582 0.930 . S
H577 C585 0.930 . S
H578 C586 0.930 . S
H579 C587 0.930 . S
H580 C590 0.930 . S
H581 C591 0.930 . S
C582 H576 0.930 . S
C582 C583 1.355 . S
C582 C584 1.415 . S
C583 C582 1.355 . S
C583 C585 1.419 . S
C584 C582 1.415 . S
C584 C589 1.425 . S
C584 C591 1.409 . S
C585 H577 0.930 . S
C585 C583 1.419 . S
C585 C586 1.362 . S
C586 H578 0.930 . S
C586 C585 1.362 . S
C586 C589 1.409 . S
C587 H579 0.930 . S
C587 C588 1.355 . S
C587 C589 1.415 . S
C588 C587 1.355 . S
C588 C590 1.419 . S
C589 C584 1.425 . S
C589 C586 1.409 . S
C589 C587 1.415 . S
C590 H580 0.930 . S
C590 C588 1.419 . S
C590 C591 1.362 . S
C591 H581 0.930 . S
C591 C584 1.409 . S
C591 C590 1.362 . S
H592 C598 0.930 . S
H593 C601 0.930 . S
H594 C602 0.930 . S
H595 C603 0.930 . S
H596 C606 0.930 . S
H597 C607 0.930 . S
C598 H592 0.930 . S
C598 C599 1.355 . S
C598 C600 1.415 . S
C599 C598 1.355 . S
C599 C601 1.419 . S
C600 C598 1.415 . S
C600 C605 1.425 . S
C600 C607 1.409 . S
C601 H593 0.930 . S
C601 C599 1.419 . S
C601 C602 1.362 . S
C602 H594 0.930 . S
C602 C601 1.362 . S
C602 C605 1.409 . S
C603 H595 0.930 . S
C603 C604 1.355 . S
C603 C605 1.415 . S
C604 C603 1.355 . S
C604 C606 1.419 . S
C605 C600 1.425 . S
C605 C602 1.409 . S
C605 C603 1.415 . S
C606 H596 0.930 . S
C606 C604 1.419 . S
C606 C607 1.362 . S
C607 H597 0.930 . S
C607 C600 1.409 . S
C607 C606 1.362 . S
H608 C614 0.930 . S
H609 C617 0.930 . S
H610 C618 0.930 . S
H611 C619 0.930 . S
H612 C622 0.930 . S
H613 C623 0.930 . S
C614 H608 0.930 . S
C614 C615 1.355 . S
C614 C616 1.415 . S
C615 C614 1.355 . S
C615 C617 1.419 . S
C616 C614 1.415 . S
C616 C621 1.425 . S
C616 C623 1.409 . S
C617 H609 0.930 . S
C617 C615 1.419 . S
C617 C618 1.362 . S
C618 H610 0.930 . S
C618 C617 1.362 . S
C618 C621 1.409 . S
C619 H611 0.930 . S
C619 C620 1.355 . S
C619 C621 1.415 . S
C620 C619 1.355 . S
C620 C622 1.419 . S
C621 C616 1.425 . S
C621 C618 1.409 . S
C621 C619 1.415 . S
C622 H612 0.930 . S
C622 C620 1.419 . S
C622 C623 1.362 . S
C623 H613 0.930 . S
C623 C616 1.409 . S
C623 C622 1.362 . S
H624 C630 0.930 . S
H625 C633 0.930 . S
H626 C634 0.930 . S
H627 C635 0.930 . S
H628 C638 0.930 . S
H629 C639 0.930 . S
C630 H624 0.930 . S
C630 C631 1.355 . S
C630 C632 1.415 . S
C631 C630 1.355 . S
C631 C633 1.419 . S
C632 C630 1.415 . S
C632 C637 1.425 . S
C632 C639 1.409 . S
C633 H625 0.930 . S
C633 C631 1.419 . S
C633 C634 1.362 . S
C634 H626 0.930 . S
C634 C633 1.362 . S
C634 C637 1.409 . S
C635 H627 0.930 . S
C635 C636 1.355 . S
C635 C637 1.415 . S
C636 C635 1.355 . S
C636 C638 1.419 . S
C637 C632 1.425 . S
C637 C634 1.409 . S
C637 C635 1.415 . S
C638 H628 0.930 . S
C638 C636 1.419 . S
C638 C639 1.362 . S
C639 H629 0.930 . S
C639 C632 1.409 . S
C639 C638 1.362 . S
H640 C646 0.930 . S
H641 C649 0.930 . S
H642 C650 0.930 . S
H643 C651 0.930 . S
H644 C654 0.930 . S
H645 C655 0.930 . S
C646 H640 0.930 . S
C646 C647 1.355 . S
C646 C648 1.415 . S
C647 C646 1.355 . S
C647 C649 1.419 . S
C648 C646 1.415 . S
C648 C653 1.425 . S
C648 C655 1.409 . S
C649 H641 0.930 . S
C649 C647 1.419 . S
C649 C650 1.362 . S
C650 H642 0.930 . S
C650 C649 1.362 . S
C650 C653 1.409 . S
C651 H643 0.930 . S
C651 C652 1.355 . S
C651 C653 1.415 . S
C652 C651 1.355 . S
C652 C654 1.419 . S
C653 C648 1.425 . S
C653 C650 1.409 . S
C653 C651 1.415 . S
C654 H644 0.930 . S
C654 C652 1.419 . S
C654 C655 1.362 . S
C655 H645 0.930 . S
C655 C648 1.409 . S
C655 C654 1.362 . S
H656 C662 0.930 . S
H657 C665 0.930 . S
H658 C666 0.930 . S
H659 C667 0.930 . S
H660 C670 0.930 . S
H661 C671 0.930 . S
C662 H656 0.930 . S
C662 C663 1.355 . S
C662 C664 1.415 . S
C663 C662 1.355 . S
C663 C665 1.419 . S
C664 C662 1.415 . S
C664 C669 1.425 . S
C664 C671 1.409 . S
C665 H657 0.930 . S
C665 C663 1.419 . S
C665 C666 1.362 . S
C666 H658 0.930 . S
C666 C665 1.362 . S
C666 C669 1.409 . S
C667 H659 0.930 . S
C667 C668 1.355 . S
C667 C669 1.415 . S
C668 C667 1.355 . S
C668 C670 1.419 . S
C669 C664 1.425 . S
C669 C666 1.409 . S
C669 C667 1.415 . S
C670 H660 0.930 . S
C670 C668 1.419 . S
C670 C671 1.362 . S
C671 H661 0.930 . S
C671 C664 1.409 . S
C671 C670 1.362 . S
H672 C678 0.930 . S
H673 C681 0.930 . S
H674 C682 0.930 . S
H675 C683 0.930 . S
H676 C686 0.930 . S
H677 C687 0.930 . S
C678 H672 0.930 . S
C678 C679 1.355 . S
C678 C680 1.415 . S
C679 C678 1.355 . S
C679 C681 1.419 . S
C680 C678 1.415 . S
C680 C685 1.425 . S
C680 C687 1.409 . S
C681 H673 0.930 . S
C681 C679 1.419 . S
C681 C682 1.362 . S
C682 H674 0.930 . S
C682 C681 1.362 . S
C682 C685 1.409 . S
C683 H675 0.930 . S
C683 C684 1.355 . S
C683 C685 1.415 . S
C684 C683 1.355 . S
C684 C686 1.419 . S
C685 C680 1.425 . S
C685 C682 1.409 . S
C685 C683 1.415 . S
C686 H676 0.930 . S
C686 C684 1.419 . S
C686 C687 1.362 . S
C687 H677 0.930 . S
C687 C680 1.409 . S
C687 C686 1.362 . S
H688 C694 0.930 . S
H689 C697 0.930 1_554 S
H690 C698 0.930 . S
H691 C699 0.930 . S
H692 C702 0.930 . S
H693 C703 0.930 . S
C694 H688 0.930 . S
C694 C695 1.355 . S
C694 C696 1.415 . S
C695 C694 1.355 . S
C695 C697 1.419 . S
C696 C694 1.415 . S
C696 C701 1.425 . S
C696 C703 1.409 . S
C697 H689 0.930 1_556 S
C697 C695 1.419 . S
C697 C698 1.362 . S
C698 H690 0.930 . S
C698 C697 1.362 . S
C698 C701 1.409 . S
C699 H691 0.930 . S
C699 C700 1.355 . S
C699 C701 1.415 . S
C700 C699 1.355 . S
C700 C702 1.419 . S
C701 C696 1.425 . S
C701 C698 1.409 . S
C701 C699 1.415 . S
C702 H692 0.930 . S
C702 C700 1.419 . S
C702 C703 1.362 . S
C703 H693 0.930 . S
C703 C696 1.409 . S
C703 C702 1.362 . S
H704 C710 0.930 . S
H705 C713 0.930 . S
H706 C714 0.930 . S
H707 C715 0.930 . S
H708 C718 0.934 . S
H709 C719 0.930 . S
C710 H704 0.930 . S
C710 C711 1.355 . S
C710 C712 1.415 . S
C711 C710 1.355 . S
C711 C713 1.419 . S
C712 C710 1.415 . S
C712 C717 1.425 . S
C712 C719 1.409 . S
C713 H705 0.930 . S
C713 C711 1.419 . S
C713 C714 1.362 . S
C714 H706 0.930 . S
C714 C713 1.362 . S
C714 C717 1.409 . S
C715 H707 0.930 . S
C715 C716 1.355 . S
C715 C717 1.415 . S
C716 C715 1.355 . S
C716 C718 1.419 . S
C717 C712 1.425 . S
C717 C714 1.409 . S
C717 C715 1.415 . S
C718 H708 0.934 . S
C718 C716 1.419 . S
C718 C719 1.362 . S
C719 H709 0.930 . S
C719 C712 1.409 . S
C719 C718 1.362 . S
H720 C726 0.930 . S
H721 C729 0.930 . S
H722 C730 0.930 . S
H723 C731 0.930 . S
H724 C734 0.930 . S
H725 C735 0.930 . S
C726 H720 0.930 . S
C726 C727 1.355 . S
C726 C728 1.415 . S
C727 C726 1.355 . S
C727 C729 1.419 . S
C728 C726 1.415 . S
C728 C733 1.425 . S
C728 C735 1.409 . S
C729 H721 0.930 . S
C729 C727 1.419 . S
C729 C730 1.362 . S
C730 H722 0.930 . S
C730 C729 1.362 . S
C730 C733 1.409 . S
C731 H723 0.930 . S
C731 C732 1.355 . S
C731 C733 1.415 . S
C732 C731 1.355 . S
C732 C734 1.419 . S
C733 C728 1.425 . S
C733 C730 1.409 . S
C733 C731 1.415 . S
C734 H724 0.930 . S
C734 C732 1.419 . S
C734 C735 1.362 . S
C735 H725 0.930 . S
C735 C728 1.409 . S
C735 C734 1.362 . S
H736 C742 0.930 . S
H737 C745 0.930 . S
H738 C746 0.930 . S
H739 C747 0.930 . S
H740 C750 0.930 . S
H741 C751 0.930 . S
C742 H736 0.930 . S
C742 C743 1.355 . S
C742 C744 1.415 . S
C743 C742 1.355 . S
C743 C745 1.419 . S
C744 C742 1.415 . S
C744 C749 1.425 . S
C744 C751 1.409 . S
C745 H737 0.930 . S
C745 C743 1.419 . S
C745 C746 1.362 . S
C746 H738 0.930 . S
C746 C745 1.362 . S
C746 C749 1.409 . S
C747 H739 0.930 . S
C747 C748 1.355 . S
C747 C749 1.415 . S
C748 C747 1.355 . S
C748 C750 1.419 . S
C749 C744 1.425 . S
C749 C746 1.409 . S
C749 C747 1.415 . S
C750 H740 0.930 . S
C750 C748 1.419 . S
C750 C751 1.362 . S
C751 H741 0.930 . S
C751 C744 1.409 . S
C751 C750 1.362 . S
H752 C758 0.930 . S
H753 C761 0.930 . S
H754 C762 0.930 . S
H755 C763 0.930 . S
H756 C766 0.930 . S
H757 C767 0.930 . S
C758 H752 0.930 . S
C758 C759 1.355 . S
C758 C760 1.415 . S
C759 C758 1.355 . S
C759 C761 1.419 . S
C760 C758 1.415 . S
C760 C765 1.425 . S
C760 C767 1.409 . S
C761 H753 0.930 . S
C761 C759 1.419 . S
C761 C762 1.362 . S
C762 H754 0.930 . S
C762 C761 1.362 . S
C762 C765 1.409 . S
C763 H755 0.930 . S
C763 C764 1.355 . S
C763 C765 1.415 . S
C764 C763 1.355 . S
C764 C766 1.419 . S
C765 C760 1.425 . S
C765 C762 1.409 . S
C765 C763 1.415 . S
C766 H756 0.930 . S
C766 C764 1.419 . S
C766 C767 1.362 . S
C767 H757 0.930 . S
C767 C760 1.409 . S
C767 C766 1.362 . S
H768 C774 0.930 . S
H769 C777 0.930 . S
H770 C778 0.930 . S
H771 C779 0.930 . S
H772 C782 0.930 . S
H773 C783 0.930 . S
C774 H768 0.930 . S
C774 C775 1.355 . S
C774 C776 1.415 . S
C775 C774 1.355 . S
C775 C777 1.419 . S
C776 C774 1.415 . S
C776 C781 1.425 . S
C776 C783 1.409 . S
C777 H769 0.930 . S
C777 C775 1.419 . S
C777 C778 1.362 . S
C778 H770 0.930 . S
C778 C777 1.362 . S
C778 C781 1.409 . S
C779 H771 0.930 . S
C779 C780 1.355 . S
C779 C781 1.415 . S
C780 C779 1.355 . S
C780 C782 1.419 . S
C781 C776 1.425 . S
C781 C778 1.409 . S
C781 C779 1.415 . S
C782 H772 0.930 . S
C782 C780 1.419 . S
C782 C783 1.362 . S
C783 H773 0.930 . S
C783 C776 1.409 . S
C783 C782 1.362 . S
H784 C790 0.930 . S
H785 C793 0.930 . S
H786 C794 0.930 . S
H787 C795 0.930 . S
H788 C798 0.930 . S
H789 C799 0.930 . S
C790 H784 0.930 . S
C790 C791 1.355 . S
C790 C792 1.415 . S
C791 C790 1.355 . S
C791 C793 1.419 . S
C792 C790 1.415 . S
C792 C797 1.425 . S
C792 C799 1.409 . S
C793 H785 0.930 . S
C793 C791 1.419 . S
C793 C794 1.362 . S
C794 H786 0.930 . S
C794 C793 1.362 . S
C794 C797 1.409 . S
C795 H787 0.930 . S
C795 C796 1.355 . S
C795 C797 1.415 . S
C796 C795 1.355 . S
C796 C798 1.419 . S
C797 C792 1.425 . S
C797 C794 1.409 . S
C797 C795 1.415 . S
C798 H788 0.930 . S
C798 C796 1.419 . S
C798 C799 1.362 . S
C799 H789 0.930 . S
C799 C792 1.409 . S
C799 C798 1.362 . S
H800 C806 0.930 . S
H801 C809 0.930 . S
H802 C810 0.930 . S
H803 C811 0.930 . S
H804 C814 0.930 . S
H805 C815 0.930 . S
C806 H800 0.930 . S
C806 C807 1.355 . S
C806 C808 1.415 . S
C807 C806 1.355 . S
C807 C809 1.419 . S
C808 C806 1.415 . S
C808 C813 1.425 . S
C808 C815 1.409 . S
C809 H801 0.930 . S
C809 C807 1.419 . S
C809 C810 1.362 . S
C810 H802 0.930 . S
C810 C809 1.362 . S
C810 C813 1.409 . S
C811 H803 0.930 . S
C811 C812 1.355 . S
C811 C813 1.415 . S
C812 C811 1.355 . S
C812 C814 1.419 . S
C813 C808 1.425 . S
C813 C810 1.409 . S
C813 C811 1.415 . S
C814 H804 0.930 . S
C814 C812 1.419 . S
C814 C815 1.362 . S
C815 H805 0.930 . S
C815 C808 1.409 . S
C815 C814 1.362 . S
H816 C822 0.930 . S
H817 C825 0.930 . S
H818 C826 0.930 . S
H819 C827 0.930 . S
H820 C830 0.930 . S
H821 C831 0.930 . S
C822 H816 0.930 . S
C822 C823 1.355 . S
C822 C824 1.415 . S
C823 C822 1.355 . S
C823 C825 1.419 . S
C824 C822 1.415 . S
C824 C829 1.425 . S
C824 C831 1.409 . S
C825 H817 0.930 . S
C825 C823 1.419 . S
C825 C826 1.362 . S
C826 H818 0.930 . S
C826 C825 1.362 . S
C826 C829 1.409 . S
C827 H819 0.930 . S
C827 C828 1.355 . S
C827 C829 1.415 . S
C828 C827 1.355 . S
C828 C830 1.419 . S
C829 C824 1.425 . S
C829 C826 1.409 . S
C829 C827 1.415 . S
C830 H820 0.930 . S
C830 C828 1.419 . S
C830 C831 1.362 . S
C831 H821 0.930 . S
C831 C824 1.409 . S
C831 C830 1.362 . S
H832 C838 0.930 . S
H833 C841 0.930 . S
H834 C842 0.930 . S
H835 C843 0.930 . S
H836 C846 0.930 . S
H837 C847 0.930 . S
C838 H832 0.930 . S
C838 C839 1.355 . S
C838 C840 1.415 . S
C839 C838 1.355 . S
C839 C841 1.419 . S
C840 C838 1.415 . S
C840 C845 1.425 . S
C840 C847 1.409 . S
C841 H833 0.930 . S
C841 C839 1.419 . S
C841 C842 1.362 . S
C842 H834 0.930 . S
C842 C841 1.362 . S
C842 C845 1.409 . S
C843 H835 0.930 . S
C843 C844 1.355 . S
C843 C845 1.415 . S
C844 C843 1.355 . S
C844 C846 1.419 . S
C845 C840 1.425 . S
C845 C842 1.409 . S
C845 C843 1.415 . S
C846 H836 0.930 . S
C846 C844 1.419 . S
C846 C847 1.362 . S
C847 H837 0.930 . S
C847 C840 1.409 . S
C847 C846 1.362 . S
H848 C854 0.930 . S
H849 C857 0.930 . S
H850 C858 0.930 . S
H851 C859 0.930 . S
H852 C862 0.930 . S
H853 C863 0.930 . S
C854 H848 0.930 . S
C854 C855 1.355 . S
C854 C856 1.415 . S
C855 C854 1.355 . S
C855 C857 1.419 . S
C856 C854 1.415 . S
C856 C861 1.425 . S
C856 C863 1.409 . S
C857 H849 0.930 . S
C857 C855 1.419 . S
C857 C858 1.362 . S
C858 H850 0.930 . S
C858 C857 1.362 . S
C858 C861 1.409 . S
C859 H851 0.930 . S
C859 C860 1.355 . S
C859 C861 1.415 . S
C860 C859 1.355 . S
C860 C862 1.419 1_556 S
C861 C856 1.425 . S
C861 C858 1.409 . S
C861 C859 1.415 . S
C862 H852 0.930 . S
C862 C860 1.419 1_554 S
C862 C863 1.362 1_554 S
C863 H853 0.930 . S
C863 C856 1.409 . S
C863 C862 1.362 1_556 S
H864 C870 0.930 . S
H865 C873 0.930 . S
H866 C874 0.930 . S
H867 C875 0.930 . S
H868 C878 0.930 . S
H869 C879 0.930 . S
C870 H864 0.930 . S
C870 C871 1.355 . S
C870 C872 1.415 . S
C871 C870 1.355 . S
C871 C873 1.419 . S
C872 C870 1.415 . S
C872 C877 1.425 . S
C872 C879 1.409 . S
C873 H865 0.930 . S
C873 C871 1.419 . S
C873 C874 1.362 . S
C874 H866 0.930 . S
C874 C873 1.362 . S
C874 C877 1.409 . S
C875 H867 0.930 . S
C875 C876 1.355 . S
C875 C877 1.415 . S
C876 C875 1.355 . S
C876 C878 1.419 . S
C877 C872 1.425 . S
C877 C874 1.409 . S
C877 C875 1.415 . S
C878 H868 0.930 . S
C878 C876 1.419 . S
C878 C879 1.362 . S
C879 H869 0.930 . S
C879 C872 1.409 . S
C879 C878 1.362 . S
H880 C886 0.930 . S
H881 C889 0.930 . S
H882 C890 0.930 . S
H883 C891 0.930 . S
H884 C894 0.930 . S
H885 C895 0.930 . S
C886 H880 0.930 . S
C886 C887 1.355 . S
C886 C888 1.415 . S
C887 C886 1.355 . S
C887 C889 1.419 . S
C888 C886 1.415 . S
C888 C893 1.425 . S
C888 C895 1.409 . S
C889 H881 0.930 . S
C889 C887 1.419 . S
C889 C890 1.362 . S
C890 H882 0.930 . S
C890 C889 1.362 . S
C890 C893 1.409 . S
C891 H883 0.930 . S
C891 C892 1.355 . S
C891 C893 1.415 . S
C892 C891 1.355 . S
C892 C894 1.419 . S
C893 C888 1.425 . S
C893 C890 1.409 . S
C893 C891 1.415 . S
C894 H884 0.930 . S
C894 C892 1.419 . S
C894 C895 1.362 . S
C895 H885 0.930 . S
C895 C888 1.409 . S
C895 C894 1.362 . S
H896 C902 0.930 . S
H897 C905 0.930 . S
H898 C906 0.930 . S
H899 C907 0.930 . S
H900 C910 0.930 . S
H901 C911 0.930 . S
C902 H896 0.930 . S
C902 C903 1.355 . S
C902 C904 1.415 . S
C903 C902 1.355 . S
C903 C905 1.419 . S
C904 C902 1.415 . S
C904 C909 1.425 . S
C904 C911 1.409 . S
C905 H897 0.930 . S
C905 C903 1.419 . S
C905 C906 1.362 . S
C906 H898 0.930 . S
C906 C905 1.362 . S
C906 C909 1.409 . S
C907 H899 0.930 . S
C907 C908 1.355 . S
C907 C909 1.415 . S
C908 C907 1.355 . S
C908 C910 1.419 . S
C909 C904 1.425 . S
C909 C906 1.409 . S
C909 C907 1.415 . S
C910 H900 0.930 . S
C910 C908 1.419 . S
C910 C911 1.362 . S
C911 H901 0.930 . S
C911 C904 1.409 . S
C911 C910 1.362 . S
H912 C918 0.930 . S
H913 C921 0.930 . S
H914 C922 0.930 . S
H915 C923 0.930 . S
H916 C926 0.930 . S
H917 C927 0.930 . S
C918 H912 0.930 . S
C918 C919 1.355 . S
C918 C920 1.415 . S
C919 C918 1.355 . S
C919 C921 1.419 . S
C920 C918 1.415 . S
C920 C925 1.425 1_455 S
C920 C927 1.409 1_554 S
C921 H913 0.930 . S
C921 C919 1.419 . S
C921 C922 1.362 1_455 S
C922 H914 0.930 . S
C922 C921 1.362 1_655 S
C922 C925 1.409 . S
C923 H915 0.930 . S
C923 C924 1.355 . S
C923 C925 1.415 1_556 S
C924 C923 1.355 . S
C924 C926 1.419 . S
C925 C920 1.425 1_655 S
C925 C922 1.409 . S
C925 C923 1.415 1_554 S
C926 H916 0.930 . S
C926 C924 1.419 . S
C926 C927 1.362 1_655 S
C927 H917 0.930 . S
C927 C920 1.409 1_556 S
C927 C926 1.362 1_455 S
H928 C934 0.930 . S
H929 C937 0.930 . S
H930 C938 0.930 . S
H931 C939 0.930 . S
H932 C942 0.930 . S
H933 C943 0.930 . S
C934 H928 0.930 . S
C934 C935 1.355 . S
C934 C936 1.415 . S
C935 C934 1.355 . S
C935 C937 1.419 . S
C936 C934 1.415 . S
C936 C941 1.425 . S
C936 C943 1.409 . S
C937 H929 0.930 . S
C937 C935 1.419 . S
C937 C938 1.362 . S
C938 H930 0.930 . S
C938 C937 1.362 . S
C938 C941 1.409 . S
C939 H931 0.930 . S
C939 C940 1.355 . S
C939 C941 1.415 . S
C940 C939 1.355 . S
C940 C942 1.419 . S
C941 C936 1.425 . S
C941 C938 1.409 . S
C941 C939 1.415 . S
C942 H932 0.930 . S
C942 C940 1.419 . S
C942 C943 1.362 . S
C943 H933 0.930 . S
C943 C936 1.409 . S
C943 C942 1.362 . S
H944 C950 0.930 . S
H945 C953 0.930 . S
H946 C954 0.930 . S
H947 C955 0.930 . S
H948 C958 0.930 . S
H949 C959 0.930 . S
C950 H944 0.930 . S
C950 C951 1.355 . S
C950 C952 1.415 . S
C951 C950 1.355 . S
C951 C953 1.419 . S
C952 C950 1.415 . S
C952 C957 1.425 . S
C952 C959 1.409 . S
C953 H945 0.930 . S
C953 C951 1.419 . S
C953 C954 1.362 . S
C954 H946 0.930 . S
C954 C953 1.362 . S
C954 C957 1.409 . S
C955 H947 0.930 . S
C955 C956 1.355 . S
C955 C957 1.415 . S
C956 C955 1.355 . S
C956 C958 1.419 . S
C957 C952 1.425 . S
C957 C954 1.409 . S
C957 C955 1.415 . S
C958 H948 0.930 . S
C958 C956 1.419 . S
C958 C959 1.362 . S
C959 H949 0.930 . S
C959 C952 1.409 . S
C959 C958 1.362 . S
H960 C966 0.930 . S
H961 C969 0.930 . S
H962 C970 0.930 . S
H963 C971 0.930 . S
H964 C974 0.930 . S
H965 C975 0.930 . S
C966 H960 0.930 . S
C966 C967 1.355 1_655 S
C966 C968 1.415 1_556 S
C967 C966 1.355 1_455 S
C967 C969 1.419 . S
C968 C966 1.415 1_554 S
C968 C973 1.425 1_645 S
C968 C975 1.409 . S
C969 H961 0.930 . S
C969 C967 1.419 . S
C969 C970 1.362 1_546 S
C970 H962 0.930 . S
C970 C969 1.362 1_564 S
C970 C973 1.409 . S
C971 H963 0.930 . S
C971 C972 1.355 1_455 S
C971 C973 1.415 . S
C972 C971 1.355 1_655 S
C972 C974 1.419 . S
C973 C968 1.425 1_465 S
C973 C970 1.409 . S
C973 C971 1.415 . S
C974 H964 0.930 . S
C974 C972 1.419 . S
C974 C975 1.362 1_565 S
C975 H965 0.930 . S
C975 C968 1.409 . S
C975 C974 1.362 1_545 S
H976 C982 0.930 . S
H977 C985 0.930 . S
H978 C986 0.930 1_565 S
H979 C987 0.930 . S
H980 C990 0.930 . S
H981 C991 0.930 1_545 S
C982 H976 0.930 . S
C982 C983 1.355 . S
C982 C984 1.415 . S
C983 C982 1.355 . S
C983 C985 1.419 . S
C984 C982 1.415 . S
C984 C989 1.425 1_545 S
C984 C991 1.409 1_545 S
C985 H977 0.930 . S
C985 C983 1.419 . S
C985 C986 1.362 . S
C986 H978 0.930 1_545 S
C986 C985 1.362 . S
C986 C989 1.409 1_545 S
C987 H979 0.930 . S
C987 C988 1.355 . S
C987 C989 1.415 . S
C988 C987 1.355 . S
C988 C990 1.419 . S
C989 C984 1.425 1_565 S
C989 C986 1.409 1_565 S
C989 C987 1.415 . S
C990 H980 0.930 . S
C990 C988 1.419 . S
C990 C991 1.362 . S
C991 H981 0.930 1_565 S
C991 C984 1.409 1_565 S
C991 C990 1.362 . S
H992 C998 0.930 . S
H993 C1001 0.930 . S
H994 C1002 0.930 . S
H995 C1003 0.930 . S
H996 C1006 0.930 . S
H997 C1007 0.930 . S
C998 H992 0.930 . S
C998 C999 1.355 . S
C998 C1000 1.415 . S
C999 C998 1.355 . S
C999 C1001 1.419 . S
C1000 C998 1.415 . S
C1000 C1005 1.425 . S
C1000 C1007 1.409 . S
C1001 H993 0.930 . S
C1001 C999 1.419 . S
C1001 C1002 1.362 . S
C1002 H994 0.930 . S
C1002 C1001 1.362 . S
C1002 C1005 1.409 . S
C1003 H995 0.930 . S
C1003 C1004 1.355 . S
C1003 C1005 1.415 . S
C1004 C1003 1.355 . S
C1004 C1006 1.419 . S
C1005 C1000 1.425 . S
C1005 C1002 1.409 . S
C1005 C1003 1.415 . S
C1006 H996 0.930 . S
C1006 C1004 1.419 . S
C1006 C1007 1.362 . S
C1007 H997 0.930 . S
C1007 C1000 1.409 . S
C1007 C1006 1.362 . S
H1008 C1014 0.930 . S
H1009 C1017 0.930 . S
H1010 C1018 0.930 . S
H1011 C1019 0.930 . S
H1012 C1022 0.930 . S
H1013 C1023 0.930 1_556 S
C1014 H1008 0.930 . S
C1014 C1015 1.355 . S
C1014 C1016 1.415 1_556 S
C1015 C1014 1.355 . S
C1015 C1017 1.419 . S
C1016 C1014 1.415 1_554 S
C1016 C1021 1.425 . S
C1016 C1023 1.409 . S
C1017 H1009 0.930 . S
C1017 C1015 1.419 . S
C1017 C1018 1.362 1_556 S
C1018 H1010 0.930 . S
C1018 C1017 1.362 1_554 S
C1018 C1021 1.409 . S
C1019 H1011 0.930 . S
C1019 C1020 1.355 . S
C1019 C1021 1.415 . S
C1020 C1019 1.355 . S
C1020 C1022 1.419 . S
C1021 C1016 1.425 . S
C1021 C1018 1.409 . S
C1021 C1019 1.415 . S
C1022 H1012 0.930 . S
C1022 C1020 1.419 . S
C1022 C1023 1.362 . S
C1023 H1013 0.930 1_554 S
C1023 C1016 1.409 . S
C1023 C1022 1.362 . S
H1024 C1030 0.930 . S
H1025 C1033 0.930 . S
H1026 C1034 0.930 . S
H1027 C1035 0.930 . S
H1028 C1038 0.930 . S
H1029 C1039 0.930 . S
C1030 H1024 0.930 . S
C1030 C1031 1.355 . S
C1030 C1032 1.415 . S
C1031 C1030 1.355 . S
C1031 C1033 1.419 . S
C1032 C1030 1.415 . S
C1032 C1037 1.425 . S
C1032 C1039 1.409 . S
C1033 H1025 0.930 . S
C1033 C1031 1.419 . S
C1033 C1034 1.362 . S
C1034 H1026 0.930 . S
C1034 C1033 1.362 . S
C1034 C1037 1.409 . S
C1035 H1027 0.930 . S
C1035 C1036 1.355 . S
C1035 C1037 1.415 . S
C1036 C1035 1.355 . S
C1036 C1038 1.419 . S
C1037 C1032 1.425 . S
C1037 C1034 1.409 . S
C1037 C1035 1.415 . S
C1038 H1028 0.930 . S
C1038 C1036 1.419 . S
C1038 C1039 1.362 . S
C1039 H1029 0.930 . S
C1039 C1032 1.409 . S
C1039 C1038 1.362 . S
H1040 C1046 0.930 1_655 S
H1041 C1049 0.930 . S
H1042 C1050 0.930 . S
H1043 C1051 0.930 1_455 S
H1044 C1054 0.930 . S
H1045 C1055 0.930 . S
C1046 H1040 0.930 1_455 S
C1046 C1047 1.355 . S
C1046 C1048 1.415 1_455 S
C1047 C1046 1.355 . S
C1047 C1049 1.419 . S
C1048 C1046 1.415 1_655 S
C1048 C1053 1.425 1_655 S
C1048 C1055 1.409 . S
C1049 H1041 0.930 . S
C1049 C1047 1.419 . S
C1049 C1050 1.362 . S
C1050 H1042 0.930 . S
C1050 C1049 1.362 . S
C1050 C1053 1.409 . S
C1051 H1043 0.930 1_655 S
C1051 C1052 1.355 . S
C1051 C1053 1.415 1_655 S
C1052 C1051 1.355 . S
C1052 C1054 1.419 . S
C1053 C1048 1.425 1_455 S
C1053 C1050 1.409 . S
C1053 C1051 1.415 1_455 S
C1054 H1044 0.930 . S
C1054 C1052 1.419 . S
C1054 C1055 1.362 . S
C1055 H1045 0.930 . S
C1055 C1048 1.409 . S
C1055 C1054 1.362 . S
H1056 C1062 0.930 . S
H1057 C1065 0.930 . S
H1058 C1066 0.930 . S
H1059 C1067 0.930 . S
H1060 C1070 0.930 . S
H1061 C1071 0.930 . S
C1062 H1056 0.930 . S
C1062 C1063 1.355 . S
C1062 C1064 1.415 . S
C1063 C1062 1.355 . S
C1063 C1065 1.419 . S
C1064 C1062 1.415 . S
C1064 C1069 1.425 . S
C1064 C1071 1.409 . S
C1065 H1057 0.930 . S
C1065 C1063 1.419 . S
C1065 C1066 1.362 . S
C1066 H1058 0.930 . S
C1066 C1065 1.362 . S
C1066 C1069 1.409 . S
C1067 H1059 0.930 . S
C1067 C1068 1.355 . S
C1067 C1069 1.415 . S
C1068 C1067 1.355 . S
C1068 C1070 1.419 . S
C1069 C1064 1.425 . S
C1069 C1066 1.409 . S
C1069 C1067 1.415 . S
C1070 H1060 0.930 . S
C1070 C1068 1.419 . S
C1070 C1071 1.362 . S
C1071 H1061 0.930 . S
C1071 C1064 1.409 . S
C1071 C1070 1.362 . S
H1072 C1078 0.930 . S
H1073 C1081 0.930 . S
H1074 C1082 0.930 . S
H1075 C1083 0.930 . S
H1076 C1086 0.930 . S
H1077 C1087 0.930 . S
C1078 H1072 0.930 . S
C1078 C1079 1.355 . S
C1078 C1080 1.415 . S
C1079 C1078 1.355 . S
C1079 C1081 1.419 . S
C1080 C1078 1.415 . S
C1080 C1085 1.425 . S
C1080 C1087 1.409 . S
C1081 H1073 0.930 . S
C1081 C1079 1.419 . S
C1081 C1082 1.362 . S
C1082 H1074 0.930 . S
C1082 C1081 1.362 . S
C1082 C1085 1.409 . S
C1083 H1075 0.930 . S
C1083 C1084 1.355 . S
C1083 C1085 1.415 . S
C1084 C1083 1.355 . S
C1084 C1086 1.419 . S
C1085 C1080 1.425 . S
C1085 C1082 1.409 . S
C1085 C1083 1.415 . S
C1086 H1076 0.930 . S
C1086 C1084 1.419 . S
C1086 C1087 1.362 . S
C1087 H1077 0.930 . S
C1087 C1080 1.409 . S
C1087 C1086 1.362 . S
H1088 C1094 0.930 1_545 S
H1089 C1097 0.930 . S
H1090 C1098 0.930 . S
H1091 C1099 0.930 1_565 S
H1092 C1102 0.930 . S
H1093 C1103 0.930 . S
C1094 H1088 0.930 1_565 S
C1094 C1095 1.355 . S
C1094 C1096 1.415 1_565 S
C1095 C1094 1.355 . S
C1095 C1097 1.419 . S
C1096 C1094 1.415 1_545 S
C1096 C1101 1.425 1_645 S
C1096 C1103 1.409 . S
C1097 H1089 0.930 . S
C1097 C1095 1.419 . S
C1097 C1098 1.362 1_655 S
C1098 H1090 0.930 . S
C1098 C1097 1.362 1_455 S
C1098 C1101 1.409 . S
C1099 H1091 0.930 1_545 S
C1099 C1100 1.355 . S
C1099 C1101 1.415 1_545 S
C1100 C1099 1.355 . S
C1100 C1102 1.419 . S
C1101 C1096 1.425 1_465 S
C1101 C1098 1.409 . S
C1101 C1099 1.415 1_565 S
C1102 H1092 0.930 . S
C1102 C1100 1.419 . S
C1102 C1103 1.362 1_455 S
C1103 H1093 0.930 . S
C1103 C1096 1.409 . S
C1103 C1102 1.362 1_655 S
H1104 C1110 0.930 . S
H1105 C1113 0.930 . S
H1106 C1114 0.930 . S
H1107 C1115 0.930 . S
H1108 C1118 0.930 . S
H1109 C1119 0.930 . S
C1110 H1104 0.930 . S
C1110 C1111 1.355 1_554 S
C1110 C1112 1.415 . S
C1111 C1110 1.355 1_556 S
C1111 C1113 1.419 . S
C1112 C1110 1.415 . S
C1112 C1117 1.425 1_545 S
C1112 C1119 1.409 . S
C1113 H1105 0.930 . S
C1113 C1111 1.419 . S
C1113 C1114 1.362 1_545 S
C1114 H1106 0.930 . S
C1114 C1113 1.362 1_565 S
C1114 C1117 1.409 1_556 S
C1115 H1107 0.930 . S
C1115 C1116 1.355 . S
C1115 C1117 1.415 . S
C1116 C1115 1.355 . S
C1116 C1118 1.419 . S
C1117 C1112 1.425 1_565 S
C1117 C1114 1.409 1_554 S
C1117 C1115 1.415 . S
C1118 H1108 0.930 . S
C1118 C1116 1.419 . S
C1118 C1119 1.362 1_565 S
C1119 H1109 0.930 . S
C1119 C1112 1.409 . S
C1119 C1118 1.362 1_545 S
C359 C7 1.518 1_556 S
C364 C203 1.663 . S
C375 C225 1.589 . S
C380 C28 1.575 . S
C391 C251 1.631 . S
C396 C50 1.498 . S
C407 C185 1.665 . S
C412 C73 1.560 . S
C423 C93 1.594 . S
C428 C292 1.644 . S
C439 C115 1.511 . S
C444 C315 1.607 . S
C455 C337 1.620 . S
C460 C141 1.603 . S
C471 C270 1.668 . S
C476 C163 1.541 . S
C487 C27 1.589 . S
C492 C183 1.577 . S
C503 C49 1.608 . S
C508 C204 1.600 . S
C519 C75 1.651 . S
C524 C226 1.588 1_556 S
C535 C249 1.592 . S
C540 C9 1.647 . S
C551 C116 1.650 . S
C556 C269 1.502 . S
C567 C139 1.587 . S
C572 C291 1.568 . S
C583 C161 1.668 . S
C588 C317 1.539 . S
C599 C94 1.630 . S
C604 C339 1.498 . S
C615 C6 1.470 . S
C620 C334 1.540 . S
C631 C29 1.450 . S
C636 C96 1.550 . S
C647 C294 1.551 . S
C652 C51 1.521 . S
C663 C136 1.540 . S
C668 C72 1.465 . S
C679 C97 1.523 . S
C684 C246 1.570 . S
C695 C4 1.572 1_556 S
C700 C119 1.511 . S
C711 C137 1.469 . S
C716 C206 1.540 . S
C727 C159 1.529 . S
C732 C52 1.567 . S
C743 C182 1.508 . S
C748 C158 1.545 . S
C759 C272 1.572 . S
C764 C205 1.517 . S
C775 C227 1.454 . S
C780 C118 1.558 . S
C791 C312 1.541 . S
C796 C248 1.493 . S
C807 C273 1.530 . S
C812 C70 1.560 . S
C823 C180 1.550 . S
C828 C295 1.520 . S
C839 C313 1.453 . S
C844 C30 1.557 . S
C855 C335 1.457 . S
C860 C228 1.560 1_556 S
C871 C8 1.359 . S
C876 C268 1.359 . S
C887 C114 1.380 . S
C892 C26 1.380 . S
C903 C48 1.379 . S
C908 C316 1.379 . S
C919 C162 1.360 . S
C924 C74 1.360 . S
C935 C92 1.390 . S
C940 C184 1.390 . S
C951 C224 1.395 . S
C956 C140 1.395 . S
C967 C202 1.411 . S
C972 C290 1.411 . S
C983 C338 1.410 . S
C988 C250 1.410 . S
C999 C271 1.222 . S
C1004 C5 1.222 . S
C1015 C117 1.238 . S
C1020 C31 1.238 . S
C1031 C53 1.169 . S
C1036 C314 1.169 . S
C1047 C160 1.253 . S
C1052 C71 1.253 . S
C1063 C95 1.247 . S
C1068 C181 1.247 . S
C1079 C138 1.220 . S
C1084 C229 1.220 . S
C1095 C293 1.256 . S
C1100 C207 1.256 . S
C1111 C336 1.161 . S
C1116 C247 1.161 . S
