# Generated by pormake.
# Topology vbj, (5)-cn, num edge types: 1
# Building blocks:
#     Node 0, Type 0, BuildingBlock: XOMCOT_clean_sbu_0, # of connection points: 5
#     Node 1, Type 0, BuildingBlock: XOMCOT_clean_sbu_0, # of connection points: 5
#     Node 2, Type 0, BuildingBlock: XOMCOT_clean_sbu_0, # of connection points: 5
#     Node 3, Type 0, BuildingBlock: XOMCOT_clean_sbu_0, # of connection points: 5
#     Node 4, Type 0, BuildingBlock: XOMCOT_clean_sbu_0, # of connection points: 5
#     Node 5, Type 0, BuildingBlock: XOMCOT_clean_sbu_0, # of connection points: 5
#     Node 6, Type 0, BuildingBlock: XOMCOT_clean_sbu_0, # of connection points: 5
#     Node 7, Type 0, BuildingBlock: XOMCOT_clean_sbu_0, # of connection points: 5
#     Node 8, Type 0, BuildingBlock: XOMCOT_clean_sbu_0, # of connection points: 5
#     Node 9, Type 0, BuildingBlock: XOMCOT_clean_sbu_0, # of connection points: 5
#     Node 10, Type 0, BuildingBlock: XOMCOT_clean_sbu_0, # of connection points: 5
#     Node 11, Type 0, BuildingBlock: XOMCOT_clean_sbu_0, # of connection points: 5
#     Node 12, Type 0, BuildingBlock: XOMCOT_clean_sbu_0, # of connection points: 5
#     Node 13, Type 0, BuildingBlock: XOMCOT_clean_sbu_0, # of connection points: 5
#     Node 14, Type 0, BuildingBlock: XOMCOT_clean_sbu_0, # of connection points: 5
#     Node 15, Type 0, BuildingBlock: XOMCOT_clean_sbu_0, # of connection points: 5
#     Edge 16, Type (0, 0), BuildingBlock: UVAHIK_clean_linker_0, # of connection points: 2
#     Edge 17, Type (0, 0), BuildingBlock: UVAHIK_clean_linker_0, # of connection points: 2
#     Edge 18, Type (0, 0), BuildingBlock: UVAHIK_clean_linker_0, # of connection points: 2
#     Edge 19, Type (0, 0), BuildingBlock: UVAHIK_clean_linker_0, # of connection points: 2
#     Edge 20, Type (0, 0), BuildingBlock: UVAHIK_clean_linker_0, # of connection points: 2
#     Edge 21, Type (0, 0), BuildingBlock: UVAHIK_clean_linker_0, # of connection points: 2
#     Edge 22, Type (0, 0), BuildingBlock: UVAHIK_clean_linker_0, # of connection points: 2
#     Edge 23, Type (0, 0), BuildingBlock: UVAHIK_clean_linker_0, # of connection points: 2
#     Edge 24, Type (0, 0), BuildingBlock: UVAHIK_clean_linker_0, # of connection points: 2
#     Edge 25, Type (0, 0), BuildingBlock: UVAHIK_clean_linker_0, # of connection points: 2
#     Edge 26, Type (0, 0), BuildingBlock: UVAHIK_clean_linker_0, # of connection points: 2
#     Edge 27, Type (0, 0), BuildingBlock: UVAHIK_clean_linker_0, # of connection points: 2
#     Edge 28, Type (0, 0), BuildingBlock: UVAHIK_clean_linker_0, # of connection points: 2
#     Edge 29, Type (0, 0), BuildingBlock: UVAHIK_clean_linker_0, # of connection points: 2
#     Edge 30, Type (0, 0), BuildingBlock: UVAHIK_clean_linker_0, # of connection points: 2
#     Edge 31, Type (0, 0), BuildingBlock: UVAHIK_clean_linker_0, # of connection points: 2
#     Edge 32, Type (0, 0), BuildingBlock: UVAHIK_clean_linker_0, # of connection points: 2
#     Edge 33, Type (0, 0), BuildingBlock: UVAHIK_clean_linker_0, # of connection points: 2
#     Edge 34, Type (0, 0), BuildingBlock: UVAHIK_clean_linker_0, # of connection points: 2
#     Edge 35, Type (0, 0), BuildingBlock: UVAHIK_clean_linker_0, # of connection points: 2
#     Edge 36, Type (0, 0), BuildingBlock: UVAHIK_clean_linker_0, # of connection points: 2
#     Edge 37, Type (0, 0), BuildingBlock: UVAHIK_clean_linker_0, # of connection points: 2
#     Edge 38, Type (0, 0), BuildingBlock: UVAHIK_clean_linker_0, # of connection points: 2
#     Edge 39, Type (0, 0), BuildingBlock: UVAHIK_clean_linker_0, # of connection points: 2
#     Edge 40, Type (0, 0), BuildingBlock: UVAHIK_clean_linker_0, # of connection points: 2
#     Edge 41, Type (0, 0), BuildingBlock: UVAHIK_clean_linker_0, # of connection points: 2
#     Edge 42, Type (0, 0), BuildingBlock: UVAHIK_clean_linker_0, # of connection points: 2
#     Edge 43, Type (0, 0), BuildingBlock: UVAHIK_clean_linker_0, # of connection points: 2
#     Edge 44, Type (0, 0), BuildingBlock: UVAHIK_clean_linker_0, # of connection points: 2
#     Edge 45, Type (0, 0), BuildingBlock: UVAHIK_clean_linker_0, # of connection points: 2
#     Edge 46, Type (0, 0), BuildingBlock: UVAHIK_clean_linker_0, # of connection points: 2
#     Edge 47, Type (0, 0), BuildingBlock: UVAHIK_clean_linker_0, # of connection points: 2
#     Edge 48, Type (0, 0), BuildingBlock: UVAHIK_clean_linker_0, # of connection points: 2
#     Edge 49, Type (0, 0), BuildingBlock: UVAHIK_clean_linker_0, # of connection points: 2
#     Edge 50, Type (0, 0), BuildingBlock: UVAHIK_clean_linker_0, # of connection points: 2
#     Edge 51, Type (0, 0), BuildingBlock: UVAHIK_clean_linker_0, # of connection points: 2
#     Edge 52, Type (0, 0), BuildingBlock: UVAHIK_clean_linker_0, # of connection points: 2
#     Edge 53, Type (0, 0), BuildingBlock: UVAHIK_clean_linker_0, # of connection points: 2
#     Edge 54, Type (0, 0), BuildingBlock: UVAHIK_clean_linker_0, # of connection points: 2
#     Edge 55, Type (0, 0), BuildingBlock: UVAHIK_clean_linker_0, # of connection points: 2
# Relax obj value: 0.092
# Max RMSD: 0.166
# Mean RMSD: 0.161
data_MOF--net-vbj--node1-XOMCOT_clean_sbu_0--edge1-UVAHIK_clean_linker_0
_symmetry_space_group_name_H-M    P1
_symmetry_Int_Tables_number       1
_symmetry_cell_setting            triclinic
loop_
_symmetry_equiv_pos_as_xyz
'x, y, z'
_cell_length_a     31.867473
_cell_length_b     82.214585
_cell_length_c     64.55968
_cell_angle_alpha  89.135112
_cell_angle_beta   90.34585
_cell_angle_gamma 89.972264
loop_
_atom_site_label
_atom_site_type_symbol
_atom_site_fract_x
_atom_site_fract_y
_atom_site_fract_z
_atom_type_partial_charge
Co0 Co 0.10358 0.12497 0.07673 0.0
C1 C 0.13441 0.09061 0.07283 0.0
C2 C 0.10583 0.10007 0.04503 0.0
C3 C 0.12259 0.08508 0.04088 0.0
N4 N 0.11269 0.10354 0.06513 0.0
N5 N 0.14062 0.07917 0.05835 0.0
H6 H 0.14814 0.08993 0.0881 0.0
H7 H 0.09133 0.10827 0.03385 0.0
C8 C 0.02006 0.11474 0.06041 0.0
O9 O 0.02599 0.10066 0.06988 0.0
N10 N 0.09549 0.14642 0.08769 0.0
C11 C 0.10951 0.15156 0.10618 0.0
C12 C 0.09738 0.16746 0.10857 0.0
C13 C 0.07546 0.15926 0.0789 0.0
N14 N 0.07597 0.17229 0.09145 0.0
C15 C 0.1075 0.10898 0.11653 0.0
C16 C 0.0265 0.11616 0.12827 0.0
C17 C 0.05377 0.10903 0.14293 0.0
C18 C 0.09461 0.10521 0.13668 0.0
C19 C 0.0408 0.11989 0.10836 0.0
N20 N 0.08067 0.11602 0.10245 0.0
H21 H 0.14013 0.10734 0.11285 0.0
H22 H 0.02036 0.12684 0.09823 0.0
H23 H 0.1273 0.14424 0.11717 0.0
H24 H 0.06035 0.159 0.06386 0.0
O25 O 0.16231 0.12596 0.08444 0.0
O26 O 0.13555 0.13416 0.05426 0.0
O27 O 0.04684 0.12617 0.06262 0.0
C28 C 0.16847 0.13213 0.06602 0.0
H29 H 0.12266 0.0792 0.02599 0.0
H30 H 0.10418 0.17495 0.12182 0.0
H31 H 0.99473 0.11947 0.13233 0.0
H32 H 0.11739 0.10029 0.1476 0.0
Co33 Co 0.40775 0.88333 0.07908 0.0
C34 C 0.38204 0.91846 0.07607 0.0
C35 C 0.4115 0.90988 0.04861 0.0
C36 C 0.39732 0.92541 0.04484 0.0
N37 N 0.40288 0.90555 0.06835 0.0
N38 N 0.37865 0.93088 0.0621 0.0
H39 H 0.36752 0.91851 0.09106 0.0
H40 H 0.42503 0.90191 0.03726 0.0
C41 C 0.49213 0.89162 0.06321 0.0
O42 O 0.48934 0.90477 0.07446 0.0
N43 N 0.41114 0.86117 0.08924 0.0
C44 C 0.39463 0.85579 0.1072 0.0
C45 C 0.40313 0.8395 0.10944 0.0
C46 C 0.42933 0.84808 0.08064 0.0
N47 N 0.42508 0.83462 0.09281 0.0
C48 C 0.41417 0.89812 0.11935 0.0
C49 C 0.49103 0.88442 0.12939 0.0
C50 C 0.46931 0.89285 0.14463 0.0
C51 C 0.43071 0.90002 0.13932 0.0
C52 C 0.47351 0.88284 0.10971 0.0
N53 N 0.43581 0.88988 0.10462 0.0
H54 H 0.38256 0.90216 0.11639 0.0
H55 H 0.48924 0.87498 0.09901 0.0
H56 H 0.37758 0.86324 0.11796 0.0
H57 H 0.44569 0.84845 0.066 0.0
O58 O 0.34985 0.88431 0.08793 0.0
O59 O 0.37153 0.87635 0.05703 0.0
O60 O 0.46288 0.88096 0.06398 0.0
C61 C 0.34058 0.87901 0.06956 0.0
H62 H 0.39845 0.9317 0.03003 0.0
H63 H 0.39329 0.8318 0.12226 0.0
H64 H 0.52069 0.8785 0.13286 0.0
H65 H 0.41216 0.90614 0.15085 0.0
Co66 Co 0.58214 0.8927 0.43381 0.0
C67 C 0.55498 0.85785 0.43116 0.0
C68 C 0.60564 0.86173 0.45263 0.0
C69 C 0.59434 0.84565 0.45375 0.0
N70 N 0.58116 0.8694 0.43851 0.0
N71 N 0.56244 0.84318 0.44036 0.0
H72 H 0.53023 0.86022 0.41996 0.0
H73 H 0.62932 0.86757 0.46199 0.0
C74 C 0.67432 0.89659 0.42329 0.0
O75 O 0.66513 0.90488 0.40629 0.0
N76 N 0.58387 0.91647 0.43017 0.0
C77 C 0.55134 0.92648 0.42561 0.0
C78 C 0.56499 0.94234 0.42548 0.0
C79 C 0.6163 0.92671 0.43397 0.0
N80 N 0.60605 0.94251 0.43057 0.0
C81 C 0.54926 0.89684 0.39302 0.0
C82 C 0.60808 0.8787 0.37224 0.0
C83 C 0.57808 0.88763 0.36079 0.0
C84 C 0.54762 0.89628 0.37156 0.0
C85 C 0.60862 0.87966 0.39396 0.0
N86 N 0.58102 0.88956 0.40394 0.0
H87 H 0.52453 0.90309 0.40083 0.0
H88 H 0.63174 0.87275 0.40269 0.0
H89 H 0.5192 0.92275 0.42328 0.0
H90 H 0.64664 0.92281 0.43957 0.0
O91 O 0.52262 0.89358 0.43819 0.0
O92 O 0.57065 0.89567 0.46302 0.0
O93 O 0.64527 0.89158 0.43535 0.0
C94 C 0.53111 0.89544 0.45771 0.0
H95 H 0.60839 0.83647 0.4638 0.0
H96 H 0.54566 0.95294 0.42246 0.0
H97 H 0.63139 0.87142 0.36451 0.0
H98 H 0.52244 0.90258 0.36343 0.0
Co99 Co 0.89998 0.13201 0.42439 0.0
C100 C 0.86933 0.09808 0.42709 0.0
C101 C 0.91014 0.1038 0.45253 0.0
C102 C 0.89524 0.08822 0.45539 0.0
N103 N 0.89408 0.10993 0.43474 0.0
N104 N 0.86942 0.08461 0.43943 0.0
H105 H 0.85101 0.09946 0.41301 0.0
H106 H 0.92991 0.11042 0.46314 0.0
C107 C 0.99137 0.14052 0.4326 0.0
O108 O 0.99377 0.14898 0.41522 0.0
N109 N 0.90473 0.15437 0.41406 0.0
C110 C 0.88816 0.16027 0.39621 0.0
C111 C 0.89556 0.17666 0.39481 0.0
C112 C 0.92057 0.1676 0.42369 0.0
N113 N 0.91641 0.18135 0.41195 0.0
C114 C 0.89135 0.12284 0.38209 0.0
C115 C 0.97323 0.11347 0.37527 0.0
C116 C 0.94545 0.11468 0.35837 0.0
C117 C 0.90363 0.11874 0.36221 0.0
C118 C 0.95945 0.11769 0.39509 0.0
N119 N 0.9197 0.12351 0.398 0.0
H120 H 0.85892 0.12598 0.38439 0.0
H121 H 0.98101 0.11625 0.40788 0.0
H122 H 0.87032 0.15343 0.38514 0.0
H123 H 0.93525 0.1671 0.43884 0.0
O124 O 0.8404 0.13273 0.41861 0.0
O125 O 0.87011 0.13976 0.44823 0.0
O126 O 0.95793 0.13275 0.43723 0.0
C127 C 0.836 0.13796 0.43735 0.0
H128 H 0.90149 0.08044 0.46873 0.0
H129 H 0.88519 0.18458 0.38226 0.0
H130 H 0.00552 0.10979 0.37313 0.0
H131 H 0.88053 0.11902 0.34983 0.0
Co132 Co 0.89412 0.88929 0.88844 0.0
C133 C 0.91878 0.85443 0.89006 0.0
C134 C 0.85219 0.85767 0.88659 0.0
C135 C 0.86076 0.84127 0.88722 0.0
N136 N 0.88847 0.86589 0.88853 0.0
N137 N 0.90259 0.83923 0.88942 0.0
H138 H 0.9518 0.85719 0.89185 0.0
H139 H 0.82162 0.86322 0.88465 0.0
C140 C 0.83136 0.89958 0.91925 0.0
O141 O 0.86102 0.90905 0.92655 0.0
N142 N 0.8983 0.91306 0.88727 0.0
C143 C 0.93233 0.92241 0.88348 0.0
C144 C 0.91998 0.93838 0.88109 0.0
C145 C 0.86555 0.92352 0.88569 0.0
N146 N 0.87785 0.9391 0.88258 0.0
C147 C 0.96351 0.89392 0.91648 0.0
C148 C 0.93104 0.87593 0.94917 0.0
C149 C 0.97045 0.8832 0.95132 0.0
C150 C 0.98669 0.89227 0.93475 0.0
C151 C 0.90835 0.87825 0.93075 0.0
N152 N 0.92412 0.88758 0.91484 0.0
H153 H 0.97833 0.89962 0.90342 0.0
H154 H 0.8784 0.87223 0.92911 0.0
H155 H 0.96381 0.91807 0.88103 0.0
H156 H 0.83311 0.9197 0.88584 0.0
O157 O 0.9415 0.88765 0.87043 0.0
O158 O 0.87548 0.89004 0.85972 0.0
O159 O 0.83847 0.89089 0.90334 0.0
C160 C 0.91516 0.88873 0.85506 0.0
H161 H 0.83796 0.8316 0.88572 0.0
H162 H 0.94059 0.94857 0.87802 0.0
H163 H 0.91814 0.86842 0.9615 0.0
H164 H 0.01797 0.8974 0.93555 0.0
Co165 Co 0.61238 0.13378 0.8862 0.0
C166 C 0.58936 0.16861 0.88954 0.0
C167 C 0.65586 0.16519 0.88651 0.0
C168 C 0.6478 0.1816 0.88777 0.0
N169 N 0.61928 0.15708 0.88775 0.0
N170 N 0.606 0.18376 0.88966 0.0
H171 H 0.55622 0.16592 0.89084 0.0
H172 H 0.68625 0.15959 0.88453 0.0
C173 C 0.67502 0.12093 0.9164 0.0
O174 O 0.64472 0.11135 0.92297 0.0
N175 N 0.60669 0.11015 0.88361 0.0
C176 C 0.5718 0.1013 0.87984 0.0
C177 C 0.5828 0.08526 0.87735 0.0
C178 C 0.63859 0.09937 0.88174 0.0
N179 N 0.62486 0.08404 0.87869 0.0
C180 C 0.54303 0.12828 0.91345 0.0
C181 C 0.5781 0.14211 0.94828 0.0
C182 C 0.53856 0.13479 0.94966 0.0
C183 C 0.52077 0.12809 0.93188 0.0
C184 C 0.59973 0.14176 0.92947 0.0
N185 N 0.58298 0.13412 0.9126 0.0
H186 H 0.52731 0.12424 0.89975 0.0
H187 H 0.62997 0.14766 0.92846 0.0
H188 H 0.54055 0.10606 0.87765 0.0
H189 H 0.67138 0.10267 0.88252 0.0
O190 O 0.56458 0.13694 0.86845 0.0
O191 O 0.62987 0.13458 0.8573 0.0
O192 O 0.66837 0.13072 0.90107 0.0
C193 C 0.59006 0.13647 0.85289 0.0
H194 H 0.67093 0.19121 0.88681 0.0
H195 H 0.56153 0.07537 0.87403 0.0
H196 H 0.59216 0.14792 0.96157 0.0
H197 H 0.48924 0.12315 0.93208 0.0
Co198 Co 0.38411 0.14232 0.61491 0.0
C199 C 0.40792 0.17804 0.61695 0.0
C200 C 0.34757 0.17241 0.62956 0.0
C201 C 0.35443 0.1888 0.63154 0.0
N202 N 0.38082 0.16558 0.6202 0.0
N203 N 0.39239 0.19234 0.62359 0.0
H204 H 0.43804 0.17702 0.60974 0.0
H205 H 0.31997 0.16582 0.63459 0.0
C206 C 0.31699 0.15473 0.58704 0.0
O207 O 0.34276 0.16687 0.58326 0.0
N208 N 0.38561 0.11918 0.61063 0.0
C209 C 0.41931 0.10994 0.60647 0.0
C210 C 0.40677 0.0939 0.60587 0.0
C211 C 0.3532 0.10877 0.61259 0.0
N212 N 0.36519 0.09319 0.60975 0.0
C213 C 0.45446 0.15101 0.58982 0.0
C214 C 0.42255 0.14044 0.55249 0.0
C215 C 0.46242 0.14754 0.55307 0.0
C216 C 0.47848 0.15272 0.57202 0.0
C217 C 0.39903 0.13934 0.5707 0.0
N218 N 0.41424 0.14537 0.58893 0.0
H219 H 0.46885 0.15389 0.60447 0.0
H220 H 0.36923 0.13311 0.57021 0.0
H221 H 0.45081 0.11452 0.60426 0.0
H222 H 0.32179 0.11252 0.61665 0.0
O223 O 0.43206 0.14049 0.63288 0.0
O224 O 0.3664 0.13838 0.64351 0.0
O225 O 0.3278 0.14351 0.60002 0.0
C226 C 0.40637 0.13829 0.64812 0.0
H227 H 0.33334 0.1974 0.6386 0.0
H228 H 0.42677 0.08359 0.60279 0.0
H229 H 0.40997 0.13565 0.53821 0.0
H230 H 0.51013 0.15746 0.57322 0.0
Co231 Co 0.10105 0.89881 0.6143 0.0
C232 C 0.07876 0.86385 0.61308 0.0
C233 C 0.14539 0.86758 0.6145 0.0
C234 C 0.13767 0.85114 0.61425 0.0
N235 N 0.10851 0.87552 0.61366 0.0
N236 N 0.09572 0.84873 0.61347 0.0
H237 H 0.0455 0.86646 0.61278 0.0
H238 H 0.17586 0.87331 0.6154 0.0
C239 C 0.1653 0.91057 0.58432 0.0
O240 O 0.13582 0.91992 0.57622 0.0
N241 N 0.09477 0.92242 0.61583 0.0
C242 C 0.05967 0.9312 0.61917 0.0
C243 C 0.07028 0.94733 0.62114 0.0
C244 C 0.12636 0.93336 0.61721 0.0
N245 N 0.11231 0.9487 0.61977 0.0
C246 C 0.0315 0.90321 0.58631 0.0
C247 C 0.06823 0.8894 0.55213 0.0
C248 C 0.02799 0.89617 0.5501 0.0
C249 C 0.00935 0.90278 0.56768 0.0
C250 C 0.0893 0.89006 0.57118 0.0
N251 N 0.07186 0.89779 0.58768 0.0
H252 H 0.01543 0.9074 0.59977 0.0
H253 H 0.11981 0.8844 0.57262 0.0
H254 H 0.02857 0.92634 0.62136 0.0
H255 H 0.15917 0.93012 0.61661 0.0
O256 O 0.05329 0.89595 0.63196 0.0
O257 O 0.11881 0.89864 0.64315 0.0
O258 O 0.15728 0.9016 0.60018 0.0
C259 C 0.07917 0.89667 0.64752 0.0
H260 H 0.16143 0.84174 0.61457 0.0
H261 H 0.04873 0.95719 0.62415 0.0
H262 H 0.08345 0.88374 0.53912 0.0
H263 H 0.97738 0.90726 0.56722 0.0
Co264 Co 0.60217 0.62446 0.07407 0.0
C265 C 0.63545 0.59064 0.07023 0.0
C266 C 0.59441 0.5971 0.04507 0.0
C267 C 0.60933 0.58162 0.04189 0.0
N268 N 0.60946 0.60259 0.06328 0.0
N269 N 0.63523 0.57765 0.0577 0.0
H270 H 0.65565 0.59151 0.08359 0.0
H271 H 0.57509 0.60406 0.03435 0.0
C272 C 0.51539 0.61531 0.06044 0.0
O273 O 0.51964 0.60167 0.07116 0.0
N274 N 0.59609 0.6462 0.08447 0.0
C275 C 0.6129 0.65155 0.10229 0.0
C276 C 0.60091 0.66742 0.10495 0.0
C277 C 0.57441 0.65892 0.07634 0.0
N278 N 0.57667 0.67204 0.08869 0.0
C279 C 0.60719 0.60849 0.1138 0.0
C280 C 0.52906 0.61781 0.12764 0.0
C281 C 0.55643 0.60974 0.14142 0.0
C282 C 0.59573 0.60491 0.13417 0.0
C283 C 0.54191 0.62125 0.10736 0.0
N284 N 0.58026 0.61627 0.10042 0.0
H285 H 0.639 0.60605 0.10943 0.0
H286 H 0.52189 0.6288 0.09771 0.0
H287 H 0.63221 0.64432 0.11274 0.0
H288 H 0.55668 0.65847 0.06201 0.0
O289 O 0.66115 0.62508 0.08114 0.0
O290 O 0.63376 0.63291 0.05093 0.0
O291 O 0.54457 0.62597 0.06078 0.0
C292 C 0.66693 0.63101 0.06259 0.0
H293 H 0.60324 0.57415 0.02853 0.0
H294 H 0.60954 0.675 0.11786 0.0
H295 H 0.49897 0.62227 0.13283 0.0
H296 H 0.61818 0.59894 0.14441 0.0
Co297 Co 0.90874 0.38399 0.07924 0.0
C298 C 0.88196 0.41875 0.07855 0.0
C299 C 0.92541 0.4138 0.05432 0.0
C300 C 0.91213 0.42966 0.05212 0.0
N301 N 0.90781 0.40704 0.0714 0.0
N302 N 0.88465 0.43269 0.0673 0.0
H303 H 0.85946 0.41692 0.09079 0.0
H304 H 0.94433 0.40741 0.04325 0.0
C305 C 0.99732 0.39052 0.06714 0.0
O306 O 0.99682 0.40259 0.08027 0.0
N307 N 0.90796 0.36116 0.08681 0.0
C308 C 0.88694 0.35504 0.10318 0.0
C309 C 0.89494 0.33871 0.10486 0.0
C310 C 0.92852 0.34841 0.07861 0.0
N311 N 0.92128 0.33451 0.08955 0.0
C312 C 0.91432 0.39702 0.12057 0.0
C313 C 0.98624 0.38012 0.13173 0.0
C314 C 0.96571 0.3892 0.1468 0.0
C315 C 0.92949 0.39789 0.14092 0.0
C316 C 0.96989 0.37948 0.11171 0.0
N317 N 0.9348 0.38811 0.10609 0.0
H318 H 0.88478 0.40271 0.1169 0.0
H319 H 0.98473 0.37143 0.10091 0.0
H320 H 0.86773 0.36208 0.1135 0.0
H321 H 0.94923 0.34936 0.06542 0.0
O322 O 0.85016 0.3854 0.08678 0.0
O323 O 0.87405 0.37961 0.05552 0.0
O324 O 0.96507 0.38137 0.06534 0.0
C325 C 0.84205 0.38178 0.06759 0.0
H326 H 0.91962 0.43793 0.03947 0.0
H327 H 0.88232 0.33054 0.11656 0.0
H328 H 0.01427 0.37319 0.13545 0.0
H329 H 0.91177 0.40465 0.15218 0.0
Co330 Co 0.07904 0.39387 0.43617 0.0
C331 C 0.05426 0.35878 0.43574 0.0
C332 C 0.10394 0.36388 0.45733 0.0
C333 C 0.09409 0.34765 0.45897 0.0
N334 N 0.07906 0.37086 0.44283 0.0
N335 N 0.06284 0.34442 0.44545 0.0
H336 H 0.02995 0.36053 0.42414 0.0
H337 H 0.12733 0.37024 0.46632 0.0
C338 C 0.16916 0.40044 0.42463 0.0
O339 O 0.15689 0.4097 0.40897 0.0
N340 N 0.07982 0.41728 0.43033 0.0
C341 C 0.05262 0.42627 0.41885 0.0
C342 C 0.06609 0.44217 0.41826 0.0
C343 C 0.10809 0.42816 0.43754 0.0
N344 N 0.1012 0.44332 0.42985 0.0
C345 C 0.038 0.3923 0.39678 0.0
C346 C 0.10366 0.37944 0.37465 0.0
C347 C 0.06791 0.38504 0.36395 0.0
C348 C 0.03418 0.39088 0.37541 0.0
C349 C 0.10621 0.3812 0.3962 0.0
N350 N 0.07493 0.38887 0.40672 0.0
H351 H 0.01109 0.39642 0.40523 0.0
H352 H 0.13351 0.37653 0.40426 0.0
H353 H 0.02449 0.42193 0.4115 0.0
H354 H 0.13421 0.42493 0.44757 0.0
O355 O 0.02004 0.39503 0.4423 0.0
O356 O 0.07106 0.39846 0.46528 0.0
O357 O 0.14232 0.39322 0.43618 0.0
C358 C 0.03097 0.39793 0.4613 0.0
H359 H 0.10904 0.33886 0.46926 0.0
H360 H 0.05113 0.45213 0.40991 0.0
H361 H 0.12979 0.37419 0.36642 0.0
H362 H 0.00504 0.39444 0.36789 0.0
Co363 Co 0.3989 0.63095 0.42189 0.0
C364 C 0.36123 0.59836 0.43038 0.0
C365 C 0.42634 0.59898 0.43888 0.0
C366 C 0.41163 0.58341 0.44203 0.0
N367 N 0.39476 0.60845 0.43159 0.0
N368 N 0.3707 0.58304 0.43671 0.0
H369 H 0.33089 0.6019 0.42422 0.0
H370 H 0.45839 0.60284 0.44113 0.0
C371 C 0.48936 0.64053 0.43106 0.0
O372 O 0.49217 0.64883 0.41357 0.0
N373 N 0.4021 0.65346 0.41187 0.0
C374 C 0.38509 0.65918 0.39404 0.0
C375 C 0.39173 0.67561 0.3925 0.0
C376 C 0.41746 0.66683 0.42138 0.0
N377 N 0.4126 0.68049 0.40953 0.0
C378 C 0.39248 0.62178 0.37947 0.0
C379 C 0.47467 0.61239 0.37377 0.0
C380 C 0.44717 0.61249 0.3567 0.0
C381 C 0.40536 0.61695 0.35994 0.0
C382 C 0.46036 0.61736 0.39316 0.0
N383 N 0.42026 0.62294 0.39557 0.0
H384 H 0.35991 0.62487 0.38139 0.0
H385 H 0.48165 0.61638 0.40611 0.0
H386 H 0.36759 0.65217 0.38301 0.0
H387 H 0.43243 0.66651 0.43646 0.0
O388 O 0.33942 0.63125 0.41556 0.0
O389 O 0.36772 0.63809 0.44559 0.0
O390 O 0.45613 0.63252 0.43539 0.0
C391 C 0.33412 0.63629 0.43435 0.0
H392 H 0.4298 0.57309 0.44762 0.0
H393 H 0.381 0.6834 0.37989 0.0
H394 H 0.50684 0.60836 0.37222 0.0
H395 H 0.38269 0.61713 0.34737 0.0
Co396 Co 0.39039 0.38909 0.88698 0.0
C397 C 0.41407 0.35415 0.88814 0.0
C398 C 0.34741 0.35768 0.88579 0.0
C399 C 0.35559 0.34125 0.88593 0.0
N400 N 0.38401 0.36573 0.88724 0.0
N401 N 0.39752 0.33899 0.88735 0.0
H402 H 0.44728 0.35681 0.889 0.0
H403 H 0.31687 0.36337 0.88459 0.0
C404 C 0.33129 0.39989 0.91929 0.0
O405 O 0.3619 0.40935 0.92562 0.0
N406 N 0.39531 0.41283 0.88575 0.0
C407 C 0.42957 0.42205 0.88191 0.0
C408 C 0.41765 0.43808 0.87978 0.0
C409 C 0.36284 0.42345 0.88453 0.0
N410 N 0.37561 0.43898 0.88154 0.0
C411 C 0.46384 0.3927 0.91243 0.0
C412 C 0.43274 0.37739 0.9475 0.0
C413 C 0.47297 0.38423 0.94815 0.0
C414 C 0.48871 0.39167 0.93018 0.0
C415 C 0.40869 0.37883 0.92936 0.0
N416 N 0.42348 0.38723 0.91244 0.0
H417 H 0.47783 0.39736 0.89849 0.0
H418 H 0.37816 0.37313 0.92891 0.0
H419 H 0.46084 0.4176 0.87927 0.0
H420 H 0.33031 0.41983 0.88551 0.0
O421 O 0.4355 0.38726 0.86767 0.0
O422 O 0.36858 0.39006 0.85875 0.0
O423 O 0.33654 0.39099 0.90339 0.0
C424 C 0.40764 0.38867 0.85302 0.0
H425 H 0.33225 0.33172 0.88521 0.0
H426 H 0.43827 0.44819 0.87624 0.0
H427 H 0.41992 0.37107 0.96087 0.0
H428 H 0.52055 0.39627 0.92964 0.0
Co429 Co 0.1098 0.63337 0.88431 0.0
C430 C 0.08944 0.66852 0.88491 0.0
C431 C 0.15551 0.66422 0.88155 0.0
C432 C 0.14867 0.68075 0.88168 0.0
N433 N 0.11842 0.6566 0.88363 0.0
N434 N 0.1071 0.68348 0.88377 0.0
H435 H 0.05616 0.66623 0.88641 0.0
H436 H 0.18546 0.65818 0.88005 0.0
C437 C 0.1708 0.62064 0.91543 0.0
O438 O 0.13972 0.61148 0.92206 0.0
N439 N 0.10274 0.60979 0.88421 0.0
C440 C 0.06848 0.60037 0.88698 0.0
C441 C 0.07996 0.58427 0.88526 0.0
C442 C 0.13403 0.59924 0.8801 0.0
N443 N 0.12133 0.58357 0.88112 0.0
C444 C 0.0362 0.63342 0.90927 0.0
C445 C 0.07189 0.64634 0.9445 0.0
C446 C 0.02871 0.64324 0.94407 0.0
C447 C 0.01097 0.63673 0.92617 0.0
C448 C 0.09608 0.643 0.92703 0.0
N449 N 0.07852 0.6359 0.90997 0.0
H450 H 0.02098 0.62958 0.89526 0.0
H451 H 0.12853 0.64674 0.92702 0.0
H452 H 0.03711 0.60452 0.88992 0.0
H453 H 0.16575 0.60303 0.87662 0.0
O454 O 0.06343 0.63584 0.86551 0.0
O455 O 0.12896 0.63214 0.8556 0.0
O456 O 0.16488 0.63047 0.90007 0.0
C457 C 0.08956 0.63418 0.85043 0.0
H458 H 0.17269 0.69001 0.88059 0.0
H459 H 0.05949 0.57389 0.88739 0.0
H460 H 0.08643 0.6519 0.95785 0.0
H461 H 0.97756 0.63443 0.92507 0.0
Co462 Co 0.88489 0.64278 0.61201 0.0
C463 C 0.90899 0.67844 0.61447 0.0
C464 C 0.84769 0.67298 0.62606 0.0
C465 C 0.85445 0.68942 0.62786 0.0
N466 N 0.88153 0.66605 0.61733 0.0
N467 N 0.893 0.69281 0.62057 0.0
H468 H 0.93975 0.67734 0.60794 0.0
H469 H 0.81969 0.66648 0.63066 0.0
C470 C 0.81734 0.65512 0.58436 0.0
O471 O 0.84329 0.66716 0.58035 0.0
N472 N 0.88663 0.61963 0.60766 0.0
C473 C 0.9208 0.61044 0.60437 0.0
C474 C 0.90842 0.59445 0.60293 0.0
C475 C 0.85402 0.6092 0.60827 0.0
N476 N 0.86634 0.59364 0.60537 0.0
C477 C 0.95438 0.65163 0.58634 0.0
C478 C 0.92158 0.64064 0.54939 0.0
C479 C 0.96131 0.64785 0.54957 0.0
C480 C 0.97783 0.65327 0.56833 0.0
C481 C 0.89866 0.63961 0.56778 0.0
N482 N 0.91427 0.64585 0.58582 0.0
H483 H 0.96928 0.65453 0.60084 0.0
H484 H 0.869 0.63327 0.56759 0.0
H485 H 0.95253 0.61504 0.60334 0.0
H486 H 0.82201 0.61301 0.61079 0.0
O487 O 0.93335 0.64104 0.62967 0.0
O488 O 0.86804 0.63878 0.64074 0.0
O489 O 0.82819 0.64395 0.59742 0.0
C490 C 0.90814 0.63872 0.64508 0.0
H491 H 0.83287 0.69816 0.63426 0.0
H492 H 0.92916 0.58421 0.60071 0.0
H493 H 0.90869 0.63566 0.53528 0.0
H494 H 0.00945 0.65807 0.56923 0.0
Co495 Co 0.59719 0.39947 0.61367 0.0
C496 C 0.57438 0.36378 0.61465 0.0
C497 C 0.6338 0.369 0.62872 0.0
C498 C 0.62657 0.35256 0.63055 0.0
N499 N 0.60141 0.37607 0.61851 0.0
N500 N 0.58917 0.34929 0.6217 0.0
H501 H 0.54455 0.36515 0.60698 0.0
H502 H 0.66085 0.37543 0.63461 0.0
C503 C 0.67144 0.38885 0.58961 0.0
O504 O 0.64902 0.37628 0.58384 0.0
N505 N 0.59426 0.42272 0.60965 0.0
C506 C 0.5598 0.43174 0.60566 0.0
C507 C 0.57149 0.44787 0.60434 0.0
C508 C 0.62634 0.43337 0.61073 0.0
N509 N 0.61334 0.44884 0.60749 0.0
C510 C 0.53006 0.39171 0.58597 0.0
C511 C 0.56779 0.40219 0.54975 0.0
C512 C 0.52705 0.3958 0.54883 0.0
C513 C 0.50813 0.39068 0.56732 0.0
C514 C 0.58879 0.40291 0.56884 0.0
N515 N 0.57064 0.39697 0.58657 0.0
H516 H 0.51369 0.38861 0.60004 0.0
H517 H 0.61904 0.40879 0.56933 0.0
H518 H 0.52844 0.42693 0.60384 0.0
H519 H 0.65839 0.42987 0.6142 0.0
O520 O 0.54724 0.40006 0.63027 0.0
O521 O 0.61185 0.40253 0.64262 0.0
O522 O 0.65541 0.39955 0.60138 0.0
C523 C 0.57167 0.40188 0.64621 0.0
H524 H 0.64683 0.34379 0.63828 0.0
H525 H 0.55086 0.45806 0.60105 0.0
H526 H 0.58313 0.40677 0.53593 0.0
H527 H 0.47595 0.38645 0.56754 0.0
C528 C 0.50329 0.14926 0.97862 0.0
C529 C 0.51407 0.13465 0.96899 0.0
C530 C 0.47191 0.14938 0.99372 0.0
C531 C 0.40741 0.14439 0.02924 0.0
H532 H 0.31116 0.12165 0.00664 0.0
C533 C 0.24665 0.13267 0.0706 0.0
C534 C 0.21097 0.13548 0.05813 0.0
C535 C 0.28689 0.13406 0.06218 0.0
C536 C 0.33773 0.12807 0.01314 0.0
H537 H 0.50427 0.1086 0.9689 0.0
H538 H 0.45001 0.10876 0.99539 0.0
H539 H 0.3782 0.12028 0.98905 0.0
H540 H 0.18941 0.14283 0.02744 0.0
H541 H 0.25942 0.14507 0.01278 0.0
H542 H 0.36605 0.15223 0.05334 0.0
C543 C 0.46499 0.12013 0.99106 0.0
C544 C 0.37624 0.12714 0.00321 0.0
C545 C 0.49604 0.12002 0.97598 0.0
C546 C 0.21625 0.14046 0.03741 0.0
C547 C 0.25629 0.14172 0.029 0.0
C548 C 0.3687 0.14515 0.03939 0.0
C549 C 0.45116 0.13489 0.99931 0.0
C550 C 0.41144 0.13533 0.01106 0.0
C551 C 0.29189 0.13813 0.04114 0.0
C552 C 0.33346 0.13716 0.03121 0.0
H553 H 0.51674 0.16069 0.97338 0.0
H554 H 0.46175 0.16093 0.99982 0.0
H555 H 0.4341 0.15083 0.03555 0.0
H556 H 0.24348 0.12888 0.08665 0.0
H557 H 0.31392 0.13119 0.07181 0.0
C558 C 0.01036 0.8645 0.97492 0.0
C559 C 0.99674 0.8803 0.96988 0.0
C560 C 0.04168 0.86205 0.9899 0.0
C561 C 0.0994 0.87916 0.03336 0.0
H562 H 0.19864 0.86183 0.00721 0.0
C563 C 0.26548 0.88748 0.06806 0.0
C564 C 0.29702 0.87641 0.06286 0.0
C565 C 0.22517 0.88597 0.05961 0.0
C566 C 0.17118 0.86626 0.01513 0.0
H567 H 0.0027 0.90581 0.9772 0.0
H568 H 0.0567 0.90147 0.00394 0.0
H569 H 0.13252 0.86218 0.9885 0.0
H570 H 0.31113 0.85451 0.04613 0.0
H571 H 0.24036 0.8511 0.03256 0.0
H572 H 0.13768 0.88305 0.06015 0.0
C573 C 0.04338 0.89103 0.99624 0.0
C574 C 0.13326 0.86654 0.00426 0.0
C575 C 0.01273 0.89351 0.98097 0.0
C576 C 0.28728 0.86331 0.05009 0.0
C577 C 0.24675 0.86149 0.04217 0.0
C578 C 0.13722 0.87853 0.0445 0.0
C579 C 0.05909 0.87534 1.0003 0.0
C580 C 0.09729 0.87325 0.01312 0.0
C581 C 0.2154 0.87309 0.04622 0.0
C582 C 0.17392 0.87237 0.03537 0.0
H583 H 0.99867 0.85417 0.96639 0.0
H584 H 0.05351 0.84986 0.99277 0.0
H585 H 0.07191 0.8844 0.04047 0.0
H586 H 0.27254 0.89775 0.07781 0.0
H587 H 0.20234 0.89531 0.06293 0.0
C588 C 0.72769 0.885 0.44779 0.0
C589 C 0.71854 0.89422 0.42983 0.0
C590 C 0.76874 0.88362 0.45514 0.0
C591 C 0.85957 0.87725 0.46469 0.0
H592 H 0.92226 0.91754 0.46741 0.0
C593 C 0.00435 0.88203 0.5177 0.0
C594 C 0.00439 0.8959 0.53018 0.0
C595 C 0.97801 0.88124 0.50031 0.0
C596 C 0.90523 0.90617 0.46676 0.0
H597 H 0.74578 0.9087 0.40498 0.0
H598 H 0.81798 0.90617 0.4178 0.0
H599 H 0.85838 0.91644 0.44663 0.0
H600 H 0.97929 0.92026 0.53327 0.0
H601 H 0.93251 0.91869 0.50363 0.0
H602 H 0.90441 0.86732 0.48607 0.0
C603 C 0.79307 0.90017 0.42631 0.0
C604 C 0.86885 0.90547 0.45459 0.0
C605 C 0.75175 0.90157 0.41893 0.0
C606 C 0.97939 0.90927 0.52422 0.0
C607 C 0.95299 0.90845 0.50697 0.0
C608 C 0.89568 0.87799 0.477 0.0
C609 C 0.80194 0.89135 0.44468 0.0
C610 C 0.84468 0.89118 0.45408 0.0
C611 C 0.95112 0.89428 0.49507 0.0
C612 C 0.91807 0.89264 0.47882 0.0
H613 H 0.70298 0.87913 0.45658 0.0
H614 H 0.77412 0.87698 0.46953 0.0
H615 H 0.84223 0.86594 0.46426 0.0
H616 H 0.02323 0.87151 0.52187 0.0
H617 H 0.97785 0.87022 0.49132 0.0
C618 C 0.7581 0.14029 0.43349 0.0
C619 C 0.79417 0.14115 0.44605 0.0
C620 C 0.71833 0.14269 0.44193 0.0
C621 C 0.66511 0.15921 0.48809 0.0
H622 H 0.57431 0.13068 0.47171 0.0
C623 C 0.50231 0.13412 0.52497 0.0
C624 C 0.48935 0.14841 0.53462 0.0
C625 C 0.5347 0.1346 0.51047 0.0
C626 C 0.59933 0.13873 0.47648 0.0
H627 H 0.81702 0.14523 0.47723 0.0
H628 H 0.7478 0.14904 0.49206 0.0
H629 H 0.642 0.12881 0.45454 0.0
H630 H 0.49712 0.17452 0.5357 0.0
H631 H 0.5523 0.17556 0.50967 0.0
H632 H 0.62366 0.16846 0.51085 0.0
C633 C 0.75009 0.14689 0.4756 0.0
C634 C 0.63803 0.13779 0.46646 0.0
C635 C 0.78981 0.1446 0.46714 0.0
C636 C 0.50691 0.16334 0.52848 0.0
C637 C 0.53875 0.16388 0.51375 0.0
C638 C 0.62666 0.16005 0.4982 0.0
C639 C 0.71384 0.14591 0.46312 0.0
C640 C 0.67161 0.14783 0.47243 0.0
C641 C 0.5543 0.14944 0.50522 0.0
C642 C 0.59344 0.14966 0.49276 0.0
H643 H 0.76054 0.13771 0.41713 0.0
H644 H 0.69114 0.14206 0.43183 0.0
H645 H 0.69003 0.16733 0.49283 0.0
H646 H 0.48939 0.12245 0.52968 0.0
H647 H 0.54602 0.12322 0.5044 0.0
C648 C 0.76367 0.88522 0.92759 0.0
C649 C 0.79109 0.89841 0.93044 0.0
C650 C 0.72759 0.88359 0.93977 0.0
C651 C 0.65705 0.90692 0.9738 0.0
H652 H 0.63535 0.86536 0.00087 0.0
C653 C 0.55712 0.90255 0.04673 0.0
C654 C 0.52655 0.89027 0.04801 0.0
C655 C 0.58708 0.90247 0.03108 0.0
C656 C 0.64067 0.87698 0.99322 0.0
H657 H 0.80147 0.92047 0.94775 0.0
H658 H 0.73902 0.91765 0.96881 0.0
H659 H 0.69047 0.86751 0.9747 0.0
H660 H 0.50457 0.86788 0.03428 0.0
H661 H 0.55742 0.86772 0.00686 0.0
H662 H 0.60811 0.9165 0.99255 0.0
C663 C 0.74505 0.90859 0.95719 0.0
C664 C 0.67213 0.87821 0.9782 0.0
C665 C 0.78107 0.91015 0.94519 0.0
C666 C 0.52769 0.87753 0.03371 0.0
C667 C 0.55794 0.87742 0.01803 0.0
C668 C 0.6258 0.9057 0.98878 0.0
C669 C 0.71809 0.89522 0.95482 0.0
C670 C 0.68132 0.8933 0.9687 0.0
C671 C 0.58737 0.8901 0.01631 0.0
C672 C 0.61794 0.89082 0.99903 0.0
H673 H 0.77068 0.87595 0.91638 0.0
H674 H 0.70725 0.87321 0.9375 0.0
H675 H 0.66274 0.91864 0.96646 0.0
H676 H 0.55743 0.91249 0.05755 0.0
H677 H 0.60993 0.91222 0.03046 0.0
C678 C 0.72531 0.10743 0.94081 0.0
C679 C 0.71552 0.12073 0.92775 0.0
C680 C 0.76129 0.10754 0.9532 0.0
C681 C 0.83415 0.13516 0.97905 0.0
H682 H 0.89906 0.09571 0.98779 0.0
C683 C 0.98012 0.1312 0.0337 0.0
C684 C 0.98449 0.11685 0.04569 0.0
C685 C 0.94878 0.13252 0.01846 0.0
C686 C 0.88103 0.10679 0.98569 0.0
H687 H 0.7363 0.14451 0.91712 0.0
H688 H 0.79965 0.14473 0.93898 0.0
H689 H 0.84374 0.0964 0.96161 0.0
H690 H 0.9583 0.09287 0.0515 0.0
H691 H 0.90348 0.09527 0.02525 0.0
H692 H 0.87111 0.14544 0.00343 0.0
C693 C 0.77918 0.13422 0.93959 0.0
C694 C 0.84942 0.1072 0.97061 0.0
C695 C 0.74316 0.13404 0.92697 0.0
C696 C 0.95604 0.10407 0.0425 0.0
C697 C 0.92478 0.10539 0.0273 0.0
C698 C 0.86584 0.13474 0.9942 0.0
C699 C 0.78842 0.121 0.95297 0.0
C700 C 0.82506 0.12128 0.96736 0.0
C701 C 0.92116 0.11951 0.01484 0.0
C702 C 0.88912 0.12044 0.99796 0.0
H703 H 0.70473 0.09696 0.94176 0.0
H704 H 0.76712 0.09724 0.96348 0.0
H705 H 0.81568 0.14614 0.97706 0.0
H706 H 0.00154 0.14128 0.03573 0.0
H707 H 0.947 0.14354 0.0091 0.0
C708 C 0.0288 0.12867 0.46358 0.0
C709 C 0.02658 0.14057 0.44771 0.0
C710 C 0.05964 0.12949 0.47904 0.0
C711 C 0.12557 0.15896 0.50592 0.0
H712 H 0.19032 0.12145 0.52437 0.0
C713 C 0.26923 0.16543 0.55925 0.0
C714 C 0.27911 0.15306 0.57375 0.0
C715 C 0.23648 0.16354 0.54508 0.0
C716 C 0.17201 0.13199 0.51969 0.0
H717 H 0.0556 0.16248 0.43542 0.0
H718 H 0.10931 0.164 0.46256 0.0
H719 H 0.13859 0.1186 0.49656 0.0
H720 H 0.26124 0.1291 0.58505 0.0
H721 H 0.20297 0.12594 0.56053 0.0
H722 H 0.1581 0.17233 0.52914 0.0
C723 C 0.08707 0.15404 0.46301 0.0
C724 C 0.14255 0.13037 0.50365 0.0
C725 C 0.05655 0.1531 0.44737 0.0
C726 C 0.25442 0.13889 0.57412 0.0
C727 C 0.2213 0.13702 0.55991 0.0
C728 C 0.1546 0.16055 0.52208 0.0
C729 C 0.08863 0.14235 0.47915 0.0
C730 C 0.11944 0.14389 0.49641 0.0
C731 C 0.21221 0.14927 0.54503 0.0
C732 C 0.17873 0.14715 0.529 0.0
H733 H 0.00631 0.11881 0.46424 0.0
H734 H 0.05992 0.12035 0.4913 0.0
H735 H 0.10759 0.16952 0.50099 0.0
H736 H 0.28755 0.17652 0.55843 0.0
H737 H 0.23112 0.17314 0.5337 0.0
C738 C 0.24076 0.90159 0.58347 0.0
C739 C 0.20633 0.9094 0.57385 0.0
C740 C 0.27864 0.89978 0.57282 0.0
C741 C 0.31774 0.89543 0.52067 0.0
H742 H 0.42558 0.91077 0.54051 0.0
C743 C 0.45636 0.90106 0.46564 0.0
C744 C 0.49687 0.89722 0.47281 0.0
C745 C 0.42301 0.9021 0.4794 0.0
C746 C 0.39586 0.90616 0.53489 0.0
H747 H 0.18486 0.92158 0.54566 0.0
H748 H 0.25041 0.9181 0.52709 0.0
H749 H 0.36343 0.91319 0.56246 0.0
H750 H 0.53451 0.8917 0.50007 0.0
H751 H 0.47566 0.8931 0.52428 0.0
H752 H 0.34947 0.88813 0.49335 0.0
C753 C 0.24819 0.91349 0.54286 0.0
C754 C 0.36034 0.9076 0.54744 0.0
C755 C 0.21073 0.91554 0.55356 0.0
C756 C 0.50355 0.89471 0.49415 0.0
C757 C 0.46987 0.89556 0.50799 0.0
C758 C 0.35313 0.89377 0.5083 0.0
C759 C 0.28232 0.90546 0.55229 0.0
C760 C 0.32085 0.90259 0.54019 0.0
C761 C 0.42905 0.89908 0.50071 0.0
C762 C 0.39248 0.89951 0.51497 0.0
H763 H 0.23831 0.89676 0.59912 0.0
H764 H 0.30458 0.89351 0.58037 0.0
H765 H 0.28772 0.89121 0.51489 0.0
H766 H 0.45032 0.9033 0.44931 0.0
H767 H 0.39237 0.90533 0.47326 0.0
C768 C 0.74507 0.63084 0.06658 0.0
C769 C 0.70916 0.63534 0.0551 0.0
C770 C 0.78511 0.6345 0.05911 0.0
C771 C 0.84173 0.66076 0.02168 0.0
H772 H 0.91953 0.62464 0.01832 0.0
C773 C 0.96359 0.65562 0.95801 0.0
C774 C 0.0013 0.64721 0.96169 0.0
C775 C 0.93415 0.6572 0.97371 0.0
C776 C 0.89877 0.635 0.01958 0.0
H777 H 0.68688 0.64753 0.02713 0.0
H778 H 0.75667 0.65393 0.01411 0.0
H779 H 0.85497 0.62143 0.03796 0.0
H780 H 0.03925 0.63481 0.98494 0.0
H781 H 0.98757 0.63762 0.01267 0.0
H782 H 0.88483 0.67417 0.00275 0.0
C783 C 0.75393 0.64767 0.02892 0.0
C784 C 0.86166 0.63313 0.03079 0.0
C785 C 0.71398 0.64388 0.03628 0.0
C786 C 0.01032 0.64132 0.98175 0.0
C787 C 0.98065 0.64283 0.99752 0.0
C788 C 0.87892 0.66266 0.01058 0.0
C789 C 0.78992 0.6429 0.04016 0.0
C790 C 0.83211 0.6458 0.03131 0.0
C791 C 0.94173 0.65038 0.99348 0.0
C792 C 0.9071 0.6496 0.00876 0.0
H793 H 0.74228 0.62426 0.08117 0.0
H794 H 0.81231 0.63073 0.06811 0.0
H795 H 0.81984 0.67083 0.02217 0.0
H796 H 0.95614 0.66045 0.94271 0.0
H797 H 0.90442 0.66293 0.96995 0.0
C798 C 0.79143 0.3749 0.03949 0.0
C799 C 0.79867 0.3802 0.05976 0.0
C800 C 0.75063 0.37358 0.03179 0.0
C801 C 0.64499 0.38994 0.03817 0.0
H802 H 0.61584 0.35509 0.0009 0.0
C803 C 0.50483 0.36826 0.97776 0.0
C804 C 0.49973 0.3831 0.96696 0.0
C805 C 0.53472 0.3668 0.99365 0.0
C806 C 0.62301 0.36475 0.01158 0.0
H807 H 0.7689 0.38815 0.08798 0.0
H808 H 0.69725 0.38589 0.07442 0.0
H809 H 0.68176 0.3539 0.02012 0.0
H810 H 0.51945 0.40831 0.96528 0.0
H811 H 0.57179 0.40574 0.9927 0.0
H812 H 0.58656 0.40096 0.02927 0.0
C813 C 0.72327 0.38279 0.06451 0.0
C814 C 0.66106 0.36416 0.02239 0.0
C815 C 0.76423 0.38404 0.07227 0.0
C816 C 0.52313 0.39667 0.97318 0.0
C817 C 0.55279 0.39523 0.98907 0.0
C818 C 0.6069 0.39054 0.02733 0.0
C819 C 0.71608 0.37757 0.04416 0.0
C820 C 0.67306 0.377 0.03528 0.0
C821 C 0.55978 0.38018 0.99909 0.0
C822 C 0.5961 0.3782 0.01343 0.0
H823 H 0.81732 0.37186 0.02946 0.0
H824 H 0.74621 0.3698 0.01592 0.0
H825 H 0.65337 0.40003 0.04796 0.0
H826 H 0.48724 0.3576 0.97325 0.0
H827 H 0.53911 0.35508 0.00124 0.0
C828 C 0.24286 0.4111 0.42384 0.0
C829 C 0.21417 0.399 0.42996 0.0
C830 C 0.2844 0.41059 0.43103 0.0
C831 C 0.36426 0.38377 0.45568 0.0
H832 H 0.39978 0.42263 0.48419 0.0
C833 C 0.47699 0.38191 0.52489 0.0
C834 C 0.50283 0.39531 0.52912 0.0
C835 C 0.44955 0.38226 0.50797 0.0
C836 C 0.39105 0.41178 0.47589 0.0
H837 H 0.20688 0.37645 0.44743 0.0
H838 H 0.27921 0.37548 0.45974 0.0
H839 H 0.33685 0.42339 0.46263 0.0
H840 H 0.52188 0.41924 0.51818 0.0
H841 H 0.47446 0.41972 0.48828 0.0
H842 H 0.41776 0.37201 0.46937 0.0
C843 C 0.26977 0.38536 0.44945 0.0
C844 C 0.35486 0.41223 0.46355 0.0
C845 C 0.22823 0.386 0.44253 0.0
C846 C 0.50243 0.4087 0.51531 0.0
C847 C 0.47494 0.40904 0.49831 0.0
C848 C 0.40063 0.38335 0.46788 0.0
C849 C 0.29807 0.39782 0.44415 0.0
C850 C 0.34032 0.39808 0.45391 0.0
C851 C 0.44736 0.39599 0.49476 0.0
C852 C 0.41362 0.39719 0.47875 0.0
H853 H 0.23283 0.4213 0.41421 0.0
H854 H 0.30562 0.42032 0.42666 0.0
H855 H 0.35409 0.37275 0.44816 0.0
H856 H 0.477 0.37132 0.53508 0.0
H857 H 0.42856 0.37205 0.50592 0.0
C858 C 0.28707 0.643 0.46373 0.0
C859 C 0.29195 0.63933 0.44274 0.0
C860 C 0.24719 0.64545 0.4719 0.0
C861 C 0.13516 0.63669 0.46249 0.0
H862 H 0.12123 0.6682 0.50596 0.0
C863 C 0.00517 0.66334 0.52437 0.0
C864 C 0.98775 0.6485 0.53093 0.0
C865 C 0.03653 0.66368 0.50938 0.0
C866 C 0.12408 0.65956 0.49355 0.0
H867 H 0.25905 0.63553 0.41371 0.0
H868 H 0.18925 0.64014 0.42791 0.0
H869 H 0.18757 0.66657 0.48802 0.0
H870 H 0.98748 0.62248 0.52648 0.0
H871 H 0.04335 0.62289 0.50081 0.0
H872 H 0.07131 0.62983 0.46792 0.0
C873 C 0.21621 0.64086 0.43814 0.0
C874 C 0.16252 0.65844 0.48349 0.0
C875 C 0.25619 0.6383 0.42999 0.0
C876 C 0.00031 0.63408 0.52146 0.0
C877 C 0.03225 0.63436 0.50672 0.0
C878 C 0.09645 0.63791 0.47246 0.0
C879 C 0.21125 0.64443 0.45922 0.0
C880 C 0.16891 0.64672 0.46823 0.0
C881 C 0.05178 0.64912 0.50104 0.0
C882 C 0.09073 0.64913 0.48844 0.0
H883 H 0.31402 0.64376 0.47398 0.0
H884 H 0.24453 0.64784 0.48829 0.0
H885 H 0.13903 0.62748 0.45085 0.0
H886 H 0.99564 0.67462 0.53144 0.0
H887 H 0.05003 0.6753 0.50498 0.0
C888 C 0.28603 0.40979 0.94783 0.0
C889 C 0.29252 0.39877 0.93175 0.0
C890 C 0.2514 0.40826 0.9608 0.0
C891 C 0.17517 0.3784 0.98064 0.0
H892 H 0.11958 0.41708 1.00047 0.0
C893 C 0.03155 0.37763 0.03644 0.0
C894 C 0.0323 0.38925 0.05223 0.0
C895 C 0.06217 0.37781 0.02096 0.0
C896 C 0.13499 0.40617 0.9952 0.0
H897 H 0.26718 0.37761 0.91641 0.0
H898 H 0.2061 0.37498 0.93912 0.0
H899 H 0.17287 0.41961 0.97378 0.0
H900 H 0.06697 0.40967 0.06462 0.0
H901 H 0.1202 0.4099 0.0378 0.0
H902 H 0.13713 0.365 0.00227 0.0
C903 C 0.22821 0.38474 0.94174 0.0
C904 C 0.1655 0.40761 0.97988 0.0
C905 C 0.26298 0.38633 0.92864 0.0
C906 C 0.06522 0.40061 0.05265 0.0
C907 C 0.0956 0.40083 0.03717 0.0
C908 C 0.1444 0.37695 0.99597 0.0
C909 C 0.22221 0.39565 0.95805 0.0
C910 C 0.18661 0.39379 0.9727 0.0
C911 C 0.09395 0.38967 0.02091 0.0
C912 C 0.12463 0.39087 0.00371 0.0
H913 H 0.30813 0.41952 0.95069 0.0
H914 H 0.24817 0.41673 0.97338 0.0
H915 H 0.19107 0.36753 0.97557 0.0
H916 H 0.00664 0.3687 0.03568 0.0
H917 H 0.06008 0.36906 0.00862 0.0
C918 C 0.21915 0.60738 0.94105 0.0
C919 C 0.21083 0.62037 0.92724 0.0
C920 C 0.25467 0.60746 0.95377 0.0
C921 C 0.32991 0.63509 0.9784 0.0
H922 H 0.39017 0.595 0.99029 0.0
C923 C 0.47638 0.63119 0.03282 0.0
C924 C 0.47941 0.61739 0.04592 0.0
C925 C 0.44472 0.63234 0.01771 0.0
C926 C 0.37343 0.60628 0.98732 0.0
H927 H 0.23391 0.64354 0.91563 0.0
H928 H 0.29651 0.6437 0.93799 0.0
H929 H 0.33513 0.59542 0.96398 0.0
H930 H 0.45044 0.59427 0.05385 0.0
H931 H 0.39513 0.59637 0.02778 0.0
H932 H 0.36809 0.64588 0.00198 0.0
C933 C 0.27516 0.63347 0.93899 0.0
C934 C 0.34194 0.60653 0.97216 0.0
C935 C 0.23956 0.63332 0.92606 0.0
C936 C 0.44924 0.60503 0.04399 0.0
C937 C 0.41769 0.60618 0.02889 0.0
C938 C 0.36153 0.63484 0.9936 0.0
C939 C 0.28291 0.62058 0.95312 0.0
C940 C 0.31926 0.62085 0.96775 0.0
C941 C 0.41543 0.6197 0.01532 0.0
C942 C 0.38318 0.62034 0.99849 0.0
H943 H 0.19776 0.59718 0.94231 0.0
H944 H 0.25928 0.59743 0.96461 0.0
H945 H 0.3128 0.64629 0.97554 0.0
H946 H 0.4991 0.64094 0.03386 0.0
H947 H 0.44402 0.6429 0.00748 0.0
C948 C 0.52486 0.62958 0.46313 0.0
C949 C 0.52406 0.64083 0.44648 0.0
C950 C 0.5557 0.63051 0.47857 0.0
C951 C 0.62493 0.65967 0.50382 0.0
H952 H 0.68652 0.62178 0.52367 0.0
C953 C 0.76983 0.66568 0.55639 0.0
C954 C 0.77914 0.65352 0.57127 0.0
C955 C 0.73667 0.66384 0.54244 0.0
C956 C 0.6691 0.63244 0.51861 0.0
H957 H 0.55543 0.66179 0.43293 0.0
H958 H 0.60906 0.66353 0.4601 0.0
H959 H 0.63404 0.61891 0.49621 0.0
H960 H 0.75983 0.63001 0.58349 0.0
H961 H 0.70079 0.62695 0.55938 0.0
H962 H 0.659 0.67321 0.52634 0.0
C963 C 0.58576 0.65397 0.46111 0.0
C964 C 0.63922 0.6308 0.50276 0.0
C965 C 0.55525 0.65289 0.44548 0.0
C966 C 0.75349 0.63962 0.57224 0.0
C967 C 0.7199 0.63781 0.55827 0.0
C968 C 0.65434 0.66129 0.51981 0.0
C969 C 0.5861 0.64286 0.47791 0.0
C970 C 0.61726 0.64445 0.495 0.0
C971 C 0.71137 0.64984 0.54302 0.0
C972 C 0.67738 0.64775 0.52722 0.0
H973 H 0.50129 0.62015 0.46444 0.0
H974 H 0.55499 0.62185 0.49138 0.0
H975 H 0.60786 0.67035 0.49846 0.0
H976 H 0.78889 0.67655 0.55508 0.0
H977 H 0.7318 0.67324 0.53075 0.0
C978 C 0.00931 0.39849 0.49861 0.0
C979 C 0.99894 0.40003 0.47748 0.0
C980 C 0.97794 0.39928 0.51368 0.0
C981 C 0.8694 0.41322 0.52256 0.0
H982 H 0.86326 0.3773 0.56205 0.0
C983 C 0.73325 0.40661 0.58106 0.0
C984 C 0.71386 0.39125 0.58091 0.0
C985 C 0.77196 0.40901 0.57133 0.0
C986 C 0.86474 0.38746 0.5512 0.0
H987 H 0.94804 0.40419 0.45559 0.0
H988 H 0.89362 0.40577 0.4818 0.0
H989 H 0.92401 0.37978 0.53925 0.0
H990 H 0.72057 0.36625 0.57118 0.0
H991 H 0.78807 0.37041 0.55441 0.0
H992 H 0.80952 0.42061 0.53402 0.0
C993 C 0.92583 0.40393 0.48677 0.0
C994 C 0.89964 0.38896 0.53828 0.0
C995 C 0.95698 0.40291 0.47175 0.0
C996 C 0.7346 0.37824 0.57149 0.0
C997 C 0.77345 0.38059 0.56202 0.0
C998 C 0.83472 0.41182 0.53562 0.0
C999 C 0.93584 0.40191 0.50787 0.0
C1000 C 0.90181 0.40162 0.52347 0.0
C1001 C 0.79226 0.39604 0.56155 0.0
C1002 C 0.83154 0.3987 0.54972 0.0
H1003 H 0.04141 0.39623 0.50345 0.0
H1004 H 0.98652 0.39774 0.52985 0.0
H1005 H 0.87042 0.42317 0.51138 0.0
H1006 H 0.71801 0.41688 0.58816 0.0
H1007 H 0.78585 0.42103 0.57129 0.0
C1008 C 0.18964 0.05921 0.04375 0.0
C1009 C 0.16517 0.06449 0.06036 0.0
C1010 C 0.21275 0.04481 0.04533 0.0
C1011 C 0.2542 0.01388 0.08318 0.0
H1012 H 0.26555 0.98845 0.03341 0.0
C1013 C 0.3265 0.94841 0.07988 0.0
C1014 C 0.35621 0.94613 0.06408 0.0
C1015 C 0.30328 0.96288 0.08085 0.0
C1016 C 0.2628 0.99546 0.04742 0.0
H1017 H 0.14594 0.0589 0.09174 0.0
H1018 H 0.18529 0.03336 0.0944 0.0
H1019 H 0.22397 0.01325 0.0324 0.0
H1020 H 0.38593 0.95795 0.03764 0.0
H1021 H 0.34463 0.9827 0.03901 0.0
H1022 H 0.29242 0.99561 0.09819 0.0
C1023 C 0.18742 0.04053 0.08025 0.0
C1024 C 0.23915 1.00977 0.04685 0.0
C1025 C 0.16472 0.05513 0.07874 0.0
C1026 C 0.36272 0.95892 0.04969 0.0
C1027 C 0.33914 0.97321 0.0505 0.0
C1028 C 0.27741 0.99938 0.08381 0.0
C1029 C 0.21153 0.0351 0.06347 0.0
C1030 C 0.23506 0.01936 0.06461 0.0
C1031 C 0.30885 0.97528 0.06592 0.0
C1032 C 0.28246 0.99018 0.06583 0.0
H1033 H 0.19134 0.06635 0.02955 0.0
H1034 H 0.23184 0.04137 0.03229 0.0
H1035 H 0.25217 0.02097 0.09713 0.0
H1036 H 0.32021 0.93894 0.09122 0.0
H1037 H 0.28001 0.96416 0.09288 0.0
C1038 C 0.62276 0.97107 0.42077 0.0
C1039 C 0.63322 0.95662 0.4316 0.0
C1040 C 0.64919 0.98464 0.42131 0.0
C1041 C 0.73606 1.0031 0.45144 0.0
H1042 H 0.75082 0.02937 0.40161 0.0
C1043 C 0.85737 0.05534 0.44706 0.0
C1044 C 0.8448 0.06994 0.43718 0.0
C1045 C 0.83258 0.04133 0.44588 0.0
C1046 C 0.74674 0.02227 0.41572 0.0
H1047 H 0.68018 0.94538 0.45168 0.0
H1048 H 0.72656 0.9689 0.45227 0.0
H1049 H 0.70607 1.00534 0.40071 0.0
H1050 H 0.79605 0.08105 0.41811 0.0
H1051 H 0.75297 0.05663 0.41597 0.0
H1052 H 0.77678 0.02004 0.46644 0.0
C1053 C 0.69751 0.96978 0.44353 0.0
C1054 C 0.72102 1.00847 0.41522 0.0
C1055 C 0.67102 0.95618 0.44301 0.0
C1056 C 0.8071 0.07003 0.42571 0.0
C1057 C 0.78231 0.05599 0.4245 0.0
C1058 C 0.76186 0.01688 0.45193 0.0
C1059 C 0.687 0.98419 0.43264 0.0
C1060 C 0.71516 0.99872 0.43309 0.0
C1061 C 0.79453 0.04149 0.43474 0.0
C1062 C 0.76746 0.02668 0.43409 0.0
H1063 H 0.59435 0.9719 0.41158 0.0
H1064 H 0.6397 0.99557 0.41295 0.0
H1065 H 0.73184 0.99607 0.46559 0.0
H1066 H 0.88653 0.05468 0.4557 0.0
H1067 H 0.84342 0.03032 0.45362 0.0
C1068 C 0.63276 0.05436 0.88426 0.0
C1069 C 0.64969 0.06937 0.87774 0.0
C1070 C 0.6571 0.04021 0.88417 0.0
C1071 C 0.75107 0.02186 0.861 0.0
H1072 H 0.74744 0.99296 0.90898 0.0
C1073 C 0.86639 0.96788 0.87162 0.0
C1074 C 0.85149 0.95343 0.88096 0.0
C1075 C 0.84142 0.98188 0.87073 0.0
C1076 C 0.74842 1.00074 0.8953 0.0
H1077 H 0.7054 0.08112 0.86556 0.0
H1078 H 0.74796 0.05639 0.86542 0.0
H1079 H 0.70466 0.01752 0.90818 0.0
H1080 H 0.79812 0.94259 0.89669 0.0
H1081 H 0.75425 0.96674 0.8945 0.0
H1082 H 0.79444 1.00501 0.84799 0.0
C1083 C 0.71575 0.05561 0.8706 0.0
C1084 C 0.72393 0.01487 0.89489 0.0
C1085 C 0.69147 0.06982 0.87086 0.0
C1086 C 0.81066 0.95336 0.88916 0.0
C1087 C 0.78561 0.96734 0.88816 0.0
C1088 C 0.77536 1.00766 0.86134 0.0
C1089 C 0.69893 0.04066 0.87741 0.0
C1090 C 0.72499 0.02561 0.87775 0.0
C1091 C 0.80073 0.98184 0.87906 0.0
C1092 C 0.77444 0.9969 0.87852 0.0
H1093 H 0.60088 0.0536 0.88987 0.0
H1094 H 0.64307 0.02887 0.88934 0.0
H1095 H 0.7522 0.02978 0.84746 0.0
H1096 H 0.89738 0.96844 0.86494 0.0
H1097 H 0.85442 0.99283 0.86382 0.0
C1098 C 0.17984 0.96302 0.62555 0.0
C1099 C 0.13691 0.96346 0.62034 0.0
C1100 C 0.20399 0.97723 0.6251 0.0
C1101 C 0.20581 0.01876 0.60212 0.0
H1102 H 0.29138 0.02635 0.64381 0.0
C1103 C 0.29591 0.07968 0.60723 0.0
C1104 C 0.3393 0.07881 0.61119 0.0
C1105 C 0.27084 0.06574 0.60868 0.0
C1106 C 0.26788 0.02434 0.63193 0.0
H1107 H 0.0859 0.97939 0.61066 0.0
H1108 H 0.12766 1.00414 0.61037 0.0
H1109 H 0.24824 1.0019 0.64605 0.0
H1110 H 0.39015 0.06255 0.62006 0.0
H1111 H 0.34661 0.03824 0.62231 0.0
H1112 H 0.22546 0.0412 0.588 0.0
C1113 C 0.14281 0.99275 0.61454 0.0
C1114 C 0.24315 1.01031 0.63321 0.0
C1115 C 0.11869 0.97855 0.61497 0.0
C1116 C 0.35697 0.06365 0.61668 0.0
C1117 C 0.33189 0.04974 0.61822 0.0
C1118 C 0.23048 0.0328 0.60087 0.0
C1119 C 0.18585 0.99227 0.61944 0.0
C1120 C 0.21184 1.00732 0.61829 0.0
C1121 C 0.28851 0.0506 0.61422 0.0
C1122 C 0.2619 0.03575 0.61572 0.0
H1123 H 0.19496 0.95171 0.63 0.0
H1124 H 0.23711 0.97637 0.62881 0.0
H1125 H 0.1825 0.01673 0.59016 0.0
H1126 H 0.28132 0.0911 0.60277 0.0
H1127 H 0.23749 0.06687 0.60568 0.0
C1128 C 0.81584 0.44583 0.07247 0.0
C1129 C 0.85923 0.44707 0.06904 0.0
C1130 C 0.79072 0.45981 0.0725 0.0
C1131 C 0.79026 0.50314 0.08185 0.0
H1132 H 0.70088 0.50619 0.04099 0.0
C1133 C 0.70145 0.56355 0.06669 0.0
C1134 C 0.6595 0.56297 0.06004 0.0
C1135 C 0.72525 0.54928 0.06851 0.0
C1136 C 0.72502 0.50551 0.05283 0.0
H1137 H 0.9106 0.46373 0.06359 0.0
H1138 H 0.86684 0.48831 0.0644 0.0
H1139 H 0.74249 0.4814 0.04394 0.0
H1140 H 0.60905 0.5471 0.05065 0.0
H1141 H 0.6495 0.52208 0.05483 0.0
H1142 H 0.77227 0.52689 0.0914 0.0
C1143 C 0.85229 0.47652 0.06678 0.0
C1144 C 0.74904 0.49129 0.05438 0.0
C1145 C 0.87721 0.46253 0.06624 0.0
C1146 C 0.64153 0.54784 0.05557 0.0
C1147 C 0.66495 0.53352 0.05785 0.0
C1148 C 0.76564 0.51724 0.08066 0.0
C1149 C 0.80874 0.47527 0.0696 0.0
C1150 C 0.78209 0.49004 0.06876 0.0
C1151 C 0.70736 0.53401 0.06417 0.0
C1152 C 0.73286 0.51873 0.06597 0.0
H1153 H 0.80123 0.43403 0.07443 0.0
H1154 H 0.7572 0.45857 0.07471 0.0
H1155 H 0.81546 0.5024 0.09316 0.0
H1156 H 0.71614 0.57511 0.06998 0.0
H1157 H 0.75792 0.55033 0.07295 0.0
C1158 C 0.30056 0.57047 0.44103 0.0
C1159 C 0.34357 0.56898 0.43671 0.0
C1160 C 0.27447 0.55674 0.44123 0.0
C1161 C 0.26462 0.51597 0.41964 0.0
H1162 H 0.18745 0.50744 0.46477 0.0
C1163 C 0.1319 0.46839 0.41481 0.0
C1164 C 0.128 0.45739 0.43159 0.0
C1165 C 0.15859 0.48182 0.41606 0.0
C1166 C 0.20898 0.50965 0.45211 0.0
H1167 H 0.39272 0.55197 0.42886 0.0
H1168 H 0.34713 0.52808 0.42887 0.0
H1169 H 0.23309 0.53146 0.46569 0.0
H1170 H 0.14879 0.45201 0.46294 0.0
H1171 H 0.19513 0.4758 0.46529 0.0
H1172 H 0.24018 0.49435 0.4059 0.0
C1173 C 0.33366 0.53983 0.43229 0.0
C1174 C 0.23482 0.52344 0.45256 0.0
C1175 C 0.35982 0.55349 0.43243 0.0
C1176 C 0.15125 0.46024 0.44976 0.0
C1177 C 0.17752 0.47389 0.45114 0.0
C1178 C 0.23834 0.50236 0.41903 0.0
C1179 C 0.29071 0.54128 0.43673 0.0
C1180 C 0.26298 0.52673 0.43633 0.0
C1181 C 0.18168 0.48475 0.43422 0.0
C1182 C 0.21024 0.49903 0.43525 0.0
H1183 H 0.28724 0.58222 0.44452 0.0
H1184 H 0.24144 0.55824 0.44457 0.0
H1185 H 0.28581 0.51823 0.40686 0.0
H1186 H 0.11489 0.46642 0.40051 0.0
H1187 H 0.16095 0.49002 0.40282 0.0
C1188 C 0.36715 0.46875 0.88524 0.0
C1189 C 0.34995 0.4535 0.88043 0.0
C1190 C 0.34232 0.48278 0.88469 0.0
C1191 C 0.24293 0.49972 0.86344 0.0
H1192 H 0.25723 0.53128 0.90694 0.0
C1193 C 0.12952 0.55418 0.87399 0.0
C1194 C 0.14712 0.56916 0.87968 0.0
C1195 C 0.1542 0.54009 0.87346 0.0
C1196 C 0.25316 0.5227 0.89452 0.0
H1197 H 0.2929 0.44124 0.87088 0.0
H1198 H 0.24948 0.46566 0.87025 0.0
H1199 H 0.30004 0.50674 0.90722 0.0
H1200 H 0.20474 0.58097 0.88933 0.0
H1201 H 0.24781 0.55657 0.88798 0.0
H1202 H 0.19595 0.51572 0.85076 0.0
C1203 C 0.28237 0.46676 0.8743 0.0
C1204 C 0.27773 0.5086 0.89468 0.0
C1205 C 0.30722 0.4527 0.87489 0.0
C1206 C 0.19015 0.56972 0.88462 0.0
C1207 C 0.21479 0.55565 0.88412 0.0
C1208 C 0.21833 0.51384 0.86327 0.0
C1209 C 0.29955 0.48197 0.8793 0.0
C1210 C 0.27303 0.49693 0.87913 0.0
C1211 C 0.1971 0.54062 0.87867 0.0
C1212 C 0.22319 0.52554 0.87878 0.0
H1213 H 0.39974 0.46985 0.88978 0.0
H1214 H 0.35677 0.49431 0.88839 0.0
H1215 H 0.23884 0.4911 0.85106 0.0
H1216 H 0.09661 0.55331 0.86993 0.0
H1217 H 0.13941 0.52872 0.86937 0.0
C1218 C 0.85537 0.56456 0.59696 0.0
C1219 C 0.84039 0.57917 0.60531 0.0
C1220 C 0.83067 0.55051 0.59718 0.0
C1221 C 0.73775 0.53193 0.62287 0.0
H1222 H 0.74172 0.5025 0.57655 0.0
C1223 C 0.62172 0.47834 0.61336 0.0
C1224 C 0.63877 0.46336 0.60739 0.0
C1225 C 0.64632 0.49243 0.61324 0.0
C1226 C 0.74056 0.51053 0.58969 0.0
H1227 H 0.78698 0.59017 0.62047 0.0
H1228 H 0.74361 0.56592 0.62018 0.0
H1229 H 0.78387 0.52723 0.5758 0.0
H1230 H 0.69495 0.4515 0.59636 0.0
H1231 H 0.73793 0.4761 0.59613 0.0
H1232 H 0.69386 0.51528 0.63656 0.0
C1233 C 0.77491 0.56526 0.61381 0.0
C1234 C 0.7648 0.52471 0.5893 0.0
C1235 C 0.79973 0.5793 0.61372 0.0
C1236 C 0.68099 0.46281 0.60123 0.0
C1237 C 0.70549 0.47693 0.60091 0.0
C1238 C 0.71325 0.51782 0.62317 0.0
C1239 C 0.79008 0.55064 0.60561 0.0
C1240 C 0.76384 0.5356 0.60591 0.0
C1241 C 0.68845 0.4919 0.60694 0.0
C1242 C 0.71445 0.50693 0.60661 0.0
H1243 H 0.88618 0.56391 0.59011 0.0
H1244 H 0.84372 0.53946 0.59095 0.0
H1245 H 0.7367 0.53984 0.63612 0.0
H1246 H 0.58944 0.47914 0.61836 0.0
H1247 H 0.63218 0.5038 0.61782 0.0
C1248 C 0.94926 0.313 0.06674 0.0
C1249 C 0.93865 0.31851 0.08656 0.0
C1250 C 0.96279 0.29691 0.06402 0.0
C1251 C 0.95517 0.25665 0.0896 0.0
H1252 H 0.05398 0.24486 0.05846 0.0
C1253 C 0.04197 0.19692 0.10468 0.0
C1254 C 0.05704 0.18802 0.08789 0.0
C1255 C 0.02484 0.21238 0.1016 0.0
C1256 C 0.02589 0.24794 0.06691 0.0
H1257 H 0.93694 0.31181 0.11917 0.0
H1258 H 0.95999 0.28403 0.11446 0.0
H1259 H 0.02996 0.27323 0.05822 0.0
H1260 H 0.06589 0.18834 0.05464 0.0
H1261 H 0.03582 0.21561 0.04921 0.0
H1262 H 0.95147 0.2316 0.09875 0.0
C1263 C 0.95682 0.2919 0.10093 0.0
C1264 C 0.01219 0.26416 0.06678 0.0
C1265 C 0.94355 0.30785 0.10362 0.0
C1266 C 0.05424 0.19489 0.06784 0.0
C1267 C 0.03739 0.21052 0.06477 0.0
C1268 C 0.96878 0.24054 0.08973 0.0
C1269 C 0.96576 0.28611 0.08109 0.0
C1270 C 0.97742 0.26874 0.07867 0.0
C1271 C 0.02245 0.2194 0.08165 0.0
C1272 C 0.005 0.23607 0.07891 0.0
H1273 H 0.9458 0.32093 0.0533 0.0
H1274 H 0.96965 0.29278 0.04856 0.0
H1275 H 0.92766 0.25974 0.09851 0.0
H1276 H 0.04324 0.1919 0.12026 0.0
H1277 H 0.0141 0.21897 0.11497 0.0
C1278 C 0.44683 0.8126 0.06915 0.0
C1279 C 0.44036 0.81836 0.08931 0.0
C1280 C 0.45903 0.79642 0.06604 0.0
C1281 C 0.45548 0.75629 0.09221 0.0
H1282 H 0.54761 0.74427 0.05657 0.0
C1283 C 0.54396 0.69644 0.10328 0.0
C1284 C 0.55651 0.68762 0.08591 0.0
C1285 C 0.52609 0.71183 0.10095 0.0
C1286 C 0.52132 0.74741 0.0663 0.0
H1287 H 0.44428 0.81185 0.12196 0.0
H1288 H 0.46492 0.78386 0.11656 0.0
H1289 H 0.52412 0.77267 0.0574 0.0
H1290 H 0.55979 0.688 0.05241 0.0
H1291 H 0.52835 0.71517 0.04827 0.0
H1292 H 0.45308 0.73125 0.1015 0.0
C1293 C 0.45962 0.79167 0.10313 0.0
C1294 C 0.50794 0.76365 0.06678 0.0
C1295 C 0.44772 0.80775 0.10622 0.0
C1296 C 0.55019 0.69449 0.06605 0.0
C1297 C 0.53255 0.71006 0.06371 0.0
C1298 C 0.46875 0.74014 0.09171 0.0
C1299 C 0.46476 0.78572 0.08303 0.0
C1300 C 0.4757 0.76832 0.08023 0.0
C1301 C 0.52034 0.71889 0.08118 0.0
C1302 C 0.50262 0.73558 0.07923 0.0
H1303 H 0.44133 0.82044 0.05579 0.0
H1304 H 0.46284 0.79216 0.05037 0.0
H1305 H 0.42988 0.75944 0.10236 0.0
H1306 H 0.54791 0.69141 0.11876 0.0
H1307 H 0.51755 0.71837 0.11475 0.0
C1308 C 0.53629 0.81697 0.45422 0.0
C1309 C 0.54097 0.82792 0.43744 0.0
C1310 C 0.51949 0.80148 0.45132 0.0
C1311 C 0.50725 0.77045 0.41148 0.0
H1312 H 0.43191 0.75008 0.45106 0.0
C1313 C 0.43323 0.70781 0.39659 0.0
C1314 C 0.42737 0.69685 0.4133 0.0
C1315 C 0.44628 0.72377 0.39987 0.0
C1316 C 0.4534 0.75549 0.44001 0.0
H1317 H 0.53043 0.83136 0.40454 0.0
H1318 H 0.50089 0.80412 0.39934 0.0
H1319 H 0.45341 0.77831 0.45565 0.0
H1320 H 0.43159 0.69425 0.4467 0.0
H1321 H 0.45548 0.72213 0.45246 0.0
H1322 H 0.50802 0.74764 0.39602 0.0
C1323 C 0.51057 0.80757 0.41477 0.0
C1324 C 0.46555 0.77172 0.44258 0.0
C1325 C 0.52707 0.8232 0.41774 0.0
C1326 C 0.43579 0.70229 0.43346 0.0
C1327 C 0.44907 0.71835 0.43676 0.0
C1328 C 0.49534 0.75422 0.40898 0.0
C1329 C 0.50712 0.79644 0.43151 0.0
C1330 C 0.49259 0.77941 0.42833 0.0
C1331 C 0.4544 0.72932 0.41997 0.0
C1332 C 0.46812 0.7465 0.42316 0.0
H1333 H 0.54622 0.82033 0.46964 0.0
H1334 H 0.51758 0.79324 0.46453 0.0
H1335 H 0.52878 0.77587 0.40045 0.0
H1336 H 0.42799 0.7041 0.38079 0.0
H1337 H 0.44942 0.73183 0.38655 0.0
C1338 C 0.04055 0.31755 0.45908 0.0
C1339 C 0.04344 0.32875 0.44245 0.0
C1340 C 0.02486 0.30188 0.45608 0.0
C1341 C 0.01186 0.27117 0.41576 0.0
H1342 H 0.93809 0.25011 0.45548 0.0
C1343 C 0.93702 0.20887 0.39964 0.0
C1344 C 0.93141 0.19763 0.41607 0.0
C1345 C 0.95037 0.22474 0.40329 0.0
C1346 C 0.95917 0.2557 0.44438 0.0
H1347 H 0.03118 0.33234 0.40969 0.0
H1348 H 0.00364 0.30486 0.40436 0.0
H1349 H 0.95979 0.27824 0.46067 0.0
H1350 H 0.93641 0.19449 0.4494 0.0
H1351 H 0.96088 0.22216 0.45577 0.0
H1352 H 0.01201 0.24866 0.39964 0.0
C1353 C 0.01382 0.30824 0.41974 0.0
C1354 C 0.97145 0.27188 0.44731 0.0
C1355 C 0.02919 0.32402 0.4228 0.0
C1356 C 0.94039 0.20273 0.43634 0.0
C1357 C 0.95402 0.21869 0.44 0.0
C1358 C 0.99986 0.25499 0.41291 0.0
C1359 C 0.01188 0.29692 0.43632 0.0
C1360 C 0.99783 0.27984 0.43299 0.0
C1361 C 0.95909 0.22993 0.4235 0.0
C1362 C 0.97313 0.24702 0.4271 0.0
H1363 H 0.05076 0.32087 0.47446 0.0
H1364 H 0.02407 0.29348 0.46916 0.0
H1365 H 0.03288 0.27681 0.40466 0.0
H1366 H 0.93132 0.20544 0.38376 0.0
H1367 H 0.95328 0.23302 0.39017 0.0
C1368 C 0.96593 0.82256 0.88296 0.0
C1369 C 0.92473 0.8239 0.89038 0.0
C1370 C 0.98626 0.80744 0.88285 0.0
C1371 C 0.96349 0.76309 0.88451 0.0
H1372 H 0.08245 0.7592 0.89642 0.0
C1373 C 0.04675 0.70069 0.8939 0.0
C1374 C 0.08636 0.69911 0.88463 0.0
C1375 C 0.02712 0.71591 0.89494 0.0
C1376 C 0.04926 0.7601 0.89287 0.0
H1377 H 0.87338 0.81053 0.90442 0.0
H1378 H 0.90878 0.78431 0.9045 0.0
H1379 H 0.04868 0.78579 0.89792 0.0
H1380 H 0.13574 0.71243 0.86875 0.0
H1381 H 0.10175 0.73883 0.87071 0.0
H1382 H 0.96408 0.73739 0.87957 0.0
C1383 C 0.9251 0.7948 0.89819 0.0
C1384 C 0.02989 0.77536 0.8937 0.0
C1385 C 0.90478 0.80987 0.8982 0.0
C1386 C 0.10567 0.71315 0.87635 0.0
C1387 C 0.08614 0.72834 0.87746 0.0
C1388 C 0.98282 0.74784 0.88377 0.0
C1389 C 0.96592 0.79332 0.89028 0.0
C1390 C 0.98673 0.77707 0.88951 0.0
C1391 C 0.04666 0.72993 0.88679 0.0
C1392 C 0.02596 0.74615 0.8879 0.0
H1393 H 0.98202 0.83309 0.87665 0.0
H1394 H 0.01751 0.80675 0.87643 0.0
H1395 H 0.93037 0.76396 0.8808 0.0
H1396 H 0.03113 0.69024 0.9007 0.0
H1397 H 0.99691 0.71673 0.90245 0.0
C1398 C 0.60453 0.21288 0.89883 0.0
C1399 C 0.58419 0.19913 0.89084 0.0
C1400 C 0.58432 0.22797 0.89916 0.0
C1401 C 0.47923 0.24746 0.89567 0.0
H1402 H 0.54361 0.28611 0.88183 0.0
C1403 C 0.40046 0.30961 0.87945 0.0
C1404 C 0.41942 0.32357 0.88772 0.0
C1405 C 0.42086 0.29457 0.88026 0.0
C1406 C 0.52528 0.27547 0.88596 0.0
H1407 H 0.52634 0.19054 0.877 0.0
H1408 H 0.49107 0.21689 0.87743 0.0
H1409 H 0.57795 0.2596 0.88253 0.0
H1410 H 0.47516 0.33248 0.90328 0.0
H1411 H 0.51095 0.3062 0.90455 0.0
H1412 H 0.42647 0.26334 0.89889 0.0
C1413 C 0.52255 0.21595 0.88374 0.0
C1414 C 0.54498 0.26024 0.88638 0.0
C1415 C 0.54277 0.20081 0.88349 0.0
C1416 C 0.45974 0.32208 0.89656 0.0
C1417 C 0.48026 0.30699 0.89731 0.0
C1418 C 0.45952 0.26268 0.89518 0.0
C1419 C 0.54319 0.22976 0.89144 0.0
C1420 C 0.52221 0.24601 0.8912 0.0
C1421 C 0.46092 0.29302 0.88929 0.0
C1422 C 0.48225 0.27687 0.89025 0.0
H1423 H 0.63612 0.21197 0.90498 0.0
H1424 H 0.60091 0.23823 0.90562 0.0
H1425 H 0.46082 0.23684 0.89979 0.0
H1426 H 0.36989 0.31029 0.87212 0.0
H1427 H 0.40539 0.28415 0.87355 0.0
C1428 C 0.45601 0.20962 0.62219 0.0
C1429 C 0.41206 0.20813 0.62242 0.0
C1430 C 0.47495 0.22497 0.62133 0.0
C1431 C 0.45407 0.2683 0.63188 0.0
H1432 H 0.55238 0.27573 0.59793 0.0
C1433 C 0.52499 0.33237 0.61964 0.0
C1434 C 0.56897 0.33362 0.62058 0.0
C1435 C 0.50551 0.31714 0.61911 0.0
C1436 C 0.52517 0.27381 0.60763 0.0
H1437 H 0.35363 0.22166 0.62139 0.0
H1438 H 0.38656 0.24836 0.61987 0.0
H1439 H 0.5192 0.24899 0.59849 0.0
H1440 H 0.62689 0.31976 0.6212 0.0
H1441 H 0.59297 0.29323 0.62063 0.0
H1442 H 0.4601 0.29309 0.64108 0.0
C1443 C 0.40644 0.23768 0.62074 0.0
C1444 C 0.50617 0.25848 0.60797 0.0
C1445 C 0.38753 0.22236 0.62161 0.0
C1446 C 0.59297 0.31925 0.62073 0.0
C1447 C 0.57352 0.30404 0.62016 0.0
C1448 C 0.47305 0.28362 0.63153 0.0
C1449 C 0.45038 0.23918 0.62067 0.0
C1450 C 0.47044 0.25553 0.62013 0.0
C1451 C 0.52955 0.30279 0.61946 0.0
C1452 C 0.50888 0.28656 0.61945 0.0
H1453 H 0.47587 0.19896 0.62309 0.0
H1454 H 0.50888 0.22569 0.6216 0.0
H1455 H 0.427 0.26638 0.64167 0.0
H1456 H 0.5055 0.34315 0.61969 0.0
H1457 H 0.47158 0.31661 0.61836 0.0
C1458 C 0.95637 0.71015 0.62132 0.0
C1459 C 0.91267 0.70858 0.61927 0.0
C1460 C 0.97536 0.72547 0.62017 0.0
C1461 C 0.95164 0.76969 0.62377 0.0
H1462 H 0.06079 0.77421 0.59811 0.0
C1463 C 0.03148 0.83215 0.60778 0.0
C1464 C 0.07407 0.83325 0.61359 0.0
C1465 C 0.0108 0.81712 0.60796 0.0
C1466 C 0.03039 0.77311 0.60542 0.0
H1467 H 0.85471 0.7218 0.61395 0.0
H1468 H 0.88773 0.74848 0.61149 0.0
H1469 H 0.02669 0.74769 0.59917 0.0
H1470 H 0.12764 0.81909 0.62457 0.0
H1471 H 0.09191 0.79308 0.62438 0.0
H1472 H 0.95535 0.79524 0.62971 0.0
C1473 C 0.90737 0.73796 0.61455 0.0
C1474 C 0.01088 0.7579 0.60612 0.0
C1475 C 0.88839 0.72265 0.6159 0.0
C1476 C 0.09523 0.81886 0.61957 0.0
C1477 C 0.0747 0.80386 0.61953 0.0
C1478 C 0.97101 0.78495 0.62287 0.0
C1479 C 0.95113 0.73959 0.61672 0.0
C1480 C 0.97139 0.75593 0.61548 0.0
C1481 C 0.0323 0.80281 0.61373 0.0
C1482 C 0.01076 0.78679 0.61386 0.0
H1483 H 0.97584 0.69955 0.62422 0.0
H1484 H 0.00901 0.72624 0.62233 0.0
H1485 H 0.92156 0.76864 0.63138 0.0
H1486 H 0.01409 0.84283 0.60285 0.0
H1487 H 0.97815 0.81665 0.60325 0.0
C1488 C 0.01601 0.11893 0.17437 0.0
C1489 C 0.0411 0.10706 0.16502 0.0
C1490 C 0.00552 0.11763 0.19528 0.0
C1491 C 0.04052 0.10012 0.2449 0.0
H1492 H 0.92743 0.11079 0.26187 0.0
C1493 C 0.98572 0.09944 0.33119 0.0
C1494 C 0.95946 0.1124 0.3367 0.0
C1495 C 0.99642 0.09711 0.31038 0.0
C1496 C 0.95925 0.10788 0.25742 0.0
H1497 H 0.07448 0.08437 0.17053 0.0
H1498 H 0.05658 0.08227 0.20729 0.0
H1499 H 0.94388 0.10953 0.22517 0.0
H1500 H 0.92599 0.13362 0.32493 0.0
H1501 H 0.94472 0.12966 0.28899 0.0
H1502 H 0.05604 0.09887 0.27728 0.0
C1503 C 0.04517 0.09259 0.19827 0.0
C1504 C 0.96862 0.10713 0.23638 0.0
C1505 C 0.05542 0.09381 0.17723 0.0
C1506 C 0.94538 0.12326 0.32114 0.0
C1507 C 0.95606 0.12097 0.3005 0.0
C1508 C 0.03116 0.10094 0.26605 0.0
C1509 C 0.02008 0.10449 0.2075 0.0
C1510 C 0.00953 0.10358 0.22987 0.0
C1511 C 0.9811 0.10773 0.29478 0.0
C1512 C 0.9906 0.1052 0.27252 0.0
H1513 H 0.00531 0.12954 0.1657 0.0
H1514 H 0.9868 0.12717 0.20202 0.0
H1515 H 0.0724 0.09743 0.24033 0.0
H1516 H 0.997 0.09087 0.34285 0.0
H1517 H 0.01577 0.08678 0.30646 0.0
C1518 C 0.5009 0.87838 0.17541 0.0
C1519 C 0.48511 0.89281 0.16633 0.0
C1520 C 0.51489 0.87807 0.19595 0.0
C1521 C 0.505 0.90036 0.24502 0.0
H1522 H 0.60083 0.8741 0.26192 0.0
C1523 C 0.57069 0.90316 0.32748 0.0
C1524 C 0.57746 0.8882 0.3378 0.0
C1525 C 0.56391 0.9038 0.30614 0.0
C1526 C 0.57387 0.8814 0.25743 0.0
H1527 H 0.47213 0.91826 0.1716 0.0
H1528 H 0.4972 0.91783 0.20745 0.0
H1529 H 0.58015 0.87548 0.22541 0.0
H1530 H 0.58493 0.86227 0.33367 0.0
H1531 H 0.57318 0.86338 0.29606 0.0
H1532 H 0.49879 0.90632 0.27697 0.0
C1533 C 0.4981 0.90666 0.19879 0.0
C1534 C 0.56193 0.88218 0.23653 0.0
C1535 C 0.48382 0.90695 0.17824 0.0
C1536 C 0.57987 0.87396 0.32611 0.0
C1537 C 0.57309 0.87461 0.30462 0.0
C1538 C 0.51708 0.89965 0.26583 0.0
C1539 C 0.51361 0.89218 0.20795 0.0
C1540 C 0.52726 0.89166 0.23007 0.0
C1541 C 0.56382 0.8895 0.29454 0.0
C1542 C 0.55164 0.89018 0.27229 0.0
H1543 H 0.50154 0.86719 0.16678 0.0
H1544 H 0.52578 0.86663 0.20257 0.0
H1545 H 0.47762 0.90748 0.24073 0.0
H1546 H 0.56953 0.91438 0.33604 0.0
H1547 H 0.55788 0.9155 0.29877 0.0
C1548 C 0.90304 0.8899 0.81647 0.0
C1549 C 0.93063 0.88898 0.8335 0.0
C1550 C 0.91875 0.89049 0.79623 0.0
C1551 C 0.01439 0.90112 0.76693 0.0
H1552 H 0.96505 0.875 0.72367 0.0
C1553 C 0.09069 0.89542 0.68611 0.0
C1554 C 0.06334 0.89551 0.66898 0.0
C1555 C 0.07477 0.89436 0.70628 0.0
C1556 C 0.97894 0.88252 0.73551 0.0
H1557 H 0.99628 0.88781 0.84264 0.0
H1558 H 0.02336 0.88879 0.80758 0.0
H1559 H 0.93544 0.87402 0.75842 0.0
H1560 H 0.99787 0.89467 0.65956 0.0
H1561 H 0.97032 0.89312 0.69447 0.0
H1562 H 0.05765 0.90975 0.74405 0.0
C1563 C 0.98971 0.88924 0.80977 0.0
C1564 C 0.96191 0.88195 0.75542 0.0
C1565 C 0.97409 0.88856 0.82989 0.0
C1566 C 0.01988 0.89454 0.67241 0.0
C1567 C 0.00403 0.89353 0.69247 0.0
C1568 C 0.03131 0.90175 0.74701 0.0
C1569 C 0.96231 0.89029 0.7927 0.0
C1570 C 0.97951 0.89121 0.77136 0.0
C1571 C 0.03119 0.8934 0.70969 0.0
C1572 C 0.01382 0.89246 0.73103 0.0
H1573 H 0.86942 0.89026 0.81878 0.0
H1574 H 0.89686 0.8914 0.78337 0.0
H1575 H 0.02833 0.90858 0.77882 0.0
H1576 H 0.12432 0.89611 0.68395 0.0
H1577 H 0.09662 0.89411 0.71919 0.0
C1578 C 0.59848 0.13472 0.81413 0.0
C1579 C 0.5731 0.1373 0.83148 0.0
C1580 C 0.5807 0.13455 0.79418 0.0
C1581 C 0.47862 0.12857 0.76736 0.0
H1582 H 0.5333 0.14977 0.72085 0.0
C1583 C 0.39758 0.13807 0.68696 0.0
C1584 C 0.4231 0.13638 0.66947 0.0
C1585 C 0.41538 0.13765 0.70692 0.0
C1586 C 0.51779 0.14361 0.73361 0.0
H1587 H 0.50938 0.14216 0.84144 0.0
H1588 H 0.47887 0.14204 0.80696 0.0
H1589 H 0.5666 0.15008 0.75492 0.0
H1590 H 0.4869 0.13218 0.65922 0.0
H1591 H 0.51744 0.13114 0.69368 0.0
H1592 H 0.42981 0.12209 0.74606 0.0
C1593 C 0.51224 0.13983 0.80864 0.0
C1594 C 0.53697 0.14379 0.75316 0.0
C1595 C 0.5299 0.14002 0.82844 0.0
C1596 C 0.46635 0.13372 0.67235 0.0
C1597 C 0.484 0.13324 0.69215 0.0
C1598 C 0.45946 0.12836 0.7478 0.0
C1599 C 0.53722 0.13691 0.79126 0.0
C1600 C 0.51757 0.13631 0.77029 0.0
C1601 C 0.45898 0.1355 0.7097 0.0
C1602 C 0.47882 0.13587 0.73067 0.0
H1603 H 0.63182 0.13253 0.81599 0.0
H1604 H 0.60081 0.1322 0.7811 0.0
H1605 H 0.46307 0.12249 0.78018 0.0
H1606 H 0.36419 0.14019 0.68521 0.0
H1607 H 0.3952 0.1395 0.72011 0.0
C1608 C 0.43526 0.6001 0.32178 0.0
C1609 C 0.46172 0.60848 0.3355 0.0
C1610 C 0.44651 0.59814 0.30109 0.0
C1611 C 0.53499 0.59921 0.26466 0.0
H1612 H 0.45019 0.61207 0.22428 0.0
C1613 C 0.5753 0.61173 0.179 0.0
C1614 C 0.54576 0.60771 0.16366 0.0
C1615 C 0.56523 0.61036 0.19997 0.0
C1616 C 0.47406 0.60814 0.23527 0.0
H1617 H 0.52173 0.62072 0.33834 0.0
H1618 H 0.5417 0.61701 0.30226 0.0
H1619 H 0.43315 0.61167 0.26099 0.0
H1620 H 0.48269 0.59888 0.15826 0.0
H1621 H 0.46524 0.59611 0.19496 0.0
H1622 H 0.57589 0.59557 0.23899 0.0
C1623 C 0.51216 0.612 0.30758 0.0
C1624 C 0.46428 0.60796 0.25634 0.0
C1625 C 0.50075 0.61408 0.32827 0.0
C1626 C 0.50597 0.60217 0.16976 0.0
C1627 C 0.49598 0.60065 0.19078 0.0
C1628 C 0.54468 0.59923 0.24356 0.0
C1629 C 0.48469 0.60435 0.29367 0.0
C1630 C 0.49474 0.60365 0.27127 0.0
C1631 C 0.52543 0.60482 0.20618 0.0
C1632 C 0.51447 0.60387 0.22858 0.0
H1633 H 0.40541 0.59527 0.32692 0.0
H1634 H 0.42506 0.59193 0.29081 0.0
H1635 H 0.55895 0.59566 0.27581 0.0
H1636 H 0.60597 0.61634 0.17478 0.0
H1637 H 0.58841 0.61405 0.21129 0.0
C1638 C 0.05039 0.39924 0.33058 0.0
C1639 C 0.06533 0.38525 0.341 0.0
C1640 C 0.04501 0.39941 0.30913 0.0
C1641 C 0.02443 0.37233 0.26594 0.0
H1642 H 0.05213 0.41027 0.23231 0.0
C1643 C 0.99605 0.37415 0.17757 0.0
C1644 C 0.98061 0.38872 0.16871 0.0
C1645 C 0.00981 0.37353 0.19814 0.0
C1646 C 0.0438 0.39965 0.24151 0.0
H1647 H 0.08742 0.36058 0.33709 0.0
H1648 H 0.07782 0.36081 0.29933 0.0
H1649 H 0.07181 0.4094 0.26888 0.0
H1650 H 0.96768 0.41411 0.17469 0.0
H1651 H 0.99054 0.41293 0.21081 0.0
H1652 H 0.99546 0.36273 0.23879 0.0
C1653 C 0.07013 0.37163 0.30789 0.0
C1654 C 0.05526 0.39912 0.26244 0.0
C1655 C 0.07592 0.37152 0.32943 0.0
C1656 C 0.97913 0.40266 0.18103 0.0
C1657 C 0.99275 0.40203 0.20168 0.0
C1658 C 0.01276 0.37289 0.24503 0.0
C1659 C 0.05425 0.38555 0.29755 0.0
C1660 C 0.04532 0.38552 0.27494 0.0
C1661 C 0.00821 0.38743 0.2105 0.0
C1662 C 0.02195 0.38662 0.23259 0.0
H1663 H 0.0424 0.41006 0.3391 0.0
H1664 H 0.03237 0.41026 0.30169 0.0
H1665 H 0.01578 0.36179 0.27524 0.0
H1666 H 0.99701 0.36308 0.1687 0.0
H1667 H 0.0219 0.36212 0.20432 0.0
C1668 C 0.46408 0.38837 0.82657 0.0
C1669 C 0.42113 0.38961 0.83114 0.0
C1670 C 0.4783 0.39033 0.80633 0.0
C1671 C 0.44674 0.38858 0.75174 0.0
H1672 H 0.54641 0.41491 0.74333 0.0
C1673 C 0.51036 0.40297 0.67002 0.0
C1674 C 0.55406 0.40234 0.66733 0.0
C1675 C 0.49299 0.40233 0.68981 0.0
C1676 C 0.51884 0.40738 0.74541 0.0
H1677 H 0.35922 0.3935 0.81792 0.0
H1678 H 0.38424 0.39684 0.78219 0.0
H1679 H 0.51722 0.41183 0.77796 0.0
H1680 H 0.61392 0.40075 0.68332 0.0
H1681 H 0.58362 0.3994 0.71799 0.0
H1682 H 0.44875 0.38387 0.71925 0.0
C1683 C 0.4068 0.39435 0.79444 0.0
C1684 C 0.50202 0.40565 0.76526 0.0
C1685 C 0.39248 0.39246 0.81486 0.0
C1686 C 0.58014 0.40135 0.68491 0.0
C1687 C 0.56272 0.40063 0.70477 0.0
C1688 C 0.46368 0.39024 0.73187 0.0
C1689 C 0.44998 0.39354 0.79005 0.0
C1690 C 0.46605 0.3961 0.76869 0.0
C1691 C 0.51888 0.40096 0.70745 0.0
C1692 C 0.50015 0.39957 0.72848 0.0
H1693 H 0.48706 0.38609 0.83871 0.0
H1694 H 0.51163 0.3893 0.80342 0.0
H1695 H 0.41927 0.381 0.75393 0.0
H1696 H 0.48938 0.40383 0.65678 0.0
H1697 H 0.45919 0.40293 0.69128 0.0
C1698 C 0.0303 0.63631 0.82527 0.0
C1699 C 0.0736 0.63421 0.8288 0.0
C1700 C 0.01358 0.63594 0.8053 0.0
C1701 C 0.04001 0.64132 0.75034 0.0
H1702 H 0.93413 0.61904 0.74169 0.0
C1703 C 0.96905 0.63429 0.66883 0.0
C1704 C 0.92554 0.6365 0.66628 0.0
C1705 C 0.98709 0.63318 0.68853 0.0
C1706 C 0.96343 0.62548 0.74387 0.0
H1707 H 0.13341 0.63023 0.81396 0.0
H1708 H 0.10399 0.62962 0.77867 0.0
H1709 H 0.96712 0.61842 0.77588 0.0
H1710 H 0.86667 0.63896 0.6825 0.0
H1711 H 0.89834 0.6372 0.71721 0.0
H1712 H 0.03613 0.64856 0.71842 0.0
C1713 C 0.0831 0.63159 0.79157 0.0
C1714 C 0.98246 0.62508 0.76346 0.0
C1715 C 0.09997 0.6319 0.81174 0.0
C1716 C 0.90025 0.63721 0.68398 0.0
C1717 C 0.91844 0.63616 0.70383 0.0
C1718 C 0.02094 0.64175 0.73075 0.0
C1719 C 0.03959 0.63348 0.78818 0.0
C1720 C 0.02085 0.63309 0.76698 0.0
C1721 C 0.96222 0.63434 0.70632 0.0
C1722 C 0.98232 0.63388 0.72726 0.0
H1723 H 0.00895 0.63821 0.838 0.0
H1724 H 0.98014 0.63777 0.80327 0.0
H1725 H 0.06921 0.64782 0.75258 0.0
H1726 H 0.98949 0.63351 0.65553 0.0
H1727 H 0.02069 0.6314 0.68978 0.0
loop_
_geom_bond_atom_site_label_1
_geom_bond_atom_site_label_2
_geom_bond_distance
_geom_bond_site_symmetry_2
_ccdc_geom_bond_type
Co0 N4 2.148 . S
Co0 N10 2.128 . S
Co0 N20 2.194 . S
Co0 O25 2.351 . S
Co0 O26 2.155 . S
Co0 O27 2.096 . S
C1 N4 1.301 . S
C1 N5 1.328 . S
C1 H6 0.930 . S
C2 C3 1.333 . S
C2 N4 1.317 . S
C2 H7 0.930 . S
C3 C2 1.333 . S
C3 N5 1.350 . S
C3 H29 0.931 . S
N4 Co0 2.148 . S
N4 C1 1.301 . S
N4 C2 1.317 . S
N5 C1 1.328 . S
N5 C3 1.350 . S
H6 C1 0.930 . S
H7 C2 0.930 . S
C8 O9 1.224 . S
C8 O27 1.247 1_655 S
O9 C8 1.224 . S
N10 Co0 2.128 . S
N10 C11 1.355 . S
N10 C13 1.311 . S
C11 N10 1.355 . S
C11 C12 1.363 . S
C11 H23 0.929 . S
C12 C11 1.363 . S
C12 N14 1.375 . S
C12 H30 0.931 . S
C13 N10 1.311 . S
C13 N14 1.347 . S
C13 H24 0.929 . S
N14 C12 1.375 . S
N14 C13 1.347 . S
C15 C18 1.365 . S
C15 N20 1.328 . S
C15 H21 0.929 . S
C16 C17 1.362 . S
C16 C19 1.378 . S
C16 H31 0.929 1_455 S
C17 C16 1.362 . S
C17 C18 1.366 . S
C18 C15 1.365 . S
C18 C17 1.366 . S
C18 H32 0.930 . S
C19 C16 1.378 . S
C19 N20 1.315 . S
C19 H22 0.930 . S
N20 Co0 2.194 . S
N20 C15 1.328 . S
N20 C19 1.315 . S
H21 C15 0.929 . S
H22 C19 0.930 . S
H23 C11 0.929 . S
H24 C13 0.929 . S
O25 Co0 2.351 . S
O25 C28 1.244 . S
O26 Co0 2.155 . S
O26 C28 1.240 . S
O27 Co0 2.096 . S
O27 C8 1.247 1_455 S
C28 O25 1.244 . S
C28 O26 1.240 . S
H29 C3 0.931 . S
H30 C12 0.931 . S
H31 C16 0.929 1_655 S
H32 C18 0.930 . S
Co33 N37 2.148 . S
Co33 N43 2.128 . S
Co33 N53 2.194 . S
Co33 O58 2.351 . S
Co33 O59 2.155 . S
Co33 O60 2.096 . S
C34 N37 1.301 . S
C34 N38 1.328 . S
C34 H39 0.930 . S
C35 C36 1.333 . S
C35 N37 1.317 . S
C35 H40 0.930 . S
C36 C35 1.333 . S
C36 N38 1.350 . S
C36 H62 0.931 . S
N37 Co33 2.148 . S
N37 C34 1.301 . S
N37 C35 1.317 . S
N38 C34 1.328 . S
N38 C36 1.350 . S
H39 C34 0.930 . S
H40 C35 0.930 . S
C41 O42 1.224 . S
C41 O60 1.247 . S
O42 C41 1.224 . S
N43 Co33 2.128 . S
N43 C44 1.355 . S
N43 C46 1.311 . S
C44 N43 1.355 . S
C44 C45 1.363 . S
C44 H56 0.929 . S
C45 C44 1.363 . S
C45 N47 1.375 . S
C45 H63 0.931 . S
C46 N43 1.311 . S
C46 N47 1.347 . S
C46 H57 0.929 . S
N47 C45 1.375 . S
N47 C46 1.347 . S
C48 C51 1.365 . S
C48 N53 1.328 . S
C48 H54 0.929 . S
C49 C50 1.362 . S
C49 C52 1.378 . S
C49 H64 0.929 . S
C50 C49 1.362 . S
C50 C51 1.366 . S
C51 C48 1.365 . S
C51 C50 1.366 . S
C51 H65 0.930 . S
C52 C49 1.378 . S
C52 N53 1.315 . S
C52 H55 0.930 . S
N53 Co33 2.194 . S
N53 C48 1.328 . S
N53 C52 1.315 . S
H54 C48 0.929 . S
H55 C52 0.930 . S
H56 C44 0.929 . S
H57 C46 0.929 . S
O58 Co33 2.351 . S
O58 C61 1.244 . S
O59 Co33 2.155 . S
O59 C61 1.240 . S
O60 Co33 2.096 . S
O60 C41 1.247 . S
C61 O58 1.244 . S
C61 O59 1.240 . S
H62 C36 0.931 . S
H63 C45 0.931 . S
H64 C49 0.929 . S
H65 C51 0.930 . S
Co66 N70 2.148 . S
Co66 N76 2.128 . S
Co66 N86 2.194 . S
Co66 O91 2.351 . S
Co66 O92 2.155 . S
Co66 O93 2.096 . S
C67 N70 1.301 . S
C67 N71 1.328 . S
C67 H72 0.930 . S
C68 C69 1.333 . S
C68 N70 1.317 . S
C68 H73 0.930 . S
C69 C68 1.333 . S
C69 N71 1.350 . S
C69 H95 0.931 . S
N70 Co66 2.148 . S
N70 C67 1.301 . S
N70 C68 1.317 . S
N71 C67 1.328 . S
N71 C69 1.350 . S
H72 C67 0.930 . S
H73 C68 0.930 . S
C74 O75 1.224 . S
C74 O93 1.247 . S
O75 C74 1.224 . S
N76 Co66 2.128 . S
N76 C77 1.355 . S
N76 C79 1.311 . S
C77 N76 1.355 . S
C77 C78 1.363 . S
C77 H89 0.929 . S
C78 C77 1.363 . S
C78 N80 1.375 . S
C78 H96 0.931 . S
C79 N76 1.311 . S
C79 N80 1.347 . S
C79 H90 0.929 . S
N80 C78 1.375 . S
N80 C79 1.347 . S
C81 C84 1.365 . S
C81 N86 1.328 . S
C81 H87 0.929 . S
C82 C83 1.362 . S
C82 C85 1.378 . S
C82 H97 0.929 . S
C83 C82 1.362 . S
C83 C84 1.366 . S
C84 C81 1.365 . S
C84 C83 1.366 . S
C84 H98 0.930 . S
C85 C82 1.378 . S
C85 N86 1.315 . S
C85 H88 0.930 . S
N86 Co66 2.194 . S
N86 C81 1.328 . S
N86 C85 1.315 . S
H87 C81 0.929 . S
H88 C85 0.930 . S
H89 C77 0.929 . S
H90 C79 0.929 . S
O91 Co66 2.351 . S
O91 C94 1.244 . S
O92 Co66 2.155 . S
O92 C94 1.240 . S
O93 Co66 2.096 . S
O93 C74 1.247 . S
C94 O91 1.244 . S
C94 O92 1.240 . S
H95 C69 0.931 . S
H96 C78 0.931 . S
H97 C82 0.929 . S
H98 C84 0.930 . S
Co99 N103 2.148 . S
Co99 N109 2.128 . S
Co99 N119 2.194 . S
Co99 O124 2.351 . S
Co99 O125 2.155 . S
Co99 O126 2.096 . S
C100 N103 1.301 . S
C100 N104 1.328 . S
C100 H105 0.930 . S
C101 C102 1.333 . S
C101 N103 1.317 . S
C101 H106 0.930 . S
C102 C101 1.333 . S
C102 N104 1.350 . S
C102 H128 0.931 . S
N103 Co99 2.148 . S
N103 C100 1.301 . S
N103 C101 1.317 . S
N104 C100 1.328 . S
N104 C102 1.350 . S
H105 C100 0.930 . S
H106 C101 0.930 . S
C107 O108 1.224 . S
C107 O126 1.247 1_455 S
O108 C107 1.224 . S
N109 Co99 2.128 . S
N109 C110 1.355 . S
N109 C112 1.311 . S
C110 N109 1.355 . S
C110 C111 1.363 . S
C110 H122 0.929 . S
C111 C110 1.363 . S
C111 N113 1.375 . S
C111 H129 0.931 . S
C112 N109 1.311 . S
C112 N113 1.347 . S
C112 H123 0.929 . S
N113 C111 1.375 . S
N113 C112 1.347 . S
C114 C117 1.365 . S
C114 N119 1.328 . S
C114 H120 0.929 . S
C115 C116 1.362 . S
C115 C118 1.378 . S
C115 H130 0.929 1_655 S
C116 C115 1.362 . S
C116 C117 1.366 . S
C117 C114 1.365 . S
C117 C116 1.366 . S
C117 H131 0.930 . S
C118 C115 1.378 . S
C118 N119 1.315 . S
C118 H121 0.930 . S
N119 Co99 2.194 . S
N119 C114 1.328 . S
N119 C118 1.315 . S
H120 C114 0.929 . S
H121 C118 0.930 . S
H122 C110 0.929 . S
H123 C112 0.929 . S
O124 Co99 2.351 . S
O124 C127 1.244 . S
O125 Co99 2.155 . S
O125 C127 1.240 . S
O126 Co99 2.096 . S
O126 C107 1.247 1_655 S
C127 O124 1.244 . S
C127 O125 1.240 . S
H128 C102 0.931 . S
H129 C111 0.931 . S
H130 C115 0.929 1_455 S
H131 C117 0.930 . S
Co132 N136 2.148 . S
Co132 N142 2.128 . S
Co132 N152 2.194 . S
Co132 O157 2.351 . S
Co132 O158 2.155 . S
Co132 O159 2.096 . S
C133 N136 1.301 . S
C133 N137 1.328 . S
C133 H138 0.930 . S
C134 C135 1.333 . S
C134 N136 1.317 . S
C134 H139 0.930 . S
C135 C134 1.333 . S
C135 N137 1.350 . S
C135 H161 0.931 . S
N136 Co132 2.148 . S
N136 C133 1.301 . S
N136 C134 1.317 . S
N137 C133 1.328 . S
N137 C135 1.350 . S
H138 C133 0.930 . S
H139 C134 0.930 . S
C140 O141 1.224 . S
C140 O159 1.247 . S
O141 C140 1.224 . S
N142 Co132 2.128 . S
N142 C143 1.355 . S
N142 C145 1.311 . S
C143 N142 1.355 . S
C143 C144 1.363 . S
C143 H155 0.929 . S
C144 C143 1.363 . S
C144 N146 1.375 . S
C144 H162 0.931 . S
C145 N142 1.311 . S
C145 N146 1.347 . S
C145 H156 0.929 . S
N146 C144 1.375 . S
N146 C145 1.347 . S
C147 C150 1.365 . S
C147 N152 1.328 1_455 S
C147 H153 0.929 . S
C148 C149 1.362 1_655 S
C148 C151 1.378 . S
C148 H163 0.929 . S
C149 C148 1.362 1_455 S
C149 C150 1.366 . S
C150 C147 1.365 . S
C150 C149 1.366 . S
C150 H164 0.930 . S
C151 C148 1.378 . S
C151 N152 1.315 . S
C151 H154 0.930 . S
N152 Co132 2.194 . S
N152 C147 1.328 1_655 S
N152 C151 1.315 . S
H153 C147 0.929 . S
H154 C151 0.930 . S
H155 C143 0.929 . S
H156 C145 0.929 . S
O157 Co132 2.351 . S
O157 C160 1.244 . S
O158 Co132 2.155 . S
O158 C160 1.240 . S
O159 Co132 2.096 . S
O159 C140 1.247 . S
C160 O157 1.244 . S
C160 O158 1.240 . S
H161 C135 0.931 . S
H162 C144 0.931 . S
H163 C148 0.929 . S
H164 C150 0.930 . S
Co165 N169 2.148 . S
Co165 N175 2.128 . S
Co165 N185 2.194 . S
Co165 O190 2.351 . S
Co165 O191 2.155 . S
Co165 O192 2.096 . S
C166 N169 1.301 . S
C166 N170 1.328 . S
C166 H171 0.930 . S
C167 C168 1.333 . S
C167 N169 1.317 . S
C167 H172 0.930 . S
C168 C167 1.333 . S
C168 N170 1.350 . S
C168 H194 0.931 . S
N169 Co165 2.148 . S
N169 C166 1.301 . S
N169 C167 1.317 . S
N170 C166 1.328 . S
N170 C168 1.350 . S
H171 C166 0.930 . S
H172 C167 0.930 . S
C173 O174 1.224 . S
C173 O192 1.247 . S
O174 C173 1.224 . S
N175 Co165 2.128 . S
N175 C176 1.355 . S
N175 C178 1.311 . S
C176 N175 1.355 . S
C176 C177 1.363 . S
C176 H188 0.929 . S
C177 C176 1.363 . S
C177 N179 1.375 . S
C177 H195 0.931 . S
C178 N175 1.311 . S
C178 N179 1.347 . S
C178 H189 0.929 . S
N179 C177 1.375 . S
N179 C178 1.347 . S
C180 C183 1.365 . S
C180 N185 1.328 . S
C180 H186 0.929 . S
C181 C182 1.362 . S
C181 C184 1.378 . S
C181 H196 0.929 . S
C182 C181 1.362 . S
C182 C183 1.366 . S
C183 C180 1.365 . S
C183 C182 1.366 . S
C183 H197 0.930 . S
C184 C181 1.378 . S
C184 N185 1.315 . S
C184 H187 0.930 . S
N185 Co165 2.194 . S
N185 C180 1.328 . S
N185 C184 1.315 . S
H186 C180 0.929 . S
H187 C184 0.930 . S
H188 C176 0.929 . S
H189 C178 0.929 . S
O190 Co165 2.351 . S
O190 C193 1.244 . S
O191 Co165 2.155 . S
O191 C193 1.240 . S
O192 Co165 2.096 . S
O192 C173 1.247 . S
C193 O190 1.244 . S
C193 O191 1.240 . S
H194 C168 0.931 . S
H195 C177 0.931 . S
H196 C181 0.929 . S
H197 C183 0.930 . S
Co198 N202 2.148 . S
Co198 N208 2.128 . S
Co198 N218 2.194 . S
Co198 O223 2.351 . S
Co198 O224 2.155 . S
Co198 O225 2.096 . S
C199 N202 1.301 . S
C199 N203 1.328 . S
C199 H204 0.930 . S
C200 C201 1.333 . S
C200 N202 1.317 . S
C200 H205 0.930 . S
C201 C200 1.333 . S
C201 N203 1.350 . S
C201 H227 0.931 . S
N202 Co198 2.148 . S
N202 C199 1.301 . S
N202 C200 1.317 . S
N203 C199 1.328 . S
N203 C201 1.350 . S
H204 C199 0.930 . S
H205 C200 0.930 . S
C206 O207 1.224 . S
C206 O225 1.247 . S
O207 C206 1.224 . S
N208 Co198 2.128 . S
N208 C209 1.355 . S
N208 C211 1.311 . S
C209 N208 1.355 . S
C209 C210 1.363 . S
C209 H221 0.929 . S
C210 C209 1.363 . S
C210 N212 1.375 . S
C210 H228 0.931 . S
C211 N208 1.311 . S
C211 N212 1.347 . S
C211 H222 0.929 . S
N212 C210 1.375 . S
N212 C211 1.347 . S
C213 C216 1.365 . S
C213 N218 1.328 . S
C213 H219 0.929 . S
C214 C215 1.362 . S
C214 C217 1.378 . S
C214 H229 0.929 . S
C215 C214 1.362 . S
C215 C216 1.366 . S
C216 C213 1.365 . S
C216 C215 1.366 . S
C216 H230 0.930 . S
C217 C214 1.378 . S
C217 N218 1.315 . S
C217 H220 0.930 . S
N218 Co198 2.194 . S
N218 C213 1.328 . S
N218 C217 1.315 . S
H219 C213 0.929 . S
H220 C217 0.930 . S
H221 C209 0.929 . S
H222 C211 0.929 . S
O223 Co198 2.351 . S
O223 C226 1.244 . S
O224 Co198 2.155 . S
O224 C226 1.240 . S
O225 Co198 2.096 . S
O225 C206 1.247 . S
C226 O223 1.244 . S
C226 O224 1.240 . S
H227 C201 0.931 . S
H228 C210 0.931 . S
H229 C214 0.929 . S
H230 C216 0.930 . S
Co231 N235 2.148 . S
Co231 N241 2.128 . S
Co231 N251 2.194 . S
Co231 O256 2.351 . S
Co231 O257 2.155 . S
Co231 O258 2.096 . S
C232 N235 1.301 . S
C232 N236 1.328 . S
C232 H237 0.930 . S
C233 C234 1.333 . S
C233 N235 1.317 . S
C233 H238 0.930 . S
C234 C233 1.333 . S
C234 N236 1.350 . S
C234 H260 0.931 . S
N235 Co231 2.148 . S
N235 C232 1.301 . S
N235 C233 1.317 . S
N236 C232 1.328 . S
N236 C234 1.350 . S
H237 C232 0.930 . S
H238 C233 0.930 . S
C239 O240 1.224 . S
C239 O258 1.247 . S
O240 C239 1.224 . S
N241 Co231 2.128 . S
N241 C242 1.355 . S
N241 C244 1.311 . S
C242 N241 1.355 . S
C242 C243 1.363 . S
C242 H254 0.929 . S
C243 C242 1.363 . S
C243 N245 1.375 . S
C243 H261 0.931 . S
C244 N241 1.311 . S
C244 N245 1.347 . S
C244 H255 0.929 . S
N245 C243 1.375 . S
N245 C244 1.347 . S
C246 C249 1.365 . S
C246 N251 1.328 1_655 S
C246 H252 0.929 . S
C247 C248 1.362 1_455 S
C247 C250 1.378 . S
C247 H262 0.929 . S
C248 C247 1.362 1_655 S
C248 C249 1.366 . S
C249 C246 1.365 . S
C249 C248 1.366 . S
C249 H263 0.930 . S
C250 C247 1.378 . S
C250 N251 1.315 . S
C250 H253 0.930 . S
N251 Co231 2.194 . S
N251 C246 1.328 1_455 S
N251 C250 1.315 . S
H252 C246 0.929 . S
H253 C250 0.930 . S
H254 C242 0.929 . S
H255 C244 0.929 . S
O256 Co231 2.351 . S
O256 C259 1.244 . S
O257 Co231 2.155 . S
O257 C259 1.240 . S
O258 Co231 2.096 . S
O258 C239 1.247 . S
C259 O256 1.244 . S
C259 O257 1.240 . S
H260 C234 0.931 . S
H261 C243 0.931 . S
H262 C247 0.929 . S
H263 C249 0.930 . S
Co264 N268 2.148 . S
Co264 N274 2.128 . S
Co264 N284 2.194 . S
Co264 O289 2.351 . S
Co264 O290 2.155 . S
Co264 O291 2.096 . S
C265 N268 1.301 . S
C265 N269 1.328 . S
C265 H270 0.930 . S
C266 C267 1.333 . S
C266 N268 1.317 . S
C266 H271 0.930 . S
C267 C266 1.333 . S
C267 N269 1.350 . S
C267 H293 0.931 . S
N268 Co264 2.148 . S
N268 C265 1.301 . S
N268 C266 1.317 . S
N269 C265 1.328 . S
N269 C267 1.350 . S
H270 C265 0.930 . S
H271 C266 0.930 . S
C272 O273 1.224 . S
C272 O291 1.247 . S
O273 C272 1.224 . S
N274 Co264 2.128 . S
N274 C275 1.355 . S
N274 C277 1.311 . S
C275 N274 1.355 . S
C275 C276 1.363 . S
C275 H287 0.929 . S
C276 C275 1.363 . S
C276 N278 1.375 . S
C276 H294 0.931 . S
C277 N274 1.311 . S
C277 N278 1.347 . S
C277 H288 0.929 . S
N278 C276 1.375 . S
N278 C277 1.347 . S
C279 C282 1.365 . S
C279 N284 1.328 . S
C279 H285 0.929 . S
C280 C281 1.362 . S
C280 C283 1.378 . S
C280 H295 0.929 . S
C281 C280 1.362 . S
C281 C282 1.366 . S
C282 C279 1.365 . S
C282 C281 1.366 . S
C282 H296 0.930 . S
C283 C280 1.378 . S
C283 N284 1.315 . S
C283 H286 0.930 . S
N284 Co264 2.194 . S
N284 C279 1.328 . S
N284 C283 1.315 . S
H285 C279 0.929 . S
H286 C283 0.930 . S
H287 C275 0.929 . S
H288 C277 0.929 . S
O289 Co264 2.351 . S
O289 C292 1.244 . S
O290 Co264 2.155 . S
O290 C292 1.240 . S
O291 Co264 2.096 . S
O291 C272 1.247 . S
C292 O289 1.244 . S
C292 O290 1.240 . S
H293 C267 0.931 . S
H294 C276 0.931 . S
H295 C280 0.929 . S
H296 C282 0.930 . S
Co297 N301 2.148 . S
Co297 N307 2.128 . S
Co297 N317 2.194 . S
Co297 O322 2.351 . S
Co297 O323 2.155 . S
Co297 O324 2.096 . S
C298 N301 1.301 . S
C298 N302 1.328 . S
C298 H303 0.930 . S
C299 C300 1.333 . S
C299 N301 1.317 . S
C299 H304 0.930 . S
C300 C299 1.333 . S
C300 N302 1.350 . S
C300 H326 0.931 . S
N301 Co297 2.148 . S
N301 C298 1.301 . S
N301 C299 1.317 . S
N302 C298 1.328 . S
N302 C300 1.350 . S
H303 C298 0.930 . S
H304 C299 0.930 . S
C305 O306 1.224 . S
C305 O324 1.247 1_455 S
O306 C305 1.224 . S
N307 Co297 2.128 . S
N307 C308 1.355 . S
N307 C310 1.311 . S
C308 N307 1.355 . S
C308 C309 1.363 . S
C308 H320 0.929 . S
C309 C308 1.363 . S
C309 N311 1.375 . S
C309 H327 0.931 . S
C310 N307 1.311 . S
C310 N311 1.347 . S
C310 H321 0.929 . S
N311 C309 1.375 . S
N311 C310 1.347 . S
C312 C315 1.365 . S
C312 N317 1.328 . S
C312 H318 0.929 . S
C313 C314 1.362 . S
C313 C316 1.378 . S
C313 H328 0.929 1_655 S
C314 C313 1.362 . S
C314 C315 1.366 . S
C315 C312 1.365 . S
C315 C314 1.366 . S
C315 H329 0.930 . S
C316 C313 1.378 . S
C316 N317 1.315 . S
C316 H319 0.930 . S
N317 Co297 2.194 . S
N317 C312 1.328 . S
N317 C316 1.315 . S
H318 C312 0.929 . S
H319 C316 0.930 . S
H320 C308 0.929 . S
H321 C310 0.929 . S
O322 Co297 2.351 . S
O322 C325 1.244 . S
O323 Co297 2.155 . S
O323 C325 1.240 . S
O324 Co297 2.096 . S
O324 C305 1.247 1_655 S
C325 O322 1.244 . S
C325 O323 1.240 . S
H326 C300 0.931 . S
H327 C309 0.931 . S
H328 C313 0.929 1_455 S
H329 C315 0.930 . S
Co330 N334 2.148 . S
Co330 N340 2.128 . S
Co330 N350 2.194 . S
Co330 O355 2.351 1_455 S
Co330 O356 2.155 . S
Co330 O357 2.096 . S
C331 N334 1.301 . S
C331 N335 1.328 . S
C331 H336 0.930 . S
C332 C333 1.333 . S
C332 N334 1.317 . S
C332 H337 0.930 . S
C333 C332 1.333 . S
C333 N335 1.350 . S
C333 H359 0.931 . S
N334 Co330 2.148 . S
N334 C331 1.301 . S
N334 C332 1.317 . S
N335 C331 1.328 . S
N335 C333 1.350 . S
H336 C331 0.930 . S
H337 C332 0.930 . S
C338 O339 1.224 . S
C338 O357 1.247 . S
O339 C338 1.224 . S
N340 Co330 2.128 . S
N340 C341 1.355 . S
N340 C343 1.311 . S
C341 N340 1.355 . S
C341 C342 1.363 . S
C341 H353 0.929 . S
C342 C341 1.363 . S
C342 N344 1.375 . S
C342 H360 0.931 . S
C343 N340 1.311 . S
C343 N344 1.347 . S
C343 H354 0.929 . S
N344 C342 1.375 . S
N344 C343 1.347 . S
C345 C348 1.365 . S
C345 N350 1.328 . S
C345 H351 0.929 1_455 S
C346 C347 1.362 . S
C346 C349 1.378 . S
C346 H361 0.929 . S
C347 C346 1.362 . S
C347 C348 1.366 . S
C348 C345 1.365 . S
C348 C347 1.366 . S
C348 H362 0.930 1_455 S
C349 C346 1.378 . S
C349 N350 1.315 . S
C349 H352 0.930 . S
N350 Co330 2.194 . S
N350 C345 1.328 . S
N350 C349 1.315 . S
H351 C345 0.929 1_655 S
H352 C349 0.930 . S
H353 C341 0.929 . S
H354 C343 0.929 . S
O355 Co330 2.351 1_655 S
O355 C358 1.244 . S
O356 Co330 2.155 . S
O356 C358 1.240 1_455 S
O357 Co330 2.096 . S
O357 C338 1.247 . S
C358 O355 1.244 . S
C358 O356 1.240 1_655 S
H359 C333 0.931 . S
H360 C342 0.931 . S
H361 C346 0.929 . S
H362 C348 0.930 1_655 S
Co363 N367 2.148 . S
Co363 N373 2.128 . S
Co363 N383 2.194 . S
Co363 O388 2.351 . S
Co363 O389 2.155 . S
Co363 O390 2.096 . S
C364 N367 1.301 . S
C364 N368 1.328 . S
C364 H369 0.930 . S
C365 C366 1.333 . S
C365 N367 1.317 . S
C365 H370 0.930 . S
C366 C365 1.333 . S
C366 N368 1.350 . S
C366 H392 0.931 . S
N367 Co363 2.148 . S
N367 C364 1.301 . S
N367 C365 1.317 . S
N368 C364 1.328 . S
N368 C366 1.350 . S
H369 C364 0.930 . S
H370 C365 0.930 . S
C371 O372 1.224 . S
C371 O390 1.247 . S
O372 C371 1.224 . S
N373 Co363 2.128 . S
N373 C374 1.355 . S
N373 C376 1.311 . S
C374 N373 1.355 . S
C374 C375 1.363 . S
C374 H386 0.929 . S
C375 C374 1.363 . S
C375 N377 1.375 . S
C375 H393 0.931 . S
C376 N373 1.311 . S
C376 N377 1.347 . S
C376 H387 0.929 . S
N377 C375 1.375 . S
N377 C376 1.347 . S
C378 C381 1.365 . S
C378 N383 1.328 . S
C378 H384 0.929 . S
C379 C380 1.362 . S
C379 C382 1.378 . S
C379 H394 0.929 . S
C380 C379 1.362 . S
C380 C381 1.366 . S
C381 C378 1.365 . S
C381 C380 1.366 . S
C381 H395 0.930 . S
C382 C379 1.378 . S
C382 N383 1.315 . S
C382 H385 0.930 . S
N383 Co363 2.194 . S
N383 C378 1.328 . S
N383 C382 1.315 . S
H384 C378 0.929 . S
H385 C382 0.930 . S
H386 C374 0.929 . S
H387 C376 0.929 . S
O388 Co363 2.351 . S
O388 C391 1.244 . S
O389 Co363 2.155 . S
O389 C391 1.240 . S
O390 Co363 2.096 . S
O390 C371 1.247 . S
C391 O388 1.244 . S
C391 O389 1.240 . S
H392 C366 0.931 . S
H393 C375 0.931 . S
H394 C379 0.929 . S
H395 C381 0.930 . S
Co396 N400 2.148 . S
Co396 N406 2.128 . S
Co396 N416 2.194 . S
Co396 O421 2.351 . S
Co396 O422 2.155 . S
Co396 O423 2.096 . S
C397 N400 1.301 . S
C397 N401 1.328 . S
C397 H402 0.930 . S
C398 C399 1.333 . S
C398 N400 1.317 . S
C398 H403 0.930 . S
C399 C398 1.333 . S
C399 N401 1.350 . S
C399 H425 0.931 . S
N400 Co396 2.148 . S
N400 C397 1.301 . S
N400 C398 1.317 . S
N401 C397 1.328 . S
N401 C399 1.350 . S
H402 C397 0.930 . S
H403 C398 0.930 . S
C404 O405 1.224 . S
C404 O423 1.247 . S
O405 C404 1.224 . S
N406 Co396 2.128 . S
N406 C407 1.355 . S
N406 C409 1.311 . S
C407 N406 1.355 . S
C407 C408 1.363 . S
C407 H419 0.929 . S
C408 C407 1.363 . S
C408 N410 1.375 . S
C408 H426 0.931 . S
C409 N406 1.311 . S
C409 N410 1.347 . S
C409 H420 0.929 . S
N410 C408 1.375 . S
N410 C409 1.347 . S
C411 C414 1.365 . S
C411 N416 1.328 . S
C411 H417 0.929 . S
C412 C413 1.362 . S
C412 C415 1.378 . S
C412 H427 0.929 . S
C413 C412 1.362 . S
C413 C414 1.366 . S
C414 C411 1.365 . S
C414 C413 1.366 . S
C414 H428 0.930 . S
C415 C412 1.378 . S
C415 N416 1.315 . S
C415 H418 0.930 . S
N416 Co396 2.194 . S
N416 C411 1.328 . S
N416 C415 1.315 . S
H417 C411 0.929 . S
H418 C415 0.930 . S
H419 C407 0.929 . S
H420 C409 0.929 . S
O421 Co396 2.351 . S
O421 C424 1.244 . S
O422 Co396 2.155 . S
O422 C424 1.240 . S
O423 Co396 2.096 . S
O423 C404 1.247 . S
C424 O421 1.244 . S
C424 O422 1.240 . S
H425 C399 0.931 . S
H426 C408 0.931 . S
H427 C412 0.929 . S
H428 C414 0.930 . S
Co429 N433 2.148 . S
Co429 N439 2.128 . S
Co429 N449 2.194 . S
Co429 O454 2.351 . S
Co429 O455 2.155 . S
Co429 O456 2.096 . S
C430 N433 1.301 . S
C430 N434 1.328 . S
C430 H435 0.930 . S
C431 C432 1.333 . S
C431 N433 1.317 . S
C431 H436 0.930 . S
C432 C431 1.333 . S
C432 N434 1.350 . S
C432 H458 0.931 . S
N433 Co429 2.148 . S
N433 C430 1.301 . S
N433 C431 1.317 . S
N434 C430 1.328 . S
N434 C432 1.350 . S
H435 C430 0.930 . S
H436 C431 0.930 . S
C437 O438 1.224 . S
C437 O456 1.247 . S
O438 C437 1.224 . S
N439 Co429 2.128 . S
N439 C440 1.355 . S
N439 C442 1.311 . S
C440 N439 1.355 . S
C440 C441 1.363 . S
C440 H452 0.929 . S
C441 C440 1.363 . S
C441 N443 1.375 . S
C441 H459 0.931 . S
C442 N439 1.311 . S
C442 N443 1.347 . S
C442 H453 0.929 . S
N443 C441 1.375 . S
N443 C442 1.347 . S
C444 C447 1.365 . S
C444 N449 1.328 1_655 S
C444 H450 0.929 . S
C445 C446 1.362 1_455 S
C445 C448 1.378 . S
C445 H460 0.929 . S
C446 C445 1.362 1_655 S
C446 C447 1.366 . S
C447 C444 1.365 . S
C447 C446 1.366 . S
C447 H461 0.930 . S
C448 C445 1.378 . S
C448 N449 1.315 . S
C448 H451 0.930 . S
N449 Co429 2.194 . S
N449 C444 1.328 1_455 S
N449 C448 1.315 . S
H450 C444 0.929 . S
H451 C448 0.930 . S
H452 C440 0.929 . S
H453 C442 0.929 . S
O454 Co429 2.351 . S
O454 C457 1.244 . S
O455 Co429 2.155 . S
O455 C457 1.240 . S
O456 Co429 2.096 . S
O456 C437 1.247 . S
C457 O454 1.244 . S
C457 O455 1.240 . S
H458 C432 0.931 . S
H459 C441 0.931 . S
H460 C445 0.929 . S
H461 C447 0.930 . S
Co462 N466 2.148 . S
Co462 N472 2.128 . S
Co462 N482 2.194 . S
Co462 O487 2.351 . S
Co462 O488 2.155 . S
Co462 O489 2.096 . S
C463 N466 1.301 . S
C463 N467 1.328 . S
C463 H468 0.930 . S
C464 C465 1.333 . S
C464 N466 1.317 . S
C464 H469 0.930 . S
C465 C464 1.333 . S
C465 N467 1.350 . S
C465 H491 0.931 . S
N466 Co462 2.148 . S
N466 C463 1.301 . S
N466 C464 1.317 . S
N467 C463 1.328 . S
N467 C465 1.350 . S
H468 C463 0.930 . S
H469 C464 0.930 . S
C470 O471 1.224 . S
C470 O489 1.247 . S
O471 C470 1.224 . S
N472 Co462 2.128 . S
N472 C473 1.355 . S
N472 C475 1.311 . S
C473 N472 1.355 . S
C473 C474 1.363 . S
C473 H485 0.929 . S
C474 C473 1.363 . S
C474 N476 1.375 . S
C474 H492 0.931 . S
C475 N472 1.311 . S
C475 N476 1.347 . S
C475 H486 0.929 . S
N476 C474 1.375 . S
N476 C475 1.347 . S
C477 C480 1.365 . S
C477 N482 1.328 1_455 S
C477 H483 0.929 . S
C478 C479 1.362 1_655 S
C478 C481 1.378 . S
C478 H493 0.929 . S
C479 C478 1.362 1_455 S
C479 C480 1.366 . S
C480 C477 1.365 . S
C480 C479 1.366 . S
C480 H494 0.930 . S
C481 C478 1.378 . S
C481 N482 1.315 . S
C481 H484 0.930 . S
N482 Co462 2.194 . S
N482 C477 1.328 1_655 S
N482 C481 1.315 . S
H483 C477 0.929 . S
H484 C481 0.930 . S
H485 C473 0.929 . S
H486 C475 0.929 . S
O487 Co462 2.351 . S
O487 C490 1.244 . S
O488 Co462 2.155 . S
O488 C490 1.240 . S
O489 Co462 2.096 . S
O489 C470 1.247 . S
C490 O487 1.244 . S
C490 O488 1.240 . S
H491 C465 0.931 . S
H492 C474 0.931 . S
H493 C478 0.929 . S
H494 C480 0.930 . S
Co495 N499 2.148 . S
Co495 N505 2.128 . S
Co495 N515 2.194 . S
Co495 O520 2.351 . S
Co495 O521 2.155 . S
Co495 O522 2.096 . S
C496 N499 1.301 . S
C496 N500 1.328 . S
C496 H501 0.930 . S
C497 C498 1.333 . S
C497 N499 1.317 . S
C497 H502 0.930 . S
C498 C497 1.333 . S
C498 N500 1.350 . S
C498 H524 0.931 . S
N499 Co495 2.148 . S
N499 C496 1.301 . S
N499 C497 1.317 . S
N500 C496 1.328 . S
N500 C498 1.350 . S
H501 C496 0.930 . S
H502 C497 0.930 . S
C503 O504 1.224 . S
C503 O522 1.247 . S
O504 C503 1.224 . S
N505 Co495 2.128 . S
N505 C506 1.355 . S
N505 C508 1.311 . S
C506 N505 1.355 . S
C506 C507 1.363 . S
C506 H518 0.929 . S
C507 C506 1.363 . S
C507 N509 1.375 . S
C507 H525 0.931 . S
C508 N505 1.311 . S
C508 N509 1.347 . S
C508 H519 0.929 . S
N509 C507 1.375 . S
N509 C508 1.347 . S
C510 C513 1.365 . S
C510 N515 1.328 . S
C510 H516 0.929 . S
C511 C512 1.362 . S
C511 C514 1.378 . S
C511 H526 0.929 . S
C512 C511 1.362 . S
C512 C513 1.366 . S
C513 C510 1.365 . S
C513 C512 1.366 . S
C513 H527 0.930 . S
C514 C511 1.378 . S
C514 N515 1.315 . S
C514 H517 0.930 . S
N515 Co495 2.194 . S
N515 C510 1.328 . S
N515 C514 1.315 . S
H516 C510 0.929 . S
H517 C514 0.930 . S
H518 C506 0.929 . S
H519 C508 0.929 . S
O520 Co495 2.351 . S
O520 C523 1.244 . S
O521 Co495 2.155 . S
O521 C523 1.240 . S
O522 Co495 2.096 . S
O522 C503 1.247 . S
C523 O520 1.244 . S
C523 O521 1.240 . S
H524 C498 0.931 . S
H525 C507 0.931 . S
H526 C511 0.929 . S
H527 C513 0.930 . S
C528 C529 1.349 . S
C528 C530 1.327 . S
C528 H553 0.950 . S
C529 C528 1.349 . S
C529 C545 1.349 . S
C530 C528 1.327 . S
C530 C549 1.429 . S
C530 H554 0.950 . S
C531 C548 1.574 1_556 S
C531 C550 1.368 . S
C531 H555 0.949 . S
H532 C536 0.945 1_554 S
C533 C534 1.349 . S
C533 C535 1.327 . S
C533 H556 0.950 . S
C534 C533 1.349 . S
C534 C546 1.349 . S
C535 C533 1.327 . S
C535 C551 1.429 . S
C535 H557 0.950 . S
C536 H532 0.945 1_556 S
C536 C544 1.609 . S
C536 C552 1.341 1_556 S
H537 C545 0.950 . S
H538 C543 0.950 . S
H539 C544 0.949 . S
H540 C546 0.950 . S
H541 C547 0.950 . S
H542 C548 0.949 . S
C543 H538 0.950 . S
C543 C545 1.327 . S
C543 C549 1.429 . S
C544 C536 1.609 . S
C544 H539 0.949 . S
C544 C550 1.368 . S
C545 C529 1.349 . S
C545 H537 0.950 . S
C545 C543 1.327 . S
C546 C534 1.349 . S
C546 H540 0.950 . S
C546 C547 1.327 . S
C547 H541 0.950 . S
C547 C546 1.327 . S
C547 C551 1.429 . S
C548 C531 1.574 1_554 S
C548 H542 0.949 . S
C548 C552 1.368 . S
C549 C530 1.429 . S
C549 C543 1.429 . S
C549 C550 1.523 . S
C550 C531 1.368 . S
C550 C544 1.368 . S
C550 C549 1.523 . S
C551 C535 1.429 . S
C551 C547 1.429 . S
C551 C552 1.523 . S
C552 C536 1.341 1_554 S
C552 C548 1.368 . S
C552 C551 1.523 . S
H553 C528 0.950 . S
H554 C530 0.950 . S
H555 C531 0.949 . S
H556 C533 0.950 . S
H557 C535 0.950 . S
C558 C559 1.349 . S
C558 C560 1.327 . S
C558 H583 0.950 . S
C559 C558 1.349 . S
C559 C575 1.349 . S
C560 C558 1.327 . S
C560 C579 1.429 . S
C560 H584 0.950 . S
C561 C578 1.562 1_556 S
C561 C580 1.382 . S
C561 H585 0.946 1_556 S
H562 C566 0.949 . S
C563 C564 1.349 . S
C563 C565 1.327 . S
C563 H586 0.950 . S
C564 C563 1.349 . S
C564 C576 1.349 . S
C565 C563 1.327 . S
C565 C581 1.429 . S
C565 H587 0.950 . S
C566 H562 0.949 . S
C566 C574 1.574 . S
C566 C582 1.368 1_556 S
H567 C575 0.950 . S
H568 C573 0.950 . S
H569 C574 0.949 . S
H570 C576 0.950 . S
H571 C577 0.950 . S
H572 C578 0.949 . S
C573 H568 0.950 . S
C573 C575 1.327 . S
C573 C579 1.429 . S
C574 C566 1.574 . S
C574 H569 0.949 . S
C574 C580 1.368 . S
C575 C559 1.349 . S
C575 H567 0.950 . S
C575 C573 1.327 . S
C576 C564 1.349 . S
C576 H570 0.950 . S
C576 C577 1.327 . S
C577 H571 0.950 . S
C577 C576 1.327 . S
C577 C581 1.429 . S
C578 C561 1.562 1_554 S
C578 H572 0.949 . S
C578 C582 1.368 . S
C579 C560 1.429 . S
C579 C573 1.429 . S
C579 C580 1.523 . S
C580 C561 1.382 . S
C580 C574 1.368 . S
C580 C579 1.523 . S
C581 C565 1.429 . S
C581 C577 1.429 . S
C581 C582 1.523 . S
C582 C566 1.368 1_554 S
C582 C578 1.368 . S
C582 C581 1.523 . S
H583 C558 0.950 . S
H584 C560 0.950 . S
H585 C561 0.946 1_554 S
H586 C563 0.950 . S
H587 C565 0.950 . S
C588 C589 1.349 . S
C588 C590 1.327 . S
C588 H613 0.950 . S
C589 C588 1.349 . S
C589 C605 1.349 . S
C590 C588 1.327 . S
C590 C609 1.429 . S
C590 H614 0.950 . S
C591 C608 1.574 . S
C591 C610 1.368 . S
C591 H615 0.949 . S
H592 C596 0.949 . S
C593 C594 1.349 . S
C593 C595 1.327 . S
C593 H616 0.950 . S
C594 C593 1.349 . S
C594 C606 1.349 . S
C595 C593 1.327 . S
C595 C611 1.429 . S
C595 H617 0.950 . S
C596 H592 0.949 . S
C596 C604 1.574 . S
C596 C612 1.368 . S
H597 C605 0.950 . S
H598 C603 0.950 . S
H599 C604 0.949 . S
H600 C606 0.950 . S
H601 C607 0.950 . S
H602 C608 0.949 . S
C603 H598 0.950 . S
C603 C605 1.327 . S
C603 C609 1.429 . S
C604 C596 1.574 . S
C604 H599 0.949 . S
C604 C610 1.368 . S
C605 C589 1.349 . S
C605 H597 0.950 . S
C605 C603 1.327 . S
C606 C594 1.349 . S
C606 H600 0.950 . S
C606 C607 1.327 . S
C607 H601 0.950 . S
C607 C606 1.327 . S
C607 C611 1.429 . S
C608 C591 1.574 . S
C608 H602 0.949 . S
C608 C612 1.368 . S
C609 C590 1.429 . S
C609 C603 1.429 . S
C609 C610 1.523 . S
C610 C591 1.368 . S
C610 C604 1.368 . S
C610 C609 1.523 . S
C611 C595 1.429 . S
C611 C607 1.429 . S
C611 C612 1.523 . S
C612 C596 1.368 . S
C612 C608 1.368 . S
C612 C611 1.523 . S
H613 C588 0.950 . S
H614 C590 0.950 . S
H615 C591 0.949 . S
H616 C593 0.950 . S
H617 C595 0.950 . S
C618 C619 1.349 . S
C618 C620 1.327 . S
C618 H643 0.950 . S
C619 C618 1.349 . S
C619 C635 1.349 . S
C620 C618 1.327 . S
C620 C639 1.429 . S
C620 H644 0.950 . S
C621 C638 1.574 . S
C621 C640 1.368 . S
C621 H645 0.949 . S
H622 C626 0.949 . S
C623 C624 1.349 . S
C623 C625 1.327 . S
C623 H646 0.950 . S
C624 C623 1.349 . S
C624 C636 1.349 . S
C625 C623 1.327 . S
C625 C641 1.429 . S
C625 H647 0.950 . S
C626 H622 0.949 . S
C626 C634 1.574 . S
C626 C642 1.368 . S
H627 C635 0.950 . S
H628 C633 0.950 . S
H629 C634 0.949 . S
H630 C636 0.950 . S
H631 C637 0.950 . S
H632 C638 0.949 . S
C633 H628 0.950 . S
C633 C635 1.327 . S
C633 C639 1.429 . S
C634 C626 1.574 . S
C634 H629 0.949 . S
C634 C640 1.368 . S
C635 C619 1.349 . S
C635 H627 0.950 . S
C635 C633 1.327 . S
C636 C624 1.349 . S
C636 H630 0.950 . S
C636 C637 1.327 . S
C637 H631 0.950 . S
C637 C636 1.327 . S
C637 C641 1.429 . S
C638 C621 1.574 . S
C638 H632 0.949 . S
C638 C642 1.368 . S
C639 C620 1.429 . S
C639 C633 1.429 . S
C639 C640 1.523 . S
C640 C621 1.368 . S
C640 C634 1.368 . S
C640 C639 1.523 . S
C641 C625 1.429 . S
C641 C637 1.429 . S
C641 C642 1.523 . S
C642 C626 1.368 . S
C642 C638 1.368 . S
C642 C641 1.523 . S
H643 C618 0.950 . S
H644 C620 0.950 . S
H645 C621 0.949 . S
H646 C623 0.950 . S
H647 C625 0.950 . S
C648 C649 1.349 . S
C648 C650 1.327 . S
C648 H673 0.950 . S
C649 C648 1.349 . S
C649 C665 1.349 . S
C650 C648 1.327 . S
C650 C669 1.429 . S
C650 H674 0.950 . S
C651 C668 1.574 . S
C651 C670 1.368 . S
C651 H675 0.949 . S
H652 C656 0.949 . S
C653 C654 1.349 . S
C653 C655 1.327 . S
C653 H676 0.950 . S
C654 C653 1.349 . S
C654 C666 1.349 . S
C655 C653 1.327 . S
C655 C671 1.429 . S
C655 H677 0.950 1_554 S
C656 H652 0.949 . S
C656 C664 1.574 1_554 S
C656 C672 1.368 1_554 S
H657 C665 0.950 . S
H658 C663 0.950 . S
H659 C664 0.949 . S
H660 C666 0.950 . S
H661 C667 0.950 . S
H662 C668 0.949 . S
C663 H658 0.950 . S
C663 C665 1.327 . S
C663 C669 1.429 . S
C664 C656 1.574 1_556 S
C664 H659 0.949 . S
C664 C670 1.368 . S
C665 C649 1.349 . S
C665 H657 0.950 . S
C665 C663 1.327 . S
C666 C654 1.349 . S
C666 H660 0.950 . S
C666 C667 1.327 . S
C667 H661 0.950 . S
C667 C666 1.327 . S
C667 C671 1.429 . S
C668 C651 1.574 . S
C668 H662 0.949 . S
C668 C672 1.368 . S
C669 C650 1.429 . S
C669 C663 1.429 . S
C669 C670 1.523 . S
C670 C651 1.368 . S
C670 C664 1.368 . S
C670 C669 1.523 . S
C671 C655 1.429 . S
C671 C667 1.429 . S
C671 C672 1.523 1_554 S
C672 C656 1.368 1_556 S
C672 C668 1.368 . S
C672 C671 1.523 1_556 S
H673 C648 0.950 . S
H674 C650 0.950 . S
H675 C651 0.949 . S
H676 C653 0.950 . S
H677 C655 0.950 1_556 S
C678 C679 1.349 . S
C678 C680 1.327 . S
C678 H703 0.950 . S
C679 C678 1.349 . S
C679 C695 1.349 . S
C680 C678 1.327 . S
C680 C699 1.429 . S
C680 H704 0.950 . S
C681 C698 1.574 1_556 S
C681 C700 1.368 . S
C681 H705 0.949 . S
H682 C686 0.949 . S
C683 C684 1.349 . S
C683 C685 1.327 . S
C683 H706 0.950 . S
C684 C683 1.349 . S
C684 C696 1.349 . S
C685 C683 1.327 . S
C685 C701 1.429 . S
C685 H707 0.950 . S
C686 H682 0.949 . S
C686 C694 1.574 . S
C686 C702 1.368 . S
H687 C695 0.950 . S
H688 C693 0.950 . S
H689 C694 0.949 . S
H690 C696 0.950 . S
H691 C697 0.950 1_556 S
H692 C698 0.949 . S
C693 H688 0.950 . S
C693 C695 1.327 . S
C693 C699 1.429 . S
C694 C686 1.574 . S
C694 H689 0.949 . S
C694 C700 1.368 . S
C695 C679 1.349 . S
C695 H687 0.950 . S
C695 C693 1.327 . S
C696 C684 1.349 . S
C696 H690 0.950 . S
C696 C697 1.327 . S
C697 H691 0.950 1_554 S
C697 C696 1.327 . S
C697 C701 1.429 . S
C698 C681 1.574 1_554 S
C698 H692 0.949 . S
C698 C702 1.368 1_554 S
C699 C680 1.429 . S
C699 C693 1.429 . S
C699 C700 1.523 . S
C700 C681 1.368 . S
C700 C694 1.368 . S
C700 C699 1.523 . S
C701 C685 1.429 . S
C701 C697 1.429 . S
C701 C702 1.523 1_554 S
C702 C686 1.368 . S
C702 C698 1.368 1_556 S
C702 C701 1.523 1_556 S
H703 C678 0.950 . S
H704 C680 0.950 . S
H705 C681 0.949 . S
H706 C683 0.950 . S
H707 C685 0.950 . S
C708 C709 1.349 . S
C708 C710 1.327 . S
C708 H733 0.950 . S
C709 C708 1.349 . S
C709 C725 1.349 . S
C710 C708 1.327 . S
C710 C729 1.429 . S
C710 H734 0.950 . S
C711 C728 1.574 . S
C711 C730 1.368 . S
C711 H735 0.949 . S
H712 C716 0.949 . S
C713 C714 1.349 . S
C713 C715 1.327 . S
C713 H736 0.950 . S
C714 C713 1.349 . S
C714 C726 1.349 . S
C715 C713 1.327 . S
C715 C731 1.429 . S
C715 H737 0.950 . S
C716 H712 0.949 . S
C716 C724 1.574 . S
C716 C732 1.368 . S
H717 C725 0.950 . S
H718 C723 0.950 . S
H719 C724 0.949 . S
H720 C726 0.950 . S
H721 C727 0.950 . S
H722 C728 0.949 . S
C723 H718 0.950 . S
C723 C725 1.327 . S
C723 C729 1.429 . S
C724 C716 1.574 . S
C724 H719 0.949 . S
C724 C730 1.368 . S
C725 C709 1.349 . S
C725 H717 0.950 . S
C725 C723 1.327 . S
C726 C714 1.349 . S
C726 H720 0.950 . S
C726 C727 1.327 . S
C727 H721 0.950 . S
C727 C726 1.327 . S
C727 C731 1.429 . S
C728 C711 1.574 . S
C728 H722 0.949 . S
C728 C732 1.368 . S
C729 C710 1.429 . S
C729 C723 1.429 . S
C729 C730 1.523 . S
C730 C711 1.368 . S
C730 C724 1.368 . S
C730 C729 1.523 . S
C731 C715 1.429 . S
C731 C727 1.429 . S
C731 C732 1.523 . S
C732 C716 1.368 . S
C732 C728 1.368 . S
C732 C731 1.523 . S
H733 C708 0.950 . S
H734 C710 0.950 . S
H735 C711 0.949 . S
H736 C713 0.950 . S
H737 C715 0.950 . S
C738 C739 1.349 . S
C738 C740 1.327 . S
C738 H763 0.950 . S
C739 C738 1.349 . S
C739 C755 1.349 . S
C740 C738 1.327 . S
C740 C759 1.429 . S
C740 H764 0.950 . S
C741 C758 1.574 . S
C741 C760 1.368 . S
C741 H765 0.949 . S
H742 C746 0.949 . S
C743 C744 1.349 . S
C743 C745 1.327 . S
C743 H766 0.950 . S
C744 C743 1.349 . S
C744 C756 1.349 . S
C745 C743 1.327 . S
C745 C761 1.429 . S
C745 H767 0.950 . S
C746 H742 0.949 . S
C746 C754 1.574 . S
C746 C762 1.368 . S
H747 C755 0.950 . S
H748 C753 0.950 . S
H749 C754 0.949 . S
H750 C756 0.950 . S
H751 C757 0.950 . S
H752 C758 0.949 . S
C753 H748 0.950 . S
C753 C755 1.327 . S
C753 C759 1.429 . S
C754 C746 1.574 . S
C754 H749 0.949 . S
C754 C760 1.368 . S
C755 C739 1.349 . S
C755 H747 0.950 . S
C755 C753 1.327 . S
C756 C744 1.349 . S
C756 H750 0.950 . S
C756 C757 1.327 . S
C757 H751 0.950 . S
C757 C756 1.327 . S
C757 C761 1.429 . S
C758 C741 1.574 . S
C758 H752 0.949 . S
C758 C762 1.368 . S
C759 C740 1.429 . S
C759 C753 1.429 . S
C759 C760 1.523 . S
C760 C741 1.368 . S
C760 C754 1.368 . S
C760 C759 1.523 . S
C761 C745 1.429 . S
C761 C757 1.429 . S
C761 C762 1.523 . S
C762 C746 1.368 . S
C762 C758 1.368 . S
C762 C761 1.523 . S
H763 C738 0.950 . S
H764 C740 0.950 . S
H765 C741 0.949 . S
H766 C743 0.950 . S
H767 C745 0.950 . S
C768 C769 1.349 . S
C768 C770 1.327 . S
C768 H793 0.950 . S
C769 C768 1.349 . S
C769 C785 1.349 . S
C770 C768 1.327 . S
C770 C789 1.429 . S
C770 H794 0.950 . S
C771 C788 1.574 1_554 S
C771 C790 1.368 . S
C771 H795 0.949 . S
H772 C776 0.949 . S
C773 C774 1.349 . S
C773 C775 1.327 . S
C773 H796 0.950 . S
C774 C773 1.349 . S
C774 C786 1.349 . S
C775 C773 1.327 . S
C775 C791 1.429 . S
C775 H797 0.950 . S
C776 H772 0.949 . S
C776 C784 1.574 1_556 S
C776 C792 1.368 . S
H777 C785 0.950 . S
H778 C783 0.950 . S
H779 C784 0.949 . S
H780 C786 0.950 . S
H781 C787 0.950 . S
H782 C788 0.949 . S
C783 H778 0.950 . S
C783 C785 1.327 . S
C783 C789 1.429 . S
C784 C776 1.574 1_554 S
C784 H779 0.949 . S
C784 C790 1.368 . S
C785 C769 1.349 . S
C785 H777 0.950 . S
C785 C783 1.327 . S
C786 C774 1.349 . S
C786 H780 0.950 . S
C786 C787 1.327 . S
C787 H781 0.950 . S
C787 C786 1.327 . S
C787 C791 1.429 . S
C788 C771 1.574 1_556 S
C788 H782 0.949 . S
C788 C792 1.368 . S
C789 C770 1.429 . S
C789 C783 1.429 . S
C789 C790 1.523 . S
C790 C771 1.368 . S
C790 C784 1.368 . S
C790 C789 1.523 . S
C791 C775 1.429 . S
C791 C787 1.429 . S
C791 C792 1.523 . S
C792 C776 1.368 . S
C792 C788 1.368 . S
C792 C791 1.523 . S
H793 C768 0.950 . S
H794 C770 0.950 . S
H795 C771 0.949 . S
H796 C773 0.950 . S
H797 C775 0.950 . S
C798 C799 1.349 . S
C798 C800 1.327 . S
C798 H823 0.950 . S
C799 C798 1.349 . S
C799 C815 1.349 . S
C800 C798 1.327 . S
C800 C819 1.429 . S
C800 H824 0.950 . S
C801 C818 1.574 1_554 S
C801 C820 1.368 . S
C801 H825 0.949 . S
H802 C806 0.949 . S
C803 C804 1.349 . S
C803 C805 1.327 . S
C803 H826 0.950 . S
C804 C803 1.349 . S
C804 C816 1.349 . S
C805 C803 1.327 . S
C805 C821 1.429 . S
C805 H827 0.950 . S
C806 H802 0.949 . S
C806 C814 1.574 . S
C806 C822 1.368 . S
H807 C815 0.950 . S
H808 C813 0.950 . S
H809 C814 0.950 1_554 S
H810 C816 0.950 . S
H811 C817 0.950 . S
H812 C818 0.949 . S
C813 H808 0.950 . S
C813 C815 1.327 . S
C813 C819 1.429 . S
C814 C806 1.574 . S
C814 H809 0.950 1_556 S
C814 C820 1.368 1_556 S
C815 C799 1.349 . S
C815 H807 0.950 . S
C815 C813 1.327 . S
C816 C804 1.349 . S
C816 H810 0.950 . S
C816 C817 1.327 . S
C817 H811 0.950 . S
C817 C816 1.327 . S
C817 C821 1.429 . S
C818 C801 1.574 1_556 S
C818 H812 0.949 . S
C818 C822 1.368 . S
C819 C800 1.429 . S
C819 C813 1.429 . S
C819 C820 1.523 . S
C820 C801 1.368 . S
C820 C814 1.368 1_554 S
C820 C819 1.523 . S
C821 C805 1.429 . S
C821 C817 1.429 . S
C821 C822 1.523 . S
C822 C806 1.368 . S
C822 C818 1.368 . S
C822 C821 1.523 . S
H823 C798 0.950 . S
H824 C800 0.950 . S
H825 C801 0.949 . S
H826 C803 0.950 . S
H827 C805 0.950 . S
C828 C829 1.349 . S
C828 C830 1.327 . S
C828 H853 0.950 . S
C829 C828 1.349 . S
C829 C845 1.349 . S
C830 C828 1.327 . S
C830 C849 1.429 . S
C830 H854 0.950 . S
C831 C848 1.574 . S
C831 C850 1.368 . S
C831 H855 0.949 . S
H832 C836 0.949 . S
C833 C834 1.349 . S
C833 C835 1.327 . S
C833 H856 0.950 . S
C834 C833 1.349 . S
C834 C846 1.349 . S
C835 C833 1.327 . S
C835 C851 1.429 . S
C835 H857 0.950 . S
C836 H832 0.949 . S
C836 C844 1.574 . S
C836 C852 1.368 . S
H837 C845 0.950 . S
H838 C843 0.950 . S
H839 C844 0.949 . S
H840 C846 0.950 . S
H841 C847 0.950 . S
H842 C848 0.949 . S
C843 H838 0.950 . S
C843 C845 1.327 . S
C843 C849 1.429 . S
C844 C836 1.574 . S
C844 H839 0.949 . S
C844 C850 1.368 . S
C845 C829 1.349 . S
C845 H837 0.950 . S
C845 C843 1.327 . S
C846 C834 1.349 . S
C846 H840 0.950 . S
C846 C847 1.327 . S
C847 H841 0.950 . S
C847 C846 1.327 . S
C847 C851 1.429 . S
C848 C831 1.574 . S
C848 H842 0.949 . S
C848 C852 1.368 . S
C849 C830 1.429 . S
C849 C843 1.429 . S
C849 C850 1.523 . S
C850 C831 1.368 . S
C850 C844 1.368 . S
C850 C849 1.523 . S
C851 C835 1.429 . S
C851 C847 1.429 . S
C851 C852 1.523 . S
C852 C836 1.368 . S
C852 C848 1.368 . S
C852 C851 1.523 . S
H853 C828 0.950 . S
H854 C830 0.950 . S
H855 C831 0.949 . S
H856 C833 0.950 . S
H857 C835 0.950 . S
C858 C859 1.349 . S
C858 C860 1.327 . S
C858 H883 0.950 . S
C859 C858 1.349 . S
C859 C875 1.349 . S
C860 C858 1.327 . S
C860 C879 1.429 . S
C860 H884 0.950 . S
C861 C878 1.574 . S
C861 C880 1.368 . S
C861 H885 0.949 . S
H862 C866 0.949 . S
C863 C864 1.349 . S
C863 C865 1.327 . S
C863 H886 0.950 . S
C864 C863 1.349 . S
C864 C876 1.349 . S
C865 C863 1.327 . S
C865 C881 1.429 . S
C865 H887 0.950 . S
C866 H862 0.949 . S
C866 C874 1.574 . S
C866 C882 1.368 . S
H867 C875 0.950 . S
H868 C873 0.950 . S
H869 C874 0.949 . S
H870 C876 0.950 . S
H871 C877 0.950 . S
H872 C878 0.949 . S
C873 H868 0.950 . S
C873 C875 1.327 . S
C873 C879 1.429 . S
C874 C866 1.574 . S
C874 H869 0.949 . S
C874 C880 1.368 . S
C875 C859 1.349 . S
C875 H867 0.950 . S
C875 C873 1.327 . S
C876 C864 1.349 . S
C876 H870 0.950 . S
C876 C877 1.327 . S
C877 H871 0.950 . S
C877 C876 1.327 . S
C877 C881 1.429 . S
C878 C861 1.574 . S
C878 H872 0.949 . S
C878 C882 1.368 . S
C879 C860 1.429 . S
C879 C873 1.429 . S
C879 C880 1.523 . S
C880 C861 1.368 . S
C880 C874 1.368 . S
C880 C879 1.523 . S
C881 C865 1.429 . S
C881 C877 1.429 . S
C881 C882 1.523 . S
C882 C866 1.368 . S
C882 C878 1.368 . S
C882 C881 1.523 . S
H883 C858 0.950 . S
H884 C860 0.950 . S
H885 C861 0.949 . S
H886 C863 0.950 . S
H887 C865 0.950 . S
C888 C889 1.349 . S
C888 C890 1.327 . S
C888 H913 0.950 . S
C889 C888 1.349 . S
C889 C905 1.349 . S
C890 C888 1.327 . S
C890 C909 1.429 . S
C890 H914 0.950 . S
C891 C908 1.574 1_556 S
C891 C910 1.368 . S
C891 H915 0.949 . S
H892 C896 0.949 . S
C893 C894 1.349 . S
C893 C895 1.327 . S
C893 H916 0.950 . S
C894 C893 1.349 . S
C894 C906 1.349 . S
C895 C893 1.327 . S
C895 C911 1.429 . S
C895 H917 0.950 . S
C896 H892 0.949 . S
C896 C904 1.574 . S
C896 C912 1.368 . S
H897 C905 0.950 . S
H898 C903 0.950 . S
H899 C904 0.949 . S
H900 C906 0.950 . S
H901 C907 0.910 1_556 S
H902 C908 0.949 . S
C903 H898 0.950 . S
C903 C905 1.327 . S
C903 C909 1.429 . S
C904 C896 1.574 . S
C904 H899 0.949 . S
C904 C910 1.368 . S
C905 C889 1.349 . S
C905 H897 0.950 . S
C905 C903 1.327 . S
C906 C894 1.349 . S
C906 H900 0.950 . S
C906 C907 1.327 . S
C907 H901 0.910 1_554 S
C907 C906 1.327 . S
C907 C911 1.429 . S
C908 C891 1.574 1_554 S
C908 H902 0.949 . S
C908 C912 1.368 1_554 S
C909 C890 1.429 . S
C909 C903 1.429 . S
C909 C910 1.523 . S
C910 C891 1.368 . S
C910 C904 1.368 . S
C910 C909 1.523 . S
C911 C895 1.429 . S
C911 C907 1.429 . S
C911 C912 1.523 1_554 S
C912 C896 1.368 . S
C912 C908 1.368 1_556 S
C912 C911 1.523 1_556 S
H913 C888 0.950 . S
H914 C890 0.950 . S
H915 C891 0.949 . S
H916 C893 0.950 . S
H917 C895 0.950 . S
C918 C919 1.349 . S
C918 C920 1.327 . S
C918 H943 0.950 . S
C919 C918 1.349 . S
C919 C935 1.349 . S
C920 C918 1.327 . S
C920 C939 1.429 . S
C920 H944 0.950 . S
C921 C938 1.574 1_556 S
C921 C940 1.368 . S
C921 H945 0.949 . S
H922 C926 0.949 . S
C923 C924 1.349 . S
C923 C925 1.327 . S
C923 H946 0.950 . S
C924 C923 1.349 . S
C924 C936 1.349 . S
C925 C923 1.327 . S
C925 C941 1.429 . S
C925 H947 0.950 . S
C926 H922 0.949 . S
C926 C934 1.574 . S
C926 C942 1.368 . S
H927 C935 0.950 . S
H928 C933 0.950 . S
H929 C934 0.949 . S
H930 C936 0.950 . S
H931 C937 0.950 1_556 S
H932 C938 0.949 . S
C933 H928 0.950 . S
C933 C935 1.327 . S
C933 C939 1.429 . S
C934 C926 1.574 . S
C934 H929 0.949 . S
C934 C940 1.368 . S
C935 C919 1.349 . S
C935 H927 0.950 . S
C935 C933 1.327 . S
C936 C924 1.349 . S
C936 H930 0.950 . S
C936 C937 1.327 . S
C937 H931 0.950 1_554 S
C937 C936 1.327 . S
C937 C941 1.429 . S
C938 C921 1.574 1_554 S
C938 H932 0.949 . S
C938 C942 1.368 1_554 S
C939 C920 1.429 . S
C939 C933 1.429 . S
C939 C940 1.523 . S
C940 C921 1.368 . S
C940 C934 1.368 . S
C940 C939 1.523 . S
C941 C925 1.429 . S
C941 C937 1.429 . S
C941 C942 1.523 1_554 S
C942 C926 1.368 . S
C942 C938 1.368 1_556 S
C942 C941 1.523 1_556 S
H943 C918 0.950 . S
H944 C920 0.950 . S
H945 C921 0.949 . S
H946 C923 0.950 . S
H947 C925 0.950 . S
C948 C949 1.349 . S
C948 C950 1.327 . S
C948 H973 0.950 . S
C949 C948 1.349 . S
C949 C965 1.349 . S
C950 C948 1.327 . S
C950 C969 1.429 . S
C950 H974 0.950 . S
C951 C968 1.574 . S
C951 C970 1.368 . S
C951 H975 0.949 . S
H952 C956 0.949 . S
C953 C954 1.349 . S
C953 C955 1.327 . S
C953 H976 0.950 . S
C954 C953 1.349 . S
C954 C966 1.349 . S
C955 C953 1.327 . S
C955 C971 1.429 . S
C955 H977 0.950 . S
C956 H952 0.949 . S
C956 C964 1.574 . S
C956 C972 1.368 . S
H957 C965 0.950 . S
H958 C963 0.950 . S
H959 C964 0.949 . S
H960 C966 0.950 . S
H961 C967 0.950 . S
H962 C968 0.949 . S
C963 H958 0.950 . S
C963 C965 1.327 . S
C963 C969 1.429 . S
C964 C956 1.574 . S
C964 H959 0.949 . S
C964 C970 1.368 . S
C965 C949 1.349 . S
C965 H957 0.950 . S
C965 C963 1.327 . S
C966 C954 1.349 . S
C966 H960 0.950 . S
C966 C967 1.327 . S
C967 H961 0.950 . S
C967 C966 1.327 . S
C967 C971 1.429 . S
C968 C951 1.574 . S
C968 H962 0.949 . S
C968 C972 1.368 . S
C969 C950 1.429 . S
C969 C963 1.429 . S
C969 C970 1.523 . S
C970 C951 1.368 . S
C970 C964 1.368 . S
C970 C969 1.523 . S
C971 C955 1.429 . S
C971 C967 1.429 . S
C971 C972 1.523 . S
C972 C956 1.368 . S
C972 C968 1.368 . S
C972 C971 1.523 . S
H973 C948 0.950 . S
H974 C950 0.950 . S
H975 C951 0.949 . S
H976 C953 0.950 . S
H977 C955 0.950 . S
C978 C979 1.349 . S
C978 C980 1.327 . S
C978 H1003 0.950 . S
C979 C978 1.349 . S
C979 C995 1.349 . S
C980 C978 1.327 . S
C980 C999 1.429 . S
C980 H1004 0.950 . S
C981 C998 1.574 . S
C981 C1000 1.368 . S
C981 H1005 0.949 . S
H982 C986 0.949 . S
C983 C984 1.349 . S
C983 C985 1.327 . S
C983 H1006 0.950 . S
C984 C983 1.349 . S
C984 C996 1.349 . S
C985 C983 1.327 . S
C985 C1001 1.429 . S
C985 H1007 0.950 . S
C986 H982 0.949 . S
C986 C994 1.574 . S
C986 C1002 1.368 . S
H987 C995 0.950 . S
H988 C993 0.950 . S
H989 C994 0.949 . S
H990 C996 0.950 . S
H991 C997 0.950 . S
H992 C998 0.949 . S
C993 H988 0.950 . S
C993 C995 1.327 . S
C993 C999 1.429 . S
C994 C986 1.574 . S
C994 H989 0.949 . S
C994 C1000 1.368 . S
C995 C979 1.349 . S
C995 H987 0.950 . S
C995 C993 1.327 . S
C996 C984 1.349 . S
C996 H990 0.950 . S
C996 C997 1.327 . S
C997 H991 0.950 . S
C997 C996 1.327 . S
C997 C1001 1.429 . S
C998 C981 1.574 . S
C998 H992 0.949 . S
C998 C1002 1.368 . S
C999 C980 1.429 . S
C999 C993 1.429 . S
C999 C1000 1.523 . S
C1000 C981 1.368 . S
C1000 C994 1.368 . S
C1000 C999 1.523 . S
C1001 C985 1.429 . S
C1001 C997 1.429 . S
C1001 C1002 1.523 . S
C1002 C986 1.368 . S
C1002 C998 1.368 . S
C1002 C1001 1.523 . S
H1003 C978 0.950 . S
H1004 C980 0.950 . S
H1005 C981 0.949 . S
H1006 C983 0.950 . S
H1007 C985 0.950 . S
C1008 C1009 1.349 . S
C1008 C1010 1.327 . S
C1008 H1033 0.950 . S
C1009 C1008 1.349 . S
C1009 C1025 1.349 . S
C1010 C1008 1.327 . S
C1010 C1029 1.429 . S
C1010 H1034 0.950 . S
C1011 C1028 1.597 . S
C1011 C1030 1.349 1_565 S
C1011 H1035 0.945 1_565 S
H1012 C1016 0.949 . S
C1013 C1014 1.349 . S
C1013 C1015 1.327 . S
C1013 H1036 0.950 . S
C1014 C1013 1.349 . S
C1014 C1026 1.349 . S
C1015 C1013 1.327 . S
C1015 C1031 1.429 . S
C1015 H1037 0.950 . S
C1016 H1012 0.949 . S
C1016 C1024 1.574 1_565 S
C1016 C1032 1.368 . S
H1017 C1025 0.950 . S
H1018 C1023 0.950 . S
H1019 C1024 0.949 . S
H1020 C1026 0.950 . S
H1021 C1027 0.950 . S
H1022 C1028 0.949 . S
C1023 H1018 0.950 . S
C1023 C1025 1.327 . S
C1023 C1029 1.429 . S
C1024 C1016 1.574 1_545 S
C1024 H1019 0.949 . S
C1024 C1030 1.368 . S
C1025 C1009 1.349 . S
C1025 H1017 0.950 . S
C1025 C1023 1.327 . S
C1026 C1014 1.349 . S
C1026 H1020 0.950 . S
C1026 C1027 1.327 . S
C1027 H1021 0.950 . S
C1027 C1026 1.327 . S
C1027 C1031 1.429 . S
C1028 C1011 1.597 . S
C1028 H1022 0.949 . S
C1028 C1032 1.368 . S
C1029 C1010 1.429 . S
C1029 C1023 1.429 . S
C1029 C1030 1.523 . S
C1030 C1011 1.349 1_545 S
C1030 C1024 1.368 . S
C1030 C1029 1.523 . S
C1031 C1015 1.429 . S
C1031 C1027 1.429 . S
C1031 C1032 1.523 . S
C1032 C1016 1.368 . S
C1032 C1028 1.368 . S
C1032 C1031 1.523 . S
H1033 C1008 0.950 . S
H1034 C1010 0.950 . S
H1035 C1011 0.945 1_545 S
H1036 C1013 0.950 . S
H1037 C1015 0.950 . S
C1038 C1039 1.349 . S
C1038 C1040 1.327 . S
C1038 H1063 0.950 . S
C1039 C1038 1.349 . S
C1039 C1055 1.349 . S
C1040 C1038 1.327 . S
C1040 C1059 1.429 . S
C1040 H1064 0.950 . S
C1041 C1058 1.549 1_565 S
C1041 C1060 1.368 . S
C1041 H1065 0.949 . S
H1042 C1046 0.949 . S
C1043 C1044 1.349 . S
C1043 C1045 1.327 . S
C1043 H1066 0.950 . S
C1044 C1043 1.349 . S
C1044 C1056 1.349 . S
C1045 C1043 1.327 . S
C1045 C1061 1.429 . S
C1045 H1067 0.950 . S
C1046 H1042 0.949 . S
C1046 C1054 1.574 1_545 S
C1046 C1062 1.368 . S
H1047 C1055 0.950 . S
H1048 C1053 0.950 . S
H1049 C1054 0.949 . S
H1050 C1056 0.950 . S
H1051 C1057 0.950 . S
H1052 C1058 0.953 . S
C1053 H1048 0.950 . S
C1053 C1055 1.327 . S
C1053 C1059 1.429 . S
C1054 C1046 1.574 1_565 S
C1054 H1049 0.949 . S
C1054 C1060 1.368 . S
C1055 C1039 1.349 . S
C1055 H1047 0.950 . S
C1055 C1053 1.327 . S
C1056 C1044 1.349 . S
C1056 H1050 0.950 . S
C1056 C1057 1.327 . S
C1057 H1051 0.950 . S
C1057 C1056 1.327 . S
C1057 C1061 1.429 . S
C1058 C1041 1.549 1_545 S
C1058 H1052 0.953 . S
C1058 C1062 1.390 . S
C1059 C1040 1.429 . S
C1059 C1053 1.429 . S
C1059 C1060 1.523 . S
C1060 C1041 1.368 . S
C1060 C1054 1.368 . S
C1060 C1059 1.523 . S
C1061 C1045 1.429 . S
C1061 C1057 1.429 . S
C1061 C1062 1.523 . S
C1062 C1046 1.368 . S
C1062 C1058 1.390 . S
C1062 C1061 1.523 . S
H1063 C1038 0.950 . S
H1064 C1040 0.950 . S
H1065 C1041 0.949 . S
H1066 C1043 0.950 . S
H1067 C1045 0.950 . S
C1068 C1069 1.349 . S
C1068 C1070 1.327 . S
C1068 H1093 0.950 . S
C1069 C1068 1.349 . S
C1069 C1085 1.349 . S
C1070 C1068 1.327 . S
C1070 C1089 1.429 . S
C1070 H1094 0.950 . S
C1071 C1088 1.574 1_545 S
C1071 C1090 1.368 . S
C1071 H1095 0.949 . S
H1072 C1076 0.949 . S
C1073 C1074 1.349 . S
C1073 C1075 1.327 . S
C1073 H1096 0.950 . S
C1074 C1073 1.349 . S
C1074 C1086 1.349 . S
C1075 C1073 1.327 . S
C1075 C1091 1.429 . S
C1075 H1097 0.950 . S
C1076 H1072 0.949 . S
C1076 C1084 1.574 1_565 S
C1076 C1092 1.368 . S
H1077 C1085 0.950 . S
H1078 C1083 0.950 . S
H1079 C1084 0.949 . S
H1080 C1086 0.950 . S
H1081 C1087 0.950 . S
H1082 C1088 0.949 . S
C1083 H1078 0.950 . S
C1083 C1085 1.327 . S
C1083 C1089 1.429 . S
C1084 C1076 1.574 1_545 S
C1084 H1079 0.949 . S
C1084 C1090 1.368 . S
C1085 C1069 1.349 . S
C1085 H1077 0.950 . S
C1085 C1083 1.327 . S
C1086 C1074 1.349 . S
C1086 H1080 0.950 . S
C1086 C1087 1.327 . S
C1087 H1081 0.950 . S
C1087 C1086 1.327 . S
C1087 C1091 1.429 . S
C1088 C1071 1.574 1_565 S
C1088 H1082 0.949 . S
C1088 C1092 1.368 . S
C1089 C1070 1.429 . S
C1089 C1083 1.429 . S
C1089 C1090 1.523 . S
C1090 C1071 1.368 . S
C1090 C1084 1.368 . S
C1090 C1089 1.523 . S
C1091 C1075 1.429 . S
C1091 C1087 1.429 . S
C1091 C1092 1.523 . S
C1092 C1076 1.368 . S
C1092 C1088 1.368 . S
C1092 C1091 1.523 . S
H1093 C1068 0.950 . S
H1094 C1070 0.950 . S
H1095 C1071 0.949 . S
H1096 C1073 0.950 . S
H1097 C1075 0.950 . S
C1098 C1099 1.349 . S
C1098 C1100 1.327 . S
C1098 H1123 0.950 . S
C1099 C1098 1.349 . S
C1099 C1115 1.349 . S
C1100 C1098 1.327 . S
C1100 C1119 1.429 . S
C1100 H1124 0.950 . S
C1101 C1118 1.549 1_565 S
C1101 C1120 1.387 . S
C1101 H1125 0.955 . S
H1102 C1106 0.949 . S
C1103 C1104 1.349 . S
C1103 C1105 1.327 . S
C1103 H1126 0.950 . S
C1104 C1103 1.349 . S
C1104 C1116 1.349 . S
C1105 C1103 1.327 . S
C1105 C1121 1.429 . S
C1105 H1127 0.950 . S
C1106 H1102 0.949 . S
C1106 C1114 1.574 1_545 S
C1106 C1122 1.368 . S
H1107 C1115 0.950 . S
H1108 C1113 0.950 . S
H1109 C1114 0.949 . S
H1110 C1116 0.950 . S
H1111 C1117 0.950 . S
H1112 C1118 0.949 . S
C1113 H1108 0.950 . S
C1113 C1115 1.327 . S
C1113 C1119 1.429 . S
C1114 C1106 1.574 1_565 S
C1114 H1109 0.949 . S
C1114 C1120 1.368 . S
C1115 C1099 1.349 . S
C1115 H1107 0.950 . S
C1115 C1113 1.327 . S
C1116 C1104 1.349 . S
C1116 H1110 0.950 . S
C1116 C1117 1.327 . S
C1117 H1111 0.950 . S
C1117 C1116 1.327 . S
C1117 C1121 1.429 . S
C1118 C1101 1.549 1_545 S
C1118 H1112 0.949 . S
C1118 C1122 1.368 . S
C1119 C1100 1.429 . S
C1119 C1113 1.429 . S
C1119 C1120 1.523 . S
C1120 C1101 1.387 . S
C1120 C1114 1.368 . S
C1120 C1119 1.523 . S
C1121 C1105 1.429 . S
C1121 C1117 1.429 . S
C1121 C1122 1.523 . S
C1122 C1106 1.368 . S
C1122 C1118 1.368 . S
C1122 C1121 1.523 . S
H1123 C1098 0.950 . S
H1124 C1100 0.950 . S
H1125 C1101 0.955 . S
H1126 C1103 0.950 . S
H1127 C1105 0.950 . S
C1128 C1129 1.349 . S
C1128 C1130 1.327 . S
C1128 H1153 0.950 . S
C1129 C1128 1.349 . S
C1129 C1145 1.349 . S
C1130 C1128 1.327 . S
C1130 C1149 1.429 . S
C1130 H1154 0.950 . S
C1131 C1148 1.574 . S
C1131 C1150 1.368 . S
C1131 H1155 0.949 . S
H1132 C1136 0.949 . S
C1133 C1134 1.349 . S
C1133 C1135 1.327 . S
C1133 H1156 0.950 . S
C1134 C1133 1.349 . S
C1134 C1146 1.349 . S
C1135 C1133 1.327 . S
C1135 C1151 1.429 . S
C1135 H1157 0.950 . S
C1136 H1132 0.949 . S
C1136 C1144 1.574 . S
C1136 C1152 1.368 . S
H1137 C1145 0.950 . S
H1138 C1143 0.950 . S
H1139 C1144 0.949 . S
H1140 C1146 0.950 . S
H1141 C1147 0.950 . S
H1142 C1148 0.949 . S
C1143 H1138 0.950 . S
C1143 C1145 1.327 . S
C1143 C1149 1.429 . S
C1144 C1136 1.574 . S
C1144 H1139 0.949 . S
C1144 C1150 1.368 . S
C1145 C1129 1.349 . S
C1145 H1137 0.950 . S
C1145 C1143 1.327 . S
C1146 C1134 1.349 . S
C1146 H1140 0.950 . S
C1146 C1147 1.327 . S
C1147 H1141 0.950 . S
C1147 C1146 1.327 . S
C1147 C1151 1.429 . S
C1148 C1131 1.574 . S
C1148 H1142 0.949 . S
C1148 C1152 1.368 . S
C1149 C1130 1.429 . S
C1149 C1143 1.429 . S
C1149 C1150 1.523 . S
C1150 C1131 1.368 . S
C1150 C1144 1.368 . S
C1150 C1149 1.523 . S
C1151 C1135 1.429 . S
C1151 C1147 1.429 . S
C1151 C1152 1.523 . S
C1152 C1136 1.368 . S
C1152 C1148 1.368 . S
C1152 C1151 1.523 . S
H1153 C1128 0.950 . S
H1154 C1130 0.950 . S
H1155 C1131 0.949 . S
H1156 C1133 0.950 . S
H1157 C1135 0.950 . S
C1158 C1159 1.349 . S
C1158 C1160 1.327 . S
C1158 H1183 0.950 . S
C1159 C1158 1.349 . S
C1159 C1175 1.349 . S
C1160 C1158 1.327 . S
C1160 C1179 1.429 . S
C1160 H1184 0.950 . S
C1161 C1178 1.574 . S
C1161 C1180 1.368 . S
C1161 H1185 0.949 . S
H1162 C1166 0.949 . S
C1163 C1164 1.349 . S
C1163 C1165 1.327 . S
C1163 H1186 0.950 . S
C1164 C1163 1.349 . S
C1164 C1176 1.349 . S
C1165 C1163 1.327 . S
C1165 C1181 1.429 . S
C1165 H1187 0.950 . S
C1166 H1162 0.949 . S
C1166 C1174 1.574 . S
C1166 C1182 1.368 . S
H1167 C1175 0.950 . S
H1168 C1173 0.950 . S
H1169 C1174 0.949 . S
H1170 C1176 0.950 . S
H1171 C1177 0.950 . S
H1172 C1178 0.949 . S
C1173 H1168 0.950 . S
C1173 C1175 1.327 . S
C1173 C1179 1.429 . S
C1174 C1166 1.574 . S
C1174 H1169 0.949 . S
C1174 C1180 1.368 . S
C1175 C1159 1.349 . S
C1175 H1167 0.950 . S
C1175 C1173 1.327 . S
C1176 C1164 1.349 . S
C1176 H1170 0.950 . S
C1176 C1177 1.327 . S
C1177 H1171 0.950 . S
C1177 C1176 1.327 . S
C1177 C1181 1.429 . S
C1178 C1161 1.574 . S
C1178 H1172 0.949 . S
C1178 C1182 1.368 . S
C1179 C1160 1.429 . S
C1179 C1173 1.429 . S
C1179 C1180 1.523 . S
C1180 C1161 1.368 . S
C1180 C1174 1.368 . S
C1180 C1179 1.523 . S
C1181 C1165 1.429 . S
C1181 C1177 1.429 . S
C1181 C1182 1.523 . S
C1182 C1166 1.368 . S
C1182 C1178 1.368 . S
C1182 C1181 1.523 . S
H1183 C1158 0.950 . S
H1184 C1160 0.950 . S
H1185 C1161 0.949 . S
H1186 C1163 0.950 . S
H1187 C1165 0.950 . S
C1188 C1189 1.349 . S
C1188 C1190 1.327 . S
C1188 H1213 0.950 . S
C1189 C1188 1.349 . S
C1189 C1205 1.349 . S
C1190 C1188 1.327 . S
C1190 C1209 1.429 . S
C1190 H1214 0.950 . S
C1191 C1208 1.574 . S
C1191 C1210 1.368 . S
C1191 H1215 0.949 . S
H1192 C1196 0.949 . S
C1193 C1194 1.349 . S
C1193 C1195 1.327 . S
C1193 H1216 0.950 . S
C1194 C1193 1.349 . S
C1194 C1206 1.349 . S
C1195 C1193 1.327 . S
C1195 C1211 1.429 . S
C1195 H1217 0.950 . S
C1196 H1192 0.949 . S
C1196 C1204 1.574 . S
C1196 C1212 1.368 . S
H1197 C1205 0.950 . S
H1198 C1203 0.950 . S
H1199 C1204 0.949 . S
H1200 C1206 0.950 . S
H1201 C1207 0.950 . S
H1202 C1208 0.949 . S
C1203 H1198 0.950 . S
C1203 C1205 1.327 . S
C1203 C1209 1.429 . S
C1204 C1196 1.574 . S
C1204 H1199 0.949 . S
C1204 C1210 1.368 . S
C1205 C1189 1.349 . S
C1205 H1197 0.950 . S
C1205 C1203 1.327 . S
C1206 C1194 1.349 . S
C1206 H1200 0.950 . S
C1206 C1207 1.327 . S
C1207 H1201 0.950 . S
C1207 C1206 1.327 . S
C1207 C1211 1.429 . S
C1208 C1191 1.574 . S
C1208 H1202 0.949 . S
C1208 C1212 1.368 . S
C1209 C1190 1.429 . S
C1209 C1203 1.429 . S
C1209 C1210 1.523 . S
C1210 C1191 1.368 . S
C1210 C1204 1.368 . S
C1210 C1209 1.523 . S
C1211 C1195 1.429 . S
C1211 C1207 1.429 . S
C1211 C1212 1.523 . S
C1212 C1196 1.368 . S
C1212 C1208 1.368 . S
C1212 C1211 1.523 . S
H1213 C1188 0.950 . S
H1214 C1190 0.950 . S
H1215 C1191 0.949 . S
H1216 C1193 0.950 . S
H1217 C1195 0.950 . S
C1218 C1219 1.349 . S
C1218 C1220 1.327 . S
C1218 H1243 0.950 . S
C1219 C1218 1.349 . S
C1219 C1235 1.349 . S
C1220 C1218 1.327 . S
C1220 C1239 1.429 . S
C1220 H1244 0.950 . S
C1221 C1238 1.574 . S
C1221 C1240 1.368 . S
C1221 H1245 0.949 . S
H1222 C1226 0.949 . S
C1223 C1224 1.349 . S
C1223 C1225 1.327 . S
C1223 H1246 0.950 . S
C1224 C1223 1.349 . S
C1224 C1236 1.349 . S
C1225 C1223 1.327 . S
C1225 C1241 1.429 . S
C1225 H1247 0.950 . S
C1226 H1222 0.949 . S
C1226 C1234 1.574 . S
C1226 C1242 1.368 . S
H1227 C1235 0.950 . S
H1228 C1233 0.950 . S
H1229 C1234 0.949 . S
H1230 C1236 0.950 . S
H1231 C1237 0.950 . S
H1232 C1238 0.949 . S
C1233 H1228 0.950 . S
C1233 C1235 1.327 . S
C1233 C1239 1.429 . S
C1234 C1226 1.574 . S
C1234 H1229 0.949 . S
C1234 C1240 1.368 . S
C1235 C1219 1.349 . S
C1235 H1227 0.950 . S
C1235 C1233 1.327 . S
C1236 C1224 1.349 . S
C1236 H1230 0.950 . S
C1236 C1237 1.327 . S
C1237 H1231 0.950 . S
C1237 C1236 1.327 . S
C1237 C1241 1.429 . S
C1238 C1221 1.574 . S
C1238 H1232 0.949 . S
C1238 C1242 1.368 . S
C1239 C1220 1.429 . S
C1239 C1233 1.429 . S
C1239 C1240 1.523 . S
C1240 C1221 1.368 . S
C1240 C1234 1.368 . S
C1240 C1239 1.523 . S
C1241 C1225 1.429 . S
C1241 C1237 1.429 . S
C1241 C1242 1.523 . S
C1242 C1226 1.368 . S
C1242 C1238 1.368 . S
C1242 C1241 1.523 . S
H1243 C1218 0.950 . S
H1244 C1220 0.950 . S
H1245 C1221 0.949 . S
H1246 C1223 0.950 . S
H1247 C1225 0.950 . S
C1248 C1249 1.349 1_455 S
C1248 C1250 1.327 . S
C1248 H1273 0.950 . S
C1249 C1248 1.349 1_655 S
C1249 C1265 1.349 . S
C1250 C1248 1.327 . S
C1250 C1269 1.429 1_455 S
C1250 H1274 0.950 . S
C1251 C1268 1.574 . S
C1251 C1270 1.368 . S
C1251 H1275 0.949 . S
H1252 C1256 0.949 . S
C1253 C1254 1.349 1_655 S
C1253 C1255 1.327 . S
C1253 H1276 0.950 . S
C1254 C1253 1.349 1_455 S
C1254 C1266 1.349 . S
C1255 C1253 1.327 . S
C1255 C1271 1.429 1_655 S
C1255 H1277 0.950 . S
C1256 H1252 0.949 . S
C1256 C1264 1.574 . S
C1256 C1272 1.368 . S
H1257 C1265 0.950 . S
H1258 C1263 0.950 . S
H1259 C1264 0.949 . S
H1260 C1266 0.950 . S
H1261 C1267 0.950 . S
H1262 C1268 0.949 . S
C1263 H1258 0.950 . S
C1263 C1265 1.327 . S
C1263 C1269 1.429 . S
C1264 C1256 1.574 . S
C1264 H1259 0.949 . S
C1264 C1270 1.368 1_455 S
C1265 C1249 1.349 . S
C1265 H1257 0.950 . S
C1265 C1263 1.327 . S
C1266 C1254 1.349 . S
C1266 H1260 0.950 . S
C1266 C1267 1.327 . S
C1267 H1261 0.950 . S
C1267 C1266 1.327 . S
C1267 C1271 1.429 . S
C1268 C1251 1.574 . S
C1268 H1262 0.949 . S
C1268 C1272 1.368 1_655 S
C1269 C1250 1.429 1_655 S
C1269 C1263 1.429 . S
C1269 C1270 1.523 . S
C1270 C1251 1.368 . S
C1270 C1264 1.368 1_655 S
C1270 C1269 1.523 . S
C1271 C1255 1.429 1_455 S
C1271 C1267 1.429 . S
C1271 C1272 1.523 . S
C1272 C1256 1.368 . S
C1272 C1268 1.368 1_455 S
C1272 C1271 1.523 . S
H1273 C1248 0.950 . S
H1274 C1250 0.950 . S
H1275 C1251 0.949 . S
H1276 C1253 0.950 . S
H1277 C1255 0.950 . S
C1278 C1279 1.349 . S
C1278 C1280 1.327 . S
C1278 H1303 0.950 . S
C1279 C1278 1.349 . S
C1279 C1295 1.349 . S
C1280 C1278 1.327 . S
C1280 C1299 1.429 . S
C1280 H1304 0.950 . S
C1281 C1298 1.574 . S
C1281 C1300 1.368 . S
C1281 H1305 0.949 . S
H1282 C1286 0.949 . S
C1283 C1284 1.349 . S
C1283 C1285 1.327 . S
C1283 H1306 0.950 . S
C1284 C1283 1.349 . S
C1284 C1296 1.349 . S
C1285 C1283 1.327 . S
C1285 C1301 1.429 . S
C1285 H1307 0.950 . S
C1286 H1282 0.949 . S
C1286 C1294 1.574 . S
C1286 C1302 1.368 . S
H1287 C1295 0.950 . S
H1288 C1293 0.950 . S
H1289 C1294 0.949 . S
H1290 C1296 0.950 . S
H1291 C1297 0.950 . S
H1292 C1298 0.949 . S
C1293 H1288 0.950 . S
C1293 C1295 1.327 . S
C1293 C1299 1.429 . S
C1294 C1286 1.574 . S
C1294 H1289 0.949 . S
C1294 C1300 1.368 . S
C1295 C1279 1.349 . S
C1295 H1287 0.950 . S
C1295 C1293 1.327 . S
C1296 C1284 1.349 . S
C1296 H1290 0.950 . S
C1296 C1297 1.327 . S
C1297 H1291 0.950 . S
C1297 C1296 1.327 . S
C1297 C1301 1.429 . S
C1298 C1281 1.574 . S
C1298 H1292 0.949 . S
C1298 C1302 1.368 . S
C1299 C1280 1.429 . S
C1299 C1293 1.429 . S
C1299 C1300 1.523 . S
C1300 C1281 1.368 . S
C1300 C1294 1.368 . S
C1300 C1299 1.523 . S
C1301 C1285 1.429 . S
C1301 C1297 1.429 . S
C1301 C1302 1.523 . S
C1302 C1286 1.368 . S
C1302 C1298 1.368 . S
C1302 C1301 1.523 . S
H1303 C1278 0.950 . S
H1304 C1280 0.950 . S
H1305 C1281 0.949 . S
H1306 C1283 0.950 . S
H1307 C1285 0.950 . S
C1308 C1309 1.349 . S
C1308 C1310 1.327 . S
C1308 H1333 0.950 . S
C1309 C1308 1.349 . S
C1309 C1325 1.349 . S
C1310 C1308 1.327 . S
C1310 C1329 1.429 . S
C1310 H1334 0.950 . S
C1311 C1328 1.574 . S
C1311 C1330 1.368 . S
C1311 H1335 0.949 . S
H1312 C1316 0.949 . S
C1313 C1314 1.349 . S
C1313 C1315 1.327 . S
C1313 H1336 0.950 . S
C1314 C1313 1.349 . S
C1314 C1326 1.349 . S
C1315 C1313 1.327 . S
C1315 C1331 1.429 . S
C1315 H1337 0.950 . S
C1316 H1312 0.949 . S
C1316 C1324 1.574 . S
C1316 C1332 1.368 . S
H1317 C1325 0.950 . S
H1318 C1323 0.950 . S
H1319 C1324 0.949 . S
H1320 C1326 0.950 . S
H1321 C1327 0.950 . S
H1322 C1328 0.949 . S
C1323 H1318 0.950 . S
C1323 C1325 1.327 . S
C1323 C1329 1.429 . S
C1324 C1316 1.574 . S
C1324 H1319 0.949 . S
C1324 C1330 1.368 . S
C1325 C1309 1.349 . S
C1325 H1317 0.950 . S
C1325 C1323 1.327 . S
C1326 C1314 1.349 . S
C1326 H1320 0.950 . S
C1326 C1327 1.327 . S
C1327 H1321 0.950 . S
C1327 C1326 1.327 . S
C1327 C1331 1.429 . S
C1328 C1311 1.574 . S
C1328 H1322 0.949 . S
C1328 C1332 1.368 . S
C1329 C1310 1.429 . S
C1329 C1323 1.429 . S
C1329 C1330 1.523 . S
C1330 C1311 1.368 . S
C1330 C1324 1.368 . S
C1330 C1329 1.523 . S
C1331 C1315 1.429 . S
C1331 C1327 1.429 . S
C1331 C1332 1.523 . S
C1332 C1316 1.368 . S
C1332 C1328 1.368 . S
C1332 C1331 1.523 . S
H1333 C1308 0.950 . S
H1334 C1310 0.950 . S
H1335 C1311 0.949 . S
H1336 C1313 0.950 . S
H1337 C1315 0.950 . S
C1338 C1339 1.349 1_655 S
C1338 C1340 1.327 . S
C1338 H1363 0.950 . S
C1339 C1338 1.349 1_455 S
C1339 C1355 1.349 . S
C1340 C1338 1.327 . S
C1340 C1359 1.429 1_655 S
C1340 H1364 0.950 . S
C1341 C1358 1.574 . S
C1341 C1360 1.368 . S
C1341 H1365 0.949 . S
H1342 C1346 0.949 . S
C1343 C1344 1.349 1_455 S
C1343 C1345 1.327 . S
C1343 H1366 0.950 . S
C1344 C1343 1.349 1_655 S
C1344 C1356 1.349 . S
C1345 C1343 1.327 . S
C1345 C1361 1.429 1_455 S
C1345 H1367 0.950 . S
C1346 H1342 0.949 . S
C1346 C1354 1.574 . S
C1346 C1362 1.368 . S
H1347 C1355 0.950 . S
H1348 C1353 0.950 . S
H1349 C1354 0.949 . S
H1350 C1356 0.950 . S
H1351 C1357 0.950 . S
H1352 C1358 0.949 . S
C1353 H1348 0.950 . S
C1353 C1355 1.327 . S
C1353 C1359 1.429 . S
C1354 C1346 1.574 . S
C1354 H1349 0.949 . S
C1354 C1360 1.368 1_655 S
C1355 C1339 1.349 . S
C1355 H1347 0.950 . S
C1355 C1353 1.327 . S
C1356 C1344 1.349 . S
C1356 H1350 0.950 . S
C1356 C1357 1.327 . S
C1357 H1351 0.950 . S
C1357 C1356 1.327 . S
C1357 C1361 1.429 . S
C1358 C1341 1.574 . S
C1358 H1352 0.949 . S
C1358 C1362 1.368 1_455 S
C1359 C1340 1.429 1_455 S
C1359 C1353 1.429 . S
C1359 C1360 1.523 . S
C1360 C1341 1.368 . S
C1360 C1354 1.368 1_455 S
C1360 C1359 1.523 . S
C1361 C1345 1.429 1_655 S
C1361 C1357 1.429 . S
C1361 C1362 1.523 . S
C1362 C1346 1.368 . S
C1362 C1358 1.368 1_655 S
C1362 C1361 1.523 . S
H1363 C1338 0.950 . S
H1364 C1340 0.950 . S
H1365 C1341 0.949 . S
H1366 C1343 0.950 . S
H1367 C1345 0.950 . S
C1368 C1369 1.349 . S
C1368 C1370 1.327 . S
C1368 H1393 0.950 . S
C1369 C1368 1.349 . S
C1369 C1385 1.349 . S
C1370 C1368 1.327 . S
C1370 C1389 1.429 . S
C1370 H1394 0.950 1_655 S
C1371 C1388 1.574 . S
C1371 C1390 1.368 . S
C1371 H1395 0.949 . S
H1372 C1376 0.949 . S
C1373 C1374 1.349 . S
C1373 C1375 1.327 . S
C1373 H1396 0.950 . S
C1374 C1373 1.349 . S
C1374 C1386 1.349 . S
C1375 C1373 1.327 . S
C1375 C1391 1.429 . S
C1375 H1397 0.950 1_455 S
C1376 H1372 0.949 . S
C1376 C1384 1.574 . S
C1376 C1392 1.368 . S
H1377 C1385 0.950 . S
H1378 C1383 0.950 . S
H1379 C1384 0.949 . S
H1380 C1386 0.950 . S
H1381 C1387 0.950 . S
H1382 C1388 0.949 . S
C1383 H1378 0.950 . S
C1383 C1385 1.327 . S
C1383 C1389 1.429 . S
C1384 C1376 1.574 . S
C1384 H1379 0.949 . S
C1384 C1390 1.368 1_455 S
C1385 C1369 1.349 . S
C1385 H1377 0.950 . S
C1385 C1383 1.327 . S
C1386 C1374 1.349 . S
C1386 H1380 0.950 . S
C1386 C1387 1.327 . S
C1387 H1381 0.950 . S
C1387 C1386 1.327 . S
C1387 C1391 1.429 . S
C1388 C1371 1.574 . S
C1388 H1382 0.949 . S
C1388 C1392 1.368 1_655 S
C1389 C1370 1.429 . S
C1389 C1383 1.429 . S
C1389 C1390 1.523 . S
C1390 C1371 1.368 . S
C1390 C1384 1.368 1_655 S
C1390 C1389 1.523 . S
C1391 C1375 1.429 . S
C1391 C1387 1.429 . S
C1391 C1392 1.523 . S
C1392 C1376 1.368 . S
C1392 C1388 1.368 1_455 S
C1392 C1391 1.523 . S
H1393 C1368 0.950 . S
H1394 C1370 0.950 1_455 S
H1395 C1371 0.949 . S
H1396 C1373 0.950 . S
H1397 C1375 0.950 1_655 S
C1398 C1399 1.349 . S
C1398 C1400 1.327 . S
C1398 H1423 0.950 . S
C1399 C1398 1.349 . S
C1399 C1415 1.349 . S
C1400 C1398 1.327 . S
C1400 C1419 1.429 . S
C1400 H1424 0.950 . S
C1401 C1418 1.574 . S
C1401 C1420 1.368 . S
C1401 H1425 0.949 . S
H1402 C1406 0.949 . S
C1403 C1404 1.349 . S
C1403 C1405 1.327 . S
C1403 H1426 0.950 . S
C1404 C1403 1.349 . S
C1404 C1416 1.349 . S
C1405 C1403 1.327 . S
C1405 C1421 1.429 . S
C1405 H1427 0.950 . S
C1406 H1402 0.949 . S
C1406 C1414 1.574 . S
C1406 C1422 1.368 . S
H1407 C1415 0.950 . S
H1408 C1413 0.950 . S
H1409 C1414 0.949 . S
H1410 C1416 0.950 . S
H1411 C1417 0.950 . S
H1412 C1418 0.949 . S
C1413 H1408 0.950 . S
C1413 C1415 1.327 . S
C1413 C1419 1.429 . S
C1414 C1406 1.574 . S
C1414 H1409 0.949 . S
C1414 C1420 1.368 . S
C1415 C1399 1.349 . S
C1415 H1407 0.950 . S
C1415 C1413 1.327 . S
C1416 C1404 1.349 . S
C1416 H1410 0.950 . S
C1416 C1417 1.327 . S
C1417 H1411 0.950 . S
C1417 C1416 1.327 . S
C1417 C1421 1.429 . S
C1418 C1401 1.574 . S
C1418 H1412 0.949 . S
C1418 C1422 1.368 . S
C1419 C1400 1.429 . S
C1419 C1413 1.429 . S
C1419 C1420 1.523 . S
C1420 C1401 1.368 . S
C1420 C1414 1.368 . S
C1420 C1419 1.523 . S
C1421 C1405 1.429 . S
C1421 C1417 1.429 . S
C1421 C1422 1.523 . S
C1422 C1406 1.368 . S
C1422 C1418 1.368 . S
C1422 C1421 1.523 . S
H1423 C1398 0.950 . S
H1424 C1400 0.950 . S
H1425 C1401 0.949 . S
H1426 C1403 0.950 . S
H1427 C1405 0.950 . S
C1428 C1429 1.349 . S
C1428 C1430 1.327 . S
C1428 H1453 0.950 . S
C1429 C1428 1.349 . S
C1429 C1445 1.349 . S
C1430 C1428 1.327 . S
C1430 C1449 1.429 . S
C1430 H1454 0.950 . S
C1431 C1448 1.574 . S
C1431 C1450 1.368 . S
C1431 H1455 0.949 . S
H1432 C1436 0.949 . S
C1433 C1434 1.349 . S
C1433 C1435 1.327 . S
C1433 H1456 0.950 . S
C1434 C1433 1.349 . S
C1434 C1446 1.349 . S
C1435 C1433 1.327 . S
C1435 C1451 1.429 . S
C1435 H1457 0.950 . S
C1436 H1432 0.949 . S
C1436 C1444 1.574 . S
C1436 C1452 1.368 . S
H1437 C1445 0.950 . S
H1438 C1443 0.950 . S
H1439 C1444 0.949 . S
H1440 C1446 0.950 . S
H1441 C1447 0.950 . S
H1442 C1448 0.949 . S
C1443 H1438 0.950 . S
C1443 C1445 1.327 . S
C1443 C1449 1.429 . S
C1444 C1436 1.574 . S
C1444 H1439 0.949 . S
C1444 C1450 1.368 . S
C1445 C1429 1.349 . S
C1445 H1437 0.950 . S
C1445 C1443 1.327 . S
C1446 C1434 1.349 . S
C1446 H1440 0.950 . S
C1446 C1447 1.327 . S
C1447 H1441 0.950 . S
C1447 C1446 1.327 . S
C1447 C1451 1.429 . S
C1448 C1431 1.574 . S
C1448 H1442 0.949 . S
C1448 C1452 1.368 . S
C1449 C1430 1.429 . S
C1449 C1443 1.429 . S
C1449 C1450 1.523 . S
C1450 C1431 1.368 . S
C1450 C1444 1.368 . S
C1450 C1449 1.523 . S
C1451 C1435 1.429 . S
C1451 C1447 1.429 . S
C1451 C1452 1.523 . S
C1452 C1436 1.368 . S
C1452 C1448 1.368 . S
C1452 C1451 1.523 . S
H1453 C1428 0.950 . S
H1454 C1430 0.950 . S
H1455 C1431 0.949 . S
H1456 C1433 0.950 . S
H1457 C1435 0.950 . S
C1458 C1459 1.349 . S
C1458 C1460 1.327 . S
C1458 H1483 0.950 . S
C1459 C1458 1.349 . S
C1459 C1475 1.349 . S
C1460 C1458 1.327 . S
C1460 C1479 1.429 . S
C1460 H1484 0.950 1_655 S
C1461 C1478 1.574 . S
C1461 C1480 1.368 . S
C1461 H1485 0.949 . S
H1462 C1466 0.949 . S
C1463 C1464 1.349 . S
C1463 C1465 1.327 . S
C1463 H1486 0.950 . S
C1464 C1463 1.349 . S
C1464 C1476 1.349 . S
C1465 C1463 1.327 . S
C1465 C1481 1.429 . S
C1465 H1487 0.950 1_455 S
C1466 H1462 0.949 . S
C1466 C1474 1.574 . S
C1466 C1482 1.368 . S
H1467 C1475 0.950 . S
H1468 C1473 0.950 . S
H1469 C1474 0.949 . S
H1470 C1476 0.950 . S
H1471 C1477 0.950 . S
H1472 C1478 0.949 . S
C1473 H1468 0.950 . S
C1473 C1475 1.327 . S
C1473 C1479 1.429 . S
C1474 C1466 1.574 . S
C1474 H1469 0.949 . S
C1474 C1480 1.368 1_455 S
C1475 C1459 1.349 . S
C1475 H1467 0.950 . S
C1475 C1473 1.327 . S
C1476 C1464 1.349 . S
C1476 H1470 0.950 . S
C1476 C1477 1.327 . S
C1477 H1471 0.950 . S
C1477 C1476 1.327 . S
C1477 C1481 1.429 . S
C1478 C1461 1.574 . S
C1478 H1472 0.949 . S
C1478 C1482 1.368 1_655 S
C1479 C1460 1.429 . S
C1479 C1473 1.429 . S
C1479 C1480 1.523 . S
C1480 C1461 1.368 . S
C1480 C1474 1.368 1_655 S
C1480 C1479 1.523 . S
C1481 C1465 1.429 . S
C1481 C1477 1.429 . S
C1481 C1482 1.523 . S
C1482 C1466 1.368 . S
C1482 C1478 1.368 1_455 S
C1482 C1481 1.523 . S
H1483 C1458 0.950 . S
H1484 C1460 0.950 1_455 S
H1485 C1461 0.949 . S
H1486 C1463 0.950 . S
H1487 C1465 0.950 1_655 S
C1488 C1489 1.349 . S
C1488 C1490 1.327 . S
C1488 H1513 0.950 . S
C1489 C1488 1.349 . S
C1489 C1505 1.349 . S
C1490 C1488 1.327 . S
C1490 C1509 1.429 . S
C1490 H1514 0.950 1_455 S
C1491 C1508 1.574 . S
C1491 C1510 1.368 . S
C1491 H1515 0.949 . S
H1492 C1496 0.949 . S
C1493 C1494 1.349 . S
C1493 C1495 1.327 . S
C1493 H1516 0.950 . S
C1494 C1493 1.349 . S
C1494 C1506 1.349 . S
C1495 C1493 1.327 . S
C1495 C1511 1.429 . S
C1495 H1517 0.950 1_655 S
C1496 H1492 0.949 . S
C1496 C1504 1.574 . S
C1496 C1512 1.368 . S
H1497 C1505 0.950 . S
H1498 C1503 0.950 . S
H1499 C1504 0.949 . S
H1500 C1506 0.950 . S
H1501 C1507 0.950 . S
H1502 C1508 0.949 . S
C1503 H1498 0.950 . S
C1503 C1505 1.327 . S
C1503 C1509 1.429 . S
C1504 C1496 1.574 . S
C1504 H1499 0.949 . S
C1504 C1510 1.368 1_655 S
C1505 C1489 1.349 . S
C1505 H1497 0.950 . S
C1505 C1503 1.327 . S
C1506 C1494 1.349 . S
C1506 H1500 0.950 . S
C1506 C1507 1.327 . S
C1507 H1501 0.950 . S
C1507 C1506 1.327 . S
C1507 C1511 1.429 . S
C1508 C1491 1.574 . S
C1508 H1502 0.949 . S
C1508 C1512 1.368 1_455 S
C1509 C1490 1.429 . S
C1509 C1503 1.429 . S
C1509 C1510 1.523 . S
C1510 C1491 1.368 . S
C1510 C1504 1.368 1_455 S
C1510 C1509 1.523 . S
C1511 C1495 1.429 . S
C1511 C1507 1.429 . S
C1511 C1512 1.523 . S
C1512 C1496 1.368 . S
C1512 C1508 1.368 1_655 S
C1512 C1511 1.523 . S
H1513 C1488 0.950 . S
H1514 C1490 0.950 1_655 S
H1515 C1491 0.949 . S
H1516 C1493 0.950 . S
H1517 C1495 0.950 1_455 S
C1518 C1519 1.349 . S
C1518 C1520 1.327 . S
C1518 H1543 0.950 . S
C1519 C1518 1.349 . S
C1519 C1535 1.349 . S
C1520 C1518 1.327 . S
C1520 C1539 1.429 . S
C1520 H1544 0.950 . S
C1521 C1538 1.574 . S
C1521 C1540 1.368 . S
C1521 H1545 0.949 . S
H1522 C1526 0.949 . S
C1523 C1524 1.349 . S
C1523 C1525 1.327 . S
C1523 H1546 0.950 . S
C1524 C1523 1.349 . S
C1524 C1536 1.349 . S
C1525 C1523 1.327 . S
C1525 C1541 1.429 . S
C1525 H1547 0.950 . S
C1526 H1522 0.949 . S
C1526 C1534 1.574 . S
C1526 C1542 1.368 . S
H1527 C1535 0.950 . S
H1528 C1533 0.950 . S
H1529 C1534 0.949 . S
H1530 C1536 0.950 . S
H1531 C1537 0.950 . S
H1532 C1538 0.949 . S
C1533 H1528 0.950 . S
C1533 C1535 1.327 . S
C1533 C1539 1.429 . S
C1534 C1526 1.574 . S
C1534 H1529 0.949 . S
C1534 C1540 1.368 . S
C1535 C1519 1.349 . S
C1535 H1527 0.950 . S
C1535 C1533 1.327 . S
C1536 C1524 1.349 . S
C1536 H1530 0.950 . S
C1536 C1537 1.327 . S
C1537 H1531 0.950 . S
C1537 C1536 1.327 . S
C1537 C1541 1.429 . S
C1538 C1521 1.574 . S
C1538 H1532 0.949 . S
C1538 C1542 1.368 . S
C1539 C1520 1.429 . S
C1539 C1533 1.429 . S
C1539 C1540 1.523 . S
C1540 C1521 1.368 . S
C1540 C1534 1.368 . S
C1540 C1539 1.523 . S
C1541 C1525 1.429 . S
C1541 C1537 1.429 . S
C1541 C1542 1.523 . S
C1542 C1526 1.368 . S
C1542 C1538 1.368 . S
C1542 C1541 1.523 . S
H1543 C1518 0.950 . S
H1544 C1520 0.950 . S
H1545 C1521 0.949 . S
H1546 C1523 0.950 . S
H1547 C1525 0.950 . S
C1548 C1549 1.349 . S
C1548 C1550 1.327 . S
C1548 H1573 0.950 . S
C1549 C1548 1.349 . S
C1549 C1565 1.349 . S
C1550 C1548 1.327 . S
C1550 C1569 1.429 . S
C1550 H1574 0.950 . S
C1551 C1568 1.574 . S
C1551 C1570 1.368 1_455 S
C1551 H1575 0.949 . S
H1552 C1556 0.949 . S
C1553 C1554 1.349 . S
C1553 C1555 1.327 . S
C1553 H1576 0.950 . S
C1554 C1553 1.349 . S
C1554 C1566 1.349 . S
C1555 C1553 1.327 . S
C1555 C1571 1.429 . S
C1555 H1577 0.950 . S
C1556 H1552 0.949 . S
C1556 C1564 1.574 . S
C1556 C1572 1.368 1_655 S
H1557 C1565 0.950 . S
H1558 C1563 0.950 1_455 S
H1559 C1564 0.949 . S
H1560 C1566 0.950 . S
H1561 C1567 0.950 1_655 S
H1562 C1568 0.949 . S
C1563 H1558 0.950 1_655 S
C1563 C1565 1.327 . S
C1563 C1569 1.429 . S
C1564 C1556 1.574 . S
C1564 H1559 0.949 . S
C1564 C1570 1.368 . S
C1565 C1549 1.349 . S
C1565 H1557 0.950 . S
C1565 C1563 1.327 . S
C1566 C1554 1.349 . S
C1566 H1560 0.950 . S
C1566 C1567 1.327 . S
C1567 H1561 0.950 1_455 S
C1567 C1566 1.327 . S
C1567 C1571 1.429 . S
C1568 C1551 1.574 . S
C1568 H1562 0.949 . S
C1568 C1572 1.368 . S
C1569 C1550 1.429 . S
C1569 C1563 1.429 . S
C1569 C1570 1.523 . S
C1570 C1551 1.368 1_655 S
C1570 C1564 1.368 . S
C1570 C1569 1.523 . S
C1571 C1555 1.429 . S
C1571 C1567 1.429 . S
C1571 C1572 1.523 . S
C1572 C1556 1.368 1_455 S
C1572 C1568 1.368 . S
C1572 C1571 1.523 . S
H1573 C1548 0.950 . S
H1574 C1550 0.950 . S
H1575 C1551 0.949 . S
H1576 C1553 0.950 . S
H1577 C1555 0.950 . S
C1578 C1579 1.349 . S
C1578 C1580 1.327 . S
C1578 H1603 0.950 . S
C1579 C1578 1.349 . S
C1579 C1595 1.349 . S
C1580 C1578 1.327 . S
C1580 C1599 1.429 . S
C1580 H1604 0.950 . S
C1581 C1598 1.574 . S
C1581 C1600 1.368 . S
C1581 H1605 0.949 . S
H1582 C1586 0.949 . S
C1583 C1584 1.349 . S
C1583 C1585 1.327 . S
C1583 H1606 0.950 . S
C1584 C1583 1.349 . S
C1584 C1596 1.349 . S
C1585 C1583 1.327 . S
C1585 C1601 1.429 . S
C1585 H1607 0.950 . S
C1586 H1582 0.949 . S
C1586 C1594 1.574 . S
C1586 C1602 1.368 . S
H1587 C1595 0.950 . S
H1588 C1593 0.950 . S
H1589 C1594 0.949 . S
H1590 C1596 0.950 . S
H1591 C1597 0.950 . S
H1592 C1598 0.949 . S
C1593 H1588 0.950 . S
C1593 C1595 1.327 . S
C1593 C1599 1.429 . S
C1594 C1586 1.574 . S
C1594 H1589 0.949 . S
C1594 C1600 1.368 . S
C1595 C1579 1.349 . S
C1595 H1587 0.950 . S
C1595 C1593 1.327 . S
C1596 C1584 1.349 . S
C1596 H1590 0.950 . S
C1596 C1597 1.327 . S
C1597 H1591 0.950 . S
C1597 C1596 1.327 . S
C1597 C1601 1.429 . S
C1598 C1581 1.574 . S
C1598 H1592 0.949 . S
C1598 C1602 1.368 . S
C1599 C1580 1.429 . S
C1599 C1593 1.429 . S
C1599 C1600 1.523 . S
C1600 C1581 1.368 . S
C1600 C1594 1.368 . S
C1600 C1599 1.523 . S
C1601 C1585 1.429 . S
C1601 C1597 1.429 . S
C1601 C1602 1.523 . S
C1602 C1586 1.368 . S
C1602 C1598 1.368 . S
C1602 C1601 1.523 . S
H1603 C1578 0.950 . S
H1604 C1580 0.950 . S
H1605 C1581 0.949 . S
H1606 C1583 0.950 . S
H1607 C1585 0.950 . S
C1608 C1609 1.349 . S
C1608 C1610 1.327 . S
C1608 H1633 0.950 . S
C1609 C1608 1.349 . S
C1609 C1625 1.349 . S
C1610 C1608 1.327 . S
C1610 C1629 1.429 . S
C1610 H1634 0.950 . S
C1611 C1628 1.574 . S
C1611 C1630 1.368 . S
C1611 H1635 0.949 . S
H1612 C1616 0.949 . S
C1613 C1614 1.349 . S
C1613 C1615 1.327 . S
C1613 H1636 0.950 . S
C1614 C1613 1.349 . S
C1614 C1626 1.349 . S
C1615 C1613 1.327 . S
C1615 C1631 1.429 . S
C1615 H1637 0.950 . S
C1616 H1612 0.949 . S
C1616 C1624 1.574 . S
C1616 C1632 1.368 . S
H1617 C1625 0.950 . S
H1618 C1623 0.950 . S
H1619 C1624 0.949 . S
H1620 C1626 0.950 . S
H1621 C1627 0.950 . S
H1622 C1628 0.949 . S
C1623 H1618 0.950 . S
C1623 C1625 1.327 . S
C1623 C1629 1.429 . S
C1624 C1616 1.574 . S
C1624 H1619 0.949 . S
C1624 C1630 1.368 . S
C1625 C1609 1.349 . S
C1625 H1617 0.950 . S
C1625 C1623 1.327 . S
C1626 C1614 1.349 . S
C1626 H1620 0.950 . S
C1626 C1627 1.327 . S
C1627 H1621 0.950 . S
C1627 C1626 1.327 . S
C1627 C1631 1.429 . S
C1628 C1611 1.574 . S
C1628 H1622 0.949 . S
C1628 C1632 1.368 . S
C1629 C1610 1.429 . S
C1629 C1623 1.429 . S
C1629 C1630 1.523 . S
C1630 C1611 1.368 . S
C1630 C1624 1.368 . S
C1630 C1629 1.523 . S
C1631 C1615 1.429 . S
C1631 C1627 1.429 . S
C1631 C1632 1.523 . S
C1632 C1616 1.368 . S
C1632 C1628 1.368 . S
C1632 C1631 1.523 . S
H1633 C1608 0.950 . S
H1634 C1610 0.950 . S
H1635 C1611 0.949 . S
H1636 C1613 0.950 . S
H1637 C1615 0.950 . S
C1638 C1639 1.349 . S
C1638 C1640 1.327 . S
C1638 H1663 0.950 . S
C1639 C1638 1.349 . S
C1639 C1655 1.349 . S
C1640 C1638 1.327 . S
C1640 C1659 1.429 . S
C1640 H1664 0.950 . S
C1641 C1658 1.574 . S
C1641 C1660 1.368 1_655 S
C1641 H1665 0.949 . S
H1642 C1646 0.949 . S
C1643 C1644 1.349 . S
C1643 C1645 1.327 . S
C1643 H1666 0.950 . S
C1644 C1643 1.349 . S
C1644 C1656 1.349 . S
C1645 C1643 1.327 . S
C1645 C1661 1.429 . S
C1645 H1667 0.950 . S
C1646 H1642 0.949 . S
C1646 C1654 1.574 . S
C1646 C1662 1.368 1_455 S
H1647 C1655 0.950 . S
H1648 C1653 0.950 1_655 S
H1649 C1654 0.949 . S
H1650 C1656 0.950 . S
H1651 C1657 0.950 1_455 S
H1652 C1658 0.949 . S
C1653 H1648 0.950 1_455 S
C1653 C1655 1.327 . S
C1653 C1659 1.429 . S
C1654 C1646 1.574 . S
C1654 H1649 0.949 . S
C1654 C1660 1.368 . S
C1655 C1639 1.349 . S
C1655 H1647 0.950 . S
C1655 C1653 1.327 . S
C1656 C1644 1.349 . S
C1656 H1650 0.950 . S
C1656 C1657 1.327 . S
C1657 H1651 0.950 1_655 S
C1657 C1656 1.327 . S
C1657 C1661 1.429 . S
C1658 C1641 1.574 . S
C1658 H1652 0.949 . S
C1658 C1662 1.368 . S
C1659 C1640 1.429 . S
C1659 C1653 1.429 . S
C1659 C1660 1.523 . S
C1660 C1641 1.368 1_455 S
C1660 C1654 1.368 . S
C1660 C1659 1.523 . S
C1661 C1645 1.429 . S
C1661 C1657 1.429 . S
C1661 C1662 1.523 . S
C1662 C1646 1.368 1_655 S
C1662 C1658 1.368 . S
C1662 C1661 1.523 . S
H1663 C1638 0.950 . S
H1664 C1640 0.950 . S
H1665 C1641 0.949 . S
H1666 C1643 0.950 . S
H1667 C1645 0.950 . S
C1668 C1669 1.349 . S
C1668 C1670 1.327 . S
C1668 H1693 0.950 . S
C1669 C1668 1.349 . S
C1669 C1685 1.349 . S
C1670 C1668 1.327 . S
C1670 C1689 1.429 . S
C1670 H1694 0.950 . S
C1671 C1688 1.574 . S
C1671 C1690 1.368 . S
C1671 H1695 0.949 . S
H1672 C1676 0.949 . S
C1673 C1674 1.349 . S
C1673 C1675 1.327 . S
C1673 H1696 0.950 . S
C1674 C1673 1.349 . S
C1674 C1686 1.349 . S
C1675 C1673 1.327 . S
C1675 C1691 1.429 . S
C1675 H1697 0.950 . S
C1676 H1672 0.949 . S
C1676 C1684 1.574 . S
C1676 C1692 1.368 . S
H1677 C1685 0.950 . S
H1678 C1683 0.950 . S
H1679 C1684 0.949 . S
H1680 C1686 0.950 . S
H1681 C1687 0.950 . S
H1682 C1688 0.949 . S
C1683 H1678 0.950 . S
C1683 C1685 1.327 . S
C1683 C1689 1.429 . S
C1684 C1676 1.574 . S
C1684 H1679 0.949 . S
C1684 C1690 1.368 . S
C1685 C1669 1.349 . S
C1685 H1677 0.950 . S
C1685 C1683 1.327 . S
C1686 C1674 1.349 . S
C1686 H1680 0.950 . S
C1686 C1687 1.327 . S
C1687 H1681 0.950 . S
C1687 C1686 1.327 . S
C1687 C1691 1.429 . S
C1688 C1671 1.574 . S
C1688 H1682 0.949 . S
C1688 C1692 1.368 . S
C1689 C1670 1.429 . S
C1689 C1683 1.429 . S
C1689 C1690 1.523 . S
C1690 C1671 1.368 . S
C1690 C1684 1.368 . S
C1690 C1689 1.523 . S
C1691 C1675 1.429 . S
C1691 C1687 1.429 . S
C1691 C1692 1.523 . S
C1692 C1676 1.368 . S
C1692 C1688 1.368 . S
C1692 C1691 1.523 . S
H1693 C1668 0.950 . S
H1694 C1670 0.950 . S
H1695 C1671 0.949 . S
H1696 C1673 0.950 . S
H1697 C1675 0.950 . S
C1698 C1699 1.349 . S
C1698 C1700 1.327 . S
C1698 H1723 0.950 . S
C1699 C1698 1.349 . S
C1699 C1715 1.349 . S
C1700 C1698 1.327 . S
C1700 C1719 1.429 . S
C1700 H1724 0.932 1_455 S
C1701 C1718 1.574 . S
C1701 C1720 1.368 . S
C1701 H1725 0.949 . S
H1702 C1706 0.949 . S
C1703 C1704 1.349 . S
C1703 C1705 1.327 . S
C1703 H1726 0.950 . S
C1704 C1703 1.349 . S
C1704 C1716 1.349 . S
C1705 C1703 1.327 . S
C1705 C1721 1.429 . S
C1705 H1727 0.938 1_655 S
C1706 H1702 0.949 . S
C1706 C1714 1.574 . S
C1706 C1722 1.368 . S
H1707 C1715 0.950 . S
H1708 C1713 0.950 . S
H1709 C1714 0.949 . S
H1710 C1716 0.950 . S
H1711 C1717 0.950 . S
H1712 C1718 0.949 . S
C1713 H1708 0.950 . S
C1713 C1715 1.327 . S
C1713 C1719 1.429 . S
C1714 C1706 1.574 . S
C1714 H1709 0.949 . S
C1714 C1720 1.368 1_655 S
C1715 C1699 1.349 . S
C1715 H1707 0.950 . S
C1715 C1713 1.327 . S
C1716 C1704 1.349 . S
C1716 H1710 0.950 . S
C1716 C1717 1.327 . S
C1717 H1711 0.950 . S
C1717 C1716 1.327 . S
C1717 C1721 1.429 . S
C1718 C1701 1.574 . S
C1718 H1712 0.949 . S
C1718 C1722 1.368 1_455 S
C1719 C1700 1.429 . S
C1719 C1713 1.429 . S
C1719 C1720 1.523 . S
C1720 C1701 1.368 . S
C1720 C1714 1.368 1_455 S
C1720 C1719 1.523 . S
C1721 C1705 1.429 . S
C1721 C1717 1.429 . S
C1721 C1722 1.523 . S
C1722 C1706 1.368 . S
C1722 C1718 1.368 1_655 S
C1722 C1721 1.523 . S
H1723 C1698 0.950 . S
H1724 C1700 0.932 1_655 S
H1725 C1701 0.949 . S
H1726 C1703 0.950 . S
H1727 C1705 0.938 1_455 S
C529 C182 0.713 . S
C534 C28 0.712 . S
C559 C149 0.713 . S
C564 C61 0.713 . S
C589 C74 0.735 . S
C594 C248 0.735 . S
C619 C127 0.723 . S
C624 C215 0.723 . S
C649 C140 1.179 . S
C654 C41 1.191 . S
C679 C173 1.183 . S
C684 C8 1.195 . S
C709 C107 1.178 . S
C714 C206 1.167 . S
C739 C239 1.163 . S
C744 C94 1.173 . S
C769 C292 0.712 . S
C774 C446 0.713 . S
C799 C325 0.713 . S
C804 C413 0.713 . S
C829 C338 0.735 . S
C834 C512 0.735 . S
C859 C391 0.723 . S
C864 C479 0.723 . S
C889 C404 1.179 . S
C894 C305 1.191 . S
C919 C437 1.183 . S
C924 C272 1.195 . S
C949 C371 1.178 . S
C954 C470 1.167 . S
C979 C358 1.173 . S
C984 C503 1.163 . S
C1009 N5 1.665 . S
C1014 N38 1.667 . S
C1039 N80 1.688 . S
C1044 N104 1.687 . S
C1069 N179 1.794 . S
C1074 N146 1.795 . S
C1099 N245 1.767 . S
C1104 N212 1.768 . S
C1129 N302 1.667 . S
C1134 N269 1.665 . S
C1159 N368 1.687 . S
C1164 N344 1.688 . S
C1189 N410 1.795 . S
C1194 N443 1.794 . S
C1219 N476 1.768 . S
C1224 N509 1.767 . S
C1249 N311 1.781 . S
C1254 N14 1.780 . S
C1279 N47 1.781 . S
C1284 N278 1.780 . S
C1309 N71 1.795 . S
C1314 N377 1.789 . S
C1339 N335 1.795 . S
C1344 N113 1.789 . S
C1369 N137 1.317 . S
C1374 N434 1.317 . S
C1399 N170 1.317 . S
C1404 N401 1.317 . S
C1429 N203 1.373 . S
C1434 N500 1.372 . S
C1459 N467 1.373 . S
C1464 N236 1.372 . S
C1489 C17 1.519 . S
C1494 C116 1.518 . S
C1519 C50 1.521 . S
C1524 C83 1.513 . S
C1549 C160 1.517 . S
C1554 C259 1.517 . S
C1579 C193 1.517 . S
C1584 C226 1.517 . S
C1609 C380 1.518 . S
C1614 C281 1.519 . S
C1639 C347 1.513 . S
C1644 C314 1.521 . S
C1669 C424 1.517 . S
C1674 C523 1.517 . S
C1699 C457 1.517 . S
C1704 C490 1.517 . S
