# Generated by pormake.
# Topology wjs, (5)-cn, num edge types: 1
# Building blocks:
#     Node 0, Type 0, BuildingBlock: BEQFEK_clean_sbu_0, # of connection points: 5
#     Node 1, Type 0, BuildingBlock: BEQFEK_clean_sbu_0, # of connection points: 5
#     Node 2, Type 0, BuildingBlock: BEQFEK_clean_sbu_0, # of connection points: 5
#     Node 3, Type 0, BuildingBlock: BEQFEK_clean_sbu_0, # of connection points: 5
#     Node 4, Type 0, BuildingBlock: BEQFEK_clean_sbu_0, # of connection points: 5
#     Node 5, Type 0, BuildingBlock: BEQFEK_clean_sbu_0, # of connection points: 5
#     Node 6, Type 0, BuildingBlock: BEQFEK_clean_sbu_0, # of connection points: 5
#     Node 7, Type 0, BuildingBlock: BEQFEK_clean_sbu_0, # of connection points: 5
#     Node 8, Type 0, BuildingBlock: BEQFEK_clean_sbu_0, # of connection points: 5
#     Node 9, Type 0, BuildingBlock: BEQFEK_clean_sbu_0, # of connection points: 5
#     Node 10, Type 0, BuildingBlock: BEQFEK_clean_sbu_0, # of connection points: 5
#     Node 11, Type 0, BuildingBlock: BEQFEK_clean_sbu_0, # of connection points: 5
#     Edge 12, Type (0, 0), BuildingBlock: KIFKEQ_clean_linker_1, # of connection points: 2
#     Edge 13, Type (0, 0), BuildingBlock: KIFKEQ_clean_linker_1, # of connection points: 2
#     Edge 14, Type (0, 0), BuildingBlock: KIFKEQ_clean_linker_1, # of connection points: 2
#     Edge 15, Type (0, 0), BuildingBlock: KIFKEQ_clean_linker_1, # of connection points: 2
#     Edge 16, Type (0, 0), BuildingBlock: KIFKEQ_clean_linker_1, # of connection points: 2
#     Edge 17, Type (0, 0), BuildingBlock: KIFKEQ_clean_linker_1, # of connection points: 2
#     Edge 18, Type (0, 0), BuildingBlock: KIFKEQ_clean_linker_1, # of connection points: 2
#     Edge 19, Type (0, 0), BuildingBlock: KIFKEQ_clean_linker_1, # of connection points: 2
#     Edge 20, Type (0, 0), BuildingBlock: KIFKEQ_clean_linker_1, # of connection points: 2
#     Edge 21, Type (0, 0), BuildingBlock: KIFKEQ_clean_linker_1, # of connection points: 2
#     Edge 22, Type (0, 0), BuildingBlock: KIFKEQ_clean_linker_1, # of connection points: 2
#     Edge 23, Type (0, 0), BuildingBlock: KIFKEQ_clean_linker_1, # of connection points: 2
#     Edge 24, Type (0, 0), BuildingBlock: KIFKEQ_clean_linker_1, # of connection points: 2
#     Edge 25, Type (0, 0), BuildingBlock: KIFKEQ_clean_linker_1, # of connection points: 2
#     Edge 26, Type (0, 0), BuildingBlock: KIFKEQ_clean_linker_1, # of connection points: 2
#     Edge 27, Type (0, 0), BuildingBlock: KIFKEQ_clean_linker_1, # of connection points: 2
#     Edge 28, Type (0, 0), BuildingBlock: KIFKEQ_clean_linker_1, # of connection points: 2
#     Edge 29, Type (0, 0), BuildingBlock: KIFKEQ_clean_linker_1, # of connection points: 2
#     Edge 30, Type (0, 0), BuildingBlock: KIFKEQ_clean_linker_1, # of connection points: 2
#     Edge 31, Type (0, 0), BuildingBlock: KIFKEQ_clean_linker_1, # of connection points: 2
#     Edge 32, Type (0, 0), BuildingBlock: KIFKEQ_clean_linker_1, # of connection points: 2
#     Edge 33, Type (0, 0), BuildingBlock: KIFKEQ_clean_linker_1, # of connection points: 2
#     Edge 34, Type (0, 0), BuildingBlock: KIFKEQ_clean_linker_1, # of connection points: 2
#     Edge 35, Type (0, 0), BuildingBlock: KIFKEQ_clean_linker_1, # of connection points: 2
#     Edge 36, Type (0, 0), BuildingBlock: KIFKEQ_clean_linker_1, # of connection points: 2
#     Edge 37, Type (0, 0), BuildingBlock: KIFKEQ_clean_linker_1, # of connection points: 2
#     Edge 38, Type (0, 0), BuildingBlock: KIFKEQ_clean_linker_1, # of connection points: 2
#     Edge 39, Type (0, 0), BuildingBlock: KIFKEQ_clean_linker_1, # of connection points: 2
#     Edge 40, Type (0, 0), BuildingBlock: KIFKEQ_clean_linker_1, # of connection points: 2
#     Edge 41, Type (0, 0), BuildingBlock: KIFKEQ_clean_linker_1, # of connection points: 2
# Relax obj value: 0.266
# Max RMSD: 0.222
# Mean RMSD: 0.222
data_MOF--net-wjs--node1-BEQFEK_clean_sbu_0--edge1-KIFKEQ_clean_linker_1
_symmetry_space_group_name_H-M    P1
_symmetry_Int_Tables_number       1
_symmetry_cell_setting            triclinic
loop_
_symmetry_equiv_pos_as_xyz
'x, y, z'
_cell_length_a     30.560174
_cell_length_b     30.534997
_cell_length_c     76.984761
_cell_angle_alpha  89.999138
_cell_angle_beta   90.032608
_cell_angle_gamma 119.93155
loop_
_atom_site_label
_atom_site_type_symbol
_atom_site_fract_x
_atom_site_fract_y
_atom_site_fract_z
_atom_type_partial_charge
Co0 Co 0.22491 0.31384 0.01867 0.0
Co1 Co 0.20629 0.39962 0.00457 0.0
C2 C 0.20841 0.32169 0.98106 0.0
O3 O 0.21436 0.2981 0.99365 0.0
O4 O 0.20489 0.3611 0.98352 0.0
C5 C 0.20391 0.21379 0.02838 0.0
O6 O 0.16943 0.19802 0.01611 0.0
C7 C 0.14076 0.43333 0.98936 0.0
C8 C 0.17388 0.51125 -0.00061 0.0
C9 C 0.1333 0.47451 0.99006 0.0
N10 N 0.18343 0.44503 0.99803 0.0
N11 N 0.20363 0.49203 0.00369 0.0
C12 C 0.10487 0.38163 0.98258 0.0
H13 H 0.11215 0.35304 0.98876 0.0
H14 H 0.0652 0.37191 0.98496 0.0
H15 H 0.1103 0.38101 0.96835 0.0
C16 C 0.14003 0.29562 0.04154 0.0
N17 N 0.17195 0.32039 0.02839 0.0
N18 N 0.16391 0.35652 0.02279 0.0
C19 C 0.12628 0.35563 0.03233 0.0
C20 C 0.10988 0.31678 0.04433 0.0
C21 C 0.13901 0.25311 0.05157 0.0
H22 H 0.17763 0.26416 0.05607 0.0
H23 H 0.1252 0.21968 0.04299 0.0
H24 H 0.11353 0.24216 0.06297 0.0
O25 O 0.2898 0.37678 0.02168 0.0
O26 O 0.27859 0.43897 0.01188 0.0
H27 H 0.14195 0.43206 0.02993 0.0
H28 H 0.08661 0.39192 0.04271 0.0
C29 C 0.10896 0.39351 0.03112 0.0
H30 H 0.08474 0.38532 0.01949 0.0
H31 H 0.23624 0.50999 0.01128 0.0
O32 O 0.23163 0.26089 0.03104 0.0
C33 C 0.30668 0.42337 0.01846 0.0
Co34 Co 0.89471 0.21086 0.1858 0.0
Co35 Co 0.79607 0.19789 0.1684 0.0
C36 C 0.8825 0.20151 0.14776 0.0
O37 O 0.90783 0.20488 0.16133 0.0
O38 O 0.83942 0.19858 0.14872 0.0
C39 C 0.9843 0.20687 0.19605 0.0
O40 O 0.988 0.19698 0.17969 0.0
C41 C 0.6991 0.13239 0.15143 0.0
C42 C 0.65735 0.1729 0.15627 0.0
C43 C 0.65209 0.12855 0.14934 0.0
N44 N 0.72996 0.17625 0.15954 0.0
N45 N 0.70496 0.20057 0.16221 0.0
C46 C 0.71528 0.09589 0.14553 0.0
H47 H 0.70763 0.0678 0.1559 0.0
H48 H 0.69435 0.07559 0.13366 0.0
H49 H 0.75637 0.11592 0.14288 0.0
C50 C 0.82194 0.12078 0.2047 0.0
N51 N 0.8327 0.15652 0.19263 0.0
N52 N 0.79062 0.15274 0.18668 0.0
C53 C 0.75148 0.11542 0.1955 0.0
C54 C 0.77019 0.09333 0.20685 0.0
C55 C 0.86093 0.11628 0.2151 0.0
H56 H 0.88862 0.11468 0.2062 0.0
H57 H 0.84392 0.08221 0.22349 0.0
H58 H 0.88144 0.15021 0.22345 0.0
O59 O 0.89673 0.27587 0.18896 0.0
O60 O 0.82799 0.26946 0.17663 0.0
H61 H 0.69625 0.13831 0.19126 0.0
H62 H 0.67714 0.08681 0.2065 0.0
C63 C 0.69779 0.1036 0.19423 0.0
H64 H 0.67845 0.07566 0.18373 0.0
H65 H 0.71989 0.23528 0.16857 0.0
O66 O 0.94851 0.21394 0.20077 0.0
C67 C 0.86968 0.29512 0.18473 0.0
Co68 Co 0.67916 0.90431 0.35377 0.0
Co69 Co 0.59588 0.80272 0.3374 0.0
C70 C 0.67359 0.88946 0.31573 0.0
O71 O 0.69528 0.91614 0.32905 0.0
O72 O 0.63556 0.84516 0.31717 0.0
C73 C 0.77777 0.98225 0.36385 0.0
O74 O 0.79312 0.96431 0.35119 0.0
C75 C 0.57051 0.70647 0.32118 0.0
C76 C 0.48804 0.66102 0.3249 0.0
C77 C 0.52933 0.65846 0.31868 0.0
N78 N 0.55443 0.73551 0.32885 0.0
N79 N 0.50499 0.70827 0.33087 0.0
C80 C 0.62419 0.72516 0.31596 0.0
H81 H 0.64398 0.7664 0.31354 0.0
H82 H 0.6444 0.71811 0.32657 0.0
H83 H 0.62581 0.70521 0.30413 0.0
C84 C 0.6997 0.83475 0.37415 0.0
N85 N 0.67474 0.84388 0.36154 0.0
N86 N 0.63762 0.80073 0.35571 0.0
C87 C 0.6369 0.76268 0.36497 0.0
C88 C 0.67707 0.78313 0.37655 0.0
C89 C 0.74076 0.87464 0.38511 0.0
H90 H 0.72896 0.90142 0.38988 0.0
H91 H 0.77528 0.89567 0.37713 0.0
H92 H 0.74994 0.85832 0.39646 0.0
O93 O 0.61496 0.90318 0.35752 0.0
O94 O 0.55395 0.83263 0.34558 0.0
H95 H 0.55958 0.70545 0.3607 0.0
H96 H 0.59258 0.68868 0.37645 0.0
C97 C 0.59625 0.70838 0.36398 0.0
H98 H 0.60594 0.6889 0.35385 0.0
H99 H 0.48303 0.72154 0.33673 0.0
O100 O 0.73087 0.96238 0.36691 0.0
C101 C 0.56874 0.87437 0.35358 0.0
Co102 Co 0.77116 0.6781 0.523 0.0
Co103 Co 0.79651 0.60218 0.50424 0.0
C104 C 0.78513 0.67926 0.48421 0.0
O105 O 0.77579 0.69566 0.49812 0.0
O106 O 0.79573 0.64384 0.48453 0.0
C107 C 0.7957 0.77643 0.53476 0.0
O108 O 0.83111 0.7914 0.52286 0.0
C109 C 0.85993 0.57033 0.48558 0.0
C110 C 0.83145 0.49323 0.49583 0.0
C111 C 0.8685 0.52969 0.4853 0.0
N112 N 0.82047 0.55869 0.49612 0.0
N113 N 0.80319 0.51228 0.50199 0.0
C114 C 0.88691 0.61868 0.47553 0.0
H115 H 0.89883 0.65138 0.48438 0.0
H116 H 0.91983 0.62206 0.46832 0.0
H117 H 0.86018 0.61989 0.46605 0.0
C118 C 0.86043 0.69844 0.54361 0.0
N119 N 0.82731 0.67393 0.53074 0.0
N120 N 0.83974 0.64355 0.52278 0.0
C121 C 0.88238 0.64896 0.53022 0.0
C122 C 0.89713 0.68461 0.54345 0.0
C123 C 0.85458 0.73067 0.55704 0.0
H124 H 0.8141 0.7164 0.55976 0.0
H125 H 0.87237 0.77013 0.55228 0.0
H126 H 0.87339 0.73071 0.56938 0.0
O127 O 0.70931 0.61382 0.52629 0.0
O128 O 0.7235 0.55929 0.51169 0.0
H129 H 0.88252 0.58054 0.52425 0.0
H130 H 0.94139 0.62961 0.53319 0.0
C131 C 0.90932 0.62178 0.52454 0.0
H132 H 0.92453 0.6343 0.5113 0.0
H133 H 0.77322 0.49429 0.51072 0.0
O134 O 0.76484 0.72951 0.53654 0.0
C135 C 0.69439 0.56955 0.52057 0.0
Co136 Co 0.10005 0.78691 0.68362 0.0
Co137 Co 0.20185 0.80146 0.66872 0.0
C138 C 0.12003 0.80165 0.6462 0.0
O139 O 0.0916 0.79737 0.65894 0.0
O140 O 0.16225 0.80353 0.64847 0.0
C141 C 0.01076 0.79278 0.69344 0.0
O142 O 0.01103 0.80916 0.67764 0.0
C143 C 0.30095 0.87009 0.65416 0.0
C144 C 0.33731 0.82323 0.6532 0.0
C145 C 0.34514 0.87105 0.64956 0.0
N146 N 0.26841 0.82392 0.66038 0.0
N147 N 0.29025 0.79593 0.65969 0.0
C148 C 0.28864 0.91136 0.65167 0.0
H149 H 0.25006 0.89956 0.65643 0.0
H150 H 0.31653 0.94598 0.6586 0.0
H151 H 0.2913 0.92087 0.63765 0.0
C152 C 0.16928 0.87269 0.70522 0.0
N153 N 0.16086 0.83938 0.69245 0.0
N154 N 0.20402 0.84389 0.68739 0.0
C155 C 0.24134 0.87945 0.69736 0.0
C156 C 0.22041 0.89932 0.70867 0.0
C157 C 0.12874 0.87696 0.71464 0.0
H158 H 0.10327 0.88012 0.70509 0.0
H159 H 0.14471 0.91029 0.72339 0.0
H160 H 0.10616 0.84232 0.72248 0.0
O161 O 0.09693 0.721 0.68591 0.0
O162 O 0.16868 0.72907 0.67576 0.0
H163 H 0.29761 0.85815 0.6925 0.0
H164 H 0.31115 0.90081 0.71065 0.0
C165 C 0.29499 0.89094 0.69735 0.0
H166 H 0.31775 0.92404 0.6889 0.0
H167 H 0.27315 0.75834 0.66372 0.0
O168 O 0.04395 0.78148 0.69781 0.0
C169 C 0.12494 0.70228 0.68241 0.0
Co170 Co 0.32511 0.09754 0.85412 0.0
Co171 Co 0.40217 0.2003 0.83673 0.0
C172 C 0.32501 0.11377 0.81574 0.0
O173 O 0.307 0.08688 0.82931 0.0
O174 O 0.36172 0.15897 0.81662 0.0
C175 C 0.22699 0.02148 0.86463 0.0
O176 O 0.2123 0.04326 0.85312 0.0
C177 C 0.43041 0.29509 0.81871 0.0
C178 C 0.50844 0.34498 0.82788 0.0
C179 C 0.47019 0.34454 0.81804 0.0
N180 N 0.44419 0.26803 0.8288 0.0
N181 N 0.49112 0.29789 0.83404 0.0
C182 C 0.38066 0.27282 0.8095 0.0
H183 H 0.34948 0.25065 0.81875 0.0
H184 H 0.37496 0.30197 0.80301 0.0
H185 H 0.37928 0.24605 0.79948 0.0
C186 C 0.3041 0.16445 0.87572 0.0
N187 N 0.32891 0.15696 0.86268 0.0
N188 N 0.36009 0.20053 0.85535 0.0
C189 C 0.35519 0.23726 0.86345 0.0
C190 C 0.31895 0.21525 0.87644 0.0
C191 C 0.27046 0.12466 0.88844 0.0
H192 H 0.28446 0.09804 0.89089 0.0
H193 H 0.23163 0.10362 0.88308 0.0
H194 H 0.26898 0.14164 0.90101 0.0
O195 O 0.38957 0.09963 0.85706 0.0
O196 O 0.44564 0.1708 0.84407 0.0
H197 H 0.4245 0.30541 0.8581 0.0
H198 H 0.37658 0.31577 0.86778 0.0
C199 C 0.38349 0.29202 0.85858 0.0
H200 H 0.37107 0.29681 0.84558 0.0
H201 H 0.51071 0.28654 0.8423 0.0
O202 O 0.27385 0.03826 0.86689 0.0
C203 C 0.43448 0.12996 0.85216 0.0
Co204 Co 0.67395 0.77293 0.79504 0.0
Co205 Co 0.59718 0.79655 0.81399 0.0
C206 C 0.67472 0.78442 0.83378 0.0
O207 O 0.69143 0.77594 0.81978 0.0
O208 O 0.63904 0.79471 0.83361 0.0
C209 C 0.77007 0.78506 0.78448 0.0
O210 O 0.78714 0.80941 0.79923 0.0
C211 C 0.56597 0.86155 0.83195 0.0
C212 C 0.48992 0.83357 0.82086 0.0
C213 C 0.52651 0.87176 0.83105 0.0
N214 N 0.55361 0.82007 0.82235 0.0
N215 N 0.50751 0.80274 0.81619 0.0
C216 C 0.617 0.89408 0.83983 0.0
H217 H 0.61521 0.88497 0.85386 0.0
H218 H 0.64542 0.88674 0.83358 0.0
H219 H 0.62871 0.9347 0.83863 0.0
C220 C 0.69782 0.86538 0.77611 0.0
N221 N 0.67097 0.83019 0.78814 0.0
N222 N 0.63867 0.84085 0.7956 0.0
C223 C 0.64412 0.88373 0.78831 0.0
C224 C 0.68242 0.90094 0.77599 0.0
C225 C 0.73536 0.86322 0.76415 0.0
H226 H 0.71947 0.82454 0.7588 0.0
H227 H 0.77015 0.8727 0.77153 0.0
H228 H 0.74532 0.8899 0.75312 0.0
O229 O 0.60943 0.71149 0.79139 0.0
O230 O 0.55415 0.72409 0.80609 0.0
H231 H 0.57394 0.88012 0.79432 0.0
H232 H 0.61897 0.93779 0.78369 0.0
C233 C 0.61448 0.90873 0.79324 0.0
H234 H 0.62817 0.92788 0.8059 0.0
H235 H 0.48951 0.77195 0.80778 0.0
O236 O 0.72366 0.76617 0.78072 0.0
C237 C 0.56493 0.69582 0.79696 0.0
Co238 Co 0.90746 0.68084 0.96318 0.0
Co239 Co 0.80575 0.59994 0.98005 0.0
C240 C 0.88993 0.67912 0.00146 0.0
O241 O 0.91717 0.69794 0.988 0.0
O242 O 0.84514 0.64167 0.00035 0.0
C243 C 0.98435 0.77991 0.9529 0.0
O244 O 0.96483 0.79531 0.96501 0.0
C245 C 0.70777 0.56581 0.9965 0.0
C246 C 0.66316 0.48791 0.98645 0.0
C247 C 0.65939 0.52437 0.996 0.0
N248 N 0.73851 0.55454 0.98746 0.0
N249 N 0.71187 0.50751 0.98184 0.0
C250 C 0.72331 0.61732 0.00344 0.0
H251 H 0.75837 0.64627 0.99699 0.0
H252 H 0.69275 0.6265 0.00156 0.0
H253 H 0.73063 0.61796 0.01758 0.0
C254 C 0.83837 0.69966 0.9418 0.0
N255 N 0.84715 0.67525 0.9547 0.0
N256 N 0.80384 0.64042 0.96126 0.0
C257 C 0.76597 0.64133 0.95242 0.0
C258 C 0.78686 0.67954 0.94011 0.0
C259 C 0.87818 0.73848 0.93021 0.0
H260 H 0.89857 0.77483 0.93731 0.0
H261 H 0.86169 0.74464 0.91825 0.0
H262 H 0.90546 0.72629 0.92643 0.0
O263 O 0.90831 0.61746 0.96017 0.0
O264 O 0.83823 0.55954 0.97313 0.0
H265 H 0.68781 0.60742 0.94441 0.0
H266 H 0.69878 0.61592 0.96736 0.0
C267 C 0.71088 0.60564 0.95522 0.0
H268 H 0.70383 0.5665 0.9564 0.0
H269 H 0.72632 0.48986 0.97398 0.0
O270 O 0.96583 0.73289 0.95029 0.0
C271 C 0.87949 0.57225 0.96517 0.0
Co272 Co 0.20908 0.9015 0.13481 0.0
Co273 Co 0.196 0.79929 0.149 0.0
C274 C 0.2 0.88166 0.17235 0.0
O275 O 0.20197 0.90971 0.15979 0.0
O276 O 0.19814 0.83953 0.16976 0.0
C277 C 0.18999 0.9819 0.12368 0.0
O278 O 0.15583 0.96676 0.13603 0.0
C279 C 0.12902 0.70056 0.16454 0.0
C280 C 0.16873 0.65834 0.1591 0.0
C281 C 0.1246 0.65317 0.16615 0.0
N282 N 0.17305 0.73168 0.1566 0.0
N283 N 0.19684 0.70634 0.15354 0.0
C284 C 0.09293 0.71684 0.1708 0.0
H285 H 0.06431 0.70916 0.16063 0.0
H286 H 0.07321 0.69582 0.18273 0.0
H287 H 0.11306 0.75797 0.17346 0.0
C288 C 0.12034 0.83169 0.11391 0.0
N289 N 0.15501 0.84077 0.12629 0.0
N290 N 0.1512 0.79775 0.13125 0.0
C291 C 0.1148 0.75999 0.12167 0.0
C292 C 0.09336 0.7803 0.11075 0.0
C293 C 0.11674 0.87183 0.1039 0.0
H294 H 0.15432 0.89916 0.09857 0.0
H295 H 0.10436 0.89218 0.11275 0.0
H296 H 0.08947 0.85592 0.093 0.0
O297 O 0.27383 0.90323 0.13106 0.0
O298 O 0.26711 0.83134 0.14052 0.0
H299 H 0.13843 0.70478 0.12425 0.0
H300 H 0.08648 0.68713 0.10936 0.0
C301 C 0.10346 0.70629 0.12183 0.0
H302 H 0.07594 0.68535 0.13227 0.0
H303 H 0.2317 0.72147 0.14728 0.0
O304 O 0.21544 0.95978 0.12161 0.0
C305 C 0.29282 0.87498 0.13367 0.0
Co306 Co 0.32646 0.23032 0.29566 0.0
Co307 Co 0.40246 0.2051 0.31437 0.0
C308 C 0.3256 0.2177 0.33432 0.0
O309 O 0.30886 0.2266 0.32041 0.0
O310 O 0.36103 0.20714 0.33399 0.0
C311 C 0.22964 0.21552 0.28543 0.0
O312 O 0.21342 0.1878 0.29955 0.0
C313 C 0.43173 0.14007 0.33323 0.0
C314 C 0.50974 0.16862 0.32397 0.0
C315 C 0.47203 0.13108 0.33402 0.0
N316 N 0.44477 0.18023 0.32286 0.0
N317 N 0.49169 0.19754 0.31759 0.0
C318 C 0.3823 0.11271 0.34261 0.0
H319 H 0.3507 0.09886 0.33318 0.0
H320 H 0.37911 0.08095 0.35054 0.0
H321 H 0.37879 0.1397 0.35134 0.0
C322 C 0.3036 0.13944 0.2758 0.0
N323 N 0.32936 0.1733 0.28834 0.0
N324 N 0.36091 0.16173 0.29588 0.0
C325 C 0.35576 0.11936 0.28828 0.0
C326 C 0.31865 0.10358 0.27552 0.0
C327 C 0.26816 0.1437 0.26336 0.0
H328 H 0.2842 0.18346 0.25911 0.0
H329 H 0.23161 0.13155 0.26996 0.0
H330 H 0.26126 0.11994 0.25165 0.0
O331 O 0.39125 0.29163 0.29226 0.0
O332 O 0.44612 0.2777 0.30672 0.0
H333 H 0.42564 0.12192 0.29396 0.0
H334 H 0.37867 0.06331 0.28419 0.0
C335 C 0.3848 0.09379 0.29336 0.0
H336 H 0.37232 0.07656 0.30635 0.0
H337 H 0.51078 0.22804 0.30912 0.0
O338 O 0.27634 0.23762 0.28175 0.0
C339 C 0.43568 0.30661 0.2978 0.0
Co340 Co 0.09592 0.31899 0.46406 0.0
Co341 Co 0.19628 0.4023 0.48114 0.0
C342 C 0.1104 0.32057 0.50204 0.0
O343 O 0.08409 0.3 0.48855 0.0
O344 O 0.15413 0.35962 0.50095 0.0
C345 C 0.01894 0.22075 0.45308 0.0
O346 O 0.03638 0.20455 0.46564 0.0
C347 C 0.29296 0.42875 0.49733 0.0
C348 C 0.33673 0.51161 0.49421 0.0
C349 C 0.34044 0.47057 0.50003 0.0
N350 N 0.26313 0.44431 0.48992 0.0
N351 N 0.28938 0.49397 0.48826 0.0
C352 C 0.27548 0.37496 0.50213 0.0
H353 H 0.23428 0.35418 0.50456 0.0
H354 H 0.2831 0.35583 0.49129 0.0
H355 H 0.29574 0.37317 0.51384 0.0
C356 C 0.16715 0.30179 0.44342 0.0
N357 N 0.15708 0.32568 0.45615 0.0
N358 N 0.19971 0.36291 0.46227 0.0
C359 C 0.23836 0.36484 0.45305 0.0
C360 C 0.21883 0.3253 0.44122 0.0
C361 C 0.12803 0.26042 0.43235 0.0
H362 H 0.10726 0.22573 0.44029 0.0
H363 H 0.14503 0.25177 0.42107 0.0
H364 H 0.1009 0.27162 0.42747 0.0
O365 O 0.09537 0.38273 0.46125 0.0
O366 O 0.16496 0.44368 0.47367 0.0
H367 H 0.31228 0.41104 0.44184 0.0
H368 H 0.31199 0.39557 0.46424 0.0
C369 C 0.29237 0.40591 0.45437 0.0
H370 H 0.29474 0.44205 0.45813 0.0
H371 H 0.2754 0.51563 0.48266 0.0
O372 O 0.03878 0.26789 0.45041 0.0
C373 C 0.12321 0.42874 0.46567 0.0
Co374 Co 0.79799 0.09619 0.63818 0.0
Co375 Co 0.80324 0.19763 0.64885 0.0
C376 C 0.80751 0.12468 0.67488 0.0
O377 O 0.80803 0.09526 0.66327 0.0
O378 O 0.80486 0.16388 0.67095 0.0
C379 C 0.82077 0.01606 0.62899 0.0
O380 O 0.85683 0.03435 0.64072 0.0
C381 C 0.86343 0.29887 0.66297 0.0
C382 C 0.82722 0.33939 0.65169 0.0
C383 C 0.86839 0.34636 0.66144 0.0
N384 N 0.82162 0.26553 0.65439 0.0
N385 N 0.7995 0.28975 0.64798 0.0
C386 C 0.90125 0.28639 0.67032 0.0
H387 H 0.89538 0.25012 0.66496 0.0
H388 H 0.94026 0.31705 0.66747 0.0
H389 H 0.89664 0.28274 0.68463 0.0
C390 C 0.88335 0.16476 0.61585 0.0
N391 N 0.84847 0.15622 0.62806 0.0
N392 N 0.84972 0.19887 0.63182 0.0
C393 C 0.88509 0.23587 0.62174 0.0
C394 C 0.90804 0.2155 0.6116 0.0
C395 C 0.88928 0.12425 0.60708 0.0
H396 H 0.85206 0.09423 0.60231 0.0
H397 H 0.90388 0.10743 0.6166 0.0
H398 H 0.91574 0.13905 0.59594 0.0
O399 O 0.7309 0.08848 0.63425 0.0
O400 O 0.73205 0.16004 0.64026 0.0
H401 H 0.85919 0.28945 0.62138 0.0
H402 H 0.91696 0.30923 0.6094 0.0
C403 C 0.89528 0.28914 0.62116 0.0
H404 H 0.91789 0.30985 0.63267 0.0
H405 H 0.76713 0.27294 0.64024 0.0
O406 O 0.79399 0.03666 0.62667 0.0
C407 C 0.70862 0.11417 0.63518 0.0
H408 H 0.27906 0.23057 0.05107 0.0
H409 H 0.12907 0.11711 0.03508 0.0
H410 H 0.27633 0.17553 0.07454 0.0
H411 H 0.12637 0.06215 0.05868 0.0
H412 H 0.12095 0.01119 0.11592 0.0
H413 H 0.12516 0.06649 0.09216 0.0
H414 H 0.27211 0.09053 0.07784 0.0
H415 H 0.26796 0.03527 0.10144 0.0
C416 C 0.24574 0.19365 0.05246 0.0
C417 C 0.20433 0.17807 0.04121 0.0
C418 C 0.24421 0.16221 0.06589 0.0
C419 C 0.20099 0.11484 0.06848 0.0
C420 C 0.15991 0.09879 0.05706 0.0
C421 C 0.16171 0.12998 0.04346 0.0
C422 C 0.15436 0.02877 0.10782 0.0
C423 C 0.19415 0.01901 0.11054 0.0
C424 C 0.15652 0.05993 0.09414 0.0
C425 C 0.19882 0.08243 0.08313 0.0
C426 C 0.23916 0.07378 0.08617 0.0
C427 C 0.23671 0.04213 0.09966 0.0
H428 H 0.25106 0.26273 0.25393 0.0
H429 H 0.12686 0.17 0.28826 0.0
H430 H 0.19179 0.26089 0.23242 0.0
H431 H 0.06748 0.16761 0.26656 0.0
H432 H 0.98273 0.2207 0.231 0.0
H433 H 0.04207 0.22396 0.25274 0.0
H434 H 0.12663 0.19944 0.21273 0.0
H435 H 0.06757 0.19694 0.19084 0.0
C436 C 0.21111 0.24208 0.25693 0.0
C437 C 0.19365 0.21654 0.27283 0.0
C438 C 0.17715 0.2407 0.24452 0.0
C439 C 0.12499 0.21389 0.24775 0.0
C440 C 0.10753 0.18896 0.26376 0.0
C441 C 0.14152 0.19022 0.27617 0.0
C442 C 0.014 0.21608 0.22679 0.0
C443 C 0.02053 0.20869 0.20916 0.0
C444 C 0.04781 0.21762 0.23929 0.0
C445 C 0.08897 0.21193 0.23445 0.0
C446 C 0.09555 0.20454 0.21682 0.0
C447 C 0.06161 0.20285 0.2043 0.0
H448 H 0.99253 0.12231 0.44727 0.0
H449 H 0.96128 0.23915 0.43061 0.0
H450 H 0.9347 0.06562 0.42504 0.0
H451 H 0.90336 0.18235 0.40855 0.0
H452 H 0.7611 0.0409 0.38642 0.0
H453 H 0.81893 0.0985 0.40834 0.0
H454 H 0.93385 0.0654 0.39122 0.0
H455 H 0.87612 0.00791 0.36913 0.0
C456 C 0.97293 0.13566 0.439 0.0
C457 C 0.98129 0.18506 0.44067 0.0
C458 C 0.94028 0.10344 0.42621 0.0
C459 C 0.91491 0.11986 0.41508 0.0
C460 C 0.92238 0.16881 0.41702 0.0
C461 C 0.95554 0.20124 0.42961 0.0
C462 C 0.79885 0.04624 0.38723 0.0
C463 C 0.81421 0.02006 0.37606 0.0
C464 C 0.83188 0.07921 0.39974 0.0
C465 C 0.8806 0.08603 0.40148 0.0
C466 C 0.89623 0.06032 0.39021 0.0
C467 C 0.86342 0.02787 0.3775 0.0
H468 H 0.87217 0.87255 0.54121 0.0
H469 H 0.72366 0.76005 0.55881 0.0
H470 H 0.87784 0.92804 0.56504 0.0
H471 H 0.72951 0.81551 0.58259 0.0
H472 H 0.73948 0.95706 0.60876 0.0
H473 H 0.73296 0.89884 0.58596 0.0
H474 H 0.88326 0.92832 0.59809 0.0
H475 H 0.88997 0.987 0.62102 0.0
C476 C 0.84055 0.85989 0.55004 0.0
C477 C 0.79736 0.81203 0.54809 0.0
C478 C 0.84408 0.8914 0.56379 0.0
C479 C 0.80427 0.87586 0.57571 0.0
C480 C 0.76068 0.82849 0.57354 0.0
C481 C 0.75735 0.7968 0.55992 0.0
C482 C 0.77098 0.95075 0.6067 0.0
C483 C 0.81528 0.9766 0.61666 0.0
C484 C 0.76715 0.91731 0.59368 0.0
C485 C 0.80771 0.90935 0.5902 0.0
C486 C 0.85165 0.93426 0.6004 0.0
C487 C 0.85528 0.96739 0.61362 0.0
H488 H 0.93322 0.81257 0.68914 0.0
H489 H 0.00616 0.7674 0.7276 0.0
H490 H 0.87501 0.81035 0.71134 0.0
H491 H 0.9478 0.76463 0.74959 0.0
H492 H 0.87178 0.822 0.78764 0.0
H493 H 0.92964 0.82389 0.76541 0.0
H494 H 0.80508 0.74788 0.72958 0.0
H495 H 0.74737 0.74648 0.75164 0.0
C496 C 0.93669 0.80196 0.70227 0.0
C497 C 0.97429 0.79017 0.70659 0.0
C498 C 0.90326 0.80049 0.71496 0.0
C499 C 0.90697 0.78743 0.73221 0.0
C500 C 0.94444 0.77548 0.73647 0.0
C501 C 0.97765 0.77674 0.72381 0.0
C502 C 0.85673 0.8055 0.77505 0.0
C503 C 0.805 0.78403 0.77143 0.0
C504 C 0.88982 0.80645 0.76234 0.0
C505 C 0.87187 0.78615 0.74574 0.0
C506 C 0.82011 0.76441 0.74217 0.0
C507 C 0.78702 0.76325 0.75488 0.0
H508 H 0.24232 0.95963 0.88616 0.0
H509 H 0.12959 0.99804 0.8707 0.0
H510 H 0.18455 0.90163 0.90795 0.0
H511 H 0.07185 0.93992 0.89258 0.0
H512 H 0.01165 0.87889 0.94772 0.0
H513 H 0.07005 0.93642 0.92584 0.0
H514 H 0.10071 0.81984 0.90859 0.0
H515 H 0.04248 0.76234 0.93037 0.0
C516 C 0.20506 0.95537 0.88732 0.0
C517 C 0.19041 0.98329 0.87671 0.0
C518 C 0.17204 0.92215 0.89977 0.0
C519 C 0.12396 0.91662 0.90199 0.0
C520 C 0.10899 0.94399 0.89124 0.0
C521 C 0.14182 0.97682 0.87863 0.0
C522 C 0.03125 0.86575 0.93937 0.0
C523 C 0.02258 0.81618 0.94076 0.0
C524 C 0.06424 0.89848 0.92677 0.0
C525 C 0.08957 0.88237 0.9155 0.0
C526 C 0.08181 0.83324 0.91717 0.0
C527 C 0.04844 0.80036 0.92961 0.0
H528 H 0.63454 0.54911 0.02724 0.0
H529 H 0.5771 0.49454 0.9758 0.0
H530 H 0.55251 0.53993 0.03547 0.0
H531 H 0.49616 0.48649 0.9838 0.0
H532 H 0.36602 0.50432 0.99788 0.0
H533 H 0.4573 0.54217 0.99403 0.0
H534 H 0.46302 0.45582 0.03746 0.0
H535 H 0.37182 0.41733 0.04115 0.0
C536 C 0.60462 0.53596 0.01767 0.0
C537 C 0.61171 0.52216 0.00095 0.0
C538 C 0.55795 0.5308 0.02234 0.0
C539 C 0.51833 0.51308 0.0102 0.0
C540 C 0.52631 0.50104 0.99333 0.0
C541 C 0.57234 0.50506 0.98881 0.0
C542 C 0.38704 0.49493 0.00703 0.0
C543 C 0.36182 0.45748 0.01969 0.0
C544 C 0.43918 0.51634 0.00475 0.0
C545 C 0.46693 0.50139 0.01533 0.0
C546 C 0.44254 0.46811 0.02917 0.0
C547 C 0.39034 0.44601 0.03124 0.0
H548 H 0.9343 0.35444 0.20999 0.0
H549 H 0.85878 0.36068 0.16346 0.0
H550 H 0.99036 0.44558 0.20872 0.0
H551 H 0.91614 0.45161 0.16171 0.0
H552 H 0.0225 0.61897 0.16323 0.0
H553 H 0.95289 0.5368 0.17175 0.0
H554 H 0.05993 0.49391 0.1901 0.0
H555 H 0.12917 0.57693 0.18247 0.0
C556 C 0.92892 0.37557 0.19972 0.0
C557 C 0.89252 0.35042 0.18673 0.0
C558 C 0.96142 0.42774 0.19887 0.0
C559 C 0.95884 0.45587 0.18484 0.0
C560 C 0.91931 0.43133 0.17273 0.0
C561 C 0.88624 0.37909 0.17373 0.0
C562 C 0.0312 0.59283 0.1697 0.0
C563 C 0.08153 0.60506 0.17254 0.0
C564 C 0.99115 0.54522 0.17432 0.0
C565 C 0.00053 0.50859 0.18172 0.0
C566 C 0.05095 0.52135 0.18481 0.0
C567 C 0.09084 0.56887 0.18026 0.0
H568 H 0.40057 0.03048 0.33219 0.0
H569 H 0.55028 0.13339 0.35125 0.0
H570 H 0.41006 0.95867 0.34102 0.0
H571 H 0.56065 0.06223 0.35954 0.0
H572 H 0.57043 0.93514 0.37963 0.0
H573 H 0.53535 0.99131 0.37854 0.0
H574 H 0.45898 0.92109 0.33059 0.0
H575 H 0.49287 0.86374 0.33206 0.0
C576 C 0.43487 0.03773 0.33877 0.0
C577 C 0.47431 0.08753 0.34142 0.0
C578 C 0.44061 0.99659 0.34359 0.0
C579 C 0.48597 0.00449 0.35111 0.0
C580 C 0.52473 0.05448 0.35416 0.0
C581 C 0.51903 0.09541 0.3493 0.0
C582 C 0.5446 0.93048 0.3692 0.0
C583 C 0.53478 0.89544 0.35583 0.0
C584 C 0.52491 0.96302 0.36847 0.0
C585 C 0.49554 0.96178 0.35422 0.0
C586 C 0.48146 0.92318 0.34177 0.0
C587 C 0.50075 0.89011 0.34262 0.0
H588 H 0.41433 0.54421 0.51953 0.0
H589 H 0.37438 0.40371 0.49367 0.0
H590 H 0.4959 0.55404 0.52729 0.0
H591 H 0.45542 0.41245 0.502 0.0
H592 H 0.63399 0.50134 0.49609 0.0
H593 H 0.54294 0.46648 0.4935 0.0
H594 H 0.53986 0.52289 0.54469 0.0
H595 H 0.63098 0.55904 0.54696 0.0
C596 C 0.42255 0.51482 0.51585 0.0
C597 C 0.38745 0.47279 0.50627 0.0
C598 C 0.46918 0.52014 0.52044 0.0
C599 C 0.48216 0.4837 0.51545 0.0
C600 C 0.44664 0.44113 0.5061 0.0
C601 C 0.3998 0.43576 0.50154 0.0
C602 C 0.61351 0.50444 0.50706 0.0
C603 C 0.63961 0.53341 0.52163 0.0
C604 C 0.56125 0.48464 0.50556 0.0
C605 C 0.53427 0.49313 0.5187 0.0
C606 C 0.55971 0.51697 0.53412 0.0
C607 C 0.61184 0.53716 0.53552 0.0
H608 H 0.91943 0.37484 0.69237 0.0
H609 H 0.91666 0.42858 0.64076 0.0
H610 H 0.99179 0.45788 0.69976 0.0
H611 H 0.9891 0.51082 0.648 0.0
H612 H 0.05394 0.63859 0.70536 0.0
H613 H 0.99826 0.54767 0.7017 0.0
H614 H 0.08466 0.54984 0.65707 0.0
H615 H 0.14109 0.64079 0.66089 0.0
C616 C 0.93475 0.40421 0.68258 0.0
C617 C 0.91258 0.39557 0.66603 0.0
C618 C 0.97598 0.45153 0.68679 0.0
C619 C 0.99632 0.49043 0.67437 0.0
C620 C 0.97469 0.48123 0.65772 0.0
C621 C 0.93294 0.43445 0.65365 0.0
C622 C 0.06217 0.6193 0.69516 0.0
C623 C 0.10165 0.64676 0.68335 0.0
C624 C 0.03032 0.56729 0.69308 0.0
C625 C 0.03686 0.54202 0.67898 0.0
C626 C 0.07871 0.56866 0.66798 0.0
C627 C 0.11122 0.62057 0.67027 0.0
H628 H 0.4992 0.92562 0.81043 0.0
H629 H 0.55524 0.92464 0.8618 0.0
H630 H 0.49516 0.00107 0.81767 0.0
H631 H 0.55098 0.00081 0.8692 0.0
H632 H 0.43866 0.06798 0.87665 0.0
H633 H 0.4759 0.01426 0.87289 0.0
H634 H 0.54724 0.09328 0.82552 0.0
H635 H 0.50983 0.14723 0.8293 0.0
C636 C 0.51102 0.94189 0.82327 0.0
C637 C 0.52719 0.91916 0.83561 0.0
C638 C 0.5094 0.98555 0.82734 0.0
C639 C 0.52323 0.00725 0.84396 0.0
C640 C 0.54034 0.98505 0.85626 0.0
C641 C 0.54277 0.94158 0.85206 0.0
C642 C 0.46396 0.07525 0.8658 0.0
C643 C 0.47079 0.11135 0.85314 0.0
C644 C 0.48538 0.04448 0.86367 0.0
C645 C 0.51365 0.04889 0.84873 0.0
C646 C 0.52498 0.08862 0.83704 0.0
C647 C 0.504 0.11987 0.83929 0.0
H648 H 0.54547 0.41943 0.79949 0.0
H649 H 0.3994 0.37391 0.82171 0.0
H650 H 0.55392 0.5002 0.79109 0.0
H651 H 0.40708 0.45456 0.81294 0.0
H652 H 0.49397 0.63374 0.82047 0.0
H653 H 0.45961 0.54257 0.82263 0.0
H654 H 0.5226 0.54271 0.7724 0.0
H655 H 0.55789 0.63385 0.77048 0.0
C656 C 0.51459 0.4263 0.80215 0.0
C657 C 0.47139 0.39006 0.81088 0.0
C658 C 0.51917 0.47243 0.79724 0.0
C659 C 0.48088 0.48375 0.80117 0.0
C660 C 0.43713 0.44698 0.80966 0.0
C661 C 0.43244 0.40056 0.81447 0.0
C662 C 0.4986 0.61395 0.80958 0.0
C663 C 0.52919 0.64097 0.79542 0.0
C664 C 0.47909 0.56164 0.81083 0.0
C665 C 0.48958 0.53558 0.79789 0.0
C666 C 0.51503 0.56188 0.78281 0.0
C667 C 0.5348 0.61402 0.78163 0.0
H668 H 0.86091 0.49625 0.98786 0.0
H669 H 0.94694 0.57216 0.94204 0.0
H670 H 0.91517 0.45971 0.99264 0.0
H671 H 0.00063 0.53509 0.94673 0.0
H672 H 0.08305 0.50872 0.00955 0.0
H673 H 0.00977 0.51593 0.00135 0.0
H674 H 0.00814 0.45363 0.95085 0.0
H675 H 0.08152 0.44566 0.95924 0.0
C676 C 0.88995 0.5034 0.9784 0.0
C677 C 0.9001 0.53756 0.9647 0.0
C678 C 0.92125 0.4828 0.98122 0.0
C679 C 0.96249 0.49525 0.9702 0.0
C680 C 0.96908 0.52482 0.95541 0.0
C681 C 0.93836 0.54608 0.95275 0.0
C682 C 0.06675 0.49615 0.99676 0.0
C683 C 0.08783 0.47673 0.98501 0.0
C684 C 0.02449 0.49969 0.99214 0.0
C685 C 0.00297 0.48479 0.97554 0.0
C686 C 0.02382 0.46498 0.96378 0.0
C687 C 0.06564 0.46044 0.96856 0.0
H688 H 0.34961 0.93997 0.10817 0.0
H689 H 0.35994 0.86345 0.15376 0.0
H690 H 0.44088 0.99528 0.10835 0.0
H691 H 0.45102 0.92035 0.15458 0.0
H692 H 0.61741 0.02615 0.15221 0.0
H693 H 0.53474 0.95687 0.14411 0.0
H694 H 0.49227 0.06466 0.12614 0.0
H695 H 0.5759 0.13349 0.13319 0.0
C696 C 0.37169 0.93428 0.11801 0.0
C697 C 0.34776 0.89772 0.13102 0.0
C698 C 0.42395 0.96637 0.11826 0.0
C699 C 0.45338 0.96342 0.13177 0.0
C700 C 0.42982 0.92382 0.14392 0.0
C701 C 0.3775 0.89102 0.14347 0.0
C702 C 0.5913 0.03508 0.14585 0.0
C703 C 0.60386 0.08554 0.14298 0.0
C704 C 0.54334 0.9952 0.1415 0.0
C705 C 0.50655 0.00484 0.13439 0.0
C706 C 0.51969 0.05537 0.1312 0.0
C707 C 0.56763 0.09507 0.13543 0.0
H708 H 0.5981 0.62674 0.32449 0.0
H709 H 0.45597 0.58369 0.29937 0.0
H710 H 0.59104 0.54649 0.31593 0.0
H711 H 0.44789 0.50294 0.29135 0.0
H712 H 0.44534 0.36951 0.27131 0.0
H713 H 0.4804 0.46056 0.27357 0.0
H714 H 0.53831 0.45852 0.32459 0.0
H715 H 0.50445 0.36755 0.32204 0.0
C716 C 0.56604 0.60082 0.31673 0.0
C717 C 0.52803 0.61203 0.31228 0.0
C718 C 0.56166 0.55445 0.31203 0.0
C719 C 0.51916 0.51832 0.30282 0.0
C720 C 0.48175 0.53019 0.29809 0.0
C721 C 0.48607 0.57633 0.30283 0.0
C722 C 0.46737 0.3889 0.28271 0.0
C723 C 0.47173 0.36141 0.29658 0.0
C724 C 0.48694 0.44098 0.2841 0.0
C725 C 0.51078 0.46661 0.29948 0.0
C726 C 0.52008 0.44002 0.31256 0.0
C727 C 0.50088 0.38781 0.31108 0.0
H728 H 0.86452 0.44986 0.46861 0.0
H729 H 0.96939 0.60005 0.48684 0.0
H730 H 0.93467 0.43765 0.46054 0.0
H731 H 0.04021 0.58864 0.47828 0.0
H732 H 0.13373 0.50434 0.48742 0.0
H733 H 0.07671 0.53865 0.48904 0.0
H734 H 0.00508 0.46167 0.44132 0.0
H735 H 0.06096 0.42631 0.44006 0.0
C736 C 0.90272 0.4808 0.47042 0.0
C737 C 0.91145 0.52623 0.47798 0.0
C738 C 0.94307 0.47402 0.4657 0.0
C739 C 0.99331 0.51237 0.4686 0.0
C740 C 0.00207 0.55838 0.47583 0.0
C741 C 0.96152 0.56522 0.48049 0.0
C742 C 0.10703 0.49631 0.47696 0.0
C743 C 0.10134 0.46215 0.46374 0.0
C744 C 0.07418 0.51586 0.47789 0.0
C745 C 0.0354 0.50187 0.46553 0.0
C746 C 0.03354 0.47207 0.45132 0.0
C747 C 0.0659 0.4522 0.4505 0.0
H748 H 0.39678 0.87796 0.6201 0.0
H749 H 0.40161 0.96059 0.66612 0.0
H750 H 0.48112 0.94515 0.61208 0.0
H751 H 0.48707 0.02651 0.65888 0.0
H752 H 0.64024 0.14576 0.64244 0.0
H753 H 0.54811 0.09365 0.64216 0.0
H754 H 0.56101 0.96856 0.62176 0.0
H755 H 0.65148 0.02075 0.6212 0.0
C756 C 0.41594 0.91092 0.62839 0.0
C757 C 0.393 0.91443 0.64365 0.0
C758 C 0.46439 0.9493 0.62391 0.0
C759 C 0.49163 0.99118 0.63496 0.0
C760 C 0.46735 0.99547 0.64988 0.0
C761 C 0.41838 0.95758 0.65411 0.0
C762 C 0.62314 0.10755 0.63745 0.0
C763 C 0.65333 0.08728 0.63209 0.0
C764 C 0.57031 0.07744 0.63746 0.0
C765 C 0.54673 0.02644 0.63217 0.0
C766 C 0.57718 0.0076 0.62574 0.0
C767 C 0.62955 0.03763 0.62559 0.0
H768 H 0.2208 0.18563 0.88256 0.0
H769 H 0.37222 0.29588 0.89811 0.0
H770 H 0.18661 0.21344 0.90614 0.0
H771 H 0.33783 0.32543 0.92115 0.0
H772 H 0.2472 0.38337 0.95294 0.0
H773 H 0.27084 0.36246 0.92504 0.0
H774 H 0.20492 0.20683 0.94105 0.0
H775 H 0.18266 0.2278 0.96915 0.0
C776 C 0.24665 0.21668 0.89076 0.0
C777 C 0.29909 0.23876 0.88854 0.0
C778 C 0.22709 0.23254 0.90417 0.0
C779 C 0.25968 0.27153 0.91534 0.0
C780 C 0.31204 0.29569 0.91251 0.0
C781 C 0.33167 0.27905 0.8993 0.0
C782 C 0.23668 0.34447 0.95034 0.0
C783 C 0.21316 0.30714 0.9632 0.0
C784 C 0.25051 0.3327 0.93445 0.0
C785 C 0.23972 0.28319 0.93103 0.0
C786 C 0.21334 0.24524 0.94342 0.0
C787 C 0.20067 0.25722 0.95946 0.0
H788 H 0.00752 0.26949 0.04164 0.0
H789 H 0.13 0.33372 0.07851 0.0
H790 H 0.94644 0.23561 0.06565 0.0
H791 H 0.06973 0.30122 0.10245 0.0
H792 H 0.96272 0.18943 0.14011 0.0
H793 H 0.0142 0.21695 0.114 0.0
H794 H 0.91155 0.25894 0.09087 0.0
H795 H 0.85911 0.23025 0.11699 0.0
C796 C 0.02105 0.27715 0.05492 0.0
C797 C 0.073 0.30382 0.05842 0.0
C798 C 0.98634 0.25777 0.06861 0.0
C799 C 0.00337 0.26486 0.08592 0.0
C800 C 0.05548 0.29394 0.08926 0.0
C801 C 0.08994 0.31309 0.07563 0.0
C802 C 0.95057 0.20367 0.12935 0.0
C803 C 0.90722 0.20828 0.13071 0.0
C804 C 0.98032 0.21988 0.11445 0.0
C805 C 0.96765 0.24141 0.10059 0.0
C806 C 0.92236 0.2427 0.10139 0.0
C807 C 0.89229 0.22616 0.11633 0.0
H808 H 0.74643 0.98609 0.30844 0.0
H809 H 0.63428 0.84786 0.28378 0.0
H810 H 0.7622 0.03025 0.28091 0.0
H811 H 0.65085 0.89274 0.25601 0.0
H812 H 0.75214 0.99701 0.20834 0.0
H813 H 0.72585 0.94206 0.23405 0.0
H814 H 0.70642 0.05329 0.26236 0.0
H815 H 0.73246 0.10776 0.23665 0.0
C816 C 0.72555 0.96485 0.29712 0.0
C817 C 0.68869 0.91344 0.29839 0.0
C818 C 0.73433 0.99038 0.28138 0.0
C819 C 0.70692 0.9651 0.26648 0.0
C820 C 0.67215 0.91309 0.26739 0.0
C821 C 0.66286 0.88747 0.28326 0.0
C822 C 0.74059 0.00866 0.21994 0.0
C823 C 0.74367 0.05604 0.22064 0.0
C824 C 0.7258 0.97748 0.2346 0.0
C825 C 0.71477 0.99382 0.25019 0.0
C826 C 0.7153 0.04014 0.25053 0.0
C827 C 0.72959 0.07099 0.23584 0.0
H828 H 0.76052 0.77392 0.37871 0.0
H829 H 0.62348 0.73927 0.40575 0.0
H830 H 0.78988 0.74748 0.40419 0.0
H831 H 0.65252 0.71286 0.43124 0.0
H832 H 0.7528 0.74684 0.47892 0.0
H833 H 0.72527 0.76603 0.4518 0.0
H834 H 0.7686 0.67087 0.42399 0.0
H835 H 0.7962 0.65105 0.45128 0.0
C836 C 0.7362 0.75923 0.38998 0.0
C837 C 0.68962 0.75784 0.39034 0.0
C838 C 0.75297 0.7443 0.40452 0.0
C839 C 0.72368 0.72866 0.41971 0.0
C840 C 0.67606 0.72531 0.41974 0.0
C841 C 0.65915 0.73976 0.40515 0.0
C842 C 0.75712 0.73033 0.46705 0.0
C843 C 0.77639 0.69703 0.46734 0.0
C844 C 0.74083 0.74099 0.45153 0.0
C845 C 0.74384 0.71908 0.43588 0.0
C846 C 0.76561 0.68799 0.43592 0.0
C847 C 0.78152 0.67682 0.45153 0.0
H848 H 0.92927 0.63329 0.56416 0.0
H849 H 0.96432 0.78338 0.54893 0.0
H850 H 0.9948 0.66962 0.58664 0.0
H851 H 0.028 0.81945 0.57192 0.0
H852 H 0.05048 0.82593 0.63453 0.0
H853 H 0.00616 0.80224 0.60664 0.0
H854 H 0.09716 0.73799 0.59032 0.0
H855 H 0.14269 0.76294 0.61798 0.0
C856 C 0.95202 0.67399 0.56528 0.0
C857 C 0.94202 0.70562 0.55484 0.0
C858 C 0.98921 0.69473 0.57817 0.0
C859 C 0.01606 0.74722 0.58096 0.0
C860 C 0.00763 0.77889 0.56999 0.0
C861 C 0.97127 0.75826 0.55692 0.0
C862 C 0.06193 0.808 0.62481 0.0
C863 C 0.09999 0.7963 0.62841 0.0
C864 C 0.03666 0.79451 0.60889 0.0
C865 C 0.04828 0.76814 0.59648 0.0
C866 C 0.08765 0.75825 0.59975 0.0
C867 C 0.1138 0.77284 0.61551 0.0
H868 H 0.26621 0.0017 0.70799 0.0
H869 H 0.22488 0.8749 0.74199 0.0
H870 H 0.29092 0.0584 0.73321 0.0
H871 H 0.25039 0.93102 0.76717 0.0
H872 H 0.23813 0.02615 0.80864 0.0
H873 H 0.21621 0.97742 0.78189 0.0
H874 H 0.35087 0.09537 0.75745 0.0
H875 H 0.37233 0.14494 0.78421 0.0
C876 C 0.26383 0.98643 0.72088 0.0
C877 C 0.24437 0.93445 0.72323 0.0
C878 C 0.27771 0.01865 0.73528 0.0
C879 C 0.27186 0.99908 0.75221 0.0
C880 C 0.25431 0.94714 0.75435 0.0
C881 C 0.24044 0.91511 0.73999 0.0
C882 C 0.26269 0.04213 0.79749 0.0
C883 C 0.30724 0.08918 0.79862 0.0
C884 C 0.25039 0.01395 0.7822 0.0
C885 C 0.2825 0.03194 0.76769 0.0
C886 C 0.32544 0.08041 0.76842 0.0
C887 C 0.33765 0.10885 0.78375 0.0
H888 H 0.73929 0.74831 0.83853 0.0
H889 H 0.65088 0.79933 0.86695 0.0
H890 H 0.76031 0.72207 0.86555 0.0
H891 H 0.67301 0.77334 0.89421 0.0
H892 H 0.78683 0.76794 0.93706 0.0
H893 H 0.75735 0.7963 0.91207 0.0
H894 H 0.70347 0.65092 0.88769 0.0
H895 H 0.7324 0.62263 0.91276 0.0
C896 C 0.7248 0.75459 0.85054 0.0
C897 C 0.69302 0.77564 0.85053 0.0
C898 C 0.73657 0.7391 0.866 0.0
C899 C 0.71748 0.74487 0.88186 0.0
C900 C 0.68786 0.76824 0.88208 0.0
C901 C 0.67537 0.78317 0.86651 0.0
C902 C 0.7674 0.74183 0.92652 0.0
C903 C 0.76129 0.69312 0.92674 0.0
C904 C 0.75066 0.75797 0.91229 0.0
C905 C 0.72857 0.72587 0.89797 0.0
C906 C 0.72072 0.67643 0.89856 0.0
C907 C 0.7368 0.6601 0.91288 0.0
H908 H 0.98618 0.75366 0.00827 0.0
H909 H 0.84858 0.64368 0.03374 0.0
H910 H 0.0307 0.77247 0.03581 0.0
H911 H 0.89381 0.6633 0.06151 0.0
H912 H 0.99833 0.76542 0.10871 0.0
H913 H 0.94377 0.73972 0.08289 0.0
H914 H 0.05389 0.71786 0.05493 0.0
H915 H 0.10795 0.74329 0.08075 0.0
C916 C 0.96514 0.73395 0.01976 0.0
C917 C 0.91384 0.69667 0.01872 0.0
C918 C 0.99087 0.7445 0.03552 0.0
C919 C 0.9659 0.7185 0.05066 0.0
C920 C 0.91392 0.68356 0.04995 0.0
C921 C 0.8881 0.67252 0.03408 0.0
C922 C 0.00989 0.75367 0.09714 0.0
C923 C 0.05672 0.75559 0.09661 0.0
C924 C 0.97893 0.73919 0.08242 0.0
C925 C 0.99497 0.72739 0.06692 0.0
C926 C 0.04096 0.72732 0.0667 0.0
C927 C 0.07157 0.74125 0.08145 0.0
H928 H 0.24463 0.86195 0.19954 0.0
H929 H 0.17334 0.94834 0.18512 0.0
H930 H 0.27065 0.90725 0.22726 0.0
H931 H 0.19811 0.99236 0.21305 0.0
H932 H 0.22049 0.03276 0.27092 0.0
H933 H 0.18488 0.96921 0.24783 0.0
H934 H 0.33527 0.01064 0.23097 0.0
H935 H 0.37093 0.0759 0.25356 0.0
C936 C 0.23324 0.88951 0.2025 0.0
C937 C 0.20704 0.90177 0.19018 0.0
C938 C 0.2484 0.91552 0.21829 0.0
C939 C 0.23635 0.95313 0.22218 0.0
C940 C 0.20751 0.9632 0.21034 0.0
C941 C 0.19344 0.93814 0.19439 0.0
C942 C 0.24585 0.02757 0.26245 0.0
C943 C 0.29837 0.05904 0.26397 0.0
C944 C 0.22551 0.99134 0.24931 0.0
C945 C 0.25743 0.98525 0.23772 0.0
C946 C 0.31 0.01439 0.23993 0.0
C947 C 0.33037 0.05142 0.25287 0.0
H948 H 0.26172 0.37861 0.41191 0.0
H949 H 0.2312 0.24362 0.43962 0.0
H950 H 0.28929 0.34995 0.38662 0.0
H951 H 0.25891 0.21469 0.41436 0.0
H952 H 0.356 0.20966 0.36725 0.0
H953 H 0.33589 0.23757 0.39443 0.0
H954 H 0.23666 0.27534 0.36652 0.0
H955 H 0.25608 0.24747 0.33954 0.0
C956 C 0.26242 0.34354 0.41269 0.0
C957 C 0.2451 0.31346 0.42762 0.0
C958 C 0.27755 0.32684 0.39823 0.0
C959 C 0.27569 0.27987 0.39852 0.0
C960 C 0.26093 0.25111 0.41385 0.0
C961 C 0.24529 0.26763 0.42825 0.0
C962 C 0.3293 0.22319 0.36696 0.0
C963 C 0.308 0.22669 0.35117 0.0
C964 C 0.31798 0.23929 0.3825 0.0
C965 C 0.28563 0.2596 0.38246 0.0
C966 C 0.26267 0.26096 0.36684 0.0
C967 C 0.2735 0.24449 0.3514 0.0
H968 H 0.00351 0.23139 0.60927 0.0
H969 H 0.8914 0.24982 0.58135 0.0
H970 H 0.05768 0.25779 0.58335 0.0
H971 H 0.94505 0.27589 0.55546 0.0
H972 H 0.15088 0.35707 0.53433 0.0
H973 H 0.1056 0.3355 0.5621 0.0
H974 H 0.97063 0.22294 0.53628 0.0
H975 H 0.01523 0.24368 0.50874 0.0
C976 C 0.99119 0.24226 0.59767 0.0
C977 C 0.94384 0.23919 0.59718 0.0
C978 C 0.02196 0.2572 0.58291 0.0
C979 C 0.00519 0.26831 0.56743 0.0
C980 C 0.95853 0.26697 0.56721 0.0
C981 C 0.92814 0.25262 0.582 0.0
C982 C 0.11179 0.32713 0.53464 0.0
C983 C 0.08656 0.30252 0.51926 0.0
C984 C 0.08596 0.31493 0.55051 0.0
C985 C 0.03446 0.27837 0.55118 0.0
C986 C 0.01007 0.25206 0.53601 0.0
C987 C 0.03585 0.26376 0.52026 0.0
H988 H 0.75758 0.143 0.70062 0.0
H989 H 0.84233 0.06741 0.69007 0.0
H990 H 0.7308 0.09913 0.72855 0.0
H991 H 0.81658 0.02473 0.71814 0.0
H992 H 0.78059 0.97405 0.77395 0.0
H993 H 0.81925 0.04129 0.75218 0.0
H994 H 0.67146 0.99841 0.73194 0.0
H995 H 0.63303 0.92995 0.75327 0.0
C996 C 0.77192 0.11843 0.70453 0.0
C997 C 0.8018 0.10831 0.69316 0.0
C998 C 0.75633 0.09319 0.72044 0.0
C999 C 0.77151 0.05855 0.72538 0.0
C1000 C 0.80467 0.05157 0.71464 0.0
C1001 C 0.81929 0.07586 0.69859 0.0
C1002 C 0.75644 0.97981 0.76505 0.0
C1003 C 0.70395 0.94707 0.76522 0.0
C1004 C 0.77849 0.01816 0.75267 0.0
C1005 C 0.74826 0.02492 0.74047 0.0
C1006 C 0.69547 0.99434 0.7414 0.0
C1007 C 0.67348 0.95535 0.7536 0.0
loop_
_geom_bond_atom_site_label_1
_geom_bond_atom_site_label_2
_geom_bond_distance
_geom_bond_site_symmetry_2
_ccdc_geom_bond_type
Co0 O3 1.970 . S
Co0 N17 1.989 . S
Co0 O25 1.967 . S
Co0 O32 1.920 . S
Co1 O4 1.966 1_554 S
Co1 N10 2.022 . S
Co1 N18 1.993 . S
Co1 O26 1.941 . S
C2 O3 1.258 1_556 S
C2 O4 1.263 . S
O3 Co0 1.970 . S
O3 C2 1.258 1_554 S
O4 Co1 1.966 1_556 S
O4 C2 1.263 . S
C5 O6 1.235 . S
C5 O32 1.289 . S
O6 C5 1.235 . S
C7 C9 1.400 . S
C7 N10 1.351 1_556 S
C7 C12 1.501 . S
C8 C9 1.387 1_554 S
C8 N11 1.341 . S
C9 C7 1.400 . S
C9 C8 1.387 1_556 S
N10 Co1 2.022 . S
N10 C7 1.351 1_554 S
N10 N11 1.365 . S
N11 C8 1.341 . S
N11 N10 1.365 . S
N11 H31 0.862 . S
C12 C7 1.501 . S
C12 H13 0.961 . S
C12 H14 0.961 . S
C12 H15 0.960 . S
H13 C12 0.961 . S
H14 C12 0.961 . S
H15 C12 0.960 . S
C16 N17 1.342 . S
C16 C20 1.401 . S
C16 C21 1.499 . S
N17 Co0 1.989 . S
N17 C16 1.342 . S
N17 N18 1.388 . S
N18 Co1 1.993 . S
N18 N17 1.388 . S
N18 C19 1.346 . S
C19 N18 1.346 . S
C19 C20 1.396 . S
C19 C29 1.510 . S
C20 C16 1.401 . S
C20 C19 1.396 . S
C21 C16 1.499 . S
C21 H22 0.959 . S
C21 H23 0.960 . S
C21 H24 0.961 . S
H22 C21 0.959 . S
H23 C21 0.960 . S
H24 C21 0.961 . S
O25 Co0 1.967 . S
O25 C33 1.258 . S
O26 Co1 1.941 . S
O26 C33 1.266 . S
H27 C29 0.959 . S
H28 C29 0.961 . S
C29 C19 1.510 . S
C29 H27 0.959 . S
C29 H28 0.961 . S
C29 H30 0.960 . S
H30 C29 0.960 . S
H31 N11 0.862 . S
O32 Co0 1.920 . S
O32 C5 1.289 . S
C33 O25 1.258 . S
C33 O26 1.266 . S
Co34 O37 1.970 . S
Co34 N51 1.989 . S
Co34 O59 1.967 . S
Co34 O66 1.920 . S
Co35 O38 1.966 . S
Co35 N44 2.022 . S
Co35 N52 1.993 . S
Co35 O60 1.941 . S
C36 O37 1.258 . S
C36 O38 1.263 . S
O37 Co34 1.970 . S
O37 C36 1.258 . S
O38 Co35 1.966 . S
O38 C36 1.263 . S
C39 O40 1.235 . S
C39 O66 1.289 . S
O40 C39 1.235 . S
C41 C43 1.400 . S
C41 N44 1.351 . S
C41 C46 1.501 . S
C42 C43 1.387 . S
C42 N45 1.341 . S
C43 C41 1.400 . S
C43 C42 1.387 . S
N44 Co35 2.022 . S
N44 C41 1.351 . S
N44 N45 1.365 . S
N45 C42 1.341 . S
N45 N44 1.365 . S
N45 H65 0.862 . S
C46 C41 1.501 . S
C46 H47 0.961 . S
C46 H48 0.961 . S
C46 H49 0.960 . S
H47 C46 0.961 . S
H48 C46 0.961 . S
H49 C46 0.960 . S
C50 N51 1.342 . S
C50 C54 1.401 . S
C50 C55 1.499 . S
N51 Co34 1.989 . S
N51 C50 1.342 . S
N51 N52 1.388 . S
N52 Co35 1.993 . S
N52 N51 1.388 . S
N52 C53 1.346 . S
C53 N52 1.346 . S
C53 C54 1.396 . S
C53 C63 1.510 . S
C54 C50 1.401 . S
C54 C53 1.396 . S
C55 C50 1.499 . S
C55 H56 0.959 . S
C55 H57 0.960 . S
C55 H58 0.961 . S
H56 C55 0.959 . S
H57 C55 0.960 . S
H58 C55 0.961 . S
O59 Co34 1.967 . S
O59 C67 1.258 . S
O60 Co35 1.941 . S
O60 C67 1.266 . S
H61 C63 0.959 . S
H62 C63 0.961 . S
C63 C53 1.510 . S
C63 H61 0.959 . S
C63 H62 0.961 . S
C63 H64 0.960 . S
H64 C63 0.960 . S
H65 N45 0.862 . S
O66 Co34 1.920 . S
O66 C39 1.289 . S
C67 O59 1.258 . S
C67 O60 1.266 . S
Co68 O71 1.970 . S
Co68 N85 1.989 . S
Co68 O93 1.967 . S
Co68 O100 1.920 . S
Co69 O72 1.966 . S
Co69 N78 2.022 . S
Co69 N86 1.993 . S
Co69 O94 1.941 . S
C70 O71 1.258 . S
C70 O72 1.263 . S
O71 Co68 1.970 . S
O71 C70 1.258 . S
O72 Co69 1.966 . S
O72 C70 1.263 . S
C73 O74 1.235 . S
C73 O100 1.289 . S
O74 C73 1.235 . S
C75 C77 1.400 . S
C75 N78 1.351 . S
C75 C80 1.501 . S
C76 C77 1.387 . S
C76 N79 1.341 . S
C77 C75 1.400 . S
C77 C76 1.387 . S
N78 Co69 2.022 . S
N78 C75 1.351 . S
N78 N79 1.365 . S
N79 C76 1.341 . S
N79 N78 1.365 . S
N79 H99 0.862 . S
C80 C75 1.501 . S
C80 H81 0.961 . S
C80 H82 0.961 . S
C80 H83 0.960 . S
H81 C80 0.961 . S
H82 C80 0.961 . S
H83 C80 0.960 . S
C84 N85 1.342 . S
C84 C88 1.401 . S
C84 C89 1.499 . S
N85 Co68 1.989 . S
N85 C84 1.342 . S
N85 N86 1.388 . S
N86 Co69 1.993 . S
N86 N85 1.388 . S
N86 C87 1.346 . S
C87 N86 1.346 . S
C87 C88 1.396 . S
C87 C97 1.510 . S
C88 C84 1.401 . S
C88 C87 1.396 . S
C89 C84 1.499 . S
C89 H90 0.959 . S
C89 H91 0.960 . S
C89 H92 0.961 . S
H90 C89 0.959 . S
H91 C89 0.960 . S
H92 C89 0.961 . S
O93 Co68 1.967 . S
O93 C101 1.258 . S
O94 Co69 1.941 . S
O94 C101 1.266 . S
H95 C97 0.959 . S
H96 C97 0.961 . S
C97 C87 1.510 . S
C97 H95 0.959 . S
C97 H96 0.961 . S
C97 H98 0.960 . S
H98 C97 0.960 . S
H99 N79 0.862 . S
O100 Co68 1.920 . S
O100 C73 1.289 . S
C101 O93 1.258 . S
C101 O94 1.266 . S
Co102 O105 1.970 . S
Co102 N119 1.989 . S
Co102 O127 1.967 . S
Co102 O134 1.920 . S
Co103 O106 1.966 . S
Co103 N112 2.022 . S
Co103 N120 1.993 . S
Co103 O128 1.941 . S
C104 O105 1.258 . S
C104 O106 1.263 . S
O105 Co102 1.970 . S
O105 C104 1.258 . S
O106 Co103 1.966 . S
O106 C104 1.263 . S
C107 O108 1.235 . S
C107 O134 1.289 . S
O108 C107 1.235 . S
C109 C111 1.400 . S
C109 N112 1.351 . S
C109 C114 1.501 . S
C110 C111 1.387 . S
C110 N113 1.341 . S
C111 C109 1.400 . S
C111 C110 1.387 . S
N112 Co103 2.022 . S
N112 C109 1.351 . S
N112 N113 1.365 . S
N113 C110 1.341 . S
N113 N112 1.365 . S
N113 H133 0.862 . S
C114 C109 1.501 . S
C114 H115 0.961 . S
C114 H116 0.961 . S
C114 H117 0.960 . S
H115 C114 0.961 . S
H116 C114 0.961 . S
H117 C114 0.960 . S
C118 N119 1.342 . S
C118 C122 1.401 . S
C118 C123 1.499 . S
N119 Co102 1.989 . S
N119 C118 1.342 . S
N119 N120 1.388 . S
N120 Co103 1.993 . S
N120 N119 1.388 . S
N120 C121 1.346 . S
C121 N120 1.346 . S
C121 C122 1.396 . S
C121 C131 1.510 . S
C122 C118 1.401 . S
C122 C121 1.396 . S
C123 C118 1.499 . S
C123 H124 0.959 . S
C123 H125 0.960 . S
C123 H126 0.961 . S
H124 C123 0.959 . S
H125 C123 0.960 . S
H126 C123 0.961 . S
O127 Co102 1.967 . S
O127 C135 1.258 . S
O128 Co103 1.941 . S
O128 C135 1.266 . S
H129 C131 0.959 . S
H130 C131 0.961 . S
C131 C121 1.510 . S
C131 H129 0.959 . S
C131 H130 0.961 . S
C131 H132 0.960 . S
H132 C131 0.960 . S
H133 N113 0.862 . S
O134 Co102 1.920 . S
O134 C107 1.289 . S
C135 O127 1.258 . S
C135 O128 1.266 . S
Co136 O139 1.970 . S
Co136 N153 1.989 . S
Co136 O161 1.967 . S
Co136 O168 1.920 . S
Co137 O140 1.966 . S
Co137 N146 2.022 . S
Co137 N154 1.993 . S
Co137 O162 1.941 . S
C138 O139 1.258 . S
C138 O140 1.263 . S
O139 Co136 1.970 . S
O139 C138 1.258 . S
O140 Co137 1.966 . S
O140 C138 1.263 . S
C141 O142 1.235 . S
C141 O168 1.289 . S
O142 C141 1.235 . S
C143 C145 1.400 . S
C143 N146 1.351 . S
C143 C148 1.501 . S
C144 C145 1.387 . S
C144 N147 1.341 . S
C145 C143 1.400 . S
C145 C144 1.387 . S
N146 Co137 2.022 . S
N146 C143 1.351 . S
N146 N147 1.365 . S
N147 C144 1.341 . S
N147 N146 1.365 . S
N147 H167 0.862 . S
C148 C143 1.501 . S
C148 H149 0.961 . S
C148 H150 0.961 . S
C148 H151 0.960 . S
H149 C148 0.961 . S
H150 C148 0.961 . S
H151 C148 0.960 . S
C152 N153 1.342 . S
C152 C156 1.401 . S
C152 C157 1.499 . S
N153 Co136 1.989 . S
N153 C152 1.342 . S
N153 N154 1.388 . S
N154 Co137 1.993 . S
N154 N153 1.388 . S
N154 C155 1.346 . S
C155 N154 1.346 . S
C155 C156 1.396 . S
C155 C165 1.510 . S
C156 C152 1.401 . S
C156 C155 1.396 . S
C157 C152 1.499 . S
C157 H158 0.959 . S
C157 H159 0.960 . S
C157 H160 0.961 . S
H158 C157 0.959 . S
H159 C157 0.960 . S
H160 C157 0.961 . S
O161 Co136 1.967 . S
O161 C169 1.258 . S
O162 Co137 1.941 . S
O162 C169 1.266 . S
H163 C165 0.959 . S
H164 C165 0.961 . S
C165 C155 1.510 . S
C165 H163 0.959 . S
C165 H164 0.961 . S
C165 H166 0.960 . S
H166 C165 0.960 . S
H167 N147 0.862 . S
O168 Co136 1.920 . S
O168 C141 1.289 . S
C169 O161 1.258 . S
C169 O162 1.266 . S
Co170 O173 1.970 . S
Co170 N187 1.989 . S
Co170 O195 1.967 . S
Co170 O202 1.920 . S
Co171 O174 1.966 . S
Co171 N180 2.022 . S
Co171 N188 1.993 . S
Co171 O196 1.941 . S
C172 O173 1.258 . S
C172 O174 1.263 . S
O173 Co170 1.970 . S
O173 C172 1.258 . S
O174 Co171 1.966 . S
O174 C172 1.263 . S
C175 O176 1.235 . S
C175 O202 1.289 . S
O176 C175 1.235 . S
C177 C179 1.400 . S
C177 N180 1.351 . S
C177 C182 1.501 . S
C178 C179 1.387 . S
C178 N181 1.341 . S
C179 C177 1.400 . S
C179 C178 1.387 . S
N180 Co171 2.022 . S
N180 C177 1.351 . S
N180 N181 1.365 . S
N181 C178 1.341 . S
N181 N180 1.365 . S
N181 H201 0.862 . S
C182 C177 1.501 . S
C182 H183 0.961 . S
C182 H184 0.961 . S
C182 H185 0.960 . S
H183 C182 0.961 . S
H184 C182 0.961 . S
H185 C182 0.960 . S
C186 N187 1.342 . S
C186 C190 1.401 . S
C186 C191 1.499 . S
N187 Co170 1.989 . S
N187 C186 1.342 . S
N187 N188 1.388 . S
N188 Co171 1.993 . S
N188 N187 1.388 . S
N188 C189 1.346 . S
C189 N188 1.346 . S
C189 C190 1.396 . S
C189 C199 1.510 . S
C190 C186 1.401 . S
C190 C189 1.396 . S
C191 C186 1.499 . S
C191 H192 0.959 . S
C191 H193 0.960 . S
C191 H194 0.961 . S
H192 C191 0.959 . S
H193 C191 0.960 . S
H194 C191 0.961 . S
O195 Co170 1.967 . S
O195 C203 1.258 . S
O196 Co171 1.941 . S
O196 C203 1.266 . S
H197 C199 0.959 . S
H198 C199 0.961 . S
C199 C189 1.510 . S
C199 H197 0.959 . S
C199 H198 0.961 . S
C199 H200 0.960 . S
H200 C199 0.960 . S
H201 N181 0.862 . S
O202 Co170 1.920 . S
O202 C175 1.289 . S
C203 O195 1.258 . S
C203 O196 1.266 . S
Co204 O207 1.970 . S
Co204 N221 1.989 . S
Co204 O229 1.967 . S
Co204 O236 1.920 . S
Co205 O208 1.966 . S
Co205 N214 2.022 . S
Co205 N222 1.993 . S
Co205 O230 1.941 . S
C206 O207 1.258 . S
C206 O208 1.263 . S
O207 Co204 1.970 . S
O207 C206 1.258 . S
O208 Co205 1.966 . S
O208 C206 1.263 . S
C209 O210 1.235 . S
C209 O236 1.289 . S
O210 C209 1.235 . S
C211 C213 1.400 . S
C211 N214 1.351 . S
C211 C216 1.501 . S
C212 C213 1.387 . S
C212 N215 1.341 . S
C213 C211 1.400 . S
C213 C212 1.387 . S
N214 Co205 2.022 . S
N214 C211 1.351 . S
N214 N215 1.365 . S
N215 C212 1.341 . S
N215 N214 1.365 . S
N215 H235 0.862 . S
C216 C211 1.501 . S
C216 H217 0.961 . S
C216 H218 0.961 . S
C216 H219 0.960 . S
H217 C216 0.961 . S
H218 C216 0.961 . S
H219 C216 0.960 . S
C220 N221 1.342 . S
C220 C224 1.401 . S
C220 C225 1.499 . S
N221 Co204 1.989 . S
N221 C220 1.342 . S
N221 N222 1.388 . S
N222 Co205 1.993 . S
N222 N221 1.388 . S
N222 C223 1.346 . S
C223 N222 1.346 . S
C223 C224 1.396 . S
C223 C233 1.510 . S
C224 C220 1.401 . S
C224 C223 1.396 . S
C225 C220 1.499 . S
C225 H226 0.959 . S
C225 H227 0.960 . S
C225 H228 0.961 . S
H226 C225 0.959 . S
H227 C225 0.960 . S
H228 C225 0.961 . S
O229 Co204 1.967 . S
O229 C237 1.258 . S
O230 Co205 1.941 . S
O230 C237 1.266 . S
H231 C233 0.959 . S
H232 C233 0.961 . S
C233 C223 1.510 . S
C233 H231 0.959 . S
C233 H232 0.961 . S
C233 H234 0.960 . S
H234 C233 0.960 . S
H235 N215 0.862 . S
O236 Co204 1.920 . S
O236 C209 1.289 . S
C237 O229 1.258 . S
C237 O230 1.266 . S
Co238 O241 1.970 . S
Co238 N255 1.989 . S
Co238 O263 1.967 . S
Co238 O270 1.920 . S
Co239 O242 1.966 . S
Co239 N248 2.022 . S
Co239 N256 1.993 . S
Co239 O264 1.941 . S
C240 O241 1.258 . S
C240 O242 1.263 . S
O241 Co238 1.970 . S
O241 C240 1.258 . S
O242 Co239 1.966 . S
O242 C240 1.263 . S
C243 O244 1.235 . S
C243 O270 1.289 . S
O244 C243 1.235 . S
C245 C247 1.400 . S
C245 N248 1.351 . S
C245 C250 1.501 1_556 S
C246 C247 1.387 . S
C246 N249 1.341 . S
C247 C245 1.400 . S
C247 C246 1.387 . S
N248 Co239 2.022 . S
N248 C245 1.351 . S
N248 N249 1.365 . S
N249 C246 1.341 . S
N249 N248 1.365 . S
N249 H269 0.862 . S
C250 C245 1.501 1_554 S
C250 H251 0.961 . S
C250 H252 0.961 . S
C250 H253 0.960 . S
H251 C250 0.961 . S
H252 C250 0.961 . S
H253 C250 0.960 . S
C254 N255 1.342 . S
C254 C258 1.401 . S
C254 C259 1.499 . S
N255 Co238 1.989 . S
N255 C254 1.342 . S
N255 N256 1.388 . S
N256 Co239 1.993 . S
N256 N255 1.388 . S
N256 C257 1.346 . S
C257 N256 1.346 . S
C257 C258 1.396 . S
C257 C267 1.510 . S
C258 C254 1.401 . S
C258 C257 1.396 . S
C259 C254 1.499 . S
C259 H260 0.959 . S
C259 H261 0.960 . S
C259 H262 0.961 . S
H260 C259 0.959 . S
H261 C259 0.960 . S
H262 C259 0.961 . S
O263 Co238 1.967 . S
O263 C271 1.258 . S
O264 Co239 1.941 . S
O264 C271 1.266 . S
H265 C267 0.959 . S
H266 C267 0.961 . S
C267 C257 1.510 . S
C267 H265 0.959 . S
C267 H266 0.961 . S
C267 H268 0.960 . S
H268 C267 0.960 . S
H269 N249 0.862 . S
O270 Co238 1.920 . S
O270 C243 1.289 . S
C271 O263 1.258 . S
C271 O264 1.266 . S
Co272 O275 1.970 . S
Co272 N289 1.989 . S
Co272 O297 1.967 . S
Co272 O304 1.920 . S
Co273 O276 1.966 . S
Co273 N282 2.022 . S
Co273 N290 1.993 . S
Co273 O298 1.941 . S
C274 O275 1.258 . S
C274 O276 1.263 . S
O275 Co272 1.970 . S
O275 C274 1.258 . S
O276 Co273 1.966 . S
O276 C274 1.263 . S
C277 O278 1.235 . S
C277 O304 1.289 . S
O278 C277 1.235 . S
C279 C281 1.400 . S
C279 N282 1.351 . S
C279 C284 1.501 . S
C280 C281 1.387 . S
C280 N283 1.341 . S
C281 C279 1.400 . S
C281 C280 1.387 . S
N282 Co273 2.022 . S
N282 C279 1.351 . S
N282 N283 1.365 . S
N283 C280 1.341 . S
N283 N282 1.365 . S
N283 H303 0.862 . S
C284 C279 1.501 . S
C284 H285 0.961 . S
C284 H286 0.961 . S
C284 H287 0.960 . S
H285 C284 0.961 . S
H286 C284 0.961 . S
H287 C284 0.960 . S
C288 N289 1.342 . S
C288 C292 1.401 . S
C288 C293 1.499 . S
N289 Co272 1.989 . S
N289 C288 1.342 . S
N289 N290 1.388 . S
N290 Co273 1.993 . S
N290 N289 1.388 . S
N290 C291 1.346 . S
C291 N290 1.346 . S
C291 C292 1.396 . S
C291 C301 1.510 . S
C292 C288 1.401 . S
C292 C291 1.396 . S
C293 C288 1.499 . S
C293 H294 0.959 . S
C293 H295 0.960 . S
C293 H296 0.961 . S
H294 C293 0.959 . S
H295 C293 0.960 . S
H296 C293 0.961 . S
O297 Co272 1.967 . S
O297 C305 1.258 . S
O298 Co273 1.941 . S
O298 C305 1.266 . S
H299 C301 0.959 . S
H300 C301 0.961 . S
C301 C291 1.510 . S
C301 H299 0.959 . S
C301 H300 0.961 . S
C301 H302 0.960 . S
H302 C301 0.960 . S
H303 N283 0.862 . S
O304 Co272 1.920 . S
O304 C277 1.289 . S
C305 O297 1.258 . S
C305 O298 1.266 . S
Co306 O309 1.970 . S
Co306 N323 1.989 . S
Co306 O331 1.967 . S
Co306 O338 1.920 . S
Co307 O310 1.966 . S
Co307 N316 2.022 . S
Co307 N324 1.993 . S
Co307 O332 1.941 . S
C308 O309 1.258 . S
C308 O310 1.263 . S
O309 Co306 1.970 . S
O309 C308 1.258 . S
O310 Co307 1.966 . S
O310 C308 1.263 . S
C311 O312 1.235 . S
C311 O338 1.289 . S
O312 C311 1.235 . S
C313 C315 1.400 . S
C313 N316 1.351 . S
C313 C318 1.501 . S
C314 C315 1.387 . S
C314 N317 1.341 . S
C315 C313 1.400 . S
C315 C314 1.387 . S
N316 Co307 2.022 . S
N316 C313 1.351 . S
N316 N317 1.365 . S
N317 C314 1.341 . S
N317 N316 1.365 . S
N317 H337 0.862 . S
C318 C313 1.501 . S
C318 H319 0.961 . S
C318 H320 0.961 . S
C318 H321 0.960 . S
H319 C318 0.961 . S
H320 C318 0.961 . S
H321 C318 0.960 . S
C322 N323 1.342 . S
C322 C326 1.401 . S
C322 C327 1.499 . S
N323 Co306 1.989 . S
N323 C322 1.342 . S
N323 N324 1.388 . S
N324 Co307 1.993 . S
N324 N323 1.388 . S
N324 C325 1.346 . S
C325 N324 1.346 . S
C325 C326 1.396 . S
C325 C335 1.510 . S
C326 C322 1.401 . S
C326 C325 1.396 . S
C327 C322 1.499 . S
C327 H328 0.959 . S
C327 H329 0.960 . S
C327 H330 0.961 . S
H328 C327 0.959 . S
H329 C327 0.960 . S
H330 C327 0.961 . S
O331 Co306 1.967 . S
O331 C339 1.258 . S
O332 Co307 1.941 . S
O332 C339 1.266 . S
H333 C335 0.959 . S
H334 C335 0.961 . S
C335 C325 1.510 . S
C335 H333 0.959 . S
C335 H334 0.961 . S
C335 H336 0.960 . S
H336 C335 0.960 . S
H337 N317 0.862 . S
O338 Co306 1.920 . S
O338 C311 1.289 . S
C339 O331 1.258 . S
C339 O332 1.266 . S
Co340 O343 1.970 . S
Co340 N357 1.989 . S
Co340 O365 1.967 . S
Co340 O372 1.920 . S
Co341 O344 1.966 . S
Co341 N350 2.022 . S
Co341 N358 1.993 . S
Co341 O366 1.941 . S
C342 O343 1.258 . S
C342 O344 1.263 . S
O343 Co340 1.970 . S
O343 C342 1.258 . S
O344 Co341 1.966 . S
O344 C342 1.263 . S
C345 O346 1.235 . S
C345 O372 1.289 . S
O346 C345 1.235 . S
C347 C349 1.400 . S
C347 N350 1.351 . S
C347 C352 1.501 . S
C348 C349 1.387 . S
C348 N351 1.341 . S
C349 C347 1.400 . S
C349 C348 1.387 . S
N350 Co341 2.022 . S
N350 C347 1.351 . S
N350 N351 1.365 . S
N351 C348 1.341 . S
N351 N350 1.365 . S
N351 H371 0.862 . S
C352 C347 1.501 . S
C352 H353 0.961 . S
C352 H354 0.961 . S
C352 H355 0.960 . S
H353 C352 0.961 . S
H354 C352 0.961 . S
H355 C352 0.960 . S
C356 N357 1.342 . S
C356 C360 1.401 . S
C356 C361 1.499 . S
N357 Co340 1.989 . S
N357 C356 1.342 . S
N357 N358 1.388 . S
N358 Co341 1.993 . S
N358 N357 1.388 . S
N358 C359 1.346 . S
C359 N358 1.346 . S
C359 C360 1.396 . S
C359 C369 1.510 . S
C360 C356 1.401 . S
C360 C359 1.396 . S
C361 C356 1.499 . S
C361 H362 0.959 . S
C361 H363 0.960 . S
C361 H364 0.961 . S
H362 C361 0.959 . S
H363 C361 0.960 . S
H364 C361 0.961 . S
O365 Co340 1.967 . S
O365 C373 1.258 . S
O366 Co341 1.941 . S
O366 C373 1.266 . S
H367 C369 0.959 . S
H368 C369 0.961 . S
C369 C359 1.510 . S
C369 H367 0.959 . S
C369 H368 0.961 . S
C369 H370 0.960 . S
H370 C369 0.960 . S
H371 N351 0.862 . S
O372 Co340 1.920 . S
O372 C345 1.289 . S
C373 O365 1.258 . S
C373 O366 1.266 . S
Co374 O377 1.970 . S
Co374 N391 1.989 . S
Co374 O399 1.967 . S
Co374 O406 1.920 . S
Co375 O378 1.966 . S
Co375 N384 2.022 . S
Co375 N392 1.993 . S
Co375 O400 1.941 . S
C376 O377 1.258 . S
C376 O378 1.263 . S
O377 Co374 1.970 . S
O377 C376 1.258 . S
O378 Co375 1.966 . S
O378 C376 1.263 . S
C379 O380 1.235 . S
C379 O406 1.289 . S
O380 C379 1.235 . S
C381 C383 1.400 . S
C381 N384 1.351 . S
C381 C386 1.501 . S
C382 C383 1.387 . S
C382 N385 1.341 . S
C383 C381 1.400 . S
C383 C382 1.387 . S
N384 Co375 2.022 . S
N384 C381 1.351 . S
N384 N385 1.365 . S
N385 C382 1.341 . S
N385 N384 1.365 . S
N385 H405 0.862 . S
C386 C381 1.501 . S
C386 H387 0.961 . S
C386 H388 0.961 . S
C386 H389 0.960 . S
H387 C386 0.961 . S
H388 C386 0.961 . S
H389 C386 0.960 . S
C390 N391 1.342 . S
C390 C394 1.401 . S
C390 C395 1.499 . S
N391 Co374 1.989 . S
N391 C390 1.342 . S
N391 N392 1.388 . S
N392 Co375 1.993 . S
N392 N391 1.388 . S
N392 C393 1.346 . S
C393 N392 1.346 . S
C393 C394 1.396 . S
C393 C403 1.510 . S
C394 C390 1.401 . S
C394 C393 1.396 . S
C395 C390 1.499 . S
C395 H396 0.959 . S
C395 H397 0.960 . S
C395 H398 0.961 . S
H396 C395 0.959 . S
H397 C395 0.960 . S
H398 C395 0.961 . S
O399 Co374 1.967 . S
O399 C407 1.258 . S
O400 Co375 1.941 . S
O400 C407 1.266 . S
H401 C403 0.959 . S
H402 C403 0.961 . S
C403 C393 1.510 . S
C403 H401 0.959 . S
C403 H402 0.961 . S
C403 H404 0.960 . S
H404 C403 0.960 . S
H405 N385 0.862 . S
O406 Co374 1.920 . S
O406 C379 1.289 . S
C407 O399 1.258 . S
C407 O400 1.266 . S
H408 C416 0.950 . S
H409 C421 0.950 . S
H410 C418 0.950 . S
H411 C420 0.950 . S
H412 C422 0.950 1_565 S
H413 C424 0.950 . S
H414 C426 0.950 . S
H415 C427 0.950 . S
C416 H408 0.950 . S
C416 C417 1.386 . S
C416 C418 1.391 . S
C417 C416 1.386 . S
C417 C421 1.393 . S
C418 H410 0.950 . S
C418 C416 1.391 . S
C418 C419 1.400 . S
C419 C418 1.400 . S
C419 C420 1.398 . S
C419 C425 1.491 . S
C420 H411 0.950 . S
C420 C419 1.398 . S
C420 C421 1.391 . S
C421 H409 0.950 . S
C421 C417 1.393 . S
C421 C420 1.391 . S
C422 H412 0.950 1_545 S
C422 C423 1.386 . S
C422 C424 1.391 . S
C423 C422 1.386 . S
C423 C427 1.393 . S
C424 H413 0.950 . S
C424 C422 1.391 . S
C424 C425 1.400 . S
C425 C419 1.491 . S
C425 C424 1.400 . S
C425 C426 1.398 . S
C426 H414 0.950 . S
C426 C425 1.398 . S
C426 C427 1.391 . S
C427 H415 0.950 . S
C427 C423 1.393 . S
C427 C426 1.391 . S
H428 C436 0.950 . S
H429 C441 0.950 . S
H430 C438 0.950 . S
H431 C440 0.950 . S
H432 C442 0.950 1_655 S
H433 C444 0.950 . S
H434 C446 0.950 . S
H435 C447 0.950 . S
C436 H428 0.950 . S
C436 C437 1.386 . S
C436 C438 1.391 . S
C437 C436 1.386 . S
C437 C441 1.393 . S
C438 H430 0.950 . S
C438 C436 1.391 . S
C438 C439 1.400 . S
C439 C438 1.400 . S
C439 C440 1.398 . S
C439 C445 1.491 . S
C440 H431 0.950 . S
C440 C439 1.398 . S
C440 C441 1.391 . S
C441 H429 0.950 . S
C441 C437 1.393 . S
C441 C440 1.391 . S
C442 H432 0.950 1_455 S
C442 C443 1.386 . S
C442 C444 1.391 . S
C443 C442 1.386 . S
C443 C447 1.393 . S
C444 H433 0.950 . S
C444 C442 1.391 . S
C444 C445 1.400 . S
C445 C439 1.491 . S
C445 C444 1.400 . S
C445 C446 1.398 . S
C446 H434 0.950 . S
C446 C445 1.398 . S
C446 C447 1.391 . S
C447 H435 0.950 . S
C447 C443 1.393 . S
C447 C446 1.391 . S
H448 C456 0.950 1_455 S
H449 C461 0.950 . S
H450 C458 0.950 . S
H451 C460 0.950 . S
H452 C462 0.950 . S
H453 C464 0.950 . S
H454 C466 0.950 . S
H455 C467 0.950 1_565 S
C456 H448 0.950 1_655 S
C456 C457 1.386 . S
C456 C458 1.391 . S
C457 C456 1.386 . S
C457 C461 1.393 . S
C458 H450 0.950 . S
C458 C456 1.391 . S
C458 C459 1.400 . S
C459 C458 1.400 . S
C459 C460 1.398 . S
C459 C465 1.491 . S
C460 H451 0.950 . S
C460 C459 1.398 . S
C460 C461 1.391 . S
C461 H449 0.950 . S
C461 C457 1.393 . S
C461 C460 1.391 . S
C462 H452 0.950 . S
C462 C463 1.386 . S
C462 C464 1.391 . S
C463 C462 1.386 . S
C463 C467 1.393 . S
C464 H453 0.950 . S
C464 C462 1.391 . S
C464 C465 1.400 . S
C465 C459 1.491 . S
C465 C464 1.400 . S
C465 C466 1.398 . S
C466 H454 0.950 . S
C466 C465 1.398 . S
C466 C467 1.391 . S
C467 H455 0.950 1_545 S
C467 C463 1.393 . S
C467 C466 1.391 . S
H468 C476 0.950 . S
H469 C481 0.950 . S
H470 C478 0.950 . S
H471 C480 0.950 . S
H472 C482 0.950 . S
H473 C484 0.950 . S
H474 C486 0.950 . S
H475 C487 0.963 . S
C476 H468 0.950 . S
C476 C477 1.386 . S
C476 C478 1.391 . S
C477 C476 1.386 . S
C477 C481 1.393 . S
C478 H470 0.950 . S
C478 C476 1.391 . S
C478 C479 1.400 . S
C479 C478 1.400 . S
C479 C480 1.398 . S
C479 C485 1.491 . S
C480 H471 0.950 . S
C480 C479 1.398 . S
C480 C481 1.391 . S
C481 H469 0.950 . S
C481 C477 1.393 . S
C481 C480 1.391 . S
C482 H472 0.950 . S
C482 C483 1.386 . S
C482 C484 1.391 . S
C483 C482 1.386 . S
C483 C487 1.390 1_565 S
C484 H473 0.950 . S
C484 C482 1.391 . S
C484 C485 1.400 . S
C485 C479 1.491 . S
C485 C484 1.400 . S
C485 C486 1.398 . S
C486 H474 0.950 . S
C486 C485 1.398 . S
C486 C487 1.380 1_565 S
C487 H475 0.963 . S
C487 C483 1.390 1_545 S
C487 C486 1.380 1_545 S
H488 C496 0.950 . S
H489 C501 0.950 1_455 S
H490 C498 0.950 . S
H491 C500 0.950 . S
H492 C502 0.950 . S
H493 C504 0.950 . S
H494 C506 0.950 . S
H495 C507 0.950 . S
C496 H488 0.950 . S
C496 C497 1.386 . S
C496 C498 1.391 . S
C497 C496 1.386 . S
C497 C501 1.393 . S
C498 H490 0.950 . S
C498 C496 1.391 . S
C498 C499 1.400 . S
C499 C498 1.400 . S
C499 C500 1.398 . S
C499 C505 1.491 . S
C500 H491 0.950 . S
C500 C499 1.398 . S
C500 C501 1.391 . S
C501 H489 0.950 1_655 S
C501 C497 1.393 . S
C501 C500 1.391 . S
C502 H492 0.950 . S
C502 C503 1.386 . S
C502 C504 1.391 . S
C503 C502 1.386 . S
C503 C507 1.393 . S
C504 H493 0.950 . S
C504 C502 1.391 . S
C504 C505 1.400 . S
C505 C499 1.491 . S
C505 C504 1.400 . S
C505 C506 1.398 . S
C506 H494 0.950 . S
C506 C505 1.398 . S
C506 C507 1.391 . S
C507 H495 0.950 . S
C507 C503 1.393 . S
C507 C506 1.391 . S
H508 C516 0.950 . S
H509 C521 0.950 . S
H510 C518 0.950 . S
H511 C520 0.950 . S
H512 C522 0.950 1_655 S
H513 C524 0.950 . S
H514 C526 0.950 . S
H515 C527 0.950 . S
C516 H508 0.950 . S
C516 C517 1.386 . S
C516 C518 1.391 . S
C517 C516 1.386 . S
C517 C521 1.393 . S
C518 H510 0.950 . S
C518 C516 1.391 . S
C518 C519 1.400 . S
C519 C518 1.400 . S
C519 C520 1.398 . S
C519 C525 1.491 . S
C520 H511 0.950 . S
C520 C519 1.398 . S
C520 C521 1.391 . S
C521 H509 0.950 . S
C521 C517 1.393 . S
C521 C520 1.391 . S
C522 H512 0.950 1_455 S
C522 C523 1.386 . S
C522 C524 1.391 . S
C523 C522 1.386 . S
C523 C527 1.393 . S
C524 H513 0.950 . S
C524 C522 1.391 . S
C524 C525 1.400 . S
C525 C519 1.491 . S
C525 C524 1.400 . S
C525 C526 1.398 . S
C526 H514 0.950 . S
C526 C525 1.398 . S
C526 C527 1.391 . S
C527 H515 0.950 . S
C527 C523 1.393 . S
C527 C526 1.391 . S
H528 C536 0.950 . S
H529 C541 0.950 . S
H530 C538 0.950 . S
H531 C540 0.950 . S
H532 C542 0.950 1_556 S
H533 C544 0.952 . S
H534 C546 0.950 . S
H535 C547 0.950 . S
C536 H528 0.950 . S
C536 C537 1.386 . S
C536 C538 1.391 . S
C537 C536 1.386 . S
C537 C541 1.393 1_554 S
C538 H530 0.950 . S
C538 C536 1.391 . S
C538 C539 1.400 . S
C539 C538 1.400 . S
C539 C540 1.398 1_554 S
C539 C545 1.491 . S
C540 H531 0.950 . S
C540 C539 1.398 1_556 S
C540 C541 1.391 . S
C541 H529 0.950 . S
C541 C537 1.393 1_556 S
C541 C540 1.391 . S
C542 H532 0.950 1_554 S
C542 C543 1.386 . S
C542 C544 1.391 1_554 S
C543 C542 1.386 . S
C543 C547 1.393 . S
C544 H533 0.952 . S
C544 C542 1.391 1_556 S
C544 C545 1.399 1_556 S
C545 C539 1.491 . S
C545 C544 1.399 1_554 S
C545 C546 1.398 . S
C546 H534 0.950 . S
C546 C545 1.398 . S
C546 C547 1.391 . S
C547 H535 0.950 . S
C547 C543 1.393 . S
C547 C546 1.391 . S
H548 C556 0.950 . S
H549 C561 0.950 . S
H550 C558 0.950 1_455 S
H551 C560 0.950 . S
H552 C562 0.950 . S
H553 C564 0.950 . S
H554 C566 0.950 . S
H555 C567 0.950 . S
C556 H548 0.950 . S
C556 C557 1.386 . S
C556 C558 1.391 . S
C557 C556 1.386 . S
C557 C561 1.393 . S
C558 H550 0.950 1_655 S
C558 C556 1.391 . S
C558 C559 1.400 . S
C559 C558 1.400 . S
C559 C560 1.398 . S
C559 C565 1.491 1_655 S
C560 H551 0.950 . S
C560 C559 1.398 . S
C560 C561 1.391 . S
C561 H549 0.950 . S
C561 C557 1.393 . S
C561 C560 1.391 . S
C562 H552 0.950 . S
C562 C563 1.386 . S
C562 C564 1.391 1_455 S
C563 C562 1.386 . S
C563 C567 1.393 . S
C564 H553 0.950 . S
C564 C562 1.391 1_655 S
C564 C565 1.400 1_655 S
C565 C559 1.491 1_455 S
C565 C564 1.400 1_455 S
C565 C566 1.398 . S
C566 H554 0.950 . S
C566 C565 1.398 . S
C566 C567 1.391 . S
C567 H555 0.950 . S
C567 C563 1.393 . S
C567 C566 1.391 . S
H568 C576 0.950 . S
H569 C581 0.950 . S
H570 C578 0.950 . S
H571 C580 0.950 . S
H572 C582 0.950 . S
H573 C584 0.950 1_545 S
H574 C586 0.950 . S
H575 C587 0.950 . S
C576 H568 0.950 . S
C576 C577 1.386 . S
C576 C578 1.391 1_545 S
C577 C576 1.386 . S
C577 C581 1.393 . S
C578 H570 0.950 . S
C578 C576 1.391 1_565 S
C578 C579 1.400 1_565 S
C579 C578 1.400 1_545 S
C579 C580 1.398 . S
C579 C585 1.491 1_545 S
C580 H571 0.950 . S
C580 C579 1.398 . S
C580 C581 1.391 . S
C581 H569 0.950 . S
C581 C577 1.393 . S
C581 C580 1.391 . S
C582 H572 0.950 . S
C582 C583 1.386 . S
C582 C584 1.391 . S
C583 C582 1.386 . S
C583 C587 1.393 . S
C584 H573 0.950 1_565 S
C584 C582 1.391 . S
C584 C585 1.400 . S
C585 C579 1.491 1_565 S
C585 C584 1.400 . S
C585 C586 1.398 . S
C586 H574 0.950 . S
C586 C585 1.398 . S
C586 C587 1.391 . S
C587 H575 0.950 . S
C587 C583 1.393 . S
C587 C586 1.391 . S
H588 C596 0.950 . S
H589 C601 0.950 . S
H590 C598 0.950 . S
H591 C600 0.950 . S
H592 C602 0.950 . S
H593 C604 0.950 . S
H594 C606 0.950 . S
H595 C607 0.950 . S
C596 H588 0.950 . S
C596 C597 1.386 . S
C596 C598 1.391 . S
C597 C596 1.386 . S
C597 C601 1.393 . S
C598 H590 0.950 . S
C598 C596 1.391 . S
C598 C599 1.400 . S
C599 C598 1.400 . S
C599 C600 1.398 . S
C599 C605 1.491 . S
C600 H591 0.950 . S
C600 C599 1.398 . S
C600 C601 1.391 . S
C601 H589 0.950 . S
C601 C597 1.393 . S
C601 C600 1.391 . S
C602 H592 0.950 . S
C602 C603 1.386 . S
C602 C604 1.391 . S
C603 C602 1.386 . S
C603 C607 1.393 . S
C604 H593 0.950 . S
C604 C602 1.391 . S
C604 C605 1.400 . S
C605 C599 1.491 . S
C605 C604 1.400 . S
C605 C606 1.398 . S
C606 H594 0.950 . S
C606 C605 1.398 . S
C606 C607 1.391 . S
C607 H595 0.950 . S
C607 C603 1.393 . S
C607 C606 1.391 . S
H608 C616 0.950 . S
H609 C621 0.950 . S
H610 C618 0.950 1_455 S
H611 C620 0.950 . S
H612 C622 0.950 . S
H613 C624 0.950 . S
H614 C626 0.950 . S
H615 C627 0.950 . S
C616 H608 0.950 . S
C616 C617 1.386 . S
C616 C618 1.391 . S
C617 C616 1.386 . S
C617 C621 1.393 . S
C618 H610 0.950 1_655 S
C618 C616 1.391 . S
C618 C619 1.400 . S
C619 C618 1.400 . S
C619 C620 1.398 . S
C619 C625 1.491 1_655 S
C620 H611 0.950 . S
C620 C619 1.398 . S
C620 C621 1.391 . S
C621 H609 0.950 . S
C621 C617 1.393 . S
C621 C620 1.391 . S
C622 H612 0.950 . S
C622 C623 1.386 . S
C622 C624 1.391 . S
C623 C622 1.386 . S
C623 C627 1.393 . S
C624 H613 0.950 . S
C624 C622 1.391 . S
C624 C625 1.400 . S
C625 C619 1.491 1_455 S
C625 C624 1.400 . S
C625 C626 1.398 . S
C626 H614 0.950 . S
C626 C625 1.398 . S
C626 C627 1.391 . S
C627 H615 0.950 . S
C627 C623 1.393 . S
C627 C626 1.391 . S
H628 C636 0.950 . S
H629 C641 0.950 . S
H630 C638 0.950 . S
H631 C640 0.950 . S
H632 C642 0.950 . S
H633 C644 0.950 1_565 S
H634 C646 0.950 . S
H635 C647 0.950 . S
C636 H628 0.950 . S
C636 C637 1.386 . S
C636 C638 1.391 1_565 S
C637 C636 1.386 . S
C637 C641 1.393 . S
C638 H630 0.950 . S
C638 C636 1.391 1_545 S
C638 C639 1.400 1_545 S
C639 C638 1.400 1_565 S
C639 C640 1.398 . S
C639 C645 1.491 1_565 S
C640 H631 0.950 . S
C640 C639 1.398 . S
C640 C641 1.391 . S
C641 H629 0.950 . S
C641 C637 1.393 . S
C641 C640 1.391 . S
C642 H632 0.950 . S
C642 C643 1.386 . S
C642 C644 1.391 . S
C643 C642 1.386 . S
C643 C647 1.393 . S
C644 H633 0.950 1_545 S
C644 C642 1.391 . S
C644 C645 1.400 . S
C645 C639 1.491 1_545 S
C645 C644 1.400 . S
C645 C646 1.398 . S
C646 H634 0.950 . S
C646 C645 1.398 . S
C646 C647 1.391 . S
C647 H635 0.950 . S
C647 C643 1.393 . S
C647 C646 1.391 . S
H648 C656 0.950 . S
H649 C661 0.950 . S
H650 C658 0.950 . S
H651 C660 0.950 . S
H652 C662 0.950 . S
H653 C664 0.950 . S
H654 C666 0.950 . S
H655 C667 0.950 . S
C656 H648 0.950 . S
C656 C657 1.386 . S
C656 C658 1.391 . S
C657 C656 1.386 . S
C657 C661 1.393 . S
C658 H650 0.950 . S
C658 C656 1.391 . S
C658 C659 1.400 . S
C659 C658 1.400 . S
C659 C660 1.398 . S
C659 C665 1.491 . S
C660 H651 0.950 . S
C660 C659 1.398 . S
C660 C661 1.391 . S
C661 H649 0.950 . S
C661 C657 1.393 . S
C661 C660 1.391 . S
C662 H652 0.950 . S
C662 C663 1.386 . S
C662 C664 1.391 . S
C663 C662 1.386 . S
C663 C667 1.393 . S
C664 H653 0.950 . S
C664 C662 1.391 . S
C664 C665 1.400 . S
C665 C659 1.491 . S
C665 C664 1.400 . S
C665 C666 1.398 . S
C666 H654 0.950 . S
C666 C665 1.398 . S
C666 C667 1.391 . S
C667 H655 0.950 . S
C667 C663 1.393 . S
C667 C666 1.391 . S
H668 C676 0.950 . S
H669 C681 0.950 . S
H670 C678 0.950 . S
H671 C680 0.950 1_455 S
H672 C682 0.950 1_554 S
H673 C684 0.931 1_554 S
H674 C686 0.936 1_655 S
H675 C687 0.950 . S
C676 H668 0.950 . S
C676 C677 1.386 . S
C676 C678 1.391 . S
C677 C676 1.386 . S
C677 C681 1.393 . S
C678 H670 0.950 . S
C678 C676 1.391 . S
C678 C679 1.400 . S
C679 C678 1.400 . S
C679 C680 1.398 . S
C679 C685 1.491 1_655 S
C680 H671 0.950 1_655 S
C680 C679 1.398 . S
C680 C681 1.391 . S
C681 H669 0.950 . S
C681 C677 1.393 . S
C681 C680 1.391 . S
C682 H672 0.950 1_556 S
C682 C683 1.386 . S
C682 C684 1.391 . S
C683 C682 1.386 . S
C683 C687 1.393 . S
C684 H673 0.931 1_556 S
C684 C682 1.391 . S
C684 C685 1.400 . S
C685 C679 1.491 1_455 S
C685 C684 1.400 . S
C685 C686 1.390 . S
C686 H674 0.936 1_455 S
C686 C685 1.390 . S
C686 C687 1.412 . S
C687 H675 0.950 . S
C687 C683 1.393 . S
C687 C686 1.412 . S
H688 C696 0.950 . S
H689 C701 0.950 . S
H690 C698 0.950 1_545 S
H691 C700 0.950 . S
H692 C702 0.950 . S
H693 C704 0.950 . S
H694 C706 0.950 . S
H695 C707 0.950 . S
C696 H688 0.950 . S
C696 C697 1.386 . S
C696 C698 1.391 . S
C697 C696 1.386 . S
C697 C701 1.393 . S
C698 H690 0.950 1_565 S
C698 C696 1.391 . S
C698 C699 1.400 . S
C699 C698 1.400 . S
C699 C700 1.398 . S
C699 C705 1.491 1_565 S
C700 H691 0.950 . S
C700 C699 1.398 . S
C700 C701 1.391 . S
C701 H689 0.950 . S
C701 C697 1.393 . S
C701 C700 1.391 . S
C702 H692 0.950 . S
C702 C703 1.386 . S
C702 C704 1.391 1_545 S
C703 C702 1.386 . S
C703 C707 1.393 . S
C704 H693 0.950 . S
C704 C702 1.391 1_565 S
C704 C705 1.400 1_565 S
C705 C699 1.491 1_545 S
C705 C704 1.400 1_545 S
C705 C706 1.398 . S
C706 H694 0.950 . S
C706 C705 1.398 . S
C706 C707 1.391 . S
C707 H695 0.950 . S
C707 C703 1.393 . S
C707 C706 1.391 . S
H708 C716 0.950 . S
H709 C721 0.950 . S
H710 C718 0.950 . S
H711 C720 0.950 . S
H712 C722 0.950 . S
H713 C724 0.950 . S
H714 C726 0.950 . S
H715 C727 0.950 . S
C716 H708 0.950 . S
C716 C717 1.386 . S
C716 C718 1.391 . S
C717 C716 1.386 . S
C717 C721 1.393 . S
C718 H710 0.950 . S
C718 C716 1.391 . S
C718 C719 1.400 . S
C719 C718 1.400 . S
C719 C720 1.398 . S
C719 C725 1.491 . S
C720 H711 0.950 . S
C720 C719 1.398 . S
C720 C721 1.391 . S
C721 H709 0.950 . S
C721 C717 1.393 . S
C721 C720 1.391 . S
C722 H712 0.950 . S
C722 C723 1.386 . S
C722 C724 1.391 . S
C723 C722 1.386 . S
C723 C727 1.393 . S
C724 H713 0.950 . S
C724 C722 1.391 . S
C724 C725 1.400 . S
C725 C719 1.491 . S
C725 C724 1.400 . S
C725 C726 1.398 . S
C726 H714 0.950 . S
C726 C725 1.398 . S
C726 C727 1.391 . S
C727 H715 0.950 . S
C727 C723 1.393 . S
C727 C726 1.391 . S
H728 C736 0.950 . S
H729 C741 0.950 . S
H730 C738 0.950 . S
H731 C740 0.950 1_455 S
H732 C742 0.950 . S
H733 C744 0.950 . S
H734 C746 0.950 . S
H735 C747 0.950 . S
C736 H728 0.950 . S
C736 C737 1.386 . S
C736 C738 1.391 . S
C737 C736 1.386 . S
C737 C741 1.393 . S
C738 H730 0.950 . S
C738 C736 1.391 . S
C738 C739 1.400 . S
C739 C738 1.400 . S
C739 C740 1.398 . S
C739 C745 1.491 1_655 S
C740 H731 0.950 1_655 S
C740 C739 1.398 . S
C740 C741 1.391 . S
C741 H729 0.950 . S
C741 C737 1.393 . S
C741 C740 1.391 . S
C742 H732 0.950 . S
C742 C743 1.386 . S
C742 C744 1.391 . S
C743 C742 1.386 . S
C743 C747 1.393 . S
C744 H733 0.950 . S
C744 C742 1.391 . S
C744 C745 1.400 . S
C745 C739 1.491 1_455 S
C745 C744 1.400 . S
C745 C746 1.398 . S
C746 H734 0.950 . S
C746 C745 1.398 . S
C746 C747 1.391 . S
C747 H735 0.950 . S
C747 C743 1.393 . S
C747 C746 1.391 . S
H748 C756 0.950 . S
H749 C761 0.950 . S
H750 C758 0.950 . S
H751 C760 0.950 . S
H752 C762 0.950 . S
H753 C764 0.950 . S
H754 C766 0.950 1_565 S
H755 C767 0.950 . S
C756 H748 0.950 . S
C756 C757 1.386 . S
C756 C758 1.391 . S
C757 C756 1.386 . S
C757 C761 1.393 . S
C758 H750 0.950 . S
C758 C756 1.391 . S
C758 C759 1.400 . S
C759 C758 1.400 . S
C759 C760 1.398 1_565 S
C759 C765 1.491 1_565 S
C760 H751 0.950 . S
C760 C759 1.398 1_545 S
C760 C761 1.391 1_545 S
C761 H749 0.950 . S
C761 C757 1.393 . S
C761 C760 1.391 1_565 S
C762 H752 0.950 . S
C762 C763 1.386 . S
C762 C764 1.391 . S
C763 C762 1.386 . S
C763 C767 1.393 . S
C764 H753 0.950 . S
C764 C762 1.391 . S
C764 C765 1.400 . S
C765 C759 1.491 1_545 S
C765 C764 1.400 . S
C765 C766 1.398 . S
C766 H754 0.950 1_545 S
C766 C765 1.398 . S
C766 C767 1.391 . S
C767 H755 0.950 . S
C767 C763 1.393 . S
C767 C766 1.391 . S
H768 C776 0.950 . S
H769 C781 0.950 . S
H770 C778 0.950 . S
H771 C780 0.950 . S
H772 C782 0.950 . S
H773 C784 0.950 . S
H774 C786 0.950 . S
H775 C787 0.950 . S
C776 H768 0.950 . S
C776 C777 1.386 . S
C776 C778 1.391 . S
C777 C776 1.386 . S
C777 C781 1.393 . S
C778 H770 0.950 . S
C778 C776 1.391 . S
C778 C779 1.400 . S
C779 C778 1.400 . S
C779 C780 1.398 . S
C779 C785 1.491 . S
C780 H771 0.950 . S
C780 C779 1.398 . S
C780 C781 1.391 . S
C781 H769 0.950 . S
C781 C777 1.393 . S
C781 C780 1.391 . S
C782 H772 0.950 . S
C782 C783 1.386 . S
C782 C784 1.391 . S
C783 C782 1.386 . S
C783 C787 1.393 . S
C784 H773 0.950 . S
C784 C782 1.391 . S
C784 C785 1.400 . S
C785 C779 1.491 . S
C785 C784 1.400 . S
C785 C786 1.398 . S
C786 H774 0.950 . S
C786 C785 1.398 . S
C786 C787 1.391 . S
C787 H775 0.950 . S
C787 C783 1.393 . S
C787 C786 1.391 . S
H788 C796 0.950 . S
H789 C801 0.950 . S
H790 C798 0.950 . S
H791 C800 0.950 . S
H792 C802 0.950 . S
H793 C804 0.950 1_455 S
H794 C806 0.950 . S
H795 C807 0.950 . S
C796 H788 0.950 . S
C796 C797 1.386 . S
C796 C798 1.391 1_455 S
C797 C796 1.386 . S
C797 C801 1.393 . S
C798 H790 0.950 . S
C798 C796 1.391 1_655 S
C798 C799 1.400 1_655 S
C799 C798 1.400 1_455 S
C799 C800 1.398 . S
C799 C805 1.491 1_455 S
C800 H791 0.950 . S
C800 C799 1.398 . S
C800 C801 1.391 . S
C801 H789 0.950 . S
C801 C797 1.393 . S
C801 C800 1.391 . S
C802 H792 0.950 . S
C802 C803 1.386 . S
C802 C804 1.391 . S
C803 C802 1.386 . S
C803 C807 1.393 . S
C804 H793 0.950 1_655 S
C804 C802 1.391 . S
C804 C805 1.400 . S
C805 C799 1.491 1_655 S
C805 C804 1.400 . S
C805 C806 1.398 . S
C806 H794 0.950 . S
C806 C805 1.398 . S
C806 C807 1.391 . S
C807 H795 0.950 . S
C807 C803 1.393 . S
C807 C806 1.391 . S
H808 C816 0.950 . S
H809 C821 0.950 . S
H810 C818 0.950 1_545 S
H811 C820 0.950 . S
H812 C822 0.950 . S
H813 C824 0.950 . S
H814 C826 0.950 . S
H815 C827 0.950 . S
C816 H808 0.950 . S
C816 C817 1.386 . S
C816 C818 1.391 . S
C817 C816 1.386 . S
C817 C821 1.393 . S
C818 H810 0.950 1_565 S
C818 C816 1.391 . S
C818 C819 1.400 . S
C819 C818 1.400 . S
C819 C820 1.398 . S
C819 C825 1.491 1_565 S
C820 H811 0.950 . S
C820 C819 1.398 . S
C820 C821 1.391 . S
C821 H809 0.950 . S
C821 C817 1.393 . S
C821 C820 1.391 . S
C822 H812 0.950 . S
C822 C823 1.386 . S
C822 C824 1.391 1_545 S
C823 C822 1.386 . S
C823 C827 1.393 . S
C824 H813 0.950 . S
C824 C822 1.391 1_565 S
C824 C825 1.400 1_565 S
C825 C819 1.491 1_545 S
C825 C824 1.400 1_545 S
C825 C826 1.398 . S
C826 H814 0.950 . S
C826 C825 1.398 . S
C826 C827 1.391 . S
C827 H815 0.950 . S
C827 C823 1.393 . S
C827 C826 1.391 . S
H828 C836 0.950 . S
H829 C841 0.950 . S
H830 C838 0.950 . S
H831 C840 0.950 . S
H832 C842 0.950 . S
H833 C844 0.950 . S
H834 C846 0.950 . S
H835 C847 0.950 . S
C836 H828 0.950 . S
C836 C837 1.386 . S
C836 C838 1.391 . S
C837 C836 1.386 . S
C837 C841 1.393 . S
C838 H830 0.950 . S
C838 C836 1.391 . S
C838 C839 1.400 . S
C839 C838 1.400 . S
C839 C840 1.398 . S
C839 C845 1.491 . S
C840 H831 0.950 . S
C840 C839 1.398 . S
C840 C841 1.391 . S
C841 H829 0.950 . S
C841 C837 1.393 . S
C841 C840 1.391 . S
C842 H832 0.950 . S
C842 C843 1.386 . S
C842 C844 1.391 . S
C843 C842 1.386 . S
C843 C847 1.393 . S
C844 H833 0.950 . S
C844 C842 1.391 . S
C844 C845 1.400 . S
C845 C839 1.491 . S
C845 C844 1.400 . S
C845 C846 1.398 . S
C846 H834 0.950 . S
C846 C845 1.398 . S
C846 C847 1.391 . S
C847 H835 0.950 . S
C847 C843 1.393 . S
C847 C846 1.391 . S
H848 C856 0.950 . S
H849 C861 0.950 . S
H850 C858 0.950 . S
H851 C860 0.950 . S
H852 C862 0.950 . S
H853 C864 0.950 . S
H854 C866 0.950 . S
H855 C867 0.950 . S
C856 H848 0.950 . S
C856 C857 1.386 . S
C856 C858 1.391 . S
C857 C856 1.386 . S
C857 C861 1.393 . S
C858 H850 0.950 . S
C858 C856 1.391 . S
C858 C859 1.400 . S
C859 C858 1.400 . S
C859 C860 1.398 . S
C859 C865 1.491 1_655 S
C860 H851 0.950 . S
C860 C859 1.398 . S
C860 C861 1.391 . S
C861 H849 0.950 . S
C861 C857 1.393 . S
C861 C860 1.391 . S
C862 H852 0.950 . S
C862 C863 1.386 . S
C862 C864 1.391 . S
C863 C862 1.386 . S
C863 C867 1.393 . S
C864 H853 0.950 . S
C864 C862 1.391 . S
C864 C865 1.400 . S
C865 C859 1.491 1_455 S
C865 C864 1.400 . S
C865 C866 1.398 . S
C866 H854 0.950 . S
C866 C865 1.398 . S
C866 C867 1.391 . S
C867 H855 0.950 . S
C867 C863 1.393 . S
C867 C866 1.391 . S
H868 C876 0.950 . S
H869 C881 0.950 . S
H870 C878 0.950 . S
H871 C880 0.950 . S
H872 C882 0.950 . S
H873 C884 0.950 1_565 S
H874 C886 0.950 . S
H875 C887 0.950 . S
C876 H868 0.950 . S
C876 C877 1.386 . S
C876 C878 1.391 1_565 S
C877 C876 1.386 . S
C877 C881 1.393 . S
C878 H870 0.950 . S
C878 C876 1.391 1_545 S
C878 C879 1.400 1_545 S
C879 C878 1.400 1_565 S
C879 C880 1.398 . S
C879 C885 1.491 1_565 S
C880 H871 0.950 . S
C880 C879 1.398 . S
C880 C881 1.391 . S
C881 H869 0.950 . S
C881 C877 1.393 . S
C881 C880 1.391 . S
C882 H872 0.950 . S
C882 C883 1.386 . S
C882 C884 1.391 . S
C883 C882 1.386 . S
C883 C887 1.393 . S
C884 H873 0.950 1_545 S
C884 C882 1.391 . S
C884 C885 1.400 . S
C885 C879 1.491 1_545 S
C885 C884 1.400 . S
C885 C886 1.398 . S
C886 H874 0.950 . S
C886 C885 1.398 . S
C886 C887 1.391 . S
C887 H875 0.950 . S
C887 C883 1.393 . S
C887 C886 1.391 . S
H888 C896 0.950 . S
H889 C901 0.950 . S
H890 C898 0.950 . S
H891 C900 0.950 . S
H892 C902 0.950 . S
H893 C904 0.950 . S
H894 C906 0.950 . S
H895 C907 0.950 . S
C896 H888 0.950 . S
C896 C897 1.386 . S
C896 C898 1.391 . S
C897 C896 1.386 . S
C897 C901 1.393 . S
C898 H890 0.950 . S
C898 C896 1.391 . S
C898 C899 1.400 . S
C899 C898 1.400 . S
C899 C900 1.398 . S
C899 C905 1.491 . S
C900 H891 0.950 . S
C900 C899 1.398 . S
C900 C901 1.391 . S
C901 H889 0.950 . S
C901 C897 1.393 . S
C901 C900 1.391 . S
C902 H892 0.950 . S
C902 C903 1.386 . S
C902 C904 1.391 . S
C903 C902 1.386 . S
C903 C907 1.393 . S
C904 H893 0.950 . S
C904 C902 1.391 . S
C904 C905 1.400 . S
C905 C899 1.491 . S
C905 C904 1.400 . S
C905 C906 1.398 . S
C906 H894 0.950 . S
C906 C905 1.398 . S
C906 C907 1.391 . S
C907 H895 0.950 . S
C907 C903 1.393 . S
C907 C906 1.391 . S
H908 C916 0.950 1_556 S
H909 C921 0.950 . S
H910 C918 0.950 1_455 S
H911 C920 0.950 . S
H912 C922 0.950 . S
H913 C924 0.950 . S
H914 C926 0.950 . S
H915 C927 0.950 . S
C916 H908 0.950 1_554 S
C916 C917 1.386 . S
C916 C918 1.391 . S
C917 C916 1.386 . S
C917 C921 1.393 . S
C918 H910 0.950 1_655 S
C918 C916 1.391 . S
C918 C919 1.400 . S
C919 C918 1.400 . S
C919 C920 1.398 . S
C919 C925 1.491 1_655 S
C920 H911 0.950 . S
C920 C919 1.398 . S
C920 C921 1.391 . S
C921 H909 0.950 . S
C921 C917 1.393 . S
C921 C920 1.391 . S
C922 H912 0.950 . S
C922 C923 1.386 . S
C922 C924 1.391 1_455 S
C923 C922 1.386 . S
C923 C927 1.393 . S
C924 H913 0.950 . S
C924 C922 1.391 1_655 S
C924 C925 1.400 1_655 S
C925 C919 1.491 1_455 S
C925 C924 1.400 1_455 S
C925 C926 1.398 . S
C926 H914 0.950 . S
C926 C925 1.398 . S
C926 C927 1.391 . S
C927 H915 0.950 . S
C927 C923 1.393 . S
C927 C926 1.391 . S
H928 C936 0.950 . S
H929 C941 0.950 . S
H930 C938 0.950 . S
H931 C940 0.950 . S
H932 C942 0.950 . S
H933 C944 0.950 . S
H934 C946 0.950 . S
H935 C947 0.950 . S
C936 H928 0.950 . S
C936 C937 1.386 . S
C936 C938 1.391 . S
C937 C936 1.386 . S
C937 C941 1.393 . S
C938 H930 0.950 . S
C938 C936 1.391 . S
C938 C939 1.400 . S
C939 C938 1.400 . S
C939 C940 1.398 . S
C939 C945 1.491 1_565 S
C940 H931 0.950 . S
C940 C939 1.398 . S
C940 C941 1.391 . S
C941 H929 0.950 . S
C941 C937 1.393 . S
C941 C940 1.391 . S
C942 H932 0.950 . S
C942 C943 1.386 . S
C942 C944 1.391 . S
C943 C942 1.386 . S
C943 C947 1.393 . S
C944 H933 0.950 . S
C944 C942 1.391 . S
C944 C945 1.400 . S
C945 C939 1.491 1_545 S
C945 C944 1.400 . S
C945 C946 1.398 . S
C946 H934 0.950 . S
C946 C945 1.398 . S
C946 C947 1.391 . S
C947 H935 0.950 . S
C947 C943 1.393 . S
C947 C946 1.391 . S
H948 C956 0.950 . S
H949 C961 0.950 . S
H950 C958 0.950 . S
H951 C960 0.950 . S
H952 C962 0.950 . S
H953 C964 0.950 . S
H954 C966 0.950 . S
H955 C967 0.950 . S
C956 H948 0.950 . S
C956 C957 1.386 . S
C956 C958 1.391 . S
C957 C956 1.386 . S
C957 C961 1.393 . S
C958 H950 0.950 . S
C958 C956 1.391 . S
C958 C959 1.400 . S
C959 C958 1.400 . S
C959 C960 1.398 . S
C959 C965 1.491 . S
C960 H951 0.950 . S
C960 C959 1.398 . S
C960 C961 1.391 . S
C961 H949 0.950 . S
C961 C957 1.393 . S
C961 C960 1.391 . S
C962 H952 0.950 . S
C962 C963 1.386 . S
C962 C964 1.391 . S
C963 C962 1.386 . S
C963 C967 1.393 . S
C964 H953 0.950 . S
C964 C962 1.391 . S
C964 C965 1.400 . S
C965 C959 1.491 . S
C965 C964 1.400 . S
C965 C966 1.398 . S
C966 H954 0.950 . S
C966 C965 1.398 . S
C966 C967 1.391 . S
C967 H955 0.950 . S
C967 C963 1.393 . S
C967 C966 1.391 . S
H968 C976 0.950 . S
H969 C981 0.950 . S
H970 C978 0.950 1_455 S
H971 C980 0.950 . S
H972 C982 0.950 . S
H973 C984 0.950 . S
H974 C986 0.950 . S
H975 C987 0.950 . S
C976 H968 0.950 . S
C976 C977 1.386 . S
C976 C978 1.391 . S
C977 C976 1.386 . S
C977 C981 1.393 . S
C978 H970 0.950 1_655 S
C978 C976 1.391 . S
C978 C979 1.400 . S
C979 C978 1.400 . S
C979 C980 1.398 . S
C979 C985 1.491 1_655 S
C980 H971 0.950 . S
C980 C979 1.398 . S
C980 C981 1.391 . S
C981 H969 0.950 . S
C981 C977 1.393 . S
C981 C980 1.391 . S
C982 H972 0.950 . S
C982 C983 1.386 . S
C982 C984 1.391 . S
C983 C982 1.386 . S
C983 C987 1.393 . S
C984 H973 0.950 . S
C984 C982 1.391 . S
C984 C985 1.400 . S
C985 C979 1.491 1_455 S
C985 C984 1.400 . S
C985 C986 1.398 . S
C986 H974 0.950 . S
C986 C985 1.398 . S
C986 C987 1.391 . S
C987 H975 0.950 . S
C987 C983 1.393 . S
C987 C986 1.391 . S
H988 C996 0.950 . S
H989 C1001 0.950 . S
H990 C998 0.950 . S
H991 C1000 0.950 . S
H992 C1002 0.950 . S
H993 C1004 0.950 . S
H994 C1006 0.950 . S
H995 C1007 0.950 . S
C996 H988 0.950 . S
C996 C997 1.386 . S
C996 C998 1.391 . S
C997 C996 1.386 . S
C997 C1001 1.393 . S
C998 H990 0.950 . S
C998 C996 1.391 . S
C998 C999 1.400 . S
C999 C998 1.400 . S
C999 C1000 1.398 . S
C999 C1005 1.491 1_545 S
C1000 H991 0.950 . S
C1000 C999 1.398 . S
C1000 C1001 1.391 . S
C1001 H989 0.950 . S
C1001 C997 1.393 . S
C1001 C1000 1.391 . S
C1002 H992 0.950 . S
C1002 C1003 1.386 . S
C1002 C1004 1.391 . S
C1003 C1002 1.386 . S
C1003 C1007 1.393 . S
C1004 H993 0.950 . S
C1004 C1002 1.391 . S
C1004 C1005 1.400 . S
C1005 C999 1.491 1_565 S
C1005 C1004 1.400 . S
C1005 C1006 1.398 . S
C1006 H994 0.950 . S
C1006 C1005 1.398 . S
C1006 C1007 1.391 . S
C1007 H995 0.950 . S
C1007 C1003 1.393 . S
C1007 C1006 1.391 . S
C417 C5 0.790 . S
C423 C277 0.785 1_545 S
C437 C311 0.781 . S
C443 C39 0.816 1_455 S
C457 C345 0.809 1_655 S
C463 C73 0.811 1_545 S
C477 C107 0.818 . S
C483 C379 0.786 1_565 S
C497 C141 0.815 1_655 S
C503 C209 0.781 . S
C517 C175 0.779 1_565 S
C523 C243 0.799 1_455 S
C537 C247 1.527 1_554 S
C543 C33 1.538 . S
C557 C67 1.537 . S
C563 C281 1.527 . S
C577 C315 1.504 . S
C583 C101 1.554 . S
C597 C349 1.520 . S
C603 C135 1.542 . S
C617 C383 1.517 . S
C623 C169 1.544 . S
C637 C213 1.506 . S
C643 C203 1.552 . S
C657 C179 1.528 . S
C663 C237 1.537 . S
C677 C271 1.544 . S
C683 C9 1.518 . S
C697 C305 1.537 . S
C703 C43 1.527 . S
C717 C77 1.512 . S
C723 C339 1.548 . S
C737 C111 1.524 . S
C743 C373 1.540 . S
C757 C145 1.526 . S
C763 C407 1.539 . S
C777 C190 1.272 . S
C783 C2 1.265 . S
C797 C20 1.261 . S
C803 C36 1.249 . S
C817 C70 1.266 . S
C823 C54 1.283 . S
C837 C88 1.262 . S
C843 C104 1.252 . S
C857 C122 1.268 . S
C863 C138 1.246 . S
C877 C156 1.260 . S
C883 C172 1.245 . S
C897 C206 1.273 . S
C903 C258 1.284 . S
C917 C240 1.264 1_554 S
C923 C292 1.282 . S
C937 C274 1.253 . S
C943 C326 1.274 . S
C957 C360 1.283 . S
C963 C308 1.273 . S
C977 C394 1.272 . S
C983 C342 1.264 . S
C997 C376 1.252 . S
C1003 C224 1.273 . S
