# Generated by pormake.
# Topology und, (4)-cn, num edge types: 1
# Building blocks:
#     Node 0, Type 0, BuildingBlock: TATPOV_clean_sbu_0, # of connection points: 4
#     Node 1, Type 0, BuildingBlock: TATPOV_clean_sbu_0, # of connection points: 4
#     Node 2, Type 0, BuildingBlock: TATPOV_clean_sbu_0, # of connection points: 4
#     Node 3, Type 0, BuildingBlock: TATPOV_clean_sbu_0, # of connection points: 4
#     Node 4, Type 0, BuildingBlock: TATPOV_clean_sbu_0, # of connection points: 4
#     Node 5, Type 0, BuildingBlock: TATPOV_clean_sbu_0, # of connection points: 4
#     Node 6, Type 0, BuildingBlock: TATPOV_clean_sbu_0, # of connection points: 4
#     Node 7, Type 0, BuildingBlock: TATPOV_clean_sbu_0, # of connection points: 4
#     Node 8, Type 0, BuildingBlock: TATPOV_clean_sbu_0, # of connection points: 4
#     Node 9, Type 0, BuildingBlock: TATPOV_clean_sbu_0, # of connection points: 4
#     Node 10, Type 0, BuildingBlock: TATPOV_clean_sbu_0, # of connection points: 4
#     Node 11, Type 0, BuildingBlock: TATPOV_clean_sbu_0, # of connection points: 4
#     Node 12, Type 0, BuildingBlock: TATPOV_clean_sbu_0, # of connection points: 4
#     Node 13, Type 0, BuildingBlock: TATPOV_clean_sbu_0, # of connection points: 4
#     Node 14, Type 0, BuildingBlock: TATPOV_clean_sbu_0, # of connection points: 4
#     Node 15, Type 0, BuildingBlock: TATPOV_clean_sbu_0, # of connection points: 4
#     Edge 16, Type (0, 0), BuildingBlock: KIFKEQ_clean_linker_1, # of connection points: 2
#     Edge 17, Type (0, 0), BuildingBlock: KIFKEQ_clean_linker_1, # of connection points: 2
#     Edge 18, Type (0, 0), BuildingBlock: KIFKEQ_clean_linker_1, # of connection points: 2
#     Edge 19, Type (0, 0), BuildingBlock: KIFKEQ_clean_linker_1, # of connection points: 2
#     Edge 20, Type (0, 0), BuildingBlock: KIFKEQ_clean_linker_1, # of connection points: 2
#     Edge 21, Type (0, 0), BuildingBlock: KIFKEQ_clean_linker_1, # of connection points: 2
#     Edge 22, Type (0, 0), BuildingBlock: KIFKEQ_clean_linker_1, # of connection points: 2
#     Edge 23, Type (0, 0), BuildingBlock: KIFKEQ_clean_linker_1, # of connection points: 2
#     Edge 24, Type (0, 0), BuildingBlock: KIFKEQ_clean_linker_1, # of connection points: 2
#     Edge 25, Type (0, 0), BuildingBlock: KIFKEQ_clean_linker_1, # of connection points: 2
#     Edge 26, Type (0, 0), BuildingBlock: KIFKEQ_clean_linker_1, # of connection points: 2
#     Edge 27, Type (0, 0), BuildingBlock: KIFKEQ_clean_linker_1, # of connection points: 2
#     Edge 28, Type (0, 0), BuildingBlock: KIFKEQ_clean_linker_1, # of connection points: 2
#     Edge 29, Type (0, 0), BuildingBlock: KIFKEQ_clean_linker_1, # of connection points: 2
#     Edge 30, Type (0, 0), BuildingBlock: KIFKEQ_clean_linker_1, # of connection points: 2
#     Edge 31, Type (0, 0), BuildingBlock: KIFKEQ_clean_linker_1, # of connection points: 2
#     Edge 32, Type (0, 0), BuildingBlock: KIFKEQ_clean_linker_1, # of connection points: 2
#     Edge 33, Type (0, 0), BuildingBlock: KIFKEQ_clean_linker_1, # of connection points: 2
#     Edge 34, Type (0, 0), BuildingBlock: KIFKEQ_clean_linker_1, # of connection points: 2
#     Edge 35, Type (0, 0), BuildingBlock: KIFKEQ_clean_linker_1, # of connection points: 2
#     Edge 36, Type (0, 0), BuildingBlock: KIFKEQ_clean_linker_1, # of connection points: 2
#     Edge 37, Type (0, 0), BuildingBlock: KIFKEQ_clean_linker_1, # of connection points: 2
#     Edge 38, Type (0, 0), BuildingBlock: KIFKEQ_clean_linker_1, # of connection points: 2
#     Edge 39, Type (0, 0), BuildingBlock: KIFKEQ_clean_linker_1, # of connection points: 2
#     Edge 40, Type (0, 0), BuildingBlock: KIFKEQ_clean_linker_1, # of connection points: 2
#     Edge 41, Type (0, 0), BuildingBlock: KIFKEQ_clean_linker_1, # of connection points: 2
#     Edge 42, Type (0, 0), BuildingBlock: KIFKEQ_clean_linker_1, # of connection points: 2
#     Edge 43, Type (0, 0), BuildingBlock: KIFKEQ_clean_linker_1, # of connection points: 2
#     Edge 44, Type (0, 0), BuildingBlock: KIFKEQ_clean_linker_1, # of connection points: 2
#     Edge 45, Type (0, 0), BuildingBlock: KIFKEQ_clean_linker_1, # of connection points: 2
#     Edge 46, Type (0, 0), BuildingBlock: KIFKEQ_clean_linker_1, # of connection points: 2
#     Edge 47, Type (0, 0), BuildingBlock: KIFKEQ_clean_linker_1, # of connection points: 2
# Relax obj value: 0.104
# Max RMSD: 0.161
# Mean RMSD: 0.161
data_MOF--net-und--node1-TATPOV_clean_sbu_0--edge1-KIFKEQ_clean_linker_1
_symmetry_space_group_name_H-M    P1
_symmetry_Int_Tables_number       1
_symmetry_cell_setting            triclinic
loop_
_symmetry_equiv_pos_as_xyz
'x, y, z'
_cell_length_a     61.372234
_cell_length_b     61.368005
_cell_length_c     21.405622
_cell_angle_alpha  89.969914
_cell_angle_beta   89.952685
_cell_angle_gamma 92.678508
loop_
_atom_site_label
_atom_site_type_symbol
_atom_site_fract_x
_atom_site_fract_y
_atom_site_fract_z
_atom_type_partial_charge
Zn0 Zn 0.27803 0.33265 -0.01197 0.0
Zn1 Zn 0.23672 0.34352 0.97966 0.0
O2 O 0.23921 0.32642 0.06157 0.0
O3 O 0.27359 0.31843 0.07153 0.0
O4 O 0.20754 0.35708 -0.01288 0.0
O5 O 0.29018 0.36335 0.98038 0.0
O6 O 0.25631 0.37079 0.95896 0.0
C7 C 0.25419 0.31727 0.09159 0.0
C8 C 0.25188 0.31172 0.88647 0.0
O9 O 0.23585 0.3218 0.90829 0.0
O10 O 0.27076 0.31448 0.91021 0.0
C11 C 0.191 0.34937 0.01701 0.0
O12 O 0.19132 0.32964 0.04074 0.0
C13 C 0.27641 0.37675 0.96286 0.0
Zn14 Zn 0.92019 0.97216 0.19715 0.0
Zn15 Zn 0.91469 0.01481 0.21255 0.0
O16 O 0.93053 0.01057 0.12956 0.0
O17 O 0.93286 0.97556 0.11105 0.0
O18 O 0.90684 0.04621 0.20546 0.0
O19 O 0.88834 0.96457 0.21176 0.0
O20 O 0.88522 0.99927 0.23367 0.0
C21 C 0.93682 0.99519 0.09504 0.0
C22 C 0.94575 0.99437 0.29865 0.0
O23 O 0.93644 0.01168 0.28286 0.0
O24 O 0.94124 0.97649 0.2706 0.0
C25 C 0.89378 0.05514 0.24258 0.0
O26 O 0.88675 0.04433 0.29221 0.0
C27 C 0.87692 0.97991 0.23052 0.0
Zn28 Zn 0.22278 0.68003 0.49738 0.0
Zn29 Zn 0.2645 0.66971 0.49218 0.0
O30 O 0.26131 0.68814 0.57114 0.0
O31 O 0.22677 0.69585 0.57881 0.0
O32 O 0.29393 0.65691 0.50222 0.0
O33 O 0.21142 0.64888 0.49381 0.0
O34 O 0.24558 0.64177 0.47534 0.0
C35 C 0.24611 0.69764 0.5992 0.0
C36 C 0.24918 0.69958 0.39389 0.0
O37 O 0.26523 0.6901 0.41772 0.0
O38 O 0.23021 0.69696 0.41726 0.0
C39 C 0.31005 0.66501 0.53306 0.0
O40 O 0.30911 0.68475 0.55633 0.0
C41 C 0.22558 0.63546 0.47923 0.0
Zn42 Zn 0.58677 0.03498 0.70825 0.0
Zn43 Zn 0.59185 0.99217 0.72587 0.0
O44 O 0.57686 0.99619 0.64097 0.0
O45 O 0.57471 0.0312 0.62187 0.0
O46 O 0.60065 0.96073 0.72478 0.0
O47 O 0.61853 0.04251 0.72335 0.0
O48 O 0.62112 0.00794 0.74782 0.0
C49 C 0.57091 0.01157 0.6058 0.0
C50 C 0.5603 0.01357 0.80918 0.0
O51 O 0.56944 0.99606 0.79433 0.0
O52 O 0.5653 0.03131 0.78095 0.0
C53 C 0.59316 0.94658 0.68598 0.0
O54 O 0.57689 0.95142 0.64956 0.0
C55 C 0.62966 0.02719 0.74363 0.0
Zn56 Zn 0.7296 0.68618 0.04386 0.0
Zn57 Zn 0.76994 0.67593 0.02582 0.0
O58 O 0.7641 0.69833 0.95648 0.0
O59 O 0.73094 0.7086 0.97636 0.0
O60 O 0.79847 0.66318 0.00174 0.0
O61 O 0.71675 0.65607 0.02931 0.0
O62 O 0.75099 0.64741 0.03558 0.0
C63 C 0.74839 0.71061 0.945 0.0
C64 C 0.75943 0.6983 0.14531 0.0
O65 O 0.77424 0.69202 0.10855 0.0
O66 O 0.73948 0.6959 0.1302 0.0
C67 C 0.81256 0.67085 0.96299 0.0
O68 O 0.81023 0.69027 0.93873 0.0
C69 C 0.7308 0.64173 0.03318 0.0
Zn70 Zn 0.08853 0.03465 0.70785 0.0
Zn71 Zn 0.09376 0.99227 0.72002 0.0
O72 O 0.07525 0.0012 0.79561 0.0
O73 O 0.06972 0.0361 0.78362 0.0
O74 O 0.10177 0.96122 0.73826 0.0
O75 O 0.1206 0.04209 0.71131 0.0
O76 O 0.12427 0.00676 0.70296 0.0
C77 C 0.06629 0.01848 0.81339 0.0
C78 C 0.06826 0.00744 0.60995 0.0
O79 O 0.07453 0.99149 0.64242 0.0
O80 O 0.07341 0.02691 0.62595 0.0
C81 C 0.09459 0.94988 0.7843 0.0
O82 O 0.07944 0.95759 0.8203 0.0
C83 C 0.13262 0.02614 0.70367 0.0
Zn84 Zn 0.77437 0.32866 0.51371 0.0
Zn85 Zn 0.73305 0.34028 0.51924 0.0
O86 O 0.73544 0.32085 0.44179 0.0
O87 O 0.76967 0.31205 0.43392 0.0
O88 O 0.70402 0.35398 0.50836 0.0
O89 O 0.78669 0.35946 0.51397 0.0
O90 O 0.75291 0.36782 0.53324 0.0
C91 C 0.75024 0.31061 0.41415 0.0
C92 C 0.74791 0.31104 0.61973 0.0
O93 O 0.73202 0.32069 0.59555 0.0
O94 O 0.76681 0.31288 0.59552 0.0
C95 C 0.68805 0.34625 0.47618 0.0
O96 O 0.6888 0.32649 0.45299 0.0
C97 C 0.77305 0.37346 0.52799 0.0
Zn98 Zn 0.4185 0.9749 0.21915 0.0
Zn99 Zn 0.41334 0.01712 0.23353 0.0
O100 O 0.4327 0.00784 0.30681 0.0
O101 O 0.43811 0.973 0.29299 0.0
O102 O 0.40471 0.04768 0.25531 0.0
O103 O 0.38655 0.96708 0.22521 0.0
O104 O 0.38285 0.00243 0.21827 0.0
C105 C 0.44183 0.99048 0.3231 0.0
C106 C 0.4377 0.00285 0.12059 0.0
O107 O 0.43184 0.01868 0.15427 0.0
O108 O 0.43267 0.98332 0.13631 0.0
C109 C 0.41183 0.05863 0.30211 0.0
O110 O 0.42777 0.05117 0.33557 0.0
C111 C 0.37448 0.98307 0.21903 0.0
Zn112 Zn 0.79998 0.84879 0.54625 0.0
Zn113 Zn 0.75654 0.8533 0.53226 0.0
O114 O 0.76164 0.84168 0.6206 0.0
O115 O 0.79684 0.83909 0.63562 0.0
O116 O 0.7246 0.85996 0.53368 0.0
O117 O 0.80593 0.88036 0.52279 0.0
O118 O 0.77093 0.88233 0.50264 0.0
C119 C 0.77745 0.83648 0.65525 0.0
C120 C 0.77772 0.81957 0.45442 0.0
O121 O 0.76046 0.82908 0.46949 0.0
O122 O 0.7959 0.8253 0.47908 0.0
C123 C 0.7107 0.84927 0.56717 0.0
O124 O 0.71668 0.83191 0.59738 0.0
C125 C 0.79019 0.89096 0.50263 0.0
Zn126 Zn 0.42163 0.46509 0.7015 0.0
Zn127 Zn 0.41277 0.50722 0.71927 0.0
O128 O 0.42851 0.50544 0.63523 0.0
O129 O 0.43402 0.47095 0.61593 0.0
O130 O 0.4016 0.53756 0.7181 0.0
O131 O 0.39021 0.45511 0.71449 0.0
O132 O 0.38453 0.48926 0.73787 0.0
C133 C 0.43609 0.49082 0.60025 0.0
C134 C 0.4454 0.48829 0.80424 0.0
O135 O 0.43487 0.5049 0.78887 0.0
O136 O 0.44218 0.4703 0.77565 0.0
C137 C 0.41118 0.55419 0.69305 0.0
O138 O 0.43114 0.55278 0.67179 0.0
C139 C 0.37761 0.46947 0.73325 0.0
Zn140 Zn 0.70236 0.16412 0.02807 0.0
Zn141 Zn 0.74564 0.1598 0.03039 0.0
O142 O 0.73693 0.17492 0.11201 0.0
O143 O 0.70132 0.17758 0.11275 0.0
O144 O 0.77707 0.15246 0.04481 0.0
O145 O 0.69656 0.132 0.01447 0.0
O146 O 0.73208 0.12983 0.0051 0.0
C147 C 0.71969 0.18132 0.13819 0.0
C148 C 0.72809 0.19018 0.93561 0.0
O149 O 0.74479 0.18164 0.95892 0.0
O150 O 0.70912 0.18487 0.95575 0.0
C151 C 0.78927 0.16114 0.08688 0.0
O152 O 0.78223 0.1775 0.11958 0.0
C153 C 0.71294 0.12096 0.0024 0.0
Zn154 Zn 0.08344 0.5493 0.22365 0.0
Zn155 Zn 0.09082 0.50713 0.22481 0.0
O156 O 0.07451 0.51315 0.14285 0.0
O157 O 0.06973 0.54842 0.13944 0.0
O158 O 0.10135 0.47684 0.21211 0.0
O159 O 0.11488 0.55849 0.23584 0.0
O160 O 0.11969 0.5235 0.24862 0.0
C161 C 0.06689 0.52965 0.1157 0.0
C162 C 0.05939 0.52288 0.3187 0.0
O163 O 0.06906 0.50663 0.29661 0.0
O164 O 0.06338 0.5419 0.29696 0.0
C165 C 0.09178 0.46147 0.18135 0.0
O166 O 0.07206 0.46403 0.15956 0.0
C167 C 0.12713 0.5432 0.24943 0.0
Zn168 Zn 0.21027 0.16617 0.47339 0.0
Zn169 Zn 0.25359 0.16337 0.4712 0.0
O170 O 0.24497 0.18065 0.39344 0.0
O171 O 0.20927 0.18249 0.39281 0.0
O172 O 0.28531 0.15871 0.45408 0.0
O173 O 0.20581 0.13354 0.47746 0.0
O174 O 0.24137 0.13211 0.48774 0.0
C175 C 0.22765 0.18743 0.36872 0.0
C176 C 0.23449 0.18989 0.57305 0.0
O177 O 0.2516 0.18277 0.54789 0.0
O178 O 0.21577 0.18453 0.55132 0.0
C179 C 0.29664 0.14654 0.48789 0.0
O180 O 0.28801 0.13815 0.53926 0.0
C181 C 0.22248 0.12264 0.48697 0.0
Zn182 Zn 0.58366 0.5424 0.20963 0.0
Zn183 Zn 0.59352 0.50143 0.22495 0.0
O184 O 0.57369 0.50854 0.29913 0.0
O185 O 0.56433 0.54233 0.28464 0.0
O186 O 0.60504 0.47239 0.24909 0.0
O187 O 0.61474 0.55366 0.21355 0.0
O188 O 0.62235 0.51907 0.20732 0.0
C189 C 0.56274 0.52475 0.31546 0.0
C190 C 0.5671 0.51214 0.11298 0.0
O191 O 0.57485 0.49728 0.14689 0.0
O192 O 0.57002 0.53207 0.12787 0.0
C193 C 0.59454 0.45691 0.27703 0.0
O194 O 0.57359 0.45844 0.28782 0.0
C195 C 0.62851 0.53916 0.20705 0.0
Zn196 Zn 0.29169 0.8464 0.9836 0.0
Zn197 Zn 0.24841 0.85019 0.98328 0.0
O198 O 0.25641 0.83412 0.9024 0.0
O199 O 0.29203 0.83155 0.90093 0.0
O200 O 0.21665 0.85674 0.97163 0.0
O201 O 0.29714 0.87876 -0.00833 0.0
O202 O 0.26169 0.88079 0.00358 0.0
C203 C 0.27356 0.82741 0.87647 0.0
C204 C 0.26736 0.82148 0.08057 0.0
O205 O 0.25037 0.82936 0.05689 0.0
O206 O 0.28613 0.82685 0.05913 0.0
C207 C 0.20408 0.84755 0.93131 0.0
O208 O 0.21107 0.83126 0.89829 0.0
C209 C 0.28076 0.88985 0.00323 0.0
Zn210 Zn 0.92045 0.47203 0.73753 0.0
Zn211 Zn 0.90897 0.51364 0.73283 0.0
O212 O 0.92824 0.51071 0.81005 0.0
O213 O 0.93681 0.47642 0.8181 0.0
O214 O 0.89642 0.54309 0.74497 0.0
O215 O 0.88934 0.46043 0.73592 0.0
O216 O 0.8811 0.49439 0.71851 0.0
C217 C 0.93832 0.49585 0.83786 0.0
C218 C 0.93846 0.49885 0.63269 0.0
O219 O 0.92859 0.51461 0.65682 0.0
O220 O 0.93667 0.47989 0.65651 0.0
C221 C 0.9066 0.55998 0.76649 0.0
O222 O 0.92767 0.55951 0.77688 0.0
C223 C 0.87539 0.47424 0.72283 0.0
H224 H 0.28095 0.30089 0.17997 0.0
H225 H 0.21444 0.29719 0.11345 0.0
H226 H 0.27321 0.26903 0.24554 0.0
H227 H 0.20696 0.26475 0.17623 0.0
H228 H 0.19684 0.21582 0.33585 0.0
H229 H 0.20232 0.24894 0.27487 0.0
H230 H 0.26791 0.23107 0.23061 0.0
H231 H 0.26274 0.19841 0.29459 0.0
C232 C 0.26459 0.29345 0.18011 0.0
C233 C 0.24834 0.30149 0.14147 0.0
C234 C 0.26023 0.27497 0.21685 0.0
C235 C 0.23962 0.26393 0.21493 0.0
C236 C 0.223 0.27281 0.17913 0.0
C237 C 0.22727 0.29151 0.1432 0.0
C238 C 0.2123 0.21873 0.31214 0.0
C239 C 0.22942 0.20455 0.32032 0.0
C240 C 0.21547 0.23781 0.2772 0.0
C241 C 0.23571 0.24296 0.24878 0.0
C242 C 0.25234 0.228 0.25358 0.0
C243 C 0.24928 0.20909 0.28938 0.0
H244 H 0.97269 0.96203 0.33061 0.0
H245 H 0.95855 0.02873 0.37376 0.0
H246 H 0.00358 0.96431 0.40161 0.0
H247 H 0.98909 0.03076 0.4465 0.0
H248 H 0.0577 0.03627 0.51935 0.0
H249 H 0.02823 0.03231 0.44373 0.0
H250 H 0.0133 0.96673 0.50983 0.0
H251 H 0.04328 0.97048 0.58427 0.0
C252 C 0.97598 0.9771 0.35591 0.0
C253 C 0.96319 0.99525 0.34633 0.0
C254 C 0.99369 0.97837 0.39678 0.0
C255 C 0.99895 0.99777 0.42932 0.0
C256 C 0.98578 0.01572 0.42107 0.0
C257 C 0.96814 0.0145 0.37984 0.0
C258 C 0.04833 0.02088 0.5171 0.0
C259 C 0.05274 0.00372 0.55797 0.0
C260 C 0.03129 0.0187 0.47421 0.0
C261 C 0.01813 0.99936 0.47154 0.0
C262 C 0.02317 0.98182 0.51047 0.0
C263 C 0.04037 0.98395 0.55311 0.0
H264 H 0.21886 0.71554 0.68395 0.0
H265 H 0.28567 0.71817 0.61963 0.0
H266 H 0.22659 0.74787 0.74761 0.0
H267 H 0.29313 0.75104 0.6801 0.0
H268 H 0.30388 0.799 0.84078 0.0
H269 H 0.29786 0.76648 0.7781 0.0
H270 H 0.23264 0.78578 0.73516 0.0
H271 H 0.23836 0.8179 0.80112 0.0
C272 C 0.23525 0.72289 0.68403 0.0
C273 C 0.25165 0.71429 0.64695 0.0
C274 C 0.23962 0.74164 0.71964 0.0
C275 C 0.26037 0.7524 0.71803 0.0
C276 C 0.277 0.74317 0.68301 0.0
C277 C 0.27274 0.72422 0.64837 0.0
C278 C 0.28838 0.79657 0.81699 0.0
C279 C 0.27151 0.81094 0.82637 0.0
C280 C 0.28491 0.77783 0.78096 0.0
C281 C 0.2646 0.77321 0.7524 0.0
C282 C 0.24824 0.78843 0.75816 0.0
C283 C 0.25161 0.80703 0.79517 0.0
H284 H 0.46347 0.03941 0.09559 0.0
H285 H 0.44655 0.9746 0.02698 0.0
H286 H 0.49327 0.04272 0.02018 0.0
H287 H 0.47586 0.97813 0.9506 0.0
H288 H 0.54587 0.97933 0.8827 0.0
H289 H 0.51504 0.97812 0.95455 0.0
H290 H 0.50321 0.04536 0.91153 0.0
H291 H 0.53439 0.04679 0.84122 0.0
C292 C 0.46576 0.0261 0.06336 0.0
C293 C 0.4528 0.00668 0.06757 0.0
C294 C 0.48287 0.02797 0.0202 0.0
C295 C 0.4872 0.01051 0.98018 0.0
C296 C 0.47335 0.99164 0.98195 0.0
C297 C 0.45641 0.98971 0.02529 0.0
C298 C 0.5368 0.9939 0.88894 0.0
C299 C 0.54259 0.01312 0.85615 0.0
C300 C 0.51899 0.99315 0.92966 0.0
C301 C 0.50649 0.01158 0.93819 0.0
C302 C 0.51257 0.03093 0.90638 0.0
C303 C 0.53044 0.03171 0.86593 0.0
H304 H 0.29782 0.79291 0.11392 0.0
H305 H 0.23216 0.811 0.15536 0.0
H306 H 0.2937 0.76241 0.18559 0.0
H307 H 0.22836 0.78104 0.23004 0.0
H308 H 0.21927 0.71345 0.31069 0.0
H309 H 0.22404 0.74283 0.23479 0.0
H310 H 0.29157 0.75236 0.29045 0.0
H311 H 0.28698 0.72223 0.36384 0.0
C312 C 0.28262 0.79062 0.13935 0.0
C313 C 0.2653 0.80438 0.12901 0.0
C314 C 0.28028 0.77312 0.1807 0.0
C315 C 0.26067 0.76913 0.21361 0.0
C316 C 0.24353 0.78329 0.20449 0.0
C317 C 0.24576 0.80062 0.16221 0.0
C318 C 0.2352 0.72165 0.30591 0.0
C319 C 0.25276 0.71554 0.34301 0.0
C320 C 0.23789 0.73867 0.26297 0.0
C321 C 0.25812 0.75024 0.25695 0.0
C322 C 0.27582 0.7437 0.29312 0.0
C323 C 0.27322 0.72641 0.33528 0.0
H324 H 0.47114 0.95957 0.34769 0.0
H325 H 0.45328 0.02418 0.40203 0.0
H326 H 0.50436 0.96391 0.4088 0.0
H327 H 0.48624 0.02824 0.46503 0.0
H328 H 0.55005 0.9725 0.57852 0.0
H329 H 0.51846 0.96648 0.51188 0.0
H330 H 0.52496 0.03343 0.44909 0.0
H331 H 0.5563 0.03967 0.51766 0.0
C332 C 0.47404 0.97453 0.37382 0.0
C333 C 0.45961 0.99161 0.36962 0.0
C334 C 0.49316 0.97703 0.40879 0.0
C335 C 0.49817 0.99657 0.44089 0.0
C336 C 0.48317 0.01322 0.43932 0.0
C337 C 0.46413 0.01079 0.4039 0.0
C338 C 0.54514 0.98582 0.54944 0.0
C339 C 0.55561 0.00663 0.55393 0.0
C340 C 0.52691 0.98237 0.51125 0.0
C341 C 0.51888 0.9996 0.47619 0.0
C342 C 0.53036 0.01998 0.477 0.0
C343 C 0.5485 0.02348 0.51562 0.0
H344 H 0.26963 0.20002 0.64824 0.0
H345 H 0.20354 0.2174 0.60999 0.0
H346 H 0.2732 0.22944 0.72463 0.0
H347 H 0.20742 0.2474 0.68319 0.0
H348 H 0.2143 0.28829 0.85916 0.0
H349 H 0.20984 0.25764 0.78747 0.0
H350 H 0.27719 0.26753 0.72995 0.0
H351 H 0.28183 0.29736 0.80427 0.0
C352 C 0.25588 0.2101 0.65624 0.0
C353 C 0.23632 0.20635 0.62325 0.0
C354 C 0.25797 0.22713 0.6995 0.0
C355 C 0.24067 0.24101 0.70979 0.0
C356 C 0.22099 0.23692 0.67743 0.0
C357 C 0.21878 0.2197 0.63515 0.0
C358 C 0.22805 0.28402 0.83062 0.0
C359 C 0.2484 0.29517 0.83722 0.0
C360 C 0.22553 0.26644 0.78944 0.0
C361 C 0.24321 0.25991 0.7531 0.0
C362 C 0.26336 0.27166 0.75829 0.0
C363 C 0.26597 0.28895 0.80031 0.0
H364 H 0.03662 0.04888 0.83935 0.0
H365 H 0.05593 0.98471 0.8934 0.0
H366 H 0.00364 0.0439 0.90122 0.0
H367 H 0.02323 0.98004 0.95749 0.0
H368 H 0.95697 0.03458 0.06771 0.0
H369 H 0.98906 0.04112 0.00296 0.0
H370 H 0.98481 0.97384 0.94258 0.0
H371 H 0.95313 0.96705 0.00963 0.0
C372 C 0.03411 0.0339 0.8657 0.0
C373 C 0.04885 0.0171 0.86102 0.0
C374 C 0.01512 0.03103 0.90117 0.0
C375 C 0.01055 0.01141 0.93344 0.0
C376 C 0.02592 0.99511 0.93166 0.0
C377 C 0.04483 0.99788 0.89561 0.0
C378 C 0.96258 0.02126 0.03968 0.0
C379 C 0.95261 1.00022 0.04433 0.0
C380 C 0.98106 0.02502 0.00254 0.0
C381 C 0.98981 0.00789 0.96857 0.0
C382 C 0.97889 0.98723 0.9697 0.0
C383 C 0.96052 0.98341 0.00738 0.0
H384 H 0.72264 0.74529 0.93328 0.0
H385 H 0.78162 0.71869 0.86134 0.0
H386 H 0.73005 0.77847 0.87398 0.0
H387 H 0.78855 0.75162 0.79929 0.0
H388 H 0.80687 0.81885 0.73463 0.0
H389 H 0.79945 0.78922 0.80847 0.0
H390 H 0.73036 0.79264 0.7727 0.0
H391 H 0.73769 0.82285 0.70187 0.0
C392 C 0.73699 0.74633 0.90373 0.0
C393 C 0.75153 0.7293 0.9019 0.0
C394 C 0.74125 0.76543 0.86971 0.0
C395 C 0.76 0.76786 0.83221 0.0
C396 C 0.77423 0.75054 0.82892 0.0
C397 C 0.77011 0.73152 0.86373 0.0
C398 C 0.79006 0.81369 0.74392 0.0
C399 C 0.77289 0.82296 0.71138 0.0
C400 C 0.78582 0.79646 0.78553 0.0
C401 C 0.76436 0.78809 0.79518 0.0
C402 C 0.74711 0.79859 0.7665 0.0
C403 C 0.75133 0.81595 0.72554 0.0
H404 H 0.71011 0.29096 0.39561 0.0
H405 H 0.77671 0.29142 0.32995 0.0
H406 H 0.70158 0.25796 0.33639 0.0
H407 H 0.76795 0.25895 0.26786 0.0
H408 H 0.75447 0.18932 0.21605 0.0
H409 H 0.76079 0.22117 0.28262 0.0
H410 H 0.69638 0.24234 0.2381 0.0
H411 H 0.68976 0.21009 0.17444 0.0
C412 C 0.72277 0.28439 0.36692 0.0
C413 C 0.7441 0.29375 0.36752 0.0
C414 C 0.7179 0.26537 0.33306 0.0
C415 C 0.73417 0.2555 0.29817 0.0
C416 C 0.75518 0.26568 0.29581 0.0
C417 C 0.76014 0.2845 0.33053 0.0
C418 C 0.7415 0.20053 0.22181 0.0
C419 C 0.72171 0.19727 0.18964 0.0
C420 C 0.74522 0.21896 0.25919 0.0
C421 C 0.72932 0.23467 0.26444 0.0
C422 C 0.70899 0.23062 0.23544 0.0
C423 C 0.70516 0.21203 0.19893 0.0
H424 H 0.69849 0.21993 0.90472 0.0
H425 H 0.7635 0.20037 0.86135 0.0
H426 H 0.7031 0.2505 0.83343 0.0
H427 H 0.76779 0.23042 0.78706 0.0
H428 H 0.77782 0.29732 0.70313 0.0
H429 H 0.7728 0.26857 0.78089 0.0
H430 H 0.7049 0.26005 0.72811 0.0
H431 H 0.70978 0.28957 0.65279 0.0
C432 C 0.71367 0.22195 0.87905 0.0
C433 C 0.73064 0.20771 0.88853 0.0
C434 C 0.71629 0.23949 0.83791 0.0
C435 C 0.73582 0.24303 0.80436 0.0
C436 C 0.75268 0.2285 0.81305 0.0
C437 C 0.75018 0.21113 0.85512 0.0
C438 C 0.76176 0.28951 0.70898 0.0
C439 C 0.74418 0.29568 0.67204 0.0
C440 C 0.75892 0.27284 0.75301 0.0
C441 C 0.73852 0.26172 0.76033 0.0
C442 C 0.72079 0.26839 0.72446 0.0
C443 C 0.72356 0.28532 0.68118 0.0
H444 H 0.73382 0.70522 0.24633 0.0
H445 H 0.79752 0.72168 0.16899 0.0
H446 H 0.73961 0.73321 0.32582 0.0
H447 H 0.80309 0.75019 0.24752 0.0
H448 H 0.74236 0.80418 0.38766 0.0
H449 H 0.73982 0.77244 0.31971 0.0
H450 H 0.80743 0.76032 0.3564 0.0
H451 H 0.81017 0.79248 0.42321 0.0
C452 C 0.74922 0.71459 0.24701 0.0
C453 C 0.76512 0.71145 0.20108 0.0
C454 C 0.75245 0.73077 0.29214 0.0
C455 C 0.77156 0.74429 0.29194 0.0
C456 C 0.78818 0.74005 0.24893 0.0
C457 C 0.78502 0.72368 0.204 0.0
C458 C 0.75671 0.79481 0.3811 0.0
C459 C 0.77645 0.80088 0.41083 0.0
C460 C 0.75521 0.77647 0.34266 0.0
C461 C 0.77336 0.76367 0.33332 0.0
C462 C 0.79319 0.76988 0.36242 0.0
C463 C 0.79473 0.78831 0.40073 0.0
H464 H 0.55522 0.53858 0.01821 0.0
H465 H 0.545 0.47317 0.09072 0.0
H466 H 0.52604 0.53167 0.94304 0.0
H467 H 0.5153 0.46642 0.01641 0.0
H468 H 0.47427 0.45775 0.83731 0.0
H469 H 0.50531 0.46232 0.90755 0.0
H470 H 0.48682 0.5278 0.94983 0.0
H471 H 0.45613 0.52348 0.87823 0.0
C472 C 0.54687 0.52263 0.01762 0.0
C473 C 0.55228 0.50647 0.06066 0.0
C474 C 0.53 0.51875 0.97499 0.0
C475 C 0.51803 0.49868 0.97473 0.0
C476 C 0.52423 0.48206 0.01539 0.0
C477 C 0.54128 0.4859 0.05787 0.0
C478 C 0.47672 0.47308 0.86194 0.0
C479 C 0.46279 0.49031 0.85189 0.0
C480 C 0.4945 0.47566 0.9023 0.0
C481 C 0.4987 0.4955 0.93364 0.0
C482 C 0.48434 0.51247 0.92519 0.0
C483 C 0.46661 0.50993 0.88462 0.0
H484 H 0.02807 0.55095 0.34833 0.0
H485 H 0.051 0.4874 0.39437 0.0
H486 H 0.99765 0.5451 0.41943 0.0
H487 H 0.02101 0.48191 0.46852 0.0
H488 H 0.95397 0.46916 0.55118 0.0
H489 H 0.98291 0.47508 0.47428 0.0
H490 H 0.9883 0.54336 0.52491 0.0
H491 H 0.95866 0.53757 0.59931 0.0
C492 C 0.02683 0.53584 0.37456 0.0
C493 C 0.04199 0.51964 0.36589 0.0
C494 C 0.00937 0.53252 0.4156 0.0
C495 C 0.0068 0.51304 0.44988 0.0
C496 C 0.02221 0.49695 0.442 0.0
C497 C 0.03954 0.50015 0.40002 0.0
C498 C 0.96115 0.48549 0.54506 0.0
C499 C 0.95404 0.50292 0.58108 0.0
C500 C 0.97791 0.48884 0.50153 0.0
C501 C 0.98817 0.50964 0.49378 0.0
C502 C 0.98062 0.52717 0.52887 0.0
C503 C 0.96362 0.52387 0.57164 0.0
H504 H 0.03809 0.55864 0.0739 0.0
H505 H 0.05853 0.49293 0.04525 0.0
H506 H 0.00611 0.55085 0.01069 0.0
H507 H 0.02701 0.48545 0.97805 0.0
H508 H 0.95713 0.46962 0.92374 0.0
H509 H 0.9893 0.47864 -0.01297 0.0
H510 H 0.99114 0.54447 0.91391 0.0
H511 H 0.95838 0.53578 0.85437 0.0
C512 C 0.03615 0.5427 0.05232 0.0
C513 C 0.0508 0.52634 0.06497 0.0
C514 C 0.0177 0.53821 0.01586 0.0
C515 C 0.01367 0.51738 -0.01014 0.0
C516 C 0.02919 0.50147 -0.00109 0.0
C517 C 0.04747 0.50585 0.03654 0.0
C518 C 0.96418 0.48614 0.92253 0.0
C519 C 0.95518 0.50201 0.88443 0.0
C520 C 0.98284 0.49124 0.9579 0.0
C521 C 0.99315 0.51221 0.95488 0.0
C522 C 0.98362 0.52823 0.91822 0.0
C523 C 0.96472 0.52326 0.88402 0.0
H524 H 0.45373 0.46458 0.51224 0.0
H525 H 0.45324 0.53161 0.57403 0.0
H526 H 0.48452 0.47397 0.44398 0.0
H527 H 0.48448 0.54077 0.50802 0.0
H528 H 0.53092 0.55275 0.34339 0.0
H529 H 0.49844 0.54514 0.4058 0.0
H530 H 0.52258 0.48262 0.45799 0.0
H531 H 0.55476 0.48986 0.39322 0.0
C532 C 0.45998 0.48138 0.51057 0.0
C533 C 0.45115 0.4973 0.54896 0.0
C534 C 0.47783 0.4867 0.47216 0.0
C535 C 0.48734 0.508 0.47173 0.0
C536 C 0.47759 0.52421 0.50708 0.0
C537 C 0.4596 0.51894 0.54495 0.0
C538 C 0.5295 0.5375 0.36891 0.0
C539 C 0.5454 0.52184 0.36304 0.0
C540 C 0.51081 0.53313 0.4047 0.0
C541 C 0.50769 0.51312 0.43606 0.0
C542 C 0.52417 0.49795 0.43294 0.0
C543 C 0.54278 0.50223 0.39658 0.0
H544 H 0.13514 0.45583 0.19839 0.0
H545 H 0.07694 0.42437 0.11958 0.0
H546 H 0.1569 0.42733 0.15523 0.0
H547 H 0.09902 0.39547 0.07706 0.0
H548 H 0.1527 0.33917 0.07962 0.0
H549 H 0.12663 0.36479 0.12037 0.0
H550 H 0.16399 0.41828 0.03564 0.0
H551 H 0.18973 0.393 -0.00576 0.0
C552 C 0.1269 0.44268 0.17266 0.0
C553 C 0.10428 0.4425 0.16202 0.0
C554 C 0.13942 0.42642 0.14769 0.0
C555 C 0.12963 0.40941 0.11226 0.0
C556 C 0.1069 0.40848 0.10417 0.0
C557 C 0.09433 0.42501 0.12845 0.0
C558 C 0.15512 0.35635 0.06879 0.0
C559 C 0.17342 0.36404 0.03413 0.0
C560 C 0.1402 0.37096 0.09206 0.0
C561 C 0.14354 0.39347 0.08176 0.0
C562 C 0.16123 0.40101 0.04485 0.0
C563 C 0.17591 0.38647 0.02093 0.0
H564 H 0.76847 0.90725 0.40336 0.0
H565 H 0.82314 0.92098 0.52637 0.0
H566 H 0.78243 0.93576 0.33185 0.0
H567 H 0.83668 0.94979 0.45592 0.0
H568 H 0.84887 0.94546 0.20413 0.0
H569 H 0.82002 0.93059 0.27239 0.0
H570 H 0.82895 0.9863 0.39419 0.0
H571 H 0.85749 0.00155 0.32498 0.0
C572 C 0.78294 0.91698 0.41642 0.0
C573 C 0.79493 0.91178 0.46991 0.0
C574 C 0.7909 0.93323 0.37546 0.0
C575 C 0.81062 0.94486 0.38839 0.0
C576 C 0.82132 0.94119 0.44517 0.0
C577 C 0.81366 0.92463 0.48529 0.0
C578 C 0.84404 0.95496 0.24405 0.0
C579 C 0.85559 0.97446 0.25978 0.0
C580 C 0.82745 0.94652 0.28295 0.0
C581 C 0.82246 0.95725 0.33875 0.0
C582 C 0.83256 0.97777 0.35139 0.0
C583 C 0.84884 0.98647 0.31169 0.0
H584 H 0.34758 0.67606 0.59821 0.0
H585 H 0.31245 0.62149 0.51078 0.0
H586 H 0.374 0.65105 0.64036 0.0
H587 H 0.33851 0.59683 0.55353 0.0
H588 H 0.36778 0.55893 0.7129 0.0
H589 H 0.34538 0.58743 0.67265 0.0
H590 H 0.40264 0.62148 0.59745 0.0
H591 H 0.42535 0.59265 0.63708 0.0
C592 C 0.34564 0.65885 0.58731 0.0
C593 C 0.32779 0.65076 0.55155 0.0
C594 C 0.36074 0.6446 0.61142 0.0
C595 C 0.35802 0.62205 0.60087 0.0
C596 C 0.34076 0.61413 0.56303 0.0
C597 C 0.32591 0.62831 0.5383 0.0
C598 C 0.37575 0.57259 0.68861 0.0
C599 C 0.39836 0.57336 0.67761 0.0
C600 C 0.36287 0.58886 0.66533 0.0
C601 C 0.37229 0.60642 0.63127 0.0
C602 C 0.39503 0.60803 0.62349 0.0
C603 C 0.40797 0.59154 0.64615 0.0
H604 H 0.73667 0.10233 0.91106 0.0
H605 H 0.68049 0.09093 0.03022 0.0
H606 H 0.7241 0.07183 0.84452 0.0
H607 H 0.66834 0.06016 0.96504 0.0
H608 H 0.64811 0.00671 0.84183 0.0
H609 H 0.67653 0.02258 0.91022 0.0
H610 H 0.68731 0.07595 0.78075 0.0
H611 H 0.6586 0.06047 0.71332 0.0
C612 C 0.7222 0.09267 0.92465 0.0
C613 C 0.70933 0.09908 0.97515 0.0
C614 C 0.71504 0.07527 0.88656 0.0
C615 C 0.69525 0.06377 0.8996 0.0
C616 C 0.68377 0.06864 0.95427 0.0
C617 C 0.69063 0.08632 -0.00863 0.0
C618 C 0.65717 0.02135 0.82676 0.0
C619 C 0.65095 0.03261 0.77291 0.0
C620 C 0.6734 0.0304 0.86594 0.0
C621 C 0.68393 0.05052 0.85087 0.0
C622 C 0.67954 0.06033 0.79322 0.0
C623 C 0.66301 0.05156 0.7548 0.0
H624 H 0.14679 0.52356 0.34669 0.0
H625 H 0.1556 0.57594 0.21301 0.0
H626 H 0.17733 0.53918 0.40835 0.0
H627 H 0.18655 0.59099 0.2732 0.0
H628 H 0.24403 0.61207 0.38701 0.0
H629 H 0.22604 0.58218 0.32803 0.0
H630 H 0.17262 0.58028 0.45938 0.0
H631 H 0.19014 0.61061 0.51709 0.0
C632 C 0.15589 0.53782 0.32906 0.0
C633 C 0.14883 0.54872 0.27553 0.0
C634 C 0.17328 0.54671 0.36432 0.0
C635 C 0.18419 0.5662 0.34527 0.0
C636 C 0.17852 0.5758 0.28836 0.0
C637 C 0.16078 0.56728 0.25414 0.0
C638 C 0.22885 0.6047 0.40462 0.0
C639 C 0.21828 0.61375 0.45608 0.0
C640 C 0.21861 0.58764 0.37084 0.0
C641 C 0.19802 0.57906 0.38931 0.0
C642 C 0.18862 0.58652 0.44468 0.0
C643 C 0.19856 0.60393 0.47746 0.0
H644 H 0.59075 0.92063 0.58238 0.0
H645 H 0.62419 0.92865 0.75907 0.0
H646 H 0.61601 0.89294 0.5519 0.0
H647 H 0.64924 0.90073 0.72865 0.0
H648 H 0.68379 0.84045 0.66661 0.0
H649 H 0.65163 0.86 0.69716 0.0
H650 H 0.65736 0.89864 0.52889 0.0
H651 H 0.68967 0.87938 0.49865 0.0
C652 C 0.60312 0.91611 0.61539 0.0
C653 C 0.60561 0.92699 0.67296 0.0
C654 C 0.61763 0.90033 0.59771 0.0
C655 C 0.63464 0.89483 0.63772 0.0
C656 C 0.63619 0.90458 0.69704 0.0
C657 C 0.6219 0.92062 0.71434 0.0
C658 C 0.67793 0.85281 0.6355 0.0
C659 C 0.68934 0.8585 0.58039 0.0
C660 C 0.6596 0.86404 0.65321 0.0
C661 C 0.65208 0.88084 0.61549 0.0
C662 C 0.66271 0.88563 0.5586 0.0
C663 C 0.68126 0.87468 0.54144 0.0
H664 H 0.35576 0.48837 0.828 0.0
H665 H 0.35142 0.43466 0.69754 0.0
H666 H 0.32501 0.47189 0.887 0.0
H667 H 0.32026 0.41867 0.75538 0.0
H668 H 0.26008 0.39817 0.86345 0.0
H669 H 0.27925 0.42705 0.80292 0.0
H670 H 0.3299 0.43146 0.9426 0.0
H671 H 0.31124 0.40212 0.00193 0.0
C672 C 0.34769 0.47352 0.81055 0.0
C673 C 0.35605 0.46262 0.75864 0.0
C674 C 0.33015 0.46415 0.84432 0.0
C675 C 0.32037 0.44412 0.82548 0.0
C676 C 0.32743 0.43428 0.77031 0.0
C677 C 0.34531 0.44333 0.7375 0.0
C678 C 0.27489 0.40588 0.8823 0.0
C679 C 0.28434 0.39787 0.93698 0.0
C680 C 0.28582 0.42232 0.84761 0.0
C681 C 0.30596 0.43134 0.8683 0.0
C682 C 0.31426 0.42485 0.92613 0.0
C683 C 0.30366 0.40804 0.95989 0.0
H684 H 0.81341 0.16825 0.193 0.0
H685 H 0.81025 0.12938 0.02466 0.0
H686 H 0.84276 0.14642 0.23216 0.0
H687 H 0.83948 0.10762 0.06391 0.0
H688 H 0.89997 0.07809 0.13385 0.0
H689 H 0.87853 0.1077 0.09509 0.0
H690 H 0.84264 0.1077 0.26867 0.0
H691 H 0.86411 0.07815 0.30773 0.0
C692 C 0.81925 0.15534 0.16379 0.0
C693 C 0.80935 0.15042 0.10592 0.0
C694 C 0.83597 0.14277 0.18645 0.0
C695 C 0.84332 0.12521 0.15136 0.0
C696 C 0.83431 0.12115 0.09188 0.0
C697 C 0.81747 0.13356 0.06951 0.0
C698 C 0.8878 0.08467 0.16431 0.0
C699 C 0.88356 0.07554 0.22366 0.0
C700 C 0.87546 0.10158 0.1419 0.0
C701 C 0.85875 0.10987 0.17853 0.0
C702 C 0.8555 0.10175 0.23944 0.0
C703 C 0.86774 0.08473 0.26173 0.0
H704 H 0.84597 0.68111 0.88081 0.0
H705 H 0.81665 0.62769 -0.01187 0.0
H706 H 0.87025 0.65574 0.83041 0.0
H707 H 0.84059 0.60263 0.9374 0.0
H708 H 0.8624 0.56239 0.77193 0.0
H709 H 0.84164 0.59063 0.82055 0.0
H710 H 0.90126 0.62802 0.86064 0.0
H711 H 0.92236 0.59949 0.81235 0.0
C712 C 0.84487 0.66408 0.89422 0.0
C713 C 0.82924 0.65642 0.93816 0.0
C714 C 0.85877 0.64961 0.86542 0.0
C715 C 0.85702 0.62724 0.87947 0.0
C716 C 0.84203 0.61977 0.9251 0.0
C717 C 0.8284 0.63419 0.95438 0.0
C718 C 0.87118 0.5767 0.79038 0.0
C719 C 0.89409 0.57857 0.78868 0.0
C720 C 0.85925 0.59281 0.81854 0.0
C721 C 0.86989 0.61132 0.845 0.0
C722 C 0.89271 0.61385 0.84061 0.0
C723 C 0.90474 0.59752 0.81306 0.0
H724 H 0.19233 0.09235 0.44534 0.0
H725 H 0.24472 0.10229 0.57816 0.0
H726 H 0.17936 0.05982 0.50192 0.0
H727 H 0.23125 0.07 0.63627 0.0
H728 H 0.15469 0.00553 0.61272 0.0
H729 H 0.18598 0.02146 0.55492 0.0
H730 H 0.19254 0.07326 0.6909 0.0
H731 H 0.16095 0.0578 0.74723 0.0
C732 C 0.20156 0.08702 0.48521 0.0
C733 C 0.2193 0.09988 0.50794 0.0
C734 C 0.19425 0.06833 0.51743 0.0
C735 C 0.20424 0.06254 0.57372 0.0
C736 C 0.22335 0.07413 0.59288 0.0
C737 C 0.23102 0.09256 0.55963 0.0
C738 C 0.16348 0.01973 0.63176 0.0
C739 C 0.15532 0.03068 0.68379 0.0
C740 C 0.18135 0.02883 0.59865 0.0
C741 C 0.19152 0.04863 0.61826 0.0
C742 C 0.18511 0.05788 0.67502 0.0
C743 C 0.16696 0.04912 0.70713 0.0
H744 H 0.68566 0.38971 0.50068 0.0
H745 H 0.65201 0.3363 0.40368 0.0
H746 H 0.66139 0.41516 0.45299 0.0
H747 H 0.62751 0.36204 0.35628 0.0
H748 H 0.57791 0.41927 0.33262 0.0
H749 H 0.59842 0.39119 0.38527 0.0
H750 H 0.65878 0.42597 0.33655 0.0
H751 H 0.6386 0.45372 0.28371 0.0
C752 C 0.67287 0.38331 0.47004 0.0
C753 C 0.67096 0.36096 0.45546 0.0
C754 C 0.65904 0.39794 0.44249 0.0
C755 C 0.64282 0.39058 0.4003 0.0
C756 C 0.63993 0.36811 0.38863 0.0
C757 C 0.65397 0.35342 0.41573 0.0
C758 C 0.59556 0.42079 0.33268 0.0
C759 C 0.6066 0.43879 0.30417 0.0
C760 C 0.60725 0.40472 0.36274 0.0
C761 C 0.63013 0.40662 0.36563 0.0
C762 C 0.64112 0.42431 0.33585 0.0
C763 C 0.62953 0.44012 0.30519 0.0
H764 H 0.34678 0.95072 0.26207 0.0
H765 H 0.35121 0.00484 0.13314 0.0
H766 H 0.31433 0.93613 0.20823 0.0
H767 H 0.31902 0.98981 0.07778 0.0
H768 H 0.26013 0.9091 0.09953 0.0
H769 H 0.27475 0.94049 0.1594 0.0
H770 H 0.32473 0.95203 0.01969 0.0
H771 H 0.31064 0.92036 0.96128 0.0
C772 C 0.34023 0.95995 0.22381 0.0
C773 C 0.35157 0.97869 0.20114 0.0
C774 C 0.32158 0.9517 0.19319 0.0
C775 C 0.31434 0.96178 0.13855 0.0
C776 C 0.32429 0.98181 0.11991 0.0
C777 C 0.34267 0.99038 0.1516 0.0
C778 C 0.27364 0.91896 0.08035 0.0
C779 C 0.28452 0.91225 0.0264 0.0
C780 C 0.28196 0.93688 0.1146 0.0
C781 C 0.30088 0.94856 0.09423 0.0
C782 C 0.31 0.94344 0.03614 0.0
C783 C 0.30205 0.92524 0.00287 0.0
H784 H 0.80767 0.39747 0.48136 0.0
H785 H 0.75724 0.39786 0.62213 0.0
H786 H 0.82641 0.42881 0.53165 0.0
H787 H 0.77655 0.42872 0.67381 0.0
H788 H 0.8509 0.49061 0.62976 0.0
H789 H 0.81972 0.47179 0.57826 0.0
H790 H 0.81958 0.42135 0.71873 0.0
H791 H 0.85124 0.4396 0.76878 0.0
C792 C 0.80028 0.40472 0.52187 0.0
C793 C 0.78113 0.39527 0.54812 0.0
C794 C 0.81091 0.42266 0.55041 0.0
C795 C 0.80282 0.43103 0.6064 0.0
C796 C 0.7829 0.42257 0.63034 0.0
C797 C 0.77191 0.40499 0.60074 0.0
C798 C 0.8437 0.47591 0.65082 0.0
C799 C 0.85348 0.4664 0.70288 0.0
C800 C 0.82594 0.4652 0.62133 0.0
C801 C 0.81736 0.44526 0.64486 0.0
C802 C 0.82583 0.43687 0.70031 0.0
C803 C 0.84395 0.44722 0.72871 0.0
H804 H 0.324 0.11862 0.54429 0.0
H805 H 0.31688 0.15726 0.37731 0.0
H806 H 0.35533 0.10177 0.49801 0.0
H807 H 0.34842 0.14056 0.33139 0.0
H808 H 0.37787 0.07808 0.24538 0.0
H809 H 0.35338 0.10359 0.29186 0.0
H810 H 0.39296 0.10654 0.45867 0.0
H811 H 0.41741 0.08075 0.41243 0.0
C812 C 0.32938 0.12386 0.49824 0.0
C813 C 0.31774 0.13907 0.46423 0.0
C814 C 0.34744 0.11428 0.4718 0.0
C815 C 0.35425 0.11968 0.41074 0.0
C816 C 0.34338 0.13583 0.37816 0.0
C817 C 0.32536 0.14546 0.40466 0.0
C818 C 0.38162 0.08447 0.29149 0.0
C819 C 0.39945 0.07714 0.32545 0.0
C820 C 0.36762 0.09922 0.31806 0.0
C821 C 0.3711 0.10693 0.37926 0.0
C822 C 0.38968 0.10063 0.41178 0.0
C823 C 0.40375 0.08595 0.38507 0.0
H824 H 0.65417 0.57138 0.25895 0.0
H825 H 0.65232 0.52312 0.11226 0.0
H826 H 0.6865 0.58929 0.21132 0.0
H827 H 0.68416 0.54171 0.06289 0.0
H828 H 0.69611 0.61917 0.98219 0.0
H829 H 0.67786 0.58625 0.02535 0.0
H830 H 0.72919 0.58159 0.16157 0.0
H831 H 0.74803 0.61404 0.11661 0.0
C832 C 0.6612 0.5642 0.2178 0.0
C833 C 0.65089 0.54597 0.18912 0.0
C834 C 0.67969 0.57435 0.19072 0.0
C835 C 0.6877 0.56677 0.13367 0.0
C836 C 0.67835 0.54762 0.10728 0.0
C837 C 0.66022 0.53704 0.13551 0.0
C838 C 0.70397 0.61052 0.01943 0.0
C839 C 0.72335 0.61909 0.04634 0.0
C840 C 0.69362 0.59168 0.0439 0.0
C841 C 0.70222 0.58153 0.09661 0.0
C842 C 0.72246 0.58909 0.12048 0.0
C843 C 0.73317 0.60759 0.09475 0.0
H844 H 0.1787 0.8395 0.8281 0.0
H845 H 0.18299 0.87875 -0.0044 0.0
H846 H 0.14822 0.8604 0.79194 0.0
H847 H 0.1526 0.89957 0.95935 0.0
H848 H 0.09018 0.92715 0.8939 0.0
H849 H 0.11293 0.89831 0.93148 0.0
H850 H 0.14742 0.89922 0.75554 0.0
H851 H 0.12472 0.92799 0.7178 0.0
C852 C 0.17288 0.85228 0.85781 0.0
C853 C 0.18342 0.85762 0.91446 0.0
C854 C 0.1555 0.8643 0.83689 0.0
C855 C 0.14814 0.88172 0.87256 0.0
C856 C 0.15779 0.88615 0.931 0.0
C857 C 0.17529 0.87429 0.95162 0.0
C858 C 0.10232 0.92092 0.86274 0.0
C859 C 0.1058 0.93005 0.80307 0.0
C860 C 0.11541 0.90447 0.88444 0.0
C861 C 0.13206 0.89663 0.84667 0.0
C862 C 0.13462 0.9048 0.7856 0.0
C863 C 0.12169 0.92139 0.7641 0.0
loop_
_geom_bond_atom_site_label_1
_geom_bond_atom_site_label_2
_geom_bond_distance
_geom_bond_site_symmetry_2
_ccdc_geom_bond_type
Zn0 O3 2.031 1_556 S
Zn0 O5 2.049 . S
Zn0 O10 2.067 . S
Zn1 O2 1.962 . S
Zn1 O4 1.986 . S
Zn1 O6 1.996 . S
Zn1 O9 1.943 1_554 S
O2 Zn1 1.962 . S
O2 C7 1.254 . S
O3 Zn0 2.031 1_554 S
O3 C7 1.269 . S
O4 Zn1 1.986 . S
O4 C11 1.262 . S
O5 Zn0 2.049 . S
O5 C13 1.260 . S
O6 Zn1 1.996 . S
O6 C13 1.257 1_554 S
C7 O2 1.254 . S
C7 O3 1.269 . S
C8 O9 1.249 . S
C8 O10 1.270 . S
O9 Zn1 1.943 1_556 S
O9 C8 1.249 . S
O10 Zn0 2.067 . S
O10 C8 1.270 . S
C11 O4 1.262 . S
C11 O12 1.232 . S
O12 C11 1.232 . S
C13 O5 1.260 . S
C13 O6 1.257 1_556 S
Zn14 O17 2.031 . S
Zn14 O19 2.049 . S
Zn14 O24 2.067 . S
Zn15 O16 1.962 . S
Zn15 O18 1.986 . S
Zn15 O20 1.996 1_545 S
Zn15 O23 1.943 . S
O16 Zn15 1.962 . S
O16 C21 1.254 1_545 S
O17 Zn14 2.031 . S
O17 C21 1.269 . S
O18 Zn15 1.986 . S
O18 C25 1.262 . S
O19 Zn14 2.049 . S
O19 C27 1.260 . S
O20 Zn15 1.996 1_565 S
O20 C27 1.257 . S
C21 O16 1.254 1_565 S
C21 O17 1.269 . S
C22 O23 1.249 . S
C22 O24 1.270 1_545 S
O23 Zn15 1.943 . S
O23 C22 1.249 . S
O24 Zn14 2.067 . S
O24 C22 1.270 1_565 S
C25 O18 1.262 . S
C25 O26 1.232 . S
O26 C25 1.232 . S
C27 O19 1.260 . S
C27 O20 1.257 . S
Zn28 O31 2.031 . S
Zn28 O33 2.049 . S
Zn28 O38 2.067 . S
Zn29 O30 1.962 . S
Zn29 O32 1.986 . S
Zn29 O34 1.996 . S
Zn29 O37 1.943 . S
O30 Zn29 1.962 . S
O30 C35 1.254 . S
O31 Zn28 2.031 . S
O31 C35 1.269 . S
O32 Zn29 1.986 . S
O32 C39 1.262 . S
O33 Zn28 2.049 . S
O33 C41 1.260 . S
O34 Zn29 1.996 . S
O34 C41 1.257 . S
C35 O30 1.254 . S
C35 O31 1.269 . S
C36 O37 1.249 . S
C36 O38 1.270 . S
O37 Zn29 1.943 . S
O37 C36 1.249 . S
O38 Zn28 2.067 . S
O38 C36 1.270 . S
C39 O32 1.262 . S
C39 O40 1.232 . S
O40 C39 1.232 . S
C41 O33 1.260 . S
C41 O34 1.257 . S
Zn42 O45 2.031 . S
Zn42 O47 2.049 . S
Zn42 O52 2.067 . S
Zn43 O44 1.962 1_565 S
Zn43 O46 1.986 . S
Zn43 O48 1.996 1_565 S
Zn43 O51 1.943 . S
O44 Zn43 1.962 1_545 S
O44 C49 1.254 . S
O45 Zn42 2.031 . S
O45 C49 1.269 . S
O46 Zn43 1.986 . S
O46 C53 1.262 . S
O47 Zn42 2.049 . S
O47 C55 1.260 . S
O48 Zn43 1.996 1_545 S
O48 C55 1.257 . S
C49 O44 1.254 . S
C49 O45 1.269 . S
C50 O51 1.249 1_545 S
C50 O52 1.270 . S
O51 Zn43 1.943 . S
O51 C50 1.249 1_565 S
O52 Zn42 2.067 . S
O52 C50 1.270 . S
C53 O46 1.262 . S
C53 O54 1.232 . S
O54 C53 1.232 . S
C55 O47 1.260 . S
C55 O48 1.257 . S
Zn56 O59 2.031 1_554 S
Zn56 O61 2.049 . S
Zn56 O66 2.067 . S
Zn57 O58 1.962 . S
Zn57 O60 1.986 . S
Zn57 O62 1.996 1_556 S
Zn57 O65 1.943 1_556 S
O58 Zn57 1.962 . S
O58 C63 1.254 . S
O59 Zn56 2.031 1_556 S
O59 C63 1.269 . S
O60 Zn57 1.986 . S
O60 C67 1.262 . S
O61 Zn56 2.049 . S
O61 C69 1.260 . S
O62 Zn57 1.996 1_554 S
O62 C69 1.257 . S
C63 O58 1.254 . S
C63 O59 1.269 . S
C64 O65 1.249 . S
C64 O66 1.270 . S
O65 Zn57 1.943 1_554 S
O65 C64 1.249 . S
O66 Zn56 2.067 . S
O66 C64 1.270 . S
C67 O60 1.262 . S
C67 O68 1.232 . S
O68 C67 1.232 . S
C69 O61 1.260 . S
C69 O62 1.257 . S
Zn70 O73 2.031 . S
Zn70 O75 2.049 . S
Zn70 O80 2.067 . S
Zn71 O72 1.962 1_565 S
Zn71 O74 1.986 . S
Zn71 O76 1.996 1_565 S
Zn71 O79 1.943 . S
O72 Zn71 1.962 1_545 S
O72 C77 1.254 . S
O73 Zn70 2.031 . S
O73 C77 1.269 . S
O74 Zn71 1.986 . S
O74 C81 1.262 . S
O75 Zn70 2.049 . S
O75 C83 1.260 . S
O76 Zn71 1.996 1_545 S
O76 C83 1.257 . S
C77 O72 1.254 . S
C77 O73 1.269 . S
C78 O79 1.249 1_545 S
C78 O80 1.270 . S
O79 Zn71 1.943 . S
O79 C78 1.249 1_565 S
O80 Zn70 2.067 . S
O80 C78 1.270 . S
C81 O74 1.262 . S
C81 O82 1.232 . S
O82 C81 1.232 . S
C83 O75 1.260 . S
C83 O76 1.257 . S
Zn84 O87 2.031 . S
Zn84 O89 2.049 . S
Zn84 O94 2.067 . S
Zn85 O86 1.962 . S
Zn85 O88 1.986 . S
Zn85 O90 1.996 . S
Zn85 O93 1.943 . S
O86 Zn85 1.962 . S
O86 C91 1.254 . S
O87 Zn84 2.031 . S
O87 C91 1.269 . S
O88 Zn85 1.986 . S
O88 C95 1.262 . S
O89 Zn84 2.049 . S
O89 C97 1.260 . S
O90 Zn85 1.996 . S
O90 C97 1.257 . S
C91 O86 1.254 . S
C91 O87 1.269 . S
C92 O93 1.249 . S
C92 O94 1.270 . S
O93 Zn85 1.943 . S
O93 C92 1.249 . S
O94 Zn84 2.067 . S
O94 C92 1.270 . S
C95 O88 1.262 . S
C95 O96 1.232 . S
O96 C95 1.232 . S
C97 O89 1.260 . S
C97 O90 1.257 . S
Zn98 O101 2.031 . S
Zn98 O103 2.049 . S
Zn98 O108 2.067 . S
Zn99 O100 1.962 . S
Zn99 O102 1.986 . S
Zn99 O104 1.996 1_545 S
Zn99 O107 1.943 . S
O100 Zn99 1.962 . S
O100 C105 1.254 1_545 S
O101 Zn98 2.031 . S
O101 C105 1.269 . S
O102 Zn99 1.986 . S
O102 C109 1.262 . S
O103 Zn98 2.049 . S
O103 C111 1.260 . S
O104 Zn99 1.996 1_565 S
O104 C111 1.257 . S
C105 O100 1.254 1_565 S
C105 O101 1.269 . S
C106 O107 1.249 . S
C106 O108 1.270 1_545 S
O107 Zn99 1.943 . S
O107 C106 1.249 . S
O108 Zn98 2.067 . S
O108 C106 1.270 1_565 S
C109 O102 1.262 . S
C109 O110 1.232 . S
O110 C109 1.232 . S
C111 O103 1.260 . S
C111 O104 1.257 . S
Zn112 O115 2.031 . S
Zn112 O117 2.049 . S
Zn112 O122 2.067 . S
Zn113 O114 1.962 . S
Zn113 O116 1.986 . S
Zn113 O118 1.996 . S
Zn113 O121 1.943 . S
O114 Zn113 1.962 . S
O114 C119 1.254 . S
O115 Zn112 2.031 . S
O115 C119 1.269 . S
O116 Zn113 1.986 . S
O116 C123 1.262 . S
O117 Zn112 2.049 . S
O117 C125 1.260 . S
O118 Zn113 1.996 . S
O118 C125 1.257 . S
C119 O114 1.254 . S
C119 O115 1.269 . S
C120 O121 1.249 . S
C120 O122 1.270 . S
O121 Zn113 1.943 . S
O121 C120 1.249 . S
O122 Zn112 2.067 . S
O122 C120 1.270 . S
C123 O116 1.262 . S
C123 O124 1.232 . S
O124 C123 1.232 . S
C125 O117 1.260 . S
C125 O118 1.257 . S
Zn126 O129 2.031 . S
Zn126 O131 2.049 . S
Zn126 O136 2.067 . S
Zn127 O128 1.962 . S
Zn127 O130 1.986 . S
Zn127 O132 1.996 . S
Zn127 O135 1.943 . S
O128 Zn127 1.962 . S
O128 C133 1.254 . S
O129 Zn126 2.031 . S
O129 C133 1.269 . S
O130 Zn127 1.986 . S
O130 C137 1.262 . S
O131 Zn126 2.049 . S
O131 C139 1.260 . S
O132 Zn127 1.996 . S
O132 C139 1.257 . S
C133 O128 1.254 . S
C133 O129 1.269 . S
C134 O135 1.249 . S
C134 O136 1.270 . S
O135 Zn127 1.943 . S
O135 C134 1.249 . S
O136 Zn126 2.067 . S
O136 C134 1.270 . S
C137 O130 1.262 . S
C137 O138 1.232 . S
O138 C137 1.232 . S
C139 O131 1.260 . S
C139 O132 1.257 . S
Zn140 O143 2.031 1_556 S
Zn140 O145 2.049 . S
Zn140 O150 2.067 . S
Zn141 O142 1.962 . S
Zn141 O144 1.986 . S
Zn141 O146 1.996 . S
Zn141 O149 1.943 1_554 S
O142 Zn141 1.962 . S
O142 C147 1.254 . S
O143 Zn140 2.031 1_554 S
O143 C147 1.269 . S
O144 Zn141 1.986 . S
O144 C151 1.262 . S
O145 Zn140 2.049 . S
O145 C153 1.260 . S
O146 Zn141 1.996 . S
O146 C153 1.257 1_554 S
C147 O142 1.254 . S
C147 O143 1.269 . S
C148 O149 1.249 . S
C148 O150 1.270 . S
O149 Zn141 1.943 1_556 S
O149 C148 1.249 . S
O150 Zn140 2.067 . S
O150 C148 1.270 . S
C151 O144 1.262 . S
C151 O152 1.232 . S
O152 C151 1.232 . S
C153 O145 1.260 . S
C153 O146 1.257 1_556 S
Zn154 O157 2.031 . S
Zn154 O159 2.049 . S
Zn154 O164 2.067 . S
Zn155 O156 1.962 . S
Zn155 O158 1.986 . S
Zn155 O160 1.996 . S
Zn155 O163 1.943 . S
O156 Zn155 1.962 . S
O156 C161 1.254 . S
O157 Zn154 2.031 . S
O157 C161 1.269 . S
O158 Zn155 1.986 . S
O158 C165 1.262 . S
O159 Zn154 2.049 . S
O159 C167 1.260 . S
O160 Zn155 1.996 . S
O160 C167 1.257 . S
C161 O156 1.254 . S
C161 O157 1.269 . S
C162 O163 1.249 . S
C162 O164 1.270 . S
O163 Zn155 1.943 . S
O163 C162 1.249 . S
O164 Zn154 2.067 . S
O164 C162 1.270 . S
C165 O158 1.262 . S
C165 O166 1.232 . S
O166 C165 1.232 . S
C167 O159 1.260 . S
C167 O160 1.257 . S
Zn168 O171 2.031 . S
Zn168 O173 2.049 . S
Zn168 O178 2.067 . S
Zn169 O170 1.962 . S
Zn169 O172 1.986 . S
Zn169 O174 1.996 . S
Zn169 O177 1.943 . S
O170 Zn169 1.962 . S
O170 C175 1.254 . S
O171 Zn168 2.031 . S
O171 C175 1.269 . S
O172 Zn169 1.986 . S
O172 C179 1.262 . S
O173 Zn168 2.049 . S
O173 C181 1.260 . S
O174 Zn169 1.996 . S
O174 C181 1.257 . S
C175 O170 1.254 . S
C175 O171 1.269 . S
C176 O177 1.249 . S
C176 O178 1.270 . S
O177 Zn169 1.943 . S
O177 C176 1.249 . S
O178 Zn168 2.067 . S
O178 C176 1.270 . S
C179 O172 1.262 . S
C179 O180 1.232 . S
O180 C179 1.232 . S
C181 O173 1.260 . S
C181 O174 1.257 . S
Zn182 O185 2.031 . S
Zn182 O187 2.049 . S
Zn182 O192 2.067 . S
Zn183 O184 1.962 . S
Zn183 O186 1.986 . S
Zn183 O188 1.996 . S
Zn183 O191 1.943 . S
O184 Zn183 1.962 . S
O184 C189 1.254 . S
O185 Zn182 2.031 . S
O185 C189 1.269 . S
O186 Zn183 1.986 . S
O186 C193 1.262 . S
O187 Zn182 2.049 . S
O187 C195 1.260 . S
O188 Zn183 1.996 . S
O188 C195 1.257 . S
C189 O184 1.254 . S
C189 O185 1.269 . S
C190 O191 1.249 . S
C190 O192 1.270 . S
O191 Zn183 1.943 . S
O191 C190 1.249 . S
O192 Zn182 2.067 . S
O192 C190 1.270 . S
C193 O186 1.262 . S
C193 O194 1.232 . S
O194 C193 1.232 . S
C195 O187 1.260 . S
C195 O188 1.257 . S
Zn196 O199 2.031 1_554 S
Zn196 O201 2.049 . S
Zn196 O206 2.067 . S
Zn197 O198 1.962 . S
Zn197 O200 1.986 . S
Zn197 O202 1.996 1_556 S
Zn197 O205 1.943 1_556 S
O198 Zn197 1.962 . S
O198 C203 1.254 . S
O199 Zn196 2.031 1_556 S
O199 C203 1.269 . S
O200 Zn197 1.986 . S
O200 C207 1.262 . S
O201 Zn196 2.049 . S
O201 C209 1.260 . S
O202 Zn197 1.996 1_554 S
O202 C209 1.257 . S
C203 O198 1.254 . S
C203 O199 1.269 . S
C204 O205 1.249 . S
C204 O206 1.270 . S
O205 Zn197 1.943 1_554 S
O205 C204 1.249 . S
O206 Zn196 2.067 . S
O206 C204 1.270 . S
C207 O200 1.262 . S
C207 O208 1.232 . S
O208 C207 1.232 . S
C209 O201 1.260 . S
C209 O202 1.257 . S
Zn210 O213 2.031 . S
Zn210 O215 2.049 . S
Zn210 O220 2.067 . S
Zn211 O212 1.962 . S
Zn211 O214 1.986 . S
Zn211 O216 1.996 . S
Zn211 O219 1.943 . S
O212 Zn211 1.962 . S
O212 C217 1.254 . S
O213 Zn210 2.031 . S
O213 C217 1.269 . S
O214 Zn211 1.986 . S
O214 C221 1.262 . S
O215 Zn210 2.049 . S
O215 C223 1.260 . S
O216 Zn211 1.996 . S
O216 C223 1.257 . S
C217 O212 1.254 . S
C217 O213 1.269 . S
C218 O219 1.249 . S
C218 O220 1.270 . S
O219 Zn211 1.943 . S
O219 C218 1.249 . S
O220 Zn210 2.067 . S
O220 C218 1.270 . S
C221 O214 1.262 . S
C221 O222 1.232 . S
O222 C221 1.232 . S
C223 O215 1.260 . S
C223 O216 1.257 . S
H224 C232 0.950 . S
H225 C237 0.950 . S
H226 C234 0.950 . S
H227 C236 0.950 . S
H228 C238 0.950 . S
H229 C240 0.950 . S
H230 C242 0.950 . S
H231 C243 0.950 . S
C232 H224 0.950 . S
C232 C233 1.386 . S
C232 C234 1.391 . S
C233 C232 1.386 . S
C233 C237 1.393 . S
C234 H226 0.950 . S
C234 C232 1.391 . S
C234 C235 1.400 . S
C235 C234 1.400 . S
C235 C236 1.398 . S
C235 C241 1.491 . S
C236 H227 0.950 . S
C236 C235 1.398 . S
C236 C237 1.391 . S
C237 H225 0.950 . S
C237 C233 1.393 . S
C237 C236 1.391 . S
C238 H228 0.950 . S
C238 C239 1.386 . S
C238 C240 1.391 . S
C239 C238 1.386 . S
C239 C243 1.393 . S
C240 H229 0.950 . S
C240 C238 1.391 . S
C240 C241 1.400 . S
C241 C235 1.491 . S
C241 C240 1.400 . S
C241 C242 1.398 . S
C242 H230 0.950 . S
C242 C241 1.398 . S
C242 C243 1.391 . S
C243 H231 0.950 . S
C243 C239 1.393 . S
C243 C242 1.391 . S
H244 C252 0.950 . S
H245 C257 0.950 . S
H246 C254 0.950 . S
H247 C256 0.950 1_455 S
H248 C258 0.950 . S
H249 C260 0.950 . S
H250 C262 0.950 1_655 S
H251 C263 0.950 . S
C252 H244 0.950 . S
C252 C253 1.386 1_565 S
C252 C254 1.391 . S
C253 C252 1.386 1_545 S
C253 C257 1.393 . S
C254 H246 0.950 . S
C254 C252 1.391 . S
C254 C255 1.400 1_565 S
C255 C254 1.400 1_545 S
C255 C256 1.398 . S
C255 C261 1.491 1_655 S
C256 H247 0.950 1_655 S
C256 C255 1.398 . S
C256 C257 1.391 . S
C257 H245 0.950 . S
C257 C253 1.393 . S
C257 C256 1.391 . S
C258 H248 0.950 . S
C258 C259 1.386 1_545 S
C258 C260 1.391 . S
C259 C258 1.386 1_565 S
C259 C263 1.393 . S
C260 H249 0.950 . S
C260 C258 1.391 . S
C260 C261 1.400 . S
C261 C255 1.491 1_455 S
C261 C260 1.400 . S
C261 C262 1.398 1_545 S
C262 H250 0.950 1_455 S
C262 C261 1.398 1_565 S
C262 C263 1.391 . S
C263 H251 0.950 . S
C263 C259 1.393 . S
C263 C262 1.391 . S
H264 C272 0.950 . S
H265 C277 0.950 . S
H266 C274 0.950 . S
H267 C276 0.950 . S
H268 C278 0.950 . S
H269 C280 0.950 . S
H270 C282 0.950 . S
H271 C283 0.950 . S
C272 H264 0.950 . S
C272 C273 1.386 . S
C272 C274 1.391 . S
C273 C272 1.386 . S
C273 C277 1.393 . S
C274 H266 0.950 . S
C274 C272 1.391 . S
C274 C275 1.400 . S
C275 C274 1.400 . S
C275 C276 1.398 . S
C275 C281 1.491 . S
C276 H267 0.950 . S
C276 C275 1.398 . S
C276 C277 1.391 . S
C277 H265 0.950 . S
C277 C273 1.393 . S
C277 C276 1.391 . S
C278 H268 0.950 . S
C278 C279 1.386 . S
C278 C280 1.391 . S
C279 C278 1.386 . S
C279 C283 1.393 . S
C280 H269 0.950 . S
C280 C278 1.391 . S
C280 C281 1.400 . S
C281 C275 1.491 . S
C281 C280 1.400 . S
C281 C282 1.398 . S
C282 H270 0.950 . S
C282 C281 1.398 . S
C282 C283 1.391 . S
C283 H271 0.950 . S
C283 C279 1.393 . S
C283 C282 1.391 . S
H284 C292 0.950 . S
H285 C297 0.950 . S
H286 C294 0.950 . S
H287 C296 0.950 1_556 S
H288 C298 0.950 . S
H289 C300 0.950 . S
H290 C302 0.950 1_554 S
H291 C303 0.947 . S
C292 H284 0.950 . S
C292 C293 1.386 . S
C292 C294 1.391 . S
C293 C292 1.386 . S
C293 C297 1.393 . S
C294 H286 0.950 . S
C294 C292 1.391 . S
C294 C295 1.400 . S
C295 C294 1.400 . S
C295 C296 1.398 . S
C295 C301 1.491 1_554 S
C296 H287 0.950 1_554 S
C296 C295 1.398 . S
C296 C297 1.391 . S
C297 H285 0.950 . S
C297 C293 1.393 . S
C297 C296 1.391 . S
C298 H288 0.950 . S
C298 C299 1.386 . S
C298 C300 1.391 1_565 S
C299 C298 1.386 . S
C299 C303 1.392 . S
C300 H289 0.950 . S
C300 C298 1.391 1_545 S
C300 C301 1.400 . S
C301 C295 1.491 1_556 S
C301 C300 1.400 . S
C301 C302 1.398 . S
C302 H290 0.950 1_556 S
C302 C301 1.398 . S
C302 C303 1.392 1_545 S
C303 H291 0.947 . S
C303 C299 1.392 . S
C303 C302 1.392 1_565 S
H304 C312 0.950 . S
H305 C317 0.950 . S
H306 C314 0.950 . S
H307 C316 0.950 . S
H308 C318 0.950 . S
H309 C320 0.950 . S
H310 C322 0.950 . S
H311 C323 0.950 . S
C312 H304 0.950 . S
C312 C313 1.386 . S
C312 C314 1.391 . S
C313 C312 1.386 . S
C313 C317 1.393 . S
C314 H306 0.950 . S
C314 C312 1.391 . S
C314 C315 1.400 . S
C315 C314 1.400 . S
C315 C316 1.398 . S
C315 C321 1.491 . S
C316 H307 0.950 . S
C316 C315 1.398 . S
C316 C317 1.391 . S
C317 H305 0.950 . S
C317 C313 1.393 . S
C317 C316 1.391 . S
C318 H308 0.950 . S
C318 C319 1.386 . S
C318 C320 1.391 . S
C319 C318 1.386 . S
C319 C323 1.393 . S
C320 H309 0.950 . S
C320 C318 1.391 . S
C320 C321 1.400 . S
C321 C315 1.491 . S
C321 C320 1.400 . S
C321 C322 1.398 . S
C322 H310 0.950 . S
C322 C321 1.398 . S
C322 C323 1.391 . S
C323 H311 0.950 . S
C323 C319 1.393 . S
C323 C322 1.391 . S
H324 C332 0.950 . S
H325 C337 0.950 . S
H326 C334 0.950 . S
H327 C336 0.950 . S
H328 C338 0.950 . S
H329 C340 0.950 . S
H330 C342 0.950 . S
H331 C343 0.950 . S
C332 H324 0.950 . S
C332 C333 1.381 1_545 S
C332 C334 1.391 . S
C333 C332 1.381 1_565 S
C333 C337 1.397 . S
C334 H326 0.950 . S
C334 C332 1.391 . S
C334 C335 1.400 . S
C335 C334 1.400 . S
C335 C336 1.398 1_545 S
C335 C341 1.491 . S
C336 H327 0.950 . S
C336 C335 1.398 1_565 S
C336 C337 1.391 . S
C337 H325 0.950 . S
C337 C333 1.397 . S
C337 C336 1.391 . S
C338 H328 0.950 . S
C338 C339 1.386 1_565 S
C338 C340 1.391 . S
C339 C338 1.386 1_545 S
C339 C343 1.393 . S
C340 H329 0.950 . S
C340 C338 1.391 . S
C340 C341 1.400 1_565 S
C341 C335 1.491 . S
C341 C340 1.400 1_545 S
C341 C342 1.398 . S
C342 H330 0.950 . S
C342 C341 1.398 . S
C342 C343 1.391 . S
C343 H331 0.950 . S
C343 C339 1.393 . S
C343 C342 1.391 . S
H344 C352 0.950 . S
H345 C357 0.950 . S
H346 C354 0.950 . S
H347 C356 0.950 . S
H348 C358 0.950 . S
H349 C360 0.950 . S
H350 C362 0.950 . S
H351 C363 0.950 . S
C352 H344 0.950 . S
C352 C353 1.386 . S
C352 C354 1.391 . S
C353 C352 1.386 . S
C353 C357 1.393 . S
C354 H346 0.950 . S
C354 C352 1.391 . S
C354 C355 1.400 . S
C355 C354 1.400 . S
C355 C356 1.398 . S
C355 C361 1.491 . S
C356 H347 0.950 . S
C356 C355 1.398 . S
C356 C357 1.391 . S
C357 H345 0.950 . S
C357 C353 1.393 . S
C357 C356 1.391 . S
C358 H348 0.950 . S
C358 C359 1.386 . S
C358 C360 1.391 . S
C359 C358 1.386 . S
C359 C363 1.393 . S
C360 H349 0.950 . S
C360 C358 1.391 . S
C360 C361 1.400 . S
C361 C355 1.491 . S
C361 C360 1.400 . S
C361 C362 1.398 . S
C362 H350 0.950 . S
C362 C361 1.398 . S
C362 C363 1.391 . S
C363 H351 0.950 . S
C363 C359 1.393 . S
C363 C362 1.391 . S
H364 C372 0.950 . S
H365 C377 0.950 . S
H366 C374 0.950 1_655 S
H367 C376 0.950 1_554 S
H368 C378 0.950 . S
H369 C380 0.950 1_455 S
H370 C382 0.950 1_556 S
H371 C383 0.950 . S
C372 H364 0.950 . S
C372 C373 1.386 1_565 S
C372 C374 1.391 . S
C373 C372 1.386 1_545 S
C373 C377 1.393 . S
C374 H366 0.950 1_455 S
C374 C372 1.391 . S
C374 C375 1.400 1_565 S
C375 C374 1.400 1_545 S
C375 C376 1.398 . S
C375 C381 1.491 1_456 S
C376 H367 0.950 1_556 S
C376 C375 1.398 . S
C376 C377 1.391 . S
C377 H365 0.950 . S
C377 C373 1.393 . S
C377 C376 1.391 . S
C378 H368 0.950 . S
C378 C379 1.384 . S
C378 C380 1.391 . S
C379 C378 1.384 . S
C379 C383 1.394 1_545 S
C380 H369 0.950 1_655 S
C380 C378 1.391 . S
C380 C381 1.400 . S
C381 C375 1.491 1_654 S
C381 C380 1.400 . S
C381 C382 1.398 1_545 S
C382 H370 0.950 1_554 S
C382 C381 1.398 1_565 S
C382 C383 1.391 . S
C383 H371 0.950 . S
C383 C379 1.394 1_565 S
C383 C382 1.391 . S
H384 C392 0.950 . S
H385 C397 0.950 . S
H386 C394 0.950 . S
H387 C396 0.950 . S
H388 C398 0.950 . S
H389 C400 0.950 . S
H390 C402 0.950 . S
H391 C403 0.950 . S
C392 H384 0.950 . S
C392 C393 1.386 . S
C392 C394 1.391 . S
C393 C392 1.386 . S
C393 C397 1.393 . S
C394 H386 0.950 . S
C394 C392 1.391 . S
C394 C395 1.400 . S
C395 C394 1.400 . S
C395 C396 1.398 . S
C395 C401 1.491 . S
C396 H387 0.950 . S
C396 C395 1.398 . S
C396 C397 1.391 . S
C397 H385 0.950 . S
C397 C393 1.393 . S
C397 C396 1.391 . S
C398 H388 0.950 . S
C398 C399 1.386 . S
C398 C400 1.391 . S
C399 C398 1.386 . S
C399 C403 1.393 . S
C400 H389 0.950 . S
C400 C398 1.391 . S
C400 C401 1.400 . S
C401 C395 1.491 . S
C401 C400 1.400 . S
C401 C402 1.398 . S
C402 H390 0.950 . S
C402 C401 1.398 . S
C402 C403 1.391 . S
C403 H391 0.950 . S
C403 C399 1.393 . S
C403 C402 1.391 . S
H404 C412 0.950 . S
H405 C417 0.950 . S
H406 C414 0.950 . S
H407 C416 0.950 . S
H408 C418 0.950 . S
H409 C420 0.950 . S
H410 C422 0.950 . S
H411 C423 0.950 . S
C412 H404 0.950 . S
C412 C413 1.386 . S
C412 C414 1.391 . S
C413 C412 1.386 . S
C413 C417 1.393 . S
C414 H406 0.950 . S
C414 C412 1.391 . S
C414 C415 1.400 . S
C415 C414 1.400 . S
C415 C416 1.398 . S
C415 C421 1.491 . S
C416 H407 0.950 . S
C416 C415 1.398 . S
C416 C417 1.391 . S
C417 H405 0.950 . S
C417 C413 1.393 . S
C417 C416 1.391 . S
C418 H408 0.950 . S
C418 C419 1.386 . S
C418 C420 1.391 . S
C419 C418 1.386 . S
C419 C423 1.393 . S
C420 H409 0.950 . S
C420 C418 1.391 . S
C420 C421 1.400 . S
C421 C415 1.491 . S
C421 C420 1.400 . S
C421 C422 1.398 . S
C422 H410 0.950 . S
C422 C421 1.398 . S
C422 C423 1.391 . S
C423 H411 0.950 . S
C423 C419 1.393 . S
C423 C422 1.391 . S
H424 C432 0.950 . S
H425 C437 0.950 . S
H426 C434 0.950 . S
H427 C436 0.950 . S
H428 C438 0.950 . S
H429 C440 0.950 . S
H430 C442 0.950 . S
H431 C443 0.950 . S
C432 H424 0.950 . S
C432 C433 1.386 . S
C432 C434 1.391 . S
C433 C432 1.386 . S
C433 C437 1.393 . S
C434 H426 0.950 . S
C434 C432 1.391 . S
C434 C435 1.400 . S
C435 C434 1.400 . S
C435 C436 1.398 . S
C435 C441 1.491 . S
C436 H427 0.950 . S
C436 C435 1.398 . S
C436 C437 1.391 . S
C437 H425 0.950 . S
C437 C433 1.393 . S
C437 C436 1.391 . S
C438 H428 0.950 . S
C438 C439 1.386 . S
C438 C440 1.391 . S
C439 C438 1.386 . S
C439 C443 1.393 . S
C440 H429 0.950 . S
C440 C438 1.391 . S
C440 C441 1.400 . S
C441 C435 1.491 . S
C441 C440 1.400 . S
C441 C442 1.398 . S
C442 H430 0.950 . S
C442 C441 1.398 . S
C442 C443 1.391 . S
C443 H431 0.950 . S
C443 C439 1.393 . S
C443 C442 1.391 . S
H444 C452 0.950 . S
H445 C457 0.950 . S
H446 C454 0.950 . S
H447 C456 0.950 . S
H448 C458 0.950 . S
H449 C460 0.950 . S
H450 C462 0.950 . S
H451 C463 0.950 . S
C452 H444 0.950 . S
C452 C453 1.386 . S
C452 C454 1.391 . S
C453 C452 1.386 . S
C453 C457 1.393 . S
C454 H446 0.950 . S
C454 C452 1.391 . S
C454 C455 1.400 . S
C455 C454 1.400 . S
C455 C456 1.398 . S
C455 C461 1.491 . S
C456 H447 0.950 . S
C456 C455 1.398 . S
C456 C457 1.391 . S
C457 H445 0.950 . S
C457 C453 1.393 . S
C457 C456 1.391 . S
C458 H448 0.950 . S
C458 C459 1.386 . S
C458 C460 1.391 . S
C459 C458 1.386 . S
C459 C463 1.393 . S
C460 H449 0.950 . S
C460 C458 1.391 . S
C460 C461 1.400 . S
C461 C455 1.491 . S
C461 C460 1.400 . S
C461 C462 1.398 . S
C462 H450 0.950 . S
C462 C461 1.398 . S
C462 C463 1.391 . S
C463 H451 0.950 . S
C463 C459 1.393 . S
C463 C462 1.391 . S
H464 C472 0.950 . S
H465 C477 0.950 . S
H466 C474 0.950 1_556 S
H467 C476 0.950 . S
H468 C478 0.950 . S
H469 C480 0.940 1_554 S
H470 C482 0.950 . S
H471 C483 0.950 . S
C472 H464 0.950 . S
C472 C473 1.386 . S
C472 C474 1.391 . S
C473 C472 1.386 . S
C473 C477 1.393 . S
C474 H466 0.950 1_554 S
C474 C472 1.391 . S
C474 C475 1.400 . S
C475 C474 1.400 . S
C475 C476 1.398 . S
C475 C481 1.491 1_554 S
C476 H467 0.950 . S
C476 C475 1.398 . S
C476 C477 1.391 . S
C477 H465 0.950 . S
C477 C473 1.393 . S
C477 C476 1.391 . S
C478 H468 0.950 . S
C478 C479 1.386 . S
C478 C480 1.398 . S
C479 C478 1.386 . S
C479 C483 1.393 . S
C480 H469 0.940 1_556 S
C480 C478 1.398 . S
C480 C481 1.403 . S
C481 C475 1.491 1_556 S
C481 C480 1.403 . S
C481 C482 1.398 . S
C482 H470 0.950 . S
C482 C481 1.398 . S
C482 C483 1.391 . S
C483 H471 0.950 . S
C483 C479 1.393 . S
C483 C482 1.391 . S
H484 C492 0.950 . S
H485 C497 0.950 . S
H486 C494 0.950 . S
H487 C496 0.950 1_655 S
H488 C498 0.950 . S
H489 C500 0.950 . S
H490 C502 0.950 1_455 S
H491 C503 0.950 . S
C492 H484 0.950 . S
C492 C493 1.386 . S
C492 C494 1.391 . S
C493 C492 1.386 . S
C493 C497 1.393 . S
C494 H486 0.950 . S
C494 C492 1.391 . S
C494 C495 1.400 . S
C495 C494 1.400 . S
C495 C496 1.398 . S
C495 C501 1.491 1_455 S
C496 H487 0.950 1_455 S
C496 C495 1.398 . S
C496 C497 1.391 . S
C497 H485 0.950 . S
C497 C493 1.393 . S
C497 C496 1.391 . S
C498 H488 0.950 . S
C498 C499 1.386 . S
C498 C500 1.391 . S
C499 C498 1.386 . S
C499 C503 1.393 . S
C500 H489 0.950 . S
C500 C498 1.391 . S
C500 C501 1.400 . S
C501 C495 1.491 1_655 S
C501 C500 1.400 . S
C501 C502 1.398 . S
C502 H490 0.950 1_655 S
C502 C501 1.398 . S
C502 C503 1.391 . S
C503 H491 0.950 . S
C503 C499 1.393 . S
C503 C502 1.391 . S
H504 C512 0.950 . S
H505 C517 0.950 . S
H506 C514 0.950 1_655 S
H507 C516 0.950 1_556 S
H508 C518 0.950 . S
H509 C520 0.950 1_455 S
H510 C522 0.950 1_554 S
H511 C523 0.950 . S
C512 H504 0.950 . S
C512 C513 1.386 . S
C512 C514 1.391 . S
C513 C512 1.386 . S
C513 C517 1.393 . S
C514 H506 0.950 1_455 S
C514 C512 1.391 . S
C514 C515 1.400 . S
C515 C514 1.400 . S
C515 C516 1.398 . S
C515 C521 1.491 1_454 S
C516 H507 0.950 1_554 S
C516 C515 1.398 . S
C516 C517 1.391 . S
C517 H505 0.950 . S
C517 C513 1.393 . S
C517 C516 1.391 . S
C518 H508 0.950 . S
C518 C519 1.386 . S
C518 C520 1.391 . S
C519 C518 1.386 . S
C519 C523 1.393 . S
C520 H509 0.950 1_655 S
C520 C518 1.391 . S
C520 C521 1.400 . S
C521 C515 1.491 1_656 S
C521 C520 1.400 . S
C521 C522 1.398 . S
C522 H510 0.950 1_556 S
C522 C521 1.398 . S
C522 C523 1.391 . S
C523 H511 0.950 . S
C523 C519 1.393 . S
C523 C522 1.391 . S
H524 C532 0.950 . S
H525 C537 0.950 . S
H526 C534 0.950 . S
H527 C536 0.950 . S
H528 C538 0.950 . S
H529 C540 0.950 . S
H530 C542 0.950 . S
H531 C543 0.950 . S
C532 H524 0.950 . S
C532 C533 1.386 . S
C532 C534 1.391 . S
C533 C532 1.386 . S
C533 C537 1.393 . S
C534 H526 0.950 . S
C534 C532 1.391 . S
C534 C535 1.400 . S
C535 C534 1.400 . S
C535 C536 1.398 . S
C535 C541 1.491 . S
C536 H527 0.950 . S
C536 C535 1.398 . S
C536 C537 1.391 . S
C537 H525 0.950 . S
C537 C533 1.393 . S
C537 C536 1.391 . S
C538 H528 0.950 . S
C538 C539 1.386 . S
C538 C540 1.391 . S
C539 C538 1.386 . S
C539 C543 1.393 . S
C540 H529 0.950 . S
C540 C538 1.391 . S
C540 C541 1.400 . S
C541 C535 1.491 . S
C541 C540 1.400 . S
C541 C542 1.398 . S
C542 H530 0.950 . S
C542 C541 1.398 . S
C542 C543 1.391 . S
C543 H531 0.950 . S
C543 C539 1.393 . S
C543 C542 1.391 . S
H544 C552 0.950 . S
H545 C557 0.950 . S
H546 C554 0.950 . S
H547 C556 0.950 . S
H548 C558 0.950 . S
H549 C560 0.950 . S
H550 C562 0.950 . S
H551 C563 0.950 . S
C552 H544 0.950 . S
C552 C553 1.386 . S
C552 C554 1.391 . S
C553 C552 1.386 . S
C553 C557 1.393 . S
C554 H546 0.950 . S
C554 C552 1.391 . S
C554 C555 1.400 . S
C555 C554 1.400 . S
C555 C556 1.398 . S
C555 C561 1.491 . S
C556 H547 0.950 . S
C556 C555 1.398 . S
C556 C557 1.391 . S
C557 H545 0.950 . S
C557 C553 1.393 . S
C557 C556 1.391 . S
C558 H548 0.950 . S
C558 C559 1.386 . S
C558 C560 1.391 . S
C559 C558 1.386 . S
C559 C563 1.393 . S
C560 H549 0.950 . S
C560 C558 1.391 . S
C560 C561 1.400 . S
C561 C555 1.491 . S
C561 C560 1.400 . S
C561 C562 1.398 . S
C562 H550 0.950 . S
C562 C561 1.398 . S
C562 C563 1.391 . S
C563 H551 0.950 . S
C563 C559 1.393 . S
C563 C562 1.391 . S
H564 C572 0.950 . S
H565 C577 0.950 . S
H566 C574 0.950 . S
H567 C576 0.950 . S
H568 C578 0.950 . S
H569 C580 0.950 . S
H570 C582 0.950 . S
H571 C583 0.950 . S
C572 H564 0.950 . S
C572 C573 1.386 . S
C572 C574 1.391 . S
C573 C572 1.386 . S
C573 C577 1.393 . S
C574 H566 0.950 . S
C574 C572 1.391 . S
C574 C575 1.400 . S
C575 C574 1.400 . S
C575 C576 1.398 . S
C575 C581 1.491 . S
C576 H567 0.950 . S
C576 C575 1.398 . S
C576 C577 1.391 . S
C577 H565 0.950 . S
C577 C573 1.393 . S
C577 C576 1.391 . S
C578 H568 0.950 . S
C578 C579 1.386 . S
C578 C580 1.391 . S
C579 C578 1.386 . S
C579 C583 1.393 . S
C580 H569 0.950 . S
C580 C578 1.391 . S
C580 C581 1.400 . S
C581 C575 1.491 . S
C581 C580 1.400 . S
C581 C582 1.398 . S
C582 H570 0.950 . S
C582 C581 1.398 . S
C582 C583 1.391 . S
C583 H571 0.950 . S
C583 C579 1.393 . S
C583 C582 1.391 . S
H584 C592 0.950 . S
H585 C597 0.950 . S
H586 C594 0.950 . S
H587 C596 0.950 . S
H588 C598 0.950 . S
H589 C600 0.950 . S
H590 C602 0.950 . S
H591 C603 0.950 . S
C592 H584 0.950 . S
C592 C593 1.386 . S
C592 C594 1.391 . S
C593 C592 1.386 . S
C593 C597 1.393 . S
C594 H586 0.950 . S
C594 C592 1.391 . S
C594 C595 1.400 . S
C595 C594 1.400 . S
C595 C596 1.398 . S
C595 C601 1.491 . S
C596 H587 0.950 . S
C596 C595 1.398 . S
C596 C597 1.391 . S
C597 H585 0.950 . S
C597 C593 1.393 . S
C597 C596 1.391 . S
C598 H588 0.950 . S
C598 C599 1.386 . S
C598 C600 1.391 . S
C599 C598 1.386 . S
C599 C603 1.393 . S
C600 H589 0.950 . S
C600 C598 1.391 . S
C600 C601 1.400 . S
C601 C595 1.491 . S
C601 C600 1.400 . S
C601 C602 1.398 . S
C602 H590 0.950 . S
C602 C601 1.398 . S
C602 C603 1.391 . S
C603 H591 0.950 . S
C603 C599 1.393 . S
C603 C602 1.391 . S
H604 C612 0.950 . S
H605 C617 0.950 . S
H606 C614 0.950 . S
H607 C616 0.950 . S
H608 C618 0.950 . S
H609 C620 0.950 . S
H610 C622 0.950 . S
H611 C623 0.950 . S
C612 H604 0.950 . S
C612 C613 1.386 . S
C612 C614 1.391 . S
C613 C612 1.386 . S
C613 C617 1.393 . S
C614 H606 0.950 . S
C614 C612 1.391 . S
C614 C615 1.400 . S
C615 C614 1.400 . S
C615 C616 1.398 . S
C615 C621 1.491 . S
C616 H607 0.950 . S
C616 C615 1.398 . S
C616 C617 1.391 . S
C617 H605 0.950 . S
C617 C613 1.393 . S
C617 C616 1.391 . S
C618 H608 0.950 . S
C618 C619 1.386 . S
C618 C620 1.391 . S
C619 C618 1.386 . S
C619 C623 1.393 . S
C620 H609 0.950 . S
C620 C618 1.391 . S
C620 C621 1.400 . S
C621 C615 1.491 . S
C621 C620 1.400 . S
C621 C622 1.398 . S
C622 H610 0.950 . S
C622 C621 1.398 . S
C622 C623 1.391 . S
C623 H611 0.950 . S
C623 C619 1.393 . S
C623 C622 1.391 . S
H624 C632 0.950 . S
H625 C637 0.950 . S
H626 C634 0.950 . S
H627 C636 0.950 . S
H628 C638 0.950 . S
H629 C640 0.950 . S
H630 C642 0.950 . S
H631 C643 0.950 . S
C632 H624 0.950 . S
C632 C633 1.386 . S
C632 C634 1.391 . S
C633 C632 1.386 . S
C633 C637 1.393 . S
C634 H626 0.950 . S
C634 C632 1.391 . S
C634 C635 1.400 . S
C635 C634 1.400 . S
C635 C636 1.398 . S
C635 C641 1.491 . S
C636 H627 0.950 . S
C636 C635 1.398 . S
C636 C637 1.391 . S
C637 H625 0.950 . S
C637 C633 1.393 . S
C637 C636 1.391 . S
C638 H628 0.950 . S
C638 C639 1.386 . S
C638 C640 1.391 . S
C639 C638 1.386 . S
C639 C643 1.393 . S
C640 H629 0.950 . S
C640 C638 1.391 . S
C640 C641 1.400 . S
C641 C635 1.491 . S
C641 C640 1.400 . S
C641 C642 1.398 . S
C642 H630 0.950 . S
C642 C641 1.398 . S
C642 C643 1.391 . S
C643 H631 0.950 . S
C643 C639 1.393 . S
C643 C642 1.391 . S
H644 C652 0.950 . S
H645 C657 0.950 . S
H646 C654 0.950 . S
H647 C656 0.950 . S
H648 C658 0.950 . S
H649 C660 0.950 . S
H650 C662 0.950 . S
H651 C663 0.950 . S
C652 H644 0.950 . S
C652 C653 1.386 . S
C652 C654 1.391 . S
C653 C652 1.386 . S
C653 C657 1.393 . S
C654 H646 0.950 . S
C654 C652 1.391 . S
C654 C655 1.400 . S
C655 C654 1.400 . S
C655 C656 1.398 . S
C655 C661 1.491 . S
C656 H647 0.950 . S
C656 C655 1.398 . S
C656 C657 1.391 . S
C657 H645 0.950 . S
C657 C653 1.393 . S
C657 C656 1.391 . S
C658 H648 0.950 . S
C658 C659 1.386 . S
C658 C660 1.391 . S
C659 C658 1.386 . S
C659 C663 1.393 . S
C660 H649 0.950 . S
C660 C658 1.391 . S
C660 C661 1.400 . S
C661 C655 1.491 . S
C661 C660 1.400 . S
C661 C662 1.398 . S
C662 H650 0.950 . S
C662 C661 1.398 . S
C662 C663 1.391 . S
C663 H651 0.950 . S
C663 C659 1.393 . S
C663 C662 1.391 . S
H664 C672 0.950 . S
H665 C677 0.950 . S
H666 C674 0.950 . S
H667 C676 0.950 . S
H668 C678 0.950 . S
H669 C680 0.950 . S
H670 C682 0.950 . S
H671 C683 0.950 1_554 S
C672 H664 0.950 . S
C672 C673 1.386 . S
C672 C674 1.391 . S
C673 C672 1.386 . S
C673 C677 1.393 . S
C674 H666 0.950 . S
C674 C672 1.391 . S
C674 C675 1.400 . S
C675 C674 1.400 . S
C675 C676 1.398 . S
C675 C681 1.491 . S
C676 H667 0.950 . S
C676 C675 1.398 . S
C676 C677 1.391 . S
C677 H665 0.950 . S
C677 C673 1.393 . S
C677 C676 1.391 . S
C678 H668 0.950 . S
C678 C679 1.386 . S
C678 C680 1.391 . S
C679 C678 1.386 . S
C679 C683 1.393 . S
C680 H669 0.950 . S
C680 C678 1.391 . S
C680 C681 1.400 . S
C681 C675 1.491 . S
C681 C680 1.400 . S
C681 C682 1.398 . S
C682 H670 0.950 . S
C682 C681 1.398 . S
C682 C683 1.391 . S
C683 H671 0.950 1_556 S
C683 C679 1.393 . S
C683 C682 1.391 . S
H684 C692 0.950 . S
H685 C697 0.950 1_556 S
H686 C694 0.950 . S
H687 C696 0.950 . S
H688 C698 0.950 . S
H689 C700 0.950 . S
H690 C702 0.950 . S
H691 C703 0.950 . S
C692 H684 0.950 . S
C692 C693 1.386 . S
C692 C694 1.391 . S
C693 C692 1.386 . S
C693 C697 1.393 . S
C694 H686 0.950 . S
C694 C692 1.391 . S
C694 C695 1.400 . S
C695 C694 1.400 . S
C695 C696 1.398 . S
C695 C701 1.491 . S
C696 H687 0.950 . S
C696 C695 1.398 . S
C696 C697 1.391 . S
C697 H685 0.950 1_554 S
C697 C693 1.393 . S
C697 C696 1.391 . S
C698 H688 0.950 . S
C698 C699 1.386 . S
C698 C700 1.391 . S
C699 C698 1.386 . S
C699 C703 1.393 . S
C700 H689 0.950 . S
C700 C698 1.391 . S
C700 C701 1.400 . S
C701 C695 1.491 . S
C701 C700 1.400 . S
C701 C702 1.398 . S
C702 H690 0.950 . S
C702 C701 1.398 . S
C702 C703 1.391 . S
C703 H691 0.950 . S
C703 C699 1.393 . S
C703 C702 1.391 . S
H704 C712 0.950 . S
H705 C717 0.950 . S
H706 C714 0.950 . S
H707 C716 0.950 . S
H708 C718 0.950 . S
H709 C720 0.950 . S
H710 C722 0.950 . S
H711 C723 0.950 . S
C712 H704 0.950 . S
C712 C713 1.386 . S
C712 C714 1.391 . S
C713 C712 1.386 . S
C713 C717 1.393 . S
C714 H706 0.950 . S
C714 C712 1.391 . S
C714 C715 1.400 . S
C715 C714 1.400 . S
C715 C716 1.398 . S
C715 C721 1.491 . S
C716 H707 0.950 . S
C716 C715 1.398 . S
C716 C717 1.391 . S
C717 H705 0.950 . S
C717 C713 1.393 . S
C717 C716 1.391 . S
C718 H708 0.950 . S
C718 C719 1.386 . S
C718 C720 1.391 . S
C719 C718 1.386 . S
C719 C723 1.393 . S
C720 H709 0.950 . S
C720 C718 1.391 . S
C720 C721 1.400 . S
C721 C715 1.491 . S
C721 C720 1.400 . S
C721 C722 1.398 . S
C722 H710 0.950 . S
C722 C721 1.398 . S
C722 C723 1.391 . S
C723 H711 0.950 . S
C723 C719 1.393 . S
C723 C722 1.391 . S
H724 C732 0.950 . S
H725 C737 0.950 . S
H726 C734 0.950 . S
H727 C736 0.950 . S
H728 C738 0.950 . S
H729 C740 0.950 . S
H730 C742 0.950 . S
H731 C743 0.950 . S
C732 H724 0.950 . S
C732 C733 1.386 . S
C732 C734 1.391 . S
C733 C732 1.386 . S
C733 C737 1.393 . S
C734 H726 0.950 . S
C734 C732 1.391 . S
C734 C735 1.400 . S
C735 C734 1.400 . S
C735 C736 1.398 . S
C735 C741 1.491 . S
C736 H727 0.950 . S
C736 C735 1.398 . S
C736 C737 1.391 . S
C737 H725 0.950 . S
C737 C733 1.393 . S
C737 C736 1.391 . S
C738 H728 0.950 . S
C738 C739 1.386 . S
C738 C740 1.391 . S
C739 C738 1.386 . S
C739 C743 1.393 . S
C740 H729 0.950 . S
C740 C738 1.391 . S
C740 C741 1.400 . S
C741 C735 1.491 . S
C741 C740 1.400 . S
C741 C742 1.398 . S
C742 H730 0.950 . S
C742 C741 1.398 . S
C742 C743 1.391 . S
C743 H731 0.950 . S
C743 C739 1.393 . S
C743 C742 1.391 . S
H744 C752 0.950 . S
H745 C757 0.950 . S
H746 C754 0.950 . S
H747 C756 0.950 . S
H748 C758 0.950 . S
H749 C760 0.950 . S
H750 C762 0.950 . S
H751 C763 0.950 . S
C752 H744 0.950 . S
C752 C753 1.386 . S
C752 C754 1.391 . S
C753 C752 1.386 . S
C753 C757 1.393 . S
C754 H746 0.950 . S
C754 C752 1.391 . S
C754 C755 1.400 . S
C755 C754 1.400 . S
C755 C756 1.398 . S
C755 C761 1.491 . S
C756 H747 0.950 . S
C756 C755 1.398 . S
C756 C757 1.391 . S
C757 H745 0.950 . S
C757 C753 1.393 . S
C757 C756 1.391 . S
C758 H748 0.950 . S
C758 C759 1.386 . S
C758 C760 1.391 . S
C759 C758 1.386 . S
C759 C763 1.393 . S
C760 H749 0.950 . S
C760 C758 1.391 . S
C760 C761 1.400 . S
C761 C755 1.491 . S
C761 C760 1.400 . S
C761 C762 1.398 . S
C762 H750 0.950 . S
C762 C761 1.398 . S
C762 C763 1.391 . S
C763 H751 0.950 . S
C763 C759 1.393 . S
C763 C762 1.391 . S
H764 C772 0.950 . S
H765 C777 0.950 . S
H766 C774 0.950 . S
H767 C776 0.950 . S
H768 C778 0.950 . S
H769 C780 0.950 . S
H770 C782 0.950 . S
H771 C783 0.950 1_556 S
C772 H764 0.950 . S
C772 C773 1.386 . S
C772 C774 1.391 . S
C773 C772 1.386 . S
C773 C777 1.393 . S
C774 H766 0.950 . S
C774 C772 1.391 . S
C774 C775 1.400 . S
C775 C774 1.400 . S
C775 C776 1.398 . S
C775 C781 1.491 . S
C776 H767 0.950 . S
C776 C775 1.398 . S
C776 C777 1.391 . S
C777 H765 0.950 . S
C777 C773 1.393 . S
C777 C776 1.391 . S
C778 H768 0.950 . S
C778 C779 1.386 . S
C778 C780 1.391 . S
C779 C778 1.386 . S
C779 C783 1.393 . S
C780 H769 0.950 . S
C780 C778 1.391 . S
C780 C781 1.400 . S
C781 C775 1.491 . S
C781 C780 1.400 . S
C781 C782 1.398 . S
C782 H770 0.950 . S
C782 C781 1.398 . S
C782 C783 1.391 . S
C783 H771 0.950 1_554 S
C783 C779 1.393 . S
C783 C782 1.391 . S
H784 C792 0.950 . S
H785 C797 0.950 . S
H786 C794 0.950 . S
H787 C796 0.950 . S
H788 C798 0.950 . S
H789 C800 0.950 . S
H790 C802 0.950 . S
H791 C803 0.950 . S
C792 H784 0.950 . S
C792 C793 1.386 . S
C792 C794 1.391 . S
C793 C792 1.386 . S
C793 C797 1.393 . S
C794 H786 0.950 . S
C794 C792 1.391 . S
C794 C795 1.400 . S
C795 C794 1.400 . S
C795 C796 1.398 . S
C795 C801 1.491 . S
C796 H787 0.950 . S
C796 C795 1.398 . S
C796 C797 1.391 . S
C797 H785 0.950 . S
C797 C793 1.393 . S
C797 C796 1.391 . S
C798 H788 0.950 . S
C798 C799 1.386 . S
C798 C800 1.391 . S
C799 C798 1.386 . S
C799 C803 1.393 . S
C800 H789 0.950 . S
C800 C798 1.391 . S
C800 C801 1.400 . S
C801 C795 1.491 . S
C801 C800 1.400 . S
C801 C802 1.398 . S
C802 H790 0.950 . S
C802 C801 1.398 . S
C802 C803 1.391 . S
C803 H791 0.950 . S
C803 C799 1.393 . S
C803 C802 1.391 . S
H804 C812 0.950 . S
H805 C817 0.950 . S
H806 C814 0.950 . S
H807 C816 0.950 . S
H808 C818 0.950 . S
H809 C820 0.950 . S
H810 C822 0.950 . S
H811 C823 0.950 . S
C812 H804 0.950 . S
C812 C813 1.386 . S
C812 C814 1.391 . S
C813 C812 1.386 . S
C813 C817 1.393 . S
C814 H806 0.950 . S
C814 C812 1.391 . S
C814 C815 1.400 . S
C815 C814 1.400 . S
C815 C816 1.398 . S
C815 C821 1.491 . S
C816 H807 0.950 . S
C816 C815 1.398 . S
C816 C817 1.391 . S
C817 H805 0.950 . S
C817 C813 1.393 . S
C817 C816 1.391 . S
C818 H808 0.950 . S
C818 C819 1.386 . S
C818 C820 1.391 . S
C819 C818 1.386 . S
C819 C823 1.393 . S
C820 H809 0.950 . S
C820 C818 1.391 . S
C820 C821 1.400 . S
C821 C815 1.491 . S
C821 C820 1.400 . S
C821 C822 1.398 . S
C822 H810 0.950 . S
C822 C821 1.398 . S
C822 C823 1.391 . S
C823 H811 0.950 . S
C823 C819 1.393 . S
C823 C822 1.391 . S
H824 C832 0.950 . S
H825 C837 0.950 . S
H826 C834 0.950 . S
H827 C836 0.950 . S
H828 C838 0.950 . S
H829 C840 0.950 . S
H830 C842 0.950 . S
H831 C843 0.950 . S
C832 H824 0.950 . S
C832 C833 1.386 . S
C832 C834 1.391 . S
C833 C832 1.386 . S
C833 C837 1.393 . S
C834 H826 0.950 . S
C834 C832 1.391 . S
C834 C835 1.400 . S
C835 C834 1.400 . S
C835 C836 1.398 . S
C835 C841 1.491 . S
C836 H827 0.950 . S
C836 C835 1.398 . S
C836 C837 1.391 . S
C837 H825 0.950 . S
C837 C833 1.393 . S
C837 C836 1.391 . S
C838 H828 0.950 . S
C838 C839 1.386 . S
C838 C840 1.391 . S
C839 C838 1.386 . S
C839 C843 1.393 . S
C840 H829 0.950 . S
C840 C838 1.391 . S
C840 C841 1.400 . S
C841 C835 1.491 . S
C841 C840 1.400 . S
C841 C842 1.398 . S
C842 H830 0.950 . S
C842 C841 1.398 . S
C842 C843 1.391 . S
C843 H831 0.950 . S
C843 C839 1.393 . S
C843 C842 1.391 . S
H844 C852 0.950 . S
H845 C857 0.950 1_554 S
H846 C854 0.950 . S
H847 C856 0.950 . S
H848 C858 0.950 . S
H849 C860 0.950 . S
H850 C862 0.950 . S
H851 C863 0.950 . S
C852 H844 0.950 . S
C852 C853 1.386 . S
C852 C854 1.391 . S
C853 C852 1.386 . S
C853 C857 1.393 . S
C854 H846 0.950 . S
C854 C852 1.391 . S
C854 C855 1.400 . S
C855 C854 1.400 . S
C855 C856 1.398 . S
C855 C861 1.491 . S
C856 H847 0.950 . S
C856 C855 1.398 . S
C856 C857 1.391 . S
C857 H845 0.950 1_556 S
C857 C853 1.393 . S
C857 C856 1.391 . S
C858 H848 0.950 . S
C858 C859 1.386 . S
C858 C860 1.391 . S
C859 C858 1.386 . S
C859 C863 1.393 . S
C860 H849 0.950 . S
C860 C858 1.391 . S
C860 C861 1.400 . S
C861 C855 1.491 . S
C861 C860 1.400 . S
C861 C862 1.398 . S
C862 H850 0.950 . S
C862 C861 1.398 . S
C862 C863 1.391 . S
C863 H851 0.950 . S
C863 C859 1.393 . S
C863 C862 1.391 . S
C233 C7 1.040 . S
C239 C175 1.040 . S
C253 C22 1.242 . S
C259 C78 1.242 1_565 S
C273 C35 1.039 . S
C279 C203 1.039 . S
C293 C106 1.233 . S
C299 C50 1.233 1_565 S
C313 C204 1.267 . S
C319 C36 1.267 . S
C333 C105 1.039 . S
C339 C49 1.039 . S
C353 C176 1.235 . S
C359 C8 1.235 . S
C373 C77 1.038 . S
C379 C21 1.038 1_545 S
C393 C63 1.036 . S
C399 C119 1.036 . S
C413 C91 1.040 . S
C419 C147 1.040 . S
C433 C148 1.259 . S
C439 C92 1.259 . S
C453 C64 1.264 . S
C459 C120 1.264 . S
C473 C190 1.271 . S
C479 C134 1.271 . S
C493 C162 1.243 . S
C499 C218 1.243 . S
C513 C161 1.039 . S
C519 C217 1.039 . S
C533 C133 1.040 . S
C539 C189 1.040 . S
C553 C165 1.487 . S
C559 C11 1.487 . S
C573 C125 1.405 . S
C579 C27 1.405 . S
C593 C39 1.470 . S
C599 C137 1.468 . S
C613 C153 1.406 . S
C619 C55 1.396 . S
C633 C167 1.409 . S
C639 C41 1.393 . S
C653 C53 1.479 . S
C659 C123 1.482 . S
C673 C139 1.414 . S
C679 C13 1.390 . S
C693 C151 1.473 . S
C699 C25 1.476 . S
C713 C67 1.486 . S
C719 C221 1.487 . S
C733 C181 1.393 . S
C739 C83 1.416 . S
C753 C95 1.468 . S
C759 C193 1.469 . S
C773 C111 1.391 . S
C779 C209 1.417 . S
C793 C97 1.412 . S
C799 C223 1.398 . S
C813 C179 1.479 . S
C819 C109 1.482 . S
C833 C195 1.409 . S
C839 C69 1.394 . S
C853 C207 1.477 . S
C859 C81 1.474 . S
