# Generated by pormake.
# Topology dia, (4)-cn, num edge types: 1
# Building blocks:
#     Node 0, Type 0, BuildingBlock: KUFVIS_clean_sbu_0, # of connection points: 4
#     Node 1, Type 0, BuildingBlock: KUFVIS_clean_sbu_0, # of connection points: 4
#     Node 2, Type 0, BuildingBlock: KUFVIS_clean_sbu_0, # of connection points: 4
#     Node 3, Type 0, BuildingBlock: KUFVIS_clean_sbu_0, # of connection points: 4
#     Node 4, Type 0, BuildingBlock: KUFVIS_clean_sbu_0, # of connection points: 4
#     Node 5, Type 0, BuildingBlock: KUFVIS_clean_sbu_0, # of connection points: 4
#     Node 6, Type 0, BuildingBlock: KUFVIS_clean_sbu_0, # of connection points: 4
#     Node 7, Type 0, BuildingBlock: KUFVIS_clean_sbu_0, # of connection points: 4
#     Edge 8, Type (0, 0), BuildingBlock: UVAHIK_clean_linker_0, # of connection points: 2
#     Edge 9, Type (0, 0), BuildingBlock: UVAHIK_clean_linker_0, # of connection points: 2
#     Edge 10, Type (0, 0), BuildingBlock: UVAHIK_clean_linker_0, # of connection points: 2
#     Edge 11, Type (0, 0), BuildingBlock: UVAHIK_clean_linker_0, # of connection points: 2
#     Edge 12, Type (0, 0), BuildingBlock: UVAHIK_clean_linker_0, # of connection points: 2
#     Edge 13, Type (0, 0), BuildingBlock: UVAHIK_clean_linker_0, # of connection points: 2
#     Edge 14, Type (0, 0), BuildingBlock: UVAHIK_clean_linker_0, # of connection points: 2
#     Edge 15, Type (0, 0), BuildingBlock: UVAHIK_clean_linker_0, # of connection points: 2
#     Edge 16, Type (0, 0), BuildingBlock: UVAHIK_clean_linker_0, # of connection points: 2
#     Edge 17, Type (0, 0), BuildingBlock: UVAHIK_clean_linker_0, # of connection points: 2
#     Edge 18, Type (0, 0), BuildingBlock: UVAHIK_clean_linker_0, # of connection points: 2
#     Edge 19, Type (0, 0), BuildingBlock: UVAHIK_clean_linker_0, # of connection points: 2
#     Edge 20, Type (0, 0), BuildingBlock: UVAHIK_clean_linker_0, # of connection points: 2
#     Edge 21, Type (0, 0), BuildingBlock: UVAHIK_clean_linker_0, # of connection points: 2
#     Edge 22, Type (0, 0), BuildingBlock: UVAHIK_clean_linker_0, # of connection points: 2
#     Edge 23, Type (0, 0), BuildingBlock: UVAHIK_clean_linker_0, # of connection points: 2
# Relax obj value: 0.070
# Max RMSD: 0.124
# Mean RMSD: 0.124
data_MOF--net-dia--node1-KUFVIS_clean_sbu_0--edge1-UVAHIK_clean_linker_0
_symmetry_space_group_name_H-M    P1
_symmetry_Int_Tables_number       1
_symmetry_cell_setting            triclinic
loop_
_symmetry_equiv_pos_as_xyz
'x, y, z'
_cell_length_a     49.180942
_cell_length_b     42.255759
_cell_length_c     42.265766
_cell_angle_alpha  91.388342
_cell_angle_beta   91.762783
_cell_angle_gamma 91.755689
loop_
_atom_site_label
_atom_site_type_symbol
_atom_site_fract_x
_atom_site_fract_y
_atom_site_fract_z
_atom_type_partial_charge
Mn0 Mn 0.12977 0.13661 0.62744 0.0
Mn1 Mn 0.15484 0.07415 0.58736 0.0
C2 C 0.10468 0.11188 0.58604 0.0
C3 C 0.10507 0.15919 0.66834 0.0
C4 C 0.17275 0.1418 0.57614 0.0
O5 O 0.16012 0.12256 0.65776 0.0
O6 O 0.17489 0.08183 0.6282 0.0
C7 C 0.13822 0.02419 0.6314 0.0
N8 N 0.13818 0.0359 0.60166 0.0
C9 C 0.11489 0.98901 0.58002 0.0
C10 C 0.11473 0.97637 0.61039 0.0
C11 C 0.12629 0.99414 0.63623 0.0
C12 C 0.12666 0.01928 0.57677 0.0
H13 H 0.1474 0.03762 0.65123 0.0
C14 C 0.17612 0.09974 0.65308 0.0
O15 O 0.12356 0.1753 0.65382 0.0
O16 O 0.10168 0.12952 0.66001 0.0
N17 N 0.13758 0.06339 0.54722 0.0
C18 C 0.13848 0.0795 0.51971 0.0
C19 C 0.12711 0.06538 0.49173 0.0
C20 C 0.1156 0.03455 0.49215 0.0
C21 C 0.11542 0.01821 0.52063 0.0
C22 C 0.12662 0.03369 0.54785 0.0
H23 H 0.14779 0.10296 0.51915 0.0
O24 O 0.10003 0.14087 0.59455 0.0
O25 O 0.12375 0.09805 0.60197 0.0
O26 O 0.15799 0.15437 0.59704 0.0
O27 O 0.17293 0.11203 0.57046 0.0
C28 C 0.10458 0.98715 0.52309 0.0
C29 C 0.10395 0.97273 0.55283 0.0
H30 H 0.10577 0.95308 0.61416 0.0
H31 H 0.12621 0.98458 0.65975 0.0
H32 H 0.12743 0.07811 0.46983 0.0
H33 H 0.10697 0.02367 0.4705 0.0
H34 H 0.09624 0.97434 0.50232 0.0
H35 H 0.095 0.94911 0.5545 0.0
Mn36 Mn 0.89053 0.37733 0.86934 0.0
Mn37 Mn 0.87095 0.4217 0.93196 0.0
C38 C 0.91818 0.4187 0.88979 0.0
C39 C 0.91292 0.33447 0.84695 0.0
C40 C 0.84836 0.42947 0.86534 0.0
O41 O 0.86058 0.34924 0.8878 0.0
O42 O 0.85005 0.38086 0.92914 0.0
C43 C 0.89105 0.38095 0.98312 0.0
N44 N 0.89061 0.4097 0.96927 0.0
C45 C 0.92043 0.43309 0.0102 0.0
C46 C 0.92109 0.40376 0.02499 0.0
C47 C 0.9064 0.37757 0.01134 0.0
C48 C 0.90477 0.43503 0.98213 0.0
H49 H 0.87978 0.36077 0.9727 0.0
C50 C 0.8469 0.35525 0.91239 0.0
O51 O 0.89373 0.3486 0.83159 0.0
O52 O 0.91815 0.34419 0.87593 0.0
N53 N 0.88966 0.4619 0.93784 0.0
C54 C 0.88785 0.48812 0.91984 0.0
C55 C 0.9018 0.51627 0.92988 0.0
C56 C 0.9172 0.51725 0.95845 0.0
C57 C 0.91853 0.49007 0.97673 0.0
C58 C 0.90406 0.46276 0.96562 0.0
H59 H 0.87592 0.48755 0.89794 0.0
O60 O 0.9207 0.40865 0.86082 0.0
O61 O 0.89957 0.40444 0.90585 0.0
O62 O 0.86212 0.40781 0.85245 0.0
O63 O 0.85003 0.43642 0.8949 0.0
C64 C 0.93402 0.48883 0.00526 0.0
C65 C 0.93504 0.46033 0.02193 0.0
H66 H 0.93297 0.40103 0.04671 0.0
H67 H 0.9069 0.35483 0.02255 0.0
H68 H 0.90068 0.53715 0.91564 0.0
H69 H 0.92806 0.53895 0.96603 0.0
H70 H 0.94557 0.50952 0.01432 0.0
H71 H 0.94734 0.45955 0.04358 0.0
Mn72 Mn 0.63001 0.13651 0.13086 0.0
Mn73 Mn 0.64976 0.07463 0.08558 0.0
C74 C 0.6024 0.11657 0.08925 0.0
C75 C 0.60747 0.15777 0.17418 0.0
C76 C 0.67224 0.14153 0.07893 0.0
O77 O 0.66013 0.11778 0.15849 0.0
O78 O 0.67058 0.07669 0.1265 0.0
C79 C 0.62953 0.02267 0.12525 0.0
N80 N 0.63005 0.03708 0.09679 0.0
C81 C 0.60018 0.99664 0.07259 0.0
C82 C 0.59944 0.98127 0.10161 0.0
C83 C 0.61412 0.9944 0.12806 0.0
C84 C 0.6159 0.02473 0.07122 0.0
H85 H 0.64079 0.03268 0.14563 0.0
C86 C 0.67377 0.0932 0.15226 0.0
O87 O 0.62656 0.17368 0.1604 0.0
O88 O 0.60247 0.12896 0.16381 0.0
N89 N 0.63111 0.06954 0.04527 0.0
C90 C 0.63296 0.08808 0.01943 0.0
C91 C 0.61902 0.07862 0.99111 0.0
C92 C 0.60357 0.05008 0.98954 0.0
C93 C 0.60219 0.03125 0.01634 0.0
C94 C 0.61666 0.04179 0.04385 0.0
H95 H 0.64492 0.10996 0.02044 0.0
O96 O 0.59974 0.14536 0.09978 0.0
O97 O 0.62111 0.10042 0.10319 0.0
O98 O 0.65832 0.15412 0.10063 0.0
O99 O 0.6707 0.11202 0.07165 0.0
C100 C 0.58664 1.00271 0.017 0.0
C101 C 0.58557 0.98547 0.04513 0.0
H102 H 0.58751 0.95951 0.1039 0.0
H103 H 0.61355 0.98274 0.15056 0.0
H104 H 0.62017 0.09329 0.97053 0.0
H105 H 0.59272 0.04295 0.96771 0.0
H106 H 0.57509 0.99408 0.99614 0.0
H107 H 0.57321 0.96382 0.04548 0.0
Mn108 Mn 0.89341 0.87697 0.36971 0.0
Mn109 Mn 0.87321 0.9222 0.43137 0.0
C110 C 0.92054 0.91915 0.38945 0.0
C111 C 0.91671 0.83403 0.34891 0.0
C112 C 0.85071 0.92845 0.36444 0.0
O113 O 0.86373 0.84882 0.38862 0.0
O114 O 0.85263 0.88115 0.42915 0.0
C115 C 0.89349 0.88255 0.48332 0.0
N116 N 0.89288 0.91103 0.46896 0.0
C117 C 0.92257 0.93532 0.50952 0.0
C118 C 0.9234 0.90628 0.52483 0.0
C119 C 0.90886 0.87976 0.51162 0.0
C120 C 0.9069 0.93666 0.48139 0.0
H121 H 0.88234 0.86212 0.47324 0.0
C122 C 0.8498 0.85519 0.41293 0.0
O123 O 0.89731 0.84706 0.33282 0.0
O124 O 0.92156 0.84485 0.37757 0.0
N125 N 0.8916 0.96265 0.43663 0.0
C126 C 0.8896 0.98855 0.41821 0.0
C127 C 0.90334 0.01696 0.42781 0.0
C128 C 0.91876 0.01854 0.45636 0.0
C129 C 0.9203 0.99167 0.47508 0.0
C130 C 0.90602 0.96408 0.46441 0.0
H131 H 0.87765 0.98753 0.39632 0.0
O132 O 0.92326 0.90861 0.36068 0.0
O133 O 0.90201 0.90496 0.40564 0.0
O134 O 0.86458 0.90662 0.35194 0.0
O135 O 0.85238 0.93598 0.39388 0.0
C136 C 0.93581 0.99104 0.50364 0.0
C137 C 0.93702 0.96285 0.5208 0.0
H138 H 0.93529 0.904 0.54662 0.0
H139 H 0.90949 0.85724 0.52323 0.0
H140 H 0.90206 0.0376 0.41323 0.0
H141 H 0.92945 0.04044 0.4636 0.0
H142 H 0.94722 0.01196 0.51237 0.0
H143 H 0.94932 0.96253 0.54248 0.0
Mn144 Mn 0.12956 0.63346 0.12715 0.0
Mn145 Mn 0.15415 0.57226 0.08479 0.0
C146 C 0.10446 0.61057 0.08472 0.0
C147 C 0.10464 0.65444 0.16866 0.0
C148 C 0.17311 0.64016 0.07673 0.0
O149 O 0.15953 0.61762 0.15705 0.0
O150 O 0.17383 0.5776 0.12615 0.0
C151 C 0.13634 0.52035 0.12597 0.0
N152 N 0.13673 0.53362 0.09694 0.0
C153 C 0.11279 0.48836 0.07273 0.0
C154 C 0.11217 0.47414 0.10234 0.0
C155 C 0.12384 0.49031 0.12912 0.0
C156 C 0.12512 0.51854 0.07115 0.0
H157 H 0.14561 0.53255 0.1465 0.0
C158 C 0.17515 0.59456 0.15168 0.0
O159 O 0.12358 0.67101 0.15539 0.0
O160 O 0.10096 0.62525 0.15879 0.0
N161 N 0.13707 0.56393 0.04407 0.0
C162 C 0.13839 0.58151 0.01752 0.0
C163 C 0.12692 0.56914 0.98882 0.0
C164 C 0.11486 0.53854 0.98754 0.0
C165 C 0.11421 0.52069 0.01506 0.0
C166 C 0.12553 0.53447 0.04308 0.0
H167 H 0.14809 0.6048 0.01826 0.0
O168 O 0.10006 0.63936 0.09418 0.0
O169 O 0.12337 0.59607 0.10018 0.0
O170 O 0.15824 0.65219 0.09785 0.0
O171 O 0.17303 0.61058 0.07 0.0
C172 C 0.1028 0.48976 0.0158 0.0
C173 C 0.10174 0.47375 0.04468 0.0
H174 H 0.10276 0.45085 0.10482 0.0
H175 H 0.12341 0.47951 0.15206 0.0
H176 H 0.12759 0.58303 0.96766 0.0
H177 H 0.10616 0.529 0.96533 0.0
H178 H 0.09426 0.47828 0.99438 0.0
H179 H 0.09234 0.45025 0.04505 0.0
Mn180 Mn 0.39338 0.37973 0.37266 0.0
Mn181 Mn 0.36838 0.42115 0.43427 0.0
C182 C 0.41854 0.42152 0.39666 0.0
C183 C 0.41812 0.33823 0.35122 0.0
C184 C 0.35026 0.43071 0.36634 0.0
O185 O 0.36294 0.34983 0.38736 0.0
O186 O 0.34849 0.38003 0.42782 0.0
C187 C 0.38538 0.37873 0.48548 0.0
N188 N 0.38528 0.40807 0.47286 0.0
C189 C 0.40883 0.43117 0.51893 0.0
C190 C 0.40914 0.40122 0.5325 0.0
C191 C 0.39752 0.37485 0.5156 0.0
C192 C 0.39685 0.43347 0.48864 0.0
H193 H 0.37616 0.35849 0.47272 0.0
C194 C 0.34714 0.35487 0.41031 0.0
O195 O 0.39967 0.35234 0.33464 0.0
O196 O 0.42142 0.34735 0.38068 0.0
N197 N 0.38558 0.46162 0.44371 0.0
C198 C 0.38455 0.48858 0.42673 0.0
C199 C 0.39598 0.51698 0.43989 0.0
C200 C 0.40769 0.51752 0.47064 0.0
C201 C 0.40802 0.48959 0.48787 0.0
C202 C 0.39675 0.46191 0.47333 0.0
H203 H 0.37511 0.48841 0.40331 0.0
O204 O 0.42323 0.41245 0.36785 0.0
O205 O 0.39937 0.40596 0.41065 0.0
O206 O 0.3652 0.40976 0.35412 0.0
O207 O 0.35003 0.43686 0.39601 0.0
C208 C 0.41907 0.48811 0.51892 0.0
C209 C 0.41984 0.45885 0.53428 0.0
H210 H 0.41827 0.39818 0.55583 0.0
H211 H 0.39771 0.35165 0.52589 0.0
H212 H 0.39554 0.53846 0.42648 0.0
H213 H 0.41637 0.5395 0.48079 0.0
H214 H 0.42753 0.50925 0.53099 0.0
H215 H 0.42896 0.45791 0.55788 0.0
Mn216 Mn 0.39085 0.88084 0.87243 0.0
Mn217 Mn 0.36638 0.92183 0.93466 0.0
C218 C 0.41631 0.92227 0.89661 0.0
C219 C 0.41524 0.83955 0.85004 0.0
C220 C 0.34795 0.93215 0.86698 0.0
O221 O 0.36042 0.85093 0.88712 0.0
O222 O 0.34637 0.88081 0.92803 0.0
C223 C 0.38357 0.87891 0.98537 0.0
N224 N 0.38347 0.90837 0.97299 0.0
C225 C 0.40728 0.93104 0.01909 0.0
C226 C 0.40759 0.90097 0.0324 0.0
C227 C 0.39585 0.87476 0.01536 0.0
C228 C 0.39516 0.93362 0.9889 0.0
H229 H 0.37425 0.85881 0.97251 0.0
C230 C 0.34484 0.8558 0.91031 0.0
O231 O 0.3967 0.85401 0.83396 0.0
O232 O 0.41882 0.84812 0.87963 0.0
N233 N 0.38374 0.96216 0.94429 0.0
C234 C 0.3827 0.98928 0.92753 0.0
C235 C 0.39426 0.01754 0.94085 0.0
C236 C 0.4061 0.0178 0.97153 0.0
C237 C 0.40645 0.98973 0.98853 0.0
C238 C 0.39505 0.96218 0.97383 0.0
H239 H 0.37316 0.98932 0.90418 0.0
O240 O 0.42078 0.91346 0.86767 0.0
O241 O 0.39719 0.90667 0.91065 0.0
O242 O 0.36276 0.91125 0.85448 0.0
O243 O 0.34782 0.93797 0.89671 0.0
C244 C 0.41763 0.98797 0.01949 0.0
C245 C 0.41841 0.95858 0.0346 0.0
H246 H 0.41682 0.89772 0.05565 0.0
H247 H 0.39604 0.85147 0.02546 0.0
H248 H 0.39381 0.03913 0.92762 0.0
H249 H 0.41487 0.03968 0.9818 0.0
H250 H 0.42617 0.009 0.03169 0.0
H251 H 0.42763 0.95742 0.05813 0.0
Mn252 Mn 0.6299 0.63986 0.63065 0.0
Mn253 Mn 0.64999 0.5772 0.58668 0.0
C254 C 0.60242 0.6189 0.58936 0.0
C255 C 0.60733 0.66223 0.67339 0.0
C256 C 0.67215 0.64397 0.5786 0.0
O257 O 0.65996 0.62185 0.6589 0.0
O258 O 0.67085 0.58048 0.62751 0.0
C259 C 0.63024 0.52611 0.62772 0.0
N260 N 0.6306 0.53978 0.59888 0.0
C261 C 0.60116 0.49838 0.5757 0.0
C262 C 0.60058 0.48376 0.60512 0.0
C263 C 0.61513 0.49775 0.63125 0.0
C264 C 0.61658 0.52661 0.57361 0.0
H265 H 0.64141 0.53677 0.64785 0.0
C266 C 0.67386 0.5974 0.65302 0.0
O267 O 0.6264 0.67771 0.65918 0.0
O268 O 0.60229 0.63317 0.66379 0.0
N269 N 0.63135 0.57089 0.54649 0.0
C270 C 0.63307 0.58872 0.52015 0.0
C271 C 0.61927 0.57833 0.49203 0.0
C272 C 0.60411 0.54959 0.49119 0.0
C273 C 0.60287 0.53148 0.5185 0.0
C274 C 0.61719 0.54294 0.54578 0.0
H275 H 0.64482 0.61074 0.5206 0.0
O276 O 0.59968 0.6479 0.59922 0.0
O277 O 0.62115 0.60312 0.60373 0.0
O278 O 0.65827 0.65685 0.60016 0.0
O279 O 0.67064 0.61437 0.57177 0.0
C280 C 0.58762 0.50279 0.51989 0.0
C281 C 0.5867 0.48631 0.54849 0.0
H282 H 0.58889 0.46193 0.60797 0.0
H283 H 0.61469 0.48667 0.65406 0.0
H284 H 0.62031 0.59244 0.47105 0.0
H285 H 0.59338 0.54173 0.46951 0.0
H286 H 0.57619 0.49346 0.49923 0.0
H287 H 0.57458 0.46452 0.54939 0.0
C288 C 0.331 0.29796 0.41503 0.0
C289 C 0.3266 0.33052 0.41894 0.0
C290 C 0.31361 0.27566 0.42896 0.0
C291 C 0.26958 0.27104 0.49717 0.0
H292 H 0.23987 0.19275 0.45876 0.0
C293 C 0.18879 0.19568 0.55916 0.0
C294 C 0.19044 0.16255 0.55707 0.0
C295 C 0.20533 0.21505 0.5409 0.0
C296 C 0.24829 0.21435 0.46996 0.0
H297 H 0.2993 0.36507 0.43798 0.0
H298 H 0.26916 0.32648 0.46171 0.0
H299 H 0.26882 0.22786 0.42796 0.0
H300 H 0.21094 0.1239 0.53396 0.0
H301 H 0.24009 0.15769 0.50277 0.0
H302 H 0.24959 0.25772 0.53918 0.0
C303 C 0.28631 0.31809 0.44875 0.0
C304 C 0.26482 0.23443 0.45227 0.0
C305 C 0.30353 0.34018 0.435 0.0
C306 C 0.20903 0.14932 0.5362 0.0
C307 C 0.22566 0.1687 0.51808 0.0
C308 C 0.25328 0.25099 0.51484 0.0
C309 C 0.29166 0.2857 0.44691 0.0
C310 C 0.27529 0.2632 0.4656 0.0
C311 C 0.22407 0.20182 0.52023 0.0
C312 C 0.24211 0.22257 0.5014 0.0
H313 H 0.34865 0.28987 0.40284 0.0
H314 H 0.31814 0.25077 0.42709 0.0
H315 H 0.27786 0.29275 0.50833 0.0
H316 H 0.17457 0.20672 0.57474 0.0
H317 H 0.2032 0.24045 0.54278 0.0
C318 C 0.692 0.59372 0.70934 0.0
C319 C 0.69392 0.58635 0.67687 0.0
C320 C 0.70889 0.57908 0.73166 0.0
C321 C 0.74642 0.50569 0.73969 0.0
H322 H 0.78459 0.54773 0.81126 0.0
C323 C 0.82869 0.44314 0.81201 0.0
C324 C 0.8299 0.44806 0.84504 0.0
C325 C 0.81164 0.46104 0.79292 0.0
C326 C 0.77377 0.53557 0.79161 0.0
H327 H 0.71644 0.55978 0.64229 0.0
H328 H 0.74567 0.5348 0.68086 0.0
H329 H 0.75581 0.57837 0.77581 0.0
H330 H 0.81397 0.47587 0.88381 0.0
H331 H 0.78395 0.50664 0.8505 0.0
H332 H 0.76405 0.46297 0.75523 0.0
C333 C 0.73075 0.55111 0.68925 0.0
C334 C 0.75733 0.55315 0.77133 0.0
C335 C 0.71403 0.56559 0.66714 0.0
C336 C 0.8136 0.47138 0.85847 0.0
C337 C 0.7965 0.48923 0.83935 0.0
C338 C 0.76268 0.48817 0.75993 0.0
C339 C 0.72787 0.5569 0.72178 0.0
C340 C 0.74387 0.53844 0.74484 0.0
C341 C 0.79527 0.48424 0.80634 0.0
C342 C 0.77692 0.50293 0.78586 0.0
H343 H 0.67671 0.6096 0.71757 0.0
H344 H 0.70629 0.58404 0.75663 0.0
H345 H 0.7358 0.49353 0.71987 0.0
H346 H 0.84106 0.42561 0.80078 0.0
H347 H 0.81157 0.45694 0.76753 0.0
C348 C 0.5684 0.07302 0.07957 0.0
C349 C 0.58081 0.10099 0.06926 0.0
C350 C 0.54917 0.05645 0.06028 0.0
C351 C 0.52607 0.04714 0.97602 0.0
H352 H 0.47134 0.99332 0.01328 0.0
C353 C 0.44388 0.97293 0.90202 0.0
C354 C 0.43586 0.94362 0.91414 0.0
C355 C 0.46181 0.99338 0.91966 0.0
C356 C 0.48627 0.00833 1.00233 0.0
H357 H 0.58104 0.13579 0.03259 0.0
H358 H 0.54672 0.10706 0.9986 0.0
H359 H 0.49829 0.02986 0.04679 0.0
H360 H 0.44223 0.91093 0.95206 0.0
H361 H 0.47387 0.94608 0.9826 0.0
H362 H 0.51308 0.02589 0.93127 0.0
C363 C 0.55266 0.09714 0.02106 0.0
C364 C 0.5021 0.02915 0.0217 0.0
C365 C 0.57211 0.11371 0.0405 0.0
C366 C 0.44742 0.93399 0.94289 0.0
C367 C 0.46551 0.95415 0.96032 0.0
C368 C 0.50963 0.02674 0.95645 0.0
C369 C 0.54141 0.06787 0.03043 0.0
C370 C 0.52263 0.0484 0.00899 0.0
C371 C 0.47244 0.98442 0.94932 0.0
C372 C 0.48971 0.00682 0.96949 0.0
H373 H 0.57428 0.06336 0.1022 0.0
H374 H 0.54138 0.03392 0.06836 0.0
H375 H 0.54195 0.06119 0.96537 0.0
H376 H 0.4355 0.98047 0.87953 0.0
H377 H 0.46666 0.01653 0.91053 0.0
C378 C 0.92638 0.79402 0.30598 0.0
C379 C 0.93452 0.81049 0.33419 0.0
C380 C 0.94445 0.77425 0.29056 0.0
C381 C 0.01311 0.76873 0.27118 0.0
H382 H 1.00513 0.67735 0.26312 0.0
C383 C 0.09478 0.6966 0.20912 0.0
C384 C 0.08646 0.66905 0.19181 0.0
C385 C 0.07672 0.71196 0.22888 0.0
C386 C 1.00755 0.70288 0.26458 0.0
H387 H 0.96787 0.81883 0.36846 0.0
H388 H 0.9996 0.7851 0.34087 0.0
H389 H 0.97162 0.70725 0.29195 0.0
H390 H 0.05271 0.63587 0.18169 0.0
H391 H 0.02082 0.66332 0.21461 0.0
H392 H 0.04796 0.7652 0.24265 0.0
C393 C 0.97911 0.78713 0.33113 0.0
C394 C 0.98839 0.71991 0.28136 0.0
C395 C 0.96089 0.80629 0.34692 0.0
C396 C 0.05982 0.65689 0.19503 0.0
C397 C 0.04152 0.67267 0.21415 0.0
C398 C 0.0319 0.75188 0.2538 0.0
C399 C 0.97111 0.77118 0.30271 0.0
C400 C 0.99111 0.75294 0.28488 0.0
C401 C 0.04956 0.70069 0.23118 0.0
C402 C 0.02956 0.71861 0.25027 0.0
H403 H 0.90623 0.79683 0.29557 0.0
H404 H 0.93794 0.76222 0.26857 0.0
H405 H 0.01546 0.79428 0.27343 0.0
H406 H 0.11527 0.7064 0.20728 0.0
H407 H 0.08415 0.73284 0.24217 0.0
C408 C 0.33247 0.94956 0.81308 0.0
C409 C 0.33033 0.9512 0.84615 0.0
C410 C 0.3162 0.96807 0.79365 0.0
C411 C 0.27327 0.03906 0.79455 0.0
H412 H 0.24526 1.00221 0.71478 0.0
C413 C 0.19168 0.09492 0.7101 0.0
C414 C 0.19662 0.09157 0.67763 0.0
C415 C 0.2089 0.0809 0.73253 0.0
C416 C 0.25311 0.01295 0.73688 0.0
H417 H 0.30917 0.97366 0.88465 0.0
H418 H 0.28046 0.00526 0.85074 0.0
H419 H 0.27281 0.97065 0.74992 0.0
H420 H 0.22467 0.07357 0.64339 0.0
H421 H 0.25454 0.0497 0.68222 0.0
H422 H 0.25298 0.08132 0.78132 0.0
C423 C 0.29509 0.99015 0.83983 0.0
C424 C 0.269 0.99487 0.757 0.0
C425 C 0.31146 0.97179 0.85927 0.0
C426 C 0.22006 0.07612 0.66822 0.0
C427 C 0.23713 0.06229 0.69043 0.0
C428 C 0.25713 0.05714 0.7744 0.0
C429 C 0.29723 0.98853 0.80676 0.0
C430 C 0.27959 0.00777 0.78592 0.0
C431 C 0.2312 0.06344 0.72268 0.0
C432 C 0.24724 0.04437 0.74515 0.0
H433 H 0.34692 0.93422 0.80214 0.0
H434 H 0.31877 0.96659 0.76831 0.0
H435 H 0.28126 0.04985 0.81654 0.0
H436 H 0.17371 0.1066 0.71799 0.0
H437 H 0.20392 0.08222 0.7573 0.0
C438 C 0.9522 0.4282 0.93335 0.0
C439 C 0.93973 0.43866 0.90549 0.0
C440 C 0.97136 0.44747 0.95006 0.0
C441 C 0.99432 0.53186 0.95977 0.0
H442 H 0.04887 0.49442 0.0137 0.0
C443 C 0.07666 0.60563 0.03414 0.0
C444 C 0.08471 0.59336 0.06337 0.0
C445 C 0.05863 0.58811 0.01368 0.0
C446 C 0.034 0.50544 0.99865 0.0
H447 H 0.93934 0.4756 0.87099 0.0
H448 H 0.97356 0.50954 0.89991 0.0
H449 H 0.02201 0.46102 0.97704 0.0
H450 H 0.07831 0.55531 0.09591 0.0
H451 H 0.04649 0.52505 0.06081 0.0
H452 H 1.00736 0.5766 0.98106 0.0
C453 C 0.9677 0.48699 0.90968 0.0
C454 C 0.0182 0.48612 0.97776 0.0
C455 C 0.94831 0.46757 0.89298 0.0
C456 C 0.07308 0.56461 0.07292 0.0
C457 C 0.05489 0.54732 0.05277 0.0
C458 C 1.01077 0.5514 0.9802 0.0
C459 C 0.97899 0.47747 0.93887 0.0
C460 C 0.99772 0.49887 0.95848 0.0
C461 C 0.04795 0.55843 0.02257 0.0
C462 C 0.03064 0.53831 1.00015 0.0
H463 H 0.94642 0.40544 0.94284 0.0
H464 H 0.97916 0.43926 0.97253 0.0
H465 H 0.97847 0.54257 0.94572 0.0
H466 H 0.0851 0.62811 0.02666 0.0
H467 H 0.05378 0.59732 0.99057 0.0
C468 C 0.45811 0.30262 0.35382 0.0
C469 C 0.43607 0.31477 0.3365 0.0
C470 C 0.47656 0.28289 0.33906 0.0
C471 C 0.48571 0.23205 0.26734 0.0
H472 H 0.56262 0.24845 0.28598 0.0
C473 C 0.56777 0.15618 0.21013 0.0
C474 C 0.59029 0.17282 0.19823 0.0
C475 C 0.54962 0.17145 0.22983 0.0
C476 C 0.54123 0.24359 0.28044 0.0
H477 H 0.41577 0.31495 0.29023 0.0
H478 H 0.44788 0.28065 0.26455 0.0
H479 H 0.529 0.27851 0.31427 0.0
H480 H 0.61187 0.21835 0.19866 0.0
H481 H 0.58025 0.24498 0.23294 0.0
H482 H 0.49793 0.1978 0.23287 0.0
C483 C 0.45085 0.28614 0.2896 0.0
C484 C 0.52192 0.2606 0.29693 0.0
C485 C 0.43247 0.30595 0.30432 0.0
C486 C 0.59479 0.20479 0.20747 0.0
C487 C 0.57667 0.22005 0.22724 0.0
C488 C 0.50501 0.21497 0.25094 0.0
C489 C 0.47337 0.2747 0.30666 0.0
C490 C 0.49389 0.25528 0.29037 0.0
C491 C 0.55356 0.20374 0.23821 0.0
C492 C 0.53305 0.22072 0.25705 0.0
H493 H 0.46149 0.30892 0.37865 0.0
H494 H 0.49344 0.27416 0.35304 0.0
H495 H 0.46432 0.22709 0.26188 0.0
H496 H 0.5637 0.13152 0.20353 0.0
H497 H 0.5323 0.15801 0.23824 0.0
C498 C 0.8102 0.84138 0.44584 0.0
C499 C 0.82981 0.83149 0.42449 0.0
C500 C 0.79326 0.81943 0.46023 0.0
C501 C 0.76492 0.73804 0.45657 0.0
H502 H 0.75808 0.75283 0.54691 0.0
C503 C 0.70687 0.65085 0.53667 0.0
C504 C 0.69073 0.66426 0.56014 0.0
C505 C 0.72428 0.6699 0.51914 0.0
C506 C 0.75949 0.74852 0.52166 0.0
H507 H 0.84597 0.79067 0.40031 0.0
H508 H 0.81602 0.75191 0.42574 0.0
H509 H 0.78724 0.78792 0.51715 0.0
H510 H 0.68013 0.70846 0.58316 0.0
H511 H 0.71019 0.74163 0.5524 0.0
H512 H 0.73682 0.69874 0.46116 0.0
C513 C 0.81398 0.77688 0.43121 0.0
C514 C 0.77627 0.7686 0.5046 0.0
C515 C 0.83109 0.79903 0.41666 0.0
C516 C 0.69236 0.69723 0.56549 0.0
C517 C 0.70973 0.71627 0.54792 0.0
C518 C 0.74798 0.71791 0.4737 0.0
C519 C 0.7954 0.7869 0.45379 0.0
C520 C 0.77888 0.76392 0.47179 0.0
C521 C 0.72599 0.70284 0.52462 0.0
C522 C 0.74479 0.72321 0.50639 0.0
H523 H 0.80825 0.86621 0.45206 0.0
H524 H 0.77867 0.82797 0.47687 0.0
H525 H 0.76644 0.73394 0.4313 0.0
H526 H 0.70618 0.62554 0.53183 0.0
H527 H 0.73671 0.65874 0.50163 0.0
C528 C 0.19154 0.58996 0.20856 0.0
C529 C 0.19548 0.58522 0.176 0.0
C530 C 0.20885 0.57598 0.23092 0.0
C531 C 0.25209 0.50696 0.23658 0.0
H532 H 0.28328 0.54715 0.31327 0.0
C533 C 0.33364 0.44629 0.31218 0.0
C534 C 0.33241 0.44929 0.34529 0.0
C535 C 0.31692 0.46412 0.29258 0.0
C536 C 0.27444 0.53546 0.29213 0.0
H537 H 0.22194 0.56446 0.14148 0.0
H538 H 0.25188 0.54064 0.18013 0.0
H539 H 0.25406 0.57731 0.27789 0.0
H540 H 0.31246 0.47358 0.38366 0.0
H541 H 0.28305 0.50404 0.3495 0.0
H542 H 0.27199 0.4651 0.25063 0.0
C543 C 0.23513 0.55429 0.18851 0.0
C544 C 0.25775 0.55278 0.2719 0.0
C545 C 0.21799 0.5681 0.16636 0.0
C546 C 0.31405 0.47062 0.35826 0.0
C547 C 0.29727 0.48833 0.33866 0.0
C548 C 0.26857 0.48966 0.25678 0.0
C549 C 0.23027 0.55714 0.22096 0.0
C550 C 0.24674 0.5388 0.24368 0.0
C551 C 0.29844 0.48528 0.30557 0.0
C552 C 0.28026 0.50374 0.28463 0.0
H553 H 0.17435 0.60299 0.21668 0.0
H554 H 0.2047 0.57863 0.25585 0.0
H555 H 0.2434 0.49531 0.21532 0.0
H556 H 0.34765 0.43032 0.30134 0.0
H557 H 0.31871 0.46154 0.26718 0.0
C558 C 0.80742 0.34108 0.94533 0.0
C559 C 0.82695 0.33143 0.92378 0.0
C560 C 0.79073 0.31893 0.95982 0.0
C561 C 0.7631 0.23722 0.9564 0.0
H562 H 0.75724 0.25165 0.04693 0.0
C563 C 0.70681 0.149 0.03694 0.0
C564 C 0.69074 0.16209 0.06065 0.0
C565 C 0.72394 0.16834 0.01935 0.0
C566 C 0.75837 0.24743 0.02163 0.0
H567 H 0.8432 0.29084 0.89929 0.0
H568 H 0.8137 0.25175 0.92487 0.0
H569 H 0.78563 0.28724 0.01677 0.0
H570 H 0.68003 0.20603 0.08412 0.0
H571 H 0.7096 0.23969 0.05325 0.0
H572 H 0.7355 0.19751 0.96134 0.0
C573 C 0.81151 0.27668 0.93043 0.0
C574 C 0.77471 0.2678 0.00434 0.0
C575 C 0.82836 0.29903 0.91578 0.0
C576 C 0.69221 0.19504 0.06625 0.0
C577 C 0.7093 0.21436 0.04862 0.0
C578 C 0.7466 0.2168 0.97375 0.0
C579 C 0.79306 0.28644 0.95326 0.0
C580 C 0.77695 0.26324 0.97147 0.0
C581 C 0.72543 0.20125 0.025 0.0
C582 C 0.74378 0.22195 0.00653 0.0
H583 H 0.80538 0.36587 0.95168 0.0
H584 H 0.77622 0.32727 0.97666 0.0
H585 H 0.76436 0.2332 0.93109 0.0
H586 H 0.70625 0.12373 0.03191 0.0
H587 H 0.73629 0.15742 1.00161 0.0
C588 C 0.81635 0.97063 0.3571 0.0
C589 C 0.83237 0.94693 0.34386 0.0
C590 C 0.7999 0.98904 0.33781 0.0
C591 C 0.79212 0.01575 0.25573 0.0
H592 H 0.71842 0.03406 0.27893 0.0
C593 C 0.71301 0.05961 0.16625 0.0
C594 C 0.6941 0.08199 0.17579 0.0
C595 C 0.731 0.04673 0.18813 0.0
C596 C 0.73912 0.02965 0.27239 0.0
H597 H 0.84325 0.92391 0.29978 0.0
H598 H 0.81438 0.95592 0.26619 0.0
H599 H 0.74707 1.00338 0.31424 0.0
H600 H 0.6798 0.1089 0.21598 0.0
H601 H 0.71158 0.08625 0.25454 0.0
H602 H 0.78415 0.04166 0.21379 0.0
C603 C 0.81485 0.96045 0.29154 0.0
C604 C 0.7555 0.01197 0.29256 0.0
C605 C 0.83126 0.94193 0.31083 0.0
C606 C 0.69413 0.09177 0.20784 0.0
C607 C 0.71218 0.07863 0.22993 0.0
C608 C 0.77579 0.03346 0.23565 0.0
C609 C 0.7991 0.98434 0.30479 0.0
C610 C 0.78204 0.00437 0.28419 0.0
C611 C 0.73068 0.05578 0.22028 0.0
C612 C 0.74893 0.04013 0.24344 0.0
H613 H 0.81668 0.97528 0.38242 0.0
H614 H 0.78821 0.00741 0.34875 0.0
H615 H 0.81267 0.01093 0.24893 0.0
H616 H 0.71372 0.05154 0.14177 0.0
H617 H 0.74465 0.02888 0.17991 0.0
C618 C 0.95055 0.96817 0.39255 0.0
C619 C 0.94205 0.93924 0.40508 0.0
C620 C 0.96988 0.98769 0.40924 0.0
C621 C 0.02063 0.987 0.47699 0.0
H622 H 1.00865 0.07721 0.4816 0.0
C623 C 0.07403 0.0653 0.57354 0.0
C624 C 0.0855 0.09425 0.56431 0.0
C625 C 0.05624 0.04788 0.553 0.0
C626 C 0.01238 0.0521 0.48036 0.0
H627 H 0.94879 0.90614 0.44252 0.0
H628 H 0.98153 0.94008 0.47213 0.0
H629 H 0.98009 0.04318 0.44587 0.0
H630 H 0.08593 0.12922 0.5278 0.0
H631 H 0.05523 0.0983 0.49115 0.0
H632 H 0.05146 0.99542 0.51277 0.0
C633 C 0.97366 0.94822 0.44966 0.0
C634 C 0.99612 0.03257 0.45972 0.0
C635 C 0.95453 0.92888 0.43298 0.0
C636 C 0.07764 0.10657 0.53503 0.0
C637 C 0.05998 0.08898 0.51424 0.0
C638 C 0.03632 0.00631 0.49801 0.0
C639 C 0.98122 0.97822 0.43842 0.0
C640 C 0.99989 0.99967 0.45803 0.0
C641 C 0.04948 0.05913 0.52279 0.0
C642 C 0.03247 0.03906 0.50005 0.0
H643 H 0.94155 0.97615 0.37054 0.0
H644 H 0.97566 0.01028 0.3995 0.0
H645 H 0.02468 0.96196 0.47592 0.0
H646 H 0.07906 0.05598 0.59658 0.0
H647 H 0.04797 0.02541 0.56073 0.0
C648 C 0.92635 0.30423 0.7984 0.0
C649 C 0.93 0.31088 0.83103 0.0
C650 C 0.94459 0.28529 0.78239 0.0
C651 C 0.99874 0.22695 0.79282 0.0
H652 H 0.02366 0.25982 0.71351 0.0
C653 C 0.06646 0.1573 0.70605 0.0
C654 C 0.08709 0.17472 0.69124 0.0
C655 C 0.04779 0.17264 0.72509 0.0
C656 C 0.01706 0.25039 0.73571 0.0
H657 H 0.95509 0.30164 0.87267 0.0
H658 H 0.98686 0.26841 0.84473 0.0
H659 H 0.98933 0.28781 0.74252 0.0
H660 H 0.10481 0.22183 0.68577 0.0
H661 H 0.07238 0.24846 0.71889 0.0
H662 H 0.02675 0.18958 0.78595 0.0
C663 C 0.96984 0.27784 0.83153 0.0
C664 C 0.99711 0.26624 0.75217 0.0
C665 C 0.95166 0.29697 0.84754 0.0
C666 C 0.08914 0.20767 0.69672 0.0
C667 C 0.07042 0.22299 0.71554 0.0
C668 C 0.01859 0.21089 0.77616 0.0
C669 C 0.96689 0.27238 0.79862 0.0
C670 C 0.98771 0.25478 0.78095 0.0
C671 C 0.04922 0.20576 0.72953 0.0
C672 C 0.02809 0.22253 0.74748 0.0
H673 H 0.90987 0.31448 0.78494 0.0
H674 H 0.94147 0.28114 0.75713 0.0
H675 H 0.99185 0.21742 0.81485 0.0
H676 H 0.06429 0.13189 0.7023 0.0
H677 H 0.03165 0.15867 0.73538 0.0
C678 C 0.59362 0.71074 0.70352 0.0
C679 C 0.59022 0.67805 0.69702 0.0
C680 C 0.57537 0.72658 0.7226 0.0
C681 C 0.52188 0.71571 0.78164 0.0
H682 H 0.49588 0.79455 0.74876 0.0
C683 C 0.45405 0.80208 0.85175 0.0
C684 C 0.43314 0.81657 0.83449 0.0
C685 C 0.47271 0.78312 0.83629 0.0
C686 C 0.50278 0.77248 0.7582 0.0
H687 H 0.5656 0.63614 0.70665 0.0
H688 H 0.53384 0.6638 0.74014 0.0
H689 H 0.53021 0.76586 0.72045 0.0
H690 H 0.4149 0.82151 0.78756 0.0
H691 H 0.44731 0.78852 0.76073 0.0
H692 H 0.49418 0.72239 0.81935 0.0
C693 C 0.55065 0.67717 0.73047 0.0
C694 C 0.52273 0.75621 0.74216 0.0
C695 C 0.56882 0.66133 0.7112 0.0
C696 C 0.43079 0.81081 0.8016 0.0
C697 C 0.4495 0.79207 0.78616 0.0
C698 C 0.50204 0.73218 0.79789 0.0
C699 C 0.55334 0.71013 0.73581 0.0
C700 C 0.53252 0.72759 0.7536 0.0
C701 C 0.47099 0.77844 0.80321 0.0
C702 C 0.49214 0.76069 0.78625 0.0
H703 H 0.60989 0.72436 0.69306 0.0
H704 H 0.5783 0.75189 0.72664 0.0
H705 H 0.52907 0.69381 0.79116 0.0
H706 H 0.45647 0.80606 0.8771 0.0
H707 H 0.48909 0.7731 0.85011 0.0
C708 C 0.18934 0.69443 0.06107 0.0
C709 C 0.191 0.66134 0.05837 0.0
C710 C 0.20572 0.71415 0.04296 0.0
C711 C 0.24765 0.71439 0.97117 0.0
H712 H 0.27723 0.79283 0.0094 0.0
C713 C 0.32894 0.79881 0.91494 0.0
C714 C 0.32447 0.83132 0.91912 0.0
C715 C 0.31189 0.77635 0.92915 0.0
C716 C 0.26894 0.77111 0.99829 0.0
H717 H 0.21153 0.62313 0.03457 0.0
H718 H 0.24039 0.65748 1.00368 0.0
H719 H 0.24968 0.75737 0.04065 0.0
H720 H 0.29735 0.86564 0.93894 0.0
H721 H 0.26778 0.82677 0.96314 0.0
H722 H 0.26743 0.7283 0.92883 0.0
C723 C 0.22605 0.66822 0.01929 0.0
C724 C 0.25306 0.75081 0.01619 0.0
C725 C 0.20959 0.64851 0.03725 0.0
C726 C 0.30163 0.84078 0.93573 0.0
C727 C 0.28473 0.81853 0.94976 0.0
C728 C 0.26376 0.73471 0.95326 0.0
C729 C 0.22431 0.7013 0.02185 0.0
C730 C 0.24191 0.72236 1.0028 0.0
C731 C 0.2902 0.78618 0.94764 0.0
C732 C 0.27423 0.76349 0.96655 0.0
H733 H 0.17513 0.70517 0.07687 0.0
H734 H 0.20351 0.73952 0.0452 0.0
H735 H 0.2392 0.69279 0.96 0.0
H736 H 0.34643 0.79086 0.90235 0.0
H737 H 0.3165 0.7515 0.92706 0.0
C738 C 0.4494 0.43355 0.4431 0.0
C739 C 0.43797 0.443 0.41422 0.0
C740 C 0.46735 0.45385 0.46058 0.0
C741 C 0.51117 0.52674 0.4567 0.0
H742 H 0.49938 0.53016 0.54694 0.0
C743 C 0.57241 0.61511 0.54041 0.0
C744 C 0.58102 0.60287 0.56943 0.0
C745 C 0.55322 0.59809 0.521 0.0
C746 C 0.50333 0.52938 0.52188 0.0
H747 H 0.4377 0.47969 0.37944 0.0
H748 H 0.46858 0.516 0.41051 0.0
H749 H 0.47292 0.49313 0.51346 0.0
H750 H 0.57453 0.56565 0.60284 0.0
H751 H 0.54212 0.53541 0.56905 0.0
H752 H 0.54314 0.56162 0.46563 0.0
C753 C 0.46376 0.49287 0.41971 0.0
C754 C 0.48778 0.50826 0.50252 0.0
C755 C 0.44598 0.47228 0.40203 0.0
C756 C 0.56874 0.57494 0.58001 0.0
C757 C 0.54977 0.5579 0.56074 0.0
C758 C 0.52734 0.54743 0.47627 0.0
C759 C 0.47425 0.48409 0.4495 0.0
C760 C 0.49135 0.50666 0.4697 0.0
C761 C 0.54215 0.56882 0.53063 0.0
C762 C 0.52372 0.54885 0.50921 0.0
H763 H 0.44422 0.41052 0.45235 0.0
H764 H 0.47561 0.4459 0.48295 0.0
H765 H 0.51475 0.52582 0.43155 0.0
H766 H 0.58122 0.63716 0.53229 0.0
H767 H 0.54735 0.60766 0.49836 0.0
loop_
_geom_bond_atom_site_label_1
_geom_bond_atom_site_label_2
_geom_bond_distance
_geom_bond_site_symmetry_2
_ccdc_geom_bond_type
Mn0 O5 2.095 . S
Mn0 O15 2.162 . S
Mn0 O16 2.297 . S
Mn0 O24 2.385 . S
Mn0 O25 2.209 . S
Mn0 O26 2.094 . S
Mn1 O6 2.121 . S
Mn1 N8 2.257 . S
Mn1 N17 2.282 . S
Mn1 O25 2.215 . S
Mn1 O27 2.117 . S
C2 O24 1.234 . S
C2 O25 1.283 . S
C3 O15 1.281 . S
C3 O16 1.236 . S
C4 O26 1.240 . S
C4 O27 1.264 . S
O5 Mn0 2.095 . S
O5 C14 1.250 . S
O6 Mn1 2.121 . S
O6 C14 1.258 . S
C7 N8 1.326 . S
C7 C11 1.460 1_545 S
C7 H13 0.929 . S
N8 Mn1 2.257 . S
N8 C7 1.326 . S
N8 C12 1.362 . S
C9 C10 1.258 . S
C9 C12 1.431 1_565 S
C9 C29 1.449 . S
C10 C9 1.258 . S
C10 C11 1.477 . S
C10 H30 0.931 . S
C11 C7 1.460 1_565 S
C11 C10 1.477 . S
C11 H31 0.930 . S
C12 N8 1.362 . S
C12 C9 1.431 1_545 S
C12 C22 1.476 . S
H13 C7 0.929 . S
C14 O5 1.250 . S
C14 O6 1.258 . S
O15 Mn0 2.162 . S
O15 C3 1.281 . S
O16 Mn0 2.297 . S
O16 C3 1.236 . S
N17 Mn1 2.282 . S
N17 C18 1.328 . S
N17 C22 1.318 . S
C18 N17 1.328 . S
C18 C19 1.457 . S
C18 H23 0.929 . S
C19 C18 1.457 . S
C19 C20 1.291 . S
C19 H32 0.931 . S
C20 C19 1.291 . S
C20 C21 1.373 . S
C20 H33 0.929 . S
C21 C20 1.373 . S
C21 C22 1.396 . S
C21 C28 1.433 . S
C22 C12 1.476 . S
C22 N17 1.318 . S
C22 C21 1.396 . S
H23 C18 0.929 . S
O24 Mn0 2.385 . S
O24 C2 1.234 . S
O25 Mn0 2.209 . S
O25 Mn1 2.215 . S
O25 C2 1.283 . S
O26 Mn0 2.094 . S
O26 C4 1.240 . S
O27 Mn1 2.117 . S
O27 C4 1.264 . S
C28 C21 1.433 . S
C28 C29 1.376 1_545 S
C28 H34 0.923 1_545 S
C29 C9 1.449 . S
C29 C28 1.376 1_565 S
C29 H35 0.930 . S
H30 C10 0.931 . S
H31 C11 0.930 . S
H32 C19 0.931 . S
H33 C20 0.929 . S
H34 C28 0.923 1_565 S
H35 C29 0.930 . S
Mn36 O41 2.095 . S
Mn36 O51 2.162 . S
Mn36 O52 2.297 . S
Mn36 O60 2.385 . S
Mn36 O61 2.209 . S
Mn36 O62 2.094 . S
Mn37 O42 2.121 . S
Mn37 N44 2.257 . S
Mn37 N53 2.282 . S
Mn37 O61 2.215 . S
Mn37 O63 2.117 . S
C38 O60 1.234 . S
C38 O61 1.283 . S
C39 O51 1.281 . S
C39 O52 1.236 . S
C40 O62 1.240 . S
C40 O63 1.264 . S
O41 Mn36 2.095 . S
O41 C50 1.250 . S
O42 Mn37 2.121 . S
O42 C50 1.258 . S
C43 N44 1.326 . S
C43 C47 1.460 1_556 S
C43 H49 0.929 . S
N44 Mn37 2.257 . S
N44 C43 1.326 . S
N44 C48 1.362 . S
C45 C46 1.258 . S
C45 C48 1.431 1_554 S
C45 C65 1.449 . S
C46 C45 1.258 . S
C46 C47 1.477 . S
C46 H66 0.931 . S
C47 C43 1.460 1_554 S
C47 C46 1.477 . S
C47 H67 0.930 . S
C48 N44 1.362 . S
C48 C45 1.431 1_556 S
C48 C58 1.476 . S
H49 C43 0.929 . S
C50 O41 1.250 . S
C50 O42 1.258 . S
O51 Mn36 2.162 . S
O51 C39 1.281 . S
O52 Mn36 2.297 . S
O52 C39 1.236 . S
N53 Mn37 2.282 . S
N53 C54 1.328 . S
N53 C58 1.318 . S
C54 N53 1.328 . S
C54 C55 1.457 . S
C54 H59 0.929 . S
C55 C54 1.457 . S
C55 C56 1.291 . S
C55 H68 0.931 . S
C56 C55 1.291 . S
C56 C57 1.373 . S
C56 H69 0.929 . S
C57 C56 1.373 . S
C57 C58 1.396 . S
C57 C64 1.433 . S
C58 C48 1.476 . S
C58 N53 1.318 . S
C58 C57 1.396 . S
H59 C54 0.929 . S
O60 Mn36 2.385 . S
O60 C38 1.234 . S
O61 Mn36 2.209 . S
O61 Mn37 2.215 . S
O61 C38 1.283 . S
O62 Mn36 2.094 . S
O62 C40 1.240 . S
O63 Mn37 2.117 . S
O63 C40 1.264 . S
C64 C57 1.433 . S
C64 C65 1.376 1_556 S
C64 H70 0.923 1_556 S
C65 C45 1.449 . S
C65 C64 1.376 1_554 S
C65 H71 0.930 . S
H66 C46 0.931 . S
H67 C47 0.930 . S
H68 C55 0.931 . S
H69 C56 0.929 . S
H70 C64 0.923 1_554 S
H71 C65 0.930 . S
Mn72 O77 2.095 . S
Mn72 O87 2.162 . S
Mn72 O88 2.297 . S
Mn72 O96 2.385 . S
Mn72 O97 2.209 . S
Mn72 O98 2.094 . S
Mn73 O78 2.121 . S
Mn73 N80 2.257 . S
Mn73 N89 2.282 . S
Mn73 O97 2.215 . S
Mn73 O99 2.117 . S
C74 O96 1.234 . S
C74 O97 1.283 . S
C75 O87 1.281 . S
C75 O88 1.236 . S
C76 O98 1.240 . S
C76 O99 1.264 . S
O77 Mn72 2.095 . S
O77 C86 1.250 . S
O78 Mn73 2.121 . S
O78 C86 1.258 . S
C79 N80 1.326 . S
C79 C83 1.460 1_545 S
C79 H85 0.929 . S
N80 Mn73 2.257 . S
N80 C79 1.326 . S
N80 C84 1.362 . S
C81 C82 1.258 . S
C81 C84 1.431 1_565 S
C81 C101 1.449 . S
C82 C81 1.258 . S
C82 C83 1.477 . S
C82 H102 0.931 . S
C83 C79 1.460 1_565 S
C83 C82 1.477 . S
C83 H103 0.930 . S
C84 N80 1.362 . S
C84 C81 1.431 1_545 S
C84 C94 1.476 . S
H85 C79 0.929 . S
C86 O77 1.250 . S
C86 O78 1.258 . S
O87 Mn72 2.162 . S
O87 C75 1.281 . S
O88 Mn72 2.297 . S
O88 C75 1.236 . S
N89 Mn73 2.282 . S
N89 C90 1.328 . S
N89 C94 1.318 . S
C90 N89 1.328 . S
C90 C91 1.457 1_554 S
C90 H95 0.929 . S
C91 C90 1.457 1_556 S
C91 C92 1.291 . S
C91 H104 0.931 . S
C92 C91 1.291 . S
C92 C93 1.373 1_556 S
C92 H105 0.929 . S
C93 C92 1.373 1_554 S
C93 C94 1.396 . S
C93 C100 1.433 1_554 S
C94 C84 1.476 . S
C94 N89 1.318 . S
C94 C93 1.396 . S
H95 C90 0.929 . S
O96 Mn72 2.385 . S
O96 C74 1.234 . S
O97 Mn72 2.209 . S
O97 Mn73 2.215 . S
O97 C74 1.283 . S
O98 Mn72 2.094 . S
O98 C76 1.240 . S
O99 Mn73 2.117 . S
O99 C76 1.264 . S
C100 C93 1.433 1_556 S
C100 C101 1.376 1_546 S
C100 H106 0.923 1_545 S
C101 C81 1.449 . S
C101 C100 1.376 1_564 S
C101 H107 0.930 . S
H102 C82 0.931 . S
H103 C83 0.930 . S
H104 C91 0.931 . S
H105 C92 0.929 . S
H106 C100 0.923 1_565 S
H107 C101 0.930 . S
Mn108 O113 2.095 . S
Mn108 O123 2.162 . S
Mn108 O124 2.297 . S
Mn108 O132 2.385 . S
Mn108 O133 2.209 . S
Mn108 O134 2.094 . S
Mn109 O114 2.121 . S
Mn109 N116 2.257 . S
Mn109 N125 2.282 . S
Mn109 O133 2.215 . S
Mn109 O135 2.117 . S
C110 O132 1.234 . S
C110 O133 1.283 . S
C111 O123 1.281 . S
C111 O124 1.236 . S
C112 O134 1.240 . S
C112 O135 1.264 . S
O113 Mn108 2.095 . S
O113 C122 1.250 . S
O114 Mn109 2.121 . S
O114 C122 1.258 . S
C115 N116 1.326 . S
C115 C119 1.460 . S
C115 H121 0.929 . S
N116 Mn109 2.257 . S
N116 C115 1.326 . S
N116 C120 1.362 . S
C117 C118 1.258 . S
C117 C120 1.431 . S
C117 C137 1.449 . S
C118 C117 1.258 . S
C118 C119 1.477 . S
C118 H138 0.931 . S
C119 C115 1.460 . S
C119 C118 1.477 . S
C119 H139 0.930 . S
C120 N116 1.362 . S
C120 C117 1.431 . S
C120 C130 1.476 . S
H121 C115 0.929 . S
C122 O113 1.250 . S
C122 O114 1.258 . S
O123 Mn108 2.162 . S
O123 C111 1.281 . S
O124 Mn108 2.297 . S
O124 C111 1.236 . S
N125 Mn109 2.282 . S
N125 C126 1.328 . S
N125 C130 1.318 . S
C126 N125 1.328 . S
C126 C127 1.457 1_565 S
C126 H131 0.929 . S
C127 C126 1.457 1_545 S
C127 C128 1.291 . S
C127 H140 0.931 . S
C128 C127 1.291 . S
C128 C129 1.373 1_545 S
C128 H141 0.929 . S
C129 C128 1.373 1_565 S
C129 C130 1.396 . S
C129 C136 1.403 1_565 S
C130 C120 1.476 . S
C130 N125 1.318 . S
C130 C129 1.396 . S
H131 C126 0.929 . S
O132 Mn108 2.385 . S
O132 C110 1.234 . S
O133 Mn108 2.209 . S
O133 Mn109 2.215 . S
O133 C110 1.283 . S
O134 Mn108 2.094 . S
O134 C112 1.240 . S
O135 Mn109 2.117 . S
O135 C112 1.264 . S
C136 C129 1.403 1_545 S
C136 C137 1.399 1_545 S
C136 H142 0.929 . S
C137 C117 1.449 . S
C137 C136 1.399 1_565 S
C137 H143 0.930 . S
H138 C118 0.931 . S
H139 C119 0.930 . S
H140 C127 0.931 . S
H141 C128 0.929 . S
H142 C136 0.929 . S
H143 C137 0.930 . S
Mn144 O149 2.095 . S
Mn144 O159 2.162 . S
Mn144 O160 2.297 . S
Mn144 O168 2.385 . S
Mn144 O169 2.209 . S
Mn144 O170 2.094 . S
Mn145 O150 2.121 . S
Mn145 N152 2.257 . S
Mn145 N161 2.282 . S
Mn145 O169 2.215 . S
Mn145 O171 2.117 . S
C146 O168 1.234 . S
C146 O169 1.283 . S
C147 O159 1.281 . S
C147 O160 1.236 . S
C148 O170 1.240 . S
C148 O171 1.264 . S
O149 Mn144 2.095 . S
O149 C158 1.250 . S
O150 Mn145 2.121 . S
O150 C158 1.258 . S
C151 N152 1.326 . S
C151 C155 1.460 . S
C151 H157 0.929 . S
N152 Mn145 2.257 . S
N152 C151 1.326 . S
N152 C156 1.362 . S
C153 C154 1.258 . S
C153 C156 1.431 . S
C153 C173 1.449 . S
C154 C153 1.258 . S
C154 C155 1.477 . S
C154 H174 0.931 . S
C155 C151 1.460 . S
C155 C154 1.477 . S
C155 H175 0.930 . S
C156 N152 1.362 . S
C156 C153 1.431 . S
C156 C166 1.476 . S
H157 C151 0.929 . S
C158 O149 1.250 . S
C158 O150 1.258 . S
O159 Mn144 2.162 . S
O159 C147 1.281 . S
O160 Mn144 2.297 . S
O160 C147 1.236 . S
N161 Mn145 2.282 . S
N161 C162 1.328 . S
N161 C166 1.318 . S
C162 N161 1.328 . S
C162 C163 1.457 1_554 S
C162 H167 0.929 . S
C163 C162 1.457 1_556 S
C163 C164 1.291 . S
C163 H176 0.931 . S
C164 C163 1.291 . S
C164 C165 1.373 1_556 S
C164 H177 0.929 . S
C165 C164 1.373 1_554 S
C165 C166 1.396 . S
C165 C172 1.403 1_554 S
C166 C156 1.476 . S
C166 N161 1.318 . S
C166 C165 1.396 . S
H167 C162 0.929 . S
O168 Mn144 2.385 . S
O168 C146 1.234 . S
O169 Mn144 2.209 . S
O169 Mn145 2.215 . S
O169 C146 1.283 . S
O170 Mn144 2.094 . S
O170 C148 1.240 . S
O171 Mn145 2.117 . S
O171 C148 1.264 . S
C172 C165 1.403 1_556 S
C172 C173 1.399 1_556 S
C172 H178 0.929 . S
C173 C153 1.449 . S
C173 C172 1.399 1_554 S
C173 H179 0.930 . S
H174 C154 0.931 . S
H175 C155 0.930 . S
H176 C163 0.931 . S
H177 C164 0.929 . S
H178 C172 0.929 . S
H179 C173 0.930 . S
Mn180 O185 2.095 . S
Mn180 O195 2.162 . S
Mn180 O196 2.297 . S
Mn180 O204 2.385 . S
Mn180 O205 2.209 . S
Mn180 O206 2.094 . S
Mn181 O186 2.121 . S
Mn181 N188 2.257 . S
Mn181 N197 2.282 . S
Mn181 O205 2.215 . S
Mn181 O207 2.117 . S
C182 O204 1.234 . S
C182 O205 1.283 . S
C183 O195 1.281 . S
C183 O196 1.236 . S
C184 O206 1.240 . S
C184 O207 1.264 . S
O185 Mn180 2.095 . S
O185 C194 1.250 . S
O186 Mn181 2.121 . S
O186 C194 1.258 . S
C187 N188 1.326 . S
C187 C191 1.460 . S
C187 H193 0.929 . S
N188 Mn181 2.257 . S
N188 C187 1.326 . S
N188 C192 1.362 . S
C189 C190 1.258 . S
C189 C192 1.431 . S
C189 C209 1.449 . S
C190 C189 1.258 . S
C190 C191 1.477 . S
C190 H210 0.931 . S
C191 C187 1.460 . S
C191 C190 1.477 . S
C191 H211 0.930 . S
C192 N188 1.362 . S
C192 C189 1.431 . S
C192 C202 1.476 . S
H193 C187 0.929 . S
C194 O185 1.250 . S
C194 O186 1.258 . S
O195 Mn180 2.162 . S
O195 C183 1.281 . S
O196 Mn180 2.297 . S
O196 C183 1.236 . S
N197 Mn181 2.282 . S
N197 C198 1.328 . S
N197 C202 1.318 . S
C198 N197 1.328 . S
C198 C199 1.457 . S
C198 H203 0.929 . S
C199 C198 1.457 . S
C199 C200 1.291 . S
C199 H212 0.931 . S
C200 C199 1.291 . S
C200 C201 1.373 . S
C200 H213 0.929 . S
C201 C200 1.373 . S
C201 C202 1.396 . S
C201 C208 1.403 . S
C202 C192 1.476 . S
C202 N197 1.318 . S
C202 C201 1.396 . S
H203 C198 0.929 . S
O204 Mn180 2.385 . S
O204 C182 1.234 . S
O205 Mn180 2.209 . S
O205 Mn181 2.215 . S
O205 C182 1.283 . S
O206 Mn180 2.094 . S
O206 C184 1.240 . S
O207 Mn181 2.117 . S
O207 C184 1.264 . S
C208 C201 1.403 . S
C208 C209 1.399 . S
C208 H214 0.929 . S
C209 C189 1.449 . S
C209 C208 1.399 . S
C209 H215 0.930 . S
H210 C190 0.931 . S
H211 C191 0.930 . S
H212 C199 0.931 . S
H213 C200 0.929 . S
H214 C208 0.929 . S
H215 C209 0.930 . S
Mn216 O221 2.095 . S
Mn216 O231 2.162 . S
Mn216 O232 2.297 . S
Mn216 O240 2.385 . S
Mn216 O241 2.209 . S
Mn216 O242 2.094 . S
Mn217 O222 2.121 . S
Mn217 N224 2.257 . S
Mn217 N233 2.282 . S
Mn217 O241 2.215 . S
Mn217 O243 2.117 . S
C218 O240 1.234 . S
C218 O241 1.283 . S
C219 O231 1.281 . S
C219 O232 1.236 . S
C220 O242 1.240 . S
C220 O243 1.264 . S
O221 Mn216 2.095 . S
O221 C230 1.250 . S
O222 Mn217 2.121 . S
O222 C230 1.258 . S
C223 N224 1.326 . S
C223 C227 1.460 1_556 S
C223 H229 0.929 . S
N224 Mn217 2.257 . S
N224 C223 1.326 . S
N224 C228 1.362 . S
C225 C226 1.258 . S
C225 C228 1.431 1_554 S
C225 C245 1.449 . S
C226 C225 1.258 . S
C226 C227 1.477 . S
C226 H246 0.931 . S
C227 C223 1.460 1_554 S
C227 C226 1.477 . S
C227 H247 0.930 . S
C228 N224 1.362 . S
C228 C225 1.431 1_556 S
C228 C238 1.476 . S
H229 C223 0.929 . S
C230 O221 1.250 . S
C230 O222 1.258 . S
O231 Mn216 2.162 . S
O231 C219 1.281 . S
O232 Mn216 2.297 . S
O232 C219 1.236 . S
N233 Mn217 2.282 . S
N233 C234 1.328 . S
N233 C238 1.318 . S
C234 N233 1.328 . S
C234 C235 1.457 1_565 S
C234 H239 0.929 . S
C235 C234 1.457 1_545 S
C235 C236 1.291 . S
C235 H248 0.931 . S
C236 C235 1.291 . S
C236 C237 1.373 1_545 S
C236 H249 0.929 . S
C237 C236 1.373 1_565 S
C237 C238 1.396 . S
C237 C244 1.433 1_565 S
C238 C228 1.476 . S
C238 N233 1.318 . S
C238 C237 1.396 . S
H239 C234 0.929 . S
O240 Mn216 2.385 . S
O240 C218 1.234 . S
O241 Mn216 2.209 . S
O241 Mn217 2.215 . S
O241 C218 1.283 . S
O242 Mn216 2.094 . S
O242 C220 1.240 . S
O243 Mn217 2.117 . S
O243 C220 1.264 . S
C244 C237 1.433 1_545 S
C244 C245 1.376 1_546 S
C244 H250 0.923 1_556 S
C245 C225 1.449 . S
C245 C244 1.376 1_564 S
C245 H251 0.930 . S
H246 C226 0.931 . S
H247 C227 0.930 . S
H248 C235 0.931 . S
H249 C236 0.929 . S
H250 C244 0.923 1_554 S
H251 C245 0.930 . S
Mn252 O257 2.095 . S
Mn252 O267 2.162 . S
Mn252 O268 2.297 . S
Mn252 O276 2.385 . S
Mn252 O277 2.209 . S
Mn252 O278 2.094 . S
Mn253 O258 2.121 . S
Mn253 N260 2.257 . S
Mn253 N269 2.282 . S
Mn253 O277 2.215 . S
Mn253 O279 2.117 . S
C254 O276 1.234 . S
C254 O277 1.283 . S
C255 O267 1.281 . S
C255 O268 1.236 . S
C256 O278 1.240 . S
C256 O279 1.264 . S
O257 Mn252 2.095 . S
O257 C266 1.250 . S
O258 Mn253 2.121 . S
O258 C266 1.258 . S
C259 N260 1.326 . S
C259 C263 1.460 . S
C259 H265 0.929 . S
N260 Mn253 2.257 . S
N260 C259 1.326 . S
N260 C264 1.362 . S
C261 C262 1.258 . S
C261 C264 1.431 . S
C261 C281 1.449 . S
C262 C261 1.258 . S
C262 C263 1.477 . S
C262 H282 0.931 . S
C263 C259 1.460 . S
C263 C262 1.477 . S
C263 H283 0.930 . S
C264 N260 1.362 . S
C264 C261 1.431 . S
C264 C274 1.476 . S
H265 C259 0.929 . S
C266 O257 1.250 . S
C266 O258 1.258 . S
O267 Mn252 2.162 . S
O267 C255 1.281 . S
O268 Mn252 2.297 . S
O268 C255 1.236 . S
N269 Mn253 2.282 . S
N269 C270 1.328 . S
N269 C274 1.318 . S
C270 N269 1.328 . S
C270 C271 1.457 . S
C270 H275 0.929 . S
C271 C270 1.457 . S
C271 C272 1.291 . S
C271 H284 0.931 . S
C272 C271 1.291 . S
C272 C273 1.373 . S
C272 H285 0.929 . S
C273 C272 1.373 . S
C273 C274 1.396 . S
C273 C280 1.403 . S
C274 C264 1.476 . S
C274 N269 1.318 . S
C274 C273 1.396 . S
H275 C270 0.929 . S
O276 Mn252 2.385 . S
O276 C254 1.234 . S
O277 Mn252 2.209 . S
O277 Mn253 2.215 . S
O277 C254 1.283 . S
O278 Mn252 2.094 . S
O278 C256 1.240 . S
O279 Mn253 2.117 . S
O279 C256 1.264 . S
C280 C273 1.403 . S
C280 C281 1.399 . S
C280 H286 0.929 . S
C281 C261 1.449 . S
C281 C280 1.399 . S
C281 H287 0.930 . S
H282 C262 0.931 . S
H283 C263 0.930 . S
H284 C271 0.931 . S
H285 C272 0.929 . S
H286 C280 0.929 . S
H287 C281 0.930 . S
C288 C289 1.349 . S
C288 C290 1.327 . S
C288 H313 0.950 . S
C289 C288 1.349 . S
C289 C305 1.349 . S
C290 C288 1.327 . S
C290 C309 1.429 . S
C290 H314 0.950 . S
C291 C308 1.574 . S
C291 C310 1.368 . S
C291 H315 0.949 . S
H292 C296 0.949 . S
C293 C294 1.349 . S
C293 C295 1.327 . S
C293 H316 0.950 . S
C294 C293 1.349 . S
C294 C306 1.349 . S
C295 C293 1.327 . S
C295 C311 1.429 . S
C295 H317 0.950 . S
C296 H292 0.949 . S
C296 C304 1.574 . S
C296 C312 1.368 . S
H297 C305 0.950 . S
H298 C303 0.950 . S
H299 C304 0.949 . S
H300 C306 0.950 . S
H301 C307 0.950 . S
H302 C308 0.949 . S
C303 H298 0.950 . S
C303 C305 1.327 . S
C303 C309 1.429 . S
C304 C296 1.574 . S
C304 H299 0.949 . S
C304 C310 1.368 . S
C305 C289 1.349 . S
C305 H297 0.950 . S
C305 C303 1.327 . S
C306 C294 1.349 . S
C306 H300 0.950 . S
C306 C307 1.327 . S
C307 H301 0.950 . S
C307 C306 1.327 . S
C307 C311 1.429 . S
C308 C291 1.574 . S
C308 H302 0.949 . S
C308 C312 1.368 . S
C309 C290 1.429 . S
C309 C303 1.429 . S
C309 C310 1.523 . S
C310 C291 1.368 . S
C310 C304 1.368 . S
C310 C309 1.523 . S
C311 C295 1.429 . S
C311 C307 1.429 . S
C311 C312 1.523 . S
C312 C296 1.368 . S
C312 C308 1.368 . S
C312 C311 1.523 . S
H313 C288 0.950 . S
H314 C290 0.950 . S
H315 C291 0.949 . S
H316 C293 0.950 . S
H317 C295 0.950 . S
C318 C319 1.349 . S
C318 C320 1.327 . S
C318 H343 0.950 . S
C319 C318 1.349 . S
C319 C335 1.349 . S
C320 C318 1.327 . S
C320 C339 1.429 . S
C320 H344 0.950 . S
C321 C338 1.574 . S
C321 C340 1.368 . S
C321 H345 0.949 . S
H322 C326 0.949 . S
C323 C324 1.349 . S
C323 C325 1.327 . S
C323 H346 0.950 . S
C324 C323 1.349 . S
C324 C336 1.349 . S
C325 C323 1.327 . S
C325 C341 1.429 . S
C325 H347 0.950 . S
C326 H322 0.949 . S
C326 C334 1.574 . S
C326 C342 1.368 . S
H327 C335 0.950 . S
H328 C333 0.950 . S
H329 C334 0.949 . S
H330 C336 0.950 . S
H331 C337 0.950 . S
H332 C338 0.949 . S
C333 H328 0.950 . S
C333 C335 1.327 . S
C333 C339 1.429 . S
C334 C326 1.574 . S
C334 H329 0.949 . S
C334 C340 1.368 . S
C335 C319 1.349 . S
C335 H327 0.950 . S
C335 C333 1.327 . S
C336 C324 1.349 . S
C336 H330 0.950 . S
C336 C337 1.327 . S
C337 H331 0.950 . S
C337 C336 1.327 . S
C337 C341 1.429 . S
C338 C321 1.574 . S
C338 H332 0.949 . S
C338 C342 1.368 . S
C339 C320 1.429 . S
C339 C333 1.429 . S
C339 C340 1.523 . S
C340 C321 1.368 . S
C340 C334 1.368 . S
C340 C339 1.523 . S
C341 C325 1.429 . S
C341 C337 1.429 . S
C341 C342 1.523 . S
C342 C326 1.368 . S
C342 C338 1.368 . S
C342 C341 1.523 . S
H343 C318 0.950 . S
H344 C320 0.950 . S
H345 C321 0.949 . S
H346 C323 0.950 . S
H347 C325 0.950 . S
C348 C349 1.349 . S
C348 C350 1.327 . S
C348 H373 0.950 . S
C349 C348 1.349 . S
C349 C365 1.349 . S
C350 C348 1.327 . S
C350 C369 1.429 . S
C350 H374 0.950 . S
C351 C368 1.574 1_545 S
C351 C370 1.368 1_556 S
C351 H375 0.949 . S
H352 C356 0.949 . S
C353 C354 1.349 . S
C353 C355 1.327 . S
C353 H376 0.950 . S
C354 C353 1.349 . S
C354 C366 1.349 . S
C355 C353 1.327 . S
C355 C371 1.429 . S
C355 H377 0.950 . S
C356 H352 0.949 . S
C356 C364 1.574 . S
C356 C372 1.368 1_544 S
H357 C365 0.950 . S
H358 C363 0.950 . S
H359 C364 0.949 . S
H360 C366 0.950 . S
H361 C367 0.950 . S
H362 C368 0.949 . S
C363 H358 0.950 . S
C363 C365 1.327 . S
C363 C369 1.429 . S
C364 C356 1.574 . S
C364 H359 0.949 . S
C364 C370 1.368 . S
C365 C349 1.349 . S
C365 H357 0.950 . S
C365 C363 1.327 . S
C366 C354 1.349 . S
C366 H360 0.950 . S
C366 C367 1.327 . S
C367 H361 0.950 . S
C367 C366 1.327 . S
C367 C371 1.429 . S
C368 C351 1.574 1_565 S
C368 H362 0.949 . S
C368 C372 1.368 . S
C369 C350 1.429 . S
C369 C363 1.429 . S
C369 C370 1.523 . S
C370 C351 1.368 1_554 S
C370 C364 1.368 . S
C370 C369 1.523 . S
C371 C355 1.429 . S
C371 C367 1.429 . S
C371 C372 1.523 . S
C372 C356 1.368 1_566 S
C372 C368 1.368 . S
C372 C371 1.523 . S
H373 C348 0.950 . S
H374 C350 0.950 . S
H375 C351 0.949 . S
H376 C353 0.950 . S
H377 C355 0.950 . S
C378 C379 1.349 . S
C378 C380 1.327 . S
C378 H403 0.950 . S
C379 C378 1.349 . S
C379 C395 1.349 . S
C380 C378 1.327 . S
C380 C399 1.429 . S
C380 H404 0.950 . S
C381 C398 1.574 . S
C381 C400 1.368 1_455 S
C381 H405 0.949 . S
H382 C386 0.949 . S
C383 C384 1.349 . S
C383 C385 1.327 . S
C383 H406 0.950 . S
C384 C383 1.349 . S
C384 C396 1.349 . S
C385 C383 1.327 . S
C385 C401 1.429 . S
C385 H407 0.950 . S
C386 H382 0.949 . S
C386 C394 1.574 . S
C386 C402 1.368 1_655 S
H387 C395 0.950 . S
H388 C393 0.950 . S
H389 C394 0.949 . S
H390 C396 0.950 . S
H391 C397 0.950 . S
H392 C398 0.949 . S
C393 H388 0.950 . S
C393 C395 1.327 . S
C393 C399 1.429 . S
C394 C386 1.574 . S
C394 H389 0.949 . S
C394 C400 1.368 . S
C395 C379 1.349 . S
C395 H387 0.950 . S
C395 C393 1.327 . S
C396 C384 1.349 . S
C396 H390 0.950 . S
C396 C397 1.327 . S
C397 H391 0.950 . S
C397 C396 1.327 . S
C397 C401 1.429 . S
C398 C381 1.574 . S
C398 H392 0.949 . S
C398 C402 1.368 . S
C399 C380 1.429 . S
C399 C393 1.429 . S
C399 C400 1.523 . S
C400 C381 1.368 1_655 S
C400 C394 1.368 . S
C400 C399 1.523 . S
C401 C385 1.429 . S
C401 C397 1.429 . S
C401 C402 1.523 . S
C402 C386 1.368 1_455 S
C402 C398 1.368 . S
C402 C401 1.523 . S
H403 C378 0.950 . S
H404 C380 0.950 . S
H405 C381 0.949 . S
H406 C383 0.950 . S
H407 C385 0.950 . S
C408 C409 1.349 . S
C408 C410 1.327 . S
C408 H433 0.950 . S
C409 C408 1.349 . S
C409 C425 1.349 . S
C410 C408 1.327 . S
C410 C429 1.429 . S
C410 H434 0.950 . S
C411 C428 1.574 1_565 S
C411 C430 1.368 . S
C411 H435 0.949 . S
H412 C416 0.949 . S
C413 C414 1.349 . S
C413 C415 1.327 . S
C413 H436 0.950 . S
C414 C413 1.349 . S
C414 C426 1.349 . S
C415 C413 1.327 . S
C415 C431 1.429 . S
C415 H437 0.950 . S
C416 H412 0.949 . S
C416 C424 1.574 . S
C416 C432 1.368 . S
H417 C425 0.950 . S
H418 C423 0.950 . S
H419 C424 0.949 1_565 S
H420 C426 0.950 . S
H421 C427 0.950 . S
H422 C428 0.949 . S
C423 H418 0.950 . S
C423 C425 1.327 . S
C423 C429 1.429 . S
C424 C416 1.574 . S
C424 H419 0.949 1_545 S
C424 C430 1.368 1_545 S
C425 C409 1.349 . S
C425 H417 0.950 . S
C425 C423 1.327 . S
C426 C414 1.349 . S
C426 H420 0.950 . S
C426 C427 1.327 . S
C427 H421 0.950 . S
C427 C426 1.327 . S
C427 C431 1.429 . S
C428 C411 1.574 1_545 S
C428 H422 0.949 . S
C428 C432 1.368 . S
C429 C410 1.429 . S
C429 C423 1.429 . S
C429 C430 1.523 . S
C430 C411 1.368 . S
C430 C424 1.368 1_565 S
C430 C429 1.523 . S
C431 C415 1.429 . S
C431 C427 1.429 . S
C431 C432 1.523 . S
C432 C416 1.368 . S
C432 C428 1.368 . S
C432 C431 1.523 . S
H433 C408 0.950 . S
H434 C410 0.950 . S
H435 C411 0.949 . S
H436 C413 0.950 . S
H437 C415 0.950 . S
C438 C439 1.349 . S
C438 C440 1.327 . S
C438 H463 0.950 . S
C439 C438 1.349 . S
C439 C455 1.349 . S
C440 C438 1.327 . S
C440 C459 1.429 . S
C440 H464 0.950 . S
C441 C458 1.574 1_556 S
C441 C460 1.368 . S
C441 H465 0.949 . S
H442 C446 0.949 . S
C443 C444 1.349 . S
C443 C445 1.327 . S
C443 H466 0.950 . S
C444 C443 1.349 . S
C444 C456 1.349 . S
C445 C443 1.327 . S
C445 C461 1.429 . S
C445 H467 0.950 . S
C446 H442 0.949 . S
C446 C454 1.574 1_554 S
C446 C462 1.368 . S
H447 C455 0.950 . S
H448 C453 0.950 . S
H449 C454 0.949 . S
H450 C456 0.950 . S
H451 C457 0.950 . S
H452 C458 0.949 . S
C453 H448 0.950 . S
C453 C455 1.327 . S
C453 C459 1.429 . S
C454 C446 1.574 1_556 S
C454 H449 0.949 . S
C454 C460 1.368 1_455 S
C455 C439 1.349 . S
C455 H447 0.950 . S
C455 C453 1.327 . S
C456 C444 1.349 . S
C456 H450 0.950 . S
C456 C457 1.327 . S
C457 H451 0.950 . S
C457 C456 1.327 . S
C457 C461 1.429 . S
C458 C441 1.574 1_554 S
C458 H452 0.949 . S
C458 C462 1.368 1_655 S
C459 C440 1.429 . S
C459 C453 1.429 . S
C459 C460 1.523 . S
C460 C441 1.368 . S
C460 C454 1.368 1_655 S
C460 C459 1.523 . S
C461 C445 1.429 . S
C461 C457 1.429 . S
C461 C462 1.523 . S
C462 C446 1.368 . S
C462 C458 1.368 1_455 S
C462 C461 1.523 . S
H463 C438 0.950 . S
H464 C440 0.950 . S
H465 C441 0.949 . S
H466 C443 0.950 . S
H467 C445 0.950 . S
C468 C469 1.349 . S
C468 C470 1.327 . S
C468 H493 0.950 . S
C469 C468 1.349 . S
C469 C485 1.349 . S
C470 C468 1.327 . S
C470 C489 1.429 . S
C470 H494 0.950 . S
C471 C488 1.574 . S
C471 C490 1.368 . S
C471 H495 0.949 . S
H472 C476 0.949 . S
C473 C474 1.349 . S
C473 C475 1.327 . S
C473 H496 0.950 . S
C474 C473 1.349 . S
C474 C486 1.349 . S
C475 C473 1.327 . S
C475 C491 1.429 . S
C475 H497 0.950 . S
C476 H472 0.949 . S
C476 C484 1.574 . S
C476 C492 1.368 . S
H477 C485 0.950 . S
H478 C483 0.950 . S
H479 C484 0.949 . S
H480 C486 0.950 . S
H481 C487 0.950 . S
H482 C488 0.949 . S
C483 H478 0.950 . S
C483 C485 1.327 . S
C483 C489 1.429 . S
C484 C476 1.574 . S
C484 H479 0.949 . S
C484 C490 1.368 . S
C485 C469 1.349 . S
C485 H477 0.950 . S
C485 C483 1.327 . S
C486 C474 1.349 . S
C486 H480 0.950 . S
C486 C487 1.327 . S
C487 H481 0.950 . S
C487 C486 1.327 . S
C487 C491 1.429 . S
C488 C471 1.574 . S
C488 H482 0.949 . S
C488 C492 1.368 . S
C489 C470 1.429 . S
C489 C483 1.429 . S
C489 C490 1.523 . S
C490 C471 1.368 . S
C490 C484 1.368 . S
C490 C489 1.523 . S
C491 C475 1.429 . S
C491 C487 1.429 . S
C491 C492 1.523 . S
C492 C476 1.368 . S
C492 C488 1.368 . S
C492 C491 1.523 . S
H493 C468 0.950 . S
H494 C470 0.950 . S
H495 C471 0.949 . S
H496 C473 0.950 . S
H497 C475 0.950 . S
C498 C499 1.349 . S
C498 C500 1.327 . S
C498 H523 0.950 . S
C499 C498 1.349 . S
C499 C515 1.349 . S
C500 C498 1.327 . S
C500 C519 1.429 . S
C500 H524 0.950 . S
C501 C518 1.574 . S
C501 C520 1.368 . S
C501 H525 0.949 . S
H502 C506 0.949 . S
C503 C504 1.349 . S
C503 C505 1.327 . S
C503 H526 0.950 . S
C504 C503 1.349 . S
C504 C516 1.349 . S
C505 C503 1.327 . S
C505 C521 1.429 . S
C505 H527 0.950 . S
C506 H502 0.949 . S
C506 C514 1.574 . S
C506 C522 1.368 . S
H507 C515 0.950 . S
H508 C513 0.950 . S
H509 C514 0.949 . S
H510 C516 0.950 . S
H511 C517 0.950 . S
H512 C518 0.949 . S
C513 H508 0.950 . S
C513 C515 1.327 . S
C513 C519 1.429 . S
C514 C506 1.574 . S
C514 H509 0.949 . S
C514 C520 1.368 . S
C515 C499 1.349 . S
C515 H507 0.950 . S
C515 C513 1.327 . S
C516 C504 1.349 . S
C516 H510 0.950 . S
C516 C517 1.327 . S
C517 H511 0.950 . S
C517 C516 1.327 . S
C517 C521 1.429 . S
C518 C501 1.574 . S
C518 H512 0.949 . S
C518 C522 1.368 . S
C519 C500 1.429 . S
C519 C513 1.429 . S
C519 C520 1.523 . S
C520 C501 1.368 . S
C520 C514 1.368 . S
C520 C519 1.523 . S
C521 C505 1.429 . S
C521 C517 1.429 . S
C521 C522 1.523 . S
C522 C506 1.368 . S
C522 C518 1.368 . S
C522 C521 1.523 . S
H523 C498 0.950 . S
H524 C500 0.950 . S
H525 C501 0.949 . S
H526 C503 0.950 . S
H527 C505 0.950 . S
C528 C529 1.349 . S
C528 C530 1.327 . S
C528 H553 0.950 . S
C529 C528 1.349 . S
C529 C545 1.349 . S
C530 C528 1.327 . S
C530 C549 1.429 . S
C530 H554 0.950 . S
C531 C548 1.574 . S
C531 C550 1.368 . S
C531 H555 0.949 . S
H532 C536 0.949 . S
C533 C534 1.349 . S
C533 C535 1.327 . S
C533 H556 0.950 . S
C534 C533 1.349 . S
C534 C546 1.349 . S
C535 C533 1.327 . S
C535 C551 1.429 . S
C535 H557 0.950 . S
C536 H532 0.949 . S
C536 C544 1.574 . S
C536 C552 1.368 . S
H537 C545 0.950 . S
H538 C543 0.950 . S
H539 C544 0.949 . S
H540 C546 0.950 . S
H541 C547 0.950 . S
H542 C548 0.949 . S
C543 H538 0.950 . S
C543 C545 1.327 . S
C543 C549 1.429 . S
C544 C536 1.574 . S
C544 H539 0.949 . S
C544 C550 1.368 . S
C545 C529 1.349 . S
C545 H537 0.950 . S
C545 C543 1.327 . S
C546 C534 1.349 . S
C546 H540 0.950 . S
C546 C547 1.327 . S
C547 H541 0.950 . S
C547 C546 1.327 . S
C547 C551 1.429 . S
C548 C531 1.574 . S
C548 H542 0.949 . S
C548 C552 1.368 . S
C549 C530 1.429 . S
C549 C543 1.429 . S
C549 C550 1.523 . S
C550 C531 1.368 . S
C550 C544 1.368 . S
C550 C549 1.523 . S
C551 C535 1.429 . S
C551 C547 1.429 . S
C551 C552 1.523 . S
C552 C536 1.368 . S
C552 C548 1.368 . S
C552 C551 1.523 . S
H553 C528 0.950 . S
H554 C530 0.950 . S
H555 C531 0.949 . S
H556 C533 0.950 . S
H557 C535 0.950 . S
C558 C559 1.349 . S
C558 C560 1.327 . S
C558 H583 0.950 . S
C559 C558 1.349 . S
C559 C575 1.349 . S
C560 C558 1.327 . S
C560 C579 1.429 . S
C560 H584 0.950 . S
C561 C578 1.574 . S
C561 C580 1.368 . S
C561 H585 0.949 . S
H562 C566 0.949 . S
C563 C564 1.349 . S
C563 C565 1.327 . S
C563 H586 0.950 . S
C564 C563 1.349 . S
C564 C576 1.349 . S
C565 C563 1.327 . S
C565 C581 1.429 . S
C565 H587 0.950 1_554 S
C566 H562 0.949 . S
C566 C574 1.574 . S
C566 C582 1.368 . S
H567 C575 0.950 . S
H568 C573 0.950 . S
H569 C574 0.949 . S
H570 C576 0.950 . S
H571 C577 0.950 . S
H572 C578 0.949 . S
C573 H568 0.950 . S
C573 C575 1.327 . S
C573 C579 1.429 . S
C574 C566 1.574 . S
C574 H569 0.949 . S
C574 C580 1.368 1_554 S
C575 C559 1.349 . S
C575 H567 0.950 . S
C575 C573 1.327 . S
C576 C564 1.349 . S
C576 H570 0.950 . S
C576 C577 1.327 . S
C577 H571 0.950 . S
C577 C576 1.327 . S
C577 C581 1.429 . S
C578 C561 1.574 . S
C578 H572 0.949 . S
C578 C582 1.368 1_556 S
C579 C560 1.429 . S
C579 C573 1.429 . S
C579 C580 1.523 . S
C580 C561 1.368 . S
C580 C574 1.368 1_556 S
C580 C579 1.523 . S
C581 C565 1.429 . S
C581 C577 1.429 . S
C581 C582 1.523 . S
C582 C566 1.368 . S
C582 C578 1.368 1_554 S
C582 C581 1.523 . S
H583 C558 0.950 . S
H584 C560 0.950 . S
H585 C561 0.949 . S
H586 C563 0.950 . S
H587 C565 0.950 1_556 S
C588 C589 1.349 . S
C588 C590 1.327 . S
C588 H613 0.950 . S
C589 C588 1.349 . S
C589 C605 1.349 . S
C590 C588 1.327 . S
C590 C609 1.429 . S
C590 H614 0.950 1_565 S
C591 C608 1.574 . S
C591 C610 1.368 . S
C591 H615 0.949 . S
H592 C596 0.949 . S
C593 C594 1.349 . S
C593 C595 1.327 . S
C593 H616 0.950 . S
C594 C593 1.349 . S
C594 C606 1.349 . S
C595 C593 1.327 . S
C595 C611 1.429 . S
C595 H617 0.950 . S
C596 H592 0.949 . S
C596 C604 1.574 . S
C596 C612 1.368 . S
H597 C605 0.950 . S
H598 C603 0.950 . S
H599 C604 0.949 . S
H600 C606 0.950 . S
H601 C607 0.950 . S
H602 C608 0.949 . S
C603 H598 0.950 . S
C603 C605 1.327 . S
C603 C609 1.429 . S
C604 C596 1.574 . S
C604 H599 0.949 . S
C604 C610 1.368 1_545 S
C605 C589 1.349 . S
C605 H597 0.950 . S
C605 C603 1.327 . S
C606 C594 1.349 . S
C606 H600 0.950 . S
C606 C607 1.327 . S
C607 H601 0.950 . S
C607 C606 1.327 . S
C607 C611 1.429 . S
C608 C591 1.574 . S
C608 H602 0.949 . S
C608 C612 1.368 1_565 S
C609 C590 1.429 . S
C609 C603 1.429 . S
C609 C610 1.523 . S
C610 C591 1.368 . S
C610 C604 1.368 1_565 S
C610 C609 1.523 . S
C611 C595 1.429 . S
C611 C607 1.429 . S
C611 C612 1.523 . S
C612 C596 1.368 . S
C612 C608 1.368 1_545 S
C612 C611 1.523 . S
H613 C588 0.950 . S
H614 C590 0.950 1_545 S
H615 C591 0.949 . S
H616 C593 0.950 . S
H617 C595 0.950 . S
C618 C619 1.349 . S
C618 C620 1.327 . S
C618 H643 0.950 . S
C619 C618 1.349 . S
C619 C635 1.349 . S
C620 C618 1.327 . S
C620 C639 1.429 . S
C620 H644 0.950 1_565 S
C621 C638 1.574 1_655 S
C621 C640 1.368 . S
C621 H645 0.949 . S
H622 C626 0.949 . S
C623 C624 1.349 . S
C623 C625 1.327 . S
C623 H646 0.950 . S
C624 C623 1.349 . S
C624 C636 1.349 . S
C625 C623 1.327 . S
C625 C641 1.429 . S
C625 H647 0.950 . S
C626 H622 0.949 . S
C626 C634 1.574 1_455 S
C626 C642 1.368 . S
H627 C635 0.950 . S
H628 C633 0.950 . S
H629 C634 0.949 . S
H630 C636 0.950 . S
H631 C637 0.950 . S
H632 C638 0.949 . S
C633 H628 0.950 . S
C633 C635 1.327 . S
C633 C639 1.429 . S
C634 C626 1.574 1_655 S
C634 H629 0.949 . S
C634 C640 1.368 1_545 S
C635 C619 1.349 . S
C635 H627 0.950 . S
C635 C633 1.327 . S
C636 C624 1.349 . S
C636 H630 0.950 . S
C636 C637 1.327 . S
C637 H631 0.950 . S
C637 C636 1.327 . S
C637 C641 1.429 . S
C638 C621 1.574 1_455 S
C638 H632 0.949 . S
C638 C642 1.368 1_565 S
C639 C620 1.429 . S
C639 C633 1.429 . S
C639 C640 1.523 . S
C640 C621 1.368 . S
C640 C634 1.368 1_565 S
C640 C639 1.523 . S
C641 C625 1.429 . S
C641 C637 1.429 . S
C641 C642 1.523 . S
C642 C626 1.368 . S
C642 C638 1.368 1_545 S
C642 C641 1.523 . S
H643 C618 0.950 . S
H644 C620 0.950 1_545 S
H645 C621 0.949 . S
H646 C623 0.950 . S
H647 C625 0.950 . S
C648 C649 1.349 . S
C648 C650 1.327 . S
C648 H673 0.950 . S
C649 C648 1.349 . S
C649 C665 1.349 . S
C650 C648 1.327 . S
C650 C669 1.429 . S
C650 H674 0.950 . S
C651 C668 1.574 1_655 S
C651 C670 1.368 . S
C651 H675 0.949 . S
H652 C656 0.949 . S
C653 C654 1.349 . S
C653 C655 1.327 . S
C653 H676 0.950 . S
C654 C653 1.349 . S
C654 C666 1.349 . S
C655 C653 1.327 . S
C655 C671 1.429 . S
C655 H677 0.950 . S
C656 H652 0.949 . S
C656 C664 1.574 1_455 S
C656 C672 1.368 . S
H657 C665 0.950 . S
H658 C663 0.950 . S
H659 C664 0.949 . S
H660 C666 0.950 . S
H661 C667 0.950 . S
H662 C668 0.949 . S
C663 H658 0.950 . S
C663 C665 1.327 . S
C663 C669 1.429 . S
C664 C656 1.574 1_655 S
C664 H659 0.949 . S
C664 C670 1.368 . S
C665 C649 1.349 . S
C665 H657 0.950 . S
C665 C663 1.327 . S
C666 C654 1.349 . S
C666 H660 0.950 . S
C666 C667 1.327 . S
C667 H661 0.950 . S
C667 C666 1.327 . S
C667 C671 1.429 . S
C668 C651 1.574 1_455 S
C668 H662 0.949 . S
C668 C672 1.368 . S
C669 C650 1.429 . S
C669 C663 1.429 . S
C669 C670 1.523 . S
C670 C651 1.368 . S
C670 C664 1.368 . S
C670 C669 1.523 . S
C671 C655 1.429 . S
C671 C667 1.429 . S
C671 C672 1.523 . S
C672 C656 1.368 . S
C672 C668 1.368 . S
C672 C671 1.523 . S
H673 C648 0.950 . S
H674 C650 0.950 . S
H675 C651 0.949 . S
H676 C653 0.950 . S
H677 C655 0.950 . S
C678 C679 1.349 . S
C678 C680 1.327 . S
C678 H703 0.950 . S
C679 C678 1.349 . S
C679 C695 1.349 . S
C680 C678 1.327 . S
C680 C699 1.429 . S
C680 H704 0.950 . S
C681 C698 1.574 . S
C681 C700 1.368 . S
C681 H705 0.949 . S
H682 C686 0.949 . S
C683 C684 1.349 . S
C683 C685 1.327 . S
C683 H706 0.950 . S
C684 C683 1.349 . S
C684 C696 1.349 . S
C685 C683 1.327 . S
C685 C701 1.429 . S
C685 H707 0.950 . S
C686 H682 0.949 . S
C686 C694 1.574 . S
C686 C702 1.368 . S
H687 C695 0.950 . S
H688 C693 0.950 . S
H689 C694 0.949 . S
H690 C696 0.950 . S
H691 C697 0.950 . S
H692 C698 0.949 . S
C693 H688 0.950 . S
C693 C695 1.327 . S
C693 C699 1.429 . S
C694 C686 1.574 . S
C694 H689 0.949 . S
C694 C700 1.368 . S
C695 C679 1.349 . S
C695 H687 0.950 . S
C695 C693 1.327 . S
C696 C684 1.349 . S
C696 H690 0.950 . S
C696 C697 1.327 . S
C697 H691 0.950 . S
C697 C696 1.327 . S
C697 C701 1.429 . S
C698 C681 1.574 . S
C698 H692 0.949 . S
C698 C702 1.368 . S
C699 C680 1.429 . S
C699 C693 1.429 . S
C699 C700 1.523 . S
C700 C681 1.368 . S
C700 C694 1.368 . S
C700 C699 1.523 . S
C701 C685 1.429 . S
C701 C697 1.429 . S
C701 C702 1.523 . S
C702 C686 1.368 . S
C702 C698 1.368 . S
C702 C701 1.523 . S
H703 C678 0.950 . S
H704 C680 0.950 . S
H705 C681 0.949 . S
H706 C683 0.950 . S
H707 C685 0.950 . S
C708 C709 1.349 . S
C708 C710 1.327 . S
C708 H733 0.950 . S
C709 C708 1.349 . S
C709 C725 1.349 . S
C710 C708 1.327 . S
C710 C729 1.429 . S
C710 H734 0.950 . S
C711 C728 1.574 . S
C711 C730 1.368 1_556 S
C711 H735 0.949 . S
H712 C716 0.949 . S
C713 C714 1.349 . S
C713 C715 1.327 . S
C713 H736 0.950 . S
C714 C713 1.349 . S
C714 C726 1.349 . S
C715 C713 1.327 . S
C715 C731 1.429 . S
C715 H737 0.950 . S
C716 H712 0.949 . S
C716 C724 1.574 . S
C716 C732 1.368 1_554 S
H717 C725 0.950 . S
H718 C723 0.950 1_556 S
H719 C724 0.949 . S
H720 C726 0.950 . S
H721 C727 0.950 . S
H722 C728 0.949 . S
C723 H718 0.950 1_554 S
C723 C725 1.327 . S
C723 C729 1.429 . S
C724 C716 1.574 . S
C724 H719 0.949 . S
C724 C730 1.368 . S
C725 C709 1.349 . S
C725 H717 0.950 . S
C725 C723 1.327 . S
C726 C714 1.349 . S
C726 H720 0.950 . S
C726 C727 1.327 . S
C727 H721 0.950 . S
C727 C726 1.327 . S
C727 C731 1.429 . S
C728 C711 1.574 . S
C728 H722 0.949 . S
C728 C732 1.368 . S
C729 C710 1.429 . S
C729 C723 1.429 . S
C729 C730 1.523 . S
C730 C711 1.368 1_554 S
C730 C724 1.368 . S
C730 C729 1.523 . S
C731 C715 1.429 . S
C731 C727 1.429 . S
C731 C732 1.523 . S
C732 C716 1.368 1_556 S
C732 C728 1.368 . S
C732 C731 1.523 . S
H733 C708 0.950 . S
H734 C710 0.950 . S
H735 C711 0.949 . S
H736 C713 0.950 . S
H737 C715 0.950 . S
C738 C739 1.349 . S
C738 C740 1.327 . S
C738 H763 0.950 . S
C739 C738 1.349 . S
C739 C755 1.349 . S
C740 C738 1.327 . S
C740 C759 1.429 . S
C740 H764 0.950 . S
C741 C758 1.574 . S
C741 C760 1.368 . S
C741 H765 0.949 . S
H742 C746 0.949 . S
C743 C744 1.349 . S
C743 C745 1.327 . S
C743 H766 0.950 . S
C744 C743 1.349 . S
C744 C756 1.349 . S
C745 C743 1.327 . S
C745 C761 1.429 . S
C745 H767 0.950 . S
C746 H742 0.949 . S
C746 C754 1.574 . S
C746 C762 1.368 . S
H747 C755 0.950 . S
H748 C753 0.950 . S
H749 C754 0.949 . S
H750 C756 0.950 . S
H751 C757 0.950 . S
H752 C758 0.949 . S
C753 H748 0.950 . S
C753 C755 1.327 . S
C753 C759 1.429 . S
C754 C746 1.574 . S
C754 H749 0.949 . S
C754 C760 1.368 . S
C755 C739 1.349 . S
C755 H747 0.950 . S
C755 C753 1.327 . S
C756 C744 1.349 . S
C756 H750 0.950 . S
C756 C757 1.327 . S
C757 H751 0.950 . S
C757 C756 1.327 . S
C757 C761 1.429 . S
C758 C741 1.574 . S
C758 H752 0.949 . S
C758 C762 1.368 . S
C759 C740 1.429 . S
C759 C753 1.429 . S
C759 C760 1.523 . S
C760 C741 1.368 . S
C760 C754 1.368 . S
C760 C759 1.523 . S
C761 C745 1.429 . S
C761 C757 1.429 . S
C761 C762 1.523 . S
C762 C746 1.368 . S
C762 C758 1.368 . S
C762 C761 1.523 . S
H763 C738 0.950 . S
H764 C740 0.950 . S
H765 C741 0.949 . S
H766 C743 0.950 . S
H767 C745 0.950 . S
C289 C194 1.455 . S
C294 C4 1.524 . S
C319 C266 1.455 . S
C324 C40 1.524 . S
C349 C74 1.514 . S
C354 C218 1.514 . S
C379 C111 1.530 . S
C384 C147 1.530 . S
C409 C220 1.524 . S
C414 C14 1.455 . S
C439 C38 1.514 . S
C444 C146 1.514 . S
C469 C183 1.530 . S
C474 C75 1.530 . S
C499 C122 1.455 . S
C504 C256 1.524 . S
C529 C158 1.455 . S
C534 C184 1.524 . S
C559 C50 1.455 . S
C564 C76 1.524 . S
C589 C112 1.524 . S
C594 C86 1.455 . S
C619 C110 1.514 . S
C624 C2 1.514 . S
C649 C39 1.530 . S
C654 C3 1.530 . S
C679 C255 1.530 . S
C684 C219 1.530 . S
C709 C148 1.524 . S
C714 C230 1.455 . S
C739 C182 1.514 . S
C744 C254 1.514 . S
