# Generated by pormake.
# Topology lcy-e, (6)-cn, num edge types: 1
# Building blocks:
#     Node 0, Type 0, BuildingBlock: FUNLAD_clean_sbu_0, # of connection points: 6
#     Node 1, Type 0, BuildingBlock: FUNLAD_clean_sbu_0, # of connection points: 6
#     Node 2, Type 0, BuildingBlock: FUNLAD_clean_sbu_0, # of connection points: 6
#     Node 3, Type 0, BuildingBlock: FUNLAD_clean_sbu_0, # of connection points: 6
#     Node 4, Type 0, BuildingBlock: FUNLAD_clean_sbu_0, # of connection points: 6
#     Node 5, Type 0, BuildingBlock: FUNLAD_clean_sbu_0, # of connection points: 6
#     Node 6, Type 0, BuildingBlock: FUNLAD_clean_sbu_0, # of connection points: 6
#     Node 7, Type 0, BuildingBlock: FUNLAD_clean_sbu_0, # of connection points: 6
#     Node 8, Type 0, BuildingBlock: FUNLAD_clean_sbu_0, # of connection points: 6
#     Node 9, Type 0, BuildingBlock: FUNLAD_clean_sbu_0, # of connection points: 6
#     Node 10, Type 0, BuildingBlock: FUNLAD_clean_sbu_0, # of connection points: 6
#     Node 11, Type 0, BuildingBlock: FUNLAD_clean_sbu_0, # of connection points: 6
#     Edge 12, Type (0, 0), BuildingBlock: KIFKEQ_clean_linker_1, # of connection points: 2
#     Edge 13, Type (0, 0), BuildingBlock: KIFKEQ_clean_linker_1, # of connection points: 2
#     Edge 14, Type (0, 0), BuildingBlock: KIFKEQ_clean_linker_1, # of connection points: 2
#     Edge 15, Type (0, 0), BuildingBlock: KIFKEQ_clean_linker_1, # of connection points: 2
#     Edge 16, Type (0, 0), BuildingBlock: KIFKEQ_clean_linker_1, # of connection points: 2
#     Edge 17, Type (0, 0), BuildingBlock: KIFKEQ_clean_linker_1, # of connection points: 2
#     Edge 18, Type (0, 0), BuildingBlock: KIFKEQ_clean_linker_1, # of connection points: 2
#     Edge 19, Type (0, 0), BuildingBlock: KIFKEQ_clean_linker_1, # of connection points: 2
#     Edge 20, Type (0, 0), BuildingBlock: KIFKEQ_clean_linker_1, # of connection points: 2
#     Edge 21, Type (0, 0), BuildingBlock: KIFKEQ_clean_linker_1, # of connection points: 2
#     Edge 22, Type (0, 0), BuildingBlock: KIFKEQ_clean_linker_1, # of connection points: 2
#     Edge 23, Type (0, 0), BuildingBlock: KIFKEQ_clean_linker_1, # of connection points: 2
#     Edge 24, Type (0, 0), BuildingBlock: KIFKEQ_clean_linker_1, # of connection points: 2
#     Edge 25, Type (0, 0), BuildingBlock: KIFKEQ_clean_linker_1, # of connection points: 2
#     Edge 26, Type (0, 0), BuildingBlock: KIFKEQ_clean_linker_1, # of connection points: 2
#     Edge 27, Type (0, 0), BuildingBlock: KIFKEQ_clean_linker_1, # of connection points: 2
#     Edge 28, Type (0, 0), BuildingBlock: KIFKEQ_clean_linker_1, # of connection points: 2
#     Edge 29, Type (0, 0), BuildingBlock: KIFKEQ_clean_linker_1, # of connection points: 2
#     Edge 30, Type (0, 0), BuildingBlock: KIFKEQ_clean_linker_1, # of connection points: 2
#     Edge 31, Type (0, 0), BuildingBlock: KIFKEQ_clean_linker_1, # of connection points: 2
#     Edge 32, Type (0, 0), BuildingBlock: KIFKEQ_clean_linker_1, # of connection points: 2
#     Edge 33, Type (0, 0), BuildingBlock: KIFKEQ_clean_linker_1, # of connection points: 2
#     Edge 34, Type (0, 0), BuildingBlock: KIFKEQ_clean_linker_1, # of connection points: 2
#     Edge 35, Type (0, 0), BuildingBlock: KIFKEQ_clean_linker_1, # of connection points: 2
#     Edge 36, Type (0, 0), BuildingBlock: KIFKEQ_clean_linker_1, # of connection points: 2
#     Edge 37, Type (0, 0), BuildingBlock: KIFKEQ_clean_linker_1, # of connection points: 2
#     Edge 38, Type (0, 0), BuildingBlock: KIFKEQ_clean_linker_1, # of connection points: 2
#     Edge 39, Type (0, 0), BuildingBlock: KIFKEQ_clean_linker_1, # of connection points: 2
#     Edge 40, Type (0, 0), BuildingBlock: KIFKEQ_clean_linker_1, # of connection points: 2
#     Edge 41, Type (0, 0), BuildingBlock: KIFKEQ_clean_linker_1, # of connection points: 2
#     Edge 42, Type (0, 0), BuildingBlock: KIFKEQ_clean_linker_1, # of connection points: 2
#     Edge 43, Type (0, 0), BuildingBlock: KIFKEQ_clean_linker_1, # of connection points: 2
#     Edge 44, Type (0, 0), BuildingBlock: KIFKEQ_clean_linker_1, # of connection points: 2
#     Edge 45, Type (0, 0), BuildingBlock: KIFKEQ_clean_linker_1, # of connection points: 2
#     Edge 46, Type (0, 0), BuildingBlock: KIFKEQ_clean_linker_1, # of connection points: 2
#     Edge 47, Type (0, 0), BuildingBlock: KIFKEQ_clean_linker_1, # of connection points: 2
# Relax obj value: 0.593
# Max RMSD: 0.358
# Mean RMSD: 0.291
data_MOF--net-lcy-e--node1-FUNLAD_clean_sbu_0--edge1-KIFKEQ_clean_linker_1
_symmetry_space_group_name_H-M    P1
_symmetry_Int_Tables_number       1
_symmetry_cell_setting            triclinic
loop_
_symmetry_equiv_pos_as_xyz
'x, y, z'
_cell_length_a     41.180396
_cell_length_b     38.659801
_cell_length_c     38.049952
_cell_angle_alpha  92.851888
_cell_angle_beta   87.382013
_cell_angle_gamma 95.529851
loop_
_atom_site_label
_atom_site_type_symbol
_atom_site_fract_x
_atom_site_fract_y
_atom_site_fract_z
_atom_type_partial_charge
C0 C 0.13009 0.21122 0.52682 0.0
N1 N 0.0764 0.21842 0.43616 0.0
C2 C 0.08036 0.18514 0.42472 0.0
C3 C 0.05753 0.16693 0.40301 0.0
C4 C 0.03028 0.18303 0.39355 0.0
C5 C 0.02641 0.21702 0.40629 0.0
C6 C 0.05008 0.23447 0.42736 0.0
Zn7 Zn 0.11141 0.24729 0.46371 0.0
C8 C 0.08332 0.29124 0.52068 0.0
N9 N 0.18576 0.31187 0.51723 0.0
C10 C 0.21751 0.30553 0.52026 0.0
C11 C 0.17625 0.34438 0.52422 0.0
C12 C 0.19859 0.37184 0.53432 0.0
C13 C 0.23154 0.36652 0.53652 0.0
C14 C 0.24107 0.3328 0.52967 0.0
Zn15 Zn 0.15109 0.27792 0.49271 0.0
O16 O 0.11113 0.20953 0.50119 0.0
C17 C 0.17898 0.23011 0.43998 0.0
O18 O 0.15094 0.23773 0.5309 0.0
H19 H 0.15162 0.34991 0.51986 0.0
H20 H 0.10144 0.17288 0.43201 0.0
H21 H 0.22493 0.27982 0.51378 0.0
O22 O 0.14884 0.2229 0.43419 0.0
O23 O 0.18747 0.25405 0.46271 0.0
H24 H 0.0477 0.26116 0.43615 0.0
O25 O 0.15093 0.31635 0.45308 0.0
O26 O 0.11233 0.28508 0.42526 0.0
O27 O 0.11355 0.29983 0.52412 0.0
O28 O 0.07436 0.27021 0.49553 0.0
C29 C 0.13259 0.31188 0.42692 0.0
H30 H 0.06095 0.14046 0.39394 0.0
H31 H 0.00565 0.23015 0.39941 0.0
H32 H 0.19034 0.39757 0.53849 0.0
H33 H 0.2664 0.32779 0.53093 0.0
C34 C 0.09237 0.96399 0.76454 0.0
N35 N 0.14393 0.90711 0.68684 0.0
C36 C 0.17294 0.92576 0.69361 0.0
C37 C 0.20238 0.91057 0.68696 0.0
C38 C 0.20164 0.87634 0.67254 0.0
C39 C 0.17144 0.85795 0.6659 0.0
C40 C 0.14288 0.87367 0.67363 0.0
Zn41 Zn 0.09897 0.92543 0.69556 0.0
C42 C 0.05378 0.87389 0.73712 0.0
N43 N 0.0023 0.95598 0.71233 0.0
C44 C 0.99482 0.9891 0.72025 0.0
C45 C 0.97867 0.93024 0.70372 0.0
C46 C 0.94643 0.93736 0.70169 0.0
C47 C 0.93804 0.97137 0.70848 0.0
C48 C 0.96251 0.9974 0.71868 0.0
Zn49 Zn 0.04902 0.94188 0.7065 0.0
O50 O 0.11247 0.9505 0.74285 0.0
C51 C 0.0935 0.99534 0.66812 0.0
O52 O 0.06258 0.96417 0.75684 0.0
H53 H 0.98492 0.90414 0.69709 0.0
H54 H 0.17324 0.95222 0.70436 0.0
H55 H 0.01399 0.00925 0.72667 0.0
O56 O 0.1139 0.97252 0.66854 0.0
O57 O 0.06513 0.98897 0.68239 0.0
H58 H 0.1197 0.85882 0.66927 0.0
O59 O 0.03641 0.91897 0.6566 0.0
O60 O 0.08486 0.90102 0.64697 0.0
O61 O 0.03371 0.89548 0.73107 0.0
O62 O 0.08313 0.8791 0.72511 0.0
C63 C 0.05636 0.90324 0.6368 0.0
H64 H 0.22536 0.92533 0.69281 0.0
H65 H 0.16987 0.83121 0.65564 0.0
H66 H 0.92823 0.9164 0.69444 0.0
H67 H 0.95692 0.02398 0.72416 0.0
C68 C 0.34918 0.78723 0.94205 0.0
N69 N 0.26919 0.84817 0.95929 0.0
C70 C 0.27448 0.8637 0.92797 0.0
C71 C 0.2502 0.88142 0.91454 0.0
C72 C 0.22012 0.88249 0.9332 0.0
C73 C 0.21443 0.86425 0.96408 0.0
C74 C 0.23962 0.84742 0.97696 0.0
Zn75 Zn 0.30774 0.83373 0.98491 0.0
C76 C 0.292 0.76752 0.02257 0.0
N77 N 0.38735 0.80847 0.0422 0.0
C78 C 0.41848 0.8132 0.02855 0.0
C79 C 0.38102 0.80234 0.07683 0.0
C80 C 0.40647 0.80301 0.09971 0.0
C81 C 0.43886 0.80959 0.0868 0.0
C82 C 0.44478 0.81375 0.05051 0.0
Zn83 Zn 0.34933 0.81936 0.01398 0.0
O84 O 0.32297 0.80217 0.94118 0.0
C85 C 0.36811 0.88083 0.97175 0.0
O86 O 0.36517 0.78962 0.97 0.0
H87 H 0.35609 0.79892 0.08717 0.0
H88 H 0.29809 0.86393 0.91429 0.0
H89 H 0.42291 0.81819 0.00094 0.0
O90 O 0.33846 0.87595 0.96335 0.0
O91 O 0.37804 0.86231 0.99485 0.0
H92 H 0.23612 0.83543 0.0021 0.0
O93 O 0.3338 0.85017 0.05753 0.0
O94 O 0.29405 0.86717 0.02864 0.0
O95 O 0.32131 0.775 0.03125 0.0
O96 O 0.2783 0.78877 0.00492 0.0
C97 C 0.31042 0.86901 0.05622 0.0
H98 H 0.25511 0.8949 0.89029 0.0
H99 H 0.1914 0.86457 0.97899 0.0
H100 H 0.40065 0.79998 0.12749 0.0
H101 H 0.4694 0.8181 0.03931 0.0
C102 C 0.35618 0.11301 0.3135 0.0
N103 N 0.37993 0.1761 0.22861 0.0
C104 C 0.34787 0.1716 0.22065 0.0
C105 C 0.33368 0.19723 0.20382 0.0
C106 C 0.35242 0.22823 0.19532 0.0
C107 C 0.38544 0.23237 0.20419 0.0
C108 C 0.39878 0.2058 0.2208 0.0
Zn109 Zn 0.39889 0.13541 0.25055 0.0
C110 C 0.44615 0.15574 0.30668 0.0
N111 N 0.43274 0.04741 0.2944 0.0
C112 C 0.43656 0.0207 0.27032 0.0
C113 C 0.4496 0.05042 0.32453 0.0
C114 C 0.47449 0.02899 0.32887 0.0
C115 C 0.48164 0.00415 0.30207 0.0
C116 C 0.4607 0.99843 0.27389 0.0
Zn117 Zn 0.41297 0.08965 0.2763 0.0
O118 O 0.3596 0.13166 0.28684 0.0
C119 C 0.36598 0.06745 0.22197 0.0
O120 O 0.37752 0.09238 0.3192 0.0
H121 H 0.44624 0.07169 0.34348 0.0
H122 H 0.33324 0.14782 0.22699 0.0
H123 H 0.42351 0.01879 0.24621 0.0
O124 O 0.37164 0.09925 0.21443 0.0
O125 O 0.37905 0.05689 0.24843 0.0
H126 H 0.42424 0.20882 0.22727 0.0
O127 O 0.44768 0.08794 0.23242 0.0
O128 O 0.43818 0.1386 0.21388 0.0
O129 O 0.44649 0.12297 0.3045 0.0
O130 O 0.42672 0.17005 0.28796 0.0
C131 C 0.45422 0.11214 0.21102 0.0
H132 H 0.30833 0.19245 0.19707 0.0
H133 H 0.40077 0.25599 0.19868 0.0
H134 H 0.48996 0.03426 0.35113 0.0
H135 H 0.46489 0.97905 0.25305 0.0
C136 C 0.65633 0.30655 0.5011 0.0
N137 N 0.58846 0.32453 0.58468 0.0
C138 C 0.60054 0.35843 0.58877 0.0
C139 C 0.58046 0.38339 0.60259 0.0
C140 C 0.54764 0.37335 0.61221 0.0
C141 C 0.53586 0.33822 0.60742 0.0
C142 C 0.55676 0.31418 0.59362 0.0
Zn143 Zn 0.61777 0.28717 0.56654 0.0
C144 C 0.58372 0.23792 0.51276 0.0
N145 N 0.67701 0.20697 0.52909 0.0
C146 C 0.70966 0.21414 0.52251 0.0
C147 C 0.66287 0.17368 0.52735 0.0
C148 C 0.68169 0.14604 0.51904 0.0
C149 C 0.71562 0.15246 0.51287 0.0
C150 C 0.72951 0.18719 0.51447 0.0
Zn151 Zn 0.64842 0.24575 0.54558 0.0
O152 O 0.63691 0.31785 0.52499 0.0
C153 C 0.68382 0.29727 0.59606 0.0
O154 O 0.66548 0.27616 0.50245 0.0
H155 H 0.63693 0.16844 0.53293 0.0
H156 H 0.6258 0.3661 0.58147 0.0
H157 H 0.72049 0.24077 0.52417 0.0
O158 O 0.65627 0.30973 0.59842 0.0
O159 O 0.68717 0.27024 0.57625 0.0
H160 H 0.5477 0.28706 0.59038 0.0
O161 O 0.63061 0.2158 0.58903 0.0
O162 O 0.59945 0.25595 0.60875 0.0
O163 O 0.60976 0.22293 0.51424 0.0
O164 O 0.58006 0.2649 0.53257 0.0
C165 C 0.61002 0.22654 0.61193 0.0
H166 H 0.59043 0.4103 0.60538 0.0
H167 H 0.51087 0.32927 0.61482 0.0
H168 H 0.66964 0.11989 0.51735 0.0
H169 H 0.75554 0.19352 0.51026 0.0
C170 C 0.87504 0.38901 0.73818 0.0
N171 N 0.88208 0.32192 0.81848 0.0
C172 C 0.8492 0.32186 0.82376 0.0
C173 C 0.8302 0.2912 0.83155 0.0
C174 C 0.84517 0.26029 0.83389 0.0
C175 C 0.87927 0.26134 0.82938 0.0
C176 C 0.89737 0.29265 0.82168 0.0
Zn177 Zn 0.90804 0.36564 0.80141 0.0
C178 C 0.95789 0.34933 0.74359 0.0
N179 N 0.96023 0.45594 0.76218 0.0
C180 C 0.96657 0.4801 0.78889 0.0
C181 C 0.97867 0.4566 0.73155 0.0
C182 C 0.00706 0.47944 0.72883 0.0
C183 C 0.01616 0.50145 0.75793 0.0
C184 C 0.99454 0.50322 0.78727 0.0
Zn185 Zn 0.93312 0.41152 0.77692 0.0
O186 O 0.87262 0.36985 0.76445 0.0
C187 C 0.88331 0.43011 0.83174 0.0
O188 O 0.9006 0.40999 0.73354 0.0
H189 H 0.9734 0.43708 0.71072 0.0
H190 H 0.83756 0.34538 0.82077 0.0
H191 H 0.95221 0.47895 0.81334 0.0
O192 O 0.88208 0.39819 0.839 0.0
O193 O 0.90146 0.44108 0.80618 0.0
H194 H 0.92356 0.29337 0.81735 0.0
O195 O 0.9649 0.41185 0.8211 0.0
O196 O 0.94299 0.36183 0.83946 0.0
O197 O 0.96428 0.38193 0.74693 0.0
O198 O 0.93452 0.33452 0.76216 0.0
C199 C 0.96417 0.38772 0.84277 0.0
H200 H 0.80393 0.29145 0.83433 0.0
H201 H 0.89175 0.23814 0.83133 0.0
H202 H 0.02327 0.47743 0.70573 0.0
H203 H 0.00068 0.52015 0.81003 0.0
C204 C 0.89312 0.65934 0.95276 0.0
N205 N 0.96247 0.68807 0.03012 0.0
C206 C 0.95682 0.65638 0.04438 0.0
C207 C 0.98065 0.64344 0.06375 0.0
C208 C 0.01099 0.66297 0.06821 0.0
C209 C 0.01638 0.69525 0.05237 0.0
C210 C 0.99166 0.70743 0.03361 0.0
Zn211 Zn 0.9251 0.70887 0.00671 0.0
C212 C 0.94687 0.74945 0.94341 0.0
N213 N 0.84595 0.75335 0.96148 0.0
C214 C 0.8147 0.73829 0.9599 0.0
C215 C 0.85363 0.78694 0.95262 0.0
C216 C 0.82972 0.80672 0.9418 0.0
C217 C 0.79724 0.79221 0.94052 0.0
C218 C 0.78975 0.75747 0.94965 0.0
Zn219 Zn 0.88288 0.72952 0.98244 0.0
O220 O 0.91619 0.66389 0.97414 0.0
C221 C 0.85928 0.68815 0.04272 0.0
O222 O 0.87516 0.68388 0.94886 0.0
H223 H 0.87828 0.79895 0.95497 0.0
H224 H 0.93347 0.64138 0.04148 0.0
H225 H 0.80893 0.71171 0.96739 0.0
O226 O 0.88973 0.68583 0.04558 0.0
O227 O 0.84997 0.70596 0.01865 0.0
H228 H 0.99564 0.73271 0.02236 0.0
O229 O 0.89041 0.77345 0.01809 0.0
O230 O 0.93278 0.75357 0.0401 0.0
O231 O 0.91642 0.7524 0.94515 0.0
O232 O 0.95891 0.73189 0.9663 0.0
C233 C 0.91298 0.77673 0.04003 0.0
H234 H 0.97487 0.61872 0.07583 0.0
H235 H 0.03942 0.71108 0.0544 0.0
H236 H 0.83644 0.83356 0.93551 0.0
H237 H 0.76495 0.74534 0.94886 0.0
C238 C 0.60663 0.62829 0.33482 0.0
N239 N 0.65657 0.54406 0.29664 0.0
C240 C 0.66691 0.54446 0.33009 0.0
C241 C 0.67493 0.51414 0.34423 0.0
C242 C 0.67231 0.48278 0.32393 0.0
C243 C 0.66132 0.48283 0.28949 0.0
C244 C 0.65367 0.51409 0.27619 0.0
Zn245 Zn 0.64656 0.59085 0.27949 0.0
C246 C 0.58283 0.58863 0.24367 0.0
N247 N 0.62623 0.69021 0.24854 0.0
C248 C 0.62616 0.71864 0.27114 0.0
C249 C 0.61959 0.69202 0.21407 0.0
C250 C 0.61147 0.72294 0.2013 0.0
C251 C 0.60965 0.7523 0.22428 0.0
C252 C 0.61762 0.75017 0.25953 0.0
Zn253 Zn 0.63509 0.643 0.26495 0.0
O254 O 0.62036 0.60058 0.32778 0.0
C255 C 0.69565 0.64749 0.30311 0.0
O256 O 0.6078 0.65128 0.31203 0.0
H257 H 0.61944 0.66908 0.19662 0.0
H258 H 0.66884 0.56841 0.34607 0.0
H259 H 0.63175 0.7166 0.29842 0.0
O260 O 0.69022 0.61462 0.30264 0.0
O261 O 0.67628 0.66551 0.28885 0.0
H262 H 0.64541 0.51444 0.24964 0.0
O263 O 0.66327 0.63473 0.21851 0.0
O264 O 0.67446 0.58259 0.23121 0.0
O265 O 0.59287 0.62058 0.24193 0.0
O266 O 0.6009 0.56822 0.25723 0.0
C267 C 0.6779 0.60781 0.21068 0.0
H268 H 0.68241 0.51517 0.37122 0.0
H269 H 0.65883 0.4591 0.27308 0.0
H270 H 0.60461 0.72311 0.17417 0.0
H271 H 0.61618 0.77221 0.27806 0.0
C272 C 0.17569 0.53989 0.1732 0.0
N273 N 0.14887 0.45222 0.10619 0.0
C274 C 0.12948 0.47529 0.09397 0.0
C275 C 0.10645 0.46474 0.06877 0.0
C276 C 0.10382 0.43031 0.05508 0.0
C277 C 0.12311 0.40663 0.0689 0.0
C278 C 0.14529 0.41807 0.09489 0.0
Zn279 Zn 0.18943 0.47253 0.13409 0.0
C280 C 0.22885 0.52602 0.09185 0.0
N281 N 0.27629 0.51842 0.18463 0.0
C282 C 0.28239 0.52923 0.21857 0.0
C283 C 0.30143 0.51617 0.16028 0.0
C284 C 0.33356 0.52499 0.16908 0.0
C285 C 0.34087 0.53653 0.20348 0.0
C286 C 0.3148 0.53844 0.22866 0.0
Zn287 Zn 0.23179 0.49914 0.16356 0.0
O288 O 0.16399 0.5128 0.15617 0.0
C289 C 0.19125 0.4489 0.20841 0.0
O290 O 0.20569 0.54304 0.18114 0.0
H291 H 0.29694 0.50647 0.1337 0.0
H292 H 0.13303 0.50252 0.10208 0.0
H293 H 0.26235 0.53022 0.23789 0.0
O294 O 0.17563 0.44292 0.18007 0.0
O295 O 0.21579 0.47174 0.20905 0.0
H296 H 0.16076 0.39992 0.10458 0.0
O297 O 0.25591 0.45556 0.14518 0.0
O298 O 0.21655 0.43135 0.11302 0.0
O299 O 0.24595 0.52641 0.11863 0.0
O300 O 0.20331 0.50487 0.08992 0.0
C301 C 0.24491 0.43086 0.12463 0.0
H302 H 0.09224 0.48385 0.05851 0.0
H303 H 0.12165 0.37978 0.05903 0.0
H304 H 0.35269 0.52199 0.14895 0.0
H305 H 0.31937 0.54707 0.25564 0.0
C306 C 0.55923 0.97717 0.83461 0.0
N307 N 0.59651 0.04536 0.9144 0.0
C308 C 0.58371 0.021 0.93705 0.0
C309 C 0.5731 0.03089 0.97104 0.0
C310 C 0.57523 0.06624 0.98173 0.0
C311 C 0.58819 0.09096 0.95779 0.0
C312 C 0.59899 0.07985 0.92409 0.0
Zn313 Zn 0.61226 0.02837 0.86547 0.0
C314 C 0.64628 0.96318 0.86772 0.0
N315 N 0.64182 0.98998 0.76323 0.0
C316 C 0.65237 0.01634 0.74179 0.0
C317 C 0.65414 0.95854 0.75884 0.0
C318 C 0.68212 0.95503 0.73723 0.0
C319 C 0.69674 0.98393 0.7194 0.0
C320 C 0.67968 0.01363 0.7192 0.0
Zn321 Zn 0.62329 0.00517 0.81225 0.0
O322 O 0.56737 0.99926 0.85918 0.0
C323 C 0.59017 0.06928 0.80786 0.0
O324 O 0.57947 0.97095 0.80926 0.0
H325 H 0.64512 0.93754 0.77545 0.0
H326 H 0.5816 0.99376 0.92872 0.0
H327 H 0.64275 0.04132 0.74537 0.0
O328 O 0.59349 0.07191 0.84106 0.0
O329 O 0.59944 0.04302 0.79043 0.0
H330 H 0.60937 0.09876 0.90571 0.0
O331 O 0.66705 0.04052 0.81657 0.0
O332 O 0.65647 0.05744 0.87134 0.0
O333 O 0.64653 0.96691 0.83486 0.0
O334 O 0.63241 0.98478 0.88828 0.0
C335 C 0.67542 0.05845 0.8442 0.0
H336 H 0.56274 0.01111 0.98858 0.0
H337 H 0.59024 0.11848 0.96518 0.0
H338 H 0.69408 0.93135 0.7379 0.0
H339 H 0.6894 0.03611 0.70487 0.0
C340 C 0.87973 0.99231 0.31763 0.0
N341 N 0.90743 0.90877 0.37137 0.0
C342 C 0.93895 0.91301 0.35865 0.0
C343 C 0.96415 0.9031 0.37847 0.0
C344 C 0.95647 0.88827 0.41116 0.0
C345 C 0.92375 0.88414 0.42326 0.0
C346 C 0.89967 0.89474 0.40307 0.0
Zn347 Zn 0.86838 0.92247 0.3459 0.0
C348 C 0.82329 0.95947 0.39556 0.0
N349 N 0.78318 0.94944 0.2984 0.0
C350 C 0.7723 0.98084 0.30782 0.0
C351 C 0.76373 0.92403 0.28151 0.0
C352 C 0.731 0.92848 0.27667 0.0
C353 C 0.71833 0.9595 0.28909 0.0
C354 C 0.73988 0.98653 0.30317 0.0
Zn355 Zn 0.82464 0.93702 0.32035 0.0
O356 O 0.89344 0.96889 0.33195 0.0
C357 C 0.86922 0.90239 0.26956 0.0
O358 O 0.84967 0.98715 0.31057 0.0
H359 H 0.77284 0.89923 0.27425 0.0
H360 H 0.94456 0.92434 0.3334 0.0
H361 H 0.78805 0.00063 0.32143 0.0
O362 O 0.88468 0.89871 0.2972 0.0
O363 O 0.8433 0.91791 0.27184 0.0
H364 H 0.87462 0.89204 0.41309 0.0
O365 O 0.80094 0.88692 0.33091 0.0
O366 O 0.84337 0.87506 0.35899 0.0
O367 O 0.80633 0.95619 0.36852 0.0
O368 O 0.85138 0.94829 0.39413 0.0
C369 C 0.81506 0.86602 0.34836 0.0
H370 H 0.98922 0.90703 0.36849 0.0
H371 H 0.91682 0.87384 0.44878 0.0
H372 H 0.71536 0.9069 0.26567 0.0
H373 H 0.7314 0.01122 0.31225 0.0
C374 C 0.40719 0.56679 0.67133 0.0
N375 N 0.43553 0.65599 0.61548 0.0
C376 C 0.46596 0.64917 0.62399 0.0
C377 C 0.49207 0.65361 0.59939 0.0
C378 C 0.48675 0.66603 0.56633 0.0
C379 C 0.45586 0.67578 0.55949 0.0
C380 C 0.43033 0.6701 0.5844 0.0
Zn381 Zn 0.39546 0.63713 0.64447 0.0
C382 C 0.35059 0.59011 0.60128 0.0
N383 N 0.31305 0.59443 0.70351 0.0
C384 C 0.31084 0.57934 0.73525 0.0
C385 C 0.28582 0.60139 0.68723 0.0
C386 C 0.25512 0.59402 0.70283 0.0
C387 C 0.2519 0.57927 0.73577 0.0
C388 C 0.2801 0.57118 0.75192 0.0
Zn389 Zn 0.35523 0.61195 0.677 0.0
O390 O 0.4198 0.59402 0.65672 0.0
C391 C 0.39906 0.6567 0.72135 0.0
O392 O 0.37751 0.56515 0.68258 0.0
H393 H 0.28774 0.61343 0.66212 0.0
H394 H 0.4696 0.63806 0.64886 0.0
H395 H 0.33281 0.57419 0.74782 0.0
O396 O 0.412 0.66527 0.69155 0.0
O397 O 0.37552 0.63301 0.72284 0.0
H398 H 0.40591 0.67461 0.57773 0.0
O399 O 0.33419 0.65951 0.67176 0.0
O400 O 0.37052 0.68063 0.63294 0.0
O401 O 0.33528 0.59024 0.63082 0.0
O402 O 0.3783 0.60746 0.59816 0.0
C403 C 0.34463 0.68373 0.65169 0.0
H404 H 0.51568 0.64573 0.60535 0.0
H405 H 0.45085 0.68491 0.534 0.0
H406 H 0.23397 0.59981 0.68906 0.0
H407 H 0.2784 0.55947 0.77728 0.0
H408 H 0.28839 0.38699 0.49941 0.0
H409 H 0.2274 0.41568 0.58936 0.0
H410 H 0.32064 0.44387 0.50503 0.0
H411 H 0.25916 0.47192 0.59489 0.0
H412 H 0.28955 0.57971 0.57775 0.0
H413 H 0.26373 0.5236 0.55677 0.0
H414 H 0.35772 0.48247 0.54827 0.0
H415 H 0.38369 0.53925 0.5686 0.0
C416 C 0.28239 0.40511 0.52081 0.0
C417 C 0.25525 0.39712 0.54379 0.0
C418 C 0.30061 0.43769 0.52381 0.0
C419 C 0.29174 0.46269 0.54968 0.0
C420 C 0.26592 0.45364 0.57394 0.0
C421 C 0.24793 0.42131 0.57103 0.0
C422 C 0.30486 0.55925 0.56955 0.0
C423 C 0.33854 0.56376 0.57463 0.0
C424 C 0.29007 0.52695 0.55813 0.0
C425 C 0.30863 0.4984 0.55201 0.0
C426 C 0.34283 0.50398 0.55298 0.0
C427 C 0.35774 0.53659 0.5642 0.0
H428 H 0.74227 0.03968 0.72702 0.0
H429 H 0.73146 0.9324 0.6879 0.0
H430 H 0.80098 0.04082 0.71864 0.0
H431 H 0.79072 0.93314 0.68123 0.0
H432 H 0.90025 0.00969 0.75334 0.0
H433 H 0.84204 0.01578 0.74988 0.0
H434 H 0.84059 0.95621 0.65069 0.0
H435 H 0.89865 0.94987 0.65444 0.0
C436 C 0.75225 0.01651 0.71575 0.0
C437 C 0.73192 0.98587 0.70806 0.0
C438 C 0.78611 0.01706 0.71156 0.0
C439 C 0.8006 0.98697 0.6998 0.0
C440 C 0.78033 0.95686 0.69022 0.0
C441 C 0.74634 0.95633 0.6943 0.0
C442 C 0.88758 0.99848 0.73054 0.0
C443 C 0.90385 0.97898 0.70442 0.0
C444 C 0.85425 0.00197 0.72846 0.0
C445 C 0.83659 0.98621 0.70009 0.0
C446 C 0.8533 0.96807 0.67319 0.0
C447 C 0.88655 0.96451 0.67532 0.0
H448 H 0.32015 0.71176 0.99691 0.0
H449 H 0.23285 0.74113 0.0528 0.0
H450 H 0.30191 0.65069 0.00303 0.0
H451 H 0.21497 0.67928 0.06099 0.0
H452 H 0.1852 0.56292 0.06087 0.0
H453 H 0.1971 0.62106 0.03754 0.0
H454 H 0.30006 0.61425 0.05028 0.0
H455 H 0.28814 0.55661 0.0724 0.0
C456 C 0.29696 0.70495 0.01069 0.0
C457 C 0.27816 0.73102 0.025 0.0
C458 C 0.28651 0.66992 0.01431 0.0
C459 C 0.25728 0.65984 0.03319 0.0
C460 C 0.23756 0.68601 0.04613 0.0
C461 C 0.24782 0.7214 0.04177 0.0
C462 C 0.21042 0.57338 0.05709 0.0
C463 C 0.23582 0.55508 0.068 0.0
C464 C 0.21721 0.60697 0.04442 0.0
C465 C 0.24954 0.62265 0.04219 0.0
C466 C 0.27491 0.60311 0.051 0.0
C467 C 0.26813 0.56986 0.06368 0.0
H468 H 0.51461 0.97908 0.35534 0.0
H469 H 0.52201 0.99756 0.24405 0.0
H470 H 0.57083 0.96335 0.35226 0.0
H471 H 0.57771 0.98236 0.24107 0.0
H472 H 0.67333 0.93513 0.24031 0.0
H473 H 0.61442 0.93854 0.24442 0.0
H474 H 0.62374 0.9947 0.3451 0.0
H475 H 0.68205 0.98956 0.34196 0.0
C476 C 0.52805 0.97935 0.3302 0.0
C477 C 0.51372 0.98942 0.29997 0.0
C478 C 0.56027 0.9705 0.32842 0.0
C479 C 0.57889 0.97181 0.29643 0.0
C480 C 0.56403 0.98047 0.266 0.0
C481 C 0.53191 0.98915 0.26774 0.0
C482 C 0.66274 0.94788 0.26347 0.0
C483 C 0.68255 0.96246 0.29057 0.0
C484 C 0.629 0.95004 0.26574 0.0
C485 C 0.6143 0.96692 0.2951 0.0
C486 C 0.63409 0.98109 0.32233 0.0
C487 C 0.66772 0.97877 0.32016 0.0
H488 H 0.76912 0.15094 0.46707 0.0
H489 H 0.70867 0.08715 0.53934 0.0
H490 H 0.79934 0.10138 0.44937 0.0
H491 H 0.73827 0.0373 0.52041 0.0
H492 H 0.76145 0.95897 0.4227 0.0
H493 H 0.73902 0.00486 0.45983 0.0
H494 H 0.83601 0.05641 0.47104 0.0
H495 H 0.85859 0.0098 0.43422 0.0
C496 C 0.76261 0.12663 0.47973 0.0
C497 C 0.73606 0.12309 0.50434 0.0
C498 C 0.78002 0.0982 0.46958 0.0
C499 C 0.77111 0.0655 0.48351 0.0
C500 C 0.74549 0.06218 0.5091 0.0
C501 C 0.72835 0.0907 0.51961 0.0
C502 C 0.77808 0.97937 0.43429 0.0
C503 C 0.8117 0.98086 0.4258 0.0
C504 C 0.76526 0.00566 0.45551 0.0
C505 C 0.78576 0.03434 0.46803 0.0
C506 C 0.81969 0.03463 0.46155 0.0
C507 C 0.83263 0.00783 0.44087 0.0
H508 H 0.05696 0.49571 0.81073 0.0
H509 H 0.05187 0.54191 0.71034 0.0
H510 H 0.11455 0.51752 0.81343 0.0
H511 H 0.10958 0.56404 0.71322 0.0
H512 H 0.20429 0.62324 0.74311 0.0
H513 H 0.14601 0.60719 0.75351 0.0
H514 H 0.1659 0.50263 0.77406 0.0
H515 H 0.22442 0.51852 0.76285 0.0
C516 C 0.06806 0.51115 0.78959 0.0
C517 C 0.05002 0.51751 0.76043 0.0
C518 C 0.10098 0.52333 0.79107 0.0
C519 C 0.11629 0.54252 0.76367 0.0
C520 C 0.0981 0.54961 0.73489 0.0
C521 C 0.06526 0.53691 0.73312 0.0
C522 C 0.19625 0.59701 0.75057 0.0
C523 C 0.21868 0.57189 0.7516 0.0
C524 C 0.16297 0.58787 0.75637 0.0
C525 C 0.1516 0.5536 0.76387 0.0
C526 C 0.17421 0.52926 0.76823 0.0
C527 C 0.20762 0.53834 0.76204 0.0
H528 H 0.67067 0.91034 0.82859 0.0
H529 H 0.66069 0.95093 0.93607 0.0
H530 H 0.70373 0.86664 0.84726 0.0
H531 H 0.69445 0.90661 0.95484 0.0
H532 H 0.73769 0.80079 0.97363 0.0
H533 H 0.69767 0.84018 0.95807 0.0
H534 H 0.76009 0.87225 0.86897 0.0
H535 H 0.79956 0.83305 0.88424 0.0
C536 C 0.67534 0.90986 0.85634 0.0
C537 C 0.66334 0.93455 0.88079 0.0
C538 C 0.69442 0.88475 0.86698 0.0
C539 C 0.70211 0.88349 0.90239 0.0
C540 C 0.68885 0.90696 0.92733 0.0
C541 C 0.66964 0.93237 0.9166 0.0
C542 C 0.74253 0.816 0.95049 0.0
C543 C 0.77168 0.81384 0.93008 0.0
C544 C 0.71984 0.83875 0.94184 0.0
C545 C 0.72573 0.85925 0.91229 0.0
C546 C 0.75467 0.85656 0.89169 0.0
C547 C 0.77737 0.83424 0.90052 0.0
H548 H 0.54228 0.62639 0.21059 0.0
H549 H 0.54501 0.5271 0.25715 0.0
H550 H 0.48429 0.61476 0.20397 0.0
H551 H 0.48619 0.51445 0.24878 0.0
H552 H 0.37398 0.52012 0.26114 0.0
H553 H 0.43289 0.53065 0.26999 0.0
H554 H 0.44537 0.58219 0.17137 0.0
H555 H 0.38716 0.57371 0.16392 0.0
C556 C 0.53062 0.60158 0.21874 0.0
C557 C 0.54854 0.57764 0.23433 0.0
C558 C 0.4971 0.59482 0.21479 0.0
C559 C 0.48023 0.56358 0.22574 0.0
C560 C 0.49823 0.539 0.24046 0.0
C561 C 0.53205 0.54598 0.24474 0.0
C562 C 0.38935 0.53436 0.24185 0.0
C563 C 0.37581 0.54596 0.21177 0.0
C564 C 0.42319 0.53987 0.24656 0.0
C565 C 0.44416 0.55715 0.22133 0.0
C566 C 0.43026 0.56922 0.1917 0.0
C567 C 0.39671 0.56404 0.18722 0.0
H568 H 0.5092 0.14774 0.31722 0.0
H569 H 0.42993 0.20593 0.35633 0.0
H570 H 0.54114 0.1694 0.36715 0.0
H571 H 0.4612 0.22648 0.4079 0.0
H572 H 0.53821 0.27542 0.48562 0.0
H573 H 0.50561 0.25985 0.43417 0.0
H574 H 0.54279 0.15879 0.42637 0.0
H575 H 0.5764 0.17511 0.4765 0.0
C576 C 0.49883 0.16569 0.3364 0.0
C577 C 0.46722 0.17538 0.33276 0.0
C578 C 0.5169 0.17767 0.36548 0.0
C579 C 0.50358 0.199 0.39241 0.0
C580 C 0.47245 0.21018 0.38782 0.0
C581 C 0.45451 0.1986 0.35816 0.0
C582 C 0.53908 0.24971 0.47311 0.0
C583 C 0.56007 0.22656 0.48511 0.0
C584 C 0.52035 0.24076 0.44351 0.0
C585 C 0.52186 0.20825 0.42536 0.0
C586 C 0.54166 0.18452 0.43866 0.0
C587 C 0.5607 0.19367 0.46783 0.0
H588 H 0.08862 0.34836 0.56547 0.0
H589 H 0.0265 0.2544 0.54222 0.0
H590 H 0.05686 0.35815 0.61987 0.0
H591 H 0.99555 0.26303 0.59774 0.0
H592 H 0.9313 0.30863 0.68979 0.0
H593 H 0.95903 0.29455 0.63334 0.0
H594 H 0.05121 0.33601 0.67574 0.0
H595 H 0.02303 0.3517 0.73098 0.0
C596 C 0.06787 0.33 0.57186 0.0
C597 C 0.06004 0.30069 0.54955 0.0
C598 C 0.04994 0.33522 0.60341 0.0
C599 C 0.02412 0.31083 0.61397 0.0
C600 C 0.0152 0.28241 0.59065 0.0
C601 C 0.03286 0.27752 0.55868 0.0
C602 C 0.95763 0.31359 0.68721 0.0
C603 C 0.97515 0.33091 0.71471 0.0
C604 C 0.97356 0.30583 0.65476 0.0
C605 C 0.00735 0.31498 0.64945 0.0
C606 C 0.02504 0.32971 0.67822 0.0
C607 C 0.00906 0.33804 0.71022 0.0
H608 H 0.99455 0.83717 0.74236 0.0
H609 H 0.08841 0.85024 0.78961 0.0
H610 H 0.97194 0.80346 0.79154 0.0
H611 H 0.06541 0.81733 0.84001 0.0
H612 H 0.00965 0.73812 0.91836 0.0
H613 H 0.0388 0.76261 0.86588 0.0
H614 H 0.95804 0.82294 0.85052 0.0
H615 H 0.92922 0.79849 0.90157 0.0
C616 C 0.01055 0.83212 0.76297 0.0
C617 C 0.04323 0.84633 0.76209 0.0
C618 C 0.99751 0.81315 0.79146 0.0
C619 C 0.01657 0.80844 0.82034 0.0
C620 C 0.05 0.82044 0.81829 0.0
C621 C 0.06324 0.83915 0.78933 0.0
C622 C 0.99834 0.75678 0.90378 0.0
C623 C 0.96689 0.76595 0.91401 0.0
C624 C 0.015 0.77078 0.87371 0.0
C625 C 0.00046 0.79413 0.85334 0.0
C626 C 0.96964 0.80418 0.86467 0.0
C627 C 0.95314 0.79028 0.89432 0.0
H628 H 0.56073 0.78472 0.25825 0.0
H629 H 0.62164 0.78585 0.1628 0.0
H630 H 0.52025 0.81363 0.22897 0.0
H631 H 0.58071 0.81388 0.13322 0.0
H632 H 0.49458 0.85489 0.08511 0.0
H633 H 0.54011 0.85795 0.12468 0.0
H634 H 0.48928 0.7753 0.18384 0.0
H635 H 0.44472 0.77135 0.14411 0.0
C636 C 0.56627 0.79273 0.23159 0.0
C637 C 0.59375 0.78207 0.21235 0.0
C638 C 0.54294 0.80903 0.21475 0.0
C639 C 0.54689 0.81475 0.17856 0.0
C640 C 0.57688 0.80944 0.16106 0.0
C641 C 0.60025 0.79322 0.17793 0.0
C642 C 0.49321 0.83735 0.10655 0.0
C643 C 0.46607 0.8127 0.11132 0.0
C644 C 0.51905 0.83949 0.12941 0.0
C645 C 0.51794 0.81736 0.15766 0.0
C646 C 0.49041 0.79347 0.16294 0.0
C647 C 0.4649 0.79104 0.13997 0.0
H648 H 0.10819 0.30027 0.3614 0.0
H649 H 0.16844 0.37552 0.42334 0.0
H650 H 0.12136 0.33368 0.3095 0.0
H651 H 0.18035 0.41023 0.37169 0.0
H652 H 0.22695 0.4429 0.26618 0.0
H653 H 0.21099 0.41179 0.3191 0.0
H654 H 0.11567 0.38207 0.27785 0.0
H655 H 0.1325 0.41181 0.22402 0.0
C656 C 0.12371 0.32444 0.36416 0.0
C657 C 0.13732 0.3351 0.39665 0.0
C658 C 0.1312 0.34382 0.33423 0.0
C659 C 0.1522 0.3748 0.33591 0.0
C660 C 0.16474 0.38617 0.36887 0.0
C661 C 0.15762 0.36645 0.39873 0.0
C662 C 0.20258 0.42967 0.26837 0.0
C663 C 0.18107 0.42977 0.24072 0.0
C664 C 0.19323 0.41201 0.29902 0.0
C665 C 0.16185 0.39432 0.30327 0.0
C666 C 0.14023 0.39475 0.27559 0.0
C667 C 0.1498 0.41199 0.24465 0.0
H668 H 0.99552 0.88228 0.61488 0.0
H669 H 0.09659 0.8966 0.57838 0.0
H670 H 0.97929 0.86921 0.55446 0.0
H671 H 0.08011 0.88436 0.5175 0.0
H672 H 0.01209 0.92844 0.42881 0.0
H673 H 0.04327 0.92284 0.48107 0.0
H674 H 0.98799 0.82458 0.50051 0.0
H675 H 0.95733 0.8297 0.44789 0.0
C676 C 0.01427 0.88202 0.59396 0.0
C677 C 0.04723 0.89051 0.60118 0.0
C678 C 0.00504 0.87433 0.55945 0.0
C679 C 0.02854 0.87569 0.53147 0.0
C680 C 0.06165 0.88302 0.53873 0.0
C681 C 0.07099 0.88991 0.57346 0.0
C682 C 0.00768 0.9049 0.44328 0.0
C683 C 0.98187 0.87986 0.43482 0.0
C684 C 0.02547 0.90172 0.47321 0.0
C685 C 0.0175 0.87357 0.49499 0.0
C686 C 0.99425 0.84669 0.48428 0.0
C687 C 0.97673 0.84969 0.45426 0.0
H688 H 0.39984 0.63293 0.78691 0.0
H689 H 0.41315 0.72681 0.729 0.0
H690 H 0.39456 0.66748 0.84188 0.0
H691 H 0.4075 0.76157 0.78418 0.0
H692 H 0.33113 0.79127 0.87443 0.0
H693 H 0.35383 0.76277 0.82151 0.0
H694 H 0.41997 0.71457 0.88444 0.0
H695 H 0.3974 0.74321 0.93757 0.0
C696 C 0.40288 0.66105 0.78618 0.0
C697 C 0.40679 0.67729 0.75388 0.0
C698 C 0.39983 0.68081 0.8176 0.0
C699 C 0.40011 0.7171 0.81711 0.0
C700 C 0.40688 0.73355 0.7851 0.0
C701 C 0.4105 0.71374 0.75365 0.0
C702 C 0.3505 0.7746 0.87701 0.0
C703 C 0.36225 0.76918 0.91017 0.0
C704 C 0.36382 0.75872 0.84667 0.0
C705 C 0.38889 0.73682 0.84893 0.0
C706 C 0.40074 0.73146 0.88204 0.0
C707 C 0.38771 0.74771 0.91238 0.0
H708 H 0.48085 0.05303 0.18702 0.0
H709 H 0.48107 0.16218 0.16741 0.0
H710 H 0.51395 0.04468 0.13329 0.0
H711 H 0.5155 0.15423 0.11439 0.0
H712 H 0.53409 0.11602 0.9993 0.0
H713 H 0.50917 0.12934 0.05706 0.0
H714 H 0.56459 0.05446 0.10252 0.0
H715 H 0.58844 0.04033 0.04431 0.0
C716 C 0.4886 0.07542 0.17162 0.0
C717 C 0.47808 0.10819 0.18124 0.0
C718 C 0.50778 0.07069 0.14084 0.0
C719 C 0.51724 0.09873 0.1192 0.0
C720 C 0.50807 0.13189 0.12992 0.0
C721 C 0.48854 0.13652 0.16047 0.0
C722 C 0.54122 0.10282 0.02178 0.0
C723 C 0.56296 0.077 0.01738 0.0
C724 C 0.52707 0.11052 0.05497 0.0
C725 C 0.53469 0.09285 0.08458 0.0
C726 C 0.55759 0.06805 0.08026 0.0
C727 C 0.57138 0.06005 0.04698 0.0
H728 H 0.5829 0.24846 0.67539 0.0
H729 H 0.61445 0.15741 0.61824 0.0
H730 H 0.5696 0.21402 0.72754 0.0
H731 H 0.60081 0.12324 0.66983 0.0
H732 H 0.55137 0.06144 0.75246 0.0
H733 H 0.54944 0.10271 0.70645 0.0
H734 H 0.60489 0.18118 0.76958 0.0
H735 H 0.60669 0.13954 0.81604 0.0
C736 C 0.58658 0.22105 0.67382 0.0
C737 C 0.5997 0.20559 0.64271 0.0
C738 C 0.57909 0.20147 0.70367 0.0
C739 C 0.58392 0.16596 0.70261 0.0
C740 C 0.59637 0.15046 0.67126 0.0
C741 C 0.60436 0.17007 0.64175 0.0
C742 C 0.56202 0.08793 0.75713 0.0
C743 C 0.57934 0.09731 0.78765 0.0
C744 C 0.56114 0.11144 0.73068 0.0
C745 C 0.57763 0.14483 0.73415 0.0
C746 C 0.59197 0.15554 0.76628 0.0
C747 C 0.59283 0.13184 0.79295 0.0
H748 H 0.12258 0.40274 0.99089 0.0
H749 H 0.03859 0.43634 0.05021 0.0
H750 H 0.08962 0.39108 0.93866 0.0
H751 H 0.00537 0.4236 0.99829 0.0
H752 H 0.95478 0.3558 0.90531 0.0
H753 H 0.9885 0.36434 0.95696 0.0
H754 H 0.05682 0.43524 0.90048 0.0
H755 H 0.02258 0.42767 0.849 0.0
C756 C 0.09694 0.40704 0.99287 0.0
C757 C 0.08304 0.42023 0.0246 0.0
C758 C 0.0782 0.40062 0.96298 0.0
C759 C 0.045 0.40646 0.96449 0.0
C760 C 0.03088 0.41875 0.99649 0.0
C761 C 0.04983 0.42602 0.02612 0.0
C762 C 0.97711 0.37303 0.90376 0.0
C763 C 0.98604 0.391 0.873 0.0
C764 C 0.99628 0.37801 0.9334 0.0
C765 C 0.02522 0.40041 0.93266 0.0
C766 C 0.03468 0.41769 0.90165 0.0
C767 C 0.01508 0.41339 0.87225 0.0
H768 H 0.9082 0.84962 0.25469 0.0
H769 H 0.85712 0.92576 0.20584 0.0
H770 H 0.92332 0.82493 0.19665 0.0
H771 H 0.8736 0.90255 0.14794 0.0
H772 H 0.86536 0.81949 0.05749 0.0
H773 H 0.85889 0.85376 0.11191 0.0
H774 H 0.95374 0.8299 0.14279 0.0
H775 H 0.95947 0.79405 0.08871 0.0
C776 C 0.90074 0.86144 0.2315 0.0
C777 C 0.88107 0.88919 0.23472 0.0
C778 C 0.90962 0.84753 0.19817 0.0
C779 C 0.89947 0.86153 0.16742 0.0
C780 C 0.88118 0.89049 0.1709 0.0
C781 C 0.87182 0.9039 0.20413 0.0
C782 C 0.88518 0.82212 0.0755 0.0
C783 C 0.91277 0.80373 0.06893 0.0
C784 C 0.88153 0.84195 0.10682 0.0
C785 C 0.90562 0.84434 0.13215 0.0
C786 C 0.93433 0.82797 0.12434 0.0
C787 C 0.93779 0.80772 0.09314 0.0
H788 H 0.51372 0.60811 0.54216 0.0
H789 H 0.51272 0.71713 0.52357 0.0
H790 H 0.54464 0.59977 0.487 0.0
H791 H 0.54558 0.70957 0.46907 0.0
H792 H 0.56272 0.67498 0.35396 0.0
H793 H 0.53778 0.68576 0.41217 0.0
H794 H 0.59301 0.60837 0.4537 0.0
H795 H 0.61638 0.59633 0.39505 0.0
C796 C 0.52126 0.63055 0.52674 0.0
C797 C 0.51108 0.66326 0.53698 0.0
C798 C 0.53902 0.62584 0.49508 0.0
C799 C 0.54747 0.65393 0.47325 0.0
C800 C 0.53883 0.68716 0.48471 0.0
C801 C 0.52043 0.69168 0.51609 0.0
C802 C 0.56934 0.66019 0.37556 0.0
C803 C 0.59117 0.63457 0.36994 0.0
C804 C 0.55537 0.66664 0.40908 0.0
C805 C 0.56342 0.64805 0.43786 0.0
C806 C 0.58572 0.62277 0.43216 0.0
C807 C 0.5992 0.61588 0.39852 0.0
H808 H 0.1684 0.17087 0.39825 0.0
H809 H 0.24528 0.23993 0.44468 0.0
H810 H 0.20883 0.13352 0.37339 0.0
H811 H 0.28575 0.20307 0.41902 0.0
H812 H 0.35301 0.1229 0.38537 0.0
H813 H 0.30761 0.14641 0.42 0.0
H814 H 0.2502 0.13806 0.32709 0.0
H815 H 0.29494 0.11435 0.29328 0.0
C816 C 0.19395 0.17826 0.40289 0.0
C817 C 0.20366 0.20862 0.42307 0.0
C818 C 0.21711 0.15675 0.38878 0.0
C819 C 0.25052 0.16519 0.39436 0.0
C820 C 0.26018 0.19541 0.4148 0.0
C821 C 0.23701 0.21685 0.42905 0.0
C822 C 0.33013 0.12483 0.37297 0.0
C823 C 0.32726 0.11688 0.33684 0.0
C824 C 0.30436 0.13874 0.39253 0.0
C825 C 0.27546 0.14457 0.37615 0.0
C826 C 0.2719 0.13373 0.34067 0.0
C827 C 0.29755 0.12015 0.32124 0.0
H828 H 0.17455 0.19227 0.57329 0.0
H829 H 0.07819 0.16336 0.53472 0.0
H830 H 0.16834 0.14118 0.61017 0.0
H831 H 0.0722 0.11319 0.57087 0.0
H832 H 0.05495 0.04836 0.66481 0.0
H833 H 0.06625 0.10219 0.63445 0.0
H834 H 0.16215 0.07349 0.60186 0.0
H835 H 0.15094 0.01904 0.63282 0.0
C836 C 0.15205 0.17529 0.57288 0.0
C837 C 0.12688 0.18198 0.55108 0.0
C838 C 0.1486 0.14594 0.59373 0.0
C839 C 0.1197 0.12322 0.59356 0.0
C840 C 0.09459 0.13033 0.57203 0.0
C841 C 0.09815 0.15912 0.5511 0.0
C842 C 0.07858 0.05339 0.65139 0.0
C843 C 0.10187 0.02901 0.65094 0.0
C844 C 0.08503 0.08435 0.63392 0.0
C845 C 0.11497 0.09202 0.61544 0.0
C846 C 0.13889 0.0684 0.61601 0.0
C847 C 0.13237 0.03712 0.63352 0.0
H848 H 0.05911 0.9492 0.8263 0.0
H849 H 0.15084 0.99529 0.78291 0.0
H850 H 0.08543 0.9392 0.88071 0.0
H851 H 0.17732 0.98476 0.8362 0.0
H852 H 0.22712 0.95182 0.92359 0.0
H853 H 0.18931 0.98596 0.89587 0.0
H854 H 0.12059 0.89431 0.88629 0.0
H855 H 0.15785 0.86104 0.91573 0.0
C856 C 0.08449 0.95885 0.82914 0.0
C857 C 0.10318 0.97251 0.80041 0.0
C858 C 0.09971 0.95263 0.86005 0.0
C859 C 0.13372 0.9601 0.86245 0.0
C860 C 0.15116 0.97852 0.83552 0.0
C861 C 0.13599 0.98463 0.80478 0.0
C862 C 0.20356 0.93937 0.91616 0.0
C863 C 0.19546 0.90381 0.92097 0.0
C864 C 0.1819 0.95884 0.90037 0.0
C865 C 0.15209 0.94285 0.88826 0.0
C866 C 0.14311 0.90773 0.89557 0.0
C867 C 0.16456 0.88846 0.91203 0.0
H868 H 0.33318 0.00706 0.24202 0.0
H869 H 0.35498 0.06946 0.15142 0.0
H870 H 0.3096 0.95937 0.20439 0.0
H871 H 0.33214 0.02107 0.11329 0.0
H872 H 0.28114 0.92948 0.05248 0.0
H873 H 0.28576 0.97976 0.09442 0.0
H874 H 0.33701 0.92092 0.16401 0.0
H875 H 0.33208 0.87109 0.12267 0.0
C876 C 0.33251 0.01074 0.21403 0.0
C877 C 0.34638 0.04178 0.19956 0.0
C878 C 0.31908 0.98334 0.19244 0.0
C879 C 0.31956 0.98609 0.15575 0.0
C880 C 0.33124 0.01812 0.14148 0.0
C881 C 0.34444 0.04582 0.16326 0.0
C882 C 0.2925 0.92706 0.07725 0.0
C883 C 0.30634 0.89636 0.08425 0.0
C884 C 0.29546 0.95596 0.10107 0.0
C885 C 0.31194 0.9545 0.13247 0.0
C886 C 0.32383 0.92297 0.14032 0.0
C887 C 0.32111 0.89433 0.11652 0.0
H888 H 0.81121 0.38322 0.75731 0.0
H889 H 0.87684 0.38508 0.66563 0.0
H890 H 0.76528 0.36522 0.72055 0.0
H891 H 0.83041 0.36675 0.62826 0.0
H892 H 0.74747 0.28184 0.59078 0.0
H893 H 0.794 0.31078 0.62162 0.0
H894 H 0.73117 0.38212 0.67403 0.0
H895 H 0.68455 0.35311 0.6434 0.0
C896 C 0.81562 0.3806 0.72904 0.0
C897 C 0.84752 0.38569 0.71426 0.0
C898 C 0.78926 0.37032 0.70794 0.0
C899 C 0.79413 0.36434 0.67146 0.0
C900 C 0.82593 0.3709 0.65635 0.0
C901 C 0.85242 0.38179 0.67758 0.0
C902 C 0.74354 0.30372 0.60886 0.0
C903 C 0.71213 0.31487 0.6149 0.0
C904 C 0.77034 0.32058 0.62621 0.0
C905 C 0.76636 0.34884 0.65022 0.0
C906 C 0.73504 0.36029 0.65587 0.0
C907 C 0.70829 0.34361 0.63835 0.0
H908 H 0.8819 0.43745 0.90349 0.0
H909 H 0.85286 0.48339 0.81025 0.0
H910 H 0.87669 0.49255 0.93698 0.0
H911 H 0.84825 0.53834 0.84309 0.0
H912 H 0.84057 0.63565 0.91318 0.0
H913 H 0.82672 0.57622 0.88959 0.0
H914 H 0.91455 0.5447 0.93143 0.0
H915 H 0.92806 0.60336 0.95519 0.0
C916 C 0.87289 0.45879 0.89063 0.0
C917 C 0.86796 0.45639 0.85436 0.0
C918 C 0.87043 0.49052 0.90956 0.0
C919 C 0.86291 0.52009 0.89243 0.0
C920 C 0.85411 0.51621 0.85714 0.0
C921 C 0.8567 0.48467 0.8383 0.0
C922 C 0.85694 0.61601 0.91715 0.0
C923 C 0.88555 0.62435 0.93581 0.0
C924 C 0.84889 0.58194 0.90388 0.0
C925 C 0.86923 0.55555 0.90914 0.0
C926 C 0.89782 0.56407 0.92773 0.0
C927 C 0.90586 0.59795 0.94087 0.0
H928 H 0.79728 0.66717 0.02589 0.0
H929 H 0.86424 0.6649 0.10966 0.0
H930 H 0.75366 0.6393 0.0624 0.0
H931 H 0.81968 0.63789 0.14727 0.0
H932 H 0.7338 0.57423 0.20163 0.0
H933 H 0.77914 0.58768 0.15878 0.0
H934 H 0.72247 0.66016 0.1115 0.0
H935 H 0.6776 0.64629 0.15332 0.0
C936 C 0.80267 0.66081 0.05229 0.0
C937 C 0.83407 0.66893 0.06518 0.0
C938 C 0.77757 0.64479 0.07326 0.0
C939 C 0.7829 0.63691 0.10804 0.0
C940 C 0.81474 0.64347 0.12052 0.0
C941 C 0.8402 0.65918 0.09916 0.0
C942 C 0.73079 0.59215 0.18129 0.0
C943 C 0.70212 0.60912 0.18073 0.0
C944 C 0.75691 0.60026 0.15712 0.0
C945 C 0.75459 0.62516 0.13178 0.0
C946 C 0.72512 0.64054 0.13024 0.0
C947 C 0.6993 0.63263 0.15433 0.0
H948 H 0.66728 0.37664 0.50331 0.0
H949 H 0.66856 0.28599 0.43238 0.0
H950 H 0.67919 0.41417 0.4538 0.0
H951 H 0.67961 0.32393 0.38231 0.0
H952 H 0.63643 0.41934 0.32071 0.0
H953 H 0.64033 0.37137 0.35947 0.0
H954 H 0.72651 0.42573 0.40376 0.0
H955 H 0.72329 0.4732 0.3645 0.0
C956 C 0.67052 0.36481 0.47712 0.0
C957 C 0.66703 0.32855 0.47153 0.0
C958 C 0.6775 0.38622 0.44887 0.0
C959 C 0.68044 0.37181 0.4144 0.0
C960 C 0.67759 0.3355 0.40874 0.0
C961 C 0.6714 0.31394 0.43727 0.0
C962 C 0.65694 0.42041 0.33769 0.0
C963 C 0.67914 0.45033 0.34018 0.0
C964 C 0.65915 0.39298 0.35984 0.0
C965 C 0.68346 0.39528 0.38479 0.0
C966 C 0.70739 0.42363 0.38491 0.0
C967 C 0.7054 0.4508 0.36261 0.0
H968 H 0.31001 0.42748 0.13072 0.0
H969 H 0.22029 0.36361 0.11048 0.0
H970 H 0.33697 0.37565 0.14061 0.0
H971 H 0.2474 0.31154 0.12037 0.0
H972 H 0.38007 0.27183 0.14476 0.0
H973 H 0.35537 0.31843 0.11765 0.0
H974 H 0.26575 0.29354 0.1783 0.0
H975 H 0.29043 0.24791 0.2061 0.0
C976 C 0.29635 0.40224 0.12725 0.0
C977 C 0.26296 0.3996 0.12016 0.0
C978 C 0.31183 0.37252 0.13287 0.0
C979 C 0.29415 0.33958 0.13184 0.0
C980 C 0.26149 0.33669 0.12181 0.0
C981 C 0.24606 0.36645 0.11578 0.0
C982 C 0.35515 0.27639 0.15247 0.0
C983 C 0.33733 0.25602 0.17775 0.0
C984 C 0.34095 0.30289 0.13669 0.0
C985 C 0.30851 0.30938 0.14555 0.0
C986 C 0.29054 0.28865 0.17027 0.0
C987 C 0.30478 0.26247 0.18628 0.0
H988 H 0.79226 0.2484 0.87893 0.0
H989 H 0.85214 0.19709 0.8002 0.0
H990 H 0.75523 0.1957 0.88258 0.0
H991 H 0.8157 0.14367 0.80489 0.0
H992 H 0.71513 0.07862 0.78776 0.0
H993 H 0.76037 0.12431 0.7877 0.0
H994 H 0.74972 0.13675 0.90104 0.0
H995 H 0.70403 0.09195 0.901 0.0
C996 C 0.79771 0.22569 0.86272 0.0
C997 C 0.82496 0.22698 0.83911 0.0
C998 C 0.77671 0.19532 0.86509 0.0
C999 C 0.78253 0.16547 0.84399 0.0
C1000 C 0.81042 0.16635 0.82124 0.0
C1001 C 0.83146 0.19681 0.81885 0.0
C1002 C 0.72279 0.0908 0.81267 0.0
C1003 C 0.70571 0.08215 0.84431 0.0
C1004 C 0.74881 0.11684 0.81268 0.0
C1005 C 0.75831 0.13449 0.84435 0.0
C1006 C 0.7425 0.1242 0.87615 0.0
C1007 C 0.71641 0.09842 0.87612 0.0
H1008 H 0.1134 0.53765 0.19845 0.0
H1009 H 0.19047 0.60556 0.15083 0.0
H1010 H 0.07287 0.57314 0.17795 0.0
H1011 H 0.14973 0.64131 0.13018 0.0
H1012 H 0.0244 0.59534 0.074 0.0
H1013 H 0.06424 0.57332 0.11005 0.0
H1014 H 0.09737 0.67797 0.14531 0.0
H1015 H 0.05613 0.70043 0.11048 0.0
C1016 C 0.12174 0.56133 0.18531 0.0
C1017 C 0.15503 0.56899 0.17641 0.0
C1018 C 0.09853 0.58134 0.17313 0.0
C1019 C 0.10817 0.60948 0.15186 0.0
C1020 C 0.14167 0.61976 0.14658 0.0
C1021 C 0.16503 0.59958 0.1588 0.0
C1022 C 0.03954 0.61384 0.0899 0.0
C1023 C 0.03653 0.64976 0.08942 0.0
C1024 C 0.06252 0.60114 0.11051 0.0
C1025 C 0.08355 0.62393 0.13088 0.0
C1026 C 0.08134 0.65986 0.12994 0.0
C1027 C 0.05786 0.67264 0.1097 0.0
H1028 H 0.84637 0.80933 0.36092 0.0
H1029 H 0.75067 0.84232 0.34664 0.0
H1030 H 0.82295 0.7487 0.36123 0.0
H1031 H 0.7273 0.78186 0.34795 0.0
H1032 H 0.68849 0.67626 0.36788 0.0
H1033 H 0.72213 0.72735 0.39052 0.0
H1034 H 0.7929 0.71407 0.30486 0.0
H1035 H 0.75881 0.66324 0.28194 0.0
C1036 C 0.82024 0.8037 0.35876 0.0
C1037 C 0.80025 0.8304 0.35351 0.0
C1038 C 0.80697 0.7691 0.35898 0.0
C1039 C 0.77345 0.76089 0.35493 0.0
C1040 C 0.75322 0.78774 0.35166 0.0
C1041 C 0.76656 0.82222 0.35063 0.0
C1042 C 0.71216 0.68318 0.35515 0.0
C1043 C 0.72145 0.66603 0.32349 0.0
C1044 C 0.73119 0.71244 0.3679 0.0
C1045 C 0.75976 0.7246 0.34916 0.0
C1046 C 0.77104 0.70488 0.31987 0.0
C1047 C 0.75174 0.67578 0.30685 0.0
H1048 H 0.48405 0.37874 0.59698 0.0
H1049 H 0.56165 0.42663 0.66082 0.0
H1050 H 0.44906 0.42318 0.61872 0.0
H1051 H 0.52658 0.47104 0.6827 0.0
H1052 H 0.47309 0.56845 0.66515 0.0
H1053 H 0.50582 0.51967 0.65629 0.0
H1054 H 0.41921 0.44832 0.66992 0.0
H1055 H 0.38604 0.49772 0.6783 0.0
C1056 C 0.49346 0.39842 0.61611 0.0
C1057 C 0.52576 0.39936 0.6269 0.0
C1058 C 0.47333 0.42382 0.6287 0.0
C1059 C 0.48504 0.45071 0.65239 0.0
C1060 C 0.51698 0.45095 0.66408 0.0
C1061 C 0.53712 0.42561 0.65144 0.0
C1062 C 0.461 0.54239 0.66685 0.0
C1063 C 0.42694 0.53691 0.67218 0.0
C1064 C 0.47985 0.51437 0.66199 0.0
C1065 C 0.46514 0.48007 0.66223 0.0
C1066 C 0.4312 0.47449 0.66922 0.0
C1067 C 0.41225 0.50271 0.67434 0.0
H1068 H 0.35143 0.73631 0.60495 0.0
H1069 H 0.30049 0.70441 0.70156 0.0
H1070 H 0.32355 0.78989 0.60849 0.0
H1071 H 0.27336 0.75761 0.7052 0.0
H1072 H 0.2469 0.866 0.71994 0.0
H1073 H 0.2874 0.82339 0.71362 0.0
H1074 H 0.26281 0.80176 0.60513 0.0
H1075 H 0.22231 0.84418 0.61158 0.0
C1076 C 0.33443 0.74077 0.62691 0.0
C1077 C 0.32795 0.71602 0.65279 0.0
C1078 C 0.31861 0.7714 0.62898 0.0
C1079 C 0.29665 0.77806 0.65736 0.0
C1080 C 0.2906 0.75349 0.68337 0.0
C1081 C 0.30588 0.72278 0.68101 0.0
C1082 C 0.25103 0.853 0.69447 0.0
C1083 C 0.23149 0.85813 0.6663 0.0
C1084 C 0.27395 0.82846 0.69091 0.0
C1085 C 0.27792 0.80903 0.65899 0.0
C1086 C 0.26036 0.81645 0.62996 0.0
C1087 C 0.23717 0.84062 0.63366 0.0
H1088 H 0.35926 0.9118 0.90978 0.0
H1089 H 0.43295 0.89426 0.98265 0.0
H1090 H 0.40238 0.93211 0.8669 0.0
H1091 H 0.47543 0.91382 0.93982 0.0
H1092 H 0.54405 0.90933 0.84804 0.0
H1093 H 0.4933 0.88656 0.87838 0.0
H1094 H 0.45117 0.98241 0.86302 0.0
H1095 H 0.50202 0.00515 0.83305 0.0
C1096 C 0.38451 0.91301 0.91698 0.0
C1097 C 0.39265 0.90122 0.94959 0.0
C1098 C 0.40911 0.92421 0.89229 0.0
C1099 C 0.44212 0.92333 0.89971 0.0
C1100 C 0.45014 0.91367 0.93305 0.0
C1101 C 0.42574 0.90297 0.95778 0.0
C1102 C 0.52331 0.92467 0.84949 0.0
C1103 C 0.52659 0.95871 0.83797 0.0
C1104 C 0.49451 0.91195 0.86729 0.0
C1105 C 0.46866 0.93308 0.87351 0.0
C1106 C 0.47071 0.96565 0.85851 0.0
C1107 C 0.49965 0.97851 0.84114 0.0
H1108 H 0.85841 0.05748 0.32059 0.0
H1109 H 0.94443 0.0023 0.30337 0.0
H1110 H 0.89313 0.11242 0.32727 0.0
H1111 H 0.97882 0.0561 0.31085 0.0
H1112 H 0.04014 0.15076 0.32937 0.0
H1113 H 0.00054 0.11233 0.2965 0.0
H1114 H 0.92564 0.13303 0.37614 0.0
H1115 H 0.96495 0.17264 0.40775 0.0
C1116 C 0.88465 0.0573 0.3171 0.0
C1117 C 0.89889 0.02579 0.31213 0.0
C1118 C 0.90453 0.08861 0.32121 0.0
C1119 C 0.93879 0.08865 0.32022 0.0
C1120 C 0.95264 0.05734 0.31156 0.0
C1121 C 0.9329 0.0263 0.30759 0.0
C1122 C 0.01499 0.14753 0.33927 0.0
C1123 C 0.00556 0.16394 0.37128 0.0
C1124 C 0.99232 0.12563 0.32052 0.0
C1125 C 0.96003 0.11907 0.33398 0.0
C1126 C 0.95015 0.13767 0.36473 0.0
C1127 C 0.97272 0.16009 0.3831 0.0
loop_
_geom_bond_atom_site_label_1
_geom_bond_atom_site_label_2
_geom_bond_distance
_geom_bond_site_symmetry_2
_ccdc_geom_bond_type
C0 O16 1.251 . S
C0 O18 1.254 . S
N1 C2 1.333 . S
N1 C6 1.307 . S
N1 Zn7 2.020 . S
C2 N1 1.333 . S
C2 C3 1.379 . S
C2 H20 0.952 . S
C3 C2 1.379 . S
C3 C4 1.390 . S
C3 H30 0.949 . S
C4 C3 1.390 . S
C4 C5 1.357 . S
C5 C4 1.357 . S
C5 C6 1.370 . S
C5 H31 0.950 . S
C6 N1 1.307 . S
C6 C5 1.370 . S
C6 H24 0.948 . S
Zn7 N1 2.020 . S
Zn7 O16 2.039 . S
Zn7 O22 2.034 . S
Zn7 O26 2.025 . S
Zn7 O28 2.024 . S
C8 O27 1.246 . S
C8 O28 1.249 . S
N9 C10 1.307 . S
N9 C11 1.333 . S
N9 Zn15 2.020 . S
C10 N9 1.307 . S
C10 C14 1.370 . S
C10 H21 0.948 . S
C11 N9 1.333 . S
C11 C12 1.379 . S
C11 H19 0.952 . S
C12 C11 1.379 . S
C12 C13 1.390 . S
C12 H32 0.949 . S
C13 C12 1.390 . S
C13 C14 1.357 . S
C14 C10 1.370 . S
C14 C13 1.357 . S
C14 H33 0.950 . S
Zn15 N9 2.020 . S
Zn15 O18 2.025 . S
Zn15 O23 2.024 . S
Zn15 O25 2.039 . S
Zn15 O27 2.034 . S
O16 C0 1.251 . S
O16 Zn7 2.039 . S
C17 O22 1.246 . S
C17 O23 1.249 . S
O18 C0 1.254 . S
O18 Zn15 2.025 . S
H19 C11 0.952 . S
H20 C2 0.952 . S
H21 C10 0.948 . S
O22 Zn7 2.034 . S
O22 C17 1.246 . S
O23 Zn15 2.024 . S
O23 C17 1.249 . S
H24 C6 0.948 . S
O25 Zn15 2.039 . S
O25 C29 1.251 . S
O26 Zn7 2.025 . S
O26 C29 1.254 . S
O27 C8 1.246 . S
O27 Zn15 2.034 . S
O28 Zn7 2.024 . S
O28 C8 1.249 . S
C29 O25 1.251 . S
C29 O26 1.254 . S
H30 C3 0.949 . S
H31 C5 0.950 . S
H32 C12 0.949 . S
H33 C14 0.950 . S
C34 O50 1.251 . S
C34 O52 1.254 . S
N35 C36 1.333 . S
N35 C40 1.307 . S
N35 Zn41 2.020 . S
C36 N35 1.333 . S
C36 C37 1.379 . S
C36 H54 0.952 . S
C37 C36 1.379 . S
C37 C38 1.390 . S
C37 H64 0.949 . S
C38 C37 1.390 . S
C38 C39 1.357 . S
C39 C38 1.357 . S
C39 C40 1.370 . S
C39 H65 0.950 . S
C40 N35 1.307 . S
C40 C39 1.370 . S
C40 H58 0.948 . S
Zn41 N35 2.020 . S
Zn41 O50 2.039 . S
Zn41 O56 2.034 . S
Zn41 O60 2.025 . S
Zn41 O62 2.024 . S
C42 O61 1.246 . S
C42 O62 1.249 . S
N43 C44 1.307 . S
N43 C45 1.333 1_455 S
N43 Zn49 2.020 . S
C44 N43 1.307 . S
C44 C48 1.370 1_565 S
C44 H55 0.948 . S
C45 N43 1.333 1_655 S
C45 C46 1.379 . S
C45 H53 0.952 . S
C46 C45 1.379 . S
C46 C47 1.390 . S
C46 H66 0.949 . S
C47 C46 1.390 . S
C47 C48 1.357 1_665 S
C48 C44 1.370 1_545 S
C48 C47 1.357 1_445 S
C48 H67 0.950 . S
Zn49 N43 2.020 . S
Zn49 O52 2.025 . S
Zn49 O57 2.024 . S
Zn49 O59 2.039 . S
Zn49 O61 2.034 . S
O50 C34 1.251 . S
O50 Zn41 2.039 . S
C51 O56 1.246 . S
C51 O57 1.249 . S
O52 C34 1.254 . S
O52 Zn49 2.025 . S
H53 C45 0.952 . S
H54 C36 0.952 . S
H55 C44 0.948 . S
O56 Zn41 2.034 . S
O56 C51 1.246 . S
O57 Zn49 2.024 . S
O57 C51 1.249 . S
H58 C40 0.948 . S
O59 Zn49 2.039 . S
O59 C63 1.251 . S
O60 Zn41 2.025 . S
O60 C63 1.254 . S
O61 C42 1.246 . S
O61 Zn49 2.034 . S
O62 Zn41 2.024 . S
O62 C42 1.249 . S
C63 O59 1.251 . S
C63 O60 1.254 . S
H64 C37 0.949 . S
H65 C39 0.950 . S
H66 C46 0.949 . S
H67 C48 0.950 . S
C68 O84 1.251 . S
C68 O86 1.254 . S
N69 C70 1.333 . S
N69 C74 1.307 . S
N69 Zn75 2.020 . S
C70 N69 1.333 . S
C70 C71 1.379 . S
C70 H88 0.952 . S
C71 C70 1.379 . S
C71 C72 1.390 . S
C71 H98 0.949 . S
C72 C71 1.390 . S
C72 C73 1.357 . S
C73 C72 1.357 . S
C73 C74 1.370 . S
C73 H99 0.950 . S
C74 N69 1.307 . S
C74 C73 1.370 . S
C74 H92 0.948 . S
Zn75 N69 2.020 . S
Zn75 O84 2.039 . S
Zn75 O90 2.034 . S
Zn75 O94 2.025 . S
Zn75 O96 2.024 . S
C76 O95 1.246 . S
C76 O96 1.249 . S
N77 C78 1.307 1_554 S
N77 C79 1.332 . S
N77 Zn83 2.020 1_554 S
C78 N77 1.307 1_556 S
C78 C82 1.370 1_556 S
C78 H89 0.948 . S
C79 N77 1.332 . S
C79 C80 1.379 . S
C79 H87 0.952 . S
C80 C79 1.379 . S
C80 C81 1.390 . S
C80 H100 0.949 . S
C81 C80 1.390 . S
C81 C82 1.357 . S
C82 C78 1.370 1_554 S
C82 C81 1.357 . S
C82 H101 0.950 1_554 S
Zn83 N77 2.020 1_556 S
Zn83 O86 2.025 . S
Zn83 O91 2.024 . S
Zn83 O93 2.039 1_556 S
Zn83 O95 2.034 . S
O84 C68 1.251 . S
O84 Zn75 2.039 . S
C85 O90 1.246 . S
C85 O91 1.249 . S
O86 C68 1.254 . S
O86 Zn83 2.025 . S
H87 C79 0.952 . S
H88 C70 0.952 . S
H89 C78 0.948 . S
O90 Zn75 2.034 . S
O90 C85 1.246 . S
O91 Zn83 2.024 . S
O91 C85 1.249 . S
H92 C74 0.948 . S
O93 Zn83 2.039 1_554 S
O93 C97 1.251 . S
O94 Zn75 2.025 . S
O94 C97 1.254 1_556 S
O95 C76 1.246 . S
O95 Zn83 2.034 . S
O96 Zn75 2.024 . S
O96 C76 1.249 . S
C97 O93 1.251 . S
C97 O94 1.254 1_554 S
H98 C71 0.949 . S
H99 C73 0.950 . S
H100 C80 0.949 . S
H101 C82 0.950 1_556 S
C102 O118 1.251 . S
C102 O120 1.254 . S
N103 C104 1.333 . S
N103 C108 1.307 . S
N103 Zn109 2.020 . S
C104 N103 1.333 . S
C104 C105 1.379 . S
C104 H122 0.952 . S
C105 C104 1.379 . S
C105 C106 1.390 . S
C105 H132 0.949 . S
C106 C105 1.390 . S
C106 C107 1.357 . S
C107 C106 1.357 . S
C107 C108 1.370 . S
C107 H133 0.950 . S
C108 N103 1.307 . S
C108 C107 1.370 . S
C108 H126 0.948 . S
Zn109 N103 2.020 . S
Zn109 O118 2.039 . S
Zn109 O124 2.034 . S
Zn109 O128 2.025 . S
Zn109 O130 2.024 . S
C110 O129 1.246 . S
C110 O130 1.249 . S
N111 C112 1.307 . S
N111 C113 1.333 . S
N111 Zn117 2.020 . S
C112 N111 1.307 . S
C112 C116 1.370 . S
C112 H123 0.948 . S
C113 N111 1.333 . S
C113 C114 1.379 . S
C113 H121 0.952 . S
C114 C113 1.379 . S
C114 C115 1.390 . S
C114 H134 0.949 . S
C115 C114 1.390 . S
C115 C116 1.357 . S
C116 C112 1.370 . S
C116 C115 1.357 . S
C116 H135 0.949 1_545 S
Zn117 N111 2.020 . S
Zn117 O120 2.025 . S
Zn117 O125 2.024 . S
Zn117 O127 2.039 . S
Zn117 O129 2.034 . S
O118 C102 1.251 . S
O118 Zn109 2.039 . S
C119 O124 1.246 . S
C119 O125 1.249 . S
O120 C102 1.254 . S
O120 Zn117 2.025 . S
H121 C113 0.952 . S
H122 C104 0.952 . S
H123 C112 0.948 . S
O124 Zn109 2.034 . S
O124 C119 1.246 . S
O125 Zn117 2.024 . S
O125 C119 1.249 . S
H126 C108 0.948 . S
O127 Zn117 2.039 . S
O127 C131 1.251 . S
O128 Zn109 2.025 . S
O128 C131 1.254 . S
O129 C110 1.246 . S
O129 Zn117 2.034 . S
O130 Zn109 2.024 . S
O130 C110 1.249 . S
C131 O127 1.251 . S
C131 O128 1.254 . S
H132 C105 0.949 . S
H133 C107 0.950 . S
H134 C114 0.949 . S
H135 C116 0.949 1_565 S
C136 O152 1.251 . S
C136 O154 1.254 . S
N137 C138 1.333 . S
N137 C142 1.307 . S
N137 Zn143 2.020 . S
C138 N137 1.333 . S
C138 C139 1.379 . S
C138 H156 0.952 . S
C139 C138 1.379 . S
C139 C140 1.390 . S
C139 H166 0.949 . S
C140 C139 1.390 . S
C140 C141 1.357 . S
C141 C140 1.357 . S
C141 C142 1.370 . S
C141 H167 0.950 . S
C142 N137 1.307 . S
C142 C141 1.370 . S
C142 H160 0.948 . S
Zn143 N137 2.020 . S
Zn143 O152 2.039 . S
Zn143 O158 2.034 . S
Zn143 O162 2.025 . S
Zn143 O164 2.024 . S
C144 O163 1.246 . S
C144 O164 1.249 . S
N145 C146 1.307 . S
N145 C147 1.333 . S
N145 Zn151 2.020 . S
C146 N145 1.307 . S
C146 C150 1.370 . S
C146 H157 0.948 . S
C147 N145 1.333 . S
C147 C148 1.379 . S
C147 H155 0.952 . S
C148 C147 1.379 . S
C148 C149 1.390 . S
C148 H168 0.949 . S
C149 C148 1.390 . S
C149 C150 1.357 . S
C150 C146 1.370 . S
C150 C149 1.357 . S
C150 H169 0.950 . S
Zn151 N145 2.020 . S
Zn151 O154 2.025 . S
Zn151 O159 2.024 . S
Zn151 O161 2.039 . S
Zn151 O163 2.034 . S
O152 C136 1.251 . S
O152 Zn143 2.039 . S
C153 O158 1.246 . S
C153 O159 1.249 . S
O154 C136 1.254 . S
O154 Zn151 2.025 . S
H155 C147 0.952 . S
H156 C138 0.952 . S
H157 C146 0.948 . S
O158 Zn143 2.034 . S
O158 C153 1.246 . S
O159 Zn151 2.024 . S
O159 C153 1.249 . S
H160 C142 0.948 . S
O161 Zn151 2.039 . S
O161 C165 1.251 . S
O162 Zn143 2.025 . S
O162 C165 1.254 . S
O163 C144 1.246 . S
O163 Zn151 2.034 . S
O164 Zn143 2.024 . S
O164 C144 1.249 . S
C165 O161 1.251 . S
C165 O162 1.254 . S
H166 C139 0.949 . S
H167 C141 0.950 . S
H168 C148 0.949 . S
H169 C150 0.950 . S
C170 O186 1.251 . S
C170 O188 1.254 . S
N171 C172 1.333 . S
N171 C176 1.307 . S
N171 Zn177 2.020 . S
C172 N171 1.333 . S
C172 C173 1.379 . S
C172 H190 0.952 . S
C173 C172 1.379 . S
C173 C174 1.390 . S
C173 H200 0.949 . S
C174 C173 1.390 . S
C174 C175 1.357 . S
C175 C174 1.357 . S
C175 C176 1.370 . S
C175 H201 0.950 . S
C176 N171 1.307 . S
C176 C175 1.370 . S
C176 H194 0.948 . S
Zn177 N171 2.020 . S
Zn177 O186 2.039 . S
Zn177 O192 2.034 . S
Zn177 O196 2.025 . S
Zn177 O198 2.024 . S
C178 O197 1.246 . S
C178 O198 1.249 . S
N179 C180 1.307 . S
N179 C181 1.333 1_655 S
N179 Zn185 2.020 . S
C180 N179 1.307 . S
C180 C184 1.370 . S
C180 H191 0.948 . S
C181 N179 1.333 1_455 S
C181 C182 1.379 . S
C181 H189 0.952 . S
C182 C181 1.379 . S
C182 C183 1.390 . S
C182 H202 0.949 . S
C183 C182 1.390 . S
C183 C184 1.357 1_455 S
C184 C180 1.370 . S
C184 C183 1.357 1_655 S
C184 H203 0.950 . S
Zn185 N179 2.020 . S
Zn185 O188 2.025 . S
Zn185 O193 2.024 . S
Zn185 O195 2.039 . S
Zn185 O197 2.034 . S
O186 C170 1.251 . S
O186 Zn177 2.039 . S
C187 O192 1.246 . S
C187 O193 1.249 . S
O188 C170 1.254 . S
O188 Zn185 2.025 . S
H189 C181 0.952 . S
H190 C172 0.952 . S
H191 C180 0.948 . S
O192 Zn177 2.034 . S
O192 C187 1.246 . S
O193 Zn185 2.024 . S
O193 C187 1.249 . S
H194 C176 0.948 . S
O195 Zn185 2.039 . S
O195 C199 1.251 . S
O196 Zn177 2.025 . S
O196 C199 1.254 . S
O197 C178 1.246 . S
O197 Zn185 2.034 . S
O198 Zn177 2.024 . S
O198 C178 1.249 . S
C199 O195 1.251 . S
C199 O196 1.254 . S
H200 C173 0.949 . S
H201 C175 0.950 . S
H202 C182 0.949 . S
H203 C184 0.950 . S
C204 O220 1.251 1_556 S
C204 O222 1.254 . S
N205 C206 1.333 . S
N205 C210 1.307 . S
N205 Zn211 2.020 . S
C206 N205 1.333 . S
C206 C207 1.379 . S
C206 H224 0.952 . S
C207 C206 1.379 . S
C207 C208 1.390 . S
C207 H234 0.949 . S
C208 C207 1.390 . S
C208 C209 1.357 . S
C209 C208 1.357 . S
C209 C210 1.370 . S
C209 H235 0.950 1_655 S
C210 N205 1.307 . S
C210 C209 1.370 . S
C210 H228 0.948 . S
Zn211 N205 2.020 . S
Zn211 O220 2.039 . S
Zn211 O226 2.034 . S
Zn211 O230 2.025 . S
Zn211 O232 2.024 . S
C212 O231 1.246 . S
C212 O232 1.249 1_556 S
N213 C214 1.307 . S
N213 C215 1.333 1_556 S
N213 Zn219 2.020 1_556 S
C214 N213 1.307 . S
C214 C218 1.370 . S
C214 H225 0.948 . S
C215 N213 1.333 1_554 S
C215 C216 1.379 1_554 S
C215 H223 0.952 . S
C216 C215 1.379 1_556 S
C216 C217 1.390 . S
C216 H236 0.949 . S
C217 C216 1.390 . S
C217 C218 1.357 . S
C218 C214 1.370 . S
C218 C217 1.357 . S
C218 H237 0.950 . S
Zn219 N213 2.020 1_554 S
Zn219 O222 2.025 1_554 S
Zn219 O227 2.024 . S
Zn219 O229 2.039 . S
Zn219 O231 2.034 1_554 S
O220 C204 1.251 1_554 S
O220 Zn211 2.039 . S
C221 O226 1.246 . S
C221 O227 1.249 . S
O222 C204 1.254 . S
O222 Zn219 2.025 1_556 S
H223 C215 0.952 . S
H224 C206 0.952 . S
H225 C214 0.948 . S
O226 Zn211 2.034 . S
O226 C221 1.246 . S
O227 Zn219 2.024 . S
O227 C221 1.249 . S
H228 C210 0.948 . S
O229 Zn219 2.039 . S
O229 C233 1.251 . S
O230 Zn211 2.025 . S
O230 C233 1.254 . S
O231 C212 1.246 . S
O231 Zn219 2.034 1_556 S
O232 Zn211 2.024 . S
O232 C212 1.249 1_554 S
C233 O229 1.251 . S
C233 O230 1.254 . S
H234 C207 0.949 . S
H235 C209 0.950 1_455 S
H236 C216 0.949 . S
H237 C218 0.950 . S
C238 O254 1.251 . S
C238 O256 1.254 . S
N239 C240 1.333 . S
N239 C244 1.307 . S
N239 Zn245 2.020 . S
C240 N239 1.333 . S
C240 C241 1.379 . S
C240 H258 0.952 . S
C241 C240 1.379 . S
C241 C242 1.390 . S
C241 H268 0.949 . S
C242 C241 1.390 . S
C242 C243 1.357 . S
C243 C242 1.357 . S
C243 C244 1.370 . S
C243 H269 0.950 . S
C244 N239 1.307 . S
C244 C243 1.370 . S
C244 H262 0.948 . S
Zn245 N239 2.020 . S
Zn245 O254 2.039 . S
Zn245 O260 2.034 . S
Zn245 O264 2.025 . S
Zn245 O266 2.024 . S
C246 O265 1.246 . S
C246 O266 1.249 . S
N247 C248 1.307 . S
N247 C249 1.333 . S
N247 Zn253 2.020 . S
C248 N247 1.307 . S
C248 C252 1.370 . S
C248 H259 0.948 . S
C249 N247 1.333 . S
C249 C250 1.379 . S
C249 H257 0.952 . S
C250 C249 1.379 . S
C250 C251 1.390 . S
C250 H270 0.949 . S
C251 C250 1.390 . S
C251 C252 1.357 . S
C252 C248 1.370 . S
C252 C251 1.357 . S
C252 H271 0.950 . S
Zn253 N247 2.020 . S
Zn253 O256 2.025 . S
Zn253 O261 2.024 . S
Zn253 O263 2.039 . S
Zn253 O265 2.034 . S
O254 C238 1.251 . S
O254 Zn245 2.039 . S
C255 O260 1.246 . S
C255 O261 1.249 . S
O256 C238 1.254 . S
O256 Zn253 2.025 . S
H257 C249 0.952 . S
H258 C240 0.952 . S
H259 C248 0.948 . S
O260 Zn245 2.034 . S
O260 C255 1.246 . S
O261 Zn253 2.024 . S
O261 C255 1.249 . S
H262 C244 0.948 . S
O263 Zn253 2.039 . S
O263 C267 1.251 . S
O264 Zn245 2.025 . S
O264 C267 1.254 . S
O265 C246 1.246 . S
O265 Zn253 2.034 . S
O266 Zn245 2.024 . S
O266 C246 1.249 . S
C267 O263 1.251 . S
C267 O264 1.254 . S
H268 C241 0.949 . S
H269 C243 0.950 . S
H270 C250 0.949 . S
H271 C252 0.950 . S
C272 O288 1.251 . S
C272 O290 1.254 . S
N273 C274 1.333 . S
N273 C278 1.307 . S
N273 Zn279 2.020 . S
C274 N273 1.333 . S
C274 C275 1.379 . S
C274 H292 0.952 . S
C275 C274 1.379 . S
C275 C276 1.390 . S
C275 H302 0.949 . S
C276 C275 1.390 . S
C276 C277 1.357 . S
C277 C276 1.357 . S
C277 C278 1.370 . S
C277 H303 0.950 . S
C278 N273 1.307 . S
C278 C277 1.370 . S
C278 H296 0.948 . S
Zn279 N273 2.020 . S
Zn279 O288 2.039 . S
Zn279 O294 2.034 . S
Zn279 O298 2.025 . S
Zn279 O300 2.024 . S
C280 O299 1.246 . S
C280 O300 1.249 . S
N281 C282 1.307 . S
N281 C283 1.333 . S
N281 Zn287 2.020 . S
C282 N281 1.307 . S
C282 C286 1.370 . S
C282 H293 0.948 . S
C283 N281 1.333 . S
C283 C284 1.379 . S
C283 H291 0.952 . S
C284 C283 1.379 . S
C284 C285 1.390 . S
C284 H304 0.949 . S
C285 C284 1.390 . S
C285 C286 1.357 . S
C286 C282 1.370 . S
C286 C285 1.357 . S
C286 H305 0.950 . S
Zn287 N281 2.020 . S
Zn287 O290 2.025 . S
Zn287 O295 2.024 . S
Zn287 O297 2.039 . S
Zn287 O299 2.034 . S
O288 C272 1.251 . S
O288 Zn279 2.039 . S
C289 O294 1.246 . S
C289 O295 1.249 . S
O290 C272 1.254 . S
O290 Zn287 2.025 . S
H291 C283 0.952 . S
H292 C274 0.952 . S
H293 C282 0.948 . S
O294 Zn279 2.034 . S
O294 C289 1.246 . S
O295 Zn287 2.024 . S
O295 C289 1.249 . S
H296 C278 0.948 . S
O297 Zn287 2.039 . S
O297 C301 1.251 . S
O298 Zn279 2.025 . S
O298 C301 1.254 . S
O299 C280 1.246 . S
O299 Zn287 2.034 . S
O300 Zn279 2.024 . S
O300 C280 1.249 . S
C301 O297 1.251 . S
C301 O298 1.254 . S
H302 C275 0.949 . S
H303 C277 0.950 . S
H304 C284 0.949 . S
H305 C286 0.950 . S
C306 O322 1.251 . S
C306 O324 1.254 . S
N307 C308 1.333 . S
N307 C312 1.307 . S
N307 Zn313 2.020 . S
C308 N307 1.333 . S
C308 C309 1.379 . S
C308 H326 0.952 . S
C309 C308 1.379 . S
C309 C310 1.390 . S
C309 H336 0.949 . S
C310 C309 1.390 . S
C310 C311 1.357 . S
C311 C310 1.357 . S
C311 C312 1.370 . S
C311 H337 0.950 1_556 S
C312 N307 1.307 . S
C312 C311 1.370 . S
C312 H330 0.948 . S
Zn313 N307 2.020 . S
Zn313 O322 2.039 . S
Zn313 O328 2.034 . S
Zn313 O332 2.025 . S
Zn313 O334 2.024 . S
C314 O333 1.246 . S
C314 O334 1.249 . S
N315 C316 1.307 . S
N315 C317 1.333 . S
N315 Zn321 2.020 . S
C316 N315 1.307 . S
C316 C320 1.370 1_545 S
C316 H327 0.949 . S
C317 N315 1.333 . S
C317 C318 1.379 . S
C317 H325 0.952 . S
C318 C317 1.379 . S
C318 C319 1.390 1_545 S
C318 H338 0.949 . S
C319 C318 1.390 1_565 S
C319 C320 1.357 . S
C320 C316 1.370 1_565 S
C320 C319 1.357 . S
C320 H339 0.950 . S
Zn321 N315 2.020 . S
Zn321 O324 2.025 . S
Zn321 O329 2.024 . S
Zn321 O331 2.039 . S
Zn321 O333 2.034 . S
O322 C306 1.251 . S
O322 Zn313 2.039 . S
C323 O328 1.246 . S
C323 O329 1.249 . S
O324 C306 1.254 . S
O324 Zn321 2.025 . S
H325 C317 0.952 . S
H326 C308 0.952 . S
H327 C316 0.949 . S
O328 Zn313 2.034 . S
O328 C323 1.246 . S
O329 Zn321 2.024 . S
O329 C323 1.249 . S
H330 C312 0.948 . S
O331 Zn321 2.039 . S
O331 C335 1.251 . S
O332 Zn313 2.025 . S
O332 C335 1.254 . S
O333 C314 1.246 . S
O333 Zn321 2.034 . S
O334 Zn313 2.024 . S
O334 C314 1.249 . S
C335 O331 1.251 . S
C335 O332 1.254 . S
H336 C309 0.949 . S
H337 C311 0.950 1_554 S
H338 C318 0.949 . S
H339 C320 0.950 . S
C340 O356 1.251 . S
C340 O358 1.254 . S
N341 C342 1.333 . S
N341 C346 1.307 . S
N341 Zn347 2.020 . S
C342 N341 1.333 . S
C342 C343 1.379 . S
C342 H360 0.952 . S
C343 C342 1.379 . S
C343 C344 1.390 . S
C343 H370 0.949 . S
C344 C343 1.390 . S
C344 C345 1.357 . S
C345 C344 1.357 . S
C345 C346 1.370 . S
C345 H371 0.950 . S
C346 N341 1.307 . S
C346 C345 1.370 . S
C346 H364 0.948 . S
Zn347 N341 2.020 . S
Zn347 O356 2.039 . S
Zn347 O362 2.034 . S
Zn347 O366 2.025 . S
Zn347 O368 2.024 . S
C348 O367 1.246 . S
C348 O368 1.249 . S
N349 C350 1.307 . S
N349 C351 1.333 . S
N349 Zn355 2.020 . S
C350 N349 1.307 . S
C350 C354 1.370 . S
C350 H361 0.948 . S
C351 N349 1.333 . S
C351 C352 1.379 . S
C351 H359 0.952 . S
C352 C351 1.379 . S
C352 C353 1.390 . S
C352 H372 0.949 . S
C353 C352 1.390 . S
C353 C354 1.357 . S
C354 C350 1.370 . S
C354 C353 1.357 . S
C354 H373 0.950 1_565 S
Zn355 N349 2.020 . S
Zn355 O358 2.025 . S
Zn355 O363 2.024 . S
Zn355 O365 2.039 . S
Zn355 O367 2.034 . S
O356 C340 1.251 . S
O356 Zn347 2.039 . S
C357 O362 1.246 . S
C357 O363 1.249 . S
O358 C340 1.254 . S
O358 Zn355 2.025 . S
H359 C351 0.952 . S
H360 C342 0.952 . S
H361 C350 0.948 . S
O362 Zn347 2.034 . S
O362 C357 1.246 . S
O363 Zn355 2.024 . S
O363 C357 1.249 . S
H364 C346 0.948 . S
O365 Zn355 2.039 . S
O365 C369 1.251 . S
O366 Zn347 2.025 . S
O366 C369 1.254 . S
O367 C348 1.246 . S
O367 Zn355 2.034 . S
O368 Zn347 2.024 . S
O368 C348 1.249 . S
C369 O365 1.251 . S
C369 O366 1.254 . S
H370 C343 0.949 . S
H371 C345 0.950 . S
H372 C352 0.949 . S
H373 C354 0.950 1_545 S
C374 O390 1.251 . S
C374 O392 1.254 . S
N375 C376 1.333 . S
N375 C380 1.307 . S
N375 Zn381 2.020 . S
C376 N375 1.333 . S
C376 C377 1.379 . S
C376 H394 0.952 . S
C377 C376 1.379 . S
C377 C378 1.390 . S
C377 H404 0.949 . S
C378 C377 1.390 . S
C378 C379 1.357 . S
C379 C378 1.357 . S
C379 C380 1.370 . S
C379 H405 0.950 . S
C380 N375 1.307 . S
C380 C379 1.370 . S
C380 H398 0.948 . S
Zn381 N375 2.020 . S
Zn381 O390 2.039 . S
Zn381 O396 2.034 . S
Zn381 O400 2.025 . S
Zn381 O402 2.024 . S
C382 O401 1.246 . S
C382 O402 1.249 . S
N383 C384 1.307 . S
N383 C385 1.333 . S
N383 Zn389 2.020 . S
C384 N383 1.307 . S
C384 C388 1.370 . S
C384 H395 0.948 . S
C385 N383 1.333 . S
C385 C386 1.379 . S
C385 H393 0.952 . S
C386 C385 1.379 . S
C386 C387 1.390 . S
C386 H406 0.949 . S
C387 C386 1.390 . S
C387 C388 1.357 . S
C388 C384 1.370 . S
C388 C387 1.357 . S
C388 H407 0.950 . S
Zn389 N383 2.020 . S
Zn389 O392 2.025 . S
Zn389 O397 2.024 . S
Zn389 O399 2.039 . S
Zn389 O401 2.034 . S
O390 C374 1.251 . S
O390 Zn381 2.039 . S
C391 O396 1.246 . S
C391 O397 1.249 . S
O392 C374 1.254 . S
O392 Zn389 2.025 . S
H393 C385 0.952 . S
H394 C376 0.952 . S
H395 C384 0.948 . S
O396 Zn381 2.034 . S
O396 C391 1.246 . S
O397 Zn389 2.024 . S
O397 C391 1.249 . S
H398 C380 0.948 . S
O399 Zn389 2.039 . S
O399 C403 1.251 . S
O400 Zn381 2.025 . S
O400 C403 1.254 . S
O401 C382 1.246 . S
O401 Zn389 2.034 . S
O402 Zn381 2.024 . S
O402 C382 1.249 . S
C403 O399 1.251 . S
C403 O400 1.254 . S
H404 C377 0.949 . S
H405 C379 0.950 . S
H406 C386 0.949 . S
H407 C388 0.950 . S
H408 C416 0.950 . S
H409 C421 0.950 . S
H410 C418 0.950 . S
H411 C420 0.950 . S
H412 C422 0.950 . S
H413 C424 0.950 . S
H414 C426 0.950 . S
H415 C427 0.950 . S
C416 H408 0.950 . S
C416 C417 1.386 . S
C416 C418 1.391 . S
C417 C416 1.386 . S
C417 C421 1.393 . S
C418 H410 0.950 . S
C418 C416 1.391 . S
C418 C419 1.400 . S
C419 C418 1.400 . S
C419 C420 1.398 . S
C419 C425 1.491 . S
C420 H411 0.950 . S
C420 C419 1.398 . S
C420 C421 1.391 . S
C421 H409 0.950 . S
C421 C417 1.393 . S
C421 C420 1.391 . S
C422 H412 0.950 . S
C422 C423 1.386 . S
C422 C424 1.391 . S
C423 C422 1.386 . S
C423 C427 1.393 . S
C424 H413 0.950 . S
C424 C422 1.391 . S
C424 C425 1.400 . S
C425 C419 1.491 . S
C425 C424 1.400 . S
C425 C426 1.398 . S
C426 H414 0.950 . S
C426 C425 1.398 . S
C426 C427 1.391 . S
C427 H415 0.950 . S
C427 C423 1.393 . S
C427 C426 1.391 . S
H428 C436 0.950 . S
H429 C441 0.950 . S
H430 C438 0.950 . S
H431 C440 0.950 . S
H432 C442 0.950 . S
H433 C444 0.950 . S
H434 C446 0.950 . S
H435 C447 0.950 . S
C436 H428 0.950 . S
C436 C437 1.386 1_545 S
C436 C438 1.391 . S
C437 C436 1.386 1_565 S
C437 C441 1.393 . S
C438 H430 0.950 . S
C438 C436 1.391 . S
C438 C439 1.400 1_545 S
C439 C438 1.400 1_565 S
C439 C440 1.398 . S
C439 C445 1.491 1_565 S
C440 H431 0.950 . S
C440 C439 1.398 . S
C440 C441 1.391 . S
C441 H429 0.950 . S
C441 C437 1.393 . S
C441 C440 1.391 . S
C442 H432 0.950 . S
C442 C443 1.386 1_565 S
C442 C444 1.391 . S
C443 C442 1.386 1_545 S
C443 C447 1.393 . S
C444 H433 0.950 . S
C444 C442 1.391 . S
C444 C445 1.400 1_565 S
C445 C439 1.491 1_545 S
C445 C444 1.400 1_545 S
C445 C446 1.398 . S
C446 H434 0.950 . S
C446 C445 1.398 . S
C446 C447 1.391 . S
C447 H435 0.950 . S
C447 C443 1.393 . S
C447 C446 1.391 . S
H448 C456 0.950 1_556 S
H449 C461 0.950 . S
H450 C458 0.950 . S
H451 C460 0.950 . S
H452 C462 0.950 . S
H453 C464 0.950 . S
H454 C466 0.950 . S
H455 C467 0.950 . S
C456 H448 0.950 1_554 S
C456 C457 1.386 . S
C456 C458 1.391 . S
C457 C456 1.386 . S
C457 C461 1.393 . S
C458 H450 0.950 . S
C458 C456 1.391 . S
C458 C459 1.400 . S
C459 C458 1.400 . S
C459 C460 1.398 . S
C459 C465 1.491 . S
C460 H451 0.950 . S
C460 C459 1.398 . S
C460 C461 1.391 . S
C461 H449 0.950 . S
C461 C457 1.393 . S
C461 C460 1.391 . S
C462 H452 0.950 . S
C462 C463 1.386 . S
C462 C464 1.391 . S
C463 C462 1.386 . S
C463 C467 1.393 . S
C464 H453 0.950 . S
C464 C462 1.391 . S
C464 C465 1.400 . S
C465 C459 1.491 . S
C465 C464 1.400 . S
C465 C466 1.398 . S
C466 H454 0.950 . S
C466 C465 1.398 . S
C466 C467 1.391 . S
C467 H455 0.950 . S
C467 C463 1.393 . S
C467 C466 1.391 . S
H468 C476 0.950 . S
H469 C481 0.950 . S
H470 C478 0.950 . S
H471 C480 0.950 . S
H472 C482 0.950 . S
H473 C484 0.950 . S
H474 C486 0.950 . S
H475 C487 0.950 . S
C476 H468 0.950 . S
C476 C477 1.386 1_565 S
C476 C478 1.391 . S
C477 C476 1.386 1_545 S
C477 C481 1.393 . S
C478 H470 0.950 . S
C478 C476 1.391 . S
C478 C479 1.400 . S
C479 C478 1.400 . S
C479 C480 1.398 1_565 S
C479 C485 1.491 . S
C480 H471 0.950 . S
C480 C479 1.398 1_545 S
C480 C481 1.391 . S
C481 H469 0.950 . S
C481 C477 1.393 . S
C481 C480 1.391 . S
C482 H472 0.950 . S
C482 C483 1.386 1_545 S
C482 C484 1.391 . S
C483 C482 1.386 1_565 S
C483 C487 1.393 . S
C484 H473 0.950 . S
C484 C482 1.391 . S
C484 C485 1.400 1_545 S
C485 C479 1.491 . S
C485 C484 1.400 1_565 S
C485 C486 1.398 . S
C486 H474 0.950 . S
C486 C485 1.398 . S
C486 C487 1.391 . S
C487 H475 0.950 . S
C487 C483 1.393 . S
C487 C486 1.391 . S
H488 C496 0.950 . S
H489 C501 0.950 . S
H490 C498 0.950 . S
H491 C500 0.950 . S
H492 C502 0.950 . S
H493 C504 0.950 . S
H494 C506 0.950 . S
H495 C507 0.950 . S
C496 H488 0.950 . S
C496 C497 1.386 . S
C496 C498 1.391 . S
C497 C496 1.386 . S
C497 C501 1.393 . S
C498 H490 0.950 . S
C498 C496 1.391 . S
C498 C499 1.400 . S
C499 C498 1.400 . S
C499 C500 1.398 . S
C499 C505 1.491 . S
C500 H491 0.950 . S
C500 C499 1.398 . S
C500 C501 1.391 . S
C501 H489 0.950 . S
C501 C497 1.393 . S
C501 C500 1.391 . S
C502 H492 0.950 . S
C502 C503 1.386 . S
C502 C504 1.391 1_565 S
C503 C502 1.386 . S
C503 C507 1.393 1_565 S
C504 H493 0.950 . S
C504 C502 1.391 1_545 S
C504 C505 1.400 . S
C505 C499 1.491 . S
C505 C504 1.400 . S
C505 C506 1.398 . S
C506 H494 0.950 . S
C506 C505 1.398 . S
C506 C507 1.391 . S
C507 H495 0.950 . S
C507 C503 1.393 1_545 S
C507 C506 1.391 . S
H508 C516 0.950 . S
H509 C521 0.950 . S
H510 C518 0.950 . S
H511 C520 0.950 . S
H512 C522 0.950 . S
H513 C524 0.950 . S
H514 C526 0.950 . S
H515 C527 0.950 . S
C516 H508 0.950 . S
C516 C517 1.386 . S
C516 C518 1.391 . S
C517 C516 1.386 . S
C517 C521 1.393 . S
C518 H510 0.950 . S
C518 C516 1.391 . S
C518 C519 1.400 . S
C519 C518 1.400 . S
C519 C520 1.398 . S
C519 C525 1.491 . S
C520 H511 0.950 . S
C520 C519 1.398 . S
C520 C521 1.391 . S
C521 H509 0.950 . S
C521 C517 1.393 . S
C521 C520 1.391 . S
C522 H512 0.950 . S
C522 C523 1.386 . S
C522 C524 1.391 . S
C523 C522 1.386 . S
C523 C527 1.393 . S
C524 H513 0.950 . S
C524 C522 1.391 . S
C524 C525 1.400 . S
C525 C519 1.491 . S
C525 C524 1.400 . S
C525 C526 1.398 . S
C526 H514 0.950 . S
C526 C525 1.398 . S
C526 C527 1.391 . S
C527 H515 0.950 . S
C527 C523 1.393 . S
C527 C526 1.391 . S
H528 C536 0.950 . S
H529 C541 0.950 1_545 S
H530 C538 0.950 . S
H531 C540 0.950 . S
H532 C542 0.950 1_554 S
H533 C544 0.950 . S
H534 C546 0.950 . S
H535 C547 0.950 . S
C536 H528 0.950 . S
C536 C537 1.386 . S
C536 C538 1.391 . S
C537 C536 1.386 . S
C537 C541 1.393 . S
C538 H530 0.950 . S
C538 C536 1.391 . S
C538 C539 1.400 . S
C539 C538 1.400 . S
C539 C540 1.398 . S
C539 C545 1.491 . S
C540 H531 0.950 . S
C540 C539 1.398 . S
C540 C541 1.391 . S
C541 H529 0.950 1_565 S
C541 C537 1.393 . S
C541 C540 1.391 . S
C542 H532 0.950 1_556 S
C542 C543 1.386 . S
C542 C544 1.391 . S
C543 C542 1.386 . S
C543 C547 1.393 . S
C544 H533 0.950 . S
C544 C542 1.391 . S
C544 C545 1.400 . S
C545 C539 1.491 . S
C545 C544 1.400 . S
C545 C546 1.398 . S
C546 H534 0.950 . S
C546 C545 1.398 . S
C546 C547 1.391 . S
C547 H535 0.950 . S
C547 C543 1.393 . S
C547 C546 1.391 . S
H548 C556 0.950 . S
H549 C561 0.950 . S
H550 C558 0.950 . S
H551 C560 0.950 . S
H552 C562 0.950 . S
H553 C564 0.950 . S
H554 C566 0.950 . S
H555 C567 0.950 . S
C556 H548 0.950 . S
C556 C557 1.386 . S
C556 C558 1.391 . S
C557 C556 1.386 . S
C557 C561 1.393 . S
C558 H550 0.950 . S
C558 C556 1.391 . S
C558 C559 1.400 . S
C559 C558 1.400 . S
C559 C560 1.398 . S
C559 C565 1.491 . S
C560 H551 0.950 . S
C560 C559 1.398 . S
C560 C561 1.391 . S
C561 H549 0.950 . S
C561 C557 1.393 . S
C561 C560 1.391 . S
C562 H552 0.950 . S
C562 C563 1.386 . S
C562 C564 1.391 . S
C563 C562 1.386 . S
C563 C567 1.393 . S
C564 H553 0.950 . S
C564 C562 1.391 . S
C564 C565 1.400 . S
C565 C559 1.491 . S
C565 C564 1.400 . S
C565 C566 1.398 . S
C566 H554 0.950 . S
C566 C565 1.398 . S
C566 C567 1.391 . S
C567 H555 0.950 . S
C567 C563 1.393 . S
C567 C566 1.391 . S
H568 C576 0.950 . S
H569 C581 0.950 . S
H570 C578 0.950 . S
H571 C580 0.950 . S
H572 C582 0.950 . S
H573 C584 0.950 . S
H574 C586 0.950 . S
H575 C587 0.950 . S
C576 H568 0.950 . S
C576 C577 1.386 . S
C576 C578 1.391 . S
C577 C576 1.386 . S
C577 C581 1.393 . S
C578 H570 0.950 . S
C578 C576 1.391 . S
C578 C579 1.400 . S
C579 C578 1.400 . S
C579 C580 1.398 . S
C579 C585 1.491 . S
C580 H571 0.950 . S
C580 C579 1.398 . S
C580 C581 1.391 . S
C581 H569 0.950 . S
C581 C577 1.393 . S
C581 C580 1.391 . S
C582 H572 0.950 . S
C582 C583 1.386 . S
C582 C584 1.391 . S
C583 C582 1.386 . S
C583 C587 1.393 . S
C584 H573 0.950 . S
C584 C582 1.391 . S
C584 C585 1.400 . S
C585 C579 1.491 . S
C585 C584 1.400 . S
C585 C586 1.398 . S
C586 H574 0.950 . S
C586 C585 1.398 . S
C586 C587 1.391 . S
C587 H575 0.950 . S
C587 C583 1.393 . S
C587 C586 1.391 . S
H588 C596 0.950 . S
H589 C601 0.950 . S
H590 C598 0.950 . S
H591 C600 0.950 . S
H592 C602 0.950 . S
H593 C604 0.950 . S
H594 C606 0.950 . S
H595 C607 0.953 . S
C596 H588 0.950 . S
C596 C597 1.386 . S
C596 C598 1.391 . S
C597 C596 1.386 . S
C597 C601 1.393 . S
C598 H590 0.950 . S
C598 C596 1.391 . S
C598 C599 1.400 . S
C599 C598 1.400 . S
C599 C600 1.398 . S
C599 C605 1.491 . S
C600 H591 0.950 . S
C600 C599 1.398 . S
C600 C601 1.391 . S
C601 H589 0.950 . S
C601 C597 1.393 . S
C601 C600 1.391 . S
C602 H592 0.950 . S
C602 C603 1.386 . S
C602 C604 1.391 . S
C603 C602 1.386 . S
C603 C607 1.386 1_655 S
C604 H593 0.950 . S
C604 C602 1.391 . S
C604 C605 1.400 1_655 S
C605 C599 1.491 . S
C605 C604 1.400 1_455 S
C605 C606 1.398 . S
C606 H594 0.950 . S
C606 C605 1.398 . S
C606 C607 1.395 . S
C607 H595 0.953 . S
C607 C603 1.386 1_455 S
C607 C606 1.395 . S
H608 C616 0.950 . S
H609 C621 0.950 . S
H610 C618 0.950 . S
H611 C620 0.950 . S
H612 C622 0.950 . S
H613 C624 0.950 1_455 S
H614 C626 0.950 . S
H615 C627 0.950 . S
C616 H608 0.950 . S
C616 C617 1.386 1_655 S
C616 C618 1.391 . S
C617 C616 1.386 1_455 S
C617 C621 1.393 . S
C618 H610 0.950 . S
C618 C616 1.391 . S
C618 C619 1.400 . S
C619 C618 1.400 . S
C619 C620 1.398 1_655 S
C619 C625 1.491 . S
C620 H611 0.950 . S
C620 C619 1.398 1_455 S
C620 C621 1.391 . S
C621 H609 0.950 . S
C621 C617 1.393 . S
C621 C620 1.391 . S
C622 H612 0.950 . S
C622 C623 1.386 . S
C622 C624 1.391 . S
C623 C622 1.386 . S
C623 C627 1.393 . S
C624 H613 0.950 1_655 S
C624 C622 1.391 . S
C624 C625 1.400 . S
C625 C619 1.491 . S
C625 C624 1.400 . S
C625 C626 1.398 . S
C626 H614 0.950 . S
C626 C625 1.398 . S
C626 C627 1.391 . S
C627 H615 0.950 . S
C627 C623 1.393 . S
C627 C626 1.391 . S
H628 C636 0.950 . S
H629 C641 0.950 . S
H630 C638 0.950 . S
H631 C640 0.950 . S
H632 C642 0.950 . S
H633 C644 0.950 . S
H634 C646 0.950 . S
H635 C647 0.950 . S
C636 H628 0.950 . S
C636 C637 1.386 . S
C636 C638 1.391 . S
C637 C636 1.386 . S
C637 C641 1.393 . S
C638 H630 0.950 . S
C638 C636 1.391 . S
C638 C639 1.400 . S
C639 C638 1.400 . S
C639 C640 1.398 . S
C639 C645 1.491 . S
C640 H631 0.950 . S
C640 C639 1.398 . S
C640 C641 1.391 . S
C641 H629 0.950 . S
C641 C637 1.393 . S
C641 C640 1.391 . S
C642 H632 0.950 . S
C642 C643 1.386 . S
C642 C644 1.391 . S
C643 C642 1.386 . S
C643 C647 1.393 . S
C644 H633 0.950 . S
C644 C642 1.391 . S
C644 C645 1.400 . S
C645 C639 1.491 . S
C645 C644 1.400 . S
C645 C646 1.398 . S
C646 H634 0.950 . S
C646 C645 1.398 . S
C646 C647 1.391 . S
C647 H635 0.950 . S
C647 C643 1.393 . S
C647 C646 1.391 . S
H648 C656 0.950 . S
H649 C661 0.950 . S
H650 C658 0.950 . S
H651 C660 0.950 . S
H652 C662 0.950 . S
H653 C664 0.950 . S
H654 C666 0.950 . S
H655 C667 0.950 . S
C656 H648 0.950 . S
C656 C657 1.386 . S
C656 C658 1.391 . S
C657 C656 1.386 . S
C657 C661 1.393 . S
C658 H650 0.950 . S
C658 C656 1.391 . S
C658 C659 1.400 . S
C659 C658 1.400 . S
C659 C660 1.398 . S
C659 C665 1.491 . S
C660 H651 0.950 . S
C660 C659 1.398 . S
C660 C661 1.391 . S
C661 H649 0.950 . S
C661 C657 1.393 . S
C661 C660 1.391 . S
C662 H652 0.950 . S
C662 C663 1.386 . S
C662 C664 1.391 . S
C663 C662 1.386 . S
C663 C667 1.393 . S
C664 H653 0.950 . S
C664 C662 1.391 . S
C664 C665 1.400 . S
C665 C659 1.491 . S
C665 C664 1.400 . S
C665 C666 1.398 . S
C666 H654 0.950 . S
C666 C665 1.398 . S
C666 C667 1.391 . S
C667 H655 0.950 . S
C667 C663 1.393 . S
C667 C666 1.391 . S
H668 C676 0.950 . S
H669 C681 0.950 . S
H670 C678 0.950 . S
H671 C680 0.950 . S
H672 C682 0.950 . S
H673 C684 0.950 . S
H674 C686 0.950 . S
H675 C687 0.950 . S
C676 H668 0.950 . S
C676 C677 1.386 . S
C676 C678 1.391 1_455 S
C677 C676 1.386 . S
C677 C681 1.393 . S
C678 H670 0.950 . S
C678 C676 1.391 1_655 S
C678 C679 1.400 . S
C679 C678 1.400 . S
C679 C680 1.398 . S
C679 C685 1.491 . S
C680 H671 0.950 . S
C680 C679 1.398 . S
C680 C681 1.391 1_655 S
C681 H669 0.950 . S
C681 C677 1.393 . S
C681 C680 1.391 1_455 S
C682 H672 0.950 . S
C682 C683 1.386 . S
C682 C684 1.391 . S
C683 C682 1.386 . S
C683 C687 1.393 . S
C684 H673 0.950 . S
C684 C682 1.391 . S
C684 C685 1.400 . S
C685 C679 1.491 . S
C685 C684 1.400 . S
C685 C686 1.398 . S
C686 H674 0.950 . S
C686 C685 1.398 . S
C686 C687 1.391 . S
C687 H675 0.950 . S
C687 C683 1.393 . S
C687 C686 1.391 . S
H688 C696 0.950 . S
H689 C701 0.950 . S
H690 C698 0.950 . S
H691 C700 0.950 . S
H692 C702 0.950 . S
H693 C704 0.950 . S
H694 C706 0.950 . S
H695 C707 0.950 . S
C696 H688 0.950 . S
C696 C697 1.386 . S
C696 C698 1.391 . S
C697 C696 1.386 . S
C697 C701 1.393 . S
C698 H690 0.950 . S
C698 C696 1.391 . S
C698 C699 1.400 . S
C699 C698 1.400 . S
C699 C700 1.398 . S
C699 C705 1.491 . S
C700 H691 0.950 . S
C700 C699 1.398 . S
C700 C701 1.391 . S
C701 H689 0.950 . S
C701 C697 1.393 . S
C701 C700 1.391 . S
C702 H692 0.950 . S
C702 C703 1.386 . S
C702 C704 1.391 . S
C703 C702 1.386 . S
C703 C707 1.393 . S
C704 H693 0.950 . S
C704 C702 1.391 . S
C704 C705 1.400 . S
C705 C699 1.491 . S
C705 C704 1.400 . S
C705 C706 1.398 . S
C706 H694 0.950 . S
C706 C705 1.398 . S
C706 C707 1.391 . S
C707 H695 0.950 . S
C707 C703 1.393 . S
C707 C706 1.391 . S
H708 C716 0.950 . S
H709 C721 0.950 . S
H710 C718 0.950 . S
H711 C720 0.950 . S
H712 C722 0.940 1_556 S
H713 C724 0.950 . S
H714 C726 0.950 . S
H715 C727 0.950 . S
C716 H708 0.950 . S
C716 C717 1.386 . S
C716 C718 1.391 . S
C717 C716 1.386 . S
C717 C721 1.393 . S
C718 H710 0.950 . S
C718 C716 1.391 . S
C718 C719 1.400 . S
C719 C718 1.400 . S
C719 C720 1.398 . S
C719 C725 1.491 . S
C720 H711 0.950 . S
C720 C719 1.398 . S
C720 C721 1.391 . S
C721 H709 0.950 . S
C721 C717 1.393 . S
C721 C720 1.391 . S
C722 H712 0.940 1_554 S
C722 C723 1.385 1_554 S
C722 C724 1.401 . S
C723 C722 1.385 1_556 S
C723 C727 1.393 1_556 S
C724 H713 0.950 . S
C724 C722 1.401 . S
C724 C725 1.400 . S
C725 C719 1.491 . S
C725 C724 1.400 . S
C725 C726 1.398 . S
C726 H714 0.950 . S
C726 C725 1.398 . S
C726 C727 1.391 . S
C727 H715 0.950 . S
C727 C723 1.393 1_554 S
C727 C726 1.391 . S
H728 C736 0.950 . S
H729 C741 0.950 . S
H730 C738 0.950 . S
H731 C740 0.950 . S
H732 C742 0.950 . S
H733 C744 0.950 . S
H734 C746 0.950 . S
H735 C747 0.950 . S
C736 H728 0.950 . S
C736 C737 1.386 . S
C736 C738 1.391 . S
C737 C736 1.386 . S
C737 C741 1.393 . S
C738 H730 0.950 . S
C738 C736 1.391 . S
C738 C739 1.400 . S
C739 C738 1.400 . S
C739 C740 1.398 . S
C739 C745 1.491 . S
C740 H731 0.950 . S
C740 C739 1.398 . S
C740 C741 1.391 . S
C741 H729 0.950 . S
C741 C737 1.393 . S
C741 C740 1.391 . S
C742 H732 0.950 . S
C742 C743 1.386 . S
C742 C744 1.391 . S
C743 C742 1.386 . S
C743 C747 1.393 . S
C744 H733 0.950 . S
C744 C742 1.391 . S
C744 C745 1.400 . S
C745 C739 1.491 . S
C745 C744 1.400 . S
C745 C746 1.398 . S
C746 H734 0.950 . S
C746 C745 1.398 . S
C746 C747 1.391 . S
C747 H735 0.950 . S
C747 C743 1.393 . S
C747 C746 1.391 . S
H748 C756 0.950 . S
H749 C761 0.950 . S
H750 C758 0.950 . S
H751 C760 0.950 . S
H752 C762 0.950 . S
H753 C764 0.950 . S
H754 C766 0.950 . S
H755 C767 0.950 . S
C756 H748 0.950 . S
C756 C757 1.386 1_556 S
C756 C758 1.391 . S
C757 C756 1.386 1_554 S
C757 C761 1.393 . S
C758 H750 0.950 . S
C758 C756 1.391 . S
C758 C759 1.400 . S
C759 C758 1.400 . S
C759 C760 1.398 . S
C759 C765 1.491 . S
C760 H751 0.950 . S
C760 C759 1.398 . S
C760 C761 1.391 1_556 S
C761 H749 0.950 . S
C761 C757 1.393 . S
C761 C760 1.391 1_554 S
C762 H752 0.950 . S
C762 C763 1.386 . S
C762 C764 1.391 . S
C763 C762 1.386 . S
C763 C767 1.393 1_655 S
C764 H753 0.950 . S
C764 C762 1.391 . S
C764 C765 1.400 1_655 S
C765 C759 1.491 . S
C765 C764 1.400 1_455 S
C765 C766 1.398 . S
C766 H754 0.950 . S
C766 C765 1.398 . S
C766 C767 1.391 . S
C767 H755 0.950 . S
C767 C763 1.393 1_455 S
C767 C766 1.391 . S
H768 C776 0.950 . S
H769 C781 0.950 . S
H770 C778 0.950 . S
H771 C780 0.950 . S
H772 C782 0.950 . S
H773 C784 0.950 . S
H774 C786 0.950 . S
H775 C787 0.950 . S
C776 H768 0.950 . S
C776 C777 1.386 . S
C776 C778 1.391 . S
C777 C776 1.386 . S
C777 C781 1.393 . S
C778 H770 0.950 . S
C778 C776 1.391 . S
C778 C779 1.400 . S
C779 C778 1.400 . S
C779 C780 1.398 . S
C779 C785 1.491 . S
C780 H771 0.950 . S
C780 C779 1.398 . S
C780 C781 1.391 . S
C781 H769 0.950 . S
C781 C777 1.393 . S
C781 C780 1.391 . S
C782 H772 0.950 . S
C782 C783 1.386 . S
C782 C784 1.391 . S
C783 C782 1.386 . S
C783 C787 1.393 . S
C784 H773 0.950 . S
C784 C782 1.391 . S
C784 C785 1.400 . S
C785 C779 1.491 . S
C785 C784 1.400 . S
C785 C786 1.398 . S
C786 H774 0.950 . S
C786 C785 1.398 . S
C786 C787 1.391 . S
C787 H775 0.950 . S
C787 C783 1.393 . S
C787 C786 1.391 . S
H788 C796 0.950 . S
H789 C801 0.950 . S
H790 C798 0.950 . S
H791 C800 0.950 . S
H792 C802 0.950 . S
H793 C804 0.950 . S
H794 C806 0.950 . S
H795 C807 0.950 . S
C796 H788 0.950 . S
C796 C797 1.386 . S
C796 C798 1.391 . S
C797 C796 1.386 . S
C797 C801 1.393 . S
C798 H790 0.950 . S
C798 C796 1.391 . S
C798 C799 1.400 . S
C799 C798 1.400 . S
C799 C800 1.398 . S
C799 C805 1.491 . S
C800 H791 0.950 . S
C800 C799 1.398 . S
C800 C801 1.391 . S
C801 H789 0.950 . S
C801 C797 1.393 . S
C801 C800 1.391 . S
C802 H792 0.950 . S
C802 C803 1.386 . S
C802 C804 1.391 . S
C803 C802 1.386 . S
C803 C807 1.393 . S
C804 H793 0.950 . S
C804 C802 1.391 . S
C804 C805 1.400 . S
C805 C799 1.491 . S
C805 C804 1.400 . S
C805 C806 1.398 . S
C806 H794 0.950 . S
C806 C805 1.398 . S
C806 C807 1.391 . S
C807 H795 0.950 . S
C807 C803 1.393 . S
C807 C806 1.391 . S
H808 C816 0.950 . S
H809 C821 0.950 . S
H810 C818 0.950 . S
H811 C820 0.950 . S
H812 C822 0.950 . S
H813 C824 0.950 . S
H814 C826 0.950 . S
H815 C827 0.950 . S
C816 H808 0.950 . S
C816 C817 1.386 . S
C816 C818 1.391 . S
C817 C816 1.386 . S
C817 C821 1.393 . S
C818 H810 0.950 . S
C818 C816 1.391 . S
C818 C819 1.400 . S
C819 C818 1.400 . S
C819 C820 1.398 . S
C819 C825 1.491 . S
C820 H811 0.950 . S
C820 C819 1.398 . S
C820 C821 1.391 . S
C821 H809 0.950 . S
C821 C817 1.393 . S
C821 C820 1.391 . S
C822 H812 0.950 . S
C822 C823 1.386 . S
C822 C824 1.391 . S
C823 C822 1.386 . S
C823 C827 1.393 . S
C824 H813 0.950 . S
C824 C822 1.391 . S
C824 C825 1.400 . S
C825 C819 1.491 . S
C825 C824 1.400 . S
C825 C826 1.398 . S
C826 H814 0.950 . S
C826 C825 1.398 . S
C826 C827 1.391 . S
C827 H815 0.950 . S
C827 C823 1.393 . S
C827 C826 1.391 . S
H828 C836 0.950 . S
H829 C841 0.950 . S
H830 C838 0.950 . S
H831 C840 0.950 . S
H832 C842 0.955 . S
H833 C844 0.950 . S
H834 C846 0.950 . S
H835 C847 0.940 1_565 S
C836 H828 0.950 . S
C836 C837 1.386 . S
C836 C838 1.391 . S
C837 C836 1.386 . S
C837 C841 1.393 . S
C838 H830 0.950 . S
C838 C836 1.391 . S
C838 C839 1.400 . S
C839 C838 1.400 . S
C839 C840 1.398 . S
C839 C845 1.491 . S
C840 H831 0.950 . S
C840 C839 1.398 . S
C840 C841 1.391 . S
C841 H829 0.950 . S
C841 C837 1.393 . S
C841 C840 1.391 . S
C842 H832 0.955 . S
C842 C843 1.393 . S
C842 C844 1.379 1_565 S
C843 C842 1.393 . S
C843 C847 1.386 1_565 S
C844 H833 0.950 . S
C844 C842 1.379 1_545 S
C844 C845 1.400 . S
C845 C839 1.491 . S
C845 C844 1.400 . S
C845 C846 1.398 . S
C846 H834 0.950 . S
C846 C845 1.398 . S
C846 C847 1.408 . S
C847 H835 0.940 1_545 S
C847 C843 1.386 1_545 S
C847 C846 1.408 . S
H848 C856 0.950 . S
H849 C861 0.950 . S
H850 C858 0.950 . S
H851 C860 0.950 . S
H852 C862 0.950 . S
H853 C864 0.950 . S
H854 C866 0.950 . S
H855 C867 0.950 . S
C856 H848 0.950 . S
C856 C857 1.386 . S
C856 C858 1.391 . S
C857 C856 1.386 . S
C857 C861 1.393 . S
C858 H850 0.950 . S
C858 C856 1.391 . S
C858 C859 1.400 . S
C859 C858 1.400 . S
C859 C860 1.398 . S
C859 C865 1.491 . S
C860 H851 0.950 . S
C860 C859 1.398 . S
C860 C861 1.391 . S
C861 H849 0.950 . S
C861 C857 1.393 . S
C861 C860 1.391 . S
C862 H852 0.950 . S
C862 C863 1.386 . S
C862 C864 1.391 . S
C863 C862 1.386 . S
C863 C867 1.393 . S
C864 H853 0.950 . S
C864 C862 1.391 . S
C864 C865 1.400 . S
C865 C859 1.491 . S
C865 C864 1.400 . S
C865 C866 1.398 . S
C866 H854 0.950 . S
C866 C865 1.398 . S
C866 C867 1.391 . S
C867 H855 0.950 . S
C867 C863 1.393 . S
C867 C866 1.391 . S
H868 C876 0.950 . S
H869 C881 0.950 . S
H870 C878 0.940 1_565 S
H871 C880 0.950 . S
H872 C882 0.941 1_556 S
H873 C884 0.946 1_545 S
H874 C886 0.950 . S
H875 C887 0.950 . S
C876 H868 0.950 . S
C876 C877 1.386 . S
C876 C878 1.399 . S
C877 C876 1.386 . S
C877 C881 1.393 . S
C878 H870 0.940 1_545 S
C878 C876 1.399 . S
C878 C879 1.402 . S
C879 C878 1.402 . S
C879 C880 1.398 . S
C879 C885 1.491 1_545 S
C880 H871 0.950 . S
C880 C879 1.398 . S
C880 C881 1.391 . S
C881 H869 0.950 . S
C881 C877 1.393 . S
C881 C880 1.391 . S
C882 H872 0.941 1_554 S
C882 C883 1.386 . S
C882 C884 1.391 . S
C883 C882 1.386 . S
C883 C887 1.393 . S
C884 H873 0.946 1_565 S
C884 C882 1.391 . S
C884 C885 1.400 . S
C885 C879 1.491 1_565 S
C885 C884 1.400 . S
C885 C886 1.398 . S
C886 H874 0.950 . S
C886 C885 1.398 . S
C886 C887 1.391 . S
C887 H875 0.950 . S
C887 C883 1.393 . S
C887 C886 1.391 . S
H888 C896 0.950 . S
H889 C901 0.950 . S
H890 C898 0.950 . S
H891 C900 0.950 . S
H892 C902 0.950 . S
H893 C904 0.950 . S
H894 C906 0.950 . S
H895 C907 0.950 . S
C896 H888 0.950 . S
C896 C897 1.386 . S
C896 C898 1.391 . S
C897 C896 1.386 . S
C897 C901 1.393 . S
C898 H890 0.950 . S
C898 C896 1.391 . S
C898 C899 1.400 . S
C899 C898 1.400 . S
C899 C900 1.398 . S
C899 C905 1.491 . S
C900 H891 0.950 . S
C900 C899 1.398 . S
C900 C901 1.391 . S
C901 H889 0.950 . S
C901 C897 1.393 . S
C901 C900 1.391 . S
C902 H892 0.950 . S
C902 C903 1.386 . S
C902 C904 1.391 . S
C903 C902 1.386 . S
C903 C907 1.393 . S
C904 H893 0.950 . S
C904 C902 1.391 . S
C904 C905 1.400 . S
C905 C899 1.491 . S
C905 C904 1.400 . S
C905 C906 1.398 . S
C906 H894 0.950 . S
C906 C905 1.398 . S
C906 C907 1.391 . S
C907 H895 0.950 . S
C907 C903 1.393 . S
C907 C906 1.391 . S
H908 C916 0.950 . S
H909 C921 0.950 . S
H910 C918 0.950 . S
H911 C920 0.950 . S
H912 C922 0.950 . S
H913 C924 0.950 . S
H914 C926 0.950 . S
H915 C927 0.950 . S
C916 H908 0.950 . S
C916 C917 1.386 . S
C916 C918 1.391 . S
C917 C916 1.386 . S
C917 C921 1.393 . S
C918 H910 0.950 . S
C918 C916 1.391 . S
C918 C919 1.400 . S
C919 C918 1.400 . S
C919 C920 1.398 . S
C919 C925 1.491 . S
C920 H911 0.950 . S
C920 C919 1.398 . S
C920 C921 1.391 . S
C921 H909 0.950 . S
C921 C917 1.393 . S
C921 C920 1.391 . S
C922 H912 0.950 . S
C922 C923 1.386 . S
C922 C924 1.391 . S
C923 C922 1.386 . S
C923 C927 1.393 . S
C924 H913 0.950 . S
C924 C922 1.391 . S
C924 C925 1.400 . S
C925 C919 1.491 . S
C925 C924 1.400 . S
C925 C926 1.398 . S
C926 H914 0.950 . S
C926 C925 1.398 . S
C926 C927 1.391 . S
C927 H915 0.950 . S
C927 C923 1.393 . S
C927 C926 1.391 . S
H928 C936 0.950 . S
H929 C941 0.950 . S
H930 C938 0.950 . S
H931 C940 0.950 . S
H932 C942 0.950 . S
H933 C944 0.950 . S
H934 C946 0.950 . S
H935 C947 0.950 . S
C936 H928 0.950 . S
C936 C937 1.386 . S
C936 C938 1.391 . S
C937 C936 1.386 . S
C937 C941 1.393 . S
C938 H930 0.950 . S
C938 C936 1.391 . S
C938 C939 1.400 . S
C939 C938 1.400 . S
C939 C940 1.398 . S
C939 C945 1.491 . S
C940 H931 0.950 . S
C940 C939 1.398 . S
C940 C941 1.391 . S
C941 H929 0.950 . S
C941 C937 1.393 . S
C941 C940 1.391 . S
C942 H932 0.950 . S
C942 C943 1.386 . S
C942 C944 1.391 . S
C943 C942 1.386 . S
C943 C947 1.393 . S
C944 H933 0.950 . S
C944 C942 1.391 . S
C944 C945 1.400 . S
C945 C939 1.491 . S
C945 C944 1.400 . S
C945 C946 1.398 . S
C946 H934 0.950 . S
C946 C945 1.398 . S
C946 C947 1.391 . S
C947 H935 0.950 . S
C947 C943 1.393 . S
C947 C946 1.391 . S
H948 C956 0.950 . S
H949 C961 0.950 . S
H950 C958 0.950 . S
H951 C960 0.950 . S
H952 C962 0.950 . S
H953 C964 0.950 . S
H954 C966 0.950 . S
H955 C967 0.950 . S
C956 H948 0.950 . S
C956 C957 1.386 . S
C956 C958 1.391 . S
C957 C956 1.386 . S
C957 C961 1.393 . S
C958 H950 0.950 . S
C958 C956 1.391 . S
C958 C959 1.400 . S
C959 C958 1.400 . S
C959 C960 1.398 . S
C959 C965 1.491 . S
C960 H951 0.950 . S
C960 C959 1.398 . S
C960 C961 1.391 . S
C961 H949 0.950 . S
C961 C957 1.393 . S
C961 C960 1.391 . S
C962 H952 0.950 . S
C962 C963 1.386 . S
C962 C964 1.391 . S
C963 C962 1.386 . S
C963 C967 1.393 . S
C964 H953 0.950 . S
C964 C962 1.391 . S
C964 C965 1.400 . S
C965 C959 1.491 . S
C965 C964 1.400 . S
C965 C966 1.398 . S
C966 H954 0.950 . S
C966 C965 1.398 . S
C966 C967 1.391 . S
C967 H955 0.950 . S
C967 C963 1.393 . S
C967 C966 1.391 . S
H968 C976 0.950 . S
H969 C981 0.950 . S
H970 C978 0.950 . S
H971 C980 0.950 . S
H972 C982 0.950 . S
H973 C984 0.950 . S
H974 C986 0.950 . S
H975 C987 0.950 . S
C976 H968 0.950 . S
C976 C977 1.386 . S
C976 C978 1.391 . S
C977 C976 1.386 . S
C977 C981 1.393 . S
C978 H970 0.950 . S
C978 C976 1.391 . S
C978 C979 1.400 . S
C979 C978 1.400 . S
C979 C980 1.398 . S
C979 C985 1.491 . S
C980 H971 0.950 . S
C980 C979 1.398 . S
C980 C981 1.391 . S
C981 H969 0.950 . S
C981 C977 1.393 . S
C981 C980 1.391 . S
C982 H972 0.950 . S
C982 C983 1.386 . S
C982 C984 1.391 . S
C983 C982 1.386 . S
C983 C987 1.393 . S
C984 H973 0.950 . S
C984 C982 1.391 . S
C984 C985 1.400 . S
C985 C979 1.491 . S
C985 C984 1.400 . S
C985 C986 1.398 . S
C986 H974 0.950 . S
C986 C985 1.398 . S
C986 C987 1.391 . S
C987 H975 0.950 . S
C987 C983 1.393 . S
C987 C986 1.391 . S
H988 C996 0.950 . S
H989 C1001 0.950 . S
H990 C998 0.950 . S
H991 C1000 0.950 . S
H992 C1002 0.950 . S
H993 C1004 0.950 . S
H994 C1006 0.950 . S
H995 C1007 0.950 . S
C996 H988 0.950 . S
C996 C997 1.386 . S
C996 C998 1.391 . S
C997 C996 1.386 . S
C997 C1001 1.393 . S
C998 H990 0.950 . S
C998 C996 1.391 . S
C998 C999 1.400 . S
C999 C998 1.400 . S
C999 C1000 1.398 . S
C999 C1005 1.491 . S
C1000 H991 0.950 . S
C1000 C999 1.398 . S
C1000 C1001 1.391 . S
C1001 H989 0.950 . S
C1001 C997 1.393 . S
C1001 C1000 1.391 . S
C1002 H992 0.950 . S
C1002 C1003 1.386 . S
C1002 C1004 1.391 . S
C1003 C1002 1.386 . S
C1003 C1007 1.393 . S
C1004 H993 0.950 . S
C1004 C1002 1.391 . S
C1004 C1005 1.400 . S
C1005 C999 1.491 . S
C1005 C1004 1.400 . S
C1005 C1006 1.398 . S
C1006 H994 0.950 . S
C1006 C1005 1.398 . S
C1006 C1007 1.391 . S
C1007 H995 0.950 . S
C1007 C1003 1.393 . S
C1007 C1006 1.391 . S
H1008 C1016 0.950 . S
H1009 C1021 0.950 . S
H1010 C1018 0.950 . S
H1011 C1020 0.950 . S
H1012 C1022 0.950 . S
H1013 C1024 0.950 . S
H1014 C1026 0.950 . S
H1015 C1027 0.931 1_655 S
C1016 H1008 0.950 . S
C1016 C1017 1.386 . S
C1016 C1018 1.391 . S
C1017 C1016 1.386 . S
C1017 C1021 1.393 . S
C1018 H1010 0.950 . S
C1018 C1016 1.391 . S
C1018 C1019 1.400 . S
C1019 C1018 1.400 . S
C1019 C1020 1.398 . S
C1019 C1025 1.491 . S
C1020 H1011 0.950 . S
C1020 C1019 1.398 . S
C1020 C1021 1.391 . S
C1021 H1009 0.950 . S
C1021 C1017 1.393 . S
C1021 C1020 1.391 . S
C1022 H1012 0.950 . S
C1022 C1023 1.386 . S
C1022 C1024 1.391 . S
C1023 C1022 1.386 . S
C1023 C1027 1.393 . S
C1024 H1013 0.950 . S
C1024 C1022 1.391 . S
C1024 C1025 1.400 . S
C1025 C1019 1.491 . S
C1025 C1024 1.400 . S
C1025 C1026 1.398 . S
C1026 H1014 0.950 . S
C1026 C1025 1.398 . S
C1026 C1027 1.391 . S
C1027 H1015 0.931 1_455 S
C1027 C1023 1.393 . S
C1027 C1026 1.391 . S
H1028 C1036 0.950 . S
H1029 C1041 0.950 . S
H1030 C1038 0.950 . S
H1031 C1040 0.950 . S
H1032 C1042 0.950 . S
H1033 C1044 0.950 . S
H1034 C1046 0.950 . S
H1035 C1047 0.950 . S
C1036 H1028 0.950 . S
C1036 C1037 1.386 . S
C1036 C1038 1.391 . S
C1037 C1036 1.386 . S
C1037 C1041 1.393 . S
C1038 H1030 0.950 . S
C1038 C1036 1.391 . S
C1038 C1039 1.400 . S
C1039 C1038 1.400 . S
C1039 C1040 1.398 . S
C1039 C1045 1.491 . S
C1040 H1031 0.950 . S
C1040 C1039 1.398 . S
C1040 C1041 1.391 . S
C1041 H1029 0.950 . S
C1041 C1037 1.393 . S
C1041 C1040 1.391 . S
C1042 H1032 0.950 . S
C1042 C1043 1.386 . S
C1042 C1044 1.391 . S
C1043 C1042 1.386 . S
C1043 C1047 1.393 . S
C1044 H1033 0.950 . S
C1044 C1042 1.391 . S
C1044 C1045 1.400 . S
C1045 C1039 1.491 . S
C1045 C1044 1.400 . S
C1045 C1046 1.398 . S
C1046 H1034 0.950 . S
C1046 C1045 1.398 . S
C1046 C1047 1.391 . S
C1047 H1035 0.950 . S
C1047 C1043 1.393 . S
C1047 C1046 1.391 . S
H1048 C1056 0.950 . S
H1049 C1061 0.950 . S
H1050 C1058 0.950 . S
H1051 C1060 0.950 . S
H1052 C1062 0.950 . S
H1053 C1064 0.950 . S
H1054 C1066 0.950 . S
H1055 C1067 0.950 . S
C1056 H1048 0.950 . S
C1056 C1057 1.386 . S
C1056 C1058 1.391 . S
C1057 C1056 1.386 . S
C1057 C1061 1.393 . S
C1058 H1050 0.950 . S
C1058 C1056 1.391 . S
C1058 C1059 1.400 . S
C1059 C1058 1.400 . S
C1059 C1060 1.398 . S
C1059 C1065 1.491 . S
C1060 H1051 0.950 . S
C1060 C1059 1.398 . S
C1060 C1061 1.391 . S
C1061 H1049 0.950 . S
C1061 C1057 1.393 . S
C1061 C1060 1.391 . S
C1062 H1052 0.950 . S
C1062 C1063 1.386 . S
C1062 C1064 1.391 . S
C1063 C1062 1.386 . S
C1063 C1067 1.393 . S
C1064 H1053 0.950 . S
C1064 C1062 1.391 . S
C1064 C1065 1.400 . S
C1065 C1059 1.491 . S
C1065 C1064 1.400 . S
C1065 C1066 1.398 . S
C1066 H1054 0.950 . S
C1066 C1065 1.398 . S
C1066 C1067 1.391 . S
C1067 H1055 0.950 . S
C1067 C1063 1.393 . S
C1067 C1066 1.391 . S
H1068 C1076 0.950 . S
H1069 C1081 0.950 . S
H1070 C1078 0.950 . S
H1071 C1080 0.950 . S
H1072 C1082 0.950 . S
H1073 C1084 0.950 . S
H1074 C1086 0.950 . S
H1075 C1087 0.950 . S
C1076 H1068 0.950 . S
C1076 C1077 1.386 . S
C1076 C1078 1.391 . S
C1077 C1076 1.386 . S
C1077 C1081 1.393 . S
C1078 H1070 0.950 . S
C1078 C1076 1.391 . S
C1078 C1079 1.400 . S
C1079 C1078 1.400 . S
C1079 C1080 1.398 . S
C1079 C1085 1.491 . S
C1080 H1071 0.950 . S
C1080 C1079 1.398 . S
C1080 C1081 1.391 . S
C1081 H1069 0.950 . S
C1081 C1077 1.393 . S
C1081 C1080 1.391 . S
C1082 H1072 0.950 . S
C1082 C1083 1.386 . S
C1082 C1084 1.391 . S
C1083 C1082 1.386 . S
C1083 C1087 1.393 . S
C1084 H1073 0.950 . S
C1084 C1082 1.391 . S
C1084 C1085 1.400 . S
C1085 C1079 1.491 . S
C1085 C1084 1.400 . S
C1085 C1086 1.398 . S
C1086 H1074 0.950 . S
C1086 C1085 1.398 . S
C1086 C1087 1.391 . S
C1087 H1075 0.950 . S
C1087 C1083 1.393 . S
C1087 C1086 1.391 . S
H1088 C1096 0.950 . S
H1089 C1101 0.950 . S
H1090 C1098 0.950 . S
H1091 C1100 0.950 . S
H1092 C1102 0.950 1_545 S
H1093 C1104 0.950 . S
H1094 C1106 0.950 . S
H1095 C1107 0.950 . S
C1096 H1088 0.950 . S
C1096 C1097 1.386 . S
C1096 C1098 1.391 . S
C1097 C1096 1.386 . S
C1097 C1101 1.393 . S
C1098 H1090 0.950 . S
C1098 C1096 1.391 . S
C1098 C1099 1.400 . S
C1099 C1098 1.400 . S
C1099 C1100 1.398 . S
C1099 C1105 1.491 . S
C1100 H1091 0.950 . S
C1100 C1099 1.398 . S
C1100 C1101 1.391 . S
C1101 H1089 0.950 . S
C1101 C1097 1.393 . S
C1101 C1100 1.391 . S
C1102 H1092 0.950 1_565 S
C1102 C1103 1.386 . S
C1102 C1104 1.391 . S
C1103 C1102 1.386 . S
C1103 C1107 1.393 . S
C1104 H1093 0.950 . S
C1104 C1102 1.391 . S
C1104 C1105 1.400 . S
C1105 C1099 1.491 . S
C1105 C1104 1.400 . S
C1105 C1106 1.398 . S
C1106 H1094 0.950 . S
C1106 C1105 1.398 . S
C1106 C1107 1.391 . S
C1107 H1095 0.950 . S
C1107 C1103 1.393 . S
C1107 C1106 1.391 . S
H1108 C1116 0.950 . S
H1109 C1121 0.950 . S
H1110 C1118 0.950 . S
H1111 C1120 0.941 1_565 S
H1112 C1122 0.950 . S
H1113 C1124 0.957 . S
H1114 C1126 0.950 . S
H1115 C1127 0.950 . S
C1116 H1108 0.950 . S
C1116 C1117 1.386 1_545 S
C1116 C1118 1.391 . S
C1117 C1116 1.386 1_565 S
C1117 C1121 1.393 . S
C1118 H1110 0.950 . S
C1118 C1116 1.391 . S
C1118 C1119 1.400 . S
C1119 C1118 1.400 . S
C1119 C1120 1.419 . S
C1119 C1125 1.491 . S
C1120 H1111 0.941 1_545 S
C1120 C1119 1.419 . S
C1120 C1121 1.378 1_545 S
C1121 H1109 0.950 . S
C1121 C1117 1.393 . S
C1121 C1120 1.378 1_565 S
C1122 H1112 0.950 . S
C1122 C1123 1.386 . S
C1122 C1124 1.391 1_455 S
C1123 C1122 1.386 . S
C1123 C1127 1.393 1_455 S
C1124 H1113 0.957 . S
C1124 C1122 1.391 1_655 S
C1124 C1125 1.400 . S
C1125 C1119 1.491 . S
C1125 C1124 1.400 . S
C1125 C1126 1.398 . S
C1126 H1114 0.950 . S
C1126 C1125 1.398 . S
C1126 C1127 1.391 . S
C1127 H1115 0.950 . S
C1127 C1123 1.393 1_655 S
C1127 C1126 1.391 . S
C417 C13 1.196 . S
C423 C382 1.180 . S
C437 C319 1.339 . S
C443 C47 1.384 1_545 S
C457 C76 2.453 1_554 S
C463 C280 2.454 . S
C477 C115 1.575 . S
C483 C353 1.545 . S
C497 C149 1.429 . S
C503 C348 1.402 . S
C517 C183 1.174 . S
C523 C387 1.177 . S
C537 C314 1.666 1_565 S
C543 C217 1.691 . S
C557 C246 2.153 . S
C563 C285 2.130 . S
C577 C110 2.448 . S
C583 C144 2.479 . S
C597 C8 2.398 . S
C603 C178 2.369 . S
C617 C42 2.444 . S
C623 C212 2.464 . S
C637 C251 0.547 . S
C643 C81 0.503 . S
C657 C29 1.919 . S
C663 C289 1.914 . S
C677 C63 0.703 . S
C683 C344 0.720 . S
C697 C391 1.329 . S
C703 C68 1.360 . S
C717 C131 0.553 . S
C723 C310 0.588 . S
C737 C165 1.438 . S
C743 C323 1.406 . S
C757 C276 1.123 . S
C763 C199 1.123 . S
C777 C357 1.214 . S
C783 C233 1.223 . S
C797 C378 0.732 . S
C803 C238 0.715 . S
C817 C17 1.393 . S
C823 C102 1.364 . S
C837 C0 1.840 . S
C843 C51 1.832 . S
C857 C34 0.622 . S
C863 C72 0.629 . S
C877 C119 1.513 . S
C883 C97 1.531 . S
C897 C170 1.613 . S
C903 C153 1.631 . S
C917 C187 1.650 . S
C923 C204 1.656 . S
C937 C221 1.255 . S
C943 C267 1.234 . S
C957 C136 1.128 . S
C963 C242 1.092 . S
C977 C301 0.763 . S
C983 C106 0.757 . S
C997 C174 0.446 . S
C1003 C335 0.427 . S
C1017 C272 1.075 . S
C1023 C208 1.098 1_455 S
C1037 C369 0.684 . S
C1043 C255 0.675 . S
C1057 C140 1.092 . S
C1063 C374 1.089 . S
C1077 C403 0.835 . S
C1083 C38 0.812 . S
C1097 C85 1.018 . S
C1103 C306 1.011 1_565 S
C1117 C340 0.741 . S
C1123 C4 0.761 . S
