# Generated by pormake.
# Topology ull, (4)-cn, num edge types: 1
# Building blocks:
#     Node 0, Type 0, BuildingBlock: QUQFOY_clean_sbu_1, # of connection points: 4
#     Node 1, Type 0, BuildingBlock: QUQFOY_clean_sbu_1, # of connection points: 4
#     Node 2, Type 0, BuildingBlock: QUQFOY_clean_sbu_1, # of connection points: 4
#     Node 3, Type 0, BuildingBlock: QUQFOY_clean_sbu_1, # of connection points: 4
#     Node 4, Type 0, BuildingBlock: QUQFOY_clean_sbu_1, # of connection points: 4
#     Node 5, Type 0, BuildingBlock: QUQFOY_clean_sbu_1, # of connection points: 4
#     Node 6, Type 0, BuildingBlock: QUQFOY_clean_sbu_1, # of connection points: 4
#     Node 7, Type 0, BuildingBlock: QUQFOY_clean_sbu_1, # of connection points: 4
#     Node 8, Type 0, BuildingBlock: QUQFOY_clean_sbu_1, # of connection points: 4
#     Node 9, Type 0, BuildingBlock: QUQFOY_clean_sbu_1, # of connection points: 4
#     Node 10, Type 0, BuildingBlock: QUQFOY_clean_sbu_1, # of connection points: 4
#     Node 11, Type 0, BuildingBlock: QUQFOY_clean_sbu_1, # of connection points: 4
#     Node 12, Type 0, BuildingBlock: QUQFOY_clean_sbu_1, # of connection points: 4
#     Node 13, Type 0, BuildingBlock: QUQFOY_clean_sbu_1, # of connection points: 4
#     Node 14, Type 0, BuildingBlock: QUQFOY_clean_sbu_1, # of connection points: 4
#     Node 15, Type 0, BuildingBlock: QUQFOY_clean_sbu_1, # of connection points: 4
#     Node 16, Type 0, BuildingBlock: QUQFOY_clean_sbu_1, # of connection points: 4
#     Node 17, Type 0, BuildingBlock: QUQFOY_clean_sbu_1, # of connection points: 4
#     Node 18, Type 0, BuildingBlock: QUQFOY_clean_sbu_1, # of connection points: 4
#     Node 19, Type 0, BuildingBlock: QUQFOY_clean_sbu_1, # of connection points: 4
#     Node 20, Type 0, BuildingBlock: QUQFOY_clean_sbu_1, # of connection points: 4
#     Node 21, Type 0, BuildingBlock: QUQFOY_clean_sbu_1, # of connection points: 4
#     Node 22, Type 0, BuildingBlock: QUQFOY_clean_sbu_1, # of connection points: 4
#     Node 23, Type 0, BuildingBlock: QUQFOY_clean_sbu_1, # of connection points: 4
#     Node 24, Type 0, BuildingBlock: QUQFOY_clean_sbu_1, # of connection points: 4
#     Node 25, Type 0, BuildingBlock: QUQFOY_clean_sbu_1, # of connection points: 4
#     Node 26, Type 0, BuildingBlock: QUQFOY_clean_sbu_1, # of connection points: 4
#     Node 27, Type 0, BuildingBlock: QUQFOY_clean_sbu_1, # of connection points: 4
#     Node 28, Type 0, BuildingBlock: QUQFOY_clean_sbu_1, # of connection points: 4
#     Node 29, Type 0, BuildingBlock: QUQFOY_clean_sbu_1, # of connection points: 4
#     Node 30, Type 0, BuildingBlock: QUQFOY_clean_sbu_1, # of connection points: 4
#     Node 31, Type 0, BuildingBlock: QUQFOY_clean_sbu_1, # of connection points: 4
#     Node 32, Type 0, BuildingBlock: QUQFOY_clean_sbu_1, # of connection points: 4
#     Node 33, Type 0, BuildingBlock: QUQFOY_clean_sbu_1, # of connection points: 4
#     Node 34, Type 0, BuildingBlock: QUQFOY_clean_sbu_1, # of connection points: 4
#     Node 35, Type 0, BuildingBlock: QUQFOY_clean_sbu_1, # of connection points: 4
#     Node 36, Type 0, BuildingBlock: QUQFOY_clean_sbu_1, # of connection points: 4
#     Node 37, Type 0, BuildingBlock: QUQFOY_clean_sbu_1, # of connection points: 4
#     Node 38, Type 0, BuildingBlock: QUQFOY_clean_sbu_1, # of connection points: 4
#     Node 39, Type 0, BuildingBlock: QUQFOY_clean_sbu_1, # of connection points: 4
#     Node 40, Type 0, BuildingBlock: QUQFOY_clean_sbu_1, # of connection points: 4
#     Node 41, Type 0, BuildingBlock: QUQFOY_clean_sbu_1, # of connection points: 4
#     Node 42, Type 0, BuildingBlock: QUQFOY_clean_sbu_1, # of connection points: 4
#     Node 43, Type 0, BuildingBlock: QUQFOY_clean_sbu_1, # of connection points: 4
#     Node 44, Type 0, BuildingBlock: QUQFOY_clean_sbu_1, # of connection points: 4
#     Node 45, Type 0, BuildingBlock: QUQFOY_clean_sbu_1, # of connection points: 4
#     Node 46, Type 0, BuildingBlock: QUQFOY_clean_sbu_1, # of connection points: 4
#     Node 47, Type 0, BuildingBlock: QUQFOY_clean_sbu_1, # of connection points: 4
#     Edge 48, Type (0, 0), BuildingBlock: KIFKEQ_clean_linker_1, # of connection points: 2
#     Edge 49, Type (0, 0), BuildingBlock: KIFKEQ_clean_linker_1, # of connection points: 2
#     Edge 50, Type (0, 0), BuildingBlock: KIFKEQ_clean_linker_1, # of connection points: 2
#     Edge 51, Type (0, 0), BuildingBlock: KIFKEQ_clean_linker_1, # of connection points: 2
#     Edge 52, Type (0, 0), BuildingBlock: KIFKEQ_clean_linker_1, # of connection points: 2
#     Edge 53, Type (0, 0), BuildingBlock: KIFKEQ_clean_linker_1, # of connection points: 2
#     Edge 54, Type (0, 0), BuildingBlock: KIFKEQ_clean_linker_1, # of connection points: 2
#     Edge 55, Type (0, 0), BuildingBlock: KIFKEQ_clean_linker_1, # of connection points: 2
#     Edge 56, Type (0, 0), BuildingBlock: KIFKEQ_clean_linker_1, # of connection points: 2
#     Edge 57, Type (0, 0), BuildingBlock: KIFKEQ_clean_linker_1, # of connection points: 2
#     Edge 58, Type (0, 0), BuildingBlock: KIFKEQ_clean_linker_1, # of connection points: 2
#     Edge 59, Type (0, 0), BuildingBlock: KIFKEQ_clean_linker_1, # of connection points: 2
#     Edge 60, Type (0, 0), BuildingBlock: KIFKEQ_clean_linker_1, # of connection points: 2
#     Edge 61, Type (0, 0), BuildingBlock: KIFKEQ_clean_linker_1, # of connection points: 2
#     Edge 62, Type (0, 0), BuildingBlock: KIFKEQ_clean_linker_1, # of connection points: 2
#     Edge 63, Type (0, 0), BuildingBlock: KIFKEQ_clean_linker_1, # of connection points: 2
#     Edge 64, Type (0, 0), BuildingBlock: KIFKEQ_clean_linker_1, # of connection points: 2
#     Edge 65, Type (0, 0), BuildingBlock: KIFKEQ_clean_linker_1, # of connection points: 2
#     Edge 66, Type (0, 0), BuildingBlock: KIFKEQ_clean_linker_1, # of connection points: 2
#     Edge 67, Type (0, 0), BuildingBlock: KIFKEQ_clean_linker_1, # of connection points: 2
#     Edge 68, Type (0, 0), BuildingBlock: KIFKEQ_clean_linker_1, # of connection points: 2
#     Edge 69, Type (0, 0), BuildingBlock: KIFKEQ_clean_linker_1, # of connection points: 2
#     Edge 70, Type (0, 0), BuildingBlock: KIFKEQ_clean_linker_1, # of connection points: 2
#     Edge 71, Type (0, 0), BuildingBlock: KIFKEQ_clean_linker_1, # of connection points: 2
#     Edge 72, Type (0, 0), BuildingBlock: KIFKEQ_clean_linker_1, # of connection points: 2
#     Edge 73, Type (0, 0), BuildingBlock: KIFKEQ_clean_linker_1, # of connection points: 2
#     Edge 74, Type (0, 0), BuildingBlock: KIFKEQ_clean_linker_1, # of connection points: 2
#     Edge 75, Type (0, 0), BuildingBlock: KIFKEQ_clean_linker_1, # of connection points: 2
#     Edge 76, Type (0, 0), BuildingBlock: KIFKEQ_clean_linker_1, # of connection points: 2
#     Edge 77, Type (0, 0), BuildingBlock: KIFKEQ_clean_linker_1, # of connection points: 2
#     Edge 78, Type (0, 0), BuildingBlock: KIFKEQ_clean_linker_1, # of connection points: 2
#     Edge 79, Type (0, 0), BuildingBlock: KIFKEQ_clean_linker_1, # of connection points: 2
#     Edge 80, Type (0, 0), BuildingBlock: KIFKEQ_clean_linker_1, # of connection points: 2
#     Edge 81, Type (0, 0), BuildingBlock: KIFKEQ_clean_linker_1, # of connection points: 2
#     Edge 82, Type (0, 0), BuildingBlock: KIFKEQ_clean_linker_1, # of connection points: 2
#     Edge 83, Type (0, 0), BuildingBlock: KIFKEQ_clean_linker_1, # of connection points: 2
#     Edge 84, Type (0, 0), BuildingBlock: KIFKEQ_clean_linker_1, # of connection points: 2
#     Edge 85, Type (0, 0), BuildingBlock: KIFKEQ_clean_linker_1, # of connection points: 2
#     Edge 86, Type (0, 0), BuildingBlock: KIFKEQ_clean_linker_1, # of connection points: 2
#     Edge 87, Type (0, 0), BuildingBlock: KIFKEQ_clean_linker_1, # of connection points: 2
#     Edge 88, Type (0, 0), BuildingBlock: KIFKEQ_clean_linker_1, # of connection points: 2
#     Edge 89, Type (0, 0), BuildingBlock: KIFKEQ_clean_linker_1, # of connection points: 2
#     Edge 90, Type (0, 0), BuildingBlock: KIFKEQ_clean_linker_1, # of connection points: 2
#     Edge 91, Type (0, 0), BuildingBlock: KIFKEQ_clean_linker_1, # of connection points: 2
#     Edge 92, Type (0, 0), BuildingBlock: KIFKEQ_clean_linker_1, # of connection points: 2
#     Edge 93, Type (0, 0), BuildingBlock: KIFKEQ_clean_linker_1, # of connection points: 2
#     Edge 94, Type (0, 0), BuildingBlock: KIFKEQ_clean_linker_1, # of connection points: 2
#     Edge 95, Type (0, 0), BuildingBlock: KIFKEQ_clean_linker_1, # of connection points: 2
#     Edge 96, Type (0, 0), BuildingBlock: KIFKEQ_clean_linker_1, # of connection points: 2
#     Edge 97, Type (0, 0), BuildingBlock: KIFKEQ_clean_linker_1, # of connection points: 2
#     Edge 98, Type (0, 0), BuildingBlock: KIFKEQ_clean_linker_1, # of connection points: 2
#     Edge 99, Type (0, 0), BuildingBlock: KIFKEQ_clean_linker_1, # of connection points: 2
#     Edge 100, Type (0, 0), BuildingBlock: KIFKEQ_clean_linker_1, # of connection points: 2
#     Edge 101, Type (0, 0), BuildingBlock: KIFKEQ_clean_linker_1, # of connection points: 2
#     Edge 102, Type (0, 0), BuildingBlock: KIFKEQ_clean_linker_1, # of connection points: 2
#     Edge 103, Type (0, 0), BuildingBlock: KIFKEQ_clean_linker_1, # of connection points: 2
#     Edge 104, Type (0, 0), BuildingBlock: KIFKEQ_clean_linker_1, # of connection points: 2
#     Edge 105, Type (0, 0), BuildingBlock: KIFKEQ_clean_linker_1, # of connection points: 2
#     Edge 106, Type (0, 0), BuildingBlock: KIFKEQ_clean_linker_1, # of connection points: 2
#     Edge 107, Type (0, 0), BuildingBlock: KIFKEQ_clean_linker_1, # of connection points: 2
#     Edge 108, Type (0, 0), BuildingBlock: KIFKEQ_clean_linker_1, # of connection points: 2
#     Edge 109, Type (0, 0), BuildingBlock: KIFKEQ_clean_linker_1, # of connection points: 2
#     Edge 110, Type (0, 0), BuildingBlock: KIFKEQ_clean_linker_1, # of connection points: 2
#     Edge 111, Type (0, 0), BuildingBlock: KIFKEQ_clean_linker_1, # of connection points: 2
#     Edge 112, Type (0, 0), BuildingBlock: KIFKEQ_clean_linker_1, # of connection points: 2
#     Edge 113, Type (0, 0), BuildingBlock: KIFKEQ_clean_linker_1, # of connection points: 2
#     Edge 114, Type (0, 0), BuildingBlock: KIFKEQ_clean_linker_1, # of connection points: 2
#     Edge 115, Type (0, 0), BuildingBlock: KIFKEQ_clean_linker_1, # of connection points: 2
#     Edge 116, Type (0, 0), BuildingBlock: KIFKEQ_clean_linker_1, # of connection points: 2
#     Edge 117, Type (0, 0), BuildingBlock: KIFKEQ_clean_linker_1, # of connection points: 2
#     Edge 118, Type (0, 0), BuildingBlock: KIFKEQ_clean_linker_1, # of connection points: 2
#     Edge 119, Type (0, 0), BuildingBlock: KIFKEQ_clean_linker_1, # of connection points: 2
#     Edge 120, Type (0, 0), BuildingBlock: KIFKEQ_clean_linker_1, # of connection points: 2
#     Edge 121, Type (0, 0), BuildingBlock: KIFKEQ_clean_linker_1, # of connection points: 2
#     Edge 122, Type (0, 0), BuildingBlock: KIFKEQ_clean_linker_1, # of connection points: 2
#     Edge 123, Type (0, 0), BuildingBlock: KIFKEQ_clean_linker_1, # of connection points: 2
#     Edge 124, Type (0, 0), BuildingBlock: KIFKEQ_clean_linker_1, # of connection points: 2
#     Edge 125, Type (0, 0), BuildingBlock: KIFKEQ_clean_linker_1, # of connection points: 2
#     Edge 126, Type (0, 0), BuildingBlock: KIFKEQ_clean_linker_1, # of connection points: 2
#     Edge 127, Type (0, 0), BuildingBlock: KIFKEQ_clean_linker_1, # of connection points: 2
#     Edge 128, Type (0, 0), BuildingBlock: KIFKEQ_clean_linker_1, # of connection points: 2
#     Edge 129, Type (0, 0), BuildingBlock: KIFKEQ_clean_linker_1, # of connection points: 2
#     Edge 130, Type (0, 0), BuildingBlock: KIFKEQ_clean_linker_1, # of connection points: 2
#     Edge 131, Type (0, 0), BuildingBlock: KIFKEQ_clean_linker_1, # of connection points: 2
#     Edge 132, Type (0, 0), BuildingBlock: KIFKEQ_clean_linker_1, # of connection points: 2
#     Edge 133, Type (0, 0), BuildingBlock: KIFKEQ_clean_linker_1, # of connection points: 2
#     Edge 134, Type (0, 0), BuildingBlock: KIFKEQ_clean_linker_1, # of connection points: 2
#     Edge 135, Type (0, 0), BuildingBlock: KIFKEQ_clean_linker_1, # of connection points: 2
#     Edge 136, Type (0, 0), BuildingBlock: KIFKEQ_clean_linker_1, # of connection points: 2
#     Edge 137, Type (0, 0), BuildingBlock: KIFKEQ_clean_linker_1, # of connection points: 2
#     Edge 138, Type (0, 0), BuildingBlock: KIFKEQ_clean_linker_1, # of connection points: 2
#     Edge 139, Type (0, 0), BuildingBlock: KIFKEQ_clean_linker_1, # of connection points: 2
#     Edge 140, Type (0, 0), BuildingBlock: KIFKEQ_clean_linker_1, # of connection points: 2
#     Edge 141, Type (0, 0), BuildingBlock: KIFKEQ_clean_linker_1, # of connection points: 2
#     Edge 142, Type (0, 0), BuildingBlock: KIFKEQ_clean_linker_1, # of connection points: 2
#     Edge 143, Type (0, 0), BuildingBlock: KIFKEQ_clean_linker_1, # of connection points: 2
# Relax obj value: 0.008
# Max RMSD: 0.067
# Mean RMSD: 0.067
data_MOF--net-ull--node1-QUQFOY_clean_sbu_1--edge1-KIFKEQ_clean_linker_1
_symmetry_space_group_name_H-M    P1
_symmetry_Int_Tables_number       1
_symmetry_cell_setting            triclinic
loop_
_symmetry_equiv_pos_as_xyz
'x, y, z'
_cell_length_a     63.988742
_cell_length_b     63.930324
_cell_length_c     63.975708
_cell_angle_alpha  89.989451
_cell_angle_beta   90.048482
_cell_angle_gamma 90.051218
loop_
_atom_site_label
_atom_site_type_symbol
_atom_site_fract_x
_atom_site_fract_y
_atom_site_fract_z
_atom_type_partial_charge
O0 O 1.00792 0.34545 0.21897 0.0
Cd1 Cd 1.00833 0.37185 0.20045 0.0
Cd2 Cd 0.02773 0.34514 0.17367 0.0
O3 O 0.02752 0.32507 0.19928 0.0
O4 O 1.00661 0.39563 0.22067 0.0
O5 O 0.03438 0.38953 0.20099 0.0
C6 C 0.02561 0.40025 0.2157 0.0
C7 C 0.05744 0.34863 0.15232 0.0
C8 C 0.01734 0.3282 0.21609 0.0
C9 C 0.98487 0.36209 0.16148 0.0
O10 O 0.99973 0.34932 0.15809 0.0
O11 O 0.98545 0.3741 0.17737 0.0
O12 O 0.04627 0.33185 0.15234 0.0
O13 O 0.05228 0.36332 0.16518 0.0
O14 O 0.67586 1.00798 0.21905 0.0
Cd15 Cd 0.64992 0.01052 0.19982 0.0
Cd16 Cd 0.67789 0.02914 0.17506 0.0
O17 O 0.69657 0.02929 0.20152 0.0
O18 O 0.62478 0.01026 0.21845 0.0
O19 O 0.63516 0.03822 0.20084 0.0
C20 C 0.62258 0.02992 0.21431 0.0
C21 C 0.67467 0.0581 0.15269 0.0
C22 C 0.69304 0.0179 0.21746 0.0
C23 C 0.66112 0.98686 0.16182 0.0
O24 O 0.67531 1.00068 0.1602 0.0
O25 O 0.647 0.98866 0.17572 0.0
O26 O 0.69152 0.0471 0.15344 0.0
O27 O 0.65983 0.05337 0.16553 0.0
O28 O 1.00851 0.67455 0.21898 0.0
Cd29 Cd 1.00605 0.64885 0.19947 0.0
Cd30 Cd 0.98765 0.67689 0.17465 0.0
O31 O 0.98714 0.69515 0.20141 0.0
O32 O 1.00605 0.62349 0.21789 0.0
O33 O 0.97828 0.63421 0.20025 0.0
C34 C 0.9864 0.62148 0.2137 0.0
C35 C 0.95849 0.67323 0.15254 0.0
C36 C 0.99843 0.69163 0.21743 0.0
C37 C 0.03001 0.66057 0.16164 0.0
O38 O 0.01624 0.67479 0.15991 0.0
O39 O 0.02801 0.64633 0.17543 0.0
O40 O 0.96887 0.6905 0.15366 0.0
O41 O 0.96412 0.65814 0.16473 0.0
O42 O 0.34417 1.00932 0.21893 0.0
Cd43 Cd 0.37016 1.00794 0.19969 0.0
Cd44 Cd 0.34237 0.98892 0.17466 0.0
O45 O 0.32346 0.98846 0.20091 0.0
O46 O 0.39452 1.00978 0.21926 0.0
O47 O 0.38746 0.98162 0.20043 0.0
C48 C 0.39873 0.99059 0.21462 0.0
C49 C 0.34658 0.95947 0.15308 0.0
C50 C 0.32698 0.99949 0.21709 0.0
C51 C 0.35829 0.03166 0.16167 0.0
O52 O 0.34456 0.01741 0.15964 0.0
O53 O 0.37218 0.03025 0.17589 0.0
O54 O 0.3293 0.96981 0.15364 0.0
O55 O 0.36141 0.96536 0.16548 0.0
O56 O 0.01463 0.67925 0.7985 0.0
Cd57 Cd 0.0138 0.6524 0.81645 0.0
Cd58 Cd 0.03275 0.67844 0.84463 0.0
O59 O 0.03171 0.69993 0.82029 0.0
O60 O 0.01183 0.62918 0.7956 0.0
O61 O 0.03931 0.63397 0.81608 0.0
C62 C 0.03055 0.62386 0.80092 0.0
C63 C 0.06257 0.67439 0.86572 0.0
C64 C 0.02287 0.69684 0.80275 0.0
C65 C 0.98994 0.66086 0.85572 0.0
O66 O 1.00505 0.67305 0.86006 0.0
O67 O 0.9903 0.64999 0.83902 0.0
O68 O 0.05116 0.69097 0.86653 0.0
O69 O 0.05763 0.66028 0.85212 0.0
O70 O 0.34777 1.00515 0.8017 0.0
Cd71 Cd 0.37403 1.00783 0.82019 0.0
Cd72 Cd 0.3469 0.02701 0.84632 0.0
O73 O 0.32694 0.02505 0.82067 0.0
O74 O 0.39883 1.00846 0.80113 0.0
O75 O 0.3882 0.03585 0.81945 0.0
C76 C 0.40071 0.02807 0.80562 0.0
C77 C 0.34829 0.05695 0.86767 0.0
C78 C 0.33026 0.01418 0.80431 0.0
C79 C 0.36556 0.9852 0.85974 0.0
O80 O 0.35225 0.99967 0.86262 0.0
O81 O 0.37757 0.98576 0.84389 0.0
O82 O 0.33241 0.04454 0.86771 0.0
O83 O 0.36313 0.05306 0.85456 0.0
O84 O 1.00743 0.34115 0.80147 0.0
Cd85 Cd 1.00815 0.36798 0.81951 0.0
Cd86 Cd 0.98981 0.34143 0.84775 0.0
O87 O 0.99091 0.32011 0.82333 0.0
O88 O 0.00995 0.3913 0.79872 0.0
O89 O 0.98257 0.38638 0.81923 0.0
C90 C 0.99126 0.3966 0.80411 0.0
C91 C 0.96013 0.345 0.86899 0.0
C92 C 0.99951 0.32341 0.80572 0.0
C93 C 0.03242 0.35957 0.85864 0.0
O94 O 0.01754 0.34713 0.863 0.0
O95 O 0.03178 0.37053 0.84201 0.0
O96 O 0.97172 0.32854 0.86969 0.0
O97 O 0.96482 0.35924 0.85544 0.0
O98 O 0.67168 0.01244 0.80198 0.0
Cd99 Cd 0.64584 1.00929 0.82119 0.0
Cd100 Cd 0.67392 0.99082 0.84584 0.0
O101 O 0.69263 0.99131 0.81944 0.0
O102 O 0.62064 1.009 0.80259 0.0
O103 O 0.63171 0.98126 0.8201 0.0
C104 C 0.61892 0.98928 0.80665 0.0
C105 C 0.67119 0.96124 0.86753 0.0
C106 C 0.68899 1.00278 0.80358 0.0
C107 C 0.65679 0.03283 0.8594 0.0
O108 O 0.67105 0.0191 0.86106 0.0
O109 O 0.64273 0.03099 0.84541 0.0
O110 O 0.68786 0.97257 0.86704 0.0
O111 O 0.65619 0.96612 0.85494 0.0
O112 O 0.21836 1.00945 0.34538 0.0
Cd113 Cd 0.19962 0.01035 0.37175 0.0
Cd114 Cd 0.17363 0.02841 0.34393 0.0
O115 O 0.19951 0.0294 0.32452 0.0
O116 O 0.21989 1.00871 0.39553 0.0
O117 O 0.20038 0.03657 0.38923 0.0
C118 C 0.21505 0.02778 0.40001 0.0
C119 C 0.15061 0.05686 0.34734 0.0
C120 C 0.21606 0.01895 0.32806 0.0
C121 C 0.16236 0.98536 0.36065 0.0
O122 O 0.15977 0.99943 0.34685 0.0
O123 O 0.17662 0.9873 0.37441 0.0
O124 O 0.1512 0.0456 0.33064 0.0
O125 O 0.16386 0.05262 0.36198 0.0
O126 O 0.01111 0.21857 0.34439 0.0
Cd127 Cd 1.00863 0.19972 0.37064 0.0
Cd128 Cd 0.99017 0.17437 0.34303 0.0
O129 O 0.99002 0.2005 0.32389 0.0
O130 O 1.00883 0.21876 0.39554 0.0
O131 O 0.98094 0.20093 0.38543 0.0
C132 C 0.98921 0.21462 0.39782 0.0
C133 C 0.96108 0.15216 0.34645 0.0
C134 C 1.00129 0.2166 0.32718 0.0
C135 C 0.03246 0.16156 0.36001 0.0
O136 O 0.01864 0.15959 0.34587 0.0
O137 O 0.0306 0.17572 0.37389 0.0
O138 O 0.97218 0.15258 0.32966 0.0
O139 O 0.96585 0.16516 0.36115 0.0
O140 O 0.80092 1.00936 0.3466 0.0
Cd141 Cd 0.81974 1.00883 0.37297 0.0
Cd142 Cd 0.84583 0.99076 0.34542 0.0
O143 O 0.82001 0.98941 0.32599 0.0
O144 O 0.79958 1.01016 0.39682 0.0
O145 O 0.81949 0.9826 0.39046 0.0
C146 C 0.80473 0.99116 0.40128 0.0
C147 C 0.86897 0.96245 0.34894 0.0
C148 C 0.80335 0.99972 0.32938 0.0
C149 C 0.85682 0.03403 0.36172 0.0
O150 O 0.85952 0.01984 0.34809 0.0
O151 O 0.84255 0.03213 0.37546 0.0
O152 O 0.86831 0.97366 0.33221 0.0
O153 O 0.85575 0.9667 0.36358 0.0
O154 O 1.00816 0.80037 0.34614 0.0
Cd155 Cd 0.01079 0.81954 0.37211 0.0
Cd156 Cd 0.02904 0.84465 0.34418 0.0
O157 O 0.02906 0.8183 0.32536 0.0
O158 O 0.01106 0.80083 0.39722 0.0
O159 O 0.03866 0.81877 0.38651 0.0
C160 C 0.03069 0.80516 0.39916 0.0
C161 C 0.05811 0.86696 0.34711 0.0
C162 C 0.01789 0.8022 0.32888 0.0
C163 C 0.98688 0.85756 0.36132 0.0
O164 O 1.00059 0.85944 0.34709 0.0
O165 O 0.98883 0.8435 0.37529 0.0
O166 O 0.04684 0.86632 0.3304 0.0
O167 O 0.05352 0.8541 0.36199 0.0
O168 O 0.22064 1.00681 0.67674 0.0
Cd169 Cd 0.20177 1.00636 0.65045 0.0
Cd170 Cd 0.1761 0.9871 0.67752 0.0
O171 O 0.20212 0.98575 0.69677 0.0
O172 O 0.22182 1.00896 0.62662 0.0
O173 O 0.2027 0.98065 0.63228 0.0
C174 C 0.21717 0.98995 0.62166 0.0
C175 C 0.15386 0.95824 0.67247 0.0
C176 C 0.2185 0.99659 0.69367 0.0
C177 C 0.16401 0.03035 0.66227 0.0
O178 O 0.16162 0.01589 0.67571 0.0
O179 O 0.17836 0.02898 0.64854 0.0
O180 O 0.15451 0.96825 0.68996 0.0
O181 O 0.16659 0.96406 0.65792 0.0
O182 O 0.0127 0.21684 0.6773 0.0
Cd183 Cd 0.01179 0.19928 0.6502 0.0
Cd184 Cd 0.02969 0.17025 0.67673 0.0
O185 O 0.02833 0.19437 0.69842 0.0
O186 O 0.01047 0.22054 0.6273 0.0
O187 O 0.0375 0.1995 0.63201 0.0
C188 C 0.02913 0.21498 0.62205 0.0
C189 C 0.05881 0.14795 0.67467 0.0
C190 C 0.02017 0.21222 0.69513 0.0
C191 C 0.98699 0.16038 0.65764 0.0
O192 O 1.00188 0.15559 0.66989 0.0
O193 O 0.98773 0.1773 0.64713 0.0
O194 O 0.04593 0.14722 0.69012 0.0
O195 O 0.05581 0.16219 0.66065 0.0
O196 O 0.79767 0.01322 0.67555 0.0
Cd197 Cd 0.81684 0.01416 0.64954 0.0
Cd198 Cd 0.84221 0.03311 0.67703 0.0
O199 O 0.81602 0.03405 0.69602 0.0
O200 O 0.79712 0.01235 0.62534 0.0
O201 O 0.81631 0.04037 0.63212 0.0
C202 C 0.80193 0.03149 0.62102 0.0
C203 C 0.86422 0.06226 0.67268 0.0
C204 C 0.79967 0.02322 0.69262 0.0
C205 C 0.85454 0.99007 0.66138 0.0
O206 O 0.85684 1.00441 0.67498 0.0
O207 O 0.84027 0.99156 0.64756 0.0
O208 O 0.86354 0.05193 0.68998 0.0
O209 O 0.85169 0.05655 0.6579 0.0
O210 O 1.00723 0.80375 0.67435 0.0
Cd211 Cd 1.00623 0.82199 0.6477 0.0
Cd212 Cd 0.98862 0.84995 0.67493 0.0
O213 O 0.99088 0.82525 0.69593 0.0
O214 O 1.00627 0.80227 0.62337 0.0
O215 O 0.97893 0.82159 0.63206 0.0
C216 C 0.98695 0.80723 0.62031 0.0
C217 C 0.95913 0.87184 0.6735 0.0
C218 C 0.99978 0.80782 0.69232 0.0
C219 C 0.0305 0.86121 0.6553 0.0
O220 O 0.01603 0.86533 0.66824 0.0
O221 O 0.02955 0.84469 0.6442 0.0
O222 O 0.97202 0.87233 0.68898 0.0
O223 O 0.96227 0.85797 0.65915 0.0
O224 O 0.3422 0.21775 0.00997 0.0
Cd225 Cd 0.36877 0.19928 0.01086 0.0
Cd226 Cd 0.34096 0.17276 0.02836 0.0
O227 O 0.32128 0.19843 0.02942 0.0
O228 O 0.39226 0.21992 1.00941 0.0
O229 O 0.38623 0.20009 0.03711 0.0
C230 C 0.3968 0.215 0.02844 0.0
C231 C 0.34444 0.14963 0.05672 0.0
C232 C 0.3248 0.21517 0.01923 0.0
C233 C 0.35828 0.16209 0.98543 0.0
O234 O 0.34438 0.15919 0.99932 0.0
O235 O 0.37184 0.17652 0.98765 0.0
O236 O 0.32785 0.15001 0.04528 0.0
O237 O 0.35892 0.16313 0.05267 0.0
O238 O 0.34466 0.79963 0.01209 0.0
Cd239 Cd 0.37137 0.81771 0.01096 0.0
Cd240 Cd 0.34513 0.84422 0.99097 0.0
O241 O 0.32458 0.81899 0.99183 0.0
O242 O 0.39508 0.79733 0.01237 0.0
O243 O 0.38848 0.81685 0.98456 0.0
C244 C 0.39935 0.80219 0.99326 0.0
C245 C 0.3491 0.86506 0.96095 0.0
C246 C 0.32742 0.8025 1.00264 0.0
C247 C 0.36219 0.85725 0.03353 0.0
O248 O 0.34944 0.86036 0.01859 0.0
O249 O 0.37408 0.84127 0.03334 0.0
O250 O 0.33224 0.8654 0.97195 0.0
O251 O 0.36354 0.85203 0.9664 0.0
O252 O 0.21793 0.3452 0.01194 0.0
Cd253 Cd 0.19975 0.37176 0.01063 0.0
Cd254 Cd 0.17326 0.34531 0.9906 0.0
O255 O 0.19857 0.32494 0.99184 0.0
O256 O 0.22005 0.39551 0.01212 0.0
O257 O 0.20071 0.3888 0.98419 0.0
C258 C 0.21533 0.39971 0.99295 0.0
C259 C 0.15264 0.34812 0.96027 0.0
C260 C 0.21507 0.3279 1.00256 0.0
C261 C 0.16008 0.36275 0.033 0.0
O262 O 0.15691 0.34999 0.01806 0.0
O263 O 0.17617 0.3745 0.03289 0.0
O264 O 0.15236 0.33162 0.97183 0.0
O265 O 0.16539 0.36293 0.96541 0.0
O266 O 0.6742 0.21804 0.01426 0.0
Cd267 Cd 0.64758 0.19989 0.01111 0.0
Cd268 Cd 0.67404 0.17519 0.99123 0.0
O269 O 0.69231 0.20198 0.98975 0.0
O270 O 0.62286 0.21911 0.01107 0.0
O271 O 0.63338 0.20154 0.98317 0.0
C272 C 0.62092 0.21519 0.99135 0.0
C273 C 0.67055 0.15217 0.96275 0.0
C274 C 0.69028 0.21703 1.00262 0.0
C275 C 0.65863 0.16187 0.03402 0.0
O276 O 0.67271 0.16063 0.02007 0.0
O277 O 0.64418 0.17544 0.03236 0.0
O278 O 0.68764 0.15347 0.97336 0.0
O279 O 0.65555 0.16477 0.96762 0.0
O280 O 0.80255 0.67669 1.00507 0.0
Cd281 Cd 0.82101 0.65021 1.00547 0.0
Cd282 Cd 0.84875 0.67707 0.98707 0.0
O283 O 0.82405 0.69806 0.9885 0.0
O284 O 0.80053 0.62663 1.00721 0.0
O285 O 0.8208 0.63206 0.97972 0.0
C286 C 0.80582 0.62162 0.9884 0.0
C287 C 0.86972 0.67409 0.95705 0.0
C288 C 0.80653 0.6945 0.9972 0.0
C289 C 0.86007 0.65911 0.02966 0.0
O290 O 0.86428 0.67156 0.01474 0.0
O291 O 0.84357 0.64793 0.02903 0.0
O292 O 0.87033 0.69041 0.96887 0.0
O293 O 0.85645 0.6596 0.96176 0.0
O294 O 0.67746 0.80069 0.01194 0.0
Cd295 Cd 0.65062 0.81896 0.01143 0.0
Cd296 Cd 0.6782 0.84698 0.02752 0.0
O297 O 0.69904 0.82238 0.02803 0.0
O298 O 0.62733 0.79805 0.01035 0.0
O299 O 0.63252 0.81914 0.03725 0.0
C300 C 0.62222 0.80382 0.02898 0.0
C301 C 0.67453 0.87005 0.05583 0.0
C302 C 0.69534 0.8047 0.0197 0.0
C303 C 0.6602 0.85587 0.98461 0.0
O304 O 0.67375 0.86002 0.99853 0.0
O305 O 0.64749 0.84071 0.98708 0.0
O306 O 0.69081 0.87029 0.04398 0.0
O307 O 0.66047 0.85599 0.05218 0.0
O308 O 0.21808 0.67481 0.01076 0.0
Cd309 Cd 0.20018 0.648 0.01143 0.0
Cd310 Cd 0.1728 0.67497 0.03021 0.0
O311 O 0.19804 0.69557 0.02963 0.0
O312 O 0.22099 0.62471 0.01039 0.0
O313 O 0.20075 0.63073 0.03777 0.0
C314 C 0.21585 0.62024 0.02938 0.0
C315 C 0.15009 0.67287 0.05905 0.0
C316 C 0.21493 0.69232 0.01962 0.0
C317 C 0.16155 0.65662 0.98738 0.0
O318 O 0.15788 0.66946 1.00211 0.0
O319 O 0.17762 0.6449 0.98813 0.0
O320 O 0.15025 0.68882 0.04674 0.0
O321 O 0.16374 0.65838 0.05574 0.0
O322 O 0.79982 0.34483 1.00578 0.0
Cd323 Cd 0.81771 0.37142 1.00886 0.0
Cd324 Cd 0.84297 0.34579 0.0304 0.0
O325 O 0.81646 0.32676 0.03 0.0
O326 O 0.7986 0.39617 1.00834 0.0
O327 O 0.81588 0.38593 0.03658 0.0
C328 C 0.80238 0.39836 0.02806 0.0
C329 C 0.86392 0.34894 0.06051 0.0
C330 C 0.80131 0.32862 0.01719 0.0
C331 C 0.85764 0.36188 0.98802 0.0
O332 O 0.8597 0.34872 1.0028 0.0
O333 O 0.84231 0.37454 0.98803 0.0
O334 O 0.86325 0.33191 0.04976 0.0
O335 O 0.85185 0.36407 0.05476 0.0
O336 O 0.50799 0.84244 0.71898 0.0
Cd337 Cd 0.51035 0.86876 0.70048 0.0
Cd338 Cd 0.52974 0.84176 0.67438 0.0
O339 O 0.5285 0.82202 0.70024 0.0
O340 O 0.50975 0.89353 0.71964 0.0
O341 O 0.53784 0.88389 0.70192 0.0
C342 C 0.52936 0.89611 0.71559 0.0
C343 C 0.55985 0.84512 0.65363 0.0
C344 C 0.51748 0.82515 0.71652 0.0
C345 C 0.48793 0.8597 0.66074 0.0
O346 O 0.50228 0.84622 0.65801 0.0
O347 O 0.48861 0.87194 0.67643 0.0
O348 O 0.54876 0.82828 0.65358 0.0
O349 O 0.55447 0.85984 0.66635 0.0
O350 O 0.17561 0.5097 0.7177 0.0
Cd351 Cd 0.14947 0.51109 0.69864 0.0
Cd352 Cd 0.17767 0.52909 0.67314 0.0
O353 O 0.19678 0.52972 0.69926 0.0
O354 O 0.1254 0.51003 0.71853 0.0
O355 O 0.13268 0.53772 0.69907 0.0
C356 C 0.12148 0.52921 0.7136 0.0
C357 C 0.17496 0.55761 0.65015 0.0
C358 C 0.19301 0.51914 0.71567 0.0
C359 C 0.16051 0.48634 0.66131 0.0
O360 O 0.17449 0.50029 0.65902 0.0
O361 O 0.14667 0.48827 0.67546 0.0
O362 O 0.19149 0.54614 0.65096 0.0
O363 O 0.16011 0.55355 0.66321 0.0
O364 O 0.51059 0.17638 0.71959 0.0
Cd365 Cd 0.50868 0.15017 0.70089 0.0
Cd366 Cd 0.48855 0.17675 0.67502 0.0
O367 O 0.48969 0.19647 0.70089 0.0
O368 O 0.50944 0.12521 0.7198 0.0
O369 O 0.48134 0.13479 0.70201 0.0
C370 C 0.48987 0.12251 0.71562 0.0
C371 C 0.45823 0.17323 0.65449 0.0
C372 C 0.5008 0.19351 0.71716 0.0
C373 C 0.53074 0.15991 0.66114 0.0
O374 O 0.51598 0.17294 0.65842 0.0
O375 O 0.53048 0.14765 0.67684 0.0
O376 O 0.46919 0.19015 0.65445 0.0
O377 O 0.4639 0.15846 0.66704 0.0
O378 O 0.84747 0.51472 0.71885 0.0
Cd379 Cd 0.87458 0.51238 0.70168 0.0
Cd380 Cd 0.84951 0.49107 0.67556 0.0
O381 O 0.8295 0.4911 0.70128 0.0
O382 O 0.89815 0.51274 0.72226 0.0
O383 O 0.89029 0.48519 0.70276 0.0
C384 C 0.9015 0.4934 0.71746 0.0
C385 C 0.85288 0.46126 0.6542 0.0
C386 C 0.83114 0.5036 0.71669 0.0
C387 C 0.86575 0.53402 0.66202 0.0
O388 O 0.85296 0.51898 0.65937 0.0
O389 O 0.87798 0.53404 0.67774 0.0
O390 O 0.83602 0.47225 0.65451 0.0
O391 O 0.86773 0.46661 0.6668 0.0
O392 O 0.5076 0.17395 0.30034 0.0
Cd393 Cd 0.51041 0.14787 0.31906 0.0
Cd394 Cd 0.52987 0.17513 0.34482 0.0
O395 O 0.52814 0.19462 0.31884 0.0
O396 O 0.51051 0.12286 0.30022 0.0
O397 O 0.53827 0.13349 0.31799 0.0
C398 C 0.53017 0.12089 0.3044 0.0
C399 C 0.56013 0.17306 0.36559 0.0
C400 C 0.51699 0.19134 0.30267 0.0
C401 C 0.48821 0.15699 0.35879 0.0
O402 O 0.50259 0.17048 0.3614 0.0
O403 O 0.48876 0.14469 0.34314 0.0
O404 O 0.54858 0.18956 0.36531 0.0
O405 O 0.55509 0.15791 0.35322 0.0
O406 O 0.84023 0.51008 0.30002 0.0
Cd407 Cd 0.8662 0.51227 0.31923 0.0
Cd408 Cd 0.83834 0.53039 0.34449 0.0
O409 O 0.81981 0.53129 0.31794 0.0
O410 O 0.89124 0.51166 0.30044 0.0
O411 O 0.88143 0.53976 0.31808 0.0
C412 C 0.89378 0.53128 0.30453 0.0
C413 C 0.84287 0.55932 0.3667 0.0
C414 C 0.82318 0.52016 0.30179 0.0
C415 C 0.85487 0.48802 0.35708 0.0
O416 O 0.84055 0.50165 0.35897 0.0
O417 O 0.86898 0.49024 0.3432 0.0
O418 O 0.82542 0.54924 0.36583 0.0
O419 O 0.85762 0.55354 0.3542 0.0
O420 O 0.51538 0.84572 0.30045 0.0
Cd421 Cd 0.51318 0.87299 0.31749 0.0
Cd422 Cd 0.49174 0.84808 0.34384 0.0
O423 O 0.49179 0.82794 0.3182 0.0
O424 O 0.51376 0.89641 0.29674 0.0
O425 O 0.48614 0.88894 0.31623 0.0
C426 C 0.49446 0.89998 0.30147 0.0
C427 C 0.46186 0.85133 0.36504 0.0
C428 C 0.5042 0.82945 0.30273 0.0
C429 C 0.53462 0.86455 0.35738 0.0
O430 O 0.51957 0.8518 0.36013 0.0
O431 O 0.53475 0.87653 0.34148 0.0
O432 O 0.47297 0.83454 0.36485 0.0
O433 O 0.46717 0.8662 0.35244 0.0
O434 O 0.17259 0.51154 0.30129 0.0
Cd435 Cd 0.14591 0.51076 0.3193 0.0
Cd436 Cd 0.17209 0.49057 0.34605 0.0
O437 O 0.19278 0.49168 0.32098 0.0
O438 O 0.12234 0.51229 0.29882 0.0
O439 O 0.12855 0.4845 0.31854 0.0
C440 C 0.11787 0.49321 0.30374 0.0
C441 C 0.16957 0.46068 0.3674 0.0
C442 C 0.18987 0.50223 0.30434 0.0
C443 C 0.15493 0.53339 0.35872 0.0
O444 O 0.16732 0.51821 0.36206 0.0
O445 O 0.14332 0.53342 0.34253 0.0
O446 O 0.1857 0.47274 0.36777 0.0
O447 O 0.15503 0.46495 0.35406 0.0
O448 O 0.71967 0.50757 0.84227 0.0
Cd449 Cd 0.70184 0.51016 0.86907 0.0
Cd450 Cd 0.67693 0.53071 0.84297 0.0
O451 O 0.7034 0.53197 0.8242 0.0
O452 O 0.72209 0.50881 0.89288 0.0
O453 O 0.70352 0.53703 0.8853 0.0
C454 C 0.71782 0.52821 0.89654 0.0
C455 C 0.65517 0.56001 0.84768 0.0
C456 C 0.71846 0.51912 0.82614 0.0
C457 C 0.66335 0.48775 0.85817 0.0
O458 O 0.66174 0.50207 0.84443 0.0
O459 O 0.67748 0.48887 0.87214 0.0
O460 O 0.65591 0.55003 0.83019 0.0
O461 O 0.66748 0.55386 0.86246 0.0
O462 O 0.51175 0.7179 0.84622 0.0
Cd463 Cd 0.51131 0.69996 0.87305 0.0
Cd464 Cd 0.49183 0.67261 0.84665 0.0
O465 O 0.4925 0.69768 0.82593 0.0
O466 O 0.5123 0.7206 0.89653 0.0
O467 O 0.48497 0.70028 0.89028 0.0
C468 C 0.49333 0.71532 0.90094 0.0
C469 C 0.46254 0.65049 0.84888 0.0
C470 C 0.5026 0.71459 0.82888 0.0
C471 C 0.5347 0.66084 0.86443 0.0
O472 O 0.51971 0.65723 0.85188 0.0
O473 O 0.53438 0.67709 0.87595 0.0
O474 O 0.4748 0.65032 0.83293 0.0
O475 O 0.46622 0.66409 0.86336 0.0
O476 O 0.30028 0.51015 0.8454 0.0
Cd477 Cd 0.31906 0.50894 0.87174 0.0
Cd478 Cd 0.34468 0.49007 0.84447 0.0
O479 O 0.31872 0.48927 0.82515 0.0
O480 O 0.29903 0.51072 0.89566 0.0
O481 O 0.31814 0.48264 0.88906 0.0
C482 C 0.30368 0.49156 0.89999 0.0
C483 C 0.3666 0.46091 0.8488 0.0
C484 C 0.30243 0.50021 0.82832 0.0
C485 C 0.35699 0.53296 0.86052 0.0
O486 O 0.35934 0.51874 0.84684 0.0
O487 O 0.34262 0.53141 0.8742 0.0
O488 O 0.36605 0.47134 0.83156 0.0
O489 O 0.35401 0.46654 0.86353 0.0
O490 O 0.50811 0.30226 0.84577 0.0
Cd491 Cd 0.51025 0.32067 0.87219 0.0
Cd492 Cd 0.52914 0.34731 0.84492 0.0
O493 O 0.52765 0.32167 0.82494 0.0
O494 O 0.51028 0.30134 0.89683 0.0
O495 O 0.53791 0.31981 0.8871 0.0
C496 C 0.52981 0.30584 0.8993 0.0
C497 C 0.55858 0.36931 0.84628 0.0
C498 C 0.51711 0.30508 0.82827 0.0
C499 C 0.48722 0.36006 0.86373 0.0
O500 O 0.50162 0.36313 0.8504 0.0
O501 O 0.48794 0.34416 0.8757 0.0
O502 O 0.54612 0.36917 0.83044 0.0
O503 O 0.55507 0.35598 0.86105 0.0
O504 O 0.71635 0.51334 0.1715 0.0
Cd505 Cd 0.69791 0.51139 0.14514 0.0
Cd506 Cd 0.67133 0.49216 0.17182 0.0
O507 O 0.69687 0.49352 0.19197 0.0
O508 O 0.71705 0.51104 0.12043 0.0
O509 O 0.69832 0.48366 0.13045 0.0
C510 C 0.7123 0.49153 0.11815 0.0
C511 C 0.64985 0.46232 0.16987 0.0
C512 C 0.71346 0.50411 0.18888 0.0
C513 C 0.65857 0.53436 0.15361 0.0
O514 O 0.65536 0.51974 0.16669 0.0
O515 O 0.67454 0.53378 0.14176 0.0
O516 O 0.64972 0.47453 0.18589 0.0
O517 O 0.66307 0.46639 0.15517 0.0
O518 O 0.50539 0.72034 0.17526 0.0
Cd519 Cd 0.50728 0.70311 0.1481 0.0
Cd520 Cd 0.529 0.67702 0.1728 0.0
O521 O 0.52934 0.70278 0.19277 0.0
O522 O 0.50681 0.7236 0.12444 0.0
O523 O 0.53429 0.704 0.13213 0.0
C524 C 0.52607 0.71868 0.12091 0.0
C525 C 0.55869 0.65568 0.16883 0.0
C526 C 0.51683 0.71821 0.19137 0.0
C527 C 0.4859 0.66333 0.1572 0.0
O528 O 0.5011 0.66075 0.16978 0.0
O529 O 0.48564 0.67908 0.14501 0.0
O530 O 0.54805 0.65599 0.18592 0.0
O531 O 0.55307 0.6683 0.15411 0.0
O532 O 0.30105 0.51103 0.17812 0.0
Cd533 Cd 0.31998 0.51256 0.15193 0.0
Cd534 Cd 0.34544 0.53095 0.17986 0.0
O535 O 0.31933 0.53149 0.199 0.0
O536 O 0.29998 0.5106 0.12793 0.0
O537 O 0.31883 0.53886 0.13459 0.0
C538 C 0.30447 0.52981 0.12361 0.0
C539 C 0.36715 0.56025 0.17531 0.0
C540 C 0.30304 0.52064 0.19542 0.0
C541 C 0.35787 0.48838 0.1632 0.0
O542 O 0.36011 0.50235 0.17719 0.0
O543 O 0.3436 0.49018 0.14941 0.0
O544 O 0.36681 0.5499 0.19261 0.0
O545 O 0.35446 0.55448 0.16069 0.0
O546 O 0.50817 0.30077 0.17494 0.0
Cd547 Cd 0.50728 0.31936 0.14843 0.0
Cd548 Cd 0.48985 0.34582 0.1764 0.0
O549 O 0.48874 0.32002 0.19589 0.0
O550 O 0.50857 0.29884 0.12486 0.0
O551 O 0.48095 0.31868 0.13109 0.0
C552 C 0.48953 0.3038 0.12043 0.0
C553 C 0.46171 0.36925 0.17366 0.0
C554 C 0.49888 0.30329 0.19233 0.0
C555 C 0.53278 0.35648 0.15901 0.0
O556 O 0.51893 0.3593 0.17294 0.0
O557 O 0.53052 0.34213 0.14538 0.0
O558 O 0.47337 0.36851 0.19007 0.0
O559 O 0.4654 0.35596 0.15891 0.0
O560 O 0.84298 0.7175 0.50514 0.0
Cd561 Cd 0.86995 0.70021 0.50837 0.0
Cd562 Cd 0.84479 0.67447 0.52976 0.0
O563 O 0.82529 0.7006 0.52945 0.0
O564 O 0.89439 0.71986 0.50834 0.0
O565 O 0.88404 0.70229 0.53633 0.0
C566 C 0.89633 0.71608 0.52809 0.0
C567 C 0.84874 0.65351 0.55977 0.0
C568 C 0.82683 0.71571 0.51655 0.0
C569 C 0.86093 0.66013 0.48735 0.0
O570 O 0.84776 0.65791 0.50208 0.0
O571 O 0.8735 0.67558 0.4875 0.0
O572 O 0.83158 0.6538 0.54922 0.0
O573 O 0.86351 0.66597 0.55389 0.0
O574 O 0.84547 0.30291 0.51292 0.0
Cd575 Cd 0.87225 0.32072 0.51027 0.0
Cd576 Cd 0.84532 0.34788 0.49164 0.0
O577 O 0.82481 0.32267 0.49357 0.0
O578 O 0.8965 0.30093 0.50988 0.0
O579 O 0.88667 0.31951 0.48237 0.0
C580 C 0.89874 0.30536 0.49031 0.0
C581 C 0.84625 0.36977 0.4621 0.0
C582 C 0.82789 0.30608 0.50418 0.0
C583 C 0.86499 0.36034 0.53333 0.0
O584 O 0.85157 0.36369 0.51906 0.0
O585 O 0.87658 0.34418 0.5325 0.0
O586 O 0.83074 0.36986 0.47492 0.0
O587 O 0.86096 0.35633 0.46534 0.0
O588 O 0.71828 0.84351 0.51381 0.0
Cd589 Cd 0.70115 0.87071 0.51206 0.0
Cd590 Cd 0.67469 0.84575 0.49067 0.0
O591 O 0.70037 0.82568 0.49035 0.0
O592 O 0.72192 0.89408 0.51335 0.0
O593 O 0.70251 0.88741 0.48544 0.0
C594 C 0.71726 0.89819 0.49413 0.0
C595 C 0.6533 0.84956 0.46093 0.0
C596 C 0.71597 0.82725 0.50263 0.0
C597 C 0.66159 0.86166 0.53384 0.0
O598 O 0.65872 0.84905 0.5187 0.0
O599 O 0.67739 0.87379 0.53388 0.0
O600 O 0.6535 0.83258 0.47178 0.0
O601 O 0.666 0.86429 0.46642 0.0
O602 O 0.17761 0.71912 0.51023 0.0
Cd603 Cd 0.15161 0.69997 0.50786 0.0
Cd604 Cd 0.17909 0.67506 0.48893 0.0
O605 O 0.19777 0.70154 0.48849 0.0
O606 O 0.1265 0.71867 0.5086 0.0
O607 O 0.13646 0.7013 0.48039 0.0
C608 C 0.12402 0.71472 0.48895 0.0
C609 C 0.17426 0.65357 0.45952 0.0
C610 C 0.19458 0.71747 0.49999 0.0
C611 C 0.16304 0.66164 0.53121 0.0
O612 O 0.17714 0.65994 0.51734 0.0
O613 O 0.14898 0.67564 0.52949 0.0
O614 O 0.19177 0.6541 0.46951 0.0
O615 O 0.15961 0.666 0.4657 0.0
O616 O 0.301 0.17539 0.50831 0.0
Cd617 Cd 0.31915 0.14872 0.5092 0.0
Cd618 Cd 0.34722 0.17505 0.49041 0.0
O619 O 0.32264 0.19619 0.4912 0.0
O620 O 0.29841 0.12537 0.51106 0.0
O621 O 0.31885 0.13035 0.48362 0.0
C622 C 0.30369 0.12017 0.4923 0.0
C623 C 0.36855 0.17151 0.46074 0.0
C624 C 0.30511 0.19297 0.5 0.0
C625 C 0.35818 0.1577 0.53336 0.0
O626 O 0.36246 0.16993 0.51827 0.0
O627 O 0.34166 0.14655 0.53284 0.0
O628 O 0.36905 0.18804 0.47226 0.0
O629 O 0.35518 0.15714 0.46552 0.0
O630 O 0.17652 0.29999 0.51159 0.0
Cd631 Cd 0.14961 0.3181 0.51103 0.0
Cd632 Cd 0.17702 0.34626 0.52727 0.0
O633 O 0.19792 0.3217 0.52789 0.0
O634 O 0.1265 0.29701 0.50994 0.0
O635 O 0.13164 0.31802 0.53693 0.0
C636 C 0.12149 0.30261 0.52865 0.0
C637 C 0.17338 0.36933 0.5556 0.0
C638 C 0.19431 0.30403 0.51951 0.0
C639 C 0.15902 0.35508 0.4843 0.0
O640 O 0.17252 0.35927 0.49825 0.0
O641 O 0.14636 0.33987 0.48673 0.0
O642 O 0.18963 0.3696 0.54371 0.0
O643 O 0.15932 0.35528 0.55195 0.0
O644 O 0.71768 0.17908 0.51064 0.0
Cd645 Cd 0.69923 0.15264 0.51102 0.0
Cd646 Cd 0.67231 0.17951 0.52996 0.0
O647 O 0.69792 0.19963 0.52998 0.0
O648 O 0.71956 0.12898 0.50932 0.0
O649 O 0.69972 0.1349 0.53702 0.0
C650 C 0.71451 0.12427 0.52828 0.0
C651 C 0.65072 0.17572 0.55945 0.0
C652 C 0.71478 0.1964 0.51993 0.0
C653 C 0.66055 0.16225 0.4871 0.0
O654 O 0.65704 0.17518 0.5018 0.0
O655 O 0.67639 0.15021 0.48796 0.0
O656 O 0.65075 0.19258 0.5484 0.0
O657 O 0.66373 0.16115 0.55432 0.0
O658 O 0.30236 0.84677 0.50713 0.0
Cd659 Cd 0.32082 0.87319 0.5082 0.0
Cd660 Cd 0.34747 0.84637 0.52758 0.0
O661 O 0.32188 0.82629 0.52683 0.0
O662 O 0.30063 0.897 0.50707 0.0
O663 O 0.32026 0.89007 0.53473 0.0
C664 C 0.30556 0.90103 0.52623 0.0
C665 C 0.36867 0.84903 0.5575 0.0
C666 C 0.3052 0.82945 0.51645 0.0
C667 C 0.36003 0.86403 0.48509 0.0
O668 O 0.3633 0.85107 0.49983 0.0
O669 O 0.34408 0.87594 0.4856 0.0
O670 O 0.3686 0.83251 0.54596 0.0
O671 O 0.35597 0.86393 0.55258 0.0
H672 H 0.09844 0.45648 0.31442 0.0
H673 H 0.10224 0.50256 0.26517 0.0
H674 H 0.07479 0.43544 0.29278 0.0
H675 H 0.07902 0.48128 0.24347 0.0
H676 H 0.06223 0.41984 0.20498 0.0
H677 H 0.08314 0.44367 0.22655 0.0
H678 H 0.03726 0.43949 0.27575 0.0
H679 H 0.01612 0.4161 0.25412 0.0
C680 C 0.0941 0.46219 0.29907 0.0
C681 C 0.10216 0.48122 0.29155 0.0
C682 C 0.08056 0.45017 0.28671 0.0
C683 C 0.07516 0.45671 0.26642 0.0
C684 C 0.08303 0.47582 0.259 0.0
C685 C 0.0962 0.48805 0.2715 0.0
C686 C 0.05647 0.42423 0.22028 0.0
C687 C 0.03748 0.41613 0.22779 0.0
C688 C 0.06842 0.43788 0.2326 0.0
C689 C 0.06184 0.44333 0.25285 0.0
C690 C 0.04275 0.43544 0.26026 0.0
C691 C 0.0306 0.42217 0.24779 0.0
H692 H 0.58997 0.01653 0.23858 0.0
H693 H 0.62107 0.07255 0.21716 0.0
H694 H 0.56724 0.03773 0.26084 0.0
H695 H 0.5985 0.09366 0.2396 0.0
H696 H 0.57279 0.11993 0.30169 0.0
H697 H 0.59423 0.09772 0.27921 0.0
H698 H 0.53881 0.06586 0.25756 0.0
H699 H 0.51728 0.08823 0.27987 0.0
C700 C 0.59182 0.03337 0.23846 0.0
C701 C 0.60733 0.04285 0.22607 0.0
C702 C 0.57879 0.0455 0.25121 0.0
C703 C 0.58122 0.06733 0.25212 0.0
C704 C 0.59644 0.07684 0.23942 0.0
C705 C 0.60923 0.06476 0.22642 0.0
C706 C 0.56518 0.10804 0.29232 0.0
C707 C 0.54331 0.10586 0.29259 0.0
C708 C 0.57745 0.09545 0.2793 0.0
C709 C 0.56818 0.08017 0.26648 0.0
C710 C 0.5464 0.07747 0.26729 0.0
C711 C 0.53408 0.09029 0.28006 0.0
H712 H 0.99924 0.58868 0.23809 0.0
H713 H 0.94379 0.62054 0.21647 0.0
H714 H 0.97768 0.5664 0.26053 0.0
H715 H 0.92234 0.59844 0.23908 0.0
H716 H 0.89581 0.57389 0.30153 0.0
H717 H 0.91844 0.59469 0.27883 0.0
H718 H 0.94887 0.53838 0.25754 0.0
H719 H 0.92607 0.51748 0.28007 0.0
C720 C 0.98245 0.59078 0.23795 0.0
C721 C 0.97324 0.60639 0.22546 0.0
C722 C 0.97012 0.57802 0.2508 0.0
C723 C 0.94835 0.58082 0.25173 0.0
C724 C 0.93911 0.5961 0.2389 0.0
C725 C 0.95139 0.60863 0.2258 0.0
C726 C 0.90748 0.56594 0.2922 0.0
C727 C 0.90912 0.54401 0.29263 0.0
C728 C 0.92031 0.57785 0.27905 0.0
C729 C 0.93531 0.56815 0.26626 0.0
C730 C 0.93749 0.54629 0.26724 0.0
C731 C 0.92442 0.53434 0.28014 0.0
H732 H 0.50274 0.91539 0.26256 0.0
H733 H 0.45747 0.91852 0.31249 0.0
H734 H 0.48065 0.93805 0.24106 0.0
H735 H 0.43565 0.94165 0.29109 0.0
H736 H 0.41546 1.00042 0.25259 0.0
H737 H 0.43939 0.97949 0.27384 0.0
H738 H 0.44236 0.93315 0.22494 0.0
H739 H 0.41796 0.95382 0.20379 0.0
C740 C 0.48823 0.92115 0.26907 0.0
C741 C 0.48188 0.91519 0.28927 0.0
C742 C 0.47554 0.934 0.25669 0.0
C743 C 0.45645 0.94156 0.2644 0.0
C744 C 0.45035 0.93611 0.28481 0.0
C745 C 0.46282 0.92286 0.29703 0.0
C746 C 0.42136 0.98587 0.24625 0.0
C747 C 0.41483 0.97879 0.22647 0.0
C748 C 0.43495 0.97385 0.2585 0.0
C749 C 0.44267 0.9547 0.25106 0.0
C750 C 0.4367 0.94791 0.23101 0.0
C751 C 0.42273 0.95972 0.21893 0.0
H752 H 0.10345 0.56663 0.70289 0.0
H753 H 0.10469 0.5199 0.75166 0.0
H754 H 0.08007 0.58817 0.72426 0.0
H755 H 0.08175 0.54165 0.77309 0.0
H756 H 0.06624 0.60292 0.8121 0.0
H757 H 0.08677 0.57876 0.79061 0.0
H758 H 0.04217 0.58532 0.74043 0.0
H759 H 0.0214 0.60907 0.76198 0.0
C760 C 0.0986 0.56088 0.71806 0.0
C761 C 0.10588 0.54153 0.72553 0.0
C762 C 0.08521 0.57319 0.73027 0.0
C763 C 0.07919 0.5666 0.75036 0.0
C764 C 0.08625 0.54716 0.75772 0.0
C765 C 0.09927 0.53467 0.74536 0.0
C766 C 0.06068 0.59899 0.7966 0.0
C767 C 0.04216 0.60786 0.78879 0.0
C768 C 0.07241 0.58515 0.78432 0.0
C769 C 0.06609 0.58025 0.76383 0.0
C770 C 0.04747 0.58893 0.75611 0.0
C771 C 0.03552 0.60241 0.76853 0.0
H772 H 0.40112 0.07076 0.80323 0.0
H773 H 0.43342 0.01585 0.78091 0.0
H774 H 0.42294 0.09273 0.78082 0.0
H775 H 0.45541 0.03792 0.75869 0.0
H776 H 0.50389 0.09016 0.73993 0.0
H777 H 0.48316 0.06695 0.76222 0.0
H778 H 0.42669 0.09715 0.74105 0.0
H779 H 0.44732 0.12018 0.71858 0.0
C780 C 0.41306 0.0634 0.79378 0.0
C781 C 0.41553 0.04154 0.79387 0.0
C782 C 0.42543 0.07597 0.7808 0.0
C783 C 0.44076 0.06702 0.76787 0.0
C784 C 0.44375 0.04526 0.76851 0.0
C785 C 0.43115 0.03263 0.78124 0.0
C786 C 0.48704 0.09168 0.73984 0.0
C787 C 0.47726 0.10701 0.72745 0.0
C788 C 0.47518 0.07838 0.7526 0.0
C789 C 0.45333 0.08037 0.75353 0.0
C790 C 0.44353 0.09543 0.74085 0.0
C791 C 0.45534 0.10848 0.72783 0.0
H792 H 0.91783 0.50184 0.75599 0.0
H793 H 0.91898 0.45582 0.70659 0.0
H794 H 0.94033 0.47947 0.77737 0.0
H795 H 0.94189 0.43368 0.72787 0.0
H796 H 1.00036 0.41187 0.76535 0.0
H797 H 0.9797 0.43604 0.74416 0.0
H798 H 0.93518 0.4421 0.79438 0.0
H799 H 0.9556 0.41749 0.81554 0.0
C800 C 0.92312 0.48709 0.74957 0.0
C801 C 0.91665 0.48062 0.72955 0.0
C802 C 0.93588 0.47424 0.76188 0.0
C803 C 0.94281 0.45484 0.7543 0.0
C804 C 0.93685 0.44862 0.73406 0.0
C805 C 0.92373 0.46127 0.7219 0.0
C806 C 0.98627 0.41849 0.77199 0.0
C807 C 0.97963 0.41277 0.79217 0.0
C808 C 0.97439 0.43222 0.75977 0.0
C809 C 0.95583 0.4409 0.7676 0.0
C810 C 0.94949 0.43571 0.788 0.0
C811 C 0.96116 0.42162 0.80009 0.0
H812 H 0.61851 0.94663 0.80367 0.0
H813 H 0.58602 1.00184 0.78228 0.0
H814 H 0.5966 0.92498 0.78103 0.0
H815 H 0.56395 0.98008 0.75981 0.0
H816 H 0.51546 0.92822 0.74025 0.0
H817 H 0.53627 0.9511 0.76282 0.0
H818 H 0.59264 0.921 0.74135 0.0
H819 H 0.57193 0.89828 0.71862 0.0
C820 C 0.6065 0.95413 0.79437 0.0
C821 C 0.60402 0.97598 0.7948 0.0
C822 C 0.59409 0.94174 0.78126 0.0
C823 C 0.57868 0.95086 0.7685 0.0
C824 C 0.57567 0.97261 0.76949 0.0
C825 C 0.58832 0.98506 0.78236 0.0
C826 C 0.53232 0.92665 0.74016 0.0
C827 C 0.54203 0.91143 0.72761 0.0
C828 C 0.54422 0.93976 0.75308 0.0
C829 C 0.56606 0.93771 0.754 0.0
C830 C 0.57581 0.92277 0.74117 0.0
C831 C 0.56395 0.90989 0.728 0.0
H832 H 0.20475 0.0648 0.41907 0.0
H833 H 0.25326 0.01795 0.41618 0.0
H834 H 0.22648 0.08568 0.44278 0.0
H835 H 0.27505 0.03905 0.43947 0.0
H836 H 0.31455 0.09974 0.4562 0.0
H837 H 0.29277 0.07607 0.43534 0.0
H838 H 0.24299 0.08199 0.48038 0.0
H839 H 0.26481 0.10525 0.50147 0.0
C840 C 0.21994 0.05888 0.42363 0.0
C841 C 0.22724 0.03968 0.41579 0.0
C842 C 0.23236 0.07081 0.43721 0.0
C843 C 0.25248 0.06401 0.44288 0.0
C844 C 0.25966 0.04472 0.43525 0.0
C845 C 0.2471 0.0326 0.42203 0.0
C846 C 0.29907 0.09576 0.46179 0.0
C847 C 0.29145 0.10433 0.48053 0.0
C848 C 0.28662 0.0822 0.44987 0.0
C849 C 0.26616 0.07729 0.45621 0.0
C850 C 0.25865 0.08563 0.47506 0.0
C851 C 0.27122 0.09882 0.48719 0.0
H852 H 0.93096 0.28027 0.5031 0.0
H853 H 0.89968 0.30275 0.44764 0.0
H854 H 0.95315 0.25786 0.48149 0.0
H855 H 0.9217 0.28013 0.42611 0.0
H856 H 0.94661 0.21779 0.3991 0.0
H857 H 0.92555 0.24036 0.42161 0.0
H858 H 0.98143 0.2613 0.45313 0.0
H859 H 1.00257 0.23893 0.43044 0.0
C860 C 0.92894 0.28057 0.4863 0.0
C861 C 0.91356 0.29334 0.4771 0.0
C862 C 0.94166 0.26774 0.47393 0.0
C863 C 0.93905 0.2671 0.45212 0.0
C864 C 0.92391 0.28011 0.4429 0.0
C865 C 0.91143 0.2932 0.45522 0.0
C866 C 0.9544 0.22702 0.41097 0.0
C867 C 0.97629 0.22654 0.41297 0.0
C868 C 0.94235 0.2401 0.42373 0.0
C869 C 0.95185 0.25273 0.43903 0.0
C870 C 0.97366 0.25172 0.44152 0.0
C871 C 0.98576 0.23891 0.42852 0.0
H872 H 0.75595 0.91369 0.50331 0.0
H873 H 0.70663 0.91741 0.45733 0.0
H874 H 0.77759 0.93695 0.482 0.0
H875 H 0.72818 0.9411 0.43627 0.0
H876 H 0.76633 1.00024 0.41732 0.0
H877 H 0.74495 0.97876 0.44061 0.0
H878 H 0.79447 0.93316 0.44426 0.0
H879 H 0.81579 0.95442 0.42052 0.0
C880 C 0.7496 0.9197 0.4888 0.0
C881 C 0.72953 0.91374 0.48202 0.0
C882 C 0.76207 0.9329 0.47656 0.0
C883 C 0.75458 0.94078 0.45749 0.0
C884 C 0.7343 0.93532 0.45097 0.0
C885 C 0.72199 0.92175 0.463 0.0
C886 C 0.77278 0.98574 0.42325 0.0
C887 C 0.7928 0.97905 0.41708 0.0
C888 C 0.76046 0.9734 0.43646 0.0
C889 C 0.76802 0.95429 0.44418 0.0
C890 C 0.78829 0.94789 0.4386 0.0
C891 C 0.80047 0.96003 0.42501 0.0
H892 H 0.07332 0.8027 0.39997 0.0
H893 H 0.0181 0.78057 0.43189 0.0
H894 H 0.09499 0.78021 0.422 0.0
H895 H 0.03987 0.75826 0.45409 0.0
H896 H 0.09166 0.73903 0.50286 0.0
H897 H 0.06869 0.76148 0.48204 0.0
H898 H 0.09917 0.74046 0.42569 0.0
H899 H 0.12195 0.71784 0.4464 0.0
C900 C 0.06582 0.79328 0.41188 0.0
C901 C 0.04397 0.79344 0.41416 0.0
C902 C 0.07822 0.78026 0.42437 0.0
C903 C 0.06911 0.76734 0.43964 0.0
C904 C 0.04734 0.76807 0.44247 0.0
C905 C 0.03489 0.78085 0.42975 0.0
C906 C 0.09329 0.73901 0.48601 0.0
C907 C 0.10863 0.72662 0.47629 0.0
C908 C 0.08013 0.75186 0.4741 0.0
C909 C 0.08227 0.75289 0.45226 0.0
C910 C 0.09733 0.7402 0.44252 0.0
C911 C 0.11025 0.7271 0.45438 0.0
H912 H 0.25539 1.00039 0.60596 0.0
H913 H 0.2068 0.95368 0.60121 0.0
H914 H 0.27716 0.98017 0.58196 0.0
H915 H 0.2285 0.93371 0.57676 0.0
H916 H 0.26701 0.91683 0.51724 0.0
H917 H 0.24523 0.93932 0.53914 0.0
H918 H 0.29455 0.94254 0.58504 0.0
H919 H 0.31626 0.9196 0.56337 0.0
C920 C 0.24921 0.98598 0.59955 0.0
C921 C 0.22933 0.97865 0.60547 0.0
C922 C 0.26176 0.97436 0.58592 0.0
C923 C 0.25453 0.95538 0.57756 0.0
C924 C 0.2344 0.94836 0.58291 0.0
C925 C 0.22201 0.95977 0.59691 0.0
C926 C 0.27333 0.92251 0.53189 0.0
C927 C 0.2934 0.91645 0.53856 0.0
C928 C 0.26078 0.93526 0.54447 0.0
C929 C 0.26818 0.94261 0.56379 0.0
C930 C 0.28851 0.93716 0.57016 0.0
C931 C 0.30091 0.92403 0.55778 0.0
H932 H 0.02022 0.25388 0.60691 0.0
H933 H 0.06533 0.20391 0.60196 0.0
H934 H 0.04138 0.27541 0.58348 0.0
H935 H 0.08631 0.22541 0.57817 0.0
H936 H 0.10595 0.26384 0.51982 0.0
H937 H 0.08275 0.24236 0.54127 0.0
H938 H 0.07841 0.29225 0.58646 0.0
H939 H 0.10198 0.3137 0.56519 0.0
C940 C 0.03451 0.24736 0.6006 0.0
C941 C 0.04108 0.22714 0.60628 0.0
C942 C 0.04668 0.25977 0.5873 0.0
C943 C 0.06551 0.25212 0.57906 0.0
C944 C 0.07179 0.23167 0.58421 0.0
C945 C 0.05981 0.21938 0.59785 0.0
C946 C 0.0999 0.27035 0.53422 0.0
C947 C 0.1058 0.29052 0.54078 0.0
C948 C 0.08673 0.25796 0.54656 0.0
C949 C 0.07883 0.26559 0.56556 0.0
C950 C 0.08419 0.286 0.57183 0.0
C951 C 0.09769 0.29826 0.55967 0.0
H952 H 0.81263 0.06838 0.60195 0.0
H953 H 0.76382 0.02174 0.60454 0.0
H954 H 0.79119 0.08936 0.57809 0.0
H955 H 0.7423 0.04295 0.58112 0.0
H956 H 0.70355 0.10435 0.56463 0.0
H957 H 0.72505 0.08049 0.58555 0.0
H958 H 0.77466 0.08535 0.54019 0.0
H959 H 0.7531 0.10877 0.51902 0.0
C960 C 0.79744 0.06253 0.59729 0.0
C961 C 0.78997 0.04337 0.60508 0.0
C962 C 0.78519 0.07451 0.58363 0.0
C963 C 0.76506 0.0678 0.57786 0.0
C964 C 0.7577 0.04854 0.58542 0.0
C965 C 0.77011 0.03635 0.59871 0.0
C966 C 0.71893 0.1001 0.55899 0.0
C967 C 0.72658 0.1084 0.54014 0.0
C968 C 0.73121 0.08644 0.57094 0.0
C969 C 0.75154 0.08117 0.56451 0.0
C970 C 0.75909 0.08925 0.54556 0.0
C971 C 0.74667 0.10254 0.5334 0.0
H972 H 0.92898 0.74061 0.51512 0.0
H973 H 0.89665 0.71993 0.57064 0.0
H974 H 0.95119 0.76332 0.53653 0.0
H975 H 0.91864 0.74285 0.59193 0.0
H976 H 0.94431 0.80529 0.61798 0.0
H977 H 0.92311 0.78283 0.5954 0.0
H978 H 0.97903 0.7598 0.56565 0.0
H979 H 1.00031 0.78203 0.58842 0.0
C980 C 0.92672 0.74078 0.53189 0.0
C981 C 0.91107 0.72841 0.54117 0.0
C982 C 0.93944 0.75378 0.54414 0.0
C983 C 0.93653 0.755 0.56588 0.0
C984 C 0.92108 0.74243 0.57519 0.0
C985 C 0.90862 0.72916 0.563 0.0
C986 C 0.95208 0.79563 0.60646 0.0
C987 C 0.97401 0.79547 0.60501 0.0
C988 C 0.93994 0.78263 0.59366 0.0
C989 C 0.94942 0.76943 0.57886 0.0
C990 C 0.97129 0.76983 0.57687 0.0
C991 C 0.98346 0.78256 0.58992 0.0
H992 H 0.45266 0.31435 0.10119 0.0
H993 H 0.49876 0.26517 0.10489 0.0
H994 H 0.43152 0.29259 0.07773 0.0
H995 H 0.47739 0.24336 0.08188 0.0
H996 H 0.41633 0.20448 0.06517 0.0
H997 H 0.43995 0.22626 0.0861 0.0
H998 H 0.43537 0.27552 0.04024 0.0
H999 H 0.41219 0.25368 0.01908 0.0
C1000 C 0.45836 0.299 0.09688 0.0
C1001 C 0.47743 0.29154 0.10485 0.0
C1002 C 0.44627 0.28657 0.08345 0.0
C1003 C 0.45279 0.26626 0.07808 0.0
C1004 C 0.47194 0.25889 0.08587 0.0
C1005 C 0.48422 0.27147 0.09892 0.0
C1006 C 0.42058 0.21984 0.05943 0.0
C1007 C 0.41244 0.2273 0.04042 0.0
C1008 C 0.4341 0.23229 0.0714 0.0
C1009 C 0.43941 0.25261 0.06482 0.0
C1010 C 0.43144 0.25998 0.04574 0.0
C1011 C 0.41829 0.24739 0.03357 0.0
H1012 H 0.41538 0.76374 1.00253 0.0
H1013 H 0.41855 0.81307 0.95651 0.0
H1014 H 0.43888 0.74236 0.9813 0.0
H1015 H 0.44247 0.79178 0.93551 0.0
H1016 H 0.50189 0.75412 0.91652 0.0
H1017 H 0.48021 0.77544 0.93964 0.0
H1018 H 0.43528 0.72527 0.94378 0.0
H1019 H 0.45673 0.704 0.92022 0.0
C1020 C 0.42132 0.77015 0.98804 0.0
C1021 C 0.41512 0.79014 0.98123 0.0
C1022 C 0.43466 0.75783 0.97583 0.0
C1023 C 0.44245 0.76539 0.95675 0.0
C1024 C 0.43677 0.78561 0.95021 0.0
C1025 C 0.42307 0.79777 0.96221 0.0
C1026 C 0.48749 0.74752 0.92251 0.0
C1027 C 0.48105 0.72732 0.91655 0.0
C1028 C 0.47503 0.75981 0.93563 0.0
C1029 C 0.45605 0.75204 0.94345 0.0
C1030 C 0.4499 0.73161 0.93804 0.0
C1031 C 0.46215 0.71946 0.92455 0.0
H1032 H 0.26537 0.50128 0.9159 0.0
H1033 H 0.31415 0.45475 0.91937 0.0
H1034 H 0.24364 0.48021 0.93925 0.0
H1035 H 0.2925 0.43393 0.94318 0.0
H1036 H 0.25386 0.4154 1.00233 0.0
H1037 H 0.27564 0.43848 0.981 0.0
H1038 H 0.22647 0.44245 0.935 0.0
H1039 H 0.20477 0.4189 0.95608 0.0
C1040 C 0.2716 0.48672 0.9219 0.0
C1041 C 0.29152 0.4797 0.9158 0.0
C1042 C 0.25908 0.47461 0.93515 0.0
C1043 C 0.26637 0.45544 0.94296 0.0
C1044 C 0.28654 0.44871 0.93745 0.0
C1045 C 0.29891 0.46061 0.92381 0.0
C1046 C 0.24758 0.42135 0.98777 0.0
C1047 C 0.22755 0.41534 0.98091 0.0
C1048 C 0.26013 0.43444 0.97552 0.0
C1049 C 0.25276 0.44219 0.95635 0.0
C1050 C 0.23249 0.43676 0.94978 0.0
C1051 C 0.2201 0.42328 0.96182 0.0
H1052 H 0.62023 0.21854 0.94875 0.0
H1053 H 0.5883 0.23967 1.00431 0.0
H1054 H 0.59808 0.24122 0.92741 0.0
H1055 H 0.56598 0.26217 0.98287 0.0
H1056 H 0.51662 0.28104 0.93159 0.0
H1057 H 0.53795 0.25878 0.95424 0.0
H1058 H 0.59371 0.28095 0.92344 0.0
H1059 H 0.57245 0.30341 0.90095 0.0
C1060 C 0.60832 0.22781 0.95639 0.0
C1061 C 0.60604 0.22727 0.97825 0.0
C1062 C 0.59576 0.24094 0.94418 0.0
C1063 C 0.5804 0.2536 0.95348 0.0
C1064 C 0.57765 0.25256 0.97525 0.0
C1065 C 0.59044 0.23968 0.98752 0.0
C1066 C 0.53345 0.28136 0.92982 0.0
C1067 C 0.54283 0.29403 0.91447 0.0
C1068 C 0.54565 0.26862 0.9428 0.0
C1069 C 0.56748 0.26797 0.94049 0.0
C1070 C 0.5769 0.28093 0.92542 0.0
C1071 C 0.56473 0.29393 0.91267 0.0
H1072 H 0.70768 0.56558 0.91486 0.0
H1073 H 0.75603 0.51853 0.91285 0.0
H1074 H 0.72934 0.58672 0.93838 0.0
H1075 H 0.7778 0.53992 0.93595 0.0
H1076 H 0.81696 0.60131 0.9523 0.0
H1077 H 0.79546 0.57736 0.93142 0.0
H1078 H 0.74555 0.58282 0.97637 0.0
H1079 H 0.76709 0.60631 0.99749 0.0
C1080 C 0.72284 0.55969 0.91955 0.0
C1081 C 0.7301 0.54035 0.91205 0.0
C1082 C 0.73521 0.57176 0.93302 0.0
C1083 C 0.75527 0.56496 0.93891 0.0
C1084 C 0.76246 0.54557 0.93156 0.0
C1085 C 0.74992 0.53329 0.91846 0.0
C1086 C 0.80152 0.59717 0.95787 0.0
C1087 C 0.79377 0.60566 0.97659 0.0
C1088 C 0.78924 0.58346 0.94594 0.0
C1089 C 0.76882 0.57834 0.95225 0.0
C1090 C 0.76119 0.58661 0.97108 0.0
C1091 C 0.7736 0.59994 0.98322 0.0
H1092 H 0.51772 0.75715 0.10434 0.0
H1093 H 0.56334 0.70742 0.10313 0.0
H1094 H 0.53995 0.77818 0.08138 0.0
H1095 H 0.58534 0.72835 0.07977 0.0
H1096 H 0.60672 0.76495 0.02065 0.0
H1097 H 0.5827 0.74415 0.04187 0.0
H1098 H 0.57738 0.7951 0.08575 0.0
H1099 H 0.60183 0.81586 0.06474 0.0
C1100 C 0.53235 0.75058 0.09895 0.0
C1101 C 0.53875 0.73058 0.10553 0.0
C1102 C 0.54512 0.7627 0.08592 0.0
C1103 C 0.56437 0.75492 0.07883 0.0
C1104 C 0.57052 0.73469 0.08492 0.0
C1105 C 0.55795 0.72274 0.09831 0.0
C1106 C 0.6003 0.77183 0.03472 0.0
C1107 C 0.60618 0.79209 0.041 0.0
C1108 C 0.58665 0.75984 0.04692 0.0
C1109 C 0.57822 0.76798 0.06547 0.0
C1110 C 0.58357 0.78847 0.07146 0.0
C1111 C 0.59758 0.80033 0.05946 0.0
H1112 H 0.25481 0.60533 0.02075 0.0
H1113 H 0.20499 0.60078 0.06604 0.0
H1114 H 0.27662 0.58265 0.04246 0.0
H1115 H 0.22675 0.57765 0.08752 0.0
H1116 H 0.26636 0.5196 0.10739 0.0
H1117 H 0.24457 0.54035 0.0838 0.0
H1118 H 0.2929 0.5873 0.08033 0.0
H1119 H 0.31461 0.56679 0.10436 0.0
C1120 C 0.24838 0.59924 0.03518 0.0
C1121 C 0.22813 0.60483 0.04165 0.0
C1122 C 0.26095 0.58637 0.04766 0.0
C1123 C 0.2534 0.57845 0.06667 0.0
C1124 C 0.23292 0.58347 0.07286 0.0
C1125 C 0.22049 0.59672 0.06059 0.0
C1126 C 0.27246 0.53424 0.10145 0.0
C1127 C 0.29226 0.54153 0.10772 0.0
C1128 C 0.2599 0.54617 0.08806 0.0
C1129 C 0.26702 0.56544 0.08029 0.0
C1130 C 0.28707 0.57245 0.08602 0.0
C1131 C 0.29947 0.56073 0.09978 0.0
H1132 H 0.7141 0.44883 0.11689 0.0
H1133 H 0.73731 0.50414 0.0858 0.0
H1134 H 0.73639 0.42707 0.0948 0.0
H1135 H 0.75941 0.48229 0.06355 0.0
H1136 H 0.77828 0.43097 0.01434 0.0
H1137 H 0.75585 0.45383 0.03524 0.0
H1138 H 0.77615 0.4224 0.09139 0.0
H1139 H 0.79876 0.39972 0.0706 0.0
C1140 C 0.72372 0.45633 0.10515 0.0
C1141 C 0.72392 0.47823 0.10312 0.0
C1142 C 0.73662 0.44387 0.09263 0.0
C1143 C 0.74977 0.45299 0.07757 0.0
C1144 C 0.74941 0.47482 0.07499 0.0
C1145 C 0.73676 0.48732 0.08775 0.0
C1146 C 0.77814 0.42909 0.03117 0.0
C1147 C 0.79034 0.41353 0.04081 0.0
C1148 C 0.7653 0.44219 0.04311 0.0
C1149 C 0.7641 0.43977 0.06492 0.0
C1150 C 0.77656 0.42446 0.07458 0.0
C1151 C 0.78965 0.41159 0.06269 0.0
H1152 H 0.98948 0.21454 0.28597 0.0
H1153 H 0.01843 0.25556 0.33123 0.0
H1154 H 0.9941 0.24124 0.25897 0.0
H1155 H 0.02299 0.28213 0.30426 0.0
H1156 H 1.00379 0.33242 0.25629 0.0
H1157 H 1.00001 0.30534 0.28279 0.0
H1158 H 0.02358 0.25934 0.23943 0.0
H1159 H 0.02742 0.28654 0.21272 0.0
C1160 C 0.99676 0.22925 0.29019 0.0
C1161 C 1.00353 0.23291 0.3108 0.0
C1162 C 0.99955 0.24447 0.27467 0.0
C1163 C 1.00893 0.26378 0.27948 0.0
C1164 C 0.01556 0.26748 0.3001 0.0
C1165 C 0.013 0.2522 0.31554 0.0
C1166 C 1.00825 0.31656 0.25236 0.0
C1167 C 0.01592 0.31167 0.23234 0.0
C1168 C 1.00616 0.30105 0.26761 0.0
C1169 C 0.01148 0.28021 0.2632 0.0
C1170 C 0.01918 0.27525 0.24322 0.0
C1171 C 0.02152 0.29085 0.22799 0.0
H1172 H 0.8063 0.98955 0.28781 0.0
H1173 H 0.76333 0.01384 0.33386 0.0
H1174 H 0.77967 0.99405 0.2607 0.0
H1175 H 0.73684 0.01826 0.30682 0.0
H1176 H 0.68827 1.0009 0.25637 0.0
H1177 H 0.71489 0.99587 0.28321 0.0
H1178 H 0.761 0.02425 0.24294 0.0
H1179 H 0.73434 0.02935 0.21598 0.0
C1180 C 0.79116 0.9957 0.29219 0.0
C1181 C 0.78696 1.00132 0.31302 0.0
C1182 C 0.77598 0.99843 0.27663 0.0
C1183 C 0.75619 1.00656 0.28163 0.0
C1184 C 0.75188 0.01182 0.3025 0.0
C1185 C 0.76711 1.00935 0.31799 0.0
C1186 C 0.70406 1.00613 0.25322 0.0
C1187 C 0.70915 0.01556 0.23401 0.0
C1188 C 0.7193 1.00331 0.26864 0.0
C1189 C 0.74004 1.00962 0.26517 0.0
C1190 C 0.74518 0.01904 0.24598 0.0
C1191 C 0.72987 0.0221 0.23062 0.0
H1192 H 0.01449 0.68667 0.25672 0.0
H1193 H 0.98736 0.73302 0.21571 0.0
H1194 H 0.01936 0.71333 0.2836 0.0
H1195 H 0.99235 0.7597 0.24266 0.0
H1196 H 0.02826 0.80444 0.28737 0.0
H1197 H 0.02308 0.77771 0.26051 0.0
H1198 H 0.99696 0.7361 0.30679 0.0
H1199 H 1.00202 0.76276 0.33363 0.0
C1200 C 1.0095 0.70253 0.25345 0.0
C1201 C 1.00052 0.7077 0.23405 0.0
C1202 C 0.01223 0.71777 0.26889 0.0
C1203 C 1.0063 0.73861 0.26522 0.0
C1204 C 0.99726 0.7438 0.24586 0.0
C1205 C 0.99427 0.72849 0.2305 0.0
C1206 C 0.0215 0.78956 0.29184 0.0
C1207 C 0.01557 0.78575 0.31267 0.0
C1208 C 0.01839 0.77433 0.27642 0.0
C1209 C 1.00957 0.75484 0.28154 0.0
C1210 C 1.00392 0.75092 0.3024 0.0
C1211 C 1.00676 0.76623 0.31775 0.0
H1212 H 0.25582 1.00426 0.33289 0.0
H1213 H 0.21349 0.02894 0.28638 0.0
H1214 H 0.2824 0.99931 0.3061 0.0
H1215 H 0.24023 0.02393 0.25951 0.0
H1216 H 0.28558 0.98836 0.21517 0.0
H1217 H 0.25874 0.99365 0.24186 0.0
H1218 H 0.30484 0.0212 0.28278 0.0
H1219 H 0.33163 0.01596 0.25622 0.0
C1220 C 0.25219 1.00872 0.31696 0.0
C1221 C 0.2325 0.01702 0.31181 0.0
C1222 C 0.26748 1.00594 0.30162 0.0
C1223 C 0.2634 0.01117 0.28068 0.0
C1224 C 0.24375 0.01956 0.27549 0.0
C1225 C 0.22851 0.02258 0.29091 0.0
C1226 C 0.29001 0.99544 0.2299 0.0
C1227 C 0.31078 1.0017 0.23355 0.0
C1228 C 0.2746 0.99862 0.24511 0.0
C1229 C 0.27966 1.00789 0.2644 0.0
C1230 C 0.30047 0.01388 0.26814 0.0
C1231 C 0.31581 0.01093 0.25288 0.0
H1232 H 0.01304 0.73774 0.80973 0.0
H1233 H 0.02869 0.69412 0.76087 0.0
H1234 H 1.00633 0.76474 0.78368 0.0
H1235 H 0.02399 0.72133 0.7348 0.0
H1236 H 0.99526 0.76574 0.68927 0.0
H1237 H 1.00054 0.73962 0.71629 0.0
H1238 H 0.0172 0.78864 0.76 0.0
H1239 H 0.00993 0.81471 0.73318 0.0
C1240 C 0.01554 0.73414 0.79337 0.0
C1241 C 0.02129 0.71389 0.78725 0.0
C1242 C 0.01179 0.74965 0.77834 0.0
C1243 C 0.01433 0.74543 0.75683 0.0
C1244 C 0.02105 0.72524 0.75098 0.0
C1245 C 0.02409 0.70961 0.76595 0.0
C1246 C 0.99983 0.77084 0.70476 0.0
C1247 C 1.00213 0.79219 0.70918 0.0
C1248 C 1.00319 0.75584 0.7203 0.0
C1249 C 1.00973 0.76172 0.74054 0.0
C1250 C 0.01189 0.78326 0.74487 0.0
C1251 C 1.00783 0.79831 0.72946 0.0
H1252 H 0.25809 0.01193 0.68939 0.0
H1253 H 0.21611 0.98501 0.73495 0.0
H1254 H 0.2847 0.0161 0.71632 0.0
H1255 H 0.2429 0.98925 0.76198 0.0
H1256 H 0.28859 0.02411 0.80728 0.0
H1257 H 0.26142 0.0191 0.78077 0.0
H1258 H 0.30729 0.99329 0.73862 0.0
H1259 H 0.33437 0.99824 0.76495 0.0
C1260 C 0.25455 1.00682 0.70514 0.0
C1261 C 0.23495 0.99811 0.70999 0.0
C1262 C 0.26985 1.00915 0.72056 0.0
C1263 C 0.26589 1.00304 0.74128 0.0
C1264 C 0.24633 0.99428 0.74618 0.0
C1265 C 0.23106 0.9917 0.73067 0.0
C1266 C 0.29288 0.01742 0.79234 0.0
C1267 C 0.31368 0.01163 0.78825 0.0
C1268 C 0.27729 0.01441 0.77723 0.0
C1269 C 0.28223 1.0058 0.75761 0.0
C1270 C 0.30303 1.00012 0.75351 0.0
C1271 C 0.31853 1.0029 0.76866 0.0
H1272 H 1.00954 0.20545 0.73589 0.0
H1273 H 0.02698 0.25398 0.6925 0.0
H1274 H 1.00318 0.23168 0.76279 0.0
H1275 H 0.02258 0.28015 0.71962 0.0
H1276 H 0.99483 0.32644 0.76368 0.0
H1277 H 0.9993 0.29919 0.73765 0.0
H1278 H 0.01468 0.25513 0.78675 0.0
H1279 H 1.00826 0.28223 0.81274 0.0
C1280 C 0.01248 0.22176 0.73232 0.0
C1281 C 0.01865 0.22775 0.71215 0.0
C1282 C 1.00893 0.23689 0.74777 0.0
C1283 C 0.01207 0.25834 0.74358 0.0
C1284 C 0.01918 0.26404 0.72349 0.0
C1285 C 0.02203 0.24899 0.70792 0.0
C1286 C 0.99892 0.31082 0.76883 0.0
C1287 C 1.00115 0.30641 0.79017 0.0
C1288 C 1.00181 0.29515 0.75388 0.0
C1289 C 1.00779 0.27475 0.75981 0.0
C1290 C 0.0098 0.27039 0.78135 0.0
C1291 C 1.00622 0.28597 0.79634 0.0
H1292 H 0.80207 0.03373 0.73414 0.0
H1293 H 0.75997 1.00828 0.68781 0.0
H1294 H 0.77533 0.02876 0.76103 0.0
H1295 H 0.73335 1.00341 0.71463 0.0
H1296 H 0.68411 0.01981 0.76469 0.0
H1297 H 0.71079 0.02547 0.73806 0.0
H1298 H 0.7572 0.99798 0.77861 0.0
H1299 H 0.73049 0.99222 0.80534 0.0
C1300 C 0.78709 0.02723 0.72966 0.0
C1301 C 0.78317 0.0214 0.70882 0.0
C1302 C 0.77185 0.02424 0.74508 0.0
C1303 C 0.75227 0.01564 0.73994 0.0
C1304 C 0.74823 1.0102 0.71905 0.0
C1305 C 0.76353 0.01293 0.7037 0.0
C1306 C 0.69998 0.01491 0.76794 0.0
C1307 C 0.70514 1.00552 0.78716 0.0
C1308 C 0.71525 0.0181 0.75264 0.0
C1309 C 0.7361 0.01222 0.75626 0.0
C1310 C 0.7413 1.00287 0.77546 0.0
C1311 C 0.72597 0.99942 0.79069 0.0
H1312 H 0.21177 0.28647 0.9915 0.0
H1313 H 0.25445 0.33135 0.01862 0.0
H1314 H 0.23801 0.25896 0.996 0.0
H1315 H 0.28046 0.30395 0.02309 0.0
H1316 H 0.32946 0.25498 1.00455 0.0
H1317 H 0.30274 0.28173 1.00029 0.0
H1318 H 0.25638 0.23954 0.02535 0.0
H1319 H 0.2832 0.21257 0.02963 0.0
C1320 C 0.22673 0.29049 0.99835 0.0
C1321 C 0.231 0.31114 1.00465 0.0
C1322 C 0.24169 0.2747 1.00106 0.0
C1323 C 0.2613 0.27929 0.0099 0.0
C1324 C 0.26558 0.29995 0.01606 0.0
C1325 C 0.2506 0.31564 0.01356 0.0
C1326 C 0.3136 0.25136 1.00923 0.0
C1327 C 0.30851 0.23161 0.01748 0.0
C1328 C 0.29829 0.26675 1.00685 0.0
C1329 C 0.27745 0.26275 0.01248 0.0
C1330 C 0.27228 0.24301 0.0207 0.0
C1331 C 0.28768 0.22764 0.02331 0.0
H1332 H 0.25484 0.68804 1.00544 0.0
H1333 H 0.21169 0.73418 0.02929 0.0
H1334 H 0.28132 0.71497 1.00113 0.0
H1335 H 0.23848 0.7613 0.02498 0.0
H1336 H 0.28609 0.80574 0.99114 0.0
H1337 H 0.25844 0.77959 0.99578 0.0
H1338 H 0.30301 0.73751 0.02402 0.0
H1339 H 0.33051 0.76339 0.01938 0.0
C1340 C 0.25099 0.70394 1.00983 0.0
C1341 C 0.2311 0.70891 0.01777 0.0
C1342 C 0.26624 0.71938 1.00743 0.0
C1343 C 0.26203 0.74027 0.01274 0.0
C1344 C 0.24214 0.74535 0.0206 0.0
C1345 C 0.22686 0.7298 0.02322 0.0
C1346 C 0.28998 0.79087 0.99826 0.0
C1347 C 0.31056 0.78666 1.0048 0.0
C1348 C 0.27411 0.77598 1.00107 0.0
C1349 C 0.27855 0.75648 0.01025 0.0
C1350 C 0.29912 0.75229 0.01671 0.0
C1351 C 0.31488 0.76719 0.0141 0.0
H1352 H 0.79199 0.29746 0.04517 0.0
H1353 H 0.77484 0.32168 0.98449 0.0
H1354 H 0.7654 0.27005 0.04161 0.0
H1355 H 0.74861 0.29415 0.98088 0.0
H1356 H 0.72113 0.22677 0.97453 0.0
H1357 H 0.74846 0.25339 0.97813 0.0
H1358 H 0.72457 0.26988 0.03898 0.0
H1359 H 0.69708 0.24359 0.03533 0.0
C1360 C 0.78263 0.29689 0.03107 0.0
C1361 C 0.78547 0.31179 0.01516 0.0
C1362 C 0.76739 0.28126 0.02907 0.0
C1363 C 0.755 0.27999 0.01095 0.0
C1364 C 0.75805 0.29468 0.99494 0.0
C1365 C 0.77298 0.31051 0.99709 0.0
C1366 C 0.7217 0.23608 0.98866 0.0
C1367 C 0.70688 0.23312 1.0046 0.0
C1368 C 0.7373 0.25134 0.99069 0.0
C1369 C 0.73864 0.26363 1.00886 0.0
C1370 C 0.724 0.2605 0.02489 0.0
C1371 C 0.70818 0.24555 0.02271 0.0
H1372 H 0.76462 0.69123 0.99164 0.0
H1373 H 0.81304 0.73535 1.00749 0.0
H1374 H 0.73828 0.71811 0.99654 0.0
H1375 H 0.78675 0.76197 0.01442 0.0
H1376 H 0.73623 0.81157 0.01022 0.0
H1377 H 0.76313 0.7856 1.00336 0.0
H1378 H 0.71937 0.73646 0.0196 0.0
H1379 H 0.69221 0.76255 0.02444 0.0
C1380 C 0.76955 0.70675 0.99635 0.0
C1381 C 0.79081 0.71128 0.99909 0.0
C1382 C 0.75442 0.72219 0.99949 0.0
C1383 C 0.76007 0.74243 1.00627 0.0
C1384 C 0.78154 0.74686 1.00887 0.0
C1385 C 0.79672 0.73156 1.00501 0.0
C1386 C 0.73251 0.79517 0.01237 0.0
C1387 C 0.71218 0.78903 0.01781 0.0
C1388 C 0.74798 0.78017 1.00854 0.0
C1389 C 0.74367 0.75862 0.01071 0.0
C1390 C 0.72337 0.7527 0.017 0.0
C1391 C 0.70776 0.76767 0.02011 0.0
H1392 H 0.49237 0.71063 0.78729 0.0
H1393 H 0.5166 0.75476 0.8324 0.0
H1394 H 0.49603 0.73701 0.75975 0.0
H1395 H 0.52021 0.78091 0.80499 0.0
H1396 H 0.50081 0.82897 0.7556 0.0
H1397 H 0.49673 0.80201 0.78216 0.0
H1398 H 0.52499 0.75676 0.7409 0.0
H1399 H 0.52913 0.78383 0.71412 0.0
C1400 C 0.49839 0.72593 0.79136 0.0
C1401 C 0.50415 0.73056 0.81208 0.0
C1402 C 0.50062 0.74098 0.77555 0.0
C1403 C 0.50839 0.76104 0.7802 0.0
C1404 C 0.51399 0.76567 0.80093 0.0
C1405 C 0.51199 0.75062 0.81663 0.0
C1406 C 0.50619 0.8133 0.75212 0.0
C1407 C 0.51536 0.80861 0.73271 0.0
C1408 C 0.50391 0.79785 0.76741 0.0
C1409 C 0.51056 0.77726 0.76365 0.0
C1410 C 0.51957 0.77246 0.74419 0.0
C1411 C 0.52207 0.788 0.72892 0.0
H1412 H 0.26311 0.51631 0.83228 0.0
H1413 H 0.30507 0.48898 0.787 0.0
H1414 H 0.23692 0.52124 0.80504 0.0
H1415 H 0.27873 0.49397 0.7597 0.0
H1416 H 0.23468 0.52923 0.71376 0.0
H1417 H 0.26119 0.52422 0.74091 0.0
H1418 H 0.21414 0.49908 0.78222 0.0
H1419 H 0.1877 0.50403 0.75524 0.0
C1420 C 0.26674 0.51127 0.81654 0.0
C1421 C 0.2862 0.50221 0.81185 0.0
C1422 C 0.25168 0.51405 0.80094 0.0
C1423 C 0.25578 0.50805 0.78022 0.0
C1424 C 0.27521 0.49894 0.77549 0.0
C1425 C 0.29021 0.49593 0.79117 0.0
C1426 C 0.22998 0.52274 0.72867 0.0
C1427 C 0.20905 0.51706 0.73232 0.0
C1428 C 0.24519 0.51972 0.74415 0.0
C1429 C 0.23975 0.51121 0.76368 0.0
C1430 C 0.21879 0.50581 0.7674 0.0
C1431 C 0.20366 0.50859 0.75188 0.0
H1432 H 0.50208 0.26531 0.83241 0.0
H1433 H 0.52707 0.30825 0.7866 0.0
H1434 H 0.49785 0.23882 0.80539 0.0
H1435 H 0.52276 0.28156 0.75947 0.0
H1436 H 0.4892 0.2348 0.7144 0.0
H1437 H 0.49336 0.26207 0.74096 0.0
H1438 H 0.52112 0.21701 0.78284 0.0
H1439 H 0.51703 0.18983 0.75647 0.0
C1440 C 0.5067 0.26912 0.81658 0.0
C1441 C 0.51496 0.28893 0.81171 0.0
C1442 C 0.50434 0.25388 0.8011 0.0
C1443 C 0.50998 0.25809 0.7803 0.0
C1444 C 0.51812 0.27792 0.77534 0.0
C1445 C 0.52072 0.29314 0.79091 0.0
C1446 C 0.49613 0.23071 0.7293 0.0
C1447 C 0.50274 0.2101 0.7333 0.0
C1448 C 0.49865 0.24636 0.74444 0.0
C1449 C 0.50756 0.24168 0.76399 0.0
C1450 C 0.51403 0.22107 0.76801 0.0
C1451 C 0.51175 0.20551 0.75283 0.0
H1452 H 0.79933 0.47596 0.72498 0.0
H1453 H 0.82388 0.5363 0.74301 0.0
H1454 H 0.77132 0.47977 0.75085 0.0
H1455 H 0.79577 0.54017 0.76848 0.0
H1456 H 0.72834 0.54715 0.79518 0.0
H1457 H 0.75497 0.54334 0.76791 0.0
H1458 H 0.77069 0.48221 0.79177 0.0
H1459 H 0.74445 0.48608 0.81918 0.0
C1460 C 0.7987 0.49005 0.73436 0.0
C1461 C 0.81389 0.50577 0.73201 0.0
C1462 C 0.78272 0.4922 0.74918 0.0
C1463 C 0.78138 0.51029 0.76161 0.0
C1464 C 0.79634 0.52615 0.759 0.0
C1465 C 0.81251 0.52383 0.74451 0.0
C1466 C 0.73747 0.53291 0.79458 0.0
C1467 C 0.73436 0.51698 0.80941 0.0
C1468 C 0.75272 0.53075 0.77902 0.0
C1469 C 0.76483 0.51245 0.77772 0.0
C1470 C 0.76147 0.4964 0.79231 0.0
C1471 C 0.74654 0.49871 0.80809 0.0
H1472 H 0.52805 0.23278 0.30519 0.0
H1473 H 0.49999 0.18739 0.26369 0.0
H1474 H 0.52302 0.25997 0.27873 0.0
H1475 H 0.495 0.21451 0.2374 0.0
H1476 H 0.51311 0.26333 0.18759 0.0
H1477 H 0.51748 0.23662 0.21439 0.0
H1478 H 0.49324 0.27911 0.26085 0.0
H1479 H 0.48883 0.306 0.23397 0.0
C1480 C 0.52087 0.22858 0.29044 0.0
C1481 C 0.51447 0.20788 0.28656 0.0
C1482 C 0.51785 0.24419 0.27536 0.0
C1483 C 0.5086 0.23938 0.25599 0.0
C1484 C 0.50233 0.21867 0.25209 0.0
C1485 C 0.50514 0.20315 0.26722 0.0
C1486 C 0.50862 0.26701 0.2035 0.0
C1487 C 0.50059 0.28683 0.20861 0.0
C1488 C 0.51106 0.25164 0.21884 0.0
C1489 C 0.50573 0.25576 0.23974 0.0
C1490 C 0.49766 0.27555 0.24491 0.0
C1491 C 0.49499 0.29089 0.22948 0.0
H1492 H 0.78202 0.53206 0.30348 0.0
H1493 H 0.82773 0.50387 0.26257 0.0
H1494 H 0.75533 0.52787 0.27639 0.0
H1495 H 0.80109 0.49976 0.23561 0.0
H1496 H 0.75335 0.51883 0.18511 0.0
H1497 H 0.77956 0.52295 0.21245 0.0
H1498 H 0.73624 0.49825 0.25789 0.0
H1499 H 0.70986 0.49404 0.23046 0.0
C1500 C 0.7864 0.52506 0.2887 0.0
C1501 C 0.80704 0.51834 0.2852 0.0
C1502 C 0.77108 0.52252 0.27326 0.0
C1503 C 0.77611 0.51347 0.25388 0.0
C1504 C 0.79677 0.50695 0.25031 0.0
C1505 C 0.81201 0.50924 0.26581 0.0
C1506 C 0.74937 0.51422 0.20091 0.0
C1507 C 0.72948 0.50608 0.20557 0.0
C1508 C 0.76445 0.51652 0.21656 0.0
C1509 C 0.75997 0.51094 0.23732 0.0
C1510 C 0.74008 0.50285 0.24206 0.0
C1511 C 0.72503 0.50031 0.22632 0.0
H1512 H 0.48431 0.74452 0.19939 0.0
H1513 H 0.54523 0.72667 0.22243 0.0
H1514 H 0.48122 0.77021 0.22744 0.0
H1515 H 0.5422 0.75277 0.25036 0.0
H1516 H 0.53666 0.82173 0.27626 0.0
H1517 H 0.53985 0.79373 0.25052 0.0
H1518 H 0.47923 0.77016 0.26837 0.0
H1519 H 0.47611 0.79803 0.29452 0.0
C1520 C 0.49707 0.74609 0.21042 0.0
C1521 C 0.51507 0.7336 0.20863 0.0
C1522 C 0.4952 0.7607 0.22656 0.0
C1523 C 0.51144 0.76345 0.24106 0.0
C1524 C 0.52947 0.75099 0.23932 0.0
C1525 C 0.53117 0.73605 0.22339 0.0
C1526 C 0.52401 0.81056 0.27477 0.0
C1527 C 0.50608 0.81216 0.28739 0.0
C1528 C 0.52593 0.79445 0.26013 0.0
C1529 C 0.50981 0.77979 0.25747 0.0
C1530 C 0.49187 0.78132 0.27007 0.0
C1531 C 0.49011 0.79722 0.28505 0.0
H1532 H 0.30481 0.53164 0.23691 0.0
H1533 H 0.26388 0.5044 0.19053 0.0
H1534 H 0.27776 0.5267 0.26351 0.0
H1535 H 0.23703 0.49949 0.21704 0.0
H1536 H 0.18638 0.51725 0.26459 0.0
H1537 H 0.21386 0.52196 0.23875 0.0
H1538 H 0.2591 0.49688 0.2821 0.0
H1539 H 0.23148 0.49212 0.30818 0.0
C1540 C 0.29004 0.5247 0.23236 0.0
C1541 C 0.28651 0.51847 0.21156 0.0
C1542 C 0.27463 0.52171 0.24763 0.0
C1543 C 0.25527 0.51269 0.24237 0.0
C1544 C 0.25171 0.50665 0.22156 0.0
C1545 C 0.26715 0.50941 0.20637 0.0
C1546 C 0.20216 0.51266 0.26867 0.0
C1547 C 0.20669 0.50427 0.28849 0.0
C1548 C 0.2179 0.5153 0.25379 0.0
C1549 C 0.23865 0.5098 0.25837 0.0
C1550 C 0.24327 0.50143 0.27818 0.0
C1551 C 0.22743 0.49856 0.29305 0.0
H1552 H 0.81909 0.74163 0.48356 0.0
H1553 H 0.79573 0.72471 0.54462 0.0
H1554 H 0.7912 0.76746 0.47998 0.0
H1555 H 0.768 0.7509 0.54109 0.0
H1556 H 0.7426 0.81972 0.535 0.0
H1557 H 0.76828 0.79172 0.53833 0.0
H1558 H 0.7502 0.76783 0.47788 0.0
H1559 H 0.7241 0.79574 0.47462 0.0
C1560 C 0.80801 0.74343 0.49623 0.0
C1561 C 0.80968 0.73117 0.51443 0.0
C1562 C 0.79197 0.75812 0.49409 0.0
C1563 C 0.77745 0.76115 0.51024 0.0
C1564 C 0.77905 0.74891 0.52843 0.0
C1565 C 0.79487 0.7339 0.53042 0.0
C1566 C 0.74403 0.80849 0.52241 0.0
C1567 C 0.73135 0.81 0.50449 0.0
C1568 C 0.75865 0.79238 0.52441 0.0
C1569 C 0.7612 0.77761 0.50839 0.0
C1570 C 0.74858 0.77908 0.49044 0.0
C1571 C 0.73363 0.79499 0.4886 0.0
H1572 H 0.71189 0.23802 0.53055 0.0
H1573 H 0.75475 0.19204 0.50588 0.0
H1574 H 0.7389 0.26499 0.52693 0.0
H1575 H 0.78148 0.21886 0.50227 0.0
H1576 H 0.83095 0.26688 0.52084 0.0
H1577 H 0.80338 0.24103 0.52542 0.0
H1578 H 0.75875 0.28359 0.49803 0.0
H1579 H 0.78642 0.30967 0.49344 0.0
C1580 C 0.72705 0.23364 0.52446 0.0
C1581 C 0.73114 0.21285 0.51854 0.0
C1582 C 0.74246 0.24911 0.52224 0.0
C1583 C 0.76233 0.24404 0.51433 0.0
C1584 C 0.76642 0.22323 0.50862 0.0
C1585 C 0.75102 0.20787 0.51061 0.0
C1586 C 0.81528 0.2708 0.51576 0.0
C1587 C 0.81095 0.29037 0.50669 0.0
C1588 C 0.79949 0.25592 0.51833 0.0
C1589 C 0.77889 0.26024 0.51205 0.0
C1590 C 0.77444 0.27987 0.50318 0.0
C1591 C 0.79033 0.29474 0.50041 0.0
H1592 H 0.26509 0.83365 0.50258 0.0
H1593 H 0.30865 0.78774 0.52622 0.0
H1594 H 0.23865 0.80651 0.49855 0.0
H1595 H 0.28203 0.76049 0.5221 0.0
H1596 H 0.23563 0.71575 0.48775 0.0
H1597 H 0.26253 0.74259 0.4923 0.0
H1598 H 0.21728 0.78308 0.52166 0.0
H1599 H 0.19042 0.75636 0.51719 0.0
C1600 C 0.26903 0.81777 0.50697 0.0
C1601 C 0.28901 0.81288 0.51474 0.0
C1602 C 0.25382 0.80223 0.50473 0.0
C1603 C 0.25826 0.78137 0.50999 0.0
C1604 C 0.27822 0.77642 0.51775 0.0
C1605 C 0.2934 0.79204 0.52025 0.0
C1606 C 0.2314 0.73041 0.49511 0.0
C1607 C 0.21084 0.73391 0.50207 0.0
C1608 C 0.24685 0.7457 0.49786 0.0
C1609 C 0.24202 0.76492 0.50736 0.0
C1610 C 0.22144 0.76848 0.51414 0.0
C1611 C 0.20607 0.75313 0.51163 0.0
H1612 H 0.19099 0.26202 0.52491 0.0
H1613 H 0.23529 0.31062 0.51014 0.0
H1614 H 0.21808 0.23576 0.52074 0.0
H1615 H 0.26215 0.28442 0.50395 0.0
H1616 H 0.31178 0.23396 0.50959 0.0
H1617 H 0.28558 0.26087 0.51571 0.0
H1618 H 0.23704 0.21696 0.4981 0.0
H1619 H 0.26327 0.18984 0.49401 0.0
C1620 C 0.20659 0.26701 0.52059 0.0
C1621 C 0.21111 0.2883 0.51794 0.0
C1622 C 0.22216 0.25193 0.51787 0.0
C1623 C 0.24253 0.25767 0.51162 0.0
C1624 C 0.24694 0.27915 0.5091 0.0
C1625 C 0.2315 0.29428 0.51254 0.0
C1626 C 0.29547 0.23023 0.50699 0.0
C1627 C 0.28949 0.20988 0.5014 0.0
C1628 C 0.28034 0.24569 0.51039 0.0
C1629 C 0.25888 0.24132 0.50763 0.0
C1630 C 0.25317 0.221 0.50116 0.0
C1631 C 0.26824 0.20541 0.49849 0.0
H1632 H 0.07373 0.31897 0.12654 0.0
H1633 H 0.07997 0.38417 0.1431 0.0
H1634 H 0.09918 0.32354 0.09876 0.0
H1635 H 0.10532 0.38888 0.11478 0.0
H1636 H 0.12247 0.34294 0.03546 0.0
H1637 H 0.0991 0.34045 0.06515 0.0
H1638 H 0.14044 0.37979 0.10129 0.0
H1639 H 0.16393 0.38264 0.07114 0.0
C1640 C 0.08062 0.33429 0.12432 0.0
C1641 C 0.07466 0.35123 0.13697 0.0
C1642 C 0.09513 0.33696 0.10825 0.0
C1643 C 0.10405 0.35667 0.10424 0.0
C1644 C 0.09879 0.37348 0.11745 0.0
C1645 C 0.08423 0.37078 0.13365 0.0
C1646 C 0.12664 0.35118 0.04966 0.0
C1647 C 0.14523 0.36287 0.0509 0.0
C1648 C 0.11325 0.34961 0.0668 0.0
C1649 C 0.11803 0.3596 0.08579 0.0
C1650 C 0.13627 0.37191 0.0869 0.0
C1651 C 0.14974 0.37351 0.06963 0.0
H1652 H 0.69791 0.06351 0.11765 0.0
H1653 H 0.64534 0.08958 0.15085 0.0
H1654 H 0.69304 0.08865 0.08983 0.0
H1655 H 0.64107 0.11588 0.12336 0.0
H1656 H 0.62707 0.14703 0.05939 0.0
H1657 H 0.63048 0.12262 0.08875 0.0
H1658 H 0.6976 0.12291 0.0807 0.0
H1659 H 0.69394 0.14594 0.05091 0.0
C1660 C 0.68551 0.07493 0.11921 0.0
C1661 C 0.67212 0.07461 0.13657 0.0
C1662 C 0.68276 0.08954 0.10323 0.0
C1663 C 0.66679 0.10466 0.10428 0.0
C1664 C 0.65341 0.10442 0.12178 0.0
C1665 C 0.65595 0.08946 0.13767 0.0
C1666 C 0.64249 0.14177 0.06397 0.0
C1667 C 0.66019 0.14812 0.05263 0.0
C1668 C 0.64451 0.12788 0.0809 0.0
C1669 C 0.66433 0.12038 0.08706 0.0
C1670 C 0.682 0.1276 0.07613 0.0
C1671 C 0.67993 0.141 0.05904 0.0
H1672 H 0.93668 0.6375 0.14236 0.0
H1673 H 0.94243 0.70295 0.12659 0.0
H1674 H 0.91213 0.63273 0.11331 0.0
H1675 H 0.91785 0.69827 0.098 0.0
H1676 H 0.89777 0.67846 0.0336 0.0
H1677 H 0.91991 0.68096 0.06422 0.0
H1678 H 0.87688 0.64211 0.09882 0.0
H1679 H 0.85452 0.63934 0.06773 0.0
C1680 C 0.93249 0.65092 0.13292 0.0
C1681 C 0.9417 0.67057 0.13669 0.0
C1682 C 0.91838 0.64819 0.1163 0.0
C1683 C 0.91328 0.66504 0.1031 0.0
C1684 C 0.9218 0.68484 0.10754 0.0
C1685 C 0.93582 0.68756 0.12406 0.0
C1686 C 0.89295 0.67032 0.04764 0.0
C1687 C 0.8742 0.65883 0.04817 0.0
C1688 C 0.90564 0.6719 0.06531 0.0
C1689 C 0.90001 0.66207 0.08413 0.0
C1690 C 0.88165 0.6499 0.08456 0.0
C1691 C 0.86884 0.64832 0.06676 0.0
H1692 H 0.38235 0.8537 0.0716 0.0
H1693 H 0.34173 0.89446 0.0362 0.0
H1694 H 0.37923 0.87712 0.10182 0.0
H1695 H 0.33892 0.91771 0.06597 0.0
H1696 H 0.31713 0.94223 0.12759 0.0
H1697 H 0.32213 0.91686 0.09978 0.0
H1698 H 0.38774 0.91277 0.11512 0.0
H1699 H 0.38263 0.93807 0.14344 0.0
C1700 C 0.37296 0.86771 0.07017 0.0
C1701 C 0.36214 0.87205 0.05149 0.0
C1702 C 0.37119 0.88114 0.08748 0.0
C1703 C 0.35853 0.89912 0.08645 0.0
C1704 C 0.34837 0.90374 0.06753 0.0
C1705 C 0.35011 0.89042 0.05035 0.0
C1706 C 0.33262 0.93582 0.12522 0.0
C1707 C 0.34951 0.94235 0.13766 0.0
C1708 C 0.33552 0.92135 0.10914 0.0
C1709 C 0.35542 0.91302 0.10494 0.0
C1710 C 0.3722 0.91884 0.11794 0.0
C1711 C 0.36928 0.93337 0.13414 0.0
H1712 H 0.08504 0.63855 0.87381 0.0
H1713 H 0.07865 0.70308 0.89271 0.0
H1714 H 0.10975 0.63269 0.90255 0.0
H1715 H 0.10341 0.69737 0.92093 0.0
H1716 H 0.12351 0.67526 0.98429 0.0
H1717 H 0.10132 0.67856 0.95379 0.0
H1718 H 0.14481 0.64166 0.91777 0.0
H1719 H 0.16721 0.63804 0.94876 0.0
C1720 C 0.08917 0.65155 0.88385 0.0
C1721 C 0.07968 0.67123 0.8811 0.0
C1722 C 0.10334 0.6482 0.90029 0.0
C1723 C 0.10827 0.66445 0.9143 0.0
C1724 C 0.09957 0.68435 0.91079 0.0
C1725 C 0.08545 0.68767 0.89448 0.0
C1726 C 0.12841 0.66771 0.96995 0.0
C1727 C 0.14731 0.65655 0.96898 0.0
C1728 C 0.1157 0.66975 0.95236 0.0
C1729 C 0.12147 0.66076 0.93318 0.0
C1730 C 0.13994 0.64882 0.93231 0.0
C1731 C 0.15276 0.64675 0.95005 0.0
H1732 H 0.32404 0.06258 0.90198 0.0
H1733 H 0.37637 0.08969 0.86911 0.0
H1734 H 0.32741 0.08863 0.92912 0.0
H1735 H 0.37916 0.11684 0.89601 0.0
H1736 H 0.39089 0.14861 0.96064 0.0
H1737 H 0.38885 0.12426 0.93106 0.0
H1738 H 0.32153 0.12317 0.93698 0.0
H1739 H 0.32382 0.14617 0.96695 0.0
C1740 C 0.33606 0.07441 0.90033 0.0
C1741 C 0.34984 0.0741 0.88326 0.0
C1742 C 0.33794 0.08954 0.91592 0.0
C1743 C 0.35341 0.10519 0.9148 0.0
C1744 C 0.36717 0.10499 0.89759 0.0
C1745 C 0.36547 0.08954 0.88205 0.0
C1746 C 0.37572 0.14313 0.95548 0.0
C1747 C 0.35756 0.14899 0.96633 0.0
C1748 C 0.37449 0.12925 0.93846 0.0
C1749 C 0.35502 0.1213 0.93174 0.0
C1750 C 0.33687 0.12822 0.94203 0.0
C1751 C 0.33815 0.1416 0.9592 0.0
H1752 H 0.89454 0.34074 0.98594 0.0
H1753 H 0.85479 0.38178 0.94992 0.0
H1754 H 0.91808 0.3375 0.95641 0.0
H1755 H 0.87826 0.37808 0.91994 0.0
H1756 H 0.93796 0.38075 0.87782 0.0
H1757 H 0.91292 0.38604 0.90624 0.0
H1758 H 0.91848 0.32082 0.92306 0.0
H1759 H 0.94376 0.31574 0.89522 0.0
C1760 C 0.89079 0.34909 0.97169 0.0
C1761 C 0.87266 0.36142 0.97031 0.0
C1762 C 0.90425 0.34709 0.95464 0.0
C1763 C 0.89993 0.35722 0.93561 0.0
C1764 C 0.88212 0.3701 0.93436 0.0
C1765 C 0.86864 0.37219 0.95154 0.0
C1766 C 0.93363 0.36752 0.88747 0.0
C1767 C 0.943 0.34787 0.88436 0.0
C1768 C 0.91925 0.37054 0.90375 0.0
C1769 C 0.91391 0.35395 0.91721 0.0
C1770 C 0.92262 0.33411 0.91341 0.0
C1771 C 0.93701 0.33114 0.89728 0.0
H1772 H 0.69447 0.86877 0.96396 0.0
H1773 H 0.62717 0.87096 0.96128 0.0
H1774 H 0.6967 0.89179 0.93395 0.0
H1775 H 0.62924 0.89536 0.93168 0.0
H1776 H 0.64105 0.93044 0.8697 0.0
H1777 H 0.63772 0.90291 0.89616 0.0
H1778 H 0.69261 0.92699 0.92748 0.0
H1779 H 0.69641 0.95345 0.90076 0.0
C1780 C 0.68009 0.87431 0.95691 0.0
C1781 C 0.66066 0.86828 0.96509 0.0
C1782 C 0.68134 0.8877 0.93977 0.0
C1783 C 0.66317 0.89603 0.93059 0.0
C1784 C 0.6436 0.88929 0.93824 0.0
C1785 C 0.64236 0.87537 0.95524 0.0
C1786 C 0.65249 0.92962 0.88216 0.0
C1787 C 0.66913 0.94402 0.88299 0.0
C1788 C 0.6505 0.91394 0.89744 0.0
C1789 C 0.66499 0.91245 0.91398 0.0
C1790 C 0.68145 0.92708 0.91475 0.0
C1791 C 0.68358 0.94246 0.89942 0.0
H1792 H 0.14891 0.08897 0.37609 0.0
H1793 H 0.11518 0.06146 0.3245 0.0
H1794 H 0.12154 0.1155 0.37975 0.0
H1795 H 0.08755 0.08686 0.32877 0.0
H1796 H 0.04978 0.14465 0.32544 0.0
H1797 H 0.07934 0.12126 0.32285 0.0
H1798 H 0.08673 0.12296 0.39003 0.0
H1799 H 0.05752 0.14771 0.39237 0.0
C1800 C 0.13564 0.08856 0.36558 0.0
C1801 C 0.13438 0.07327 0.34982 0.0
C1802 C 0.11983 0.10366 0.36778 0.0
C1803 C 0.10228 0.10362 0.35443 0.0
C1804 C 0.10101 0.08798 0.33897 0.0
C1805 C 0.11688 0.07322 0.33657 0.0
C1806 C 0.05772 0.14009 0.3397 0.0
C1807 C 0.05113 0.14783 0.35914 0.0
C1808 C 0.07466 0.12648 0.33824 0.0
C1809 C 0.08531 0.11967 0.35626 0.0
C1810 C 0.07906 0.12786 0.37577 0.0
C1811 C 0.06224 0.14196 0.37717 0.0
H1812 H 0.9548 0.11738 0.32297 0.0
H1813 H 0.92985 0.15062 0.37608 0.0
H1814 H 0.92911 0.09005 0.32771 0.0
H1815 H 0.90302 0.12358 0.38027 0.0
H1816 H 0.87146 0.05917 0.39364 0.0
H1817 H 0.89582 0.08868 0.39048 0.0
H1818 H 0.89447 0.08205 0.32321 0.0
H1819 H 0.8715 0.05214 0.32658 0.0
C1820 C 0.94353 0.11905 0.33548 0.0
C1821 C 0.94431 0.13629 0.34904 0.0
C1822 C 0.92859 0.10336 0.33815 0.0
C1823 C 0.91362 0.10457 0.35423 0.0
C1824 C 0.91434 0.12192 0.36782 0.0
C1825 C 0.92961 0.13754 0.36533 0.0
C1826 C 0.87642 0.06416 0.37824 0.0
C1827 C 0.86989 0.05314 0.36039 0.0
C1828 C 0.8903 0.08114 0.37637 0.0
C1829 C 0.89757 0.08764 0.35658 0.0
C1830 C 0.88997 0.07717 0.33877 0.0
C1831 C 0.8766 0.06004 0.34068 0.0
H1832 H 0.90433 0.95787 0.32608 0.0
H1833 H 0.8707 0.93037 0.3777 0.0
H1834 H 0.93192 0.9324 0.3303 0.0
H1835 H 0.89804 0.90378 0.38131 0.0
H1836 H 0.96209 0.87154 0.39377 0.0
H1837 H 0.93294 0.89636 0.39152 0.0
H1838 H 0.93986 0.8979 0.32429 0.0
H1839 H 0.96937 0.87441 0.32678 0.0
C1840 C 0.90266 0.9461 0.33816 0.0
C1841 C 0.8852 0.94606 0.35143 0.0
C1842 C 0.9185 0.93131 0.34052 0.0
C1843 C 0.91722 0.91565 0.35596 0.0
C1844 C 0.89973 0.91563 0.36935 0.0
C1845 C 0.88395 0.93077 0.36719 0.0
C1846 C 0.95728 0.87727 0.37857 0.0
C1847 C 0.96824 0.87132 0.3605 0.0
C1848 C 0.9405 0.8914 0.37723 0.0
C1849 C 0.93414 0.89956 0.35773 0.0
C1850 C 0.94463 0.89268 0.33967 0.0
C1851 C 0.96154 0.87903 0.34107 0.0
H1852 H 0.14806 0.96036 0.3928 0.0
H1853 H 0.14704 0.96726 0.32574 0.0
H1854 H 0.12369 0.93084 0.39004 0.0
H1855 H 0.12405 0.93732 0.32273 0.0
H1856 H 0.06392 0.90163 0.32334 0.0
H1857 H 0.08954 0.9291 0.32765 0.0
H1858 H 0.11649 0.89594 0.38007 0.0
H1859 H 0.08973 0.86876 0.37634 0.0
C1860 C 0.14287 0.95535 0.37748 0.0
C1861 C 0.14915 0.96632 0.35952 0.0
C1862 C 0.12899 0.93836 0.37584 0.0
C1863 C 0.12145 0.93179 0.35615 0.0
C1864 C 0.12876 0.94225 0.33823 0.0
C1865 C 0.14214 0.95939 0.33992 0.0
C1866 C 0.07537 0.90007 0.33573 0.0
C1867 C 0.07484 0.8829 0.34939 0.0
C1868 C 0.09026 0.91584 0.33815 0.0
C1869 C 0.10545 0.91478 0.35407 0.0
C1870 C 0.10499 0.89749 0.36775 0.0
C1871 C 0.08976 0.88179 0.36552 0.0
H1872 H 0.03402 0.89974 0.67291 0.0
H1873 H 0.06887 0.85491 0.63636 0.0
H1874 H 0.06482 0.9216 0.67581 0.0
H1875 H 0.10013 0.87709 0.63946 0.0
H1876 H 0.14471 0.93691 0.63614 0.0
H1877 H 0.11548 0.91276 0.63008 0.0
H1878 H 0.09792 0.9181 0.695 0.0
H1879 H 0.1267 0.94216 0.70099 0.0
C1880 C 0.04825 0.89454 0.66537 0.0
C1881 C 0.04896 0.87538 0.65458 0.0
C1882 C 0.066 0.90708 0.66716 0.0
C1883 C 0.08507 0.9009 0.65825 0.0
C1884 C 0.08567 0.88225 0.64656 0.0
C1885 C 0.06777 0.86956 0.64478 0.0
C1886 C 0.13473 0.9327 0.64915 0.0
C1887 C 0.13793 0.94166 0.66901 0.0
C1888 C 0.11802 0.91885 0.64567 0.0
C1889 C 0.10415 0.91379 0.66197 0.0
C1890 C 0.10801 0.92203 0.68198 0.0
C1891 C 0.12463 0.93576 0.68545 0.0
H1892 H 0.14526 0.04581 0.69687 0.0
H1893 H 0.15208 0.05727 0.63075 0.0
H1894 H 0.12191 0.07543 0.69979 0.0
H1895 H 0.12746 0.08652 0.63333 0.0
H1896 H 0.09298 0.14797 0.64842 0.0
H1897 H 0.11979 0.12082 0.64518 0.0
H1898 H 0.0879 0.08416 0.6922 0.0
H1899 H 0.06215 0.1115 0.69611 0.0
C1900 C 0.14156 0.05459 0.68285 0.0
C1901 C 0.15033 0.04903 0.66352 0.0
C1902 C 0.12799 0.07157 0.68449 0.0
C1903 C 0.1223 0.08327 0.66674 0.0
C1904 C 0.13151 0.07803 0.6474 0.0
C1905 C 0.14553 0.06118 0.64585 0.0
C1906 C 0.09192 0.13416 0.65818 0.0
C1907 C 0.07556 0.13202 0.67269 0.0
C1908 C 0.10718 0.11849 0.65621 0.0
C1909 C 0.10626 0.10023 0.66854 0.0
C1910 C 0.08966 0.09815 0.68282 0.0
C1911 C 0.0747 0.11386 0.685 0.0
H1912 H 0.94841 0.16716 0.63916 0.0
H1913 H 0.98345 0.12162 0.67473 0.0
H1914 H 0.9172 0.14486 0.64186 0.0
H1915 H 0.9527 0.09968 0.67725 0.0
H1916 H 0.89101 0.07809 0.70173 0.0
H1917 H 0.9195 0.10265 0.69644 0.0
H1918 H 0.90223 0.10913 0.63152 0.0
H1919 H 0.87329 0.08447 0.63687 0.0
C1920 C 0.94955 0.15236 0.64731 0.0
C1921 C 0.96842 0.14635 0.65692 0.0
C1922 C 0.93169 0.1396 0.64885 0.0
C1923 C 0.93237 0.12068 0.66013 0.0
C1924 C 0.95147 0.11438 0.66891 0.0
C1925 C 0.96919 0.12698 0.66734 0.0
C1926 C 0.89308 0.08485 0.68634 0.0
C1927 C 0.87996 0.07911 0.66968 0.0
C1928 C 0.90952 0.09888 0.68329 0.0
C1929 C 0.91338 0.10758 0.66347 0.0
C1930 C 0.89967 0.10269 0.64697 0.0
C1931 C 0.88313 0.08853 0.65003 0.0
H1932 H 0.95545 0.90774 0.69579 0.0
H1933 H 0.92517 0.87233 0.64693 0.0
H1934 H 0.92985 0.93525 0.692 0.0
H1935 H 0.89849 0.89961 0.64381 0.0
H1936 H 0.86675 0.96345 0.62974 0.0
H1937 H 0.89114 0.93401 0.63237 0.0
H1938 H 0.89591 0.94434 0.69902 0.0
H1939 H 0.87282 0.97416 0.69606 0.0
C1940 C 0.94303 0.90563 0.68447 0.0
C1941 C 0.94231 0.88773 0.67177 0.0
C1942 C 0.92816 0.92144 0.68235 0.0
C1943 C 0.91177 0.91972 0.66774 0.0
C1944 C 0.91094 0.90168 0.65508 0.0
C1945 C 0.92613 0.88592 0.65699 0.0
C1946 C 0.87309 0.95934 0.6449 0.0
C1947 C 0.86815 0.97134 0.66262 0.0
C1948 C 0.88698 0.94238 0.64648 0.0
C1949 C 0.89589 0.93685 0.66589 0.0
C1950 C 0.89006 0.94841 0.68367 0.0
C1951 C 0.87664 0.96551 0.68201 0.0
H1952 H 0.32351 0.04783 0.1439 0.0
H1953 H 0.39008 0.05766 0.14838 0.0
H1954 H 0.3205 0.07734 0.12041 0.0
H1955 H 0.38738 0.08677 0.12356 0.0
H1956 H 0.37257 0.14855 0.08936 0.0
H1957 H 0.37636 0.12121 0.11593 0.0
H1958 H 0.32678 0.08602 0.08624 0.0
H1959 H 0.32234 0.11364 0.0608 0.0
C1960 C 0.3376 0.05621 0.13963 0.0
C1961 C 0.35707 0.05024 0.14782 0.0
C1962 C 0.33592 0.07313 0.12596 0.0
C1963 C 0.35373 0.08434 0.11955 0.0
C1964 C 0.37325 0.07867 0.12815 0.0
C1965 C 0.37486 0.0619 0.1423 0.0
C1966 C 0.3624 0.13501 0.08872 0.0
C1967 C 0.34698 0.1334 0.07313 0.0
C1968 C 0.36467 0.11922 0.10385 0.0
C1969 C 0.35175 0.10134 0.10352 0.0
C1970 C 0.33663 0.09973 0.08758 0.0
C1971 C 0.33414 0.11559 0.0728 0.0
H1972 H 0.38541 0.94705 0.85562 0.0
H1973 H 0.34603 0.98257 0.89739 0.0
H1974 H 0.38213 0.91655 0.8787 0.0
H1975 H 0.34308 0.95254 0.92032 0.0
H1976 H 0.32003 0.89111 0.94403 0.0
H1977 H 0.32544 0.9191 0.91893 0.0
H1978 H 0.39063 0.90237 0.91402 0.0
H1979 H 0.38509 0.87385 0.93905 0.0
C1980 C 0.37631 0.94846 0.86981 0.0
C1981 C 0.36582 0.96722 0.87451 0.0
C1982 C 0.37443 0.93099 0.88303 0.0
C1983 C 0.362 0.93196 0.90117 0.0
C1984 C 0.3523 0.95101 0.90621 0.0
C1985 C 0.35413 0.96834 0.89308 0.0
C1986 C 0.3355 0.8932 0.93748 0.0
C1987 C 0.35216 0.88033 0.94372 0.0
C1988 C 0.33864 0.90938 0.92317 0.0
C1989 C 0.35857 0.91328 0.91475 0.0
C1990 C 0.37508 0.8998 0.9202 0.0
C1991 C 0.37191 0.88348 0.93456 0.0
H1992 H 0.0358 0.34143 0.89693 0.0
H1993 H 0.07067 0.37902 0.85292 0.0
H1994 H 0.06607 0.33957 0.91955 0.0
H1995 H 0.10145 0.3769 0.87583 0.0
H1996 H 0.1436 0.38322 0.93695 0.0
H1997 H 0.11537 0.38734 0.9113 0.0
H1998 H 0.09976 0.32199 0.91826 0.0
H1999 H 0.12747 0.31797 0.94391 0.0
C2000 C 0.04995 0.34935 0.89203 0.0
C2001 C 0.05079 0.36022 0.87293 0.0
C2002 C 0.06741 0.34815 0.90501 0.0
C2003 C 0.08634 0.35773 0.89935 0.0
C2004 C 0.08709 0.3693 0.88063 0.0
C2005 C 0.06948 0.37051 0.8675 0.0
C2006 C 0.1343 0.36969 0.93276 0.0
C2007 C 0.13764 0.35032 0.94267 0.0
C2008 C 0.11816 0.37205 0.91804 0.0
C2009 C 0.10506 0.35509 0.91301 0.0
C2010 C 0.10921 0.33551 0.92214 0.0
C2011 C 0.12521 0.33317 0.93679 0.0
H2012 H 0.64102 0.1496 0.93147 0.0
H2013 H 0.69408 0.11728 0.95775 0.0
H2014 H 0.63712 0.12187 0.90533 0.0
H2015 H 0.68957 0.08923 0.93281 0.0
H2016 H 0.69159 0.05051 0.87553 0.0
H2017 H 0.6945 0.08035 0.89858 0.0
H2018 H 0.62722 0.08699 0.89842 0.0
H2019 H 0.62456 0.05756 0.87396 0.0
C2020 C 0.6518 0.13656 0.93169 0.0
C2021 C 0.66803 0.13579 0.94651 0.0
C2022 C 0.64948 0.12054 0.91682 0.0
C2023 C 0.66314 0.10324 0.91666 0.0
C2024 C 0.6791 0.10248 0.93183 0.0
C2025 C 0.68164 0.11858 0.94633 0.0
C2026 C 0.67738 0.05834 0.88038 0.0
C2027 C 0.65782 0.0515 0.87313 0.0
C2028 C 0.67902 0.07545 0.89379 0.0
C2029 C 0.66108 0.08599 0.90091 0.0
C2030 C 0.64144 0.07943 0.89326 0.0
C2031 C 0.63985 0.06247 0.87934 0.0
H2032 H 0.95122 0.64247 0.84981 0.0
H2033 H 0.98718 0.67844 0.89432 0.0
H2034 H 0.92057 0.64508 0.87275 0.0
H2035 H 0.95702 0.68075 0.91702 0.0
H2036 H 0.87789 0.63915 0.93322 0.0
H2037 H 0.90619 0.63458 0.90779 0.0
H2038 H 0.92392 0.69923 0.91619 0.0
H2039 H 0.89614 0.70366 0.94163 0.0
C2040 C 0.95268 0.65072 0.86452 0.0
C2041 C 0.97164 0.66043 0.87007 0.0
C2042 C 0.93513 0.6522 0.87766 0.0
C2043 C 0.93622 0.66346 0.89655 0.0
C2044 C 0.95542 0.67244 0.90235 0.0
C2045 C 0.97282 0.67097 0.88933 0.0
C2046 C 0.88769 0.65243 0.9294 0.0
C2047 C 0.88489 0.67171 0.93965 0.0
C2048 C 0.90388 0.64981 0.91481 0.0
C2049 C 0.91757 0.66643 0.91022 0.0
C2050 C 0.91401 0.68594 0.91972 0.0
C2051 C 0.89796 0.68853 0.93425 0.0
H2052 H 0.69575 0.97028 0.14428 0.0
H2053 H 0.62899 0.9614 0.14813 0.0
H2054 H 0.69846 0.94105 0.12045 0.0
H2055 H 0.63147 0.93246 0.12304 0.0
H2056 H 0.64654 0.87058 0.08858 0.0
H2057 H 0.64266 0.89767 0.1154 0.0
H2058 H 0.69172 0.93356 0.08582 0.0
H2059 H 0.6962 0.90628 0.06004 0.0
C2060 C 0.68156 0.96216 0.13983 0.0
C2061 C 0.66211 0.96834 0.14789 0.0
C2062 C 0.68309 0.9454 0.12599 0.0
C2063 C 0.66515 0.93454 0.11932 0.0
C2064 C 0.64566 0.94035 0.12784 0.0
C2065 C 0.64419 0.957 0.14213 0.0
C2066 C 0.65657 0.88422 0.088 0.0
C2067 C 0.67186 0.88614 0.07233 0.0
C2068 C 0.65425 0.89984 0.10327 0.0
C2069 C 0.66703 0.91782 0.10305 0.0
C2070 C 0.68199 0.91976 0.08703 0.0
C2071 C 0.6845 0.9041 0.07207 0.0
H2072 H 0.05597 0.62855 0.14885 0.0
H2073 H 0.04674 0.69524 0.144 0.0
H2074 H 0.08568 0.63106 0.1248 0.0
H2075 H 0.0768 0.69802 0.12127 0.0
H2076 H 0.11443 0.69554 0.06245 0.0
H2077 H 0.08632 0.69154 0.08734 0.0
H2078 H 0.12042 0.64197 0.11821 0.0
H2079 H 0.14832 0.64532 0.09221 0.0
C2080 C 0.06043 0.64375 0.14283 0.0
C2081 C 0.04878 0.66163 0.14804 0.0
C2082 C 0.07756 0.64525 0.12914 0.0
C2083 C 0.08361 0.66473 0.12069 0.0
C2084 C 0.07234 0.68263 0.12674 0.0
C2085 C 0.05509 0.68107 0.13997 0.0
C2086 C 0.11607 0.68385 0.07461 0.0
C2087 C 0.13374 0.67087 0.0754 0.0
C2088 C 0.0999 0.68161 0.08907 0.0
C2089 C 0.10103 0.66658 0.10514 0.0
C2090 C 0.11881 0.65359 0.106 0.0
C2091 C 0.13492 0.65562 0.09121 0.0
H2092 H 0.94736 0.38312 0.16538 0.0
H2093 H 0.98083 0.34071 0.12488 0.0
H2094 H 0.91667 0.3804 0.14255 0.0
H2095 H 0.9506 0.33831 0.10217 0.0
H2096 H 0.88823 0.31862 0.07791 0.0
H2097 H 0.91629 0.32278 0.1032 0.0
H2098 H 0.90318 0.38891 0.10722 0.0
H2099 H 0.8746 0.38465 0.08205 0.0
C2100 C 0.94827 0.37339 0.15156 0.0
C2101 C 0.96656 0.36201 0.1471 0.0
C2102 C 0.93069 0.37186 0.13846 0.0
C2103 C 0.93103 0.35887 0.12067 0.0
C2104 C 0.94954 0.34804 0.11598 0.0
C2105 C 0.967 0.34955 0.12899 0.0
C2106 C 0.89113 0.33404 0.08432 0.0
C2107 C 0.87925 0.35133 0.0778 0.0
C2108 C 0.90736 0.33645 0.09874 0.0
C2109 C 0.91229 0.35626 0.10698 0.0
C2110 C 0.8998 0.37343 0.10122 0.0
C2111 C 0.88344 0.37099 0.08677 0.0
H2112 H 0.66506 0.88149 0.57199 0.0
H2113 H 0.62473 0.84044 0.53655 0.0
H2114 H 0.64193 0.87784 0.60228 0.0
H2115 H 0.60164 0.83716 0.56641 0.0
H2116 H 0.57662 0.81558 0.62795 0.0
H2117 H 0.60189 0.82052 0.60004 0.0
H2118 H 0.60699 0.88599 0.61596 0.0
H2119 H 0.58189 0.8809 0.64438 0.0
C2120 C 0.65119 0.87188 0.57056 0.0
C2121 C 0.64688 0.86114 0.55184 0.0
C2122 C 0.63791 0.86981 0.58792 0.0
C2123 C 0.62006 0.85694 0.58692 0.0
C2124 C 0.6155 0.84677 0.56797 0.0
C2125 C 0.62871 0.8488 0.55073 0.0
C2126 C 0.58327 0.831 0.62569 0.0
C2127 C 0.5771 0.84787 0.63834 0.0
C2128 C 0.59767 0.83389 0.60954 0.0
C2129 C 0.60623 0.85375 0.60545 0.0
C2130 C 0.60076 0.87047 0.61867 0.0
C2131 C 0.58634 0.86756 0.63495 0.0
H2132 H 0.19794 0.56158 0.61477 0.0
H2133 H 0.14686 0.5902 0.6482 0.0
H2134 H 0.194 0.58675 0.58684 0.0
H2135 H 0.14358 0.61651 0.62057 0.0
H2136 H 0.13087 0.64819 0.55657 0.0
H2137 H 0.13318 0.62363 0.5859 0.0
H2138 H 0.20023 0.62082 0.57778 0.0
H2139 H 0.19762 0.64405 0.54803 0.0
C2140 C 0.18607 0.57355 0.61634 0.0
C2141 C 0.17283 0.57396 0.63382 0.0
C2142 C 0.18386 0.58817 0.60029 0.0
C2143 C 0.16863 0.60403 0.60139 0.0
C2144 C 0.15536 0.60448 0.61897 0.0
C2145 C 0.15734 0.58951 0.63493 0.0
C2146 C 0.14604 0.64222 0.56113 0.0
C2147 C 0.164 0.64778 0.54978 0.0
C2148 C 0.14743 0.62824 0.57804 0.0
C2149 C 0.16688 0.61984 0.58417 0.0
C2150 C 0.18486 0.62624 0.57323 0.0
C2151 C 0.1834 0.63975 0.55617 0.0
H2152 H 0.35255 0.13866 0.57181 0.0
H2153 H 0.39603 0.17678 0.53684 0.0
H2154 H 0.37506 0.14182 0.60279 0.0
H2155 H 0.41826 0.17968 0.56734 0.0
H2156 H 0.4414 0.20272 0.62882 0.0
H2157 H 0.41618 0.19772 0.60084 0.0
H2158 H 0.41061 0.13242 0.61717 0.0
H2159 H 0.43582 0.13751 0.64562 0.0
C2160 C 0.36695 0.1475 0.57064 0.0
C2161 C 0.37233 0.15762 0.55185 0.0
C2162 C 0.37983 0.14931 0.58838 0.0
C2163 C 0.39827 0.16133 0.58766 0.0
C2164 C 0.40392 0.17076 0.56864 0.0
C2165 C 0.39117 0.16895 0.55105 0.0
C2166 C 0.43466 0.18732 0.62667 0.0
C2167 C 0.44082 0.17047 0.63936 0.0
C2168 C 0.42027 0.18442 0.61051 0.0
C2169 C 0.41166 0.16457 0.60649 0.0
C2170 C 0.41695 0.1479 0.61984 0.0
C2171 C 0.43142 0.15082 0.63612 0.0
H2172 H 0.88559 0.35563 0.57105 0.0
H2173 H 0.84623 0.39836 0.53656 0.0
H2174 H 0.88344 0.37867 0.60168 0.0
H2175 H 0.84438 0.4212 0.56671 0.0
H2176 H 0.82301 0.44484 0.62872 0.0
H2177 H 0.82742 0.41978 0.60054 0.0
H2178 H 0.89293 0.414 0.61572 0.0
H2179 H 0.88842 0.43902 0.64442 0.0
C2180 C 0.87672 0.37001 0.5699 0.0
C2181 C 0.86591 0.37499 0.55138 0.0
C2182 C 0.8755 0.3832 0.58744 0.0
C2183 C 0.8634 0.40159 0.5868 0.0
C2184 C 0.85337 0.4069 0.56798 0.0
C2185 C 0.85456 0.39381 0.55059 0.0
C2186 C 0.83834 0.43811 0.62625 0.0
C2187 C 0.8554 0.44411 0.63874 0.0
C2188 C 0.84091 0.42382 0.60995 0.0
C2189 C 0.86063 0.41516 0.60557 0.0
C2190 C 0.87754 0.42037 0.61866 0.0
C2191 C 0.87495 0.43473 0.63508 0.0
H2192 H 0.57673 0.20388 0.38985 0.0
H2193 H 0.5826 0.13798 0.37625 0.0
H2194 H 0.60201 0.20042 0.41801 0.0
H2195 H 0.60771 0.13438 0.40494 0.0
H2196 H 0.6651 0.14121 0.44968 0.0
H2197 H 0.64253 0.14352 0.41878 0.0
H2198 H 0.60125 0.18509 0.45227 0.0
H2199 H 0.62374 0.18315 0.48269 0.0
C2200 C 0.58353 0.18865 0.39278 0.0
C2201 C 0.57749 0.17118 0.38089 0.0
C2202 C 0.59794 0.18662 0.40906 0.0
C2203 C 0.60662 0.16703 0.41405 0.0
C2204 C 0.60136 0.1497 0.40152 0.0
C2205 C 0.58695 0.15176 0.38509 0.0
C2206 C 0.65114 0.15075 0.45044 0.0
C2207 C 0.64636 0.16212 0.46866 0.0
C2208 C 0.63819 0.15205 0.43273 0.0
C2209 C 0.62022 0.16475 0.43289 0.0
C2210 C 0.61522 0.17558 0.45134 0.0
C2211 C 0.62809 0.17433 0.46891 0.0
H2212 H 0.81378 0.57637 0.39271 0.0
H2213 H 0.8793 0.57981 0.37688 0.0
H2214 H 0.8193 0.6011 0.42103 0.0
H2215 H 0.88495 0.60436 0.40571 0.0
H2216 H 0.88152 0.66275 0.44957 0.0
H2217 H 0.8777 0.63952 0.41935 0.0
H2218 H 0.83559 0.60043 0.45482 0.0
H2219 H 0.83903 0.62364 0.48462 0.0
C2220 C 0.82938 0.58247 0.39521 0.0
C2221 C 0.84612 0.57598 0.38257 0.0
C2222 C 0.83259 0.59656 0.4116 0.0
C2223 C 0.85265 0.6045 0.41593 0.0
C2224 C 0.86929 0.59863 0.4028 0.0
C2225 C 0.86606 0.58451 0.3863 0.0
C2226 C 0.87158 0.6491 0.45094 0.0
C2227 C 0.86046 0.6452 0.46951 0.0
C2228 C 0.86942 0.63576 0.43362 0.0
C2229 C 0.85607 0.61825 0.4345 0.0
C2230 C 0.84557 0.61403 0.45334 0.0
C2231 C 0.84769 0.62731 0.47055 0.0
H2232 H 0.35601 0.88466 0.44734 0.0
H2233 H 0.39726 0.84374 0.4818 0.0
H2234 H 0.37918 0.88216 0.41691 0.0
H2235 H 0.4203 0.84157 0.45184 0.0
H2236 H 0.43972 0.88687 0.375 0.0
H2237 H 0.41442 0.89119 0.40342 0.0
H2238 H 0.41964 0.8254 0.41785 0.0
H2239 H 0.44504 0.82121 0.38997 0.0
C2240 C 0.37008 0.87533 0.44852 0.0
C2241 C 0.37463 0.86425 0.46699 0.0
C2242 C 0.38336 0.87392 0.43109 0.0
C2243 C 0.40144 0.86138 0.43179 0.0
C2244 C 0.40626 0.85093 0.45052 0.0
C2245 C 0.39306 0.85231 0.46781 0.0
C2246 C 0.43525 0.87331 0.38411 0.0
C2247 C 0.44458 0.85374 0.38035 0.0
C2248 C 0.42073 0.87578 0.40038 0.0
C2249 C 0.41525 0.85872 0.41318 0.0
C2250 C 0.42387 0.839 0.40867 0.0
C2251 C 0.43836 0.83656 0.39255 0.0
H2252 H 0.14024 0.42899 0.36877 0.0
H2253 H 0.19406 0.45359 0.40129 0.0
H2254 H 0.137 0.40137 0.3952 0.0
H2255 H 0.19034 0.42703 0.42789 0.0
H2256 H 0.19327 0.36881 0.46414 0.0
H2257 H 0.19539 0.39182 0.43413 0.0
H2258 H 0.12791 0.39374 0.43078 0.0
H2259 H 0.12597 0.36937 0.46043 0.0
C2260 C 0.15137 0.4285 0.38152 0.0
C2261 C 0.16755 0.44337 0.38277 0.0
C2262 C 0.14943 0.41277 0.39677 0.0
C2263 C 0.16353 0.4117 0.41368 0.0
C2264 C 0.17952 0.42681 0.41488 0.0
C2265 C 0.1816 0.44223 0.39961 0.0
C2266 C 0.17886 0.37398 0.45688 0.0
C2267 C 0.15945 0.36752 0.46478 0.0
C2268 C 0.18005 0.38737 0.43972 0.0
C2269 C 0.16183 0.39523 0.43024 0.0
C2270 C 0.14231 0.38803 0.4376 0.0
C2271 C 0.14114 0.37414 0.45463 0.0
H2272 H 0.62923 0.57716 0.8186 0.0
H2273 H 0.64575 0.58123 0.88395 0.0
H2274 H 0.60125 0.60224 0.82403 0.0
H2275 H 0.6173 0.60631 0.88947 0.0
H2276 H 0.53757 0.6233 0.84463 0.0
H2277 H 0.56761 0.60049 0.84163 0.0
H2278 H 0.60353 0.64217 0.88079 0.0
H2279 H 0.57302 0.66524 0.88406 0.0
C2280 C 0.62698 0.5835 0.83414 0.0
C2281 C 0.63965 0.577 0.85087 0.0
C2282 C 0.61082 0.59781 0.83728 0.0
C2283 C 0.60677 0.60603 0.85727 0.0
C2284 C 0.62 0.60029 0.87388 0.0
C2285 C 0.63627 0.58589 0.87072 0.0
C2286 C 0.55179 0.62769 0.85273 0.0
C2287 C 0.55286 0.64629 0.86445 0.0
C2288 C 0.56912 0.61461 0.85087 0.0
C2289 C 0.58814 0.61967 0.86063 0.0
C2290 C 0.58911 0.63784 0.87305 0.0
C2291 C 0.57164 0.65105 0.87491 0.0
H2292 H 0.45824 0.61482 0.82635 0.0
H2293 H 0.42919 0.6498 0.87617 0.0
H2294 H 0.43241 0.58749 0.83016 0.0
H2295 H 0.40226 0.62271 0.87933 0.0
H2296 H 0.36983 0.55887 0.89256 0.0
H2297 H 0.39454 0.58813 0.89022 0.0
H2298 H 0.3982 0.57915 0.82331 0.0
H2299 H 0.37481 0.5495 0.82596 0.0
C2300 C 0.44605 0.61687 0.83791 0.0
C2301 C 0.44571 0.6346 0.85084 0.0
C2302 C 0.43104 0.60117 0.84003 0.0
C2303 C 0.41489 0.60286 0.85488 0.0
C2304 C 0.4145 0.62069 0.86784 0.0
C2305 C 0.42984 0.63633 0.86593 0.0
C2306 C 0.37599 0.56325 0.87741 0.0
C2307 C 0.37067 0.55167 0.85951 0.0
C2308 C 0.39006 0.5801 0.87601 0.0
C2309 C 0.39878 0.58592 0.8566 0.0
C2310 C 0.39253 0.57482 0.83865 0.0
C2311 C 0.37893 0.55783 0.84013 0.0
H2312 H 0.3764 0.43952 0.88488 0.0
H2313 H 0.39235 0.44407 0.81944 0.0
H2314 H 0.40504 0.41458 0.89006 0.0
H2315 H 0.42047 0.41909 0.82451 0.0
H2316 H 0.48423 0.39766 0.84407 0.0
H2317 H 0.45423 0.4206 0.84158 0.0
H2318 H 0.41888 0.37903 0.88135 0.0
H2319 H 0.44937 0.3559 0.88415 0.0
C2320 C 0.38579 0.43498 0.87156 0.0
C2321 C 0.38221 0.44397 0.85178 0.0
C2322 C 0.40217 0.42066 0.87452 0.0
C2323 C 0.41529 0.4151 0.85778 0.0
C2324 C 0.41102 0.4234 0.83787 0.0
C2325 C 0.39477 0.43766 0.83493 0.0
C2326 C 0.47015 0.39334 0.85242 0.0
C2327 C 0.46921 0.37476 0.86416 0.0
C2328 C 0.45284 0.40649 0.85086 0.0
C2329 C 0.43397 0.40148 0.86092 0.0
C2330 C 0.43318 0.38333 0.87338 0.0
C2331 C 0.45063 0.37008 0.87497 0.0
H2332 H 0.56207 0.40504 0.82367 0.0
H2333 H 0.59242 0.37031 0.87293 0.0
H2334 H 0.58741 0.43285 0.82737 0.0
H2335 H 0.61889 0.39782 0.87592 0.0
H2336 H 0.65076 0.46128 0.88974 0.0
H2337 H 0.62619 0.43202 0.88714 0.0
H2338 H 0.62105 0.44271 0.82056 0.0
H2339 H 0.64431 0.47244 0.82353 0.0
C2340 C 0.57447 0.40315 0.83505 0.0
C2341 C 0.57527 0.38536 0.84791 0.0
C2342 C 0.58919 0.41913 0.83712 0.0
C2343 C 0.60553 0.41768 0.85181 0.0
C2344 C 0.60646 0.39972 0.86459 0.0
C2345 C 0.5914 0.38382 0.86277 0.0
C2346 C 0.64426 0.45732 0.87461 0.0
C2347 C 0.64922 0.46937 0.85692 0.0
C2348 C 0.63028 0.44044 0.87304 0.0
C2349 C 0.62127 0.43498 0.85365 0.0
C2350 C 0.62698 0.44669 0.8359 0.0
C2351 C 0.6405 0.46375 0.83756 0.0
H2352 H 0.55144 0.37194 0.19355 0.0
H2353 H 0.55735 0.37047 0.1264 0.0
H2354 H 0.58125 0.39517 0.19595 0.0
H2355 H 0.58679 0.39503 0.12858 0.0
H2356 H 0.6486 0.42995 0.14138 0.0
H2357 H 0.6219 0.40261 0.1383 0.0
H2358 H 0.58857 0.42995 0.19033 0.0
H2359 H 0.61551 0.45621 0.19396 0.0
C2360 C 0.55908 0.37676 0.17923 0.0
C2361 C 0.55188 0.3696 0.15977 0.0
C2362 C 0.57615 0.39026 0.18057 0.0
C2363 C 0.58627 0.39753 0.16244 0.0
C2364 C 0.57951 0.38977 0.14292 0.0
C2365 C 0.56258 0.37578 0.14161 0.0
C2366 C 0.63565 0.42988 0.15227 0.0
C2367 C 0.63432 0.44514 0.16806 0.0
C2368 C 0.62023 0.41432 0.15041 0.0
C2369 C 0.60304 0.41381 0.16416 0.0
C2370 C 0.60178 0.42929 0.17978 0.0
C2371 C 0.61725 0.44454 0.18181 0.0
H2372 H 0.66291 0.57222 0.13322 0.0
H2373 H 0.62123 0.5377 0.17366 0.0
H2374 H 0.64015 0.60295 0.13621 0.0
H2375 H 0.59863 0.56797 0.17633 0.0
H2376 H 0.58007 0.64589 0.13281 0.0
H2377 H 0.6048 0.61709 0.12766 0.0
H2378 H 0.60044 0.60179 0.19326 0.0
H2379 H 0.57564 0.63008 0.1983 0.0
C2380 C 0.64882 0.57108 0.14252 0.0
C2381 C 0.64404 0.55252 0.15336 0.0
C2382 C 0.63577 0.58868 0.14422 0.0
C2383 C 0.61775 0.58806 0.15682 0.0
C2384 C 0.61265 0.56922 0.16694 0.0
C2385 C 0.62559 0.55176 0.16527 0.0
C2386 C 0.58462 0.63651 0.14616 0.0
C2387 C 0.5757 0.64017 0.16593 0.0
C2388 C 0.59881 0.62003 0.14321 0.0
C2389 C 0.60433 0.60688 0.15997 0.0
C2390 C 0.59615 0.61125 0.17989 0.0
C2391 C 0.58201 0.62761 0.18282 0.0
H2392 H 0.48392 0.62646 0.17846 0.0
H2393 H 0.44759 0.66603 0.1375 0.0
H2394 H 0.45449 0.60281 0.18194 0.0
H2395 H 0.41772 0.6423 0.14134 0.0
H2396 H 0.37633 0.58157 0.13908 0.0
H2397 H 0.40455 0.60687 0.13348 0.0
H2398 H 0.42096 0.60281 0.19886 0.0
H2399 H 0.39325 0.57739 0.20432 0.0
C2400 C 0.46963 0.63015 0.17016 0.0
C2401 C 0.46814 0.64829 0.1578 0.0
C2402 C 0.45264 0.61661 0.17229 0.0
C2403 C 0.43356 0.62078 0.16222 0.0
C2404 C 0.43219 0.63857 0.1493 0.0
C2405 C 0.4493 0.6522 0.14712 0.0
C2406 C 0.38585 0.58626 0.15228 0.0
C2407 C 0.38263 0.5773 0.17211 0.0
C2408 C 0.402 0.6008 0.14907 0.0
C2409 C 0.41527 0.60666 0.16564 0.0
C2410 C 0.41141 0.5983 0.18561 0.0
C2411 C 0.39538 0.5838 0.18879 0.0
H2412 H 0.45838 0.40491 0.19636 0.0
H2413 H 0.42867 0.37111 0.14605 0.0
H2414 H 0.43318 0.43284 0.19274 0.0
H2415 H 0.40235 0.39877 0.14309 0.0
H2416 H 0.37048 0.46285 0.13082 0.0
H2417 H 0.39502 0.43348 0.13271 0.0
H2418 H 0.39919 0.44171 0.19969 0.0
H2419 H 0.37597 0.47148 0.19749 0.0
C2420 C 0.44618 0.40328 0.18471 0.0
C2421 C 0.44546 0.38568 0.17161 0.0
C2422 C 0.43154 0.41931 0.1827 0.0
C2423 C 0.41536 0.4181 0.16781 0.0
C2424 C 0.41463 0.40044 0.15462 0.0
C2425 C 0.42961 0.38447 0.15641 0.0
C2426 C 0.37673 0.4583 0.14588 0.0
C2427 C 0.37157 0.46969 0.16394 0.0
C2428 C 0.3907 0.44137 0.14703 0.0
C2429 C 0.3995 0.43528 0.16633 0.0
C2430 C 0.39346 0.44624 0.18442 0.0
C2431 C 0.37995 0.46331 0.1832 0.0
H2432 H 0.84426 0.53663 0.62533 0.0
H2433 H 0.88599 0.57206 0.66496 0.0
H2434 H 0.84098 0.56638 0.60205 0.0
H2435 H 0.88235 0.60224 0.64162 0.0
H2436 H 0.88485 0.64399 0.58111 0.0
H2437 H 0.89015 0.61562 0.6063 0.0
H2438 H 0.82452 0.6002 0.60251 0.0
H2439 H 0.81936 0.62806 0.57719 0.0
C2440 C 0.85278 0.55078 0.62911 0.0
C2441 C 0.8653 0.55193 0.64716 0.0
C2442 C 0.85075 0.56796 0.61579 0.0
C2443 C 0.8611 0.58689 0.62011 0.0
C2444 C 0.87418 0.58791 0.6378 0.0
C2445 C 0.87624 0.57061 0.65119 0.0
C2446 C 0.87153 0.63467 0.58586 0.0
C2447 C 0.85171 0.63819 0.57698 0.0
C2448 C 0.87456 0.61843 0.60033 0.0
C2449 C 0.85784 0.60537 0.6062 0.0
C2450 C 0.83788 0.60958 0.59798 0.0
C2451 C 0.83487 0.6257 0.58355 0.0
H2452 H 0.82062 0.47056 0.37474 0.0
H2453 H 0.88744 0.46287 0.36998 0.0
H2454 H 0.8186 0.44071 0.39793 0.0
H2455 H 0.8857 0.4334 0.39444 0.0
H2456 H 0.8732 0.37119 0.4285 0.0
H2457 H 0.87556 0.39847 0.40169 0.0
H2458 H 0.82558 0.43223 0.43213 0.0
H2459 H 0.82259 0.40472 0.45788 0.0
C2460 C 0.83497 0.46257 0.37886 0.0
C2461 C 0.85423 0.46926 0.37071 0.0
C2462 C 0.83385 0.44545 0.39233 0.0
C2463 C 0.85203 0.43474 0.39856 0.0
C2464 C 0.87132 0.44111 0.38997 0.0
C2465 C 0.87238 0.45809 0.37604 0.0
C2466 C 0.86259 0.38437 0.42923 0.0
C2467 C 0.84755 0.38565 0.4452 0.0
C2468 C 0.86405 0.40012 0.41397 0.0
C2469 C 0.85067 0.41762 0.41451 0.0
C2470 C 0.8358 0.41882 0.43068 0.0
C2471 C 0.83414 0.40302 0.44563 0.0
H2472 H 0.57266 0.88475 0.35444 0.0
H2473 H 0.53686 0.84382 0.39454 0.0
H2474 H 0.60256 0.88167 0.37821 0.0
H2475 H 0.56632 0.84111 0.41825 0.0
H2476 H 0.62774 0.81994 0.44408 0.0
H2477 H 0.60005 0.82465 0.41851 0.0
H2478 H 0.61565 0.89021 0.41348 0.0
H2479 H 0.64386 0.88536 0.43894 0.0
C2480 C 0.57107 0.87529 0.36839 0.0
C2481 C 0.55237 0.8644 0.37244 0.0
C2482 C 0.5882 0.87356 0.38204 0.0
C2483 C 0.58699 0.86087 0.40001 0.0
C2484 C 0.56805 0.85059 0.40431 0.0
C2485 C 0.55104 0.85228 0.39074 0.0
C2486 C 0.62544 0.83535 0.43742 0.0
C2487 C 0.63795 0.8523 0.4437 0.0
C2488 C 0.60942 0.8381 0.42284 0.0
C2489 C 0.60532 0.8579 0.41417 0.0
C2490 C 0.61838 0.87473 0.4198 0.0
C2491 C 0.63453 0.87196 0.43442 0.0
H2492 H 0.13784 0.64475 0.43834 0.0
H2493 H 0.20287 0.62711 0.44241 0.0
H2494 H 0.13174 0.6163 0.41338 0.0
H2495 H 0.19687 0.59912 0.41742 0.0
H2496 H 0.175 0.53576 0.39616 0.0
H2497 H 0.17873 0.56575 0.41902 0.0
H2498 H 0.13994 0.60242 0.3777 0.0
H2499 H 0.13592 0.572 0.35463 0.0
C2500 C 0.15089 0.63502 0.43369 0.0
C2501 C 0.17081 0.63809 0.44254 0.0
C2502 C 0.14739 0.61876 0.41936 0.0
C2503 C 0.16374 0.60521 0.41365 0.0
C2504 C 0.18381 0.60893 0.42183 0.0
C2505 C 0.18729 0.62511 0.43609 0.0
C2506 C 0.16713 0.55013 0.39188 0.0
C2507 C 0.15529 0.55145 0.37339 0.0
C2508 C 0.16941 0.56743 0.40498 0.0
C2509 C 0.15997 0.58663 0.40003 0.0
C2510 C 0.14743 0.58784 0.38196 0.0
C2511 C 0.14514 0.57042 0.36874 0.0
H2512 H 0.45026 0.13676 0.355 0.0
H2513 H 0.48568 0.17679 0.39635 0.0
H2514 H 0.42 0.13966 0.37832 0.0
H2515 H 0.45591 0.1793 0.41961 0.0
H2516 H 0.39455 0.20101 0.44447 0.0
H2517 H 0.42246 0.19622 0.41923 0.0
H2518 H 0.40606 0.13094 0.41324 0.0
H2519 H 0.37758 0.13589 0.43834 0.0
C2520 C 0.45169 0.14594 0.36915 0.0
C2521 C 0.47036 0.15671 0.37366 0.0
C2522 C 0.43436 0.14759 0.38253 0.0
C2523 C 0.43537 0.16003 0.40067 0.0
C2524 C 0.45433 0.17006 0.4055 0.0
C2525 C 0.47152 0.16848 0.39219 0.0
C2526 C 0.39671 0.18565 0.43765 0.0
C2527 C 0.38391 0.1688 0.44357 0.0
C2528 C 0.41286 0.18286 0.42327 0.0
C2529 C 0.41682 0.16309 0.41448 0.0
C2530 C 0.40345 0.14638 0.41968 0.0
C2531 C 0.38715 0.14921 0.43408 0.0
H2532 H 0.12826 0.46093 0.64783 0.0
H2533 H 0.19511 0.46916 0.64436 0.0
H2534 H 0.13061 0.43183 0.62291 0.0
H2535 H 0.1977 0.43976 0.6207 0.0
H2536 H 0.19531 0.40538 0.56004 0.0
H2537 H 0.19099 0.43255 0.58596 0.0
H2538 H 0.14157 0.3969 0.61523 0.0
H2539 H 0.14531 0.36991 0.58828 0.0
C2540 C 0.14345 0.45632 0.64197 0.0
C2541 C 0.16144 0.46755 0.64775 0.0
C2542 C 0.14485 0.43959 0.62777 0.0
C2543 C 0.16433 0.43359 0.61936 0.0
C2544 C 0.18233 0.44427 0.62613 0.0
C2545 C 0.18088 0.46112 0.63988 0.0
C2546 C 0.18356 0.40322 0.57203 0.0
C2547 C 0.17078 0.38536 0.57217 0.0
C2548 C 0.18114 0.41882 0.58707 0.0
C2549 C 0.16613 0.41691 0.60304 0.0
C2550 C 0.15321 0.39904 0.60315 0.0
C2551 C 0.15544 0.38348 0.58779 0.0
H2552 H 0.62474 0.20512 0.57589 0.0
H2553 H 0.64131 0.13988 0.58138 0.0
H2554 H 0.59674 0.20017 0.60103 0.0
H2555 H 0.61276 0.13477 0.60637 0.0
H2556 H 0.56875 0.13979 0.66462 0.0
H2557 H 0.59898 0.14308 0.64133 0.0
H2558 H 0.56316 0.18347 0.60077 0.0
H2559 H 0.53339 0.18057 0.624 0.0
C2560 C 0.62247 0.1897 0.58254 0.0
C2561 C 0.6352 0.17287 0.57648 0.0
C2562 C 0.60626 0.18682 0.59687 0.0
C2563 C 0.60219 0.16697 0.60548 0.0
C2564 C 0.61546 0.15027 0.60009 0.0
C2565 C 0.6318 0.15319 0.58574 0.0
C2566 C 0.56732 0.14924 0.65064 0.0
C2567 C 0.54866 0.16006 0.64632 0.0
C2568 C 0.58465 0.15111 0.63728 0.0
C2569 C 0.58366 0.16383 0.61932 0.0
C2570 C 0.56473 0.17399 0.61471 0.0
C2571 C 0.54754 0.17218 0.62801 0.0
H2572 H 0.48481 0.8394 0.62346 0.0
H2573 H 0.45054 0.88093 0.66419 0.0
H2574 H 0.45513 0.83772 0.59996 0.0
H2575 H 0.42036 0.87886 0.64062 0.0
H2576 H 0.37886 0.88422 0.5801 0.0
H2577 H 0.40719 0.88803 0.60561 0.0
H2578 H 0.42104 0.82218 0.59971 0.0
H2579 H 0.39329 0.81852 0.57404 0.0
C2580 C 0.47091 0.8482 0.62745 0.0
C2581 C 0.47006 0.86018 0.64585 0.0
C2582 C 0.45377 0.8471 0.61399 0.0
C2583 C 0.43516 0.85784 0.61854 0.0
C2584 C 0.43445 0.8704 0.63662 0.0
C2585 C 0.45173 0.87156 0.65014 0.0
C2586 C 0.38784 0.87054 0.58446 0.0
C2587 C 0.38395 0.85111 0.57487 0.0
C2588 C 0.40405 0.87271 0.59911 0.0
C2589 C 0.41667 0.85549 0.60447 0.0
C2590 C 0.41204 0.83591 0.59557 0.0
C2591 C 0.39598 0.83377 0.58093 0.0
loop_
_geom_bond_atom_site_label_1
_geom_bond_atom_site_label_2
_geom_bond_distance
_geom_bond_site_symmetry_2
_ccdc_geom_bond_type
O0 Cd1 2.223 . S
O0 C8 1.315 . S
Cd1 O0 2.223 . S
Cd1 O4 2.297 . S
Cd1 O5 2.439 . S
Cd1 O11 2.240 . S
Cd2 O3 2.240 . S
Cd2 O10 2.223 . S
Cd2 O12 2.297 . S
Cd2 O13 2.439 . S
O3 Cd2 2.240 . S
O3 C8 1.279 . S
O4 Cd1 2.297 . S
O4 C6 1.247 . S
O5 Cd1 2.439 . S
O5 C6 1.208 . S
C6 O4 1.247 . S
C6 O5 1.208 . S
C7 O12 1.247 . S
C7 O13 1.208 . S
C8 O0 1.315 . S
C8 O3 1.279 . S
C9 O10 1.315 . S
C9 O11 1.279 . S
O10 Cd2 2.223 . S
O10 C9 1.315 . S
O11 Cd1 2.240 . S
O11 C9 1.279 . S
O12 Cd2 2.297 . S
O12 C7 1.247 . S
O13 Cd2 2.439 . S
O13 C7 1.208 . S
O14 Cd15 2.223 . S
O14 C22 1.315 . S
Cd15 O14 2.223 . S
Cd15 O18 2.297 . S
Cd15 O19 2.439 . S
Cd15 O25 2.240 . S
Cd16 O17 2.240 . S
Cd16 O24 2.223 . S
Cd16 O26 2.297 . S
Cd16 O27 2.439 . S
O17 Cd16 2.240 . S
O17 C22 1.279 . S
O18 Cd15 2.297 . S
O18 C20 1.247 . S
O19 Cd15 2.439 . S
O19 C20 1.208 . S
C20 O18 1.247 . S
C20 O19 1.208 . S
C21 O26 1.247 . S
C21 O27 1.208 . S
C22 O14 1.315 . S
C22 O17 1.279 . S
C23 O24 1.315 . S
C23 O25 1.279 . S
O24 Cd16 2.223 . S
O24 C23 1.315 . S
O25 Cd15 2.240 . S
O25 C23 1.279 . S
O26 Cd16 2.297 . S
O26 C21 1.247 . S
O27 Cd16 2.439 . S
O27 C21 1.208 . S
O28 Cd29 2.223 . S
O28 C36 1.315 . S
Cd29 O28 2.223 . S
Cd29 O32 2.297 . S
Cd29 O33 2.439 . S
Cd29 O39 2.240 . S
Cd30 O31 2.240 . S
Cd30 O38 2.223 . S
Cd30 O40 2.297 . S
Cd30 O41 2.439 . S
O31 Cd30 2.240 . S
O31 C36 1.279 . S
O32 Cd29 2.297 . S
O32 C34 1.247 . S
O33 Cd29 2.439 . S
O33 C34 1.208 . S
C34 O32 1.247 . S
C34 O33 1.208 . S
C35 O40 1.247 . S
C35 O41 1.208 . S
C36 O28 1.315 . S
C36 O31 1.279 . S
C37 O38 1.315 . S
C37 O39 1.279 . S
O38 Cd30 2.223 . S
O38 C37 1.315 . S
O39 Cd29 2.240 . S
O39 C37 1.279 . S
O40 Cd30 2.297 . S
O40 C35 1.247 . S
O41 Cd30 2.439 . S
O41 C35 1.208 . S
O42 Cd43 2.223 . S
O42 C50 1.315 . S
Cd43 O42 2.223 . S
Cd43 O46 2.297 . S
Cd43 O47 2.439 . S
Cd43 O53 2.240 . S
Cd44 O45 2.240 . S
Cd44 O52 2.223 . S
Cd44 O54 2.297 . S
Cd44 O55 2.439 . S
O45 Cd44 2.240 . S
O45 C50 1.279 . S
O46 Cd43 2.297 . S
O46 C48 1.247 . S
O47 Cd43 2.439 . S
O47 C48 1.208 . S
C48 O46 1.247 . S
C48 O47 1.208 . S
C49 O54 1.247 . S
C49 O55 1.208 . S
C50 O42 1.315 . S
C50 O45 1.279 . S
C51 O52 1.315 . S
C51 O53 1.279 . S
O52 Cd44 2.223 . S
O52 C51 1.315 . S
O53 Cd43 2.240 . S
O53 C51 1.279 . S
O54 Cd44 2.297 . S
O54 C49 1.247 . S
O55 Cd44 2.439 . S
O55 C49 1.208 . S
O56 Cd57 2.223 . S
O56 C64 1.315 . S
Cd57 O56 2.223 . S
Cd57 O60 2.297 . S
Cd57 O61 2.439 . S
Cd57 O67 2.240 . S
Cd58 O59 2.240 . S
Cd58 O66 2.223 . S
Cd58 O68 2.297 . S
Cd58 O69 2.439 . S
O59 Cd58 2.240 . S
O59 C64 1.279 . S
O60 Cd57 2.297 . S
O60 C62 1.247 . S
O61 Cd57 2.439 . S
O61 C62 1.208 . S
C62 O60 1.247 . S
C62 O61 1.208 . S
C63 O68 1.247 . S
C63 O69 1.208 . S
C64 O56 1.315 . S
C64 O59 1.279 . S
C65 O66 1.315 . S
C65 O67 1.279 . S
O66 Cd58 2.223 . S
O66 C65 1.315 . S
O67 Cd57 2.240 . S
O67 C65 1.279 . S
O68 Cd58 2.297 . S
O68 C63 1.247 . S
O69 Cd58 2.439 . S
O69 C63 1.208 . S
O70 Cd71 2.223 . S
O70 C78 1.315 . S
Cd71 O70 2.223 . S
Cd71 O74 2.297 . S
Cd71 O75 2.439 . S
Cd71 O81 2.240 . S
Cd72 O73 2.240 . S
Cd72 O80 2.223 . S
Cd72 O82 2.297 . S
Cd72 O83 2.439 . S
O73 Cd72 2.240 . S
O73 C78 1.279 . S
O74 Cd71 2.297 . S
O74 C76 1.247 . S
O75 Cd71 2.439 . S
O75 C76 1.208 . S
C76 O74 1.247 . S
C76 O75 1.208 . S
C77 O82 1.247 . S
C77 O83 1.208 . S
C78 O70 1.315 . S
C78 O73 1.279 . S
C79 O80 1.315 . S
C79 O81 1.279 . S
O80 Cd72 2.223 . S
O80 C79 1.315 . S
O81 Cd71 2.240 . S
O81 C79 1.279 . S
O82 Cd72 2.297 . S
O82 C77 1.247 . S
O83 Cd72 2.439 . S
O83 C77 1.208 . S
O84 Cd85 2.223 . S
O84 C92 1.315 . S
Cd85 O84 2.223 . S
Cd85 O88 2.297 . S
Cd85 O89 2.439 . S
Cd85 O95 2.240 . S
Cd86 O87 2.240 . S
Cd86 O94 2.223 . S
Cd86 O96 2.297 . S
Cd86 O97 2.439 . S
O87 Cd86 2.240 . S
O87 C92 1.279 . S
O88 Cd85 2.297 . S
O88 C90 1.247 . S
O89 Cd85 2.439 . S
O89 C90 1.208 . S
C90 O88 1.247 . S
C90 O89 1.208 . S
C91 O96 1.247 . S
C91 O97 1.208 . S
C92 O84 1.315 . S
C92 O87 1.279 . S
C93 O94 1.315 . S
C93 O95 1.279 . S
O94 Cd86 2.223 . S
O94 C93 1.315 . S
O95 Cd85 2.240 . S
O95 C93 1.279 . S
O96 Cd86 2.297 . S
O96 C91 1.247 . S
O97 Cd86 2.439 . S
O97 C91 1.208 . S
O98 Cd99 2.223 . S
O98 C106 1.315 . S
Cd99 O98 2.223 . S
Cd99 O102 2.297 . S
Cd99 O103 2.439 . S
Cd99 O109 2.240 . S
Cd100 O101 2.240 . S
Cd100 O108 2.223 . S
Cd100 O110 2.297 . S
Cd100 O111 2.439 . S
O101 Cd100 2.240 . S
O101 C106 1.279 . S
O102 Cd99 2.297 . S
O102 C104 1.247 . S
O103 Cd99 2.439 . S
O103 C104 1.208 . S
C104 O102 1.247 . S
C104 O103 1.208 . S
C105 O110 1.247 . S
C105 O111 1.208 . S
C106 O98 1.315 . S
C106 O101 1.279 . S
C107 O108 1.315 . S
C107 O109 1.279 . S
O108 Cd100 2.223 . S
O108 C107 1.315 . S
O109 Cd99 2.240 . S
O109 C107 1.279 . S
O110 Cd100 2.297 . S
O110 C105 1.247 . S
O111 Cd100 2.439 . S
O111 C105 1.208 . S
O112 Cd113 2.223 . S
O112 C120 1.315 . S
Cd113 O112 2.223 . S
Cd113 O116 2.297 . S
Cd113 O117 2.439 . S
Cd113 O123 2.240 . S
Cd114 O115 2.240 . S
Cd114 O122 2.223 . S
Cd114 O124 2.297 . S
Cd114 O125 2.439 . S
O115 Cd114 2.240 . S
O115 C120 1.279 . S
O116 Cd113 2.297 . S
O116 C118 1.247 . S
O117 Cd113 2.439 . S
O117 C118 1.208 . S
C118 O116 1.247 . S
C118 O117 1.208 . S
C119 O124 1.247 . S
C119 O125 1.208 . S
C120 O112 1.315 . S
C120 O115 1.279 . S
C121 O122 1.315 . S
C121 O123 1.279 . S
O122 Cd114 2.223 . S
O122 C121 1.315 . S
O123 Cd113 2.240 . S
O123 C121 1.279 . S
O124 Cd114 2.297 . S
O124 C119 1.247 . S
O125 Cd114 2.439 . S
O125 C119 1.208 . S
O126 Cd127 2.223 . S
O126 C134 1.315 . S
Cd127 O126 2.223 . S
Cd127 O130 2.297 . S
Cd127 O131 2.439 . S
Cd127 O137 2.240 . S
Cd128 O129 2.240 . S
Cd128 O136 2.223 . S
Cd128 O138 2.297 . S
Cd128 O139 2.439 . S
O129 Cd128 2.240 . S
O129 C134 1.279 . S
O130 Cd127 2.297 . S
O130 C132 1.247 . S
O131 Cd127 2.439 . S
O131 C132 1.208 . S
C132 O130 1.247 . S
C132 O131 1.208 . S
C133 O138 1.247 . S
C133 O139 1.208 . S
C134 O126 1.315 . S
C134 O129 1.279 . S
C135 O136 1.315 . S
C135 O137 1.279 . S
O136 Cd128 2.223 . S
O136 C135 1.315 . S
O137 Cd127 2.240 . S
O137 C135 1.279 . S
O138 Cd128 2.297 . S
O138 C133 1.247 . S
O139 Cd128 2.439 . S
O139 C133 1.208 . S
O140 Cd141 2.223 . S
O140 C148 1.315 . S
Cd141 O140 2.223 . S
Cd141 O144 2.297 . S
Cd141 O145 2.439 . S
Cd141 O151 2.240 . S
Cd142 O143 2.240 . S
Cd142 O150 2.223 . S
Cd142 O152 2.297 . S
Cd142 O153 2.439 . S
O143 Cd142 2.240 . S
O143 C148 1.279 . S
O144 Cd141 2.297 . S
O144 C146 1.247 . S
O145 Cd141 2.439 . S
O145 C146 1.208 . S
C146 O144 1.247 . S
C146 O145 1.208 . S
C147 O152 1.247 . S
C147 O153 1.208 . S
C148 O140 1.315 . S
C148 O143 1.279 . S
C149 O150 1.315 . S
C149 O151 1.279 . S
O150 Cd142 2.223 . S
O150 C149 1.315 . S
O151 Cd141 2.240 . S
O151 C149 1.279 . S
O152 Cd142 2.297 . S
O152 C147 1.247 . S
O153 Cd142 2.439 . S
O153 C147 1.208 . S
O154 Cd155 2.223 . S
O154 C162 1.315 . S
Cd155 O154 2.223 . S
Cd155 O158 2.297 . S
Cd155 O159 2.439 . S
Cd155 O165 2.240 . S
Cd156 O157 2.240 . S
Cd156 O164 2.223 . S
Cd156 O166 2.297 . S
Cd156 O167 2.439 . S
O157 Cd156 2.240 . S
O157 C162 1.279 . S
O158 Cd155 2.297 . S
O158 C160 1.247 . S
O159 Cd155 2.439 . S
O159 C160 1.208 . S
C160 O158 1.247 . S
C160 O159 1.208 . S
C161 O166 1.247 . S
C161 O167 1.208 . S
C162 O154 1.315 . S
C162 O157 1.279 . S
C163 O164 1.315 . S
C163 O165 1.279 . S
O164 Cd156 2.223 . S
O164 C163 1.315 . S
O165 Cd155 2.240 . S
O165 C163 1.279 . S
O166 Cd156 2.297 . S
O166 C161 1.247 . S
O167 Cd156 2.439 . S
O167 C161 1.208 . S
O168 Cd169 2.223 . S
O168 C176 1.315 . S
Cd169 O168 2.223 . S
Cd169 O172 2.297 . S
Cd169 O173 2.439 . S
Cd169 O179 2.240 . S
Cd170 O171 2.240 . S
Cd170 O178 2.223 . S
Cd170 O180 2.297 . S
Cd170 O181 2.439 . S
O171 Cd170 2.240 . S
O171 C176 1.279 . S
O172 Cd169 2.297 . S
O172 C174 1.247 . S
O173 Cd169 2.439 . S
O173 C174 1.208 . S
C174 O172 1.247 . S
C174 O173 1.208 . S
C175 O180 1.247 . S
C175 O181 1.208 . S
C176 O168 1.315 . S
C176 O171 1.279 . S
C177 O178 1.315 . S
C177 O179 1.279 . S
O178 Cd170 2.223 . S
O178 C177 1.315 . S
O179 Cd169 2.240 . S
O179 C177 1.279 . S
O180 Cd170 2.297 . S
O180 C175 1.247 . S
O181 Cd170 2.439 . S
O181 C175 1.208 . S
O182 Cd183 2.223 . S
O182 C190 1.315 . S
Cd183 O182 2.223 . S
Cd183 O186 2.297 . S
Cd183 O187 2.439 . S
Cd183 O193 2.240 . S
Cd184 O185 2.240 . S
Cd184 O192 2.223 . S
Cd184 O194 2.297 . S
Cd184 O195 2.439 . S
O185 Cd184 2.240 . S
O185 C190 1.279 . S
O186 Cd183 2.297 . S
O186 C188 1.247 . S
O187 Cd183 2.439 . S
O187 C188 1.208 . S
C188 O186 1.247 . S
C188 O187 1.208 . S
C189 O194 1.247 . S
C189 O195 1.208 . S
C190 O182 1.315 . S
C190 O185 1.279 . S
C191 O192 1.315 . S
C191 O193 1.279 . S
O192 Cd184 2.223 . S
O192 C191 1.315 . S
O193 Cd183 2.240 . S
O193 C191 1.279 . S
O194 Cd184 2.297 . S
O194 C189 1.247 . S
O195 Cd184 2.439 . S
O195 C189 1.208 . S
O196 Cd197 2.223 . S
O196 C204 1.315 . S
Cd197 O196 2.223 . S
Cd197 O200 2.297 . S
Cd197 O201 2.439 . S
Cd197 O207 2.240 . S
Cd198 O199 2.240 . S
Cd198 O206 2.223 . S
Cd198 O208 2.297 . S
Cd198 O209 2.439 . S
O199 Cd198 2.240 . S
O199 C204 1.279 . S
O200 Cd197 2.297 . S
O200 C202 1.247 . S
O201 Cd197 2.439 . S
O201 C202 1.208 . S
C202 O200 1.247 . S
C202 O201 1.208 . S
C203 O208 1.247 . S
C203 O209 1.208 . S
C204 O196 1.315 . S
C204 O199 1.279 . S
C205 O206 1.315 . S
C205 O207 1.279 . S
O206 Cd198 2.223 . S
O206 C205 1.315 . S
O207 Cd197 2.240 . S
O207 C205 1.279 . S
O208 Cd198 2.297 . S
O208 C203 1.247 . S
O209 Cd198 2.439 . S
O209 C203 1.208 . S
O210 Cd211 2.223 . S
O210 C218 1.315 . S
Cd211 O210 2.223 . S
Cd211 O214 2.297 . S
Cd211 O215 2.439 . S
Cd211 O221 2.240 . S
Cd212 O213 2.240 . S
Cd212 O220 2.223 . S
Cd212 O222 2.297 . S
Cd212 O223 2.439 . S
O213 Cd212 2.240 . S
O213 C218 1.279 . S
O214 Cd211 2.297 . S
O214 C216 1.247 . S
O215 Cd211 2.439 . S
O215 C216 1.208 . S
C216 O214 1.247 . S
C216 O215 1.208 . S
C217 O222 1.247 . S
C217 O223 1.208 . S
C218 O210 1.315 . S
C218 O213 1.279 . S
C219 O220 1.315 . S
C219 O221 1.279 . S
O220 Cd212 2.223 . S
O220 C219 1.315 . S
O221 Cd211 2.240 . S
O221 C219 1.279 . S
O222 Cd212 2.297 . S
O222 C217 1.247 . S
O223 Cd212 2.439 . S
O223 C217 1.208 . S
O224 Cd225 2.223 . S
O224 C232 1.315 . S
Cd225 O224 2.223 . S
Cd225 O228 2.297 . S
Cd225 O229 2.439 . S
Cd225 O235 2.240 . S
Cd226 O227 2.240 . S
Cd226 O234 2.223 . S
Cd226 O236 2.297 . S
Cd226 O237 2.439 . S
O227 Cd226 2.240 . S
O227 C232 1.279 . S
O228 Cd225 2.297 . S
O228 C230 1.247 . S
O229 Cd225 2.439 . S
O229 C230 1.208 . S
C230 O228 1.247 . S
C230 O229 1.208 . S
C231 O236 1.247 . S
C231 O237 1.208 . S
C232 O224 1.315 . S
C232 O227 1.279 . S
C233 O234 1.315 . S
C233 O235 1.279 . S
O234 Cd226 2.223 . S
O234 C233 1.315 . S
O235 Cd225 2.240 . S
O235 C233 1.279 . S
O236 Cd226 2.297 . S
O236 C231 1.247 . S
O237 Cd226 2.439 . S
O237 C231 1.208 . S
O238 Cd239 2.223 . S
O238 C246 1.315 . S
Cd239 O238 2.223 . S
Cd239 O242 2.297 . S
Cd239 O243 2.439 . S
Cd239 O249 2.240 . S
Cd240 O241 2.240 . S
Cd240 O248 2.223 . S
Cd240 O250 2.297 . S
Cd240 O251 2.439 . S
O241 Cd240 2.240 . S
O241 C246 1.279 . S
O242 Cd239 2.297 . S
O242 C244 1.247 . S
O243 Cd239 2.439 . S
O243 C244 1.208 . S
C244 O242 1.247 . S
C244 O243 1.208 . S
C245 O250 1.247 . S
C245 O251 1.208 . S
C246 O238 1.315 . S
C246 O241 1.279 . S
C247 O248 1.315 . S
C247 O249 1.279 . S
O248 Cd240 2.223 . S
O248 C247 1.315 . S
O249 Cd239 2.240 . S
O249 C247 1.279 . S
O250 Cd240 2.297 . S
O250 C245 1.247 . S
O251 Cd240 2.439 . S
O251 C245 1.208 . S
O252 Cd253 2.223 . S
O252 C260 1.315 . S
Cd253 O252 2.223 . S
Cd253 O256 2.297 . S
Cd253 O257 2.439 . S
Cd253 O263 2.240 . S
Cd254 O255 2.240 . S
Cd254 O262 2.223 . S
Cd254 O264 2.297 . S
Cd254 O265 2.439 . S
O255 Cd254 2.240 . S
O255 C260 1.279 . S
O256 Cd253 2.297 . S
O256 C258 1.247 . S
O257 Cd253 2.439 . S
O257 C258 1.208 . S
C258 O256 1.247 . S
C258 O257 1.208 . S
C259 O264 1.247 . S
C259 O265 1.208 . S
C260 O252 1.315 . S
C260 O255 1.279 . S
C261 O262 1.315 . S
C261 O263 1.279 . S
O262 Cd254 2.223 . S
O262 C261 1.315 . S
O263 Cd253 2.240 . S
O263 C261 1.279 . S
O264 Cd254 2.297 . S
O264 C259 1.247 . S
O265 Cd254 2.439 . S
O265 C259 1.208 . S
O266 Cd267 2.223 . S
O266 C274 1.315 . S
Cd267 O266 2.223 . S
Cd267 O270 2.297 . S
Cd267 O271 2.439 . S
Cd267 O277 2.240 . S
Cd268 O269 2.240 . S
Cd268 O276 2.223 . S
Cd268 O278 2.297 . S
Cd268 O279 2.439 . S
O269 Cd268 2.240 . S
O269 C274 1.279 . S
O270 Cd267 2.297 . S
O270 C272 1.247 . S
O271 Cd267 2.439 . S
O271 C272 1.208 . S
C272 O270 1.247 . S
C272 O271 1.208 . S
C273 O278 1.247 . S
C273 O279 1.208 . S
C274 O266 1.315 . S
C274 O269 1.279 . S
C275 O276 1.315 . S
C275 O277 1.279 . S
O276 Cd268 2.223 . S
O276 C275 1.315 . S
O277 Cd267 2.240 . S
O277 C275 1.279 . S
O278 Cd268 2.297 . S
O278 C273 1.247 . S
O279 Cd268 2.439 . S
O279 C273 1.208 . S
O280 Cd281 2.223 . S
O280 C288 1.315 . S
Cd281 O280 2.223 . S
Cd281 O284 2.297 . S
Cd281 O285 2.439 . S
Cd281 O291 2.240 . S
Cd282 O283 2.240 . S
Cd282 O290 2.223 . S
Cd282 O292 2.297 . S
Cd282 O293 2.439 . S
O283 Cd282 2.240 . S
O283 C288 1.279 . S
O284 Cd281 2.297 . S
O284 C286 1.247 . S
O285 Cd281 2.439 . S
O285 C286 1.208 . S
C286 O284 1.247 . S
C286 O285 1.208 . S
C287 O292 1.247 . S
C287 O293 1.208 . S
C288 O280 1.315 . S
C288 O283 1.279 . S
C289 O290 1.315 . S
C289 O291 1.279 . S
O290 Cd282 2.223 . S
O290 C289 1.315 . S
O291 Cd281 2.240 . S
O291 C289 1.279 . S
O292 Cd282 2.297 . S
O292 C287 1.247 . S
O293 Cd282 2.439 . S
O293 C287 1.208 . S
O294 Cd295 2.223 . S
O294 C302 1.315 . S
Cd295 O294 2.223 . S
Cd295 O298 2.297 . S
Cd295 O299 2.439 . S
Cd295 O305 2.240 . S
Cd296 O297 2.240 . S
Cd296 O304 2.223 . S
Cd296 O306 2.297 . S
Cd296 O307 2.439 . S
O297 Cd296 2.240 . S
O297 C302 1.279 . S
O298 Cd295 2.297 . S
O298 C300 1.247 . S
O299 Cd295 2.439 . S
O299 C300 1.208 . S
C300 O298 1.247 . S
C300 O299 1.208 . S
C301 O306 1.247 . S
C301 O307 1.208 . S
C302 O294 1.315 . S
C302 O297 1.279 . S
C303 O304 1.315 . S
C303 O305 1.279 . S
O304 Cd296 2.223 . S
O304 C303 1.315 . S
O305 Cd295 2.240 . S
O305 C303 1.279 . S
O306 Cd296 2.297 . S
O306 C301 1.247 . S
O307 Cd296 2.439 . S
O307 C301 1.208 . S
O308 Cd309 2.223 . S
O308 C316 1.315 . S
Cd309 O308 2.223 . S
Cd309 O312 2.297 . S
Cd309 O313 2.439 . S
Cd309 O319 2.240 . S
Cd310 O311 2.240 . S
Cd310 O318 2.223 . S
Cd310 O320 2.297 . S
Cd310 O321 2.439 . S
O311 Cd310 2.240 . S
O311 C316 1.279 . S
O312 Cd309 2.297 . S
O312 C314 1.247 . S
O313 Cd309 2.439 . S
O313 C314 1.208 . S
C314 O312 1.247 . S
C314 O313 1.208 . S
C315 O320 1.247 . S
C315 O321 1.208 . S
C316 O308 1.315 . S
C316 O311 1.279 . S
C317 O318 1.315 . S
C317 O319 1.279 . S
O318 Cd310 2.223 . S
O318 C317 1.315 . S
O319 Cd309 2.240 . S
O319 C317 1.279 . S
O320 Cd310 2.297 . S
O320 C315 1.247 . S
O321 Cd310 2.439 . S
O321 C315 1.208 . S
O322 Cd323 2.223 . S
O322 C330 1.315 . S
Cd323 O322 2.223 . S
Cd323 O326 2.297 . S
Cd323 O327 2.439 . S
Cd323 O333 2.240 . S
Cd324 O325 2.240 . S
Cd324 O332 2.223 . S
Cd324 O334 2.297 . S
Cd324 O335 2.439 . S
O325 Cd324 2.240 . S
O325 C330 1.279 . S
O326 Cd323 2.297 . S
O326 C328 1.247 . S
O327 Cd323 2.439 . S
O327 C328 1.208 . S
C328 O326 1.247 . S
C328 O327 1.208 . S
C329 O334 1.247 . S
C329 O335 1.208 . S
C330 O322 1.315 . S
C330 O325 1.279 . S
C331 O332 1.315 . S
C331 O333 1.279 . S
O332 Cd324 2.223 . S
O332 C331 1.315 . S
O333 Cd323 2.240 . S
O333 C331 1.279 . S
O334 Cd324 2.297 . S
O334 C329 1.247 . S
O335 Cd324 2.439 . S
O335 C329 1.208 . S
O336 Cd337 2.223 . S
O336 C344 1.315 . S
Cd337 O336 2.223 . S
Cd337 O340 2.297 . S
Cd337 O341 2.439 . S
Cd337 O347 2.240 . S
Cd338 O339 2.240 . S
Cd338 O346 2.223 . S
Cd338 O348 2.297 . S
Cd338 O349 2.439 . S
O339 Cd338 2.240 . S
O339 C344 1.279 . S
O340 Cd337 2.297 . S
O340 C342 1.247 . S
O341 Cd337 2.439 . S
O341 C342 1.208 . S
C342 O340 1.247 . S
C342 O341 1.208 . S
C343 O348 1.247 . S
C343 O349 1.208 . S
C344 O336 1.315 . S
C344 O339 1.279 . S
C345 O346 1.315 . S
C345 O347 1.279 . S
O346 Cd338 2.223 . S
O346 C345 1.315 . S
O347 Cd337 2.240 . S
O347 C345 1.279 . S
O348 Cd338 2.297 . S
O348 C343 1.247 . S
O349 Cd338 2.439 . S
O349 C343 1.208 . S
O350 Cd351 2.223 . S
O350 C358 1.315 . S
Cd351 O350 2.223 . S
Cd351 O354 2.297 . S
Cd351 O355 2.439 . S
Cd351 O361 2.240 . S
Cd352 O353 2.240 . S
Cd352 O360 2.223 . S
Cd352 O362 2.297 . S
Cd352 O363 2.439 . S
O353 Cd352 2.240 . S
O353 C358 1.279 . S
O354 Cd351 2.297 . S
O354 C356 1.247 . S
O355 Cd351 2.439 . S
O355 C356 1.208 . S
C356 O354 1.247 . S
C356 O355 1.208 . S
C357 O362 1.247 . S
C357 O363 1.208 . S
C358 O350 1.315 . S
C358 O353 1.279 . S
C359 O360 1.315 . S
C359 O361 1.279 . S
O360 Cd352 2.223 . S
O360 C359 1.315 . S
O361 Cd351 2.240 . S
O361 C359 1.279 . S
O362 Cd352 2.297 . S
O362 C357 1.247 . S
O363 Cd352 2.439 . S
O363 C357 1.208 . S
O364 Cd365 2.223 . S
O364 C372 1.315 . S
Cd365 O364 2.223 . S
Cd365 O368 2.297 . S
Cd365 O369 2.439 . S
Cd365 O375 2.240 . S
Cd366 O367 2.240 . S
Cd366 O374 2.223 . S
Cd366 O376 2.297 . S
Cd366 O377 2.439 . S
O367 Cd366 2.240 . S
O367 C372 1.279 . S
O368 Cd365 2.297 . S
O368 C370 1.247 . S
O369 Cd365 2.439 . S
O369 C370 1.208 . S
C370 O368 1.247 . S
C370 O369 1.208 . S
C371 O376 1.247 . S
C371 O377 1.208 . S
C372 O364 1.315 . S
C372 O367 1.279 . S
C373 O374 1.315 . S
C373 O375 1.279 . S
O374 Cd366 2.223 . S
O374 C373 1.315 . S
O375 Cd365 2.240 . S
O375 C373 1.279 . S
O376 Cd366 2.297 . S
O376 C371 1.247 . S
O377 Cd366 2.439 . S
O377 C371 1.208 . S
O378 Cd379 2.223 . S
O378 C386 1.315 . S
Cd379 O378 2.223 . S
Cd379 O382 2.297 . S
Cd379 O383 2.439 . S
Cd379 O389 2.240 . S
Cd380 O381 2.240 . S
Cd380 O388 2.223 . S
Cd380 O390 2.297 . S
Cd380 O391 2.439 . S
O381 Cd380 2.240 . S
O381 C386 1.279 . S
O382 Cd379 2.297 . S
O382 C384 1.247 . S
O383 Cd379 2.439 . S
O383 C384 1.208 . S
C384 O382 1.247 . S
C384 O383 1.208 . S
C385 O390 1.247 . S
C385 O391 1.208 . S
C386 O378 1.315 . S
C386 O381 1.279 . S
C387 O388 1.315 . S
C387 O389 1.279 . S
O388 Cd380 2.223 . S
O388 C387 1.315 . S
O389 Cd379 2.240 . S
O389 C387 1.279 . S
O390 Cd380 2.297 . S
O390 C385 1.247 . S
O391 Cd380 2.439 . S
O391 C385 1.208 . S
O392 Cd393 2.223 . S
O392 C400 1.315 . S
Cd393 O392 2.223 . S
Cd393 O396 2.297 . S
Cd393 O397 2.439 . S
Cd393 O403 2.240 . S
Cd394 O395 2.240 . S
Cd394 O402 2.223 . S
Cd394 O404 2.297 . S
Cd394 O405 2.439 . S
O395 Cd394 2.240 . S
O395 C400 1.279 . S
O396 Cd393 2.297 . S
O396 C398 1.247 . S
O397 Cd393 2.439 . S
O397 C398 1.208 . S
C398 O396 1.247 . S
C398 O397 1.208 . S
C399 O404 1.247 . S
C399 O405 1.208 . S
C400 O392 1.315 . S
C400 O395 1.279 . S
C401 O402 1.315 . S
C401 O403 1.279 . S
O402 Cd394 2.223 . S
O402 C401 1.315 . S
O403 Cd393 2.240 . S
O403 C401 1.279 . S
O404 Cd394 2.297 . S
O404 C399 1.247 . S
O405 Cd394 2.439 . S
O405 C399 1.208 . S
O406 Cd407 2.223 . S
O406 C414 1.315 . S
Cd407 O406 2.223 . S
Cd407 O410 2.297 . S
Cd407 O411 2.439 . S
Cd407 O417 2.240 . S
Cd408 O409 2.240 . S
Cd408 O416 2.223 . S
Cd408 O418 2.297 . S
Cd408 O419 2.439 . S
O409 Cd408 2.240 . S
O409 C414 1.279 . S
O410 Cd407 2.297 . S
O410 C412 1.247 . S
O411 Cd407 2.439 . S
O411 C412 1.208 . S
C412 O410 1.247 . S
C412 O411 1.208 . S
C413 O418 1.247 . S
C413 O419 1.208 . S
C414 O406 1.315 . S
C414 O409 1.279 . S
C415 O416 1.315 . S
C415 O417 1.279 . S
O416 Cd408 2.223 . S
O416 C415 1.315 . S
O417 Cd407 2.240 . S
O417 C415 1.279 . S
O418 Cd408 2.297 . S
O418 C413 1.247 . S
O419 Cd408 2.439 . S
O419 C413 1.208 . S
O420 Cd421 2.223 . S
O420 C428 1.315 . S
Cd421 O420 2.223 . S
Cd421 O424 2.297 . S
Cd421 O425 2.439 . S
Cd421 O431 2.240 . S
Cd422 O423 2.240 . S
Cd422 O430 2.223 . S
Cd422 O432 2.297 . S
Cd422 O433 2.439 . S
O423 Cd422 2.240 . S
O423 C428 1.279 . S
O424 Cd421 2.297 . S
O424 C426 1.247 . S
O425 Cd421 2.439 . S
O425 C426 1.208 . S
C426 O424 1.247 . S
C426 O425 1.208 . S
C427 O432 1.247 . S
C427 O433 1.208 . S
C428 O420 1.315 . S
C428 O423 1.279 . S
C429 O430 1.315 . S
C429 O431 1.279 . S
O430 Cd422 2.223 . S
O430 C429 1.315 . S
O431 Cd421 2.240 . S
O431 C429 1.279 . S
O432 Cd422 2.297 . S
O432 C427 1.247 . S
O433 Cd422 2.439 . S
O433 C427 1.208 . S
O434 Cd435 2.223 . S
O434 C442 1.315 . S
Cd435 O434 2.223 . S
Cd435 O438 2.297 . S
Cd435 O439 2.439 . S
Cd435 O445 2.240 . S
Cd436 O437 2.240 . S
Cd436 O444 2.223 . S
Cd436 O446 2.297 . S
Cd436 O447 2.439 . S
O437 Cd436 2.240 . S
O437 C442 1.279 . S
O438 Cd435 2.297 . S
O438 C440 1.247 . S
O439 Cd435 2.439 . S
O439 C440 1.208 . S
C440 O438 1.247 . S
C440 O439 1.208 . S
C441 O446 1.247 . S
C441 O447 1.208 . S
C442 O434 1.315 . S
C442 O437 1.279 . S
C443 O444 1.315 . S
C443 O445 1.279 . S
O444 Cd436 2.223 . S
O444 C443 1.315 . S
O445 Cd435 2.240 . S
O445 C443 1.279 . S
O446 Cd436 2.297 . S
O446 C441 1.247 . S
O447 Cd436 2.439 . S
O447 C441 1.208 . S
O448 Cd449 2.223 . S
O448 C456 1.315 . S
Cd449 O448 2.223 . S
Cd449 O452 2.297 . S
Cd449 O453 2.439 . S
Cd449 O459 2.240 . S
Cd450 O451 2.240 . S
Cd450 O458 2.223 . S
Cd450 O460 2.297 . S
Cd450 O461 2.439 . S
O451 Cd450 2.240 . S
O451 C456 1.279 . S
O452 Cd449 2.297 . S
O452 C454 1.247 . S
O453 Cd449 2.439 . S
O453 C454 1.208 . S
C454 O452 1.247 . S
C454 O453 1.208 . S
C455 O460 1.247 . S
C455 O461 1.208 . S
C456 O448 1.315 . S
C456 O451 1.279 . S
C457 O458 1.315 . S
C457 O459 1.279 . S
O458 Cd450 2.223 . S
O458 C457 1.315 . S
O459 Cd449 2.240 . S
O459 C457 1.279 . S
O460 Cd450 2.297 . S
O460 C455 1.247 . S
O461 Cd450 2.439 . S
O461 C455 1.208 . S
O462 Cd463 2.223 . S
O462 C470 1.315 . S
Cd463 O462 2.223 . S
Cd463 O466 2.297 . S
Cd463 O467 2.439 . S
Cd463 O473 2.240 . S
Cd464 O465 2.240 . S
Cd464 O472 2.223 . S
Cd464 O474 2.297 . S
Cd464 O475 2.439 . S
O465 Cd464 2.240 . S
O465 C470 1.279 . S
O466 Cd463 2.297 . S
O466 C468 1.247 . S
O467 Cd463 2.439 . S
O467 C468 1.208 . S
C468 O466 1.247 . S
C468 O467 1.208 . S
C469 O474 1.247 . S
C469 O475 1.208 . S
C470 O462 1.315 . S
C470 O465 1.279 . S
C471 O472 1.315 . S
C471 O473 1.279 . S
O472 Cd464 2.223 . S
O472 C471 1.315 . S
O473 Cd463 2.240 . S
O473 C471 1.279 . S
O474 Cd464 2.297 . S
O474 C469 1.247 . S
O475 Cd464 2.439 . S
O475 C469 1.208 . S
O476 Cd477 2.223 . S
O476 C484 1.315 . S
Cd477 O476 2.223 . S
Cd477 O480 2.297 . S
Cd477 O481 2.439 . S
Cd477 O487 2.240 . S
Cd478 O479 2.240 . S
Cd478 O486 2.223 . S
Cd478 O488 2.297 . S
Cd478 O489 2.439 . S
O479 Cd478 2.240 . S
O479 C484 1.279 . S
O480 Cd477 2.297 . S
O480 C482 1.247 . S
O481 Cd477 2.439 . S
O481 C482 1.208 . S
C482 O480 1.247 . S
C482 O481 1.208 . S
C483 O488 1.247 . S
C483 O489 1.208 . S
C484 O476 1.315 . S
C484 O479 1.279 . S
C485 O486 1.315 . S
C485 O487 1.279 . S
O486 Cd478 2.223 . S
O486 C485 1.315 . S
O487 Cd477 2.240 . S
O487 C485 1.279 . S
O488 Cd478 2.297 . S
O488 C483 1.247 . S
O489 Cd478 2.439 . S
O489 C483 1.208 . S
O490 Cd491 2.223 . S
O490 C498 1.315 . S
Cd491 O490 2.223 . S
Cd491 O494 2.297 . S
Cd491 O495 2.439 . S
Cd491 O501 2.240 . S
Cd492 O493 2.240 . S
Cd492 O500 2.223 . S
Cd492 O502 2.297 . S
Cd492 O503 2.439 . S
O493 Cd492 2.240 . S
O493 C498 1.279 . S
O494 Cd491 2.297 . S
O494 C496 1.247 . S
O495 Cd491 2.439 . S
O495 C496 1.208 . S
C496 O494 1.247 . S
C496 O495 1.208 . S
C497 O502 1.247 . S
C497 O503 1.208 . S
C498 O490 1.315 . S
C498 O493 1.279 . S
C499 O500 1.315 . S
C499 O501 1.279 . S
O500 Cd492 2.223 . S
O500 C499 1.315 . S
O501 Cd491 2.240 . S
O501 C499 1.279 . S
O502 Cd492 2.297 . S
O502 C497 1.247 . S
O503 Cd492 2.439 . S
O503 C497 1.208 . S
O504 Cd505 2.223 . S
O504 C512 1.315 . S
Cd505 O504 2.223 . S
Cd505 O508 2.297 . S
Cd505 O509 2.439 . S
Cd505 O515 2.240 . S
Cd506 O507 2.240 . S
Cd506 O514 2.223 . S
Cd506 O516 2.297 . S
Cd506 O517 2.439 . S
O507 Cd506 2.240 . S
O507 C512 1.279 . S
O508 Cd505 2.297 . S
O508 C510 1.247 . S
O509 Cd505 2.439 . S
O509 C510 1.208 . S
C510 O508 1.247 . S
C510 O509 1.208 . S
C511 O516 1.247 . S
C511 O517 1.208 . S
C512 O504 1.315 . S
C512 O507 1.279 . S
C513 O514 1.315 . S
C513 O515 1.279 . S
O514 Cd506 2.223 . S
O514 C513 1.315 . S
O515 Cd505 2.240 . S
O515 C513 1.279 . S
O516 Cd506 2.297 . S
O516 C511 1.247 . S
O517 Cd506 2.439 . S
O517 C511 1.208 . S
O518 Cd519 2.223 . S
O518 C526 1.315 . S
Cd519 O518 2.223 . S
Cd519 O522 2.297 . S
Cd519 O523 2.439 . S
Cd519 O529 2.240 . S
Cd520 O521 2.240 . S
Cd520 O528 2.223 . S
Cd520 O530 2.297 . S
Cd520 O531 2.439 . S
O521 Cd520 2.240 . S
O521 C526 1.279 . S
O522 Cd519 2.297 . S
O522 C524 1.247 . S
O523 Cd519 2.439 . S
O523 C524 1.208 . S
C524 O522 1.247 . S
C524 O523 1.208 . S
C525 O530 1.247 . S
C525 O531 1.208 . S
C526 O518 1.315 . S
C526 O521 1.279 . S
C527 O528 1.315 . S
C527 O529 1.279 . S
O528 Cd520 2.223 . S
O528 C527 1.315 . S
O529 Cd519 2.240 . S
O529 C527 1.279 . S
O530 Cd520 2.297 . S
O530 C525 1.247 . S
O531 Cd520 2.439 . S
O531 C525 1.208 . S
O532 Cd533 2.223 . S
O532 C540 1.315 . S
Cd533 O532 2.223 . S
Cd533 O536 2.297 . S
Cd533 O537 2.439 . S
Cd533 O543 2.240 . S
Cd534 O535 2.240 . S
Cd534 O542 2.223 . S
Cd534 O544 2.297 . S
Cd534 O545 2.439 . S
O535 Cd534 2.240 . S
O535 C540 1.279 . S
O536 Cd533 2.297 . S
O536 C538 1.247 . S
O537 Cd533 2.439 . S
O537 C538 1.208 . S
C538 O536 1.247 . S
C538 O537 1.208 . S
C539 O544 1.247 . S
C539 O545 1.208 . S
C540 O532 1.315 . S
C540 O535 1.279 . S
C541 O542 1.315 . S
C541 O543 1.279 . S
O542 Cd534 2.223 . S
O542 C541 1.315 . S
O543 Cd533 2.240 . S
O543 C541 1.279 . S
O544 Cd534 2.297 . S
O544 C539 1.247 . S
O545 Cd534 2.439 . S
O545 C539 1.208 . S
O546 Cd547 2.223 . S
O546 C554 1.315 . S
Cd547 O546 2.223 . S
Cd547 O550 2.297 . S
Cd547 O551 2.439 . S
Cd547 O557 2.240 . S
Cd548 O549 2.240 . S
Cd548 O556 2.223 . S
Cd548 O558 2.297 . S
Cd548 O559 2.439 . S
O549 Cd548 2.240 . S
O549 C554 1.279 . S
O550 Cd547 2.297 . S
O550 C552 1.247 . S
O551 Cd547 2.439 . S
O551 C552 1.208 . S
C552 O550 1.247 . S
C552 O551 1.208 . S
C553 O558 1.247 . S
C553 O559 1.208 . S
C554 O546 1.315 . S
C554 O549 1.279 . S
C555 O556 1.315 . S
C555 O557 1.279 . S
O556 Cd548 2.223 . S
O556 C555 1.315 . S
O557 Cd547 2.240 . S
O557 C555 1.279 . S
O558 Cd548 2.297 . S
O558 C553 1.247 . S
O559 Cd548 2.439 . S
O559 C553 1.208 . S
O560 Cd561 2.223 . S
O560 C568 1.315 . S
Cd561 O560 2.223 . S
Cd561 O564 2.297 . S
Cd561 O565 2.439 . S
Cd561 O571 2.240 . S
Cd562 O563 2.240 . S
Cd562 O570 2.223 . S
Cd562 O572 2.297 . S
Cd562 O573 2.439 . S
O563 Cd562 2.240 . S
O563 C568 1.279 . S
O564 Cd561 2.297 . S
O564 C566 1.247 . S
O565 Cd561 2.439 . S
O565 C566 1.208 . S
C566 O564 1.247 . S
C566 O565 1.208 . S
C567 O572 1.247 . S
C567 O573 1.208 . S
C568 O560 1.315 . S
C568 O563 1.279 . S
C569 O570 1.315 . S
C569 O571 1.279 . S
O570 Cd562 2.223 . S
O570 C569 1.315 . S
O571 Cd561 2.240 . S
O571 C569 1.279 . S
O572 Cd562 2.297 . S
O572 C567 1.247 . S
O573 Cd562 2.439 . S
O573 C567 1.208 . S
O574 Cd575 2.223 . S
O574 C582 1.315 . S
Cd575 O574 2.223 . S
Cd575 O578 2.297 . S
Cd575 O579 2.439 . S
Cd575 O585 2.240 . S
Cd576 O577 2.240 . S
Cd576 O584 2.223 . S
Cd576 O586 2.297 . S
Cd576 O587 2.439 . S
O577 Cd576 2.240 . S
O577 C582 1.279 . S
O578 Cd575 2.297 . S
O578 C580 1.247 . S
O579 Cd575 2.439 . S
O579 C580 1.208 . S
C580 O578 1.247 . S
C580 O579 1.208 . S
C581 O586 1.247 . S
C581 O587 1.208 . S
C582 O574 1.315 . S
C582 O577 1.279 . S
C583 O584 1.315 . S
C583 O585 1.279 . S
O584 Cd576 2.223 . S
O584 C583 1.315 . S
O585 Cd575 2.240 . S
O585 C583 1.279 . S
O586 Cd576 2.297 . S
O586 C581 1.247 . S
O587 Cd576 2.439 . S
O587 C581 1.208 . S
O588 Cd589 2.223 . S
O588 C596 1.315 . S
Cd589 O588 2.223 . S
Cd589 O592 2.297 . S
Cd589 O593 2.439 . S
Cd589 O599 2.240 . S
Cd590 O591 2.240 . S
Cd590 O598 2.223 . S
Cd590 O600 2.297 . S
Cd590 O601 2.439 . S
O591 Cd590 2.240 . S
O591 C596 1.279 . S
O592 Cd589 2.297 . S
O592 C594 1.247 . S
O593 Cd589 2.439 . S
O593 C594 1.208 . S
C594 O592 1.247 . S
C594 O593 1.208 . S
C595 O600 1.247 . S
C595 O601 1.208 . S
C596 O588 1.315 . S
C596 O591 1.279 . S
C597 O598 1.315 . S
C597 O599 1.279 . S
O598 Cd590 2.223 . S
O598 C597 1.315 . S
O599 Cd589 2.240 . S
O599 C597 1.279 . S
O600 Cd590 2.297 . S
O600 C595 1.247 . S
O601 Cd590 2.439 . S
O601 C595 1.208 . S
O602 Cd603 2.223 . S
O602 C610 1.315 . S
Cd603 O602 2.223 . S
Cd603 O606 2.297 . S
Cd603 O607 2.439 . S
Cd603 O613 2.240 . S
Cd604 O605 2.240 . S
Cd604 O612 2.223 . S
Cd604 O614 2.297 . S
Cd604 O615 2.439 . S
O605 Cd604 2.240 . S
O605 C610 1.279 . S
O606 Cd603 2.297 . S
O606 C608 1.247 . S
O607 Cd603 2.439 . S
O607 C608 1.208 . S
C608 O606 1.247 . S
C608 O607 1.208 . S
C609 O614 1.247 . S
C609 O615 1.208 . S
C610 O602 1.315 . S
C610 O605 1.279 . S
C611 O612 1.315 . S
C611 O613 1.279 . S
O612 Cd604 2.223 . S
O612 C611 1.315 . S
O613 Cd603 2.240 . S
O613 C611 1.279 . S
O614 Cd604 2.297 . S
O614 C609 1.247 . S
O615 Cd604 2.439 . S
O615 C609 1.208 . S
O616 Cd617 2.223 . S
O616 C624 1.315 . S
Cd617 O616 2.223 . S
Cd617 O620 2.297 . S
Cd617 O621 2.439 . S
Cd617 O627 2.240 . S
Cd618 O619 2.240 . S
Cd618 O626 2.223 . S
Cd618 O628 2.297 . S
Cd618 O629 2.439 . S
O619 Cd618 2.240 . S
O619 C624 1.279 . S
O620 Cd617 2.297 . S
O620 C622 1.247 . S
O621 Cd617 2.439 . S
O621 C622 1.208 . S
C622 O620 1.247 . S
C622 O621 1.208 . S
C623 O628 1.247 . S
C623 O629 1.208 . S
C624 O616 1.315 . S
C624 O619 1.279 . S
C625 O626 1.315 . S
C625 O627 1.279 . S
O626 Cd618 2.223 . S
O626 C625 1.315 . S
O627 Cd617 2.240 . S
O627 C625 1.279 . S
O628 Cd618 2.297 . S
O628 C623 1.247 . S
O629 Cd618 2.439 . S
O629 C623 1.208 . S
O630 Cd631 2.223 . S
O630 C638 1.315 . S
Cd631 O630 2.223 . S
Cd631 O634 2.297 . S
Cd631 O635 2.439 . S
Cd631 O641 2.240 . S
Cd632 O633 2.240 . S
Cd632 O640 2.223 . S
Cd632 O642 2.297 . S
Cd632 O643 2.439 . S
O633 Cd632 2.240 . S
O633 C638 1.279 . S
O634 Cd631 2.297 . S
O634 C636 1.247 . S
O635 Cd631 2.439 . S
O635 C636 1.208 . S
C636 O634 1.247 . S
C636 O635 1.208 . S
C637 O642 1.247 . S
C637 O643 1.208 . S
C638 O630 1.315 . S
C638 O633 1.279 . S
C639 O640 1.315 . S
C639 O641 1.279 . S
O640 Cd632 2.223 . S
O640 C639 1.315 . S
O641 Cd631 2.240 . S
O641 C639 1.279 . S
O642 Cd632 2.297 . S
O642 C637 1.247 . S
O643 Cd632 2.439 . S
O643 C637 1.208 . S
O644 Cd645 2.223 . S
O644 C652 1.315 . S
Cd645 O644 2.223 . S
Cd645 O648 2.297 . S
Cd645 O649 2.439 . S
Cd645 O655 2.240 . S
Cd646 O647 2.240 . S
Cd646 O654 2.223 . S
Cd646 O656 2.297 . S
Cd646 O657 2.439 . S
O647 Cd646 2.240 . S
O647 C652 1.279 . S
O648 Cd645 2.297 . S
O648 C650 1.247 . S
O649 Cd645 2.439 . S
O649 C650 1.208 . S
C650 O648 1.247 . S
C650 O649 1.208 . S
C651 O656 1.247 . S
C651 O657 1.208 . S
C652 O644 1.315 . S
C652 O647 1.279 . S
C653 O654 1.315 . S
C653 O655 1.279 . S
O654 Cd646 2.223 . S
O654 C653 1.315 . S
O655 Cd645 2.240 . S
O655 C653 1.279 . S
O656 Cd646 2.297 . S
O656 C651 1.247 . S
O657 Cd646 2.439 . S
O657 C651 1.208 . S
O658 Cd659 2.223 . S
O658 C666 1.315 . S
Cd659 O658 2.223 . S
Cd659 O662 2.297 . S
Cd659 O663 2.439 . S
Cd659 O669 2.240 . S
Cd660 O661 2.240 . S
Cd660 O668 2.223 . S
Cd660 O670 2.297 . S
Cd660 O671 2.439 . S
O661 Cd660 2.240 . S
O661 C666 1.279 . S
O662 Cd659 2.297 . S
O662 C664 1.247 . S
O663 Cd659 2.439 . S
O663 C664 1.208 . S
C664 O662 1.247 . S
C664 O663 1.208 . S
C665 O670 1.247 . S
C665 O671 1.208 . S
C666 O658 1.315 . S
C666 O661 1.279 . S
C667 O668 1.315 . S
C667 O669 1.279 . S
O668 Cd660 2.223 . S
O668 C667 1.315 . S
O669 Cd659 2.240 . S
O669 C667 1.279 . S
O670 Cd660 2.297 . S
O670 C665 1.247 . S
O671 Cd660 2.439 . S
O671 C665 1.208 . S
H672 C680 0.950 . S
H673 C685 0.950 . S
H674 C682 0.950 . S
H675 C684 0.950 . S
H676 C686 0.950 . S
H677 C688 0.950 . S
H678 C690 0.950 . S
H679 C691 0.950 . S
C680 H672 0.950 . S
C680 C681 1.386 . S
C680 C682 1.391 . S
C681 C680 1.386 . S
C681 C685 1.393 . S
C682 H674 0.950 . S
C682 C680 1.391 . S
C682 C683 1.400 . S
C683 C682 1.400 . S
C683 C684 1.398 . S
C683 C689 1.491 . S
C684 H675 0.950 . S
C684 C683 1.398 . S
C684 C685 1.391 . S
C685 H673 0.950 . S
C685 C681 1.393 . S
C685 C684 1.391 . S
C686 H676 0.950 . S
C686 C687 1.386 . S
C686 C688 1.391 . S
C687 C686 1.386 . S
C687 C691 1.393 . S
C688 H677 0.950 . S
C688 C686 1.391 . S
C688 C689 1.400 . S
C689 C683 1.491 . S
C689 C688 1.400 . S
C689 C690 1.398 . S
C690 H678 0.950 . S
C690 C689 1.398 . S
C690 C691 1.391 . S
C691 H679 0.950 . S
C691 C687 1.393 . S
C691 C690 1.391 . S
H692 C700 0.950 . S
H693 C705 0.950 . S
H694 C702 0.950 . S
H695 C704 0.950 . S
H696 C706 0.950 . S
H697 C708 0.950 . S
H698 C710 0.950 . S
H699 C711 0.950 . S
C700 H692 0.950 . S
C700 C701 1.386 . S
C700 C702 1.391 . S
C701 C700 1.386 . S
C701 C705 1.393 . S
C702 H694 0.950 . S
C702 C700 1.391 . S
C702 C703 1.400 . S
C703 C702 1.400 . S
C703 C704 1.398 . S
C703 C709 1.491 . S
C704 H695 0.950 . S
C704 C703 1.398 . S
C704 C705 1.391 . S
C705 H693 0.950 . S
C705 C701 1.393 . S
C705 C704 1.391 . S
C706 H696 0.950 . S
C706 C707 1.386 . S
C706 C708 1.391 . S
C707 C706 1.386 . S
C707 C711 1.393 . S
C708 H697 0.950 . S
C708 C706 1.391 . S
C708 C709 1.400 . S
C709 C703 1.491 . S
C709 C708 1.400 . S
C709 C710 1.398 . S
C710 H698 0.950 . S
C710 C709 1.398 . S
C710 C711 1.391 . S
C711 H699 0.950 . S
C711 C707 1.393 . S
C711 C710 1.391 . S
H712 C720 0.950 . S
H713 C725 0.950 . S
H714 C722 0.950 . S
H715 C724 0.950 . S
H716 C726 0.950 . S
H717 C728 0.950 . S
H718 C730 0.950 . S
H719 C731 0.950 . S
C720 H712 0.950 . S
C720 C721 1.386 . S
C720 C722 1.391 . S
C721 C720 1.386 . S
C721 C725 1.393 . S
C722 H714 0.950 . S
C722 C720 1.391 . S
C722 C723 1.400 . S
C723 C722 1.400 . S
C723 C724 1.398 . S
C723 C729 1.491 . S
C724 H715 0.950 . S
C724 C723 1.398 . S
C724 C725 1.391 . S
C725 H713 0.950 . S
C725 C721 1.393 . S
C725 C724 1.391 . S
C726 H716 0.950 . S
C726 C727 1.386 . S
C726 C728 1.391 . S
C727 C726 1.386 . S
C727 C731 1.393 . S
C728 H717 0.950 . S
C728 C726 1.391 . S
C728 C729 1.400 . S
C729 C723 1.491 . S
C729 C728 1.400 . S
C729 C730 1.398 . S
C730 H718 0.950 . S
C730 C729 1.398 . S
C730 C731 1.391 . S
C731 H719 0.950 . S
C731 C727 1.393 . S
C731 C730 1.391 . S
H732 C740 0.950 . S
H733 C745 0.950 . S
H734 C742 0.950 . S
H735 C744 0.950 . S
H736 C746 0.950 . S
H737 C748 0.950 . S
H738 C750 0.950 . S
H739 C751 0.950 . S
C740 H732 0.950 . S
C740 C741 1.386 . S
C740 C742 1.391 . S
C741 C740 1.386 . S
C741 C745 1.393 . S
C742 H734 0.950 . S
C742 C740 1.391 . S
C742 C743 1.400 . S
C743 C742 1.400 . S
C743 C744 1.398 . S
C743 C749 1.491 . S
C744 H735 0.950 . S
C744 C743 1.398 . S
C744 C745 1.391 . S
C745 H733 0.950 . S
C745 C741 1.393 . S
C745 C744 1.391 . S
C746 H736 0.950 . S
C746 C747 1.386 . S
C746 C748 1.391 . S
C747 C746 1.386 . S
C747 C751 1.393 . S
C748 H737 0.950 . S
C748 C746 1.391 . S
C748 C749 1.400 . S
C749 C743 1.491 . S
C749 C748 1.400 . S
C749 C750 1.398 . S
C750 H738 0.950 . S
C750 C749 1.398 . S
C750 C751 1.391 . S
C751 H739 0.950 . S
C751 C747 1.393 . S
C751 C750 1.391 . S
H752 C760 0.950 . S
H753 C765 0.950 . S
H754 C762 0.950 . S
H755 C764 0.950 . S
H756 C766 0.950 . S
H757 C768 0.950 . S
H758 C770 0.950 . S
H759 C771 0.950 . S
C760 H752 0.950 . S
C760 C761 1.386 . S
C760 C762 1.391 . S
C761 C760 1.386 . S
C761 C765 1.393 . S
C762 H754 0.950 . S
C762 C760 1.391 . S
C762 C763 1.400 . S
C763 C762 1.400 . S
C763 C764 1.398 . S
C763 C769 1.491 . S
C764 H755 0.950 . S
C764 C763 1.398 . S
C764 C765 1.391 . S
C765 H753 0.950 . S
C765 C761 1.393 . S
C765 C764 1.391 . S
C766 H756 0.950 . S
C766 C767 1.386 . S
C766 C768 1.391 . S
C767 C766 1.386 . S
C767 C771 1.393 . S
C768 H757 0.950 . S
C768 C766 1.391 . S
C768 C769 1.400 . S
C769 C763 1.491 . S
C769 C768 1.400 . S
C769 C770 1.398 . S
C770 H758 0.950 . S
C770 C769 1.398 . S
C770 C771 1.391 . S
C771 H759 0.950 . S
C771 C767 1.393 . S
C771 C770 1.391 . S
H772 C780 0.950 . S
H773 C785 0.950 . S
H774 C782 0.950 . S
H775 C784 0.950 . S
H776 C786 0.950 . S
H777 C788 0.950 . S
H778 C790 0.950 . S
H779 C791 0.950 . S
C780 H772 0.950 . S
C780 C781 1.386 . S
C780 C782 1.391 . S
C781 C780 1.386 . S
C781 C785 1.393 . S
C782 H774 0.950 . S
C782 C780 1.391 . S
C782 C783 1.400 . S
C783 C782 1.400 . S
C783 C784 1.398 . S
C783 C789 1.491 . S
C784 H775 0.950 . S
C784 C783 1.398 . S
C784 C785 1.391 . S
C785 H773 0.950 . S
C785 C781 1.393 . S
C785 C784 1.391 . S
C786 H776 0.950 . S
C786 C787 1.386 . S
C786 C788 1.391 . S
C787 C786 1.386 . S
C787 C791 1.393 . S
C788 H777 0.950 . S
C788 C786 1.391 . S
C788 C789 1.400 . S
C789 C783 1.491 . S
C789 C788 1.400 . S
C789 C790 1.398 . S
C790 H778 0.950 . S
C790 C789 1.398 . S
C790 C791 1.391 . S
C791 H779 0.950 . S
C791 C787 1.393 . S
C791 C790 1.391 . S
H792 C800 0.950 . S
H793 C805 0.950 . S
H794 C802 0.950 . S
H795 C804 0.950 . S
H796 C806 0.950 . S
H797 C808 0.950 . S
H798 C810 0.950 . S
H799 C811 0.950 . S
C800 H792 0.950 . S
C800 C801 1.386 . S
C800 C802 1.391 . S
C801 C800 1.386 . S
C801 C805 1.393 . S
C802 H794 0.950 . S
C802 C800 1.391 . S
C802 C803 1.400 . S
C803 C802 1.400 . S
C803 C804 1.398 . S
C803 C809 1.491 . S
C804 H795 0.950 . S
C804 C803 1.398 . S
C804 C805 1.391 . S
C805 H793 0.950 . S
C805 C801 1.393 . S
C805 C804 1.391 . S
C806 H796 0.950 . S
C806 C807 1.386 . S
C806 C808 1.391 . S
C807 C806 1.386 . S
C807 C811 1.393 . S
C808 H797 0.950 . S
C808 C806 1.391 . S
C808 C809 1.400 . S
C809 C803 1.491 . S
C809 C808 1.400 . S
C809 C810 1.398 . S
C810 H798 0.950 . S
C810 C809 1.398 . S
C810 C811 1.391 . S
C811 H799 0.950 . S
C811 C807 1.393 . S
C811 C810 1.391 . S
H812 C820 0.950 . S
H813 C825 0.950 . S
H814 C822 0.950 . S
H815 C824 0.950 . S
H816 C826 0.950 . S
H817 C828 0.950 . S
H818 C830 0.950 . S
H819 C831 0.950 . S
C820 H812 0.950 . S
C820 C821 1.386 . S
C820 C822 1.391 . S
C821 C820 1.386 . S
C821 C825 1.393 . S
C822 H814 0.950 . S
C822 C820 1.391 . S
C822 C823 1.400 . S
C823 C822 1.400 . S
C823 C824 1.398 . S
C823 C829 1.491 . S
C824 H815 0.950 . S
C824 C823 1.398 . S
C824 C825 1.391 . S
C825 H813 0.950 . S
C825 C821 1.393 . S
C825 C824 1.391 . S
C826 H816 0.950 . S
C826 C827 1.386 . S
C826 C828 1.391 . S
C827 C826 1.386 . S
C827 C831 1.393 . S
C828 H817 0.950 . S
C828 C826 1.391 . S
C828 C829 1.400 . S
C829 C823 1.491 . S
C829 C828 1.400 . S
C829 C830 1.398 . S
C830 H818 0.950 . S
C830 C829 1.398 . S
C830 C831 1.391 . S
C831 H819 0.950 . S
C831 C827 1.393 . S
C831 C830 1.391 . S
H832 C840 0.950 . S
H833 C845 0.950 . S
H834 C842 0.950 . S
H835 C844 0.950 . S
H836 C846 0.950 . S
H837 C848 0.950 . S
H838 C850 0.950 . S
H839 C851 0.950 . S
C840 H832 0.950 . S
C840 C841 1.386 . S
C840 C842 1.391 . S
C841 C840 1.386 . S
C841 C845 1.393 . S
C842 H834 0.950 . S
C842 C840 1.391 . S
C842 C843 1.400 . S
C843 C842 1.400 . S
C843 C844 1.398 . S
C843 C849 1.491 . S
C844 H835 0.950 . S
C844 C843 1.398 . S
C844 C845 1.391 . S
C845 H833 0.950 . S
C845 C841 1.393 . S
C845 C844 1.391 . S
C846 H836 0.950 . S
C846 C847 1.386 . S
C846 C848 1.391 . S
C847 C846 1.386 . S
C847 C851 1.393 . S
C848 H837 0.950 . S
C848 C846 1.391 . S
C848 C849 1.400 . S
C849 C843 1.491 . S
C849 C848 1.400 . S
C849 C850 1.398 . S
C850 H838 0.950 . S
C850 C849 1.398 . S
C850 C851 1.391 . S
C851 H839 0.950 . S
C851 C847 1.393 . S
C851 C850 1.391 . S
H852 C860 0.950 . S
H853 C865 0.950 . S
H854 C862 0.950 . S
H855 C864 0.950 . S
H856 C866 0.950 . S
H857 C868 0.950 . S
H858 C870 0.950 . S
H859 C871 0.950 . S
C860 H852 0.950 . S
C860 C861 1.386 . S
C860 C862 1.391 . S
C861 C860 1.386 . S
C861 C865 1.393 . S
C862 H854 0.950 . S
C862 C860 1.391 . S
C862 C863 1.400 . S
C863 C862 1.400 . S
C863 C864 1.398 . S
C863 C869 1.491 . S
C864 H855 0.950 . S
C864 C863 1.398 . S
C864 C865 1.391 . S
C865 H853 0.950 . S
C865 C861 1.393 . S
C865 C864 1.391 . S
C866 H856 0.950 . S
C866 C867 1.386 . S
C866 C868 1.391 . S
C867 C866 1.386 . S
C867 C871 1.393 . S
C868 H857 0.950 . S
C868 C866 1.391 . S
C868 C869 1.400 . S
C869 C863 1.491 . S
C869 C868 1.400 . S
C869 C870 1.398 . S
C870 H858 0.950 . S
C870 C869 1.398 . S
C870 C871 1.391 . S
C871 H859 0.950 . S
C871 C867 1.393 . S
C871 C870 1.391 . S
H872 C880 0.950 . S
H873 C885 0.950 . S
H874 C882 0.950 . S
H875 C884 0.950 . S
H876 C886 0.950 . S
H877 C888 0.950 . S
H878 C890 0.950 . S
H879 C891 0.950 . S
C880 H872 0.950 . S
C880 C881 1.386 . S
C880 C882 1.391 . S
C881 C880 1.386 . S
C881 C885 1.393 . S
C882 H874 0.950 . S
C882 C880 1.391 . S
C882 C883 1.400 . S
C883 C882 1.400 . S
C883 C884 1.398 . S
C883 C889 1.491 . S
C884 H875 0.950 . S
C884 C883 1.398 . S
C884 C885 1.391 . S
C885 H873 0.950 . S
C885 C881 1.393 . S
C885 C884 1.391 . S
C886 H876 0.950 . S
C886 C887 1.386 . S
C886 C888 1.391 . S
C887 C886 1.386 . S
C887 C891 1.393 . S
C888 H877 0.950 . S
C888 C886 1.391 . S
C888 C889 1.400 . S
C889 C883 1.491 . S
C889 C888 1.400 . S
C889 C890 1.398 . S
C890 H878 0.950 . S
C890 C889 1.398 . S
C890 C891 1.391 . S
C891 H879 0.950 . S
C891 C887 1.393 . S
C891 C890 1.391 . S
H892 C900 0.950 . S
H893 C905 0.950 . S
H894 C902 0.950 . S
H895 C904 0.950 . S
H896 C906 0.950 . S
H897 C908 0.950 . S
H898 C910 0.950 . S
H899 C911 0.950 . S
C900 H892 0.950 . S
C900 C901 1.386 . S
C900 C902 1.391 . S
C901 C900 1.386 . S
C901 C905 1.393 . S
C902 H894 0.950 . S
C902 C900 1.391 . S
C902 C903 1.400 . S
C903 C902 1.400 . S
C903 C904 1.398 . S
C903 C909 1.491 . S
C904 H895 0.950 . S
C904 C903 1.398 . S
C904 C905 1.391 . S
C905 H893 0.950 . S
C905 C901 1.393 . S
C905 C904 1.391 . S
C906 H896 0.950 . S
C906 C907 1.386 . S
C906 C908 1.391 . S
C907 C906 1.386 . S
C907 C911 1.393 . S
C908 H897 0.950 . S
C908 C906 1.391 . S
C908 C909 1.400 . S
C909 C903 1.491 . S
C909 C908 1.400 . S
C909 C910 1.398 . S
C910 H898 0.950 . S
C910 C909 1.398 . S
C910 C911 1.391 . S
C911 H899 0.950 . S
C911 C907 1.393 . S
C911 C910 1.391 . S
H912 C920 0.950 . S
H913 C925 0.950 . S
H914 C922 0.950 . S
H915 C924 0.950 . S
H916 C926 0.950 . S
H917 C928 0.950 . S
H918 C930 0.950 . S
H919 C931 0.950 . S
C920 H912 0.950 . S
C920 C921 1.386 . S
C920 C922 1.391 . S
C921 C920 1.386 . S
C921 C925 1.393 . S
C922 H914 0.950 . S
C922 C920 1.391 . S
C922 C923 1.400 . S
C923 C922 1.400 . S
C923 C924 1.398 . S
C923 C929 1.491 . S
C924 H915 0.950 . S
C924 C923 1.398 . S
C924 C925 1.391 . S
C925 H913 0.950 . S
C925 C921 1.393 . S
C925 C924 1.391 . S
C926 H916 0.950 . S
C926 C927 1.386 . S
C926 C928 1.391 . S
C927 C926 1.386 . S
C927 C931 1.393 . S
C928 H917 0.950 . S
C928 C926 1.391 . S
C928 C929 1.400 . S
C929 C923 1.491 . S
C929 C928 1.400 . S
C929 C930 1.398 . S
C930 H918 0.950 . S
C930 C929 1.398 . S
C930 C931 1.391 . S
C931 H919 0.950 . S
C931 C927 1.393 . S
C931 C930 1.391 . S
H932 C940 0.950 . S
H933 C945 0.950 . S
H934 C942 0.950 . S
H935 C944 0.950 . S
H936 C946 0.950 . S
H937 C948 0.950 . S
H938 C950 0.950 . S
H939 C951 0.950 . S
C940 H932 0.950 . S
C940 C941 1.386 . S
C940 C942 1.391 . S
C941 C940 1.386 . S
C941 C945 1.393 . S
C942 H934 0.950 . S
C942 C940 1.391 . S
C942 C943 1.400 . S
C943 C942 1.400 . S
C943 C944 1.398 . S
C943 C949 1.491 . S
C944 H935 0.950 . S
C944 C943 1.398 . S
C944 C945 1.391 . S
C945 H933 0.950 . S
C945 C941 1.393 . S
C945 C944 1.391 . S
C946 H936 0.950 . S
C946 C947 1.386 . S
C946 C948 1.391 . S
C947 C946 1.386 . S
C947 C951 1.393 . S
C948 H937 0.950 . S
C948 C946 1.391 . S
C948 C949 1.400 . S
C949 C943 1.491 . S
C949 C948 1.400 . S
C949 C950 1.398 . S
C950 H938 0.950 . S
C950 C949 1.398 . S
C950 C951 1.391 . S
C951 H939 0.950 . S
C951 C947 1.393 . S
C951 C950 1.391 . S
H952 C960 0.950 . S
H953 C965 0.950 . S
H954 C962 0.950 . S
H955 C964 0.950 . S
H956 C966 0.950 . S
H957 C968 0.950 . S
H958 C970 0.950 . S
H959 C971 0.950 . S
C960 H952 0.950 . S
C960 C961 1.386 . S
C960 C962 1.391 . S
C961 C960 1.386 . S
C961 C965 1.393 . S
C962 H954 0.950 . S
C962 C960 1.391 . S
C962 C963 1.400 . S
C963 C962 1.400 . S
C963 C964 1.398 . S
C963 C969 1.491 . S
C964 H955 0.950 . S
C964 C963 1.398 . S
C964 C965 1.391 . S
C965 H953 0.950 . S
C965 C961 1.393 . S
C965 C964 1.391 . S
C966 H956 0.950 . S
C966 C967 1.386 . S
C966 C968 1.391 . S
C967 C966 1.386 . S
C967 C971 1.393 . S
C968 H957 0.950 . S
C968 C966 1.391 . S
C968 C969 1.400 . S
C969 C963 1.491 . S
C969 C968 1.400 . S
C969 C970 1.398 . S
C970 H958 0.950 . S
C970 C969 1.398 . S
C970 C971 1.391 . S
C971 H959 0.950 . S
C971 C967 1.393 . S
C971 C970 1.391 . S
H972 C980 0.950 . S
H973 C985 0.950 . S
H974 C982 0.950 . S
H975 C984 0.950 . S
H976 C986 0.950 . S
H977 C988 0.950 . S
H978 C990 0.950 . S
H979 C991 0.950 . S
C980 H972 0.950 . S
C980 C981 1.386 . S
C980 C982 1.391 . S
C981 C980 1.386 . S
C981 C985 1.393 . S
C982 H974 0.950 . S
C982 C980 1.391 . S
C982 C983 1.400 . S
C983 C982 1.400 . S
C983 C984 1.398 . S
C983 C989 1.491 . S
C984 H975 0.950 . S
C984 C983 1.398 . S
C984 C985 1.391 . S
C985 H973 0.950 . S
C985 C981 1.393 . S
C985 C984 1.391 . S
C986 H976 0.950 . S
C986 C987 1.386 . S
C986 C988 1.391 . S
C987 C986 1.386 . S
C987 C991 1.393 . S
C988 H977 0.950 . S
C988 C986 1.391 . S
C988 C989 1.400 . S
C989 C983 1.491 . S
C989 C988 1.400 . S
C989 C990 1.398 . S
C990 H978 0.950 . S
C990 C989 1.398 . S
C990 C991 1.391 . S
C991 H979 0.950 . S
C991 C987 1.393 . S
C991 C990 1.391 . S
H992 C1000 0.950 . S
H993 C1005 0.950 . S
H994 C1002 0.950 . S
H995 C1004 0.950 . S
H996 C1006 0.950 . S
H997 C1008 0.950 . S
H998 C1010 0.950 . S
H999 C1011 0.950 . S
C1000 H992 0.950 . S
C1000 C1001 1.386 . S
C1000 C1002 1.391 . S
C1001 C1000 1.386 . S
C1001 C1005 1.393 . S
C1002 H994 0.950 . S
C1002 C1000 1.391 . S
C1002 C1003 1.400 . S
C1003 C1002 1.400 . S
C1003 C1004 1.398 . S
C1003 C1009 1.491 . S
C1004 H995 0.950 . S
C1004 C1003 1.398 . S
C1004 C1005 1.391 . S
C1005 H993 0.950 . S
C1005 C1001 1.393 . S
C1005 C1004 1.391 . S
C1006 H996 0.950 . S
C1006 C1007 1.386 . S
C1006 C1008 1.391 . S
C1007 C1006 1.386 . S
C1007 C1011 1.393 . S
C1008 H997 0.950 . S
C1008 C1006 1.391 . S
C1008 C1009 1.400 . S
C1009 C1003 1.491 . S
C1009 C1008 1.400 . S
C1009 C1010 1.398 . S
C1010 H998 0.950 . S
C1010 C1009 1.398 . S
C1010 C1011 1.391 . S
C1011 H999 0.950 . S
C1011 C1007 1.393 . S
C1011 C1010 1.391 . S
H1012 C1020 0.950 . S
H1013 C1025 0.950 . S
H1014 C1022 0.950 . S
H1015 C1024 0.950 . S
H1016 C1026 0.950 . S
H1017 C1028 0.950 . S
H1018 C1030 0.950 . S
H1019 C1031 0.950 . S
C1020 H1012 0.950 . S
C1020 C1021 1.386 . S
C1020 C1022 1.391 . S
C1021 C1020 1.386 . S
C1021 C1025 1.393 . S
C1022 H1014 0.950 . S
C1022 C1020 1.391 . S
C1022 C1023 1.400 . S
C1023 C1022 1.400 . S
C1023 C1024 1.398 . S
C1023 C1029 1.491 . S
C1024 H1015 0.950 . S
C1024 C1023 1.398 . S
C1024 C1025 1.391 . S
C1025 H1013 0.950 . S
C1025 C1021 1.393 . S
C1025 C1024 1.391 . S
C1026 H1016 0.950 . S
C1026 C1027 1.386 . S
C1026 C1028 1.391 . S
C1027 C1026 1.386 . S
C1027 C1031 1.393 . S
C1028 H1017 0.950 . S
C1028 C1026 1.391 . S
C1028 C1029 1.400 . S
C1029 C1023 1.491 . S
C1029 C1028 1.400 . S
C1029 C1030 1.398 . S
C1030 H1018 0.950 . S
C1030 C1029 1.398 . S
C1030 C1031 1.391 . S
C1031 H1019 0.950 . S
C1031 C1027 1.393 . S
C1031 C1030 1.391 . S
H1032 C1040 0.950 . S
H1033 C1045 0.950 . S
H1034 C1042 0.950 . S
H1035 C1044 0.950 . S
H1036 C1046 0.950 . S
H1037 C1048 0.950 . S
H1038 C1050 0.950 . S
H1039 C1051 0.950 . S
C1040 H1032 0.950 . S
C1040 C1041 1.386 . S
C1040 C1042 1.391 . S
C1041 C1040 1.386 . S
C1041 C1045 1.393 . S
C1042 H1034 0.950 . S
C1042 C1040 1.391 . S
C1042 C1043 1.400 . S
C1043 C1042 1.400 . S
C1043 C1044 1.398 . S
C1043 C1049 1.491 . S
C1044 H1035 0.950 . S
C1044 C1043 1.398 . S
C1044 C1045 1.391 . S
C1045 H1033 0.950 . S
C1045 C1041 1.393 . S
C1045 C1044 1.391 . S
C1046 H1036 0.950 . S
C1046 C1047 1.386 . S
C1046 C1048 1.391 . S
C1047 C1046 1.386 . S
C1047 C1051 1.393 . S
C1048 H1037 0.950 . S
C1048 C1046 1.391 . S
C1048 C1049 1.400 . S
C1049 C1043 1.491 . S
C1049 C1048 1.400 . S
C1049 C1050 1.398 . S
C1050 H1038 0.950 . S
C1050 C1049 1.398 . S
C1050 C1051 1.391 . S
C1051 H1039 0.950 . S
C1051 C1047 1.393 . S
C1051 C1050 1.391 . S
H1052 C1060 0.950 . S
H1053 C1065 0.950 . S
H1054 C1062 0.950 . S
H1055 C1064 0.950 . S
H1056 C1066 0.950 . S
H1057 C1068 0.950 . S
H1058 C1070 0.950 . S
H1059 C1071 0.950 . S
C1060 H1052 0.950 . S
C1060 C1061 1.386 . S
C1060 C1062 1.391 . S
C1061 C1060 1.386 . S
C1061 C1065 1.393 . S
C1062 H1054 0.950 . S
C1062 C1060 1.391 . S
C1062 C1063 1.400 . S
C1063 C1062 1.400 . S
C1063 C1064 1.398 . S
C1063 C1069 1.491 . S
C1064 H1055 0.950 . S
C1064 C1063 1.398 . S
C1064 C1065 1.391 . S
C1065 H1053 0.950 . S
C1065 C1061 1.393 . S
C1065 C1064 1.391 . S
C1066 H1056 0.950 . S
C1066 C1067 1.386 . S
C1066 C1068 1.391 . S
C1067 C1066 1.386 . S
C1067 C1071 1.393 . S
C1068 H1057 0.950 . S
C1068 C1066 1.391 . S
C1068 C1069 1.400 . S
C1069 C1063 1.491 . S
C1069 C1068 1.400 . S
C1069 C1070 1.398 . S
C1070 H1058 0.950 . S
C1070 C1069 1.398 . S
C1070 C1071 1.391 . S
C1071 H1059 0.950 . S
C1071 C1067 1.393 . S
C1071 C1070 1.391 . S
H1072 C1080 0.950 . S
H1073 C1085 0.950 . S
H1074 C1082 0.950 . S
H1075 C1084 0.950 . S
H1076 C1086 0.950 . S
H1077 C1088 0.950 . S
H1078 C1090 0.950 . S
H1079 C1091 0.950 . S
C1080 H1072 0.950 . S
C1080 C1081 1.386 . S
C1080 C1082 1.391 . S
C1081 C1080 1.386 . S
C1081 C1085 1.393 . S
C1082 H1074 0.950 . S
C1082 C1080 1.391 . S
C1082 C1083 1.400 . S
C1083 C1082 1.400 . S
C1083 C1084 1.398 . S
C1083 C1089 1.491 . S
C1084 H1075 0.950 . S
C1084 C1083 1.398 . S
C1084 C1085 1.391 . S
C1085 H1073 0.950 . S
C1085 C1081 1.393 . S
C1085 C1084 1.391 . S
C1086 H1076 0.950 . S
C1086 C1087 1.386 . S
C1086 C1088 1.391 . S
C1087 C1086 1.386 . S
C1087 C1091 1.393 . S
C1088 H1077 0.950 . S
C1088 C1086 1.391 . S
C1088 C1089 1.400 . S
C1089 C1083 1.491 . S
C1089 C1088 1.400 . S
C1089 C1090 1.398 . S
C1090 H1078 0.950 . S
C1090 C1089 1.398 . S
C1090 C1091 1.391 . S
C1091 H1079 0.950 . S
C1091 C1087 1.393 . S
C1091 C1090 1.391 . S
H1092 C1100 0.950 . S
H1093 C1105 0.950 . S
H1094 C1102 0.950 . S
H1095 C1104 0.950 . S
H1096 C1106 0.950 . S
H1097 C1108 0.950 . S
H1098 C1110 0.950 . S
H1099 C1111 0.950 . S
C1100 H1092 0.950 . S
C1100 C1101 1.386 . S
C1100 C1102 1.391 . S
C1101 C1100 1.386 . S
C1101 C1105 1.393 . S
C1102 H1094 0.950 . S
C1102 C1100 1.391 . S
C1102 C1103 1.400 . S
C1103 C1102 1.400 . S
C1103 C1104 1.398 . S
C1103 C1109 1.491 . S
C1104 H1095 0.950 . S
C1104 C1103 1.398 . S
C1104 C1105 1.391 . S
C1105 H1093 0.950 . S
C1105 C1101 1.393 . S
C1105 C1104 1.391 . S
C1106 H1096 0.950 . S
C1106 C1107 1.386 . S
C1106 C1108 1.391 . S
C1107 C1106 1.386 . S
C1107 C1111 1.393 . S
C1108 H1097 0.950 . S
C1108 C1106 1.391 . S
C1108 C1109 1.400 . S
C1109 C1103 1.491 . S
C1109 C1108 1.400 . S
C1109 C1110 1.398 . S
C1110 H1098 0.950 . S
C1110 C1109 1.398 . S
C1110 C1111 1.391 . S
C1111 H1099 0.950 . S
C1111 C1107 1.393 . S
C1111 C1110 1.391 . S
H1112 C1120 0.950 . S
H1113 C1125 0.950 . S
H1114 C1122 0.950 . S
H1115 C1124 0.950 . S
H1116 C1126 0.950 . S
H1117 C1128 0.950 . S
H1118 C1130 0.950 . S
H1119 C1131 0.950 . S
C1120 H1112 0.950 . S
C1120 C1121 1.386 . S
C1120 C1122 1.391 . S
C1121 C1120 1.386 . S
C1121 C1125 1.393 . S
C1122 H1114 0.950 . S
C1122 C1120 1.391 . S
C1122 C1123 1.400 . S
C1123 C1122 1.400 . S
C1123 C1124 1.398 . S
C1123 C1129 1.491 . S
C1124 H1115 0.950 . S
C1124 C1123 1.398 . S
C1124 C1125 1.391 . S
C1125 H1113 0.950 . S
C1125 C1121 1.393 . S
C1125 C1124 1.391 . S
C1126 H1116 0.950 . S
C1126 C1127 1.386 . S
C1126 C1128 1.391 . S
C1127 C1126 1.386 . S
C1127 C1131 1.393 . S
C1128 H1117 0.950 . S
C1128 C1126 1.391 . S
C1128 C1129 1.400 . S
C1129 C1123 1.491 . S
C1129 C1128 1.400 . S
C1129 C1130 1.398 . S
C1130 H1118 0.950 . S
C1130 C1129 1.398 . S
C1130 C1131 1.391 . S
C1131 H1119 0.950 . S
C1131 C1127 1.393 . S
C1131 C1130 1.391 . S
H1132 C1140 0.950 . S
H1133 C1145 0.950 . S
H1134 C1142 0.950 . S
H1135 C1144 0.950 . S
H1136 C1146 0.950 . S
H1137 C1148 0.950 . S
H1138 C1150 0.950 . S
H1139 C1151 0.950 . S
C1140 H1132 0.950 . S
C1140 C1141 1.386 . S
C1140 C1142 1.391 . S
C1141 C1140 1.386 . S
C1141 C1145 1.393 . S
C1142 H1134 0.950 . S
C1142 C1140 1.391 . S
C1142 C1143 1.400 . S
C1143 C1142 1.400 . S
C1143 C1144 1.398 . S
C1143 C1149 1.491 . S
C1144 H1135 0.950 . S
C1144 C1143 1.398 . S
C1144 C1145 1.391 . S
C1145 H1133 0.950 . S
C1145 C1141 1.393 . S
C1145 C1144 1.391 . S
C1146 H1136 0.950 . S
C1146 C1147 1.386 . S
C1146 C1148 1.391 . S
C1147 C1146 1.386 . S
C1147 C1151 1.393 . S
C1148 H1137 0.950 . S
C1148 C1146 1.391 . S
C1148 C1149 1.400 . S
C1149 C1143 1.491 . S
C1149 C1148 1.400 . S
C1149 C1150 1.398 . S
C1150 H1138 0.950 . S
C1150 C1149 1.398 . S
C1150 C1151 1.391 . S
C1151 H1139 0.950 . S
C1151 C1147 1.393 . S
C1151 C1150 1.391 . S
H1152 C1160 0.950 . S
H1153 C1165 0.950 . S
H1154 C1162 0.952 1_455 S
H1155 C1164 0.950 . S
H1156 C1166 0.950 . S
H1157 C1168 0.952 1_655 S
H1158 C1170 0.950 . S
H1159 C1171 0.950 . S
C1160 H1152 0.950 . S
C1160 C1161 1.386 . S
C1160 C1162 1.390 . S
C1161 C1160 1.386 . S
C1161 C1165 1.393 . S
C1162 H1154 0.952 1_655 S
C1162 C1160 1.390 . S
C1162 C1163 1.400 . S
C1163 C1162 1.400 . S
C1163 C1164 1.398 . S
C1163 C1169 1.491 1_655 S
C1164 H1155 0.950 . S
C1164 C1163 1.398 . S
C1164 C1165 1.391 . S
C1165 H1153 0.950 . S
C1165 C1161 1.393 . S
C1165 C1164 1.391 . S
C1166 H1156 0.950 . S
C1166 C1167 1.386 . S
C1166 C1168 1.390 . S
C1167 C1166 1.386 . S
C1167 C1171 1.393 . S
C1168 H1157 0.952 1_455 S
C1168 C1166 1.390 . S
C1168 C1169 1.400 . S
C1169 C1163 1.491 1_455 S
C1169 C1168 1.400 . S
C1169 C1170 1.398 . S
C1170 H1158 0.950 . S
C1170 C1169 1.398 . S
C1170 C1171 1.391 . S
C1171 H1159 0.950 . S
C1171 C1167 1.393 . S
C1171 C1170 1.391 . S
H1172 C1180 0.950 . S
H1173 C1185 0.950 . S
H1174 C1182 0.950 . S
H1175 C1184 0.950 . S
H1176 C1186 0.950 . S
H1177 C1188 0.950 . S
H1178 C1190 0.950 . S
H1179 C1191 0.950 . S
C1180 H1172 0.950 . S
C1180 C1181 1.386 . S
C1180 C1182 1.391 . S
C1181 C1180 1.386 . S
C1181 C1185 1.393 . S
C1182 H1174 0.950 . S
C1182 C1180 1.391 . S
C1182 C1183 1.400 . S
C1183 C1182 1.400 . S
C1183 C1184 1.398 . S
C1183 C1189 1.491 1_565 S
C1184 H1175 0.950 . S
C1184 C1183 1.398 . S
C1184 C1185 1.391 . S
C1185 H1173 0.950 . S
C1185 C1181 1.393 . S
C1185 C1184 1.391 . S
C1186 H1176 0.950 . S
C1186 C1187 1.386 . S
C1186 C1188 1.391 . S
C1187 C1186 1.386 . S
C1187 C1191 1.393 . S
C1188 H1177 0.950 . S
C1188 C1186 1.391 . S
C1188 C1189 1.400 . S
C1189 C1183 1.491 1_545 S
C1189 C1188 1.400 . S
C1189 C1190 1.398 . S
C1190 H1178 0.950 . S
C1190 C1189 1.398 . S
C1190 C1191 1.391 . S
C1191 H1179 0.950 . S
C1191 C1187 1.393 . S
C1191 C1190 1.391 . S
H1192 C1200 0.950 . S
H1193 C1205 0.950 . S
H1194 C1202 0.950 1_455 S
H1195 C1204 0.950 . S
H1196 C1206 0.950 . S
H1197 C1208 0.950 1_655 S
H1198 C1210 0.950 . S
H1199 C1211 0.950 . S
C1200 H1192 0.950 . S
C1200 C1201 1.386 . S
C1200 C1202 1.391 . S
C1201 C1200 1.386 . S
C1201 C1205 1.393 . S
C1202 H1194 0.950 1_655 S
C1202 C1200 1.391 . S
C1202 C1203 1.400 . S
C1203 C1202 1.400 . S
C1203 C1204 1.398 . S
C1203 C1209 1.491 1_655 S
C1204 H1195 0.950 . S
C1204 C1203 1.398 . S
C1204 C1205 1.391 . S
C1205 H1193 0.950 . S
C1205 C1201 1.393 . S
C1205 C1204 1.391 . S
C1206 H1196 0.950 . S
C1206 C1207 1.386 . S
C1206 C1208 1.391 . S
C1207 C1206 1.386 . S
C1207 C1211 1.393 . S
C1208 H1197 0.950 1_455 S
C1208 C1206 1.391 . S
C1208 C1209 1.400 . S
C1209 C1203 1.491 1_455 S
C1209 C1208 1.400 . S
C1209 C1210 1.398 . S
C1210 H1198 0.950 . S
C1210 C1209 1.398 . S
C1210 C1211 1.391 . S
C1211 H1199 0.950 . S
C1211 C1207 1.393 . S
C1211 C1210 1.391 . S
H1212 C1220 0.950 . S
H1213 C1225 0.950 . S
H1214 C1222 0.950 . S
H1215 C1224 0.950 . S
H1216 C1226 0.950 . S
H1217 C1228 0.950 . S
H1218 C1230 0.950 . S
H1219 C1231 0.950 . S
C1220 H1212 0.950 . S
C1220 C1221 1.386 . S
C1220 C1222 1.391 . S
C1221 C1220 1.386 . S
C1221 C1225 1.393 . S
C1222 H1214 0.950 . S
C1222 C1220 1.391 . S
C1222 C1223 1.400 . S
C1223 C1222 1.400 . S
C1223 C1224 1.398 . S
C1223 C1229 1.491 1_545 S
C1224 H1215 0.950 . S
C1224 C1223 1.398 . S
C1224 C1225 1.391 . S
C1225 H1213 0.950 . S
C1225 C1221 1.393 . S
C1225 C1224 1.391 . S
C1226 H1216 0.950 . S
C1226 C1227 1.386 . S
C1226 C1228 1.391 . S
C1227 C1226 1.386 . S
C1227 C1231 1.393 . S
C1228 H1217 0.950 . S
C1228 C1226 1.391 . S
C1228 C1229 1.400 . S
C1229 C1223 1.491 1_565 S
C1229 C1228 1.400 . S
C1229 C1230 1.398 . S
C1230 H1218 0.950 . S
C1230 C1229 1.398 . S
C1230 C1231 1.391 . S
C1231 H1219 0.950 . S
C1231 C1227 1.393 . S
C1231 C1230 1.391 . S
H1232 C1240 0.950 1_655 S
H1233 C1245 0.950 . S
H1234 C1242 0.950 . S
H1235 C1244 0.950 . S
H1236 C1246 0.950 1_455 S
H1237 C1248 0.950 . S
H1238 C1250 0.950 . S
H1239 C1251 0.950 . S
C1240 H1232 0.950 1_455 S
C1240 C1241 1.386 . S
C1240 C1242 1.391 1_455 S
C1241 C1240 1.386 . S
C1241 C1245 1.393 . S
C1242 H1234 0.950 . S
C1242 C1240 1.391 1_655 S
C1242 C1243 1.400 1_655 S
C1243 C1242 1.400 1_455 S
C1243 C1244 1.398 . S
C1243 C1249 1.491 1_455 S
C1244 H1235 0.950 . S
C1244 C1243 1.398 . S
C1244 C1245 1.391 . S
C1245 H1233 0.950 . S
C1245 C1241 1.393 . S
C1245 C1244 1.391 . S
C1246 H1236 0.950 1_655 S
C1246 C1247 1.386 . S
C1246 C1248 1.391 1_655 S
C1247 C1246 1.386 . S
C1247 C1251 1.393 . S
C1248 H1237 0.950 . S
C1248 C1246 1.391 1_455 S
C1248 C1249 1.400 1_455 S
C1249 C1243 1.491 1_655 S
C1249 C1248 1.400 1_655 S
C1249 C1250 1.398 . S
C1250 H1238 0.950 . S
C1250 C1249 1.398 . S
C1250 C1251 1.391 . S
C1251 H1239 0.950 . S
C1251 C1247 1.393 . S
C1251 C1250 1.391 . S
H1252 C1260 0.950 . S
H1253 C1265 0.950 . S
H1254 C1262 0.950 . S
H1255 C1264 0.950 . S
H1256 C1266 0.950 . S
H1257 C1268 0.950 . S
H1258 C1270 0.950 . S
H1259 C1271 0.950 . S
C1260 H1252 0.950 . S
C1260 C1261 1.386 . S
C1260 C1262 1.391 . S
C1261 C1260 1.386 . S
C1261 C1265 1.393 . S
C1262 H1254 0.950 . S
C1262 C1260 1.391 . S
C1262 C1263 1.400 . S
C1263 C1262 1.400 . S
C1263 C1264 1.398 1_565 S
C1263 C1269 1.491 1_565 S
C1264 H1255 0.950 . S
C1264 C1263 1.398 1_545 S
C1264 C1265 1.391 1_545 S
C1265 H1253 0.950 . S
C1265 C1261 1.393 . S
C1265 C1264 1.391 1_565 S
C1266 H1256 0.950 . S
C1266 C1267 1.386 . S
C1266 C1268 1.391 . S
C1267 C1266 1.386 . S
C1267 C1271 1.393 . S
C1268 H1257 0.950 . S
C1268 C1266 1.391 . S
C1268 C1269 1.400 . S
C1269 C1263 1.491 1_545 S
C1269 C1268 1.400 . S
C1269 C1270 1.398 1_545 S
C1270 H1258 0.950 . S
C1270 C1269 1.398 1_565 S
C1270 C1271 1.391 1_565 S
C1271 H1259 0.950 . S
C1271 C1267 1.393 . S
C1271 C1270 1.391 1_545 S
H1272 C1280 0.950 . S
H1273 C1285 0.950 . S
H1274 C1282 0.950 . S
H1275 C1284 0.950 1_655 S
H1276 C1286 0.950 . S
H1277 C1288 0.950 . S
H1278 C1290 0.950 1_455 S
H1279 C1291 0.950 . S
C1280 H1272 0.950 . S
C1280 C1281 1.386 . S
C1280 C1282 1.391 . S
C1281 C1280 1.386 . S
C1281 C1285 1.393 . S
C1282 H1274 0.950 . S
C1282 C1280 1.391 . S
C1282 C1283 1.400 . S
C1283 C1282 1.400 . S
C1283 C1284 1.398 . S
C1283 C1289 1.491 1_455 S
C1284 H1275 0.950 1_455 S
C1284 C1283 1.398 . S
C1284 C1285 1.391 . S
C1285 H1273 0.950 . S
C1285 C1281 1.393 . S
C1285 C1284 1.391 . S
C1286 H1276 0.950 . S
C1286 C1287 1.386 . S
C1286 C1288 1.391 . S
C1287 C1286 1.386 . S
C1287 C1291 1.393 . S
C1288 H1277 0.950 . S
C1288 C1286 1.391 . S
C1288 C1289 1.400 . S
C1289 C1283 1.491 1_655 S
C1289 C1288 1.400 . S
C1289 C1290 1.398 . S
C1290 H1278 0.950 1_655 S
C1290 C1289 1.398 . S
C1290 C1291 1.391 . S
C1291 H1279 0.950 . S
C1291 C1287 1.393 . S
C1291 C1290 1.391 . S
H1292 C1300 0.950 . S
H1293 C1305 0.950 . S
H1294 C1302 0.950 1_565 S
H1295 C1304 0.950 . S
H1296 C1306 0.950 . S
H1297 C1308 0.950 1_545 S
H1298 C1310 0.950 . S
H1299 C1311 0.950 . S
C1300 H1292 0.950 . S
C1300 C1301 1.386 . S
C1300 C1302 1.391 . S
C1301 C1300 1.386 . S
C1301 C1305 1.393 . S
C1302 H1294 0.950 1_545 S
C1302 C1300 1.391 . S
C1302 C1303 1.400 . S
C1303 C1302 1.400 . S
C1303 C1304 1.398 . S
C1303 C1309 1.491 1_545 S
C1304 H1295 0.950 . S
C1304 C1303 1.398 . S
C1304 C1305 1.391 . S
C1305 H1293 0.950 . S
C1305 C1301 1.393 . S
C1305 C1304 1.391 . S
C1306 H1296 0.950 . S
C1306 C1307 1.386 . S
C1306 C1308 1.391 . S
C1307 C1306 1.386 . S
C1307 C1311 1.393 . S
C1308 H1297 0.950 1_565 S
C1308 C1306 1.391 . S
C1308 C1309 1.400 . S
C1309 C1303 1.491 1_565 S
C1309 C1308 1.400 . S
C1309 C1310 1.398 . S
C1310 H1298 0.950 . S
C1310 C1309 1.398 . S
C1310 C1311 1.391 . S
C1311 H1299 0.950 . S
C1311 C1307 1.393 . S
C1311 C1310 1.391 . S
H1312 C1320 0.950 . S
H1313 C1325 0.950 . S
H1314 C1322 0.950 1_554 S
H1315 C1324 0.950 . S
H1316 C1326 0.950 . S
H1317 C1328 0.950 1_556 S
H1318 C1330 0.950 . S
H1319 C1331 0.950 . S
C1320 H1312 0.950 . S
C1320 C1321 1.386 . S
C1320 C1322 1.391 . S
C1321 C1320 1.386 . S
C1321 C1325 1.393 . S
C1322 H1314 0.950 1_556 S
C1322 C1320 1.391 . S
C1322 C1323 1.400 . S
C1323 C1322 1.400 . S
C1323 C1324 1.398 . S
C1323 C1329 1.491 1_556 S
C1324 H1315 0.950 . S
C1324 C1323 1.398 . S
C1324 C1325 1.391 . S
C1325 H1313 0.950 . S
C1325 C1321 1.393 . S
C1325 C1324 1.391 . S
C1326 H1316 0.950 . S
C1326 C1327 1.386 . S
C1326 C1328 1.391 . S
C1327 C1326 1.386 . S
C1327 C1331 1.393 . S
C1328 H1317 0.950 1_554 S
C1328 C1326 1.391 . S
C1328 C1329 1.400 . S
C1329 C1323 1.491 1_554 S
C1329 C1328 1.400 . S
C1329 C1330 1.398 . S
C1330 H1318 0.950 . S
C1330 C1329 1.398 . S
C1330 C1331 1.391 . S
C1331 H1319 0.950 . S
C1331 C1327 1.393 . S
C1331 C1330 1.391 . S
H1332 C1340 0.950 . S
H1333 C1345 0.950 . S
H1334 C1342 0.952 1_556 S
H1335 C1344 0.950 . S
H1336 C1346 0.950 . S
H1337 C1348 0.952 1_554 S
H1338 C1350 0.950 . S
H1339 C1351 0.950 . S
C1340 H1332 0.950 . S
C1340 C1341 1.386 . S
C1340 C1342 1.391 . S
C1341 C1340 1.386 . S
C1341 C1345 1.393 . S
C1342 H1334 0.952 1_554 S
C1342 C1340 1.391 . S
C1342 C1343 1.400 . S
C1343 C1342 1.400 . S
C1343 C1344 1.398 . S
C1343 C1349 1.491 1_554 S
C1344 H1335 0.950 . S
C1344 C1343 1.398 . S
C1344 C1345 1.391 . S
C1345 H1333 0.950 . S
C1345 C1341 1.393 . S
C1345 C1344 1.391 . S
C1346 H1336 0.950 . S
C1346 C1347 1.386 . S
C1346 C1348 1.391 . S
C1347 C1346 1.386 . S
C1347 C1351 1.393 . S
C1348 H1337 0.952 1_556 S
C1348 C1346 1.391 . S
C1348 C1349 1.400 . S
C1349 C1343 1.491 1_556 S
C1349 C1348 1.400 . S
C1349 C1350 1.398 . S
C1350 H1338 0.950 . S
C1350 C1349 1.398 . S
C1350 C1351 1.391 . S
C1351 H1339 0.950 . S
C1351 C1347 1.393 . S
C1351 C1350 1.391 . S
H1352 C1360 0.950 . S
H1353 C1365 0.950 1_556 S
H1354 C1362 0.950 . S
H1355 C1364 0.950 . S
H1356 C1366 0.950 . S
H1357 C1368 0.950 . S
H1358 C1370 0.950 . S
H1359 C1371 0.950 1_554 S
C1360 H1352 0.950 . S
C1360 C1361 1.386 . S
C1360 C1362 1.391 . S
C1361 C1360 1.386 . S
C1361 C1365 1.393 . S
C1362 H1354 0.950 . S
C1362 C1360 1.391 . S
C1362 C1363 1.400 . S
C1363 C1362 1.400 . S
C1363 C1364 1.398 1_554 S
C1363 C1369 1.491 1_554 S
C1364 H1355 0.950 . S
C1364 C1363 1.398 1_556 S
C1364 C1365 1.391 1_556 S
C1365 H1353 0.950 1_554 S
C1365 C1361 1.393 . S
C1365 C1364 1.391 1_554 S
C1366 H1356 0.950 . S
C1366 C1367 1.386 . S
C1366 C1368 1.391 . S
C1367 C1366 1.386 . S
C1367 C1371 1.393 . S
C1368 H1357 0.950 . S
C1368 C1366 1.391 . S
C1368 C1369 1.400 . S
C1369 C1363 1.491 1_556 S
C1369 C1368 1.400 . S
C1369 C1370 1.398 1_556 S
C1370 H1358 0.950 . S
C1370 C1369 1.398 1_554 S
C1370 C1371 1.391 1_554 S
C1371 H1359 0.950 1_556 S
C1371 C1367 1.393 . S
C1371 C1370 1.391 1_556 S
H1372 C1380 0.951 1_554 S
H1373 C1385 0.950 . S
H1374 C1382 0.950 . S
H1375 C1384 0.950 . S
H1376 C1386 0.951 1_556 S
H1377 C1388 0.950 . S
H1378 C1390 0.950 . S
H1379 C1391 0.950 . S
C1380 H1372 0.951 1_556 S
C1380 C1381 1.386 . S
C1380 C1382 1.391 1_556 S
C1381 C1380 1.386 . S
C1381 C1385 1.393 . S
C1382 H1374 0.950 . S
C1382 C1380 1.391 1_554 S
C1382 C1383 1.400 1_554 S
C1383 C1382 1.400 1_556 S
C1383 C1384 1.398 . S
C1383 C1389 1.491 1_556 S
C1384 H1375 0.950 . S
C1384 C1383 1.398 . S
C1384 C1385 1.391 . S
C1385 H1373 0.950 . S
C1385 C1381 1.393 . S
C1385 C1384 1.391 . S
C1386 H1376 0.951 1_554 S
C1386 C1387 1.386 . S
C1386 C1388 1.391 1_554 S
C1387 C1386 1.386 . S
C1387 C1391 1.393 . S
C1388 H1377 0.950 . S
C1388 C1386 1.391 1_556 S
C1388 C1389 1.400 1_556 S
C1389 C1383 1.491 1_554 S
C1389 C1388 1.400 1_554 S
C1389 C1390 1.398 . S
C1390 H1378 0.950 . S
C1390 C1389 1.398 . S
C1390 C1391 1.391 . S
C1391 H1379 0.950 . S
C1391 C1387 1.393 . S
C1391 C1390 1.391 . S
H1392 C1400 0.950 . S
H1393 C1405 0.950 . S
H1394 C1402 0.950 . S
H1395 C1404 0.950 . S
H1396 C1406 0.950 . S
H1397 C1408 0.950 . S
H1398 C1410 0.950 . S
H1399 C1411 0.950 . S
C1400 H1392 0.950 . S
C1400 C1401 1.386 . S
C1400 C1402 1.391 . S
C1401 C1400 1.386 . S
C1401 C1405 1.393 . S
C1402 H1394 0.950 . S
C1402 C1400 1.391 . S
C1402 C1403 1.400 . S
C1403 C1402 1.400 . S
C1403 C1404 1.398 . S
C1403 C1409 1.491 . S
C1404 H1395 0.950 . S
C1404 C1403 1.398 . S
C1404 C1405 1.391 . S
C1405 H1393 0.950 . S
C1405 C1401 1.393 . S
C1405 C1404 1.391 . S
C1406 H1396 0.950 . S
C1406 C1407 1.386 . S
C1406 C1408 1.391 . S
C1407 C1406 1.386 . S
C1407 C1411 1.393 . S
C1408 H1397 0.950 . S
C1408 C1406 1.391 . S
C1408 C1409 1.400 . S
C1409 C1403 1.491 . S
C1409 C1408 1.400 . S
C1409 C1410 1.398 . S
C1410 H1398 0.950 . S
C1410 C1409 1.398 . S
C1410 C1411 1.391 . S
C1411 H1399 0.950 . S
C1411 C1407 1.393 . S
C1411 C1410 1.391 . S
H1412 C1420 0.950 . S
H1413 C1425 0.950 . S
H1414 C1422 0.950 . S
H1415 C1424 0.950 . S
H1416 C1426 0.950 . S
H1417 C1428 0.950 . S
H1418 C1430 0.950 . S
H1419 C1431 0.950 . S
C1420 H1412 0.950 . S
C1420 C1421 1.386 . S
C1420 C1422 1.391 . S
C1421 C1420 1.386 . S
C1421 C1425 1.393 . S
C1422 H1414 0.950 . S
C1422 C1420 1.391 . S
C1422 C1423 1.400 . S
C1423 C1422 1.400 . S
C1423 C1424 1.398 . S
C1423 C1429 1.491 . S
C1424 H1415 0.950 . S
C1424 C1423 1.398 . S
C1424 C1425 1.391 . S
C1425 H1413 0.950 . S
C1425 C1421 1.393 . S
C1425 C1424 1.391 . S
C1426 H1416 0.950 . S
C1426 C1427 1.386 . S
C1426 C1428 1.391 . S
C1427 C1426 1.386 . S
C1427 C1431 1.393 . S
C1428 H1417 0.950 . S
C1428 C1426 1.391 . S
C1428 C1429 1.400 . S
C1429 C1423 1.491 . S
C1429 C1428 1.400 . S
C1429 C1430 1.398 . S
C1430 H1418 0.950 . S
C1430 C1429 1.398 . S
C1430 C1431 1.391 . S
C1431 H1419 0.950 . S
C1431 C1427 1.393 . S
C1431 C1430 1.391 . S
H1432 C1440 0.950 . S
H1433 C1445 0.950 . S
H1434 C1442 0.950 . S
H1435 C1444 0.950 . S
H1436 C1446 0.950 . S
H1437 C1448 0.950 . S
H1438 C1450 0.950 . S
H1439 C1451 0.950 . S
C1440 H1432 0.950 . S
C1440 C1441 1.386 . S
C1440 C1442 1.391 . S
C1441 C1440 1.386 . S
C1441 C1445 1.393 . S
C1442 H1434 0.950 . S
C1442 C1440 1.391 . S
C1442 C1443 1.400 . S
C1443 C1442 1.400 . S
C1443 C1444 1.398 . S
C1443 C1449 1.491 . S
C1444 H1435 0.950 . S
C1444 C1443 1.398 . S
C1444 C1445 1.391 . S
C1445 H1433 0.950 . S
C1445 C1441 1.393 . S
C1445 C1444 1.391 . S
C1446 H1436 0.950 . S
C1446 C1447 1.386 . S
C1446 C1448 1.391 . S
C1447 C1446 1.386 . S
C1447 C1451 1.393 . S
C1448 H1437 0.950 . S
C1448 C1446 1.391 . S
C1448 C1449 1.400 . S
C1449 C1443 1.491 . S
C1449 C1448 1.400 . S
C1449 C1450 1.398 . S
C1450 H1438 0.950 . S
C1450 C1449 1.398 . S
C1450 C1451 1.391 . S
C1451 H1439 0.950 . S
C1451 C1447 1.393 . S
C1451 C1450 1.391 . S
H1452 C1460 0.950 . S
H1453 C1465 0.950 . S
H1454 C1462 0.950 . S
H1455 C1464 0.950 . S
H1456 C1466 0.950 . S
H1457 C1468 0.950 . S
H1458 C1470 0.950 . S
H1459 C1471 0.950 . S
C1460 H1452 0.950 . S
C1460 C1461 1.386 . S
C1460 C1462 1.391 . S
C1461 C1460 1.386 . S
C1461 C1465 1.393 . S
C1462 H1454 0.950 . S
C1462 C1460 1.391 . S
C1462 C1463 1.400 . S
C1463 C1462 1.400 . S
C1463 C1464 1.398 . S
C1463 C1469 1.491 . S
C1464 H1455 0.950 . S
C1464 C1463 1.398 . S
C1464 C1465 1.391 . S
C1465 H1453 0.950 . S
C1465 C1461 1.393 . S
C1465 C1464 1.391 . S
C1466 H1456 0.950 . S
C1466 C1467 1.386 . S
C1466 C1468 1.391 . S
C1467 C1466 1.386 . S
C1467 C1471 1.393 . S
C1468 H1457 0.950 . S
C1468 C1466 1.391 . S
C1468 C1469 1.400 . S
C1469 C1463 1.491 . S
C1469 C1468 1.400 . S
C1469 C1470 1.398 . S
C1470 H1458 0.950 . S
C1470 C1469 1.398 . S
C1470 C1471 1.391 . S
C1471 H1459 0.950 . S
C1471 C1467 1.393 . S
C1471 C1470 1.391 . S
H1472 C1480 0.950 . S
H1473 C1485 0.950 . S
H1474 C1482 0.950 . S
H1475 C1484 0.950 . S
H1476 C1486 0.950 . S
H1477 C1488 0.950 . S
H1478 C1490 0.950 . S
H1479 C1491 0.950 . S
C1480 H1472 0.950 . S
C1480 C1481 1.386 . S
C1480 C1482 1.391 . S
C1481 C1480 1.386 . S
C1481 C1485 1.393 . S
C1482 H1474 0.950 . S
C1482 C1480 1.391 . S
C1482 C1483 1.400 . S
C1483 C1482 1.400 . S
C1483 C1484 1.398 . S
C1483 C1489 1.491 . S
C1484 H1475 0.950 . S
C1484 C1483 1.398 . S
C1484 C1485 1.391 . S
C1485 H1473 0.950 . S
C1485 C1481 1.393 . S
C1485 C1484 1.391 . S
C1486 H1476 0.950 . S
C1486 C1487 1.386 . S
C1486 C1488 1.391 . S
C1487 C1486 1.386 . S
C1487 C1491 1.393 . S
C1488 H1477 0.950 . S
C1488 C1486 1.391 . S
C1488 C1489 1.400 . S
C1489 C1483 1.491 . S
C1489 C1488 1.400 . S
C1489 C1490 1.398 . S
C1490 H1478 0.950 . S
C1490 C1489 1.398 . S
C1490 C1491 1.391 . S
C1491 H1479 0.950 . S
C1491 C1487 1.393 . S
C1491 C1490 1.391 . S
H1492 C1500 0.950 . S
H1493 C1505 0.950 . S
H1494 C1502 0.950 . S
H1495 C1504 0.950 . S
H1496 C1506 0.950 . S
H1497 C1508 0.950 . S
H1498 C1510 0.950 . S
H1499 C1511 0.950 . S
C1500 H1492 0.950 . S
C1500 C1501 1.386 . S
C1500 C1502 1.391 . S
C1501 C1500 1.386 . S
C1501 C1505 1.393 . S
C1502 H1494 0.950 . S
C1502 C1500 1.391 . S
C1502 C1503 1.400 . S
C1503 C1502 1.400 . S
C1503 C1504 1.398 . S
C1503 C1509 1.491 . S
C1504 H1495 0.950 . S
C1504 C1503 1.398 . S
C1504 C1505 1.391 . S
C1505 H1493 0.950 . S
C1505 C1501 1.393 . S
C1505 C1504 1.391 . S
C1506 H1496 0.950 . S
C1506 C1507 1.386 . S
C1506 C1508 1.391 . S
C1507 C1506 1.386 . S
C1507 C1511 1.393 . S
C1508 H1497 0.950 . S
C1508 C1506 1.391 . S
C1508 C1509 1.400 . S
C1509 C1503 1.491 . S
C1509 C1508 1.400 . S
C1509 C1510 1.398 . S
C1510 H1498 0.950 . S
C1510 C1509 1.398 . S
C1510 C1511 1.391 . S
C1511 H1499 0.950 . S
C1511 C1507 1.393 . S
C1511 C1510 1.391 . S
H1512 C1520 0.950 . S
H1513 C1525 0.950 . S
H1514 C1522 0.950 . S
H1515 C1524 0.950 . S
H1516 C1526 0.950 . S
H1517 C1528 0.950 . S
H1518 C1530 0.950 . S
H1519 C1531 0.950 . S
C1520 H1512 0.950 . S
C1520 C1521 1.386 . S
C1520 C1522 1.391 . S
C1521 C1520 1.386 . S
C1521 C1525 1.393 . S
C1522 H1514 0.950 . S
C1522 C1520 1.391 . S
C1522 C1523 1.400 . S
C1523 C1522 1.400 . S
C1523 C1524 1.398 . S
C1523 C1529 1.491 . S
C1524 H1515 0.950 . S
C1524 C1523 1.398 . S
C1524 C1525 1.391 . S
C1525 H1513 0.950 . S
C1525 C1521 1.393 . S
C1525 C1524 1.391 . S
C1526 H1516 0.950 . S
C1526 C1527 1.386 . S
C1526 C1528 1.391 . S
C1527 C1526 1.386 . S
C1527 C1531 1.393 . S
C1528 H1517 0.950 . S
C1528 C1526 1.391 . S
C1528 C1529 1.400 . S
C1529 C1523 1.491 . S
C1529 C1528 1.400 . S
C1529 C1530 1.398 . S
C1530 H1518 0.950 . S
C1530 C1529 1.398 . S
C1530 C1531 1.391 . S
C1531 H1519 0.950 . S
C1531 C1527 1.393 . S
C1531 C1530 1.391 . S
H1532 C1540 0.950 . S
H1533 C1545 0.950 . S
H1534 C1542 0.950 . S
H1535 C1544 0.950 . S
H1536 C1546 0.950 . S
H1537 C1548 0.950 . S
H1538 C1550 0.950 . S
H1539 C1551 0.950 . S
C1540 H1532 0.950 . S
C1540 C1541 1.386 . S
C1540 C1542 1.391 . S
C1541 C1540 1.386 . S
C1541 C1545 1.393 . S
C1542 H1534 0.950 . S
C1542 C1540 1.391 . S
C1542 C1543 1.400 . S
C1543 C1542 1.400 . S
C1543 C1544 1.398 . S
C1543 C1549 1.491 . S
C1544 H1535 0.950 . S
C1544 C1543 1.398 . S
C1544 C1545 1.391 . S
C1545 H1533 0.950 . S
C1545 C1541 1.393 . S
C1545 C1544 1.391 . S
C1546 H1536 0.950 . S
C1546 C1547 1.386 . S
C1546 C1548 1.391 . S
C1547 C1546 1.386 . S
C1547 C1551 1.393 . S
C1548 H1537 0.950 . S
C1548 C1546 1.391 . S
C1548 C1549 1.400 . S
C1549 C1543 1.491 . S
C1549 C1548 1.400 . S
C1549 C1550 1.398 . S
C1550 H1538 0.950 . S
C1550 C1549 1.398 . S
C1550 C1551 1.391 . S
C1551 H1539 0.950 . S
C1551 C1547 1.393 . S
C1551 C1550 1.391 . S
H1552 C1560 0.950 . S
H1553 C1565 0.950 . S
H1554 C1562 0.950 . S
H1555 C1564 0.950 . S
H1556 C1566 0.950 . S
H1557 C1568 0.950 . S
H1558 C1570 0.950 . S
H1559 C1571 0.950 . S
C1560 H1552 0.950 . S
C1560 C1561 1.386 . S
C1560 C1562 1.391 . S
C1561 C1560 1.386 . S
C1561 C1565 1.393 . S
C1562 H1554 0.950 . S
C1562 C1560 1.391 . S
C1562 C1563 1.400 . S
C1563 C1562 1.400 . S
C1563 C1564 1.398 . S
C1563 C1569 1.491 . S
C1564 H1555 0.950 . S
C1564 C1563 1.398 . S
C1564 C1565 1.391 . S
C1565 H1553 0.950 . S
C1565 C1561 1.393 . S
C1565 C1564 1.391 . S
C1566 H1556 0.950 . S
C1566 C1567 1.386 . S
C1566 C1568 1.391 . S
C1567 C1566 1.386 . S
C1567 C1571 1.393 . S
C1568 H1557 0.950 . S
C1568 C1566 1.391 . S
C1568 C1569 1.400 . S
C1569 C1563 1.491 . S
C1569 C1568 1.400 . S
C1569 C1570 1.398 . S
C1570 H1558 0.950 . S
C1570 C1569 1.398 . S
C1570 C1571 1.391 . S
C1571 H1559 0.950 . S
C1571 C1567 1.393 . S
C1571 C1570 1.391 . S
H1572 C1580 0.950 . S
H1573 C1585 0.950 . S
H1574 C1582 0.950 . S
H1575 C1584 0.950 . S
H1576 C1586 0.950 . S
H1577 C1588 0.950 . S
H1578 C1590 0.950 . S
H1579 C1591 0.950 . S
C1580 H1572 0.950 . S
C1580 C1581 1.386 . S
C1580 C1582 1.391 . S
C1581 C1580 1.386 . S
C1581 C1585 1.393 . S
C1582 H1574 0.950 . S
C1582 C1580 1.391 . S
C1582 C1583 1.400 . S
C1583 C1582 1.400 . S
C1583 C1584 1.398 . S
C1583 C1589 1.491 . S
C1584 H1575 0.950 . S
C1584 C1583 1.398 . S
C1584 C1585 1.391 . S
C1585 H1573 0.950 . S
C1585 C1581 1.393 . S
C1585 C1584 1.391 . S
C1586 H1576 0.950 . S
C1586 C1587 1.386 . S
C1586 C1588 1.391 . S
C1587 C1586 1.386 . S
C1587 C1591 1.393 . S
C1588 H1577 0.950 . S
C1588 C1586 1.391 . S
C1588 C1589 1.400 . S
C1589 C1583 1.491 . S
C1589 C1588 1.400 . S
C1589 C1590 1.398 . S
C1590 H1578 0.950 . S
C1590 C1589 1.398 . S
C1590 C1591 1.391 . S
C1591 H1579 0.950 . S
C1591 C1587 1.393 . S
C1591 C1590 1.391 . S
H1592 C1600 0.950 . S
H1593 C1605 0.950 . S
H1594 C1602 0.950 . S
H1595 C1604 0.950 . S
H1596 C1606 0.950 . S
H1597 C1608 0.950 . S
H1598 C1610 0.950 . S
H1599 C1611 0.950 . S
C1600 H1592 0.950 . S
C1600 C1601 1.386 . S
C1600 C1602 1.391 . S
C1601 C1600 1.386 . S
C1601 C1605 1.393 . S
C1602 H1594 0.950 . S
C1602 C1600 1.391 . S
C1602 C1603 1.400 . S
C1603 C1602 1.400 . S
C1603 C1604 1.398 . S
C1603 C1609 1.491 . S
C1604 H1595 0.950 . S
C1604 C1603 1.398 . S
C1604 C1605 1.391 . S
C1605 H1593 0.950 . S
C1605 C1601 1.393 . S
C1605 C1604 1.391 . S
C1606 H1596 0.950 . S
C1606 C1607 1.386 . S
C1606 C1608 1.391 . S
C1607 C1606 1.386 . S
C1607 C1611 1.393 . S
C1608 H1597 0.950 . S
C1608 C1606 1.391 . S
C1608 C1609 1.400 . S
C1609 C1603 1.491 . S
C1609 C1608 1.400 . S
C1609 C1610 1.398 . S
C1610 H1598 0.950 . S
C1610 C1609 1.398 . S
C1610 C1611 1.391 . S
C1611 H1599 0.950 . S
C1611 C1607 1.393 . S
C1611 C1610 1.391 . S
H1612 C1620 0.950 . S
H1613 C1625 0.950 . S
H1614 C1622 0.950 . S
H1615 C1624 0.950 . S
H1616 C1626 0.950 . S
H1617 C1628 0.950 . S
H1618 C1630 0.950 . S
H1619 C1631 0.950 . S
C1620 H1612 0.950 . S
C1620 C1621 1.386 . S
C1620 C1622 1.391 . S
C1621 C1620 1.386 . S
C1621 C1625 1.393 . S
C1622 H1614 0.950 . S
C1622 C1620 1.391 . S
C1622 C1623 1.400 . S
C1623 C1622 1.400 . S
C1623 C1624 1.398 . S
C1623 C1629 1.491 . S
C1624 H1615 0.950 . S
C1624 C1623 1.398 . S
C1624 C1625 1.391 . S
C1625 H1613 0.950 . S
C1625 C1621 1.393 . S
C1625 C1624 1.391 . S
C1626 H1616 0.950 . S
C1626 C1627 1.386 . S
C1626 C1628 1.391 . S
C1627 C1626 1.386 . S
C1627 C1631 1.393 . S
C1628 H1617 0.950 . S
C1628 C1626 1.391 . S
C1628 C1629 1.400 . S
C1629 C1623 1.491 . S
C1629 C1628 1.400 . S
C1629 C1630 1.398 . S
C1630 H1618 0.950 . S
C1630 C1629 1.398 . S
C1630 C1631 1.391 . S
C1631 H1619 0.950 . S
C1631 C1627 1.393 . S
C1631 C1630 1.391 . S
H1632 C1640 0.950 . S
H1633 C1645 0.950 . S
H1634 C1642 0.950 . S
H1635 C1644 0.950 . S
H1636 C1646 0.950 1_556 S
H1637 C1648 0.950 . S
H1638 C1650 0.950 . S
H1639 C1651 0.950 . S
C1640 H1632 0.950 . S
C1640 C1641 1.386 . S
C1640 C1642 1.391 . S
C1641 C1640 1.386 . S
C1641 C1645 1.393 . S
C1642 H1634 0.950 . S
C1642 C1640 1.391 . S
C1642 C1643 1.400 . S
C1643 C1642 1.400 . S
C1643 C1644 1.398 . S
C1643 C1649 1.491 . S
C1644 H1635 0.950 . S
C1644 C1643 1.398 . S
C1644 C1645 1.391 . S
C1645 H1633 0.950 . S
C1645 C1641 1.393 . S
C1645 C1644 1.391 . S
C1646 H1636 0.950 1_554 S
C1646 C1647 1.386 . S
C1646 C1648 1.391 . S
C1647 C1646 1.386 . S
C1647 C1651 1.393 . S
C1648 H1637 0.950 . S
C1648 C1646 1.391 . S
C1648 C1649 1.400 . S
C1649 C1643 1.491 . S
C1649 C1648 1.400 . S
C1649 C1650 1.398 . S
C1650 H1638 0.950 . S
C1650 C1649 1.398 . S
C1650 C1651 1.391 . S
C1651 H1639 0.950 . S
C1651 C1647 1.393 . S
C1651 C1650 1.391 . S
H1652 C1660 0.950 . S
H1653 C1665 0.950 . S
H1654 C1662 0.950 . S
H1655 C1664 0.950 . S
H1656 C1666 0.950 . S
H1657 C1668 0.950 . S
H1658 C1670 0.950 . S
H1659 C1671 0.950 . S
C1660 H1652 0.950 . S
C1660 C1661 1.386 . S
C1660 C1662 1.391 . S
C1661 C1660 1.386 . S
C1661 C1665 1.393 . S
C1662 H1654 0.950 . S
C1662 C1660 1.391 . S
C1662 C1663 1.400 . S
C1663 C1662 1.400 . S
C1663 C1664 1.398 . S
C1663 C1669 1.491 . S
C1664 H1655 0.950 . S
C1664 C1663 1.398 . S
C1664 C1665 1.391 . S
C1665 H1653 0.950 . S
C1665 C1661 1.393 . S
C1665 C1664 1.391 . S
C1666 H1656 0.950 . S
C1666 C1667 1.386 . S
C1666 C1668 1.391 . S
C1667 C1666 1.386 . S
C1667 C1671 1.393 . S
C1668 H1657 0.950 . S
C1668 C1666 1.391 . S
C1668 C1669 1.400 . S
C1669 C1663 1.491 . S
C1669 C1668 1.400 . S
C1669 C1670 1.398 . S
C1670 H1658 0.950 . S
C1670 C1669 1.398 . S
C1670 C1671 1.391 . S
C1671 H1659 0.950 . S
C1671 C1667 1.393 . S
C1671 C1670 1.391 . S
H1672 C1680 0.950 . S
H1673 C1685 0.950 . S
H1674 C1682 0.950 . S
H1675 C1684 0.950 . S
H1676 C1686 0.950 1_556 S
H1677 C1688 0.950 . S
H1678 C1690 0.950 . S
H1679 C1691 0.950 . S
C1680 H1672 0.950 . S
C1680 C1681 1.386 . S
C1680 C1682 1.391 . S
C1681 C1680 1.386 . S
C1681 C1685 1.393 . S
C1682 H1674 0.950 . S
C1682 C1680 1.391 . S
C1682 C1683 1.400 . S
C1683 C1682 1.400 . S
C1683 C1684 1.398 . S
C1683 C1689 1.491 . S
C1684 H1675 0.950 . S
C1684 C1683 1.398 . S
C1684 C1685 1.391 . S
C1685 H1673 0.950 . S
C1685 C1681 1.393 . S
C1685 C1684 1.391 . S
C1686 H1676 0.950 1_554 S
C1686 C1687 1.386 . S
C1686 C1688 1.391 . S
C1687 C1686 1.386 . S
C1687 C1691 1.393 . S
C1688 H1677 0.950 . S
C1688 C1686 1.391 . S
C1688 C1689 1.400 . S
C1689 C1683 1.491 . S
C1689 C1688 1.400 . S
C1689 C1690 1.398 . S
C1690 H1678 0.950 . S
C1690 C1689 1.398 . S
C1690 C1691 1.391 . S
C1691 H1679 0.950 . S
C1691 C1687 1.393 . S
C1691 C1690 1.391 . S
H1692 C1700 0.950 . S
H1693 C1705 0.950 1_556 S
H1694 C1702 0.950 . S
H1695 C1704 0.950 . S
H1696 C1706 0.950 . S
H1697 C1708 0.950 . S
H1698 C1710 0.950 . S
H1699 C1711 0.950 . S
C1700 H1692 0.950 . S
C1700 C1701 1.386 . S
C1700 C1702 1.391 . S
C1701 C1700 1.386 . S
C1701 C1705 1.393 . S
C1702 H1694 0.950 . S
C1702 C1700 1.391 . S
C1702 C1703 1.400 . S
C1703 C1702 1.400 . S
C1703 C1704 1.398 . S
C1703 C1709 1.491 . S
C1704 H1695 0.950 . S
C1704 C1703 1.398 . S
C1704 C1705 1.391 . S
C1705 H1693 0.950 1_554 S
C1705 C1701 1.393 . S
C1705 C1704 1.391 . S
C1706 H1696 0.950 . S
C1706 C1707 1.386 . S
C1706 C1708 1.391 . S
C1707 C1706 1.386 . S
C1707 C1711 1.393 . S
C1708 H1697 0.950 . S
C1708 C1706 1.391 . S
C1708 C1709 1.400 . S
C1709 C1703 1.491 . S
C1709 C1708 1.400 . S
C1709 C1710 1.398 . S
C1710 H1698 0.950 . S
C1710 C1709 1.398 . S
C1710 C1711 1.391 . S
C1711 H1699 0.950 . S
C1711 C1707 1.393 . S
C1711 C1710 1.391 . S
H1712 C1720 0.950 . S
H1713 C1725 0.950 . S
H1714 C1722 0.950 . S
H1715 C1724 0.950 . S
H1716 C1726 0.950 1_554 S
H1717 C1728 0.950 . S
H1718 C1730 0.950 . S
H1719 C1731 0.950 . S
C1720 H1712 0.950 . S
C1720 C1721 1.386 . S
C1720 C1722 1.391 . S
C1721 C1720 1.386 . S
C1721 C1725 1.393 . S
C1722 H1714 0.950 . S
C1722 C1720 1.391 . S
C1722 C1723 1.400 . S
C1723 C1722 1.400 . S
C1723 C1724 1.398 . S
C1723 C1729 1.491 . S
C1724 H1715 0.950 . S
C1724 C1723 1.398 . S
C1724 C1725 1.391 . S
C1725 H1713 0.950 . S
C1725 C1721 1.393 . S
C1725 C1724 1.391 . S
C1726 H1716 0.950 1_556 S
C1726 C1727 1.386 . S
C1726 C1728 1.391 . S
C1727 C1726 1.386 . S
C1727 C1731 1.393 . S
C1728 H1717 0.950 . S
C1728 C1726 1.391 . S
C1728 C1729 1.400 . S
C1729 C1723 1.491 . S
C1729 C1728 1.400 . S
C1729 C1730 1.398 . S
C1730 H1718 0.950 . S
C1730 C1729 1.398 . S
C1730 C1731 1.391 . S
C1731 H1719 0.950 . S
C1731 C1727 1.393 . S
C1731 C1730 1.391 . S
H1732 C1740 0.950 . S
H1733 C1745 0.950 . S
H1734 C1742 0.950 . S
H1735 C1744 0.950 . S
H1736 C1746 0.950 . S
H1737 C1748 0.950 . S
H1738 C1750 0.950 . S
H1739 C1751 0.950 . S
C1740 H1732 0.950 . S
C1740 C1741 1.386 . S
C1740 C1742 1.391 . S
C1741 C1740 1.386 . S
C1741 C1745 1.393 . S
C1742 H1734 0.950 . S
C1742 C1740 1.391 . S
C1742 C1743 1.400 . S
C1743 C1742 1.400 . S
C1743 C1744 1.398 . S
C1743 C1749 1.491 . S
C1744 H1735 0.950 . S
C1744 C1743 1.398 . S
C1744 C1745 1.391 . S
C1745 H1733 0.950 . S
C1745 C1741 1.393 . S
C1745 C1744 1.391 . S
C1746 H1736 0.950 . S
C1746 C1747 1.386 . S
C1746 C1748 1.391 . S
C1747 C1746 1.386 . S
C1747 C1751 1.393 . S
C1748 H1737 0.950 . S
C1748 C1746 1.391 . S
C1748 C1749 1.400 . S
C1749 C1743 1.491 . S
C1749 C1748 1.400 . S
C1749 C1750 1.398 . S
C1750 H1738 0.950 . S
C1750 C1749 1.398 . S
C1750 C1751 1.391 . S
C1751 H1739 0.950 . S
C1751 C1747 1.393 . S
C1751 C1750 1.391 . S
H1752 C1760 0.950 1_554 S
H1753 C1765 0.950 . S
H1754 C1762 0.950 . S
H1755 C1764 0.950 . S
H1756 C1766 0.950 . S
H1757 C1768 0.950 . S
H1758 C1770 0.950 . S
H1759 C1771 0.950 . S
C1760 H1752 0.950 1_556 S
C1760 C1761 1.386 . S
C1760 C1762 1.391 . S
C1761 C1760 1.386 . S
C1761 C1765 1.393 . S
C1762 H1754 0.950 . S
C1762 C1760 1.391 . S
C1762 C1763 1.400 . S
C1763 C1762 1.400 . S
C1763 C1764 1.398 . S
C1763 C1769 1.491 . S
C1764 H1755 0.950 . S
C1764 C1763 1.398 . S
C1764 C1765 1.391 . S
C1765 H1753 0.950 . S
C1765 C1761 1.393 . S
C1765 C1764 1.391 . S
C1766 H1756 0.950 . S
C1766 C1767 1.386 . S
C1766 C1768 1.391 . S
C1767 C1766 1.386 . S
C1767 C1771 1.393 . S
C1768 H1757 0.950 . S
C1768 C1766 1.391 . S
C1768 C1769 1.400 . S
C1769 C1763 1.491 . S
C1769 C1768 1.400 . S
C1769 C1770 1.398 . S
C1770 H1758 0.950 . S
C1770 C1769 1.398 . S
C1770 C1771 1.391 . S
C1771 H1759 0.950 . S
C1771 C1767 1.393 . S
C1771 C1770 1.391 . S
H1772 C1780 0.939 1_554 S
H1773 C1785 0.950 . S
H1774 C1782 0.950 . S
H1775 C1784 0.950 . S
H1776 C1786 0.950 . S
H1777 C1788 0.950 . S
H1778 C1790 0.950 . S
H1779 C1791 0.950 . S
C1780 H1772 0.939 1_556 S
C1780 C1781 1.386 . S
C1780 C1782 1.391 . S
C1781 C1780 1.386 . S
C1781 C1785 1.393 . S
C1782 H1774 0.950 . S
C1782 C1780 1.391 . S
C1782 C1783 1.400 . S
C1783 C1782 1.400 . S
C1783 C1784 1.398 . S
C1783 C1789 1.491 . S
C1784 H1775 0.950 . S
C1784 C1783 1.398 . S
C1784 C1785 1.391 . S
C1785 H1773 0.950 . S
C1785 C1781 1.393 . S
C1785 C1784 1.391 . S
C1786 H1776 0.950 . S
C1786 C1787 1.386 . S
C1786 C1788 1.391 . S
C1787 C1786 1.386 . S
C1787 C1791 1.393 . S
C1788 H1777 0.950 . S
C1788 C1786 1.391 . S
C1788 C1789 1.400 . S
C1789 C1783 1.491 . S
C1789 C1788 1.400 . S
C1789 C1790 1.398 . S
C1790 H1778 0.950 . S
C1790 C1789 1.398 . S
C1790 C1791 1.391 . S
C1791 H1779 0.950 . S
C1791 C1787 1.393 . S
C1791 C1790 1.391 . S
H1792 C1800 0.950 . S
H1793 C1805 0.950 . S
H1794 C1802 0.950 . S
H1795 C1804 0.950 . S
H1796 C1806 0.950 . S
H1797 C1808 0.950 . S
H1798 C1810 0.950 . S
H1799 C1811 0.950 1_655 S
C1800 H1792 0.950 . S
C1800 C1801 1.386 . S
C1800 C1802 1.391 . S
C1801 C1800 1.386 . S
C1801 C1805 1.393 . S
C1802 H1794 0.950 . S
C1802 C1800 1.391 . S
C1802 C1803 1.400 . S
C1803 C1802 1.400 . S
C1803 C1804 1.398 . S
C1803 C1809 1.491 . S
C1804 H1795 0.950 . S
C1804 C1803 1.398 . S
C1804 C1805 1.391 . S
C1805 H1793 0.950 . S
C1805 C1801 1.393 . S
C1805 C1804 1.391 . S
C1806 H1796 0.950 . S
C1806 C1807 1.386 . S
C1806 C1808 1.391 . S
C1807 C1806 1.386 . S
C1807 C1811 1.393 . S
C1808 H1797 0.950 . S
C1808 C1806 1.391 . S
C1808 C1809 1.400 . S
C1809 C1803 1.491 . S
C1809 C1808 1.400 . S
C1809 C1810 1.398 . S
C1810 H1798 0.950 . S
C1810 C1809 1.398 . S
C1810 C1811 1.391 . S
C1811 H1799 0.950 1_455 S
C1811 C1807 1.393 . S
C1811 C1810 1.391 . S
H1812 C1820 0.950 . S
H1813 C1825 0.950 . S
H1814 C1822 0.950 . S
H1815 C1824 0.950 . S
H1816 C1826 0.950 . S
H1817 C1828 0.950 . S
H1818 C1830 0.950 . S
H1819 C1831 0.950 . S
C1820 H1812 0.950 . S
C1820 C1821 1.386 . S
C1820 C1822 1.391 . S
C1821 C1820 1.386 . S
C1821 C1825 1.393 . S
C1822 H1814 0.950 . S
C1822 C1820 1.391 . S
C1822 C1823 1.400 . S
C1823 C1822 1.400 . S
C1823 C1824 1.398 . S
C1823 C1829 1.491 . S
C1824 H1815 0.950 . S
C1824 C1823 1.398 . S
C1824 C1825 1.391 . S
C1825 H1813 0.950 . S
C1825 C1821 1.393 . S
C1825 C1824 1.391 . S
C1826 H1816 0.950 . S
C1826 C1827 1.386 . S
C1826 C1828 1.391 . S
C1827 C1826 1.386 . S
C1827 C1831 1.393 . S
C1828 H1817 0.950 . S
C1828 C1826 1.391 . S
C1828 C1829 1.400 . S
C1829 C1823 1.491 . S
C1829 C1828 1.400 . S
C1829 C1830 1.398 . S
C1830 H1818 0.950 . S
C1830 C1829 1.398 . S
C1830 C1831 1.391 . S
C1831 H1819 0.950 . S
C1831 C1827 1.393 . S
C1831 C1830 1.391 . S
H1832 C1840 0.950 . S
H1833 C1845 0.950 . S
H1834 C1842 0.950 . S
H1835 C1844 0.950 . S
H1836 C1846 0.950 . S
H1837 C1848 0.950 . S
H1838 C1850 0.950 . S
H1839 C1851 0.967 . S
C1840 H1832 0.950 . S
C1840 C1841 1.386 . S
C1840 C1842 1.391 . S
C1841 C1840 1.386 . S
C1841 C1845 1.393 . S
C1842 H1834 0.950 . S
C1842 C1840 1.391 . S
C1842 C1843 1.400 . S
C1843 C1842 1.400 . S
C1843 C1844 1.398 . S
C1843 C1849 1.491 . S
C1844 H1835 0.950 . S
C1844 C1843 1.398 . S
C1844 C1845 1.391 . S
C1845 H1833 0.950 . S
C1845 C1841 1.393 . S
C1845 C1844 1.391 . S
C1846 H1836 0.950 . S
C1846 C1847 1.386 . S
C1846 C1848 1.391 . S
C1847 C1846 1.386 . S
C1847 C1851 1.393 . S
C1848 H1837 0.950 . S
C1848 C1846 1.391 . S
C1848 C1849 1.400 . S
C1849 C1843 1.491 . S
C1849 C1848 1.400 . S
C1849 C1850 1.398 . S
C1850 H1838 0.950 . S
C1850 C1849 1.398 . S
C1850 C1851 1.391 . S
C1851 H1839 0.967 . S
C1851 C1847 1.393 . S
C1851 C1850 1.391 . S
H1852 C1860 0.950 . S
H1853 C1865 0.950 . S
H1854 C1862 0.950 . S
H1855 C1864 0.950 . S
H1856 C1866 0.950 . S
H1857 C1868 0.950 . S
H1858 C1870 0.950 . S
H1859 C1871 0.950 . S
C1860 H1852 0.950 . S
C1860 C1861 1.386 . S
C1860 C1862 1.391 . S
C1861 C1860 1.386 . S
C1861 C1865 1.393 . S
C1862 H1854 0.950 . S
C1862 C1860 1.391 . S
C1862 C1863 1.400 . S
C1863 C1862 1.400 . S
C1863 C1864 1.398 . S
C1863 C1869 1.491 . S
C1864 H1855 0.950 . S
C1864 C1863 1.398 . S
C1864 C1865 1.391 . S
C1865 H1853 0.950 . S
C1865 C1861 1.393 . S
C1865 C1864 1.391 . S
C1866 H1856 0.950 . S
C1866 C1867 1.386 . S
C1866 C1868 1.391 . S
C1867 C1866 1.386 . S
C1867 C1871 1.393 . S
C1868 H1857 0.950 . S
C1868 C1866 1.391 . S
C1868 C1869 1.400 . S
C1869 C1863 1.491 . S
C1869 C1868 1.400 . S
C1869 C1870 1.398 . S
C1870 H1858 0.950 . S
C1870 C1869 1.398 . S
C1870 C1871 1.391 . S
C1871 H1859 0.950 . S
C1871 C1867 1.393 . S
C1871 C1870 1.391 . S
H1872 C1880 0.950 1_655 S
H1873 C1885 0.950 . S
H1874 C1882 0.950 . S
H1875 C1884 0.950 . S
H1876 C1886 0.950 . S
H1877 C1888 0.950 . S
H1878 C1890 0.950 . S
H1879 C1891 0.950 . S
C1880 H1872 0.950 1_455 S
C1880 C1881 1.386 . S
C1880 C1882 1.391 . S
C1881 C1880 1.386 . S
C1881 C1885 1.393 . S
C1882 H1874 0.950 . S
C1882 C1880 1.391 . S
C1882 C1883 1.400 . S
C1883 C1882 1.400 . S
C1883 C1884 1.398 . S
C1883 C1889 1.491 . S
C1884 H1875 0.950 . S
C1884 C1883 1.398 . S
C1884 C1885 1.391 . S
C1885 H1873 0.950 . S
C1885 C1881 1.393 . S
C1885 C1884 1.391 . S
C1886 H1876 0.950 . S
C1886 C1887 1.386 . S
C1886 C1888 1.391 . S
C1887 C1886 1.386 . S
C1887 C1891 1.393 . S
C1888 H1877 0.950 . S
C1888 C1886 1.391 . S
C1888 C1889 1.400 . S
C1889 C1883 1.491 . S
C1889 C1888 1.400 . S
C1889 C1890 1.398 . S
C1890 H1878 0.950 . S
C1890 C1889 1.398 . S
C1890 C1891 1.391 . S
C1891 H1879 0.950 . S
C1891 C1887 1.393 . S
C1891 C1890 1.391 . S
H1892 C1900 0.950 . S
H1893 C1905 0.950 . S
H1894 C1902 0.950 . S
H1895 C1904 0.950 . S
H1896 C1906 0.950 . S
H1897 C1908 0.950 . S
H1898 C1910 0.950 . S
H1899 C1911 0.950 . S
C1900 H1892 0.950 . S
C1900 C1901 1.386 . S
C1900 C1902 1.391 . S
C1901 C1900 1.386 . S
C1901 C1905 1.393 . S
C1902 H1894 0.950 . S
C1902 C1900 1.391 . S
C1902 C1903 1.400 . S
C1903 C1902 1.400 . S
C1903 C1904 1.398 . S
C1903 C1909 1.491 . S
C1904 H1895 0.950 . S
C1904 C1903 1.398 . S
C1904 C1905 1.391 . S
C1905 H1893 0.950 . S
C1905 C1901 1.393 . S
C1905 C1904 1.391 . S
C1906 H1896 0.950 . S
C1906 C1907 1.386 . S
C1906 C1908 1.391 . S
C1907 C1906 1.386 . S
C1907 C1911 1.393 . S
C1908 H1897 0.950 . S
C1908 C1906 1.391 . S
C1908 C1909 1.400 . S
C1909 C1903 1.491 . S
C1909 C1908 1.400 . S
C1909 C1910 1.398 . S
C1910 H1898 0.950 . S
C1910 C1909 1.398 . S
C1910 C1911 1.391 . S
C1911 H1899 0.950 . S
C1911 C1907 1.393 . S
C1911 C1910 1.391 . S
H1912 C1920 0.950 . S
H1913 C1925 0.950 1_455 S
H1914 C1922 0.950 . S
H1915 C1924 0.950 . S
H1916 C1926 0.950 . S
H1917 C1928 0.950 . S
H1918 C1930 0.950 . S
H1919 C1931 0.950 . S
C1920 H1912 0.950 . S
C1920 C1921 1.386 . S
C1920 C1922 1.391 . S
C1921 C1920 1.386 . S
C1921 C1925 1.393 . S
C1922 H1914 0.950 . S
C1922 C1920 1.391 . S
C1922 C1923 1.400 . S
C1923 C1922 1.400 . S
C1923 C1924 1.398 . S
C1923 C1929 1.491 . S
C1924 H1915 0.950 . S
C1924 C1923 1.398 . S
C1924 C1925 1.391 . S
C1925 H1913 0.950 1_655 S
C1925 C1921 1.393 . S
C1925 C1924 1.391 . S
C1926 H1916 0.950 . S
C1926 C1927 1.386 . S
C1926 C1928 1.391 . S
C1927 C1926 1.386 . S
C1927 C1931 1.393 . S
C1928 H1917 0.950 . S
C1928 C1926 1.391 . S
C1928 C1929 1.400 . S
C1929 C1923 1.491 . S
C1929 C1928 1.400 . S
C1929 C1930 1.398 . S
C1930 H1918 0.950 . S
C1930 C1929 1.398 . S
C1930 C1931 1.391 . S
C1931 H1919 0.950 . S
C1931 C1927 1.393 . S
C1931 C1930 1.391 . S
H1932 C1940 0.950 . S
H1933 C1945 0.950 . S
H1934 C1942 0.950 . S
H1935 C1944 0.950 . S
H1936 C1946 0.968 . S
H1937 C1948 0.950 . S
H1938 C1950 0.950 . S
H1939 C1951 0.950 . S
C1940 H1932 0.950 . S
C1940 C1941 1.386 . S
C1940 C1942 1.391 . S
C1941 C1940 1.386 . S
C1941 C1945 1.393 . S
C1942 H1934 0.950 . S
C1942 C1940 1.391 . S
C1942 C1943 1.400 . S
C1943 C1942 1.400 . S
C1943 C1944 1.398 . S
C1943 C1949 1.491 . S
C1944 H1935 0.950 . S
C1944 C1943 1.398 . S
C1944 C1945 1.391 . S
C1945 H1933 0.950 . S
C1945 C1941 1.393 . S
C1945 C1944 1.391 . S
C1946 H1936 0.968 . S
C1946 C1947 1.386 . S
C1946 C1948 1.391 . S
C1947 C1946 1.386 . S
C1947 C1951 1.393 . S
C1948 H1937 0.950 . S
C1948 C1946 1.391 . S
C1948 C1949 1.400 . S
C1949 C1943 1.491 . S
C1949 C1948 1.400 . S
C1949 C1950 1.398 . S
C1950 H1938 0.950 . S
C1950 C1949 1.398 . S
C1950 C1951 1.391 . S
C1951 H1939 0.950 . S
C1951 C1947 1.393 . S
C1951 C1950 1.391 . S
H1952 C1960 0.947 1_565 S
H1953 C1965 0.950 . S
H1954 C1962 0.950 . S
H1955 C1964 0.950 . S
H1956 C1966 0.950 . S
H1957 C1968 0.950 . S
H1958 C1970 0.950 . S
H1959 C1971 0.950 . S
C1960 H1952 0.947 1_545 S
C1960 C1961 1.386 . S
C1960 C1962 1.391 . S
C1961 C1960 1.386 . S
C1961 C1965 1.393 . S
C1962 H1954 0.950 . S
C1962 C1960 1.391 . S
C1962 C1963 1.400 . S
C1963 C1962 1.400 . S
C1963 C1964 1.398 . S
C1963 C1969 1.491 . S
C1964 H1955 0.950 . S
C1964 C1963 1.398 . S
C1964 C1965 1.391 . S
C1965 H1953 0.950 . S
C1965 C1961 1.393 . S
C1965 C1964 1.391 . S
C1966 H1956 0.950 . S
C1966 C1967 1.386 . S
C1966 C1968 1.391 . S
C1967 C1966 1.386 . S
C1967 C1971 1.393 . S
C1968 H1957 0.950 . S
C1968 C1966 1.391 . S
C1968 C1969 1.400 . S
C1969 C1963 1.491 . S
C1969 C1968 1.400 . S
C1969 C1970 1.398 . S
C1970 H1958 0.950 . S
C1970 C1969 1.398 . S
C1970 C1971 1.391 . S
C1971 H1959 0.950 . S
C1971 C1967 1.393 . S
C1971 C1970 1.391 . S
H1972 C1980 0.950 . S
H1973 C1985 0.950 1_545 S
H1974 C1982 0.950 . S
H1975 C1984 0.950 . S
H1976 C1986 0.950 . S
H1977 C1988 0.950 . S
H1978 C1990 0.950 . S
H1979 C1991 0.950 . S
C1980 H1972 0.950 . S
C1980 C1981 1.386 . S
C1980 C1982 1.391 . S
C1981 C1980 1.386 . S
C1981 C1985 1.393 . S
C1982 H1974 0.950 . S
C1982 C1980 1.391 . S
C1982 C1983 1.400 . S
C1983 C1982 1.400 . S
C1983 C1984 1.398 . S
C1983 C1989 1.491 . S
C1984 H1975 0.950 . S
C1984 C1983 1.398 . S
C1984 C1985 1.391 . S
C1985 H1973 0.950 1_565 S
C1985 C1981 1.393 . S
C1985 C1984 1.391 . S
C1986 H1976 0.950 . S
C1986 C1987 1.386 . S
C1986 C1988 1.391 . S
C1987 C1986 1.386 . S
C1987 C1991 1.393 . S
C1988 H1977 0.950 . S
C1988 C1986 1.391 . S
C1988 C1989 1.400 . S
C1989 C1983 1.491 . S
C1989 C1988 1.400 . S
C1989 C1990 1.398 . S
C1990 H1978 0.950 . S
C1990 C1989 1.398 . S
C1990 C1991 1.391 . S
C1991 H1979 0.950 . S
C1991 C1987 1.393 . S
C1991 C1990 1.391 . S
H1992 C2000 0.950 1_655 S
H1993 C2005 0.950 . S
H1994 C2002 0.950 . S
H1995 C2004 0.950 . S
H1996 C2006 0.950 . S
H1997 C2008 0.950 . S
H1998 C2010 0.950 . S
H1999 C2011 0.950 . S
C2000 H1992 0.950 1_455 S
C2000 C2001 1.386 . S
C2000 C2002 1.391 . S
C2001 C2000 1.386 . S
C2001 C2005 1.393 . S
C2002 H1994 0.950 . S
C2002 C2000 1.391 . S
C2002 C2003 1.400 . S
C2003 C2002 1.400 . S
C2003 C2004 1.398 . S
C2003 C2009 1.491 . S
C2004 H1995 0.950 . S
C2004 C2003 1.398 . S
C2004 C2005 1.391 . S
C2005 H1993 0.950 . S
C2005 C2001 1.393 . S
C2005 C2004 1.391 . S
C2006 H1996 0.950 . S
C2006 C2007 1.386 . S
C2006 C2008 1.391 . S
C2007 C2006 1.386 . S
C2007 C2011 1.393 . S
C2008 H1997 0.950 . S
C2008 C2006 1.391 . S
C2008 C2009 1.400 . S
C2009 C2003 1.491 . S
C2009 C2008 1.400 . S
C2009 C2010 1.398 . S
C2010 H1998 0.950 . S
C2010 C2009 1.398 . S
C2010 C2011 1.391 . S
C2011 H1999 0.950 . S
C2011 C2007 1.393 . S
C2011 C2010 1.391 . S
H2012 C2020 0.950 . S
H2013 C2025 0.950 . S
H2014 C2022 0.950 . S
H2015 C2024 0.950 . S
H2016 C2026 0.950 . S
H2017 C2028 0.950 . S
H2018 C2030 0.950 . S
H2019 C2031 0.940 1_565 S
C2020 H2012 0.950 . S
C2020 C2021 1.386 . S
C2020 C2022 1.391 . S
C2021 C2020 1.386 . S
C2021 C2025 1.393 . S
C2022 H2014 0.950 . S
C2022 C2020 1.391 . S
C2022 C2023 1.400 . S
C2023 C2022 1.400 . S
C2023 C2024 1.398 . S
C2023 C2029 1.491 . S
C2024 H2015 0.950 . S
C2024 C2023 1.398 . S
C2024 C2025 1.391 . S
C2025 H2013 0.950 . S
C2025 C2021 1.393 . S
C2025 C2024 1.391 . S
C2026 H2016 0.950 . S
C2026 C2027 1.386 . S
C2026 C2028 1.391 . S
C2027 C2026 1.386 . S
C2027 C2031 1.393 . S
C2028 H2017 0.950 . S
C2028 C2026 1.391 . S
C2028 C2029 1.400 . S
C2029 C2023 1.491 . S
C2029 C2028 1.400 . S
C2029 C2030 1.398 . S
C2030 H2018 0.950 . S
C2030 C2029 1.398 . S
C2030 C2031 1.391 . S
C2031 H2019 0.940 1_545 S
C2031 C2027 1.393 . S
C2031 C2030 1.391 . S
H2032 C2040 0.950 . S
H2033 C2045 0.950 1_455 S
H2034 C2042 0.950 . S
H2035 C2044 0.950 . S
H2036 C2046 0.950 . S
H2037 C2048 0.950 . S
H2038 C2050 0.950 . S
H2039 C2051 0.950 . S
C2040 H2032 0.950 . S
C2040 C2041 1.386 . S
C2040 C2042 1.391 . S
C2041 C2040 1.386 . S
C2041 C2045 1.393 . S
C2042 H2034 0.950 . S
C2042 C2040 1.391 . S
C2042 C2043 1.400 . S
C2043 C2042 1.400 . S
C2043 C2044 1.398 . S
C2043 C2049 1.491 . S
C2044 H2035 0.950 . S
C2044 C2043 1.398 . S
C2044 C2045 1.391 . S
C2045 H2033 0.950 1_655 S
C2045 C2041 1.393 . S
C2045 C2044 1.391 . S
C2046 H2036 0.950 . S
C2046 C2047 1.386 . S
C2046 C2048 1.391 . S
C2047 C2046 1.386 . S
C2047 C2051 1.393 . S
C2048 H2037 0.950 . S
C2048 C2046 1.391 . S
C2048 C2049 1.400 . S
C2049 C2043 1.491 . S
C2049 C2048 1.400 . S
C2049 C2050 1.398 . S
C2050 H2038 0.950 . S
C2050 C2049 1.398 . S
C2050 C2051 1.391 . S
C2051 H2039 0.950 . S
C2051 C2047 1.393 . S
C2051 C2050 1.391 . S
H2052 C2060 0.950 . S
H2053 C2065 0.950 1_545 S
H2054 C2062 0.950 . S
H2055 C2064 0.950 . S
H2056 C2066 0.950 . S
H2057 C2068 0.950 . S
H2058 C2070 0.950 . S
H2059 C2071 0.950 . S
C2060 H2052 0.950 . S
C2060 C2061 1.386 . S
C2060 C2062 1.391 . S
C2061 C2060 1.386 . S
C2061 C2065 1.393 . S
C2062 H2054 0.950 . S
C2062 C2060 1.391 . S
C2062 C2063 1.400 . S
C2063 C2062 1.400 . S
C2063 C2064 1.398 . S
C2063 C2069 1.491 . S
C2064 H2055 0.950 . S
C2064 C2063 1.398 . S
C2064 C2065 1.391 . S
C2065 H2053 0.950 1_565 S
C2065 C2061 1.393 . S
C2065 C2064 1.391 . S
C2066 H2056 0.950 . S
C2066 C2067 1.386 . S
C2066 C2068 1.391 . S
C2067 C2066 1.386 . S
C2067 C2071 1.393 . S
C2068 H2057 0.950 . S
C2068 C2066 1.391 . S
C2068 C2069 1.400 . S
C2069 C2063 1.491 . S
C2069 C2068 1.400 . S
C2069 C2070 1.398 . S
C2070 H2058 0.950 . S
C2070 C2069 1.398 . S
C2070 C2071 1.391 . S
C2071 H2059 0.950 . S
C2071 C2067 1.393 . S
C2071 C2070 1.391 . S
H2072 C2080 0.933 1_655 S
H2073 C2085 0.950 . S
H2074 C2082 0.950 . S
H2075 C2084 0.950 . S
H2076 C2086 0.950 . S
H2077 C2088 0.950 . S
H2078 C2090 0.950 . S
H2079 C2091 0.950 . S
C2080 H2072 0.933 1_455 S
C2080 C2081 1.386 . S
C2080 C2082 1.391 . S
C2081 C2080 1.386 . S
C2081 C2085 1.393 . S
C2082 H2074 0.950 . S
C2082 C2080 1.391 . S
C2082 C2083 1.400 . S
C2083 C2082 1.400 . S
C2083 C2084 1.398 . S
C2083 C2089 1.491 . S
C2084 H2075 0.950 . S
C2084 C2083 1.398 . S
C2084 C2085 1.391 . S
C2085 H2073 0.950 . S
C2085 C2081 1.393 . S
C2085 C2084 1.391 . S
C2086 H2076 0.950 . S
C2086 C2087 1.386 . S
C2086 C2088 1.391 . S
C2087 C2086 1.386 . S
C2087 C2091 1.393 . S
C2088 H2077 0.950 . S
C2088 C2086 1.391 . S
C2088 C2089 1.400 . S
C2089 C2083 1.491 . S
C2089 C2088 1.400 . S
C2089 C2090 1.398 . S
C2090 H2078 0.950 . S
C2090 C2089 1.398 . S
C2090 C2091 1.391 . S
C2091 H2079 0.950 . S
C2091 C2087 1.393 . S
C2091 C2090 1.391 . S
H2092 C2100 0.950 . S
H2093 C2105 0.950 1_455 S
H2094 C2102 0.950 . S
H2095 C2104 0.950 . S
H2096 C2106 0.950 . S
H2097 C2108 0.950 . S
H2098 C2110 0.950 . S
H2099 C2111 0.950 . S
C2100 H2092 0.950 . S
C2100 C2101 1.386 . S
C2100 C2102 1.391 . S
C2101 C2100 1.386 . S
C2101 C2105 1.393 . S
C2102 H2094 0.950 . S
C2102 C2100 1.391 . S
C2102 C2103 1.400 . S
C2103 C2102 1.400 . S
C2103 C2104 1.398 . S
C2103 C2109 1.491 . S
C2104 H2095 0.950 . S
C2104 C2103 1.398 . S
C2104 C2105 1.391 . S
C2105 H2093 0.950 1_655 S
C2105 C2101 1.393 . S
C2105 C2104 1.391 . S
C2106 H2096 0.950 . S
C2106 C2107 1.386 . S
C2106 C2108 1.391 . S
C2107 C2106 1.386 . S
C2107 C2111 1.393 . S
C2108 H2097 0.950 . S
C2108 C2106 1.391 . S
C2108 C2109 1.400 . S
C2109 C2103 1.491 . S
C2109 C2108 1.400 . S
C2109 C2110 1.398 . S
C2110 H2098 0.950 . S
C2110 C2109 1.398 . S
C2110 C2111 1.391 . S
C2111 H2099 0.950 . S
C2111 C2107 1.393 . S
C2111 C2110 1.391 . S
H2112 C2120 0.950 . S
H2113 C2125 0.950 . S
H2114 C2122 0.950 . S
H2115 C2124 0.950 . S
H2116 C2126 0.950 . S
H2117 C2128 0.950 . S
H2118 C2130 0.950 . S
H2119 C2131 0.950 . S
C2120 H2112 0.950 . S
C2120 C2121 1.386 . S
C2120 C2122 1.391 . S
C2121 C2120 1.386 . S
C2121 C2125 1.393 . S
C2122 H2114 0.950 . S
C2122 C2120 1.391 . S
C2122 C2123 1.400 . S
C2123 C2122 1.400 . S
C2123 C2124 1.398 . S
C2123 C2129 1.491 . S
C2124 H2115 0.950 . S
C2124 C2123 1.398 . S
C2124 C2125 1.391 . S
C2125 H2113 0.950 . S
C2125 C2121 1.393 . S
C2125 C2124 1.391 . S
C2126 H2116 0.950 . S
C2126 C2127 1.386 . S
C2126 C2128 1.391 . S
C2127 C2126 1.386 . S
C2127 C2131 1.393 . S
C2128 H2117 0.950 . S
C2128 C2126 1.391 . S
C2128 C2129 1.400 . S
C2129 C2123 1.491 . S
C2129 C2128 1.400 . S
C2129 C2130 1.398 . S
C2130 H2118 0.950 . S
C2130 C2129 1.398 . S
C2130 C2131 1.391 . S
C2131 H2119 0.950 . S
C2131 C2127 1.393 . S
C2131 C2130 1.391 . S
H2132 C2140 0.950 . S
H2133 C2145 0.950 . S
H2134 C2142 0.950 . S
H2135 C2144 0.950 . S
H2136 C2146 0.950 . S
H2137 C2148 0.950 . S
H2138 C2150 0.950 . S
H2139 C2151 0.950 . S
C2140 H2132 0.950 . S
C2140 C2141 1.386 . S
C2140 C2142 1.391 . S
C2141 C2140 1.386 . S
C2141 C2145 1.393 . S
C2142 H2134 0.950 . S
C2142 C2140 1.391 . S
C2142 C2143 1.400 . S
C2143 C2142 1.400 . S
C2143 C2144 1.398 . S
C2143 C2149 1.491 . S
C2144 H2135 0.950 . S
C2144 C2143 1.398 . S
C2144 C2145 1.391 . S
C2145 H2133 0.950 . S
C2145 C2141 1.393 . S
C2145 C2144 1.391 . S
C2146 H2136 0.950 . S
C2146 C2147 1.386 . S
C2146 C2148 1.391 . S
C2147 C2146 1.386 . S
C2147 C2151 1.393 . S
C2148 H2137 0.950 . S
C2148 C2146 1.391 . S
C2148 C2149 1.400 . S
C2149 C2143 1.491 . S
C2149 C2148 1.400 . S
C2149 C2150 1.398 . S
C2150 H2138 0.950 . S
C2150 C2149 1.398 . S
C2150 C2151 1.391 . S
C2151 H2139 0.950 . S
C2151 C2147 1.393 . S
C2151 C2150 1.391 . S
H2152 C2160 0.950 . S
H2153 C2165 0.950 . S
H2154 C2162 0.950 . S
H2155 C2164 0.950 . S
H2156 C2166 0.950 . S
H2157 C2168 0.950 . S
H2158 C2170 0.950 . S
H2159 C2171 0.950 . S
C2160 H2152 0.950 . S
C2160 C2161 1.386 . S
C2160 C2162 1.391 . S
C2161 C2160 1.386 . S
C2161 C2165 1.393 . S
C2162 H2154 0.950 . S
C2162 C2160 1.391 . S
C2162 C2163 1.400 . S
C2163 C2162 1.400 . S
C2163 C2164 1.398 . S
C2163 C2169 1.491 . S
C2164 H2155 0.950 . S
C2164 C2163 1.398 . S
C2164 C2165 1.391 . S
C2165 H2153 0.950 . S
C2165 C2161 1.393 . S
C2165 C2164 1.391 . S
C2166 H2156 0.950 . S
C2166 C2167 1.386 . S
C2166 C2168 1.391 . S
C2167 C2166 1.386 . S
C2167 C2171 1.393 . S
C2168 H2157 0.950 . S
C2168 C2166 1.391 . S
C2168 C2169 1.400 . S
C2169 C2163 1.491 . S
C2169 C2168 1.400 . S
C2169 C2170 1.398 . S
C2170 H2158 0.950 . S
C2170 C2169 1.398 . S
C2170 C2171 1.391 . S
C2171 H2159 0.950 . S
C2171 C2167 1.393 . S
C2171 C2170 1.391 . S
H2172 C2180 0.950 . S
H2173 C2185 0.950 . S
H2174 C2182 0.950 . S
H2175 C2184 0.950 . S
H2176 C2186 0.950 . S
H2177 C2188 0.950 . S
H2178 C2190 0.950 . S
H2179 C2191 0.950 . S
C2180 H2172 0.950 . S
C2180 C2181 1.386 . S
C2180 C2182 1.391 . S
C2181 C2180 1.386 . S
C2181 C2185 1.393 . S
C2182 H2174 0.950 . S
C2182 C2180 1.391 . S
C2182 C2183 1.400 . S
C2183 C2182 1.400 . S
C2183 C2184 1.398 . S
C2183 C2189 1.491 . S
C2184 H2175 0.950 . S
C2184 C2183 1.398 . S
C2184 C2185 1.391 . S
C2185 H2173 0.950 . S
C2185 C2181 1.393 . S
C2185 C2184 1.391 . S
C2186 H2176 0.950 . S
C2186 C2187 1.386 . S
C2186 C2188 1.391 . S
C2187 C2186 1.386 . S
C2187 C2191 1.393 . S
C2188 H2177 0.950 . S
C2188 C2186 1.391 . S
C2188 C2189 1.400 . S
C2189 C2183 1.491 . S
C2189 C2188 1.400 . S
C2189 C2190 1.398 . S
C2190 H2178 0.950 . S
C2190 C2189 1.398 . S
C2190 C2191 1.391 . S
C2191 H2179 0.950 . S
C2191 C2187 1.393 . S
C2191 C2190 1.391 . S
H2192 C2200 0.950 . S
H2193 C2205 0.950 . S
H2194 C2202 0.950 . S
H2195 C2204 0.950 . S
H2196 C2206 0.950 . S
H2197 C2208 0.950 . S
H2198 C2210 0.950 . S
H2199 C2211 0.950 . S
C2200 H2192 0.950 . S
C2200 C2201 1.386 . S
C2200 C2202 1.391 . S
C2201 C2200 1.386 . S
C2201 C2205 1.393 . S
C2202 H2194 0.950 . S
C2202 C2200 1.391 . S
C2202 C2203 1.400 . S
C2203 C2202 1.400 . S
C2203 C2204 1.398 . S
C2203 C2209 1.491 . S
C2204 H2195 0.950 . S
C2204 C2203 1.398 . S
C2204 C2205 1.391 . S
C2205 H2193 0.950 . S
C2205 C2201 1.393 . S
C2205 C2204 1.391 . S
C2206 H2196 0.950 . S
C2206 C2207 1.386 . S
C2206 C2208 1.391 . S
C2207 C2206 1.386 . S
C2207 C2211 1.393 . S
C2208 H2197 0.950 . S
C2208 C2206 1.391 . S
C2208 C2209 1.400 . S
C2209 C2203 1.491 . S
C2209 C2208 1.400 . S
C2209 C2210 1.398 . S
C2210 H2198 0.950 . S
C2210 C2209 1.398 . S
C2210 C2211 1.391 . S
C2211 H2199 0.950 . S
C2211 C2207 1.393 . S
C2211 C2210 1.391 . S
H2212 C2220 0.950 . S
H2213 C2225 0.950 . S
H2214 C2222 0.950 . S
H2215 C2224 0.950 . S
H2216 C2226 0.950 . S
H2217 C2228 0.950 . S
H2218 C2230 0.950 . S
H2219 C2231 0.950 . S
C2220 H2212 0.950 . S
C2220 C2221 1.386 . S
C2220 C2222 1.391 . S
C2221 C2220 1.386 . S
C2221 C2225 1.393 . S
C2222 H2214 0.950 . S
C2222 C2220 1.391 . S
C2222 C2223 1.400 . S
C2223 C2222 1.400 . S
C2223 C2224 1.398 . S
C2223 C2229 1.491 . S
C2224 H2215 0.950 . S
C2224 C2223 1.398 . S
C2224 C2225 1.391 . S
C2225 H2213 0.950 . S
C2225 C2221 1.393 . S
C2225 C2224 1.391 . S
C2226 H2216 0.950 . S
C2226 C2227 1.386 . S
C2226 C2228 1.391 . S
C2227 C2226 1.386 . S
C2227 C2231 1.393 . S
C2228 H2217 0.950 . S
C2228 C2226 1.391 . S
C2228 C2229 1.400 . S
C2229 C2223 1.491 . S
C2229 C2228 1.400 . S
C2229 C2230 1.398 . S
C2230 H2218 0.950 . S
C2230 C2229 1.398 . S
C2230 C2231 1.391 . S
C2231 H2219 0.950 . S
C2231 C2227 1.393 . S
C2231 C2230 1.391 . S
H2232 C2240 0.950 . S
H2233 C2245 0.950 . S
H2234 C2242 0.950 . S
H2235 C2244 0.950 . S
H2236 C2246 0.950 . S
H2237 C2248 0.950 . S
H2238 C2250 0.950 . S
H2239 C2251 0.950 . S
C2240 H2232 0.950 . S
C2240 C2241 1.386 . S
C2240 C2242 1.391 . S
C2241 C2240 1.386 . S
C2241 C2245 1.393 . S
C2242 H2234 0.950 . S
C2242 C2240 1.391 . S
C2242 C2243 1.400 . S
C2243 C2242 1.400 . S
C2243 C2244 1.398 . S
C2243 C2249 1.491 . S
C2244 H2235 0.950 . S
C2244 C2243 1.398 . S
C2244 C2245 1.391 . S
C2245 H2233 0.950 . S
C2245 C2241 1.393 . S
C2245 C2244 1.391 . S
C2246 H2236 0.950 . S
C2246 C2247 1.386 . S
C2246 C2248 1.391 . S
C2247 C2246 1.386 . S
C2247 C2251 1.393 . S
C2248 H2237 0.950 . S
C2248 C2246 1.391 . S
C2248 C2249 1.400 . S
C2249 C2243 1.491 . S
C2249 C2248 1.400 . S
C2249 C2250 1.398 . S
C2250 H2238 0.950 . S
C2250 C2249 1.398 . S
C2250 C2251 1.391 . S
C2251 H2239 0.950 . S
C2251 C2247 1.393 . S
C2251 C2250 1.391 . S
H2252 C2260 0.950 . S
H2253 C2265 0.950 . S
H2254 C2262 0.950 . S
H2255 C2264 0.950 . S
H2256 C2266 0.950 . S
H2257 C2268 0.950 . S
H2258 C2270 0.950 . S
H2259 C2271 0.950 . S
C2260 H2252 0.950 . S
C2260 C2261 1.386 . S
C2260 C2262 1.391 . S
C2261 C2260 1.386 . S
C2261 C2265 1.393 . S
C2262 H2254 0.950 . S
C2262 C2260 1.391 . S
C2262 C2263 1.400 . S
C2263 C2262 1.400 . S
C2263 C2264 1.398 . S
C2263 C2269 1.491 . S
C2264 H2255 0.950 . S
C2264 C2263 1.398 . S
C2264 C2265 1.391 . S
C2265 H2253 0.950 . S
C2265 C2261 1.393 . S
C2265 C2264 1.391 . S
C2266 H2256 0.950 . S
C2266 C2267 1.386 . S
C2266 C2268 1.391 . S
C2267 C2266 1.386 . S
C2267 C2271 1.393 . S
C2268 H2257 0.950 . S
C2268 C2266 1.391 . S
C2268 C2269 1.400 . S
C2269 C2263 1.491 . S
C2269 C2268 1.400 . S
C2269 C2270 1.398 . S
C2270 H2258 0.950 . S
C2270 C2269 1.398 . S
C2270 C2271 1.391 . S
C2271 H2259 0.950 . S
C2271 C2267 1.393 . S
C2271 C2270 1.391 . S
H2272 C2280 0.950 . S
H2273 C2285 0.950 . S
H2274 C2282 0.950 . S
H2275 C2284 0.950 . S
H2276 C2286 0.950 . S
H2277 C2288 0.950 . S
H2278 C2290 0.950 . S
H2279 C2291 0.950 . S
C2280 H2272 0.950 . S
C2280 C2281 1.386 . S
C2280 C2282 1.391 . S
C2281 C2280 1.386 . S
C2281 C2285 1.393 . S
C2282 H2274 0.950 . S
C2282 C2280 1.391 . S
C2282 C2283 1.400 . S
C2283 C2282 1.400 . S
C2283 C2284 1.398 . S
C2283 C2289 1.491 . S
C2284 H2275 0.950 . S
C2284 C2283 1.398 . S
C2284 C2285 1.391 . S
C2285 H2273 0.950 . S
C2285 C2281 1.393 . S
C2285 C2284 1.391 . S
C2286 H2276 0.950 . S
C2286 C2287 1.386 . S
C2286 C2288 1.391 . S
C2287 C2286 1.386 . S
C2287 C2291 1.393 . S
C2288 H2277 0.950 . S
C2288 C2286 1.391 . S
C2288 C2289 1.400 . S
C2289 C2283 1.491 . S
C2289 C2288 1.400 . S
C2289 C2290 1.398 . S
C2290 H2278 0.950 . S
C2290 C2289 1.398 . S
C2290 C2291 1.391 . S
C2291 H2279 0.950 . S
C2291 C2287 1.393 . S
C2291 C2290 1.391 . S
H2292 C2300 0.950 . S
H2293 C2305 0.950 . S
H2294 C2302 0.950 . S
H2295 C2304 0.950 . S
H2296 C2306 0.950 . S
H2297 C2308 0.950 . S
H2298 C2310 0.950 . S
H2299 C2311 0.950 . S
C2300 H2292 0.950 . S
C2300 C2301 1.386 . S
C2300 C2302 1.391 . S
C2301 C2300 1.386 . S
C2301 C2305 1.393 . S
C2302 H2294 0.950 . S
C2302 C2300 1.391 . S
C2302 C2303 1.400 . S
C2303 C2302 1.400 . S
C2303 C2304 1.398 . S
C2303 C2309 1.491 . S
C2304 H2295 0.950 . S
C2304 C2303 1.398 . S
C2304 C2305 1.391 . S
C2305 H2293 0.950 . S
C2305 C2301 1.393 . S
C2305 C2304 1.391 . S
C2306 H2296 0.950 . S
C2306 C2307 1.386 . S
C2306 C2308 1.391 . S
C2307 C2306 1.386 . S
C2307 C2311 1.393 . S
C2308 H2297 0.950 . S
C2308 C2306 1.391 . S
C2308 C2309 1.400 . S
C2309 C2303 1.491 . S
C2309 C2308 1.400 . S
C2309 C2310 1.398 . S
C2310 H2298 0.950 . S
C2310 C2309 1.398 . S
C2310 C2311 1.391 . S
C2311 H2299 0.950 . S
C2311 C2307 1.393 . S
C2311 C2310 1.391 . S
H2312 C2320 0.950 . S
H2313 C2325 0.950 . S
H2314 C2322 0.950 . S
H2315 C2324 0.950 . S
H2316 C2326 0.950 . S
H2317 C2328 0.950 . S
H2318 C2330 0.950 . S
H2319 C2331 0.950 . S
C2320 H2312 0.950 . S
C2320 C2321 1.386 . S
C2320 C2322 1.391 . S
C2321 C2320 1.386 . S
C2321 C2325 1.393 . S
C2322 H2314 0.950 . S
C2322 C2320 1.391 . S
C2322 C2323 1.400 . S
C2323 C2322 1.400 . S
C2323 C2324 1.398 . S
C2323 C2329 1.491 . S
C2324 H2315 0.950 . S
C2324 C2323 1.398 . S
C2324 C2325 1.391 . S
C2325 H2313 0.950 . S
C2325 C2321 1.393 . S
C2325 C2324 1.391 . S
C2326 H2316 0.950 . S
C2326 C2327 1.386 . S
C2326 C2328 1.391 . S
C2327 C2326 1.386 . S
C2327 C2331 1.393 . S
C2328 H2317 0.950 . S
C2328 C2326 1.391 . S
C2328 C2329 1.400 . S
C2329 C2323 1.491 . S
C2329 C2328 1.400 . S
C2329 C2330 1.398 . S
C2330 H2318 0.950 . S
C2330 C2329 1.398 . S
C2330 C2331 1.391 . S
C2331 H2319 0.950 . S
C2331 C2327 1.393 . S
C2331 C2330 1.391 . S
H2332 C2340 0.950 . S
H2333 C2345 0.950 . S
H2334 C2342 0.950 . S
H2335 C2344 0.950 . S
H2336 C2346 0.950 . S
H2337 C2348 0.950 . S
H2338 C2350 0.950 . S
H2339 C2351 0.950 . S
C2340 H2332 0.950 . S
C2340 C2341 1.386 . S
C2340 C2342 1.391 . S
C2341 C2340 1.386 . S
C2341 C2345 1.393 . S
C2342 H2334 0.950 . S
C2342 C2340 1.391 . S
C2342 C2343 1.400 . S
C2343 C2342 1.400 . S
C2343 C2344 1.398 . S
C2343 C2349 1.491 . S
C2344 H2335 0.950 . S
C2344 C2343 1.398 . S
C2344 C2345 1.391 . S
C2345 H2333 0.950 . S
C2345 C2341 1.393 . S
C2345 C2344 1.391 . S
C2346 H2336 0.950 . S
C2346 C2347 1.386 . S
C2346 C2348 1.391 . S
C2347 C2346 1.386 . S
C2347 C2351 1.393 . S
C2348 H2337 0.950 . S
C2348 C2346 1.391 . S
C2348 C2349 1.400 . S
C2349 C2343 1.491 . S
C2349 C2348 1.400 . S
C2349 C2350 1.398 . S
C2350 H2338 0.950 . S
C2350 C2349 1.398 . S
C2350 C2351 1.391 . S
C2351 H2339 0.950 . S
C2351 C2347 1.393 . S
C2351 C2350 1.391 . S
H2352 C2360 0.950 . S
H2353 C2365 0.950 . S
H2354 C2362 0.950 . S
H2355 C2364 0.950 . S
H2356 C2366 0.950 . S
H2357 C2368 0.950 . S
H2358 C2370 0.950 . S
H2359 C2371 0.950 . S
C2360 H2352 0.950 . S
C2360 C2361 1.386 . S
C2360 C2362 1.391 . S
C2361 C2360 1.386 . S
C2361 C2365 1.393 . S
C2362 H2354 0.950 . S
C2362 C2360 1.391 . S
C2362 C2363 1.400 . S
C2363 C2362 1.400 . S
C2363 C2364 1.398 . S
C2363 C2369 1.491 . S
C2364 H2355 0.950 . S
C2364 C2363 1.398 . S
C2364 C2365 1.391 . S
C2365 H2353 0.950 . S
C2365 C2361 1.393 . S
C2365 C2364 1.391 . S
C2366 H2356 0.950 . S
C2366 C2367 1.386 . S
C2366 C2368 1.391 . S
C2367 C2366 1.386 . S
C2367 C2371 1.393 . S
C2368 H2357 0.950 . S
C2368 C2366 1.391 . S
C2368 C2369 1.400 . S
C2369 C2363 1.491 . S
C2369 C2368 1.400 . S
C2369 C2370 1.398 . S
C2370 H2358 0.950 . S
C2370 C2369 1.398 . S
C2370 C2371 1.391 . S
C2371 H2359 0.950 . S
C2371 C2367 1.393 . S
C2371 C2370 1.391 . S
H2372 C2380 0.950 . S
H2373 C2385 0.950 . S
H2374 C2382 0.950 . S
H2375 C2384 0.950 . S
H2376 C2386 0.950 . S
H2377 C2388 0.950 . S
H2378 C2390 0.950 . S
H2379 C2391 0.950 . S
C2380 H2372 0.950 . S
C2380 C2381 1.386 . S
C2380 C2382 1.391 . S
C2381 C2380 1.386 . S
C2381 C2385 1.393 . S
C2382 H2374 0.950 . S
C2382 C2380 1.391 . S
C2382 C2383 1.400 . S
C2383 C2382 1.400 . S
C2383 C2384 1.398 . S
C2383 C2389 1.491 . S
C2384 H2375 0.950 . S
C2384 C2383 1.398 . S
C2384 C2385 1.391 . S
C2385 H2373 0.950 . S
C2385 C2381 1.393 . S
C2385 C2384 1.391 . S
C2386 H2376 0.950 . S
C2386 C2387 1.386 . S
C2386 C2388 1.391 . S
C2387 C2386 1.386 . S
C2387 C2391 1.393 . S
C2388 H2377 0.950 . S
C2388 C2386 1.391 . S
C2388 C2389 1.400 . S
C2389 C2383 1.491 . S
C2389 C2388 1.400 . S
C2389 C2390 1.398 . S
C2390 H2378 0.950 . S
C2390 C2389 1.398 . S
C2390 C2391 1.391 . S
C2391 H2379 0.950 . S
C2391 C2387 1.393 . S
C2391 C2390 1.391 . S
H2392 C2400 0.950 . S
H2393 C2405 0.950 . S
H2394 C2402 0.950 . S
H2395 C2404 0.950 . S
H2396 C2406 0.950 . S
H2397 C2408 0.950 . S
H2398 C2410 0.950 . S
H2399 C2411 0.950 . S
C2400 H2392 0.950 . S
C2400 C2401 1.386 . S
C2400 C2402 1.391 . S
C2401 C2400 1.386 . S
C2401 C2405 1.393 . S
C2402 H2394 0.950 . S
C2402 C2400 1.391 . S
C2402 C2403 1.400 . S
C2403 C2402 1.400 . S
C2403 C2404 1.398 . S
C2403 C2409 1.491 . S
C2404 H2395 0.950 . S
C2404 C2403 1.398 . S
C2404 C2405 1.391 . S
C2405 H2393 0.950 . S
C2405 C2401 1.393 . S
C2405 C2404 1.391 . S
C2406 H2396 0.950 . S
C2406 C2407 1.386 . S
C2406 C2408 1.391 . S
C2407 C2406 1.386 . S
C2407 C2411 1.393 . S
C2408 H2397 0.950 . S
C2408 C2406 1.391 . S
C2408 C2409 1.400 . S
C2409 C2403 1.491 . S
C2409 C2408 1.400 . S
C2409 C2410 1.398 . S
C2410 H2398 0.950 . S
C2410 C2409 1.398 . S
C2410 C2411 1.391 . S
C2411 H2399 0.950 . S
C2411 C2407 1.393 . S
C2411 C2410 1.391 . S
H2412 C2420 0.950 . S
H2413 C2425 0.950 . S
H2414 C2422 0.950 . S
H2415 C2424 0.950 . S
H2416 C2426 0.950 . S
H2417 C2428 0.950 . S
H2418 C2430 0.950 . S
H2419 C2431 0.950 . S
C2420 H2412 0.950 . S
C2420 C2421 1.386 . S
C2420 C2422 1.391 . S
C2421 C2420 1.386 . S
C2421 C2425 1.393 . S
C2422 H2414 0.950 . S
C2422 C2420 1.391 . S
C2422 C2423 1.400 . S
C2423 C2422 1.400 . S
C2423 C2424 1.398 . S
C2423 C2429 1.491 . S
C2424 H2415 0.950 . S
C2424 C2423 1.398 . S
C2424 C2425 1.391 . S
C2425 H2413 0.950 . S
C2425 C2421 1.393 . S
C2425 C2424 1.391 . S
C2426 H2416 0.950 . S
C2426 C2427 1.386 . S
C2426 C2428 1.391 . S
C2427 C2426 1.386 . S
C2427 C2431 1.393 . S
C2428 H2417 0.950 . S
C2428 C2426 1.391 . S
C2428 C2429 1.400 . S
C2429 C2423 1.491 . S
C2429 C2428 1.400 . S
C2429 C2430 1.398 . S
C2430 H2418 0.950 . S
C2430 C2429 1.398 . S
C2430 C2431 1.391 . S
C2431 H2419 0.950 . S
C2431 C2427 1.393 . S
C2431 C2430 1.391 . S
H2432 C2440 0.950 . S
H2433 C2445 0.950 . S
H2434 C2442 0.950 . S
H2435 C2444 0.950 . S
H2436 C2446 0.950 . S
H2437 C2448 0.950 . S
H2438 C2450 0.950 . S
H2439 C2451 0.950 . S
C2440 H2432 0.950 . S
C2440 C2441 1.386 . S
C2440 C2442 1.391 . S
C2441 C2440 1.386 . S
C2441 C2445 1.393 . S
C2442 H2434 0.950 . S
C2442 C2440 1.391 . S
C2442 C2443 1.400 . S
C2443 C2442 1.400 . S
C2443 C2444 1.398 . S
C2443 C2449 1.491 . S
C2444 H2435 0.950 . S
C2444 C2443 1.398 . S
C2444 C2445 1.391 . S
C2445 H2433 0.950 . S
C2445 C2441 1.393 . S
C2445 C2444 1.391 . S
C2446 H2436 0.950 . S
C2446 C2447 1.386 . S
C2446 C2448 1.391 . S
C2447 C2446 1.386 . S
C2447 C2451 1.393 . S
C2448 H2437 0.950 . S
C2448 C2446 1.391 . S
C2448 C2449 1.400 . S
C2449 C2443 1.491 . S
C2449 C2448 1.400 . S
C2449 C2450 1.398 . S
C2450 H2438 0.950 . S
C2450 C2449 1.398 . S
C2450 C2451 1.391 . S
C2451 H2439 0.950 . S
C2451 C2447 1.393 . S
C2451 C2450 1.391 . S
H2452 C2460 0.950 . S
H2453 C2465 0.950 . S
H2454 C2462 0.950 . S
H2455 C2464 0.950 . S
H2456 C2466 0.950 . S
H2457 C2468 0.950 . S
H2458 C2470 0.950 . S
H2459 C2471 0.950 . S
C2460 H2452 0.950 . S
C2460 C2461 1.386 . S
C2460 C2462 1.391 . S
C2461 C2460 1.386 . S
C2461 C2465 1.393 . S
C2462 H2454 0.950 . S
C2462 C2460 1.391 . S
C2462 C2463 1.400 . S
C2463 C2462 1.400 . S
C2463 C2464 1.398 . S
C2463 C2469 1.491 . S
C2464 H2455 0.950 . S
C2464 C2463 1.398 . S
C2464 C2465 1.391 . S
C2465 H2453 0.950 . S
C2465 C2461 1.393 . S
C2465 C2464 1.391 . S
C2466 H2456 0.950 . S
C2466 C2467 1.386 . S
C2466 C2468 1.391 . S
C2467 C2466 1.386 . S
C2467 C2471 1.393 . S
C2468 H2457 0.950 . S
C2468 C2466 1.391 . S
C2468 C2469 1.400 . S
C2469 C2463 1.491 . S
C2469 C2468 1.400 . S
C2469 C2470 1.398 . S
C2470 H2458 0.950 . S
C2470 C2469 1.398 . S
C2470 C2471 1.391 . S
C2471 H2459 0.950 . S
C2471 C2467 1.393 . S
C2471 C2470 1.391 . S
H2472 C2480 0.950 . S
H2473 C2485 0.950 . S
H2474 C2482 0.950 . S
H2475 C2484 0.950 . S
H2476 C2486 0.950 . S
H2477 C2488 0.950 . S
H2478 C2490 0.950 . S
H2479 C2491 0.950 . S
C2480 H2472 0.950 . S
C2480 C2481 1.386 . S
C2480 C2482 1.391 . S
C2481 C2480 1.386 . S
C2481 C2485 1.393 . S
C2482 H2474 0.950 . S
C2482 C2480 1.391 . S
C2482 C2483 1.400 . S
C2483 C2482 1.400 . S
C2483 C2484 1.398 . S
C2483 C2489 1.491 . S
C2484 H2475 0.950 . S
C2484 C2483 1.398 . S
C2484 C2485 1.391 . S
C2485 H2473 0.950 . S
C2485 C2481 1.393 . S
C2485 C2484 1.391 . S
C2486 H2476 0.950 . S
C2486 C2487 1.386 . S
C2486 C2488 1.391 . S
C2487 C2486 1.386 . S
C2487 C2491 1.393 . S
C2488 H2477 0.950 . S
C2488 C2486 1.391 . S
C2488 C2489 1.400 . S
C2489 C2483 1.491 . S
C2489 C2488 1.400 . S
C2489 C2490 1.398 . S
C2490 H2478 0.950 . S
C2490 C2489 1.398 . S
C2490 C2491 1.391 . S
C2491 H2479 0.950 . S
C2491 C2487 1.393 . S
C2491 C2490 1.391 . S
H2492 C2500 0.950 . S
H2493 C2505 0.950 . S
H2494 C2502 0.950 . S
H2495 C2504 0.950 . S
H2496 C2506 0.950 . S
H2497 C2508 0.950 . S
H2498 C2510 0.950 . S
H2499 C2511 0.950 . S
C2500 H2492 0.950 . S
C2500 C2501 1.386 . S
C2500 C2502 1.391 . S
C2501 C2500 1.386 . S
C2501 C2505 1.393 . S
C2502 H2494 0.950 . S
C2502 C2500 1.391 . S
C2502 C2503 1.400 . S
C2503 C2502 1.400 . S
C2503 C2504 1.398 . S
C2503 C2509 1.491 . S
C2504 H2495 0.950 . S
C2504 C2503 1.398 . S
C2504 C2505 1.391 . S
C2505 H2493 0.950 . S
C2505 C2501 1.393 . S
C2505 C2504 1.391 . S
C2506 H2496 0.950 . S
C2506 C2507 1.386 . S
C2506 C2508 1.391 . S
C2507 C2506 1.386 . S
C2507 C2511 1.393 . S
C2508 H2497 0.950 . S
C2508 C2506 1.391 . S
C2508 C2509 1.400 . S
C2509 C2503 1.491 . S
C2509 C2508 1.400 . S
C2509 C2510 1.398 . S
C2510 H2498 0.950 . S
C2510 C2509 1.398 . S
C2510 C2511 1.391 . S
C2511 H2499 0.950 . S
C2511 C2507 1.393 . S
C2511 C2510 1.391 . S
H2512 C2520 0.950 . S
H2513 C2525 0.950 . S
H2514 C2522 0.950 . S
H2515 C2524 0.950 . S
H2516 C2526 0.950 . S
H2517 C2528 0.950 . S
H2518 C2530 0.950 . S
H2519 C2531 0.950 . S
C2520 H2512 0.950 . S
C2520 C2521 1.386 . S
C2520 C2522 1.391 . S
C2521 C2520 1.386 . S
C2521 C2525 1.393 . S
C2522 H2514 0.950 . S
C2522 C2520 1.391 . S
C2522 C2523 1.400 . S
C2523 C2522 1.400 . S
C2523 C2524 1.398 . S
C2523 C2529 1.491 . S
C2524 H2515 0.950 . S
C2524 C2523 1.398 . S
C2524 C2525 1.391 . S
C2525 H2513 0.950 . S
C2525 C2521 1.393 . S
C2525 C2524 1.391 . S
C2526 H2516 0.950 . S
C2526 C2527 1.386 . S
C2526 C2528 1.391 . S
C2527 C2526 1.386 . S
C2527 C2531 1.393 . S
C2528 H2517 0.950 . S
C2528 C2526 1.391 . S
C2528 C2529 1.400 . S
C2529 C2523 1.491 . S
C2529 C2528 1.400 . S
C2529 C2530 1.398 . S
C2530 H2518 0.950 . S
C2530 C2529 1.398 . S
C2530 C2531 1.391 . S
C2531 H2519 0.950 . S
C2531 C2527 1.393 . S
C2531 C2530 1.391 . S
H2532 C2540 0.950 . S
H2533 C2545 0.950 . S
H2534 C2542 0.950 . S
H2535 C2544 0.950 . S
H2536 C2546 0.950 . S
H2537 C2548 0.950 . S
H2538 C2550 0.950 . S
H2539 C2551 0.950 . S
C2540 H2532 0.950 . S
C2540 C2541 1.386 . S
C2540 C2542 1.391 . S
C2541 C2540 1.386 . S
C2541 C2545 1.393 . S
C2542 H2534 0.950 . S
C2542 C2540 1.391 . S
C2542 C2543 1.400 . S
C2543 C2542 1.400 . S
C2543 C2544 1.398 . S
C2543 C2549 1.491 . S
C2544 H2535 0.950 . S
C2544 C2543 1.398 . S
C2544 C2545 1.391 . S
C2545 H2533 0.950 . S
C2545 C2541 1.393 . S
C2545 C2544 1.391 . S
C2546 H2536 0.950 . S
C2546 C2547 1.386 . S
C2546 C2548 1.391 . S
C2547 C2546 1.386 . S
C2547 C2551 1.393 . S
C2548 H2537 0.950 . S
C2548 C2546 1.391 . S
C2548 C2549 1.400 . S
C2549 C2543 1.491 . S
C2549 C2548 1.400 . S
C2549 C2550 1.398 . S
C2550 H2538 0.950 . S
C2550 C2549 1.398 . S
C2550 C2551 1.391 . S
C2551 H2539 0.950 . S
C2551 C2547 1.393 . S
C2551 C2550 1.391 . S
H2552 C2560 0.950 . S
H2553 C2565 0.950 . S
H2554 C2562 0.950 . S
H2555 C2564 0.950 . S
H2556 C2566 0.950 . S
H2557 C2568 0.950 . S
H2558 C2570 0.950 . S
H2559 C2571 0.950 . S
C2560 H2552 0.950 . S
C2560 C2561 1.386 . S
C2560 C2562 1.391 . S
C2561 C2560 1.386 . S
C2561 C2565 1.393 . S
C2562 H2554 0.950 . S
C2562 C2560 1.391 . S
C2562 C2563 1.400 . S
C2563 C2562 1.400 . S
C2563 C2564 1.398 . S
C2563 C2569 1.491 . S
C2564 H2555 0.950 . S
C2564 C2563 1.398 . S
C2564 C2565 1.391 . S
C2565 H2553 0.950 . S
C2565 C2561 1.393 . S
C2565 C2564 1.391 . S
C2566 H2556 0.950 . S
C2566 C2567 1.386 . S
C2566 C2568 1.391 . S
C2567 C2566 1.386 . S
C2567 C2571 1.393 . S
C2568 H2557 0.950 . S
C2568 C2566 1.391 . S
C2568 C2569 1.400 . S
C2569 C2563 1.491 . S
C2569 C2568 1.400 . S
C2569 C2570 1.398 . S
C2570 H2558 0.950 . S
C2570 C2569 1.398 . S
C2570 C2571 1.391 . S
C2571 H2559 0.950 . S
C2571 C2567 1.393 . S
C2571 C2570 1.391 . S
H2572 C2580 0.950 . S
H2573 C2585 0.950 . S
H2574 C2582 0.950 . S
H2575 C2584 0.950 . S
H2576 C2586 0.950 . S
H2577 C2588 0.950 . S
H2578 C2590 0.950 . S
H2579 C2591 0.950 . S
C2580 H2572 0.950 . S
C2580 C2581 1.386 . S
C2580 C2582 1.391 . S
C2581 C2580 1.386 . S
C2581 C2585 1.393 . S
C2582 H2574 0.950 . S
C2582 C2580 1.391 . S
C2582 C2583 1.400 . S
C2583 C2582 1.400 . S
C2583 C2584 1.398 . S
C2583 C2589 1.491 . S
C2584 H2575 0.950 . S
C2584 C2583 1.398 . S
C2584 C2585 1.391 . S
C2585 H2573 0.950 . S
C2585 C2581 1.393 . S
C2585 C2584 1.391 . S
C2586 H2576 0.950 . S
C2586 C2587 1.386 . S
C2586 C2588 1.391 . S
C2587 C2586 1.386 . S
C2587 C2591 1.393 . S
C2588 H2577 0.950 . S
C2588 C2586 1.391 . S
C2588 C2589 1.400 . S
C2589 C2583 1.491 . S
C2589 C2588 1.400 . S
C2589 C2590 1.398 . S
C2590 H2578 0.950 . S
C2590 C2589 1.398 . S
C2590 C2591 1.391 . S
C2591 H2579 0.950 . S
C2591 C2587 1.393 . S
C2591 C2590 1.391 . S
C681 C440 1.431 . S
C687 C6 1.446 . S
C701 C20 1.435 . S
C707 C398 1.437 . S
C721 C34 1.432 . S
C727 C412 1.441 . S
C741 C426 1.446 . S
C747 C48 1.431 . S
C761 C356 1.432 . S
C767 C62 1.447 . S
C781 C76 1.444 . S
C787 C370 1.438 . S
C801 C384 1.446 . S
C807 C90 1.430 . S
C821 C104 1.436 . S
C827 C342 1.445 . S
C841 C118 1.431 . S
C847 C622 1.447 . S
C861 C580 1.438 . S
C867 C132 1.434 . S
C881 C594 1.447 . S
C887 C146 1.432 . S
C901 C160 1.439 . S
C907 C608 1.443 . S
C921 C174 1.445 . S
C927 C664 1.430 . S
C941 C188 1.446 . S
C947 C636 1.431 . S
C961 C202 1.431 . S
C967 C650 1.447 . S
C981 C566 1.435 . S
C987 C216 1.436 . S
C1001 C552 1.430 . S
C1007 C230 1.444 . S
C1021 C244 1.446 . S
C1027 C468 1.434 . S
C1041 C482 1.444 . S
C1047 C258 1.430 . S
C1061 C272 1.437 . S
C1067 C496 1.445 . S
C1081 C454 1.430 . S
C1087 C286 1.446 . S
C1101 C524 1.446 . S
C1107 C300 1.431 . S
C1121 C314 1.445 . S
C1127 C538 1.430 . S
C1141 C510 1.442 . S
C1147 C328 1.440 . S
C1161 C134 1.602 . S
C1167 C8 1.593 . S
C1181 C148 1.596 . S
C1187 C22 1.600 . S
C1201 C36 1.595 . S
C1207 C162 1.587 . S
C1221 C120 1.593 . S
C1227 C50 1.589 . S
C1241 C64 1.603 . S
C1247 C218 1.588 . S
C1261 C176 1.587 . S
C1267 C78 1.597 . S
C1281 C190 1.593 . S
C1287 C92 1.602 . S
C1301 C204 1.601 . S
C1307 C106 1.595 . S
C1321 C260 1.601 . S
C1327 C232 1.594 . S
C1341 C316 1.594 . S
C1347 C246 1.588 . S
C1361 C330 1.586 . S
C1367 C274 1.602 . S
C1381 C288 1.600 . S
C1387 C302 1.586 . S
C1401 C470 1.596 . S
C1407 C344 1.601 . S
C1421 C484 1.593 . S
C1427 C358 1.590 . S
C1441 C498 1.601 . S
C1447 C372 1.586 . S
C1461 C386 1.587 . S
C1467 C456 1.603 . S
C1481 C400 1.600 . S
C1487 C554 1.596 . S
C1501 C414 1.593 . S
C1507 C512 1.602 . S
C1521 C526 1.603 . S
C1527 C428 1.587 . S
C1541 C540 1.591 . S
C1547 C442 1.603 . S
C1561 C568 1.603 . S
C1567 C596 1.587 . S
C1581 C652 1.594 . S
C1587 C582 1.601 . S
C1601 C666 1.593 . S
C1607 C610 1.590 . S
C1621 C638 1.602 . S
C1627 C624 1.586 . S
C1641 C7 1.366 . S
C1647 C261 1.372 1_554 S
C1661 C21 1.369 . S
C1667 C275 1.369 1_554 S
C1681 C35 1.366 . S
C1687 C289 1.370 1_554 S
C1701 C247 1.360 1_554 S
C1707 C49 1.373 . S
C1721 C63 1.370 . S
C1727 C317 1.363 1_556 S
C1741 C77 1.368 . S
C1747 C233 1.370 1_556 S
C1761 C331 1.355 1_556 S
C1767 C91 1.380 . S
C1781 C303 1.366 1_556 S
C1787 C105 1.372 . S
C1801 C119 1.381 . S
C1807 C135 1.350 1_455 S
C1821 C133 1.368 . S
C1827 C149 1.370 1_545 S
C1841 C147 1.374 . S
C1847 C163 1.364 1_655 S
C1861 C121 1.352 1_565 S
C1867 C161 1.379 . S
C1881 C219 1.360 1_455 S
C1887 C175 1.376 . S
C1901 C177 1.372 1_545 S
C1907 C189 1.366 . S
C1921 C191 1.370 1_655 S
C1927 C203 1.366 . S
C1941 C217 1.367 . S
C1947 C205 1.371 1_565 S
C1961 C51 1.366 1_545 S
C1967 C231 1.372 . S
C1981 C79 1.356 1_565 S
C1987 C245 1.375 . S
C2001 C93 1.356 1_455 S
C2007 C259 1.379 . S
C2021 C273 1.380 . S
C2027 C107 1.351 1_545 S
C2041 C65 1.372 1_655 S
C2047 C287 1.365 . S
C2061 C23 1.372 1_565 S
C2067 C301 1.365 . S
C2081 C37 1.350 1_455 S
C2087 C315 1.382 . S
C2101 C9 1.364 1_655 S
C2107 C329 1.369 . S
C2121 C597 1.368 . S
C2127 C343 1.367 . S
C2141 C357 1.370 . S
C2147 C611 1.368 . S
C2161 C625 1.371 . S
C2167 C371 1.365 . S
C2181 C583 1.365 . S
C2187 C385 1.368 . S
C2201 C399 1.383 . S
C2207 C653 1.350 . S
C2221 C413 1.382 . S
C2227 C569 1.352 . S
C2241 C667 1.372 . S
C2247 C427 1.365 . S
C2261 C441 1.382 . S
C2267 C639 1.350 . S
C2281 C455 1.365 . S
C2287 C471 1.372 . S
C2301 C469 1.366 . S
C2307 C485 1.372 . S
C2321 C483 1.366 . S
C2327 C499 1.370 . S
C2341 C497 1.375 . S
C2347 C457 1.362 . S
C2361 C555 1.366 . S
C2367 C511 1.372 . S
C2381 C513 1.371 . S
C2387 C525 1.365 . S
C2401 C527 1.363 . S
C2407 C539 1.375 . S
C2421 C553 1.373 . S
C2427 C541 1.365 . S
C2441 C387 1.364 . S
C2447 C567 1.374 . S
C2461 C415 1.372 . S
C2467 C581 1.365 . S
C2481 C429 1.356 . S
C2487 C595 1.375 . S
C2501 C609 1.370 . S
C2507 C443 1.363 . S
C2521 C401 1.357 . S
C2527 C623 1.375 . S
C2541 C359 1.350 . S
C2547 C637 1.381 . S
C2561 C651 1.382 . S
C2567 C373 1.351 . S
C2581 C345 1.357 . S
C2587 C665 1.379 . S
