# Generated by pormake.
# Topology rob, (6)-cn, num edge types: 1
# Building blocks:
#     Node 0, Type 0, BuildingBlock: BETDIP_clean_sbu_0, # of connection points: 6
#     Node 1, Type 0, BuildingBlock: BETDIP_clean_sbu_0, # of connection points: 6
#     Node 2, Type 0, BuildingBlock: BETDIP_clean_sbu_0, # of connection points: 6
#     Node 3, Type 0, BuildingBlock: BETDIP_clean_sbu_0, # of connection points: 6
#     Edge 4, Type (0, 0), BuildingBlock: KIFKEQ_clean_linker_1, # of connection points: 2
#     Edge 5, Type (0, 0), BuildingBlock: KIFKEQ_clean_linker_1, # of connection points: 2
#     Edge 6, Type (0, 0), BuildingBlock: KIFKEQ_clean_linker_1, # of connection points: 2
#     Edge 7, Type (0, 0), BuildingBlock: KIFKEQ_clean_linker_1, # of connection points: 2
#     Edge 8, Type (0, 0), BuildingBlock: KIFKEQ_clean_linker_1, # of connection points: 2
#     Edge 9, Type (0, 0), BuildingBlock: KIFKEQ_clean_linker_1, # of connection points: 2
#     Edge 10, Type (0, 0), BuildingBlock: KIFKEQ_clean_linker_1, # of connection points: 2
#     Edge 11, Type (0, 0), BuildingBlock: KIFKEQ_clean_linker_1, # of connection points: 2
#     Edge 12, Type (0, 0), BuildingBlock: KIFKEQ_clean_linker_1, # of connection points: 2
#     Edge 13, Type (0, 0), BuildingBlock: KIFKEQ_clean_linker_1, # of connection points: 2
#     Edge 14, Type (0, 0), BuildingBlock: KIFKEQ_clean_linker_1, # of connection points: 2
#     Edge 15, Type (0, 0), BuildingBlock: KIFKEQ_clean_linker_1, # of connection points: 2
# Relax obj value: 0.036
# Max RMSD: 0.139
# Mean RMSD: 0.139
data_MOF--net-rob--node1-BETDIP_clean_sbu_0--edge1-KIFKEQ_clean_linker_1
_symmetry_space_group_name_H-M    P1
_symmetry_Int_Tables_number       1
_symmetry_cell_setting            triclinic
loop_
_symmetry_equiv_pos_as_xyz
'x, y, z'
_cell_length_a     15.3447
_cell_length_b     24.411362
_cell_length_c     36.830615
_cell_angle_alpha  97.312645
_cell_angle_beta   90.006446
_cell_angle_gamma 89.972602
loop_
_atom_site_label
_atom_site_type_symbol
_atom_site_fract_x
_atom_site_fract_y
_atom_site_fract_z
_atom_type_partial_charge
Tb0 Tb 0.16015 0.30489 0.04858 0.0
Tb1 Tb 0.33531 0.26433 1.02019 0.0
C2 C 0.02034 0.31297 0.08437 0.0
C3 C -0.00053 0.31152 0.12351 0.0
C4 C 0.02478 0.26683 0.14177 0.0
C5 C 0.00729 0.26717 0.17909 0.0
C6 C 0.96413 0.31217 0.19908 0.0
C7 C 0.93875 0.35675 0.18067 0.0
C8 C 0.9561 0.35633 0.14333 0.0
C9 C 0.27342 0.38294 0.04019 0.0
C10 C 0.31026 0.27214 0.10372 0.0
C11 C 0.47417 0.25205 0.98378 0.0
C12 C 0.49297 0.25102 0.94444 0.0
C13 C 0.57474 0.26795 0.93319 0.0
C14 C 0.59236 0.26895 0.89601 0.0
C15 C 0.52831 0.25312 0.8693 0.0
C16 C 0.44618 0.23632 0.88078 0.0
C17 C 0.42875 0.23522 0.91796 0.0
C18 C 0.22064 0.18743 0.02934 0.0
C19 C 0.18689 0.29905 0.96527 0.0
O20 O 0.04762 0.26683 0.06575 0.0
O21 O 0.06527 0.3557 0.07692 0.0
O22 O 0.2895 0.33758 0.05174 0.0
O23 O 0.19017 0.38749 0.03512 0.0
O24 O 0.22634 0.2789 0.09671 0.0
O25 O 0.37006 0.27173 0.07778 0.0
O26 O 0.44808 0.2996 1.00065 0.0
O27 O 0.42792 0.2109 0.99288 0.0
O28 O 0.20622 0.23212 1.01684 0.0
O29 O 0.30329 0.18282 0.03551 0.0
O30 O 0.27065 0.2927 0.9725 0.0
O31 O 0.12656 0.29829 0.99086 0.0
H32 H 0.05875 0.23167 0.12735 0.0
H33 H 0.02682 0.2318 0.19216 0.0
H34 H 0.90648 0.39245 0.19522 0.0
H35 H 0.93636 0.39141 0.12997 0.0
H36 H 0.62482 0.28083 0.95321 0.0
H37 H 0.65581 0.28299 0.88824 0.0
H38 H 0.39562 0.22338 0.86103 0.0
H39 H 0.36499 0.22204 0.92599 0.0
Tb40 Tb 0.66319 0.80676 0.04956 0.0
Tb41 Tb 0.83405 0.76154 1.01962 0.0
C42 C 0.52553 0.81928 0.08654 0.0
C43 C 0.50592 0.81875 0.12588 0.0
C44 C 0.52088 0.77157 0.14331 0.0
C45 C 0.50451 0.77258 0.18076 0.0
C46 C 0.47309 0.82079 0.20172 0.0
C47 C 0.45843 0.86793 0.18415 0.0
C48 C 0.47432 0.8668 0.14668 0.0
C49 C 0.78014 0.88188 0.03958 0.0
C50 C 0.81244 0.77023 0.10337 0.0
C51 C 0.97141 0.7452 0.98235 0.0
C52 C 0.99054 0.74184 0.94286 0.0
C53 C 0.07371 0.75564 0.93122 0.0
C54 C 0.09179 0.75458 0.89387 0.0
C55 C 0.02669 0.74011 0.86743 0.0
C56 C 0.94336 0.72616 0.87925 0.0
C57 C 0.92563 0.72671 0.91658 0.0
C58 C 0.71534 0.68772 0.03018 0.0
C59 C 0.68508 0.80011 0.96614 0.0
O60 O 0.54851 0.77228 0.06773 0.0
O61 O 0.5734 0.86048 0.07863 0.0
O62 O 0.79467 0.8364 0.0513 0.0
O63 O 0.69697 0.88811 0.03534 0.0
O64 O 0.72885 0.77899 0.09705 0.0
O65 O 0.87129 0.76846 0.07696 0.0
O66 O 0.9474 0.79377 0.99834 0.0
O67 O 0.92336 0.70554 0.99243 0.0
O68 O 0.7029 0.73256 1.01757 0.0
O69 O 0.7979 0.68121 0.03565 0.0
O70 O 0.76842 0.79009 0.97224 0.0
O71 O 0.62632 0.80201 0.99249 0.0
H72 H 0.54562 0.73385 0.12813 0.0
H73 H 0.51543 0.73525 0.19314 0.0
H74 H 0.43559 0.90606 0.19943 0.0
H75 H 0.46269 0.90381 0.13398 0.0
H76 H 0.12455 0.76769 0.95105 0.0
H77 H 0.15635 0.76616 0.88573 0.0
H78 H 0.89202 0.71436 0.85962 0.0
H79 H 0.86095 0.71569 0.92492 0.0
Tb80 Tb 0.16092 0.76165 0.51919 0.0
Tb81 Tb 0.33276 0.80383 0.54965 0.0
C82 C 0.02177 0.75079 0.48273 0.0
C83 C 0.00245 0.74601 0.44326 0.0
C84 C 0.92006 0.76101 0.43144 0.0
C85 C 0.90237 0.75941 0.39404 0.0
C86 C 0.96712 0.74318 0.36777 0.0
C87 C 0.04958 0.72783 0.37977 0.0
C88 C 0.0669 0.72895 0.41717 0.0
C89 C 0.27744 0.68469 0.52621 0.0
C90 C 0.31082 0.80009 0.46615 0.0
C91 C 0.47073 0.81591 0.58654 0.0
C92 C 0.4904 0.81616 0.62592 0.0
C93 C 0.47717 0.76899 0.64354 0.0
C94 C 0.49356 0.77057 0.681 0.0
C95 C 0.52336 0.81933 0.70177 0.0
C96 C 0.53652 0.86644 0.68404 0.0
C97 C 0.52055 0.86476 0.64653 0.0
C98 C 0.21602 0.88041 0.54202 0.0
C99 C 0.18423 0.76545 0.60282 0.0
O100 O 0.05278 0.79853 0.49714 0.0
O101 O 0.06399 0.70948 0.49388 0.0
O102 O 0.29188 0.73117 0.51599 0.0
O103 O 0.19438 0.67852 0.53048 0.0
O104 O 0.22729 0.79046 0.4721 0.0
O105 O 0.36947 0.80068 0.49251 0.0
O106 O 0.44638 0.76883 0.56835 0.0
O107 O 0.42389 0.85726 0.57813 0.0
O108 O 0.20185 0.83426 0.55277 0.0
O109 O 0.29898 0.88633 0.53724 0.0
O110 O 0.26796 0.77348 0.59642 0.0
O111 O 0.1251 0.76604 0.57668 0.0
H112 H 0.86968 0.77462 0.45116 0.0
H113 H 0.83853 0.77209 0.38573 0.0
H114 H 0.10059 0.71469 0.36026 0.0
H115 H 0.13097 0.71704 0.42571 0.0
H116 H 0.45377 0.7308 0.62851 0.0
H117 H 0.48394 0.73325 0.69355 0.0
H118 H 0.55824 0.90493 0.69919 0.0
H119 H 0.53099 0.90174 0.63367 0.0
Tb120 Tb 0.66025 0.26115 0.52056 0.0
Tb121 Tb 0.83528 0.30512 0.54874 0.0
C122 C 0.52208 0.24846 0.48392 0.0
C123 C 0.50134 0.2506 0.44483 0.0
C124 C 0.52451 0.2963 0.42718 0.0
C125 C 0.5073 0.29651 0.38986 0.0
C126 C 0.46667 0.25104 0.36927 0.0
C127 C 0.44366 0.20539 0.38709 0.0
C128 C 0.46066 0.20527 0.42442 0.0
C129 C 0.77549 0.18644 0.53308 0.0
C130 C 0.80951 0.29403 0.465 0.0
C131 C 0.97593 0.31452 0.58425 0.0
C132 C -0.00035 0.31059 0.62276 0.0
C133 C 0.9529 0.27625 0.64369 0.0
C134 C 0.97229 0.27555 0.68076 0.0
C135 C 0.04037 0.30804 0.69742 0.0
C136 C 0.08887 0.34112 0.67618 0.0
C137 C 0.06813 0.34273 0.63926 0.0
C138 C 0.72037 0.38005 0.53617 0.0
C139 C 0.68323 0.27469 0.60427 0.0
O140 O 0.54386 0.29508 0.50354 0.0
O141 O 0.57176 0.20737 0.49072 0.0
O142 O 0.79003 0.23018 0.51937 0.0
O143 O 0.69244 0.18134 0.5384 0.0
O144 O 0.72615 0.28517 0.47188 0.0
O145 O 0.86922 0.29784 0.49113 0.0
O146 O 0.95048 0.26865 0.56475 0.0
O147 O 0.92682 0.35657 0.57878 0.0
O148 O 0.70581 0.33621 0.54975 0.0
O149 O 0.80369 0.38547 0.53138 0.0
O150 O 0.7668 0.28362 0.59767 0.0
O151 O 0.62429 0.26979 0.57786 0.0
H152 H 0.55656 0.33181 0.44207 0.0
H153 H 0.52501 0.33267 0.37727 0.0
H154 H 0.41353 0.16927 0.37209 0.0
H155 H 0.44278 0.16938 0.4373 0.0
H156 H 0.90087 0.25021 0.63151 0.0
H157 H 0.93451 0.24922 0.69637 0.0
H158 H 0.14159 0.36664 0.68837 0.0
H159 H 0.10518 0.36941 0.62365 0.0
H160 H 0.56028 0.67499 0.99425 0.0
H161 H 0.71944 0.6057 0.07345 0.0
H162 H 0.45394 0.60151 0.99637 0.0
H163 H 0.6105 0.53446 0.07809 0.0
H164 H 0.44828 0.38052 0.05324 0.0
H165 H 0.55353 0.45397 0.05013 0.0
H166 H 0.34471 0.56378 0.02704 0.0
H167 H 0.2413 0.48821 0.0267 0.0
C168 C 0.57155 0.64437 1.0126 0.0
C169 C 0.64812 0.64555 0.03346 0.0
C170 C 0.51023 0.60233 1.01412 0.0
C171 C 0.52298 0.56128 0.03732 0.0
C172 C 0.59888 0.564 0.05908 0.0
C173 C 0.6612 0.60519 0.05677 0.0
C174 C 0.42535 0.42004 0.04672 0.0
C175 C 0.33694 0.42825 0.0394 0.0
C176 C 0.48555 0.46277 0.04563 0.0
C177 C 0.45844 0.51549 0.03836 0.0
C178 C 0.36913 0.52375 0.03185 0.0
C179 C 0.30937 0.48049 0.03198 0.0
H180 H 0.24727 0.57829 0.53685 0.0
H181 H 0.45325 0.68946 0.5146 0.0
H182 H 0.35201 0.50359 0.53625 0.0
H183 H 0.56 0.61637 0.51739 0.0
H184 H 0.72889 0.46408 0.49422 0.0
H185 H 0.62082 0.53616 0.48943 0.0
H186 H 0.45911 0.46707 0.56856 0.0
H187 H 0.56434 0.39326 0.5709 0.0
C188 C 0.31543 0.58694 0.53244 0.0
C189 C 0.34228 0.63995 0.52639 0.0
C190 C 0.37597 0.54415 0.53245 0.0
C191 C 0.46547 0.55352 0.52724 0.0
C192 C 0.49194 0.60687 0.52105 0.0
C193 C 0.43089 0.6493 0.52011 0.0
C194 C 0.66971 0.46438 0.51029 0.0
C195 C 0.65473 0.42326 0.53286 0.0
C196 C 0.6079 0.50598 0.50788 0.0
C197 C 0.53056 0.50813 0.52872 0.0
C198 C 0.51637 0.46659 0.55138 0.0
C199 C 0.57713 0.42434 0.55304 0.0
H200 H 0.06583 0.17364 0.99351 0.0
H201 H 0.22888 0.10326 0.07096 0.0
H202 H 0.96122 0.09919 0.9952 0.0
H203 H 0.12163 1.03067 0.07505 0.0
H204 H 0.9563 0.87713 0.05006 0.0
H205 H 0.06258 0.95024 0.04659 0.0
H206 H 0.85376 0.06238 0.02741 0.0
H207 H 0.74938 0.98768 0.02763 0.0
C208 C 0.07843 0.14249 1.01135 0.0
C209 C 0.15537 0.14387 0.03197 0.0
C210 C 0.01809 0.09989 1.01263 0.0
C211 C 0.03219 0.05836 0.03532 0.0
C212 C 0.1089 0.0608 0.05656 0.0
C213 C 0.17022 0.10271 0.05454 0.0
C214 C 0.93363 0.91716 0.04438 0.0
C215 C 0.84486 0.9264 0.03839 0.0
C216 C 0.99441 0.95958 0.04301 0.0
C217 C 0.96751 1.01278 0.03665 0.0
C218 C 0.87796 1.02194 0.03143 0.0
C219 C 0.81766 0.97916 0.03189 0.0
H220 H 0.93088 0.17266 0.49787 0.0
H221 H 0.76685 0.10245 0.57503 0.0
H222 H 0.03548 0.09838 0.49988 0.0
H223 H 0.87424 1.02983 0.5794 0.0
H224 H 0.04005 0.87576 0.55327 0.0
H225 H 0.93379 0.94931 0.5508 0.0
H226 H 0.14258 0.06173 0.53234 0.0
H227 H 0.24684 0.98675 0.53159 0.0
C228 C 0.91808 0.14162 0.51576 0.0
C229 C 0.84085 0.14303 0.53619 0.0
C230 C 0.97845 0.09909 0.51722 0.0
C231 C 0.96415 0.0576 0.5399 0.0
C232 C 0.88717 0.06002 0.56096 0.0
C233 C 0.82578 0.10193 0.55879 0.0
C234 C 0.06269 0.916 0.54802 0.0
C235 C 0.15139 0.92523 0.54184 0.0
C236 C 0.00194 0.95863 0.5472 0.0
C237 C 0.02883 1.01197 0.5412 0.0
C238 C 0.11837 1.02118 0.53603 0.0
C239 C 0.17861 0.97822 0.53593 0.0
H240 H 0.32165 0.21096 0.33132 0.0
H241 H 0.56721 0.29213 0.31705 0.0
H242 H 0.2883 0.21249 0.26697 0.0
H243 H 0.53161 0.29629 0.2529 0.0
H244 H 0.47277 0.2502 0.13027 0.0
H245 H 0.51308 0.24251 0.1937 0.0
H246 H 0.24676 0.27726 0.22725 0.0
H247 H 0.20658 0.2837 0.16435 0.0
C248 C 0.36882 0.22897 0.31447 0.0
C249 C 0.44711 0.25152 0.32958 0.0
C250 C 0.34911 0.23051 0.27755 0.0
C251 C 0.40684 0.25495 0.25464 0.0
C252 C 0.48581 0.27678 0.26957 0.0
C253 C 0.50571 0.27507 0.30655 0.0
C254 C 0.42289 0.25601 0.15122 0.0
C255 C 0.33629 0.26721 0.14205 0.0
C256 C 0.44607 0.2519 0.18764 0.0
C257 C 0.38316 0.25896 0.21572 0.0
C258 C 0.29676 0.27041 0.20641 0.0
C259 C 0.2737 0.27437 0.17017 0.0
H260 H 0.56467 0.77111 0.25287 0.0
H261 H 0.33787 0.87235 0.24094 0.0
H262 H 0.52791 0.76837 0.317 0.0
H263 H 0.30442 0.87253 0.30536 0.0
H264 H 0.20632 0.80549 0.40685 0.0
H265 H 0.24874 0.81147 0.34422 0.0
H266 H 0.51958 0.82018 0.37677 0.0
H267 H 0.47682 0.81135 0.4397 0.0
C268 C 0.50715 0.79296 0.2639 0.0
C269 C 0.4539 0.82158 0.2415 0.0
C270 C 0.48677 0.79206 0.30088 0.0
C271 C 0.41285 0.81998 0.31646 0.0
C272 C 0.36099 0.84972 0.29425 0.0
C273 C 0.38095 0.85028 0.25729 0.0
C274 C 0.27503 0.80831 0.40079 0.0
C275 C 0.33812 0.8073 0.42838 0.0
C276 C 0.29943 0.81247 0.36476 0.0
C277 C 0.38773 0.81652 0.35525 0.0
C278 C 0.45103 0.81641 0.38295 0.0
C279 C 0.4265 0.8118 0.41912 0.0
H280 H 0.78995 0.80557 0.90696 0.0
H281 H 0.5193 0.81108 0.93959 0.0
H282 H 0.74764 0.81148 0.84426 0.0
H283 H 0.47669 0.81987 0.87666 0.0
H284 H 0.4324 0.76963 0.75295 0.0
H285 H 0.46924 0.76735 0.81709 0.0
H286 H 0.69112 0.87269 0.80539 0.0
H287 H 0.65751 0.87215 0.74091 0.0
C288 C 0.72126 0.80823 0.90082 0.0
C289 C 0.65805 0.80712 0.92834 0.0
C290 C 0.69694 0.81239 0.86478 0.0
C291 C 0.60863 0.81632 0.85525 0.0
C292 C 0.54525 0.81617 0.88289 0.0
C293 C 0.56969 0.81156 0.91904 0.0
C294 C 0.48956 0.79187 0.76397 0.0
C295 C 0.54238 0.82067 0.74156 0.0
C296 C 0.50997 0.79123 0.80095 0.0
C297 C 0.58349 0.8196 0.81649 0.0
C298 C 0.63487 0.84957 0.79428 0.0
C299 C 0.61484 0.8499 0.75731 0.0
H300 H 0.52676 0.23962 0.62965 0.0
H301 H 0.77825 0.30433 0.66614 0.0
H302 H 0.48631 0.23273 0.69323 0.0
H303 H 0.73835 0.29732 0.72908 0.0
H304 H 0.67865 0.22183 0.83241 0.0
H305 H 0.7124 0.22619 0.76829 0.0
H306 H 0.45488 0.29027 0.75193 0.0
H307 H 0.42106 0.28624 0.81635 0.0
C308 C 0.57336 0.25241 0.65115 0.0
C309 C 0.65636 0.27165 0.64267 0.0
C310 C 0.5501 0.24862 0.68758 0.0
C311 C 0.60945 0.26389 0.71624 0.0
C312 C 0.69173 0.28399 0.70768 0.0
C313 C 0.71471 0.28794 0.67146 0.0
C314 C 0.62936 0.23729 0.81528 0.0
C315 C 0.54742 0.25413 0.82971 0.0
C316 C 0.64868 0.23971 0.77845 0.0
C317 C 0.58659 0.25898 0.755 0.0
C318 C 0.50391 0.27474 0.76916 0.0
C319 C 0.48457 0.27242 0.80611 0.0
H320 H 0.97379 0.74322 0.12881 0.0
H321 H 0.71067 0.78398 0.16446 0.0
H322 H 0.0142 0.73299 0.19189 0.0
H323 H 0.75115 0.77522 0.22695 0.0
H324 H 0.8216 0.70488 0.33 0.0
H325 H 0.78804 0.70815 0.2657 0.0
H326 H 0.03709 0.78521 0.25138 0.0
H327 H 0.07113 0.78098 0.31574 0.0
C328 C 0.9247 0.75015 0.15003 0.0
C329 C 0.83891 0.76414 0.14143 0.0
C330 C 0.94792 0.74455 0.18623 0.0
C331 C 0.88586 0.75291 0.2146 0.0
C332 C 0.80035 0.76725 0.20585 0.0
C333 C 0.7772 0.77262 0.16985 0.0
C334 C 0.86912 0.7226 0.31313 0.0
C335 C 0.94871 0.74302 0.32807 0.0
C336 C 0.84989 0.72458 0.27623 0.0
C337 C 0.90946 0.74745 0.25329 0.0
C338 C 0.99002 0.76676 0.26805 0.0
C339 C 0.00949 0.76446 0.30499 0.0
H340 H 0.70676 0.27731 0.40416 0.0
H341 H 0.97013 0.31984 0.43842 0.0
H342 H 0.74633 0.28322 0.34111 0.0
H343 H 0.00967 0.32688 0.37485 0.0
H344 H 0.06724 0.27521 0.25203 0.0
H345 H 0.03189 0.27171 0.31627 0.0
H346 H 0.7831 0.34838 0.30071 0.0
H347 H 0.8165 0.34931 0.23628 0.0
C348 C 0.77309 0.28847 0.39835 0.0
C349 C 0.83511 0.29835 0.42655 0.0
C350 C 0.79575 0.29212 0.36202 0.0
C351 C 0.88114 0.30591 0.35275 0.0
C352 C 0.94348 0.31565 0.38092 0.0
C353 C 0.92073 0.31189 0.41741 0.0
C354 C 0.00465 0.29087 0.26224 0.0
C355 C 0.94454 0.31223 0.23879 0.0
C356 C 0.98485 0.28954 0.29925 0.0
C357 C 0.90445 0.30956 0.31378 0.0
C358 C 0.84512 0.33181 0.29044 0.0
C359 C 0.86477 0.33301 0.25349 0.0
H360 H 0.92798 0.32407 0.75526 0.0
H361 H 0.19788 0.29076 0.72839 0.0
H362 H 0.96107 0.32541 0.82012 0.0
H363 H 0.23097 0.28847 0.79283 0.0
H364 H 0.28785 0.33481 0.91226 0.0
H365 H 0.25124 0.33934 0.84864 0.0
H366 H 0.99429 0.27521 0.86706 0.0
H367 H 0.03007 0.27402 0.93145 0.0
C368 C 0.99434 0.31639 0.76333 0.0
C369 C 0.06046 0.30758 0.73686 0.0
C370 C 0.01345 0.31674 0.80056 0.0
C371 C 0.099 0.30714 0.81225 0.0
C372 C 0.16474 0.29749 0.7854 0.0
C373 C 0.14585 0.29834 0.74829 0.0
C374 C 0.22323 0.32213 0.90277 0.0
C375 C 0.16177 0.30418 0.92695 0.0
C376 C 0.20231 0.32415 0.86601 0.0
C377 C 0.11978 0.30714 0.85208 0.0
C378 C 0.05801 0.2896 0.87655 0.0
C379 C 0.07852 0.28864 0.91358 0.0
H380 H 0.02166 0.74142 0.62849 0.0
H381 H 0.28708 0.77518 0.66364 0.0
H382 H 0.98069 0.7317 0.69157 0.0
H383 H 0.24613 0.76709 0.72616 0.0
H384 H 0.17106 0.69943 0.82969 0.0
H385 H 0.20538 0.70195 0.76539 0.0
H386 H 0.96026 0.78379 0.751 0.0
H387 H 0.92538 0.78023 0.81535 0.0
C388 C 0.07119 0.74684 0.64959 0.0
C389 C 0.15774 0.7588 0.64083 0.0
C390 C 0.04765 0.74158 0.68582 0.0
C391 C 0.1101 0.74831 0.7141 0.0
C392 C 0.19647 0.76042 0.70517 0.0
C393 C 0.21993 0.7654 0.66913 0.0
C394 C 0.12459 0.71808 0.81282 0.0
C395 C 0.0458 0.73997 0.82775 0.0
C396 C 0.14427 0.71963 0.7759 0.0
C397 C 0.08602 0.74355 0.75289 0.0
C398 C 0.00631 0.76447 0.76768 0.0
C399 C 0.98636 0.76257 0.80463 0.0
loop_
_geom_bond_atom_site_label_1
_geom_bond_atom_site_label_2
_geom_bond_distance
_geom_bond_site_symmetry_2
_ccdc_geom_bond_type
Tb0 C2 2.809 . S
Tb0 O20 2.484 . S
Tb0 O21 2.440 . S
Tb0 O22 2.658 1_554 S
Tb0 O23 2.409 . S
Tb0 O24 2.378 . S
Tb0 O28 2.325 . S
Tb0 O31 2.341 1_554 S
Tb1 C11 2.809 . S
Tb1 O22 2.325 . S
Tb1 O25 2.341 1_556 S
Tb1 O26 2.484 . S
Tb1 O27 2.440 . S
Tb1 O28 2.658 1_556 S
Tb1 O29 2.409 . S
Tb1 O30 2.378 . S
C2 Tb0 2.809 . S
C2 C3 1.514 . S
C2 O20 1.248 . S
C2 O21 1.266 . S
C3 C2 1.514 . S
C3 C4 1.359 . S
C3 C8 1.348 . S
C4 C3 1.359 . S
C4 C5 1.380 . S
C4 H32 0.929 . S
C5 C4 1.380 . S
C5 C6 1.347 . S
C5 H33 0.932 . S
C6 C5 1.347 . S
C6 C7 1.369 . S
C7 C6 1.369 . S
C7 C8 1.408 . S
C7 H34 0.930 . S
C8 C3 1.348 . S
C8 C7 1.408 . S
C8 H35 0.930 . S
C9 O22 1.281 1_554 S
C9 O23 1.254 . S
C10 O24 1.236 . S
C10 O25 1.266 . S
C11 Tb1 2.809 . S
C11 C12 1.514 . S
C11 O26 1.248 . S
C11 O27 1.266 . S
C12 C11 1.514 . S
C12 C13 1.359 . S
C12 C17 1.348 . S
C13 C12 1.359 . S
C13 C14 1.380 . S
C13 H36 0.929 . S
C14 C13 1.380 . S
C14 C15 1.347 . S
C14 H37 0.931 . S
C15 C14 1.347 . S
C15 C16 1.369 . S
C16 C15 1.369 . S
C16 C17 1.408 . S
C16 H38 0.930 . S
C17 C12 1.348 . S
C17 C16 1.408 . S
C17 H39 0.930 . S
C18 O28 1.281 . S
C18 O29 1.254 1_554 S
C19 O30 1.236 . S
C19 O31 1.266 . S
O20 Tb0 2.484 . S
O20 C2 1.248 . S
O21 Tb0 2.440 . S
O21 C2 1.266 . S
O22 Tb0 2.658 1_556 S
O22 Tb1 2.325 . S
O22 C9 1.281 1_556 S
O23 Tb0 2.409 . S
O23 C9 1.254 . S
O24 Tb0 2.378 . S
O24 C10 1.236 . S
O25 Tb1 2.341 1_554 S
O25 C10 1.266 . S
O26 Tb1 2.484 . S
O26 C11 1.248 . S
O27 Tb1 2.440 . S
O27 C11 1.266 . S
O28 Tb0 2.325 . S
O28 Tb1 2.658 1_554 S
O28 C18 1.281 . S
O29 Tb1 2.409 . S
O29 C18 1.254 1_556 S
O30 Tb1 2.378 . S
O30 C19 1.236 . S
O31 Tb0 2.341 1_556 S
O31 C19 1.266 . S
H32 C4 0.929 . S
H33 C5 0.932 . S
H34 C7 0.930 . S
H35 C8 0.930 . S
H36 C13 0.929 . S
H37 C14 0.931 . S
H38 C16 0.930 . S
H39 C17 0.930 . S
Tb40 C42 2.809 . S
Tb40 O60 2.484 . S
Tb40 O61 2.440 . S
Tb40 O62 2.658 1_554 S
Tb40 O63 2.409 . S
Tb40 O64 2.378 . S
Tb40 O68 2.325 . S
Tb40 O71 2.341 1_554 S
Tb41 C51 2.809 . S
Tb41 O62 2.325 . S
Tb41 O65 2.341 1_556 S
Tb41 O66 2.484 . S
Tb41 O67 2.440 . S
Tb41 O68 2.658 1_556 S
Tb41 O69 2.409 . S
Tb41 O70 2.378 . S
C42 Tb40 2.809 . S
C42 C43 1.514 . S
C42 O60 1.248 . S
C42 O61 1.266 . S
C43 C42 1.514 . S
C43 C44 1.359 . S
C43 C48 1.348 . S
C44 C43 1.359 . S
C44 C45 1.380 . S
C44 H72 0.929 . S
C45 C44 1.380 . S
C45 C46 1.347 . S
C45 H73 0.931 . S
C46 C45 1.347 . S
C46 C47 1.369 . S
C47 C46 1.369 . S
C47 C48 1.408 . S
C47 H74 0.930 . S
C48 C43 1.348 . S
C48 C47 1.408 . S
C48 H75 0.930 . S
C49 O62 1.281 1_554 S
C49 O63 1.254 . S
C50 O64 1.236 . S
C50 O65 1.266 . S
C51 Tb41 2.809 . S
C51 C52 1.514 . S
C51 O66 1.248 . S
C51 O67 1.266 . S
C52 C51 1.514 . S
C52 C53 1.359 . S
C52 C57 1.348 . S
C53 C52 1.359 . S
C53 C54 1.380 . S
C53 H76 0.929 . S
C54 C53 1.380 . S
C54 C55 1.347 . S
C54 H77 0.932 . S
C55 C54 1.347 . S
C55 C56 1.369 . S
C56 C55 1.369 . S
C56 C57 1.408 . S
C56 H78 0.930 . S
C57 C52 1.348 . S
C57 C56 1.408 . S
C57 H79 0.930 . S
C58 O68 1.281 . S
C58 O69 1.254 1_554 S
C59 O70 1.236 . S
C59 O71 1.266 . S
O60 Tb40 2.484 . S
O60 C42 1.248 . S
O61 Tb40 2.440 . S
O61 C42 1.266 . S
O62 Tb40 2.658 1_556 S
O62 Tb41 2.325 . S
O62 C49 1.281 1_556 S
O63 Tb40 2.409 . S
O63 C49 1.254 . S
O64 Tb40 2.378 . S
O64 C50 1.236 . S
O65 Tb41 2.341 1_554 S
O65 C50 1.266 . S
O66 Tb41 2.484 . S
O66 C51 1.248 . S
O67 Tb41 2.440 . S
O67 C51 1.266 . S
O68 Tb40 2.325 . S
O68 Tb41 2.658 1_554 S
O68 C58 1.281 . S
O69 Tb41 2.409 . S
O69 C58 1.254 1_556 S
O70 Tb41 2.378 . S
O70 C59 1.236 . S
O71 Tb40 2.341 1_556 S
O71 C59 1.266 . S
H72 C44 0.929 . S
H73 C45 0.931 . S
H74 C47 0.930 . S
H75 C48 0.930 . S
H76 C53 0.929 . S
H77 C54 0.932 . S
H78 C56 0.930 . S
H79 C57 0.930 . S
Tb80 C82 2.809 . S
Tb80 O100 2.484 . S
Tb80 O101 2.440 . S
Tb80 O102 2.658 . S
Tb80 O103 2.409 . S
Tb80 O104 2.378 . S
Tb80 O108 2.325 . S
Tb80 O111 2.341 . S
Tb81 C91 2.809 . S
Tb81 O102 2.325 . S
Tb81 O105 2.341 . S
Tb81 O106 2.484 . S
Tb81 O107 2.440 . S
Tb81 O108 2.658 . S
Tb81 O109 2.409 . S
Tb81 O110 2.378 . S
C82 Tb80 2.809 . S
C82 C83 1.514 . S
C82 O100 1.248 . S
C82 O101 1.266 . S
C83 C82 1.514 . S
C83 C84 1.359 . S
C83 C88 1.348 . S
C84 C83 1.359 . S
C84 C85 1.380 . S
C84 H112 0.929 . S
C85 C84 1.380 . S
C85 C86 1.347 . S
C85 H113 0.932 . S
C86 C85 1.347 . S
C86 C87 1.369 . S
C87 C86 1.369 . S
C87 C88 1.408 . S
C87 H114 0.930 . S
C88 C83 1.348 . S
C88 C87 1.408 . S
C88 H115 0.930 . S
C89 O102 1.281 . S
C89 O103 1.254 . S
C90 O104 1.236 . S
C90 O105 1.266 . S
C91 Tb81 2.809 . S
C91 C92 1.514 . S
C91 O106 1.248 . S
C91 O107 1.266 . S
C92 C91 1.514 . S
C92 C93 1.359 . S
C92 C97 1.348 . S
C93 C92 1.359 . S
C93 C94 1.380 . S
C93 H116 0.929 . S
C94 C93 1.380 . S
C94 C95 1.347 . S
C94 H117 0.931 . S
C95 C94 1.347 . S
C95 C96 1.369 . S
C96 C95 1.369 . S
C96 C97 1.408 . S
C96 H118 0.930 . S
C97 C92 1.348 . S
C97 C96 1.408 . S
C97 H119 0.930 . S
C98 O108 1.281 . S
C98 O109 1.254 . S
C99 O110 1.236 . S
C99 O111 1.266 . S
O100 Tb80 2.484 . S
O100 C82 1.248 . S
O101 Tb80 2.440 . S
O101 C82 1.266 . S
O102 Tb80 2.658 . S
O102 Tb81 2.325 . S
O102 C89 1.281 . S
O103 Tb80 2.409 . S
O103 C89 1.254 . S
O104 Tb80 2.378 . S
O104 C90 1.236 . S
O105 Tb81 2.341 . S
O105 C90 1.266 . S
O106 Tb81 2.484 . S
O106 C91 1.248 . S
O107 Tb81 2.440 . S
O107 C91 1.266 . S
O108 Tb80 2.325 . S
O108 Tb81 2.658 . S
O108 C98 1.281 . S
O109 Tb81 2.409 . S
O109 C98 1.254 . S
O110 Tb81 2.378 . S
O110 C99 1.236 . S
O111 Tb80 2.341 . S
O111 C99 1.266 . S
H112 C84 0.929 . S
H113 C85 0.932 . S
H114 C87 0.930 . S
H115 C88 0.930 . S
H116 C93 0.929 . S
H117 C94 0.931 . S
H118 C96 0.930 . S
H119 C97 0.930 . S
Tb120 C122 2.809 . S
Tb120 O140 2.484 . S
Tb120 O141 2.440 . S
Tb120 O142 2.658 . S
Tb120 O143 2.409 . S
Tb120 O144 2.378 . S
Tb120 O148 2.325 . S
Tb120 O151 2.341 . S
Tb121 C131 2.809 . S
Tb121 O142 2.325 . S
Tb121 O145 2.341 . S
Tb121 O146 2.484 . S
Tb121 O147 2.440 . S
Tb121 O148 2.658 . S
Tb121 O149 2.409 . S
Tb121 O150 2.378 . S
C122 Tb120 2.809 . S
C122 C123 1.514 . S
C122 O140 1.248 . S
C122 O141 1.266 . S
C123 C122 1.514 . S
C123 C124 1.359 . S
C123 C128 1.348 . S
C124 C123 1.359 . S
C124 C125 1.380 . S
C124 H152 0.929 . S
C125 C124 1.380 . S
C125 C126 1.347 . S
C125 H153 0.931 . S
C126 C125 1.347 . S
C126 C127 1.369 . S
C127 C126 1.369 . S
C127 C128 1.408 . S
C127 H154 0.930 . S
C128 C123 1.348 . S
C128 C127 1.408 . S
C128 H155 0.930 . S
C129 O142 1.281 . S
C129 O143 1.254 . S
C130 O144 1.236 . S
C130 O145 1.266 . S
C131 Tb121 2.809 . S
C131 C132 1.514 . S
C131 O146 1.248 . S
C131 O147 1.266 . S
C132 C131 1.514 . S
C132 C133 1.359 . S
C132 C137 1.348 . S
C133 C132 1.359 . S
C133 C134 1.380 . S
C133 H156 0.929 . S
C134 C133 1.380 . S
C134 C135 1.347 . S
C134 H157 0.932 . S
C135 C134 1.347 . S
C135 C136 1.369 . S
C136 C135 1.369 . S
C136 C137 1.408 . S
C136 H158 0.930 . S
C137 C132 1.348 . S
C137 C136 1.408 . S
C137 H159 0.930 . S
C138 O148 1.281 . S
C138 O149 1.254 . S
C139 O150 1.236 . S
C139 O151 1.266 . S
O140 Tb120 2.484 . S
O140 C122 1.248 . S
O141 Tb120 2.440 . S
O141 C122 1.266 . S
O142 Tb120 2.658 . S
O142 Tb121 2.325 . S
O142 C129 1.281 . S
O143 Tb120 2.409 . S
O143 C129 1.254 . S
O144 Tb120 2.378 . S
O144 C130 1.236 . S
O145 Tb121 2.341 . S
O145 C130 1.266 . S
O146 Tb121 2.484 . S
O146 C131 1.248 . S
O147 Tb121 2.440 . S
O147 C131 1.266 . S
O148 Tb120 2.325 . S
O148 Tb121 2.658 . S
O148 C138 1.281 . S
O149 Tb121 2.409 . S
O149 C138 1.254 . S
O150 Tb121 2.378 . S
O150 C139 1.236 . S
O151 Tb120 2.341 . S
O151 C139 1.266 . S
H152 C124 0.929 . S
H153 C125 0.931 . S
H154 C127 0.930 . S
H155 C128 0.930 . S
H156 C133 0.929 . S
H157 C134 0.932 . S
H158 C136 0.930 . S
H159 C137 0.930 . S
H160 C168 0.945 1_556 S
H161 C173 0.950 . S
H162 C170 0.950 1_556 S
H163 C172 0.950 . S
H164 C174 0.950 . S
H165 C176 0.950 . S
H166 C178 0.956 . S
H167 C179 0.948 1_556 S
C168 H160 0.945 1_554 S
C168 C169 1.390 . S
C168 C170 1.393 . S
C169 C168 1.390 . S
C169 C173 1.393 . S
C170 H162 0.950 1_554 S
C170 C168 1.393 . S
C170 C171 1.400 . S
C171 C170 1.400 . S
C171 C172 1.398 . S
C171 C177 1.491 . S
C172 H163 0.950 . S
C172 C171 1.398 . S
C172 C173 1.391 . S
C173 H161 0.950 . S
C173 C169 1.393 . S
C173 C172 1.391 . S
C174 H164 0.950 . S
C174 C175 1.386 . S
C174 C176 1.391 . S
C175 C174 1.386 . S
C175 C179 1.393 . S
C176 H165 0.950 . S
C176 C174 1.391 . S
C176 C177 1.400 . S
C177 C171 1.491 . S
C177 C176 1.400 . S
C177 C178 1.398 . S
C178 H166 0.956 . S
C178 C177 1.398 . S
C178 C179 1.391 . S
C179 H167 0.948 1_554 S
C179 C175 1.393 . S
C179 C178 1.391 . S
H180 C188 0.950 . S
H181 C193 0.950 . S
H182 C190 0.950 . S
H183 C192 0.950 . S
H184 C194 0.950 . S
H185 C196 0.950 . S
H186 C198 0.950 . S
H187 C199 0.950 . S
C188 H180 0.950 . S
C188 C189 1.386 . S
C188 C190 1.391 . S
C189 C188 1.386 . S
C189 C193 1.393 . S
C190 H182 0.950 . S
C190 C188 1.391 . S
C190 C191 1.400 . S
C191 C190 1.400 . S
C191 C192 1.398 . S
C191 C197 1.491 . S
C192 H183 0.950 . S
C192 C191 1.398 . S
C192 C193 1.391 . S
C193 H181 0.950 . S
C193 C189 1.393 . S
C193 C192 1.391 . S
C194 H184 0.950 . S
C194 C195 1.386 . S
C194 C196 1.391 . S
C195 C194 1.386 . S
C195 C199 1.393 . S
C196 H185 0.950 . S
C196 C194 1.391 . S
C196 C197 1.400 . S
C197 C191 1.491 . S
C197 C196 1.400 . S
C197 C198 1.398 . S
C198 H186 0.950 . S
C198 C197 1.398 . S
C198 C199 1.391 . S
C199 H187 0.950 . S
C199 C195 1.393 . S
C199 C198 1.391 . S
H200 C208 0.957 . S
H201 C213 0.950 . S
H202 C210 0.951 . S
H203 C212 0.950 1_565 S
H204 C214 0.950 . S
H205 C216 0.950 . S
H206 C218 0.950 1_546 S
H207 C219 0.950 1_556 S
C208 H200 0.957 . S
C208 C209 1.381 1_556 S
C208 C210 1.390 1_455 S
C209 C208 1.381 1_554 S
C209 C213 1.393 . S
C210 H202 0.951 . S
C210 C208 1.390 1_655 S
C210 C211 1.399 1_656 S
C211 C210 1.399 1_454 S
C211 C212 1.398 . S
C211 C217 1.491 1_445 S
C212 H203 0.950 1_545 S
C212 C211 1.398 . S
C212 C213 1.391 . S
C213 H201 0.950 . S
C213 C209 1.393 . S
C213 C212 1.391 . S
C214 H204 0.950 . S
C214 C215 1.386 . S
C214 C216 1.391 1_655 S
C215 C214 1.386 . S
C215 C219 1.393 . S
C216 H205 0.950 . S
C216 C214 1.391 1_455 S
C216 C217 1.400 1_455 S
C217 C211 1.491 1_665 S
C217 C216 1.400 1_655 S
C217 C218 1.398 . S
C218 H206 0.950 1_564 S
C218 C217 1.398 . S
C218 C219 1.391 . S
C219 H207 0.950 1_554 S
C219 C215 1.393 . S
C219 C218 1.391 . S
H220 C228 0.950 . S
H221 C233 0.950 . S
H222 C230 0.950 . S
H223 C232 0.950 1_565 S
H224 C234 0.950 . S
H225 C236 0.950 . S
H226 C238 0.950 1_545 S
H227 C239 0.950 . S
C228 H220 0.950 . S
C228 C229 1.386 . S
C228 C230 1.391 1_655 S
C229 C228 1.386 . S
C229 C233 1.393 . S
C230 H222 0.950 . S
C230 C228 1.391 1_455 S
C230 C231 1.400 1_455 S
C231 C230 1.400 1_655 S
C231 C232 1.398 . S
C231 C237 1.491 1_645 S
C232 H223 0.950 1_545 S
C232 C231 1.398 . S
C232 C233 1.391 . S
C233 H221 0.950 . S
C233 C229 1.393 . S
C233 C232 1.391 . S
C234 H224 0.950 . S
C234 C235 1.386 . S
C234 C236 1.391 1_455 S
C235 C234 1.386 . S
C235 C239 1.393 . S
C236 H225 0.950 . S
C236 C234 1.391 1_655 S
C236 C237 1.400 1_655 S
C237 C231 1.491 1_465 S
C237 C236 1.400 1_455 S
C237 C238 1.398 . S
C238 H226 0.950 1_565 S
C238 C237 1.398 . S
C238 C239 1.391 . S
C239 H227 0.950 . S
C239 C235 1.393 . S
C239 C238 1.391 . S
H240 C248 0.950 . S
H241 C253 0.950 . S
H242 C250 0.950 . S
H243 C252 0.950 . S
H244 C254 0.950 . S
H245 C256 0.950 . S
H246 C258 0.950 . S
H247 C259 0.950 . S
C248 H240 0.950 . S
C248 C249 1.386 . S
C248 C250 1.391 . S
C249 C248 1.386 . S
C249 C253 1.393 . S
C250 H242 0.950 . S
C250 C248 1.391 . S
C250 C251 1.400 . S
C251 C250 1.400 . S
C251 C252 1.398 . S
C251 C257 1.491 . S
C252 H243 0.950 . S
C252 C251 1.398 . S
C252 C253 1.391 . S
C253 H241 0.950 . S
C253 C249 1.393 . S
C253 C252 1.391 . S
C254 H244 0.950 . S
C254 C255 1.386 . S
C254 C256 1.391 . S
C255 C254 1.386 . S
C255 C259 1.393 . S
C256 H245 0.950 . S
C256 C254 1.391 . S
C256 C257 1.400 . S
C257 C251 1.491 . S
C257 C256 1.400 . S
C257 C258 1.398 . S
C258 H246 0.950 . S
C258 C257 1.398 . S
C258 C259 1.391 . S
C259 H247 0.950 . S
C259 C255 1.393 . S
C259 C258 1.391 . S
H260 C268 0.950 . S
H261 C273 0.950 . S
H262 C270 0.950 . S
H263 C272 0.950 . S
H264 C274 0.950 . S
H265 C276 0.950 . S
H266 C278 0.950 . S
H267 C279 0.950 . S
C268 H260 0.950 . S
C268 C269 1.386 . S
C268 C270 1.391 . S
C269 C268 1.386 . S
C269 C273 1.393 . S
C270 H262 0.950 . S
C270 C268 1.391 . S
C270 C271 1.400 . S
C271 C270 1.400 . S
C271 C272 1.398 . S
C271 C277 1.491 . S
C272 H263 0.950 . S
C272 C271 1.398 . S
C272 C273 1.391 . S
C273 H261 0.950 . S
C273 C269 1.393 . S
C273 C272 1.391 . S
C274 H264 0.950 . S
C274 C275 1.386 . S
C274 C276 1.391 . S
C275 C274 1.386 . S
C275 C279 1.393 . S
C276 H265 0.950 . S
C276 C274 1.391 . S
C276 C277 1.400 . S
C277 C271 1.491 . S
C277 C276 1.400 . S
C277 C278 1.398 . S
C278 H266 0.950 . S
C278 C277 1.398 . S
C278 C279 1.391 . S
C279 H267 0.950 . S
C279 C275 1.393 . S
C279 C278 1.391 . S
H280 C288 0.950 . S
H281 C293 0.950 . S
H282 C290 0.950 . S
H283 C292 0.950 . S
H284 C294 0.950 . S
H285 C296 0.950 . S
H286 C298 0.950 . S
H287 C299 0.950 . S
C288 H280 0.950 . S
C288 C289 1.386 . S
C288 C290 1.391 . S
C289 C288 1.386 . S
C289 C293 1.393 . S
C290 H282 0.950 . S
C290 C288 1.391 . S
C290 C291 1.400 . S
C291 C290 1.400 . S
C291 C292 1.398 . S
C291 C297 1.491 . S
C292 H283 0.950 . S
C292 C291 1.398 . S
C292 C293 1.391 . S
C293 H281 0.950 . S
C293 C289 1.393 . S
C293 C292 1.391 . S
C294 H284 0.950 . S
C294 C295 1.386 . S
C294 C296 1.391 . S
C295 C294 1.386 . S
C295 C299 1.393 . S
C296 H285 0.950 . S
C296 C294 1.391 . S
C296 C297 1.400 . S
C297 C291 1.491 . S
C297 C296 1.400 . S
C297 C298 1.398 . S
C298 H286 0.950 . S
C298 C297 1.398 . S
C298 C299 1.391 . S
C299 H287 0.950 . S
C299 C295 1.393 . S
C299 C298 1.391 . S
H300 C308 0.950 . S
H301 C313 0.950 . S
H302 C310 0.950 . S
H303 C312 0.950 . S
H304 C314 0.950 . S
H305 C316 0.950 . S
H306 C318 0.950 . S
H307 C319 0.950 . S
C308 H300 0.950 . S
C308 C309 1.386 . S
C308 C310 1.391 . S
C309 C308 1.386 . S
C309 C313 1.393 . S
C310 H302 0.950 . S
C310 C308 1.391 . S
C310 C311 1.400 . S
C311 C310 1.400 . S
C311 C312 1.398 . S
C311 C317 1.491 . S
C312 H303 0.950 . S
C312 C311 1.398 . S
C312 C313 1.391 . S
C313 H301 0.950 . S
C313 C309 1.393 . S
C313 C312 1.391 . S
C314 H304 0.950 . S
C314 C315 1.386 . S
C314 C316 1.391 . S
C315 C314 1.386 . S
C315 C319 1.393 . S
C316 H305 0.950 . S
C316 C314 1.391 . S
C316 C317 1.400 . S
C317 C311 1.491 . S
C317 C316 1.400 . S
C317 C318 1.398 . S
C318 H306 0.950 . S
C318 C317 1.398 . S
C318 C319 1.391 . S
C319 H307 0.950 . S
C319 C315 1.393 . S
C319 C318 1.391 . S
H320 C328 0.950 . S
H321 C333 0.950 . S
H322 C330 0.950 . S
H323 C332 0.950 . S
H324 C334 0.950 . S
H325 C336 0.950 . S
H326 C338 0.950 1_455 S
H327 C339 0.950 . S
C328 H320 0.950 . S
C328 C329 1.386 . S
C328 C330 1.391 . S
C329 C328 1.386 . S
C329 C333 1.393 . S
C330 H322 0.950 . S
C330 C328 1.391 . S
C330 C331 1.400 . S
C331 C330 1.400 . S
C331 C332 1.398 . S
C331 C337 1.491 . S
C332 H323 0.950 . S
C332 C331 1.398 . S
C332 C333 1.391 . S
C333 H321 0.950 . S
C333 C329 1.393 . S
C333 C332 1.391 . S
C334 H324 0.950 . S
C334 C335 1.386 . S
C334 C336 1.391 . S
C335 C334 1.386 . S
C335 C339 1.393 1_655 S
C336 H325 0.950 . S
C336 C334 1.391 . S
C336 C337 1.400 . S
C337 C331 1.491 . S
C337 C336 1.400 . S
C337 C338 1.398 . S
C338 H326 0.950 1_655 S
C338 C337 1.398 . S
C338 C339 1.391 1_655 S
C339 H327 0.950 . S
C339 C335 1.393 1_455 S
C339 C338 1.391 1_455 S
H340 C348 0.950 . S
H341 C353 0.950 . S
H342 C350 0.950 . S
H343 C352 0.950 . S
H344 C354 0.950 . S
H345 C356 0.950 1_455 S
H346 C358 0.950 . S
H347 C359 0.950 . S
C348 H340 0.950 . S
C348 C349 1.386 . S
C348 C350 1.391 . S
C349 C348 1.386 . S
C349 C353 1.393 . S
C350 H342 0.950 . S
C350 C348 1.391 . S
C350 C351 1.400 . S
C351 C350 1.400 . S
C351 C352 1.398 . S
C351 C357 1.491 . S
C352 H343 0.950 . S
C352 C351 1.398 . S
C352 C353 1.391 . S
C353 H341 0.950 . S
C353 C349 1.393 . S
C353 C352 1.391 . S
C354 H344 0.950 . S
C354 C355 1.386 1_455 S
C354 C356 1.391 1_455 S
C355 C354 1.386 1_655 S
C355 C359 1.393 . S
C356 H345 0.950 1_655 S
C356 C354 1.391 1_655 S
C356 C357 1.400 . S
C357 C351 1.491 . S
C357 C356 1.400 . S
C357 C358 1.398 . S
C358 H346 0.950 . S
C358 C357 1.398 . S
C358 C359 1.391 . S
C359 H347 0.950 . S
C359 C355 1.393 . S
C359 C358 1.391 . S
H360 C368 0.950 . S
H361 C373 0.950 . S
H362 C370 0.950 . S
H363 C372 0.950 . S
H364 C374 0.950 . S
H365 C376 0.950 . S
H366 C378 0.950 1_655 S
H367 C379 0.950 . S
C368 H360 0.950 . S
C368 C369 1.386 1_655 S
C368 C370 1.391 . S
C369 C368 1.386 1_455 S
C369 C373 1.393 . S
C370 H362 0.950 . S
C370 C368 1.391 . S
C370 C371 1.400 1_655 S
C371 C370 1.400 1_455 S
C371 C372 1.398 . S
C371 C377 1.491 . S
C372 H363 0.950 . S
C372 C371 1.398 . S
C372 C373 1.391 . S
C373 H361 0.950 . S
C373 C369 1.393 . S
C373 C372 1.391 . S
C374 H364 0.950 . S
C374 C375 1.386 . S
C374 C376 1.391 . S
C375 C374 1.386 . S
C375 C379 1.393 . S
C376 H365 0.950 . S
C376 C374 1.391 . S
C376 C377 1.400 . S
C377 C371 1.491 . S
C377 C376 1.400 . S
C377 C378 1.398 . S
C378 H366 0.950 1_455 S
C378 C377 1.398 . S
C378 C379 1.391 . S
C379 H367 0.950 . S
C379 C375 1.393 . S
C379 C378 1.391 . S
H380 C388 0.950 . S
H381 C393 0.950 . S
H382 C390 0.950 . S
H383 C392 0.950 . S
H384 C394 0.950 . S
H385 C396 0.950 . S
H386 C398 0.950 1_655 S
H387 C399 0.950 . S
C388 H380 0.950 . S
C388 C389 1.386 . S
C388 C390 1.391 . S
C389 C388 1.386 . S
C389 C393 1.393 . S
C390 H382 0.950 . S
C390 C388 1.391 . S
C390 C391 1.400 . S
C391 C390 1.400 . S
C391 C392 1.398 . S
C391 C397 1.491 . S
C392 H383 0.950 . S
C392 C391 1.398 . S
C392 C393 1.391 . S
C393 H381 0.950 . S
C393 C389 1.393 . S
C393 C392 1.391 . S
C394 H384 0.950 . S
C394 C395 1.386 . S
C394 C396 1.391 . S
C395 C394 1.386 . S
C395 C399 1.393 1_455 S
C396 H385 0.950 . S
C396 C394 1.391 . S
C396 C397 1.400 . S
C397 C391 1.491 . S
C397 C396 1.400 . S
C397 C398 1.398 . S
C398 H386 0.950 1_455 S
C398 C397 1.398 . S
C398 C399 1.391 1_455 S
C399 H387 0.950 . S
C399 C395 1.393 1_655 S
C399 C398 1.391 1_655 S
C169 C58 1.498 . S
C175 C9 1.498 . S
C189 C89 1.496 . S
C195 C138 1.496 . S
C209 C18 1.498 . S
C215 C49 1.498 . S
C229 C129 1.507 . S
C235 C98 1.507 . S
C249 C126 1.289 . S
C255 C10 1.294 . S
C269 C46 1.291 . S
C275 C90 1.286 . S
C289 C59 1.286 . S
C295 C95 1.292 . S
C309 C139 1.294 . S
C315 C15 1.283 . S
C329 C50 1.287 . S
C335 C86 1.296 1_655 S
C349 C130 1.295 . S
C355 C6 1.288 1_655 S
C369 C135 1.285 1_455 S
C375 C19 1.297 . S
C389 C99 1.293 . S
C395 C55 1.283 1_455 S
