# Generated by pormake.
# Topology wgu, (5)-cn, num edge types: 1
# Building blocks:
#     Node 0, Type 0, BuildingBlock: XOMCOT_clean_sbu_1, # of connection points: 5
#     Node 1, Type 0, BuildingBlock: XOMCOT_clean_sbu_1, # of connection points: 5
#     Node 2, Type 0, BuildingBlock: XOMCOT_clean_sbu_1, # of connection points: 5
#     Node 3, Type 0, BuildingBlock: XOMCOT_clean_sbu_1, # of connection points: 5
#     Node 4, Type 0, BuildingBlock: XOMCOT_clean_sbu_1, # of connection points: 5
#     Node 5, Type 0, BuildingBlock: XOMCOT_clean_sbu_1, # of connection points: 5
#     Node 6, Type 0, BuildingBlock: XOMCOT_clean_sbu_1, # of connection points: 5
#     Node 7, Type 0, BuildingBlock: XOMCOT_clean_sbu_1, # of connection points: 5
#     Edge 8, Type (0, 0), BuildingBlock: AJUNOK_clean_linker_0, # of connection points: 2
#     Edge 9, Type (0, 0), BuildingBlock: AJUNOK_clean_linker_0, # of connection points: 2
#     Edge 10, Type (0, 0), BuildingBlock: AJUNOK_clean_linker_0, # of connection points: 2
#     Edge 11, Type (0, 0), BuildingBlock: AJUNOK_clean_linker_0, # of connection points: 2
#     Edge 12, Type (0, 0), BuildingBlock: AJUNOK_clean_linker_0, # of connection points: 2
#     Edge 13, Type (0, 0), BuildingBlock: AJUNOK_clean_linker_0, # of connection points: 2
#     Edge 14, Type (0, 0), BuildingBlock: AJUNOK_clean_linker_0, # of connection points: 2
#     Edge 15, Type (0, 0), BuildingBlock: AJUNOK_clean_linker_0, # of connection points: 2
#     Edge 16, Type (0, 0), BuildingBlock: AJUNOK_clean_linker_0, # of connection points: 2
#     Edge 17, Type (0, 0), BuildingBlock: AJUNOK_clean_linker_0, # of connection points: 2
#     Edge 18, Type (0, 0), BuildingBlock: AJUNOK_clean_linker_0, # of connection points: 2
#     Edge 19, Type (0, 0), BuildingBlock: AJUNOK_clean_linker_0, # of connection points: 2
#     Edge 20, Type (0, 0), BuildingBlock: AJUNOK_clean_linker_0, # of connection points: 2
#     Edge 21, Type (0, 0), BuildingBlock: AJUNOK_clean_linker_0, # of connection points: 2
#     Edge 22, Type (0, 0), BuildingBlock: AJUNOK_clean_linker_0, # of connection points: 2
#     Edge 23, Type (0, 0), BuildingBlock: AJUNOK_clean_linker_0, # of connection points: 2
#     Edge 24, Type (0, 0), BuildingBlock: AJUNOK_clean_linker_0, # of connection points: 2
#     Edge 25, Type (0, 0), BuildingBlock: AJUNOK_clean_linker_0, # of connection points: 2
#     Edge 26, Type (0, 0), BuildingBlock: AJUNOK_clean_linker_0, # of connection points: 2
#     Edge 27, Type (0, 0), BuildingBlock: AJUNOK_clean_linker_0, # of connection points: 2
# Relax obj value: 0.231
# Max RMSD: 0.186
# Mean RMSD: 0.175
data_MOF--net-wgu--node1-XOMCOT_clean_sbu_1--edge1-AJUNOK_clean_linker_0
_symmetry_space_group_name_H-M    P1
_symmetry_Int_Tables_number       1
_symmetry_cell_setting            triclinic
loop_
_symmetry_equiv_pos_as_xyz
'x, y, z'
_cell_length_a     25.317831
_cell_length_b     25.241835
_cell_length_c     21.640009
_cell_angle_alpha  94.495281
_cell_angle_beta   91.941336
_cell_angle_gamma 90.527411
loop_
_atom_site_label
_atom_site_type_symbol
_atom_site_fract_x
_atom_site_fract_y
_atom_site_fract_z
_atom_type_partial_charge
C0 C 0.2651 0.42131 0.18791 0.0
C1 C 0.24452 0.47162 0.19199 0.0
N2 N 0.25791 0.49577 0.1414 0.0
N3 N 0.29126 0.41335 0.13467 0.0
C4 C 0.28667 0.45985 0.10784 0.0
H5 H 0.2597 0.39225 0.22124 0.0
Co6 Co 0.32269 0.35039 0.10125 0.0
C7 C 0.42703 0.40429 0.13585 0.0
O8 O 0.42625 0.38815 0.19204 0.0
N9 N 0.35412 0.28812 0.06875 0.0
C10 C 0.40768 0.21905 0.06179 0.0
C11 C 0.40501 0.27328 0.07398 0.0
C12 C 0.3271 0.24286 0.05116 0.0
N13 N 0.35843 0.19994 0.04827 0.0
O14 O 0.33586 0.32718 0.18314 0.0
H15 H 0.43728 0.29881 0.09211 0.0
H16 H 0.28438 0.24044 0.04859 0.0
O17 O 0.38925 0.39088 0.0969 0.0
C18 C 0.29599 0.29578 0.1867 0.0
O19 O 0.25829 0.29593 0.14347 0.0
N20 N 0.30206 0.36533 0.02193 0.0
C21 C 0.25592 0.34429 0.90455 0.0
C22 C 0.31094 0.35197 0.91218 0.0
C23 C 0.33351 0.36271 0.9719 0.0
C24 C 0.2485 0.36155 0.01468 0.0
C25 C 0.22456 0.35148 0.95638 0.0
H26 H 0.37606 0.36343 0.97842 0.0
H27 H 0.22438 0.36121 0.05494 0.0
H28 H 0.30166 0.46608 0.06273 0.0
H29 H 0.22053 0.48869 0.22876 0.0
H30 H 0.44219 0.19497 0.06901 0.0
H31 H 0.33633 0.34614 0.87299 0.0
H32 H 0.18227 0.34434 0.95281 0.0
C33 C 0.5467 0.32161 0.49182 0.0
C34 C 0.49798 0.29871 0.49708 0.0
N35 N 0.50383 0.25688 0.53123 0.0
N36 N 0.58351 0.29497 0.52319 0.0
C37 C 0.55615 0.25491 0.54637 0.0
H38 H 0.55487 0.35563 0.46617 0.0
Co39 Co 0.65452 0.31752 0.52592 0.0
C40 C 0.70365 0.29509 0.64669 0.0
O41 O 0.72524 0.34274 0.64903 0.0
N42 N 0.72636 0.34016 0.5256 0.0
C43 C 0.80272 0.38315 0.51706 0.0
C44 C 0.74905 0.38858 0.52266 0.0
C45 C 0.76765 0.30634 0.52253 0.0
N46 N 0.81442 0.33124 0.51666 0.0
O47 O 0.67286 0.25497 0.47361 0.0
H48 H 0.72874 0.42588 0.52294 0.0
H49 H 0.76306 0.26375 0.52239 0.0
O50 O 0.67068 0.28013 0.60212 0.0
C51 C 0.6632 0.2611 0.41637 0.0
O52 O 0.6394 0.30459 0.40159 0.0
N53 N 0.63359 0.38131 0.5707 0.0
C54 C 0.57483 0.47169 0.60756 0.0
C55 C 0.58167 0.43014 0.64681 0.0
C56 C 0.6108 0.38496 0.62727 0.0
C57 C 0.62784 0.42176 0.53278 0.0
C58 C 0.59981 0.46752 0.5507 0.0
H59 H 0.61136 0.35155 0.65555 0.0
H60 H 0.6418 0.41676 0.486 0.0
H61 H 0.57395 0.22522 0.57367 0.0
H62 H 0.461 0.31116 0.47649 0.0
H63 H 0.8308 0.41498 0.51199 0.0
H64 H 0.56253 0.43137 0.69088 0.0
H65 H 0.59437 0.49764 0.5181 0.0
C66 C 0.77945 0.58108 0.91904 0.0
C67 C 0.80526 0.53383 0.91937 0.0
N68 N 0.80984 0.52039 0.97831 0.0
N69 N 0.76814 0.59823 0.9775 0.0
C70 C 0.78695 0.56036 1.01299 0.0
H71 H 0.76741 0.6006 0.87823 0.0
Co72 Co 0.72714 0.65769 0.99119 0.0
C73 C 0.75441 0.71064 0.11817 0.0
O74 O 0.70644 0.72971 0.12132 0.0
N75 N 0.68461 0.71787 1.00028 0.0
C76 C 0.61788 0.77371 0.99046 0.0
C77 C 0.63159 0.72118 0.99237 0.0
C78 C 0.70204 0.76879 1.00327 0.0
N79 N 0.66246 0.80328 0.99706 0.0
O80 O 0.77833 0.69767 0.94587 0.0
H81 H 0.60463 0.68776 0.9848 0.0
H82 H 0.74341 0.78029 1.00655 0.0
O83 O 0.76694 0.67894 0.07155 0.0
C84 C 0.76419 0.71293 0.89281 0.0
O85 O 0.71511 0.70456 0.8725 0.0
N86 N 0.67621 0.61561 0.02931 0.0
C87 C 0.59756 0.54559 0.06554 0.0
C88 C 0.63252 0.57256 0.10954 0.0
C89 C 0.67201 0.60667 0.09049 0.0
C90 C 0.64321 0.58916 0.98595 0.0
C91 C 0.60365 0.55445 1.00291 0.0
H92 H 0.69928 0.62472 0.12527 0.0
H93 H 0.64768 0.5952 0.93745 0.0
H94 H 0.78255 0.56149 0.06262 0.0
H95 H 0.81697 0.50957 0.87874 0.0
H96 H 0.57856 0.7888 0.98245 0.0
H97 H 0.62935 0.56771 0.15853 0.0
H98 H 0.57846 0.53416 0.96695 0.0
C99 C 0.47157 0.84001 0.67453 0.0
C100 C 0.52217 0.85603 0.66359 0.0
N101 N 0.54203 0.82156 0.61998 0.0
N102 N 0.45933 0.79542 0.63821 0.0
C103 C 0.50306 0.78534 0.60506 0.0
H104 H 0.44506 0.86084 0.70573 0.0
Co105 Co 0.39348 0.76076 0.63194 0.0
C106 C 0.41939 0.64178 0.62273 0.0
O107 O 0.37152 0.62748 0.60252 0.0
N108 N 0.32662 0.72829 0.62647 0.0
C109 C 0.25246 0.6886 0.65204 0.0
C110 C 0.30541 0.6962 0.66648 0.0
C111 C 0.2855 0.74047 0.58899 0.0
N112 N 0.24016 0.71681 0.60348 0.0
O113 O 0.38895 0.76538 0.72255 0.0
H114 H 0.32705 0.67958 0.70406 0.0
H115 H 0.28786 0.7684 0.55375 0.0
O116 O 0.43129 0.69134 0.63307 0.0
C117 C 0.36091 0.80402 0.74454 0.0
O118 O 0.3435 0.83835 0.70623 0.0
N119 N 0.39388 0.76112 0.54402 0.0
C120 C 0.36451 0.77379 0.41986 0.0
C121 C 0.3788 0.72378 0.43899 0.0
C122 C 0.39346 0.71823 0.50131 0.0
C123 C 0.38434 0.81058 0.52515 0.0
C124 C 0.36973 0.81784 0.46341 0.0
H125 H 0.40147 0.67907 0.51501 0.0
H126 H 0.38414 0.84426 0.5593 0.0
H127 H 0.50595 0.7526 0.56994 0.0
H128 H 0.54202 0.89155 0.68437 0.0
H129 H 0.22512 0.66462 0.67566 0.0
H130 H 0.37644 0.6888 0.40663 0.0
H131 H 0.35902 0.85717 0.45096 0.0
C132 C 0.68672 0.10752 0.94905 0.0
C133 C 0.66162 0.05901 0.94784 0.0
N134 N 0.69734 0.02309 0.96413 0.0
N135 N 0.73816 0.1022 0.96554 0.0
C136 C 0.74318 0.05037 0.97539 0.0
H137 H 0.66788 0.14457 0.94061 0.0
Co138 Co 0.78636 0.15814 0.97749 0.0
C139 C 0.89082 0.10749 1.01072 0.0
O140 O 0.89992 0.14655 0.05369 0.0
N141 N 0.83287 0.21684 0.98831 0.0
C142 C 0.89759 0.27476 0.97572 0.0
C143 C 0.88168 0.22246 0.96627 0.0
C144 C 0.81914 0.26684 1.00777 0.0
N145 N 0.85794 0.30298 1.00162 0.0
O146 O 0.78916 0.16205 0.88836 0.0
H147 H 0.90318 0.19137 0.94118 0.0
H148 H 0.77941 0.27739 0.01961 0.0
O149 O 0.84734 0.1066 0.97798 0.0
C150 C 0.75386 0.19417 0.87066 0.0
O151 O 0.72485 0.21896 0.91271 0.0
N152 N 0.77678 0.15862 0.06378 0.0
C153 C 0.74083 0.17176 0.18514 0.0
C154 C 0.77812 0.13257 0.1687 0.0
C155 C 0.79489 0.12587 0.10715 0.0
C156 C 0.73863 0.19459 0.07864 0.0
C157 C 0.72103 0.20261 0.13875 0.0
H158 H 0.82071 0.09336 0.09454 0.0
H159 H 0.72056 0.21657 0.04282 0.0
H160 H 0.7792 0.03313 0.99207 0.0
H161 H 0.61989 0.05127 0.93833 0.0
H162 H 0.93429 0.29103 0.9608 0.0
H163 H 0.79292 0.1064 0.20247 0.0
H164 H 0.69175 0.23286 0.14864 0.0
C165 C 0.96586 0.72136 0.4261 0.0
C166 C 0.01709 0.70633 0.43781 0.0
N167 N 0.03768 0.73937 0.48432 0.0
N168 N 0.95456 0.76414 0.46469 0.0
C169 C 0.99937 0.77424 0.49934 0.0
H170 H 0.93859 0.70115 0.39262 0.0
Co171 Co 0.891 0.80032 0.47351 0.0
C172 C 0.93115 0.91817 0.48512 0.0
O173 O 0.8875 0.93939 0.5063 0.0
N174 N 0.82625 0.83525 0.48188 0.0
C175 C 0.75157 0.87707 0.46017 0.0
C176 C 0.80355 0.86963 0.44453 0.0
C177 C 0.7873 0.82223 0.51947 0.0
N178 N 0.74178 0.8474 0.50759 0.0
O179 O 0.88071 0.79742 0.38348 0.0
H180 H 0.82279 0.88636 0.40653 0.0
H181 H 0.79111 0.79244 0.55262 0.0
O182 O 0.93329 0.86766 0.47311 0.0
C183 C 0.85356 0.75691 0.3611 0.0
O184 O 0.83744 0.72275 0.39946 0.0
N185 N 0.89749 0.79764 0.5612 0.0
C186 C 0.87986 0.77856 0.68519 0.0
C187 C 0.88781 0.83056 0.66774 0.0
C188 C 0.89679 0.8393 0.60547 0.0
C189 C 0.89239 0.74688 0.57792 0.0
C190 C 0.88386 0.73646 0.63934 0.0
H191 H 0.89948 0.87953 0.59271 0.0
H192 H 0.89129 0.71418 0.54245 0.0
H193 H 1.00351 0.80612 0.53573 0.0
H194 H 0.037 0.6725 0.41569 0.0
H195 H 0.72287 0.90133 0.43762 0.0
H196 H 0.88463 0.86437 0.70139 0.0
H197 H 0.87647 0.69583 0.64971 0.0
C198 C 0.22458 0.95173 0.16776 0.0
C199 C 0.24836 1.00079 0.16695 0.0
N200 N 0.26395 1.00626 0.10895 0.0
N201 N 0.22595 0.92627 0.11075 0.0
C202 C 0.25001 0.96061 0.07566 0.0
H203 H 0.20798 0.93522 0.20755 0.0
Co204 Co 0.20123 0.85776 0.09265 0.0
C205 C 0.24001 0.8195 0.9678 0.0
O206 O 0.19613 0.79179 0.95671 0.0
N207 N 0.17632 0.78672 0.07678 0.0
C208 C 0.12896 0.71152 0.06741 0.0
C209 C 0.12692 0.76608 0.06805 0.0
C210 C 0.20743 0.74358 0.08011 0.0
N211 N 0.17976 0.69747 0.07532 0.0
O212 O 0.25821 0.83329 0.14598 0.0
H213 H 0.0911 0.78856 0.06455 0.0
H214 H 0.24959 0.74611 0.08949 0.0
O215 O 0.24649 0.84915 0.01856 0.0
C216 C 0.24261 0.81997 0.19825 0.0
O217 O 0.19192 0.82261 0.2092 0.0
N218 N 0.14292 0.88549 0.04813 0.0
C219 C 0.05725 0.94869 0.01443 0.0
C220 C 0.10153 0.94289 0.97702 0.0
C221 C 0.14399 0.91078 0.99448 0.0
C222 C 0.10025 0.89127 0.08489 0.0
C223 C 0.05666 0.92141 0.06826 0.0
H224 H 0.17888 0.90954 0.96713 0.0
H225 H 0.10108 0.87406 0.12916 0.0
H226 H 0.25828 0.95204 0.02719 0.0
H227 H 0.2538 0.03023 0.20585 0.0
H228 H 0.09541 0.68444 0.06364 0.0
H229 H 0.10414 0.96453 0.93593 0.0
H230 H 0.02409 0.92604 0.09936 0.0
C231 C 0.08302 0.2188 0.3938 0.0
C232 C 0.03315 0.2396 0.39124 0.0
N233 N 1.01116 0.2356 0.44642 0.0
N234 N 0.09326 0.20192 0.45071 0.0
C235 C 0.048 0.21195 0.48124 0.0
H236 H 0.11002 0.2173 0.35619 0.0
Co237 Co 0.1575 0.17301 0.48103 0.0
C238 C 0.10692 0.06527 0.44411 0.0
O239 O 0.12788 0.06289 0.3893 0.0
N240 N 0.22131 0.1447 0.51035 0.0
C241 C 0.29236 0.09477 0.52214 0.0
C242 C 0.23898 0.09435 0.50632 0.0
C243 C 0.26415 0.17464 0.52975 0.0
N244 N 0.30829 0.14559 0.53604 0.0
O245 O 0.18227 0.16071 0.3978 0.0
H246 H 0.21561 0.05985 0.48944 0.0
H247 H 0.26386 0.21763 0.53461 0.0
O248 O 0.11834 0.10473 0.48329 0.0
C249 C 0.20997 0.20344 0.39521 0.0
O250 O 0.20727 0.24023 0.44141 0.0
N251 N 0.14094 0.19317 0.56185 0.0
C252 C 0.15774 0.23973 0.68126 0.0
C253 C 0.15202 0.18424 0.67072 0.0
C254 C 0.1434 0.16146 0.61002 0.0
C255 C 0.14327 0.24708 0.57197 0.0
C256 C 0.15107 0.27121 0.63132 0.0
H257 H 0.14405 0.11871 0.60118 0.0
H258 H 0.1437 0.27147 0.5331 0.0
H259 H 0.04297 0.20426 0.52915 0.0
H260 H 0.0148 0.25723 0.35198 0.0
H261 H 0.31768 0.06044 0.52108 0.0
H262 H 0.15766 0.15876 0.70836 0.0
H263 H 0.1568 0.31391 0.63712 0.0
C264 C 0.33399 0.07437 0.12414 0.0
C265 C 0.29129 0.0513 0.08829 0.0
C266 C 0.35823 0.12119 0.10826 0.0
C267 C 0.34001 0.14702 0.05646 0.0
H268 H 0.3479 0.05658 0.16554 0.0
H269 H 0.38952 0.13887 0.13867 0.0
S270 S 0.22989 0.10223 0.94725 0.0
N271 N 0.23253 0.05661 0.99802 0.0
N272 N 0.27763 0.14559 0.96868 0.0
C273 C 0.29816 0.12365 0.01941 0.0
C274 C 0.27395 0.07546 0.03511 0.0
C275 C 0.94524 0.30677 0.44293 0.0
C276 C 0.96186 0.25879 0.46587 0.0
C277 C 0.89774 0.33044 0.46066 0.0
C278 C 0.86453 0.30716 0.50206 0.0
H279 H 0.96939 0.32657 0.4112 0.0
H280 H 0.88645 0.36679 0.4406 0.0
S281 S 0.88987 0.18161 0.5761 0.0
N282 N 0.94115 0.18853 0.53212 0.0
N283 N 0.85226 0.23367 0.56666 0.0
C284 C 0.88078 0.25934 0.5259 0.0
C285 C 0.92936 0.23511 0.5077 0.0
C286 C 0.71265 0.94364 0.02134 0.0
C287 C 0.6877 0.96786 0.97197 0.0
C288 C 0.70339 0.88999 0.02992 0.0
C289 C 0.66869 0.85892 0.98969 0.0
H290 H 0.73909 0.96646 0.05385 0.0
H291 H 0.72336 0.87254 0.06831 0.0
S292 S 0.59828 0.90174 0.84954 0.0
N293 N 0.63 0.95565 0.87971 0.0
N294 N 0.61236 0.85481 0.89633 0.0
C295 C 0.6441 0.88234 0.9397 0.0
C296 C 0.65368 0.93686 0.93073 0.0
C297 C 0.13373 0.72646 0.48019 0.0
C298 C 0.08836 0.73503 0.51506 0.0
C299 C 0.18339 0.7211 0.5095 0.0
C300 C 0.18897 0.72293 0.57448 0.0
H301 H 0.13071 0.72434 0.43002 0.0
H302 H 0.21759 0.71463 0.4813 0.0
S303 S 0.08212 0.74432 0.68644 0.0
N304 N 0.05189 0.74501 0.61767 0.0
N305 N 0.14526 0.73476 0.67281 0.0
C306 C 0.14387 0.73141 0.60981 0.0
C307 C 0.0935 0.73759 0.58004 0.0
C308 C 0.869 0.4445 0.96145 0.0
C309 C 0.82887 0.46978 0.9957 0.0
C310 C 0.88042 0.39091 0.96624 0.0
C311 C 0.8526 0.3602 1.0062 0.0
H312 H 0.88995 0.46571 0.92803 0.0
H313 H 0.9091 0.37299 0.93541 0.0
S314 S 0.75086 0.41029 0.11537 0.0
N315 N 0.76539 0.46187 0.0764 0.0
N316 N 0.78914 0.36175 0.08851 0.0
C317 C 0.8159 0.38638 0.04532 0.0
C318 C 0.80359 0.44104 0.03953 0.0
C319 C 0.59762 0.81745 0.52771 0.0
C320 C 0.59285 0.82563 0.59238 0.0
C321 C 0.64632 0.82522 0.50004 0.0
C322 C 0.692 0.84023 0.53627 0.0
H323 H 0.5632 0.80638 0.49831 0.0
H324 H 0.64849 0.8191 0.45011 0.0
S325 S 0.70041 0.86645 0.70705 0.0
N326 N 0.63801 0.84946 0.69153 0.0
N327 N 0.72944 0.86316 0.63961 0.0
C328 C 0.6879 0.8477 0.60082 0.0
C329 C 0.63833 0.84068 0.62883 0.0
C330 C 0.18806 0.56323 0.13877 0.0
C331 C 0.23912 0.54631 0.12338 0.0
C332 C 0.16857 0.61189 0.12154 0.0
C333 C 0.19935 0.64581 0.08834 0.0
H334 H 0.16271 0.53847 0.16402 0.0
H335 H 0.12949 0.62354 0.1357 0.0
S336 S 0.33555 0.6199 0.03608 0.0
N337 N 0.32027 0.56749 0.07326 0.0
N338 N 0.28312 0.65831 0.03931 0.0
C339 C 0.25031 0.62915 0.07204 0.0
C340 C 0.27025 0.57956 0.08978 0.0
C341 C 0.3714 0.21448 0.58144 0.0
C342 C 0.36167 0.16687 0.54412 0.0
C343 C 0.42009 0.24159 0.58121 0.0
C344 C 0.46128 0.22183 0.54444 0.0
H345 H 0.34019 0.2322 0.60884 0.0
H346 H 0.42472 0.27985 0.60729 0.0
S347 S 0.45765 0.09883 0.43958 0.0
N348 N 0.39873 0.10078 0.47019 0.0
N349 N 0.49027 0.15168 0.4712 0.0
C350 C 0.45339 0.17311 0.50953 0.0
C351 C 0.40364 0.14554 0.50913 0.0
C352 C 0.50379 0.50926 0.05597 0.0
C353 C 0.55488 0.50866 0.08418 0.0
C354 C 0.46311 0.47504 0.07222 0.0
C355 C 0.47138 0.43896 0.11797 0.0
H356 H 0.4948 0.53698 0.02145 0.0
H357 H 0.42452 0.47765 0.0495 0.0
S358 S 0.59872 0.41758 0.20219 0.0
N359 N 0.61203 0.4655 0.15715 0.0
N360 N 0.53548 0.40276 0.18896 0.0
C361 C 0.52231 0.43739 0.14609 0.0
C362 C 0.56395 0.47177 0.12899 0.0
C363 C 0.55122 0.56914 0.61341 0.0
C364 C 0.5368 0.51593 0.62097 0.0
C365 C 0.51382 0.61029 0.61718 0.0
C366 C 0.46021 0.59969 0.62734 0.0
H367 H 0.59156 0.57883 0.60299 0.0
H368 H 0.52658 0.65021 0.6093 0.0
S369 S 0.40233 0.46765 0.65296 0.0
N370 N 0.46536 0.45561 0.64151 0.0
N371 N 0.39542 0.53221 0.64839 0.0
C372 C 0.44573 0.54695 0.63702 0.0
C373 C 0.48384 0.50533 0.63392 0.0
C374 C 0.0264 0.0427 1.01187 0.0
C375 C 0.01485 0.98799 1.00291 0.0
C376 C 0.98604 0.08071 1.01186 0.0
C377 C 0.93235 0.0659 1.00163 0.0
H378 H 0.06678 0.05613 0.02194 0.0
H379 H 0.99698 0.12222 0.02139 0.0
S380 S 0.8816 0.92752 0.97156 0.0
N381 N 0.94615 0.92076 0.98136 0.0
N382 N 0.87066 0.99211 0.97881 0.0
C383 C 0.92061 0.01135 0.98945 0.0
C384 C 0.9617 0.97249 0.99093 0.0
C385 C 0.9808 1.00575 0.50518 0.0
C386 C 0.9782 0.95354 0.47635 0.0
C387 C 0.02335 0.04064 0.49648 0.0
C388 C 0.06502 0.02551 0.4575 0.0
H389 H 0.94949 0.02011 0.53476 0.0
H390 H 0.02264 0.08048 0.51907 0.0
S391 S 0.07905 0.8928 0.3728 0.0
N392 N 0.023 0.88804 0.40898 0.0
N393 N 0.10173 0.95375 0.39139 0.0
C394 C 0.06341 0.97325 0.42901 0.0
C395 C 0.02052 0.93733 0.43879 0.0
C396 C 0.30022 0.28256 0.30005 0.0
C397 C 0.28678 0.26307 0.23924 0.0
C398 C 0.27808 0.25966 0.35037 0.0
C399 C 0.24155 0.21663 0.34174 0.0
H400 H 0.32456 0.31806 0.30877 0.0
H401 H 0.28741 0.27805 0.39641 0.0
S402 S 0.20332 0.14387 0.19151 0.0
N403 N 0.24244 0.19249 0.17304 0.0
N404 N 0.2002 0.15032 0.26786 0.0
C405 C 0.23239 0.1933 0.28146 0.0
C406 C 0.25513 0.21645 0.23015 0.0
C407 C 0.69339 0.20579 0.7795 0.0
C408 C 0.7453 0.20718 0.80551 0.0
C409 C 0.68056 0.23089 0.72515 0.0
C410 C 0.71893 0.25986 0.69615 0.0
H411 H 0.66187 0.18731 0.80314 0.0
H412 H 0.63976 0.23068 0.70832 0.0
S413 S 0.86127 0.2726 0.74321 0.0
N414 N 0.83581 0.23645 0.79551 0.0
N415 N 0.81185 0.28515 0.69488 0.0
C416 C 0.77148 0.25935 0.72006 0.0
C417 C 0.78467 0.23264 0.77438 0.0
C418 C 0.83297 0.69426 0.26748 0.0
C419 C 0.83868 0.74708 0.29392 0.0
C420 C 0.80999 0.68254 0.20771 0.0
C421 C 0.79084 0.7232 0.17266 0.0
H422 H 0.84452 0.66147 0.29423 0.0
H423 H 0.8039 0.64133 0.19071 0.0
S424 S 0.79943 0.86797 0.21798 0.0
N425 N 0.82676 0.84037 0.27783 0.0
N426 N 0.78196 0.8184 0.16674 0.0
C427 C 0.79856 0.77618 0.19719 0.0
C428 C 0.823 0.78816 0.25742 0.0
C429 C 0.29506 0.86184 0.89027 0.0
C430 C 0.28043 0.81642 0.91941 0.0
C431 C 0.32422 0.85757 0.83578 0.0
C432 C 0.34099 0.80787 0.80906 0.0
H433 H 0.281 0.90051 0.9073 0.0
H434 H 0.33178 0.8934 0.8129 0.0
S435 S 0.31832 0.67774 0.87295 0.0
N436 N 0.2879 0.72075 0.92059 0.0
N437 N 0.34512 0.71303 0.82075 0.0
C438 C 0.33008 0.76274 0.84087 0.0
C439 C 0.29905 0.76694 0.89522 0.0
C440 C 0.78684 0.78077 0.81968 0.0
C441 C 0.80195 0.73624 0.85101 0.0
C442 C 0.81547 0.79702 0.76977 0.0
C443 C 0.85916 0.76826 0.74739 0.0
H444 H 0.75127 0.802 0.83228 0.0
H445 H 0.80128 0.83039 0.74594 0.0
S446 S 0.91859 0.65235 0.81809 0.0
N447 N 0.86691 0.667 0.86056 0.0
N448 N 0.91962 0.69628 0.76537 0.0
C449 C 0.87665 0.7256 0.7809 0.0
C450 C 0.84828 0.70991 0.83294 0.0
C451 C 0.35411 0.82067 0.32092 0.0
C452 C 0.33859 0.77968 0.35754 0.0
C453 C 0.32526 0.83127 0.26637 0.0
C454 C 0.27925 0.80196 0.24724 0.0
H455 H 0.38793 0.8457 0.33553 0.0
H456 H 0.33727 0.86452 0.24114 0.0
S457 S 0.22316 0.68886 0.32407 0.0
N458 N 0.27538 0.70812 0.36821 0.0
N459 N 0.22128 0.72847 0.26686 0.0
C460 C 0.26457 0.7597 0.28196 0.0
C461 C 0.29419 0.74842 0.33673 0.0
C462 C 0.22666 0.24587 0.76645 0.0
C463 C 0.1793 0.26481 0.74098 0.0
C464 C 0.25233 0.27316 0.8179 0.0
C465 C 0.23158 0.32038 0.84565 0.0
H466 H 0.24474 0.21041 0.74554 0.0
H467 H 0.28816 0.25659 0.83681 0.0
S468 S 0.10838 0.38626 0.7969 0.0
N469 N 0.11215 0.33305 0.74781 0.0
N470 N 0.16103 0.385 0.84393 0.0
C471 C 0.18419 0.33967 0.82073 0.0
C472 C 0.15792 0.31175 0.76856 0.0
C473 C 0.66667 0.18994 0.25733 0.0
C474 C 0.72104 0.18137 0.24931 0.0
C475 C 0.64774 0.21146 0.31389 0.0
C476 C 0.68206 0.22417 0.36538 0.0
H477 H 0.63877 0.1829 0.21841 0.0
H478 H 0.60618 0.22103 0.3163 0.0
S479 S 0.82694 0.20349 0.37161 0.0
N480 N 0.80842 0.18317 0.29964 0.0
N481 N 0.77236 0.22198 0.40664 0.0
C482 C 0.73578 0.21141 0.35991 0.0
C483 C 0.75536 0.19023 0.30174 0.0
loop_
_geom_bond_atom_site_label_1
_geom_bond_atom_site_label_2
_geom_bond_distance
_geom_bond_site_symmetry_2
_ccdc_geom_bond_type
C0 C1 1.351 . S
C0 N3 1.368 . S
C0 H5 0.931 . S
C1 C0 1.351 . S
C1 N2 1.373 . S
C1 H29 0.930 . S
N2 C1 1.373 . S
N2 C4 1.340 . S
N3 C0 1.368 . S
N3 C4 1.321 . S
N3 Co6 2.135 . S
C4 N2 1.340 . S
C4 N3 1.321 . S
C4 H28 0.930 . S
H5 C0 0.931 . S
Co6 N3 2.135 . S
Co6 N9 2.121 . S
Co6 O14 2.055 . S
Co6 O17 2.039 . S
Co6 N20 2.140 . S
C7 O8 1.227 . S
C7 O17 1.265 . S
O8 C7 1.227 . S
N9 Co6 2.121 . S
N9 C11 1.375 . S
N9 C12 1.313 . S
C10 C11 1.338 . S
C10 N13 1.377 . S
C10 H30 0.930 . S
C11 N9 1.375 . S
C11 C10 1.338 . S
C11 H15 0.931 . S
C12 N9 1.313 . S
C12 N13 1.344 . S
C12 H16 0.930 . S
N13 C10 1.377 . S
N13 C12 1.344 . S
O14 Co6 2.055 . S
O14 C18 1.253 . S
H15 C11 0.931 . S
H16 C12 0.930 . S
O17 Co6 2.039 . S
O17 C7 1.265 . S
C18 O14 1.253 . S
C18 O19 1.227 . S
O19 C18 1.227 . S
N20 Co6 2.140 . S
N20 C23 1.346 1_554 S
N20 C24 1.345 1_554 S
C21 C22 1.387 . S
C21 C25 1.391 . S
C22 C21 1.387 . S
C22 C23 1.369 . S
C22 H31 0.929 . S
C23 N20 1.346 1_556 S
C23 C22 1.369 . S
C23 H26 0.928 . S
C24 N20 1.345 1_556 S
C24 C25 1.371 . S
C24 H27 0.931 1_556 S
C25 C21 1.391 . S
C25 C24 1.371 . S
C25 H32 0.930 . S
H26 C23 0.928 . S
H27 C24 0.931 1_554 S
H28 C4 0.930 . S
H29 C1 0.930 . S
H30 C10 0.930 . S
H31 C22 0.929 . S
H32 C25 0.930 . S
C33 C34 1.351 . S
C33 N36 1.368 . S
C33 H38 0.931 . S
C34 C33 1.351 . S
C34 N35 1.373 . S
C34 H62 0.930 . S
N35 C34 1.373 . S
N35 C37 1.340 . S
N36 C33 1.368 . S
N36 C37 1.321 . S
N36 Co39 2.135 . S
C37 N35 1.340 . S
C37 N36 1.321 . S
C37 H61 0.930 . S
H38 C33 0.931 . S
Co39 N36 2.135 . S
Co39 N42 2.121 . S
Co39 O47 2.055 . S
Co39 O50 2.039 . S
Co39 N53 2.140 . S
C40 O41 1.227 . S
C40 O50 1.265 . S
O41 C40 1.227 . S
N42 Co39 2.121 . S
N42 C44 1.375 . S
N42 C45 1.313 . S
C43 C44 1.338 . S
C43 N46 1.377 . S
C43 H63 0.930 . S
C44 N42 1.375 . S
C44 C43 1.338 . S
C44 H48 0.931 . S
C45 N42 1.313 . S
C45 N46 1.344 . S
C45 H49 0.930 . S
N46 C43 1.377 . S
N46 C45 1.344 . S
O47 Co39 2.055 . S
O47 C51 1.253 . S
H48 C44 0.931 . S
H49 C45 0.930 . S
O50 Co39 2.039 . S
O50 C40 1.265 . S
C51 O47 1.253 . S
C51 O52 1.227 . S
O52 C51 1.227 . S
N53 Co39 2.140 . S
N53 C56 1.346 . S
N53 C57 1.345 . S
C54 C55 1.387 . S
C54 C58 1.391 . S
C55 C54 1.387 . S
C55 C56 1.369 . S
C55 H64 0.929 . S
C56 N53 1.346 . S
C56 C55 1.369 . S
C56 H59 0.928 . S
C57 N53 1.345 . S
C57 C58 1.371 . S
C57 H60 0.931 . S
C58 C54 1.391 . S
C58 C57 1.371 . S
C58 H65 0.930 . S
H59 C56 0.928 . S
H60 C57 0.931 . S
H61 C37 0.930 . S
H62 C34 0.930 . S
H63 C43 0.930 . S
H64 C55 0.929 . S
H65 C58 0.930 . S
C66 C67 1.351 . S
C66 N69 1.368 1_556 S
C66 H71 0.931 . S
C67 C66 1.351 . S
C67 N68 1.373 1_556 S
C67 H95 0.930 . S
N68 C67 1.373 1_554 S
N68 C70 1.340 . S
N69 C66 1.368 1_554 S
N69 C70 1.321 . S
N69 Co72 2.135 . S
C70 N68 1.340 . S
C70 N69 1.321 . S
C70 H94 0.930 . S
H71 C66 0.931 . S
Co72 N69 2.135 . S
Co72 N75 2.121 . S
Co72 O80 2.055 1_554 S
Co72 O83 2.039 . S
Co72 N86 2.140 . S
C73 O74 1.227 . S
C73 O83 1.265 . S
O74 C73 1.227 . S
N75 Co72 2.121 . S
N75 C77 1.375 . S
N75 C78 1.313 . S
C76 C77 1.338 . S
C76 N79 1.377 . S
C76 H96 0.930 . S
C77 N75 1.375 . S
C77 C76 1.338 . S
C77 H81 0.931 . S
C78 N75 1.313 . S
C78 N79 1.344 . S
C78 H82 0.930 1_554 S
N79 C76 1.377 . S
N79 C78 1.344 . S
O80 Co72 2.055 1_556 S
O80 C84 1.253 . S
H81 C77 0.931 . S
H82 C78 0.930 1_556 S
O83 Co72 2.039 . S
O83 C73 1.265 . S
C84 O80 1.253 . S
C84 O85 1.227 . S
O85 C84 1.227 . S
N86 Co72 2.140 . S
N86 C89 1.346 . S
N86 C90 1.354 . S
C87 C88 1.387 . S
C87 C91 1.391 . S
C88 C87 1.387 . S
C88 C89 1.369 . S
C88 H97 0.929 . S
C89 N86 1.346 . S
C89 C88 1.369 . S
C89 H92 0.928 . S
C90 N86 1.354 . S
C90 C91 1.373 . S
C90 H93 0.920 1_554 S
C91 C87 1.391 . S
C91 C90 1.373 . S
C91 H98 0.930 1_554 S
H92 C89 0.928 . S
H93 C90 0.920 1_556 S
H94 C70 0.930 . S
H95 C67 0.930 . S
H96 C76 0.930 . S
H97 C88 0.929 . S
H98 C91 0.930 1_556 S
C99 C100 1.351 . S
C99 N102 1.368 . S
C99 H104 0.931 . S
C100 C99 1.351 . S
C100 N101 1.373 . S
C100 H128 0.930 . S
N101 C100 1.373 . S
N101 C103 1.340 . S
N102 C99 1.368 . S
N102 C103 1.321 . S
N102 Co105 2.135 . S
C103 N101 1.340 . S
C103 N102 1.321 . S
C103 H127 0.930 . S
H104 C99 0.931 . S
Co105 N102 2.135 . S
Co105 N108 2.121 . S
Co105 O113 2.055 . S
Co105 O116 2.039 . S
Co105 N119 2.140 . S
C106 O107 1.227 . S
C106 O116 1.265 . S
O107 C106 1.227 . S
N108 Co105 2.121 . S
N108 C110 1.375 . S
N108 C111 1.313 . S
C109 C110 1.338 . S
C109 N112 1.377 . S
C109 H129 0.930 . S
C110 N108 1.375 . S
C110 C109 1.338 . S
C110 H114 0.931 . S
C111 N108 1.313 . S
C111 N112 1.344 . S
C111 H115 0.930 . S
N112 C109 1.377 . S
N112 C111 1.344 . S
O113 Co105 2.055 . S
O113 C117 1.253 . S
H114 C110 0.931 . S
H115 C111 0.930 . S
O116 Co105 2.039 . S
O116 C106 1.265 . S
C117 O113 1.253 . S
C117 O118 1.227 . S
O118 C117 1.227 . S
N119 Co105 2.140 . S
N119 C122 1.346 . S
N119 C123 1.345 . S
C120 C121 1.387 . S
C120 C124 1.391 . S
C121 C120 1.387 . S
C121 C122 1.369 . S
C121 H130 0.929 . S
C122 N119 1.346 . S
C122 C121 1.369 . S
C122 H125 0.928 . S
C123 N119 1.345 . S
C123 C124 1.371 . S
C123 H126 0.931 . S
C124 C120 1.391 . S
C124 C123 1.371 . S
C124 H131 0.930 . S
H125 C122 0.928 . S
H126 C123 0.931 . S
H127 C103 0.930 . S
H128 C100 0.930 . S
H129 C109 0.930 . S
H130 C121 0.929 . S
H131 C124 0.930 . S
C132 C133 1.351 . S
C132 N135 1.368 . S
C132 H137 0.931 1_565 S
C133 C132 1.351 . S
C133 N134 1.373 . S
C133 H161 0.930 . S
N134 C133 1.373 . S
N134 C136 1.340 . S
N135 C132 1.368 . S
N135 C136 1.321 . S
N135 Co138 2.135 1_565 S
C136 N134 1.340 . S
C136 N135 1.321 . S
C136 H160 0.930 . S
H137 C132 0.931 1_545 S
Co138 N135 2.135 1_545 S
Co138 N141 2.121 . S
Co138 O146 2.055 . S
Co138 O149 2.039 . S
Co138 N152 2.140 1_556 S
C139 O140 1.227 . S
C139 O149 1.265 1_554 S
O140 C139 1.227 . S
N141 Co138 2.121 . S
N141 C143 1.375 1_556 S
N141 C144 1.313 . S
C142 C143 1.338 . S
C142 N145 1.377 1_554 S
C142 H162 0.930 . S
C143 N141 1.375 1_554 S
C143 C142 1.338 . S
C143 H147 0.931 . S
C144 N141 1.313 . S
C144 N145 1.344 . S
C144 H148 0.930 . S
N145 C142 1.377 1_556 S
N145 C144 1.344 . S
O146 Co138 2.055 . S
O146 C150 1.253 . S
H147 C143 0.931 . S
H148 C144 0.930 . S
O149 Co138 2.039 . S
O149 C139 1.265 1_556 S
C150 O146 1.253 . S
C150 O151 1.227 . S
O151 C150 1.227 . S
N152 Co138 2.140 1_554 S
N152 C155 1.346 . S
N152 C156 1.345 . S
C153 C154 1.387 . S
C153 C157 1.391 . S
C154 C153 1.387 . S
C154 C155 1.369 . S
C154 H163 0.929 . S
C155 N152 1.346 . S
C155 C154 1.369 . S
C155 H158 0.928 . S
C156 N152 1.345 . S
C156 C157 1.371 . S
C156 H159 0.931 . S
C157 C153 1.391 . S
C157 C156 1.371 . S
C157 H164 0.930 . S
H158 C155 0.928 . S
H159 C156 0.931 . S
H160 C136 0.930 . S
H161 C133 0.930 . S
H162 C142 0.930 . S
H163 C154 0.929 . S
H164 C157 0.930 . S
C165 C166 1.351 . S
C165 N168 1.368 . S
C165 H170 0.931 1_455 S
C166 C165 1.351 . S
C166 N167 1.373 . S
C166 H194 0.930 . S
N167 C166 1.373 . S
N167 C169 1.340 . S
N168 C165 1.368 . S
N168 C169 1.321 . S
N168 Co171 2.135 1_455 S
C169 N167 1.340 . S
C169 N168 1.321 . S
C169 H193 0.930 . S
H170 C165 0.931 1_655 S
Co171 N168 2.135 1_655 S
Co171 N174 2.121 . S
Co171 O179 2.055 . S
Co171 O182 2.039 . S
Co171 N185 2.140 . S
C172 O173 1.227 . S
C172 O182 1.265 . S
O173 C172 1.227 . S
N174 Co171 2.121 . S
N174 C176 1.375 . S
N174 C177 1.313 . S
C175 C176 1.338 . S
C175 N178 1.377 . S
C175 H195 0.930 . S
C176 N174 1.375 . S
C176 C175 1.338 . S
C176 H180 0.931 . S
C177 N174 1.313 . S
C177 N178 1.344 . S
C177 H181 0.930 . S
N178 C175 1.377 . S
N178 C177 1.344 . S
O179 Co171 2.055 . S
O179 C183 1.253 . S
H180 C176 0.931 . S
H181 C177 0.930 . S
O182 Co171 2.039 . S
O182 C172 1.265 . S
C183 O179 1.253 . S
C183 O184 1.227 . S
O184 C183 1.227 . S
N185 Co171 2.140 . S
N185 C188 1.346 . S
N185 C189 1.345 . S
C186 C187 1.387 . S
C186 C190 1.391 . S
C187 C186 1.387 . S
C187 C188 1.369 . S
C187 H196 0.929 . S
C188 N185 1.346 . S
C188 C187 1.369 . S
C188 H191 0.928 . S
C189 N185 1.345 . S
C189 C190 1.371 . S
C189 H192 0.931 . S
C190 C186 1.391 . S
C190 C189 1.371 . S
C190 H197 0.930 . S
H191 C188 0.928 . S
H192 C189 0.931 . S
H193 C169 0.930 . S
H194 C166 0.930 . S
H195 C175 0.930 . S
H196 C187 0.929 . S
H197 C190 0.930 . S
C198 C199 1.351 . S
C198 N201 1.368 . S
C198 H203 0.931 . S
C199 C198 1.351 . S
C199 N200 1.373 . S
C199 H227 0.930 . S
N200 C199 1.373 . S
N200 C202 1.340 . S
N201 C198 1.368 . S
N201 C202 1.321 . S
N201 Co204 2.135 1_545 S
C202 N200 1.340 . S
C202 N201 1.321 . S
C202 H226 0.930 1_554 S
H203 C198 0.931 . S
Co204 N201 2.135 1_565 S
Co204 N207 2.121 . S
Co204 O212 2.055 . S
Co204 O215 2.039 1_554 S
Co204 N218 2.140 . S
C205 O206 1.227 . S
C205 O215 1.265 . S
O206 C205 1.227 . S
N207 Co204 2.121 . S
N207 C209 1.375 1_554 S
N207 C210 1.313 . S
C208 C209 1.338 . S
C208 N211 1.377 1_556 S
C208 H228 0.930 . S
C209 N207 1.375 1_556 S
C209 C208 1.338 . S
C209 H213 0.931 . S
C210 N207 1.313 . S
C210 N211 1.344 . S
C210 H214 0.930 . S
N211 C208 1.377 1_554 S
N211 C210 1.344 . S
O212 Co204 2.055 . S
O212 C216 1.253 . S
H213 C209 0.931 . S
H214 C210 0.930 . S
O215 Co204 2.039 1_556 S
O215 C205 1.265 . S
C216 O212 1.253 . S
C216 O217 1.227 . S
O217 C216 1.227 . S
N218 Co204 2.140 . S
N218 C221 1.346 . S
N218 C222 1.345 . S
C219 C220 1.387 1_554 S
C219 C223 1.391 . S
C220 C219 1.387 1_556 S
C220 C221 1.369 1_556 S
C220 H229 0.929 1_565 S
C221 N218 1.346 . S
C221 C220 1.369 1_554 S
C221 H224 0.929 1_554 S
C222 N218 1.345 . S
C222 C223 1.371 . S
C222 H225 0.931 . S
C223 C219 1.391 . S
C223 C222 1.371 . S
C223 H230 0.930 . S
H224 C221 0.929 1_556 S
H225 C222 0.931 . S
H226 C202 0.930 1_556 S
H227 C199 0.930 . S
H228 C208 0.930 . S
H229 C220 0.929 1_545 S
H230 C223 0.930 . S
C231 C232 1.351 . S
C231 N234 1.368 . S
C231 H236 0.931 1_655 S
C232 C231 1.351 . S
C232 N233 1.373 . S
C232 H260 0.930 . S
N233 C232 1.373 . S
N233 C235 1.340 . S
N234 C231 1.368 . S
N234 C235 1.321 . S
N234 Co237 2.135 1_655 S
C235 N233 1.340 . S
C235 N234 1.321 . S
C235 H259 0.930 . S
H236 C231 0.931 1_455 S
Co237 N234 2.135 1_455 S
Co237 N240 2.121 . S
Co237 O245 2.055 . S
Co237 O248 2.039 . S
Co237 N251 2.140 . S
C238 O239 1.227 . S
C238 O248 1.265 . S
O239 C238 1.227 . S
N240 Co237 2.121 . S
N240 C242 1.375 . S
N240 C243 1.313 . S
C241 C242 1.338 . S
C241 N244 1.377 . S
C241 H261 0.930 . S
C242 N240 1.375 . S
C242 C241 1.338 . S
C242 H246 0.931 . S
C243 N240 1.313 . S
C243 N244 1.344 . S
C243 H247 0.930 . S
N244 C241 1.377 . S
N244 C243 1.344 . S
O245 Co237 2.055 . S
O245 C249 1.253 . S
H246 C242 0.931 . S
H247 C243 0.930 . S
O248 Co237 2.039 . S
O248 C238 1.265 . S
C249 O245 1.253 . S
C249 O250 1.227 . S
O250 C249 1.227 . S
N251 Co237 2.140 . S
N251 C254 1.346 . S
N251 C255 1.345 . S
C252 C253 1.387 . S
C252 C256 1.391 . S
C253 C252 1.387 . S
C253 C254 1.369 . S
C253 H262 0.929 . S
C254 N251 1.346 . S
C254 C253 1.369 . S
C254 H257 0.928 . S
C255 N251 1.345 . S
C255 C256 1.371 . S
C255 H258 0.931 . S
C256 C252 1.391 . S
C256 C255 1.371 . S
C256 H263 0.930 . S
H257 C254 0.928 . S
H258 C255 0.931 . S
H259 C235 0.930 . S
H260 C232 0.930 . S
H261 C241 0.930 . S
H262 C253 0.929 . S
H263 C256 0.930 . S
C264 C265 1.369 . S
C264 C266 1.419 . S
C264 H268 0.930 . S
C265 C264 1.369 . S
C265 C274 1.429 . S
C266 C264 1.419 . S
C266 C267 1.363 . S
C266 H269 0.929 . S
C267 C266 1.363 . S
C267 C273 1.428 . S
H268 C264 0.930 . S
H269 C266 0.929 . S
S270 N271 1.613 . S
S270 N272 1.610 1_556 S
N271 S270 1.613 . S
N271 C274 1.350 1_556 S
N272 S270 1.610 1_554 S
N272 C273 1.351 . S
C273 C267 1.428 . S
C273 N272 1.351 . S
C273 C274 1.434 . S
C274 C265 1.429 . S
C274 N271 1.350 1_554 S
C274 C273 1.434 . S
C275 C276 1.369 . S
C275 C277 1.419 . S
C275 H279 0.930 . S
C276 C275 1.369 . S
C276 C285 1.429 . S
C277 C275 1.419 . S
C277 C278 1.363 . S
C277 H280 0.929 . S
C278 C277 1.363 . S
C278 C284 1.428 . S
H279 C275 0.930 . S
H280 C277 0.929 . S
S281 N282 1.613 . S
S281 N283 1.610 . S
N282 S281 1.613 . S
N282 C285 1.350 . S
N283 S281 1.610 . S
N283 C284 1.351 . S
C284 C278 1.428 . S
C284 N283 1.351 . S
C284 C285 1.434 . S
C285 C276 1.429 . S
C285 N282 1.350 . S
C285 C284 1.434 . S
C286 C287 1.369 1_554 S
C286 C288 1.419 . S
C286 H290 0.930 . S
C287 C286 1.369 1_556 S
C287 C296 1.429 . S
C288 C286 1.419 . S
C288 C289 1.363 . S
C288 H291 0.929 . S
C289 C288 1.363 . S
C289 C295 1.428 1_554 S
H290 C286 0.930 . S
H291 C288 0.929 . S
S292 N293 1.613 . S
S292 N294 1.610 . S
N293 S292 1.613 . S
N293 C296 1.350 . S
N294 S292 1.610 . S
N294 C295 1.351 . S
C295 C289 1.428 1_556 S
C295 N294 1.351 . S
C295 C296 1.434 . S
C296 C287 1.429 . S
C296 N293 1.350 . S
C296 C295 1.434 . S
C297 C298 1.369 . S
C297 C299 1.419 . S
C297 H301 0.930 . S
C298 C297 1.369 . S
C298 C307 1.429 . S
C299 C297 1.419 . S
C299 C300 1.363 . S
C299 H302 0.929 . S
C300 C299 1.363 . S
C300 C306 1.428 . S
H301 C297 0.930 . S
H302 C299 0.929 . S
S303 N304 1.613 . S
S303 N305 1.610 . S
N304 S303 1.613 . S
N304 C307 1.350 . S
N305 S303 1.610 . S
N305 C306 1.351 . S
C306 C300 1.428 . S
C306 N305 1.351 . S
C306 C307 1.434 . S
C307 C298 1.429 . S
C307 N304 1.350 . S
C307 C306 1.434 . S
C308 C309 1.369 . S
C308 C310 1.419 . S
C308 H312 0.930 . S
C309 C308 1.369 . S
C309 C318 1.429 . S
C310 C308 1.419 . S
C310 C311 1.363 1_554 S
C310 H313 0.929 . S
C311 C310 1.363 1_556 S
C311 C317 1.428 . S
H312 C308 0.930 . S
H313 C310 0.929 . S
S314 N315 1.613 1_556 S
S314 N316 1.610 . S
N315 S314 1.613 1_554 S
N315 C318 1.350 . S
N316 S314 1.610 . S
N316 C317 1.351 . S
C317 C311 1.428 . S
C317 N316 1.351 . S
C317 C318 1.434 1_556 S
C318 C309 1.429 . S
C318 N315 1.350 . S
C318 C317 1.434 1_554 S
C319 C320 1.369 . S
C319 C321 1.419 . S
C319 H323 0.930 . S
C320 C319 1.369 . S
C320 C329 1.429 . S
C321 C319 1.419 . S
C321 C322 1.363 . S
C321 H324 0.929 . S
C322 C321 1.363 . S
C322 C328 1.428 . S
H323 C319 0.930 . S
H324 C321 0.929 . S
S325 N326 1.613 . S
S325 N327 1.610 . S
N326 S325 1.613 . S
N326 C329 1.350 . S
N327 S325 1.610 . S
N327 C328 1.351 . S
C328 C322 1.428 . S
C328 N327 1.351 . S
C328 C329 1.434 . S
C329 C320 1.429 . S
C329 N326 1.350 . S
C329 C328 1.434 . S
C330 C331 1.369 . S
C330 C332 1.419 . S
C330 H334 0.930 . S
C331 C330 1.369 . S
C331 C340 1.429 . S
C332 C330 1.419 . S
C332 C333 1.363 . S
C332 H335 0.929 . S
C333 C332 1.363 . S
C333 C339 1.428 . S
H334 C330 0.930 . S
H335 C332 0.929 . S
S336 N337 1.613 . S
S336 N338 1.610 . S
N337 S336 1.613 . S
N337 C340 1.350 . S
N338 S336 1.610 . S
N338 C339 1.351 . S
C339 C333 1.428 . S
C339 N338 1.351 . S
C339 C340 1.434 . S
C340 C331 1.429 . S
C340 N337 1.350 . S
C340 C339 1.434 . S
C341 C342 1.369 . S
C341 C343 1.419 . S
C341 H345 0.930 . S
C342 C341 1.369 . S
C342 C351 1.429 . S
C343 C341 1.419 . S
C343 C344 1.363 . S
C343 H346 0.929 . S
C344 C343 1.363 . S
C344 C350 1.428 . S
H345 C341 0.930 . S
H346 C343 0.929 . S
S347 N348 1.613 . S
S347 N349 1.610 . S
N348 S347 1.613 . S
N348 C351 1.350 . S
N349 S347 1.610 . S
N349 C350 1.351 . S
C350 C344 1.428 . S
C350 N349 1.351 . S
C350 C351 1.434 . S
C351 C342 1.429 . S
C351 N348 1.350 . S
C351 C350 1.434 . S
C352 C353 1.369 . S
C352 C354 1.419 . S
C352 H356 0.930 . S
C353 C352 1.369 . S
C353 C362 1.429 . S
C354 C352 1.419 . S
C354 C355 1.363 . S
C354 H357 0.929 . S
C355 C354 1.363 . S
C355 C361 1.428 . S
H356 C352 0.930 . S
H357 C354 0.929 . S
S358 N359 1.613 . S
S358 N360 1.610 . S
N359 S358 1.613 . S
N359 C362 1.350 . S
N360 S358 1.610 . S
N360 C361 1.351 . S
C361 C355 1.428 . S
C361 N360 1.351 . S
C361 C362 1.434 . S
C362 C353 1.429 . S
C362 N359 1.350 . S
C362 C361 1.434 . S
C363 C364 1.369 . S
C363 C365 1.419 . S
C363 H367 0.930 . S
C364 C363 1.369 . S
C364 C373 1.429 . S
C365 C363 1.419 . S
C365 C366 1.363 . S
C365 H368 0.929 . S
C366 C365 1.363 . S
C366 C372 1.428 . S
H367 C363 0.930 . S
H368 C365 0.929 . S
S369 N370 1.613 . S
S369 N371 1.610 . S
N370 S369 1.613 . S
N370 C373 1.350 . S
N371 S369 1.610 . S
N371 C372 1.351 . S
C372 C366 1.428 . S
C372 N371 1.351 . S
C372 C373 1.434 . S
C373 C364 1.429 . S
C373 N370 1.350 . S
C373 C372 1.434 . S
C374 C375 1.369 1_545 S
C374 C376 1.419 1_455 S
C374 H378 0.930 1_554 S
C375 C374 1.369 1_565 S
C375 C384 1.429 1_455 S
C376 C374 1.419 1_655 S
C376 C377 1.363 . S
C376 H379 0.929 1_554 S
C377 C376 1.363 . S
C377 C383 1.428 1_545 S
H378 C374 0.930 1_556 S
H379 C376 0.929 1_556 S
S380 N381 1.613 . S
S380 N382 1.610 . S
N381 S380 1.613 . S
N381 C384 1.350 . S
N382 S380 1.610 . S
N382 C383 1.351 . S
C383 C377 1.428 1_565 S
C383 N382 1.351 . S
C383 C384 1.434 . S
C384 C375 1.429 1_655 S
C384 N381 1.350 . S
C384 C383 1.434 . S
C385 C386 1.369 . S
C385 C387 1.419 1_565 S
C385 H389 0.930 . S
C386 C385 1.369 . S
C386 C395 1.429 1_655 S
C387 C385 1.419 1_545 S
C387 C388 1.363 1_655 S
C387 H390 0.929 . S
C388 C387 1.363 1_455 S
C388 C394 1.428 1_545 S
H389 C385 0.930 . S
H390 C387 0.929 . S
S391 N392 1.613 . S
S391 N393 1.610 . S
N392 S391 1.613 . S
N392 C395 1.350 . S
N393 S391 1.610 . S
N393 C394 1.351 . S
C394 C388 1.428 1_565 S
C394 N393 1.351 . S
C394 C395 1.434 . S
C395 C386 1.429 1_455 S
C395 N392 1.350 . S
C395 C394 1.434 . S
C396 C397 1.369 . S
C396 C398 1.419 . S
C396 H400 0.930 . S
C397 C396 1.369 . S
C397 C406 1.429 . S
C398 C396 1.419 . S
C398 C399 1.363 . S
C398 H401 0.929 . S
C399 C398 1.363 . S
C399 C405 1.428 . S
H400 C396 0.930 . S
H401 C398 0.929 . S
S402 N403 1.613 . S
S402 N404 1.610 . S
N403 S402 1.613 . S
N403 C406 1.350 . S
N404 S402 1.610 . S
N404 C405 1.351 . S
C405 C399 1.428 . S
C405 N404 1.351 . S
C405 C406 1.434 . S
C406 C397 1.429 . S
C406 N403 1.350 . S
C406 C405 1.434 . S
C407 C408 1.369 . S
C407 C409 1.419 . S
C407 H411 0.930 . S
C408 C407 1.369 . S
C408 C417 1.429 . S
C409 C407 1.419 . S
C409 C410 1.363 . S
C409 H412 0.929 . S
C410 C409 1.363 . S
C410 C416 1.428 . S
H411 C407 0.930 . S
H412 C409 0.929 . S
S413 N414 1.613 . S
S413 N415 1.610 . S
N414 S413 1.613 . S
N414 C417 1.350 . S
N415 S413 1.610 . S
N415 C416 1.351 . S
C416 C410 1.428 . S
C416 N415 1.351 . S
C416 C417 1.434 . S
C417 C408 1.429 . S
C417 N414 1.350 . S
C417 C416 1.434 . S
C418 C419 1.369 . S
C418 C420 1.419 . S
C418 H422 0.930 . S
C419 C418 1.369 . S
C419 C428 1.429 . S
C420 C418 1.419 . S
C420 C421 1.363 . S
C420 H423 0.929 . S
C421 C420 1.363 . S
C421 C427 1.428 . S
H422 C418 0.930 . S
H423 C420 0.929 . S
S424 N425 1.613 . S
S424 N426 1.610 . S
N425 S424 1.613 . S
N425 C428 1.350 . S
N426 S424 1.610 . S
N426 C427 1.351 . S
C427 C421 1.428 . S
C427 N426 1.351 . S
C427 C428 1.434 . S
C428 C419 1.429 . S
C428 N425 1.350 . S
C428 C427 1.434 . S
C429 C430 1.369 . S
C429 C431 1.419 . S
C429 H433 0.930 . S
C430 C429 1.369 . S
C430 C439 1.429 . S
C431 C429 1.419 . S
C431 C432 1.363 . S
C431 H434 0.929 . S
C432 C431 1.363 . S
C432 C438 1.428 . S
H433 C429 0.930 . S
H434 C431 0.929 . S
S435 N436 1.613 . S
S435 N437 1.610 . S
N436 S435 1.613 . S
N436 C439 1.350 . S
N437 S435 1.610 . S
N437 C438 1.351 . S
C438 C432 1.428 . S
C438 N437 1.351 . S
C438 C439 1.434 . S
C439 C430 1.429 . S
C439 N436 1.350 . S
C439 C438 1.434 . S
C440 C441 1.369 . S
C440 C442 1.419 . S
C440 H444 0.930 . S
C441 C440 1.369 . S
C441 C450 1.429 . S
C442 C440 1.419 . S
C442 C443 1.363 . S
C442 H445 0.929 . S
C443 C442 1.363 . S
C443 C449 1.428 . S
H444 C440 0.930 . S
H445 C442 0.929 . S
S446 N447 1.613 . S
S446 N448 1.610 . S
N447 S446 1.613 . S
N447 C450 1.350 . S
N448 S446 1.610 . S
N448 C449 1.351 . S
C449 C443 1.428 . S
C449 N448 1.351 . S
C449 C450 1.434 . S
C450 C441 1.429 . S
C450 N447 1.350 . S
C450 C449 1.434 . S
C451 C452 1.369 . S
C451 C453 1.419 . S
C451 H455 0.930 . S
C452 C451 1.369 . S
C452 C461 1.429 . S
C453 C451 1.419 . S
C453 C454 1.363 . S
C453 H456 0.929 . S
C454 C453 1.363 . S
C454 C460 1.428 . S
H455 C451 0.930 . S
H456 C453 0.929 . S
S457 N458 1.613 . S
S457 N459 1.610 . S
N458 S457 1.613 . S
N458 C461 1.350 . S
N459 S457 1.610 . S
N459 C460 1.351 . S
C460 C454 1.428 . S
C460 N459 1.351 . S
C460 C461 1.434 . S
C461 C452 1.429 . S
C461 N458 1.350 . S
C461 C460 1.434 . S
C462 C463 1.369 . S
C462 C464 1.419 . S
C462 H466 0.930 . S
C463 C462 1.369 . S
C463 C472 1.429 . S
C464 C462 1.419 . S
C464 C465 1.363 . S
C464 H467 0.929 . S
C465 C464 1.363 . S
C465 C471 1.428 . S
H466 C462 0.930 . S
H467 C464 0.929 . S
S468 N469 1.613 . S
S468 N470 1.610 . S
N469 S468 1.613 . S
N469 C472 1.350 . S
N470 S468 1.610 . S
N470 C471 1.351 . S
C471 C465 1.428 . S
C471 N470 1.351 . S
C471 C472 1.434 . S
C472 C463 1.429 . S
C472 N469 1.350 . S
C472 C471 1.434 . S
C473 C474 1.369 . S
C473 C475 1.419 . S
C473 H477 0.930 . S
C474 C473 1.369 . S
C474 C483 1.429 . S
C475 C473 1.419 . S
C475 C476 1.363 . S
C475 H478 0.929 . S
C476 C475 1.363 . S
C476 C482 1.428 . S
H477 C473 0.930 . S
H478 C475 0.929 . S
S479 N480 1.613 . S
S479 N481 1.610 . S
N480 S479 1.613 . S
N480 C483 1.350 . S
N481 S479 1.610 . S
N481 C482 1.351 . S
C482 C476 1.428 . S
C482 N481 1.351 . S
C482 C483 1.434 . S
C483 C474 1.429 . S
C483 N480 1.350 . S
C483 C482 1.434 . S
C265 N200 0.876 . S
C267 N13 0.881 . S
C276 N233 0.874 . S
C278 N46 0.877 . S
C287 N134 0.928 . S
C289 N79 0.926 . S
C298 N167 1.006 . S
C300 N112 0.952 . S
C309 N68 0.964 . S
C311 N145 0.994 . S
C320 N101 1.064 . S
C322 N178 0.985 . S
C331 N2 0.958 . S
C333 N211 0.955 . S
C342 N244 0.943 . S
C344 N35 0.919 . S
C353 C87 1.988 . S
C355 C7 1.973 . S
C364 C54 2.125 . S
C366 C106 2.121 . S
C375 C219 2.036 . S
C377 C139 2.023 . S
C386 C172 2.323 . S
C388 C238 2.312 . S
C397 C18 1.798 . S
C399 C249 1.820 . S
C408 C150 1.967 . S
C410 C40 1.974 . S
C419 C183 1.810 . S
C421 C73 1.806 . S
C430 C205 1.915 . S
C432 C117 1.899 . S
C441 C84 1.595 . S
C443 C186 1.555 . S
C452 C120 1.403 . S
C454 C216 1.441 . S
C463 C252 1.201 . S
C465 C21 1.195 . S
C474 C153 1.395 . S
C476 C51 1.410 . S
