# Generated by pormake.
# Topology unb, (4)-cn, num edge types: 1
# Building blocks:
#     Node 0, Type 0, BuildingBlock: TATPOV_clean_sbu_0, # of connection points: 4
#     Node 1, Type 0, BuildingBlock: TATPOV_clean_sbu_0, # of connection points: 4
#     Node 2, Type 0, BuildingBlock: TATPOV_clean_sbu_0, # of connection points: 4
#     Node 3, Type 0, BuildingBlock: TATPOV_clean_sbu_0, # of connection points: 4
#     Node 4, Type 0, BuildingBlock: TATPOV_clean_sbu_0, # of connection points: 4
#     Node 5, Type 0, BuildingBlock: TATPOV_clean_sbu_0, # of connection points: 4
#     Node 6, Type 0, BuildingBlock: TATPOV_clean_sbu_0, # of connection points: 4
#     Node 7, Type 0, BuildingBlock: TATPOV_clean_sbu_0, # of connection points: 4
#     Node 8, Type 0, BuildingBlock: TATPOV_clean_sbu_0, # of connection points: 4
#     Node 9, Type 0, BuildingBlock: TATPOV_clean_sbu_0, # of connection points: 4
#     Node 10, Type 0, BuildingBlock: TATPOV_clean_sbu_0, # of connection points: 4
#     Node 11, Type 0, BuildingBlock: TATPOV_clean_sbu_0, # of connection points: 4
#     Node 12, Type 0, BuildingBlock: TATPOV_clean_sbu_0, # of connection points: 4
#     Node 13, Type 0, BuildingBlock: TATPOV_clean_sbu_0, # of connection points: 4
#     Node 14, Type 0, BuildingBlock: TATPOV_clean_sbu_0, # of connection points: 4
#     Node 15, Type 0, BuildingBlock: TATPOV_clean_sbu_0, # of connection points: 4
#     Node 16, Type 0, BuildingBlock: TATPOV_clean_sbu_0, # of connection points: 4
#     Node 17, Type 0, BuildingBlock: TATPOV_clean_sbu_0, # of connection points: 4
#     Edge 18, Type (0, 0), BuildingBlock: KIFKEQ_clean_linker_1, # of connection points: 2
#     Edge 19, Type (0, 0), BuildingBlock: KIFKEQ_clean_linker_1, # of connection points: 2
#     Edge 20, Type (0, 0), BuildingBlock: KIFKEQ_clean_linker_1, # of connection points: 2
#     Edge 21, Type (0, 0), BuildingBlock: KIFKEQ_clean_linker_1, # of connection points: 2
#     Edge 22, Type (0, 0), BuildingBlock: KIFKEQ_clean_linker_1, # of connection points: 2
#     Edge 23, Type (0, 0), BuildingBlock: KIFKEQ_clean_linker_1, # of connection points: 2
#     Edge 24, Type (0, 0), BuildingBlock: KIFKEQ_clean_linker_1, # of connection points: 2
#     Edge 25, Type (0, 0), BuildingBlock: KIFKEQ_clean_linker_1, # of connection points: 2
#     Edge 26, Type (0, 0), BuildingBlock: KIFKEQ_clean_linker_1, # of connection points: 2
#     Edge 27, Type (0, 0), BuildingBlock: KIFKEQ_clean_linker_1, # of connection points: 2
#     Edge 28, Type (0, 0), BuildingBlock: KIFKEQ_clean_linker_1, # of connection points: 2
#     Edge 29, Type (0, 0), BuildingBlock: KIFKEQ_clean_linker_1, # of connection points: 2
#     Edge 30, Type (0, 0), BuildingBlock: KIFKEQ_clean_linker_1, # of connection points: 2
#     Edge 31, Type (0, 0), BuildingBlock: KIFKEQ_clean_linker_1, # of connection points: 2
#     Edge 32, Type (0, 0), BuildingBlock: KIFKEQ_clean_linker_1, # of connection points: 2
#     Edge 33, Type (0, 0), BuildingBlock: KIFKEQ_clean_linker_1, # of connection points: 2
#     Edge 34, Type (0, 0), BuildingBlock: KIFKEQ_clean_linker_1, # of connection points: 2
#     Edge 35, Type (0, 0), BuildingBlock: KIFKEQ_clean_linker_1, # of connection points: 2
#     Edge 36, Type (0, 0), BuildingBlock: KIFKEQ_clean_linker_1, # of connection points: 2
#     Edge 37, Type (0, 0), BuildingBlock: KIFKEQ_clean_linker_1, # of connection points: 2
#     Edge 38, Type (0, 0), BuildingBlock: KIFKEQ_clean_linker_1, # of connection points: 2
#     Edge 39, Type (0, 0), BuildingBlock: KIFKEQ_clean_linker_1, # of connection points: 2
#     Edge 40, Type (0, 0), BuildingBlock: KIFKEQ_clean_linker_1, # of connection points: 2
#     Edge 41, Type (0, 0), BuildingBlock: KIFKEQ_clean_linker_1, # of connection points: 2
#     Edge 42, Type (0, 0), BuildingBlock: KIFKEQ_clean_linker_1, # of connection points: 2
#     Edge 43, Type (0, 0), BuildingBlock: KIFKEQ_clean_linker_1, # of connection points: 2
#     Edge 44, Type (0, 0), BuildingBlock: KIFKEQ_clean_linker_1, # of connection points: 2
#     Edge 45, Type (0, 0), BuildingBlock: KIFKEQ_clean_linker_1, # of connection points: 2
#     Edge 46, Type (0, 0), BuildingBlock: KIFKEQ_clean_linker_1, # of connection points: 2
#     Edge 47, Type (0, 0), BuildingBlock: KIFKEQ_clean_linker_1, # of connection points: 2
#     Edge 48, Type (0, 0), BuildingBlock: KIFKEQ_clean_linker_1, # of connection points: 2
#     Edge 49, Type (0, 0), BuildingBlock: KIFKEQ_clean_linker_1, # of connection points: 2
#     Edge 50, Type (0, 0), BuildingBlock: KIFKEQ_clean_linker_1, # of connection points: 2
#     Edge 51, Type (0, 0), BuildingBlock: KIFKEQ_clean_linker_1, # of connection points: 2
#     Edge 52, Type (0, 0), BuildingBlock: KIFKEQ_clean_linker_1, # of connection points: 2
#     Edge 53, Type (0, 0), BuildingBlock: KIFKEQ_clean_linker_1, # of connection points: 2
# Relax obj value: 0.022
# Max RMSD: 0.033
# Mean RMSD: 0.033
data_MOF--net-unb--node1-TATPOV_clean_sbu_0--edge1-KIFKEQ_clean_linker_1
_symmetry_space_group_name_H-M    P1
_symmetry_Int_Tables_number       1
_symmetry_cell_setting            triclinic
loop_
_symmetry_equiv_pos_as_xyz
'x, y, z'
_cell_length_a     67.919835
_cell_length_b     67.905461
_cell_length_c     24.761952
_cell_angle_alpha  89.95484
_cell_angle_beta   90.147546
_cell_angle_gamma 120.03549
loop_
_atom_site_label
_atom_site_type_symbol
_atom_site_fract_x
_atom_site_fract_y
_atom_site_fract_z
_atom_type_partial_charge
Zn0 Zn 0.12388 0.22097 0.9547 0.0
Zn1 Zn 0.13371 0.23951 0.03996 0.0
O2 O 0.09954 0.23028 0.02494 0.0
O3 O 0.0977 0.22497 0.93725 0.0
O4 O 0.1408 0.25474 0.11503 0.0
O5 O 0.11894 0.19106 0.97814 0.0
O6 O 0.14024 0.21231 0.04491 0.0
C7 C 0.0888 0.2268 0.98019 0.0
C8 C 0.16403 0.26095 0.94269 0.0
O9 O 0.15709 0.2644 0.98772 0.0
O10 O 0.15354 0.2415 0.92127 0.0
C11 C 0.14108 0.2735 0.12212 0.0
O12 O 0.13691 0.2829 0.08055 0.0
C13 C 0.1319 0.19384 0.01757 0.0
Zn14 Zn 0.73454 0.87651 0.98701 0.0
Zn15 Zn 0.72566 0.86897 0.07736 0.0
O16 O 0.74516 0.8534 0.06312 0.0
O17 O 0.73774 0.84921 0.97626 0.0
O18 O 0.71378 0.86224 0.15524 0.0
O19 O 0.76209 0.90647 0.99387 0.0
O20 O 0.74388 0.90486 0.0682 0.0
C21 C 0.74554 0.8446 0.01771 0.0
C22 C 0.69053 0.85876 0.99013 0.0
O23 O 0.69578 0.8521 0.03306 0.0
O24 O 0.7059 0.87548 0.96474 0.0
C25 C 0.69941 0.84183 0.16839 0.0
O26 O 0.69412 0.82561 0.13269 0.0
C27 C 0.75921 0.91654 0.03319 0.0
Zn28 Zn 0.11704 0.87477 0.01712 0.0
Zn29 Zn 0.12638 0.85911 0.09297 0.0
O30 O 0.15295 0.89359 0.08623 0.0
O31 O 0.14699 0.90138 1.0037 0.0
O32 O 0.13215 0.84766 0.16515 0.0
O33 O 0.09202 0.87803 0.04956 0.0
O34 O 0.09192 0.85015 0.09413 0.0
C35 C 0.15946 0.90681 0.0451 0.0
C36 C 0.11755 0.83499 0.98823 0.0
O37 O 0.12819 0.839 0.03311 0.0
O38 O 0.10873 0.8468 0.97444 0.0
C39 C 0.14564 0.83977 0.1696 0.0
O40 O 0.15633 0.83886 0.12638 0.0
C41 C 0.08127 0.85996 0.07668 0.0
Zn42 Zn 0.25413 0.10773 0.05414 0.0
Zn43 Zn 0.26785 0.11781 0.96243 0.0
O44 O 0.25899 0.08336 0.97148 0.0
O45 O 0.25725 0.08041 0.05992 0.0
O46 O 0.28103 0.12738 0.88575 0.0
O47 O 0.22406 0.10465 0.04222 0.0
O48 O 0.24018 0.12368 0.96813 0.0
C49 C 0.25698 0.07195 0.01439 0.0
C50 C 0.2949 0.1473 0.05808 0.0
O51 O 0.2952 0.14077 1.00996 0.0
O52 O 0.27729 0.13659 0.08654 0.0
C53 C 0.29756 0.12466 0.87166 0.0
O54 O 0.30469 0.11469 0.90567 0.0
C55 C 0.22389 0.11617 1.00238 0.0
Zn56 Zn 0.88529 0.12446 0.01598 0.0
Zn57 Zn 0.87117 0.13322 0.9371 0.0
O58 O 0.9068 0.14761 0.92878 0.0
O59 O 0.91366 0.12761 0.98755 0.0
O60 O 0.86112 0.14209 0.86691 0.0
O61 O 0.85901 0.09415 0.02782 0.0
O62 O 0.85064 0.09742 0.94375 0.0
C63 C 0.92063 0.14227 0.95042 0.0
C64 C 0.87241 0.15472 0.0458 0.0
O65 O 0.86326 0.14866 0.99915 0.0
O66 O 0.88672 0.14916 0.06089 0.0
C67 C 0.84455 0.14589 0.86449 0.0
O68 O 0.83288 0.14367 0.90857 0.0
C69 C 0.84681 0.08543 0.98653 0.0
Zn70 Zn 0.88819 0.79015 0.98138 0.0
Zn71 Zn 0.873 0.76006 0.90979 0.0
O72 O 0.85551 0.77861 0.90567 0.0
O73 O 0.87334 0.80731 0.96179 0.0
O74 O 0.86229 0.74 0.84104 0.0
O75 O 0.9206 0.80391 0.9682 0.0
O76 O 0.90906 0.77515 0.91171 0.0
C77 C 0.85769 0.79663 0.92784 0.0
C78 C 0.86225 0.74473 0.02446 0.0
O79 O 0.86011 0.73886 0.9749 0.0
O80 O 0.87351 0.76555 0.03737 0.0
C81 C 0.85497 0.71864 0.83954 0.0
O82 O 0.85436 0.7081 0.88455 0.0
C83 C 0.92512 0.79239 0.936 0.0
Zn84 Zn 0.7719 0.57621 0.31742 0.0
Zn85 Zn 0.78519 0.59579 0.40362 0.0
O86 O 0.74916 0.57702 0.40579 0.0
O87 O 0.74123 0.55274 0.33938 0.0
O88 O 0.79581 0.61176 0.47772 0.0
O89 O 0.79563 0.56815 0.30763 0.0
O90 O 0.80294 0.57781 0.39313 0.0
C91 C 0.73459 0.5598 0.37849 0.0
C92 C 0.78892 0.62223 0.30183 0.0
O93 O 0.79631 0.62251 0.3494 0.0
O94 O 0.77537 0.60349 0.27967 0.0
C95 C 0.7932 0.62853 0.49036 0.0
O96 O 0.78282 0.63504 0.45593 0.0
C97 C 0.80634 0.56933 0.35032 0.0
Zn98 Zn 0.45636 0.23892 0.38877 0.0
Zn99 Zn 0.42413 0.22146 0.45438 0.0
O100 O 0.43945 0.20089 0.45086 0.0
O101 O 0.46963 0.21955 0.39965 0.0
O102 O 0.40194 0.20879 0.51882 0.0
O103 O 0.47262 0.27019 0.41518 0.0
O104 O 0.44177 0.25732 0.4645 0.0
C105 C 0.45701 0.20236 0.42797 0.0
C106 C 0.41216 0.22042 0.33814 0.0
O107 O 0.40481 0.2148 0.3863 0.0
O108 O 0.43334 0.23093 0.32902 0.0
C109 C 0.39037 0.18749 0.5284 0.0
O110 O 0.39242 0.17344 0.49556 0.0
C111 C 0.46044 0.27398 0.44701 0.0
Zn112 Zn 0.77562 0.2188 0.34566 0.0
Zn113 Zn 0.78278 0.20878 0.43208 0.0
O114 O 0.80305 0.24445 0.43232 0.0
O115 O 0.80397 0.24858 0.34424 0.0
O116 O 0.7882 0.19802 0.50548 0.0
O117 O 0.74644 0.21719 0.36108 0.0
O118 O 0.7471 0.19454 0.42336 0.0
C119 C 0.81154 0.25684 0.39035 0.0
C120 C 0.78939 0.18864 0.32921 0.0
O121 O 0.79602 0.1955 0.37729 0.0
O122 O 0.7754 0.1931 0.30666 0.0
C123 C 0.80823 0.20238 0.51796 0.0
O124 O 0.82486 0.21425 0.48394 0.0
C125 C 0.73596 0.20144 0.39488 0.0
Zn126 Zn 0.91735 0.46958 0.39597 0.0
Zn127 Zn 0.92773 0.47125 0.29983 0.0
O128 O 0.91067 0.43642 0.31792 0.0
O129 O 0.90997 0.43764 0.40658 0.0
O130 O 0.93848 0.47377 0.22151 0.0
O131 O 0.89261 0.47612 0.38418 0.0
O132 O 0.90752 0.48686 0.30332 0.0
C133 C 0.90637 0.42631 0.36362 0.0
C134 C 0.96328 0.49855 0.38609 0.0
O135 O 0.9586 0.48889 0.34004 0.0
O136 O 0.94744 0.49501 0.41817 0.0
C137 C 0.94971 0.46397 0.20938 0.0
O138 O 0.95264 0.45186 0.24663 0.0
C139 C 0.89369 0.48579 0.33986 0.0
Zn140 Zn 0.52522 0.47919 0.3906 0.0
Zn141 Zn 0.51828 0.47561 0.29564 0.0
O142 O 0.5544 0.49583 0.30571 0.0
O143 O 0.55765 0.49073 0.39233 0.0
O144 O 0.51101 0.47858 0.21591 0.0
O145 O 0.50378 0.44586 0.40116 0.0
O146 O 0.50644 0.4415 0.31394 0.0
C147 C 0.56685 0.49893 0.34751 0.0
C148 C 0.49938 0.49678 0.37684 0.0
O149 O 0.49698 0.48514 0.3345 0.0
O150 O 0.5158 0.50153 0.40817 0.0
C151 C 0.49035 0.472 0.20354 0.0
O152 O 0.47464 0.46149 0.24048 0.0
C153 C 0.4999 0.4329 0.361 0.0
Zn154 Zn 0.531 0.08095 0.34781 0.0
Zn155 Zn 0.52537 0.07121 0.25859 0.0
O156 O 0.50673 0.08783 0.27165 0.0
O157 O 0.50085 0.07879 0.35734 0.0
O158 O 0.51919 0.05862 0.18115 0.0
O159 O 0.55819 0.11123 0.33845 0.0
O160 O 0.56093 0.09297 0.26858 0.0
C161 C 0.49633 0.08655 0.3157 0.0
C162 C 0.52007 0.03843 0.34735 0.0
O163 O 0.51188 0.04159 0.30403 0.0
O164 O 0.53535 0.05546 0.37223 0.0
C165 C 0.49862 0.04454 0.16838 0.0
O166 O 0.48261 0.04023 0.20388 0.0
C167 C 0.57021 0.10961 0.30191 0.0
Zn168 Zn 0.43078 0.88724 0.67872 0.0
Zn169 Zn 0.44585 0.91214 0.75283 0.0
O170 O 0.41037 0.89116 0.7628 0.0
O171 O 0.40415 0.86176 0.71381 0.0
O172 O 0.45725 0.93304 0.81939 0.0
O173 O 0.45814 0.88533 0.66369 0.0
O174 O 0.46688 0.89749 0.74728 0.0
C175 C 0.39681 0.87094 0.74615 0.0
C176 C 0.44152 0.92907 0.64319 0.0
O177 O 0.45248 0.93356 0.68769 0.0
O178 O 0.42647 0.9088 0.6329 0.0
C179 C 0.44968 0.94638 0.83037 0.0
O180 O 0.43416 0.94635 0.79852 0.0
C181 C 0.47089 0.88967 0.70427 0.0
Zn182 Zn 0.11005 0.52291 0.73054 0.0
Zn183 Zn 0.07504 0.51289 0.7851 0.0
O184 O 0.0806 0.48505 0.78499 0.0
O185 O 0.11416 0.49687 0.74858 0.0
O186 O 0.05332 0.50762 0.84801 0.0
O187 O 0.13179 0.55395 0.75719 0.0
O188 O 0.09876 0.54781 0.78669 0.0
C189 C 0.09647 0.48129 0.77059 0.0
C190 C 0.06865 0.5149 0.66999 0.0
O191 O 0.05875 0.51031 0.71569 0.0
O192 O 0.08943 0.5203 0.66666 0.0
C193 C 0.03739 0.48791 0.86137 0.0
O194 O 0.03439 0.47025 0.83305 0.0
C195 C 0.11966 0.56159 0.77589 0.0
Zn196 Zn 0.40497 0.53165 0.69453 0.0
Zn197 Zn 0.41634 0.52394 0.77378 0.0
O198 O 0.43879 0.55899 0.76062 0.0
O199 O 0.43596 0.55533 0.67265 0.0
O200 O 0.42532 0.51466 0.84503 0.0
O201 O 0.38363 0.54075 0.72554 0.0
O202 O 0.38139 0.51348 0.77646 0.0
C203 C 0.44626 0.56706 0.71356 0.0
C204 C 0.40838 0.49583 0.67423 0.0
O205 O 0.42156 0.50562 0.71438 0.0
O206 O 0.39281 0.50033 0.66431 0.0
C207 C 0.44601 0.52335 0.86015 0.0
O208 O 0.46199 0.53934 0.83032 0.0
C209 C 0.37188 0.52393 0.75577 0.0
Zn210 Zn 0.54581 0.76378 0.66401 0.0
Zn211 Zn 0.56842 0.77626 0.58726 0.0
O212 O 0.54577 0.74084 0.58316 0.0
O213 O 0.51787 0.7384 0.63199 0.0
O214 O 0.58727 0.78503 0.51745 0.0
O215 O 0.54757 0.79298 0.68031 0.0
O216 O 0.55549 0.79872 0.59388 0.0
C217 C 0.52559 0.72894 0.60169 0.0
C218 C 0.58721 0.77169 0.69335 0.0
O219 O 0.59114 0.78294 0.64951 0.0
O220 O 0.56699 0.75694 0.70487 0.0
C221 C 0.60731 0.80221 0.51525 0.0
O222 O 0.61597 0.81469 0.5588 0.0
C223 C 0.55043 0.80466 0.63841 0.0
Zn224 Zn 0.19453 0.75532 0.69742 0.0
Zn225 Zn 0.18661 0.76518 0.61386 0.0
O226 O 0.22165 0.78747 0.62833 0.0
O227 O 0.22029 0.78555 0.71671 0.0
O228 O 0.17981 0.77339 0.53859 0.0
O229 O 0.20044 0.73098 0.67115 0.0
O230 O 0.17542 0.73013 0.61401 0.0
C231 C 0.23109 0.7951 0.67429 0.0
C232 C 0.15721 0.7594 0.70925 0.0
O233 O 0.16628 0.77083 0.66643 0.0
O234 O 0.16414 0.74661 0.72784 0.0
C235 C 0.17829 0.79125 0.53249 0.0
O236 O 0.18144 0.80418 0.57479 0.0
C237 C 0.18467 0.72003 0.63756 0.0
Zn238 Zn 0.18894 0.40027 0.65729 0.0
Zn239 Zn 0.18278 0.38361 0.57527 0.0
O240 O 0.15337 0.38553 0.5956 0.0
O241 O 0.15707 0.38347 0.68275 0.0
O242 O 0.1779 0.36966 0.49894 0.0
O243 O 0.20256 0.43234 0.63131 0.0
O244 O 0.21332 0.41495 0.57484 0.0
C245 C 0.14505 0.38283 0.64318 0.0
C246 C 0.20262 0.36964 0.66484 0.0
O247 O 0.1883 0.36222 0.62589 0.0
O248 O 0.20994 0.38968 0.68156 0.0
C249 C 0.16647 0.34815 0.49211 0.0
O250 O 0.15748 0.33508 0.5346 0.0
C251 C 0.21747 0.43318 0.59954 0.0
H252 H 0.14326 0.30292 0.4661 0.0
H253 H 0.18273 0.3694 0.39406 0.0
H254 H 0.13788 0.28533 0.37767 0.0
H255 H 0.1777 0.35171 0.3053 0.0
H256 H 0.14281 0.31345 0.14879 0.0
H257 H 0.14943 0.33153 0.23697 0.0
H258 H 0.15699 0.27739 0.30686 0.0
H259 H 0.14989 0.259 0.2185 0.0
C260 C 0.15091 0.31384 0.43142 0.0
C261 C 0.16341 0.33766 0.43747 0.0
C262 C 0.14794 0.30369 0.38053 0.0
C263 C 0.15738 0.317 0.33396 0.0
C264 C 0.16993 0.34085 0.33999 0.0
C265 C 0.17292 0.35104 0.39103 0.0
C266 C 0.14591 0.30535 0.18287 0.0
C267 C 0.14573 0.28466 0.17629 0.0
C268 C 0.14988 0.31587 0.23358 0.0
C269 C 0.15378 0.30602 0.27944 0.0
C270 C 0.15376 0.28538 0.27278 0.0
C271 C 0.14981 0.27486 0.22194 0.0
H272 H 0.59445 0.78167 0.41565 0.0
H273 H 0.6513 0.83622 0.50001 0.0
H274 H 0.61704 0.79159 0.3332 0.0
H275 H 0.67406 0.84576 0.41816 0.0
H276 H 0.70109 0.87131 0.247 0.0
H277 H 0.67889 0.86195 0.33013 0.0
H278 H 0.6482 0.79041 0.29267 0.0
H279 H 0.66987 0.79979 0.20924 0.0
C280 C 0.6118 0.79571 0.41674 0.0
C281 C 0.62099 0.80812 0.46464 0.0
C282 C 0.62485 0.80135 0.36944 0.0
C283 C 0.64751 0.8195 0.36871 0.0
C284 C 0.65664 0.8319 0.4167 0.0
C285 C 0.64357 0.82631 0.4639 0.0
C286 C 0.6897 0.85359 0.25668 0.0
C287 C 0.68728 0.83634 0.22119 0.0
C288 C 0.67698 0.84818 0.30454 0.0
C289 C 0.66153 0.82537 0.31829 0.0
C290 C 0.65951 0.80817 0.28316 0.0
C291 C 0.67214 0.81357 0.23536 0.0
H292 H 0.1728 0.82755 0.50883 0.0
H293 H 0.17153 0.76941 0.43456 0.0
H294 H 0.16439 0.83851 0.42203 0.0
H295 H 0.16269 0.78022 0.34743 0.0
H296 H 0.17244 0.82112 0.19106 0.0
H297 H 0.17969 0.80889 0.27768 0.0
H298 H 0.13471 0.82777 0.35556 0.0
H299 H 0.12774 0.84039 0.26881 0.0
C300 C 0.17064 0.817 0.47402 0.0
C301 C 0.17291 0.79758 0.47893 0.0
C302 C 0.16562 0.82323 0.42411 0.0
C303 C 0.16276 0.81027 0.37741 0.0
C304 C 0.16501 0.79079 0.38228 0.0
C305 C 0.16998 0.78451 0.43237 0.0
C306 C 0.16404 0.82266 0.22658 0.0
C307 C 0.14953 0.83185 0.22274 0.0
C308 C 0.16809 0.81547 0.27637 0.0
C309 C 0.15783 0.8173 0.32394 0.0
C310 C 0.14318 0.82635 0.32003 0.0
C311 C 0.13907 0.83349 0.27014 0.0
H312 H 0.37939 0.21072 0.60287 0.0
H313 H 0.36718 0.14353 0.56394 0.0
H314 H 0.35577 0.19544 0.68382 0.0
H315 H 0.34368 0.12839 0.64416 0.0
H316 H 0.32854 0.11561 0.8252 0.0
H317 H 0.34982 0.13092 0.74207 0.0
H318 H 0.31568 0.16926 0.71533 0.0
H319 H 0.29422 0.15386 0.7993 0.0
C320 C 0.37162 0.19271 0.61134 0.0
C321 C 0.37536 0.17843 0.57683 0.0
C322 C 0.35796 0.18391 0.65761 0.0
C323 C 0.34789 0.16067 0.67082 0.0
C324 C 0.35139 0.14641 0.6358 0.0
C325 C 0.36483 0.15512 0.5895 0.0
C326 C 0.32541 0.12721 0.80162 0.0
C327 C 0.30957 0.13342 0.81911 0.0
C328 C 0.33759 0.13594 0.75365 0.0
C329 C 0.33449 0.15132 0.72173 0.0
C330 C 0.31863 0.15758 0.73907 0.0
C331 C 0.3062 0.14862 0.78701 0.0
H332 H 0.84947 0.21086 0.55673 0.0
H333 H 0.7779 0.17453 0.59531 0.0
H334 H 0.85774 0.19693 0.63925 0.0
H335 H 0.78612 0.16002 0.67762 0.0
H336 H 0.81183 0.15763 0.84817 0.0
H337 H 0.80282 0.17091 0.76543 0.0
H338 H 0.85449 0.16384 0.68088 0.0
H339 H 0.86391 0.15111 0.76419 0.0
C340 C 0.83543 0.1998 0.58271 0.0
C341 C 0.81298 0.19387 0.56917 0.0
C342 C 0.84018 0.19162 0.63004 0.0
C343 C 0.82264 0.17718 0.66537 0.0
C344 C 0.80015 0.1713 0.65191 0.0
C345 C 0.79539 0.17955 0.60449 0.0
C346 C 0.82128 0.15885 0.81195 0.0
C347 C 0.83868 0.15333 0.81311 0.0
C348 C 0.81598 0.16636 0.76422 0.0
C349 C 0.82789 0.16854 0.71609 0.0
C350 C 0.84515 0.16276 0.71717 0.0
C351 C 0.85049 0.1553 0.76499 0.0
H352 H 0.85342 0.73453 0.7382 0.0
H353 H 0.83756 0.6729 0.8237 0.0
H354 H 0.83922 0.71283 0.65461 0.0
H355 H 0.82292 0.65114 0.74052 0.0
H356 H 0.81755 0.62167 0.57026 0.0
H357 H 0.83315 0.64351 0.65343 0.0
H358 H 0.80464 0.68583 0.61132 0.0
H359 H 0.78955 0.66442 0.5281 0.0
C360 C 0.84688 0.71635 0.73928 0.0
C361 C 0.84666 0.70554 0.78796 0.0
C362 C 0.83857 0.70382 0.69127 0.0
C363 C 0.82977 0.6801 0.69045 0.0
C364 C 0.82978 0.66936 0.73912 0.0
C365 C 0.83808 0.68188 0.78709 0.0
C366 C 0.81459 0.63562 0.57879 0.0
C367 C 0.80228 0.64123 0.54219 0.0
C368 C 0.82347 0.64813 0.62672 0.0
C369 C 0.82031 0.66661 0.63938 0.0
C370 C 0.80785 0.67205 0.60281 0.0
C371 C 0.799 0.65958 0.55504 0.0
H372 H 0.9693 0.44065 0.1683 0.0
H373 H 0.95519 0.49433 0.12871 0.0
H374 H 0.98923 0.44664 0.08307 0.0
H375 H 0.9752 0.50028 0.04265 0.0
H376 H 0.03736 0.52049 0.92751 0.0
H377 H 0.01477 0.51456 1.00907 0.0
H378 H 0.98204 0.44191 0.98571 0.0
H379 H 0.00462 0.44775 0.90477 0.0
C380 C 0.97029 0.45365 0.14123 0.0
C381 C 0.96059 0.46699 0.15551 0.0
C382 C 0.98166 0.45701 0.09209 0.0
C383 C 0.98384 0.47393 0.05582 0.0
C384 C 0.97401 0.48722 0.06982 0.0
C385 C 0.9624 0.4837 0.11896 0.0
C386 C 0.02527 0.50325 0.93963 0.0
C387 C 0.02296 0.48461 0.9096 0.0
C388 C 0.0122 0.49986 0.98624 0.0
C389 C -0.00335 0.47775 1.00421 0.0
C390 C -0.00593 0.45916 0.97355 0.0
C391 C 0.00698 0.46254 0.92688 0.0
H392 H 0.51711 0.49184 0.11358 0.0
H393 H 0.44901 0.46609 0.17411 0.0
H394 H 0.50637 0.50307 0.02962 0.0
H395 H 0.43857 0.47809 0.09202 0.0
H396 H 0.41916 0.48538 0.92128 0.0
H397 H 0.43003 0.47168 1.00059 0.0
H398 H 0.498 0.52972 0.9918 0.0
H399 H 0.48732 0.54278 0.9113 0.0
C400 C 0.49986 0.48855 0.10903 0.0
C401 C 0.48397 0.47798 0.15077 0.0
C402 C 0.4937 0.49519 0.06097 0.0
C403 C 0.47152 0.49162 0.0535 0.0
C404 C 0.45566 0.48082 0.09526 0.0
C405 C 0.46174 0.47402 0.14286 0.0
C406 C 0.43642 0.49522 0.93631 0.0
C407 C 0.4523 0.51523 0.90979 0.0
C408 C 0.44269 0.48741 0.98214 0.0
C409 C 0.46499 0.49953 1.00327 0.0
C410 C 0.48082 0.5196 0.9766 0.0
C411 C 0.4746 0.52725 0.93048 0.0
H412 H 0.52709 0.04201 0.0928 0.0
H413 H 0.45623 0.01783 0.12613 0.0
H414 H 0.51623 0.01908 1.01003 0.0
H415 H 0.44548 -0.00502 0.04429 0.0
H416 H 0.43444 0.97423 0.86769 0.0
H417 H 0.44732 -0.00096 0.94638 0.0
H418 H 0.49666 0.97838 0.98132 0.0
H419 H 0.48384 0.95353 0.90187 0.0
C420 C 0.50924 0.03196 0.08236 0.0
C421 C 0.49256 0.03185 0.11621 0.0
C422 C 0.503 0.01866 0.03514 0.0
C423 C 0.47996 0.00514 0.02034 0.0
C424 C 0.46338 0.00535 0.05389 0.0
C425 C 0.46958 0.01843 0.10112 0.0
C426 C 0.44807 0.97494 0.89196 0.0
C427 C 0.45799 0.96172 0.87838 0.0
C428 C 0.45541 0.98915 0.93736 0.0
C429 C 0.47298 0.99069 0.97052 0.0
C430 C 0.48322 0.97778 0.9565 0.0
C431 C 0.47575 0.9634 0.91112 0.0
H432 H 0.17968 0.30666 0.95188 0.0
H433 H 0.18747 0.25721 0.8586 0.0
H434 H 0.19871 0.33468 0.88044 0.0
H435 H 0.20611 0.2851 0.78716 0.0
H436 H 0.18255 0.32323 0.65889 0.0
H437 H 0.18302 0.29851 0.72979 0.0
H438 H 0.23358 0.35712 0.81744 0.0
H439 H 0.23352 0.38187 0.74635 0.0
C440 C 0.18624 0.30206 0.91724 0.0
C441 C 0.18158 0.27964 0.9101 0.0
C442 C 0.19714 0.31808 0.87631 0.0
C443 C 0.20342 0.3118 0.82796 0.0
C444 C 0.20112 0.29019 0.82374 0.0
C445 C 0.19044 0.27429 0.86467 0.0
C446 C 0.19439 0.33078 0.69218 0.0
C447 C 0.20753 0.35447 0.69772 0.0
C448 C 0.19471 0.31665 0.73276 0.0
C449 C 0.2081 0.32605 0.77939 0.0
C450 C 0.22295 0.34955 0.78217 0.0
C451 C 0.22284 0.36364 0.7414 0.0
H452 H 0.58294 0.75294 0.79317 0.0
H453 H 0.62985 0.80896 0.69264 0.0
H454 H 0.60519 0.77261 0.8727 0.0
H455 H 0.65245 0.82826 0.77214 0.0
H456 H 0.66881 0.8711 0.91761 0.0
H457 H 0.64373 0.84684 0.84615 0.0
H458 H 0.64142 0.78829 0.92153 0.0
H459 H 0.66605 0.81255 0.99392 0.0
C460 C 0.59839 0.76913 0.78779 0.0
C461 C 0.60436 0.77969 0.73679 0.0
C462 C 0.61107 0.7804 0.83346 0.0
C463 C 0.63 0.80229 0.82872 0.0
C464 C 0.63738 0.81172 0.77705 0.0
C465 C 0.62466 0.80051 0.73141 0.0
C466 C 0.66223 0.85292 0.91991 0.0
C467 C 0.66951 0.8437 0.96075 0.0
C468 C 0.64826 0.83911 0.87858 0.0
C469 C 0.64147 0.81588 0.87726 0.0
C470 C 0.64667 0.80621 0.92125 0.0
C471 C 0.66055 0.82005 0.96299 0.0
H472 H 0.09412 0.82191 0.89349 0.0
H473 H 0.13867 0.80965 0.99555 0.0
H474 H 0.09661 0.79827 0.82328 0.0
H475 H 0.14108 0.78589 0.9248 0.0
H476 H 0.13449 0.73652 0.79957 0.0
H477 H 0.1187 0.75012 0.86857 0.0
H478 H 0.13046 0.80637 0.76575 0.0
H479 H 0.14638 0.79289 0.69657 0.0
C480 C 0.10421 0.81392 0.90131 0.0
C481 C 0.11657 0.81796 0.94976 0.0
C482 C 0.10557 0.80038 0.86101 0.0
C483 C 0.11914 0.79045 0.86851 0.0
C484 C 0.13033 0.79324 0.91823 0.0
C485 C 0.12908 0.80693 0.95859 0.0
C486 C 0.1332 0.75149 0.79104 0.0
C487 C 0.14215 0.76397 0.74314 0.0
C488 C 0.12423 0.75926 0.83068 0.0
C489 C 0.1238 0.77947 0.82281 0.0
C490 C 0.1306 0.79069 0.77277 0.0
C491 C 0.13972 0.78299 0.73315 0.0
H492 H 0.36572 0.19829 0.34108 0.0
H493 H 0.42273 0.22874 0.23114 0.0
H494 H 0.33968 0.18628 0.26461 0.0
H495 H 0.39659 0.21694 0.15469 0.0
H496 H 0.33899 0.15729 0.04822 0.0
H497 H 0.36956 0.17988 0.11249 0.0
H498 H 0.3265 0.20111 0.19117 0.0
H499 H 0.29596 0.17814 0.12804 0.0
C500 C 0.37269 0.20265 0.30069 0.0
C501 C 0.39626 0.21433 0.29222 0.0
C502 C 0.35779 0.19595 0.25685 0.0
C503 C 0.36615 0.2008 0.20367 0.0
C504 C 0.3897 0.21289 0.19521 0.0
C505 C 0.40462 0.21966 0.23906 0.0
C506 C 0.33646 0.16747 0.07807 0.0
C507 C 0.31516 0.16579 0.08399 0.0
C508 C 0.35388 0.18034 0.11492 0.0
C509 C 0.35013 0.19175 0.15763 0.0
C510 C 0.32961 0.19199 0.15955 0.0
C511 C 0.31223 0.17901 0.12323 0.0
H512 H 0.88488 0.16358 0.15128 0.0
H513 H 0.83925 0.16618 0.03307 0.0
H514 H 0.86467 0.17 0.22283 0.0
H515 H 0.81972 0.1741 0.10502 0.0
H516 H 0.77232 0.15998 0.24367 0.0
H517 H 0.79407 0.15354 0.17493 0.0
H518 H 0.85574 0.19471 0.26644 0.0
H519 H 0.83368 0.19992 0.33637 0.0
C520 C 0.87088 0.16616 0.14033 0.0
C521 C 0.86345 0.16405 0.08646 0.0
C522 C 0.85929 0.16992 0.1816 0.0
C523 C 0.84026 0.17212 0.16994 0.0
C524 C 0.83387 0.17173 0.11559 0.0
C525 C 0.84527 0.16757 0.07422 0.0
C526 C 0.79045 0.16706 0.2496 0.0
C527 C 0.80136 0.18034 0.29523 0.0
C528 C 0.80299 0.16377 0.20982 0.0
C529 C 0.82676 0.1741 0.21439 0.0
C530 C 0.83746 0.1864 0.2616 0.0
C531 C 0.82482 0.18929 0.30193 0.0
H532 H 0.8635 0.75232 0.13281 0.0
H533 H 0.83618 0.69852 1.01354 0.0
H534 H 0.84453 0.72448 0.20406 0.0
H535 H 0.81756 0.67063 0.08522 0.0
H536 H 0.76892 0.62872 0.21421 0.0
H537 H 0.78627 0.65958 0.14917 0.0
H538 H 0.84658 0.69318 0.24886 0.0
H539 H 0.82894 0.66233 0.31481 0.0
C540 C 0.85354 0.73454 0.12178 0.0
C541 C 0.85128 0.72761 0.06745 0.0
C542 C 0.84275 0.71862 0.1627 0.0
C543 C 0.82947 0.69545 0.15017 0.0
C544 C 0.82738 0.68846 0.09594 0.0
C545 C 0.83817 0.7044 0.05495 0.0
C546 C 0.78574 0.64289 0.22273 0.0
C547 C 0.79774 0.64304 0.26917 0.0
C548 C 0.79572 0.66044 0.18527 0.0
C549 C 0.81795 0.67847 0.19335 0.0
C550 C 0.8294 0.67945 0.24161 0.0
C551 C 0.81932 0.66185 0.2794 0.0
H552 H -0.004 0.4872 0.37041 0.0
H553 H 0.98212 0.53495 0.45268 0.0
H554 H 0.0267 0.49567 0.43441 0.0
H555 H 0.01307 0.54382 0.51573 0.0
H556 H 0.02714 0.51171 0.66458 0.0
H557 H 0.00781 0.5145 0.58485 0.0
H558 H 0.06342 0.52272 0.48471 0.0
H559 H 0.08296 0.51986 0.56497 0.0
C560 C 0.00034 0.50039 0.40034 0.0
C561 C 0.98653 0.51013 0.40758 0.0
C562 C 0.01783 0.50517 0.4371 0.0
C563 C 0.02167 0.51984 0.48088 0.0
C564 C 0.00999 0.53199 0.48307 0.0
C565 C -0.00756 0.52708 0.44681 0.0
C566 C 0.03529 0.51409 0.62568 0.0
C567 C 0.05654 0.51551 0.6211 0.0
C568 C 0.02437 0.51601 0.58006 0.0
C569 C 0.03438 0.51929 0.52879 0.0
C570 C 0.05547 0.52039 0.52387 0.0
C571 C 0.06655 0.51867 0.56975 0.0
H572 H 0.38585 0.47661 0.57987 0.0
H573 H 0.44783 0.49462 0.6674 0.0
H574 H 0.40428 0.4763 0.49551 0.0
H575 H 0.46595 0.49413 0.58322 0.0
H576 H 0.45455 0.46477 0.37183 0.0
H577 H 0.42751 0.45909 0.44377 0.0
H578 H 0.47467 0.52543 0.50802 0.0
H579 H 0.50165 0.53104 0.43675 0.0
C580 C 0.4031 0.47966 0.58147 0.0
C581 C 0.41566 0.48639 0.63004 0.0
C582 C 0.4136 0.47959 0.53311 0.0
C583 C 0.43669 0.48614 0.53305 0.0
C584 C 0.44827 0.48976 0.58239 0.0
C585 C 0.43779 0.48974 0.63065 0.0
C586 C 0.45857 0.47861 0.39959 0.0
C587 C 0.48025 0.49822 0.39952 0.0
C588 C 0.44326 0.47519 0.44112 0.0
C589 C 0.44958 0.49145 0.48227 0.0
C590 C 0.46983 0.51238 0.47745 0.0
C591 C 0.48506 0.51577 0.43624 0.0
H592 H 0.47719 0.97275 0.6443 0.0
H593 H 0.42423 0.92282 0.54119 0.0
H594 H 0.49534 -0.00343 0.56575 0.0
H595 H 0.44286 0.94616 0.46271 0.0
H596 H 0.4748 0.00785 0.34432 0.0
H597 H 0.45351 0.98097 0.41595 0.0
H598 H 0.51662 -0.00582 0.49047 0.0
H599 H 0.53784 0.02168 0.41992 0.0
C600 C 0.46923 0.96703 0.60508 0.0
C601 C 0.44947 0.94579 0.59891 0.0
C602 C 0.47982 0.98046 0.55996 0.0
C603 C 0.4709 0.97285 0.50787 0.0
C604 C 0.45023 0.95241 0.50221 0.0
C605 C 0.43955 0.93907 0.54733 0.0
C606 C 0.48407 0.00436 0.37494 0.0
C607 C 0.50792 0.01696 0.37715 0.0
C608 C 0.47189 0.98912 0.41626 0.0
C609 C 0.48344 0.9861 0.4598 0.0
C610 C 0.50728 -0.00316 0.4585 0.0
C611 C 0.51943 0.01225 0.41766 0.0
H612 H 0.16212 0.19441 0.09282 0.0
H613 H 0.12284 0.15803 0.95215 0.0
H614 H 0.18234 0.17296 0.08831 0.0
H615 H 0.14356 0.13747 0.94706 0.0
H616 H 0.21518 0.13927 0.92277 0.0
H617 H 0.19004 0.15549 0.92978 0.0
H618 H 0.17007 0.12734 0.08969 0.0
H619 H 0.1943 0.11061 0.08263 0.0
C620 C 0.15749 0.18162 0.06171 0.0
C621 C 0.14093 0.17806 0.0228 0.0
C622 C 0.16914 0.16948 0.05893 0.0
C623 C 0.16468 0.15395 0.01671 0.0
C624 C 0.14747 0.14962 0.97944 0.0
C625 C 0.13551 0.16131 0.98283 0.0
C626 C 0.2051 0.13619 0.95892 0.0
C627 C 0.20679 0.12364 1.00199 0.0
C628 C 0.19081 0.1455 0.96299 0.0
C629 C 0.17841 0.14277 1.01056 0.0
C630 C 0.17964 0.1298 0.0529 0.0
C631 C 0.19345 0.12013 0.04846 0.0
H632 H 0.83003 0.05333 0.9055 0.0
H633 H 0.82398 0.06287 0.07578 0.0
H634 H 0.80639 0.01203 0.91772 0.0
H635 H 0.80095 0.02204 0.08814 0.0
H636 H 0.74827 0.94567 0.08476 0.0
H637 H 0.7656 0.98672 0.06948 0.0
H638 H 0.81481 0.9848 0.96269 0.0
H639 H 0.79757 0.94418 0.97745 0.0
C640 C 0.82323 0.04665 0.94512 0.0
C641 C 0.82906 0.06122 0.98974 0.0
C642 C 0.80992 0.02305 0.95234 0.0
C643 C 0.80212 0.01377 1.00416 0.0
C644 C 0.8066 0.02857 0.04779 0.0
C645 C 0.81994 0.05199 0.04066 0.0
C646 C 0.76301 0.95415 0.05879 0.0
C647 C 0.77152 0.94169 0.03232 0.0
C648 C 0.77281 0.97758 0.04962 0.0
C649 C 0.79126 0.98891 1.01383 0.0
C650 C 0.8002 0.97651 0.9891 0.0
C651 C 0.79049 0.95325 0.99825 0.0
H652 H 0.93991 0.76596 0.98112 0.0
H653 H 0.96274 0.83017 0.9013 0.0
H654 H 0.97736 0.78068 0.0224 0.0
H655 H 0.00056 0.84468 0.93983 0.0
H656 H 0.05236 0.87663 0.06878 0.0
H657 H 0.01471 0.85734 0.02771 0.0
H658 H 0.01718 0.79501 0.02021 0.0
H659 H 0.05441 0.81416 0.06369 0.0
C660 C 0.9534 0.78277 0.96981 0.0
C661 C 0.9486 0.79687 0.93752 0.0
C662 C 0.97481 0.79137 0.99412 0.0
C663 C -0.00819 0.81417 0.98605 0.0
C664 C 0.98764 0.82733 0.9487 0.0
C665 C 0.96617 0.81885 0.92527 0.0
C666 C 0.04447 0.8586 0.06014 0.0
C667 C 0.05632 0.84693 0.06959 0.0
C668 C 0.0231 0.84762 0.0354 0.0
C669 C 0.01323 0.82479 0.01858 0.0
C670 C 0.02427 0.81261 0.03217 0.0
C671 C 0.04555 0.82355 0.05773 0.0
H672 H 0.86281 0.83844 0.94192 0.0
H673 H 0.81203 0.76851 0.91034 0.0
H674 H 0.83311 0.84679 0.96664 0.0
H675 H 0.7821 0.77697 0.93516 0.0
H676 H 0.73817 0.81379 0.93917 0.0
H677 H 0.76407 0.80072 0.91074 0.0
H678 H 0.80726 0.83474 0.04785 0.0
H679 H 0.78134 0.84799 0.07622 0.0
C680 C 0.84522 0.82499 0.93881 0.0
C681 C 0.83974 0.80279 0.92449 0.0
C682 C 0.82825 0.82969 0.95383 0.0
C683 C 0.80539 0.81234 0.95461 0.0
C684 C 0.79965 0.79059 0.93552 0.0
C685 C 0.81674 0.78583 0.9206 0.0
C686 C 0.75292 0.81802 0.964 0.0
C687 C 0.75789 0.8321 1.00967 0.0
C688 C 0.76773 0.81053 0.94763 0.0
C689 C 0.7879 0.81716 0.97635 0.0
C690 C 0.79201 0.8298 0.02431 0.0
C691 C 0.77706 0.83712 0.04102 0.0
H692 H 0.17849 0.93801 0.12706 0.0
H693 H 0.18769 0.92588 0.96053 0.0
H694 H 0.20781 0.97797 0.1169 0.0
H695 H 0.21748 0.9654 0.95061 0.0
H696 H 0.23494 0.04084 0.93398 0.0
H697 H 0.21622 -0.00039 0.94284 0.0
H698 H 0.24626 0.00716 0.10105 0.0
H699 H 0.2644 0.04833 0.0926 0.0
C700 C 0.18738 0.94372 0.08895 0.0
C701 C 0.1807 0.929 0.04447 0.0
C702 C 0.2042 0.96662 0.08294 0.0
C703 C 0.21476 0.97505 0.03249 0.0
C704 C 0.20933 0.95969 0.98954 0.0
C705 C 0.1924 0.937 0.99537 0.0
C706 C 0.2381 0.03369 0.96986 0.0
C707 C 0.2509 0.04779 1.01277 0.0
C708 C 0.22734 0.01 0.97512 0.0
C709 C 0.22939 -1e-05 0.02321 0.0
C710 C 0.24384 0.01424 0.0641 0.0
C711 C 0.25441 0.03785 0.059 0.0
H712 H 0.95179 0.12999 0.97572 0.0
H713 H 0.9457 0.18538 0.90794 0.0
H714 H -0.0074 0.15485 0.98478 0.0
H715 H 0.98709 0.21037 0.91634 0.0
H716 H 0.06649 0.23153 0.89429 0.0
H717 H 0.02532 0.21306 0.882 0.0
H718 H 0.01563 0.18999 0.04735 0.0
H719 H 0.05685 0.20855 0.05989 0.0
C720 C 0.95923 0.14739 0.96171 0.0
C721 C 0.94546 0.15578 0.94161 0.0
C722 C 0.98257 0.16168 0.96756 0.0
C723 C -0.00719 0.18466 0.9529 0.0
C724 C 0.97946 0.19274 0.92866 0.0
C725 C 0.95587 0.1784 0.92326 0.0
C726 C 0.05556 0.22307 0.9285 0.0
C727 C 0.06483 0.22122 0.97791 0.0
C728 C 0.03203 0.21255 0.92138 0.0
C729 C 0.01739 0.19977 0.96336 0.0
C730 C 0.02665 0.1995 1.0141 0.0
C731 C 0.05021 0.21029 0.02146 0.0
H732 H 0.82471 0.55786 0.43573 0.0
H733 H 0.82324 0.55976 0.26135 0.0
H734 H 0.84713 0.5387 0.43069 0.0
H735 H 0.84506 0.54044 0.25644 0.0
H736 H 0.90066 0.5205 0.27076 0.0
H737 H 0.88189 0.54333 0.27435 0.0
H738 H 0.83838 0.50053 0.40237 0.0
H739 H 0.85705 0.47806 0.39915 0.0
C740 C 0.82936 0.55443 0.39649 0.0
C741 C 0.82197 0.56008 0.34906 0.0
C742 C 0.84203 0.54333 0.3935 0.0
C743 C 0.84765 0.53784 0.34306 0.0
C744 C 0.84115 0.5445 0.29584 0.0
C745 C 0.82846 0.55544 0.2988 0.0
C746 C 0.88684 0.51581 0.29896 0.0
C747 C 0.88042 0.49755 0.33476 0.0
C748 C 0.8762 0.52894 0.30133 0.0
C749 C 0.85897 0.52401 0.33951 0.0
C750 C 0.85202 0.5052 0.37365 0.0
C751 C 0.86258 0.49215 0.37128 0.0
H752 H 0.50581 0.40179 0.30351 0.0
H753 H 0.47206 0.40872 0.44371 0.0
H754 H 0.49525 0.36321 0.33228 0.0
H755 H 0.46149 0.37026 0.47223 0.0
H756 H 0.43102 0.28987 0.4659 0.0
H757 H 0.43825 0.32818 0.44422 0.0
H758 H 0.50876 0.34986 0.41374 0.0
H759 H 0.50171 0.31195 0.43577 0.0
C760 C 0.49571 0.3949 0.33968 0.0
C761 C 0.48991 0.4083 0.37152 0.0
C762 C 0.48989 0.37296 0.35653 0.0
C763 C 0.4779 0.36395 0.40504 0.0
C764 C 0.47079 0.37679 0.43486 0.0
C765 C 0.47687 0.3988 0.41846 0.0
C766 C 0.44822 0.30305 0.45658 0.0
C767 C 0.46575 0.29785 0.45213 0.0
C768 C 0.45229 0.32488 0.4435 0.0
C769 C 0.4739 0.34171 0.42558 0.0
C770 C 0.49179 0.337 0.42581 0.0
C771 C 0.48779 0.31537 0.4392 0.0
H772 H 0.60424 0.10073 0.27509 0.0
H773 H 0.59202 0.15246 0.34114 0.0
H774 H 0.64433 0.1232 0.30234 0.0
H775 H 0.63149 0.17444 0.36926 0.0
H776 H 0.70888 0.21804 0.36368 0.0
H777 H 0.66936 0.1964 0.33563 0.0
H778 H 0.66653 0.13434 0.3881 0.0
H779 H 0.70664 0.1562 0.41523 0.0
C780 C 0.61024 0.11713 0.29411 0.0
C781 C 0.59506 0.1249 0.30575 0.0
C782 C 0.63305 0.12977 0.31069 0.0
C783 C 0.64102 0.15046 0.33873 0.0
C784 C 0.62601 0.15867 0.34764 0.0
C785 C 0.60336 0.14608 0.33135 0.0
C786 C 0.69971 0.19983 0.37039 0.0
C787 C 0.71085 0.18883 0.39183 0.0
C788 C 0.67704 0.18739 0.3541 0.0
C789 C 0.66485 0.16358 0.35887 0.0
C790 C 0.67562 0.15263 0.38292 0.0
C791 C 0.69841 0.16517 0.39949 0.0
H792 H 0.46422 0.07776 0.39194 0.0
H793 H 0.49976 0.1226 0.25869 0.0
H794 H 0.45203 0.10405 0.42326 0.0
H795 H 0.48743 0.14884 0.28995 0.0
H796 H 0.49682 0.20371 0.4082 0.0
H797 H 0.50164 0.17267 0.37549 0.0
H798 H 0.43043 0.12544 0.40319 0.0
H799 H 0.42547 0.15683 0.43594 0.0
C800 C 0.46878 0.09288 0.36831 0.0
C801 C 0.4832 0.09831 0.32324 0.0
C802 C 0.46181 0.10792 0.38636 0.0
C803 C 0.46929 0.12871 0.35986 0.0
C804 C 0.48184 0.13309 0.31178 0.0
C805 C 0.48865 0.11794 0.29343 0.0
C806 C 0.48225 0.18665 0.40847 0.0
C807 C 0.46073 0.18274 0.42429 0.0
C808 C 0.48495 0.16893 0.38894 0.0
C809 C 0.46624 0.14682 0.38502 0.0
C810 C 0.44506 0.14243 0.4051 0.0
C811 C 0.4423 0.16032 0.4245 0.0
H812 H 0.81917 0.28804 0.47005 0.0
H813 H 0.84408 0.28004 0.31618 0.0
H814 H 0.84461 0.32928 0.46439 0.0
H815 H 0.86989 0.32082 0.31119 0.0
H816 H 0.88628 0.39437 0.28358 0.0
H817 H 0.86577 0.3531 0.29393 0.0
H818 H 0.883 0.36062 0.46372 0.0
H819 H 0.90287 0.40174 0.45367 0.0
C820 C 0.8305 0.29506 0.43583 0.0
C821 C 0.82948 0.28096 0.39331 0.0
C822 C 0.84508 0.31865 0.43244 0.0
C823 C 0.85902 0.32841 0.38675 0.0
C824 C 0.85896 0.31399 0.34613 0.0
C825 C 0.84429 0.29059 0.34924 0.0
C826 C 0.88589 0.38718 0.32291 0.0
C827 C 0.89605 0.40133 0.36777 0.0
C828 C 0.8742 0.36352 0.32893 0.0
C829 C 0.87262 0.35352 0.37984 0.0
C830 C 0.88349 0.36772 0.42423 0.0
C831 C 0.89502 0.39132 0.41829 0.0
H832 H 0.59401 0.5259 0.42689 0.0
H833 H 0.59617 0.50113 0.26778 0.0
H834 H 0.63463 0.54127 0.43728 0.0
H835 H 0.63743 0.5171 0.27767 0.0
H836 H 0.70079 0.51855 0.34492 0.0
H837 H 0.6608 0.50667 0.33316 0.0
H838 H 0.6724 0.56905 0.40807 0.0
H839 H 0.71255 0.58084 0.42053 0.0
C840 C 0.60336 0.5242 0.39352 0.0
C841 C 0.59194 0.51216 0.34663 0.0
C842 C 0.62669 0.53311 0.39947 0.0
C843 C 0.63925 0.53015 0.35871 0.0
C844 C 0.62809 0.51928 0.31027 0.0
C845 C 0.60458 0.51042 0.30416 0.0
C846 C 0.69473 0.52956 0.35985 0.0
C847 C 0.70983 0.55063 0.38376 0.0
C848 C 0.67188 0.52291 0.35224 0.0
C849 C 0.66351 0.53715 0.36836 0.0
C850 C 0.67833 0.5577 0.395 0.0
C851 C 0.70128 0.56437 0.40271 0.0
H852 H 0.56051 0.83273 0.72383 0.0
H853 H 0.53078 0.81965 0.5644 0.0
H854 H 0.54697 0.85918 0.74153 0.0
H855 H 0.51643 0.84559 0.58254 0.0
H856 H 0.49782 0.89787 0.61783 0.0
H857 H 0.52306 0.88289 0.59996 0.0
H858 H 0.51041 0.85429 0.76078 0.0
H859 H 0.48574 0.87016 0.77903 0.0
C860 C 0.55135 0.83586 0.69219 0.0
C861 C 0.54648 0.82405 0.64288 0.0
C862 C 0.54344 0.85086 0.70253 0.0
C863 C 0.53022 0.85422 0.664 0.0
C864 C 0.5267 0.84356 0.61311 0.0
C865 C 0.5349 0.82869 0.60252 0.0
C866 C 0.50094 0.88887 0.64981 0.0
C867 C 0.48977 0.88499 0.6997 0.0
C868 C 0.51523 0.88011 0.63938 0.0
C869 C 0.51844 0.86698 0.6784 0.0
C870 C 0.50847 0.86446 0.72981 0.0
C871 C 0.49434 0.87353 0.74048 0.0
H872 H 0.20304 0.69254 0.63286 0.0
H873 H 0.14014 0.69218 0.65858 0.0
H874 H 0.18607 0.65407 0.66873 0.0
H875 H 0.12359 0.65467 0.69892 0.0
H876 H 0.09459 0.57979 0.73984 0.0
H877 H 0.1089 0.61663 0.69766 0.0
H878 H 0.17709 0.63557 0.74936 0.0
H879 H 0.16269 0.59773 0.78739 0.0
C880 C 0.18535 0.6839 0.64499 0.0
C881 C 0.17276 0.6951 0.64207 0.0
C882 C 0.17573 0.66206 0.66705 0.0
C883 C 0.15356 0.65125 0.68867 0.0
C884 C 0.14058 0.66209 0.6826 0.0
C885 C 0.15001 0.68363 0.65894 0.0
C886 C 0.11256 0.59208 0.74352 0.0
C887 C 0.12752 0.58593 0.76719 0.0
C888 C 0.12088 0.61331 0.71889 0.0
C889 C 0.14436 0.6292 0.7186 0.0
C890 C 0.15904 0.62361 0.74652 0.0
C891 C 0.15077 0.60209 0.76967 0.0
H892 H 0.34657 0.54315 0.7266 0.0
H893 H 0.34115 0.47852 0.76455 0.0
H894 H 0.30949 0.52351 0.68247 0.0
H895 H 0.30389 0.45888 0.72115 0.0
H896 H 0.25645 0.43203 0.57936 0.0
H897 H 0.29287 0.45521 0.62448 0.0
H898 H 0.26845 0.49774 0.6913 0.0
H899 H 0.23212 0.47479 0.64553 0.0
C900 C 0.33708 0.52472 0.7273 0.0
C901 C 0.34692 0.51241 0.74867 0.0
C902 C 0.3159 0.51348 0.70159 0.0
C903 C 0.30413 0.48968 0.69674 0.0
C904 C 0.31293 0.47729 0.72277 0.0
C905 C 0.33407 0.48853 0.74872 0.0
C906 C 0.25909 0.4468 0.602 0.0
C907 C 0.24125 0.45139 0.60926 0.0
C908 C 0.27981 0.45981 0.62884 0.0
C909 C 0.28323 0.4778 0.66303 0.0
C910 C 0.26626 0.48382 0.66581 0.0
C911 C 0.2455 0.47076 0.63917 0.0
H912 H 0.12672 0.4038 0.5833 0.0
H913 H 0.11885 0.36795 0.73302 0.0
H914 H 0.10515 0.4205 0.62139 0.0
H915 H 0.09791 0.3851 0.77118 0.0
H916 H 0.06425 0.44693 0.7111 0.0
H917 H 0.06656 0.41419 0.67701 0.0
H918 H 0.1233 0.43151 0.7836 0.0
H919 H 0.12164 0.46471 0.81556 0.0
C920 C 0.11943 0.39856 0.6232 0.0
C921 C 0.12487 0.38494 0.65553 0.0
C922 C 0.10715 0.4082 0.64512 0.0
C923 C 0.10028 0.40434 0.69951 0.0
C924 C 0.10319 0.38844 0.72933 0.0
C925 C 0.11516 0.37862 0.70731 0.0
C926 C 0.0765 0.44306 0.72894 0.0
C927 C 0.09257 0.45803 0.76653 0.0
C928 C 0.07795 0.42451 0.70903 0.0
C929 C 0.09505 0.42037 0.72777 0.0
C930 C 0.10976 0.43419 0.76901 0.0
C931 C 0.10877 0.45308 0.78759 0.0
H932 H 0.45441 0.60465 0.77152 0.0
H933 H 0.47664 0.58312 0.63182 0.0
H934 H 0.47506 0.64395 0.73871 0.0
H935 H 0.49714 0.62221 0.59899 0.0
H936 H 0.54421 0.70176 0.5845 0.0
H937 H 0.5284 0.66253 0.61591 0.0
H938 H 0.46578 0.66056 0.65778 0.0
H939 H 0.4814 0.69952 0.62641 0.0
C940 C 0.46438 0.60845 0.73493 0.0
C941 C 0.46388 0.59091 0.70408 0.0
C942 C 0.47588 0.63083 0.71565 0.0
C943 C 0.48723 0.63599 0.6656 0.0
C944 C 0.48847 0.61874 0.63746 0.0
C945 C 0.47679 0.59639 0.65639 0.0
C946 C 0.5268 0.69269 0.59868 0.0
C947 C 0.51412 0.70382 0.60336 0.0
C948 C 0.51787 0.67034 0.61733 0.0
C949 C 0.49617 0.65883 0.64104 0.0
C950 C 0.48285 0.66931 0.64143 0.0
C951 C 0.49167 0.6915 0.62259 0.0
H952 H 0.25106 0.82501 0.75657 0.0
H953 H 0.26597 0.8026 0.60694 0.0
H954 H 0.29143 0.84515 0.78005 0.0
H955 H 0.30643 0.82271 0.63061 0.0
H956 H 0.36502 0.8268 0.72829 0.0
H957 H 0.32504 0.81214 0.70775 0.0
H958 H 0.3318 0.87676 0.75141 0.0
H959 H 0.37221 0.89174 0.77152 0.0
C960 C 0.26309 0.82497 0.72798 0.0
C961 C 0.25542 0.81213 0.68008 0.0
C962 C 0.28615 0.83646 0.74153 0.0
C963 C 0.30191 0.83504 0.70773 0.0
C964 C 0.29449 0.8237 0.65782 0.0
C965 C 0.27142 0.81246 0.64389 0.0
C966 C 0.35793 0.83778 0.73476 0.0
C967 C 0.37186 0.86052 0.75101 0.0
C968 C 0.3351 0.82947 0.72221 0.0
C969 C 0.32558 0.84358 0.72623 0.0
C970 C 0.33887 0.86566 0.74725 0.0
C971 C 0.3619 0.87411 0.75942 0.0
loop_
_geom_bond_atom_site_label_1
_geom_bond_atom_site_label_2
_geom_bond_distance
_geom_bond_site_symmetry_2
_ccdc_geom_bond_type
Zn0 O3 2.031 . S
Zn0 O5 2.049 . S
Zn0 O10 2.067 . S
Zn1 O2 1.962 . S
Zn1 O4 1.986 . S
Zn1 O6 1.996 . S
Zn1 O9 1.943 . S
O2 Zn1 1.962 . S
O2 C7 1.254 . S
O3 Zn0 2.031 . S
O3 C7 1.269 1_556 S
O4 Zn1 1.986 . S
O4 C11 1.262 . S
O5 Zn0 2.049 . S
O5 C13 1.260 1_556 S
O6 Zn1 1.996 . S
O6 C13 1.257 . S
C7 O2 1.254 . S
C7 O3 1.269 1_554 S
C8 O9 1.249 1_556 S
C8 O10 1.270 . S
O9 Zn1 1.943 . S
O9 C8 1.249 1_554 S
O10 Zn0 2.067 . S
O10 C8 1.270 . S
C11 O4 1.262 . S
C11 O12 1.232 . S
O12 C11 1.232 . S
C13 O5 1.260 1_554 S
C13 O6 1.257 . S
Zn14 O17 2.031 . S
Zn14 O19 2.049 . S
Zn14 O24 2.067 . S
Zn15 O16 1.962 . S
Zn15 O18 1.986 . S
Zn15 O20 1.996 . S
Zn15 O23 1.943 . S
O16 Zn15 1.962 . S
O16 C21 1.254 . S
O17 Zn14 2.031 . S
O17 C21 1.269 1_556 S
O18 Zn15 1.986 . S
O18 C25 1.262 . S
O19 Zn14 2.049 . S
O19 C27 1.260 1_556 S
O20 Zn15 1.996 . S
O20 C27 1.257 . S
C21 O16 1.254 . S
C21 O17 1.269 1_554 S
C22 O23 1.249 1_556 S
C22 O24 1.270 . S
O23 Zn15 1.943 . S
O23 C22 1.249 1_554 S
O24 Zn14 2.067 . S
O24 C22 1.270 . S
C25 O18 1.262 . S
C25 O26 1.232 . S
O26 C25 1.232 . S
C27 O19 1.260 1_554 S
C27 O20 1.257 . S
Zn28 O31 2.031 . S
Zn28 O33 2.049 . S
Zn28 O38 2.067 . S
Zn29 O30 1.962 . S
Zn29 O32 1.986 . S
Zn29 O34 1.996 . S
Zn29 O37 1.943 . S
O30 Zn29 1.962 . S
O30 C35 1.254 . S
O31 Zn28 2.031 . S
O31 C35 1.269 1_556 S
O32 Zn29 1.986 . S
O32 C39 1.262 . S
O33 Zn28 2.049 . S
O33 C41 1.260 1_556 S
O34 Zn29 1.996 . S
O34 C41 1.257 . S
C35 O30 1.254 . S
C35 O31 1.269 1_554 S
C36 O37 1.249 1_556 S
C36 O38 1.270 . S
O37 Zn29 1.943 . S
O37 C36 1.249 1_554 S
O38 Zn28 2.067 . S
O38 C36 1.270 . S
C39 O32 1.262 . S
C39 O40 1.232 . S
O40 C39 1.232 . S
C41 O33 1.260 1_554 S
C41 O34 1.257 . S
Zn42 O45 2.031 . S
Zn42 O47 2.049 . S
Zn42 O52 2.067 . S
Zn43 O44 1.962 . S
Zn43 O46 1.986 . S
Zn43 O48 1.996 . S
Zn43 O51 1.943 . S
O44 Zn43 1.962 . S
O44 C49 1.254 . S
O45 Zn42 2.031 . S
O45 C49 1.269 1_554 S
O46 Zn43 1.986 . S
O46 C53 1.262 . S
O47 Zn42 2.049 . S
O47 C55 1.260 1_554 S
O48 Zn43 1.996 . S
O48 C55 1.257 . S
C49 O44 1.254 . S
C49 O45 1.269 1_556 S
C50 O51 1.249 1_554 S
C50 O52 1.270 . S
O51 Zn43 1.943 . S
O51 C50 1.249 1_556 S
O52 Zn42 2.067 . S
O52 C50 1.270 . S
C53 O46 1.262 . S
C53 O54 1.232 . S
O54 C53 1.232 . S
C55 O47 1.260 1_556 S
C55 O48 1.257 . S
Zn56 O59 2.031 . S
Zn56 O61 2.049 . S
Zn56 O66 2.067 . S
Zn57 O58 1.962 . S
Zn57 O60 1.986 . S
Zn57 O62 1.996 . S
Zn57 O65 1.943 . S
O58 Zn57 1.962 . S
O58 C63 1.254 . S
O59 Zn56 2.031 . S
O59 C63 1.269 1_554 S
O60 Zn57 1.986 . S
O60 C67 1.262 . S
O61 Zn56 2.049 . S
O61 C69 1.260 1_554 S
O62 Zn57 1.996 . S
O62 C69 1.257 . S
C63 O58 1.254 . S
C63 O59 1.269 1_556 S
C64 O65 1.249 1_554 S
C64 O66 1.270 . S
O65 Zn57 1.943 . S
O65 C64 1.249 1_556 S
O66 Zn56 2.067 . S
O66 C64 1.270 . S
C67 O60 1.262 . S
C67 O68 1.232 . S
O68 C67 1.232 . S
C69 O61 1.260 1_556 S
C69 O62 1.257 . S
Zn70 O73 2.031 . S
Zn70 O75 2.049 . S
Zn70 O80 2.067 . S
Zn71 O72 1.962 . S
Zn71 O74 1.986 . S
Zn71 O76 1.996 . S
Zn71 O79 1.943 . S
O72 Zn71 1.962 . S
O72 C77 1.254 . S
O73 Zn70 2.031 . S
O73 C77 1.269 1_554 S
O74 Zn71 1.986 . S
O74 C81 1.262 . S
O75 Zn70 2.049 . S
O75 C83 1.260 1_554 S
O76 Zn71 1.996 . S
O76 C83 1.257 . S
C77 O72 1.254 . S
C77 O73 1.269 1_556 S
C78 O79 1.249 1_554 S
C78 O80 1.270 . S
O79 Zn71 1.943 . S
O79 C78 1.249 1_556 S
O80 Zn70 2.067 . S
O80 C78 1.270 . S
C81 O74 1.262 . S
C81 O82 1.232 . S
O82 C81 1.232 . S
C83 O75 1.260 1_556 S
C83 O76 1.257 . S
Zn84 O87 2.031 . S
Zn84 O89 2.049 . S
Zn84 O94 2.067 . S
Zn85 O86 1.962 . S
Zn85 O88 1.986 . S
Zn85 O90 1.996 . S
Zn85 O93 1.943 . S
O86 Zn85 1.962 . S
O86 C91 1.254 . S
O87 Zn84 2.031 . S
O87 C91 1.269 . S
O88 Zn85 1.986 . S
O88 C95 1.262 . S
O89 Zn84 2.049 . S
O89 C97 1.260 . S
O90 Zn85 1.996 . S
O90 C97 1.257 . S
C91 O86 1.254 . S
C91 O87 1.269 . S
C92 O93 1.249 . S
C92 O94 1.270 . S
O93 Zn85 1.943 . S
O93 C92 1.249 . S
O94 Zn84 2.067 . S
O94 C92 1.270 . S
C95 O88 1.262 . S
C95 O96 1.232 . S
O96 C95 1.232 . S
C97 O89 1.260 . S
C97 O90 1.257 . S
Zn98 O101 2.031 . S
Zn98 O103 2.049 . S
Zn98 O108 2.067 . S
Zn99 O100 1.962 . S
Zn99 O102 1.986 . S
Zn99 O104 1.996 . S
Zn99 O107 1.943 . S
O100 Zn99 1.962 . S
O100 C105 1.254 . S
O101 Zn98 2.031 . S
O101 C105 1.269 . S
O102 Zn99 1.986 . S
O102 C109 1.262 . S
O103 Zn98 2.049 . S
O103 C111 1.260 . S
O104 Zn99 1.996 . S
O104 C111 1.257 . S
C105 O100 1.254 . S
C105 O101 1.269 . S
C106 O107 1.249 . S
C106 O108 1.270 . S
O107 Zn99 1.943 . S
O107 C106 1.249 . S
O108 Zn98 2.067 . S
O108 C106 1.270 . S
C109 O102 1.262 . S
C109 O110 1.232 . S
O110 C109 1.232 . S
C111 O103 1.260 . S
C111 O104 1.257 . S
Zn112 O115 2.031 . S
Zn112 O117 2.049 . S
Zn112 O122 2.067 . S
Zn113 O114 1.962 . S
Zn113 O116 1.986 . S
Zn113 O118 1.996 . S
Zn113 O121 1.943 . S
O114 Zn113 1.962 . S
O114 C119 1.254 . S
O115 Zn112 2.031 . S
O115 C119 1.269 . S
O116 Zn113 1.986 . S
O116 C123 1.262 . S
O117 Zn112 2.049 . S
O117 C125 1.260 . S
O118 Zn113 1.996 . S
O118 C125 1.257 . S
C119 O114 1.254 . S
C119 O115 1.269 . S
C120 O121 1.249 . S
C120 O122 1.270 . S
O121 Zn113 1.943 . S
O121 C120 1.249 . S
O122 Zn112 2.067 . S
O122 C120 1.270 . S
C123 O116 1.262 . S
C123 O124 1.232 . S
O124 C123 1.232 . S
C125 O117 1.260 . S
C125 O118 1.257 . S
Zn126 O129 2.031 . S
Zn126 O131 2.049 . S
Zn126 O136 2.067 . S
Zn127 O128 1.962 . S
Zn127 O130 1.986 . S
Zn127 O132 1.996 . S
Zn127 O135 1.943 . S
O128 Zn127 1.962 . S
O128 C133 1.254 . S
O129 Zn126 2.031 . S
O129 C133 1.269 . S
O130 Zn127 1.986 . S
O130 C137 1.262 . S
O131 Zn126 2.049 . S
O131 C139 1.260 . S
O132 Zn127 1.996 . S
O132 C139 1.257 . S
C133 O128 1.254 . S
C133 O129 1.269 . S
C134 O135 1.249 . S
C134 O136 1.270 . S
O135 Zn127 1.943 . S
O135 C134 1.249 . S
O136 Zn126 2.067 . S
O136 C134 1.270 . S
C137 O130 1.262 . S
C137 O138 1.232 . S
O138 C137 1.232 . S
C139 O131 1.260 . S
C139 O132 1.257 . S
Zn140 O143 2.031 . S
Zn140 O145 2.049 . S
Zn140 O150 2.067 . S
Zn141 O142 1.962 . S
Zn141 O144 1.986 . S
Zn141 O146 1.996 . S
Zn141 O149 1.943 . S
O142 Zn141 1.962 . S
O142 C147 1.254 . S
O143 Zn140 2.031 . S
O143 C147 1.269 . S
O144 Zn141 1.986 . S
O144 C151 1.262 . S
O145 Zn140 2.049 . S
O145 C153 1.260 . S
O146 Zn141 1.996 . S
O146 C153 1.257 . S
C147 O142 1.254 . S
C147 O143 1.269 . S
C148 O149 1.249 . S
C148 O150 1.270 . S
O149 Zn141 1.943 . S
O149 C148 1.249 . S
O150 Zn140 2.067 . S
O150 C148 1.270 . S
C151 O144 1.262 . S
C151 O152 1.232 . S
O152 C151 1.232 . S
C153 O145 1.260 . S
C153 O146 1.257 . S
Zn154 O157 2.031 . S
Zn154 O159 2.049 . S
Zn154 O164 2.067 . S
Zn155 O156 1.962 . S
Zn155 O158 1.986 . S
Zn155 O160 1.996 . S
Zn155 O163 1.943 . S
O156 Zn155 1.962 . S
O156 C161 1.254 . S
O157 Zn154 2.031 . S
O157 C161 1.269 . S
O158 Zn155 1.986 . S
O158 C165 1.262 . S
O159 Zn154 2.049 . S
O159 C167 1.260 . S
O160 Zn155 1.996 . S
O160 C167 1.257 . S
C161 O156 1.254 . S
C161 O157 1.269 . S
C162 O163 1.249 . S
C162 O164 1.270 . S
O163 Zn155 1.943 . S
O163 C162 1.249 . S
O164 Zn154 2.067 . S
O164 C162 1.270 . S
C165 O158 1.262 . S
C165 O166 1.232 . S
O166 C165 1.232 . S
C167 O159 1.260 . S
C167 O160 1.257 . S
Zn168 O171 2.031 . S
Zn168 O173 2.049 . S
Zn168 O178 2.067 . S
Zn169 O170 1.962 . S
Zn169 O172 1.986 . S
Zn169 O174 1.996 . S
Zn169 O177 1.943 . S
O170 Zn169 1.962 . S
O170 C175 1.254 . S
O171 Zn168 2.031 . S
O171 C175 1.269 . S
O172 Zn169 1.986 . S
O172 C179 1.262 . S
O173 Zn168 2.049 . S
O173 C181 1.260 . S
O174 Zn169 1.996 . S
O174 C181 1.257 . S
C175 O170 1.254 . S
C175 O171 1.269 . S
C176 O177 1.249 . S
C176 O178 1.270 . S
O177 Zn169 1.943 . S
O177 C176 1.249 . S
O178 Zn168 2.067 . S
O178 C176 1.270 . S
C179 O172 1.262 . S
C179 O180 1.232 . S
O180 C179 1.232 . S
C181 O173 1.260 . S
C181 O174 1.257 . S
Zn182 O185 2.031 . S
Zn182 O187 2.049 . S
Zn182 O192 2.067 . S
Zn183 O184 1.962 . S
Zn183 O186 1.986 . S
Zn183 O188 1.996 . S
Zn183 O191 1.943 . S
O184 Zn183 1.962 . S
O184 C189 1.254 . S
O185 Zn182 2.031 . S
O185 C189 1.269 . S
O186 Zn183 1.986 . S
O186 C193 1.262 . S
O187 Zn182 2.049 . S
O187 C195 1.260 . S
O188 Zn183 1.996 . S
O188 C195 1.257 . S
C189 O184 1.254 . S
C189 O185 1.269 . S
C190 O191 1.249 . S
C190 O192 1.270 . S
O191 Zn183 1.943 . S
O191 C190 1.249 . S
O192 Zn182 2.067 . S
O192 C190 1.270 . S
C193 O186 1.262 . S
C193 O194 1.232 . S
O194 C193 1.232 . S
C195 O187 1.260 . S
C195 O188 1.257 . S
Zn196 O199 2.031 . S
Zn196 O201 2.049 . S
Zn196 O206 2.067 . S
Zn197 O198 1.962 . S
Zn197 O200 1.986 . S
Zn197 O202 1.996 . S
Zn197 O205 1.943 . S
O198 Zn197 1.962 . S
O198 C203 1.254 . S
O199 Zn196 2.031 . S
O199 C203 1.269 . S
O200 Zn197 1.986 . S
O200 C207 1.262 . S
O201 Zn196 2.049 . S
O201 C209 1.260 . S
O202 Zn197 1.996 . S
O202 C209 1.257 . S
C203 O198 1.254 . S
C203 O199 1.269 . S
C204 O205 1.249 . S
C204 O206 1.270 . S
O205 Zn197 1.943 . S
O205 C204 1.249 . S
O206 Zn196 2.067 . S
O206 C204 1.270 . S
C207 O200 1.262 . S
C207 O208 1.232 . S
O208 C207 1.232 . S
C209 O201 1.260 . S
C209 O202 1.257 . S
Zn210 O213 2.031 . S
Zn210 O215 2.049 . S
Zn210 O220 2.067 . S
Zn211 O212 1.962 . S
Zn211 O214 1.986 . S
Zn211 O216 1.996 . S
Zn211 O219 1.943 . S
O212 Zn211 1.962 . S
O212 C217 1.254 . S
O213 Zn210 2.031 . S
O213 C217 1.269 . S
O214 Zn211 1.986 . S
O214 C221 1.262 . S
O215 Zn210 2.049 . S
O215 C223 1.260 . S
O216 Zn211 1.996 . S
O216 C223 1.257 . S
C217 O212 1.254 . S
C217 O213 1.269 . S
C218 O219 1.249 . S
C218 O220 1.270 . S
O219 Zn211 1.943 . S
O219 C218 1.249 . S
O220 Zn210 2.067 . S
O220 C218 1.270 . S
C221 O214 1.262 . S
C221 O222 1.232 . S
O222 C221 1.232 . S
C223 O215 1.260 . S
C223 O216 1.257 . S
Zn224 O227 2.031 . S
Zn224 O229 2.049 . S
Zn224 O234 2.067 . S
Zn225 O226 1.962 . S
Zn225 O228 1.986 . S
Zn225 O230 1.996 . S
Zn225 O233 1.943 . S
O226 Zn225 1.962 . S
O226 C231 1.254 . S
O227 Zn224 2.031 . S
O227 C231 1.269 . S
O228 Zn225 1.986 . S
O228 C235 1.262 . S
O229 Zn224 2.049 . S
O229 C237 1.260 . S
O230 Zn225 1.996 . S
O230 C237 1.257 . S
C231 O226 1.254 . S
C231 O227 1.269 . S
C232 O233 1.249 . S
C232 O234 1.270 . S
O233 Zn225 1.943 . S
O233 C232 1.249 . S
O234 Zn224 2.067 . S
O234 C232 1.270 . S
C235 O228 1.262 . S
C235 O236 1.232 . S
O236 C235 1.232 . S
C237 O229 1.260 . S
C237 O230 1.257 . S
Zn238 O241 2.031 . S
Zn238 O243 2.049 . S
Zn238 O248 2.067 . S
Zn239 O240 1.962 . S
Zn239 O242 1.986 . S
Zn239 O244 1.996 . S
Zn239 O247 1.943 . S
O240 Zn239 1.962 . S
O240 C245 1.254 . S
O241 Zn238 2.031 . S
O241 C245 1.269 . S
O242 Zn239 1.986 . S
O242 C249 1.262 . S
O243 Zn238 2.049 . S
O243 C251 1.260 . S
O244 Zn239 1.996 . S
O244 C251 1.257 . S
C245 O240 1.254 . S
C245 O241 1.269 . S
C246 O247 1.249 . S
C246 O248 1.270 . S
O247 Zn239 1.943 . S
O247 C246 1.249 . S
O248 Zn238 2.067 . S
O248 C246 1.270 . S
C249 O242 1.262 . S
C249 O250 1.232 . S
O250 C249 1.232 . S
C251 O243 1.260 . S
C251 O244 1.257 . S
H252 C260 0.950 . S
H253 C265 0.950 . S
H254 C262 0.950 . S
H255 C264 0.950 . S
H256 C266 0.950 . S
H257 C268 0.950 . S
H258 C270 0.950 . S
H259 C271 0.950 . S
C260 H252 0.950 . S
C260 C261 1.386 . S
C260 C262 1.391 . S
C261 C260 1.386 . S
C261 C265 1.393 . S
C262 H254 0.950 . S
C262 C260 1.391 . S
C262 C263 1.400 . S
C263 C262 1.400 . S
C263 C264 1.398 . S
C263 C269 1.491 . S
C264 H255 0.950 . S
C264 C263 1.398 . S
C264 C265 1.391 . S
C265 H253 0.950 . S
C265 C261 1.393 . S
C265 C264 1.391 . S
C266 H256 0.950 . S
C266 C267 1.386 . S
C266 C268 1.391 . S
C267 C266 1.386 . S
C267 C271 1.393 . S
C268 H257 0.950 . S
C268 C266 1.391 . S
C268 C269 1.400 . S
C269 C263 1.491 . S
C269 C268 1.400 . S
C269 C270 1.398 . S
C270 H258 0.950 . S
C270 C269 1.398 . S
C270 C271 1.391 . S
C271 H259 0.950 . S
C271 C267 1.393 . S
C271 C270 1.391 . S
H272 C280 0.950 . S
H273 C285 0.950 . S
H274 C282 0.950 . S
H275 C284 0.950 . S
H276 C286 0.950 . S
H277 C288 0.950 . S
H278 C290 0.950 . S
H279 C291 0.950 . S
C280 H272 0.950 . S
C280 C281 1.386 . S
C280 C282 1.391 . S
C281 C280 1.386 . S
C281 C285 1.393 . S
C282 H274 0.950 . S
C282 C280 1.391 . S
C282 C283 1.400 . S
C283 C282 1.400 . S
C283 C284 1.398 . S
C283 C289 1.491 . S
C284 H275 0.950 . S
C284 C283 1.398 . S
C284 C285 1.391 . S
C285 H273 0.950 . S
C285 C281 1.393 . S
C285 C284 1.391 . S
C286 H276 0.950 . S
C286 C287 1.386 . S
C286 C288 1.391 . S
C287 C286 1.386 . S
C287 C291 1.393 . S
C288 H277 0.950 . S
C288 C286 1.391 . S
C288 C289 1.400 . S
C289 C283 1.491 . S
C289 C288 1.400 . S
C289 C290 1.398 . S
C290 H278 0.950 . S
C290 C289 1.398 . S
C290 C291 1.391 . S
C291 H279 0.950 . S
C291 C287 1.393 . S
C291 C290 1.391 . S
H292 C300 0.950 . S
H293 C305 0.950 . S
H294 C302 0.950 . S
H295 C304 0.950 . S
H296 C306 0.950 . S
H297 C308 0.950 . S
H298 C310 0.950 . S
H299 C311 0.950 . S
C300 H292 0.950 . S
C300 C301 1.386 . S
C300 C302 1.391 . S
C301 C300 1.386 . S
C301 C305 1.393 . S
C302 H294 0.950 . S
C302 C300 1.391 . S
C302 C303 1.400 . S
C303 C302 1.400 . S
C303 C304 1.398 . S
C303 C309 1.491 . S
C304 H295 0.950 . S
C304 C303 1.398 . S
C304 C305 1.391 . S
C305 H293 0.950 . S
C305 C301 1.393 . S
C305 C304 1.391 . S
C306 H296 0.950 . S
C306 C307 1.386 . S
C306 C308 1.391 . S
C307 C306 1.386 . S
C307 C311 1.393 . S
C308 H297 0.950 . S
C308 C306 1.391 . S
C308 C309 1.400 . S
C309 C303 1.491 . S
C309 C308 1.400 . S
C309 C310 1.398 . S
C310 H298 0.950 . S
C310 C309 1.398 . S
C310 C311 1.391 . S
C311 H299 0.950 . S
C311 C307 1.393 . S
C311 C310 1.391 . S
H312 C320 0.950 . S
H313 C325 0.950 . S
H314 C322 0.950 . S
H315 C324 0.950 . S
H316 C326 0.950 . S
H317 C328 0.950 . S
H318 C330 0.950 . S
H319 C331 0.950 . S
C320 H312 0.950 . S
C320 C321 1.386 . S
C320 C322 1.391 . S
C321 C320 1.386 . S
C321 C325 1.393 . S
C322 H314 0.950 . S
C322 C320 1.391 . S
C322 C323 1.400 . S
C323 C322 1.400 . S
C323 C324 1.398 . S
C323 C329 1.491 . S
C324 H315 0.950 . S
C324 C323 1.398 . S
C324 C325 1.391 . S
C325 H313 0.950 . S
C325 C321 1.393 . S
C325 C324 1.391 . S
C326 H316 0.950 . S
C326 C327 1.386 . S
C326 C328 1.391 . S
C327 C326 1.386 . S
C327 C331 1.393 . S
C328 H317 0.950 . S
C328 C326 1.391 . S
C328 C329 1.400 . S
C329 C323 1.491 . S
C329 C328 1.400 . S
C329 C330 1.398 . S
C330 H318 0.950 . S
C330 C329 1.398 . S
C330 C331 1.391 . S
C331 H319 0.950 . S
C331 C327 1.393 . S
C331 C330 1.391 . S
H332 C340 0.950 . S
H333 C345 0.950 . S
H334 C342 0.950 . S
H335 C344 0.950 . S
H336 C346 0.950 . S
H337 C348 0.950 . S
H338 C350 0.950 . S
H339 C351 0.950 . S
C340 H332 0.950 . S
C340 C341 1.386 . S
C340 C342 1.391 . S
C341 C340 1.386 . S
C341 C345 1.393 . S
C342 H334 0.950 . S
C342 C340 1.391 . S
C342 C343 1.400 . S
C343 C342 1.400 . S
C343 C344 1.398 . S
C343 C349 1.491 . S
C344 H335 0.950 . S
C344 C343 1.398 . S
C344 C345 1.391 . S
C345 H333 0.950 . S
C345 C341 1.393 . S
C345 C344 1.391 . S
C346 H336 0.950 . S
C346 C347 1.386 . S
C346 C348 1.391 . S
C347 C346 1.386 . S
C347 C351 1.393 . S
C348 H337 0.950 . S
C348 C346 1.391 . S
C348 C349 1.400 . S
C349 C343 1.491 . S
C349 C348 1.400 . S
C349 C350 1.398 . S
C350 H338 0.950 . S
C350 C349 1.398 . S
C350 C351 1.391 . S
C351 H339 0.950 . S
C351 C347 1.393 . S
C351 C350 1.391 . S
H352 C360 0.950 . S
H353 C365 0.950 . S
H354 C362 0.950 . S
H355 C364 0.950 . S
H356 C366 0.950 . S
H357 C368 0.950 . S
H358 C370 0.950 . S
H359 C371 0.950 . S
C360 H352 0.950 . S
C360 C361 1.386 . S
C360 C362 1.391 . S
C361 C360 1.386 . S
C361 C365 1.393 . S
C362 H354 0.950 . S
C362 C360 1.391 . S
C362 C363 1.400 . S
C363 C362 1.400 . S
C363 C364 1.398 . S
C363 C369 1.491 . S
C364 H355 0.950 . S
C364 C363 1.398 . S
C364 C365 1.391 . S
C365 H353 0.950 . S
C365 C361 1.393 . S
C365 C364 1.391 . S
C366 H356 0.950 . S
C366 C367 1.386 . S
C366 C368 1.391 . S
C367 C366 1.386 . S
C367 C371 1.393 . S
C368 H357 0.950 . S
C368 C366 1.391 . S
C368 C369 1.400 . S
C369 C363 1.491 . S
C369 C368 1.400 . S
C369 C370 1.398 . S
C370 H358 0.950 . S
C370 C369 1.398 . S
C370 C371 1.391 . S
C371 H359 0.950 . S
C371 C367 1.393 . S
C371 C370 1.391 . S
H372 C380 0.950 . S
H373 C385 0.950 . S
H374 C382 0.950 . S
H375 C384 0.950 1_455 S
H376 C386 0.950 . S
H377 C388 0.950 . S
H378 C390 0.950 1_655 S
H379 C391 0.950 . S
C380 H372 0.950 . S
C380 C381 1.386 . S
C380 C382 1.391 . S
C381 C380 1.386 . S
C381 C385 1.393 . S
C382 H374 0.950 . S
C382 C380 1.391 . S
C382 C383 1.400 . S
C383 C382 1.400 . S
C383 C384 1.398 . S
C383 C389 1.491 1_654 S
C384 H375 0.950 1_655 S
C384 C383 1.398 . S
C384 C385 1.391 . S
C385 H373 0.950 . S
C385 C381 1.393 . S
C385 C384 1.391 . S
C386 H376 0.950 . S
C386 C387 1.386 . S
C386 C388 1.391 . S
C387 C386 1.386 . S
C387 C391 1.393 . S
C388 H377 0.950 . S
C388 C386 1.391 . S
C388 C389 1.400 . S
C389 C383 1.491 1_456 S
C389 C388 1.400 . S
C389 C390 1.398 . S
C390 H378 0.950 1_455 S
C390 C389 1.398 . S
C390 C391 1.391 . S
C391 H379 0.950 . S
C391 C387 1.393 . S
C391 C390 1.391 . S
H392 C400 0.950 . S
H393 C405 0.950 . S
H394 C402 0.950 . S
H395 C404 0.950 . S
H396 C406 0.950 . S
H397 C408 0.950 . S
H398 C410 0.950 . S
H399 C411 0.950 . S
C400 H392 0.950 . S
C400 C401 1.386 . S
C400 C402 1.391 . S
C401 C400 1.386 . S
C401 C405 1.393 . S
C402 H394 0.950 . S
C402 C400 1.391 . S
C402 C403 1.400 . S
C403 C402 1.400 . S
C403 C404 1.398 . S
C403 C409 1.491 1_554 S
C404 H395 0.950 . S
C404 C403 1.398 . S
C404 C405 1.391 . S
C405 H393 0.950 . S
C405 C401 1.393 . S
C405 C404 1.391 . S
C406 H396 0.950 . S
C406 C407 1.386 . S
C406 C408 1.391 . S
C407 C406 1.386 . S
C407 C411 1.393 . S
C408 H397 0.950 . S
C408 C406 1.391 . S
C408 C409 1.400 . S
C409 C403 1.491 1_556 S
C409 C408 1.400 . S
C409 C410 1.398 . S
C410 H398 0.950 . S
C410 C409 1.398 . S
C410 C411 1.391 . S
C411 H399 0.950 . S
C411 C407 1.393 . S
C411 C410 1.391 . S
H412 C420 0.950 . S
H413 C425 0.950 . S
H414 C422 0.950 . S
H415 C424 0.950 1_565 S
H416 C426 0.950 . S
H417 C428 0.950 . S
H418 C430 0.950 1_545 S
H419 C431 0.950 . S
C420 H412 0.950 . S
C420 C421 1.386 . S
C420 C422 1.391 . S
C421 C420 1.386 . S
C421 C425 1.393 . S
C422 H414 0.950 . S
C422 C420 1.391 . S
C422 C423 1.400 . S
C423 C422 1.400 . S
C423 C424 1.398 . S
C423 C429 1.491 1_544 S
C424 H415 0.950 1_545 S
C424 C423 1.398 . S
C424 C425 1.391 . S
C425 H413 0.950 . S
C425 C421 1.393 . S
C425 C424 1.391 . S
C426 H416 0.950 . S
C426 C427 1.386 . S
C426 C428 1.391 . S
C427 C426 1.386 . S
C427 C431 1.393 . S
C428 H417 0.950 . S
C428 C426 1.391 . S
C428 C429 1.400 . S
C429 C423 1.491 1_566 S
C429 C428 1.400 . S
C429 C430 1.398 . S
C430 H418 0.950 1_565 S
C430 C429 1.398 . S
C430 C431 1.391 . S
C431 H419 0.950 . S
C431 C427 1.393 . S
C431 C430 1.391 . S
H432 C440 0.950 . S
H433 C445 0.950 . S
H434 C442 0.950 . S
H435 C444 0.950 . S
H436 C446 0.950 . S
H437 C448 0.950 . S
H438 C450 0.950 . S
H439 C451 0.950 . S
C440 H432 0.950 . S
C440 C441 1.386 . S
C440 C442 1.391 . S
C441 C440 1.386 . S
C441 C445 1.393 . S
C442 H434 0.950 . S
C442 C440 1.391 . S
C442 C443 1.400 . S
C443 C442 1.400 . S
C443 C444 1.398 . S
C443 C449 1.491 . S
C444 H435 0.950 . S
C444 C443 1.398 . S
C444 C445 1.391 . S
C445 H433 0.950 . S
C445 C441 1.393 . S
C445 C444 1.391 . S
C446 H436 0.950 . S
C446 C447 1.386 . S
C446 C448 1.391 . S
C447 C446 1.386 . S
C447 C451 1.393 . S
C448 H437 0.950 . S
C448 C446 1.391 . S
C448 C449 1.400 . S
C449 C443 1.491 . S
C449 C448 1.400 . S
C449 C450 1.398 . S
C450 H438 0.950 . S
C450 C449 1.398 . S
C450 C451 1.391 . S
C451 H439 0.950 . S
C451 C447 1.393 . S
C451 C450 1.391 . S
H452 C460 0.950 . S
H453 C465 0.950 . S
H454 C462 0.950 . S
H455 C464 0.950 . S
H456 C466 0.950 . S
H457 C468 0.950 . S
H458 C470 0.950 . S
H459 C471 0.950 . S
C460 H452 0.950 . S
C460 C461 1.386 . S
C460 C462 1.391 . S
C461 C460 1.386 . S
C461 C465 1.393 . S
C462 H454 0.950 . S
C462 C460 1.391 . S
C462 C463 1.400 . S
C463 C462 1.400 . S
C463 C464 1.398 . S
C463 C469 1.491 . S
C464 H455 0.950 . S
C464 C463 1.398 . S
C464 C465 1.391 . S
C465 H453 0.950 . S
C465 C461 1.393 . S
C465 C464 1.391 . S
C466 H456 0.950 . S
C466 C467 1.386 . S
C466 C468 1.391 . S
C467 C466 1.386 . S
C467 C471 1.393 . S
C468 H457 0.950 . S
C468 C466 1.391 . S
C468 C469 1.400 . S
C469 C463 1.491 . S
C469 C468 1.400 . S
C469 C470 1.398 . S
C470 H458 0.950 . S
C470 C469 1.398 . S
C470 C471 1.391 . S
C471 H459 0.950 . S
C471 C467 1.393 . S
C471 C470 1.391 . S
H472 C480 0.950 . S
H473 C485 0.950 . S
H474 C482 0.950 . S
H475 C484 0.950 . S
H476 C486 0.950 . S
H477 C488 0.950 . S
H478 C490 0.950 . S
H479 C491 0.950 . S
C480 H472 0.950 . S
C480 C481 1.386 . S
C480 C482 1.391 . S
C481 C480 1.386 . S
C481 C485 1.393 . S
C482 H474 0.950 . S
C482 C480 1.391 . S
C482 C483 1.400 . S
C483 C482 1.400 . S
C483 C484 1.398 . S
C483 C489 1.491 . S
C484 H475 0.950 . S
C484 C483 1.398 . S
C484 C485 1.391 . S
C485 H473 0.950 . S
C485 C481 1.393 . S
C485 C484 1.391 . S
C486 H476 0.950 . S
C486 C487 1.386 . S
C486 C488 1.391 . S
C487 C486 1.386 . S
C487 C491 1.393 . S
C488 H477 0.950 . S
C488 C486 1.391 . S
C488 C489 1.400 . S
C489 C483 1.491 . S
C489 C488 1.400 . S
C489 C490 1.398 . S
C490 H478 0.950 . S
C490 C489 1.398 . S
C490 C491 1.391 . S
C491 H479 0.950 . S
C491 C487 1.393 . S
C491 C490 1.391 . S
H492 C500 0.950 . S
H493 C505 0.950 . S
H494 C502 0.950 . S
H495 C504 0.950 . S
H496 C506 0.950 . S
H497 C508 0.950 . S
H498 C510 0.950 . S
H499 C511 0.950 . S
C500 H492 0.950 . S
C500 C501 1.386 . S
C500 C502 1.391 . S
C501 C500 1.386 . S
C501 C505 1.393 . S
C502 H494 0.950 . S
C502 C500 1.391 . S
C502 C503 1.400 . S
C503 C502 1.400 . S
C503 C504 1.398 . S
C503 C509 1.491 . S
C504 H495 0.950 . S
C504 C503 1.398 . S
C504 C505 1.391 . S
C505 H493 0.950 . S
C505 C501 1.393 . S
C505 C504 1.391 . S
C506 H496 0.950 . S
C506 C507 1.386 . S
C506 C508 1.391 . S
C507 C506 1.386 . S
C507 C511 1.393 . S
C508 H497 0.950 . S
C508 C506 1.391 . S
C508 C509 1.400 . S
C509 C503 1.491 . S
C509 C508 1.400 . S
C509 C510 1.398 . S
C510 H498 0.950 . S
C510 C509 1.398 . S
C510 C511 1.391 . S
C511 H499 0.950 . S
C511 C507 1.393 . S
C511 C510 1.391 . S
H512 C520 0.950 . S
H513 C525 0.950 . S
H514 C522 0.950 . S
H515 C524 0.950 . S
H516 C526 0.950 . S
H517 C528 0.950 . S
H518 C530 0.950 . S
H519 C531 0.950 . S
C520 H512 0.950 . S
C520 C521 1.386 . S
C520 C522 1.391 . S
C521 C520 1.386 . S
C521 C525 1.393 . S
C522 H514 0.950 . S
C522 C520 1.391 . S
C522 C523 1.400 . S
C523 C522 1.400 . S
C523 C524 1.398 . S
C523 C529 1.491 . S
C524 H515 0.950 . S
C524 C523 1.398 . S
C524 C525 1.391 . S
C525 H513 0.950 . S
C525 C521 1.393 . S
C525 C524 1.391 . S
C526 H516 0.950 . S
C526 C527 1.386 . S
C526 C528 1.391 . S
C527 C526 1.386 . S
C527 C531 1.393 . S
C528 H517 0.950 . S
C528 C526 1.391 . S
C528 C529 1.400 . S
C529 C523 1.491 . S
C529 C528 1.400 . S
C529 C530 1.398 . S
C530 H518 0.950 . S
C530 C529 1.398 . S
C530 C531 1.391 . S
C531 H519 0.950 . S
C531 C527 1.393 . S
C531 C530 1.391 . S
H532 C540 0.950 . S
H533 C545 0.950 . S
H534 C542 0.950 . S
H535 C544 0.950 . S
H536 C546 0.950 . S
H537 C548 0.950 . S
H538 C550 0.950 . S
H539 C551 0.950 . S
C540 H532 0.950 . S
C540 C541 1.386 . S
C540 C542 1.391 . S
C541 C540 1.386 . S
C541 C545 1.393 . S
C542 H534 0.950 . S
C542 C540 1.391 . S
C542 C543 1.400 . S
C543 C542 1.400 . S
C543 C544 1.398 . S
C543 C549 1.491 . S
C544 H535 0.950 . S
C544 C543 1.398 . S
C544 C545 1.391 . S
C545 H533 0.950 . S
C545 C541 1.393 . S
C545 C544 1.391 . S
C546 H536 0.950 . S
C546 C547 1.386 . S
C546 C548 1.391 . S
C547 C546 1.386 . S
C547 C551 1.393 . S
C548 H537 0.950 . S
C548 C546 1.391 . S
C548 C549 1.400 . S
C549 C543 1.491 . S
C549 C548 1.400 . S
C549 C550 1.398 . S
C550 H538 0.950 . S
C550 C549 1.398 . S
C550 C551 1.391 . S
C551 H539 0.950 . S
C551 C547 1.393 . S
C551 C550 1.391 . S
H552 C560 0.950 . S
H553 C565 0.950 . S
H554 C562 0.950 1_455 S
H555 C564 0.950 . S
H556 C566 0.950 . S
H557 C568 0.950 1_655 S
H558 C570 0.950 . S
H559 C571 0.950 . S
C560 H552 0.950 . S
C560 C561 1.386 . S
C560 C562 1.391 . S
C561 C560 1.386 . S
C561 C565 1.393 . S
C562 H554 0.950 1_655 S
C562 C560 1.391 . S
C562 C563 1.400 . S
C563 C562 1.400 . S
C563 C564 1.398 . S
C563 C569 1.491 1_655 S
C564 H555 0.950 . S
C564 C563 1.398 . S
C564 C565 1.391 . S
C565 H553 0.950 . S
C565 C561 1.393 . S
C565 C564 1.391 . S
C566 H556 0.950 . S
C566 C567 1.386 . S
C566 C568 1.391 . S
C567 C566 1.386 . S
C567 C571 1.393 . S
C568 H557 0.950 1_455 S
C568 C566 1.391 . S
C568 C569 1.400 . S
C569 C563 1.491 1_455 S
C569 C568 1.400 . S
C569 C570 1.398 . S
C570 H558 0.950 . S
C570 C569 1.398 . S
C570 C571 1.391 . S
C571 H559 0.950 . S
C571 C567 1.393 . S
C571 C570 1.391 . S
H572 C580 0.950 . S
H573 C585 0.950 . S
H574 C582 0.950 . S
H575 C584 0.950 . S
H576 C586 0.950 . S
H577 C588 0.950 . S
H578 C590 0.950 . S
H579 C591 0.950 . S
C580 H572 0.950 . S
C580 C581 1.386 . S
C580 C582 1.391 . S
C581 C580 1.386 . S
C581 C585 1.393 . S
C582 H574 0.950 . S
C582 C580 1.391 . S
C582 C583 1.400 . S
C583 C582 1.400 . S
C583 C584 1.398 . S
C583 C589 1.491 . S
C584 H575 0.950 . S
C584 C583 1.398 . S
C584 C585 1.391 . S
C585 H573 0.950 . S
C585 C581 1.393 . S
C585 C584 1.391 . S
C586 H576 0.950 . S
C586 C587 1.386 . S
C586 C588 1.391 . S
C587 C586 1.386 . S
C587 C591 1.393 . S
C588 H577 0.950 . S
C588 C586 1.391 . S
C588 C589 1.400 . S
C589 C583 1.491 . S
C589 C588 1.400 . S
C589 C590 1.398 . S
C590 H578 0.950 . S
C590 C589 1.398 . S
C590 C591 1.391 . S
C591 H579 0.950 . S
C591 C587 1.393 . S
C591 C590 1.391 . S
H592 C600 0.950 . S
H593 C605 0.950 . S
H594 C602 0.950 . S
H595 C604 0.950 . S
H596 C606 0.950 . S
H597 C608 0.950 . S
H598 C610 0.950 . S
H599 C611 0.950 . S
C600 H592 0.950 . S
C600 C601 1.386 . S
C600 C602 1.391 . S
C601 C600 1.386 . S
C601 C605 1.393 . S
C602 H594 0.950 . S
C602 C600 1.391 . S
C602 C603 1.400 . S
C603 C602 1.400 . S
C603 C604 1.398 . S
C603 C609 1.491 1_565 S
C604 H595 0.950 . S
C604 C603 1.398 . S
C604 C605 1.391 . S
C605 H593 0.950 . S
C605 C601 1.393 . S
C605 C604 1.391 . S
C606 H596 0.950 . S
C606 C607 1.386 . S
C606 C608 1.391 . S
C607 C606 1.386 . S
C607 C611 1.393 . S
C608 H597 0.950 . S
C608 C606 1.391 . S
C608 C609 1.400 . S
C609 C603 1.491 1_545 S
C609 C608 1.400 . S
C609 C610 1.398 . S
C610 H598 0.950 . S
C610 C609 1.398 . S
C610 C611 1.391 . S
C611 H599 0.950 . S
C611 C607 1.393 . S
C611 C610 1.391 . S
H612 C620 0.950 . S
H613 C625 0.950 . S
H614 C622 0.950 . S
H615 C624 0.950 . S
H616 C626 0.950 . S
H617 C628 0.950 . S
H618 C630 0.950 . S
H619 C631 0.950 . S
C620 H612 0.950 . S
C620 C621 1.386 . S
C620 C622 1.391 . S
C621 C620 1.386 . S
C621 C625 1.393 1_554 S
C622 H614 0.950 . S
C622 C620 1.391 . S
C622 C623 1.400 . S
C623 C622 1.400 . S
C623 C624 1.398 1_554 S
C623 C629 1.491 1_554 S
C624 H615 0.950 . S
C624 C623 1.398 1_556 S
C624 C625 1.391 . S
C625 H613 0.950 . S
C625 C621 1.393 1_556 S
C625 C624 1.391 . S
C626 H616 0.950 . S
C626 C627 1.386 . S
C626 C628 1.391 . S
C627 C626 1.386 . S
C627 C631 1.393 1_556 S
C628 H617 0.950 . S
C628 C626 1.391 . S
C628 C629 1.400 . S
C629 C623 1.491 1_556 S
C629 C628 1.400 . S
C629 C630 1.398 1_556 S
C630 H618 0.950 . S
C630 C629 1.398 1_554 S
C630 C631 1.391 . S
C631 H619 0.950 . S
C631 C627 1.393 1_554 S
C631 C630 1.391 . S
H632 C640 0.950 . S
H633 C645 0.950 . S
H634 C642 0.950 . S
H635 C644 0.950 . S
H636 C646 0.950 . S
H637 C648 0.950 . S
H638 C650 0.950 . S
H639 C651 0.950 . S
C640 H632 0.950 . S
C640 C641 1.386 . S
C640 C642 1.391 . S
C641 C640 1.386 . S
C641 C645 1.393 1_556 S
C642 H634 0.950 . S
C642 C640 1.391 . S
C642 C643 1.400 . S
C643 C642 1.400 . S
C643 C644 1.398 1_556 S
C643 C649 1.491 1_546 S
C644 H635 0.950 . S
C644 C643 1.398 1_554 S
C644 C645 1.391 . S
C645 H633 0.950 . S
C645 C641 1.393 1_554 S
C645 C644 1.391 . S
C646 H636 0.950 . S
C646 C647 1.386 . S
C646 C648 1.391 . S
C647 C646 1.386 . S
C647 C651 1.393 1_554 S
C648 H637 0.950 . S
C648 C646 1.391 . S
C648 C649 1.400 . S
C649 C643 1.491 1_564 S
C649 C648 1.400 . S
C649 C650 1.398 1_554 S
C650 H638 0.950 . S
C650 C649 1.398 1_556 S
C650 C651 1.391 . S
C651 H639 0.950 . S
C651 C647 1.393 1_556 S
C651 C650 1.391 . S
H652 C660 0.950 . S
H653 C665 0.950 1_554 S
H654 C662 0.950 . S
H655 C664 0.950 . S
H656 C666 0.950 . S
H657 C668 0.950 . S
H658 C670 0.950 . S
H659 C671 0.950 1_556 S
C660 H652 0.950 . S
C660 C661 1.386 . S
C660 C662 1.391 . S
C661 C660 1.386 . S
C661 C665 1.393 . S
C662 H654 0.950 . S
C662 C660 1.391 . S
C662 C663 1.400 . S
C663 C662 1.400 . S
C663 C664 1.398 1_556 S
C663 C669 1.491 1_656 S
C664 H655 0.950 . S
C664 C663 1.398 1_554 S
C664 C665 1.391 1_554 S
C665 H653 0.950 1_556 S
C665 C661 1.393 . S
C665 C664 1.391 1_556 S
C666 H656 0.950 . S
C666 C667 1.386 . S
C666 C668 1.391 . S
C667 C666 1.386 . S
C667 C671 1.393 . S
C668 H657 0.950 . S
C668 C666 1.391 . S
C668 C669 1.400 . S
C669 C663 1.491 1_454 S
C669 C668 1.400 . S
C669 C670 1.398 1_554 S
C670 H658 0.950 . S
C670 C669 1.398 1_556 S
C670 C671 1.391 1_556 S
C671 H659 0.950 1_554 S
C671 C667 1.393 . S
C671 C670 1.391 1_554 S
H672 C680 0.950 . S
H673 C685 0.950 . S
H674 C682 0.950 . S
H675 C684 0.950 . S
H676 C686 0.950 . S
H677 C688 0.950 . S
H678 C690 0.950 . S
H679 C691 0.950 . S
C680 H672 0.950 . S
C680 C681 1.386 . S
C680 C682 1.391 . S
C681 C680 1.386 . S
C681 C685 1.393 . S
C682 H674 0.950 . S
C682 C680 1.391 . S
C682 C683 1.400 . S
C683 C682 1.400 . S
C683 C684 1.398 . S
C683 C689 1.491 1_556 S
C684 H675 0.950 . S
C684 C683 1.398 . S
C684 C685 1.391 . S
C685 H673 0.950 . S
C685 C681 1.393 . S
C685 C684 1.391 . S
C686 H676 0.950 . S
C686 C687 1.386 . S
C686 C688 1.391 . S
C687 C686 1.386 . S
C687 C691 1.393 . S
C688 H677 0.950 . S
C688 C686 1.391 . S
C688 C689 1.400 . S
C689 C683 1.491 1_554 S
C689 C688 1.400 . S
C689 C690 1.398 . S
C690 H678 0.950 . S
C690 C689 1.398 . S
C690 C691 1.391 . S
C691 H679 0.950 . S
C691 C687 1.393 . S
C691 C690 1.391 . S
H692 C700 0.950 . S
H693 C705 0.950 . S
H694 C702 0.950 . S
H695 C704 0.950 . S
H696 C706 0.950 . S
H697 C708 0.950 . S
H698 C710 0.950 . S
H699 C711 0.950 . S
C700 H692 0.950 . S
C700 C701 1.386 . S
C700 C702 1.391 . S
C701 C700 1.386 . S
C701 C705 1.393 1_554 S
C702 H694 0.950 . S
C702 C700 1.391 . S
C702 C703 1.400 . S
C703 C702 1.400 . S
C703 C704 1.398 1_554 S
C703 C709 1.491 1_564 S
C704 H695 0.950 . S
C704 C703 1.398 1_556 S
C704 C705 1.391 . S
C705 H693 0.950 . S
C705 C701 1.393 1_556 S
C705 C704 1.391 . S
C706 H696 0.950 . S
C706 C707 1.386 . S
C706 C708 1.391 . S
C707 C706 1.386 . S
C707 C711 1.393 1_556 S
C708 H697 0.950 . S
C708 C706 1.391 . S
C708 C709 1.400 . S
C709 C703 1.491 1_546 S
C709 C708 1.400 . S
C709 C710 1.398 1_556 S
C710 H698 0.950 . S
C710 C709 1.398 1_554 S
C710 C711 1.391 . S
C711 H699 0.950 . S
C711 C707 1.393 1_554 S
C711 C710 1.391 . S
H712 C720 0.950 . S
H713 C725 0.950 . S
H714 C722 0.952 . S
H715 C724 0.950 . S
H716 C726 0.950 . S
H717 C728 0.952 . S
H718 C730 0.950 . S
H719 C731 0.950 . S
C720 H712 0.950 . S
C720 C721 1.386 . S
C720 C722 1.390 1_556 S
C721 C720 1.386 . S
C721 C725 1.393 . S
C722 H714 0.952 . S
C722 C720 1.390 1_554 S
C722 C723 1.400 1_554 S
C723 C722 1.400 1_556 S
C723 C724 1.398 . S
C723 C729 1.491 1_656 S
C724 H715 0.950 . S
C724 C723 1.398 . S
C724 C725 1.391 . S
C725 H713 0.950 . S
C725 C721 1.393 . S
C725 C724 1.391 . S
C726 H716 0.950 . S
C726 C727 1.386 . S
C726 C728 1.390 1_554 S
C727 C726 1.386 . S
C727 C731 1.393 . S
C728 H717 0.952 . S
C728 C726 1.390 1_556 S
C728 C729 1.399 1_556 S
C729 C723 1.491 1_454 S
C729 C728 1.399 1_554 S
C729 C730 1.398 . S
C730 H718 0.950 . S
C730 C729 1.398 . S
C730 C731 1.391 . S
C731 H719 0.950 . S
C731 C727 1.393 . S
C731 C730 1.391 . S
H732 C740 0.950 . S
H733 C745 0.950 . S
H734 C742 0.950 . S
H735 C744 0.950 . S
H736 C746 0.950 . S
H737 C748 0.950 . S
H738 C750 0.950 . S
H739 C751 0.950 . S
C740 H732 0.950 . S
C740 C741 1.386 . S
C740 C742 1.391 . S
C741 C740 1.386 . S
C741 C745 1.393 . S
C742 H734 0.950 . S
C742 C740 1.391 . S
C742 C743 1.400 . S
C743 C742 1.400 . S
C743 C744 1.398 . S
C743 C749 1.491 . S
C744 H735 0.950 . S
C744 C743 1.398 . S
C744 C745 1.391 . S
C745 H733 0.950 . S
C745 C741 1.393 . S
C745 C744 1.391 . S
C746 H736 0.950 . S
C746 C747 1.386 . S
C746 C748 1.391 . S
C747 C746 1.386 . S
C747 C751 1.393 . S
C748 H737 0.950 . S
C748 C746 1.391 . S
C748 C749 1.400 . S
C749 C743 1.491 . S
C749 C748 1.400 . S
C749 C750 1.398 . S
C750 H738 0.950 . S
C750 C749 1.398 . S
C750 C751 1.391 . S
C751 H739 0.950 . S
C751 C747 1.393 . S
C751 C750 1.391 . S
H752 C760 0.950 . S
H753 C765 0.950 . S
H754 C762 0.950 . S
H755 C764 0.950 . S
H756 C766 0.950 . S
H757 C768 0.950 . S
H758 C770 0.950 . S
H759 C771 0.950 . S
C760 H752 0.950 . S
C760 C761 1.386 . S
C760 C762 1.391 . S
C761 C760 1.386 . S
C761 C765 1.393 . S
C762 H754 0.950 . S
C762 C760 1.391 . S
C762 C763 1.400 . S
C763 C762 1.400 . S
C763 C764 1.398 . S
C763 C769 1.491 . S
C764 H755 0.950 . S
C764 C763 1.398 . S
C764 C765 1.391 . S
C765 H753 0.950 . S
C765 C761 1.393 . S
C765 C764 1.391 . S
C766 H756 0.950 . S
C766 C767 1.386 . S
C766 C768 1.391 . S
C767 C766 1.386 . S
C767 C771 1.393 . S
C768 H757 0.950 . S
C768 C766 1.391 . S
C768 C769 1.400 . S
C769 C763 1.491 . S
C769 C768 1.400 . S
C769 C770 1.398 . S
C770 H758 0.950 . S
C770 C769 1.398 . S
C770 C771 1.391 . S
C771 H759 0.950 . S
C771 C767 1.393 . S
C771 C770 1.391 . S
H772 C780 0.950 . S
H773 C785 0.950 . S
H774 C782 0.950 . S
H775 C784 0.950 . S
H776 C786 0.950 . S
H777 C788 0.950 . S
H778 C790 0.950 . S
H779 C791 0.950 . S
C780 H772 0.950 . S
C780 C781 1.386 . S
C780 C782 1.391 . S
C781 C780 1.386 . S
C781 C785 1.393 . S
C782 H774 0.950 . S
C782 C780 1.391 . S
C782 C783 1.400 . S
C783 C782 1.400 . S
C783 C784 1.398 . S
C783 C789 1.491 . S
C784 H775 0.950 . S
C784 C783 1.398 . S
C784 C785 1.391 . S
C785 H773 0.950 . S
C785 C781 1.393 . S
C785 C784 1.391 . S
C786 H776 0.950 . S
C786 C787 1.386 . S
C786 C788 1.391 . S
C787 C786 1.386 . S
C787 C791 1.393 . S
C788 H777 0.950 . S
C788 C786 1.391 . S
C788 C789 1.400 . S
C789 C783 1.491 . S
C789 C788 1.400 . S
C789 C790 1.398 . S
C790 H778 0.950 . S
C790 C789 1.398 . S
C790 C791 1.391 . S
C791 H779 0.950 . S
C791 C787 1.393 . S
C791 C790 1.391 . S
H792 C800 0.950 . S
H793 C805 0.950 . S
H794 C802 0.950 . S
H795 C804 0.950 . S
H796 C806 0.950 . S
H797 C808 0.950 . S
H798 C810 0.950 . S
H799 C811 0.950 . S
C800 H792 0.950 . S
C800 C801 1.386 . S
C800 C802 1.391 . S
C801 C800 1.386 . S
C801 C805 1.393 . S
C802 H794 0.950 . S
C802 C800 1.391 . S
C802 C803 1.400 . S
C803 C802 1.400 . S
C803 C804 1.398 . S
C803 C809 1.491 . S
C804 H795 0.950 . S
C804 C803 1.398 . S
C804 C805 1.391 . S
C805 H793 0.950 . S
C805 C801 1.393 . S
C805 C804 1.391 . S
C806 H796 0.950 . S
C806 C807 1.386 . S
C806 C808 1.391 . S
C807 C806 1.386 . S
C807 C811 1.393 . S
C808 H797 0.950 . S
C808 C806 1.391 . S
C808 C809 1.400 . S
C809 C803 1.491 . S
C809 C808 1.400 . S
C809 C810 1.398 . S
C810 H798 0.950 . S
C810 C809 1.398 . S
C810 C811 1.391 . S
C811 H799 0.950 . S
C811 C807 1.393 . S
C811 C810 1.391 . S
H812 C820 0.950 . S
H813 C825 0.950 . S
H814 C822 0.950 . S
H815 C824 0.950 . S
H816 C826 0.950 . S
H817 C828 0.950 . S
H818 C830 0.950 . S
H819 C831 0.950 . S
C820 H812 0.950 . S
C820 C821 1.386 . S
C820 C822 1.391 . S
C821 C820 1.386 . S
C821 C825 1.393 . S
C822 H814 0.950 . S
C822 C820 1.391 . S
C822 C823 1.400 . S
C823 C822 1.400 . S
C823 C824 1.398 . S
C823 C829 1.491 . S
C824 H815 0.950 . S
C824 C823 1.398 . S
C824 C825 1.391 . S
C825 H813 0.950 . S
C825 C821 1.393 . S
C825 C824 1.391 . S
C826 H816 0.950 . S
C826 C827 1.386 . S
C826 C828 1.391 . S
C827 C826 1.386 . S
C827 C831 1.393 . S
C828 H817 0.950 . S
C828 C826 1.391 . S
C828 C829 1.400 . S
C829 C823 1.491 . S
C829 C828 1.400 . S
C829 C830 1.398 . S
C830 H818 0.950 . S
C830 C829 1.398 . S
C830 C831 1.391 . S
C831 H819 0.950 . S
C831 C827 1.393 . S
C831 C830 1.391 . S
H832 C840 0.950 . S
H833 C845 0.950 . S
H834 C842 0.950 . S
H835 C844 0.950 . S
H836 C846 0.950 . S
H837 C848 0.950 . S
H838 C850 0.950 . S
H839 C851 0.950 . S
C840 H832 0.950 . S
C840 C841 1.386 . S
C840 C842 1.391 . S
C841 C840 1.386 . S
C841 C845 1.393 . S
C842 H834 0.950 . S
C842 C840 1.391 . S
C842 C843 1.400 . S
C843 C842 1.400 . S
C843 C844 1.398 . S
C843 C849 1.491 . S
C844 H835 0.950 . S
C844 C843 1.398 . S
C844 C845 1.391 . S
C845 H833 0.950 . S
C845 C841 1.393 . S
C845 C844 1.391 . S
C846 H836 0.950 . S
C846 C847 1.386 . S
C846 C848 1.391 . S
C847 C846 1.386 . S
C847 C851 1.393 . S
C848 H837 0.950 . S
C848 C846 1.391 . S
C848 C849 1.400 . S
C849 C843 1.491 . S
C849 C848 1.400 . S
C849 C850 1.398 . S
C850 H838 0.950 . S
C850 C849 1.398 . S
C850 C851 1.391 . S
C851 H839 0.950 . S
C851 C847 1.393 . S
C851 C850 1.391 . S
H852 C860 0.950 . S
H853 C865 0.950 . S
H854 C862 0.950 . S
H855 C864 0.950 . S
H856 C866 0.950 . S
H857 C868 0.950 . S
H858 C870 0.950 . S
H859 C871 0.950 . S
C860 H852 0.950 . S
C860 C861 1.386 . S
C860 C862 1.391 . S
C861 C860 1.386 . S
C861 C865 1.393 . S
C862 H854 0.950 . S
C862 C860 1.391 . S
C862 C863 1.400 . S
C863 C862 1.400 . S
C863 C864 1.398 . S
C863 C869 1.491 . S
C864 H855 0.950 . S
C864 C863 1.398 . S
C864 C865 1.391 . S
C865 H853 0.950 . S
C865 C861 1.393 . S
C865 C864 1.391 . S
C866 H856 0.950 . S
C866 C867 1.386 . S
C866 C868 1.391 . S
C867 C866 1.386 . S
C867 C871 1.393 . S
C868 H857 0.950 . S
C868 C866 1.391 . S
C868 C869 1.400 . S
C869 C863 1.491 . S
C869 C868 1.400 . S
C869 C870 1.398 . S
C870 H858 0.950 . S
C870 C869 1.398 . S
C870 C871 1.391 . S
C871 H859 0.950 . S
C871 C867 1.393 . S
C871 C870 1.391 . S
H872 C880 0.950 . S
H873 C885 0.950 . S
H874 C882 0.950 . S
H875 C884 0.950 . S
H876 C886 0.950 . S
H877 C888 0.950 . S
H878 C890 0.950 . S
H879 C891 0.950 . S
C880 H872 0.950 . S
C880 C881 1.386 . S
C880 C882 1.391 . S
C881 C880 1.386 . S
C881 C885 1.393 . S
C882 H874 0.950 . S
C882 C880 1.391 . S
C882 C883 1.400 . S
C883 C882 1.400 . S
C883 C884 1.398 . S
C883 C889 1.491 . S
C884 H875 0.950 . S
C884 C883 1.398 . S
C884 C885 1.391 . S
C885 H873 0.950 . S
C885 C881 1.393 . S
C885 C884 1.391 . S
C886 H876 0.950 . S
C886 C887 1.386 . S
C886 C888 1.391 . S
C887 C886 1.386 . S
C887 C891 1.393 . S
C888 H877 0.950 . S
C888 C886 1.391 . S
C888 C889 1.400 . S
C889 C883 1.491 . S
C889 C888 1.400 . S
C889 C890 1.398 . S
C890 H878 0.950 . S
C890 C889 1.398 . S
C890 C891 1.391 . S
C891 H879 0.950 . S
C891 C887 1.393 . S
C891 C890 1.391 . S
H892 C900 0.950 . S
H893 C905 0.950 . S
H894 C902 0.950 . S
H895 C904 0.950 . S
H896 C906 0.950 . S
H897 C908 0.950 . S
H898 C910 0.950 . S
H899 C911 0.950 . S
C900 H892 0.950 . S
C900 C901 1.386 . S
C900 C902 1.391 . S
C901 C900 1.386 . S
C901 C905 1.393 . S
C902 H894 0.950 . S
C902 C900 1.391 . S
C902 C903 1.400 . S
C903 C902 1.400 . S
C903 C904 1.398 . S
C903 C909 1.491 . S
C904 H895 0.950 . S
C904 C903 1.398 . S
C904 C905 1.391 . S
C905 H893 0.950 . S
C905 C901 1.393 . S
C905 C904 1.391 . S
C906 H896 0.950 . S
C906 C907 1.386 . S
C906 C908 1.391 . S
C907 C906 1.386 . S
C907 C911 1.393 . S
C908 H897 0.950 . S
C908 C906 1.391 . S
C908 C909 1.400 . S
C909 C903 1.491 . S
C909 C908 1.400 . S
C909 C910 1.398 . S
C910 H898 0.950 . S
C910 C909 1.398 . S
C910 C911 1.391 . S
C911 H899 0.950 . S
C911 C907 1.393 . S
C911 C910 1.391 . S
H912 C920 0.950 . S
H913 C925 0.950 . S
H914 C922 0.950 . S
H915 C924 0.950 . S
H916 C926 0.950 . S
H917 C928 0.950 . S
H918 C930 0.950 . S
H919 C931 0.950 . S
C920 H912 0.950 . S
C920 C921 1.386 . S
C920 C922 1.391 . S
C921 C920 1.386 . S
C921 C925 1.393 . S
C922 H914 0.950 . S
C922 C920 1.391 . S
C922 C923 1.400 . S
C923 C922 1.400 . S
C923 C924 1.398 . S
C923 C929 1.491 . S
C924 H915 0.950 . S
C924 C923 1.398 . S
C924 C925 1.391 . S
C925 H913 0.950 . S
C925 C921 1.393 . S
C925 C924 1.391 . S
C926 H916 0.950 . S
C926 C927 1.386 . S
C926 C928 1.391 . S
C927 C926 1.386 . S
C927 C931 1.393 . S
C928 H917 0.950 . S
C928 C926 1.391 . S
C928 C929 1.400 . S
C929 C923 1.491 . S
C929 C928 1.400 . S
C929 C930 1.398 . S
C930 H918 0.950 . S
C930 C929 1.398 . S
C930 C931 1.391 . S
C931 H919 0.950 . S
C931 C927 1.393 . S
C931 C930 1.391 . S
H932 C940 0.950 . S
H933 C945 0.950 . S
H934 C942 0.950 . S
H935 C944 0.950 . S
H936 C946 0.950 . S
H937 C948 0.950 . S
H938 C950 0.950 . S
H939 C951 0.950 . S
C940 H932 0.950 . S
C940 C941 1.386 . S
C940 C942 1.391 . S
C941 C940 1.386 . S
C941 C945 1.393 . S
C942 H934 0.950 . S
C942 C940 1.391 . S
C942 C943 1.400 . S
C943 C942 1.400 . S
C943 C944 1.398 . S
C943 C949 1.491 . S
C944 H935 0.950 . S
C944 C943 1.398 . S
C944 C945 1.391 . S
C945 H933 0.950 . S
C945 C941 1.393 . S
C945 C944 1.391 . S
C946 H936 0.950 . S
C946 C947 1.386 . S
C946 C948 1.391 . S
C947 C946 1.386 . S
C947 C951 1.393 . S
C948 H937 0.950 . S
C948 C946 1.391 . S
C948 C949 1.400 . S
C949 C943 1.491 . S
C949 C948 1.400 . S
C949 C950 1.398 . S
C950 H938 0.950 . S
C950 C949 1.398 . S
C950 C951 1.391 . S
C951 H939 0.950 . S
C951 C947 1.393 . S
C951 C950 1.391 . S
H952 C960 0.950 . S
H953 C965 0.950 . S
H954 C962 0.950 . S
H955 C964 0.950 . S
H956 C966 0.950 . S
H957 C968 0.950 . S
H958 C970 0.950 . S
H959 C971 0.950 . S
C960 H952 0.950 . S
C960 C961 1.386 . S
C960 C962 1.391 . S
C961 C960 1.386 . S
C961 C965 1.393 . S
C962 H954 0.950 . S
C962 C960 1.391 . S
C962 C963 1.400 . S
C963 C962 1.400 . S
C963 C964 1.398 . S
C963 C969 1.491 . S
C964 H955 0.950 . S
C964 C963 1.398 . S
C964 C965 1.391 . S
C965 H953 0.950 . S
C965 C961 1.393 . S
C965 C964 1.391 . S
C966 H956 0.950 . S
C966 C967 1.386 . S
C966 C968 1.391 . S
C967 C966 1.386 . S
C967 C971 1.393 . S
C968 H957 0.950 . S
C968 C966 1.391 . S
C968 C969 1.400 . S
C969 C963 1.491 . S
C969 C968 1.400 . S
C969 C970 1.398 . S
C970 H958 0.950 . S
C970 C969 1.398 . S
C970 C971 1.391 . S
C971 H959 0.950 . S
C971 C967 1.393 . S
C971 C970 1.391 . S
C261 C249 1.666 . S
C267 C11 1.673 . S
C281 C221 1.673 . S
C287 C25 1.666 . S
C301 C235 1.666 . S
C307 C39 1.673 . S
C321 C109 1.666 . S
C327 C53 1.672 . S
C341 C123 1.666 . S
C347 C67 1.673 . S
C361 C81 1.673 . S
C367 C95 1.666 . S
C381 C137 1.672 . S
C387 C193 1.668 . S
C401 C151 1.673 . S
C407 C207 1.667 . S
C421 C165 1.671 . S
C427 C179 1.667 . S
C441 C8 1.092 . S
C447 C246 1.111 . S
C461 C218 1.112 . S
C467 C22 1.102 . S
C481 C36 1.111 . S
C487 C232 1.107 . S
C501 C106 1.083 . S
C507 C50 1.089 . S
C521 C64 1.112 . S
C527 C120 1.105 . S
C541 C78 1.105 . S
C547 C92 1.084 . S
C561 C134 1.097 . S
C567 C190 1.112 . S
C581 C204 1.113 . S
C587 C148 1.099 . S
C601 C176 1.087 . S
C607 C162 1.083 . S
C621 C13 1.394 . S
C627 C55 1.412 . S
C641 C69 1.378 . S
C647 C27 1.391 . S
C661 C83 1.406 . S
C667 C41 1.417 . S
C681 C77 1.472 . S
C687 C21 1.472 . S
C701 C35 1.466 . S
C707 C49 1.460 . S
C721 C63 1.471 . S
C727 C7 1.472 . S
C741 C97 1.385 . S
C747 C139 1.378 . S
C761 C153 1.389 . S
C767 C111 1.378 . S
C781 C167 1.387 . S
C787 C125 1.406 . S
C801 C161 1.461 . S
C807 C105 1.465 . S
C821 C119 1.470 . S
C827 C133 1.462 . S
C841 C147 1.461 . S
C847 C91 1.464 . S
C861 C223 1.403 . S
C867 C181 1.384 . S
C881 C237 1.379 . S
C887 C195 1.381 . S
C901 C209 1.405 . S
C907 C251 1.385 . S
C921 C245 1.473 . S
C927 C189 1.468 . S
C941 C203 1.473 . S
C947 C217 1.469 . S
C961 C231 1.460 . S
C967 C175 1.465 . S
