# Generated by pormake.
# Topology wgb, (5)-cn, num edge types: 1
# Building blocks:
#     Node 0, Type 0, BuildingBlock: BEQFEK_clean_sbu_0, # of connection points: 5
#     Node 1, Type 0, BuildingBlock: BEQFEK_clean_sbu_0, # of connection points: 5
#     Node 2, Type 0, BuildingBlock: BEQFEK_clean_sbu_0, # of connection points: 5
#     Node 3, Type 0, BuildingBlock: BEQFEK_clean_sbu_0, # of connection points: 5
#     Node 4, Type 0, BuildingBlock: BEQFEK_clean_sbu_0, # of connection points: 5
#     Node 5, Type 0, BuildingBlock: BEQFEK_clean_sbu_0, # of connection points: 5
#     Node 6, Type 0, BuildingBlock: BEQFEK_clean_sbu_0, # of connection points: 5
#     Node 7, Type 0, BuildingBlock: BEQFEK_clean_sbu_0, # of connection points: 5
#     Node 8, Type 0, BuildingBlock: BEQFEK_clean_sbu_0, # of connection points: 5
#     Node 9, Type 0, BuildingBlock: BEQFEK_clean_sbu_0, # of connection points: 5
#     Node 10, Type 0, BuildingBlock: BEQFEK_clean_sbu_0, # of connection points: 5
#     Node 11, Type 0, BuildingBlock: BEQFEK_clean_sbu_0, # of connection points: 5
#     Node 12, Type 0, BuildingBlock: BEQFEK_clean_sbu_0, # of connection points: 5
#     Node 13, Type 0, BuildingBlock: BEQFEK_clean_sbu_0, # of connection points: 5
#     Node 14, Type 0, BuildingBlock: BEQFEK_clean_sbu_0, # of connection points: 5
#     Node 15, Type 0, BuildingBlock: BEQFEK_clean_sbu_0, # of connection points: 5
#     Edge 16, Type (0, 0), BuildingBlock: OJICUG_clean_linker_0, # of connection points: 2
#     Edge 17, Type (0, 0), BuildingBlock: OJICUG_clean_linker_0, # of connection points: 2
#     Edge 18, Type (0, 0), BuildingBlock: OJICUG_clean_linker_0, # of connection points: 2
#     Edge 19, Type (0, 0), BuildingBlock: OJICUG_clean_linker_0, # of connection points: 2
#     Edge 20, Type (0, 0), BuildingBlock: OJICUG_clean_linker_0, # of connection points: 2
#     Edge 21, Type (0, 0), BuildingBlock: OJICUG_clean_linker_0, # of connection points: 2
#     Edge 22, Type (0, 0), BuildingBlock: OJICUG_clean_linker_0, # of connection points: 2
#     Edge 23, Type (0, 0), BuildingBlock: OJICUG_clean_linker_0, # of connection points: 2
#     Edge 24, Type (0, 0), BuildingBlock: OJICUG_clean_linker_0, # of connection points: 2
#     Edge 25, Type (0, 0), BuildingBlock: OJICUG_clean_linker_0, # of connection points: 2
#     Edge 26, Type (0, 0), BuildingBlock: OJICUG_clean_linker_0, # of connection points: 2
#     Edge 27, Type (0, 0), BuildingBlock: OJICUG_clean_linker_0, # of connection points: 2
#     Edge 28, Type (0, 0), BuildingBlock: OJICUG_clean_linker_0, # of connection points: 2
#     Edge 29, Type (0, 0), BuildingBlock: OJICUG_clean_linker_0, # of connection points: 2
#     Edge 30, Type (0, 0), BuildingBlock: OJICUG_clean_linker_0, # of connection points: 2
#     Edge 31, Type (0, 0), BuildingBlock: OJICUG_clean_linker_0, # of connection points: 2
#     Edge 32, Type (0, 0), BuildingBlock: OJICUG_clean_linker_0, # of connection points: 2
#     Edge 33, Type (0, 0), BuildingBlock: OJICUG_clean_linker_0, # of connection points: 2
#     Edge 34, Type (0, 0), BuildingBlock: OJICUG_clean_linker_0, # of connection points: 2
#     Edge 35, Type (0, 0), BuildingBlock: OJICUG_clean_linker_0, # of connection points: 2
#     Edge 36, Type (0, 0), BuildingBlock: OJICUG_clean_linker_0, # of connection points: 2
#     Edge 37, Type (0, 0), BuildingBlock: OJICUG_clean_linker_0, # of connection points: 2
#     Edge 38, Type (0, 0), BuildingBlock: OJICUG_clean_linker_0, # of connection points: 2
#     Edge 39, Type (0, 0), BuildingBlock: OJICUG_clean_linker_0, # of connection points: 2
#     Edge 40, Type (0, 0), BuildingBlock: OJICUG_clean_linker_0, # of connection points: 2
#     Edge 41, Type (0, 0), BuildingBlock: OJICUG_clean_linker_0, # of connection points: 2
#     Edge 42, Type (0, 0), BuildingBlock: OJICUG_clean_linker_0, # of connection points: 2
#     Edge 43, Type (0, 0), BuildingBlock: OJICUG_clean_linker_0, # of connection points: 2
#     Edge 44, Type (0, 0), BuildingBlock: OJICUG_clean_linker_0, # of connection points: 2
#     Edge 45, Type (0, 0), BuildingBlock: OJICUG_clean_linker_0, # of connection points: 2
#     Edge 46, Type (0, 0), BuildingBlock: OJICUG_clean_linker_0, # of connection points: 2
#     Edge 47, Type (0, 0), BuildingBlock: OJICUG_clean_linker_0, # of connection points: 2
#     Edge 48, Type (0, 0), BuildingBlock: OJICUG_clean_linker_0, # of connection points: 2
#     Edge 49, Type (0, 0), BuildingBlock: OJICUG_clean_linker_0, # of connection points: 2
#     Edge 50, Type (0, 0), BuildingBlock: OJICUG_clean_linker_0, # of connection points: 2
#     Edge 51, Type (0, 0), BuildingBlock: OJICUG_clean_linker_0, # of connection points: 2
#     Edge 52, Type (0, 0), BuildingBlock: OJICUG_clean_linker_0, # of connection points: 2
#     Edge 53, Type (0, 0), BuildingBlock: OJICUG_clean_linker_0, # of connection points: 2
#     Edge 54, Type (0, 0), BuildingBlock: OJICUG_clean_linker_0, # of connection points: 2
#     Edge 55, Type (0, 0), BuildingBlock: OJICUG_clean_linker_0, # of connection points: 2
# Relax obj value: 0.155
# Max RMSD: 0.143
# Mean RMSD: 0.143
data_MOF--net-wgb--node1-BEQFEK_clean_sbu_0--edge1-OJICUG_clean_linker_0
_symmetry_space_group_name_H-M    P1
_symmetry_Int_Tables_number       1
_symmetry_cell_setting            triclinic
loop_
_symmetry_equiv_pos_as_xyz
'x, y, z'
_cell_length_a     49.148211
_cell_length_b     49.097863
_cell_length_c     14.996732
_cell_angle_alpha  89.982756
_cell_angle_beta   89.978485
_cell_angle_gamma 89.944573
loop_
_atom_site_label
_atom_site_type_symbol
_atom_site_fract_x
_atom_site_fract_y
_atom_site_fract_z
_atom_type_partial_charge
Co0 Co 0.34132 0.0554 0.12551 0.0
Co1 Co 0.32751 0.11825 0.13573 0.0
C2 C 0.30096 0.08231 -0.00146 0.0
O3 O 0.31417 0.06086 0.02206 0.0
O4 O 0.30579 0.10535 0.03452 0.0
C5 C 0.37213 1.00134 0.10099 0.0
O6 O 0.37968 1.00636 0.0186 0.0
C7 C 0.32053 0.17811 0.10898 0.0
C8 C 0.31823 0.19108 0.25005 0.0
C9 C 0.31792 0.20094 0.16366 0.0
N10 N 0.32271 0.15599 0.16141 0.0
N11 N 0.32108 0.16395 0.24543 0.0
C12 C 0.32013 0.17691 0.00932 0.0
H13 H 0.313 0.15666 0.98647 0.0
H14 H 0.34108 0.17996 0.98369 0.0
H15 H 0.30677 0.19307 0.98164 0.0
C16 C 0.39646 0.07967 0.16379 0.0
N17 N 0.37029 0.08211 0.1365 0.0
N18 N 0.36434 0.10822 0.13224 0.0
C19 C 0.3865 0.12306 0.15304 0.0
C20 C 0.40757 0.10554 0.17502 0.0
C21 C 0.40982 0.05323 0.18698 0.0
H22 H 0.41193 0.04083 0.12566 0.0
H23 H 0.43036 0.0563 0.21596 0.0
H24 H 0.39693 0.04189 0.23502 0.0
O25 O 0.31786 0.05706 0.23122 0.0
O26 O 0.3108 0.10148 0.2381 0.0
H27 H 0.37582 0.15809 0.22994 0.0
H28 H 0.40695 0.16196 0.16883 0.0
C29 C 0.38618 0.15329 0.16618 0.0
H30 H 0.37496 0.16309 0.11074 0.0
H31 H 0.32232 0.15084 0.30004 0.0
O32 O 0.35714 0.01829 0.14224 0.0
C33 C 0.30748 0.07771 0.26873 0.0
Co34 Co 0.05202 0.67377 0.86175 0.0
Co35 Co 0.11548 0.68354 0.8669 0.0
C36 C 0.08126 0.7093 0.00389 0.0
O37 O 0.05951 0.69929 0.9692 0.0
O38 O 0.10479 0.70237 0.97574 0.0
C39 C 1.0 0.64189 0.88553 0.0
O40 O 0.0106 0.62836 0.95268 0.0
C41 C 0.17577 0.68855 0.88636 0.0
C42 C 0.18734 0.68732 0.74377 0.0
C43 C 0.19804 0.68909 0.82883 0.0
N44 N 0.15306 0.68636 0.8369 0.0
N45 N 0.16018 0.68595 0.7519 0.0
C46 C 0.17591 0.68802 0.98605 0.0
H47 H 0.15692 0.67858 0.01154 0.0
H48 H 0.19388 0.67667 0.01116 0.0
H49 H 0.17695 0.70923 0.01137 0.0
C50 C 0.074 0.61861 0.8065 0.0
N51 N 0.07701 0.64353 0.84413 0.0
N52 N 0.10312 0.6475 0.8585 0.0
C53 C 0.11719 0.62496 0.83615 0.0
C54 C 0.09938 0.60599 0.80085 0.0
C55 C 0.04788 0.60812 0.76863 0.0
H56 H 0.03621 0.62504 0.73786 0.0
H57 H 0.03555 0.59922 0.82323 0.0
H58 H 0.05147 0.59194 0.71841 0.0
O59 O 0.05503 0.69865 0.76043 0.0
O60 O 0.09925 0.70529 0.77374 0.0
H61 H 0.15565 0.63101 0.77266 0.0
H62 H 0.15453 0.60169 0.84365 0.0
C63 C 0.1476 0.62305 0.83662 0.0
H64 H 0.156 0.63508 0.89264 0.0
H65 H 0.14643 0.6842 0.69922 0.0
O66 O 0.0136 0.66087 0.84879 0.0
C67 C 0.07674 0.7104 0.73627 0.0
Co68 Co 0.67405 0.96183 0.12657 0.0
Co69 Co 0.68472 0.89807 0.11695 0.0
C70 C 0.70835 0.93441 0.97922 0.0
O71 O 0.69843 0.95596 0.0156 0.0
O72 O 0.70222 0.91073 0.00783 0.0
C73 C 0.64341 0.01495 0.10415 0.0
O74 O 0.63317 1.00648 0.02817 0.0
C75 C 0.69062 0.838 0.08524 0.0
C76 C 0.69335 0.82421 0.22534 0.0
C77 C 0.6936 0.81481 0.13835 0.0
N78 N 0.68842 0.85983 0.13913 0.0
N79 N 0.69021 0.85135 0.22254 0.0
C80 C 0.69113 0.83983 0.98571 0.0
H81 H 0.69673 0.86063 0.96402 0.0
H82 H 0.67053 0.83531 0.95944 0.0
H83 H 0.70575 0.8249 0.95747 0.0
C84 C 0.61926 0.93924 0.17995 0.0
N85 N 0.64434 0.93626 0.14364 0.0
N86 N 0.64874 0.91007 0.13139 0.0
C87 C 0.62651 0.89582 0.15539 0.0
C88 C 0.60715 0.91371 0.18839 0.0
C89 C 0.60789 0.96576 0.21206 0.0
H90 H 0.60239 0.97841 0.15357 0.0
H91 H 0.58933 0.96286 0.25301 0.0
H92 H 0.62347 0.9768 0.25144 0.0
O93 O 0.70018 0.95764 0.22461 0.0
O94 O 0.70722 0.9134 0.20954 0.0
H95 H 0.63554 0.85821 0.22062 0.0
H96 H 0.60428 0.85764 0.15936 0.0
C97 C 0.62543 0.86535 0.15881 0.0
H98 H 0.63611 0.85667 0.10027 0.0
H99 H 0.68926 0.86418 0.27791 0.0
O100 O 0.66031 0.99995 0.14582 0.0
C101 C 0.71243 0.93592 0.24687 0.0
Co102 Co 0.96143 0.34114 0.85693 0.0
Co103 Co 0.89821 0.33061 0.86614 0.0
C104 C 0.93319 0.30725 0.0053 0.0
O105 O 0.95475 0.31675 0.96781 0.0
O106 O 0.9095 0.3138 0.97771 0.0
C107 C 0.01395 0.37286 0.87472 0.0
O108 O 1.0053 0.38498 0.9475 0.0
C109 C 0.83813 0.32484 0.88878 0.0
C110 C 0.82623 0.32353 0.74653 0.0
C111 C 0.81577 0.32282 0.83213 0.0
N112 N 0.86065 0.3268 0.83826 0.0
N113 N 0.85335 0.3257 0.75354 0.0
C114 C 0.83822 0.32684 0.98826 0.0
H115 H 0.85707 0.33703 0.01163 0.0
H116 H 0.82008 0.33821 0.01204 0.0
H117 H 0.83765 0.30602 0.01699 0.0
C118 C 0.93893 0.39601 0.80114 0.0
N119 N 0.93608 0.37094 0.83786 0.0
N120 N 0.90999 0.36662 0.85132 0.0
C121 C 0.89568 0.38896 0.82837 0.0
C122 C 0.91342 0.40827 0.79453 0.0
C123 C 0.96516 0.4072 0.76635 0.0
H124 H 0.97664 0.39102 0.73097 0.0
H125 H 0.97755 0.41447 0.82327 0.0
H126 H 0.9618 0.42467 0.72078 0.0
O127 O 0.95821 0.31497 0.75904 0.0
O128 O 0.91432 0.30743 0.77681 0.0
H129 H 0.85755 0.38104 0.76524 0.0
H130 H 0.85787 0.41169 0.83005 0.0
C131 C 0.86525 0.39039 0.82759 0.0
H132 H 0.8569 0.37918 0.88555 0.0
H133 H 0.86693 0.32689 0.70021 0.0
O134 O 0.99935 0.35465 0.8381 0.0
C135 C 0.93671 0.30219 0.73889 0.0
Co136 Co 0.34279 0.46013 0.11343 0.0
Co137 Co 0.32834 0.398 0.12779 0.0
C138 C 0.31059 0.43329 0.2711 0.0
O139 O 0.3198 0.4542 0.22881 0.0
O140 O 0.31593 0.40912 0.24508 0.0
C141 C 0.37814 0.51048 0.12736 0.0
O142 O 0.3915 0.5004 0.19567 0.0
C143 C 0.32081 0.338 0.14654 0.0
C144 C 0.31684 0.32726 0.00377 0.0
C145 C 0.31758 0.31613 0.08843 0.0
N146 N 0.32209 0.36093 0.09773 0.0
N147 N 0.31936 0.35434 0.01276 0.0
C148 C 0.32493 0.33715 0.24531 0.0
H149 H 0.33532 0.35592 0.26847 0.0
H150 H 0.33699 0.31894 0.26443 0.0
H151 H 0.3048 0.33593 0.27863 0.0
C152 C 0.3947 0.43383 0.04393 0.0
N153 N 0.37037 0.43302 0.08667 0.0
N154 N 0.36448 0.40741 0.10295 0.0
C155 C 0.38508 0.39136 0.07584 0.0
C156 C 0.40477 0.40731 0.03501 0.0
C157 C 0.40624 0.45893 0.0019 0.0
H158 H 0.38958 0.47223 0.97752 0.0
H159 H 0.41811 0.4703 0.05256 0.0
H160 H 0.41993 0.45377 0.94551 0.0
O161 O 0.31461 0.45912 0.02162 0.0
O162 O 0.3032 0.41642 0.0483 0.0
H163 H 0.3754 0.35076 0.03457 0.0
H164 H 0.40734 0.35377 0.09255 0.0
C165 C 0.38601 0.36119 0.0901 0.0
H166 H 0.37575 0.3559 0.15356 0.0
H167 H 0.31994 0.36836 0.96049 0.0
O168 O 0.35828 0.49733 0.0942 0.0
C169 C 0.29885 0.43903 0.01019 0.0
Co170 Co 0.45984 0.67595 0.88052 0.0
Co171 Co 0.3963 0.68627 0.87639 0.0
C172 C 0.4317 0.71067 0.73669 0.0
O173 O 0.4534 0.70045 0.77096 0.0
O174 O 0.40818 0.70445 0.76662 0.0
C175 C 0.51396 0.64668 0.86253 0.0
O176 O 0.50661 0.63492 0.78767 0.0
C177 C 0.33601 0.68937 0.84939 0.0
C178 C 0.32329 0.69523 0.98961 0.0
C179 C 0.31322 0.6926 0.90394 0.0
N180 N 0.35832 0.68969 0.90134 0.0
N181 N 0.35049 0.6934 0.98478 0.0
C182 C 0.33694 0.6871 0.74998 0.0
H183 H 0.3569 0.69413 0.72435 0.0
H184 H 0.3344 0.66544 0.73071 0.0
H185 H 0.32035 0.69921 0.71917 0.0
C186 C 0.43845 0.62029 0.93082 0.0
N187 N 0.43488 0.64576 0.89785 0.0
N188 N 0.40857 0.65017 0.88979 0.0
C189 C 0.39473 0.62767 0.91428 0.0
C190 C 0.41313 0.60798 0.94203 0.0
C191 C 0.46542 0.60855 0.95661 0.0
H192 H 0.47722 0.60421 0.89533 0.0
H193 H 0.46327 0.58921 -0.00592 0.0
H194 H 0.47687 0.62346 -0.00253 0.0
O195 O 0.45604 0.70173 0.97932 0.0
O196 O 0.41181 0.70873 0.96851 0.0
H197 H 0.35823 0.6387 0.98256 0.0
H198 H 0.35675 0.60562 0.93258 0.0
C199 C 0.36441 0.62662 0.92351 0.0
H200 H 0.35481 0.63553 0.86338 0.0
H201 H 0.36376 0.69442 0.03894 0.0
O202 O 0.49798 0.66348 0.90023 0.0
C203 C 0.43458 0.71387 0.00396 0.0
Co204 Co 0.6712 0.5579 0.11828 0.0
Co205 Co 0.69071 0.61851 0.08491 0.0
C206 C 0.71506 0.584 0.23192 0.0
O207 O 0.69971 0.56333 0.217 0.0
O208 O 0.71217 0.60604 0.18787 0.0
C209 C 0.66177 0.49959 0.10837 0.0
O210 O 0.6884 0.49772 0.1125 0.0
C211 C 0.6982 0.67795 0.10635 0.0
C212 C 0.70633 0.69004 0.96678 0.0
C213 C 0.70263 0.70042 0.0517 0.0
N214 N 0.69891 0.65544 0.05545 0.0
N215 N 0.7043 0.6628 0.97249 0.0
C216 C 0.69059 0.67786 0.20292 0.0
H217 H 0.68068 0.6583 0.22103 0.0
H218 H 0.6768 0.69516 0.21816 0.0
H219 H 0.70928 0.68015 0.2437 0.0
C220 C 0.61811 0.58585 0.084 0.0
N221 N 0.64487 0.587 0.10463 0.0
N222 N 0.65314 0.61231 0.09432 0.0
C223 C 0.63208 0.62792 0.06737 0.0
C224 C 0.60917 0.61165 0.0593 0.0
C225 C 0.60208 0.56007 0.07797 0.0
H226 H 0.60532 0.5477 0.13892 0.0
H227 H 0.58001 0.56428 0.07019 0.0
H228 H 0.60928 0.54826 0.01957 0.0
O229 O 0.69307 0.55451 0.00865 0.0
O230 O 0.70384 0.59779 0.98452 0.0
H231 H 0.64963 0.65654 0.97666 0.0
H232 H 0.61555 0.66508 0.00923 0.0
C233 C 0.63506 0.65642 0.033 0.0
H234 H 0.64304 0.66961 0.08678 0.0
H235 H 0.70553 0.64929 0.91895 0.0
O236 O 0.65058 0.52271 0.11896 0.0
C237 C 0.70427 0.57291 0.96201 0.0
Co238 Co 0.55693 0.34736 0.86226 0.0
Co239 Co 0.61873 0.32977 0.8744 0.0
C240 C 0.58316 0.30512 0.73588 0.0
O241 O 0.56223 0.31913 0.75978 0.0
O242 O 0.60631 0.30911 0.77169 0.0
C243 C 0.49842 0.35635 0.87113 0.0
O244 O 0.49703 0.32966 0.86632 0.0
C245 C 0.67825 0.32082 0.85281 0.0
C246 C 0.69055 0.3189 -0.00545 0.0
C247 C 0.7008 0.31849 0.90863 0.0
N248 N 0.65591 0.32318 0.904 0.0
N249 N 0.66341 0.32162 0.9885 0.0
C250 C 0.67759 0.32001 0.75305 0.0
H251 H 0.65788 0.31175 0.7295 0.0
H252 H 0.67969 0.34097 0.7264 0.0
H253 H 0.69451 0.30735 0.72675 0.0
C254 C 0.58468 0.39936 0.916 0.0
N255 N 0.58548 0.37421 0.8788 0.0
N256 N 0.6111 0.36703 0.86975 0.0
C257 C 0.62726 0.38762 0.89608 0.0
C258 C 0.61127 0.40859 0.92928 0.0
C259 C 0.55924 0.41188 0.95236 0.0
H260 H 0.54758 0.39627 0.98978 0.0
H261 H 0.5464 0.41895 0.89607 0.0
H262 H 0.5636 0.42932 -0.00295 0.0
O263 O 0.5552 0.32442 0.96932 0.0
O264 O 0.59916 0.31422 0.97452 0.0
H265 H 0.66574 0.37652 0.95253 0.0
H266 H 0.66621 0.40781 0.88998 0.0
C267 C 0.65769 0.38689 0.89245 0.0
H268 H 0.66441 0.37562 0.83245 0.0
H269 H 0.65007 0.32314 0.04221 0.0
O270 O 0.52146 0.36783 0.86277 0.0
C271 C 0.57526 0.31259 0.00595 0.0
Co272 Co 0.83932 0.55464 0.62554 0.0
Co273 Co 0.82253 0.61692 0.62817 0.0
C274 C 0.80783 0.58241 0.47351 0.0
O275 O 0.8179 0.56086 0.50942 0.0
O276 O 0.81136 0.6059 0.50807 0.0
C277 C 0.87128 0.50148 0.6021 0.0
O278 O 0.87804 0.50681 0.51917 0.0
C279 C 0.81936 0.67694 0.60434 0.0
C280 C 0.8036 0.68901 0.7367 0.0
C281 C 0.81268 0.69956 0.65637 0.0
N282 N 0.81506 0.65436 0.65308 0.0
N283 N 0.80529 0.66175 0.73154 0.0
C284 C 0.8287 0.67635 0.50935 0.0
H285 H 0.8233 0.65668 0.47784 0.0
H286 H 0.85116 0.67843 0.50708 0.0
H287 H 0.81941 0.69331 0.47098 0.0
C288 C 0.89158 0.58008 0.68886 0.0
N289 N 0.86599 0.58206 0.65602 0.0
N290 N 0.85873 0.60785 0.65709 0.0
C291 C 0.87928 0.623 0.69022 0.0
C292 C 0.90085 0.60596 0.71151 0.0
C293 C 0.90674 0.55386 0.69953 0.0
H294 H 0.90785 0.54344 0.6341 0.0
H295 H 0.92774 0.55714 0.72432 0.0
H296 H 0.8956 0.54048 0.74665 0.0
O297 O 0.80982 0.55411 0.71428 0.0
O298 O 0.79717 0.59729 0.70274 0.0
H299 H 0.85932 0.65617 0.75542 0.0
H300 H 0.89532 0.66073 0.74545 0.0
C301 C 0.87703 0.65274 0.7112 0.0
H302 H 0.87387 0.6643 0.64861 0.0
H303 H 0.80039 0.64816 0.78257 0.0
O304 O 0.8562 0.51802 0.64481 0.0
C305 C 0.79347 0.57336 0.73196 0.0
Co306 Co 0.55419 0.17821 0.34682 0.0
Co307 Co 0.61697 0.19196 0.35374 0.0
C308 C 0.58109 0.21062 0.49976 0.0
O309 O 0.55976 0.20097 0.46145 0.0
O310 O 0.6049 0.2056 0.46981 0.0
C311 C 0.50164 0.14611 0.3658 0.0
O312 O 0.50884 0.13646 0.44403 0.0
C313 C 0.677 0.19573 0.38125 0.0
C314 C 0.68971 0.20589 0.2437 0.0
C315 C 0.69981 0.20045 0.32799 0.0
N316 N 0.65469 0.19771 0.3297 0.0
N317 N 0.66249 0.2041 0.24799 0.0
C318 C 0.676 0.19042 0.47945 0.0
H319 H 0.65616 0.19696 0.50729 0.0
H320 H 0.67822 0.16824 0.49172 0.0
H321 H 0.69272 0.2013 0.5141 0.0
C322 C 0.57861 0.12429 0.2896 0.0
N323 N 0.58084 0.14985 0.32302 0.0
N324 N 0.60687 0.15571 0.33005 0.0
C325 C 0.62187 0.13412 0.30385 0.0
C326 C 0.60454 0.11345 0.27684 0.0
C327 C 0.55222 0.11081 0.26712 0.0
H328 H 0.53972 0.12463 0.22528 0.0
H329 H 0.54098 0.1066 0.32966 0.0
H330 H 0.55531 0.09124 0.23164 0.0
O331 O 0.55602 0.20654 0.25431 0.0
O332 O 0.59946 0.2168 0.27188 0.0
H333 H 0.65799 0.14911 0.24179 0.0
H334 H 0.66069 0.11435 0.277 0.0
C335 C 0.65222 0.13452 0.29486 0.0
H336 H 0.66139 0.14131 0.35851 0.0
H337 H 0.64919 0.20674 0.19447 0.0
O338 O 0.51701 0.163 0.32585 0.0
C339 C 0.5764 0.22149 0.23748 0.0
Co340 Co 0.1748 0.46106 0.62989 0.0
Co341 Co 0.18924 0.39833 0.64484 0.0
C342 C 0.21582 0.4338 0.50567 0.0
O343 O 0.2023 0.45526 0.52734 0.0
O344 O 0.21112 0.41093 0.54313 0.0
C345 C 0.14374 0.51508 0.60192 0.0
O346 O 0.1373 0.51024 0.51842 0.0
C347 C 0.1955 0.33836 0.62017 0.0
C348 C 0.19733 0.32566 0.76163 0.0
C349 C 0.19718 0.31565 0.67549 0.0
N350 N 0.19436 0.3607 0.67194 0.0
N351 N 0.19593 0.35291 0.75619 0.0
C352 C 0.19245 0.3389 0.521 0.0
H353 H 0.18333 0.3585 0.4992 0.0
H354 H 0.17967 0.32161 0.49827 0.0
H355 H 0.21283 0.33689 0.48985 0.0
C356 C 0.11981 0.43656 0.66793 0.0
N357 N 0.14607 0.43409 0.64165 0.0
N358 N 0.15227 0.408 0.64026 0.0
C359 C 0.13018 0.39319 0.66248 0.0
C360 C 0.10891 0.41075 0.68202 0.0
C361 C 0.10608 0.46311 0.68724 0.0
H362 H 0.10484 0.47512 0.62485 0.0
H363 H 0.08516 0.46017 0.71328 0.0
H364 H 0.11825 0.47474 0.73648 0.0
O365 O 0.19801 0.46007 0.73649 0.0
O366 O 0.20537 0.41573 0.74708 0.0
H367 H 0.14179 0.35916 0.74267 0.0
H368 H 0.11011 0.35438 0.68573 0.0
C369 C 0.13076 0.36314 0.67956 0.0
H370 H 0.14143 0.35274 0.62418 0.0
H371 H 0.19511 0.36618 0.81042 0.0
O372 O 0.15831 0.4981 0.6447 0.0
C373 C 0.20833 0.43974 0.77608 0.0
Co374 Co 0.46114 0.84242 0.36451 0.0
Co375 Co 0.39779 0.83234 0.36948 0.0
C376 C 0.43224 0.80691 0.50711 0.0
O377 O 0.45401 0.81704 0.47271 0.0
O378 O 0.40871 0.81358 0.4783 0.0
C379 C 0.51407 0.87364 0.38585 0.0
O380 O 0.50604 0.88479 0.461 0.0
C381 C 0.3376 0.8267 0.38806 0.0
C382 C 0.32635 0.82804 0.24519 0.0
C383 C 0.31551 0.82596 0.32998 0.0
N384 N 0.36037 0.82927 0.33913 0.0
N385 N 0.35346 0.82975 0.25397 0.0
C386 C 0.33723 0.82701 0.48774 0.0
H387 H 0.35602 0.83667 0.51385 0.0
H388 H 0.31904 0.83805 0.51268 0.0
H389 H 0.33643 0.80573 0.51261 0.0
C390 C 0.43913 0.89751 0.31074 0.0
N391 N 0.43603 0.87249 0.34748 0.0
N392 N 0.40989 0.8684 0.36071 0.0
C393 C 0.39583 0.89091 0.33792 0.0
C394 C 0.41375 0.91 0.30384 0.0
C395 C 0.46545 0.90831 0.27527 0.0
H396 H 0.47631 0.89208 0.23808 0.0
H397 H 0.47833 0.91482 0.33201 0.0
H398 H 0.4623 0.92618 0.23122 0.0
O399 O 0.45812 0.81737 0.26356 0.0
O400 O 0.41392 0.81073 0.2763 0.0
H401 H 0.35775 0.88468 0.27227 0.0
H402 H 0.35834 0.914 0.34329 0.0
C403 C 0.36541 0.89267 0.33667 0.0
H404 H 0.35676 0.88059 0.39221 0.0
H405 H 0.36731 0.83177 0.20163 0.0
O406 O 0.49905 0.85612 0.34745 0.0
C407 C 0.43644 0.80568 0.239 0.0
Co408 Co 0.84084 0.96086 0.60845 0.0
Co409 Co 0.83015 0.89741 0.6147 0.0
C410 C 0.80444 0.9332 0.7498 0.0
O411 O 0.81523 0.95477 0.71626 0.0
O412 O 0.81073 0.90952 0.72117 0.0
C413 C 0.87173 0.01408 0.62822 0.0
O414 O 0.882 1.00676 0.70546 0.0
C415 C 0.82339 0.8373 0.63946 0.0
C416 C 0.82788 0.82442 0.4988 0.0
C417 C 0.82385 0.81456 0.58411 0.0
N418 N 0.82724 0.85954 0.58861 0.0
N419 N 0.82954 0.85164 0.50469 0.0
C420 C 0.82114 0.83792 0.73883 0.0
H421 H 0.83067 0.85671 0.76563 0.0
H422 H 0.83089 0.81965 0.76853 0.0
H423 H 0.79931 0.83796 0.75771 0.0
C424 C 0.89604 0.93833 0.55982 0.0
N425 N 0.87074 0.93543 0.59438 0.0
N426 N 0.86637 0.90932 0.60774 0.0
C427 C 0.88899 0.89508 0.58731 0.0
C428 C 0.90842 0.91285 0.55441 0.0
C429 C 0.90733 0.96459 0.52535 0.0
H430 H 0.89171 0.97531 0.48512 0.0
H431 H 0.9129 0.97766 0.58269 0.0
H432 H 0.92586 0.96137 0.48448 0.0
O433 O 0.81599 0.95721 0.50728 0.0
O434 O 0.80916 0.91289 0.51831 0.0
H435 H 0.8839 0.85671 0.52215 0.0
H436 H 0.91185 0.85758 0.59853 0.0
C437 C 0.89071 0.86463 0.58766 0.0
H438 H 0.87774 0.85616 0.6413 0.0
H439 H 0.83278 0.86489 0.45134 0.0
O440 O 0.85479 0.99862 0.58901 0.0
C441 C 0.80439 0.93558 0.48141 0.0
Co442 Co 0.96061 0.17418 0.37387 0.0
Co443 Co 0.89727 0.18544 0.37195 0.0
C444 C 0.93245 0.21107 0.2349 0.0
O445 O 0.95411 0.20004 0.26693 0.0
O446 O 0.90894 0.20497 0.2651 0.0
C447 C 0.01399 0.14347 0.3502 0.0
O448 O 1.00644 0.13321 0.27321 0.0
C449 C 0.83722 0.19191 0.34892 0.0
C450 C 0.82479 0.19004 0.49066 0.0
C451 C 0.81466 0.19255 0.40506 0.0
N452 N 0.85959 0.18893 0.39964 0.0
N453 N 0.85196 0.18818 0.48415 0.0
C454 C 0.8376 0.19209 0.24925 0.0
H455 H 0.85646 0.18228 0.2241 0.0
H456 H 0.81945 0.18146 0.22232 0.0
H457 H 0.83723 0.21349 0.22551 0.0
C458 C 0.93803 0.11897 0.42262 0.0
N459 N 0.93507 0.1444 0.38883 0.0
N460 N 0.90891 0.14907 0.378 0.0
C461 C 0.89464 0.12662 0.39981 0.0
C462 C 0.91249 0.10688 0.4305 0.0
C463 C 0.96448 0.10731 0.45395 0.0
H464 H 0.97551 0.1226 0.49465 0.0
H465 H 0.97714 0.10223 0.3951 0.0
H466 H 0.96153 0.08844 0.49339 0.0
O467 O 0.95767 0.19884 0.476 0.0
O468 O 0.91337 0.20594 0.46798 0.0
H469 H 0.85722 0.13365 0.46865 0.0
H470 H 0.85661 0.10434 0.39769 0.0
C471 C 0.86422 0.12548 0.40367 0.0
H472 H 0.85538 0.13773 0.34885 0.0
H473 H 0.86536 0.18583 0.53757 0.0
O474 O 0.99846 0.16013 0.39064 0.0
C475 C 0.93624 0.21041 0.50377 0.0
Co476 Co 0.17402 0.05477 0.6114 0.0
Co477 Co 0.1866 0.11787 0.62125 0.0
C478 C 0.20604 0.08186 0.76513 0.0
O479 O 0.19667 0.06055 0.72586 0.0
O480 O 0.20066 0.10576 0.73653 0.0
C481 C 0.1424 1.00198 0.62999 0.0
O482 O 0.13233 0.00935 0.70746 0.0
C483 C 0.19164 0.17802 0.64806 0.0
C484 C 0.19904 0.1905 0.5084 0.0
C485 C 0.1959 0.20073 0.59377 0.0
N486 N 0.19179 0.15566 0.59622 0.0
N487 N 0.19646 0.16333 0.51314 0.0
C488 C 0.18857 0.17714 0.74727 0.0
H489 H 0.19481 0.15698 0.77343 0.0
H490 H 0.16687 0.18036 0.76483 0.0
H491 H 0.20096 0.19331 0.77919 0.0
C492 C 0.12039 0.07853 0.55105 0.0
N493 N 0.14543 0.08102 0.58791 0.0
N494 N 0.15064 0.10712 0.598 0.0
C495 C 0.129 0.1219 0.57122 0.0
C496 C 0.10915 0.10436 0.53959 0.0
C497 C 0.108 0.05208 0.52306 0.0
H498 H 0.12288 0.04025 0.48313 0.0
H499 H 0.1028 0.04014 0.58341 0.0
H500 H 0.08913 0.05512 0.48377 0.0
O501 O 0.20205 0.05728 0.5187 0.0
O502 O 0.21138 0.10089 0.53821 0.0
H503 H 0.14148 0.15887 0.50847 0.0
H504 H 0.10806 0.16065 0.55579 0.0
C505 C 0.12879 0.15235 0.5657 0.0
H506 H 0.13741 0.16104 0.62771 0.0
H507 H 0.1976 0.14995 0.45922 0.0
O508 O 0.15936 0.01735 0.59041 0.0
C509 C 0.21644 0.0781 0.50235 0.0
Co510 Co 0.05445 0.8408 0.3778 0.0
Co511 Co 0.11764 0.82889 0.37295 0.0
C512 C 0.08187 0.80555 0.23322 0.0
O513 O 0.06032 0.81606 0.26783 0.0
O514 O 0.10548 0.81131 0.26312 0.0
C515 C 1.00088 0.87138 0.35688 0.0
O516 O 1.00718 0.88028 0.27689 0.0
C517 C 0.17774 0.82445 0.34712 0.0
C518 C 0.19014 0.81857 0.48766 0.0
C519 C 0.20037 0.82104 0.40213 0.0
N520 N 0.15536 0.82444 0.39867 0.0
N521 N 0.16297 0.82067 0.4823 0.0
C522 C 0.17703 0.82676 0.24768 0.0
H523 H 0.15721 0.81955 0.2216 0.0
H524 H 0.17939 0.84846 0.22848 0.0
H525 H 0.19381 0.81482 0.21718 0.0
C526 C 0.07747 0.89571 0.42824 0.0
N527 N 0.08032 0.87022 0.39485 0.0
N528 N 0.10649 0.8652 0.38587 0.0
C529 C 0.12093 0.88732 0.40996 0.0
C530 C 0.10311 0.90737 0.43863 0.0
C531 C 0.05091 0.90799 0.45575 0.0
H532 H 0.03849 0.91184 0.39541 0.0
H533 H 0.05372 0.9276 0.49121 0.0
H534 H 0.03974 0.89356 0.49929 0.0
O535 O 0.05734 0.81485 0.47699 0.0
O536 O 0.10138 0.80693 0.46473 0.0
H537 H 0.15745 0.8758 0.47732 0.0
H538 H 0.1594 0.90864 0.42554 0.0
C539 C 0.1513 0.88774 0.41791 0.0
H540 H 0.16049 0.8784 0.3578 0.0
H541 H 0.14959 0.81996 0.53625 0.0
O542 O 0.01702 0.85542 0.39765 0.0
C543 C 0.07862 0.80225 0.50096 0.0
C544 C 0.27014 0.052 0.34306 0.0
C545 C 0.28772 0.07454 0.34068 0.0
H546 H 0.233 0.03558 0.3957 0.0
C547 C 0.28294 0.09678 0.39685 0.0
H548 H 0.27339 0.03471 0.29947 0.0
C549 C 0.2599 0.09754 0.44967 0.0
C550 C 0.24117 0.07594 0.44803 0.0
H551 H 0.29636 0.11429 0.39662 0.0
H552 H 0.25654 0.11546 0.49039 0.0
C553 C 0.24689 0.05269 0.39677 0.0
C554 C 0.10151 0.76661 0.58939 0.0
C555 C 0.0772 0.77949 0.56417 0.0
H556 H 0.12024 0.73421 0.65977 0.0
C557 C 0.0522 0.76873 0.59285 0.0
H558 H 0.12116 0.7742 0.5681 0.0
C559 C 0.05168 0.7454 0.64637 0.0
C560 C 0.07616 0.73272 0.6714 0.0
H561 H 0.03315 0.7781 0.57333 0.0
H562 H 0.03228 0.73767 0.66941 0.0
C563 C 0.10098 0.74345 0.64163 0.0
C564 C 0.76971 0.96139 0.39283 0.0
C565 C 0.78228 0.93665 0.41589 0.0
H566 H 0.73705 0.98066 0.32201 0.0
C567 C 0.77146 0.91209 0.38413 0.0
H568 H 0.77751 0.9806 0.41739 0.0
C569 C 0.74825 0.91207 0.33207 0.0
C570 C 0.73541 0.93666 0.30925 0.0
H571 H 0.78063 0.89266 0.40078 0.0
H572 H 0.74053 0.89262 0.30926 0.0
C573 C 0.74636 0.96139 0.33967 0.0
C574 C 0.91315 0.26504 0.65947 0.0
C575 C 0.9375 0.27885 0.67789 0.0
H576 H 0.89396 0.23202 0.59356 0.0
C577 C 0.96213 0.26878 0.64346 0.0
H578 H 0.8938 0.27202 0.68559 0.0
C579 C 0.96218 0.24547 0.58995 0.0
C580 C 0.93762 0.2321 0.57062 0.0
H581 H 0.98123 0.27886 0.65774 0.0
H582 H 0.98123 0.23844 0.56173 0.0
C583 C 0.91324 0.24189 0.60711 0.0
C584 C 0.25407 0.42127 0.96317 0.0
C585 C 0.27389 0.4418 0.95734 0.0
H586 H 0.21697 0.40529 0.91209 0.0
C587 C 0.26931 0.46439 0.90185 0.0
H588 H 0.25657 0.40395 0.00721 0.0
C589 C 0.24618 0.46524 0.84767 0.0
C590 C 0.22763 0.44351 0.84896 0.0
H591 H 0.28407 0.4807 0.89743 0.0
H592 H 0.24387 0.48181 0.80054 0.0
C593 C 0.23117 0.42216 0.90965 0.0
C594 C 0.41222 0.77311 0.14265 0.0
C595 C 0.43703 0.78349 0.17378 0.0
H596 H 0.39201 0.74262 0.06804 0.0
C597 C 0.46146 0.77052 0.14995 0.0
H598 H 0.393 0.78262 0.1598 0.0
C599 C 0.4609 0.74721 0.0965 0.0
C600 C 0.4359 0.73673 0.06667 0.0
H601 H 0.48084 0.77798 0.17404 0.0
H602 H 0.47993 0.73757 0.07813 0.0
C603 C 0.41164 0.74996 0.09041 0.0
C604 C 0.74308 0.54689 0.90038 0.0
C605 C 0.72196 0.56581 0.88779 0.0
H606 H 0.78325 0.53466 0.86021 0.0
C607 C 0.72262 0.58354 0.81488 0.0
H608 H 0.74293 0.53326 0.9572 0.0
C609 C 0.74552 0.58468 0.76134 0.0
C610 C 0.76809 0.56806 0.77986 0.0
H611 H 0.70644 0.59822 0.80424 0.0
H612 H 0.74613 0.59971 0.70842 0.0
C613 C 0.7662 0.54798 0.8461 0.0
C614 C 0.59361 0.26662 0.19198 0.0
C615 C 0.57336 0.24655 0.18505 0.0
H616 H 0.60919 0.30415 0.14267 0.0
C617 C 0.55076 0.25113 0.12969 0.0
H618 H 0.61087 0.26416 0.23618 0.0
C619 C 0.54972 0.27451 0.07639 0.0
C620 C 0.57122 0.29332 0.07878 0.0
H621 H 0.53466 0.23617 0.12456 0.0
H622 H 0.53326 0.27682 0.02892 0.0
C623 C 0.59249 0.28978 0.13958 0.0
C624 C 0.33056 0.2686 0.04963 0.0
C625 C 0.31725 0.28669 0.10768 0.0
H626 H 0.34211 0.22754 0.02286 0.0
C627 C 0.30329 0.27632 0.18172 0.0
H628 H 0.34163 0.27614 0.99224 0.0
C629 C 0.303 0.24833 0.19811 0.0
C630 C 0.31658 0.23019 0.14064 0.0
H631 H 0.29228 0.28972 0.22627 0.0
H632 H 0.29214 0.24087 0.25605 0.0
C633 C 0.33048 0.24065 0.06642 0.0
C634 C 0.24575 0.67533 0.79551 0.0
C635 C 0.22741 0.68999 0.84914 0.0
H636 H 0.28701 0.66383 0.77197 0.0
C637 C 0.23755 0.7061 0.91871 0.0
H638 H 0.23844 0.66262 0.74157 0.0
C639 C 0.26551 0.70728 0.93489 0.0
C640 C 0.2839 0.69249 0.88156 0.0
H641 H 0.22402 0.71822 0.95956 0.0
H642 H 0.27277 0.71989 0.98915 0.0
C643 C 0.27368 0.67635 0.81206 0.0
C644 C 0.71022 0.76777 0.17163 0.0
C645 C 0.69665 0.78572 0.11333 0.0
H646 H 0.72304 0.72681 0.19765 0.0
C647 C 0.68498 0.77518 0.03518 0.0
H648 H 0.71942 0.77518 0.23258 0.0
C649 C 0.68727 0.74749 0.0151 0.0
C650 C 0.70064 0.72964 0.07377 0.0
H651 H 0.67336 0.78794 0.99057 0.0
H652 H 0.67794 0.73989 0.95456 0.0
C653 C 0.71217 0.74002 0.15211 0.0
C654 C 0.76786 0.33504 0.79729 0.0
C655 C 0.78648 0.32166 0.85328 0.0
H656 H 0.72645 0.34537 0.77208 0.0
C657 C 0.77668 0.30654 0.92587 0.0
H658 H 0.77489 0.34701 0.74113 0.0
C659 C 0.74872 0.30508 0.94245 0.0
C660 C 0.7301 0.31853 0.88642 0.0
H661 H 0.79047 0.29545 0.96881 0.0
H662 H 0.74166 0.29334 -0.00092 0.0
C663 C 0.74 0.33373 0.81416 0.0
C664 C 0.83861 0.76658 0.56331 0.0
C665 C 0.82169 0.78542 0.60673 0.0
H666 H 0.85012 0.72506 0.54766 0.0
C667 C 0.80193 0.77597 0.66658 0.0
H668 H 0.85422 0.77343 0.51747 0.0
C669 C 0.79889 0.74802 0.68156 0.0
C670 C 0.8156 0.72904 0.63718 0.0
H671 H 0.78833 0.79006 0.69976 0.0
H672 H 0.78323 0.74126 0.7273 0.0
C673 C 0.83588 0.73873 0.57934 0.0
C674 C 0.77593 0.21189 0.31659 0.0
C675 C 0.78547 0.1942 0.38297 0.0
H676 H 0.74121 0.22811 0.24883 0.0
C677 C 0.7667 0.1788 0.43237 0.0
H678 H 0.78989 0.22443 0.27883 0.0
C679 C 0.73887 0.18082 0.41526 0.0
C680 C 0.72916 0.19882 0.34985 0.0
H681 H 0.7736 0.16482 0.48353 0.0
H682 H 0.72524 0.16769 0.45186 0.0
C683 C 0.74803 0.21416 0.30018 0.0
C684 C 0.18124 0.26848 0.70544 0.0
C685 C 0.19646 0.28648 0.65243 0.0
H686 H 0.16802 0.22768 0.72674 0.0
C687 C 0.21159 0.27614 0.5808 0.0
H688 H 0.16914 0.27603 0.76059 0.0
C689 C 0.21161 0.24821 0.56295 0.0
C690 C 0.19649 0.2301 0.61633 0.0
H691 H 0.22389 0.2895 0.53991 0.0
H692 H 0.22367 0.24075 0.50761 0.0
C693 C 0.18096 0.24064 0.68691 0.0
C694 C 0.27604 0.80813 0.41818 0.0
C695 C 0.28615 0.82466 0.34958 0.0
H696 H 0.24078 0.79369 0.48714 0.0
C697 C 0.26782 0.83936 0.29611 0.0
H698 H 0.28961 0.79601 0.45886 0.0
C699 C 0.23989 0.83797 0.31189 0.0
C700 C 0.22969 0.82141 0.38039 0.0
H701 H 0.27514 0.85239 0.24296 0.0
H702 H 0.22654 0.85055 0.27211 0.0
C703 C 0.24806 0.80658 0.43358 0.0
C704 C 0.26798 0.05652 0.89685 0.0
C705 C 0.27662 0.08078 0.93839 0.0
H706 H 0.23856 0.03743 0.81035 0.0
C707 C 0.26011 0.10409 0.9288 0.0
H708 H 0.27983 0.03804 0.90378 0.0
C709 C 0.23628 0.10351 0.87846 0.0
C710 C 0.228 0.07973 0.83398 0.0
H711 H 0.26547 0.12315 0.96057 0.0
H712 H 0.22474 0.12223 0.87218 0.0
C713 C 0.244 0.05604 0.8447 0.0
C714 C 0.05553 0.76947 0.1455 0.0
C715 C 0.08024 0.78234 0.16842 0.0
H716 H 0.03616 0.73612 0.07648 0.0
C717 C 0.10461 0.77029 0.13875 0.0
H718 H 0.03634 0.77783 0.16814 0.0
C719 C 0.10455 0.74615 0.08993 0.0
C720 C 0.08007 0.73311 0.06648 0.0
H721 H 0.12417 0.77918 0.15487 0.0
H722 H 0.12404 0.73798 0.06932 0.0
C723 C 0.05545 0.74524 0.09438 0.0
C724 C 0.74555 0.96019 0.8947 0.0
C725 C 0.73133 0.93588 0.91359 0.0
H726 H 0.78001 0.97872 0.82901 0.0
C727 C 0.74189 0.91138 0.87933 0.0
H728 H 0.73834 0.97943 0.92091 0.0
C729 C 0.76599 0.91085 0.83054 0.0
C730 C 0.78048 0.93489 0.81154 0.0
H731 H 0.73189 0.89212 0.89197 0.0
H732 H 0.77299 0.89125 0.80654 0.0
C733 C 0.76975 0.95972 0.84346 0.0
C734 C 0.95869 0.24593 0.14138 0.0
C735 C 0.93393 0.23498 0.1728 0.0
H736 H 0.97824 0.27755 0.06456 0.0
C737 C 0.90979 0.24922 0.153 0.0
H738 H 0.97776 0.23586 0.15638 0.0
C739 C 0.91017 0.27335 0.1041 0.0
C740 C 0.93464 0.28417 0.07067 0.0
H741 H 0.89024 0.242 0.17644 0.0
H742 H 0.89085 0.28317 0.09072 0.0
C743 C 0.95902 0.27014 0.09016 0.0
C744 C 0.2482 0.45903 0.39995 0.0
C745 C 0.24029 0.43522 0.44583 0.0
H746 H 0.27694 0.47751 0.30946 0.0
C747 C 0.25756 0.41234 0.44035 0.0
H748 H 0.23576 0.4772 0.40358 0.0
C749 C 0.28133 0.4128 0.38953 0.0
C750 C 0.28882 0.43602 0.34052 0.0
H751 H 0.25281 0.39368 0.47561 0.0
H752 H 0.29342 0.39436 0.38631 0.0
C753 C 0.27213 0.45937 0.34735 0.0
C754 C 0.45803 0.77065 0.59602 0.0
C755 C 0.43343 0.78328 0.57046 0.0
H756 H 0.47709 0.73761 0.66758 0.0
C757 C 0.40889 0.77084 0.59677 0.0
H758 H 0.47734 0.7793 0.57596 0.0
C759 C 0.40875 0.74671 0.64574 0.0
C760 C 0.43313 0.73407 0.67253 0.0
H761 H 0.38941 0.77948 0.57823 0.0
H762 H 0.38918 0.73827 0.66411 0.0
C763 C 0.45788 0.74643 0.64714 0.0
C764 C 0.74687 0.55805 0.33678 0.0
C765 C 0.73907 0.58231 0.29339 0.0
H766 H 0.77522 0.53863 0.42625 0.0
C767 C 0.75601 0.60528 0.30305 0.0
H768 H 0.73466 0.53983 0.32991 0.0
C769 C 0.77941 0.60439 0.3557 0.0
C770 C 0.78684 0.58057 0.40167 0.0
H771 H 0.75119 0.62433 0.27016 0.0
H772 H 0.79125 0.62287 0.36283 0.0
C773 C 0.77047 0.55721 0.39051 0.0
C774 C 0.55667 0.27288 0.63265 0.0
C775 C 0.58097 0.2808 0.67542 0.0
H776 H 0.53724 0.24414 0.54427 0.0
C777 C 0.60381 0.2636 0.66645 0.0
H778 H 0.53853 0.28524 0.63903 0.0
C779 C 0.60282 0.2399 0.61544 0.0
C780 C 0.57909 0.23237 0.56955 0.0
H781 H 0.62288 0.26831 0.69914 0.0
H782 H 0.62123 0.22787 0.60965 0.0
C783 C 0.55579 0.24899 0.57974 0.0
C784 C 0.38055 0.977 0.24527 0.0
C785 C 0.3839 0.97816 0.15201 0.0
H786 H 0.38818 0.95497 0.3662 0.0
C787 C 0.39907 0.95753 0.1099 0.0
H788 H 0.36933 0.99266 0.28045 0.0
C789 C 0.40984 0.93584 0.15973 0.0
C790 C 0.40592 0.9346 0.25252 0.0
H791 H 0.40218 0.95787 0.03841 0.0
H792 H 0.42054 0.91962 0.12549 0.0
C793 C 0.39152 0.95555 0.2948 0.0
C794 C 0.94275 0.63465 0.71733 0.0
C795 C 0.92679 0.61397 0.75501 0.0
H796 H 0.97789 0.65993 0.72925 0.0
C797 C 0.93491 0.60241 0.83654 0.0
H798 H 0.93696 0.64383 0.65442 0.0
C799 C 0.95851 0.61159 0.87989 0.0
C800 C 0.97431 0.63262 0.8427 0.0
H801 H 0.92274 0.58663 0.86746 0.0
H802 H 0.96429 0.60228 0.94257 0.0
C803 C 0.96612 0.64394 0.76069 0.0
C804 C 0.61517 0.058 0.10302 0.0
C805 C 0.63292 0.04012 0.14783 0.0
H806 H 0.59222 0.09531 0.10889 0.0
C807 C 0.63994 0.04599 0.23682 0.0
H808 H 0.6092 0.05406 0.03473 0.0
C809 C 0.62984 0.06924 0.27937 0.0
C810 C 0.61263 0.08736 0.23403 0.0
H811 H 0.65327 0.03257 0.27402 0.0
H812 H 0.63586 0.07336 0.34754 0.0
C813 C 0.60521 0.08146 0.14565 0.0
C814 C 0.07865 0.41186 0.81715 0.0
C815 C 0.08344 0.40323 0.72915 0.0
H816 H 0.05303 0.40892 0.93287 0.0
C817 C 0.06517 0.38504 0.68938 0.0
H818 H 0.09271 0.42564 0.84963 0.0
C819 C 0.04292 0.37502 0.73723 0.0
C820 C 0.03822 0.38318 0.82598 0.0
H821 H 0.06847 0.37808 0.62167 0.0
H822 H 0.02937 0.36086 0.70427 0.0
C823 C 0.05615 0.40204 0.86502 0.0
C824 C 0.38985 0.5628 0.94521 0.0
C825 C 0.40636 0.58205 0.98797 0.0
H826 H 0.36768 0.52553 0.9559 0.0
C827 C 0.41423 0.57739 0.07683 0.0
H828 H 0.3836 0.56588 0.87666 0.0
C829 C 0.40539 0.55403 0.1224 0.0
C830 C 0.38807 0.53521 0.08037 0.0
H831 H 0.42666 0.59216 0.11171 0.0
H832 H 0.41159 0.55102 0.191 0.0
C833 C 0.38062 0.5398 0.99097 0.0
C834 C 0.57721 0.60679 0.92981 0.0
C835 C 0.58383 0.61907 0.01159 0.0
H836 H 0.55015 0.60609 0.81749 0.0
C837 C 0.56755 0.64036 0.04358 0.0
H838 H 0.58976 0.59056 0.90324 0.0
C839 C 0.5452 0.6495 -0.00563 0.0
C840 C 0.53858 0.63752 0.9118 0.0
H841 H 0.57242 0.65025 0.10616 0.0
H842 H 0.53312 0.66603 0.02128 0.0
C843 C 0.55478 0.61593 0.88029 0.0
C844 C 0.65399 0.44952 0.09187 0.0
C845 C 0.64573 0.47628 0.0738 0.0
H846 H 0.64839 0.40717 0.06465 0.0
C847 C 0.62397 0.48053 0.0142 0.0
H848 H 0.67052 0.44558 0.13791 0.0
C849 C 0.61194 0.45852 0.96931 0.0
C850 C 0.62114 0.43185 0.9844 0.0
H851 H 0.61733 0.50095 -0.00187 0.0
H852 H 0.59631 0.46247 0.92006 0.0
C853 C 0.6415 0.42756 0.04896 0.0
C854 C 0.42542 0.3743 0.9266 0.0
C855 C 0.4285 0.3971 0.98255 0.0
H856 H 0.445 0.34349 0.84826 0.0
C857 C 0.45453 0.40848 0.9923 0.0
H858 H 0.40552 0.36559 0.91491 0.0
C859 C 0.4772 0.39624 0.95139 0.0
C860 C 0.47427 0.37217 0.90105 0.0
H861 H 0.45756 0.42607 0.03472 0.0
H862 H 0.49715 0.40479 0.9633 0.0
C863 C 0.44802 0.36176 0.88752 0.0
C864 C 0.8912 0.45392 0.79081 0.0
C865 C 0.90545 0.43335 0.74597 0.0
H866 H 0.86906 0.49123 0.78086 0.0
C867 C 0.9092 0.43552 0.65332 0.0
H868 H 0.88799 0.45262 0.86218 0.0
C869 C 0.89837 0.45772 0.60609 0.0
C870 C 0.88335 0.47797 0.65071 0.0
H871 H 0.91979 0.41962 0.61712 0.0
H872 H 0.9013 0.45873 0.5346 0.0
C873 C 0.88021 0.47591 0.74386 0.0
C874 C 0.47378 0.14123 0.22662 0.0
C875 C 0.4778 0.13479 0.31723 0.0
H876 H 0.44883 0.13633 0.11038 0.0
C877 C 0.45941 0.11689 0.35889 0.0
H878 H 0.48767 0.15464 0.19176 0.0
C879 C 0.43711 0.10639 0.31163 0.0
C880 C 0.43296 0.11339 0.22177 0.0
H881 H 0.46198 0.11135 0.42828 0.0
H882 H 0.42268 0.09343 0.34596 0.0
C883 C 0.45169 0.13058 0.17951 0.0
C884 C 0.13308 0.53897 0.74558 0.0
C885 C 0.13108 0.53805 0.65188 0.0
H886 H 0.12379 0.56072 0.8658 0.0
C887 C 0.11642 0.55875 0.60817 0.0
H888 H 0.14388 0.52327 0.78195 0.0
C889 C 0.1049 0.58031 0.65693 0.0
C890 C 0.10752 0.58133 0.75023 0.0
H891 H 0.11435 0.55862 0.53629 0.0
H892 H 0.09473 0.59663 0.62153 0.0
C893 C 0.12136 0.56027 0.794 0.0
C894 C 0.56221 0.89027 0.19574 0.0
C895 C 0.58221 0.90593 0.23803 0.0
H896 H 0.52554 0.86738 0.2092 0.0
C897 C 0.57957 0.91149 0.32961 0.0
H898 H 0.56377 0.88577 0.12519 0.0
C899 C 0.55744 0.90115 0.37825 0.0
C900 C 0.53785 0.88467 0.33633 0.0
H901 H 0.59499 0.92322 0.364 0.0
H902 H 0.55595 0.90561 0.44879 0.0
C903 C 0.54044 0.87958 0.24428 0.0
C904 C 0.88898 0.06192 0.43761 0.0
C905 C 0.90465 0.08191 0.47997 0.0
H906 H 0.86595 0.02531 0.45108 0.0
C907 C 0.91001 0.07936 0.57169 0.0
H908 H 0.8846 0.06345 0.36699 0.0
C909 C 0.89946 0.05734 0.62042 0.0
C910 C 0.88301 0.03773 0.57843 0.0
H911 H 0.92173 0.09479 0.60611 0.0
H912 H 0.90376 0.05594 0.69109 0.0
C913 C 0.87814 0.04021 0.4862 0.0
C914 C 0.08014 0.10593 0.40149 0.0
C915 C 0.08389 0.11232 0.49202 0.0
H916 H 0.05515 0.11086 0.285 0.0
C917 C 0.06448 0.1285 0.53536 0.0
H918 H 0.09505 0.09372 0.36638 0.0
C919 C 0.04209 0.13876 0.48882 0.0
C920 C 0.03836 0.13283 0.39773 0.0
H921 H 0.06693 0.13365 0.60515 0.0
H922 H 0.02763 0.15131 0.52467 0.0
C923 C 0.05748 0.11597 0.35481 0.0
C924 C 0.127 0.95215 0.44328 0.0
C925 C 0.11074 0.93273 0.48618 0.0
H926 H 0.15003 0.98883 0.45496 0.0
C927 C 0.1043 0.93637 0.57674 0.0
H928 H 0.13224 0.94975 0.37353 0.0
C929 C 0.11443 0.95887 0.62395 0.0
C930 C 0.13144 0.97794 0.58156 0.0
H931 H 0.09206 0.92142 0.61153 0.0
H932 H 0.10934 0.96106 0.69384 0.0
C933 C 0.13734 0.97439 0.49037 0.0
C934 C 0.95723 0.89851 0.3637 0.0
C935 C 0.97735 0.88289 0.40662 0.0
H936 H 0.91945 0.92028 0.37729 0.0
C937 C 0.97539 0.87898 0.49948 0.0
H938 H 0.95819 0.90205 0.29249 0.0
C939 C 0.9537 0.88994 0.54786 0.0
C940 C 0.93325 0.90481 0.50469 0.0
H941 H 0.99067 0.86742 0.53525 0.0
H942 H 0.95258 0.8863 0.61903 0.0
C943 C 0.93526 0.90921 0.41228 0.0
loop_
_geom_bond_atom_site_label_1
_geom_bond_atom_site_label_2
_geom_bond_distance
_geom_bond_site_symmetry_2
_ccdc_geom_bond_type
Co0 O3 1.970 . S
Co0 N17 1.989 . S
Co0 O25 1.967 . S
Co0 O32 1.920 . S
Co1 O4 1.966 . S
Co1 N10 2.022 . S
Co1 N18 1.993 . S
Co1 O26 1.941 . S
C2 O3 1.258 . S
C2 O4 1.263 . S
O3 Co0 1.970 . S
O3 C2 1.258 . S
O4 Co1 1.966 . S
O4 C2 1.263 . S
C5 O6 1.235 . S
C5 O32 1.289 . S
O6 C5 1.235 . S
C7 C9 1.400 . S
C7 N10 1.351 . S
C7 C12 1.501 1_554 S
C8 C9 1.387 . S
C8 N11 1.341 . S
C9 C7 1.400 . S
C9 C8 1.387 . S
N10 Co1 2.022 . S
N10 C7 1.351 . S
N10 N11 1.365 . S
N11 C8 1.341 . S
N11 N10 1.365 . S
N11 H31 0.862 . S
C12 C7 1.501 1_556 S
C12 H13 0.961 . S
C12 H14 0.961 . S
C12 H15 0.960 . S
H13 C12 0.961 . S
H14 C12 0.961 . S
H15 C12 0.960 . S
C16 N17 1.342 . S
C16 C20 1.401 . S
C16 C21 1.499 . S
N17 Co0 1.989 . S
N17 C16 1.342 . S
N17 N18 1.388 . S
N18 Co1 1.993 . S
N18 N17 1.388 . S
N18 C19 1.346 . S
C19 N18 1.346 . S
C19 C20 1.396 . S
C19 C29 1.510 . S
C20 C16 1.401 . S
C20 C19 1.396 . S
C21 C16 1.499 . S
C21 H22 0.959 . S
C21 H23 0.960 . S
C21 H24 0.961 . S
H22 C21 0.959 . S
H23 C21 0.960 . S
H24 C21 0.961 . S
O25 Co0 1.967 . S
O25 C33 1.258 . S
O26 Co1 1.941 . S
O26 C33 1.266 . S
H27 C29 0.959 . S
H28 C29 0.961 . S
C29 C19 1.510 . S
C29 H27 0.959 . S
C29 H28 0.961 . S
C29 H30 0.960 . S
H30 C29 0.960 . S
H31 N11 0.862 . S
O32 Co0 1.920 . S
O32 C5 1.289 . S
C33 O25 1.258 . S
C33 O26 1.266 . S
Co34 O37 1.970 . S
Co34 N51 1.989 . S
Co34 O59 1.967 . S
Co34 O66 1.920 . S
Co35 O38 1.966 . S
Co35 N44 2.022 . S
Co35 N52 1.993 . S
Co35 O60 1.941 . S
C36 O37 1.258 . S
C36 O38 1.263 . S
O37 Co34 1.970 . S
O37 C36 1.258 . S
O38 Co35 1.966 . S
O38 C36 1.263 . S
C39 O40 1.235 . S
C39 O66 1.289 . S
O40 C39 1.235 . S
C41 C43 1.400 . S
C41 N44 1.351 . S
C41 C46 1.501 1_556 S
C42 C43 1.387 . S
C42 N45 1.341 . S
C43 C41 1.400 . S
C43 C42 1.387 . S
N44 Co35 2.022 . S
N44 C41 1.351 . S
N44 N45 1.365 . S
N45 C42 1.341 . S
N45 N44 1.365 . S
N45 H65 0.862 . S
C46 C41 1.501 1_554 S
C46 H47 0.961 . S
C46 H48 0.961 . S
C46 H49 0.960 . S
H47 C46 0.961 . S
H48 C46 0.961 . S
H49 C46 0.960 . S
C50 N51 1.342 . S
C50 C54 1.401 . S
C50 C55 1.499 . S
N51 Co34 1.989 . S
N51 C50 1.342 . S
N51 N52 1.388 . S
N52 Co35 1.993 . S
N52 N51 1.388 . S
N52 C53 1.346 . S
C53 N52 1.346 . S
C53 C54 1.396 . S
C53 C63 1.510 . S
C54 C50 1.401 . S
C54 C53 1.396 . S
C55 C50 1.499 . S
C55 H56 0.959 . S
C55 H57 0.960 . S
C55 H58 0.961 . S
H56 C55 0.959 . S
H57 C55 0.960 . S
H58 C55 0.961 . S
O59 Co34 1.967 . S
O59 C67 1.258 . S
O60 Co35 1.941 . S
O60 C67 1.266 . S
H61 C63 0.959 . S
H62 C63 0.961 . S
C63 C53 1.510 . S
C63 H61 0.959 . S
C63 H62 0.961 . S
C63 H64 0.960 . S
H64 C63 0.960 . S
H65 N45 0.862 . S
O66 Co34 1.920 . S
O66 C39 1.289 . S
C67 O59 1.258 . S
C67 O60 1.266 . S
Co68 O71 1.970 . S
Co68 N85 1.989 . S
Co68 O93 1.967 . S
Co68 O100 1.920 . S
Co69 O72 1.966 . S
Co69 N78 2.022 . S
Co69 N86 1.993 . S
Co69 O94 1.941 . S
C70 O71 1.258 . S
C70 O72 1.263 . S
O71 Co68 1.970 . S
O71 C70 1.258 . S
O72 Co69 1.966 . S
O72 C70 1.263 . S
C73 O74 1.235 . S
C73 O100 1.289 . S
O74 C73 1.235 . S
C75 C77 1.400 . S
C75 N78 1.351 . S
C75 C80 1.501 1_554 S
C76 C77 1.387 . S
C76 N79 1.341 . S
C77 C75 1.400 . S
C77 C76 1.387 . S
N78 Co69 2.022 . S
N78 C75 1.351 . S
N78 N79 1.365 . S
N79 C76 1.341 . S
N79 N78 1.365 . S
N79 H99 0.862 . S
C80 C75 1.501 1_556 S
C80 H81 0.961 . S
C80 H82 0.961 . S
C80 H83 0.960 . S
H81 C80 0.961 . S
H82 C80 0.961 . S
H83 C80 0.960 . S
C84 N85 1.342 . S
C84 C88 1.401 . S
C84 C89 1.499 . S
N85 Co68 1.989 . S
N85 C84 1.342 . S
N85 N86 1.388 . S
N86 Co69 1.993 . S
N86 N85 1.388 . S
N86 C87 1.346 . S
C87 N86 1.346 . S
C87 C88 1.396 . S
C87 C97 1.510 . S
C88 C84 1.401 . S
C88 C87 1.396 . S
C89 C84 1.499 . S
C89 H90 0.959 . S
C89 H91 0.960 . S
C89 H92 0.961 . S
H90 C89 0.959 . S
H91 C89 0.960 . S
H92 C89 0.961 . S
O93 Co68 1.967 . S
O93 C101 1.258 . S
O94 Co69 1.941 . S
O94 C101 1.266 . S
H95 C97 0.959 . S
H96 C97 0.961 . S
C97 C87 1.510 . S
C97 H95 0.959 . S
C97 H96 0.961 . S
C97 H98 0.960 . S
H98 C97 0.960 . S
H99 N79 0.862 . S
O100 Co68 1.920 . S
O100 C73 1.289 . S
C101 O93 1.258 . S
C101 O94 1.266 . S
Co102 O105 1.970 . S
Co102 N119 1.989 . S
Co102 O127 1.967 . S
Co102 O134 1.920 . S
Co103 O106 1.966 . S
Co103 N112 2.022 . S
Co103 N120 1.993 . S
Co103 O128 1.941 . S
C104 O105 1.258 . S
C104 O106 1.263 . S
O105 Co102 1.970 . S
O105 C104 1.258 . S
O106 Co103 1.966 . S
O106 C104 1.263 . S
C107 O108 1.235 . S
C107 O134 1.289 . S
O108 C107 1.235 . S
C109 C111 1.400 . S
C109 N112 1.351 . S
C109 C114 1.501 1_556 S
C110 C111 1.387 . S
C110 N113 1.341 . S
C111 C109 1.400 . S
C111 C110 1.387 . S
N112 Co103 2.022 . S
N112 C109 1.351 . S
N112 N113 1.365 . S
N113 C110 1.341 . S
N113 N112 1.365 . S
N113 H133 0.862 . S
C114 C109 1.501 1_554 S
C114 H115 0.961 . S
C114 H116 0.961 . S
C114 H117 0.960 . S
H115 C114 0.961 . S
H116 C114 0.961 . S
H117 C114 0.960 . S
C118 N119 1.342 . S
C118 C122 1.401 . S
C118 C123 1.499 . S
N119 Co102 1.989 . S
N119 C118 1.342 . S
N119 N120 1.388 . S
N120 Co103 1.993 . S
N120 N119 1.388 . S
N120 C121 1.346 . S
C121 N120 1.346 . S
C121 C122 1.396 . S
C121 C131 1.510 . S
C122 C118 1.401 . S
C122 C121 1.396 . S
C123 C118 1.499 . S
C123 H124 0.959 . S
C123 H125 0.960 . S
C123 H126 0.961 . S
H124 C123 0.959 . S
H125 C123 0.960 . S
H126 C123 0.961 . S
O127 Co102 1.967 . S
O127 C135 1.258 . S
O128 Co103 1.941 . S
O128 C135 1.266 . S
H129 C131 0.959 . S
H130 C131 0.961 . S
C131 C121 1.510 . S
C131 H129 0.959 . S
C131 H130 0.961 . S
C131 H132 0.960 . S
H132 C131 0.960 . S
H133 N113 0.862 . S
O134 Co102 1.920 . S
O134 C107 1.289 . S
C135 O127 1.258 . S
C135 O128 1.266 . S
Co136 O139 1.970 . S
Co136 N153 1.989 . S
Co136 O161 1.967 . S
Co136 O168 1.920 . S
Co137 O140 1.966 . S
Co137 N146 2.022 . S
Co137 N154 1.993 . S
Co137 O162 1.941 1_554 S
C138 O139 1.258 . S
C138 O140 1.263 . S
O139 Co136 1.970 . S
O139 C138 1.258 . S
O140 Co137 1.966 . S
O140 C138 1.263 . S
C141 O142 1.235 . S
C141 O168 1.289 . S
O142 C141 1.235 . S
C143 C145 1.400 . S
C143 N146 1.351 . S
C143 C148 1.501 . S
C144 C145 1.387 . S
C144 N147 1.341 . S
C145 C143 1.400 . S
C145 C144 1.387 . S
N146 Co137 2.022 . S
N146 C143 1.351 . S
N146 N147 1.365 . S
N147 C144 1.341 . S
N147 N146 1.365 . S
N147 H167 0.862 1_554 S
C148 C143 1.501 . S
C148 H149 0.961 . S
C148 H150 0.961 . S
C148 H151 0.960 . S
H149 C148 0.961 . S
H150 C148 0.961 . S
H151 C148 0.960 . S
C152 N153 1.342 . S
C152 C156 1.401 . S
C152 C157 1.499 . S
N153 Co136 1.989 . S
N153 C152 1.342 . S
N153 N154 1.388 . S
N154 Co137 1.993 . S
N154 N153 1.388 . S
N154 C155 1.346 . S
C155 N154 1.346 . S
C155 C156 1.396 . S
C155 C165 1.510 . S
C156 C152 1.401 . S
C156 C155 1.396 . S
C157 C152 1.499 . S
C157 H158 0.959 . S
C157 H159 0.960 . S
C157 H160 0.961 1_554 S
H158 C157 0.959 . S
H159 C157 0.960 . S
H160 C157 0.961 1_556 S
O161 Co136 1.967 . S
O161 C169 1.258 1_554 S
O162 Co137 1.941 1_556 S
O162 C169 1.266 . S
H163 C165 0.959 . S
H164 C165 0.961 . S
C165 C155 1.510 . S
C165 H163 0.959 . S
C165 H164 0.961 . S
C165 H166 0.960 . S
H166 C165 0.960 . S
H167 N147 0.862 1_556 S
O168 Co136 1.920 . S
O168 C141 1.289 . S
C169 O161 1.258 1_556 S
C169 O162 1.266 . S
Co170 O173 1.970 . S
Co170 N187 1.989 . S
Co170 O195 1.967 . S
Co170 O202 1.920 . S
Co171 O174 1.966 . S
Co171 N180 2.022 . S
Co171 N188 1.993 . S
Co171 O196 1.941 1_556 S
C172 O173 1.258 . S
C172 O174 1.263 . S
O173 Co170 1.970 . S
O173 C172 1.258 . S
O174 Co171 1.966 . S
O174 C172 1.263 . S
C175 O176 1.235 . S
C175 O202 1.289 . S
O176 C175 1.235 . S
C177 C179 1.400 . S
C177 N180 1.351 . S
C177 C182 1.501 . S
C178 C179 1.387 . S
C178 N181 1.341 . S
C179 C177 1.400 . S
C179 C178 1.387 . S
N180 Co171 2.022 . S
N180 C177 1.351 . S
N180 N181 1.365 . S
N181 C178 1.341 . S
N181 N180 1.365 . S
N181 H201 0.862 1_556 S
C182 C177 1.501 . S
C182 H183 0.961 . S
C182 H184 0.961 . S
C182 H185 0.960 . S
H183 C182 0.961 . S
H184 C182 0.961 . S
H185 C182 0.960 . S
C186 N187 1.342 . S
C186 C190 1.401 . S
C186 C191 1.499 . S
N187 Co170 1.989 . S
N187 C186 1.342 . S
N187 N188 1.388 . S
N188 Co171 1.993 . S
N188 N187 1.388 . S
N188 C189 1.346 . S
C189 N188 1.346 . S
C189 C190 1.396 . S
C189 C199 1.510 . S
C190 C186 1.401 . S
C190 C189 1.396 . S
C191 C186 1.499 . S
C191 H192 0.959 . S
C191 H193 0.960 . S
C191 H194 0.961 1_556 S
H192 C191 0.959 . S
H193 C191 0.960 . S
H194 C191 0.961 1_554 S
O195 Co170 1.967 . S
O195 C203 1.258 1_556 S
O196 Co171 1.941 1_554 S
O196 C203 1.266 . S
H197 C199 0.959 . S
H198 C199 0.961 . S
C199 C189 1.510 . S
C199 H197 0.959 . S
C199 H198 0.961 . S
C199 H200 0.960 . S
H200 C199 0.960 . S
H201 N181 0.862 1_554 S
O202 Co170 1.920 . S
O202 C175 1.289 . S
C203 O195 1.258 1_554 S
C203 O196 1.266 . S
Co204 O207 1.970 . S
Co204 N221 1.989 . S
Co204 O229 1.967 . S
Co204 O236 1.920 . S
Co205 O208 1.966 . S
Co205 N214 2.022 . S
Co205 N222 1.993 . S
Co205 O230 1.941 1_554 S
C206 O207 1.258 . S
C206 O208 1.263 . S
O207 Co204 1.970 . S
O207 C206 1.258 . S
O208 Co205 1.966 . S
O208 C206 1.263 . S
C209 O210 1.235 . S
C209 O236 1.289 . S
O210 C209 1.235 . S
C211 C213 1.400 . S
C211 N214 1.351 . S
C211 C216 1.501 . S
C212 C213 1.387 . S
C212 N215 1.341 . S
C213 C211 1.400 . S
C213 C212 1.387 . S
N214 Co205 2.022 . S
N214 C211 1.351 . S
N214 N215 1.365 . S
N215 C212 1.341 . S
N215 N214 1.365 . S
N215 H235 0.862 1_554 S
C216 C211 1.501 . S
C216 H217 0.961 . S
C216 H218 0.961 . S
C216 H219 0.960 . S
H217 C216 0.961 . S
H218 C216 0.961 . S
H219 C216 0.960 . S
C220 N221 1.342 . S
C220 C224 1.401 . S
C220 C225 1.499 . S
N221 Co204 1.989 . S
N221 C220 1.342 . S
N221 N222 1.388 . S
N222 Co205 1.993 . S
N222 N221 1.388 . S
N222 C223 1.346 . S
C223 N222 1.346 . S
C223 C224 1.396 . S
C223 C233 1.510 . S
C224 C220 1.401 . S
C224 C223 1.396 . S
C225 C220 1.499 . S
C225 H226 0.959 . S
C225 H227 0.960 . S
C225 H228 0.961 1_554 S
H226 C225 0.959 . S
H227 C225 0.960 . S
H228 C225 0.961 1_556 S
O229 Co204 1.967 . S
O229 C237 1.258 1_554 S
O230 Co205 1.941 1_556 S
O230 C237 1.266 . S
H231 C233 0.959 . S
H232 C233 0.961 . S
C233 C223 1.510 . S
C233 H231 0.959 . S
C233 H232 0.961 . S
C233 H234 0.960 . S
H234 C233 0.960 . S
H235 N215 0.862 1_556 S
O236 Co204 1.920 . S
O236 C209 1.289 . S
C237 O229 1.258 1_556 S
C237 O230 1.266 . S
Co238 O241 1.970 . S
Co238 N255 1.989 . S
Co238 O263 1.967 . S
Co238 O270 1.920 . S
Co239 O242 1.966 . S
Co239 N248 2.022 . S
Co239 N256 1.993 . S
Co239 O264 1.941 1_556 S
C240 O241 1.258 . S
C240 O242 1.263 . S
O241 Co238 1.970 . S
O241 C240 1.258 . S
O242 Co239 1.966 . S
O242 C240 1.263 . S
C243 O244 1.235 . S
C243 O270 1.289 . S
O244 C243 1.235 . S
C245 C247 1.400 . S
C245 N248 1.351 . S
C245 C250 1.501 . S
C246 C247 1.387 . S
C246 N249 1.341 . S
C247 C245 1.400 . S
C247 C246 1.387 . S
N248 Co239 2.022 . S
N248 C245 1.351 . S
N248 N249 1.365 . S
N249 C246 1.341 . S
N249 N248 1.365 . S
N249 H269 0.862 1_556 S
C250 C245 1.501 . S
C250 H251 0.961 . S
C250 H252 0.961 . S
C250 H253 0.960 . S
H251 C250 0.961 . S
H252 C250 0.961 . S
H253 C250 0.960 . S
C254 N255 1.342 . S
C254 C258 1.401 . S
C254 C259 1.499 . S
N255 Co238 1.989 . S
N255 C254 1.342 . S
N255 N256 1.388 . S
N256 Co239 1.993 . S
N256 N255 1.388 . S
N256 C257 1.346 . S
C257 N256 1.346 . S
C257 C258 1.396 . S
C257 C267 1.510 . S
C258 C254 1.401 . S
C258 C257 1.396 . S
C259 C254 1.499 . S
C259 H260 0.959 . S
C259 H261 0.960 . S
C259 H262 0.961 1_556 S
H260 C259 0.959 . S
H261 C259 0.960 . S
H262 C259 0.961 1_554 S
O263 Co238 1.967 . S
O263 C271 1.258 1_556 S
O264 Co239 1.941 1_554 S
O264 C271 1.266 . S
H265 C267 0.959 . S
H266 C267 0.961 . S
C267 C257 1.510 . S
C267 H265 0.959 . S
C267 H266 0.961 . S
C267 H268 0.960 . S
H268 C267 0.960 . S
H269 N249 0.862 1_554 S
O270 Co238 1.920 . S
O270 C243 1.289 . S
C271 O263 1.258 1_554 S
C271 O264 1.266 . S
Co272 O275 1.970 . S
Co272 N289 1.989 . S
Co272 O297 1.967 . S
Co272 O304 1.920 . S
Co273 O276 1.966 . S
Co273 N282 2.022 . S
Co273 N290 1.993 . S
Co273 O298 1.941 . S
C274 O275 1.258 . S
C274 O276 1.263 . S
O275 Co272 1.970 . S
O275 C274 1.258 . S
O276 Co273 1.966 . S
O276 C274 1.263 . S
C277 O278 1.235 . S
C277 O304 1.289 . S
O278 C277 1.235 . S
C279 C281 1.400 . S
C279 N282 1.351 . S
C279 C284 1.501 . S
C280 C281 1.387 . S
C280 N283 1.341 . S
C281 C279 1.400 . S
C281 C280 1.387 . S
N282 Co273 2.022 . S
N282 C279 1.351 . S
N282 N283 1.365 . S
N283 C280 1.341 . S
N283 N282 1.365 . S
N283 H303 0.862 . S
C284 C279 1.501 . S
C284 H285 0.961 . S
C284 H286 0.961 . S
C284 H287 0.960 . S
H285 C284 0.961 . S
H286 C284 0.961 . S
H287 C284 0.960 . S
C288 N289 1.342 . S
C288 C292 1.401 . S
C288 C293 1.499 . S
N289 Co272 1.989 . S
N289 C288 1.342 . S
N289 N290 1.388 . S
N290 Co273 1.993 . S
N290 N289 1.388 . S
N290 C291 1.346 . S
C291 N290 1.346 . S
C291 C292 1.396 . S
C291 C301 1.510 . S
C292 C288 1.401 . S
C292 C291 1.396 . S
C293 C288 1.499 . S
C293 H294 0.959 . S
C293 H295 0.960 . S
C293 H296 0.961 . S
H294 C293 0.959 . S
H295 C293 0.960 . S
H296 C293 0.961 . S
O297 Co272 1.967 . S
O297 C305 1.258 . S
O298 Co273 1.941 . S
O298 C305 1.266 . S
H299 C301 0.959 . S
H300 C301 0.961 . S
C301 C291 1.510 . S
C301 H299 0.959 . S
C301 H300 0.961 . S
C301 H302 0.960 . S
H302 C301 0.960 . S
H303 N283 0.862 . S
O304 Co272 1.920 . S
O304 C277 1.289 . S
C305 O297 1.258 . S
C305 O298 1.266 . S
Co306 O309 1.970 . S
Co306 N323 1.989 . S
Co306 O331 1.967 . S
Co306 O338 1.920 . S
Co307 O310 1.966 . S
Co307 N316 2.022 . S
Co307 N324 1.993 . S
Co307 O332 1.941 . S
C308 O309 1.258 . S
C308 O310 1.263 . S
O309 Co306 1.970 . S
O309 C308 1.258 . S
O310 Co307 1.966 . S
O310 C308 1.263 . S
C311 O312 1.235 . S
C311 O338 1.289 . S
O312 C311 1.235 . S
C313 C315 1.400 . S
C313 N316 1.351 . S
C313 C318 1.501 . S
C314 C315 1.387 . S
C314 N317 1.341 . S
C315 C313 1.400 . S
C315 C314 1.387 . S
N316 Co307 2.022 . S
N316 C313 1.351 . S
N316 N317 1.365 . S
N317 C314 1.341 . S
N317 N316 1.365 . S
N317 H337 0.862 . S
C318 C313 1.501 . S
C318 H319 0.961 . S
C318 H320 0.961 . S
C318 H321 0.960 . S
H319 C318 0.961 . S
H320 C318 0.961 . S
H321 C318 0.960 . S
C322 N323 1.342 . S
C322 C326 1.401 . S
C322 C327 1.499 . S
N323 Co306 1.989 . S
N323 C322 1.342 . S
N323 N324 1.388 . S
N324 Co307 1.993 . S
N324 N323 1.388 . S
N324 C325 1.346 . S
C325 N324 1.346 . S
C325 C326 1.396 . S
C325 C335 1.510 . S
C326 C322 1.401 . S
C326 C325 1.396 . S
C327 C322 1.499 . S
C327 H328 0.959 . S
C327 H329 0.960 . S
C327 H330 0.961 . S
H328 C327 0.959 . S
H329 C327 0.960 . S
H330 C327 0.961 . S
O331 Co306 1.967 . S
O331 C339 1.258 . S
O332 Co307 1.941 . S
O332 C339 1.266 . S
H333 C335 0.959 . S
H334 C335 0.961 . S
C335 C325 1.510 . S
C335 H333 0.959 . S
C335 H334 0.961 . S
C335 H336 0.960 . S
H336 C335 0.960 . S
H337 N317 0.862 . S
O338 Co306 1.920 . S
O338 C311 1.289 . S
C339 O331 1.258 . S
C339 O332 1.266 . S
Co340 O343 1.970 . S
Co340 N357 1.989 . S
Co340 O365 1.967 . S
Co340 O372 1.920 . S
Co341 O344 1.966 . S
Co341 N350 2.022 . S
Co341 N358 1.993 . S
Co341 O366 1.941 . S
C342 O343 1.258 . S
C342 O344 1.263 . S
O343 Co340 1.970 . S
O343 C342 1.258 . S
O344 Co341 1.966 . S
O344 C342 1.263 . S
C345 O346 1.235 . S
C345 O372 1.289 . S
O346 C345 1.235 . S
C347 C349 1.400 . S
C347 N350 1.351 . S
C347 C352 1.501 . S
C348 C349 1.387 . S
C348 N351 1.341 . S
C349 C347 1.400 . S
C349 C348 1.387 . S
N350 Co341 2.022 . S
N350 C347 1.351 . S
N350 N351 1.365 . S
N351 C348 1.341 . S
N351 N350 1.365 . S
N351 H371 0.862 . S
C352 C347 1.501 . S
C352 H353 0.961 . S
C352 H354 0.961 . S
C352 H355 0.960 . S
H353 C352 0.961 . S
H354 C352 0.961 . S
H355 C352 0.960 . S
C356 N357 1.342 . S
C356 C360 1.401 . S
C356 C361 1.499 . S
N357 Co340 1.989 . S
N357 C356 1.342 . S
N357 N358 1.388 . S
N358 Co341 1.993 . S
N358 N357 1.388 . S
N358 C359 1.346 . S
C359 N358 1.346 . S
C359 C360 1.396 . S
C359 C369 1.510 . S
C360 C356 1.401 . S
C360 C359 1.396 . S
C361 C356 1.499 . S
C361 H362 0.959 . S
C361 H363 0.960 . S
C361 H364 0.961 . S
H362 C361 0.959 . S
H363 C361 0.960 . S
H364 C361 0.961 . S
O365 Co340 1.967 . S
O365 C373 1.258 . S
O366 Co341 1.941 . S
O366 C373 1.266 . S
H367 C369 0.959 . S
H368 C369 0.961 . S
C369 C359 1.510 . S
C369 H367 0.959 . S
C369 H368 0.961 . S
C369 H370 0.960 . S
H370 C369 0.960 . S
H371 N351 0.862 . S
O372 Co340 1.920 . S
O372 C345 1.289 . S
C373 O365 1.258 . S
C373 O366 1.266 . S
Co374 O377 1.970 . S
Co374 N391 1.989 . S
Co374 O399 1.967 . S
Co374 O406 1.920 . S
Co375 O378 1.966 . S
Co375 N384 2.022 . S
Co375 N392 1.993 . S
Co375 O400 1.941 . S
C376 O377 1.258 . S
C376 O378 1.263 . S
O377 Co374 1.970 . S
O377 C376 1.258 . S
O378 Co375 1.966 . S
O378 C376 1.263 . S
C379 O380 1.235 . S
C379 O406 1.289 . S
O380 C379 1.235 . S
C381 C383 1.400 . S
C381 N384 1.351 . S
C381 C386 1.501 . S
C382 C383 1.387 . S
C382 N385 1.341 . S
C383 C381 1.400 . S
C383 C382 1.387 . S
N384 Co375 2.022 . S
N384 C381 1.351 . S
N384 N385 1.365 . S
N385 C382 1.341 . S
N385 N384 1.365 . S
N385 H405 0.862 . S
C386 C381 1.501 . S
C386 H387 0.961 . S
C386 H388 0.961 . S
C386 H389 0.960 . S
H387 C386 0.961 . S
H388 C386 0.961 . S
H389 C386 0.960 . S
C390 N391 1.342 . S
C390 C394 1.401 . S
C390 C395 1.499 . S
N391 Co374 1.989 . S
N391 C390 1.342 . S
N391 N392 1.388 . S
N392 Co375 1.993 . S
N392 N391 1.388 . S
N392 C393 1.346 . S
C393 N392 1.346 . S
C393 C394 1.396 . S
C393 C403 1.510 . S
C394 C390 1.401 . S
C394 C393 1.396 . S
C395 C390 1.499 . S
C395 H396 0.959 . S
C395 H397 0.960 . S
C395 H398 0.961 . S
H396 C395 0.959 . S
H397 C395 0.960 . S
H398 C395 0.961 . S
O399 Co374 1.967 . S
O399 C407 1.258 . S
O400 Co375 1.941 . S
O400 C407 1.266 . S
H401 C403 0.959 . S
H402 C403 0.961 . S
C403 C393 1.510 . S
C403 H401 0.959 . S
C403 H402 0.961 . S
C403 H404 0.960 . S
H404 C403 0.960 . S
H405 N385 0.862 . S
O406 Co374 1.920 . S
O406 C379 1.289 . S
C407 O399 1.258 . S
C407 O400 1.266 . S
Co408 O411 1.970 . S
Co408 N425 1.989 . S
Co408 O433 1.967 . S
Co408 O440 1.920 . S
Co409 O412 1.966 . S
Co409 N418 2.022 . S
Co409 N426 1.993 . S
Co409 O434 1.941 . S
C410 O411 1.258 . S
C410 O412 1.263 . S
O411 Co408 1.970 . S
O411 C410 1.258 . S
O412 Co409 1.966 . S
O412 C410 1.263 . S
C413 O414 1.235 . S
C413 O440 1.289 . S
O414 C413 1.235 . S
C415 C417 1.400 . S
C415 N418 1.351 . S
C415 C420 1.501 . S
C416 C417 1.387 . S
C416 N419 1.341 . S
C417 C415 1.400 . S
C417 C416 1.387 . S
N418 Co409 2.022 . S
N418 C415 1.351 . S
N418 N419 1.365 . S
N419 C416 1.341 . S
N419 N418 1.365 . S
N419 H439 0.862 . S
C420 C415 1.501 . S
C420 H421 0.961 . S
C420 H422 0.961 . S
C420 H423 0.960 . S
H421 C420 0.961 . S
H422 C420 0.961 . S
H423 C420 0.960 . S
C424 N425 1.342 . S
C424 C428 1.401 . S
C424 C429 1.499 . S
N425 Co408 1.989 . S
N425 C424 1.342 . S
N425 N426 1.388 . S
N426 Co409 1.993 . S
N426 N425 1.388 . S
N426 C427 1.346 . S
C427 N426 1.346 . S
C427 C428 1.396 . S
C427 C437 1.510 . S
C428 C424 1.401 . S
C428 C427 1.396 . S
C429 C424 1.499 . S
C429 H430 0.959 . S
C429 H431 0.960 . S
C429 H432 0.961 . S
H430 C429 0.959 . S
H431 C429 0.960 . S
H432 C429 0.961 . S
O433 Co408 1.967 . S
O433 C441 1.258 . S
O434 Co409 1.941 . S
O434 C441 1.266 . S
H435 C437 0.959 . S
H436 C437 0.961 . S
C437 C427 1.510 . S
C437 H435 0.959 . S
C437 H436 0.961 . S
C437 H438 0.960 . S
H438 C437 0.960 . S
H439 N419 0.862 . S
O440 Co408 1.920 . S
O440 C413 1.289 . S
C441 O433 1.258 . S
C441 O434 1.266 . S
Co442 O445 1.970 . S
Co442 N459 1.989 . S
Co442 O467 1.967 . S
Co442 O474 1.920 . S
Co443 O446 1.966 . S
Co443 N452 2.022 . S
Co443 N460 1.993 . S
Co443 O468 1.941 . S
C444 O445 1.258 . S
C444 O446 1.263 . S
O445 Co442 1.970 . S
O445 C444 1.258 . S
O446 Co443 1.966 . S
O446 C444 1.263 . S
C447 O448 1.235 . S
C447 O474 1.289 . S
O448 C447 1.235 . S
C449 C451 1.400 . S
C449 N452 1.351 . S
C449 C454 1.501 . S
C450 C451 1.387 . S
C450 N453 1.341 . S
C451 C449 1.400 . S
C451 C450 1.387 . S
N452 Co443 2.022 . S
N452 C449 1.351 . S
N452 N453 1.365 . S
N453 C450 1.341 . S
N453 N452 1.365 . S
N453 H473 0.862 . S
C454 C449 1.501 . S
C454 H455 0.961 . S
C454 H456 0.961 . S
C454 H457 0.960 . S
H455 C454 0.961 . S
H456 C454 0.961 . S
H457 C454 0.960 . S
C458 N459 1.342 . S
C458 C462 1.401 . S
C458 C463 1.499 . S
N459 Co442 1.989 . S
N459 C458 1.342 . S
N459 N460 1.388 . S
N460 Co443 1.993 . S
N460 N459 1.388 . S
N460 C461 1.346 . S
C461 N460 1.346 . S
C461 C462 1.396 . S
C461 C471 1.510 . S
C462 C458 1.401 . S
C462 C461 1.396 . S
C463 C458 1.499 . S
C463 H464 0.959 . S
C463 H465 0.960 . S
C463 H466 0.961 . S
H464 C463 0.959 . S
H465 C463 0.960 . S
H466 C463 0.961 . S
O467 Co442 1.967 . S
O467 C475 1.258 . S
O468 Co443 1.941 . S
O468 C475 1.266 . S
H469 C471 0.959 . S
H470 C471 0.961 . S
C471 C461 1.510 . S
C471 H469 0.959 . S
C471 H470 0.961 . S
C471 H472 0.960 . S
H472 C471 0.960 . S
H473 N453 0.862 . S
O474 Co442 1.920 . S
O474 C447 1.289 . S
C475 O467 1.258 . S
C475 O468 1.266 . S
Co476 O479 1.970 . S
Co476 N493 1.989 . S
Co476 O501 1.967 . S
Co476 O508 1.920 . S
Co477 O480 1.966 . S
Co477 N486 2.022 . S
Co477 N494 1.993 . S
Co477 O502 1.941 . S
C478 O479 1.258 . S
C478 O480 1.263 . S
O479 Co476 1.970 . S
O479 C478 1.258 . S
O480 Co477 1.966 . S
O480 C478 1.263 . S
C481 O482 1.235 . S
C481 O508 1.289 . S
O482 C481 1.235 . S
C483 C485 1.400 . S
C483 N486 1.351 . S
C483 C488 1.501 . S
C484 C485 1.387 . S
C484 N487 1.341 . S
C485 C483 1.400 . S
C485 C484 1.387 . S
N486 Co477 2.022 . S
N486 C483 1.351 . S
N486 N487 1.365 . S
N487 C484 1.341 . S
N487 N486 1.365 . S
N487 H507 0.862 . S
C488 C483 1.501 . S
C488 H489 0.961 . S
C488 H490 0.961 . S
C488 H491 0.960 . S
H489 C488 0.961 . S
H490 C488 0.961 . S
H491 C488 0.960 . S
C492 N493 1.342 . S
C492 C496 1.401 . S
C492 C497 1.499 . S
N493 Co476 1.989 . S
N493 C492 1.342 . S
N493 N494 1.388 . S
N494 Co477 1.993 . S
N494 N493 1.388 . S
N494 C495 1.346 . S
C495 N494 1.346 . S
C495 C496 1.396 . S
C495 C505 1.510 . S
C496 C492 1.401 . S
C496 C495 1.396 . S
C497 C492 1.499 . S
C497 H498 0.959 . S
C497 H499 0.960 . S
C497 H500 0.961 . S
H498 C497 0.959 . S
H499 C497 0.960 . S
H500 C497 0.961 . S
O501 Co476 1.967 . S
O501 C509 1.258 . S
O502 Co477 1.941 . S
O502 C509 1.266 . S
H503 C505 0.959 . S
H504 C505 0.961 . S
C505 C495 1.510 . S
C505 H503 0.959 . S
C505 H504 0.961 . S
C505 H506 0.960 . S
H506 C505 0.960 . S
H507 N487 0.862 . S
O508 Co476 1.920 . S
O508 C481 1.289 . S
C509 O501 1.258 . S
C509 O502 1.266 . S
Co510 O513 1.970 . S
Co510 N527 1.989 . S
Co510 O535 1.967 . S
Co510 O542 1.920 . S
Co511 O514 1.966 . S
Co511 N520 2.022 . S
Co511 N528 1.993 . S
Co511 O536 1.941 . S
C512 O513 1.258 . S
C512 O514 1.263 . S
O513 Co510 1.970 . S
O513 C512 1.258 . S
O514 Co511 1.966 . S
O514 C512 1.263 . S
C515 O516 1.235 . S
C515 O542 1.289 . S
O516 C515 1.235 . S
C517 C519 1.400 . S
C517 N520 1.351 . S
C517 C522 1.501 . S
C518 C519 1.387 . S
C518 N521 1.341 . S
C519 C517 1.400 . S
C519 C518 1.387 . S
N520 Co511 2.022 . S
N520 C517 1.351 . S
N520 N521 1.365 . S
N521 C518 1.341 . S
N521 N520 1.365 . S
N521 H541 0.862 . S
C522 C517 1.501 . S
C522 H523 0.961 . S
C522 H524 0.961 . S
C522 H525 0.960 . S
H523 C522 0.961 . S
H524 C522 0.961 . S
H525 C522 0.960 . S
C526 N527 1.342 . S
C526 C530 1.401 . S
C526 C531 1.499 . S
N527 Co510 1.989 . S
N527 C526 1.342 . S
N527 N528 1.388 . S
N528 Co511 1.993 . S
N528 N527 1.388 . S
N528 C529 1.346 . S
C529 N528 1.346 . S
C529 C530 1.396 . S
C529 C539 1.510 . S
C530 C526 1.401 . S
C530 C529 1.396 . S
C531 C526 1.499 . S
C531 H532 0.959 . S
C531 H533 0.960 . S
C531 H534 0.961 . S
H532 C531 0.959 . S
H533 C531 0.960 . S
H534 C531 0.961 . S
O535 Co510 1.967 . S
O535 C543 1.258 . S
O536 Co511 1.941 . S
O536 C543 1.266 . S
H537 C539 0.959 . S
H538 C539 0.961 . S
C539 C529 1.510 . S
C539 H537 0.959 . S
C539 H538 0.961 . S
C539 H540 0.960 . S
H540 C539 0.960 . S
H541 N521 0.862 . S
O542 Co510 1.920 . S
O542 C515 1.289 . S
C543 O535 1.258 . S
C543 O536 1.266 . S
C544 C545 1.387 . S
C544 H548 0.950 . S
C544 C553 1.390 . S
C545 C544 1.387 . S
C545 C547 1.387 . S
H546 C553 0.950 . S
C547 C545 1.387 . S
C547 C549 1.390 . S
C547 H551 0.950 . S
H548 C544 0.950 . S
C549 C547 1.390 . S
C549 C550 1.387 . S
C549 H552 0.950 . S
C550 C549 1.387 . S
C550 C553 1.387 . S
H551 C547 0.950 . S
H552 C549 0.950 . S
C553 C544 1.390 . S
C553 H546 0.950 . S
C553 C550 1.387 . S
C554 C555 1.387 . S
C554 H558 0.950 . S
C554 C563 1.390 . S
C555 C554 1.387 . S
C555 C557 1.387 . S
H556 C563 0.950 . S
C557 C555 1.387 . S
C557 C559 1.390 . S
C557 H561 0.950 . S
H558 C554 0.950 . S
C559 C557 1.390 . S
C559 C560 1.387 . S
C559 H562 0.950 . S
C560 C559 1.387 . S
C560 C563 1.387 . S
H561 C557 0.950 . S
H562 C559 0.950 . S
C563 C554 1.390 . S
C563 H556 0.950 . S
C563 C560 1.387 . S
C564 C565 1.387 . S
C564 H568 0.950 . S
C564 C573 1.390 . S
C565 C564 1.387 . S
C565 C567 1.387 . S
H566 C573 0.950 . S
C567 C565 1.387 . S
C567 C569 1.390 . S
C567 H571 0.950 . S
H568 C564 0.950 . S
C569 C567 1.390 . S
C569 C570 1.387 . S
C569 H572 0.950 . S
C570 C569 1.387 . S
C570 C573 1.387 . S
H571 C567 0.950 . S
H572 C569 0.950 . S
C573 C564 1.390 . S
C573 H566 0.950 . S
C573 C570 1.387 . S
C574 C575 1.387 . S
C574 H578 0.950 . S
C574 C583 1.390 . S
C575 C574 1.387 . S
C575 C577 1.387 . S
H576 C583 0.950 . S
C577 C575 1.387 . S
C577 C579 1.390 . S
C577 H581 0.950 . S
H578 C574 0.950 . S
C579 C577 1.390 . S
C579 C580 1.387 . S
C579 H582 0.950 . S
C580 C579 1.387 . S
C580 C583 1.387 . S
H581 C577 0.950 . S
H582 C579 0.950 . S
C583 C574 1.390 . S
C583 H576 0.950 . S
C583 C580 1.387 . S
C584 C585 1.387 . S
C584 H588 0.950 . S
C584 C593 1.390 . S
C585 C584 1.387 . S
C585 C587 1.387 . S
H586 C593 0.950 . S
C587 C585 1.387 . S
C587 C589 1.390 . S
C587 H591 0.950 . S
H588 C584 0.950 . S
C589 C587 1.390 . S
C589 C590 1.387 . S
C589 H592 0.950 . S
C590 C589 1.387 . S
C590 C593 1.387 . S
H591 C587 0.950 . S
H592 C589 0.950 . S
C593 C584 1.390 . S
C593 H586 0.950 . S
C593 C590 1.387 . S
C594 C595 1.387 . S
C594 H598 0.950 . S
C594 C603 1.390 . S
C595 C594 1.387 . S
C595 C597 1.387 . S
H596 C603 0.950 . S
C597 C595 1.387 . S
C597 C599 1.390 . S
C597 H601 0.950 . S
H598 C594 0.950 . S
C599 C597 1.390 . S
C599 C600 1.387 . S
C599 H602 0.950 . S
C600 C599 1.387 . S
C600 C603 1.387 . S
H601 C597 0.950 . S
H602 C599 0.950 . S
C603 C594 1.390 . S
C603 H596 0.950 . S
C603 C600 1.387 . S
C604 C605 1.387 . S
C604 H608 0.950 . S
C604 C613 1.390 . S
C605 C604 1.387 . S
C605 C607 1.387 . S
H606 C613 0.950 . S
C607 C605 1.387 . S
C607 C609 1.390 . S
C607 H611 0.950 . S
H608 C604 0.950 . S
C609 C607 1.390 . S
C609 C610 1.387 . S
C609 H612 0.950 . S
C610 C609 1.387 . S
C610 C613 1.387 . S
H611 C607 0.950 . S
H612 C609 0.950 . S
C613 C604 1.390 . S
C613 H606 0.950 . S
C613 C610 1.387 . S
C614 C615 1.387 . S
C614 H618 0.950 . S
C614 C623 1.390 . S
C615 C614 1.387 . S
C615 C617 1.387 . S
H616 C623 0.950 . S
C617 C615 1.387 . S
C617 C619 1.390 . S
C617 H621 0.950 . S
H618 C614 0.950 . S
C619 C617 1.390 . S
C619 C620 1.387 . S
C619 H622 0.950 . S
C620 C619 1.387 . S
C620 C623 1.387 . S
H621 C617 0.950 . S
H622 C619 0.950 . S
C623 C614 1.390 . S
C623 H616 0.950 . S
C623 C620 1.387 . S
C624 C625 1.387 . S
C624 H628 0.950 . S
C624 C633 1.390 . S
C625 C624 1.387 . S
C625 C627 1.387 . S
H626 C633 0.950 . S
C627 C625 1.387 . S
C627 C629 1.390 . S
C627 H631 0.950 . S
H628 C624 0.950 . S
C629 C627 1.390 . S
C629 C630 1.387 . S
C629 H632 0.950 . S
C630 C629 1.387 . S
C630 C633 1.387 . S
H631 C627 0.950 . S
H632 C629 0.950 . S
C633 C624 1.390 . S
C633 H626 0.950 . S
C633 C630 1.387 . S
C634 C635 1.387 . S
C634 H638 0.950 . S
C634 C643 1.390 . S
C635 C634 1.387 . S
C635 C637 1.387 . S
H636 C643 0.950 . S
C637 C635 1.387 . S
C637 C639 1.390 . S
C637 H641 0.950 . S
H638 C634 0.950 . S
C639 C637 1.390 . S
C639 C640 1.387 . S
C639 H642 0.950 . S
C640 C639 1.387 . S
C640 C643 1.387 . S
H641 C637 0.950 . S
H642 C639 0.950 . S
C643 C634 1.390 . S
C643 H636 0.950 . S
C643 C640 1.387 . S
C644 C645 1.387 . S
C644 H648 0.950 . S
C644 C653 1.390 . S
C645 C644 1.387 . S
C645 C647 1.387 . S
H646 C653 0.950 . S
C647 C645 1.387 . S
C647 C649 1.390 . S
C647 H651 0.950 . S
H648 C644 0.950 . S
C649 C647 1.390 . S
C649 C650 1.387 . S
C649 H652 0.950 . S
C650 C649 1.387 . S
C650 C653 1.387 . S
H651 C647 0.950 . S
H652 C649 0.950 . S
C653 C644 1.390 . S
C653 H646 0.950 . S
C653 C650 1.387 . S
C654 C655 1.387 . S
C654 H658 0.950 . S
C654 C663 1.390 . S
C655 C654 1.387 . S
C655 C657 1.387 . S
H656 C663 0.950 . S
C657 C655 1.387 . S
C657 C659 1.390 . S
C657 H661 0.950 . S
H658 C654 0.950 . S
C659 C657 1.390 . S
C659 C660 1.387 . S
C659 H662 0.950 . S
C660 C659 1.387 . S
C660 C663 1.387 . S
H661 C657 0.950 . S
H662 C659 0.950 . S
C663 C654 1.390 . S
C663 H656 0.950 . S
C663 C660 1.387 . S
C664 C665 1.387 . S
C664 H668 0.950 . S
C664 C673 1.390 . S
C665 C664 1.387 . S
C665 C667 1.387 . S
H666 C673 0.950 . S
C667 C665 1.387 . S
C667 C669 1.390 . S
C667 H671 0.950 . S
H668 C664 0.950 . S
C669 C667 1.390 . S
C669 C670 1.387 . S
C669 H672 0.950 . S
C670 C669 1.387 . S
C670 C673 1.387 . S
H671 C667 0.950 . S
H672 C669 0.950 . S
C673 C664 1.390 . S
C673 H666 0.950 . S
C673 C670 1.387 . S
C674 C675 1.387 . S
C674 H678 0.950 . S
C674 C683 1.390 . S
C675 C674 1.387 . S
C675 C677 1.387 . S
H676 C683 0.950 . S
C677 C675 1.387 . S
C677 C679 1.390 . S
C677 H681 0.950 . S
H678 C674 0.950 . S
C679 C677 1.390 . S
C679 C680 1.387 . S
C679 H682 0.950 . S
C680 C679 1.387 . S
C680 C683 1.387 . S
H681 C677 0.950 . S
H682 C679 0.950 . S
C683 C674 1.390 . S
C683 H676 0.950 . S
C683 C680 1.387 . S
C684 C685 1.387 . S
C684 H688 0.950 . S
C684 C693 1.390 . S
C685 C684 1.387 . S
C685 C687 1.387 . S
H686 C693 0.950 . S
C687 C685 1.387 . S
C687 C689 1.390 . S
C687 H691 0.950 . S
H688 C684 0.950 . S
C689 C687 1.390 . S
C689 C690 1.387 . S
C689 H692 0.950 . S
C690 C689 1.387 . S
C690 C693 1.387 . S
H691 C687 0.950 . S
H692 C689 0.950 . S
C693 C684 1.390 . S
C693 H686 0.950 . S
C693 C690 1.387 . S
C694 C695 1.387 . S
C694 H698 0.950 . S
C694 C703 1.390 . S
C695 C694 1.387 . S
C695 C697 1.387 . S
H696 C703 0.950 . S
C697 C695 1.387 . S
C697 C699 1.390 . S
C697 H701 0.950 . S
H698 C694 0.950 . S
C699 C697 1.390 . S
C699 C700 1.387 . S
C699 H702 0.950 . S
C700 C699 1.387 . S
C700 C703 1.387 . S
H701 C697 0.950 . S
H702 C699 0.950 . S
C703 C694 1.390 . S
C703 H696 0.950 . S
C703 C700 1.387 . S
C704 C705 1.387 . S
C704 H708 0.950 . S
C704 C713 1.390 . S
C705 C704 1.387 . S
C705 C707 1.387 . S
H706 C713 0.950 . S
C707 C705 1.387 . S
C707 C709 1.390 . S
C707 H711 0.950 . S
H708 C704 0.950 . S
C709 C707 1.390 . S
C709 C710 1.387 . S
C709 H712 0.950 . S
C710 C709 1.387 . S
C710 C713 1.387 . S
H711 C707 0.950 . S
H712 C709 0.950 . S
C713 C704 1.390 . S
C713 H706 0.950 . S
C713 C710 1.387 . S
C714 C715 1.387 . S
C714 H718 0.950 . S
C714 C723 1.390 . S
C715 C714 1.387 . S
C715 C717 1.387 . S
H716 C723 0.950 . S
C717 C715 1.387 . S
C717 C719 1.390 . S
C717 H721 0.950 . S
H718 C714 0.950 . S
C719 C717 1.390 . S
C719 C720 1.387 . S
C719 H722 0.950 . S
C720 C719 1.387 . S
C720 C723 1.387 . S
H721 C717 0.950 . S
H722 C719 0.950 . S
C723 C714 1.390 . S
C723 H716 0.950 . S
C723 C720 1.387 . S
C724 C725 1.387 . S
C724 H728 0.950 . S
C724 C733 1.390 . S
C725 C724 1.387 . S
C725 C727 1.387 . S
H726 C733 0.950 . S
C727 C725 1.387 . S
C727 C729 1.390 . S
C727 H731 0.950 . S
H728 C724 0.950 . S
C729 C727 1.390 . S
C729 C730 1.387 . S
C729 H732 0.950 . S
C730 C729 1.387 . S
C730 C733 1.387 . S
H731 C727 0.950 . S
H732 C729 0.950 . S
C733 C724 1.390 . S
C733 H726 0.950 . S
C733 C730 1.387 . S
C734 C735 1.387 . S
C734 H738 0.950 . S
C734 C743 1.390 . S
C735 C734 1.387 . S
C735 C737 1.387 . S
H736 C743 0.950 . S
C737 C735 1.387 . S
C737 C739 1.390 . S
C737 H741 0.950 . S
H738 C734 0.950 . S
C739 C737 1.390 . S
C739 C740 1.387 . S
C739 H742 0.950 . S
C740 C739 1.387 . S
C740 C743 1.387 . S
H741 C737 0.950 . S
H742 C739 0.950 . S
C743 C734 1.390 . S
C743 H736 0.950 . S
C743 C740 1.387 . S
C744 C745 1.387 . S
C744 H748 0.950 . S
C744 C753 1.390 . S
C745 C744 1.387 . S
C745 C747 1.387 . S
H746 C753 0.950 . S
C747 C745 1.387 . S
C747 C749 1.390 . S
C747 H751 0.950 . S
H748 C744 0.950 . S
C749 C747 1.390 . S
C749 C750 1.387 . S
C749 H752 0.950 . S
C750 C749 1.387 . S
C750 C753 1.387 . S
H751 C747 0.950 . S
H752 C749 0.950 . S
C753 C744 1.390 . S
C753 H746 0.950 . S
C753 C750 1.387 . S
C754 C755 1.387 . S
C754 H758 0.950 . S
C754 C763 1.390 . S
C755 C754 1.387 . S
C755 C757 1.387 . S
H756 C763 0.950 . S
C757 C755 1.387 . S
C757 C759 1.390 . S
C757 H761 0.950 . S
H758 C754 0.950 . S
C759 C757 1.390 . S
C759 C760 1.387 . S
C759 H762 0.950 . S
C760 C759 1.387 . S
C760 C763 1.387 . S
H761 C757 0.950 . S
H762 C759 0.950 . S
C763 C754 1.390 . S
C763 H756 0.950 . S
C763 C760 1.387 . S
C764 C765 1.387 . S
C764 H768 0.950 . S
C764 C773 1.390 . S
C765 C764 1.387 . S
C765 C767 1.387 . S
H766 C773 0.950 . S
C767 C765 1.387 . S
C767 C769 1.390 . S
C767 H771 0.950 . S
H768 C764 0.950 . S
C769 C767 1.390 . S
C769 C770 1.387 . S
C769 H772 0.950 . S
C770 C769 1.387 . S
C770 C773 1.387 . S
H771 C767 0.950 . S
H772 C769 0.950 . S
C773 C764 1.390 . S
C773 H766 0.950 . S
C773 C770 1.387 . S
C774 C775 1.387 . S
C774 H778 0.950 . S
C774 C783 1.390 . S
C775 C774 1.387 . S
C775 C777 1.387 . S
H776 C783 0.950 . S
C777 C775 1.387 . S
C777 C779 1.390 . S
C777 H781 0.950 . S
H778 C774 0.950 . S
C779 C777 1.390 . S
C779 C780 1.387 . S
C779 H782 0.950 . S
C780 C779 1.387 . S
C780 C783 1.387 . S
H781 C777 0.950 . S
H782 C779 0.950 . S
C783 C774 1.390 . S
C783 H776 0.950 . S
C783 C780 1.387 . S
C784 C785 1.387 . S
C784 H788 0.950 . S
C784 C793 1.390 . S
C785 C784 1.387 . S
C785 C787 1.387 . S
H786 C793 0.950 . S
C787 C785 1.387 . S
C787 C789 1.390 . S
C787 H791 0.950 . S
H788 C784 0.950 . S
C789 C787 1.390 . S
C789 C790 1.387 . S
C789 H792 0.950 . S
C790 C789 1.387 . S
C790 C793 1.387 . S
H791 C787 0.950 . S
H792 C789 0.950 . S
C793 C784 1.390 . S
C793 H786 0.950 . S
C793 C790 1.387 . S
C794 C795 1.387 . S
C794 H798 0.950 . S
C794 C803 1.390 . S
C795 C794 1.387 . S
C795 C797 1.387 . S
H796 C803 0.950 . S
C797 C795 1.387 . S
C797 C799 1.390 . S
C797 H801 0.950 . S
H798 C794 0.950 . S
C799 C797 1.390 . S
C799 C800 1.387 . S
C799 H802 0.950 . S
C800 C799 1.387 . S
C800 C803 1.387 . S
H801 C797 0.950 . S
H802 C799 0.950 . S
C803 C794 1.390 . S
C803 H796 0.950 . S
C803 C800 1.387 . S
C804 C805 1.387 . S
C804 H808 0.950 . S
C804 C813 1.390 . S
C805 C804 1.387 . S
C805 C807 1.387 . S
H806 C813 0.950 . S
C807 C805 1.387 . S
C807 C809 1.390 . S
C807 H811 0.950 . S
H808 C804 0.950 . S
C809 C807 1.390 . S
C809 C810 1.387 . S
C809 H812 0.950 . S
C810 C809 1.387 . S
C810 C813 1.387 . S
H811 C807 0.950 . S
H812 C809 0.950 . S
C813 C804 1.390 . S
C813 H806 0.950 . S
C813 C810 1.387 . S
C814 C815 1.387 . S
C814 H818 0.950 . S
C814 C823 1.390 . S
C815 C814 1.387 . S
C815 C817 1.387 . S
H816 C823 0.950 . S
C817 C815 1.387 . S
C817 C819 1.390 . S
C817 H821 0.950 . S
H818 C814 0.950 . S
C819 C817 1.390 . S
C819 C820 1.387 . S
C819 H822 0.950 . S
C820 C819 1.387 . S
C820 C823 1.387 . S
H821 C817 0.950 . S
H822 C819 0.950 . S
C823 C814 1.390 . S
C823 H816 0.950 . S
C823 C820 1.387 . S
C824 C825 1.387 1_556 S
C824 H828 0.950 . S
C824 C833 1.390 1_556 S
C825 C824 1.387 1_554 S
C825 C827 1.387 . S
H826 C833 0.950 . S
C827 C825 1.387 . S
C827 C829 1.390 . S
C827 H831 0.950 . S
H828 C824 0.950 . S
C829 C827 1.390 . S
C829 C830 1.387 . S
C829 H832 0.950 . S
C830 C829 1.387 . S
C830 C833 1.387 . S
H831 C827 0.950 . S
H832 C829 0.950 . S
C833 C824 1.390 1_554 S
C833 H826 0.950 . S
C833 C830 1.387 . S
C834 C835 1.387 . S
C834 H838 0.950 . S
C834 C843 1.390 . S
C835 C834 1.387 . S
C835 C837 1.387 1_556 S
H836 C843 0.950 . S
C837 C835 1.387 1_554 S
C837 C839 1.390 . S
C837 H841 0.950 . S
H838 C834 0.950 . S
C839 C837 1.390 . S
C839 C840 1.387 1_554 S
C839 H842 0.950 . S
C840 C839 1.387 1_556 S
C840 C843 1.387 . S
H841 C837 0.950 . S
H842 C839 0.950 . S
C843 C834 1.390 . S
C843 H836 0.950 . S
C843 C840 1.387 . S
C844 C845 1.387 . S
C844 H848 0.950 . S
C844 C853 1.390 . S
C845 C844 1.387 . S
C845 C847 1.387 . S
H846 C853 0.950 . S
C847 C845 1.387 . S
C847 C849 1.390 1_554 S
C847 H851 0.950 . S
H848 C844 0.950 . S
C849 C847 1.390 1_556 S
C849 C850 1.387 1_556 S
C849 H852 0.950 . S
C850 C849 1.387 1_554 S
C850 C853 1.387 . S
H851 C847 0.950 . S
H852 C849 0.950 . S
C853 C844 1.390 . S
C853 H846 0.950 . S
C853 C850 1.387 . S
C854 C855 1.387 . S
C854 H858 0.950 . S
C854 C863 1.390 . S
C855 C854 1.387 . S
C855 C857 1.387 1_556 S
H856 C863 0.950 . S
C857 C855 1.387 1_554 S
C857 C859 1.390 1_554 S
C857 H861 0.950 . S
H858 C854 0.950 . S
C859 C857 1.390 1_556 S
C859 C860 1.387 . S
C859 H862 0.950 1_556 S
C860 C859 1.387 . S
C860 C863 1.387 . S
H861 C857 0.950 . S
H862 C859 0.950 1_554 S
C863 C854 1.390 . S
C863 H856 0.950 . S
C863 C860 1.387 . S
C864 C865 1.387 . S
C864 H868 0.950 . S
C864 C873 1.390 . S
C865 C864 1.387 . S
C865 C867 1.387 . S
H866 C873 0.950 . S
C867 C865 1.387 . S
C867 C869 1.390 . S
C867 H871 0.950 . S
H868 C864 0.950 . S
C869 C867 1.390 . S
C869 C870 1.387 . S
C869 H872 0.950 . S
C870 C869 1.387 . S
C870 C873 1.387 . S
H871 C867 0.950 . S
H872 C869 0.950 . S
C873 C864 1.390 . S
C873 H866 0.950 . S
C873 C870 1.387 . S
C874 C875 1.387 . S
C874 H878 0.950 . S
C874 C883 1.390 . S
C875 C874 1.387 . S
C875 C877 1.387 . S
H876 C883 0.950 . S
C877 C875 1.387 . S
C877 C879 1.390 . S
C877 H881 0.950 . S
H878 C874 0.950 . S
C879 C877 1.390 . S
C879 C880 1.387 . S
C879 H882 0.950 . S
C880 C879 1.387 . S
C880 C883 1.387 . S
H881 C877 0.950 . S
H882 C879 0.950 . S
C883 C874 1.390 . S
C883 H876 0.950 . S
C883 C880 1.387 . S
C884 C885 1.387 . S
C884 H888 0.950 . S
C884 C893 1.390 . S
C885 C884 1.387 . S
C885 C887 1.387 . S
H886 C893 0.950 . S
C887 C885 1.387 . S
C887 C889 1.390 . S
C887 H891 0.950 . S
H888 C884 0.950 . S
C889 C887 1.390 . S
C889 C890 1.387 . S
C889 H892 0.950 . S
C890 C889 1.387 . S
C890 C893 1.387 . S
H891 C887 0.950 . S
H892 C889 0.950 . S
C893 C884 1.390 . S
C893 H886 0.950 . S
C893 C890 1.387 . S
C894 C895 1.387 . S
C894 H898 0.950 . S
C894 C903 1.390 . S
C895 C894 1.387 . S
C895 C897 1.387 . S
H896 C903 0.950 . S
C897 C895 1.387 . S
C897 C899 1.390 . S
C897 H901 0.950 . S
H898 C894 0.950 . S
C899 C897 1.390 . S
C899 C900 1.387 . S
C899 H902 0.950 . S
C900 C899 1.387 . S
C900 C903 1.387 . S
H901 C897 0.950 . S
H902 C899 0.950 . S
C903 C894 1.390 . S
C903 H896 0.950 . S
C903 C900 1.387 . S
C904 C905 1.387 . S
C904 H908 0.950 . S
C904 C913 1.390 . S
C905 C904 1.387 . S
C905 C907 1.387 . S
H906 C913 0.950 . S
C907 C905 1.387 . S
C907 C909 1.390 . S
C907 H911 0.950 . S
H908 C904 0.950 . S
C909 C907 1.390 . S
C909 C910 1.387 . S
C909 H912 0.950 . S
C910 C909 1.387 . S
C910 C913 1.387 . S
H911 C907 0.950 . S
H912 C909 0.950 . S
C913 C904 1.390 . S
C913 H906 0.950 . S
C913 C910 1.387 . S
C914 C915 1.387 . S
C914 H918 0.950 . S
C914 C923 1.390 . S
C915 C914 1.387 . S
C915 C917 1.387 . S
H916 C923 0.950 . S
C917 C915 1.387 . S
C917 C919 1.390 . S
C917 H921 0.950 . S
H918 C914 0.950 . S
C919 C917 1.390 . S
C919 C920 1.387 . S
C919 H922 0.950 . S
C920 C919 1.387 . S
C920 C923 1.387 . S
H921 C917 0.950 . S
H922 C919 0.950 . S
C923 C914 1.390 . S
C923 H916 0.950 . S
C923 C920 1.387 . S
C924 C925 1.387 . S
C924 H928 0.950 . S
C924 C933 1.390 . S
C925 C924 1.387 . S
C925 C927 1.387 . S
H926 C933 0.950 . S
C927 C925 1.387 . S
C927 C929 1.390 . S
C927 H931 0.950 . S
H928 C924 0.950 . S
C929 C927 1.390 . S
C929 C930 1.387 . S
C929 H932 0.950 . S
C930 C929 1.387 . S
C930 C933 1.387 . S
H931 C927 0.950 . S
H932 C929 0.950 . S
C933 C924 1.390 . S
C933 H926 0.950 . S
C933 C930 1.387 . S
C934 C935 1.387 . S
C934 H938 0.950 . S
C934 C943 1.390 . S
C935 C934 1.387 . S
C935 C937 1.387 . S
H936 C943 0.950 . S
C937 C935 1.387 . S
C937 C939 1.390 . S
C937 H941 0.950 . S
H938 C934 0.950 . S
C939 C937 1.390 . S
C939 C940 1.387 . S
C939 H942 0.950 . S
C940 C939 1.387 . S
C940 C943 1.387 . S
H941 C937 0.950 . S
H942 C939 0.950 . S
C943 C934 1.390 . S
C943 H936 0.950 . S
C943 C940 1.387 . S
C545 C33 1.093 . S
C550 C509 1.093 . S
C555 C543 1.093 . S
C560 C67 1.093 . S
C565 C441 1.093 . S
C570 C101 1.093 . S
C575 C135 1.093 . S
C580 C475 1.093 . S
C585 C169 1.096 . S
C590 C373 1.096 . S
C595 C407 1.093 . S
C600 C203 1.093 . S
C605 C237 1.093 . S
C610 C305 1.093 . S
C615 C339 1.093 . S
C620 C271 1.093 . S
C625 C145 1.218 . S
C630 C9 1.218 . S
C635 C43 1.224 . S
C640 C179 1.224 . S
C645 C77 1.224 . S
C650 C213 1.224 . S
C655 C111 1.224 . S
C660 C247 1.224 . S
C665 C417 1.218 . S
C670 C281 1.218 . S
C675 C451 1.218 . S
C680 C315 1.218 . S
C685 C349 1.218 . S
C690 C485 1.218 . S
C695 C383 1.218 . S
C700 C519 1.218 . S
C705 C2 1.917 1_556 S
C710 C478 1.917 . S
C715 C512 1.916 . S
C720 C36 1.916 1_554 S
C725 C70 1.917 1_556 S
C730 C410 1.917 . S
C735 C444 1.916 . S
C740 C104 1.916 1_554 S
C745 C342 1.917 . S
C750 C138 1.917 . S
C755 C376 1.916 . S
C760 C172 1.916 . S
C765 C206 1.917 . S
C770 C274 1.917 . S
C775 C240 1.916 . S
C780 C308 1.916 . S
C785 C5 1.693 1_565 S
C790 C394 1.719 . S
C795 C292 1.721 . S
C800 C39 1.695 1_655 S
C805 C73 1.696 1_545 S
C810 C326 1.721 . S
C815 C360 1.719 . S
C820 C107 1.693 1_455 S
C825 C190 1.719 1_554 S
C830 C141 1.693 . S
C835 C224 1.719 1_556 S
C840 C175 1.693 . S
C845 C209 1.695 . S
C850 C258 1.720 1_554 S
C855 C156 1.719 1_556 S
C860 C243 1.694 . S
C865 C122 1.719 . S
C870 C277 1.694 . S
C875 C311 1.695 . S
C880 C20 1.721 . S
C885 C345 1.694 . S
C890 C54 1.719 . S
C895 C88 1.721 . S
C900 C379 1.695 . S
C905 C462 1.719 . S
C910 C413 1.693 1_545 S
C915 C496 1.719 . S
C920 C447 1.693 1_455 S
C925 C530 1.719 . S
C930 C481 1.694 1_565 S
C935 C515 1.693 1_655 S
C940 C428 1.719 . S
