# Generated by pormake.
# Topology utk, (3)-cn, num edge types: 1
# Building blocks:
#     Node 0, Type 0, BuildingBlock: OLANEW_clean_sbu_2, # of connection points: 3
#     Node 1, Type 0, BuildingBlock: OLANEW_clean_sbu_2, # of connection points: 3
#     Node 2, Type 0, BuildingBlock: OLANEW_clean_sbu_2, # of connection points: 3
#     Node 3, Type 0, BuildingBlock: OLANEW_clean_sbu_2, # of connection points: 3
#     Node 4, Type 0, BuildingBlock: OLANEW_clean_sbu_2, # of connection points: 3
#     Node 5, Type 0, BuildingBlock: OLANEW_clean_sbu_2, # of connection points: 3
#     Node 6, Type 0, BuildingBlock: OLANEW_clean_sbu_2, # of connection points: 3
#     Node 7, Type 0, BuildingBlock: OLANEW_clean_sbu_2, # of connection points: 3
#     Edge 8, Type (0, 0), BuildingBlock: TEMPAE_clean_linker_10, # of connection points: 2
#     Edge 9, Type (0, 0), BuildingBlock: TEMPAE_clean_linker_10, # of connection points: 2
#     Edge 10, Type (0, 0), BuildingBlock: TEMPAE_clean_linker_10, # of connection points: 2
#     Edge 11, Type (0, 0), BuildingBlock: TEMPAE_clean_linker_10, # of connection points: 2
#     Edge 12, Type (0, 0), BuildingBlock: TEMPAE_clean_linker_10, # of connection points: 2
#     Edge 13, Type (0, 0), BuildingBlock: TEMPAE_clean_linker_10, # of connection points: 2
#     Edge 14, Type (0, 0), BuildingBlock: TEMPAE_clean_linker_10, # of connection points: 2
#     Edge 15, Type (0, 0), BuildingBlock: TEMPAE_clean_linker_10, # of connection points: 2
#     Edge 16, Type (0, 0), BuildingBlock: TEMPAE_clean_linker_10, # of connection points: 2
#     Edge 17, Type (0, 0), BuildingBlock: TEMPAE_clean_linker_10, # of connection points: 2
#     Edge 18, Type (0, 0), BuildingBlock: TEMPAE_clean_linker_10, # of connection points: 2
#     Edge 19, Type (0, 0), BuildingBlock: TEMPAE_clean_linker_10, # of connection points: 2
# Relax obj value: 0.000
# Max RMSD: 0.043
# Mean RMSD: 0.043
data_MOF--net-utk--node1-OLANEW_clean_sbu_2--edge1-TEMPAE_clean_linker_10
_symmetry_space_group_name_H-M    P1
_symmetry_Int_Tables_number       1
_symmetry_cell_setting            triclinic
loop_
_symmetry_equiv_pos_as_xyz
'x, y, z'
_cell_length_a     44.666727
_cell_length_b     44.537418
_cell_length_c     32.12995
_cell_angle_alpha  90.14529
_cell_angle_beta   90.14409
_cell_angle_gamma 89.840455
loop_
_atom_site_label
_atom_site_type_symbol
_atom_site_fract_x
_atom_site_fract_y
_atom_site_fract_z
_atom_type_partial_charge
O0 O 0.13363 0.36426 0.18812 0.0
Cd1 Cd 0.1325 0.31059 0.17171 0.0
O2 O 0.09082 0.36299 0.22166 0.0
Cd3 Cd 0.07901 0.31933 0.19538 0.0
O4 O 0.05483 0.29823 0.14391 0.0
C5 C 0.0628 0.30613 0.10761 0.0
O6 O 0.08603 0.32396 0.10384 0.0
C7 C 0.11402 0.37732 0.21044 0.0
C8 C 0.16252 0.27781 0.23311 0.0
O9 O 0.17642 0.28799 0.2013 0.0
O10 O 0.13432 0.2829 0.2357 0.0
O11 O 0.61918 0.12725 0.4958 0.0
Cd12 Cd 0.67339 0.12139 0.48814 0.0
O13 O 0.61195 0.13053 0.42822 0.0
Cd14 Cd 0.65745 0.11851 0.40963 0.0
O15 O 0.67923 0.08927 0.36407 0.0
C16 C 0.66184 0.08269 0.33406 0.0
O17 O 0.63492 0.0947 0.33351 0.0
C18 C 0.60162 0.13118 0.46506 0.0
C19 C 0.70489 0.15448 0.54781 0.0
O20 O 0.69736 0.16614 0.51287 0.0
O21 O 0.69752 0.12712 0.55453 0.0
O22 O 0.8677 0.61486 0.70756 0.0
Cd23 Cd 0.87817 0.66859 0.70184 0.0
O24 O 0.91285 0.60743 0.73312 0.0
Cd25 Cd 0.93003 0.65023 0.71042 0.0
O26 O 0.95328 0.67231 0.65923 0.0
C27 C 0.93926 0.67587 0.62511 0.0
O28 O 0.91077 0.66868 0.62341 0.0
C29 C 0.88688 0.59751 0.72442 0.0
C30 C 0.83909 0.70345 0.74934 0.0
O31 O 0.83612 0.70185 0.70973 0.0
O32 O 0.86037 0.68862 0.76653 0.0
O33 O 0.3586 0.83591 0.98046 0.0
Cd34 Cd 0.30446 0.83766 0.96898 0.0
O35 O 0.36571 0.8777 0.94548 0.0
Cd36 Cd 0.32 0.88581 0.92387 0.0
O37 O 0.29836 0.91153 0.87429 0.0
C38 C 0.31456 0.9136 0.84196 0.0
O39 O 0.34028 0.8992 0.84135 0.0
C40 C 0.37613 0.85606 0.96687 0.0
C41 C 0.27325 0.80856 0.03237 0.0
O42 O 0.28223 0.79425 4e-05 0.0
O43 O 0.27902 0.83669 0.03471 0.0
O44 O 0.13203 0.61116 0.29875 0.0
Cd45 Cd 0.13128 0.66446 0.31771 0.0
O46 O 0.09538 0.61542 0.25331 0.0
Cd47 Cd 0.08278 0.659 0.27912 0.0
O48 O 0.06069 0.67814 0.33365 0.0
C49 C 0.05354 0.65802 0.35975 0.0
O50 O 0.06033 0.62995 0.35115 0.0
C51 C 0.11568 0.5996 0.2705 0.0
C52 C 0.16152 0.69852 0.25825 0.0
O53 O 0.17537 0.68733 0.28959 0.0
O54 O 0.1333 0.69383 0.25524 0.0
O55 O 0.36164 0.14555 0.51327 0.0
Cd56 Cd 0.30769 0.14237 0.52554 0.0
O57 O 0.36721 0.09649 0.51147 0.0
Cd58 Cd 0.32217 0.08577 0.53316 0.0
O59 O 0.29859 0.05958 0.58014 0.0
C60 C 0.30301 0.06717 0.61781 0.0
O61 O 0.31873 0.09148 0.62545 0.0
C62 C 0.37826 0.12264 0.50798 0.0
C63 C 0.27515 0.1707 0.46234 0.0
O64 O 0.28403 0.18526 0.49454 0.0
O65 O 0.28159 0.14268 0.46009 0.0
O66 O 0.84835 0.36479 0.79982 0.0
Cd67 Cd 0.8484 0.31183 0.82017 0.0
O68 O 0.88511 0.35937 0.75502 0.0
Cd69 Cd 0.89738 0.31601 0.78166 0.0
O70 O 0.9218 0.29672 0.8342 0.0
C71 C 0.92092 0.31295 0.86677 0.0
O72 O 0.90471 0.33763 0.86601 0.0
C73 C 0.86497 0.37571 0.77157 0.0
C74 C 0.81762 0.27654 0.7622 0.0
O75 O 0.80392 0.289 0.79274 0.0
O76 O 0.84591 0.28067 0.75917 0.0
O77 O 0.61618 0.85813 0.97323 0.0
Cd78 Cd 0.66797 0.87512 0.96648 0.0
O79 O 0.60989 0.87852 0.03505 0.0
Cd80 Cd 0.6553 0.89533 0.04457 0.0
O81 O 0.67967 0.92569 0.08594 0.0
C82 C 0.67922 0.91902 0.12437 0.0
O83 O 0.6671 0.89342 0.13548 0.0
C84 C 0.59941 0.86412 0.00409 0.0
C85 C 0.70382 0.83532 0.92149 0.0
O86 O 0.70598 0.837 0.9612 0.0
O87 O 0.68471 0.85221 0.90308 0.0
C88 C 0.09689 0.42339 0.24846 0.0
C89 C 0.11722 0.40956 0.22122 0.0
C90 C 0.09831 0.45431 0.25669 0.0
C91 C 0.12046 0.47191 0.23698 0.0
C92 C 0.14143 0.45803 0.2101 0.0
C93 C 0.13964 0.427 0.20267 0.0
C94 C 0.07572 0.46825 0.28588 0.0
C95 C 0.16528 0.47609 0.18838 0.0
C96 C 0.1026 0.55498 0.22647 0.0
C97 C 0.11887 0.56735 0.25973 0.0
C98 C 0.10358 0.52405 0.21804 0.0
C99 C 0.12105 0.50498 0.24367 0.0
C100 C 0.13809 0.51739 0.27664 0.0
C101 C 0.13691 0.54844 0.28416 0.0
C102 C 0.08533 0.51169 0.1823 0.0
C103 C 0.15685 0.49776 0.30479 0.0
H104 H 0.07956 0.4101 0.26306 0.0
H105 H 0.1554 0.41654 0.18149 0.0
H106 H 0.08737 0.48062 0.31115 0.0
H107 H 0.06173 0.48475 0.26876 0.0
H108 H 0.06075 0.45126 0.30009 0.0
H109 H 0.18057 0.46176 0.16964 0.0
H110 H 0.15462 0.4928 0.16748 0.0
H111 H 0.17876 0.48875 0.21152 0.0
H112 H 0.08871 0.56942 0.20732 0.0
H113 H 0.1495 0.55776 0.30999 0.0
H114 H 0.06783 0.49641 0.19439 0.0
H115 H 0.09982 0.4983 0.16121 0.0
H116 H 0.07427 0.52969 0.16392 0.0
H117 H 0.14216 0.482 0.32189 0.0
H118 H 0.16989 0.51105 0.32781 0.0
H119 H 0.17262 0.484 0.28609 0.0
C120 C 0.54952 0.13695 0.43724 0.0
C121 C 0.56888 0.13445 0.47157 0.0
C122 C 0.51834 0.13719 0.44238 0.0
C123 C 0.50614 0.13496 0.48284 0.0
C124 C 0.52551 0.13355 0.51776 0.0
C125 C 0.55665 0.13329 0.51172 0.0
C126 C 0.49844 0.13871 0.40435 0.0
C127 C 0.51332 0.13126 0.56143 0.0
C128 C 0.42405 0.15466 0.49944 0.0
C129 C 0.41075 0.12613 0.49974 0.0
C130 C 0.45507 0.15794 0.49387 0.0
C131 C 0.47319 0.13211 0.48838 0.0
C132 C 0.45986 0.10331 0.4881 0.0
C133 C 0.42886 0.10068 0.49379 0.0
C134 C 0.46851 0.189 0.49428 0.0
C135 C 0.47839 0.07521 0.48215 0.0
H136 H 0.55868 0.13795 0.40607 0.0
H137 H 0.57139 0.13144 0.53844 0.0
H138 H 0.48579 0.11743 0.4011 0.0
H139 H 0.4818 0.15708 0.40774 0.0
H140 H 0.51138 0.14242 0.37534 0.0
H141 H 0.53126 0.1325 0.58538 0.0
H142 H 0.49693 0.14953 0.56731 0.0
H143 H 0.50131 0.10966 0.5651 0.0
H144 H 0.41028 0.17445 0.50409 0.0
H145 H 0.41886 0.07854 0.49393 0.0
H146 H 0.48067 0.1931 0.46478 0.0
H147 H 0.48507 0.19086 0.51995 0.0
H148 H 0.45132 0.20684 0.49832 0.0
H149 H 0.49063 0.0763 0.45218 0.0
H150 H 0.46455 0.05452 0.4823 0.0
H151 H 0.49539 0.07345 0.50728 0.0
C152 C 0.855 0.55188 0.71307 0.0
C153 C 0.8798 0.56552 0.73216 0.0
C154 C 0.84956 0.521 0.71778 0.0
C155 C 0.86917 0.50349 0.74254 0.0
C156 C 0.89372 0.51732 0.76282 0.0
C157 C 0.89882 0.54809 0.75719 0.0
C158 C 0.82331 0.50698 0.69543 0.0
C159 C 0.91496 0.49951 0.78993 0.0
C160 C 0.84648 0.42779 0.7862 0.0
C161 C 0.86278 0.40799 0.76077 0.0
C162 C 0.8474 0.45893 0.77965 0.0
C163 C 0.86474 0.47052 0.74661 0.0
C164 C 0.87992 0.45057 0.71948 0.0
C165 C 0.8789 0.41955 0.72702 0.0
C166 C 0.83107 0.47948 0.80943 0.0
C167 C 0.89832 0.46204 0.68354 0.0
H168 H 0.84028 0.56517 0.69352 0.0
H169 H 0.91793 0.55847 0.77225 0.0
H170 H 0.83151 0.49016 0.67258 0.0
H171 H 0.80886 0.49492 0.71785 0.0
H172 H 0.80949 0.52387 0.6787 0.0
H173 H 0.93219 0.51389 0.80493 0.0
H174 H 0.90233 0.48767 0.8146 0.0
H175 H 0.92648 0.48216 0.77095 0.0
H176 H 0.83398 0.41909 0.81238 0.0
H177 H 0.89137 0.40441 0.70703 0.0
H178 H 0.81713 0.49588 0.79206 0.0
H179 H 0.84758 0.49249 0.82795 0.0
H180 H 0.81647 0.46692 0.8312 0.0
H181 H 0.88503 0.47807 0.6646 0.0
H182 H 0.90631 0.44359 0.66301 0.0
H183 H 0.91809 0.47433 0.69565 0.0
C184 C 0.55463 0.84181 0.9683 0.0
C185 C 0.567 0.85688 0.00264 0.0
C186 C 0.5235 0.83832 0.96425 0.0
C187 C 0.50431 0.85036 -0.00487 0.0
C188 C 0.51672 0.86422 0.03086 0.0
C189 C 0.54789 0.86721 0.03426 0.0
C190 C 0.51111 0.82313 0.92587 0.0
C191 C 0.49704 0.87744 0.06443 0.0
C192 C 0.42761 0.87737 0.96065 0.0
C193 C 0.40884 0.85438 0.97489 0.0
C194 C 0.45864 0.87619 0.96699 0.0
C195 C 0.47138 0.85136 0.98804 0.0
C196 C 0.45265 0.82804 0.00259 0.0
C197 C 0.42156 0.82984 -0.0041 0.0
C198 C 0.47779 0.90161 0.95115 0.0
C199 C 0.46549 0.80122 0.02512 0.0
H200 H 0.56919 0.83356 0.94384 0.0
H201 H 0.55717 0.87878 0.06104 0.0
H202 H 0.49417 0.80611 0.93459 0.0
H203 H 0.49972 0.84001 0.90598 0.0
H204 H 0.5289 0.812 0.90722 0.0
H205 H 0.51013 0.88478 0.09208 0.0
H206 H 0.48479 0.89716 0.05188 0.0
H207 H 0.48007 0.86087 0.07453 0.0
H208 H 0.41808 0.89645 0.9444 0.0
H209 H 0.40726 0.81194 0.00694 0.0
H210 H 0.49465 0.89286 0.92888 0.0
H211 H 0.49018 0.91207 0.97739 0.0
H212 H 0.46439 0.91929 0.93534 0.0
H213 H 0.48207 0.78962 0.00504 0.0
H214 H 0.44795 0.78487 0.0342 0.0
H215 H 0.47749 0.80868 0.05357 0.0
C216 C 0.16308 0.2493 0.30029 0.0
C217 C 0.17865 0.26106 0.26616 0.0
C218 C 0.17821 0.23397 0.33223 0.0
C219 C 0.20967 0.23041 0.33009 0.0
C220 C 0.22549 0.24203 0.29559 0.0
C221 C 0.20979 0.25717 0.26403 0.0
C222 C 0.16054 0.2218 0.36844 0.0
C223 C 0.25906 0.23874 0.29222 0.0
C224 C 0.25283 0.21691 0.43046 0.0
C225 C 0.25812 0.18587 0.4287 0.0
C226 C 0.23704 0.23166 0.39864 0.0
C227 C 0.22615 0.21496 0.36426 0.0
C228 C 0.23124 0.18359 0.3624 0.0
C229 C 0.24721 0.16943 0.39459 0.0
C230 C 0.23215 0.26516 0.40169 0.0
C231 C 0.21988 0.165 0.32633 0.0
H232 H 0.13901 0.25216 0.30217 0.0
H233 H 0.22202 0.26619 0.23781 0.0
H234 H 0.1644 0.19728 0.37143 0.0
H235 H 0.16828 0.23241 0.39783 0.0
H236 H 0.13612 0.22589 0.36503 0.0
H237 H 0.26797 0.2487 0.26313 0.0
H238 H 0.27004 0.24983 0.31916 0.0
H239 H 0.2654 0.21465 0.29314 0.0
H240 H 0.26119 0.22981 0.45665 0.0
H241 H 0.25114 0.14543 0.393 0.0
H242 H 0.20784 0.2703 0.40107 0.0
H243 H 0.24234 0.27646 0.37447 0.0
H244 H 0.24194 0.27486 0.43054 0.0
H245 H 0.19523 0.16743 0.32355 0.0
H246 H 0.2254 0.1408 0.32978 0.0
H247 H 0.22976 0.1732 0.29683 0.0
C248 C 0.73136 0.15854 0.61645 0.0
C249 C 0.72157 0.17209 0.57944 0.0
C250 C 0.7472 0.17499 0.64663 0.0
C251 C 0.75327 0.20576 0.63973 0.0
C252 C 0.74343 0.21957 0.60247 0.0
C253 C 0.72777 0.20257 0.57274 0.0
C254 C 0.75745 0.15944 0.6859 0.0
C255 C 0.74938 0.25236 0.59405 0.0
C256 C 0.76993 0.25572 0.73301 0.0
C257 C 0.80121 0.25811 0.7312 0.0
C258 C 0.75406 0.2387 0.70351 0.0
C259 C 0.76985 0.22357 0.67153 0.0
C260 C 0.80144 0.22569 0.66971 0.0
C261 C 0.81673 0.243 0.69949 0.0
C262 C 0.72036 0.23707 0.70639 0.0
C263 C 0.81908 0.20976 0.63621 0.0
H264 H 0.72673 0.135 0.62186 0.0
H265 H 0.72026 0.21323 0.54427 0.0
H266 H 0.78213 0.16113 0.68895 0.0
H267 H 0.74754 0.17068 0.71349 0.0
H268 H 0.75111 0.13534 0.68641 0.0
H269 H 0.74016 0.25975 0.5636 0.0
H270 H 0.7393 0.26637 0.61898 0.0
H271 H 0.77383 0.25665 0.59437 0.0
H272 H 0.75774 0.26735 0.75735 0.0
H273 H 0.84091 0.24466 0.69791 0.0
H274 H 0.7132 0.21335 0.70946 0.0
H275 H 0.7101 0.24593 0.67741 0.0
H276 H 0.71144 0.25003 0.73324 0.0
H277 H 0.81456 0.18529 0.63727 0.0
H278 H 0.84358 0.21333 0.63947 0.0
H279 H 0.81192 0.21785 0.6051 0.0
C280 C 0.80767 0.71131 0.81239 0.0
C281 C 0.81874 0.7221 0.77456 0.0
C282 C 0.7881 0.72879 0.83661 0.0
C283 C 0.78058 0.75821 0.82349 0.0
C284 C 0.79223 0.76936 0.78558 0.0
C285 C 0.81067 0.75087 0.76109 0.0
C286 C 0.77522 0.71565 0.87595 0.0
C287 C 0.78568 0.80098 0.77129 0.0
C288 C 0.71128 0.79806 0.86451 0.0
C289 C 0.72319 0.81493 0.89739 0.0
C290 C 0.72955 0.77875 0.841 0.0
C291 C 0.76067 0.77741 0.84948 0.0
C292 C 0.77282 0.79479 0.88241 0.0
C293 C 0.75377 0.81286 0.90659 0.0
C294 C 0.71555 0.7597 0.80728 0.0
C295 C 0.80602 0.79487 0.89143 0.0
H296 H 0.81381 0.68892 0.82254 0.0
H297 H 0.81952 0.75923 0.73195 0.0
H298 H 0.78269 0.72888 0.90333 0.0
H299 H 0.7504 0.71688 0.87497 0.0
H300 H 0.78201 0.69187 0.88056 0.0
H301 H 0.79758 0.80664 0.74203 0.0
H302 H 0.7613 0.80392 0.76611 0.0
H303 H 0.79245 0.81724 0.79579 0.0
H304 H 0.68753 0.79958 0.85768 0.0
H305 H 0.76295 0.8262 0.93184 0.0
H306 H 0.72149 0.73574 0.81207 0.0
H307 H 0.72442 0.76632 0.77645 0.0
H308 H 0.69077 0.76185 0.80657 0.0
H309 H 0.81369 0.77194 0.89967 0.0
H310 H 0.81198 0.81035 0.9173 0.0
H311 H 0.81848 0.80172 0.86317 0.0
C312 C 0.24593 0.80911 0.10043 0.0
C313 C 0.25674 0.79302 0.06597 0.0
C314 C 0.23023 0.79463 0.13241 0.0
C315 C 0.22531 0.76328 0.12995 0.0
C316 C 0.23619 0.74691 0.09529 0.0
C317 C 0.25172 0.76197 0.06371 0.0
C318 C 0.2189 0.81286 0.16883 0.0
C319 C 0.23144 0.71345 0.09158 0.0
C320 C 0.20882 0.71971 0.22881 0.0
C321 C 0.1777 0.7159 0.22612 0.0
C322 C 0.22455 0.73535 0.19795 0.0
C323 C 0.2088 0.74753 0.16361 0.0
C324 C 0.17734 0.74411 0.16097 0.0
C325 C 0.16218 0.72831 0.19223 0.0
C326 C 0.2581 0.73852 0.20184 0.0
C327 C 0.15974 0.75687 0.1249 0.0
H328 H 0.24967 0.83311 0.10242 0.0
H329 H 0.26001 0.74934 0.03724 0.0
H330 H 0.19424 0.81065 0.17128 0.0
H331 H 0.22867 0.80417 0.19823 0.0
H332 H 0.22453 0.83705 0.16605 0.0
H333 H 0.24138 0.70399 0.06271 0.0
H334 H 0.24155 0.70187 0.11876 0.0
H335 H 0.20714 0.70837 0.09173 0.0
H336 H 0.221 0.71021 0.25488 0.0
H337 H 0.13814 0.72552 0.18992 0.0
H338 H 0.26438 0.76259 0.2014 0.0
H339 H 0.2692 0.72762 0.17486 0.0
H340 H 0.26693 0.72827 0.23088 0.0
H341 H 0.16365 0.78139 0.12251 0.0
H342 H 0.13531 0.75291 0.12799 0.0
H343 H 0.16749 0.74655 0.09534 0.0
C344 C 0.05107 0.31144 0.03194 0.0
C345 C 0.04376 0.29939 0.07089 0.0
C346 C 0.03121 0.30936 -0.00181 0.0
C347 C 0.00341 0.29467 0.00339 0.0
C348 C -0.00326 0.28069 0.04179 0.0
C349 C 0.01698 0.28329 0.07517 0.0
C350 C 0.0392 0.32458 0.95777 0.0
C351 C 0.96752 0.26447 0.04835 0.0
C352 C 0.94059 0.32627 0.93713 0.0
C353 C 0.93997 0.3062 0.90344 0.0
C354 C 0.96048 0.32215 0.97043 0.0
C355 C 0.98014 0.29717 0.97033 0.0
C356 C 0.97877 0.27606 0.93736 0.0
C357 C 0.95876 0.28088 0.90415 0.0
C358 C 0.96124 0.34526 0.00494 0.0
C359 C -0.00087 0.24896 0.93646 0.0
H360 H 0.07181 0.3237 0.02817 0.0
H361 H 0.01124 0.27368 0.10506 0.0
H362 H 0.03588 0.30902 0.93117 0.0
H363 H 0.0242 0.34416 0.95282 0.0
H364 H 0.06274 0.33257 0.95749 0.0
H365 H 0.96754 0.25126 0.07764 0.0
H366 H 0.94896 0.28105 0.04982 0.0
H367 H 0.96279 0.24914 0.02188 0.0
H368 H 0.92609 0.34583 0.93701 0.0
H369 H 0.95832 0.26517 0.87834 0.0
H370 H 0.98335 0.35658 0.00531 0.0
H371 H 0.95839 0.33422 0.03557 0.0
H372 H 0.94353 0.36263 0.00135 0.0
H373 H 0.02261 0.25629 0.9319 0.0
H374 H -0.00685 0.23308 0.91107 0.0
H375 H -0.00179 0.2369 0.9666 0.0
C376 C 0.69878 0.04676 0.30188 0.0
C377 C 0.67037 0.06031 0.30195 0.0
C378 C 0.70594 0.02411 0.27291 0.0
C379 C 0.68404 0.01467 0.24377 0.0
C380 C 0.65564 0.02886 0.24308 0.0
C381 C 0.64924 0.05154 0.27197 0.0
C382 C 0.73658 0.00978 0.27415 0.0
C383 C 0.63157 0.01941 0.21264 0.0
C384 C 0.69733 0.97028 0.14481 0.0
C385 C 0.68667 0.94189 0.15635 0.0
C386 C 0.69908 -0.00622 0.17397 0.0
C387 C 0.68963 0.9888 0.21541 0.0
C388 C 0.68113 0.9596 0.22791 0.0
C389 C 0.67992 0.93646 0.19828 0.0
C390 C 0.70892 0.02445 0.15965 0.0
C391 C 0.67085 0.95329 0.27176 0.0
H392 H 0.71529 0.05352 0.32483 0.0
H393 H 0.62727 0.06192 0.27162 0.0
H394 H 0.73465 0.98615 0.2846 0.0
H395 H 0.74656 0.00939 0.24257 0.0
H396 H 0.75204 0.02176 0.2956 0.0
H397 H 0.61095 0.03327 0.21547 0.0
H398 H 0.63994 0.02118 0.18028 0.0
H399 H 0.62557 -0.00443 0.218 0.0
H400 H 0.70297 0.97459 0.11259 0.0
H401 H 0.67197 0.91453 0.20764 0.0
H402 H 0.72413 0.0349 0.18284 0.0
H403 H 0.68905 0.03928 0.1565 0.0
H404 H 0.72049 0.02346 0.1291 0.0
H405 H 0.68674 0.96289 0.29475 0.0
H406 H 0.66855 0.92886 0.27781 0.0
H407 H 0.64877 0.96416 0.27698 0.0
C408 C 0.98705 0.68602 0.58699 0.0
C409 C 0.95582 0.68268 0.58634 0.0
C410 C 0.00353 0.68698 0.54986 0.0
C411 C 0.9884 0.6845 0.51123 0.0
C412 C 0.95673 0.68353 0.51034 0.0
C413 C 0.94082 0.68267 0.54792 0.0
C414 C 0.03726 0.68838 0.55213 0.0
C415 C 0.93973 0.68103 0.46981 0.0
C416 C 0.03058 0.69527 0.4094 0.0
C417 C 0.03734 0.66544 0.39865 0.0
C418 C 0.01485 0.70202 0.44617 0.0
C419 C 0.00564 0.67837 0.47255 0.0
C420 C 0.01254 0.64829 0.46186 0.0
C421 C 0.02832 0.64223 0.42518 0.0
C422 C 0.00797 0.73434 0.45671 0.0
C423 C 0.00305 0.62237 0.48905 0.0
H424 H -0.00116 0.68638 0.61652 0.0
H425 H 0.91666 0.68044 0.54705 0.0
H426 H 0.04675 0.66604 0.54422 0.0
H427 H 0.04609 0.70469 0.52923 0.0
H428 H 0.04528 0.69479 0.58367 0.0
H429 H 0.91532 0.68477 0.47403 0.0
H430 H 0.94823 0.69745 0.44683 0.0
H431 H 0.9431 0.65826 0.45647 0.0
H432 H 0.03751 0.71333 0.38908 0.0
H433 H 0.0334 0.61912 0.41719 0.0
H434 H 0.01739 0.74005 0.48771 0.0
H435 H 0.98339 0.73771 0.45855 0.0
H436 H 0.01719 0.75015 0.43336 0.0
H437 H 0.01263 0.62501 0.52073 0.0
H438 H 0.0103 0.6003 0.47636 0.0
H439 H 0.97832 0.62222 0.49221 0.0
C440 C 0.32679 0.93839 0.77468 0.0
C441 C 0.30655 0.93415 0.80743 0.0
C442 C 0.32144 0.95986 0.74375 0.0
C443 C 0.29499 0.97741 0.74523 0.0
C444 C 0.27373 0.97233 0.77705 0.0
C445 C 0.27983 0.95083 0.80798 0.0
C446 C 0.34477 0.9646 0.71044 0.0
C447 C 0.24506 0.99026 0.77921 0.0
C448 C 0.30543 0.05255 0.69273 0.0
C449 C 0.29551 0.04635 0.65216 0.0
C450 C 0.30352 0.03089 0.72421 0.0
C451 C 0.2911 0.00242 0.71503 0.0
C452 C 0.2788 -0.00312 0.6751 0.0
C453 C 0.28127 0.01888 0.64402 0.0
C454 C 0.31692 0.03774 0.76638 0.0
C455 C 0.26483 0.96702 0.66434 0.0
H456 H 0.34742 0.92554 0.77381 0.0
H457 H 0.26399 0.94758 0.83304 0.0
H458 H 0.33448 0.96252 0.67912 0.0
H459 H 0.35406 0.98761 0.71307 0.0
H460 H 0.36355 0.94826 0.71274 0.0
H461 H 0.22929 0.98114 0.80265 0.0
H462 H 0.25021 0.01387 0.78759 0.0
H463 H 0.23379 0.99057 0.7484 0.0
H464 H 0.31619 0.0738 0.69949 0.0
H465 H 0.27322 0.014 0.61289 0.0
H466 H 0.3376 0.02422 0.77073 0.0
H467 H 0.30117 0.03148 0.79151 0.0
H468 H 0.32272 0.06185 0.76992 0.0
H469 H 0.28269 0.94984 0.66091 0.0
H470 H 0.25191 0.96802 0.63479 0.0
H471 H 0.24976 0.95949 0.68962 0.0
loop_
_geom_bond_atom_site_label_1
_geom_bond_atom_site_label_2
_geom_bond_distance
_geom_bond_site_symmetry_2
_ccdc_geom_bond_type
O0 Cd1 2.300 . S
O0 C7 1.275 . S
Cd1 O0 2.300 . S
Cd1 O9 2.381 . S
Cd1 O10 2.378 . S
O2 Cd3 2.385 . S
O2 C7 1.255 . S
Cd3 O2 2.385 . S
Cd3 O4 2.317 . S
O4 Cd3 2.317 . S
O4 C5 1.232 . S
C5 O4 1.232 . S
C5 O6 1.218 . S
O6 C5 1.218 . S
C7 O0 1.275 . S
C7 O2 1.255 . S
C8 O9 1.258 . S
C8 O10 1.256 . S
O9 Cd1 2.381 . S
O9 C8 1.258 . S
O10 Cd1 2.378 . S
O10 C8 1.256 . S
O11 Cd12 2.300 . S
O11 C18 1.275 . S
Cd12 O11 2.300 . S
Cd12 O20 2.381 . S
Cd12 O21 2.378 . S
O13 Cd14 2.385 . S
O13 C18 1.255 . S
Cd14 O13 2.385 . S
Cd14 O15 2.317 . S
O15 Cd14 2.317 . S
O15 C16 1.232 . S
C16 O15 1.232 . S
C16 O17 1.218 . S
O17 C16 1.218 . S
C18 O11 1.275 . S
C18 O13 1.255 . S
C19 O20 1.258 . S
C19 O21 1.256 . S
O20 Cd12 2.381 . S
O20 C19 1.258 . S
O21 Cd12 2.378 . S
O21 C19 1.256 . S
O22 Cd23 2.300 . S
O22 C29 1.275 . S
Cd23 O22 2.300 . S
Cd23 O31 2.381 . S
Cd23 O32 2.378 . S
O24 Cd25 2.385 . S
O24 C29 1.255 . S
Cd25 O24 2.385 . S
Cd25 O26 2.317 . S
O26 Cd25 2.317 . S
O26 C27 1.232 . S
C27 O26 1.232 . S
C27 O28 1.218 . S
O28 C27 1.218 . S
C29 O22 1.275 . S
C29 O24 1.255 . S
C30 O31 1.258 . S
C30 O32 1.256 . S
O31 Cd23 2.381 . S
O31 C30 1.258 . S
O32 Cd23 2.378 . S
O32 C30 1.256 . S
O33 Cd34 2.300 . S
O33 C40 1.275 1_554 S
Cd34 O33 2.300 . S
Cd34 O42 2.381 . S
Cd34 O43 2.378 . S
O35 Cd36 2.385 . S
O35 C40 1.255 . S
Cd36 O35 2.385 . S
Cd36 O37 2.317 . S
O37 Cd36 2.317 . S
O37 C38 1.232 . S
C38 O37 1.232 . S
C38 O39 1.218 . S
O39 C38 1.218 . S
C40 O33 1.275 1_556 S
C40 O35 1.255 . S
C41 O42 1.258 . S
C41 O43 1.256 . S
O42 Cd34 2.381 . S
O42 C41 1.258 . S
O43 Cd34 2.378 . S
O43 C41 1.256 . S
O44 Cd45 2.300 . S
O44 C51 1.275 . S
Cd45 O44 2.300 . S
Cd45 O53 2.381 . S
Cd45 O54 2.378 . S
O46 Cd47 2.385 . S
O46 C51 1.255 . S
Cd47 O46 2.385 . S
Cd47 O48 2.317 . S
O48 Cd47 2.317 . S
O48 C49 1.232 . S
C49 O48 1.232 . S
C49 O50 1.218 . S
O50 C49 1.218 . S
C51 O44 1.275 . S
C51 O46 1.255 . S
C52 O53 1.258 . S
C52 O54 1.256 . S
O53 Cd45 2.381 . S
O53 C52 1.258 . S
O54 Cd45 2.378 . S
O54 C52 1.256 . S
O55 Cd56 2.300 . S
O55 C62 1.275 . S
Cd56 O55 2.300 . S
Cd56 O64 2.381 . S
Cd56 O65 2.378 . S
O57 Cd58 2.385 . S
O57 C62 1.255 . S
Cd58 O57 2.385 . S
Cd58 O59 2.317 . S
O59 Cd58 2.317 . S
O59 C60 1.232 . S
C60 O59 1.232 . S
C60 O61 1.218 . S
O61 C60 1.218 . S
C62 O55 1.275 . S
C62 O57 1.255 . S
C63 O64 1.258 . S
C63 O65 1.256 . S
O64 Cd56 2.381 . S
O64 C63 1.258 . S
O65 Cd56 2.378 . S
O65 C63 1.256 . S
O66 Cd67 2.300 . S
O66 C73 1.275 . S
Cd67 O66 2.300 . S
Cd67 O75 2.381 . S
Cd67 O76 2.378 . S
O68 Cd69 2.385 . S
O68 C73 1.255 . S
Cd69 O68 2.385 . S
Cd69 O70 2.317 . S
O70 Cd69 2.317 . S
O70 C71 1.232 . S
C71 O70 1.232 . S
C71 O72 1.218 . S
O72 C71 1.218 . S
C73 O66 1.275 . S
C73 O68 1.255 . S
C74 O75 1.258 . S
C74 O76 1.256 . S
O75 Cd67 2.381 . S
O75 C74 1.258 . S
O76 Cd67 2.378 . S
O76 C74 1.256 . S
O77 Cd78 2.300 . S
O77 C84 1.275 1_556 S
Cd78 O77 2.300 . S
Cd78 O86 2.381 . S
Cd78 O87 2.378 . S
O79 Cd80 2.385 . S
O79 C84 1.255 . S
Cd80 O79 2.385 . S
Cd80 O81 2.317 . S
O81 Cd80 2.317 . S
O81 C82 1.232 . S
C82 O81 1.232 . S
C82 O83 1.218 . S
O83 C82 1.218 . S
C84 O77 1.275 1_554 S
C84 O79 1.255 . S
C85 O86 1.258 . S
C85 O87 1.256 . S
O86 Cd78 2.381 . S
O86 C85 1.258 . S
O87 Cd78 2.378 . S
O87 C85 1.256 . S
C88 C89 1.391 . S
C88 C90 1.394 . S
C88 H104 0.931 . S
C89 C88 1.391 . S
C89 C93 1.376 . S
C90 C88 1.394 . S
C90 C91 1.369 . S
C90 C94 1.531 . S
C91 C90 1.369 . S
C91 C92 1.410 . S
C91 C99 1.503 . S
C92 C91 1.410 . S
C92 C93 1.392 . S
C92 C95 1.511 . S
C93 C89 1.376 . S
C93 C92 1.392 . S
C93 H105 0.929 . S
C94 C90 1.531 . S
C94 H106 0.960 . S
C94 H107 0.962 . S
C94 H108 0.960 . S
C95 C92 1.511 . S
C95 H109 0.961 . S
C95 H110 0.961 . S
C95 H111 0.961 . S
C96 C97 1.370 . S
C96 C98 1.363 . S
C96 H112 0.931 . S
C97 C96 1.370 . S
C97 C101 1.408 . S
C98 C96 1.363 . S
C98 C99 1.370 . S
C98 C102 1.524 . S
C99 C91 1.503 . S
C99 C98 1.370 . S
C99 C100 1.403 . S
C100 C99 1.403 . S
C100 C101 1.404 . S
C100 C103 1.539 . S
C101 C97 1.408 . S
C101 C100 1.404 . S
C101 H113 0.930 . S
C102 C98 1.524 . S
C102 H114 0.956 . S
C102 H115 0.961 . S
C102 H116 0.961 . S
C103 C100 1.539 . S
C103 H117 0.958 . S
C103 H118 0.961 . S
C103 H119 0.960 . S
H104 C88 0.931 . S
H105 C93 0.929 . S
H106 C94 0.960 . S
H107 C94 0.962 . S
H108 C94 0.960 . S
H109 C95 0.961 . S
H110 C95 0.961 . S
H111 C95 0.961 . S
H112 C96 0.931 . S
H113 C101 0.930 . S
H114 C102 0.956 . S
H115 C102 0.961 . S
H116 C102 0.961 . S
H117 C103 0.958 . S
H118 C103 0.961 . S
H119 C103 0.960 . S
C120 C121 1.391 . S
C120 C122 1.394 . S
C120 H136 0.931 . S
C121 C120 1.391 . S
C121 C125 1.376 . S
C122 C120 1.394 . S
C122 C123 1.369 . S
C122 C126 1.531 . S
C123 C122 1.369 . S
C123 C124 1.410 . S
C123 C131 1.503 . S
C124 C123 1.410 . S
C124 C125 1.392 . S
C124 C127 1.511 . S
C125 C121 1.376 . S
C125 C124 1.392 . S
C125 H137 0.929 . S
C126 C122 1.531 . S
C126 H138 0.960 . S
C126 H139 0.962 . S
C126 H140 0.960 . S
C127 C124 1.511 . S
C127 H141 0.961 . S
C127 H142 0.961 . S
C127 H143 0.961 . S
C128 C129 1.370 . S
C128 C130 1.363 . S
C128 H144 0.931 . S
C129 C128 1.370 . S
C129 C133 1.408 . S
C130 C128 1.363 . S
C130 C131 1.370 . S
C130 C134 1.524 . S
C131 C123 1.503 . S
C131 C130 1.370 . S
C131 C132 1.403 . S
C132 C131 1.403 . S
C132 C133 1.404 . S
C132 C135 1.539 . S
C133 C129 1.408 . S
C133 C132 1.404 . S
C133 H145 0.930 . S
C134 C130 1.524 . S
C134 H146 0.956 . S
C134 H147 0.961 . S
C134 H148 0.961 . S
C135 C132 1.539 . S
C135 H149 0.958 . S
C135 H150 0.961 . S
C135 H151 0.960 . S
H136 C120 0.931 . S
H137 C125 0.929 . S
H138 C126 0.960 . S
H139 C126 0.962 . S
H140 C126 0.960 . S
H141 C127 0.961 . S
H142 C127 0.961 . S
H143 C127 0.961 . S
H144 C128 0.931 . S
H145 C133 0.930 . S
H146 C134 0.956 . S
H147 C134 0.961 . S
H148 C134 0.961 . S
H149 C135 0.958 . S
H150 C135 0.961 . S
H151 C135 0.960 . S
C152 C153 1.391 . S
C152 C154 1.394 . S
C152 H168 0.931 . S
C153 C152 1.391 . S
C153 C157 1.376 . S
C154 C152 1.394 . S
C154 C155 1.369 . S
C154 C158 1.531 . S
C155 C154 1.369 . S
C155 C156 1.410 . S
C155 C163 1.503 . S
C156 C155 1.410 . S
C156 C157 1.392 . S
C156 C159 1.511 . S
C157 C153 1.376 . S
C157 C156 1.392 . S
C157 H169 0.929 . S
C158 C154 1.531 . S
C158 H170 0.960 . S
C158 H171 0.962 . S
C158 H172 0.960 . S
C159 C156 1.511 . S
C159 H173 0.961 . S
C159 H174 0.961 . S
C159 H175 0.961 . S
C160 C161 1.370 . S
C160 C162 1.363 . S
C160 H176 0.931 . S
C161 C160 1.370 . S
C161 C165 1.408 . S
C162 C160 1.363 . S
C162 C163 1.370 . S
C162 C166 1.524 . S
C163 C155 1.503 . S
C163 C162 1.370 . S
C163 C164 1.403 . S
C164 C163 1.403 . S
C164 C165 1.404 . S
C164 C167 1.539 . S
C165 C161 1.408 . S
C165 C164 1.404 . S
C165 H177 0.930 . S
C166 C162 1.524 . S
C166 H178 0.956 . S
C166 H179 0.961 . S
C166 H180 0.961 . S
C167 C164 1.539 . S
C167 H181 0.958 . S
C167 H182 0.961 . S
C167 H183 0.960 . S
H168 C152 0.931 . S
H169 C157 0.929 . S
H170 C158 0.960 . S
H171 C158 0.962 . S
H172 C158 0.960 . S
H173 C159 0.961 . S
H174 C159 0.961 . S
H175 C159 0.961 . S
H176 C160 0.931 . S
H177 C165 0.930 . S
H178 C166 0.956 . S
H179 C166 0.961 . S
H180 C166 0.961 . S
H181 C167 0.958 . S
H182 C167 0.961 . S
H183 C167 0.960 . S
C184 C185 1.391 . S
C184 C186 1.394 . S
C184 H200 0.931 1_554 S
C185 C184 1.391 . S
C185 C189 1.376 . S
C186 C184 1.394 . S
C186 C187 1.372 . S
C186 C190 1.527 1_554 S
C187 C186 1.372 . S
C187 C188 1.410 . S
C187 C195 1.503 . S
C188 C187 1.410 . S
C188 C189 1.392 . S
C188 C191 1.511 . S
C189 C185 1.376 . S
C189 C188 1.392 . S
C189 H201 0.929 . S
C190 C186 1.527 1_556 S
C190 H202 0.966 . S
C190 H203 0.962 . S
C190 H204 0.960 . S
C191 C188 1.511 . S
C191 H205 0.961 . S
C191 H206 0.961 . S
C191 H207 0.961 . S
C192 C193 1.370 . S
C192 C194 1.363 . S
C192 H208 0.931 . S
C193 C192 1.370 . S
C193 C197 1.408 1_556 S
C194 C192 1.363 . S
C194 C195 1.370 1_556 S
C194 C198 1.524 . S
C195 C187 1.503 . S
C195 C194 1.370 1_554 S
C195 C196 1.403 . S
C196 C195 1.403 . S
C196 C197 1.404 . S
C196 C199 1.539 . S
C197 C193 1.408 1_554 S
C197 C196 1.404 . S
C197 H209 0.930 . S
C198 C194 1.524 . S
C198 H210 0.956 . S
C198 H211 0.961 . S
C198 H212 0.961 . S
C199 C196 1.539 . S
C199 H213 0.958 . S
C199 H214 0.961 . S
C199 H215 0.960 . S
H200 C184 0.931 1_556 S
H201 C189 0.929 . S
H202 C190 0.966 . S
H203 C190 0.962 . S
H204 C190 0.960 . S
H205 C191 0.961 . S
H206 C191 0.961 . S
H207 C191 0.961 . S
H208 C192 0.931 . S
H209 C197 0.930 . S
H210 C198 0.956 . S
H211 C198 0.961 . S
H212 C198 0.961 . S
H213 C199 0.958 . S
H214 C199 0.961 . S
H215 C199 0.960 . S
C216 C217 1.391 . S
C216 C218 1.394 . S
C216 H232 0.931 . S
C217 C216 1.391 . S
C217 C221 1.376 . S
C218 C216 1.394 . S
C218 C219 1.369 . S
C218 C222 1.531 . S
C219 C218 1.369 . S
C219 C220 1.410 . S
C219 C227 1.503 . S
C220 C219 1.410 . S
C220 C221 1.392 . S
C220 C223 1.511 . S
C221 C217 1.376 . S
C221 C220 1.392 . S
C221 H233 0.929 . S
C222 C218 1.531 . S
C222 H234 0.960 . S
C222 H235 0.962 . S
C222 H236 0.960 . S
C223 C220 1.511 . S
C223 H237 0.961 . S
C223 H238 0.961 . S
C223 H239 0.961 . S
C224 C225 1.370 . S
C224 C226 1.363 . S
C224 H240 0.931 . S
C225 C224 1.370 . S
C225 C229 1.408 . S
C226 C224 1.363 . S
C226 C227 1.370 . S
C226 C230 1.524 . S
C227 C219 1.503 . S
C227 C226 1.370 . S
C227 C228 1.403 . S
C228 C227 1.403 . S
C228 C229 1.404 . S
C228 C231 1.539 . S
C229 C225 1.408 . S
C229 C228 1.404 . S
C229 H241 0.930 . S
C230 C226 1.524 . S
C230 H242 0.956 . S
C230 H243 0.961 . S
C230 H244 0.961 . S
C231 C228 1.539 . S
C231 H245 0.958 . S
C231 H246 0.961 . S
C231 H247 0.960 . S
H232 C216 0.931 . S
H233 C221 0.929 . S
H234 C222 0.960 . S
H235 C222 0.962 . S
H236 C222 0.960 . S
H237 C223 0.961 . S
H238 C223 0.961 . S
H239 C223 0.961 . S
H240 C224 0.931 . S
H241 C229 0.930 . S
H242 C230 0.956 . S
H243 C230 0.961 . S
H244 C230 0.961 . S
H245 C231 0.958 . S
H246 C231 0.961 . S
H247 C231 0.960 . S
C248 C249 1.391 . S
C248 C250 1.394 . S
C248 H264 0.931 . S
C249 C248 1.391 . S
C249 C253 1.376 . S
C250 C248 1.394 . S
C250 C251 1.369 . S
C250 C254 1.531 . S
C251 C250 1.369 . S
C251 C252 1.410 . S
C251 C259 1.503 . S
C252 C251 1.410 . S
C252 C253 1.392 . S
C252 C255 1.511 . S
C253 C249 1.376 . S
C253 C252 1.392 . S
C253 H265 0.929 . S
C254 C250 1.531 . S
C254 H266 0.960 . S
C254 H267 0.962 . S
C254 H268 0.960 . S
C255 C252 1.511 . S
C255 H269 0.961 . S
C255 H270 0.961 . S
C255 H271 0.961 . S
C256 C257 1.370 . S
C256 C258 1.363 . S
C256 H272 0.931 . S
C257 C256 1.370 . S
C257 C261 1.408 . S
C258 C256 1.363 . S
C258 C259 1.370 . S
C258 C262 1.524 . S
C259 C251 1.503 . S
C259 C258 1.370 . S
C259 C260 1.403 . S
C260 C259 1.403 . S
C260 C261 1.404 . S
C260 C263 1.539 . S
C261 C257 1.408 . S
C261 C260 1.404 . S
C261 H273 0.930 . S
C262 C258 1.524 . S
C262 H274 0.956 . S
C262 H275 0.961 . S
C262 H276 0.961 . S
C263 C260 1.539 . S
C263 H277 0.958 . S
C263 H278 0.961 . S
C263 H279 0.960 . S
H264 C248 0.931 . S
H265 C253 0.929 . S
H266 C254 0.960 . S
H267 C254 0.962 . S
H268 C254 0.960 . S
H269 C255 0.961 . S
H270 C255 0.961 . S
H271 C255 0.961 . S
H272 C256 0.931 . S
H273 C261 0.930 . S
H274 C262 0.956 . S
H275 C262 0.961 . S
H276 C262 0.961 . S
H277 C263 0.958 . S
H278 C263 0.961 . S
H279 C263 0.960 . S
C280 C281 1.391 . S
C280 C282 1.394 . S
C280 H296 0.931 . S
C281 C280 1.391 . S
C281 C285 1.376 . S
C282 C280 1.394 . S
C282 C283 1.369 . S
C282 C286 1.531 . S
C283 C282 1.369 . S
C283 C284 1.410 . S
C283 C291 1.503 . S
C284 C283 1.410 . S
C284 C285 1.392 . S
C284 C287 1.511 . S
C285 C281 1.376 . S
C285 C284 1.392 . S
C285 H297 0.929 . S
C286 C282 1.531 . S
C286 H298 0.960 . S
C286 H299 0.962 . S
C286 H300 0.960 . S
C287 C284 1.511 . S
C287 H301 0.961 . S
C287 H302 0.961 . S
C287 H303 0.961 . S
C288 C289 1.370 . S
C288 C290 1.363 . S
C288 H304 0.931 . S
C289 C288 1.370 . S
C289 C293 1.408 . S
C290 C288 1.363 . S
C290 C291 1.370 . S
C290 C294 1.524 . S
C291 C283 1.503 . S
C291 C290 1.370 . S
C291 C292 1.403 . S
C292 C291 1.403 . S
C292 C293 1.404 . S
C292 C295 1.539 . S
C293 C289 1.408 . S
C293 C292 1.404 . S
C293 H305 0.930 . S
C294 C290 1.524 . S
C294 H306 0.956 . S
C294 H307 0.961 . S
C294 H308 0.961 . S
C295 C292 1.539 . S
C295 H309 0.958 . S
C295 H310 0.961 . S
C295 H311 0.960 . S
H296 C280 0.931 . S
H297 C285 0.929 . S
H298 C286 0.960 . S
H299 C286 0.962 . S
H300 C286 0.960 . S
H301 C287 0.961 . S
H302 C287 0.961 . S
H303 C287 0.961 . S
H304 C288 0.931 . S
H305 C293 0.930 . S
H306 C294 0.956 . S
H307 C294 0.961 . S
H308 C294 0.961 . S
H309 C295 0.958 . S
H310 C295 0.961 . S
H311 C295 0.960 . S
C312 C313 1.391 . S
C312 C314 1.394 . S
C312 H328 0.931 . S
C313 C312 1.391 . S
C313 C317 1.376 . S
C314 C312 1.394 . S
C314 C315 1.369 . S
C314 C318 1.531 . S
C315 C314 1.369 . S
C315 C316 1.410 . S
C315 C323 1.503 . S
C316 C315 1.410 . S
C316 C317 1.392 . S
C316 C319 1.511 . S
C317 C313 1.376 . S
C317 C316 1.392 . S
C317 H329 0.929 . S
C318 C314 1.531 . S
C318 H330 0.960 . S
C318 H331 0.962 . S
C318 H332 0.960 . S
C319 C316 1.511 . S
C319 H333 0.961 . S
C319 H334 0.961 . S
C319 H335 0.961 . S
C320 C321 1.370 . S
C320 C322 1.363 . S
C320 H336 0.931 . S
C321 C320 1.370 . S
C321 C325 1.408 . S
C322 C320 1.363 . S
C322 C323 1.370 . S
C322 C326 1.524 . S
C323 C315 1.503 . S
C323 C322 1.370 . S
C323 C324 1.403 . S
C324 C323 1.403 . S
C324 C325 1.404 . S
C324 C327 1.539 . S
C325 C321 1.408 . S
C325 C324 1.404 . S
C325 H337 0.930 . S
C326 C322 1.524 . S
C326 H338 0.956 . S
C326 H339 0.961 . S
C326 H340 0.961 . S
C327 C324 1.539 . S
C327 H341 0.958 . S
C327 H342 0.961 . S
C327 H343 0.960 . S
H328 C312 0.931 . S
H329 C317 0.929 . S
H330 C318 0.960 . S
H331 C318 0.962 . S
H332 C318 0.960 . S
H333 C319 0.961 . S
H334 C319 0.961 . S
H335 C319 0.961 . S
H336 C320 0.931 . S
H337 C325 0.930 . S
H338 C326 0.956 . S
H339 C326 0.961 . S
H340 C326 0.961 . S
H341 C327 0.958 . S
H342 C327 0.961 . S
H343 C327 0.960 . S
C344 C345 1.391 . S
C344 C346 1.394 . S
C344 H360 0.931 . S
C345 C344 1.391 . S
C345 C349 1.376 . S
C346 C344 1.394 . S
C346 C347 1.369 . S
C346 C350 1.531 1_554 S
C347 C346 1.369 . S
C347 C348 1.410 1_455 S
C347 C355 1.503 1_454 S
C348 C347 1.410 1_655 S
C348 C349 1.392 1_655 S
C348 C351 1.511 . S
C349 C345 1.376 . S
C349 C348 1.392 1_455 S
C349 H361 0.929 . S
C350 C346 1.531 1_556 S
C350 H362 0.960 . S
C350 H363 0.962 . S
C350 H364 0.960 . S
C351 C348 1.511 . S
C351 H365 0.961 . S
C351 H366 0.961 . S
C351 H367 0.961 . S
C352 C353 1.370 . S
C352 C354 1.363 . S
C352 H368 0.931 . S
C353 C352 1.370 . S
C353 C357 1.408 . S
C354 C352 1.363 . S
C354 C355 1.370 . S
C354 C358 1.529 . S
C355 C347 1.503 1_656 S
C355 C354 1.370 . S
C355 C356 1.403 . S
C356 C355 1.403 . S
C356 C357 1.404 . S
C356 C359 1.539 1_655 S
C357 C353 1.408 . S
C357 C356 1.404 . S
C357 H369 0.930 . S
C358 C354 1.529 . S
C358 H370 0.955 1_556 S
C358 H371 0.953 1_556 S
C358 H372 0.963 . S
C359 C356 1.539 1_455 S
C359 H373 0.958 . S
C359 H374 0.961 . S
C359 H375 0.960 . S
H360 C344 0.931 . S
H361 C349 0.929 . S
H362 C350 0.960 . S
H363 C350 0.962 . S
H364 C350 0.960 . S
H365 C351 0.961 . S
H366 C351 0.961 . S
H367 C351 0.961 . S
H368 C352 0.931 . S
H369 C357 0.930 . S
H370 C358 0.955 1_554 S
H371 C358 0.953 1_554 S
H372 C358 0.963 . S
H373 C359 0.958 . S
H374 C359 0.961 . S
H375 C359 0.960 . S
C376 C377 1.391 . S
C376 C378 1.394 1_545 S
C376 H392 0.931 . S
C377 C376 1.391 . S
C377 C381 1.376 . S
C378 C376 1.394 1_565 S
C378 C379 1.369 1_565 S
C378 C382 1.531 . S
C379 C378 1.369 1_545 S
C379 C380 1.410 . S
C379 C387 1.503 1_545 S
C380 C379 1.410 . S
C380 C381 1.392 . S
C380 C383 1.511 . S
C381 C377 1.376 . S
C381 C380 1.392 . S
C381 H393 0.929 . S
C382 C378 1.531 . S
C382 H394 0.960 . S
C382 H395 0.962 . S
C382 H396 0.960 . S
C383 C380 1.511 . S
C383 H397 0.961 . S
C383 H398 0.961 . S
C383 H399 0.961 . S
C384 C385 1.370 . S
C384 C386 1.363 1_565 S
C384 H400 0.931 . S
C385 C384 1.370 . S
C385 C389 1.408 . S
C386 C384 1.363 1_545 S
C386 C387 1.370 1_545 S
C386 C390 1.524 . S
C387 C379 1.503 1_565 S
C387 C386 1.370 1_565 S
C387 C388 1.403 . S
C388 C387 1.403 . S
C388 C389 1.404 . S
C388 C391 1.539 . S
C389 C385 1.408 . S
C389 C388 1.404 . S
C389 H401 0.930 . S
C390 C386 1.524 . S
C390 H402 0.956 . S
C390 H403 0.961 . S
C390 H404 0.961 . S
C391 C388 1.539 . S
C391 H405 0.958 . S
C391 H406 0.961 . S
C391 H407 0.960 . S
H392 C376 0.931 . S
H393 C381 0.929 . S
H394 C382 0.960 . S
H395 C382 0.962 . S
H396 C382 0.960 . S
H397 C383 0.961 . S
H398 C383 0.961 . S
H399 C383 0.961 . S
H400 C384 0.931 . S
H401 C389 0.930 . S
H402 C390 0.956 . S
H403 C390 0.961 . S
H404 C390 0.961 . S
H405 C391 0.958 . S
H406 C391 0.961 . S
H407 C391 0.960 . S
C408 C409 1.391 . S
C408 C410 1.394 1_655 S
C408 H424 0.939 . S
C409 C408 1.391 . S
C409 C413 1.376 . S
C410 C408 1.394 1_455 S
C410 C411 1.369 1_455 S
C410 C414 1.531 . S
C411 C410 1.369 1_655 S
C411 C412 1.410 . S
C411 C419 1.503 1_655 S
C412 C411 1.410 . S
C412 C413 1.392 . S
C412 C415 1.511 . S
C413 C409 1.376 . S
C413 C412 1.392 . S
C413 H425 0.929 . S
C414 C410 1.531 . S
C414 H426 0.960 . S
C414 H427 0.962 . S
C414 H428 0.960 . S
C415 C412 1.511 . S
C415 H429 0.961 . S
C415 H430 0.961 . S
C415 H431 0.961 . S
C416 C417 1.370 . S
C416 C418 1.363 . S
C416 H432 0.931 . S
C417 C416 1.370 . S
C417 C421 1.408 . S
C418 C416 1.363 . S
C418 C419 1.370 . S
C418 C422 1.524 . S
C419 C411 1.503 1_455 S
C419 C418 1.370 . S
C419 C420 1.403 . S
C420 C419 1.403 . S
C420 C421 1.404 . S
C420 C423 1.539 1_455 S
C421 C417 1.408 . S
C421 C420 1.404 . S
C421 H433 0.930 . S
C422 C418 1.524 . S
C422 H434 0.956 . S
C422 H435 0.984 . S
C422 H436 0.961 . S
C423 C420 1.539 1_655 S
C423 H437 0.958 1_655 S
C423 H438 0.961 . S
C423 H439 0.960 . S
H424 C408 0.939 . S
H425 C413 0.929 . S
H426 C414 0.960 . S
H427 C414 0.962 . S
H428 C414 0.960 . S
H429 C415 0.961 . S
H430 C415 0.961 . S
H431 C415 0.961 . S
H432 C416 0.931 . S
H433 C421 0.930 . S
H434 C422 0.956 . S
H435 C422 0.984 . S
H436 C422 0.961 . S
H437 C423 0.958 1_455 S
H438 C423 0.961 . S
H439 C423 0.960 . S
C440 C441 1.391 . S
C440 C442 1.394 . S
C440 H456 0.931 . S
C441 C440 1.391 . S
C441 C445 1.376 . S
C442 C440 1.394 . S
C442 C443 1.369 . S
C442 C446 1.531 . S
C443 C442 1.369 . S
C443 C444 1.410 . S
C443 C451 1.503 1_565 S
C444 C443 1.410 . S
C444 C445 1.392 . S
C444 C447 1.511 1_565 S
C445 C441 1.376 . S
C445 C444 1.392 . S
C445 H457 0.929 . S
C446 C442 1.531 . S
C446 H458 0.960 . S
C446 H459 0.962 . S
C446 H460 0.960 . S
C447 C444 1.511 1_545 S
C447 H461 0.961 . S
C447 H462 0.961 . S
C447 H463 0.961 1_545 S
C448 C449 1.370 . S
C448 C450 1.363 . S
C448 H464 0.931 . S
C449 C448 1.370 . S
C449 C453 1.408 . S
C450 C448 1.363 . S
C450 C451 1.370 . S
C450 C454 1.524 . S
C451 C443 1.503 1_545 S
C451 C450 1.370 . S
C451 C452 1.403 1_545 S
C452 C451 1.403 1_565 S
C452 C453 1.404 1_565 S
C452 C455 1.539 . S
C453 C449 1.408 . S
C453 C452 1.404 1_545 S
C453 H465 0.924 1_545 S
C454 C450 1.524 . S
C454 H466 0.956 . S
C454 H467 0.961 . S
C454 H468 0.961 . S
C455 C452 1.539 . S
C455 H469 0.958 . S
C455 H470 0.961 . S
C455 H471 0.960 . S
H456 C440 0.931 . S
H457 C445 0.929 . S
H458 C446 0.960 . S
H459 C446 0.962 . S
H460 C446 0.960 . S
H461 C447 0.961 . S
H462 C447 0.961 . S
H463 C447 0.961 1_565 S
H464 C448 0.931 . S
H465 C453 0.924 1_565 S
H466 C454 0.956 . S
H467 C454 0.961 . S
H468 C454 0.961 . S
H469 C455 0.958 . S
H470 C455 0.961 . S
H471 C455 0.960 . S
C89 C7 1.468 . S
C97 C51 1.500 . S
C121 C18 1.483 . S
C129 C62 1.495 . S
C153 C29 1.510 . S
C161 C73 1.483 . S
C185 C84 1.510 . S
C193 C40 1.483 . S
C217 C8 1.510 . S
C225 C63 1.513 . S
C249 C19 1.511 . S
C257 C74 1.512 . S
C281 C30 1.504 . S
C289 C85 1.515 . S
C313 C41 1.519 . S
C321 C52 1.512 . S
C345 C5 1.376 . S
C353 C71 1.346 . S
C377 C16 1.293 . S
C385 C82 1.358 . S
C409 C27 1.350 . S
C417 C49 1.331 . S
C441 C38 1.395 . S
C449 C60 1.330 . S
