# Generated by pormake.
# Topology eci, (8)-cn, num edge types: 1
# Building blocks:
#     Node 0, Type 0, BuildingBlock: TAGTUT_clean_sbu_3, # of connection points: 8
#     Node 1, Type 0, BuildingBlock: TAGTUT_clean_sbu_3, # of connection points: 8
#     Node 2, Type 0, BuildingBlock: TAGTUT_clean_sbu_3, # of connection points: 8
#     Node 3, Type 0, BuildingBlock: TAGTUT_clean_sbu_3, # of connection points: 8
#     Edge 4, Type (0, 0), BuildingBlock: TEMPAE_clean_linker_10, # of connection points: 2
#     Edge 5, Type (0, 0), BuildingBlock: TEMPAE_clean_linker_10, # of connection points: 2
#     Edge 6, Type (0, 0), BuildingBlock: TEMPAE_clean_linker_10, # of connection points: 2
#     Edge 7, Type (0, 0), BuildingBlock: TEMPAE_clean_linker_10, # of connection points: 2
#     Edge 8, Type (0, 0), BuildingBlock: TEMPAE_clean_linker_10, # of connection points: 2
#     Edge 9, Type (0, 0), BuildingBlock: TEMPAE_clean_linker_10, # of connection points: 2
#     Edge 10, Type (0, 0), BuildingBlock: TEMPAE_clean_linker_10, # of connection points: 2
#     Edge 11, Type (0, 0), BuildingBlock: TEMPAE_clean_linker_10, # of connection points: 2
#     Edge 12, Type (0, 0), BuildingBlock: TEMPAE_clean_linker_10, # of connection points: 2
#     Edge 13, Type (0, 0), BuildingBlock: TEMPAE_clean_linker_10, # of connection points: 2
#     Edge 14, Type (0, 0), BuildingBlock: TEMPAE_clean_linker_10, # of connection points: 2
#     Edge 15, Type (0, 0), BuildingBlock: TEMPAE_clean_linker_10, # of connection points: 2
#     Edge 16, Type (0, 0), BuildingBlock: TEMPAE_clean_linker_10, # of connection points: 2
#     Edge 17, Type (0, 0), BuildingBlock: TEMPAE_clean_linker_10, # of connection points: 2
#     Edge 18, Type (0, 0), BuildingBlock: TEMPAE_clean_linker_10, # of connection points: 2
#     Edge 19, Type (0, 0), BuildingBlock: TEMPAE_clean_linker_10, # of connection points: 2
# Relax obj value: 0.304
# Max RMSD: 0.269
# Mean RMSD: 0.266
data_MOF--net-eci--node1-TAGTUT_clean_sbu_3--edge1-TEMPAE_clean_linker_10
_symmetry_space_group_name_H-M    P1
_symmetry_Int_Tables_number       1
_symmetry_cell_setting            triclinic
loop_
_symmetry_equiv_pos_as_xyz
'x, y, z'
_cell_length_a     31.894025
_cell_length_b     32.257756
_cell_length_c     16.171805
_cell_angle_alpha  88.942403
_cell_angle_beta   89.713538
_cell_angle_gamma 90.117128
loop_
_atom_site_label
_atom_site_type_symbol
_atom_site_fract_x
_atom_site_fract_y
_atom_site_fract_z
_atom_type_partial_charge
C0 C 0.76473 0.87326 0.06316 0.0
C1 C 0.66462 0.75312 0.00323 0.0
C2 C 0.78033 0.67539 0.04322 0.0
Mg3 Mg 0.86222 0.88577 0.03226 0.0
Mg4 Mg 0.9136 0.84317 0.88272 0.0
O5 O 0.879 0.83373 0.97499 0.0
Mg6 Mg 0.8231 0.80507 0.96885 0.0
O7 O 0.76526 0.78051 0.9733 0.0
Mg8 Mg 0.75641 0.7739 0.09669 0.0
Mg9 Mg 0.74844 0.73558 0.91075 0.0
C10 C 0.88934 0.7475 0.86586 0.0
O11 O 0.81407 0.81568 0.82721 0.0
O12 O 0.93216 0.89712 0.04851 0.0
O13 O 0.7761 0.7584 0.79707 0.0
O14 O 0.86428 0.92658 0.915 0.0
O15 O 0.96826 0.86357 0.95009 0.0
O16 O 0.89107 0.89396 0.80774 0.0
O17 O 0.8272 0.78947 0.10802 0.0
O18 O 0.86079 0.84625 0.14883 0.0
C19 C 0.8442 0.81097 0.16466 0.0
C20 C 0.96663 0.88582 0.01481 0.0
O21 O 0.86005 0.74676 0.92164 0.0
O22 O 0.68578 0.76377 0.06688 0.0
O23 O 0.90829 0.78073 0.84143 0.0
O24 O 0.77157 0.7031 0.09612 0.0
O25 O 0.68208 0.74055 0.93667 0.0
O26 O 0.77626 0.68179 0.96586 0.0
O27 O 0.79394 0.86586 0.01096 0.0
O28 O 0.74451 0.84371 0.099 0.0
C29 C 0.87476 0.92615 0.83895 0.0
C30 C 0.79842 0.78998 0.77537 0.0
C31 C 0.61438 0.25739 0.26239 0.0
C32 C 0.74332 0.17054 0.21519 0.0
C33 C 0.81617 0.27971 0.27846 0.0
Mg34 Mg 0.5959 0.35355 0.24564 0.0
Mg35 Mg 0.64674 0.4156 0.11836 0.0
O36 O 0.6508 0.3768 0.20475 0.0
Mg37 Mg 0.68404 0.32465 0.19622 0.0
O38 O 0.71262 0.26986 0.19697 0.0
Mg39 Mg 0.71345 0.25515 0.31794 0.0
Mg40 Mg 0.75923 0.25657 0.13479 0.0
C41 C 0.7453 0.39869 0.12284 0.0
O42 O 0.68097 0.32142 0.05359 0.0
O43 O 0.57774 0.42086 0.27164 0.0
O44 O 0.73884 0.28444 0.02086 0.0
O45 O 0.56315 0.35939 0.1207 0.0
O46 O 0.6189 0.46305 0.19359 0.0
O47 O 0.60127 0.39556 0.02949 0.0
O48 O 0.69163 0.32343 0.33692 0.0
O49 O 0.62798 0.3474 0.36917 0.0
C50 C 0.66411 0.33408 0.39037 0.0
C51 C 0.59084 0.45709 0.24966 0.0
O52 O 0.74283 0.36647 0.17121 0.0
O53 O 0.73135 0.1876 0.28245 0.0
O54 O 0.7131 0.41704 0.09185 0.0
O55 O 0.78525 0.27271 0.32807 0.0
O56 O 0.75389 0.19127 0.15024 0.0
O57 O 0.81229 0.27772 0.20023 0.0
O58 O 0.6228 0.28956 0.21818 0.0
O59 O 0.64291 0.23837 0.30364 0.0
C60 C 0.5682 0.3751 0.04841 0.0
C61 C 0.70675 0.30619 0.00073 0.0
C62 C 0.16502 0.173 0.31129 0.0
C63 C 0.09181 0.04867 0.43683 0.0
C64 C 0.06557 0.12399 0.64771 0.0
Mg65 Mg 0.21443 0.2502 0.39084 0.0
Mg66 Mg 0.26423 0.23896 0.56762 0.0
O67 O 0.21362 0.23401 0.51171 0.0
Mg68 Mg 0.18373 0.17963 0.50679 0.0
O69 O 0.14969 0.12825 0.49379 0.0
Mg70 Mg 0.09525 0.15186 0.45328 0.0
Mg71 Mg 0.14512 0.08689 0.57494 0.0
C72 C 0.20943 0.18952 0.70114 0.0
O73 O 0.24204 0.13623 0.52839 0.0
O74 O 0.23616 0.31484 0.43373 0.0
O75 O 0.21082 0.08447 0.6032 0.0
O76 O 0.28481 0.23036 0.37314 0.0
O77 O 0.26954 0.30545 0.55531 0.0
O78 O 0.31171 0.2113 0.49488 0.0
O79 O 0.12262 0.21556 0.48861 0.0
O80 O 0.14434 0.26845 0.40889 0.0
C81 C 0.11495 0.24909 0.44811 0.0
C82 C 0.25576 0.32887 0.49661 0.0
O83 O 0.18077 0.17992 0.64901 0.0
O84 O 0.07775 0.08505 0.41923 0.0
O85 O 0.24363 0.20827 0.68082 0.0
O86 O 0.0612 0.14201 0.5774 0.0
O87 O 0.11923 0.0418 0.49304 0.0
O88 O 0.09859 0.10339 0.66484 0.0
O89 O 0.19144 0.18342 0.36634 0.0
O90 O 0.12852 0.15961 0.33041 0.0
C91 C 0.31496 0.21551 0.41667 0.0
C92 C 0.24355 0.10306 0.57438 0.0
C93 C 0.34067 0.6876 0.55434 0.0
C94 C 0.46114 0.60973 0.68594 0.0
C95 C 0.37321 0.5673 0.87079 0.0
Mg96 Mg 0.25468 0.72553 0.62483 0.0
Mg97 Mg 0.24677 0.76385 0.8115 0.0
O98 O 0.26427 0.71945 0.74809 0.0
Mg99 Mg 0.32123 0.69305 0.75137 0.0
O100 O 0.37567 0.66188 0.7419 0.0
Mg101 Mg 0.35649 0.61092 0.68322 0.0
Mg102 Mg 0.41314 0.65112 0.82759 0.0
C103 C 0.29691 0.70886 0.94514 0.0
O104 O 0.36104 0.74963 0.79807 0.0
O105 O 0.18415 0.73514 0.65667 0.0
O106 O 0.40966 0.71328 0.8721 0.0
O107 O 0.26968 0.79666 0.62549 0.0
O108 O 0.18039 0.75737 0.78765 0.0
O109 O 0.27316 0.81859 0.75544 0.0
O110 O 0.28982 0.63304 0.71236 0.0
O111 O 0.24254 0.65553 0.62126 0.0
C112 C 0.26094 0.62605 0.66031 0.0
C113 C 0.16298 0.74497 0.7212 0.0
O114 O 0.31211 0.68283 0.89321 0.0
O115 O 0.42559 0.59801 0.6581 0.0
O116 O 0.27499 0.74062 0.92381 0.0
O117 O 0.35923 0.5683 0.79711 0.0
O118 O 0.46501 0.63216 0.75 0.0
O119 O 0.39223 0.59846 0.90048 0.0
O120 O 0.32518 0.7095 0.61207 0.0
O121 O 0.35495 0.65136 0.56856 0.0
C122 C 0.27748 0.82486 0.67795 0.0
C123 C 0.39117 0.74725 0.85142 0.0
C124 C 0.80043 0.79212 0.28688 0.0
C125 C 0.84006 0.79928 0.2522 0.0
C126 C 0.79503 0.7909 0.37303 0.0
C127 C 0.83031 0.79609 0.42485 0.0
C128 C 0.87072 0.80114 0.38973 0.0
C129 C 0.87499 0.80331 0.30358 0.0
C130 C 0.7514 0.78582 0.40853 0.0
C131 C 0.90923 0.80537 0.44298 0.0
C132 C 0.81157 0.83143 0.645 0.0
C133 C 0.80951 0.79325 0.68716 0.0
C134 C 0.81856 0.83299 0.55905 0.0
C135 C 0.82493 0.79558 0.51589 0.0
C136 C 0.82506 0.75725 0.55941 0.0
C137 C 0.81658 0.75654 0.64414 0.0
C138 C 0.8178 0.87439 0.51407 0.0
C139 C 0.83349 0.7169 0.51637 0.0
H140 H 0.77337 0.79012 0.24691 0.0
H141 H 0.90556 0.80935 0.27614 0.0
H142 H 0.75005 0.7582 0.45034 0.0
H143 H 0.74337 0.81319 0.44601 0.0
H144 H 0.72733 0.78235 0.35971 0.0
H145 H 0.93861 0.80632 0.40576 0.0
H146 H 0.90723 0.83421 0.47904 0.0
H147 H 0.91108 0.77908 0.48805 0.0
H148 H 0.8061 0.85974 0.67849 0.0
H149 H 0.8156 0.72696 0.67714 0.0
H150 H 0.79202 0.87476 0.46819 0.0
H151 H 0.84752 0.87937 0.47939 0.0
H152 H 0.81324 0.90059 0.55683 0.0
H153 H 0.80797 0.71052 0.47201 0.0
H154 H 0.83578 0.69023 0.56058 0.0
H155 H 0.86317 0.71907 0.48042 0.0
C156 C 0.63871 0.31827 0.53172 0.0
C157 C 0.67213 0.32901 0.47898 0.0
C158 C 0.64407 0.31628 0.61725 0.0
C159 C 0.68364 0.32611 0.65063 0.0
C160 C 0.71759 0.33707 0.59768 0.0
C161 C 0.71154 0.33784 0.51182 0.0
C162 C 0.60757 0.30309 0.6717 0.0
C163 C 0.76003 0.34826 0.63177 0.0
C164 C 0.68442 0.34947 0.87945 0.0
C165 C 0.69904 0.31179 0.9121 0.0
C166 C 0.68026 0.35515 0.79365 0.0
C167 C 0.68999 0.32194 0.7407 0.0
C168 C 0.70389 0.28361 0.77398 0.0
C169 C 0.70867 0.27918 0.85932 0.0
C170 C 0.66586 0.39659 0.75962 0.0
C171 C 0.7132 0.24708 0.71963 0.0
H172 H 0.60826 0.31118 0.50585 0.0
H173 H 0.73713 0.3466 0.47065 0.0
H174 H 0.61591 0.2747 0.70772 0.0
H175 H 0.60033 0.3276 0.71676 0.0
H176 H 0.57883 0.29665 0.63553 0.0
H177 H 0.78251 0.35796 0.58237 0.0
H178 H 0.75676 0.37385 0.67628 0.0
H179 H 0.7734 0.32133 0.66608 0.0
H180 H 0.67742 0.3747 0.92067 0.0
H181 H 0.71963 0.24989 0.88506 0.0
H182 H 0.63578 0.39292 0.72643 0.0
H183 H 0.68914 0.40889 0.71416 0.0
H184 H 0.66143 0.41972 0.80896 0.0
H185 H 0.68481 0.23874 0.68413 0.0
H186 H 0.72351 0.21934 0.7558 0.0
H187 H 0.7381 0.25535 0.67412 0.0
C188 C 0.23668 0.16702 0.83763 0.0
C189 C 0.20282 0.18026 0.78919 0.0
C190 C 0.23263 0.16279 0.92352 0.0
C191 C 0.19418 0.17336 0.96148 0.0
C192 C 0.15951 0.18567 0.91244 0.0
C193 C 0.1641 0.18836 0.8263 0.0
C194 C 0.26968 0.1479 0.97364 0.0
C195 C 0.11817 0.19763 0.95112 0.0
C196 C 0.167 0.13716 0.17829 0.0
C197 C 0.17711 0.17221 0.22404 0.0
C198 C 0.17404 0.13647 0.09303 0.0
C199 C 0.19035 0.17225 0.05262 0.0
C200 C 0.20156 0.20747 0.09898 0.0
C201 C 0.19536 0.20677 0.18495 0.0
C202 C 0.16311 0.09786 0.0461 0.0
C203 C 0.21836 0.24639 0.05737 0.0
H204 H 0.2665 0.16039 0.80823 0.0
H205 H 0.1381 0.19884 0.78839 0.0
H206 H 0.2812 0.17328 0.01297 0.0
H207 H 0.26016 0.12188 0.01553 0.0
H208 H 0.29597 0.13741 0.9339 0.0
H209 H 0.09431 0.20629 0.9041 0.0
H210 H 0.10567 0.1716 -0.01032 0.0
H211 H 0.12292 0.22429 -0.00749 0.0
H212 H 0.15318 0.11031 0.20939 0.0
H213 H 0.20281 0.23384 0.2209 0.0
H214 H 0.19003 0.08833 0.00715 0.0
H215 H 0.13643 0.10429 0.00408 0.0
H216 H 0.15432 0.07153 0.08801 0.0
H217 H 0.24697 0.23928 0.0211 0.0
H218 H 0.22609 0.27079 0.10247 0.0
H219 H 0.19475 0.2589 0.01337 0.0
C220 C 0.31613 0.7424 0.07525 0.0
C221 C 0.30801 0.70568 0.03306 0.0
C222 C 0.3245 0.74186 0.15983 0.0
C223 C 0.32305 0.70376 0.20404 0.0
C224 C 0.31553 0.66632 0.16176 0.0
C225 C 0.30876 0.66765 0.07588 0.0
C226 C 0.33417 0.78218 0.20199 0.0
C227 C 0.3133 0.62518 0.20762 0.0
C228 C 0.37225 0.69527 0.41584 0.0
C229 C 0.33726 0.70015 0.46737 0.0
C230 C 0.36833 0.69747 0.32977 0.0
C231 C 0.32819 0.70353 0.29494 0.0
C232 C 0.29292 0.70977 0.34693 0.0
C233 C 0.29799 0.70838 0.43302 0.0
C234 C 0.40684 0.69196 0.27633 0.0
C235 C 0.24959 0.71597 0.3117 0.0
H236 H 0.31611 0.77183 0.0417 0.0
H237 H 0.30237 0.63935 0.04303 0.0
H238 H 0.30869 0.78955 0.24625 0.0
H239 H 0.3636 0.77931 0.23793 0.0
H240 H 0.33757 0.80852 0.15722 0.0
H241 H 0.30773 0.59893 0.16552 0.0
H242 H 0.34286 0.61945 0.24172 0.0
H243 H 0.28759 0.62584 0.2541 0.0
H244 H 0.40251 0.6883 0.4431 0.0
H245 H 0.27087 0.71097 0.47318 0.0
H246 H 0.40936 0.71762 0.22994 0.0
H247 H 0.40428 0.66267 0.24184 0.0
H248 H 0.43612 0.69095 0.31327 0.0
H249 H 0.24931 0.74332 0.26914 0.0
H250 H 0.22554 0.72052 0.36063 0.0
H251 H 0.24065 0.68859 0.27508 0.0
C252 C 0.44218 0.80294 0.83507 0.0
C253 C 0.41148 0.78408 0.88528 0.0
C254 C 0.48258 0.81007 0.86636 0.0
C255 C 0.49164 0.79816 0.9492 0.0
C256 C 0.45812 0.78819 0.00369 0.0
C257 C 0.41785 0.78265 0.97109 0.0
C258 C 0.51685 0.82394 0.80753 0.0
C259 C 0.46559 0.77619 0.09302 0.0
C260 C 0.59164 0.73469 0.96315 0.0
C261 C 0.61923 0.76207 0.00103 0.0
C262 C 0.54961 0.7456 0.94962 0.0
C263 C 0.53523 0.78563 0.97146 0.0
C264 C 0.56287 0.81314 0.01132 0.0
C265 C 0.60445 0.80078 0.02661 0.0
C266 C 0.52088 0.71451 0.90987 0.0
C267 C 0.5496 0.85646 0.0333 0.0
H268 H 0.43712 0.80522 0.76886 0.0
H269 H 0.39386 0.76884 0.01045 0.0
H270 H 0.53982 0.84403 0.83911 0.0
H271 H 0.53384 0.79635 0.78486 0.0
H272 H 0.50389 0.84107 0.75321 0.0
H273 H 0.43669 0.77999 0.13081 0.0
H274 H 0.47492 0.74307 0.09673 0.0
H275 H 0.49114 0.7948 0.12015 0.0
H276 H 0.60315 0.70489 0.94307 0.0
H277 H 0.62609 0.82241 0.05426 0.0
H278 H 0.51108 0.72623 0.84802 0.0
H279 H 0.49214 0.71008 0.94799 0.0
H280 H 0.53611 0.68386 0.90221 0.0
H281 H 0.55136 0.87659 -0.02301 0.0
H282 H 0.5704 0.86987 0.08082 0.0
H283 H 0.51678 0.85718 0.05619 0.0
C284 C 0.72053 0.10942 0.13858 0.0
C285 C 0.74063 0.12545 0.20775 0.0
C286 C 0.72068 0.06694 0.12378 0.0
C287 C 0.74247 0.04007 0.17851 0.0
C288 C 0.76138 0.05589 0.25059 0.0
C289 C 0.75976 0.09869 0.26503 0.0
C290 C 0.69939 0.05119 0.04718 0.0
C291 C 0.78566 0.02814 0.30917 0.0
C292 C 0.72584 0.92501 0.14787 0.0
C293 C 0.75859 0.91597 0.09273 0.0
C294 C 0.72069 0.96512 0.17839 0.0
C295 C 0.74941 0.9966 0.15428 0.0
C296 C 0.78297 0.98747 0.10016 0.0
C297 C 0.78658 0.94754 0.0689 0.0
C298 C 0.68399 0.97408 0.23455 0.0
C299 C 0.81457 0.02009 0.07326 0.0
H300 H 0.70524 0.13038 0.09505 0.0
H301 H 0.77531 0.11142 0.31838 0.0
H302 H 0.72344 0.04135 0.00183 0.0
H303 H 0.67965 0.02373 0.06261 0.0
H304 H 0.6794 0.07522 0.01716 0.0
H305 H 0.79434 0.04424 0.36678 0.0
H306 H 0.7672 -0.0 0.32578 0.0
H307 H 0.81482 0.01772 0.27818 0.0
H308 H 0.70391 0.90085 0.16657 0.0
H309 H 0.81159 0.94121 0.02597 0.0
H310 H 0.66255 0.99638 0.20335 0.0
H311 H 0.69499 0.98877 0.29203 0.0
H312 H 0.66598 0.94563 0.25148 0.0
H313 H 0.80011 0.04124 0.02671 0.0
H314 H 0.843 0.00617 0.04522 0.0
H315 H 0.82444 0.03905 0.12632 0.0
C316 C 0.38962 0.19291 0.42739 0.0
C317 C 0.35691 0.20903 0.37872 0.0
C318 C 0.43146 0.19557 0.40091 0.0
C319 C 0.44094 0.21422 0.32317 0.0
C320 C 0.40787 0.22697 0.27035 0.0
C321 C 0.36617 0.22435 0.29886 0.0
C322 C 0.46566 0.18173 0.45947 0.0
C323 C 0.41666 0.24619 0.18621 0.0
C324 C 0.54309 0.27448 0.31282 0.0
C325 C 0.57018 0.24607 0.27627 0.0
C326 C 0.50085 0.26461 0.32716 0.0
C327 C 0.48516 0.22555 0.30295 0.0
C328 C 0.51235 0.19697 0.26441 0.0
C329 C 0.55485 0.2074 0.25254 0.0
C330 C 0.47327 0.2957 0.37004 0.0
C331 C 0.49656 0.15549 0.23607 0.0
H332 H 0.38285 0.18043 0.48872 0.0
H333 H 0.34119 0.2366 0.26041 0.0
H334 H 0.48912 0.16251 0.42707 0.0
H335 H 0.4823 0.20936 0.4829 0.0
H336 H 0.45311 0.16365 0.51327 0.0
H337 H 0.38802 0.24771 0.14744 0.0
H338 H 0.42872 0.27819 0.19356 0.0
H339 H 0.44108 0.22839 0.15313 0.0
H340 H 0.55521 0.3041 0.33224 0.0
H341 H 0.57599 0.18562 0.22375 0.0
H342 H 0.46089 0.28198 0.42871 0.0
H343 H 0.44598 0.30367 0.33066 0.0
H344 H 0.49033 0.32475 0.38435 0.0
H345 H 0.48577 0.13657 0.29008 0.0
H346 H 0.52105 0.13789 0.20261 0.0
H347 H 0.46918 0.1599 0.19478 0.0
C348 C 0.32869 0.8828 0.65605 0.0
C349 C 0.28795 0.86705 0.64858 0.0
C350 C 0.33755 0.92468 0.63683 0.0
C351 C 0.30441 0.95156 0.61317 0.0
C352 C 0.26336 0.93513 0.60366 0.0
C353 C 0.25584 0.89296 0.6205 0.0
C354 C 0.38202 0.93997 0.64511 0.0
C355 C 0.22671 0.96245 0.57983 0.0
C356 C 0.28987 0.06306 0.6649 0.0
C357 C 0.28245 0.07928 0.58533 0.0
C358 C 0.30312 0.02192 0.67611 0.0
C359 C 0.3105 0.99739 0.60581 0.0
C360 C 0.31223 0.01684 0.5266 0.0
C361 C 0.29781 0.05785 0.517 0.0
C362 C 0.3023 0.00308 0.76219 0.0
C363 C 0.3234 0.99264 0.45081 0.0
H364 H 0.35349 0.86253 0.6781 0.0
H365 H 0.22433 0.88057 0.61554 0.0
H366 H 0.3883 0.96785 0.60572 0.0
H367 H 0.3879 0.94793 0.71048 0.0
H368 H 0.40465 0.91532 0.62841 0.0
H369 H 0.19682 0.94485 0.57634 0.0
H370 H 0.22279 0.98733 0.62572 0.0
H371 H 0.23264 0.97759 0.51876 0.0
H372 H 0.27852 0.07999 0.71788 0.0
H373 H 0.29271 0.0705 0.45527 0.0
H374 H 0.33008 0.9831 0.77244 0.0
H375 H 0.27392 0.98334 0.76968 0.0
H376 H 0.30161 0.02715 0.81045 0.0
H377 H 0.34848 0.96977 0.46481 0.0
H378 H 0.33396 0.01352 0.39937 0.0
H379 H 0.29542 0.97535 0.42978 0.0
C380 C 0.93912 0.69164 0.88703 0.0
C381 C 0.90901 0.70964 0.835 0.0
C382 C 0.98015 0.68517 0.85765 0.0
C383 C 0.99026 0.6966 0.77484 0.0
C384 C 0.95739 0.70515 0.71864 0.0
C385 C 0.91647 0.70977 0.74938 0.0
C386 C 0.01372 0.67253 0.91827 0.0
C387 C 0.96603 0.71661 0.62928 0.0
C388 C 0.08945 0.76198 0.76125 0.0
C389 C 0.11779 0.73493 0.72435 0.0
C390 C 0.04749 0.75027 0.77457 0.0
C391 C 0.03398 0.70978 0.75367 0.0
C392 C 0.06248 0.68251 0.71531 0.0
C393 C 0.10394 0.69566 0.70007 0.0
C394 C 0.01782 0.78113 0.81254 0.0
C395 C 0.05024 0.63867 0.69484 0.0
H396 H 0.9331 0.68991 0.95308 0.0
H397 H 0.89273 0.72244 0.70852 0.0
H398 H 0.03758 0.65275 0.88827 0.0
H399 H 0.02979 0.70069 0.94079 0.0
H400 H 1.00023 0.65551 0.97254 0.0
H401 H 0.93761 0.71281 0.59065 0.0
H402 H 0.97585 0.74963 0.62511 0.0
H403 H 0.99173 0.69765 0.60341 0.0
H404 H 0.10027 0.7922 0.78038 0.0
H405 H 0.1262 0.67429 0.67331 0.0
H406 H 0.00696 0.76948 0.87398 0.0
H407 H 0.98978 0.78508 0.77283 0.0
H408 H 0.03263 0.81198 0.82058 0.0
H409 H 0.05201 0.61911 0.75188 0.0
H410 H 0.07167 0.62532 0.648 0.0
H411 H 0.01762 0.63692 0.67175 0.0
C412 C 0.80143 0.44056 0.1835 0.0
C413 C 0.78462 0.42214 0.11318 0.0
C414 C 0.81747 0.48119 0.17848 0.0
C415 C 0.81566 0.50324 0.10207 0.0
C416 C 0.8072 0.48135 0.02892 0.0
C417 C 0.79236 0.44051 0.0354 0.0
C418 C 0.83031 0.50241 0.25664 0.0
C419 C 0.80672 0.50295 0.94537 0.0
C420 C 0.76046 0.60698 0.10164 0.0
C421 C 0.79182 0.63353 0.07176 0.0
C422 C 0.76857 0.56475 0.11547 0.0
C423 C 0.80956 0.54904 0.10126 0.0
C424 C 0.84214 0.57668 0.07691 0.0
C425 C 0.83261 0.61858 0.0605 0.0
C426 C 0.73241 0.53663 0.1401 0.0
C427 C 0.88665 0.56228 0.06447 0.0
H428 H 0.79634 0.42607 0.24378 0.0
H429 H 0.78014 0.42571 -0.01921 0.0
H430 H 0.85554 0.52545 0.24385 0.0
H431 H 0.803 0.51909 0.28262 0.0
H432 H 0.84132 0.47959 0.30398 0.0
H433 H 0.80433 0.48061 0.8941 0.0
H434 H 0.77946 0.52425 0.94192 0.0
H435 H 0.83553 0.52176 0.9362 0.0
H436 H 0.72892 0.61884 0.10957 0.0
H437 H 0.85684 0.63944 0.03728 0.0
H438 H 0.7393 0.5204 0.19948 0.0
H439 H 0.72784 0.51266 0.09258 0.0
H440 H 0.70251 0.55384 0.14737 0.0
H441 H 0.89316 0.53249 0.09729 0.0
H442 H 0.90904 0.58607 0.08634 0.0
H443 H 0.89268 0.55836 -0.00256 0.0
C444 C 0.89115 0.26091 0.27098 0.0
C445 C 0.85927 0.28284 0.31097 0.0
C446 C 0.93212 0.26027 0.30135 0.0
C447 C 0.94212 0.28348 0.37197 0.0
C448 C 0.9103 0.30659 0.41181 0.0
C449 C 0.86887 0.30535 0.38172 0.0
C450 C 0.96436 0.23341 0.25939 0.0
C451 C 0.9199 0.33165 0.4872 0.0
C452 C 0.03836 0.24109 0.47996 0.0
C453 C 0.07066 0.2627 0.43849 0.0
C454 C 0.99605 0.24967 0.46392 0.0
C455 C 0.98555 0.2811 0.40539 0.0
C456 C 0.01789 0.30559 0.36894 0.0
C457 C 0.06007 0.2959 0.38532 0.0
C458 C 0.96341 0.22271 0.50647 0.0
C459 C 0.00799 0.34059 0.30902 0.0
H460 H 0.88365 0.24279 0.21718 0.0
H461 H 0.84418 0.32216 0.41286 0.0
H462 H 0.99098 0.2527 0.23664 0.0
H463 H 0.97707 0.21038 0.3045 0.0
H464 H 0.95115 0.21646 0.20626 0.0
H465 H 0.89273 0.35067 0.50679 0.0
H466 H 0.92869 0.31051 0.53916 0.0
H467 H 0.94708 0.35242 0.47461 0.0
H468 H 0.04595 0.21626 0.52317 0.0
H469 H 0.08467 0.31349 0.3542 0.0
H470 H 0.96519 0.19093 0.48146 0.0
H471 H 0.93092 0.23418 0.49901 0.0
H472 H 0.97026 0.22038 0.57364 0.0
H473 H 0.99814 0.32767 0.24904 0.0
H474 H 0.03552 0.36112 0.29771 0.0
H475 H 0.98162 0.35949 0.33265 0.0
C476 C 0.29514 0.39224 0.53565 0.0
C477 C 0.25833 0.37392 0.50677 0.0
C478 C 0.29626 0.43458 0.55382 0.0
C479 C 0.25913 0.45836 0.54639 0.0
C480 C 0.22203 0.43996 0.51621 0.0
C481 C 0.22235 0.39804 0.49515 0.0
C482 C 0.33682 0.45353 0.58293 0.0
C483 C 0.18143 0.46386 0.51064 0.0
C484 C 0.25142 0.55079 0.68674 0.0
C485 C 0.25681 0.58372 0.63035 0.0
C486 C 0.2511 0.50977 0.65981 0.0
C487 C 0.25827 0.50174 0.57505 0.0
C488 C 0.26443 0.53508 0.51807 0.0
C489 C 0.26285 0.57587 0.54632 0.0
C490 C 0.24337 0.47511 0.72215 0.0
C491 C 0.2741 0.52764 0.42805 0.0
H492 H 0.32291 0.37336 0.54446 0.0
H493 H 0.19374 0.38351 0.474 0.0
H494 H 0.34315 0.48316 0.54912 0.0
H495 H 0.33439 0.46064 0.64961 0.0
H496 H 0.36393 0.43246 0.57414 0.0
H497 H 0.15563 0.4452 0.48415 0.0
H498 H 0.17185 0.4738 0.57331 0.0
H499 H 0.18569 0.49232 0.47201 0.0
H500 H 0.24736 0.55721 0.75189 0.0
H501 H 0.26819 0.6016 0.50338 0.0
H502 H 0.27212 0.45616 0.72945 0.0
H503 H 0.21815 0.45432 0.70018 0.0
H504 H 0.23431 0.48691 0.78381 0.0
H505 H 0.30282 0.50847 0.42283 0.0
H506 H 0.27894 0.55701 0.39225 0.0
H507 H 0.24818 0.51011 0.39938 0.0
C508 C 0.03969 0.01361 0.3492 0.0
C509 C 0.08013 0.01496 0.38181 0.0
C510 C 0.02979 0.98613 0.28635 0.0
C511 C 0.06156 0.96026 0.25395 0.0
C512 C 0.10223 0.96067 0.28829 0.0
C513 C 0.11095 0.98783 0.35278 0.0
C514 C 0.9856 0.98577 0.25296 0.0
C515 C 0.13701 0.93422 0.25417 0.0
C516 C 0.01022 0.87538 0.13675 0.0
C517 C 0.00465 0.89545 0.06022 0.0
C518 C 0.03342 0.89409 0.19901 0.0
C519 C 0.05142 0.93356 0.18329 0.0
C520 C 0.05071 0.95106 0.10221 0.0
C521 C 0.02666 0.93189 0.04135 0.0
C522 C 0.0333 0.87437 0.28443 0.0
C523 C 0.0707 0.99255 0.08251 0.0
H524 H 0.01601 0.03473 0.37182 0.0
H525 H 0.14251 0.98955 0.37715 0.0
H526 H 0.9857 0.99676 0.18755 0.0
H527 H 0.97286 0.95372 0.25446 0.0
H528 H 0.96414 0.00586 0.2887 0.0
H529 H 0.16496 0.93381 0.29491 0.0
H530 H 0.12618 0.9019 0.2456 0.0
H531 H 0.14657 0.94668 0.19248 0.0
H532 H 0.99258 0.84731 0.15094 0.0
H533 H 0.02176 0.94746 -0.01783 0.0
H534 H 0.00921 0.88971 0.32301 0.0
H535 H 0.06402 0.87835 0.31509 0.0
H536 H 0.02575 0.84076 0.28259 0.0
H537 H 0.04995 0.01763 0.10471 0.0
H538 H 0.07554 0.99723 0.01488 0.0
H539 H 0.1013 0.99557 0.11419 0.0
C540 C 0.60579 0.52091 0.32821 0.0
C541 C 0.57669 0.49197 0.2995 0.0
C542 C 0.59501 0.54789 0.39202 0.0
C543 C 0.55411 0.54603 0.42619 0.0
C544 C 0.52377 0.51907 0.39247 0.0
C545 C 0.53562 0.49205 0.33003 0.0
C546 C 0.62812 0.57613 0.42651 0.0
C547 C 0.47938 0.51698 0.42552 0.0
C548 C 0.52089 0.56594 0.64497 0.0
C549 C 0.49724 0.60187 0.63293 0.0
C550 C 0.54434 0.54976 0.5795 0.0
C551 C 0.54295 0.56977 0.50066 0.0
C552 C 0.52269 0.6085 0.49132 0.0
C553 C 0.49998 0.62413 0.55801 0.0
C554 C 0.56634 0.50878 0.59221 0.0
C555 C 0.52026 0.63077 0.40855 0.0
H556 H 0.63776 0.52043 0.30506 0.0
H557 H 0.5132 0.46969 0.30732 0.0
H558 H 0.61523 0.60747 0.43754 0.0
H559 H 0.63886 0.56338 0.48696 0.0
H560 H 0.65573 0.57906 0.38463 0.0
H561 H 0.4795 0.50449 0.48992 0.0
H562 H 0.46545 0.54845 0.42689 0.0
H563 H 0.45892 0.49689 0.38781 0.0
H564 H 0.51807 0.54862 0.70289 0.0
H565 H 0.48101 0.65173 0.54906 0.0
H566 H 0.59724 0.50896 0.5604 0.0
H567 H 0.54716 0.48372 0.56519 0.0
H568 H 0.57106 0.50132 0.65887 0.0
H569 H 0.55045 0.6289 0.3745 0.0
H570 H 0.51172 0.66391 0.41539 0.0
H571 H 0.49588 0.61583 0.37039 0.0
C572 C 0.0287 0.08859 0.76574 0.0
C573 C 0.02728 0.11642 0.69823 0.0
C574 C 0.99261 0.06694 0.79146 0.0
C575 C 0.95436 0.07377 0.749 0.0
C576 C 0.9514 0.10674 0.69066 0.0
C577 C 0.988 0.12783 0.66604 0.0
C578 C 0.99677 0.03315 0.85683 0.0
C579 C 0.9109 0.11651 0.64669 0.0
C580 C 0.90442 0.96932 0.72347 0.0
C581 C 0.87991 0.96672 0.79552 0.0
C582 C 0.92548 0.00617 0.70193 0.0
C583 C 0.92148 0.04109 0.7534 0.0
C584 C 0.89133 0.04059 0.81771 0.0
C585 C 0.87053 0.00335 0.83765 0.0
C586 C 0.956 0.00594 0.63018 0.0
C587 C 0.88449 0.07759 0.87182 0.0
H588 H 0.05867 0.08037 0.79274 0.0
H589 H 0.98626 0.14996 0.6151 0.0
H590 H 0.97036 0.03438 0.90157 0.0
H591 H 0.99575 0.00243 0.82706 0.0
H592 H 0.02668 0.03555 0.89137 0.0
H593 H 0.91026 0.14931 0.62452 0.0
H594 H 0.90804 0.09645 0.59199 0.0
H595 H 0.88331 0.11061 0.68731 0.0
H596 H 0.91089 0.94154 0.68895 0.0
H597 H 0.85036 0.00208 0.89176 0.0
H598 H 0.98856 0.00546 0.65414 0.0
H599 H 0.95247 0.03438 0.59131 0.0
H600 H 0.95158 0.97851 0.59057 0.0
H601 H 0.90708 0.07636 0.92377 0.0
H602 H 0.85235 0.07738 0.89868 0.0
H603 H 0.88952 0.10719 0.83714 0.0
C604 C 0.49129 0.36631 0.02708 0.0
C605 C 0.53029 0.38039 -0.00346 0.0
C606 C 0.45397 0.38602 0.00317 0.0
C607 C 0.45596 0.42008 0.94711 0.0
C608 C 0.49414 0.42914 0.90512 0.0
C609 C 0.53097 0.40894 0.93015 0.0
C610 C 0.41356 0.37367 0.04587 0.0
C611 C 0.49728 0.46395 0.84161 0.0
C612 C 0.37066 0.49006 0.86535 0.0
C613 C 0.3791 0.52596 0.91067 0.0
C614 C 0.39222 0.45297 0.88189 0.0
C615 C 0.4222 0.45181 0.94593 0.0
C616 C 0.42529 0.48565 0.0004 0.0
C617 C 0.40351 0.52237 -0.01778 0.0
C618 C 0.38629 0.4171 0.82452 0.0
C619 C 0.45558 0.48509 0.07197 0.0
H620 H 0.49013 0.3431 0.07642 0.0
H621 H 0.56074 0.41907 0.90409 0.0
H622 H 0.40944 0.39251 0.10203 0.0
H623 H 0.3861 0.37913 0.00529 0.0
H624 H 0.41409 0.34048 0.06557 0.0
H625 H 0.52738 0.46322 0.80677 0.0
H626 H 0.47109 0.4623 0.79695 0.0
H627 H 0.49505 0.49417 0.87312 0.0
H628 H 0.35075 0.49196 0.81124 0.0
H629 H 0.40925 0.54951 0.01912 0.0
H630 H 0.39326 0.38695 0.85549 0.0
H631 H 0.4078 0.42094 0.77077 0.0
H632 H 0.35373 0.41637 0.8004 0.0
H633 H 0.45054 0.51157 0.11384 0.0
H634 H 0.48821 0.48678 0.04786 0.0
H635 H 0.45244 0.45584 0.10857 0.0
loop_
_geom_bond_atom_site_label_1
_geom_bond_atom_site_label_2
_geom_bond_distance
_geom_bond_site_symmetry_2
_ccdc_geom_bond_type
C0 O27 1.312 . S
C0 O28 1.208 . S
C1 O22 1.331 . S
C1 O25 1.244 . S
C2 O24 1.264 . S
C2 O26 1.273 1_554 S
Mg3 O5 1.936 . S
Mg3 O12 2.081 . S
Mg3 O14 2.023 1_554 S
Mg3 O18 2.031 . S
Mg3 O27 2.291 . S
Mg4 O5 1.963 1_556 S
Mg4 O15 1.942 1_556 S
Mg4 O16 1.955 . S
Mg4 O23 1.986 . S
O5 Mg3 1.936 . S
O5 Mg4 1.963 1_554 S
O5 Mg6 1.915 1_554 S
Mg6 O5 1.915 1_556 S
Mg6 O7 1.915 . S
Mg6 O11 2.013 . S
Mg6 O17 2.114 1_556 S
Mg6 O21 2.013 . S
Mg6 O27 2.114 1_556 S
O7 Mg6 1.915 . S
O7 Mg8 1.936 1_556 S
O7 Mg9 1.963 . S
Mg8 O7 1.936 1_554 S
Mg8 O17 2.291 . S
Mg8 O22 2.081 1_554 S
Mg8 O24 2.023 . S
Mg8 O28 2.031 . S
Mg9 O7 1.963 . S
Mg9 O13 1.986 . S
Mg9 O25 1.942 . S
Mg9 O26 1.955 . S
C10 O21 1.191 . S
C10 O23 1.307 . S
O11 Mg6 2.013 . S
O11 C30 1.191 . S
O12 Mg3 2.081 . S
O12 C20 1.331 . S
O13 Mg9 1.986 . S
O13 C30 1.307 . S
O14 Mg3 2.023 1_556 S
O14 C29 1.264 . S
O15 Mg4 1.942 1_554 S
O15 C20 1.244 . S
O16 Mg4 1.955 . S
O16 C29 1.273 . S
O17 Mg6 2.114 1_554 S
O17 Mg8 2.291 . S
O17 C19 1.312 . S
O18 Mg3 2.031 . S
O18 C19 1.208 . S
C19 O17 1.312 . S
C19 O18 1.208 . S
C20 O12 1.331 . S
C20 O15 1.244 . S
O21 Mg6 2.013 . S
O21 C10 1.191 . S
O22 C1 1.331 . S
O22 Mg8 2.081 1_556 S
O23 Mg4 1.986 . S
O23 C10 1.307 . S
O24 C2 1.264 . S
O24 Mg8 2.023 . S
O25 C1 1.244 . S
O25 Mg9 1.942 . S
O26 C2 1.273 1_556 S
O26 Mg9 1.955 . S
O27 C0 1.312 . S
O27 Mg3 2.291 . S
O27 Mg6 2.114 1_554 S
O28 C0 1.208 . S
O28 Mg8 2.031 . S
C29 O14 1.264 . S
C29 O16 1.273 . S
C30 O11 1.191 . S
C30 O13 1.307 . S
C31 O58 1.312 . S
C31 O59 1.208 . S
C32 O53 1.331 . S
C32 O56 1.244 . S
C33 O55 1.264 . S
C33 O57 1.273 . S
Mg34 O36 1.936 . S
Mg34 O43 2.081 . S
Mg34 O45 2.023 . S
Mg34 O49 2.031 . S
Mg34 O58 2.291 . S
Mg35 O36 1.963 . S
Mg35 O46 1.942 . S
Mg35 O47 1.955 . S
Mg35 O54 1.986 . S
O36 Mg34 1.936 . S
O36 Mg35 1.963 . S
O36 Mg37 1.915 . S
Mg37 O36 1.915 . S
Mg37 O38 1.915 . S
Mg37 O42 2.013 . S
Mg37 O48 2.114 . S
Mg37 O52 2.013 . S
Mg37 O58 2.114 . S
O38 Mg37 1.915 . S
O38 Mg39 1.936 . S
O38 Mg40 1.963 . S
Mg39 O38 1.936 . S
Mg39 O48 2.291 . S
Mg39 O53 2.081 . S
Mg39 O55 2.023 . S
Mg39 O59 2.031 . S
Mg40 O38 1.963 . S
Mg40 O44 1.986 . S
Mg40 O56 1.942 . S
Mg40 O57 1.955 . S
C41 O52 1.191 . S
C41 O54 1.307 . S
O42 Mg37 2.013 . S
O42 C61 1.191 . S
O43 Mg34 2.081 . S
O43 C51 1.331 . S
O44 Mg40 1.986 . S
O44 C61 1.307 . S
O45 Mg34 2.023 . S
O45 C60 1.264 . S
O46 Mg35 1.942 . S
O46 C51 1.244 . S
O47 Mg35 1.955 . S
O47 C60 1.273 . S
O48 Mg37 2.114 . S
O48 Mg39 2.291 . S
O48 C50 1.312 . S
O49 Mg34 2.031 . S
O49 C50 1.208 . S
C50 O48 1.312 . S
C50 O49 1.208 . S
C51 O43 1.331 . S
C51 O46 1.244 . S
O52 Mg37 2.013 . S
O52 C41 1.191 . S
O53 C32 1.331 . S
O53 Mg39 2.081 . S
O54 Mg35 1.986 . S
O54 C41 1.307 . S
O55 C33 1.264 . S
O55 Mg39 2.023 . S
O56 C32 1.244 . S
O56 Mg40 1.942 . S
O57 C33 1.273 . S
O57 Mg40 1.955 . S
O58 C31 1.312 . S
O58 Mg34 2.291 . S
O58 Mg37 2.114 . S
O59 C31 1.208 . S
O59 Mg39 2.031 . S
C60 O45 1.264 . S
C60 O47 1.273 . S
C61 O42 1.191 . S
C61 O44 1.307 . S
C62 O89 1.312 . S
C62 O90 1.208 . S
C63 O84 1.331 . S
C63 O87 1.244 . S
C64 O86 1.264 . S
C64 O88 1.273 . S
Mg65 O67 1.936 . S
Mg65 O74 2.081 . S
Mg65 O76 2.023 . S
Mg65 O80 2.031 . S
Mg65 O89 2.291 . S
Mg66 O67 1.963 . S
Mg66 O77 1.942 . S
Mg66 O78 1.955 . S
Mg66 O85 1.986 . S
O67 Mg65 1.936 . S
O67 Mg66 1.963 . S
O67 Mg68 1.915 . S
Mg68 O67 1.915 . S
Mg68 O69 1.915 . S
Mg68 O73 2.013 . S
Mg68 O79 2.114 . S
Mg68 O83 2.013 . S
Mg68 O89 2.114 . S
O69 Mg68 1.915 . S
O69 Mg70 1.936 . S
O69 Mg71 1.963 . S
Mg70 O69 1.936 . S
Mg70 O79 2.291 . S
Mg70 O84 2.081 . S
Mg70 O86 2.023 . S
Mg70 O90 2.031 . S
Mg71 O69 1.963 . S
Mg71 O75 1.986 . S
Mg71 O87 1.942 . S
Mg71 O88 1.955 . S
C72 O83 1.191 . S
C72 O85 1.307 . S
O73 Mg68 2.013 . S
O73 C92 1.191 . S
O74 Mg65 2.081 . S
O74 C82 1.331 . S
O75 Mg71 1.986 . S
O75 C92 1.307 . S
O76 Mg65 2.023 . S
O76 C91 1.264 . S
O77 Mg66 1.942 . S
O77 C82 1.244 . S
O78 Mg66 1.955 . S
O78 C91 1.273 . S
O79 Mg68 2.114 . S
O79 Mg70 2.291 . S
O79 C81 1.312 . S
O80 Mg65 2.031 . S
O80 C81 1.208 . S
C81 O79 1.312 . S
C81 O80 1.208 . S
C82 O74 1.331 . S
C82 O77 1.244 . S
O83 Mg68 2.013 . S
O83 C72 1.191 . S
O84 C63 1.331 . S
O84 Mg70 2.081 . S
O85 Mg66 1.986 . S
O85 C72 1.307 . S
O86 C64 1.264 . S
O86 Mg70 2.023 . S
O87 C63 1.244 . S
O87 Mg71 1.942 . S
O88 C64 1.273 . S
O88 Mg71 1.955 . S
O89 C62 1.312 . S
O89 Mg65 2.291 . S
O89 Mg68 2.114 . S
O90 C62 1.208 . S
O90 Mg70 2.031 . S
C91 O76 1.264 . S
C91 O78 1.273 . S
C92 O73 1.191 . S
C92 O75 1.307 . S
C93 O120 1.312 . S
C93 O121 1.208 . S
C94 O115 1.331 . S
C94 O118 1.244 . S
C95 O117 1.264 . S
C95 O119 1.273 . S
Mg96 O98 1.936 . S
Mg96 O105 2.081 . S
Mg96 O107 2.023 . S
Mg96 O111 2.031 . S
Mg96 O120 2.291 . S
Mg97 O98 1.963 . S
Mg97 O108 1.942 . S
Mg97 O109 1.955 . S
Mg97 O116 1.986 . S
O98 Mg96 1.936 . S
O98 Mg97 1.963 . S
O98 Mg99 1.915 . S
Mg99 O98 1.915 . S
Mg99 O100 1.915 . S
Mg99 O104 2.013 . S
Mg99 O110 2.114 . S
Mg99 O114 2.013 . S
Mg99 O120 2.114 . S
O100 Mg99 1.915 . S
O100 Mg101 1.936 . S
O100 Mg102 1.963 . S
Mg101 O100 1.936 . S
Mg101 O110 2.291 . S
Mg101 O115 2.081 . S
Mg101 O117 2.023 . S
Mg101 O121 2.031 . S
Mg102 O100 1.963 . S
Mg102 O106 1.986 . S
Mg102 O118 1.942 . S
Mg102 O119 1.955 . S
C103 O114 1.191 . S
C103 O116 1.307 . S
O104 Mg99 2.013 . S
O104 C123 1.191 . S
O105 Mg96 2.081 . S
O105 C113 1.331 . S
O106 Mg102 1.986 . S
O106 C123 1.307 . S
O107 Mg96 2.023 . S
O107 C122 1.264 . S
O108 Mg97 1.942 . S
O108 C113 1.244 . S
O109 Mg97 1.955 . S
O109 C122 1.273 . S
O110 Mg99 2.114 . S
O110 Mg101 2.291 . S
O110 C112 1.312 . S
O111 Mg96 2.031 . S
O111 C112 1.208 . S
C112 O110 1.312 . S
C112 O111 1.208 . S
C113 O105 1.331 . S
C113 O108 1.244 . S
O114 Mg99 2.013 . S
O114 C103 1.191 . S
O115 C94 1.331 . S
O115 Mg101 2.081 . S
O116 Mg97 1.986 . S
O116 C103 1.307 . S
O117 C95 1.264 . S
O117 Mg101 2.023 . S
O118 C94 1.244 . S
O118 Mg102 1.942 . S
O119 C95 1.273 . S
O119 Mg102 1.955 . S
O120 C93 1.312 . S
O120 Mg96 2.291 . S
O120 Mg99 2.114 . S
O121 C93 1.208 . S
O121 Mg101 2.031 . S
C122 O107 1.264 . S
C122 O109 1.273 . S
C123 O104 1.191 . S
C123 O106 1.307 . S
C124 C125 1.391 . S
C124 C126 1.394 . S
C124 H140 0.931 . S
C125 C124 1.391 . S
C125 C129 1.376 . S
C126 C124 1.394 . S
C126 C127 1.369 . S
C126 C130 1.531 . S
C127 C126 1.369 . S
C127 C128 1.410 . S
C127 C135 1.503 . S
C128 C127 1.410 . S
C128 C129 1.392 . S
C128 C131 1.511 . S
C129 C125 1.376 . S
C129 C128 1.392 . S
C129 H141 0.929 . S
C130 C126 1.531 . S
C130 H142 0.960 . S
C130 H143 0.962 . S
C130 H144 0.960 . S
C131 C128 1.511 . S
C131 H145 0.961 . S
C131 H146 0.961 . S
C131 H147 0.961 . S
C132 C133 1.370 . S
C132 C134 1.363 . S
C132 H148 0.931 . S
C133 C132 1.370 . S
C133 C137 1.408 . S
C134 C132 1.363 . S
C134 C135 1.370 . S
C134 C138 1.524 . S
C135 C127 1.503 . S
C135 C134 1.370 . S
C135 C136 1.403 . S
C136 C135 1.403 . S
C136 C137 1.404 . S
C136 C139 1.539 . S
C137 C133 1.408 . S
C137 C136 1.404 . S
C137 H149 0.930 . S
C138 C134 1.524 . S
C138 H150 0.956 . S
C138 H151 0.961 . S
C138 H152 0.961 . S
C139 C136 1.539 . S
C139 H153 0.958 . S
C139 H154 0.961 . S
C139 H155 0.960 . S
H140 C124 0.931 . S
H141 C129 0.929 . S
H142 C130 0.960 . S
H143 C130 0.962 . S
H144 C130 0.960 . S
H145 C131 0.961 . S
H146 C131 0.961 . S
H147 C131 0.961 . S
H148 C132 0.931 . S
H149 C137 0.930 . S
H150 C138 0.956 . S
H151 C138 0.961 . S
H152 C138 0.961 . S
H153 C139 0.958 . S
H154 C139 0.961 . S
H155 C139 0.960 . S
C156 C157 1.391 . S
C156 C158 1.394 . S
C156 H172 0.931 . S
C157 C156 1.391 . S
C157 C161 1.376 . S
C158 C156 1.394 . S
C158 C159 1.369 . S
C158 C162 1.531 . S
C159 C158 1.369 . S
C159 C160 1.410 . S
C159 C167 1.503 . S
C160 C159 1.410 . S
C160 C161 1.392 . S
C160 C163 1.511 . S
C161 C157 1.376 . S
C161 C160 1.392 . S
C161 H173 0.929 . S
C162 C158 1.531 . S
C162 H174 0.960 . S
C162 H175 0.962 . S
C162 H176 0.960 . S
C163 C160 1.511 . S
C163 H177 0.961 . S
C163 H178 0.961 . S
C163 H179 0.961 . S
C164 C165 1.370 . S
C164 C166 1.363 . S
C164 H180 0.931 . S
C165 C164 1.370 . S
C165 C169 1.408 . S
C166 C164 1.363 . S
C166 C167 1.370 . S
C166 C170 1.524 . S
C167 C159 1.503 . S
C167 C166 1.370 . S
C167 C168 1.403 . S
C168 C167 1.403 . S
C168 C169 1.404 . S
C168 C171 1.539 . S
C169 C165 1.408 . S
C169 C168 1.404 . S
C169 H181 0.930 . S
C170 C166 1.524 . S
C170 H182 0.956 . S
C170 H183 0.961 . S
C170 H184 0.961 . S
C171 C168 1.539 . S
C171 H185 0.958 . S
C171 H186 0.961 . S
C171 H187 0.960 . S
H172 C156 0.931 . S
H173 C161 0.929 . S
H174 C162 0.960 . S
H175 C162 0.962 . S
H176 C162 0.960 . S
H177 C163 0.961 . S
H178 C163 0.961 . S
H179 C163 0.961 . S
H180 C164 0.931 . S
H181 C169 0.930 . S
H182 C170 0.956 . S
H183 C170 0.961 . S
H184 C170 0.961 . S
H185 C171 0.958 . S
H186 C171 0.961 . S
H187 C171 0.960 . S
C188 C189 1.391 . S
C188 C190 1.394 . S
C188 H204 0.931 . S
C189 C188 1.391 . S
C189 C193 1.376 . S
C190 C188 1.394 . S
C190 C191 1.369 . S
C190 C194 1.531 . S
C191 C190 1.369 . S
C191 C192 1.410 . S
C191 C199 1.503 1_556 S
C192 C191 1.410 . S
C192 C193 1.392 . S
C192 C195 1.511 . S
C193 C189 1.376 . S
C193 C192 1.392 . S
C193 H205 0.929 . S
C194 C190 1.531 . S
C194 H206 0.960 1_556 S
C194 H207 0.962 . S
C194 H208 0.960 . S
C195 C192 1.511 . S
C195 H209 0.961 . S
C195 H210 0.961 1_556 S
C195 H211 0.961 . S
C196 C197 1.370 . S
C196 C198 1.363 . S
C196 H212 0.931 . S
C197 C196 1.370 . S
C197 C201 1.408 . S
C198 C196 1.363 . S
C198 C199 1.370 . S
C198 C202 1.524 . S
C199 C191 1.503 1_554 S
C199 C198 1.370 . S
C199 C200 1.403 . S
C200 C199 1.403 . S
C200 C201 1.404 . S
C200 C203 1.539 . S
C201 C197 1.408 . S
C201 C200 1.404 . S
C201 H213 0.930 . S
C202 C198 1.524 . S
C202 H214 0.956 . S
C202 H215 0.961 . S
C202 H216 0.961 . S
C203 C200 1.539 . S
C203 H217 0.958 . S
C203 H218 0.961 . S
C203 H219 0.960 . S
H204 C188 0.931 . S
H205 C193 0.929 . S
H206 C194 0.960 1_554 S
H207 C194 0.962 . S
H208 C194 0.960 . S
H209 C195 0.961 . S
H210 C195 0.961 1_554 S
H211 C195 0.961 . S
H212 C196 0.931 . S
H213 C201 0.930 . S
H214 C202 0.956 . S
H215 C202 0.961 . S
H216 C202 0.961 . S
H217 C203 0.958 . S
H218 C203 0.961 . S
H219 C203 0.960 . S
C220 C221 1.391 . S
C220 C222 1.394 . S
C220 H236 0.931 . S
C221 C220 1.391 . S
C221 C225 1.376 . S
C222 C220 1.394 . S
C222 C223 1.369 . S
C222 C226 1.531 . S
C223 C222 1.369 . S
C223 C224 1.410 . S
C223 C231 1.503 . S
C224 C223 1.410 . S
C224 C225 1.392 . S
C224 C227 1.511 . S
C225 C221 1.376 . S
C225 C224 1.392 . S
C225 H237 0.929 . S
C226 C222 1.531 . S
C226 H238 0.960 . S
C226 H239 0.962 . S
C226 H240 0.960 . S
C227 C224 1.511 . S
C227 H241 0.961 . S
C227 H242 0.961 . S
C227 H243 0.961 . S
C228 C229 1.370 . S
C228 C230 1.363 . S
C228 H244 0.931 . S
C229 C228 1.370 . S
C229 C233 1.408 . S
C230 C228 1.363 . S
C230 C231 1.370 . S
C230 C234 1.524 . S
C231 C223 1.503 . S
C231 C230 1.370 . S
C231 C232 1.403 . S
C232 C231 1.403 . S
C232 C233 1.404 . S
C232 C235 1.539 . S
C233 C229 1.408 . S
C233 C232 1.404 . S
C233 H245 0.930 . S
C234 C230 1.524 . S
C234 H246 0.956 . S
C234 H247 0.961 . S
C234 H248 0.961 . S
C235 C232 1.539 . S
C235 H249 0.958 . S
C235 H250 0.961 . S
C235 H251 0.960 . S
H236 C220 0.931 . S
H237 C225 0.929 . S
H238 C226 0.960 . S
H239 C226 0.962 . S
H240 C226 0.960 . S
H241 C227 0.961 . S
H242 C227 0.961 . S
H243 C227 0.961 . S
H244 C228 0.931 . S
H245 C233 0.930 . S
H246 C234 0.956 . S
H247 C234 0.961 . S
H248 C234 0.961 . S
H249 C235 0.958 . S
H250 C235 0.961 . S
H251 C235 0.960 . S
C252 C253 1.391 . S
C252 C254 1.394 . S
C252 H268 0.931 . S
C253 C252 1.391 . S
C253 C257 1.376 . S
C254 C252 1.394 . S
C254 C255 1.369 . S
C254 C258 1.531 . S
C255 C254 1.369 . S
C255 C256 1.410 . S
C255 C263 1.503 . S
C256 C255 1.410 . S
C256 C257 1.392 . S
C256 C259 1.511 . S
C257 C253 1.376 . S
C257 C256 1.392 . S
C257 H269 0.929 . S
C258 C254 1.531 . S
C258 H270 0.960 . S
C258 H271 0.962 . S
C258 H272 0.960 . S
C259 C256 1.511 . S
C259 H273 0.961 1_556 S
C259 H274 0.961 . S
C259 H275 0.961 . S
C260 C261 1.370 . S
C260 C262 1.363 . S
C260 H276 0.931 . S
C261 C260 1.370 . S
C261 C265 1.408 . S
C262 C260 1.363 . S
C262 C263 1.370 . S
C262 C266 1.524 . S
C263 C255 1.503 . S
C263 C262 1.370 . S
C263 C264 1.403 . S
C264 C263 1.403 . S
C264 C265 1.404 . S
C264 C267 1.539 . S
C265 C261 1.408 . S
C265 C264 1.404 . S
C265 H277 0.930 . S
C266 C262 1.524 . S
C266 H278 0.956 . S
C266 H279 0.961 . S
C266 H280 0.961 . S
C267 C264 1.539 . S
C267 H281 0.958 . S
C267 H282 0.961 . S
C267 H283 0.960 . S
H268 C252 0.931 . S
H269 C257 0.929 . S
H270 C258 0.960 . S
H271 C258 0.962 . S
H272 C258 0.960 . S
H273 C259 0.961 1_554 S
H274 C259 0.961 . S
H275 C259 0.961 . S
H276 C260 0.931 . S
H277 C265 0.930 . S
H278 C266 0.956 . S
H279 C266 0.961 . S
H280 C266 0.961 . S
H281 C267 0.958 . S
H282 C267 0.961 . S
H283 C267 0.960 . S
C284 C285 1.391 . S
C284 C286 1.394 . S
C284 H300 0.931 . S
C285 C284 1.391 . S
C285 C289 1.376 . S
C286 C284 1.394 . S
C286 C287 1.369 . S
C286 C290 1.531 1_554 S
C287 C286 1.369 . S
C287 C288 1.410 . S
C287 C295 1.503 . S
C288 C287 1.410 . S
C288 C289 1.392 . S
C288 C291 1.511 . S
C289 C285 1.376 . S
C289 C288 1.392 . S
C289 H301 0.929 . S
C290 C286 1.531 1_556 S
C290 H302 0.960 . S
C290 H303 0.962 . S
C290 H304 0.960 . S
C291 C288 1.511 . S
C291 H305 0.961 . S
C291 H306 0.961 . S
C291 H307 0.961 . S
C292 C293 1.370 . S
C292 C294 1.363 1_565 S
C292 H308 0.931 . S
C293 C292 1.370 . S
C293 C297 1.408 1_554 S
C294 C292 1.363 1_545 S
C294 C295 1.370 . S
C294 C298 1.524 . S
C295 C287 1.503 . S
C295 C294 1.370 . S
C295 C296 1.403 . S
C296 C295 1.403 . S
C296 C297 1.404 1_544 S
C296 C299 1.539 1_554 S
C297 C293 1.408 1_556 S
C297 C296 1.404 1_566 S
C297 H309 0.930 . S
C298 C294 1.524 . S
C298 H310 0.956 . S
C298 H311 0.961 . S
C298 H312 0.961 1_545 S
C299 C296 1.539 1_556 S
C299 H313 0.958 . S
C299 H314 0.961 . S
C299 H315 0.960 1_556 S
H300 C284 0.931 . S
H301 C289 0.929 . S
H302 C290 0.960 . S
H303 C290 0.962 . S
H304 C290 0.960 . S
H305 C291 0.961 . S
H306 C291 0.961 . S
H307 C291 0.961 . S
H308 C292 0.931 . S
H309 C297 0.930 . S
H310 C298 0.956 . S
H311 C298 0.961 . S
H312 C298 0.961 1_565 S
H313 C299 0.958 . S
H314 C299 0.961 . S
H315 C299 0.960 1_554 S
C316 C317 1.391 . S
C316 C318 1.394 . S
C316 H332 0.931 . S
C317 C316 1.391 . S
C317 C321 1.376 . S
C318 C316 1.394 . S
C318 C319 1.369 . S
C318 C322 1.531 . S
C319 C318 1.369 . S
C319 C320 1.410 . S
C319 C327 1.503 . S
C320 C319 1.410 . S
C320 C321 1.392 . S
C320 C323 1.511 . S
C321 C317 1.376 . S
C321 C320 1.392 . S
C321 H333 0.929 . S
C322 C318 1.531 . S
C322 H334 0.960 . S
C322 H335 0.962 . S
C322 H336 0.960 . S
C323 C320 1.511 . S
C323 H337 0.961 . S
C323 H338 0.961 . S
C323 H339 0.961 . S
C324 C325 1.370 . S
C324 C326 1.363 . S
C324 H340 0.931 . S
C325 C324 1.370 . S
C325 C329 1.408 . S
C326 C324 1.363 . S
C326 C327 1.370 . S
C326 C330 1.524 . S
C327 C319 1.503 . S
C327 C326 1.370 . S
C327 C328 1.403 . S
C328 C327 1.403 . S
C328 C329 1.404 . S
C328 C331 1.539 . S
C329 C325 1.408 . S
C329 C328 1.404 . S
C329 H341 0.930 . S
C330 C326 1.524 . S
C330 H342 0.956 . S
C330 H343 0.961 . S
C330 H344 0.961 . S
C331 C328 1.539 . S
C331 H345 0.958 . S
C331 H346 0.961 . S
C331 H347 0.960 . S
H332 C316 0.931 . S
H333 C321 0.929 . S
H334 C322 0.960 . S
H335 C322 0.962 . S
H336 C322 0.960 . S
H337 C323 0.961 . S
H338 C323 0.961 . S
H339 C323 0.961 . S
H340 C324 0.931 . S
H341 C329 0.930 . S
H342 C330 0.956 . S
H343 C330 0.961 . S
H344 C330 0.961 . S
H345 C331 0.958 . S
H346 C331 0.961 . S
H347 C331 0.960 . S
C348 C349 1.391 . S
C348 C350 1.394 . S
C348 H364 0.931 . S
C349 C348 1.391 . S
C349 C353 1.376 . S
C350 C348 1.394 . S
C350 C351 1.369 . S
C350 C354 1.531 . S
C351 C350 1.369 . S
C351 C352 1.410 . S
C351 C359 1.503 . S
C352 C351 1.410 . S
C352 C353 1.392 . S
C352 C355 1.511 . S
C353 C349 1.376 . S
C353 C352 1.392 . S
C353 H365 0.929 . S
C354 C350 1.531 . S
C354 H366 0.960 . S
C354 H367 0.962 . S
C354 H368 0.960 . S
C355 C352 1.511 . S
C355 H369 0.961 . S
C355 H370 0.961 . S
C355 H371 0.961 . S
C356 C357 1.370 . S
C356 C358 1.363 1_545 S
C356 H372 0.931 . S
C357 C356 1.370 . S
C357 C361 1.408 . S
C358 C356 1.363 1_565 S
C358 C359 1.370 . S
C358 C362 1.524 . S
C359 C351 1.503 . S
C359 C358 1.370 . S
C359 C360 1.403 . S
C360 C359 1.403 . S
C360 C361 1.404 1_565 S
C360 C363 1.539 . S
C361 C357 1.408 . S
C361 C360 1.404 1_545 S
C361 H373 0.930 . S
C362 C358 1.524 . S
C362 H374 0.956 . S
C362 H375 0.961 . S
C362 H376 0.961 . S
C363 C360 1.539 . S
C363 H377 0.958 . S
C363 H378 0.961 . S
C363 H379 0.960 . S
H364 C348 0.931 . S
H365 C353 0.929 . S
H366 C354 0.960 . S
H367 C354 0.962 . S
H368 C354 0.960 . S
H369 C355 0.961 . S
H370 C355 0.961 . S
H371 C355 0.961 . S
H372 C356 0.931 . S
H373 C361 0.930 . S
H374 C362 0.956 . S
H375 C362 0.961 . S
H376 C362 0.961 . S
H377 C363 0.958 . S
H378 C363 0.961 . S
H379 C363 0.960 . S
C380 C381 1.391 . S
C380 C382 1.394 1_655 S
C380 H396 0.931 . S
C381 C380 1.391 . S
C381 C385 1.376 1_556 S
C382 C380 1.394 1_455 S
C382 C383 1.369 . S
C382 C386 1.531 . S
C383 C382 1.369 . S
C383 C384 1.410 . S
C383 C391 1.503 . S
C384 C383 1.410 . S
C384 C385 1.392 1_456 S
C384 C387 1.511 1_556 S
C385 C381 1.376 1_554 S
C385 C384 1.392 1_654 S
C385 H397 0.929 . S
C386 C382 1.531 . S
C386 H398 0.960 . S
C386 H399 0.962 . S
C386 H400 0.960 . S
C387 C384 1.511 1_554 S
C387 H401 0.961 1_554 S
C387 H402 0.961 1_554 S
C387 H403 0.961 . S
C388 C389 1.370 . S
C388 C390 1.363 . S
C388 H404 0.931 . S
C389 C388 1.370 . S
C389 C393 1.408 . S
C390 C388 1.363 . S
C390 C391 1.370 . S
C390 C394 1.524 . S
C391 C383 1.503 . S
C391 C390 1.370 . S
C391 C392 1.403 . S
C392 C391 1.403 . S
C392 C393 1.404 . S
C392 C395 1.539 1_556 S
C393 C389 1.408 . S
C393 C392 1.404 . S
C393 H405 0.930 1_556 S
C394 C390 1.524 . S
C394 H406 0.956 . S
C394 H407 0.961 . S
C394 H408 0.961 . S
C395 C392 1.539 1_554 S
C395 H409 0.958 . S
C395 H410 0.961 . S
C395 H411 0.960 . S
H396 C380 0.931 . S
H397 C385 0.929 . S
H398 C386 0.960 . S
H399 C386 0.962 . S
H400 C386 0.960 . S
H401 C387 0.961 1_556 S
H402 C387 0.961 1_556 S
H403 C387 0.961 . S
H404 C388 0.931 . S
H405 C393 0.930 1_554 S
H406 C394 0.956 . S
H407 C394 0.961 . S
H408 C394 0.961 . S
H409 C395 0.958 . S
H410 C395 0.961 . S
H411 C395 0.960 . S
C412 C413 1.391 . S
C412 C414 1.394 . S
C412 H428 0.931 . S
C413 C412 1.391 . S
C413 C417 1.376 . S
C414 C412 1.394 . S
C414 C415 1.369 . S
C414 C418 1.531 . S
C415 C414 1.369 . S
C415 C416 1.410 . S
C415 C423 1.503 . S
C416 C415 1.410 . S
C416 C417 1.392 . S
C416 C419 1.511 . S
C417 C413 1.376 . S
C417 C416 1.392 . S
C417 H429 0.929 . S
C418 C414 1.531 . S
C418 H430 0.960 . S
C418 H431 0.962 . S
C418 H432 0.960 . S
C419 C416 1.511 . S
C419 H433 0.961 . S
C419 H434 0.961 . S
C419 H435 0.961 . S
C420 C421 1.370 . S
C420 C422 1.363 . S
C420 H436 0.931 . S
C421 C420 1.370 . S
C421 C425 1.408 . S
C422 C420 1.363 . S
C422 C423 1.370 . S
C422 C426 1.524 . S
C423 C415 1.503 . S
C423 C422 1.370 . S
C423 C424 1.403 . S
C424 C423 1.403 . S
C424 C425 1.404 . S
C424 C427 1.539 . S
C425 C421 1.408 . S
C425 C424 1.404 . S
C425 H437 0.930 . S
C426 C422 1.524 . S
C426 H438 0.956 . S
C426 H439 0.961 . S
C426 H440 0.961 . S
C427 C424 1.539 . S
C427 H441 0.958 . S
C427 H442 0.961 . S
C427 H443 0.960 . S
H428 C412 0.931 . S
H429 C417 0.929 . S
H430 C418 0.960 . S
H431 C418 0.962 . S
H432 C418 0.960 . S
H433 C419 0.961 . S
H434 C419 0.961 . S
H435 C419 0.961 . S
H436 C420 0.931 . S
H437 C425 0.930 . S
H438 C426 0.956 . S
H439 C426 0.961 . S
H440 C426 0.961 . S
H441 C427 0.958 . S
H442 C427 0.961 . S
H443 C427 0.960 . S
C444 C445 1.391 . S
C444 C446 1.394 . S
C444 H460 0.931 . S
C445 C444 1.391 . S
C445 C449 1.376 . S
C446 C444 1.394 . S
C446 C447 1.369 . S
C446 C450 1.531 . S
C447 C446 1.369 . S
C447 C448 1.410 . S
C447 C455 1.503 . S
C448 C447 1.410 . S
C448 C449 1.392 . S
C448 C451 1.511 . S
C449 C445 1.376 . S
C449 C448 1.392 . S
C449 H461 0.929 . S
C450 C446 1.531 . S
C450 H462 0.960 . S
C450 H463 0.962 . S
C450 H464 0.960 . S
C451 C448 1.511 . S
C451 H465 0.961 . S
C451 H466 0.961 . S
C451 H467 0.961 . S
C452 C453 1.370 . S
C452 C454 1.363 1_455 S
C452 H468 0.931 . S
C453 C452 1.370 . S
C453 C457 1.408 . S
C454 C452 1.363 1_655 S
C454 C455 1.370 . S
C454 C458 1.524 . S
C455 C447 1.503 . S
C455 C454 1.370 . S
C455 C456 1.403 . S
C456 C455 1.403 . S
C456 C457 1.404 1_655 S
C456 C459 1.539 . S
C457 C453 1.408 . S
C457 C456 1.404 1_455 S
C457 H469 0.930 . S
C458 C454 1.524 . S
C458 H470 0.956 . S
C458 H471 0.961 . S
C458 H472 0.961 . S
C459 C456 1.539 . S
C459 H473 0.958 . S
C459 H474 0.961 1_655 S
C459 H475 0.960 . S
H460 C444 0.931 . S
H461 C449 0.929 . S
H462 C450 0.960 . S
H463 C450 0.962 . S
H464 C450 0.960 . S
H465 C451 0.961 . S
H466 C451 0.961 . S
H467 C451 0.961 . S
H468 C452 0.931 . S
H469 C457 0.930 . S
H470 C458 0.956 . S
H471 C458 0.961 . S
H472 C458 0.961 . S
H473 C459 0.958 . S
H474 C459 0.961 1_455 S
H475 C459 0.960 . S
C476 C477 1.391 . S
C476 C478 1.394 . S
C476 H492 0.931 . S
C477 C476 1.391 . S
C477 C481 1.376 . S
C478 C476 1.394 . S
C478 C479 1.369 . S
C478 C482 1.531 . S
C479 C478 1.369 . S
C479 C480 1.410 . S
C479 C487 1.503 . S
C480 C479 1.410 . S
C480 C481 1.392 . S
C480 C483 1.511 . S
C481 C477 1.376 . S
C481 C480 1.392 . S
C481 H493 0.929 . S
C482 C478 1.531 . S
C482 H494 0.960 . S
C482 H495 0.962 . S
C482 H496 0.960 . S
C483 C480 1.511 . S
C483 H497 0.961 . S
C483 H498 0.961 . S
C483 H499 0.961 . S
C484 C485 1.370 . S
C484 C486 1.363 . S
C484 H500 0.931 . S
C485 C484 1.370 . S
C485 C489 1.408 . S
C486 C484 1.363 . S
C486 C487 1.370 . S
C486 C490 1.524 . S
C487 C479 1.503 . S
C487 C486 1.370 . S
C487 C488 1.403 . S
C488 C487 1.403 . S
C488 C489 1.404 . S
C488 C491 1.539 . S
C489 C485 1.408 . S
C489 C488 1.404 . S
C489 H501 0.930 . S
C490 C486 1.524 . S
C490 H502 0.956 . S
C490 H503 0.961 . S
C490 H504 0.961 . S
C491 C488 1.539 . S
C491 H505 0.958 . S
C491 H506 0.961 . S
C491 H507 0.960 . S
H492 C476 0.931 . S
H493 C481 0.929 . S
H494 C482 0.960 . S
H495 C482 0.962 . S
H496 C482 0.960 . S
H497 C483 0.961 . S
H498 C483 0.961 . S
H499 C483 0.961 . S
H500 C484 0.931 . S
H501 C489 0.930 . S
H502 C490 0.956 . S
H503 C490 0.961 . S
H504 C490 0.961 . S
H505 C491 0.958 . S
H506 C491 0.961 . S
H507 C491 0.960 . S
C508 C509 1.391 . S
C508 C510 1.394 . S
C508 H524 0.931 . S
C509 C508 1.391 . S
C509 C513 1.376 1_545 S
C510 C508 1.394 . S
C510 C511 1.369 1_545 S
C510 C514 1.531 . S
C511 C510 1.369 1_565 S
C511 C512 1.410 . S
C511 C519 1.503 . S
C512 C511 1.410 . S
C512 C513 1.392 . S
C512 C515 1.511 . S
C513 C509 1.376 1_565 S
C513 C512 1.392 . S
C513 H525 0.929 . S
C514 C510 1.531 . S
C514 H526 0.960 . S
C514 H527 0.962 . S
C514 H528 0.960 . S
C515 C512 1.511 . S
C515 H529 0.961 . S
C515 H530 0.961 . S
C515 H531 0.961 . S
C516 C517 1.370 . S
C516 C518 1.363 . S
C516 H532 0.931 . S
C517 C516 1.370 . S
C517 C521 1.408 1_655 S
C518 C516 1.363 . S
C518 C519 1.370 1_655 S
C518 C522 1.524 . S
C519 C511 1.503 . S
C519 C518 1.370 1_455 S
C519 C520 1.403 . S
C520 C519 1.403 . S
C520 C521 1.404 . S
C520 C523 1.539 . S
C521 C517 1.408 1_455 S
C521 C520 1.404 . S
C521 H533 0.930 . S
C522 C518 1.524 . S
C522 H534 0.956 . S
C522 H535 0.961 . S
C522 H536 0.961 . S
C523 C520 1.539 . S
C523 H537 0.958 . S
C523 H538 0.961 . S
C523 H539 0.960 . S
H524 C508 0.931 . S
H525 C513 0.929 . S
H526 C514 0.960 . S
H527 C514 0.962 . S
H528 C514 0.960 . S
H529 C515 0.961 . S
H530 C515 0.961 . S
H531 C515 0.961 . S
H532 C516 0.931 . S
H533 C521 0.930 . S
H534 C522 0.956 . S
H535 C522 0.961 . S
H536 C522 0.961 . S
H537 C523 0.958 . S
H538 C523 0.961 . S
H539 C523 0.960 . S
C540 C541 1.391 . S
C540 C542 1.394 . S
C540 H556 0.931 . S
C541 C540 1.391 . S
C541 C545 1.376 . S
C542 C540 1.394 . S
C542 C543 1.369 . S
C542 C546 1.531 . S
C543 C542 1.369 . S
C543 C544 1.410 . S
C543 C551 1.503 . S
C544 C543 1.410 . S
C544 C545 1.392 . S
C544 C547 1.511 . S
C545 C541 1.376 . S
C545 C544 1.392 . S
C545 H557 0.929 . S
C546 C542 1.531 . S
C546 H558 0.960 . S
C546 H559 0.962 . S
C546 H560 0.960 . S
C547 C544 1.511 . S
C547 H561 0.961 . S
C547 H562 0.961 . S
C547 H563 0.961 . S
C548 C549 1.370 . S
C548 C550 1.363 . S
C548 H564 0.931 . S
C549 C548 1.370 . S
C549 C553 1.408 . S
C550 C548 1.363 . S
C550 C551 1.370 . S
C550 C554 1.524 . S
C551 C543 1.503 . S
C551 C550 1.370 . S
C551 C552 1.403 . S
C552 C551 1.403 . S
C552 C553 1.404 . S
C552 C555 1.539 . S
C553 C549 1.408 . S
C553 C552 1.404 . S
C553 H565 0.930 . S
C554 C550 1.524 . S
C554 H566 0.956 . S
C554 H567 0.961 . S
C554 H568 0.961 . S
C555 C552 1.539 . S
C555 H569 0.958 . S
C555 H570 0.961 . S
C555 H571 0.960 . S
H556 C540 0.931 . S
H557 C545 0.929 . S
H558 C546 0.960 . S
H559 C546 0.962 . S
H560 C546 0.960 . S
H561 C547 0.961 . S
H562 C547 0.961 . S
H563 C547 0.961 . S
H564 C548 0.931 . S
H565 C553 0.930 . S
H566 C554 0.956 . S
H567 C554 0.961 . S
H568 C554 0.961 . S
H569 C555 0.958 . S
H570 C555 0.961 . S
H571 C555 0.960 . S
C572 C573 1.391 . S
C572 C574 1.406 . S
C572 H588 0.931 . S
C573 C572 1.391 . S
C573 C577 1.376 1_455 S
C574 C572 1.406 . S
C574 C575 1.356 1_455 S
C574 C578 1.532 . S
C575 C574 1.356 1_655 S
C575 C576 1.410 . S
C575 C583 1.503 . S
C576 C575 1.410 . S
C576 C577 1.392 . S
C576 C579 1.511 . S
C577 C573 1.376 1_655 S
C577 C576 1.392 . S
C577 H589 0.929 . S
C578 C574 1.532 . S
C578 H590 0.960 1_455 S
C578 H591 0.962 . S
C578 H592 0.960 . S
C579 C576 1.511 . S
C579 H593 0.961 . S
C579 H594 0.961 . S
C579 H595 0.961 . S
C580 C581 1.370 . S
C580 C582 1.363 . S
C580 H596 0.931 . S
C581 C580 1.370 . S
C581 C585 1.408 1_565 S
C582 C580 1.363 . S
C582 C583 1.370 1_565 S
C582 C586 1.524 1_655 S
C583 C575 1.503 . S
C583 C582 1.370 1_545 S
C583 C584 1.403 . S
C584 C583 1.403 . S
C584 C585 1.404 . S
C584 C587 1.539 . S
C585 C581 1.408 1_545 S
C585 C584 1.404 . S
C585 H597 0.930 . S
C586 C582 1.524 1_455 S
C586 H598 0.956 . S
C586 H599 0.961 . S
C586 H600 0.961 . S
C587 C584 1.539 . S
C587 H601 0.958 . S
C587 H602 0.961 . S
C587 H603 0.960 . S
H588 C572 0.931 . S
H589 C577 0.929 . S
H590 C578 0.960 1_655 S
H591 C578 0.962 . S
H592 C578 0.960 . S
H593 C579 0.961 . S
H594 C579 0.961 . S
H595 C579 0.961 . S
H596 C580 0.931 . S
H597 C585 0.930 . S
H598 C586 0.956 . S
H599 C586 0.961 . S
H600 C586 0.961 . S
H601 C587 0.958 . S
H602 C587 0.961 . S
H603 C587 0.960 . S
C604 C605 1.391 . S
C604 C606 1.394 . S
C604 H620 0.931 . S
C605 C604 1.391 . S
C605 C609 1.376 . S
C606 C604 1.394 . S
C606 C607 1.369 . S
C606 C610 1.531 . S
C607 C606 1.369 . S
C607 C608 1.410 . S
C607 C615 1.503 1_554 S
C608 C607 1.410 . S
C608 C609 1.392 . S
C608 C611 1.511 1_554 S
C609 C605 1.376 . S
C609 C608 1.392 . S
C609 H621 0.929 . S
C610 C606 1.531 . S
C610 H622 0.960 . S
C610 H623 0.962 . S
C610 H624 0.960 . S
C611 C608 1.511 1_556 S
C611 H625 0.961 . S
C611 H626 0.961 . S
C611 H627 0.961 . S
C612 C613 1.370 . S
C612 C614 1.363 . S
C612 H628 0.931 . S
C613 C612 1.370 . S
C613 C617 1.408 . S
C614 C612 1.363 . S
C614 C615 1.370 . S
C614 C618 1.524 . S
C615 C607 1.503 1_556 S
C615 C614 1.370 . S
C615 C616 1.403 . S
C616 C615 1.403 . S
C616 C617 1.404 . S
C616 C619 1.539 1_556 S
C617 C613 1.408 . S
C617 C616 1.404 . S
C617 H629 0.930 . S
C618 C614 1.524 . S
C618 H630 0.956 1_556 S
C618 H631 0.961 . S
C618 H632 0.961 . S
C619 C616 1.539 1_554 S
C619 H633 0.958 . S
C619 H634 0.961 1_554 S
C619 H635 0.960 . S
H620 C604 0.931 . S
H621 C609 0.929 . S
H622 C610 0.960 . S
H623 C610 0.962 . S
H624 C610 0.960 . S
H625 C611 0.961 . S
H626 C611 0.961 . S
H627 C611 0.961 . S
H628 C612 0.931 . S
H629 C617 0.930 . S
H630 C618 0.956 1_554 S
H631 C618 0.961 . S
H632 C618 0.961 . S
H633 C619 0.958 . S
H634 C619 0.961 1_556 S
H635 C619 0.960 . S
C125 C19 1.301 . S
C133 C30 1.295 . S
C157 C50 1.300 . S
C165 C61 1.287 1_556 S
C189 C72 1.304 . S
C197 C62 1.269 . S
C221 C103 1.269 1_554 S
C229 C93 1.289 . S
C253 C123 1.518 . S
C261 C1 1.638 . S
C285 C32 1.735 . S
C293 C0 1.702 . S
C317 C91 1.988 . S
C325 C31 1.944 . S
C349 C122 1.860 . S
C357 C92 1.686 . S
C381 C10 1.476 . S
C389 C113 1.636 . S
C413 C41 1.724 . S
C421 C2 1.860 . S
C445 C33 1.970 . S
C453 C81 1.932 . S
C477 C82 1.748 . S
C485 C112 1.700 . S
C509 C63 0.538 . S
C517 C20 0.467 . S
C541 C51 0.478 . S
C549 C94 0.475 . S
C573 C64 0.674 . S
C581 C29 0.627 . S
C605 C60 0.487 . S
C613 C95 0.551 . S
