# Generated by pormake.
# Topology pem, (4)-cn, num edge types: 1
# Building blocks:
#     Node 0, Type 0, BuildingBlock: KUFVIS_clean_sbu_0, # of connection points: 4
#     Node 1, Type 0, BuildingBlock: KUFVIS_clean_sbu_0, # of connection points: 4
#     Node 2, Type 0, BuildingBlock: KUFVIS_clean_sbu_0, # of connection points: 4
#     Node 3, Type 0, BuildingBlock: KUFVIS_clean_sbu_0, # of connection points: 4
#     Node 4, Type 0, BuildingBlock: KUFVIS_clean_sbu_0, # of connection points: 4
#     Node 5, Type 0, BuildingBlock: KUFVIS_clean_sbu_0, # of connection points: 4
#     Node 6, Type 0, BuildingBlock: KUFVIS_clean_sbu_0, # of connection points: 4
#     Node 7, Type 0, BuildingBlock: KUFVIS_clean_sbu_0, # of connection points: 4
#     Node 8, Type 0, BuildingBlock: KUFVIS_clean_sbu_0, # of connection points: 4
#     Node 9, Type 0, BuildingBlock: KUFVIS_clean_sbu_0, # of connection points: 4
#     Node 10, Type 0, BuildingBlock: KUFVIS_clean_sbu_0, # of connection points: 4
#     Node 11, Type 0, BuildingBlock: KUFVIS_clean_sbu_0, # of connection points: 4
#     Node 12, Type 0, BuildingBlock: KUFVIS_clean_sbu_0, # of connection points: 4
#     Node 13, Type 0, BuildingBlock: KUFVIS_clean_sbu_0, # of connection points: 4
#     Node 14, Type 0, BuildingBlock: KUFVIS_clean_sbu_0, # of connection points: 4
#     Node 15, Type 0, BuildingBlock: KUFVIS_clean_sbu_0, # of connection points: 4
#     Node 16, Type 0, BuildingBlock: KUFVIS_clean_sbu_0, # of connection points: 4
#     Node 17, Type 0, BuildingBlock: KUFVIS_clean_sbu_0, # of connection points: 4
#     Node 18, Type 0, BuildingBlock: KUFVIS_clean_sbu_0, # of connection points: 4
#     Node 19, Type 0, BuildingBlock: KUFVIS_clean_sbu_0, # of connection points: 4
#     Node 20, Type 0, BuildingBlock: KUFVIS_clean_sbu_0, # of connection points: 4
#     Node 21, Type 0, BuildingBlock: KUFVIS_clean_sbu_0, # of connection points: 4
#     Node 22, Type 0, BuildingBlock: KUFVIS_clean_sbu_0, # of connection points: 4
#     Node 23, Type 0, BuildingBlock: KUFVIS_clean_sbu_0, # of connection points: 4
#     Node 24, Type 0, BuildingBlock: KUFVIS_clean_sbu_0, # of connection points: 4
#     Node 25, Type 0, BuildingBlock: KUFVIS_clean_sbu_0, # of connection points: 4
#     Node 26, Type 0, BuildingBlock: KUFVIS_clean_sbu_0, # of connection points: 4
#     Node 27, Type 0, BuildingBlock: KUFVIS_clean_sbu_0, # of connection points: 4
#     Node 28, Type 0, BuildingBlock: KUFVIS_clean_sbu_0, # of connection points: 4
#     Node 29, Type 0, BuildingBlock: KUFVIS_clean_sbu_0, # of connection points: 4
#     Node 30, Type 0, BuildingBlock: KUFVIS_clean_sbu_0, # of connection points: 4
#     Node 31, Type 0, BuildingBlock: KUFVIS_clean_sbu_0, # of connection points: 4
#     Edge 32, Type (0, 0), BuildingBlock: XUDNAN_clean_linker_2, # of connection points: 2
#     Edge 33, Type (0, 0), BuildingBlock: XUDNAN_clean_linker_2, # of connection points: 2
#     Edge 34, Type (0, 0), BuildingBlock: XUDNAN_clean_linker_2, # of connection points: 2
#     Edge 35, Type (0, 0), BuildingBlock: XUDNAN_clean_linker_2, # of connection points: 2
#     Edge 36, Type (0, 0), BuildingBlock: XUDNAN_clean_linker_2, # of connection points: 2
#     Edge 37, Type (0, 0), BuildingBlock: XUDNAN_clean_linker_2, # of connection points: 2
#     Edge 38, Type (0, 0), BuildingBlock: XUDNAN_clean_linker_2, # of connection points: 2
#     Edge 39, Type (0, 0), BuildingBlock: XUDNAN_clean_linker_2, # of connection points: 2
#     Edge 40, Type (0, 0), BuildingBlock: XUDNAN_clean_linker_2, # of connection points: 2
#     Edge 41, Type (0, 0), BuildingBlock: XUDNAN_clean_linker_2, # of connection points: 2
#     Edge 42, Type (0, 0), BuildingBlock: XUDNAN_clean_linker_2, # of connection points: 2
#     Edge 43, Type (0, 0), BuildingBlock: XUDNAN_clean_linker_2, # of connection points: 2
#     Edge 44, Type (0, 0), BuildingBlock: XUDNAN_clean_linker_2, # of connection points: 2
#     Edge 45, Type (0, 0), BuildingBlock: XUDNAN_clean_linker_2, # of connection points: 2
#     Edge 46, Type (0, 0), BuildingBlock: XUDNAN_clean_linker_2, # of connection points: 2
#     Edge 47, Type (0, 0), BuildingBlock: XUDNAN_clean_linker_2, # of connection points: 2
#     Edge 48, Type (0, 0), BuildingBlock: XUDNAN_clean_linker_2, # of connection points: 2
#     Edge 49, Type (0, 0), BuildingBlock: XUDNAN_clean_linker_2, # of connection points: 2
#     Edge 50, Type (0, 0), BuildingBlock: XUDNAN_clean_linker_2, # of connection points: 2
#     Edge 51, Type (0, 0), BuildingBlock: XUDNAN_clean_linker_2, # of connection points: 2
#     Edge 52, Type (0, 0), BuildingBlock: XUDNAN_clean_linker_2, # of connection points: 2
#     Edge 53, Type (0, 0), BuildingBlock: XUDNAN_clean_linker_2, # of connection points: 2
#     Edge 54, Type (0, 0), BuildingBlock: XUDNAN_clean_linker_2, # of connection points: 2
#     Edge 55, Type (0, 0), BuildingBlock: XUDNAN_clean_linker_2, # of connection points: 2
#     Edge 56, Type (0, 0), BuildingBlock: XUDNAN_clean_linker_2, # of connection points: 2
#     Edge 57, Type (0, 0), BuildingBlock: XUDNAN_clean_linker_2, # of connection points: 2
#     Edge 58, Type (0, 0), BuildingBlock: XUDNAN_clean_linker_2, # of connection points: 2
#     Edge 59, Type (0, 0), BuildingBlock: XUDNAN_clean_linker_2, # of connection points: 2
#     Edge 60, Type (0, 0), BuildingBlock: XUDNAN_clean_linker_2, # of connection points: 2
#     Edge 61, Type (0, 0), BuildingBlock: XUDNAN_clean_linker_2, # of connection points: 2
#     Edge 62, Type (0, 0), BuildingBlock: XUDNAN_clean_linker_2, # of connection points: 2
#     Edge 63, Type (0, 0), BuildingBlock: XUDNAN_clean_linker_2, # of connection points: 2
#     Edge 64, Type (0, 0), BuildingBlock: XUDNAN_clean_linker_2, # of connection points: 2
#     Edge 65, Type (0, 0), BuildingBlock: XUDNAN_clean_linker_2, # of connection points: 2
#     Edge 66, Type (0, 0), BuildingBlock: XUDNAN_clean_linker_2, # of connection points: 2
#     Edge 67, Type (0, 0), BuildingBlock: XUDNAN_clean_linker_2, # of connection points: 2
#     Edge 68, Type (0, 0), BuildingBlock: XUDNAN_clean_linker_2, # of connection points: 2
#     Edge 69, Type (0, 0), BuildingBlock: XUDNAN_clean_linker_2, # of connection points: 2
#     Edge 70, Type (0, 0), BuildingBlock: XUDNAN_clean_linker_2, # of connection points: 2
#     Edge 71, Type (0, 0), BuildingBlock: XUDNAN_clean_linker_2, # of connection points: 2
#     Edge 72, Type (0, 0), BuildingBlock: XUDNAN_clean_linker_2, # of connection points: 2
#     Edge 73, Type (0, 0), BuildingBlock: XUDNAN_clean_linker_2, # of connection points: 2
#     Edge 74, Type (0, 0), BuildingBlock: XUDNAN_clean_linker_2, # of connection points: 2
#     Edge 75, Type (0, 0), BuildingBlock: XUDNAN_clean_linker_2, # of connection points: 2
#     Edge 76, Type (0, 0), BuildingBlock: XUDNAN_clean_linker_2, # of connection points: 2
#     Edge 77, Type (0, 0), BuildingBlock: XUDNAN_clean_linker_2, # of connection points: 2
#     Edge 78, Type (0, 0), BuildingBlock: XUDNAN_clean_linker_2, # of connection points: 2
#     Edge 79, Type (0, 0), BuildingBlock: XUDNAN_clean_linker_2, # of connection points: 2
#     Edge 80, Type (0, 0), BuildingBlock: XUDNAN_clean_linker_2, # of connection points: 2
#     Edge 81, Type (0, 0), BuildingBlock: XUDNAN_clean_linker_2, # of connection points: 2
#     Edge 82, Type (0, 0), BuildingBlock: XUDNAN_clean_linker_2, # of connection points: 2
#     Edge 83, Type (0, 0), BuildingBlock: XUDNAN_clean_linker_2, # of connection points: 2
#     Edge 84, Type (0, 0), BuildingBlock: XUDNAN_clean_linker_2, # of connection points: 2
#     Edge 85, Type (0, 0), BuildingBlock: XUDNAN_clean_linker_2, # of connection points: 2
#     Edge 86, Type (0, 0), BuildingBlock: XUDNAN_clean_linker_2, # of connection points: 2
#     Edge 87, Type (0, 0), BuildingBlock: XUDNAN_clean_linker_2, # of connection points: 2
#     Edge 88, Type (0, 0), BuildingBlock: XUDNAN_clean_linker_2, # of connection points: 2
#     Edge 89, Type (0, 0), BuildingBlock: XUDNAN_clean_linker_2, # of connection points: 2
#     Edge 90, Type (0, 0), BuildingBlock: XUDNAN_clean_linker_2, # of connection points: 2
#     Edge 91, Type (0, 0), BuildingBlock: XUDNAN_clean_linker_2, # of connection points: 2
#     Edge 92, Type (0, 0), BuildingBlock: XUDNAN_clean_linker_2, # of connection points: 2
#     Edge 93, Type (0, 0), BuildingBlock: XUDNAN_clean_linker_2, # of connection points: 2
#     Edge 94, Type (0, 0), BuildingBlock: XUDNAN_clean_linker_2, # of connection points: 2
#     Edge 95, Type (0, 0), BuildingBlock: XUDNAN_clean_linker_2, # of connection points: 2
# Relax obj value: 0.171
# Max RMSD: 0.152
# Mean RMSD: 0.131
data_MOF--net-pem--node1-KUFVIS_clean_sbu_0--edge1-XUDNAN_clean_linker_2
_symmetry_space_group_name_H-M    P1
_symmetry_Int_Tables_number       1
_symmetry_cell_setting            triclinic
loop_
_symmetry_equiv_pos_as_xyz
'x, y, z'
_cell_length_a     44.221733
_cell_length_b     41.060283
_cell_length_c     40.153602
_cell_angle_alpha  91.580247
_cell_angle_beta   91.16992
_cell_angle_gamma 92.745389
loop_
_atom_site_label
_atom_site_type_symbol
_atom_site_fract_x
_atom_site_fract_y
_atom_site_fract_z
_atom_type_partial_charge
Mn0 Mn 0.07854 0.09632 0.13765 0.0
Mn1 Mn 0.08173 0.0212 0.10259 0.0
C2 C 0.05555 0.08397 0.0863 0.0
C3 C 0.04983 0.13584 0.16518 0.0
C4 C 0.13266 0.07275 0.09923 0.0
O5 O 0.0912 0.06925 0.17814 0.0
O6 O 0.09271 0.02065 0.15064 0.0
C7 C 0.03006 0.99124 0.1386 0.0
N8 N 0.04413 0.99772 0.10951 0.0
C9 C 1.00758 0.96347 0.07814 0.0
C10 C 0.99279 0.95617 0.10777 0.0
C11 C 1.00384 0.9705 0.13809 0.0
C12 C 0.03272 0.98554 0.08005 0.0
H13 H 0.03884 1.00174 0.16197 0.0
C14 C 0.09549 0.03843 0.17723 0.0
O15 O 0.07881 0.14055 0.16127 0.0
O16 O 0.03887 0.10696 0.15726 0.0
N17 N 0.07147 0.0166 0.05609 0.0
C18 C 0.08869 0.02567 0.02981 0.0
C19 C 0.08197 0.01185 0.998 0.0
C20 C 0.05775 0.98864 0.99351 0.0
C21 C 0.03975 0.98044 0.02064 0.0
C22 C 0.04766 0.99486 0.05182 0.0
H23 H 0.10803 0.04252 0.03322 0.0
O24 O 0.06442 0.11351 0.09456 0.0
O25 O 0.06182 0.0622 0.10792 0.0
O26 O 0.12082 0.09405 0.11814 0.0
O27 O 0.12051 0.04436 0.0929 0.0
C28 C 0.01508 0.95742 0.01823 0.0
C29 C 0.99887 0.94912 0.04693 0.0
H30 H 0.973 0.93955 0.10755 0.0
H31 H 0.99251 0.96509 0.16107 0.0
H32 H 0.09578 0.01861 0.97711 0.0
H33 H 0.05284 0.97775 0.969 0.0
H34 H 0.00853 0.94577 0.99448 0.0
H35 H 0.97998 0.93135 0.04476 0.0
Mn36 Mn 0.18814 0.8491 0.38093 0.0
Mn37 Mn 0.20573 0.77526 0.40936 0.0
C38 C 0.21993 0.81785 0.35212 0.0
C39 C 0.16321 0.88516 0.34598 0.0
C40 C 0.23254 0.83895 0.44017 0.0
O41 O 0.15155 0.83624 0.40894 0.0
O42 O 0.16527 0.78683 0.42659 0.0
C43 C 0.15758 0.73055 0.37824 0.0
N44 N 0.18745 0.73961 0.38298 0.0
C45 C 0.20223 0.69294 0.35056 0.0
C46 C 0.17164 0.68323 0.34549 0.0
C47 C 0.14923 0.70214 0.35939 0.0
C48 C 0.20924 0.72125 0.37008 0.0
H49 H 0.14019 0.74476 0.38868 0.0
C50 C 0.14545 0.8083 0.42166 0.0
O51 O 0.17725 0.89464 0.37339 0.0
O52 O 0.16096 0.8539 0.34008 0.0
N53 N 0.24336 0.76143 0.39227 0.0
C54 C 0.27156 0.7762 0.39587 0.0
C55 C 0.2963 0.76164 0.38124 0.0
C56 C 0.29184 0.73204 0.36308 0.0
C57 C 0.26264 0.71744 0.35942 0.0
C58 C 0.23882 0.73304 0.37464 0.0
H59 H 0.27519 0.79912 0.40949 0.0
O60 O 0.22277 0.84941 0.35109 0.0
O61 O 0.20032 0.80539 0.37239 0.0
O62 O 0.21788 0.85739 0.42123 0.0
O63 O 0.22791 0.80811 0.43911 0.0
C64 C 0.25616 0.68854 0.34036 0.0
C65 C 0.22599 0.67622 0.33607 0.0
H66 H 0.16508 0.66154 0.33061 0.0
H67 H 0.12553 0.69489 0.35553 0.0
H68 H 0.31874 0.77326 0.38385 0.0
H69 H 0.31089 0.72094 0.35169 0.0
H70 H 0.27414 0.67598 0.32831 0.0
H71 H 0.22122 0.65432 0.32083 0.0
Mn72 Mn 0.45567 0.88352 0.64538 0.0
Mn73 Mn 0.43197 0.96006 0.64355 0.0
C74 C 0.4708 0.91731 0.60319 0.0
C75 C 0.49268 0.84772 0.66326 0.0
C76 C 0.3955 0.90202 0.61066 0.0
O77 O 0.4375 0.88819 0.69299 0.0
O78 O 0.42773 0.94054 0.68868 0.0
C79 C 0.48206 0.98802 0.68739 0.0
N80 N 0.46261 0.99041 0.66107 0.0
C81 C 0.48053 0.04548 0.6517 0.0
C82 C 0.49904 0.04463 0.68042 0.0
C83 C 0.50057 0.01539 0.69771 0.0
C84 C 0.46334 0.01714 0.6423 0.0
H85 H 0.48388 0.96515 0.69957 0.0
C86 C 0.42914 0.91496 0.706 0.0
O87 O 0.46603 0.8374 0.65288 0.0
O88 O 0.49733 0.87898 0.66557 0.0
N89 N 0.43495 0.98473 0.60377 0.0
C90 C 0.42184 0.97881 0.57309 0.0
C91 C 0.42164 1.00381 0.54993 0.0
C92 C 0.43439 0.03491 0.55878 0.0
C93 C 0.44825 0.04035 0.59028 0.0
C94 C 0.44826 0.01428 0.61199 0.0
H95 H 0.41254 0.9549 0.56601 0.0
O96 O 0.47378 0.88622 0.60077 0.0
O97 O 0.46185 0.92872 0.63163 0.0
O98 O 0.41326 0.87975 0.61962 0.0
O99 O 0.39922 0.93135 0.62206 0.0
C100 C 0.46281 0.07034 0.60071 0.0
C101 C 0.47927 0.0728 0.6313 0.0
H102 H 0.51313 0.06577 0.68856 0.0
H103 H 0.51597 0.01396 0.71884 0.0
H104 H 0.41153 0.99915 0.52539 0.0
H105 H 0.43409 0.05419 0.54091 0.0
H106 H 0.46284 0.09111 0.58466 0.0
H107 H 0.49178 0.09538 0.63823 0.0
Mn108 Mn 0.30889 0.13873 0.8821 0.0
Mn109 Mn 0.32301 0.14321 0.80002 0.0
C110 C 0.28765 0.17837 0.85063 0.0
C111 C 0.27973 0.11842 0.92502 0.0
C112 C 0.36647 0.17256 0.85451 0.0
O113 O 0.32624 0.09386 0.87177 0.0
O114 O 0.33039 0.0997 0.81683 0.0
C115 C 0.27285 0.09714 0.77676 0.0
N116 N 0.28899 0.12596 0.77407 0.0
C117 C 0.26014 0.13937 0.72536 0.0
C118 C 0.24389 0.10928 0.72686 0.0
C119 C 0.25001 0.08826 0.75295 0.0
C120 C 0.28236 0.14698 0.75003 0.0
H121 H 0.27728 0.0813 0.79708 0.0
C122 C 0.33072 0.08223 0.84257 0.0
O123 O 0.30713 0.1303 0.93027 0.0
O124 O 0.26963 0.11672 0.89449 0.0
N125 N 0.31644 0.18329 0.77838 0.0
C126 C 0.33247 0.21236 0.78204 0.0
C127 C 0.32919 0.23624 0.7581 0.0
C128 C 0.3089 0.23042 0.731 0.0
C129 C 0.29248 0.20042 0.72779 0.0
C130 C 0.29742 0.17714 0.75189 0.0
H131 H 0.34786 0.21722 0.80286 0.0
O132 O 0.28931 0.18187 0.88277 0.0
O133 O 0.2973 0.15157 0.83794 0.0
O134 O 0.35077 0.16385 0.87951 0.0
O135 O 0.35914 0.16337 0.82451 0.0
C136 C 0.27138 0.19266 0.70166 0.0
C137 C 0.25486 0.16236 0.70073 0.0
H138 H 0.22633 0.10232 0.70847 0.0
H139 H 0.2372 0.06526 0.75468 0.0
H140 H 0.34252 0.259 0.76045 0.0
H141 H 0.3061 0.24914 0.71286 0.0
H142 H 0.26717 0.21013 0.68258 0.0
H143 H 0.23803 0.15708 0.68111 0.0
Mn144 Mn 0.10608 0.95277 0.39047 0.0
Mn145 Mn 0.08714 0.92094 0.46279 0.0
C146 C 0.06437 0.97001 0.41673 0.0
C147 C 0.12674 0.99364 0.35557 0.0
C148 C 0.06818 0.88869 0.39895 0.0
O149 O 0.14688 0.9395 0.4086 0.0
O150 O 0.12478 0.90519 0.44344 0.0
C151 C 0.13572 0.96168 0.49976 0.0
N152 N 0.10779 0.94627 0.49799 0.0
C153 C 0.09866 0.9611 0.55519 0.0
C154 C 0.12852 0.97402 0.55852 0.0
C155 C 0.14684 0.97522 0.53037 0.0
C156 C 0.0889 0.94843 0.52386 0.0
H157 H 0.14885 0.96489 0.47789 0.0
C158 C 0.14844 0.91924 0.43198 0.0
O159 O 0.12066 0.9639 0.34514 0.0
O160 O 0.12262 0.99931 0.38695 0.0
N161 N 0.05107 0.93082 0.48553 0.0
C162 C 0.02209 0.9206 0.47709 0.0
C163 C 0.99995 0.91977 0.50167 0.0
C164 C 1.00771 0.92972 0.53461 0.0
C165 C 0.03764 0.94011 0.54276 0.0
C166 C 0.05885 0.93972 0.51736 0.0
H167 H 0.01614 0.912 0.45204 0.0
O168 O 0.06522 0.96788 0.38444 0.0
O169 O 0.08692 0.95849 0.43333 0.0
O170 O 0.08788 0.90481 0.38198 0.0
O171 O 0.06433 0.89473 0.42963 0.0
C172 C 0.04737 0.95056 0.57515 0.0
C173 C 0.07781 0.96145 0.58127 0.0
H174 H 0.13712 0.98444 0.58212 0.0
H175 H 0.16933 0.98685 0.53215 0.0
H176 H 0.97695 0.9113 0.49527 0.0
H177 H 0.99056 0.92906 0.55348 0.0
H178 H 0.03149 0.95109 0.59531 0.0
H179 H 0.08478 0.97064 0.60593 0.0
Mn180 Mn 0.32198 0.86388 0.64833 0.0
Mn181 Mn 0.35161 0.85208 0.72421 0.0
C182 C 0.30441 0.81913 0.67734 0.0
C183 C 0.2869 0.8897 0.61548 0.0
C184 C 0.38221 0.82986 0.66037 0.0
O185 O 0.34353 0.90898 0.65872 0.0
O186 O 0.35535 0.89903 0.71129 0.0
C187 C 0.30464 0.88708 0.76127 0.0
N188 N 0.32467 0.86315 0.75881 0.0
C189 C 0.3152 0.84643 0.81466 0.0
C190 C 0.2965 0.8728 0.81899 0.0
C191 C 0.29004 0.89224 0.79166 0.0
C192 C 0.32775 0.84175 0.78334 0.0
H193 H 0.29935 0.90118 0.73991 0.0
C194 C 0.35315 0.91882 0.68741 0.0
O195 O 0.31141 0.87877 0.60366 0.0
O196 O 0.28214 0.88563 0.64678 0.0
N197 N 0.34962 0.80975 0.74293 0.0
C198 C 0.36128 0.78157 0.7317 0.0
C199 C 0.36559 0.75624 0.75386 0.0
C200 C 0.35833 0.76043 0.78757 0.0
C201 C 0.34561 0.78939 0.79845 0.0
C202 C 0.34156 0.81349 0.77503 0.0
H203 H 0.36631 0.77826 0.70578 0.0
O204 O 0.30023 0.82064 0.64548 0.0
O205 O 0.31765 0.84472 0.69215 0.0
O206 O 0.3621 0.83998 0.64015 0.0
O207 O 0.38189 0.83686 0.6916 0.0
C208 C 0.3359 0.79501 0.83129 0.0
C209 C 0.32035 0.82339 0.83931 0.0
H210 H 0.2855 0.87705 0.84246 0.0
H211 H 0.27391 0.9111 0.79408 0.0
H212 H 0.37471 0.73366 0.74503 0.0
H213 H 0.36181 0.74093 0.80465 0.0
H214 H 0.33886 0.77692 0.85007 0.0
H215 H 0.31132 0.82652 0.864 0.0
Mn216 Mn 0.44616 0.13146 0.92407 0.0
Mn217 Mn 0.42942 0.06229 0.96328 0.0
C218 C 0.46701 0.12445 0.97664 0.0
C219 C 0.47669 0.16057 0.88809 0.0
C220 C 0.38593 0.11731 0.95985 0.0
O221 O 0.43193 0.10043 0.88593 0.0
O222 O 0.42586 0.05404 0.91369 0.0
C223 C 0.48347 0.0291 0.94101 0.0
N224 N 0.46435 0.03713 0.96566 0.0
C225 C 0.49389 0.01022 1.00651 0.0
C226 C 0.51421 1.00215 0.98176 0.0
C227 C 0.50909 0.01187 0.94894 0.0
C228 C 0.46997 0.02939 0.9976 0.0
H229 H 0.47978 0.03685 0.91583 0.0
C230 C 0.42858 0.06951 0.88645 0.0
O231 O 0.44895 0.16791 0.89296 0.0
O232 O 0.48645 0.13557 0.90319 0.0
N233 N 0.43284 0.06523 0.01099 0.0
C234 C 0.41626 0.08217 0.03319 0.0
C235 C 0.41947 0.07669 0.06742 0.0
C236 C 0.43976 0.05387 0.07856 0.0
C237 C 0.45705 0.03722 0.05537 0.0
C238 C 0.45269 0.04356 0.02155 0.0
H239 H 0.40118 0.10019 0.02504 0.0
O240 O 0.46448 0.15346 0.9653 0.0
O241 O 0.45612 0.10091 0.95707 0.0
O242 O 0.40335 0.1365 0.94339 0.0
O243 O 0.39201 0.08761 0.96461 0.0
C244 C 0.47889 0.01506 0.06449 0.0
C245 C 0.4973 1.00149 0.03998 0.0
H246 H 0.53444 0.98972 0.98807 0.0
H247 H 0.52537 1.00716 0.93 0.0
H248 H 0.40643 0.09013 0.08518 0.0
H249 H 0.44234 0.04984 0.10499 0.0
H250 H 0.48245 1.00917 0.09036 0.0
H251 H 0.51461 0.98519 0.0473 0.0
Mn252 Mn 0.18775 0.20821 0.14718 0.0
Mn253 Mn 0.15264 0.25027 0.20658 0.0
C254 C 0.20471 0.261 0.16098 0.0
C255 C 0.22707 0.18043 0.11936 0.0
C256 C 0.1263 0.23871 0.13881 0.0
O257 O 0.17322 0.17121 0.17688 0.0
O258 O 0.14222 0.20209 0.2075 0.0
C259 C 0.1702 0.22427 0.27147 0.0
N260 N 0.16981 0.24996 0.25069 0.0
C261 C 0.17264 0.28809 0.2977 0.0
C262 C 0.17271 0.26197 0.31927 0.0
C263 C 0.17135 0.22993 0.30609 0.0
C264 C 0.17034 0.28096 0.26338 0.0
H265 H 0.16825 0.19953 0.26196 0.0
C266 C 0.15389 0.17476 0.19998 0.0
O267 O 0.19941 0.18 0.10846 0.0
O268 O 0.23165 0.19465 0.1484 0.0
N269 N 0.16104 0.29631 0.20912 0.0
C270 C 0.15866 0.31873 0.18493 0.0
C271 C 0.16179 0.35209 0.19363 0.0
C272 C 0.16659 0.362 0.22718 0.0
C273 C 0.16886 0.3384 0.25159 0.0
C274 C 0.16672 0.30553 0.24119 0.0
H275 H 0.15437 0.31113 0.15926 0.0
O276 O 0.20254 0.25056 0.13012 0.0
O277 O 0.19089 0.24267 0.18274 0.0
O278 O 0.14356 0.21608 0.13049 0.0
O279 O 0.13033 0.25516 0.16548 0.0
C280 C 0.17275 0.34614 0.28584 0.0
C281 C 0.174 0.32097 0.30897 0.0
H282 H 0.17349 0.26623 0.34603 0.0
H283 H 0.1709 0.20955 0.32264 0.0
H284 H 0.15996 0.37012 0.17463 0.0
H285 H 0.16837 0.38775 0.23392 0.0
H286 H 0.17421 0.37133 0.29472 0.0
H287 H 0.17614 0.32716 0.33534 0.0
Mn288 Mn 0.58012 0.39339 0.91127 0.0
Mn289 Mn 0.56358 0.3562 0.98369 0.0
C290 C 0.55097 0.41815 0.94951 0.0
C291 C 0.60746 0.43066 0.87807 0.0
C292 C 0.53245 0.33615 0.91775 0.0
O293 O 0.61456 0.36259 0.91716 0.0
O294 O 0.6019 0.33954 0.96593 0.0
C295 C 0.61537 0.37946 0.02783 0.0
N296 N 0.58499 0.37649 0.02133 0.0
C297 C 0.57438 0.39978 0.07531 0.0
C298 C 0.60555 0.40309 0.08246 0.0
C299 C 0.62612 0.39295 0.05857 0.0
C300 C 0.56497 0.38597 0.04429 0.0
H301 H 0.63133 0.37146 1.00987 0.0
C302 C 0.62053 0.34535 0.94244 0.0
O303 O 0.5911 0.40623 0.86524 0.0
O304 O 0.61006 0.43202 0.9103 0.0
N305 N 0.52787 0.37145 1.00396 0.0
C306 C 0.49881 0.37009 0.9918 0.0
C307 C 0.47566 0.38141 0.01179 0.0
C308 C 0.48253 0.39386 0.04412 0.0
C309 C 0.51252 0.3949 0.05616 0.0
C310 C 0.53472 0.3834 0.03504 0.0
H311 H 0.49333 0.36074 0.96693 0.0
O312 O 0.54792 0.42445 0.91814 0.0
O313 O 0.56966 0.39609 0.95758 0.0
O314 O 0.54724 0.35661 0.90009 0.0
O315 O 0.53858 0.33278 0.94851 0.0
C316 C 0.5214 0.40794 0.08787 0.0
C317 C 0.5523 0.41034 0.09746 0.0
H318 H 0.61395 0.41365 0.10609 0.0
H319 H 0.65024 0.39541 0.06388 0.0
H320 H 0.4526 0.38065 1.00222 0.0
H321 H 0.46474 0.40312 0.05927 0.0
H322 H 0.5047 0.41686 0.10478 0.0
H323 H 0.5589 0.42104 0.12164 0.0
Mn324 Mn 0.8225 0.31008 0.13888 0.0
Mn325 Mn 0.83122 0.30132 0.22132 0.0
C326 C 0.79468 0.26939 0.16567 0.0
C327 C 0.79253 0.329 0.09489 0.0
C328 C 0.87974 0.28367 0.17219 0.0
O329 O 0.83895 0.35609 0.15526 0.0
O330 O 0.84131 0.3472 0.21062 0.0
C331 C 0.77978 0.34118 0.23912 0.0
N332 N 0.7939 0.31246 0.24071 0.0
C333 C 0.75035 0.28595 0.26487 0.0
C334 C 0.73492 0.31477 0.2621 0.0
C335 C 0.74986 0.3427 0.24977 0.0
C336 C 0.77985 0.28564 0.2531 0.0
H337 H 0.79076 0.3624 0.22851 0.0
C338 C 0.84333 0.36594 0.18576 0.0
O339 O 0.82019 0.32088 0.09012 0.0
O340 O 0.78346 0.32867 0.12503 0.0
N341 N 0.82116 0.2578 0.23456 0.0
C342 C 0.83744 0.23062 0.23103 0.0
C343 C 0.82646 0.2012 0.2444 0.0
C344 C 0.79892 0.20007 0.26127 0.0
C345 C 0.78254 0.22835 0.26443 0.0
C346 C 0.7948 0.25701 0.25098 0.0
H347 H 0.85873 0.2314 0.2183 0.0
O348 O 0.80121 0.26537 0.13457 0.0
O349 O 0.80877 0.29446 0.1799 0.0
O350 O 0.86462 0.28992 0.1456 0.0
O351 O 0.86988 0.28834 0.20165 0.0
C352 C 0.75411 0.22905 0.27956 0.0
C353 C 0.73732 0.25726 0.27801 0.0
H354 H 0.71156 0.31568 0.26932 0.0
H355 H 0.73811 0.36511 0.24783 0.0
H356 H 0.83919 0.17945 0.24171 0.0
H357 H 0.79035 0.17728 0.27126 0.0
H358 H 0.74414 0.20743 0.29066 0.0
H359 H 0.71449 0.25664 0.28714 0.0
Mn360 Mn 0.93732 0.61245 0.4175 0.0
Mn361 Mn 0.92027 0.53475 0.43574 0.0
C362 C 0.95819 0.59126 0.4644 0.0
C363 C 0.97062 0.65226 0.39527 0.0
C364 C 0.87976 0.58903 0.45506 0.0
O365 O 0.92115 0.59225 0.3722 0.0
O366 O 0.90738 0.54263 0.38865 0.0
C367 C 0.96708 0.51125 0.39057 0.0
N368 N 0.95438 0.51175 0.42123 0.0
C369 C 0.99642 0.48489 0.44501 0.0
C370 C 0.00953 0.48342 0.41353 0.0
C371 C 0.99473 0.49655 0.38618 0.0
C372 C 0.96871 0.49954 0.44782 0.0
H373 H 0.95683 0.52289 0.36978 0.0
C374 C 0.90978 0.5633 0.36532 0.0
O375 O 0.94255 0.65831 0.40094 0.0
O376 O 0.97808 0.62252 0.39882 0.0
N377 N 0.93124 0.52205 0.47965 0.0
C378 C 0.91552 0.52529 0.50834 0.0
C379 C 0.92603 0.5111 0.53755 0.0
C380 C 0.95258 0.49371 0.53696 0.0
C381 C 0.96805 0.49037 0.50705 0.0
C382 C 0.95585 0.50395 0.47849 0.0
H383 H 0.8951 0.53852 0.50905 0.0
O384 O 0.95577 0.6224 0.46245 0.0
O385 O 0.94776 0.57353 0.439 0.0
O386 O 0.89479 0.61129 0.43942 0.0
O387 O 0.88609 0.55895 0.45346 0.0
C388 C 0.99541 0.47466 0.50456 0.0
C389 C 0.01027 0.47338 0.47396 0.0
H390 H 0.03131 0.47295 0.41019 0.0
H391 H 1.00499 0.49609 0.36193 0.0
H392 H 0.91384 0.51379 0.56048 0.0
H393 H 0.96105 0.48334 0.55964 0.0
H394 H 1.00541 0.46382 0.52608 0.0
H395 H 0.03235 0.46336 0.47296 0.0
Mn396 Mn 0.84699 0.69096 0.37585 0.0
Mn397 Mn 0.85959 0.69737 0.29357 0.0
C398 C 0.82922 0.73345 0.34685 0.0
C399 C 0.81448 0.67245 0.41775 0.0
C400 C 0.90547 0.72148 0.3465 0.0
O401 O 0.85997 0.64495 0.36323 0.0
O402 O 0.86972 0.65409 0.30933 0.0
C403 C 0.81335 0.64812 0.26747 0.0
N404 N 0.82529 0.67935 0.26851 0.0
C405 C 0.79437 0.69329 0.22151 0.0
C406 C 0.7817 0.6613 0.21997 0.0
C407 C 0.79101 0.63872 0.24328 0.0
C408 C 0.81584 0.70152 0.24682 0.0
H409 H 0.82111 0.63038 0.28463 0.0
C410 C 0.8685 0.63574 0.33444 0.0
O411 O 0.84282 0.68053 0.4244 0.0
O412 O 0.8057 0.67337 0.38702 0.0
N413 N 0.85037 0.73795 0.27437 0.0
C414 C 0.86476 0.76785 0.27932 0.0
C415 C 0.8566 0.79377 0.25945 0.0
C416 C 0.8346 0.7884 0.23391 0.0
C417 C 0.82071 0.7572 0.22871 0.0
C418 C 0.82893 0.73262 0.25012 0.0
H419 H 0.88225 0.77188 0.29835 0.0
O420 O 0.83246 0.73576 0.37896 0.0
O421 O 0.83543 0.70587 0.33257 0.0
O422 O 0.89119 0.7113 0.37217 0.0
O423 O 0.8953 0.71697 0.31674 0.0
C424 C 0.79954 0.74934 0.20267 0.0
C425 C 0.78662 0.71731 0.19886 0.0
H426 H 0.76482 0.65382 0.20101 0.0
H427 H 0.78141 0.61395 0.24221 0.0
H428 H 0.86762 0.8177 0.26343 0.0
H429 H 0.82879 0.8083 0.2182 0.0
H430 H 0.793 0.76774 0.18546 0.0
H431 H 0.77024 0.71161 0.17886 0.0
Mn432 Mn 0.66905 0.36973 0.80976 0.0
Mn433 Mn 0.6804 0.29129 0.82864 0.0
C434 C 0.7011 0.33902 0.77846 0.0
C435 C 0.64259 0.40773 0.77925 0.0
C436 C 0.7094 0.34898 0.86879 0.0
O437 O 0.63148 0.35736 0.83655 0.0
O438 O 0.6429 0.30575 0.84674 0.0
C439 C 0.62871 0.25917 0.79039 0.0
N440 N 0.65882 0.26158 0.79834 0.0
C441 C 0.66674 0.20971 0.77164 0.0
C442 C 0.63581 0.20663 0.76304 0.0
C443 C 0.61677 0.23169 0.77211 0.0
C444 C 0.67751 0.23832 0.78855 0.0
H445 H 0.61391 0.27787 0.79824 0.0
C446 C 0.62542 0.32936 0.84852 0.0
O447 O 0.65755 0.41609 0.80653 0.0
O448 O 0.64237 0.37733 0.76997 0.0
N449 N 0.71604 0.27231 0.81269 0.0
C450 C 0.7452 0.27908 0.82306 0.0
C451 C 0.76695 0.256 0.81708 0.0
C452 C 0.75857 0.22602 0.8011 0.0
C453 C 0.72841 0.21958 0.79062 0.0
C454 C 0.70777 0.24368 0.79677 0.0
H455 H 0.75158 0.30142 0.83679 0.0
O456 O 0.70467 0.37061 0.77961 0.0
O457 O 0.68004 0.32633 0.79656 0.0
O458 O 0.69781 0.372 0.85249 0.0
O459 O 0.70359 0.31902 0.86113 0.0
C460 C 0.71777 0.18975 0.77537 0.0
C461 C 0.68714 0.18516 0.76505 0.0
H462 H 0.62641 0.18504 0.74975 0.0
H463 H 0.59285 0.22947 0.76575 0.0
H464 H 0.78998 0.26104 0.8255 0.0
H465 H 0.77539 0.20802 0.79743 0.0
H466 H 0.733 0.17025 0.7712 0.0
H467 H 0.67941 0.16241 0.75269 0.0
Mn468 Mn 0.92184 0.89713 0.95592 0.0
Mn469 Mn 0.86935 0.95175 0.97845 0.0
C470 C 0.9354 0.94995 0.97383 0.0
C471 C 0.9602 0.85879 0.96384 0.0
C472 C 0.88658 0.93909 0.90728 0.0
O473 O 0.88358 0.86621 0.96713 0.0
O474 O 0.85263 0.90679 0.97867 0.0
C475 C 0.86757 0.9318 0.04894 0.0
N476 N 0.8678 0.95556 0.02595 0.0
C477 C 0.8675 0.99755 0.06897 0.0
C478 C 0.86522 0.9734 0.09293 0.0
C479 C 0.86588 0.9404 0.0829 0.0
C480 C 0.86908 0.98746 0.03547 0.0
H481 H 0.86921 0.90654 0.0414 0.0
C482 C 0.85802 0.87656 0.9774 0.0
O483 O 0.94702 0.8629 0.93533 0.0
O484 O 0.94902 0.87447 0.98896 0.0
N485 N 0.88117 0.99729 0.98038 0.0
C486 C 0.88862 0.01738 0.95501 0.0
C487 C 0.89174 0.0512 0.96115 0.0
C488 C 0.88686 0.06416 0.9932 0.0
C489 C 0.87898 0.04313 0.01887 0.0
C490 C 0.87565 1.00964 0.01114 0.0
H491 H 0.89236 1.00775 0.9303 0.0
O492 O 0.9535 0.9339 0.95526 0.0
O493 O 0.9103 0.93515 0.98166 0.0
O494 O 0.90373 0.91549 0.91266 0.0
O495 O 0.87044 0.95159 0.9297 0.0
C496 C 0.87548 0.05397 0.0521 0.0
C497 C 0.86998 0.03117 0.07719 0.0
H498 H 0.86419 0.97995 0.11919 0.0
H499 H 0.86536 0.92166 0.10134 0.0
H500 H 0.898 0.06725 0.94124 0.0
H501 H 0.88976 0.09023 0.99795 0.0
H502 H 0.87806 0.0797 0.05884 0.0
H503 H 0.86862 0.0397 0.10285 0.0
Mn504 Mn 0.86042 0.15707 0.69993 0.0
Mn505 Mn 0.89015 0.19792 0.7685 0.0
C506 C 0.8291 0.17815 0.73873 0.0
C507 C 0.83159 0.15328 0.64802 0.0
C508 C 0.89241 0.12485 0.75845 0.0
O509 O 0.90051 0.17714 0.68315 0.0
O510 O 0.91995 0.19984 0.73186 0.0
C511 C 0.90007 0.26635 0.74741 0.0
N512 N 0.88676 0.2443 0.76797 0.0
C513 C 0.87347 0.28724 0.8063 0.0
C514 C 0.88786 0.31021 0.78597 0.0
C515 C 0.90075 0.29973 0.7561 0.0
C516 C 0.87346 0.25428 0.79628 0.0
H517 H 0.91041 0.25863 0.72474 0.0
C518 C 0.92044 0.19521 0.70008 0.0
O519 O 0.84709 0.12931 0.65837 0.0
O520 O 0.83584 0.18011 0.66549 0.0
N521 N 0.86276 0.19918 0.80475 0.0
C522 C 0.84935 0.174 0.82124 0.0
C523 C 0.83309 0.18054 0.85015 0.0
C524 C 0.83141 0.21283 0.86221 0.0
C525 C 0.84539 0.23835 0.84477 0.0
C526 C 0.86025 0.2304 0.81541 0.0
H527 H 0.85124 0.14915 0.81249 0.0
O528 O 0.82288 0.14956 0.72489 0.0
O529 O 0.85676 0.18962 0.73552 0.0
O530 O 0.88148 0.12316 0.72876 0.0
O531 O 0.89581 0.15141 0.77516 0.0
C532 C 0.84513 0.27136 0.85533 0.0
C533 C 0.85919 0.29578 0.83613 0.0
H534 H 0.88855 0.33597 0.79267 0.0
H535 H 0.9115 0.31732 0.73999 0.0
H536 H 0.82234 0.16069 0.86342 0.0
H537 H 0.81928 0.21776 0.88483 0.0
H538 H 0.83394 0.27825 0.87804 0.0
H539 H 0.85875 0.32107 0.84444 0.0
Mn540 Mn 0.60981 0.09238 0.43661 0.0
Mn541 Mn 0.64342 0.02424 0.46207 0.0
C542 C 0.58227 0.04438 0.44558 0.0
C543 C 0.58079 0.13995 0.44441 0.0
C544 C 0.64035 0.0432 0.38934 0.0
O545 O 0.65007 0.11103 0.45988 0.0
O546 O 0.67186 0.06329 0.46921 0.0
C547 C 0.65042 0.04053 0.53469 0.0
N548 N 0.64006 0.01988 0.50938 0.0
C549 C 0.62851 0.97743 0.54801 0.0
C550 C 0.64015 0.99788 0.57421 0.0
C551 C 0.65061 0.02979 0.56757 0.0
C552 C 0.62838 0.98974 0.5158 0.0
H553 H 0.65852 0.06499 0.53003 0.0
C554 C 0.67127 0.09443 0.47289 0.0
O555 O 0.59632 0.13497 0.41786 0.0
O556 O 0.58433 0.11914 0.4677 0.0
N557 N 0.61875 0.98444 0.45868 0.0
C558 C 0.6081 0.9675 0.43087 0.0
C559 C 0.59364 0.93656 0.43386 0.0
C560 C 0.59136 0.92266 0.46527 0.0
C561 C 0.60342 0.93994 0.49344 0.0
C562 C 0.61655 0.97124 0.48907 0.0
H563 H 0.6109 0.97729 0.40658 0.0
O564 O 0.57229 0.06519 0.42476 0.0
O565 O 0.6083 0.05164 0.45989 0.0
O566 O 0.63003 0.07153 0.39471 0.0
O567 O 0.64701 0.02442 0.4129 0.0
C568 C 0.60359 0.92697 0.52554 0.0
C569 C 0.61665 0.94547 0.5527 0.0
H570 H 0.64054 0.98957 0.59957 0.0
H571 H 0.6591 0.04599 0.58772 0.0
H572 H 0.58487 0.92311 0.41193 0.0
H573 H 0.58076 0.8985 0.4674 0.0
H574 H 0.59391 0.9027 0.52958 0.0
H575 H 0.61658 0.93527 0.5773 0.0
Mn576 Mn 0.65279 0.82753 0.16624 0.0
Mn577 Mn 0.61356 0.80672 0.23526 0.0
C578 C 0.67623 0.82775 0.21782 0.0
C579 C 0.68469 0.81708 0.12011 0.0
C580 C 0.61685 0.87547 0.20959 0.0
O581 O 0.61428 0.80224 0.14618 0.0
O582 O 0.59087 0.79107 0.19416 0.0
C583 C 0.61567 0.73467 0.22783 0.0
N584 N 0.61993 0.76263 0.24672 0.0
C585 C 0.62822 0.73232 0.29624 0.0
C586 C 0.62294 0.7032 0.27752 0.0
C587 C 0.61713 0.70438 0.24305 0.0
C588 C 0.62705 0.76173 0.27956 0.0
H589 H 0.61114 0.73543 0.20139 0.0
C590 C 0.59303 0.78772 0.1625 0.0
O591 O 0.66847 0.84253 0.12217 0.0
O592 O 0.68025 0.79593 0.14316 0.0
N593 N 0.63251 0.81828 0.27762 0.0
C594 C 0.64005 0.84837 0.29142 0.0
C595 C 0.64979 0.85126 0.32491 0.0
C596 C 0.65089 0.82331 0.34418 0.0
C597 C 0.64273 0.79264 0.32961 0.0
C598 C 0.63395 0.7912 0.29588 0.0
H599 H 0.63892 0.87 0.27699 0.0
O600 O 0.68784 0.84453 0.19393 0.0
O601 O 0.65178 0.80985 0.21081 0.0
O602 O 0.6312 0.869 0.18291 0.0
O603 O 0.60593 0.85316 0.22798 0.0
C604 C 0.64288 0.76345 0.34725 0.0
C605 C 0.63533 0.73333 0.33066 0.0
H606 H 0.62387 0.6798 0.28922 0.0
H607 H 0.61352 0.68202 0.22831 0.0
H608 H 0.65606 0.87503 0.33594 0.0
H609 H 0.65807 0.82567 0.37013 0.0
H610 H 0.6492 0.76384 0.37347 0.0
H611 H 0.63614 0.71099 0.34432 0.0
Mn612 Mn 0.9122 0.12688 0.56895 0.0
Mn613 Mn 0.88703 0.0668 0.51579 0.0
C614 C 0.94507 0.09381 0.54346 0.0
C615 C 0.94046 0.17745 0.57438 0.0
C616 C 0.8818 0.06207 0.59136 0.0
O617 O 0.87053 0.14323 0.55413 0.0
O618 O 0.85686 0.1006 0.51908 0.0
C619 C 0.88606 0.10338 0.45301 0.0
N620 N 0.89555 0.07783 0.47078 0.0
C621 C 0.9228 0.05749 0.4239 0.0
C622 C 0.91245 0.08296 0.40485 0.0
C623 C 0.89419 0.10615 0.41957 0.0
C624 C 0.91362 0.05574 0.45703 0.0
H625 H 0.87294 0.12191 0.46439 0.0
C626 C 0.85256 0.12887 0.53202 0.0
O627 O 0.92723 0.16443 0.59979 0.0
O628 O 0.93336 0.16395 0.54593 0.0
N629 N 0.91575 0.03385 0.50986 0.0
C630 C 0.9271 0.01354 0.53276 0.0
C631 C 0.94842 0.99114 0.52295 0.0
C632 C 0.95761 0.98971 0.48969 0.0
C633 C 0.94553 0.01066 0.46659 0.0
C634 C 0.92461 0.03272 0.47784 0.0
H635 H 0.92025 0.01473 0.55841 0.0
O636 O 0.95184 0.10634 0.57263 0.0
O637 O 0.91811 0.09809 0.53209 0.0
O638 O 0.89347 0.0906 0.59943 0.0
O639 O 0.87793 0.05225 0.56105 0.0
C640 C 0.95405 0.01103 0.43301 0.0
C641 C 0.94267 0.03443 0.41164 0.0
H642 H 0.91898 0.08539 0.37915 0.0
H643 H 0.88666 0.12632 0.40527 0.0
H644 H 0.95783 0.97521 0.54103 0.0
H645 H 0.97438 0.97296 0.48208 0.0
H646 H 0.96981 0.99382 0.42354 0.0
H647 H 0.95 0.03503 0.38608 0.0
Mn648 Mn 0.63568 0.18143 0.34125 0.0
Mn649 Mn 0.66375 0.25642 0.36724 0.0
C650 C 0.63793 0.22377 0.30386 0.0
C651 C 0.63834 0.12934 0.31382 0.0
C652 C 0.60017 0.23197 0.38109 0.0
O653 O 0.66139 0.17057 0.38274 0.0
O654 O 0.67518 0.22241 0.39767 0.0
C655 C 0.72956 0.24736 0.36385 0.0
N656 N 0.70495 0.26442 0.35557 0.0
C657 C 0.73643 0.31166 0.34293 0.0
C658 C 0.76215 0.29454 0.35107 0.0
C659 C 0.7587 0.26208 0.3611 0.0
C660 C 0.70807 0.29515 0.3445 0.0
H661 H 0.72696 0.22299 0.37315 0.0
C662 C 0.67529 0.19186 0.40221 0.0
O663 O 0.61729 0.13579 0.33474 0.0
O664 O 0.65954 0.15198 0.31132 0.0
N665 N 0.65537 0.29323 0.34121 0.0
C666 C 0.62828 0.3072 0.3366 0.0
C667 C 0.62775 0.33908 0.32489 0.0
C668 C 0.65507 0.357 0.32 0.0
C669 C 0.68267 0.34278 0.32664 0.0
C670 C 0.6818 0.3103 0.33652 0.0
H671 H 0.60722 0.29414 0.34188 0.0
O672 O 0.61774 0.19988 0.30103 0.0
O673 O 0.65593 0.22364 0.33009 0.0
O674 O 0.60212 0.20296 0.36905 0.0
O675 O 0.6221 0.2529 0.38138 0.0
C676 C 0.71095 0.36003 0.32533 0.0
C677 C 0.73779 0.34456 0.3337 0.0
H678 H 0.78462 0.30608 0.34973 0.0
H679 H 0.77841 0.24873 0.36753 0.0
H680 H 0.60634 0.35016 0.32065 0.0
H681 H 0.65458 0.38196 0.31203 0.0
H682 H 0.71231 0.38527 0.31809 0.0
H683 H 0.75939 0.35804 0.3325 0.0
Mn684 Mn 0.634 0.94785 0.06657 0.0
Mn685 Mn 0.60083 0.91699 0.99503 0.0
C686 C 0.6179 0.98327 0.02564 0.0
C687 C 0.63198 0.97068 0.12205 0.0
C688 C 0.66829 0.91515 1.0098 0.0
O689 O 0.61676 0.90227 0.07959 0.0
O690 O 0.59174 0.88701 0.03165 0.0
C691 C 0.53517 0.9151 1.00888 0.0
N692 N 0.55881 0.92465 0.98963 0.0
C693 C 0.52534 0.93411 0.94327 0.0
C694 C 0.50063 0.92384 0.96239 0.0
C695 C 0.50553 0.91501 0.99558 0.0
C696 C 0.55419 0.93492 0.95835 0.0
H697 H 0.53897 0.90715 0.03394 0.0
C698 C 0.59725 0.88377 0.06274 0.0
O699 O 0.65637 0.95834 0.11083 0.0
O700 O 0.6087 0.96807 0.10206 0.0
N701 N 0.60637 0.94433 0.95767 0.0
C702 C 0.63242 0.95619 0.94396 0.0
C703 C 0.63119 0.97007 0.9124 0.0
C704 C 0.60336 0.97059 0.89488 0.0
C705 C 0.57688 0.95814 0.90955 0.0
C706 C 0.57936 0.94612 0.9417 0.0
H707 H 0.65397 0.95466 0.95677 0.0
O708 O 0.64057 0.99105 0.04582 0.0
O709 O 0.60705 0.95347 0.02808 0.0
O710 O 0.66855 0.93088 0.03767 0.0
O711 O 0.6439 0.90616 0.99425 0.0
C712 C 0.54821 0.95656 0.89337 0.0
C713 C 0.52249 0.94414 0.91008 0.0
H714 H 0.47779 0.92324 0.95204 0.0
H715 H 0.48655 0.90749 0.01063 0.0
H716 H 0.65174 0.97955 0.90122 0.0
H717 H 0.60262 0.98047 0.87016 0.0
H718 H 0.54562 0.96511 0.86824 0.0
H719 H 0.50051 0.94355 0.89761 0.0
Mn720 Mn 0.88648 0.85741 0.811 0.0
Mn721 Mn 0.855 0.78898 0.84265 0.0
C722 C 0.88838 0.80791 0.78099 0.0
C723 C 0.87797 0.90148 0.77399 0.0
C724 C 0.91688 0.81617 0.86443 0.0
O725 O 0.85875 0.87502 0.84852 0.0
O726 O 0.83584 0.82742 0.86183 0.0
C727 C 0.79752 0.79697 0.80694 0.0
N728 N 0.81982 0.77746 0.81675 0.0
C729 C 0.79748 0.73155 0.78592 0.0
C730 C 0.77501 0.7514 0.77411 0.0
C731 C 0.77485 0.7842 0.78492 0.0
C732 C 0.82085 0.74642 0.80532 0.0
H733 H 0.79778 0.82234 0.81483 0.0
C734 C 0.83816 0.85845 0.86387 0.0
O735 O 0.90041 0.90319 0.79556 0.0
O736 O 0.85983 0.87626 0.7763 0.0
N737 N 0.86981 0.7482 0.82737 0.0
C738 C 0.89579 0.73383 0.83646 0.0
C739 C 0.89929 0.7008 0.828 0.0
C740 C 0.87576 0.68252 0.81129 0.0
C741 C 0.84889 0.69743 0.80325 0.0
C742 C 0.84677 0.73047 0.81209 0.0
H743 H 0.91344 0.7471 0.85067 0.0
O744 O 0.90642 0.83247 0.7744 0.0
O745 O 0.86996 0.81344 0.80495 0.0
O746 O 0.91906 0.84042 0.8446 0.0
O747 O 0.89231 0.79933 0.86878 0.0
C748 C 0.82384 0.68074 0.78735 0.0
C749 C 0.79812 0.6979 0.77874 0.0
H750 H 0.75793 0.74187 0.75648 0.0
H751 H 0.75771 0.79979 0.77569 0.0
H752 H 0.91974 0.68912 0.83499 0.0
H753 H 0.87844 0.65699 0.80511 0.0
H754 H 0.82429 0.65494 0.7811 0.0
H755 H 0.77892 0.68495 0.76676 0.0
Mn756 Mn 0.39639 0.57231 0.11311 0.0
Mn757 Mn 0.35941 0.50201 0.08589 0.0
C758 C 0.42226 0.52623 0.10202 0.0
C759 C 0.42737 0.6213 0.1074 0.0
C760 C 0.36315 0.52259 0.15852 0.0
O761 O 0.3568 0.58894 0.09222 0.0
O762 O 0.33332 0.53955 0.08108 0.0
C763 C 0.3504 0.51525 0.01411 0.0
N764 N 0.36119 0.49623 0.03852 0.0
C765 C 0.36815 0.45216 0.99903 0.0
C766 C 0.35695 0.47124 0.97356 0.0
C767 C 0.34845 0.50309 0.98108 0.0
C768 C 0.37043 0.46596 0.03132 0.0
H769 H 0.34291 0.53932 0.01976 0.0
C770 C 0.33439 0.57076 0.08025 0.0
O771 O 0.41202 0.61519 0.13379 0.0
O772 O 0.42245 0.60053 0.08274 0.0
N773 N 0.38224 0.46367 0.08787 0.0
C774 C 0.39388 0.44906 0.11503 0.0
C775 C 0.40562 0.41804 0.11132 0.0
C776 C 0.4045 0.40201 0.07993 0.0
C777 C 0.39248 0.41757 0.05233 0.0
C778 C 0.382 0.44891 0.05738 0.0
H779 H 0.39393 0.46085 0.13938 0.0
O780 O 0.43249 0.54801 0.12396 0.0
O781 O 0.39622 0.53115 0.08787 0.0
O782 O 0.37579 0.5509 0.15421 0.0
O783 O 0.35571 0.50301 0.13447 0.0
C784 C 0.39 0.40301 0.02015 0.0
C785 C 0.37772 0.42023 0.99354 0.0
H786 H 0.35506 0.4618 0.9481 0.0
H787 H 0.33986 0.51802 0.96155 0.0
H788 H 0.41493 0.40622 0.13272 0.0
H789 H 0.41296 0.37776 0.07729 0.0
H790 H 0.39749 0.37859 0.01558 0.0
H791 H 0.37621 0.40891 0.96884 0.0
Mn792 Mn 0.15351 0.67332 0.85639 0.0
Mn793 Mn 0.20163 0.73341 0.88669 0.0
C794 C 0.16683 0.71761 0.82396 0.0
C795 C 0.14818 0.62585 0.82026 0.0
C796 C 0.13523 0.72751 0.90702 0.0
O797 O 0.17669 0.65072 0.89417 0.0
O798 O 0.20859 0.6927 0.91131 0.0
C799 C 0.25646 0.70249 0.86204 0.0
N800 N 0.23855 0.72863 0.86327 0.0
C801 C 0.2664 0.75427 0.8195 0.0
C802 C 0.28522 0.72782 0.81809 0.0
C803 C 0.28036 0.70192 0.83964 0.0
C804 C 0.24319 0.75377 0.84269 0.0
H805 H 0.25201 0.68161 0.87708 0.0
C806 C 0.19978 0.66246 0.91143 0.0
O807 O 0.12723 0.63263 0.84132 0.0
O808 O 0.17233 0.64439 0.82273 0.0
N809 N 0.1987 0.77344 0.86375 0.0
C810 C 0.17812 0.79683 0.8675 0.0
C811 C 0.18079 0.82521 0.84885 0.0
C812 C 0.2047 0.82932 0.82666 0.0
C813 C 0.22583 0.80509 0.82353 0.0
C814 C 0.22248 0.77781 0.84348 0.0
H815 H 0.16017 0.79419 0.88505 0.0
O816 O 0.14124 0.70151 0.81849 0.0
O817 O 0.18127 0.70904 0.85032 0.0
O818 O 0.12831 0.70133 0.88942 0.0
O819 O 0.16235 0.74027 0.90951 0.0
C820 C 0.24967 0.80652 0.80085 0.0
C821 C 0.26894 0.78043 0.79777 0.0
H822 H 0.30295 0.72672 0.79999 0.0
H823 H 0.29446 0.68111 0.83834 0.0
H824 H 0.1645 0.84388 0.85163 0.0
H825 H 0.20657 0.85112 0.81211 0.0
H826 H 0.25306 0.82719 0.785 0.0
H827 H 0.28568 0.78079 0.77858 0.0
Mn828 Mn 0.10504 0.41645 0.59892 0.0
Mn829 Mn 0.07127 0.38126 0.52976 0.0
C830 C 0.09617 0.44758 0.55128 0.0
C831 C 0.10686 0.44967 0.64892 0.0
C832 C 0.13636 0.36953 0.54948 0.0
O833 O 0.07972 0.37806 0.61963 0.0
O834 O 0.05987 0.35933 0.57053 0.0
C835 C 1.00685 0.39255 0.54413 0.0
N836 N 0.03054 0.39338 0.52301 0.0
C837 C 0.99734 0.39811 0.47542 0.0
C838 C 0.97241 0.39615 0.49646 0.0
C839 C 0.97724 0.39411 0.53107 0.0
C840 C 0.02627 0.39755 0.49009 0.0
H841 H 0.01055 0.39024 0.57059 0.0
C842 C 0.06095 0.35928 0.60233 0.0
O843 O 0.12768 0.42976 0.64149 0.0
O844 O 0.0839 0.4489 0.62846 0.0
N845 N 0.07878 0.40088 0.48803 0.0
C846 C 0.10539 0.40642 0.47224 0.0
C847 C 0.10489 0.41322 0.43813 0.0
C848 C 0.07709 0.41302 0.42045 0.0
C849 C 0.04999 0.40699 0.43729 0.0
C850 C 0.05194 0.40183 0.47152 0.0
H851 H 0.12673 0.40498 0.48543 0.0
O852 O 0.11947 0.45377 0.57097 0.0
O853 O 0.08124 0.42064 0.55748 0.0
O854 O 0.13685 0.38718 0.57632 0.0
O855 O 0.11271 0.36551 0.53117 0.0
C856 C 0.02112 0.40588 0.42157 0.0
C857 C 0.99479 0.40152 0.44064 0.0
H858 H 0.94955 0.39699 0.48642 0.0
H859 H 0.95818 0.3932 0.54755 0.0
H860 H 0.12591 0.4177 0.42529 0.0
H861 H 0.07681 0.41756 0.394 0.0
H862 H 0.01887 0.40922 0.39499 0.0
H863 H 0.97272 0.40179 0.42846 0.0
Mn864 Mn 0.18111 0.35173 0.65362 0.0
Mn865 Mn 0.14009 0.31719 0.71541 0.0
C866 C 0.20417 0.33449 0.70254 0.0
C867 C 0.21236 0.35323 0.60627 0.0
C868 C 0.14393 0.3897 0.70432 0.0
O869 O 0.14129 0.33266 0.62877 0.0
O870 O 0.11884 0.30812 0.67223 0.0
C871 C 0.1455 0.24745 0.69564 0.0
N872 N 0.14787 0.27199 0.71919 0.0
C873 C 0.15923 0.23439 0.76208 0.0
C874 C 0.1556 0.20854 0.73856 0.0
C875 C 0.14922 0.21517 0.70507 0.0
C876 C 0.1557 0.26607 0.75106 0.0
H877 H 0.14141 0.25256 0.6698 0.0
C878 C 0.12097 0.31278 0.64098 0.0
O879 O 0.19683 0.37763 0.61555 0.0
O880 O 0.20742 0.32648 0.62238 0.0
N881 N 0.15868 0.32251 0.75888 0.0
C882 C 0.16397 0.35031 0.7779 0.0
C883 C 0.17175 0.34812 0.81177 0.0
C884 C 0.17374 0.31742 0.82589 0.0
C885 C 0.16902 0.28913 0.80573 0.0
C886 C 0.16123 0.29283 0.77214 0.0
H887 H 0.16172 0.37401 0.76766 0.0
O888 O 0.21765 0.35688 0.68519 0.0
O889 O 0.17782 0.32433 0.69142 0.0
O890 O 0.16156 0.3885 0.67971 0.0
O891 O 0.13087 0.36418 0.71599 0.0
C892 C 0.1716 0.25741 0.8177 0.0
C893 C 0.16687 0.23007 0.79585 0.0
H894 H 0.15843 0.18363 0.74577 0.0
H895 H 0.14722 0.19548 0.68657 0.0
H896 H 0.17569 0.37008 0.8271 0.0
H897 H 0.17929 0.31586 0.85218 0.0
H898 H 0.17763 0.25378 0.84357 0.0
H899 H 0.16955 0.20585 0.80518 0.0
Mn900 Mn 0.37013 0.70386 0.14652 0.0
Mn901 Mn 0.40452 0.73172 0.21717 0.0
C902 C 0.34344 0.70993 0.1944 0.0
C903 C 0.3366 0.7032 0.09943 0.0
C904 C 0.40082 0.66148 0.19845 0.0
O905 O 0.40772 0.72982 0.12805 0.0
O906 O 0.43111 0.72987 0.17777 0.0
C907 C 0.41117 0.80065 0.19439 0.0
N908 N 0.40507 0.77856 0.21836 0.0
C909 C 0.40315 0.82145 0.26033 0.0
C910 C 0.41135 0.84436 0.2365 0.0
C911 C 0.41464 0.83398 0.20321 0.0
C912 C 0.39927 0.78869 0.24982 0.0
H913 H 0.41294 0.79322 0.16871 0.0
C914 C 0.4304 0.73838 0.14736 0.0
O915 O 0.35694 0.68172 0.10331 0.0
O916 O 0.3397 0.72849 0.1195 0.0
N917 N 0.38346 0.7348 0.25811 0.0
C918 C 0.37217 0.71019 0.27705 0.0
C919 C 0.36485 0.71682 0.31031 0.0
C920 C 0.37008 0.74846 0.32409 0.0
C921 C 0.38198 0.77332 0.30423 0.0
C922 C 0.38813 0.7654 0.271 0.0
H923 H 0.3693 0.68554 0.26706 0.0
O924 O 0.33548 0.68741 0.1723 0.0
O925 O 0.36767 0.72804 0.18892 0.0
O926 O 0.39497 0.66679 0.16763 0.0
O927 O 0.40396 0.68437 0.22018 0.0
C928 C 0.38766 0.80576 0.31597 0.0
C929 C 0.39795 0.8299 0.29394 0.0
H930 H 0.41431 0.87005 0.24327 0.0
H931 H 0.41993 0.85161 0.18439 0.0
H932 H 0.35594 0.69739 0.32551 0.0
H933 H 0.36485 0.75339 0.34992 0.0
H934 H 0.38325 0.81261 0.3416 0.0
H935 H 0.40118 0.85497 0.30292 0.0
Mn936 Mn 0.58332 0.64446 0.59323 0.0
Mn937 Mn 0.59453 0.57136 0.55637 0.0
C938 C 0.56573 0.63203 0.53872 0.0
C939 C 0.54878 0.67855 0.62174 0.0
C940 C 0.64404 0.62503 0.56399 0.0
O941 O 0.59302 0.61585 0.63366 0.0
O942 O 0.59813 0.56853 0.60478 0.0
C943 C 0.53958 0.53611 0.58046 0.0
N944 N 0.55737 0.54571 0.55489 0.0
C945 C 0.52799 0.51154 0.51554 0.0
C946 C 0.50931 0.50118 0.5414 0.0
C947 C 0.51488 0.51388 0.57393 0.0
C948 C 0.55136 0.53484 0.52332 0.0
H949 H 0.54439 0.54512 0.60563 0.0
C950 C 0.5978 0.58518 0.63198 0.0
O951 O 0.57746 0.68599 0.62005 0.0
O952 O 0.54067 0.65017 0.6094 0.0
N953 N 0.59168 0.56978 0.50887 0.0
C954 C 0.6117 0.58256 0.48682 0.0
C955 C 0.60991 0.57177 0.45335 0.0
C956 C 0.5881 0.54737 0.44313 0.0
C957 C 0.56748 0.53486 0.46621 0.0
C958 C 0.57 0.54701 0.49906 0.0
H959 H 0.62945 0.60016 0.4949 0.0
O960 O 0.57059 0.66201 0.54892 0.0
O961 O 0.57285 0.61089 0.56039 0.0
O962 O 0.62873 0.64698 0.57856 0.0
O963 O 0.63305 0.59648 0.55616 0.0
C964 C 0.54473 0.51054 0.45797 0.0
C965 C 0.52478 0.49919 0.48252 0.0
H966 H 0.49068 0.48347 0.53657 0.0
H967 H 0.50057 0.50604 0.59403 0.0
H968 H 0.6258 0.58161 0.43566 0.0
H969 H 0.58717 0.53864 0.41741 0.0
H970 H 0.54222 0.50062 0.43273 0.0
H971 H 0.50731 0.48065 0.47582 0.0
Mn972 Mn 0.91164 0.40001 0.09148 0.0
Mn973 Mn 0.88036 0.47389 0.08257 0.0
C974 C 0.92204 0.43166 0.04628 0.0
C975 C 0.94845 0.36311 0.1063 0.0
C976 C 0.84933 0.40968 0.06 0.0
O977 O 0.90011 0.41069 0.13973 0.0
O978 O 0.87843 0.45827 0.12974 0.0
C979 C 0.91459 0.52083 0.1284 0.0
N980 N 0.90557 0.51142 0.09686 0.0
C981 C 0.91617 0.56616 0.07815 0.0
C982 C 0.9274 0.57543 0.11001 0.0
C983 C 0.92659 0.5526 0.13529 0.0
C984 C 0.90576 0.5336 0.07245 0.0
H985 H 0.91096 0.50504 0.14852 0.0
C986 C 0.88733 0.43636 0.14978 0.0
O987 O 0.92026 0.35405 0.10129 0.0
O988 O 0.95509 0.39428 0.10533 0.0
N989 N 0.88242 0.49224 0.03911 0.0
C990 C 0.87225 0.47925 1.00909 0.0
C991 C 0.87258 0.49871 0.98089 0.0
C992 C 0.88267 0.53158 0.98394 0.0
C993 C 0.89336 0.54435 0.01493 0.0
C994 C 0.89375 0.52334 0.04183 0.0
H995 H 0.86491 0.45394 1.00643 0.0
O996 O 0.92414 0.40025 0.04461 0.0
O997 O 0.91422 0.44473 0.07459 0.0
O998 O 0.86779 0.39137 0.07425 0.0
O999 O 0.85083 0.44041 0.06433 0.0
C1000 C 0.90346 0.57716 0.02021 0.0
C1001 C 0.91455 0.58816 0.0519 0.0
H1002 H 0.93591 0.6002 0.11557 0.0
H1003 H 0.93395 0.55985 0.1604 0.0
H1004 H 0.86487 0.48845 0.95692 0.0
H1005 H 0.88236 0.54672 0.96228 0.0
H1006 H 0.90298 0.59409 1.0 0.0
H1007 H 0.92232 0.61344 0.05567 0.0
Mn1008 Mn 0.70096 0.64468 0.67507 0.0
Mn1009 Mn 0.68902 0.67559 0.75249 0.0
C1010 C 0.72808 0.692 0.69349 0.0
C1011 C 0.72993 0.6166 0.63467 0.0
C1012 C 0.64815 0.68691 0.69335 0.0
O1013 O 0.68205 0.60414 0.69822 0.0
O1014 O 0.67457 0.63 0.74722 0.0
C1015 C 0.73046 0.63458 0.79014 0.0
N1016 N 0.71928 0.66416 0.78391 0.0
C1017 C 0.74248 0.68804 0.83404 0.0
C1018 C 0.75442 0.65786 0.84106 0.0
C1019 C 0.74866 0.6311 0.81879 0.0
C1020 C 0.72554 0.69025 0.80447 0.0
H1021 H 0.72521 0.61386 0.77354 0.0
C1022 C 0.67308 0.6046 0.72845 0.0
O1023 O 0.70202 0.62359 0.62895 0.0
O1024 O 0.7396 0.62237 0.66496 0.0
N1025 N 0.70064 0.71968 0.7645 0.0
C1026 C 0.68883 0.7474 0.753 0.0
C1027 C 0.69126 0.77615 0.77286 0.0
C1028 C 0.70526 0.77599 0.8046 0.0
C1029 C 0.71763 0.7473 0.81575 0.0
C1030 C 0.71446 0.71941 0.79487 0.0
H1031 H 0.67669 0.74728 0.72937 0.0
O1032 O 0.72064 0.68639 0.66253 0.0
O1033 O 0.71698 0.67086 0.71438 0.0
O1034 O 0.66048 0.66783 0.67255 0.0
O1035 O 0.65669 0.69016 0.72362 0.0
C1036 C 0.73378 0.74547 0.84625 0.0
C1037 C 0.74664 0.716 0.85512 0.0
H1038 H 0.76801 0.65495 0.86343 0.0
H1039 H 0.75772 0.60773 0.82407 0.0
H1040 H 0.68181 0.79824 0.76401 0.0
H1041 H 0.70708 0.79821 0.81983 0.0
H1042 H 0.73704 0.76676 0.8627 0.0
H1043 H 0.75955 0.71507 0.87826 0.0
Mn1044 Mn 0.41467 0.43858 0.40006 0.0
Mn1045 Mn 0.37296 0.50001 0.43067 0.0
C1046 C 0.43683 0.48892 0.41507 0.0
C1047 C 0.44384 0.39161 0.40232 0.0
C1048 C 0.37812 0.4851 0.35734 0.0
O1049 O 0.37675 0.41404 0.4184 0.0
O1050 O 0.35099 0.45745 0.43502 0.0
C1051 C 0.3758 0.48113 0.50167 0.0
N1052 N 0.37851 0.50422 0.47806 0.0
C1053 C 0.38897 0.5465 0.52004 0.0
C1054 C 0.3851 0.52332 0.54478 0.0
C1055 C 0.37887 0.49042 0.53552 0.0
C1056 C 0.3857 0.53574 0.48668 0.0
H1057 H 0.37185 0.45577 0.49479 0.0
C1058 C 0.35498 0.42679 0.43407 0.0
O1059 O 0.42873 0.39937 0.37621 0.0
O1060 O 0.44191 0.41098 0.42832 0.0
N1061 N 0.391 0.54335 0.4298 0.0
C1062 C 0.3973 0.56206 0.40304 0.0
C1063 C 0.40533 0.59535 0.40802 0.0
C1064 C 0.40657 0.60919 0.44041 0.0
C1065 C 0.40028 0.58949 0.46759 0.0
C1066 C 0.392 0.55655 0.46108 0.0
H1067 H 0.39602 0.55184 0.37803 0.0
O1068 O 0.45013 0.47028 0.39378 0.0
O1069 O 0.41145 0.4778 0.42665 0.0
O1070 O 0.3929 0.45937 0.36063 0.0
O1071 O 0.36651 0.49994 0.38184 0.0
C1072 C 0.40245 0.60115 0.50093 0.0
C1073 C 0.39703 0.57961 0.52714 0.0
H1074 H 0.38761 0.53038 0.57092 0.0
H1075 H 0.37657 0.47224 0.55443 0.0
H1076 H 0.41034 0.61036 0.38691 0.0
H1077 H 0.41264 0.63491 0.44416 0.0
H1078 H 0.40899 0.62647 0.5067 0.0
H1079 H 0.39964 0.58865 0.55269 0.0
Mn1080 Mn 0.09725 0.6132 0.93163 0.0
Mn1081 Mn 0.12191 0.54737 0.97102 0.0
C1082 C 0.06791 0.56534 0.93419 0.0
C1083 C 0.06798 0.65962 0.92908 0.0
C1084 C 0.13533 0.56094 0.89907 0.0
O1085 O 0.13261 0.635 0.96146 0.0
O1086 O 0.14734 0.58754 0.98121 0.0
C1087 C 0.11042 0.57138 0.03997 0.0
N1088 N 0.10767 0.54746 0.01576 0.0
C1089 C 0.08834 0.50863 0.05478 0.0
C1090 C 0.09217 0.53248 0.08038 0.0
C1091 C 0.10266 0.56418 0.07279 0.0
C1092 C 0.09561 0.51755 0.02239 0.0
H1093 H 0.11858 0.59572 0.03439 0.0
C1094 C 0.14972 0.61877 0.98051 0.0
O1095 O 0.08819 0.65376 0.907 0.0
O1096 O 0.06699 0.64044 0.95414 0.0
N1097 N 0.09916 0.50649 0.96548 0.0
C1098 C 0.09605 0.48629 0.93799 0.0
C1099 C 0.08244 0.4549 0.94066 0.0
C1100 C 0.07364 0.44385 0.97193 0.0
C1101 C 0.07831 0.46441 1.00018 0.0
C1102 C 0.09075 0.49598 0.99572 0.0
H1103 H 0.10431 0.49377 0.9143 0.0
O1104 O 0.06316 0.58573 0.9109 0.0
O1105 O 0.08903 0.57358 0.95604 0.0
O1106 O 0.12563 0.58987 0.89907 0.0
O1107 O 0.13611 0.54365 0.92491 0.0
C1108 C 0.07183 0.4545 0.03271 0.0
C1109 C 0.07709 0.47653 0.06004 0.0
H1110 H 0.08655 0.5269 0.10579 0.0
H1111 H 0.10508 0.58294 0.09226 0.0
H1112 H 0.07953 0.43895 0.91881 0.0
H1113 H 0.06383 0.41932 0.97405 0.0
H1114 H 0.06261 0.43009 0.03696 0.0
H1115 H 0.07156 0.46882 0.08487 0.0
Mn1116 Mn 0.36204 0.31216 0.3662 0.0
Mn1117 Mn 0.33192 0.23705 0.37998 0.0
C1118 C 0.3604 0.27191 0.32464 0.0
C1119 C 0.35949 0.36416 0.34057 0.0
C1120 C 0.39362 0.26086 0.40911 0.0
O1121 O 0.33167 0.32046 0.40344 0.0
O1122 O 0.31258 0.26903 0.41158 0.0
C1123 C 0.26691 0.24096 0.36325 0.0
N1124 N 0.29445 0.22963 0.35581 0.0
C1125 C 0.27264 0.19537 0.31106 0.0
C1126 C 0.24415 0.20681 0.31823 0.0
C1127 C 0.24128 0.22936 0.34477 0.0
C1128 C 0.29728 0.20683 0.33124 0.0
H1129 H 0.26421 0.25799 0.38377 0.0
C1130 C 0.31222 0.30029 0.41635 0.0
O1131 O 0.37927 0.35853 0.36373 0.0
O1132 O 0.3391 0.34106 0.33503 0.0
N1133 N 0.34772 0.20637 0.34851 0.0
C1134 C 0.37703 0.19884 0.34365 0.0
C1135 C 0.38389 0.17664 0.31803 0.0
C1136 C 0.36068 0.16309 0.29688 0.0
C1137 C 0.33094 0.17253 0.3011 0.0
C1138 C 0.3255 0.19477 0.32716 0.0
H1139 H 0.3952 0.21076 0.35815 0.0
O1140 O 0.38233 0.29408 0.3258 0.0
O1141 O 0.34361 0.2718 0.35065 0.0
O1142 O 0.39313 0.2898 0.39769 0.0
O1143 O 0.37119 0.24026 0.40506 0.0
C1144 C 0.30658 0.16122 0.28002 0.0
C1145 C 0.27736 0.17238 0.28523 0.0
H1146 H 0.22439 0.19777 0.30393 0.0
H1147 H 0.21943 0.23739 0.35171 0.0
H1148 H 0.40711 0.17046 0.31421 0.0
H1149 H 0.36606 0.14612 0.27698 0.0
H1150 H 0.31007 0.14392 0.25978 0.0
H1151 H 0.25868 0.16319 0.26919 0.0
H1152 H 0.04169 0.08768 0.01961 0.0
H1153 H 1.00372 0.07562 0.11717 0.0
H1154 H 0.95419 0.06248 0.09238 0.0
H1155 H 0.94851 0.09803 0.98075 0.0
H1156 H 0.96043 0.08038 0.94191 0.0
H1157 H 0.98358 0.11227 0.96303 0.0
H1158 H 0.02895 0.07613 0.96198 0.0
H1159 H 1.00642 0.04398 0.94097 0.0
H1160 H 0.02562 0.03646 0.97964 0.0
H1161 H 0.93795 0.01309 0.06878 0.0
H1162 H 0.92933 0.96169 0.03825 0.0
H1163 H 0.96593 1.00415 0.94936 0.0
C1164 C 0.02223 0.0836 0.03514 0.0
C1165 C 0.02618 0.081 0.06981 0.0
C1166 C 1.00108 0.07646 0.09038 0.0
C1167 C 0.97266 0.06976 0.0765 0.0
C1168 C 0.97014 0.0663 0.04206 0.0
C1169 C 0.99317 0.07656 0.02109 0.0
C1170 C 0.98564 0.06446 0.98559 0.0
C1171 C 0.9685 0.09029 0.96674 0.0
C1172 C 0.01334 0.05462 0.96586 0.0
C1173 C 0.96426 0.03596 0.99326 0.0
C1174 C 0.95447 0.03881 0.02578 0.0
C1175 C 0.94256 0.012 0.04244 0.0
C1176 C 0.93822 0.98263 0.02509 0.0
C1177 C 0.94484 0.98021 0.9911 0.0
C1178 C 0.95901 1.0066 0.97498 0.0
H1179 H 0.33835 0.77104 0.21956 0.0
H1180 H 0.29727 0.67292 0.22002 0.0
H1181 H 0.25489 0.69324 0.25286 0.0
H1182 H 0.32425 0.79445 0.30131 0.0
H1183 H 0.31656 0.83575 0.29133 0.0
H1184 H 0.34032 0.81312 0.26471 0.0
H1185 H 0.30509 0.82535 0.21502 0.0
H1186 H 0.28024 0.84624 0.24255 0.0
H1187 H 0.26556 0.81262 0.21626 0.0
H1188 H 0.21576 0.72576 0.28235 0.0
H1189 H 0.19277 0.76263 0.32346 0.0
H1190 H 0.2665 0.83408 0.31262 0.0
C1191 C 0.32073 0.75372 0.22705 0.0
C1192 C 0.32102 0.72047 0.21785 0.0
C1193 C 0.29724 0.69856 0.22716 0.0
C1194 C 0.27296 0.70991 0.24518 0.0
C1195 C 0.27301 0.74311 0.25313 0.0
C1196 C 0.29662 0.76453 0.24509 0.0
C1197 C 0.29271 0.79833 0.2594 0.0
C1198 C 0.32018 0.81109 0.28053 0.0
C1199 C 0.28545 0.82202 0.23165 0.0
C1200 C 0.2656 0.79145 0.28033 0.0
C1201 C 0.25298 0.7604 0.27407 0.0
C1202 C 0.22649 0.74938 0.28888 0.0
C1203 C 0.21428 0.76977 0.31296 0.0
C1204 C 0.23044 0.79869 0.32406 0.0
C1205 C 0.25515 0.81075 0.30609 0.0
H1206 H 0.50461 0.9739 0.60382 0.0
H1207 H 0.45532 0.90316 0.53889 0.0
H1208 H 0.47483 0.93135 0.48952 0.0
H1209 H 0.50032 0.04678 0.54648 0.0
H1210 H 0.5386 0.06042 0.55757 0.0
H1211 H 0.51564 0.04044 0.58793 0.0
H1212 H 0.55493 1.00044 0.59794 0.0
H1213 H 0.57915 0.0165 0.56638 0.0
H1214 H 0.56598 0.97392 0.56463 0.0
H1215 H 0.50352 0.96465 0.44748 0.0
H1216 H 0.54112 0.99903 0.41699 0.0
H1217 H 0.57463 0.04256 0.51095 0.0
C1218 C 0.49682 0.9655 0.57917 0.0
C1219 C 0.47804 0.93719 0.57475 0.0
C1220 C 0.46947 0.92533 0.54236 0.0
C1221 C 0.48016 0.94128 0.5143 0.0
C1222 C 0.49942 0.96882 0.51935 0.0
C1223 C 0.5073 0.98115 0.55102 0.0
C1224 C 0.53204 1.00761 0.54994 0.0
C1225 C 0.52084 0.04081 0.56109 0.0
C1226 C 0.55979 0.99911 0.57091 0.0
C1227 C 0.538 1.00685 0.51319 0.0
C1228 C 0.51826 0.98538 0.49562 0.0
C1229 C 0.51906 0.98165 0.46096 0.0
C1230 C 0.54037 1.00099 0.44391 0.0
C1231 C 0.56089 0.0225 0.46197 0.0
C1232 C 0.55962 0.02542 0.49682 0.0
H1233 H 0.29133 0.24592 0.85013 0.0
H1234 H 0.24332 0.15929 0.80781 0.0
H1235 H 0.22138 0.1919 0.76391 0.0
H1236 H 0.22785 0.29274 0.83884 0.0
H1237 H 0.24352 0.33166 0.82557 0.0
H1238 H 0.26442 0.30727 0.85382 0.0
H1239 H 0.31108 0.29658 0.81787 0.0
H1240 H 0.29586 0.33035 0.79639 0.0
H1241 H 0.30476 0.29444 0.77325 0.0
H1242 H 0.22009 0.22774 0.71719 0.0
H1243 H 0.20795 0.27333 0.68256 0.0
H1244 H 0.24022 0.34198 0.76121 0.0
C1245 C 0.27598 0.23419 0.83165 0.0
C1246 C 0.27037 0.19996 0.83044 0.0
C1247 C 0.24896 0.18526 0.80759 0.0
C1248 C 0.23655 0.20345 0.78266 0.0
C1249 C 0.24502 0.23637 0.78206 0.0
C1250 C 0.26249 0.25235 0.80683 0.0
C1251 C 0.26339 0.28911 0.80207 0.0
C1252 C 0.24884 0.30631 0.8317 0.0
C1253 C 0.29574 0.3033 0.79718 0.0
C1254 C 0.24468 0.29043 0.76987 0.0
C1255 C 0.23651 0.25922 0.7582 0.0
C1256 C 0.22475 0.25247 0.72649 0.0
C1257 C 0.21814 0.27851 0.70704 0.0
C1258 C 0.2214 0.31076 0.72024 0.0
C1259 C 0.23638 0.3173 0.75134 0.0
H1260 H 0.07116 0.99592 0.47948 0.0
H1261 H 0.0262 1.0092 0.38419 0.0
H1262 H 1.00719 0.06066 0.40527 0.0
H1263 H 0.01752 1.00725 0.52559 0.0
H1264 H 0.03474 0.0314 0.55992 0.0
H1265 H 0.05764 1.00676 0.53479 0.0
H1266 H 0.09323 0.05436 0.52131 0.0
H1267 H 0.07125 0.08074 0.54693 0.0
H1268 H 0.07841 0.09062 0.50427 0.0
H1269 H 0.98307 0.1009 0.43801 0.0
H1270 H 0.9464 0.11527 0.48031 0.0
H1271 H 0.99973 0.07054 0.55616 0.0
C1272 C 0.05721 1.00957 0.46317 0.0
C1273 C 0.04963 0.99821 0.43062 0.0
C1274 C 0.03204 0.01724 0.40953 0.0
C1275 C 0.02187 0.04701 0.42096 0.0
C1276 C 0.0291 0.0572 0.45361 0.0
C1277 C 0.04629 0.03888 0.47457 0.0
C1278 C 0.04447 0.05046 0.51039 0.0
C1279 C 0.03797 0.02226 0.53402 0.0
C1280 C 0.07356 0.07024 0.52135 0.0
C1281 C 0.01841 0.07242 0.50698 0.0
C1282 C 0.01259 0.07915 0.47386 0.0
C1283 C 0.98741 0.09566 0.46389 0.0
C1284 C 0.96617 0.10252 0.48774 0.0
C1285 C 0.96947 0.09087 0.52027 0.0
C1286 C 0.99672 0.07818 0.53077 0.0
H1287 H 0.2464 0.82734 0.69357 0.0
H1288 H 0.31645 0.75737 0.69312 0.0
H1289 H 0.2829 0.71825 0.72199 0.0
H1290 H 0.20957 0.82383 0.75638 0.0
H1291 H 0.17045 0.81487 0.74585 0.0
H1292 H 0.19519 0.83415 0.71656 0.0
H1293 H 0.18399 0.7914 0.67162 0.0
H1294 H 0.15659 0.7722 0.69843 0.0
H1295 H 0.18575 0.74875 0.68022 0.0
H1296 H 0.24777 0.69349 0.75938 0.0
H1297 H 0.21351 0.68346 0.80491 0.0
H1298 H 0.16101 0.76542 0.77677 0.0
C1299 C 0.25435 0.80364 0.69967 0.0
C1300 C 0.28482 0.79611 0.69467 0.0
C1301 C 0.29427 0.76448 0.7003 0.0
C1302 C 0.27487 0.74168 0.71512 0.0
C1303 C 0.24529 0.75012 0.72105 0.0
C1304 C 0.23443 0.77971 0.71214 0.0
C1305 C 0.20148 0.78192 0.72174 0.0
C1306 C 0.1938 0.81557 0.73614 0.0
C1307 C 0.18075 0.77303 0.69121 0.0
C1308 C 0.19947 0.75448 0.74631 0.0
C1309 C 0.22363 0.73448 0.74221 0.0
C1310 C 0.22835 0.70829 0.76231 0.0
C1311 C 0.20889 0.7031 0.78845 0.0
C1312 C 0.18506 0.72412 0.79461 0.0
C1313 C 0.17937 0.74939 0.77255 0.0
H1314 H 0.52347 0.12151 0.95402 0.0
H1315 H 0.47137 0.11487 0.0437 0.0
H1316 H 0.51234 0.08563 0.07058 0.0
H1317 H 0.54974 0.05909 0.94206 0.0
H1318 H 0.58984 0.06366 0.93594 0.0
H1319 H 0.56601 0.09697 0.92821 0.0
H1320 H 0.59473 0.1359 0.96893 0.0
H1321 H 0.62156 0.10478 0.97526 0.0
H1322 H 0.60377 0.12341 1.01046 0.0
H1323 H 0.54399 0.04022 0.07584 0.0
H1324 H 0.57242 0.99157 0.06707 0.0
H1325 H 0.61406 0.03306 0.98016 0.0
C1326 C 0.52167 0.11554 0.98 0.0
C1327 C 0.49407 0.11871 0.99666 0.0
C1328 C 0.49197 0.11112 0.03042 0.0
C1329 C 0.51538 0.09515 0.04595 0.0
C1330 C 0.54114 0.089 0.0277 0.0
C1331 C 0.54559 0.10103 0.99628 0.0
C1332 C 0.57422 0.08826 0.98122 0.0
C1333 C 0.56966 0.0762 0.94475 0.0
C1334 C 0.6001 0.11464 0.98417 0.0
C1335 C 0.58007 0.06102 1.00485 0.0
C1336 C 0.56186 0.06345 0.03244 0.0
C1337 C 0.55946 0.03895 0.05537 0.0
C1338 C 0.57574 0.01124 0.0501 0.0
C1339 C 0.59613 1.009 0.02361 0.0
C1340 C 0.59864 0.03436 1.0007 0.0
H1341 H 0.30591 0.29334 0.31318 0.0
H1342 H 0.378 0.24452 0.26389 0.0
H1343 H 0.34904 0.24681 0.20982 0.0
H1344 H 0.24186 0.26315 0.27276 0.0
H1345 H 0.22709 0.30344 0.27392 0.0
H1346 H 0.25415 0.29311 0.30466 0.0
H1347 H 0.28292 0.34685 0.28545 0.0
H1348 H 0.25606 0.35199 0.25183 0.0
H1349 H 0.29571 0.34896 0.2432 0.0
H1350 H 0.30792 0.25167 0.16289 0.0
H1351 H 0.25932 0.2509 0.13199 0.0
H1352 H 0.21927 0.30173 0.21441 0.0
C1353 C 0.3159 0.28307 0.29112 0.0
C1354 C 0.34382 0.26823 0.29264 0.0
C1355 C 0.35626 0.25556 0.26312 0.0
C1356 C 0.34023 0.2573 0.23243 0.0
C1357 C 0.31297 0.27341 0.23197 0.0
C1358 C 0.30144 0.28636 0.26078 0.0
C1359 C 0.27224 0.30257 0.25496 0.0
C1360 C 0.24744 0.28951 0.27798 0.0
C1361 C 0.27702 0.33981 0.2591 0.0
C1362 C 0.26624 0.29268 0.21905 0.0
C1363 C 0.29062 0.2774 0.2055 0.0
C1364 C 0.28897 0.26385 0.17334 0.0
C1365 C 0.26108 0.26361 0.15594 0.0
C1366 C 0.23491 0.27533 0.17144 0.0
C1367 C 0.23838 0.29218 0.20217 0.0
H1368 H 0.42223 0.51037 0.03621 0.0
H1369 H 0.47351 0.50244 0.12867 0.0
H1370 H 0.5169 0.48314 0.0968 0.0
H1371 H 0.44209 0.44087 0.99734 0.0
H1372 H 0.44724 0.45574 0.95586 0.0
H1373 H 0.42189 0.47534 0.98303 0.0
H1374 H 0.44764 0.53096 0.97951 0.0
H1375 H 0.47319 0.51425 0.94983 0.0
H1376 H 0.48796 0.53616 0.98662 0.0
H1377 H 0.55553 0.46902 0.05388 0.0
H1378 H 0.57942 0.44032 1.00695 0.0
H1379 H 0.49911 0.45 0.94554 0.0
C1380 C 0.44208 0.50345 0.04995 0.0
C1381 C 0.44444 0.50712 0.08486 0.0
C1382 C 0.47136 0.49929 0.10183 0.0
C1383 C 0.49619 0.48903 0.08397 0.0
C1384 C 0.49349 0.48701 0.04937 0.0
C1385 C 0.46687 0.49316 0.03264 0.0
C1386 C 0.46904 0.48681 0.99562 0.0
C1387 C 0.44358 0.46309 0.98223 0.0
C1388 C 0.4695 0.51896 0.9768 0.0
C1389 C 0.49946 0.47212 0.99478 0.0
C1390 C 0.5143 0.47519 0.02542 0.0
C1391 C 0.54359 0.46518 0.03021 0.0
C1392 C 0.55665 0.44844 1.00383 0.0
C1393 C 0.53949 0.44039 0.97444 0.0
C1394 C 0.51165 0.45436 0.96881 0.0
H1395 H 0.75997 0.2118 0.17407 0.0
H1396 H 0.75655 0.3172 0.17528 0.0
H1397 H 0.70445 0.31371 0.19213 0.0
H1398 H 0.66511 0.2053 0.15733 0.0
H1399 H 0.66325 0.16798 0.17986 0.0
H1400 H 0.69371 0.17604 0.15156 0.0
H1401 H 0.73095 0.16538 0.19752 0.0
H1402 H 0.70207 0.15942 0.22782 0.0
H1403 H 0.73235 0.18936 0.23521 0.0
H1404 H 0.66345 0.30305 0.22773 0.0
H1405 H 0.63621 0.28444 0.27684 0.0
H1406 H 0.66496 0.1865 0.25822 0.0
C1407 C 0.74759 0.23379 0.17674 0.0
C1408 C 0.7624 0.26473 0.17352 0.0
C1409 C 0.74582 0.29318 0.1773 0.0
C1410 C 0.71581 0.29151 0.18652 0.0
C1411 C 0.7023 0.26114 0.19219 0.0
C1412 C 0.71701 0.23244 0.18617 0.0
C1413 C 0.69814 0.20374 0.19902 0.0
C1414 C 0.67892 0.18734 0.17025 0.0
C1415 C 0.71697 0.1781 0.21601 0.0
C1416 C 0.67772 0.22216 0.22222 0.0
C1417 C 0.67784 0.25474 0.21457 0.0
C1418 C 0.66273 0.27749 0.23369 0.0
C1419 C 0.64819 0.26708 0.2623 0.0
C1420 C 0.65006 0.23468 0.27218 0.0
C1421 C 0.66383 0.21165 0.25122 0.0
H1422 H 0.10202 0.4957 0.50377 0.0
H1423 H 0.04755 0.46251 0.58589 0.0
H1424 H 0.0181 0.51077 0.58336 0.0
H1425 H 0.08325 0.59146 0.52352 0.0
H1426 H 0.08276 0.59889 0.47952 0.0
H1427 H 0.10976 0.57211 0.49694 0.0
H1428 H 0.09209 0.52928 0.4543 0.0
H1429 H 0.06248 0.55285 0.43753 0.0
H1430 H 0.05407 0.51301 0.45324 0.0
H1431 H 0.98823 0.55536 0.56741 0.0
H1432 H 0.95204 0.58166 0.53027 0.0
H1433 H 0.01623 0.57833 0.45044 0.0
C1434 C 0.08434 0.49935 0.52155 0.0
C1435 C 0.07774 0.47592 0.54577 0.0
C1436 C 0.05398 0.48077 0.56816 0.0
C1437 C 0.03722 0.50847 0.56722 0.0
C1438 C 0.04343 0.53084 0.54274 0.0
C1439 C 0.06624 0.52665 0.51993 0.0
C1440 C 0.06343 0.55077 0.4921 0.0
C1441 C 0.08612 0.58002 0.49841 0.0
C1442 C 0.06811 0.53557 0.45726 0.0
C1443 C 0.03143 0.56139 0.49819 0.0
C1444 C 0.02266 0.55361 0.52991 0.0
C1445 C 0.99464 0.56149 0.5424 0.0
C1446 C 0.97404 0.57572 0.52112 0.0
C1447 C 0.98095 0.57961 0.4874 0.0
C1448 C 0.01036 0.57392 0.47603 0.0
H1449 H 0.77882 0.71529 0.31331 0.0
H1450 H 0.83397 0.80014 0.3473 0.0
H1451 H 0.79519 0.83625 0.32493 0.0
H1452 H 0.74663 0.74446 0.2386 0.0
H1453 H 0.71148 0.72278 0.2465 0.0
H1454 H 0.74597 0.70811 0.26328 0.0
H1455 H 0.72155 0.71231 0.32337 0.0
H1456 H 0.68892 0.72626 0.30211 0.0
H1457 H 0.70647 0.75064 0.33612 0.0
H1458 H 0.75326 0.86131 0.29221 0.0
H1459 H 0.71236 0.87334 0.25196 0.0
H1460 H 0.68331 0.77122 0.24722 0.0
C1461 C 0.7829 0.74152 0.31545 0.0
C1462 C 0.80933 0.75537 0.33074 0.0
C1463 C 0.81376 0.78955 0.33477 0.0
C1464 C 0.79186 0.81 0.32255 0.0
C1465 C 0.76547 0.79543 0.30804 0.0
C1466 C 0.76102 0.76196 0.30468 0.0
C1467 C 0.73081 0.75193 0.28908 0.0
C1468 C 0.73403 0.7305 0.25749 0.0
C1469 C 0.71072 0.73437 0.31429 0.0
C1470 C 0.71983 0.78504 0.28118 0.0
C1471 C 0.73981 0.81 0.29288 0.0
C1472 C 0.73691 0.84223 0.28382 0.0
C1473 C 0.71385 0.84881 0.26093 0.0
C1474 C 0.69438 0.82318 0.24772 0.0
C1475 C 0.69684 0.79132 0.25867 0.0
H1476 H 0.83516 0.24487 0.7401 0.0
H1477 H 0.76933 0.1644 0.72202 0.0
H1478 H 0.73145 0.20315 0.7061 0.0
H1479 H 0.80176 0.2961 0.78031 0.0
H1480 H 0.81058 0.33365 0.75965 0.0
H1481 H 0.83469 0.3004 0.755 0.0
H1482 H 0.83041 0.30189 0.69227 0.0
H1483 H 0.80558 0.33537 0.69583 0.0
H1484 H 0.79368 0.2991 0.67189 0.0
H1485 H 0.69804 0.24787 0.70983 0.0
H1486 H 0.67299 0.29151 0.73996 0.0
H1487 H 0.75918 0.34356 0.75819 0.0
C1488 C 0.81281 0.23535 0.73317 0.0
C1489 C 0.80516 0.2016 0.73373 0.0
C1490 C 0.77578 0.19019 0.72278 0.0
C1491 C 0.75428 0.21199 0.71273 0.0
C1492 C 0.76234 0.24518 0.71368 0.0
C1493 C 0.79118 0.25683 0.72301 0.0
C1494 C 0.79285 0.29365 0.72626 0.0
C1495 C 0.81086 0.30666 0.75734 0.0
C1496 C 0.8064 0.30835 0.69468 0.0
C1497 C 0.75946 0.29945 0.72749 0.0
C1498 C 0.74244 0.27197 0.7159 0.0
C1499 C 0.7111 0.26956 0.71842 0.0
C1500 C 0.69717 0.29401 0.7363 0.0
C1501 C 0.71482 0.31948 0.75251 0.0
C1502 C 0.74573 0.32382 0.74598 0.0
H1503 H 0.8516 0.82205 0.73079 0.0
H1504 H 0.90404 0.74474 0.76894 0.0
H1505 H 0.8746 0.70475 0.73255 0.0
H1506 H 0.79136 0.80387 0.72833 0.0
H1507 H 0.77275 0.8071 0.68842 0.0
H1508 H 0.80681 0.83106 0.69848 0.0
H1509 H 0.83508 0.8097 0.64939 0.0
H1510 H 0.80077 0.78732 0.63561 0.0
H1511 H 0.83552 0.76658 0.64017 0.0
H1512 H 0.82937 0.67397 0.71132 0.0
H1513 H 0.77554 0.65607 0.70784 0.0
H1514 H 0.7516 0.75333 0.68231 0.0
C1515 C 0.85792 0.7969 0.72974 0.0
C1516 C 0.87873 0.7857 0.75332 0.0
C1517 C 0.88711 0.75312 0.75181 0.0
C1518 C 0.87103 0.73051 0.73059 0.0
C1519 C 0.84808 0.74158 0.70993 0.0
C1520 C 0.8429 0.7745 0.70757 0.0
C1521 C 0.81408 0.77942 0.6875 0.0
C1522 C 0.79505 0.80684 0.7016 0.0
C1523 C 0.82183 0.78611 0.65103 0.0
C1524 C 0.79936 0.74557 0.68975 0.0
C1525 C 0.82072 0.72349 0.69858 0.0
C1526 C 0.81264 0.69097 0.70406 0.0
C1527 C 0.78194 0.68123 0.7029 0.0
C1528 C 0.75962 0.70411 0.69737 0.0
C1529 C 0.76845 0.73611 0.68857 0.0
H1530 H 0.47246 0.54224 0.39302 0.0
H1531 H 0.44082 0.49204 0.48039 0.0
H1532 H 0.45656 0.53884 0.5156 0.0
H1533 H 0.534 0.56224 0.42045 0.0
H1534 H 0.5464 0.60438 0.41562 0.0
H1535 H 0.5199 0.58399 0.38656 0.0
H1536 H 0.47404 0.61642 0.39345 0.0
H1537 H 0.50105 0.64543 0.4134 0.0
H1538 H 0.46649 0.63431 0.43373 0.0
H1539 H 0.47028 0.58857 0.54117 0.0
H1540 H 0.51424 0.61656 0.56664 0.0
H1541 H 0.55414 0.62971 0.4696 0.0
C1542 C 0.4684 0.54189 0.41951 0.0
C1543 C 0.4531 0.51499 0.434 0.0
C1544 C 0.45047 0.51357 0.46878 0.0
C1545 C 0.45875 0.54028 0.48889 0.0
C1546 C 0.47079 0.56793 0.47407 0.0
C1547 C 0.47782 0.56848 0.44066 0.0
C1548 C 0.50036 0.59686 0.43455 0.0
C1549 C 0.52689 0.58637 0.41329 0.0
C1550 C 0.48449 0.62485 0.41778 0.0
C1551 C 0.50875 0.60687 0.47062 0.0
C1552 C 0.48719 0.5937 0.49145 0.0
C1553 C 0.4877 0.59896 0.52555 0.0
C1554 C 0.51292 0.6149 0.53978 0.0
C1555 C 0.53768 0.6244 0.52008 0.0
C1556 C 0.53532 0.62218 0.48486 0.0
H1557 H 0.04267 0.56089 0.99279 0.0
H1558 H 0.03908 0.51854 0.89276 0.0
H1559 H 0.99562 0.48146 0.90836 0.0
H1560 H 0.02177 0.49152 0.0399 0.0
H1561 H 1.00064 0.51637 0.06751 0.0
H1562 H 0.03209 0.53462 0.04622 0.0
H1563 H 0.9952 0.57682 0.02187 0.0
H1564 H 0.96592 0.55616 0.0443 0.0
H1565 H 0.96135 0.56142 0.99982 0.0
H1566 H 0.95646 0.44573 0.93884 0.0
H1567 H 0.92449 0.41649 0.97961 0.0
H1568 H 0.95205 0.48918 0.05571 0.0
C1569 C 0.03304 0.54339 0.97432 0.0
C1570 C 0.04424 0.54149 0.9421 0.0
C1571 C 0.03063 0.51956 0.91787 0.0
C1572 C 1.00606 0.49874 0.92647 0.0
C1573 C 0.99517 0.50161 0.95876 0.0
C1574 C 1.00829 0.52361 0.98204 0.0
C1575 C 0.99203 0.52376 0.01433 0.0
C1576 C 0.01301 0.51611 0.04371 0.0
C1577 C 0.97764 0.55652 0.0203 0.0
C1578 C 0.96883 0.49652 1.00687 0.0
C1579 C 0.97062 0.48408 0.97459 0.0
C1580 C 0.95422 0.45578 0.96382 0.0
C1581 C 0.93637 0.43929 0.98705 0.0
C1582 C 0.93536 0.45141 0.0203 0.0
C1583 C 0.95127 0.48052 0.02999 0.0
H1584 H 0.07121 0.98379 0.20754 0.0
H1585 H 0.14928 0.05176 0.2091 0.0
H1586 H 0.17538 0.01607 0.2484 0.0
H1587 H 0.07368 0.96098 0.29557 0.0
H1588 H 0.0639 0.91863 0.28636 0.0
H1589 H 0.05085 0.94942 0.2591 0.0
H1590 H 0.07534 0.91938 0.20964 0.0
H1591 H 0.08914 0.8893 0.23729 0.0
H1592 H 0.11519 0.91199 0.21169 0.0
H1593 H 0.19131 0.9798 0.29173 0.0
H1594 H 0.19938 0.93691 0.33195 0.0
H1595 H 0.11344 0.88846 0.3015 0.0
C1596 C 0.09327 0.99209 0.21746 0.0
C1597 C 0.10759 0.02167 0.20665 0.0
C1598 C 0.13722 0.03042 0.21844 0.0
C1599 C 0.15227 0.01045 0.24056 0.0
C1600 C 0.13737 0.98227 0.25145 0.0
C1601 C 0.10858 0.97275 0.24029 0.0
C1602 C 0.09891 0.9398 0.25456 0.0
C1603 C 0.07013 0.94239 0.27511 0.0
C1604 C 0.09438 0.91357 0.22662 0.0
C1605 C 0.12637 0.93329 0.27664 0.0
C1606 C 0.14821 0.95832 0.2741 0.0
C1607 C 0.17469 0.95975 0.2935 0.0
C1608 C 0.17894 0.93534 0.31652 0.0
C1609 C 0.15712 0.90932 0.31998 0.0
C1610 C 0.13069 0.90783 0.29913 0.0
H1611 H 0.36909 0.84311 0.5776 0.0
H1612 H 0.36302 0.94835 0.58005 0.0
H1613 H 0.32842 0.94367 0.53203 0.0
H1614 H 0.35582 0.82597 0.48761 0.0
H1615 H 0.33081 0.7909 0.49419 0.0
H1616 H 0.3609 0.80186 0.52398 0.0
H1617 H 0.32186 0.80516 0.57197 0.0
H1618 H 0.29291 0.79223 0.5416 0.0
H1619 H 0.28909 0.82909 0.56595 0.0
H1620 H 0.2929 0.92821 0.48336 0.0
H1621 H 0.25314 0.90294 0.44571 0.0
H1622 H 0.27237 0.80777 0.48263 0.0
C1623 C 0.36198 0.86541 0.5678 0.0
C1624 C 0.37156 0.8964 0.58262 0.0
C1625 C 0.35817 0.92425 0.56914 0.0
C1626 C 0.33798 0.92193 0.54159 0.0
C1627 C 0.32893 0.89128 0.52836 0.0
C1628 C 0.33981 0.86336 0.54157 0.0
C1629 C 0.32236 0.83331 0.5263 0.0
C1630 C 0.34375 0.81173 0.50686 0.0
C1631 C 0.30561 0.81384 0.55309 0.0
C1632 C 0.29999 0.8489 0.50282 0.0
C1633 C 0.30494 0.88234 0.50373 0.0
C1634 C 0.28827 0.90209 0.48324 0.0
C1635 C 0.26528 0.88754 0.4622 0.0
C1636 C 0.25792 0.8536 0.46243 0.0
C1637 C 0.27636 0.83398 0.48255 0.0
H1638 H 0.38518 0.08698 0.81238 0.0
H1639 H 0.31639 1.00993 0.86139 0.0
H1640 H 0.34848 0.95563 0.85069 0.0
H1641 H 0.45143 0.01524 0.74908 0.0
H1642 H 0.48402 0.99938 0.769 0.0
H1643 H 0.47361 0.03767 0.78188 0.0
H1644 H 0.4733 0.01696 0.84068 0.0
H1645 H 0.48301 0.97746 0.82539 0.0
H1646 H 0.45118 0.98129 0.85188 0.0
H1647 H 0.3718 0.91099 0.80388 0.0
H1648 H 0.39033 0.88307 0.75306 0.0
H1649 H 0.46071 0.95677 0.74534 0.0
C1650 C 0.38072 0.06132 0.81844 0.0
C1651 C 0.3476 0.05263 0.83756 0.0
C1652 C 0.33779 0.01336 0.84908 0.0
C1653 C 0.35897 0.97859 0.8433 0.0
C1654 C 0.39368 0.97667 0.82469 0.0
C1655 C 0.41251 0.01077 0.81114 0.0
C1656 C 0.44329 0.9967 0.79986 0.0
C1657 C 0.46363 0.01355 0.77339 0.0
C1658 C 0.46371 0.99289 0.83124 0.0
C1659 C 0.43218 0.96239 0.78787 0.0
C1660 C 0.4065 0.95008 0.80414 0.0
C1661 C 0.39188 0.92073 0.79199 0.0
C1662 C 0.40195 0.90533 0.76219 0.0
C1663 C 0.4253 0.92014 0.74333 0.0
C1664 C 0.44183 0.94671 0.75848 0.0
H1665 H 0.24545 0.06426 0.94487 0.0
H1666 H 0.26665 0.16698 0.96661 0.0
H1667 H 0.23077 0.1659 0.01267 0.0
H1668 H 0.16441 0.06592 0.96796 0.0
H1669 H 0.16384 0.02647 0.98652 0.0
H1670 H 0.18883 0.0352 0.95264 0.0
H1671 H 0.23535 0.02003 0.9891 0.0
H1672 H 0.20942 0.01015 0.02176 0.0
H1673 H 0.24078 0.03882 0.03002 0.0
H1674 H 0.19265 0.15513 0.05329 0.0
H1675 H 0.15767 0.13429 0.09571 0.0
H1676 H 0.16328 0.03656 0.0526 0.0
C1677 C 0.24237 0.08634 0.95952 0.0
C1678 C 0.25885 0.1157 0.95274 0.0
C1679 C 0.25446 0.14427 0.972 0.0
C1680 C 0.23405 0.14395 0.99797 0.0
C1681 C 0.2186 0.11469 1.0047 0.0
C1682 C 0.22243 0.08626 0.98635 0.0
C1683 C 0.20369 0.05803 1.00052 0.0
C1684 C 0.17872 0.04568 0.97541 0.0
C1685 C 0.22354 0.03015 0.01094 0.0
C1686 C 0.19026 0.07496 0.03056 0.0
C1687 C 0.19852 0.10774 0.03152 0.0
C1688 C 0.1872 0.12931 0.05468 0.0
C1689 C 0.16736 0.11714 0.07849 0.0
C1690 C 0.15845 0.08357 0.07851 0.0
C1691 C 0.17036 0.06217 0.05419 0.0
H1692 H 0.19085 0.13806 0.23876 0.0
H1693 H 0.09711 0.15454 0.21602 0.0
H1694 H 0.08092 0.10837 0.25046 0.0
H1695 H 0.19741 0.0648 0.24804 0.0
H1696 H 0.21092 0.05441 0.28915 0.0
H1697 H 0.22191 0.09279 0.27127 0.0
H1698 H 0.20119 0.13358 0.30908 0.0
H1699 H 0.19801 0.10057 0.33774 0.0
H1700 H 0.16606 0.1251 0.32973 0.0
H1701 H 0.07542 0.05862 0.28351 0.0
H1702 H 0.07865 0.01388 0.32277 0.0
H1703 H 0.17528 0.03501 0.33562 0.0
C1704 C 0.16699 0.13115 0.24041 0.0
C1705 C 0.14507 0.14688 0.22108 0.0
C1706 C 0.11408 0.13983 0.22682 0.0
C1707 C 0.10477 0.11449 0.24746 0.0
C1708 C 0.1268 0.09857 0.26509 0.0
C1709 C 0.15714 0.10789 0.26356 0.0
C1710 C 0.17539 0.09001 0.28935 0.0
C1711 C 0.20287 0.07437 0.27362 0.0
C1712 C 0.18577 0.11371 0.31818 0.0
C1713 C 0.15119 0.06538 0.30144 0.0
C1714 C 0.12319 0.07198 0.28783 0.0
C1715 C 0.09701 0.05352 0.29488 0.0
C1716 C 0.09912 0.02793 0.31692 0.0
C1717 C 0.12713 0.0207 0.33181 0.0
C1718 C 0.15361 0.03988 0.32427 0.0
H1719 H 0.23227 0.86378 0.59423 0.0
H1720 H 0.29449 0.94746 0.58537 0.0
H1721 H 0.26627 0.96405 0.5352 0.0
H1722 H 0.22463 0.83957 0.51818 0.0
H1723 H 0.18453 0.8311 0.51227 0.0
H1724 H 0.20189 0.82896 0.55302 0.0
H1725 H 0.16883 0.87081 0.57994 0.0
H1726 H 0.14759 0.87143 0.54117 0.0
H1727 H 0.16323 0.90896 0.56015 0.0
H1728 H 0.23574 0.96655 0.48158 0.0
H1729 H 0.19985 0.95987 0.43347 0.0
H1730 H 0.15937 0.87317 0.4774 0.0
C1731 C 0.23893 0.88641 0.58256 0.0
C1732 C 0.26529 0.90454 0.59325 0.0
C1733 C 0.27419 0.93346 0.57715 0.0
C1734 C 0.2583 0.94304 0.5488 0.0
C1735 C 0.23339 0.92353 0.53741 0.0
C1736 C 0.22311 0.89641 0.55443 0.0
C1737 C 0.19669 0.87876 0.53612 0.0
C1738 C 0.20228 0.84248 0.52944 0.0
C1739 C 0.16736 0.88274 0.55548 0.0
C1740 C 0.19615 0.89788 0.50448 0.0
C1741 C 0.21651 0.92444 0.50622 0.0
C1742 C 0.21927 0.94618 0.48019 0.0
C1743 C 0.1994 0.94167 0.4525 0.0
C1744 C 0.17674 0.91607 0.45164 0.0
C1745 C 0.17648 0.89294 0.47713 0.0
H1746 H 0.38335 0.01961 0.8813 0.0
H1747 H 0.4309 0.06576 0.79191 0.0
H1748 H 0.40026 0.04408 0.76671 0.0
H1749 H 0.33097 0.94759 0.79257 0.0
H1750 H 0.29697 0.96263 0.77463 0.0
H1751 H 0.30546 0.97316 0.81534 0.0
H1752 H 0.29991 0.03094 0.79696 0.0
H1753 H 0.29494 0.01892 0.7541 0.0
H1754 H 0.32362 0.04963 0.76606 0.0
H1755 H 0.40584 0.02105 0.69802 0.0
H1756 H 0.38859 0.97327 0.66246 0.0
H1757 H 0.32014 0.9482 0.73098 0.0
C1758 C 0.39037 0.02605 0.85618 0.0
C1759 C 0.42152 0.05149 0.85451 0.0
C1760 C 0.43468 0.0662 0.81748 0.0
C1761 C 0.41855 0.05799 0.77671 0.0
C1762 C 0.38511 0.03249 0.7665 0.0
C1763 C 0.36455 0.01434 0.79742 0.0
C1764 C 0.33508 0.99938 0.77846 0.0
C1765 C 0.31674 0.96904 0.79141 0.0
C1766 C 0.31227 0.02635 0.77368 0.0
C1767 C 0.34741 0.99186 0.74414 0.0
C1768 C 0.37208 0.01195 0.73528 0.0
C1769 C 0.38649 1.00583 0.70507 0.0
C1770 C 0.37722 0.97778 0.6853 0.0
C1771 C 0.35552 0.95468 0.69702 0.0
C1772 C 0.3386 0.96422 0.72419 0.0
H1773 H 0.34994 0.08824 1.0083 0.0
H1774 H 0.36399 0.17902 0.95664 0.0
H1775 H 0.32626 0.20426 0.99223 0.0
H1776 H 0.27392 0.08953 0.02472 0.0
H1777 H 0.2746 0.07733 0.06748 0.0
H1778 H 0.30322 0.06446 0.03928 0.0
H1779 H 0.34637 0.08936 0.07579 0.0
H1780 H 0.31933 0.10095 0.10641 0.0
H1781 H 0.34568 0.1312 0.0904 0.0
H1782 H 0.28641 0.21986 0.03335 0.0
H1783 H 0.2479 0.22485 0.0766 0.0
H1784 H 0.26198 0.12596 0.10621 0.0
C1785 C 0.34507 0.11342 1.00419 0.0
C1786 C 0.36012 0.13134 0.97889 0.0
C1787 C 0.35294 0.1644 0.97521 0.0
C1788 C 0.33158 0.17911 0.99565 0.0
C1789 C 0.31802 0.16102 0.02078 0.0
C1790 C 0.3248 0.12901 0.02548 0.0
C1791 C 0.30841 0.11571 0.05576 0.0
C1792 C 0.28884 0.08491 0.0463 0.0
C1793 C 0.33131 0.10891 0.08375 0.0
C1794 C 0.28929 0.14431 0.06561 0.0
C1795 C 0.29591 0.17044 0.04549 0.0
C1796 C 0.28144 0.19969 0.04946 0.0
C1797 C 0.25958 0.20234 0.07424 0.0
C1798 C 0.25221 0.17615 0.09531 0.0
C1799 C 0.26738 0.14662 0.09088 0.0
H1800 H 0.89223 0.22339 0.14595 0.0
H1801 H 0.93443 0.30925 0.19567 0.0
H1802 H 0.98316 0.2818 0.1991 0.0
H1803 H 0.92816 0.16676 0.19657 0.0
H1804 H 0.93216 0.13655 0.16372 0.0
H1805 H 0.9018 0.16417 0.16164 0.0
H1806 H 0.9196 0.18322 0.10381 0.0
H1807 H 0.94944 0.1549 0.10565 0.0
H1808 H 0.95844 0.19743 0.09906 0.0
H1809 H 0.02802 0.24347 0.19733 0.0
H1810 H 0.06291 0.19794 0.19258 0.0
H1811 H 0.98958 0.13595 0.14891 0.0
C1812 C 0.91199 0.23667 0.15669 0.0
C1813 C 0.90978 0.26883 0.16971 0.0
C1814 C 0.93579 0.28487 0.18496 0.0
C1815 C 0.96352 0.26936 0.18717 0.0
C1816 C 0.96488 0.23739 0.17465 0.0
C1817 C 0.93969 0.22122 0.15977 0.0
C1818 C 0.94641 0.18625 0.15039 0.0
C1819 C 0.92591 0.16201 0.16921 0.0
C1820 C 0.94329 0.18011 0.11248 0.0
C1821 C 0.97921 0.18522 0.16221 0.0
C1822 C 0.98972 0.21501 0.17574 0.0
C1823 C 0.01977 0.21993 0.18721 0.0
C1824 C 0.03947 0.19387 0.18459 0.0
C1825 C 0.02897 0.16299 0.1712 0.0
C1826 C 0.9983 0.15889 0.1601 0.0
H1827 H 0.49062 0.29544 0.94942 0.0
H1828 H 0.51077 0.33485 0.85288 0.0
H1829 H 0.47087 0.2977 0.82693 0.0
H1830 H 0.47329 0.21715 0.93159 0.0
H1831 H 0.4387 0.21041 0.95414 0.0
H1832 H 0.46633 0.24177 0.96793 0.0
H1833 H 0.42905 0.28686 0.96519 0.0
H1834 H 0.39951 0.25632 0.95454 0.0
H1835 H 0.40574 0.29084 0.92834 0.0
H1836 H 0.43602 0.24885 0.81076 0.0
H1837 H 0.39939 0.20223 0.80572 0.0
H1838 H 0.39198 0.2021 0.91342 0.0
C1839 C 0.48676 0.29628 0.92276 0.0
C1840 C 0.5058 0.31633 0.90274 0.0
C1841 C 0.49821 0.31815 0.86844 0.0
C1842 C 0.4752 0.29743 0.85354 0.0
C1843 C 0.45839 0.2764 0.87361 0.0
C1844 C 0.46272 0.27697 0.90771 0.0
C1845 C 0.43966 0.25379 0.92376 0.0
C1846 C 0.45542 0.22926 0.94559 0.0
C1847 C 0.41715 0.27311 0.94416 0.0
C1848 C 0.42393 0.23748 0.89302 0.0
C1849 C 0.4351 0.25122 0.86444 0.0
C1850 C 0.42627 0.23877 0.83296 0.0
C1851 C 0.4054 0.21191 0.83045 0.0
C1852 C 0.39196 0.19824 0.8591 0.0
C1853 C 0.40135 0.21177 0.89091 0.0
H1854 H 0.01538 0.66785 0.44123 0.0
H1855 H 0.98091 0.69475 0.34469 0.0
H1856 H 0.02125 0.73909 0.34295 0.0
H1857 H 0.03363 0.74687 0.47599 0.0
H1858 H 0.06854 0.73648 0.49596 0.0
H1859 H 0.03854 0.70569 0.48873 0.0
H1860 H 0.0752 0.6695 0.4565 0.0
H1861 H 0.10528 0.70011 0.46425 0.0
H1862 H 0.09587 0.68628 0.42217 0.0
H1863 H 0.06184 0.78325 0.35409 0.0
H1864 H 0.10507 0.8196 0.37246 0.0
H1865 H 0.11552 0.76294 0.4612 0.0
C1866 C 0.0162 0.68338 0.41985 0.0
C1867 C 0.9946 0.67862 0.39336 0.0
C1868 C 0.99663 0.69881 0.36557 0.0
C1869 C 0.01936 0.72398 0.36447 0.0
C1870 C 0.03946 0.72903 0.39163 0.0
C1871 C 0.03847 0.70892 0.41859 0.0
C1872 C 0.06339 0.71903 0.44407 0.0
C1873 C 0.05021 0.72752 0.47818 0.0
C1874 C 0.08629 0.69213 0.44691 0.0
C1875 C 0.07751 0.74912 0.4281 0.0
C1876 C 0.06334 0.75428 0.39784 0.0
C1877 C 0.07252 0.78009 0.37812 0.0
C1878 C 0.09709 0.80084 0.38905 0.0
C1879 C 0.11347 0.79495 0.41886 0.0
C1880 C 0.10298 0.76895 0.43894 0.0
H1881 H 0.01058 0.37339 0.11103 0.0
H1882 H 0.93961 0.29661 0.10539 0.0
H1883 H 0.97823 0.25519 0.10379 0.0
H1884 H 0.06248 0.33406 0.05607 0.0
H1885 H 0.09573 0.34812 0.08001 0.0
H1886 H 0.06255 0.37195 0.07987 0.0
H1887 H 0.06095 0.37084 0.1444 0.0
H1888 H 0.09458 0.34789 0.14466 0.0
H1889 H 0.06101 0.33219 0.16465 0.0
H1890 H 0.02544 0.22142 0.10681 0.0
H1891 H 0.07612 0.20022 0.11867 0.0
H1892 H 0.11551 0.2987 0.11817 0.0
C1893 C 1.00312 0.34787 0.10972 0.0
C1894 C 0.97197 0.3384 0.10858 0.0
C1895 C 0.9633 0.30464 0.10655 0.0
C1896 C 0.9851 0.28082 0.10538 0.0
C1897 C 0.01563 0.29095 0.10617 0.0
C1898 C 0.0246 0.32373 0.10846 0.0
C1899 C 0.05877 0.3283 0.11 0.0
C1900 C 0.07056 0.3467 0.07968 0.0
C1901 C 0.06945 0.34582 0.14287 0.0
C1902 C 0.06762 0.29305 0.10879 0.0
C1903 C 0.04252 0.27171 0.10639 0.0
C1904 C 0.04529 0.23794 0.10803 0.0
C1905 C 0.07422 0.22594 0.11421 0.0
C1906 C 0.09984 0.24772 0.11853 0.0
C1907 C 0.09645 0.28142 0.11407 0.0
H1908 H 0.60791 0.71962 0.73103 0.0
H1909 H 0.64171 0.71125 0.63068 0.0
H1910 H 0.60762 0.75407 0.61295 0.0
H1911 H 0.53441 0.73149 0.71594 0.0
H1912 H 0.529 0.76382 0.74655 0.0
H1913 H 0.55784 0.73515 0.75304 0.0
H1914 H 0.59976 0.78015 0.75856 0.0
H1915 H 0.5716 0.81019 0.75429 0.0
H1916 H 0.60349 0.81036 0.72702 0.0
H1917 H 0.56448 0.79179 0.60494 0.0
H1918 H 0.52201 0.82873 0.60882 0.0
H1919 H 0.52068 0.81772 0.71573 0.0
C1920 C 0.60786 0.72639 0.70516 0.0
C1921 C 0.6262 0.71063 0.68174 0.0
C1922 C 0.62682 0.72178 0.64869 0.0
C1923 C 0.60785 0.74644 0.63853 0.0
C1924 C 0.58899 0.76022 0.66196 0.0
C1925 C 0.58978 0.75148 0.69486 0.0
C1926 C 0.56875 0.77146 0.71562 0.0
C1927 C 0.54607 0.74919 0.73384 0.0
C1928 C 0.58699 0.7944 0.74033 0.0
C1929 C 0.55366 0.79064 0.68865 0.0
C1930 C 0.56604 0.78405 0.65792 0.0
C1931 C 0.55511 0.79766 0.62893 0.0
C1932 C 0.53097 0.81849 0.63135 0.0
C1933 C 0.51827 0.82594 0.66251 0.0
C1934 C 0.53009 0.81231 0.69163 0.0
H1935 H 0.9296 0.75628 0.4023 0.0
H1936 H 0.94437 0.73707 0.29705 0.0
H1937 H 0.98555 0.77912 0.29785 0.0
H1938 H 0.94582 0.84433 0.39758 0.0
H1939 H 0.96392 0.84785 0.43822 0.0
H1940 H 0.9345 0.81667 0.42963 0.0
H1941 H 0.97056 0.77227 0.44768 0.0
H1942 H 0.99978 0.80351 0.45679 0.0
H1943 H 1.00682 0.77019 0.42857 0.0
H1944 H 0.02532 0.82462 0.30927 0.0
H1945 H 0.06299 0.86634 0.33287 0.0
H1946 H 0.02397 0.8534 0.43042 0.0
C1947 C 0.9419 0.76041 0.37965 0.0
C1948 C 0.93354 0.74303 0.34974 0.0
C1949 C 0.95 0.74994 0.32042 0.0
C1950 C 0.97342 0.77408 0.32042 0.0
C1951 C 0.98073 0.79114 0.35001 0.0
C1952 C 0.96568 0.78446 0.37919 0.0
C1953 C 0.9781 0.80661 0.40751 0.0
C1954 C 0.95416 0.83026 0.41889 0.0
C1955 C 0.98949 0.78697 0.43686 0.0
C1956 C 1.00381 0.82467 0.39018 0.0
C1957 C 1.00431 0.81642 0.35676 0.0
C1958 C 0.02529 0.83123 0.33554 0.0
C1959 C 0.04674 0.85473 0.34912 0.0
C1960 C 0.047 0.86299 0.38356 0.0
C1961 C 0.02501 0.84758 0.40403 0.0
H1962 H 0.53013 0.18327 0.91409 0.0
H1963 H 0.46964 0.19099 0.82894 0.0
H1964 H 0.49976 0.2399 0.81113 0.0
H1965 H 0.53766 0.26206 0.93678 0.0
H1966 H 0.57749 0.26507 0.94723 0.0
H1967 H 0.55636 0.22673 0.95038 0.0
H1968 H 0.59116 0.19679 0.91047 0.0
H1969 H 0.61463 0.2338 0.90948 0.0
H1970 H 0.60046 0.21438 0.8711 0.0
H1971 H 0.53499 0.29054 0.80577 0.0
H1972 H 0.57497 0.33484 0.81008 0.0
H1973 H 0.6093 0.29364 0.90056 0.0
C1974 C 0.5239 0.19466 0.89108 0.0
C1975 C 0.49776 0.18384 0.87272 0.0
C1976 C 0.48963 0.19948 0.84323 0.0
C1977 C 0.50658 0.22708 0.83303 0.0
C1978 C 0.53118 0.23862 0.85302 0.0
C1979 C 0.5401 0.22247 0.88109 0.0
C1980 C 0.56642 0.2403 0.89919 0.0
C1981 C 0.55902 0.24908 0.93552 0.0
C1982 C 0.59485 0.22013 0.89743 0.0
C1983 C 0.56959 0.27019 0.87828 0.0
C1984 C 0.54987 0.26839 0.85112 0.0
C1985 C 0.55048 0.29226 0.82703 0.0
C1986 C 0.57257 0.31798 0.83026 0.0
C1987 C 0.5945 0.31849 0.85644 0.0
C1988 C 0.59173 0.29527 0.8816 0.0
H1989 H 0.85289 0.09305 0.79867 0.0
H1990 H 0.94354 0.08924 0.76055 0.0
H1991 H 0.95133 0.03904 0.7924 0.0
H1992 H 0.87116 0.0642 0.88223 0.0
H1993 H 0.83523 0.04193 0.8851 0.0
H1994 H 0.83821 0.07807 0.86071 0.0
H1995 H 0.81594 0.04471 0.80926 0.0
H1996 H 0.81348 1.0084 0.83342 0.0
H1997 H 0.83422 1.00863 0.79526 0.0
H1998 H 0.94689 0.98589 0.82555 0.0
H1999 H 0.93481 0.942 0.86491 0.0
H2000 H 0.84719 0.98212 0.88132 0.0
C2001 C 0.87448 0.0818 0.79729 0.0
C2002 C 0.89749 0.09462 0.77675 0.0
C2003 C 0.92548 0.07937 0.77567 0.0
C2004 C 0.93009 0.05099 0.79382 0.0
C2005 C 0.9065 0.03823 0.81299 0.0
C2006 C 0.87946 0.05367 0.81535 0.0
C2007 C 0.8575 0.03515 0.83728 0.0
C2008 C 0.85009 0.05607 0.86816 0.0
C2009 C 0.82858 0.02355 0.81761 0.0
C2010 C 0.87609 1.00656 0.84658 0.0
C2011 C 0.90415 1.00842 0.83208 0.0
C2012 C 0.92505 0.98448 0.83723 0.0
C2013 C 0.91777 0.95922 0.85927 0.0
C2014 C 0.8899 0.95814 0.8762 0.0
C2015 C 0.86852 0.98167 0.86857 0.0
H2016 H 0.7171 0.06507 0.5082 0.0
H2017 H 0.67498 0.15771 0.4993 0.0
H2018 H 0.70984 0.18138 0.54369 0.0
H2019 H 0.72589 0.07753 0.60156 0.0
H2020 H 0.75928 0.05407 0.60312 0.0
H2021 H 0.73005 0.04442 0.57193 0.0
H2022 H 0.76993 0.04891 0.52762 0.0
H2023 H 0.79979 0.06155 0.55706 0.0
H2024 H 0.79115 0.08648 0.52237 0.0
H2025 H 0.7521 0.19631 0.58662 0.0
H2026 H 0.79517 0.20056 0.62654 0.0
H2027 H 0.80997 0.09771 0.60989 0.0
C2028 C 0.71556 0.09066 0.51481 0.0
C2029 C 0.69415 0.11004 0.4981 0.0
C2030 C 0.69202 0.14269 0.50979 0.0
C2031 C 0.71156 0.15623 0.53549 0.0
C2032 C 0.73318 0.13688 0.55 0.0
C2033 C 0.73479 0.10449 0.54062 0.0
C2034 C 0.75838 0.0883 0.56225 0.0
C2035 C 0.74246 0.06469 0.58613 0.0
C2036 C 0.7812 0.0703 0.5411 0.0
C2037 C 0.77292 0.11773 0.5818 0.0
C2038 C 0.75685 0.14511 0.57554 0.0
C2039 C 0.7647 0.17497 0.59163 0.0
C2040 C 0.78959 0.17718 0.61421 0.0
C2041 C 0.80687 0.14978 0.62119 0.0
C2042 C 0.79802 0.11947 0.60469 0.0
H2043 H 0.58116 0.90333 0.25787 0.0
H2044 H 0.66142 0.92335 0.20028 0.0
H2045 H 0.67522 0.9709 0.23754 0.0
H2046 H 0.56302 0.98713 0.27599 0.0
H2047 H 0.55227 0.98076 0.31845 0.0
H2048 H 0.54702 0.94818 0.28755 0.0
H2049 H 0.57863 0.9095 0.32116 0.0
H2050 H 0.58241 0.94044 0.35379 0.0
H2051 H 0.6157 0.92316 0.33684 0.0
H2052 H 0.68456 0.01181 0.28839 0.0
H2053 H 0.68377 0.04584 0.34046 0.0
H2054 H 0.59489 1.00346 0.36103 0.0
C2055 C 0.60101 0.91844 0.25216 0.0
C2056 C 0.6198 0.90945 0.22536 0.0
C2057 C 0.6461 0.92969 0.21987 0.0
C2058 C 0.65443 0.95667 0.24139 0.0
C2059 C 0.63603 0.96399 0.26827 0.0
C2060 C 0.60943 0.94579 0.27315 0.0
C2061 C 0.59405 0.95784 0.30445 0.0
C2062 C 0.56223 0.96921 0.29613 0.0
C2063 C 0.59264 0.93113 0.33059 0.0
C2064 C 0.61564 0.98616 0.31607 0.0
C2065 C 0.64026 0.98877 0.29551 0.0
C2066 C 0.66481 0.01064 0.30377 0.0
C2067 C 0.66422 0.03005 0.33349 0.0
C2068 C 0.63912 0.02793 0.35476 0.0
C2069 C 0.61436 1.00604 0.34526 0.0
H2070 H 0.81754 0.89982 0.0207 0.0
H2071 H 0.84358 0.80738 0.9779 0.0
H2072 H 0.80281 0.7795 0.01092 0.0
H2073 H 0.80489 0.86779 0.10473 0.0
H2074 H 0.77598 0.8965 0.1121 0.0
H2075 H 0.80754 0.90738 0.08641 0.0
H2076 H 0.77138 0.92097 0.03886 0.0
H2077 H 0.73873 0.9095 0.06265 0.0
H2078 H 0.74472 0.88957 0.02294 0.0
H2079 H 0.75371 0.7639 0.05024 0.0
H2080 H 0.70899 0.76347 0.08729 0.0
H2081 H 0.72104 0.86803 0.1017 0.0
C2082 C 0.81581 0.87355 0.01815 0.0
C2083 C 0.83449 0.85619 0.99604 0.0
C2084 C 0.82995 0.82169 0.9943 0.0
C2085 C 0.80688 0.80566 0.01336 0.0
C2086 C 0.78921 0.82427 0.03501 0.0
C2087 C 0.79455 0.85756 0.03781 0.0
C2088 C 0.77376 0.87345 0.0622 0.0
C2089 C 0.79162 0.88705 0.09321 0.0
C2090 C 0.75609 0.90009 0.04575 0.0
C2091 C 0.75328 0.84466 0.07067 0.0
C2092 C 0.76266 0.81604 0.05589 0.0
C2093 C 0.74664 0.78643 0.06155 0.0
C2094 C 0.72105 0.78639 0.08254 0.0
C2095 C 0.7109 0.81588 0.09684 0.0
C2096 C 0.72753 0.84515 0.09056 0.0
H2097 H 0.89934 0.06091 0.65917 0.0
H2098 H 0.84853 1.00459 0.58182 0.0
H2099 H 0.84267 0.95857 0.61929 0.0
H2100 H 0.93974 1.00091 0.69485 0.0
H2101 H 0.93402 0.01025 0.73812 0.0
H2102 H 0.93291 0.04216 0.70817 0.0
H2103 H 0.87952 0.05708 0.72335 0.0
H2104 H 0.87729 0.02615 0.7549 0.0
H2105 H 0.84904 0.02657 0.72274 0.0
H2106 H 0.84319 0.91732 0.66516 0.0
H2107 H 0.84878 0.88533 0.71552 0.0
H2108 H 0.89948 0.96669 0.76477 0.0
C2109 C 0.88678 0.03905 0.65012 0.0
C2110 C 0.87473 0.03679 0.61705 0.0
C2111 C 0.85827 1.00741 0.60676 0.0
C2112 C 0.85487 0.9808 0.6279 0.0
C2113 C 0.8678 0.98346 0.65981 0.0
C2114 C 0.88307 0.01189 0.67099 0.0
C2115 C 0.89266 1.00884 0.70723 0.0
C2116 C 0.92685 0.01605 0.71243 0.0
C2117 C 0.87363 0.03119 0.72841 0.0
C2118 C 0.8836 0.97341 0.71382 0.0
C2119 C 0.86812 0.95964 0.68631 0.0
C2120 C 0.85542 0.92798 0.68673 0.0
C2121 C 0.85866 0.90999 0.71577 0.0
C2122 C 0.87483 0.92312 0.74447 0.0
C2123 C 0.88746 0.95553 0.74331 0.0
H2124 H 0.82179 0.11168 0.47393 0.0
H2125 H 0.82555 0.18532 0.55381 0.0
H2126 H 0.78029 0.20956 0.52853 0.0
H2127 H 0.7957 0.17184 0.40974 0.0
H2128 H 0.7755 0.13917 0.38656 0.0
H2129 H 0.81011 0.13153 0.40892 0.0
H2130 H 0.7454 0.09387 0.41911 0.0
H2131 H 0.75058 0.09346 0.46361 0.0
H2132 H 0.7816 0.08527 0.43727 0.0
H2133 H 0.73157 0.22145 0.49752 0.0
H2134 H 0.68632 0.22402 0.46111 0.0
H2135 H 0.71593 0.14282 0.40079 0.0
C2136 C 0.8136 0.13318 0.48625 0.0
C2137 C 0.82681 0.1459 0.5168 0.0
C2138 C 0.81539 0.17451 0.53112 0.0
C2139 C 0.78985 0.1885 0.51675 0.0
C2140 C 0.77653 0.17396 0.48774 0.0
C2141 C 0.78869 0.14754 0.4721 0.0
C2142 C 0.7708 0.1368 0.44067 0.0
C2143 C 0.78911 0.14535 0.40965 0.0
C2144 C 0.76148 0.10023 0.44016 0.0
C2145 C 0.74401 0.15823 0.44367 0.0
C2146 C 0.74864 0.18065 0.46996 0.0
C2147 C 0.72788 0.20414 0.47686 0.0
C2148 C 0.70195 0.205 0.45633 0.0
C2149 C 0.69699 0.18291 0.42867 0.0
C2150 C 0.71824 0.15894 0.42259 0.0
H2151 H 0.67322 0.01683 0.1511 0.0
H2152 H 0.5863 0.9668 0.16627 0.0
H2153 H 0.58028 0.99962 0.21804 0.0
H2154 H 0.69881 0.02794 0.23594 0.0
H2155 H 0.71351 0.06943 0.23305 0.0
H2156 H 0.71278 0.04221 0.19701 0.0
H2157 H 0.68174 0.08069 0.16235 0.0
H2158 H 0.68379 0.10949 0.19701 0.0
H2159 H 0.64751 0.09621 0.17892 0.0
H2160 H 0.58269 0.03906 0.26743 0.0
H2161 H 0.59246 0.08241 0.31025 0.0
H2162 H 0.67653 0.11082 0.26263 0.0
C2163 C 0.65327 0.01233 0.1658 0.0
C2164 C 0.63049 0.98857 0.15495 0.0
C2165 C 0.60417 0.98445 0.1742 0.0
C2166 C 0.60053 1.00311 0.20366 0.0
C2167 C 0.62315 0.02649 0.21353 0.0
C2168 C 0.6489 0.03148 0.19503 0.0
C2169 C 0.66855 0.06003 0.21 0.0
C2170 C 0.70028 0.04927 0.21961 0.0
C2171 C 0.67049 0.08827 0.18562 0.0
C2172 C 0.65053 0.06926 0.24062 0.0
C2173 C 0.62429 0.04969 0.24186 0.0
C2174 C 0.60335 0.05411 0.2669 0.0
C2175 C 0.60914 0.07901 0.29125 0.0
C2176 C 0.63542 0.1001 0.29036 0.0
C2177 C 0.65648 0.09486 0.2646 0.0
H2178 H 0.68718 0.86216 0.97299 0.0
H2179 H 0.71342 0.96198 1.00258 0.0
H2180 H 0.75823 0.95988 0.96661 0.0
H2181 H 0.76251 0.83366 0.97404 0.0
H2182 H 0.75644 0.80564 0.939 0.0
H2183 H 0.72528 0.81563 0.96506 0.0
H2184 H 0.69536 0.83448 0.91369 0.0
H2185 H 0.72624 0.82465 0.88721 0.0
H2186 H 0.71222 0.86513 0.88762 0.0
H2187 H 0.79773 0.94797 0.92126 0.0
H2188 H 0.83306 0.92378 0.88127 0.0
H2189 H 0.78686 0.82956 0.89074 0.0
C2190 C 0.70252 0.88346 0.9721 0.0
C2191 C 0.69699 0.91209 0.99115 0.0
C2192 C 0.71748 0.93957 0.98888 0.0
C2193 C 0.74285 0.93871 0.96817 0.0
C2194 C 0.74781 0.91006 0.94994 0.0
C2195 C 0.72847 0.88272 0.95225 0.0
C2196 C 0.7398 0.85438 0.93162 0.0
C2197 C 0.74638 0.82555 0.95373 0.0
C2198 C 0.71705 0.84406 0.90336 0.0
C2199 C 0.76875 0.86979 0.91788 0.0
C2200 C 0.77245 0.90224 0.92765 0.0
C2201 C 0.79578 0.92215 0.9149 0.0
C2202 C 0.8163 0.90822 0.89272 0.0
C2203 C 0.81484 0.87441 0.88494 0.0
C2204 C 0.79 0.85528 0.89728 0.0
H2205 H 0.00927 0.86223 0.92324 0.0
H2206 H 0.97526 0.81243 1.00939 0.0
H2207 H 0.0187 0.77617 1.00737 0.0
H2208 H 0.06971 0.81999 0.86461 0.0
H2209 H 0.04613 0.85233 0.8772 0.0
H2210 H 0.03102 0.81149 0.87738 0.0
H2211 H 0.0761 0.87597 0.92514 0.0
H2212 H 0.10612 0.85094 0.91132 0.0
H2213 H 0.09448 0.85021 0.95405 0.0
H2214 H 0.06555 0.74262 0.99277 0.0
H2215 H 0.10659 0.71326 0.96541 0.0
H2216 H 0.10866 0.7841 0.88751 0.0
C2217 C 0.01136 0.84414 0.94217 0.0
C2218 C 0.98846 0.83986 0.96618 0.0
C2219 C 0.99234 0.81624 0.99077 0.0
C2220 C 0.0171 0.79556 0.9898 0.0
C2221 C 0.03874 0.79969 0.96504 0.0
C2222 C 0.03669 0.82441 0.94254 0.0
C2223 C 0.06293 0.82395 0.91851 0.0
C2224 C 0.05191 0.82686 0.88224 0.0
C2225 C 0.08628 0.85191 0.92781 0.0
C2226 C 0.07628 0.79127 0.92646 0.0
C2227 C 0.06386 0.7793 0.9553 0.0
C2228 C 0.07496 0.75155 0.96989 0.0
C2229 C 0.09827 0.73483 0.9541 0.0
C2230 C 0.11045 0.74558 0.92377 0.0
C2231 C 0.09953 0.77468 0.91028 0.0
H2232 H 0.46399 0.64375 0.15997 0.0
H2233 H 0.4492 0.65736 0.05474 0.0
H2234 H 0.49218 0.69887 0.05573 0.0
H2235 H 0.5159 0.70786 0.21722 0.0
H2236 H 0.48681 0.67669 0.2075 0.0
H2237 H 0.48327 0.71697 0.19274 0.0
H2238 H 0.52513 0.63971 0.18196 0.0
H2239 H 0.55495 0.67005 0.19223 0.0
H2240 H 0.54987 0.65444 0.15003 0.0
H2241 H 0.54264 0.73474 0.06915 0.0
H2242 H 0.57986 0.77616 0.09461 0.0
H2243 H 0.55739 0.74026 0.19208 0.0
C2244 C 0.46941 0.65551 0.13724 0.0
C2245 C 0.4525 0.64749 0.10751 0.0
C2246 C 0.46146 0.66307 0.07795 0.0
C2247 C 0.4861 0.68649 0.07826 0.0
C2248 C 0.5024 0.69344 0.10812 0.0
C2249 C 0.49435 0.6781 0.13706 0.0
C2250 C 0.51596 0.68889 0.16569 0.0
C2251 C 0.4995 0.69822 0.19762 0.0
C2252 C 0.53776 0.66167 0.17289 0.0
C2253 C 0.53312 0.71746 0.15016 0.0
C2254 C 0.5274 0.71748 0.11626 0.0
C2255 C 0.54498 0.73753 0.09585 0.0
C2256 C 0.56662 0.76042 0.11056 0.0
C2257 C 0.57062 0.76324 0.14566 0.0
C2258 C 0.55403 0.74046 0.16534 0.0
H2259 H 0.05066 0.33795 0.66934 0.0
H2260 H 0.01345 0.33079 0.56768 0.0
H2261 H 0.97294 0.29534 0.58478 0.0
H2262 H 0.04534 0.2686 0.69205 0.0
H2263 H 0.02363 0.26071 0.72891 0.0
H2264 H 0.04335 0.2995 0.72344 0.0
H2265 H 1.00255 0.33785 0.72254 0.0
H2266 H 0.97985 0.30499 0.73982 0.0
H2267 H 0.96605 0.32603 0.70423 0.0
H2268 H 0.93974 0.25605 0.60699 0.0
H2269 H 0.91358 0.21225 0.63615 0.0
H2270 H 0.96959 0.23567 0.72456 0.0
C2271 C 0.03375 0.32921 0.65093 0.0
C2272 C 0.03619 0.33786 0.61689 0.0
C2273 C 0.0131 0.32556 0.5939 0.0
C2274 C 0.9894 0.30495 0.60326 0.0
C2275 C 0.98838 0.29574 0.6359 0.0
C2276 C 0.00912 0.30777 0.65996 0.0
C2277 C 1.00162 0.29197 0.69313 0.0
C2278 C 0.02999 0.27922 0.71033 0.0
C2279 C 0.98665 0.31668 0.71629 0.0
C2280 C 0.97781 0.26519 0.68149 0.0
C2281 C 0.96928 0.27009 0.64895 0.0
C2282 C 0.94664 0.25107 0.63226 0.0
C2283 C 0.93239 0.22546 0.6488 0.0
C2284 C 0.94076 0.21845 0.68185 0.0
C2285 C 0.96372 0.23907 0.69863 0.0
H2286 H 0.05171 0.69197 0.87187 0.0
H2287 H 0.03105 0.68302 0.97653 0.0
H2288 H 0.99345 0.725 0.9714 0.0
H2289 H 0.0501 0.7646 0.85776 0.0
H2290 H 0.02351 0.77443 0.82494 0.0
H2291 H 0.04175 0.73617 0.8245 0.0
H2292 H 1.00051 0.69566 0.82802 0.0
H2293 H 0.97548 0.72743 0.81742 0.0
H2294 H 0.96824 0.70271 0.85316 0.0
H2295 H 0.95674 0.76528 0.95511 0.0
H2296 H 0.92265 0.80315 0.92927 0.0
H2297 H 0.96679 0.79005 0.83503 0.0
C2298 C 0.03946 0.69913 0.89375 0.0
C2299 C 0.04521 0.68495 0.92498 0.0
C2300 C 0.02758 0.69386 0.95255 0.0
C2301 C 1.00608 0.71772 0.94987 0.0
C2302 C 1.00167 0.73197 0.91917 0.0
C2303 C 0.01701 0.7223 0.89129 0.0
C2304 C 1.00539 0.73944 0.86069 0.0
C2305 C 0.03157 0.75478 0.84087 0.0
C2306 C 0.98627 0.7149 0.83844 0.0
C2307 C 0.98478 0.76414 0.87685 0.0
C2308 C 0.9817 0.75757 0.91025 0.0
C2309 C 0.96 0.77203 0.92954 0.0
C2310 C 0.94099 0.79404 0.91474 0.0
C2311 C 0.94382 0.80243 0.88095 0.0
C2312 C 0.96612 0.78697 0.8617 0.0
H2313 H 0.4127 0.19756 0.40741 0.0
H2314 H 0.44076 0.29452 0.44484 0.0
H2315 H 0.49014 0.27349 0.46256 0.0
H2316 H 0.45414 0.15014 0.4664 0.0
H2317 H 0.46368 0.12015 0.43522 0.0
H2318 H 0.42932 0.14165 0.43071 0.0
H2319 H 0.44591 0.16067 0.37258 0.0
H2320 H 0.48022 0.13913 0.37693 0.0
H2321 H 0.48214 0.18203 0.36852 0.0
H2322 H 0.54047 0.24204 0.47012 0.0
H2323 H 0.58246 0.2037 0.46924 0.0
H2324 H 0.52233 0.12962 0.42137 0.0
C2325 C 0.42923 0.21487 0.41872 0.0
C2326 C 0.42264 0.24827 0.42361 0.0
C2327 C 0.445 0.26906 0.44017 0.0
C2328 C 0.47333 0.25727 0.45023 0.0
C2329 C 0.47978 0.22483 0.44265 0.0
C2330 C 0.45809 0.20397 0.42725 0.0
C2331 C 0.47064 0.1707 0.41994 0.0
C2332 C 0.45342 0.14409 0.43922 0.0
C2333 C 0.46966 0.16268 0.38226 0.0
C2334 C 0.50307 0.176 0.43305 0.0
C2335 C 0.50797 0.20723 0.44655 0.0
C2336 C 0.53654 0.21754 0.4598 0.0
C2337 C 0.5604 0.19562 0.45914 0.0
C2338 C 0.55582 0.16361 0.44525 0.0
C2339 C 0.52663 0.15392 0.43214 0.0
H2340 H 0.9879 0.17598 0.61944 0.0
H2341 H 0.95681 0.22718 0.53343 0.0
H2342 H 1.00504 0.26073 0.53418 0.0
H2343 H 0.01966 0.22673 0.66556 0.0
H2344 H 0.05673 0.21336 0.67707 0.0
H2345 H 0.02667 0.18449 0.66433 0.0
H2346 H 0.05345 0.15986 0.61673 0.0
H2347 H 0.08686 0.18426 0.6297 0.0
H2348 H 0.07294 0.18507 0.58728 0.0
H2349 H 0.05977 0.28832 0.54481 0.0
H2350 H 0.10379 0.31757 0.57382 0.0
H2351 H 0.09118 0.25513 0.65791 0.0
C2352 C 0.99124 0.1944 0.60091 0.0
C2353 C 0.9681 0.19981 0.57713 0.0
C2354 C 0.97388 0.22318 0.5524 0.0
C2355 C 1.00152 0.24185 0.55218 0.0
C2356 C 0.02383 0.23618 0.57617 0.0
C2357 C 0.01907 0.21257 0.59976 0.0
C2358 C 0.0462 0.21211 0.62345 0.0
C2359 C 0.03688 0.20919 0.65984 0.0
C2360 C 0.06602 0.18366 0.6137 0.0
C2361 C 0.06252 0.24433 0.6151 0.0
C2362 C 0.052 0.25512 0.58501 0.0
C2363 C 0.06723 0.28088 0.56916 0.0
C2364 C 0.09203 0.29776 0.58594 0.0
C2365 C 0.09941 0.29112 0.6194 0.0
C2366 C 0.08527 0.26265 0.63318 0.0
H2367 H 0.44783 0.76305 0.08383 0.0
H2368 H 0.47144 0.76926 0.18966 0.0
H2369 H 0.51422 0.80582 0.17909 0.0
H2370 H 0.52248 0.77333 0.04277 0.0
H2371 H 0.50619 0.80109 0.01534 0.0
H2372 H 0.48219 0.77058 0.03444 0.0
H2373 H 0.45253 0.82419 0.05077 0.0
H2374 H 0.48299 0.8509 0.03684 0.0
H2375 H 0.4709 0.85389 0.07929 0.0
H2376 H 0.55517 0.84198 0.15967 0.0
H2377 H 0.59485 0.87271 0.12975 0.0
H2378 H 0.54765 0.84678 0.03607 0.0
C2379 C 0.46233 0.77167 0.10458 0.0
C2380 C 0.45668 0.76092 0.13746 0.0
C2381 C 0.47568 0.77462 0.16391 0.0
C2382 C 0.50002 0.7964 0.15841 0.0
C2383 C 0.50541 0.8058 0.12621 0.0
C2384 C 0.48716 0.79437 0.09953 0.0
C2385 C 0.49765 0.81136 0.06801 0.0
C2386 C 0.50233 0.78754 0.03858 0.0
C2387 C 0.47465 0.83657 0.05816 0.0
C2388 C 0.52732 0.82874 0.08062 0.0
C2389 C 0.52991 0.82709 0.1147 0.0
C2390 C 0.5539 0.8429 0.13278 0.0
C2391 C 0.57664 0.86002 0.11555 0.0
C2392 C 0.57543 0.86145 0.08043 0.0
C2393 C 0.55012 0.8455 0.06287 0.0
H2394 H 0.66497 0.43494 0.72329 0.0
H2395 H 0.58801 0.43457 0.78799 0.0
H2396 H 0.56715 0.48036 0.75698 0.0
H2397 H 0.68009 0.51319 0.71693 0.0
H2398 H 0.68623 0.51755 0.67309 0.0
H2399 H 0.69292 0.47958 0.6927 0.0
H2400 H 0.65626 0.44588 0.65474 0.0
H2401 H 0.65108 0.48195 0.63108 0.0
H2402 H 0.61869 0.4594 0.64677 0.0
H2403 H 0.55722 0.52979 0.72132 0.0
H2404 H 0.55817 0.5762 0.68282 0.0
H2405 H 0.64318 0.54537 0.64413 0.0
C2406 C 0.6435 0.44428 0.7305 0.0
C2407 C 0.62831 0.43206 0.75844 0.0
C2408 C 0.60019 0.44439 0.76711 0.0
C2409 C 0.58815 0.47015 0.7495 0.0
C2410 C 0.60458 0.48317 0.72326 0.0
C2411 C 0.63136 0.47012 0.71334 0.0
C2412 C 0.64494 0.4888 0.68477 0.0
C2413 C 0.67796 0.50055 0.69232 0.0
C2414 C 0.64259 0.46776 0.65243 0.0
C2415 C 0.62372 0.5167 0.68304 0.0
C2416 C 0.59962 0.51209 0.70401 0.0
C2417 C 0.57608 0.5337 0.70492 0.0
C2418 C 0.57713 0.56048 0.68364 0.0
C2419 C 0.60149 0.56534 0.66178 0.0
C2420 C 0.62509 0.54321 0.66186 0.0
H2421 H 0.8132 0.4421 0.01488 0.0
H2422 H 0.84254 0.34582 0.03886 0.0
H2423 H 0.81062 0.32198 0.99283 0.0
H2424 H 0.74576 0.43489 0.98785 0.0
H2425 H 0.74345 0.4511 0.9467 0.0
H2426 H 0.77227 0.46622 0.97627 0.0
H2427 H 0.81724 0.45404 0.94319 0.0
H2428 H 0.79151 0.44444 0.9085 0.0
H2429 H 0.81917 0.41584 0.92043 0.0
H2430 H 0.77341 0.30807 0.94914 0.0
H2431 H 0.73573 0.30261 0.9046 0.0
H2432 H 0.73488 0.40841 0.89863 0.0
C2433 C 0.8131 0.41599 1.01045 0.0
C2434 C 0.82919 0.39559 0.03222 0.0
C2435 C 0.82914 0.36179 0.02428 0.0
C2436 C 0.8116 0.34808 0.99756 0.0
C2437 C 0.79578 0.36871 0.97727 0.0
C2438 C 0.7975 0.40206 0.98213 0.0
C2439 C 0.78056 0.41831 0.95388 0.0
C2440 C 0.75914 0.44397 0.96688 0.0
C2441 C 0.80347 0.43407 0.93009 0.0
C2442 C 0.76425 0.38858 0.93651 0.0
C2443 C 0.77496 0.36048 0.94978 0.0
C2444 C 0.76485 0.32974 0.93834 0.0
C2445 C 0.7432 0.32711 0.91266 0.0
C2446 C 0.73169 0.35507 0.89747 0.0
C2447 C 0.74271 0.38649 0.90962 0.0
H2448 H 0.82762 0.57311 0.3337 0.0
H2449 H 0.92993 0.62458 0.31268 0.0
H2450 H 0.95325 0.57305 0.27627 0.0
H2451 H 0.84356 0.47085 0.33675 0.0
H2452 H 0.81116 0.45381 0.31382 0.0
H2453 H 0.80958 0.49251 0.33618 0.0
H2454 H 0.79138 0.52023 0.28653 0.0
H2455 H 0.79015 0.48111 0.2646 0.0
H2456 H 0.80879 0.51586 0.24696 0.0
H2457 H 0.94959 0.50349 0.21924 0.0
H2458 H 0.9352 0.46394 0.17319 0.0
H2459 H 0.82411 0.43488 0.232 0.0
C2460 C 0.84996 0.56966 0.32413 0.0
C2461 C 0.87832 0.60272 0.32774 0.0
C2462 C 0.91587 0.6023 0.3101 0.0
C2463 C 0.93078 0.56993 0.28617 0.0
C2464 C 0.90921 0.5338 0.27656 0.0
C2465 C 0.85667 0.53287 0.30116 0.0
C2466 C 0.8339 0.49487 0.28913 0.0
C2467 C 0.82407 0.47696 0.32076 0.0
C2468 C 0.80445 0.50356 0.2707 0.0
C2469 C 0.85657 0.46788 0.26186 0.0
C2470 C 0.90989 0.49563 0.25258 0.0
C2471 C 0.92869 0.48907 0.22172 0.0
C2472 C 0.91868 0.46549 0.19273 0.0
C2473 C 0.88704 0.44548 0.18776 0.0
C2474 C 0.84752 0.445 0.23131 0.0
H2475 H 0.77414 0.70919 0.45228 0.0
H2476 H 0.80314 0.61079 0.43677 0.0
H2477 H 0.76574 0.59096 0.47718 0.0
H2478 H 0.75507 0.70819 0.54011 0.0
H2479 H 0.72034 0.7287 0.53488 0.0
H2480 H 0.75102 0.73619 0.50677 0.0
H2481 H 0.71499 0.72019 0.45669 0.0
H2482 H 0.68443 0.71279 0.48492 0.0
H2483 H 0.69451 0.68113 0.4558 0.0
H2484 H 0.7304 0.58256 0.52333 0.0
H2485 H 0.68674 0.58092 0.55934 0.0
H2486 H 0.67218 0.68262 0.53989 0.0
C2487 C 0.77314 0.68365 0.45842 0.0
C2488 C 0.79289 0.66165 0.44327 0.0
C2489 C 0.78939 0.62811 0.44957 0.0
C2490 C 0.76823 0.61669 0.47251 0.0
C2491 C 0.75035 0.63907 0.48862 0.0
C2492 C 0.75157 0.67165 0.48102 0.0
C2493 C 0.72621 0.68917 0.49829 0.0
C2494 C 0.73895 0.71721 0.52137 0.0
C2495 C 0.7037 0.70155 0.47238 0.0
C2496 C 0.7117 0.6616 0.51812 0.0
C2497 C 0.72661 0.63323 0.51231 0.0
C2498 C 0.71836 0.60444 0.52768 0.0
C2499 C 0.6934 0.60389 0.5483 0.0
C2500 C 0.67552 0.63147 0.55228 0.0
C2501 C 0.68546 0.66121 0.53783 0.0
H2502 H 0.66297 0.46011 0.85969 0.0
H2503 H 0.56566 0.46777 0.85204 0.0
H2504 H 0.57248 0.51405 0.81471 0.0
H2505 H 0.67972 0.55166 0.85266 0.0
H2506 H 0.71361 0.54614 0.82943 0.0
H2507 H 0.70202 0.51682 0.85987 0.0
H2508 H 0.70249 0.47032 0.81481 0.0
H2509 H 0.68137 0.4743 0.77645 0.0
H2510 H 0.71469 0.49999 0.78506 0.0
H2511 H 0.58864 0.55595 0.77497 0.0
H2512 H 0.61371 0.59279 0.73528 0.0
H2513 H 0.70077 0.55793 0.76447 0.0
C2514 C 0.64326 0.4718 0.8502 0.0
C2515 C 0.61368 0.46002 0.85813 0.0
C2516 C 0.58841 0.47619 0.84586 0.0
C2517 C 0.59208 0.50258 0.82476 0.0
C2518 C 0.62123 0.51237 0.81558 0.0
C2519 C 0.64654 0.49794 0.82812 0.0
C2520 C 0.67517 0.51341 0.81336 0.0
C2521 C 0.69373 0.53318 0.84044 0.0
C2522 C 0.69453 0.48794 0.79644 0.0
C2523 C 0.66158 0.53597 0.78815 0.0
C2524 C 0.63053 0.53576 0.79093 0.0
C2525 C 0.61287 0.55568 0.77185 0.0
C2526 C 0.62716 0.57593 0.74875 0.0
C2527 C 0.65877 0.576 0.74442 0.0
C2528 C 0.67629 0.55646 0.76528 0.0
H2529 H 0.75386 0.28541 0.06037 0.0
H2530 H 0.77811 0.38828 0.07342 0.0
H2531 H 0.74063 0.40054 0.02969 0.0
H2532 H 0.7331 0.27711 0.97288 0.0
H2533 H 0.69868 0.25322 0.97915 0.0
H2534 H 0.7299 0.25167 1.00856 0.0
H2535 H 0.69457 0.2678 0.05644 0.0
H2536 H 0.66352 0.26907 0.02684 0.0
H2537 H 0.67365 0.30425 0.05327 0.0
H2538 H 0.70687 0.40059 0.97789 0.0
H2539 H 0.66286 0.39364 0.94046 0.0
H2540 H 0.64974 0.29325 0.97018 0.0
C2541 C 0.7521 0.31035 0.05273 0.0
C2542 C 0.77094 0.33582 0.06772 0.0
C2543 C 0.7657 0.3684 0.06013 0.0
C2544 C 0.74454 0.37553 0.03522 0.0
C2545 C 0.72807 0.34983 0.01883 0.0
C2546 C 0.73016 0.31805 0.02864 0.0
C2547 C 0.70481 0.29627 0.01233 0.0
C2548 C 0.71741 0.26791 0.99204 0.0
C2549 C 0.68283 0.28361 0.03879 0.0
C2550 C 0.68979 0.32034 0.98986 0.0
C2551 C 0.70428 0.35082 0.99354 0.0
C2552 C 0.69549 0.37694 0.97497 0.0
C2553 C 0.67048 0.37252 0.95325 0.0
C2554 C 0.65283 0.34284 0.95204 0.0
C2555 C 0.66311 0.31603 0.97 0.0
H2556 H 0.91018 0.49886 0.3507 0.0
H2557 H 0.87652 0.60076 0.26964 0.0
H2558 H 0.85999 0.56659 0.22266 0.0
H2559 H 0.94991 0.46845 0.28709 0.0
H2560 H 0.94476 0.42509 0.28943 0.0
H2561 H 0.93902 0.45109 0.32554 0.0
H2562 H 0.88699 0.42817 0.3347 0.0
H2563 H 0.89502 0.39872 0.30224 0.0
H2564 H 0.86077 0.41989 0.30057 0.0
H2565 H 0.8288 0.49353 0.17323 0.0
H2566 H 0.81664 0.42702 0.15741 0.0
H2567 H 0.88879 0.38199 0.23829 0.0
C2568 C 0.89961 0.51134 0.33054 0.0
C2569 C 0.89898 0.55042 0.32859 0.0
C2570 C 0.87871 0.57517 0.27635 0.0
C2571 C 0.86614 0.55508 0.24557 0.0
C2572 C 0.86632 0.51836 0.24767 0.0
C2573 C 0.88735 0.49016 0.30045 0.0
C2574 C 0.9019 0.44985 0.28812 0.0
C2575 C 0.93582 0.44864 0.29804 0.0
C2576 C 0.88514 0.42266 0.30747 0.0
C2577 C 0.8964 0.44199 0.24257 0.0
C2578 C 0.87159 0.48976 0.21417 0.0
C2579 C 0.84336 0.47596 0.18392 0.0
C2580 C 0.83474 0.4333 0.17531 0.0
C2581 C 0.85314 0.40004 0.19445 0.0
C2582 C 0.88194 0.40377 0.22623 0.0
H2583 H 0.84348 0.54943 0.49517 0.0
H2584 H 0.86599 0.65101 0.47521 0.0
H2585 H 0.83104 0.66776 0.51884 0.0
H2586 H 0.76926 0.54935 0.51392 0.0
H2587 H 0.76869 0.52658 0.55156 0.0
H2588 H 0.79711 0.51993 0.52094 0.0
H2589 H 0.84091 0.53217 0.56175 0.0
H2590 H 0.81385 0.53602 0.59448 0.0
H2591 H 0.84182 0.56849 0.58803 0.0
H2592 H 0.79157 0.67376 0.56188 0.0
H2593 H 0.7525 0.66946 0.60473 0.0
H2594 H 0.75859 0.56436 0.60318 0.0
C2595 C 0.841 0.57524 0.49972 0.0
C2596 C 0.85682 0.59887 0.48028 0.0
C2597 C 0.85342 0.63232 0.48835 0.0
C2598 C 0.83396 0.64212 0.51367 0.0
C2599 C 0.81853 0.61827 0.5318 0.0
C2600 C 0.82241 0.58551 0.52585 0.0
C2601 C 0.80464 0.56512 0.55083 0.0
C2602 C 0.78364 0.53878 0.53329 0.0
C2603 C 0.8266 0.54953 0.57521 0.0
C2604 C 0.7872 0.59132 0.56887 0.0
C2605 C 0.79641 0.62184 0.55795 0.0
C2606 C 0.78416 0.65009 0.57064 0.0
C2607 C 0.76192 0.64736 0.59497 0.0
C2608 C 0.75216 0.61666 0.60711 0.0
C2609 C 0.76526 0.58816 0.59408 0.0
H2610 H 0.50723 0.69076 0.67241 0.0
H2611 H 0.53759 0.72288 0.5762 0.0
H2612 H 0.49592 0.76064 0.57353 0.0
H2613 H 0.42549 0.69859 0.65187 0.0
H2614 H 0.41586 0.71244 0.6931 0.0
H2615 H 0.44659 0.68559 0.68757 0.0
H2616 H 0.48197 0.72655 0.72019 0.0
H2617 H 0.45173 0.75364 0.72557 0.0
H2618 H 0.48608 0.76822 0.7068 0.0
H2619 H 0.44809 0.79101 0.57841 0.0
H2620 H 0.40732 0.824 0.59694 0.0
H2621 H 0.41386 0.78336 0.69516 0.0
C2622 C 0.50536 0.70627 0.65119 0.0
C2623 C 0.52597 0.70413 0.62455 0.0
C2624 C 0.52237 0.72435 0.59694 0.0
C2625 C 0.49851 0.74561 0.59503 0.0
C2626 C 0.47841 0.74702 0.62125 0.0
C2627 C 0.48198 0.72872 0.64937 0.0
C2628 C 0.45723 0.73617 0.67419 0.0
C2629 C 0.43498 0.70643 0.67683 0.0
C2630 C 0.47015 0.74681 0.70871 0.0
C2631 C 0.44175 0.76384 0.65709 0.0
C2632 C 0.45271 0.76756 0.62552 0.0
C2633 C 0.43979 0.78873 0.60345 0.0
C2634 C 0.41604 0.80766 0.61441 0.0
C2635 C 0.40617 0.80733 0.64787 0.0
C2636 C 0.41963 0.7846 0.66931 0.0
H2637 H 0.35521 0.63369 0.23401 0.0
H2638 H 0.44455 0.61546 0.19799 0.0
H2639 H 0.44568 0.56597 0.23071 0.0
H2640 H 0.37186 0.61211 0.31665 0.0
H2641 H 0.33488 0.59402 0.32463 0.0
H2642 H 0.33904 0.62559 0.29457 0.0
H2643 H 0.31213 0.58749 0.24992 0.0
H2644 H 0.30817 0.5553 0.27942 0.0
H2645 H 0.32674 0.54819 0.24058 0.0
H2646 H 0.44056 0.52312 0.27358 0.0
H2647 H 0.42706 0.4853 0.31784 0.0
H2648 H 0.34156 0.53137 0.32967 0.0
C2649 C 0.37453 0.61854 0.23208 0.0
C2650 C 0.39928 0.62791 0.21184 0.0
C2651 C 0.4247 0.6083 0.21143 0.0
C2652 C 0.42572 0.58023 0.23062 0.0
C2653 C 0.40132 0.57219 0.2508 0.0
C2654 C 0.37601 0.59056 0.25149 0.0
C2655 C 0.35391 0.57789 0.27733 0.0
C2656 C 0.34968 0.60395 0.30491 0.0
C2657 C 0.32343 0.56653 0.26083 0.0
C2658 C 0.37061 0.54925 0.29071 0.0
C2659 C 0.39808 0.54682 0.27529 0.0
C2660 C 0.41868 0.52413 0.28504 0.0
C2661 C 0.41056 0.50236 0.31004 0.0
C2662 C 0.38242 0.50387 0.32623 0.0
C2663 C 0.36248 0.52824 0.31667 0.0
H2664 H 0.29179 0.73435 0.05978 0.0
H2665 H 0.31037 0.64553 0.11146 0.0
H2666 H 0.26085 0.62206 0.09449 0.0
H2667 H 0.2045 0.72331 0.07604 0.0
H2668 H 0.19358 0.73957 0.03663 0.0
H2669 H 0.22797 0.75487 0.05783 0.0
H2670 H 0.25981 0.74068 1.00591 0.0
H2671 H 0.22411 0.72886 0.98548 0.0
H2672 H 0.25374 0.70095 0.98635 0.0
H2673 H 0.21395 0.60468 0.07066 0.0
H2674 H 0.17289 0.58868 0.03317 0.0
H2675 H 0.17985 0.68349 0.98669 0.0
C2676 C 0.28519 0.71 0.06739 0.0
C2677 C 0.30574 0.69147 0.08641 0.0
C2678 C 0.29592 0.65996 0.0962 0.0
C2679 C 0.26747 0.6464 0.08695 0.0
C2680 C 0.24852 0.66408 0.06711 0.0
C2681 C 0.25643 0.69515 0.0571 0.0
C2682 C 0.23104 0.70665 0.03378 0.0
C2683 C 0.21322 0.73264 0.05216 0.0
C2684 C 0.24298 0.72006 1.001 0.0
C2685 C 0.21103 0.67509 0.02834 0.0
C2686 C 0.22073 0.65238 0.0504 0.0
C2687 C 0.20637 0.62197 0.05283 0.0
C2688 C 0.18262 0.61317 0.03088 0.0
C2689 C 0.17283 0.63413 1.00553 0.0
C2690 C 0.18674 0.6664 1.00509 0.0
H2691 H 0.09337 0.5207 0.867 0.0
H2692 H 0.18606 0.56092 0.86305 0.0
H2693 H 0.19741 0.53096 0.81109 0.0
H2694 H 0.09676 0.44921 0.8549 0.0
H2695 H 0.08437 0.41858 0.82367 0.0
H2696 H 0.06042 0.44841 0.84164 0.0
H2697 H 0.04252 0.47993 0.79612 0.0
H2698 H 0.04904 0.43884 0.78496 0.0
H2699 H 0.05969 0.4654 0.75709 0.0
H2700 H 0.19724 0.48365 0.74717 0.0
H2701 H 0.18877 0.43657 0.70899 0.0
H2702 H 0.09963 0.40968 0.74651 0.0
C2703 C 0.11446 0.52293 0.85391 0.0
C2704 C 0.13935 0.54341 0.86675 0.0
C2705 C 0.16805 0.54572 0.85111 0.0
C2706 C 0.1749 0.52903 0.82112 0.0
C2707 C 0.15222 0.50998 0.80478 0.0
C2708 C 0.11712 0.50589 0.82379 0.0
C2709 C 0.09211 0.46829 0.80133 0.0
C2710 C 0.08338 0.4447 0.83154 0.0
C2711 C 0.05932 0.4642 0.78434 0.0
C2712 C 0.11965 0.45514 0.76569 0.0
C2713 C 0.15301 0.47904 0.76764 0.0
C2714 C 0.17568 0.47004 0.74669 0.0
C2715 C 0.17026 0.44255 0.72494 0.0
C2716 C 0.14353 0.4211 0.72439 0.0
C2717 C 0.119 0.42676 0.74575 0.0
H2718 H 0.2326 0.40972 0.57661 0.0
H2719 H 0.24989 0.3071 0.58187 0.0
H2720 H 0.29081 0.31425 0.54086 0.0
H2721 H 0.25227 0.43565 0.48914 0.0
H2722 H 0.26717 0.47001 0.5125 0.0
H2723 H 0.23707 0.44533 0.52967 0.0
H2724 H 0.28498 0.4525 0.57776 0.0
H2725 H 0.31238 0.46454 0.54721 0.0
H2726 H 0.31722 0.42822 0.57037 0.0
H2727 H 0.32924 0.33311 0.49575 0.0
H2728 H 0.35806 0.36146 0.45148 0.0
H2729 H 0.31272 0.45013 0.47623 0.0
C2730 C 0.24459 0.38858 0.56869 0.0
C2731 C 0.23692 0.35736 0.58129 0.0
C2732 C 0.2545 0.33091 0.57168 0.0
C2733 C 0.27802 0.33485 0.54863 0.0
C2734 C 0.28439 0.36566 0.53593 0.0
C2735 C 0.26839 0.39225 0.5461 0.0
C2736 C 0.28161 0.4233 0.53119 0.0
C2737 C 0.25795 0.44453 0.51485 0.0
C2738 C 0.30014 0.4433 0.55824 0.0
C2739 C 0.30259 0.4089 0.50591 0.0
C2740 C 0.30608 0.3762 0.51078 0.0
C2741 C 0.32618 0.35867 0.49152 0.0
C2742 C 0.342 0.37475 0.46584 0.0
C2743 C 0.33663 0.40763 0.45862 0.0
C2744 C 0.31671 0.42461 0.47954 0.0
H2745 H 0.3167 0.39852 0.30457 0.0
H2746 H 0.41314 0.38799 0.31809 0.0
H2747 H 0.42346 0.43008 0.27706 0.0
H2748 H 0.32091 0.40739 0.21543 0.0
H2749 H 0.29236 0.43706 0.21156 0.0
H2750 H 0.29029 0.40826 0.24443 0.0
H2751 H 0.28912 0.45337 0.28886 0.0
H2752 H 0.29034 0.48365 0.25715 0.0
H2753 H 0.31809 0.48562 0.29062 0.0
H2754 H 0.42426 0.47197 0.23358 0.0
H2755 H 0.41542 0.51147 0.18978 0.0
H2756 H 0.31861 0.49316 0.1979 0.0
C2757 C 0.33996 0.40565 0.29935 0.0
C2758 C 0.36426 0.39128 0.31654 0.0
C2759 C 0.39426 0.40025 0.30759 0.0
C2760 C 0.40033 0.4237 0.28354 0.0
C2761 C 0.37617 0.43801 0.2678 0.0
C2762 C 0.3465 0.42926 0.27498 0.0
C2763 C 0.32498 0.44754 0.25266 0.0
C2764 C 0.30606 0.42361 0.22963 0.0
C2765 C 0.30442 0.46882 0.27356 0.0
C2766 C 0.34727 0.46845 0.23273 0.0
C2767 C 0.37664 0.46223 0.24191 0.0
C2768 C 0.40134 0.47751 0.22666 0.0
C2769 C 0.3961 0.50037 0.20209 0.0
C2770 C 0.36636 0.50676 0.19134 0.0
C2771 C 0.34158 0.49008 0.20665 0.0
H2772 H 0.33878 0.6199 0.03376 0.0
H2773 H 0.27571 0.54857 0.07529 0.0
H2774 H 0.23868 0.55804 0.03037 0.0
H2775 H 0.29388 0.67762 0.01065 0.0
H2776 H 0.3057 0.68619 0.96902 0.0
H2777 H 0.33157 0.67005 0.99885 0.0
H2778 H 0.34193 0.62104 0.96275 0.0
H2779 H 0.31836 0.63666 0.93023 0.0
H2780 H 0.31121 0.59582 0.94445 0.0
H2781 H 0.2112 0.56979 0.97533 0.0
H2782 H 0.18546 0.59982 0.93103 0.0
H2783 H 0.25987 0.67215 0.93369 0.0
C2784 C 0.31682 0.60707 0.03397 0.0
C2785 C 0.31005 0.58395 0.05876 0.0
C2786 C 0.2814 0.56672 0.05707 0.0
C2787 C 0.26039 0.57141 0.03119 0.0
C2788 C 0.26801 0.59354 1.00674 0.0
C2789 C 0.29528 0.61157 1.00813 0.0
C2790 C 0.29698 0.63445 0.9789 0.0
C2791 C 0.30759 0.66921 0.98994 0.0
C2792 C 0.31838 0.6212 0.95254 0.0
C2793 C 0.26425 0.63115 0.9656 0.0
C2794 C 0.24949 0.60453 0.97917 0.0
C2795 C 0.22163 0.59208 0.96616 0.0
C2796 C 0.2069 0.60951 0.94134 0.0
C2797 C 0.21857 0.64046 0.93199 0.0
C2798 C 0.2488 0.65011 0.94256 0.0
H2799 H 0.08403 0.46458 0.7112 0.0
H2800 H 0.14535 0.49939 0.63689 0.0
H2801 H 0.16223 0.54557 0.67372 0.0
H2802 H 0.07496 0.55035 0.76173 0.0
H2803 H 0.06928 0.52679 0.79629 0.0
H2804 H 0.06104 0.5144 0.7521 0.0
H2805 H 0.1344 0.43116 0.81505 0.0
H2806 H 0.14161 0.46259 0.84533 0.0
H2807 H 0.16576 0.45472 0.81662 0.0
H2808 H 0.17353 0.58753 0.71456 0.0
H2809 H 0.17757 0.6271 0.76156 0.0
H2810 H 0.11023 0.5704 0.81349 0.0
C2811 C 0.10155 0.48197 0.70413 0.0
C2812 C 0.11396 0.47826 0.67191 0.0
C2813 C 0.1359 0.50147 0.66152 0.0
C2814 C 0.14585 0.52753 0.68249 0.0
C2815 C 0.1353 0.52918 0.71494 0.0
C2816 C 0.11451 0.50616 0.72739 0.0
C2817 C 0.11134 0.51038 0.76787 0.0
C2818 C 0.07785 0.52504 0.77054 0.0
C2819 C 0.14053 0.4581 0.81752 0.0
C2820 C 0.12692 0.54752 0.76781 0.0
C2821 C 0.14298 0.55413 0.73974 0.0
C2822 C 0.16095 0.58277 0.73687 0.0
C2823 C 0.16279 0.60547 0.76363 0.0
C2824 C 0.1449 0.60105 0.79212 0.0
C2825 C 0.12543 0.5729 0.79299 0.0
H2826 H 0.16207 0.30909 0.53307 0.0
H2827 H 0.17325 0.41372 0.52269 0.0
H2828 H 0.21219 0.40523 0.48137 0.0
H2829 H 0.24262 0.2817 0.52807 0.0
H2830 H 0.22893 0.24846 0.50187 0.0
H2831 H 0.20391 0.26649 0.53124 0.0
H2832 H 0.16934 0.26906 0.47623 0.0
H2833 H 0.1997 0.25748 0.44967 0.0
H2834 H 0.1819 0.29544 0.4436 0.0
H2835 H 0.25464 0.3888 0.44662 0.0
H2836 H 0.29526 0.36328 0.41645 0.0
H2837 H 0.26584 0.26887 0.45361 0.0
C2838 C 0.17439 0.33031 0.52392 0.0
C2839 C 0.16542 0.36242 0.53271 0.0
C2840 C 0.18059 0.38923 0.51803 0.0
C2841 C 0.20331 0.38478 0.49483 0.0
C2842 C 0.213 0.35359 0.48821 0.0
C2843 C 0.1992 0.3265 0.50217 0.0
C2844 C 0.21273 0.29563 0.48723 0.0
C2845 C 0.22256 0.27183 0.51378 0.0
C2846 C 0.18954 0.27839 0.46275 0.0
C2847 C 0.2396 0.31027 0.46802 0.0
C2848 C 0.23744 0.34363 0.46691 0.0
C2849 C 0.25712 0.3628 0.44816 0.0
C2850 C 0.28062 0.34799 0.4314 0.0
C2851 C 0.28576 0.31433 0.43447 0.0
C2852 C 0.26396 0.29498 0.45218 0.0
H2853 H 0.49979 0.38109 0.43238 0.0
H2854 H 0.43025 0.33587 0.3664 0.0
H2855 H 0.45992 0.28724 0.35983 0.0
H2856 H 0.55917 0.35116 0.37927 0.0
H2857 H 0.58587 0.34733 0.41324 0.0
H2858 H 0.55766 0.37746 0.41583 0.0
H2859 H 0.53952 0.35347 0.47122 0.0
H2860 H 0.56768 0.32328 0.46842 0.0
H2861 H 0.52853 0.31083 0.47292 0.0
H2862 H 0.49708 0.24279 0.36002 0.0
H2863 H 0.54306 0.21063 0.35871 0.0
H2864 H 0.5906 0.28556 0.42078 0.0
C2865 C 0.49049 0.36051 0.41743 0.0
C2866 C 0.46185 0.36181 0.40118 0.0
C2867 C 0.45143 0.33516 0.3801 0.0
C2868 C 0.46832 0.30739 0.37593 0.0
C2869 C 0.49623 0.30662 0.39239 0.0
C2870 C 0.50765 0.33275 0.41213 0.0
C2871 C 0.54012 0.32732 0.42298 0.0
C2872 C 0.56198 0.3523 0.40687 0.0
C2873 C 0.54413 0.32877 0.46112 0.0
C2874 C 0.54404 0.29317 0.40848 0.0
C2875 C 0.51854 0.28175 0.39072 0.0
C2876 C 0.51733 0.2515 0.37371 0.0
C2877 C 0.54343 0.23313 0.37347 0.0
C2878 C 0.57048 0.24528 0.38977 0.0
C2879 C 0.57022 0.27524 0.40839 0.0
loop_
_geom_bond_atom_site_label_1
_geom_bond_atom_site_label_2
_geom_bond_distance
_geom_bond_site_symmetry_2
_ccdc_geom_bond_type
Mn0 O5 2.095 . S
Mn0 O15 2.162 . S
Mn0 O16 2.297 . S
Mn0 O24 2.385 . S
Mn0 O25 2.209 . S
Mn0 O26 2.094 . S
Mn1 O6 2.121 . S
Mn1 N8 2.257 1_545 S
Mn1 N17 2.282 . S
Mn1 O25 2.215 . S
Mn1 O27 2.117 . S
C2 O24 1.234 . S
C2 O25 1.283 . S
C3 O15 1.281 . S
C3 O16 1.236 . S
C4 O26 1.240 . S
C4 O27 1.264 . S
O5 Mn0 2.095 . S
O5 C14 1.250 . S
O6 Mn1 2.121 . S
O6 C14 1.258 . S
C7 N8 1.326 . S
C7 C11 1.460 . S
C7 H13 0.929 . S
N8 Mn1 2.257 1_565 S
N8 C7 1.326 . S
N8 C12 1.362 . S
C9 C10 1.258 . S
C9 C12 1.431 . S
C9 C29 1.449 . S
C10 C9 1.258 . S
C10 C11 1.477 . S
C10 H30 0.931 . S
C11 C7 1.460 . S
C11 C10 1.477 . S
C11 H31 0.930 . S
C12 N8 1.362 . S
C12 C9 1.431 . S
C12 C22 1.476 . S
H13 C7 0.929 . S
C14 O5 1.250 . S
C14 O6 1.258 . S
O15 Mn0 2.162 . S
O15 C3 1.281 . S
O16 Mn0 2.297 . S
O16 C3 1.236 . S
N17 Mn1 2.282 . S
N17 C18 1.328 1_554 S
N17 C22 1.318 1_545 S
C18 N17 1.328 1_556 S
C18 C19 1.457 . S
C18 H23 0.929 . S
C19 C18 1.457 . S
C19 C20 1.291 1_545 S
C19 H32 0.931 . S
C20 C19 1.291 1_565 S
C20 C21 1.373 . S
C20 H33 0.929 . S
C21 C20 1.373 . S
C21 C22 1.396 1_556 S
C21 C28 1.403 . S
C22 C12 1.476 . S
C22 N17 1.318 1_565 S
C22 C21 1.396 1_554 S
H23 C18 0.929 . S
O24 Mn0 2.385 . S
O24 C2 1.234 . S
O25 Mn0 2.209 . S
O25 Mn1 2.215 . S
O25 C2 1.283 . S
O26 Mn0 2.094 . S
O26 C4 1.240 . S
O27 Mn1 2.117 . S
O27 C4 1.264 . S
C28 C21 1.403 . S
C28 C29 1.399 1_556 S
C28 H34 0.929 . S
C29 C9 1.449 . S
C29 C28 1.399 1_554 S
C29 H35 0.930 . S
H30 C10 0.931 . S
H31 C11 0.930 . S
H32 C19 0.931 . S
H33 C20 0.929 . S
H34 C28 0.929 . S
H35 C29 0.930 . S
Mn36 O41 2.095 . S
Mn36 O51 2.162 . S
Mn36 O52 2.297 . S
Mn36 O60 2.385 . S
Mn36 O61 2.209 . S
Mn36 O62 2.094 . S
Mn37 O42 2.121 . S
Mn37 N44 2.257 . S
Mn37 N53 2.282 . S
Mn37 O61 2.215 . S
Mn37 O63 2.117 . S
C38 O60 1.234 . S
C38 O61 1.283 . S
C39 O51 1.281 . S
C39 O52 1.236 . S
C40 O62 1.240 . S
C40 O63 1.264 . S
O41 Mn36 2.095 . S
O41 C50 1.250 . S
O42 Mn37 2.121 . S
O42 C50 1.258 . S
C43 N44 1.326 . S
C43 C47 1.460 . S
C43 H49 0.929 . S
N44 Mn37 2.257 . S
N44 C43 1.326 . S
N44 C48 1.362 . S
C45 C46 1.258 . S
C45 C48 1.431 . S
C45 C65 1.449 . S
C46 C45 1.258 . S
C46 C47 1.477 . S
C46 H66 0.931 . S
C47 C43 1.460 . S
C47 C46 1.477 . S
C47 H67 0.930 . S
C48 N44 1.362 . S
C48 C45 1.431 . S
C48 C58 1.476 . S
H49 C43 0.929 . S
C50 O41 1.250 . S
C50 O42 1.258 . S
O51 Mn36 2.162 . S
O51 C39 1.281 . S
O52 Mn36 2.297 . S
O52 C39 1.236 . S
N53 Mn37 2.282 . S
N53 C54 1.328 . S
N53 C58 1.318 . S
C54 N53 1.328 . S
C54 C55 1.457 . S
C54 H59 0.929 . S
C55 C54 1.457 . S
C55 C56 1.291 . S
C55 H68 0.931 . S
C56 C55 1.291 . S
C56 C57 1.373 . S
C56 H69 0.929 . S
C57 C56 1.373 . S
C57 C58 1.396 . S
C57 C64 1.403 . S
C58 C48 1.476 . S
C58 N53 1.318 . S
C58 C57 1.396 . S
H59 C54 0.929 . S
O60 Mn36 2.385 . S
O60 C38 1.234 . S
O61 Mn36 2.209 . S
O61 Mn37 2.215 . S
O61 C38 1.283 . S
O62 Mn36 2.094 . S
O62 C40 1.240 . S
O63 Mn37 2.117 . S
O63 C40 1.264 . S
C64 C57 1.403 . S
C64 C65 1.399 . S
C64 H70 0.929 . S
C65 C45 1.449 . S
C65 C64 1.399 . S
C65 H71 0.930 . S
H66 C46 0.931 . S
H67 C47 0.930 . S
H68 C55 0.931 . S
H69 C56 0.929 . S
H70 C64 0.929 . S
H71 C65 0.930 . S
Mn72 O77 2.095 . S
Mn72 O87 2.162 . S
Mn72 O88 2.297 . S
Mn72 O96 2.385 . S
Mn72 O97 2.209 . S
Mn72 O98 2.094 . S
Mn73 O78 2.121 . S
Mn73 N80 2.257 . S
Mn73 N89 2.282 . S
Mn73 O97 2.215 . S
Mn73 O99 2.117 . S
C74 O96 1.234 . S
C74 O97 1.283 . S
C75 O87 1.281 . S
C75 O88 1.236 . S
C76 O98 1.240 . S
C76 O99 1.264 . S
O77 Mn72 2.095 . S
O77 C86 1.250 . S
O78 Mn73 2.121 . S
O78 C86 1.258 . S
C79 N80 1.326 1_545 S
C79 C83 1.460 . S
C79 H85 0.929 1_545 S
N80 Mn73 2.257 . S
N80 C79 1.326 1_565 S
N80 C84 1.362 1_565 S
C81 C82 1.258 . S
C81 C84 1.431 . S
C81 C101 1.449 . S
C82 C81 1.258 . S
C82 C83 1.477 . S
C82 H102 0.931 . S
C83 C79 1.460 . S
C83 C82 1.477 . S
C83 H103 0.930 . S
C84 N80 1.362 1_545 S
C84 C81 1.431 . S
C84 C94 1.476 1_545 S
H85 C79 0.929 1_565 S
C86 O77 1.250 . S
C86 O78 1.258 . S
O87 Mn72 2.162 . S
O87 C75 1.281 . S
O88 Mn72 2.297 . S
O88 C75 1.236 . S
N89 Mn73 2.282 . S
N89 C90 1.328 . S
N89 C94 1.318 . S
C90 N89 1.328 . S
C90 C91 1.457 . S
C90 H95 0.929 . S
C91 C90 1.457 . S
C91 C92 1.291 . S
C91 H104 0.931 . S
C92 C91 1.291 . S
C92 C93 1.373 1_565 S
C92 H105 0.929 . S
C93 C92 1.373 1_545 S
C93 C94 1.396 1_545 S
C93 C100 1.403 . S
C94 C84 1.476 1_565 S
C94 N89 1.318 . S
C94 C93 1.396 1_565 S
H95 C90 0.929 . S
O96 Mn72 2.385 . S
O96 C74 1.234 . S
O97 Mn72 2.209 . S
O97 Mn73 2.215 . S
O97 C74 1.283 . S
O98 Mn72 2.094 . S
O98 C76 1.240 . S
O99 Mn73 2.117 . S
O99 C76 1.264 . S
C100 C93 1.403 . S
C100 C101 1.399 . S
C100 H106 0.929 . S
C101 C81 1.449 . S
C101 C100 1.399 . S
C101 H107 0.930 . S
H102 C82 0.931 . S
H103 C83 0.930 . S
H104 C91 0.931 . S
H105 C92 0.929 . S
H106 C100 0.929 . S
H107 C101 0.930 . S
Mn108 O113 2.095 . S
Mn108 O123 2.162 . S
Mn108 O124 2.297 . S
Mn108 O132 2.385 . S
Mn108 O133 2.209 . S
Mn108 O134 2.094 . S
Mn109 O114 2.121 . S
Mn109 N116 2.257 . S
Mn109 N125 2.282 . S
Mn109 O133 2.215 . S
Mn109 O135 2.117 . S
C110 O132 1.234 . S
C110 O133 1.283 . S
C111 O123 1.281 . S
C111 O124 1.236 . S
C112 O134 1.240 . S
C112 O135 1.264 . S
O113 Mn108 2.095 . S
O113 C122 1.250 . S
O114 Mn109 2.121 . S
O114 C122 1.258 . S
C115 N116 1.326 . S
C115 C119 1.460 . S
C115 H121 0.929 . S
N116 Mn109 2.257 . S
N116 C115 1.326 . S
N116 C120 1.362 . S
C117 C118 1.258 . S
C117 C120 1.431 . S
C117 C137 1.449 . S
C118 C117 1.258 . S
C118 C119 1.477 . S
C118 H138 0.931 . S
C119 C115 1.460 . S
C119 C118 1.477 . S
C119 H139 0.930 . S
C120 N116 1.362 . S
C120 C117 1.431 . S
C120 C130 1.476 . S
H121 C115 0.929 . S
C122 O113 1.250 . S
C122 O114 1.258 . S
O123 Mn108 2.162 . S
O123 C111 1.281 . S
O124 Mn108 2.297 . S
O124 C111 1.236 . S
N125 Mn109 2.282 . S
N125 C126 1.328 . S
N125 C130 1.318 . S
C126 N125 1.328 . S
C126 C127 1.457 . S
C126 H131 0.929 . S
C127 C126 1.457 . S
C127 C128 1.291 . S
C127 H140 0.931 . S
C128 C127 1.291 . S
C128 C129 1.373 . S
C128 H141 0.929 . S
C129 C128 1.373 . S
C129 C130 1.396 . S
C129 C136 1.403 . S
C130 C120 1.476 . S
C130 N125 1.318 . S
C130 C129 1.396 . S
H131 C126 0.929 . S
O132 Mn108 2.385 . S
O132 C110 1.234 . S
O133 Mn108 2.209 . S
O133 Mn109 2.215 . S
O133 C110 1.283 . S
O134 Mn108 2.094 . S
O134 C112 1.240 . S
O135 Mn109 2.117 . S
O135 C112 1.264 . S
C136 C129 1.403 . S
C136 C137 1.399 . S
C136 H142 0.929 . S
C137 C117 1.449 . S
C137 C136 1.399 . S
C137 H143 0.930 . S
H138 C118 0.931 . S
H139 C119 0.930 . S
H140 C127 0.931 . S
H141 C128 0.929 . S
H142 C136 0.929 . S
H143 C137 0.930 . S
Mn144 O149 2.095 . S
Mn144 O159 2.162 . S
Mn144 O160 2.297 . S
Mn144 O168 2.385 . S
Mn144 O169 2.209 . S
Mn144 O170 2.094 . S
Mn145 O150 2.121 . S
Mn145 N152 2.257 . S
Mn145 N161 2.282 . S
Mn145 O169 2.215 . S
Mn145 O171 2.117 . S
C146 O168 1.234 . S
C146 O169 1.283 . S
C147 O159 1.281 . S
C147 O160 1.236 . S
C148 O170 1.240 . S
C148 O171 1.264 . S
O149 Mn144 2.095 . S
O149 C158 1.250 . S
O150 Mn145 2.121 . S
O150 C158 1.258 . S
C151 N152 1.326 . S
C151 C155 1.460 . S
C151 H157 0.929 . S
N152 Mn145 2.257 . S
N152 C151 1.326 . S
N152 C156 1.362 . S
C153 C154 1.258 . S
C153 C156 1.431 . S
C153 C173 1.449 . S
C154 C153 1.258 . S
C154 C155 1.477 . S
C154 H174 0.931 . S
C155 C151 1.460 . S
C155 C154 1.477 . S
C155 H175 0.930 . S
C156 N152 1.362 . S
C156 C153 1.431 . S
C156 C166 1.476 . S
H157 C151 0.929 . S
C158 O149 1.250 . S
C158 O150 1.258 . S
O159 Mn144 2.162 . S
O159 C147 1.281 . S
O160 Mn144 2.297 . S
O160 C147 1.236 . S
N161 Mn145 2.282 . S
N161 C162 1.328 1_455 S
N161 C166 1.318 . S
C162 N161 1.328 1_655 S
C162 C163 1.457 . S
C162 H167 0.929 . S
C163 C162 1.457 . S
C163 C164 1.291 . S
C163 H176 0.931 . S
C164 C163 1.291 . S
C164 C165 1.373 . S
C164 H177 0.929 . S
C165 C164 1.373 . S
C165 C166 1.396 1_655 S
C165 C172 1.403 . S
C166 C156 1.476 . S
C166 N161 1.318 . S
C166 C165 1.396 1_455 S
H167 C162 0.929 . S
O168 Mn144 2.385 . S
O168 C146 1.234 . S
O169 Mn144 2.209 . S
O169 Mn145 2.215 . S
O169 C146 1.283 . S
O170 Mn144 2.094 . S
O170 C148 1.240 . S
O171 Mn145 2.117 . S
O171 C148 1.264 . S
C172 C165 1.403 . S
C172 C173 1.399 1_655 S
C172 H178 0.929 . S
C173 C153 1.449 . S
C173 C172 1.399 1_455 S
C173 H179 0.930 . S
H174 C154 0.931 . S
H175 C155 0.930 . S
H176 C163 0.931 . S
H177 C164 0.929 . S
H178 C172 0.929 . S
H179 C173 0.930 . S
Mn180 O185 2.095 . S
Mn180 O195 2.162 . S
Mn180 O196 2.297 . S
Mn180 O204 2.385 . S
Mn180 O205 2.209 . S
Mn180 O206 2.094 . S
Mn181 O186 2.121 . S
Mn181 N188 2.257 . S
Mn181 N197 2.282 . S
Mn181 O205 2.215 . S
Mn181 O207 2.117 . S
C182 O204 1.234 . S
C182 O205 1.283 . S
C183 O195 1.281 . S
C183 O196 1.236 . S
C184 O206 1.240 . S
C184 O207 1.264 . S
O185 Mn180 2.095 . S
O185 C194 1.250 . S
O186 Mn181 2.121 . S
O186 C194 1.258 . S
C187 N188 1.326 . S
C187 C191 1.460 . S
C187 H193 0.929 . S
N188 Mn181 2.257 . S
N188 C187 1.326 . S
N188 C192 1.362 . S
C189 C190 1.258 . S
C189 C192 1.431 . S
C189 C209 1.449 . S
C190 C189 1.258 . S
C190 C191 1.477 . S
C190 H210 0.931 . S
C191 C187 1.460 . S
C191 C190 1.477 . S
C191 H211 0.930 . S
C192 N188 1.362 . S
C192 C189 1.431 . S
C192 C202 1.476 . S
H193 C187 0.929 . S
C194 O185 1.250 . S
C194 O186 1.258 . S
O195 Mn180 2.162 . S
O195 C183 1.281 . S
O196 Mn180 2.297 . S
O196 C183 1.236 . S
N197 Mn181 2.282 . S
N197 C198 1.328 . S
N197 C202 1.318 . S
C198 N197 1.328 . S
C198 C199 1.457 . S
C198 H203 0.929 . S
C199 C198 1.457 . S
C199 C200 1.291 . S
C199 H212 0.931 . S
C200 C199 1.291 . S
C200 C201 1.373 . S
C200 H213 0.929 . S
C201 C200 1.373 . S
C201 C202 1.396 . S
C201 C208 1.403 . S
C202 C192 1.476 . S
C202 N197 1.318 . S
C202 C201 1.396 . S
H203 C198 0.929 . S
O204 Mn180 2.385 . S
O204 C182 1.234 . S
O205 Mn180 2.209 . S
O205 Mn181 2.215 . S
O205 C182 1.283 . S
O206 Mn180 2.094 . S
O206 C184 1.240 . S
O207 Mn181 2.117 . S
O207 C184 1.264 . S
C208 C201 1.403 . S
C208 C209 1.399 . S
C208 H214 0.929 . S
C209 C189 1.449 . S
C209 C208 1.399 . S
C209 H215 0.930 . S
H210 C190 0.931 . S
H211 C191 0.930 . S
H212 C199 0.931 . S
H213 C200 0.929 . S
H214 C208 0.929 . S
H215 C209 0.930 . S
Mn216 O221 2.095 . S
Mn216 O231 2.162 . S
Mn216 O232 2.297 . S
Mn216 O240 2.385 . S
Mn216 O241 2.209 . S
Mn216 O242 2.094 . S
Mn217 O222 2.121 . S
Mn217 N224 2.257 1_545 S
Mn217 N233 2.282 . S
Mn217 O241 2.215 . S
Mn217 O243 2.117 . S
C218 O240 1.234 . S
C218 O241 1.283 . S
C219 O231 1.281 . S
C219 O232 1.236 . S
C220 O242 1.240 . S
C220 O243 1.264 . S
O221 Mn216 2.095 . S
O221 C230 1.250 . S
O222 Mn217 2.121 . S
O222 C230 1.258 . S
C223 N224 1.326 . S
C223 C227 1.460 . S
C223 H229 0.929 . S
N224 Mn217 2.257 1_565 S
N224 C223 1.326 . S
N224 C228 1.362 . S
C225 C226 1.258 . S
C225 C228 1.431 . S
C225 C245 1.449 . S
C226 C225 1.258 . S
C226 C227 1.477 . S
C226 H246 0.931 . S
C227 C223 1.460 . S
C227 C226 1.477 . S
C227 H247 0.930 . S
C228 N224 1.362 . S
C228 C225 1.431 . S
C228 C238 1.476 . S
H229 C223 0.929 . S
C230 O221 1.250 . S
C230 O222 1.258 . S
O231 Mn216 2.162 . S
O231 C219 1.281 . S
O232 Mn216 2.297 . S
O232 C219 1.236 . S
N233 Mn217 2.282 . S
N233 C234 1.301 1_556 S
N233 C238 1.318 1_545 S
C234 N233 1.301 1_554 S
C234 C235 1.487 . S
C234 H239 0.925 1_554 S
C235 C234 1.487 . S
C235 C236 1.316 . S
C235 H248 0.931 . S
C236 C235 1.316 . S
C236 C237 1.357 1_545 S
C236 H249 0.921 1_545 S
C237 C236 1.357 1_565 S
C237 C238 1.396 1_554 S
C237 C244 1.403 . S
C238 C228 1.476 . S
C238 N233 1.318 1_565 S
C238 C237 1.396 1_556 S
H239 C234 0.925 1_556 S
O240 Mn216 2.385 . S
O240 C218 1.234 . S
O241 Mn216 2.209 . S
O241 Mn217 2.215 . S
O241 C218 1.283 . S
O242 Mn216 2.094 . S
O242 C220 1.240 . S
O243 Mn217 2.117 . S
O243 C220 1.264 . S
C244 C237 1.403 . S
C244 C245 1.399 1_554 S
C244 H250 0.929 . S
C245 C225 1.449 . S
C245 C244 1.399 1_556 S
C245 H251 0.930 . S
H246 C226 0.931 . S
H247 C227 0.930 . S
H248 C235 0.931 . S
H249 C236 0.921 1_565 S
H250 C244 0.929 . S
H251 C245 0.930 . S
Mn252 O257 2.095 . S
Mn252 O267 2.162 . S
Mn252 O268 2.297 . S
Mn252 O276 2.385 . S
Mn252 O277 2.209 . S
Mn252 O278 2.094 . S
Mn253 O258 2.121 . S
Mn253 N260 2.257 . S
Mn253 N269 2.282 . S
Mn253 O277 2.215 . S
Mn253 O279 2.117 . S
C254 O276 1.234 . S
C254 O277 1.283 . S
C255 O267 1.281 . S
C255 O268 1.236 . S
C256 O278 1.240 . S
C256 O279 1.264 . S
O257 Mn252 2.095 . S
O257 C266 1.250 . S
O258 Mn253 2.121 . S
O258 C266 1.258 . S
C259 N260 1.326 . S
C259 C263 1.460 . S
C259 H265 0.929 . S
N260 Mn253 2.257 . S
N260 C259 1.326 . S
N260 C264 1.362 . S
C261 C262 1.258 . S
C261 C264 1.431 . S
C261 C281 1.449 . S
C262 C261 1.258 . S
C262 C263 1.477 . S
C262 H282 0.931 . S
C263 C259 1.460 . S
C263 C262 1.477 . S
C263 H283 0.930 . S
C264 N260 1.362 . S
C264 C261 1.431 . S
C264 C274 1.476 . S
H265 C259 0.929 . S
C266 O257 1.250 . S
C266 O258 1.258 . S
O267 Mn252 2.162 . S
O267 C255 1.281 . S
O268 Mn252 2.297 . S
O268 C255 1.236 . S
N269 Mn253 2.282 . S
N269 C270 1.328 . S
N269 C274 1.318 . S
C270 N269 1.328 . S
C270 C271 1.457 . S
C270 H275 0.929 . S
C271 C270 1.457 . S
C271 C272 1.291 . S
C271 H284 0.931 . S
C272 C271 1.291 . S
C272 C273 1.373 . S
C272 H285 0.929 . S
C273 C272 1.373 . S
C273 C274 1.396 . S
C273 C280 1.403 . S
C274 C264 1.476 . S
C274 N269 1.318 . S
C274 C273 1.396 . S
H275 C270 0.929 . S
O276 Mn252 2.385 . S
O276 C254 1.234 . S
O277 Mn252 2.209 . S
O277 Mn253 2.215 . S
O277 C254 1.283 . S
O278 Mn252 2.094 . S
O278 C256 1.240 . S
O279 Mn253 2.117 . S
O279 C256 1.264 . S
C280 C273 1.403 . S
C280 C281 1.399 . S
C280 H286 0.929 . S
C281 C261 1.449 . S
C281 C280 1.399 . S
C281 H287 0.930 . S
H282 C262 0.931 . S
H283 C263 0.930 . S
H284 C271 0.931 . S
H285 C272 0.929 . S
H286 C280 0.929 . S
H287 C281 0.930 . S
Mn288 O293 2.095 . S
Mn288 O303 2.162 . S
Mn288 O304 2.297 . S
Mn288 O312 2.385 . S
Mn288 O313 2.209 . S
Mn288 O314 2.094 . S
Mn289 O294 2.121 . S
Mn289 N296 2.257 1_556 S
Mn289 N305 2.282 . S
Mn289 O313 2.215 . S
Mn289 O315 2.117 . S
C290 O312 1.234 . S
C290 O313 1.283 . S
C291 O303 1.281 . S
C291 O304 1.236 . S
C292 O314 1.240 . S
C292 O315 1.264 . S
O293 Mn288 2.095 . S
O293 C302 1.250 . S
O294 Mn289 2.121 . S
O294 C302 1.258 . S
C295 N296 1.326 . S
C295 C299 1.460 . S
C295 H301 0.929 . S
N296 Mn289 2.257 1_554 S
N296 C295 1.326 . S
N296 C300 1.362 . S
C297 C298 1.258 . S
C297 C300 1.431 . S
C297 C317 1.449 . S
C298 C297 1.258 . S
C298 C299 1.477 . S
C298 H318 0.931 . S
C299 C295 1.460 . S
C299 C298 1.477 . S
C299 H319 0.930 . S
C300 N296 1.362 . S
C300 C297 1.431 . S
C300 C310 1.476 . S
H301 C295 0.929 . S
C302 O293 1.250 . S
C302 O294 1.258 . S
O303 Mn288 2.162 . S
O303 C291 1.281 . S
O304 Mn288 2.297 . S
O304 C291 1.236 . S
N305 Mn289 2.282 . S
N305 C306 1.328 . S
N305 C310 1.318 1_556 S
C306 N305 1.328 . S
C306 C307 1.457 . S
C306 H311 0.929 . S
C307 C306 1.457 . S
C307 C308 1.291 . S
C307 H320 0.931 . S
C308 C307 1.291 . S
C308 C309 1.373 1_556 S
C308 H321 0.929 . S
C309 C308 1.373 1_554 S
C309 C310 1.396 . S
C309 C316 1.403 . S
C310 C300 1.476 . S
C310 N305 1.318 1_554 S
C310 C309 1.396 . S
H311 C306 0.929 . S
O312 Mn288 2.385 . S
O312 C290 1.234 . S
O313 Mn288 2.209 . S
O313 Mn289 2.215 . S
O313 C290 1.283 . S
O314 Mn288 2.094 . S
O314 C292 1.240 . S
O315 Mn289 2.117 . S
O315 C292 1.264 . S
C316 C309 1.403 . S
C316 C317 1.399 . S
C316 H322 0.929 . S
C317 C297 1.449 . S
C317 C316 1.399 . S
C317 H323 0.930 . S
H318 C298 0.931 . S
H319 C299 0.930 . S
H320 C307 0.931 . S
H321 C308 0.929 . S
H322 C316 0.929 . S
H323 C317 0.930 . S
Mn324 O329 2.095 . S
Mn324 O339 2.162 . S
Mn324 O340 2.297 . S
Mn324 O348 2.385 . S
Mn324 O349 2.209 . S
Mn324 O350 2.094 . S
Mn325 O330 2.121 . S
Mn325 N332 2.257 . S
Mn325 N341 2.282 . S
Mn325 O349 2.215 . S
Mn325 O351 2.117 . S
C326 O348 1.234 . S
C326 O349 1.283 . S
C327 O339 1.281 . S
C327 O340 1.236 . S
C328 O350 1.240 . S
C328 O351 1.264 . S
O329 Mn324 2.095 . S
O329 C338 1.250 . S
O330 Mn325 2.121 . S
O330 C338 1.258 . S
C331 N332 1.326 . S
C331 C335 1.460 . S
C331 H337 0.929 . S
N332 Mn325 2.257 . S
N332 C331 1.326 . S
N332 C336 1.362 . S
C333 C334 1.258 . S
C333 C336 1.431 . S
C333 C353 1.449 . S
C334 C333 1.258 . S
C334 C335 1.477 . S
C334 H354 0.931 . S
C335 C331 1.460 . S
C335 C334 1.477 . S
C335 H355 0.930 . S
C336 N332 1.362 . S
C336 C333 1.431 . S
C336 C346 1.476 . S
H337 C331 0.929 . S
C338 O329 1.250 . S
C338 O330 1.258 . S
O339 Mn324 2.162 . S
O339 C327 1.281 . S
O340 Mn324 2.297 . S
O340 C327 1.236 . S
N341 Mn325 2.282 . S
N341 C342 1.328 . S
N341 C346 1.318 . S
C342 N341 1.328 . S
C342 C343 1.457 . S
C342 H347 0.929 . S
C343 C342 1.457 . S
C343 C344 1.291 . S
C343 H356 0.931 . S
C344 C343 1.291 . S
C344 C345 1.373 . S
C344 H357 0.929 . S
C345 C344 1.373 . S
C345 C346 1.396 . S
C345 C352 1.403 . S
C346 C336 1.476 . S
C346 N341 1.318 . S
C346 C345 1.396 . S
H347 C342 0.929 . S
O348 Mn324 2.385 . S
O348 C326 1.234 . S
O349 Mn324 2.209 . S
O349 Mn325 2.215 . S
O349 C326 1.283 . S
O350 Mn324 2.094 . S
O350 C328 1.240 . S
O351 Mn325 2.117 . S
O351 C328 1.264 . S
C352 C345 1.403 . S
C352 C353 1.399 . S
C352 H358 0.929 . S
C353 C333 1.449 . S
C353 C352 1.399 . S
C353 H359 0.930 . S
H354 C334 0.931 . S
H355 C335 0.930 . S
H356 C343 0.931 . S
H357 C344 0.929 . S
H358 C352 0.929 . S
H359 C353 0.930 . S
Mn360 O365 2.095 . S
Mn360 O375 2.162 . S
Mn360 O376 2.297 . S
Mn360 O384 2.385 . S
Mn360 O385 2.209 . S
Mn360 O386 2.094 . S
Mn361 O366 2.121 . S
Mn361 N368 2.257 . S
Mn361 N377 2.282 . S
Mn361 O385 2.215 . S
Mn361 O387 2.117 . S
C362 O384 1.234 . S
C362 O385 1.283 . S
C363 O375 1.281 . S
C363 O376 1.236 . S
C364 O386 1.240 . S
C364 O387 1.264 . S
O365 Mn360 2.095 . S
O365 C374 1.250 . S
O366 Mn361 2.121 . S
O366 C374 1.258 . S
C367 N368 1.326 . S
C367 C371 1.460 . S
C367 H373 0.929 . S
N368 Mn361 2.257 . S
N368 C367 1.326 . S
N368 C372 1.362 . S
C369 C370 1.258 . S
C369 C372 1.431 . S
C369 C389 1.449 . S
C370 C369 1.258 . S
C370 C371 1.477 . S
C370 H390 0.931 . S
C371 C367 1.460 . S
C371 C370 1.477 . S
C371 H391 0.930 . S
C372 N368 1.362 . S
C372 C369 1.431 . S
C372 C382 1.476 . S
H373 C367 0.929 . S
C374 O365 1.250 . S
C374 O366 1.258 . S
O375 Mn360 2.162 . S
O375 C363 1.281 . S
O376 Mn360 2.297 . S
O376 C363 1.236 . S
N377 Mn361 2.282 . S
N377 C378 1.328 . S
N377 C382 1.318 . S
C378 N377 1.328 . S
C378 C379 1.457 . S
C378 H383 0.929 . S
C379 C378 1.457 . S
C379 C380 1.291 . S
C379 H392 0.931 . S
C380 C379 1.291 . S
C380 C381 1.373 . S
C380 H393 0.929 . S
C381 C380 1.373 . S
C381 C382 1.396 . S
C381 C388 1.403 . S
C382 C372 1.476 . S
C382 N377 1.318 . S
C382 C381 1.396 . S
H383 C378 0.929 . S
O384 Mn360 2.385 . S
O384 C362 1.234 . S
O385 Mn360 2.209 . S
O385 Mn361 2.215 . S
O385 C362 1.283 . S
O386 Mn360 2.094 . S
O386 C364 1.240 . S
O387 Mn361 2.117 . S
O387 C364 1.264 . S
C388 C381 1.403 . S
C388 C389 1.399 . S
C388 H394 0.929 . S
C389 C369 1.449 . S
C389 C388 1.399 . S
C389 H395 0.930 . S
H390 C370 0.931 . S
H391 C371 0.930 . S
H392 C379 0.931 . S
H393 C380 0.929 . S
H394 C388 0.929 . S
H395 C389 0.930 . S
Mn396 O401 2.095 . S
Mn396 O411 2.162 . S
Mn396 O412 2.297 . S
Mn396 O420 2.385 . S
Mn396 O421 2.209 . S
Mn396 O422 2.094 . S
Mn397 O402 2.121 . S
Mn397 N404 2.257 . S
Mn397 N413 2.282 . S
Mn397 O421 2.215 . S
Mn397 O423 2.117 . S
C398 O420 1.234 . S
C398 O421 1.283 . S
C399 O411 1.281 . S
C399 O412 1.236 . S
C400 O422 1.240 . S
C400 O423 1.264 . S
O401 Mn396 2.095 . S
O401 C410 1.250 . S
O402 Mn397 2.121 . S
O402 C410 1.258 . S
C403 N404 1.326 . S
C403 C407 1.460 . S
C403 H409 0.929 . S
N404 Mn397 2.257 . S
N404 C403 1.326 . S
N404 C408 1.362 . S
C405 C406 1.258 . S
C405 C408 1.431 . S
C405 C425 1.449 . S
C406 C405 1.258 . S
C406 C407 1.477 . S
C406 H426 0.931 . S
C407 C403 1.460 . S
C407 C406 1.477 . S
C407 H427 0.930 . S
C408 N404 1.362 . S
C408 C405 1.431 . S
C408 C418 1.476 . S
H409 C403 0.929 . S
C410 O401 1.250 . S
C410 O402 1.258 . S
O411 Mn396 2.162 . S
O411 C399 1.281 . S
O412 Mn396 2.297 . S
O412 C399 1.236 . S
N413 Mn397 2.282 . S
N413 C414 1.328 . S
N413 C418 1.318 . S
C414 N413 1.328 . S
C414 C415 1.457 . S
C414 H419 0.929 . S
C415 C414 1.457 . S
C415 C416 1.291 . S
C415 H428 0.931 . S
C416 C415 1.291 . S
C416 C417 1.373 . S
C416 H429 0.929 . S
C417 C416 1.373 . S
C417 C418 1.396 . S
C417 C424 1.403 . S
C418 C408 1.476 . S
C418 N413 1.318 . S
C418 C417 1.396 . S
H419 C414 0.929 . S
O420 Mn396 2.385 . S
O420 C398 1.234 . S
O421 Mn396 2.209 . S
O421 Mn397 2.215 . S
O421 C398 1.283 . S
O422 Mn396 2.094 . S
O422 C400 1.240 . S
O423 Mn397 2.117 . S
O423 C400 1.264 . S
C424 C417 1.403 . S
C424 C425 1.399 . S
C424 H430 0.929 . S
C425 C405 1.449 . S
C425 C424 1.399 . S
C425 H431 0.930 . S
H426 C406 0.931 . S
H427 C407 0.930 . S
H428 C415 0.931 . S
H429 C416 0.929 . S
H430 C424 0.929 . S
H431 C425 0.930 . S
Mn432 O437 2.095 . S
Mn432 O447 2.162 . S
Mn432 O448 2.297 . S
Mn432 O456 2.385 . S
Mn432 O457 2.209 . S
Mn432 O458 2.094 . S
Mn433 O438 2.121 . S
Mn433 N440 2.257 . S
Mn433 N449 2.282 . S
Mn433 O457 2.215 . S
Mn433 O459 2.117 . S
C434 O456 1.234 . S
C434 O457 1.283 . S
C435 O447 1.281 . S
C435 O448 1.236 . S
C436 O458 1.240 . S
C436 O459 1.264 . S
O437 Mn432 2.095 . S
O437 C446 1.250 . S
O438 Mn433 2.121 . S
O438 C446 1.258 . S
C439 N440 1.326 . S
C439 C443 1.460 . S
C439 H445 0.929 . S
N440 Mn433 2.257 . S
N440 C439 1.326 . S
N440 C444 1.362 . S
C441 C442 1.258 . S
C441 C444 1.431 . S
C441 C461 1.449 . S
C442 C441 1.258 . S
C442 C443 1.477 . S
C442 H462 0.931 . S
C443 C439 1.460 . S
C443 C442 1.477 . S
C443 H463 0.930 . S
C444 N440 1.362 . S
C444 C441 1.431 . S
C444 C454 1.476 . S
H445 C439 0.929 . S
C446 O437 1.250 . S
C446 O438 1.258 . S
O447 Mn432 2.162 . S
O447 C435 1.281 . S
O448 Mn432 2.297 . S
O448 C435 1.236 . S
N449 Mn433 2.282 . S
N449 C450 1.328 . S
N449 C454 1.318 . S
C450 N449 1.328 . S
C450 C451 1.457 . S
C450 H455 0.929 . S
C451 C450 1.457 . S
C451 C452 1.291 . S
C451 H464 0.931 . S
C452 C451 1.291 . S
C452 C453 1.373 . S
C452 H465 0.929 . S
C453 C452 1.373 . S
C453 C454 1.396 . S
C453 C460 1.403 . S
C454 C444 1.476 . S
C454 N449 1.318 . S
C454 C453 1.396 . S
H455 C450 0.929 . S
O456 Mn432 2.385 . S
O456 C434 1.234 . S
O457 Mn432 2.209 . S
O457 Mn433 2.215 . S
O457 C434 1.283 . S
O458 Mn432 2.094 . S
O458 C436 1.240 . S
O459 Mn433 2.117 . S
O459 C436 1.264 . S
C460 C453 1.403 . S
C460 C461 1.399 . S
C460 H466 0.929 . S
C461 C441 1.449 . S
C461 C460 1.399 . S
C461 H467 0.930 . S
H462 C442 0.931 . S
H463 C443 0.930 . S
H464 C451 0.931 . S
H465 C452 0.929 . S
H466 C460 0.929 . S
H467 C461 0.930 . S
Mn468 O473 2.095 . S
Mn468 O483 2.162 . S
Mn468 O484 2.297 . S
Mn468 O492 2.385 . S
Mn468 O493 2.209 . S
Mn468 O494 2.094 . S
Mn469 O474 2.121 . S
Mn469 N476 2.257 . S
Mn469 N485 2.282 1_565 S
Mn469 O493 2.215 . S
Mn469 O495 2.117 . S
C470 O492 1.234 . S
C470 O493 1.283 . S
C471 O483 1.281 . S
C471 O484 1.236 . S
C472 O494 1.240 . S
C472 O495 1.264 . S
O473 Mn468 2.095 . S
O473 C482 1.250 . S
O474 Mn469 2.121 . S
O474 C482 1.258 . S
C475 N476 1.326 1_554 S
C475 C479 1.460 . S
C475 H481 0.929 . S
N476 Mn469 2.257 . S
N476 C475 1.326 1_556 S
N476 C480 1.362 1_565 S
C477 C478 1.258 . S
C477 C480 1.431 1_554 S
C477 C497 1.449 . S
C478 C477 1.258 . S
C478 C479 1.477 1_545 S
C478 H498 0.931 . S
C479 C475 1.460 . S
C479 C478 1.477 1_565 S
C479 H499 0.930 . S
C480 N476 1.362 1_545 S
C480 C477 1.431 1_556 S
C480 C490 1.476 . S
H481 C475 0.929 . S
C482 O473 1.250 . S
C482 O474 1.258 . S
O483 Mn468 2.162 . S
O483 C471 1.281 . S
O484 Mn468 2.297 . S
O484 C471 1.236 . S
N485 Mn469 2.282 1_545 S
N485 C486 1.328 . S
N485 C490 1.318 . S
C486 N485 1.328 . S
C486 C487 1.457 . S
C486 H491 0.929 . S
C487 C486 1.457 . S
C487 C488 1.291 . S
C487 H500 0.931 . S
C488 C487 1.291 . S
C488 C489 1.373 . S
C488 H501 0.929 . S
C489 C488 1.373 . S
C489 C490 1.396 . S
C489 C496 1.403 1_556 S
C490 C480 1.476 . S
C490 N485 1.318 . S
C490 C489 1.396 . S
H491 C486 0.929 . S
O492 Mn468 2.385 . S
O492 C470 1.234 . S
O493 Mn468 2.209 . S
O493 Mn469 2.215 . S
O493 C470 1.283 . S
O494 Mn468 2.094 . S
O494 C472 1.240 . S
O495 Mn469 2.117 . S
O495 C472 1.264 . S
C496 C489 1.403 1_554 S
C496 C497 1.399 . S
C496 H502 0.929 . S
C497 C477 1.449 . S
C497 C496 1.399 . S
C497 H503 0.930 . S
H498 C478 0.931 . S
H499 C479 0.930 . S
H500 C487 0.931 . S
H501 C488 0.929 . S
H502 C496 0.929 . S
H503 C497 0.930 . S
Mn504 O509 2.095 . S
Mn504 O519 2.162 . S
Mn504 O520 2.297 . S
Mn504 O528 2.385 . S
Mn504 O529 2.209 . S
Mn504 O530 2.094 . S
Mn505 O510 2.121 . S
Mn505 N512 2.257 . S
Mn505 N521 2.282 . S
Mn505 O529 2.215 . S
Mn505 O531 2.117 . S
C506 O528 1.234 . S
C506 O529 1.283 . S
C507 O519 1.281 . S
C507 O520 1.236 . S
C508 O530 1.240 . S
C508 O531 1.264 . S
O509 Mn504 2.095 . S
O509 C518 1.250 . S
O510 Mn505 2.121 . S
O510 C518 1.258 . S
C511 N512 1.326 . S
C511 C515 1.460 . S
C511 H517 0.929 . S
N512 Mn505 2.257 . S
N512 C511 1.326 . S
N512 C516 1.362 . S
C513 C514 1.258 . S
C513 C516 1.431 . S
C513 C533 1.449 . S
C514 C513 1.258 . S
C514 C515 1.477 . S
C514 H534 0.931 . S
C515 C511 1.460 . S
C515 C514 1.477 . S
C515 H535 0.930 . S
C516 N512 1.362 . S
C516 C513 1.431 . S
C516 C526 1.476 . S
H517 C511 0.929 . S
C518 O509 1.250 . S
C518 O510 1.258 . S
O519 Mn504 2.162 . S
O519 C507 1.281 . S
O520 Mn504 2.297 . S
O520 C507 1.236 . S
N521 Mn505 2.282 . S
N521 C522 1.328 . S
N521 C526 1.318 . S
C522 N521 1.328 . S
C522 C523 1.457 . S
C522 H527 0.929 . S
C523 C522 1.457 . S
C523 C524 1.291 . S
C523 H536 0.931 . S
C524 C523 1.291 . S
C524 C525 1.373 . S
C524 H537 0.929 . S
C525 C524 1.373 . S
C525 C526 1.396 . S
C525 C532 1.403 . S
C526 C516 1.476 . S
C526 N521 1.318 . S
C526 C525 1.396 . S
H527 C522 0.929 . S
O528 Mn504 2.385 . S
O528 C506 1.234 . S
O529 Mn504 2.209 . S
O529 Mn505 2.215 . S
O529 C506 1.283 . S
O530 Mn504 2.094 . S
O530 C508 1.240 . S
O531 Mn505 2.117 . S
O531 C508 1.264 . S
C532 C525 1.403 . S
C532 C533 1.399 . S
C532 H538 0.929 . S
C533 C513 1.449 . S
C533 C532 1.399 . S
C533 H539 0.930 . S
H534 C514 0.931 . S
H535 C515 0.930 . S
H536 C523 0.931 . S
H537 C524 0.929 . S
H538 C532 0.929 . S
H539 C533 0.930 . S
Mn540 O545 2.095 . S
Mn540 O555 2.162 . S
Mn540 O556 2.297 . S
Mn540 O564 2.385 . S
Mn540 O565 2.209 . S
Mn540 O566 2.094 . S
Mn541 O546 2.121 . S
Mn541 N548 2.257 . S
Mn541 N557 2.282 1_545 S
Mn541 O565 2.215 . S
Mn541 O567 2.117 . S
C542 O564 1.234 . S
C542 O565 1.283 . S
C543 O555 1.281 . S
C543 O556 1.236 . S
C544 O566 1.240 . S
C544 O567 1.264 . S
O545 Mn540 2.095 . S
O545 C554 1.250 . S
O546 Mn541 2.121 . S
O546 C554 1.258 . S
C547 N548 1.326 . S
C547 C551 1.460 . S
C547 H553 0.929 . S
N548 Mn541 2.257 . S
N548 C547 1.326 . S
N548 C552 1.362 1_545 S
C549 C550 1.258 . S
C549 C552 1.431 . S
C549 C569 1.449 . S
C550 C549 1.258 . S
C550 C551 1.477 1_565 S
C550 H570 0.931 . S
C551 C547 1.460 . S
C551 C550 1.477 1_545 S
C551 H571 0.930 . S
C552 N548 1.362 1_565 S
C552 C549 1.431 . S
C552 C562 1.476 . S
H553 C547 0.929 . S
C554 O545 1.250 . S
C554 O546 1.258 . S
O555 Mn540 2.162 . S
O555 C543 1.281 . S
O556 Mn540 2.297 . S
O556 C543 1.236 . S
N557 Mn541 2.282 1_565 S
N557 C558 1.328 . S
N557 C562 1.318 . S
C558 N557 1.328 . S
C558 C559 1.457 . S
C558 H563 0.929 . S
C559 C558 1.457 . S
C559 C560 1.291 . S
C559 H572 0.931 . S
C560 C559 1.291 . S
C560 C561 1.373 . S
C560 H573 0.929 . S
C561 C560 1.373 . S
C561 C562 1.396 . S
C561 C568 1.403 . S
C562 C552 1.476 . S
C562 N557 1.318 . S
C562 C561 1.396 . S
H563 C558 0.929 . S
O564 Mn540 2.385 . S
O564 C542 1.234 . S
O565 Mn540 2.209 . S
O565 Mn541 2.215 . S
O565 C542 1.283 . S
O566 Mn540 2.094 . S
O566 C544 1.240 . S
O567 Mn541 2.117 . S
O567 C544 1.264 . S
C568 C561 1.403 . S
C568 C569 1.399 . S
C568 H574 0.929 . S
C569 C549 1.449 . S
C569 C568 1.399 . S
C569 H575 0.930 . S
H570 C550 0.931 . S
H571 C551 0.930 . S
H572 C559 0.931 . S
H573 C560 0.929 . S
H574 C568 0.929 . S
H575 C569 0.930 . S
Mn576 O581 2.095 . S
Mn576 O591 2.162 . S
Mn576 O592 2.297 . S
Mn576 O600 2.385 . S
Mn576 O601 2.209 . S
Mn576 O602 2.094 . S
Mn577 O582 2.121 . S
Mn577 N584 2.257 . S
Mn577 N593 2.282 . S
Mn577 O601 2.215 . S
Mn577 O603 2.117 . S
C578 O600 1.234 . S
C578 O601 1.283 . S
C579 O591 1.281 . S
C579 O592 1.236 . S
C580 O602 1.240 . S
C580 O603 1.264 . S
O581 Mn576 2.095 . S
O581 C590 1.250 . S
O582 Mn577 2.121 . S
O582 C590 1.258 . S
C583 N584 1.326 . S
C583 C587 1.460 . S
C583 H589 0.929 . S
N584 Mn577 2.257 . S
N584 C583 1.326 . S
N584 C588 1.362 . S
C585 C586 1.258 . S
C585 C588 1.431 . S
C585 C605 1.449 . S
C586 C585 1.258 . S
C586 C587 1.477 . S
C586 H606 0.931 . S
C587 C583 1.460 . S
C587 C586 1.477 . S
C587 H607 0.930 . S
C588 N584 1.362 . S
C588 C585 1.431 . S
C588 C598 1.476 . S
H589 C583 0.929 . S
C590 O581 1.250 . S
C590 O582 1.258 . S
O591 Mn576 2.162 . S
O591 C579 1.281 . S
O592 Mn576 2.297 . S
O592 C579 1.236 . S
N593 Mn577 2.282 . S
N593 C594 1.328 . S
N593 C598 1.318 . S
C594 N593 1.328 . S
C594 C595 1.457 . S
C594 H599 0.929 . S
C595 C594 1.457 . S
C595 C596 1.291 . S
C595 H608 0.931 . S
C596 C595 1.291 . S
C596 C597 1.373 . S
C596 H609 0.929 . S
C597 C596 1.373 . S
C597 C598 1.396 . S
C597 C604 1.403 . S
C598 C588 1.476 . S
C598 N593 1.318 . S
C598 C597 1.396 . S
H599 C594 0.929 . S
O600 Mn576 2.385 . S
O600 C578 1.234 . S
O601 Mn576 2.209 . S
O601 Mn577 2.215 . S
O601 C578 1.283 . S
O602 Mn576 2.094 . S
O602 C580 1.240 . S
O603 Mn577 2.117 . S
O603 C580 1.264 . S
C604 C597 1.403 . S
C604 C605 1.399 . S
C604 H610 0.929 . S
C605 C585 1.449 . S
C605 C604 1.399 . S
C605 H611 0.930 . S
H606 C586 0.931 . S
H607 C587 0.930 . S
H608 C595 0.931 . S
H609 C596 0.929 . S
H610 C604 0.929 . S
H611 C605 0.930 . S
Mn612 O617 2.095 . S
Mn612 O627 2.162 . S
Mn612 O628 2.297 . S
Mn612 O636 2.385 . S
Mn612 O637 2.209 . S
Mn612 O638 2.094 . S
Mn613 O618 2.121 . S
Mn613 N620 2.257 . S
Mn613 N629 2.282 . S
Mn613 O637 2.215 . S
Mn613 O639 2.117 . S
C614 O636 1.234 . S
C614 O637 1.283 . S
C615 O627 1.281 . S
C615 O628 1.236 . S
C616 O638 1.240 . S
C616 O639 1.264 . S
O617 Mn612 2.095 . S
O617 C626 1.250 . S
O618 Mn613 2.121 . S
O618 C626 1.258 . S
C619 N620 1.326 . S
C619 C623 1.460 . S
C619 H625 0.929 . S
N620 Mn613 2.257 . S
N620 C619 1.326 . S
N620 C624 1.362 . S
C621 C622 1.258 . S
C621 C624 1.431 . S
C621 C641 1.449 1_545 S
C622 C621 1.258 . S
C622 C623 1.477 . S
C622 H642 0.931 . S
C623 C619 1.460 . S
C623 C622 1.477 . S
C623 H643 0.930 . S
C624 N620 1.362 . S
C624 C621 1.431 . S
C624 C634 1.476 1_545 S
H625 C619 0.929 . S
C626 O617 1.250 . S
C626 O618 1.258 . S
O627 Mn612 2.162 . S
O627 C615 1.281 . S
O628 Mn612 2.297 . S
O628 C615 1.236 . S
N629 Mn613 2.282 . S
N629 C630 1.328 1_545 S
N629 C634 1.318 1_545 S
C630 N629 1.328 1_565 S
C630 C631 1.457 . S
C630 H635 0.929 1_565 S
C631 C630 1.457 . S
C631 C632 1.291 . S
C631 H644 0.931 . S
C632 C631 1.291 . S
C632 C633 1.373 . S
C632 H645 0.929 . S
C633 C632 1.373 . S
C633 C634 1.396 . S
C633 C640 1.403 . S
C634 C624 1.476 1_565 S
C634 N629 1.318 1_565 S
C634 C633 1.396 . S
H635 C630 0.929 1_545 S
O636 Mn612 2.385 . S
O636 C614 1.234 . S
O637 Mn612 2.209 . S
O637 Mn613 2.215 . S
O637 C614 1.283 . S
O638 Mn612 2.094 . S
O638 C616 1.240 . S
O639 Mn613 2.117 . S
O639 C616 1.264 . S
C640 C633 1.403 . S
C640 C641 1.399 . S
C640 H646 0.929 . S
C641 C621 1.449 1_565 S
C641 C640 1.399 . S
C641 H647 0.930 . S
H642 C622 0.931 . S
H643 C623 0.930 . S
H644 C631 0.931 . S
H645 C632 0.929 . S
H646 C640 0.929 . S
H647 C641 0.930 . S
Mn648 O653 2.095 . S
Mn648 O663 2.162 . S
Mn648 O664 2.297 . S
Mn648 O672 2.385 . S
Mn648 O673 2.209 . S
Mn648 O674 2.094 . S
Mn649 O654 2.121 . S
Mn649 N656 2.257 . S
Mn649 N665 2.282 . S
Mn649 O673 2.215 . S
Mn649 O675 2.117 . S
C650 O672 1.234 . S
C650 O673 1.283 . S
C651 O663 1.281 . S
C651 O664 1.236 . S
C652 O674 1.240 . S
C652 O675 1.264 . S
O653 Mn648 2.095 . S
O653 C662 1.250 . S
O654 Mn649 2.121 . S
O654 C662 1.258 . S
C655 N656 1.326 . S
C655 C659 1.460 . S
C655 H661 0.929 . S
N656 Mn649 2.257 . S
N656 C655 1.326 . S
N656 C660 1.362 . S
C657 C658 1.258 . S
C657 C660 1.431 . S
C657 C677 1.449 . S
C658 C657 1.258 . S
C658 C659 1.477 . S
C658 H678 0.931 . S
C659 C655 1.460 . S
C659 C658 1.477 . S
C659 H679 0.930 . S
C660 N656 1.362 . S
C660 C657 1.431 . S
C660 C670 1.476 . S
H661 C655 0.929 . S
C662 O653 1.250 . S
C662 O654 1.258 . S
O663 Mn648 2.162 . S
O663 C651 1.281 . S
O664 Mn648 2.297 . S
O664 C651 1.236 . S
N665 Mn649 2.282 . S
N665 C666 1.328 . S
N665 C670 1.318 . S
C666 N665 1.328 . S
C666 C667 1.457 . S
C666 H671 0.929 . S
C667 C666 1.457 . S
C667 C668 1.291 . S
C667 H680 0.931 . S
C668 C667 1.291 . S
C668 C669 1.373 . S
C668 H681 0.929 . S
C669 C668 1.373 . S
C669 C670 1.396 . S
C669 C676 1.403 . S
C670 C660 1.476 . S
C670 N665 1.318 . S
C670 C669 1.396 . S
H671 C666 0.929 . S
O672 Mn648 2.385 . S
O672 C650 1.234 . S
O673 Mn648 2.209 . S
O673 Mn649 2.215 . S
O673 C650 1.283 . S
O674 Mn648 2.094 . S
O674 C652 1.240 . S
O675 Mn649 2.117 . S
O675 C652 1.264 . S
C676 C669 1.403 . S
C676 C677 1.399 . S
C676 H682 0.929 . S
C677 C657 1.449 . S
C677 C676 1.399 . S
C677 H683 0.930 . S
H678 C658 0.931 . S
H679 C659 0.930 . S
H680 C667 0.931 . S
H681 C668 0.929 . S
H682 C676 0.929 . S
H683 C677 0.930 . S
Mn684 O689 2.095 . S
Mn684 O699 2.162 . S
Mn684 O700 2.297 . S
Mn684 O708 2.385 . S
Mn684 O709 2.209 . S
Mn684 O710 2.094 . S
Mn685 O690 2.121 . S
Mn685 N692 2.257 . S
Mn685 N701 2.282 1_554 S
Mn685 O709 2.215 . S
Mn685 O711 2.117 . S
C686 O708 1.234 . S
C686 O709 1.283 . S
C687 O699 1.281 . S
C687 O700 1.236 . S
C688 O710 1.240 . S
C688 O711 1.264 . S
O689 Mn684 2.095 . S
O689 C698 1.250 . S
O690 Mn685 2.121 . S
O690 C698 1.258 . S
C691 N692 1.326 . S
C691 C695 1.460 . S
C691 H697 0.929 . S
N692 Mn685 2.257 . S
N692 C691 1.326 . S
N692 C696 1.362 1_554 S
C693 C694 1.258 . S
C693 C696 1.431 . S
C693 C713 1.449 . S
C694 C693 1.258 . S
C694 C695 1.477 1_556 S
C694 H714 0.931 . S
C695 C691 1.460 . S
C695 C694 1.477 1_554 S
C695 H715 0.930 . S
C696 N692 1.362 1_556 S
C696 C693 1.431 . S
C696 C706 1.476 . S
H697 C691 0.929 . S
C698 O689 1.250 . S
C698 O690 1.258 . S
O699 Mn684 2.162 . S
O699 C687 1.281 . S
O700 Mn684 2.297 . S
O700 C687 1.236 . S
N701 Mn685 2.282 1_556 S
N701 C702 1.328 . S
N701 C706 1.318 . S
C702 N701 1.328 . S
C702 C703 1.457 . S
C702 H707 0.929 . S
C703 C702 1.457 . S
C703 C704 1.291 . S
C703 H716 0.931 . S
C704 C703 1.291 . S
C704 C705 1.373 . S
C704 H717 0.929 . S
C705 C704 1.373 . S
C705 C706 1.396 . S
C705 C712 1.403 . S
C706 C696 1.476 . S
C706 N701 1.318 . S
C706 C705 1.396 . S
H707 C702 0.929 . S
O708 Mn684 2.385 . S
O708 C686 1.234 . S
O709 Mn684 2.209 . S
O709 Mn685 2.215 . S
O709 C686 1.283 . S
O710 Mn684 2.094 . S
O710 C688 1.240 . S
O711 Mn685 2.117 . S
O711 C688 1.264 . S
C712 C705 1.403 . S
C712 C713 1.399 . S
C712 H718 0.929 . S
C713 C693 1.449 . S
C713 C712 1.399 . S
C713 H719 0.930 . S
H714 C694 0.931 . S
H715 C695 0.930 . S
H716 C703 0.931 . S
H717 C704 0.929 . S
H718 C712 0.929 . S
H719 C713 0.930 . S
Mn720 O725 2.095 . S
Mn720 O735 2.162 . S
Mn720 O736 2.297 . S
Mn720 O744 2.385 . S
Mn720 O745 2.209 . S
Mn720 O746 2.094 . S
Mn721 O726 2.121 . S
Mn721 N728 2.257 . S
Mn721 N737 2.282 . S
Mn721 O745 2.215 . S
Mn721 O747 2.117 . S
C722 O744 1.234 . S
C722 O745 1.283 . S
C723 O735 1.281 . S
C723 O736 1.236 . S
C724 O746 1.240 . S
C724 O747 1.264 . S
O725 Mn720 2.095 . S
O725 C734 1.250 . S
O726 Mn721 2.121 . S
O726 C734 1.258 . S
C727 N728 1.326 . S
C727 C731 1.460 . S
C727 H733 0.929 . S
N728 Mn721 2.257 . S
N728 C727 1.326 . S
N728 C732 1.362 . S
C729 C730 1.258 . S
C729 C732 1.431 . S
C729 C749 1.449 . S
C730 C729 1.258 . S
C730 C731 1.477 . S
C730 H750 0.931 . S
C731 C727 1.460 . S
C731 C730 1.477 . S
C731 H751 0.930 . S
C732 N728 1.362 . S
C732 C729 1.431 . S
C732 C742 1.476 . S
H733 C727 0.929 . S
C734 O725 1.250 . S
C734 O726 1.258 . S
O735 Mn720 2.162 . S
O735 C723 1.281 . S
O736 Mn720 2.297 . S
O736 C723 1.236 . S
N737 Mn721 2.282 . S
N737 C738 1.328 . S
N737 C742 1.318 . S
C738 N737 1.328 . S
C738 C739 1.457 . S
C738 H743 0.929 . S
C739 C738 1.457 . S
C739 C740 1.291 . S
C739 H752 0.931 . S
C740 C739 1.291 . S
C740 C741 1.373 . S
C740 H753 0.929 . S
C741 C740 1.373 . S
C741 C742 1.396 . S
C741 C748 1.403 . S
C742 C732 1.476 . S
C742 N737 1.318 . S
C742 C741 1.396 . S
H743 C738 0.929 . S
O744 Mn720 2.385 . S
O744 C722 1.234 . S
O745 Mn720 2.209 . S
O745 Mn721 2.215 . S
O745 C722 1.283 . S
O746 Mn720 2.094 . S
O746 C724 1.240 . S
O747 Mn721 2.117 . S
O747 C724 1.264 . S
C748 C741 1.403 . S
C748 C749 1.399 . S
C748 H754 0.929 . S
C749 C729 1.449 . S
C749 C748 1.399 . S
C749 H755 0.930 . S
H750 C730 0.931 . S
H751 C731 0.930 . S
H752 C739 0.931 . S
H753 C740 0.929 . S
H754 C748 0.929 . S
H755 C749 0.930 . S
Mn756 O761 2.095 . S
Mn756 O771 2.162 . S
Mn756 O772 2.297 . S
Mn756 O780 2.385 . S
Mn756 O781 2.209 . S
Mn756 O782 2.094 . S
Mn757 O762 2.121 . S
Mn757 N764 2.257 1_554 S
Mn757 N773 2.282 . S
Mn757 O781 2.215 . S
Mn757 O783 2.117 . S
C758 O780 1.234 . S
C758 O781 1.283 . S
C759 O771 1.281 . S
C759 O772 1.236 . S
C760 O782 1.240 . S
C760 O783 1.264 . S
O761 Mn756 2.095 . S
O761 C770 1.250 . S
O762 Mn757 2.121 . S
O762 C770 1.258 . S
C763 N764 1.326 . S
C763 C767 1.460 . S
C763 H769 0.929 . S
N764 Mn757 2.257 1_556 S
N764 C763 1.326 . S
N764 C768 1.362 . S
C765 C766 1.258 . S
C765 C768 1.431 . S
C765 C785 1.449 . S
C766 C765 1.258 . S
C766 C767 1.477 . S
C766 H786 0.931 . S
C767 C763 1.460 . S
C767 C766 1.477 . S
C767 H787 0.930 . S
C768 N764 1.362 . S
C768 C765 1.431 . S
C768 C778 1.476 1_556 S
H769 C763 0.929 . S
C770 O761 1.250 . S
C770 O762 1.258 . S
O771 Mn756 2.162 . S
O771 C759 1.281 . S
O772 Mn756 2.297 . S
O772 C759 1.236 . S
N773 Mn757 2.282 . S
N773 C774 1.328 . S
N773 C778 1.318 . S
C774 N773 1.328 . S
C774 C775 1.457 . S
C774 H779 0.929 . S
C775 C774 1.457 . S
C775 C776 1.291 . S
C775 H788 0.931 . S
C776 C775 1.291 . S
C776 C777 1.373 . S
C776 H789 0.929 . S
C777 C776 1.373 . S
C777 C778 1.396 . S
C777 C784 1.403 1_554 S
C778 C768 1.476 1_554 S
C778 N773 1.318 . S
C778 C777 1.396 . S
H779 C774 0.929 . S
O780 Mn756 2.385 . S
O780 C758 1.234 . S
O781 Mn756 2.209 . S
O781 Mn757 2.215 . S
O781 C758 1.283 . S
O782 Mn756 2.094 . S
O782 C760 1.240 . S
O783 Mn757 2.117 . S
O783 C760 1.264 . S
C784 C777 1.403 1_556 S
C784 C785 1.399 . S
C784 H790 0.929 . S
C785 C765 1.449 . S
C785 C784 1.399 . S
C785 H791 0.930 . S
H786 C766 0.931 . S
H787 C767 0.930 . S
H788 C775 0.931 . S
H789 C776 0.929 . S
H790 C784 0.929 . S
H791 C785 0.930 . S
Mn792 O797 2.095 . S
Mn792 O807 2.162 . S
Mn792 O808 2.297 . S
Mn792 O816 2.385 . S
Mn792 O817 2.209 . S
Mn792 O818 2.094 . S
Mn793 O798 2.121 . S
Mn793 N800 2.257 . S
Mn793 N809 2.282 . S
Mn793 O817 2.215 . S
Mn793 O819 2.117 . S
C794 O816 1.234 . S
C794 O817 1.283 . S
C795 O807 1.281 . S
C795 O808 1.236 . S
C796 O818 1.240 . S
C796 O819 1.264 . S
O797 Mn792 2.095 . S
O797 C806 1.250 . S
O798 Mn793 2.121 . S
O798 C806 1.258 . S
C799 N800 1.326 . S
C799 C803 1.460 . S
C799 H805 0.929 . S
N800 Mn793 2.257 . S
N800 C799 1.326 . S
N800 C804 1.362 . S
C801 C802 1.258 . S
C801 C804 1.431 . S
C801 C821 1.449 . S
C802 C801 1.258 . S
C802 C803 1.477 . S
C802 H822 0.931 . S
C803 C799 1.460 . S
C803 C802 1.477 . S
C803 H823 0.930 . S
C804 N800 1.362 . S
C804 C801 1.431 . S
C804 C814 1.476 . S
H805 C799 0.929 . S
C806 O797 1.250 . S
C806 O798 1.258 . S
O807 Mn792 2.162 . S
O807 C795 1.281 . S
O808 Mn792 2.297 . S
O808 C795 1.236 . S
N809 Mn793 2.282 . S
N809 C810 1.328 . S
N809 C814 1.318 . S
C810 N809 1.328 . S
C810 C811 1.457 . S
C810 H815 0.929 . S
C811 C810 1.457 . S
C811 C812 1.291 . S
C811 H824 0.931 . S
C812 C811 1.291 . S
C812 C813 1.373 . S
C812 H825 0.929 . S
C813 C812 1.373 . S
C813 C814 1.396 . S
C813 C820 1.403 . S
C814 C804 1.476 . S
C814 N809 1.318 . S
C814 C813 1.396 . S
H815 C810 0.929 . S
O816 Mn792 2.385 . S
O816 C794 1.234 . S
O817 Mn792 2.209 . S
O817 Mn793 2.215 . S
O817 C794 1.283 . S
O818 Mn792 2.094 . S
O818 C796 1.240 . S
O819 Mn793 2.117 . S
O819 C796 1.264 . S
C820 C813 1.403 . S
C820 C821 1.399 . S
C820 H826 0.929 . S
C821 C801 1.449 . S
C821 C820 1.399 . S
C821 H827 0.930 . S
H822 C802 0.931 . S
H823 C803 0.930 . S
H824 C811 0.931 . S
H825 C812 0.929 . S
H826 C820 0.929 . S
H827 C821 0.930 . S
Mn828 O833 2.095 . S
Mn828 O843 2.162 . S
Mn828 O844 2.297 . S
Mn828 O852 2.385 . S
Mn828 O853 2.209 . S
Mn828 O854 2.094 . S
Mn829 O834 2.121 . S
Mn829 N836 2.257 . S
Mn829 N845 2.282 . S
Mn829 O853 2.215 . S
Mn829 O855 2.117 . S
C830 O852 1.234 . S
C830 O853 1.283 . S
C831 O843 1.281 . S
C831 O844 1.236 . S
C832 O854 1.240 . S
C832 O855 1.264 . S
O833 Mn828 2.095 . S
O833 C842 1.250 . S
O834 Mn829 2.121 . S
O834 C842 1.258 . S
C835 N836 1.326 . S
C835 C839 1.460 1_455 S
C835 H841 0.929 . S
N836 Mn829 2.257 . S
N836 C835 1.326 . S
N836 C840 1.362 . S
C837 C838 1.255 1_455 S
C837 C840 1.434 . S
C837 C857 1.449 1_455 S
C838 C837 1.255 1_655 S
C838 C839 1.477 . S
C838 H858 0.931 . S
C839 C835 1.460 1_655 S
C839 C838 1.477 . S
C839 H859 0.930 . S
C840 N836 1.362 . S
C840 C837 1.434 . S
C840 C850 1.476 . S
H841 C835 0.929 . S
C842 O833 1.250 . S
C842 O834 1.258 . S
O843 Mn828 2.162 . S
O843 C831 1.281 . S
O844 Mn828 2.297 . S
O844 C831 1.236 . S
N845 Mn829 2.282 . S
N845 C846 1.328 . S
N845 C850 1.318 . S
C846 N845 1.328 . S
C846 C847 1.457 . S
C846 H851 0.929 . S
C847 C846 1.457 . S
C847 C848 1.291 . S
C847 H860 0.931 . S
C848 C847 1.291 . S
C848 C849 1.373 . S
C848 H861 0.929 . S
C849 C848 1.373 . S
C849 C850 1.396 . S
C849 C856 1.403 . S
C850 C840 1.476 . S
C850 N845 1.318 . S
C850 C849 1.396 . S
H851 C846 0.929 . S
O852 Mn828 2.385 . S
O852 C830 1.234 . S
O853 Mn828 2.209 . S
O853 Mn829 2.215 . S
O853 C830 1.283 . S
O854 Mn828 2.094 . S
O854 C832 1.240 . S
O855 Mn829 2.117 . S
O855 C832 1.264 . S
C856 C849 1.403 . S
C856 C857 1.399 1_455 S
C856 H862 0.929 . S
C857 C837 1.449 1_655 S
C857 C856 1.399 1_655 S
C857 H863 0.930 . S
H858 C838 0.931 . S
H859 C839 0.930 . S
H860 C847 0.931 . S
H861 C848 0.929 . S
H862 C856 0.929 . S
H863 C857 0.930 . S
Mn864 O869 2.095 . S
Mn864 O879 2.162 . S
Mn864 O880 2.297 . S
Mn864 O888 2.385 . S
Mn864 O889 2.209 . S
Mn864 O890 2.094 . S
Mn865 O870 2.121 . S
Mn865 N872 2.257 . S
Mn865 N881 2.282 . S
Mn865 O889 2.215 . S
Mn865 O891 2.117 . S
C866 O888 1.234 . S
C866 O889 1.283 . S
C867 O879 1.281 . S
C867 O880 1.236 . S
C868 O890 1.240 . S
C868 O891 1.264 . S
O869 Mn864 2.095 . S
O869 C878 1.250 . S
O870 Mn865 2.121 . S
O870 C878 1.258 . S
C871 N872 1.326 . S
C871 C875 1.460 . S
C871 H877 0.929 . S
N872 Mn865 2.257 . S
N872 C871 1.326 . S
N872 C876 1.362 . S
C873 C874 1.258 . S
C873 C876 1.431 . S
C873 C893 1.449 . S
C874 C873 1.258 . S
C874 C875 1.477 . S
C874 H894 0.931 . S
C875 C871 1.460 . S
C875 C874 1.477 . S
C875 H895 0.930 . S
C876 N872 1.362 . S
C876 C873 1.431 . S
C876 C886 1.476 . S
H877 C871 0.929 . S
C878 O869 1.250 . S
C878 O870 1.258 . S
O879 Mn864 2.162 . S
O879 C867 1.281 . S
O880 Mn864 2.297 . S
O880 C867 1.236 . S
N881 Mn865 2.282 . S
N881 C882 1.328 . S
N881 C886 1.318 . S
C882 N881 1.328 . S
C882 C883 1.457 . S
C882 H887 0.929 . S
C883 C882 1.457 . S
C883 C884 1.291 . S
C883 H896 0.931 . S
C884 C883 1.291 . S
C884 C885 1.373 . S
C884 H897 0.929 . S
C885 C884 1.373 . S
C885 C886 1.396 . S
C885 C892 1.403 . S
C886 C876 1.476 . S
C886 N881 1.318 . S
C886 C885 1.396 . S
H887 C882 0.929 . S
O888 Mn864 2.385 . S
O888 C866 1.234 . S
O889 Mn864 2.209 . S
O889 Mn865 2.215 . S
O889 C866 1.283 . S
O890 Mn864 2.094 . S
O890 C868 1.240 . S
O891 Mn865 2.117 . S
O891 C868 1.264 . S
C892 C885 1.403 . S
C892 C893 1.399 . S
C892 H898 0.929 . S
C893 C873 1.449 . S
C893 C892 1.399 . S
C893 H899 0.930 . S
H894 C874 0.931 . S
H895 C875 0.930 . S
H896 C883 0.931 . S
H897 C884 0.929 . S
H898 C892 0.929 . S
H899 C893 0.930 . S
Mn900 O905 2.095 . S
Mn900 O915 2.162 . S
Mn900 O916 2.297 . S
Mn900 O924 2.385 . S
Mn900 O925 2.209 . S
Mn900 O926 2.094 . S
Mn901 O906 2.121 . S
Mn901 N908 2.257 . S
Mn901 N917 2.282 . S
Mn901 O925 2.215 . S
Mn901 O927 2.117 . S
C902 O924 1.234 . S
C902 O925 1.283 . S
C903 O915 1.281 . S
C903 O916 1.236 . S
C904 O926 1.240 . S
C904 O927 1.264 . S
O905 Mn900 2.095 . S
O905 C914 1.250 . S
O906 Mn901 2.121 . S
O906 C914 1.258 . S
C907 N908 1.326 . S
C907 C911 1.460 . S
C907 H913 0.929 . S
N908 Mn901 2.257 . S
N908 C907 1.326 . S
N908 C912 1.362 . S
C909 C910 1.258 . S
C909 C912 1.431 . S
C909 C929 1.449 . S
C910 C909 1.258 . S
C910 C911 1.477 . S
C910 H930 0.931 . S
C911 C907 1.460 . S
C911 C910 1.477 . S
C911 H931 0.930 . S
C912 N908 1.362 . S
C912 C909 1.431 . S
C912 C922 1.476 . S
H913 C907 0.929 . S
C914 O905 1.250 . S
C914 O906 1.258 . S
O915 Mn900 2.162 . S
O915 C903 1.281 . S
O916 Mn900 2.297 . S
O916 C903 1.236 . S
N917 Mn901 2.282 . S
N917 C918 1.328 . S
N917 C922 1.318 . S
C918 N917 1.328 . S
C918 C919 1.457 . S
C918 H923 0.929 . S
C919 C918 1.457 . S
C919 C920 1.291 . S
C919 H932 0.931 . S
C920 C919 1.291 . S
C920 C921 1.373 . S
C920 H933 0.929 . S
C921 C920 1.373 . S
C921 C922 1.396 . S
C921 C928 1.403 . S
C922 C912 1.476 . S
C922 N917 1.318 . S
C922 C921 1.396 . S
H923 C918 0.929 . S
O924 Mn900 2.385 . S
O924 C902 1.234 . S
O925 Mn900 2.209 . S
O925 Mn901 2.215 . S
O925 C902 1.283 . S
O926 Mn900 2.094 . S
O926 C904 1.240 . S
O927 Mn901 2.117 . S
O927 C904 1.264 . S
C928 C921 1.403 . S
C928 C929 1.399 . S
C928 H934 0.929 . S
C929 C909 1.449 . S
C929 C928 1.399 . S
C929 H935 0.930 . S
H930 C910 0.931 . S
H931 C911 0.930 . S
H932 C919 0.931 . S
H933 C920 0.929 . S
H934 C928 0.929 . S
H935 C929 0.930 . S
Mn936 O941 2.095 . S
Mn936 O951 2.162 . S
Mn936 O952 2.297 . S
Mn936 O960 2.385 . S
Mn936 O961 2.209 . S
Mn936 O962 2.094 . S
Mn937 O942 2.121 . S
Mn937 N944 2.257 . S
Mn937 N953 2.282 . S
Mn937 O961 2.215 . S
Mn937 O963 2.117 . S
C938 O960 1.234 . S
C938 O961 1.283 . S
C939 O951 1.281 . S
C939 O952 1.236 . S
C940 O962 1.240 . S
C940 O963 1.264 . S
O941 Mn936 2.095 . S
O941 C950 1.250 . S
O942 Mn937 2.121 . S
O942 C950 1.258 . S
C943 N944 1.326 . S
C943 C947 1.460 . S
C943 H949 0.929 . S
N944 Mn937 2.257 . S
N944 C943 1.326 . S
N944 C948 1.362 . S
C945 C946 1.258 . S
C945 C948 1.431 . S
C945 C965 1.449 . S
C946 C945 1.258 . S
C946 C947 1.477 . S
C946 H966 0.931 . S
C947 C943 1.460 . S
C947 C946 1.477 . S
C947 H967 0.930 . S
C948 N944 1.362 . S
C948 C945 1.431 . S
C948 C958 1.476 . S
H949 C943 0.929 . S
C950 O941 1.250 . S
C950 O942 1.258 . S
O951 Mn936 2.162 . S
O951 C939 1.281 . S
O952 Mn936 2.297 . S
O952 C939 1.236 . S
N953 Mn937 2.282 . S
N953 C954 1.328 . S
N953 C958 1.318 . S
C954 N953 1.328 . S
C954 C955 1.457 . S
C954 H959 0.929 . S
C955 C954 1.457 . S
C955 C956 1.291 . S
C955 H968 0.931 . S
C956 C955 1.291 . S
C956 C957 1.373 . S
C956 H969 0.929 . S
C957 C956 1.373 . S
C957 C958 1.396 . S
C957 C964 1.403 . S
C958 C948 1.476 . S
C958 N953 1.318 . S
C958 C957 1.396 . S
H959 C954 0.929 . S
O960 Mn936 2.385 . S
O960 C938 1.234 . S
O961 Mn936 2.209 . S
O961 Mn937 2.215 . S
O961 C938 1.283 . S
O962 Mn936 2.094 . S
O962 C940 1.240 . S
O963 Mn937 2.117 . S
O963 C940 1.264 . S
C964 C957 1.403 . S
C964 C965 1.399 . S
C964 H970 0.929 . S
C965 C945 1.449 . S
C965 C964 1.399 . S
C965 H971 0.930 . S
H966 C946 0.931 . S
H967 C947 0.930 . S
H968 C955 0.931 . S
H969 C956 0.929 . S
H970 C964 0.929 . S
H971 C965 0.930 . S
Mn972 O977 2.095 . S
Mn972 O987 2.162 . S
Mn972 O988 2.297 . S
Mn972 O996 2.385 . S
Mn972 O997 2.209 . S
Mn972 O998 2.094 . S
Mn973 O978 2.121 . S
Mn973 N980 2.257 . S
Mn973 N989 2.282 . S
Mn973 O997 2.215 . S
Mn973 O999 2.117 . S
C974 O996 1.234 . S
C974 O997 1.283 . S
C975 O987 1.281 . S
C975 O988 1.236 . S
C976 O998 1.240 . S
C976 O999 1.264 . S
O977 Mn972 2.095 . S
O977 C986 1.250 . S
O978 Mn973 2.121 . S
O978 C986 1.258 . S
C979 N980 1.326 . S
C979 C983 1.460 . S
C979 H985 0.929 . S
N980 Mn973 2.257 . S
N980 C979 1.326 . S
N980 C984 1.362 . S
C981 C982 1.258 . S
C981 C984 1.431 . S
C981 C1001 1.449 . S
C982 C981 1.258 . S
C982 C983 1.477 . S
C982 H1002 0.931 . S
C983 C979 1.460 . S
C983 C982 1.477 . S
C983 H1003 0.930 . S
C984 N980 1.362 . S
C984 C981 1.431 . S
C984 C994 1.476 . S
H985 C979 0.929 . S
C986 O977 1.250 . S
C986 O978 1.258 . S
O987 Mn972 2.162 . S
O987 C975 1.281 . S
O988 Mn972 2.297 . S
O988 C975 1.236 . S
N989 Mn973 2.282 . S
N989 C990 1.328 . S
N989 C994 1.318 . S
C990 N989 1.328 . S
C990 C991 1.457 1_554 S
C990 H995 0.929 . S
C991 C990 1.457 1_556 S
C991 C992 1.291 . S
C991 H1004 0.931 . S
C992 C991 1.291 . S
C992 C993 1.373 1_556 S
C992 H1005 0.929 . S
C993 C992 1.373 1_554 S
C993 C994 1.396 . S
C993 C1000 1.403 . S
C994 C984 1.476 . S
C994 N989 1.318 . S
C994 C993 1.396 . S
H995 C990 0.929 . S
O996 Mn972 2.385 . S
O996 C974 1.234 . S
O997 Mn972 2.209 . S
O997 Mn973 2.215 . S
O997 C974 1.283 . S
O998 Mn972 2.094 . S
O998 C976 1.240 . S
O999 Mn973 2.117 . S
O999 C976 1.264 . S
C1000 C993 1.403 . S
C1000 C1001 1.399 . S
C1000 H1006 0.929 1_554 S
C1001 C981 1.449 . S
C1001 C1000 1.399 . S
C1001 H1007 0.930 . S
H1002 C982 0.931 . S
H1003 C983 0.930 . S
H1004 C991 0.931 . S
H1005 C992 0.929 . S
H1006 C1000 0.929 1_556 S
H1007 C1001 0.930 . S
Mn1008 O1013 2.095 . S
Mn1008 O1023 2.162 . S
Mn1008 O1024 2.297 . S
Mn1008 O1032 2.385 . S
Mn1008 O1033 2.209 . S
Mn1008 O1034 2.094 . S
Mn1009 O1014 2.121 . S
Mn1009 N1016 2.257 . S
Mn1009 N1025 2.282 . S
Mn1009 O1033 2.215 . S
Mn1009 O1035 2.117 . S
C1010 O1032 1.234 . S
C1010 O1033 1.283 . S
C1011 O1023 1.281 . S
C1011 O1024 1.236 . S
C1012 O1034 1.240 . S
C1012 O1035 1.264 . S
O1013 Mn1008 2.095 . S
O1013 C1022 1.250 . S
O1014 Mn1009 2.121 . S
O1014 C1022 1.258 . S
C1015 N1016 1.326 . S
C1015 C1019 1.460 . S
C1015 H1021 0.929 . S
N1016 Mn1009 2.257 . S
N1016 C1015 1.326 . S
N1016 C1020 1.362 . S
C1017 C1018 1.258 . S
C1017 C1020 1.431 . S
C1017 C1037 1.449 . S
C1018 C1017 1.258 . S
C1018 C1019 1.477 . S
C1018 H1038 0.931 . S
C1019 C1015 1.460 . S
C1019 C1018 1.477 . S
C1019 H1039 0.930 . S
C1020 N1016 1.362 . S
C1020 C1017 1.431 . S
C1020 C1030 1.476 . S
H1021 C1015 0.929 . S
C1022 O1013 1.250 . S
C1022 O1014 1.258 . S
O1023 Mn1008 2.162 . S
O1023 C1011 1.281 . S
O1024 Mn1008 2.297 . S
O1024 C1011 1.236 . S
N1025 Mn1009 2.282 . S
N1025 C1026 1.328 . S
N1025 C1030 1.318 . S
C1026 N1025 1.328 . S
C1026 C1027 1.457 . S
C1026 H1031 0.929 . S
C1027 C1026 1.457 . S
C1027 C1028 1.291 . S
C1027 H1040 0.931 . S
C1028 C1027 1.291 . S
C1028 C1029 1.373 . S
C1028 H1041 0.929 . S
C1029 C1028 1.373 . S
C1029 C1030 1.396 . S
C1029 C1036 1.403 . S
C1030 C1020 1.476 . S
C1030 N1025 1.318 . S
C1030 C1029 1.396 . S
H1031 C1026 0.929 . S
O1032 Mn1008 2.385 . S
O1032 C1010 1.234 . S
O1033 Mn1008 2.209 . S
O1033 Mn1009 2.215 . S
O1033 C1010 1.283 . S
O1034 Mn1008 2.094 . S
O1034 C1012 1.240 . S
O1035 Mn1009 2.117 . S
O1035 C1012 1.264 . S
C1036 C1029 1.403 . S
C1036 C1037 1.399 . S
C1036 H1042 0.929 . S
C1037 C1017 1.449 . S
C1037 C1036 1.399 . S
C1037 H1043 0.930 . S
H1038 C1018 0.931 . S
H1039 C1019 0.930 . S
H1040 C1027 0.931 . S
H1041 C1028 0.929 . S
H1042 C1036 0.929 . S
H1043 C1037 0.930 . S
Mn1044 O1049 2.095 . S
Mn1044 O1059 2.162 . S
Mn1044 O1060 2.297 . S
Mn1044 O1068 2.385 . S
Mn1044 O1069 2.209 . S
Mn1044 O1070 2.094 . S
Mn1045 O1050 2.121 . S
Mn1045 N1052 2.257 . S
Mn1045 N1061 2.282 . S
Mn1045 O1069 2.215 . S
Mn1045 O1071 2.117 . S
C1046 O1068 1.234 . S
C1046 O1069 1.283 . S
C1047 O1059 1.281 . S
C1047 O1060 1.236 . S
C1048 O1070 1.240 . S
C1048 O1071 1.264 . S
O1049 Mn1044 2.095 . S
O1049 C1058 1.250 . S
O1050 Mn1045 2.121 . S
O1050 C1058 1.258 . S
C1051 N1052 1.326 . S
C1051 C1055 1.460 . S
C1051 H1057 0.929 . S
N1052 Mn1045 2.257 . S
N1052 C1051 1.326 . S
N1052 C1056 1.362 . S
C1053 C1054 1.258 . S
C1053 C1056 1.431 . S
C1053 C1073 1.449 . S
C1054 C1053 1.258 . S
C1054 C1055 1.477 . S
C1054 H1074 0.931 . S
C1055 C1051 1.460 . S
C1055 C1054 1.477 . S
C1055 H1075 0.930 . S
C1056 N1052 1.362 . S
C1056 C1053 1.431 . S
C1056 C1066 1.476 . S
H1057 C1051 0.929 . S
C1058 O1049 1.250 . S
C1058 O1050 1.258 . S
O1059 Mn1044 2.162 . S
O1059 C1047 1.281 . S
O1060 Mn1044 2.297 . S
O1060 C1047 1.236 . S
N1061 Mn1045 2.282 . S
N1061 C1062 1.328 . S
N1061 C1066 1.318 . S
C1062 N1061 1.328 . S
C1062 C1063 1.457 . S
C1062 H1067 0.929 . S
C1063 C1062 1.457 . S
C1063 C1064 1.291 . S
C1063 H1076 0.931 . S
C1064 C1063 1.291 . S
C1064 C1065 1.373 . S
C1064 H1077 0.929 . S
C1065 C1064 1.373 . S
C1065 C1066 1.396 . S
C1065 C1072 1.403 . S
C1066 C1056 1.476 . S
C1066 N1061 1.318 . S
C1066 C1065 1.396 . S
H1067 C1062 0.929 . S
O1068 Mn1044 2.385 . S
O1068 C1046 1.234 . S
O1069 Mn1044 2.209 . S
O1069 Mn1045 2.215 . S
O1069 C1046 1.283 . S
O1070 Mn1044 2.094 . S
O1070 C1048 1.240 . S
O1071 Mn1045 2.117 . S
O1071 C1048 1.264 . S
C1072 C1065 1.403 . S
C1072 C1073 1.399 . S
C1072 H1078 0.929 . S
C1073 C1053 1.449 . S
C1073 C1072 1.399 . S
C1073 H1079 0.930 . S
H1074 C1054 0.931 . S
H1075 C1055 0.930 . S
H1076 C1063 0.931 . S
H1077 C1064 0.929 . S
H1078 C1072 0.929 . S
H1079 C1073 0.930 . S
Mn1080 O1085 2.095 . S
Mn1080 O1095 2.162 . S
Mn1080 O1096 2.297 . S
Mn1080 O1104 2.385 . S
Mn1080 O1105 2.209 . S
Mn1080 O1106 2.094 . S
Mn1081 O1086 2.121 . S
Mn1081 N1088 2.257 1_556 S
Mn1081 N1097 2.282 . S
Mn1081 O1105 2.215 . S
Mn1081 O1107 2.117 . S
C1082 O1104 1.234 . S
C1082 O1105 1.283 . S
C1083 O1095 1.281 . S
C1083 O1096 1.236 . S
C1084 O1106 1.240 . S
C1084 O1107 1.264 . S
O1085 Mn1080 2.095 . S
O1085 C1094 1.250 . S
O1086 Mn1081 2.121 . S
O1086 C1094 1.258 . S
C1087 N1088 1.326 . S
C1087 C1091 1.460 . S
C1087 H1093 0.929 . S
N1088 Mn1081 2.257 1_554 S
N1088 C1087 1.326 . S
N1088 C1092 1.362 . S
C1089 C1090 1.258 . S
C1089 C1092 1.431 . S
C1089 C1109 1.449 . S
C1090 C1089 1.258 . S
C1090 C1091 1.477 . S
C1090 H1110 0.931 . S
C1091 C1087 1.460 . S
C1091 C1090 1.477 . S
C1091 H1111 0.930 . S
C1092 N1088 1.362 . S
C1092 C1089 1.431 . S
C1092 C1102 1.476 1_554 S
H1093 C1087 0.929 . S
C1094 O1085 1.250 . S
C1094 O1086 1.258 . S
O1095 Mn1080 2.162 . S
O1095 C1083 1.281 . S
O1096 Mn1080 2.297 . S
O1096 C1083 1.236 . S
N1097 Mn1081 2.282 . S
N1097 C1098 1.328 . S
N1097 C1102 1.318 . S
C1098 N1097 1.328 . S
C1098 C1099 1.457 . S
C1098 H1103 0.929 . S
C1099 C1098 1.457 . S
C1099 C1100 1.291 . S
C1099 H1112 0.931 . S
C1100 C1099 1.291 . S
C1100 C1101 1.373 . S
C1100 H1113 0.929 . S
C1101 C1100 1.373 . S
C1101 C1102 1.396 . S
C1101 C1108 1.403 1_556 S
C1102 C1092 1.476 1_556 S
C1102 N1097 1.318 . S
C1102 C1101 1.396 . S
H1103 C1098 0.929 . S
O1104 Mn1080 2.385 . S
O1104 C1082 1.234 . S
O1105 Mn1080 2.209 . S
O1105 Mn1081 2.215 . S
O1105 C1082 1.283 . S
O1106 Mn1080 2.094 . S
O1106 C1084 1.240 . S
O1107 Mn1081 2.117 . S
O1107 C1084 1.264 . S
C1108 C1101 1.403 1_554 S
C1108 C1109 1.399 . S
C1108 H1114 0.929 . S
C1109 C1089 1.449 . S
C1109 C1108 1.399 . S
C1109 H1115 0.930 . S
H1110 C1090 0.931 . S
H1111 C1091 0.930 . S
H1112 C1099 0.931 . S
H1113 C1100 0.929 . S
H1114 C1108 0.929 . S
H1115 C1109 0.930 . S
Mn1116 O1121 2.095 . S
Mn1116 O1131 2.162 . S
Mn1116 O1132 2.297 . S
Mn1116 O1140 2.385 . S
Mn1116 O1141 2.209 . S
Mn1116 O1142 2.094 . S
Mn1117 O1122 2.121 . S
Mn1117 N1124 2.257 . S
Mn1117 N1133 2.282 . S
Mn1117 O1141 2.215 . S
Mn1117 O1143 2.117 . S
C1118 O1140 1.234 . S
C1118 O1141 1.283 . S
C1119 O1131 1.281 . S
C1119 O1132 1.236 . S
C1120 O1142 1.240 . S
C1120 O1143 1.264 . S
O1121 Mn1116 2.095 . S
O1121 C1130 1.250 . S
O1122 Mn1117 2.121 . S
O1122 C1130 1.258 . S
C1123 N1124 1.326 . S
C1123 C1127 1.460 . S
C1123 H1129 0.929 . S
N1124 Mn1117 2.257 . S
N1124 C1123 1.326 . S
N1124 C1128 1.362 . S
C1125 C1126 1.258 . S
C1125 C1128 1.431 . S
C1125 C1145 1.449 . S
C1126 C1125 1.258 . S
C1126 C1127 1.477 . S
C1126 H1146 0.931 . S
C1127 C1123 1.460 . S
C1127 C1126 1.477 . S
C1127 H1147 0.930 . S
C1128 N1124 1.362 . S
C1128 C1125 1.431 . S
C1128 C1138 1.476 . S
H1129 C1123 0.929 . S
C1130 O1121 1.250 . S
C1130 O1122 1.258 . S
O1131 Mn1116 2.162 . S
O1131 C1119 1.281 . S
O1132 Mn1116 2.297 . S
O1132 C1119 1.236 . S
N1133 Mn1117 2.282 . S
N1133 C1134 1.328 . S
N1133 C1138 1.318 . S
C1134 N1133 1.328 . S
C1134 C1135 1.457 . S
C1134 H1139 0.929 . S
C1135 C1134 1.457 . S
C1135 C1136 1.291 . S
C1135 H1148 0.931 . S
C1136 C1135 1.291 . S
C1136 C1137 1.373 . S
C1136 H1149 0.929 . S
C1137 C1136 1.373 . S
C1137 C1138 1.396 . S
C1137 C1144 1.403 . S
C1138 C1128 1.476 . S
C1138 N1133 1.318 . S
C1138 C1137 1.396 . S
H1139 C1134 0.929 . S
O1140 Mn1116 2.385 . S
O1140 C1118 1.234 . S
O1141 Mn1116 2.209 . S
O1141 Mn1117 2.215 . S
O1141 C1118 1.283 . S
O1142 Mn1116 2.094 . S
O1142 C1120 1.240 . S
O1143 Mn1117 2.117 . S
O1143 C1120 1.264 . S
C1144 C1137 1.403 . S
C1144 C1145 1.399 . S
C1144 H1150 0.929 . S
C1145 C1125 1.449 . S
C1145 C1144 1.399 . S
C1145 H1151 0.930 . S
H1146 C1126 0.931 . S
H1147 C1127 0.930 . S
H1148 C1135 0.931 . S
H1149 C1136 0.929 . S
H1150 C1144 0.929 . S
H1151 C1145 0.930 . S
H1152 C1164 0.930 . S
H1153 C1166 0.930 . S
H1154 C1167 0.930 1_565 S
H1155 C1171 0.959 . S
H1156 C1171 0.959 . S
H1157 C1171 0.961 . S
H1158 C1172 0.960 . S
H1159 C1172 0.961 . S
H1160 C1172 0.959 . S
H1161 C1175 0.929 1_554 S
H1162 C1176 0.931 . S
H1163 C1178 0.930 . S
C1164 H1152 0.930 . S
C1164 C1165 1.399 . S
C1164 C1169 1.399 1_554 S
C1165 C1164 1.399 . S
C1165 C1166 1.376 . S
C1166 H1153 0.930 . S
C1166 C1165 1.376 . S
C1166 C1167 1.388 . S
C1167 H1154 0.930 1_545 S
C1167 C1166 1.388 . S
C1167 C1168 1.390 . S
C1168 C1167 1.390 . S
C1168 C1169 1.394 1_554 S
C1168 C1174 1.452 1_444 S
C1169 C1164 1.399 1_556 S
C1169 C1168 1.394 1_556 S
C1169 C1170 1.516 . S
C1170 C1169 1.516 . S
C1170 C1171 1.502 1_455 S
C1170 C1172 1.561 . S
C1170 C1173 1.526 1_455 S
C1171 H1155 0.959 . S
C1171 H1156 0.959 . S
C1171 H1157 0.961 . S
C1171 C1170 1.502 1_655 S
C1172 H1158 0.960 . S
C1172 H1159 0.961 . S
C1172 H1160 0.959 . S
C1172 C1170 1.561 . S
C1173 C1170 1.526 1_655 S
C1173 C1174 1.403 1_545 S
C1173 C1178 1.390 1_545 S
C1174 C1168 1.452 1_666 S
C1174 C1173 1.403 1_565 S
C1174 C1175 1.405 . S
C1175 H1161 0.929 1_556 S
C1175 C1174 1.405 . S
C1175 C1176 1.385 . S
C1176 H1162 0.931 . S
C1176 C1175 1.385 . S
C1176 C1177 1.389 . S
C1177 C1176 1.389 . S
C1177 C1178 1.387 . S
C1178 H1163 0.930 . S
C1178 C1173 1.390 1_565 S
C1178 C1177 1.387 . S
H1179 C1191 0.930 . S
H1180 C1193 0.930 . S
H1181 C1194 0.930 . S
H1182 C1198 0.959 . S
H1183 C1198 0.959 . S
H1184 C1198 0.961 . S
H1185 C1199 0.960 . S
H1186 C1199 0.961 . S
H1187 C1199 0.959 . S
H1188 C1202 0.929 . S
H1189 C1203 0.931 . S
H1190 C1205 0.930 . S
C1191 H1179 0.930 . S
C1191 C1192 1.399 . S
C1191 C1196 1.399 . S
C1192 C1191 1.399 . S
C1192 C1193 1.376 . S
C1193 H1180 0.930 . S
C1193 C1192 1.376 . S
C1193 C1194 1.388 . S
C1194 H1181 0.930 . S
C1194 C1193 1.388 . S
C1194 C1195 1.390 . S
C1195 C1194 1.390 . S
C1195 C1196 1.394 . S
C1195 C1201 1.465 . S
C1196 C1191 1.399 . S
C1196 C1195 1.394 . S
C1196 C1197 1.516 . S
C1197 C1196 1.516 . S
C1197 C1198 1.502 . S
C1197 C1199 1.561 . S
C1197 C1200 1.526 . S
C1198 H1182 0.959 . S
C1198 H1183 0.959 . S
C1198 H1184 0.961 . S
C1198 C1197 1.502 . S
C1199 H1185 0.960 . S
C1199 H1186 0.961 . S
C1199 H1187 0.959 . S
C1199 C1197 1.561 . S
C1200 C1197 1.526 . S
C1200 C1201 1.396 . S
C1200 C1205 1.390 . S
C1201 C1195 1.465 . S
C1201 C1200 1.396 . S
C1201 C1202 1.399 . S
C1202 H1188 0.929 . S
C1202 C1201 1.399 . S
C1202 C1203 1.385 . S
C1203 H1189 0.931 . S
C1203 C1202 1.385 . S
C1203 C1204 1.389 . S
C1204 C1203 1.389 . S
C1204 C1205 1.387 . S
C1205 H1190 0.930 . S
C1205 C1200 1.390 . S
C1205 C1204 1.387 . S
H1206 C1218 0.930 . S
H1207 C1220 0.930 . S
H1208 C1221 0.930 . S
H1209 C1225 0.959 . S
H1210 C1225 0.959 . S
H1211 C1225 0.961 . S
H1212 C1226 0.960 . S
H1213 C1226 0.961 . S
H1214 C1226 0.959 . S
H1215 C1229 0.929 . S
H1216 C1230 0.937 . S
H1217 C1232 0.930 . S
C1218 H1206 0.930 . S
C1218 C1219 1.399 . S
C1218 C1223 1.399 . S
C1219 C1218 1.399 . S
C1219 C1220 1.376 . S
C1220 H1207 0.930 . S
C1220 C1219 1.376 . S
C1220 C1221 1.388 . S
C1221 H1208 0.930 . S
C1221 C1220 1.388 . S
C1221 C1222 1.390 . S
C1222 C1221 1.390 . S
C1222 C1223 1.394 . S
C1222 C1228 1.465 . S
C1223 C1218 1.399 . S
C1223 C1222 1.394 . S
C1223 C1224 1.516 1_565 S
C1224 C1223 1.516 1_545 S
C1224 C1225 1.502 . S
C1224 C1226 1.561 . S
C1224 C1227 1.526 . S
C1225 H1209 0.959 . S
C1225 H1210 0.959 . S
C1225 H1211 0.961 . S
C1225 C1224 1.502 . S
C1226 H1212 0.960 . S
C1226 H1213 0.961 . S
C1226 H1214 0.959 . S
C1226 C1224 1.561 . S
C1227 C1224 1.526 . S
C1227 C1228 1.396 1_545 S
C1227 C1232 1.390 . S
C1228 C1222 1.465 . S
C1228 C1227 1.396 1_565 S
C1228 C1229 1.399 . S
C1229 H1215 0.929 . S
C1229 C1228 1.399 . S
C1229 C1230 1.414 . S
C1230 H1216 0.937 . S
C1230 C1229 1.414 . S
C1230 C1231 1.355 1_565 S
C1231 C1230 1.355 1_545 S
C1231 C1232 1.387 . S
C1232 H1217 0.930 . S
C1232 C1227 1.390 . S
C1232 C1231 1.387 . S
H1233 C1245 0.930 . S
H1234 C1247 0.930 . S
H1235 C1248 0.930 . S
H1236 C1252 0.959 . S
H1237 C1252 0.959 . S
H1238 C1252 0.961 . S
H1239 C1253 0.960 . S
H1240 C1253 0.961 . S
H1241 C1253 0.959 . S
H1242 C1256 0.929 . S
H1243 C1257 0.931 . S
H1244 C1259 0.930 . S
C1245 H1233 0.930 . S
C1245 C1246 1.399 . S
C1245 C1250 1.399 . S
C1246 C1245 1.399 . S
C1246 C1247 1.376 . S
C1247 H1234 0.930 . S
C1247 C1246 1.376 . S
C1247 C1248 1.388 . S
C1248 H1235 0.930 . S
C1248 C1247 1.388 . S
C1248 C1249 1.390 . S
C1249 C1248 1.390 . S
C1249 C1250 1.394 . S
C1249 C1255 1.465 . S
C1250 C1245 1.399 . S
C1250 C1249 1.394 . S
C1250 C1251 1.516 . S
C1251 C1250 1.516 . S
C1251 C1252 1.502 . S
C1251 C1253 1.561 . S
C1251 C1254 1.526 . S
C1252 H1236 0.959 . S
C1252 H1237 0.959 . S
C1252 H1238 0.961 . S
C1252 C1251 1.502 . S
C1253 H1239 0.960 . S
C1253 H1240 0.961 . S
C1253 H1241 0.959 . S
C1253 C1251 1.561 . S
C1254 C1251 1.526 . S
C1254 C1255 1.396 . S
C1254 C1259 1.390 . S
C1255 C1249 1.465 . S
C1255 C1254 1.396 . S
C1255 C1256 1.399 . S
C1256 H1242 0.929 . S
C1256 C1255 1.399 . S
C1256 C1257 1.385 . S
C1257 H1243 0.931 . S
C1257 C1256 1.385 . S
C1257 C1258 1.389 . S
C1258 C1257 1.389 . S
C1258 C1259 1.387 . S
C1259 H1244 0.930 . S
C1259 C1254 1.390 . S
C1259 C1258 1.387 . S
H1260 C1272 0.930 . S
H1261 C1274 0.930 . S
H1262 C1275 0.930 . S
H1263 C1279 0.959 . S
H1264 C1279 0.959 . S
H1265 C1279 0.961 1_455 S
H1266 C1280 0.960 . S
H1267 C1280 0.961 . S
H1268 C1280 0.959 . S
H1269 C1283 0.929 . S
H1270 C1284 0.931 . S
H1271 C1286 0.930 . S
C1272 H1260 0.930 . S
C1272 C1273 1.399 . S
C1272 C1277 1.399 . S
C1273 C1272 1.399 . S
C1273 C1274 1.376 . S
C1274 H1261 0.930 . S
C1274 C1273 1.376 . S
C1274 C1275 1.388 1_465 S
C1275 H1262 0.930 . S
C1275 C1274 1.388 1_645 S
C1275 C1276 1.390 . S
C1276 C1275 1.390 . S
C1276 C1277 1.394 1_645 S
C1276 C1282 1.465 . S
C1277 C1272 1.399 . S
C1277 C1276 1.394 1_465 S
C1277 C1278 1.516 1_565 S
C1278 C1277 1.516 1_545 S
C1278 C1279 1.502 1_445 S
C1278 C1280 1.561 . S
C1278 C1281 1.526 1_455 S
C1279 H1263 0.959 . S
C1279 H1264 0.959 . S
C1279 H1265 0.961 1_655 S
C1279 C1278 1.502 1_665 S
C1280 H1266 0.960 . S
C1280 H1267 0.961 . S
C1280 H1268 0.959 . S
C1280 C1278 1.561 . S
C1281 C1278 1.526 1_655 S
C1281 C1282 1.396 . S
C1281 C1286 1.390 . S
C1282 C1276 1.465 . S
C1282 C1281 1.396 . S
C1282 C1283 1.399 . S
C1283 H1269 0.929 . S
C1283 C1282 1.399 . S
C1283 C1284 1.385 . S
C1284 H1270 0.931 . S
C1284 C1283 1.385 . S
C1284 C1285 1.389 . S
C1285 C1284 1.389 . S
C1285 C1286 1.387 . S
C1286 H1271 0.930 . S
C1286 C1281 1.390 . S
C1286 C1285 1.387 . S
H1287 C1299 0.930 . S
H1288 C1301 0.930 . S
H1289 C1302 0.930 . S
H1290 C1306 0.959 . S
H1291 C1306 0.959 . S
H1292 C1306 0.961 . S
H1293 C1307 0.960 . S
H1294 C1307 0.961 . S
H1295 C1307 0.959 . S
H1296 C1310 0.929 . S
H1297 C1311 0.931 . S
H1298 C1313 0.930 . S
C1299 H1287 0.930 . S
C1299 C1300 1.399 . S
C1299 C1304 1.399 . S
C1300 C1299 1.399 . S
C1300 C1301 1.376 . S
C1301 H1288 0.930 . S
C1301 C1300 1.376 . S
C1301 C1302 1.388 . S
C1302 H1289 0.930 . S
C1302 C1301 1.388 . S
C1302 C1303 1.390 . S
C1303 C1302 1.390 . S
C1303 C1304 1.394 . S
C1303 C1309 1.465 . S
C1304 C1299 1.399 . S
C1304 C1303 1.394 . S
C1304 C1305 1.516 . S
C1305 C1304 1.516 . S
C1305 C1306 1.502 . S
C1305 C1307 1.561 . S
C1305 C1308 1.526 . S
C1306 H1290 0.959 . S
C1306 H1291 0.959 . S
C1306 H1292 0.961 . S
C1306 C1305 1.502 . S
C1307 H1293 0.960 . S
C1307 H1294 0.961 . S
C1307 H1295 0.959 . S
C1307 C1305 1.561 . S
C1308 C1305 1.526 . S
C1308 C1309 1.396 . S
C1308 C1313 1.390 . S
C1309 C1303 1.465 . S
C1309 C1308 1.396 . S
C1309 C1310 1.399 . S
C1310 H1296 0.929 . S
C1310 C1309 1.399 . S
C1310 C1311 1.385 . S
C1311 H1297 0.931 . S
C1311 C1310 1.385 . S
C1311 C1312 1.389 . S
C1312 C1311 1.389 . S
C1312 C1313 1.387 . S
C1313 H1298 0.930 . S
C1313 C1308 1.390 . S
C1313 C1312 1.387 . S
H1314 C1326 0.930 . S
H1315 C1328 0.937 . S
H1316 C1329 0.930 . S
H1317 C1333 0.959 . S
H1318 C1333 0.959 . S
H1319 C1333 0.961 . S
H1320 C1334 0.960 1_545 S
H1321 C1334 0.961 . S
H1322 C1334 0.959 1_545 S
H1323 C1337 0.929 . S
H1324 C1338 0.931 . S
H1325 C1340 0.930 . S
C1326 H1314 0.930 . S
C1326 C1327 1.399 . S
C1326 C1331 1.399 . S
C1327 C1326 1.399 . S
C1327 C1328 1.376 . S
C1328 H1315 0.937 . S
C1328 C1327 1.376 . S
C1328 C1329 1.388 1_556 S
C1329 H1316 0.930 . S
C1329 C1328 1.388 1_554 S
C1329 C1330 1.390 . S
C1330 C1329 1.390 . S
C1330 C1331 1.394 1_554 S
C1330 C1336 1.465 . S
C1331 C1326 1.399 . S
C1331 C1330 1.394 1_556 S
C1331 C1332 1.516 1_545 S
C1332 C1331 1.516 1_565 S
C1332 C1333 1.502 . S
C1332 C1334 1.561 . S
C1332 C1335 1.526 1_556 S
C1333 H1317 0.959 . S
C1333 H1318 0.959 . S
C1333 H1319 0.961 . S
C1333 C1332 1.502 . S
C1334 H1320 0.960 1_565 S
C1334 H1321 0.961 . S
C1334 H1322 0.959 1_565 S
C1334 C1332 1.561 . S
C1335 C1332 1.526 1_554 S
C1335 C1336 1.396 1_565 S
C1335 C1340 1.390 . S
C1336 C1330 1.465 . S
C1336 C1335 1.396 1_545 S
C1336 C1337 1.399 . S
C1337 H1323 0.929 . S
C1337 C1336 1.399 . S
C1337 C1338 1.385 1_545 S
C1338 H1324 0.931 . S
C1338 C1337 1.385 1_565 S
C1338 C1339 1.389 . S
C1339 C1338 1.389 . S
C1339 C1340 1.387 . S
C1340 H1325 0.930 . S
C1340 C1335 1.390 . S
C1340 C1339 1.387 . S
H1341 C1353 0.930 . S
H1342 C1355 0.930 . S
H1343 C1356 0.930 . S
H1344 C1360 0.959 . S
H1345 C1360 0.959 . S
H1346 C1360 0.961 . S
H1347 C1361 0.960 . S
H1348 C1361 0.961 . S
H1349 C1361 0.959 . S
H1350 C1364 0.929 . S
H1351 C1365 0.931 . S
H1352 C1367 0.930 . S
C1353 H1341 0.930 . S
C1353 C1354 1.399 . S
C1353 C1358 1.399 . S
C1354 C1353 1.399 . S
C1354 C1355 1.376 . S
C1355 H1342 0.930 . S
C1355 C1354 1.376 . S
C1355 C1356 1.388 . S
C1356 H1343 0.930 . S
C1356 C1355 1.388 . S
C1356 C1357 1.390 . S
C1357 C1356 1.390 . S
C1357 C1358 1.394 . S
C1357 C1363 1.465 . S
C1358 C1353 1.399 . S
C1358 C1357 1.394 . S
C1358 C1359 1.516 . S
C1359 C1358 1.516 . S
C1359 C1360 1.502 . S
C1359 C1361 1.561 . S
C1359 C1362 1.526 . S
C1360 H1344 0.959 . S
C1360 H1345 0.959 . S
C1360 H1346 0.961 . S
C1360 C1359 1.502 . S
C1361 H1347 0.960 . S
C1361 H1348 0.961 . S
C1361 H1349 0.959 . S
C1361 C1359 1.561 . S
C1362 C1359 1.526 . S
C1362 C1363 1.396 . S
C1362 C1367 1.390 . S
C1363 C1357 1.465 . S
C1363 C1362 1.396 . S
C1363 C1364 1.399 . S
C1364 H1350 0.929 . S
C1364 C1363 1.399 . S
C1364 C1365 1.385 . S
C1365 H1351 0.931 . S
C1365 C1364 1.385 . S
C1365 C1366 1.389 . S
C1366 C1365 1.389 . S
C1366 C1367 1.387 . S
C1367 H1352 0.930 . S
C1367 C1362 1.390 . S
C1367 C1366 1.387 . S
H1368 C1380 0.930 1_556 S
H1369 C1382 0.930 . S
H1370 C1383 0.930 . S
H1371 C1387 0.959 . S
H1372 C1387 0.959 . S
H1373 C1387 0.961 . S
H1374 C1388 0.960 . S
H1375 C1388 0.961 . S
H1376 C1388 0.959 . S
H1377 C1391 0.929 1_554 S
H1378 C1392 0.931 . S
H1379 C1394 0.930 . S
C1380 H1368 0.930 1_554 S
C1380 C1381 1.399 . S
C1380 C1385 1.399 1_554 S
C1381 C1380 1.399 . S
C1381 C1382 1.376 . S
C1382 H1369 0.930 . S
C1382 C1381 1.376 . S
C1382 C1383 1.388 . S
C1383 H1370 0.930 . S
C1383 C1382 1.388 . S
C1383 C1384 1.390 . S
C1384 C1383 1.390 . S
C1384 C1385 1.394 1_554 S
C1384 C1390 1.465 1_554 S
C1385 C1380 1.399 1_556 S
C1385 C1384 1.394 1_556 S
C1385 C1386 1.516 . S
C1386 C1385 1.516 . S
C1386 C1387 1.502 . S
C1386 C1388 1.561 . S
C1386 C1389 1.526 . S
C1387 H1371 0.959 . S
C1387 H1372 0.959 . S
C1387 H1373 0.961 . S
C1387 C1386 1.502 . S
C1388 H1374 0.960 . S
C1388 H1375 0.961 . S
C1388 H1376 0.959 . S
C1388 C1386 1.561 . S
C1389 C1386 1.526 . S
C1389 C1390 1.396 . S
C1389 C1394 1.390 . S
C1390 C1384 1.465 1_556 S
C1390 C1389 1.396 . S
C1390 C1391 1.399 . S
C1391 H1377 0.929 1_556 S
C1391 C1390 1.399 . S
C1391 C1392 1.385 . S
C1392 H1378 0.931 . S
C1392 C1391 1.385 . S
C1392 C1393 1.389 . S
C1393 C1392 1.389 . S
C1393 C1394 1.387 . S
C1394 H1379 0.930 . S
C1394 C1389 1.390 . S
C1394 C1393 1.387 . S
H1395 C1407 0.930 . S
H1396 C1409 0.930 . S
H1397 C1410 0.930 . S
H1398 C1414 0.959 . S
H1399 C1414 0.959 . S
H1400 C1414 0.961 . S
H1401 C1415 0.960 . S
H1402 C1415 0.961 . S
H1403 C1415 0.959 . S
H1404 C1418 0.929 . S
H1405 C1419 0.931 . S
H1406 C1421 0.930 . S
C1407 H1395 0.930 . S
C1407 C1408 1.399 . S
C1407 C1412 1.399 . S
C1408 C1407 1.399 . S
C1408 C1409 1.376 . S
C1409 H1396 0.930 . S
C1409 C1408 1.376 . S
C1409 C1410 1.388 . S
C1410 H1397 0.930 . S
C1410 C1409 1.388 . S
C1410 C1411 1.390 . S
C1411 C1410 1.390 . S
C1411 C1412 1.394 . S
C1411 C1417 1.465 . S
C1412 C1407 1.399 . S
C1412 C1411 1.394 . S
C1412 C1413 1.516 . S
C1413 C1412 1.516 . S
C1413 C1414 1.502 . S
C1413 C1415 1.561 . S
C1413 C1416 1.526 . S
C1414 H1398 0.959 . S
C1414 H1399 0.959 . S
C1414 H1400 0.961 . S
C1414 C1413 1.502 . S
C1415 H1401 0.960 . S
C1415 H1402 0.961 . S
C1415 H1403 0.959 . S
C1415 C1413 1.561 . S
C1416 C1413 1.526 . S
C1416 C1417 1.396 . S
C1416 C1421 1.390 . S
C1417 C1411 1.465 . S
C1417 C1416 1.396 . S
C1417 C1418 1.399 . S
C1418 H1404 0.929 . S
C1418 C1417 1.399 . S
C1418 C1419 1.385 . S
C1419 H1405 0.931 . S
C1419 C1418 1.385 . S
C1419 C1420 1.389 . S
C1420 C1419 1.389 . S
C1420 C1421 1.387 . S
C1421 H1406 0.930 . S
C1421 C1416 1.390 . S
C1421 C1420 1.387 . S
H1422 C1434 0.930 . S
H1423 C1436 0.930 . S
H1424 C1437 0.930 1_655 S
H1425 C1441 0.959 . S
H1426 C1441 0.959 . S
H1427 C1441 0.961 . S
H1428 C1442 0.960 . S
H1429 C1442 0.961 . S
H1430 C1442 0.959 . S
H1431 C1445 0.929 . S
H1432 C1446 0.931 . S
H1433 C1448 0.930 . S
C1434 H1422 0.930 . S
C1434 C1435 1.399 . S
C1434 C1439 1.399 . S
C1435 C1434 1.399 . S
C1435 C1436 1.376 . S
C1436 H1423 0.930 . S
C1436 C1435 1.376 . S
C1436 C1437 1.388 . S
C1437 H1424 0.930 1_455 S
C1437 C1436 1.388 . S
C1437 C1438 1.390 . S
C1438 C1437 1.390 . S
C1438 C1439 1.394 . S
C1438 C1444 1.465 . S
C1439 C1434 1.399 . S
C1439 C1438 1.394 . S
C1439 C1440 1.516 . S
C1440 C1439 1.516 . S
C1440 C1441 1.502 . S
C1440 C1442 1.561 . S
C1440 C1443 1.526 . S
C1441 H1425 0.959 . S
C1441 H1426 0.959 . S
C1441 H1427 0.961 . S
C1441 C1440 1.502 . S
C1442 H1428 0.960 . S
C1442 H1429 0.961 . S
C1442 H1430 0.959 . S
C1442 C1440 1.561 . S
C1443 C1440 1.526 . S
C1443 C1444 1.396 . S
C1443 C1448 1.390 . S
C1444 C1438 1.465 . S
C1444 C1443 1.396 . S
C1444 C1445 1.399 1_455 S
C1445 H1431 0.929 . S
C1445 C1444 1.399 1_655 S
C1445 C1446 1.385 . S
C1446 H1432 0.931 . S
C1446 C1445 1.385 . S
C1446 C1447 1.389 . S
C1447 C1446 1.389 . S
C1447 C1448 1.387 1_655 S
C1448 H1433 0.930 . S
C1448 C1443 1.390 . S
C1448 C1447 1.387 1_455 S
H1449 C1461 0.930 . S
H1450 C1463 0.930 . S
H1451 C1464 0.930 . S
H1452 C1468 0.959 . S
H1453 C1468 0.959 . S
H1454 C1468 0.961 . S
H1455 C1469 0.960 . S
H1456 C1469 0.961 . S
H1457 C1469 0.959 . S
H1458 C1472 0.929 . S
H1459 C1473 0.931 . S
H1460 C1475 0.930 . S
C1461 H1449 0.930 . S
C1461 C1462 1.399 . S
C1461 C1466 1.399 . S
C1462 C1461 1.399 . S
C1462 C1463 1.376 . S
C1463 H1450 0.930 . S
C1463 C1462 1.376 . S
C1463 C1464 1.388 . S
C1464 H1451 0.930 . S
C1464 C1463 1.388 . S
C1464 C1465 1.390 . S
C1465 C1464 1.390 . S
C1465 C1466 1.394 . S
C1465 C1471 1.465 . S
C1466 C1461 1.399 . S
C1466 C1465 1.394 . S
C1466 C1467 1.516 . S
C1467 C1466 1.516 . S
C1467 C1468 1.502 . S
C1467 C1469 1.561 . S
C1467 C1470 1.526 . S
C1468 H1452 0.959 . S
C1468 H1453 0.959 . S
C1468 H1454 0.961 . S
C1468 C1467 1.502 . S
C1469 H1455 0.960 . S
C1469 H1456 0.961 . S
C1469 H1457 0.959 . S
C1469 C1467 1.561 . S
C1470 C1467 1.526 . S
C1470 C1471 1.396 . S
C1470 C1475 1.390 . S
C1471 C1465 1.465 . S
C1471 C1470 1.396 . S
C1471 C1472 1.399 . S
C1472 H1458 0.929 . S
C1472 C1471 1.399 . S
C1472 C1473 1.385 . S
C1473 H1459 0.931 . S
C1473 C1472 1.385 . S
C1473 C1474 1.389 . S
C1474 C1473 1.389 . S
C1474 C1475 1.387 . S
C1475 H1460 0.930 . S
C1475 C1470 1.390 . S
C1475 C1474 1.387 . S
H1476 C1488 0.930 . S
H1477 C1490 0.930 . S
H1478 C1491 0.930 . S
H1479 C1495 0.959 . S
H1480 C1495 0.959 . S
H1481 C1495 0.961 . S
H1482 C1496 0.960 . S
H1483 C1496 0.961 . S
H1484 C1496 0.959 . S
H1485 C1499 0.929 . S
H1486 C1500 0.931 . S
H1487 C1502 0.930 . S
C1488 H1476 0.930 . S
C1488 C1489 1.399 . S
C1488 C1493 1.399 . S
C1489 C1488 1.399 . S
C1489 C1490 1.376 . S
C1490 H1477 0.930 . S
C1490 C1489 1.376 . S
C1490 C1491 1.388 . S
C1491 H1478 0.930 . S
C1491 C1490 1.388 . S
C1491 C1492 1.390 . S
C1492 C1491 1.390 . S
C1492 C1493 1.394 . S
C1492 C1498 1.465 . S
C1493 C1488 1.399 . S
C1493 C1492 1.394 . S
C1493 C1494 1.516 . S
C1494 C1493 1.516 . S
C1494 C1495 1.502 . S
C1494 C1496 1.561 . S
C1494 C1497 1.526 . S
C1495 H1479 0.959 . S
C1495 H1480 0.959 . S
C1495 H1481 0.961 . S
C1495 C1494 1.502 . S
C1496 H1482 0.960 . S
C1496 H1483 0.961 . S
C1496 H1484 0.959 . S
C1496 C1494 1.561 . S
C1497 C1494 1.526 . S
C1497 C1498 1.396 . S
C1497 C1502 1.390 . S
C1498 C1492 1.465 . S
C1498 C1497 1.396 . S
C1498 C1499 1.399 . S
C1499 H1485 0.929 . S
C1499 C1498 1.399 . S
C1499 C1500 1.385 . S
C1500 H1486 0.931 . S
C1500 C1499 1.385 . S
C1500 C1501 1.389 . S
C1501 C1500 1.389 . S
C1501 C1502 1.387 . S
C1502 H1487 0.930 . S
C1502 C1497 1.390 . S
C1502 C1501 1.387 . S
H1503 C1515 0.930 . S
H1504 C1517 0.930 . S
H1505 C1518 0.930 . S
H1506 C1522 0.959 . S
H1507 C1522 0.959 . S
H1508 C1522 0.961 . S
H1509 C1523 0.960 . S
H1510 C1523 0.961 . S
H1511 C1523 0.959 . S
H1512 C1526 0.929 . S
H1513 C1527 0.931 . S
H1514 C1529 0.930 . S
C1515 H1503 0.930 . S
C1515 C1516 1.399 . S
C1515 C1520 1.399 . S
C1516 C1515 1.399 . S
C1516 C1517 1.376 . S
C1517 H1504 0.930 . S
C1517 C1516 1.376 . S
C1517 C1518 1.388 . S
C1518 H1505 0.930 . S
C1518 C1517 1.388 . S
C1518 C1519 1.390 . S
C1519 C1518 1.390 . S
C1519 C1520 1.394 . S
C1519 C1525 1.465 . S
C1520 C1515 1.399 . S
C1520 C1519 1.394 . S
C1520 C1521 1.516 . S
C1521 C1520 1.516 . S
C1521 C1522 1.502 . S
C1521 C1523 1.561 . S
C1521 C1524 1.526 . S
C1522 H1506 0.959 . S
C1522 H1507 0.959 . S
C1522 H1508 0.961 . S
C1522 C1521 1.502 . S
C1523 H1509 0.960 . S
C1523 H1510 0.961 . S
C1523 H1511 0.959 . S
C1523 C1521 1.561 . S
C1524 C1521 1.526 . S
C1524 C1525 1.396 . S
C1524 C1529 1.390 . S
C1525 C1519 1.465 . S
C1525 C1524 1.396 . S
C1525 C1526 1.399 . S
C1526 H1512 0.929 . S
C1526 C1525 1.399 . S
C1526 C1527 1.385 . S
C1527 H1513 0.931 . S
C1527 C1526 1.385 . S
C1527 C1528 1.389 . S
C1528 C1527 1.389 . S
C1528 C1529 1.387 . S
C1529 H1514 0.930 . S
C1529 C1524 1.390 . S
C1529 C1528 1.387 . S
H1530 C1542 0.930 . S
H1531 C1544 0.930 . S
H1532 C1545 0.930 . S
H1533 C1549 0.959 . S
H1534 C1549 0.959 . S
H1535 C1549 0.961 . S
H1536 C1550 0.960 . S
H1537 C1550 0.961 . S
H1538 C1550 0.959 . S
H1539 C1553 0.929 . S
H1540 C1554 0.931 . S
H1541 C1556 0.930 . S
C1542 H1530 0.930 . S
C1542 C1543 1.399 . S
C1542 C1547 1.399 . S
C1543 C1542 1.399 . S
C1543 C1544 1.376 . S
C1544 H1531 0.930 . S
C1544 C1543 1.376 . S
C1544 C1545 1.388 . S
C1545 H1532 0.930 . S
C1545 C1544 1.388 . S
C1545 C1546 1.390 . S
C1546 C1545 1.390 . S
C1546 C1547 1.394 . S
C1546 C1552 1.465 . S
C1547 C1542 1.399 . S
C1547 C1546 1.394 . S
C1547 C1548 1.516 . S
C1548 C1547 1.516 . S
C1548 C1549 1.502 . S
C1548 C1550 1.561 . S
C1548 C1551 1.526 . S
C1549 H1533 0.959 . S
C1549 H1534 0.959 . S
C1549 H1535 0.961 . S
C1549 C1548 1.502 . S
C1550 H1536 0.960 . S
C1550 H1537 0.961 . S
C1550 H1538 0.959 . S
C1550 C1548 1.561 . S
C1551 C1548 1.526 . S
C1551 C1552 1.396 . S
C1551 C1556 1.390 . S
C1552 C1546 1.465 . S
C1552 C1551 1.396 . S
C1552 C1553 1.399 . S
C1553 H1539 0.929 . S
C1553 C1552 1.399 . S
C1553 C1554 1.385 . S
C1554 H1540 0.931 . S
C1554 C1553 1.385 . S
C1554 C1555 1.389 . S
C1555 C1554 1.389 . S
C1555 C1556 1.387 . S
C1556 H1541 0.930 . S
C1556 C1551 1.390 . S
C1556 C1555 1.387 . S
H1557 C1569 0.930 . S
H1558 C1571 0.930 . S
H1559 C1572 0.930 . S
H1560 C1576 0.959 . S
H1561 C1576 0.959 . S
H1562 C1576 0.961 . S
H1563 C1577 0.960 . S
H1564 C1577 0.961 . S
H1565 C1577 0.959 1_655 S
H1566 C1580 0.929 1_556 S
H1567 C1581 0.931 . S
H1568 C1583 0.930 . S
C1569 H1557 0.930 . S
C1569 C1570 1.399 . S
C1569 C1574 1.399 1_556 S
C1570 C1569 1.399 . S
C1570 C1571 1.376 1_455 S
C1571 H1558 0.930 . S
C1571 C1570 1.376 1_655 S
C1571 C1572 1.388 . S
C1572 H1559 0.930 . S
C1572 C1571 1.388 . S
C1572 C1573 1.390 . S
C1573 C1572 1.390 . S
C1573 C1574 1.394 1_656 S
C1573 C1579 1.465 1_556 S
C1574 C1569 1.399 1_554 S
C1574 C1573 1.394 1_454 S
C1574 C1575 1.516 . S
C1575 C1574 1.516 . S
C1575 C1576 1.502 . S
C1575 C1577 1.561 . S
C1575 C1578 1.526 1_455 S
C1576 H1560 0.959 . S
C1576 H1561 0.959 . S
C1576 H1562 0.961 . S
C1576 C1575 1.502 . S
C1577 H1563 0.960 . S
C1577 H1564 0.961 . S
C1577 H1565 0.959 1_455 S
C1577 C1575 1.561 . S
C1578 C1575 1.526 1_655 S
C1578 C1579 1.396 . S
C1578 C1583 1.390 . S
C1579 C1573 1.465 1_554 S
C1579 C1578 1.396 . S
C1579 C1580 1.399 . S
C1580 H1566 0.929 1_554 S
C1580 C1579 1.399 . S
C1580 C1581 1.385 . S
C1581 H1567 0.931 . S
C1581 C1580 1.385 . S
C1581 C1582 1.389 . S
C1582 C1581 1.389 . S
C1582 C1583 1.387 . S
C1583 H1568 0.930 . S
C1583 C1578 1.390 . S
C1583 C1582 1.387 . S
H1584 C1596 0.930 . S
H1585 C1598 0.930 . S
H1586 C1599 0.930 . S
H1587 C1603 0.959 . S
H1588 C1603 0.959 . S
H1589 C1603 0.961 . S
H1590 C1604 0.960 . S
H1591 C1604 0.961 . S
H1592 C1604 0.959 . S
H1593 C1607 0.929 . S
H1594 C1608 0.931 . S
H1595 C1610 0.930 . S
C1596 H1584 0.930 . S
C1596 C1597 1.399 . S
C1596 C1601 1.404 . S
C1597 C1596 1.399 . S
C1597 C1598 1.376 . S
C1598 H1585 0.930 . S
C1598 C1597 1.376 . S
C1598 C1599 1.388 . S
C1599 H1586 0.930 . S
C1599 C1598 1.388 . S
C1599 C1600 1.390 . S
C1600 C1599 1.390 . S
C1600 C1601 1.395 . S
C1600 C1606 1.465 1_545 S
C1601 C1596 1.404 . S
C1601 C1600 1.395 . S
C1601 C1602 1.509 1_545 S
C1602 C1601 1.509 1_565 S
C1602 C1603 1.502 . S
C1602 C1604 1.561 . S
C1602 C1605 1.526 . S
C1603 H1587 0.959 . S
C1603 H1588 0.959 . S
C1603 H1589 0.961 . S
C1603 C1602 1.502 . S
C1604 H1590 0.960 . S
C1604 H1591 0.961 . S
C1604 H1592 0.959 . S
C1604 C1602 1.561 . S
C1605 C1602 1.526 . S
C1605 C1606 1.396 . S
C1605 C1610 1.390 . S
C1606 C1600 1.465 1_565 S
C1606 C1605 1.396 . S
C1606 C1607 1.399 . S
C1607 H1593 0.929 . S
C1607 C1606 1.399 . S
C1607 C1608 1.385 . S
C1608 H1594 0.931 . S
C1608 C1607 1.385 . S
C1608 C1609 1.389 . S
C1609 C1608 1.389 . S
C1609 C1610 1.387 . S
C1610 H1595 0.930 . S
C1610 C1605 1.390 . S
C1610 C1609 1.387 . S
H1611 C1623 0.930 . S
H1612 C1625 0.930 . S
H1613 C1626 0.930 . S
H1614 C1630 0.959 . S
H1615 C1630 0.959 . S
H1616 C1630 0.961 . S
H1617 C1631 0.960 . S
H1618 C1631 0.961 . S
H1619 C1631 0.959 . S
H1620 C1634 0.929 . S
H1621 C1635 0.931 . S
H1622 C1637 0.930 . S
C1623 H1611 0.930 . S
C1623 C1624 1.399 . S
C1623 C1628 1.399 . S
C1624 C1623 1.399 . S
C1624 C1625 1.376 . S
C1625 H1612 0.930 . S
C1625 C1624 1.376 . S
C1625 C1626 1.388 . S
C1626 H1613 0.930 . S
C1626 C1625 1.388 . S
C1626 C1627 1.390 . S
C1627 C1626 1.390 . S
C1627 C1628 1.394 . S
C1627 C1633 1.465 . S
C1628 C1623 1.399 . S
C1628 C1627 1.394 . S
C1628 C1629 1.516 . S
C1629 C1628 1.516 . S
C1629 C1630 1.502 . S
C1629 C1631 1.561 . S
C1629 C1632 1.526 . S
C1630 H1614 0.959 . S
C1630 H1615 0.959 . S
C1630 H1616 0.961 . S
C1630 C1629 1.502 . S
C1631 H1617 0.960 . S
C1631 H1618 0.961 . S
C1631 H1619 0.959 . S
C1631 C1629 1.561 . S
C1632 C1629 1.526 . S
C1632 C1633 1.396 . S
C1632 C1637 1.390 . S
C1633 C1627 1.465 . S
C1633 C1632 1.396 . S
C1633 C1634 1.399 . S
C1634 H1620 0.929 . S
C1634 C1633 1.399 . S
C1634 C1635 1.385 . S
C1635 H1621 0.931 . S
C1635 C1634 1.385 . S
C1635 C1636 1.389 . S
C1636 C1635 1.389 . S
C1636 C1637 1.387 . S
C1637 H1622 0.930 . S
C1637 C1632 1.390 . S
C1637 C1636 1.387 . S
H1638 C1650 0.930 . S
H1639 C1652 0.930 . S
H1640 C1653 0.930 1_565 S
H1641 C1657 0.959 . S
H1642 C1657 0.959 . S
H1643 C1657 0.961 . S
H1644 C1658 0.960 . S
H1645 C1658 0.961 . S
H1646 C1658 0.959 . S
H1647 C1661 0.929 . S
H1648 C1662 0.931 . S
H1649 C1664 0.930 . S
C1650 H1638 0.930 . S
C1650 C1651 1.399 . S
C1650 C1655 1.399 . S
C1651 C1650 1.399 . S
C1651 C1652 1.376 . S
C1652 H1639 0.930 . S
C1652 C1651 1.376 . S
C1652 C1653 1.388 . S
C1653 H1640 0.930 1_545 S
C1653 C1652 1.388 . S
C1653 C1654 1.390 1_545 S
C1654 C1653 1.390 1_565 S
C1654 C1655 1.394 1_565 S
C1654 C1660 1.465 . S
C1655 C1650 1.399 . S
C1655 C1654 1.394 1_545 S
C1655 C1656 1.516 . S
C1656 C1655 1.516 . S
C1656 C1657 1.502 . S
C1656 C1658 1.561 . S
C1656 C1659 1.526 1_545 S
C1657 H1641 0.959 . S
C1657 H1642 0.959 . S
C1657 H1643 0.961 . S
C1657 C1656 1.502 . S
C1658 H1644 0.960 . S
C1658 H1645 0.961 . S
C1658 H1646 0.959 . S
C1658 C1656 1.561 . S
C1659 C1656 1.526 1_565 S
C1659 C1660 1.396 . S
C1659 C1664 1.390 . S
C1660 C1654 1.465 . S
C1660 C1659 1.396 . S
C1660 C1661 1.399 . S
C1661 H1647 0.929 . S
C1661 C1660 1.399 . S
C1661 C1662 1.385 . S
C1662 H1648 0.931 . S
C1662 C1661 1.385 . S
C1662 C1663 1.389 . S
C1663 C1662 1.389 . S
C1663 C1664 1.387 . S
C1664 H1649 0.930 . S
C1664 C1659 1.390 . S
C1664 C1663 1.387 . S
H1665 C1677 0.930 . S
H1666 C1679 0.930 . S
H1667 C1680 0.930 1_554 S
H1668 C1684 0.959 . S
H1669 C1684 0.959 . S
H1670 C1684 0.961 . S
H1671 C1685 0.960 . S
H1672 C1685 0.961 . S
H1673 C1685 0.959 . S
H1674 C1688 0.929 . S
H1675 C1689 0.931 . S
H1676 C1691 0.930 . S
C1677 H1665 0.930 . S
C1677 C1678 1.399 . S
C1677 C1682 1.399 . S
C1678 C1677 1.399 . S
C1678 C1679 1.376 . S
C1679 H1666 0.930 . S
C1679 C1678 1.376 . S
C1679 C1680 1.388 . S
C1680 H1667 0.930 1_556 S
C1680 C1679 1.388 . S
C1680 C1681 1.390 . S
C1681 C1680 1.390 . S
C1681 C1682 1.394 . S
C1681 C1687 1.465 1_556 S
C1682 C1677 1.399 . S
C1682 C1681 1.394 . S
C1682 C1683 1.516 . S
C1683 C1682 1.516 . S
C1683 C1684 1.502 . S
C1683 C1685 1.561 . S
C1683 C1686 1.526 . S
C1684 H1668 0.959 . S
C1684 H1669 0.959 . S
C1684 H1670 0.961 . S
C1684 C1683 1.502 . S
C1685 H1671 0.960 . S
C1685 H1672 0.961 . S
C1685 H1673 0.959 . S
C1685 C1683 1.561 . S
C1686 C1683 1.526 . S
C1686 C1687 1.396 1_556 S
C1686 C1691 1.390 1_556 S
C1687 C1681 1.465 1_554 S
C1687 C1686 1.396 1_554 S
C1687 C1688 1.399 . S
C1688 H1674 0.929 . S
C1688 C1687 1.399 . S
C1688 C1689 1.385 . S
C1689 H1675 0.931 . S
C1689 C1688 1.385 . S
C1689 C1690 1.389 . S
C1690 C1689 1.389 . S
C1690 C1691 1.387 . S
C1691 H1676 0.930 . S
C1691 C1686 1.390 1_554 S
C1691 C1690 1.387 . S
H1692 C1704 0.930 . S
H1693 C1706 0.930 . S
H1694 C1707 0.930 . S
H1695 C1711 0.959 . S
H1696 C1711 0.959 . S
H1697 C1711 0.961 . S
H1698 C1712 0.960 . S
H1699 C1712 0.961 . S
H1700 C1712 0.959 . S
H1701 C1715 0.929 . S
H1702 C1716 0.931 . S
H1703 C1718 0.930 . S
C1704 H1692 0.930 . S
C1704 C1705 1.399 . S
C1704 C1709 1.399 . S
C1705 C1704 1.399 . S
C1705 C1706 1.376 . S
C1706 H1693 0.930 . S
C1706 C1705 1.376 . S
C1706 C1707 1.388 . S
C1707 H1694 0.930 . S
C1707 C1706 1.388 . S
C1707 C1708 1.390 . S
C1708 C1707 1.390 . S
C1708 C1709 1.394 . S
C1708 C1714 1.465 . S
C1709 C1704 1.399 . S
C1709 C1708 1.394 . S
C1709 C1710 1.516 . S
C1710 C1709 1.516 . S
C1710 C1711 1.502 . S
C1710 C1712 1.561 . S
C1710 C1713 1.526 . S
C1711 H1695 0.959 . S
C1711 H1696 0.959 . S
C1711 H1697 0.961 . S
C1711 C1710 1.502 . S
C1712 H1698 0.960 . S
C1712 H1699 0.961 . S
C1712 H1700 0.959 . S
C1712 C1710 1.561 . S
C1713 C1710 1.526 . S
C1713 C1714 1.396 . S
C1713 C1718 1.390 1_545 S
C1714 C1708 1.465 . S
C1714 C1713 1.396 . S
C1714 C1715 1.399 1_545 S
C1715 H1701 0.929 . S
C1715 C1714 1.399 1_565 S
C1715 C1716 1.385 . S
C1716 H1702 0.931 . S
C1716 C1715 1.385 . S
C1716 C1717 1.389 . S
C1717 C1716 1.389 . S
C1717 C1718 1.387 . S
C1718 H1703 0.930 . S
C1718 C1713 1.390 1_565 S
C1718 C1717 1.387 . S
H1719 C1731 0.930 . S
H1720 C1733 0.930 . S
H1721 C1734 0.930 . S
H1722 C1738 0.959 . S
H1723 C1738 0.959 . S
H1724 C1738 0.961 . S
H1725 C1739 0.960 . S
H1726 C1739 0.961 . S
H1727 C1739 0.959 . S
H1728 C1742 0.929 . S
H1729 C1743 0.931 . S
H1730 C1745 0.930 . S
C1731 H1719 0.930 . S
C1731 C1732 1.399 . S
C1731 C1736 1.399 . S
C1732 C1731 1.399 . S
C1732 C1733 1.376 . S
C1733 H1720 0.930 . S
C1733 C1732 1.376 . S
C1733 C1734 1.388 . S
C1734 H1721 0.930 . S
C1734 C1733 1.388 . S
C1734 C1735 1.390 . S
C1735 C1734 1.390 . S
C1735 C1736 1.394 . S
C1735 C1741 1.465 . S
C1736 C1731 1.399 . S
C1736 C1735 1.394 . S
C1736 C1737 1.516 . S
C1737 C1736 1.516 . S
C1737 C1738 1.502 . S
C1737 C1739 1.561 . S
C1737 C1740 1.526 . S
C1738 H1722 0.959 . S
C1738 H1723 0.959 . S
C1738 H1724 0.961 . S
C1738 C1737 1.502 . S
C1739 H1725 0.960 . S
C1739 H1726 0.961 . S
C1739 H1727 0.959 . S
C1739 C1737 1.561 . S
C1740 C1737 1.526 . S
C1740 C1741 1.396 . S
C1740 C1745 1.390 . S
C1741 C1735 1.465 . S
C1741 C1740 1.396 . S
C1741 C1742 1.399 . S
C1742 H1728 0.929 . S
C1742 C1741 1.399 . S
C1742 C1743 1.385 . S
C1743 H1729 0.931 . S
C1743 C1742 1.385 . S
C1743 C1744 1.389 . S
C1744 C1743 1.389 . S
C1744 C1745 1.387 . S
C1745 H1730 0.930 . S
C1745 C1740 1.390 . S
C1745 C1744 1.387 . S
H1746 C1758 0.930 . S
H1747 C1760 0.930 . S
H1748 C1761 0.930 . S
H1749 C1765 0.959 . S
H1750 C1765 0.959 . S
H1751 C1765 0.961 . S
H1752 C1766 0.960 . S
H1753 C1766 0.961 . S
H1754 C1766 0.959 . S
H1755 C1769 0.904 1_545 S
H1756 C1770 0.931 . S
H1757 C1772 0.930 . S
C1758 H1746 0.930 . S
C1758 C1759 1.399 . S
C1758 C1763 1.399 1_545 S
C1759 C1758 1.399 . S
C1759 C1760 1.376 . S
C1760 H1747 0.930 . S
C1760 C1759 1.376 . S
C1760 C1761 1.388 . S
C1761 H1748 0.930 . S
C1761 C1760 1.388 . S
C1761 C1762 1.390 . S
C1762 C1761 1.390 . S
C1762 C1763 1.394 1_545 S
C1762 C1768 1.465 1_545 S
C1763 C1758 1.399 1_565 S
C1763 C1762 1.394 1_565 S
C1763 C1764 1.516 . S
C1764 C1763 1.516 . S
C1764 C1765 1.502 . S
C1764 C1766 1.561 . S
C1764 C1767 1.526 . S
C1765 H1749 0.959 . S
C1765 H1750 0.959 . S
C1765 H1751 0.961 . S
C1765 C1764 1.502 . S
C1766 H1752 0.960 . S
C1766 H1753 0.961 . S
C1766 H1754 0.959 . S
C1766 C1764 1.561 . S
C1767 C1764 1.526 . S
C1767 C1768 1.396 . S
C1767 C1772 1.390 . S
C1768 C1762 1.465 1_565 S
C1768 C1767 1.396 . S
C1768 C1769 1.399 . S
C1769 H1755 0.904 1_565 S
C1769 C1768 1.399 . S
C1769 C1770 1.385 . S
C1770 H1756 0.931 . S
C1770 C1769 1.385 . S
C1770 C1771 1.389 . S
C1771 C1770 1.389 . S
C1771 C1772 1.387 . S
C1772 H1757 0.930 . S
C1772 C1767 1.390 . S
C1772 C1771 1.387 . S
H1773 C1785 0.930 . S
H1774 C1787 0.930 . S
H1775 C1788 0.930 . S
H1776 C1792 0.959 . S
H1777 C1792 0.959 1_554 S
H1778 C1792 0.961 . S
H1779 C1793 0.960 . S
H1780 C1793 0.961 . S
H1781 C1793 0.959 . S
H1782 C1796 0.929 . S
H1783 C1797 0.931 . S
H1784 C1799 0.930 . S
C1785 H1773 0.930 . S
C1785 C1786 1.399 . S
C1785 C1790 1.399 1_556 S
C1786 C1785 1.399 . S
C1786 C1787 1.376 . S
C1787 H1774 0.930 . S
C1787 C1786 1.376 . S
C1787 C1788 1.388 1_556 S
C1788 H1775 0.930 . S
C1788 C1787 1.388 1_554 S
C1788 C1789 1.390 . S
C1789 C1788 1.390 . S
C1789 C1790 1.394 . S
C1789 C1795 1.465 . S
C1790 C1785 1.399 1_554 S
C1790 C1789 1.394 . S
C1790 C1791 1.516 . S
C1791 C1790 1.516 . S
C1791 C1792 1.502 1_554 S
C1791 C1793 1.561 . S
C1791 C1794 1.526 . S
C1792 H1776 0.959 . S
C1792 H1777 0.959 1_556 S
C1792 H1778 0.961 . S
C1792 C1791 1.502 1_556 S
C1793 H1779 0.960 . S
C1793 H1780 0.961 . S
C1793 H1781 0.959 . S
C1793 C1791 1.561 . S
C1794 C1791 1.526 . S
C1794 C1795 1.396 . S
C1794 C1799 1.390 . S
C1795 C1789 1.465 . S
C1795 C1794 1.396 . S
C1795 C1796 1.399 . S
C1796 H1782 0.929 . S
C1796 C1795 1.399 . S
C1796 C1797 1.385 . S
C1797 H1783 0.931 . S
C1797 C1796 1.385 . S
C1797 C1798 1.389 . S
C1798 C1797 1.389 . S
C1798 C1799 1.387 . S
C1799 H1784 0.930 . S
C1799 C1794 1.390 . S
C1799 C1798 1.387 . S
H1800 C1812 0.930 . S
H1801 C1814 0.930 . S
H1802 C1815 0.930 . S
H1803 C1819 0.959 . S
H1804 C1819 0.959 . S
H1805 C1819 0.961 . S
H1806 C1820 0.960 . S
H1807 C1820 0.961 . S
H1808 C1820 0.959 . S
H1809 C1823 0.928 1_655 S
H1810 C1824 0.931 . S
H1811 C1826 0.930 . S
C1812 H1800 0.930 . S
C1812 C1813 1.399 . S
C1812 C1817 1.399 . S
C1813 C1812 1.399 . S
C1813 C1814 1.376 . S
C1814 H1801 0.930 . S
C1814 C1813 1.376 . S
C1814 C1815 1.388 . S
C1815 H1802 0.930 . S
C1815 C1814 1.388 . S
C1815 C1816 1.390 . S
C1816 C1815 1.390 . S
C1816 C1817 1.394 . S
C1816 C1822 1.465 . S
C1817 C1812 1.399 . S
C1817 C1816 1.394 . S
C1817 C1818 1.516 . S
C1818 C1817 1.516 . S
C1818 C1819 1.502 . S
C1818 C1820 1.561 . S
C1818 C1821 1.526 . S
C1819 H1803 0.959 . S
C1819 H1804 0.959 . S
C1819 H1805 0.961 . S
C1819 C1818 1.502 . S
C1820 H1806 0.960 . S
C1820 H1807 0.961 . S
C1820 H1808 0.959 . S
C1820 C1818 1.561 . S
C1821 C1818 1.526 . S
C1821 C1822 1.396 . S
C1821 C1826 1.390 1_655 S
C1822 C1816 1.465 . S
C1822 C1821 1.396 . S
C1822 C1823 1.383 1_655 S
C1823 H1809 0.928 1_455 S
C1823 C1822 1.383 1_455 S
C1823 C1824 1.403 . S
C1824 H1810 0.931 . S
C1824 C1823 1.403 . S
C1824 C1825 1.389 . S
C1825 C1824 1.389 . S
C1825 C1826 1.387 . S
C1826 H1811 0.930 . S
C1826 C1821 1.390 1_455 S
C1826 C1825 1.387 . S
H1827 C1839 0.930 . S
H1828 C1841 0.930 . S
H1829 C1842 0.930 . S
H1830 C1846 0.959 . S
H1831 C1846 0.959 . S
H1832 C1846 0.961 . S
H1833 C1847 0.960 . S
H1834 C1847 0.961 . S
H1835 C1847 0.959 . S
H1836 C1850 0.929 . S
H1837 C1851 0.931 . S
H1838 C1853 0.930 . S
C1839 H1827 0.930 . S
C1839 C1840 1.399 . S
C1839 C1844 1.399 . S
C1840 C1839 1.399 . S
C1840 C1841 1.376 . S
C1841 H1828 0.930 . S
C1841 C1840 1.376 . S
C1841 C1842 1.388 . S
C1842 H1829 0.930 . S
C1842 C1841 1.388 . S
C1842 C1843 1.390 . S
C1843 C1842 1.390 . S
C1843 C1844 1.394 . S
C1843 C1849 1.465 . S
C1844 C1839 1.399 . S
C1844 C1843 1.394 . S
C1844 C1845 1.516 . S
C1845 C1844 1.516 . S
C1845 C1846 1.502 . S
C1845 C1847 1.561 . S
C1845 C1848 1.526 . S
C1846 H1830 0.959 . S
C1846 H1831 0.959 . S
C1846 H1832 0.961 . S
C1846 C1845 1.502 . S
C1847 H1833 0.960 . S
C1847 H1834 0.961 . S
C1847 H1835 0.959 . S
C1847 C1845 1.561 . S
C1848 C1845 1.526 . S
C1848 C1849 1.396 . S
C1848 C1853 1.390 . S
C1849 C1843 1.465 . S
C1849 C1848 1.396 . S
C1849 C1850 1.399 . S
C1850 H1836 0.929 . S
C1850 C1849 1.399 . S
C1850 C1851 1.385 . S
C1851 H1837 0.931 . S
C1851 C1850 1.385 . S
C1851 C1852 1.389 . S
C1852 C1851 1.389 . S
C1852 C1853 1.387 . S
C1853 H1838 0.930 . S
C1853 C1848 1.390 . S
C1853 C1852 1.387 . S
H1854 C1866 0.930 1_655 S
H1855 C1868 0.930 . S
H1856 C1869 0.930 . S
H1857 C1873 0.959 . S
H1858 C1873 0.959 . S
H1859 C1873 0.961 . S
H1860 C1874 0.960 . S
H1861 C1874 0.961 . S
H1862 C1874 0.959 . S
H1863 C1877 0.929 . S
H1864 C1878 0.931 . S
H1865 C1880 0.930 . S
C1866 H1854 0.930 1_455 S
C1866 C1867 1.399 1_455 S
C1866 C1871 1.399 . S
C1867 C1866 1.399 1_655 S
C1867 C1868 1.376 1_655 S
C1868 H1855 0.930 . S
C1868 C1867 1.376 1_455 S
C1868 C1869 1.388 . S
C1869 H1856 0.930 . S
C1869 C1868 1.388 . S
C1869 C1870 1.390 . S
C1870 C1869 1.390 . S
C1870 C1871 1.394 . S
C1870 C1876 1.465 . S
C1871 C1866 1.399 . S
C1871 C1870 1.394 . S
C1871 C1872 1.516 . S
C1872 C1871 1.516 . S
C1872 C1873 1.502 . S
C1872 C1874 1.561 . S
C1872 C1875 1.526 . S
C1873 H1857 0.959 . S
C1873 H1858 0.959 . S
C1873 H1859 0.961 . S
C1873 C1872 1.502 . S
C1874 H1860 0.960 . S
C1874 H1861 0.961 . S
C1874 H1862 0.959 . S
C1874 C1872 1.561 . S
C1875 C1872 1.526 . S
C1875 C1876 1.396 . S
C1875 C1880 1.390 . S
C1876 C1870 1.465 . S
C1876 C1875 1.396 . S
C1876 C1877 1.399 . S
C1877 H1863 0.929 . S
C1877 C1876 1.399 . S
C1877 C1878 1.385 . S
C1878 H1864 0.931 . S
C1878 C1877 1.385 . S
C1878 C1879 1.389 . S
C1879 C1878 1.389 . S
C1879 C1880 1.387 . S
C1880 H1865 0.930 . S
C1880 C1875 1.390 . S
C1880 C1879 1.387 . S
H1881 C1893 0.930 . S
H1882 C1895 0.930 . S
H1883 C1896 0.930 . S
H1884 C1900 0.959 1_655 S
H1885 C1900 0.959 . S
H1886 C1900 0.961 1_655 S
H1887 C1901 0.960 . S
H1888 C1901 0.961 . S
H1889 C1901 0.959 . S
H1890 C1904 0.929 . S
H1891 C1905 0.931 . S
H1892 C1907 0.930 . S
C1893 H1881 0.930 . S
C1893 C1894 1.399 . S
C1893 C1898 1.399 1_655 S
C1894 C1893 1.399 . S
C1894 C1895 1.376 . S
C1895 H1882 0.930 . S
C1895 C1894 1.376 . S
C1895 C1896 1.388 1_655 S
C1896 H1883 0.930 . S
C1896 C1895 1.388 1_455 S
C1896 C1897 1.390 . S
C1897 C1896 1.390 . S
C1897 C1898 1.394 . S
C1897 C1903 1.465 . S
C1898 C1893 1.399 1_455 S
C1898 C1897 1.394 . S
C1898 C1899 1.516 . S
C1899 C1898 1.516 . S
C1899 C1900 1.502 . S
C1899 C1901 1.561 . S
C1899 C1902 1.526 . S
C1900 H1884 0.959 1_455 S
C1900 H1885 0.959 . S
C1900 H1886 0.961 1_455 S
C1900 C1899 1.502 . S
C1901 H1887 0.960 . S
C1901 H1888 0.961 . S
C1901 H1889 0.959 . S
C1901 C1899 1.561 . S
C1902 C1899 1.526 . S
C1902 C1903 1.396 . S
C1902 C1907 1.390 . S
C1903 C1897 1.465 . S
C1903 C1902 1.396 . S
C1903 C1904 1.399 . S
C1904 H1890 0.929 . S
C1904 C1903 1.399 . S
C1904 C1905 1.385 . S
C1905 H1891 0.931 . S
C1905 C1904 1.385 . S
C1905 C1906 1.389 . S
C1906 C1905 1.389 . S
C1906 C1907 1.387 . S
C1907 H1892 0.930 . S
C1907 C1902 1.390 . S
C1907 C1906 1.387 . S
H1908 C1920 0.930 . S
H1909 C1922 0.930 . S
H1910 C1923 0.930 . S
H1911 C1927 0.959 . S
H1912 C1927 0.959 . S
H1913 C1927 0.961 . S
H1914 C1928 0.960 . S
H1915 C1928 0.961 . S
H1916 C1928 0.959 . S
H1917 C1931 0.929 . S
H1918 C1932 0.931 . S
H1919 C1934 0.930 . S
C1920 H1908 0.930 . S
C1920 C1921 1.399 . S
C1920 C1925 1.399 . S
C1921 C1920 1.399 . S
C1921 C1922 1.376 . S
C1922 H1909 0.930 . S
C1922 C1921 1.376 . S
C1922 C1923 1.388 . S
C1923 H1910 0.930 . S
C1923 C1922 1.388 . S
C1923 C1924 1.390 . S
C1924 C1923 1.390 . S
C1924 C1925 1.394 . S
C1924 C1930 1.465 . S
C1925 C1920 1.399 . S
C1925 C1924 1.394 . S
C1925 C1926 1.516 . S
C1926 C1925 1.516 . S
C1926 C1927 1.502 . S
C1926 C1928 1.561 . S
C1926 C1929 1.526 . S
C1927 H1911 0.959 . S
C1927 H1912 0.959 . S
C1927 H1913 0.961 . S
C1927 C1926 1.502 . S
C1928 H1914 0.960 . S
C1928 H1915 0.961 . S
C1928 H1916 0.959 . S
C1928 C1926 1.561 . S
C1929 C1926 1.526 . S
C1929 C1930 1.396 . S
C1929 C1934 1.390 . S
C1930 C1924 1.465 . S
C1930 C1929 1.396 . S
C1930 C1931 1.399 . S
C1931 H1917 0.929 . S
C1931 C1930 1.399 . S
C1931 C1932 1.385 . S
C1932 H1918 0.931 . S
C1932 C1931 1.385 . S
C1932 C1933 1.389 . S
C1933 C1932 1.389 . S
C1933 C1934 1.387 . S
C1934 H1919 0.930 . S
C1934 C1929 1.390 . S
C1934 C1933 1.387 . S
H1935 C1947 0.930 . S
H1936 C1949 0.930 . S
H1937 C1950 0.930 . S
H1938 C1954 0.959 . S
H1939 C1954 0.959 . S
H1940 C1954 0.961 . S
H1941 C1955 0.960 . S
H1942 C1955 0.960 1_455 S
H1943 C1955 0.959 1_455 S
H1944 C1958 0.929 . S
H1945 C1959 0.931 . S
H1946 C1961 0.930 . S
C1947 H1935 0.930 . S
C1947 C1948 1.399 . S
C1947 C1952 1.399 . S
C1948 C1947 1.399 . S
C1948 C1949 1.376 . S
C1949 H1936 0.930 . S
C1949 C1948 1.376 . S
C1949 C1950 1.388 . S
C1950 H1937 0.930 . S
C1950 C1949 1.388 . S
C1950 C1951 1.390 . S
C1951 C1950 1.390 . S
C1951 C1952 1.394 . S
C1951 C1957 1.465 . S
C1952 C1947 1.399 . S
C1952 C1951 1.394 . S
C1952 C1953 1.516 . S
C1953 C1952 1.516 . S
C1953 C1954 1.502 . S
C1953 C1955 1.561 . S
C1953 C1956 1.526 . S
C1954 H1938 0.959 . S
C1954 H1939 0.959 . S
C1954 H1940 0.961 . S
C1954 C1953 1.502 . S
C1955 H1941 0.960 . S
C1955 H1942 0.960 1_655 S
C1955 H1943 0.959 1_655 S
C1955 C1953 1.561 . S
C1956 C1953 1.526 . S
C1956 C1957 1.396 . S
C1956 C1961 1.390 1_655 S
C1957 C1951 1.465 . S
C1957 C1956 1.396 . S
C1957 C1958 1.399 1_655 S
C1958 H1944 0.929 . S
C1958 C1957 1.399 1_455 S
C1958 C1959 1.385 . S
C1959 H1945 0.931 . S
C1959 C1958 1.385 . S
C1959 C1960 1.389 . S
C1960 C1959 1.389 . S
C1960 C1961 1.387 . S
C1961 H1946 0.930 . S
C1961 C1956 1.390 1_455 S
C1961 C1960 1.387 . S
H1962 C1974 0.930 . S
H1963 C1976 0.930 . S
H1964 C1977 0.930 . S
H1965 C1981 0.959 . S
H1966 C1981 0.959 . S
H1967 C1981 0.961 . S
H1968 C1982 0.960 . S
H1969 C1982 0.961 . S
H1970 C1982 0.959 . S
H1971 C1985 0.929 . S
H1972 C1986 0.931 . S
H1973 C1988 0.930 . S
C1974 H1962 0.930 . S
C1974 C1975 1.399 . S
C1974 C1979 1.399 . S
C1975 C1974 1.399 . S
C1975 C1976 1.376 . S
C1976 H1963 0.930 . S
C1976 C1975 1.376 . S
C1976 C1977 1.388 . S
C1977 H1964 0.930 . S
C1977 C1976 1.388 . S
C1977 C1978 1.390 . S
C1978 C1977 1.390 . S
C1978 C1979 1.394 . S
C1978 C1984 1.465 . S
C1979 C1974 1.399 . S
C1979 C1978 1.394 . S
C1979 C1980 1.516 . S
C1980 C1979 1.516 . S
C1980 C1981 1.502 . S
C1980 C1982 1.561 . S
C1980 C1983 1.526 . S
C1981 H1965 0.959 . S
C1981 H1966 0.959 . S
C1981 H1967 0.961 . S
C1981 C1980 1.502 . S
C1982 H1968 0.960 . S
C1982 H1969 0.961 . S
C1982 H1970 0.959 . S
C1982 C1980 1.561 . S
C1983 C1980 1.526 . S
C1983 C1984 1.396 . S
C1983 C1988 1.390 . S
C1984 C1978 1.465 . S
C1984 C1983 1.396 . S
C1984 C1985 1.399 . S
C1985 H1971 0.929 . S
C1985 C1984 1.399 . S
C1985 C1986 1.385 . S
C1986 H1972 0.931 . S
C1986 C1985 1.385 . S
C1986 C1987 1.389 . S
C1987 C1986 1.389 . S
C1987 C1988 1.387 . S
C1988 H1973 0.930 . S
C1988 C1983 1.390 . S
C1988 C1987 1.387 . S
H1989 C2001 0.930 . S
H1990 C2003 0.930 . S
H1991 C2004 0.930 . S
H1992 C2008 0.959 . S
H1993 C2008 0.959 . S
H1994 C2008 0.961 . S
H1995 C2009 0.960 . S
H1996 C2009 0.961 1_565 S
H1997 C2009 0.959 1_565 S
H1998 C2012 0.929 . S
H1999 C2013 0.931 . S
H2000 C2015 0.930 . S
C2001 H1989 0.930 . S
C2001 C2002 1.399 . S
C2001 C2006 1.399 . S
C2002 C2001 1.399 . S
C2002 C2003 1.376 . S
C2003 H1990 0.930 . S
C2003 C2002 1.376 . S
C2003 C2004 1.388 . S
C2004 H1991 0.930 . S
C2004 C2003 1.388 . S
C2004 C2005 1.390 . S
C2005 C2004 1.390 . S
C2005 C2006 1.394 . S
C2005 C2011 1.465 . S
C2006 C2001 1.399 . S
C2006 C2005 1.394 . S
C2006 C2007 1.516 . S
C2007 C2006 1.516 . S
C2007 C2008 1.502 . S
C2007 C2009 1.561 . S
C2007 C2010 1.526 . S
C2008 H1992 0.959 . S
C2008 H1993 0.959 . S
C2008 H1994 0.961 . S
C2008 C2007 1.502 . S
C2009 H1995 0.960 . S
C2009 H1996 0.961 1_545 S
C2009 H1997 0.959 1_545 S
C2009 C2007 1.561 . S
C2010 C2007 1.526 . S
C2010 C2011 1.396 . S
C2010 C2015 1.390 1_545 S
C2011 C2005 1.465 . S
C2011 C2010 1.396 . S
C2011 C2012 1.399 . S
C2012 H1998 0.929 . S
C2012 C2011 1.399 . S
C2012 C2013 1.385 1_545 S
C2013 H1999 0.931 . S
C2013 C2012 1.385 1_565 S
C2013 C2014 1.389 . S
C2014 C2013 1.389 . S
C2014 C2015 1.387 . S
C2015 H2000 0.930 . S
C2015 C2010 1.390 1_565 S
C2015 C2014 1.387 . S
H2016 C2028 0.930 . S
H2017 C2030 0.930 . S
H2018 C2031 0.930 . S
H2019 C2035 0.959 . S
H2020 C2035 0.959 . S
H2021 C2035 0.961 . S
H2022 C2036 0.960 . S
H2023 C2036 0.961 . S
H2024 C2036 0.959 . S
H2025 C2039 0.929 . S
H2026 C2040 0.931 . S
H2027 C2042 0.930 . S
C2028 H2016 0.930 . S
C2028 C2029 1.399 . S
C2028 C2033 1.399 . S
C2029 C2028 1.399 . S
C2029 C2030 1.376 . S
C2030 H2017 0.930 . S
C2030 C2029 1.376 . S
C2030 C2031 1.388 . S
C2031 H2018 0.930 . S
C2031 C2030 1.388 . S
C2031 C2032 1.390 . S
C2032 C2031 1.390 . S
C2032 C2033 1.394 . S
C2032 C2038 1.465 . S
C2033 C2028 1.399 . S
C2033 C2032 1.394 . S
C2033 C2034 1.516 . S
C2034 C2033 1.516 . S
C2034 C2035 1.502 . S
C2034 C2036 1.561 . S
C2034 C2037 1.526 . S
C2035 H2019 0.959 . S
C2035 H2020 0.959 . S
C2035 H2021 0.961 . S
C2035 C2034 1.502 . S
C2036 H2022 0.960 . S
C2036 H2023 0.961 . S
C2036 H2024 0.959 . S
C2036 C2034 1.561 . S
C2037 C2034 1.526 . S
C2037 C2038 1.396 . S
C2037 C2042 1.390 . S
C2038 C2032 1.465 . S
C2038 C2037 1.396 . S
C2038 C2039 1.399 . S
C2039 H2025 0.929 . S
C2039 C2038 1.399 . S
C2039 C2040 1.385 . S
C2040 H2026 0.931 . S
C2040 C2039 1.385 . S
C2040 C2041 1.389 . S
C2041 C2040 1.389 . S
C2041 C2042 1.387 . S
C2042 H2027 0.930 . S
C2042 C2037 1.390 . S
C2042 C2041 1.387 . S
H2043 C2055 0.930 . S
H2044 C2057 0.930 . S
H2045 C2058 0.930 . S
H2046 C2062 0.959 . S
H2047 C2062 0.959 . S
H2048 C2062 0.961 . S
H2049 C2063 0.960 . S
H2050 C2063 0.961 . S
H2051 C2063 0.959 . S
H2052 C2066 0.929 . S
H2053 C2067 0.931 . S
H2054 C2069 0.930 . S
C2055 H2043 0.930 . S
C2055 C2056 1.399 . S
C2055 C2060 1.399 . S
C2056 C2055 1.399 . S
C2056 C2057 1.376 . S
C2057 H2044 0.930 . S
C2057 C2056 1.376 . S
C2057 C2058 1.388 . S
C2058 H2045 0.930 . S
C2058 C2057 1.388 . S
C2058 C2059 1.390 . S
C2059 C2058 1.390 . S
C2059 C2060 1.394 . S
C2059 C2065 1.465 . S
C2060 C2055 1.399 . S
C2060 C2059 1.394 . S
C2060 C2061 1.516 . S
C2061 C2060 1.516 . S
C2061 C2062 1.502 . S
C2061 C2063 1.561 . S
C2061 C2064 1.526 . S
C2062 H2046 0.959 . S
C2062 H2047 0.959 . S
C2062 H2048 0.961 . S
C2062 C2061 1.502 . S
C2063 H2049 0.960 . S
C2063 H2050 0.961 . S
C2063 H2051 0.959 . S
C2063 C2061 1.561 . S
C2064 C2061 1.526 . S
C2064 C2065 1.396 . S
C2064 C2069 1.390 . S
C2065 C2059 1.465 . S
C2065 C2064 1.396 . S
C2065 C2066 1.399 1_565 S
C2066 H2052 0.929 . S
C2066 C2065 1.399 1_545 S
C2066 C2067 1.385 . S
C2067 H2053 0.931 . S
C2067 C2066 1.385 . S
C2067 C2068 1.389 . S
C2068 C2067 1.389 . S
C2068 C2069 1.387 1_545 S
C2069 H2054 0.930 . S
C2069 C2064 1.390 . S
C2069 C2068 1.387 1_565 S
H2070 C2082 0.930 . S
H2071 C2084 0.930 . S
H2072 C2085 0.931 1_554 S
H2073 C2089 0.959 . S
H2074 C2089 0.959 . S
H2075 C2089 0.961 1_556 S
H2076 C2090 0.960 . S
H2077 C2090 0.961 . S
H2078 C2090 0.959 . S
H2079 C2093 0.929 . S
H2080 C2094 0.931 . S
H2081 C2096 0.930 . S
C2082 H2070 0.930 . S
C2082 C2083 1.399 . S
C2082 C2087 1.399 . S
C2083 C2082 1.399 . S
C2083 C2084 1.376 . S
C2084 H2071 0.930 . S
C2084 C2083 1.376 . S
C2084 C2085 1.388 . S
C2085 H2072 0.931 1_556 S
C2085 C2084 1.388 . S
C2085 C2086 1.390 . S
C2086 C2085 1.390 . S
C2086 C2087 1.394 . S
C2086 C2092 1.465 1_556 S
C2087 C2082 1.399 . S
C2087 C2086 1.394 . S
C2087 C2088 1.516 . S
C2088 C2087 1.516 . S
C2088 C2089 1.502 1_556 S
C2088 C2090 1.561 . S
C2088 C2091 1.526 1_556 S
C2089 H2073 0.959 . S
C2089 H2074 0.959 . S
C2089 H2075 0.961 1_554 S
C2089 C2088 1.502 1_554 S
C2090 H2076 0.960 . S
C2090 H2077 0.961 . S
C2090 H2078 0.959 . S
C2090 C2088 1.561 . S
C2091 C2088 1.526 1_554 S
C2091 C2092 1.396 . S
C2091 C2096 1.390 . S
C2092 C2086 1.465 1_554 S
C2092 C2091 1.396 . S
C2092 C2093 1.399 . S
C2093 H2079 0.929 . S
C2093 C2092 1.399 . S
C2093 C2094 1.385 . S
C2094 H2080 0.931 . S
C2094 C2093 1.385 . S
C2094 C2095 1.389 . S
C2095 C2094 1.389 . S
C2095 C2096 1.387 . S
C2096 H2081 0.930 . S
C2096 C2091 1.390 . S
C2096 C2095 1.387 . S
H2097 C2109 0.930 . S
H2098 C2111 0.930 . S
H2099 C2112 0.930 . S
H2100 C2116 0.959 . S
H2101 C2116 0.959 . S
H2102 C2116 0.961 . S
H2103 C2117 0.960 . S
H2104 C2117 0.961 . S
H2105 C2117 0.959 . S
H2106 C2120 0.929 . S
H2107 C2121 0.931 . S
H2108 C2123 0.930 . S
C2109 H2097 0.930 . S
C2109 C2110 1.399 . S
C2109 C2114 1.399 . S
C2110 C2109 1.399 . S
C2110 C2111 1.376 . S
C2111 H2098 0.930 . S
C2111 C2110 1.376 . S
C2111 C2112 1.388 1_545 S
C2112 H2099 0.930 . S
C2112 C2111 1.388 1_565 S
C2112 C2113 1.390 . S
C2113 C2112 1.390 . S
C2113 C2114 1.394 1_565 S
C2113 C2119 1.465 . S
C2114 C2109 1.399 . S
C2114 C2113 1.394 1_545 S
C2114 C2115 1.516 . S
C2115 C2114 1.516 . S
C2115 C2116 1.502 . S
C2115 C2117 1.561 . S
C2115 C2118 1.526 1_545 S
C2116 H2100 0.959 . S
C2116 H2101 0.959 . S
C2116 H2102 0.961 . S
C2116 C2115 1.502 . S
C2117 H2103 0.960 . S
C2117 H2104 0.961 . S
C2117 H2105 0.959 . S
C2117 C2115 1.561 . S
C2118 C2115 1.526 1_565 S
C2118 C2119 1.396 . S
C2118 C2123 1.390 . S
C2119 C2113 1.465 . S
C2119 C2118 1.396 . S
C2119 C2120 1.399 . S
C2120 H2106 0.929 . S
C2120 C2119 1.399 . S
C2120 C2121 1.385 . S
C2121 H2107 0.931 . S
C2121 C2120 1.385 . S
C2121 C2122 1.389 . S
C2122 C2121 1.389 . S
C2122 C2123 1.387 . S
C2123 H2108 0.930 . S
C2123 C2118 1.390 . S
C2123 C2122 1.387 . S
H2124 C2136 0.930 . S
H2125 C2138 0.930 . S
H2126 C2139 0.930 . S
H2127 C2143 0.959 . S
H2128 C2143 0.959 . S
H2129 C2143 0.961 . S
H2130 C2144 0.960 . S
H2131 C2144 0.961 . S
H2132 C2144 0.959 . S
H2133 C2147 0.929 . S
H2134 C2148 0.931 . S
H2135 C2150 0.930 . S
C2136 H2124 0.930 . S
C2136 C2137 1.399 . S
C2136 C2141 1.399 . S
C2137 C2136 1.399 . S
C2137 C2138 1.376 . S
C2138 H2125 0.930 . S
C2138 C2137 1.376 . S
C2138 C2139 1.388 . S
C2139 H2126 0.930 . S
C2139 C2138 1.388 . S
C2139 C2140 1.390 . S
C2140 C2139 1.390 . S
C2140 C2141 1.394 . S
C2140 C2146 1.465 . S
C2141 C2136 1.399 . S
C2141 C2140 1.394 . S
C2141 C2142 1.516 . S
C2142 C2141 1.516 . S
C2142 C2143 1.502 . S
C2142 C2144 1.561 . S
C2142 C2145 1.526 . S
C2143 H2127 0.959 . S
C2143 H2128 0.959 . S
C2143 H2129 0.961 . S
C2143 C2142 1.502 . S
C2144 H2130 0.960 . S
C2144 H2131 0.961 . S
C2144 H2132 0.959 . S
C2144 C2142 1.561 . S
C2145 C2142 1.526 . S
C2145 C2146 1.396 . S
C2145 C2150 1.390 . S
C2146 C2140 1.465 . S
C2146 C2145 1.396 . S
C2146 C2147 1.399 . S
C2147 H2133 0.929 . S
C2147 C2146 1.399 . S
C2147 C2148 1.385 . S
C2148 H2134 0.931 . S
C2148 C2147 1.385 . S
C2148 C2149 1.389 . S
C2149 C2148 1.389 . S
C2149 C2150 1.387 . S
C2150 H2135 0.930 . S
C2150 C2145 1.390 . S
C2150 C2149 1.387 . S
H2151 C2163 0.930 . S
H2152 C2165 0.930 . S
H2153 C2166 0.930 . S
H2154 C2170 0.959 . S
H2155 C2170 0.959 . S
H2156 C2170 0.961 . S
H2157 C2171 0.960 . S
H2158 C2171 0.961 . S
H2159 C2171 0.959 . S
H2160 C2174 0.929 . S
H2161 C2175 0.931 . S
H2162 C2177 0.930 . S
C2163 H2151 0.930 . S
C2163 C2164 1.399 . S
C2163 C2168 1.399 1_565 S
C2164 C2163 1.399 . S
C2164 C2165 1.376 . S
C2165 H2152 0.930 . S
C2165 C2164 1.376 . S
C2165 C2166 1.388 . S
C2166 H2153 0.930 . S
C2166 C2165 1.388 . S
C2166 C2167 1.390 . S
C2167 C2166 1.390 . S
C2167 C2168 1.394 1_565 S
C2167 C2173 1.465 1_565 S
C2168 C2163 1.399 1_545 S
C2168 C2167 1.394 1_545 S
C2168 C2169 1.516 . S
C2169 C2168 1.516 . S
C2169 C2170 1.502 . S
C2169 C2171 1.561 . S
C2169 C2172 1.526 . S
C2170 H2154 0.959 . S
C2170 H2155 0.959 . S
C2170 H2156 0.961 . S
C2170 C2169 1.502 . S
C2171 H2157 0.960 . S
C2171 H2158 0.961 . S
C2171 H2159 0.959 . S
C2171 C2169 1.561 . S
C2172 C2169 1.526 . S
C2172 C2173 1.396 . S
C2172 C2177 1.390 . S
C2173 C2167 1.465 1_545 S
C2173 C2172 1.396 . S
C2173 C2174 1.399 . S
C2174 H2160 0.929 . S
C2174 C2173 1.399 . S
C2174 C2175 1.385 . S
C2175 H2161 0.931 . S
C2175 C2174 1.385 . S
C2175 C2176 1.389 . S
C2176 C2175 1.389 . S
C2176 C2177 1.387 . S
C2177 H2162 0.930 . S
C2177 C2172 1.390 . S
C2177 C2176 1.387 . S
H2178 C2190 0.930 . S
H2179 C2192 0.930 . S
H2180 C2193 0.930 . S
H2181 C2197 0.959 . S
H2182 C2197 0.959 . S
H2183 C2197 0.961 . S
H2184 C2198 0.960 . S
H2185 C2198 0.961 . S
H2186 C2198 0.959 . S
H2187 C2201 0.929 . S
H2188 C2202 0.931 . S
H2189 C2204 0.930 . S
C2190 H2178 0.930 . S
C2190 C2191 1.399 . S
C2190 C2195 1.399 1_554 S
C2191 C2190 1.399 . S
C2191 C2192 1.376 . S
C2192 H2179 0.930 . S
C2192 C2191 1.376 . S
C2192 C2193 1.388 . S
C2193 H2180 0.930 . S
C2193 C2192 1.388 . S
C2193 C2194 1.390 1_554 S
C2194 C2193 1.390 1_556 S
C2194 C2195 1.394 . S
C2194 C2200 1.465 . S
C2195 C2190 1.399 1_556 S
C2195 C2194 1.394 . S
C2195 C2196 1.516 . S
C2196 C2195 1.516 . S
C2196 C2197 1.502 . S
C2196 C2198 1.561 . S
C2196 C2199 1.526 . S
C2197 H2181 0.959 . S
C2197 H2182 0.959 . S
C2197 H2183 0.961 . S
C2197 C2196 1.502 . S
C2198 H2184 0.960 . S
C2198 H2185 0.961 . S
C2198 H2186 0.959 . S
C2198 C2196 1.561 . S
C2199 C2196 1.526 . S
C2199 C2200 1.396 . S
C2199 C2204 1.390 . S
C2200 C2194 1.465 . S
C2200 C2199 1.396 . S
C2200 C2201 1.399 . S
C2201 H2187 0.929 . S
C2201 C2200 1.399 . S
C2201 C2202 1.385 . S
C2202 H2188 0.931 . S
C2202 C2201 1.385 . S
C2202 C2203 1.389 . S
C2203 C2202 1.389 . S
C2203 C2204 1.387 . S
C2204 H2189 0.930 . S
C2204 C2199 1.390 . S
C2204 C2203 1.387 . S
H2205 C2217 0.930 . S
H2206 C2219 0.930 . S
H2207 C2220 0.936 . S
H2208 C2224 0.959 1_655 S
H2209 C2224 0.959 . S
H2210 C2224 0.961 1_655 S
H2211 C2225 0.960 . S
H2212 C2225 0.961 . S
H2213 C2225 0.959 . S
H2214 C2228 0.929 . S
H2215 C2229 0.931 . S
H2216 C2231 0.930 . S
C2217 H2205 0.930 . S
C2217 C2218 1.399 . S
C2217 C2222 1.399 1_655 S
C2218 C2217 1.399 . S
C2218 C2219 1.376 . S
C2219 H2206 0.930 . S
C2219 C2218 1.376 . S
C2219 C2220 1.373 1_655 S
C2220 H2207 0.936 . S
C2220 C2219 1.373 1_455 S
C2220 C2221 1.400 . S
C2221 C2220 1.400 . S
C2221 C2222 1.394 . S
C2221 C2227 1.465 . S
C2222 C2217 1.399 1_455 S
C2222 C2221 1.394 . S
C2222 C2223 1.516 . S
C2223 C2222 1.516 . S
C2223 C2224 1.502 . S
C2223 C2225 1.561 . S
C2223 C2226 1.526 . S
C2224 H2208 0.959 1_455 S
C2224 H2209 0.959 . S
C2224 H2210 0.961 1_455 S
C2224 C2223 1.502 . S
C2225 H2211 0.960 . S
C2225 H2212 0.961 . S
C2225 H2213 0.959 . S
C2225 C2223 1.561 . S
C2226 C2223 1.526 . S
C2226 C2227 1.396 . S
C2226 C2231 1.390 . S
C2227 C2221 1.465 . S
C2227 C2226 1.396 . S
C2227 C2228 1.399 . S
C2228 H2214 0.929 . S
C2228 C2227 1.399 . S
C2228 C2229 1.385 . S
C2229 H2215 0.931 . S
C2229 C2228 1.385 . S
C2229 C2230 1.389 . S
C2230 C2229 1.389 . S
C2230 C2231 1.387 . S
C2231 H2216 0.930 . S
C2231 C2226 1.390 . S
C2231 C2230 1.387 . S
H2232 C2244 0.930 . S
H2233 C2246 0.930 . S
H2234 C2247 0.930 . S
H2235 C2251 0.959 . S
H2236 C2251 0.959 . S
H2237 C2251 0.961 . S
H2238 C2252 0.960 . S
H2239 C2252 0.961 . S
H2240 C2252 0.959 . S
H2241 C2255 0.929 . S
H2242 C2256 0.931 . S
H2243 C2258 0.930 . S
C2244 H2232 0.930 . S
C2244 C2245 1.399 . S
C2244 C2249 1.399 . S
C2245 C2244 1.399 . S
C2245 C2246 1.376 . S
C2246 H2233 0.930 . S
C2246 C2245 1.376 . S
C2246 C2247 1.388 . S
C2247 H2234 0.930 . S
C2247 C2246 1.388 . S
C2247 C2248 1.390 . S
C2248 C2247 1.390 . S
C2248 C2249 1.394 . S
C2248 C2254 1.465 . S
C2249 C2244 1.399 . S
C2249 C2248 1.394 . S
C2249 C2250 1.516 . S
C2250 C2249 1.516 . S
C2250 C2251 1.502 . S
C2250 C2252 1.561 . S
C2250 C2253 1.526 . S
C2251 H2235 0.959 . S
C2251 H2236 0.959 . S
C2251 H2237 0.961 . S
C2251 C2250 1.502 . S
C2252 H2238 0.960 . S
C2252 H2239 0.961 . S
C2252 H2240 0.959 . S
C2252 C2250 1.561 . S
C2253 C2250 1.526 . S
C2253 C2254 1.396 . S
C2253 C2258 1.390 . S
C2254 C2248 1.465 . S
C2254 C2253 1.396 . S
C2254 C2255 1.399 . S
C2255 H2241 0.929 . S
C2255 C2254 1.399 . S
C2255 C2256 1.385 . S
C2256 H2242 0.931 . S
C2256 C2255 1.385 . S
C2256 C2257 1.389 . S
C2257 C2256 1.389 . S
C2257 C2258 1.387 . S
C2258 H2243 0.930 . S
C2258 C2253 1.390 . S
C2258 C2257 1.387 . S
H2259 C2271 0.930 . S
H2260 C2273 0.930 . S
H2261 C2274 0.930 . S
H2262 C2278 0.959 . S
H2263 C2278 0.959 1_655 S
H2264 C2278 0.961 . S
H2265 C2279 0.960 . S
H2266 C2279 0.961 . S
H2267 C2279 0.959 . S
H2268 C2282 0.929 . S
H2269 C2283 0.931 . S
H2270 C2285 0.930 . S
C2271 H2259 0.930 . S
C2271 C2272 1.399 . S
C2271 C2276 1.399 . S
C2272 C2271 1.399 . S
C2272 C2273 1.376 . S
C2273 H2260 0.930 . S
C2273 C2272 1.376 . S
C2273 C2274 1.388 . S
C2274 H2261 0.930 . S
C2274 C2273 1.388 . S
C2274 C2275 1.390 . S
C2275 C2274 1.390 . S
C2275 C2276 1.394 . S
C2275 C2281 1.465 1_455 S
C2276 C2271 1.399 . S
C2276 C2275 1.394 . S
C2276 C2277 1.516 1_455 S
C2277 C2276 1.516 1_655 S
C2277 C2278 1.502 1_655 S
C2277 C2279 1.561 . S
C2277 C2280 1.526 . S
C2278 H2262 0.959 . S
C2278 H2263 0.959 1_455 S
C2278 H2264 0.961 . S
C2278 C2277 1.502 1_455 S
C2279 H2265 0.960 . S
C2279 H2266 0.961 . S
C2279 H2267 0.959 . S
C2279 C2277 1.561 . S
C2280 C2277 1.526 . S
C2280 C2281 1.396 . S
C2280 C2285 1.390 . S
C2281 C2275 1.465 1_655 S
C2281 C2280 1.396 . S
C2281 C2282 1.399 . S
C2282 H2268 0.929 . S
C2282 C2281 1.399 . S
C2282 C2283 1.385 . S
C2283 H2269 0.931 . S
C2283 C2282 1.385 . S
C2283 C2284 1.389 . S
C2284 C2283 1.389 . S
C2284 C2285 1.387 . S
C2285 H2270 0.930 . S
C2285 C2280 1.390 . S
C2285 C2284 1.387 . S
H2286 C2298 0.930 . S
H2287 C2300 0.930 . S
H2288 C2301 0.930 . S
H2289 C2305 0.959 . S
H2290 C2305 0.959 1_655 S
H2291 C2305 0.961 . S
H2292 C2306 0.960 . S
H2293 C2306 0.961 . S
H2294 C2306 0.959 . S
H2295 C2309 0.929 . S
H2296 C2310 0.931 . S
H2297 C2312 0.930 . S
C2298 H2286 0.930 . S
C2298 C2299 1.399 . S
C2298 C2303 1.399 1_455 S
C2299 C2298 1.399 . S
C2299 C2300 1.376 1_455 S
C2300 H2287 0.930 . S
C2300 C2299 1.376 1_655 S
C2300 C2301 1.388 . S
C2301 H2288 0.930 . S
C2301 C2300 1.388 . S
C2301 C2302 1.390 . S
C2302 C2301 1.390 . S
C2302 C2303 1.394 . S
C2302 C2308 1.465 . S
C2303 C2298 1.399 1_655 S
C2303 C2302 1.394 . S
C2303 C2304 1.516 . S
C2304 C2303 1.516 . S
C2304 C2305 1.502 1_655 S
C2304 C2306 1.561 . S
C2304 C2307 1.526 . S
C2305 H2289 0.959 . S
C2305 H2290 0.959 1_455 S
C2305 H2291 0.961 . S
C2305 C2304 1.502 1_455 S
C2306 H2292 0.960 . S
C2306 H2293 0.961 . S
C2306 H2294 0.959 . S
C2306 C2304 1.561 . S
C2307 C2304 1.526 . S
C2307 C2308 1.396 . S
C2307 C2312 1.390 . S
C2308 C2302 1.465 . S
C2308 C2307 1.396 . S
C2308 C2309 1.399 . S
C2309 H2295 0.929 . S
C2309 C2308 1.399 . S
C2309 C2310 1.385 . S
C2310 H2296 0.931 . S
C2310 C2309 1.385 . S
C2310 C2311 1.389 . S
C2311 C2310 1.389 . S
C2311 C2312 1.387 . S
C2312 H2297 0.930 . S
C2312 C2307 1.390 . S
C2312 C2311 1.387 . S
H2313 C2325 0.930 . S
H2314 C2327 0.930 . S
H2315 C2328 0.930 . S
H2316 C2332 0.959 . S
H2317 C2332 0.959 . S
H2318 C2332 0.961 . S
H2319 C2333 0.960 . S
H2320 C2333 0.961 . S
H2321 C2333 0.959 . S
H2322 C2336 0.929 . S
H2323 C2337 0.931 . S
H2324 C2339 0.930 . S
C2325 H2313 0.930 . S
C2325 C2326 1.399 . S
C2325 C2330 1.399 . S
C2326 C2325 1.399 . S
C2326 C2327 1.376 . S
C2327 H2314 0.930 . S
C2327 C2326 1.376 . S
C2327 C2328 1.388 . S
C2328 H2315 0.930 . S
C2328 C2327 1.388 . S
C2328 C2329 1.390 . S
C2329 C2328 1.390 . S
C2329 C2330 1.394 . S
C2329 C2335 1.465 . S
C2330 C2325 1.399 . S
C2330 C2329 1.394 . S
C2330 C2331 1.516 . S
C2331 C2330 1.516 . S
C2331 C2332 1.502 . S
C2331 C2333 1.561 . S
C2331 C2334 1.526 . S
C2332 H2316 0.959 . S
C2332 H2317 0.959 . S
C2332 H2318 0.961 . S
C2332 C2331 1.502 . S
C2333 H2319 0.960 . S
C2333 H2320 0.961 . S
C2333 H2321 0.959 . S
C2333 C2331 1.561 . S
C2334 C2331 1.526 . S
C2334 C2335 1.396 . S
C2334 C2339 1.390 . S
C2335 C2329 1.465 . S
C2335 C2334 1.396 . S
C2335 C2336 1.399 . S
C2336 H2322 0.929 . S
C2336 C2335 1.399 . S
C2336 C2337 1.385 . S
C2337 H2323 0.931 . S
C2337 C2336 1.385 . S
C2337 C2338 1.389 . S
C2338 C2337 1.389 . S
C2338 C2339 1.387 . S
C2339 H2324 0.930 . S
C2339 C2334 1.390 . S
C2339 C2338 1.387 . S
H2340 C2352 0.930 . S
H2341 C2354 0.930 . S
H2342 C2355 0.930 . S
H2343 C2359 0.959 . S
H2344 C2359 0.959 . S
H2345 C2359 0.961 . S
H2346 C2360 0.960 . S
H2347 C2360 0.961 . S
H2348 C2360 0.959 . S
H2349 C2363 0.929 . S
H2350 C2364 0.931 . S
H2351 C2366 0.930 . S
C2352 H2340 0.930 . S
C2352 C2353 1.399 . S
C2352 C2357 1.399 1_655 S
C2353 C2352 1.399 . S
C2353 C2354 1.376 . S
C2354 H2341 0.930 . S
C2354 C2353 1.376 . S
C2354 C2355 1.388 . S
C2355 H2342 0.930 . S
C2355 C2354 1.388 . S
C2355 C2356 1.390 . S
C2356 C2355 1.390 . S
C2356 C2357 1.394 1_655 S
C2356 C2362 1.465 1_655 S
C2357 C2352 1.399 1_455 S
C2357 C2356 1.394 1_455 S
C2357 C2358 1.516 . S
C2358 C2357 1.516 . S
C2358 C2359 1.502 . S
C2358 C2360 1.561 . S
C2358 C2361 1.526 . S
C2359 H2343 0.959 . S
C2359 H2344 0.959 . S
C2359 H2345 0.961 . S
C2359 C2358 1.502 . S
C2360 H2346 0.960 . S
C2360 H2347 0.961 . S
C2360 H2348 0.959 . S
C2360 C2358 1.561 . S
C2361 C2358 1.526 . S
C2361 C2362 1.396 . S
C2361 C2366 1.390 . S
C2362 C2356 1.465 1_455 S
C2362 C2361 1.396 . S
C2362 C2363 1.399 . S
C2363 H2349 0.929 . S
C2363 C2362 1.399 . S
C2363 C2364 1.385 . S
C2364 H2350 0.931 . S
C2364 C2363 1.385 . S
C2364 C2365 1.389 . S
C2365 C2364 1.389 . S
C2365 C2366 1.387 . S
C2366 H2351 0.930 . S
C2366 C2361 1.390 . S
C2366 C2365 1.387 . S
H2367 C2379 0.930 . S
H2368 C2381 0.930 . S
H2369 C2382 0.930 . S
H2370 C2386 0.959 . S
H2371 C2386 0.959 . S
H2372 C2386 0.961 . S
H2373 C2387 0.960 . S
H2374 C2387 0.961 . S
H2375 C2387 0.959 . S
H2376 C2390 0.929 . S
H2377 C2391 0.931 . S
H2378 C2393 0.930 . S
C2379 H2367 0.930 . S
C2379 C2380 1.399 . S
C2379 C2384 1.399 . S
C2380 C2379 1.399 . S
C2380 C2381 1.376 . S
C2381 H2368 0.930 . S
C2381 C2380 1.376 . S
C2381 C2382 1.388 . S
C2382 H2369 0.930 . S
C2382 C2381 1.388 . S
C2382 C2383 1.390 . S
C2383 C2382 1.390 . S
C2383 C2384 1.394 . S
C2383 C2389 1.465 . S
C2384 C2379 1.399 . S
C2384 C2383 1.394 . S
C2384 C2385 1.516 . S
C2385 C2384 1.516 . S
C2385 C2386 1.502 . S
C2385 C2387 1.561 . S
C2385 C2388 1.526 . S
C2386 H2370 0.959 . S
C2386 H2371 0.959 . S
C2386 H2372 0.961 . S
C2386 C2385 1.502 . S
C2387 H2373 0.960 . S
C2387 H2374 0.961 . S
C2387 H2375 0.959 . S
C2387 C2385 1.561 . S
C2388 C2385 1.526 . S
C2388 C2389 1.396 . S
C2388 C2393 1.390 . S
C2389 C2383 1.465 . S
C2389 C2388 1.396 . S
C2389 C2390 1.399 . S
C2390 H2376 0.929 . S
C2390 C2389 1.399 . S
C2390 C2391 1.385 . S
C2391 H2377 0.931 . S
C2391 C2390 1.385 . S
C2391 C2392 1.389 . S
C2392 C2391 1.389 . S
C2392 C2393 1.387 . S
C2393 H2378 0.930 . S
C2393 C2388 1.390 . S
C2393 C2392 1.387 . S
H2394 C2406 0.930 . S
H2395 C2408 0.930 . S
H2396 C2409 0.930 . S
H2397 C2413 0.959 . S
H2398 C2413 0.959 . S
H2399 C2413 0.961 . S
H2400 C2414 0.960 . S
H2401 C2414 0.961 . S
H2402 C2414 0.959 . S
H2403 C2417 0.929 . S
H2404 C2418 0.931 . S
H2405 C2420 0.930 . S
C2406 H2394 0.930 . S
C2406 C2407 1.399 . S
C2406 C2411 1.399 . S
C2407 C2406 1.399 . S
C2407 C2408 1.376 . S
C2408 H2395 0.930 . S
C2408 C2407 1.376 . S
C2408 C2409 1.388 . S
C2409 H2396 0.930 . S
C2409 C2408 1.388 . S
C2409 C2410 1.390 . S
C2410 C2409 1.390 . S
C2410 C2411 1.394 . S
C2410 C2416 1.465 . S
C2411 C2406 1.399 . S
C2411 C2410 1.394 . S
C2411 C2412 1.516 . S
C2412 C2411 1.516 . S
C2412 C2413 1.502 . S
C2412 C2414 1.561 . S
C2412 C2415 1.526 . S
C2413 H2397 0.959 . S
C2413 H2398 0.959 . S
C2413 H2399 0.961 . S
C2413 C2412 1.502 . S
C2414 H2400 0.960 . S
C2414 H2401 0.961 . S
C2414 H2402 0.959 . S
C2414 C2412 1.561 . S
C2415 C2412 1.526 . S
C2415 C2416 1.396 . S
C2415 C2420 1.390 . S
C2416 C2410 1.465 . S
C2416 C2415 1.396 . S
C2416 C2417 1.399 . S
C2417 H2403 0.929 . S
C2417 C2416 1.399 . S
C2417 C2418 1.385 . S
C2418 H2404 0.931 . S
C2418 C2417 1.385 . S
C2418 C2419 1.389 . S
C2419 C2418 1.389 . S
C2419 C2420 1.387 . S
C2420 H2405 0.930 . S
C2420 C2415 1.390 . S
C2420 C2419 1.387 . S
H2421 C2433 0.930 . S
H2422 C2435 0.930 . S
H2423 C2436 0.930 1_556 S
H2424 C2440 0.959 . S
H2425 C2440 0.959 . S
H2426 C2440 0.961 . S
H2427 C2441 0.960 1_554 S
H2428 C2441 0.961 . S
H2429 C2441 0.959 . S
H2430 C2444 0.929 . S
H2431 C2445 0.931 . S
H2432 C2447 0.930 . S
C2433 H2421 0.930 . S
C2433 C2434 1.399 . S
C2433 C2438 1.399 . S
C2434 C2433 1.399 . S
C2434 C2435 1.376 . S
C2435 H2422 0.930 . S
C2435 C2434 1.376 . S
C2435 C2436 1.388 . S
C2436 H2423 0.930 1_554 S
C2436 C2435 1.388 . S
C2436 C2437 1.392 . S
C2437 C2436 1.392 . S
C2437 C2438 1.398 . S
C2437 C2443 1.459 1_554 S
C2438 C2433 1.399 . S
C2438 C2437 1.398 . S
C2438 C2439 1.516 . S
C2439 C2438 1.516 . S
C2439 C2440 1.502 . S
C2439 C2441 1.561 1_554 S
C2439 C2442 1.526 1_554 S
C2440 H2424 0.959 . S
C2440 H2425 0.959 . S
C2440 H2426 0.961 . S
C2440 C2439 1.502 . S
C2441 H2427 0.960 1_556 S
C2441 H2428 0.961 . S
C2441 H2429 0.959 . S
C2441 C2439 1.561 1_556 S
C2442 C2439 1.526 1_556 S
C2442 C2443 1.396 . S
C2442 C2447 1.390 . S
C2443 C2437 1.459 1_556 S
C2443 C2442 1.396 . S
C2443 C2444 1.399 . S
C2444 H2430 0.929 . S
C2444 C2443 1.399 . S
C2444 C2445 1.385 . S
C2445 H2431 0.931 . S
C2445 C2444 1.385 . S
C2445 C2446 1.389 . S
C2446 C2445 1.389 . S
C2446 C2447 1.387 . S
C2447 H2432 0.930 . S
C2447 C2442 1.390 . S
C2447 C2446 1.387 . S
H2448 C2460 0.930 . S
H2449 C2462 0.930 . S
H2450 C2463 0.930 . S
H2451 C2467 0.959 . S
H2452 C2467 0.959 . S
H2453 C2467 0.961 . S
H2454 C2468 0.960 . S
H2455 C2468 0.961 . S
H2456 C2468 0.959 . S
H2457 C2471 0.929 . S
H2458 C2472 0.931 . S
H2459 C2474 0.930 . S
C2460 H2448 0.930 . S
C2460 C2461 1.399 . S
C2460 C2465 1.399 . S
C2461 C2460 1.399 . S
C2461 C2462 1.376 . S
C2462 H2449 0.930 . S
C2462 C2461 1.376 . S
C2462 C2463 1.388 . S
C2463 H2450 0.930 . S
C2463 C2462 1.388 . S
C2463 C2464 1.390 . S
C2464 C2463 1.390 . S
C2464 C2465 1.394 . S
C2464 C2470 1.465 . S
C2465 C2460 1.399 . S
C2465 C2464 1.394 . S
C2465 C2466 1.516 . S
C2466 C2465 1.516 . S
C2466 C2467 1.502 . S
C2466 C2468 1.561 . S
C2466 C2469 1.526 . S
C2467 H2451 0.959 . S
C2467 H2452 0.959 . S
C2467 H2453 0.961 . S
C2467 C2466 1.502 . S
C2468 H2454 0.960 . S
C2468 H2455 0.961 . S
C2468 H2456 0.959 . S
C2468 C2466 1.561 . S
C2469 C2466 1.526 . S
C2469 C2470 1.396 . S
C2469 C2474 1.390 . S
C2470 C2464 1.465 . S
C2470 C2469 1.396 . S
C2470 C2471 1.399 . S
C2471 H2457 0.929 . S
C2471 C2470 1.399 . S
C2471 C2472 1.385 . S
C2472 H2458 0.931 . S
C2472 C2471 1.385 . S
C2472 C2473 1.389 . S
C2473 C2472 1.389 . S
C2473 C2474 1.387 . S
C2474 H2459 0.930 . S
C2474 C2469 1.390 . S
C2474 C2473 1.387 . S
H2475 C2487 0.930 . S
H2476 C2489 0.930 . S
H2477 C2490 0.930 . S
H2478 C2494 0.959 . S
H2479 C2494 0.959 . S
H2480 C2494 0.961 . S
H2481 C2495 0.960 . S
H2482 C2495 0.961 . S
H2483 C2495 0.959 . S
H2484 C2498 0.929 . S
H2485 C2499 0.931 . S
H2486 C2501 0.930 . S
C2487 H2475 0.930 . S
C2487 C2488 1.399 . S
C2487 C2492 1.399 . S
C2488 C2487 1.399 . S
C2488 C2489 1.376 . S
C2489 H2476 0.930 . S
C2489 C2488 1.376 . S
C2489 C2490 1.388 . S
C2490 H2477 0.930 . S
C2490 C2489 1.388 . S
C2490 C2491 1.390 . S
C2491 C2490 1.390 . S
C2491 C2492 1.394 . S
C2491 C2497 1.465 . S
C2492 C2487 1.399 . S
C2492 C2491 1.394 . S
C2492 C2493 1.516 . S
C2493 C2492 1.516 . S
C2493 C2494 1.502 . S
C2493 C2495 1.561 . S
C2493 C2496 1.526 . S
C2494 H2478 0.959 . S
C2494 H2479 0.959 . S
C2494 H2480 0.961 . S
C2494 C2493 1.502 . S
C2495 H2481 0.960 . S
C2495 H2482 0.961 . S
C2495 H2483 0.959 . S
C2495 C2493 1.561 . S
C2496 C2493 1.526 . S
C2496 C2497 1.396 . S
C2496 C2501 1.390 . S
C2497 C2491 1.465 . S
C2497 C2496 1.396 . S
C2497 C2498 1.399 . S
C2498 H2484 0.929 . S
C2498 C2497 1.399 . S
C2498 C2499 1.385 . S
C2499 H2485 0.931 . S
C2499 C2498 1.385 . S
C2499 C2500 1.389 . S
C2500 C2499 1.389 . S
C2500 C2501 1.387 . S
C2501 H2486 0.930 . S
C2501 C2496 1.390 . S
C2501 C2500 1.387 . S
H2502 C2514 0.930 . S
H2503 C2516 0.930 . S
H2504 C2517 0.930 . S
H2505 C2521 0.959 . S
H2506 C2521 0.959 . S
H2507 C2521 0.961 . S
H2508 C2522 0.960 . S
H2509 C2522 0.961 . S
H2510 C2522 0.959 . S
H2511 C2525 0.929 . S
H2512 C2526 0.931 . S
H2513 C2528 0.930 . S
C2514 H2502 0.930 . S
C2514 C2515 1.399 . S
C2514 C2519 1.399 . S
C2515 C2514 1.399 . S
C2515 C2516 1.376 . S
C2516 H2503 0.930 . S
C2516 C2515 1.376 . S
C2516 C2517 1.388 . S
C2517 H2504 0.930 . S
C2517 C2516 1.388 . S
C2517 C2518 1.390 . S
C2518 C2517 1.390 . S
C2518 C2519 1.394 . S
C2518 C2524 1.465 . S
C2519 C2514 1.399 . S
C2519 C2518 1.394 . S
C2519 C2520 1.516 . S
C2520 C2519 1.516 . S
C2520 C2521 1.502 . S
C2520 C2522 1.561 . S
C2520 C2523 1.526 . S
C2521 H2505 0.959 . S
C2521 H2506 0.959 . S
C2521 H2507 0.961 . S
C2521 C2520 1.502 . S
C2522 H2508 0.960 . S
C2522 H2509 0.961 . S
C2522 H2510 0.959 . S
C2522 C2520 1.561 . S
C2523 C2520 1.526 . S
C2523 C2524 1.396 . S
C2523 C2528 1.390 . S
C2524 C2518 1.465 . S
C2524 C2523 1.396 . S
C2524 C2525 1.399 . S
C2525 H2511 0.929 . S
C2525 C2524 1.399 . S
C2525 C2526 1.385 . S
C2526 H2512 0.931 . S
C2526 C2525 1.385 . S
C2526 C2527 1.389 . S
C2527 C2526 1.389 . S
C2527 C2528 1.387 . S
C2528 H2513 0.930 . S
C2528 C2523 1.390 . S
C2528 C2527 1.387 . S
H2529 C2541 0.930 . S
H2530 C2543 0.930 . S
H2531 C2544 0.930 . S
H2532 C2548 0.959 . S
H2533 C2548 0.959 . S
H2534 C2548 0.961 . S
H2535 C2549 0.960 . S
H2536 C2549 0.959 . S
H2537 C2549 0.959 . S
H2538 C2552 0.929 1_554 S
H2539 C2553 0.931 . S
H2540 C2555 0.930 . S
C2541 H2529 0.930 . S
C2541 C2542 1.399 . S
C2541 C2546 1.399 . S
C2542 C2541 1.399 . S
C2542 C2543 1.376 . S
C2543 H2530 0.930 . S
C2543 C2542 1.376 . S
C2543 C2544 1.388 . S
C2544 H2531 0.930 . S
C2544 C2543 1.388 . S
C2544 C2545 1.390 . S
C2545 C2544 1.390 . S
C2545 C2546 1.394 . S
C2545 C2551 1.465 . S
C2546 C2541 1.399 . S
C2546 C2545 1.394 . S
C2546 C2547 1.516 . S
C2547 C2546 1.516 . S
C2547 C2548 1.502 1_554 S
C2547 C2549 1.561 . S
C2547 C2550 1.526 1_554 S
C2548 H2532 0.959 . S
C2548 H2533 0.959 . S
C2548 H2534 0.961 . S
C2548 C2547 1.502 1_556 S
C2549 H2535 0.960 . S
C2549 H2536 0.959 . S
C2549 H2537 0.959 . S
C2549 C2547 1.561 . S
C2550 C2547 1.526 1_556 S
C2550 C2551 1.396 1_556 S
C2550 C2555 1.390 . S
C2551 C2545 1.465 . S
C2551 C2550 1.396 1_554 S
C2551 C2552 1.399 1_554 S
C2552 H2538 0.929 1_556 S
C2552 C2551 1.399 1_556 S
C2552 C2553 1.385 . S
C2553 H2539 0.931 . S
C2553 C2552 1.385 . S
C2553 C2554 1.389 . S
C2554 C2553 1.389 . S
C2554 C2555 1.387 . S
C2555 H2540 0.930 . S
C2555 C2550 1.390 . S
C2555 C2554 1.387 . S
H2556 C2568 0.930 . S
H2557 C2570 0.930 . S
H2558 C2571 0.930 . S
H2559 C2575 0.959 . S
H2560 C2575 0.959 . S
H2561 C2575 0.961 . S
H2562 C2576 0.960 . S
H2563 C2576 0.961 . S
H2564 C2576 0.959 . S
H2565 C2579 0.929 . S
H2566 C2580 0.931 . S
H2567 C2582 0.930 . S
C2568 H2556 0.930 . S
C2568 C2569 1.399 . S
C2568 C2573 1.399 . S
C2569 C2568 1.399 . S
C2569 C2570 1.376 . S
C2570 H2557 0.930 . S
C2570 C2569 1.376 . S
C2570 C2571 1.388 . S
C2571 H2558 0.930 . S
C2571 C2570 1.388 . S
C2571 C2572 1.390 . S
C2572 C2571 1.390 . S
C2572 C2573 1.394 . S
C2572 C2578 1.465 . S
C2573 C2568 1.399 . S
C2573 C2572 1.394 . S
C2573 C2574 1.516 . S
C2574 C2573 1.516 . S
C2574 C2575 1.502 . S
C2574 C2576 1.561 . S
C2574 C2577 1.526 . S
C2575 H2559 0.959 . S
C2575 H2560 0.959 . S
C2575 H2561 0.961 . S
C2575 C2574 1.502 . S
C2576 H2562 0.960 . S
C2576 H2563 0.961 . S
C2576 H2564 0.959 . S
C2576 C2574 1.561 . S
C2577 C2574 1.526 . S
C2577 C2578 1.396 . S
C2577 C2582 1.390 . S
C2578 C2572 1.465 . S
C2578 C2577 1.396 . S
C2578 C2579 1.399 . S
C2579 H2565 0.929 . S
C2579 C2578 1.399 . S
C2579 C2580 1.385 . S
C2580 H2566 0.931 . S
C2580 C2579 1.385 . S
C2580 C2581 1.389 . S
C2581 C2580 1.389 . S
C2581 C2582 1.387 . S
C2582 H2567 0.930 . S
C2582 C2577 1.390 . S
C2582 C2581 1.387 . S
H2583 C2595 0.930 . S
H2584 C2597 0.930 . S
H2585 C2598 0.930 . S
H2586 C2602 0.959 . S
H2587 C2602 0.959 . S
H2588 C2602 0.961 . S
H2589 C2603 0.960 . S
H2590 C2603 0.961 . S
H2591 C2603 0.959 . S
H2592 C2606 0.929 . S
H2593 C2607 0.931 . S
H2594 C2609 0.930 . S
C2595 H2583 0.930 . S
C2595 C2596 1.399 . S
C2595 C2600 1.399 . S
C2596 C2595 1.399 . S
C2596 C2597 1.376 . S
C2597 H2584 0.930 . S
C2597 C2596 1.376 . S
C2597 C2598 1.388 . S
C2598 H2585 0.930 . S
C2598 C2597 1.388 . S
C2598 C2599 1.390 . S
C2599 C2598 1.390 . S
C2599 C2600 1.394 . S
C2599 C2605 1.465 . S
C2600 C2595 1.399 . S
C2600 C2599 1.394 . S
C2600 C2601 1.516 . S
C2601 C2600 1.516 . S
C2601 C2602 1.502 . S
C2601 C2603 1.561 . S
C2601 C2604 1.526 . S
C2602 H2586 0.959 . S
C2602 H2587 0.959 . S
C2602 H2588 0.961 . S
C2602 C2601 1.502 . S
C2603 H2589 0.960 . S
C2603 H2590 0.961 . S
C2603 H2591 0.959 . S
C2603 C2601 1.561 . S
C2604 C2601 1.526 . S
C2604 C2605 1.396 . S
C2604 C2609 1.390 . S
C2605 C2599 1.465 . S
C2605 C2604 1.396 . S
C2605 C2606 1.399 . S
C2606 H2592 0.929 . S
C2606 C2605 1.399 . S
C2606 C2607 1.385 . S
C2607 H2593 0.931 . S
C2607 C2606 1.385 . S
C2607 C2608 1.389 . S
C2608 C2607 1.389 . S
C2608 C2609 1.387 . S
C2609 H2594 0.930 . S
C2609 C2604 1.390 . S
C2609 C2608 1.387 . S
H2610 C2622 0.930 . S
H2611 C2624 0.930 . S
H2612 C2625 0.930 . S
H2613 C2629 0.959 . S
H2614 C2629 0.959 . S
H2615 C2629 0.961 . S
H2616 C2630 0.960 . S
H2617 C2630 0.961 . S
H2618 C2630 0.959 . S
H2619 C2633 0.929 . S
H2620 C2634 0.931 . S
H2621 C2636 0.930 . S
C2622 H2610 0.930 . S
C2622 C2623 1.399 . S
C2622 C2627 1.399 . S
C2623 C2622 1.399 . S
C2623 C2624 1.376 . S
C2624 H2611 0.930 . S
C2624 C2623 1.376 . S
C2624 C2625 1.388 . S
C2625 H2612 0.930 . S
C2625 C2624 1.388 . S
C2625 C2626 1.390 . S
C2626 C2625 1.390 . S
C2626 C2627 1.394 . S
C2626 C2632 1.465 . S
C2627 C2622 1.399 . S
C2627 C2626 1.394 . S
C2627 C2628 1.516 . S
C2628 C2627 1.516 . S
C2628 C2629 1.502 . S
C2628 C2630 1.561 . S
C2628 C2631 1.526 . S
C2629 H2613 0.959 . S
C2629 H2614 0.959 . S
C2629 H2615 0.961 . S
C2629 C2628 1.502 . S
C2630 H2616 0.960 . S
C2630 H2617 0.961 . S
C2630 H2618 0.959 . S
C2630 C2628 1.561 . S
C2631 C2628 1.526 . S
C2631 C2632 1.396 . S
C2631 C2636 1.390 . S
C2632 C2626 1.465 . S
C2632 C2631 1.396 . S
C2632 C2633 1.399 . S
C2633 H2619 0.929 . S
C2633 C2632 1.399 . S
C2633 C2634 1.385 . S
C2634 H2620 0.931 . S
C2634 C2633 1.385 . S
C2634 C2635 1.389 . S
C2635 C2634 1.389 . S
C2635 C2636 1.387 . S
C2636 H2621 0.930 . S
C2636 C2631 1.390 . S
C2636 C2635 1.387 . S
H2637 C2649 0.930 . S
H2638 C2651 0.930 . S
H2639 C2652 0.930 . S
H2640 C2656 0.959 . S
H2641 C2656 0.959 . S
H2642 C2656 0.961 . S
H2643 C2657 0.960 . S
H2644 C2657 0.961 . S
H2645 C2657 0.959 . S
H2646 C2660 0.929 . S
H2647 C2661 0.931 . S
H2648 C2663 0.930 . S
C2649 H2637 0.930 . S
C2649 C2650 1.399 . S
C2649 C2654 1.399 . S
C2650 C2649 1.399 . S
C2650 C2651 1.376 . S
C2651 H2638 0.930 . S
C2651 C2650 1.376 . S
C2651 C2652 1.388 . S
C2652 H2639 0.930 . S
C2652 C2651 1.388 . S
C2652 C2653 1.390 . S
C2653 C2652 1.390 . S
C2653 C2654 1.394 . S
C2653 C2659 1.465 . S
C2654 C2649 1.399 . S
C2654 C2653 1.394 . S
C2654 C2655 1.516 . S
C2655 C2654 1.516 . S
C2655 C2656 1.502 . S
C2655 C2657 1.561 . S
C2655 C2658 1.526 . S
C2656 H2640 0.959 . S
C2656 H2641 0.959 . S
C2656 H2642 0.961 . S
C2656 C2655 1.502 . S
C2657 H2643 0.960 . S
C2657 H2644 0.961 . S
C2657 H2645 0.959 . S
C2657 C2655 1.561 . S
C2658 C2655 1.526 . S
C2658 C2659 1.396 . S
C2658 C2663 1.390 . S
C2659 C2653 1.465 . S
C2659 C2658 1.396 . S
C2659 C2660 1.399 . S
C2660 H2646 0.929 . S
C2660 C2659 1.399 . S
C2660 C2661 1.385 . S
C2661 H2647 0.931 . S
C2661 C2660 1.385 . S
C2661 C2662 1.389 . S
C2662 C2661 1.389 . S
C2662 C2663 1.387 . S
C2663 H2648 0.930 . S
C2663 C2658 1.390 . S
C2663 C2662 1.387 . S
H2664 C2676 0.930 . S
H2665 C2678 0.930 . S
H2666 C2679 0.930 . S
H2667 C2683 0.959 . S
H2668 C2683 0.959 . S
H2669 C2683 0.961 . S
H2670 C2684 0.960 1_554 S
H2671 C2684 0.961 . S
H2672 C2684 0.959 . S
H2673 C2687 0.929 . S
H2674 C2688 0.931 . S
H2675 C2690 0.930 . S
C2676 H2664 0.930 . S
C2676 C2677 1.399 . S
C2676 C2681 1.399 . S
C2677 C2676 1.399 . S
C2677 C2678 1.376 . S
C2678 H2665 0.930 . S
C2678 C2677 1.376 . S
C2678 C2679 1.388 . S
C2679 H2666 0.930 . S
C2679 C2678 1.388 . S
C2679 C2680 1.390 . S
C2680 C2679 1.390 . S
C2680 C2681 1.394 . S
C2680 C2686 1.465 1_554 S
C2681 C2676 1.399 . S
C2681 C2680 1.394 . S
C2681 C2682 1.516 . S
C2682 C2681 1.516 . S
C2682 C2683 1.502 . S
C2682 C2684 1.561 1_554 S
C2682 C2685 1.526 1_554 S
C2683 H2667 0.959 . S
C2683 H2668 0.959 . S
C2683 H2669 0.961 . S
C2683 C2682 1.502 . S
C2684 H2670 0.960 1_556 S
C2684 H2671 0.961 . S
C2684 H2672 0.959 . S
C2684 C2682 1.561 1_556 S
C2685 C2682 1.526 1_556 S
C2685 C2686 1.396 . S
C2685 C2690 1.390 . S
C2686 C2680 1.465 1_556 S
C2686 C2685 1.396 . S
C2686 C2687 1.399 . S
C2687 H2673 0.929 . S
C2687 C2686 1.399 . S
C2687 C2688 1.385 . S
C2688 H2674 0.931 . S
C2688 C2687 1.385 . S
C2688 C2689 1.389 . S
C2689 C2688 1.389 . S
C2689 C2690 1.387 . S
C2690 H2675 0.930 . S
C2690 C2685 1.390 . S
C2690 C2689 1.387 . S
H2691 C2703 0.930 . S
H2692 C2705 0.930 . S
H2693 C2706 0.930 . S
H2694 C2710 0.959 . S
H2695 C2710 0.959 . S
H2696 C2710 0.961 . S
H2697 C2711 0.960 . S
H2698 C2711 0.961 . S
H2699 C2711 0.959 . S
H2700 C2714 0.929 . S
H2701 C2715 0.931 . S
H2702 C2717 0.930 . S
C2703 H2691 0.930 . S
C2703 C2704 1.399 . S
C2703 C2708 1.399 . S
C2704 C2703 1.399 . S
C2704 C2705 1.376 . S
C2705 H2692 0.930 . S
C2705 C2704 1.376 . S
C2705 C2706 1.388 . S
C2706 H2693 0.930 . S
C2706 C2705 1.388 . S
C2706 C2707 1.390 . S
C2707 C2706 1.390 . S
C2707 C2708 1.394 . S
C2707 C2713 1.465 . S
C2708 C2703 1.399 . S
C2708 C2707 1.394 . S
C2708 C2709 1.516 . S
C2709 C2708 1.516 . S
C2709 C2710 1.502 . S
C2709 C2711 1.561 . S
C2709 C2712 1.526 . S
C2710 H2694 0.959 . S
C2710 H2695 0.959 . S
C2710 H2696 0.961 . S
C2710 C2709 1.502 . S
C2711 H2697 0.960 . S
C2711 H2698 0.961 . S
C2711 H2699 0.959 . S
C2711 C2709 1.561 . S
C2712 C2709 1.526 . S
C2712 C2713 1.396 . S
C2712 C2717 1.390 . S
C2713 C2707 1.465 . S
C2713 C2712 1.396 . S
C2713 C2714 1.399 . S
C2714 H2700 0.929 . S
C2714 C2713 1.399 . S
C2714 C2715 1.385 . S
C2715 H2701 0.931 . S
C2715 C2714 1.385 . S
C2715 C2716 1.389 . S
C2716 C2715 1.389 . S
C2716 C2717 1.387 . S
C2717 H2702 0.930 . S
C2717 C2712 1.390 . S
C2717 C2716 1.387 . S
H2718 C2730 0.930 . S
H2719 C2732 0.930 . S
H2720 C2733 0.930 . S
H2721 C2737 0.959 . S
H2722 C2737 0.959 . S
H2723 C2737 0.961 . S
H2724 C2738 0.960 . S
H2725 C2738 0.961 . S
H2726 C2738 0.959 . S
H2727 C2741 0.929 . S
H2728 C2742 0.931 . S
H2729 C2744 0.930 . S
C2730 H2718 0.930 . S
C2730 C2731 1.399 . S
C2730 C2735 1.399 . S
C2731 C2730 1.399 . S
C2731 C2732 1.376 . S
C2732 H2719 0.930 . S
C2732 C2731 1.376 . S
C2732 C2733 1.388 . S
C2733 H2720 0.930 . S
C2733 C2732 1.388 . S
C2733 C2734 1.390 . S
C2734 C2733 1.390 . S
C2734 C2735 1.394 . S
C2734 C2740 1.465 . S
C2735 C2730 1.399 . S
C2735 C2734 1.394 . S
C2735 C2736 1.516 . S
C2736 C2735 1.516 . S
C2736 C2737 1.502 . S
C2736 C2738 1.561 . S
C2736 C2739 1.526 . S
C2737 H2721 0.959 . S
C2737 H2722 0.959 . S
C2737 H2723 0.961 . S
C2737 C2736 1.502 . S
C2738 H2724 0.960 . S
C2738 H2725 0.961 . S
C2738 H2726 0.959 . S
C2738 C2736 1.561 . S
C2739 C2736 1.526 . S
C2739 C2740 1.396 . S
C2739 C2744 1.390 . S
C2740 C2734 1.465 . S
C2740 C2739 1.396 . S
C2740 C2741 1.399 . S
C2741 H2727 0.929 . S
C2741 C2740 1.399 . S
C2741 C2742 1.385 . S
C2742 H2728 0.931 . S
C2742 C2741 1.385 . S
C2742 C2743 1.389 . S
C2743 C2742 1.389 . S
C2743 C2744 1.387 . S
C2744 H2729 0.930 . S
C2744 C2739 1.390 . S
C2744 C2743 1.387 . S
H2745 C2757 0.930 . S
H2746 C2759 0.930 . S
H2747 C2760 0.930 . S
H2748 C2764 0.959 . S
H2749 C2764 0.959 . S
H2750 C2764 0.961 . S
H2751 C2765 0.960 . S
H2752 C2765 0.961 . S
H2753 C2765 0.959 . S
H2754 C2768 0.929 . S
H2755 C2769 0.931 . S
H2756 C2771 0.930 . S
C2757 H2745 0.930 . S
C2757 C2758 1.399 . S
C2757 C2762 1.399 . S
C2758 C2757 1.399 . S
C2758 C2759 1.376 . S
C2759 H2746 0.930 . S
C2759 C2758 1.376 . S
C2759 C2760 1.388 . S
C2760 H2747 0.930 . S
C2760 C2759 1.388 . S
C2760 C2761 1.390 . S
C2761 C2760 1.390 . S
C2761 C2762 1.394 . S
C2761 C2767 1.465 . S
C2762 C2757 1.399 . S
C2762 C2761 1.394 . S
C2762 C2763 1.516 . S
C2763 C2762 1.516 . S
C2763 C2764 1.502 . S
C2763 C2765 1.561 . S
C2763 C2766 1.526 . S
C2764 H2748 0.959 . S
C2764 H2749 0.959 . S
C2764 H2750 0.961 . S
C2764 C2763 1.502 . S
C2765 H2751 0.960 . S
C2765 H2752 0.961 . S
C2765 H2753 0.959 . S
C2765 C2763 1.561 . S
C2766 C2763 1.526 . S
C2766 C2767 1.396 . S
C2766 C2771 1.390 . S
C2767 C2761 1.465 . S
C2767 C2766 1.396 . S
C2767 C2768 1.399 . S
C2768 H2754 0.929 . S
C2768 C2767 1.399 . S
C2768 C2769 1.385 . S
C2769 H2755 0.931 . S
C2769 C2768 1.385 . S
C2769 C2770 1.389 . S
C2770 C2769 1.389 . S
C2770 C2771 1.387 . S
C2771 H2756 0.930 . S
C2771 C2766 1.390 . S
C2771 C2770 1.387 . S
H2772 C2784 0.930 . S
H2773 C2786 0.930 . S
H2774 C2787 0.930 . S
H2775 C2791 0.959 . S
H2776 C2791 0.959 . S
H2777 C2791 0.961 . S
H2778 C2792 0.960 . S
H2779 C2792 0.961 . S
H2780 C2792 0.959 . S
H2781 C2795 0.929 . S
H2782 C2796 0.931 . S
H2783 C2798 0.930 . S
C2784 H2772 0.930 . S
C2784 C2785 1.399 . S
C2784 C2789 1.399 . S
C2785 C2784 1.399 . S
C2785 C2786 1.376 . S
C2786 H2773 0.930 . S
C2786 C2785 1.376 . S
C2786 C2787 1.388 1_554 S
C2787 H2774 0.930 . S
C2787 C2786 1.388 1_556 S
C2787 C2788 1.390 . S
C2788 C2787 1.390 . S
C2788 C2789 1.394 1_556 S
C2788 C2794 1.465 . S
C2789 C2784 1.399 . S
C2789 C2788 1.394 1_554 S
C2789 C2790 1.516 1_554 S
C2790 C2789 1.516 1_556 S
C2790 C2791 1.502 1_556 S
C2790 C2792 1.561 . S
C2790 C2793 1.526 . S
C2791 H2775 0.959 . S
C2791 H2776 0.959 . S
C2791 H2777 0.961 . S
C2791 C2790 1.502 1_554 S
C2792 H2778 0.960 . S
C2792 H2779 0.961 . S
C2792 H2780 0.959 . S
C2792 C2790 1.561 . S
C2793 C2790 1.526 . S
C2793 C2794 1.396 . S
C2793 C2798 1.390 . S
C2794 C2788 1.465 . S
C2794 C2793 1.396 . S
C2794 C2795 1.399 . S
C2795 H2781 0.929 . S
C2795 C2794 1.399 . S
C2795 C2796 1.385 . S
C2796 H2782 0.931 . S
C2796 C2795 1.385 . S
C2796 C2797 1.389 . S
C2797 C2796 1.389 . S
C2797 C2798 1.387 . S
C2798 H2783 0.930 . S
C2798 C2793 1.390 . S
C2798 C2797 1.387 . S
H2799 C2811 0.930 . S
H2800 C2813 0.930 . S
H2801 C2814 0.930 . S
H2802 C2818 0.959 . S
H2803 C2818 0.959 . S
H2804 C2818 0.961 . S
H2805 C2819 0.960 . S
H2806 C2819 0.961 . S
H2807 C2819 0.959 . S
H2808 C2822 0.929 . S
H2809 C2823 0.931 . S
H2810 C2825 0.930 . S
C2811 H2799 0.930 . S
C2811 C2812 1.399 . S
C2811 C2816 1.399 . S
C2812 C2811 1.399 . S
C2812 C2813 1.376 . S
C2813 H2800 0.930 . S
C2813 C2812 1.376 . S
C2813 C2814 1.388 . S
C2814 H2801 0.930 . S
C2814 C2813 1.388 . S
C2814 C2815 1.390 . S
C2815 C2814 1.390 . S
C2815 C2816 1.394 . S
C2815 C2821 1.465 . S
C2816 C2811 1.399 . S
C2816 C2815 1.394 . S
C2816 C2817 1.516 . S
C2817 C2816 1.516 . S
C2817 C2818 1.502 . S
C2817 C2819 1.561 . S
C2817 C2820 1.526 . S
C2818 H2802 0.959 . S
C2818 H2803 0.959 . S
C2818 H2804 0.961 . S
C2818 C2817 1.502 . S
C2819 H2805 0.960 . S
C2819 H2806 0.961 . S
C2819 H2807 0.959 . S
C2819 C2817 1.561 . S
C2820 C2817 1.526 . S
C2820 C2821 1.396 . S
C2820 C2825 1.390 . S
C2821 C2815 1.465 . S
C2821 C2820 1.396 . S
C2821 C2822 1.399 . S
C2822 H2808 0.929 . S
C2822 C2821 1.399 . S
C2822 C2823 1.385 . S
C2823 H2809 0.931 . S
C2823 C2822 1.385 . S
C2823 C2824 1.389 . S
C2824 C2823 1.389 . S
C2824 C2825 1.387 . S
C2825 H2810 0.930 . S
C2825 C2820 1.390 . S
C2825 C2824 1.387 . S
H2826 C2838 0.930 . S
H2827 C2840 0.930 . S
H2828 C2841 0.930 . S
H2829 C2845 0.959 . S
H2830 C2845 0.959 . S
H2831 C2845 0.961 . S
H2832 C2846 0.960 . S
H2833 C2846 0.961 . S
H2834 C2846 0.959 . S
H2835 C2849 0.929 . S
H2836 C2850 0.931 . S
H2837 C2852 0.930 . S
C2838 H2826 0.930 . S
C2838 C2839 1.399 . S
C2838 C2843 1.399 . S
C2839 C2838 1.399 . S
C2839 C2840 1.376 . S
C2840 H2827 0.930 . S
C2840 C2839 1.376 . S
C2840 C2841 1.388 . S
C2841 H2828 0.930 . S
C2841 C2840 1.388 . S
C2841 C2842 1.390 . S
C2842 C2841 1.390 . S
C2842 C2843 1.394 . S
C2842 C2848 1.465 . S
C2843 C2838 1.399 . S
C2843 C2842 1.394 . S
C2843 C2844 1.516 . S
C2844 C2843 1.516 . S
C2844 C2845 1.502 . S
C2844 C2846 1.561 . S
C2844 C2847 1.526 . S
C2845 H2829 0.959 . S
C2845 H2830 0.959 . S
C2845 H2831 0.961 . S
C2845 C2844 1.502 . S
C2846 H2832 0.960 . S
C2846 H2833 0.961 . S
C2846 H2834 0.959 . S
C2846 C2844 1.561 . S
C2847 C2844 1.526 . S
C2847 C2848 1.396 . S
C2847 C2852 1.390 . S
C2848 C2842 1.465 . S
C2848 C2847 1.396 . S
C2848 C2849 1.399 . S
C2849 H2835 0.929 . S
C2849 C2848 1.399 . S
C2849 C2850 1.385 . S
C2850 H2836 0.931 . S
C2850 C2849 1.385 . S
C2850 C2851 1.389 . S
C2851 C2850 1.389 . S
C2851 C2852 1.387 . S
C2852 H2837 0.930 . S
C2852 C2847 1.390 . S
C2852 C2851 1.387 . S
H2853 C2865 0.930 . S
H2854 C2867 0.930 . S
H2855 C2868 0.930 . S
H2856 C2872 0.959 . S
H2857 C2872 0.959 . S
H2858 C2872 0.961 . S
H2859 C2873 0.960 . S
H2860 C2873 0.961 . S
H2861 C2873 0.959 . S
H2862 C2876 0.929 . S
H2863 C2877 0.931 . S
H2864 C2879 0.930 . S
C2865 H2853 0.930 . S
C2865 C2866 1.399 . S
C2865 C2870 1.399 . S
C2866 C2865 1.399 . S
C2866 C2867 1.376 . S
C2867 H2854 0.930 . S
C2867 C2866 1.376 . S
C2867 C2868 1.388 . S
C2868 H2855 0.930 . S
C2868 C2867 1.388 . S
C2868 C2869 1.390 . S
C2869 C2868 1.390 . S
C2869 C2870 1.394 . S
C2869 C2875 1.465 . S
C2870 C2865 1.399 . S
C2870 C2869 1.394 . S
C2870 C2871 1.516 . S
C2871 C2870 1.516 . S
C2871 C2872 1.502 . S
C2871 C2873 1.561 . S
C2871 C2874 1.526 . S
C2872 H2856 0.959 . S
C2872 H2857 0.959 . S
C2872 H2858 0.961 . S
C2872 C2871 1.502 . S
C2873 H2859 0.960 . S
C2873 H2860 0.961 . S
C2873 H2861 0.959 . S
C2873 C2871 1.561 . S
C2874 C2871 1.526 . S
C2874 C2875 1.396 . S
C2874 C2879 1.390 . S
C2875 C2869 1.465 . S
C2875 C2874 1.396 . S
C2875 C2876 1.399 . S
C2876 H2862 0.929 . S
C2876 C2875 1.399 . S
C2876 C2877 1.385 . S
C2877 H2863 0.931 . S
C2877 C2876 1.385 . S
C2877 C2878 1.389 . S
C2878 C2877 1.389 . S
C2878 C2879 1.387 . S
C2879 H2864 0.930 . S
C2879 C2874 1.390 . S
C2879 C2878 1.387 . S
C1165 C2 0.685 . S
C1177 C470 0.689 . S
C1192 C902 1.177 . S
C1204 C38 1.188 . S
C1219 C74 1.331 . S
C1231 C542 1.323 . S
C1246 C110 1.600 . S
C1258 C866 1.607 . S
C1273 C146 1.473 . S
C1285 C614 1.481 . S
C1300 C182 1.350 . S
C1312 C794 1.348 . S
C1327 C218 1.316 . S
C1339 C686 1.311 . S
C1354 C1118 0.693 . S
C1366 C254 0.704 . S
C1381 C758 1.460 . S
C1393 C290 1.475 . S
C1408 C326 1.351 . S
C1420 C650 1.356 . S
C1435 C830 1.321 . S
C1447 C362 1.322 . S
C1462 C398 1.590 . S
C1474 C578 1.597 . S
C1489 C506 1.178 . S
C1501 C434 1.186 . S
C1516 C722 0.694 . S
C1528 C1010 0.704 . S
C1543 C1046 0.687 . S
C1555 C938 0.680 . S
C1570 C1082 1.332 . S
C1582 C974 1.320 . S
C1597 C14 1.408 . S
C1609 C39 1.481 . S
C1624 C76 1.359 . S
C1636 C40 1.399 . S
C1651 C122 1.589 . S
C1663 C86 1.567 . S
C1678 C111 1.404 . S
C1690 C4 1.422 . S
C1705 C266 1.354 . S
C1717 C147 1.455 . S
C1732 C183 1.564 . S
C1744 C158 1.439 . S
C1759 C230 1.692 . S
C1771 C194 1.715 . S
C1786 C220 1.601 . S
C1798 C255 1.589 . S
C1813 C328 1.760 . S
C1825 C3 1.791 . S
C1840 C292 1.390 . S
C1852 C112 1.356 . S
C1867 C363 1.434 . S
C1879 C50 1.289 . S
C1894 C975 1.647 . S
C1906 C256 1.594 . S
C1921 C1012 1.631 . S
C1933 C75 1.612 . S
C1948 C400 1.355 . S
C1960 C148 1.389 . S
C1975 C219 1.432 . S
C1987 C446 1.281 . S
C2002 C508 1.645 . S
C2014 C472 1.595 . S
C2029 C554 1.604 . S
C2041 C507 1.677 . S
C2056 C580 1.469 . S
C2068 C544 1.498 . S
C2083 C482 1.633 . S
C2095 C579 1.692 . S
C2110 C616 1.588 . S
C2122 C723 1.594 . S
C2137 C626 1.403 . S
C2149 C662 1.310 . S
C2164 C687 1.216 . S
C2176 C651 1.226 . S
C2191 C688 1.482 . S
C2203 C734 1.459 . S
C2218 C471 1.471 . S
C2230 C796 1.477 . S
C2245 C759 1.636 . S
C2257 C590 1.571 . S
C2272 C842 1.522 . S
C2284 C518 1.621 . S
C2299 C1083 1.689 . S
C2311 C724 1.679 . S
C2326 C1120 1.699 . S
C2338 C543 1.705 . S
C2353 C615 1.656 . S
C2365 C878 1.516 . S
C2380 C914 1.519 . S
C2392 C698 1.623 . S
C2407 C435 1.497 . S
C2419 C950 1.445 . S
C2434 C976 1.359 . S
C2446 C436 1.343 . S
C2461 C410 1.516 . S
C2473 C986 1.478 . S
C2488 C399 1.424 . S
C2500 C940 1.366 . S
C2515 C291 1.466 . S
C2527 C1022 1.306 . S
C2542 C327 1.563 . S
C2554 C302 1.435 . S
C2569 C374 1.663 . S
C2581 C338 1.693 . S
C2596 C364 1.615 . S
C2608 C1011 1.592 . S
C2623 C939 1.763 . S
C2635 C184 1.785 . S
C2650 C904 1.609 . S
C2662 C1048 1.642 . S
C2677 C903 1.671 . S
C2689 C1094 1.534 . S
C2704 C1084 1.497 . S
C2716 C868 1.480 . S
C2731 C867 1.694 . S
C2743 C1058 1.634 . S
C2758 C1119 1.598 . S
C2770 C760 1.561 . S
C2785 C770 1.306 . S
C2797 C806 1.394 . S
C2812 C831 1.213 . S
C2824 C795 1.198 . S
C2839 C832 1.482 . S
C2851 C1130 1.446 . S
C2866 C1047 1.495 . S
C2878 C652 1.447 . S
