# Generated by pormake.
# Topology wjx, (5)-cn, num edge types: 1
# Building blocks:
#     Node 0, Type 0, BuildingBlock: XOMCOT_clean_sbu_1, # of connection points: 5
#     Node 1, Type 0, BuildingBlock: XOMCOT_clean_sbu_1, # of connection points: 5
#     Node 2, Type 0, BuildingBlock: XOMCOT_clean_sbu_1, # of connection points: 5
#     Node 3, Type 0, BuildingBlock: XOMCOT_clean_sbu_1, # of connection points: 5
#     Node 4, Type 0, BuildingBlock: XOMCOT_clean_sbu_1, # of connection points: 5
#     Node 5, Type 0, BuildingBlock: XOMCOT_clean_sbu_1, # of connection points: 5
#     Node 6, Type 0, BuildingBlock: XOMCOT_clean_sbu_1, # of connection points: 5
#     Node 7, Type 0, BuildingBlock: XOMCOT_clean_sbu_1, # of connection points: 5
#     Node 8, Type 0, BuildingBlock: XOMCOT_clean_sbu_1, # of connection points: 5
#     Node 9, Type 0, BuildingBlock: XOMCOT_clean_sbu_1, # of connection points: 5
#     Node 10, Type 0, BuildingBlock: XOMCOT_clean_sbu_1, # of connection points: 5
#     Node 11, Type 0, BuildingBlock: XOMCOT_clean_sbu_1, # of connection points: 5
#     Edge 12, Type (0, 0), BuildingBlock: XIVTED_clean_linker_0, # of connection points: 2
#     Edge 13, Type (0, 0), BuildingBlock: XIVTED_clean_linker_0, # of connection points: 2
#     Edge 14, Type (0, 0), BuildingBlock: XIVTED_clean_linker_0, # of connection points: 2
#     Edge 15, Type (0, 0), BuildingBlock: XIVTED_clean_linker_0, # of connection points: 2
#     Edge 16, Type (0, 0), BuildingBlock: XIVTED_clean_linker_0, # of connection points: 2
#     Edge 17, Type (0, 0), BuildingBlock: XIVTED_clean_linker_0, # of connection points: 2
#     Edge 18, Type (0, 0), BuildingBlock: XIVTED_clean_linker_0, # of connection points: 2
#     Edge 19, Type (0, 0), BuildingBlock: XIVTED_clean_linker_0, # of connection points: 2
#     Edge 20, Type (0, 0), BuildingBlock: XIVTED_clean_linker_0, # of connection points: 2
#     Edge 21, Type (0, 0), BuildingBlock: XIVTED_clean_linker_0, # of connection points: 2
#     Edge 22, Type (0, 0), BuildingBlock: XIVTED_clean_linker_0, # of connection points: 2
#     Edge 23, Type (0, 0), BuildingBlock: XIVTED_clean_linker_0, # of connection points: 2
#     Edge 24, Type (0, 0), BuildingBlock: XIVTED_clean_linker_0, # of connection points: 2
#     Edge 25, Type (0, 0), BuildingBlock: XIVTED_clean_linker_0, # of connection points: 2
#     Edge 26, Type (0, 0), BuildingBlock: XIVTED_clean_linker_0, # of connection points: 2
#     Edge 27, Type (0, 0), BuildingBlock: XIVTED_clean_linker_0, # of connection points: 2
#     Edge 28, Type (0, 0), BuildingBlock: XIVTED_clean_linker_0, # of connection points: 2
#     Edge 29, Type (0, 0), BuildingBlock: XIVTED_clean_linker_0, # of connection points: 2
#     Edge 30, Type (0, 0), BuildingBlock: XIVTED_clean_linker_0, # of connection points: 2
#     Edge 31, Type (0, 0), BuildingBlock: XIVTED_clean_linker_0, # of connection points: 2
#     Edge 32, Type (0, 0), BuildingBlock: XIVTED_clean_linker_0, # of connection points: 2
#     Edge 33, Type (0, 0), BuildingBlock: XIVTED_clean_linker_0, # of connection points: 2
#     Edge 34, Type (0, 0), BuildingBlock: XIVTED_clean_linker_0, # of connection points: 2
#     Edge 35, Type (0, 0), BuildingBlock: XIVTED_clean_linker_0, # of connection points: 2
#     Edge 36, Type (0, 0), BuildingBlock: XIVTED_clean_linker_0, # of connection points: 2
#     Edge 37, Type (0, 0), BuildingBlock: XIVTED_clean_linker_0, # of connection points: 2
#     Edge 38, Type (0, 0), BuildingBlock: XIVTED_clean_linker_0, # of connection points: 2
#     Edge 39, Type (0, 0), BuildingBlock: XIVTED_clean_linker_0, # of connection points: 2
#     Edge 40, Type (0, 0), BuildingBlock: XIVTED_clean_linker_0, # of connection points: 2
#     Edge 41, Type (0, 0), BuildingBlock: XIVTED_clean_linker_0, # of connection points: 2
# Relax obj value: 0.118
# Max RMSD: 0.106
# Mean RMSD: 0.106
data_MOF--net-wjx--node1-XOMCOT_clean_sbu_1--edge1-XIVTED_clean_linker_0
_symmetry_space_group_name_H-M    P1
_symmetry_Int_Tables_number       1
_symmetry_cell_setting            triclinic
loop_
_symmetry_equiv_pos_as_xyz
'x, y, z'
_cell_length_a     72.816121
_cell_length_b     72.815664
_cell_length_c     17.677077
_cell_angle_alpha  89.960911
_cell_angle_beta   89.993606
_cell_angle_gamma 119.93646
loop_
_atom_site_label
_atom_site_type_symbol
_atom_site_fract_x
_atom_site_fract_y
_atom_site_fract_z
_atom_type_partial_charge
C0 C 0.15323 0.45443 0.18402 0.0
C1 C 0.15635 0.45528 0.26097 0.0
N2 N 0.13879 0.43948 0.29342 0.0
N3 N 0.13383 0.43816 0.16768 0.0
C4 C 0.12544 0.42928 0.23537 0.0
H5 H 0.16414 0.46539 0.14264 0.0
Co6 Co 0.12237 0.43234 0.07066 0.0
C7 C 0.08423 0.39144 0.12227 0.0
O8 O 0.09304 0.3796 0.11515 0.0
N9 N 0.11092 0.42672 0.97248 0.0
C10 C 0.08858 0.41993 0.8769 0.0
C11 C 0.09101 0.42186 0.954 0.0
C12 C 0.12034 0.42785 0.90528 0.0
N13 N 0.10706 0.4237 0.84606 0.0
O14 O 0.13166 0.41201 0.05839 0.0
H15 H 0.07912 0.42046 0.99383 0.0
H16 H 0.13667 0.43183 0.89956 0.0
O17 O 0.09486 0.41123 0.1082 0.0
C18 C 0.15041 0.42096 0.03156 0.0
O19 O 0.15981 0.44125 0.01508 0.0
N20 N 0.11506 0.45344 0.08219 0.0
C21 C 0.10995 0.48868 0.10158 0.0
C22 C 0.09902 0.47072 0.14783 0.0
C23 C 0.10191 0.4533 0.13758 0.0
C24 C 0.1256 0.47058 0.03611 0.0
C25 C 0.12316 0.48832 0.04443 0.0
H26 H 0.09419 0.44009 0.1762 0.0
H27 H 0.13634 0.47066 0.99365 0.0
H28 H 0.10971 0.41585 0.24225 0.0
H29 H 0.17017 0.46719 0.29073 0.0
H30 H 0.07447 0.41673 0.84599 0.0
H31 H 0.08903 0.47045 0.19368 0.0
H32 H 0.1318 0.50173 1.00704 0.0
C33 C 0.70992 0.14859 0.50661 0.0
C34 C 0.71215 0.15135 0.58372 0.0
N35 N 0.70657 0.1325 0.61606 0.0
N36 N 0.7031 0.12814 0.48999 0.0
C37 C 0.70123 0.11873 0.55778 0.0
H38 H 0.71232 0.16058 0.46547 0.0
Co39 Co 0.69546 0.11651 0.39345 0.0
C40 C 0.6958 0.07635 0.40425 0.0
O41 O 0.70748 0.08135 0.34278 0.0
N42 N 0.68735 0.10492 0.29541 0.0
C43 C 0.6686 0.08345 0.2012 0.0
C44 C 0.67013 0.08614 0.27835 0.0
C45 C 0.69591 0.11341 0.22733 0.0
N46 N 0.68485 0.10067 0.16894 0.0
O47 O 0.72474 0.12561 0.37286 0.0
H48 H 0.65912 0.07515 0.31949 0.0
H49 H 0.70993 0.12867 0.22023 0.0
O50 O 0.69037 0.08922 0.43098 0.0
C51 C 0.73436 0.14415 0.34421 0.0
O52 O 0.72351 0.15373 0.3297 0.0
N53 N 0.66761 0.10965 0.4134 0.0
C54 C 0.62834 0.10623 0.44176 0.0
C55 C 0.63411 0.09263 0.47768 0.0
C56 C 0.65393 0.09464 0.46294 0.0
C57 C 0.66229 0.12291 0.37793 0.0
C58 C 0.64274 0.12146 0.39104 0.0
H59 H 0.65835 0.08445 0.4926 0.0
H60 H 0.67357 0.13502 0.34031 0.0
H61 H 0.69557 0.10201 0.5645 0.0
H62 H 0.7166 0.16594 0.61361 0.0
H63 H 0.65611 0.07008 0.17137 0.0
H64 H 0.62349 0.08061 0.51706 0.0
H65 H 0.63925 0.13263 0.36329 0.0
C66 C 0.54991 0.69087 0.82627 0.0
C67 C 0.54722 0.69038 0.90333 0.0
N68 N 0.56403 0.69064 0.93658 0.0
N69 N 0.56823 0.69133 0.81096 0.0
C70 C 0.5766 0.69136 0.87901 0.0
H71 H 0.53901 0.69046 0.78383 0.0
Co72 Co 0.57746 0.69082 0.71446 0.0
C73 C 0.60466 0.67177 0.72381 0.0
O74 O 0.59413 0.66052 0.66458 0.0
N75 N 0.58702 0.69118 0.61472 0.0
C76 C 0.60961 0.70116 0.51793 0.0
C77 C 0.60774 0.70172 0.59494 0.0
C78 C 0.57662 0.68491 0.54795 0.0
N79 N 0.59001 0.69067 0.48847 0.0
O80 O 0.59641 0.721 0.72021 0.0
H81 H 0.62074 0.70997 0.63412 0.0
H82 H 0.55965 0.67701 0.54193 0.0
O83 O 0.59969 0.68484 0.75314 0.0
C84 C 0.59004 0.73121 0.67956 0.0
O85 O 0.57283 0.72055 0.6387 0.0
N86 N 0.55689 0.6616 0.71035 0.0
C87 C 0.52024 0.62173 0.72403 0.0
C88 C 0.53848 0.62677 0.7661 0.0
C89 C 0.55641 0.64688 0.75981 0.0
C90 C 0.53911 0.65711 0.67049 0.0
C91 C 0.52085 0.63719 0.67495 0.0
H92 H 0.56922 0.65096 0.79903 0.0
H93 H 0.53846 0.66953 0.63936 0.0
H94 H 0.59158 0.69186 0.88608 0.0
H95 H 0.53364 0.68933 0.93223 0.0
H96 H 0.62422 0.70888 0.48583 0.0
H97 H 0.53848 0.61579 0.80749 0.0
H98 H 0.50704 0.63428 0.64248 0.0
C99 C 0.85706 0.5569 0.22098 0.0
C100 C 0.85469 0.55674 0.29831 0.0
N101 N 0.87401 0.56857 0.32936 0.0
N102 N 0.87775 0.56893 0.20325 0.0
C103 C 0.88766 0.57585 0.27053 0.0
H104 H 0.84455 0.54816 0.18058 0.0
Co105 Co 0.8892 0.57241 0.10651 0.0
C106 C 0.92815 0.61386 0.11389 0.0
O107 O 0.92215 0.61974 0.05281 0.0
N108 N 0.90064 0.57551 1.00863 0.0
C109 C 0.92267 0.57962 0.91453 0.0
C110 C 0.92008 0.57864 0.9917 0.0
C111 C 0.89161 0.57426 0.94055 0.0
N112 N 0.9047 0.57684 0.88215 0.0
O113 O 0.87918 0.5918 0.08347 0.0
H114 H 0.9317 0.58011 0.033 0.0
H115 H 0.87558 0.57103 0.93355 0.0
O116 O 0.91624 0.5955 0.142 0.0
C117 C 0.86061 0.58275 0.05507 0.0
O118 O 0.85101 0.56228 0.04178 0.0
N119 N 0.89707 0.5522 0.12897 0.0
C120 C 0.90055 0.51681 0.16717 0.0
C121 C 0.91395 0.53666 0.20033 0.0
C122 C 0.91199 0.55423 0.18035 0.0
C123 C 0.88446 0.53331 0.09437 0.0
C124 C 0.88607 0.51551 0.11192 0.0
H125 H 0.92187 0.56913 0.20852 0.0
H126 H 0.87263 0.53197 0.05423 0.0
H127 H 0.90462 0.58566 0.27669 0.0
H128 H 0.84002 0.54781 0.32937 0.0
H129 H 0.93681 0.58231 0.88498 0.0
H130 H 0.92524 0.53846 0.24366 0.0
H131 H 0.87573 0.50074 0.08329 0.0
C132 C 0.3213 0.86578 0.56468 0.0
C133 C 0.31712 0.86088 0.64003 0.0
N134 N 0.30463 0.86836 0.66483 0.0
N135 N 0.31192 0.87678 0.54147 0.0
C136 C 0.30105 0.8772 0.60315 0.0
H137 H 0.3311 0.86199 0.52953 0.0
Co138 Co 0.31431 0.88723 0.44176 0.0
C139 C 0.32269 0.92677 0.53462 0.0
O140 O 0.32509 0.92002 0.60064 0.0
N141 N 0.3165 0.89676 0.34117 0.0
C142 C 0.32807 0.91728 0.23891 0.0
C143 C 0.33003 0.9165 0.31601 0.0
C144 C 0.30678 0.8857 0.27775 0.0
N145 N 0.31345 0.89788 0.21465 0.0
O146 O 0.28429 0.87622 0.4399 0.0
H147 H 0.34139 0.92931 0.351 0.0
H148 H 0.29532 0.86895 0.27745 0.0
O149 O 0.319 0.91524 0.47557 0.0
C150 C 0.27447 0.85682 0.42015 0.0
O151 O 0.28542 0.84743 0.40451 0.0
N152 N 0.34359 0.89654 0.44145 0.0
C153 C 0.38438 0.90187 0.44546 0.0
C154 C 0.379 0.9142 0.49139 0.0
C155 C 0.35849 0.91124 0.48877 0.0
C156 C 0.34879 0.88505 0.39417 0.0
C157 C 0.36907 0.88751 0.39498 0.0
H158 H 0.35454 0.92004 0.52767 0.0
H159 H 0.33678 0.8732 0.35779 0.0
H160 H 0.29125 0.88452 0.60352 0.0
H161 H 0.32377 0.85339 0.67478 0.0
H162 H 0.33744 0.93088 0.20307 0.0
H163 H 0.39017 0.92526 0.53202 0.0
H164 H 0.37253 0.87782 0.35775 0.0
C165 C 0.45468 0.30796 0.84994 0.0
C166 C 0.45526 0.30562 0.92698 0.0
N167 N 0.44033 0.3089 0.95906 0.0
N168 N 0.43942 0.3126 0.83313 0.0
C169 C 0.4309 0.313 0.90068 0.0
H170 H 0.46527 0.30715 0.80896 0.0
Co171 Co 0.43466 0.3195 0.73645 0.0
C172 C 0.39282 0.31614 0.74674 0.0
O173 O 0.38676 0.30401 0.68636 0.0
N174 N 0.43037 0.32679 0.63819 0.0
C175 C 0.42583 0.34421 0.54327 0.0
C176 C 0.42735 0.34313 0.62044 0.0
C177 C 0.43084 0.31834 0.57053 0.0
N178 N 0.42804 0.32859 0.5117 0.0
O179 O 0.41582 0.28985 0.71704 0.0
H180 H 0.4266 0.35382 0.66113 0.0
H181 H 0.43325 0.30497 0.56412 0.0
O182 O 0.41138 0.32293 0.77347 0.0
C183 C 0.42526 0.2806 0.68957 0.0
O184 O 0.44561 0.29187 0.67456 0.0
N185 N 0.45432 0.34794 0.75569 0.0
C186 C 0.48813 0.38842 0.78566 0.0
C187 C 0.46883 0.38064 0.82455 0.0
C188 C 0.45207 0.36029 0.80881 0.0
C189 C 0.47284 0.35526 0.717 0.0
C190 C 0.4899 0.3755 0.73064 0.0
H191 H 0.43759 0.35434 0.84096 0.0
H192 H 0.47451 0.34506 0.67645 0.0
H193 H 0.41836 0.31672 0.90719 0.0
H194 H 0.46649 0.30271 0.95708 0.0
H195 H 0.42384 0.35601 0.5129 0.0
H196 H 0.46675 0.39009 0.8673 0.0
H197 H 0.50459 0.38065 0.70026 0.0
C198 C 0.55661 0.85687 0.49748 0.0
C199 C 0.5562 0.85434 0.42027 0.0
N200 N 0.57003 0.87313 0.38888 0.0
N201 N 0.57072 0.87711 0.51498 0.0
C202 C 0.57866 0.88662 0.44773 0.0
H203 H 0.54659 0.84492 0.53802 0.0
Co204 Co 0.57472 0.88863 0.61146 0.0
C205 C 0.6161 0.92767 0.60275 0.0
O206 O 0.62203 0.92192 0.66431 0.0
N207 N 0.57822 0.90009 0.70933 0.0
C208 C 0.58154 0.92155 0.80437 0.0
C209 C 0.58044 0.91913 0.72709 0.0
C210 C 0.57783 0.89121 0.77694 0.0
N211 N 0.57987 0.90392 0.83582 0.0
O212 O 0.59408 0.87847 0.63296 0.0
H213 H 0.58096 0.93047 0.68636 0.0
H214 H 0.57606 0.87569 0.78331 0.0
O215 O 0.59773 0.91563 0.57505 0.0
C216 C 0.5847 0.85979 0.66056 0.0
O217 O 0.56423 0.85053 0.67376 0.0
N218 N 0.55447 0.89651 0.59051 0.0
C219 C 0.51911 0.90031 0.55625 0.0
C220 C 0.53894 0.91416 0.52389 0.0
C221 C 0.55649 0.9119 0.54135 0.0
C222 C 0.53552 0.88334 0.62394 0.0
C223 C 0.51767 0.885 0.60788 0.0
H224 H 0.57139 0.92202 0.51336 0.0
H225 H 0.53419 0.87107 0.66188 0.0
H226 H 0.59013 0.90325 0.44178 0.0
H227 H 0.54574 0.84 0.38965 0.0
H228 H 0.58288 0.93506 0.83481 0.0
H229 H 0.54069 0.92605 0.48315 0.0
H230 H 0.50278 0.87416 0.63495 0.0
C231 C 0.70087 0.55331 0.85209 0.0
C232 C 0.70316 0.55275 0.77498 0.0
N233 N 0.70205 0.56909 0.74385 0.0
N234 N 0.6984 0.56993 0.86977 0.0
C235 C 0.69937 0.57935 0.80279 0.0
H236 H 0.70014 0.5418 0.8925 0.0
Co237 Co 0.69197 0.57524 0.96635 0.0
C238 C 0.69358 0.61669 0.9499 0.0
O239 O 0.70541 0.6244 1.01059 0.0
N240 N 0.68523 0.58009 0.06427 0.0
C241 C 0.66845 0.58488 0.16071 0.0
C242 C 0.66913 0.58336 0.08337 0.0
C243 C 0.69391 0.57943 0.13115 0.0
N244 N 0.68406 0.58237 0.19088 0.0
O245 O 0.72164 0.59445 0.98345 0.0
H246 H 0.65826 0.58413 0.04356 0.0
H247 H 0.70708 0.57665 0.13627 0.0
O248 O 0.68797 0.59795 0.92771 0.0
C249 C 0.73112 0.58499 1.00872 0.0
O250 O 0.72001 0.56457 0.02275 0.0
N251 N 0.66341 0.55532 0.94924 0.0
C252 C 0.62274 0.52156 0.9208 0.0
C253 C 0.63081 0.54053 0.87957 0.0
C254 C 0.65123 0.55721 0.89441 0.0
C255 C 0.65581 0.53715 0.9904 0.0
C256 C 0.63546 0.52012 0.97752 0.0
H257 H 0.65739 0.5713 0.85998 0.0
H258 H 0.66585 0.53569 0.03225 0.0
H259 H 0.6976 0.59314 0.79699 0.0
H260 H 0.70443 0.54061 0.74411 0.0
H261 H 0.65687 0.58696 0.19219 0.0
H262 H 0.62154 0.54239 0.83549 0.0
H263 H 0.63007 0.50568 1.00981 0.0
C264 C 0.14995 0.70823 0.18641 0.0
C265 C 0.15221 0.71042 0.10909 0.0
N266 N 0.1328 0.69995 0.07755 0.0
N267 N 0.1292 0.69663 0.20387 0.0
C268 C 0.11916 0.69175 0.13624 0.0
H269 H 0.16274 0.71425 0.22693 0.0
Co270 Co 0.11786 0.68784 0.30069 0.0
C271 C 0.07846 0.68954 0.29529 0.0
O272 O 0.08419 0.70089 0.35758 0.0
N273 N 0.10641 0.67856 0.3985 0.0
C274 C 0.08431 0.65963 0.49122 0.0
C275 C 0.08712 0.66184 0.41419 0.0
C276 C 0.1151 0.68601 0.46734 0.0
N277 N 0.10196 0.67488 0.52485 0.0
O278 O 0.12728 0.7169 0.32678 0.0
H279 H 0.07569 0.65189 0.37216 0.0
H280 H 0.13091 0.69908 0.4757 0.0
O281 O 0.09069 0.68366 0.26581 0.0
C282 C 0.14565 0.72612 0.35675 0.0
O283 O 0.15528 0.71518 0.36858 0.0
N284 N 0.11074 0.6602 0.27566 0.0
C285 C 0.10812 0.62194 0.23569 0.0
C286 C 0.09237 0.62654 0.21286 0.0
C287 C 0.094 0.6459 0.23321 0.0
C288 C 0.12578 0.65573 0.30012 0.0
C289 C 0.12478 0.6367 0.281 0.0
H290 H 0.08215 0.64949 0.21309 0.0
H291 H 0.13894 0.66733 0.33337 0.0
H292 H 0.10217 0.68211 0.12996 0.0
H293 H 0.16705 0.71841 0.07846 0.0
H294 H 0.0702 0.64781 0.5199 0.0
H295 H 0.07933 0.61564 0.17741 0.0
H296 H 0.13709 0.63368 0.30098 0.0
C297 C 0.4585 0.15438 0.47878 0.0
C298 C 0.45816 0.15768 0.4023 0.0
N299 N 0.44135 0.14057 0.37187 0.0
N300 N 0.44204 0.13526 0.49697 0.0
C301 C 0.43162 0.12737 0.43093 0.0
H302 H 0.47057 0.16481 0.5182 0.0
Co303 Co 0.43804 0.12332 0.59377 0.0
C304 C 0.41317 0.07774 0.53712 0.0
O305 O 0.42944 0.07471 0.54004 0.0
N306 N 0.43378 0.11172 0.69309 0.0
C307 C 0.42846 0.09033 0.79105 0.0
C308 C 0.43059 0.09248 0.71387 0.0
C309 C 0.43372 0.121 0.75959 0.0
N310 N 0.43039 0.10829 0.82007 0.0
O311 O 0.41753 0.13204 0.61278 0.0
H312 H 0.43049 0.08083 0.6763 0.0
H313 H 0.43608 0.13681 0.76398 0.0
O314 O 0.41493 0.09549 0.557 0.0
C315 C 0.42631 0.15103 0.6371 0.0
O316 O 0.44685 0.16128 0.64915 0.0
N317 N 0.46023 0.11705 0.57484 0.0
C318 C 0.49647 0.11373 0.54762 0.0
C319 C 0.48131 0.10899 0.4909 0.0
C320 C 0.4637 0.11123 0.50499 0.0
C321 C 0.47528 0.12252 0.62984 0.0
C322 C 0.49327 0.12062 0.61793 0.0
H323 H 0.45252 0.1076 0.45963 0.0
H324 H 0.47377 0.12899 0.68294 0.0
H325 H 0.41776 0.11181 0.42566 0.0
H326 H 0.47013 0.17112 0.37103 0.0
H327 H 0.42632 0.07676 0.82331 0.0
H328 H 0.48295 0.10353 0.43569 0.0
H329 H 0.50491 0.12522 0.66266 0.0
C330 C 0.29981 0.44479 0.81741 0.0
C331 C 0.29776 0.44483 0.74002 0.0
N332 N 0.30799 0.43553 0.70917 0.0
N333 N 0.31108 0.4353 0.83544 0.0
C334 C 0.31587 0.42988 0.76822 0.0
H335 H 0.29399 0.45185 0.85759 0.0
Co336 Co 0.31975 0.43276 0.93215 0.0
C337 C 0.31782 0.39153 0.92822 0.0
O338 O 0.30655 0.38612 0.99074 0.0
N339 N 0.32886 0.4306 0.02988 0.0
C340 C 0.34745 0.42732 0.12357 0.0
C341 C 0.34554 0.42801 0.04641 0.0
C342 C 0.32115 0.43179 0.09821 0.0
N343 N 0.33205 0.42968 0.15627 0.0
O344 O 0.29059 0.41322 0.958 0.0
H345 H 0.35563 0.42654 1.00489 0.0
H346 H 0.30804 0.43453 0.10577 0.0
O347 O 0.32373 0.40956 0.89811 0.0
C348 C 0.28088 0.422 0.98716 0.0
O349 O 0.29136 0.44252 0.99949 0.0
N350 N 0.34754 0.45308 0.90691 0.0
C351 C 0.3862 0.48816 0.86582 0.0
C352 C 0.38101 0.46765 0.8428 0.0
C353 C 0.36152 0.45025 0.86381 0.0
C354 C 0.35253 0.47273 0.93143 0.0
C355 C 0.37177 0.49047 0.91184 0.0
H356 H 0.35757 0.43473 0.84356 0.0
H357 H 0.3412 0.47465 0.96519 0.0
H358 H 0.32526 0.42223 0.76246 0.0
H359 H 0.29009 0.45193 0.70885 0.0
H360 H 0.35915 0.42497 0.15296 0.0
H361 H 0.39157 0.46512 0.80674 0.0
H362 H 0.37521 0.50589 0.93213 0.0
C363 C 0.8621 0.31565 0.18319 0.0
C364 C 0.85885 0.3133 0.10633 0.0
N365 N 0.87257 0.308 0.07646 0.0
N366 N 0.87824 0.31242 0.20242 0.0
C367 C 0.88348 0.30674 0.13627 0.0
H368 H 0.85307 0.3195 0.22175 0.0
Co369 Co 0.89017 0.31424 0.29989 0.0
C370 C 0.9286 0.33535 0.20073 0.0
O371 O 0.92034 0.3453 0.16461 0.0
N372 N 0.90133 0.31529 0.3963 0.0
C373 C 0.91924 0.31201 0.49205 0.0
C374 C 0.91753 0.31214 0.41458 0.0
C375 C 0.89342 0.317 0.46352 0.0
N376 N 0.90397 0.31495 0.52305 0.0
O377 O 0.88155 0.28469 0.292 0.0
H378 H 0.92695 0.30918 0.37446 0.0
H379 H 0.87979 0.31913 0.4684 0.0
O380 O 0.9182 0.32255 0.25459 0.0
C381 C 0.8654 0.27325 0.33311 0.0
O382 O 0.85763 0.28257 0.3754 0.0
N383 N 0.89681 0.34278 0.31158 0.0
C384 C 0.89998 0.38261 0.31151 0.0
C385 C 0.91825 0.38073 0.30723 0.0
C386 C 0.91636 0.36062 0.3102 0.0
C387 C 0.8795 0.34455 0.328 0.0
C388 C 0.88061 0.36422 0.32707 0.0
H389 H 0.93061 0.35956 0.30926 0.0
H390 H 0.86452 0.33044 0.33957 0.0
H391 H 0.89546 0.30215 0.13172 0.0
H392 H 0.84772 0.31606 0.07474 0.0
H393 H 0.93026 0.30895 0.52295 0.0
H394 H 0.93377 0.39445 0.2988 0.0
H395 H 0.86627 0.36489 0.33668 0.0
H396 H 0.05557 0.35037 0.16627 0.0
H397 H 0.95666 0.36744 0.1106 0.0
H398 H 0.06036 0.41071 0.11698 0.0
H399 H 0.95191 0.31788 0.25776 0.0
H400 H 0.99419 0.37994 0.09394 0.0
H401 H 0.01713 0.33513 0.18575 0.0
C402 C 0.04863 0.36042 0.15981 0.0
C403 C 0.06128 0.38186 0.1395 0.0
C404 C 0.98497 0.3663 0.12985 0.0
C405 C 0.01751 0.36447 0.16032 0.0
C406 C 0.96345 0.35904 0.13913 0.0
C407 C 0.95106 0.34164 0.18623 0.0
C408 C 0.99434 0.35603 0.16711 0.0
C409 C 0.96089 0.33144 0.22138 0.0
C410 C 0.02675 0.35172 0.17099 0.0
C411 C 0.0514 0.39413 0.13219 0.0
N412 N 0.98201 0.33879 0.2111 0.0
N413 N 0.03018 0.38523 0.14186 0.0
H414 H 0.68242 0.06339 0.54944 0.0
H415 H 0.61688 0.94135 0.45762 0.0
H416 H 0.68691 0.03989 0.3303 0.0
H417 H 0.64552 0.96315 0.67698 0.0
H418 H 0.63803 0.97766 0.4092 0.0
H419 H 0.66446 0.02692 0.59789 0.0
C420 C 0.67975 0.05059 0.5117 0.0
C421 C 0.68629 0.05468 0.43587 0.0
C422 C 0.63975 0.9744 0.46775 0.0
C423 C 0.66532 0.01301 0.49036 0.0
C424 C 0.62768 0.95374 0.49545 0.0
C425 C 0.62954 0.94921 0.57132 0.0
C426 C 0.65331 0.99074 0.51682 0.0
C427 C 0.64374 0.96591 0.61794 0.0
C428 C 0.66956 0.02983 0.53939 0.0
C429 C 0.68233 0.03746 0.38932 0.0
N430 N 0.65489 0.98599 0.59023 0.0
N431 N 0.67184 0.01733 0.41702 0.0
H432 H 0.67616 0.61006 0.80914 0.0
H433 H 0.62357 0.68266 0.86551 0.0
H434 H 0.68883 0.64931 1.00685 0.0
H435 H 0.62315 0.65165 0.65695 0.0
H436 H 0.64813 0.67204 0.91949 0.0
H437 H 0.65726 0.6263 0.75323 0.0
C438 C 0.67514 0.62226 0.84064 0.0
C439 C 0.68409 0.62828 0.91289 0.0
C440 C 0.64277 0.66779 0.86168 0.0
C441 C 0.66203 0.64691 0.84931 0.0
C442 C 0.62881 0.67387 0.83088 0.0
C443 C 0.62109 0.66783 0.7569 0.0
C444 C 0.64894 0.6556 0.81803 0.0
C445 C 0.62838 0.65643 0.71458 0.0
C446 C 0.6643 0.63158 0.80861 0.0
C447 C 0.68223 0.64425 0.95082 0.0
N448 N 0.64169 0.6506 0.74582 0.0
N449 N 0.67118 0.65287 0.91894 0.0
H450 H 0.06408 0.6766 0.15105 0.0
H451 H 0.94278 0.61471 0.25733 0.0
H452 H 0.04306 0.68198 0.3739 0.0
H453 H 0.96329 0.64253 0.03597 0.0
H454 H 0.9796 0.63502 0.30152 0.0
H455 H 0.02722 0.6598 0.10676 0.0
C456 C 0.05174 0.67437 0.19046 0.0
C457 C 0.05662 0.68079 0.26613 0.0
C458 C 0.97595 0.63677 0.24348 0.0
C459 C 0.01455 0.66119 0.2164 0.0
C460 C 0.955 0.62518 0.21822 0.0
C461 C 0.94997 0.62705 0.14303 0.0
C462 C 0.99204 0.64983 0.19261 0.0
C463 C 0.96645 0.64079 0.0946 0.0
C464 C 0.03077 0.66485 0.16515 0.0
C465 C 0.04001 0.67746 0.31493 0.0
N466 N 0.9868 0.65145 0.11992 0.0
N467 N 0.01967 0.66762 0.28951 0.0
H468 H 0.37928 0.05962 0.63235 0.0
H469 H 0.32881 0.95025 0.40478 0.0
H470 H 0.40105 0.05242 0.4138 0.0
H471 H 0.32922 0.9549 0.64821 0.0
H472 H 0.34499 0.98881 0.3965 0.0
H473 H 0.35037 0.02258 0.62576 0.0
C474 C 0.37736 0.0505 0.58158 0.0
C475 C 0.39238 0.05895 0.5233 0.0
C476 C 0.3412 0.98129 0.45159 0.0
C477 C 0.35984 0.01678 0.51589 0.0
C478 C 0.33207 0.95927 0.45644 0.0
C479 C 0.32837 0.94933 0.52736 0.0
C480 C 0.34627 0.9934 0.51809 0.0
C481 C 0.33228 0.96189 0.59229 0.0
C482 C 0.36108 0.02935 0.57822 0.0
C483 C 0.38965 0.04639 0.4596 0.0
N484 N 0.34123 0.98328 0.58614 0.0
N485 N 0.37382 0.02585 0.45782 0.0
H486 H 0.33012 0.38935 0.78364 0.0
H487 H 0.39266 0.33059 0.88962 0.0
H488 H 0.32567 0.36402 1.00786 0.0
H489 H 0.36342 0.32183 0.67034 0.0
H490 H 0.37244 0.34721 0.93412 0.0
H491 H 0.34664 0.36898 0.73963 0.0
C492 C 0.3325 0.37941 0.82341 0.0
C493 C 0.32641 0.37826 0.89937 0.0
C494 C 0.37035 0.34145 0.87651 0.0
C495 C 0.34571 0.35544 0.84995 0.0
C496 C 0.38188 0.33202 0.85107 0.0
C497 C 0.3796 0.3247 0.77634 0.0
C498 C 0.35695 0.34414 0.82622 0.0
C499 C 0.36549 0.32705 0.72861 0.0
C500 C 0.34186 0.36778 0.79827 0.0
C501 C 0.32993 0.36519 0.94866 0.0
N502 N 0.35491 0.33684 0.75402 0.0
N503 N 0.33961 0.3545 0.92336 0.0
H504 H 0.07905 0.40405 0.73159 0.0
H505 H 0.16763 0.45128 0.40754 0.0
H506 H 0.14576 0.44443 0.77717 0.0
H507 H 0.10033 0.41876 0.36359 0.0
H508 H 0.16019 0.4463 0.543 0.0
H509 H 0.08687 0.40664 0.59676 0.0
C510 C 0.09535 0.41352 0.71348 0.0
C511 C 0.11172 0.4242 0.76634 0.0
C512 C 0.14706 0.4402 0.50362 0.0
C513 C 0.12085 0.427 0.61118 0.0
C514 C 0.15129 0.44311 0.4261 0.0
C515 C 0.13461 0.43555 0.3735 0.0
C516 C 0.12599 0.42959 0.5291 0.0
C517 C 0.11375 0.42471 0.40142 0.0
C518 C 0.09982 0.4149 0.63625 0.0
C519 C 0.13261 0.43581 0.73899 0.0
N520 N 0.11006 0.42213 0.47714 0.0
N521 N 0.13655 0.43696 0.66337 0.0
H522 H 0.72701 0.16001 0.73134 0.0
H523 H 0.6709 0.07196 0.0539 0.0
H524 H 0.68224 0.09425 0.68509 0.0
H525 H 0.70833 0.13903 0.09961 0.0
H526 H 0.67702 0.07947 0.91893 0.0
H527 H 0.72255 0.1522 0.86653 0.0
C528 C 0.71622 0.14393 0.74934 0.0
C529 C 0.70492 0.12782 0.69614 0.0
C530 C 0.68392 0.09254 0.95855 0.0
C531 C 0.69991 0.11872 0.85159 0.0
C532 C 0.68035 0.08828 0.03587 0.0
C533 C 0.68899 0.10487 0.0889 0.0
C534 C 0.69631 0.11355 0.93359 0.0
C535 C 0.70147 0.12566 0.06149 0.0
C536 C 0.71375 0.13947 0.82674 0.0
C537 C 0.69147 0.1072 0.72342 0.0
N538 N 0.7047 0.12939 0.98589 0.0
N539 N 0.68931 0.10328 0.79909 0.0
H540 H 0.55634 0.69075 0.42314 0.0
H541 H 0.59026 0.67888 1.00417 0.0
H542 H 0.61178 0.68594 0.37353 0.0
H543 H 0.54551 0.69988 0.05303 0.0
H544 H 0.59577 0.67745 0.13944 0.0
H545 H 0.54909 0.68945 0.28758 0.0
C546 C 0.56683 0.68914 0.38373 0.0
C547 C 0.58472 0.68848 0.40942 0.0
C548 C 0.58475 0.68237 0.12038 0.0
C549 C 0.57667 0.68721 0.2545 0.0
C550 C 0.58166 0.68332 0.04295 0.0
C551 C 0.56744 0.68962 0.01653 0.0
C552 C 0.57343 0.68758 0.17201 0.0
C553 C 0.55645 0.69472 0.07026 0.0
C554 C 0.5628 0.6886 0.30639 0.0
C555 C 0.59797 0.68673 0.35586 0.0
N556 N 0.55968 0.69358 0.14535 0.0
N557 N 0.59369 0.68616 0.28087 0.0
H558 H 0.87352 0.58157 0.8147 0.0
H559 H 0.91006 0.5739 0.39495 0.0
H560 H 0.92575 0.57119 0.76488 0.0
H561 H 0.8497 0.56874 0.44543 0.0
H562 H 0.91797 0.57683 0.53013 0.0
H563 H 0.86619 0.58023 0.67965 0.0
C564 C 0.88342 0.57889 0.77587 0.0
C565 C 0.90028 0.57639 0.80213 0.0
C566 C 0.903 0.5751 0.51168 0.0
C567 C 0.89211 0.57525 0.64655 0.0
C568 C 0.89855 0.5736 0.43441 0.0
C569 C 0.87918 0.57109 0.4088 0.0
C570 C 0.88806 0.57424 0.56392 0.0
C571 C 0.86472 0.57045 0.46277 0.0
C572 C 0.87925 0.57824 0.69847 0.0
C573 C 0.91274 0.57343 0.74803 0.0
N574 N 0.86946 0.57205 0.53777 0.0
N575 N 0.90841 0.57296 0.67306 0.0
H576 H 0.30075 0.85915 0.15209 0.0
H577 H 0.30017 0.89978 0.73015 0.0
H578 H 0.31322 0.92213 0.09848 0.0
H579 H 0.29941 0.84143 0.77993 0.0
H580 H 0.29865 0.90552 0.86587 0.0
H581 H 0.29429 0.84994 0.01753 0.0
C582 C 0.30186 0.87096 0.11227 0.0
C583 C 0.30774 0.89152 0.1367 0.0
C584 C 0.2986 0.89133 0.84709 0.0
C585 C 0.30043 0.88111 0.98234 0.0
C586 C 0.29927 0.88795 0.76941 0.0
C587 C 0.30014 0.87018 0.74335 0.0
C588 C 0.29866 0.87679 0.89937 0.0
C589 C 0.2991 0.85551 0.7974 0.0
C590 C 0.29829 0.86573 0.03533 0.0
C591 C 0.30909 0.90621 0.08216 0.0
N592 N 0.29857 0.8592 0.87264 0.0
N593 N 0.30555 0.90076 1.00778 0.0
H594 H 0.44999 0.29029 0.07403 0.0
H595 H 0.41086 0.34003 0.39688 0.0
H596 H 0.42261 0.32983 0.02821 0.0
H597 H 0.4455 0.30738 0.44264 0.0
H598 H 0.41257 0.33407 0.26201 0.0
H599 H 0.44592 0.29395 0.20931 0.0
C600 C 0.44314 0.29976 0.09217 0.0
C601 C 0.43677 0.30986 0.03909 0.0
C602 C 0.41976 0.32817 0.3016 0.0
C603 C 0.43187 0.31395 0.19459 0.0
C604 C 0.4189 0.33167 0.37885 0.0
C605 C 0.42818 0.32436 0.43182 0.0
C606 C 0.42994 0.31722 0.27662 0.0
C607 C 0.43795 0.31319 0.40448 0.0
C608 C 0.44074 0.30177 0.16961 0.0
C609 C 0.4276 0.32157 0.06648 0.0
N610 N 0.43863 0.31004 0.32891 0.0
N611 N 0.42551 0.32335 0.14218 0.0
H612 H 0.56383 0.86513 0.90278 0.0
H613 H 0.58515 0.91188 0.32243 0.0
H614 H 0.59514 0.9321 0.9524 0.0
H615 H 0.56216 0.84591 0.27188 0.0
H616 H 0.58892 0.91959 0.18742 0.0
H617 H 0.56298 0.8578 0.0375 0.0
C618 C 0.5707 0.87835 0.94161 0.0
C619 C 0.57956 0.89932 0.91553 0.0
C620 C 0.58314 0.90344 0.20589 0.0
C621 C 0.57831 0.89091 0.07088 0.0
C622 C 0.58109 0.89901 0.28328 0.0
C623 C 0.57325 0.87814 0.30914 0.0
C624 C 0.57723 0.88692 0.15362 0.0
C625 C 0.56794 0.86216 0.25492 0.0
C626 C 0.5701 0.87411 0.01887 0.0
C627 C 0.58786 0.91568 0.96947 0.0
N628 N 0.56995 0.86686 0.17988 0.0
N629 N 0.58697 0.91113 0.04443 0.0
H630 H 0.68398 0.59 0.67726 0.0
H631 H 0.70448 0.56367 0.25684 0.0
H632 H 0.71825 0.55724 0.62716 0.0
H633 H 0.67382 0.59992 0.30768 0.0
H634 H 0.71069 0.56211 0.39167 0.0
H635 H 0.68123 0.59481 0.54218 0.0
C636 C 0.69117 0.58402 0.63813 0.0
C637 C 0.70135 0.57313 0.66413 0.0
C638 C 0.70266 0.57047 0.37329 0.0
C639 C 0.6979 0.57832 0.50845 0.0
C640 C 0.6992 0.57147 0.29602 0.0
C641 C 0.6885 0.58188 0.27034 0.0
C642 C 0.69537 0.5799 0.42561 0.0
C643 C 0.6818 0.59142 0.32453 0.0
C644 C 0.68945 0.58666 0.56069 0.0
C645 C 0.71 0.56546 0.61 0.0
N646 N 0.68529 0.59014 0.3994 0.0
N647 N 0.70801 0.56813 0.53488 0.0
H648 H 0.08183 0.64689 0.63976 0.0
H649 H 0.15525 0.72659 0.96297 0.0
H650 H 0.13127 0.71116 0.59519 0.0
H651 H 0.09931 0.66653 1.00944 0.0
H652 H 0.14757 0.72071 0.82768 0.0
H653 H 0.0887 0.65335 0.77479 0.0
C654 C 0.09405 0.66241 0.658 0.0
C655 C 0.10596 0.67848 0.60521 0.0
C656 C 0.13692 0.70884 0.86747 0.0
C657 C 0.11412 0.68588 0.76076 0.0
C658 C 0.14136 0.71215 0.94474 0.0
C659 C 0.12793 0.69702 0.99778 0.0
C660 C 0.11899 0.69018 0.84271 0.0
C661 C 0.10998 0.67873 0.97081 0.0
C662 C 0.09802 0.66605 0.73542 0.0
C663 C 0.12185 0.69814 0.63308 0.0
N664 N 0.10611 0.67577 0.89522 0.0
N665 N 0.12546 0.70125 0.70875 0.0
H666 H 0.45251 0.16912 0.2571 0.0
H667 H 0.41123 0.08006 0.9346 0.0
H668 H 0.42047 0.10195 0.30283 0.0
H669 H 0.44789 0.14711 0.88795 0.0
H670 H 0.41193 0.08793 0.06889 0.0
H671 H 0.44829 0.16149 0.12161 0.0
C672 C 0.44452 0.15276 0.23885 0.0
C673 C 0.43699 0.13619 0.29199 0.0
C674 C 0.41978 0.10094 0.02933 0.0
C675 C 0.43199 0.12731 0.13622 0.0
C676 C 0.4195 0.09646 0.95239 0.0
C677 C 0.42972 0.11292 0.89935 0.0
C678 C 0.43036 0.12208 0.05409 0.0
C679 C 0.43971 0.13388 0.92627 0.0
C680 C 0.44206 0.14842 0.1613 0.0
C681 C 0.42641 0.11528 0.26451 0.0
N682 N 0.43987 0.13783 1.00166 0.0
N683 N 0.42436 0.11147 0.18873 0.0
H684 H 0.34148 0.43505 0.6435 0.0
H685 H 0.29529 0.42225 0.22411 0.0
H686 H 0.28194 0.43174 0.59309 0.0
H687 H 0.35952 0.43751 0.27276 0.0
H688 H 0.28909 0.42309 0.35922 0.0
H689 H 0.34709 0.43285 0.50829 0.0
C690 C 0.32949 0.43366 0.60408 0.0
C691 C 0.31119 0.43358 0.62974 0.0
C692 C 0.30454 0.42627 0.34024 0.0
C693 C 0.31762 0.43126 0.4746 0.0
C694 C 0.30817 0.42591 0.26282 0.0
C695 C 0.32804 0.42992 0.23629 0.0
C696 C 0.32083 0.43053 0.39192 0.0
C697 C 0.34389 0.4341 0.29005 0.0
C698 C 0.33278 0.43258 0.52679 0.0
C699 C 0.29636 0.4321 0.57579 0.0
N700 N 0.33994 0.43429 0.36511 0.0
N701 N 0.29988 0.43097 0.50084 0.0
H702 H 0.86596 0.30477 0.58739 0.0
H703 H 0.90958 0.31552 1.0113 0.0
H704 H 0.93062 0.32301 0.64208 0.0
H705 H 0.84525 0.29892 0.95866 0.0
H706 H 0.91708 0.31691 0.8762 0.0
H707 H 0.85785 0.3021 0.72255 0.0
C708 C 0.87852 0.30839 0.62757 0.0
C709 C 0.89904 0.31411 0.60278 0.0
C710 C 0.90128 0.31286 0.89413 0.0
C711 C 0.88973 0.31075 0.75827 0.0
C712 C 0.89691 0.31186 0.97153 0.0
C713 C 0.8767 0.30708 0.99687 0.0
C714 C 0.88536 0.30905 0.84117 0.0
C715 C 0.8611 0.3029 0.94204 0.0
C716 C 0.87382 0.30669 0.70493 0.0
C717 C 0.91452 0.31827 0.65808 0.0
N718 N 0.86576 0.30403 0.86699 0.0
N719 N 0.90955 0.3165 0.73291 0.0
H720 H 0.07491 0.49176 0.14007 0.0
H721 H 0.14148 0.61797 0.18589 0.0
H722 H 0.14203 0.52998 0.09689 0.0
H723 H 0.07417 0.58127 0.22729 0.0
H724 H 0.14142 0.5857 0.14958 0.0
H725 H 0.07376 0.52408 0.169 0.0
C726 C 0.0894 0.50693 0.13658 0.0
C727 C 0.1086 0.50812 0.11585 0.0
C728 C 0.12662 0.58463 0.16646 0.0
C729 C 0.10736 0.54516 0.14859 0.0
C730 C 0.12667 0.60307 0.18768 0.0
C731 C 0.10784 0.60232 0.21053 0.0
C732 C 0.1076 0.56513 0.16808 0.0
C733 C 0.08904 0.58259 0.20988 0.0
C734 C 0.0887 0.52537 0.15279 0.0
C735 C 0.12681 0.52824 0.11144 0.0
N736 N 0.08942 0.56475 0.18944 0.0
N737 N 0.12574 0.5459 0.12791 0.0
H738 H 0.60781 0.09923 0.57867 0.0
H739 H 0.51982 0.12377 0.41685 0.0
H740 H 0.60203 0.11108 0.34296 0.0
H741 H 0.5173 0.10026 0.64319 0.0
H742 H 0.55077 0.12032 0.39103 0.0
H743 H 0.57527 0.10011 0.60532 0.0
C744 C 0.59961 0.10178 0.53235 0.0
C745 C 0.60781 0.10522 0.45845 0.0
C746 C 0.54343 0.11583 0.44631 0.0
C747 C 0.57074 0.10663 0.48892 0.0
C748 C 0.52563 0.11769 0.46107 0.0
C749 C 0.51573 0.11212 0.53222 0.0
C750 C 0.55163 0.10848 0.50316 0.0
C751 C 0.52448 0.10491 0.58774 0.0
C752 C 0.5811 0.10242 0.54774 0.0
C753 C 0.59659 0.10874 0.40101 0.0
N754 N 0.54193 0.10331 0.57205 0.0
N755 N 0.57875 0.10946 0.41753 0.0
H756 H 0.47976 0.61521 0.73148 0.0
H757 H 0.42611 0.49305 0.85143 0.0
H758 H 0.51479 0.58193 0.74915 0.0
H759 H 0.39174 0.52661 0.82094 0.0
H760 H 0.45863 0.52489 0.81116 0.0
H761 H 0.44729 0.58241 0.7605 0.0
C762 C 0.48064 0.60095 0.74031 0.0
C763 C 0.50015 0.60141 0.73738 0.0
C764 C 0.44395 0.52525 0.81322 0.0
C765 C 0.46281 0.56365 0.77263 0.0
C766 C 0.42536 0.50704 0.83591 0.0
C767 C 0.40614 0.50716 0.84027 0.0
C768 C 0.44334 0.54371 0.79456 0.0
C769 C 0.40621 0.52585 0.82003 0.0
C770 C 0.46204 0.5822 0.75763 0.0
C771 C 0.50019 0.58242 0.75146 0.0
N772 N 0.42447 0.54332 0.7983 0.0
N773 N 0.48184 0.56435 0.76865 0.0
H774 H 0.93193 0.42367 0.3433 0.0
H775 H 0.86668 0.47668 0.18322 0.0
H776 H 0.86979 0.38865 0.24194 0.0
H777 H 0.93467 0.51237 0.21059 0.0
H778 H 0.86693 0.44472 0.22101 0.0
H779 H 0.93267 0.45675 0.31037 0.0
C780 C 0.91844 0.42283 0.31429 0.0
C781 C 0.90069 0.40314 0.29602 0.0
C782 C 0.88183 0.45952 0.21859 0.0
C783 C 0.90139 0.44102 0.25931 0.0
C784 C 0.88174 0.47783 0.19638 0.0
C785 C 0.90074 0.49733 0.19228 0.0
C786 C 0.90101 0.46056 0.23788 0.0
C787 C 0.91962 0.49776 0.21303 0.0
C788 C 0.91888 0.44176 0.29577 0.0
C789 C 0.88363 0.40326 0.25917 0.0
N790 N 0.91928 0.47964 0.23485 0.0
N791 N 0.8844 0.42181 0.24233 0.0
H792 H 0.47989 0.86688 0.52479 0.0
H793 H 0.42395 0.93677 0.46848 0.0
H794 H 0.51418 0.93518 0.53639 0.0
H795 H 0.39209 0.86873 0.44485 0.0
H796 H 0.4573 0.93702 0.49111 0.0
H797 H 0.44778 0.86773 0.49312 0.0
C798 C 0.48064 0.88209 0.52103 0.0
C799 C 0.49974 0.90098 0.53415 0.0
C800 C 0.44302 0.92207 0.48043 0.0
C801 C 0.46288 0.9021 0.497 0.0
C802 C 0.42395 0.9219 0.4678 0.0
C803 C 0.40513 0.9027 0.45451 0.0
C804 C 0.44325 0.90289 0.4803 0.0
C805 C 0.40618 0.88396 0.4536 0.0
C806 C 0.4623 0.88258 0.50242 0.0
C807 C 0.49982 0.92024 0.52662 0.0
N808 N 0.42484 0.88454 0.46663 0.0
N809 N 0.48163 0.92031 0.50902 0.0
H810 H 0.59222 0.49354 0.01855 0.0
H811 H 0.51676 0.41849 0.68848 0.0
H812 H 0.60529 0.50717 0.78064 0.0
H813 H 0.50198 0.4061 0.92598 0.0
H814 H 0.54863 0.45171 0.72128 0.0
H815 H 0.55855 0.46208 0.98607 0.0
C816 C 0.58801 0.48994 0.95949 0.0
C817 C 0.60167 0.50304 0.90228 0.0
C818 C 0.53836 0.4418 0.76627 0.0
C819 C 0.56305 0.46705 0.86463 0.0
C820 C 0.5202 0.42278 0.74756 0.0
C821 C 0.50669 0.40941 0.80455 0.0
C822 C 0.5432 0.44752 0.84263 0.0
C823 C 0.5118 0.41597 0.88011 0.0
C824 C 0.56873 0.47202 0.94098 0.0
C825 C 0.5952 0.49772 0.82672 0.0
N826 N 0.5297 0.43447 0.89695 0.0
N827 N 0.57645 0.4801 0.81015 0.0
H828 H 0.26057 0.41851 0.11917 0.0
H829 H 0.15725 0.3973 0.13648 0.0
H830 H 0.24942 0.40146 0.88368 0.0
H831 H 0.17229 0.42095 0.90821 0.0
H832 H 0.18572 0.38839 0.13084 0.0
H833 H 0.22345 0.40905 0.13321 0.0
C834 C 0.25 0.41193 0.07118 0.0
C835 C 0.25786 0.41047 1.00047 0.0
C836 C 0.18247 0.39512 0.08152 0.0
C837 C 0.21556 0.4002 0.01521 0.0
C838 C 0.16607 0.39992 0.0844 0.0
C839 C 0.16261 0.40994 0.0228 0.0
C840 C 0.19526 0.40032 0.01637 0.0
C841 C 0.17462 0.41332 0.95695 0.0
C842 C 0.22879 0.40648 0.07915 0.0
C843 C 0.24378 0.40243 0.93939 0.0
N844 N 0.19051 0.40867 0.95561 0.0
N845 N 0.22341 0.39816 0.94764 0.0
H846 H 0.85262 0.2486 0.20585 0.0
H847 H 0.76569 0.14926 0.44202 0.0
H848 H 0.84971 0.24537 0.44924 0.0
H849 H 0.75519 0.16702 0.2206 0.0
H850 H 0.80319 0.17711 0.43347 0.0
H851 H 0.82385 0.21145 0.2005 0.0
C852 C 0.84652 0.23979 0.25802 0.0
C853 C 0.85339 0.24995 0.32809 0.0
C854 C 0.79278 0.17444 0.38587 0.0
C855 C 0.82061 0.2078 0.32255 0.0
C856 C 0.77149 0.15847 0.39051 0.0
C857 C 0.75746 0.15601 0.33204 0.0
C858 C 0.79998 0.18774 0.32195 0.0
C859 C 0.76559 0.16857 0.26698 0.0
C860 C 0.83 0.21871 0.25501 0.0
C861 C 0.84472 0.23803 0.39415 0.0
N862 N 0.78627 0.18403 0.26391 0.0
N863 N 0.82863 0.21765 0.38984 0.0
H864 H 0.58231 0.83762 0.78659 0.0
H865 H 0.60044 0.75757 0.55941 0.0
H866 H 0.61042 0.85328 0.56464 0.0
H867 H 0.60089 0.75726 0.80303 0.0
H868 H 0.60767 0.79417 0.56117 0.0
H869 H 0.59229 0.81025 0.79784 0.0
C870 C 0.59115 0.83565 0.7411 0.0
C871 C 0.5956 0.84766 0.67466 0.0
C872 C 0.60682 0.78639 0.61434 0.0
C873 C 0.60637 0.81588 0.68581 0.0
C874 C 0.60272 0.76551 0.61331 0.0
C875 C 0.60013 0.7545 0.68117 0.0
C876 C 0.60757 0.79607 0.68381 0.0
C877 C 0.60298 0.76533 0.74953 0.0
C878 C 0.59683 0.82002 0.74747 0.0
C879 C 0.60689 0.84443 0.61701 0.0
N880 N 0.60603 0.78539 0.74919 0.0
N881 N 0.61144 0.82845 0.6231 0.0
H882 H 0.84262 0.58528 0.92453 0.0
H883 H 0.75266 0.58952 0.13851 0.0
H884 H 0.8501 0.60365 0.15894 0.0
H885 H 0.76151 0.60272 0.89972 0.0
H886 H 0.78955 0.59773 0.14858 0.0
H887 H 0.81478 0.59462 0.91217 0.0
C888 C 0.83882 0.59197 0.97273 0.0
C889 C 0.84869 0.5939 0.04262 0.0
C890 C 0.78369 0.59949 0.09434 0.0
C891 C 0.81628 0.60372 0.03004 0.0
C892 C 0.76268 0.59488 0.08871 0.0
C893 C 0.75425 0.5957 0.01839 0.0
C894 C 0.79607 0.60415 0.02857 0.0
C895 C 0.76762 0.60223 0.95509 0.0
C896 C 0.82291 0.59725 0.9658 0.0
C897 C 0.843 0.60223 0.10387 0.0
N898 N 0.78777 0.60573 0.96129 0.0
N899 N 0.82678 0.60636 0.09669 0.0
H900 H 0.24584 0.8415 0.5351 0.0
H901 H 0.15467 0.75883 0.26006 0.0
H902 H 0.25106 0.84268 0.29232 0.0
H903 H 0.16446 0.74493 0.48849 0.0
H904 H 0.18273 0.79591 0.27857 0.0
H905 H 0.20886 0.81262 0.52463 0.0
C906 C 0.23888 0.83621 0.47958 0.0
C907 C 0.25127 0.84444 0.4144 0.0
C908 C 0.17825 0.78486 0.3253 0.0
C909 C 0.20941 0.81144 0.40191 0.0
C910 C 0.16215 0.76382 0.31499 0.0
C911 C 0.15735 0.74898 0.37298 0.0
C912 C 0.18933 0.79097 0.3943 0.0
C913 C 0.16778 0.75601 0.44255 0.0
C914 C 0.21792 0.81966 0.47359 0.0
C915 C 0.24184 0.83676 0.34372 0.0
N916 N 0.1834 0.77647 0.45116 0.0
N917 N 0.22149 0.82054 0.33927 0.0
H918 H 0.4045 0.24953 0.79483 0.0
H919 H 0.4071 0.16198 0.5283 0.0
H920 H 0.42341 0.2597 0.56071 0.0
H921 H 0.42124 0.16788 0.76653 0.0
H922 H 0.39833 0.19044 0.53913 0.0
H923 H 0.39607 0.21241 0.78283 0.0
C924 C 0.40605 0.24368 0.74024 0.0
C925 C 0.41458 0.25751 0.67854 0.0
C926 C 0.40267 0.18498 0.58945 0.0
C927 C 0.4051 0.21544 0.66448 0.0
C928 C 0.40744 0.16864 0.58342 0.0
C929 C 0.41471 0.1626 0.64679 0.0
C930 C 0.40502 0.19508 0.65946 0.0
C931 C 0.41552 0.17209 0.71661 0.0
C932 C 0.40143 0.22263 0.73358 0.0
C933 C 0.41681 0.24941 0.60942 0.0
N934 N 0.4109 0.18799 0.72107 0.0
N935 N 0.41224 0.22893 0.60429 0.0
loop_
_geom_bond_atom_site_label_1
_geom_bond_atom_site_label_2
_geom_bond_distance
_geom_bond_site_symmetry_2
_ccdc_geom_bond_type
C0 C1 1.351 . S
C0 N3 1.368 . S
C0 H5 0.931 . S
C1 C0 1.351 . S
C1 N2 1.373 . S
C1 H29 0.930 . S
N2 C1 1.373 . S
N2 C4 1.340 . S
N3 C0 1.368 . S
N3 C4 1.321 . S
N3 Co6 2.135 . S
C4 N2 1.340 . S
C4 N3 1.321 . S
C4 H28 0.930 . S
H5 C0 0.931 . S
Co6 N3 2.135 . S
Co6 N9 2.121 . S
Co6 O14 2.055 . S
Co6 O17 2.039 . S
Co6 N20 2.140 . S
C7 O8 1.227 . S
C7 O17 1.265 . S
O8 C7 1.227 . S
N9 Co6 2.121 . S
N9 C11 1.375 1_554 S
N9 C12 1.313 1_554 S
C10 C11 1.338 . S
C10 N13 1.377 . S
C10 H30 0.930 . S
C11 N9 1.375 1_556 S
C11 C10 1.338 . S
C11 H15 0.931 1_556 S
C12 N9 1.313 1_556 S
C12 N13 1.344 . S
C12 H16 0.930 . S
N13 C10 1.377 . S
N13 C12 1.344 . S
O14 Co6 2.055 . S
O14 C18 1.253 . S
H15 C11 0.931 1_554 S
H16 C12 0.930 . S
O17 Co6 2.039 . S
O17 C7 1.265 . S
C18 O14 1.253 . S
C18 O19 1.227 . S
O19 C18 1.227 . S
N20 Co6 2.140 . S
N20 C23 1.346 . S
N20 C24 1.345 . S
C21 C22 1.387 . S
C21 C25 1.391 . S
C22 C21 1.387 . S
C22 C23 1.369 . S
C22 H31 0.929 . S
C23 N20 1.346 . S
C23 C22 1.369 . S
C23 H26 0.928 . S
C24 N20 1.345 . S
C24 C25 1.371 . S
C24 H27 0.931 . S
C25 C21 1.391 . S
C25 C24 1.371 . S
C25 H32 0.930 . S
H26 C23 0.928 . S
H27 C24 0.931 . S
H28 C4 0.930 . S
H29 C1 0.930 . S
H30 C10 0.930 . S
H31 C22 0.929 . S
H32 C25 0.930 . S
C33 C34 1.351 . S
C33 N36 1.368 . S
C33 H38 0.931 . S
C34 C33 1.351 . S
C34 N35 1.373 . S
C34 H62 0.930 . S
N35 C34 1.373 . S
N35 C37 1.340 . S
N36 C33 1.368 . S
N36 C37 1.321 . S
N36 Co39 2.135 . S
C37 N35 1.340 . S
C37 N36 1.321 . S
C37 H61 0.930 . S
H38 C33 0.931 . S
Co39 N36 2.135 . S
Co39 N42 2.121 . S
Co39 O47 2.055 . S
Co39 O50 2.039 . S
Co39 N53 2.140 . S
C40 O41 1.227 . S
C40 O50 1.265 . S
O41 C40 1.227 . S
N42 Co39 2.121 . S
N42 C44 1.375 . S
N42 C45 1.313 . S
C43 C44 1.338 . S
C43 N46 1.377 . S
C43 H63 0.930 . S
C44 N42 1.375 . S
C44 C43 1.338 . S
C44 H48 0.931 . S
C45 N42 1.313 . S
C45 N46 1.344 . S
C45 H49 0.930 . S
N46 C43 1.377 . S
N46 C45 1.344 . S
O47 Co39 2.055 . S
O47 C51 1.253 . S
H48 C44 0.931 . S
H49 C45 0.930 . S
O50 Co39 2.039 . S
O50 C40 1.265 . S
C51 O47 1.253 . S
C51 O52 1.227 . S
O52 C51 1.227 . S
N53 Co39 2.140 . S
N53 C56 1.346 . S
N53 C57 1.345 . S
C54 C55 1.387 . S
C54 C58 1.391 . S
C55 C54 1.387 . S
C55 C56 1.369 . S
C55 H64 0.929 . S
C56 N53 1.346 . S
C56 C55 1.369 . S
C56 H59 0.928 . S
C57 N53 1.345 . S
C57 C58 1.371 . S
C57 H60 0.931 . S
C58 C54 1.391 . S
C58 C57 1.371 . S
C58 H65 0.930 . S
H59 C56 0.928 . S
H60 C57 0.931 . S
H61 C37 0.930 . S
H62 C34 0.930 . S
H63 C43 0.930 . S
H64 C55 0.929 . S
H65 C58 0.930 . S
C66 C67 1.351 1_556 S
C66 N69 1.368 . S
C66 H71 0.931 . S
C67 C66 1.351 1_554 S
C67 N68 1.373 . S
C67 H95 0.930 . S
N68 C67 1.373 . S
N68 C70 1.340 1_554 S
N69 C66 1.368 . S
N69 C70 1.321 . S
N69 Co72 2.135 . S
C70 N68 1.340 1_556 S
C70 N69 1.321 . S
C70 H94 0.930 . S
H71 C66 0.931 . S
Co72 N69 2.135 . S
Co72 N75 2.121 . S
Co72 O80 2.055 . S
Co72 O83 2.039 . S
Co72 N86 2.140 . S
C73 O74 1.227 . S
C73 O83 1.265 . S
O74 C73 1.227 . S
N75 Co72 2.121 . S
N75 C77 1.375 . S
N75 C78 1.313 . S
C76 C77 1.338 . S
C76 N79 1.377 . S
C76 H96 0.930 . S
C77 N75 1.375 . S
C77 C76 1.338 . S
C77 H81 0.931 . S
C78 N75 1.313 . S
C78 N79 1.344 . S
C78 H82 0.930 . S
N79 C76 1.377 . S
N79 C78 1.344 . S
O80 Co72 2.055 . S
O80 C84 1.253 . S
H81 C77 0.931 . S
H82 C78 0.930 . S
O83 Co72 2.039 . S
O83 C73 1.265 . S
C84 O80 1.253 . S
C84 O85 1.227 . S
O85 C84 1.227 . S
N86 Co72 2.140 . S
N86 C89 1.346 . S
N86 C90 1.345 . S
C87 C88 1.387 . S
C87 C91 1.391 . S
C88 C87 1.387 . S
C88 C89 1.369 . S
C88 H97 0.929 . S
C89 N86 1.346 . S
C89 C88 1.369 . S
C89 H92 0.928 . S
C90 N86 1.345 . S
C90 C91 1.371 . S
C90 H93 0.931 . S
C91 C87 1.391 . S
C91 C90 1.371 . S
C91 H98 0.930 . S
H92 C89 0.928 . S
H93 C90 0.931 . S
H94 C70 0.930 . S
H95 C67 0.930 . S
H96 C76 0.930 . S
H97 C88 0.929 . S
H98 C91 0.930 . S
C99 C100 1.351 . S
C99 N102 1.368 . S
C99 H104 0.931 . S
C100 C99 1.351 . S
C100 N101 1.373 . S
C100 H128 0.930 . S
N101 C100 1.373 . S
N101 C103 1.340 . S
N102 C99 1.368 . S
N102 C103 1.321 . S
N102 Co105 2.135 . S
C103 N101 1.340 . S
C103 N102 1.321 . S
C103 H127 0.930 . S
H104 C99 0.931 . S
Co105 N102 2.135 . S
Co105 N108 2.121 . S
Co105 O113 2.055 . S
Co105 O116 2.039 . S
Co105 N119 2.140 . S
C106 O107 1.227 . S
C106 O116 1.265 . S
O107 C106 1.227 . S
N108 Co105 2.121 . S
N108 C110 1.375 1_554 S
N108 C111 1.313 1_554 S
C109 C110 1.338 . S
C109 N112 1.377 . S
C109 H129 0.930 . S
C110 N108 1.375 1_556 S
C110 C109 1.338 . S
C110 H114 0.931 1_556 S
C111 N108 1.313 1_556 S
C111 N112 1.344 . S
C111 H115 0.930 . S
N112 C109 1.377 . S
N112 C111 1.344 . S
O113 Co105 2.055 . S
O113 C117 1.253 . S
H114 C110 0.931 1_554 S
H115 C111 0.930 . S
O116 Co105 2.039 . S
O116 C106 1.265 . S
C117 O113 1.253 . S
C117 O118 1.227 . S
O118 C117 1.227 . S
N119 Co105 2.140 . S
N119 C122 1.346 . S
N119 C123 1.345 . S
C120 C121 1.387 . S
C120 C124 1.391 . S
C121 C120 1.387 . S
C121 C122 1.369 . S
C121 H130 0.929 . S
C122 N119 1.346 . S
C122 C121 1.369 . S
C122 H125 0.928 . S
C123 N119 1.345 . S
C123 C124 1.371 . S
C123 H126 0.931 . S
C124 C120 1.391 . S
C124 C123 1.371 . S
C124 H131 0.930 . S
H125 C122 0.928 . S
H126 C123 0.931 . S
H127 C103 0.930 . S
H128 C100 0.930 . S
H129 C109 0.930 . S
H130 C121 0.929 . S
H131 C124 0.930 . S
C132 C133 1.351 . S
C132 N135 1.368 . S
C132 H137 0.931 . S
C133 C132 1.351 . S
C133 N134 1.373 . S
C133 H161 0.930 . S
N134 C133 1.373 . S
N134 C136 1.340 . S
N135 C132 1.368 . S
N135 C136 1.321 . S
N135 Co138 2.135 . S
C136 N134 1.340 . S
C136 N135 1.321 . S
C136 H160 0.930 . S
H137 C132 0.931 . S
Co138 N135 2.135 . S
Co138 N141 2.121 . S
Co138 O146 2.055 . S
Co138 O149 2.039 . S
Co138 N152 2.140 . S
C139 O140 1.227 . S
C139 O149 1.265 . S
O140 C139 1.227 . S
N141 Co138 2.121 . S
N141 C143 1.375 . S
N141 C144 1.313 . S
C142 C143 1.338 . S
C142 N145 1.377 . S
C142 H162 0.930 . S
C143 N141 1.375 . S
C143 C142 1.338 . S
C143 H147 0.931 . S
C144 N141 1.313 . S
C144 N145 1.344 . S
C144 H148 0.930 . S
N145 C142 1.377 . S
N145 C144 1.344 . S
O146 Co138 2.055 . S
O146 C150 1.253 . S
H147 C143 0.931 . S
H148 C144 0.930 . S
O149 Co138 2.039 . S
O149 C139 1.265 . S
C150 O146 1.253 . S
C150 O151 1.227 . S
O151 C150 1.227 . S
N152 Co138 2.140 . S
N152 C155 1.346 . S
N152 C156 1.345 . S
C153 C154 1.387 . S
C153 C157 1.391 . S
C154 C153 1.387 . S
C154 C155 1.369 . S
C154 H163 0.929 . S
C155 N152 1.346 . S
C155 C154 1.369 . S
C155 H158 0.928 . S
C156 N152 1.345 . S
C156 C157 1.371 . S
C156 H159 0.931 . S
C157 C153 1.391 . S
C157 C156 1.371 . S
C157 H164 0.930 . S
H158 C155 0.928 . S
H159 C156 0.931 . S
H160 C136 0.930 . S
H161 C133 0.930 . S
H162 C142 0.930 . S
H163 C154 0.929 . S
H164 C157 0.930 . S
C165 C166 1.351 1_556 S
C165 N168 1.368 . S
C165 H170 0.931 . S
C166 C165 1.351 1_554 S
C166 N167 1.373 . S
C166 H194 0.930 . S
N167 C166 1.373 . S
N167 C169 1.340 1_554 S
N168 C165 1.368 . S
N168 C169 1.321 . S
N168 Co171 2.135 . S
C169 N167 1.340 1_556 S
C169 N168 1.321 . S
C169 H193 0.930 . S
H170 C165 0.931 . S
Co171 N168 2.135 . S
Co171 N174 2.121 . S
Co171 O179 2.055 . S
Co171 O182 2.039 . S
Co171 N185 2.140 . S
C172 O173 1.227 . S
C172 O182 1.265 . S
O173 C172 1.227 . S
N174 Co171 2.121 . S
N174 C176 1.375 . S
N174 C177 1.313 . S
C175 C176 1.338 . S
C175 N178 1.377 . S
C175 H195 0.930 . S
C176 N174 1.375 . S
C176 C175 1.338 . S
C176 H180 0.931 . S
C177 N174 1.313 . S
C177 N178 1.344 . S
C177 H181 0.930 . S
N178 C175 1.377 . S
N178 C177 1.344 . S
O179 Co171 2.055 . S
O179 C183 1.253 . S
H180 C176 0.931 . S
H181 C177 0.930 . S
O182 Co171 2.039 . S
O182 C172 1.265 . S
C183 O179 1.253 . S
C183 O184 1.227 . S
O184 C183 1.227 . S
N185 Co171 2.140 . S
N185 C188 1.346 . S
N185 C189 1.345 . S
C186 C187 1.387 . S
C186 C190 1.391 . S
C187 C186 1.387 . S
C187 C188 1.369 . S
C187 H196 0.929 . S
C188 N185 1.346 . S
C188 C187 1.369 . S
C188 H191 0.928 . S
C189 N185 1.345 . S
C189 C190 1.371 . S
C189 H192 0.931 . S
C190 C186 1.391 . S
C190 C189 1.371 . S
C190 H197 0.930 . S
H191 C188 0.928 . S
H192 C189 0.931 . S
H193 C169 0.930 . S
H194 C166 0.930 . S
H195 C175 0.930 . S
H196 C187 0.929 . S
H197 C190 0.930 . S
C198 C199 1.351 . S
C198 N201 1.368 . S
C198 H203 0.931 . S
C199 C198 1.351 . S
C199 N200 1.373 . S
C199 H227 0.930 . S
N200 C199 1.373 . S
N200 C202 1.340 . S
N201 C198 1.368 . S
N201 C202 1.321 . S
N201 Co204 2.135 . S
C202 N200 1.340 . S
C202 N201 1.321 . S
C202 H226 0.930 . S
H203 C198 0.931 . S
Co204 N201 2.135 . S
Co204 N207 2.121 . S
Co204 O212 2.055 . S
Co204 O215 2.039 . S
Co204 N218 2.140 . S
C205 O206 1.227 . S
C205 O215 1.265 . S
O206 C205 1.227 . S
N207 Co204 2.121 . S
N207 C209 1.375 . S
N207 C210 1.313 . S
C208 C209 1.338 . S
C208 N211 1.377 . S
C208 H228 0.930 . S
C209 N207 1.375 . S
C209 C208 1.338 . S
C209 H213 0.931 . S
C210 N207 1.313 . S
C210 N211 1.344 . S
C210 H214 0.930 . S
N211 C208 1.377 . S
N211 C210 1.344 . S
O212 Co204 2.055 . S
O212 C216 1.253 . S
H213 C209 0.931 . S
H214 C210 0.930 . S
O215 Co204 2.039 . S
O215 C205 1.265 . S
C216 O212 1.253 . S
C216 O217 1.227 . S
O217 C216 1.227 . S
N218 Co204 2.140 . S
N218 C221 1.346 . S
N218 C222 1.345 . S
C219 C220 1.387 . S
C219 C223 1.391 . S
C220 C219 1.387 . S
C220 C221 1.369 . S
C220 H229 0.929 . S
C221 N218 1.346 . S
C221 C220 1.369 . S
C221 H224 0.928 . S
C222 N218 1.345 . S
C222 C223 1.371 . S
C222 H225 0.931 . S
C223 C219 1.391 . S
C223 C222 1.371 . S
C223 H230 0.930 . S
H224 C221 0.928 . S
H225 C222 0.931 . S
H226 C202 0.930 . S
H227 C199 0.930 . S
H228 C208 0.930 . S
H229 C220 0.929 . S
H230 C223 0.930 . S
C231 C232 1.351 . S
C231 N234 1.368 . S
C231 H236 0.931 . S
C232 C231 1.351 . S
C232 N233 1.373 . S
C232 H260 0.930 . S
N233 C232 1.373 . S
N233 C235 1.340 . S
N234 C231 1.368 . S
N234 C235 1.321 . S
N234 Co237 2.135 . S
C235 N233 1.340 . S
C235 N234 1.321 . S
C235 H259 0.930 . S
H236 C231 0.931 . S
Co237 N234 2.135 . S
Co237 N240 2.121 . S
Co237 O245 2.055 . S
Co237 O248 2.039 . S
Co237 N251 2.140 . S
C238 O239 1.227 . S
C238 O248 1.265 . S
O239 C238 1.227 . S
N240 Co237 2.121 . S
N240 C242 1.375 1_556 S
N240 C243 1.313 1_556 S
C241 C242 1.338 . S
C241 N244 1.377 . S
C241 H261 0.930 . S
C242 N240 1.375 1_554 S
C242 C241 1.338 . S
C242 H246 0.931 1_554 S
C243 N240 1.313 1_554 S
C243 N244 1.344 . S
C243 H247 0.930 . S
N244 C241 1.377 . S
N244 C243 1.344 . S
O245 Co237 2.055 . S
O245 C249 1.253 . S
H246 C242 0.931 1_556 S
H247 C243 0.930 . S
O248 Co237 2.039 . S
O248 C238 1.265 . S
C249 O245 1.253 . S
C249 O250 1.227 . S
O250 C249 1.227 . S
N251 Co237 2.140 . S
N251 C254 1.346 . S
N251 C255 1.345 . S
C252 C253 1.387 . S
C252 C256 1.391 . S
C253 C252 1.387 . S
C253 C254 1.369 . S
C253 H262 0.929 . S
C254 N251 1.346 . S
C254 C253 1.369 . S
C254 H257 0.928 . S
C255 N251 1.345 . S
C255 C256 1.371 . S
C255 H258 0.931 . S
C256 C252 1.391 . S
C256 C255 1.371 . S
C256 H263 0.930 . S
H257 C254 0.928 . S
H258 C255 0.931 . S
H259 C235 0.930 . S
H260 C232 0.930 . S
H261 C241 0.930 . S
H262 C253 0.929 . S
H263 C256 0.930 . S
C264 C265 1.351 1_554 S
C264 N267 1.368 . S
C264 H269 0.931 . S
C265 C264 1.351 1_556 S
C265 N266 1.373 . S
C265 H293 0.930 . S
N266 C265 1.373 . S
N266 C268 1.340 1_556 S
N267 C264 1.368 . S
N267 C268 1.321 . S
N267 Co270 2.135 . S
C268 N266 1.340 1_554 S
C268 N267 1.321 . S
C268 H292 0.930 . S
H269 C264 0.931 . S
Co270 N267 2.135 . S
Co270 N273 2.121 . S
Co270 O278 2.055 . S
Co270 O281 2.039 . S
Co270 N284 2.140 . S
C271 O272 1.227 . S
C271 O281 1.265 . S
O272 C271 1.227 . S
N273 Co270 2.121 . S
N273 C275 1.375 . S
N273 C276 1.313 . S
C274 C275 1.338 . S
C274 N277 1.377 . S
C274 H294 0.930 . S
C275 N273 1.375 . S
C275 C274 1.338 . S
C275 H279 0.931 . S
C276 N273 1.313 . S
C276 N277 1.344 . S
C276 H280 0.930 . S
N277 C274 1.377 . S
N277 C276 1.344 . S
O278 Co270 2.055 . S
O278 C282 1.253 . S
H279 C275 0.931 . S
H280 C276 0.930 . S
O281 Co270 2.039 . S
O281 C271 1.265 . S
C282 O278 1.253 . S
C282 O283 1.227 . S
O283 C282 1.227 . S
N284 Co270 2.140 . S
N284 C287 1.346 . S
N284 C288 1.345 . S
C285 C286 1.387 . S
C285 C289 1.391 . S
C286 C285 1.387 . S
C286 C287 1.369 . S
C286 H295 0.929 . S
C287 N284 1.346 . S
C287 C286 1.369 . S
C287 H290 0.928 . S
C288 N284 1.345 . S
C288 C289 1.371 . S
C288 H291 0.931 . S
C289 C285 1.391 . S
C289 C288 1.371 . S
C289 H296 0.930 . S
H290 C287 0.928 . S
H291 C288 0.931 . S
H292 C268 0.930 . S
H293 C265 0.930 . S
H294 C274 0.930 . S
H295 C286 0.929 . S
H296 C289 0.930 . S
C297 C298 1.351 . S
C297 N300 1.368 . S
C297 H302 0.931 . S
C298 C297 1.351 . S
C298 N299 1.373 . S
C298 H326 0.930 . S
N299 C298 1.373 . S
N299 C301 1.340 . S
N300 C297 1.368 . S
N300 C301 1.321 . S
N300 Co303 2.135 . S
C301 N299 1.340 . S
C301 N300 1.321 . S
C301 H325 0.930 . S
H302 C297 0.931 . S
Co303 N300 2.135 . S
Co303 N306 2.121 . S
Co303 O311 2.055 . S
Co303 O314 2.039 . S
Co303 N317 2.140 . S
C304 O305 1.227 . S
C304 O314 1.265 . S
O305 C304 1.227 . S
N306 Co303 2.121 . S
N306 C308 1.375 . S
N306 C309 1.313 . S
C307 C308 1.338 . S
C307 N310 1.377 . S
C307 H327 0.930 . S
C308 N306 1.375 . S
C308 C307 1.338 . S
C308 H312 0.931 . S
C309 N306 1.313 . S
C309 N310 1.344 . S
C309 H313 0.930 . S
N310 C307 1.377 . S
N310 C309 1.344 . S
O311 Co303 2.055 . S
O311 C315 1.253 . S
H312 C308 0.931 . S
H313 C309 0.930 . S
O314 Co303 2.039 . S
O314 C304 1.265 . S
C315 O311 1.253 . S
C315 O316 1.227 . S
O316 C315 1.227 . S
N317 Co303 2.140 . S
N317 C320 1.346 . S
N317 C321 1.345 . S
C318 C319 1.387 . S
C318 C322 1.391 . S
C319 C318 1.387 . S
C319 C320 1.369 . S
C319 H328 0.929 . S
C320 N317 1.346 . S
C320 C319 1.369 . S
C320 H323 0.928 . S
C321 N317 1.345 . S
C321 C322 1.371 . S
C321 H324 0.931 . S
C322 C318 1.391 . S
C322 C321 1.371 . S
C322 H329 0.930 . S
H323 C320 0.928 . S
H324 C321 0.931 . S
H325 C301 0.930 . S
H326 C298 0.930 . S
H327 C307 0.930 . S
H328 C319 0.929 . S
H329 C322 0.930 . S
C330 C331 1.351 . S
C330 N333 1.368 . S
C330 H335 0.931 . S
C331 C330 1.351 . S
C331 N332 1.373 . S
C331 H359 0.930 . S
N332 C331 1.373 . S
N332 C334 1.340 . S
N333 C330 1.368 . S
N333 C334 1.321 . S
N333 Co336 2.135 . S
C334 N332 1.340 . S
C334 N333 1.321 . S
C334 H358 0.930 . S
H335 C330 0.931 . S
Co336 N333 2.135 . S
Co336 N339 2.121 . S
Co336 O344 2.055 . S
Co336 O347 2.039 . S
Co336 N350 2.140 . S
C337 O338 1.227 . S
C337 O347 1.265 . S
O338 C337 1.227 . S
N339 Co336 2.121 . S
N339 C341 1.375 1_556 S
N339 C342 1.313 1_556 S
C340 C341 1.338 . S
C340 N343 1.377 . S
C340 H360 0.930 . S
C341 N339 1.375 1_554 S
C341 C340 1.338 . S
C341 H345 0.931 1_554 S
C342 N339 1.313 1_554 S
C342 N343 1.344 . S
C342 H346 0.930 . S
N343 C340 1.377 . S
N343 C342 1.344 . S
O344 Co336 2.055 . S
O344 C348 1.253 . S
H345 C341 0.931 1_556 S
H346 C342 0.930 . S
O347 Co336 2.039 . S
O347 C337 1.265 . S
C348 O344 1.253 . S
C348 O349 1.227 . S
O349 C348 1.227 . S
N350 Co336 2.140 . S
N350 C353 1.346 . S
N350 C354 1.345 . S
C351 C352 1.387 . S
C351 C355 1.391 . S
C352 C351 1.387 . S
C352 C353 1.369 . S
C352 H361 0.929 . S
C353 N350 1.346 . S
C353 C352 1.369 . S
C353 H356 0.928 . S
C354 N350 1.345 . S
C354 C355 1.371 . S
C354 H357 0.931 . S
C355 C351 1.391 . S
C355 C354 1.371 . S
C355 H362 0.930 . S
H356 C353 0.928 . S
H357 C354 0.931 . S
H358 C334 0.930 . S
H359 C331 0.930 . S
H360 C340 0.930 . S
H361 C352 0.929 . S
H362 C355 0.930 . S
C363 C364 1.351 1_554 S
C363 N366 1.368 . S
C363 H368 0.931 . S
C364 C363 1.351 1_556 S
C364 N365 1.373 . S
C364 H392 0.930 . S
N365 C364 1.373 . S
N365 C367 1.340 1_556 S
N366 C363 1.368 . S
N366 C367 1.321 . S
N366 Co369 2.135 . S
C367 N365 1.340 1_554 S
C367 N366 1.321 . S
C367 H391 0.930 . S
H368 C363 0.931 . S
Co369 N366 2.135 . S
Co369 N372 2.121 . S
Co369 O377 2.055 . S
Co369 O380 2.039 . S
Co369 N383 2.140 . S
C370 O371 1.227 . S
C370 O380 1.265 . S
O371 C370 1.227 . S
N372 Co369 2.121 . S
N372 C374 1.375 . S
N372 C375 1.313 . S
C373 C374 1.338 . S
C373 N376 1.377 . S
C373 H393 0.930 . S
C374 N372 1.375 . S
C374 C373 1.338 . S
C374 H378 0.931 . S
C375 N372 1.313 . S
C375 N376 1.344 . S
C375 H379 0.930 . S
N376 C373 1.377 . S
N376 C375 1.344 . S
O377 Co369 2.055 . S
O377 C381 1.253 . S
H378 C374 0.931 . S
H379 C375 0.930 . S
O380 Co369 2.039 . S
O380 C370 1.265 . S
C381 O377 1.253 . S
C381 O382 1.227 . S
O382 C381 1.227 . S
N383 Co369 2.140 . S
N383 C386 1.346 . S
N383 C387 1.345 . S
C384 C385 1.387 . S
C384 C388 1.391 . S
C385 C384 1.387 . S
C385 C386 1.369 . S
C385 H394 0.929 . S
C386 N383 1.346 . S
C386 C385 1.369 . S
C386 H389 0.928 . S
C387 N383 1.345 . S
C387 C388 1.371 . S
C387 H390 0.931 . S
C388 C384 1.391 . S
C388 C387 1.371 . S
C388 H395 0.930 . S
H389 C386 0.928 . S
H390 C387 0.931 . S
H391 C367 0.930 . S
H392 C364 0.930 . S
H393 C373 0.930 . S
H394 C385 0.929 . S
H395 C388 0.930 . S
H396 C402 0.930 . S
H397 C406 0.930 . S
H398 C411 0.929 . S
H399 C409 0.929 . S
H400 C404 0.929 . S
H401 C410 0.929 . S
C402 H396 0.930 . S
C402 C403 1.367 . S
C402 C410 1.378 . S
C403 C402 1.367 . S
C403 C411 1.433 . S
C404 H400 0.929 . S
C404 C406 1.378 . S
C404 C408 1.350 . S
C405 C408 1.463 1_455 S
C405 C410 1.350 . S
C405 N413 1.427 . S
C406 H397 0.930 . S
C406 C404 1.378 . S
C406 C407 1.367 . S
C407 C406 1.367 . S
C407 C409 1.433 . S
C408 C404 1.350 . S
C408 C405 1.463 1_655 S
C408 N412 1.427 . S
C409 H399 0.929 . S
C409 C407 1.433 . S
C409 N412 1.384 . S
C410 H401 0.929 . S
C410 C402 1.378 . S
C410 C405 1.350 . S
C411 H398 0.929 . S
C411 C403 1.433 . S
C411 N413 1.384 . S
N412 C408 1.427 . S
N412 C409 1.384 . S
N413 C405 1.427 . S
N413 C411 1.384 . S
H414 C420 0.930 . S
H415 C424 0.930 . S
H416 C429 0.929 . S
H417 C427 0.929 . S
H418 C422 0.929 . S
H419 C428 0.929 . S
C420 H414 0.930 . S
C420 C421 1.367 . S
C420 C428 1.378 . S
C421 C420 1.367 . S
C421 C429 1.433 . S
C422 H418 0.929 . S
C422 C424 1.378 . S
C422 C426 1.350 . S
C423 C426 1.463 1_545 S
C423 C428 1.350 . S
C423 N431 1.427 . S
C424 H415 0.930 . S
C424 C422 1.378 . S
C424 C425 1.367 . S
C425 C424 1.367 . S
C425 C427 1.433 . S
C426 C422 1.350 . S
C426 C423 1.463 1_565 S
C426 N430 1.427 . S
C427 H417 0.929 . S
C427 C425 1.433 . S
C427 N430 1.384 . S
C428 H419 0.929 . S
C428 C420 1.378 . S
C428 C423 1.350 . S
C429 H416 0.929 . S
C429 C421 1.433 . S
C429 N431 1.384 . S
N430 C426 1.427 . S
N430 C427 1.384 . S
N431 C423 1.427 . S
N431 C429 1.384 . S
H432 C438 0.930 . S
H433 C442 0.930 . S
H434 C447 0.929 . S
H435 C445 0.929 . S
H436 C440 0.929 . S
H437 C446 0.929 . S
C438 H432 0.930 . S
C438 C439 1.367 . S
C438 C446 1.378 . S
C439 C438 1.367 . S
C439 C447 1.433 . S
C440 H436 0.929 . S
C440 C442 1.378 . S
C440 C444 1.350 . S
C441 C444 1.463 . S
C441 C446 1.350 . S
C441 N449 1.427 . S
C442 H433 0.930 . S
C442 C440 1.378 . S
C442 C443 1.367 . S
C443 C442 1.367 . S
C443 C445 1.433 . S
C444 C440 1.350 . S
C444 C441 1.463 . S
C444 N448 1.427 . S
C445 H435 0.929 . S
C445 C443 1.433 . S
C445 N448 1.384 . S
C446 H437 0.929 . S
C446 C438 1.378 . S
C446 C441 1.350 . S
C447 H434 0.929 . S
C447 C439 1.433 . S
C447 N449 1.384 . S
N448 C444 1.427 . S
N448 C445 1.384 . S
N449 C441 1.427 . S
N449 C447 1.384 . S
H450 C456 0.930 . S
H451 C460 0.930 . S
H452 C465 0.929 . S
H453 C463 0.929 . S
H454 C458 0.929 . S
H455 C464 0.929 . S
C456 H450 0.930 . S
C456 C457 1.367 . S
C456 C464 1.378 . S
C457 C456 1.367 . S
C457 C465 1.433 . S
C458 H454 0.929 . S
C458 C460 1.378 . S
C458 C462 1.350 . S
C459 C462 1.463 1_455 S
C459 C464 1.350 . S
C459 N467 1.427 . S
C460 H451 0.930 . S
C460 C458 1.378 . S
C460 C461 1.367 . S
C461 C460 1.367 . S
C461 C463 1.433 . S
C462 C458 1.350 . S
C462 C459 1.463 1_655 S
C462 N466 1.427 . S
C463 H453 0.929 . S
C463 C461 1.433 . S
C463 N466 1.384 . S
C464 H455 0.929 . S
C464 C456 1.378 . S
C464 C459 1.350 . S
C465 H452 0.929 . S
C465 C457 1.433 . S
C465 N467 1.384 . S
N466 C462 1.427 . S
N466 C463 1.384 . S
N467 C459 1.427 . S
N467 C465 1.384 . S
H468 C474 0.930 . S
H469 C478 0.930 . S
H470 C483 0.929 . S
H471 C481 0.929 . S
H472 C476 0.929 . S
H473 C482 0.929 . S
C474 H468 0.930 . S
C474 C475 1.367 . S
C474 C482 1.378 . S
C475 C474 1.367 . S
C475 C483 1.433 . S
C476 H472 0.929 . S
C476 C478 1.378 . S
C476 C480 1.350 . S
C477 C480 1.463 1_545 S
C477 C482 1.350 . S
C477 N485 1.427 . S
C478 H469 0.930 . S
C478 C476 1.378 . S
C478 C479 1.367 . S
C479 C478 1.367 . S
C479 C481 1.433 . S
C480 C476 1.350 . S
C480 C477 1.463 1_565 S
C480 N484 1.427 . S
C481 H471 0.929 . S
C481 C479 1.433 . S
C481 N484 1.384 . S
C482 H473 0.929 . S
C482 C474 1.378 . S
C482 C477 1.350 . S
C483 H470 0.929 . S
C483 C475 1.433 . S
C483 N485 1.384 . S
N484 C480 1.427 . S
N484 C481 1.384 . S
N485 C477 1.427 . S
N485 C483 1.384 . S
H486 C492 0.930 . S
H487 C496 0.930 . S
H488 C501 0.929 . S
H489 C499 0.929 . S
H490 C494 0.929 . S
H491 C500 0.929 . S
C492 H486 0.930 . S
C492 C493 1.367 . S
C492 C500 1.378 . S
C493 C492 1.367 . S
C493 C501 1.433 . S
C494 H490 0.929 . S
C494 C496 1.378 . S
C494 C498 1.350 . S
C495 C498 1.463 . S
C495 C500 1.350 . S
C495 N503 1.427 . S
C496 H487 0.930 . S
C496 C494 1.378 . S
C496 C497 1.367 . S
C497 C496 1.367 . S
C497 C499 1.433 . S
C498 C494 1.350 . S
C498 C495 1.463 . S
C498 N502 1.427 . S
C499 H489 0.929 . S
C499 C497 1.433 . S
C499 N502 1.384 . S
C500 H491 0.929 . S
C500 C492 1.378 . S
C500 C495 1.350 . S
C501 H488 0.929 . S
C501 C493 1.433 . S
C501 N503 1.384 . S
N502 C498 1.427 . S
N502 C499 1.384 . S
N503 C495 1.427 . S
N503 C501 1.384 . S
H504 C510 0.930 . S
H505 C514 0.930 . S
H506 C519 0.929 . S
H507 C517 0.929 . S
H508 C512 0.929 . S
H509 C518 0.929 . S
C510 H504 0.930 . S
C510 C511 1.367 . S
C510 C518 1.378 . S
C511 C510 1.367 . S
C511 C519 1.433 . S
C512 H508 0.929 . S
C512 C514 1.378 . S
C512 C516 1.350 . S
C513 C516 1.463 . S
C513 C518 1.350 . S
C513 N521 1.427 . S
C514 H505 0.930 . S
C514 C512 1.378 . S
C514 C515 1.367 . S
C515 C514 1.367 . S
C515 C517 1.433 . S
C516 C512 1.350 . S
C516 C513 1.463 . S
C516 N520 1.427 . S
C517 H507 0.929 . S
C517 C515 1.433 . S
C517 N520 1.384 . S
C518 H509 0.929 . S
C518 C510 1.378 . S
C518 C513 1.350 . S
C519 H506 0.929 . S
C519 C511 1.433 . S
C519 N521 1.384 . S
N520 C516 1.427 . S
N520 C517 1.384 . S
N521 C513 1.427 . S
N521 C519 1.384 . S
H522 C528 0.930 . S
H523 C532 0.930 . S
H524 C537 0.929 . S
H525 C535 0.929 . S
H526 C530 0.929 . S
H527 C536 0.929 . S
C528 H522 0.930 . S
C528 C529 1.367 . S
C528 C536 1.378 . S
C529 C528 1.367 . S
C529 C537 1.433 . S
C530 H526 0.929 . S
C530 C532 1.378 . S
C530 C534 1.350 1_554 S
C531 C534 1.463 . S
C531 C536 1.350 . S
C531 N539 1.427 . S
C532 H523 0.930 . S
C532 C530 1.378 . S
C532 C533 1.367 . S
C533 C532 1.367 . S
C533 C535 1.433 . S
C534 C530 1.350 1_556 S
C534 C531 1.463 . S
C534 N538 1.427 1_556 S
C535 H525 0.929 . S
C535 C533 1.433 . S
C535 N538 1.384 . S
C536 H527 0.929 . S
C536 C528 1.378 . S
C536 C531 1.350 . S
C537 H524 0.929 . S
C537 C529 1.433 . S
C537 N539 1.384 . S
N538 C534 1.427 1_554 S
N538 C535 1.384 . S
N539 C531 1.427 . S
N539 C537 1.384 . S
H540 C546 0.930 . S
H541 C550 0.930 . S
H542 C555 0.929 . S
H543 C553 0.929 . S
H544 C548 0.929 . S
H545 C554 0.929 . S
C546 H540 0.930 . S
C546 C547 1.367 . S
C546 C554 1.378 . S
C547 C546 1.367 . S
C547 C555 1.433 . S
C548 H544 0.929 . S
C548 C550 1.378 . S
C548 C552 1.350 . S
C549 C552 1.463 . S
C549 C554 1.350 . S
C549 N557 1.427 . S
C550 H541 0.930 . S
C550 C548 1.378 . S
C550 C551 1.367 . S
C551 C550 1.367 . S
C551 C553 1.433 . S
C552 C548 1.350 . S
C552 C549 1.463 . S
C552 N556 1.427 . S
C553 H543 0.929 . S
C553 C551 1.433 . S
C553 N556 1.384 . S
C554 H545 0.929 . S
C554 C546 1.378 . S
C554 C549 1.350 . S
C555 H542 0.929 . S
C555 C547 1.433 . S
C555 N557 1.384 . S
N556 C552 1.427 . S
N556 C553 1.384 . S
N557 C549 1.427 . S
N557 C555 1.384 . S
H558 C564 0.930 . S
H559 C568 0.930 . S
H560 C573 0.929 . S
H561 C571 0.929 . S
H562 C566 0.929 . S
H563 C572 0.929 . S
C564 H558 0.930 . S
C564 C565 1.367 . S
C564 C572 1.378 . S
C565 C564 1.367 . S
C565 C573 1.433 . S
C566 H562 0.929 . S
C566 C568 1.378 . S
C566 C570 1.350 . S
C567 C570 1.463 . S
C567 C572 1.350 . S
C567 N575 1.427 . S
C568 H559 0.930 . S
C568 C566 1.378 . S
C568 C569 1.367 . S
C569 C568 1.367 . S
C569 C571 1.433 . S
C570 C566 1.350 . S
C570 C567 1.463 . S
C570 N574 1.427 . S
C571 H561 0.929 . S
C571 C569 1.433 . S
C571 N574 1.384 . S
C572 H563 0.929 . S
C572 C564 1.378 . S
C572 C567 1.350 . S
C573 H560 0.929 . S
C573 C565 1.433 . S
C573 N575 1.384 . S
N574 C570 1.427 . S
N574 C571 1.384 . S
N575 C567 1.427 . S
N575 C573 1.384 . S
H576 C582 0.930 . S
H577 C586 0.930 . S
H578 C591 0.929 . S
H579 C589 0.929 . S
H580 C584 0.929 . S
H581 C590 0.929 1_556 S
C582 H576 0.930 . S
C582 C583 1.367 . S
C582 C590 1.378 . S
C583 C582 1.367 . S
C583 C591 1.433 . S
C584 H580 0.929 . S
C584 C586 1.378 . S
C584 C588 1.350 . S
C585 C588 1.463 . S
C585 C590 1.350 1_556 S
C585 N593 1.427 1_556 S
C586 H577 0.930 . S
C586 C584 1.378 . S
C586 C587 1.367 . S
C587 C586 1.367 . S
C587 C589 1.433 . S
C588 C584 1.350 . S
C588 C585 1.463 . S
C588 N592 1.427 . S
C589 H579 0.929 . S
C589 C587 1.433 . S
C589 N592 1.384 . S
C590 H581 0.929 1_554 S
C590 C582 1.378 . S
C590 C585 1.350 1_554 S
C591 H578 0.929 . S
C591 C583 1.433 . S
C591 N593 1.384 . S
N592 C588 1.427 . S
N592 C589 1.384 . S
N593 C585 1.427 1_554 S
N593 C591 1.384 . S
H594 C600 0.930 . S
H595 C604 0.930 . S
H596 C609 0.929 . S
H597 C607 0.929 . S
H598 C602 0.929 . S
H599 C608 0.929 . S
C600 H594 0.930 . S
C600 C601 1.367 . S
C600 C608 1.378 . S
C601 C600 1.367 . S
C601 C609 1.433 . S
C602 H598 0.929 . S
C602 C604 1.378 . S
C602 C606 1.350 . S
C603 C606 1.463 . S
C603 C608 1.350 . S
C603 N611 1.427 . S
C604 H595 0.930 . S
C604 C602 1.378 . S
C604 C605 1.367 . S
C605 C604 1.367 . S
C605 C607 1.433 . S
C606 C602 1.350 . S
C606 C603 1.463 . S
C606 N610 1.427 . S
C607 H597 0.929 . S
C607 C605 1.433 . S
C607 N610 1.384 . S
C608 H599 0.929 . S
C608 C600 1.378 . S
C608 C603 1.350 . S
C609 H596 0.929 . S
C609 C601 1.433 . S
C609 N611 1.384 . S
N610 C606 1.427 . S
N610 C607 1.384 . S
N611 C603 1.427 . S
N611 C609 1.384 . S
H612 C618 0.930 . S
H613 C622 0.930 . S
H614 C627 0.929 . S
H615 C625 0.929 . S
H616 C620 0.929 . S
H617 C626 0.929 . S
C618 H612 0.930 . S
C618 C619 1.367 . S
C618 C626 1.378 . S
C619 C618 1.367 . S
C619 C627 1.433 . S
C620 H616 0.929 . S
C620 C622 1.378 . S
C620 C624 1.350 . S
C621 C624 1.463 . S
C621 C626 1.350 1_554 S
C621 N629 1.427 1_554 S
C622 H613 0.930 . S
C622 C620 1.378 . S
C622 C623 1.367 . S
C623 C622 1.367 . S
C623 C625 1.433 . S
C624 C620 1.350 . S
C624 C621 1.463 . S
C624 N628 1.427 . S
C625 H615 0.929 . S
C625 C623 1.433 . S
C625 N628 1.384 . S
C626 H617 0.929 . S
C626 C618 1.378 . S
C626 C621 1.350 1_556 S
C627 H614 0.929 . S
C627 C619 1.433 . S
C627 N629 1.384 . S
N628 C624 1.427 . S
N628 C625 1.384 . S
N629 C621 1.427 1_556 S
N629 C627 1.384 . S
H630 C636 0.930 . S
H631 C640 0.930 . S
H632 C645 0.929 . S
H633 C643 0.929 . S
H634 C638 0.929 . S
H635 C644 0.929 . S
C636 H630 0.930 . S
C636 C637 1.367 . S
C636 C644 1.378 . S
C637 C636 1.367 . S
C637 C645 1.433 . S
C638 H634 0.929 . S
C638 C640 1.378 . S
C638 C642 1.350 . S
C639 C642 1.463 . S
C639 C644 1.350 . S
C639 N647 1.427 . S
C640 H631 0.930 . S
C640 C638 1.378 . S
C640 C641 1.367 . S
C641 C640 1.367 . S
C641 C643 1.433 . S
C642 C638 1.350 . S
C642 C639 1.463 . S
C642 N646 1.427 . S
C643 H633 0.929 . S
C643 C641 1.433 . S
C643 N646 1.384 . S
C644 H635 0.929 . S
C644 C636 1.378 . S
C644 C639 1.350 . S
C645 H632 0.929 . S
C645 C637 1.433 . S
C645 N647 1.384 . S
N646 C642 1.427 . S
N646 C643 1.384 . S
N647 C639 1.427 . S
N647 C645 1.384 . S
H648 C654 0.930 . S
H649 C658 0.930 . S
H650 C663 0.929 . S
H651 C661 0.929 . S
H652 C656 0.929 . S
H653 C662 0.929 . S
C654 H648 0.930 . S
C654 C655 1.367 . S
C654 C662 1.378 . S
C655 C654 1.367 . S
C655 C663 1.433 . S
C656 H652 0.929 . S
C656 C658 1.378 . S
C656 C660 1.350 . S
C657 C660 1.463 . S
C657 C662 1.350 . S
C657 N665 1.427 . S
C658 H649 0.930 . S
C658 C656 1.378 . S
C658 C659 1.367 . S
C659 C658 1.367 . S
C659 C661 1.433 . S
C660 C656 1.350 . S
C660 C657 1.463 . S
C660 N664 1.427 . S
C661 H651 0.929 . S
C661 C659 1.433 . S
C661 N664 1.384 . S
C662 H653 0.929 . S
C662 C654 1.378 . S
C662 C657 1.350 . S
C663 H650 0.929 . S
C663 C655 1.433 . S
C663 N665 1.384 . S
N664 C660 1.427 . S
N664 C661 1.384 . S
N665 C657 1.427 . S
N665 C663 1.384 . S
H666 C672 0.930 . S
H667 C676 0.930 . S
H668 C681 0.929 . S
H669 C679 0.929 . S
H670 C674 0.929 . S
H671 C680 0.929 . S
C672 H666 0.930 . S
C672 C673 1.367 . S
C672 C680 1.378 . S
C673 C672 1.367 . S
C673 C681 1.433 . S
C674 H670 0.929 . S
C674 C676 1.378 . S
C674 C678 1.350 1_556 S
C675 C678 1.463 . S
C675 C680 1.350 . S
C675 N683 1.427 . S
C676 H667 0.930 . S
C676 C674 1.378 . S
C676 C677 1.367 . S
C677 C676 1.367 . S
C677 C679 1.433 . S
C678 C674 1.350 1_554 S
C678 C675 1.463 . S
C678 N682 1.427 1_554 S
C679 H669 0.929 . S
C679 C677 1.433 . S
C679 N682 1.384 . S
C680 H671 0.929 . S
C680 C672 1.378 . S
C680 C675 1.350 . S
C681 H668 0.929 . S
C681 C673 1.433 . S
C681 N683 1.384 . S
N682 C678 1.427 1_556 S
N682 C679 1.384 . S
N683 C675 1.427 . S
N683 C681 1.384 . S
H684 C690 0.930 . S
H685 C694 0.930 . S
H686 C699 0.929 . S
H687 C697 0.929 . S
H688 C692 0.929 . S
H689 C698 0.929 . S
C690 H684 0.930 . S
C690 C691 1.367 . S
C690 C698 1.378 . S
C691 C690 1.367 . S
C691 C699 1.433 . S
C692 H688 0.929 . S
C692 C694 1.378 . S
C692 C696 1.350 . S
C693 C696 1.463 . S
C693 C698 1.350 . S
C693 N701 1.427 . S
C694 H685 0.930 . S
C694 C692 1.378 . S
C694 C695 1.367 . S
C695 C694 1.367 . S
C695 C697 1.433 . S
C696 C692 1.350 . S
C696 C693 1.463 . S
C696 N700 1.427 . S
C697 H687 0.929 . S
C697 C695 1.433 . S
C697 N700 1.384 . S
C698 H689 0.929 . S
C698 C690 1.378 . S
C698 C693 1.350 . S
C699 H686 0.929 . S
C699 C691 1.433 . S
C699 N701 1.384 . S
N700 C696 1.427 . S
N700 C697 1.384 . S
N701 C693 1.427 . S
N701 C699 1.384 . S
H702 C708 0.930 . S
H703 C712 0.930 . S
H704 C717 0.929 . S
H705 C715 0.929 . S
H706 C710 0.929 . S
H707 C716 0.929 . S
C708 H702 0.930 . S
C708 C709 1.367 . S
C708 C716 1.378 . S
C709 C708 1.367 . S
C709 C717 1.433 . S
C710 H706 0.929 . S
C710 C712 1.378 . S
C710 C714 1.350 . S
C711 C714 1.463 . S
C711 C716 1.350 . S
C711 N719 1.427 . S
C712 H703 0.930 . S
C712 C710 1.378 . S
C712 C713 1.367 . S
C713 C712 1.367 . S
C713 C715 1.433 . S
C714 C710 1.350 . S
C714 C711 1.463 . S
C714 N718 1.427 . S
C715 H705 0.929 . S
C715 C713 1.433 . S
C715 N718 1.384 . S
C716 H707 0.929 . S
C716 C708 1.378 . S
C716 C711 1.350 . S
C717 H704 0.929 . S
C717 C709 1.433 . S
C717 N719 1.384 . S
N718 C714 1.427 . S
N718 C715 1.384 . S
N719 C711 1.427 . S
N719 C717 1.384 . S
H720 C726 0.930 . S
H721 C730 0.930 . S
H722 C735 0.929 . S
H723 C733 0.929 . S
H724 C728 0.929 . S
H725 C734 0.929 . S
C726 H720 0.930 . S
C726 C727 1.367 . S
C726 C734 1.378 . S
C727 C726 1.367 . S
C727 C735 1.433 . S
C728 H724 0.929 . S
C728 C730 1.378 . S
C728 C732 1.350 . S
C729 C732 1.463 . S
C729 C734 1.350 . S
C729 N737 1.427 . S
C730 H721 0.930 . S
C730 C728 1.378 . S
C730 C731 1.367 . S
C731 C730 1.367 . S
C731 C733 1.433 . S
C732 C728 1.350 . S
C732 C729 1.463 . S
C732 N736 1.427 . S
C733 H723 0.929 . S
C733 C731 1.433 . S
C733 N736 1.384 . S
C734 H725 0.929 . S
C734 C726 1.378 . S
C734 C729 1.350 . S
C735 H722 0.929 . S
C735 C727 1.433 . S
C735 N737 1.384 . S
N736 C732 1.427 . S
N736 C733 1.384 . S
N737 C729 1.427 . S
N737 C735 1.384 . S
H738 C744 0.930 . S
H739 C748 0.930 . S
H740 C753 0.929 . S
H741 C751 0.929 . S
H742 C746 0.929 . S
H743 C752 0.929 . S
C744 H738 0.930 . S
C744 C745 1.367 . S
C744 C752 1.378 . S
C745 C744 1.367 . S
C745 C753 1.433 . S
C746 H742 0.929 . S
C746 C748 1.378 . S
C746 C750 1.350 . S
C747 C750 1.463 . S
C747 C752 1.350 . S
C747 N755 1.427 . S
C748 H739 0.930 . S
C748 C746 1.378 . S
C748 C749 1.367 . S
C749 C748 1.367 . S
C749 C751 1.433 . S
C750 C746 1.350 . S
C750 C747 1.463 . S
C750 N754 1.427 . S
C751 H741 0.929 . S
C751 C749 1.433 . S
C751 N754 1.384 . S
C752 H743 0.929 . S
C752 C744 1.378 . S
C752 C747 1.350 . S
C753 H740 0.929 . S
C753 C745 1.433 . S
C753 N755 1.384 . S
N754 C750 1.427 . S
N754 C751 1.384 . S
N755 C747 1.427 . S
N755 C753 1.384 . S
H756 C762 0.930 . S
H757 C766 0.930 . S
H758 C771 0.929 . S
H759 C769 0.929 . S
H760 C764 0.929 . S
H761 C770 0.929 . S
C762 H756 0.930 . S
C762 C763 1.367 . S
C762 C770 1.378 . S
C763 C762 1.367 . S
C763 C771 1.433 . S
C764 H760 0.929 . S
C764 C766 1.378 . S
C764 C768 1.350 . S
C765 C768 1.463 . S
C765 C770 1.350 . S
C765 N773 1.427 . S
C766 H757 0.930 . S
C766 C764 1.378 . S
C766 C767 1.367 . S
C767 C766 1.367 . S
C767 C769 1.433 . S
C768 C764 1.350 . S
C768 C765 1.463 . S
C768 N772 1.427 . S
C769 H759 0.929 . S
C769 C767 1.433 . S
C769 N772 1.384 . S
C770 H761 0.929 . S
C770 C762 1.378 . S
C770 C765 1.350 . S
C771 H758 0.929 . S
C771 C763 1.433 . S
C771 N773 1.384 . S
N772 C768 1.427 . S
N772 C769 1.384 . S
N773 C765 1.427 . S
N773 C771 1.384 . S
H774 C780 0.930 . S
H775 C784 0.930 . S
H776 C789 0.929 . S
H777 C787 0.929 . S
H778 C782 0.929 . S
H779 C788 0.929 . S
C780 H774 0.930 . S
C780 C781 1.367 . S
C780 C788 1.378 . S
C781 C780 1.367 . S
C781 C789 1.433 . S
C782 H778 0.929 . S
C782 C784 1.378 . S
C782 C786 1.350 . S
C783 C786 1.463 . S
C783 C788 1.350 . S
C783 N791 1.427 . S
C784 H775 0.930 . S
C784 C782 1.378 . S
C784 C785 1.367 . S
C785 C784 1.367 . S
C785 C787 1.433 . S
C786 C782 1.350 . S
C786 C783 1.463 . S
C786 N790 1.427 . S
C787 H777 0.929 . S
C787 C785 1.433 . S
C787 N790 1.384 . S
C788 H779 0.929 . S
C788 C780 1.378 . S
C788 C783 1.350 . S
C789 H776 0.929 . S
C789 C781 1.433 . S
C789 N791 1.384 . S
N790 C786 1.427 . S
N790 C787 1.384 . S
N791 C783 1.427 . S
N791 C789 1.384 . S
H792 C798 0.930 . S
H793 C802 0.930 . S
H794 C807 0.929 . S
H795 C805 0.929 . S
H796 C800 0.929 . S
H797 C806 0.929 . S
C798 H792 0.930 . S
C798 C799 1.367 . S
C798 C806 1.378 . S
C799 C798 1.367 . S
C799 C807 1.433 . S
C800 H796 0.929 . S
C800 C802 1.378 . S
C800 C804 1.350 . S
C801 C804 1.463 . S
C801 C806 1.350 . S
C801 N809 1.427 . S
C802 H793 0.930 . S
C802 C800 1.378 . S
C802 C803 1.367 . S
C803 C802 1.367 . S
C803 C805 1.433 . S
C804 C800 1.350 . S
C804 C801 1.463 . S
C804 N808 1.427 . S
C805 H795 0.929 . S
C805 C803 1.433 . S
C805 N808 1.384 . S
C806 H797 0.929 . S
C806 C798 1.378 . S
C806 C801 1.350 . S
C807 H794 0.929 . S
C807 C799 1.433 . S
C807 N809 1.384 . S
N808 C804 1.427 . S
N808 C805 1.384 . S
N809 C801 1.427 . S
N809 C807 1.384 . S
H810 C816 0.930 . S
H811 C820 0.930 . S
H812 C825 0.929 . S
H813 C823 0.929 . S
H814 C818 0.929 . S
H815 C824 0.929 . S
C816 H810 0.930 . S
C816 C817 1.367 . S
C816 C824 1.378 . S
C817 C816 1.367 . S
C817 C825 1.433 . S
C818 H814 0.929 . S
C818 C820 1.378 . S
C818 C822 1.350 . S
C819 C822 1.463 . S
C819 C824 1.350 . S
C819 N827 1.427 . S
C820 H811 0.930 . S
C820 C818 1.378 . S
C820 C821 1.367 . S
C821 C820 1.367 . S
C821 C823 1.433 . S
C822 C818 1.350 . S
C822 C819 1.463 . S
C822 N826 1.427 . S
C823 H813 0.929 . S
C823 C821 1.433 . S
C823 N826 1.384 . S
C824 H815 0.929 . S
C824 C816 1.378 . S
C824 C819 1.350 . S
C825 H812 0.929 . S
C825 C817 1.433 . S
C825 N827 1.384 . S
N826 C822 1.427 . S
N826 C823 1.384 . S
N827 C819 1.427 . S
N827 C825 1.384 . S
H828 C834 0.930 . S
H829 C838 0.930 . S
H830 C843 0.929 . S
H831 C841 0.929 . S
H832 C836 0.929 . S
H833 C842 0.929 . S
C834 H828 0.930 . S
C834 C835 1.367 . S
C834 C842 1.378 . S
C835 C834 1.367 . S
C835 C843 1.433 . S
C836 H832 0.929 . S
C836 C838 1.378 . S
C836 C840 1.350 . S
C837 C840 1.463 1_556 S
C837 C842 1.350 . S
C837 N845 1.427 . S
C838 H829 0.930 . S
C838 C836 1.378 . S
C838 C839 1.367 . S
C839 C838 1.367 . S
C839 C841 1.433 . S
C840 C836 1.350 . S
C840 C837 1.463 1_554 S
C840 N844 1.427 . S
C841 H831 0.929 . S
C841 C839 1.433 . S
C841 N844 1.384 . S
C842 H833 0.929 . S
C842 C834 1.378 . S
C842 C837 1.350 . S
C843 H830 0.929 . S
C843 C835 1.433 . S
C843 N845 1.384 . S
N844 C840 1.427 . S
N844 C841 1.384 . S
N845 C837 1.427 . S
N845 C843 1.384 . S
H846 C852 0.930 . S
H847 C856 0.930 . S
H848 C861 0.929 . S
H849 C859 0.929 . S
H850 C854 0.929 . S
H851 C860 0.929 . S
C852 H846 0.930 . S
C852 C853 1.367 . S
C852 C860 1.378 . S
C853 C852 1.367 . S
C853 C861 1.433 . S
C854 H850 0.929 . S
C854 C856 1.378 . S
C854 C858 1.350 . S
C855 C858 1.463 . S
C855 C860 1.350 . S
C855 N863 1.427 . S
C856 H847 0.930 . S
C856 C854 1.378 . S
C856 C857 1.367 . S
C857 C856 1.367 . S
C857 C859 1.433 . S
C858 C854 1.350 . S
C858 C855 1.463 . S
C858 N862 1.427 . S
C859 H849 0.929 . S
C859 C857 1.433 . S
C859 N862 1.384 . S
C860 H851 0.929 . S
C860 C852 1.378 . S
C860 C855 1.350 . S
C861 H848 0.929 . S
C861 C853 1.433 . S
C861 N863 1.384 . S
N862 C858 1.427 . S
N862 C859 1.384 . S
N863 C855 1.427 . S
N863 C861 1.384 . S
H864 C870 0.930 . S
H865 C874 0.930 . S
H866 C879 0.929 . S
H867 C877 0.929 . S
H868 C872 0.929 . S
H869 C878 0.929 . S
C870 H864 0.930 . S
C870 C871 1.367 . S
C870 C878 1.378 . S
C871 C870 1.367 . S
C871 C879 1.433 . S
C872 H868 0.929 . S
C872 C874 1.378 . S
C872 C876 1.350 . S
C873 C876 1.463 . S
C873 C878 1.350 . S
C873 N881 1.427 . S
C874 H865 0.930 . S
C874 C872 1.378 . S
C874 C875 1.367 . S
C875 C874 1.367 . S
C875 C877 1.433 . S
C876 C872 1.350 . S
C876 C873 1.463 . S
C876 N880 1.427 . S
C877 H867 0.929 . S
C877 C875 1.433 . S
C877 N880 1.384 . S
C878 H869 0.929 . S
C878 C870 1.378 . S
C878 C873 1.350 . S
C879 H866 0.929 . S
C879 C871 1.433 . S
C879 N881 1.384 . S
N880 C876 1.427 . S
N880 C877 1.384 . S
N881 C873 1.427 . S
N881 C879 1.384 . S
H882 C888 0.930 . S
H883 C892 0.930 . S
H884 C897 0.929 . S
H885 C895 0.929 . S
H886 C890 0.929 1_554 S
H887 C896 0.929 1_556 S
C888 H882 0.930 . S
C888 C889 1.367 . S
C888 C896 1.378 . S
C889 C888 1.367 . S
C889 C897 1.433 . S
C890 H886 0.929 1_556 S
C890 C892 1.378 . S
C890 C894 1.350 . S
C891 C894 1.463 1_554 S
C891 C896 1.350 . S
C891 N899 1.427 . S
C892 H883 0.930 . S
C892 C890 1.378 . S
C892 C893 1.367 . S
C893 C892 1.367 . S
C893 C895 1.433 . S
C894 C890 1.350 . S
C894 C891 1.463 1_556 S
C894 N898 1.427 . S
C895 H885 0.929 . S
C895 C893 1.433 . S
C895 N898 1.384 . S
C896 H887 0.929 1_554 S
C896 C888 1.378 . S
C896 C891 1.350 . S
C897 H884 0.929 . S
C897 C889 1.433 . S
C897 N899 1.384 . S
N898 C894 1.427 . S
N898 C895 1.384 . S
N899 C891 1.427 . S
N899 C897 1.384 . S
H900 C906 0.930 . S
H901 C910 0.930 . S
H902 C915 0.929 . S
H903 C913 0.929 . S
H904 C908 0.929 . S
H905 C914 0.929 . S
C906 H900 0.930 . S
C906 C907 1.367 . S
C906 C914 1.378 . S
C907 C906 1.367 . S
C907 C915 1.433 . S
C908 H904 0.929 . S
C908 C910 1.378 . S
C908 C912 1.350 . S
C909 C912 1.463 . S
C909 C914 1.350 . S
C909 N917 1.427 . S
C910 H901 0.930 . S
C910 C908 1.378 . S
C910 C911 1.367 . S
C911 C910 1.367 . S
C911 C913 1.433 . S
C912 C908 1.350 . S
C912 C909 1.463 . S
C912 N916 1.427 . S
C913 H903 0.929 . S
C913 C911 1.433 . S
C913 N916 1.384 . S
C914 H905 0.929 . S
C914 C906 1.378 . S
C914 C909 1.350 . S
C915 H902 0.929 . S
C915 C907 1.433 . S
C915 N917 1.384 . S
N916 C912 1.427 . S
N916 C913 1.384 . S
N917 C909 1.427 . S
N917 C915 1.384 . S
H918 C924 0.930 . S
H919 C928 0.930 . S
H920 C933 0.929 . S
H921 C931 0.929 . S
H922 C926 0.929 . S
H923 C932 0.929 . S
C924 H918 0.930 . S
C924 C925 1.367 . S
C924 C932 1.378 . S
C925 C924 1.367 . S
C925 C933 1.433 . S
C926 H922 0.929 . S
C926 C928 1.378 . S
C926 C930 1.350 . S
C927 C930 1.463 . S
C927 C932 1.350 . S
C927 N935 1.427 . S
C928 H919 0.930 . S
C928 C926 1.378 . S
C928 C929 1.367 . S
C929 C928 1.367 . S
C929 C931 1.433 . S
C930 C926 1.350 . S
C930 C927 1.463 . S
C930 N934 1.427 . S
C931 H921 0.929 . S
C931 C929 1.433 . S
C931 N934 1.384 . S
C932 H923 0.929 . S
C932 C924 1.378 . S
C932 C927 1.350 . S
C933 H920 0.929 . S
C933 C925 1.433 . S
C933 N935 1.384 . S
N934 C930 1.427 . S
N934 C931 1.384 . S
N935 C927 1.427 . S
N935 C933 1.384 . S
C403 C7 1.260 . S
C407 C370 1.247 . S
C421 C40 1.251 . S
C425 C205 1.252 . S
C439 C238 1.249 . S
C443 C73 1.255 . S
C457 C271 1.254 . S
C461 C106 1.249 . S
C475 C304 1.260 . S
C479 C139 1.248 . S
C493 C337 1.254 . S
C497 C172 1.249 . S
C511 N13 1.390 . S
C515 N2 1.388 . S
C529 N35 1.387 . S
C533 N46 1.389 . S
C547 N79 1.395 . S
C551 N68 1.393 . S
C565 N112 1.398 . S
C569 N101 1.396 . S
C583 N145 1.393 . S
C587 N134 1.391 . S
C601 N167 1.386 . S
C605 N178 1.388 . S
C619 N211 1.398 . S
C623 N200 1.397 . S
C637 N233 1.394 . S
C641 N244 1.396 . S
C655 N277 1.392 . S
C659 N266 1.390 . S
C673 N299 1.387 . S
C677 N310 1.389 . S
C691 N332 1.395 . S
C695 N343 1.397 . S
C709 N376 1.394 . S
C713 N365 1.392 . S
C727 C21 1.577 . S
C731 C285 1.581 . S
C745 C54 1.579 . S
C749 C318 1.578 . S
C763 C87 1.580 . S
C767 C351 1.577 . S
C781 C384 1.578 . S
C785 C120 1.581 . S
C799 C219 1.581 . S
C803 C153 1.578 . S
C817 C252 1.579 . S
C821 C186 1.580 . S
C835 C348 1.212 . S
C839 C18 1.206 . S
C853 C381 1.214 . S
C857 C51 1.209 . S
C871 C216 1.205 . S
C875 C84 1.209 . S
C889 C117 1.211 . S
C893 C249 1.206 . S
C907 C150 1.212 . S
C911 C282 1.214 . S
C925 C183 1.214 . S
C929 C315 1.209 . S
