# Generated by pormake.
# Topology reo-e, (6)-cn, num edge types: 1
# Building blocks:
#     Node 0, Type 0, BuildingBlock: IZENUY_clean_sbu_0, # of connection points: 6
#     Node 1, Type 0, BuildingBlock: IZENUY_clean_sbu_0, # of connection points: 6
#     Node 2, Type 0, BuildingBlock: IZENUY_clean_sbu_0, # of connection points: 6
#     Node 3, Type 0, BuildingBlock: IZENUY_clean_sbu_0, # of connection points: 6
#     Node 4, Type 0, BuildingBlock: IZENUY_clean_sbu_0, # of connection points: 6
#     Node 5, Type 0, BuildingBlock: IZENUY_clean_sbu_0, # of connection points: 6
#     Node 6, Type 0, BuildingBlock: IZENUY_clean_sbu_0, # of connection points: 6
#     Node 7, Type 0, BuildingBlock: IZENUY_clean_sbu_0, # of connection points: 6
#     Node 8, Type 0, BuildingBlock: IZENUY_clean_sbu_0, # of connection points: 6
#     Node 9, Type 0, BuildingBlock: IZENUY_clean_sbu_0, # of connection points: 6
#     Node 10, Type 0, BuildingBlock: IZENUY_clean_sbu_0, # of connection points: 6
#     Node 11, Type 0, BuildingBlock: IZENUY_clean_sbu_0, # of connection points: 6
#     Edge 12, Type (0, 0), BuildingBlock: OJICUG_clean_linker_0, # of connection points: 2
#     Edge 13, Type (0, 0), BuildingBlock: OJICUG_clean_linker_0, # of connection points: 2
#     Edge 14, Type (0, 0), BuildingBlock: OJICUG_clean_linker_0, # of connection points: 2
#     Edge 15, Type (0, 0), BuildingBlock: OJICUG_clean_linker_0, # of connection points: 2
#     Edge 16, Type (0, 0), BuildingBlock: OJICUG_clean_linker_0, # of connection points: 2
#     Edge 17, Type (0, 0), BuildingBlock: OJICUG_clean_linker_0, # of connection points: 2
#     Edge 18, Type (0, 0), BuildingBlock: OJICUG_clean_linker_0, # of connection points: 2
#     Edge 19, Type (0, 0), BuildingBlock: OJICUG_clean_linker_0, # of connection points: 2
#     Edge 20, Type (0, 0), BuildingBlock: OJICUG_clean_linker_0, # of connection points: 2
#     Edge 21, Type (0, 0), BuildingBlock: OJICUG_clean_linker_0, # of connection points: 2
#     Edge 22, Type (0, 0), BuildingBlock: OJICUG_clean_linker_0, # of connection points: 2
#     Edge 23, Type (0, 0), BuildingBlock: OJICUG_clean_linker_0, # of connection points: 2
#     Edge 24, Type (0, 0), BuildingBlock: OJICUG_clean_linker_0, # of connection points: 2
#     Edge 25, Type (0, 0), BuildingBlock: OJICUG_clean_linker_0, # of connection points: 2
#     Edge 26, Type (0, 0), BuildingBlock: OJICUG_clean_linker_0, # of connection points: 2
#     Edge 27, Type (0, 0), BuildingBlock: OJICUG_clean_linker_0, # of connection points: 2
#     Edge 28, Type (0, 0), BuildingBlock: OJICUG_clean_linker_0, # of connection points: 2
#     Edge 29, Type (0, 0), BuildingBlock: OJICUG_clean_linker_0, # of connection points: 2
#     Edge 30, Type (0, 0), BuildingBlock: OJICUG_clean_linker_0, # of connection points: 2
#     Edge 31, Type (0, 0), BuildingBlock: OJICUG_clean_linker_0, # of connection points: 2
#     Edge 32, Type (0, 0), BuildingBlock: OJICUG_clean_linker_0, # of connection points: 2
#     Edge 33, Type (0, 0), BuildingBlock: OJICUG_clean_linker_0, # of connection points: 2
#     Edge 34, Type (0, 0), BuildingBlock: OJICUG_clean_linker_0, # of connection points: 2
#     Edge 35, Type (0, 0), BuildingBlock: OJICUG_clean_linker_0, # of connection points: 2
#     Edge 36, Type (0, 0), BuildingBlock: OJICUG_clean_linker_0, # of connection points: 2
#     Edge 37, Type (0, 0), BuildingBlock: OJICUG_clean_linker_0, # of connection points: 2
#     Edge 38, Type (0, 0), BuildingBlock: OJICUG_clean_linker_0, # of connection points: 2
#     Edge 39, Type (0, 0), BuildingBlock: OJICUG_clean_linker_0, # of connection points: 2
#     Edge 40, Type (0, 0), BuildingBlock: OJICUG_clean_linker_0, # of connection points: 2
#     Edge 41, Type (0, 0), BuildingBlock: OJICUG_clean_linker_0, # of connection points: 2
#     Edge 42, Type (0, 0), BuildingBlock: OJICUG_clean_linker_0, # of connection points: 2
#     Edge 43, Type (0, 0), BuildingBlock: OJICUG_clean_linker_0, # of connection points: 2
#     Edge 44, Type (0, 0), BuildingBlock: OJICUG_clean_linker_0, # of connection points: 2
#     Edge 45, Type (0, 0), BuildingBlock: OJICUG_clean_linker_0, # of connection points: 2
#     Edge 46, Type (0, 0), BuildingBlock: OJICUG_clean_linker_0, # of connection points: 2
#     Edge 47, Type (0, 0), BuildingBlock: OJICUG_clean_linker_0, # of connection points: 2
# Relax obj value: 0.074
# Max RMSD: 0.096
# Mean RMSD: 0.095
data_MOF--net-reo-e--node1-IZENUY_clean_sbu_0--edge1-OJICUG_clean_linker_0
_symmetry_space_group_name_H-M    P1
_symmetry_Int_Tables_number       1
_symmetry_cell_setting            triclinic
loop_
_symmetry_equiv_pos_as_xyz
'x, y, z'
_cell_length_a     28.163304
_cell_length_b     28.152197
_cell_length_c     28.161612
_cell_angle_alpha  89.891525
_cell_angle_beta   90.000537
_cell_angle_gamma 89.976513
loop_
_atom_site_label
_atom_site_type_symbol
_atom_site_fract_x
_atom_site_fract_y
_atom_site_fract_z
_atom_type_partial_charge
Fe0 Fe 0.20532 0.20418 0.57602 0.0
Fe1 Fe 0.27264 0.26941 0.5201 0.0
O2 O 0.22727 0.2259 0.52085 0.0
Fe3 Fe 0.20395 0.20426 0.4663 0.0
O4 O 0.14359 0.19492 0.4891 0.0
O5 O 0.14516 0.22287 0.56186 0.0
O6 O 0.21228 0.26076 0.60738 0.0
C7 C 0.21763 0.30296 0.59266 0.0
C8 C 0.21018 0.122 0.51818 0.0
O9 O 0.23626 0.31121 0.55278 0.0
C10 C 0.30271 0.21283 0.44727 0.0
O11 O 0.26383 0.18386 0.59519 0.0
O12 O 0.30171 0.24871 0.5742 0.0
O13 O 0.22125 0.14405 0.48077 0.0
O14 O 0.19466 0.14376 0.55431 0.0
C15 C 0.21241 0.29877 0.44524 0.0
O16 O 0.31226 0.2307 0.48722 0.0
O17 O 0.26008 0.20939 0.43338 0.0
C18 C 0.30029 0.20987 0.5967 0.0
O19 O 0.25216 0.29853 0.46598 0.0
O20 O 0.18509 0.26328 0.44749 0.0
C21 C 0.12228 0.21111 0.52521 0.0
Fe22 Fe 0.76686 0.2718 0.52031 0.0
Fe23 Fe 0.83263 0.20504 0.57621 0.0
O24 O 0.81132 0.22723 0.52103 0.0
Fe25 Fe 0.83422 0.20509 0.46656 0.0
O26 O 0.85385 0.26387 0.44742 0.0
O27 O 0.78748 0.30025 0.46607 0.0
O28 O 0.80429 0.31279 0.55265 0.0
C29 C 0.82213 0.30422 0.59281 0.0
C30 C 0.73542 0.21578 0.44803 0.0
O31 O 0.8265 0.26187 0.60757 0.0
C32 C 0.82709 0.12253 0.51842 0.0
O33 O 0.73756 0.25205 0.57442 0.0
O34 O 0.77358 0.18592 0.59472 0.0
O35 O 0.77796 0.21111 0.43408 0.0
O36 O 0.72632 0.23392 0.4879 0.0
C37 C 0.91593 0.21086 0.52558 0.0
O38 O 0.84242 0.14422 0.5547 0.0
O39 O 0.81628 0.14486 0.48104 0.0
C40 C 0.73764 0.21271 0.59589 0.0
O41 O 0.89318 0.22258 0.56235 0.0
O42 O 0.89451 0.19508 0.48933 0.0
C43 C 0.82706 0.2998 0.44516 0.0
Fe44 Fe 0.83504 0.83397 0.57188 0.0
Fe45 Fe 0.83346 0.83421 0.46216 0.0
O46 O 0.81259 0.81144 0.51733 0.0
Fe47 Fe 0.76914 0.76603 0.51782 0.0
O48 O 0.72781 0.80277 0.55072 0.0
O49 O 0.779 0.82712 0.60432 0.0
O50 O 0.81608 0.89394 0.55735 0.0
C51 C 0.82694 0.91647 0.52013 0.0
C52 C 0.8297 0.7392 0.59386 0.0
O53 O 0.84269 0.89498 0.48394 0.0
C54 C 0.82494 0.73518 0.44463 0.0
O55 O 0.89497 0.84481 0.54897 0.0
O56 O 0.89394 0.81716 0.47596 0.0
O57 O 0.7906 0.73757 0.57195 0.0
O58 O 0.85576 0.77562 0.59142 0.0
C59 C 0.73869 0.82547 0.44277 0.0
O60 O 0.82811 0.77767 0.4301 0.0
O61 O 0.80739 0.72604 0.48486 0.0
C62 C 0.91644 0.82896 0.51281 0.0
O63 O 0.77422 0.85274 0.44404 0.0
O64 O 0.73925 0.78589 0.46391 0.0
C65 C 0.7366 0.82156 0.59038 0.0
Fe66 Fe 0.20454 0.83506 0.46242 0.0
Fe67 Fe 0.27047 0.76828 0.5181 0.0
O68 O 0.22607 0.8127 0.51757 0.0
Fe69 Fe 0.20313 0.83476 0.5722 0.0
O70 O 0.14313 0.84501 0.54921 0.0
O71 O 0.14446 0.81685 0.47648 0.0
O72 O 0.21079 0.77881 0.43028 0.0
C73 C 0.21494 0.73642 0.44472 0.0
C74 C 0.21034 0.91696 0.52046 0.0
O75 O 0.23331 0.72752 0.48467 0.0
C76 C 0.30155 0.82437 0.59133 0.0
O77 O 0.26323 0.8548 0.44365 0.0
O78 O 0.30022 0.7892 0.46426 0.0
O79 O 0.22147 0.89469 0.55771 0.0
O80 O 0.19435 0.89542 0.48444 0.0
C81 C 0.20975 0.74014 0.59382 0.0
O82 O 0.31085 0.8058 0.5516 0.0
O83 O 0.25902 0.82871 0.60515 0.0
C84 C 0.29933 0.8283 0.44206 0.0
O85 O 0.24903 0.73908 0.57205 0.0
O86 O 0.18317 0.77618 0.59139 0.0
C87 C 0.12181 0.8287 0.5132 0.0
Fe88 Fe 0.5734 0.20422 0.20472 0.0
Fe89 Fe 0.51876 0.27243 0.26988 0.0
O90 O 0.51872 0.22669 0.22689 0.0
Fe91 Fe 0.46383 0.20354 0.20601 0.0
O92 O 0.48628 0.14312 0.19659 0.0
O93 O 0.55916 0.1444 0.22432 0.0
O94 O 0.60574 0.21164 0.2607 0.0
C95 C 0.59175 0.21753 0.30303 0.0
C96 C 0.51458 0.20912 0.1232 0.0
O97 O 0.552 0.23631 0.31162 0.0
C98 C 0.44547 0.30217 0.21344 0.0
O99 O 0.59256 0.2624 0.18344 0.0
O100 O 0.57264 0.30112 0.24807 0.0
O101 O 0.47763 0.22083 0.1456 0.0
O102 O 0.55061 0.19294 0.14478 0.0
C103 C 0.44401 0.21257 0.30068 0.0
O104 O 0.48549 0.31183 0.23111 0.0
O105 O 0.43119 0.25963 0.21125 0.0
C106 C 0.59459 0.29914 0.20898 0.0
O107 O 0.46496 0.25225 0.29992 0.0
O108 O 0.44577 0.18498 0.26537 0.0
C109 C 0.52238 0.12167 0.21267 0.0
Fe110 Fe 0.83379 0.46283 0.20323 0.0
Fe111 Fe 0.76649 0.51667 0.27004 0.0
O112 O 0.81142 0.51734 0.22615 0.0
Fe113 Fe 0.83411 0.57253 0.2053 0.0
O114 O 0.81643 0.55913 0.14496 0.0
O115 O 0.84446 0.48623 0.14338 0.0
O116 O 0.77539 0.44383 0.1826 0.0
C117 C 0.739 0.44161 0.2087 0.0
C118 C 0.91614 0.51417 0.21113 0.0
O119 O 0.73764 0.46298 0.24812 0.0
C120 C 0.82613 0.59186 0.30023 0.0
O121 O 0.82727 0.42962 0.25893 0.0
O122 O 0.80365 0.48299 0.31061 0.0
O123 O 0.89457 0.55036 0.1953 0.0
O124 O 0.89364 0.47707 0.22227 0.0
C125 C 0.7354 0.59074 0.21487 0.0
O126 O 0.78687 0.57017 0.3003 0.0
O127 O 0.85316 0.59047 0.26447 0.0
C128 C 0.82271 0.44346 0.30141 0.0
O129 O 0.72613 0.55054 0.23261 0.0
O130 O 0.7779 0.60489 0.21128 0.0
C131 C 0.82828 0.52249 0.12217 0.0
Fe132 Fe 0.57442 0.83254 0.20309 0.0
Fe133 Fe 0.46475 0.83396 0.20397 0.0
O134 O 0.5195 0.81163 0.22625 0.0
Fe135 Fe 0.51947 0.76833 0.27192 0.0
O136 O 0.55244 0.80698 0.31141 0.0
O137 O 0.60687 0.82725 0.25935 0.0
O138 O 0.56068 0.89312 0.22011 0.0
C139 C 0.52366 0.91568 0.20875 0.0
C140 C 0.5943 0.73769 0.21243 0.0
O141 O 0.4874 0.89418 0.19302 0.0
C142 C 0.44669 0.7353 0.21705 0.0
O143 O 0.55206 0.84198 0.14256 0.0
O144 O 0.47889 0.81498 0.14395 0.0
O145 O 0.5734 0.73856 0.25208 0.0
O146 O 0.5926 0.77306 0.18474 0.0
C147 C 0.44354 0.8287 0.2989 0.0
O148 O 0.4326 0.77767 0.21114 0.0
O149 O 0.48653 0.72672 0.23563 0.0
C150 C 0.51574 0.82638 0.12116 0.0
O151 O 0.44557 0.85468 0.26236 0.0
O152 O 0.46546 0.7896 0.30049 0.0
C153 C 0.59252 0.82461 0.30188 0.0
Fe154 Fe 0.20404 0.57273 0.20612 0.0
Fe155 Fe 0.27042 0.51684 0.27228 0.0
O156 O 0.22635 0.51761 0.22743 0.0
Fe157 Fe 0.20466 0.4631 0.20406 0.0
O158 O 0.19466 0.48631 0.14389 0.0
O159 O 0.22227 0.55928 0.14569 0.0
O160 O 0.26041 0.60459 0.21286 0.0
C161 C 0.3028 0.59036 0.21774 0.0
C162 C 0.12201 0.51421 0.21105 0.0
O163 O 0.31161 0.5502 0.23565 0.0
C164 C 0.21408 0.44373 0.30256 0.0
O165 O 0.18433 0.59104 0.2651 0.0
O166 O 0.24994 0.57046 0.30194 0.0
O167 O 0.14446 0.47703 0.22213 0.0
O168 O 0.14362 0.55058 0.19563 0.0
C169 C 0.29949 0.4429 0.21128 0.0
O170 O 0.23227 0.48355 0.31208 0.0
O171 O 0.21051 0.42986 0.25996 0.0
C172 C 0.21087 0.59238 0.30126 0.0
O173 O 0.29946 0.46311 0.25122 0.0
O174 O 0.26359 0.4448 0.18447 0.0
C175 C 0.21063 0.52267 0.12268 0.0
Fe176 Fe 0.57358 0.83471 0.83301 0.0
Fe177 Fe 0.46407 0.8355 0.83166 0.0
O178 O 0.51895 0.81286 0.81032 0.0
Fe179 Fe 0.51917 0.76809 0.76625 0.0
O180 O 0.57316 0.73926 0.78712 0.0
O181 O 0.59215 0.77599 0.85314 0.0
O182 O 0.55092 0.84512 0.89331 0.0
C183 C 0.51477 0.8291 0.91481 0.0
C184 C 0.59193 0.82341 0.73432 0.0
O185 O 0.47789 0.81759 0.89213 0.0
C186 C 0.44391 0.82773 0.73676 0.0
O187 O 0.55955 0.89486 0.81449 0.0
O188 O 0.48638 0.89587 0.84168 0.0
O189 O 0.55194 0.80542 0.72535 0.0
O190 O 0.60597 0.82813 0.77681 0.0
C191 C 0.44653 0.7368 0.82209 0.0
O192 O 0.44562 0.8548 0.77249 0.0
O193 O 0.46518 0.78827 0.73685 0.0
C194 C 0.52263 0.91743 0.82604 0.0
O195 O 0.43206 0.77923 0.82558 0.0
O196 O 0.4865 0.72767 0.80415 0.0
C197 C 0.59402 0.73985 0.82675 0.0
Fe198 Fe 0.20363 0.5757 0.83371 0.0
Fe199 Fe 0.27015 0.52165 0.76642 0.0
O200 O 0.22622 0.52115 0.81138 0.0
Fe201 Fe 0.20518 0.46607 0.83392 0.0
O202 O 0.1447 0.47991 0.81646 0.0
O203 O 0.14351 0.5529 0.8442 0.0
O204 O 0.18332 0.59509 0.77514 0.0
C205 C 0.20976 0.59747 0.73898 0.0
C206 C 0.211 0.52406 0.91628 0.0
O207 O 0.24918 0.57606 0.73805 0.0
C208 C 0.29999 0.44598 0.82552 0.0
O209 O 0.25979 0.60798 0.82719 0.0
O210 O 0.31102 0.55396 0.8039 0.0
O211 O 0.19534 0.48792 0.89459 0.0
O212 O 0.2223 0.56117 0.89379 0.0
C213 C 0.2149 0.44885 0.7349 0.0
O214 O 0.2997 0.46745 0.78613 0.0
O215 O 0.26441 0.44765 0.85281 0.0
C216 C 0.30217 0.59362 0.82258 0.0
O217 O 0.23228 0.48914 0.72588 0.0
O218 O 0.21115 0.43437 0.77737 0.0
C219 C 0.12207 0.51673 0.82826 0.0
Fe220 Fe 0.51905 0.27173 0.76871 0.0
Fe221 Fe 0.46457 0.20482 0.83544 0.0
O222 O 0.5193 0.22761 0.81348 0.0
Fe223 Fe 0.57429 0.20618 0.83618 0.0
O224 O 0.593 0.26517 0.85559 0.0
O225 O 0.57287 0.30147 0.78944 0.0
O226 O 0.48547 0.31245 0.80576 0.0
C227 C 0.4456 0.30333 0.82417 0.0
C228 C 0.59241 0.21584 0.73769 0.0
O229 O 0.43174 0.26081 0.82895 0.0
C230 C 0.52349 0.12328 0.82966 0.0
O231 O 0.46523 0.2503 0.73956 0.0
O232 O 0.4457 0.18459 0.77693 0.0
O233 O 0.60672 0.21226 0.78012 0.0
O234 O 0.55252 0.23413 0.72845 0.0
C235 C 0.51567 0.21186 0.91785 0.0
O236 O 0.48745 0.14466 0.84599 0.0
O237 O 0.56036 0.14595 0.81813 0.0
C238 C 0.44361 0.21095 0.74069 0.0
O239 O 0.47875 0.22345 0.89531 0.0
O240 O 0.55181 0.19595 0.8964 0.0
C241 C 0.59493 0.30102 0.82857 0.0
Fe242 Fe 0.83323 0.46664 0.83463 0.0
Fe243 Fe 0.76697 0.52266 0.76858 0.0
O244 O 0.81174 0.52184 0.81259 0.0
Fe245 Fe 0.83491 0.57631 0.83464 0.0
O246 O 0.89497 0.55315 0.84466 0.0
O247 O 0.89338 0.48058 0.81608 0.0
O248 O 0.82633 0.43497 0.7783 0.0
C249 C 0.82157 0.44939 0.73596 0.0
C250 C 0.82806 0.52449 0.91676 0.0
O251 O 0.80363 0.48954 0.72725 0.0
C252 C 0.73654 0.5954 0.82525 0.0
O253 O 0.77446 0.44783 0.85464 0.0
O254 O 0.73733 0.46864 0.78923 0.0
O255 O 0.8166 0.56172 0.89459 0.0
O256 O 0.84399 0.48856 0.89495 0.0
C257 C 0.82795 0.59784 0.74009 0.0
O258 O 0.7271 0.5557 0.80681 0.0
O259 O 0.77908 0.60942 0.82882 0.0
C260 C 0.73833 0.44608 0.82811 0.0
O261 O 0.78826 0.57679 0.7396 0.0
O262 O 0.85473 0.59538 0.77597 0.0
C263 C 0.91622 0.51717 0.8281 0.0
C264 C 0.18208 0.33002 0.36756 0.0
C265 C 0.20291 0.33822 0.41206 0.0
H266 H 0.16944 0.35725 0.29756 0.0
C267 C 0.22143 0.3834 0.42218 0.0
H268 H 0.16775 0.29542 0.35883 0.0
C269 C 0.22216 0.4188 0.38748 0.0
C270 C 0.20506 0.40951 0.34158 0.0
H271 H 0.2374 0.39069 0.45642 0.0
H272 H 0.23864 0.4525 0.39595 0.0
C273 C 0.18342 0.36533 0.33245 0.0
C274 C 0.61492 0.22405 0.38889 0.0
C275 C 0.62583 0.20976 0.34233 0.0
H276 H 0.64089 0.23673 0.45915 0.0
C277 C 0.67138 0.19171 0.33273 0.0
H278 H 0.58004 0.2377 0.39764 0.0
C279 C 0.70622 0.19116 0.36793 0.0
C280 C 0.69635 0.2086 0.4136 0.0
H281 H 0.68084 0.17978 0.29743 0.0
H282 H 0.74149 0.17888 0.35869 0.0
C283 C 0.64984 0.22345 0.4242 0.0
C284 C 0.81559 0.65026 0.41998 0.0
C285 C 0.8336 0.69588 0.41069 0.0
H286 H 0.79953 0.5815 0.39206 0.0
C287 C 0.85573 0.70457 0.36664 0.0
H288 H 0.79861 0.64215 0.45354 0.0
C289 C 0.85686 0.66938 0.33152 0.0
C290 C 0.83529 0.62517 0.33967 0.0
H291 H 0.87038 0.73922 0.35853 0.0
H292 H 0.87176 0.67786 0.29707 0.0
C293 C 0.8161 0.61547 0.38473 0.0
C294 C 0.3318 0.86342 0.36604 0.0
C295 C 0.33887 0.83846 0.40885 0.0
H296 H 0.3599 0.88028 0.29692 0.0
C297 C 0.38329 0.81752 0.41744 0.0
H298 H 0.29789 0.87994 0.35848 0.0
C299 C 0.41843 0.81788 0.38268 0.0
C300 C 0.41015 0.83905 0.33822 0.0
H301 H 0.39015 0.79873 0.45036 0.0
H302 H 0.45139 0.79929 0.3898 0.0
C303 C 0.36728 0.86367 0.33085 0.0
C304 C 0.22069 0.65648 0.61965 0.0
C305 C 0.19957 0.70094 0.62755 0.0
H306 H 0.23928 0.58881 0.64832 0.0
C307 C 0.17466 0.70845 0.67026 0.0
H308 H 0.23948 0.64927 0.58686 0.0
C309 C 0.17459 0.67339 0.70597 0.0
C310 C 0.19939 0.63051 0.69924 0.0
H311 H 0.15805 0.74242 0.67732 0.0
H312 H 0.15798 0.6811 0.73977 0.0
C313 C 0.22056 0.62178 0.65494 0.0
C314 C 0.38407 0.22093 0.62166 0.0
C315 C 0.33969 0.19981 0.63013 0.0
H316 H 0.45178 0.24004 0.64971 0.0
C317 C 0.33246 0.17526 0.67312 0.0
H318 H 0.39108 0.23944 0.58862 0.0
C319 C 0.3677 0.17556 0.70853 0.0
C320 C 0.41044 0.20046 0.70125 0.0
H321 H 0.29858 0.15865 0.68061 0.0
H322 H 0.36023 0.15916 0.74253 0.0
C323 C 0.41891 0.22128 0.65672 0.0
C324 C 0.81401 0.42548 0.65037 0.0
C325 C 0.82924 0.4152 0.69681 0.0
H326 H 0.80016 0.39851 0.58071 0.0
C327 C 0.8479 0.36991 0.70668 0.0
H328 H 0.79982 0.46013 0.64145 0.0
C329 C 0.84805 0.33464 0.67197 0.0
C330 C 0.82961 0.34382 0.62652 0.0
H331 H 0.8606 0.36095 0.74189 0.0
H332 H 0.86082 0.29959 0.68147 0.0
C333 C 0.81422 0.39011 0.61553 0.0
C334 C 0.70715 0.84741 0.67 0.0
C335 C 0.69739 0.82945 0.62449 0.0
H336 H 0.68139 0.86014 0.74016 0.0
C337 C 0.65077 0.81524 0.61369 0.0
H338 H 0.74251 0.85927 0.67938 0.0
C339 C 0.61555 0.8158 0.6487 0.0
C340 C 0.62631 0.83054 0.69517 0.0
H341 H 0.6419 0.80166 0.57884 0.0
H342 H 0.58055 0.80258 0.63984 0.0
C343 C 0.67203 0.84793 0.70493 0.0
C344 C 0.36719 0.18123 0.33325 0.0
C345 C 0.41125 0.2033 0.3406 0.0
H346 H 0.29791 0.16705 0.36146 0.0
C347 C 0.42139 0.22272 0.38541 0.0
H348 H 0.35841 0.16614 0.299 0.0
C349 C 0.38713 0.22291 0.42123 0.0
C350 C 0.34161 0.20438 0.41277 0.0
H351 H 0.45528 0.23966 0.39212 0.0
H352 H 0.39556 0.24007 0.45458 0.0
C353 C 0.33251 0.18207 0.36894 0.0
C354 C 0.8167 0.41939 0.38679 0.0
C355 C 0.83256 0.40958 0.34056 0.0
H356 H 0.8033 0.39202 0.45638 0.0
C357 C 0.85409 0.36531 0.3314 0.0
H358 H 0.80044 0.45319 0.39532 0.0
C359 C 0.85632 0.33034 0.3668 0.0
C360 C 0.83663 0.339 0.41169 0.0
H361 H 0.86722 0.35684 0.29627 0.0
H362 H 0.87032 0.2956 0.35802 0.0
C363 C 0.81845 0.38437 0.42184 0.0
C364 C 0.61812 0.81527 0.38641 0.0
C365 C 0.6267 0.83355 0.34078 0.0
H366 H 0.64722 0.79878 0.45462 0.0
C367 C 0.67046 0.85597 0.33153 0.0
H368 H 0.58475 0.79811 0.39491 0.0
C369 C 0.70613 0.85693 0.36614 0.0
C370 C 0.69875 0.8349 0.41025 0.0
H371 H 0.67795 0.87087 0.29684 0.0
H372 H 0.7404 0.87198 0.35725 0.0
C373 C 0.65391 0.81561 0.42063 0.0
C374 C 0.18333 0.70594 0.36698 0.0
C375 C 0.20543 0.69705 0.41105 0.0
H376 H 0.16665 0.67919 0.29756 0.0
C377 C 0.2222 0.65106 0.4207 0.0
H378 H 0.16952 0.74088 0.35861 0.0
C379 C 0.22062 0.616 0.38573 0.0
C380 C 0.20171 0.62588 0.34056 0.0
H381 H 0.23899 0.64275 0.45431 0.0
H382 H 0.23636 0.58168 0.39331 0.0
C383 C 0.18126 0.67055 0.3321 0.0
C384 C 0.38651 0.81654 0.61661 0.0
C385 C 0.34055 0.83369 0.62553 0.0
H386 H 0.4554 0.80186 0.64504 0.0
C387 C 0.33128 0.85589 0.66943 0.0
H388 H 0.3951 0.79964 0.58317 0.0
C389 C 0.36625 0.85774 0.70481 0.0
C390 C 0.41084 0.83693 0.69704 0.0
H391 H 0.29636 0.86996 0.67726 0.0
H392 H 0.35732 0.87247 0.73918 0.0
C393 C 0.42112 0.81786 0.65208 0.0
C394 C 0.22438 0.38905 0.61497 0.0
C395 C 0.20945 0.34266 0.62607 0.0
H396 H 0.23744 0.45939 0.6406 0.0
C397 C 0.19038 0.33358 0.6713 0.0
H398 H 0.23883 0.39738 0.58029 0.0
C399 C 0.18955 0.36905 0.70577 0.0
C400 C 0.20775 0.41447 0.69585 0.0
H401 H 0.17788 0.29845 0.68085 0.0
H402 H 0.1765 0.36018 0.74087 0.0
C403 C 0.22353 0.42464 0.64955 0.0
C404 C 0.67016 0.1839 0.70798 0.0
C405 C 0.62635 0.20629 0.69867 0.0
H406 H 0.73994 0.16736 0.68209 0.0
C407 C 0.6174 0.2236 0.65276 0.0
H408 H 0.67793 0.16964 0.74288 0.0
C409 C 0.65291 0.22241 0.61825 0.0
C410 C 0.69787 0.20333 0.62867 0.0
H411 H 0.58397 0.24063 0.64418 0.0
H412 H 0.64595 0.23858 0.584 0.0
C413 C 0.70559 0.18219 0.67313 0.0
C414 C 0.81801 0.62144 0.65575 0.0
C415 C 0.83861 0.63053 0.70019 0.0
H416 H 0.80032 0.64827 0.58712 0.0
C417 C 0.86359 0.67332 0.70682 0.0
H418 H 0.7992 0.5885 0.64926 0.0
C419 C 0.86417 0.70806 0.6708 0.0
C420 C 0.83986 0.70023 0.62785 0.0
H421 H 0.87982 0.68124 0.74075 0.0
H422 H 0.88075 0.74204 0.6778 0.0
C423 C 0.81869 0.65574 0.62009 0.0
C424 C 0.42029 0.38711 0.22014 0.0
C425 C 0.41129 0.34096 0.20363 0.0
H426 H 0.39151 0.45581 0.23491 0.0
C427 C 0.36718 0.33121 0.1821 0.0
H428 H 0.45393 0.39602 0.2365 0.0
C429 C 0.33152 0.36586 0.18059 0.0
C430 C 0.33933 0.41053 0.20111 0.0
H431 H 0.35937 0.29611 0.16849 0.0
H432 H 0.29694 0.35658 0.16658 0.0
C433 C 0.38454 0.4214 0.2192 0.0
C434 C 0.33186 0.673 0.84836 0.0
C435 C 0.34146 0.62738 0.83067 0.0
H436 H 0.35778 0.74322 0.86012 0.0
C437 C 0.38802 0.6162 0.81649 0.0
H438 H 0.29656 0.68258 0.86028 0.0
C439 C 0.42325 0.65109 0.81639 0.0
C440 C 0.41252 0.69776 0.83046 0.0
H441 H 0.39674 0.58118 0.8032 0.0
H442 H 0.45815 0.64204 0.80299 0.0
C443 C 0.36701 0.70781 0.84827 0.0
C444 C 0.3845 0.42263 0.81481 0.0
C445 C 0.3397 0.41281 0.83456 0.0
H446 H 0.45334 0.39624 0.79678 0.0
C447 C 0.33211 0.36867 0.8565 0.0
H448 H 0.39142 0.45656 0.79794 0.0
C449 C 0.36753 0.33367 0.85528 0.0
C450 C 0.4113 0.34247 0.83262 0.0
H451 H 0.29788 0.36009 0.87182 0.0
H452 H 0.35985 0.29908 0.87032 0.0
C453 C 0.42002 0.38802 0.81415 0.0
C454 C 0.65501 0.4198 0.81529 0.0
C455 C 0.69893 0.41232 0.83773 0.0
H456 H 0.58772 0.39099 0.79582 0.0
C457 C 0.70574 0.37006 0.86373 0.0
H458 H 0.64824 0.45221 0.79559 0.0
C459 C 0.67057 0.3345 0.86387 0.0
C460 C 0.62823 0.3408 0.83801 0.0
H461 H 0.73922 0.36326 0.8814 0.0
H462 H 0.67777 0.3011 0.88163 0.0
C463 C 0.62023 0.38462 0.81542 0.0
C464 C 0.6514 0.61976 0.81843 0.0
C465 C 0.69753 0.62942 0.83468 0.0
H466 H 0.58224 0.64751 0.80379 0.0
C467 C 0.70686 0.67381 0.85577 0.0
H468 H 0.64276 0.58587 0.80246 0.0
C469 C 0.67176 0.70904 0.85713 0.0
C470 C 0.62705 0.70051 0.83694 0.0
H471 H 0.74193 0.68215 0.86917 0.0
H472 H 0.68068 0.74384 0.87083 0.0
C473 C 0.61667 0.65506 0.81925 0.0
C474 C 0.61669 0.65291 0.22366 0.0
C475 C 0.62691 0.69751 0.20351 0.0
H476 H 0.64248 0.58389 0.24231 0.0
C477 C 0.67099 0.70447 0.18138 0.0
H478 H 0.58278 0.64648 0.24069 0.0
C479 C 0.70559 0.66869 0.18286 0.0
C480 C 0.69645 0.62516 0.20597 0.0
H481 H 0.67986 0.73852 0.16575 0.0
H482 H 0.74019 0.67591 0.1677 0.0
C483 C 0.65091 0.617 0.22457 0.0
C484 C 0.4234 0.64951 0.22523 0.0
C485 C 0.41259 0.69589 0.20995 0.0
H486 H 0.39729 0.57948 0.23939 0.0
C487 C 0.36708 0.70527 0.19174 0.0
H488 H 0.45825 0.64094 0.23909 0.0
C489 C 0.33221 0.67009 0.1919 0.0
C490 C 0.34198 0.62466 0.21027 0.0
H491 H 0.35768 0.7404 0.17909 0.0
H492 H 0.29699 0.6792 0.17935 0.0
C493 C 0.38843 0.61423 0.22539 0.0
C494 C 0.61949 0.38318 0.21777 0.0
C495 C 0.62808 0.33823 0.19803 0.0
H496 H 0.64761 0.45123 0.23554 0.0
C497 C 0.67132 0.33021 0.17427 0.0
H498 H 0.58627 0.39074 0.23565 0.0
C499 C 0.70689 0.36531 0.17418 0.0
C500 C 0.69948 0.40867 0.19786 0.0
H501 H 0.6789 0.29586 0.15876 0.0
H502 H 0.74112 0.35724 0.15862 0.0
C503 C 0.65468 0.41789 0.2177 0.0
C504 C 0.21205 0.99424 0.4767 0.0
C505 C 0.21199 0.96938 0.52003 0.0
H506 H 0.21212 0.06198 0.44209 0.0
C507 C 0.21256 0.99511 0.56272 0.0
H508 H 0.21194 0.97535 0.44321 0.0
C509 C 0.21203 0.04472 0.56207 0.0
C510 C 0.21174 0.06957 0.51873 0.0
H511 H 0.21249 0.97694 0.59666 0.0
H512 H 0.21195 0.06362 0.59554 0.0
C513 C 0.21233 0.04383 0.47604 0.0
C514 C 0.04405 0.227 0.56593 0.0
C515 C 0.06948 0.21246 0.52544 0.0
H516 H 0.97581 0.23798 0.59788 0.0
C517 C 0.04386 0.19842 0.48496 0.0
H518 H 0.06258 0.23817 0.5977 0.0
C519 C 0.99425 0.19829 0.48507 0.0
C520 C 0.96873 0.21221 0.52566 0.0
H521 H 0.06211 0.18718 0.45304 0.0
H522 H 0.97594 0.18698 0.45322 0.0
C523 C 0.99425 0.22687 0.56603 0.0
C524 C 0.82474 0.04404 0.47612 0.0
C525 C 0.82536 0.06982 0.51882 0.0
H526 H 0.82519 0.97556 0.44308 0.0
C527 C 0.82511 0.04468 0.56205 0.0
H528 H 0.82494 0.06227 0.44221 0.0
C529 C 0.82457 0.99494 0.56256 0.0
C530 C 0.82513 0.96917 0.51985 0.0
H531 H 0.82527 0.06346 0.59559 0.0
H532 H 0.82468 0.97669 0.59646 0.0
C533 C 0.82505 0.99432 0.47663 0.0
C534 C 0.04402 0.81281 0.47254 0.0
C535 C 0.06928 0.82748 0.51302 0.0
H536 H 0.97593 0.80172 0.44061 0.0
C537 C 0.04381 0.84165 0.5535 0.0
H538 H 0.06256 0.80152 0.4408 0.0
C539 C 0.99431 0.84178 0.55339 0.0
C540 C 0.96897 0.82774 0.51278 0.0
H541 H 0.06207 0.85296 0.58539 0.0
H542 H 0.97596 0.85316 0.5852 0.0
C543 C 0.99436 0.81294 0.47243 0.0
C544 C 0.55585 0.19803 0.99584 0.0
C545 C 0.51543 0.21258 0.97039 0.0
H546 H 0.58728 0.18555 0.0637 0.0
C547 C 0.47483 0.22691 0.99567 0.0
H548 H 0.58781 0.18694 0.97756 0.0
C549 C 0.47452 0.22608 0.04532 0.0
C550 C 0.51479 0.21089 0.07068 0.0
H551 H 0.44314 0.23845 0.97717 0.0
H552 H 0.44262 0.23709 0.06375 0.0
C553 C 0.55553 0.19719 0.04534 0.0
C554 C 0.81214 0.5642 0.99497 0.0
C555 C 0.82684 0.52399 0.9693 0.0
H556 H 0.80097 0.59536 0.06336 0.0
C557 C 0.84099 0.48315 0.99437 0.0
H558 H 0.80085 0.59619 0.97676 0.0
C559 C 0.84107 0.48268 0.04389 0.0
C560 C 0.827 0.52303 0.06963 0.0
H561 H 0.85232 0.45146 0.97579 0.0
H562 H 0.85245 0.45063 0.06195 0.0
C563 C 0.81221 0.56372 0.04463 0.0
C564 C 0.55592 0.83976 0.04274 0.0
C565 C 0.51543 0.82555 0.06834 0.0
H566 H 0.58749 0.85198 0.97481 0.0
C567 C 0.47478 0.81155 0.04289 0.0
H568 H 0.58795 0.85063 0.06101 0.0
C569 C 0.47451 0.81235 0.9931 0.0
C570 C 0.51487 0.8272 0.9676 0.0
H571 H 0.44299 0.8003 0.06139 0.0
H572 H 0.44253 0.80162 0.97465 0.0
C573 C 0.55564 0.84057 0.99313 0.0
C574 C 0.19843 0.48299 0.99445 0.0
C575 C 0.21229 0.52379 0.9691 0.0
H576 H 0.18713 0.45061 0.0622 0.0
C577 C 0.22666 0.56414 0.99481 0.0
H578 H 0.18732 0.45116 0.97599 0.0
C579 C 0.22654 0.56383 0.04461 0.0
C580 C 0.21205 0.52315 0.06987 0.0
H581 H 0.23769 0.59616 0.9765 0.0
H582 H 0.23751 0.5956 0.06326 0.0
C583 C 0.19831 0.48268 0.04408 0.0
C584 C 0.04383 0.55499 0.19879 0.0
C585 C 0.06934 0.51425 0.21241 0.0
H586 H 0.9759 0.58698 0.18783 0.0
C587 C 0.04396 0.47365 0.22677 0.0
H588 H 0.06213 0.58699 0.18773 0.0
C589 C 0.99425 0.47364 0.22684 0.0
C590 C 0.96881 0.51424 0.21255 0.0
H591 H 0.06244 0.44169 0.23766 0.0
H592 H 0.97582 0.44168 0.23776 0.0
C593 C 0.99425 0.55499 0.19886 0.0
C594 C 0.99443 0.55736 0.841 0.0
C595 C 0.96888 0.51691 0.8268 0.0
H596 H 0.06231 0.58906 0.85251 0.0
C597 C 0.99422 0.47645 0.81207 0.0
H598 H 0.97618 0.58926 0.85236 0.0
C599 C 0.04395 0.47634 0.81217 0.0
C600 C 0.0694 0.51668 0.82699 0.0
H601 H 0.97568 0.44472 0.80077 0.0
H602 H 0.0624 0.44452 0.80091 0.0
C603 C 0.04398 0.55725 0.84109 0.0
C604 C 0.48264 0.04508 0.84098 0.0
C605 C 0.52337 0.07064 0.82756 0.0
H606 H 0.45039 0.97714 0.85084 0.0
C607 C 0.56371 0.04534 0.81243 0.0
H608 H 0.45082 0.06332 0.85257 0.0
C609 C 0.56346 0.99562 0.81141 0.0
C610 C 0.52286 0.97012 0.82547 0.0
H611 H 0.59564 0.06389 0.80165 0.0
H612 H 0.59522 0.97721 0.79994 0.0
C613 C 0.48238 0.99551 0.83994 0.0
C614 C 0.56376 0.99371 0.22597 0.0
C615 C 0.52346 0.96837 0.21082 0.0
H616 H 0.59513 0.06187 0.23864 0.0
C617 C 0.48266 0.99392 0.19755 0.0
H618 H 0.59574 0.97518 0.23666 0.0
C619 C 0.48229 0.0435 0.19876 0.0
C620 C 0.52272 0.06894 0.21327 0.0
H621 H 0.45086 0.97567 0.18595 0.0
H622 H 0.45025 0.06186 0.18795 0.0
C623 C 0.5634 0.04345 0.22718 0.0
loop_
_geom_bond_atom_site_label_1
_geom_bond_atom_site_label_2
_geom_bond_distance
_geom_bond_site_symmetry_2
_ccdc_geom_bond_type
Fe0 O2 1.918 . S
Fe0 O5 1.997 . S
Fe0 O6 2.002 . S
Fe0 O11 1.976 . S
Fe0 O14 1.996 . S
Fe1 O2 1.918 . S
Fe1 O9 1.997 . S
Fe1 O12 1.996 . S
Fe1 O16 1.976 . S
Fe1 O19 2.002 . S
O2 Fe0 1.918 . S
O2 Fe1 1.918 . S
O2 Fe3 1.918 . S
Fe3 O2 1.918 . S
Fe3 O4 2.002 . S
Fe3 O13 1.976 . S
Fe3 O17 1.996 . S
Fe3 O20 1.997 . S
O4 Fe3 2.002 . S
O4 C21 1.295 . S
O5 Fe0 1.997 . S
O5 C21 1.235 . S
O6 Fe0 2.002 . S
O6 C7 1.295 . S
C7 O6 1.295 . S
C7 O9 1.235 . S
C8 O13 1.287 . S
C8 O14 1.255 . S
O9 Fe1 1.997 . S
O9 C7 1.235 . S
C10 O16 1.287 . S
C10 O17 1.255 . S
O11 Fe0 1.976 . S
O11 C18 1.287 . S
O12 Fe1 1.996 . S
O12 C18 1.255 . S
O13 Fe3 1.976 . S
O13 C8 1.287 . S
O14 Fe0 1.996 . S
O14 C8 1.255 . S
C15 O19 1.295 . S
C15 O20 1.235 . S
O16 Fe1 1.976 . S
O16 C10 1.287 . S
O17 Fe3 1.996 . S
O17 C10 1.255 . S
C18 O11 1.287 . S
C18 O12 1.255 . S
O19 Fe1 2.002 . S
O19 C15 1.295 . S
O20 Fe3 1.997 . S
O20 C15 1.235 . S
C21 O4 1.295 . S
C21 O5 1.235 . S
Fe22 O24 1.918 . S
Fe22 O27 1.997 . S
Fe22 O28 2.002 . S
Fe22 O33 1.976 . S
Fe22 O36 1.996 . S
Fe23 O24 1.918 . S
Fe23 O31 1.997 . S
Fe23 O34 1.996 . S
Fe23 O38 1.976 . S
Fe23 O41 2.002 . S
O24 Fe22 1.918 . S
O24 Fe23 1.918 . S
O24 Fe25 1.918 . S
Fe25 O24 1.918 . S
Fe25 O26 2.002 . S
Fe25 O35 1.976 . S
Fe25 O39 1.996 . S
Fe25 O42 1.997 . S
O26 Fe25 2.002 . S
O26 C43 1.295 . S
O27 Fe22 1.997 . S
O27 C43 1.235 . S
O28 Fe22 2.002 . S
O28 C29 1.295 . S
C29 O28 1.295 . S
C29 O31 1.235 . S
C30 O35 1.287 . S
C30 O36 1.255 . S
O31 Fe23 1.997 . S
O31 C29 1.235 . S
C32 O38 1.287 . S
C32 O39 1.255 . S
O33 Fe22 1.976 . S
O33 C40 1.287 . S
O34 Fe23 1.996 . S
O34 C40 1.255 . S
O35 Fe25 1.976 . S
O35 C30 1.287 . S
O36 Fe22 1.996 . S
O36 C30 1.255 . S
C37 O41 1.295 . S
C37 O42 1.235 . S
O38 Fe23 1.976 . S
O38 C32 1.287 . S
O39 Fe25 1.996 . S
O39 C32 1.255 . S
C40 O33 1.287 . S
C40 O34 1.255 . S
O41 Fe23 2.002 . S
O41 C37 1.295 . S
O42 Fe25 1.997 . S
O42 C37 1.235 . S
C43 O26 1.295 . S
C43 O27 1.235 . S
Fe44 O46 1.918 . S
Fe44 O49 1.997 . S
Fe44 O50 2.002 . S
Fe44 O55 1.976 . S
Fe44 O58 1.996 . S
Fe45 O46 1.918 . S
Fe45 O53 1.997 . S
Fe45 O56 1.996 . S
Fe45 O60 1.976 . S
Fe45 O63 2.002 . S
O46 Fe44 1.918 . S
O46 Fe45 1.918 . S
O46 Fe47 1.918 . S
Fe47 O46 1.918 . S
Fe47 O48 2.002 . S
Fe47 O57 1.976 . S
Fe47 O61 1.996 . S
Fe47 O64 1.997 . S
O48 Fe47 2.002 . S
O48 C65 1.295 . S
O49 Fe44 1.997 . S
O49 C65 1.235 . S
O50 Fe44 2.002 . S
O50 C51 1.295 . S
C51 O50 1.295 . S
C51 O53 1.235 . S
C52 O57 1.287 . S
C52 O58 1.255 . S
O53 Fe45 1.997 . S
O53 C51 1.235 . S
C54 O60 1.287 . S
C54 O61 1.255 . S
O55 Fe44 1.976 . S
O55 C62 1.287 . S
O56 Fe45 1.996 . S
O56 C62 1.255 . S
O57 Fe47 1.976 . S
O57 C52 1.287 . S
O58 Fe44 1.996 . S
O58 C52 1.255 . S
C59 O63 1.295 . S
C59 O64 1.235 . S
O60 Fe45 1.976 . S
O60 C54 1.287 . S
O61 Fe47 1.996 . S
O61 C54 1.255 . S
C62 O55 1.287 . S
C62 O56 1.255 . S
O63 Fe45 2.002 . S
O63 C59 1.295 . S
O64 Fe47 1.997 . S
O64 C59 1.235 . S
C65 O48 1.295 . S
C65 O49 1.235 . S
Fe66 O68 1.918 . S
Fe66 O71 1.997 . S
Fe66 O72 2.002 . S
Fe66 O77 1.976 . S
Fe66 O80 1.996 . S
Fe67 O68 1.918 . S
Fe67 O75 1.997 . S
Fe67 O78 1.996 . S
Fe67 O82 1.976 . S
Fe67 O85 2.002 . S
O68 Fe66 1.918 . S
O68 Fe67 1.918 . S
O68 Fe69 1.918 . S
Fe69 O68 1.918 . S
Fe69 O70 2.002 . S
Fe69 O79 1.976 . S
Fe69 O83 1.996 . S
Fe69 O86 1.997 . S
O70 Fe69 2.002 . S
O70 C87 1.295 . S
O71 Fe66 1.997 . S
O71 C87 1.235 . S
O72 Fe66 2.002 . S
O72 C73 1.295 . S
C73 O72 1.295 . S
C73 O75 1.235 . S
C74 O79 1.287 . S
C74 O80 1.255 . S
O75 Fe67 1.997 . S
O75 C73 1.235 . S
C76 O82 1.287 . S
C76 O83 1.255 . S
O77 Fe66 1.976 . S
O77 C84 1.287 . S
O78 Fe67 1.996 . S
O78 C84 1.255 . S
O79 Fe69 1.976 . S
O79 C74 1.287 . S
O80 Fe66 1.996 . S
O80 C74 1.255 . S
C81 O85 1.295 . S
C81 O86 1.235 . S
O82 Fe67 1.976 . S
O82 C76 1.287 . S
O83 Fe69 1.996 . S
O83 C76 1.255 . S
C84 O77 1.287 . S
C84 O78 1.255 . S
O85 Fe67 2.002 . S
O85 C81 1.295 . S
O86 Fe69 1.997 . S
O86 C81 1.235 . S
C87 O70 1.295 . S
C87 O71 1.235 . S
Fe88 O90 1.918 . S
Fe88 O93 1.997 . S
Fe88 O94 2.002 . S
Fe88 O99 1.976 . S
Fe88 O102 1.996 . S
Fe89 O90 1.918 . S
Fe89 O97 1.997 . S
Fe89 O100 1.996 . S
Fe89 O104 1.976 . S
Fe89 O107 2.002 . S
O90 Fe88 1.918 . S
O90 Fe89 1.918 . S
O90 Fe91 1.918 . S
Fe91 O90 1.918 . S
Fe91 O92 2.002 . S
Fe91 O101 1.976 . S
Fe91 O105 1.996 . S
Fe91 O108 1.997 . S
O92 Fe91 2.002 . S
O92 C109 1.295 . S
O93 Fe88 1.997 . S
O93 C109 1.235 . S
O94 Fe88 2.002 . S
O94 C95 1.295 . S
C95 O94 1.295 . S
C95 O97 1.235 . S
C96 O101 1.287 . S
C96 O102 1.255 . S
O97 Fe89 1.997 . S
O97 C95 1.235 . S
C98 O104 1.287 . S
C98 O105 1.255 . S
O99 Fe88 1.976 . S
O99 C106 1.287 . S
O100 Fe89 1.996 . S
O100 C106 1.255 . S
O101 Fe91 1.976 . S
O101 C96 1.287 . S
O102 Fe88 1.996 . S
O102 C96 1.255 . S
C103 O107 1.295 . S
C103 O108 1.235 . S
O104 Fe89 1.976 . S
O104 C98 1.287 . S
O105 Fe91 1.996 . S
O105 C98 1.255 . S
C106 O99 1.287 . S
C106 O100 1.255 . S
O107 Fe89 2.002 . S
O107 C103 1.295 . S
O108 Fe91 1.997 . S
O108 C103 1.235 . S
C109 O92 1.295 . S
C109 O93 1.235 . S
Fe110 O112 1.918 . S
Fe110 O115 1.997 . S
Fe110 O116 2.002 . S
Fe110 O121 1.976 . S
Fe110 O124 1.996 . S
Fe111 O112 1.918 . S
Fe111 O119 1.997 . S
Fe111 O122 1.996 . S
Fe111 O126 1.976 . S
Fe111 O129 2.002 . S
O112 Fe110 1.918 . S
O112 Fe111 1.918 . S
O112 Fe113 1.918 . S
Fe113 O112 1.918 . S
Fe113 O114 2.002 . S
Fe113 O123 1.976 . S
Fe113 O127 1.996 . S
Fe113 O130 1.997 . S
O114 Fe113 2.002 . S
O114 C131 1.295 . S
O115 Fe110 1.997 . S
O115 C131 1.235 . S
O116 Fe110 2.002 . S
O116 C117 1.295 . S
C117 O116 1.295 . S
C117 O119 1.235 . S
C118 O123 1.287 . S
C118 O124 1.255 . S
O119 Fe111 1.997 . S
O119 C117 1.235 . S
C120 O126 1.287 . S
C120 O127 1.255 . S
O121 Fe110 1.976 . S
O121 C128 1.287 . S
O122 Fe111 1.996 . S
O122 C128 1.255 . S
O123 Fe113 1.976 . S
O123 C118 1.287 . S
O124 Fe110 1.996 . S
O124 C118 1.255 . S
C125 O129 1.295 . S
C125 O130 1.235 . S
O126 Fe111 1.976 . S
O126 C120 1.287 . S
O127 Fe113 1.996 . S
O127 C120 1.255 . S
C128 O121 1.287 . S
C128 O122 1.255 . S
O129 Fe111 2.002 . S
O129 C125 1.295 . S
O130 Fe113 1.997 . S
O130 C125 1.235 . S
C131 O114 1.295 . S
C131 O115 1.235 . S
Fe132 O134 1.918 . S
Fe132 O137 1.997 . S
Fe132 O138 2.002 . S
Fe132 O143 1.976 . S
Fe132 O146 1.996 . S
Fe133 O134 1.918 . S
Fe133 O141 1.997 . S
Fe133 O144 1.996 . S
Fe133 O148 1.976 . S
Fe133 O151 2.002 . S
O134 Fe132 1.918 . S
O134 Fe133 1.918 . S
O134 Fe135 1.918 . S
Fe135 O134 1.918 . S
Fe135 O136 2.002 . S
Fe135 O145 1.976 . S
Fe135 O149 1.996 . S
Fe135 O152 1.997 . S
O136 Fe135 2.002 . S
O136 C153 1.295 . S
O137 Fe132 1.997 . S
O137 C153 1.235 . S
O138 Fe132 2.002 . S
O138 C139 1.295 . S
C139 O138 1.295 . S
C139 O141 1.235 . S
C140 O145 1.287 . S
C140 O146 1.255 . S
O141 Fe133 1.997 . S
O141 C139 1.235 . S
C142 O148 1.287 . S
C142 O149 1.255 . S
O143 Fe132 1.976 . S
O143 C150 1.287 . S
O144 Fe133 1.996 . S
O144 C150 1.255 . S
O145 Fe135 1.976 . S
O145 C140 1.287 . S
O146 Fe132 1.996 . S
O146 C140 1.255 . S
C147 O151 1.295 . S
C147 O152 1.235 . S
O148 Fe133 1.976 . S
O148 C142 1.287 . S
O149 Fe135 1.996 . S
O149 C142 1.255 . S
C150 O143 1.287 . S
C150 O144 1.255 . S
O151 Fe133 2.002 . S
O151 C147 1.295 . S
O152 Fe135 1.997 . S
O152 C147 1.235 . S
C153 O136 1.295 . S
C153 O137 1.235 . S
Fe154 O156 1.918 . S
Fe154 O159 1.997 . S
Fe154 O160 2.002 . S
Fe154 O165 1.976 . S
Fe154 O168 1.996 . S
Fe155 O156 1.918 . S
Fe155 O163 1.997 . S
Fe155 O166 1.996 . S
Fe155 O170 1.976 . S
Fe155 O173 2.002 . S
O156 Fe154 1.918 . S
O156 Fe155 1.918 . S
O156 Fe157 1.918 . S
Fe157 O156 1.918 . S
Fe157 O158 2.002 . S
Fe157 O167 1.976 . S
Fe157 O171 1.996 . S
Fe157 O174 1.997 . S
O158 Fe157 2.002 . S
O158 C175 1.295 . S
O159 Fe154 1.997 . S
O159 C175 1.235 . S
O160 Fe154 2.002 . S
O160 C161 1.295 . S
C161 O160 1.295 . S
C161 O163 1.235 . S
C162 O167 1.287 . S
C162 O168 1.255 . S
O163 Fe155 1.997 . S
O163 C161 1.235 . S
C164 O170 1.287 . S
C164 O171 1.255 . S
O165 Fe154 1.976 . S
O165 C172 1.287 . S
O166 Fe155 1.996 . S
O166 C172 1.255 . S
O167 Fe157 1.976 . S
O167 C162 1.287 . S
O168 Fe154 1.996 . S
O168 C162 1.255 . S
C169 O173 1.295 . S
C169 O174 1.235 . S
O170 Fe155 1.976 . S
O170 C164 1.287 . S
O171 Fe157 1.996 . S
O171 C164 1.255 . S
C172 O165 1.287 . S
C172 O166 1.255 . S
O173 Fe155 2.002 . S
O173 C169 1.295 . S
O174 Fe157 1.997 . S
O174 C169 1.235 . S
C175 O158 1.295 . S
C175 O159 1.235 . S
Fe176 O178 1.918 . S
Fe176 O181 1.997 . S
Fe176 O182 2.002 . S
Fe176 O187 1.976 . S
Fe176 O190 1.996 . S
Fe177 O178 1.918 . S
Fe177 O185 1.997 . S
Fe177 O188 1.996 . S
Fe177 O192 1.976 . S
Fe177 O195 2.002 . S
O178 Fe176 1.918 . S
O178 Fe177 1.918 . S
O178 Fe179 1.918 . S
Fe179 O178 1.918 . S
Fe179 O180 2.002 . S
Fe179 O189 1.976 . S
Fe179 O193 1.996 . S
Fe179 O196 1.997 . S
O180 Fe179 2.002 . S
O180 C197 1.295 . S
O181 Fe176 1.997 . S
O181 C197 1.235 . S
O182 Fe176 2.002 . S
O182 C183 1.295 . S
C183 O182 1.295 . S
C183 O185 1.235 . S
C184 O189 1.287 . S
C184 O190 1.255 . S
O185 Fe177 1.997 . S
O185 C183 1.235 . S
C186 O192 1.287 . S
C186 O193 1.255 . S
O187 Fe176 1.976 . S
O187 C194 1.287 . S
O188 Fe177 1.996 . S
O188 C194 1.255 . S
O189 Fe179 1.976 . S
O189 C184 1.287 . S
O190 Fe176 1.996 . S
O190 C184 1.255 . S
C191 O195 1.295 . S
C191 O196 1.235 . S
O192 Fe177 1.976 . S
O192 C186 1.287 . S
O193 Fe179 1.996 . S
O193 C186 1.255 . S
C194 O187 1.287 . S
C194 O188 1.255 . S
O195 Fe177 2.002 . S
O195 C191 1.295 . S
O196 Fe179 1.997 . S
O196 C191 1.235 . S
C197 O180 1.295 . S
C197 O181 1.235 . S
Fe198 O200 1.918 . S
Fe198 O203 1.997 . S
Fe198 O204 2.002 . S
Fe198 O209 1.976 . S
Fe198 O212 1.996 . S
Fe199 O200 1.918 . S
Fe199 O207 1.997 . S
Fe199 O210 1.996 . S
Fe199 O214 1.976 . S
Fe199 O217 2.002 . S
O200 Fe198 1.918 . S
O200 Fe199 1.918 . S
O200 Fe201 1.918 . S
Fe201 O200 1.918 . S
Fe201 O202 2.002 . S
Fe201 O211 1.976 . S
Fe201 O215 1.996 . S
Fe201 O218 1.997 . S
O202 Fe201 2.002 . S
O202 C219 1.295 . S
O203 Fe198 1.997 . S
O203 C219 1.235 . S
O204 Fe198 2.002 . S
O204 C205 1.295 . S
C205 O204 1.295 . S
C205 O207 1.235 . S
C206 O211 1.287 . S
C206 O212 1.255 . S
O207 Fe199 1.997 . S
O207 C205 1.235 . S
C208 O214 1.287 . S
C208 O215 1.255 . S
O209 Fe198 1.976 . S
O209 C216 1.287 . S
O210 Fe199 1.996 . S
O210 C216 1.255 . S
O211 Fe201 1.976 . S
O211 C206 1.287 . S
O212 Fe198 1.996 . S
O212 C206 1.255 . S
C213 O217 1.295 . S
C213 O218 1.235 . S
O214 Fe199 1.976 . S
O214 C208 1.287 . S
O215 Fe201 1.996 . S
O215 C208 1.255 . S
C216 O209 1.287 . S
C216 O210 1.255 . S
O217 Fe199 2.002 . S
O217 C213 1.295 . S
O218 Fe201 1.997 . S
O218 C213 1.235 . S
C219 O202 1.295 . S
C219 O203 1.235 . S
Fe220 O222 1.918 . S
Fe220 O225 1.997 . S
Fe220 O226 2.002 . S
Fe220 O231 1.976 . S
Fe220 O234 1.996 . S
Fe221 O222 1.918 . S
Fe221 O229 1.997 . S
Fe221 O232 1.996 . S
Fe221 O236 1.976 . S
Fe221 O239 2.002 . S
O222 Fe220 1.918 . S
O222 Fe221 1.918 . S
O222 Fe223 1.918 . S
Fe223 O222 1.918 . S
Fe223 O224 2.002 . S
Fe223 O233 1.976 . S
Fe223 O237 1.996 . S
Fe223 O240 1.997 . S
O224 Fe223 2.002 . S
O224 C241 1.295 . S
O225 Fe220 1.997 . S
O225 C241 1.235 . S
O226 Fe220 2.002 . S
O226 C227 1.295 . S
C227 O226 1.295 . S
C227 O229 1.235 . S
C228 O233 1.287 . S
C228 O234 1.255 . S
O229 Fe221 1.997 . S
O229 C227 1.235 . S
C230 O236 1.287 . S
C230 O237 1.255 . S
O231 Fe220 1.976 . S
O231 C238 1.287 . S
O232 Fe221 1.996 . S
O232 C238 1.255 . S
O233 Fe223 1.976 . S
O233 C228 1.287 . S
O234 Fe220 1.996 . S
O234 C228 1.255 . S
C235 O239 1.295 . S
C235 O240 1.235 . S
O236 Fe221 1.976 . S
O236 C230 1.287 . S
O237 Fe223 1.996 . S
O237 C230 1.255 . S
C238 O231 1.287 . S
C238 O232 1.255 . S
O239 Fe221 2.002 . S
O239 C235 1.295 . S
O240 Fe223 1.997 . S
O240 C235 1.235 . S
C241 O224 1.295 . S
C241 O225 1.235 . S
Fe242 O244 1.918 . S
Fe242 O247 1.997 . S
Fe242 O248 2.002 . S
Fe242 O253 1.976 . S
Fe242 O256 1.996 . S
Fe243 O244 1.918 . S
Fe243 O251 1.997 . S
Fe243 O254 1.996 . S
Fe243 O258 1.976 . S
Fe243 O261 2.002 . S
O244 Fe242 1.918 . S
O244 Fe243 1.918 . S
O244 Fe245 1.918 . S
Fe245 O244 1.918 . S
Fe245 O246 2.002 . S
Fe245 O255 1.976 . S
Fe245 O259 1.996 . S
Fe245 O262 1.997 . S
O246 Fe245 2.002 . S
O246 C263 1.295 . S
O247 Fe242 1.997 . S
O247 C263 1.235 . S
O248 Fe242 2.002 . S
O248 C249 1.295 . S
C249 O248 1.295 . S
C249 O251 1.235 . S
C250 O255 1.287 . S
C250 O256 1.255 . S
O251 Fe243 1.997 . S
O251 C249 1.235 . S
C252 O258 1.287 . S
C252 O259 1.255 . S
O253 Fe242 1.976 . S
O253 C260 1.287 . S
O254 Fe243 1.996 . S
O254 C260 1.255 . S
O255 Fe245 1.976 . S
O255 C250 1.287 . S
O256 Fe242 1.996 . S
O256 C250 1.255 . S
C257 O261 1.295 . S
C257 O262 1.235 . S
O258 Fe243 1.976 . S
O258 C252 1.287 . S
O259 Fe245 1.996 . S
O259 C252 1.255 . S
C260 O253 1.287 . S
C260 O254 1.255 . S
O261 Fe243 2.002 . S
O261 C257 1.295 . S
O262 Fe245 1.997 . S
O262 C257 1.235 . S
C263 O246 1.295 . S
C263 O247 1.235 . S
C264 C265 1.387 . S
C264 H268 0.950 . S
C264 C273 1.390 . S
C265 C264 1.387 . S
C265 C267 1.387 . S
H266 C273 0.950 . S
C267 C265 1.387 . S
C267 C269 1.390 . S
C267 H271 0.950 . S
H268 C264 0.950 . S
C269 C267 1.390 . S
C269 C270 1.387 . S
C269 H272 0.950 . S
C270 C269 1.387 . S
C270 C273 1.387 . S
H271 C267 0.950 . S
H272 C269 0.950 . S
C273 C264 1.390 . S
C273 H266 0.950 . S
C273 C270 1.387 . S
C274 C275 1.387 . S
C274 H278 0.950 . S
C274 C283 1.390 . S
C275 C274 1.387 . S
C275 C277 1.387 . S
H276 C283 0.950 . S
C277 C275 1.387 . S
C277 C279 1.390 . S
C277 H281 0.950 . S
H278 C274 0.950 . S
C279 C277 1.390 . S
C279 C280 1.387 . S
C279 H282 0.950 . S
C280 C279 1.387 . S
C280 C283 1.387 . S
H281 C277 0.950 . S
H282 C279 0.950 . S
C283 C274 1.390 . S
C283 H276 0.950 . S
C283 C280 1.387 . S
C284 C285 1.387 . S
C284 H288 0.950 . S
C284 C293 1.390 . S
C285 C284 1.387 . S
C285 C287 1.387 . S
H286 C293 0.950 . S
C287 C285 1.387 . S
C287 C289 1.390 . S
C287 H291 0.950 . S
H288 C284 0.950 . S
C289 C287 1.390 . S
C289 C290 1.387 . S
C289 H292 0.950 . S
C290 C289 1.387 . S
C290 C293 1.387 . S
H291 C287 0.950 . S
H292 C289 0.950 . S
C293 C284 1.390 . S
C293 H286 0.950 . S
C293 C290 1.387 . S
C294 C295 1.387 . S
C294 H298 0.950 . S
C294 C303 1.390 . S
C295 C294 1.387 . S
C295 C297 1.387 . S
H296 C303 0.950 . S
C297 C295 1.387 . S
C297 C299 1.390 . S
C297 H301 0.950 . S
H298 C294 0.950 . S
C299 C297 1.390 . S
C299 C300 1.387 . S
C299 H302 0.950 . S
C300 C299 1.387 . S
C300 C303 1.387 . S
H301 C297 0.950 . S
H302 C299 0.950 . S
C303 C294 1.390 . S
C303 H296 0.950 . S
C303 C300 1.387 . S
C304 C305 1.387 . S
C304 H308 0.950 . S
C304 C313 1.390 . S
C305 C304 1.387 . S
C305 C307 1.387 . S
H306 C313 0.950 . S
C307 C305 1.387 . S
C307 C309 1.390 . S
C307 H311 0.950 . S
H308 C304 0.950 . S
C309 C307 1.390 . S
C309 C310 1.387 . S
C309 H312 0.950 . S
C310 C309 1.387 . S
C310 C313 1.387 . S
H311 C307 0.950 . S
H312 C309 0.950 . S
C313 C304 1.390 . S
C313 H306 0.950 . S
C313 C310 1.387 . S
C314 C315 1.387 . S
C314 H318 0.950 . S
C314 C323 1.390 . S
C315 C314 1.387 . S
C315 C317 1.387 . S
H316 C323 0.950 . S
C317 C315 1.387 . S
C317 C319 1.390 . S
C317 H321 0.950 . S
H318 C314 0.950 . S
C319 C317 1.390 . S
C319 C320 1.387 . S
C319 H322 0.950 . S
C320 C319 1.387 . S
C320 C323 1.387 . S
H321 C317 0.950 . S
H322 C319 0.950 . S
C323 C314 1.390 . S
C323 H316 0.950 . S
C323 C320 1.387 . S
C324 C325 1.387 . S
C324 H328 0.950 . S
C324 C333 1.390 . S
C325 C324 1.387 . S
C325 C327 1.387 . S
H326 C333 0.950 . S
C327 C325 1.387 . S
C327 C329 1.390 . S
C327 H331 0.950 . S
H328 C324 0.950 . S
C329 C327 1.390 . S
C329 C330 1.387 . S
C329 H332 0.950 . S
C330 C329 1.387 . S
C330 C333 1.387 . S
H331 C327 0.950 . S
H332 C329 0.950 . S
C333 C324 1.390 . S
C333 H326 0.950 . S
C333 C330 1.387 . S
C334 C335 1.387 . S
C334 H338 0.950 . S
C334 C343 1.390 . S
C335 C334 1.387 . S
C335 C337 1.387 . S
H336 C343 0.950 . S
C337 C335 1.387 . S
C337 C339 1.390 . S
C337 H341 0.950 . S
H338 C334 0.950 . S
C339 C337 1.390 . S
C339 C340 1.387 . S
C339 H342 0.950 . S
C340 C339 1.387 . S
C340 C343 1.387 . S
H341 C337 0.950 . S
H342 C339 0.950 . S
C343 C334 1.390 . S
C343 H336 0.950 . S
C343 C340 1.387 . S
C344 C345 1.387 . S
C344 H348 0.950 . S
C344 C353 1.390 . S
C345 C344 1.387 . S
C345 C347 1.387 . S
H346 C353 0.950 . S
C347 C345 1.387 . S
C347 C349 1.390 . S
C347 H351 0.950 . S
H348 C344 0.950 . S
C349 C347 1.390 . S
C349 C350 1.387 . S
C349 H352 0.950 . S
C350 C349 1.387 . S
C350 C353 1.387 . S
H351 C347 0.950 . S
H352 C349 0.950 . S
C353 C344 1.390 . S
C353 H346 0.950 . S
C353 C350 1.387 . S
C354 C355 1.387 . S
C354 H358 0.950 . S
C354 C363 1.390 . S
C355 C354 1.387 . S
C355 C357 1.387 . S
H356 C363 0.950 . S
C357 C355 1.387 . S
C357 C359 1.390 . S
C357 H361 0.950 . S
H358 C354 0.950 . S
C359 C357 1.390 . S
C359 C360 1.387 . S
C359 H362 0.950 . S
C360 C359 1.387 . S
C360 C363 1.387 . S
H361 C357 0.950 . S
H362 C359 0.950 . S
C363 C354 1.390 . S
C363 H356 0.950 . S
C363 C360 1.387 . S
C364 C365 1.387 . S
C364 H368 0.950 . S
C364 C373 1.390 . S
C365 C364 1.387 . S
C365 C367 1.387 . S
H366 C373 0.950 . S
C367 C365 1.387 . S
C367 C369 1.390 . S
C367 H371 0.950 . S
H368 C364 0.950 . S
C369 C367 1.390 . S
C369 C370 1.387 . S
C369 H372 0.950 . S
C370 C369 1.387 . S
C370 C373 1.387 . S
H371 C367 0.950 . S
H372 C369 0.950 . S
C373 C364 1.390 . S
C373 H366 0.950 . S
C373 C370 1.387 . S
C374 C375 1.387 . S
C374 H378 0.950 . S
C374 C383 1.390 . S
C375 C374 1.387 . S
C375 C377 1.387 . S
H376 C383 0.950 . S
C377 C375 1.387 . S
C377 C379 1.390 . S
C377 H381 0.950 . S
H378 C374 0.950 . S
C379 C377 1.390 . S
C379 C380 1.387 . S
C379 H382 0.950 . S
C380 C379 1.387 . S
C380 C383 1.387 . S
H381 C377 0.950 . S
H382 C379 0.950 . S
C383 C374 1.390 . S
C383 H376 0.950 . S
C383 C380 1.387 . S
C384 C385 1.387 . S
C384 H388 0.950 . S
C384 C393 1.390 . S
C385 C384 1.387 . S
C385 C387 1.387 . S
H386 C393 0.950 . S
C387 C385 1.387 . S
C387 C389 1.390 . S
C387 H391 0.950 . S
H388 C384 0.950 . S
C389 C387 1.390 . S
C389 C390 1.387 . S
C389 H392 0.950 . S
C390 C389 1.387 . S
C390 C393 1.387 . S
H391 C387 0.950 . S
H392 C389 0.950 . S
C393 C384 1.390 . S
C393 H386 0.950 . S
C393 C390 1.387 . S
C394 C395 1.387 . S
C394 H398 0.950 . S
C394 C403 1.390 . S
C395 C394 1.387 . S
C395 C397 1.387 . S
H396 C403 0.950 . S
C397 C395 1.387 . S
C397 C399 1.390 . S
C397 H401 0.950 . S
H398 C394 0.950 . S
C399 C397 1.390 . S
C399 C400 1.387 . S
C399 H402 0.950 . S
C400 C399 1.387 . S
C400 C403 1.387 . S
H401 C397 0.950 . S
H402 C399 0.950 . S
C403 C394 1.390 . S
C403 H396 0.950 . S
C403 C400 1.387 . S
C404 C405 1.387 . S
C404 H408 0.950 . S
C404 C413 1.390 . S
C405 C404 1.387 . S
C405 C407 1.387 . S
H406 C413 0.950 . S
C407 C405 1.387 . S
C407 C409 1.390 . S
C407 H411 0.950 . S
H408 C404 0.950 . S
C409 C407 1.390 . S
C409 C410 1.387 . S
C409 H412 0.950 . S
C410 C409 1.387 . S
C410 C413 1.387 . S
H411 C407 0.950 . S
H412 C409 0.950 . S
C413 C404 1.390 . S
C413 H406 0.950 . S
C413 C410 1.387 . S
C414 C415 1.387 . S
C414 H418 0.950 . S
C414 C423 1.390 . S
C415 C414 1.387 . S
C415 C417 1.387 . S
H416 C423 0.950 . S
C417 C415 1.387 . S
C417 C419 1.390 . S
C417 H421 0.950 . S
H418 C414 0.950 . S
C419 C417 1.390 . S
C419 C420 1.387 . S
C419 H422 0.950 . S
C420 C419 1.387 . S
C420 C423 1.387 . S
H421 C417 0.950 . S
H422 C419 0.950 . S
C423 C414 1.390 . S
C423 H416 0.950 . S
C423 C420 1.387 . S
C424 C425 1.387 . S
C424 H428 0.950 . S
C424 C433 1.390 . S
C425 C424 1.387 . S
C425 C427 1.387 . S
H426 C433 0.950 . S
C427 C425 1.387 . S
C427 C429 1.390 . S
C427 H431 0.950 . S
H428 C424 0.950 . S
C429 C427 1.390 . S
C429 C430 1.387 . S
C429 H432 0.950 . S
C430 C429 1.387 . S
C430 C433 1.387 . S
H431 C427 0.950 . S
H432 C429 0.950 . S
C433 C424 1.390 . S
C433 H426 0.950 . S
C433 C430 1.387 . S
C434 C435 1.387 . S
C434 H438 0.950 . S
C434 C443 1.390 . S
C435 C434 1.387 . S
C435 C437 1.387 . S
H436 C443 0.950 . S
C437 C435 1.387 . S
C437 C439 1.390 . S
C437 H441 0.950 . S
H438 C434 0.950 . S
C439 C437 1.390 . S
C439 C440 1.387 . S
C439 H442 0.950 . S
C440 C439 1.387 . S
C440 C443 1.387 . S
H441 C437 0.950 . S
H442 C439 0.950 . S
C443 C434 1.390 . S
C443 H436 0.950 . S
C443 C440 1.387 . S
C444 C445 1.387 . S
C444 H448 0.950 . S
C444 C453 1.390 . S
C445 C444 1.387 . S
C445 C447 1.387 . S
H446 C453 0.950 . S
C447 C445 1.387 . S
C447 C449 1.390 . S
C447 H451 0.950 . S
H448 C444 0.950 . S
C449 C447 1.390 . S
C449 C450 1.387 . S
C449 H452 0.950 . S
C450 C449 1.387 . S
C450 C453 1.387 . S
H451 C447 0.950 . S
H452 C449 0.950 . S
C453 C444 1.390 . S
C453 H446 0.950 . S
C453 C450 1.387 . S
C454 C455 1.387 . S
C454 H458 0.950 . S
C454 C463 1.390 . S
C455 C454 1.387 . S
C455 C457 1.387 . S
H456 C463 0.950 . S
C457 C455 1.387 . S
C457 C459 1.390 . S
C457 H461 0.950 . S
H458 C454 0.950 . S
C459 C457 1.390 . S
C459 C460 1.387 . S
C459 H462 0.950 . S
C460 C459 1.387 . S
C460 C463 1.387 . S
H461 C457 0.950 . S
H462 C459 0.950 . S
C463 C454 1.390 . S
C463 H456 0.950 . S
C463 C460 1.387 . S
C464 C465 1.387 . S
C464 H468 0.950 . S
C464 C473 1.390 . S
C465 C464 1.387 . S
C465 C467 1.387 . S
H466 C473 0.950 . S
C467 C465 1.387 . S
C467 C469 1.390 . S
C467 H471 0.950 . S
H468 C464 0.950 . S
C469 C467 1.390 . S
C469 C470 1.387 . S
C469 H472 0.950 . S
C470 C469 1.387 . S
C470 C473 1.387 . S
H471 C467 0.950 . S
H472 C469 0.950 . S
C473 C464 1.390 . S
C473 H466 0.950 . S
C473 C470 1.387 . S
C474 C475 1.387 . S
C474 H478 0.950 . S
C474 C483 1.390 . S
C475 C474 1.387 . S
C475 C477 1.387 . S
H476 C483 0.950 . S
C477 C475 1.387 . S
C477 C479 1.390 . S
C477 H481 0.950 . S
H478 C474 0.950 . S
C479 C477 1.390 . S
C479 C480 1.387 . S
C479 H482 0.950 . S
C480 C479 1.387 . S
C480 C483 1.387 . S
H481 C477 0.950 . S
H482 C479 0.950 . S
C483 C474 1.390 . S
C483 H476 0.950 . S
C483 C480 1.387 . S
C484 C485 1.387 . S
C484 H488 0.950 . S
C484 C493 1.390 . S
C485 C484 1.387 . S
C485 C487 1.387 . S
H486 C493 0.950 . S
C487 C485 1.387 . S
C487 C489 1.390 . S
C487 H491 0.950 . S
H488 C484 0.950 . S
C489 C487 1.390 . S
C489 C490 1.387 . S
C489 H492 0.950 . S
C490 C489 1.387 . S
C490 C493 1.387 . S
H491 C487 0.950 . S
H492 C489 0.950 . S
C493 C484 1.390 . S
C493 H486 0.950 . S
C493 C490 1.387 . S
C494 C495 1.387 . S
C494 H498 0.950 . S
C494 C503 1.390 . S
C495 C494 1.387 . S
C495 C497 1.387 . S
H496 C503 0.950 . S
C497 C495 1.387 . S
C497 C499 1.390 . S
C497 H501 0.950 . S
H498 C494 0.950 . S
C499 C497 1.390 . S
C499 C500 1.387 . S
C499 H502 0.950 . S
C500 C499 1.387 . S
C500 C503 1.387 . S
H501 C497 0.950 . S
H502 C499 0.950 . S
C503 C494 1.390 . S
C503 H496 0.950 . S
C503 C500 1.387 . S
C504 C505 1.387 . S
C504 H508 0.950 . S
C504 C513 1.390 1_565 S
C505 C504 1.387 . S
C505 C507 1.387 . S
H506 C513 0.950 . S
C507 C505 1.387 . S
C507 C509 1.390 1_565 S
C507 H511 0.950 . S
H508 C504 0.950 . S
C509 C507 1.390 1_545 S
C509 C510 1.387 . S
C509 H512 0.950 . S
C510 C509 1.387 . S
C510 C513 1.387 . S
H511 C507 0.950 . S
H512 C509 0.950 . S
C513 C504 1.390 1_545 S
C513 H506 0.950 . S
C513 C510 1.387 . S
C514 C515 1.387 . S
C514 H518 0.950 . S
C514 C523 1.390 1_455 S
C515 C514 1.387 . S
C515 C517 1.387 . S
H516 C523 0.950 . S
C517 C515 1.387 . S
C517 C519 1.390 1_455 S
C517 H521 0.950 . S
H518 C514 0.950 . S
C519 C517 1.390 1_655 S
C519 C520 1.387 . S
C519 H522 0.950 . S
C520 C519 1.387 . S
C520 C523 1.387 . S
H521 C517 0.950 . S
H522 C519 0.950 . S
C523 C514 1.390 1_655 S
C523 H516 0.950 . S
C523 C520 1.387 . S
C524 C525 1.387 . S
C524 H528 0.950 . S
C524 C533 1.390 1_545 S
C525 C524 1.387 . S
C525 C527 1.387 . S
H526 C533 0.950 . S
C527 C525 1.387 . S
C527 C529 1.390 1_545 S
C527 H531 0.950 . S
H528 C524 0.950 . S
C529 C527 1.390 1_565 S
C529 C530 1.387 . S
C529 H532 0.950 . S
C530 C529 1.387 . S
C530 C533 1.387 . S
H531 C527 0.950 . S
H532 C529 0.950 . S
C533 C524 1.390 1_565 S
C533 H526 0.950 . S
C533 C530 1.387 . S
C534 C535 1.387 . S
C534 H538 0.950 . S
C534 C543 1.390 1_455 S
C535 C534 1.387 . S
C535 C537 1.387 . S
H536 C543 0.950 . S
C537 C535 1.387 . S
C537 C539 1.390 1_455 S
C537 H541 0.950 . S
H538 C534 0.950 . S
C539 C537 1.390 1_655 S
C539 C540 1.387 . S
C539 H542 0.950 . S
C540 C539 1.387 . S
C540 C543 1.387 . S
H541 C537 0.950 . S
H542 C539 0.950 . S
C543 C534 1.390 1_655 S
C543 H536 0.950 . S
C543 C540 1.387 . S
C544 C545 1.387 . S
C544 H548 0.950 . S
C544 C553 1.390 1_556 S
C545 C544 1.387 . S
C545 C547 1.387 . S
H546 C553 0.950 . S
C547 C545 1.387 . S
C547 C549 1.390 1_556 S
C547 H551 0.950 . S
H548 C544 0.950 . S
C549 C547 1.390 1_554 S
C549 C550 1.387 . S
C549 H552 0.950 . S
C550 C549 1.387 . S
C550 C553 1.387 . S
H551 C547 0.950 . S
H552 C549 0.950 . S
C553 C544 1.390 1_554 S
C553 H546 0.950 . S
C553 C550 1.387 . S
C554 C555 1.387 . S
C554 H558 0.950 . S
C554 C563 1.390 1_556 S
C555 C554 1.387 . S
C555 C557 1.387 . S
H556 C563 0.950 . S
C557 C555 1.387 . S
C557 C559 1.390 1_556 S
C557 H561 0.950 . S
H558 C554 0.950 . S
C559 C557 1.390 1_554 S
C559 C560 1.387 . S
C559 H562 0.950 . S
C560 C559 1.387 . S
C560 C563 1.387 . S
H561 C557 0.950 . S
H562 C559 0.950 . S
C563 C554 1.390 1_554 S
C563 H556 0.950 . S
C563 C560 1.387 . S
C564 C565 1.387 . S
C564 H568 0.950 . S
C564 C573 1.390 1_554 S
C565 C564 1.387 . S
C565 C567 1.387 . S
H566 C573 0.950 . S
C567 C565 1.387 . S
C567 C569 1.390 1_554 S
C567 H571 0.950 . S
H568 C564 0.950 . S
C569 C567 1.390 1_556 S
C569 C570 1.387 . S
C569 H572 0.950 . S
C570 C569 1.387 . S
C570 C573 1.387 . S
H571 C567 0.950 . S
H572 C569 0.950 . S
C573 C564 1.390 1_556 S
C573 H566 0.950 . S
C573 C570 1.387 . S
C574 C575 1.387 . S
C574 H578 0.950 . S
C574 C583 1.390 1_556 S
C575 C574 1.387 . S
C575 C577 1.387 . S
H576 C583 0.950 . S
C577 C575 1.387 . S
C577 C579 1.390 1_556 S
C577 H581 0.950 . S
H578 C574 0.950 . S
C579 C577 1.390 1_554 S
C579 C580 1.387 . S
C579 H582 0.950 . S
C580 C579 1.387 . S
C580 C583 1.387 . S
H581 C577 0.950 . S
H582 C579 0.950 . S
C583 C574 1.390 1_554 S
C583 H576 0.950 . S
C583 C580 1.387 . S
C584 C585 1.387 . S
C584 H588 0.950 . S
C584 C593 1.390 1_455 S
C585 C584 1.387 . S
C585 C587 1.387 . S
H586 C593 0.950 . S
C587 C585 1.387 . S
C587 C589 1.390 1_455 S
C587 H591 0.950 . S
H588 C584 0.950 . S
C589 C587 1.390 1_655 S
C589 C590 1.387 . S
C589 H592 0.950 . S
C590 C589 1.387 . S
C590 C593 1.387 . S
H591 C587 0.950 . S
H592 C589 0.950 . S
C593 C584 1.390 1_655 S
C593 H586 0.950 . S
C593 C590 1.387 . S
C594 C595 1.387 . S
C594 H598 0.950 . S
C594 C603 1.390 1_655 S
C595 C594 1.387 . S
C595 C597 1.387 . S
H596 C603 0.950 . S
C597 C595 1.387 . S
C597 C599 1.390 1_655 S
C597 H601 0.950 . S
H598 C594 0.950 . S
C599 C597 1.390 1_455 S
C599 C600 1.387 . S
C599 H602 0.950 . S
C600 C599 1.387 . S
C600 C603 1.387 . S
H601 C597 0.950 . S
H602 C599 0.950 . S
C603 C594 1.390 1_455 S
C603 H596 0.950 . S
C603 C600 1.387 . S
C604 C605 1.387 . S
C604 H608 0.950 . S
C604 C613 1.390 1_545 S
C605 C604 1.387 . S
C605 C607 1.387 . S
H606 C613 0.950 . S
C607 C605 1.387 . S
C607 C609 1.390 1_545 S
C607 H611 0.950 . S
H608 C604 0.950 . S
C609 C607 1.390 1_565 S
C609 C610 1.387 . S
C609 H612 0.950 . S
C610 C609 1.387 . S
C610 C613 1.387 . S
H611 C607 0.950 . S
H612 C609 0.950 . S
C613 C604 1.390 1_565 S
C613 H606 0.950 . S
C613 C610 1.387 . S
C614 C615 1.387 . S
C614 H618 0.950 . S
C614 C623 1.390 1_565 S
C615 C614 1.387 . S
C615 C617 1.387 . S
H616 C623 0.950 . S
C617 C615 1.387 . S
C617 C619 1.390 1_565 S
C617 H621 0.950 . S
H618 C614 0.950 . S
C619 C617 1.390 1_545 S
C619 C620 1.387 . S
C619 H622 0.950 . S
C620 C619 1.387 . S
C620 C623 1.387 . S
H621 C617 0.950 . S
H622 C619 0.950 . S
C623 C614 1.390 1_545 S
C623 H616 0.950 . S
C623 C620 1.387 . S
C265 C15 1.452 . S
C270 C164 1.476 . S
C275 C95 1.483 . S
C280 C30 1.502 . S
C285 C54 1.423 . S
C290 C120 1.425 . S
C295 C84 1.496 . S
C300 C147 1.477 . S
C305 C81 1.526 . S
C310 C205 1.526 . S
C315 C18 1.436 . S
C320 C238 1.436 . S
C325 C249 1.533 . S
C330 C29 1.532 . S
C335 C65 1.464 . S
C340 C184 1.487 . S
C345 C103 1.483 . S
C350 C10 1.508 . S
C355 C128 1.483 . S
C360 C43 1.462 . S
C365 C153 1.534 . S
C370 C59 1.535 . S
C375 C73 1.458 . S
C380 C172 1.476 . S
C385 C76 1.428 . S
C390 C186 1.426 . S
C395 C7 1.523 . S
C400 C213 1.524 . S
C405 C228 1.432 . S
C410 C40 1.434 . S
C415 C257 1.473 . S
C420 C52 1.494 . S
C425 C98 1.490 . S
C430 C169 1.471 . S
C435 C216 1.496 . S
C440 C191 1.477 . S
C445 C208 1.491 . S
C450 C227 1.468 . S
C455 C260 1.482 . S
C460 C241 1.462 . S
C465 C252 1.490 . S
C470 C197 1.469 . S
C475 C140 1.491 . S
C480 C125 1.469 . S
C485 C142 1.495 . S
C490 C161 1.477 . S
C495 C106 1.482 . S
C500 C117 1.463 . S
C505 C74 1.475 . S
C510 C8 1.475 . S
C515 C21 1.535 . S
C520 C37 1.536 . S
C525 C32 1.518 . S
C530 C51 1.514 . S
C535 C87 1.491 . S
C540 C62 1.495 . S
C545 C235 1.485 . S
C550 C96 1.488 . S
C555 C250 1.505 . S
C560 C131 1.502 . S
C565 C150 1.508 . S
C570 C183 1.505 . S
C575 C206 1.524 . S
C580 C175 1.521 . S
C585 C162 1.431 . S
C590 C118 1.431 . S
C595 C263 1.554 . S
C600 C219 1.553 . S
C605 C230 1.456 . S
C610 C194 1.456 . S
C615 C139 1.579 . S
C620 C109 1.580 . S
