# Generated by pormake.
# Topology ure, (4)-cn, num edge types: 1
# Building blocks:
#     Node 0, Type 0, BuildingBlock: QUQFOY_clean_sbu_1, # of connection points: 4
#     Node 1, Type 0, BuildingBlock: QUQFOY_clean_sbu_1, # of connection points: 4
#     Node 2, Type 0, BuildingBlock: QUQFOY_clean_sbu_1, # of connection points: 4
#     Node 3, Type 0, BuildingBlock: QUQFOY_clean_sbu_1, # of connection points: 4
#     Node 4, Type 0, BuildingBlock: QUQFOY_clean_sbu_1, # of connection points: 4
#     Node 5, Type 0, BuildingBlock: QUQFOY_clean_sbu_1, # of connection points: 4
#     Node 6, Type 0, BuildingBlock: QUQFOY_clean_sbu_1, # of connection points: 4
#     Node 7, Type 0, BuildingBlock: QUQFOY_clean_sbu_1, # of connection points: 4
#     Node 8, Type 0, BuildingBlock: QUQFOY_clean_sbu_1, # of connection points: 4
#     Node 9, Type 0, BuildingBlock: QUQFOY_clean_sbu_1, # of connection points: 4
#     Node 10, Type 0, BuildingBlock: QUQFOY_clean_sbu_1, # of connection points: 4
#     Node 11, Type 0, BuildingBlock: QUQFOY_clean_sbu_1, # of connection points: 4
#     Node 12, Type 0, BuildingBlock: QUQFOY_clean_sbu_1, # of connection points: 4
#     Node 13, Type 0, BuildingBlock: QUQFOY_clean_sbu_1, # of connection points: 4
#     Node 14, Type 0, BuildingBlock: QUQFOY_clean_sbu_1, # of connection points: 4
#     Node 15, Type 0, BuildingBlock: QUQFOY_clean_sbu_1, # of connection points: 4
#     Edge 16, Type (0, 0), BuildingBlock: UVAHIK_clean_linker_0, # of connection points: 2
#     Edge 17, Type (0, 0), BuildingBlock: UVAHIK_clean_linker_0, # of connection points: 2
#     Edge 18, Type (0, 0), BuildingBlock: UVAHIK_clean_linker_0, # of connection points: 2
#     Edge 19, Type (0, 0), BuildingBlock: UVAHIK_clean_linker_0, # of connection points: 2
#     Edge 20, Type (0, 0), BuildingBlock: UVAHIK_clean_linker_0, # of connection points: 2
#     Edge 21, Type (0, 0), BuildingBlock: UVAHIK_clean_linker_0, # of connection points: 2
#     Edge 22, Type (0, 0), BuildingBlock: UVAHIK_clean_linker_0, # of connection points: 2
#     Edge 23, Type (0, 0), BuildingBlock: UVAHIK_clean_linker_0, # of connection points: 2
#     Edge 24, Type (0, 0), BuildingBlock: UVAHIK_clean_linker_0, # of connection points: 2
#     Edge 25, Type (0, 0), BuildingBlock: UVAHIK_clean_linker_0, # of connection points: 2
#     Edge 26, Type (0, 0), BuildingBlock: UVAHIK_clean_linker_0, # of connection points: 2
#     Edge 27, Type (0, 0), BuildingBlock: UVAHIK_clean_linker_0, # of connection points: 2
#     Edge 28, Type (0, 0), BuildingBlock: UVAHIK_clean_linker_0, # of connection points: 2
#     Edge 29, Type (0, 0), BuildingBlock: UVAHIK_clean_linker_0, # of connection points: 2
#     Edge 30, Type (0, 0), BuildingBlock: UVAHIK_clean_linker_0, # of connection points: 2
#     Edge 31, Type (0, 0), BuildingBlock: UVAHIK_clean_linker_0, # of connection points: 2
#     Edge 32, Type (0, 0), BuildingBlock: UVAHIK_clean_linker_0, # of connection points: 2
#     Edge 33, Type (0, 0), BuildingBlock: UVAHIK_clean_linker_0, # of connection points: 2
#     Edge 34, Type (0, 0), BuildingBlock: UVAHIK_clean_linker_0, # of connection points: 2
#     Edge 35, Type (0, 0), BuildingBlock: UVAHIK_clean_linker_0, # of connection points: 2
#     Edge 36, Type (0, 0), BuildingBlock: UVAHIK_clean_linker_0, # of connection points: 2
#     Edge 37, Type (0, 0), BuildingBlock: UVAHIK_clean_linker_0, # of connection points: 2
#     Edge 38, Type (0, 0), BuildingBlock: UVAHIK_clean_linker_0, # of connection points: 2
#     Edge 39, Type (0, 0), BuildingBlock: UVAHIK_clean_linker_0, # of connection points: 2
#     Edge 40, Type (0, 0), BuildingBlock: UVAHIK_clean_linker_0, # of connection points: 2
#     Edge 41, Type (0, 0), BuildingBlock: UVAHIK_clean_linker_0, # of connection points: 2
#     Edge 42, Type (0, 0), BuildingBlock: UVAHIK_clean_linker_0, # of connection points: 2
#     Edge 43, Type (0, 0), BuildingBlock: UVAHIK_clean_linker_0, # of connection points: 2
#     Edge 44, Type (0, 0), BuildingBlock: UVAHIK_clean_linker_0, # of connection points: 2
#     Edge 45, Type (0, 0), BuildingBlock: UVAHIK_clean_linker_0, # of connection points: 2
#     Edge 46, Type (0, 0), BuildingBlock: UVAHIK_clean_linker_0, # of connection points: 2
#     Edge 47, Type (0, 0), BuildingBlock: UVAHIK_clean_linker_0, # of connection points: 2
# Relax obj value: 0.283
# Max RMSD: 0.316
# Mean RMSD: 0.224
data_MOF--net-ure--node1-QUQFOY_clean_sbu_1--edge1-UVAHIK_clean_linker_0
_symmetry_space_group_name_H-M    P1
_symmetry_Int_Tables_number       1
_symmetry_cell_setting            triclinic
loop_
_symmetry_equiv_pos_as_xyz
'x, y, z'
_cell_length_a     40.027715
_cell_length_b     43.722868
_cell_length_c     41.346393
_cell_angle_alpha  94.319946
_cell_angle_beta   94.346765
_cell_angle_gamma 97.721512
loop_
_atom_site_label
_atom_site_type_symbol
_atom_site_fract_x
_atom_site_fract_y
_atom_site_fract_z
_atom_type_partial_charge
O0 O 0.33453 0.24232 0.28026 0.0
Cd1 Cd 0.28812 0.23796 0.2992 0.0
Cd2 Cd 0.30919 0.30372 0.3138 0.0
O3 O 0.34782 0.29328 0.28635 0.0
O4 O 0.26457 0.19665 0.28039 0.0
O5 O 0.24657 0.2407 0.2694 0.0
C6 C 0.24313 0.21083 0.26469 0.0
C7 C 0.29546 0.35438 0.3143 0.0
C8 C 0.35447 0.26671 0.27636 0.0
C9 C 0.29894 0.26101 0.36921 0.0
O10 O 0.30801 0.2873 0.35905 0.0
O11 O 0.28826 0.2376 0.34921 0.0
O12 O 0.32344 0.34849 0.32813 0.0
O13 O 0.27529 0.33154 0.29886 0.0
O14 O 0.01449 0.9627 0.54343 0.0
Cd15 Cd 0.9969 0.96536 0.49541 0.0
Cd16 Cd 0.9973 0.02546 0.51732 0.0
O17 O 0.0261 0.01303 0.55626 0.0
O18 O 0.00881 0.92823 0.4706 0.0
O19 O 0.03094 0.97614 0.46325 0.0
C20 C 0.02942 0.94667 0.45601 0.0
C21 C 0.00901 0.07568 0.50104 0.0
C22 C 0.02714 0.98546 0.5636 0.0
C23 C 0.92993 0.98606 0.49788 0.0
O24 O 0.94619 0.01003 0.514 0.0
O25 O 0.94562 0.96564 0.48482 0.0
O26 O 0.99779 0.07049 0.52873 0.0
O27 O 0.01507 0.05222 0.48264 0.0
O28 O 0.223 0.79379 0.77576 0.0
Cd29 Cd 0.27263 0.80137 0.79511 0.0
Cd30 Cd 0.26024 0.73626 0.79677 0.0
O31 O 0.21739 0.74274 0.76834 0.0
O32 O 0.29391 0.84023 0.77853 0.0
O33 O 0.30793 0.79397 0.76462 0.0
C34 C 0.31131 0.82339 0.76131 0.0
C35 C 0.27658 0.68655 0.79385 0.0
C36 C 0.20571 0.76806 0.76482 0.0
C37 C 0.27433 0.77995 0.86042 0.0
O38 O 0.26533 0.75365 0.84479 0.0
O39 O 0.2811 0.80391 0.84525 0.0
O40 O 0.249 0.69213 0.80556 0.0
O41 O 0.2944 0.70888 0.78154 0.0
O42 O 0.54749 0.9692 0.92793 0.0
Cd43 Cd 0.49634 0.95519 0.92621 0.0
Cd44 Cd 0.50922 0.951 0.9919 0.0
O45 O 0.55697 0.97007 0.98129 0.0
O46 O 0.47391 0.97588 0.89113 0.0
O47 O 0.46825 0.98608 0.94368 0.0
C48 C 0.46193 0.99206 0.91383 0.0
C49 C 0.49397 0.96291 0.04458 0.0
C50 C 0.56762 0.9747 0.9536 0.0
C51 C 0.4816 0.89238 0.94697 0.0
O52 O 0.49192 0.90559 0.97504 0.0
O53 O 0.48037 0.90808 0.92238 0.0
O54 O 0.51642 0.94519 0.03906 0.0
O55 O 0.48062 0.9751 0.02015 0.0
O56 O 0.28917 0.69496 0.31362 0.0
Cd57 Cd 0.30421 0.74053 0.30484 0.0
Cd58 Cd 0.30155 0.71711 0.24375 0.0
O59 O 0.27724 0.67819 0.26191 0.0
O60 O 0.28941 0.76846 0.33956 0.0
O61 O 0.26952 0.76566 0.28776 0.0
C62 C 0.26947 0.77756 0.31734 0.0
C63 C 0.28144 0.73276 0.19402 0.0
C64 C 0.27758 0.67325 0.29183 0.0
C65 C 0.37014 0.74283 0.27676 0.0
O66 O 0.35344 0.72605 0.25295 0.0
O67 O 0.35494 0.75358 0.30003 0.0
O68 O 0.27844 0.74882 0.22087 0.0
O69 O 0.29467 0.7076 0.19572 0.0
O70 O 0.47675 0.97075 0.40018 0.0
Cd71 Cd 0.49763 0.96974 0.44738 0.0
Cd72 Cd 0.51435 0.03215 0.44419 0.0
O73 O 0.49108 0.02104 0.39778 0.0
O74 O 0.47605 0.93238 0.46654 0.0
O75 O 0.47329 0.98037 0.48648 0.0
C76 C 0.46628 0.95087 0.48861 0.0
C77 C 0.50534 0.07977 0.46932 0.0
C78 C 0.47753 0.9947 0.38442 0.0
C79 C 0.57107 0.99352 0.45582 0.0
O80 O 0.56204 0.0201 0.4535 0.0
O81 O 0.54908 0.96952 0.4538 0.0
O82 O 0.52552 0.07804 0.4467 0.0
O83 O 0.48988 0.05425 0.47805 0.0
O84 O 0.32136 0.35696 0.82878 0.0
Cd85 Cd 0.29999 0.3109 0.82376 0.0
Cd86 Cd 0.28859 0.31908 0.76002 0.0
O87 O 0.31456 0.36211 0.77617 0.0
O88 O 0.31931 0.28789 0.85868 0.0
O89 O 0.32446 0.27713 0.80616 0.0
C90 C 0.32982 0.27061 0.83595 0.0
C91 C 0.30078 0.29964 0.70864 0.0
C92 C 0.32476 0.37353 0.80494 0.0
C93 C 0.22772 0.30308 0.79767 0.0
O94 O 0.23879 0.3097 0.77066 0.0
O95 O 0.24814 0.30184 0.82244 0.0
O96 O 0.30999 0.28667 0.73425 0.0
O97 O 0.28458 0.32296 0.71238 0.0
O98 O 0.019 0.99408 0.91497 0.0
Cd99 Cd 0.99716 0.00284 0.95785 0.0
Cd100 Cd 0.97462 0.93775 0.94783 0.0
O101 O 0.00306 0.94346 0.90856 0.0
O102 O 0.01922 0.0444 0.97737 0.0
O103 O 0.02271 0.00132 0.00147 0.0
C104 C 0.03019 0.03107 0.00203 0.0
C105 C 0.97255 0.88953 0.96963 0.0
C106 C 0.01843 0.96802 0.89886 0.0
C107 C 0.92238 0.98247 0.94967 0.0
O108 O 0.92926 0.95494 0.94667 0.0
O109 O 0.9459 0.00531 0.95468 0.0
O110 O 0.95762 0.89258 0.94167 0.0
O111 O 0.98941 0.91404 0.9855 0.0
O112 O 0.77803 0.18645 0.80628 0.0
Cd113 Cd 0.79642 0.2329 0.80459 0.0
Cd114 Cd 0.80393 0.21503 0.74287 0.0
O115 O 0.77449 0.17514 0.75316 0.0
O116 O 0.77735 0.25769 0.83909 0.0
O117 O 0.76593 0.26142 0.78634 0.0
C118 C 0.76183 0.27025 0.81616 0.0
C119 C 0.79625 0.233 0.69133 0.0
C120 C 0.76923 0.16722 0.78149 0.0
C121 C 0.86701 0.23651 0.78789 0.0
O122 O 0.85402 0.22211 0.76112 0.0
O123 O 0.84816 0.24556 0.80894 0.0
O124 O 0.80868 0.2078 0.6956 0.0
O125 O 0.78655 0.24768 0.71642 0.0
O126 O 0.97737 0.46691 0.89644 0.0
Cd127 Cd 0.99752 0.46769 0.94405 0.0
Cd128 Cd 0.01377 0.52986 0.93837 0.0
O129 O 0.98982 0.51712 0.89244 0.0
O130 O 0.97659 0.43001 0.96301 0.0
O131 O 0.97164 0.47771 0.98229 0.0
C132 C 0.96542 0.44816 0.98446 0.0
C133 C 0.00603 0.57865 0.96183 0.0
C134 C 0.97729 0.49024 0.87983 0.0
C135 C 0.07092 0.49209 0.95166 0.0
O136 O 0.06174 0.51832 0.94744 0.0
O137 O 0.04901 0.46819 0.95139 0.0
O138 O 0.0245 0.57552 0.93799 0.0
O139 O 0.99135 0.55378 0.97259 0.0
O140 O 0.82516 0.85117 0.31902 0.0
Cd141 Cd 0.80398 0.80511 0.31122 0.0
Cd142 Cd 0.79821 0.81554 0.24752 0.0
O143 O 0.82245 0.85833 0.26675 0.0
O144 O 0.82013 0.781 0.34674 0.0
O145 O 0.8298 0.77174 0.29504 0.0
C146 C 0.83254 0.76435 0.32475 0.0
C147 C 0.8145 0.79853 0.1968 0.0
C148 C 0.83026 0.86876 0.29624 0.0
C149 C 0.73375 0.79808 0.27959 0.0
O150 O 0.74731 0.80539 0.25391 0.0
O151 O 0.75201 0.79621 0.30567 0.0
O152 O 0.82185 0.78446 0.22218 0.0
O153 O 0.79794 0.82162 0.20038 0.0
O154 O 0.05007 0.46515 0.41745 0.0
Cd155 Cd -0.00085 0.44987 0.4161 0.0
Cd156 Cd 0.01145 0.45123 0.48305 0.0
O157 O 0.05768 0.47259 0.47104 0.0
O158 O 0.9749 0.46925 0.38112 0.0
O159 O 0.97071 0.48027 0.43385 0.0
C160 C 0.9633 0.4856 0.40396 0.0
C161 C -0.0009 0.4614 0.53718 0.0
C162 C 0.06909 0.47454 0.44326 0.0
C163 C 0.98773 0.38915 0.44139 0.0
O164 O 0.99748 0.40485 0.46836 0.0
O165 O 0.98504 0.4026 0.41533 0.0
O166 O 0.02264 0.44561 0.5297 0.0
O167 O 0.98296 0.47297 0.51394 0.0
O168 O 0.51658 0.46707 0.03869 0.0
Cd169 Cd 0.49779 0.46897 0.99085 0.0
Cd170 Cd 0.4959 0.52888 0.01395 0.0
O171 O 0.52682 0.51744 0.05184 0.0
O172 O 0.50933 0.43134 0.96668 0.0
O173 O 0.53102 0.47892 0.95767 0.0
C174 C 0.52943 0.44935 0.95117 0.0
C175 C 0.50294 0.57955 0.9982 0.0
C176 C 0.52904 0.48994 0.05882 0.0
C177 C 0.42986 0.48721 0.99505 0.0
O178 O 0.44547 0.51111 0.01176 0.0
O179 O 0.44621 0.46795 0.9809 0.0
O180 O 0.49321 0.57324 0.02618 0.0
O181 O 0.5107 0.55711 0.97939 0.0
O182 O 0.8398 0.74561 0.76622 0.0
Cd183 Cd 0.79482 0.73906 0.78767 0.0
Cd184 Cd 0.81079 0.80404 0.80069 0.0
O185 O 0.85014 0.7967 0.77292 0.0
O186 O 0.77243 0.697 0.77001 0.0
O187 O 0.7513 0.7399 0.76003 0.0
C188 C 0.74922 0.7101 0.75547 0.0
C189 C 0.78909 0.85109 0.79753 0.0
C190 C 0.85813 0.77089 0.76216 0.0
C191 C 0.80751 0.76305 0.85751 0.0
O192 O 0.81343 0.78958 0.84689 0.0
O193 O 0.79811 0.7391 0.8379 0.0
O194 O 0.81842 0.84972 0.81187 0.0
O195 O 0.77195 0.82564 0.78395 0.0
O196 O 0.72232 0.28816 0.27883 0.0
Cd197 Cd 0.77301 0.29853 0.29323 0.0
Cd198 Cd 0.76436 0.23311 0.30376 0.0
O199 O 0.71691 0.23753 0.28213 0.0
O200 O 0.78987 0.33657 0.27255 0.0
O201 O 0.80596 0.29083 0.26036 0.0
C202 C 0.80725 0.31978 0.25529 0.0
C203 C 0.77972 0.18299 0.301 0.0
C204 C 0.70437 0.26167 0.27498 0.0
C205 C 0.78847 0.28365 0.36057 0.0
O206 O 0.78077 0.25565 0.34894 0.0
O207 O 0.78717 0.30571 0.34245 0.0
O208 O 0.75612 0.19049 0.3181 0.0
O209 O 0.79396 0.20363 0.28379 0.0
O210 O 0.52232 0.49568 0.40854 0.0
Cd211 Cd 0.49929 0.50421 0.45069 0.0
Cd212 Cd 0.47916 0.43927 0.4417 0.0
O213 O 0.507 0.44497 0.40198 0.0
O214 O 0.52119 0.54518 0.47197 0.0
O215 O 0.52339 0.50111 0.49459 0.0
C216 C 0.5313 0.53089 0.49628 0.0
C217 C 0.47837 0.39192 0.46486 0.0
C218 C 0.52221 0.46969 0.39245 0.0
C219 C 0.42519 0.48262 0.44211 0.0
O220 O 0.43323 0.45547 0.44075 0.0
O221 O 0.44792 0.50614 0.44598 0.0
O222 O 0.46208 0.39408 0.43732 0.0
O223 O 0.49613 0.41665 0.47938 0.0
C224 C 0.19788 0.20855 0.21864 0.0
C225 C 0.21672 0.19325 0.24075 0.0
C226 C 0.17533 0.1916 0.1941 0.0
C227 C 0.12735 0.11382 0.16936 0.0
H228 H 0.13278 0.13916 0.08184 0.0
C229 C 0.06502 0.03526 0.05582 0.0
C230 C 0.05037 0.04962 0.0301 0.0
C231 C 0.08403 0.05308 0.0822 0.0
C232 C 0.13051 0.13196 0.10616 0.0
H233 H 0.22574 0.14814 0.25513 0.0
H234 H 0.18638 0.11871 0.21256 0.0
H235 H 0.16666 0.17021 0.12716 0.0
H236 H 0.04382 0.094 0.01216 0.0
H237 H 0.07625 0.12493 0.05823 0.0
H238 H 0.09116 0.07559 0.14842 0.0
C239 C 0.18894 0.14376 0.21416 0.0
C240 C 0.14997 0.14981 0.13217 0.0
C241 C 0.21165 0.16068 0.23848 0.0
C242 C 0.05496 0.08216 0.03144 0.0
C243 C 0.07375 0.09994 0.05784 0.0
C244 C 0.10772 0.09604 0.14337 0.0
C245 C 0.17092 0.159 0.19135 0.0
C246 C 0.14879 0.14086 0.16404 0.0
C247 C 0.08867 0.08567 0.08353 0.0
C248 C 0.10918 0.10478 0.11138 0.0
H249 H 0.20121 0.23362 0.21972 0.0
H250 H 0.16151 0.20401 0.1771 0.0
H251 H 0.1256 0.10648 0.19369 0.0
H252 H 0.06203 0.01025 0.05549 0.0
H253 H 0.09551 0.04126 0.10131 0.0
C254 C 0.07908 0.95308 0.42221 0.0
C255 C 0.05188 0.93399 0.43317 0.0
C256 C 0.10235 0.94021 0.40357 0.0
C257 C 0.11606 0.86857 0.35491 0.0
H258 H 0.21054 0.89429 0.38483 0.0
C259 C 0.24789 0.81372 0.35799 0.0
C260 C 0.24665 0.80036 0.32585 0.0
C261 C 0.22526 0.83397 0.36665 0.0
C262 C 0.18427 0.8869 0.37614 0.0
H263 H 0.02686 0.88665 0.4319 0.0
H264 H 0.06728 0.86433 0.39966 0.0
H265 H 0.1674 0.92218 0.40701 0.0
H266 H 0.22122 0.79845 0.27737 0.0
H267 H 0.18161 0.83393 0.29255 0.0
H268 H 0.1328 0.83239 0.32517 0.0
C269 C 0.07066 0.88922 0.40521 0.0
C270 C 0.15957 0.90311 0.38856 0.0
C271 C 0.04759 0.90202 0.42393 0.0
C272 C 0.22275 0.80827 0.30237 0.0
C273 C 0.19997 0.82849 0.31108 0.0
C274 C 0.14077 0.8524 0.34243 0.0
C275 C 0.09869 0.90805 0.39533 0.0
C276 C 0.12511 0.89364 0.37871 0.0
C277 C 0.20077 0.84133 0.34341 0.0
C278 C 0.17508 0.8609 0.35352 0.0
H279 H 0.08304 0.97781 0.42889 0.0
H280 H 0.12351 0.95537 0.39605 0.0
H281 H 0.08976 0.86094 0.34653 0.0
H282 H 0.266 0.80814 0.37668 0.0
H283 H 0.22628 0.84307 0.39186 0.0
C284 C 0.43932 0.95839 0.54105 0.0
C285 C 0.44921 0.93843 0.51641 0.0
C286 C 0.42527 0.94652 0.5683 0.0
C287 C 0.42137 0.87811 0.61588 0.0
H288 H 0.34414 0.90955 0.65059 0.0
C289 C 0.34571 0.81834 0.71339 0.0
C290 C 0.33229 0.83723 0.73667 0.0
C291 C 0.36196 0.83129 0.68778 0.0
C292 C 0.36605 0.90081 0.64155 0.0
H293 H 0.45148 0.89029 0.50081 0.0
H294 H 0.42684 0.86968 0.54812 0.0
H295 H 0.36755 0.93103 0.60309 0.0
H296 H 0.32684 0.88468 0.7522 0.0
H297 H 0.35577 0.90726 0.70808 0.0
H298 H 0.41993 0.84792 0.65433 0.0
C299 C 0.43032 0.89451 0.54662 0.0
C300 C 0.3794 0.9131 0.61424 0.0
C301 C 0.44421 0.90634 0.51936 0.0
C302 C 0.33669 0.86943 0.73455 0.0
C303 C 0.35304 0.88237 0.70907 0.0
C304 C 0.40809 0.86589 0.64327 0.0
C305 C 0.42097 0.91446 0.57156 0.0
C306 C 0.40711 0.90179 0.60097 0.0
C307 C 0.36527 0.86342 0.68497 0.0
C308 C 0.38017 0.877 0.65639 0.0
H309 H 0.44291 0.98322 0.53957 0.0
H310 H 0.41854 0.96252 0.5872 0.0
H311 H 0.44307 0.86923 0.60657 0.0
H312 H 0.34261 0.79343 0.71424 0.0
H313 H 0.3708 0.81594 0.66953 0.0
C314 C 0.43429 0.03825 0.9307 0.0
C315 C 0.44378 0.01827 0.90586 0.0
C316 C 0.42065 0.06495 0.92322 0.0
C317 C 0.38102 0.1026 0.85561 0.0
H318 H 0.41575 0.17841 0.90934 0.0
C319 C 0.35432 0.22256 0.81902 0.0
C320 C 0.34571 0.24308 0.84385 0.0
C321 C 0.36672 0.19527 0.82651 0.0
C322 C 0.40554 0.15741 0.89427 0.0
H323 H 0.44525 0.0101 0.8536 0.0
H324 H 0.42163 0.05663 0.84063 0.0
H325 H 0.43432 0.12974 0.92293 0.0
H326 H 0.34407 0.25133 0.89608 0.0
H327 H 0.36548 0.20379 0.90908 0.0
H328 H 0.35229 0.13032 0.82691 0.0
C329 C 0.4245 0.05162 0.86586 0.0
C330 C 0.41611 0.12947 0.90212 0.0
C331 C 0.43818 0.02498 0.87334 0.0
C332 C 0.35054 0.23608 0.87635 0.0
C333 C 0.36296 0.20885 0.88384 0.0
C334 C 0.37044 0.13055 0.84776 0.0
C335 C 0.41612 0.07222 0.89074 0.0
C336 C 0.404 0.10173 0.88288 0.0
C337 C 0.37084 0.18793 0.859 0.0
C338 C 0.38258 0.15829 0.867 0.0
H339 H 0.43822 0.03373 0.95601 0.0
H340 H 0.41394 0.08009 0.94292 0.0
H341 H 0.3709 0.0816 0.8405 0.0
H342 H 0.35093 0.22729 0.79373 0.0
H343 H 0.37303 0.17987 0.80684 0.0
C344 C 0.73926 0.30584 0.85657 0.0
C345 C 0.73976 0.29385 0.82414 0.0
C346 C 0.71771 0.32727 0.86462 0.0
C347 C 0.6813 0.38346 0.87316 0.0
H348 H 0.58703 0.36278 0.84014 0.0
C349 C 0.57928 0.4544 0.91756 0.0
C350 C 0.55126 0.43607 0.92811 0.0
C351 C 0.60206 0.44078 0.89894 0.0
C352 C 0.61331 0.36897 0.8494 0.0
H353 H 0.7184 0.29537 0.77458 0.0
H354 H 0.68034 0.33276 0.78879 0.0
H355 H 0.62887 0.33222 0.81949 0.0
H356 H 0.52418 0.38943 0.92599 0.0
H357 H 0.56368 0.36582 0.89361 0.0
H358 H 0.66556 0.41934 0.9041 0.0
C359 C 0.69671 0.32546 0.80793 0.0
C360 C 0.63731 0.35164 0.83738 0.0
C361 C 0.71855 0.30415 0.79981 0.0
C362 C 0.54559 0.40418 0.91836 0.0
C363 C 0.56812 0.39066 0.89956 0.0
C364 C 0.65735 0.40089 0.88505 0.0
C365 C 0.69595 0.33712 0.84047 0.0
C366 C 0.67141 0.35816 0.8498 0.0
C367 C 0.59701 0.40865 0.89023 0.0
C368 C 0.62295 0.3933 0.87395 0.0
H369 H 0.75533 0.29845 0.8759 0.0
H370 H 0.7174 0.33546 0.88997 0.0
H371 H 0.70747 0.38926 0.88291 0.0
H372 H 0.58431 0.47904 0.92468 0.0
H373 H 0.62397 0.45526 0.89188 0.0
C374 C 0.94335 0.40322 0.01453 0.0
C375 C 0.94744 0.43528 0.01151 0.0
C376 C 0.92829 0.39096 0.041 0.0
C377 C 0.90913 0.41287 0.12505 0.0
H378 H 0.84983 0.33435 0.11349 0.0
C379 C 0.82922 0.36513 0.2257 0.0
C380 C 0.82662 0.33321 0.22937 0.0
C381 C 0.84522 0.37767 0.19984 0.0
C382 C 0.86667 0.35611 0.11718 0.0
H383 H 0.93827 0.4796 0.03364 0.0
H384 H 0.91135 0.45813 0.07964 0.0
H385 H 0.87356 0.3564 0.0664 0.0
H386 H 0.83946 0.28951 0.20914 0.0
H387 H 0.86751 0.31146 0.16394 0.0
H388 H 0.90187 0.41266 0.17584 0.0
C389 C 0.92037 0.4425 0.06178 0.0
C390 C 0.88026 0.36879 0.09018 0.0
C391 C 0.93556 0.45479 0.03529 0.0
C392 C 0.84104 0.31419 0.20699 0.0
C393 C 0.85688 0.32672 0.18097 0.0
C394 C 0.89541 0.40025 0.15203 0.0
C395 C 0.9168 0.41044 0.06509 0.0
C396 C 0.90171 0.39731 0.09376 0.0
C397 C 0.85884 0.35855 0.17693 0.0
C398 C 0.87406 0.3717 0.14841 0.0
H399 H 0.95236 0.38752 0.99673 0.0
H400 H 0.92642 0.36624 0.04295 0.0
H401 H 0.92601 0.4346 0.12881 0.0
H402 H 0.81837 0.38044 0.2425 0.0
H403 H 0.84604 0.40222 0.19726 0.0
C404 C 0.93466 0.53112 0.421 0.0
C405 C 0.94452 0.51145 0.3961 0.0
C406 C 0.92064 0.55768 0.41364 0.0
C407 C 0.88155 0.59573 0.34579 0.0
H408 H 0.91471 0.67116 0.40074 0.0
C409 C 0.85741 0.71625 0.30885 0.0
C410 C 0.84768 0.73658 0.33323 0.0
C411 C 0.86916 0.68877 0.31674 0.0
C412 C 0.90494 0.65025 0.38533 0.0
H413 H 0.94622 0.50365 0.34383 0.0
H414 H 0.92209 0.54994 0.33108 0.0
H415 H 0.9331 0.62243 0.41438 0.0
H416 H 0.84338 0.7443 0.38512 0.0
H417 H 0.86383 0.69647 0.39881 0.0
H418 H 0.85362 0.62368 0.31659 0.0
C419 C 0.92487 0.5448 0.35627 0.0
C420 C 0.91539 0.62227 0.39321 0.0
C421 C 0.93885 0.51827 0.36362 0.0
C422 C 0.85073 0.72919 0.36574 0.0
C423 C 0.86258 0.7018 0.37363 0.0
C424 C 0.87116 0.62373 0.33788 0.0
C425 C 0.91616 0.56515 0.38123 0.0
C426 C 0.90389 0.59466 0.3735 0.0
C427 C 0.87157 0.68109 0.34919 0.0
C428 C 0.88281 0.65134 0.3575 0.0
H429 H 0.9386 0.5265 0.44627 0.0
H430 H 0.91367 0.57257 0.43341 0.0
H431 H 0.87183 0.57485 0.33032 0.0
H432 H 0.85538 0.72125 0.28357 0.0
H433 H 0.87635 0.67352 0.2974 0.0
C434 C 0.55614 0.58096 0.52784 0.0
C435 C 0.55126 0.54838 0.52511 0.0
C436 C 0.57513 0.5977 0.55477 0.0
C437 C 0.64221 0.59145 0.61855 0.0
H438 H 0.61268 0.66454 0.66 0.0
C439 C 0.71832 0.6589 0.73148 0.0
C440 C 0.7223 0.69141 0.73288 0.0
C441 C 0.69515 0.64096 0.70827 0.0
C442 C 0.62149 0.64438 0.64852 0.0
H443 H 0.5624 0.50783 0.54871 0.0
H444 H 0.59585 0.53714 0.59575 0.0
H445 H 0.57688 0.63402 0.61533 0.0
H446 H 0.70441 0.73062 0.71149 0.0
H447 H 0.66443 0.69937 0.67047 0.0
H448 H 0.68713 0.60206 0.65102 0.0
C449 C 0.58499 0.54969 0.57691 0.0
C450 C 0.60091 0.62685 0.62295 0.0
C451 C 0.56573 0.5329 0.55005 0.0
C452 C 0.70184 0.70562 0.71113 0.0
C453 C 0.67881 0.68765 0.68768 0.0
C454 C 0.66288 0.60907 0.64394 0.0
C455 C 0.58994 0.58229 0.57955 0.0
C456 C 0.61111 0.60026 0.60758 0.0
C457 C 0.67555 0.65506 0.68561 0.0
C458 C 0.65287 0.63585 0.65922 0.0
H459 H 0.54532 0.59363 0.50909 0.0
H460 H 0.57879 0.62277 0.55587 0.0
H461 H 0.65104 0.57136 0.60691 0.0
H462 H 0.73348 0.6472 0.74807 0.0
H463 H 0.69283 0.61598 0.70794 0.0
C464 C 0.31486 0.2844 0.42608 0.0
C465 C 0.30271 0.25803 0.40473 0.0
C466 C 0.3202 0.28211 0.45941 0.0
C467 C 0.29385 0.23518 0.525 0.0
H468 H 0.36821 0.28987 0.57349 0.0
C469 C 0.31045 0.25745 0.66708 0.0
C470 C 0.30864 0.28885 0.67581 0.0
C471 C 0.31508 0.24753 0.63486 0.0
C472 C 0.34764 0.27412 0.56025 0.0
H473 H 0.28645 0.20845 0.40188 0.0
H474 H 0.29566 0.20451 0.46067 0.0
H475 H 0.36619 0.2829 0.51424 0.0
H476 H 0.31169 0.3346 0.65843 0.0
H477 H 0.32087 0.31751 0.60277 0.0
H478 H 0.27495 0.22726 0.57133 0.0
C479 C 0.30102 0.22696 0.4513 0.0
C480 C 0.34629 0.27029 0.52637 0.0
C481 C 0.29571 0.22923 0.41768 0.0
C482 C 0.31284 0.31025 0.6523 0.0
C483 C 0.31829 0.30052 0.62053 0.0
C484 C 0.29543 0.23877 0.55905 0.0
C485 C 0.31359 0.2534 0.47247 0.0
C486 C 0.31855 0.25196 0.50828 0.0
C487 C 0.31897 0.26907 0.61138 0.0
C488 C 0.32159 0.2593 0.57678 0.0
H489 H 0.32043 0.30701 0.41711 0.0
H490 H 0.32905 0.3031 0.47503 0.0
H491 H 0.27214 0.22094 0.51179 0.0
H492 H 0.30712 0.24052 0.68481 0.0
H493 H 0.3154 0.22314 0.62822 0.0
C494 C 0.03212 0.93775 0.84881 0.0
C495 C 0.03287 0.96646 0.86688 0.0
C496 C 0.04102 0.93642 0.81675 0.0
C497 C 0.08015 0.9831 0.75409 0.0
H498 H 0.01345 0.92989 0.69479 0.0
C499 C 0.0512 0.00524 0.62017 0.0
C500 C 0.03993 0.98004 0.597 0.0
C501 C 0.05841 1.00046 0.65284 0.0
C502 C 0.03282 0.94439 0.71091 0.0
H503 H 0.04563 0.01619 0.86598 0.0
H504 H 0.06068 0.01388 0.80997 0.0
H505 H 0.0118 0.92719 0.75306 0.0
H506 H 0.02974 0.92988 0.58967 0.0
H507 H 0.04274 0.92155 0.64668 0.0
H508 H 0.10041 0.00101 0.71172 0.0
C509 C 0.0535 0.99236 0.82066 0.0
C510 C 0.03185 0.94286 0.74443 0.0
C511 C 0.04467 0.99369 0.85277 0.0
C512 C 0.03807 0.94984 0.60692 0.0
C513 C 0.04534 0.94506 0.63964 0.0
C514 C 0.08114 0.98461 0.72048 0.0
C515 C 0.05082 0.96375 0.80196 0.0
C516 C 0.055 0.9627 0.76646 0.0
C517 C 0.05461 0.97037 0.66315 0.0
C518 C 0.05696 0.96579 0.69851 0.0
H519 H 0.02351 0.91627 0.859 0.0
H520 H 0.03928 0.91398 0.80322 0.0
H521 H 0.09867 0.99836 0.7704 0.0
H522 H 0.05306 0.02882 0.6134 0.0
H523 H 0.06517 0.02052 0.67026 0.0
C524 C 0.26902 0.75433 0.91189 0.0
C525 C 0.27472 0.78188 0.89641 0.0
C526 C 0.26583 0.75512 0.94518 0.0
C527 C 0.28673 0.80067 0.02295 0.0
H528 H 0.21519 0.74097 0.04909 0.0
C529 C 0.27214 0.77504 0.1579 0.0
C530 C 0.27204 0.74338 0.16195 0.0
C531 C 0.2676 0.78508 0.12665 0.0
C532 C 0.23511 0.75793 0.0422 0.0
H533 H 0.28295 0.83203 0.90427 0.0
H534 H 0.27772 0.83336 0.96327 0.0
H535 H 0.21786 0.74955 0.99172 0.0
H536 H 0.26559 0.69736 0.13688 0.0
H537 H 0.25689 0.71468 0.08271 0.0
H538 H 0.30464 0.80808 0.07359 0.0
C539 C 0.27546 0.81118 0.94914 0.0
C540 C 0.2367 0.7628 0.0094 0.0
C541 C 0.2785 0.81041 0.91546 0.0
C542 C 0.26581 0.72189 0.13449 0.0
C543 C 0.26067 0.73181 0.10348 0.0
C544 C 0.28507 0.79584 0.05596 0.0
C545 C 0.26831 0.78347 0.9641 0.0
C546 C 0.26331 0.78324 0.99928 0.0
C547 C 0.26212 0.76351 0.09914 0.0
C548 C 0.25998 0.77351 0.06567 0.0
H549 H 0.26638 0.73188 0.89821 0.0
H550 H 0.26126 0.73337 0.95614 0.0
H551 H 0.3075 0.81655 0.01581 0.0
H552 H 0.27714 0.79211 0.17869 0.0
H553 H 0.26878 0.80963 0.12392 0.0
C554 C 0.46028 0.01812 0.33338 0.0
C555 C 0.46582 0.99174 0.34934 0.0
C556 C 0.45408 0.0162 0.2995 0.0
C557 C 0.43674 0.95993 0.22512 0.0
H558 H 0.48544 0.02734 0.18423 0.0
C559 C 0.48881 0.94602 0.10032 0.0
C560 C 0.48337 0.96777 0.07783 0.0
C561 C 0.47941 0.95008 0.13196 0.0
C562 C 0.47122 0.0086 0.19526 0.0
H563 H 0.46773 0.9424 0.34239 0.0
H564 H 0.45815 0.93916 0.28344 0.0
H565 H 0.48166 0.03207 0.24285 0.0
H566 H 0.46364 0.01079 0.07075 0.0
H567 H 0.44818 0.01853 0.12697 0.0
H568 H 0.42841 0.93577 0.17749 0.0
C569 C 0.45772 0.96128 0.29694 0.0
C570 C 0.46889 0.01128 0.2289 0.0
C571 C 0.4634 0.96312 0.33085 0.0
C572 C 0.46811 0.99369 0.08761 0.0
C573 C 0.45932 0.99811 0.11967 0.0
C574 C 0.43954 0.9571 0.19157 0.0
C575 C 0.4538 0.98795 0.2807 0.0
C576 C 0.45231 0.98667 0.24443 0.0
C577 C 0.46487 0.97626 0.14206 0.0
C578 C 0.45744 0.98113 0.17647 0.0
H579 H 0.46161 0.04047 0.347 0.0
H580 H 0.45035 0.03708 0.28802 0.0
H581 H 0.42306 0.9408 0.23599 0.0
H582 H 0.50032 0.9257 0.09345 0.0
H583 H 0.48434 0.9331 0.14884 0.0
C584 C 0.3964 0.23453 0.25457 0.0
C585 C 0.38728 0.2639 0.26286 0.0
C586 C 0.42915 0.2316 0.2465 0.0
C587 C 0.50965 0.27496 0.22525 0.0
H588 H 0.55058 0.2163 0.27572 0.0
C589 C 0.65287 0.2861 0.26002 0.0
C590 C 0.668 0.25922 0.26373 0.0
C591 C 0.61801 0.28409 0.25242 0.0
C592 C 0.53953 0.23232 0.26083 0.0
H593 H 0.40481 0.31334 0.26697 0.0
H594 H 0.46195 0.30817 0.25312 0.0
H595 H 0.49006 0.21742 0.2748 0.0
H596 H 0.65856 0.20899 0.26052 0.0
H597 H 0.59777 0.20547 0.24672 0.0
H598 H 0.55941 0.29037 0.21196 0.0
C599 C 0.44375 0.28741 0.25274 0.0
C600 C 0.50474 0.23298 0.26033 0.0
C601 C 0.41101 0.29035 0.26088 0.0
C602 C 0.64768 0.23018 0.25819 0.0
C603 C 0.6128 0.22817 0.2504 0.0
C604 C 0.5445 0.27421 0.22562 0.0
C605 C 0.45346 0.25796 0.24644 0.0
C606 C 0.48952 0.25476 0.24315 0.0
C607 C 0.59744 0.25513 0.24814 0.0
C608 C 0.55997 0.25336 0.24406 0.0
H609 H 0.37868 0.21367 0.25554 0.0
H610 H 0.43576 0.20863 0.24126 0.0
H611 H 0.49855 0.29174 0.21145 0.0
H612 H 0.66774 0.30886 0.26406 0.0
H613 H 0.60706 0.30537 0.25131 0.0
C614 C 0.9803 0.34123 0.47042 0.0
C615 C 0.98339 0.35494 0.44092 0.0
C616 C 0.98327 0.31003 0.4722 0.0
C617 C 0.98134 0.23431 0.42778 0.0
H618 H 0.04465 0.2225 0.50008 0.0
C619 C 0.01441 0.11291 0.45752 0.0
C620 C 0.01256 0.10744 0.49047 0.0
C621 C 0.01376 0.14285 0.44763 0.0
C622 C 0.02686 0.22535 0.47982 0.0
H623 H 0.98942 0.346 0.38954 0.0
H624 H 0.99436 0.29084 0.39269 0.0
H625 H 0.03459 0.2746 0.48939 0.0
H626 H 0.00972 0.12914 0.53894 0.0
H627 H 0.00878 0.18088 0.52188 0.0
H628 H 0.97291 0.18474 0.41893 0.0
C629 C 0.98985 0.30459 0.41441 0.0
C630 C 0.02108 0.25518 0.47372 0.0
C631 C 0.98692 0.33608 0.41261 0.0
C632 C 0.01122 0.13254 0.51337 0.0
C633 C 0.01086 0.1623 0.50359 0.0
C634 C 0.98703 0.20425 0.43402 0.0
C635 C 0.98938 0.29167 0.44454 0.0
C636 C 0.99759 0.25996 0.44824 0.0
C637 C 0.01172 0.16781 0.4706 0.0
C638 C 0.00918 0.19946 0.4607 0.0
H639 H 0.97708 0.35496 0.49261 0.0
H640 H 0.98195 0.30047 0.49557 0.0
H641 H 0.96318 0.2374 0.40792 0.0
H642 H 0.01526 0.09396 0.43929 0.0
H643 H 0.01465 0.14644 0.42206 0.0
C644 C 0.8999 0.74168 0.73553 0.0
C645 C 0.89073 0.77002 0.74761 0.0
C646 C 0.93257 0.74009 0.72646 0.0
C647 C 0.01362 0.78734 0.71123 0.0
H648 H 0.05338 0.72171 0.75112 0.0
C649 C 0.15566 0.79476 0.75055 0.0
C650 C 0.17058 0.76742 0.75036 0.0
C651 C 0.12124 0.79367 0.74112 0.0
C652 C 0.04267 0.73979 0.73912 0.0
H653 H 0.90805 0.8193 0.75749 0.0
H654 H 0.96512 0.81642 0.74222 0.0
H655 H 0.99289 0.72238 0.75036 0.0
H656 H 0.16151 0.71774 0.73778 0.0
H657 H 0.10155 0.71592 0.72089 0.0
H658 H 0.06387 0.80533 0.70111 0.0
C659 C 0.94701 0.79544 0.73944 0.0
C660 C 0.00786 0.74018 0.73869 0.0
C661 C 0.91429 0.79705 0.74841 0.0
C662 C 0.15075 0.7392 0.7386 0.0
C663 C 0.11634 0.73813 0.72904 0.0
C664 C 0.04854 0.78694 0.71164 0.0
C665 C 0.95684 0.76678 0.72936 0.0
C666 C 0.993 0.76433 0.72543 0.0
C667 C 0.10096 0.76522 0.73113 0.0
C668 C 0.06356 0.76354 0.72629 0.0
H669 H 0.88225 0.72046 0.73421 0.0
H670 H 0.93917 0.71776 0.71819 0.0
H671 H 0.00286 0.80604 0.70044 0.0
H672 H 0.17019 0.81693 0.75935 0.0
H673 H 0.11022 0.81495 0.74334 0.0
C674 C 0.49295 0.63424 0.00904 0.0
C675 C 0.50208 0.61101 0.98746 0.0
C676 C 0.48761 0.66282 0.99842 0.0
C677 C 0.50602 0.71699 0.937 0.0
H678 H 0.42702 0.74953 0.96665 0.0
C679 C 0.47903 0.84106 0.91444 0.0
C680 C 0.47392 0.85822 0.94336 0.0
C681 C 0.47755 0.80877 0.91346 0.0
C682 C 0.44911 0.74074 0.95807 0.0
H683 H 0.51419 0.60008 0.93805 0.0
H684 H 0.50521 0.65063 0.91949 0.0
H685 H 0.43631 0.69718 0.97757 0.0
H686 H 0.46115 0.85497 0.99313 0.0
H687 H 0.45814 0.79904 0.99132 0.0
H688 H 0.51945 0.76114 0.91859 0.0
C689 C 0.50202 0.6464 0.94462 0.0
C690 C 0.45448 0.71081 0.96438 0.0
C691 C 0.50721 0.61754 0.95526 0.0
C692 C 0.46529 0.84239 0.97052 0.0
C693 C 0.46339 0.81027 0.96941 0.0
C694 C 0.50067 0.74709 0.93072 0.0
C695 C 0.49135 0.66902 0.96597 0.0
C696 C 0.48356 0.699 0.95491 0.0
C697 C 0.47036 0.79314 0.94119 0.0
C698 C 0.47272 0.75961 0.94216 0.0
H699 H 0.48901 0.63014 0.03407 0.0
H700 H 0.48022 0.68006 0.01565 0.0
H701 H 0.52864 0.70847 0.92942 0.0
H702 H 0.48591 0.8527 0.89319 0.0
H703 H 0.48281 0.79612 0.89131 0.0
C704 C 0.68093 0.77814 0.30468 0.0
C705 C 0.69645 0.79242 0.27927 0.0
C706 C 0.64569 0.7732 0.30451 0.0
C707 C 0.5719 0.78056 0.30811 0.0
H708 H 0.51707 0.75925 0.22613 0.0
C709 C 0.42607 0.77271 0.29929 0.0
C710 C 0.40743 0.74935 0.27738 0.0
C711 C 0.46131 0.77872 0.29959 0.0
C712 C 0.53195 0.76487 0.24932 0.0
H713 H 0.68719 0.81311 0.23395 0.0
H714 H 0.62591 0.80539 0.23413 0.0
H715 H 0.57829 0.76689 0.22665 0.0
H716 H 0.41118 0.71364 0.23898 0.0
H717 H 0.47244 0.72339 0.24018 0.0
H718 H 0.5255 0.77717 0.3309 0.0
C719 C 0.64081 0.79719 0.25379 0.0
C720 C 0.56715 0.76973 0.24956 0.0
C721 C 0.67601 0.80177 0.25375 0.0
C722 C 0.42476 0.732 0.25597 0.0
C723 C 0.45994 0.73775 0.25652 0.0
C724 C 0.53666 0.77536 0.30791 0.0
C725 C 0.62516 0.78277 0.27912 0.0
C726 C 0.58762 0.77765 0.27895 0.0
C727 C 0.4787 0.76127 0.27822 0.0
C728 C 0.51622 0.76739 0.2785 0.0
H729 H 0.69599 0.77051 0.3246 0.0
H730 H 0.63456 0.76153 0.32413 0.0
H731 H 0.58679 0.78706 0.33117 0.0
H732 H 0.41342 0.78659 0.31598 0.0
H733 H 0.47485 0.79732 0.31629 0.0
C734 C 0.46746 0.11565 0.49206 0.0
C735 C 0.49963 0.11037 0.48353 0.0
C736 C 0.46113 0.14589 0.50033 0.0
C737 C 0.50004 0.22579 0.52617 0.0
H738 H 0.43518 0.25027 0.46225 0.0
C739 C 0.50547 0.35198 0.49348 0.0
C740 C 0.47654 0.36173 0.47869 0.0
C741 C 0.50441 0.32153 0.50214 0.0
C742 C 0.45272 0.24406 0.48104 0.0
H743 H 0.55091 0.13188 0.47917 0.0
H744 H 0.54015 0.18442 0.49466 0.0
H745 H 0.43991 0.19586 0.46517 0.0
H746 H 0.4232 0.34861 0.4638 0.0
H747 H 0.42056 0.2964 0.48088 0.0
H748 H 0.513 0.27385 0.5422 0.0
C749 C 0.51977 0.1654 0.49459 0.0
C750 C 0.45544 0.21269 0.48256 0.0
C751 C 0.52586 0.1354 0.48554 0.0
C752 C 0.446 0.34139 0.47474 0.0
C753 C 0.44464 0.31133 0.48429 0.0
C754 C 0.49683 0.2572 0.52519 0.0
C755 C 0.48714 0.17105 0.50108 0.0
C756 C 0.47985 0.20337 0.50438 0.0
C757 C 0.47411 0.30049 0.49695 0.0
C758 C 0.47395 0.26691 0.5018 0.0
H759 H 0.4468 0.09671 0.49051 0.0
H760 H 0.43573 0.14976 0.50514 0.0
H761 H 0.51898 0.21908 0.54333 0.0
H762 H 0.52933 0.36729 0.49662 0.0
H763 H 0.52782 0.31422 0.51136 0.0
C764 C 0.17793 0.28173 0.82638 0.0
C765 C 0.19084 0.29703 0.8003 0.0
C766 C 0.14302 0.27573 0.82859 0.0
C767 C 0.06282 0.30184 0.80344 0.0
H768 H 0.02224 0.21757 0.81261 0.0
C769 C 0.91977 0.26699 0.81693 0.0
C770 C 0.90424 0.24292 0.79402 0.0
C771 C 0.95507 0.27393 0.82115 0.0
C772 C 0.03331 0.24122 0.81025 0.0
H773 H 0.17733 0.31852 0.75644 0.0
H774 H 0.11638 0.30845 0.76067 0.0
H775 H 0.08381 0.22983 0.81336 0.0
H776 H 0.91341 0.20667 0.75835 0.0
H777 H 0.97492 0.21842 0.76627 0.0
H778 H 0.01226 0.31314 0.80002 0.0
C779 C 0.13332 0.30103 0.77927 0.0
C780 C 0.06844 0.24825 0.81084 0.0
C781 C 0.16816 0.30658 0.77675 0.0
C782 C 0.92464 0.22543 0.77609 0.0
C783 C 0.95983 0.23201 0.78074 0.0
C784 C 0.0277 0.2949 0.80338 0.0
C785 C 0.12044 0.2854 0.80509 0.0
C786 C 0.08346 0.27851 0.8069 0.0
C787 C 0.97536 0.25652 0.80303 0.0
C788 C 0.01263 0.26443 0.80623 0.0
H789 H 0.19477 0.27405 0.84487 0.0
H790 H 0.13367 0.26372 0.84878 0.0
H791 H 0.07386 0.32538 0.80056 0.0
H792 H 0.90467 0.28091 0.83101 0.0
H793 H 0.96653 0.2929 0.83856 0.0
C794 C 0.9496 0.83329 0.96525 0.0
C795 C 0.97078 0.8586 0.98222 0.0
C796 C 0.94989 0.80343 0.97484 0.0
C797 C 0.00825 0.75787 0.01492 0.0
H798 H 0.93174 0.6928 0.99607 0.0
C799 C 0.97646 0.6148 0.9963 0.0
C800 C 0.00196 0.60999 0.97567 0.0
C801 C 0.97169 0.64498 0.00713 0.0
C802 C 0.95327 0.71067 0.00215 0.0
H803 H 0.0073 0.87268 0.02385 0.0
H804 H 0.0078 0.82027 0.04077 0.0
H805 H 0.92253 0.7469 0.99833 0.0
H806 H 0.04326 0.63289 0.95131 0.0
H807 H 0.03497 0.68496 0.96992 0.0
H808 H 0.03907 0.72167 0.01789 0.0
C809 C 0.99129 0.82357 0.01971 0.0
C810 C 0.94805 0.74171 0.00311 0.0
C811 C 0.99096 0.85359 0.01009 0.0
C812 C 0.02328 0.63576 0.96707 0.0
C813 C 0.01874 0.66569 0.97804 0.0
C814 C 0.01344 0.72689 0.01407 0.0
C815 C 0.97136 0.79803 0.00169 0.0
C816 C 0.97566 0.76567 0.00807 0.0
C817 C 0.99267 0.67075 0.99785 0.0
C818 C 0.98621 0.70297 0.0062 0.0
H819 H 0.93345 0.83636 0.94385 0.0
H820 H 0.93448 0.7844 0.96009 0.0
H821 H 0.03016 0.7756 0.01873 0.0
H822 H 0.95967 0.59536 0.00336 0.0
H823 H 0.95143 0.64817 0.02244 0.0
C824 C 0.26313 0.39586 0.2946 0.0
C825 C 0.287 0.38633 0.31693 0.0
C826 C 0.25686 0.4267 0.29656 0.0
C827 C 0.2976 0.50497 0.33074 0.0
H828 H 0.21092 0.52895 0.30261 0.0
C829 C 0.27946 0.63294 0.33169 0.0
C830 C 0.26837 0.64123 0.30089 0.0
C831 C 0.2763 0.6018 0.33822 0.0
C832 C 0.23521 0.52251 0.31066 0.0
H833 H 0.32153 0.40106 0.35997 0.0
H834 H 0.30977 0.4542 0.3641 0.0
H835 H 0.21605 0.47409 0.30582 0.0
H836 H 0.24286 0.62353 0.25369 0.0
H837 H 0.23693 0.56924 0.26533 0.0
H838 H 0.3167 0.55333 0.33559 0.0
C839 C 0.29676 0.4384 0.3443 0.0
C840 C 0.23825 0.49111 0.3123 0.0
C841 C 0.30342 0.40784 0.342 0.0
C842 C 0.25184 0.61791 0.2776 0.0
C843 C 0.24827 0.58682 0.2843 0.0
C844 C 0.29442 0.53626 0.32952 0.0
C845 C 0.27396 0.44849 0.32121 0.0
C846 C 0.26966 0.48189 0.32183 0.0
C847 C 0.26153 0.57839 0.31426 0.0
C848 C 0.26337 0.54535 0.31899 0.0
H849 H 0.25007 0.37976 0.27506 0.0
H850 H 0.23942 0.43361 0.2781 0.0
H851 H 0.32235 0.49893 0.33765 0.0
H852 H 0.29227 0.6503 0.35019 0.0
H853 H 0.28647 0.59591 0.36162 0.0
C854 C 0.76406 0.12164 0.81491 0.0
C855 C 0.75652 0.13446 0.78553 0.0
C856 C 0.7576 0.08962 0.81688 0.0
C857 C 0.74769 0.01724 0.76233 0.0
H858 H 0.73505 0.97902 0.84291 0.0
C859 C 0.75133 0.88633 0.77297 0.0
C860 C 0.7759 0.88107 0.79725 0.0
C861 C 0.74102 0.91565 0.77185 0.0
C862 C 0.73842 0.98943 0.82023 0.0
H863 H 0.73359 0.12412 0.73604 0.0
H864 H 0.72095 0.06851 0.73983 0.0
H865 H 0.72966 0.03382 0.84055 0.0
H866 H 0.80765 0.90178 0.84029 0.0
H867 H 0.78917 0.95257 0.83867 0.0
H868 H 0.75677 0.97281 0.74227 0.0
C869 C 0.73312 0.08293 0.76103 0.0
C870 C 0.73552 0.02085 0.81886 0.0
C871 C 0.74011 0.11487 0.75891 0.0
C872 C 0.78887 0.90521 0.82112 0.0
C873 C 0.77808 0.93422 0.8204 0.0
C874 C 0.75014 0.98578 0.76364 0.0
C875 C 0.74296 0.06971 0.78964 0.0
C876 C 0.74107 0.03542 0.79011 0.0
C877 C 0.75452 0.93991 0.79544 0.0
C878 C 0.74648 0.97179 0.79284 0.0
H879 H 0.77685 0.13611 0.83583 0.0
H880 H 0.76589 0.08045 0.83925 0.0
H881 H 0.75274 0.02756 0.7399 0.0
H882 H 0.74092 0.86811 0.7543 0.0
H883 H 0.72279 0.9195 0.75237 0.0
C884 C 0.37512 0.49743 0.01532 0.0
C885 C 0.3925 0.48271 0.99183 0.0
C886 C 0.34003 0.49566 0.01145 0.0
C887 C 0.26202 0.45434 0.96479 0.0
H888 H 0.22742 0.53053 0.99001 0.0
C889 C 0.11854 0.4621 0.96573 0.0
C890 C 0.10742 0.48945 0.95604 0.0
C891 C 0.15313 0.45987 0.96971 0.0
C892 C 0.23659 0.50913 0.9825 0.0
H893 H 0.38674 0.4538 0.94627 0.0
H894 H 0.32517 0.45149 0.93885 0.0
H895 H 0.28771 0.5287 0.99695 0.0
H896 H 0.12388 0.53561 0.94217 0.0
H897 H 0.18385 0.53147 0.94833 0.0
H898 H 0.2107 0.43521 0.9492 0.0
C899 C 0.33868 0.46391 0.96064 0.0
C900 C 0.27122 0.50792 0.98697 0.0
C901 C 0.37394 0.46531 0.9648 0.0
C902 C 0.13157 0.51433 0.95004 0.0
C903 C 0.16603 0.512 0.95372 0.0
C904 C 0.22724 0.45562 0.96008 0.0
C905 C 0.32141 0.47958 0.98368 0.0
C906 C 0.28441 0.48049 0.97838 0.0
C907 C 0.1773 0.48486 0.96386 0.0
C908 C 0.21414 0.48307 0.96888 0.0
H909 H 0.3887 0.51063 0.03667 0.0
H910 H 0.32752 0.50727 0.03014 0.0
H911 H 0.27129 0.43278 0.9581 0.0
H912 H 0.10056 0.44252 0.97057 0.0
H913 H 0.16093 0.43876 0.97792 0.0
C914 C 0.7821 0.13471 0.32885 0.0
C915 C 0.79083 0.15218 0.30282 0.0
C916 C 0.79247 0.10576 0.3315 0.0
C917 C 0.85144 0.05359 0.30009 0.0
H918 H 0.78739 0.99072 0.33204 0.0
C919 C 0.85037 0.92108 0.27875 0.0
C920 C 0.84013 0.90258 0.30362 0.0
C921 C 0.8517 0.95324 0.28283 0.0
C922 C 0.80585 0.00814 0.32364 0.0
H923 H 0.81761 0.15311 0.25924 0.0
H924 H 0.83461 0.10166 0.26299 0.0
H925 H 0.7735 0.04277 0.32905 0.0
H926 H 0.82611 0.90358 0.3533 0.0
H927 H 0.82824 0.95984 0.36032 0.0
H928 H 0.88295 0.01797 0.29319 0.0
C929 C 0.82042 0.11074 0.28189 0.0
C930 C 0.7979 0.0381 0.3219 0.0
C931 C 0.81045 0.14011 0.27953 0.0
C932 C 0.83403 0.91715 0.33365 0.0
C933 C 0.835 0.94933 0.3376 0.0
C934 C 0.85919 0.02337 0.30143 0.0
C935 C 0.81135 0.09309 0.30786 0.0
C936 C 0.8205 0.06128 0.31004 0.0
C937 C 0.84251 0.96753 0.31174 0.0
C938 C 0.8364 1.00033 0.31315 0.0
H939 H 0.76749 0.14357 0.34755 0.0
H940 H 0.78573 0.09338 0.35232 0.0
H941 H 0.86971 0.07088 0.29128 0.0
H942 H 0.85545 0.91056 0.25539 0.0
H943 H 0.85752 0.96663 0.26246 0.0
C944 C 0.87738 0.0174 0.95202 0.0
C945 C 0.8865 0.98757 0.9468 0.0
C946 C 0.84328 0.02172 0.94946 0.0
C947 C 0.75828 0.98331 0.91575 0.0
H948 H 0.72571 0.03336 0.98481 0.0
C949 C 0.62721 0.98824 0.97881 0.0
C950 C 0.60406 0.98485 0.95104 0.0
C951 C 0.66193 0.99481 0.97597 0.0
C952 C 0.73445 0.01938 0.9653 0.0
H953 H 0.8669 0.93898 0.93435 0.0
H954 H 0.80787 0.94649 0.93024 0.0
H955 H 0.78638 0.03212 0.98344 0.0
H956 H 0.59916 0.98741 0.89869 0.0
H957 H 0.65976 0.99914 0.89383 0.0
H958 H 0.70643 0.9693 0.89848 0.0
C959 C 0.82694 0.96662 0.93592 0.0
C960 C 0.76921 0.01893 0.96432 0.0
C961 C 0.86086 0.96229 0.93859 0.0
C962 C 0.61632 0.98957 0.92055 0.0
C963 C 0.65105 0.99619 0.91773 0.0
C964 C 0.72359 0.98377 0.91671 0.0
C965 C 0.81772 0.99633 0.94142 0.0
C966 C 0.78141 1.00022 0.94002 0.0
C967 C 0.67428 0.99821 0.94531 0.0
C968 C 0.71122 0.0012 0.94195 0.0
H969 H 0.89652 0.03738 0.95827 0.0
H970 H 0.83692 0.04492 0.95365 0.0
H971 H 0.76697 0.96899 0.89648 0.0
H972 H 0.61865 0.98482 0.00267 0.0
H973 H 0.67914 0.99585 0.99766 0.0
C974 C 0.3102 0.64439 0.77619 0.0
C975 C 0.28809 0.65613 0.79716 0.0
C976 C 0.32015 0.61517 0.77991 0.0
C977 C 0.29421 0.54283 0.81985 0.0
H978 H 0.38104 0.52205 0.79683 0.0
C979 C 0.3303 0.42347 0.83999 0.0
C980 C 0.33554 0.40735 0.81051 0.0
C981 C 0.33188 0.45573 0.84226 0.0
C982 C 0.35682 0.52771 0.80356 0.0
H983 H 0.26064 0.64748 0.83953 0.0
H984 H 0.27911 0.59788 0.84706 0.0
H985 H 0.36817 0.57487 0.79248 0.0
H986 H 0.35008 0.41255 0.76153 0.0
H987 H 0.35348 0.46888 0.76579 0.0
H988 H 0.28304 0.49586 0.83122 0.0
C989 C 0.2876 0.61009 0.82669 0.0
C990 C 0.34924 0.55784 0.80076 0.0
C991 C 0.27709 0.63873 0.82249 0.0
C992 C 0.34569 0.42434 0.7845 0.0
C993 C 0.34778 0.4566 0.78695 0.0
C994 C 0.30204 0.51306 0.82323 0.0
C995 C 0.30872 0.5975 0.80513 0.0
C996 C 0.31767 0.56576 0.80865 0.0
C997 C 0.3393 0.47241 0.8153 0.0
C998 C 0.33326 0.50509 0.8149 0.0
H999 H 0.31915 0.65743 0.75653 0.0
H1000 H 0.33616 0.60622 0.76259 0.0
H1001 H 0.26926 0.54751 0.82528 0.0
H1002 H 0.32242 0.41106 0.86046 0.0
H1003 H 0.32552 0.46748 0.86451 0.0
C1004 C 0.11983 0.48398 0.41125 0.0
C1005 C 0.10551 0.48534 0.44129 0.0
C1006 C 0.15494 0.48987 0.41012 0.0
C1007 C 0.23169 0.51343 0.41567 0.0
H1008 H 0.27718 0.4668 0.47736 0.0
C1009 C 0.37838 0.51566 0.43746 0.0
C1010 C 0.38889 0.48632 0.43916 0.0
C1011 C 0.34389 0.51864 0.43553 0.0
C1012 C 0.26484 0.47995 0.46 0.0
H1013 H 0.11667 0.49636 0.49341 0.0
H1014 H 0.17771 0.5066 0.49133 0.0
H1015 H 0.21687 0.46861 0.47861 0.0
H1016 H 0.37128 0.43706 0.43896 0.0
H1017 H 0.31158 0.44243 0.43603 0.0
H1018 H 0.28016 0.52454 0.39713 0.0
C1019 C 0.16183 0.50051 0.46875 0.0
C1020 C 0.23039 0.48127 0.46093 0.0
C1021 C 0.12684 0.49469 0.4699 0.0
C1022 C 0.3642 0.46006 0.43806 0.0
C1023 C 0.32995 0.46309 0.43644 0.0
C1024 C 0.26649 0.51246 0.41506 0.0
C1025 C 0.17629 0.49715 0.439 0.0
C1026 C 0.21336 0.49781 0.43868 0.0
C1027 C 0.31946 0.49239 0.43567 0.0
C1028 C 0.28319 0.49528 0.43693 0.0
H1029 H 0.1041 0.47702 0.38874 0.0
H1030 H 0.16543 0.48702 0.38686 0.0
H1031 H 0.21915 0.52636 0.39824 0.0
H1032 H 0.39676 0.5363 0.43795 0.0
H1033 H 0.33636 0.5415 0.43499 0.0
C1034 C 0.80951 0.73158 0.90617 0.0
C1035 C 0.81348 0.76046 0.89298 0.0
C1036 C 0.81661 0.72969 0.93964 0.0
C1037 C 0.86102 0.77554 0.01386 0.0
H1038 H 0.79483 0.72716 0.06018 0.0
C1039 C 0.82938 0.81115 0.14171 0.0
C1040 C 0.82435 0.78895 0.16432 0.0
C1041 C 0.83575 0.80241 0.10993 0.0
C1042 C 0.81399 0.7402 0.04756 0.0
H1043 H 0.82798 0.80997 0.90479 0.0
H1044 H 0.83965 0.80671 0.96258 0.0
H1045 H 0.79061 0.72131 0.0007 0.0
H1046 H 0.82276 0.74029 0.1718 0.0
H1047 H 0.83282 0.72468 0.11527 0.0
H1048 H 0.88307 0.79583 0.06068 0.0
C1049 C 0.83176 0.7854 0.9472 0.0
C1050 C 0.81158 0.73689 0.01349 0.0
C1051 C 0.82464 0.78729 0.91397 0.0
C1052 C 0.82669 0.75783 0.15479 0.0
C1053 C 0.83233 0.74892 0.12257 0.0
C1054 C 0.86327 0.77898 0.04781 0.0
C1055 C 0.82796 0.75663 0.9605 0.0
C1056 C 0.83426 0.75548 0.99626 0.0
C1057 C 0.83662 0.77117 0.09983 0.0
C1058 C 0.839 0.76223 0.06491 0.0
H1059 H 0.80114 0.71044 0.89065 0.0
H1060 H 0.81349 0.70717 0.94915 0.0
H1061 H 0.87942 0.78963 0.00135 0.0
H1062 H 0.82785 0.83532 0.14846 0.0
H1063 H 0.83853 0.81999 0.09283 0.0
C1064 C 0.54863 0.49589 0.34682 0.0
C1065 C 0.53712 0.46845 0.36071 0.0
C1066 C 0.55789 0.49487 0.31488 0.0
C1067 C 0.53768 0.44546 0.23851 0.0
H1068 H 0.60453 0.50562 0.20628 0.0
C1069 C 0.54256 0.45431 0.10132 0.0
C1070 C 0.5429 0.48457 0.09186 0.0
C1071 C 0.55063 0.44934 0.13384 0.0
C1072 C 0.58578 0.48864 0.21492 0.0
H1073 H 0.52884 0.41827 0.35271 0.0
H1074 H 0.54542 0.41652 0.29719 0.0
H1075 H 0.60311 0.50225 0.2649 0.0
H1076 H 0.5543 0.53334 0.10883 0.0
H1077 H 0.56782 0.52468 0.16538 0.0
H1078 H 0.51944 0.43262 0.18883 0.0
C1079 C 0.54655 0.43887 0.31075 0.0
C1080 C 0.58496 0.48672 0.24848 0.0
C1081 C 0.53718 0.43989 0.34265 0.0
C1082 C 0.5536 0.50972 0.11525 0.0
C1083 C 0.56161 0.50475 0.14773 0.0
C1084 C 0.5385 0.44738 0.20504 0.0
C1085 C 0.55598 0.46638 0.29613 0.0
C1086 C 0.56034 0.46562 0.26068 0.0
C1087 C 0.5592 0.47451 0.1576 0.0
C1088 C 0.56199 0.46951 0.19283 0.0
H1089 H 0.549 0.5183 0.36005 0.0
H1090 H 0.56475 0.51653 0.30433 0.0
H1091 H 0.51803 0.42927 0.24699 0.0
H1092 H 0.53474 0.4344 0.08389 0.0
H1093 H 0.5491 0.42576 0.14055 0.0
C1094 C 0.7884 0.31578 0.41356 0.0
C1095 C 0.79742 0.2898 0.39596 0.0
C1096 C 0.7923 0.31851 0.44771 0.0
C1097 C 0.83518 0.28803 0.51834 0.0
H1098 H 0.75254 0.2942 0.56023 0.0
C1099 C 0.80873 0.22928 0.63321 0.0
C1100 C 0.7955 0.24527 0.65893 0.0
C1101 C 0.81106 0.24156 0.60324 0.0
C1102 C 0.776 0.29308 0.54905 0.0
H1103 H 0.81938 0.2474 0.39991 0.0
H1104 H 0.8268 0.25244 0.45901 0.0
H1105 H 0.75526 0.30544 0.50326 0.0
H1106 H 0.77339 0.2864 0.67301 0.0
H1107 H 0.77702 0.30779 0.6199 0.0
H1108 H 0.85545 0.2743 0.56346 0.0
C1109 C 0.81657 0.27062 0.44674 0.0
C1110 C 0.7776 0.29959 0.51649 0.0
C1111 C 0.81214 0.26763 0.41287 0.0
C1112 C 0.7837 0.27354 0.65364 0.0
C1113 C 0.78581 0.28579 0.62333 0.0
C1114 C 0.83358 0.28155 0.55073 0.0
C1115 C 0.80598 0.29566 0.46457 0.0
C1116 C 0.80677 0.29589 0.5005 0.0
C1117 C 0.80011 0.27012 0.59806 0.0
C1118 C 0.80354 0.28276 0.566 0.0
H1119 H 0.77679 0.33309 0.40106 0.0
H1120 H 0.784 0.33806 0.46092 0.0
H1121 H 0.85816 0.28548 0.50676 0.0
H1122 H 0.81792 0.20739 0.63632 0.0
H1123 H 0.82146 0.22858 0.58399 0.0
C1124 C 0.99736 0.44138 0.59164 0.0
C1125 C 0.99033 0.46434 0.57122 0.0
C1126 C 0.99038 0.4437 0.62414 0.0
C1127 C 0.94504 0.48602 0.68493 0.0
H1128 H 0.00919 0.45522 0.74503 0.0
C1129 C 0.96276 0.51143 0.82665 0.0
C1130 C 0.9668 0.48578 0.84447 0.0
C1131 C 0.95929 0.5081 0.79259 0.0
C1132 C 0.99085 0.4636 0.72849 0.0
H1133 H 0.96978 0.5075 0.5685 0.0
H1134 H 0.95899 0.51252 0.62615 0.0
H1135 H 0.01731 0.45242 0.68744 0.0
H1136 H 0.96803 0.43618 0.84051 0.0
H1137 H 0.96263 0.43059 0.78109 0.0
H1138 H 0.91976 0.49859 0.72703 0.0
C1139 C 0.96916 0.49223 0.61677 0.0
C1140 C 0.99537 0.4619 0.69537 0.0
C1141 C 0.97551 0.48952 0.58382 0.0
C1142 C 0.96504 0.45641 0.82757 0.0
C1143 C 0.96208 0.4532 0.79356 0.0
C1144 C 0.9409 0.48825 0.71837 0.0
C1145 C 0.97697 0.46949 0.63747 0.0
C1146 C 0.9723 0.47265 0.67298 0.0
C1147 C 0.96026 0.47917 0.77581 0.0
C1148 C 0.96359 0.47668 0.74033 0.0
H1149 H 0.00814 0.42135 0.58244 0.0
H1150 H 0.99566 0.42514 0.63881 0.0
H1151 H 0.92663 0.49434 0.66848 0.0
H1152 H 0.96383 0.53435 0.83897 0.0
H1153 H 0.958 0.52848 0.77942 0.0
C1154 C 0.87559 0.99823 0.51755 0.0
C1155 C 0.8926 0.98255 0.49446 0.0
C1156 C 0.84054 0.99687 0.51377 0.0
C1157 C 0.76199 0.95512 0.46809 0.0
H1158 H 0.72783 0.03158 0.49307 0.0
C1159 C 0.61858 0.96318 0.46917 0.0
C1160 C 0.60753 0.9907 0.45996 0.0
C1161 C 0.65316 0.96085 0.47301 0.0
C1162 C 0.73686 0.0101 0.48559 0.0
H1163 H 0.88623 0.95254 0.44963 0.0
H1164 H 0.82477 0.95104 0.44226 0.0
H1165 H 0.78808 0.02966 0.4995 0.0
H1166 H 0.62406 0.03704 0.44665 0.0
H1167 H 0.68396 0.03272 0.45238 0.0
H1168 H 0.71059 0.93606 0.45286 0.0
C1169 C 0.83851 0.96384 0.46373 0.0
C1170 C 0.7715 0.00883 0.48981 0.0
C1171 C 0.87371 0.96479 0.46784 0.0
C1172 C 0.63171 0.01564 0.4542 0.0
C1173 C 0.66615 0.0132 0.45764 0.0
C1174 C 0.72722 0.95649 0.46353 0.0
C1175 C 0.82158 0.98029 0.48645 0.0
C1176 C 0.78455 0.9813 0.48134 0.0
C1177 C 0.67738 0.98591 0.46741 0.0
C1178 C 0.71425 0.98403 0.47225 0.0
H1179 H 0.88943 0.01171 0.53861 0.0
H1180 H 0.82834 0.00907 0.53226 0.0
H1181 H 0.77111 0.93347 0.46152 0.0
H1182 H 0.60055 0.94356 0.47382 0.0
H1183 H 0.6609 0.93962 0.48094 0.0
loop_
_geom_bond_atom_site_label_1
_geom_bond_atom_site_label_2
_geom_bond_distance
_geom_bond_site_symmetry_2
_ccdc_geom_bond_type
O0 Cd1 2.223 . S
O0 C8 1.315 . S
Cd1 O0 2.223 . S
Cd1 O4 2.297 . S
Cd1 O5 2.439 . S
Cd1 O11 2.240 . S
Cd2 O3 2.240 . S
Cd2 O10 2.223 . S
Cd2 O12 2.297 . S
Cd2 O13 2.439 . S
O3 Cd2 2.240 . S
O3 C8 1.279 . S
O4 Cd1 2.297 . S
O4 C6 1.247 . S
O5 Cd1 2.439 . S
O5 C6 1.208 . S
C6 O4 1.247 . S
C6 O5 1.208 . S
C7 O12 1.247 . S
C7 O13 1.208 . S
C8 O0 1.315 . S
C8 O3 1.279 . S
C9 O10 1.315 . S
C9 O11 1.279 . S
O10 Cd2 2.223 . S
O10 C9 1.315 . S
O11 Cd1 2.240 . S
O11 C9 1.279 . S
O12 Cd2 2.297 . S
O12 C7 1.247 . S
O13 Cd2 2.439 . S
O13 C7 1.208 . S
O14 Cd15 2.223 . S
O14 C22 1.315 1_565 S
Cd15 O14 2.223 . S
Cd15 O18 2.297 1_655 S
Cd15 O19 2.439 1_665 S
Cd15 O25 2.240 1_565 S
Cd16 O17 2.240 1_655 S
Cd16 O24 2.223 . S
Cd16 O26 2.297 . S
Cd16 O27 2.439 1_655 S
O17 Cd16 2.240 1_455 S
O17 C22 1.279 1_455 S
O18 Cd15 2.297 1_455 S
O18 C20 1.247 . S
O19 Cd15 2.439 1_445 S
O19 C20 1.208 1_545 S
C20 O18 1.247 . S
C20 O19 1.208 1_565 S
C21 O26 1.247 . S
C21 O27 1.208 1_655 S
C22 O14 1.315 1_545 S
C22 O17 1.279 1_655 S
C23 O24 1.315 . S
C23 O25 1.279 . S
O24 Cd16 2.223 . S
O24 C23 1.315 . S
O25 Cd15 2.240 1_545 S
O25 C23 1.279 . S
O26 Cd16 2.297 . S
O26 C21 1.247 . S
O27 Cd16 2.439 1_455 S
O27 C21 1.208 1_455 S
O28 Cd29 2.223 . S
O28 C36 1.315 . S
Cd29 O28 2.223 . S
Cd29 O32 2.297 . S
Cd29 O33 2.439 . S
Cd29 O39 2.240 . S
Cd30 O31 2.240 . S
Cd30 O38 2.223 . S
Cd30 O40 2.297 . S
Cd30 O41 2.439 . S
O31 Cd30 2.240 . S
O31 C36 1.279 . S
O32 Cd29 2.297 . S
O32 C34 1.247 . S
O33 Cd29 2.439 . S
O33 C34 1.208 . S
C34 O32 1.247 . S
C34 O33 1.208 . S
C35 O40 1.247 . S
C35 O41 1.208 . S
C36 O28 1.315 . S
C36 O31 1.279 . S
C37 O38 1.315 . S
C37 O39 1.279 . S
O38 Cd30 2.223 . S
O38 C37 1.315 . S
O39 Cd29 2.240 . S
O39 C37 1.279 . S
O40 Cd30 2.297 . S
O40 C35 1.247 . S
O41 Cd30 2.439 . S
O41 C35 1.208 . S
O42 Cd43 2.223 . S
O42 C50 1.315 . S
Cd43 O42 2.223 . S
Cd43 O46 2.297 . S
Cd43 O47 2.439 . S
Cd43 O53 2.240 . S
Cd44 O45 2.240 1_554 S
Cd44 O52 2.223 . S
Cd44 O54 2.297 . S
Cd44 O55 2.439 . S
O45 Cd44 2.240 1_556 S
O45 C50 1.279 . S
O46 Cd43 2.297 . S
O46 C48 1.254 . S
O47 Cd43 2.439 . S
O47 C48 1.212 . S
C48 O46 1.254 . S
C48 O47 1.212 . S
C49 O54 1.247 . S
C49 O55 1.208 . S
C50 O42 1.315 . S
C50 O45 1.279 . S
C51 O52 1.315 . S
C51 O53 1.279 1_554 S
O52 Cd44 2.223 . S
O52 C51 1.315 . S
O53 Cd43 2.240 . S
O53 C51 1.279 1_556 S
O54 Cd44 2.297 . S
O54 C49 1.247 . S
O55 Cd44 2.439 . S
O55 C49 1.208 . S
O56 Cd57 2.223 . S
O56 C64 1.315 . S
Cd57 O56 2.223 . S
Cd57 O60 2.297 . S
Cd57 O61 2.439 . S
Cd57 O67 2.240 . S
Cd58 O59 2.240 . S
Cd58 O66 2.223 . S
Cd58 O68 2.297 . S
Cd58 O69 2.439 . S
O59 Cd58 2.240 . S
O59 C64 1.279 . S
O60 Cd57 2.297 . S
O60 C62 1.247 . S
O61 Cd57 2.439 . S
O61 C62 1.208 . S
C62 O60 1.247 . S
C62 O61 1.208 . S
C63 O68 1.247 . S
C63 O69 1.208 . S
C64 O56 1.315 . S
C64 O59 1.279 . S
C65 O66 1.315 . S
C65 O67 1.279 . S
O66 Cd58 2.223 . S
O66 C65 1.315 . S
O67 Cd57 2.240 . S
O67 C65 1.279 . S
O68 Cd58 2.297 . S
O68 C63 1.247 . S
O69 Cd58 2.439 . S
O69 C63 1.208 . S
O70 Cd71 2.223 . S
O70 C78 1.315 . S
Cd71 O70 2.223 . S
Cd71 O74 2.297 . S
Cd71 O75 2.439 . S
Cd71 O81 2.240 1_565 S
Cd72 O73 2.240 . S
Cd72 O80 2.223 . S
Cd72 O82 2.297 . S
Cd72 O83 2.439 . S
O73 Cd72 2.240 . S
O73 C78 1.279 1_545 S
O74 Cd71 2.297 . S
O74 C76 1.247 . S
O75 Cd71 2.439 . S
O75 C76 1.208 . S
C76 O74 1.247 . S
C76 O75 1.208 . S
C77 O82 1.247 . S
C77 O83 1.208 . S
C78 O70 1.315 . S
C78 O73 1.279 1_565 S
C79 O80 1.315 . S
C79 O81 1.279 . S
O80 Cd72 2.223 . S
O80 C79 1.315 . S
O81 Cd71 2.240 1_545 S
O81 C79 1.279 . S
O82 Cd72 2.297 . S
O82 C77 1.247 . S
O83 Cd72 2.439 . S
O83 C77 1.208 . S
O84 Cd85 2.223 . S
O84 C92 1.315 . S
Cd85 O84 2.223 . S
Cd85 O88 2.297 . S
Cd85 O89 2.439 . S
Cd85 O95 2.240 . S
Cd86 O87 2.240 . S
Cd86 O94 2.223 . S
Cd86 O96 2.297 . S
Cd86 O97 2.439 . S
O87 Cd86 2.240 . S
O87 C92 1.279 . S
O88 Cd85 2.297 . S
O88 C90 1.247 . S
O89 Cd85 2.439 . S
O89 C90 1.208 . S
C90 O88 1.247 . S
C90 O89 1.208 . S
C91 O96 1.247 . S
C91 O97 1.208 . S
C92 O84 1.315 . S
C92 O87 1.279 . S
C93 O94 1.315 . S
C93 O95 1.279 . S
O94 Cd86 2.223 . S
O94 C93 1.315 . S
O95 Cd85 2.240 . S
O95 C93 1.279 . S
O96 Cd86 2.297 . S
O96 C91 1.247 . S
O97 Cd86 2.439 . S
O97 C91 1.208 . S
O98 Cd99 2.223 1_545 S
O98 C106 1.315 1_545 S
Cd99 O98 2.223 1_565 S
Cd99 O102 2.297 1_665 S
Cd99 O103 2.439 1_655 S
Cd99 O109 2.240 . S
Cd100 O101 2.240 1_655 S
Cd100 O108 2.223 . S
Cd100 O110 2.297 . S
Cd100 O111 2.439 1_655 S
O101 Cd100 2.240 1_455 S
O101 C106 1.279 1_455 S
O102 Cd99 2.297 1_445 S
O102 C104 1.247 . S
O103 Cd99 2.439 1_455 S
O103 C104 1.208 1_565 S
C104 O102 1.247 . S
C104 O103 1.208 1_545 S
C105 O110 1.247 . S
C105 O111 1.208 1_655 S
C106 O98 1.315 1_565 S
C106 O101 1.279 1_655 S
C107 O108 1.315 . S
C107 O109 1.279 . S
O108 Cd100 2.223 . S
O108 C107 1.315 . S
O109 Cd99 2.240 . S
O109 C107 1.279 . S
O110 Cd100 2.297 . S
O110 C105 1.247 . S
O111 Cd100 2.439 1_455 S
O111 C105 1.208 1_455 S
O112 Cd113 2.223 . S
O112 C120 1.315 . S
Cd113 O112 2.223 . S
Cd113 O116 2.297 . S
Cd113 O117 2.439 . S
Cd113 O123 2.240 . S
Cd114 O115 2.240 . S
Cd114 O122 2.223 . S
Cd114 O124 2.297 . S
Cd114 O125 2.439 . S
O115 Cd114 2.240 . S
O115 C120 1.279 . S
O116 Cd113 2.297 . S
O116 C118 1.247 . S
O117 Cd113 2.439 . S
O117 C118 1.208 . S
C118 O116 1.247 . S
C118 O117 1.208 . S
C119 O124 1.247 . S
C119 O125 1.208 . S
C120 O112 1.315 . S
C120 O115 1.279 . S
C121 O122 1.315 . S
C121 O123 1.279 . S
O122 Cd114 2.223 . S
O122 C121 1.315 . S
O123 Cd113 2.240 . S
O123 C121 1.279 . S
O124 Cd114 2.297 . S
O124 C119 1.247 . S
O125 Cd114 2.439 . S
O125 C119 1.208 . S
O126 Cd127 2.223 1_556 S
O126 C134 1.315 1_455 S
Cd127 O126 2.223 1_554 S
Cd127 O130 2.297 1_455 S
Cd127 O131 2.439 1_455 S
Cd127 O137 2.242 . S
Cd128 O129 2.240 1_455 S
Cd128 O136 2.223 . S
Cd128 O138 2.297 . S
Cd128 O139 2.439 1_456 S
O129 Cd128 2.240 1_655 S
O129 C134 1.279 . S
O130 Cd127 2.297 1_655 S
O130 C132 1.247 . S
O131 Cd127 2.439 1_655 S
O131 C132 1.208 . S
C132 O130 1.247 . S
C132 O131 1.208 . S
C133 O138 1.247 1_654 S
C133 O139 1.208 . S
C134 O126 1.315 1_655 S
C134 O129 1.279 . S
C135 O136 1.315 . S
C135 O137 1.270 1_556 S
O136 Cd128 2.223 . S
O136 C135 1.315 . S
O137 Cd127 2.242 . S
O137 C135 1.270 1_554 S
O138 Cd128 2.297 . S
O138 C133 1.247 1_456 S
O139 Cd128 2.439 1_654 S
O139 C133 1.208 . S
O140 Cd141 2.223 . S
O140 C148 1.315 . S
Cd141 O140 2.223 . S
Cd141 O144 2.297 . S
Cd141 O145 2.439 . S
Cd141 O151 2.240 . S
Cd142 O143 2.240 . S
Cd142 O150 2.223 . S
Cd142 O152 2.297 . S
Cd142 O153 2.439 . S
O143 Cd142 2.240 . S
O143 C148 1.279 . S
O144 Cd141 2.297 . S
O144 C146 1.247 . S
O145 Cd141 2.439 . S
O145 C146 1.208 . S
C146 O144 1.247 . S
C146 O145 1.208 . S
C147 O152 1.247 . S
C147 O153 1.208 . S
C148 O140 1.315 . S
C148 O143 1.279 . S
C149 O150 1.315 . S
C149 O151 1.279 . S
O150 Cd142 2.223 . S
O150 C149 1.315 . S
O151 Cd141 2.240 . S
O151 C149 1.279 . S
O152 Cd142 2.297 . S
O152 C147 1.247 . S
O153 Cd142 2.439 . S
O153 C147 1.208 . S
O154 Cd155 2.223 . S
O154 C162 1.315 . S
Cd155 O154 2.223 . S
Cd155 O158 2.297 . S
Cd155 O159 2.439 1_455 S
Cd155 O165 2.240 . S
Cd156 O157 2.240 . S
Cd156 O164 2.223 . S
Cd156 O166 2.297 . S
Cd156 O167 2.439 . S
O157 Cd156 2.240 . S
O157 C162 1.279 . S
O158 Cd155 2.297 . S
O158 C160 1.247 1_455 S
O159 Cd155 2.439 1_655 S
O159 C160 1.208 . S
C160 O158 1.247 1_655 S
C160 O159 1.208 . S
C161 O166 1.247 . S
C161 O167 1.208 . S
C162 O154 1.315 . S
C162 O157 1.279 . S
C163 O164 1.315 . S
C163 O165 1.279 . S
O164 Cd156 2.223 . S
O164 C163 1.315 . S
O165 Cd155 2.240 . S
O165 C163 1.279 . S
O166 Cd156 2.297 . S
O166 C161 1.247 . S
O167 Cd156 2.439 . S
O167 C161 1.208 . S
O168 Cd169 2.223 1_554 S
O168 C176 1.315 . S
Cd169 O168 2.223 1_556 S
Cd169 O172 2.297 . S
Cd169 O173 2.439 . S
Cd169 O179 2.240 . S
Cd170 O171 2.240 . S
Cd170 O178 2.223 . S
Cd170 O180 2.297 . S
Cd170 O181 2.439 1_554 S
O171 Cd170 2.240 . S
O171 C176 1.279 . S
O172 Cd169 2.297 . S
O172 C174 1.247 . S
O173 Cd169 2.439 . S
O173 C174 1.208 . S
C174 O172 1.247 . S
C174 O173 1.208 . S
C175 O180 1.247 1_556 S
C175 O181 1.208 . S
C176 O168 1.315 . S
C176 O171 1.279 . S
C177 O178 1.315 . S
C177 O179 1.279 1_554 S
O178 Cd170 2.223 . S
O178 C177 1.315 . S
O179 Cd169 2.240 . S
O179 C177 1.279 1_556 S
O180 Cd170 2.297 . S
O180 C175 1.247 1_554 S
O181 Cd170 2.439 1_556 S
O181 C175 1.208 . S
O182 Cd183 2.223 . S
O182 C190 1.315 . S
Cd183 O182 2.223 . S
Cd183 O186 2.297 . S
Cd183 O187 2.439 . S
Cd183 O193 2.240 . S
Cd184 O185 2.240 . S
Cd184 O192 2.223 . S
Cd184 O194 2.297 . S
Cd184 O195 2.439 . S
O185 Cd184 2.240 . S
O185 C190 1.279 . S
O186 Cd183 2.297 . S
O186 C188 1.247 . S
O187 Cd183 2.439 . S
O187 C188 1.208 . S
C188 O186 1.247 . S
C188 O187 1.208 . S
C189 O194 1.247 . S
C189 O195 1.208 . S
C190 O182 1.315 . S
C190 O185 1.279 . S
C191 O192 1.315 . S
C191 O193 1.279 . S
O192 Cd184 2.223 . S
O192 C191 1.315 . S
O193 Cd183 2.240 . S
O193 C191 1.279 . S
O194 Cd184 2.297 . S
O194 C189 1.247 . S
O195 Cd184 2.439 . S
O195 C189 1.208 . S
O196 Cd197 2.223 . S
O196 C204 1.315 . S
Cd197 O196 2.223 . S
Cd197 O200 2.297 . S
Cd197 O201 2.439 . S
Cd197 O207 2.240 . S
Cd198 O199 2.240 . S
Cd198 O206 2.223 . S
Cd198 O208 2.297 . S
Cd198 O209 2.439 . S
O199 Cd198 2.240 . S
O199 C204 1.279 . S
O200 Cd197 2.297 . S
O200 C202 1.247 . S
O201 Cd197 2.439 . S
O201 C202 1.208 . S
C202 O200 1.247 . S
C202 O201 1.208 . S
C203 O208 1.247 . S
C203 O209 1.208 . S
C204 O196 1.315 . S
C204 O199 1.279 . S
C205 O206 1.315 . S
C205 O207 1.279 . S
O206 Cd198 2.223 . S
O206 C205 1.315 . S
O207 Cd197 2.240 . S
O207 C205 1.279 . S
O208 Cd198 2.297 . S
O208 C203 1.247 . S
O209 Cd198 2.439 . S
O209 C203 1.208 . S
O210 Cd211 2.223 . S
O210 C218 1.315 . S
Cd211 O210 2.223 . S
Cd211 O214 2.297 . S
Cd211 O215 2.439 . S
Cd211 O221 2.240 . S
Cd212 O213 2.240 . S
Cd212 O220 2.223 . S
Cd212 O222 2.297 . S
Cd212 O223 2.439 . S
O213 Cd212 2.240 . S
O213 C218 1.279 . S
O214 Cd211 2.297 . S
O214 C216 1.247 . S
O215 Cd211 2.439 . S
O215 C216 1.208 . S
C216 O214 1.247 . S
C216 O215 1.208 . S
C217 O222 1.247 . S
C217 O223 1.208 . S
C218 O210 1.315 . S
C218 O213 1.279 . S
C219 O220 1.315 . S
C219 O221 1.279 . S
O220 Cd212 2.223 . S
O220 C219 1.315 . S
O221 Cd211 2.240 . S
O221 C219 1.279 . S
O222 Cd212 2.297 . S
O222 C217 1.247 . S
O223 Cd212 2.439 . S
O223 C217 1.208 . S
C224 C225 1.349 . S
C224 C226 1.327 . S
C224 H249 0.950 . S
C225 C224 1.349 . S
C225 C241 1.349 . S
C226 C224 1.327 . S
C226 C245 1.429 . S
C226 H250 0.950 . S
C227 C244 1.574 . S
C227 C246 1.368 . S
C227 H251 0.949 . S
H228 C232 0.949 . S
C229 C230 1.349 . S
C229 C231 1.327 . S
C229 H252 0.950 . S
C230 C229 1.349 . S
C230 C242 1.349 . S
C231 C229 1.327 . S
C231 C247 1.429 . S
C231 H253 0.950 . S
C232 H228 0.949 . S
C232 C240 1.574 . S
C232 C248 1.368 . S
H233 C241 0.950 . S
H234 C239 0.950 . S
H235 C240 0.949 . S
H236 C242 0.950 1_556 S
H237 C243 0.950 . S
H238 C244 0.949 . S
C239 H234 0.950 . S
C239 C241 1.327 . S
C239 C245 1.429 . S
C240 C232 1.574 . S
C240 H235 0.949 . S
C240 C246 1.368 . S
C241 C225 1.349 . S
C241 H233 0.950 . S
C241 C239 1.327 . S
C242 C230 1.349 . S
C242 H236 0.950 1_554 S
C242 C243 1.327 . S
C243 H237 0.950 . S
C243 C242 1.327 . S
C243 C247 1.429 . S
C244 C227 1.574 . S
C244 H238 0.949 . S
C244 C248 1.368 . S
C245 C226 1.429 . S
C245 C239 1.429 . S
C245 C246 1.523 . S
C246 C227 1.368 . S
C246 C240 1.368 . S
C246 C245 1.523 . S
C247 C231 1.429 . S
C247 C243 1.429 . S
C247 C248 1.523 . S
C248 C232 1.368 . S
C248 C244 1.368 . S
C248 C247 1.523 . S
H249 C224 0.950 . S
H250 C226 0.950 . S
H251 C227 0.949 . S
H252 C229 0.950 . S
H253 C231 0.950 . S
C254 C255 1.349 . S
C254 C256 1.327 . S
C254 H279 0.950 . S
C255 C254 1.349 . S
C255 C271 1.349 . S
C256 C254 1.327 . S
C256 C275 1.429 . S
C256 H280 0.950 . S
C257 C274 1.574 . S
C257 C276 1.368 . S
C257 H281 0.949 . S
H258 C262 0.949 . S
C259 C260 1.349 . S
C259 C261 1.327 . S
C259 H282 0.950 . S
C260 C259 1.349 . S
C260 C272 1.349 . S
C261 C259 1.327 . S
C261 C277 1.429 . S
C261 H283 0.950 . S
C262 H258 0.949 . S
C262 C270 1.574 . S
C262 C278 1.368 . S
H263 C271 0.950 . S
H264 C269 0.950 . S
H265 C270 0.949 . S
H266 C272 0.950 . S
H267 C273 0.950 . S
H268 C274 0.949 . S
C269 H264 0.950 . S
C269 C271 1.327 . S
C269 C275 1.429 . S
C270 C262 1.574 . S
C270 H265 0.949 . S
C270 C276 1.368 . S
C271 C255 1.349 . S
C271 H263 0.950 . S
C271 C269 1.327 . S
C272 C260 1.349 . S
C272 H266 0.950 . S
C272 C273 1.327 . S
C273 H267 0.950 . S
C273 C272 1.327 . S
C273 C277 1.429 . S
C274 C257 1.574 . S
C274 H268 0.949 . S
C274 C278 1.368 . S
C275 C256 1.429 . S
C275 C269 1.429 . S
C275 C276 1.523 . S
C276 C257 1.368 . S
C276 C270 1.368 . S
C276 C275 1.523 . S
C277 C261 1.429 . S
C277 C273 1.429 . S
C277 C278 1.523 . S
C278 C262 1.368 . S
C278 C274 1.368 . S
C278 C277 1.523 . S
H279 C254 0.950 . S
H280 C256 0.950 . S
H281 C257 0.949 . S
H282 C259 0.950 . S
H283 C261 0.950 . S
C284 C285 1.349 . S
C284 C286 1.327 . S
C284 H309 0.950 . S
C285 C284 1.349 . S
C285 C301 1.349 . S
C286 C284 1.327 . S
C286 C305 1.429 . S
C286 H310 0.950 . S
C287 C304 1.574 . S
C287 C306 1.368 . S
C287 H311 0.949 . S
H288 C292 0.949 . S
C289 C290 1.349 . S
C289 C291 1.327 . S
C289 H312 0.950 . S
C290 C289 1.349 . S
C290 C302 1.349 . S
C291 C289 1.327 . S
C291 C307 1.429 . S
C291 H313 0.950 . S
C292 H288 0.949 . S
C292 C300 1.574 . S
C292 C308 1.368 . S
H293 C301 0.950 . S
H294 C299 0.950 . S
H295 C300 0.949 . S
H296 C302 0.950 . S
H297 C303 0.950 . S
H298 C304 0.949 . S
C299 H294 0.950 . S
C299 C301 1.327 . S
C299 C305 1.429 . S
C300 C292 1.574 . S
C300 H295 0.949 . S
C300 C306 1.368 . S
C301 C285 1.349 . S
C301 H293 0.950 . S
C301 C299 1.327 . S
C302 C290 1.349 . S
C302 H296 0.950 . S
C302 C303 1.327 . S
C303 H297 0.950 . S
C303 C302 1.327 . S
C303 C307 1.429 . S
C304 C287 1.574 . S
C304 H298 0.949 . S
C304 C308 1.368 . S
C305 C286 1.429 . S
C305 C299 1.429 . S
C305 C306 1.523 . S
C306 C287 1.368 . S
C306 C300 1.368 . S
C306 C305 1.523 . S
C307 C291 1.429 . S
C307 C303 1.429 . S
C307 C308 1.523 . S
C308 C292 1.368 . S
C308 C304 1.368 . S
C308 C307 1.523 . S
H309 C284 0.950 . S
H310 C286 0.950 . S
H311 C287 0.949 . S
H312 C289 0.950 . S
H313 C291 0.950 . S
C314 C315 1.349 . S
C314 C316 1.327 . S
C314 H339 0.950 . S
C315 C314 1.349 . S
C315 C331 1.349 . S
C316 C314 1.327 . S
C316 C335 1.429 . S
C316 H340 0.950 . S
C317 C334 1.574 . S
C317 C336 1.368 . S
C317 H341 0.949 . S
H318 C322 0.949 . S
C319 C320 1.349 . S
C319 C321 1.327 . S
C319 H342 0.950 . S
C320 C319 1.349 . S
C320 C332 1.349 . S
C321 C319 1.327 . S
C321 C337 1.429 . S
C321 H343 0.950 . S
C322 H318 0.949 . S
C322 C330 1.574 . S
C322 C338 1.368 . S
H323 C331 0.950 . S
H324 C329 0.950 . S
H325 C330 0.949 . S
H326 C332 0.950 . S
H327 C333 0.950 . S
H328 C334 0.949 . S
C329 H324 0.950 . S
C329 C331 1.327 . S
C329 C335 1.429 . S
C330 C322 1.574 . S
C330 H325 0.949 . S
C330 C336 1.368 . S
C331 C315 1.349 . S
C331 H323 0.950 . S
C331 C329 1.327 . S
C332 C320 1.349 . S
C332 H326 0.950 . S
C332 C333 1.327 . S
C333 H327 0.950 . S
C333 C332 1.327 . S
C333 C337 1.429 . S
C334 C317 1.574 . S
C334 H328 0.949 . S
C334 C338 1.368 . S
C335 C316 1.429 . S
C335 C329 1.429 . S
C335 C336 1.523 . S
C336 C317 1.368 . S
C336 C330 1.368 . S
C336 C335 1.523 . S
C337 C321 1.429 . S
C337 C333 1.429 . S
C337 C338 1.523 . S
C338 C322 1.368 . S
C338 C334 1.368 . S
C338 C337 1.523 . S
H339 C314 0.950 . S
H340 C316 0.950 . S
H341 C317 0.949 . S
H342 C319 0.950 . S
H343 C321 0.950 . S
C344 C345 1.349 . S
C344 C346 1.327 . S
C344 H369 0.950 . S
C345 C344 1.349 . S
C345 C361 1.349 . S
C346 C344 1.327 . S
C346 C365 1.429 . S
C346 H370 0.950 . S
C347 C364 1.574 . S
C347 C366 1.368 . S
C347 H371 0.949 . S
H348 C352 0.949 . S
C349 C350 1.349 . S
C349 C351 1.327 . S
C349 H372 0.950 . S
C350 C349 1.349 . S
C350 C362 1.349 . S
C351 C349 1.327 . S
C351 C367 1.429 . S
C351 H373 0.950 . S
C352 H348 0.949 . S
C352 C360 1.574 . S
C352 C368 1.368 . S
H353 C361 0.950 . S
H354 C359 0.950 . S
H355 C360 0.949 . S
H356 C362 0.950 . S
H357 C363 0.950 . S
H358 C364 0.949 . S
C359 H354 0.950 . S
C359 C361 1.327 . S
C359 C365 1.429 . S
C360 C352 1.574 . S
C360 H355 0.949 . S
C360 C366 1.368 . S
C361 C345 1.349 . S
C361 H353 0.950 . S
C361 C359 1.327 . S
C362 C350 1.349 . S
C362 H356 0.950 . S
C362 C363 1.327 . S
C363 H357 0.950 . S
C363 C362 1.327 . S
C363 C367 1.429 . S
C364 C347 1.574 . S
C364 H358 0.949 . S
C364 C368 1.368 . S
C365 C346 1.429 . S
C365 C359 1.429 . S
C365 C366 1.523 . S
C366 C347 1.368 . S
C366 C360 1.368 . S
C366 C365 1.523 . S
C367 C351 1.429 . S
C367 C363 1.429 . S
C367 C368 1.523 . S
C368 C352 1.368 . S
C368 C364 1.368 . S
C368 C367 1.523 . S
H369 C344 0.950 . S
H370 C346 0.950 . S
H371 C347 0.949 . S
H372 C349 0.950 . S
H373 C351 0.950 . S
C374 C375 1.349 . S
C374 C376 1.327 . S
C374 H399 0.950 . S
C375 C374 1.349 . S
C375 C391 1.349 . S
C376 C374 1.327 . S
C376 C395 1.429 . S
C376 H400 0.950 . S
C377 C394 1.574 . S
C377 C396 1.368 . S
C377 H401 0.949 . S
H378 C382 0.949 . S
C379 C380 1.349 . S
C379 C381 1.327 . S
C379 H402 0.950 . S
C380 C379 1.349 . S
C380 C392 1.349 . S
C381 C379 1.327 . S
C381 C397 1.429 . S
C381 H403 0.950 . S
C382 H378 0.949 . S
C382 C390 1.574 . S
C382 C398 1.368 . S
H383 C391 0.950 . S
H384 C389 0.950 . S
H385 C390 0.949 . S
H386 C392 0.950 . S
H387 C393 0.950 . S
H388 C394 0.949 . S
C389 H384 0.950 . S
C389 C391 1.327 . S
C389 C395 1.429 . S
C390 C382 1.574 . S
C390 H385 0.949 . S
C390 C396 1.368 . S
C391 C375 1.349 . S
C391 H383 0.950 . S
C391 C389 1.327 . S
C392 C380 1.349 . S
C392 H386 0.950 . S
C392 C393 1.327 . S
C393 H387 0.950 . S
C393 C392 1.327 . S
C393 C397 1.429 . S
C394 C377 1.574 . S
C394 H388 0.949 . S
C394 C398 1.368 . S
C395 C376 1.429 . S
C395 C389 1.429 . S
C395 C396 1.523 . S
C396 C377 1.368 . S
C396 C390 1.368 . S
C396 C395 1.523 . S
C397 C381 1.429 . S
C397 C393 1.429 . S
C397 C398 1.523 . S
C398 C382 1.368 . S
C398 C394 1.368 . S
C398 C397 1.523 . S
H399 C374 0.950 . S
H400 C376 0.950 . S
H401 C377 0.949 . S
H402 C379 0.950 . S
H403 C381 0.950 . S
C404 C405 1.349 . S
C404 C406 1.327 . S
C404 H429 0.950 1_655 S
C405 C404 1.349 . S
C405 C421 1.349 . S
C406 C404 1.327 . S
C406 C425 1.429 . S
C406 H430 0.950 . S
C407 C424 1.574 . S
C407 C426 1.368 . S
C407 H431 0.949 . S
H408 C412 0.949 . S
C409 C410 1.349 . S
C409 C411 1.327 . S
C409 H432 0.950 . S
C410 C409 1.349 . S
C410 C422 1.349 . S
C411 C409 1.327 . S
C411 C427 1.429 . S
C411 H433 0.950 . S
C412 H408 0.949 . S
C412 C420 1.574 . S
C412 C428 1.368 . S
H413 C421 0.950 . S
H414 C419 0.950 . S
H415 C420 0.949 . S
H416 C422 0.950 . S
H417 C423 0.950 . S
H418 C424 0.949 . S
C419 H414 0.950 . S
C419 C421 1.327 . S
C419 C425 1.429 . S
C420 C412 1.574 . S
C420 H415 0.949 . S
C420 C426 1.368 . S
C421 C405 1.349 . S
C421 H413 0.950 . S
C421 C419 1.327 . S
C422 C410 1.349 . S
C422 H416 0.950 . S
C422 C423 1.327 . S
C423 H417 0.950 . S
C423 C422 1.327 . S
C423 C427 1.429 . S
C424 C407 1.574 . S
C424 H418 0.949 . S
C424 C428 1.368 . S
C425 C406 1.429 . S
C425 C419 1.429 . S
C425 C426 1.523 . S
C426 C407 1.368 . S
C426 C420 1.368 . S
C426 C425 1.523 . S
C427 C411 1.429 . S
C427 C423 1.429 . S
C427 C428 1.523 . S
C428 C412 1.368 . S
C428 C424 1.368 . S
C428 C427 1.523 . S
H429 C404 0.950 1_455 S
H430 C406 0.950 . S
H431 C407 0.949 . S
H432 C409 0.950 . S
H433 C411 0.950 . S
C434 C435 1.349 . S
C434 C436 1.327 . S
C434 H459 0.950 . S
C435 C434 1.349 . S
C435 C451 1.349 . S
C436 C434 1.327 . S
C436 C455 1.429 . S
C436 H460 0.950 . S
C437 C454 1.574 . S
C437 C456 1.368 . S
C437 H461 0.949 . S
H438 C442 0.949 . S
C439 C440 1.349 . S
C439 C441 1.327 . S
C439 H462 0.950 . S
C440 C439 1.349 . S
C440 C452 1.349 . S
C441 C439 1.327 . S
C441 C457 1.429 . S
C441 H463 0.950 . S
C442 H438 0.949 . S
C442 C450 1.574 . S
C442 C458 1.368 . S
H443 C451 0.950 . S
H444 C449 0.950 . S
H445 C450 0.949 . S
H446 C452 0.950 . S
H447 C453 0.950 . S
H448 C454 0.949 . S
C449 H444 0.950 . S
C449 C451 1.327 . S
C449 C455 1.429 . S
C450 C442 1.574 . S
C450 H445 0.949 . S
C450 C456 1.368 . S
C451 C435 1.349 . S
C451 H443 0.950 . S
C451 C449 1.327 . S
C452 C440 1.349 . S
C452 H446 0.950 . S
C452 C453 1.327 . S
C453 H447 0.950 . S
C453 C452 1.327 . S
C453 C457 1.429 . S
C454 C437 1.574 . S
C454 H448 0.949 . S
C454 C458 1.368 . S
C455 C436 1.429 . S
C455 C449 1.429 . S
C455 C456 1.523 . S
C456 C437 1.368 . S
C456 C450 1.368 . S
C456 C455 1.523 . S
C457 C441 1.429 . S
C457 C453 1.429 . S
C457 C458 1.523 . S
C458 C442 1.368 . S
C458 C454 1.368 . S
C458 C457 1.523 . S
H459 C434 0.950 . S
H460 C436 0.950 . S
H461 C437 0.949 . S
H462 C439 0.950 . S
H463 C441 0.950 . S
C464 C465 1.349 . S
C464 C466 1.327 . S
C464 H489 0.950 . S
C465 C464 1.349 . S
C465 C481 1.349 . S
C466 C464 1.327 . S
C466 C485 1.429 . S
C466 H490 0.950 . S
C467 C484 1.574 . S
C467 C486 1.368 . S
C467 H491 0.949 . S
H468 C472 0.949 . S
C469 C470 1.349 . S
C469 C471 1.327 . S
C469 H492 0.950 . S
C470 C469 1.349 . S
C470 C482 1.349 . S
C471 C469 1.327 . S
C471 C487 1.429 . S
C471 H493 0.950 . S
C472 H468 0.949 . S
C472 C480 1.574 . S
C472 C488 1.368 . S
H473 C481 0.950 . S
H474 C479 0.950 . S
H475 C480 0.949 . S
H476 C482 0.950 . S
H477 C483 0.950 . S
H478 C484 0.949 . S
C479 H474 0.950 . S
C479 C481 1.327 . S
C479 C485 1.429 . S
C480 C472 1.574 . S
C480 H475 0.949 . S
C480 C486 1.368 . S
C481 C465 1.349 . S
C481 H473 0.950 . S
C481 C479 1.327 . S
C482 C470 1.349 . S
C482 H476 0.950 . S
C482 C483 1.327 . S
C483 H477 0.950 . S
C483 C482 1.327 . S
C483 C487 1.429 . S
C484 C467 1.574 . S
C484 H478 0.949 . S
C484 C488 1.368 . S
C485 C466 1.429 . S
C485 C479 1.429 . S
C485 C486 1.523 . S
C486 C467 1.368 . S
C486 C480 1.368 . S
C486 C485 1.523 . S
C487 C471 1.429 . S
C487 C483 1.429 . S
C487 C488 1.523 . S
C488 C472 1.368 . S
C488 C484 1.368 . S
C488 C487 1.523 . S
H489 C464 0.950 . S
H490 C466 0.950 . S
H491 C467 0.949 . S
H492 C469 0.950 . S
H493 C471 0.950 . S
C494 C495 1.349 . S
C494 C496 1.327 . S
C494 H519 0.950 . S
C495 C494 1.349 . S
C495 C511 1.349 1_665 S
C496 C494 1.327 . S
C496 C515 1.429 . S
C496 H520 0.950 . S
C497 C514 1.574 . S
C497 C516 1.368 1_445 S
C497 H521 0.949 . S
H498 C502 0.949 . S
C499 C500 1.349 1_455 S
C499 C501 1.327 . S
C499 H522 0.950 . S
C500 C499 1.349 1_655 S
C500 C512 1.349 1_545 S
C501 C499 1.327 . S
C501 C517 1.429 1_445 S
C501 H523 0.950 . S
C502 H498 0.949 . S
C502 C510 1.574 . S
C502 C518 1.368 . S
H503 C511 0.950 . S
H504 C509 0.950 . S
H505 C510 0.949 . S
H506 C512 0.950 . S
H507 C513 0.950 . S
H508 C514 0.949 . S
C509 H504 0.950 . S
C509 C511 1.327 . S
C509 C515 1.429 1_445 S
C510 C502 1.574 . S
C510 H505 0.949 . S
C510 C516 1.368 . S
C511 C495 1.349 1_445 S
C511 H503 0.950 . S
C511 C509 1.327 . S
C512 C500 1.349 1_565 S
C512 H506 0.950 . S
C512 C513 1.327 . S
C513 H507 0.950 . S
C513 C512 1.327 . S
C513 C517 1.429 . S
C514 C497 1.574 . S
C514 H508 0.949 . S
C514 C518 1.368 1_445 S
C515 C496 1.429 . S
C515 C509 1.429 1_665 S
C515 C516 1.523 . S
C516 C497 1.368 1_665 S
C516 C510 1.368 . S
C516 C515 1.523 . S
C517 C501 1.429 1_665 S
C517 C513 1.429 . S
C517 C518 1.523 . S
C518 C502 1.368 . S
C518 C514 1.368 1_665 S
C518 C517 1.523 . S
H519 C494 0.950 . S
H520 C496 0.950 . S
H521 C497 0.949 . S
H522 C499 0.950 . S
H523 C501 0.950 . S
C524 C525 1.349 . S
C524 C526 1.327 . S
C524 H549 0.950 . S
C525 C524 1.349 . S
C525 C541 1.349 . S
C526 C524 1.327 . S
C526 C545 1.429 . S
C526 H550 0.950 . S
C527 C544 1.574 1_556 S
C527 C546 1.368 . S
C527 H551 0.949 . S
H528 C532 0.949 . S
C529 C530 1.349 . S
C529 C531 1.327 . S
C529 H552 0.950 . S
C530 C529 1.349 . S
C530 C542 1.349 . S
C531 C529 1.327 . S
C531 C547 1.429 . S
C531 H553 0.950 . S
C532 H528 0.949 . S
C532 C540 1.574 1_554 S
C532 C548 1.368 . S
H533 C541 0.950 . S
H534 C539 0.950 . S
H535 C540 0.949 . S
H536 C542 0.950 . S
H537 C543 0.950 . S
H538 C544 0.949 . S
C539 H534 0.950 . S
C539 C541 1.327 . S
C539 C545 1.429 . S
C540 C532 1.574 1_556 S
C540 H535 0.949 . S
C540 C546 1.368 . S
C541 C525 1.349 . S
C541 H533 0.950 . S
C541 C539 1.327 . S
C542 C530 1.349 . S
C542 H536 0.950 . S
C542 C543 1.327 . S
C543 H537 0.950 . S
C543 C542 1.327 . S
C543 C547 1.429 . S
C544 C527 1.574 1_554 S
C544 H538 0.949 . S
C544 C548 1.368 . S
C545 C526 1.429 . S
C545 C539 1.429 . S
C545 C546 1.523 . S
C546 C527 1.368 . S
C546 C540 1.368 . S
C546 C545 1.523 . S
C547 C531 1.429 . S
C547 C543 1.429 . S
C547 C548 1.523 . S
C548 C532 1.368 . S
C548 C544 1.368 . S
C548 C547 1.523 . S
H549 C524 0.950 . S
H550 C526 0.950 . S
H551 C527 0.949 . S
H552 C529 0.950 . S
H553 C531 0.950 . S
C554 C555 1.349 . S
C554 C556 1.327 . S
C554 H579 0.950 1_565 S
C555 C554 1.349 . S
C555 C571 1.349 . S
C556 C554 1.327 . S
C556 C575 1.429 . S
C556 H580 0.950 1_565 S
C557 C574 1.574 . S
C557 C576 1.368 . S
C557 H581 0.949 . S
H558 C562 0.949 1_545 S
C559 C560 1.349 . S
C559 C561 1.327 . S
C559 H582 0.950 . S
C560 C559 1.349 . S
C560 C572 1.349 . S
C561 C559 1.327 . S
C561 C577 1.429 . S
C561 H583 0.950 . S
C562 H558 0.949 1_565 S
C562 C570 1.574 . S
C562 C578 1.368 . S
H563 C571 0.950 . S
H564 C569 0.950 . S
H565 C570 0.949 1_545 S
H566 C572 0.951 . S
H567 C573 0.950 1_545 S
H568 C574 0.949 . S
C569 H564 0.950 . S
C569 C571 1.327 . S
C569 C575 1.429 . S
C570 C562 1.574 . S
C570 H565 0.949 1_565 S
C570 C576 1.368 . S
C571 C555 1.349 . S
C571 H563 0.950 . S
C571 C569 1.327 . S
C572 C560 1.349 . S
C572 H566 0.951 . S
C572 C573 1.327 . S
C573 H567 0.950 1_565 S
C573 C572 1.327 . S
C573 C577 1.429 . S
C574 C557 1.574 . S
C574 H568 0.949 . S
C574 C578 1.368 . S
C575 C556 1.429 . S
C575 C569 1.429 . S
C575 C576 1.523 . S
C576 C557 1.368 . S
C576 C570 1.368 . S
C576 C575 1.523 . S
C577 C561 1.429 . S
C577 C573 1.429 . S
C577 C578 1.523 . S
C578 C562 1.368 . S
C578 C574 1.368 . S
C578 C577 1.523 . S
H579 C554 0.950 1_545 S
H580 C556 0.950 1_545 S
H581 C557 0.949 . S
H582 C559 0.950 . S
H583 C561 0.950 . S
C584 C585 1.349 . S
C584 C586 1.327 . S
C584 H609 0.950 . S
C585 C584 1.349 . S
C585 C601 1.349 . S
C586 C584 1.327 . S
C586 C605 1.429 . S
C586 H610 0.950 . S
C587 C604 1.574 . S
C587 C606 1.368 . S
C587 H611 0.949 . S
H588 C592 0.949 . S
C589 C590 1.349 . S
C589 C591 1.327 . S
C589 H612 0.950 . S
C590 C589 1.349 . S
C590 C602 1.349 . S
C591 C589 1.327 . S
C591 C607 1.429 . S
C591 H613 0.950 . S
C592 H588 0.949 . S
C592 C600 1.574 . S
C592 C608 1.368 . S
H593 C601 0.950 . S
H594 C599 0.950 . S
H595 C600 0.949 . S
H596 C602 0.950 . S
H597 C603 0.950 . S
H598 C604 0.949 . S
C599 H594 0.950 . S
C599 C601 1.327 . S
C599 C605 1.429 . S
C600 C592 1.574 . S
C600 H595 0.949 . S
C600 C606 1.368 . S
C601 C585 1.349 . S
C601 H593 0.950 . S
C601 C599 1.327 . S
C602 C590 1.349 . S
C602 H596 0.950 . S
C602 C603 1.327 . S
C603 H597 0.950 . S
C603 C602 1.327 . S
C603 C607 1.429 . S
C604 C587 1.574 . S
C604 H598 0.949 . S
C604 C608 1.368 . S
C605 C586 1.429 . S
C605 C599 1.429 . S
C605 C606 1.523 . S
C606 C587 1.368 . S
C606 C600 1.368 . S
C606 C605 1.523 . S
C607 C591 1.429 . S
C607 C603 1.429 . S
C607 C608 1.523 . S
C608 C592 1.368 . S
C608 C604 1.368 . S
C608 C607 1.523 . S
H609 C584 0.950 . S
H610 C586 0.950 . S
H611 C587 0.949 . S
H612 C589 0.950 . S
H613 C591 0.950 . S
C614 C615 1.349 . S
C614 C616 1.326 . S
C614 H639 0.950 1_455 S
C615 C614 1.349 . S
C615 C631 1.349 . S
C616 C614 1.326 . S
C616 C635 1.444 . S
C616 H640 0.936 1_455 S
C617 C634 1.574 . S
C617 C636 1.368 . S
C617 H641 0.949 . S
H618 C622 0.949 . S
C619 C620 1.349 . S
C619 C621 1.327 . S
C619 H642 0.950 . S
C620 C619 1.349 . S
C620 C632 1.349 1_455 S
C621 C619 1.327 . S
C621 C637 1.429 . S
C621 H643 0.950 . S
C622 H618 0.949 . S
C622 C630 1.574 . S
C622 C638 1.368 1_655 S
H623 C631 0.950 . S
H624 C629 0.950 . S
H625 C630 0.949 . S
H626 C632 0.950 . S
H627 C633 0.950 . S
H628 C634 0.949 . S
C629 H624 0.950 . S
C629 C631 1.327 . S
C629 C635 1.429 . S
C630 C622 1.574 . S
C630 H625 0.949 . S
C630 C636 1.368 1_655 S
C631 C615 1.349 . S
C631 H623 0.950 . S
C631 C629 1.327 . S
C632 C620 1.349 1_655 S
C632 H626 0.950 . S
C632 C633 1.327 . S
C633 H627 0.950 . S
C633 C632 1.327 . S
C633 C637 1.429 1_655 S
C634 C617 1.574 . S
C634 H628 0.949 . S
C634 C638 1.368 . S
C635 C616 1.444 . S
C635 C629 1.429 . S
C635 C636 1.523 . S
C636 C617 1.368 . S
C636 C630 1.368 1_455 S
C636 C635 1.523 . S
C637 C621 1.429 . S
C637 C633 1.429 1_455 S
C637 C638 1.523 . S
C638 C622 1.368 1_455 S
C638 C634 1.368 . S
C638 C637 1.523 . S
H639 C614 0.950 1_655 S
H640 C616 0.936 1_655 S
H641 C617 0.949 . S
H642 C619 0.950 . S
H643 C621 0.950 . S
C644 C645 1.349 . S
C644 C646 1.327 . S
C644 H669 0.950 . S
C645 C644 1.349 . S
C645 C661 1.349 . S
C646 C644 1.327 . S
C646 C665 1.429 . S
C646 H670 0.950 . S
C647 C664 1.574 . S
C647 C666 1.368 1_455 S
C647 H671 0.949 . S
H648 C652 0.949 . S
C649 C650 1.349 . S
C649 C651 1.327 . S
C649 H672 0.950 . S
C650 C649 1.349 . S
C650 C662 1.349 . S
C651 C649 1.327 . S
C651 C667 1.429 . S
C651 H673 0.950 . S
C652 H648 0.949 . S
C652 C660 1.574 . S
C652 C668 1.368 . S
H653 C661 0.950 . S
H654 C659 0.950 . S
H655 C660 0.949 1_655 S
H656 C662 0.950 . S
H657 C663 0.950 . S
H658 C664 0.949 . S
C659 H654 0.950 . S
C659 C661 1.327 . S
C659 C665 1.429 . S
C660 C652 1.574 . S
C660 H655 0.949 1_455 S
C660 C666 1.368 1_455 S
C661 C645 1.349 . S
C661 H653 0.950 . S
C661 C659 1.327 . S
C662 C650 1.349 . S
C662 H656 0.950 . S
C662 C663 1.327 . S
C663 H657 0.950 . S
C663 C662 1.327 . S
C663 C667 1.429 . S
C664 C647 1.574 . S
C664 H658 0.949 . S
C664 C668 1.368 . S
C665 C646 1.429 . S
C665 C659 1.429 . S
C665 C666 1.523 . S
C666 C647 1.368 1_655 S
C666 C660 1.368 1_655 S
C666 C665 1.523 . S
C667 C651 1.429 . S
C667 C663 1.429 . S
C667 C668 1.523 . S
C668 C652 1.368 . S
C668 C664 1.368 . S
C668 C667 1.523 . S
H669 C644 0.950 . S
H670 C646 0.950 . S
H671 C647 0.949 . S
H672 C649 0.950 . S
H673 C651 0.950 . S
C674 C675 1.349 1_554 S
C674 C676 1.327 . S
C674 H699 0.950 . S
C675 C674 1.349 1_556 S
C675 C691 1.349 . S
C676 C674 1.327 . S
C676 C695 1.429 1_554 S
C676 H700 0.950 . S
C677 C694 1.574 . S
C677 C696 1.368 . S
C677 H701 0.949 . S
H678 C682 0.949 . S
C679 C680 1.349 . S
C679 C681 1.327 . S
C679 H702 0.950 . S
C680 C679 1.349 . S
C680 C692 1.349 1_556 S
C681 C679 1.327 . S
C681 C697 1.429 . S
C681 H703 0.950 . S
C682 H678 0.949 . S
C682 C690 1.574 . S
C682 C698 1.368 1_554 S
H683 C691 0.950 . S
H684 C689 0.950 . S
H685 C690 0.949 . S
H686 C692 0.950 . S
H687 C693 0.950 . S
H688 C694 0.949 . S
C689 H684 0.950 . S
C689 C691 1.327 . S
C689 C695 1.429 . S
C690 C682 1.574 . S
C690 H685 0.949 . S
C690 C696 1.368 1_554 S
C691 C675 1.349 . S
C691 H683 0.950 . S
C691 C689 1.327 . S
C692 C680 1.349 1_554 S
C692 H686 0.950 . S
C692 C693 1.327 . S
C693 H687 0.950 . S
C693 C692 1.327 . S
C693 C697 1.429 1_554 S
C694 C677 1.574 . S
C694 H688 0.949 . S
C694 C698 1.368 . S
C695 C676 1.429 1_556 S
C695 C689 1.429 . S
C695 C696 1.523 . S
C696 C677 1.368 . S
C696 C690 1.368 1_556 S
C696 C695 1.523 . S
C697 C681 1.429 . S
C697 C693 1.429 1_556 S
C697 C698 1.523 . S
C698 C682 1.368 1_556 S
C698 C694 1.368 . S
C698 C697 1.523 . S
H699 C674 0.950 . S
H700 C676 0.950 . S
H701 C677 0.949 . S
H702 C679 0.950 . S
H703 C681 0.950 . S
C704 C705 1.349 . S
C704 C706 1.327 . S
C704 H729 0.950 . S
C705 C704 1.349 . S
C705 C721 1.349 . S
C706 C704 1.327 . S
C706 C725 1.429 . S
C706 H730 0.950 . S
C707 C724 1.574 . S
C707 C726 1.368 . S
C707 H731 0.949 . S
H708 C712 0.949 . S
C709 C710 1.349 . S
C709 C711 1.327 . S
C709 H732 0.950 . S
C710 C709 1.349 . S
C710 C722 1.349 . S
C711 C709 1.327 . S
C711 C727 1.429 . S
C711 H733 0.950 . S
C712 H708 0.949 . S
C712 C720 1.574 . S
C712 C728 1.368 . S
H713 C721 0.950 . S
H714 C719 0.950 . S
H715 C720 0.949 . S
H716 C722 0.950 . S
H717 C723 0.950 . S
H718 C724 0.949 . S
C719 H714 0.950 . S
C719 C721 1.327 . S
C719 C725 1.429 . S
C720 C712 1.574 . S
C720 H715 0.949 . S
C720 C726 1.368 . S
C721 C705 1.349 . S
C721 H713 0.950 . S
C721 C719 1.327 . S
C722 C710 1.349 . S
C722 H716 0.950 . S
C722 C723 1.327 . S
C723 H717 0.950 . S
C723 C722 1.327 . S
C723 C727 1.429 . S
C724 C707 1.574 . S
C724 H718 0.949 . S
C724 C728 1.368 . S
C725 C706 1.429 . S
C725 C719 1.429 . S
C725 C726 1.523 . S
C726 C707 1.368 . S
C726 C720 1.368 . S
C726 C725 1.523 . S
C727 C711 1.429 . S
C727 C723 1.429 . S
C727 C728 1.523 . S
C728 C712 1.368 . S
C728 C724 1.368 . S
C728 C727 1.523 . S
H729 C704 0.950 . S
H730 C706 0.950 . S
H731 C707 0.949 . S
H732 C709 0.950 . S
H733 C711 0.950 . S
C734 C735 1.349 . S
C734 C736 1.327 . S
C734 H759 0.950 . S
C735 C734 1.349 . S
C735 C751 1.349 . S
C736 C734 1.327 . S
C736 C755 1.429 . S
C736 H760 0.950 . S
C737 C754 1.574 . S
C737 C756 1.368 . S
C737 H761 0.949 . S
H738 C742 0.949 . S
C739 C740 1.349 . S
C739 C741 1.327 . S
C739 H762 0.950 . S
C740 C739 1.349 . S
C740 C752 1.349 . S
C741 C739 1.327 . S
C741 C757 1.429 . S
C741 H763 0.950 . S
C742 H738 0.949 . S
C742 C750 1.574 . S
C742 C758 1.368 . S
H743 C751 0.950 . S
H744 C749 0.950 . S
H745 C750 0.949 . S
H746 C752 0.950 . S
H747 C753 0.950 . S
H748 C754 0.949 . S
C749 H744 0.950 . S
C749 C751 1.327 . S
C749 C755 1.429 . S
C750 C742 1.574 . S
C750 H745 0.949 . S
C750 C756 1.368 . S
C751 C735 1.349 . S
C751 H743 0.950 . S
C751 C749 1.327 . S
C752 C740 1.349 . S
C752 H746 0.950 . S
C752 C753 1.327 . S
C753 H747 0.950 . S
C753 C752 1.327 . S
C753 C757 1.429 . S
C754 C737 1.574 . S
C754 H748 0.949 . S
C754 C758 1.368 . S
C755 C736 1.429 . S
C755 C749 1.429 . S
C755 C756 1.523 . S
C756 C737 1.368 . S
C756 C750 1.368 . S
C756 C755 1.523 . S
C757 C741 1.429 . S
C757 C753 1.429 . S
C757 C758 1.523 . S
C758 C742 1.368 . S
C758 C754 1.368 . S
C758 C757 1.523 . S
H759 C734 0.950 . S
H760 C736 0.950 . S
H761 C737 0.949 . S
H762 C739 0.950 . S
H763 C741 0.950 . S
C764 C765 1.349 . S
C764 C766 1.327 . S
C764 H789 0.950 . S
C765 C764 1.349 . S
C765 C781 1.349 . S
C766 C764 1.327 . S
C766 C785 1.429 . S
C766 H790 0.950 . S
C767 C784 1.574 . S
C767 C786 1.368 . S
C767 H791 0.949 . S
H768 C772 0.949 . S
C769 C770 1.349 . S
C769 C771 1.327 . S
C769 H792 0.950 . S
C770 C769 1.349 . S
C770 C782 1.349 . S
C771 C769 1.327 . S
C771 C787 1.429 . S
C771 H793 0.950 . S
C772 H768 0.949 . S
C772 C780 1.574 . S
C772 C788 1.368 . S
H773 C781 0.950 . S
H774 C779 0.950 . S
H775 C780 0.949 . S
H776 C782 0.950 . S
H777 C783 0.950 . S
H778 C784 0.949 . S
C779 H774 0.950 . S
C779 C781 1.327 . S
C779 C785 1.429 . S
C780 C772 1.574 . S
C780 H775 0.949 . S
C780 C786 1.368 . S
C781 C765 1.349 . S
C781 H773 0.950 . S
C781 C779 1.327 . S
C782 C770 1.349 . S
C782 H776 0.950 . S
C782 C783 1.327 . S
C783 H777 0.950 . S
C783 C782 1.327 . S
C783 C787 1.429 . S
C784 C767 1.574 . S
C784 H778 0.949 . S
C784 C788 1.368 . S
C785 C766 1.429 . S
C785 C779 1.429 . S
C785 C786 1.523 . S
C786 C767 1.368 . S
C786 C780 1.368 . S
C786 C785 1.523 . S
C787 C771 1.429 . S
C787 C783 1.429 . S
C787 C788 1.523 1_655 S
C788 C772 1.368 . S
C788 C784 1.368 . S
C788 C787 1.523 1_455 S
H789 C764 0.950 . S
H790 C766 0.950 . S
H791 C767 0.949 . S
H792 C769 0.950 . S
H793 C771 0.950 . S
C794 C795 1.349 1_455 S
C794 C796 1.327 . S
C794 H819 0.950 . S
C795 C794 1.349 1_655 S
C795 C811 1.349 1_556 S
C796 C794 1.327 . S
C796 C815 1.429 1_455 S
C796 H820 0.950 . S
C797 C814 1.574 . S
C797 C816 1.368 1_554 S
C797 H821 0.949 . S
H798 C802 0.949 . S
C799 C800 1.349 . S
C799 C801 1.327 . S
C799 H822 0.950 . S
C800 C799 1.349 . S
C800 C812 1.349 1_654 S
C801 C799 1.327 . S
C801 C817 1.429 . S
C801 H823 0.950 . S
C802 H798 0.949 . S
C802 C810 1.574 . S
C802 C818 1.368 1_456 S
H803 C811 0.950 . S
H804 C809 0.950 . S
H805 C810 0.949 . S
H806 C812 0.950 . S
H807 C813 0.950 . S
H808 C814 0.949 . S
C809 H804 0.950 . S
C809 C811 1.327 . S
C809 C815 1.429 1_554 S
C810 C802 1.574 . S
C810 H805 0.949 . S
C810 C816 1.368 1_455 S
C811 C795 1.349 1_554 S
C811 H803 0.950 . S
C811 C809 1.327 . S
C812 C800 1.349 1_456 S
C812 H806 0.950 . S
C812 C813 1.327 . S
C813 H807 0.950 . S
C813 C812 1.327 . S
C813 C817 1.429 1_456 S
C814 C797 1.574 . S
C814 H808 0.949 . S
C814 C818 1.368 . S
C815 C796 1.429 1_655 S
C815 C809 1.429 1_556 S
C815 C816 1.523 . S
C816 C797 1.368 1_556 S
C816 C810 1.368 1_655 S
C816 C815 1.523 . S
C817 C801 1.429 . S
C817 C813 1.429 1_654 S
C817 C818 1.523 . S
C818 C802 1.368 1_654 S
C818 C814 1.368 . S
C818 C817 1.523 . S
H819 C794 0.950 . S
H820 C796 0.950 . S
H821 C797 0.949 . S
H822 C799 0.950 . S
H823 C801 0.950 . S
C824 C825 1.349 . S
C824 C826 1.327 . S
C824 H849 0.950 . S
C825 C824 1.349 . S
C825 C841 1.349 . S
C826 C824 1.327 . S
C826 C845 1.429 . S
C826 H850 0.950 . S
C827 C844 1.574 . S
C827 C846 1.368 . S
C827 H851 0.949 . S
H828 C832 0.949 . S
C829 C830 1.349 . S
C829 C831 1.327 . S
C829 H852 0.950 . S
C830 C829 1.349 . S
C830 C842 1.349 . S
C831 C829 1.327 . S
C831 C847 1.429 . S
C831 H853 0.950 . S
C832 H828 0.949 . S
C832 C840 1.574 . S
C832 C848 1.368 . S
H833 C841 0.950 . S
H834 C839 0.950 . S
H835 C840 0.949 . S
H836 C842 0.950 . S
H837 C843 0.950 . S
H838 C844 0.949 . S
C839 H834 0.950 . S
C839 C841 1.327 . S
C839 C845 1.429 . S
C840 C832 1.574 . S
C840 H835 0.949 . S
C840 C846 1.368 . S
C841 C825 1.349 . S
C841 H833 0.950 . S
C841 C839 1.327 . S
C842 C830 1.349 . S
C842 H836 0.950 . S
C842 C843 1.327 . S
C843 H837 0.950 . S
C843 C842 1.327 . S
C843 C847 1.429 . S
C844 C827 1.574 . S
C844 H838 0.949 . S
C844 C848 1.368 . S
C845 C826 1.429 . S
C845 C839 1.429 . S
C845 C846 1.523 . S
C846 C827 1.368 . S
C846 C840 1.368 . S
C846 C845 1.523 . S
C847 C831 1.429 . S
C847 C843 1.429 . S
C847 C848 1.523 . S
C848 C832 1.368 . S
C848 C844 1.368 . S
C848 C847 1.523 . S
H849 C824 0.950 . S
H850 C826 0.950 . S
H851 C827 0.949 . S
H852 C829 0.950 . S
H853 C831 0.950 . S
C854 C855 1.349 . S
C854 C856 1.327 . S
C854 H879 0.950 . S
C855 C854 1.349 . S
C855 C871 1.349 . S
C856 C854 1.327 . S
C856 C875 1.429 . S
C856 H880 0.950 . S
C857 C874 1.574 . S
C857 C876 1.368 . S
C857 H881 0.949 . S
H858 C862 0.949 . S
C859 C860 1.349 . S
C859 C861 1.327 . S
C859 H882 0.950 . S
C860 C859 1.349 . S
C860 C872 1.349 . S
C861 C859 1.327 . S
C861 C877 1.429 . S
C861 H883 0.950 . S
C862 H858 0.949 . S
C862 C870 1.574 . S
C862 C878 1.368 . S
H863 C871 0.950 . S
H864 C869 0.950 . S
H865 C870 0.949 . S
H866 C872 0.950 . S
H867 C873 0.950 . S
H868 C874 0.949 . S
C869 H864 0.950 . S
C869 C871 1.327 . S
C869 C875 1.429 . S
C870 C862 1.574 . S
C870 H865 0.949 . S
C870 C876 1.368 . S
C871 C855 1.349 . S
C871 H863 0.950 . S
C871 C869 1.327 . S
C872 C860 1.349 . S
C872 H866 0.950 . S
C872 C873 1.327 . S
C873 H867 0.950 . S
C873 C872 1.327 . S
C873 C877 1.429 . S
C874 C857 1.574 . S
C874 H868 0.949 . S
C874 C878 1.368 . S
C875 C856 1.429 . S
C875 C869 1.429 . S
C875 C876 1.523 . S
C876 C857 1.368 . S
C876 C870 1.368 . S
C876 C875 1.523 . S
C877 C861 1.429 . S
C877 C873 1.429 . S
C877 C878 1.523 1_565 S
C878 C862 1.368 . S
C878 C874 1.368 . S
C878 C877 1.523 1_545 S
H879 C854 0.950 . S
H880 C856 0.950 . S
H881 C857 0.949 . S
H882 C859 0.950 . S
H883 C861 0.950 . S
C884 C885 1.349 . S
C884 C886 1.327 . S
C884 H909 0.950 . S
C885 C884 1.349 . S
C885 C901 1.349 . S
C886 C884 1.327 . S
C886 C905 1.429 . S
C886 H910 0.950 . S
C887 C904 1.574 . S
C887 C906 1.368 1_556 S
C887 H911 0.949 . S
H888 C892 0.949 . S
C889 C890 1.349 . S
C889 C891 1.327 . S
C889 H912 0.950 . S
C890 C889 1.349 . S
C890 C902 1.349 . S
C891 C889 1.327 . S
C891 C907 1.429 . S
C891 H913 0.950 . S
C892 H888 0.949 . S
C892 C900 1.574 1_556 S
C892 C908 1.368 . S
H893 C901 0.950 . S
H894 C899 0.950 . S
H895 C900 0.949 . S
H896 C902 0.950 . S
H897 C903 0.950 . S
H898 C904 0.949 . S
C899 H894 0.950 . S
C899 C901 1.327 . S
C899 C905 1.429 . S
C900 C892 1.574 1_554 S
C900 H895 0.949 . S
C900 C906 1.368 . S
C901 C885 1.349 . S
C901 H893 0.950 . S
C901 C899 1.327 . S
C902 C890 1.349 . S
C902 H896 0.950 . S
C902 C903 1.327 . S
C903 H897 0.950 . S
C903 C902 1.327 . S
C903 C907 1.429 . S
C904 C887 1.574 . S
C904 H898 0.949 . S
C904 C908 1.368 . S
C905 C886 1.429 . S
C905 C899 1.429 . S
C905 C906 1.523 . S
C906 C887 1.368 1_554 S
C906 C900 1.368 . S
C906 C905 1.523 . S
C907 C891 1.429 . S
C907 C903 1.429 . S
C907 C908 1.523 . S
C908 C892 1.368 . S
C908 C904 1.368 . S
C908 C907 1.523 . S
H909 C884 0.950 . S
H910 C886 0.950 . S
H911 C887 0.949 . S
H912 C889 0.950 . S
H913 C891 0.950 . S
C914 C915 1.349 . S
C914 C916 1.327 . S
C914 H939 0.950 . S
C915 C914 1.349 . S
C915 C931 1.349 . S
C916 C914 1.327 . S
C916 C935 1.429 . S
C916 H940 0.950 . S
C917 C934 1.574 1_545 S
C917 C936 1.368 . S
C917 H941 0.949 . S
H918 C922 0.949 . S
C919 C920 1.349 . S
C919 C921 1.327 . S
C919 H942 0.950 . S
C920 C919 1.349 . S
C920 C932 1.349 . S
C921 C919 1.327 . S
C921 C937 1.429 . S
C921 H943 0.950 . S
C922 H918 0.949 . S
C922 C930 1.574 1_565 S
C922 C938 1.368 . S
H923 C931 0.950 . S
H924 C929 0.950 . S
H925 C930 0.949 . S
H926 C932 0.950 . S
H927 C933 0.950 . S
H928 C934 0.949 . S
C929 H924 0.950 . S
C929 C931 1.327 . S
C929 C935 1.429 . S
C930 C922 1.574 1_545 S
C930 H925 0.949 . S
C930 C936 1.368 . S
C931 C915 1.349 . S
C931 H923 0.950 . S
C931 C929 1.327 . S
C932 C920 1.349 . S
C932 H926 0.950 . S
C932 C933 1.327 . S
C933 H927 0.950 . S
C933 C932 1.327 . S
C933 C937 1.429 . S
C934 C917 1.574 1_565 S
C934 H928 0.949 . S
C934 C938 1.368 . S
C935 C916 1.429 . S
C935 C929 1.429 . S
C935 C936 1.523 . S
C936 C917 1.368 . S
C936 C930 1.368 . S
C936 C935 1.523 . S
C937 C921 1.429 . S
C937 C933 1.429 . S
C937 C938 1.523 . S
C938 C922 1.368 . S
C938 C934 1.368 . S
C938 C937 1.523 . S
H939 C914 0.950 . S
H940 C916 0.950 . S
H941 C917 0.949 . S
H942 C919 0.950 . S
H943 C921 0.950 . S
C944 C945 1.349 . S
C944 C946 1.327 . S
C944 H969 0.950 . S
C945 C944 1.349 . S
C945 C961 1.349 . S
C946 C944 1.327 . S
C946 C965 1.429 . S
C946 H970 0.950 . S
C947 C964 1.574 . S
C947 C966 1.368 . S
C947 H971 0.949 . S
H948 C952 0.949 . S
C949 C950 1.349 . S
C949 C951 1.327 . S
C949 H972 0.950 . S
C950 C949 1.349 . S
C950 C962 1.349 . S
C951 C949 1.327 . S
C951 C967 1.429 . S
C951 H973 0.950 . S
C952 H948 0.949 . S
C952 C960 1.574 . S
C952 C968 1.368 . S
H953 C961 0.950 . S
H954 C959 0.950 . S
H955 C960 0.949 . S
H956 C962 0.950 . S
H957 C963 0.950 . S
H958 C964 0.949 . S
C959 H954 0.950 . S
C959 C961 1.327 . S
C959 C965 1.429 . S
C960 C952 1.574 . S
C960 H955 0.949 . S
C960 C966 1.368 . S
C961 C945 1.349 . S
C961 H953 0.950 . S
C961 C959 1.327 . S
C962 C950 1.349 . S
C962 H956 0.950 . S
C962 C963 1.327 . S
C963 H957 0.950 . S
C963 C962 1.327 . S
C963 C967 1.429 . S
C964 C947 1.574 . S
C964 H958 0.949 . S
C964 C968 1.368 . S
C965 C946 1.429 . S
C965 C959 1.429 . S
C965 C966 1.523 . S
C966 C947 1.368 . S
C966 C960 1.368 . S
C966 C965 1.523 . S
C967 C951 1.429 . S
C967 C963 1.429 . S
C967 C968 1.523 . S
C968 C952 1.368 . S
C968 C964 1.368 . S
C968 C967 1.523 . S
H969 C944 0.950 . S
H970 C946 0.950 . S
H971 C947 0.949 . S
H972 C949 0.950 . S
H973 C951 0.950 . S
C974 C975 1.349 . S
C974 C976 1.327 . S
C974 H999 0.950 . S
C975 C974 1.349 . S
C975 C991 1.349 . S
C976 C974 1.327 . S
C976 C995 1.429 . S
C976 H1000 0.950 . S
C977 C994 1.574 . S
C977 C996 1.368 . S
C977 H1001 0.949 . S
H978 C982 0.949 . S
C979 C980 1.349 . S
C979 C981 1.327 . S
C979 H1002 0.950 . S
C980 C979 1.349 . S
C980 C992 1.349 . S
C981 C979 1.327 . S
C981 C997 1.429 . S
C981 H1003 0.950 . S
C982 H978 0.949 . S
C982 C990 1.574 . S
C982 C998 1.368 . S
H983 C991 0.950 . S
H984 C989 0.950 . S
H985 C990 0.949 . S
H986 C992 0.950 . S
H987 C993 0.950 . S
H988 C994 0.949 . S
C989 H984 0.950 . S
C989 C991 1.327 . S
C989 C995 1.429 . S
C990 C982 1.574 . S
C990 H985 0.949 . S
C990 C996 1.368 . S
C991 C975 1.349 . S
C991 H983 0.950 . S
C991 C989 1.327 . S
C992 C980 1.349 . S
C992 H986 0.950 . S
C992 C993 1.327 . S
C993 H987 0.950 . S
C993 C992 1.327 . S
C993 C997 1.429 . S
C994 C977 1.574 . S
C994 H988 0.949 . S
C994 C998 1.368 . S
C995 C976 1.429 . S
C995 C989 1.429 . S
C995 C996 1.523 . S
C996 C977 1.368 . S
C996 C990 1.368 . S
C996 C995 1.523 . S
C997 C981 1.429 . S
C997 C993 1.429 . S
C997 C998 1.523 . S
C998 C982 1.368 . S
C998 C994 1.368 . S
C998 C997 1.523 . S
H999 C974 0.950 . S
H1000 C976 0.950 . S
H1001 C977 0.949 . S
H1002 C979 0.950 . S
H1003 C981 0.950 . S
C1004 C1005 1.349 . S
C1004 C1006 1.327 . S
C1004 H1029 0.950 . S
C1005 C1004 1.349 . S
C1005 C1021 1.349 . S
C1006 C1004 1.327 . S
C1006 C1025 1.429 . S
C1006 H1030 0.950 . S
C1007 C1024 1.574 . S
C1007 C1026 1.368 . S
C1007 H1031 0.949 . S
H1008 C1012 0.949 . S
C1009 C1010 1.349 . S
C1009 C1011 1.327 . S
C1009 H1032 0.950 . S
C1010 C1009 1.349 . S
C1010 C1022 1.349 . S
C1011 C1009 1.327 . S
C1011 C1027 1.429 . S
C1011 H1033 0.950 . S
C1012 H1008 0.949 . S
C1012 C1020 1.574 . S
C1012 C1028 1.368 . S
H1013 C1021 0.950 . S
H1014 C1019 0.950 . S
H1015 C1020 0.949 . S
H1016 C1022 0.950 . S
H1017 C1023 0.950 . S
H1018 C1024 0.949 . S
C1019 H1014 0.950 . S
C1019 C1021 1.327 . S
C1019 C1025 1.429 . S
C1020 C1012 1.574 . S
C1020 H1015 0.949 . S
C1020 C1026 1.368 . S
C1021 C1005 1.349 . S
C1021 H1013 0.950 . S
C1021 C1019 1.327 . S
C1022 C1010 1.349 . S
C1022 H1016 0.950 . S
C1022 C1023 1.327 . S
C1023 H1017 0.950 . S
C1023 C1022 1.327 . S
C1023 C1027 1.429 . S
C1024 C1007 1.574 . S
C1024 H1018 0.949 . S
C1024 C1028 1.368 . S
C1025 C1006 1.429 . S
C1025 C1019 1.429 . S
C1025 C1026 1.523 . S
C1026 C1007 1.368 . S
C1026 C1020 1.368 . S
C1026 C1025 1.523 . S
C1027 C1011 1.429 . S
C1027 C1023 1.429 . S
C1027 C1028 1.523 . S
C1028 C1012 1.368 . S
C1028 C1024 1.368 . S
C1028 C1027 1.523 . S
H1029 C1004 0.950 . S
H1030 C1006 0.950 . S
H1031 C1007 0.949 . S
H1032 C1009 0.950 . S
H1033 C1011 0.950 . S
C1034 C1035 1.349 . S
C1034 C1036 1.327 . S
C1034 H1059 0.950 . S
C1035 C1034 1.349 . S
C1035 C1051 1.349 . S
C1036 C1034 1.327 . S
C1036 C1055 1.429 . S
C1036 H1060 0.950 . S
C1037 C1054 1.574 1_556 S
C1037 C1056 1.368 . S
C1037 H1061 0.949 . S
H1038 C1042 0.949 . S
C1039 C1040 1.349 . S
C1039 C1041 1.327 . S
C1039 H1062 0.950 . S
C1040 C1039 1.349 . S
C1040 C1052 1.349 . S
C1041 C1039 1.327 . S
C1041 C1057 1.429 . S
C1041 H1063 0.950 . S
C1042 H1038 0.949 . S
C1042 C1050 1.574 1_554 S
C1042 C1058 1.368 . S
H1043 C1051 0.950 . S
H1044 C1049 0.950 . S
H1045 C1050 0.949 . S
H1046 C1052 0.950 . S
H1047 C1053 0.950 . S
H1048 C1054 0.949 . S
C1049 H1044 0.950 . S
C1049 C1051 1.327 . S
C1049 C1055 1.429 . S
C1050 C1042 1.574 1_556 S
C1050 H1045 0.949 . S
C1050 C1056 1.368 . S
C1051 C1035 1.349 . S
C1051 H1043 0.950 . S
C1051 C1049 1.327 . S
C1052 C1040 1.349 . S
C1052 H1046 0.950 . S
C1052 C1053 1.327 . S
C1053 H1047 0.950 . S
C1053 C1052 1.327 . S
C1053 C1057 1.429 . S
C1054 C1037 1.574 1_554 S
C1054 H1048 0.949 . S
C1054 C1058 1.368 . S
C1055 C1036 1.429 . S
C1055 C1049 1.429 . S
C1055 C1056 1.523 . S
C1056 C1037 1.368 . S
C1056 C1050 1.368 . S
C1056 C1055 1.523 . S
C1057 C1041 1.429 . S
C1057 C1053 1.429 . S
C1057 C1058 1.523 . S
C1058 C1042 1.368 . S
C1058 C1054 1.368 . S
C1058 C1057 1.523 . S
H1059 C1034 0.950 . S
H1060 C1036 0.950 . S
H1061 C1037 0.949 . S
H1062 C1039 0.950 . S
H1063 C1041 0.950 . S
C1064 C1065 1.349 . S
C1064 C1066 1.327 . S
C1064 H1089 0.950 . S
C1065 C1064 1.349 . S
C1065 C1081 1.349 . S
C1066 C1064 1.327 . S
C1066 C1085 1.429 . S
C1066 H1090 0.950 . S
C1067 C1084 1.574 . S
C1067 C1086 1.368 . S
C1067 H1091 0.949 . S
H1068 C1072 0.949 . S
C1069 C1070 1.349 . S
C1069 C1071 1.327 . S
C1069 H1092 0.950 . S
C1070 C1069 1.349 . S
C1070 C1082 1.349 . S
C1071 C1069 1.327 . S
C1071 C1087 1.429 . S
C1071 H1093 0.950 . S
C1072 H1068 0.949 . S
C1072 C1080 1.574 . S
C1072 C1088 1.368 . S
H1073 C1081 0.950 . S
H1074 C1079 0.950 . S
H1075 C1080 0.949 . S
H1076 C1082 0.950 . S
H1077 C1083 0.950 . S
H1078 C1084 0.949 . S
C1079 H1074 0.950 . S
C1079 C1081 1.327 . S
C1079 C1085 1.429 . S
C1080 C1072 1.574 . S
C1080 H1075 0.949 . S
C1080 C1086 1.368 . S
C1081 C1065 1.349 . S
C1081 H1073 0.950 . S
C1081 C1079 1.327 . S
C1082 C1070 1.349 . S
C1082 H1076 0.950 . S
C1082 C1083 1.327 . S
C1083 H1077 0.950 . S
C1083 C1082 1.327 . S
C1083 C1087 1.429 . S
C1084 C1067 1.574 . S
C1084 H1078 0.949 . S
C1084 C1088 1.368 . S
C1085 C1066 1.429 . S
C1085 C1079 1.429 . S
C1085 C1086 1.523 . S
C1086 C1067 1.368 . S
C1086 C1080 1.368 . S
C1086 C1085 1.523 . S
C1087 C1071 1.429 . S
C1087 C1083 1.429 . S
C1087 C1088 1.523 . S
C1088 C1072 1.368 . S
C1088 C1084 1.368 . S
C1088 C1087 1.523 . S
H1089 C1064 0.950 . S
H1090 C1066 0.950 . S
H1091 C1067 0.949 . S
H1092 C1069 0.950 . S
H1093 C1071 0.950 . S
C1094 C1095 1.349 . S
C1094 C1096 1.327 . S
C1094 H1119 0.950 . S
C1095 C1094 1.349 . S
C1095 C1111 1.349 . S
C1096 C1094 1.327 . S
C1096 C1115 1.429 . S
C1096 H1120 0.950 . S
C1097 C1114 1.574 . S
C1097 C1116 1.368 . S
C1097 H1121 0.949 . S
H1098 C1102 0.949 . S
C1099 C1100 1.349 . S
C1099 C1101 1.327 . S
C1099 H1122 0.950 . S
C1100 C1099 1.349 . S
C1100 C1112 1.349 . S
C1101 C1099 1.327 . S
C1101 C1117 1.429 . S
C1101 H1123 0.950 . S
C1102 H1098 0.949 . S
C1102 C1110 1.574 . S
C1102 C1118 1.368 . S
H1103 C1111 0.950 . S
H1104 C1109 0.950 . S
H1105 C1110 0.949 . S
H1106 C1112 0.950 . S
H1107 C1113 0.950 . S
H1108 C1114 0.949 . S
C1109 H1104 0.950 . S
C1109 C1111 1.327 . S
C1109 C1115 1.429 . S
C1110 C1102 1.574 . S
C1110 H1105 0.949 . S
C1110 C1116 1.368 . S
C1111 C1095 1.349 . S
C1111 H1103 0.950 . S
C1111 C1109 1.327 . S
C1112 C1100 1.349 . S
C1112 H1106 0.950 . S
C1112 C1113 1.327 . S
C1113 H1107 0.950 . S
C1113 C1112 1.327 . S
C1113 C1117 1.429 . S
C1114 C1097 1.574 . S
C1114 H1108 0.949 . S
C1114 C1118 1.368 . S
C1115 C1096 1.429 . S
C1115 C1109 1.429 . S
C1115 C1116 1.523 . S
C1116 C1097 1.368 . S
C1116 C1110 1.368 . S
C1116 C1115 1.523 . S
C1117 C1101 1.429 . S
C1117 C1113 1.429 . S
C1117 C1118 1.523 . S
C1118 C1102 1.368 . S
C1118 C1114 1.368 . S
C1118 C1117 1.523 . S
H1119 C1094 0.950 . S
H1120 C1096 0.950 . S
H1121 C1097 0.949 . S
H1122 C1099 0.950 . S
H1123 C1101 0.950 . S
C1124 C1125 1.349 1_455 S
C1124 C1126 1.327 . S
C1124 H1149 0.950 . S
C1125 C1124 1.349 1_655 S
C1125 C1141 1.349 . S
C1126 C1124 1.327 . S
C1126 C1145 1.429 1_455 S
C1126 H1150 0.950 . S
C1127 C1144 1.574 . S
C1127 C1146 1.368 . S
C1127 H1151 0.949 . S
H1128 C1132 0.949 . S
C1129 C1130 1.349 . S
C1129 C1131 1.327 . S
C1129 H1152 0.950 . S
C1130 C1129 1.349 . S
C1130 C1142 1.349 1_655 S
C1131 C1129 1.327 . S
C1131 C1147 1.429 . S
C1131 H1153 0.950 . S
C1132 H1128 0.949 . S
C1132 C1140 1.574 . S
C1132 C1148 1.368 1_455 S
H1133 C1141 0.950 . S
H1134 C1139 0.950 . S
H1135 C1140 0.949 . S
H1136 C1142 0.950 . S
H1137 C1143 0.950 . S
H1138 C1144 0.949 . S
C1139 H1134 0.950 . S
C1139 C1141 1.327 . S
C1139 C1145 1.429 . S
C1140 C1132 1.574 . S
C1140 H1135 0.949 . S
C1140 C1146 1.368 1_455 S
C1141 C1125 1.349 . S
C1141 H1133 0.950 . S
C1141 C1139 1.327 . S
C1142 C1130 1.349 1_455 S
C1142 H1136 0.950 . S
C1142 C1143 1.327 . S
C1143 H1137 0.950 . S
C1143 C1142 1.327 . S
C1143 C1147 1.429 1_455 S
C1144 C1127 1.574 . S
C1144 H1138 0.949 . S
C1144 C1148 1.368 . S
C1145 C1126 1.429 1_655 S
C1145 C1139 1.429 . S
C1145 C1146 1.523 . S
C1146 C1127 1.368 . S
C1146 C1140 1.368 1_655 S
C1146 C1145 1.523 . S
C1147 C1131 1.429 . S
C1147 C1143 1.429 1_655 S
C1147 C1148 1.523 . S
C1148 C1132 1.368 1_655 S
C1148 C1144 1.368 . S
C1148 C1147 1.523 . S
H1149 C1124 0.950 . S
H1150 C1126 0.950 . S
H1151 C1127 0.949 . S
H1152 C1129 0.950 . S
H1153 C1131 0.950 . S
C1154 C1155 1.349 . S
C1154 C1156 1.327 . S
C1154 H1179 0.950 . S
C1155 C1154 1.349 . S
C1155 C1171 1.349 . S
C1156 C1154 1.327 . S
C1156 C1175 1.429 . S
C1156 H1180 0.950 . S
C1157 C1174 1.576 . S
C1157 C1176 1.393 . S
C1157 H1181 0.924 1_545 S
H1158 C1162 0.949 . S
C1159 C1160 1.349 . S
C1159 C1161 1.333 . S
C1159 H1182 0.950 1_545 S
C1160 C1159 1.349 . S
C1160 C1172 1.349 . S
C1161 C1159 1.333 . S
C1161 C1177 1.454 . S
C1161 H1183 0.918 1_545 S
C1162 H1158 0.949 . S
C1162 C1170 1.574 . S
C1162 C1178 1.368 . S
H1163 C1171 0.950 1_565 S
H1164 C1169 0.950 1_565 S
H1165 C1170 0.949 . S
H1166 C1172 0.950 . S
H1167 C1173 0.950 . S
H1168 C1174 0.943 1_565 S
C1169 H1164 0.950 1_545 S
C1169 C1171 1.327 . S
C1169 C1175 1.429 . S
C1170 C1162 1.574 . S
C1170 H1165 0.949 . S
C1170 C1176 1.368 . S
C1171 C1155 1.349 . S
C1171 H1163 0.950 1_545 S
C1171 C1169 1.327 . S
C1172 C1160 1.349 . S
C1172 H1166 0.950 . S
C1172 C1173 1.327 . S
C1173 H1167 0.950 . S
C1173 C1172 1.327 . S
C1173 C1177 1.429 . S
C1174 C1157 1.576 . S
C1174 H1168 0.943 1_545 S
C1174 C1178 1.376 . S
C1175 C1156 1.429 . S
C1175 C1169 1.429 . S
C1175 C1176 1.523 . S
C1176 C1157 1.393 . S
C1176 C1170 1.368 . S
C1176 C1175 1.523 . S
C1177 C1161 1.454 . S
C1177 C1173 1.429 . S
C1177 C1178 1.523 . S
C1178 C1162 1.368 . S
C1178 C1174 1.376 . S
C1178 C1177 1.523 . S
H1179 C1154 0.950 . S
H1180 C1156 0.950 . S
H1181 C1157 0.924 1_565 S
H1182 C1159 0.950 1_565 S
H1183 C1161 0.918 1_565 S
C225 C6 1.764 . S
C230 C104 1.736 1_554 S
C255 C20 1.938 . S
C260 C62 1.941 . S
C285 C76 1.622 . S
C290 C34 1.671 . S
C315 C48 1.917 1_545 S
C320 C90 1.830 . S
C345 C118 1.941 . S
C350 C174 1.938 . S
C375 C132 1.622 . S
C380 C202 1.672 . S
C405 C160 1.926 . S
C410 C146 1.830 . S
C435 C216 1.736 . S
C440 C188 1.764 . S
C465 C9 0.910 . S
C470 C91 0.868 . S
C495 C106 1.595 . S
C500 C22 1.595 . S
C525 C37 0.911 . S
C530 C63 0.872 . S
C555 C78 1.757 . S
C560 C49 1.663 . S
C585 C8 1.249 . S
C590 C204 1.248 . S
C615 C163 0.564 . S
C620 C21 0.610 1_455 S
C645 C190 1.248 . S
C650 C36 1.248 . S
C675 C175 0.610 . S
C680 C51 0.564 1_556 S
C705 C149 2.021 . S
C710 C65 1.996 . S
C735 C77 0.775 . S
C740 C217 0.781 . S
C765 C93 2.021 . S
C770 C121 1.996 . S
C795 C105 0.781 . S
C800 C133 0.776 . S
C825 C7 1.482 . S
C830 C64 1.561 . S
C855 C120 1.561 . S
C860 C189 1.482 . S
C885 C177 1.619 . S
C890 C135 1.635 . S
C915 C203 1.057 . S
C920 C148 1.085 . S
C945 C107 1.507 . S
C950 C50 1.517 . S
C975 C35 1.057 . S
C980 C92 1.085 . S
C1005 C162 1.517 . S
C1010 C219 1.507 . S
C1035 C191 0.910 . S
C1040 C147 0.869 . S
C1065 C218 1.595 . S
C1070 C176 1.595 . S
C1095 C205 0.912 . S
C1100 C119 0.872 . S
C1125 C161 1.663 1_655 S
C1130 C134 1.757 . S
C1155 C23 1.619 . S
C1160 C79 1.639 . S
