# Generated by pormake.
# Topology sod, (4)-cn, num edge types: 1
# Building blocks:
#     Node 0, Type 0, BuildingBlock: KUFVIS_clean_sbu_0, # of connection points: 4
#     Node 1, Type 0, BuildingBlock: KUFVIS_clean_sbu_0, # of connection points: 4
#     Node 2, Type 0, BuildingBlock: KUFVIS_clean_sbu_0, # of connection points: 4
#     Node 3, Type 0, BuildingBlock: KUFVIS_clean_sbu_0, # of connection points: 4
#     Node 4, Type 0, BuildingBlock: KUFVIS_clean_sbu_0, # of connection points: 4
#     Node 5, Type 0, BuildingBlock: KUFVIS_clean_sbu_0, # of connection points: 4
#     Node 6, Type 0, BuildingBlock: KUFVIS_clean_sbu_0, # of connection points: 4
#     Node 7, Type 0, BuildingBlock: KUFVIS_clean_sbu_0, # of connection points: 4
#     Node 8, Type 0, BuildingBlock: KUFVIS_clean_sbu_0, # of connection points: 4
#     Node 9, Type 0, BuildingBlock: KUFVIS_clean_sbu_0, # of connection points: 4
#     Node 10, Type 0, BuildingBlock: KUFVIS_clean_sbu_0, # of connection points: 4
#     Node 11, Type 0, BuildingBlock: KUFVIS_clean_sbu_0, # of connection points: 4
#     Edge 12, Type (0, 0), BuildingBlock: TEMPAE_clean_linker_10, # of connection points: 2
#     Edge 13, Type (0, 0), BuildingBlock: TEMPAE_clean_linker_10, # of connection points: 2
#     Edge 14, Type (0, 0), BuildingBlock: TEMPAE_clean_linker_10, # of connection points: 2
#     Edge 15, Type (0, 0), BuildingBlock: TEMPAE_clean_linker_10, # of connection points: 2
#     Edge 16, Type (0, 0), BuildingBlock: TEMPAE_clean_linker_10, # of connection points: 2
#     Edge 17, Type (0, 0), BuildingBlock: TEMPAE_clean_linker_10, # of connection points: 2
#     Edge 18, Type (0, 0), BuildingBlock: TEMPAE_clean_linker_10, # of connection points: 2
#     Edge 19, Type (0, 0), BuildingBlock: TEMPAE_clean_linker_10, # of connection points: 2
#     Edge 20, Type (0, 0), BuildingBlock: TEMPAE_clean_linker_10, # of connection points: 2
#     Edge 21, Type (0, 0), BuildingBlock: TEMPAE_clean_linker_10, # of connection points: 2
#     Edge 22, Type (0, 0), BuildingBlock: TEMPAE_clean_linker_10, # of connection points: 2
#     Edge 23, Type (0, 0), BuildingBlock: TEMPAE_clean_linker_10, # of connection points: 2
#     Edge 24, Type (0, 0), BuildingBlock: TEMPAE_clean_linker_10, # of connection points: 2
#     Edge 25, Type (0, 0), BuildingBlock: TEMPAE_clean_linker_10, # of connection points: 2
#     Edge 26, Type (0, 0), BuildingBlock: TEMPAE_clean_linker_10, # of connection points: 2
#     Edge 27, Type (0, 0), BuildingBlock: TEMPAE_clean_linker_10, # of connection points: 2
#     Edge 28, Type (0, 0), BuildingBlock: TEMPAE_clean_linker_10, # of connection points: 2
#     Edge 29, Type (0, 0), BuildingBlock: TEMPAE_clean_linker_10, # of connection points: 2
#     Edge 30, Type (0, 0), BuildingBlock: TEMPAE_clean_linker_10, # of connection points: 2
#     Edge 31, Type (0, 0), BuildingBlock: TEMPAE_clean_linker_10, # of connection points: 2
#     Edge 32, Type (0, 0), BuildingBlock: TEMPAE_clean_linker_10, # of connection points: 2
#     Edge 33, Type (0, 0), BuildingBlock: TEMPAE_clean_linker_10, # of connection points: 2
#     Edge 34, Type (0, 0), BuildingBlock: TEMPAE_clean_linker_10, # of connection points: 2
#     Edge 35, Type (0, 0), BuildingBlock: TEMPAE_clean_linker_10, # of connection points: 2
# Relax obj value: 0.118
# Max RMSD: 0.164
# Mean RMSD: 0.150
data_MOF--net-sod--node1-KUFVIS_clean_sbu_0--edge1-TEMPAE_clean_linker_10
_symmetry_space_group_name_H-M    P1
_symmetry_Int_Tables_number       1
_symmetry_cell_setting            triclinic
loop_
_symmetry_equiv_pos_as_xyz
'x, y, z'
_cell_length_a     42.42648
_cell_length_b     42.448909
_cell_length_c     42.869859
_cell_angle_alpha  91.39283
_cell_angle_beta   90.185266
_cell_angle_gamma 92.567129
loop_
_atom_site_label
_atom_site_type_symbol
_atom_site_fract_x
_atom_site_fract_y
_atom_site_fract_z
_atom_type_partial_charge
Mn0 Mn 0.03079 0.25767 0.50089 0.0
Mn1 Mn 0.95893 0.28716 0.49331 0.0
C2 C 0.98557 0.22694 0.51186 0.0
C3 C 0.07499 0.22855 0.48964 0.0
C4 C 1.00145 0.30466 0.54668 0.0
O5 O 0.04004 0.29251 0.46965 0.0
O6 O 0.99223 0.31379 0.4731 0.0
C7 C 0.95186 0.27997 0.42461 0.0
N8 N 0.94072 0.27462 0.45386 0.0
C9 C 0.891 0.25375 0.43341 0.0
C10 C 0.90192 0.25905 0.40307 0.0
C11 C 0.93257 0.27203 0.39866 0.0
C12 C 0.91142 0.2618 0.45834 0.0
H13 H 0.97514 0.29044 0.42107 0.0
C14 C 0.02083 0.31399 0.46364 0.0
O15 O 0.07587 0.25189 0.50959 0.0
O16 O 0.04899 0.22381 0.47363 0.0
N17 N 0.92426 0.264 0.51118 0.0
C18 C 0.9182 0.25861 0.54182 0.0
C19 C 0.88906 0.24443 0.5502 0.0
C20 C 0.86643 0.23639 0.52705 0.0
C21 C 0.87326 0.24212 0.49568 0.0
C22 C 0.90273 0.25613 0.48873 0.0
H23 H 0.93542 0.26526 0.55968 0.0
O24 O 0.01177 0.22335 0.52684 0.0
O25 O 0.98565 0.25011 0.49248 0.0
O26 O 0.02491 0.29118 0.53514 0.0
O27 O 0.97403 0.30217 0.53474 0.0
C28 C 0.85207 0.23448 0.47103 0.0
C29 C 0.86083 0.24035 0.43993 0.0
H30 H 0.88705 0.25307 0.38301 0.0
H31 H 0.9412 0.27621 0.37532 0.0
H32 H 0.88393 0.23993 0.57444 0.0
H33 H 0.84398 0.22571 0.53369 0.0
H34 H 0.82917 0.22368 0.47567 0.0
H35 H 0.84443 0.23392 0.42118 0.0
Mn36 Mn 0.77616 0.01749 0.52531 0.0
Mn37 Mn 0.74592 0.08995 0.5283 0.0
C38 C 0.80616 0.06129 0.5078 0.0
C39 C 0.80664 0.97548 0.54033 0.0
C40 C 0.72514 0.03922 0.48103 0.0
O41 O 0.74136 0.01203 0.55891 0.0
O42 O 0.72489 0.06184 0.55848 0.0
C43 C 0.76565 0.11136 0.5921 0.0
N44 N 0.76323 0.11661 0.56103 0.0
C45 C 0.77756 0.17168 0.56862 0.0
C46 C 0.77939 0.16716 0.60087 0.0
C47 C 0.77398 0.13673 0.61261 0.0
C48 C 0.77012 0.14535 0.54936 0.0
H49 H 0.76131 0.08802 0.60102 0.0
C50 C 0.72381 0.03393 0.56909 0.0
O51 O 0.78289 0.97163 0.52146 0.0
O52 O 0.81083 0.00336 0.55341 0.0
N53 N 0.76392 0.12032 0.50076 0.0
C54 C 0.76444 0.1196 0.46901 0.0
C55 C 0.7719 0.14751 0.45317 0.0
C56 C 0.77782 0.17592 0.47016 0.0
C57 C 0.77738 0.17596 0.5029 0.0
C58 C 0.7706 0.14729 0.51732 0.0
H59 H 0.75845 0.09806 0.45595 0.0
O60 O 0.80982 0.03312 0.49634 0.0
O61 O 0.7835 0.06368 0.52808 0.0
O62 O 0.7431 0.01852 0.49079 0.0
O63 O 0.72457 0.06668 0.49335 0.0
C64 C 0.78275 0.2033 0.52185 0.0
C65 C 0.78318 0.20113 0.55469 0.0
H66 H 0.7854 0.18674 0.61677 0.0
H67 H 0.77584 0.13293 0.6374 0.0
H68 H 0.77218 0.14733 0.42792 0.0
H69 H 0.78245 0.19753 0.45775 0.0
H70 H 0.78699 0.2261 0.51149 0.0
H71 H 0.78836 0.22214 0.56896 0.0
Mn72 Mn 0.0211 0.78405 0.5257 0.0
Mn73 Mn 0.0864 0.74897 0.5015 0.0
C74 C 0.07103 0.80927 0.53383 0.0
C75 C 0.97776 0.81643 0.52113 0.0
C76 C 0.04467 0.72509 0.55388 0.0
O77 O 0.00529 0.75054 0.49235 0.0
O78 O 0.05241 0.73805 0.47148 0.0
C79 C 0.1025 0.77915 0.44181 0.0
N80 N 0.11044 0.77216 0.47156 0.0
C81 C 0.1646 0.7889 0.46338 0.0
C82 C 0.15708 0.79625 0.43258 0.0
C83 C 0.1258 0.79179 0.4219 0.0
C84 C 0.14019 0.77742 0.48241 0.0
H85 H 0.07872 0.77458 0.43325 0.0
C86 C 0.02224 0.73708 0.47146 0.0
O87 O 0.97803 0.79322 0.54005 0.0
O88 O 1.0021 0.81986 0.50288 0.0
N89 N 0.12099 0.75818 0.52932 0.0
C90 C 0.12423 0.75013 0.55973 0.0
C91 C 0.15382 0.75423 0.57436 0.0
C92 C 0.17992 0.76565 0.55732 0.0
C93 C 0.176 0.77346 0.52601 0.0
C94 C 0.14578 0.76989 0.51297 0.0
H95 H 0.10455 0.74035 0.57269 0.0
O96 O 0.04723 0.81647 0.55119 0.0
O97 O 0.06478 0.78738 0.51297 0.0
O98 O 0.02911 0.74976 0.55671 0.0
O99 O 0.06484 0.72153 0.53232 0.0
C100 C 0.20106 0.78395 0.50704 0.0
C101 C 0.19543 0.79187 0.47579 0.0
H102 H 0.17513 0.80537 0.41697 0.0
H103 H 0.11982 0.79739 0.39817 0.0
H104 H 0.15663 0.74801 0.59851 0.0
H105 H 0.20287 0.76825 0.56848 0.0
H106 H 0.22473 0.78543 0.51639 0.0
H107 H 0.21501 0.79991 0.46144 0.0
Mn108 Mn 0.27107 0.02163 0.50251 0.0
Mn109 Mn 0.3062 0.95402 0.51754 0.0
C110 C 0.24574 0.97258 0.49038 0.0
C111 C 0.23847 0.06404 0.51097 0.0
C112 C 0.32869 0.99915 0.46806 0.0
O113 O 0.30362 0.03503 0.53689 0.0
O114 O 0.32093 0.98668 0.54818 0.0
C115 C 0.27984 0.93728 0.57912 0.0
N116 N 0.28444 0.92995 0.54843 0.0
C117 C 0.26553 0.87634 0.55526 0.0
C118 C 0.2604 0.88328 0.58695 0.0
C119 C 0.26723 0.914 0.59884 0.0
C120 C 0.27683 0.90083 0.53652 0.0
H121 H 0.28618 0.96056 0.58849 0.0
C122 C 0.32011 0.0165 0.55298 0.0
O123 O 0.26229 0.06538 0.49233 0.0
O124 O 0.23462 0.03848 0.52703 0.0
N125 N 0.29337 0.92072 0.48896 0.0
C126 C 0.29877 0.91826 0.45769 0.0
C127 C 0.29214 0.88936 0.44189 0.0
C128 C 0.28096 0.86313 0.45858 0.0
C129 C 0.2758 0.8663 0.49078 0.0
C130 C 0.28171 0.89593 0.50504 0.0
H131 H 0.30835 0.93808 0.44495 0.0
O132 O 0.23919 0.99747 0.47496 0.0
O133 O 0.26779 0.97708 0.51106 0.0
O134 O 0.30577 0.01703 0.47065 0.0
O135 O 0.33172 0.97544 0.48518 0.0
C136 C 0.26595 0.84098 0.50942 0.0
C137 C 0.26073 0.84593 0.54165 0.0
H138 H 0.2514 0.86518 0.60237 0.0
H139 H 0.26346 0.91952 0.62329 0.0
H140 H 0.29627 0.88714 0.41705 0.0
H141 H 0.2765 0.84067 0.44648 0.0
H142 H 0.26297 0.81759 0.49909 0.0
H143 H 0.25293 0.82624 0.55572 0.0
Mn144 Mn 0.53703 0.02292 0.2514 0.0
Mn145 Mn 0.51538 0.95181 0.28015 0.0
C146 C 0.54383 0.97717 0.22159 0.0
C147 C 0.52794 0.06865 0.22413 0.0
C148 C 0.57254 0.9914 0.30314 0.0
O149 O 0.50659 0.03401 0.28665 0.0
O150 O 0.49017 0.98468 0.30015 0.0
C151 C 0.44928 0.9429 0.25819 0.0
N152 N 0.47921 0.9327 0.25943 0.0
C153 C 0.46318 0.88316 0.23447 0.0
C154 C 0.43214 0.89309 0.233 0.0
C155 C 0.42522 0.92321 0.24468 0.0
C156 C 0.48621 0.90396 0.24786 0.0
H157 H 0.44381 0.96578 0.26763 0.0
C158 C 0.48909 0.01475 0.30219 0.0
O159 O 0.54965 0.06793 0.24538 0.0
O160 O 0.51042 0.04303 0.21948 0.0
N161 N 0.53799 0.91801 0.2621 0.0
C162 C 0.56941 0.91291 0.26366 0.0
C163 C 0.58057 0.8844 0.25176 0.0
C164 C 0.55925 0.8613 0.23891 0.0
C165 C 0.52702 0.86721 0.23742 0.0
C166 C 0.51738 0.89622 0.2492 0.0
H167 H 0.58575 0.93035 0.27411 0.0
O168 O 0.5611 0.00262 0.21671 0.0
O169 O 0.52377 0.97903 0.24432 0.0
O170 O 0.57072 0.01289 0.28321 0.0
O171 O 0.55272 0.96802 0.30432 0.0
C172 C 0.50409 0.84549 0.22468 0.0
C173 C 0.47223 0.85352 0.22304 0.0
H174 H 0.4135 0.8779 0.22274 0.0
H175 H 0.40134 0.93108 0.24357 0.0
H176 H 0.60549 0.88007 0.25285 0.0
H177 H 0.56792 0.83922 0.23001 0.0
H178 H 0.51073 0.82261 0.21588 0.0
H179 H 0.45491 0.83682 0.21274 0.0
Mn180 Mn 0.01399 0.52073 0.2562 0.0
Mn181 Mn 0.93938 0.52315 0.2828 0.0
C182 C 0.97069 0.50306 0.22522 0.0
C183 C 0.05984 0.53415 0.22828 0.0
C184 C 0.98675 0.47873 0.30735 0.0
O185 O 0.01793 0.55596 0.29074 0.0
O186 O 0.96625 0.55613 0.30419 0.0
C187 C 0.92222 0.58524 0.25933 0.0
N188 N 0.91638 0.55354 0.2611 0.0
C189 C 0.86685 0.55658 0.23422 0.0
C190 C 0.87191 0.58939 0.23276 0.0
C191 C 0.89998 0.60371 0.24493 0.0
C192 C 0.89024 0.53936 0.24807 0.0
H193 H 0.94368 0.59628 0.26879 0.0
C194 C 0.99483 0.56715 0.30641 0.0
O195 O 0.05985 0.51629 0.25218 0.0
O196 O 0.03357 0.54777 0.22249 0.0
N197 N 0.91126 0.49235 0.26294 0.0
C198 C 0.9111 0.46032 0.26436 0.0
C199 C 0.88593 0.44212 0.25084 0.0
C200 C 0.86093 0.45707 0.23662 0.0
C201 C 0.86153 0.49009 0.23573 0.0
C202 C 0.88758 0.50693 0.24894 0.0
H203 H 0.92998 0.44877 0.27579 0.0
O204 O 0.99804 0.49093 0.22143 0.0
O205 O 0.9693 0.52305 0.2482 0.0
O206 O 0.00824 0.4875 0.28876 0.0
O207 O 0.95962 0.49038 0.30742 0.0
C208 C 0.83714 0.507 0.22263 0.0
C209 C 0.83956 0.54026 0.2224 0.0
H210 H 0.85463 0.60374 0.22199 0.0
H211 H 0.90429 0.62896 0.2435 0.0
H212 H 0.88562 0.41665 0.25169 0.0
H213 H 0.84139 0.44298 0.22652 0.0
H214 H 0.81644 0.49469 0.21265 0.0
H215 H 0.82064 0.55304 0.21233 0.0
Mn216 Mn 0.50983 0.0075 0.76237 0.0
Mn217 Mn 0.43791 0.00739 0.79578 0.0
C218 C 0.46403 0.99522 0.73331 0.0
C219 C 0.55371 0.0248 0.73349 0.0
C220 C 0.48488 0.95794 0.80828 0.0
O221 O 0.51776 0.03766 0.8005 0.0
O222 O 0.46844 0.03398 0.82057 0.0
C223 C 0.42323 0.07438 0.78836 0.0
N224 N 0.41565 0.04315 0.78327 0.0
C225 C 0.36565 0.05472 0.76066 0.0
C226 C 0.37291 0.08701 0.7656 0.0
C227 C 0.40193 0.09688 0.77931 0.0
C228 C 0.38805 0.03344 0.7696 0.0
H229 H 0.44528 0.08205 0.79936 0.0
C230 C 0.49715 0.04472 0.82122 0.0
O231 O 0.55518 0.00317 0.75399 0.0
O232 O 0.52709 0.03882 0.7314 0.0
N233 N 0.40631 0.98278 0.77309 0.0
C234 C 0.4041 0.951 0.76774 0.0
C235 C 0.37709 0.93737 0.75285 0.0
C236 C 0.35246 0.95649 0.74422 0.0
C237 C 0.35533 0.98914 0.75005 0.0
C238 C 0.38309 1.00145 0.76426 0.0
H239 H 0.42277 0.93622 0.77488 0.0
O240 O 0.49045 0.98276 0.72569 0.0
O241 O 0.4648 0.01211 0.75882 0.0
O242 O 0.50571 0.97013 0.79073 0.0
O243 O 0.45768 0.96916 0.81129 0.0
C244 C 0.33174 0.00998 0.7424 0.0
C245 C 0.33704 0.04279 0.74733 0.0
H246 H 0.35642 0.10442 0.7589 0.0
H247 H 0.40773 0.12176 0.78319 0.0
H248 H 0.37509 0.91216 0.74838 0.0
H249 H 0.33152 0.94587 0.73304 0.0
H250 H 0.30966 1.00107 0.73211 0.0
H251 H 0.31903 0.05862 0.74059 0.0
Mn252 Mn 0.02944 0.51156 0.74643 0.0
Mn253 Mn 1.00145 0.44641 0.78221 0.0
C254 C 0.03574 0.46162 0.72394 0.0
C255 C 0.02433 0.55367 0.71296 0.0
C256 C 0.05827 0.48646 0.80536 0.0
O257 O 0.99728 0.5286 0.77756 0.0
O258 O 0.97572 0.48225 0.79439 0.0
C259 C 0.9385 0.43679 0.75267 0.0
N260 N 0.96746 0.42595 0.7592 0.0
C261 C 0.95281 0.37458 0.73756 0.0
C262 C 0.9228 0.38514 0.73058 0.0
C263 C 0.91573 0.41648 0.7379 0.0
C264 C 0.97481 0.39614 0.75144 0.0
H265 H 0.9328 0.46066 0.7589 0.0
C266 C 0.97669 0.51236 0.79288 0.0
O267 O 0.04481 0.55464 0.73549 0.0
O268 O 0.00596 0.52839 0.71028 0.0
N269 N 0.02458 0.41003 0.77167 0.0
C270 C 0.05495 0.40392 0.77895 0.0
C271 C 0.06625 0.37398 0.77194 0.0
C272 C 0.04601 0.35045 0.7582 0.0
C273 C 0.01473 0.35721 0.75129 0.0
C274 C 0.00503 0.38768 0.75812 0.0
H275 H 0.07041 0.4217 0.79012 0.0
O276 O 0.05439 0.48531 0.71641 0.0
O277 O 0.01455 0.46805 0.74444 0.0
O278 O 0.06 0.50419 0.78192 0.0
O279 O 0.03656 0.46496 0.80834 0.0
C280 C 0.99267 0.33478 0.73834 0.0
C281 C 0.96167 0.34342 0.73164 0.0
H282 H 0.90503 0.36939 0.71963 0.0
H283 H 0.89262 0.42482 0.7326 0.0
H284 H 0.09039 0.36893 0.77745 0.0
H285 H 0.05469 0.32727 0.75314 0.0
H286 H 0.99932 0.31086 0.73328 0.0
H287 H 0.94497 0.32601 0.72148 0.0
Mn288 Mn 0.27476 0.51399 0.01315 0.0
Mn289 Mn 0.24201 0.58391 0.02607 0.0
C290 C 0.30121 0.56108 0.99822 0.0
C291 C 0.30661 0.47159 0.02384 0.0
C292 C 0.21723 0.53498 0.97844 0.0
O293 O 0.24161 0.50477 0.04786 0.0
O294 O 0.22863 0.55504 0.05916 0.0
C295 C 0.27301 0.60628 0.08502 0.0
N296 N 0.26592 0.61079 0.05452 0.0
C297 C 0.28603 0.66461 0.05774 0.0
C298 C 0.29319 0.66074 0.08935 0.0
C299 C 0.28711 0.63128 0.10292 0.0
C300 C 0.27299 0.63855 0.04089 0.0
H301 H 0.26772 0.58388 0.09556 0.0
C302 C 0.22763 0.52552 0.06462 0.0
O303 O 0.28262 0.46887 0.00518 0.0
O304 O 0.31084 0.49858 0.03873 0.0
N305 N 0.25341 0.61406 0.99529 0.0
C306 C 0.24569 0.61365 0.96438 0.0
C307 C 0.25145 0.64089 0.94698 0.0
C308 C 0.26419 0.66849 0.96173 0.0
C309 C 0.27154 0.6684 0.99364 0.0
C310 C 0.26615 0.64034 0.00956 0.0
H311 H 0.23495 0.59284 0.9531 0.0
O312 O 0.30715 0.53433 0.98462 0.0
O313 O 0.27956 0.55931 0.01933 0.0
O314 O 0.24028 0.51723 0.98071 0.0
O315 O 0.21445 0.55937 0.99592 0.0
C316 C 0.2834 0.69525 0.01038 0.0
C317 C 0.29092 0.69336 0.04236 0.0
H318 H 0.30355 0.68015 0.10334 0.0
H319 H 0.29277 0.62802 0.12722 0.0
H320 H 0.24555 0.64077 0.92239 0.0
H321 H 0.26815 0.68964 0.94838 0.0
H322 H 0.28643 0.71745 0.99876 0.0
H323 H 0.30022 0.71417 0.05497 0.0
Mn324 Mn 0.51898 0.28035 0.01866 0.0
Mn325 Mn 0.59057 0.25035 0.00674 0.0
C326 C 0.56501 0.31224 0.02464 0.0
C327 C 0.47337 0.30787 0.0084 0.0
C328 C 0.55179 0.23638 0.0635 0.0
O329 O 0.5076 0.24157 0.99019 0.0
O330 O 0.55665 0.22299 0.98779 0.0
C331 C 0.59442 0.25441 0.93798 0.0
N332 N 0.60682 0.26134 0.96681 0.0
C333 C 0.65552 0.28134 0.94471 0.0
C334 C 0.64329 0.27447 0.91476 0.0
C335 C 0.61251 0.26115 0.91139 0.0
C336 C 0.63623 0.2745 0.9703 0.0
H337 H 0.57104 0.24354 0.93529 0.0
C338 C 0.52712 0.22082 0.98155 0.0
O339 O 0.47447 0.28715 0.02993 0.0
O340 O 0.49806 0.31076 0.99056 0.0
N341 N 0.62581 0.27461 0.02357 0.0
C342 C 0.63332 0.28124 0.054 0.0
C343 C 0.66289 0.2957 0.06143 0.0
C344 C 0.68448 0.30272 0.03753 0.0
C345 C 0.67599 0.29595 0.00637 0.0
C346 C 0.64623 0.28165 1.00039 0.0
H347 H 0.61698 0.2752 0.07242 0.0
O348 O 0.53996 0.31786 0.04082 0.0
O349 O 0.56327 0.28692 0.00692 0.0
O350 O 0.52824 0.25129 0.0546 0.0
O351 O 0.57749 0.23628 0.04835 0.0
C352 C 0.69592 0.30267 0.981 0.0
C353 C 0.68582 0.2953 0.9502 0.0
H354 H 0.65724 0.27953 0.89421 0.0
H355 H 0.6029 0.25576 0.88836 0.0
H356 H 0.66921 0.30104 0.08552 0.0
H357 H 0.70744 0.31343 0.04338 0.0
H358 H 0.7189 0.31378 0.98494 0.0
H359 H 0.70133 0.30098 0.93092 0.0
Mn360 Mn 0.77042 0.52285 0.00349 0.0
Mn361 Mn 0.80576 0.45357 0.0066 0.0
C362 C 0.74195 0.47615 0.99082 0.0
C363 C 0.73894 0.56448 0.01821 0.0
C364 C 0.81782 0.49891 0.95539 0.0
O365 O 0.80613 0.53377 0.03456 0.0
O366 O 0.83035 0.4877 0.02933 0.0
C367 C 0.80128 0.44283 0.07457 0.0
N368 N 0.79635 0.43251 0.04454 0.0
C369 C 0.78435 0.37951 0.06086 0.0
C370 C 0.78919 0.38956 0.09199 0.0
C371 C 0.79741 0.42142 0.09888 0.0
C372 C 0.78778 0.40207 0.03773 0.0
H373 H 0.80849 0.46707 0.0799 0.0
C374 C 0.82893 0.51595 0.0402 0.0
O375 O 0.76104 0.56748 0.99768 0.0
O376 O 0.73678 0.53782 0.03261 0.0
N377 N 0.78514 0.41786 0.98623 0.0
C378 C 0.77943 0.41268 0.95522 0.0
C379 C 0.77019 0.38218 0.94434 0.0
C380 C 0.76768 0.3573 0.96536 0.0
C381 C 0.77332 0.36333 0.99728 0.0
C382 C 0.7819 0.39429 0.00677 0.0
H383 H 0.78261 0.43154 0.93889 0.0
O384 O 0.73626 0.50237 0.97729 0.0
O385 O 0.76637 0.47712 0.00951 0.0
O386 O 0.80214 0.52046 0.96797 0.0
O387 O 0.81855 0.47151 0.96649 0.0
C388 C 0.77136 0.33985 0.02001 0.0
C389 C 0.77649 0.348 0.05181 0.0
H390 H 0.78667 0.37302 0.11077 0.0
H391 H 0.80132 0.42934 0.12283 0.0
H392 H 0.76584 0.37768 0.91972 0.0
H393 H 0.76163 0.33367 0.9566 0.0
H394 H 0.76575 0.31547 0.01342 0.0
H395 H 0.77422 0.32986 0.0691 0.0
Mn396 Mn 0.52435 0.75418 0.01777 0.0
Mn397 Mn 0.45877 0.79057 0.99843 0.0
C398 C 0.47464 0.73065 0.02827 0.0
C399 C 0.56644 0.72106 0.0102 0.0
C400 C 0.50412 0.81417 0.04921 0.0
O401 O 0.53909 0.78613 0.98432 0.0
O402 O 0.49119 0.80034 0.96722 0.0
C403 C 0.43935 0.75877 0.93879 0.0
N404 N 0.43291 0.76698 0.96891 0.0
C405 C 0.37854 0.74945 0.96293 0.0
C406 C 0.38452 0.74067 0.93183 0.0
C407 C 0.41516 0.745 0.91982 0.0
C408 C 0.40385 0.76184 0.98102 0.0
H409 H 0.46264 0.76307 0.92926 0.0
C410 C 0.52121 0.79985 0.96505 0.0
O411 O 0.56778 0.74481 0.02964 0.0
O412 O 0.54095 0.71735 0.99321 0.0
N413 N 0.42557 0.78233 0.02749 0.0
C414 C 0.42401 0.79111 0.05823 0.0
C415 C 0.39523 0.78744 0.07407 0.0
C416 C 0.3682 0.77565 0.05793 0.0
C417 C 0.37042 0.76699 0.02627 0.0
C418 C 0.39991 0.7702 0.01198 0.0
H419 H 0.4444 0.80119 0.07051 0.0
O420 O 0.49932 0.7233 0.0441 0.0
O421 O 0.48002 0.75173 0.00747 0.0
O422 O 0.51912 0.78914 0.04992 0.0
O423 O 0.48263 0.81836 0.02914 0.0
C424 C 0.34435 0.75604 0.00815 0.0
C425 C 0.34836 0.74719 0.9765 0.0
H426 H 0.36575 0.7307 0.91695 0.0
H427 H 0.41996 0.73836 0.89583 0.0
H428 H 0.39373 0.79427 0.09849 0.0
H429 H 0.34587 0.77339 0.07004 0.0
H430 H 0.32111 0.75491 0.01837 0.0
H431 H 0.32811 0.73868 0.96279 0.0
C432 C 0.02478 0.37042 0.45118 0.0
C433 C 0.02928 0.33912 0.4418 0.0
C434 C 0.02101 0.39387 0.42914 0.0
C435 C 0.02091 0.38556 0.39695 0.0
C436 C 0.02754 0.35435 0.38737 0.0
C437 C 0.03194 0.33149 0.41001 0.0
C438 C 0.01487 0.42701 0.44039 0.0
C439 C 0.02738 0.34444 0.35332 0.0
C440 C 0.97153 0.43562 0.34456 0.0
C441 C 0.99483 0.45474 0.33036 0.0
C442 C 0.97975 0.41257 0.36585 0.0
C443 C 0.01196 0.40905 0.37356 0.0
C444 C 0.03548 0.4285 0.35951 0.0
C445 C 0.02668 0.45087 0.33798 0.0
C446 C 0.95398 0.39194 0.3801 0.0
C447 C 0.06997 0.42595 0.3675 0.0
H448 H 0.0221 0.37611 0.47581 0.0
H449 H 0.0345 0.30708 0.40279 0.0
H450 H 0.02984 0.44442 0.42759 0.0
H451 H 0.9899 0.43212 0.43572 0.0
H452 H 0.01948 0.43044 0.4658 0.0
H453 H 0.03613 0.32036 0.3496 0.0
H454 H 1.00295 0.34473 0.34404 0.0
H455 H 0.04214 0.36123 0.33958 0.0
H456 H 0.94695 0.43835 0.33868 0.0
H457 H 0.04491 0.46575 0.32739 0.0
H458 H 0.95381 0.39584 0.40578 0.0
H459 H 0.95857 0.36671 0.37556 0.0
H460 H 0.93027 0.39673 0.37075 0.0
H461 H 0.07374 0.43067 0.39284 0.0
H462 H 0.0854 0.44273 0.35435 0.0
H463 H 0.0774 0.40165 0.36235 0.0
C464 C 0.70982 0.00527 0.43418 0.0
C465 C 0.70393 0.03105 0.45414 0.0
C466 C 0.68996 0.99736 0.40861 0.0
C467 C 0.66324 0.01532 0.40315 0.0
C468 C 0.65708 0.04125 0.42328 0.0
C469 C 0.67763 0.04896 0.44834 0.0
C470 C 0.69762 0.96989 0.38737 0.0
C471 C 0.62859 0.06071 0.41853 0.0
C472 C 0.62379 0.01577 0.32339 0.0
C473 C 0.59752 0.995 0.32747 0.0
C474 C 0.64598 0.02173 0.34745 0.0
C475 C 0.64155 0.007 0.37649 0.0
C476 C 0.61555 0.9854 0.38049 0.0
C477 C 0.59401 0.97947 0.35587 0.0
C478 C 0.67372 0.04447 0.34206 0.0
C479 C 0.60978 0.96949 0.41121 0.0
H480 H 0.73021 0.99143 0.43832 0.0
H481 H 0.67278 0.06881 0.4637 0.0
H482 H 0.67794 0.95178 0.38741 0.0
H483 H 0.7003 0.9779 0.36304 0.0
H484 H 0.71963 0.9587 0.39444 0.0
H485 H 0.62687 0.07981 0.43654 0.0
H486 H 0.62959 0.0715 0.39522 0.0
H487 H 0.60675 0.04535 0.41919 0.0
H488 H 0.62682 0.02773 0.30148 0.0
H489 H 0.5737 0.96355 0.35934 0.0
H490 H 0.69607 0.03344 0.34816 0.0
H491 H 0.67182 0.06569 0.35744 0.0
H492 H 0.67509 0.0521 0.31748 0.0
H493 H 0.63093 0.95695 0.41831 0.0
H494 H 0.58924 0.95232 0.41014 0.0
H495 H 0.60543 0.98753 0.42967 0.0
C496 C 0.02772 0.60191 0.34428 0.0
C497 C 0.99945 0.595 0.32803 0.0
C498 C 0.02972 0.62637 0.36728 0.0
C499 C 1.00301 0.64452 0.37369 0.0
C500 C 0.97495 0.63835 0.35646 0.0
C501 C 0.97348 0.61371 0.33418 0.0
C502 C 0.06008 0.63227 0.38532 0.0
C503 C 0.94611 0.65737 0.36199 0.0
C504 C 0.99662 0.68649 0.45299 0.0
C505 C 0.008 0.71702 0.44626 0.0
C506 C 0.99451 0.6627 0.42951 0.0
C507 C 0.00395 0.66975 0.39863 0.0
C508 C 0.01362 0.70108 0.39145 0.0
C509 C 0.01574 0.72424 0.4154 0.0
C510 C 0.98389 0.62964 0.43811 0.0
C511 C 0.02329 0.70981 0.3588 0.0
H512 H 0.04779 0.58753 0.33988 0.0
H513 H 0.95143 0.60883 0.32185 0.0
H514 H 0.06859 0.65721 0.38317 0.0
H515 H 0.05582 0.62821 0.41046 0.0
H516 H 0.0789 0.61673 0.37712 0.0
H517 H 0.92658 0.65056 0.3455 0.0
H518 H 0.93749 0.65402 0.38613 0.0
H519 H 0.9522 0.68288 0.35955 0.0
H520 H 0.99176 0.68062 0.47703 0.0
H521 H 0.02544 0.74765 0.4104 0.0
H522 H 0.00347 0.61354 0.43424 0.0
H523 H 0.96397 0.62097 0.42294 0.0
H524 H 0.97636 0.62825 0.46286 0.0
H525 H 0.04474 0.69731 0.35208 0.0
H526 H 0.02834 0.73558 0.3567 0.0
H527 H 0.00442 0.70228 0.34188 0.0
C528 C 0.35546 0.03678 0.43151 0.0
C529 C 0.35292 0.00656 0.4442 0.0
C530 C 0.37805 0.04422 0.40869 0.0
C531 C 0.39829 0.02076 0.39796 0.0
C532 C 0.39609 0.99031 0.41088 0.0
C533 C 0.37358 0.98365 0.434 0.0
C534 C 0.38 0.07703 0.39578 0.0
C535 C 0.41705 0.96451 0.39978 0.0
C536 C 0.4337 0.0201 0.31722 0.0
C537 C 0.46563 0.02659 0.324 0.0
C538 C 0.41104 0.02027 0.3409 0.0
C539 C 0.4207 0.02721 0.37205 0.0
C540 C 0.45259 0.0366 0.3785 0.0
C541 C 0.47484 0.03596 0.3543 0.0
C542 C 0.37733 0.01013 0.33295 0.0
C543 C 0.46371 0.04465 0.41132 0.0
H544 H 0.33982 0.05477 0.43951 0.0
H545 H 0.37176 0.96026 0.44364 0.0
H546 H 0.40449 0.0872 0.39787 0.0
H547 H 0.37385 0.076 0.3706 0.0
H548 H 0.36388 0.09312 0.40797 0.0
H549 H 0.41277 0.94231 0.41262 0.0
H550 H 0.41293 0.95943 0.37454 0.0
H551 H 0.44221 0.97231 0.40269 0.0
H552 H 0.42678 0.01263 0.29374 0.0
H553 H 0.4997 0.04035 0.35953 0.0
H554 H 0.36072 0.02648 0.34393 0.0
H555 H 0.37191 0.98634 0.34227 0.0
H556 H 0.373 0.00914 0.30736 0.0
H557 H 0.4471 0.0603 0.42335 0.0
H558 H 0.48765 0.05639 0.41169 0.0
H559 H 0.46448 0.02272 0.4248 0.0
C560 C 0.00496 0.57673 0.66337 0.0
C561 C 0.02363 0.5796 0.69043 0.0
C562 C 0.00636 0.60024 0.64076 0.0
C563 C 0.02688 0.62724 0.6454 0.0
C564 C 0.0451 0.63062 0.67309 0.0
C565 C 0.04327 0.60679 0.69521 0.0
C566 C 0.98651 0.59584 0.61157 0.0
C567 C 0.06716 0.65907 0.67904 0.0
C568 C 0.05799 0.67299 0.5759 0.0
C569 C 0.03952 0.69963 0.57682 0.0
C570 C 0.05365 0.64898 0.59767 0.0
C571 C 0.03025 0.65156 0.62097 0.0
C572 C 0.01121 0.67811 0.62178 0.0
C573 C 0.01609 0.70181 0.59976 0.0
C574 C 0.07452 0.62109 0.59606 0.0
C575 C 0.98601 0.68172 0.64624 0.0
H576 H 0.98977 0.55577 0.65948 0.0
H577 H 0.05772 0.60929 0.71609 0.0
H578 H 0.972 0.61663 0.60837 0.0
H579 H 1.00206 0.594 0.59091 0.0
H580 H 0.97062 0.57434 0.61217 0.0
H581 H 0.07881 0.6587 0.70226 0.0
H582 H 0.0857 0.66004 0.66084 0.0
H583 H 0.05406 0.68103 0.67758 0.0
H584 H 0.07613 0.67096 0.55832 0.0
H585 H 1.00154 0.72215 0.60066 0.0
H586 H 0.05986 0.5988 0.59441 0.0
H587 H 0.08881 0.62037 0.61773 0.0
H588 H 0.09076 0.62197 0.57579 0.0
H589 H 0.96953 0.66067 0.64576 0.0
H590 H 0.97223 0.70303 0.64284 0.0
H591 H 0.997 0.68338 0.66977 0.0
C592 C 0.42978 0.97687 0.68777 0.0
C593 C 0.43987 1.00062 0.70917 0.0
C594 C 0.40863 0.98324 0.6635 0.0
C595 C 0.39791 0.01424 0.66025 0.0
C596 C 0.40783 0.03813 0.68212 0.0
C597 C 0.42882 0.03109 0.70607 0.0
C598 C 0.39784 0.95686 0.64122 0.0
C599 C 0.39676 0.0713 0.67991 0.0
C600 C 0.37086 0.03286 0.57816 0.0
C601 C 0.3381 0.02806 0.58053 0.0
C602 C 0.39052 0.03029 0.60441 0.0
C603 C 0.37708 0.02176 0.63343 0.0
C604 C 0.34381 0.01865 0.63608 0.0
C605 C 0.32476 0.02238 0.60973 0.0
C606 C 0.42579 0.03441 0.60053 0.0
C607 C 0.32812 0.00999 0.66629 0.0
H608 H 0.43845 0.95339 0.68998 0.0
H609 H 0.43731 0.04982 0.72199 0.0
H610 H 0.37168 0.9544 0.64106 0.0
H611 H 0.40542 0.9625 0.61717 0.0
H612 H 0.40741 0.9339 0.64748 0.0
H613 H 0.40729 0.08736 0.69836 0.0
H614 H 0.4029 0.08093 0.65676 0.0
H615 H 0.37071 0.0711 0.68208 0.0
H616 H 0.38126 0.03623 0.55533 0.0
H617 H 0.29944 0.01789 0.61135 0.0
H618 H 0.43666 0.01128 0.60281 0.0
H619 H 0.436 0.05044 0.61913 0.0
H620 H 0.4323 0.04408 0.57746 0.0
H621 H 0.30333 1.00102 0.66277 0.0
H622 H 0.32786 0.03144 0.68148 0.0
H623 H 0.34118 0.9918 0.67843 0.0
C624 C 0.02846 0.35101 0.5732 0.0
C625 C 0.00669 0.32531 0.57434 0.0
C626 C 0.03293 0.37178 0.59899 0.0
C627 C 0.01615 0.36588 0.62695 0.0
C628 C 0.99462 0.3394 0.62818 0.0
C629 C 0.98978 0.31969 0.60167 0.0
C630 C 0.05481 0.40059 0.59594 0.0
C631 C 0.97727 0.33128 0.65762 0.0
C632 C 0.05126 0.41119 0.69767 0.0
C633 C 0.03005 0.43526 0.7014 0.0
C634 C 0.04581 0.38706 0.67491 0.0
C635 C 0.01991 0.38853 0.65404 0.0
C636 C 0.99863 0.4131 0.65777 0.0
C637 C 0.00357 0.43568 0.6819 0.0
C638 C 0.06773 0.36008 0.67313 0.0
C639 C 0.97134 0.41634 0.63553 0.0
H640 H 0.04126 0.35536 0.55177 0.0
H641 H 0.97319 0.29953 0.60244 0.0
H642 H 0.0418 0.4222 0.60112 0.0
H643 H 0.07435 0.40002 0.61312 0.0
H644 H 0.06511 0.40236 0.57222 0.0
H645 H 0.9944 0.32238 0.67446 0.0
H646 H 0.9668 0.35245 0.66816 0.0
H647 H 0.95822 0.31278 0.65362 0.0
H648 H 0.07182 0.41108 0.71271 0.0
H649 H 0.98738 0.45461 0.68472 0.0
H650 H 0.08085 0.36054 0.65081 0.0
H651 H 0.05385 0.3373 0.67364 0.0
H652 H 0.08502 0.36097 0.69269 0.0
H653 H 0.98025 0.41816 0.61129 0.0
H654 H 0.9576 0.43741 0.64112 0.0
H655 H 0.95517 0.39512 0.63622 0.0
C656 C 0.60957 0.01775 0.71807 0.0
C657 C 0.57978 0.02876 0.71073 0.0
C658 C 0.63344 0.01606 0.69555 0.0
C659 C 0.6274 0.02531 0.66469 0.0
C660 C 0.59746 0.03682 0.65718 0.0
C661 C 0.57406 0.0386 0.68034 0.0
C662 C 0.66518 0.00445 0.70485 0.0
C663 C 0.59008 0.04694 0.62455 0.0
C664 C 0.69599 0.05488 0.6155 0.0
C665 C 0.70149 0.029 0.59544 0.0
C666 C 0.67262 0.05357 0.63839 0.0
C667 C 0.65336 0.02582 0.64118 0.0
C668 C 0.65901 0.99917 0.62157 0.0
C669 C 0.6833 1.00095 0.59904 0.0
C670 C 0.66812 0.08234 0.65912 0.0
C671 C 0.63873 0.96922 0.62373 0.0
H672 H 0.61412 0.00992 0.74148 0.0
H673 H 0.55092 0.04652 0.67435 0.0
H674 H 0.67117 0.98396 0.6898 0.0
H675 H 0.68377 0.02325 0.70136 0.0
H676 H 0.66583 0.99735 0.7296 0.0
H677 H 0.56524 0.05375 0.62203 0.0
H678 H 0.6059 0.06732 0.61833 0.0
H679 H 0.59446 0.0275 0.60755 0.0
H680 H 0.7096 0.07679 0.61294 0.0
H681 H 0.68706 0.98102 0.58342 0.0
H682 H 0.66921 0.07596 0.68403 0.0
H683 H 0.64449 0.09162 0.6549 0.0
H684 H 0.68622 0.10151 0.65501 0.0
H685 H 0.63895 0.96058 0.64794 0.0
H686 H 0.64672 0.95028 0.60768 0.0
H687 H 0.61393 0.97407 0.61794 0.0
C688 C 0.42292 0.32711 0.03024 0.0
C689 C 0.44711 0.33007 0.00803 0.0
C690 C 0.40012 0.34993 0.03371 0.0
C691 C 0.4011 0.37643 0.01428 0.0
C692 C 0.42489 0.37918 0.99116 0.0
C693 C 0.4477 0.35606 0.9884 0.0
C694 C 0.3753 0.34596 0.05867 0.0
C695 C 0.42649 0.40679 0.96962 0.0
C696 C 0.32483 0.41935 0.00476 0.0
C697 C 0.32991 0.44631 0.02415 0.0
C698 C 0.3478 0.39673 1.00121 0.0
C699 C 0.37667 0.40072 0.01774 0.0
C700 C 0.38174 0.42744 0.03801 0.0
C701 C 0.35838 0.45001 0.04085 0.0
C702 C 0.34134 0.36877 0.97928 0.0
C703 C 0.412 0.43235 0.05642 0.0
H704 H 0.42221 0.30724 0.04567 0.0
H705 H 0.46637 0.35873 0.97135 0.0
H706 H 0.37677 0.36651 0.07519 0.0
H707 H 0.35142 0.34517 0.04799 0.0
H708 H 0.37788 0.32413 0.07204 0.0
H709 H 0.44594 0.4052 0.95244 0.0
H710 H 0.40387 0.40806 0.95676 0.0
H711 H 0.43003 0.4291 0.98345 0.0
H712 H 0.30303 0.4162 0.99158 0.0
H713 H 0.36267 0.47081 0.05569 0.0
H714 H 0.34253 0.34651 0.99217 0.0
H715 H 0.35966 0.36833 0.96089 0.0
H716 H 0.31782 0.36924 0.96787 0.0
H717 H 0.41553 0.41172 0.07124 0.0
H718 H 0.41215 0.45395 0.07159 0.0
H719 H 0.43234 0.43423 0.04027 0.0
C720 C 0.32891 0.6111 0.98044 0.0
C721 C 0.32656 0.58603 1.00095 0.0
C722 C 0.35192 0.63577 0.98507 0.0
C723 C 0.37443 0.6342 0.00953 0.0
C724 C 0.37305 0.6078 0.02918 0.0
C725 C 0.34868 0.58453 0.02512 0.0
C726 C 0.35065 0.66444 0.96517 0.0
C727 C 0.39704 0.60421 0.05477 0.0
C728 C 0.45017 0.68461 0.99945 0.0
C729 C 0.44832 0.70702 0.0238 0.0
C730 C 0.42668 0.66051 0.99505 0.0
C731 C 0.39964 0.65978 0.01443 0.0
C732 C 0.39781 0.68259 0.03919 0.0
C733 C 0.42254 0.70547 0.04396 0.0
C734 C 0.43157 0.63504 0.97053 0.0
C735 C 0.37033 0.68321 0.06133 0.0
H736 H 0.31215 0.61195 0.96144 0.0
H737 H 0.34705 0.56484 0.04079 0.0
H738 H 0.37422 0.67169 0.95613 0.0
H739 H 0.33402 0.66079 0.94521 0.0
H740 H 0.34264 0.68411 0.98007 0.0
H741 H 0.39619 0.57994 0.06397 0.0
H742 H 0.42125 0.60989 0.04619 0.0
H743 H 0.39228 0.62088 0.07434 0.0
H744 H 0.47063 0.68541 0.98434 0.0
H745 H 0.42151 0.72229 0.0633 0.0
H746 H 0.41398 0.63644 0.95151 0.0
H747 H 0.42819 0.61142 0.98091 0.0
H748 H 0.45551 0.63696 0.96011 0.0
H749 H 0.35917 0.70626 0.05997 0.0
H750 H 0.37897 0.68124 0.08565 0.0
H751 H 0.3522 0.66419 0.05659 0.0
C752 C 0.59548 0.36155 0.04265 0.0
C753 C 0.58951 0.33779 0.01987 0.0
C754 C 0.61742 0.38675 0.03739 0.0
C755 C 0.63522 0.38723 0.00934 0.0
C756 C 0.62812 0.36398 0.98576 0.0
C757 C 0.60456 0.34042 0.99095 0.0
C758 C 0.62163 0.41237 0.06225 0.0
C759 C 0.64545 0.3637 0.95505 0.0
C760 C 0.68755 0.45435 0.97678 0.0
C761 C 0.7155 0.45213 0.99407 0.0
C762 C 0.66055 0.43504 0.98294 0.0
C763 C 0.6622 0.41077 0.0051 0.0
C764 C 0.69036 0.40873 0.02277 0.0
C765 C 0.71574 0.43036 0.018 0.0
C766 C 0.63025 0.44244 0.96663 0.0
C767 C 0.69448 0.3845 0.04746 0.0
H768 H 0.58278 0.36066 0.06454 0.0
H769 H 0.59787 0.32395 0.97218 0.0
H770 H 0.63056 0.43506 0.05254 0.0
H771 H 0.59897 0.41629 0.07436 0.0
H772 H 0.63863 0.40495 0.08006 0.0
H773 H 0.63893 0.34253 0.9404 0.0
H774 H 0.63951 0.38438 0.94137 0.0
H775 H 0.67134 0.36493 0.9591 0.0
H776 H 0.68609 0.47237 0.95939 0.0
H777 H 0.73537 0.43078 0.03394 0.0
H778 H 0.60967 0.42714 0.9734 0.0
H779 H 0.6335 0.44056 0.94097 0.0
H780 H 0.62474 0.46731 0.97205 0.0
H781 H 0.69699 0.39659 0.07065 0.0
H782 H 0.71664 0.37237 0.04313 0.0
H783 H 0.67503 0.36637 0.04845 0.0
C784 C 0.71735 0.61524 0.00195 0.0
C785 C 0.71464 0.58854 0.02066 0.0
C786 C 0.69281 0.63613 0.99975 0.0
C787 C 0.66485 0.63061 0.01703 0.0
C788 C 0.66226 0.60428 0.03677 0.0
C789 C 0.68714 0.58343 0.03823 0.0
C790 C 0.69663 0.66388 0.97843 0.0
C791 C 0.63304 0.59794 0.056 0.0
C792 C 0.61637 0.70229 0.03247 0.0
C793 C 0.59188 0.69811 0.01039 0.0
C794 C 0.63972 0.68019 0.03526 0.0
C795 C 0.639 0.65324 0.01521 0.0
C796 C 0.61456 0.6489 0.99262 0.0
C797 C 0.59113 0.67133 0.99058 0.0
C798 C 0.66519 0.68574 0.05976 0.0
C799 C 0.61328 0.62065 0.97053 0.0
H800 H 0.73842 0.61942 0.98815 0.0
H801 H 0.68473 0.56276 0.05254 0.0
H802 H 0.67741 0.66286 0.96077 0.0
H803 H 0.69478 0.68626 0.99206 0.0
H804 H 0.71963 0.66451 0.9661 0.0
H805 H 0.63487 0.57681 0.07059 0.0
H806 H 0.62878 0.61862 0.07149 0.0
H807 H 0.61217 0.59436 0.04045 0.0
H808 H 0.61715 0.72278 0.04809 0.0
H809 H 0.57223 0.66782 0.97361 0.0
H810 H 0.6886 0.68823 0.04843 0.0
H811 H 0.66577 0.66518 0.07522 0.0
H812 H 0.66165 0.70724 0.07439 0.0
H813 H 0.63509 0.62055 0.95631 0.0
H814 H 0.59258 0.62045 0.95457 0.0
H815 H 0.61222 0.5986 0.98392 0.0
C816 C 0.5253 0.80733 0.90872 0.0
C817 C 0.5341 0.8179 0.93887 0.0
C818 C 0.52132 0.82871 0.8847 0.0
C819 C 0.52635 0.86144 0.89107 0.0
C820 C 0.53872 0.87184 0.92051 0.0
C821 C 0.54238 0.84987 0.94415 0.0
C822 C 0.50838 0.81646 0.85366 0.0
C823 C 0.54491 0.90646 0.92815 0.0
C824 C 0.5248 0.91985 0.82519 0.0
C825 C 0.49415 0.93112 0.82765 0.0
C826 C 0.53549 0.89697 0.84532 0.0
C827 C 0.51509 0.88478 0.86851 0.0
C828 C 0.48383 0.89523 0.87056 0.0
C829 C 0.47375 0.91828 0.85016 0.0
C830 C 0.56889 0.88643 0.84228 0.0
C831 C 0.46118 0.88251 0.89479 0.0
H832 H 0.51815 0.78269 0.90485 0.0
H833 H 0.54834 0.85818 0.96766 0.0
H834 H 0.48297 0.82141 0.85211 0.0
H835 H 0.52054 0.8285 0.8341 0.0
H836 H 0.51079 0.79061 0.85066 0.0
H837 H 0.55879 0.91031 0.95004 0.0
H838 H 0.55776 0.91825 0.90886 0.0
H839 H 0.52208 0.91796 0.93103 0.0
H840 H 0.5409 0.92943 0.8079 0.0
H841 H 0.4501 0.92672 0.85233 0.0
H842 H 0.56895 0.86037 0.83959 0.0
H843 H 0.58238 0.89309 0.86384 0.0
H844 H 0.58134 0.89708 0.82208 0.0
H845 H 0.45866 0.85642 0.89248 0.0
H846 H 0.43744 0.89231 0.89275 0.0
H847 H 0.47064 0.88831 0.9185 0.0
C848 C 0.16602 0.54473 0.95127 0.0
C849 C 0.19309 0.52712 0.95389 0.0
C850 C 0.14344 0.53761 0.92775 0.0
C851 C 0.14812 0.51242 0.90621 0.0
C852 C 0.17525 0.49446 0.90884 0.0
C853 C 0.19731 0.50195 0.93263 0.0
C854 C 0.11471 0.55721 0.92577 0.0
C855 C 0.18122 0.46755 0.88622 0.0
C856 C 0.0783 0.4768 0.85941 0.0
C857 C 0.0819 0.49202 0.83084 0.0
C858 C 0.09956 0.4833 0.8842 0.0
C859 C 0.12517 0.50539 0.8803 0.0
C860 C 0.12919 0.52052 0.85144 0.0
C861 C 0.10752 0.51372 0.82713 0.0
C862 C 0.09448 0.46673 0.91466 0.0
C863 C 0.15636 0.54401 0.84624 0.0
H864 H 0.16245 0.56416 0.96755 0.0
H865 H 0.2181 0.48815 0.9343 0.0
H866 H 0.11446 0.5693 0.90312 0.0
H867 H 0.09294 0.54178 0.92675 0.0
H868 H 0.114 0.57529 0.9449 0.0
H869 H 0.20315 0.45546 0.89184 0.0
H870 H 0.1611 0.44995 0.88636 0.0
H871 H 0.18317 0.4765 0.86217 0.0
H872 H 0.05857 0.4601 0.86264 0.0
H873 H 0.11065 0.5256 0.80519 0.0
H874 H 0.09162 0.48436 0.93386 0.0
H875 H 0.11543 0.45321 0.92036 0.0
H876 H 0.07336 0.45028 0.914 0.0
H877 H 0.15535 0.56391 0.86341 0.0
H878 H 0.15623 0.55363 0.82238 0.0
H879 H 0.17909 0.53267 0.84996 0.0
C880 C 0.52727 0.09284 0.84354 0.0
C881 C 0.50466 0.06807 0.84686 0.0
C882 C 0.52985 0.11778 0.86591 0.0
C883 C 0.50926 0.11791 0.89198 0.0
C884 C 0.48718 0.09244 0.89584 0.0
C885 C 0.48536 0.06785 0.87349 0.0
C886 C 0.55413 0.14432 0.86137 0.0
C887 C 0.46493 0.09143 0.92331 0.0
C888 C 0.53377 0.16533 0.96479 0.0
C889 C 0.51725 0.19305 0.96171 0.0
C890 C 0.53136 0.14087 0.94232 0.0
C891 C 0.51155 0.14385 0.9161 0.0
C892 C 0.49343 0.17102 0.91359 0.0
C893 C 0.49654 0.19544 0.93647 0.0
C894 C 0.55091 0.1123 0.94615 0.0
C895 C 0.47158 0.1747 0.88622 0.0
H896 H 0.54203 0.09336 0.82295 0.0
H897 H 0.46797 0.04867 0.8765 0.0
H898 H 0.54222 0.16691 0.85922 0.0
H899 H 0.56993 0.1468 0.88205 0.0
H900 H 0.56873 0.1405 0.84027 0.0
H901 H 0.44881 0.07006 0.92267 0.0
H902 H 0.47854 0.09187 0.94547 0.0
H903 H 0.45048 0.11258 0.92365 0.0
H904 H 0.54979 0.16332 0.98435 0.0
H905 H 0.4841 0.21697 0.93374 0.0
H906 H 0.5673 0.1101 0.92617 0.0
H907 H 0.53544 0.09053 0.94614 0.0
H908 H 0.56497 0.11354 0.96809 0.0
H909 H 0.48541 0.17535 0.86431 0.0
H910 H 0.4582 0.19655 0.88828 0.0
H911 H 0.45456 0.15412 0.88421 0.0
C912 C 0.92104 0.52341 0.80165 0.0
C913 C 0.95254 0.52795 0.81114 0.0
C914 C 0.89648 0.52505 0.82336 0.0
C915 C 0.90386 0.53094 0.85526 0.0
C916 C 0.93544 0.53902 0.86424 0.0
C917 C 0.95952 0.53736 0.84196 0.0
C918 C 0.86315 0.51675 0.81266 0.0
C919 C 0.94432 0.54564 0.89796 0.0
C920 C 0.83951 0.53743 0.91642 0.0
C921 C 0.8377 0.50665 0.92793 0.0
C922 C 0.86044 0.54568 0.89231 0.0
C923 C 0.88008 0.52268 0.8795 0.0
C924 C 0.87771 0.4914 0.89036 0.0
C925 C 0.85653 0.48377 0.91434 0.0
C926 C 0.8621 0.57915 0.8811 0.0
C927 C 0.89812 0.46605 0.87717 0.0
H928 H 0.9158 0.51565 0.77783 0.0
H929 H 0.98399 0.5402 0.84932 0.0
H930 H 0.85691 0.49191 0.81843 0.0
H931 H 0.84611 0.53187 0.82474 0.0
H932 H 0.86046 0.51922 0.78705 0.0
H933 H 0.96845 0.55676 0.90034 0.0
H934 H 0.92733 0.56129 0.90937 0.0
H935 H 0.94359 0.52314 0.91065 0.0
H936 H 0.82505 0.55533 0.92667 0.0
H937 H 0.85529 0.45993 0.9229 0.0
H938 H 0.8598 0.57937 0.85532 0.0
H939 H 0.88543 0.59051 0.88723 0.0
H940 H 0.84343 0.59353 0.89157 0.0
H941 H 0.89451 0.46345 0.85157 0.0
H942 H 0.89296 0.44278 0.88779 0.0
H943 H 0.92338 0.47285 0.88124 0.0
C944 C 0.54129 0.12518 0.21303 0.0
C945 C 0.52591 0.09641 0.20406 0.0
C946 C 0.54373 0.15043 0.19249 0.0
C947 C 0.53094 0.14666 0.16202 0.0
C948 C 0.51414 0.11815 0.15332 0.0
C949 C 0.51162 0.09344 0.17455 0.0
C950 C 0.56125 0.18062 0.20292 0.0
C951 C 0.50034 0.1131 0.12099 0.0
C952 C 0.52123 0.21712 0.11002 0.0
C953 C 0.54808 0.21583 0.09099 0.0
C954 C 0.51571 0.19533 0.1338 0.0
C955 C 0.53733 0.17141 0.13846 0.0
C956 C 0.5649 0.17053 0.11997 0.0
C957 C 0.57004 0.19283 0.09665 0.0
C958 C 0.48635 0.19741 0.1534 0.0
C959 C 0.58851 0.14534 0.1241 0.0
H960 H 0.55222 0.1277 0.2359 0.0
H961 H 0.49984 0.07123 0.16743 0.0
H962 H 0.58381 0.18319 0.19002 0.0
H963 H 0.54727 0.2013 0.19754 0.0
H964 H 0.5666 0.18113 0.22832 0.0
H965 H 0.48611 0.09055 0.11858 0.0
H966 H 0.48519 0.13277 0.11516 0.0
H967 H 0.51967 0.11285 0.10362 0.0
H968 H 0.50416 0.23483 0.10597 0.0
H969 H 0.59079 0.19146 0.08209 0.0
H970 H 0.4926 0.19785 0.17857 0.0
H971 H 0.47058 0.17622 0.14891 0.0
H972 H 0.47309 0.21871 0.14839 0.0
H973 H 0.59726 0.14581 0.14852 0.0
H974 H 0.60905 0.14828 0.10826 0.0
H975 H 0.57693 0.12173 0.11944 0.0
C976 C 0.95197 0.53692 0.18355 0.0
C977 C 0.95034 0.50751 0.19781 0.0
C978 C 0.93331 0.54282 0.15744 0.0
C979 C 0.91154 0.5191 0.14593 0.0
C980 C 0.90904 0.48964 0.161 0.0
C981 C 0.92918 0.48385 0.18625 0.0
C982 C 0.93706 0.57436 0.14202 0.0
C983 C 0.88478 0.46443 0.15066 0.0
C984 C 0.84374 0.53938 0.09227 0.0
C985 C 0.85289 0.52519 0.06418 0.0
C986 C 0.86321 0.53908 0.11883 0.0
C987 C 0.8926 0.5244 0.11719 0.0
C988 C 0.90324 0.51303 0.08793 0.0
C989 C 0.88313 0.51324 0.06189 0.0
C990 C 0.85048 0.55201 0.14892 0.0
C991 C 0.93519 0.49909 0.08444 0.0
H992 H 0.96837 0.55526 0.19262 0.0
H993 H 0.92786 0.46119 0.19738 0.0
H994 H 0.94266 0.57087 0.11693 0.0
H995 H 0.91458 0.58668 0.14337 0.0
H996 H 0.95599 0.5898 0.15306 0.0
H997 H 0.88435 0.44374 0.16606 0.0
H998 H 0.86098 0.47431 0.15061 0.0
H999 H 0.88977 0.45629 0.12647 0.0
H1000 H 0.82027 0.54833 0.0943 0.0
H1001 H 0.89039 0.50242 0.04004 0.0
H1002 H 0.86926 0.55809 0.16629 0.0
H1003 H 0.83385 0.53387 0.15853 0.0
H1004 H 0.83697 0.57336 0.1448 0.0
H1005 H 0.95367 0.51481 0.09581 0.0
H1006 H 0.94159 0.49524 0.05957 0.0
H1007 H 0.93516 0.47608 0.09617 0.0
C1008 C 0.52491 0.8305 0.10181 0.0
C1009 C 0.51189 0.83894 0.07328 0.0
C1010 C 0.53265 0.85317 0.12517 0.0
C1011 C 0.5277 0.88539 0.11983 0.0
C1012 C 0.51619 0.89429 0.09035 0.0
C1013 C 0.50776 0.87088 0.06764 0.0
C1014 C 0.54647 0.84184 0.15511 0.0
C1015 C 0.51337 0.92856 0.08261 0.0
C1016 C 0.51029 0.94053 0.18806 0.0
C1017 C 0.54045 0.95245 0.19673 0.0
C1018 C 0.50595 0.91843 0.16341 0.0
C1019 C 0.53227 0.90938 0.14567 0.0
C1020 C 0.56274 0.92238 0.15346 0.0
C1021 C 0.5665 0.9436 0.17911 0.0
C1022 C 0.4732 0.90437 0.15673 0.0
C1023 C 0.59133 0.91375 0.13486 0.0
H1024 H 0.5287 0.8059 0.10621 0.0
H1025 H 0.49859 0.87762 0.04526 0.0
H1026 H 0.54757 0.85999 0.17401 0.0
H1027 H 0.5326 0.82078 0.16316 0.0
H1028 H 0.57078 0.83431 0.15056 0.0
H1029 H 0.50796 0.9317 0.05753 0.0
H1030 H 0.49441 0.93899 0.09667 0.0
H1031 H 0.53569 0.94205 0.08855 0.0
H1032 H 0.48989 0.94886 0.2003 0.0
H1033 H 0.58976 0.95351 0.18521 0.0
H1034 H 0.47311 0.87838 0.15903 0.0
H1035 H 0.46602 0.90903 0.13248 0.0
H1036 H 0.45527 0.91399 0.1727 0.0
H1037 H 0.59716 0.88916 0.13986 0.0
H1038 H 0.61226 0.92949 0.14066 0.0
H1039 H 0.58639 0.9149 0.10947 0.0
C1040 C 0.17991 0.49874 0.08801 0.0
C1041 C 0.20814 0.51682 0.09188 0.0
C1042 C 0.15599 0.49979 0.1108 0.0
C1043 C 0.16031 0.51984 0.13764 0.0
C1044 C 0.1896 0.53654 0.14238 0.0
C1045 C 0.21316 0.53452 0.11965 0.0
C1046 C 0.12547 0.48084 0.10533 0.0
C1047 C 0.19538 0.55828 0.17044 0.0
C1048 C 0.08815 0.55161 0.17931 0.0
C1049 C 0.08664 0.53313 0.20596 0.0
C1050 C 0.112 0.54758 0.15683 0.0
C1051 C 0.13429 0.52395 0.16069 0.0
C1052 C 0.13273 0.50523 0.18748 0.0
C1053 C 0.10935 0.51034 0.20987 0.0
C1054 C 0.11336 0.56858 0.12893 0.0
C1055 C 0.15552 0.47942 0.19234 0.0
H1056 H 0.17562 0.48561 0.06628 0.0
H1057 H 0.23488 0.54867 0.12263 0.0
H1058 H 0.1187 0.46769 0.12652 0.0
H1059 H 0.10631 0.49698 0.10041 0.0
H1060 H 0.1271 0.46381 0.08537 0.0
H1061 H 0.21983 0.56882 0.17115 0.0
H1062 H 0.17869 0.57766 0.17 0.0
H1063 H 0.19103 0.54536 0.19229 0.0
H1064 H 0.07062 0.56903 0.17592 0.0
H1065 H 0.10832 0.49554 0.23012 0.0
H1066 H 0.11072 0.55406 0.10714 0.0
H1067 H 0.13671 0.5814 0.12804 0.0
H1068 H 0.09467 0.58609 0.12949 0.0
H1069 H 0.15465 0.46271 0.172 0.0
H1070 H 0.1503 0.46599 0.21378 0.0
H1071 H 0.18 0.48966 0.19407 0.0
C1072 C 0.82601 0.92291 0.52361 0.0
C1073 C 0.83058 0.95083 0.54169 0.0
C1074 C 0.85 0.90135 0.52 0.0
C1075 C 0.8794 0.90741 0.53518 0.0
C1076 C 0.88387 0.93498 0.5544 0.0
C1077 C 0.8595 0.95645 0.55728 0.0
C1078 C 0.8441 0.8724 0.49924 0.0
C1079 C 0.91463 0.94206 0.57146 0.0
C1080 C 0.92946 0.83629 0.54697 0.0
C1081 C 0.95211 0.83932 0.52321 0.0
C1082 C 0.90621 0.8585 0.5514 0.0
C1083 C 0.90504 0.88442 0.53136 0.0
C1084 C 0.92758 0.88753 0.50707 0.0
C1085 C 0.95097 0.86507 0.5034 0.0
C1086 C 0.88292 0.85425 0.57772 0.0
C1087 C 0.92691 0.91455 0.48489 0.0
H1088 H 0.80388 0.91828 0.51128 0.0
H1089 H 0.86342 0.97801 0.57107 0.0
H1090 H 0.86155 0.87234 0.48002 0.0
H1091 H 0.84722 0.85078 0.51273 0.0
H1092 H 0.82001 0.87117 0.48892 0.0
H1093 H 0.91407 0.96385 0.5863 0.0
H1094 H 0.92015 0.92204 0.58642 0.0
H1095 H 0.93411 0.94489 0.55442 0.0
H1096 H 0.93014 0.81667 0.56263 0.0
H1097 H 0.9684 0.86775 0.48512 0.0
H1098 H 0.8586 0.85138 0.56819 0.0
H1099 H 0.88379 0.87556 0.59326 0.0
H1100 H 0.88763 0.83342 0.59192 0.0
H1101 H 0.90387 0.91401 0.47251 0.0
H1102 H 0.94604 0.91376 0.4673 0.0
H1103 H 0.9293 0.93733 0.49811 0.0
C1104 C 0.94234 0.19565 0.48371 0.0
C1105 C 0.96104 0.20079 0.51049 0.0
C1106 C 0.91851 0.1716 0.48209 0.0
C1107 C 0.91491 0.15031 0.50693 0.0
C1108 C 0.93649 0.15304 0.53239 0.0
C1109 C 0.95855 0.1788 0.53433 0.0
C1110 C 0.89706 0.16936 0.45388 0.0
C1111 C 0.93606 0.12938 0.5581 0.0
C1112 C 0.83653 0.10936 0.52865 0.0
C1113 C 0.83289 0.08521 0.50603 0.0
C1114 C 0.86238 0.13112 0.52867 0.0
C1115 C 0.88736 0.12694 0.50725 0.0
C1116 C 0.88536 0.10054 0.48615 0.0
C1117 C 0.85769 0.0809 0.48496 0.0
C1118 C 0.86227 0.15788 0.55251 0.0
C1119 C 0.91258 0.09128 0.4658 0.0
H1120 H 0.94626 0.2106 0.4639 0.0
H1121 H 0.97405 0.18152 0.55447 0.0
H1122 H 0.90134 0.14766 0.44006 0.0
H1123 H 0.87195 0.1683 0.46119 0.0
H1124 H 0.90124 0.18942 0.43814 0.0
H1125 H 0.96026 0.12653 0.56729 0.0
H1126 H 0.92161 0.1381 0.57774 0.0
H1127 H 0.92612 0.10592 0.55009 0.0
H1128 H 0.81982 0.11071 0.54734 0.0
H1129 H 0.85626 0.06114 0.46842 0.0
H1130 H 0.83994 0.17011 0.5505 0.0
H1131 H 0.88183 0.1757 0.55015 0.0
H1132 H 0.86292 0.14821 0.57633 0.0
H1133 H 0.90522 0.09109 0.44091 0.0
H1134 H 0.91871 0.0668 0.47103 0.0
H1135 H 0.9341 0.10683 0.469 0.0
C1136 C 0.12465 0.83439 0.54589 0.0
C1137 C 0.09675 0.83317 0.52843 0.0
C1138 C 0.14968 0.85592 0.53871 0.0
C1139 C 0.1459 0.87818 0.51491 0.0
C1140 C 0.11695 0.87787 0.4983 0.0
C1141 C 0.09311 0.8549 0.50474 0.0
C1142 C 0.18084 0.8534 0.55511 0.0
C1143 C 0.11117 0.90162 0.47352 0.0
C1144 C 0.20103 0.95149 0.52169 0.0
C1145 C 0.22056 0.94812 0.49565 0.0
C1146 C 0.17622 0.92942 0.5276 0.0
C1147 C 0.17179 0.90225 0.50792 0.0
C1148 C 0.19154 0.89898 0.48133 0.0
C1149 C 0.21527 0.92229 0.47524 0.0
C1150 C 0.15413 0.93585 0.55436 0.0
C1151 C 0.18824 0.87125 0.45884 0.0
H1152 H 0.12732 0.81782 0.56442 0.0
H1153 H 0.07131 0.85409 0.49139 0.0
H1154 H 0.1982 0.84596 0.53754 0.0
H1155 H 0.18955 0.87651 0.56504 0.0
H1156 H 0.17973 0.83595 0.574 0.0
H1157 H 0.08598 0.90135 0.46632 0.0
H1158 H 0.11847 0.92577 0.48204 0.0
H1159 H 0.12551 0.89619 0.45264 0.0
H1160 H 0.20476 0.97195 0.53713 0.0
H1161 H 0.22995 0.91999 0.45475 0.0
H1162 H 0.15714 0.9185 0.57292 0.0
H1163 H 0.12925 0.93332 0.54621 0.0
H1164 H 0.15834 0.95989 0.5648 0.0
H1165 H 0.21016 0.85801 0.45938 0.0
H1166 H 0.18563 0.87974 0.43471 0.0
H1167 H 0.16795 0.85502 0.46396 0.0
C1168 C 0.09808 0.17746 0.47199 0.0
C1169 C 0.10047 0.20566 0.48974 0.0
C1170 C 0.12012 0.15394 0.47568 0.0
C1171 C 0.14484 0.15858 0.49792 0.0
C1172 C 0.14761 0.18722 0.51547 0.0
C1173 C 0.12563 0.21042 0.51099 0.0
C1174 C 0.11679 0.12397 0.45605 0.0
C1175 C 0.1735 0.19317 0.53946 0.0
C1176 C 0.18731 0.08752 0.52763 0.0
C1177 C 0.21516 0.08913 0.51011 0.0
C1178 C 0.16412 0.10998 0.52398 0.0
C1179 C 0.16876 0.13423 0.50201 0.0
C1180 C 0.19693 0.13601 0.48452 0.0
C1181 C 0.21978 0.11371 0.48898 0.0
C1182 C 0.1346 0.10768 0.54347 0.0
C1183 C 0.20282 0.16129 0.46073 0.0
H1184 H 0.07862 0.17347 0.45572 0.0
H1185 H 0.12769 0.23203 0.52498 0.0
H1186 H 0.13873 0.12057 0.4426 0.0
H1187 H 0.11335 0.1034 0.47134 0.0
H1188 H 0.09662 0.12415 0.43948 0.0
H1189 H 0.17192 0.21639 0.55175 0.0
H1190 H 0.17232 0.1744 0.55704 0.0
H1191 H 0.19691 0.19236 0.52809 0.0
H1192 H 0.18346 0.06855 0.54383 0.0
H1193 H 0.24112 0.11519 0.47515 0.0
H1194 H 0.11356 0.10458 0.52808 0.0
H1195 H 0.13215 0.12991 0.55724 0.0
H1196 H 0.13468 0.08772 0.55975 0.0
H1197 H 0.18351 0.16024 0.44316 0.0
H1198 H 0.22561 0.15888 0.4484 0.0
H1199 H 0.20294 0.18495 0.47229 0.0
loop_
_geom_bond_atom_site_label_1
_geom_bond_atom_site_label_2
_geom_bond_distance
_geom_bond_site_symmetry_2
_ccdc_geom_bond_type
Mn0 O5 2.095 . S
Mn0 O15 2.162 . S
Mn0 O16 2.297 . S
Mn0 O24 2.385 1_455 S
Mn0 O25 2.209 1_455 S
Mn0 O26 2.094 . S
Mn1 O6 2.121 . S
Mn1 N8 2.257 . S
Mn1 N17 2.282 . S
Mn1 O25 2.215 . S
Mn1 O27 2.117 . S
C2 O24 1.234 . S
C2 O25 1.283 . S
C3 O15 1.281 . S
C3 O16 1.236 . S
C4 O26 1.240 . S
C4 O27 1.264 1_455 S
O5 Mn0 2.095 . S
O5 C14 1.250 . S
O6 Mn1 2.121 . S
O6 C14 1.258 1_655 S
C7 N8 1.326 . S
C7 C11 1.460 . S
C7 H13 0.929 . S
N8 Mn1 2.257 . S
N8 C7 1.326 . S
N8 C12 1.362 . S
C9 C10 1.258 . S
C9 C12 1.431 . S
C9 C29 1.449 . S
C10 C9 1.258 . S
C10 C11 1.477 . S
C10 H30 0.931 . S
C11 C7 1.460 . S
C11 C10 1.477 . S
C11 H31 0.930 . S
C12 N8 1.362 . S
C12 C9 1.431 . S
C12 C22 1.476 . S
H13 C7 0.929 . S
C14 O5 1.250 . S
C14 O6 1.258 1_455 S
O15 Mn0 2.162 . S
O15 C3 1.281 . S
O16 Mn0 2.297 . S
O16 C3 1.236 . S
N17 Mn1 2.282 . S
N17 C18 1.328 . S
N17 C22 1.318 . S
C18 N17 1.328 . S
C18 C19 1.457 . S
C18 H23 0.929 . S
C19 C18 1.457 . S
C19 C20 1.291 . S
C19 H32 0.931 . S
C20 C19 1.291 . S
C20 C21 1.373 . S
C20 H33 0.929 . S
C21 C20 1.373 . S
C21 C22 1.396 . S
C21 C28 1.403 . S
C22 C12 1.476 . S
C22 N17 1.318 . S
C22 C21 1.396 . S
H23 C18 0.929 . S
O24 Mn0 2.385 1_655 S
O24 C2 1.234 . S
O25 Mn0 2.209 1_655 S
O25 Mn1 2.215 . S
O25 C2 1.283 . S
O26 Mn0 2.094 . S
O26 C4 1.240 . S
O27 Mn1 2.117 . S
O27 C4 1.264 1_655 S
C28 C21 1.403 . S
C28 C29 1.399 . S
C28 H34 0.929 . S
C29 C9 1.449 . S
C29 C28 1.399 . S
C29 H35 0.930 . S
H30 C10 0.931 . S
H31 C11 0.930 . S
H32 C19 0.931 . S
H33 C20 0.929 . S
H34 C28 0.929 . S
H35 C29 0.930 . S
Mn36 O41 2.095 . S
Mn36 O51 2.162 1_545 S
Mn36 O52 2.297 1_545 S
Mn36 O60 2.385 . S
Mn36 O61 2.209 . S
Mn36 O62 2.094 . S
Mn37 O42 2.121 . S
Mn37 N44 2.257 . S
Mn37 N53 2.282 . S
Mn37 O61 2.215 . S
Mn37 O63 2.117 . S
C38 O60 1.234 . S
C38 O61 1.283 . S
C39 O51 1.281 . S
C39 O52 1.236 . S
C40 O62 1.240 . S
C40 O63 1.264 . S
O41 Mn36 2.095 . S
O41 C50 1.250 . S
O42 Mn37 2.121 . S
O42 C50 1.258 . S
C43 N44 1.326 . S
C43 C47 1.460 . S
C43 H49 0.929 . S
N44 Mn37 2.257 . S
N44 C43 1.326 . S
N44 C48 1.362 . S
C45 C46 1.258 . S
C45 C48 1.431 . S
C45 C65 1.449 . S
C46 C45 1.258 . S
C46 C47 1.477 . S
C46 H66 0.931 . S
C47 C43 1.460 . S
C47 C46 1.477 . S
C47 H67 0.930 . S
C48 N44 1.362 . S
C48 C45 1.431 . S
C48 C58 1.476 . S
H49 C43 0.929 . S
C50 O41 1.250 . S
C50 O42 1.258 . S
O51 Mn36 2.162 1_565 S
O51 C39 1.281 . S
O52 Mn36 2.297 1_565 S
O52 C39 1.236 . S
N53 Mn37 2.282 . S
N53 C54 1.328 . S
N53 C58 1.318 . S
C54 N53 1.328 . S
C54 C55 1.457 . S
C54 H59 0.929 . S
C55 C54 1.457 . S
C55 C56 1.291 . S
C55 H68 0.931 . S
C56 C55 1.291 . S
C56 C57 1.373 . S
C56 H69 0.929 . S
C57 C56 1.373 . S
C57 C58 1.396 . S
C57 C64 1.403 . S
C58 C48 1.476 . S
C58 N53 1.318 . S
C58 C57 1.396 . S
H59 C54 0.929 . S
O60 Mn36 2.385 . S
O60 C38 1.234 . S
O61 Mn36 2.209 . S
O61 Mn37 2.215 . S
O61 C38 1.283 . S
O62 Mn36 2.094 . S
O62 C40 1.240 . S
O63 Mn37 2.117 . S
O63 C40 1.264 . S
C64 C57 1.403 . S
C64 C65 1.399 . S
C64 H70 0.929 . S
C65 C45 1.449 . S
C65 C64 1.399 . S
C65 H71 0.930 . S
H66 C46 0.931 . S
H67 C47 0.930 . S
H68 C55 0.931 . S
H69 C56 0.929 . S
H70 C64 0.929 . S
H71 C65 0.930 . S
Mn72 O77 2.095 . S
Mn72 O87 2.162 1_455 S
Mn72 O88 2.297 1_455 S
Mn72 O96 2.385 . S
Mn72 O97 2.209 . S
Mn72 O98 2.094 . S
Mn73 O78 2.121 . S
Mn73 N80 2.257 . S
Mn73 N89 2.282 . S
Mn73 O97 2.215 . S
Mn73 O99 2.117 . S
C74 O96 1.234 . S
C74 O97 1.283 . S
C75 O87 1.281 . S
C75 O88 1.236 . S
C76 O98 1.240 . S
C76 O99 1.264 . S
O77 Mn72 2.095 . S
O77 C86 1.250 . S
O78 Mn73 2.121 . S
O78 C86 1.258 . S
C79 N80 1.326 . S
C79 C83 1.460 . S
C79 H85 0.929 . S
N80 Mn73 2.257 . S
N80 C79 1.326 . S
N80 C84 1.362 . S
C81 C82 1.258 . S
C81 C84 1.431 . S
C81 C101 1.449 . S
C82 C81 1.258 . S
C82 C83 1.477 . S
C82 H102 0.931 . S
C83 C79 1.460 . S
C83 C82 1.477 . S
C83 H103 0.930 . S
C84 N80 1.362 . S
C84 C81 1.431 . S
C84 C94 1.476 . S
H85 C79 0.929 . S
C86 O77 1.250 . S
C86 O78 1.258 . S
O87 Mn72 2.162 1_655 S
O87 C75 1.281 . S
O88 Mn72 2.297 1_655 S
O88 C75 1.236 . S
N89 Mn73 2.282 . S
N89 C90 1.328 . S
N89 C94 1.318 . S
C90 N89 1.328 . S
C90 C91 1.457 . S
C90 H95 0.929 . S
C91 C90 1.457 . S
C91 C92 1.291 . S
C91 H104 0.931 . S
C92 C91 1.291 . S
C92 C93 1.373 . S
C92 H105 0.929 . S
C93 C92 1.373 . S
C93 C94 1.396 . S
C93 C100 1.403 . S
C94 C84 1.476 . S
C94 N89 1.318 . S
C94 C93 1.396 . S
H95 C90 0.929 . S
O96 Mn72 2.385 . S
O96 C74 1.234 . S
O97 Mn72 2.209 . S
O97 Mn73 2.215 . S
O97 C74 1.283 . S
O98 Mn72 2.094 . S
O98 C76 1.240 . S
O99 Mn73 2.117 . S
O99 C76 1.264 . S
C100 C93 1.403 . S
C100 C101 1.399 . S
C100 H106 0.929 . S
C101 C81 1.449 . S
C101 C100 1.399 . S
C101 H107 0.930 . S
H102 C82 0.931 . S
H103 C83 0.930 . S
H104 C91 0.931 . S
H105 C92 0.929 . S
H106 C100 0.929 . S
H107 C101 0.930 . S
Mn108 O113 2.095 . S
Mn108 O123 2.162 . S
Mn108 O124 2.297 . S
Mn108 O132 2.385 1_545 S
Mn108 O133 2.209 1_545 S
Mn108 O134 2.094 . S
Mn109 O114 2.121 . S
Mn109 N116 2.257 . S
Mn109 N125 2.282 . S
Mn109 O133 2.215 . S
Mn109 O135 2.117 . S
C110 O132 1.234 . S
C110 O133 1.283 . S
C111 O123 1.281 . S
C111 O124 1.236 . S
C112 O134 1.240 . S
C112 O135 1.264 1_545 S
O113 Mn108 2.095 . S
O113 C122 1.250 . S
O114 Mn109 2.121 . S
O114 C122 1.258 1_565 S
C115 N116 1.326 . S
C115 C119 1.460 . S
C115 H121 0.929 . S
N116 Mn109 2.257 . S
N116 C115 1.326 . S
N116 C120 1.362 . S
C117 C118 1.258 . S
C117 C120 1.431 . S
C117 C137 1.449 . S
C118 C117 1.258 . S
C118 C119 1.477 . S
C118 H138 0.931 . S
C119 C115 1.460 . S
C119 C118 1.477 . S
C119 H139 0.930 . S
C120 N116 1.362 . S
C120 C117 1.431 . S
C120 C130 1.476 . S
H121 C115 0.929 . S
C122 O113 1.250 . S
C122 O114 1.258 1_545 S
O123 Mn108 2.162 . S
O123 C111 1.281 . S
O124 Mn108 2.297 . S
O124 C111 1.236 . S
N125 Mn109 2.282 . S
N125 C126 1.328 . S
N125 C130 1.318 . S
C126 N125 1.328 . S
C126 C127 1.457 . S
C126 H131 0.929 . S
C127 C126 1.457 . S
C127 C128 1.291 . S
C127 H140 0.931 . S
C128 C127 1.291 . S
C128 C129 1.373 . S
C128 H141 0.929 . S
C129 C128 1.373 . S
C129 C130 1.396 . S
C129 C136 1.403 . S
C130 C120 1.476 . S
C130 N125 1.318 . S
C130 C129 1.396 . S
H131 C126 0.929 . S
O132 Mn108 2.385 1_565 S
O132 C110 1.234 . S
O133 Mn108 2.209 1_565 S
O133 Mn109 2.215 . S
O133 C110 1.283 . S
O134 Mn108 2.094 . S
O134 C112 1.240 . S
O135 Mn109 2.117 . S
O135 C112 1.264 1_565 S
C136 C129 1.403 . S
C136 C137 1.399 . S
C136 H142 0.929 . S
C137 C117 1.449 . S
C137 C136 1.399 . S
C137 H143 0.930 . S
H138 C118 0.931 . S
H139 C119 0.930 . S
H140 C127 0.931 . S
H141 C128 0.929 . S
H142 C136 0.929 . S
H143 C137 0.930 . S
Mn144 O149 2.095 . S
Mn144 O159 2.162 . S
Mn144 O160 2.297 . S
Mn144 O168 2.385 1_545 S
Mn144 O169 2.209 1_545 S
Mn144 O170 2.094 . S
Mn145 O150 2.121 . S
Mn145 N152 2.257 . S
Mn145 N161 2.282 . S
Mn145 O169 2.215 . S
Mn145 O171 2.117 . S
C146 O168 1.234 . S
C146 O169 1.283 . S
C147 O159 1.281 . S
C147 O160 1.236 . S
C148 O170 1.240 . S
C148 O171 1.264 1_545 S
O149 Mn144 2.095 . S
O149 C158 1.250 . S
O150 Mn145 2.121 . S
O150 C158 1.258 1_565 S
C151 N152 1.326 . S
C151 C155 1.460 . S
C151 H157 0.929 . S
N152 Mn145 2.257 . S
N152 C151 1.326 . S
N152 C156 1.362 . S
C153 C154 1.258 . S
C153 C156 1.431 . S
C153 C173 1.449 . S
C154 C153 1.258 . S
C154 C155 1.477 . S
C154 H174 0.931 . S
C155 C151 1.460 . S
C155 C154 1.477 . S
C155 H175 0.930 . S
C156 N152 1.362 . S
C156 C153 1.431 . S
C156 C166 1.476 . S
H157 C151 0.929 . S
C158 O149 1.250 . S
C158 O150 1.258 1_545 S
O159 Mn144 2.162 . S
O159 C147 1.281 . S
O160 Mn144 2.297 . S
O160 C147 1.236 . S
N161 Mn145 2.282 . S
N161 C162 1.328 . S
N161 C166 1.318 . S
C162 N161 1.328 . S
C162 C163 1.457 . S
C162 H167 0.929 . S
C163 C162 1.457 . S
C163 C164 1.291 . S
C163 H176 0.931 . S
C164 C163 1.291 . S
C164 C165 1.373 . S
C164 H177 0.929 . S
C165 C164 1.373 . S
C165 C166 1.396 . S
C165 C172 1.403 . S
C166 C156 1.476 . S
C166 N161 1.318 . S
C166 C165 1.396 . S
H167 C162 0.929 . S
O168 Mn144 2.385 1_565 S
O168 C146 1.234 . S
O169 Mn144 2.209 1_565 S
O169 Mn145 2.215 . S
O169 C146 1.283 . S
O170 Mn144 2.094 . S
O170 C148 1.240 . S
O171 Mn145 2.117 . S
O171 C148 1.264 1_565 S
C172 C165 1.403 . S
C172 C173 1.399 . S
C172 H178 0.929 . S
C173 C153 1.449 . S
C173 C172 1.399 . S
C173 H179 0.930 . S
H174 C154 0.931 . S
H175 C155 0.930 . S
H176 C163 0.931 . S
H177 C164 0.929 . S
H178 C172 0.929 . S
H179 C173 0.930 . S
Mn180 O185 2.095 . S
Mn180 O195 2.162 . S
Mn180 O196 2.297 . S
Mn180 O204 2.385 1_455 S
Mn180 O205 2.209 1_455 S
Mn180 O206 2.094 . S
Mn181 O186 2.121 . S
Mn181 N188 2.257 . S
Mn181 N197 2.282 . S
Mn181 O205 2.215 . S
Mn181 O207 2.117 . S
C182 O204 1.234 . S
C182 O205 1.283 . S
C183 O195 1.281 . S
C183 O196 1.236 . S
C184 O206 1.240 . S
C184 O207 1.264 1_455 S
O185 Mn180 2.095 . S
O185 C194 1.250 . S
O186 Mn181 2.121 . S
O186 C194 1.258 1_655 S
C187 N188 1.326 . S
C187 C191 1.460 . S
C187 H193 0.929 . S
N188 Mn181 2.257 . S
N188 C187 1.326 . S
N188 C192 1.362 . S
C189 C190 1.258 . S
C189 C192 1.431 . S
C189 C209 1.449 . S
C190 C189 1.258 . S
C190 C191 1.477 . S
C190 H210 0.931 . S
C191 C187 1.460 . S
C191 C190 1.477 . S
C191 H211 0.930 . S
C192 N188 1.362 . S
C192 C189 1.431 . S
C192 C202 1.476 . S
H193 C187 0.929 . S
C194 O185 1.250 . S
C194 O186 1.258 1_455 S
O195 Mn180 2.162 . S
O195 C183 1.281 . S
O196 Mn180 2.297 . S
O196 C183 1.236 . S
N197 Mn181 2.282 . S
N197 C198 1.328 . S
N197 C202 1.318 . S
C198 N197 1.328 . S
C198 C199 1.457 . S
C198 H203 0.929 . S
C199 C198 1.457 . S
C199 C200 1.291 . S
C199 H212 0.931 . S
C200 C199 1.291 . S
C200 C201 1.373 . S
C200 H213 0.929 . S
C201 C200 1.373 . S
C201 C202 1.396 . S
C201 C208 1.403 . S
C202 C192 1.476 . S
C202 N197 1.318 . S
C202 C201 1.396 . S
H203 C198 0.929 . S
O204 Mn180 2.385 1_655 S
O204 C182 1.234 . S
O205 Mn180 2.209 1_655 S
O205 Mn181 2.215 . S
O205 C182 1.283 . S
O206 Mn180 2.094 . S
O206 C184 1.240 . S
O207 Mn181 2.117 . S
O207 C184 1.264 1_655 S
C208 C201 1.403 . S
C208 C209 1.399 . S
C208 H214 0.929 . S
C209 C189 1.449 . S
C209 C208 1.399 . S
C209 H215 0.930 . S
H210 C190 0.931 . S
H211 C191 0.930 . S
H212 C199 0.931 . S
H213 C200 0.929 . S
H214 C208 0.929 . S
H215 C209 0.930 . S
Mn216 O221 2.095 . S
Mn216 O231 2.158 1_545 S
Mn216 O232 2.297 . S
Mn216 O240 2.385 1_545 S
Mn216 O241 2.209 . S
Mn216 O242 2.094 1_545 S
Mn217 O222 2.121 . S
Mn217 N224 2.257 . S
Mn217 N233 2.282 1_545 S
Mn217 O241 2.215 . S
Mn217 O243 2.117 1_545 S
C218 O240 1.234 1_545 S
C218 O241 1.283 . S
C219 O231 1.266 1_545 S
C219 O232 1.236 . S
C220 O242 1.240 . S
C220 O243 1.264 . S
O221 Mn216 2.095 . S
O221 C230 1.250 . S
O222 Mn217 2.121 . S
O222 C230 1.258 . S
C223 N224 1.326 . S
C223 C227 1.460 . S
C223 H229 0.929 . S
N224 Mn217 2.257 . S
N224 C223 1.326 . S
N224 C228 1.362 . S
C225 C226 1.258 . S
C225 C228 1.431 . S
C225 C245 1.449 . S
C226 C225 1.258 . S
C226 C227 1.477 . S
C226 H246 0.931 . S
C227 C223 1.460 . S
C227 C226 1.477 . S
C227 H247 0.930 . S
C228 N224 1.362 . S
C228 C225 1.431 . S
C228 C238 1.476 . S
H229 C223 0.929 . S
C230 O221 1.250 . S
C230 O222 1.258 . S
O231 Mn216 2.158 1_565 S
O231 C219 1.266 1_565 S
O232 Mn216 2.297 . S
O232 C219 1.236 . S
N233 Mn217 2.282 1_565 S
N233 C234 1.328 . S
N233 C238 1.318 1_565 S
C234 N233 1.328 . S
C234 C235 1.457 . S
C234 H239 0.929 . S
C235 C234 1.457 . S
C235 C236 1.291 . S
C235 H248 0.931 . S
C236 C235 1.291 . S
C236 C237 1.373 . S
C236 H249 0.929 . S
C237 C236 1.373 . S
C237 C238 1.396 1_565 S
C237 C244 1.403 1_565 S
C238 C228 1.476 . S
C238 N233 1.318 1_545 S
C238 C237 1.396 1_545 S
H239 C234 0.929 . S
O240 Mn216 2.385 1_565 S
O240 C218 1.234 1_565 S
O241 Mn216 2.209 . S
O241 Mn217 2.215 . S
O241 C218 1.283 . S
O242 Mn216 2.094 1_565 S
O242 C220 1.240 . S
O243 Mn217 2.117 1_565 S
O243 C220 1.264 . S
C244 C237 1.403 1_545 S
C244 C245 1.399 . S
C244 H250 0.929 1_545 S
C245 C225 1.449 . S
C245 C244 1.399 . S
C245 H251 0.930 . S
H246 C226 0.931 . S
H247 C227 0.930 . S
H248 C235 0.931 . S
H249 C236 0.929 . S
H250 C244 0.929 1_565 S
H251 C245 0.930 . S
Mn252 O257 2.095 1_455 S
Mn252 O267 2.162 . S
Mn252 O268 2.297 1_455 S
Mn252 O276 2.385 . S
Mn252 O277 2.209 . S
Mn252 O278 2.094 . S
Mn253 O258 2.121 1_455 S
Mn253 N260 2.257 1_455 S
Mn253 N269 2.282 . S
Mn253 O277 2.215 . S
Mn253 O279 2.117 . S
C254 O276 1.234 . S
C254 O277 1.283 . S
C255 O267 1.281 . S
C255 O268 1.236 1_455 S
C256 O278 1.240 . S
C256 O279 1.264 . S
O257 Mn252 2.095 1_655 S
O257 C266 1.250 . S
O258 Mn253 2.121 1_655 S
O258 C266 1.258 . S
C259 N260 1.326 . S
C259 C263 1.460 . S
C259 H265 0.929 . S
N260 Mn253 2.257 1_655 S
N260 C259 1.326 . S
N260 C264 1.362 . S
C261 C262 1.258 . S
C261 C264 1.431 . S
C261 C281 1.449 . S
C262 C261 1.258 . S
C262 C263 1.477 . S
C262 H282 0.931 . S
C263 C259 1.460 . S
C263 C262 1.477 . S
C263 H283 0.930 . S
C264 N260 1.362 . S
C264 C261 1.431 . S
C264 C274 1.476 1_655 S
H265 C259 0.929 . S
C266 O257 1.250 . S
C266 O258 1.258 . S
O267 Mn252 2.162 . S
O267 C255 1.281 . S
O268 Mn252 2.297 1_655 S
O268 C255 1.236 1_655 S
N269 Mn253 2.282 . S
N269 C270 1.328 . S
N269 C274 1.318 . S
C270 N269 1.328 . S
C270 C271 1.457 . S
C270 H275 0.929 . S
C271 C270 1.457 . S
C271 C272 1.291 . S
C271 H284 0.931 . S
C272 C271 1.291 . S
C272 C273 1.373 . S
C272 H285 0.929 . S
C273 C272 1.373 . S
C273 C274 1.396 . S
C273 C280 1.403 . S
C274 C264 1.476 1_455 S
C274 N269 1.318 . S
C274 C273 1.396 . S
H275 C270 0.929 . S
O276 Mn252 2.385 . S
O276 C254 1.234 . S
O277 Mn252 2.209 . S
O277 Mn253 2.215 . S
O277 C254 1.283 . S
O278 Mn252 2.094 . S
O278 C256 1.240 . S
O279 Mn253 2.117 . S
O279 C256 1.264 . S
C280 C273 1.403 . S
C280 C281 1.399 1_455 S
C280 H286 0.929 . S
C281 C261 1.449 . S
C281 C280 1.399 1_655 S
C281 H287 0.930 . S
H282 C262 0.931 . S
H283 C263 0.930 . S
H284 C271 0.931 . S
H285 C272 0.929 . S
H286 C280 0.929 . S
H287 C281 0.930 . S
Mn288 O293 2.095 . S
Mn288 O303 2.162 1_554 S
Mn288 O304 2.297 . S
Mn288 O312 2.385 1_554 S
Mn288 O313 2.209 . S
Mn288 O314 2.094 1_554 S
Mn289 O294 2.121 . S
Mn289 N296 2.257 . S
Mn289 N305 2.282 1_554 S
Mn289 O313 2.215 . S
Mn289 O315 2.117 1_554 S
C290 O312 1.225 1_554 S
C290 O313 1.291 . S
C291 O303 1.281 1_554 S
C291 O304 1.236 . S
C292 O314 1.240 . S
C292 O315 1.264 . S
O293 Mn288 2.095 . S
O293 C302 1.250 . S
O294 Mn289 2.121 . S
O294 C302 1.258 . S
C295 N296 1.326 . S
C295 C299 1.460 . S
C295 H301 0.929 . S
N296 Mn289 2.257 . S
N296 C295 1.326 . S
N296 C300 1.362 . S
C297 C298 1.258 . S
C297 C300 1.431 . S
C297 C317 1.449 . S
C298 C297 1.258 . S
C298 C299 1.477 . S
C298 H318 0.931 . S
C299 C295 1.460 . S
C299 C298 1.477 . S
C299 H319 0.930 . S
C300 N296 1.362 . S
C300 C297 1.431 . S
C300 C310 1.476 . S
H301 C295 0.929 . S
C302 O293 1.250 . S
C302 O294 1.258 . S
O303 Mn288 2.162 1_556 S
O303 C291 1.281 1_556 S
O304 Mn288 2.297 . S
O304 C291 1.236 . S
N305 Mn289 2.282 1_556 S
N305 C306 1.328 . S
N305 C310 1.318 1_556 S
C306 N305 1.328 . S
C306 C307 1.457 . S
C306 H311 0.929 . S
C307 C306 1.457 . S
C307 C308 1.291 . S
C307 H320 0.931 . S
C308 C307 1.291 . S
C308 C309 1.373 . S
C308 H321 0.929 . S
C309 C308 1.373 . S
C309 C310 1.396 1_556 S
C309 C316 1.403 1_556 S
C310 C300 1.476 . S
C310 N305 1.318 1_554 S
C310 C309 1.396 1_554 S
H311 C306 0.929 . S
O312 Mn288 2.385 1_556 S
O312 C290 1.225 1_556 S
O313 Mn288 2.209 . S
O313 Mn289 2.215 . S
O313 C290 1.291 . S
O314 Mn288 2.094 1_556 S
O314 C292 1.240 . S
O315 Mn289 2.117 1_556 S
O315 C292 1.264 . S
C316 C309 1.403 1_554 S
C316 C317 1.399 . S
C316 H322 0.923 1_554 S
C317 C297 1.449 . S
C317 C316 1.399 . S
C317 H323 0.930 . S
H318 C298 0.931 . S
H319 C299 0.930 . S
H320 C307 0.931 . S
H321 C308 0.929 . S
H322 C316 0.923 1_556 S
H323 C317 0.930 . S
Mn324 O329 2.095 1_554 S
Mn324 O339 2.162 . S
Mn324 O340 2.297 1_554 S
Mn324 O348 2.385 . S
Mn324 O349 2.209 1_554 S
Mn324 O350 2.094 . S
Mn325 O330 2.121 . S
Mn325 N332 2.257 . S
Mn325 N341 2.282 1_556 S
Mn325 O349 2.215 . S
Mn325 O351 2.117 1_556 S
C326 O348 1.234 . S
C326 O349 1.283 1_554 S
C327 O339 1.281 1_556 S
C327 O340 1.236 . S
C328 O350 1.240 . S
C328 O351 1.264 . S
O329 Mn324 2.095 1_556 S
O329 C338 1.250 . S
O330 Mn325 2.121 . S
O330 C338 1.258 . S
C331 N332 1.326 . S
C331 C335 1.460 . S
C331 H337 0.929 . S
N332 Mn325 2.257 . S
N332 C331 1.326 . S
N332 C336 1.362 . S
C333 C334 1.258 . S
C333 C336 1.431 . S
C333 C353 1.449 . S
C334 C333 1.258 . S
C334 C335 1.477 . S
C334 H354 0.931 . S
C335 C331 1.460 . S
C335 C334 1.477 . S
C335 H355 0.930 . S
C336 N332 1.362 . S
C336 C333 1.431 . S
C336 C346 1.476 1_556 S
H337 C331 0.929 . S
C338 O329 1.250 . S
C338 O330 1.258 . S
O339 Mn324 2.162 . S
O339 C327 1.281 1_554 S
O340 Mn324 2.297 1_556 S
O340 C327 1.236 . S
N341 Mn325 2.282 1_554 S
N341 C342 1.328 . S
N341 C346 1.318 . S
C342 N341 1.328 . S
C342 C343 1.457 . S
C342 H347 0.929 . S
C343 C342 1.457 . S
C343 C344 1.291 . S
C343 H356 0.931 . S
C344 C343 1.291 . S
C344 C345 1.373 . S
C344 H357 0.929 . S
C345 C344 1.373 . S
C345 C346 1.396 . S
C345 C352 1.403 . S
C346 C336 1.476 1_554 S
C346 N341 1.318 . S
C346 C345 1.396 . S
H347 C342 0.929 . S
O348 Mn324 2.385 . S
O348 C326 1.234 . S
O349 Mn324 2.209 1_556 S
O349 Mn325 2.215 . S
O349 C326 1.283 1_556 S
O350 Mn324 2.094 . S
O350 C328 1.240 . S
O351 Mn325 2.117 1_554 S
O351 C328 1.264 . S
C352 C345 1.403 . S
C352 C353 1.399 1_554 S
C352 H358 0.929 . S
C353 C333 1.449 . S
C353 C352 1.399 1_556 S
C353 H359 0.930 . S
H354 C334 0.931 . S
H355 C335 0.930 . S
H356 C343 0.931 . S
H357 C344 0.929 . S
H358 C352 0.929 . S
H359 C353 0.930 . S
Mn360 O365 2.095 . S
Mn360 O375 2.162 1_554 S
Mn360 O376 2.297 . S
Mn360 O384 2.385 1_554 S
Mn360 O385 2.209 . S
Mn360 O386 2.094 1_554 S
Mn361 O366 2.121 . S
Mn361 N368 2.257 . S
Mn361 N377 2.282 1_554 S
Mn361 O385 2.215 . S
Mn361 O387 2.117 1_554 S
C362 O384 1.216 1_554 S
C362 O385 1.299 . S
C363 O375 1.281 1_554 S
C363 O376 1.236 . S
C364 O386 1.240 . S
C364 O387 1.264 . S
O365 Mn360 2.095 . S
O365 C374 1.250 . S
O366 Mn361 2.121 . S
O366 C374 1.258 . S
C367 N368 1.326 . S
C367 C371 1.460 . S
C367 H373 0.929 . S
N368 Mn361 2.257 . S
N368 C367 1.326 . S
N368 C372 1.362 . S
C369 C370 1.258 . S
C369 C372 1.431 . S
C369 C389 1.449 . S
C370 C369 1.258 . S
C370 C371 1.477 . S
C370 H390 0.931 . S
C371 C367 1.460 . S
C371 C370 1.477 . S
C371 H391 0.930 . S
C372 N368 1.362 . S
C372 C369 1.431 . S
C372 C382 1.499 . S
H373 C367 0.929 . S
C374 O365 1.250 . S
C374 O366 1.258 . S
O375 Mn360 2.162 1_556 S
O375 C363 1.281 1_556 S
O376 Mn360 2.297 . S
O376 C363 1.236 . S
N377 Mn361 2.282 1_556 S
N377 C378 1.328 . S
N377 C382 1.307 1_556 S
C378 N377 1.328 . S
C378 C379 1.457 . S
C378 H383 0.929 . S
C379 C378 1.457 . S
C379 C380 1.291 . S
C379 H392 0.931 . S
C380 C379 1.291 . S
C380 C381 1.373 . S
C380 H393 0.929 . S
C381 C380 1.373 . S
C381 C382 1.386 1_556 S
C381 C388 1.403 1_556 S
C382 C372 1.499 . S
C382 N377 1.307 1_554 S
C382 C381 1.386 1_554 S
H383 C378 0.929 . S
O384 Mn360 2.385 1_556 S
O384 C362 1.216 1_556 S
O385 Mn360 2.209 . S
O385 Mn361 2.215 . S
O385 C362 1.299 . S
O386 Mn360 2.094 1_556 S
O386 C364 1.240 . S
O387 Mn361 2.117 1_556 S
O387 C364 1.264 . S
C388 C381 1.403 1_554 S
C388 C389 1.399 . S
C388 H394 0.929 1_554 S
C389 C369 1.449 . S
C389 C388 1.399 . S
C389 H395 0.930 . S
H390 C370 0.931 . S
H391 C371 0.930 . S
H392 C379 0.931 . S
H393 C380 0.929 . S
H394 C388 0.929 1_556 S
H395 C389 0.930 . S
Mn396 O401 2.095 1_554 S
Mn396 O411 2.162 . S
Mn396 O412 2.297 1_554 S
Mn396 O420 2.385 . S
Mn396 O421 2.209 . S
Mn396 O422 2.094 . S
Mn397 O402 2.121 1_554 S
Mn397 N404 2.257 1_554 S
Mn397 N413 2.282 . S
Mn397 O421 2.215 . S
Mn397 O423 2.117 . S
C398 O420 1.234 . S
C398 O421 1.283 . S
C399 O411 1.281 . S
C399 O412 1.236 1_554 S
C400 O422 1.240 . S
C400 O423 1.264 . S
O401 Mn396 2.095 1_556 S
O401 C410 1.250 . S
O402 Mn397 2.121 1_556 S
O402 C410 1.258 . S
C403 N404 1.326 . S
C403 C407 1.460 . S
C403 H409 0.929 . S
N404 Mn397 2.257 1_556 S
N404 C403 1.326 . S
N404 C408 1.362 . S
C405 C406 1.258 . S
C405 C408 1.431 . S
C405 C425 1.449 . S
C406 C405 1.258 . S
C406 C407 1.477 . S
C406 H426 0.931 . S
C407 C403 1.460 . S
C407 C406 1.477 . S
C407 H427 0.930 . S
C408 N404 1.362 . S
C408 C405 1.431 . S
C408 C418 1.476 1_556 S
H409 C403 0.929 . S
C410 O401 1.250 . S
C410 O402 1.258 . S
O411 Mn396 2.162 . S
O411 C399 1.281 . S
O412 Mn396 2.297 1_556 S
O412 C399 1.236 1_556 S
N413 Mn397 2.282 . S
N413 C414 1.328 . S
N413 C418 1.318 . S
C414 N413 1.328 . S
C414 C415 1.457 . S
C414 H419 0.929 . S
C415 C414 1.457 . S
C415 C416 1.291 . S
C415 H428 0.931 . S
C416 C415 1.291 . S
C416 C417 1.373 . S
C416 H429 0.929 . S
C417 C416 1.373 . S
C417 C418 1.396 . S
C417 C424 1.403 . S
C418 C408 1.476 1_554 S
C418 N413 1.318 . S
C418 C417 1.396 . S
H419 C414 0.929 . S
O420 Mn396 2.385 . S
O420 C398 1.234 . S
O421 Mn396 2.209 . S
O421 Mn397 2.215 . S
O421 C398 1.283 . S
O422 Mn396 2.094 . S
O422 C400 1.240 . S
O423 Mn397 2.117 . S
O423 C400 1.264 . S
C424 C417 1.403 . S
C424 C425 1.399 1_554 S
C424 H430 0.929 . S
C425 C405 1.449 . S
C425 C424 1.399 1_556 S
C425 H431 0.930 . S
H426 C406 0.931 . S
H427 C407 0.930 . S
H428 C415 0.931 . S
H429 C416 0.929 . S
H430 C424 0.929 . S
H431 C425 0.930 . S
C432 C433 1.391 . S
C432 C434 1.394 . S
C432 H448 0.931 . S
C433 C432 1.391 . S
C433 C437 1.376 1_455 S
C434 C432 1.394 . S
C434 C435 1.369 . S
C434 C438 1.531 . S
C435 C434 1.369 . S
C435 C436 1.410 1_455 S
C435 C443 1.503 . S
C436 C435 1.410 1_655 S
C436 C437 1.392 . S
C436 C439 1.511 . S
C437 C433 1.376 1_655 S
C437 C436 1.392 . S
C437 H449 0.929 . S
C438 C434 1.531 . S
C438 H450 0.960 . S
C438 H451 0.962 . S
C438 H452 0.960 . S
C439 C436 1.511 . S
C439 H453 0.961 . S
C439 H454 0.961 . S
C439 H455 0.961 . S
C440 C441 1.370 . S
C440 C442 1.363 . S
C440 H456 0.931 . S
C441 C440 1.370 . S
C441 C445 1.410 . S
C442 C440 1.363 . S
C442 C443 1.370 . S
C442 C446 1.524 . S
C443 C435 1.503 . S
C443 C442 1.370 . S
C443 C444 1.403 . S
C444 C443 1.403 . S
C444 C445 1.408 . S
C444 C447 1.539 1_455 S
C445 C441 1.410 . S
C445 C444 1.408 . S
C445 H457 0.925 1_455 S
C446 C442 1.524 . S
C446 H458 0.956 . S
C446 H459 0.961 . S
C446 H460 0.961 . S
C447 C444 1.539 1_655 S
C447 H461 0.958 1_655 S
C447 H462 0.961 . S
C447 H463 0.960 . S
H448 C432 0.931 . S
H449 C437 0.929 . S
H450 C438 0.960 . S
H451 C438 0.962 . S
H452 C438 0.960 . S
H453 C439 0.961 . S
H454 C439 0.961 . S
H455 C439 0.961 . S
H456 C440 0.931 . S
H457 C445 0.925 1_655 S
H458 C446 0.956 . S
H459 C446 0.961 . S
H460 C446 0.961 . S
H461 C447 0.958 1_455 S
H462 C447 0.961 . S
H463 C447 0.960 . S
C464 C465 1.391 . S
C464 C466 1.394 . S
C464 H480 0.931 . S
C465 C464 1.391 . S
C465 C469 1.376 . S
C466 C464 1.394 . S
C466 C467 1.369 . S
C466 C470 1.531 . S
C467 C466 1.369 . S
C467 C468 1.410 1_545 S
C467 C475 1.503 . S
C468 C467 1.410 1_565 S
C468 C469 1.392 1_565 S
C468 C471 1.511 . S
C469 C465 1.376 . S
C469 C468 1.392 1_545 S
C469 H481 0.929 1_545 S
C470 C466 1.531 . S
C470 H482 0.960 . S
C470 H483 0.962 . S
C470 H484 0.960 . S
C471 C468 1.511 . S
C471 H485 0.961 . S
C471 H486 0.961 . S
C471 H487 0.961 . S
C472 C473 1.370 . S
C472 C474 1.363 . S
C472 H488 0.931 . S
C473 C472 1.370 . S
C473 C477 1.408 1_545 S
C474 C472 1.363 . S
C474 C475 1.370 . S
C474 C478 1.524 . S
C475 C467 1.503 . S
C475 C474 1.370 . S
C475 C476 1.403 1_545 S
C476 C475 1.403 1_565 S
C476 C477 1.404 . S
C476 C479 1.539 . S
C477 C473 1.408 1_565 S
C477 C476 1.404 . S
C477 H489 0.930 . S
C478 C474 1.524 . S
C478 H490 0.956 . S
C478 H491 0.961 . S
C478 H492 0.961 . S
C479 C476 1.539 . S
C479 H493 0.958 . S
C479 H494 0.961 . S
C479 H495 0.960 . S
H480 C464 0.931 . S
H481 C469 0.929 1_565 S
H482 C470 0.960 . S
H483 C470 0.962 . S
H484 C470 0.960 . S
H485 C471 0.961 . S
H486 C471 0.961 . S
H487 C471 0.961 . S
H488 C472 0.931 . S
H489 C477 0.930 . S
H490 C478 0.956 . S
H491 C478 0.961 . S
H492 C478 0.961 . S
H493 C479 0.958 . S
H494 C479 0.961 . S
H495 C479 0.960 . S
C496 C497 1.391 . S
C496 C498 1.394 . S
C496 H512 0.931 . S
C497 C496 1.391 . S
C497 C501 1.376 1_455 S
C498 C496 1.394 . S
C498 C499 1.369 . S
C498 C502 1.531 . S
C499 C498 1.369 . S
C499 C500 1.410 1_455 S
C499 C507 1.503 . S
C500 C499 1.410 1_655 S
C500 C501 1.392 . S
C500 C503 1.511 . S
C501 C497 1.376 1_655 S
C501 C500 1.392 . S
C501 H513 0.929 . S
C502 C498 1.531 . S
C502 H514 0.960 . S
C502 H515 0.962 . S
C502 H516 0.960 . S
C503 C500 1.511 . S
C503 H517 0.961 . S
C503 H518 0.961 . S
C503 H519 0.961 . S
C504 C505 1.370 . S
C504 C506 1.363 . S
C504 H520 0.931 . S
C505 C504 1.370 . S
C505 C509 1.408 . S
C506 C504 1.363 . S
C506 C507 1.370 . S
C506 C510 1.524 . S
C507 C499 1.503 . S
C507 C506 1.370 . S
C507 C508 1.403 . S
C508 C507 1.403 . S
C508 C509 1.404 . S
C508 C511 1.539 . S
C509 C505 1.408 . S
C509 C508 1.404 . S
C509 H521 0.930 . S
C510 C506 1.524 . S
C510 H522 0.956 . S
C510 H523 0.961 1_455 S
C510 H524 0.961 . S
C511 C508 1.539 . S
C511 H525 0.958 . S
C511 H526 0.961 . S
C511 H527 0.960 . S
H512 C496 0.931 . S
H513 C501 0.929 . S
H514 C502 0.960 . S
H515 C502 0.962 . S
H516 C502 0.960 . S
H517 C503 0.961 . S
H518 C503 0.961 . S
H519 C503 0.961 . S
H520 C504 0.931 . S
H521 C509 0.930 . S
H522 C510 0.956 . S
H523 C510 0.961 1_655 S
H524 C510 0.961 . S
H525 C511 0.958 . S
H526 C511 0.961 . S
H527 C511 0.960 . S
C528 C529 1.391 . S
C528 C530 1.394 . S
C528 H544 0.931 . S
C529 C528 1.391 . S
C529 C533 1.376 1_545 S
C530 C528 1.394 . S
C530 C531 1.369 . S
C530 C534 1.531 . S
C531 C530 1.369 . S
C531 C532 1.410 1_545 S
C531 C539 1.503 . S
C532 C531 1.410 1_565 S
C532 C533 1.392 . S
C532 C535 1.511 . S
C533 C529 1.376 1_565 S
C533 C532 1.392 . S
C533 H545 0.929 . S
C534 C530 1.531 . S
C534 H546 0.960 . S
C534 H547 0.962 . S
C534 H548 0.960 . S
C535 C532 1.511 . S
C535 H549 0.961 . S
C535 H550 0.961 . S
C535 H551 0.961 . S
C536 C537 1.370 . S
C536 C538 1.363 . S
C536 H552 0.931 . S
C537 C536 1.370 . S
C537 C541 1.408 . S
C538 C536 1.363 . S
C538 C539 1.370 . S
C538 C542 1.524 . S
C539 C531 1.503 . S
C539 C538 1.370 . S
C539 C540 1.403 1_545 S
C540 C539 1.403 1_565 S
C540 C541 1.404 1_565 S
C540 C543 1.539 . S
C541 C537 1.408 . S
C541 C540 1.404 1_545 S
C541 H553 0.930 1_545 S
C542 C538 1.524 . S
C542 H554 0.956 . S
C542 H555 0.961 . S
C542 H556 0.961 . S
C543 C540 1.539 . S
C543 H557 0.958 . S
C543 H558 0.961 . S
C543 H559 0.960 . S
H544 C528 0.931 . S
H545 C533 0.929 . S
H546 C534 0.960 . S
H547 C534 0.962 . S
H548 C534 0.960 . S
H549 C535 0.961 . S
H550 C535 0.961 . S
H551 C535 0.961 . S
H552 C536 0.931 . S
H553 C541 0.930 1_565 S
H554 C542 0.956 . S
H555 C542 0.961 . S
H556 C542 0.961 . S
H557 C543 0.958 . S
H558 C543 0.961 . S
H559 C543 0.960 . S
C560 C561 1.391 1_655 S
C560 C562 1.394 . S
C560 H576 0.931 . S
C561 C560 1.391 1_455 S
C561 C565 1.376 . S
C562 C560 1.394 . S
C562 C563 1.369 1_655 S
C562 C566 1.531 . S
C563 C562 1.369 1_455 S
C563 C564 1.410 . S
C563 C571 1.503 . S
C564 C563 1.410 . S
C564 C565 1.392 . S
C564 C567 1.511 . S
C565 C561 1.376 . S
C565 C564 1.392 . S
C565 H577 0.929 . S
C566 C562 1.531 . S
C566 H578 0.960 . S
C566 H579 0.962 . S
C566 H580 0.960 . S
C567 C564 1.511 . S
C567 H581 0.961 . S
C567 H582 0.961 . S
C567 H583 0.961 . S
C568 C569 1.370 . S
C568 C570 1.363 . S
C568 H584 0.931 . S
C569 C568 1.370 . S
C569 C573 1.408 . S
C570 C568 1.363 . S
C570 C571 1.370 . S
C570 C574 1.524 1_455 S
C571 C563 1.503 . S
C571 C570 1.370 . S
C571 C572 1.403 . S
C572 C571 1.403 . S
C572 C573 1.404 . S
C572 C575 1.539 . S
C573 C569 1.408 . S
C573 C572 1.404 . S
C573 H585 0.930 . S
C574 C570 1.524 1_655 S
C574 H586 0.956 . S
C574 H587 0.961 1_655 S
C574 H588 0.961 . S
C575 C572 1.539 . S
C575 H589 0.958 . S
C575 H590 0.961 . S
C575 H591 0.960 . S
H576 C560 0.931 . S
H577 C565 0.929 . S
H578 C566 0.960 . S
H579 C566 0.962 . S
H580 C566 0.960 . S
H581 C567 0.961 . S
H582 C567 0.961 . S
H583 C567 0.961 . S
H584 C568 0.931 . S
H585 C573 0.930 . S
H586 C574 0.956 . S
H587 C574 0.961 1_455 S
H588 C574 0.961 . S
H589 C575 0.958 . S
H590 C575 0.961 . S
H591 C575 0.960 . S
C592 C593 1.391 1_565 S
C592 C594 1.394 . S
C592 H608 0.931 . S
C593 C592 1.391 1_545 S
C593 C597 1.376 . S
C594 C592 1.394 . S
C594 C595 1.369 1_565 S
C594 C598 1.531 . S
C595 C594 1.369 1_545 S
C595 C596 1.410 . S
C595 C603 1.503 . S
C596 C595 1.410 . S
C596 C597 1.392 . S
C596 C599 1.511 . S
C597 C593 1.376 . S
C597 C596 1.392 . S
C597 H609 0.929 . S
C598 C594 1.531 . S
C598 H610 0.960 . S
C598 H611 0.962 . S
C598 H612 0.960 . S
C599 C596 1.511 . S
C599 H613 0.961 . S
C599 H614 0.961 . S
C599 H615 0.961 . S
C600 C601 1.370 . S
C600 C602 1.363 . S
C600 H616 0.931 . S
C601 C600 1.370 . S
C601 C605 1.408 . S
C602 C600 1.363 . S
C602 C603 1.370 . S
C602 C606 1.524 . S
C603 C595 1.503 . S
C603 C602 1.370 . S
C603 C604 1.403 1_545 S
C604 C603 1.403 1_565 S
C604 C605 1.404 1_565 S
C604 C607 1.539 . S
C605 C601 1.408 . S
C605 C604 1.404 1_545 S
C605 H617 0.930 1_545 S
C606 C602 1.524 . S
C606 H618 0.956 . S
C606 H619 0.961 . S
C606 H620 0.961 . S
C607 C604 1.539 . S
C607 H621 0.958 . S
C607 H622 0.961 . S
C607 H623 0.960 . S
H608 C592 0.931 . S
H609 C597 0.929 . S
H610 C598 0.960 . S
H611 C598 0.962 . S
H612 C598 0.960 . S
H613 C599 0.961 . S
H614 C599 0.961 . S
H615 C599 0.961 . S
H616 C600 0.931 . S
H617 C605 0.930 1_565 S
H618 C606 0.956 . S
H619 C606 0.961 . S
H620 C606 0.961 . S
H621 C607 0.958 . S
H622 C607 0.961 . S
H623 C607 0.960 . S
C624 C625 1.391 . S
C624 C626 1.394 . S
C624 H640 0.931 . S
C625 C624 1.391 . S
C625 C629 1.376 1_455 S
C626 C624 1.394 . S
C626 C627 1.369 . S
C626 C630 1.531 . S
C627 C626 1.369 . S
C627 C628 1.410 1_455 S
C627 C635 1.503 . S
C628 C627 1.410 1_655 S
C628 C629 1.392 . S
C628 C631 1.511 . S
C629 C625 1.376 1_655 S
C629 C628 1.392 . S
C629 H641 0.929 . S
C630 C626 1.531 . S
C630 H642 0.960 . S
C630 H643 0.962 . S
C630 H644 0.960 . S
C631 C628 1.511 . S
C631 H645 0.961 . S
C631 H646 0.961 . S
C631 H647 0.961 . S
C632 C633 1.370 . S
C632 C634 1.363 . S
C632 H648 0.931 . S
C633 C632 1.370 . S
C633 C637 1.408 . S
C634 C632 1.363 . S
C634 C635 1.370 . S
C634 C638 1.524 . S
C635 C627 1.503 . S
C635 C634 1.370 . S
C635 C636 1.403 . S
C636 C635 1.403 . S
C636 C637 1.404 . S
C636 C639 1.539 1_455 S
C637 C633 1.408 . S
C637 C636 1.404 . S
C637 H649 0.930 . S
C638 C634 1.524 . S
C638 H650 0.956 . S
C638 H651 0.961 . S
C638 H652 0.961 . S
C639 C636 1.539 1_655 S
C639 H653 0.958 1_655 S
C639 H654 0.961 . S
C639 H655 0.960 . S
H640 C624 0.931 . S
H641 C629 0.929 . S
H642 C630 0.960 . S
H643 C630 0.962 . S
H644 C630 0.960 . S
H645 C631 0.961 . S
H646 C631 0.961 . S
H647 C631 0.961 . S
H648 C632 0.931 . S
H649 C637 0.930 . S
H650 C638 0.956 . S
H651 C638 0.961 . S
H652 C638 0.961 . S
H653 C639 0.958 1_455 S
H654 C639 0.961 . S
H655 C639 0.960 . S
C656 C657 1.391 . S
C656 C658 1.397 . S
C656 H672 0.931 1_545 S
C657 C656 1.391 . S
C657 C661 1.376 . S
C658 C656 1.397 . S
C658 C659 1.378 . S
C658 C662 1.518 1_545 S
C659 C658 1.378 . S
C659 C660 1.410 . S
C659 C667 1.503 . S
C660 C659 1.410 . S
C660 C661 1.392 . S
C660 C663 1.511 . S
C661 C657 1.376 . S
C661 C660 1.392 . S
C661 H673 0.929 . S
C662 C658 1.518 1_565 S
C662 H674 0.960 . S
C662 H675 0.962 . S
C662 H676 0.960 . S
C663 C660 1.511 . S
C663 H677 0.961 . S
C663 H678 0.961 . S
C663 H679 0.961 . S
C664 C665 1.370 . S
C664 C666 1.363 . S
C664 H680 0.931 . S
C665 C664 1.370 . S
C665 C669 1.408 1_545 S
C666 C664 1.363 . S
C666 C667 1.370 . S
C666 C670 1.524 . S
C667 C659 1.503 . S
C667 C666 1.370 . S
C667 C668 1.403 1_545 S
C668 C667 1.403 1_565 S
C668 C669 1.404 . S
C668 C671 1.539 . S
C669 C665 1.408 1_565 S
C669 C668 1.404 . S
C669 H681 0.930 . S
C670 C666 1.524 . S
C670 H682 0.956 . S
C670 H683 0.961 . S
C670 H684 0.961 . S
C671 C668 1.539 . S
C671 H685 0.958 . S
C671 H686 0.961 . S
C671 H687 0.960 . S
H672 C656 0.931 1_565 S
H673 C661 0.929 . S
H674 C662 0.960 . S
H675 C662 0.962 . S
H676 C662 0.960 . S
H677 C663 0.961 . S
H678 C663 0.961 . S
H679 C663 0.961 . S
H680 C664 0.931 . S
H681 C669 0.930 . S
H682 C670 0.956 . S
H683 C670 0.961 . S
H684 C670 0.961 . S
H685 C671 0.958 . S
H686 C671 0.961 . S
H687 C671 0.960 . S
C688 C689 1.391 . S
C688 C690 1.394 1_556 S
C688 H704 0.931 . S
C689 C688 1.391 . S
C689 C693 1.376 1_556 S
C690 C688 1.394 1_554 S
C690 C691 1.369 . S
C690 C694 1.531 . S
C691 C690 1.369 . S
C691 C692 1.410 . S
C691 C699 1.503 . S
C692 C691 1.410 . S
C692 C693 1.392 . S
C692 C695 1.511 . S
C693 C689 1.376 1_554 S
C693 C692 1.392 . S
C693 H705 0.929 . S
C694 C690 1.531 . S
C694 H706 0.960 . S
C694 H707 0.962 1_554 S
C694 H708 0.960 . S
C695 C692 1.511 . S
C695 H709 0.961 . S
C695 H710 0.961 . S
C695 H711 0.961 . S
C696 C697 1.370 1_556 S
C696 C698 1.363 . S
C696 H712 0.931 . S
C697 C696 1.370 1_554 S
C697 C701 1.408 . S
C698 C696 1.363 . S
C698 C699 1.370 1_556 S
C698 C702 1.524 . S
C699 C691 1.503 . S
C699 C698 1.370 1_554 S
C699 C700 1.403 . S
C700 C699 1.403 . S
C700 C701 1.404 . S
C700 C703 1.539 . S
C701 C697 1.408 . S
C701 C700 1.404 . S
C701 H713 0.930 . S
C702 C698 1.524 . S
C702 H714 0.956 . S
C702 H715 0.961 . S
C702 H716 0.961 . S
C703 C700 1.539 . S
C703 H717 0.958 . S
C703 H718 0.961 . S
C703 H719 0.960 . S
H704 C688 0.931 . S
H705 C693 0.929 . S
H706 C694 0.960 . S
H707 C694 0.962 1_556 S
H708 C694 0.960 . S
H709 C695 0.961 . S
H710 C695 0.961 . S
H711 C695 0.961 . S
H712 C696 0.931 . S
H713 C701 0.930 . S
H714 C702 0.956 . S
H715 C702 0.961 . S
H716 C702 0.961 . S
H717 C703 0.958 . S
H718 C703 0.961 . S
H719 C703 0.960 . S
C720 C721 1.391 . S
C720 C722 1.394 . S
C720 H736 0.931 . S
C721 C720 1.391 . S
C721 C725 1.376 . S
C722 C720 1.394 . S
C722 C723 1.369 . S
C722 C726 1.531 . S
C723 C722 1.369 . S
C723 C724 1.410 . S
C723 C731 1.503 . S
C724 C723 1.410 . S
C724 C725 1.392 . S
C724 C727 1.511 . S
C725 C721 1.376 . S
C725 C724 1.392 . S
C725 H737 0.929 . S
C726 C722 1.531 . S
C726 H738 0.960 . S
C726 H739 0.962 1_554 S
C726 H740 0.960 . S
C727 C724 1.511 . S
C727 H741 0.961 . S
C727 H742 0.961 . S
C727 H743 0.961 . S
C728 C729 1.370 1_556 S
C728 C730 1.363 . S
C728 H744 0.931 . S
C729 C728 1.370 1_554 S
C729 C733 1.408 . S
C730 C728 1.363 . S
C730 C731 1.370 1_556 S
C730 C734 1.524 . S
C731 C723 1.503 . S
C731 C730 1.370 1_554 S
C731 C732 1.403 . S
C732 C731 1.403 . S
C732 C733 1.404 . S
C732 C735 1.539 . S
C733 C729 1.408 . S
C733 C732 1.404 . S
C733 H745 0.930 . S
C734 C730 1.524 . S
C734 H746 0.956 . S
C734 H747 0.961 . S
C734 H748 0.961 . S
C735 C732 1.539 . S
C735 H749 0.958 . S
C735 H750 0.961 . S
C735 H751 0.960 . S
H736 C720 0.931 . S
H737 C725 0.929 . S
H738 C726 0.960 . S
H739 C726 0.962 1_556 S
H740 C726 0.960 . S
H741 C727 0.961 . S
H742 C727 0.961 . S
H743 C727 0.961 . S
H744 C728 0.931 . S
H745 C733 0.930 . S
H746 C734 0.956 . S
H747 C734 0.961 . S
H748 C734 0.961 . S
H749 C735 0.958 . S
H750 C735 0.961 . S
H751 C735 0.960 . S
C752 C753 1.391 . S
C752 C754 1.394 . S
C752 H768 0.931 . S
C753 C752 1.391 . S
C753 C757 1.376 . S
C754 C752 1.394 . S
C754 C755 1.369 . S
C754 C758 1.531 . S
C755 C754 1.369 . S
C755 C756 1.410 . S
C755 C763 1.503 . S
C756 C755 1.410 . S
C756 C757 1.392 . S
C756 C759 1.511 . S
C757 C753 1.376 . S
C757 C756 1.392 . S
C757 H769 0.929 . S
C758 C754 1.531 . S
C758 H770 0.960 . S
C758 H771 0.962 . S
C758 H772 0.960 . S
C759 C756 1.511 . S
C759 H773 0.961 1_554 S
C759 H774 0.961 1_554 S
C759 H775 0.961 . S
C760 C761 1.370 1_556 S
C760 C762 1.363 . S
C760 H776 0.931 . S
C761 C760 1.370 1_554 S
C761 C765 1.408 . S
C762 C760 1.363 . S
C762 C763 1.370 1_556 S
C762 C766 1.524 . S
C763 C755 1.503 . S
C763 C762 1.370 1_554 S
C763 C764 1.403 . S
C764 C763 1.403 . S
C764 C765 1.404 . S
C764 C767 1.539 . S
C765 C761 1.408 . S
C765 C764 1.404 . S
C765 H777 0.930 . S
C766 C762 1.524 . S
C766 H778 0.956 . S
C766 H779 0.961 . S
C766 H780 0.961 . S
C767 C764 1.539 . S
C767 H781 0.958 . S
C767 H782 0.961 . S
C767 H783 0.960 . S
H768 C752 0.931 . S
H769 C757 0.929 . S
H770 C758 0.960 . S
H771 C758 0.962 . S
H772 C758 0.960 . S
H773 C759 0.961 1_556 S
H774 C759 0.961 1_556 S
H775 C759 0.961 . S
H776 C760 0.931 . S
H777 C765 0.930 . S
H778 C766 0.956 . S
H779 C766 0.961 . S
H780 C766 0.961 . S
H781 C767 0.958 . S
H782 C767 0.961 . S
H783 C767 0.960 . S
C784 C785 1.391 1_556 S
C784 C786 1.394 . S
C784 H800 0.931 . S
C785 C784 1.391 1_554 S
C785 C789 1.376 . S
C786 C784 1.394 . S
C786 C787 1.369 1_556 S
C786 C790 1.531 . S
C787 C786 1.369 1_554 S
C787 C788 1.410 . S
C787 C795 1.503 . S
C788 C787 1.410 . S
C788 C789 1.392 . S
C788 C791 1.511 . S
C789 C785 1.376 . S
C789 C788 1.392 . S
C789 H801 0.929 . S
C790 C786 1.531 . S
C790 H802 0.960 . S
C790 H803 0.962 . S
C790 H804 0.960 . S
C791 C788 1.511 . S
C791 H805 0.961 . S
C791 H806 0.961 . S
C791 H807 0.961 . S
C792 C793 1.370 . S
C792 C794 1.363 . S
C792 H808 0.931 1_554 S
C793 C792 1.370 . S
C793 C797 1.408 . S
C794 C792 1.363 . S
C794 C795 1.370 . S
C794 C798 1.524 . S
C795 C787 1.503 . S
C795 C794 1.370 . S
C795 C796 1.403 . S
C796 C795 1.403 . S
C796 C797 1.404 . S
C796 C799 1.539 . S
C797 C793 1.408 . S
C797 C796 1.404 . S
C797 H809 0.930 . S
C798 C794 1.524 . S
C798 H810 0.956 1_554 S
C798 H811 0.961 . S
C798 H812 0.964 . S
C799 C796 1.539 . S
C799 H813 0.958 . S
C799 H814 0.961 . S
C799 H815 0.960 . S
H800 C784 0.931 . S
H801 C789 0.929 . S
H802 C790 0.960 . S
H803 C790 0.962 . S
H804 C790 0.960 . S
H805 C791 0.961 . S
H806 C791 0.961 . S
H807 C791 0.961 . S
H808 C792 0.931 1_556 S
H809 C797 0.930 . S
H810 C798 0.956 1_556 S
H811 C798 0.961 . S
H812 C798 0.964 . S
H813 C799 0.958 . S
H814 C799 0.961 . S
H815 C799 0.960 . S
C816 C817 1.391 . S
C816 C818 1.394 . S
C816 H832 0.931 . S
C817 C816 1.391 . S
C817 C821 1.376 . S
C818 C816 1.394 . S
C818 C819 1.369 . S
C818 C822 1.531 . S
C819 C818 1.369 . S
C819 C820 1.410 . S
C819 C827 1.503 . S
C820 C819 1.410 . S
C820 C821 1.392 . S
C820 C823 1.511 . S
C821 C817 1.376 . S
C821 C820 1.392 . S
C821 H833 0.929 . S
C822 C818 1.531 . S
C822 H834 0.960 . S
C822 H835 0.962 . S
C822 H836 0.960 . S
C823 C820 1.511 . S
C823 H837 0.961 . S
C823 H838 0.961 . S
C823 H839 0.961 . S
C824 C825 1.370 . S
C824 C826 1.363 . S
C824 H840 0.931 . S
C825 C824 1.370 . S
C825 C829 1.408 . S
C826 C824 1.363 . S
C826 C827 1.370 . S
C826 C830 1.524 . S
C827 C819 1.503 . S
C827 C826 1.370 . S
C827 C828 1.403 . S
C828 C827 1.403 . S
C828 C829 1.404 . S
C828 C831 1.539 . S
C829 C825 1.408 . S
C829 C828 1.404 . S
C829 H841 0.930 . S
C830 C826 1.524 . S
C830 H842 0.956 . S
C830 H843 0.961 . S
C830 H844 0.961 . S
C831 C828 1.539 . S
C831 H845 0.958 . S
C831 H846 0.961 . S
C831 H847 0.960 . S
H832 C816 0.931 . S
H833 C821 0.929 . S
H834 C822 0.960 . S
H835 C822 0.962 . S
H836 C822 0.960 . S
H837 C823 0.961 . S
H838 C823 0.961 . S
H839 C823 0.961 . S
H840 C824 0.931 . S
H841 C829 0.930 . S
H842 C830 0.956 . S
H843 C830 0.961 . S
H844 C830 0.961 . S
H845 C831 0.958 . S
H846 C831 0.961 . S
H847 C831 0.960 . S
C848 C849 1.391 . S
C848 C850 1.394 . S
C848 H864 0.931 . S
C849 C848 1.391 . S
C849 C853 1.376 . S
C850 C848 1.394 . S
C850 C851 1.369 . S
C850 C854 1.531 . S
C851 C850 1.369 . S
C851 C852 1.410 . S
C851 C859 1.503 . S
C852 C851 1.410 . S
C852 C853 1.392 . S
C852 C855 1.511 . S
C853 C849 1.376 . S
C853 C852 1.392 . S
C853 H865 0.929 . S
C854 C850 1.531 . S
C854 H866 0.960 . S
C854 H867 0.962 . S
C854 H868 0.960 . S
C855 C852 1.511 . S
C855 H869 0.961 . S
C855 H870 0.961 . S
C855 H871 0.961 . S
C856 C857 1.370 . S
C856 C858 1.363 . S
C856 H872 0.931 . S
C857 C856 1.370 . S
C857 C861 1.408 . S
C858 C856 1.363 . S
C858 C859 1.370 . S
C858 C862 1.524 . S
C859 C851 1.503 . S
C859 C858 1.370 . S
C859 C860 1.403 . S
C860 C859 1.403 . S
C860 C861 1.404 . S
C860 C863 1.539 . S
C861 C857 1.408 . S
C861 C860 1.404 . S
C861 H873 0.930 . S
C862 C858 1.524 . S
C862 H874 0.956 . S
C862 H875 0.961 . S
C862 H876 0.961 . S
C863 C860 1.539 . S
C863 H877 0.958 . S
C863 H878 0.961 . S
C863 H879 0.960 . S
H864 C848 0.931 . S
H865 C853 0.929 . S
H866 C854 0.960 . S
H867 C854 0.962 . S
H868 C854 0.960 . S
H869 C855 0.961 . S
H870 C855 0.961 . S
H871 C855 0.961 . S
H872 C856 0.931 . S
H873 C861 0.930 . S
H874 C862 0.956 . S
H875 C862 0.961 . S
H876 C862 0.961 . S
H877 C863 0.958 . S
H878 C863 0.961 . S
H879 C863 0.960 . S
C880 C881 1.391 . S
C880 C882 1.394 . S
C880 H896 0.931 . S
C881 C880 1.391 . S
C881 C885 1.376 . S
C882 C880 1.394 . S
C882 C883 1.369 . S
C882 C886 1.531 . S
C883 C882 1.369 . S
C883 C884 1.410 . S
C883 C891 1.503 . S
C884 C883 1.410 . S
C884 C885 1.392 . S
C884 C887 1.511 . S
C885 C881 1.376 . S
C885 C884 1.392 . S
C885 H897 0.929 . S
C886 C882 1.531 . S
C886 H898 0.960 . S
C886 H899 0.962 . S
C886 H900 0.960 . S
C887 C884 1.511 . S
C887 H901 0.961 . S
C887 H902 0.961 . S
C887 H903 0.961 . S
C888 C889 1.370 . S
C888 C890 1.363 . S
C888 H904 0.931 . S
C889 C888 1.370 . S
C889 C893 1.408 . S
C890 C888 1.363 . S
C890 C891 1.370 . S
C890 C894 1.524 . S
C891 C883 1.503 . S
C891 C890 1.370 . S
C891 C892 1.403 . S
C892 C891 1.403 . S
C892 C893 1.404 . S
C892 C895 1.539 . S
C893 C889 1.408 . S
C893 C892 1.404 . S
C893 H905 0.930 . S
C894 C890 1.524 . S
C894 H906 0.956 . S
C894 H907 0.961 . S
C894 H908 0.961 . S
C895 C892 1.539 . S
C895 H909 0.958 . S
C895 H910 0.961 . S
C895 H911 0.960 . S
H896 C880 0.931 . S
H897 C885 0.929 . S
H898 C886 0.960 . S
H899 C886 0.962 . S
H900 C886 0.960 . S
H901 C887 0.961 . S
H902 C887 0.961 . S
H903 C887 0.961 . S
H904 C888 0.931 . S
H905 C893 0.930 . S
H906 C894 0.956 . S
H907 C894 0.961 . S
H908 C894 0.961 . S
H909 C895 0.958 . S
H910 C895 0.961 . S
H911 C895 0.960 . S
C912 C913 1.391 . S
C912 C914 1.394 . S
C912 H928 0.931 . S
C913 C912 1.391 . S
C913 C917 1.376 . S
C914 C912 1.394 . S
C914 C915 1.369 . S
C914 C918 1.531 . S
C915 C914 1.369 . S
C915 C916 1.410 . S
C915 C923 1.503 . S
C916 C915 1.410 . S
C916 C917 1.392 . S
C916 C919 1.511 . S
C917 C913 1.376 . S
C917 C916 1.392 . S
C917 H929 0.929 . S
C918 C914 1.531 . S
C918 H930 0.960 . S
C918 H931 0.962 . S
C918 H932 0.960 . S
C919 C916 1.511 . S
C919 H933 0.961 . S
C919 H934 0.961 . S
C919 H935 0.961 . S
C920 C921 1.370 . S
C920 C922 1.363 . S
C920 H936 0.931 . S
C921 C920 1.370 . S
C921 C925 1.408 . S
C922 C920 1.363 . S
C922 C923 1.370 . S
C922 C926 1.524 . S
C923 C915 1.503 . S
C923 C922 1.370 . S
C923 C924 1.403 . S
C924 C923 1.403 . S
C924 C925 1.404 . S
C924 C927 1.539 . S
C925 C921 1.408 . S
C925 C924 1.404 . S
C925 H937 0.930 . S
C926 C922 1.524 . S
C926 H938 0.956 . S
C926 H939 0.961 . S
C926 H940 0.961 . S
C927 C924 1.539 . S
C927 H941 0.958 . S
C927 H942 0.961 . S
C927 H943 0.960 . S
H928 C912 0.931 . S
H929 C917 0.929 . S
H930 C918 0.960 . S
H931 C918 0.962 . S
H932 C918 0.960 . S
H933 C919 0.961 . S
H934 C919 0.961 . S
H935 C919 0.961 . S
H936 C920 0.931 . S
H937 C925 0.930 . S
H938 C926 0.956 . S
H939 C926 0.961 . S
H940 C926 0.961 . S
H941 C927 0.958 . S
H942 C927 0.961 . S
H943 C927 0.960 . S
C944 C945 1.391 . S
C944 C946 1.394 . S
C944 H960 0.931 . S
C945 C944 1.391 . S
C945 C949 1.376 . S
C946 C944 1.394 . S
C946 C947 1.369 . S
C946 C950 1.531 . S
C947 C946 1.369 . S
C947 C948 1.410 . S
C947 C955 1.503 . S
C948 C947 1.410 . S
C948 C949 1.392 . S
C948 C951 1.511 . S
C949 C945 1.376 . S
C949 C948 1.392 . S
C949 H961 0.929 . S
C950 C946 1.531 . S
C950 H962 0.960 . S
C950 H963 0.962 . S
C950 H964 0.960 . S
C951 C948 1.511 . S
C951 H965 0.961 . S
C951 H966 0.961 . S
C951 H967 0.961 . S
C952 C953 1.370 . S
C952 C954 1.363 . S
C952 H968 0.931 . S
C953 C952 1.370 . S
C953 C957 1.408 . S
C954 C952 1.363 . S
C954 C955 1.370 . S
C954 C958 1.524 . S
C955 C947 1.503 . S
C955 C954 1.370 . S
C955 C956 1.403 . S
C956 C955 1.403 . S
C956 C957 1.404 . S
C956 C959 1.539 . S
C957 C953 1.408 . S
C957 C956 1.404 . S
C957 H969 0.930 . S
C958 C954 1.524 . S
C958 H970 0.956 . S
C958 H971 0.961 . S
C958 H972 0.961 . S
C959 C956 1.539 . S
C959 H973 0.958 . S
C959 H974 0.961 . S
C959 H975 0.960 . S
H960 C944 0.931 . S
H961 C949 0.929 . S
H962 C950 0.960 . S
H963 C950 0.962 . S
H964 C950 0.960 . S
H965 C951 0.961 . S
H966 C951 0.961 . S
H967 C951 0.961 . S
H968 C952 0.931 . S
H969 C957 0.930 . S
H970 C958 0.956 . S
H971 C958 0.961 . S
H972 C958 0.961 . S
H973 C959 0.958 . S
H974 C959 0.961 . S
H975 C959 0.960 . S
C976 C977 1.391 . S
C976 C978 1.394 . S
C976 H992 0.931 . S
C977 C976 1.391 . S
C977 C981 1.376 . S
C978 C976 1.394 . S
C978 C979 1.369 . S
C978 C982 1.531 . S
C979 C978 1.369 . S
C979 C980 1.410 . S
C979 C987 1.503 . S
C980 C979 1.410 . S
C980 C981 1.392 . S
C980 C983 1.511 . S
C981 C977 1.376 . S
C981 C980 1.392 . S
C981 H993 0.929 . S
C982 C978 1.531 . S
C982 H994 0.960 . S
C982 H995 0.962 . S
C982 H996 0.960 . S
C983 C980 1.511 . S
C983 H997 0.961 . S
C983 H998 0.961 . S
C983 H999 0.961 . S
C984 C985 1.370 . S
C984 C986 1.363 . S
C984 H1000 0.931 . S
C985 C984 1.370 . S
C985 C989 1.408 . S
C986 C984 1.363 . S
C986 C987 1.370 . S
C986 C990 1.524 . S
C987 C979 1.503 . S
C987 C986 1.370 . S
C987 C988 1.403 . S
C988 C987 1.403 . S
C988 C989 1.404 . S
C988 C991 1.539 . S
C989 C985 1.408 . S
C989 C988 1.404 . S
C989 H1001 0.930 . S
C990 C986 1.524 . S
C990 H1002 0.956 . S
C990 H1003 0.961 . S
C990 H1004 0.961 . S
C991 C988 1.539 . S
C991 H1005 0.958 . S
C991 H1006 0.961 . S
C991 H1007 0.960 . S
H992 C976 0.931 . S
H993 C981 0.929 . S
H994 C982 0.960 . S
H995 C982 0.962 . S
H996 C982 0.960 . S
H997 C983 0.961 . S
H998 C983 0.961 . S
H999 C983 0.961 . S
H1000 C984 0.931 . S
H1001 C989 0.930 . S
H1002 C990 0.956 . S
H1003 C990 0.961 . S
H1004 C990 0.961 . S
H1005 C991 0.958 . S
H1006 C991 0.961 . S
H1007 C991 0.960 . S
C1008 C1009 1.391 . S
C1008 C1010 1.394 . S
C1008 H1024 0.931 . S
C1009 C1008 1.391 . S
C1009 C1013 1.376 . S
C1010 C1008 1.394 . S
C1010 C1011 1.369 . S
C1010 C1014 1.531 . S
C1011 C1010 1.369 . S
C1011 C1012 1.410 . S
C1011 C1019 1.503 . S
C1012 C1011 1.410 . S
C1012 C1013 1.392 . S
C1012 C1015 1.511 . S
C1013 C1009 1.376 . S
C1013 C1012 1.392 . S
C1013 H1025 0.929 . S
C1014 C1010 1.531 . S
C1014 H1026 0.960 . S
C1014 H1027 0.962 . S
C1014 H1028 0.960 . S
C1015 C1012 1.511 . S
C1015 H1029 0.961 . S
C1015 H1030 0.961 . S
C1015 H1031 0.961 . S
C1016 C1017 1.370 . S
C1016 C1018 1.363 . S
C1016 H1032 0.931 . S
C1017 C1016 1.370 . S
C1017 C1021 1.408 . S
C1018 C1016 1.363 . S
C1018 C1019 1.370 . S
C1018 C1022 1.524 . S
C1019 C1011 1.503 . S
C1019 C1018 1.370 . S
C1019 C1020 1.403 . S
C1020 C1019 1.403 . S
C1020 C1021 1.404 . S
C1020 C1023 1.539 . S
C1021 C1017 1.408 . S
C1021 C1020 1.404 . S
C1021 H1033 0.930 . S
C1022 C1018 1.524 . S
C1022 H1034 0.956 . S
C1022 H1035 0.961 . S
C1022 H1036 0.961 . S
C1023 C1020 1.539 . S
C1023 H1037 0.958 . S
C1023 H1038 0.961 . S
C1023 H1039 0.960 . S
H1024 C1008 0.931 . S
H1025 C1013 0.929 . S
H1026 C1014 0.960 . S
H1027 C1014 0.962 . S
H1028 C1014 0.960 . S
H1029 C1015 0.961 . S
H1030 C1015 0.961 . S
H1031 C1015 0.961 . S
H1032 C1016 0.931 . S
H1033 C1021 0.930 . S
H1034 C1022 0.956 . S
H1035 C1022 0.961 . S
H1036 C1022 0.961 . S
H1037 C1023 0.958 . S
H1038 C1023 0.961 . S
H1039 C1023 0.960 . S
C1040 C1041 1.391 . S
C1040 C1042 1.394 . S
C1040 H1056 0.931 . S
C1041 C1040 1.391 . S
C1041 C1045 1.376 . S
C1042 C1040 1.394 . S
C1042 C1043 1.369 . S
C1042 C1046 1.531 . S
C1043 C1042 1.369 . S
C1043 C1044 1.410 . S
C1043 C1051 1.503 . S
C1044 C1043 1.410 . S
C1044 C1045 1.392 . S
C1044 C1047 1.511 . S
C1045 C1041 1.376 . S
C1045 C1044 1.392 . S
C1045 H1057 0.929 . S
C1046 C1042 1.531 . S
C1046 H1058 0.960 . S
C1046 H1059 0.962 . S
C1046 H1060 0.960 . S
C1047 C1044 1.511 . S
C1047 H1061 0.961 . S
C1047 H1062 0.961 . S
C1047 H1063 0.961 . S
C1048 C1049 1.370 . S
C1048 C1050 1.363 . S
C1048 H1064 0.931 . S
C1049 C1048 1.370 . S
C1049 C1053 1.408 . S
C1050 C1048 1.363 . S
C1050 C1051 1.370 . S
C1050 C1054 1.524 . S
C1051 C1043 1.503 . S
C1051 C1050 1.370 . S
C1051 C1052 1.403 . S
C1052 C1051 1.403 . S
C1052 C1053 1.404 . S
C1052 C1055 1.539 . S
C1053 C1049 1.408 . S
C1053 C1052 1.404 . S
C1053 H1065 0.930 . S
C1054 C1050 1.524 . S
C1054 H1066 0.956 . S
C1054 H1067 0.961 . S
C1054 H1068 0.961 . S
C1055 C1052 1.539 . S
C1055 H1069 0.958 . S
C1055 H1070 0.961 . S
C1055 H1071 0.960 . S
H1056 C1040 0.931 . S
H1057 C1045 0.929 . S
H1058 C1046 0.960 . S
H1059 C1046 0.962 . S
H1060 C1046 0.960 . S
H1061 C1047 0.961 . S
H1062 C1047 0.961 . S
H1063 C1047 0.961 . S
H1064 C1048 0.931 . S
H1065 C1053 0.930 . S
H1066 C1054 0.956 . S
H1067 C1054 0.961 . S
H1068 C1054 0.961 . S
H1069 C1055 0.958 . S
H1070 C1055 0.961 . S
H1071 C1055 0.960 . S
C1072 C1073 1.391 . S
C1072 C1074 1.394 . S
C1072 H1088 0.931 . S
C1073 C1072 1.391 . S
C1073 C1077 1.376 . S
C1074 C1072 1.394 . S
C1074 C1075 1.369 . S
C1074 C1078 1.531 . S
C1075 C1074 1.369 . S
C1075 C1076 1.410 . S
C1075 C1083 1.503 . S
C1076 C1075 1.410 . S
C1076 C1077 1.392 . S
C1076 C1079 1.511 . S
C1077 C1073 1.376 . S
C1077 C1076 1.392 . S
C1077 H1089 0.929 . S
C1078 C1074 1.531 . S
C1078 H1090 0.960 . S
C1078 H1091 0.962 . S
C1078 H1092 0.960 . S
C1079 C1076 1.511 . S
C1079 H1093 0.961 . S
C1079 H1094 0.961 . S
C1079 H1095 0.961 . S
C1080 C1081 1.370 . S
C1080 C1082 1.363 . S
C1080 H1096 0.931 . S
C1081 C1080 1.370 . S
C1081 C1085 1.408 . S
C1082 C1080 1.363 . S
C1082 C1083 1.370 . S
C1082 C1086 1.524 . S
C1083 C1075 1.503 . S
C1083 C1082 1.370 . S
C1083 C1084 1.403 . S
C1084 C1083 1.403 . S
C1084 C1085 1.404 . S
C1084 C1087 1.539 . S
C1085 C1081 1.408 . S
C1085 C1084 1.404 . S
C1085 H1097 0.930 . S
C1086 C1082 1.524 . S
C1086 H1098 0.956 . S
C1086 H1099 0.961 . S
C1086 H1100 0.961 . S
C1087 C1084 1.539 . S
C1087 H1101 0.958 . S
C1087 H1102 0.961 . S
C1087 H1103 0.960 . S
H1088 C1072 0.931 . S
H1089 C1077 0.929 . S
H1090 C1078 0.960 . S
H1091 C1078 0.962 . S
H1092 C1078 0.960 . S
H1093 C1079 0.961 . S
H1094 C1079 0.961 . S
H1095 C1079 0.961 . S
H1096 C1080 0.931 . S
H1097 C1085 0.930 . S
H1098 C1086 0.956 . S
H1099 C1086 0.961 . S
H1100 C1086 0.961 . S
H1101 C1087 0.958 . S
H1102 C1087 0.961 . S
H1103 C1087 0.960 . S
C1104 C1105 1.391 . S
C1104 C1106 1.394 . S
C1104 H1120 0.931 . S
C1105 C1104 1.391 . S
C1105 C1109 1.376 . S
C1106 C1104 1.394 . S
C1106 C1107 1.369 . S
C1106 C1110 1.531 . S
C1107 C1106 1.369 . S
C1107 C1108 1.410 . S
C1107 C1115 1.503 . S
C1108 C1107 1.410 . S
C1108 C1109 1.392 . S
C1108 C1111 1.511 . S
C1109 C1105 1.376 . S
C1109 C1108 1.392 . S
C1109 H1121 0.929 . S
C1110 C1106 1.531 . S
C1110 H1122 0.960 . S
C1110 H1123 0.962 . S
C1110 H1124 0.960 . S
C1111 C1108 1.511 . S
C1111 H1125 0.961 . S
C1111 H1126 0.961 . S
C1111 H1127 0.961 . S
C1112 C1113 1.370 . S
C1112 C1114 1.363 . S
C1112 H1128 0.931 . S
C1113 C1112 1.370 . S
C1113 C1117 1.408 . S
C1114 C1112 1.363 . S
C1114 C1115 1.370 . S
C1114 C1118 1.524 . S
C1115 C1107 1.503 . S
C1115 C1114 1.370 . S
C1115 C1116 1.403 . S
C1116 C1115 1.403 . S
C1116 C1117 1.404 . S
C1116 C1119 1.539 . S
C1117 C1113 1.408 . S
C1117 C1116 1.404 . S
C1117 H1129 0.930 . S
C1118 C1114 1.524 . S
C1118 H1130 0.956 . S
C1118 H1131 0.961 . S
C1118 H1132 0.961 . S
C1119 C1116 1.539 . S
C1119 H1133 0.958 . S
C1119 H1134 0.961 . S
C1119 H1135 0.960 . S
H1120 C1104 0.931 . S
H1121 C1109 0.929 . S
H1122 C1110 0.960 . S
H1123 C1110 0.962 . S
H1124 C1110 0.960 . S
H1125 C1111 0.961 . S
H1126 C1111 0.961 . S
H1127 C1111 0.961 . S
H1128 C1112 0.931 . S
H1129 C1117 0.930 . S
H1130 C1118 0.956 . S
H1131 C1118 0.961 . S
H1132 C1118 0.961 . S
H1133 C1119 0.958 . S
H1134 C1119 0.961 . S
H1135 C1119 0.960 . S
C1136 C1137 1.391 . S
C1136 C1138 1.394 . S
C1136 H1152 0.931 . S
C1137 C1136 1.391 . S
C1137 C1141 1.376 . S
C1138 C1136 1.394 . S
C1138 C1139 1.369 . S
C1138 C1142 1.531 . S
C1139 C1138 1.369 . S
C1139 C1140 1.410 . S
C1139 C1147 1.503 . S
C1140 C1139 1.410 . S
C1140 C1141 1.392 . S
C1140 C1143 1.511 . S
C1141 C1137 1.376 . S
C1141 C1140 1.392 . S
C1141 H1153 0.929 . S
C1142 C1138 1.531 . S
C1142 H1154 0.960 . S
C1142 H1155 0.962 . S
C1142 H1156 0.960 . S
C1143 C1140 1.511 . S
C1143 H1157 0.961 . S
C1143 H1158 0.961 . S
C1143 H1159 0.961 . S
C1144 C1145 1.370 . S
C1144 C1146 1.363 . S
C1144 H1160 0.931 . S
C1145 C1144 1.370 . S
C1145 C1149 1.408 . S
C1146 C1144 1.363 . S
C1146 C1147 1.370 . S
C1146 C1150 1.524 . S
C1147 C1139 1.503 . S
C1147 C1146 1.370 . S
C1147 C1148 1.403 . S
C1148 C1147 1.403 . S
C1148 C1149 1.404 . S
C1148 C1151 1.539 . S
C1149 C1145 1.408 . S
C1149 C1148 1.404 . S
C1149 H1161 0.930 . S
C1150 C1146 1.524 . S
C1150 H1162 0.956 . S
C1150 H1163 0.961 . S
C1150 H1164 0.961 . S
C1151 C1148 1.539 . S
C1151 H1165 0.958 . S
C1151 H1166 0.961 . S
C1151 H1167 0.960 . S
H1152 C1136 0.931 . S
H1153 C1141 0.929 . S
H1154 C1142 0.960 . S
H1155 C1142 0.962 . S
H1156 C1142 0.960 . S
H1157 C1143 0.961 . S
H1158 C1143 0.961 . S
H1159 C1143 0.961 . S
H1160 C1144 0.931 . S
H1161 C1149 0.930 . S
H1162 C1150 0.956 . S
H1163 C1150 0.961 . S
H1164 C1150 0.961 . S
H1165 C1151 0.958 . S
H1166 C1151 0.961 . S
H1167 C1151 0.960 . S
C1168 C1169 1.391 . S
C1168 C1170 1.394 . S
C1168 H1184 0.931 . S
C1169 C1168 1.391 . S
C1169 C1173 1.376 . S
C1170 C1168 1.394 . S
C1170 C1171 1.369 . S
C1170 C1174 1.531 . S
C1171 C1170 1.369 . S
C1171 C1172 1.410 . S
C1171 C1179 1.503 . S
C1172 C1171 1.410 . S
C1172 C1173 1.392 . S
C1172 C1175 1.511 . S
C1173 C1169 1.376 . S
C1173 C1172 1.392 . S
C1173 H1185 0.929 . S
C1174 C1170 1.531 . S
C1174 H1186 0.960 . S
C1174 H1187 0.962 . S
C1174 H1188 0.960 . S
C1175 C1172 1.511 . S
C1175 H1189 0.961 . S
C1175 H1190 0.961 . S
C1175 H1191 0.961 . S
C1176 C1177 1.370 . S
C1176 C1178 1.363 . S
C1176 H1192 0.931 . S
C1177 C1176 1.370 . S
C1177 C1181 1.408 . S
C1178 C1176 1.363 . S
C1178 C1179 1.370 . S
C1178 C1182 1.524 . S
C1179 C1171 1.503 . S
C1179 C1178 1.370 . S
C1179 C1180 1.403 . S
C1180 C1179 1.403 . S
C1180 C1181 1.404 . S
C1180 C1183 1.539 . S
C1181 C1177 1.408 . S
C1181 C1180 1.404 . S
C1181 H1193 0.930 . S
C1182 C1178 1.524 . S
C1182 H1194 0.956 . S
C1182 H1195 0.961 . S
C1182 H1196 0.961 . S
C1183 C1180 1.539 . S
C1183 H1197 0.958 . S
C1183 H1198 0.961 . S
C1183 H1199 0.960 . S
H1184 C1168 0.931 . S
H1185 C1173 0.929 . S
H1186 C1174 0.960 . S
H1187 C1174 0.962 . S
H1188 C1174 0.960 . S
H1189 C1175 0.961 . S
H1190 C1175 0.961 . S
H1191 C1175 0.961 . S
H1192 C1176 0.931 . S
H1193 C1181 0.930 . S
H1194 C1182 0.956 . S
H1195 C1182 0.961 . S
H1196 C1182 0.961 . S
H1197 C1183 0.958 . S
H1198 C1183 0.961 . S
H1199 C1183 0.960 . S
C433 C14 1.438 . S
C441 C184 1.526 . S
C465 C40 1.258 . S
C473 C148 1.262 . S
C497 C194 1.374 . S
C505 C86 1.362 . S
C529 C112 1.386 . S
C537 C158 1.280 . S
C561 C255 1.343 . S
C569 C76 1.368 . S
C593 C218 1.576 . S
C601 C122 1.475 . S
C625 C4 1.334 . S
C633 C254 1.338 . S
C657 C219 1.431 . S
C665 C50 1.364 . S
C689 C327 1.389 . S
C697 C291 1.419 . S
C721 C290 1.329 . S
C729 C398 1.326 . S
C753 C326 1.384 . S
C761 C362 1.392 . S
C785 C363 1.505 . S
C793 C399 1.505 . S
C817 C410 1.381 . S
C825 C220 1.520 . S
C849 C292 1.261 . S
C857 C256 1.259 . S
C881 C230 1.348 . S
C889 C338 1.367 . S
C913 C266 1.253 . S
C921 C364 1.393 . S
C945 C147 1.340 . S
C953 C328 1.367 . S
C977 C182 1.554 . S
C985 C374 1.466 . S
C1009 C400 1.332 . S
C1017 C146 1.337 . S
C1041 C302 1.397 . S
C1049 C183 1.440 . S
C1073 C39 1.393 . S
C1081 C75 1.417 . S
C1105 C2 1.312 . S
C1113 C38 1.322 . S
C1137 C74 1.395 . S
C1145 C110 1.390 . S
C1169 C3 1.518 . S
C1177 C111 1.499 . S
