# Generated by pormake.
# Topology unb, (4)-cn, num edge types: 1
# Building blocks:
#     Node 0, Type 0, BuildingBlock: UXUYUI_clean_sbu_0, # of connection points: 4
#     Node 1, Type 0, BuildingBlock: UXUYUI_clean_sbu_0, # of connection points: 4
#     Node 2, Type 0, BuildingBlock: UXUYUI_clean_sbu_0, # of connection points: 4
#     Node 3, Type 0, BuildingBlock: UXUYUI_clean_sbu_0, # of connection points: 4
#     Node 4, Type 0, BuildingBlock: UXUYUI_clean_sbu_0, # of connection points: 4
#     Node 5, Type 0, BuildingBlock: UXUYUI_clean_sbu_0, # of connection points: 4
#     Node 6, Type 0, BuildingBlock: UXUYUI_clean_sbu_0, # of connection points: 4
#     Node 7, Type 0, BuildingBlock: UXUYUI_clean_sbu_0, # of connection points: 4
#     Node 8, Type 0, BuildingBlock: UXUYUI_clean_sbu_0, # of connection points: 4
#     Node 9, Type 0, BuildingBlock: UXUYUI_clean_sbu_0, # of connection points: 4
#     Node 10, Type 0, BuildingBlock: UXUYUI_clean_sbu_0, # of connection points: 4
#     Node 11, Type 0, BuildingBlock: UXUYUI_clean_sbu_0, # of connection points: 4
#     Node 12, Type 0, BuildingBlock: UXUYUI_clean_sbu_0, # of connection points: 4
#     Node 13, Type 0, BuildingBlock: UXUYUI_clean_sbu_0, # of connection points: 4
#     Node 14, Type 0, BuildingBlock: UXUYUI_clean_sbu_0, # of connection points: 4
#     Node 15, Type 0, BuildingBlock: UXUYUI_clean_sbu_0, # of connection points: 4
#     Node 16, Type 0, BuildingBlock: UXUYUI_clean_sbu_0, # of connection points: 4
#     Node 17, Type 0, BuildingBlock: UXUYUI_clean_sbu_0, # of connection points: 4
#     Edge 18, Type (0, 0), BuildingBlock: XIVTED_clean_linker_0, # of connection points: 2
#     Edge 19, Type (0, 0), BuildingBlock: XIVTED_clean_linker_0, # of connection points: 2
#     Edge 20, Type (0, 0), BuildingBlock: XIVTED_clean_linker_0, # of connection points: 2
#     Edge 21, Type (0, 0), BuildingBlock: XIVTED_clean_linker_0, # of connection points: 2
#     Edge 22, Type (0, 0), BuildingBlock: XIVTED_clean_linker_0, # of connection points: 2
#     Edge 23, Type (0, 0), BuildingBlock: XIVTED_clean_linker_0, # of connection points: 2
#     Edge 24, Type (0, 0), BuildingBlock: XIVTED_clean_linker_0, # of connection points: 2
#     Edge 25, Type (0, 0), BuildingBlock: XIVTED_clean_linker_0, # of connection points: 2
#     Edge 26, Type (0, 0), BuildingBlock: XIVTED_clean_linker_0, # of connection points: 2
#     Edge 27, Type (0, 0), BuildingBlock: XIVTED_clean_linker_0, # of connection points: 2
#     Edge 28, Type (0, 0), BuildingBlock: XIVTED_clean_linker_0, # of connection points: 2
#     Edge 29, Type (0, 0), BuildingBlock: XIVTED_clean_linker_0, # of connection points: 2
#     Edge 30, Type (0, 0), BuildingBlock: XIVTED_clean_linker_0, # of connection points: 2
#     Edge 31, Type (0, 0), BuildingBlock: XIVTED_clean_linker_0, # of connection points: 2
#     Edge 32, Type (0, 0), BuildingBlock: XIVTED_clean_linker_0, # of connection points: 2
#     Edge 33, Type (0, 0), BuildingBlock: XIVTED_clean_linker_0, # of connection points: 2
#     Edge 34, Type (0, 0), BuildingBlock: XIVTED_clean_linker_0, # of connection points: 2
#     Edge 35, Type (0, 0), BuildingBlock: XIVTED_clean_linker_0, # of connection points: 2
#     Edge 36, Type (0, 0), BuildingBlock: XIVTED_clean_linker_0, # of connection points: 2
#     Edge 37, Type (0, 0), BuildingBlock: XIVTED_clean_linker_0, # of connection points: 2
#     Edge 38, Type (0, 0), BuildingBlock: XIVTED_clean_linker_0, # of connection points: 2
#     Edge 39, Type (0, 0), BuildingBlock: XIVTED_clean_linker_0, # of connection points: 2
#     Edge 40, Type (0, 0), BuildingBlock: XIVTED_clean_linker_0, # of connection points: 2
#     Edge 41, Type (0, 0), BuildingBlock: XIVTED_clean_linker_0, # of connection points: 2
#     Edge 42, Type (0, 0), BuildingBlock: XIVTED_clean_linker_0, # of connection points: 2
#     Edge 43, Type (0, 0), BuildingBlock: XIVTED_clean_linker_0, # of connection points: 2
#     Edge 44, Type (0, 0), BuildingBlock: XIVTED_clean_linker_0, # of connection points: 2
#     Edge 45, Type (0, 0), BuildingBlock: XIVTED_clean_linker_0, # of connection points: 2
#     Edge 46, Type (0, 0), BuildingBlock: XIVTED_clean_linker_0, # of connection points: 2
#     Edge 47, Type (0, 0), BuildingBlock: XIVTED_clean_linker_0, # of connection points: 2
#     Edge 48, Type (0, 0), BuildingBlock: XIVTED_clean_linker_0, # of connection points: 2
#     Edge 49, Type (0, 0), BuildingBlock: XIVTED_clean_linker_0, # of connection points: 2
#     Edge 50, Type (0, 0), BuildingBlock: XIVTED_clean_linker_0, # of connection points: 2
#     Edge 51, Type (0, 0), BuildingBlock: XIVTED_clean_linker_0, # of connection points: 2
#     Edge 52, Type (0, 0), BuildingBlock: XIVTED_clean_linker_0, # of connection points: 2
#     Edge 53, Type (0, 0), BuildingBlock: XIVTED_clean_linker_0, # of connection points: 2
# Relax obj value: 0.067
# Max RMSD: 0.057
# Mean RMSD: 0.057
data_MOF--net-unb--node1-UXUYUI_clean_sbu_0--edge1-XIVTED_clean_linker_0
_symmetry_space_group_name_H-M    P1
_symmetry_Int_Tables_number       1
_symmetry_cell_setting            triclinic
loop_
_symmetry_equiv_pos_as_xyz
'x, y, z'
_cell_length_a     99.377161
_cell_length_b     99.375273
_cell_length_c     35.113803
_cell_angle_alpha  90.019154
_cell_angle_beta   90.010407
_cell_angle_gamma 119.97678
loop_
_atom_site_label
_atom_site_type_symbol
_atom_site_fract_x
_atom_site_fract_y
_atom_site_fract_z
_atom_type_partial_charge
Li0 Li 0.13845 0.26635 0.1218 0.0
Li1 Li 0.14218 0.24822 0.07881 0.0
Li2 Li 0.14055 0.26967 0.05364 0.0
Li3 Li 0.11724 0.24782 0.07673 0.0
C4 C 0.169 0.28426 0.07815 0.0
N5 N 0.19375 0.31202 0.05343 0.0
C6 C 0.18072 0.2843 0.05608 0.0
C7 C 0.16993 0.29834 0.0879 0.0
C8 C 0.19312 0.29846 0.04377 0.0
C9 C 0.18252 0.31225 0.07509 0.0
C10 C 0.13047 0.23718 0.15299 0.0
C11 C 0.12345 0.21879 0.20441 0.0
N12 N 0.13849 0.22624 0.21633 0.0
C13 C 0.14586 0.24465 0.16571 0.0
C14 C 0.11916 0.22415 0.17244 0.0
C15 C 0.14967 0.23894 0.19781 0.0
C16 C 0.13286 0.27879 0.19028 0.0
N17 N 0.14372 0.27755 0.16941 0.0
C18 C 0.16393 0.29558 0.21058 0.0
C19 C 0.15896 0.28543 0.17951 0.0
C20 C 0.1531 0.29752 0.23229 0.0
C21 C 0.13729 0.28866 0.22206 0.0
H22 H 0.1208 0.27244 0.18163 0.0
H23 H 0.16741 0.28429 0.16256 0.0
C24 C 0.16041 0.23997 0.0368 0.0
N25 N 0.15188 0.23597 0.06935 0.0
C26 C 0.16737 0.23155 0.02444 0.0
C27 C 0.15651 0.21477 0.0791 0.0
C28 C 0.14973 0.22356 0.09044 0.0
C29 C 0.16543 0.21868 0.04553 0.0
H30 H 0.16154 0.24959 0.01994 0.0
H31 H 0.14248 0.22021 0.11552 0.0
C32 C 0.11998 0.27982 0.07542 0.0
N33 N 0.11036 0.29998 0.05008 0.0
C34 C 0.11218 0.27713 0.04067 0.0
C35 C 0.12287 0.29275 0.09732 0.0
C36 C 0.10743 0.28747 0.02834 0.0
C37 C 0.11792 0.3028 0.08401 0.0
C38 C 0.12382 0.23404 0.01692 0.0
C39 C 0.12445 0.23276 0.97741 0.0
C40 C 0.1165 0.22058 0.03918 0.0
C41 C 0.11773 0.21804 0.96078 0.0
C42 C 0.10993 0.20607 0.02147 0.0
N43 N 0.11067 0.20511 0.98296 0.0
C44 C 0.15346 0.28014 0.98213 0.0
C45 C 0.1496 0.29871 0.01534 0.0
C46 C 0.15931 0.28996 0.95068 0.0
N47 N 0.14858 0.28455 0.0134 0.0
C48 C 0.15514 0.3088 0.98432 0.0
C49 C 0.15998 0.3044 0.95143 0.0
H50 H 0.15279 0.26894 0.98166 0.0
H51 H 0.14624 0.30227 0.04095 0.0
C52 C 0.08451 0.22849 0.0943 0.0
N53 N 0.09532 0.23558 0.06647 0.0
C54 C 0.06867 0.21989 0.08496 0.0
C55 C 0.07549 0.22593 0.01867 0.0
C56 C 0.09107 0.23448 0.02926 0.0
C57 C 0.06401 0.21849 0.04661 0.0
H58 H 0.08816 0.22955 0.12371 0.0
H59 H 0.09981 0.24036 0.00761 0.0
O60 O 0.15657 0.27051 0.08978 0.0
O61 O 0.1264 0.24251 0.12165 0.0
O62 O 0.12483 0.26993 0.08798 0.0
O63 O 0.13049 0.24843 0.03351 0.0
H64 H 0.18029 0.27355 0.04853 0.0
H65 H 0.16085 0.29851 0.10454 0.0
H66 H 0.20225 0.29866 0.02655 0.0
H67 H 0.18332 0.32322 0.08216 0.0
H68 H 0.11482 0.20872 0.21973 0.0
H69 H 0.15479 0.25464 0.15083 0.0
H70 H 0.1072 0.21824 0.16287 0.0
H71 H 0.16154 0.24459 0.20795 0.0
H72 H 0.17625 0.30223 0.21647 0.0
H73 H 0.1284 0.28942 0.23811 0.0
H74 H 0.17423 0.23513 0.99862 0.0
H75 H 0.15446 0.20479 0.09592 0.0
H76 H 0.11011 0.26736 0.02309 0.0
H77 H 0.12898 0.29504 0.12418 0.0
H78 H 0.10146 0.28558 1.00139 0.0
H79 H 0.1201 0.31287 0.10061 0.0
H80 H 0.13006 0.24305 0.95976 0.0
H81 H 0.1159 0.22129 0.06978 0.0
H82 H 0.11812 0.21688 0.93022 0.0
H83 H 0.10425 0.19558 0.03834 0.0
H84 H 0.16293 0.28617 0.92574 0.0
H85 H 0.15577 0.31999 0.98613 0.0
H86 H 0.0602 0.21429 0.10741 0.0
H87 H 0.07245 0.22542 0.98888 0.0
Li88 Li 0.76579 0.89645 0.07934 0.0
Li89 Li 0.74667 0.87476 0.1228 0.0
Li90 Li 0.7656 0.8714 0.07841 0.0
Li91 Li 0.74435 0.87377 0.05463 0.0
C92 C 0.779 0.89578 0.15147 0.0
N93 N 0.79636 0.9157 0.2095 0.0
C94 C 0.77248 0.90234 0.17504 0.0
C95 C 0.79431 0.89927 0.1575 0.0
C96 C 0.78145 0.91239 0.20423 0.0
C97 C 0.80292 0.90941 0.18693 0.0
C98 C 0.73108 0.88949 0.07508 0.0
C99 C 0.70341 0.87936 0.07208 0.0
N100 N 0.70562 0.88959 0.04374 0.0
C101 C 0.73308 0.89996 0.04607 0.0
C102 C 0.71613 0.87912 0.08829 0.0
C103 C 0.72006 0.8998 0.03052 0.0
C104 C 0.77775 0.92242 0.03284 0.0
N105 N 0.77823 0.91852 0.06976 0.0
C106 C 0.79537 0.94529 0.08539 0.0
C107 C 0.78684 0.92961 0.09604 0.0
C108 C 0.79519 0.94954 0.04728 0.0
C109 C 0.78624 0.93785 0.0209 0.0
H110 H 0.77069 0.91349 0.01248 0.0
H111 H 0.78715 0.9264 0.1252 0.0
C112 C 0.7321 0.85563 0.18807 0.0
N113 N 0.7352 0.86899 0.17003 0.0
C114 C 0.72196 0.85024 0.21928 0.0
C115 C 0.71887 0.87277 0.21377 0.0
C116 C 0.72901 0.87768 0.18264 0.0
C117 C 0.71493 0.8587 0.23219 0.0
H118 H 0.73702 0.84883 0.17727 0.0
H119 H 0.73158 0.88823 0.16779 0.0
C120 C 0.78039 0.89114 0.0194 0.0
N121 N 0.80988 0.90511 0.98824 0.0
C122 C 0.78234 0.89105 0.97997 0.0
C123 C 0.79348 0.89831 0.04294 0.0
C124 C 0.79733 0.89818 0.96479 0.0
C125 C 0.80827 0.90532 0.02666 0.0
C126 C 0.73167 0.84346 0.07515 0.0
C127 C 0.73386 0.83753 0.0411 0.0
C128 C 0.71768 0.83512 0.09498 0.0
C129 C 0.72194 0.82338 0.02725 0.0
C130 C 0.70605 0.821 0.08022 0.0
N131 N 0.7084 0.81548 0.04693 0.0
C132 C 0.78533 0.85845 0.09737 0.0
C133 C 0.77798 0.85736 0.03276 0.0
C134 C 0.79396 0.85122 0.08827 0.0
N135 N 0.77758 0.86138 0.0696 0.0
C136 C 0.78658 0.85036 0.02239 0.0
C137 C 0.79475 0.84721 0.05022 0.0
H138 H 0.78483 0.86175 0.12648 0.0
H139 H 0.77161 0.85963 0.01121 0.0
C140 C 0.73547 0.87371 0.97939 0.0
N141 N 0.72966 0.86704 0.01374 0.0
C142 C 0.72588 0.86942 0.94744 0.0
C143 C 0.70432 0.85175 0.98693 0.0
C144 C 0.71434 0.85642 0.01816 0.0
C145 C 0.7101 0.85818 0.95089 0.0
H146 H 0.74756 0.88247 0.97686 0.0
H147 H 0.70985 0.85158 0.04587 0.0
O148 O 0.77038 0.88576 0.12302 0.0
O149 O 0.74366 0.88924 0.09009 0.0
O150 O 0.76572 0.88409 0.03461 0.0
O151 O 0.7432 0.85728 0.08924 0.0
H152 H 0.76073 0.89991 0.17045 0.0
H153 H 0.79949 0.89419 0.13966 0.0
H154 H 0.77658 0.91762 0.22257 0.0
H155 H 0.81479 0.91225 0.19188 0.0
H156 H 0.69177 0.87132 0.08183 0.0
H157 H 0.74455 0.90804 0.03547 0.0
H158 H 0.71433 0.87076 0.11026 0.0
H159 H 0.72144 0.90778 0.00791 0.0
H160 H 0.80218 0.95396 0.10661 0.0
H161 H 0.78557 0.94062 0.99138 0.0
H162 H 0.7192 0.83927 0.23217 0.0
H163 H 0.71404 0.87987 0.22298 0.0
H164 H 0.77238 0.88544 0.96126 0.0
H165 H 0.79227 0.89852 0.07341 0.0
H166 H 0.79899 0.89817 0.93434 0.0
H167 H 0.81848 0.91093 0.04459 0.0
H168 H 0.74455 0.84387 0.02527 0.0
H169 H 0.71573 0.83958 0.12124 0.0
H170 H 0.72345 0.8187 1.0008 0.0
H171 H 0.69514 0.81446 0.09516 0.0
H172 H 0.80013 0.84901 0.11058 0.0
H173 H 0.78664 0.84723 0.99286 0.0
H174 H 0.73075 0.87497 0.92041 0.0
H175 H 0.69224 0.84302 0.9909 0.0
Li176 Li 0.13919 0.87484 0.12171 0.0
Li177 Li 0.11713 0.87163 0.07887 0.0
Li178 Li 0.13967 0.87259 0.05364 0.0
Li179 Li 0.14205 0.89644 0.07599 0.0
C180 C 0.1246 0.84404 0.07694 0.0
N181 N 0.12526 0.81849 0.04823 0.0
C182 C 0.11337 0.83425 0.05073 0.0
C183 C 0.13611 0.84079 0.08874 0.0
C184 C 0.11392 0.82141 0.03647 0.0
C185 C 0.13624 0.82781 0.07388 0.0
C186 C 0.11828 0.88608 0.1503 0.0
C187 C 0.10504 0.89648 0.18693 0.0
N188 N 0.09874 0.88355 0.20921 0.0
C189 C 0.11169 0.8729 0.17352 0.0
C190 C 0.11498 0.89799 0.15703 0.0
C191 C 0.10183 0.87185 0.20318 0.0
C192 C 0.159 0.87986 0.18597 0.0
N193 N 0.14539 0.86959 0.16891 0.0
C194 C 0.14183 0.84979 0.21336 0.0
C195 C 0.13671 0.85484 0.18231 0.0
C196 C 0.15614 0.85992 0.23078 0.0
C197 C 0.16462 0.87526 0.21702 0.0
H198 H 0.16579 0.89148 0.17454 0.0
H199 H 0.12599 0.84681 0.16812 0.0
C200 C 0.09092 0.85638 0.03392 0.0
N201 N 0.09506 0.862 0.06995 0.0
C202 C 0.07547 0.84941 0.02214 0.0
C203 C 0.06853 0.85371 0.08501 0.0
C204 C 0.08422 0.86084 0.09548 0.0
C205 C 0.06401 0.84797 0.0478 0.0
H206 H 0.09971 0.85736 0.01414 0.0
H207 H 0.08764 0.86545 0.12384 0.0
C208 C 0.17044 0.89208 0.07168 0.0
N209 N 0.19892 0.89953 0.0409 0.0
C210 C 0.17482 0.89928 0.03609 0.0
C211 C 0.18055 0.8887 0.09167 0.0
C212 C 0.18925 0.90293 0.02098 0.0
C213 C 0.1949 0.89256 0.07562 0.0
C214 C 0.1218 0.89048 0.01708 0.0
C215 C 0.12082 0.89102 0.97745 0.0
C216 C 0.11533 0.89732 0.03988 0.0
C217 C 0.11336 0.89839 0.96129 0.0
C218 C 0.10796 0.90458 0.02264 0.0
N219 N 0.10714 0.90496 0.98403 0.0
C220 C 0.13743 0.86058 0.98089 0.0
C221 C 0.15804 0.86129 0.01653 0.0
C222 C 0.14122 0.8546 0.94939 0.0
N223 N 0.14595 0.864 0.01339 0.0
C224 C 0.16243 0.8556 0.98547 0.0
C225 C 0.15401 0.85229 0.95136 0.0
H226 H 0.12766 0.86252 0.97947 0.0
H227 H 0.16427 0.8635 0.04306 0.0
C228 C 0.15539 0.92909 0.0942 0.0
N229 N 0.1519 0.91838 0.06617 0.0
C230 C 0.16261 0.94495 0.08523 0.0
C231 C 0.16234 0.9384 0.01889 0.0
C232 C 0.15528 0.92278 0.02911 0.0
C233 C 0.16612 0.94977 0.04703 0.0
H234 H 0.15258 0.92531 0.12347 0.0
H235 H 0.15252 0.91413 0.00727 0.0
O236 O 0.1245 0.8569 0.09047 0.0
O237 O 0.12807 0.88743 0.12133 0.0
O238 O 0.15632 0.88834 0.08691 0.0
O239 O 0.12907 0.88324 0.03318 0.0
H240 H 0.10438 0.83659 0.0413 0.0
H241 H 0.14503 0.84837 0.10857 0.0
H242 H 0.10536 0.81378 0.01601 0.0
H243 H 0.14515 0.82522 0.08253 0.0
H244 H 0.10236 0.90559 0.19246 0.0
H245 H 0.11393 0.86349 0.16829 0.0
H246 H 0.12004 0.90829 0.13935 0.0
H247 H 0.09659 0.86168 0.22129 0.0
H248 H 0.13468 0.83796 0.22324 0.0
H249 H 0.17579 0.88348 0.22908 0.0
H250 H 0.07249 0.84497 0.99335 0.0
H251 H 0.06005 0.85291 0.10561 0.0
H252 H 0.16703 0.90171 0.01996 0.0
H253 H 0.17731 0.88302 0.11911 0.0
H254 H 0.19275 0.90841 0.99334 0.0
H255 H 0.20283 0.88997 0.09071 0.0
H256 H 0.1258 0.88582 0.95936 0.0
H257 H 0.11594 0.89704 0.07053 0.0
H258 H 0.11253 0.8989 0.93066 0.0
H259 H 0.10289 0.90991 0.03996 0.0
H260 H 0.13446 0.85215 0.92349 0.0
H261 H 0.17221 0.8537 0.98814 0.0
H262 H 0.16525 0.95332 0.10783 0.0
H263 H 0.16505 0.94155 0.98921 0.0
Li264 Li 0.25072 0.11469 0.92918 0.0
Li265 Li 0.27218 0.13864 0.9507 0.0
Li266 Li 0.25032 0.13924 0.92505 0.0
Li267 Li 0.26867 0.13556 0.88284 0.0
C268 C 0.23657 0.12128 0.98783 0.0
N269 N 0.20761 0.10748 0.02175 0.0
C270 C 0.23526 0.12186 0.02735 0.0
C271 C 0.22313 0.11366 0.96556 0.0
C272 C 0.22052 0.11481 0.04396 0.0
C273 C 0.20861 0.10677 0.98325 0.0
C274 C 0.28329 0.11891 0.93328 0.0
C275 C 0.3072 0.11828 0.92945 0.0
N276 N 0.30427 0.11143 0.96432 0.0
C277 C 0.28052 0.11187 0.96907 0.0
C278 C 0.29674 0.12216 0.91327 0.0
C279 C 0.29126 0.10818 0.98429 0.0
C280 C 0.23198 0.0818 0.91304 0.0
N281 N 0.23889 0.09283 0.9405 0.0
C282 C 0.22968 0.07331 0.98898 0.0
C283 C 0.23786 0.08884 0.97788 0.0
C284 C 0.22252 0.06157 0.96142 0.0
C285 C 0.2237 0.06601 0.92291 0.0
H286 H 0.23299 0.08525 0.88348 0.0
H287 H 0.24342 0.09775 0.99931 0.0
C288 C 0.28206 0.15174 0.02223 0.0
N289 N 0.2871 0.14766 0.9907 0.0
C290 C 0.2917 0.15791 0.05389 0.0
C291 C 0.31176 0.15594 0.01974 0.0
C292 C 0.30177 0.14997 0.98857 0.0
C293 C 0.30671 0.15985 0.0532 0.0
H294 H 0.27049 0.15019 0.02276 0.0
H295 H 0.30574 0.14714 0.96283 0.0
C296 C 0.23909 0.12622 0.85163 0.0
N297 N 0.22725 0.13254 0.78723 0.0
C298 C 0.24531 0.14151 0.8389 0.0
C299 C 0.22683 0.11415 0.83171 0.0
C300 C 0.23918 0.14446 0.80623 0.0
C301 C 0.221 0.11758 0.7992 0.0
C302 C 0.28637 0.16663 0.92237 0.0
C303 C 0.28683 0.1786 0.94425 0.0
C304 C 0.30025 0.16762 0.91036 0.0
C305 C 0.3012 0.19134 0.95403 0.0
C306 C 0.31439 0.18056 0.92067 0.0
N307 N 0.31457 0.19204 0.94215 0.0
C308 C 0.2423 0.15789 0.96532 0.0
C309 C 0.22504 0.14601 0.91359 0.0
C310 C 0.23395 0.16494 0.97748 0.0
N311 N 0.23785 0.14872 0.9338 0.0
C312 C 0.21631 0.15288 0.92478 0.0
C313 C 0.22068 0.16245 0.95731 0.0
H314 H 0.25223 0.15945 0.98153 0.0
H315 H 0.22136 0.13827 0.88938 0.0
C316 C 0.2837 0.13054 0.8191 0.0
N317 N 0.27971 0.14053 0.83504 0.0
C318 C 0.29393 0.13521 0.78804 0.0
C319 C 0.29513 0.16007 0.78923 0.0
C320 C 0.28497 0.15496 0.8203 0.0
C321 C 0.30009 0.15031 0.77314 0.0
H322 H 0.27949 0.11917 0.83153 0.0
H323 H 0.28178 0.16278 0.83362 0.0
O324 O 0.25098 0.12824 0.97128 0.0
O325 O 0.27296 0.1227 0.91796 0.0
O326 O 0.24484 0.123 0.88357 0.0
O327 O 0.27244 0.15389 0.91321 0.0
H328 H 0.24553 0.12767 0.04504 0.0
H329 H 0.22385 0.11306 0.93497 0.0
H330 H 0.21934 0.11517 0.07451 0.0
H331 H 0.19813 0.10085 0.96636 0.0
H332 H 0.31768 0.12076 0.91433 0.0
H333 H 0.27035 0.10958 0.98525 0.0
H334 H 0.29917 0.12776 0.88574 0.0
H335 H 0.2893 0.10281 0.01205 0.0
H336 H 0.22887 0.07057 0.01903 0.0
H337 H 0.21851 0.0574 0.90058 0.0
H338 H 0.28743 0.16114 0.07859 0.0
H339 H 0.32319 0.15715 0.01781 0.0
H340 H 0.25462 0.15102 0.8543 0.0
H341 H 0.22187 0.10225 0.84133 0.0
H342 H 0.24386 0.15625 0.79608 0.0
H343 H 0.21151 0.10835 0.7835 0.0
H344 H 0.27623 0.1781 0.95361 0.0
H345 H 0.30013 0.15836 0.89392 0.0
H346 H 0.30173 0.20066 0.97106 0.0
H347 H 0.32521 0.18141 0.91181 0.0
H348 H 0.23789 0.17231 1.00247 0.0
H349 H 0.20602 0.1504 0.90871 0.0
H350 H 0.29747 0.12729 0.77696 0.0
H351 H 0.29926 0.17169 0.77841 0.0
Li352 Li 0.89926 0.13914 0.92815 0.0
Li353 Li 0.87562 0.1368 0.95139 0.0
Li354 Li 0.87438 0.11414 0.92662 0.0
Li355 Li 0.8772 0.13594 0.88328 0.0
C356 C 0.8941 0.11919 0.98659 0.0
N357 N 0.90942 0.10491 0.0173 0.0
C358 C 0.896 0.11902 0.02602 0.0
C359 C 0.90006 0.11212 0.96282 0.0
C360 C 0.90377 0.11175 0.04098 0.0
C361 C 0.90773 0.10495 0.97887 0.0
C362 C 0.89307 0.16705 0.93131 0.0
C363 C 0.88943 0.18923 0.92621 0.0
N364 N 0.89713 0.19478 0.95969 0.0
C365 C 0.90102 0.17302 0.96555 0.0
C366 C 0.88726 0.17524 0.91137 0.0
C367 C 0.90292 0.18703 0.97949 0.0
C368 C 0.93211 0.15202 0.91072 0.0
N369 N 0.92122 0.14917 0.93779 0.0
C370 C 0.94087 0.16064 0.98577 0.0
C371 C 0.92534 0.15334 0.97468 0.0
C372 C 0.95249 0.16394 0.95863 0.0
C373 C 0.94792 0.15946 0.92057 0.0
H374 H 0.92856 0.14859 0.88154 0.0
H375 H 0.9165 0.15094 0.99577 0.0
C376 C 0.86691 0.13701 0.02666 0.0
N377 N 0.86754 0.14347 0.99216 0.0
C378 C 0.86159 0.14131 0.05854 0.0
C379 C 0.85714 0.15852 0.01865 0.0
C380 C 0.86257 0.15388 0.98752 0.0
C381 C 0.85675 0.15231 0.05482 0.0
H382 H 0.87047 0.12842 0.0294 0.0
H383 H 0.86278 0.15859 0.95971 0.0
C384 C 0.88816 0.11486 0.85445 0.0
N385 N 0.88498 0.095 0.79566 0.0
C386 C 0.87472 0.10813 0.83211 0.0
C387 C 0.89999 0.11153 0.84689 0.0
C388 C 0.87334 0.09812 0.80249 0.0
C389 C 0.89815 0.10144 0.81706 0.0
C390 C 0.84668 0.12131 0.92981 0.0
C391 C 0.83791 0.11081 0.95846 0.0
C392 C 0.8423 0.13177 0.91608 0.0
C393 C 0.82495 0.11103 0.97313 0.0
C394 C 0.82924 0.13159 0.93142 0.0
N395 N 0.82092 0.12133 0.95943 0.0
C396 C 0.85976 0.08831 0.9729 0.0
C397 C 0.86235 0.08086 0.91056 0.0
C398 C 0.85244 0.07292 0.98515 0.0
N399 N 0.86458 0.09206 0.93622 0.0
C400 C 0.85486 0.0652 0.92152 0.0
C401 C 0.84972 0.06101 0.95934 0.0
H402 H 0.86165 0.09737 0.9929 0.0
H403 H 0.86625 0.08396 0.88158 0.0
C404 C 0.88199 0.15526 0.8182 0.0
N405 N 0.87169 0.14183 0.83589 0.0
C406 C 0.87733 0.16076 0.78701 0.0
C407 C 0.85175 0.13818 0.79176 0.0
C408 C 0.85688 0.13316 0.82287 0.0
C409 C 0.8619 0.15234 0.77376 0.0
H410 H 0.89366 0.16205 0.82931 0.0
H411 H 0.84885 0.12256 0.83745 0.0
O412 O 0.88654 0.12636 0.97162 0.0
O413 O 0.89109 0.15335 0.91716 0.0
O414 O 0.88984 0.12482 0.88332 0.0
O415 O 0.85958 0.12147 0.91557 0.0
H416 H 0.89162 0.12454 0.04493 0.0
H417 H 0.89876 0.11209 0.93233 0.0
H418 H 0.90532 0.11156 0.07143 0.0
H419 H 0.91236 0.09942 0.96077 0.0
H420 H 0.88493 0.19565 0.91119 0.0
H421 H 0.90548 0.16679 0.98149 0.0
H422 H 0.88098 0.17075 0.88498 0.0
H423 H 0.90896 0.19173 0.00609 0.0
H424 H 0.94367 0.16349 0.01555 0.0
H425 H 0.95644 0.16185 0.89853 0.0
H426 H 0.86113 0.13596 0.08574 0.0
H427 H 0.85354 0.16706 0.01452 0.0
H428 H 0.86536 0.11038 0.83802 0.0
H429 H 0.91049 0.1167 0.86388 0.0
H430 H 0.86297 0.09277 0.78507 0.0
H431 H 0.90721 0.09873 0.8109 0.0
H432 H 0.84111 0.10264 0.96944 0.0
H433 H 0.84909 0.14018 0.89442 0.0
H434 H 0.81811 0.10301 0.99545 0.0
H435 H 0.82579 0.1397 0.92126 0.0
H436 H 0.84908 0.07045 0.01477 0.0
H437 H 0.85292 0.05648 0.90039 0.0
H438 H 0.88557 0.1718 0.77445 0.0
H439 H 0.83985 0.1311 0.78226 0.0
Li440 Li 0.87391 0.76185 0.93008 0.0
Li441 Li 0.87686 0.74069 0.95161 0.0
Li442 Li 0.89936 0.76285 0.92761 0.0
Li443 Li 0.87785 0.74383 0.88347 0.0
C444 C 0.89364 0.77619 0.98995 0.0
N445 N 0.90732 0.80508 0.02439 0.0
C446 C 0.8947 0.77745 0.02965 0.0
C447 C 0.8996 0.78966 0.96784 0.0
C448 C 0.90164 0.79215 0.0465 0.0
C449 C 0.90645 0.80414 0.98575 0.0
C450 C 0.84781 0.72617 0.9315 0.0
C451 C 0.832 0.69824 0.93206 0.0
N452 N 0.82333 0.69924 0.96071 0.0
C453 C 0.8387 0.72693 0.96079 0.0
C454 C 0.84443 0.71172 0.91689 0.0
C455 C 0.82639 0.71318 0.97524 0.0
C456 C 0.86099 0.7819 0.91523 0.0
N457 N 0.8634 0.77314 0.94107 0.0
C458 C 0.85128 0.78011 0.99002 0.0
C459 C 0.85864 0.77207 0.97778 0.0
C460 C 0.84851 0.78927 0.96418 0.0
C461 C 0.85349 0.79008 0.92621 0.0
H462 H 0.86486 0.78254 0.88616 0.0
H463 H 0.86071 0.76503 0.99779 0.0
C464 C 0.86622 0.71065 0.98718 0.0
N465 N 0.86961 0.72562 0.99166 0.0
C466 C 0.86137 0.70055 0.01828 0.0
C467 C 0.86288 0.72123 0.05756 0.0
C468 C 0.86773 0.7309 0.02579 0.0
C469 C 0.85984 0.70589 0.05418 0.0
H470 H 0.86718 0.70648 0.95953 0.0
H471 H 0.86987 0.74264 0.02826 0.0
C472 C 0.898 0.77736 0.85778 0.0
N473 N 0.91731 0.79714 0.80187 0.0
C474 C 0.90502 0.7722 0.83163 0.0
C475 C 0.90067 0.79255 0.85526 0.0
C476 C 0.91478 0.78238 0.80362 0.0
C477 C 0.91052 0.80239 0.82688 0.0
C478 C 0.8958 0.72986 0.92811 0.0
C479 C 0.90456 0.7324 0.96122 0.0
C480 C 0.89056 0.71601 0.90782 0.0
C481 C 0.90791 0.72103 0.97357 0.0
C482 C 0.89418 0.70494 0.92106 0.0
N483 N 0.9027 0.70765 0.95339 0.0
C484 C 0.92555 0.77569 0.97394 0.0
C485 C 0.93254 0.78351 0.91 0.0
C486 C 0.94103 0.78403 0.98536 0.0
N487 N 0.9215 0.77558 0.93689 0.0
C488 C 0.9483 0.7919 0.92014 0.0
C489 C 0.95276 0.79219 0.95836 0.0
H490 H 0.91672 0.76915 0.99492 0.0
H491 H 0.92924 0.7832 0.88064 0.0
C492 C 0.85714 0.72742 0.8229 0.0
N493 N 0.87187 0.73274 0.8357 0.0
C494 C 0.85143 0.71723 0.79183 0.0
C495 C 0.87634 0.71869 0.78655 0.0
C496 C 0.88154 0.72878 0.81783 0.0
C497 C 0.86097 0.7125 0.77356 0.0
H498 H 0.84961 0.73061 0.83775 0.0
H499 H 0.89312 0.73292 0.82885 0.0
O500 O 0.88684 0.76183 0.97306 0.0
O501 O 0.86014 0.73947 0.91761 0.0
O502 O 0.88823 0.7675 0.88508 0.0
O503 O 0.89251 0.74091 0.91537 0.0
H504 H 0.89031 0.76721 0.04733 0.0
H505 H 0.89899 0.78896 0.93723 0.0
H506 H 0.90254 0.79327 0.07717 0.0
H507 H 0.9111 0.81464 0.96891 0.0
H508 H 0.82932 0.68697 0.92124 0.0
H509 H 0.84118 0.73801 0.97246 0.0
H510 H 0.85149 0.71091 0.89458 0.0
H511 H 0.81929 0.71358 0.99806 0.0
H512 H 0.848 0.77931 0.01969 0.0
H513 H 0.85147 0.7968 0.90507 0.0
H514 H 0.85909 0.68878 0.01434 0.0
H515 H 0.86141 0.7257 0.08442 0.0
H516 H 0.90318 0.76055 0.83337 0.0
H517 H 0.89515 0.79669 0.8749 0.0
H518 H 0.92038 0.77856 0.78337 0.0
H519 H 0.91273 0.81418 0.82468 0.0
H520 H 0.90856 0.74294 0.9775 0.0
H521 H 0.88359 0.71371 0.88247 0.0
H522 H 0.91462 0.72283 0.99924 0.0
H523 H 0.89015 0.69415 0.90571 0.0
H524 H 0.94371 0.78407 0.01525 0.0
H525 H 0.95688 0.79782 0.8981 0.0
H526 H 0.83957 0.71294 0.78259 0.0
H527 H 0.88409 0.71527 0.77376 0.0
Li528 Li 0.80759 0.58052 0.41186 0.0
Li529 Li 0.8054 0.59944 0.45672 0.0
Li530 Li 0.78297 0.58113 0.41197 0.0
Li531 Li 0.80686 0.60266 0.38822 0.0
C532 C 0.79323 0.56585 0.48142 0.0
N533 N 0.79477 0.54585 0.53356 0.0
C534 C 0.80481 0.57157 0.50934 0.0
C535 C 0.7823 0.54999 0.48035 0.0
C536 C 0.80541 0.56126 0.53539 0.0
C537 C 0.78333 0.54006 0.50683 0.0
C538 C 0.83566 0.61475 0.40743 0.0
C539 C 0.85337 0.64229 0.4016 0.0
N540 N 0.86116 0.63945 0.37377 0.0
C541 C 0.84387 0.6121 0.3789 0.0
C542 C 0.84045 0.62995 0.41898 0.0
C543 C 0.85672 0.62475 0.36219 0.0
C544 C 0.82021 0.56708 0.36424 0.0
N545 N 0.81715 0.56803 0.40163 0.0
C546 C 0.82863 0.55266 0.41901 0.0
C547 C 0.82131 0.5611 0.42899 0.0
C548 C 0.83162 0.55128 0.3805 0.0
C549 C 0.82728 0.55862 0.35299 0.0
H550 H 0.81735 0.57312 0.34299 0.0
H551 H 0.81917 0.56222 0.45857 0.0
C552 C 0.80098 0.61307 0.52414 0.0
N553 N 0.8113 0.61058 0.50433 0.0
C554 C 0.80595 0.62332 0.55515 0.0
C555 C 0.8319 0.62765 0.546 0.0
C556 C 0.82645 0.61738 0.51514 0.0
C557 C 0.82171 0.63108 0.566 0.0
H558 H 0.78904 0.60768 0.51469 0.0
H559 H 0.83443 0.61521 0.49898 0.0
C560 C 0.78741 0.56775 0.34852 0.0
N561 N 0.77051 0.54015 0.30925 0.0
C562 C 0.78424 0.5679 0.30976 0.0
C563 C 0.78193 0.55357 0.36729 0.0
C564 C 0.77569 0.55382 0.29042 0.0
C565 C 0.77344 0.53974 0.34694 0.0
C566 C 0.79014 0.61622 0.41588 0.0
C567 C 0.77987 0.61541 0.38759 0.0
C568 C 0.79849 0.62991 0.43696 0.0
C569 C 0.77817 0.62833 0.38069 0.0
C570 C 0.79646 0.64257 0.42921 0.0
N571 N 0.78643 0.64152 0.40148 0.0
C572 C 0.75026 0.55965 0.42744 0.0
C573 C 0.75697 0.57149 0.36665 0.0
C574 C 0.73454 0.55125 0.41692 0.0
N575 N 0.76108 0.56954 0.40225 0.0
C576 C 0.74153 0.56325 0.35484 0.0
C577 C 0.72997 0.55297 0.38004 0.0
H578 H 0.75382 0.55825 0.45558 0.0
H579 H 0.76579 0.57936 0.34708 0.0
C580 C 0.81671 0.61153 0.31391 0.0
N581 N 0.81487 0.61732 0.34734 0.0
C582 C 0.82203 0.62089 0.28161 0.0
C583 C 0.82402 0.64225 0.31893 0.0
C584 C 0.8187 0.63246 0.35057 0.0
C585 C 0.82559 0.63643 0.28374 0.0
H586 H 0.81414 0.59962 0.31241 0.0
H587 H 0.81776 0.63703 0.37762 0.0
O588 O 0.79235 0.57577 0.45589 0.0
O589 O 0.82278 0.60255 0.42332 0.0
O590 O 0.7955 0.58147 0.36803 0.0
O591 O 0.79167 0.60357 0.42376 0.0
H592 H 0.81336 0.58379 0.51058 0.0
H593 H 0.77308 0.5454 0.4594 0.0
H594 H 0.81437 0.56551 0.55699 0.0
H595 H 0.775 0.52775 0.50622 0.0
H596 H 0.85715 0.65412 0.41005 0.0
H597 H 0.84027 0.60042 0.36953 0.0
H598 H 0.8341 0.63222 0.44064 0.0
H599 H 0.86313 0.62288 0.33993 0.0
H600 H 0.83183 0.5472 0.44116 0.0
H601 H 0.82967 0.55816 0.32307 0.0
H602 H 0.79766 0.62566 0.56934 0.0
H603 H 0.84405 0.63304 0.55367 0.0
H604 H 0.78819 0.57876 0.29485 0.0
H605 H 0.78425 0.55325 0.39721 0.0
H606 H 0.77312 0.55377 0.26046 0.0
H607 H 0.76916 0.52869 0.36113 0.0
H608 H 0.77327 0.60493 0.37111 0.0
H609 H 0.80664 0.63086 0.45862 0.0
H610 H 0.77027 0.62785 0.35885 0.0
H611 H 0.80291 0.65325 0.44517 0.0
H612 H 0.72608 0.54361 0.43757 0.0
H613 H 0.7388 0.56478 0.32589 0.0
H614 H 0.82346 0.61603 0.25534 0.0
H615 H 0.82665 0.65416 0.3219 0.0
Li616 Li 0.43166 0.22981 0.41319 0.0
Li617 Li 0.41249 0.20742 0.45473 0.0
Li618 Li 0.43152 0.20486 0.40931 0.0
Li619 Li 0.41029 0.20753 0.38662 0.0
C620 C 0.44442 0.22801 0.4849 0.0
N621 N 0.46097 0.24697 0.54513 0.0
C622 C 0.43768 0.23443 0.50821 0.0
C623 C 0.45955 0.23119 0.49223 0.0
C624 C 0.44624 0.24399 0.53854 0.0
C625 C 0.46774 0.24083 0.5228 0.0
C626 C 0.39669 0.2225 0.41014 0.0
C627 C 0.36888 0.21123 0.40659 0.0
N628 N 0.37078 0.22227 0.38085 0.0
C629 C 0.39837 0.23378 0.38382 0.0
C630 C 0.38183 0.21115 0.42173 0.0
C631 C 0.38513 0.23345 0.36927 0.0
C632 C 0.44305 0.25637 0.36947 0.0
N633 N 0.44414 0.25196 0.4055 0.0
C634 C 0.462 0.27843 0.42224 0.0
C635 C 0.45343 0.26264 0.43185 0.0
C636 C 0.46117 0.28321 0.38505 0.0
C637 C 0.45154 0.27192 0.35854 0.0
H638 H 0.43553 0.24772 0.34903 0.0
H639 H 0.4543 0.25901 0.46022 0.0
C640 C 0.39772 0.18726 0.51831 0.0
N641 N 0.40087 0.20088 0.50165 0.0
C642 C 0.3876 0.18147 0.54951 0.0
C643 C 0.38457 0.20408 0.54667 0.0
C644 C 0.39465 0.20937 0.51546 0.0
C645 C 0.38071 0.18982 0.56388 0.0
H646 H 0.40271 0.18064 0.50665 0.0
H647 H 0.39713 0.22006 0.50144 0.0
C648 C 0.44635 0.22556 0.35181 0.0
N649 N 0.47581 0.2403 0.3205 0.0
C650 C 0.44827 0.22665 0.31228 0.0
C651 C 0.45944 0.23196 0.3754 0.0
C652 C 0.46325 0.23414 0.29701 0.0
C653 C 0.47423 0.23937 0.35903 0.0
C654 C 0.39831 0.17672 0.40351 0.0
C655 C 0.40107 0.17212 0.36814 0.0
C656 C 0.38448 0.16709 0.42288 0.0
C657 C 0.38988 0.15796 0.35256 0.0
C658 C 0.37358 0.153 0.40637 0.0
N659 N 0.37648 0.14877 0.37184 0.0
C660 C 0.45072 0.19135 0.42725 0.0
C661 C 0.44463 0.19173 0.36218 0.0
C662 C 0.45931 0.18409 0.41806 0.0
N663 N 0.44359 0.195 0.39933 0.0
C664 C 0.45316 0.18465 0.35174 0.0
C665 C 0.46065 0.1807 0.37977 0.0
H666 H 0.44973 0.19406 0.45659 0.0
H667 H 0.43878 0.1946 0.34046 0.0
C668 C 0.40136 0.20999 0.31308 0.0
N669 N 0.39575 0.20163 0.34562 0.0
C670 C 0.39187 0.20651 0.28111 0.0
C671 C 0.37086 0.18602 0.31689 0.0
C672 C 0.38072 0.19003 0.34832 0.0
C673 C 0.37644 0.19422 0.28252 0.0
H674 H 0.41321 0.21946 0.31206 0.0
H675 H 0.37633 0.18387 0.3748 0.0
O676 O 0.43621 0.2185 0.4553 0.0
O677 O 0.4095 0.22239 0.42402 0.0
O678 O 0.43169 0.21822 0.36704 0.0
O679 O 0.4091 0.19055 0.41923 0.0
H680 H 0.42609 0.23229 0.50253 0.0
H681 H 0.4649 0.22625 0.47449 0.0
H682 H 0.4412 0.2491 0.55672 0.0
H683 H 0.47947 0.24341 0.52879 0.0
H684 H 0.35731 0.20245 0.41509 0.0
H685 H 0.40977 0.24264 0.37454 0.0
H686 H 0.3803 0.20217 0.44161 0.0
H687 H 0.38625 0.24206 0.34873 0.0
H688 H 0.46937 0.28677 0.44349 0.0
H689 H 0.45038 0.2751 0.32973 0.0
H690 H 0.38511 0.17051 0.56206 0.0
H691 H 0.37941 0.21085 0.55631 0.0
H692 H 0.43828 0.2217 0.29356 0.0
H693 H 0.45825 0.23127 0.40598 0.0
H694 H 0.46489 0.23505 0.26647 0.0
H695 H 0.48444 0.24438 0.37698 0.0
H696 H 0.4116 0.17951 0.35258 0.0
H697 H 0.38211 0.17051 0.45017 0.0
H698 H 0.39182 0.1543 0.32509 0.0
H699 H 0.3628 0.14546 0.42095 0.0
H700 H 0.46496 0.18131 0.44057 0.0
H701 H 0.45363 0.18204 0.32199 0.0
H702 H 0.39659 0.21345 0.25565 0.0
H703 H 0.35909 0.17641 0.31939 0.0
Li704 Li 0.80483 0.20736 0.4545 0.0
Li705 Li 0.78316 0.20511 0.4111 0.0
Li706 Li 0.80562 0.20576 0.3865 0.0
Li707 Li 0.8086 0.22962 0.40922 0.0
C708 C 0.78723 0.17608 0.40713 0.0
N709 N 0.78159 0.14808 0.37663 0.0
C710 C 0.77875 0.17054 0.37338 0.0
C711 C 0.79278 0.16732 0.42546 0.0
C712 C 0.77605 0.15638 0.35836 0.0
C713 C 0.78981 0.1532 0.40958 0.0
C714 C 0.78486 0.22014 0.48297 0.0
C715 C 0.77291 0.23217 0.51851 0.0
N716 N 0.76618 0.2196 0.54192 0.0
C717 C 0.77789 0.20737 0.50745 0.0
C718 C 0.78243 0.23269 0.48861 0.0
C719 C 0.76847 0.2073 0.53706 0.0
C720 C 0.82512 0.21178 0.51652 0.0
N721 N 0.81079 0.20199 0.50197 0.0
C722 C 0.80646 0.18301 0.54973 0.0
C723 C 0.80139 0.18791 0.51822 0.0
C724 C 0.82142 0.19265 0.56467 0.0
C725 C 0.8307 0.20732 0.54788 0.0
H726 H 0.83245 0.22287 0.50293 0.0
H727 H 0.79011 0.18021 0.50594 0.0
C728 C 0.75673 0.19233 0.36524 0.0
N729 N 0.76098 0.19587 0.40237 0.0
C730 C 0.7412 0.1856 0.35431 0.0
C731 C 0.73431 0.18562 0.42019 0.0
C732 C 0.7501 0.19262 0.42983 0.0
C733 C 0.72973 0.18212 0.38189 0.0
H734 H 0.76541 0.19462 0.34383 0.0
H735 H 0.75355 0.19531 0.4592 0.0
C736 C 0.835 0.2207 0.40587 0.0
N737 N 0.86008 0.21966 0.37528 0.0
C738 C 0.84289 0.22994 0.3745 0.0
C739 C 0.83994 0.21102 0.42188 0.0
C740 C 0.85551 0.22921 0.35936 0.0
C741 C 0.85264 0.21065 0.40598 0.0
C742 C 0.78858 0.22482 0.35096 0.0
C743 C 0.78708 0.2255 0.3115 0.0
C744 C 0.78286 0.23206 0.3749 0.0
C745 C 0.77995 0.23345 0.29673 0.0
C746 C 0.77582 0.23989 0.35905 0.0
N747 N 0.77452 0.24042 0.32061 0.0
C748 C 0.81796 0.18774 0.3521 0.0
C749 C 0.81267 0.20338 0.31086 0.0
C750 C 0.82289 0.18234 0.32145 0.0
N751 N 0.81277 0.19791 0.34622 0.0
C752 C 0.8175 0.19834 0.27945 0.0
C753 C 0.82258 0.18757 0.28447 0.0
H754 H 0.81835 0.18384 0.38055 0.0
H755 H 0.80897 0.21181 0.30709 0.0
C756 C 0.82167 0.26244 0.4264 0.0
N757 N 0.81899 0.25153 0.39949 0.0
C758 C 0.82898 0.27821 0.41639 0.0
C759 C 0.83052 0.27111 0.35139 0.0
C760 C 0.82336 0.2556 0.36266 0.0
C761 C 0.83339 0.28268 0.37831 0.0
H762 H 0.81807 0.25892 0.4555 0.0
H763 H 0.8212 0.24672 0.34185 0.0
O764 O 0.79001 0.18993 0.42225 0.0
O765 O 0.79434 0.22055 0.45419 0.0
O766 O 0.82243 0.22103 0.42064 0.0
O767 O 0.79555 0.21703 0.36579 0.0
H768 H 0.77451 0.1772 0.35861 0.0
H769 H 0.79954 0.17148 0.4513 0.0
H770 H 0.76959 0.15202 0.33213 0.0
H771 H 0.79411 0.14636 0.42336 0.0
H772 H 0.7709 0.24179 0.52317 0.0
H773 H 0.77949 0.1975 0.50318 0.0
H774 H 0.78787 0.24275 0.47016 0.0
H775 H 0.76291 0.19744 0.55607 0.0
H776 H 0.79894 0.17154 0.56131 0.0
H777 H 0.84223 0.21523 0.55864 0.0
H778 H 0.73818 0.18283 0.32458 0.0
H779 H 0.7258 0.18311 0.44236 0.0
H780 H 0.83921 0.23746 0.36171 0.0
H781 H 0.83387 0.20366 0.4459 0.0
H782 H 0.86166 0.23622 0.33492 0.0
H783 H 0.85651 0.20313 0.41791 0.0
H784 H 0.79128 0.2199 0.29236 0.0
H785 H 0.78381 0.23165 0.40537 0.0
H786 H 0.77872 0.23404 0.26626 0.0
H787 H 0.77137 0.24554 0.37733 0.0
H788 H 0.8267 0.17403 0.32662 0.0
H789 H 0.81744 0.20298 0.25159 0.0
H790 H 0.83093 0.28677 0.43802 0.0
H791 H 0.83394 0.27402 0.32191 0.0
Li792 Li 0.9178 0.44794 0.2631 0.0
Li793 Li 0.93929 0.47191 0.28473 0.0
Li794 Li 0.91758 0.47271 0.25966 0.0
Li795 Li 0.93626 0.46935 0.21668 0.0
C796 C 0.90365 0.45419 0.32193 0.0
N797 N 0.8746 0.4399 0.35543 0.0
C798 C 0.90223 0.45403 0.36156 0.0
C799 C 0.89027 0.44708 0.29935 0.0
C800 C 0.88745 0.44674 0.37794 0.0
C801 C 0.8757 0.43992 0.31682 0.0
C802 C 0.9504 0.45219 0.26694 0.0
C803 C 0.97416 0.45129 0.2628 0.0
N804 N 0.97127 0.44451 0.29776 0.0
C805 C 0.94766 0.44521 0.30279 0.0
C806 C 0.96376 0.45526 0.24673 0.0
C807 C 0.95835 0.44143 0.31791 0.0
C808 C 0.8991 0.41499 0.24631 0.0
N809 N 0.906 0.42602 0.2738 0.0
C810 C 0.89709 0.40646 0.32215 0.0
C811 C 0.90509 0.422 0.31112 0.0
C812 C 0.89001 0.39472 0.29457 0.0
C813 C 0.89101 0.39918 0.25611 0.0
H814 H 0.90001 0.41846 0.21678 0.0
H815 H 0.91067 0.43089 0.33258 0.0
C816 C 0.94942 0.4841 0.35729 0.0
N817 N 0.95433 0.48061 0.32458 0.0
C818 C 0.95932 0.48998 0.3886 0.0
C819 C 0.97927 0.48879 0.35184 0.0
C820 C 0.96907 0.4832 0.32101 0.0
C821 C 0.97435 0.49212 0.3862 0.0
H822 H 0.93775 0.48224 0.35906 0.0
H823 H 0.97294 0.48091 0.29433 0.0
C824 C 0.90408 0.458 0.18866 0.0
N825 N 0.88698 0.46046 0.12986 0.0
C826 C 0.91052 0.47127 0.16577 0.0
C827 C 0.88896 0.44597 0.18167 0.0
C828 C 0.90169 0.47229 0.13615 0.0
C829 C 0.88049 0.44745 0.15182 0.0
C830 C 0.95273 0.5003 0.26041 0.0
C831 C 0.95157 0.51038 0.28622 0.0
C832 C 0.96737 0.5033 0.24827 0.0
C833 C 0.96512 0.52325 0.29973 0.0
C834 C 0.98064 0.51632 0.26238 0.0
N835 N 0.97925 0.52593 0.28764 0.0
C836 C 0.90723 0.48852 0.30416 0.0
C837 C 0.89508 0.48316 0.24374 0.0
C838 C 0.89899 0.49573 0.31612 0.0
N839 N 0.90519 0.4824 0.26858 0.0
C840 C 0.88669 0.49047 0.25441 0.0
C841 C 0.88859 0.49692 0.29111 0.0
H842 H 0.91523 0.48768 0.32356 0.0
H843 H 0.89344 0.47814 0.21573 0.0
C844 C 0.95115 0.46435 0.15252 0.0
N845 N 0.94759 0.47452 0.1693 0.0
C846 C 0.96145 0.46904 0.12161 0.0
C847 C 0.96367 0.49433 0.12474 0.0
C848 C 0.95344 0.4892 0.15566 0.0
C849 C 0.96814 0.48435 0.10771 0.0
H850 H 0.9465 0.45278 0.16413 0.0
H851 H 0.95059 0.49715 0.16965 0.0
O852 O 0.91811 0.46135 0.30561 0.0
O853 O 0.94013 0.45608 0.25172 0.0
O854 O 0.91254 0.45669 0.21762 0.0
O855 O 0.93963 0.48741 0.2476 0.0
H856 H 0.91246 0.45944 0.37949 0.0
H857 H 0.89108 0.44707 0.26871 0.0
H858 H 0.88619 0.44652 0.40857 0.0
H859 H 0.86527 0.43439 0.29967 0.0
H860 H 0.98457 0.45363 0.24753 0.0
H861 H 0.93757 0.44306 0.31913 0.0
H862 H 0.96615 0.4608 0.2191 0.0
H863 H 0.95642 0.43611 0.34574 0.0
H864 H 0.8964 0.40372 0.35218 0.0
H865 H 0.88586 0.39057 0.23375 0.0
H866 H 0.95515 0.49244 0.41471 0.0
H867 H 0.9909 0.49056 0.34884 0.0
H868 H 0.9221 0.48077 0.17124 0.0
H869 H 0.88383 0.4356 0.19912 0.0
H870 H 0.9065 0.48252 0.1183 0.0
H871 H 0.86876 0.43824 0.14608 0.0
H872 H 0.94035 0.50825 0.2959 0.0
H873 H 0.9685 0.49549 0.22876 0.0
H874 H 0.96439 0.53111 0.31987 0.0
H875 H 0.99204 0.51871 0.25345 0.0
H876 H 0.90065 0.50012 0.34496 0.0
H877 H 0.87894 0.49119 0.2339 0.0
H878 H 0.96461 0.46093 0.10983 0.0
H879 H 0.96821 0.50612 0.11472 0.0
Li880 Li 0.56575 0.47221 0.26126 0.0
Li881 Li 0.5427 0.47117 0.28572 0.0
Li882 Li 0.5405 0.44763 0.26241 0.0
Li883 Li 0.54348 0.46896 0.21748 0.0
C884 C 0.56039 0.45322 0.32281 0.0
N885 N 0.5749 0.43885 0.3572 0.0
C886 C 0.56166 0.45327 0.36246 0.0
C887 C 0.56653 0.44588 0.30065 0.0
C888 C 0.56903 0.44594 0.37931 0.0
C889 C 0.57381 0.43867 0.31857 0.0
C890 C 0.56155 0.50141 0.25793 0.0
C891 C 0.55971 0.5242 0.24404 0.0
N892 N 0.56898 0.53152 0.27449 0.0
C893 C 0.57111 0.50917 0.28896 0.0
C894 C 0.55584 0.50898 0.23515 0.0
C895 C 0.5747 0.52439 0.29692 0.0
C896 C 0.59829 0.48426 0.24228 0.0
N897 N 0.58771 0.48191 0.26982 0.0
C898 C 0.60778 0.4933 0.31682 0.0
C899 C 0.59219 0.48642 0.30641 0.0
C900 C 0.61901 0.49588 0.28921 0.0
C901 C 0.61415 0.49139 0.25138 0.0
H902 H 0.59444 0.48059 0.21336 0.0
H903 H 0.58361 0.48466 0.32769 0.0
C904 C 0.5317 0.47018 0.35888 0.0
N905 N 0.53555 0.47879 0.32646 0.0
C906 C 0.52621 0.47446 0.39052 0.0
C907 C 0.52873 0.49641 0.35488 0.0
C908 C 0.53395 0.49157 0.32374 0.0
C909 C 0.52482 0.48781 0.38878 0.0
H910 H 0.53278 0.45989 0.36002 0.0
H911 H 0.53641 0.49788 0.29733 0.0
C912 C 0.55301 0.44678 0.18975 0.0
N913 N 0.54808 0.42576 0.13244 0.0
C914 C 0.53972 0.44099 0.167 0.0
C915 C 0.56382 0.44195 0.18329 0.0
C916 C 0.53744 0.43037 0.13814 0.0
C917 C 0.5611 0.43128 0.15423 0.0
C918 C 0.51355 0.45532 0.26861 0.0
C919 C 0.50417 0.44349 0.294 0.0
C920 C 0.51033 0.46725 0.26116 0.0
C921 C 0.49179 0.44386 0.31183 0.0
C922 C 0.49784 0.4672 0.27953 0.0
N923 N 0.48892 0.45562 0.30431 0.0
C924 C 0.52642 0.42197 0.31049 0.0
C925 C 0.52767 0.41432 0.2474 0.0
C926 C 0.51933 0.40659 0.32291 0.0
N927 N 0.53055 0.42562 0.27337 0.0
C928 C 0.52038 0.3987 0.25851 0.0
C929 C 0.5161 0.39461 0.29683 0.0
H930 H 0.52864 0.43107 0.33066 0.0
H931 H 0.5309 0.41731 0.21802 0.0
C932 C 0.54844 0.4845 0.14508 0.0
N933 N 0.53765 0.47445 0.17008 0.0
C934 C 0.54386 0.48971 0.11314 0.0
C935 C 0.51719 0.47402 0.13315 0.0
C936 C 0.52225 0.46891 0.16413 0.0
C937 C 0.52801 0.48473 0.1071 0.0
H938 H 0.56064 0.48877 0.15043 0.0
H939 H 0.51385 0.46079 0.18408 0.0
O940 O 0.55322 0.46043 0.30602 0.0
O941 O 0.55797 0.48656 0.24941 0.0
O942 O 0.55558 0.45733 0.21785 0.0
O943 O 0.52597 0.45537 0.25163 0.0
H944 H 0.55703 0.45896 0.38003 0.0
H945 H 0.56568 0.44572 0.26999 0.0
H946 H 0.5701 0.4459 0.40996 0.0
H947 H 0.5786 0.43294 0.30177 0.0
H948 H 0.55533 0.53019 0.22676 0.0
H949 H 0.57558 0.50347 0.30692 0.0
H950 H 0.5484 0.50313 0.21105 0.0
H951 H 0.58203 0.53052 0.32096 0.0
H952 H 0.61104 0.49682 0.34613 0.0
H953 H 0.62248 0.49319 0.22927 0.0
H954 H 0.5233 0.46753 0.41621 0.0
H955 H 0.5275 0.50661 0.35228 0.0
H956 H 0.53114 0.44446 0.17191 0.0
H957 H 0.57422 0.44642 0.20055 0.0
H958 H 0.52718 0.42573 0.12041 0.0
H959 H 0.56935 0.42741 0.14895 0.0
H960 H 0.50643 0.43414 0.30001 0.0
H961 H 0.51762 0.47665 0.24206 0.0
H962 H 0.48448 0.43481 0.33167 0.0
H963 H 0.49531 0.47644 0.2743 0.0
H964 H 0.51657 0.40419 0.35284 0.0
H965 H 0.51795 0.38993 0.2371 0.0
H966 H 0.55271 0.49767 0.0937 0.0
H967 H 0.50489 0.46993 0.13063 0.0
Li968 Li 0.54045 0.09552 0.26252 0.0
Li969 Li 0.54289 0.07406 0.2845 0.0
Li970 Li 0.56544 0.0957 0.2598 0.0
Li971 Li 0.54352 0.07703 0.21654 0.0
C972 C 0.56058 0.10975 0.32146 0.0
N973 N 0.57508 0.13889 0.35459 0.0
C974 C 0.56145 0.11127 0.36109 0.0
C975 C 0.56709 0.12308 0.29869 0.0
C976 C 0.56882 0.1261 0.3773 0.0
C977 C 0.57437 0.13769 0.31598 0.0
C978 C 0.51225 0.0622 0.26551 0.0
C979 C 0.48867 0.03744 0.26017 0.0
N980 N 0.48393 0.03992 0.29447 0.0
C981 C 0.50712 0.06452 0.30064 0.0
C982 C 0.50296 0.04857 0.24503 0.0
C983 C 0.49278 0.05311 0.31483 0.0
C984 C 0.52709 0.115 0.24555 0.0
N985 N 0.53044 0.10742 0.2729 0.0
C986 C 0.51944 0.11608 0.32098 0.0
C987 C 0.52676 0.10785 0.31 0.0
C988 C 0.51562 0.12391 0.29353 0.0
C989 C 0.51963 0.12335 0.25529 0.0
H990 H 0.53012 0.11448 0.21621 0.0
H991 H 0.52954 0.10179 0.33132 0.0
C992 C 0.54512 0.06449 0.35732 0.0
N993 N 0.5367 0.05918 0.32474 0.0
C994 C 0.54155 0.05479 0.38887 0.0
C995 C 0.52084 0.03417 0.3526 0.0
C996 C 0.52495 0.04424 0.32159 0.0
C997 C 0.5291 0.03944 0.387 0.0
H998 H 0.55471 0.07628 0.3587 0.0
H999 H 0.51877 0.04006 0.29505 0.0
C1000 C 0.56456 0.10885 0.18828 0.0
N1001 N 0.58442 0.12516 0.12925 0.0
C1002 C 0.57145 0.10208 0.16677 0.0
C1003 C 0.56776 0.1239 0.17984 0.0
C1004 C 0.58145 0.11051 0.13699 0.0
C1005 C 0.57785 0.13197 0.14988 0.0
C1006 C 0.55789 0.06054 0.2606 0.0
C1007 C 0.56906 0.0617 0.28663 0.0
C1008 C 0.54631 0.04591 0.24827 0.0
C1009 C 0.56839 0.04816 0.30015 0.0
C1010 C 0.54606 0.03264 0.26239 0.0
N1011 N 0.557 0.03403 0.28786 0.0
C1012 C 0.59124 0.10592 0.30532 0.0
C1013 C 0.59854 0.11808 0.24502 0.0
C1014 C 0.60658 0.11407 0.31799 0.0
N1015 N 0.58746 0.108 0.26946 0.0
C1016 C 0.61416 0.12638 0.2564 0.0
C1017 C 0.61839 0.12442 0.29342 0.0
H1018 H 0.58223 0.09793 0.32439 0.0
H1019 H 0.59538 0.11976 0.21676 0.0
C1020 C 0.52389 0.06281 0.15184 0.0
N1021 N 0.53738 0.06581 0.16898 0.0
C1022 C 0.5182 0.05276 0.12046 0.0
C1023 C 0.54071 0.04958 0.12395 0.0
C1024 C 0.54589 0.05957 0.15537 0.0
C1025 C 0.52654 0.04581 0.10638 0.0
H1026 H 0.51725 0.06779 0.16337 0.0
H1027 H 0.55646 0.0619 0.16978 0.0
O1028 O 0.55338 0.09525 0.30533 0.0
O1029 O 0.52627 0.07322 0.25112 0.0
O1030 O 0.55467 0.10079 0.21741 0.0
O1031 O 0.55811 0.07365 0.24772 0.0
H1032 H 0.55643 0.1011 0.37918 0.0
H1033 H 0.56657 0.12221 0.26803 0.0
H1034 H 0.56956 0.12743 0.40793 0.0
H1035 H 0.57946 0.14809 0.29868 0.0
H1036 H 0.48138 0.02681 0.24471 0.0
H1037 H 0.51425 0.07488 0.31708 0.0
H1038 H 0.50679 0.04651 0.21795 0.0
H1039 H 0.48871 0.05472 0.3421 0.0
H1040 H 0.51695 0.11641 0.35087 0.0
H1041 H 0.51681 0.12907 0.23303 0.0
H1042 H 0.54855 0.05927 0.41433 0.0
H1043 H 0.51112 0.02248 0.34974 0.0
H1044 H 0.56932 0.09057 0.17343 0.0
H1045 H 0.5625 0.12929 0.19628 0.0
H1046 H 0.58691 0.10544 0.12018 0.0
H1047 H 0.58046 0.14364 0.14303 0.0
H1048 H 0.5781 0.07292 0.29644 0.0
H1049 H 0.53742 0.04477 0.22861 0.0
H1050 H 0.57692 0.04888 0.32045 0.0
H1051 H 0.5371 0.02124 0.25332 0.0
H1052 H 0.60906 0.11237 0.34704 0.0
H1053 H 0.6228 0.1341 0.2362 0.0
H1054 H 0.50731 0.05034 0.10763 0.0
H1055 H 0.54746 0.04437 0.11451 0.0
Li1056 Li 0.4718 0.93312 0.78832 0.0
Li1057 Li 0.4749 0.91435 0.74507 0.0
Li1058 Li 0.47407 0.93604 0.72028 0.0
Li1059 Li 0.45016 0.91462 0.74235 0.0
C1060 C 0.50258 0.9495 0.74424 0.0
N1061 N 0.52824 0.97603 0.71727 0.0
C1062 C 0.51262 0.94836 0.71827 0.0
C1063 C 0.50564 0.96413 0.75667 0.0
C1064 C 0.52551 0.96191 0.70489 0.0
C1065 C 0.51867 0.9774 0.74269 0.0
C1066 C 0.46061 0.90096 0.81625 0.0
C1067 C 0.45034 0.8774 0.85309 0.0
N1068 N 0.46351 0.88392 0.87452 0.0
C1069 C 0.47404 0.90743 0.83858 0.0
C1070 C 0.44865 0.88584 0.82351 0.0
C1071 C 0.47528 0.89863 0.86795 0.0
C1072 C 0.46699 0.94798 0.85281 0.0
N1073 N 0.47713 0.94445 0.83577 0.0
C1074 C 0.49705 0.96056 0.88011 0.0
C1075 C 0.49185 0.95032 0.8492 0.0
C1076 C 0.4871 0.96502 0.89736 0.0
C1077 C 0.47175 0.9583 0.88371 0.0
H1078 H 0.45539 0.94332 0.84136 0.0
H1079 H 0.49977 0.94747 0.83503 0.0
C1080 C 0.49055 0.90414 0.69978 0.0
N1081 N 0.48455 0.90197 0.7355 0.0
C1082 C 0.49776 0.89599 0.68723 0.0
C1083 C 0.4927 0.88346 0.74861 0.0
C1084 C 0.48539 0.89178 0.75989 0.0
C1085 C 0.49905 0.88552 0.71176 0.0
H1086 H 0.48963 0.9122 0.68075 0.0
H1087 H 0.48045 0.89004 0.78802 0.0
C1088 C 0.45536 0.94798 0.73916 0.0
N1089 N 0.44934 0.97024 0.70983 0.0
C1090 C 0.4479 0.9456 0.70403 0.0
C1091 C 0.45973 0.96167 0.75945 0.0
C1092 C 0.44498 0.957 0.68964 0.0
C1093 C 0.45658 0.97278 0.74413 0.0
C1094 C 0.456 0.90035 0.68332 0.0
C1095 C 0.45532 0.89886 0.64368 0.0
C1096 C 0.44918 0.88701 0.70603 0.0
C1097 C 0.44783 0.88405 0.62741 0.0
C1098 C 0.44181 0.8724 0.68868 0.0
N1099 N 0.44129 0.87124 0.65006 0.0
C1100 C 0.48582 0.94556 0.64739 0.0
C1101 C 0.48603 0.96587 0.6832 0.0
C1102 C 0.49193 0.95526 0.61582 0.0
N1103 N 0.48277 0.9509 0.68001 0.0
C1104 C 0.49195 0.97592 0.65217 0.0
C1105 C 0.49487 0.97062 0.61772 0.0
H1106 H 0.48358 0.93376 0.64598 0.0
H1107 H 0.48407 0.97006 0.70977 0.0
C1108 C 0.41733 0.89516 0.75935 0.0
N1109 N 0.42824 0.90274 0.732 0.0
C1110 C 0.40152 0.88678 0.74962 0.0
C1111 C 0.40857 0.89404 0.68393 0.0
C1112 C 0.42412 0.9023 0.6949 0.0
C1113 C 0.39694 0.8862 0.71138 0.0
H1114 H 0.42088 0.89568 0.7887 0.0
H1115 H 0.43295 0.90836 0.67356 0.0
O1116 O 0.48969 0.93639 0.75699 0.0
O1117 O 0.45909 0.90939 0.78752 0.0
O1118 O 0.45835 0.93697 0.75373 0.0
O1119 O 0.46332 0.91484 0.69953 0.0
H1120 H 0.51045 0.93715 0.70838 0.0
H1121 H 0.49786 0.96525 0.77629 0.0
H1122 H 0.53333 0.9612 0.68464 0.0
H1123 H 0.52111 0.9888 0.75185 0.0
H1124 H 0.44119 0.86567 0.85903 0.0
H1125 H 0.4835 0.919 0.83288 0.0
H1126 H 0.43816 0.88068 0.80646 0.0
H1127 H 0.48564 0.90347 0.88538 0.0
H1128 H 0.50887 0.96512 0.88994 0.0
H1129 H 0.46366 0.96145 0.89565 0.0
H1130 H 0.50209 0.89777 0.65831 0.0
H1131 H 0.49349 0.87564 0.76874 0.0
H1132 H 0.44465 0.93521 0.68772 0.0
H1133 H 0.46564 0.96378 0.78652 0.0
H1134 H 0.43929 0.95535 0.66237 0.0
H1135 H 0.45995 0.98345 0.75945 0.0
H1136 H 0.46047 0.90905 0.62564 0.0
H1137 H 0.44955 0.88786 0.73669 0.0
H1138 H 0.44721 0.88274 0.59677 0.0
H1139 H 0.4365 0.862 0.70593 0.0
H1140 H 0.4944 0.95076 0.59031 0.0
H1141 H 0.49396 0.98763 0.65506 0.0
H1142 H 0.39299 0.88104 0.77188 0.0
H1143 H 0.40575 0.8937 0.65403 0.0
Li1144 Li 0.09843 0.56277 0.74498 0.0
Li1145 Li 0.0797 0.54064 0.78778 0.0
Li1146 Li 0.09831 0.53782 0.74151 0.0
Li1147 Li 0.07681 0.54028 0.71979 0.0
C1148 C 0.11185 0.56154 0.81608 0.0
N1149 N 0.12883 0.58102 0.87514 0.0
C1150 C 0.10521 0.56799 0.83962 0.0
C1151 C 0.12711 0.56495 0.82258 0.0
C1152 C 0.11398 0.57781 0.86935 0.0
C1153 C 0.13552 0.57485 0.85256 0.0
C1154 C 0.06348 0.55543 0.7435 0.0
C1155 C 0.03564 0.54401 0.74047 0.0
N1156 N 0.03739 0.55503 0.71483 0.0
C1157 C 0.06501 0.56669 0.7173 0.0
C1158 C 0.04868 0.54401 0.75531 0.0
C1159 C 0.05168 0.56627 0.70306 0.0
C1160 C 0.10955 0.58899 0.70001 0.0
N1161 N 0.1108 0.58488 0.73624 0.0
C1162 C 0.12867 0.61149 0.75172 0.0
C1163 C 0.12016 0.59578 0.7621 0.0
C1164 C 0.12773 0.61594 0.71426 0.0
C1165 C 0.11802 0.60444 0.68829 0.0
H1166 H 0.10193 0.58019 0.68001 0.0
H1167 H 0.12111 0.59239 0.79067 0.0
C1168 C 0.06541 0.52083 0.8522 0.0
N1169 N 0.0684 0.53434 0.83516 0.0
C1170 C 0.05539 0.51513 0.88361 0.0
C1171 C 0.05218 0.53763 0.88027 0.0
C1172 C 0.06214 0.54282 0.84883 0.0
C1173 C 0.04845 0.52347 0.89781 0.0
H1174 H 0.07042 0.51422 0.84064 0.0
H1175 H 0.06449 0.55341 0.83451 0.0
C1176 C 0.11248 0.55814 0.68281 0.0
N1177 N 0.14157 0.57278 0.64949 0.0
C1178 C 0.11394 0.55911 0.64317 0.0
C1179 C 0.12584 0.56461 0.70549 0.0
C1180 C 0.12875 0.56656 0.62687 0.0
C1181 C 0.14043 0.57196 0.68811 0.0
C1182 C 0.06535 0.50949 0.73781 0.0
C1183 C 0.06788 0.50484 0.70223 0.0
C1184 C 0.05187 0.49965 0.75818 0.0
C1185 C 0.05684 0.49043 0.68751 0.0
C1186 C 0.04111 0.48531 0.74251 0.0
N1187 N 0.04379 0.48104 0.70779 0.0
C1188 C 0.11768 0.52431 0.75826 0.0
C1189 C 0.11093 0.52446 0.69367 0.0
C1190 C 0.12607 0.51691 0.74844 0.0
N1191 N 0.11028 0.52788 0.73088 0.0
C1192 C 0.11922 0.51721 0.68261 0.0
C1193 C 0.12687 0.51318 0.71008 0.0
H1194 H 0.11698 0.52713 0.7877 0.0
H1195 H 0.105 0.52739 0.67231 0.0
C1196 C 0.06696 0.54258 0.6472 0.0
N1197 N 0.06187 0.53406 0.6797 0.0
C1198 C 0.05715 0.53884 0.61578 0.0
C1199 C 0.03692 0.51772 0.65196 0.0
C1200 C 0.04704 0.52205 0.68293 0.0
C1201 C 0.04202 0.52611 0.61784 0.0
H1202 H 0.07869 0.55229 0.64571 0.0
H1203 H 0.04302 0.51584 0.70947 0.0
O1204 O 0.10342 0.55177 0.78706 0.0
O1205 O 0.07637 0.55539 0.75701 0.0
O1206 O 0.09801 0.55088 0.69904 0.0
O1207 O 0.07599 0.52357 0.75269 0.0
H1208 H 0.09351 0.56565 0.83458 0.0
H1209 H 0.13238 0.55999 0.80466 0.0
H1210 H 0.10902 0.58294 0.88771 0.0
H1211 H 0.14735 0.57762 0.85791 0.0
H1212 H 0.02411 0.53518 0.74913 0.0
H1213 H 0.07636 0.57559 0.70785 0.0
H1214 H 0.04727 0.53506 0.77513 0.0
H1215 H 0.05269 0.57486 0.68261 0.0
H1216 H 0.13608 0.62003 0.77256 0.0
H1217 H 0.1168 0.6074 0.6593 0.0
H1218 H 0.053 0.50425 0.89642 0.0
H1219 H 0.04698 0.54437 0.8898 0.0
H1220 H 0.10374 0.55413 0.62516 0.0
H1221 H 0.125 0.564 0.73614 0.0
H1222 H 0.13004 0.56738 0.59623 0.0
H1223 H 0.15085 0.57702 0.70534 0.0
H1224 H 0.0781 0.5124 0.68583 0.0
H1225 H 0.04965 0.5031 0.78562 0.0
H1226 H 0.05861 0.48674 0.6599 0.0
H1227 H 0.0306 0.47761 0.7579 0.0
H1228 H 0.13165 0.51392 0.77072 0.0
H1229 H 0.11973 0.51494 0.65264 0.0
H1230 H 0.06146 0.54558 0.58987 0.0
H1231 H 0.02522 0.50799 0.65469 0.0
Li1232 Li 0.47038 0.54094 0.79145 0.0
Li1233 Li 0.44953 0.53804 0.75012 0.0
Li1234 Li 0.47154 0.53853 0.72164 0.0
Li1235 Li 0.47311 0.56311 0.74716 0.0
C1236 C 0.45911 0.51079 0.76561 0.0
N1237 N 0.46421 0.48653 0.78233 0.0
C1238 C 0.44657 0.49598 0.77304 0.0
C1239 C 0.47423 0.51326 0.76685 0.0
C1240 C 0.44939 0.48386 0.78139 0.0
C1241 C 0.47658 0.50085 0.77528 0.0
C1242 C 0.44725 0.55185 0.8136 0.0
C1243 C 0.43121 0.56195 0.83671 0.0
N1244 N 0.42209 0.54829 0.85508 0.0
C1245 C 0.43782 0.53796 0.83292 0.0
C1246 C 0.44402 0.56399 0.81562 0.0
C1247 C 0.4251 0.53637 0.85364 0.0
C1248 C 0.49107 0.54567 0.8533 0.0
N1249 N 0.47674 0.53592 0.83879 0.0
C1250 C 0.47255 0.51673 0.88572 0.0
C1251 C 0.46731 0.52187 0.85511 0.0
C1252 C 0.48755 0.52627 0.90073 0.0
C1253 C 0.49668 0.54113 0.8845 0.0
H1254 H 0.49834 0.55684 0.84002 0.0
H1255 H 0.45589 0.51435 0.84344 0.0
C1256 C 0.42047 0.51324 0.72942 0.0
N1257 N 0.42731 0.52807 0.74274 0.0
C1258 C 0.40497 0.50562 0.71765 0.0
C1259 C 0.40358 0.52845 0.73443 0.0
C1260 C 0.41919 0.53572 0.74554 0.0
C1261 C 0.39635 0.51328 0.71963 0.0
H1262 H 0.42726 0.50756 0.72635 0.0
H1263 H 0.42497 0.5477 0.75461 0.0
C1264 C 0.5026 0.56021 0.74482 0.0
N1265 N 0.53308 0.57171 0.72227 0.0
C1266 C 0.50928 0.57207 0.71772 0.0
C1267 C 0.51155 0.55442 0.76098 0.0
C1268 C 0.52467 0.57766 0.70653 0.0
C1269 C 0.5269 0.56032 0.74906 0.0
C1270 C 0.44953 0.5466 0.67905 0.0
C1271 C 0.44376 0.53343 0.65588 0.0
C1272 C 0.44301 0.55621 0.67701 0.0
C1273 C 0.43141 0.53 0.63122 0.0
C1274 C 0.43069 0.55238 0.65194 0.0
N1275 N 0.42518 0.53945 0.6298 0.0
C1276 C 0.47333 0.51602 0.67373 0.0
C1277 C 0.48828 0.54229 0.65455 0.0
C1278 C 0.47849 0.51122 0.64242 0.0
N1279 N 0.4786 0.53138 0.67981 0.0
C1280 C 0.49363 0.53801 0.62263 0.0
C1281 C 0.48883 0.52227 0.61634 0.0
H1282 H 0.46491 0.50739 0.69266 0.0
H1283 H 0.49156 0.55431 0.65868 0.0
C1284 C 0.49036 0.59585 0.76487 0.0
N1285 N 0.48266 0.58496 0.73755 0.0
C1286 C 0.49806 0.61169 0.75552 0.0
C1287 C 0.48958 0.60472 0.6904 0.0
C1288 C 0.48214 0.5891 0.70091 0.0
C1289 C 0.49777 0.6163 0.71775 0.0
H1290 H 0.49072 0.59225 0.79374 0.0
H1291 H 0.4763 0.58023 0.6795 0.0
O1292 O 0.45655 0.52287 0.75849 0.0
O1293 O 0.45968 0.55359 0.79301 0.0
O1294 O 0.48759 0.55473 0.75646 0.0
O1295 O 0.4613 0.5499 0.70417 0.0
H1296 H 0.43479 0.4939 0.77274 0.0
H1297 H 0.48399 0.52459 0.76096 0.0
H1298 H 0.4398 0.47235 0.78725 0.0
H1299 H 0.48823 0.50261 0.7762 0.0
H1300 H 0.4285 0.57121 0.83841 0.0
H1301 H 0.4402 0.52847 0.83155 0.0
H1302 H 0.45128 0.57482 0.80085 0.0
H1303 H 0.41763 0.52565 0.86855 0.0
H1304 H 0.46502 0.50512 0.89643 0.0
H1305 H 0.50813 0.54916 0.89537 0.0
H1306 H 0.39986 0.4939 0.70663 0.0
H1307 H 0.39744 0.53489 0.73585 0.0
H1308 H 0.50263 0.5768 0.70507 0.0
H1309 H 0.50679 0.54553 0.78271 0.0
H1310 H 0.52991 0.58673 0.68532 0.0
H1311 H 0.53392 0.55588 0.76123 0.0
H1312 H 0.44861 0.52582 0.65731 0.0
H1313 H 0.44724 0.56635 0.69506 0.0
H1314 H 0.42674 0.51978 0.61333 0.0
H1315 H 0.42545 0.55963 0.65026 0.0
H1316 H 0.47442 0.49895 0.63882 0.0
H1317 H 0.50118 0.54691 0.60269 0.0
H1318 H 0.50416 0.62022 0.7776 0.0
H1319 H 0.48929 0.60766 0.66083 0.0
Li1320 Li 0.60558 0.80451 0.61927 0.0
Li1321 Li 0.58473 0.78052 0.59634 0.0
Li1322 Li 0.60277 0.80302 0.55116 0.0
Li1323 Li 0.58339 0.80477 0.59559 0.0
C1324 C 0.62064 0.79058 0.59766 0.0
N1325 N 0.64787 0.79327 0.62562 0.0
C1326 C 0.62017 0.78083 0.62693 0.0
C1327 C 0.63495 0.80164 0.58244 0.0
C1328 C 0.63407 0.7824 0.64074 0.0
C1329 C 0.64859 0.80282 0.59698 0.0
C1330 C 0.56989 0.78481 0.65642 0.0
C1331 C 0.54199 0.76964 0.65061 0.0
N1332 N 0.54074 0.76855 0.68919 0.0
C1333 C 0.56831 0.78356 0.69605 0.0
C1334 C 0.5566 0.77781 0.63355 0.0
C1335 C 0.55349 0.77528 0.71204 0.0
C1336 C 0.63568 0.82382 0.6539 0.0
N1337 N 0.62072 0.81234 0.65914 0.0
C1338 C 0.62554 0.81047 0.72498 0.0
C1339 C 0.61563 0.80548 0.69363 0.0
C1340 C 0.64092 0.8226 0.72075 0.0
C1341 C 0.64602 0.8292 0.68453 0.0
H1342 H 0.63961 0.8288 0.626 0.0
H1343 H 0.60387 0.79602 0.69671 0.0
C1344 C 0.564 0.74778 0.58012 0.0
N1345 N 0.57346 0.75861 0.60589 0.0
C1346 C 0.55561 0.73204 0.59038 0.0
C1347 C 0.56692 0.739 0.65324 0.0
C1348 C 0.57506 0.7545 0.6418 0.0
C1349 C 0.557 0.72746 0.62747 0.0
H1350 H 0.56289 0.75135 0.55175 0.0
H1351 H 0.58252 0.76337 0.66188 0.0
C1352 C 0.61527 0.83432 0.60013 0.0
N1353 N 0.63541 0.8628 0.63241 0.0
C1354 C 0.6117 0.83851 0.63508 0.0
C1355 C 0.62909 0.84463 0.58157 0.0
C1356 C 0.62204 0.85295 0.65096 0.0
C1357 C 0.63911 0.85898 0.59835 0.0
C1358 C 0.56959 0.78991 0.52433 0.0
C1359 C 0.5752 0.80229 0.49867 0.0
C1360 C 0.5543 0.77767 0.52095 0.0
C1361 C 0.56537 0.80233 0.4703 0.0
C1362 C 0.54481 0.77815 0.49223 0.0
N1363 N 0.5505 0.79037 0.46772 0.0
C1364 C 0.61874 0.79901 0.48895 0.0
C1365 C 0.61869 0.8228 0.48773 0.0
C1366 C 0.62884 0.80364 0.45771 0.0
N1367 N 0.61407 0.80868 0.50367 0.0
C1368 C 0.62871 0.82786 0.45634 0.0
C1369 C 0.63417 0.81835 0.44124 0.0
H1370 H 0.61504 0.7879 0.50233 0.0
H1371 H 0.61497 0.83038 0.50011 0.0
C1372 C 0.56863 0.81648 0.64216 0.0
N1373 N 0.57031 0.81387 0.60485 0.0
C1374 C 0.55978 0.82321 0.65271 0.0
C1375 C 0.55487 0.82516 0.58624 0.0
C1376 C 0.56369 0.81815 0.57693 0.0
C1377 C 0.55277 0.82768 0.62464 0.0
H1378 H 0.57438 0.81359 0.66403 0.0
H1379 H 0.56536 0.81637 0.54745 0.0
O1380 O 0.60719 0.78947 0.58434 0.0
O1381 O 0.58439 0.79283 0.64035 0.0
O1382 O 0.6053 0.8202 0.58418 0.0
O1383 O 0.57913 0.78954 0.55193 0.0
H1384 H 0.60921 0.77223 0.63905 0.0
H1385 H 0.63555 0.80943 0.56013 0.0
H1386 H 0.63389 0.77499 0.66353 0.0
H1387 H 0.65974 0.8114 0.58566 0.0
H1388 H 0.53163 0.76417 0.63316 0.0
H1389 H 0.5784 0.78896 0.71435 0.0
H1390 H 0.55754 0.7787 0.603 0.0
H1391 H 0.55212 0.77424 0.74265 0.0
H1392 H 0.62124 0.80478 0.75217 0.0
H1393 H 0.65779 0.83857 0.68001 0.0
H1394 H 0.54821 0.72356 0.56942 0.0
H1395 H 0.56817 0.73615 0.6823 0.0
H1396 H 0.60123 0.83059 0.65014 0.0
H1397 H 0.63216 0.84153 0.55477 0.0
H1398 H 0.61945 0.8563 0.6781 0.0
H1399 H 0.64986 0.86704 0.58436 0.0
H1400 H 0.58693 0.81189 0.50107 0.0
H1401 H 0.5498 0.76787 0.54019 0.0
H1402 H 0.56954 0.8119 0.45043 0.0
H1403 H 0.53295 0.76878 0.48937 0.0
H1404 H 0.63256 0.79582 0.44683 0.0
H1405 H 0.6326 0.83935 0.44497 0.0
H1406 H 0.55879 0.82526 0.6826 0.0
H1407 H 0.54969 0.82849 0.56367 0.0
Li1408 Li 0.2318 0.80525 0.59678 0.0
Li1409 Li 0.20813 0.80334 0.6188 0.0
Li1410 Li 0.20675 0.78052 0.59416 0.0
Li1411 Li 0.21036 0.80258 0.55079 0.0
C1412 C 0.22554 0.7851 0.65605 0.0
N1413 N 0.23964 0.77014 0.68956 0.0
C1414 C 0.22604 0.78418 0.6957 0.0
C1415 C 0.23222 0.7784 0.63345 0.0
C1416 C 0.23322 0.77658 0.7121 0.0
C1417 C 0.23929 0.77089 0.65093 0.0
C1418 C 0.22817 0.83396 0.60057 0.0
C1419 C 0.22951 0.85884 0.59646 0.0
N1420 N 0.23638 0.86265 0.63134 0.0
C1421 C 0.23526 0.83814 0.63632 0.0
C1422 C 0.22527 0.84438 0.58041 0.0
C1423 C 0.23931 0.85269 0.65142 0.0
C1424 C 0.26443 0.81851 0.57855 0.0
N1425 N 0.25374 0.81492 0.60666 0.0
C1426 C 0.27379 0.82523 0.65392 0.0
C1427 C 0.25816 0.81819 0.64374 0.0
C1428 C 0.28514 0.82913 0.6257 0.0
C1429 C 0.2803 0.82574 0.58748 0.0
H1430 H 0.26065 0.81581 0.54926 0.0
H1431 H 0.24954 0.81541 0.66563 0.0
C1432 C 0.19625 0.80167 0.69146 0.0
N1433 N 0.19976 0.81002 0.65867 0.0
C1434 C 0.19042 0.80579 0.7227 0.0
C1435 C 0.19176 0.82696 0.68574 0.0
C1436 C 0.1973 0.82225 0.65499 0.0
C1437 C 0.18836 0.81873 0.72015 0.0
H1438 H 0.198 0.7918 0.69332 0.0
H1439 H 0.1996 0.82835 0.62824 0.0
C1440 C 0.22108 0.78116 0.52295 0.0
N1441 N 0.21819 0.76129 0.46447 0.0
C1442 C 0.20785 0.7746 0.49989 0.0
C1443 C 0.23286 0.77766 0.51627 0.0
C1444 C 0.20661 0.76458 0.47044 0.0
C1445 C 0.23116 0.76756 0.48658 0.0
C1446 C 0.17958 0.7886 0.59541 0.0
C1447 C 0.1697 0.77759 0.62189 0.0
C1448 C 0.17654 0.80019 0.58308 0.0
C1449 C 0.15699 0.77845 0.63589 0.0
C1450 C 0.16369 0.80064 0.5977 0.0
N1451 N 0.15428 0.78986 0.62361 0.0
C1452 C 0.19119 0.75463 0.6397 0.0
C1453 C 0.19514 0.74732 0.57842 0.0
C1454 C 0.18387 0.73924 0.652 0.0
N1455 N 0.19672 0.75845 0.60356 0.0
C1456 C 0.18764 0.73166 0.5894 0.0
C1457 C 0.18186 0.7274 0.62675 0.0
H1458 H 0.19258 0.76365 0.65926 0.0
H1459 H 0.19963 0.75048 0.54989 0.0
C1460 C 0.21575 0.82229 0.48622 0.0
N1461 N 0.2053 0.80877 0.50332 0.0
C1462 C 0.21138 0.82788 0.45466 0.0
C1463 C 0.18577 0.80526 0.45805 0.0
C1464 C 0.19058 0.80019 0.48965 0.0
C1465 C 0.19613 0.81941 0.44038 0.0
H1466 H 0.22736 0.82899 0.49779 0.0
H1467 H 0.18238 0.78962 0.50409 0.0
O1468 O 0.21849 0.79251 0.63973 0.0
O1469 O 0.22402 0.81974 0.58537 0.0
O1470 O 0.22262 0.79112 0.55169 0.0
O1471 O 0.19231 0.78821 0.58211 0.0
H1472 H 0.22096 0.78934 0.71364 0.0
H1473 H 0.23196 0.77895 0.60279 0.0
H1474 H 0.23369 0.77579 0.74275 0.0
H1475 H 0.24449 0.76566 0.63377 0.0
H1476 H 0.2273 0.867 0.58124 0.0
H1477 H 0.2373 0.83012 0.65259 0.0
H1478 H 0.21967 0.8413 0.55284 0.0
H1479 H 0.24471 0.85603 0.67918 0.0
H1480 H 0.27696 0.82786 0.68362 0.0
H1481 H 0.28867 0.82849 0.56482 0.0
H1482 H 0.1879 0.79917 0.74883 0.0
H1483 H 0.19006 0.83685 0.68263 0.0
H1484 H 0.19854 0.77699 0.50509 0.0
H1485 H 0.2432 0.78271 0.53383 0.0
H1486 H 0.1964 0.75936 0.45246 0.0
H1487 H 0.24017 0.76473 0.4811 0.0
H1488 H 0.17188 0.76855 0.63173 0.0
H1489 H 0.18419 0.80895 0.56303 0.0
H1490 H 0.1493 0.77005 0.65655 0.0
H1491 H 0.16127 0.80961 0.58863 0.0
H1492 H 0.18002 0.73675 0.68129 0.0
H1493 H 0.18625 0.72301 0.56863 0.0
H1494 H 0.21982 0.83877 0.44177 0.0
H1495 H 0.17385 0.79843 0.44847 0.0
Li1496 Li 0.20797 0.4292 0.59492 0.0
Li1497 Li 0.20964 0.40753 0.6185 0.0
Li1498 Li 0.2327 0.42892 0.59379 0.0
Li1499 Li 0.21088 0.41038 0.55042 0.0
C1500 C 0.22794 0.44337 0.65452 0.0
N1501 N 0.24302 0.47259 0.68716 0.0
C1502 C 0.22908 0.44499 0.69411 0.0
C1503 C 0.23448 0.45663 0.63151 0.0
C1504 C 0.23675 0.45985 0.71007 0.0
C1505 C 0.24206 0.47129 0.64857 0.0
C1506 C 0.17902 0.3965 0.59613 0.0
C1507 C 0.15477 0.37263 0.58732 0.0
N1508 N 0.14955 0.37513 0.6209 0.0
C1509 C 0.1734 0.39886 0.63047 0.0
C1510 C 0.16963 0.38331 0.57428 0.0
C1511 C 0.15848 0.38791 0.64255 0.0
C1512 C 0.19503 0.44892 0.5765 0.0
N1513 N 0.19819 0.44139 0.60435 0.0
C1514 C 0.1874 0.4506 0.65165 0.0
C1515 C 0.19447 0.44205 0.64131 0.0
C1516 C 0.18395 0.45851 0.62371 0.0
C1517 C 0.18779 0.45755 0.58559 0.0
H1518 H 0.1981 0.44822 0.5473 0.0
H1519 H 0.19694 0.43587 0.66295 0.0
C1520 C 0.21114 0.39755 0.69159 0.0
N1521 N 0.20264 0.39272 0.65901 0.0
C1522 C 0.20694 0.38775 0.72313 0.0
C1523 C 0.18535 0.36808 0.68694 0.0
C1524 C 0.19012 0.37818 0.65591 0.0
C1525 C 0.19377 0.37289 0.7211 0.0
H1526 H 0.22123 0.40905 0.69301 0.0
H1527 H 0.18388 0.37432 0.62936 0.0
C1528 C 0.23218 0.4406 0.51991 0.0
N1529 N 0.25173 0.45362 0.45825 0.0
C1530 C 0.23892 0.43274 0.50253 0.0
C1531 C 0.23538 0.45508 0.50601 0.0
C1532 C 0.24875 0.43951 0.47133 0.0
C1533 C 0.24531 0.46148 0.47481 0.0
C1534 C 0.22476 0.3938 0.59766 0.0
C1535 C 0.23645 0.3954 0.62256 0.0
C1536 C 0.21268 0.37897 0.58828 0.0
C1537 C 0.23577 0.38211 0.63797 0.0
C1538 C 0.21243 0.36597 0.60423 0.0
N1539 N 0.22387 0.3678 0.62858 0.0
C1540 C 0.2587 0.43934 0.63942 0.0
C1541 C 0.26561 0.45146 0.57896 0.0
C1542 C 0.27407 0.44781 0.6518 0.0
N1543 N 0.25471 0.44125 0.6036 0.0
C1544 C 0.28123 0.46009 0.59006 0.0
C1545 C 0.28561 0.45837 0.62704 0.0
H1546 H 0.24984 0.43125 0.65862 0.0
H1547 H 0.26228 0.45311 0.55089 0.0
C1548 C 0.19326 0.39802 0.48121 0.0
N1549 N 0.20497 0.39893 0.50312 0.0
C1550 C 0.1879 0.38809 0.44953 0.0
C1551 C 0.20687 0.38037 0.46333 0.0
C1552 C 0.21198 0.39057 0.49427 0.0
C1553 C 0.19453 0.37882 0.44047 0.0
H1554 H 0.1878 0.40472 0.48889 0.0
H1555 H 0.22128 0.39147 0.512 0.0
O1556 O 0.2205 0.42882 0.63864 0.0
O1557 O 0.1936 0.40703 0.58379 0.0
O1558 O 0.22247 0.43421 0.55038 0.0
O1559 O 0.22502 0.40668 0.58296 0.0
H1560 H 0.22406 0.43485 0.71235 0.0
H1561 H 0.23375 0.45568 0.60086 0.0
H1562 H 0.2377 0.46127 0.74067 0.0
H1563 H 0.24717 0.48164 0.63111 0.0
H1564 H 0.14739 0.36235 0.57078 0.0
H1565 H 0.18058 0.40888 0.64794 0.0
H1566 H 0.17383 0.38128 0.54768 0.0
H1567 H 0.15401 0.38954 0.6692 0.0
H1568 H 0.18442 0.45078 0.68125 0.0
H1569 H 0.18538 0.46352 0.56316 0.0
H1570 H 0.21371 0.39185 0.74906 0.0
H1571 H 0.17529 0.35658 0.68414 0.0
H1572 H 0.23677 0.42166 0.51334 0.0
H1573 H 0.23026 0.4613 0.51927 0.0
H1574 H 0.25408 0.43359 0.45764 0.0
H1575 H 0.24791 0.47268 0.46376 0.0
H1576 H 0.24592 0.40676 0.62999 0.0
H1577 H 0.2034 0.37751 0.56953 0.0
H1578 H 0.2447 0.38319 0.65741 0.0
H1579 H 0.20307 0.35443 0.59746 0.0
H1580 H 0.27692 0.44598 0.6804 0.0
H1581 H 0.28973 0.46823 0.5702 0.0
H1582 H 0.17858 0.38762 0.4326 0.0
H1583 H 0.21227 0.3734 0.45836 0.0
H1584 H 0.21057 0.36912 0.39419 0.0
H1585 H 0.14025 0.31505 0.25774 0.0
H1586 H 0.16444 0.36195 0.41278 0.0
H1587 H 0.17828 0.30679 0.28041 0.0
H1588 H 0.1499 0.33464 0.30814 0.0
H1589 H 0.2001 0.34904 0.34528 0.0
C1590 C 0.19824 0.36334 0.38833 0.0
C1591 C 0.18842 0.36728 0.40839 0.0
C1592 C 0.15607 0.32848 0.302 0.0
C1593 C 0.17643 0.34442 0.35107 0.0
C1594 C 0.15051 0.31715 0.27336 0.0
C1595 C 0.15842 0.30911 0.26427 0.0
C1596 C 0.16981 0.33207 0.32142 0.0
C1597 C 0.1719 0.31281 0.28536 0.0
C1598 C 0.19229 0.35189 0.36012 0.0
C1599 C 0.17259 0.35957 0.39808 0.0
N1600 N 0.17721 0.32406 0.31259 0.0
N1601 N 0.16712 0.34857 0.37015 0.0
H1602 H 0.63541 0.83528 0.37794 0.0
H1603 H 0.71449 0.84286 0.29723 0.0
H1604 H 0.65952 0.81445 0.43224 0.0
H1605 H 0.68829 0.86053 0.23884 0.0
H1606 H 0.69477 0.83271 0.34737 0.0
H1607 H 0.655 0.84511 0.32754 0.0
C1608 C 0.64483 0.83279 0.37936 0.0
C1609 C 0.64575 0.82399 0.40952 0.0
C1610 C 0.69335 0.83883 0.32359 0.0
C1611 C 0.6683 0.8352 0.35155 0.0
C1612 C 0.7046 0.84458 0.29478 0.0
C1613 C 0.70317 0.85265 0.26358 0.0
C1614 C 0.68051 0.84113 0.32138 0.0
C1615 C 0.69012 0.85466 0.26252 0.0
C1616 C 0.656 0.83835 0.35042 0.0
C1617 C 0.65817 0.82099 0.40939 0.0
N1618 N 0.67935 0.84896 0.29088 0.0
N1619 N 0.66895 0.82661 0.38101 0.0
H1620 H 0.17739 0.80323 0.38 0.0
H1621 H 0.1732 0.87583 0.29416 0.0
H1622 H 0.20263 0.84939 0.42751 0.0
H1623 H 0.15358 0.83116 0.23869 0.0
H1624 H 0.1835 0.86633 0.34412 0.0
H1625 H 0.16785 0.81313 0.32925 0.0
C1626 C 0.18093 0.81545 0.37981 0.0
C1627 C 0.19084 0.82546 0.4082 0.0
C1628 C 0.17693 0.85861 0.321 0.0
C1629 C 0.17994 0.83695 0.34988 0.0
C1630 C 0.17108 0.86406 0.29229 0.0
C1631 C 0.16239 0.85431 0.26199 0.0
C1632 C 0.17408 0.84327 0.31965 0.0
C1633 C 0.15991 0.83907 0.26169 0.0
C1634 C 0.17552 0.82112 0.35068 0.0
C1635 C 0.19517 0.84125 0.40606 0.0
N1636 N 0.16568 0.83405 0.28999 0.0
N1637 N 0.18964 0.84648 0.37759 0.0
H1638 H 0.35749 0.15965 0.57598 0.0
H1639 H 0.32548 0.17955 0.76493 0.0
H1640 H 0.37741 0.20564 0.62417 0.0
H1641 H 0.30246 0.13443 0.71119 0.0
H1642 H 0.34506 0.18895 0.71485 0.0
H1643 H 0.33808 0.14983 0.62689 0.0
C1644 C 0.3579 0.16768 0.59743 0.0
C1645 C 0.36916 0.18353 0.59564 0.0
C1646 C 0.33572 0.177 0.71392 0.0
C1647 C 0.34677 0.17234 0.65397 0.0
C1648 C 0.32441 0.17161 0.74244 0.0
C1649 C 0.31211 0.15614 0.74235 0.0
C1650 C 0.33489 0.16688 0.6849 0.0
C1651 C 0.31173 0.14639 0.7128 0.0
C1652 C 0.34671 0.16207 0.62636 0.0
C1653 C 0.36888 0.19338 0.62401 0.0
N1654 N 0.32292 0.15191 0.68533 0.0
N1655 N 0.35791 0.18763 0.6519 0.0
H1656 H 0.80584 0.17586 0.62818 0.0
H1657 H 0.87745 0.1685 0.70918 0.0
H1658 H 0.85076 0.19677 0.57387 0.0
H1659 H 0.83343 0.15047 0.76696 0.0
H1660 H 0.86792 0.17876 0.65915 0.0
H1661 H 0.81568 0.16615 0.67868 0.0
C1662 C 0.81777 0.1784 0.62678 0.0
C1663 C 0.82745 0.18717 0.59656 0.0
C1664 C 0.86034 0.17254 0.68277 0.0
C1665 C 0.83888 0.17609 0.65467 0.0
C1666 C 0.86581 0.16672 0.71152 0.0
C1667 C 0.85625 0.15851 0.74249 0.0
C1668 C 0.84518 0.17016 0.68484 0.0
C1669 C 0.84117 0.15645 0.74345 0.0
C1670 C 0.82341 0.1729 0.65578 0.0
C1671 C 0.84289 0.19024 0.59675 0.0
N1672 N 0.83613 0.16221 0.71515 0.0
N1673 N 0.84809 0.18468 0.62519 0.0
H1674 H 0.83221 0.68621 0.7684 0.0
H1675 H 0.8495 0.6586 0.56876 0.0
H1676 H 0.8756 0.71158 0.70776 0.0
H1677 H 0.80742 0.63136 0.63326 0.0
H1678 H 0.85894 0.67832 0.61863 0.0
H1679 H 0.82254 0.66655 0.71815 0.0
C1680 C 0.83968 0.68775 0.74436 0.0
C1681 C 0.85477 0.70066 0.74241 0.0
C1682 C 0.84765 0.66803 0.62195 0.0
C1683 C 0.84377 0.67796 0.68476 0.0
C1684 C 0.84227 0.65665 0.59355 0.0
C1685 C 0.82763 0.64314 0.59671 0.0
C1686 C 0.83835 0.66602 0.65396 0.0
C1687 C 0.8187 0.64159 0.62924 0.0
C1688 C 0.83417 0.67642 0.71578 0.0
C1689 C 0.86396 0.70179 0.71079 0.0
N1690 N 0.8242 0.65285 0.65651 0.0
N1691 N 0.85832 0.69063 0.6833 0.0
H1692 H 0.99408 0.51329 0.10043 0.0
H1693 H 0.02525 0.49334 0.91018 0.0
H1694 H 0.96997 0.4686 0.04473 0.0
H1695 H 0.04531 0.53939 0.95806 0.0
H1696 H 1.0059 0.4836 0.96128 0.0
H1697 H 0.01359 0.5226 0.0502 0.0
C1698 C 0.99275 0.50543 0.0775 0.0
C1699 C 0.98016 0.49011 0.0769 0.0
C1700 C 0.01455 0.49583 0.96064 0.0
C1701 C 1.00287 0.50074 0.01928 0.0
C1702 C 0.0257 0.50139 0.93161 0.0
C1703 C 0.03698 0.51724 0.92969 0.0
C1704 C 0.01469 0.50615 0.98823 0.0
C1705 C 0.03677 0.52713 0.95803 0.0
C1706 C 1.00402 0.51076 0.04888 0.0
C1707 C 0.97947 0.48044 0.04676 0.0
N1708 N 0.02584 0.52143 0.98604 0.0
N1709 N 0.99063 0.48591 0.01924 0.0
H1710 H 0.54378 0.51357 0.07208 0.0
H1711 H 0.47131 0.50542 0.95852 0.0
H1712 H 0.50007 0.47032 0.06791 0.0
H1713 H 0.51798 0.53391 0.91536 0.0
H1714 H 0.4814 0.49512 0.00664 0.0
H1715 H 0.53438 0.52373 0.02164 0.0
C1716 C 0.5323 0.50609 0.06056 0.0
C1717 C 0.52276 0.49097 0.0749 0.0
C1718 C 0.48939 0.50364 0.98657 0.0
C1719 C 0.51176 0.50293 0.01783 0.0
C1720 C 0.48365 0.50951 0.95877 0.0
C1721 C 0.4937 0.52055 0.9321 0.0
C1722 C 0.50538 0.50903 0.98859 0.0
C1723 C 0.50969 0.52565 0.93533 0.0
C1724 C 0.52692 0.512 0.03188 0.0
C1725 C 0.50781 0.48214 0.05892 0.0
N1726 N 0.51502 0.51991 0.96308 0.0
N1727 N 0.50275 0.48829 0.03165 0.0
H1728 H 0.49641 0.02255 0.09432 0.0
H1729 H 0.51606 0.99098 0.9043 0.0
H1730 H 0.54239 0.04252 0.04621 0.0
H1731 H 0.47151 0.96692 0.96056 0.0
H1732 H 0.52547 0.01059 0.95435 0.0
H1733 H 0.48662 1.00307 0.04349 0.0
C1734 C 0.50444 0.02295 0.07289 0.0
C1735 C 0.52028 0.03425 0.07465 0.0
C1736 C 0.51364 1.00101 0.95583 0.0
C1737 C 0.50912 0.0118 0.01642 0.0
C1738 C 0.50825 0.98968 0.92732 0.0
C1739 C 0.49294 0.97709 0.92811 0.0
C1740 C 0.50367 0.99991 0.98552 0.0
C1741 C 0.48334 0.97643 0.95836 0.0
C1742 C 0.49885 0.01173 0.04402 0.0
C1743 C 0.53014 0.03397 0.04633 0.0
N1744 N 0.48885 0.98765 0.98577 0.0
N1745 N 0.52441 0.02297 0.01847 0.0
H1746 H 0.18612 0.31305 0.909 0.0
H1747 H 0.1646 0.35674 0.75098 0.0
H1748 H 0.14604 0.31891 0.91732 0.0
H1749 H 0.21138 0.36567 0.76742 0.0
H1750 H 0.1564 0.34 0.80733 0.0
H1751 H 0.19453 0.32973 0.85236 0.0
C1752 C 0.17911 0.31785 0.89881 0.0
C1753 C 0.16541 0.31467 0.91775 0.0
C1754 C 0.16846 0.34564 0.79862 0.0
C1755 C 0.17483 0.33356 0.8532 0.0
C1756 C 0.17311 0.35508 0.76639 0.0
C1757 C 0.18867 0.36256 0.75468 0.0
C1758 C 0.17942 0.3435 0.81891 0.0
C1759 C 0.19929 0.36018 0.77578 0.0
C1760 C 0.18393 0.32739 0.8667 0.0
C1761 C 0.15676 0.32122 0.90366 0.0
N1762 N 0.19445 0.35077 0.80684 0.0
N1763 N 0.16156 0.33028 0.87204 0.0
H1764 H 0.67163 0.83067 0.72413 0.0
H1765 H 0.68 0.85203 0.94606 0.0
H1766 H 0.63425 0.82753 0.79325 0.0
H1767 H 0.71673 0.8529 0.87855 0.0
H1768 H 0.66322 0.84356 0.88998 0.0
H1769 H 0.68865 0.83973 0.77985 0.0
C1770 C 0.66703 0.83198 0.75097 0.0
C1771 C 0.65148 0.8283 0.75407 0.0
C1772 C 0.67496 0.84562 0.88742 0.0
C1773 C 0.67084 0.83851 0.81801 0.0
C1774 C 0.68451 0.85037 0.91949 0.0
C1775 C 0.6998 0.85317 0.91703 0.0
C1776 C 0.68071 0.84366 0.85257 0.0
C1777 C 0.7051 0.85108 0.88167 0.0
C1778 C 0.67672 0.83705 0.78282 0.0
C1779 C 0.64609 0.83001 0.78968 0.0
N1780 N 0.69557 0.84644 0.85085 0.0
N1781 N 0.65575 0.83499 0.82024 0.0
H1782 H 0.13594 0.82723 0.90627 0.0
H1783 H 0.2015 0.84781 0.75044 0.0
H1784 H 0.18285 0.86513 0.91982 0.0
H1785 H 0.16329 0.80118 0.7657 0.0
H1786 H 0.19305 0.85595 0.80719 0.0
H1787 H 0.14409 0.81887 0.84923 0.0
C1788 C 0.14794 0.83376 0.89715 0.0
C1789 C 0.15878 0.84683 0.91764 0.0
C1790 C 0.18653 0.84394 0.79808 0.0
C1791 C 0.16808 0.83752 0.85262 0.0
C1792 C 0.19127 0.83934 0.76565 0.0
C1793 C 0.18305 0.82383 0.75356 0.0
C1794 C 0.17334 0.833 0.81809 0.0
C1795 C 0.16996 0.81323 0.77436 0.0
C1796 C 0.15258 0.82898 0.86482 0.0
C1797 C 0.1742 0.8549 0.90489 0.0
N1798 N 0.16544 0.81803 0.80558 0.0
N1799 N 0.17839 0.85019 0.87297 0.0
H1800 H 0.38464 0.19449 0.20773 0.0
H1801 H 0.29823 0.15368 0.12838 0.0
H1802 H 0.34511 0.18391 0.27892 0.0
H1803 H 0.33844 0.179 0.05624 0.0
H1804 H 0.31513 0.16279 0.18407 0.0
H1805 H 0.36781 0.18699 0.15193 0.0
C1806 C 0.37247 0.19074 0.2117 0.0
C1807 C 0.36633 0.18987 0.24825 0.0
C1808 C 0.32023 0.1664 0.15603 0.0
C1809 C 0.34693 0.18093 0.18436 0.0
C1810 C 0.31058 0.16128 0.12416 0.0
C1811 C 0.31688 0.16558 0.08738 0.0
C1812 C 0.33633 0.17574 0.1512 0.0
C1813 C 0.33305 0.17515 0.08388 0.0
C1814 C 0.36285 0.18639 0.17978 0.0
C1815 C 0.35035 0.18455 0.25149 0.0
N1816 N 0.34222 0.17985 0.11537 0.0
N1817 N 0.3412 0.18021 0.21998 0.0
H1818 H 0.83211 0.15739 0.05996 0.0
H1819 H 0.84726 0.18252 0.27944 0.0
H1820 H 0.86924 0.15863 0.12652 0.0
H1821 H 0.80924 0.17978 0.21375 0.0
H1822 H 0.85541 0.1736 0.22387 0.0
H1823 H 0.82367 0.16579 0.11596 0.0
C1824 C 0.83853 0.1595 0.08632 0.0
C1825 C 0.8514 0.15731 0.08857 0.0
C1826 C 0.84528 0.17494 0.22163 0.0
C1827 C 0.84172 0.16678 0.15288 0.0
C1828 C 0.84056 0.17994 0.25342 0.0
C1829 C 0.82756 0.18193 0.25123 0.0
C1830 C 0.83693 0.17189 0.18738 0.0
C1831 C 0.81947 0.17864 0.21657 0.0
C1832 C 0.83365 0.1642 0.11834 0.0
C1833 C 0.85914 0.15999 0.12362 0.0
N1834 N 0.82429 0.17379 0.18603 0.0
N1835 N 0.8542 0.1646 0.15437 0.0
H1836 H 0.87124 0.71339 0.12675 0.0
H1837 H 0.81471 0.62858 0.21072 0.0
H1838 H 0.83779 0.67497 0.05876 0.0
H1839 H 0.84822 0.6671 0.2784 0.0
H1840 H 0.82331 0.64523 0.15451 0.0
H1841 H 0.86305 0.69652 0.18251 0.0
C1842 C 0.86211 0.70142 0.12357 0.0
C1843 C 0.85514 0.69561 0.08803 0.0
C1844 C 0.82879 0.65005 0.18165 0.0
C1845 C 0.84583 0.67615 0.15176 0.0
C1846 C 0.82395 0.64052 0.21374 0.0
C1847 C 0.83077 0.64644 0.24937 0.0
C1848 C 0.84053 0.66564 0.18515 0.0
C1849 C 0.8425 0.66208 0.25164 0.0
C1850 C 0.85751 0.69176 0.15541 0.0
C1851 C 0.84359 0.6799 0.0855 0.0
N1852 N 0.84701 0.67113 0.21997 0.0
N1853 N 0.83927 0.67073 0.11697 0.0
H1854 H 0.99025 0.47894 0.41649 0.0
H1855 H 0.03508 0.54427 0.57294 0.0
H1856 H 0.98171 0.51708 0.43212 0.0
H1857 H 0.02592 0.49729 0.58624 0.0
H1858 H 0.01857 0.53619 0.51588 0.0
H1859 H 1.00673 0.48729 0.47344 0.0
C1860 C 0.99196 0.48914 0.43183 0.0
C1861 C 0.98467 0.49737 0.41978 0.0
C1862 C 0.02015 0.52766 0.53143 0.0
C1863 C 1.00343 0.50696 0.48454 0.0
C1864 C 0.02957 0.53226 0.56376 0.0
C1865 C 0.03177 0.52139 0.58418 0.0
C1866 C 0.01317 0.51217 0.51914 0.0
C1867 C 0.02437 0.50596 0.57137 0.0
C1868 C 1.00124 0.49382 0.46437 0.0
C1869 C 0.98709 0.5104 0.44075 0.0
N1870 N 0.01548 0.50182 0.53944 0.0
N1871 N 0.99636 0.51488 0.47207 0.0
H1872 H 0.51767 0.53732 0.58289 0.0
H1873 H 0.49959 0.46994 0.43351 0.0
H1874 H 0.47255 0.49609 0.57238 0.0
H1875 H 0.53753 0.51683 0.4198 0.0
H1876 H 0.49077 0.47832 0.48909 0.0
H1877 H 0.52637 0.5291 0.52707 0.0
C1878 C 0.50955 0.5266 0.56879 0.0
C1879 C 0.49433 0.5174 0.5825 0.0
C1880 C 0.501 0.48678 0.47385 0.0
C1881 C 0.50436 0.5078 0.51901 0.0
C1882 C 0.50607 0.48199 0.44234 0.0
C1883 C 0.51928 0.49273 0.42216 0.0
C1884 C 0.50933 0.50237 0.4855 0.0
C1885 C 0.52721 0.50823 0.43447 0.0
C1886 C 0.51456 0.52189 0.53702 0.0
C1887 C 0.48445 0.50345 0.56338 0.0
N1888 N 0.52216 0.51259 0.46552 0.0
N1889 N 0.48966 0.49906 0.53271 0.0
H1890 H 0.5155 1.00208 0.61549 0.0
H1891 H 0.51821 0.00797 0.38912 0.0
H1892 H 0.48764 0.96279 0.54244 0.0
H1893 H 0.52984 0.04727 0.46232 0.0
H1894 H 0.51025 0.99118 0.44515 0.0
H1895 H 0.52422 0.01886 0.55945 0.0
C1896 C 0.51114 0.99696 0.58779 0.0
C1897 C 0.50074 0.98095 0.58386 0.0
C1898 C 0.51457 1.0035 0.44883 0.0
C1899 C 0.511 1.00009 0.51955 0.0
C1900 C 0.51904 0.01309 0.41686 0.0
C1901 C 0.52467 0.0291 0.42084 0.0
C1902 C 0.5159 0.00995 0.48512 0.0
C1903 C 0.52581 0.03507 0.45775 0.0
C1904 C 0.51621 0.00655 0.5558 0.0
C1905 C 0.49583 0.97498 0.54697 0.0
N1906 N 0.52149 0.0255 0.48844 0.0
N1907 N 0.50103 0.98455 0.51627 0.0
H1908 H 0.16811 0.21063 0.97215 0.0
H1909 H 0.21371 0.16625 0.03083 0.0
H1910 H 0.17904 0.20547 0.08831 0.0
H1911 H 0.20659 0.17512 0.91434 0.0
H1912 H 0.19975 0.17925 0.05235 0.0
H1913 H 0.18084 0.1964 0.95058 0.0
C1914 C 0.17324 0.20657 0.99318 0.0
C1915 C 0.17258 0.20941 0.03218 0.0
C1916 C 0.20121 0.17834 0.02208 0.0
C1917 C 0.18704 0.19284 0.00753 0.0
C1918 C 0.20927 0.17098 0.00971 0.0
C1919 C 0.21149 0.16968 0.97063 0.0
C1920 C 0.19523 0.18446 0.99526 0.0
C1921 C 0.2051 0.17573 0.94471 0.0
C1922 C 0.18044 0.19835 0.98079 0.0
C1923 C 0.17913 0.20349 0.05802 0.0
N1924 N 0.19733 0.1829 0.95748 0.0
N1925 N 0.18612 0.19555 0.04524 0.0
H1926 H 0.82611 0.04681 0.01184 0.0
H1927 H 0.81349 0.96158 0.98397 0.0
H1928 H 0.85444 0.03711 0.93597 0.0
H1929 H 0.79686 0.97505 0.0821 0.0
H1930 H 0.82688 0.98863 0.96228 0.0
H1931 H 0.81359 0.02005 0.0342 0.0
C1932 C 0.82983 0.03915 0.99999 0.0
C1933 C 0.84154 0.04443 0.97208 0.0
C1934 C 0.82036 0.98568 0.98864 0.0
C1935 C 0.82684 0.01345 0.9972 0.0
C1936 C 0.81267 0.97025 1.00096 0.0
C1937 C 0.80403 0.96605 0.0349 0.0
C1938 C 0.81925 0.99701 0.0101 0.0
C1939 C 0.80349 0.97779 0.05596 0.0
C1940 C 0.82258 0.0238 0.01273 0.0
C1941 C 0.84541 0.03365 0.95717 0.0
N1942 N 0.81089 0.9927 0.04307 0.0
N1943 N 0.83807 0.0187 0.96986 0.0
H1944 H 0.97682 0.81972 0.93021 0.0
H1945 H 0.03839 0.82602 0.08615 0.0
H1946 H 0.96699 0.78412 0.01391 0.0
H1947 H 0.05202 0.85239 0.98173 0.0
H1948 H 0.01137 0.81264 0.0642 0.0
H1949 H 1.00385 0.8336 0.95186 0.0
C1950 C 0.98029 0.81474 0.95292 0.0
C1951 C 0.96944 0.80071 0.97031 0.0
C1952 C 0.02027 0.82137 0.04611 0.0
C1953 C 1.00037 0.81679 0.9958 0.0
C1954 C 0.03567 0.82909 0.05875 0.0
C1955 C 0.04747 0.8403 0.03569 0.0
C1956 C 0.01659 0.82502 0.01033 0.0
C1957 C 0.0433 0.8437 1.00024 0.0
C1958 C 0.99573 0.82274 0.96543 0.0
C1959 C 0.97472 0.79504 1.0001 0.0
N1960 N 0.02821 0.83613 0.98869 0.0
N1961 N 0.98973 0.80311 0.01197 0.0
H1962 H 0.82501 0.78017 0.01685 0.0
H1963 H 0.81451 0.85416 0.98974 0.0
H1964 H 0.85374 0.81806 0.94115 0.0
H1965 H 0.79544 0.82281 0.08504 0.0
H1966 H 0.82782 0.84032 0.96897 0.0
H1967 H 0.81288 0.79478 0.03948 0.0
C1968 C 0.82888 0.7916 0.00508 0.0
C1969 C 0.84057 0.79787 0.97709 0.0
C1970 C 0.8208 0.83651 0.99455 0.0
C1971 C 0.82637 0.81459 1.0026 0.0
C1972 C 0.81316 0.84437 0.00635 0.0
C1973 C 0.8038 0.8396 0.03913 0.0
C1974 C 0.81896 0.82364 0.01537 0.0
C1975 C 0.80261 0.82695 0.05978 0.0
C1976 C 0.82186 0.79991 0.01799 0.0
C1977 C 0.8447 0.8126 0.96237 0.0
N1978 N 0.80999 0.81933 0.04738 0.0
N1979 N 0.8376 0.82043 0.97524 0.0
H1980 H 0.19035 0.97465 0.08297 0.0
H1981 H 0.1955 0.03751 0.93151 0.0
H1982 H 0.15973 0.963 0.9862 0.0
H1983 H 0.23003 0.04745 0.01831 0.0
H1984 H 0.18147 0.01046 0.95278 0.0
H1985 H 0.20389 1.00182 0.06237 0.0
C1986 C 0.18637 0.97782 0.0576 0.0
C1987 C 0.17391 0.96649 0.03623 0.0
C1988 C 0.19212 0.01858 0.96716 0.0
C1989 C 0.18947 0.99759 0.01221 0.0
C1990 C 0.20022 0.03403 0.95485 0.0
C1991 C 0.21399 0.04489 0.97316 0.0
C1992 C 0.19778 0.0139 0.99813 0.0
C1993 C 0.21934 0.03964 0.00368 0.0
C1994 C 0.19419 0.99332 0.04566 0.0
C1995 C 0.16941 0.97129 0.00329 0.0
N1996 N 0.21123 0.02458 0.0152 0.0
N1997 N 0.17717 0.98644 0.99232 0.0
H1998 H 0.97605 0.1593 0.93233 0.0
H1999 H 0.03921 0.21855 0.08092 0.0
H2000 H 0.96716 0.18707 0.012 0.0
H2001 H 0.05081 0.19844 0.9865 0.0
H2002 H 0.01213 0.20516 0.05955 0.0
H2003 H 1.00305 0.17212 0.95412 0.0
C2004 C 0.97975 0.16815 0.95417 0.0
C2005 C 0.96918 0.172 0.9704 0.0
C2006 C 0.02059 0.20365 0.04353 0.0
C2007 C 1.00009 0.18653 0.99603 0.0
C2008 C 0.03603 0.2112 0.05592 0.0
C2009 C 0.04732 0.20967 0.03542 0.0
C2010 C 0.01634 0.19439 0.01054 0.0
C2011 C 0.04254 0.20011 1.00292 0.0
C2012 C 0.99517 0.17539 0.9668 0.0
C2013 C 0.9747 0.18342 0.99908 0.0
N2014 N 0.02744 0.19285 0.99152 0.0
N2015 N 0.98971 0.19021 0.01101 0.0
H2016 H 0.85737 0.55249 0.41253 0.0
H2017 H 0.85875 0.48975 0.27213 0.0
H2018 H 0.82416 0.53054 0.32176 0.0
H2019 H 0.89837 0.52216 0.33872 0.0
H2020 H 0.84466 0.50262 0.29405 0.0
H2021 H 0.87106 0.5391 0.39096 0.0
C2022 C 0.85288 0.54474 0.38827 0.0
C2023 C 0.83962 0.54265 0.36888 0.0
C2024 C 0.85644 0.50689 0.30381 0.0
C2025 C 0.85526 0.52733 0.34392 0.0
C2026 C 0.86457 0.49961 0.2911 0.0
C2027 C 0.87984 0.50478 0.30356 0.0
C2028 C 0.86354 0.51937 0.3295 0.0
C2029 C 0.88656 0.51748 0.32882 0.0
C2030 C 0.86076 0.5372 0.37579 0.0
C2031 C 0.83443 0.5326 0.33732 0.0
N2032 N 0.87836 0.52426 0.34101 0.0
N2033 N 0.84222 0.52529 0.32589 0.0
H2034 H 0.52038 0.37082 0.27043 0.0
H2035 H 0.46422 0.30855 0.42388 0.0
H2036 H 0.49389 0.38035 0.35273 0.0
H2037 H 0.47832 0.29571 0.3203 0.0
H2038 H 0.47791 0.33572 0.40292 0.0
H2039 H 0.50748 0.34388 0.29225 0.0
C2040 C 0.51181 0.36731 0.29288 0.0
C2041 C 0.5083 0.37804 0.30965 0.0
C2042 C 0.47802 0.32695 0.38482 0.0
C2043 C 0.49374 0.34716 0.33543 0.0
C2044 C 0.47031 0.31147 0.3969 0.0
C2045 C 0.47009 0.29984 0.37374 0.0
C2046 C 0.48574 0.33088 0.34955 0.0
C2047 C 0.47806 0.30428 0.33885 0.0
C2048 C 0.50453 0.35191 0.3055 0.0
C2049 C 0.49728 0.37271 0.33928 0.0
N2050 N 0.48558 0.31943 0.32786 0.0
N2051 N 0.49046 0.3577 0.35125 0.0
H2052 H 0.63328 0.11442 0.34229 0.0
H2053 H 0.71701 0.18978 0.32244 0.0
H2054 H 0.64144 0.15416 0.27486 0.0
H2055 H 0.70471 0.15707 0.41473 0.0
H2056 H 0.68993 0.17603 0.30107 0.0
H2057 H 0.65991 0.12895 0.36551 0.0
C2058 C 0.64057 0.12623 0.33249 0.0
C2059 C 0.6349 0.13305 0.30666 0.0
C2060 C 0.69313 0.17192 0.32613 0.0
C2061 C 0.66574 0.14968 0.33273 0.0
C2062 C 0.70859 0.17972 0.33827 0.0
C2063 C 0.71313 0.17455 0.3704 0.0
C2064 C 0.68213 0.15868 0.3459 0.0
C2065 C 0.7017 0.16153 0.39002 0.0
C2066 C 0.65585 0.1345 0.34571 0.0
C2067 C 0.64522 0.14828 0.29433 0.0
N2068 N 0.68676 0.15396 0.37727 0.0
N2069 N 0.66012 0.15605 0.30739 0.0
H2070 H 0.51957 0.1516 0.26553 0.0
H2071 H 0.46087 0.15611 0.41484 0.0
H2072 H 0.49307 0.11585 0.34823 0.0
H2073 H 0.4805 0.18729 0.31935 0.0
H2074 H 0.47436 0.14246 0.39395 0.0
H2075 H 0.50662 0.16573 0.28686 0.0
C2076 C 0.51097 0.14664 0.28796 0.0
C2077 C 0.50751 0.1325 0.30515 0.0
C2078 C 0.47573 0.15231 0.37758 0.0
C2079 C 0.49282 0.14881 0.33022 0.0
C2080 C 0.46813 0.16018 0.38969 0.0
C2081 C 0.46949 0.17284 0.36877 0.0
C2082 C 0.48489 0.15717 0.34442 0.0
C2083 C 0.47894 0.17747 0.3361 0.0
C2084 C 0.50366 0.15478 0.30031 0.0
C2085 C 0.4964 0.12683 0.33454 0.0
N2086 N 0.48626 0.16965 0.32496 0.0
N2087 N 0.48952 0.135 0.34616 0.0
H2088 H 0.82766 0.29497 0.31457 0.0
H2089 H 0.89808 0.381 0.35127 0.0
H2090 H 0.85671 0.30818 0.41464 0.0
H2091 H 0.86325 0.37019 0.26471 0.0
H2092 H 0.88396 0.35406 0.37237 0.0
H2093 H 0.84136 0.32207 0.29358 0.0
C2094 C 0.83693 0.30358 0.33214 0.0
C2095 C 0.84107 0.29927 0.3664 0.0
C2096 C 0.87938 0.35758 0.3488 0.0
C2097 C 0.85683 0.33036 0.34245 0.0
C2098 C 0.88741 0.37302 0.33677 0.0
C2099 C 0.88181 0.37803 0.3063 0.0
C2100 C 0.86567 0.34689 0.33012 0.0
C2101 C 0.86812 0.36692 0.28808 0.0
C2102 C 0.84471 0.31906 0.32019 0.0
C2103 C 0.85304 0.31097 0.38822 0.0
N2104 N 0.86053 0.3519 0.30028 0.0
N2105 N 0.86056 0.32594 0.37576 0.0
H2106 H 0.64396 0.52012 0.25398 0.0
H2107 H 0.70732 0.5232 0.39964 0.0
H2108 H 0.63187 0.48909 0.34988 0.0
H2109 H 0.71454 0.56243 0.33137 0.0
H2110 H 0.68049 0.50883 0.37676 0.0
H2111 H 0.67104 0.53378 0.27581 0.0
C2112 C 0.64705 0.51608 0.27937 0.0
C2113 C 0.63566 0.5035 0.30023 0.0
C2114 C 0.688 0.52059 0.36685 0.0
C2115 C 0.66655 0.51905 0.32542 0.0
C2116 C 0.70331 0.52887 0.38011 0.0
C2117 C 0.71338 0.54411 0.36743 0.0
C2118 C 0.6827 0.52748 0.34034 0.0
C2119 C 0.70744 0.55064 0.34145 0.0
C2120 C 0.66246 0.52394 0.29199 0.0
C2121 C 0.64027 0.49883 0.33316 0.0
N2122 N 0.69257 0.54228 0.32868 0.0
N2123 N 0.65535 0.50658 0.34471 0.0
H2124 H 0.53113 0.81925 0.6814 0.0
H2125 H 0.52434 0.89572 0.66423 0.0
H2126 H 0.55412 0.85369 0.59376 0.0
H2127 H 0.49199 0.8556 0.72934 0.0
H2128 H 0.53653 0.88122 0.64131 0.0
H2129 H 0.51781 0.83306 0.70243 0.0
C2130 C 0.53334 0.8297 0.66652 0.0
C2131 C 0.54378 0.83534 0.6358 0.0
C2132 C 0.52674 0.87558 0.66053 0.0
C2133 C 0.52864 0.85127 0.65989 0.0
C2134 C 0.51968 0.88383 0.67358 0.0
C2135 C 0.50696 0.8769 0.69868 0.0
C2136 C 0.52123 0.86028 0.67292 0.0
C2137 C 0.50184 0.86155 0.71044 0.0
C2138 C 0.5257 0.83755 0.67846 0.0
C2139 C 0.54608 0.84886 0.61734 0.0
N2140 N 0.50899 0.85379 0.69753 0.0
N2141 N 0.53868 0.85643 0.62986 0.0
H2142 H 0.15775 0.71285 0.67795 0.0
H2143 H 0.14538 0.62791 0.65006 0.0
H2144 H 0.18735 0.70382 0.6049 0.0
H2145 H 0.1301 0.64148 0.75045 0.0
H2146 H 0.1588 0.65502 0.62865 0.0
H2147 H 0.14545 0.68612 0.70045 0.0
C2148 C 0.1618 0.70535 0.66675 0.0
C2149 C 0.1738 0.71082 0.63957 0.0
C2150 C 0.15258 0.65208 0.65545 0.0
C2151 C 0.15931 0.67986 0.66477 0.0
C2152 C 0.14488 0.63662 0.66761 0.0
C2153 C 0.13662 0.63246 0.70208 0.0
C2154 C 0.1518 0.66343 0.67758 0.0
C2155 C 0.13644 0.64422 0.72385 0.0
C2156 C 0.15467 0.69002 0.67957 0.0
C2157 C 0.17807 0.70022 0.62546 0.0
N2158 N 0.14379 0.65914 0.71108 0.0
N2159 N 0.17081 0.68527 0.63812 0.0
H2160 H 0.38489 0.49656 0.6538 0.0
H2161 H 0.29665 0.47309 0.6955 0.0
H2162 H 0.3709 0.5128 0.75178 0.0
H2163 H 0.31202 0.46429 0.58826 0.0
H2164 H 0.3236 0.4869 0.71758 0.0
H2165 H 0.35813 0.48382 0.63043 0.0
C2166 C 0.37616 0.49738 0.67052 0.0
C2167 C 0.38013 0.50568 0.70497 0.0
C2168 C 0.3211 0.48201 0.68916 0.0
C2169 C 0.34944 0.49119 0.67818 0.0
C2170 C 0.3057 0.47405 0.67659 0.0
C2171 C 0.30205 0.46745 0.64 0.0
C2172 C 0.33299 0.4833 0.66514 0.0
C2173 C 0.3143 0.46928 0.61656 0.0
C2174 C 0.3609 0.49019 0.657 0.0
C2175 C 0.36839 0.50659 0.72502 0.0
N2176 N 0.32919 0.47693 0.62961 0.0
N2177 N 0.35357 0.49936 0.71146 0.0
H2178 H 0.15989 0.45936 0.58747 0.0
H2179 H 0.15435 0.51684 0.73893 0.0
H2180 H 0.19007 0.4778 0.68513 0.0
H2181 H 0.11918 0.49108 0.65428 0.0
H2182 H 0.16857 0.50402 0.71749 0.0
H2183 H 0.14619 0.47281 0.60834 0.0
C2184 C 0.16373 0.46636 0.61309 0.0
C2185 C 0.17611 0.4674 0.63463 0.0
C2186 C 0.15774 0.50119 0.70364 0.0
C2187 C 0.16039 0.48274 0.65893 0.0
C2188 C 0.14953 0.50843 0.71605 0.0
C2189 C 0.13553 0.50514 0.69835 0.0
C2190 C 0.15197 0.49061 0.67316 0.0
C2191 C 0.13006 0.49428 0.66839 0.0
C2192 C 0.15582 0.47394 0.62518 0.0
C2193 C 0.18046 0.47651 0.66788 0.0
N2194 N 0.13829 0.48747 0.65673 0.0
N2195 N 0.17262 0.48381 0.67898 0.0
H2196 H 0.52671 0.63919 0.74075 0.0
H2197 H 0.52699 0.70532 0.60907 0.0
H2198 H 0.4884 0.63148 0.66834 0.0
H2199 H 0.56662 0.71166 0.67413 0.0
H2200 H 0.51243 0.67846 0.6315 0.0
H2201 H 0.54103 0.66615 0.71897 0.0
C2202 C 0.52123 0.64319 0.72056 0.0
C2203 C 0.50631 0.63299 0.70634 0.0
C2204 C 0.52432 0.68573 0.64084 0.0
C2205 C 0.52276 0.66388 0.68083 0.0
C2206 C 0.5327 0.70107 0.6278 0.0
C2207 C 0.54809 0.71087 0.63972 0.0
C2208 C 0.53134 0.68009 0.66608 0.0
C2209 C 0.55472 0.70468 0.66459 0.0
C2210 C 0.52948 0.65857 0.70788 0.0
C2211 C 0.49994 0.63883 0.67974 0.0
N2212 N 0.54632 0.68975 0.67693 0.0
N2213 N 0.50818 0.65385 0.66787 0.0
H2214 H 0.30985 0.85373 0.59041 0.0
H2215 H 0.37329 0.85846 0.73938 0.0
H2216 H 0.29855 0.82253 0.68579 0.0
H2217 H 0.38236 0.89416 0.65666 0.0
H2218 H 0.34624 0.84424 0.71807 0.0
H2219 H 0.33702 0.86743 0.6111 0.0
C2220 C 0.31311 0.84966 0.61548 0.0
C2221 C 0.30187 0.83699 0.63645 0.0
C2222 C 0.35417 0.85519 0.7046 0.0
C2223 C 0.33296 0.85272 0.66056 0.0
C2224 C 0.36962 0.86339 0.71695 0.0
C2225 C 0.38025 0.87754 0.69976 0.0
C2226 C 0.34926 0.86113 0.67471 0.0
C2227 C 0.37475 0.88317 0.67036 0.0
C2228 C 0.3286 0.85757 0.62748 0.0
C2229 C 0.30676 0.83237 0.66901 0.0
N2230 N 0.35971 0.87495 0.65875 0.0
N2231 N 0.32191 0.84021 0.68004 0.0
loop_
_geom_bond_atom_site_label_1
_geom_bond_atom_site_label_2
_geom_bond_distance
_geom_bond_site_symmetry_2
_ccdc_geom_bond_type
Li0 N17 1.990 . S
Li0 O60 1.956 . S
Li0 O61 1.970 . S
Li0 O62 1.961 . S
Li1 N25 1.990 . S
Li1 O60 1.970 . S
Li1 O61 1.956 . S
Li1 O63 1.961 . S
Li2 N47 1.990 1_554 S
Li2 O60 1.961 . S
Li2 O62 1.956 . S
Li2 O63 1.970 . S
Li3 N53 1.990 . S
Li3 O61 1.961 . S
Li3 O62 1.970 . S
Li3 O63 1.956 . S
C4 C6 1.348 . S
C4 C7 1.356 . S
C4 O60 1.325 . S
N5 C8 1.314 . S
N5 C9 1.279 . S
C6 C4 1.348 . S
C6 C8 1.353 . S
C6 H64 0.929 . S
C7 C4 1.356 . S
C7 C9 1.358 . S
C7 H65 0.930 . S
C8 N5 1.314 . S
C8 C6 1.353 . S
C8 H66 0.930 . S
C9 N5 1.279 . S
C9 C7 1.358 . S
C9 H67 0.930 . S
C10 C13 1.348 . S
C10 C14 1.356 . S
C10 O61 1.325 . S
C11 N12 1.279 . S
C11 C14 1.358 . S
C11 H68 0.930 . S
N12 C11 1.279 . S
N12 C15 1.314 . S
C13 C10 1.348 . S
C13 C15 1.353 . S
C13 H69 0.929 . S
C14 C10 1.356 . S
C14 C11 1.358 . S
C14 H70 0.930 . S
C15 N12 1.314 . S
C15 C13 1.353 . S
C15 H71 0.930 . S
C16 N17 1.314 . S
C16 C21 1.353 . S
C16 H22 0.930 . S
N17 Li0 1.990 . S
N17 C16 1.314 . S
N17 C19 1.279 . S
C18 C19 1.358 . S
C18 C20 1.356 . S
C18 H72 0.930 . S
C19 N17 1.279 . S
C19 C18 1.358 . S
C19 H23 0.930 . S
C20 C18 1.356 . S
C20 C21 1.348 . S
C21 C16 1.353 . S
C21 C20 1.348 . S
C21 H73 0.929 . S
H22 C16 0.930 . S
H23 C19 0.930 . S
C24 N25 1.314 . S
C24 C26 1.353 . S
C24 H30 0.930 . S
N25 Li1 1.990 . S
N25 C24 1.314 . S
N25 C28 1.279 . S
C26 C24 1.353 . S
C26 C29 1.348 . S
C26 H74 0.929 1_554 S
C27 C28 1.358 . S
C27 C29 1.356 . S
C27 H75 0.930 . S
C28 N25 1.279 . S
C28 C27 1.358 . S
C28 H31 0.930 . S
C29 C26 1.348 . S
C29 C27 1.356 . S
H30 C24 0.930 . S
H31 C28 0.930 . S
C32 C34 1.348 . S
C32 C35 1.356 . S
C32 O62 1.325 . S
N33 C36 1.314 . S
N33 C37 1.279 . S
C34 C32 1.348 . S
C34 C36 1.353 . S
C34 H76 0.929 . S
C35 C32 1.356 . S
C35 C37 1.358 . S
C35 H77 0.930 . S
C36 N33 1.314 . S
C36 C34 1.353 . S
C36 H78 0.930 . S
C37 N33 1.279 . S
C37 C35 1.358 . S
C37 H79 0.930 . S
C38 C39 1.348 . S
C38 C40 1.356 . S
C38 O63 1.325 1_556 S
C39 C38 1.348 . S
C39 C41 1.353 . S
C39 H80 0.929 . S
C40 C38 1.356 . S
C40 C42 1.358 . S
C40 H81 0.919 1_556 S
C41 C39 1.353 . S
C41 N43 1.314 . S
C41 H82 0.930 . S
C42 C40 1.358 . S
C42 N43 1.279 . S
C42 H83 0.930 . S
N43 C41 1.314 . S
N43 C42 1.279 . S
C44 C46 1.353 . S
C44 N47 1.314 . S
C44 H50 0.930 . S
C45 N47 1.279 . S
C45 C48 1.358 . S
C45 H51 0.930 . S
C46 C44 1.353 . S
C46 C49 1.348 . S
C46 H84 0.929 . S
N47 Li2 1.990 1_556 S
N47 C44 1.314 . S
N47 C45 1.279 . S
C48 C45 1.358 . S
C48 C49 1.356 . S
C48 H85 0.930 . S
C49 C46 1.348 . S
C49 C48 1.356 . S
H50 C44 0.930 . S
H51 C45 0.930 . S
C52 N53 1.314 . S
C52 C54 1.353 . S
C52 H58 0.930 . S
N53 Li3 1.990 . S
N53 C52 1.314 . S
N53 C56 1.279 . S
C54 C52 1.353 . S
C54 C57 1.348 . S
C54 H86 0.929 . S
C55 C56 1.358 . S
C55 C57 1.356 . S
C55 H87 0.930 1_554 S
C56 N53 1.279 . S
C56 C55 1.358 . S
C56 H59 0.930 1_554 S
C57 C54 1.348 . S
C57 C55 1.356 . S
H58 C52 0.930 . S
H59 C56 0.930 1_556 S
O60 Li0 1.956 . S
O60 Li1 1.970 . S
O60 Li2 1.961 . S
O60 C4 1.325 . S
O61 Li0 1.970 . S
O61 Li1 1.956 . S
O61 Li3 1.961 . S
O61 C10 1.325 . S
O62 Li0 1.961 . S
O62 Li2 1.956 . S
O62 Li3 1.970 . S
O62 C32 1.325 . S
O63 Li1 1.961 . S
O63 Li2 1.970 . S
O63 Li3 1.956 . S
O63 C38 1.325 1_554 S
H64 C6 0.929 . S
H65 C7 0.930 . S
H66 C8 0.930 . S
H67 C9 0.930 . S
H68 C11 0.930 . S
H69 C13 0.929 . S
H70 C14 0.930 . S
H71 C15 0.930 . S
H72 C18 0.930 . S
H73 C21 0.929 . S
H74 C26 0.929 1_556 S
H75 C27 0.930 . S
H76 C34 0.929 . S
H77 C35 0.930 . S
H78 C36 0.930 . S
H79 C37 0.930 . S
H80 C39 0.929 . S
H81 C40 0.919 1_554 S
H82 C41 0.930 . S
H83 C42 0.930 . S
H84 C46 0.929 . S
H85 C48 0.930 . S
H86 C54 0.929 . S
H87 C55 0.930 1_556 S
Li88 N105 1.990 . S
Li88 O148 1.956 . S
Li88 O149 1.970 . S
Li88 O150 1.961 . S
Li89 N113 1.990 . S
Li89 O148 1.970 . S
Li89 O149 1.956 . S
Li89 O151 1.961 . S
Li90 N135 1.990 . S
Li90 O148 1.961 . S
Li90 O150 1.956 . S
Li90 O151 1.970 . S
Li91 N141 1.990 1_554 S
Li91 O149 1.961 . S
Li91 O150 1.970 . S
Li91 O151 1.956 . S
C92 C94 1.348 . S
C92 C95 1.356 . S
C92 O148 1.325 . S
N93 C96 1.314 . S
N93 C97 1.279 . S
C94 C92 1.348 . S
C94 C96 1.353 . S
C94 H152 0.929 . S
C95 C92 1.356 . S
C95 C97 1.358 . S
C95 H153 0.930 . S
C96 N93 1.314 . S
C96 C94 1.353 . S
C96 H154 0.930 . S
C97 N93 1.279 . S
C97 C95 1.358 . S
C97 H155 0.930 . S
C98 C101 1.348 . S
C98 C102 1.356 . S
C98 O149 1.325 . S
C99 N100 1.279 . S
C99 C102 1.358 . S
C99 H156 0.930 . S
N100 C99 1.279 . S
N100 C103 1.314 . S
C101 C98 1.348 . S
C101 C103 1.353 . S
C101 H157 0.929 . S
C102 C98 1.356 . S
C102 C99 1.358 . S
C102 H158 0.930 . S
C103 N100 1.314 . S
C103 C101 1.353 . S
C103 H159 0.930 . S
C104 N105 1.314 . S
C104 C109 1.353 . S
C104 H110 0.930 . S
N105 Li88 1.990 . S
N105 C104 1.314 . S
N105 C107 1.279 . S
C106 C107 1.358 . S
C106 C108 1.356 . S
C106 H160 0.930 . S
C107 N105 1.279 . S
C107 C106 1.358 . S
C107 H111 0.930 . S
C108 C106 1.356 . S
C108 C109 1.348 . S
C109 C104 1.353 . S
C109 C108 1.348 . S
C109 H161 0.929 1_554 S
H110 C104 0.930 . S
H111 C107 0.930 . S
C112 N113 1.314 . S
C112 C114 1.353 . S
C112 H118 0.930 . S
N113 Li89 1.990 . S
N113 C112 1.314 . S
N113 C116 1.279 . S
C114 C112 1.353 . S
C114 C117 1.348 . S
C114 H162 0.929 . S
C115 C116 1.358 . S
C115 C117 1.356 . S
C115 H163 0.930 . S
C116 N113 1.279 . S
C116 C115 1.358 . S
C116 H119 0.930 . S
C117 C114 1.348 . S
C117 C115 1.356 . S
H118 C112 0.930 . S
H119 C116 0.930 . S
C120 C122 1.348 . S
C120 C123 1.356 . S
C120 O150 1.325 1_556 S
N121 C124 1.314 . S
N121 C125 1.279 . S
C122 C120 1.348 . S
C122 C124 1.353 . S
C122 H164 0.929 . S
C123 C120 1.356 . S
C123 C125 1.358 . S
C123 H165 0.919 1_556 S
C124 N121 1.314 . S
C124 C122 1.353 . S
C124 H166 0.930 . S
C125 N121 1.279 . S
C125 C123 1.358 . S
C125 H167 0.930 . S
C126 C127 1.348 . S
C126 C128 1.356 . S
C126 O151 1.325 . S
C127 C126 1.348 . S
C127 C129 1.353 . S
C127 H168 0.929 . S
C128 C126 1.356 . S
C128 C130 1.358 . S
C128 H169 0.930 . S
C129 C127 1.353 . S
C129 N131 1.314 . S
C129 H170 0.930 . S
C130 C128 1.358 . S
C130 N131 1.279 . S
C130 H171 0.930 . S
N131 C129 1.314 . S
N131 C130 1.279 . S
C132 C134 1.353 . S
C132 N135 1.314 . S
C132 H138 0.930 . S
C133 N135 1.279 . S
C133 C136 1.358 . S
C133 H139 0.930 1_554 S
C134 C132 1.353 . S
C134 C137 1.348 . S
C134 H172 0.929 . S
N135 Li90 1.990 . S
N135 C132 1.314 . S
N135 C133 1.279 . S
C136 C133 1.358 . S
C136 C137 1.356 . S
C136 H173 0.930 1_554 S
C137 C134 1.348 . S
C137 C136 1.356 . S
H138 C132 0.930 . S
H139 C133 0.930 1_556 S
C140 N141 1.314 . S
C140 C142 1.353 . S
C140 H146 0.930 . S
N141 Li91 1.990 1_556 S
N141 C140 1.314 . S
N141 C144 1.279 . S
C142 C140 1.353 . S
C142 C145 1.348 . S
C142 H174 0.929 . S
C143 C144 1.358 . S
C143 C145 1.356 . S
C143 H175 0.930 . S
C144 N141 1.279 . S
C144 C143 1.358 . S
C144 H147 0.930 . S
C145 C142 1.348 . S
C145 C143 1.356 . S
H146 C140 0.930 . S
H147 C144 0.930 . S
O148 Li88 1.956 . S
O148 Li89 1.970 . S
O148 Li90 1.961 . S
O148 C92 1.325 . S
O149 Li88 1.970 . S
O149 Li89 1.956 . S
O149 Li91 1.961 . S
O149 C98 1.325 . S
O150 Li88 1.961 . S
O150 Li90 1.956 . S
O150 Li91 1.970 . S
O150 C120 1.325 1_554 S
O151 Li89 1.961 . S
O151 Li90 1.970 . S
O151 Li91 1.956 . S
O151 C126 1.325 . S
H152 C94 0.929 . S
H153 C95 0.930 . S
H154 C96 0.930 . S
H155 C97 0.930 . S
H156 C99 0.930 . S
H157 C101 0.929 . S
H158 C102 0.930 . S
H159 C103 0.930 . S
H160 C106 0.930 . S
H161 C109 0.929 1_556 S
H162 C114 0.929 . S
H163 C115 0.930 . S
H164 C122 0.929 . S
H165 C123 0.919 1_554 S
H166 C124 0.930 . S
H167 C125 0.930 . S
H168 C127 0.929 . S
H169 C128 0.930 . S
H170 C129 0.930 . S
H171 C130 0.930 . S
H172 C134 0.929 . S
H173 C136 0.930 1_556 S
H174 C142 0.929 . S
H175 C143 0.930 . S
Li176 N193 1.990 . S
Li176 O236 1.956 . S
Li176 O237 1.970 . S
Li176 O238 1.961 . S
Li177 N201 1.990 . S
Li177 O236 1.970 . S
Li177 O237 1.956 . S
Li177 O239 1.961 . S
Li178 N223 1.990 1_554 S
Li178 O236 1.961 . S
Li178 O238 1.956 . S
Li178 O239 1.970 . S
Li179 N229 1.990 . S
Li179 O237 1.961 . S
Li179 O238 1.970 . S
Li179 O239 1.956 . S
C180 C182 1.348 . S
C180 C183 1.356 . S
C180 O236 1.325 . S
N181 C184 1.314 . S
N181 C185 1.279 . S
C182 C180 1.348 . S
C182 C184 1.353 . S
C182 H240 0.929 . S
C183 C180 1.356 . S
C183 C185 1.358 . S
C183 H241 0.930 . S
C184 N181 1.314 . S
C184 C182 1.353 . S
C184 H242 0.930 . S
C185 N181 1.279 . S
C185 C183 1.358 . S
C185 H243 0.930 . S
C186 C189 1.348 . S
C186 C190 1.356 . S
C186 O237 1.325 . S
C187 N188 1.279 . S
C187 C190 1.358 . S
C187 H244 0.930 . S
N188 C187 1.279 . S
N188 C191 1.314 . S
C189 C186 1.348 . S
C189 C191 1.353 . S
C189 H245 0.929 . S
C190 C186 1.356 . S
C190 C187 1.358 . S
C190 H246 0.930 . S
C191 N188 1.314 . S
C191 C189 1.353 . S
C191 H247 0.930 . S
C192 N193 1.314 . S
C192 C197 1.353 . S
C192 H198 0.930 . S
N193 Li176 1.990 . S
N193 C192 1.314 . S
N193 C195 1.279 . S
C194 C195 1.358 . S
C194 C196 1.356 . S
C194 H248 0.930 . S
C195 N193 1.279 . S
C195 C194 1.358 . S
C195 H199 0.930 . S
C196 C194 1.356 . S
C196 C197 1.348 . S
C197 C192 1.353 . S
C197 C196 1.348 . S
C197 H249 0.929 . S
H198 C192 0.930 . S
H199 C195 0.930 . S
C200 N201 1.314 . S
C200 C202 1.353 . S
C200 H206 0.930 . S
N201 Li177 1.990 . S
N201 C200 1.314 . S
N201 C204 1.279 . S
C202 C200 1.353 . S
C202 C205 1.348 . S
C202 H250 0.929 1_554 S
C203 C204 1.358 . S
C203 C205 1.356 . S
C203 H251 0.930 . S
C204 N201 1.279 . S
C204 C203 1.358 . S
C204 H207 0.930 . S
C205 C202 1.348 . S
C205 C203 1.356 . S
H206 C200 0.930 . S
H207 C204 0.930 . S
C208 C210 1.348 . S
C208 C211 1.356 . S
C208 O238 1.325 . S
N209 C212 1.314 . S
N209 C213 1.279 . S
C210 C208 1.348 . S
C210 C212 1.353 . S
C210 H252 0.929 . S
C211 C208 1.356 . S
C211 C213 1.358 . S
C211 H253 0.930 . S
C212 N209 1.314 . S
C212 C210 1.353 . S
C212 H254 0.930 . S
C213 N209 1.279 . S
C213 C211 1.358 . S
C213 H255 0.930 . S
C214 C215 1.348 . S
C214 C216 1.356 . S
C214 O239 1.325 1_556 S
C215 C214 1.348 . S
C215 C217 1.353 . S
C215 H256 0.929 . S
C216 C214 1.356 . S
C216 C218 1.358 . S
C216 H257 0.919 1_556 S
C217 C215 1.353 . S
C217 N219 1.314 . S
C217 H258 0.930 . S
C218 C216 1.358 . S
C218 N219 1.279 . S
C218 H259 0.930 . S
N219 C217 1.314 . S
N219 C218 1.279 . S
C220 C222 1.353 . S
C220 N223 1.314 . S
C220 H226 0.930 . S
C221 N223 1.279 . S
C221 C224 1.358 . S
C221 H227 0.930 . S
C222 C220 1.353 . S
C222 C225 1.348 . S
C222 H260 0.929 . S
N223 Li178 1.990 1_556 S
N223 C220 1.314 . S
N223 C221 1.279 . S
C224 C221 1.358 . S
C224 C225 1.356 . S
C224 H261 0.930 . S
C225 C222 1.348 . S
C225 C224 1.356 . S
H226 C220 0.930 . S
H227 C221 0.930 . S
C228 N229 1.314 . S
C228 C230 1.353 . S
C228 H234 0.930 . S
N229 Li179 1.990 . S
N229 C228 1.314 . S
N229 C232 1.279 . S
C230 C228 1.353 . S
C230 C233 1.348 . S
C230 H262 0.929 . S
C231 C232 1.358 . S
C231 C233 1.356 . S
C231 H263 0.930 1_554 S
C232 N229 1.279 . S
C232 C231 1.358 . S
C232 H235 0.930 1_554 S
C233 C230 1.348 . S
C233 C231 1.356 . S
H234 C228 0.930 . S
H235 C232 0.930 1_556 S
O236 Li176 1.956 . S
O236 Li177 1.970 . S
O236 Li178 1.961 . S
O236 C180 1.325 . S
O237 Li176 1.970 . S
O237 Li177 1.956 . S
O237 Li179 1.961 . S
O237 C186 1.325 . S
O238 Li176 1.961 . S
O238 Li178 1.956 . S
O238 Li179 1.970 . S
O238 C208 1.325 . S
O239 Li177 1.961 . S
O239 Li178 1.970 . S
O239 Li179 1.956 . S
O239 C214 1.325 1_554 S
H240 C182 0.929 . S
H241 C183 0.930 . S
H242 C184 0.930 . S
H243 C185 0.930 . S
H244 C187 0.930 . S
H245 C189 0.929 . S
H246 C190 0.930 . S
H247 C191 0.930 . S
H248 C194 0.930 . S
H249 C197 0.929 . S
H250 C202 0.929 1_556 S
H251 C203 0.930 . S
H252 C210 0.929 . S
H253 C211 0.930 . S
H254 C212 0.930 . S
H255 C213 0.930 . S
H256 C215 0.929 . S
H257 C216 0.919 1_554 S
H258 C217 0.930 . S
H259 C218 0.930 . S
H260 C222 0.929 . S
H261 C224 0.930 . S
H262 C230 0.929 . S
H263 C231 0.930 1_556 S
Li264 N281 1.990 . S
Li264 O324 1.956 . S
Li264 O325 1.970 . S
Li264 O326 1.961 . S
Li265 N289 1.990 1_556 S
Li265 O324 1.970 . S
Li265 O325 1.956 . S
Li265 O327 1.961 . S
Li266 N311 1.990 . S
Li266 O324 1.961 . S
Li266 O326 1.956 . S
Li266 O327 1.970 . S
Li267 N317 1.990 . S
Li267 O325 1.961 . S
Li267 O326 1.970 . S
Li267 O327 1.956 . S
C268 C270 1.348 . S
C268 C271 1.356 . S
C268 O324 1.325 1_554 S
N269 C272 1.314 . S
N269 C273 1.279 . S
C270 C268 1.348 . S
C270 C272 1.353 . S
C270 H328 0.929 . S
C271 C268 1.356 . S
C271 C273 1.358 . S
C271 H329 0.919 1_554 S
C272 N269 1.314 . S
C272 C270 1.353 . S
C272 H330 0.930 . S
C273 N269 1.279 . S
C273 C271 1.358 . S
C273 H331 0.930 . S
C274 C277 1.348 . S
C274 C278 1.356 . S
C274 O325 1.325 . S
C275 N276 1.279 . S
C275 C278 1.358 . S
C275 H332 0.930 . S
N276 C275 1.279 . S
N276 C279 1.314 . S
C277 C274 1.348 . S
C277 C279 1.353 . S
C277 H333 0.929 . S
C278 C274 1.356 . S
C278 C275 1.358 . S
C278 H334 0.930 . S
C279 N276 1.314 . S
C279 C277 1.353 . S
C279 H335 0.930 . S
C280 N281 1.314 . S
C280 C285 1.353 . S
C280 H286 0.930 . S
N281 Li264 1.990 . S
N281 C280 1.314 . S
N281 C283 1.279 . S
C282 C283 1.358 . S
C282 C284 1.356 . S
C282 H336 0.930 1_556 S
C283 N281 1.279 . S
C283 C282 1.358 . S
C283 H287 0.930 1_556 S
C284 C282 1.356 . S
C284 C285 1.348 . S
C285 C280 1.353 . S
C285 C284 1.348 . S
C285 H337 0.929 . S
H286 C280 0.930 . S
H287 C283 0.930 1_554 S
C288 N289 1.314 . S
C288 C290 1.353 . S
C288 H294 0.930 . S
N289 Li265 1.990 1_554 S
N289 C288 1.314 . S
N289 C292 1.279 . S
C290 C288 1.353 . S
C290 C293 1.348 . S
C290 H338 0.929 . S
C291 C292 1.358 . S
C291 C293 1.356 . S
C291 H339 0.930 . S
C292 N289 1.279 . S
C292 C291 1.358 . S
C292 H295 0.930 . S
C293 C290 1.348 . S
C293 C291 1.356 . S
H294 C288 0.930 . S
H295 C292 0.930 . S
C296 C298 1.348 . S
C296 C299 1.356 . S
C296 O326 1.325 . S
N297 C300 1.314 . S
N297 C301 1.279 . S
C298 C296 1.348 . S
C298 C300 1.353 . S
C298 H340 0.929 . S
C299 C296 1.356 . S
C299 C301 1.358 . S
C299 H341 0.930 . S
C300 N297 1.314 . S
C300 C298 1.353 . S
C300 H342 0.930 . S
C301 N297 1.279 . S
C301 C299 1.358 . S
C301 H343 0.930 . S
C302 C303 1.348 . S
C302 C304 1.356 . S
C302 O327 1.325 . S
C303 C302 1.348 . S
C303 C305 1.353 . S
C303 H344 0.929 . S
C304 C302 1.356 . S
C304 C306 1.358 . S
C304 H345 0.930 . S
C305 C303 1.353 . S
C305 N307 1.314 . S
C305 H346 0.930 . S
C306 C304 1.358 . S
C306 N307 1.279 . S
C306 H347 0.930 . S
N307 C305 1.314 . S
N307 C306 1.279 . S
C308 C310 1.353 . S
C308 N311 1.314 . S
C308 H314 0.930 . S
C309 N311 1.279 . S
C309 C312 1.358 . S
C309 H315 0.930 . S
C310 C308 1.353 . S
C310 C313 1.348 . S
C310 H348 0.929 1_556 S
N311 Li266 1.990 . S
N311 C308 1.314 . S
N311 C309 1.279 . S
C312 C309 1.358 . S
C312 C313 1.356 . S
C312 H349 0.930 . S
C313 C310 1.348 . S
C313 C312 1.356 . S
H314 C308 0.930 . S
H315 C309 0.930 . S
C316 N317 1.314 . S
C316 C318 1.353 . S
C316 H322 0.930 . S
N317 Li267 1.990 . S
N317 C316 1.314 . S
N317 C320 1.279 . S
C318 C316 1.353 . S
C318 C321 1.348 . S
C318 H350 0.929 . S
C319 C320 1.358 . S
C319 C321 1.356 . S
C319 H351 0.930 . S
C320 N317 1.279 . S
C320 C319 1.358 . S
C320 H323 0.930 . S
C321 C318 1.348 . S
C321 C319 1.356 . S
H322 C316 0.930 . S
H323 C320 0.930 . S
O324 Li264 1.956 . S
O324 Li265 1.970 . S
O324 Li266 1.961 . S
O324 C268 1.325 1_556 S
O325 Li264 1.970 . S
O325 Li265 1.956 . S
O325 Li267 1.961 . S
O325 C274 1.325 . S
O326 Li264 1.961 . S
O326 Li266 1.956 . S
O326 Li267 1.970 . S
O326 C296 1.325 . S
O327 Li265 1.961 . S
O327 Li266 1.970 . S
O327 Li267 1.956 . S
O327 C302 1.325 . S
H328 C270 0.929 . S
H329 C271 0.919 1_556 S
H330 C272 0.930 . S
H331 C273 0.930 . S
H332 C275 0.930 . S
H333 C277 0.929 . S
H334 C278 0.930 . S
H335 C279 0.930 . S
H336 C282 0.930 1_554 S
H337 C285 0.929 . S
H338 C290 0.929 . S
H339 C291 0.930 . S
H340 C298 0.929 . S
H341 C299 0.930 . S
H342 C300 0.930 . S
H343 C301 0.930 . S
H344 C303 0.929 . S
H345 C304 0.930 . S
H346 C305 0.930 . S
H347 C306 0.930 . S
H348 C310 0.929 1_554 S
H349 C312 0.930 . S
H350 C318 0.929 . S
H351 C319 0.930 . S
Li352 N369 1.990 . S
Li352 O412 1.956 . S
Li352 O413 1.970 . S
Li352 O414 1.961 . S
Li353 N377 1.990 1_556 S
Li353 O412 1.970 . S
Li353 O413 1.956 . S
Li353 O415 1.961 . S
Li354 N399 1.990 . S
Li354 O412 1.961 . S
Li354 O414 1.956 . S
Li354 O415 1.970 . S
Li355 N405 1.990 . S
Li355 O413 1.961 . S
Li355 O414 1.970 . S
Li355 O415 1.956 . S
C356 C358 1.348 . S
C356 C359 1.356 . S
C356 O412 1.325 1_554 S
N357 C360 1.314 . S
N357 C361 1.279 . S
C358 C356 1.348 . S
C358 C360 1.353 . S
C358 H416 0.929 . S
C359 C356 1.356 . S
C359 C361 1.358 . S
C359 H417 0.919 1_554 S
C360 N357 1.314 . S
C360 C358 1.353 . S
C360 H418 0.930 . S
C361 N357 1.279 . S
C361 C359 1.358 . S
C361 H419 0.930 . S
C362 C365 1.348 . S
C362 C366 1.356 . S
C362 O413 1.325 . S
C363 N364 1.279 . S
C363 C366 1.358 . S
C363 H420 0.930 . S
N364 C363 1.279 . S
N364 C367 1.314 . S
C365 C362 1.348 . S
C365 C367 1.353 . S
C365 H421 0.929 . S
C366 C362 1.356 . S
C366 C363 1.358 . S
C366 H422 0.930 . S
C367 N364 1.314 . S
C367 C365 1.353 . S
C367 H423 0.930 . S
C368 N369 1.314 . S
C368 C373 1.353 . S
C368 H374 0.930 . S
N369 Li352 1.990 . S
N369 C368 1.314 . S
N369 C371 1.279 . S
C370 C371 1.358 . S
C370 C372 1.356 . S
C370 H424 0.930 1_556 S
C371 N369 1.279 . S
C371 C370 1.358 . S
C371 H375 0.930 1_556 S
C372 C370 1.356 . S
C372 C373 1.348 . S
C373 C368 1.353 . S
C373 C372 1.348 . S
C373 H425 0.929 . S
H374 C368 0.930 . S
H375 C371 0.930 1_554 S
C376 N377 1.314 . S
C376 C378 1.353 . S
C376 H382 0.930 . S
N377 Li353 1.990 1_554 S
N377 C376 1.314 . S
N377 C380 1.279 . S
C378 C376 1.353 . S
C378 C381 1.348 . S
C378 H426 0.929 . S
C379 C380 1.358 . S
C379 C381 1.356 . S
C379 H427 0.930 . S
C380 N377 1.279 . S
C380 C379 1.358 . S
C380 H383 0.930 . S
C381 C378 1.348 . S
C381 C379 1.356 . S
H382 C376 0.930 . S
H383 C380 0.930 . S
C384 C386 1.348 . S
C384 C387 1.356 . S
C384 O414 1.325 . S
N385 C388 1.314 . S
N385 C389 1.279 . S
C386 C384 1.348 . S
C386 C388 1.353 . S
C386 H428 0.929 . S
C387 C384 1.356 . S
C387 C389 1.358 . S
C387 H429 0.930 . S
C388 N385 1.314 . S
C388 C386 1.353 . S
C388 H430 0.930 . S
C389 N385 1.279 . S
C389 C387 1.358 . S
C389 H431 0.930 . S
C390 C391 1.348 . S
C390 C392 1.356 . S
C390 O415 1.325 . S
C391 C390 1.348 . S
C391 C393 1.353 . S
C391 H432 0.929 . S
C392 C390 1.356 . S
C392 C394 1.358 . S
C392 H433 0.930 . S
C393 C391 1.353 . S
C393 N395 1.314 . S
C393 H434 0.930 . S
C394 C392 1.358 . S
C394 N395 1.279 . S
C394 H435 0.930 . S
N395 C393 1.314 . S
N395 C394 1.279 . S
C396 C398 1.353 . S
C396 N399 1.314 . S
C396 H402 0.930 . S
C397 N399 1.279 . S
C397 C400 1.358 . S
C397 H403 0.930 . S
C398 C396 1.353 . S
C398 C401 1.348 . S
C398 H436 0.929 1_556 S
N399 Li354 1.990 . S
N399 C396 1.314 . S
N399 C397 1.279 . S
C400 C397 1.358 . S
C400 C401 1.356 . S
C400 H437 0.930 . S
C401 C398 1.348 . S
C401 C400 1.356 . S
H402 C396 0.930 . S
H403 C397 0.930 . S
C404 N405 1.314 . S
C404 C406 1.353 . S
C404 H410 0.930 . S
N405 Li355 1.990 . S
N405 C404 1.314 . S
N405 C408 1.279 . S
C406 C404 1.353 . S
C406 C409 1.348 . S
C406 H438 0.929 . S
C407 C408 1.358 . S
C407 C409 1.356 . S
C407 H439 0.930 . S
C408 N405 1.279 . S
C408 C407 1.358 . S
C408 H411 0.930 . S
C409 C406 1.348 . S
C409 C407 1.356 . S
H410 C404 0.930 . S
H411 C408 0.930 . S
O412 Li352 1.956 . S
O412 Li353 1.970 . S
O412 Li354 1.961 . S
O412 C356 1.325 1_556 S
O413 Li352 1.970 . S
O413 Li353 1.956 . S
O413 Li355 1.961 . S
O413 C362 1.325 . S
O414 Li352 1.961 . S
O414 Li354 1.956 . S
O414 Li355 1.970 . S
O414 C384 1.325 . S
O415 Li353 1.961 . S
O415 Li354 1.970 . S
O415 Li355 1.956 . S
O415 C390 1.325 . S
H416 C358 0.929 . S
H417 C359 0.919 1_556 S
H418 C360 0.930 . S
H419 C361 0.930 . S
H420 C363 0.930 . S
H421 C365 0.929 . S
H422 C366 0.930 . S
H423 C367 0.930 . S
H424 C370 0.930 1_554 S
H425 C373 0.929 . S
H426 C378 0.929 . S
H427 C379 0.930 . S
H428 C386 0.929 . S
H429 C387 0.930 . S
H430 C388 0.930 . S
H431 C389 0.930 . S
H432 C391 0.929 . S
H433 C392 0.930 . S
H434 C393 0.930 . S
H435 C394 0.930 . S
H436 C398 0.929 1_554 S
H437 C400 0.930 . S
H438 C406 0.929 . S
H439 C407 0.930 . S
Li440 N457 1.990 . S
Li440 O500 1.956 . S
Li440 O501 1.970 . S
Li440 O502 1.961 . S
Li441 N465 1.990 1_556 S
Li441 O500 1.970 . S
Li441 O501 1.956 . S
Li441 O503 1.961 . S
Li442 N487 1.990 . S
Li442 O500 1.961 . S
Li442 O502 1.956 . S
Li442 O503 1.970 . S
Li443 N493 1.990 . S
Li443 O501 1.961 . S
Li443 O502 1.970 . S
Li443 O503 1.956 . S
C444 C446 1.348 . S
C444 C447 1.356 . S
C444 O500 1.325 1_554 S
N445 C448 1.314 . S
N445 C449 1.279 . S
C446 C444 1.348 . S
C446 C448 1.353 . S
C446 H504 0.929 . S
C447 C444 1.356 . S
C447 C449 1.358 . S
C447 H505 0.919 1_554 S
C448 N445 1.314 . S
C448 C446 1.353 . S
C448 H506 0.930 . S
C449 N445 1.279 . S
C449 C447 1.358 . S
C449 H507 0.930 . S
C450 C453 1.348 . S
C450 C454 1.356 . S
C450 O501 1.325 . S
C451 N452 1.279 . S
C451 C454 1.358 . S
C451 H508 0.930 . S
N452 C451 1.279 . S
N452 C455 1.314 . S
C453 C450 1.348 . S
C453 C455 1.353 . S
C453 H509 0.929 . S
C454 C450 1.356 . S
C454 C451 1.358 . S
C454 H510 0.930 . S
C455 N452 1.314 . S
C455 C453 1.353 . S
C455 H511 0.930 . S
C456 N457 1.314 . S
C456 C461 1.353 . S
C456 H462 0.930 . S
N457 Li440 1.990 . S
N457 C456 1.314 . S
N457 C459 1.279 . S
C458 C459 1.358 . S
C458 C460 1.356 . S
C458 H512 0.930 1_556 S
C459 N457 1.279 . S
C459 C458 1.358 . S
C459 H463 0.930 1_556 S
C460 C458 1.356 . S
C460 C461 1.348 . S
C461 C456 1.353 . S
C461 C460 1.348 . S
C461 H513 0.929 . S
H462 C456 0.930 . S
H463 C459 0.930 1_554 S
C464 N465 1.314 . S
C464 C466 1.353 . S
C464 H470 0.930 . S
N465 Li441 1.990 1_554 S
N465 C464 1.314 . S
N465 C468 1.279 . S
C466 C464 1.353 . S
C466 C469 1.348 . S
C466 H514 0.929 . S
C467 C468 1.358 . S
C467 C469 1.356 . S
C467 H515 0.930 . S
C468 N465 1.279 . S
C468 C467 1.358 . S
C468 H471 0.930 . S
C469 C466 1.348 . S
C469 C467 1.356 . S
H470 C464 0.930 . S
H471 C468 0.930 . S
C472 C474 1.348 . S
C472 C475 1.356 . S
C472 O502 1.325 . S
N473 C476 1.314 . S
N473 C477 1.279 . S
C474 C472 1.348 . S
C474 C476 1.353 . S
C474 H516 0.929 . S
C475 C472 1.356 . S
C475 C477 1.358 . S
C475 H517 0.930 . S
C476 N473 1.314 . S
C476 C474 1.353 . S
C476 H518 0.930 . S
C477 N473 1.279 . S
C477 C475 1.358 . S
C477 H519 0.930 . S
C478 C479 1.348 . S
C478 C480 1.356 . S
C478 O503 1.325 . S
C479 C478 1.348 . S
C479 C481 1.353 . S
C479 H520 0.929 . S
C480 C478 1.356 . S
C480 C482 1.358 . S
C480 H521 0.930 . S
C481 C479 1.353 . S
C481 N483 1.314 . S
C481 H522 0.930 . S
C482 C480 1.358 . S
C482 N483 1.279 . S
C482 H523 0.930 . S
N483 C481 1.314 . S
N483 C482 1.279 . S
C484 C486 1.353 . S
C484 N487 1.314 . S
C484 H490 0.930 . S
C485 N487 1.279 . S
C485 C488 1.358 . S
C485 H491 0.930 . S
C486 C484 1.353 . S
C486 C489 1.348 . S
C486 H524 0.929 1_556 S
N487 Li442 1.990 . S
N487 C484 1.314 . S
N487 C485 1.279 . S
C488 C485 1.358 . S
C488 C489 1.356 . S
C488 H525 0.930 . S
C489 C486 1.348 . S
C489 C488 1.356 . S
H490 C484 0.930 . S
H491 C485 0.930 . S
C492 N493 1.314 . S
C492 C494 1.353 . S
C492 H498 0.930 . S
N493 Li443 1.990 . S
N493 C492 1.314 . S
N493 C496 1.279 . S
C494 C492 1.353 . S
C494 C497 1.348 . S
C494 H526 0.929 . S
C495 C496 1.358 . S
C495 C497 1.356 . S
C495 H527 0.930 . S
C496 N493 1.279 . S
C496 C495 1.358 . S
C496 H499 0.930 . S
C497 C494 1.348 . S
C497 C495 1.356 . S
H498 C492 0.930 . S
H499 C496 0.930 . S
O500 Li440 1.956 . S
O500 Li441 1.970 . S
O500 Li442 1.961 . S
O500 C444 1.325 1_556 S
O501 Li440 1.970 . S
O501 Li441 1.956 . S
O501 Li443 1.961 . S
O501 C450 1.325 . S
O502 Li440 1.961 . S
O502 Li442 1.956 . S
O502 Li443 1.970 . S
O502 C472 1.325 . S
O503 Li441 1.961 . S
O503 Li442 1.970 . S
O503 Li443 1.956 . S
O503 C478 1.325 . S
H504 C446 0.929 . S
H505 C447 0.919 1_556 S
H506 C448 0.930 . S
H507 C449 0.930 . S
H508 C451 0.930 . S
H509 C453 0.929 . S
H510 C454 0.930 . S
H511 C455 0.930 . S
H512 C458 0.930 1_554 S
H513 C461 0.929 . S
H514 C466 0.929 . S
H515 C467 0.930 . S
H516 C474 0.929 . S
H517 C475 0.930 . S
H518 C476 0.930 . S
H519 C477 0.930 . S
H520 C479 0.929 . S
H521 C480 0.930 . S
H522 C481 0.930 . S
H523 C482 0.930 . S
H524 C486 0.929 1_554 S
H525 C488 0.930 . S
H526 C494 0.929 . S
H527 C495 0.930 . S
Li528 N545 1.990 . S
Li528 O588 1.956 . S
Li528 O589 1.970 . S
Li528 O590 1.961 . S
Li529 N553 1.990 . S
Li529 O588 1.970 . S
Li529 O589 1.956 . S
Li529 O591 1.961 . S
Li530 N575 1.990 . S
Li530 O588 1.961 . S
Li530 O590 1.956 . S
Li530 O591 1.970 . S
Li531 N581 1.990 . S
Li531 O589 1.961 . S
Li531 O590 1.970 . S
Li531 O591 1.956 . S
C532 C534 1.348 . S
C532 C535 1.356 . S
C532 O588 1.325 . S
N533 C536 1.314 . S
N533 C537 1.279 . S
C534 C532 1.348 . S
C534 C536 1.353 . S
C534 H592 0.929 . S
C535 C532 1.356 . S
C535 C537 1.358 . S
C535 H593 0.930 . S
C536 N533 1.314 . S
C536 C534 1.353 . S
C536 H594 0.930 . S
C537 N533 1.279 . S
C537 C535 1.358 . S
C537 H595 0.930 . S
C538 C541 1.348 . S
C538 C542 1.356 . S
C538 O589 1.325 . S
C539 N540 1.279 . S
C539 C542 1.358 . S
C539 H596 0.930 . S
N540 C539 1.279 . S
N540 C543 1.314 . S
C541 C538 1.348 . S
C541 C543 1.353 . S
C541 H597 0.929 . S
C542 C538 1.356 . S
C542 C539 1.358 . S
C542 H598 0.930 . S
C543 N540 1.314 . S
C543 C541 1.353 . S
C543 H599 0.930 . S
C544 N545 1.314 . S
C544 C549 1.353 . S
C544 H550 0.930 . S
N545 Li528 1.990 . S
N545 C544 1.314 . S
N545 C547 1.279 . S
C546 C547 1.358 . S
C546 C548 1.356 . S
C546 H600 0.930 . S
C547 N545 1.279 . S
C547 C546 1.358 . S
C547 H551 0.930 . S
C548 C546 1.356 . S
C548 C549 1.348 . S
C549 C544 1.353 . S
C549 C548 1.348 . S
C549 H601 0.929 . S
H550 C544 0.930 . S
H551 C547 0.930 . S
C552 N553 1.314 . S
C552 C554 1.353 . S
C552 H558 0.930 . S
N553 Li529 1.990 . S
N553 C552 1.314 . S
N553 C556 1.279 . S
C554 C552 1.353 . S
C554 C557 1.348 . S
C554 H602 0.929 . S
C555 C556 1.358 . S
C555 C557 1.356 . S
C555 H603 0.930 . S
C556 N553 1.279 . S
C556 C555 1.358 . S
C556 H559 0.930 . S
C557 C554 1.348 . S
C557 C555 1.356 . S
H558 C552 0.930 . S
H559 C556 0.930 . S
C560 C562 1.348 . S
C560 C563 1.356 . S
C560 O590 1.325 . S
N561 C564 1.314 . S
N561 C565 1.279 . S
C562 C560 1.348 . S
C562 C564 1.353 . S
C562 H604 0.929 . S
C563 C560 1.356 . S
C563 C565 1.358 . S
C563 H605 0.930 . S
C564 N561 1.314 . S
C564 C562 1.353 . S
C564 H606 0.930 . S
C565 N561 1.279 . S
C565 C563 1.358 . S
C565 H607 0.930 . S
C566 C567 1.348 . S
C566 C568 1.356 . S
C566 O591 1.325 . S
C567 C566 1.348 . S
C567 C569 1.353 . S
C567 H608 0.929 . S
C568 C566 1.356 . S
C568 C570 1.358 . S
C568 H609 0.930 . S
C569 C567 1.353 . S
C569 N571 1.314 . S
C569 H610 0.930 . S
C570 C568 1.358 . S
C570 N571 1.279 . S
C570 H611 0.930 . S
N571 C569 1.314 . S
N571 C570 1.279 . S
C572 C574 1.353 . S
C572 N575 1.314 . S
C572 H578 0.930 . S
C573 N575 1.279 . S
C573 C576 1.358 . S
C573 H579 0.930 . S
C574 C572 1.353 . S
C574 C577 1.348 . S
C574 H612 0.929 . S
N575 Li530 1.990 . S
N575 C572 1.314 . S
N575 C573 1.279 . S
C576 C573 1.358 . S
C576 C577 1.356 . S
C576 H613 0.930 . S
C577 C574 1.348 . S
C577 C576 1.356 . S
H578 C572 0.930 . S
H579 C573 0.930 . S
C580 N581 1.314 . S
C580 C582 1.353 . S
C580 H586 0.930 . S
N581 Li531 1.990 . S
N581 C580 1.314 . S
N581 C584 1.279 . S
C582 C580 1.353 . S
C582 C585 1.348 . S
C582 H614 0.929 . S
C583 C584 1.358 . S
C583 C585 1.356 . S
C583 H615 0.930 . S
C584 N581 1.279 . S
C584 C583 1.358 . S
C584 H587 0.930 . S
C585 C582 1.348 . S
C585 C583 1.356 . S
H586 C580 0.930 . S
H587 C584 0.930 . S
O588 Li528 1.956 . S
O588 Li529 1.970 . S
O588 Li530 1.961 . S
O588 C532 1.325 . S
O589 Li528 1.970 . S
O589 Li529 1.956 . S
O589 Li531 1.961 . S
O589 C538 1.325 . S
O590 Li528 1.961 . S
O590 Li530 1.956 . S
O590 Li531 1.970 . S
O590 C560 1.325 . S
O591 Li529 1.961 . S
O591 Li530 1.970 . S
O591 Li531 1.956 . S
O591 C566 1.325 . S
H592 C534 0.929 . S
H593 C535 0.930 . S
H594 C536 0.930 . S
H595 C537 0.930 . S
H596 C539 0.930 . S
H597 C541 0.929 . S
H598 C542 0.930 . S
H599 C543 0.930 . S
H600 C546 0.930 . S
H601 C549 0.929 . S
H602 C554 0.929 . S
H603 C555 0.930 . S
H604 C562 0.929 . S
H605 C563 0.930 . S
H606 C564 0.930 . S
H607 C565 0.930 . S
H608 C567 0.929 . S
H609 C568 0.930 . S
H610 C569 0.930 . S
H611 C570 0.930 . S
H612 C574 0.929 . S
H613 C576 0.930 . S
H614 C582 0.929 . S
H615 C583 0.930 . S
Li616 N633 1.990 . S
Li616 O676 1.956 . S
Li616 O677 1.970 . S
Li616 O678 1.961 . S
Li617 N641 1.990 . S
Li617 O676 1.970 . S
Li617 O677 1.956 . S
Li617 O679 1.961 . S
Li618 N663 1.990 . S
Li618 O676 1.961 . S
Li618 O678 1.956 . S
Li618 O679 1.970 . S
Li619 N669 1.990 . S
Li619 O677 1.961 . S
Li619 O678 1.970 . S
Li619 O679 1.956 . S
C620 C622 1.348 . S
C620 C623 1.356 . S
C620 O676 1.325 . S
N621 C624 1.314 . S
N621 C625 1.279 . S
C622 C620 1.348 . S
C622 C624 1.353 . S
C622 H680 0.929 . S
C623 C620 1.356 . S
C623 C625 1.358 . S
C623 H681 0.930 . S
C624 N621 1.314 . S
C624 C622 1.353 . S
C624 H682 0.930 . S
C625 N621 1.279 . S
C625 C623 1.358 . S
C625 H683 0.930 . S
C626 C629 1.348 . S
C626 C630 1.356 . S
C626 O677 1.325 . S
C627 N628 1.279 . S
C627 C630 1.358 . S
C627 H684 0.930 . S
N628 C627 1.279 . S
N628 C631 1.314 . S
C629 C626 1.348 . S
C629 C631 1.353 . S
C629 H685 0.929 . S
C630 C626 1.356 . S
C630 C627 1.358 . S
C630 H686 0.930 . S
C631 N628 1.314 . S
C631 C629 1.353 . S
C631 H687 0.930 . S
C632 N633 1.314 . S
C632 C637 1.353 . S
C632 H638 0.930 . S
N633 Li616 1.990 . S
N633 C632 1.314 . S
N633 C635 1.279 . S
C634 C635 1.358 . S
C634 C636 1.356 . S
C634 H688 0.930 . S
C635 N633 1.279 . S
C635 C634 1.358 . S
C635 H639 0.930 . S
C636 C634 1.356 . S
C636 C637 1.348 . S
C637 C632 1.353 . S
C637 C636 1.348 . S
C637 H689 0.929 . S
H638 C632 0.930 . S
H639 C635 0.930 . S
C640 N641 1.314 . S
C640 C642 1.353 . S
C640 H646 0.930 . S
N641 Li617 1.990 . S
N641 C640 1.314 . S
N641 C644 1.279 . S
C642 C640 1.353 . S
C642 C645 1.348 . S
C642 H690 0.929 . S
C643 C644 1.358 . S
C643 C645 1.356 . S
C643 H691 0.930 . S
C644 N641 1.279 . S
C644 C643 1.358 . S
C644 H647 0.930 . S
C645 C642 1.348 . S
C645 C643 1.356 . S
H646 C640 0.930 . S
H647 C644 0.930 . S
C648 C650 1.348 . S
C648 C651 1.356 . S
C648 O678 1.325 . S
N649 C652 1.314 . S
N649 C653 1.279 . S
C650 C648 1.348 . S
C650 C652 1.353 . S
C650 H692 0.929 . S
C651 C648 1.356 . S
C651 C653 1.358 . S
C651 H693 0.930 . S
C652 N649 1.314 . S
C652 C650 1.353 . S
C652 H694 0.930 . S
C653 N649 1.279 . S
C653 C651 1.358 . S
C653 H695 0.930 . S
C654 C655 1.348 . S
C654 C656 1.356 . S
C654 O679 1.325 . S
C655 C654 1.348 . S
C655 C657 1.353 . S
C655 H696 0.929 . S
C656 C654 1.356 . S
C656 C658 1.358 . S
C656 H697 0.930 . S
C657 C655 1.353 . S
C657 N659 1.314 . S
C657 H698 0.930 . S
C658 C656 1.358 . S
C658 N659 1.279 . S
C658 H699 0.930 . S
N659 C657 1.314 . S
N659 C658 1.279 . S
C660 C662 1.353 . S
C660 N663 1.314 . S
C660 H666 0.930 . S
C661 N663 1.279 . S
C661 C664 1.358 . S
C661 H667 0.930 . S
C662 C660 1.353 . S
C662 C665 1.348 . S
C662 H700 0.929 . S
N663 Li618 1.990 . S
N663 C660 1.314 . S
N663 C661 1.279 . S
C664 C661 1.358 . S
C664 C665 1.356 . S
C664 H701 0.930 . S
C665 C662 1.348 . S
C665 C664 1.356 . S
H666 C660 0.930 . S
H667 C661 0.930 . S
C668 N669 1.314 . S
C668 C670 1.353 . S
C668 H674 0.930 . S
N669 Li619 1.990 . S
N669 C668 1.314 . S
N669 C672 1.279 . S
C670 C668 1.353 . S
C670 C673 1.348 . S
C670 H702 0.929 . S
C671 C672 1.358 . S
C671 C673 1.356 . S
C671 H703 0.930 . S
C672 N669 1.279 . S
C672 C671 1.358 . S
C672 H675 0.930 . S
C673 C670 1.348 . S
C673 C671 1.356 . S
H674 C668 0.930 . S
H675 C672 0.930 . S
O676 Li616 1.956 . S
O676 Li617 1.970 . S
O676 Li618 1.961 . S
O676 C620 1.325 . S
O677 Li616 1.970 . S
O677 Li617 1.956 . S
O677 Li619 1.961 . S
O677 C626 1.325 . S
O678 Li616 1.961 . S
O678 Li618 1.956 . S
O678 Li619 1.970 . S
O678 C648 1.325 . S
O679 Li617 1.961 . S
O679 Li618 1.970 . S
O679 Li619 1.956 . S
O679 C654 1.325 . S
H680 C622 0.929 . S
H681 C623 0.930 . S
H682 C624 0.930 . S
H683 C625 0.930 . S
H684 C627 0.930 . S
H685 C629 0.929 . S
H686 C630 0.930 . S
H687 C631 0.930 . S
H688 C634 0.930 . S
H689 C637 0.929 . S
H690 C642 0.929 . S
H691 C643 0.930 . S
H692 C650 0.929 . S
H693 C651 0.930 . S
H694 C652 0.930 . S
H695 C653 0.930 . S
H696 C655 0.929 . S
H697 C656 0.930 . S
H698 C657 0.930 . S
H699 C658 0.930 . S
H700 C662 0.929 . S
H701 C664 0.930 . S
H702 C670 0.929 . S
H703 C671 0.930 . S
Li704 N721 1.990 . S
Li704 O764 1.956 . S
Li704 O765 1.970 . S
Li704 O766 1.961 . S
Li705 N729 1.990 . S
Li705 O764 1.970 . S
Li705 O765 1.956 . S
Li705 O767 1.961 . S
Li706 N751 1.990 . S
Li706 O764 1.961 . S
Li706 O766 1.956 . S
Li706 O767 1.970 . S
Li707 N757 1.990 . S
Li707 O765 1.961 . S
Li707 O766 1.970 . S
Li707 O767 1.956 . S
C708 C710 1.348 . S
C708 C711 1.356 . S
C708 O764 1.325 . S
N709 C712 1.314 . S
N709 C713 1.279 . S
C710 C708 1.348 . S
C710 C712 1.353 . S
C710 H768 0.929 . S
C711 C708 1.356 . S
C711 C713 1.358 . S
C711 H769 0.930 . S
C712 N709 1.314 . S
C712 C710 1.353 . S
C712 H770 0.930 . S
C713 N709 1.279 . S
C713 C711 1.358 . S
C713 H771 0.930 . S
C714 C717 1.348 . S
C714 C718 1.356 . S
C714 O765 1.325 . S
C715 N716 1.279 . S
C715 C718 1.358 . S
C715 H772 0.930 . S
N716 C715 1.279 . S
N716 C719 1.314 . S
C717 C714 1.348 . S
C717 C719 1.353 . S
C717 H773 0.929 . S
C718 C714 1.356 . S
C718 C715 1.358 . S
C718 H774 0.930 . S
C719 N716 1.314 . S
C719 C717 1.353 . S
C719 H775 0.930 . S
C720 N721 1.314 . S
C720 C725 1.353 . S
C720 H726 0.930 . S
N721 Li704 1.990 . S
N721 C720 1.314 . S
N721 C723 1.279 . S
C722 C723 1.358 . S
C722 C724 1.356 . S
C722 H776 0.930 . S
C723 N721 1.279 . S
C723 C722 1.358 . S
C723 H727 0.930 . S
C724 C722 1.356 . S
C724 C725 1.348 . S
C725 C720 1.353 . S
C725 C724 1.348 . S
C725 H777 0.929 . S
H726 C720 0.930 . S
H727 C723 0.930 . S
C728 N729 1.314 . S
C728 C730 1.353 . S
C728 H734 0.930 . S
N729 Li705 1.990 . S
N729 C728 1.314 . S
N729 C732 1.279 . S
C730 C728 1.353 . S
C730 C733 1.348 . S
C730 H778 0.929 . S
C731 C732 1.358 . S
C731 C733 1.356 . S
C731 H779 0.930 . S
C732 N729 1.279 . S
C732 C731 1.358 . S
C732 H735 0.930 . S
C733 C730 1.348 . S
C733 C731 1.356 . S
H734 C728 0.930 . S
H735 C732 0.930 . S
C736 C738 1.348 . S
C736 C739 1.356 . S
C736 O766 1.325 . S
N737 C740 1.314 . S
N737 C741 1.279 . S
C738 C736 1.348 . S
C738 C740 1.353 . S
C738 H780 0.929 . S
C739 C736 1.356 . S
C739 C741 1.358 . S
C739 H781 0.930 . S
C740 N737 1.314 . S
C740 C738 1.353 . S
C740 H782 0.930 . S
C741 N737 1.279 . S
C741 C739 1.358 . S
C741 H783 0.930 . S
C742 C743 1.348 . S
C742 C744 1.356 . S
C742 O767 1.325 . S
C743 C742 1.348 . S
C743 C745 1.353 . S
C743 H784 0.929 . S
C744 C742 1.356 . S
C744 C746 1.358 . S
C744 H785 0.930 . S
C745 C743 1.353 . S
C745 N747 1.314 . S
C745 H786 0.930 . S
C746 C744 1.358 . S
C746 N747 1.279 . S
C746 H787 0.930 . S
N747 C745 1.314 . S
N747 C746 1.279 . S
C748 C750 1.353 . S
C748 N751 1.314 . S
C748 H754 0.930 . S
C749 N751 1.279 . S
C749 C752 1.358 . S
C749 H755 0.930 . S
C750 C748 1.353 . S
C750 C753 1.348 . S
C750 H788 0.929 . S
N751 Li706 1.990 . S
N751 C748 1.314 . S
N751 C749 1.279 . S
C752 C749 1.358 . S
C752 C753 1.356 . S
C752 H789 0.930 . S
C753 C750 1.348 . S
C753 C752 1.356 . S
H754 C748 0.930 . S
H755 C749 0.930 . S
C756 N757 1.314 . S
C756 C758 1.353 . S
C756 H762 0.930 . S
N757 Li707 1.990 . S
N757 C756 1.314 . S
N757 C760 1.279 . S
C758 C756 1.353 . S
C758 C761 1.348 . S
C758 H790 0.929 . S
C759 C760 1.358 . S
C759 C761 1.356 . S
C759 H791 0.930 . S
C760 N757 1.279 . S
C760 C759 1.358 . S
C760 H763 0.930 . S
C761 C758 1.348 . S
C761 C759 1.356 . S
H762 C756 0.930 . S
H763 C760 0.930 . S
O764 Li704 1.956 . S
O764 Li705 1.970 . S
O764 Li706 1.961 . S
O764 C708 1.325 . S
O765 Li704 1.970 . S
O765 Li705 1.956 . S
O765 Li707 1.961 . S
O765 C714 1.325 . S
O766 Li704 1.961 . S
O766 Li706 1.956 . S
O766 Li707 1.970 . S
O766 C736 1.325 . S
O767 Li705 1.961 . S
O767 Li706 1.970 . S
O767 Li707 1.956 . S
O767 C742 1.325 . S
H768 C710 0.929 . S
H769 C711 0.930 . S
H770 C712 0.930 . S
H771 C713 0.930 . S
H772 C715 0.930 . S
H773 C717 0.929 . S
H774 C718 0.930 . S
H775 C719 0.930 . S
H776 C722 0.930 . S
H777 C725 0.929 . S
H778 C730 0.929 . S
H779 C731 0.930 . S
H780 C738 0.929 . S
H781 C739 0.930 . S
H782 C740 0.930 . S
H783 C741 0.930 . S
H784 C743 0.929 . S
H785 C744 0.930 . S
H786 C745 0.930 . S
H787 C746 0.930 . S
H788 C750 0.929 . S
H789 C752 0.930 . S
H790 C758 0.929 . S
H791 C759 0.930 . S
Li792 N809 1.990 . S
Li792 O852 1.956 . S
Li792 O853 1.970 . S
Li792 O854 1.961 . S
Li793 N817 1.990 . S
Li793 O852 1.970 . S
Li793 O853 1.956 . S
Li793 O855 1.961 . S
Li794 N839 1.990 . S
Li794 O852 1.961 . S
Li794 O854 1.956 . S
Li794 O855 1.970 . S
Li795 N845 1.990 . S
Li795 O853 1.961 . S
Li795 O854 1.970 . S
Li795 O855 1.956 . S
C796 C798 1.348 . S
C796 C799 1.356 . S
C796 O852 1.325 . S
N797 C800 1.314 . S
N797 C801 1.279 . S
C798 C796 1.348 . S
C798 C800 1.353 . S
C798 H856 0.929 . S
C799 C796 1.356 . S
C799 C801 1.358 . S
C799 H857 0.930 . S
C800 N797 1.314 . S
C800 C798 1.353 . S
C800 H858 0.930 . S
C801 N797 1.279 . S
C801 C799 1.358 . S
C801 H859 0.930 . S
C802 C805 1.348 . S
C802 C806 1.356 . S
C802 O853 1.325 . S
C803 N804 1.279 . S
C803 C806 1.358 . S
C803 H860 0.930 . S
N804 C803 1.279 . S
N804 C807 1.314 . S
C805 C802 1.348 . S
C805 C807 1.353 . S
C805 H861 0.929 . S
C806 C802 1.356 . S
C806 C803 1.358 . S
C806 H862 0.930 . S
C807 N804 1.314 . S
C807 C805 1.353 . S
C807 H863 0.930 . S
C808 N809 1.314 . S
C808 C813 1.353 . S
C808 H814 0.930 . S
N809 Li792 1.990 . S
N809 C808 1.314 . S
N809 C811 1.279 . S
C810 C811 1.358 . S
C810 C812 1.356 . S
C810 H864 0.930 . S
C811 N809 1.279 . S
C811 C810 1.358 . S
C811 H815 0.930 . S
C812 C810 1.356 . S
C812 C813 1.348 . S
C813 C808 1.353 . S
C813 C812 1.348 . S
C813 H865 0.929 . S
H814 C808 0.930 . S
H815 C811 0.930 . S
C816 N817 1.314 . S
C816 C818 1.353 . S
C816 H822 0.930 . S
N817 Li793 1.990 . S
N817 C816 1.314 . S
N817 C820 1.279 . S
C818 C816 1.353 . S
C818 C821 1.348 . S
C818 H866 0.929 . S
C819 C820 1.358 . S
C819 C821 1.356 . S
C819 H867 0.930 . S
C820 N817 1.279 . S
C820 C819 1.358 . S
C820 H823 0.930 . S
C821 C818 1.348 . S
C821 C819 1.356 . S
H822 C816 0.930 . S
H823 C820 0.930 . S
C824 C826 1.348 . S
C824 C827 1.356 . S
C824 O854 1.325 . S
N825 C828 1.314 . S
N825 C829 1.279 . S
C826 C824 1.348 . S
C826 C828 1.353 . S
C826 H868 0.929 . S
C827 C824 1.356 . S
C827 C829 1.358 . S
C827 H869 0.930 . S
C828 N825 1.314 . S
C828 C826 1.353 . S
C828 H870 0.930 . S
C829 N825 1.279 . S
C829 C827 1.358 . S
C829 H871 0.930 . S
C830 C831 1.348 . S
C830 C832 1.356 . S
C830 O855 1.325 . S
C831 C830 1.348 . S
C831 C833 1.353 . S
C831 H872 0.929 . S
C832 C830 1.356 . S
C832 C834 1.358 . S
C832 H873 0.930 . S
C833 C831 1.353 . S
C833 N835 1.314 . S
C833 H874 0.930 . S
C834 C832 1.358 . S
C834 N835 1.279 . S
C834 H875 0.930 . S
N835 C833 1.314 . S
N835 C834 1.279 . S
C836 C838 1.353 . S
C836 N839 1.314 . S
C836 H842 0.930 . S
C837 N839 1.279 . S
C837 C840 1.358 . S
C837 H843 0.930 . S
C838 C836 1.353 . S
C838 C841 1.348 . S
C838 H876 0.929 . S
N839 Li794 1.990 . S
N839 C836 1.314 . S
N839 C837 1.279 . S
C840 C837 1.358 . S
C840 C841 1.356 . S
C840 H877 0.930 . S
C841 C838 1.348 . S
C841 C840 1.356 . S
H842 C836 0.930 . S
H843 C837 0.930 . S
C844 N845 1.314 . S
C844 C846 1.353 . S
C844 H850 0.930 . S
N845 Li795 1.990 . S
N845 C844 1.314 . S
N845 C848 1.279 . S
C846 C844 1.353 . S
C846 C849 1.348 . S
C846 H878 0.929 . S
C847 C848 1.358 . S
C847 C849 1.356 . S
C847 H879 0.930 . S
C848 N845 1.279 . S
C848 C847 1.358 . S
C848 H851 0.930 . S
C849 C846 1.348 . S
C849 C847 1.356 . S
H850 C844 0.930 . S
H851 C848 0.930 . S
O852 Li792 1.956 . S
O852 Li793 1.970 . S
O852 Li794 1.961 . S
O852 C796 1.325 . S
O853 Li792 1.970 . S
O853 Li793 1.956 . S
O853 Li795 1.961 . S
O853 C802 1.325 . S
O854 Li792 1.961 . S
O854 Li794 1.956 . S
O854 Li795 1.970 . S
O854 C824 1.325 . S
O855 Li793 1.961 . S
O855 Li794 1.970 . S
O855 Li795 1.956 . S
O855 C830 1.325 . S
H856 C798 0.929 . S
H857 C799 0.930 . S
H858 C800 0.930 . S
H859 C801 0.930 . S
H860 C803 0.930 . S
H861 C805 0.929 . S
H862 C806 0.930 . S
H863 C807 0.930 . S
H864 C810 0.930 . S
H865 C813 0.929 . S
H866 C818 0.929 . S
H867 C819 0.930 . S
H868 C826 0.929 . S
H869 C827 0.930 . S
H870 C828 0.930 . S
H871 C829 0.930 . S
H872 C831 0.929 . S
H873 C832 0.930 . S
H874 C833 0.930 . S
H875 C834 0.930 . S
H876 C838 0.929 . S
H877 C840 0.930 . S
H878 C846 0.929 . S
H879 C847 0.930 . S
Li880 N897 1.990 . S
Li880 O940 1.956 . S
Li880 O941 1.970 . S
Li880 O942 1.961 . S
Li881 N905 1.990 . S
Li881 O940 1.970 . S
Li881 O941 1.956 . S
Li881 O943 1.961 . S
Li882 N927 1.990 . S
Li882 O940 1.961 . S
Li882 O942 1.956 . S
Li882 O943 1.970 . S
Li883 N933 1.990 . S
Li883 O941 1.961 . S
Li883 O942 1.970 . S
Li883 O943 1.956 . S
C884 C886 1.348 . S
C884 C887 1.356 . S
C884 O940 1.325 . S
N885 C888 1.314 . S
N885 C889 1.279 . S
C886 C884 1.348 . S
C886 C888 1.353 . S
C886 H944 0.929 . S
C887 C884 1.356 . S
C887 C889 1.358 . S
C887 H945 0.930 . S
C888 N885 1.314 . S
C888 C886 1.353 . S
C888 H946 0.930 . S
C889 N885 1.279 . S
C889 C887 1.358 . S
C889 H947 0.930 . S
C890 C893 1.348 . S
C890 C894 1.356 . S
C890 O941 1.325 . S
C891 N892 1.279 . S
C891 C894 1.358 . S
C891 H948 0.930 . S
N892 C891 1.279 . S
N892 C895 1.314 . S
C893 C890 1.348 . S
C893 C895 1.353 . S
C893 H949 0.929 . S
C894 C890 1.356 . S
C894 C891 1.358 . S
C894 H950 0.930 . S
C895 N892 1.314 . S
C895 C893 1.353 . S
C895 H951 0.930 . S
C896 N897 1.314 . S
C896 C901 1.353 . S
C896 H902 0.930 . S
N897 Li880 1.990 . S
N897 C896 1.314 . S
N897 C899 1.279 . S
C898 C899 1.358 . S
C898 C900 1.356 . S
C898 H952 0.930 . S
C899 N897 1.279 . S
C899 C898 1.358 . S
C899 H903 0.930 . S
C900 C898 1.356 . S
C900 C901 1.348 . S
C901 C896 1.353 . S
C901 C900 1.348 . S
C901 H953 0.929 . S
H902 C896 0.930 . S
H903 C899 0.930 . S
C904 N905 1.314 . S
C904 C906 1.353 . S
C904 H910 0.930 . S
N905 Li881 1.990 . S
N905 C904 1.314 . S
N905 C908 1.279 . S
C906 C904 1.353 . S
C906 C909 1.348 . S
C906 H954 0.929 . S
C907 C908 1.358 . S
C907 C909 1.356 . S
C907 H955 0.930 . S
C908 N905 1.279 . S
C908 C907 1.358 . S
C908 H911 0.930 . S
C909 C906 1.348 . S
C909 C907 1.356 . S
H910 C904 0.930 . S
H911 C908 0.930 . S
C912 C914 1.348 . S
C912 C915 1.356 . S
C912 O942 1.325 . S
N913 C916 1.314 . S
N913 C917 1.279 . S
C914 C912 1.348 . S
C914 C916 1.353 . S
C914 H956 0.929 . S
C915 C912 1.356 . S
C915 C917 1.358 . S
C915 H957 0.930 . S
C916 N913 1.314 . S
C916 C914 1.353 . S
C916 H958 0.930 . S
C917 N913 1.279 . S
C917 C915 1.358 . S
C917 H959 0.930 . S
C918 C919 1.348 . S
C918 C920 1.356 . S
C918 O943 1.325 . S
C919 C918 1.348 . S
C919 C921 1.353 . S
C919 H960 0.929 . S
C920 C918 1.356 . S
C920 C922 1.358 . S
C920 H961 0.930 . S
C921 C919 1.353 . S
C921 N923 1.314 . S
C921 H962 0.930 . S
C922 C920 1.358 . S
C922 N923 1.279 . S
C922 H963 0.930 . S
N923 C921 1.314 . S
N923 C922 1.279 . S
C924 C926 1.353 . S
C924 N927 1.314 . S
C924 H930 0.930 . S
C925 N927 1.279 . S
C925 C928 1.358 . S
C925 H931 0.930 . S
C926 C924 1.353 . S
C926 C929 1.348 . S
C926 H964 0.929 . S
N927 Li882 1.990 . S
N927 C924 1.314 . S
N927 C925 1.279 . S
C928 C925 1.358 . S
C928 C929 1.356 . S
C928 H965 0.930 . S
C929 C926 1.348 . S
C929 C928 1.356 . S
H930 C924 0.930 . S
H931 C925 0.930 . S
C932 N933 1.314 . S
C932 C934 1.353 . S
C932 H938 0.930 . S
N933 Li883 1.990 . S
N933 C932 1.314 . S
N933 C936 1.279 . S
C934 C932 1.353 . S
C934 C937 1.348 . S
C934 H966 0.929 . S
C935 C936 1.358 . S
C935 C937 1.356 . S
C935 H967 0.930 . S
C936 N933 1.279 . S
C936 C935 1.358 . S
C936 H939 0.930 . S
C937 C934 1.348 . S
C937 C935 1.356 . S
H938 C932 0.930 . S
H939 C936 0.930 . S
O940 Li880 1.956 . S
O940 Li881 1.970 . S
O940 Li882 1.961 . S
O940 C884 1.325 . S
O941 Li880 1.970 . S
O941 Li881 1.956 . S
O941 Li883 1.961 . S
O941 C890 1.325 . S
O942 Li880 1.961 . S
O942 Li882 1.956 . S
O942 Li883 1.970 . S
O942 C912 1.325 . S
O943 Li881 1.961 . S
O943 Li882 1.970 . S
O943 Li883 1.956 . S
O943 C918 1.325 . S
H944 C886 0.929 . S
H945 C887 0.930 . S
H946 C888 0.930 . S
H947 C889 0.930 . S
H948 C891 0.930 . S
H949 C893 0.929 . S
H950 C894 0.930 . S
H951 C895 0.930 . S
H952 C898 0.930 . S
H953 C901 0.929 . S
H954 C906 0.929 . S
H955 C907 0.930 . S
H956 C914 0.929 . S
H957 C915 0.930 . S
H958 C916 0.930 . S
H959 C917 0.930 . S
H960 C919 0.929 . S
H961 C920 0.930 . S
H962 C921 0.930 . S
H963 C922 0.930 . S
H964 C926 0.929 . S
H965 C928 0.930 . S
H966 C934 0.929 . S
H967 C935 0.930 . S
Li968 N985 1.990 . S
Li968 O1028 1.956 . S
Li968 O1029 1.970 . S
Li968 O1030 1.961 . S
Li969 N993 1.990 . S
Li969 O1028 1.970 . S
Li969 O1029 1.956 . S
Li969 O1031 1.961 . S
Li970 N1015 1.990 . S
Li970 O1028 1.961 . S
Li970 O1030 1.956 . S
Li970 O1031 1.970 . S
Li971 N1021 1.990 . S
Li971 O1029 1.961 . S
Li971 O1030 1.970 . S
Li971 O1031 1.956 . S
C972 C974 1.348 . S
C972 C975 1.356 . S
C972 O1028 1.325 . S
N973 C976 1.314 . S
N973 C977 1.279 . S
C974 C972 1.348 . S
C974 C976 1.353 . S
C974 H1032 0.929 . S
C975 C972 1.356 . S
C975 C977 1.358 . S
C975 H1033 0.930 . S
C976 N973 1.314 . S
C976 C974 1.353 . S
C976 H1034 0.930 . S
C977 N973 1.279 . S
C977 C975 1.358 . S
C977 H1035 0.930 . S
C978 C981 1.348 . S
C978 C982 1.356 . S
C978 O1029 1.325 . S
C979 N980 1.279 . S
C979 C982 1.358 . S
C979 H1036 0.930 . S
N980 C979 1.279 . S
N980 C983 1.314 . S
C981 C978 1.348 . S
C981 C983 1.353 . S
C981 H1037 0.929 . S
C982 C978 1.356 . S
C982 C979 1.358 . S
C982 H1038 0.930 . S
C983 N980 1.314 . S
C983 C981 1.353 . S
C983 H1039 0.930 . S
C984 N985 1.314 . S
C984 C989 1.353 . S
C984 H990 0.930 . S
N985 Li968 1.990 . S
N985 C984 1.314 . S
N985 C987 1.279 . S
C986 C987 1.358 . S
C986 C988 1.356 . S
C986 H1040 0.930 . S
C987 N985 1.279 . S
C987 C986 1.358 . S
C987 H991 0.930 . S
C988 C986 1.356 . S
C988 C989 1.348 . S
C989 C984 1.353 . S
C989 C988 1.348 . S
C989 H1041 0.929 . S
H990 C984 0.930 . S
H991 C987 0.930 . S
C992 N993 1.314 . S
C992 C994 1.353 . S
C992 H998 0.930 . S
N993 Li969 1.990 . S
N993 C992 1.314 . S
N993 C996 1.279 . S
C994 C992 1.353 . S
C994 C997 1.348 . S
C994 H1042 0.929 . S
C995 C996 1.358 . S
C995 C997 1.356 . S
C995 H1043 0.930 . S
C996 N993 1.279 . S
C996 C995 1.358 . S
C996 H999 0.930 . S
C997 C994 1.348 . S
C997 C995 1.356 . S
H998 C992 0.930 . S
H999 C996 0.930 . S
C1000 C1002 1.348 . S
C1000 C1003 1.356 . S
C1000 O1030 1.325 . S
N1001 C1004 1.314 . S
N1001 C1005 1.279 . S
C1002 C1000 1.348 . S
C1002 C1004 1.353 . S
C1002 H1044 0.929 . S
C1003 C1000 1.356 . S
C1003 C1005 1.358 . S
C1003 H1045 0.930 . S
C1004 N1001 1.314 . S
C1004 C1002 1.353 . S
C1004 H1046 0.930 . S
C1005 N1001 1.279 . S
C1005 C1003 1.358 . S
C1005 H1047 0.930 . S
C1006 C1007 1.348 . S
C1006 C1008 1.356 . S
C1006 O1031 1.325 . S
C1007 C1006 1.348 . S
C1007 C1009 1.353 . S
C1007 H1048 0.929 . S
C1008 C1006 1.356 . S
C1008 C1010 1.358 . S
C1008 H1049 0.930 . S
C1009 C1007 1.353 . S
C1009 N1011 1.314 . S
C1009 H1050 0.930 . S
C1010 C1008 1.358 . S
C1010 N1011 1.279 . S
C1010 H1051 0.930 . S
N1011 C1009 1.314 . S
N1011 C1010 1.279 . S
C1012 C1014 1.353 . S
C1012 N1015 1.314 . S
C1012 H1018 0.930 . S
C1013 N1015 1.279 . S
C1013 C1016 1.358 . S
C1013 H1019 0.930 . S
C1014 C1012 1.353 . S
C1014 C1017 1.348 . S
C1014 H1052 0.929 . S
N1015 Li970 1.990 . S
N1015 C1012 1.314 . S
N1015 C1013 1.279 . S
C1016 C1013 1.358 . S
C1016 C1017 1.356 . S
C1016 H1053 0.930 . S
C1017 C1014 1.348 . S
C1017 C1016 1.356 . S
H1018 C1012 0.930 . S
H1019 C1013 0.930 . S
C1020 N1021 1.314 . S
C1020 C1022 1.353 . S
C1020 H1026 0.930 . S
N1021 Li971 1.990 . S
N1021 C1020 1.314 . S
N1021 C1024 1.279 . S
C1022 C1020 1.353 . S
C1022 C1025 1.348 . S
C1022 H1054 0.929 . S
C1023 C1024 1.358 . S
C1023 C1025 1.356 . S
C1023 H1055 0.930 . S
C1024 N1021 1.279 . S
C1024 C1023 1.358 . S
C1024 H1027 0.930 . S
C1025 C1022 1.348 . S
C1025 C1023 1.356 . S
H1026 C1020 0.930 . S
H1027 C1024 0.930 . S
O1028 Li968 1.956 . S
O1028 Li969 1.970 . S
O1028 Li970 1.961 . S
O1028 C972 1.325 . S
O1029 Li968 1.970 . S
O1029 Li969 1.956 . S
O1029 Li971 1.961 . S
O1029 C978 1.325 . S
O1030 Li968 1.961 . S
O1030 Li970 1.956 . S
O1030 Li971 1.970 . S
O1030 C1000 1.325 . S
O1031 Li969 1.961 . S
O1031 Li970 1.970 . S
O1031 Li971 1.956 . S
O1031 C1006 1.325 . S
H1032 C974 0.929 . S
H1033 C975 0.930 . S
H1034 C976 0.930 . S
H1035 C977 0.930 . S
H1036 C979 0.930 . S
H1037 C981 0.929 . S
H1038 C982 0.930 . S
H1039 C983 0.930 . S
H1040 C986 0.930 . S
H1041 C989 0.929 . S
H1042 C994 0.929 . S
H1043 C995 0.930 . S
H1044 C1002 0.929 . S
H1045 C1003 0.930 . S
H1046 C1004 0.930 . S
H1047 C1005 0.930 . S
H1048 C1007 0.929 . S
H1049 C1008 0.930 . S
H1050 C1009 0.930 . S
H1051 C1010 0.930 . S
H1052 C1014 0.929 . S
H1053 C1016 0.930 . S
H1054 C1022 0.929 . S
H1055 C1023 0.930 . S
Li1056 N1073 1.990 . S
Li1056 O1116 1.956 . S
Li1056 O1117 1.970 . S
Li1056 O1118 1.961 . S
Li1057 N1081 1.990 . S
Li1057 O1116 1.970 . S
Li1057 O1117 1.956 . S
Li1057 O1119 1.961 . S
Li1058 N1103 1.990 . S
Li1058 O1116 1.961 . S
Li1058 O1118 1.956 . S
Li1058 O1119 1.970 . S
Li1059 N1109 1.990 . S
Li1059 O1117 1.961 . S
Li1059 O1118 1.970 . S
Li1059 O1119 1.956 . S
C1060 C1062 1.348 . S
C1060 C1063 1.356 . S
C1060 O1116 1.325 . S
N1061 C1064 1.314 . S
N1061 C1065 1.279 . S
C1062 C1060 1.348 . S
C1062 C1064 1.353 . S
C1062 H1120 0.929 . S
C1063 C1060 1.356 . S
C1063 C1065 1.358 . S
C1063 H1121 0.930 . S
C1064 N1061 1.314 . S
C1064 C1062 1.353 . S
C1064 H1122 0.930 . S
C1065 N1061 1.279 . S
C1065 C1063 1.358 . S
C1065 H1123 0.930 . S
C1066 C1069 1.348 . S
C1066 C1070 1.356 . S
C1066 O1117 1.325 . S
C1067 N1068 1.279 . S
C1067 C1070 1.358 . S
C1067 H1124 0.930 . S
N1068 C1067 1.279 . S
N1068 C1071 1.314 . S
C1069 C1066 1.348 . S
C1069 C1071 1.353 . S
C1069 H1125 0.929 . S
C1070 C1066 1.356 . S
C1070 C1067 1.358 . S
C1070 H1126 0.930 . S
C1071 N1068 1.314 . S
C1071 C1069 1.353 . S
C1071 H1127 0.930 . S
C1072 N1073 1.314 . S
C1072 C1077 1.353 . S
C1072 H1078 0.930 . S
N1073 Li1056 1.990 . S
N1073 C1072 1.314 . S
N1073 C1075 1.279 . S
C1074 C1075 1.358 . S
C1074 C1076 1.356 . S
C1074 H1128 0.930 . S
C1075 N1073 1.279 . S
C1075 C1074 1.358 . S
C1075 H1079 0.930 . S
C1076 C1074 1.356 . S
C1076 C1077 1.348 . S
C1077 C1072 1.353 . S
C1077 C1076 1.348 . S
C1077 H1129 0.929 . S
H1078 C1072 0.930 . S
H1079 C1075 0.930 . S
C1080 N1081 1.314 . S
C1080 C1082 1.353 . S
C1080 H1086 0.930 . S
N1081 Li1057 1.990 . S
N1081 C1080 1.314 . S
N1081 C1084 1.279 . S
C1082 C1080 1.353 . S
C1082 C1085 1.348 . S
C1082 H1130 0.929 . S
C1083 C1084 1.358 . S
C1083 C1085 1.356 . S
C1083 H1131 0.930 . S
C1084 N1081 1.279 . S
C1084 C1083 1.358 . S
C1084 H1087 0.930 . S
C1085 C1082 1.348 . S
C1085 C1083 1.356 . S
H1086 C1080 0.930 . S
H1087 C1084 0.930 . S
C1088 C1090 1.348 . S
C1088 C1091 1.356 . S
C1088 O1118 1.325 . S
N1089 C1092 1.314 . S
N1089 C1093 1.279 . S
C1090 C1088 1.348 . S
C1090 C1092 1.353 . S
C1090 H1132 0.929 . S
C1091 C1088 1.356 . S
C1091 C1093 1.358 . S
C1091 H1133 0.930 . S
C1092 N1089 1.314 . S
C1092 C1090 1.353 . S
C1092 H1134 0.930 . S
C1093 N1089 1.279 . S
C1093 C1091 1.358 . S
C1093 H1135 0.930 . S
C1094 C1095 1.348 . S
C1094 C1096 1.356 . S
C1094 O1119 1.325 . S
C1095 C1094 1.348 . S
C1095 C1097 1.353 . S
C1095 H1136 0.929 . S
C1096 C1094 1.356 . S
C1096 C1098 1.358 . S
C1096 H1137 0.930 . S
C1097 C1095 1.353 . S
C1097 N1099 1.314 . S
C1097 H1138 0.930 . S
C1098 C1096 1.358 . S
C1098 N1099 1.279 . S
C1098 H1139 0.930 . S
N1099 C1097 1.314 . S
N1099 C1098 1.279 . S
C1100 C1102 1.353 . S
C1100 N1103 1.314 . S
C1100 H1106 0.930 . S
C1101 N1103 1.279 . S
C1101 C1104 1.358 . S
C1101 H1107 0.930 . S
C1102 C1100 1.353 . S
C1102 C1105 1.348 . S
C1102 H1140 0.929 . S
N1103 Li1058 1.990 . S
N1103 C1100 1.314 . S
N1103 C1101 1.279 . S
C1104 C1101 1.358 . S
C1104 C1105 1.356 . S
C1104 H1141 0.930 . S
C1105 C1102 1.348 . S
C1105 C1104 1.356 . S
H1106 C1100 0.930 . S
H1107 C1101 0.930 . S
C1108 N1109 1.314 . S
C1108 C1110 1.353 . S
C1108 H1114 0.930 . S
N1109 Li1059 1.990 . S
N1109 C1108 1.314 . S
N1109 C1112 1.279 . S
C1110 C1108 1.353 . S
C1110 C1113 1.348 . S
C1110 H1142 0.929 . S
C1111 C1112 1.358 . S
C1111 C1113 1.356 . S
C1111 H1143 0.930 . S
C1112 N1109 1.279 . S
C1112 C1111 1.358 . S
C1112 H1115 0.930 . S
C1113 C1110 1.348 . S
C1113 C1111 1.356 . S
H1114 C1108 0.930 . S
H1115 C1112 0.930 . S
O1116 Li1056 1.956 . S
O1116 Li1057 1.970 . S
O1116 Li1058 1.961 . S
O1116 C1060 1.325 . S
O1117 Li1056 1.970 . S
O1117 Li1057 1.956 . S
O1117 Li1059 1.961 . S
O1117 C1066 1.325 . S
O1118 Li1056 1.961 . S
O1118 Li1058 1.956 . S
O1118 Li1059 1.970 . S
O1118 C1088 1.325 . S
O1119 Li1057 1.961 . S
O1119 Li1058 1.970 . S
O1119 Li1059 1.956 . S
O1119 C1094 1.325 . S
H1120 C1062 0.929 . S
H1121 C1063 0.930 . S
H1122 C1064 0.930 . S
H1123 C1065 0.930 . S
H1124 C1067 0.930 . S
H1125 C1069 0.929 . S
H1126 C1070 0.930 . S
H1127 C1071 0.930 . S
H1128 C1074 0.930 . S
H1129 C1077 0.929 . S
H1130 C1082 0.929 . S
H1131 C1083 0.930 . S
H1132 C1090 0.929 . S
H1133 C1091 0.930 . S
H1134 C1092 0.930 . S
H1135 C1093 0.930 . S
H1136 C1095 0.929 . S
H1137 C1096 0.930 . S
H1138 C1097 0.930 . S
H1139 C1098 0.930 . S
H1140 C1102 0.929 . S
H1141 C1104 0.930 . S
H1142 C1110 0.929 . S
H1143 C1111 0.930 . S
Li1144 N1161 1.990 . S
Li1144 O1204 1.956 . S
Li1144 O1205 1.970 . S
Li1144 O1206 1.961 . S
Li1145 N1169 1.990 . S
Li1145 O1204 1.970 . S
Li1145 O1205 1.956 . S
Li1145 O1207 1.961 . S
Li1146 N1191 1.990 . S
Li1146 O1204 1.961 . S
Li1146 O1206 1.956 . S
Li1146 O1207 1.970 . S
Li1147 N1197 1.990 . S
Li1147 O1205 1.961 . S
Li1147 O1206 1.970 . S
Li1147 O1207 1.956 . S
C1148 C1150 1.348 . S
C1148 C1151 1.356 . S
C1148 O1204 1.325 . S
N1149 C1152 1.314 . S
N1149 C1153 1.279 . S
C1150 C1148 1.348 . S
C1150 C1152 1.353 . S
C1150 H1208 0.929 . S
C1151 C1148 1.356 . S
C1151 C1153 1.358 . S
C1151 H1209 0.930 . S
C1152 N1149 1.314 . S
C1152 C1150 1.353 . S
C1152 H1210 0.930 . S
C1153 N1149 1.279 . S
C1153 C1151 1.358 . S
C1153 H1211 0.930 . S
C1154 C1157 1.348 . S
C1154 C1158 1.356 . S
C1154 O1205 1.325 . S
C1155 N1156 1.279 . S
C1155 C1158 1.358 . S
C1155 H1212 0.930 . S
N1156 C1155 1.279 . S
N1156 C1159 1.314 . S
C1157 C1154 1.348 . S
C1157 C1159 1.353 . S
C1157 H1213 0.929 . S
C1158 C1154 1.356 . S
C1158 C1155 1.358 . S
C1158 H1214 0.930 . S
C1159 N1156 1.314 . S
C1159 C1157 1.353 . S
C1159 H1215 0.930 . S
C1160 N1161 1.314 . S
C1160 C1165 1.353 . S
C1160 H1166 0.930 . S
N1161 Li1144 1.990 . S
N1161 C1160 1.314 . S
N1161 C1163 1.279 . S
C1162 C1163 1.358 . S
C1162 C1164 1.356 . S
C1162 H1216 0.930 . S
C1163 N1161 1.279 . S
C1163 C1162 1.358 . S
C1163 H1167 0.930 . S
C1164 C1162 1.356 . S
C1164 C1165 1.348 . S
C1165 C1160 1.353 . S
C1165 C1164 1.348 . S
C1165 H1217 0.929 . S
H1166 C1160 0.930 . S
H1167 C1163 0.930 . S
C1168 N1169 1.314 . S
C1168 C1170 1.353 . S
C1168 H1174 0.930 . S
N1169 Li1145 1.990 . S
N1169 C1168 1.314 . S
N1169 C1172 1.279 . S
C1170 C1168 1.353 . S
C1170 C1173 1.348 . S
C1170 H1218 0.929 . S
C1171 C1172 1.358 . S
C1171 C1173 1.356 . S
C1171 H1219 0.930 . S
C1172 N1169 1.279 . S
C1172 C1171 1.358 . S
C1172 H1175 0.930 . S
C1173 C1170 1.348 . S
C1173 C1171 1.356 . S
H1174 C1168 0.930 . S
H1175 C1172 0.930 . S
C1176 C1178 1.348 . S
C1176 C1179 1.356 . S
C1176 O1206 1.325 . S
N1177 C1180 1.314 . S
N1177 C1181 1.279 . S
C1178 C1176 1.348 . S
C1178 C1180 1.353 . S
C1178 H1220 0.929 . S
C1179 C1176 1.356 . S
C1179 C1181 1.358 . S
C1179 H1221 0.930 . S
C1180 N1177 1.314 . S
C1180 C1178 1.353 . S
C1180 H1222 0.930 . S
C1181 N1177 1.279 . S
C1181 C1179 1.358 . S
C1181 H1223 0.930 . S
C1182 C1183 1.348 . S
C1182 C1184 1.356 . S
C1182 O1207 1.325 . S
C1183 C1182 1.348 . S
C1183 C1185 1.353 . S
C1183 H1224 0.929 . S
C1184 C1182 1.356 . S
C1184 C1186 1.358 . S
C1184 H1225 0.930 . S
C1185 C1183 1.353 . S
C1185 N1187 1.314 . S
C1185 H1226 0.930 . S
C1186 C1184 1.358 . S
C1186 N1187 1.279 . S
C1186 H1227 0.930 . S
N1187 C1185 1.314 . S
N1187 C1186 1.279 . S
C1188 C1190 1.353 . S
C1188 N1191 1.314 . S
C1188 H1194 0.930 . S
C1189 N1191 1.279 . S
C1189 C1192 1.358 . S
C1189 H1195 0.930 . S
C1190 C1188 1.353 . S
C1190 C1193 1.348 . S
C1190 H1228 0.929 . S
N1191 Li1146 1.990 . S
N1191 C1188 1.314 . S
N1191 C1189 1.279 . S
C1192 C1189 1.358 . S
C1192 C1193 1.356 . S
C1192 H1229 0.930 . S
C1193 C1190 1.348 . S
C1193 C1192 1.356 . S
H1194 C1188 0.930 . S
H1195 C1189 0.930 . S
C1196 N1197 1.314 . S
C1196 C1198 1.353 . S
C1196 H1202 0.930 . S
N1197 Li1147 1.990 . S
N1197 C1196 1.314 . S
N1197 C1200 1.279 . S
C1198 C1196 1.353 . S
C1198 C1201 1.348 . S
C1198 H1230 0.929 . S
C1199 C1200 1.358 . S
C1199 C1201 1.356 . S
C1199 H1231 0.930 . S
C1200 N1197 1.279 . S
C1200 C1199 1.358 . S
C1200 H1203 0.930 . S
C1201 C1198 1.348 . S
C1201 C1199 1.356 . S
H1202 C1196 0.930 . S
H1203 C1200 0.930 . S
O1204 Li1144 1.956 . S
O1204 Li1145 1.970 . S
O1204 Li1146 1.961 . S
O1204 C1148 1.325 . S
O1205 Li1144 1.970 . S
O1205 Li1145 1.956 . S
O1205 Li1147 1.961 . S
O1205 C1154 1.325 . S
O1206 Li1144 1.961 . S
O1206 Li1146 1.956 . S
O1206 Li1147 1.970 . S
O1206 C1176 1.325 . S
O1207 Li1145 1.961 . S
O1207 Li1146 1.970 . S
O1207 Li1147 1.956 . S
O1207 C1182 1.325 . S
H1208 C1150 0.929 . S
H1209 C1151 0.930 . S
H1210 C1152 0.930 . S
H1211 C1153 0.930 . S
H1212 C1155 0.930 . S
H1213 C1157 0.929 . S
H1214 C1158 0.930 . S
H1215 C1159 0.930 . S
H1216 C1162 0.930 . S
H1217 C1165 0.929 . S
H1218 C1170 0.929 . S
H1219 C1171 0.930 . S
H1220 C1178 0.929 . S
H1221 C1179 0.930 . S
H1222 C1180 0.930 . S
H1223 C1181 0.930 . S
H1224 C1183 0.929 . S
H1225 C1184 0.930 . S
H1226 C1185 0.930 . S
H1227 C1186 0.930 . S
H1228 C1190 0.929 . S
H1229 C1192 0.930 . S
H1230 C1198 0.929 . S
H1231 C1199 0.930 . S
Li1232 N1249 1.990 . S
Li1232 O1292 1.956 . S
Li1232 O1293 1.970 . S
Li1232 O1294 1.961 . S
Li1233 N1257 1.990 . S
Li1233 O1292 1.970 . S
Li1233 O1293 1.956 . S
Li1233 O1295 1.961 . S
Li1234 N1279 1.990 . S
Li1234 O1292 1.961 . S
Li1234 O1294 1.956 . S
Li1234 O1295 1.970 . S
Li1235 N1285 1.990 . S
Li1235 O1293 1.961 . S
Li1235 O1294 1.970 . S
Li1235 O1295 1.956 . S
C1236 C1238 1.348 . S
C1236 C1239 1.356 . S
C1236 O1292 1.325 . S
N1237 C1240 1.314 . S
N1237 C1241 1.279 . S
C1238 C1236 1.348 . S
C1238 C1240 1.353 . S
C1238 H1296 0.929 . S
C1239 C1236 1.356 . S
C1239 C1241 1.358 . S
C1239 H1297 0.930 . S
C1240 N1237 1.314 . S
C1240 C1238 1.353 . S
C1240 H1298 0.930 . S
C1241 N1237 1.279 . S
C1241 C1239 1.358 . S
C1241 H1299 0.930 . S
C1242 C1245 1.348 . S
C1242 C1246 1.356 . S
C1242 O1293 1.325 . S
C1243 N1244 1.279 . S
C1243 C1246 1.358 . S
C1243 H1300 0.930 . S
N1244 C1243 1.279 . S
N1244 C1247 1.314 . S
C1245 C1242 1.348 . S
C1245 C1247 1.353 . S
C1245 H1301 0.929 . S
C1246 C1242 1.356 . S
C1246 C1243 1.358 . S
C1246 H1302 0.930 . S
C1247 N1244 1.314 . S
C1247 C1245 1.353 . S
C1247 H1303 0.930 . S
C1248 N1249 1.314 . S
C1248 C1253 1.353 . S
C1248 H1254 0.930 . S
N1249 Li1232 1.990 . S
N1249 C1248 1.314 . S
N1249 C1251 1.279 . S
C1250 C1251 1.358 . S
C1250 C1252 1.356 . S
C1250 H1304 0.930 . S
C1251 N1249 1.279 . S
C1251 C1250 1.358 . S
C1251 H1255 0.930 . S
C1252 C1250 1.356 . S
C1252 C1253 1.348 . S
C1253 C1248 1.353 . S
C1253 C1252 1.348 . S
C1253 H1305 0.929 . S
H1254 C1248 0.930 . S
H1255 C1251 0.930 . S
C1256 N1257 1.314 . S
C1256 C1258 1.353 . S
C1256 H1262 0.930 . S
N1257 Li1233 1.990 . S
N1257 C1256 1.314 . S
N1257 C1260 1.279 . S
C1258 C1256 1.353 . S
C1258 C1261 1.348 . S
C1258 H1306 0.929 . S
C1259 C1260 1.358 . S
C1259 C1261 1.356 . S
C1259 H1307 0.930 . S
C1260 N1257 1.279 . S
C1260 C1259 1.358 . S
C1260 H1263 0.930 . S
C1261 C1258 1.348 . S
C1261 C1259 1.356 . S
H1262 C1256 0.930 . S
H1263 C1260 0.930 . S
C1264 C1266 1.348 . S
C1264 C1267 1.356 . S
C1264 O1294 1.325 . S
N1265 C1268 1.314 . S
N1265 C1269 1.279 . S
C1266 C1264 1.348 . S
C1266 C1268 1.353 . S
C1266 H1308 0.929 . S
C1267 C1264 1.356 . S
C1267 C1269 1.358 . S
C1267 H1309 0.930 . S
C1268 N1265 1.314 . S
C1268 C1266 1.353 . S
C1268 H1310 0.930 . S
C1269 N1265 1.279 . S
C1269 C1267 1.358 . S
C1269 H1311 0.930 . S
C1270 C1271 1.348 . S
C1270 C1272 1.356 . S
C1270 O1295 1.325 . S
C1271 C1270 1.348 . S
C1271 C1273 1.353 . S
C1271 H1312 0.929 . S
C1272 C1270 1.356 . S
C1272 C1274 1.358 . S
C1272 H1313 0.930 . S
C1273 C1271 1.353 . S
C1273 N1275 1.314 . S
C1273 H1314 0.930 . S
C1274 C1272 1.358 . S
C1274 N1275 1.279 . S
C1274 H1315 0.930 . S
N1275 C1273 1.314 . S
N1275 C1274 1.279 . S
C1276 C1278 1.353 . S
C1276 N1279 1.314 . S
C1276 H1282 0.930 . S
C1277 N1279 1.279 . S
C1277 C1280 1.358 . S
C1277 H1283 0.930 . S
C1278 C1276 1.353 . S
C1278 C1281 1.348 . S
C1278 H1316 0.929 . S
N1279 Li1234 1.990 . S
N1279 C1276 1.314 . S
N1279 C1277 1.279 . S
C1280 C1277 1.358 . S
C1280 C1281 1.356 . S
C1280 H1317 0.930 . S
C1281 C1278 1.348 . S
C1281 C1280 1.356 . S
H1282 C1276 0.930 . S
H1283 C1277 0.930 . S
C1284 N1285 1.314 . S
C1284 C1286 1.353 . S
C1284 H1290 0.930 . S
N1285 Li1235 1.990 . S
N1285 C1284 1.314 . S
N1285 C1288 1.279 . S
C1286 C1284 1.353 . S
C1286 C1289 1.348 . S
C1286 H1318 0.929 . S
C1287 C1288 1.358 . S
C1287 C1289 1.356 . S
C1287 H1319 0.930 . S
C1288 N1285 1.279 . S
C1288 C1287 1.358 . S
C1288 H1291 0.930 . S
C1289 C1286 1.348 . S
C1289 C1287 1.356 . S
H1290 C1284 0.930 . S
H1291 C1288 0.930 . S
O1292 Li1232 1.956 . S
O1292 Li1233 1.970 . S
O1292 Li1234 1.961 . S
O1292 C1236 1.325 . S
O1293 Li1232 1.970 . S
O1293 Li1233 1.956 . S
O1293 Li1235 1.961 . S
O1293 C1242 1.325 . S
O1294 Li1232 1.961 . S
O1294 Li1234 1.956 . S
O1294 Li1235 1.970 . S
O1294 C1264 1.325 . S
O1295 Li1233 1.961 . S
O1295 Li1234 1.970 . S
O1295 Li1235 1.956 . S
O1295 C1270 1.325 . S
H1296 C1238 0.929 . S
H1297 C1239 0.930 . S
H1298 C1240 0.930 . S
H1299 C1241 0.930 . S
H1300 C1243 0.930 . S
H1301 C1245 0.929 . S
H1302 C1246 0.930 . S
H1303 C1247 0.930 . S
H1304 C1250 0.930 . S
H1305 C1253 0.929 . S
H1306 C1258 0.929 . S
H1307 C1259 0.930 . S
H1308 C1266 0.929 . S
H1309 C1267 0.930 . S
H1310 C1268 0.930 . S
H1311 C1269 0.930 . S
H1312 C1271 0.929 . S
H1313 C1272 0.930 . S
H1314 C1273 0.930 . S
H1315 C1274 0.930 . S
H1316 C1278 0.929 . S
H1317 C1280 0.930 . S
H1318 C1286 0.929 . S
H1319 C1287 0.930 . S
Li1320 N1337 1.990 . S
Li1320 O1380 1.956 . S
Li1320 O1381 1.970 . S
Li1320 O1382 1.961 . S
Li1321 N1345 1.990 . S
Li1321 O1380 1.970 . S
Li1321 O1381 1.956 . S
Li1321 O1383 1.961 . S
Li1322 N1367 1.990 . S
Li1322 O1380 1.961 . S
Li1322 O1382 1.956 . S
Li1322 O1383 1.970 . S
Li1323 N1373 1.990 . S
Li1323 O1381 1.961 . S
Li1323 O1382 1.970 . S
Li1323 O1383 1.956 . S
C1324 C1326 1.348 . S
C1324 C1327 1.356 . S
C1324 O1380 1.325 . S
N1325 C1328 1.314 . S
N1325 C1329 1.279 . S
C1326 C1324 1.348 . S
C1326 C1328 1.353 . S
C1326 H1384 0.929 . S
C1327 C1324 1.356 . S
C1327 C1329 1.358 . S
C1327 H1385 0.930 . S
C1328 N1325 1.314 . S
C1328 C1326 1.353 . S
C1328 H1386 0.930 . S
C1329 N1325 1.279 . S
C1329 C1327 1.358 . S
C1329 H1387 0.930 . S
C1330 C1333 1.348 . S
C1330 C1334 1.356 . S
C1330 O1381 1.325 . S
C1331 N1332 1.279 . S
C1331 C1334 1.358 . S
C1331 H1388 0.930 . S
N1332 C1331 1.279 . S
N1332 C1335 1.314 . S
C1333 C1330 1.348 . S
C1333 C1335 1.353 . S
C1333 H1389 0.929 . S
C1334 C1330 1.356 . S
C1334 C1331 1.358 . S
C1334 H1390 0.930 . S
C1335 N1332 1.314 . S
C1335 C1333 1.353 . S
C1335 H1391 0.930 . S
C1336 N1337 1.314 . S
C1336 C1341 1.353 . S
C1336 H1342 0.930 . S
N1337 Li1320 1.990 . S
N1337 C1336 1.314 . S
N1337 C1339 1.279 . S
C1338 C1339 1.358 . S
C1338 C1340 1.356 . S
C1338 H1392 0.930 . S
C1339 N1337 1.279 . S
C1339 C1338 1.358 . S
C1339 H1343 0.930 . S
C1340 C1338 1.356 . S
C1340 C1341 1.348 . S
C1341 C1336 1.353 . S
C1341 C1340 1.348 . S
C1341 H1393 0.929 . S
H1342 C1336 0.930 . S
H1343 C1339 0.930 . S
C1344 N1345 1.314 . S
C1344 C1346 1.353 . S
C1344 H1350 0.930 . S
N1345 Li1321 1.990 . S
N1345 C1344 1.314 . S
N1345 C1348 1.279 . S
C1346 C1344 1.353 . S
C1346 C1349 1.348 . S
C1346 H1394 0.929 . S
C1347 C1348 1.358 . S
C1347 C1349 1.356 . S
C1347 H1395 0.930 . S
C1348 N1345 1.279 . S
C1348 C1347 1.358 . S
C1348 H1351 0.930 . S
C1349 C1346 1.348 . S
C1349 C1347 1.356 . S
H1350 C1344 0.930 . S
H1351 C1348 0.930 . S
C1352 C1354 1.348 . S
C1352 C1355 1.356 . S
C1352 O1382 1.325 . S
N1353 C1356 1.314 . S
N1353 C1357 1.279 . S
C1354 C1352 1.348 . S
C1354 C1356 1.353 . S
C1354 H1396 0.929 . S
C1355 C1352 1.356 . S
C1355 C1357 1.358 . S
C1355 H1397 0.930 . S
C1356 N1353 1.314 . S
C1356 C1354 1.353 . S
C1356 H1398 0.930 . S
C1357 N1353 1.279 . S
C1357 C1355 1.358 . S
C1357 H1399 0.930 . S
C1358 C1359 1.348 . S
C1358 C1360 1.356 . S
C1358 O1383 1.325 . S
C1359 C1358 1.348 . S
C1359 C1361 1.353 . S
C1359 H1400 0.929 . S
C1360 C1358 1.356 . S
C1360 C1362 1.358 . S
C1360 H1401 0.930 . S
C1361 C1359 1.353 . S
C1361 N1363 1.314 . S
C1361 H1402 0.930 . S
C1362 C1360 1.358 . S
C1362 N1363 1.279 . S
C1362 H1403 0.930 . S
N1363 C1361 1.314 . S
N1363 C1362 1.279 . S
C1364 C1366 1.353 . S
C1364 N1367 1.314 . S
C1364 H1370 0.930 . S
C1365 N1367 1.279 . S
C1365 C1368 1.358 . S
C1365 H1371 0.930 . S
C1366 C1364 1.353 . S
C1366 C1369 1.348 . S
C1366 H1404 0.929 . S
N1367 Li1322 1.990 . S
N1367 C1364 1.314 . S
N1367 C1365 1.279 . S
C1368 C1365 1.358 . S
C1368 C1369 1.356 . S
C1368 H1405 0.930 . S
C1369 C1366 1.348 . S
C1369 C1368 1.356 . S
H1370 C1364 0.930 . S
H1371 C1365 0.930 . S
C1372 N1373 1.314 . S
C1372 C1374 1.353 . S
C1372 H1378 0.930 . S
N1373 Li1323 1.990 . S
N1373 C1372 1.314 . S
N1373 C1376 1.279 . S
C1374 C1372 1.353 . S
C1374 C1377 1.348 . S
C1374 H1406 0.929 . S
C1375 C1376 1.358 . S
C1375 C1377 1.356 . S
C1375 H1407 0.930 . S
C1376 N1373 1.279 . S
C1376 C1375 1.358 . S
C1376 H1379 0.930 . S
C1377 C1374 1.348 . S
C1377 C1375 1.356 . S
H1378 C1372 0.930 . S
H1379 C1376 0.930 . S
O1380 Li1320 1.956 . S
O1380 Li1321 1.970 . S
O1380 Li1322 1.961 . S
O1380 C1324 1.325 . S
O1381 Li1320 1.970 . S
O1381 Li1321 1.956 . S
O1381 Li1323 1.961 . S
O1381 C1330 1.325 . S
O1382 Li1320 1.961 . S
O1382 Li1322 1.956 . S
O1382 Li1323 1.970 . S
O1382 C1352 1.325 . S
O1383 Li1321 1.961 . S
O1383 Li1322 1.970 . S
O1383 Li1323 1.956 . S
O1383 C1358 1.325 . S
H1384 C1326 0.929 . S
H1385 C1327 0.930 . S
H1386 C1328 0.930 . S
H1387 C1329 0.930 . S
H1388 C1331 0.930 . S
H1389 C1333 0.929 . S
H1390 C1334 0.930 . S
H1391 C1335 0.930 . S
H1392 C1338 0.930 . S
H1393 C1341 0.929 . S
H1394 C1346 0.929 . S
H1395 C1347 0.930 . S
H1396 C1354 0.929 . S
H1397 C1355 0.930 . S
H1398 C1356 0.930 . S
H1399 C1357 0.930 . S
H1400 C1359 0.929 . S
H1401 C1360 0.930 . S
H1402 C1361 0.930 . S
H1403 C1362 0.930 . S
H1404 C1366 0.929 . S
H1405 C1368 0.930 . S
H1406 C1374 0.929 . S
H1407 C1375 0.930 . S
Li1408 N1425 1.990 . S
Li1408 O1468 1.956 . S
Li1408 O1469 1.970 . S
Li1408 O1470 1.961 . S
Li1409 N1433 1.990 . S
Li1409 O1468 1.970 . S
Li1409 O1469 1.956 . S
Li1409 O1471 1.961 . S
Li1410 N1455 1.990 . S
Li1410 O1468 1.961 . S
Li1410 O1470 1.956 . S
Li1410 O1471 1.970 . S
Li1411 N1461 1.990 . S
Li1411 O1469 1.961 . S
Li1411 O1470 1.970 . S
Li1411 O1471 1.956 . S
C1412 C1414 1.348 . S
C1412 C1415 1.356 . S
C1412 O1468 1.325 . S
N1413 C1416 1.314 . S
N1413 C1417 1.279 . S
C1414 C1412 1.348 . S
C1414 C1416 1.353 . S
C1414 H1472 0.929 . S
C1415 C1412 1.356 . S
C1415 C1417 1.358 . S
C1415 H1473 0.930 . S
C1416 N1413 1.314 . S
C1416 C1414 1.353 . S
C1416 H1474 0.930 . S
C1417 N1413 1.279 . S
C1417 C1415 1.358 . S
C1417 H1475 0.930 . S
C1418 C1421 1.348 . S
C1418 C1422 1.356 . S
C1418 O1469 1.325 . S
C1419 N1420 1.279 . S
C1419 C1422 1.358 . S
C1419 H1476 0.930 . S
N1420 C1419 1.279 . S
N1420 C1423 1.314 . S
C1421 C1418 1.348 . S
C1421 C1423 1.353 . S
C1421 H1477 0.929 . S
C1422 C1418 1.356 . S
C1422 C1419 1.358 . S
C1422 H1478 0.930 . S
C1423 N1420 1.314 . S
C1423 C1421 1.353 . S
C1423 H1479 0.930 . S
C1424 N1425 1.314 . S
C1424 C1429 1.353 . S
C1424 H1430 0.930 . S
N1425 Li1408 1.990 . S
N1425 C1424 1.314 . S
N1425 C1427 1.279 . S
C1426 C1427 1.358 . S
C1426 C1428 1.356 . S
C1426 H1480 0.930 . S
C1427 N1425 1.279 . S
C1427 C1426 1.358 . S
C1427 H1431 0.930 . S
C1428 C1426 1.356 . S
C1428 C1429 1.348 . S
C1429 C1424 1.353 . S
C1429 C1428 1.348 . S
C1429 H1481 0.929 . S
H1430 C1424 0.930 . S
H1431 C1427 0.930 . S
C1432 N1433 1.314 . S
C1432 C1434 1.353 . S
C1432 H1438 0.930 . S
N1433 Li1409 1.990 . S
N1433 C1432 1.314 . S
N1433 C1436 1.279 . S
C1434 C1432 1.353 . S
C1434 C1437 1.348 . S
C1434 H1482 0.929 . S
C1435 C1436 1.358 . S
C1435 C1437 1.356 . S
C1435 H1483 0.930 . S
C1436 N1433 1.279 . S
C1436 C1435 1.358 . S
C1436 H1439 0.930 . S
C1437 C1434 1.348 . S
C1437 C1435 1.356 . S
H1438 C1432 0.930 . S
H1439 C1436 0.930 . S
C1440 C1442 1.348 . S
C1440 C1443 1.356 . S
C1440 O1470 1.325 . S
N1441 C1444 1.314 . S
N1441 C1445 1.279 . S
C1442 C1440 1.348 . S
C1442 C1444 1.353 . S
C1442 H1484 0.929 . S
C1443 C1440 1.356 . S
C1443 C1445 1.358 . S
C1443 H1485 0.930 . S
C1444 N1441 1.314 . S
C1444 C1442 1.353 . S
C1444 H1486 0.930 . S
C1445 N1441 1.279 . S
C1445 C1443 1.358 . S
C1445 H1487 0.930 . S
C1446 C1447 1.348 . S
C1446 C1448 1.356 . S
C1446 O1471 1.325 . S
C1447 C1446 1.348 . S
C1447 C1449 1.353 . S
C1447 H1488 0.929 . S
C1448 C1446 1.356 . S
C1448 C1450 1.358 . S
C1448 H1489 0.930 . S
C1449 C1447 1.353 . S
C1449 N1451 1.314 . S
C1449 H1490 0.930 . S
C1450 C1448 1.358 . S
C1450 N1451 1.279 . S
C1450 H1491 0.930 . S
N1451 C1449 1.314 . S
N1451 C1450 1.279 . S
C1452 C1454 1.353 . S
C1452 N1455 1.314 . S
C1452 H1458 0.930 . S
C1453 N1455 1.279 . S
C1453 C1456 1.358 . S
C1453 H1459 0.930 . S
C1454 C1452 1.353 . S
C1454 C1457 1.348 . S
C1454 H1492 0.929 . S
N1455 Li1410 1.990 . S
N1455 C1452 1.314 . S
N1455 C1453 1.279 . S
C1456 C1453 1.358 . S
C1456 C1457 1.356 . S
C1456 H1493 0.930 . S
C1457 C1454 1.348 . S
C1457 C1456 1.356 . S
H1458 C1452 0.930 . S
H1459 C1453 0.930 . S
C1460 N1461 1.314 . S
C1460 C1462 1.353 . S
C1460 H1466 0.930 . S
N1461 Li1411 1.990 . S
N1461 C1460 1.314 . S
N1461 C1464 1.279 . S
C1462 C1460 1.353 . S
C1462 C1465 1.348 . S
C1462 H1494 0.929 . S
C1463 C1464 1.358 . S
C1463 C1465 1.356 . S
C1463 H1495 0.930 . S
C1464 N1461 1.279 . S
C1464 C1463 1.358 . S
C1464 H1467 0.930 . S
C1465 C1462 1.348 . S
C1465 C1463 1.356 . S
H1466 C1460 0.930 . S
H1467 C1464 0.930 . S
O1468 Li1408 1.956 . S
O1468 Li1409 1.970 . S
O1468 Li1410 1.961 . S
O1468 C1412 1.325 . S
O1469 Li1408 1.970 . S
O1469 Li1409 1.956 . S
O1469 Li1411 1.961 . S
O1469 C1418 1.325 . S
O1470 Li1408 1.961 . S
O1470 Li1410 1.956 . S
O1470 Li1411 1.970 . S
O1470 C1440 1.325 . S
O1471 Li1409 1.961 . S
O1471 Li1410 1.970 . S
O1471 Li1411 1.956 . S
O1471 C1446 1.325 . S
H1472 C1414 0.929 . S
H1473 C1415 0.930 . S
H1474 C1416 0.930 . S
H1475 C1417 0.930 . S
H1476 C1419 0.930 . S
H1477 C1421 0.929 . S
H1478 C1422 0.930 . S
H1479 C1423 0.930 . S
H1480 C1426 0.930 . S
H1481 C1429 0.929 . S
H1482 C1434 0.929 . S
H1483 C1435 0.930 . S
H1484 C1442 0.929 . S
H1485 C1443 0.930 . S
H1486 C1444 0.930 . S
H1487 C1445 0.930 . S
H1488 C1447 0.929 . S
H1489 C1448 0.930 . S
H1490 C1449 0.930 . S
H1491 C1450 0.930 . S
H1492 C1454 0.929 . S
H1493 C1456 0.930 . S
H1494 C1462 0.929 . S
H1495 C1463 0.930 . S
Li1496 N1513 1.990 . S
Li1496 O1556 1.956 . S
Li1496 O1557 1.970 . S
Li1496 O1558 1.961 . S
Li1497 N1521 1.990 . S
Li1497 O1556 1.970 . S
Li1497 O1557 1.956 . S
Li1497 O1559 1.961 . S
Li1498 N1543 1.990 . S
Li1498 O1556 1.961 . S
Li1498 O1558 1.956 . S
Li1498 O1559 1.970 . S
Li1499 N1549 1.990 . S
Li1499 O1557 1.961 . S
Li1499 O1558 1.970 . S
Li1499 O1559 1.956 . S
C1500 C1502 1.348 . S
C1500 C1503 1.356 . S
C1500 O1556 1.325 . S
N1501 C1504 1.314 . S
N1501 C1505 1.279 . S
C1502 C1500 1.348 . S
C1502 C1504 1.353 . S
C1502 H1560 0.929 . S
C1503 C1500 1.356 . S
C1503 C1505 1.358 . S
C1503 H1561 0.930 . S
C1504 N1501 1.314 . S
C1504 C1502 1.353 . S
C1504 H1562 0.930 . S
C1505 N1501 1.279 . S
C1505 C1503 1.358 . S
C1505 H1563 0.930 . S
C1506 C1509 1.348 . S
C1506 C1510 1.356 . S
C1506 O1557 1.325 . S
C1507 N1508 1.279 . S
C1507 C1510 1.358 . S
C1507 H1564 0.930 . S
N1508 C1507 1.279 . S
N1508 C1511 1.314 . S
C1509 C1506 1.348 . S
C1509 C1511 1.353 . S
C1509 H1565 0.929 . S
C1510 C1506 1.356 . S
C1510 C1507 1.358 . S
C1510 H1566 0.930 . S
C1511 N1508 1.314 . S
C1511 C1509 1.353 . S
C1511 H1567 0.930 . S
C1512 N1513 1.314 . S
C1512 C1517 1.353 . S
C1512 H1518 0.930 . S
N1513 Li1496 1.990 . S
N1513 C1512 1.314 . S
N1513 C1515 1.279 . S
C1514 C1515 1.358 . S
C1514 C1516 1.356 . S
C1514 H1568 0.930 . S
C1515 N1513 1.279 . S
C1515 C1514 1.358 . S
C1515 H1519 0.930 . S
C1516 C1514 1.356 . S
C1516 C1517 1.348 . S
C1517 C1512 1.353 . S
C1517 C1516 1.348 . S
C1517 H1569 0.929 . S
H1518 C1512 0.930 . S
H1519 C1515 0.930 . S
C1520 N1521 1.314 . S
C1520 C1522 1.353 . S
C1520 H1526 0.930 . S
N1521 Li1497 1.990 . S
N1521 C1520 1.314 . S
N1521 C1524 1.279 . S
C1522 C1520 1.353 . S
C1522 C1525 1.348 . S
C1522 H1570 0.929 . S
C1523 C1524 1.358 . S
C1523 C1525 1.356 . S
C1523 H1571 0.930 . S
C1524 N1521 1.279 . S
C1524 C1523 1.358 . S
C1524 H1527 0.930 . S
C1525 C1522 1.348 . S
C1525 C1523 1.356 . S
H1526 C1520 0.930 . S
H1527 C1524 0.930 . S
C1528 C1530 1.348 . S
C1528 C1531 1.356 . S
C1528 O1558 1.325 . S
N1529 C1532 1.314 . S
N1529 C1533 1.279 . S
C1530 C1528 1.348 . S
C1530 C1532 1.353 . S
C1530 H1572 0.929 . S
C1531 C1528 1.356 . S
C1531 C1533 1.358 . S
C1531 H1573 0.930 . S
C1532 N1529 1.314 . S
C1532 C1530 1.353 . S
C1532 H1574 0.930 . S
C1533 N1529 1.279 . S
C1533 C1531 1.358 . S
C1533 H1575 0.930 . S
C1534 C1535 1.348 . S
C1534 C1536 1.356 . S
C1534 O1559 1.325 . S
C1535 C1534 1.348 . S
C1535 C1537 1.353 . S
C1535 H1576 0.929 . S
C1536 C1534 1.356 . S
C1536 C1538 1.358 . S
C1536 H1577 0.930 . S
C1537 C1535 1.353 . S
C1537 N1539 1.314 . S
C1537 H1578 0.930 . S
C1538 C1536 1.358 . S
C1538 N1539 1.279 . S
C1538 H1579 0.930 . S
N1539 C1537 1.314 . S
N1539 C1538 1.279 . S
C1540 C1542 1.353 . S
C1540 N1543 1.314 . S
C1540 H1546 0.930 . S
C1541 N1543 1.279 . S
C1541 C1544 1.358 . S
C1541 H1547 0.930 . S
C1542 C1540 1.353 . S
C1542 C1545 1.348 . S
C1542 H1580 0.929 . S
N1543 Li1498 1.990 . S
N1543 C1540 1.314 . S
N1543 C1541 1.279 . S
C1544 C1541 1.358 . S
C1544 C1545 1.356 . S
C1544 H1581 0.930 . S
C1545 C1542 1.348 . S
C1545 C1544 1.356 . S
H1546 C1540 0.930 . S
H1547 C1541 0.930 . S
C1548 N1549 1.314 . S
C1548 C1550 1.353 . S
C1548 H1554 0.930 . S
N1549 Li1499 1.990 . S
N1549 C1548 1.314 . S
N1549 C1552 1.279 . S
C1550 C1548 1.353 . S
C1550 C1553 1.348 . S
C1550 H1582 0.929 . S
C1551 C1552 1.358 . S
C1551 C1553 1.356 . S
C1551 H1583 0.930 . S
C1552 N1549 1.279 . S
C1552 C1551 1.358 . S
C1552 H1555 0.930 . S
C1553 C1550 1.348 . S
C1553 C1551 1.356 . S
H1554 C1548 0.930 . S
H1555 C1552 0.930 . S
O1556 Li1496 1.956 . S
O1556 Li1497 1.970 . S
O1556 Li1498 1.961 . S
O1556 C1500 1.325 . S
O1557 Li1496 1.970 . S
O1557 Li1497 1.956 . S
O1557 Li1499 1.961 . S
O1557 C1506 1.325 . S
O1558 Li1496 1.961 . S
O1558 Li1498 1.956 . S
O1558 Li1499 1.970 . S
O1558 C1528 1.325 . S
O1559 Li1497 1.961 . S
O1559 Li1498 1.970 . S
O1559 Li1499 1.956 . S
O1559 C1534 1.325 . S
H1560 C1502 0.929 . S
H1561 C1503 0.930 . S
H1562 C1504 0.930 . S
H1563 C1505 0.930 . S
H1564 C1507 0.930 . S
H1565 C1509 0.929 . S
H1566 C1510 0.930 . S
H1567 C1511 0.930 . S
H1568 C1514 0.930 . S
H1569 C1517 0.929 . S
H1570 C1522 0.929 . S
H1571 C1523 0.930 . S
H1572 C1530 0.929 . S
H1573 C1531 0.930 . S
H1574 C1532 0.930 . S
H1575 C1533 0.930 . S
H1576 C1535 0.929 . S
H1577 C1536 0.930 . S
H1578 C1537 0.930 . S
H1579 C1538 0.930 . S
H1580 C1542 0.929 . S
H1581 C1544 0.930 . S
H1582 C1550 0.929 . S
H1583 C1551 0.930 . S
H1584 C1590 0.930 . S
H1585 C1594 0.930 . S
H1586 C1599 0.929 . S
H1587 C1597 0.929 . S
H1588 C1592 0.929 . S
H1589 C1598 0.929 . S
C1590 H1584 0.930 . S
C1590 C1591 1.367 . S
C1590 C1598 1.378 . S
C1591 C1590 1.367 . S
C1591 C1599 1.433 . S
C1592 H1588 0.929 . S
C1592 C1594 1.378 . S
C1592 C1596 1.350 . S
C1593 C1596 1.463 . S
C1593 C1598 1.350 . S
C1593 N1601 1.427 . S
C1594 H1585 0.930 . S
C1594 C1592 1.378 . S
C1594 C1595 1.367 . S
C1595 C1594 1.367 . S
C1595 C1597 1.433 . S
C1596 C1592 1.350 . S
C1596 C1593 1.463 . S
C1596 N1600 1.427 . S
C1597 H1587 0.929 . S
C1597 C1595 1.433 . S
C1597 N1600 1.384 . S
C1598 H1589 0.929 . S
C1598 C1590 1.378 . S
C1598 C1593 1.350 . S
C1599 H1586 0.929 . S
C1599 C1591 1.433 . S
C1599 N1601 1.384 . S
N1600 C1596 1.427 . S
N1600 C1597 1.384 . S
N1601 C1593 1.427 . S
N1601 C1599 1.384 . S
H1602 C1608 0.930 . S
H1603 C1612 0.930 . S
H1604 C1617 0.929 . S
H1605 C1615 0.929 . S
H1606 C1610 0.929 . S
H1607 C1616 0.929 . S
C1608 H1602 0.930 . S
C1608 C1609 1.367 . S
C1608 C1616 1.378 . S
C1609 C1608 1.367 . S
C1609 C1617 1.433 . S
C1610 H1606 0.929 . S
C1610 C1612 1.378 . S
C1610 C1614 1.350 . S
C1611 C1614 1.463 . S
C1611 C1616 1.350 . S
C1611 N1619 1.427 . S
C1612 H1603 0.930 . S
C1612 C1610 1.378 . S
C1612 C1613 1.367 . S
C1613 C1612 1.367 . S
C1613 C1615 1.433 . S
C1614 C1610 1.350 . S
C1614 C1611 1.463 . S
C1614 N1618 1.427 . S
C1615 H1605 0.929 . S
C1615 C1613 1.433 . S
C1615 N1618 1.384 . S
C1616 H1607 0.929 . S
C1616 C1608 1.378 . S
C1616 C1611 1.350 . S
C1617 H1604 0.929 . S
C1617 C1609 1.433 . S
C1617 N1619 1.384 . S
N1618 C1614 1.427 . S
N1618 C1615 1.384 . S
N1619 C1611 1.427 . S
N1619 C1617 1.384 . S
H1620 C1626 0.930 . S
H1621 C1630 0.930 . S
H1622 C1635 0.929 . S
H1623 C1633 0.929 . S
H1624 C1628 0.929 . S
H1625 C1634 0.929 . S
C1626 H1620 0.930 . S
C1626 C1627 1.367 . S
C1626 C1634 1.378 . S
C1627 C1626 1.367 . S
C1627 C1635 1.433 . S
C1628 H1624 0.929 . S
C1628 C1630 1.378 . S
C1628 C1632 1.350 . S
C1629 C1632 1.463 . S
C1629 C1634 1.350 . S
C1629 N1637 1.427 . S
C1630 H1621 0.930 . S
C1630 C1628 1.378 . S
C1630 C1631 1.367 . S
C1631 C1630 1.367 . S
C1631 C1633 1.433 . S
C1632 C1628 1.350 . S
C1632 C1629 1.463 . S
C1632 N1636 1.427 . S
C1633 H1623 0.929 . S
C1633 C1631 1.433 . S
C1633 N1636 1.384 . S
C1634 H1625 0.929 . S
C1634 C1626 1.378 . S
C1634 C1629 1.350 . S
C1635 H1622 0.929 . S
C1635 C1627 1.433 . S
C1635 N1637 1.384 . S
N1636 C1632 1.427 . S
N1636 C1633 1.384 . S
N1637 C1629 1.427 . S
N1637 C1635 1.384 . S
H1638 C1644 0.930 . S
H1639 C1648 0.930 . S
H1640 C1653 0.929 . S
H1641 C1651 0.929 . S
H1642 C1646 0.929 . S
H1643 C1652 0.929 . S
C1644 H1638 0.930 . S
C1644 C1645 1.367 . S
C1644 C1652 1.378 . S
C1645 C1644 1.367 . S
C1645 C1653 1.433 . S
C1646 H1642 0.929 . S
C1646 C1648 1.378 . S
C1646 C1650 1.350 . S
C1647 C1650 1.463 . S
C1647 C1652 1.350 . S
C1647 N1655 1.427 . S
C1648 H1639 0.930 . S
C1648 C1646 1.378 . S
C1648 C1649 1.367 . S
C1649 C1648 1.367 . S
C1649 C1651 1.433 . S
C1650 C1646 1.350 . S
C1650 C1647 1.463 . S
C1650 N1654 1.427 . S
C1651 H1641 0.929 . S
C1651 C1649 1.433 . S
C1651 N1654 1.384 . S
C1652 H1643 0.929 . S
C1652 C1644 1.378 . S
C1652 C1647 1.350 . S
C1653 H1640 0.929 . S
C1653 C1645 1.433 . S
C1653 N1655 1.384 . S
N1654 C1650 1.427 . S
N1654 C1651 1.384 . S
N1655 C1647 1.427 . S
N1655 C1653 1.384 . S
H1656 C1662 0.930 . S
H1657 C1666 0.930 . S
H1658 C1671 0.929 . S
H1659 C1669 0.929 . S
H1660 C1664 0.929 . S
H1661 C1670 0.929 . S
C1662 H1656 0.930 . S
C1662 C1663 1.367 . S
C1662 C1670 1.378 . S
C1663 C1662 1.367 . S
C1663 C1671 1.433 . S
C1664 H1660 0.929 . S
C1664 C1666 1.378 . S
C1664 C1668 1.350 . S
C1665 C1668 1.463 . S
C1665 C1670 1.350 . S
C1665 N1673 1.427 . S
C1666 H1657 0.930 . S
C1666 C1664 1.378 . S
C1666 C1667 1.367 . S
C1667 C1666 1.367 . S
C1667 C1669 1.433 . S
C1668 C1664 1.350 . S
C1668 C1665 1.463 . S
C1668 N1672 1.427 . S
C1669 H1659 0.929 . S
C1669 C1667 1.433 . S
C1669 N1672 1.384 . S
C1670 H1661 0.929 . S
C1670 C1662 1.378 . S
C1670 C1665 1.350 . S
C1671 H1658 0.929 . S
C1671 C1663 1.433 . S
C1671 N1673 1.384 . S
N1672 C1668 1.427 . S
N1672 C1669 1.384 . S
N1673 C1665 1.427 . S
N1673 C1671 1.384 . S
H1674 C1680 0.930 . S
H1675 C1684 0.930 . S
H1676 C1689 0.929 . S
H1677 C1687 0.929 . S
H1678 C1682 0.929 . S
H1679 C1688 0.929 . S
C1680 H1674 0.930 . S
C1680 C1681 1.367 . S
C1680 C1688 1.378 . S
C1681 C1680 1.367 . S
C1681 C1689 1.433 . S
C1682 H1678 0.929 . S
C1682 C1684 1.378 . S
C1682 C1686 1.350 . S
C1683 C1686 1.463 . S
C1683 C1688 1.350 . S
C1683 N1691 1.427 . S
C1684 H1675 0.930 . S
C1684 C1682 1.378 . S
C1684 C1685 1.367 . S
C1685 C1684 1.367 . S
C1685 C1687 1.433 . S
C1686 C1682 1.350 . S
C1686 C1683 1.463 . S
C1686 N1690 1.427 . S
C1687 H1677 0.929 . S
C1687 C1685 1.433 . S
C1687 N1690 1.384 . S
C1688 H1679 0.929 . S
C1688 C1680 1.378 . S
C1688 C1683 1.350 . S
C1689 H1676 0.929 . S
C1689 C1681 1.433 . S
C1689 N1691 1.384 . S
N1690 C1686 1.427 . S
N1690 C1687 1.384 . S
N1691 C1683 1.427 . S
N1691 C1689 1.384 . S
H1692 C1698 0.930 . S
H1693 C1702 0.930 . S
H1694 C1707 0.929 . S
H1695 C1705 0.929 . S
H1696 C1700 0.929 1_655 S
H1697 C1706 0.929 1_455 S
C1698 H1692 0.930 . S
C1698 C1699 1.367 . S
C1698 C1706 1.378 . S
C1699 C1698 1.367 . S
C1699 C1707 1.433 . S
C1700 H1696 0.929 1_455 S
C1700 C1702 1.378 . S
C1700 C1704 1.350 . S
C1701 C1704 1.463 1_654 S
C1701 C1706 1.350 . S
C1701 N1709 1.427 . S
C1702 H1693 0.930 . S
C1702 C1700 1.378 . S
C1702 C1703 1.367 . S
C1703 C1702 1.367 . S
C1703 C1705 1.433 . S
C1704 C1700 1.350 . S
C1704 C1701 1.463 1_456 S
C1704 N1708 1.427 . S
C1705 H1695 0.929 . S
C1705 C1703 1.433 . S
C1705 N1708 1.384 . S
C1706 H1697 0.929 1_655 S
C1706 C1698 1.378 . S
C1706 C1701 1.350 . S
C1707 H1694 0.929 . S
C1707 C1699 1.433 . S
C1707 N1709 1.384 . S
N1708 C1704 1.427 . S
N1708 C1705 1.384 . S
N1709 C1701 1.427 . S
N1709 C1707 1.384 . S
H1710 C1716 0.930 . S
H1711 C1720 0.930 . S
H1712 C1725 0.929 . S
H1713 C1723 0.929 . S
H1714 C1718 0.929 . S
H1715 C1724 0.929 . S
C1716 H1710 0.930 . S
C1716 C1717 1.367 . S
C1716 C1724 1.378 . S
C1717 C1716 1.367 . S
C1717 C1725 1.433 . S
C1718 H1714 0.929 . S
C1718 C1720 1.378 . S
C1718 C1722 1.350 . S
C1719 C1722 1.463 1_554 S
C1719 C1724 1.350 . S
C1719 N1727 1.427 . S
C1720 H1711 0.930 . S
C1720 C1718 1.378 . S
C1720 C1721 1.367 . S
C1721 C1720 1.367 . S
C1721 C1723 1.433 . S
C1722 C1718 1.350 . S
C1722 C1719 1.463 1_556 S
C1722 N1726 1.427 . S
C1723 H1713 0.929 . S
C1723 C1721 1.433 . S
C1723 N1726 1.384 . S
C1724 H1715 0.929 . S
C1724 C1716 1.378 . S
C1724 C1719 1.350 . S
C1725 H1712 0.929 . S
C1725 C1717 1.433 . S
C1725 N1727 1.384 . S
N1726 C1722 1.427 . S
N1726 C1723 1.384 . S
N1727 C1719 1.427 . S
N1727 C1725 1.384 . S
H1728 C1734 0.930 . S
H1729 C1738 0.930 . S
H1730 C1743 0.929 . S
H1731 C1741 0.929 . S
H1732 C1736 0.929 1_545 S
H1733 C1742 0.929 1_565 S
C1734 H1728 0.930 . S
C1734 C1735 1.367 . S
C1734 C1742 1.378 . S
C1735 C1734 1.367 . S
C1735 C1743 1.433 . S
C1736 H1732 0.929 1_565 S
C1736 C1738 1.378 . S
C1736 C1740 1.350 . S
C1737 C1740 1.463 1_544 S
C1737 C1742 1.350 . S
C1737 N1745 1.427 . S
C1738 H1729 0.930 . S
C1738 C1736 1.378 . S
C1738 C1739 1.367 . S
C1739 C1738 1.367 . S
C1739 C1741 1.433 . S
C1740 C1736 1.350 . S
C1740 C1737 1.463 1_566 S
C1740 N1744 1.427 . S
C1741 H1731 0.929 . S
C1741 C1739 1.433 . S
C1741 N1744 1.384 . S
C1742 H1733 0.929 1_545 S
C1742 C1734 1.378 . S
C1742 C1737 1.350 . S
C1743 H1730 0.929 . S
C1743 C1735 1.433 . S
C1743 N1745 1.384 . S
N1744 C1740 1.427 . S
N1744 C1741 1.384 . S
N1745 C1737 1.427 . S
N1745 C1743 1.384 . S
H1746 C1752 0.930 . S
H1747 C1756 0.930 . S
H1748 C1761 0.929 . S
H1749 C1759 0.929 . S
H1750 C1754 0.929 . S
H1751 C1760 0.929 . S
C1752 H1746 0.930 . S
C1752 C1753 1.367 . S
C1752 C1760 1.378 . S
C1753 C1752 1.367 . S
C1753 C1761 1.433 . S
C1754 H1750 0.929 . S
C1754 C1756 1.378 . S
C1754 C1758 1.350 . S
C1755 C1758 1.463 . S
C1755 C1760 1.350 . S
C1755 N1763 1.427 . S
C1756 H1747 0.930 . S
C1756 C1754 1.378 . S
C1756 C1757 1.367 . S
C1757 C1756 1.367 . S
C1757 C1759 1.433 . S
C1758 C1754 1.350 . S
C1758 C1755 1.463 . S
C1758 N1762 1.427 . S
C1759 H1749 0.929 . S
C1759 C1757 1.433 . S
C1759 N1762 1.384 . S
C1760 H1751 0.929 . S
C1760 C1752 1.378 . S
C1760 C1755 1.350 . S
C1761 H1748 0.929 . S
C1761 C1753 1.433 . S
C1761 N1763 1.384 . S
N1762 C1758 1.427 . S
N1762 C1759 1.384 . S
N1763 C1755 1.427 . S
N1763 C1761 1.384 . S
H1764 C1770 0.930 . S
H1765 C1774 0.930 . S
H1766 C1779 0.929 . S
H1767 C1777 0.929 . S
H1768 C1772 0.929 . S
H1769 C1778 0.929 . S
C1770 H1764 0.930 . S
C1770 C1771 1.367 . S
C1770 C1778 1.378 . S
C1771 C1770 1.367 . S
C1771 C1779 1.433 . S
C1772 H1768 0.929 . S
C1772 C1774 1.378 . S
C1772 C1776 1.350 . S
C1773 C1776 1.463 . S
C1773 C1778 1.350 . S
C1773 N1781 1.427 . S
C1774 H1765 0.930 . S
C1774 C1772 1.378 . S
C1774 C1775 1.367 . S
C1775 C1774 1.367 . S
C1775 C1777 1.433 . S
C1776 C1772 1.350 . S
C1776 C1773 1.463 . S
C1776 N1780 1.427 . S
C1777 H1767 0.929 . S
C1777 C1775 1.433 . S
C1777 N1780 1.384 . S
C1778 H1769 0.929 . S
C1778 C1770 1.378 . S
C1778 C1773 1.350 . S
C1779 H1766 0.929 . S
C1779 C1771 1.433 . S
C1779 N1781 1.384 . S
N1780 C1776 1.427 . S
N1780 C1777 1.384 . S
N1781 C1773 1.427 . S
N1781 C1779 1.384 . S
H1782 C1788 0.930 . S
H1783 C1792 0.930 . S
H1784 C1797 0.929 . S
H1785 C1795 0.929 . S
H1786 C1790 0.929 . S
H1787 C1796 0.929 . S
C1788 H1782 0.930 . S
C1788 C1789 1.367 . S
C1788 C1796 1.378 . S
C1789 C1788 1.367 . S
C1789 C1797 1.433 . S
C1790 H1786 0.929 . S
C1790 C1792 1.378 . S
C1790 C1794 1.350 . S
C1791 C1794 1.463 . S
C1791 C1796 1.350 . S
C1791 N1799 1.427 . S
C1792 H1783 0.930 . S
C1792 C1790 1.378 . S
C1792 C1793 1.367 . S
C1793 C1792 1.367 . S
C1793 C1795 1.433 . S
C1794 C1790 1.350 . S
C1794 C1791 1.463 . S
C1794 N1798 1.427 . S
C1795 H1785 0.929 . S
C1795 C1793 1.433 . S
C1795 N1798 1.384 . S
C1796 H1787 0.929 . S
C1796 C1788 1.378 . S
C1796 C1791 1.350 . S
C1797 H1784 0.929 . S
C1797 C1789 1.433 . S
C1797 N1799 1.384 . S
N1798 C1794 1.427 . S
N1798 C1795 1.384 . S
N1799 C1791 1.427 . S
N1799 C1797 1.384 . S
H1800 C1806 0.930 . S
H1801 C1810 0.930 . S
H1802 C1815 0.929 . S
H1803 C1813 0.929 . S
H1804 C1808 0.929 . S
H1805 C1814 0.929 . S
C1806 H1800 0.930 . S
C1806 C1807 1.367 . S
C1806 C1814 1.378 . S
C1807 C1806 1.367 . S
C1807 C1815 1.433 . S
C1808 H1804 0.929 . S
C1808 C1810 1.378 . S
C1808 C1812 1.350 . S
C1809 C1812 1.463 . S
C1809 C1814 1.350 . S
C1809 N1817 1.427 . S
C1810 H1801 0.930 . S
C1810 C1808 1.378 . S
C1810 C1811 1.367 . S
C1811 C1810 1.367 . S
C1811 C1813 1.433 . S
C1812 C1808 1.350 . S
C1812 C1809 1.463 . S
C1812 N1816 1.427 . S
C1813 H1803 0.929 . S
C1813 C1811 1.433 . S
C1813 N1816 1.384 . S
C1814 H1805 0.929 . S
C1814 C1806 1.378 . S
C1814 C1809 1.350 . S
C1815 H1802 0.929 . S
C1815 C1807 1.433 . S
C1815 N1817 1.384 . S
N1816 C1812 1.427 . S
N1816 C1813 1.384 . S
N1817 C1809 1.427 . S
N1817 C1815 1.384 . S
H1818 C1824 0.930 . S
H1819 C1828 0.930 . S
H1820 C1833 0.929 . S
H1821 C1831 0.929 . S
H1822 C1826 0.929 . S
H1823 C1832 0.929 . S
C1824 H1818 0.930 . S
C1824 C1825 1.367 . S
C1824 C1832 1.378 . S
C1825 C1824 1.367 . S
C1825 C1833 1.433 . S
C1826 H1822 0.929 . S
C1826 C1828 1.378 . S
C1826 C1830 1.350 . S
C1827 C1830 1.463 . S
C1827 C1832 1.350 . S
C1827 N1835 1.427 . S
C1828 H1819 0.930 . S
C1828 C1826 1.378 . S
C1828 C1829 1.367 . S
C1829 C1828 1.367 . S
C1829 C1831 1.433 . S
C1830 C1826 1.350 . S
C1830 C1827 1.463 . S
C1830 N1834 1.427 . S
C1831 H1821 0.929 . S
C1831 C1829 1.433 . S
C1831 N1834 1.384 . S
C1832 H1823 0.929 . S
C1832 C1824 1.378 . S
C1832 C1827 1.350 . S
C1833 H1820 0.929 . S
C1833 C1825 1.433 . S
C1833 N1835 1.384 . S
N1834 C1830 1.427 . S
N1834 C1831 1.384 . S
N1835 C1827 1.427 . S
N1835 C1833 1.384 . S
H1836 C1842 0.930 . S
H1837 C1846 0.930 . S
H1838 C1851 0.929 . S
H1839 C1849 0.929 . S
H1840 C1844 0.929 . S
H1841 C1850 0.929 . S
C1842 H1836 0.930 . S
C1842 C1843 1.367 . S
C1842 C1850 1.378 . S
C1843 C1842 1.367 . S
C1843 C1851 1.433 . S
C1844 H1840 0.929 . S
C1844 C1846 1.378 . S
C1844 C1848 1.350 . S
C1845 C1848 1.463 . S
C1845 C1850 1.350 . S
C1845 N1853 1.427 . S
C1846 H1837 0.930 . S
C1846 C1844 1.378 . S
C1846 C1847 1.367 . S
C1847 C1846 1.367 . S
C1847 C1849 1.433 . S
C1848 C1844 1.350 . S
C1848 C1845 1.463 . S
C1848 N1852 1.427 . S
C1849 H1839 0.929 . S
C1849 C1847 1.433 . S
C1849 N1852 1.384 . S
C1850 H1841 0.929 . S
C1850 C1842 1.378 . S
C1850 C1845 1.350 . S
C1851 H1838 0.929 . S
C1851 C1843 1.433 . S
C1851 N1853 1.384 . S
N1852 C1848 1.427 . S
N1852 C1849 1.384 . S
N1853 C1845 1.427 . S
N1853 C1851 1.384 . S
H1854 C1860 0.930 . S
H1855 C1864 0.930 . S
H1856 C1869 0.929 . S
H1857 C1867 0.929 . S
H1858 C1862 0.929 . S
H1859 C1868 0.929 . S
C1860 H1854 0.930 . S
C1860 C1861 1.367 . S
C1860 C1868 1.378 . S
C1861 C1860 1.367 . S
C1861 C1869 1.433 . S
C1862 H1858 0.929 . S
C1862 C1864 1.378 . S
C1862 C1866 1.350 . S
C1863 C1866 1.463 1_655 S
C1863 C1868 1.350 . S
C1863 N1871 1.427 . S
C1864 H1855 0.930 . S
C1864 C1862 1.378 . S
C1864 C1865 1.367 . S
C1865 C1864 1.367 . S
C1865 C1867 1.433 . S
C1866 C1862 1.350 . S
C1866 C1863 1.463 1_455 S
C1866 N1870 1.427 . S
C1867 H1857 0.929 . S
C1867 C1865 1.433 . S
C1867 N1870 1.384 . S
C1868 H1859 0.929 . S
C1868 C1860 1.378 . S
C1868 C1863 1.350 . S
C1869 H1856 0.929 . S
C1869 C1861 1.433 . S
C1869 N1871 1.384 . S
N1870 C1866 1.427 . S
N1870 C1867 1.384 . S
N1871 C1863 1.427 . S
N1871 C1869 1.384 . S
H1872 C1878 0.930 . S
H1873 C1882 0.930 . S
H1874 C1887 0.929 . S
H1875 C1885 0.929 . S
H1876 C1880 0.929 . S
H1877 C1886 0.929 . S
C1878 H1872 0.930 . S
C1878 C1879 1.367 . S
C1878 C1886 1.378 . S
C1879 C1878 1.367 . S
C1879 C1887 1.433 . S
C1880 H1876 0.929 . S
C1880 C1882 1.378 . S
C1880 C1884 1.350 . S
C1881 C1884 1.463 . S
C1881 C1886 1.350 . S
C1881 N1889 1.427 . S
C1882 H1873 0.930 . S
C1882 C1880 1.378 . S
C1882 C1883 1.367 . S
C1883 C1882 1.367 . S
C1883 C1885 1.433 . S
C1884 C1880 1.350 . S
C1884 C1881 1.463 . S
C1884 N1888 1.427 . S
C1885 H1875 0.929 . S
C1885 C1883 1.433 . S
C1885 N1888 1.384 . S
C1886 H1877 0.929 . S
C1886 C1878 1.378 . S
C1886 C1881 1.350 . S
C1887 H1874 0.929 . S
C1887 C1879 1.433 . S
C1887 N1889 1.384 . S
N1888 C1884 1.427 . S
N1888 C1885 1.384 . S
N1889 C1881 1.427 . S
N1889 C1887 1.384 . S
H1890 C1896 0.930 . S
H1891 C1900 0.930 . S
H1892 C1905 0.929 . S
H1893 C1903 0.929 . S
H1894 C1898 0.991 . S
H1895 C1904 0.991 . S
C1896 H1890 0.930 . S
C1896 C1897 1.367 . S
C1896 C1904 1.338 1_565 S
C1897 C1896 1.367 . S
C1897 C1905 1.433 . S
C1898 H1894 0.991 . S
C1898 C1900 1.338 1_565 S
C1898 C1902 1.332 1_565 S
C1899 C1902 1.463 1_565 S
C1899 C1904 1.332 1_565 S
C1899 N1907 1.427 . S
C1900 H1891 0.930 . S
C1900 C1898 1.338 1_545 S
C1900 C1901 1.367 . S
C1901 C1900 1.367 . S
C1901 C1903 1.433 . S
C1902 C1898 1.332 1_545 S
C1902 C1899 1.463 1_545 S
C1902 N1906 1.427 . S
C1903 H1893 0.929 . S
C1903 C1901 1.433 . S
C1903 N1906 1.384 . S
C1904 H1895 0.991 . S
C1904 C1896 1.338 1_545 S
C1904 C1899 1.332 1_545 S
C1905 H1892 0.929 . S
C1905 C1897 1.433 . S
C1905 N1907 1.384 . S
N1906 C1902 1.427 . S
N1906 C1903 1.384 . S
N1907 C1899 1.427 . S
N1907 C1905 1.384 . S
H1908 C1914 0.930 . S
H1909 C1918 0.930 . S
H1910 C1923 0.929 . S
H1911 C1921 0.929 . S
H1912 C1916 0.929 . S
H1913 C1922 0.929 . S
C1914 H1908 0.930 . S
C1914 C1915 1.367 1_556 S
C1914 C1922 1.378 . S
C1915 C1914 1.367 1_554 S
C1915 C1923 1.433 . S
C1916 H1912 0.929 . S
C1916 C1918 1.378 . S
C1916 C1920 1.350 1_554 S
C1917 C1920 1.463 1_554 S
C1917 C1922 1.350 1_554 S
C1917 N1925 1.427 . S
C1918 H1909 0.930 . S
C1918 C1916 1.378 . S
C1918 C1919 1.367 1_554 S
C1919 C1918 1.367 1_556 S
C1919 C1921 1.433 . S
C1920 C1916 1.350 1_556 S
C1920 C1917 1.463 1_556 S
C1920 N1924 1.427 . S
C1921 H1911 0.929 . S
C1921 C1919 1.433 . S
C1921 N1924 1.384 . S
C1922 H1913 0.929 . S
C1922 C1914 1.378 . S
C1922 C1917 1.350 1_556 S
C1923 H1910 0.929 . S
C1923 C1915 1.433 . S
C1923 N1925 1.384 . S
N1924 C1920 1.427 . S
N1924 C1921 1.384 . S
N1925 C1917 1.427 . S
N1925 C1923 1.384 . S
H1926 C1932 0.930 1_554 S
H1927 C1936 0.930 1_556 S
H1928 C1941 0.929 . S
H1929 C1939 0.929 . S
H1930 C1934 0.929 . S
H1931 C1940 0.929 . S
C1932 H1926 0.930 1_556 S
C1932 C1933 1.367 . S
C1932 C1940 1.378 1_556 S
C1933 C1932 1.367 . S
C1933 C1941 1.433 . S
C1934 H1930 0.929 . S
C1934 C1936 1.378 1_556 S
C1934 C1938 1.350 1_556 S
C1935 C1938 1.463 1_546 S
C1935 C1940 1.350 1_556 S
C1935 N1943 1.427 . S
C1936 H1927 0.930 1_554 S
C1936 C1934 1.378 1_554 S
C1936 C1937 1.367 . S
C1937 C1936 1.367 . S
C1937 C1939 1.433 . S
C1938 C1934 1.350 1_554 S
C1938 C1935 1.463 1_564 S
C1938 N1942 1.427 . S
C1939 H1929 0.929 . S
C1939 C1937 1.433 . S
C1939 N1942 1.384 . S
C1940 H1931 0.929 . S
C1940 C1932 1.378 1_554 S
C1940 C1935 1.350 1_554 S
C1941 H1928 0.929 . S
C1941 C1933 1.433 . S
C1941 N1943 1.384 . S
N1942 C1938 1.427 . S
N1942 C1939 1.384 . S
N1943 C1935 1.427 . S
N1943 C1941 1.384 . S
H1944 C1950 0.930 . S
H1945 C1954 0.930 . S
H1946 C1959 0.929 . S
H1947 C1957 0.929 . S
H1948 C1952 0.929 . S
H1949 C1958 0.929 . S
C1950 H1944 0.930 . S
C1950 C1951 1.367 . S
C1950 C1958 1.378 . S
C1951 C1950 1.367 . S
C1951 C1959 1.433 . S
C1952 H1948 0.929 . S
C1952 C1954 1.378 . S
C1952 C1956 1.350 . S
C1953 C1956 1.463 1_656 S
C1953 C1958 1.350 . S
C1953 N1961 1.422 1_556 S
C1954 H1945 0.930 . S
C1954 C1952 1.378 . S
C1954 C1955 1.367 . S
C1955 C1954 1.367 . S
C1955 C1957 1.433 . S
C1956 C1952 1.350 . S
C1956 C1953 1.463 1_454 S
C1956 N1960 1.422 1_554 S
C1957 H1947 0.929 . S
C1957 C1955 1.433 . S
C1957 N1960 1.375 1_554 S
C1958 H1949 0.929 . S
C1958 C1950 1.378 . S
C1958 C1953 1.350 . S
C1959 H1946 0.929 . S
C1959 C1951 1.433 . S
C1959 N1961 1.375 1_556 S
N1960 C1956 1.422 1_556 S
N1960 C1957 1.375 1_556 S
N1961 C1953 1.422 1_554 S
N1961 C1959 1.375 1_554 S
H1962 C1968 0.930 1_554 S
H1963 C1972 0.930 1_556 S
H1964 C1977 0.929 . S
H1965 C1975 0.929 . S
H1966 C1970 0.929 . S
H1967 C1976 0.929 . S
C1968 H1962 0.930 1_556 S
C1968 C1969 1.367 . S
C1968 C1976 1.378 1_556 S
C1969 C1968 1.367 . S
C1969 C1977 1.433 . S
C1970 H1966 0.929 . S
C1970 C1972 1.378 1_556 S
C1970 C1974 1.350 1_556 S
C1971 C1974 1.463 1_556 S
C1971 C1976 1.350 1_556 S
C1971 N1979 1.427 . S
C1972 H1963 0.930 1_554 S
C1972 C1970 1.378 1_554 S
C1972 C1973 1.367 . S
C1973 C1972 1.367 . S
C1973 C1975 1.433 . S
C1974 C1970 1.350 1_554 S
C1974 C1971 1.463 1_554 S
C1974 N1978 1.427 . S
C1975 H1965 0.929 . S
C1975 C1973 1.433 . S
C1975 N1978 1.384 . S
C1976 H1967 0.929 . S
C1976 C1968 1.378 1_554 S
C1976 C1971 1.350 1_554 S
C1977 H1964 0.929 . S
C1977 C1969 1.433 . S
C1977 N1979 1.384 . S
N1978 C1974 1.427 . S
N1978 C1975 1.384 . S
N1979 C1971 1.427 . S
N1979 C1977 1.384 . S
H1980 C1986 0.930 . S
H1981 C1990 0.930 . S
H1982 C1995 0.929 . S
H1983 C1993 0.929 . S
H1984 C1988 0.929 . S
H1985 C1994 0.929 . S
C1986 H1980 0.930 . S
C1986 C1987 1.367 . S
C1986 C1994 1.378 . S
C1987 C1986 1.367 . S
C1987 C1995 1.433 . S
C1988 H1984 0.929 . S
C1988 C1990 1.378 . S
C1988 C1992 1.350 . S
C1989 C1992 1.463 1_564 S
C1989 C1994 1.350 . S
C1989 N1997 1.427 . S
C1990 H1981 0.930 . S
C1990 C1988 1.378 . S
C1990 C1991 1.367 . S
C1991 C1990 1.367 . S
C1991 C1993 1.433 . S
C1992 C1988 1.350 . S
C1992 C1989 1.463 1_546 S
C1992 N1996 1.427 . S
C1993 H1983 0.929 . S
C1993 C1991 1.433 . S
C1993 N1996 1.384 . S
C1994 H1985 0.929 . S
C1994 C1986 1.378 . S
C1994 C1989 1.350 . S
C1995 H1982 0.929 . S
C1995 C1987 1.433 . S
C1995 N1997 1.384 . S
N1996 C1992 1.427 . S
N1996 C1993 1.384 . S
N1997 C1989 1.427 . S
N1997 C1995 1.384 . S
H1998 C2004 0.930 . S
H1999 C2008 0.930 . S
H2000 C2013 0.929 . S
H2001 C2011 0.929 . S
H2002 C2006 0.929 . S
H2003 C2012 0.929 . S
C2004 H1998 0.930 . S
C2004 C2005 1.367 . S
C2004 C2012 1.378 . S
C2005 C2004 1.367 . S
C2005 C2013 1.433 1_556 S
C2006 H2002 0.929 . S
C2006 C2008 1.378 . S
C2006 C2010 1.350 . S
C2007 C2010 1.463 1_656 S
C2007 C2012 1.350 . S
C2007 N2015 1.427 1_556 S
C2008 H1999 0.930 . S
C2008 C2006 1.378 . S
C2008 C2009 1.367 . S
C2009 C2008 1.367 . S
C2009 C2011 1.433 1_554 S
C2010 C2006 1.350 . S
C2010 C2007 1.463 1_454 S
C2010 N2014 1.427 1_554 S
C2011 H2001 0.929 . S
C2011 C2009 1.433 1_556 S
C2011 N2014 1.384 . S
C2012 H2003 0.929 . S
C2012 C2004 1.378 . S
C2012 C2007 1.350 . S
C2013 H2000 0.929 . S
C2013 C2005 1.433 1_554 S
C2013 N2015 1.384 . S
N2014 C2010 1.427 1_556 S
N2014 C2011 1.384 . S
N2015 C2007 1.427 1_554 S
N2015 C2013 1.384 . S
H2016 C2022 0.930 . S
H2017 C2026 0.930 . S
H2018 C2031 0.929 . S
H2019 C2029 0.929 . S
H2020 C2024 0.929 . S
H2021 C2030 0.929 . S
C2022 H2016 0.930 . S
C2022 C2023 1.367 . S
C2022 C2030 1.378 . S
C2023 C2022 1.367 . S
C2023 C2031 1.433 . S
C2024 H2020 0.929 . S
C2024 C2026 1.378 . S
C2024 C2028 1.350 . S
C2025 C2028 1.463 . S
C2025 C2030 1.350 . S
C2025 N2033 1.427 . S
C2026 H2017 0.930 . S
C2026 C2024 1.378 . S
C2026 C2027 1.367 . S
C2027 C2026 1.367 . S
C2027 C2029 1.433 . S
C2028 C2024 1.350 . S
C2028 C2025 1.463 . S
C2028 N2032 1.427 . S
C2029 H2019 0.929 . S
C2029 C2027 1.433 . S
C2029 N2032 1.384 . S
C2030 H2021 0.929 . S
C2030 C2022 1.378 . S
C2030 C2025 1.350 . S
C2031 H2018 0.929 . S
C2031 C2023 1.433 . S
C2031 N2033 1.384 . S
N2032 C2028 1.427 . S
N2032 C2029 1.384 . S
N2033 C2025 1.427 . S
N2033 C2031 1.384 . S
H2034 C2040 0.930 . S
H2035 C2044 0.930 . S
H2036 C2049 0.929 . S
H2037 C2047 0.929 . S
H2038 C2042 0.929 . S
H2039 C2048 0.929 . S
C2040 H2034 0.930 . S
C2040 C2041 1.367 . S
C2040 C2048 1.378 . S
C2041 C2040 1.367 . S
C2041 C2049 1.433 . S
C2042 H2038 0.929 . S
C2042 C2044 1.378 . S
C2042 C2046 1.350 . S
C2043 C2046 1.463 . S
C2043 C2048 1.350 . S
C2043 N2051 1.427 . S
C2044 H2035 0.930 . S
C2044 C2042 1.378 . S
C2044 C2045 1.367 . S
C2045 C2044 1.367 . S
C2045 C2047 1.433 . S
C2046 C2042 1.350 . S
C2046 C2043 1.463 . S
C2046 N2050 1.427 . S
C2047 H2037 0.929 . S
C2047 C2045 1.433 . S
C2047 N2050 1.384 . S
C2048 H2039 0.929 . S
C2048 C2040 1.378 . S
C2048 C2043 1.350 . S
C2049 H2036 0.929 . S
C2049 C2041 1.433 . S
C2049 N2051 1.384 . S
N2050 C2046 1.427 . S
N2050 C2047 1.384 . S
N2051 C2043 1.427 . S
N2051 C2049 1.384 . S
H2052 C2058 0.930 . S
H2053 C2062 0.930 . S
H2054 C2067 0.929 . S
H2055 C2065 0.929 . S
H2056 C2060 0.929 . S
H2057 C2066 0.929 . S
C2058 H2052 0.930 . S
C2058 C2059 1.367 . S
C2058 C2066 1.378 . S
C2059 C2058 1.367 . S
C2059 C2067 1.433 . S
C2060 H2056 0.929 . S
C2060 C2062 1.378 . S
C2060 C2064 1.350 . S
C2061 C2064 1.463 . S
C2061 C2066 1.350 . S
C2061 N2069 1.427 . S
C2062 H2053 0.930 . S
C2062 C2060 1.378 . S
C2062 C2063 1.367 . S
C2063 C2062 1.367 . S
C2063 C2065 1.433 . S
C2064 C2060 1.350 . S
C2064 C2061 1.463 . S
C2064 N2068 1.427 . S
C2065 H2055 0.929 . S
C2065 C2063 1.433 . S
C2065 N2068 1.384 . S
C2066 H2057 0.929 . S
C2066 C2058 1.378 . S
C2066 C2061 1.350 . S
C2067 H2054 0.929 . S
C2067 C2059 1.433 . S
C2067 N2069 1.384 . S
N2068 C2064 1.427 . S
N2068 C2065 1.384 . S
N2069 C2061 1.427 . S
N2069 C2067 1.384 . S
H2070 C2076 0.930 . S
H2071 C2080 0.930 . S
H2072 C2085 0.929 . S
H2073 C2083 0.929 . S
H2074 C2078 0.929 . S
H2075 C2084 0.929 . S
C2076 H2070 0.930 . S
C2076 C2077 1.367 . S
C2076 C2084 1.378 . S
C2077 C2076 1.367 . S
C2077 C2085 1.433 . S
C2078 H2074 0.929 . S
C2078 C2080 1.378 . S
C2078 C2082 1.350 . S
C2079 C2082 1.463 . S
C2079 C2084 1.350 . S
C2079 N2087 1.427 . S
C2080 H2071 0.930 . S
C2080 C2078 1.378 . S
C2080 C2081 1.367 . S
C2081 C2080 1.367 . S
C2081 C2083 1.433 . S
C2082 C2078 1.350 . S
C2082 C2079 1.463 . S
C2082 N2086 1.427 . S
C2083 H2073 0.929 . S
C2083 C2081 1.433 . S
C2083 N2086 1.384 . S
C2084 H2075 0.929 . S
C2084 C2076 1.378 . S
C2084 C2079 1.350 . S
C2085 H2072 0.929 . S
C2085 C2077 1.433 . S
C2085 N2087 1.384 . S
N2086 C2082 1.427 . S
N2086 C2083 1.384 . S
N2087 C2079 1.427 . S
N2087 C2085 1.384 . S
H2088 C2094 0.930 . S
H2089 C2098 0.930 . S
H2090 C2103 0.929 . S
H2091 C2101 0.929 . S
H2092 C2096 0.929 . S
H2093 C2102 0.929 . S
C2094 H2088 0.930 . S
C2094 C2095 1.367 . S
C2094 C2102 1.378 . S
C2095 C2094 1.367 . S
C2095 C2103 1.433 . S
C2096 H2092 0.929 . S
C2096 C2098 1.378 . S
C2096 C2100 1.350 . S
C2097 C2100 1.463 . S
C2097 C2102 1.350 . S
C2097 N2105 1.427 . S
C2098 H2089 0.930 . S
C2098 C2096 1.378 . S
C2098 C2099 1.367 . S
C2099 C2098 1.367 . S
C2099 C2101 1.433 . S
C2100 C2096 1.350 . S
C2100 C2097 1.463 . S
C2100 N2104 1.427 . S
C2101 H2091 0.929 . S
C2101 C2099 1.433 . S
C2101 N2104 1.384 . S
C2102 H2093 0.929 . S
C2102 C2094 1.378 . S
C2102 C2097 1.350 . S
C2103 H2090 0.929 . S
C2103 C2095 1.433 . S
C2103 N2105 1.384 . S
N2104 C2100 1.427 . S
N2104 C2101 1.384 . S
N2105 C2097 1.427 . S
N2105 C2103 1.384 . S
H2106 C2112 0.930 . S
H2107 C2116 0.930 . S
H2108 C2121 0.929 . S
H2109 C2119 0.929 . S
H2110 C2114 0.929 . S
H2111 C2120 0.929 . S
C2112 H2106 0.930 . S
C2112 C2113 1.367 . S
C2112 C2120 1.378 . S
C2113 C2112 1.367 . S
C2113 C2121 1.433 . S
C2114 H2110 0.929 . S
C2114 C2116 1.378 . S
C2114 C2118 1.350 . S
C2115 C2118 1.463 . S
C2115 C2120 1.350 . S
C2115 N2123 1.427 . S
C2116 H2107 0.930 . S
C2116 C2114 1.378 . S
C2116 C2117 1.367 . S
C2117 C2116 1.367 . S
C2117 C2119 1.433 . S
C2118 C2114 1.350 . S
C2118 C2115 1.463 . S
C2118 N2122 1.427 . S
C2119 H2109 0.929 . S
C2119 C2117 1.433 . S
C2119 N2122 1.384 . S
C2120 H2111 0.929 . S
C2120 C2112 1.378 . S
C2120 C2115 1.350 . S
C2121 H2108 0.929 . S
C2121 C2113 1.433 . S
C2121 N2123 1.384 . S
N2122 C2118 1.427 . S
N2122 C2119 1.384 . S
N2123 C2115 1.427 . S
N2123 C2121 1.384 . S
H2124 C2130 0.930 . S
H2125 C2134 0.930 . S
H2126 C2139 0.929 . S
H2127 C2137 0.929 . S
H2128 C2132 0.929 . S
H2129 C2138 0.929 . S
C2130 H2124 0.930 . S
C2130 C2131 1.367 . S
C2130 C2138 1.378 . S
C2131 C2130 1.367 . S
C2131 C2139 1.433 . S
C2132 H2128 0.929 . S
C2132 C2134 1.378 . S
C2132 C2136 1.350 . S
C2133 C2136 1.463 . S
C2133 C2138 1.350 . S
C2133 N2141 1.427 . S
C2134 H2125 0.930 . S
C2134 C2132 1.378 . S
C2134 C2135 1.367 . S
C2135 C2134 1.367 . S
C2135 C2137 1.433 . S
C2136 C2132 1.350 . S
C2136 C2133 1.463 . S
C2136 N2140 1.427 . S
C2137 H2127 0.929 . S
C2137 C2135 1.433 . S
C2137 N2140 1.384 . S
C2138 H2129 0.929 . S
C2138 C2130 1.378 . S
C2138 C2133 1.350 . S
C2139 H2126 0.929 . S
C2139 C2131 1.433 . S
C2139 N2141 1.384 . S
N2140 C2136 1.427 . S
N2140 C2137 1.384 . S
N2141 C2133 1.427 . S
N2141 C2139 1.384 . S
H2142 C2148 0.930 . S
H2143 C2152 0.930 . S
H2144 C2157 0.929 . S
H2145 C2155 0.929 . S
H2146 C2150 0.929 . S
H2147 C2156 0.929 . S
C2148 H2142 0.930 . S
C2148 C2149 1.367 . S
C2148 C2156 1.378 . S
C2149 C2148 1.367 . S
C2149 C2157 1.433 . S
C2150 H2146 0.929 . S
C2150 C2152 1.378 . S
C2150 C2154 1.350 . S
C2151 C2154 1.463 . S
C2151 C2156 1.350 . S
C2151 N2159 1.427 . S
C2152 H2143 0.930 . S
C2152 C2150 1.378 . S
C2152 C2153 1.367 . S
C2153 C2152 1.367 . S
C2153 C2155 1.433 . S
C2154 C2150 1.350 . S
C2154 C2151 1.463 . S
C2154 N2158 1.427 . S
C2155 H2145 0.929 . S
C2155 C2153 1.433 . S
C2155 N2158 1.384 . S
C2156 H2147 0.929 . S
C2156 C2148 1.378 . S
C2156 C2151 1.350 . S
C2157 H2144 0.929 . S
C2157 C2149 1.433 . S
C2157 N2159 1.384 . S
N2158 C2154 1.427 . S
N2158 C2155 1.384 . S
N2159 C2151 1.427 . S
N2159 C2157 1.384 . S
H2160 C2166 0.930 . S
H2161 C2170 0.930 . S
H2162 C2175 0.929 . S
H2163 C2173 0.929 . S
H2164 C2168 0.929 . S
H2165 C2174 0.929 . S
C2166 H2160 0.930 . S
C2166 C2167 1.367 . S
C2166 C2174 1.378 . S
C2167 C2166 1.367 . S
C2167 C2175 1.433 . S
C2168 H2164 0.929 . S
C2168 C2170 1.378 . S
C2168 C2172 1.350 . S
C2169 C2172 1.463 . S
C2169 C2174 1.350 . S
C2169 N2177 1.427 . S
C2170 H2161 0.930 . S
C2170 C2168 1.378 . S
C2170 C2171 1.367 . S
C2171 C2170 1.367 . S
C2171 C2173 1.433 . S
C2172 C2168 1.350 . S
C2172 C2169 1.463 . S
C2172 N2176 1.427 . S
C2173 H2163 0.929 . S
C2173 C2171 1.433 . S
C2173 N2176 1.384 . S
C2174 H2165 0.929 . S
C2174 C2166 1.378 . S
C2174 C2169 1.350 . S
C2175 H2162 0.929 . S
C2175 C2167 1.433 . S
C2175 N2177 1.384 . S
N2176 C2172 1.427 . S
N2176 C2173 1.384 . S
N2177 C2169 1.427 . S
N2177 C2175 1.384 . S
H2178 C2184 0.930 . S
H2179 C2188 0.930 . S
H2180 C2193 0.929 . S
H2181 C2191 0.929 . S
H2182 C2186 0.929 . S
H2183 C2192 0.929 . S
C2184 H2178 0.930 . S
C2184 C2185 1.367 . S
C2184 C2192 1.378 . S
C2185 C2184 1.367 . S
C2185 C2193 1.433 . S
C2186 H2182 0.929 . S
C2186 C2188 1.378 . S
C2186 C2190 1.350 . S
C2187 C2190 1.463 . S
C2187 C2192 1.350 . S
C2187 N2195 1.427 . S
C2188 H2179 0.930 . S
C2188 C2186 1.378 . S
C2188 C2189 1.367 . S
C2189 C2188 1.367 . S
C2189 C2191 1.433 . S
C2190 C2186 1.350 . S
C2190 C2187 1.463 . S
C2190 N2194 1.427 . S
C2191 H2181 0.929 . S
C2191 C2189 1.433 . S
C2191 N2194 1.384 . S
C2192 H2183 0.929 . S
C2192 C2184 1.378 . S
C2192 C2187 1.350 . S
C2193 H2180 0.929 . S
C2193 C2185 1.433 . S
C2193 N2195 1.384 . S
N2194 C2190 1.427 . S
N2194 C2191 1.384 . S
N2195 C2187 1.427 . S
N2195 C2193 1.384 . S
H2196 C2202 0.930 . S
H2197 C2206 0.930 . S
H2198 C2211 0.929 . S
H2199 C2209 0.929 . S
H2200 C2204 0.929 . S
H2201 C2210 0.929 . S
C2202 H2196 0.930 . S
C2202 C2203 1.367 . S
C2202 C2210 1.378 . S
C2203 C2202 1.367 . S
C2203 C2211 1.433 . S
C2204 H2200 0.929 . S
C2204 C2206 1.378 . S
C2204 C2208 1.350 . S
C2205 C2208 1.463 . S
C2205 C2210 1.350 . S
C2205 N2213 1.427 . S
C2206 H2197 0.930 . S
C2206 C2204 1.378 . S
C2206 C2207 1.367 . S
C2207 C2206 1.367 . S
C2207 C2209 1.433 . S
C2208 C2204 1.350 . S
C2208 C2205 1.463 . S
C2208 N2212 1.427 . S
C2209 H2199 0.929 . S
C2209 C2207 1.433 . S
C2209 N2212 1.384 . S
C2210 H2201 0.929 . S
C2210 C2202 1.378 . S
C2210 C2205 1.350 . S
C2211 H2198 0.929 . S
C2211 C2203 1.433 . S
C2211 N2213 1.384 . S
N2212 C2208 1.427 . S
N2212 C2209 1.384 . S
N2213 C2205 1.427 . S
N2213 C2211 1.384 . S
H2214 C2220 0.930 . S
H2215 C2224 0.930 . S
H2216 C2229 0.929 . S
H2217 C2227 0.929 . S
H2218 C2222 0.929 . S
H2219 C2228 0.929 . S
C2220 H2214 0.930 . S
C2220 C2221 1.367 . S
C2220 C2228 1.378 . S
C2221 C2220 1.367 . S
C2221 C2229 1.433 . S
C2222 H2218 0.929 . S
C2222 C2224 1.378 . S
C2222 C2226 1.350 . S
C2223 C2226 1.463 . S
C2223 C2228 1.350 . S
C2223 N2231 1.427 . S
C2224 H2215 0.930 . S
C2224 C2222 1.378 . S
C2224 C2225 1.367 . S
C2225 C2224 1.367 . S
C2225 C2227 1.433 . S
C2226 C2222 1.350 . S
C2226 C2223 1.463 . S
C2226 N2230 1.427 . S
C2227 H2217 0.929 . S
C2227 C2225 1.433 . S
C2227 N2230 1.384 . S
C2228 H2219 0.929 . S
C2228 C2220 1.378 . S
C2228 C2223 1.350 . S
C2229 H2216 0.929 . S
C2229 C2221 1.433 . S
C2229 N2231 1.384 . S
N2230 C2226 1.427 . S
N2230 C2227 1.384 . S
N2231 C2223 1.427 . S
N2231 C2229 1.384 . S
C1591 C1553 2.100 . S
C1595 C20 2.100 . S
C1609 C1369 2.103 . S
C1613 C117 2.103 . S
C1627 C1465 2.102 . S
C1631 C196 2.102 . S
C1645 C645 2.097 . S
C1649 C321 2.097 . S
C1663 C724 2.103 . S
C1667 C409 2.103 . S
C1681 C497 2.097 . S
C1685 C557 2.097 . S
C1699 C849 2.098 . S
C1703 C1173 2.098 . S
C1717 C937 2.100 . S
C1721 C1252 2.100 . S
C1735 C1025 2.098 . S
C1739 C1076 2.097 . S
C1753 C49 0.573 . S
C1757 C1525 0.572 . S
C1771 C1340 0.574 . S
C1775 C145 0.573 . S
C1789 C225 0.573 . S
C1793 C1437 0.572 . S
C1807 C673 0.572 . S
C1811 C293 0.572 . S
C1825 C381 0.573 . S
C1829 C753 0.574 . S
C1843 C469 0.572 . S
C1847 C585 0.573 . S
C1861 C821 0.572 . S
C1865 C1201 0.573 . S
C1879 C1281 0.573 . S
C1883 C909 0.574 . S
C1897 C1105 0.574 . S
C1901 C997 0.573 . S
C1915 C29 1.524 . S
C1919 C313 1.524 . S
C1933 C401 1.525 . S
C1937 C108 1.525 . S
C1951 C489 1.531 . S
C1955 C205 1.530 . S
C1969 C460 1.525 . S
C1973 C137 1.526 . S
C1987 C233 1.528 . S
C1991 C284 1.530 . S
C2005 C372 1.534 . S
C2009 C57 1.533 . S
C2023 C548 1.531 . S
C2027 C841 1.532 . S
C2041 C929 1.532 . S
C2045 C636 1.531 . S
C2059 C1017 1.525 . S
C2063 C733 1.526 . S
C2077 C988 1.533 . S
C2081 C665 1.532 . S
C2095 C761 1.527 . S
C2099 C812 1.526 . S
C2113 C900 1.532 . S
C2117 C577 1.533 . S
C2131 C1377 1.526 . S
C2135 C1085 1.525 . S
C2149 C1457 1.524 . S
C2153 C1164 1.525 . S
C2167 C1261 1.524 . S
C2171 C1545 1.524 . S
C2185 C1516 1.533 . S
C2189 C1193 1.533 . S
C2203 C1289 1.531 . S
C2207 C1349 1.532 . S
C2221 C1428 1.528 . S
C2225 C1113 1.530 . S
