# Generated by pormake.
# Topology snk, (6)-cn, num edge types: 1
# Building blocks:
#     Node 0, Type 0, BuildingBlock: CUWYAW_clean_sbu_0, # of connection points: 6
#     Node 1, Type 0, BuildingBlock: CUWYAW_clean_sbu_0, # of connection points: 6
#     Node 2, Type 0, BuildingBlock: CUWYAW_clean_sbu_0, # of connection points: 6
#     Node 3, Type 0, BuildingBlock: CUWYAW_clean_sbu_0, # of connection points: 6
#     Node 4, Type 0, BuildingBlock: CUWYAW_clean_sbu_0, # of connection points: 6
#     Node 5, Type 0, BuildingBlock: CUWYAW_clean_sbu_0, # of connection points: 6
#     Node 6, Type 0, BuildingBlock: CUWYAW_clean_sbu_0, # of connection points: 6
#     Node 7, Type 0, BuildingBlock: CUWYAW_clean_sbu_0, # of connection points: 6
#     Edge 8, Type (0, 0), BuildingBlock: EYOCIG_clean_linker_4, # of connection points: 2
#     Edge 9, Type (0, 0), BuildingBlock: EYOCIG_clean_linker_4, # of connection points: 2
#     Edge 10, Type (0, 0), BuildingBlock: EYOCIG_clean_linker_4, # of connection points: 2
#     Edge 11, Type (0, 0), BuildingBlock: EYOCIG_clean_linker_4, # of connection points: 2
#     Edge 12, Type (0, 0), BuildingBlock: EYOCIG_clean_linker_4, # of connection points: 2
#     Edge 13, Type (0, 0), BuildingBlock: EYOCIG_clean_linker_4, # of connection points: 2
#     Edge 14, Type (0, 0), BuildingBlock: EYOCIG_clean_linker_4, # of connection points: 2
#     Edge 15, Type (0, 0), BuildingBlock: EYOCIG_clean_linker_4, # of connection points: 2
#     Edge 16, Type (0, 0), BuildingBlock: EYOCIG_clean_linker_4, # of connection points: 2
#     Edge 17, Type (0, 0), BuildingBlock: EYOCIG_clean_linker_4, # of connection points: 2
#     Edge 18, Type (0, 0), BuildingBlock: EYOCIG_clean_linker_4, # of connection points: 2
#     Edge 19, Type (0, 0), BuildingBlock: EYOCIG_clean_linker_4, # of connection points: 2
#     Edge 20, Type (0, 0), BuildingBlock: EYOCIG_clean_linker_4, # of connection points: 2
#     Edge 21, Type (0, 0), BuildingBlock: EYOCIG_clean_linker_4, # of connection points: 2
#     Edge 22, Type (0, 0), BuildingBlock: EYOCIG_clean_linker_4, # of connection points: 2
#     Edge 23, Type (0, 0), BuildingBlock: EYOCIG_clean_linker_4, # of connection points: 2
#     Edge 24, Type (0, 0), BuildingBlock: EYOCIG_clean_linker_4, # of connection points: 2
#     Edge 25, Type (0, 0), BuildingBlock: EYOCIG_clean_linker_4, # of connection points: 2
#     Edge 26, Type (0, 0), BuildingBlock: EYOCIG_clean_linker_4, # of connection points: 2
#     Edge 27, Type (0, 0), BuildingBlock: EYOCIG_clean_linker_4, # of connection points: 2
#     Edge 28, Type (0, 0), BuildingBlock: EYOCIG_clean_linker_4, # of connection points: 2
#     Edge 29, Type (0, 0), BuildingBlock: EYOCIG_clean_linker_4, # of connection points: 2
#     Edge 30, Type (0, 0), BuildingBlock: EYOCIG_clean_linker_4, # of connection points: 2
#     Edge 31, Type (0, 0), BuildingBlock: EYOCIG_clean_linker_4, # of connection points: 2
# Relax obj value: 0.102
# Max RMSD: 0.184
# Mean RMSD: 0.146
data_MOF--net-snk--node1-CUWYAW_clean_sbu_0--edge1-EYOCIG_clean_linker_4
_symmetry_space_group_name_H-M    P1
_symmetry_Int_Tables_number       1
_symmetry_cell_setting            triclinic
loop_
_symmetry_equiv_pos_as_xyz
'x, y, z'
_cell_length_a     28.903262
_cell_length_b     28.907497
_cell_length_c     22.449122
_cell_angle_alpha  94.981968
_cell_angle_beta   94.985285
_cell_angle_gamma 89.89284
loop_
_atom_site_label
_atom_site_type_symbol
_atom_site_fract_x
_atom_site_fract_y
_atom_site_fract_z
_atom_type_partial_charge
C0 C 0.02427 0.06304 0.6895 0.0
Eu1 Eu 0.0124 0.03609 0.57511 0.0
C2 C 0.01447 0.0475 0.74861 0.0
C3 C 0.99 0.07702 0.78782 0.0
C4 C 0.98521 0.06605 0.84659 0.0
C5 C 1.00489 0.0254 0.86718 0.0
C6 C 0.02723 0.99458 0.82739 0.0
C7 C 0.03197 1.00546 0.7685 0.0
C8 C 0.95229 0.06908 0.49109 0.0
C9 C 0.94517 0.94311 0.55706 0.0
C10 C 0.98796 0.94879 0.3371 0.0
Eu11 Eu 0.99994 0.97592 0.45144 0.0
C12 C 0.99753 0.96414 0.27781 0.0
C13 C 0.02157 0.93436 0.23842 0.0
C14 C 0.02612 0.94517 0.17953 0.0
C15 C 0.00662 0.98592 0.159 0.0
C16 C 0.98469 0.01697 0.19893 0.0
C17 C 0.98019 0.00625 0.25795 0.0
C18 C 0.06002 0.943 0.5357 0.0
C19 C 0.06715 0.06895 0.46954 0.0
O20 O 0.05572 0.04041 0.65995 0.0
O21 O 0.9887 0.07541 0.65435 0.0
O22 O 0.97714 0.09575 0.53103 0.0
O23 O 0.95716 0.02686 0.50013 0.0
O24 O 0.97066 0.97333 0.59333 0.0
O25 O 0.94575 0.93995 0.49792 0.0
O26 O 0.95654 0.97144 0.36668 0.0
O27 O 0.02364 0.93659 0.3722 0.0
O28 O 0.03519 0.91627 0.49579 0.0
O29 O 0.05513 0.98514 0.52634 0.0
O30 O 0.04165 0.03873 0.43325 0.0
O31 O 0.06658 0.07207 0.52868 0.0
H32 H 0.97592 0.10946 0.77364 0.0
H33 H 0.96751 0.09011 0.87652 0.0
H34 H 0.04233 0.9628 0.8424 0.0
H35 H 0.05056 0.98167 0.73928 0.0
H36 H 0.03551 0.90186 0.25258 0.0
H37 H 0.0435 0.92091 0.14947 0.0
H38 H 0.96974 0.04883 0.18397 0.0
H39 H 0.96193 0.03023 0.28731 0.0
C40 C 0.2214 0.78062 0.93444 0.0
Eu41 Eu 0.23484 0.76322 0.82219 0.0
C42 C 0.23437 0.76285 0.99301 0.0
C43 C 0.20258 0.73565 0.01894 0.0
C44 C 0.20979 0.72756 0.07937 0.0
C45 C 0.24875 0.7467 0.11401 0.0
C46 C 0.28265 0.77005 0.08728 0.0
C47 C 0.27554 0.77817 0.02697 0.0
C48 C 0.1942 0.69677 0.74376 0.0
C49 C 0.32245 0.69188 0.80851 0.0
C50 C 0.29154 0.73112 0.59164 0.0
Eu51 Eu 0.27816 0.74868 0.70387 0.0
C52 C 0.27874 0.74883 0.533 0.0
C53 C 0.31069 0.77584 0.50707 0.0
C54 C 0.30364 0.78378 0.44658 0.0
C55 C 0.26468 0.76469 0.41188 0.0
C56 C 0.23063 0.74156 0.4386 0.0
C57 C 0.23757 0.73358 0.49897 0.0
C58 C 0.31871 0.81518 0.78246 0.0
C59 C 0.1906 0.82015 0.71766 0.0
O60 O 0.25418 0.80051 0.90873 0.0
O61 O 0.19285 0.75533 0.89647 0.0
O62 O 0.17103 0.72406 0.77904 0.0
O63 O 0.23716 0.70385 0.75349 0.0
O64 O 0.29807 0.71876 0.84468 0.0
O65 O 0.31735 0.69266 0.74973 0.0
O66 O 0.25861 0.71149 0.61736 0.0
O67 O 0.32023 0.75627 0.62958 0.0
O68 O 0.34197 0.78793 0.74721 0.0
O69 O 0.2758 0.80803 0.77243 0.0
O70 O 0.21502 0.79333 0.68146 0.0
O71 O 0.19564 0.81927 0.77643 0.0
H72 H 0.17071 0.72321 0.9937 0.0
H73 H 0.18347 0.70924 0.09982 0.0
H74 H 0.31302 0.78477 0.11394 0.0
H75 H 0.30087 0.79896 1.00822 0.0
H76 H 0.34255 0.78822 0.53235 0.0
H77 H 0.33008 0.80194 0.42613 0.0
H78 H 0.20025 0.72689 0.41191 0.0
H79 H 0.21212 0.71295 0.51772 0.0
C80 C 0.4812 0.04153 0.84176 0.0
Eu81 Eu 0.49863 0.02796 0.95397 0.0
C82 C 0.49889 0.02872 0.7831 0.0
C83 C 0.526 0.06062 0.75722 0.0
C84 C 0.53396 0.05359 0.69674 0.0
C85 C 0.5148 0.0147 0.66198 0.0
C86 C 0.49155 0.98069 0.68864 0.0
C87 C 0.48355 0.98762 0.74901 0.0
C88 C 0.56488 0.06865 0.0327 0.0
C89 C 0.56989 0.94024 0.96758 0.0
C90 C 0.53004 0.97052 0.18431 0.0
Eu91 Eu 0.51298 0.98443 0.07215 0.0
C92 C 0.51253 0.98375 0.24296 0.0
C93 C 0.4854 0.95209 0.26922 0.0
C94 C 0.47751 0.95951 0.3297 0.0
C95 C 0.49678 0.99854 0.36406 0.0
C96 C 0.52006 0.0323 0.337 0.0
C97 C 0.52798 0.02499 0.27663 0.0
C98 C 0.44665 0.94402 0.99316 0.0
C99 C 0.4418 0.07217 0.05856 0.0
O100 O 0.46137 0.00869 0.8674 0.0
O101 O 0.5065 0.07004 0.87977 0.0
O102 O 0.53764 0.09179 0.99729 0.0
O103 O 0.55791 0.02567 0.0229 0.0
O104 O 0.5432 0.96483 0.93145 0.0
O105 O 0.56894 0.94512 0.02635 0.0
O106 O 0.5506 1.00292 0.1587 0.0
O107 O 0.50419 0.94253 0.14628 0.0
O108 O 0.47395 0.92068 0.02825 0.0
O109 O 0.45372 0.98692 1.00345 0.0
O110 O 0.46869 0.04778 0.09471 0.0
O111 O 0.44254 0.06706 0.99978 0.0
H112 H 0.53845 0.09244 0.78256 0.0
H113 H 0.55221 0.08 0.67635 0.0
H114 H 0.47682 0.95036 0.6619 0.0
H115 H 0.46284 0.9622 0.76771 0.0
H116 H 0.47287 0.92018 0.2442 0.0
H117 H 0.45924 0.93329 0.3504 0.0
H118 H 0.53486 0.06273 0.36344 0.0
H119 H 0.54869 0.05023 0.25762 0.0
C120 C 0.19952 0.23772 0.0876 0.0
Eu121 Eu 0.22648 0.24981 0.20198 0.0
C122 C 0.21497 0.24736 0.0284 0.0
C123 C 0.18535 0.27168 0.98914 0.0
C124 C 0.19624 0.27637 0.93031 0.0
C125 C 0.23691 0.25672 0.90972 0.0
C126 C 0.26782 0.2345 0.94954 0.0
C127 C 0.25701 0.22987 1.0085 0.0
C128 C 0.19352 0.3101 0.28579 0.0
C129 C 0.31946 0.31704 0.21994 0.0
C130 C 0.31361 0.27462 0.44008 0.0
Eu131 Eu 0.28663 0.26249 0.32572 0.0
C132 C 0.29822 0.26484 0.49927 0.0
C133 C 0.32794 0.24055 0.53846 0.0
C134 C 0.31713 0.23576 0.59728 0.0
C135 C 0.27644 0.25526 0.61797 0.0
C136 C 0.24542 0.27744 0.57824 0.0
C137 C 0.25615 0.28218 0.51927 0.0
C138 C 0.31956 0.2023 0.24164 0.0
C139 C 0.19361 0.19524 0.30772 0.0
O140 O 0.22218 0.20634 0.11726 0.0
O141 O 0.18717 0.27336 0.12264 0.0
O142 O 0.16683 0.2852 0.24591 0.0
O143 O 0.23573 0.30517 0.27679 0.0
O144 O 0.28929 0.29146 0.18371 0.0
O145 O 0.32256 0.31661 0.2791 0.0
O146 O 0.29076 0.3059 0.41047 0.0
O147 O 0.32616 0.2391 0.405 0.0
O148 O 0.3463 0.22716 0.2815 0.0
O149 O 0.27742 0.20723 0.25096 0.0
O150 O 0.22386 0.22075 0.34396 0.0
O151 O 0.19046 0.19575 0.24857 0.0
H152 H 0.15291 0.28574 1.00334 0.0
H153 H 0.1721 0.29397 0.90035 0.0
H154 H 0.2996 0.21943 0.93452 0.0
H155 H 0.28087 0.21139 0.03775 0.0
H156 H 0.36041 0.22661 0.5242 0.0
H157 H 0.34135 0.2182 0.62717 0.0
H158 H 0.21361 0.2924 0.59333 0.0
H159 H 0.23221 0.30063 0.49007 0.0
C160 C 0.7214 0.28056 0.43459 0.0
Eu161 Eu 0.73479 0.26331 0.32229 0.0
C162 C 0.7344 0.26275 0.49313 0.0
C163 C 0.70262 0.2355 0.51902 0.0
C164 C 0.70982 0.22739 0.57943 0.0
C165 C 0.74876 0.24655 0.61411 0.0
C166 C 0.78265 0.26993 0.58741 0.0
C167 C 0.77556 0.27808 0.52711 0.0
C168 C 0.69336 0.19736 0.24374 0.0
C169 C 0.82182 0.19131 0.3083 0.0
C170 C 0.79139 0.23121 0.09181 0.0
Eu171 Eu 0.77788 0.24855 0.20406 0.0
C172 C 0.77852 0.24886 0.03315 0.0
C173 C 0.81044 0.27586 1.00716 0.0
C174 C 0.80338 0.28373 0.94665 0.0
C175 C 0.76443 0.26458 0.91199 0.0
C176 C 0.7304 0.24145 0.93876 0.0
C177 C 0.73736 0.23355 0.99916 0.0
C178 C 0.81928 0.31441 0.28296 0.0
C179 C 0.69083 0.32053 0.21804 0.0
O180 O 0.75414 0.30051 0.40889 0.0
O181 O 0.69287 0.25528 0.39661 0.0
O182 O 0.67052 0.22497 0.27905 0.0
O183 O 0.73641 0.20392 0.25342 0.0
O184 O 0.79771 0.21839 0.34457 0.0
O185 O 0.81661 0.1921 0.24954 0.0
O186 O 0.75861 0.2113 0.11748 0.0
O187 O 0.81986 0.25657 0.1298 0.0
O188 O 0.84218 0.28681 0.24769 0.0
O189 O 0.77627 0.30789 0.27286 0.0
O190 O 0.71496 0.29348 0.18177 0.0
O191 O 0.69601 0.31972 0.27681 0.0
H192 H 0.67076 0.22306 0.49376 0.0
H193 H 0.6835 0.20905 0.59987 0.0
H194 H 0.81301 0.28465 0.61409 0.0
H195 H 0.80087 0.29889 0.50839 0.0
H196 H 0.8423 0.28828 0.03242 0.0
H197 H 0.8298 0.30188 0.92617 0.0
H198 H 0.70003 0.22674 0.91209 0.0
H199 H 0.71193 0.21291 0.01795 0.0
C200 C 0.69908 0.73738 0.58706 0.0
Eu201 Eu 0.72607 0.74952 0.70144 0.0
C202 C 0.71439 0.74719 0.52784 0.0
C203 C 0.68471 0.77166 0.4888 0.0
C204 C 0.69547 0.7765 0.42996 0.0
C205 C 0.73606 0.75687 0.40911 0.0
C206 C 0.76703 0.7345 0.4487 0.0
C207 C 0.75636 0.72971 0.50767 0.0
C208 C 0.69263 0.8095 0.78529 0.0
C209 C 0.8188 0.81714 0.71935 0.0
C210 C 0.81306 0.77464 0.93948 0.0
Eu211 Eu 0.78614 0.76246 0.82509 0.0
C212 C 0.79758 0.76503 0.99868 0.0
C213 C 0.82723 0.74085 0.03807 0.0
C214 C 0.81629 0.73618 0.09687 0.0
C215 C 0.77553 0.75571 0.11734 0.0
C216 C 0.7446 0.77779 0.07741 0.0
C217 C 0.75545 0.7824 0.01847 0.0
C218 C 0.81942 0.70245 0.74105 0.0
C219 C 0.6935 0.69475 0.80712 0.0
O220 O 0.72198 0.70612 0.61666 0.0
O221 O 0.68654 0.7729 0.62216 0.0
O222 O 0.66616 0.78441 0.74537 0.0
O223 O 0.7349 0.80492 0.77632 0.0
O224 O 0.78866 0.7915 0.68313 0.0
O225 O 0.82194 0.81668 0.7785 0.0
O226 O 0.7904 0.80598 0.90977 0.0
O227 O 0.82545 0.739 0.90449 0.0
O228 O 0.84601 0.72747 0.78092 0.0
O229 O 0.77725 0.70712 0.75035 0.0
O230 O 0.72354 0.7205 0.84336 0.0
O231 O 0.69042 0.69518 0.74797 0.0
H232 H 0.65233 0.78571 0.50318 0.0
H233 H 0.67129 0.79422 0.40018 0.0
H234 H 0.79876 0.71944 0.43348 0.0
H235 H 0.78026 0.71112 0.53674 0.0
H236 H 0.85974 0.72688 0.02396 0.0
H237 H 0.84045 0.71869 0.12692 0.0
H238 H 0.71274 0.79277 0.09233 0.0
H239 H 0.73156 0.80077 0.98912 0.0
C240 C 0.52466 0.56303 0.18953 0.0
Eu241 Eu 0.51263 0.536 0.07517 0.0
C242 C 0.51486 0.54773 0.24876 0.0
C243 C 0.4905 0.5775 0.28779 0.0
C244 C 0.48566 0.56683 0.34665 0.0
C245 C 0.5052 0.52624 0.36756 0.0
C246 C 0.52747 0.49516 0.32798 0.0
C247 C 0.53225 0.50574 0.26896 0.0
C248 C 0.45253 0.56915 0.99124 0.0
C249 C 0.44529 0.44308 0.05725 0.0
C250 C 0.48776 0.44894 0.83711 0.0
Eu251 Eu 0.4999 0.47584 0.95149 0.0
C252 C 0.49736 0.46449 0.77793 0.0
C253 C 0.52166 0.43493 0.73859 0.0
C254 C 0.52634 0.44591 0.67981 0.0
C255 C 0.50669 0.48659 0.6593 0.0
C256 C 0.48447 0.51745 0.69919 0.0
C257 C 0.47986 0.50657 0.75813 0.0
C258 C 0.56003 0.44284 0.03562 0.0
C259 C 0.56736 0.56866 0.96948 0.0
O260 O 0.55599 0.5402 0.15998 0.0
O261 O 0.48913 0.5755 0.15439 0.0
O262 O 0.47749 0.59575 0.03114 0.0
O263 O 0.45729 0.52692 1.00026 0.0
O264 O 0.47084 0.4733 0.09346 0.0
O265 O 0.44578 0.43992 0.99809 0.0
O266 O 0.45637 0.47153 0.86681 0.0
O267 O 0.52343 0.43658 0.87211 0.0
O268 O 0.53513 0.41613 0.99574 0.0
O269 O 0.55518 0.48498 0.02627 0.0
O270 O 0.54172 0.53854 0.93324 0.0
O271 O 0.5669 0.57178 0.02863 0.0
H272 H 0.47652 0.60991 0.27339 0.0
H273 H 0.46804 0.59109 0.37641 0.0
H274 H 0.54246 0.46341 0.34325 0.0
H275 H 0.55077 0.48178 0.23988 0.0
H276 H 0.53571 0.40247 0.75269 0.0
H277 H 0.54394 0.42182 0.6498 0.0
H278 H 0.46939 0.54925 0.68424 0.0
H279 H 0.46141 0.53039 0.78746 0.0
C280 C 0.9816 0.54094 0.3421 0.0
Eu281 Eu 0.99916 0.52764 0.45438 0.0
C282 C 0.99944 0.52826 0.28349 0.0
C283 C 0.02664 0.56021 0.25783 0.0
C284 C 0.03473 0.55328 0.19738 0.0
C285 C 0.0156 0.51445 0.16246 0.0
C286 C 0.99225 0.4804 0.18891 0.0
C287 C 0.98412 0.48723 0.24924 0.0
C288 C 0.06546 0.56867 0.53274 0.0
C289 C 0.07105 0.44048 0.46829 0.0
C290 C 0.03119 0.47082 0.68487 0.0
Eu291 Eu 0.01389 0.48443 0.57265 0.0
C292 C 0.01356 0.48391 0.74349 0.0
C293 C 0.9866 0.45208 0.7697 0.0
C294 C 0.97867 0.4594 0.83017 0.0
C295 C 0.99772 0.4985 0.86457 0.0
C296 C 0.02081 0.53242 0.83757 0.0
C297 C 0.02878 0.52521 0.7772 0.0
C298 C 0.94788 0.4433 0.49374 0.0
C299 C 0.94219 0.57172 0.5589 0.0
O300 O 0.96213 0.5079 0.36779 0.0
O301 O 0.00658 0.56974 0.38008 0.0
O302 O 0.03803 0.59167 0.4974 0.0
O303 O 0.05858 0.52568 0.52311 0.0
O304 O 0.04411 0.46475 0.43205 0.0
O305 O 0.07019 0.44555 0.52705 0.0
O306 O 0.05135 0.50342 0.65917 0.0
O307 O 1.00564 0.44251 0.6469 0.0
O308 O 0.97541 0.42029 0.52896 0.0
O309 O 0.95454 0.48629 0.5039 0.0
O310 O 0.96924 0.54753 0.59509 0.0
O311 O 0.94291 0.56654 0.50012 0.0
H312 H 0.03907 0.59198 0.28329 0.0
H313 H 0.05305 0.57972 0.17713 0.0
H314 H 0.97755 0.45013 0.16204 0.0
H315 H 0.96333 0.4618 0.26778 0.0
H316 H 0.97425 0.42012 0.74464 0.0
H317 H 0.96054 0.43306 0.85083 0.0
H318 H 0.03546 0.56291 0.86403 0.0
H319 H 0.04937 0.55058 0.75823 0.0
C320 C 0.11712 0.12161 0.40911 0.0
C321 C 0.09587 0.09957 0.44121 0.0
C322 C 0.14092 0.14537 0.36824 0.0
C323 C 0.16297 0.16658 0.33611 0.0
C324 C 0.11007 0.90688 0.62361 0.0
C325 C 0.0881 0.92605 0.5849 0.0
C326 C 0.1362 0.8796 0.66333 0.0
C327 C 0.16016 0.85354 0.6915 0.0
C328 C 0.35956 0.87528 0.86545 0.0
C329 C 0.33944 0.84833 0.82814 0.0
C330 C 0.38709 0.90309 0.90957 0.0
C331 C 0.41375 0.92334 0.94712 0.0
C332 C 0.38262 0.12663 0.11323 0.0
C333 C 0.40852 0.10266 0.08483 0.0
C334 C 0.35552 0.15265 0.15327 0.0
C335 C 0.33648 0.17446 0.19222 0.0
C336 C 0.89517 0.8906 0.61764 0.0
C337 C 0.91641 0.91254 0.58542 0.0
C338 C 0.8714 0.86696 0.65866 0.0
C339 C 0.8494 0.84581 0.69091 0.0
C340 C 0.90246 0.10509 0.40289 0.0
C341 C 0.92438 0.08611 0.4418 0.0
C342 C 0.87631 0.13208 0.36284 0.0
C343 C 0.85232 0.15799 0.33447 0.0
C344 C 0.65162 0.13783 0.16066 0.0
C345 C 0.67204 0.16454 0.19804 0.0
C346 C 0.62404 0.11008 0.11647 0.0
C347 C 0.59754 0.08967 0.07884 0.0
C348 C 0.6561 0.85938 0.87306 0.0
C349 C 0.67532 0.83746 0.83435 0.0
C350 C 0.62895 0.88555 0.91293 0.0
C351 C 0.60308 0.90961 0.94129 0.0
C352 C 0.61735 0.62111 0.90883 0.0
C353 C 0.59613 0.59919 0.94108 0.0
C354 C 0.64105 0.64478 0.86778 0.0
C355 C 0.66298 0.66599 0.83553 0.0
C356 C 0.63629 0.3798 0.16359 0.0
C357 C 0.66031 0.35386 0.19189 0.0
C358 C 0.61007 0.40686 0.12368 0.0
C359 C 0.58808 0.42588 0.08485 0.0
C360 C 0.8886 0.40172 0.41021 0.0
C361 C 0.91514 0.4222 0.44775 0.0
C362 C 0.86095 0.37394 0.36611 0.0
C363 C 0.84049 0.34726 0.32872 0.0
C364 C 0.85572 0.65239 0.65325 0.0
C365 C 0.83655 0.67437 0.69195 0.0
C366 C 0.8829 0.62621 0.61343 0.0
C367 C 0.90886 0.60221 0.58514 0.0
C368 C 0.37197 0.36686 0.15919 0.0
C369 C 0.35004 0.34572 0.19151 0.0
C370 C 0.39557 0.39052 0.11803 0.0
C371 C 0.41667 0.41247 0.0857 0.0
C372 C 0.40285 0.60544 0.90313 0.0
C373 C 0.42467 0.58629 0.94197 0.0
C374 C 0.37684 0.63261 0.86315 0.0
C375 C 0.35291 0.65856 0.83477 0.0
C376 C 0.15298 0.6375 0.66002 0.0
C377 C 0.17328 0.66406 0.69766 0.0
C378 C 0.12524 0.60999 0.61578 0.0
C379 C 0.09841 0.58975 0.57842 0.0
C380 C 0.15748 0.36 0.37387 0.0
C381 C 0.1765 0.33806 0.33502 0.0
C382 C 0.13041 0.38612 0.41382 0.0
C383 C 0.10443 0.41005 0.44213 0.0
C384 C 1.00498 0.00959 0.98221 0.0
C385 C 1.00488 0.01689 0.92988 0.0
C386 C 0.00626 1.00155 0.04388 0.0
C387 C 0.00648 0.99434 0.09625 0.0
C388 C 0.25896 0.75898 0.29427 0.0
C389 C 0.26282 0.76235 0.348 0.0
C390 C 0.25469 0.75215 0.23162 0.0
C391 C 0.25073 0.74889 0.17789 0.0
C392 C 0.50922 0.00903 0.54437 0.0
C393 C 0.51254 0.01286 0.5981 0.0
C394 C 0.50242 1.00476 0.4817 0.0
C395 C 0.49911 1.00074 0.42797 0.0
C396 C 0.25267 0.25656 0.79468 0.0
C397 C 0.24538 0.2567 0.84701 0.0
C398 C 0.26078 0.25531 0.73304 0.0
C399 C 0.26808 0.25519 0.68071 0.0
C400 C 0.75877 0.25879 0.79437 0.0
C401 C 0.76257 0.26218 0.8481 0.0
C402 C 0.7546 0.25198 0.73172 0.0
C403 C 0.7507 0.24873 0.67799 0.0
C404 C 0.75158 0.75701 0.29401 0.0
C405 C 0.74438 0.75703 0.34636 0.0
C406 C 0.75965 0.75585 0.23235 0.0
C407 C 0.76697 0.75573 0.18003 0.0
C408 C 0.50653 0.50243 0.54427 0.0
C409 C 0.50668 0.49509 0.59659 0.0
C410 C 0.50525 0.51064 0.48265 0.0
C411 C 0.50506 0.51802 0.43034 0.0
C412 C 1.0034 0.50463 0.9822 0.0
C413 C 1.00008 0.50064 0.92848 0.0
C414 C 0.0102 0.50889 0.04486 0.0
C415 C 0.01347 0.51271 0.09859 0.0
loop_
_geom_bond_atom_site_label_1
_geom_bond_atom_site_label_2
_geom_bond_distance
_geom_bond_site_symmetry_2
_ccdc_geom_bond_type
C0 Eu1 2.835 1_655 S
C0 C2 1.500 . S
C0 O20 1.257 1_655 S
C0 O21 1.260 . S
Eu1 C0 2.835 1_455 S
Eu1 O20 2.473 . S
Eu1 O21 2.480 1_455 S
Eu1 O22 2.430 1_455 S
Eu1 O23 2.670 1_455 S
Eu1 O24 2.394 1_445 S
Eu1 O29 2.355 1_545 S
Eu1 O31 2.374 . S
C2 C0 1.500 . S
C2 C3 1.377 . S
C2 C7 1.371 1_655 S
C3 C2 1.377 . S
C3 C4 1.395 . S
C3 H32 0.931 . S
C4 C3 1.395 . S
C4 C5 1.383 . S
C4 H33 0.931 . S
C5 C4 1.383 . S
C5 C6 1.394 . S
C6 C5 1.394 . S
C6 C7 1.372 1_655 S
C6 H34 0.931 1_645 S
C7 C2 1.371 1_455 S
C7 C6 1.372 1_455 S
C7 H35 0.944 1_545 S
C8 O22 1.259 . S
C8 O23 1.270 . S
C9 O24 1.251 . S
C9 O25 1.251 . S
C10 Eu11 2.835 1_455 S
C10 C12 1.500 . S
C10 O26 1.257 1_455 S
C10 O27 1.260 . S
Eu11 C10 2.835 1_655 S
Eu11 O23 2.355 1_565 S
Eu11 O25 2.374 . S
Eu11 O26 2.473 . S
Eu11 O27 2.480 1_655 S
Eu11 O28 2.430 1_655 S
Eu11 O29 2.670 1_655 S
Eu11 O30 2.394 1_665 S
C12 C10 1.500 . S
C12 C13 1.377 . S
C12 C17 1.372 1_455 S
C13 C12 1.377 . S
C13 C14 1.395 . S
C13 H36 0.931 . S
C14 C13 1.395 . S
C14 C15 1.383 . S
C14 H37 0.931 . S
C15 C14 1.383 . S
C15 C16 1.394 . S
C16 C15 1.394 . S
C16 C17 1.374 1_455 S
C16 H38 0.931 1_465 S
C17 C12 1.372 1_655 S
C17 C16 1.374 1_655 S
C17 H39 0.940 1_565 S
C18 O28 1.259 . S
C18 O29 1.270 . S
C19 O30 1.251 . S
C19 O31 1.251 . S
O20 C0 1.257 1_455 S
O20 Eu1 2.473 . S
O21 C0 1.260 . S
O21 Eu1 2.480 1_655 S
O22 Eu1 2.430 1_655 S
O22 C8 1.259 . S
O23 Eu1 2.670 1_655 S
O23 C8 1.270 . S
O23 Eu11 2.355 1_545 S
O24 Eu1 2.394 1_665 S
O24 C9 1.251 . S
O25 C9 1.251 . S
O25 Eu11 2.374 . S
O26 C10 1.257 1_655 S
O26 Eu11 2.473 . S
O27 C10 1.260 . S
O27 Eu11 2.480 1_455 S
O28 Eu11 2.430 1_455 S
O28 C18 1.259 . S
O29 Eu1 2.355 1_565 S
O29 Eu11 2.670 1_455 S
O29 C18 1.270 . S
O30 Eu11 2.394 1_445 S
O30 C19 1.251 . S
O31 Eu1 2.374 . S
O31 C19 1.251 . S
H32 C3 0.931 . S
H33 C4 0.931 . S
H34 C6 0.931 1_465 S
H35 C7 0.944 1_565 S
H36 C13 0.931 . S
H37 C14 0.931 . S
H38 C16 0.931 1_645 S
H39 C17 0.940 1_545 S
C40 Eu41 2.835 . S
C40 C42 1.500 . S
C40 O60 1.257 . S
C40 O61 1.260 . S
Eu41 C40 2.835 . S
Eu41 O60 2.473 . S
Eu41 O61 2.480 . S
Eu41 O62 2.430 . S
Eu41 O63 2.670 . S
Eu41 O64 2.394 . S
Eu41 O69 2.355 . S
Eu41 O71 2.374 . S
C42 C40 1.500 . S
C42 C43 1.377 1_556 S
C42 C47 1.377 1_556 S
C43 C42 1.377 1_554 S
C43 C44 1.395 . S
C43 H72 0.931 1_554 S
C44 C43 1.395 . S
C44 C45 1.383 . S
C44 H73 0.931 . S
C45 C44 1.383 . S
C45 C46 1.394 . S
C46 C45 1.394 . S
C46 C47 1.378 . S
C46 H74 0.931 . S
C47 C42 1.377 1_554 S
C47 C46 1.378 . S
C47 H75 0.931 . S
C48 O62 1.259 . S
C48 O63 1.270 . S
C49 O64 1.251 . S
C49 O65 1.251 . S
C50 Eu51 2.835 . S
C50 C52 1.500 . S
C50 O66 1.257 . S
C50 O67 1.260 . S
Eu51 C50 2.835 . S
Eu51 O63 2.355 . S
Eu51 O65 2.374 . S
Eu51 O66 2.473 . S
Eu51 O67 2.480 . S
Eu51 O68 2.430 . S
Eu51 O69 2.670 . S
Eu51 O70 2.394 . S
C52 C50 1.500 . S
C52 C53 1.377 . S
C52 C57 1.377 . S
C53 C52 1.377 . S
C53 C54 1.395 . S
C53 H76 0.931 . S
C54 C53 1.395 . S
C54 C55 1.383 . S
C54 H77 0.931 . S
C55 C54 1.383 . S
C55 C56 1.394 . S
C56 C55 1.394 . S
C56 C57 1.378 . S
C56 H78 0.931 . S
C57 C52 1.377 . S
C57 C56 1.378 . S
C57 H79 0.931 . S
C58 O68 1.259 . S
C58 O69 1.270 . S
C59 O70 1.251 . S
C59 O71 1.251 . S
O60 C40 1.257 . S
O60 Eu41 2.473 . S
O61 C40 1.260 . S
O61 Eu41 2.480 . S
O62 Eu41 2.430 . S
O62 C48 1.259 . S
O63 Eu41 2.670 . S
O63 C48 1.270 . S
O63 Eu51 2.355 . S
O64 Eu41 2.394 . S
O64 C49 1.251 . S
O65 C49 1.251 . S
O65 Eu51 2.374 . S
O66 C50 1.257 . S
O66 Eu51 2.473 . S
O67 C50 1.260 . S
O67 Eu51 2.480 . S
O68 Eu51 2.430 . S
O68 C58 1.259 . S
O69 Eu41 2.355 . S
O69 Eu51 2.670 . S
O69 C58 1.270 . S
O70 Eu51 2.394 . S
O70 C59 1.251 . S
O71 Eu41 2.374 . S
O71 C59 1.251 . S
H72 C43 0.931 1_556 S
H73 C44 0.931 . S
H74 C46 0.931 . S
H75 C47 0.931 . S
H76 C53 0.931 . S
H77 C54 0.931 . S
H78 C56 0.931 . S
H79 C57 0.931 . S
C80 Eu81 2.835 . S
C80 C82 1.500 . S
C80 O100 1.257 1_545 S
C80 O101 1.260 . S
Eu81 C80 2.835 . S
Eu81 O100 2.473 1_545 S
Eu81 O101 2.480 . S
Eu81 O102 2.430 . S
Eu81 O103 2.670 1_556 S
Eu81 O104 2.394 1_545 S
Eu81 O109 2.355 1_545 S
Eu81 O111 2.374 1_556 S
C82 C80 1.500 . S
C82 C83 1.377 . S
C82 C87 1.377 1_545 S
C83 C82 1.377 . S
C83 C84 1.395 . S
C83 H112 0.931 . S
C84 C83 1.395 . S
C84 C85 1.383 . S
C84 H113 0.931 . S
C85 C84 1.383 . S
C85 C86 1.394 1_545 S
C86 C85 1.394 1_565 S
C86 C87 1.378 . S
C86 H114 0.931 . S
C87 C82 1.377 1_565 S
C87 C86 1.378 . S
C87 H115 0.931 . S
C88 O102 1.259 1_554 S
C88 O103 1.270 . S
C89 O104 1.251 . S
C89 O105 1.251 . S
C90 Eu91 2.835 . S
C90 C92 1.500 . S
C90 O106 1.257 1_565 S
C90 O107 1.260 . S
Eu91 C90 2.835 . S
Eu91 O103 2.355 1_565 S
Eu91 O105 2.374 1_554 S
Eu91 O106 2.473 1_565 S
Eu91 O107 2.480 . S
Eu91 O108 2.430 . S
Eu91 O109 2.670 1_554 S
Eu91 O110 2.394 1_565 S
C92 C90 1.500 . S
C92 C93 1.377 . S
C92 C97 1.377 1_565 S
C93 C92 1.377 . S
C93 C94 1.395 . S
C93 H116 0.931 . S
C94 C93 1.395 . S
C94 C95 1.383 . S
C94 H117 0.931 . S
C95 C94 1.383 . S
C95 C96 1.394 1_565 S
C96 C95 1.394 1_545 S
C96 C97 1.378 . S
C96 H118 0.931 . S
C97 C92 1.377 1_545 S
C97 C96 1.378 . S
C97 H119 0.931 . S
C98 O108 1.259 1_556 S
C98 O109 1.270 . S
C99 O110 1.251 . S
C99 O111 1.251 . S
O100 C80 1.257 1_565 S
O100 Eu81 2.473 1_565 S
O101 C80 1.260 . S
O101 Eu81 2.480 . S
O102 Eu81 2.430 . S
O102 C88 1.259 1_556 S
O103 Eu81 2.670 1_554 S
O103 C88 1.270 . S
O103 Eu91 2.355 1_545 S
O104 Eu81 2.394 1_565 S
O104 C89 1.251 . S
O105 C89 1.251 . S
O105 Eu91 2.374 1_556 S
O106 C90 1.257 1_545 S
O106 Eu91 2.473 1_545 S
O107 C90 1.260 . S
O107 Eu91 2.480 . S
O108 Eu91 2.430 . S
O108 C98 1.259 1_554 S
O109 Eu81 2.355 1_565 S
O109 Eu91 2.670 1_556 S
O109 C98 1.270 . S
O110 Eu91 2.394 1_545 S
O110 C99 1.251 . S
O111 Eu81 2.374 1_554 S
O111 C99 1.251 . S
H112 C83 0.931 . S
H113 C84 0.931 . S
H114 C86 0.931 . S
H115 C87 0.931 . S
H116 C93 0.931 . S
H117 C94 0.931 . S
H118 C96 0.931 . S
H119 C97 0.931 . S
C120 Eu121 2.835 . S
C120 C122 1.502 1_554 S
C120 O140 1.257 . S
C120 O141 1.260 . S
Eu121 C120 2.835 . S
Eu121 O140 2.473 . S
Eu121 O141 2.480 . S
Eu121 O142 2.430 . S
Eu121 O143 2.670 . S
Eu121 O144 2.394 . S
Eu121 O149 2.355 . S
Eu121 O151 2.374 . S
C122 C120 1.502 1_556 S
C122 C123 1.376 . S
C122 C127 1.377 . S
C123 C122 1.376 . S
C123 C124 1.395 . S
C123 H152 0.931 . S
C124 C123 1.395 . S
C124 C125 1.383 . S
C124 H153 0.931 . S
C125 C124 1.383 . S
C125 C126 1.394 . S
C126 C125 1.394 . S
C126 C127 1.378 . S
C126 H154 0.931 . S
C127 C122 1.377 . S
C127 C126 1.378 . S
C127 H155 0.931 . S
C128 O142 1.259 . S
C128 O143 1.270 . S
C129 O144 1.251 . S
C129 O145 1.251 . S
C130 Eu131 2.835 . S
C130 C132 1.500 . S
C130 O146 1.257 . S
C130 O147 1.260 . S
Eu131 C130 2.835 . S
Eu131 O143 2.355 . S
Eu131 O145 2.374 . S
Eu131 O146 2.473 . S
Eu131 O147 2.480 . S
Eu131 O148 2.430 . S
Eu131 O149 2.670 . S
Eu131 O150 2.394 . S
C132 C130 1.500 . S
C132 C133 1.377 . S
C132 C137 1.377 . S
C133 C132 1.377 . S
C133 C134 1.395 . S
C133 H156 0.931 . S
C134 C133 1.395 . S
C134 C135 1.383 . S
C134 H157 0.931 . S
C135 C134 1.383 . S
C135 C136 1.394 . S
C136 C135 1.394 . S
C136 C137 1.378 . S
C136 H158 0.931 . S
C137 C132 1.377 . S
C137 C136 1.378 . S
C137 H159 0.931 . S
C138 O148 1.259 . S
C138 O149 1.270 . S
C139 O150 1.251 . S
C139 O151 1.251 . S
O140 C120 1.257 . S
O140 Eu121 2.473 . S
O141 C120 1.260 . S
O141 Eu121 2.480 . S
O142 Eu121 2.430 . S
O142 C128 1.259 . S
O143 Eu121 2.670 . S
O143 C128 1.270 . S
O143 Eu131 2.355 . S
O144 Eu121 2.394 . S
O144 C129 1.251 . S
O145 C129 1.251 . S
O145 Eu131 2.374 . S
O146 C130 1.257 . S
O146 Eu131 2.473 . S
O147 C130 1.260 . S
O147 Eu131 2.480 . S
O148 Eu131 2.430 . S
O148 C138 1.259 . S
O149 Eu121 2.355 . S
O149 Eu131 2.670 . S
O149 C138 1.270 . S
O150 Eu131 2.394 . S
O150 C139 1.251 . S
O151 Eu121 2.374 . S
O151 C139 1.251 . S
H152 C123 0.931 . S
H153 C124 0.931 . S
H154 C126 0.931 . S
H155 C127 0.931 . S
H156 C133 0.931 . S
H157 C134 0.931 . S
H158 C136 0.931 . S
H159 C137 0.931 . S
C160 Eu161 2.835 . S
C160 C162 1.500 . S
C160 O180 1.257 . S
C160 O181 1.260 . S
Eu161 C160 2.835 . S
Eu161 O180 2.473 . S
Eu161 O181 2.480 . S
Eu161 O182 2.430 . S
Eu161 O183 2.670 . S
Eu161 O184 2.394 . S
Eu161 O189 2.355 . S
Eu161 O191 2.374 . S
C162 C160 1.500 . S
C162 C163 1.377 . S
C162 C167 1.377 . S
C163 C162 1.377 . S
C163 C164 1.395 . S
C163 H192 0.931 . S
C164 C163 1.395 . S
C164 C165 1.383 . S
C164 H193 0.931 . S
C165 C164 1.383 . S
C165 C166 1.394 . S
C166 C165 1.394 . S
C166 C167 1.378 . S
C166 H194 0.931 . S
C167 C162 1.377 . S
C167 C166 1.378 . S
C167 H195 0.931 . S
C168 O182 1.259 . S
C168 O183 1.270 . S
C169 O184 1.251 . S
C169 O185 1.251 . S
C170 Eu171 2.835 . S
C170 C172 1.500 . S
C170 O186 1.257 . S
C170 O187 1.260 . S
Eu171 C170 2.835 . S
Eu171 O183 2.355 . S
Eu171 O185 2.374 . S
Eu171 O186 2.473 . S
Eu171 O187 2.480 . S
Eu171 O188 2.430 . S
Eu171 O189 2.670 . S
Eu171 O190 2.394 . S
C172 C170 1.500 . S
C172 C173 1.377 1_554 S
C172 C177 1.377 1_554 S
C173 C172 1.377 1_556 S
C173 C174 1.395 . S
C173 H196 0.931 1_556 S
C174 C173 1.395 . S
C174 C175 1.383 . S
C174 H197 0.931 . S
C175 C174 1.383 . S
C175 C176 1.394 . S
C176 C175 1.394 . S
C176 C177 1.378 . S
C176 H198 0.931 . S
C177 C172 1.377 1_556 S
C177 C176 1.378 . S
C177 H199 0.931 . S
C178 O188 1.259 . S
C178 O189 1.270 . S
C179 O190 1.251 . S
C179 O191 1.251 . S
O180 C160 1.257 . S
O180 Eu161 2.473 . S
O181 C160 1.260 . S
O181 Eu161 2.480 . S
O182 Eu161 2.430 . S
O182 C168 1.259 . S
O183 Eu161 2.670 . S
O183 C168 1.270 . S
O183 Eu171 2.355 . S
O184 Eu161 2.394 . S
O184 C169 1.251 . S
O185 C169 1.251 . S
O185 Eu171 2.374 . S
O186 C170 1.257 . S
O186 Eu171 2.473 . S
O187 C170 1.260 . S
O187 Eu171 2.480 . S
O188 Eu171 2.430 . S
O188 C178 1.259 . S
O189 Eu161 2.355 . S
O189 Eu171 2.670 . S
O189 C178 1.270 . S
O190 Eu171 2.394 . S
O190 C179 1.251 . S
O191 Eu161 2.374 . S
O191 C179 1.251 . S
H192 C163 0.931 . S
H193 C164 0.931 . S
H194 C166 0.931 . S
H195 C167 0.931 . S
H196 C173 0.931 1_554 S
H197 C174 0.931 . S
H198 C176 0.931 . S
H199 C177 0.931 . S
C200 Eu201 2.835 . S
C200 C202 1.500 . S
C200 O220 1.257 . S
C200 O221 1.260 . S
Eu201 C200 2.835 . S
Eu201 O220 2.473 . S
Eu201 O221 2.480 . S
Eu201 O222 2.430 . S
Eu201 O223 2.670 . S
Eu201 O224 2.394 . S
Eu201 O229 2.355 . S
Eu201 O231 2.374 . S
C202 C200 1.500 . S
C202 C203 1.377 . S
C202 C207 1.377 . S
C203 C202 1.377 . S
C203 C204 1.395 . S
C203 H232 0.931 . S
C204 C203 1.395 . S
C204 C205 1.383 . S
C204 H233 0.931 . S
C205 C204 1.383 . S
C205 C206 1.394 . S
C206 C205 1.394 . S
C206 C207 1.378 . S
C206 H234 0.931 . S
C207 C202 1.377 . S
C207 C206 1.378 . S
C207 H235 0.931 . S
C208 O222 1.259 . S
C208 O223 1.270 . S
C209 O224 1.251 . S
C209 O225 1.251 . S
C210 Eu211 2.835 . S
C210 C212 1.501 1_556 S
C210 O226 1.257 . S
C210 O227 1.260 . S
Eu211 C210 2.835 . S
Eu211 O223 2.355 . S
Eu211 O225 2.374 . S
Eu211 O226 2.473 . S
Eu211 O227 2.480 . S
Eu211 O228 2.430 . S
Eu211 O229 2.670 . S
Eu211 O230 2.394 . S
C212 C210 1.501 1_554 S
C212 C213 1.376 . S
C212 C217 1.377 . S
C213 C212 1.376 . S
C213 C214 1.395 . S
C213 H236 0.931 . S
C214 C213 1.395 . S
C214 C215 1.383 . S
C214 H237 0.931 . S
C215 C214 1.383 . S
C215 C216 1.394 . S
C216 C215 1.394 . S
C216 C217 1.378 . S
C216 H238 0.931 . S
C217 C212 1.377 . S
C217 C216 1.378 . S
C217 H239 0.931 . S
C218 O228 1.259 . S
C218 O229 1.270 . S
C219 O230 1.251 . S
C219 O231 1.251 . S
O220 C200 1.257 . S
O220 Eu201 2.473 . S
O221 C200 1.260 . S
O221 Eu201 2.480 . S
O222 Eu201 2.430 . S
O222 C208 1.259 . S
O223 Eu201 2.670 . S
O223 C208 1.270 . S
O223 Eu211 2.355 . S
O224 Eu201 2.394 . S
O224 C209 1.251 . S
O225 C209 1.251 . S
O225 Eu211 2.374 . S
O226 C210 1.257 . S
O226 Eu211 2.473 . S
O227 C210 1.260 . S
O227 Eu211 2.480 . S
O228 Eu211 2.430 . S
O228 C218 1.259 . S
O229 Eu201 2.355 . S
O229 Eu211 2.670 . S
O229 C218 1.270 . S
O230 Eu211 2.394 . S
O230 C219 1.251 . S
O231 Eu201 2.374 . S
O231 C219 1.251 . S
H232 C203 0.931 . S
H233 C204 0.931 . S
H234 C206 0.931 . S
H235 C207 0.931 . S
H236 C213 0.931 . S
H237 C214 0.931 . S
H238 C216 0.931 . S
H239 C217 0.931 . S
C240 Eu241 2.835 . S
C240 C242 1.500 . S
C240 O260 1.257 . S
C240 O261 1.260 . S
Eu241 C240 2.835 . S
Eu241 O260 2.473 . S
Eu241 O261 2.480 . S
Eu241 O262 2.430 . S
Eu241 O263 2.670 1_554 S
Eu241 O264 2.394 . S
Eu241 O269 2.355 . S
Eu241 O271 2.374 . S
C242 C240 1.500 . S
C242 C243 1.377 . S
C242 C247 1.377 . S
C243 C242 1.377 . S
C243 C244 1.395 . S
C243 H272 0.931 . S
C244 C243 1.395 . S
C244 C245 1.383 . S
C244 H273 0.931 . S
C245 C244 1.383 . S
C245 C246 1.394 . S
C246 C245 1.394 . S
C246 C247 1.378 . S
C246 H274 0.931 . S
C247 C242 1.377 . S
C247 C246 1.378 . S
C247 H275 0.931 . S
C248 O262 1.259 1_556 S
C248 O263 1.270 . S
C249 O264 1.251 . S
C249 O265 1.251 1_554 S
C250 Eu251 2.835 . S
C250 C252 1.500 . S
C250 O266 1.257 . S
C250 O267 1.260 . S
Eu251 C250 2.835 . S
Eu251 O263 2.355 . S
Eu251 O265 2.374 . S
Eu251 O266 2.473 . S
Eu251 O267 2.480 . S
Eu251 O268 2.430 . S
Eu251 O269 2.670 1_556 S
Eu251 O270 2.394 . S
C252 C250 1.500 . S
C252 C253 1.377 . S
C252 C257 1.377 . S
C253 C252 1.377 . S
C253 C254 1.395 . S
C253 H276 0.931 . S
C254 C253 1.395 . S
C254 C255 1.383 . S
C254 H277 0.931 . S
C255 C254 1.383 . S
C255 C256 1.394 . S
C256 C255 1.394 . S
C256 C257 1.378 . S
C256 H278 0.931 . S
C257 C252 1.377 . S
C257 C256 1.378 . S
C257 H279 0.931 . S
C258 O268 1.259 1_554 S
C258 O269 1.270 . S
C259 O270 1.251 . S
C259 O271 1.251 1_556 S
O260 C240 1.257 . S
O260 Eu241 2.473 . S
O261 C240 1.260 . S
O261 Eu241 2.480 . S
O262 Eu241 2.430 . S
O262 C248 1.259 1_554 S
O263 Eu241 2.670 1_556 S
O263 C248 1.270 . S
O263 Eu251 2.355 . S
O264 Eu241 2.394 . S
O264 C249 1.251 . S
O265 C249 1.251 1_556 S
O265 Eu251 2.374 . S
O266 C250 1.257 . S
O266 Eu251 2.473 . S
O267 C250 1.260 . S
O267 Eu251 2.480 . S
O268 Eu251 2.430 . S
O268 C258 1.259 1_556 S
O269 Eu241 2.355 . S
O269 Eu251 2.670 1_554 S
O269 C258 1.270 . S
O270 Eu251 2.394 . S
O270 C259 1.251 . S
O271 Eu241 2.374 . S
O271 C259 1.251 1_554 S
H272 C243 0.931 . S
H273 C244 0.931 . S
H274 C246 0.931 . S
H275 C247 0.931 . S
H276 C253 0.931 . S
H277 C254 0.931 . S
H278 C256 0.931 . S
H279 C257 0.931 . S
C280 Eu281 2.835 1_455 S
C280 C282 1.500 . S
C280 O300 1.257 1_455 S
C280 O301 1.260 . S
Eu281 C280 2.835 1_655 S
Eu281 O300 2.473 . S
Eu281 O301 2.480 1_655 S
Eu281 O302 2.430 1_655 S
Eu281 O303 2.670 1_655 S
Eu281 O304 2.394 1_655 S
Eu281 O309 2.355 . S
Eu281 O311 2.374 . S
C282 C280 1.500 . S
C282 C283 1.377 . S
C282 C287 1.370 1_455 S
C283 C282 1.377 . S
C283 C284 1.395 . S
C283 H312 0.931 . S
C284 C283 1.395 . S
C284 C285 1.383 . S
C284 H313 0.931 . S
C285 C284 1.383 . S
C285 C286 1.394 . S
C286 C285 1.394 . S
C286 C287 1.372 1_455 S
C286 H314 0.931 1_455 S
C287 C282 1.370 1_655 S
C287 C286 1.372 1_655 S
C287 H315 0.944 . S
C288 O302 1.259 . S
C288 O303 1.270 . S
C289 O304 1.251 . S
C289 O305 1.251 . S
C290 Eu291 2.835 1_655 S
C290 C292 1.500 . S
C290 O306 1.257 1_655 S
C290 O307 1.260 . S
Eu291 C290 2.835 1_455 S
Eu291 O303 2.355 . S
Eu291 O305 2.374 . S
Eu291 O306 2.473 . S
Eu291 O307 2.480 1_455 S
Eu291 O308 2.430 1_455 S
Eu291 O309 2.670 1_455 S
Eu291 O310 2.394 1_455 S
C292 C290 1.500 . S
C292 C293 1.377 . S
C292 C297 1.377 1_655 S
C293 C292 1.377 . S
C293 C294 1.395 . S
C293 H316 0.931 . S
C294 C293 1.395 . S
C294 C295 1.383 . S
C294 H317 0.931 . S
C295 C294 1.383 . S
C295 C296 1.394 . S
C296 C295 1.394 . S
C296 C297 1.378 1_655 S
C296 H318 0.931 1_655 S
C297 C292 1.377 1_455 S
C297 C296 1.378 1_455 S
C297 H319 0.931 . S
C298 O308 1.259 . S
C298 O309 1.270 . S
C299 O310 1.251 . S
C299 O311 1.251 . S
O300 C280 1.257 1_655 S
O300 Eu281 2.473 . S
O301 C280 1.260 . S
O301 Eu281 2.480 1_455 S
O302 Eu281 2.430 1_455 S
O302 C288 1.259 . S
O303 Eu281 2.670 1_455 S
O303 C288 1.270 . S
O303 Eu291 2.355 . S
O304 Eu281 2.394 1_455 S
O304 C289 1.251 . S
O305 C289 1.251 . S
O305 Eu291 2.374 . S
O306 C290 1.257 1_455 S
O306 Eu291 2.473 . S
O307 C290 1.260 . S
O307 Eu291 2.480 1_655 S
O308 Eu291 2.430 1_655 S
O308 C298 1.259 . S
O309 Eu281 2.355 . S
O309 Eu291 2.670 1_655 S
O309 C298 1.270 . S
O310 Eu291 2.394 1_655 S
O310 C299 1.251 . S
O311 Eu281 2.374 . S
O311 C299 1.251 . S
H312 C283 0.931 . S
H313 C284 0.931 . S
H314 C286 0.931 1_655 S
H315 C287 0.944 . S
H316 C293 0.931 . S
H317 C294 0.931 . S
H318 C296 0.931 1_455 S
H319 C297 0.931 . S
C320 C321 1.170 . S
C320 C322 1.380 . S
C321 C320 1.170 . S
C322 C320 1.380 . S
C322 C323 1.170 . S
C323 C322 1.170 . S
C324 C325 1.170 . S
C324 C326 1.380 . S
C325 C324 1.170 . S
C326 C324 1.380 . S
C326 C327 1.170 . S
C327 C326 1.170 . S
C328 C329 1.170 . S
C328 C330 1.380 . S
C329 C328 1.170 . S
C330 C328 1.380 . S
C330 C331 1.170 . S
C331 C330 1.170 . S
C332 C333 1.170 . S
C332 C334 1.380 . S
C333 C332 1.170 . S
C334 C332 1.380 . S
C334 C335 1.170 . S
C335 C334 1.170 . S
C336 C337 1.170 . S
C336 C338 1.380 . S
C337 C336 1.170 . S
C338 C336 1.380 . S
C338 C339 1.170 . S
C339 C338 1.170 . S
C340 C341 1.170 . S
C340 C342 1.380 . S
C341 C340 1.170 . S
C342 C340 1.380 . S
C342 C343 1.170 . S
C343 C342 1.170 . S
C344 C345 1.170 . S
C344 C346 1.380 . S
C345 C344 1.170 . S
C346 C344 1.380 . S
C346 C347 1.170 . S
C347 C346 1.170 . S
C348 C349 1.170 . S
C348 C350 1.380 . S
C349 C348 1.170 . S
C350 C348 1.380 . S
C350 C351 1.170 . S
C351 C350 1.170 . S
C352 C353 1.170 . S
C352 C354 1.380 . S
C353 C352 1.170 . S
C354 C352 1.380 . S
C354 C355 1.170 . S
C355 C354 1.170 . S
C356 C357 1.170 . S
C356 C358 1.380 . S
C357 C356 1.170 . S
C358 C356 1.380 . S
C358 C359 1.170 . S
C359 C358 1.170 . S
C360 C361 1.170 . S
C360 C362 1.380 . S
C361 C360 1.170 . S
C362 C360 1.380 . S
C362 C363 1.170 . S
C363 C362 1.170 . S
C364 C365 1.170 . S
C364 C366 1.380 . S
C365 C364 1.170 . S
C366 C364 1.380 . S
C366 C367 1.170 . S
C367 C366 1.170 . S
C368 C369 1.170 . S
C368 C370 1.380 . S
C369 C368 1.170 . S
C370 C368 1.380 . S
C370 C371 1.170 . S
C371 C370 1.170 . S
C372 C373 1.170 . S
C372 C374 1.380 . S
C373 C372 1.170 . S
C374 C372 1.380 . S
C374 C375 1.170 . S
C375 C374 1.170 . S
C376 C377 1.170 . S
C376 C378 1.380 . S
C377 C376 1.170 . S
C378 C376 1.380 . S
C378 C379 1.170 . S
C379 C378 1.170 . S
C380 C381 1.170 . S
C380 C382 1.380 . S
C381 C380 1.170 . S
C382 C380 1.380 . S
C382 C383 1.170 . S
C383 C382 1.170 . S
C384 C385 1.170 . S
C384 C386 1.380 1_646 S
C385 C384 1.170 . S
C386 C384 1.380 1_464 S
C386 C387 1.170 . S
C387 C386 1.170 . S
C388 C389 1.170 . S
C388 C390 1.380 . S
C389 C388 1.170 . S
C390 C388 1.380 . S
C390 C391 1.170 . S
C391 C390 1.170 . S
C392 C393 1.170 . S
C392 C394 1.380 . S
C393 C392 1.170 . S
C394 C392 1.380 . S
C394 C395 1.170 1_545 S
C395 C394 1.170 1_565 S
C396 C397 1.170 . S
C396 C398 1.380 . S
C397 C396 1.170 . S
C398 C396 1.380 . S
C398 C399 1.170 . S
C399 C398 1.170 . S
C400 C401 1.170 . S
C400 C402 1.380 . S
C401 C400 1.170 . S
C402 C400 1.380 . S
C402 C403 1.170 . S
C403 C402 1.170 . S
C404 C405 1.170 . S
C404 C406 1.380 . S
C405 C404 1.170 . S
C406 C404 1.380 . S
C406 C407 1.170 . S
C407 C406 1.170 . S
C408 C409 1.170 . S
C408 C410 1.380 . S
C409 C408 1.170 . S
C410 C408 1.380 . S
C410 C411 1.170 . S
C411 C410 1.170 . S
C412 C413 1.170 . S
C412 C414 1.380 1_656 S
C413 C412 1.170 . S
C414 C412 1.380 1_454 S
C414 C415 1.170 . S
C415 C414 1.170 . S
C321 C19 1.922 . S
C323 C139 1.922 . S
C325 C18 1.546 . S
C327 C59 1.561 . S
C329 C58 1.119 . S
C331 C98 1.119 . S
C333 C99 1.571 . S
C335 C138 1.516 . S
C337 C9 1.923 . S
C339 C209 1.923 . S
C341 C8 1.534 . S
C343 C169 1.567 . S
C345 C168 1.094 . S
C347 C88 1.090 . S
C349 C208 1.517 . S
C351 C89 1.573 . S
C353 C259 1.921 . S
C355 C219 1.924 . S
C357 C179 1.571 . S
C359 C258 1.524 . S
C361 C298 1.089 . S
C363 C178 1.090 . S
C365 C218 1.525 . S
C367 C299 1.572 . S
C369 C129 1.925 . S
C371 C249 1.922 . S
C373 C248 1.542 . S
C375 C49 1.565 . S
C377 C48 1.129 . S
C379 C288 1.117 . S
C381 C128 1.545 . S
C383 C289 1.559 . S
C385 C5 1.631 . S
C387 C15 1.636 . S
C389 C55 1.370 . S
C391 C45 1.382 . S
C393 C85 1.384 . S
C395 C95 1.388 . S
C397 C125 1.620 . S
C399 C135 1.654 . S
C401 C175 1.368 . S
C403 C165 1.386 . S
C405 C205 1.658 . S
C407 C215 1.619 . S
C409 C255 1.623 . S
C411 C245 1.661 . S
C413 C295 1.369 . S
C415 C285 1.397 . S
