# Generated by pormake.
# Topology uke, (4)-cn, num edge types: 1
# Building blocks:
#     Node 0, Type 0, BuildingBlock: CEKHIL_clean_sbu_0, # of connection points: 4
#     Node 1, Type 0, BuildingBlock: CEKHIL_clean_sbu_0, # of connection points: 4
#     Node 2, Type 0, BuildingBlock: CEKHIL_clean_sbu_0, # of connection points: 4
#     Node 3, Type 0, BuildingBlock: CEKHIL_clean_sbu_0, # of connection points: 4
#     Node 4, Type 0, BuildingBlock: CEKHIL_clean_sbu_0, # of connection points: 4
#     Node 5, Type 0, BuildingBlock: CEKHIL_clean_sbu_0, # of connection points: 4
#     Node 6, Type 0, BuildingBlock: CEKHIL_clean_sbu_0, # of connection points: 4
#     Node 7, Type 0, BuildingBlock: CEKHIL_clean_sbu_0, # of connection points: 4
#     Node 8, Type 0, BuildingBlock: CEKHIL_clean_sbu_0, # of connection points: 4
#     Node 9, Type 0, BuildingBlock: CEKHIL_clean_sbu_0, # of connection points: 4
#     Node 10, Type 0, BuildingBlock: CEKHIL_clean_sbu_0, # of connection points: 4
#     Node 11, Type 0, BuildingBlock: CEKHIL_clean_sbu_0, # of connection points: 4
#     Node 12, Type 0, BuildingBlock: CEKHIL_clean_sbu_0, # of connection points: 4
#     Node 13, Type 0, BuildingBlock: CEKHIL_clean_sbu_0, # of connection points: 4
#     Node 14, Type 0, BuildingBlock: CEKHIL_clean_sbu_0, # of connection points: 4
#     Node 15, Type 0, BuildingBlock: CEKHIL_clean_sbu_0, # of connection points: 4
#     Node 16, Type 0, BuildingBlock: CEKHIL_clean_sbu_0, # of connection points: 4
#     Node 17, Type 0, BuildingBlock: CEKHIL_clean_sbu_0, # of connection points: 4
#     Node 18, Type 0, BuildingBlock: CEKHIL_clean_sbu_0, # of connection points: 4
#     Node 19, Type 0, BuildingBlock: CEKHIL_clean_sbu_0, # of connection points: 4
#     Node 20, Type 0, BuildingBlock: CEKHIL_clean_sbu_0, # of connection points: 4
#     Node 21, Type 0, BuildingBlock: CEKHIL_clean_sbu_0, # of connection points: 4
#     Node 22, Type 0, BuildingBlock: CEKHIL_clean_sbu_0, # of connection points: 4
#     Node 23, Type 0, BuildingBlock: CEKHIL_clean_sbu_0, # of connection points: 4
#     Node 24, Type 0, BuildingBlock: CEKHIL_clean_sbu_0, # of connection points: 4
#     Node 25, Type 0, BuildingBlock: CEKHIL_clean_sbu_0, # of connection points: 4
#     Node 26, Type 0, BuildingBlock: CEKHIL_clean_sbu_0, # of connection points: 4
#     Node 27, Type 0, BuildingBlock: CEKHIL_clean_sbu_0, # of connection points: 4
#     Node 28, Type 0, BuildingBlock: CEKHIL_clean_sbu_0, # of connection points: 4
#     Node 29, Type 0, BuildingBlock: CEKHIL_clean_sbu_0, # of connection points: 4
#     Node 30, Type 0, BuildingBlock: CEKHIL_clean_sbu_0, # of connection points: 4
#     Node 31, Type 0, BuildingBlock: CEKHIL_clean_sbu_0, # of connection points: 4
#     Edge 32, Type (0, 0), BuildingBlock: KIFKEQ_clean_linker_1, # of connection points: 2
#     Edge 33, Type (0, 0), BuildingBlock: KIFKEQ_clean_linker_1, # of connection points: 2
#     Edge 34, Type (0, 0), BuildingBlock: KIFKEQ_clean_linker_1, # of connection points: 2
#     Edge 35, Type (0, 0), BuildingBlock: KIFKEQ_clean_linker_1, # of connection points: 2
#     Edge 36, Type (0, 0), BuildingBlock: KIFKEQ_clean_linker_1, # of connection points: 2
#     Edge 37, Type (0, 0), BuildingBlock: KIFKEQ_clean_linker_1, # of connection points: 2
#     Edge 38, Type (0, 0), BuildingBlock: KIFKEQ_clean_linker_1, # of connection points: 2
#     Edge 39, Type (0, 0), BuildingBlock: KIFKEQ_clean_linker_1, # of connection points: 2
#     Edge 40, Type (0, 0), BuildingBlock: KIFKEQ_clean_linker_1, # of connection points: 2
#     Edge 41, Type (0, 0), BuildingBlock: KIFKEQ_clean_linker_1, # of connection points: 2
#     Edge 42, Type (0, 0), BuildingBlock: KIFKEQ_clean_linker_1, # of connection points: 2
#     Edge 43, Type (0, 0), BuildingBlock: KIFKEQ_clean_linker_1, # of connection points: 2
#     Edge 44, Type (0, 0), BuildingBlock: KIFKEQ_clean_linker_1, # of connection points: 2
#     Edge 45, Type (0, 0), BuildingBlock: KIFKEQ_clean_linker_1, # of connection points: 2
#     Edge 46, Type (0, 0), BuildingBlock: KIFKEQ_clean_linker_1, # of connection points: 2
#     Edge 47, Type (0, 0), BuildingBlock: KIFKEQ_clean_linker_1, # of connection points: 2
#     Edge 48, Type (0, 0), BuildingBlock: KIFKEQ_clean_linker_1, # of connection points: 2
#     Edge 49, Type (0, 0), BuildingBlock: KIFKEQ_clean_linker_1, # of connection points: 2
#     Edge 50, Type (0, 0), BuildingBlock: KIFKEQ_clean_linker_1, # of connection points: 2
#     Edge 51, Type (0, 0), BuildingBlock: KIFKEQ_clean_linker_1, # of connection points: 2
#     Edge 52, Type (0, 0), BuildingBlock: KIFKEQ_clean_linker_1, # of connection points: 2
#     Edge 53, Type (0, 0), BuildingBlock: KIFKEQ_clean_linker_1, # of connection points: 2
#     Edge 54, Type (0, 0), BuildingBlock: KIFKEQ_clean_linker_1, # of connection points: 2
#     Edge 55, Type (0, 0), BuildingBlock: KIFKEQ_clean_linker_1, # of connection points: 2
#     Edge 56, Type (0, 0), BuildingBlock: KIFKEQ_clean_linker_1, # of connection points: 2
#     Edge 57, Type (0, 0), BuildingBlock: KIFKEQ_clean_linker_1, # of connection points: 2
#     Edge 58, Type (0, 0), BuildingBlock: KIFKEQ_clean_linker_1, # of connection points: 2
#     Edge 59, Type (0, 0), BuildingBlock: KIFKEQ_clean_linker_1, # of connection points: 2
#     Edge 60, Type (0, 0), BuildingBlock: KIFKEQ_clean_linker_1, # of connection points: 2
#     Edge 61, Type (0, 0), BuildingBlock: KIFKEQ_clean_linker_1, # of connection points: 2
#     Edge 62, Type (0, 0), BuildingBlock: KIFKEQ_clean_linker_1, # of connection points: 2
#     Edge 63, Type (0, 0), BuildingBlock: KIFKEQ_clean_linker_1, # of connection points: 2
#     Edge 64, Type (0, 0), BuildingBlock: KIFKEQ_clean_linker_1, # of connection points: 2
#     Edge 65, Type (0, 0), BuildingBlock: KIFKEQ_clean_linker_1, # of connection points: 2
#     Edge 66, Type (0, 0), BuildingBlock: KIFKEQ_clean_linker_1, # of connection points: 2
#     Edge 67, Type (0, 0), BuildingBlock: KIFKEQ_clean_linker_1, # of connection points: 2
#     Edge 68, Type (0, 0), BuildingBlock: KIFKEQ_clean_linker_1, # of connection points: 2
#     Edge 69, Type (0, 0), BuildingBlock: KIFKEQ_clean_linker_1, # of connection points: 2
#     Edge 70, Type (0, 0), BuildingBlock: KIFKEQ_clean_linker_1, # of connection points: 2
#     Edge 71, Type (0, 0), BuildingBlock: KIFKEQ_clean_linker_1, # of connection points: 2
#     Edge 72, Type (0, 0), BuildingBlock: KIFKEQ_clean_linker_1, # of connection points: 2
#     Edge 73, Type (0, 0), BuildingBlock: KIFKEQ_clean_linker_1, # of connection points: 2
#     Edge 74, Type (0, 0), BuildingBlock: KIFKEQ_clean_linker_1, # of connection points: 2
#     Edge 75, Type (0, 0), BuildingBlock: KIFKEQ_clean_linker_1, # of connection points: 2
#     Edge 76, Type (0, 0), BuildingBlock: KIFKEQ_clean_linker_1, # of connection points: 2
#     Edge 77, Type (0, 0), BuildingBlock: KIFKEQ_clean_linker_1, # of connection points: 2
#     Edge 78, Type (0, 0), BuildingBlock: KIFKEQ_clean_linker_1, # of connection points: 2
#     Edge 79, Type (0, 0), BuildingBlock: KIFKEQ_clean_linker_1, # of connection points: 2
#     Edge 80, Type (0, 0), BuildingBlock: KIFKEQ_clean_linker_1, # of connection points: 2
#     Edge 81, Type (0, 0), BuildingBlock: KIFKEQ_clean_linker_1, # of connection points: 2
#     Edge 82, Type (0, 0), BuildingBlock: KIFKEQ_clean_linker_1, # of connection points: 2
#     Edge 83, Type (0, 0), BuildingBlock: KIFKEQ_clean_linker_1, # of connection points: 2
#     Edge 84, Type (0, 0), BuildingBlock: KIFKEQ_clean_linker_1, # of connection points: 2
#     Edge 85, Type (0, 0), BuildingBlock: KIFKEQ_clean_linker_1, # of connection points: 2
#     Edge 86, Type (0, 0), BuildingBlock: KIFKEQ_clean_linker_1, # of connection points: 2
#     Edge 87, Type (0, 0), BuildingBlock: KIFKEQ_clean_linker_1, # of connection points: 2
#     Edge 88, Type (0, 0), BuildingBlock: KIFKEQ_clean_linker_1, # of connection points: 2
#     Edge 89, Type (0, 0), BuildingBlock: KIFKEQ_clean_linker_1, # of connection points: 2
#     Edge 90, Type (0, 0), BuildingBlock: KIFKEQ_clean_linker_1, # of connection points: 2
#     Edge 91, Type (0, 0), BuildingBlock: KIFKEQ_clean_linker_1, # of connection points: 2
#     Edge 92, Type (0, 0), BuildingBlock: KIFKEQ_clean_linker_1, # of connection points: 2
#     Edge 93, Type (0, 0), BuildingBlock: KIFKEQ_clean_linker_1, # of connection points: 2
#     Edge 94, Type (0, 0), BuildingBlock: KIFKEQ_clean_linker_1, # of connection points: 2
#     Edge 95, Type (0, 0), BuildingBlock: KIFKEQ_clean_linker_1, # of connection points: 2
# Relax obj value: 0.083
# Max RMSD: 0.185
# Mean RMSD: 0.185
data_MOF--net-uke--node1-CEKHIL_clean_sbu_0--edge1-KIFKEQ_clean_linker_1
_symmetry_space_group_name_H-M    P1
_symmetry_Int_Tables_number       1
_symmetry_cell_setting            triclinic
loop_
_symmetry_equiv_pos_as_xyz
'x, y, z'
_cell_length_a     20.090102
_cell_length_b     110.97125
_cell_length_c     54.563682
_cell_angle_alpha  89.982824
_cell_angle_beta   89.987725
_cell_angle_gamma 90.001621
loop_
_atom_site_label
_atom_site_type_symbol
_atom_site_fract_x
_atom_site_fract_y
_atom_site_fract_z
_atom_type_partial_charge
Co0 Co 0.08373 0.05187 0.27363 0.0
O1 O 0.06637 0.05244 0.30785 0.0
O2 O 0.99095 0.05653 0.27952 0.0
C3 C 0.13619 0.03416 0.27364 0.0
O4 O 0.09125 0.05178 0.23604 0.0
Co5 Co 0.23449 0.05381 0.26202 0.0
O6 O 0.20133 0.0494 0.22892 0.0
C7 C 0.16252 0.07541 0.27601 0.0
C8 C 0.00662 0.05583 0.30273 0.0
C9 C 0.14117 0.04996 0.22143 0.0
O10 O 0.10902 0.06923 0.27438 0.0
O11 O 0.22071 0.07081 0.27418 0.0
O12 O 0.07168 0.03458 0.27299 0.0
O13 O 0.1658 0.04432 0.27787 0.0
Co14 Co 0.15009 0.18709 0.27583 0.0
O15 O 0.16584 0.18878 0.30999 0.0
O16 O 0.2419 0.18255 0.28358 0.0
C17 C 0.09949 0.20477 0.27096 0.0
O18 O 0.14548 0.18476 0.23844 0.0
Co19 Co 0.00189 0.18479 0.26195 0.0
O20 O 0.03804 0.18853 0.22901 0.0
C21 C 0.06962 0.16378 0.28192 0.0
C22 C 0.22543 0.18487 0.30627 0.0
C23 C 0.09845 0.18682 0.22274 0.0
O24 O 0.12297 0.17004 0.28138 0.0
O25 O 0.01272 0.16809 0.27608 0.0
O26 O 0.16396 0.20409 0.27059 0.0
O27 O 0.06822 0.19505 0.27743 0.0
Co28 Co 0.08922 0.18779 0.98588 0.0
O29 O 0.07309 0.19092 0.95222 0.0
O30 O 0.997 0.18361 0.97736 0.0
C31 C 0.13965 0.20539 0.99323 0.0
O32 O 0.09496 0.18411 0.02286 0.0
Co33 Co 0.2381 0.18483 0.99739 0.0
O34 O 0.20454 0.18578 0.03137 0.0
C35 C 0.16811 0.16451 0.97601 0.0
C36 C 0.01312 0.18711 0.95527 0.0
C37 C 0.14428 0.18441 0.03819 0.0
O38 O 0.11549 0.17093 0.97769 0.0
O39 O 0.22577 0.16854 0.98165 0.0
O40 O 0.07532 0.20451 0.99377 0.0
O41 O 0.17104 0.19597 0.98517 0.0
Co42 Co 0.15098 0.0526 0.98415 0.0
O43 O 0.16709 0.05356 0.94987 0.0
O44 O 0.24359 0.05724 0.97801 0.0
C45 C 0.0989 0.0348 0.98326 0.0
O46 O 0.14504 0.05205 0.02176 0.0
Co47 Co 0.0008 0.05445 0.99664 0.0
O48 O 0.03514 0.04975 0.02939 0.0
C49 C 0.07239 0.07618 0.98301 0.0
C50 C 0.22737 0.0567 0.95485 0.0
C51 C 0.09561 0.05015 0.03657 0.0
O52 O 0.12584 0.06997 0.98438 0.0
O53 O 0.01424 0.07156 0.98481 0.0
O54 O 0.16335 0.03535 0.9836 0.0
O55 O 0.06862 0.04501 0.98014 0.0
Co56 Co 0.9036 0.93498 0.73661 0.0
O57 O 0.92122 0.93716 0.70269 0.0
O58 O 0.99737 0.93147 0.7295 0.0
C59 C 0.84716 0.95209 0.74183 0.0
O60 O 0.8963 0.93227 0.77384 0.0
Co61 Co 0.7545 0.93086 0.74708 0.0
O62 O 0.78573 0.93258 0.78135 0.0
C63 C 0.83145 0.91104 0.72725 0.0
C64 C 0.98161 0.9338 0.70674 0.0
C65 C 0.84599 0.9322 0.78873 0.0
O66 O 0.88279 0.91767 0.73029 0.0
O67 O 0.77215 0.91487 0.73076 0.0
O68 O 0.91168 0.95203 0.74272 0.0
O69 O 0.81959 0.9422 0.73431 0.0
Co70 Co 0.83444 0.79916 0.73476 0.0
O71 O 0.81398 0.79627 0.70123 0.0
O72 O 0.74169 0.80344 0.72809 0.0
C73 C 0.88679 0.78173 0.74103 0.0
O74 O 0.84347 0.80266 0.77166 0.0
Co75 Co 0.98376 0.80219 0.74577 0.0
O76 O 0.9523 0.79962 0.77982 0.0
C77 C 0.91228 0.82244 0.72449 0.0
C78 C 0.75478 0.80023 0.70556 0.0
C79 C 0.89247 0.80131 0.78685 0.0
O80 O 0.85962 0.81606 0.72662 0.0
O81 O 0.97025 0.81839 0.72966 0.0
O82 O 0.82239 0.78234 0.74246 0.0
O83 O 0.9166 0.79127 0.73279 0.0
Co84 Co 0.89316 0.80377 0.02445 0.0
O85 O 0.90957 0.80137 0.05844 0.0
O86 O 0.98456 0.8085 0.03263 0.0
C87 C 0.8453 0.78584 0.01848 0.0
O88 O 0.88793 0.8067 0.98709 0.0
Co89 Co 0.74461 0.8057 0.01139 0.0
O90 O 0.77987 0.80352 0.97798 0.0
C91 C 0.8109 0.82692 0.0308 0.0
C92 C 0.96903 0.80538 0.05501 0.0
C93 C 0.83988 0.80538 0.97142 0.0
O94 O 0.86424 0.82064 0.03141 0.0
O95 O 0.75485 0.82269 0.02378 0.0
O96 O 0.90951 0.78699 0.01797 0.0
O97 O 0.81232 0.79527 0.0256 0.0
Co98 Co 0.85841 0.93558 0.02717 0.0
O99 O 0.84734 0.93694 0.06176 0.0
O100 O 0.7693 0.93028 0.03659 0.0
C101 C 0.90329 0.95375 0.02146 0.0
O102 O 0.85694 0.93353 0.98958 0.0
Co103 Co 0.00363 0.93471 0.00904 0.0
O104 O 0.96032 0.93886 0.97763 0.0
C105 C 0.94475 0.91278 0.02883 0.0
C106 C 0.78806 0.93266 0.05899 0.0
C107 C 0.89971 0.93645 0.97281 0.0
O108 O 0.89081 0.91872 0.0317 0.0
O109 O 0.99821 0.91742 0.02027 0.0
O110 O 0.83922 0.95246 0.02279 0.0
O111 O 0.93844 0.9443 0.0269 0.0
Co112 Co 0.07946 0.54927 0.77744 0.0
O113 O 0.06248 0.54666 0.81135 0.0
O114 O 0.9881 0.5539 0.78531 0.0
C115 C 0.12964 0.53162 0.77093 0.0
O116 O 0.08421 0.55251 0.74032 0.0
Co117 Co 0.22756 0.55167 0.76361 0.0
O118 O 0.19126 0.54882 0.73038 0.0
C119 C 0.16065 0.5724 0.78516 0.0
C120 C 0.0033 0.55081 0.80773 0.0
C121 C 0.1309 0.55077 0.72435 0.0
O122 O 0.10726 0.56614 0.78474 0.0
O123 O 0.21713 0.5682 0.77847 0.0
O124 O 0.06517 0.53241 0.77045 0.0
O125 O 0.16108 0.54116 0.77831 0.0
Co126 Co 0.15566 0.68402 0.7769 0.0
O127 O 0.16742 0.68549 0.81138 0.0
O128 O 0.24662 0.67958 0.78591 0.0
C129 C 0.10507 0.70174 0.77177 0.0
O130 O 0.15589 0.68192 0.7394 0.0
Co131 Co 0.0094 0.68162 0.76046 0.0
O132 O 0.04948 0.68547 0.72824 0.0
C133 C 0.0751 0.66067 0.78164 0.0
C134 C 0.22768 0.68175 0.80839 0.0
C135 C 0.11072 0.68391 0.72295 0.0
O136 O 0.12856 0.66691 0.78164 0.0
O137 O 0.0188 0.66497 0.77497 0.0
O138 O 0.16951 0.70106 0.77252 0.0
O139 O 0.07329 0.69191 0.7772 0.0
Co140 Co 0.09675 0.68454 0.48808 0.0
O141 O 0.07196 0.68876 0.45555 0.0
O142 O 0.00344 0.68032 0.48236 0.0
C143 C 0.14823 0.70191 0.49622 0.0
O144 O 0.10987 0.67978 0.52422 0.0
Co145 Co 0.24694 0.68159 0.49637 0.0
O146 O 0.21981 0.68196 0.53119 0.0
C147 C 0.17557 0.66207 0.47252 0.0
C148 C 0.01344 0.68463 0.46038 0.0
C149 C 0.16064 0.6802 0.53884 0.0
O150 O 0.1223 0.66808 0.47652 0.0
O151 O 0.23344 0.66606 0.47796 0.0
O152 O 0.08425 0.70094 0.49875 0.0
O153 O 0.17802 0.69283 0.48599 0.0
Co154 Co 0.15699 0.55293 0.48999 0.0
O155 O 0.18707 0.54928 0.45771 0.0
O156 O 0.25029 0.5575 0.48657 0.0
C157 C 0.10533 0.53538 0.49618 0.0
O158 O 0.13914 0.55718 0.52608 0.0
Co159 Co 0.00582 0.55551 0.49641 0.0
O160 O 0.02888 0.5547 0.53163 0.0
C161 C 0.07841 0.57531 0.47395 0.0
C162 C 0.24412 0.55359 0.46413 0.0
C163 C 0.08723 0.55646 0.54007 0.0
O164 O 0.13171 0.56947 0.47881 0.0
O165 O 0.02029 0.57114 0.47837 0.0
O166 O 0.16891 0.53639 0.4999 0.0
O167 O 0.07648 0.54459 0.48608 0.0
Co168 Co 0.90673 0.43661 0.23101 0.0
O169 O 0.92746 0.43791 0.19711 0.0
O170 O -0.00157 0.43134 0.22507 0.0
C171 C 0.85938 0.45469 0.23469 0.0
O172 O 0.89621 0.43461 0.26841 0.0
Co173 Co 0.75572 0.43537 0.24131 0.0
O174 O 0.78699 0.43797 0.27529 0.0
C175 C 0.82181 0.41398 0.22263 0.0
C176 C 0.98534 0.43352 0.20203 0.0
C177 C 0.84618 0.43633 0.28305 0.0
O178 O 0.87655 0.41972 0.22517 0.0
O179 O 0.76495 0.41874 0.22684 0.0
O180 O 0.92357 0.45356 0.2361 0.0
O181 O 0.82715 0.44515 0.22777 0.0
Co182 Co 0.83077 0.30257 0.2373 0.0
O183 O 0.81351 0.29966 0.20355 0.0
O184 O 0.73796 0.30644 0.22969 0.0
C185 C 0.88359 0.28518 0.24378 0.0
O186 O 0.83594 0.30579 0.27439 0.0
Co187 Co 0.97886 0.306 0.24989 0.0
O188 O 0.94543 0.30525 0.28391 0.0
C189 C 0.90783 0.32595 0.2274 0.0
C190 C 0.75314 0.30311 0.20743 0.0
C191 C 0.88435 0.30589 0.29007 0.0
O192 O 0.85509 0.31958 0.2295 0.0
O193 O 0.96555 0.322 0.23317 0.0
O194 O 0.81916 0.28576 0.24449 0.0
O195 O 0.9139 0.29483 0.23622 0.0
Co196 Co 0.91888 0.29966 0.52639 0.0
O197 O 0.93973 0.29871 0.56026 0.0
O198 O 0.01239 0.30407 0.53194 0.0
C199 C 0.86632 0.2819 0.52471 0.0
O200 O 0.90761 0.30111 0.48897 0.0
Co201 Co 0.76782 0.30219 0.51722 0.0
O202 O 0.79698 0.29892 0.48321 0.0
C203 C 0.84207 0.32345 0.53214 0.0
C204 C -0.00073 0.30219 0.5551 0.0
C205 C 0.85608 0.29989 0.47486 0.0
O206 O 0.8945 0.31698 0.53047 0.0
O207 O 0.78345 0.31914 0.5294 0.0
O208 O 0.93059 0.28248 0.52286 0.0
O209 O 0.83696 0.29189 0.53063 0.0
Co210 Co 0.8369 0.43668 0.5211 0.0
O211 O 0.8205 0.43746 0.55539 0.0
O212 O 0.74436 0.43223 0.52824 0.0
C213 C 0.8888 0.45447 0.51862 0.0
O214 O 0.8427 0.43546 0.48349 0.0
Co215 Co 0.98602 0.4343 0.50846 0.0
O216 O 0.95189 0.43819 0.47532 0.0
C217 C 0.91522 0.41303 0.52543 0.0
C218 C 0.76035 0.434 0.55119 0.0
C219 C 0.89153 0.43719 0.46833 0.0
O220 O 0.8622 0.41938 0.52447 0.0
O221 O 0.97317 0.41744 0.52163 0.0
O222 O 0.82437 0.45384 0.51807 0.0
O223 O 0.9193 0.44449 0.52385 0.0
Co224 Co 0.58788 0.05085 0.77434 0.0
O225 O 0.56868 0.04779 0.80795 0.0
O226 O 0.49716 0.05597 0.782 0.0
C227 C 0.63436 0.03293 0.76708 0.0
O228 O 0.59514 0.05464 0.73747 0.0
Co229 Co 0.73664 0.05254 0.7615 0.0
O230 O 0.70156 0.05017 0.72795 0.0
C231 C 0.67363 0.07316 0.78486 0.0
C232 C 0.51055 0.05238 0.80427 0.0
C233 C 0.64201 0.05266 0.72168 0.0
O234 O 0.6189 0.06735 0.78318 0.0
O235 O 0.72953 0.06875 0.77809 0.0
O236 O 0.5702 0.03424 0.76622 0.0
O237 O 0.66772 0.04214 0.77508 0.0
Co238 Co 0.65718 0.1837 0.77477 0.0
O239 O 0.68505 0.18714 0.80741 0.0
O240 O 0.75084 0.17948 0.77868 0.0
C241 C 0.60421 0.20111 0.76866 0.0
O242 O 0.64164 0.17968 0.73844 0.0
Co243 Co 0.50686 0.18061 0.76735 0.0
O244 O 0.53126 0.1816 0.73228 0.0
C245 C 0.58109 0.16064 0.78846 0.0
C246 C 0.74298 0.18315 0.80122 0.0
C247 C 0.59021 0.18013 0.72418 0.0
O248 O 0.63351 0.16695 0.78493 0.0
O249 O 0.52262 0.16459 0.78378 0.0
O250 O 0.66807 0.2003 0.76553 0.0
O251 O 0.57544 0.19179 0.77841 0.0
Co252 Co 0.58811 0.18527 0.48757 0.0
O253 O 0.57147 0.18922 0.45418 0.0
O254 O 0.49557 0.18175 0.47934 0.0
C255 C 0.64292 0.20217 0.49679 0.0
O256 O 0.59206 0.18072 0.52406 0.0
Co257 Co 0.73551 0.18094 0.49997 0.0
O258 O 0.70119 0.18071 0.53394 0.0
C259 C 0.66302 0.1619 0.47502 0.0
C260 C 0.51134 0.18542 0.45734 0.0
C261 C 0.63994 0.17993 0.53985 0.0
O262 O 0.61108 0.16845 0.47757 0.0
O263 O 0.72099 0.16543 0.48151 0.0
O264 O 0.57833 0.2019 0.49722 0.0
O265 O 0.67187 0.19273 0.48769 0.0
Co266 Co 0.6562 0.05312 0.48578 0.0
O267 O 0.67622 0.04931 0.4526 0.0
O268 O 0.74651 0.05842 0.47768 0.0
C269 C 0.612 0.03521 0.49494 0.0
O270 O 0.64747 0.05771 0.52224 0.0
Co271 Co 0.50635 0.05457 0.49683 0.0
O272 O 0.53867 0.05503 0.53101 0.0
C273 C 0.56839 0.07487 0.47235 0.0
C274 C 0.73374 0.05421 0.45582 0.0
C275 C 0.59831 0.05723 0.53761 0.0
O276 O 0.62354 0.0693 0.47522 0.0
O277 O 0.51241 0.07037 0.47874 0.0
O278 O 0.67592 0.03685 0.49574 0.0
O279 O 0.57767 0.044 0.48565 0.0
Co280 Co 0.42203 0.938 0.2387 0.0
O281 O 0.44095 0.9399 0.20479 0.0
O282 O 0.51511 0.93387 0.23208 0.0
C283 C 0.36845 0.95549 0.24296 0.0
O284 O 0.41387 0.93564 0.27599 0.0
Co285 Co 0.27196 0.93493 0.24977 0.0
O286 O 0.30403 0.93783 0.28362 0.0
C287 C 0.34538 0.91444 0.23045 0.0
C288 C 0.5009 0.93639 0.20927 0.0
C289 C 0.3641 0.9368 0.29093 0.0
O290 O 0.39802 0.92081 0.23288 0.0
O291 O 0.28695 0.91863 0.23432 0.0
O292 O 0.43294 0.95509 0.24395 0.0
O293 O 0.33934 0.94559 0.23627 0.0
Co294 Co 0.33637 0.80177 0.23455 0.0
O295 O 0.31783 0.80051 0.20049 0.0
O296 O 0.24375 0.80633 0.22799 0.0
C297 C 0.38814 0.78409 0.23817 0.0
O298 O 0.34468 0.80364 0.27198 0.0
Co299 Co 0.4865 0.80429 0.24539 0.0
O300 O 0.45467 0.80153 0.27933 0.0
C301 C 0.41505 0.82525 0.22759 0.0
C302 C 0.25862 0.80439 0.205 0.0
C303 C 0.39474 0.80251 0.28683 0.0
O304 O 0.36207 0.81896 0.2297 0.0
O305 O 0.47321 0.82088 0.23104 0.0
O306 O 0.32368 0.78467 0.23913 0.0
O307 O 0.41821 0.79391 0.23158 0.0
Co308 Co 0.39443 0.80213 0.52481 0.0
O309 O 0.41087 0.80071 0.55902 0.0
O310 O 0.48578 0.80709 0.53231 0.0
C311 C 0.3467 0.7841 0.52046 0.0
O312 O 0.38899 0.80417 0.48728 0.0
Co313 Co 0.24609 0.80395 0.51174 0.0
O314 O 0.28103 0.8006 0.47855 0.0
C315 C 0.31117 0.82507 0.53189 0.0
C316 C 0.46989 0.80484 0.55509 0.0
C317 C 0.3412 0.80218 0.47182 0.0
O318 O 0.36529 0.81908 0.5303 0.0
O319 O 0.25442 0.82059 0.52642 0.0
O320 O 0.41093 0.78524 0.52 0.0
O321 O 0.31361 0.79368 0.52671 0.0
Co322 Co 0.35408 0.93676 0.528 0.0
O323 O 0.3346 0.93956 0.56164 0.0
O324 O 0.25987 0.93356 0.53452 0.0
C325 C 0.41197 0.95362 0.52222 0.0
O326 O 0.36221 0.93367 0.49086 0.0
Co327 Co 0.50175 0.93204 0.51734 0.0
O328 O 0.4722 0.93536 0.48344 0.0
C329 C 0.42271 0.91235 0.53688 0.0
C330 C 0.27401 0.93644 0.55715 0.0
C331 C 0.41222 0.93463 0.47596 0.0
O332 O 0.37285 0.91947 0.53548 0.0
O333 O 0.48196 0.91567 0.53157 0.0
O334 O 0.34751 0.95368 0.52091 0.0
O335 O 0.43896 0.94378 0.53042 0.0
Co336 Co 0.58862 0.55136 0.27878 0.0
O337 O 0.5775 0.54949 0.31314 0.0
O338 O 0.49656 0.55509 0.28819 0.0
C339 C 0.64249 0.53396 0.27329 0.0
O340 O 0.58884 0.55358 0.24133 0.0
Co341 Co 0.73567 0.55477 0.26348 0.0
O342 O 0.69685 0.55099 0.23096 0.0
C343 C 0.66426 0.57522 0.28399 0.0
C344 C 0.51602 0.55251 0.31044 0.0
C345 C 0.63552 0.55203 0.22523 0.0
O346 O 0.61193 0.56866 0.2835 0.0
O347 O 0.72218 0.5712 0.27864 0.0
O348 O 0.57802 0.53425 0.27411 0.0
O349 O 0.67233 0.54395 0.27897 0.0
Co350 Co 0.66138 0.68703 0.27768 0.0
O351 O 0.68243 0.69039 0.31093 0.0
O352 O 0.75456 0.68293 0.28427 0.0
C353 C 0.60916 0.70447 0.27072 0.0
O354 O 0.65117 0.68314 0.24099 0.0
Co355 Co 0.51116 0.68385 0.26836 0.0
O356 O 0.54094 0.68485 0.23385 0.0
C357 C 0.58416 0.66386 0.28981 0.0
C358 C 0.74189 0.68661 0.30653 0.0
C359 C 0.60053 0.68349 0.22627 0.0
O360 O 0.63662 0.67021 0.28675 0.0
O361 O 0.5258 0.66788 0.28517 0.0
O362 O 0.67346 0.70375 0.2692 0.0
O363 O 0.57934 0.69503 0.27947 0.0
Co364 Co 0.5882 0.68675 0.98934 0.0
O365 O 0.56822 0.68988 0.95589 0.0
O366 O 0.49516 0.68276 0.98255 0.0
C367 C 0.64162 0.70403 0.99594 0.0
O368 O 0.59654 0.68311 0.0262 0.0
Co369 Co 0.73656 0.68323 1.00059 0.0
O370 O 0.70515 0.68624 0.03442 0.0
C371 C 0.66408 0.66329 0.97873 0.0
C372 C 0.50868 0.68605 0.96009 0.0
C373 C 0.64527 0.68463 0.04143 0.0
O374 O 0.61203 0.66984 0.98067 0.0
O375 O 0.72207 0.66703 0.9847 0.0
O376 O 0.57722 0.70351 0.99743 0.0
O377 O 0.67107 0.69449 0.98748 0.0
Co378 Co 0.64715 0.55352 0.98863 0.0
O379 O 0.66737 0.55172 0.95483 0.0
O380 O 0.73878 0.55872 0.9822 0.0
C381 C 0.60042 0.53541 0.99316 0.0
O382 O 0.63708 0.55606 0.02587 0.0
Co383 Co 0.49681 0.55506 0.99876 0.0
O384 O 0.5274 0.55342 0.03303 0.0
C385 C 0.56281 0.57603 0.97848 0.0
C386 C 0.7253 0.55619 0.95934 0.0
C387 C 0.58681 0.55498 0.04063 0.0
O388 O 0.61719 0.57029 0.98176 0.0
O389 O 0.50573 0.57141 0.98288 0.0
O390 O 0.66446 0.53673 0.99463 0.0
O391 O 0.56748 0.54482 0.98589 0.0
Co392 Co 0.39825 0.43401 0.73338 0.0
O393 O 0.40752 0.4352 0.69864 0.0
O394 O 0.48882 0.42977 0.72358 0.0
C395 C 0.34646 0.45166 0.73809 0.0
O396 O 0.40234 0.43236 0.77105 0.0
Co397 Co 0.25486 0.43164 0.7529 0.0
O398 O 0.29818 0.43665 0.78375 0.0
C399 C 0.32115 0.41019 0.73387 0.0
C400 C 0.46864 0.43185 0.70122 0.0
C401 C 0.35972 0.4349 0.78812 0.0
O402 O 0.37232 0.41675 0.72989 0.0
O403 O 0.26677 0.41429 0.74278 0.0
O404 O 0.41085 0.45113 0.7367 0.0
O405 O 0.3149 0.44168 0.73374 0.0
Co406 Co 0.36531 0.30156 0.73521 0.0
O407 O 0.35574 0.30009 0.70051 0.0
O408 O 0.27742 0.30714 0.72512 0.0
C409 C 0.40833 0.28323 0.74122 0.0
O410 O 0.36148 0.30382 0.77268 0.0
Co411 Co 0.50909 0.30189 0.75498 0.0
O412 O 0.46293 0.29815 0.78604 0.0
C413 C 0.45371 0.32407 0.73475 0.0
C414 C 0.29666 0.30454 0.70288 0.0
C415 C 0.40238 0.30093 0.79005 0.0
O416 O 0.39973 0.31828 0.73082 0.0
O417 O 0.50565 0.31926 0.74415 0.0
O418 O 0.34444 0.28473 0.73956 0.0
O419 O 0.44452 0.29261 0.73625 0.0
Co420 Co 0.40519 0.30368 0.02417 0.0
O421 O 0.42821 0.2995 0.0569 0.0
O422 O 0.49903 0.30732 0.03013 0.0
C423 C 0.3502 0.28665 0.01623 0.0
O424 O 0.39443 0.30831 0.98788 0.0
Co425 Co 0.2562 0.30767 0.01496 0.0
O426 O 0.28436 0.30713 0.98025 0.0
C427 C 0.33069 0.32672 0.03903 0.0
C428 C 0.48759 0.30325 0.05219 0.0
C429 C 0.34429 0.30832 0.97297 0.0
O430 O 0.38281 0.32036 0.03523 0.0
O431 O 0.2722 0.32309 0.03345 0.0
O432 O 0.41443 0.28715 0.01392 0.0
O433 O 0.32208 0.296 0.0261 0.0
Co434 Co 0.35415 0.43548 0.02337 0.0
O435 O 0.33183 0.43937 0.05633 0.0
O436 O 0.26169 0.43101 0.03014 0.0
C437 C 0.40454 0.45292 0.01512 0.0
O438 O 0.36485 0.43096 0.98694 0.0
Co439 Co 0.50402 0.43269 0.01373 0.0
O440 O 0.47458 0.43293 0.97916 0.0
C441 C 0.43495 0.41311 0.03812 0.0
C442 C 0.27341 0.43499 0.05227 0.0
C443 C 0.4149 0.43127 0.97196 0.0
O444 O 0.38128 0.419 0.03424 0.0
O445 O 0.49246 0.41718 0.03243 0.0
O446 O 0.34034 0.45194 0.01329 0.0
O447 O 0.43519 0.4438 0.02481 0.0
H448 H 0.2064 0.05606 0.0642 0.0
H449 H 0.0077 0.04139 0.07008 0.0
H450 H 0.21582 0.05571 0.109 0.0
H451 H 0.01734 0.041 0.11431 0.0
H452 H 0.02974 0.05533 0.19365 0.0
H453 H 0.02072 0.05501 0.14885 0.0
H454 H 0.22233 0.04178 0.1436 0.0
H455 H 0.23163 0.04215 0.18782 0.0
C456 C 0.1652 0.05263 0.07494 0.0
C457 C 0.10625 0.04885 0.06344 0.0
C458 C 0.17043 0.05244 0.10062 0.0
C459 C 0.11684 0.04847 0.11529 0.0
C460 C 0.05889 0.04438 0.10369 0.0
C461 C 0.05372 0.04453 0.0782 0.0
C462 C 0.07181 0.05225 0.18293 0.0
C463 C 0.13142 0.04886 0.19447 0.0
C464 C 0.06677 0.05208 0.15725 0.0
C465 C 0.12121 0.0485 0.14259 0.0
C466 C 0.18001 0.04484 0.15422 0.0
C467 C 0.185 0.04498 0.17971 0.0
H468 H 0.02791 0.18678 0.06522 0.0
H469 H 0.23832 0.17947 0.07247 0.0
H470 H 0.01766 0.18673 0.11003 0.0
H471 H 0.22881 0.17996 0.11644 0.0
H472 H 0.18513 0.17252 0.19676 0.0
H473 H 0.19152 0.17049 0.15215 0.0
H474 H 0.04652 0.19901 0.14404 0.0
H475 H 0.0386 0.20064 0.18835 0.0
C476 C 0.07171 0.18509 0.07627 0.0
C477 C 0.13389 0.18327 0.06512 0.0
C478 C 0.06616 0.18518 0.10197 0.0
C479 C 0.12265 0.18345 0.11702 0.0
C480 C 0.18403 0.1812 0.1057 0.0
C481 C 0.18948 0.18105 0.08025 0.0
C482 C 0.15556 0.17845 0.18536 0.0
C483 C 0.11158 0.18674 0.19603 0.0
C484 C 0.15881 0.17728 0.15977 0.0
C485 C 0.11882 0.1845 0.14432 0.0
C486 C 0.07664 0.19306 0.15518 0.0
C487 C 0.07284 0.19412 0.18064 0.0
H488 H 0.94837 0.95129 0.93788 0.0
H489 H 0.81406 0.92136 0.94807 0.0
H490 H 0.93708 0.94953 0.8937 0.0
H491 H 0.80368 0.91936 0.90348 0.0
H492 H 0.75176 0.92758 0.82333 0.0
H493 H 0.76117 0.92868 0.8674 0.0
H494 H 0.9708 0.93668 0.86052 0.0
H495 H 0.96092 0.93595 0.81576 0.0
C496 C 0.91584 0.94437 0.9306 0.0
C497 C 0.88198 0.93646 0.94646 0.0
C498 C 0.91012 0.94326 0.90522 0.0
C499 C 0.87062 0.93415 0.89488 0.0
C500 C 0.83448 0.92651 0.91077 0.0
C501 C 0.83993 0.92769 0.93633 0.0
C502 C 0.80021 0.92956 0.83105 0.0
C503 C 0.85559 0.93181 0.8158 0.0
C504 C 0.80557 0.93008 0.85651 0.0
C505 C 0.86652 0.93284 0.86767 0.0
C506 C 0.92266 0.93473 0.85254 0.0
C507 C 0.91728 0.93421 0.82687 0.0
H508 H 0.95893 0.80566 0.94532 0.0
H509 H 0.74527 0.80662 0.93595 0.0
H510 H 0.97203 0.80554 0.90057 0.0
H511 H 0.75813 0.806 0.89221 0.0
H512 H 0.79681 0.81394 0.8123 0.0
H513 H 0.78865 0.81641 0.85675 0.0
H514 H 0.95646 0.79249 0.86643 0.0
H515 H 0.96585 0.79044 0.82227 0.0
C516 C 0.91496 0.80588 0.93385 0.0
C517 C 0.85122 0.80605 0.94444 0.0
C518 C 0.92227 0.80572 0.90819 0.0
C519 C 0.86601 0.80572 0.89261 0.0
C520 C 0.80271 0.80618 0.90335 0.0
C521 C 0.79546 0.80639 0.92872 0.0
C522 C 0.83145 0.80915 0.82398 0.0
C523 C 0.88182 0.802 0.81374 0.0
C524 C 0.82704 0.81057 0.8495 0.0
C525 C 0.8723 0.80471 0.86536 0.0
C526 C 0.92179 0.79739 0.85496 0.0
C527 C 0.92664 0.7961 0.82956 0.0
H528 H 0.03493 0.56391 0.69987 0.0
H529 H 0.19779 0.53917 0.68836 0.0
H530 H 0.02542 0.56667 0.65537 0.0
H531 H 0.18756 0.54166 0.64439 0.0
H532 H 0.20157 0.55677 0.56813 0.0
H533 H 0.20929 0.5561 0.61283 0.0
H534 H 0.99474 0.55674 0.61801 0.0
H535 H 0.98701 0.55778 0.57377 0.0
C536 C 0.0678 0.55892 0.68786 0.0
C537 C 0.11729 0.55139 0.69765 0.0
C538 C 0.06267 0.56052 0.66237 0.0
C539 C 0.10665 0.55456 0.64623 0.0
C540 C 0.15424 0.54669 0.65616 0.0
C541 C 0.15958 0.54516 0.68145 0.0
C542 C 0.15616 0.55693 0.57882 0.0
C543 C 0.0938 0.55722 0.56721 0.0
C544 C 0.16045 0.55644 0.60447 0.0
C545 C 0.1025 0.55622 0.6191 0.0
C546 C 0.0404 0.55698 0.60747 0.0
C547 C 0.0361 0.55749 0.58194 0.0
H548 H 0.05192 0.69726 0.68763 0.0
H549 H 0.20354 0.67022 0.69832 0.0
H550 H 0.06297 0.6953 0.6435 0.0
H551 H 0.21368 0.66797 0.65376 0.0
H552 H 0.25804 0.67676 0.57287 0.0
H553 H 0.24934 0.6776 0.61704 0.0
H554 H 0.0361 0.6817 0.61103 0.0
H555 H 0.04511 0.68129 0.5663 0.0
C556 C 0.08806 0.69092 0.68047 0.0
C557 C 0.1269 0.68388 0.69646 0.0
C558 C 0.09374 0.68968 0.65512 0.0
C559 C 0.13811 0.68129 0.64493 0.0
C560 C 0.17899 0.67455 0.66092 0.0
C561 C 0.17361 0.67587 0.68646 0.0
C562 C 0.20898 0.67778 0.58084 0.0
C563 C 0.15221 0.67911 0.56586 0.0
C564 C 0.20408 0.67816 0.60634 0.0
C565 C 0.14221 0.67984 0.61775 0.0
C566 C 0.08487 0.68064 0.60286 0.0
C567 C 0.0898 0.68028 0.5772 0.0
H568 H 0.97498 0.4465 0.43398 0.0
H569 H 0.7844 0.42881 0.44138 0.0
H570 H 0.9653 0.44581 0.38977 0.0
H571 H 0.77505 0.42799 0.3966 0.0
H572 H 0.75068 0.44072 0.31739 0.0
H573 H 0.76017 0.44083 0.36145 0.0
H574 H 0.96879 0.43191 0.35556 0.0
H575 H 0.95972 0.432 0.31072 0.0
C576 C 0.93079 0.44243 0.42618 0.0
C577 C 0.88046 0.43765 0.44137 0.0
C578 C 0.92566 0.44195 0.4007 0.0
C579 C 0.86999 0.4367 0.3895 0.0
C580 C 0.81865 0.43216 0.40461 0.0
C581 C 0.82377 0.43265 0.43028 0.0
C582 C 0.79892 0.43874 0.32525 0.0
C583 C 0.85463 0.43634 0.31023 0.0
C584 C 0.80404 0.43872 0.35073 0.0
C585 C 0.86498 0.43631 0.36219 0.0
C586 C 0.92103 0.43391 0.34732 0.0
C587 C 0.9159 0.43392 0.32161 0.0
H588 H 0.95078 0.31904 0.32385 0.0
H589 H 0.79239 0.29308 0.31638 0.0
H590 H 0.94536 0.31726 0.36828 0.0
H591 H 0.78865 0.29078 0.36091 0.0
H592 H 0.7558 0.29759 0.44163 0.0
H593 H 0.75963 0.29965 0.39783 0.0
H594 H 0.97299 0.30441 0.40113 0.0
H595 H 0.96872 0.30292 0.44592 0.0
C596 C 0.91416 0.31304 0.33184 0.0
C597 C 0.87137 0.30631 0.31672 0.0
C598 C 0.91181 0.31185 0.35732 0.0
C599 C 0.86732 0.30374 0.3684 0.0
C600 C 0.82313 0.29724 0.35319 0.0
C601 C 0.82481 0.29858 0.32763 0.0
C602 C 0.80399 0.29905 0.43325 0.0
C603 C 0.86212 0.30016 0.44761 0.0
C604 C 0.80608 0.30013 0.40783 0.0
C605 C 0.86646 0.30221 0.39566 0.0
C606 C 0.92519 0.30303 0.40985 0.0
C607 C 0.92301 0.30205 0.43555 0.0
H608 H 0.70066 0.03948 0.68607 0.0
H609 H 0.55785 0.06803 0.6969 0.0
H610 H 0.6934 0.04211 0.642 0.0
H611 H 0.55202 0.07103 0.65244 0.0
H612 H 0.50473 0.06295 0.57159 0.0
H613 H 0.51394 0.06238 0.61571 0.0
H614 H 0.72448 0.05501 0.60931 0.0
H615 H 0.71445 0.05507 0.56455 0.0
C616 C 0.66752 0.04635 0.67895 0.0
C617 C 0.62966 0.05354 0.69496 0.0
C618 C 0.66407 0.04797 0.65362 0.0
C619 C 0.62314 0.05694 0.64348 0.0
C620 C 0.58392 0.06398 0.65951 0.0
C621 C 0.58687 0.06225 0.685 0.0
C622 C 0.55335 0.06128 0.57948 0.0
C623 C 0.60878 0.05886 0.5644 0.0
C624 C 0.55865 0.06107 0.60495 0.0
C625 C 0.6197 0.0585 0.61628 0.0
C626 C 0.6762 0.05675 0.60125 0.0
C627 C 0.6708 0.05693 0.57556 0.0
H628 H 0.70442 0.18173 0.6963 0.0
H629 H 0.49214 0.17606 0.69066 0.0
H630 H 0.71297 0.18108 0.65162 0.0
H631 H 0.50091 0.1751 0.64641 0.0
H632 H 0.53184 0.18775 0.56653 0.0
H633 H 0.51985 0.18742 0.61122 0.0
H634 H 0.70525 0.16789 0.61731 0.0
H635 H 0.71785 0.16855 0.57309 0.0
C636 C 0.65979 0.1802 0.6856 0.0
C637 C 0.59771 0.17899 0.69716 0.0
C638 C 0.66458 0.1798 0.65996 0.0
C639 C 0.60747 0.17808 0.6453 0.0
C640 C 0.54572 0.17667 0.65697 0.0
C641 C 0.54089 0.17714 0.68247 0.0
C642 C 0.56931 0.18324 0.57746 0.0
C643 C 0.6259 0.17826 0.5663 0.0
C644 C 0.56267 0.18306 0.60308 0.0
C645 C 0.6122 0.17778 0.61799 0.0
C646 C 0.66708 0.17232 0.60658 0.0
C647 C 0.67394 0.1726 0.58115 0.0
H648 H 0.50469 0.94051 0.44156 0.0
H649 H 0.29917 0.92949 0.44873 0.0
H650 H 0.494 0.94075 0.39751 0.0
H651 H 0.28887 0.92951 0.40393 0.0
H652 H 0.27625 0.94425 0.3257 0.0
H653 H 0.28644 0.94329 0.36985 0.0
H654 H 0.48309 0.92799 0.3623 0.0
H655 H 0.47334 0.92915 0.3176 0.0
C656 C 0.45705 0.93803 0.43377 0.0
C657 C 0.40269 0.93492 0.44889 0.0
C658 C 0.45123 0.93809 0.40832 0.0
C659 C 0.39091 0.93504 0.39703 0.0
C660 C 0.3361 0.932 0.41203 0.0
C661 C 0.34189 0.93196 0.43771 0.0
C662 C 0.3219 0.94066 0.33332 0.0
C663 C 0.37405 0.93674 0.31796 0.0
C664 C 0.32738 0.94002 0.35877 0.0
C665 C 0.38516 0.93545 0.36976 0.0
C666 C 0.43791 0.93165 0.35447 0.0
C667 C 0.43248 0.93232 0.32884 0.0
H668 H 0.26006 0.79269 0.437 0.0
H669 H 0.44848 0.81102 0.4454 0.0
H670 H 0.27195 0.79322 0.39291 0.0
H671 H 0.46002 0.81169 0.40065 0.0
H672 H 0.48926 0.79852 0.32174 0.0
H673 H 0.47796 0.7987 0.36581 0.0
H674 H 0.26874 0.80687 0.35847 0.0
H675 H 0.2797 0.8065 0.31374 0.0
C676 C 0.30418 0.79689 0.42946 0.0
C677 C 0.35327 0.80189 0.4449 0.0
C678 C 0.31061 0.79727 0.40402 0.0
C679 C 0.36635 0.80264 0.3931 0.0
C680 C 0.41641 0.80743 0.40846 0.0
C681 C 0.40999 0.80704 0.43411 0.0
C682 C 0.44054 0.80039 0.32932 0.0
C683 C 0.38521 0.8025 0.31394 0.0
C684 C 0.43435 0.80058 0.35478 0.0
C685 C 0.37269 0.80287 0.36582 0.0
C686 C 0.31704 0.80497 0.35057 0.0
C687 C 0.32324 0.80478 0.32491 0.0
H688 H 0.48883 0.55637 0.07499 0.0
H689 H 0.70304 0.55467 0.06808 0.0
H690 H 0.49809 0.5556 0.11902 0.0
H691 H 0.71237 0.5543 0.11288 0.0
H692 H 0.70123 0.53934 0.19052 0.0
H693 H 0.69094 0.5408 0.14628 0.0
H694 H 0.52953 0.56619 0.155 0.0
H695 H 0.53904 0.56445 0.19966 0.0
C696 C 0.5383 0.55593 0.08282 0.0
C697 C 0.59536 0.55546 0.06775 0.0
C698 C 0.54345 0.55561 0.10829 0.0
C699 C 0.60583 0.55485 0.11967 0.0
C700 C 0.66329 0.55469 0.10473 0.0
C701 C 0.65812 0.55501 0.07904 0.0
C702 C 0.663 0.54516 0.18301 0.0
C703 C 0.62087 0.55179 0.1986 0.0
C704 C 0.65771 0.54611 0.15758 0.0
C705 C 0.61031 0.55378 0.14693 0.0
C706 C 0.56653 0.56014 0.16253 0.0
C707 C 0.57157 0.55912 0.18813 0.0
H708 H 0.71691 0.6826 0.19901 0.0
H709 H 0.50255 0.68201 0.1919 0.0
H710 H 0.72678 0.68202 0.15428 0.0
H711 H 0.51239 0.68189 0.14788 0.0
H712 H 0.54934 0.67245 0.06782 0.0
H713 H 0.54142 0.67081 0.11252 0.0
H714 H 0.70901 0.69495 0.1201 0.0
H715 H 0.71793 0.69624 0.07588 0.0
C716 C 0.67205 0.68232 0.18803 0.0
C717 C 0.60911 0.68245 0.19923 0.0
C718 C 0.67755 0.68208 0.16235 0.0
C719 C 0.62025 0.68197 0.14734 0.0
C720 C 0.55763 0.68179 0.15867 0.0
C721 C 0.55215 0.68199 0.18413 0.0
C722 C 0.58395 0.67746 0.07911 0.0
C723 C 0.6343 0.68442 0.0683 0.0
C724 C 0.57968 0.67651 0.10474 0.0
C725 C 0.6252 0.68264 0.12005 0.0
C726 C 0.6743 0.68983 0.10906 0.0
C727 C 0.67892 0.69067 0.08361 0.0
H728 H 0.44887 0.4203 0.81238 0.0
H729 H 0.30994 0.44945 0.82332 0.0
H730 H 0.45994 0.4181 0.85692 0.0
H731 H 0.32187 0.44752 0.86746 0.0
H732 H 0.29938 0.43377 0.94485 0.0
H733 H 0.2897 0.43428 0.9001 0.0
H734 H 0.50047 0.42726 0.89353 0.0
H735 H 0.50964 0.42635 0.93772 0.0
C736 C 0.42222 0.42644 0.82428 0.0
C737 C 0.37865 0.43504 0.81437 0.0
C738 C 0.42802 0.42514 0.84982 0.0
C739 C 0.39064 0.43248 0.8659 0.0
C740 C 0.3498 0.44146 0.85578 0.0
C741 C 0.34375 0.44269 0.83042 0.0
C742 C 0.34327 0.43213 0.93382 0.0
C743 C 0.40526 0.43014 0.94499 0.0
C744 C 0.33803 0.43256 0.90815 0.0
C745 C 0.39461 0.43098 0.8931 0.0
C746 C 0.45578 0.42845 0.90436 0.0
C747 C 0.46099 0.42803 0.92986 0.0
H748 H 0.44554 0.28655 0.8267 0.0
H749 H 0.31816 0.31708 0.81256 0.0
H750 H 0.43282 0.28953 0.87055 0.0
H751 H 0.30627 0.32029 0.85684 0.0
H752 H 0.25136 0.31372 0.9383 0.0
H753 H 0.26113 0.31211 0.89414 0.0
H754 H 0.46958 0.30332 0.90177 0.0
H755 H 0.4593 0.30459 0.94639 0.0
C756 C 0.41412 0.29385 0.83303 0.0
C757 C 0.38278 0.30158 0.81618 0.0
C758 C 0.40762 0.29567 0.85821 0.0
C759 C 0.36988 0.30532 0.86732 0.0
C760 C 0.33582 0.31276 0.85048 0.0
C761 C 0.34209 0.31088 0.82511 0.0
C762 C 0.29962 0.31153 0.93065 0.0
C763 C 0.35448 0.30913 0.94602 0.0
C764 C 0.3052 0.31069 0.9052 0.0
C765 C 0.36581 0.30742 0.89431 0.0
C766 C 0.42166 0.30561 0.90958 0.0
C767 C 0.41608 0.30647 0.93516 0.0
H768 H 0.23707 0.95863 0.25468 0.0
H769 H 0.42084 0.97784 0.24194 0.0
H770 H 0.18123 0.97773 0.26356 0.0
H771 H 0.36509 -0.00317 0.24943 0.0
H772 H 0.26391 0.02836 0.28611 0.0
H773 H 0.31895 0.00894 0.2802 0.0
H774 H 0.14264 -0.0047 0.24406 0.0
H775 H 0.08716 0.0144 0.25117 0.0
C776 C 0.26517 0.96695 0.25356 0.0
C777 C 0.33302 0.96681 0.2477 0.0
C778 C 0.23336 0.97788 0.25853 0.0
C779 C 0.26876 0.98884 0.25726 0.0
C780 C 0.33659 0.98859 0.25115 0.0
C781 C 0.36844 0.9777 0.24664 0.0
C782 C 0.23729 0.02117 0.27692 0.0
C783 C 0.17148 0.02281 0.26917 0.0
C784 C 0.26867 0.01007 0.27344 0.0
C785 C 0.23509 0.00052 0.2617 0.0
C786 C 0.16948 0.00232 0.25367 0.0
C787 C 0.13789 0.01331 0.25753 0.0
H788 H 0.82601 0.26328 0.24314 0.0
H789 H 0.01575 0.28094 0.25313 0.0
H790 H 0.87788 0.24384 0.24885 0.0
H791 H 0.06803 0.26128 0.26017 0.0
H792 H 0.14995 0.22371 0.24599 0.0
H793 H 0.09882 0.2433 0.2394 0.0
H794 H 0.92431 0.23145 0.27918 0.0
H795 H 0.97465 0.21163 0.28468 0.0
C796 C 0.87894 0.263 0.2469 0.0
C797 C 0.91704 0.2736 0.24777 0.0
C798 C 0.9086 0.25183 0.25035 0.0
C799 C 0.97697 0.25098 0.25519 0.0
C800 C 0.01528 0.26162 0.25616 0.0
C801 C 0.98554 0.27286 0.25228 0.0
C802 C 0.10041 0.2253 0.25315 0.0
C803 C 0.06598 0.21621 0.26581 0.0
C804 C 0.07143 0.23656 0.2496 0.0
C805 C 0.00774 0.239 0.25892 0.0
C806 C 0.97312 0.22982 0.27144 0.0
C807 C 0.0018 0.21848 0.27465 0.0
H808 H 0.27303 0.21057 0.99695 0.0
H809 H 0.07743 0.22672 0.99956 0.0
H810 H 0.32298 0.23048 1.00298 0.0
H811 H 0.12656 0.24644 1.00431 0.0
H812 H 0.23241 0.27904 0.03576 0.0
H813 H 0.18329 0.25902 0.03181 0.0
H814 H 0.33989 0.24886 0.98144 0.0
H815 H 0.39019 0.26865 0.98634 0.0
C816 C 0.24091 0.21835 0.99876 0.0
C817 C 0.17157 0.21711 0.99779 0.0
C818 C 0.2693 0.22976 1.00202 0.0
C819 C 0.22869 0.24008 1.00406 0.0
C820 C 0.15935 0.23871 1.00327 0.0
C821 C 0.13118 0.22737 1.00037 0.0
C822 C 0.25566 0.27254 0.02366 0.0
C823 C 0.31494 0.27533 0.01139 0.0
C824 C 0.22772 0.26108 0.02138 0.0
C825 C 0.25807 0.25228 0.00648 0.0
C826 C 0.31618 0.25529 0.99356 0.0
C827 C 0.34452 0.26667 0.99612 0.0
H828 H 0.97212 0.03026 0.99968 0.0
H829 H 0.15126 0.01304 0.97345 0.0
H830 H 0.92423 0.01041 0.00857 0.0
H831 H 0.10319 0.99339 0.9813 0.0
H832 H 0.0327 0.96116 0.02562 0.0
H833 H 0.07727 0.98104 0.01559 0.0
H834 H 0.88292 0.99226 0.99028 0.0
H835 H 0.83829 0.97262 1.00111 0.0
C836 C 0.00058 0.02223 0.99543 0.0
C837 C 0.06536 0.02313 0.98611 0.0
C838 C 0.97337 0.01088 1.00047 0.0
C839 C 0.01038 0.00031 0.99594 0.0
C840 C 0.07408 0.00132 0.98564 0.0
C841 C 0.10137 0.01259 0.98094 0.0
C842 C -0.00019 0.96788 0.01785 0.0
C843 C 0.93219 0.96539 0.01425 0.0
C844 C 0.02519 0.97925 0.012 0.0
C845 C 0.98349 0.98825 1.00217 0.0
C846 C 0.91606 0.98563 0.99823 0.0
C847 C 0.89067 0.97434 1.00429 0.0
H848 H 0.76629 0.02766 0.76084 0.0
H849 H 0.57047 0.01158 0.7623 0.0
H850 H 0.81525 0.00777 0.75423 0.0
H851 H 0.61905 0.99176 0.75692 0.0
H852 H 0.72516 0.95894 0.72445 0.0
H853 H 0.6734 0.97876 0.7291 0.0
H854 H 0.83514 0.98982 0.77637 0.0
H855 H 0.88764 0.97032 0.77076 0.0
C856 C 0.73389 0.01987 0.75983 0.0
C857 C 0.66482 0.02113 0.76215 0.0
C858 C 0.76177 0.00848 0.75623 0.0
C859 C 0.72104 -0.00186 0.75525 0.0
C860 C 0.65182 -0.00049 0.75723 0.0
C861 C 0.62402 0.01088 0.76047 0.0
C862 C 0.74892 0.96561 0.73601 0.0
C863 C 0.81035 0.9632 0.74712 0.0
C864 C 0.7195 0.97695 0.73869 0.0
C865 C 0.7507 0.98596 0.75282 0.0
C866 C 0.81075 0.98325 0.76477 0.0
C867 C 0.84044 0.97203 0.76179 0.0
H868 H 0.97362 0.70597 0.76139 0.0
H869 H 0.16326 0.72367 0.77134 0.0
H870 H 0.92166 0.72553 0.75341 0.0
H871 H 0.11153 0.74308 0.76449 0.0
H872 H 0.01211 0.77497 0.72726 0.0
H873 H 0.06399 0.75531 0.73358 0.0
H874 H 0.89112 0.74356 0.77438 0.0
H875 H 0.83867 0.76296 0.76718 0.0
C876 C 0.00393 0.71404 0.76201 0.0
C877 C 0.07226 0.71333 0.76693 0.0
C878 C 0.97433 0.72523 0.75758 0.0
C879 C 0.01255 0.73588 0.75832 0.0
C880 C 0.08088 0.73508 0.7633 0.0
C881 C 0.11043 0.72393 0.7674 0.0
C882 C 0.98565 0.76818 0.73769 0.0
C883 C 0.92149 0.77042 0.74665 0.0
C884 C 0.01522 0.75694 0.74136 0.0
C885 C 0.9814 0.74782 0.75433 0.0
C886 C 0.91787 0.75025 0.76381 0.0
C887 C 0.88811 0.76141 0.7599 0.0
H888 H 0.59818 0.72216 0.02473 0.0
H889 H 0.76153 0.71157 0.97802 0.0
H890 H 0.6474 0.742 0.02986 0.0
H891 H 0.80982 0.73166 0.98222 0.0
H892 H 0.90987 0.76458 0.01473 0.0
H893 H 0.86273 0.74466 0.01024 0.0
H894 H 0.66526 0.76014 0.00756 0.0
H895 H 0.71298 0.78025 0.01327 0.0
C896 C 0.64484 0.72411 0.01559 0.0
C897 C 0.67621 0.7154 1.00096 0.0
C898 C 0.67261 0.73552 0.01829 0.0
C899 C 0.73197 0.7385 0.00616 0.0
C900 C 0.76428 0.72963 0.992 0.0
C901 C 0.73684 0.71813 0.98958 0.0
C902 C 0.85632 0.76377 0.01311 0.0
C903 C 0.8149 0.77396 0.01443 0.0
C904 C 0.82934 0.75232 0.01037 0.0
C905 C 0.76027 0.75078 0.00852 0.0
C906 C 0.71871 0.76101 0.00937 0.0
C907 C 0.74584 0.77252 0.01246 0.0
H908 H 0.07698 0.51258 0.74675 0.0
H909 H 0.25682 0.52494 0.78209 0.0
H910 H 0.12865 0.49316 0.73876 0.0
H911 H 0.30797 0.5053 0.77503 0.0
H912 H 0.40254 0.47374 0.73599 0.0
H913 H 0.35051 0.49309 0.74321 0.0
H914 H 0.16405 0.47521 0.75905 0.0
H915 H 0.21618 0.4557 0.75071 0.0
C916 C 0.12763 0.5111 0.75288 0.0
C917 C 0.16308 0.52022 0.76503 0.0
C918 C 0.15698 0.49994 0.7485 0.0
C919 C 0.22221 0.49762 0.75642 0.0
C920 C 0.25788 0.50683 0.76841 0.0
C921 C 0.2287 0.51807 0.77251 0.0
C922 C 0.35038 0.47391 0.74103 0.0
C923 C 0.31324 0.46323 0.7428 0.0
C924 C 0.32068 0.48503 0.74534 0.0
C925 C 0.25325 0.48572 0.75187 0.0
C926 C 0.21597 0.475 0.75374 0.0
C927 C 0.24569 0.46383 0.74909 0.0
H928 H 0.21439 0.77841 0.5149 0.0
H929 H 0.41144 0.76285 0.51776 0.0
H930 H 0.16731 0.75825 0.50893 0.0
H931 H 0.36493 0.74291 0.51287 0.0
H932 H 0.26744 0.71003 0.47866 0.0
H933 H 0.31381 0.73022 0.48357 0.0
H934 H 0.14931 0.73981 0.53086 0.0
H935 H 0.10208 0.71983 0.52516 0.0
C936 C 0.24741 0.7707 0.51437 0.0
C937 C 0.31636 0.77218 0.51674 0.0
C938 C 0.22064 0.75916 0.5111 0.0
C939 C 0.2625 0.74896 0.51039 0.0
C940 C 0.33138 0.75055 0.51283 0.0
C941 C 0.35797 0.76201 0.51581 0.0
C942 C 0.2418 0.71643 0.49029 0.0
C943 C 0.18128 0.71342 0.50147 0.0
C944 C 0.26816 0.728 0.49312 0.0
C945 C 0.23485 0.73667 0.50745 0.0
C946 C 0.17536 0.73346 0.51924 0.0
C947 C 0.14874 0.72197 0.51619 0.0
H948 H 0.02206 0.45899 0.51182 0.0
H949 H 0.83034 0.47635 0.51839 0.0
H950 H 0.07439 0.47875 0.50611 0.0
H951 H 0.88213 0.49588 0.51369 0.0
H952 H 0.98385 0.52814 0.47919 0.0
H953 H 0.93349 0.50826 0.48377 0.0
H954 H 0.10017 0.49688 0.52826 0.0
H955 H 0.15131 0.51657 0.52291 0.0
C956 C 0.99135 0.46701 0.51219 0.0
C957 C 0.92232 0.46615 0.51544 0.0
C958 C 0.02114 0.47832 0.50905 0.0
C959 C 0.98228 0.4889 0.50934 0.0
C960 C 0.91335 0.48794 0.51283 0.0
C961 C 0.88373 0.47671 0.51569 0.0
C962 C 0.00931 0.5214 0.49007 0.0
C963 C 0.07136 0.52386 0.50065 0.0
C964 C 0.98058 0.51002 0.49273 0.0
C965 C 0.01306 0.50095 0.50629 0.0
C966 C 0.07453 0.50355 0.51728 0.0
C967 C 0.10347 0.51488 0.51442 0.0
H968 H 0.58923 0.51172 0.27455 0.0
H969 H 0.7726 0.53064 0.25933 0.0
H970 H 0.64207 0.49273 0.26498 0.0
H971 H 0.82564 0.51145 0.24861 0.0
H972 H 0.91451 0.47374 0.25802 0.0
H973 H 0.8638 0.49313 0.26686 0.0
H974 H 0.68235 0.48137 0.23152 0.0
H975 H 0.73262 0.46172 0.22362 0.0
C976 C 0.64094 0.51181 0.2689 0.0
C977 C 0.67697 0.52264 0.26763 0.0
C978 C 0.67107 0.50091 0.26321 0.0
C979 C 0.73783 0.50056 0.25576 0.0
C980 C 0.77419 0.51141 0.25452 0.0
C981 C 0.74401 0.52239 0.26057 0.0
C982 C 0.86369 0.4753 0.25219 0.0
C983 C 0.82723 0.46625 0.24021 0.0
C984 C 0.83488 0.48646 0.25706 0.0
C985 C 0.76916 0.48883 0.24984 0.0
C986 C 0.73283 0.47976 0.23767 0.0
C987 C 0.76148 0.46853 0.23307 0.0
H988 H 0.92282 0.2599 0.52699 0.0
H989 H 0.7334 0.27764 0.51696 0.0
H990 H 0.87 0.24042 0.5223 0.0
H991 H 0.68019 0.25799 0.51114 0.0
H992 H 0.59576 0.22068 0.52399 0.0
H993 H 0.64921 0.23994 0.53206 0.0
H994 H 0.82254 0.22815 0.4916 0.0
H995 H 0.76969 0.20867 0.4844 0.0
C996 C 0.86972 0.25962 0.52358 0.0
C997 C 0.83206 0.27027 0.52223 0.0
C998 C 0.83953 0.24844 0.52074 0.0
C999 C 0.77102 0.24762 0.51612 0.0
C1000 C 0.73304 0.25829 0.51498 0.0
C1001 C 0.76333 0.26954 0.51817 0.0
C1002 C 0.64562 0.22218 0.51705 0.0
C1003 C 0.67871 0.21323 0.50353 0.0
C1004 C 0.67594 0.23325 0.52147 0.0
C1005 C 0.73981 0.23565 0.51226 0.0
C1006 C 0.77354 0.22655 0.49921 0.0
C1007 C 0.74339 0.2154 0.49503 0.0
H1008 H 0.53864 0.27727 0.74948 0.0
H1009 H 0.34043 0.26226 0.74577 0.0
H1010 H 0.58352 0.25714 0.75714 0.0
H1011 H 0.38511 0.24221 0.75251 0.0
H1012 H 0.48456 0.20899 0.78678 0.0
H1013 H 0.43685 0.22916 0.78196 0.0
H1014 H 0.59995 0.23898 0.73422 0.0
H1015 H 0.64808 0.21911 0.73966 0.0
C1016 C 0.50482 0.26967 0.75027 0.0
C1017 C 0.43628 0.2713 0.74688 0.0
C1018 C 0.53038 0.25815 0.75452 0.0
C1019 C 0.48784 0.24806 0.75523 0.0
C1020 C 0.41913 0.24978 0.75236 0.0
C1021 C 0.39363 0.26128 0.74832 0.0
C1022 C 0.50957 0.21546 0.7751 0.0
C1023 C 0.57005 0.21256 0.76373 0.0
C1024 C 0.48247 0.227 0.77235 0.0
C1025 C 0.51525 0.23573 0.758 0.0
C1026 C 0.57445 0.23259 0.74595 0.0
C1027 C 0.60164 0.22116 0.74886 0.0
H1028 H 0.67997 0.01469 0.50464 0.0
H1029 H 0.48053 0.02891 0.49807 0.0
H1030 H 0.63561 -0.00541 0.51051 0.0
H1031 H 0.43555 0.00874 0.50513 0.0
H1032 H 0.3774 0.97052 0.48938 0.0
H1033 H 0.42715 0.99025 0.48354 0.0
H1034 H 0.57735 0.98161 0.53758 0.0
H1035 H 0.5285 0.96154 0.54255 0.0
C1036 C 0.62643 0.01354 0.50482 0.0
C1037 C 0.58353 0.02334 0.50068 0.0
C1038 C 0.60104 0.002 0.50834 0.0
C1039 C 0.53211 2e-05 0.5081 0.0
C1040 C 0.48905 0.00992 0.50485 0.0
C1041 C 0.51459 0.02148 0.501 0.0
C1042 C 0.42166 0.9728 0.49974 0.0
C1043 C 0.4492 0.96461 0.51647 0.0
C1044 C 0.44966 0.98416 0.49664 0.0
C1045 C 0.50528 0.98763 0.5105 0.0
C1046 C 0.53457 0.9792 0.52655 0.0
C1047 C 0.50692 0.96771 0.52939 0.0
H1048 H 0.47626 0.70844 0.26245 0.0
H1049 H 0.66676 0.72634 0.26714 0.0
H1050 H 0.42309 0.72779 0.25343 0.0
H1051 H 0.61409 0.74557 0.25951 0.0
H1052 H 0.51191 0.7771 0.2231 0.0
H1053 H 0.56371 0.75743 0.22939 0.0
H1054 H 0.39366 0.74612 0.27233 0.0
H1055 H 0.34104 0.76548 0.2649 0.0
C1056 C 0.50649 0.71652 0.26173 0.0
C1057 C 0.57539 0.71592 0.26543 0.0
C1058 C 0.47623 0.7276 0.2567 0.0
C1059 C 0.51438 0.73826 0.25572 0.0
C1060 C 0.58331 0.73756 0.25956 0.0
C1061 C 0.61346 0.72651 0.26414 0.0
C1062 C 0.48606 0.77039 0.23395 0.0
C1063 C 0.42267 0.77274 0.24347 0.0
C1064 C 0.51558 0.75913 0.23762 0.0
C1065 C 0.48267 0.75014 0.25129 0.0
C1066 C 0.41975 0.75269 0.26122 0.0
C1067 C 0.38991 0.76383 0.25719 0.0
H1068 H 0.52393 0.46099 0.03233 0.0
H1069 H 0.35748 0.47089 0.98648 0.0
H1070 H 0.56982 0.48121 0.02767 0.0
H1071 H 0.40443 0.49091 0.98088 0.0
H1072 H 0.46835 0.52948 0.99784 0.0
H1073 H 0.42199 0.50921 1.00289 0.0
H1074 H 0.62044 0.4942 0.99912 0.0
H1075 H 0.66619 0.51425 0.99527 0.0
C1076 C 0.49799 0.46743 0.02085 0.0
C1077 C 0.43726 0.46444 0.00983 0.0
C1078 C 0.52412 0.47901 0.01815 0.0
C1079 C 0.49043 0.48772 1.00405 0.0
C1080 C 0.43079 0.48453 0.99234 0.0
C1081 C 0.40431 0.47302 0.99531 0.0
C1082 C 0.50169 0.52181 0.99821 0.0
C1083 C 0.57065 0.52342 0.99628 0.0
C1084 C 0.47534 0.51021 1.00094 0.0
C1085 C 0.51763 0.50007 1.00144 0.0
C1086 C 0.58653 0.50178 0.99933 0.0
C1087 C 0.61271 0.51331 0.99697 0.0
H1088 H 0.18192 0.15252 0.2978 0.0
H1089 H 0.97666 0.14558 0.27849 0.0
H1090 H 0.20421 0.13119 0.29862 0.0
H1091 H -0.00176 0.12396 0.28084 0.0
H1092 H 0.07995 0.08916 0.24952 0.0
H1093 H 0.05332 0.11028 0.2553 0.0
H1094 H 0.19341 0.11198 0.31547 0.0
H1095 H 0.22249 0.09079 0.30852 0.0
C1096 C 0.14092 0.14642 0.29423 0.0
C1097 C 0.07771 0.15079 0.28741 0.0
C1098 C 0.15376 0.13411 0.29497 0.0
C1099 C 0.10351 0.1258 0.2893 0.0
C1100 C 0.03874 0.13013 0.28456 0.0
C1101 C 0.02603 0.14252 0.28347 0.0
C1102 C 0.10557 0.09413 0.26379 0.0
C1103 C 0.15367 0.08847 0.27844 0.0
C1104 C 0.08949 0.10618 0.26742 0.0
C1105 C 0.12017 0.11283 0.28616 0.0
C1106 C 0.16908 0.10716 0.30073 0.0
C1107 C 0.18612 0.09508 0.29675 0.0
H1108 H 0.05229 0.15355 0.96273 0.0
H1109 H 0.26057 0.14614 0.97595 0.0
H1110 H 0.02866 0.13226 0.96213 0.0
H1111 H 0.23736 0.12459 0.97374 0.0
H1112 H 0.16175 0.08979 0.00686 0.0
H1113 H 0.18786 0.11087 1.0005 0.0
H1114 H 0.03386 0.11302 0.94521 0.0
H1115 H 0.0056 0.09185 0.95276 0.0
C1116 C 0.09359 0.14737 0.96493 0.0
C1117 C 0.15827 0.1516 0.97005 0.0
C1118 C 0.0799 0.13507 0.96435 0.0
C1119 C 0.13067 0.12663 0.96845 0.0
C1120 C 0.19651 0.13084 0.97133 0.0
C1121 C 0.21012 0.14321 0.9723 0.0
C1122 C 0.13303 0.09483 0.99351 0.0
C1123 C 0.08137 0.08927 0.98041 0.0
C1124 C 0.14874 0.10688 0.98954 0.0
C1125 C 0.11402 0.11367 0.97197 0.0
C1126 C 0.06147 0.10811 0.95901 0.0
C1127 C 0.04491 0.09602 0.96336 0.0
H1128 H 0.74881 0.89477 0.70424 0.0
H1129 H 0.9433 0.89842 0.73717 0.0
H1130 H 0.77168 0.87349 0.69627 0.0
H1131 H 0.96451 0.8773 0.73082 0.0
H1132 H 0.00653 0.83951 0.71215 0.0
H1133 H 0.98792 0.86106 0.70608 0.0
H1134 H 0.7769 0.85578 0.7179 0.0
H1135 H 0.7948 0.83449 0.72219 0.0
C1136 C 0.7962 0.89102 0.70983 0.0
C1137 C 0.84395 0.89824 0.72143 0.0
C1138 C 0.80944 0.87882 0.70536 0.0
C1139 C 0.87002 0.87356 0.713 0.0
C1140 C 0.91802 0.88095 0.7241 0.0
C1141 C 0.90541 0.89312 0.72804 0.0
C1142 C 0.95618 0.84298 0.71297 0.0
C1143 C 0.9025 0.83528 0.71799 0.0
C1144 C 0.94537 0.85534 0.70967 0.0
C1145 C 0.88086 0.86028 0.71188 0.0
C1146 C 0.82712 0.85242 0.71568 0.0
C1147 C 0.8377 0.84012 0.71845 0.0
H1148 H 0.89412 0.90202 0.06918 0.0
H1149 H 0.97917 0.89454 0.99816 0.0
H1150 H 0.85759 0.88101 0.07254 0.0
H1151 H 0.94064 0.87359 1.00121 0.0
H1152 H 0.7637 0.84566 1.00384 0.0
H1153 H 0.80418 0.86652 1.00551 0.0
H1154 H 0.92004 0.85799 0.06976 0.0
H1155 H 0.88131 0.83707 0.06771 0.0
C1156 C 0.90671 0.89576 0.05466 0.0
C1157 C 0.94019 0.89978 0.03356 0.0
C1158 C 0.88531 0.88382 0.05649 0.0
C1159 C 0.8955 0.87585 0.03696 0.0
C1160 C 0.93183 0.87968 0.01637 0.0
C1161 C 0.95471 0.89156 0.0148 0.0
C1162 C 0.79605 0.84836 0.01875 0.0
C1163 C 0.81899 0.83985 0.03578 0.0
C1164 C 0.81996 0.86019 0.01947 0.0
C1165 C 0.86585 0.8637 0.03754 0.0
C1166 C 0.88494 0.85543 0.05562 0.0
C1167 C 0.86234 0.84354 0.05456 0.0
H1168 H 0.24877 0.59096 0.77728 0.0
H1169 H 0.05399 0.58305 0.80703 0.0
H1170 H 0.2253 0.6125 0.78091 0.0
H1171 H 0.03091 0.60447 0.81048 0.0
H1172 H 0.98834 0.64194 0.77293 0.0
H1173 H 0.011 0.62044 0.77861 0.0
H1174 H 0.20137 0.62899 0.81097 0.0
H1175 H 0.17915 0.65031 0.80546 0.0
C1176 C 0.20172 0.59379 0.78508 0.0
C1177 C 0.15305 0.58529 0.79152 0.0
C1178 C 0.18818 0.60612 0.78713 0.0
C1179 C 0.12579 0.61012 0.79563 0.0
C1180 C 0.07882 0.60163 0.80343 0.0
C1181 C 0.09238 0.58935 0.80153 0.0
C1182 C 0.03434 0.63923 0.78168 0.0
C1183 C 0.08223 0.64782 0.78836 0.0
C1184 C 0.04738 0.62694 0.78495 0.0
C1185 C 0.10845 0.62308 0.79492 0.0
C1186 C 0.15453 0.6317 0.80282 0.0
C1187 C 0.1415 0.64392 0.79968 0.0
H1188 H 0.26214 0.64308 0.47666 0.0
H1189 H 0.06839 0.65283 0.44851 0.0
H1190 H 0.23614 0.62187 0.47011 0.0
H1191 H 0.04287 0.63167 0.44163 0.0
H1192 H 0.9918 0.59433 0.47769 0.0
H1193 H 0.01762 0.61552 0.47034 0.0
H1194 H 0.2108 0.60551 0.44206 0.0
H1195 H 0.18545 0.58441 0.44977 0.0
C1196 C 0.21488 0.64072 0.4684 0.0
C1197 C 0.16699 0.64961 0.46351 0.0
C1198 C 0.19988 0.62856 0.4646 0.0
C1199 C 0.1369 0.62508 0.45571 0.0
C1200 C 0.09119 0.63404 0.449 0.0
C1201 C 0.10605 0.64617 0.45285 0.0
C1202 C 0.03901 0.59664 0.46932 0.0
C1203 C 0.08697 0.58774 0.46472 0.0
C1204 C 0.05389 0.60878 0.46506 0.0
C1205 C 0.11681 0.6122 0.45597 0.0
C1206 C 0.16256 0.60319 0.44957 0.0
C1207 C 0.14784 0.5911 0.45392 0.0
H1208 H 0.99544 0.34483 0.23194 0.0
H1209 H 0.79824 0.33582 0.20597 0.0
H1210 H 0.97109 0.36616 0.22563 0.0
H1211 H 0.7744 0.35705 0.19958 0.0
H1212 H 0.73334 0.39564 0.23185 0.0
H1213 H 0.75522 0.37404 0.22794 0.0
H1214 H 0.94599 0.38177 0.19491 0.0
H1215 H 0.92457 0.40323 0.19896 0.0
C1216 C 0.94757 0.34737 0.2244 0.0
C1217 C 0.89861 0.33864 0.2198 0.0
C1218 C 0.93356 0.35958 0.22075 0.0
C1219 C 0.87043 0.36327 0.21238 0.0
C1220 C 0.82294 0.35449 0.20647 0.0
C1221 C 0.8369 0.34232 0.21007 0.0
C1222 C 0.77914 0.39271 0.22324 0.0
C1223 C 0.82757 0.40111 0.21609 0.0
C1224 C 0.79178 0.38035 0.22099 0.0
C1225 C 0.85291 0.37624 0.21148 0.0
C1226 C 0.89917 0.38467 0.2028 0.0
C1227 C 0.88664 0.39696 0.20505 0.0
H1228 H 0.95699 0.33582 0.52507 0.0
H1229 H 0.75154 0.3408 0.54636 0.0
H1230 H 0.97501 0.35727 0.52663 0.0
H1231 H 0.77069 0.3625 0.54931 0.0
H1232 H 0.80279 0.4001 0.5179 0.0
H1233 H 0.78535 0.37876 0.52308 0.0
H1234 H 0.98762 0.37487 0.54912 0.0
H1235 H 0.00616 0.39642 0.54258 0.0
C1236 C 0.91573 0.34149 0.53061 0.0
C1237 C 0.85245 0.33657 0.53541 0.0
C1238 C 0.92644 0.35387 0.53172 0.0
C1239 C 0.87448 0.36172 0.53805 0.0
C1240 C 0.81167 0.35676 0.54386 0.0
C1241 C 0.80059 0.34432 0.54231 0.0
C1242 C 0.8437 0.39474 0.52487 0.0
C1243 C 0.90614 0.39997 0.52972 0.0
C1244 C 0.83333 0.38245 0.5281 0.0
C1245 C 0.88478 0.375 0.53665 0.0
C1246 C 0.94701 0.38028 0.54211 0.0
C1247 C 0.95778 0.39263 0.53845 0.0
H1248 H 0.57462 0.08292 0.8123 0.0
H1249 H 0.7593 0.09199 0.77605 0.0
H1250 H 0.552 0.10417 0.81909 0.0
H1251 H 0.73626 0.11337 0.78281 0.0
H1252 H 0.69315 0.15092 0.80833 0.0
H1253 H 0.71956 0.12968 0.81324 0.0
H1254 H 0.52056 0.12032 0.79012 0.0
H1255 H 0.49376 0.14165 0.78523 0.0
C1256 C 0.61101 0.08946 0.80611 0.0
C1257 C 0.66841 0.08579 0.79328 0.0
C1258 C 0.59776 0.10163 0.80994 0.0
C1259 C 0.64168 0.11044 0.80114 0.0
C1260 C 0.70152 0.10677 0.7899 0.0
C1261 C 0.71485 0.09453 0.78603 0.0
C1262 C 0.65452 0.14436 0.80464 0.0
C1263 C 0.59149 0.14798 0.79603 0.0
C1264 C 0.66993 0.13218 0.80738 0.0
C1265 C 0.62258 0.12334 0.80172 0.0
C1266 C 0.55807 0.12695 0.79474 0.0
C1267 C 0.54262 0.13917 0.79193 0.0
H1268 H 0.55203 0.15287 0.45295 0.0
H1269 H 0.74858 0.14262 0.47764 0.0
H1270 H 0.52494 0.13183 0.44562 0.0
H1271 H 0.72107 0.1215 0.4703 0.0
H1272 H 0.4811 0.09351 0.4802 0.0
H1273 H 0.50465 0.11494 0.47443 0.0
H1274 H 0.69129 0.10603 0.43954 0.0
H1275 H 0.66809 0.08471 0.44535 0.0
C1276 C 0.58993 0.14614 0.45649 0.0
C1277 C 0.6523 0.14942 0.46628 0.0
C1278 C 0.57414 0.13408 0.45233 0.0
C1279 C 0.62043 0.12501 0.45768 0.0
C1280 C 0.6844 0.12831 0.46586 0.0
C1281 C 0.70022 0.14041 0.47011 0.0
C1282 C 0.52609 0.09613 0.47063 0.0
C1283 C 0.57314 0.08745 0.46361 0.0
C1284 C 0.53973 0.1084 0.46735 0.0
C1285 C 0.60051 0.11215 0.45694 0.0
C1286 C 0.6448 0.10342 0.44809 0.0
C1287 C 0.63122 0.09121 0.45133 0.0
H1288 H 0.45979 0.90169 0.23512 0.0
H1289 H 0.25435 0.89801 0.2128 0.0
H1290 H 0.47682 0.88039 0.22966 0.0
H1291 H 0.27253 0.87651 0.20581 0.0
H1292 H 0.30154 0.83807 0.23373 0.0
H1293 H 0.28497 0.85944 0.22961 0.0
H1294 H 0.48865 0.86351 0.20513 0.0
H1295 H 0.50641 0.84188 0.21074 0.0
C1296 C 0.41835 0.89635 0.22851 0.0
C1297 C 0.35527 0.90155 0.2247 0.0
C1298 C 0.4285 0.88407 0.2251 0.0
C1299 C 0.37616 0.87662 0.21736 0.0
C1300 C 0.31374 0.88191 0.21233 0.0
C1301 C 0.30319 0.89424 0.21622 0.0
C1302 C 0.34296 0.84346 0.22725 0.0
C1303 C 0.4057 0.83826 0.2228 0.0
C1304 C 0.33306 0.85579 0.22461 0.0
C1305 C 0.3853 0.8633 0.21704 0.0
C1306 C 0.44749 0.85804 0.21149 0.0
C1307 C 0.4578 0.84564 0.2146 0.0
H1308 H 0.50487 0.89263 0.53261 0.0
H1309 H 0.30582 0.90314 0.55403 0.0
H1310 H 0.47262 0.87148 0.53598 0.0
H1311 H 0.27406 0.88207 0.55731 0.0
H1312 H 0.23001 0.8443 0.52072 0.0
H1313 H 0.25672 0.86566 0.52659 0.0
H1314 H 0.43594 0.85578 0.56542 0.0
H1315 H 0.40968 0.83462 0.55957 0.0
C1316 C 0.45481 0.89046 0.53849 0.0
C1317 C 0.40791 0.89959 0.54276 0.0
C1318 C 0.43624 0.87834 0.54043 0.0
C1319 C 0.37049 0.87514 0.54663 0.0
C1320 C 0.32466 0.88427 0.55208 0.0
C1321 C 0.3432 0.89634 0.55029 0.0
C1322 C 0.27413 0.84672 0.53101 0.0
C1323 C 0.31818 0.83781 0.53932 0.0
C1324 C 0.28958 0.85893 0.53435 0.0
C1325 C 0.34915 0.86236 0.54608 0.0
C1326 C 0.39058 0.85341 0.55583 0.0
C1327 C 0.37523 0.84129 0.55254 0.0
H1328 H 0.70244 0.65212 0.29435 0.0
H1329 H 0.49002 0.64648 0.30015 0.0
H1330 H 0.72121 0.63077 0.29712 0.0
H1331 H 0.50929 0.62489 0.30476 0.0
H1332 H 0.557 0.58835 0.27142 0.0
H1333 H 0.53633 0.60947 0.27841 0.0
H1334 H 0.72461 0.61241 0.31655 0.0
H1335 H 0.74696 0.59113 0.30794 0.0
C1336 C 0.65952 0.64634 0.29685 0.0
C1337 C 0.59437 0.65104 0.2964 0.0
C1338 C 0.67056 0.634 0.29872 0.0
C1339 C 0.61687 0.62597 0.30071 0.0
C1340 C 0.55189 0.63075 0.30241 0.0
C1341 C 0.54069 0.64315 0.30001 0.0
C1342 C 0.594 0.59349 0.28139 0.0
C1343 C 0.65383 0.58813 0.28904 0.0
C1344 C 0.5817 0.60563 0.28571 0.0
C1345 C 0.62832 0.61275 0.29829 0.0
C1346 C 0.68784 0.60729 0.30647 0.0
C1347 C 0.70084 0.59511 0.3016 0.0
H1348 H 0.74827 0.64392 0.98404 0.0
H1349 H 0.55401 0.65398 0.95668 0.0
H1350 H 0.71971 0.62269 0.97839 0.0
H1351 H 0.52587 0.63286 0.95116 0.0
H1352 H 0.47749 0.59498 0.98679 0.0
H1353 H 0.5033 0.61639 0.98133 0.0
H1354 H 0.69071 0.60698 0.94757 0.0
H1355 H 0.66522 0.58574 0.95297 0.0
C1356 C 0.70024 0.64163 0.97631 0.0
C1357 C 0.65322 0.65063 0.97117 0.0
C1358 C 0.68379 0.62948 0.97308 0.0
C1359 C 0.62011 0.62615 0.96465 0.0
C1360 C 0.57475 0.63517 0.95811 0.0
C1361 C 0.59119 0.64727 0.96122 0.0
C1362 C 0.52324 0.59751 0.97763 0.0
C1363 C 0.56971 0.58872 0.9707 0.0
C1364 C 0.53818 0.60974 0.97452 0.0
C1365 C 0.59967 0.61332 0.96442 0.0
C1366 C 0.6437 0.60449 0.95588 0.0
C1367 C 0.62882 0.59233 0.95892 0.0
H1368 H 0.28385 0.3919 0.76419 0.0
H1369 H 0.38366 0.39944 0.6958 0.0
H1370 H 0.32478 0.37107 0.76262 0.0
H1371 H 0.42315 0.3786 0.69398 0.0
H1372 H 0.40437 0.3354 0.69486 0.0
H1373 H 0.36879 0.35647 0.6926 0.0
H1374 H 0.45259 0.36292 0.76422 0.0
H1375 H 0.48976 0.34187 0.76623 0.0
C1376 C 0.31256 0.38898 0.74846 0.0
C1377 C 0.33025 0.39718 0.73002 0.0
C1378 C 0.33684 0.37717 0.74777 0.0
C1379 C 0.37791 0.37338 0.72838 0.0
C1380 C 0.39187 0.38136 0.70915 0.0
C1381 C 0.36887 0.39321 0.71011 0.0
C1382 C 0.41731 0.34146 0.70969 0.0
C1383 C 0.45042 0.33712 0.73059 0.0
C1384 C 0.39646 0.35344 0.70849 0.0
C1385 C 0.40699 0.36117 0.72843 0.0
C1386 C 0.44328 0.35702 0.74877 0.0
C1387 C 0.46549 0.34509 0.74974 0.0
H1388 H 0.33076 0.40421 0.06419 0.0
H1389 H 0.52 0.39394 0.03283 0.0
H1390 H 0.30454 0.38313 0.07172 0.0
H1391 H 0.49329 0.37278 0.04012 0.0
H1392 H 0.24621 0.34608 0.03593 0.0
H1393 H 0.27502 0.36716 0.0428 0.0
H1394 H 0.46906 0.3565 0.06916 0.0
H1395 H 0.4407 0.33547 0.06209 0.0
C1396 C 0.36735 0.39744 0.05929 0.0
C1397 C 0.42707 0.4007 0.04752 0.0
C1398 C 0.35209 0.38537 0.06354 0.0
C1399 C 0.3962 0.37629 0.05612 0.0
C1400 C 0.45831 0.37958 0.04616 0.0
C1401 C 0.47372 0.39171 0.04195 0.0
C1402 C 0.2943 0.34822 0.04379 0.0
C1403 C 0.34148 0.33913 0.04804 0.0
C1404 C 0.31089 0.3603 0.04777 0.0
C1405 C 0.3748 0.36349 0.05618 0.0
C1406 C 0.42 0.35433 0.06221 0.0
C1407 C 0.40351 0.34229 0.05821 0.0
H1408 H 0.86951 0.05424 0.30503 0.0
H1409 H 0.04331 0.06404 0.34705 0.0
H1410 H 0.80162 0.05563 0.34238 0.0
H1411 H 0.97697 0.06509 0.38404 0.0
H1412 H 0.83064 0.07128 0.44688 0.0
H1413 H 0.89085 0.07431 0.40816 0.0
H1414 H 0.79512 0.04275 0.37796 0.0
H1415 H 0.73501 0.03993 0.416 0.0
C1416 C 0.8928 0.05692 0.32207 0.0
C1417 C 0.96165 0.05883 0.32324 0.0
C1418 C 0.85431 0.05761 0.34351 0.0
C1419 C 0.88417 0.06027 0.36633 0.0
C1420 C 0.95216 0.06306 0.36691 0.0
C1421 C 0.99031 0.06235 0.34566 0.0
C1422 C 0.8235 0.06494 0.43203 0.0
C1423 C 0.77844 0.05536 0.43447 0.0
C1424 C 0.85736 0.06671 0.40979 0.0
C1425 C 0.84676 0.0589 0.38973 0.0
C1426 C 0.80298 0.04916 0.39264 0.0
C1427 C 0.76927 0.04744 0.41465 0.0
H1428 H 0.18734 0.18427 0.35364 0.0
H1429 H 0.36151 0.18102 0.30762 0.0
H1430 H 0.25593 0.18311 0.38989 0.0
H1431 H 0.4312 0.17958 0.34453 0.0
H1432 H 0.53028 0.19588 0.41316 0.0
H1433 H 0.46418 0.19378 0.37631 0.0
H1434 H 0.32671 0.17071 0.4152 0.0
H1435 H 0.39317 0.173 0.45263 0.0
C1436 C 0.24053 0.18318 0.35123 0.0
C1437 C 0.26922 0.18294 0.32769 0.0
C1438 C 0.2798 0.18237 0.37215 0.0
C1439 C 0.34903 0.18129 0.37018 0.0
C1440 C 0.37787 0.18056 0.34662 0.0
C1441 C 0.33818 0.18133 0.3255 0.0
C1442 C 0.48584 0.19037 0.41397 0.0
C1443 C 0.46665 0.18466 0.43589 0.0
C1444 C 0.44842 0.18904 0.39267 0.0
C1445 C 0.39067 0.18196 0.39266 0.0
C1446 C 0.37095 0.17628 0.41464 0.0
C1447 C 0.40863 0.17763 0.43611 0.0
H1448 H 0.80076 0.20252 0.82101 0.0
H1449 H 0.79541 0.16375 0.825 0.0
H1450 H 0.86225 0.20331 0.85938 0.0
H1451 H 0.85836 0.16442 0.86368 0.0
H1452 H 0.90165 0.17291 0.94662 0.0
H1453 H 0.84064 0.17127 0.9075 0.0
H1454 H 0.96919 0.19835 0.87592 0.0
H1455 H 0.02733 0.20024 0.91436 0.0
C1456 C 0.81525 0.19414 0.82973 0.0
C1457 C 0.79559 0.18307 0.81978 0.0
C1458 C 0.84984 0.19457 0.85183 0.0
C1459 C 0.86502 0.18392 0.86467 0.0
C1460 C 0.84682 0.17277 0.85433 0.0
C1461 C 0.8123 0.17236 0.83199 0.0
C1462 C 0.91561 0.17864 0.93138 0.0
C1463 C 0.96899 0.18673 0.9336 0.0
C1464 C 0.88157 0.17758 0.90893 0.0
C1465 C 0.90032 0.18466 0.88857 0.0
C1466 C 0.95288 0.19285 0.8912 0.0
C1467 C 0.98639 0.1939 0.91334 0.0
H1468 H 0.19224 0.06296 0.90895 0.0
H1469 H 0.3648 0.05599 0.95395 0.0
H1470 H 0.26113 0.06329 0.87261 0.0
H1471 H 0.43525 0.05673 0.91721 0.0
H1472 H 0.51319 0.03971 0.84638 0.0
H1473 H 0.44987 0.04312 0.8835 0.0
H1474 H 0.34546 0.07243 0.84815 0.0
H1475 H 0.40862 0.06873 0.81038 0.0
C1476 C 0.24542 0.06173 0.91113 0.0
C1477 C 0.27308 0.05922 0.93427 0.0
C1478 C 0.28507 0.06204 0.89021 0.0
C1479 C 0.35364 0.05987 0.89185 0.0
C1480 C 0.38222 0.0582 0.91526 0.0
C1481 C 0.34221 0.05789 0.93635 0.0
C1482 C 0.47642 0.04685 0.84643 0.0
C1483 C 0.46552 0.05392 0.82542 0.0
C1484 C 0.44077 0.04893 0.86789 0.0
C1485 C 0.39338 0.05819 0.86906 0.0
C1486 C 0.38156 0.06518 0.84788 0.0
C1487 C 0.41723 0.06304 0.82619 0.0
H1488 H 0.28435 0.94814 0.60023 0.0
H1489 H 0.15902 0.92298 0.5613 0.0
H1490 H 0.21691 0.94578 0.63673 0.0
H1491 H 0.09119 0.92042 0.5984 0.0
H1492 H 0.94497 0.93207 0.65938 0.0
H1493 H 0.01442 0.93174 0.62327 0.0
H1494 H 0.18997 0.93152 0.66902 0.0
H1495 H 0.11922 0.93213 0.70578 0.0
C1496 C 0.24207 0.94209 0.59948 0.0
C1497 C 0.22676 0.93577 0.57785 0.0
C1498 C 0.20393 0.94062 0.62057 0.0
C1499 C 0.14935 0.93276 0.6207 0.0
C1500 C 0.13298 0.92658 0.59889 0.0
C1501 C 0.17134 0.92809 0.5776 0.0
C1502 C -0.00155 0.9319 0.6619 0.0
C1503 C 0.02671 0.93233 0.68551 0.0
C1504 C 0.03829 0.93156 0.64106 0.0
C1505 C 0.10773 0.93166 0.64315 0.0
C1506 C 0.13641 0.9316 0.6668 0.0
C1507 C 0.09615 0.93188 0.68785 0.0
H1508 H 0.7616 0.78859 0.66231 0.0
H1509 H 0.6451 0.81509 0.70132 0.0
H1510 H 0.69637 0.79198 0.62567 0.0
H1511 H 0.5794 0.81866 0.66404 0.0
H1512 H 0.43111 0.8082 0.60184 0.0
H1513 H 0.49919 0.80842 0.63844 0.0
H1514 H 0.67644 0.80672 0.59368 0.0
H1515 H 0.60716 0.80621 0.55659 0.0
C1516 C 0.72175 0.79516 0.66306 0.0
C1517 C 0.70831 0.80156 0.68475 0.0
C1518 C 0.68492 0.79722 0.64187 0.0
C1519 C 0.63353 0.80576 0.64169 0.0
C1520 C 0.61882 0.81201 0.66357 0.0
C1521 C 0.65593 0.80992 0.68496 0.0
C1522 C 0.48472 0.80799 0.59971 0.0
C1523 C 0.51391 0.80695 0.57634 0.0
C1524 C 0.52377 0.80825 0.62078 0.0
C1525 C 0.5932 0.80744 0.61908 0.0
C1526 C 0.62284 0.80714 0.5956 0.0
C1527 C 0.58344 0.80694 0.57436 0.0
H1528 H 0.29529 0.80696 0.15777 0.0
H1529 H 0.12185 0.80756 0.20459 0.0
H1530 H 0.22561 0.80881 0.12192 0.0
H1531 H 0.05096 0.80974 0.16814 0.0
H1532 H 0.95331 0.79436 0.09865 0.0
H1533 H 0.01977 0.79631 0.13533 0.0
H1534 H 0.15154 0.82088 0.0976 0.0
H1535 H 0.08461 0.81871 0.06016 0.0
C1536 C 0.24198 0.80762 0.16045 0.0
C1537 C 0.21389 0.80688 0.18406 0.0
C1538 C 0.20203 0.80884 0.13977 0.0
C1539 C 0.13265 0.80935 0.14203 0.0
C1540 C 0.10438 0.80919 0.16576 0.0
C1541 C 0.14475 0.808 0.18664 0.0
C1542 C 0.99643 0.80022 0.09805 0.0
C1543 C 0.01387 0.80637 0.07642 0.0
C1544 C 0.03412 0.80144 0.11929 0.0
C1545 C 0.09045 0.80888 0.11963 0.0
C1546 C 0.1084 0.81504 0.09794 0.0
C1547 C 0.07046 0.81377 0.07647 0.0
H1548 H 0.82867 0.93272 0.10627 0.0
H1549 H 0.65321 0.92821 0.06143 0.0
H1550 H 0.76098 0.93211 0.14302 0.0
H1551 H 0.58486 0.92732 0.09864 0.0
H1552 H 0.48592 0.94581 0.16411 0.0
H1553 H 0.55376 0.94272 0.12813 0.0
H1554 H 0.68849 0.92054 0.17027 0.0
H1555 H 0.61972 0.92379 0.207 0.0
C1556 C 0.7755 0.93144 0.10426 0.0
C1557 C 0.74601 0.93074 0.08089 0.0
C1558 C 0.7368 0.93095 0.12543 0.0
C1559 C 0.66751 0.92978 0.12381 0.0
C1560 C 0.63819 0.92843 0.10046 0.0
C1561 C 0.67716 0.92888 0.07916 0.0
C1562 C 0.52999 0.94025 0.16587 0.0
C1563 C 0.54746 0.93503 0.18847 0.0
C1564 C 0.56851 0.93837 0.14505 0.0
C1565 C 0.62581 0.93119 0.14614 0.0
C1566 C 0.64439 0.92611 0.16885 0.0
C1567 C 0.60542 0.92801 0.18989 0.0
H1568 H 0.011 0.53912 0.85093 0.0
H1569 H 0.89839 0.56657 0.81319 0.0
H1570 H 0.9489 0.5429 0.8882 0.0
H1571 H 0.8364 0.57064 0.85106 0.0
H1572 H 0.68755 0.56107 0.91321 0.0
H1573 H 0.75523 0.56123 0.87657 0.0
H1574 H 0.93216 0.55715 0.92089 0.0
H1575 H 0.86291 0.55662 0.95803 0.0
C1576 C 0.97272 0.54599 0.85063 0.0
C1577 C 0.95916 0.5525 0.82909 0.0
C1578 C 0.93778 0.54829 0.87216 0.0
C1579 C 0.88842 0.55722 0.87284 0.0
C1580 C 0.87407 0.56366 0.85116 0.0
C1581 C 0.90905 0.5613 0.82942 0.0
C1582 C 0.74107 0.56035 0.91523 0.0
C1583 C 0.77001 0.55859 0.93844 0.0
C1584 C 0.77998 0.56057 0.89415 0.0
C1585 C 0.84908 0.55905 0.89566 0.0
C1586 C 0.87875 0.55812 0.91908 0.0
C1587 C 0.83944 0.55793 0.94036 0.0
H1588 H 0.18605 0.68011 0.85532 0.0
H1589 H 0.36431 0.67951 0.81103 0.0
H1590 H 0.25261 0.6799 0.89231 0.0
H1591 H 0.43178 0.67905 0.84853 0.0
H1592 H 0.51901 0.69737 0.91658 0.0
H1593 H 0.45376 0.69426 0.87986 0.0
H1594 H 0.32962 0.66879 0.9186 0.0
H1595 H 0.39563 0.67203 0.95597 0.0
C1596 C 0.23971 0.67978 0.85347 0.0
C1597 C 0.27011 0.68004 0.83022 0.0
C1598 C 0.27781 0.67953 0.87478 0.0
C1599 C 0.34742 0.67957 0.87342 0.0
C1600 C 0.37806 0.6792 0.85014 0.0
C1601 C 0.33965 0.6794 0.82868 0.0
C1602 C 0.47763 0.69112 0.91741 0.0
C1603 C 0.46234 0.68494 0.93921 0.0
C1604 C 0.44075 0.68923 0.89619 0.0
C1605 C 0.38737 0.6811 0.89612 0.0
C1606 C 0.37069 0.67511 0.91809 0.0
C1607 C 0.40798 0.67701 0.93951 0.0
H1608 H 0.98684 0.70357 0.43195 0.0
H1609 H 0.93268 0.66639 0.44353 0.0
H1610 H 0.9265 0.70373 0.39345 0.0
H1611 H 0.87033 0.66654 0.40457 0.0
H1612 H 0.83413 0.66927 0.31936 0.0
H1613 H 0.89572 0.66833 0.35847 0.0
H1614 H 0.81286 0.7028 0.3791 0.0
H1615 H 0.75356 0.70377 0.3405 0.0
C1616 C 0.96014 0.69551 0.4265 0.0
C1617 C 0.96315 0.68505 0.44086 0.0
C1618 C 0.92591 0.69558 0.40436 0.0
C1619 C 0.89392 0.68513 0.39587 0.0
C1620 C 0.89518 0.67469 0.41056 0.0
C1621 C 0.92945 0.67466 0.43303 0.0
C1622 C 0.831 0.67674 0.33206 0.0
C1623 C 0.79002 0.68667 0.32687 0.0
C1624 C 0.86498 0.67612 0.35457 0.0
C1625 C 0.85872 0.68546 0.37193 0.0
C1626 C 0.81926 0.6955 0.36614 0.0
C1627 C 0.78545 0.69608 0.34396 0.0
H1628 H 0.53437 0.53942 0.35115 0.0
H1629 H 0.40281 0.56608 0.3198 0.0
H1630 H 0.47548 0.54058 0.38972 0.0
H1631 H 0.3421 0.56713 0.35911 0.0
H1632 H 0.29989 0.57343 0.44295 0.0
H1633 H 0.36394 0.57361 0.40444 0.0
H1634 H 0.36382 0.53468 0.40419 0.0
H1635 H 0.30028 0.53459 0.44222 0.0
C1636 C 0.49226 0.54549 0.35245 0.0
C1637 C 0.47304 0.55265 0.3324 0.0
C1638 C 0.45849 0.54613 0.37462 0.0
C1639 C 0.40438 0.55396 0.37749 0.0
C1640 C 0.38423 0.5611 0.35742 0.0
C1641 C 0.41816 0.56039 0.3349 0.0
C1642 C 0.31589 0.56497 0.43499 0.0
C1643 C 0.29722 0.55399 0.44575 0.0
C1644 C 0.35113 0.56506 0.41278 0.0
C1645 C 0.36844 0.55416 0.40125 0.0
C1646 C 0.35171 0.54322 0.4127 0.0
C1647 C 0.31604 0.54315 0.43459 0.0
H1648 H 0.94896 0.42802 0.15597 0.0
H1649 H 0.12288 0.43297 0.20133 0.0
H1650 H 0.01823 0.42697 0.1197 0.0
H1651 H 0.19348 0.43165 0.16462 0.0
H1652 H 0.27569 0.44818 0.09369 0.0
H1653 H 0.21045 0.44547 0.13061 0.0
H1654 H 0.10185 0.41653 0.09586 0.0
H1655 H 0.16755 0.4194 0.05831 0.0
C1656 C 0.00244 0.42868 0.15821 0.0
C1657 C 0.03059 0.4308 0.18143 0.0
C1658 C 0.0422 0.42796 0.13736 0.0
C1659 C 0.11131 0.42938 0.13914 0.0
C1660 C 0.14009 0.43073 0.16261 0.0
C1661 C 0.09998 0.43139 0.18365 0.0
C1662 C 0.23763 0.44126 0.0938 0.0
C1663 C 0.22651 0.43402 0.07304 0.0
C1664 C 0.20085 0.4396 0.11516 0.0
C1665 C 0.15184 0.43063 0.11644 0.0
C1666 C 0.13941 0.42353 0.09547 0.0
C1667 C 0.17647 0.42522 0.07391 0.0
H1668 H 0.74285 0.28546 0.17443 0.0
H1669 H 0.66251 0.32035 0.1929 0.0
H1670 H 0.68455 0.28585 0.1355 0.0
H1671 H 0.60258 0.32075 0.15341 0.0
H1672 H 0.57116 0.32129 0.06783 0.0
H1673 H 0.63223 0.3216 0.10704 0.0
H1674 H 0.56909 0.28503 0.12117 0.0
H1675 H 0.50947 0.28476 0.08245 0.0
C1676 C 0.71131 0.29312 0.1703 0.0
C1677 C 0.70627 0.3028 0.18674 0.0
C1678 C 0.67817 0.29337 0.14794 0.0
C1679 C 0.63934 0.30336 0.14132 0.0
C1680 C 0.63284 0.31299 0.15799 0.0
C1681 C 0.66589 0.31268 0.1807 0.0
C1682 C 0.57247 0.31324 0.07907 0.0
C1683 C 0.53695 0.30292 0.07204 0.0
C1684 C 0.60605 0.31349 0.10165 0.0
C1685 C 0.60495 0.30336 0.11724 0.0
C1686 C 0.5713 0.29294 0.10956 0.0
C1687 C 0.53755 0.29275 0.08731 0.0
H1688 H 0.9749 0.29818 0.60299 0.0
H1689 H 0.12972 0.31054 0.554 0.0
H1690 H 0.0474 0.30086 0.63759 0.0
H1691 H 0.20354 0.31348 0.58952 0.0
H1692 H 0.33038 0.29959 0.65578 0.0
H1693 H 0.26166 0.301 0.61939 0.0
H1694 H 0.10097 0.31553 0.66296 0.0
H1695 H 0.16973 0.31378 0.69983 0.0
C1696 C 0.02455 0.30159 0.59954 0.0
C1697 C 0.04657 0.3041 0.57557 0.0
C1698 C 0.06601 0.30326 0.61961 0.0
C1699 C 0.13105 0.30753 0.61648 0.0
C1700 C 0.15355 0.31014 0.59253 0.0
C1701 C 0.11151 0.30846 0.5722 0.0
C1702 C 0.28047 0.30317 0.65768 0.0
C1703 C 0.25503 0.30639 0.68082 0.0
C1704 C 0.24134 0.3041 0.63665 0.0
C1705 C 0.17568 0.30831 0.63819 0.0
C1706 C 0.15113 0.31206 0.6612 0.0
C1707 C 0.19038 0.31109 0.68233 0.0
H1708 H 0.59565 0.42258 0.69766 0.0
H1709 H 0.43689 0.43819 0.65472 0.0
H1710 H 0.66377 0.42098 0.66054 0.0
H1711 H 0.50488 0.43698 0.61818 0.0
H1712 H 0.62793 0.4269 0.5516 0.0
H1713 H 0.55663 0.42439 0.58786 0.0
H1714 H 0.72116 0.43461 0.63445 0.0
H1715 H 0.79147 0.43676 0.59899 0.0
C1716 C 0.57542 0.42568 0.68037 0.0
C1717 C 0.51119 0.43059 0.67921 0.0
C1718 C 0.61429 0.42479 0.65909 0.0
C1719 C 0.58982 0.42887 0.6363 0.0
C1720 C 0.52504 0.43354 0.63522 0.0
C1721 C 0.48628 0.43436 0.65634 0.0
C1722 C 0.6486 0.42851 0.56963 0.0
C1723 C 0.71517 0.4321 0.57231 0.0
C1724 C 0.60792 0.42711 0.59041 0.0
C1725 C 0.63325 0.42926 0.61417 0.0
C1726 C 0.70011 0.43263 0.61663 0.0
C1727 C 0.74035 0.43401 0.59609 0.0
loop_
_geom_bond_atom_site_label_1
_geom_bond_atom_site_label_2
_geom_bond_distance
_geom_bond_site_symmetry_2
_ccdc_geom_bond_type
Co0 O1 2.216 . S
Co0 O2 2.091 1_455 S
Co0 O4 2.004 . S
Co0 O10 2.021 . S
Co0 O12 2.137 . S
Co0 O13 2.244 . S
O1 Co0 2.216 . S
O1 C8 1.247 1_455 S
O2 Co0 2.091 1_655 S
O2 C8 1.261 . S
C3 O12 1.247 . S
C3 O13 1.272 . S
O4 Co0 2.004 . S
O4 C9 1.259 . S
Co5 O6 2.061 . S
Co5 O11 2.052 . S
Co5 O13 2.135 . S
O6 Co5 2.061 . S
O6 C9 1.235 . S
C7 O10 1.238 . S
C7 O11 1.241 . S
C8 O1 1.247 1_655 S
C8 O2 1.261 . S
C9 O4 1.259 . S
C9 O6 1.235 . S
O10 Co0 2.021 . S
O10 C7 1.238 . S
O11 Co5 2.052 . S
O11 C7 1.241 . S
O12 Co0 2.137 . S
O12 C3 1.247 . S
O13 Co0 2.244 . S
O13 C3 1.272 . S
O13 Co5 2.135 . S
Co14 O15 2.216 . S
Co14 O16 2.091 . S
Co14 O18 2.004 . S
Co14 O24 2.021 . S
Co14 O26 2.137 . S
Co14 O27 2.244 . S
O15 Co14 2.216 . S
O15 C22 1.247 . S
O16 Co14 2.091 . S
O16 C22 1.261 . S
C17 O26 1.247 . S
C17 O27 1.272 . S
O18 Co14 2.004 . S
O18 C23 1.259 . S
Co19 O20 2.061 . S
Co19 O25 2.052 . S
Co19 O27 2.135 . S
O20 Co19 2.061 . S
O20 C23 1.235 . S
C21 O24 1.238 . S
C21 O25 1.241 . S
C22 O15 1.247 . S
C22 O16 1.261 . S
C23 O18 1.259 . S
C23 O20 1.235 . S
O24 Co14 2.021 . S
O24 C21 1.238 . S
O25 Co19 2.052 . S
O25 C21 1.241 . S
O26 Co14 2.137 . S
O26 C17 1.247 . S
O27 Co14 2.244 . S
O27 C17 1.272 . S
O27 Co19 2.135 . S
Co28 O29 2.216 . S
Co28 O30 2.091 1_455 S
Co28 O32 2.004 1_556 S
Co28 O38 2.021 . S
Co28 O40 2.137 . S
Co28 O41 2.244 . S
O29 Co28 2.216 . S
O29 C36 1.247 1_455 S
O30 Co28 2.091 1_655 S
O30 C36 1.261 . S
C31 O40 1.247 . S
C31 O41 1.272 . S
O32 Co28 2.004 1_554 S
O32 C37 1.259 . S
Co33 O34 2.061 . S
Co33 O39 2.052 1_554 S
Co33 O41 2.135 1_554 S
O34 Co33 2.061 . S
O34 C37 1.235 . S
C35 O38 1.238 . S
C35 O39 1.241 . S
C36 O29 1.247 1_655 S
C36 O30 1.261 . S
C37 O32 1.259 . S
C37 O34 1.235 . S
O38 Co28 2.021 . S
O38 C35 1.238 . S
O39 Co33 2.052 1_556 S
O39 C35 1.241 . S
O40 Co28 2.137 . S
O40 C31 1.247 . S
O41 Co28 2.244 . S
O41 C31 1.272 . S
O41 Co33 2.135 1_556 S
Co42 O43 2.216 . S
Co42 O44 2.091 . S
Co42 O46 2.004 1_556 S
Co42 O52 2.021 . S
Co42 O54 2.137 . S
Co42 O55 2.244 . S
O43 Co42 2.216 . S
O43 C50 1.247 . S
O44 Co42 2.091 . S
O44 C50 1.261 . S
C45 O54 1.247 . S
C45 O55 1.272 . S
O46 Co42 2.004 1_554 S
O46 C51 1.259 . S
Co47 O48 2.061 . S
Co47 O53 2.052 1_554 S
Co47 O55 2.135 1_554 S
O48 Co47 2.061 . S
O48 C51 1.235 . S
C49 O52 1.238 . S
C49 O53 1.241 . S
C50 O43 1.247 . S
C50 O44 1.261 . S
C51 O46 1.259 . S
C51 O48 1.235 . S
O52 Co42 2.021 . S
O52 C49 1.238 . S
O53 Co47 2.052 1_556 S
O53 C49 1.241 . S
O54 Co42 2.137 . S
O54 C45 1.247 . S
O55 Co42 2.244 . S
O55 C45 1.272 . S
O55 Co47 2.135 1_556 S
Co56 O57 2.216 . S
Co56 O58 2.091 1_655 S
Co56 O60 2.004 . S
Co56 O66 2.021 . S
Co56 O68 2.137 . S
Co56 O69 2.244 . S
O57 Co56 2.216 . S
O57 C64 1.247 1_655 S
O58 Co56 2.091 1_455 S
O58 C64 1.261 . S
C59 O68 1.247 . S
C59 O69 1.272 . S
O60 Co56 2.004 . S
O60 C65 1.259 . S
Co61 O62 2.061 . S
Co61 O67 2.052 . S
Co61 O69 2.135 . S
O62 Co61 2.061 . S
O62 C65 1.235 . S
C63 O66 1.238 . S
C63 O67 1.241 . S
C64 O57 1.247 1_455 S
C64 O58 1.261 . S
C65 O60 1.259 . S
C65 O62 1.235 . S
O66 Co56 2.021 . S
O66 C63 1.238 . S
O67 Co61 2.052 . S
O67 C63 1.241 . S
O68 Co56 2.137 . S
O68 C59 1.247 . S
O69 Co56 2.244 . S
O69 C59 1.272 . S
O69 Co61 2.135 . S
Co70 O71 2.216 . S
Co70 O72 2.091 . S
Co70 O74 2.004 . S
Co70 O80 2.021 . S
Co70 O82 2.137 . S
Co70 O83 2.244 . S
O71 Co70 2.216 . S
O71 C78 1.247 . S
O72 Co70 2.091 . S
O72 C78 1.261 . S
C73 O82 1.247 . S
C73 O83 1.272 . S
O74 Co70 2.004 . S
O74 C79 1.259 . S
Co75 O76 2.061 . S
Co75 O81 2.052 . S
Co75 O83 2.135 . S
O76 Co75 2.061 . S
O76 C79 1.235 . S
C77 O80 1.238 . S
C77 O81 1.241 . S
C78 O71 1.247 . S
C78 O72 1.261 . S
C79 O74 1.259 . S
C79 O76 1.235 . S
O80 Co70 2.021 . S
O80 C77 1.238 . S
O81 Co75 2.052 . S
O81 C77 1.241 . S
O82 Co70 2.137 . S
O82 C73 1.247 . S
O83 Co70 2.244 . S
O83 C73 1.272 . S
O83 Co75 2.135 . S
Co84 O85 2.216 . S
Co84 O86 2.091 1_655 S
Co84 O88 2.004 1_554 S
Co84 O94 2.021 . S
Co84 O96 2.137 . S
Co84 O97 2.244 . S
O85 Co84 2.216 . S
O85 C92 1.247 1_655 S
O86 Co84 2.091 1_455 S
O86 C92 1.261 . S
C87 O96 1.247 . S
C87 O97 1.272 . S
O88 Co84 2.004 1_556 S
O88 C93 1.259 . S
Co89 O90 2.061 . S
Co89 O95 2.052 1_556 S
Co89 O97 2.135 1_556 S
O90 Co89 2.061 . S
O90 C93 1.235 . S
C91 O94 1.238 . S
C91 O95 1.241 . S
C92 O85 1.247 1_455 S
C92 O86 1.261 . S
C93 O88 1.259 . S
C93 O90 1.235 . S
O94 Co84 2.021 . S
O94 C91 1.238 . S
O95 Co89 2.052 1_554 S
O95 C91 1.241 . S
O96 Co84 2.137 . S
O96 C87 1.247 . S
O97 Co84 2.244 . S
O97 C87 1.272 . S
O97 Co89 2.135 1_554 S
Co98 O99 2.216 . S
Co98 O100 2.091 . S
Co98 O102 2.004 1_554 S
Co98 O108 2.021 . S
Co98 O110 2.137 . S
Co98 O111 2.244 . S
O99 Co98 2.216 . S
O99 C106 1.247 . S
O100 Co98 2.091 . S
O100 C106 1.261 . S
C101 O110 1.247 . S
C101 O111 1.272 . S
O102 Co98 2.004 1_556 S
O102 C107 1.259 . S
Co103 O104 2.061 . S
Co103 O109 2.052 1_556 S
Co103 O111 2.135 1_556 S
O104 Co103 2.061 . S
O104 C107 1.235 . S
C105 O108 1.238 . S
C105 O109 1.241 . S
C106 O99 1.247 . S
C106 O100 1.261 . S
C107 O102 1.259 . S
C107 O104 1.235 . S
O108 Co98 2.021 . S
O108 C105 1.238 . S
O109 Co103 2.052 1_554 S
O109 C105 1.241 . S
O110 Co98 2.137 . S
O110 C101 1.247 . S
O111 Co98 2.244 . S
O111 C101 1.272 . S
O111 Co103 2.135 1_554 S
Co112 O113 2.216 . S
Co112 O114 2.091 1_455 S
Co112 O116 2.004 . S
Co112 O122 2.021 . S
Co112 O124 2.137 . S
Co112 O125 2.244 . S
O113 Co112 2.216 . S
O113 C120 1.247 1_455 S
O114 Co112 2.091 1_655 S
O114 C120 1.261 . S
C115 O124 1.247 . S
C115 O125 1.272 . S
O116 Co112 2.004 . S
O116 C121 1.259 . S
Co117 O118 2.061 . S
Co117 O123 2.052 . S
Co117 O125 2.135 . S
O118 Co117 2.061 . S
O118 C121 1.235 . S
C119 O122 1.238 . S
C119 O123 1.241 . S
C120 O113 1.247 1_655 S
C120 O114 1.261 . S
C121 O116 1.259 . S
C121 O118 1.235 . S
O122 Co112 2.021 . S
O122 C119 1.238 . S
O123 Co117 2.052 . S
O123 C119 1.241 . S
O124 Co112 2.137 . S
O124 C115 1.247 . S
O125 Co112 2.244 . S
O125 C115 1.272 . S
O125 Co117 2.135 . S
Co126 O127 2.216 . S
Co126 O128 2.091 . S
Co126 O130 2.004 . S
Co126 O136 2.021 . S
Co126 O138 2.137 . S
Co126 O139 2.244 . S
O127 Co126 2.216 . S
O127 C134 1.247 . S
O128 Co126 2.091 . S
O128 C134 1.261 . S
C129 O138 1.247 . S
C129 O139 1.272 . S
O130 Co126 2.004 . S
O130 C135 1.259 . S
Co131 O132 2.061 . S
Co131 O137 2.052 . S
Co131 O139 2.135 . S
O132 Co131 2.061 . S
O132 C135 1.235 . S
C133 O136 1.238 . S
C133 O137 1.241 . S
C134 O127 1.247 . S
C134 O128 1.261 . S
C135 O130 1.259 . S
C135 O132 1.235 . S
O136 Co126 2.021 . S
O136 C133 1.238 . S
O137 Co131 2.052 . S
O137 C133 1.241 . S
O138 Co126 2.137 . S
O138 C129 1.247 . S
O139 Co126 2.244 . S
O139 C129 1.272 . S
O139 Co131 2.135 . S
Co140 O141 2.216 . S
Co140 O142 2.091 1_455 S
Co140 O144 2.004 . S
Co140 O150 2.021 . S
Co140 O152 2.137 . S
Co140 O153 2.244 . S
O141 Co140 2.216 . S
O141 C148 1.247 1_455 S
O142 Co140 2.091 1_655 S
O142 C148 1.261 . S
C143 O152 1.247 . S
C143 O153 1.272 . S
O144 Co140 2.004 . S
O144 C149 1.259 . S
Co145 O146 2.061 . S
Co145 O151 2.052 . S
Co145 O153 2.135 . S
O146 Co145 2.061 . S
O146 C149 1.235 . S
C147 O150 1.238 . S
C147 O151 1.241 . S
C148 O141 1.247 1_655 S
C148 O142 1.261 . S
C149 O144 1.259 . S
C149 O146 1.235 . S
O150 Co140 2.021 . S
O150 C147 1.238 . S
O151 Co145 2.052 . S
O151 C147 1.241 . S
O152 Co140 2.137 . S
O152 C143 1.247 . S
O153 Co140 2.244 . S
O153 C143 1.272 . S
O153 Co145 2.135 . S
Co154 O155 2.216 . S
Co154 O156 2.091 . S
Co154 O158 2.004 . S
Co154 O164 2.021 . S
Co154 O166 2.137 . S
Co154 O167 2.244 . S
O155 Co154 2.216 . S
O155 C162 1.247 . S
O156 Co154 2.091 . S
O156 C162 1.261 . S
C157 O166 1.247 . S
C157 O167 1.272 . S
O158 Co154 2.004 . S
O158 C163 1.259 . S
Co159 O160 2.061 . S
Co159 O165 2.052 . S
Co159 O167 2.135 . S
O160 Co159 2.061 . S
O160 C163 1.235 . S
C161 O164 1.238 . S
C161 O165 1.241 . S
C162 O155 1.247 . S
C162 O156 1.261 . S
C163 O158 1.259 . S
C163 O160 1.235 . S
O164 Co154 2.021 . S
O164 C161 1.238 . S
O165 Co159 2.052 . S
O165 C161 1.241 . S
O166 Co154 2.137 . S
O166 C157 1.247 . S
O167 Co154 2.244 . S
O167 C157 1.272 . S
O167 Co159 2.135 . S
Co168 O169 2.216 . S
Co168 O170 2.091 1_655 S
Co168 O172 2.004 . S
Co168 O178 2.021 . S
Co168 O180 2.137 . S
Co168 O181 2.244 . S
O169 Co168 2.216 . S
O169 C176 1.247 1_655 S
O170 Co168 2.091 1_455 S
O170 C176 1.261 . S
C171 O180 1.247 . S
C171 O181 1.272 . S
O172 Co168 2.004 . S
O172 C177 1.259 . S
Co173 O174 2.061 . S
Co173 O179 2.052 . S
Co173 O181 2.135 . S
O174 Co173 2.061 . S
O174 C177 1.235 . S
C175 O178 1.238 . S
C175 O179 1.241 . S
C176 O169 1.247 1_455 S
C176 O170 1.261 . S
C177 O172 1.259 . S
C177 O174 1.235 . S
O178 Co168 2.021 . S
O178 C175 1.238 . S
O179 Co173 2.052 . S
O179 C175 1.241 . S
O180 Co168 2.137 . S
O180 C171 1.247 . S
O181 Co168 2.244 . S
O181 C171 1.272 . S
O181 Co173 2.135 . S
Co182 O183 2.216 . S
Co182 O184 2.091 . S
Co182 O186 2.004 . S
Co182 O192 2.021 . S
Co182 O194 2.137 . S
Co182 O195 2.244 . S
O183 Co182 2.216 . S
O183 C190 1.247 . S
O184 Co182 2.091 . S
O184 C190 1.261 . S
C185 O194 1.247 . S
C185 O195 1.272 . S
O186 Co182 2.004 . S
O186 C191 1.259 . S
Co187 O188 2.061 . S
Co187 O193 2.052 . S
Co187 O195 2.135 . S
O188 Co187 2.061 . S
O188 C191 1.235 . S
C189 O192 1.238 . S
C189 O193 1.241 . S
C190 O183 1.247 . S
C190 O184 1.261 . S
C191 O186 1.259 . S
C191 O188 1.235 . S
O192 Co182 2.021 . S
O192 C189 1.238 . S
O193 Co187 2.052 . S
O193 C189 1.241 . S
O194 Co182 2.137 . S
O194 C185 1.247 . S
O195 Co182 2.244 . S
O195 C185 1.272 . S
O195 Co187 2.135 . S
Co196 O197 2.216 . S
Co196 O198 2.091 1_655 S
Co196 O200 2.004 . S
Co196 O206 2.021 . S
Co196 O208 2.137 . S
Co196 O209 2.244 . S
O197 Co196 2.216 . S
O197 C204 1.247 1_655 S
O198 Co196 2.091 1_455 S
O198 C204 1.261 . S
C199 O208 1.247 . S
C199 O209 1.272 . S
O200 Co196 2.004 . S
O200 C205 1.259 . S
Co201 O202 2.061 . S
Co201 O207 2.052 . S
Co201 O209 2.135 . S
O202 Co201 2.061 . S
O202 C205 1.235 . S
C203 O206 1.238 . S
C203 O207 1.241 . S
C204 O197 1.247 1_455 S
C204 O198 1.261 . S
C205 O200 1.259 . S
C205 O202 1.235 . S
O206 Co196 2.021 . S
O206 C203 1.238 . S
O207 Co201 2.052 . S
O207 C203 1.241 . S
O208 Co196 2.137 . S
O208 C199 1.247 . S
O209 Co196 2.244 . S
O209 C199 1.272 . S
O209 Co201 2.135 . S
Co210 O211 2.216 . S
Co210 O212 2.091 . S
Co210 O214 2.004 . S
Co210 O220 2.021 . S
Co210 O222 2.137 . S
Co210 O223 2.244 . S
O211 Co210 2.216 . S
O211 C218 1.247 . S
O212 Co210 2.091 . S
O212 C218 1.261 . S
C213 O222 1.247 . S
C213 O223 1.272 . S
O214 Co210 2.004 . S
O214 C219 1.259 . S
Co215 O216 2.061 . S
Co215 O221 2.052 . S
Co215 O223 2.135 . S
O216 Co215 2.061 . S
O216 C219 1.235 . S
C217 O220 1.238 . S
C217 O221 1.241 . S
C218 O211 1.247 . S
C218 O212 1.261 . S
C219 O214 1.259 . S
C219 O216 1.235 . S
O220 Co210 2.021 . S
O220 C217 1.238 . S
O221 Co215 2.052 . S
O221 C217 1.241 . S
O222 Co210 2.137 . S
O222 C213 1.247 . S
O223 Co210 2.244 . S
O223 C213 1.272 . S
O223 Co215 2.135 . S
Co224 O225 2.216 . S
Co224 O226 2.091 . S
Co224 O228 2.004 . S
Co224 O234 2.021 . S
Co224 O236 2.137 . S
Co224 O237 2.244 . S
O225 Co224 2.216 . S
O225 C232 1.247 . S
O226 Co224 2.091 . S
O226 C232 1.261 . S
C227 O236 1.247 . S
C227 O237 1.272 . S
O228 Co224 2.004 . S
O228 C233 1.259 . S
Co229 O230 2.061 . S
Co229 O235 2.052 . S
Co229 O237 2.135 . S
O230 Co229 2.061 . S
O230 C233 1.235 . S
C231 O234 1.238 . S
C231 O235 1.241 . S
C232 O225 1.247 . S
C232 O226 1.261 . S
C233 O228 1.259 . S
C233 O230 1.235 . S
O234 Co224 2.021 . S
O234 C231 1.238 . S
O235 Co229 2.052 . S
O235 C231 1.241 . S
O236 Co224 2.137 . S
O236 C227 1.247 . S
O237 Co224 2.244 . S
O237 C227 1.272 . S
O237 Co229 2.135 . S
Co238 O239 2.216 . S
Co238 O240 2.091 . S
Co238 O242 2.004 . S
Co238 O248 2.021 . S
Co238 O250 2.137 . S
Co238 O251 2.244 . S
O239 Co238 2.216 . S
O239 C246 1.247 . S
O240 Co238 2.091 . S
O240 C246 1.261 . S
C241 O250 1.247 . S
C241 O251 1.272 . S
O242 Co238 2.004 . S
O242 C247 1.259 . S
Co243 O244 2.061 . S
Co243 O249 2.052 . S
Co243 O251 2.135 . S
O244 Co243 2.061 . S
O244 C247 1.235 . S
C245 O248 1.238 . S
C245 O249 1.241 . S
C246 O239 1.247 . S
C246 O240 1.261 . S
C247 O242 1.259 . S
C247 O244 1.235 . S
O248 Co238 2.021 . S
O248 C245 1.238 . S
O249 Co243 2.052 . S
O249 C245 1.241 . S
O250 Co238 2.137 . S
O250 C241 1.247 . S
O251 Co238 2.244 . S
O251 C241 1.272 . S
O251 Co243 2.135 . S
Co252 O253 2.216 . S
Co252 O254 2.091 . S
Co252 O256 2.004 . S
Co252 O262 2.021 . S
Co252 O264 2.137 . S
Co252 O265 2.244 . S
O253 Co252 2.216 . S
O253 C260 1.247 . S
O254 Co252 2.091 . S
O254 C260 1.261 . S
C255 O264 1.247 . S
C255 O265 1.272 . S
O256 Co252 2.004 . S
O256 C261 1.259 . S
Co257 O258 2.061 . S
Co257 O263 2.052 . S
Co257 O265 2.135 . S
O258 Co257 2.061 . S
O258 C261 1.235 . S
C259 O262 1.238 . S
C259 O263 1.241 . S
C260 O253 1.247 . S
C260 O254 1.261 . S
C261 O256 1.259 . S
C261 O258 1.235 . S
O262 Co252 2.021 . S
O262 C259 1.238 . S
O263 Co257 2.052 . S
O263 C259 1.241 . S
O264 Co252 2.137 . S
O264 C255 1.247 . S
O265 Co252 2.244 . S
O265 C255 1.272 . S
O265 Co257 2.135 . S
Co266 O267 2.216 . S
Co266 O268 2.091 . S
Co266 O270 2.004 . S
Co266 O276 2.021 . S
Co266 O278 2.137 . S
Co266 O279 2.244 . S
O267 Co266 2.216 . S
O267 C274 1.247 . S
O268 Co266 2.091 . S
O268 C274 1.261 . S
C269 O278 1.247 . S
C269 O279 1.272 . S
O270 Co266 2.004 . S
O270 C275 1.259 . S
Co271 O272 2.061 . S
Co271 O277 2.052 . S
Co271 O279 2.135 . S
O272 Co271 2.061 . S
O272 C275 1.235 . S
C273 O276 1.238 . S
C273 O277 1.241 . S
C274 O267 1.247 . S
C274 O268 1.261 . S
C275 O270 1.259 . S
C275 O272 1.235 . S
O276 Co266 2.021 . S
O276 C273 1.238 . S
O277 Co271 2.052 . S
O277 C273 1.241 . S
O278 Co266 2.137 . S
O278 C269 1.247 . S
O279 Co266 2.244 . S
O279 C269 1.272 . S
O279 Co271 2.135 . S
Co280 O281 2.216 . S
Co280 O282 2.091 . S
Co280 O284 2.004 . S
Co280 O290 2.021 . S
Co280 O292 2.137 . S
Co280 O293 2.244 . S
O281 Co280 2.216 . S
O281 C288 1.247 . S
O282 Co280 2.091 . S
O282 C288 1.261 . S
C283 O292 1.247 . S
C283 O293 1.272 . S
O284 Co280 2.004 . S
O284 C289 1.259 . S
Co285 O286 2.061 . S
Co285 O291 2.052 . S
Co285 O293 2.135 . S
O286 Co285 2.061 . S
O286 C289 1.235 . S
C287 O290 1.238 . S
C287 O291 1.241 . S
C288 O281 1.247 . S
C288 O282 1.261 . S
C289 O284 1.259 . S
C289 O286 1.235 . S
O290 Co280 2.021 . S
O290 C287 1.238 . S
O291 Co285 2.052 . S
O291 C287 1.241 . S
O292 Co280 2.137 . S
O292 C283 1.247 . S
O293 Co280 2.244 . S
O293 C283 1.272 . S
O293 Co285 2.135 . S
Co294 O295 2.216 . S
Co294 O296 2.091 . S
Co294 O298 2.004 . S
Co294 O304 2.021 . S
Co294 O306 2.137 . S
Co294 O307 2.244 . S
O295 Co294 2.216 . S
O295 C302 1.247 . S
O296 Co294 2.091 . S
O296 C302 1.261 . S
C297 O306 1.247 . S
C297 O307 1.272 . S
O298 Co294 2.004 . S
O298 C303 1.259 . S
Co299 O300 2.061 . S
Co299 O305 2.052 . S
Co299 O307 2.135 . S
O300 Co299 2.061 . S
O300 C303 1.235 . S
C301 O304 1.238 . S
C301 O305 1.241 . S
C302 O295 1.247 . S
C302 O296 1.261 . S
C303 O298 1.259 . S
C303 O300 1.235 . S
O304 Co294 2.021 . S
O304 C301 1.238 . S
O305 Co299 2.052 . S
O305 C301 1.241 . S
O306 Co294 2.137 . S
O306 C297 1.247 . S
O307 Co294 2.244 . S
O307 C297 1.272 . S
O307 Co299 2.135 . S
Co308 O309 2.216 . S
Co308 O310 2.091 . S
Co308 O312 2.004 . S
Co308 O318 2.021 . S
Co308 O320 2.137 . S
Co308 O321 2.244 . S
O309 Co308 2.216 . S
O309 C316 1.247 . S
O310 Co308 2.091 . S
O310 C316 1.261 . S
C311 O320 1.247 . S
C311 O321 1.272 . S
O312 Co308 2.004 . S
O312 C317 1.259 . S
Co313 O314 2.061 . S
Co313 O319 2.052 . S
Co313 O321 2.135 . S
O314 Co313 2.061 . S
O314 C317 1.235 . S
C315 O318 1.238 . S
C315 O319 1.241 . S
C316 O309 1.247 . S
C316 O310 1.261 . S
C317 O312 1.259 . S
C317 O314 1.235 . S
O318 Co308 2.021 . S
O318 C315 1.238 . S
O319 Co313 2.052 . S
O319 C315 1.241 . S
O320 Co308 2.137 . S
O320 C311 1.247 . S
O321 Co308 2.244 . S
O321 C311 1.272 . S
O321 Co313 2.135 . S
Co322 O323 2.216 . S
Co322 O324 2.091 . S
Co322 O326 2.004 . S
Co322 O332 2.021 . S
Co322 O334 2.137 . S
Co322 O335 2.244 . S
O323 Co322 2.216 . S
O323 C330 1.247 . S
O324 Co322 2.091 . S
O324 C330 1.261 . S
C325 O334 1.247 . S
C325 O335 1.272 . S
O326 Co322 2.004 . S
O326 C331 1.259 . S
Co327 O328 2.061 . S
Co327 O333 2.052 . S
Co327 O335 2.135 . S
O328 Co327 2.061 . S
O328 C331 1.235 . S
C329 O332 1.238 . S
C329 O333 1.241 . S
C330 O323 1.247 . S
C330 O324 1.261 . S
C331 O326 1.259 . S
C331 O328 1.235 . S
O332 Co322 2.021 . S
O332 C329 1.238 . S
O333 Co327 2.052 . S
O333 C329 1.241 . S
O334 Co322 2.137 . S
O334 C325 1.247 . S
O335 Co322 2.244 . S
O335 C325 1.272 . S
O335 Co327 2.135 . S
Co336 O337 2.216 . S
Co336 O338 2.091 . S
Co336 O340 2.004 . S
Co336 O346 2.021 . S
Co336 O348 2.137 . S
Co336 O349 2.244 . S
O337 Co336 2.216 . S
O337 C344 1.247 . S
O338 Co336 2.091 . S
O338 C344 1.261 . S
C339 O348 1.247 . S
C339 O349 1.272 . S
O340 Co336 2.004 . S
O340 C345 1.259 . S
Co341 O342 2.061 . S
Co341 O347 2.052 . S
Co341 O349 2.135 . S
O342 Co341 2.061 . S
O342 C345 1.235 . S
C343 O346 1.238 . S
C343 O347 1.241 . S
C344 O337 1.247 . S
C344 O338 1.261 . S
C345 O340 1.259 . S
C345 O342 1.235 . S
O346 Co336 2.021 . S
O346 C343 1.238 . S
O347 Co341 2.052 . S
O347 C343 1.241 . S
O348 Co336 2.137 . S
O348 C339 1.247 . S
O349 Co336 2.244 . S
O349 C339 1.272 . S
O349 Co341 2.135 . S
Co350 O351 2.216 . S
Co350 O352 2.091 . S
Co350 O354 2.004 . S
Co350 O360 2.021 . S
Co350 O362 2.137 . S
Co350 O363 2.244 . S
O351 Co350 2.216 . S
O351 C358 1.247 . S
O352 Co350 2.091 . S
O352 C358 1.261 . S
C353 O362 1.247 . S
C353 O363 1.272 . S
O354 Co350 2.004 . S
O354 C359 1.259 . S
Co355 O356 2.061 . S
Co355 O361 2.052 . S
Co355 O363 2.135 . S
O356 Co355 2.061 . S
O356 C359 1.235 . S
C357 O360 1.238 . S
C357 O361 1.241 . S
C358 O351 1.247 . S
C358 O352 1.261 . S
C359 O354 1.259 . S
C359 O356 1.235 . S
O360 Co350 2.021 . S
O360 C357 1.238 . S
O361 Co355 2.052 . S
O361 C357 1.241 . S
O362 Co350 2.137 . S
O362 C353 1.247 . S
O363 Co350 2.244 . S
O363 C353 1.272 . S
O363 Co355 2.135 . S
Co364 O365 2.216 . S
Co364 O366 2.091 . S
Co364 O368 2.004 1_556 S
Co364 O374 2.021 . S
Co364 O376 2.137 . S
Co364 O377 2.244 . S
O365 Co364 2.216 . S
O365 C372 1.247 . S
O366 Co364 2.091 . S
O366 C372 1.261 . S
C367 O376 1.247 . S
C367 O377 1.272 . S
O368 Co364 2.004 1_554 S
O368 C373 1.259 . S
Co369 O370 2.061 . S
Co369 O375 2.052 1_554 S
Co369 O377 2.135 1_554 S
O370 Co369 2.061 . S
O370 C373 1.235 . S
C371 O374 1.238 . S
C371 O375 1.241 . S
C372 O365 1.247 . S
C372 O366 1.261 . S
C373 O368 1.259 . S
C373 O370 1.235 . S
O374 Co364 2.021 . S
O374 C371 1.238 . S
O375 Co369 2.052 1_556 S
O375 C371 1.241 . S
O376 Co364 2.137 . S
O376 C367 1.247 . S
O377 Co364 2.244 . S
O377 C367 1.272 . S
O377 Co369 2.135 1_556 S
Co378 O379 2.216 . S
Co378 O380 2.091 . S
Co378 O382 2.004 1_556 S
Co378 O388 2.021 . S
Co378 O390 2.137 . S
Co378 O391 2.244 . S
O379 Co378 2.216 . S
O379 C386 1.247 . S
O380 Co378 2.091 . S
O380 C386 1.261 . S
C381 O390 1.247 . S
C381 O391 1.272 . S
O382 Co378 2.004 1_554 S
O382 C387 1.259 . S
Co383 O384 2.061 . S
Co383 O389 2.052 1_554 S
Co383 O391 2.135 1_554 S
O384 Co383 2.061 . S
O384 C387 1.235 . S
C385 O388 1.238 . S
C385 O389 1.241 . S
C386 O379 1.247 . S
C386 O380 1.261 . S
C387 O382 1.259 . S
C387 O384 1.235 . S
O388 Co378 2.021 . S
O388 C385 1.238 . S
O389 Co383 2.052 1_556 S
O389 C385 1.241 . S
O390 Co378 2.137 . S
O390 C381 1.247 . S
O391 Co378 2.244 . S
O391 C381 1.272 . S
O391 Co383 2.135 1_556 S
Co392 O393 2.216 . S
Co392 O394 2.091 . S
Co392 O396 2.004 . S
Co392 O402 2.021 . S
Co392 O404 2.137 . S
Co392 O405 2.244 . S
O393 Co392 2.216 . S
O393 C400 1.247 . S
O394 Co392 2.091 . S
O394 C400 1.261 . S
C395 O404 1.247 . S
C395 O405 1.272 . S
O396 Co392 2.004 . S
O396 C401 1.259 . S
Co397 O398 2.061 . S
Co397 O403 2.052 . S
Co397 O405 2.135 . S
O398 Co397 2.061 . S
O398 C401 1.235 . S
C399 O402 1.238 . S
C399 O403 1.241 . S
C400 O393 1.247 . S
C400 O394 1.261 . S
C401 O396 1.259 . S
C401 O398 1.235 . S
O402 Co392 2.021 . S
O402 C399 1.238 . S
O403 Co397 2.052 . S
O403 C399 1.241 . S
O404 Co392 2.137 . S
O404 C395 1.247 . S
O405 Co392 2.244 . S
O405 C395 1.272 . S
O405 Co397 2.135 . S
Co406 O407 2.216 . S
Co406 O408 2.091 . S
Co406 O410 2.004 . S
Co406 O416 2.021 . S
Co406 O418 2.137 . S
Co406 O419 2.244 . S
O407 Co406 2.216 . S
O407 C414 1.247 . S
O408 Co406 2.091 . S
O408 C414 1.261 . S
C409 O418 1.247 . S
C409 O419 1.272 . S
O410 Co406 2.004 . S
O410 C415 1.259 . S
Co411 O412 2.061 . S
Co411 O417 2.052 . S
Co411 O419 2.135 . S
O412 Co411 2.061 . S
O412 C415 1.235 . S
C413 O416 1.238 . S
C413 O417 1.241 . S
C414 O407 1.247 . S
C414 O408 1.261 . S
C415 O410 1.259 . S
C415 O412 1.235 . S
O416 Co406 2.021 . S
O416 C413 1.238 . S
O417 Co411 2.052 . S
O417 C413 1.241 . S
O418 Co406 2.137 . S
O418 C409 1.247 . S
O419 Co406 2.244 . S
O419 C409 1.272 . S
O419 Co411 2.135 . S
Co420 O421 2.216 . S
Co420 O422 2.091 . S
Co420 O424 2.004 1_554 S
Co420 O430 2.021 . S
Co420 O432 2.137 . S
Co420 O433 2.244 . S
O421 Co420 2.216 . S
O421 C428 1.247 . S
O422 Co420 2.091 . S
O422 C428 1.261 . S
C423 O432 1.247 . S
C423 O433 1.272 . S
O424 Co420 2.004 1_556 S
O424 C429 1.259 . S
Co425 O426 2.061 . S
Co425 O431 2.052 1_556 S
Co425 O433 2.135 1_556 S
O426 Co425 2.061 . S
O426 C429 1.235 . S
C427 O430 1.238 . S
C427 O431 1.241 . S
C428 O421 1.247 . S
C428 O422 1.261 . S
C429 O424 1.259 . S
C429 O426 1.235 . S
O430 Co420 2.021 . S
O430 C427 1.238 . S
O431 Co425 2.052 1_554 S
O431 C427 1.241 . S
O432 Co420 2.137 . S
O432 C423 1.247 . S
O433 Co420 2.244 . S
O433 C423 1.272 . S
O433 Co425 2.135 1_554 S
Co434 O435 2.216 . S
Co434 O436 2.091 . S
Co434 O438 2.004 1_554 S
Co434 O444 2.021 . S
Co434 O446 2.137 . S
Co434 O447 2.244 . S
O435 Co434 2.216 . S
O435 C442 1.247 . S
O436 Co434 2.091 . S
O436 C442 1.261 . S
C437 O446 1.247 . S
C437 O447 1.272 . S
O438 Co434 2.004 1_556 S
O438 C443 1.259 . S
Co439 O440 2.061 . S
Co439 O445 2.052 1_556 S
Co439 O447 2.135 1_556 S
O440 Co439 2.061 . S
O440 C443 1.235 . S
C441 O444 1.238 . S
C441 O445 1.241 . S
C442 O435 1.247 . S
C442 O436 1.261 . S
C443 O438 1.259 . S
C443 O440 1.235 . S
O444 Co434 2.021 . S
O444 C441 1.238 . S
O445 Co439 2.052 1_554 S
O445 C441 1.241 . S
O446 Co434 2.137 . S
O446 C437 1.247 . S
O447 Co434 2.244 . S
O447 C437 1.272 . S
O447 Co439 2.135 1_554 S
H448 C456 0.950 . S
H449 C461 0.950 . S
H450 C458 0.950 . S
H451 C460 0.950 . S
H452 C462 0.950 1_655 S
H453 C464 0.950 . S
H454 C466 0.950 . S
H455 C467 0.950 . S
C456 H448 0.950 . S
C456 C457 1.386 . S
C456 C458 1.391 . S
C457 C456 1.386 . S
C457 C461 1.393 . S
C458 H450 0.950 . S
C458 C456 1.391 . S
C458 C459 1.400 . S
C459 C458 1.400 . S
C459 C460 1.398 . S
C459 C465 1.491 . S
C460 H451 0.950 . S
C460 C459 1.398 . S
C460 C461 1.391 . S
C461 H449 0.950 . S
C461 C457 1.393 . S
C461 C460 1.391 . S
C462 H452 0.950 1_455 S
C462 C463 1.386 . S
C462 C464 1.391 . S
C463 C462 1.386 . S
C463 C467 1.393 . S
C464 H453 0.950 . S
C464 C462 1.391 . S
C464 C465 1.400 . S
C465 C459 1.491 . S
C465 C464 1.400 . S
C465 C466 1.398 . S
C466 H454 0.950 . S
C466 C465 1.398 . S
C466 C467 1.391 . S
C467 H455 0.950 . S
C467 C463 1.393 . S
C467 C466 1.391 . S
H468 C476 0.950 . S
H469 C481 0.950 . S
H470 C478 0.950 . S
H471 C480 0.950 . S
H472 C482 0.950 . S
H473 C484 0.950 . S
H474 C486 0.950 . S
H475 C487 0.950 . S
C476 H468 0.950 . S
C476 C477 1.386 . S
C476 C478 1.391 . S
C477 C476 1.386 . S
C477 C481 1.393 . S
C478 H470 0.950 . S
C478 C476 1.391 . S
C478 C479 1.400 . S
C479 C478 1.400 . S
C479 C480 1.398 . S
C479 C485 1.491 . S
C480 H471 0.950 . S
C480 C479 1.398 . S
C480 C481 1.391 . S
C481 H469 0.950 . S
C481 C477 1.393 . S
C481 C480 1.391 . S
C482 H472 0.950 . S
C482 C483 1.386 . S
C482 C484 1.391 . S
C483 C482 1.386 . S
C483 C487 1.393 . S
C484 H473 0.950 . S
C484 C482 1.391 . S
C484 C485 1.400 . S
C485 C479 1.491 . S
C485 C484 1.400 . S
C485 C486 1.398 . S
C486 H474 0.950 . S
C486 C485 1.398 . S
C486 C487 1.391 . S
C487 H475 0.950 . S
C487 C483 1.393 . S
C487 C486 1.391 . S
H488 C496 0.950 . S
H489 C501 0.950 . S
H490 C498 0.950 . S
H491 C500 0.950 . S
H492 C502 0.950 . S
H493 C504 0.950 . S
H494 C506 0.950 . S
H495 C507 0.950 . S
C496 H488 0.950 . S
C496 C497 1.386 . S
C496 C498 1.391 . S
C497 C496 1.386 . S
C497 C501 1.393 . S
C498 H490 0.950 . S
C498 C496 1.391 . S
C498 C499 1.400 . S
C499 C498 1.400 . S
C499 C500 1.398 . S
C499 C505 1.491 . S
C500 H491 0.950 . S
C500 C499 1.398 . S
C500 C501 1.391 . S
C501 H489 0.950 . S
C501 C497 1.393 . S
C501 C500 1.391 . S
C502 H492 0.950 . S
C502 C503 1.386 . S
C502 C504 1.391 . S
C503 C502 1.386 . S
C503 C507 1.393 . S
C504 H493 0.950 . S
C504 C502 1.391 . S
C504 C505 1.400 . S
C505 C499 1.491 . S
C505 C504 1.400 . S
C505 C506 1.398 . S
C506 H494 0.950 . S
C506 C505 1.398 . S
C506 C507 1.391 . S
C507 H495 0.950 . S
C507 C503 1.393 . S
C507 C506 1.391 . S
H508 C516 0.950 . S
H509 C521 0.950 . S
H510 C518 0.950 . S
H511 C520 0.950 . S
H512 C522 0.950 . S
H513 C524 0.950 . S
H514 C526 0.950 . S
H515 C527 0.950 . S
C516 H508 0.950 . S
C516 C517 1.386 . S
C516 C518 1.391 . S
C517 C516 1.386 . S
C517 C521 1.393 . S
C518 H510 0.950 . S
C518 C516 1.391 . S
C518 C519 1.400 . S
C519 C518 1.400 . S
C519 C520 1.398 . S
C519 C525 1.491 . S
C520 H511 0.950 . S
C520 C519 1.398 . S
C520 C521 1.391 . S
C521 H509 0.950 . S
C521 C517 1.393 . S
C521 C520 1.391 . S
C522 H512 0.950 . S
C522 C523 1.386 . S
C522 C524 1.391 . S
C523 C522 1.386 . S
C523 C527 1.393 . S
C524 H513 0.950 . S
C524 C522 1.391 . S
C524 C525 1.400 . S
C525 C519 1.491 . S
C525 C524 1.400 . S
C525 C526 1.398 . S
C526 H514 0.950 . S
C526 C525 1.398 . S
C526 C527 1.391 . S
C527 H515 0.950 . S
C527 C523 1.393 . S
C527 C526 1.391 . S
H528 C536 0.950 . S
H529 C541 0.950 . S
H530 C538 0.950 . S
H531 C540 0.950 . S
H532 C542 0.950 . S
H533 C544 0.950 . S
H534 C546 0.950 . S
H535 C547 0.950 . S
C536 H528 0.950 . S
C536 C537 1.386 . S
C536 C538 1.391 . S
C537 C536 1.386 . S
C537 C541 1.393 . S
C538 H530 0.950 . S
C538 C536 1.391 . S
C538 C539 1.400 . S
C539 C538 1.400 . S
C539 C540 1.398 . S
C539 C545 1.491 . S
C540 H531 0.950 . S
C540 C539 1.398 . S
C540 C541 1.391 . S
C541 H529 0.950 . S
C541 C537 1.393 . S
C541 C540 1.391 . S
C542 H532 0.950 . S
C542 C543 1.386 . S
C542 C544 1.391 . S
C543 C542 1.386 . S
C543 C547 1.393 . S
C544 H533 0.950 . S
C544 C542 1.391 . S
C544 C545 1.400 . S
C545 C539 1.491 . S
C545 C544 1.400 . S
C545 C546 1.398 . S
C546 H534 0.950 . S
C546 C545 1.398 . S
C546 C547 1.391 . S
C547 H535 0.950 . S
C547 C543 1.393 . S
C547 C546 1.391 . S
H548 C556 0.950 . S
H549 C561 0.950 . S
H550 C558 0.950 . S
H551 C560 0.950 . S
H552 C562 0.950 . S
H553 C564 0.950 . S
H554 C566 0.950 . S
H555 C567 0.950 1_655 S
C556 H548 0.950 . S
C556 C557 1.386 . S
C556 C558 1.391 . S
C557 C556 1.386 . S
C557 C561 1.393 . S
C558 H550 0.950 . S
C558 C556 1.391 . S
C558 C559 1.400 . S
C559 C558 1.400 . S
C559 C560 1.398 . S
C559 C565 1.491 . S
C560 H551 0.950 . S
C560 C559 1.398 . S
C560 C561 1.391 . S
C561 H549 0.950 . S
C561 C557 1.393 . S
C561 C560 1.391 . S
C562 H552 0.950 . S
C562 C563 1.386 . S
C562 C564 1.391 . S
C563 C562 1.386 . S
C563 C567 1.393 . S
C564 H553 0.950 . S
C564 C562 1.391 . S
C564 C565 1.400 . S
C565 C559 1.491 . S
C565 C564 1.400 . S
C565 C566 1.398 . S
C566 H554 0.950 . S
C566 C565 1.398 . S
C566 C567 1.391 . S
C567 H555 0.950 1_455 S
C567 C563 1.393 . S
C567 C566 1.391 . S
H568 C576 0.950 . S
H569 C581 0.950 . S
H570 C578 0.950 . S
H571 C580 0.950 . S
H572 C582 0.950 . S
H573 C584 0.950 . S
H574 C586 0.950 . S
H575 C587 0.950 1_455 S
C576 H568 0.950 . S
C576 C577 1.386 . S
C576 C578 1.391 . S
C577 C576 1.386 . S
C577 C581 1.393 . S
C578 H570 0.950 . S
C578 C576 1.391 . S
C578 C579 1.400 . S
C579 C578 1.400 . S
C579 C580 1.398 . S
C579 C585 1.491 . S
C580 H571 0.950 . S
C580 C579 1.398 . S
C580 C581 1.391 . S
C581 H569 0.950 . S
C581 C577 1.393 . S
C581 C580 1.391 . S
C582 H572 0.950 . S
C582 C583 1.386 . S
C582 C584 1.391 . S
C583 C582 1.386 . S
C583 C587 1.393 . S
C584 H573 0.950 . S
C584 C582 1.391 . S
C584 C585 1.400 . S
C585 C579 1.491 . S
C585 C584 1.400 . S
C585 C586 1.398 . S
C586 H574 0.950 . S
C586 C585 1.398 . S
C586 C587 1.391 . S
C587 H575 0.950 1_655 S
C587 C583 1.393 . S
C587 C586 1.391 . S
H588 C596 0.950 . S
H589 C601 0.950 . S
H590 C598 0.950 . S
H591 C600 0.950 . S
H592 C602 0.950 . S
H593 C604 0.950 . S
H594 C606 0.950 . S
H595 C607 0.950 1_455 S
C596 H588 0.950 . S
C596 C597 1.386 . S
C596 C598 1.391 . S
C597 C596 1.386 . S
C597 C601 1.393 . S
C598 H590 0.950 . S
C598 C596 1.391 . S
C598 C599 1.400 . S
C599 C598 1.400 . S
C599 C600 1.398 . S
C599 C605 1.491 . S
C600 H591 0.950 . S
C600 C599 1.398 . S
C600 C601 1.391 . S
C601 H589 0.950 . S
C601 C597 1.393 . S
C601 C600 1.391 . S
C602 H592 0.950 . S
C602 C603 1.386 . S
C602 C604 1.391 . S
C603 C602 1.386 . S
C603 C607 1.393 . S
C604 H593 0.950 . S
C604 C602 1.391 . S
C604 C605 1.400 . S
C605 C599 1.491 . S
C605 C604 1.400 . S
C605 C606 1.398 . S
C606 H594 0.950 . S
C606 C605 1.398 . S
C606 C607 1.391 . S
C607 H595 0.950 1_655 S
C607 C603 1.393 . S
C607 C606 1.391 . S
H608 C616 0.950 . S
H609 C621 0.950 . S
H610 C618 0.950 . S
H611 C620 0.950 . S
H612 C622 0.950 . S
H613 C624 0.950 . S
H614 C626 0.950 . S
H615 C627 0.950 . S
C616 H608 0.950 . S
C616 C617 1.386 . S
C616 C618 1.391 . S
C617 C616 1.386 . S
C617 C621 1.393 . S
C618 H610 0.950 . S
C618 C616 1.391 . S
C618 C619 1.400 . S
C619 C618 1.400 . S
C619 C620 1.398 . S
C619 C625 1.491 . S
C620 H611 0.950 . S
C620 C619 1.398 . S
C620 C621 1.391 . S
C621 H609 0.950 . S
C621 C617 1.393 . S
C621 C620 1.391 . S
C622 H612 0.950 . S
C622 C623 1.386 . S
C622 C624 1.391 . S
C623 C622 1.386 . S
C623 C627 1.393 . S
C624 H613 0.950 . S
C624 C622 1.391 . S
C624 C625 1.400 . S
C625 C619 1.491 . S
C625 C624 1.400 . S
C625 C626 1.398 . S
C626 H614 0.950 . S
C626 C625 1.398 . S
C626 C627 1.391 . S
C627 H615 0.950 . S
C627 C623 1.393 . S
C627 C626 1.391 . S
H628 C636 0.950 . S
H629 C641 0.950 . S
H630 C638 0.950 . S
H631 C640 0.950 . S
H632 C642 0.950 . S
H633 C644 0.950 . S
H634 C646 0.950 . S
H635 C647 0.950 . S
C636 H628 0.950 . S
C636 C637 1.386 . S
C636 C638 1.391 . S
C637 C636 1.386 . S
C637 C641 1.393 . S
C638 H630 0.950 . S
C638 C636 1.391 . S
C638 C639 1.400 . S
C639 C638 1.400 . S
C639 C640 1.398 . S
C639 C645 1.491 . S
C640 H631 0.950 . S
C640 C639 1.398 . S
C640 C641 1.391 . S
C641 H629 0.950 . S
C641 C637 1.393 . S
C641 C640 1.391 . S
C642 H632 0.950 . S
C642 C643 1.386 . S
C642 C644 1.391 . S
C643 C642 1.386 . S
C643 C647 1.393 . S
C644 H633 0.950 . S
C644 C642 1.391 . S
C644 C645 1.400 . S
C645 C639 1.491 . S
C645 C644 1.400 . S
C645 C646 1.398 . S
C646 H634 0.950 . S
C646 C645 1.398 . S
C646 C647 1.391 . S
C647 H635 0.950 . S
C647 C643 1.393 . S
C647 C646 1.391 . S
H648 C656 0.950 . S
H649 C661 0.950 . S
H650 C658 0.950 . S
H651 C660 0.950 . S
H652 C662 0.950 . S
H653 C664 0.950 . S
H654 C666 0.950 . S
H655 C667 0.950 . S
C656 H648 0.950 . S
C656 C657 1.386 . S
C656 C658 1.391 . S
C657 C656 1.386 . S
C657 C661 1.393 . S
C658 H650 0.950 . S
C658 C656 1.391 . S
C658 C659 1.400 . S
C659 C658 1.400 . S
C659 C660 1.398 . S
C659 C665 1.491 . S
C660 H651 0.950 . S
C660 C659 1.398 . S
C660 C661 1.391 . S
C661 H649 0.950 . S
C661 C657 1.393 . S
C661 C660 1.391 . S
C662 H652 0.950 . S
C662 C663 1.386 . S
C662 C664 1.391 . S
C663 C662 1.386 . S
C663 C667 1.393 . S
C664 H653 0.950 . S
C664 C662 1.391 . S
C664 C665 1.400 . S
C665 C659 1.491 . S
C665 C664 1.400 . S
C665 C666 1.398 . S
C666 H654 0.950 . S
C666 C665 1.398 . S
C666 C667 1.391 . S
C667 H655 0.950 . S
C667 C663 1.393 . S
C667 C666 1.391 . S
H668 C676 0.950 . S
H669 C681 0.950 . S
H670 C678 0.950 . S
H671 C680 0.950 . S
H672 C682 0.950 . S
H673 C684 0.950 . S
H674 C686 0.950 . S
H675 C687 0.950 . S
C676 H668 0.950 . S
C676 C677 1.386 . S
C676 C678 1.391 . S
C677 C676 1.386 . S
C677 C681 1.393 . S
C678 H670 0.950 . S
C678 C676 1.391 . S
C678 C679 1.400 . S
C679 C678 1.400 . S
C679 C680 1.398 . S
C679 C685 1.491 . S
C680 H671 0.950 . S
C680 C679 1.398 . S
C680 C681 1.391 . S
C681 H669 0.950 . S
C681 C677 1.393 . S
C681 C680 1.391 . S
C682 H672 0.950 . S
C682 C683 1.386 . S
C682 C684 1.391 . S
C683 C682 1.386 . S
C683 C687 1.393 . S
C684 H673 0.950 . S
C684 C682 1.391 . S
C684 C685 1.400 . S
C685 C679 1.491 . S
C685 C684 1.400 . S
C685 C686 1.398 . S
C686 H674 0.950 . S
C686 C685 1.398 . S
C686 C687 1.391 . S
C687 H675 0.950 . S
C687 C683 1.393 . S
C687 C686 1.391 . S
H688 C696 0.950 . S
H689 C701 0.950 . S
H690 C698 0.950 . S
H691 C700 0.950 . S
H692 C702 0.950 . S
H693 C704 0.950 . S
H694 C706 0.950 . S
H695 C707 0.950 . S
C696 H688 0.950 . S
C696 C697 1.386 . S
C696 C698 1.391 . S
C697 C696 1.386 . S
C697 C701 1.393 . S
C698 H690 0.950 . S
C698 C696 1.391 . S
C698 C699 1.400 . S
C699 C698 1.400 . S
C699 C700 1.398 . S
C699 C705 1.491 . S
C700 H691 0.950 . S
C700 C699 1.398 . S
C700 C701 1.391 . S
C701 H689 0.950 . S
C701 C697 1.393 . S
C701 C700 1.391 . S
C702 H692 0.950 . S
C702 C703 1.386 . S
C702 C704 1.391 . S
C703 C702 1.386 . S
C703 C707 1.393 . S
C704 H693 0.950 . S
C704 C702 1.391 . S
C704 C705 1.400 . S
C705 C699 1.491 . S
C705 C704 1.400 . S
C705 C706 1.398 . S
C706 H694 0.950 . S
C706 C705 1.398 . S
C706 C707 1.391 . S
C707 H695 0.950 . S
C707 C703 1.393 . S
C707 C706 1.391 . S
H708 C716 0.950 . S
H709 C721 0.950 . S
H710 C718 0.950 . S
H711 C720 0.950 . S
H712 C722 0.950 . S
H713 C724 0.950 . S
H714 C726 0.950 . S
H715 C727 0.950 . S
C716 H708 0.950 . S
C716 C717 1.386 . S
C716 C718 1.391 . S
C717 C716 1.386 . S
C717 C721 1.393 . S
C718 H710 0.950 . S
C718 C716 1.391 . S
C718 C719 1.400 . S
C719 C718 1.400 . S
C719 C720 1.398 . S
C719 C725 1.491 . S
C720 H711 0.950 . S
C720 C719 1.398 . S
C720 C721 1.391 . S
C721 H709 0.950 . S
C721 C717 1.393 . S
C721 C720 1.391 . S
C722 H712 0.950 . S
C722 C723 1.386 . S
C722 C724 1.391 . S
C723 C722 1.386 . S
C723 C727 1.393 . S
C724 H713 0.950 . S
C724 C722 1.391 . S
C724 C725 1.400 . S
C725 C719 1.491 . S
C725 C724 1.400 . S
C725 C726 1.398 . S
C726 H714 0.950 . S
C726 C725 1.398 . S
C726 C727 1.391 . S
C727 H715 0.950 . S
C727 C723 1.393 . S
C727 C726 1.391 . S
H728 C736 0.950 . S
H729 C741 0.950 . S
H730 C738 0.950 . S
H731 C740 0.950 . S
H732 C742 0.950 . S
H733 C744 0.950 . S
H734 C746 0.950 . S
H735 C747 0.950 . S
C736 H728 0.950 . S
C736 C737 1.386 . S
C736 C738 1.391 . S
C737 C736 1.386 . S
C737 C741 1.393 . S
C738 H730 0.950 . S
C738 C736 1.391 . S
C738 C739 1.400 . S
C739 C738 1.400 . S
C739 C740 1.398 . S
C739 C745 1.491 . S
C740 H731 0.950 . S
C740 C739 1.398 . S
C740 C741 1.391 . S
C741 H729 0.950 . S
C741 C737 1.393 . S
C741 C740 1.391 . S
C742 H732 0.950 . S
C742 C743 1.386 . S
C742 C744 1.391 . S
C743 C742 1.386 . S
C743 C747 1.393 . S
C744 H733 0.950 . S
C744 C742 1.391 . S
C744 C745 1.400 . S
C745 C739 1.491 . S
C745 C744 1.400 . S
C745 C746 1.398 . S
C746 H734 0.950 . S
C746 C745 1.398 . S
C746 C747 1.391 . S
C747 H735 0.950 . S
C747 C743 1.393 . S
C747 C746 1.391 . S
H748 C756 0.950 . S
H749 C761 0.950 . S
H750 C758 0.950 . S
H751 C760 0.950 . S
H752 C762 0.950 . S
H753 C764 0.950 . S
H754 C766 0.950 . S
H755 C767 0.950 . S
C756 H748 0.950 . S
C756 C757 1.386 . S
C756 C758 1.391 . S
C757 C756 1.386 . S
C757 C761 1.393 . S
C758 H750 0.950 . S
C758 C756 1.391 . S
C758 C759 1.400 . S
C759 C758 1.400 . S
C759 C760 1.398 . S
C759 C765 1.491 . S
C760 H751 0.950 . S
C760 C759 1.398 . S
C760 C761 1.391 . S
C761 H749 0.950 . S
C761 C757 1.393 . S
C761 C760 1.391 . S
C762 H752 0.950 . S
C762 C763 1.386 . S
C762 C764 1.391 . S
C763 C762 1.386 . S
C763 C767 1.393 . S
C764 H753 0.950 . S
C764 C762 1.391 . S
C764 C765 1.400 . S
C765 C759 1.491 . S
C765 C764 1.400 . S
C765 C766 1.398 . S
C766 H754 0.950 . S
C766 C765 1.398 . S
C766 C767 1.391 . S
C767 H755 0.950 . S
C767 C763 1.393 . S
C767 C766 1.391 . S
H768 C776 0.950 . S
H769 C781 0.950 . S
H770 C778 0.950 . S
H771 C780 0.950 . S
H772 C782 0.950 . S
H773 C784 0.950 . S
H774 C786 0.950 . S
H775 C787 0.950 . S
C776 H768 0.950 . S
C776 C777 1.386 . S
C776 C778 1.391 . S
C777 C776 1.386 . S
C777 C781 1.393 . S
C778 H770 0.950 . S
C778 C776 1.391 . S
C778 C779 1.400 . S
C779 C778 1.400 . S
C779 C780 1.398 . S
C779 C785 1.491 1_565 S
C780 H771 0.950 . S
C780 C779 1.398 . S
C780 C781 1.391 . S
C781 H769 0.950 . S
C781 C777 1.393 . S
C781 C780 1.391 . S
C782 H772 0.950 . S
C782 C783 1.386 . S
C782 C784 1.391 . S
C783 C782 1.386 . S
C783 C787 1.393 . S
C784 H773 0.950 . S
C784 C782 1.391 . S
C784 C785 1.400 . S
C785 C779 1.491 1_545 S
C785 C784 1.400 . S
C785 C786 1.398 . S
C786 H774 0.950 . S
C786 C785 1.398 . S
C786 C787 1.391 . S
C787 H775 0.950 . S
C787 C783 1.393 . S
C787 C786 1.391 . S
H788 C796 0.950 . S
H789 C801 0.950 1_455 S
H790 C798 0.950 . S
H791 C800 0.950 . S
H792 C802 0.950 . S
H793 C804 0.950 . S
H794 C806 0.950 . S
H795 C807 0.950 1_655 S
C796 H788 0.950 . S
C796 C797 1.386 . S
C796 C798 1.391 . S
C797 C796 1.386 . S
C797 C801 1.393 . S
C798 H790 0.950 . S
C798 C796 1.391 . S
C798 C799 1.400 . S
C799 C798 1.400 . S
C799 C800 1.398 1_655 S
C799 C805 1.491 1_655 S
C800 H791 0.950 . S
C800 C799 1.398 1_455 S
C800 C801 1.391 1_455 S
C801 H789 0.950 1_655 S
C801 C797 1.393 . S
C801 C800 1.391 1_655 S
C802 H792 0.950 . S
C802 C803 1.386 . S
C802 C804 1.391 . S
C803 C802 1.386 . S
C803 C807 1.393 . S
C804 H793 0.950 . S
C804 C802 1.391 . S
C804 C805 1.400 . S
C805 C799 1.491 1_455 S
C805 C804 1.400 . S
C805 C806 1.398 1_455 S
C806 H794 0.950 . S
C806 C805 1.398 1_655 S
C806 C807 1.391 1_655 S
C807 H795 0.950 1_455 S
C807 C803 1.393 . S
C807 C806 1.391 1_455 S
H808 C816 0.950 . S
H809 C821 0.950 . S
H810 C818 0.950 . S
H811 C820 0.950 . S
H812 C822 0.950 . S
H813 C824 0.950 . S
H814 C826 0.950 . S
H815 C827 0.950 . S
C816 H808 0.950 . S
C816 C817 1.386 . S
C816 C818 1.391 . S
C817 C816 1.386 . S
C817 C821 1.393 . S
C818 H810 0.950 . S
C818 C816 1.391 . S
C818 C819 1.400 . S
C819 C818 1.400 . S
C819 C820 1.398 . S
C819 C825 1.491 1_556 S
C820 H811 0.950 . S
C820 C819 1.398 . S
C820 C821 1.391 . S
C821 H809 0.950 . S
C821 C817 1.393 . S
C821 C820 1.391 . S
C822 H812 0.950 . S
C822 C823 1.386 . S
C822 C824 1.391 . S
C823 C822 1.386 . S
C823 C827 1.393 . S
C824 H813 0.950 . S
C824 C822 1.391 . S
C824 C825 1.400 . S
C825 C819 1.491 1_554 S
C825 C824 1.400 . S
C825 C826 1.398 . S
C826 H814 0.950 . S
C826 C825 1.398 . S
C826 C827 1.391 . S
C827 H815 0.950 . S
C827 C823 1.393 . S
C827 C826 1.391 . S
H828 C836 0.950 . S
H829 C841 0.950 . S
H830 C838 0.945 1_554 S
H831 C840 0.950 . S
H832 C842 0.950 . S
H833 C844 0.945 1_556 S
H834 C846 0.950 . S
H835 C847 0.950 . S
C836 H828 0.950 . S
C836 C837 1.386 1_655 S
C836 C838 1.391 . S
C837 C836 1.386 1_455 S
C837 C841 1.393 . S
C838 H830 0.945 1_556 S
C838 C836 1.391 . S
C838 C839 1.400 1_655 S
C839 C838 1.400 1_455 S
C839 C840 1.398 . S
C839 C845 1.491 1_446 S
C840 H831 0.950 . S
C840 C839 1.398 . S
C840 C841 1.391 . S
C841 H829 0.950 . S
C841 C837 1.393 . S
C841 C840 1.391 . S
C842 H832 0.950 . S
C842 C843 1.386 1_455 S
C842 C844 1.391 . S
C843 C842 1.386 1_655 S
C843 C847 1.393 . S
C844 H833 0.945 1_554 S
C844 C842 1.391 . S
C844 C845 1.400 1_455 S
C845 C839 1.491 1_664 S
C845 C844 1.400 1_655 S
C845 C846 1.398 . S
C846 H834 0.950 . S
C846 C845 1.398 . S
C846 C847 1.391 . S
C847 H835 0.950 . S
C847 C843 1.393 . S
C847 C846 1.391 . S
H848 C856 0.950 . S
H849 C861 0.950 . S
H850 C858 0.950 . S
H851 C860 0.950 . S
H852 C862 0.950 . S
H853 C864 0.950 . S
H854 C866 0.950 . S
H855 C867 0.950 . S
C856 H848 0.950 . S
C856 C857 1.386 . S
C856 C858 1.391 . S
C857 C856 1.386 . S
C857 C861 1.393 . S
C858 H850 0.950 . S
C858 C856 1.391 . S
C858 C859 1.400 . S
C859 C858 1.400 . S
C859 C860 1.398 . S
C859 C865 1.491 1_545 S
C860 H851 0.950 . S
C860 C859 1.398 . S
C860 C861 1.391 . S
C861 H849 0.950 . S
C861 C857 1.393 . S
C861 C860 1.391 . S
C862 H852 0.950 . S
C862 C863 1.386 . S
C862 C864 1.391 . S
C863 C862 1.386 . S
C863 C867 1.393 . S
C864 H853 0.950 . S
C864 C862 1.391 . S
C864 C865 1.400 . S
C865 C859 1.491 1_565 S
C865 C864 1.400 . S
C865 C866 1.398 . S
C866 H854 0.950 . S
C866 C865 1.398 . S
C866 C867 1.391 . S
C867 H855 0.950 . S
C867 C863 1.393 . S
C867 C866 1.391 . S
H868 C876 0.950 . S
H869 C881 0.950 . S
H870 C878 0.950 . S
H871 C880 0.950 . S
H872 C882 0.950 . S
H873 C884 0.950 . S
H874 C886 0.950 . S
H875 C887 0.950 . S
C876 H868 0.950 . S
C876 C877 1.386 . S
C876 C878 1.391 1_455 S
C877 C876 1.386 . S
C877 C881 1.393 . S
C878 H870 0.950 . S
C878 C876 1.391 1_655 S
C878 C879 1.400 1_655 S
C879 C878 1.400 1_455 S
C879 C880 1.398 . S
C879 C885 1.491 1_455 S
C880 H871 0.950 . S
C880 C879 1.398 . S
C880 C881 1.391 . S
C881 H869 0.950 . S
C881 C877 1.393 . S
C881 C880 1.391 . S
C882 H872 0.950 . S
C882 C883 1.386 . S
C882 C884 1.391 1_655 S
C883 C882 1.386 . S
C883 C887 1.393 . S
C884 H873 0.950 . S
C884 C882 1.391 1_455 S
C884 C885 1.400 1_455 S
C885 C879 1.491 1_655 S
C885 C884 1.400 1_655 S
C885 C886 1.398 . S
C886 H874 0.950 . S
C886 C885 1.398 . S
C886 C887 1.391 . S
C887 H875 0.950 . S
C887 C883 1.393 . S
C887 C886 1.391 . S
H888 C896 0.950 . S
H889 C901 0.950 . S
H890 C898 0.950 . S
H891 C900 0.950 . S
H892 C902 0.950 . S
H893 C904 0.950 . S
H894 C906 0.950 . S
H895 C907 0.950 . S
C896 H888 0.950 . S
C896 C897 1.386 1_554 S
C896 C898 1.391 . S
C897 C896 1.386 1_556 S
C897 C901 1.393 . S
C898 H890 0.950 . S
C898 C896 1.391 . S
C898 C899 1.400 1_554 S
C899 C898 1.400 1_556 S
C899 C900 1.398 . S
C899 C905 1.491 1_556 S
C900 H891 0.950 . S
C900 C899 1.398 . S
C900 C901 1.391 . S
C901 H889 0.950 . S
C901 C897 1.393 . S
C901 C900 1.391 . S
C902 H892 0.950 . S
C902 C903 1.386 1_556 S
C902 C904 1.391 . S
C903 C902 1.386 1_554 S
C903 C907 1.393 . S
C904 H893 0.950 . S
C904 C902 1.391 . S
C904 C905 1.400 1_556 S
C905 C899 1.491 1_554 S
C905 C904 1.400 1_554 S
C905 C906 1.398 . S
C906 H894 0.950 . S
C906 C905 1.398 . S
C906 C907 1.391 . S
C907 H895 0.950 . S
C907 C903 1.393 . S
C907 C906 1.391 . S
H908 C916 0.950 . S
H909 C921 0.950 . S
H910 C918 0.950 . S
H911 C920 0.950 . S
H912 C922 0.950 . S
H913 C924 0.950 . S
H914 C926 0.950 . S
H915 C927 0.950 . S
C916 H908 0.950 . S
C916 C917 1.386 . S
C916 C918 1.391 . S
C917 C916 1.386 . S
C917 C921 1.393 . S
C918 H910 0.950 . S
C918 C916 1.391 . S
C918 C919 1.400 . S
C919 C918 1.400 . S
C919 C920 1.398 . S
C919 C925 1.491 . S
C920 H911 0.950 . S
C920 C919 1.398 . S
C920 C921 1.391 . S
C921 H909 0.950 . S
C921 C917 1.393 . S
C921 C920 1.391 . S
C922 H912 0.950 . S
C922 C923 1.386 . S
C922 C924 1.391 . S
C923 C922 1.386 . S
C923 C927 1.393 . S
C924 H913 0.950 . S
C924 C922 1.391 . S
C924 C925 1.400 . S
C925 C919 1.491 . S
C925 C924 1.400 . S
C925 C926 1.398 . S
C926 H914 0.950 . S
C926 C925 1.398 . S
C926 C927 1.391 . S
C927 H915 0.950 . S
C927 C923 1.393 . S
C927 C926 1.391 . S
H928 C936 0.950 . S
H929 C941 0.950 . S
H930 C938 0.950 . S
H931 C940 0.950 . S
H932 C942 0.950 . S
H933 C944 0.950 . S
H934 C946 0.950 . S
H935 C947 0.950 . S
C936 H928 0.950 . S
C936 C937 1.386 . S
C936 C938 1.391 . S
C937 C936 1.386 . S
C937 C941 1.393 . S
C938 H930 0.950 . S
C938 C936 1.391 . S
C938 C939 1.400 . S
C939 C938 1.400 . S
C939 C940 1.398 . S
C939 C945 1.491 . S
C940 H931 0.950 . S
C940 C939 1.398 . S
C940 C941 1.391 . S
C941 H929 0.950 . S
C941 C937 1.393 . S
C941 C940 1.391 . S
C942 H932 0.950 . S
C942 C943 1.386 . S
C942 C944 1.391 . S
C943 C942 1.386 . S
C943 C947 1.393 . S
C944 H933 0.950 . S
C944 C942 1.391 . S
C944 C945 1.400 . S
C945 C939 1.491 . S
C945 C944 1.400 . S
C945 C946 1.398 . S
C946 H934 0.950 . S
C946 C945 1.398 . S
C946 C947 1.391 . S
C947 H935 0.950 . S
C947 C943 1.393 . S
C947 C946 1.391 . S
H948 C956 0.950 1_455 S
H949 C961 0.950 . S
H950 C958 0.950 . S
H951 C960 0.950 . S
H952 C962 0.950 1_655 S
H953 C964 0.950 . S
H954 C966 0.950 . S
H955 C967 0.950 . S
C956 H948 0.950 1_655 S
C956 C957 1.386 . S
C956 C958 1.391 1_655 S
C957 C956 1.386 . S
C957 C961 1.393 . S
C958 H950 0.950 . S
C958 C956 1.391 1_455 S
C958 C959 1.400 1_455 S
C959 C958 1.400 1_655 S
C959 C960 1.398 . S
C959 C965 1.491 1_655 S
C960 H951 0.950 . S
C960 C959 1.398 . S
C960 C961 1.391 . S
C961 H949 0.950 . S
C961 C957 1.393 . S
C961 C960 1.391 . S
C962 H952 0.950 1_455 S
C962 C963 1.386 . S
C962 C964 1.391 1_455 S
C963 C962 1.386 . S
C963 C967 1.393 . S
C964 H953 0.950 . S
C964 C962 1.391 1_655 S
C964 C965 1.400 1_655 S
C965 C959 1.491 1_455 S
C965 C964 1.400 1_455 S
C965 C966 1.398 . S
C966 H954 0.950 . S
C966 C965 1.398 . S
C966 C967 1.391 . S
C967 H955 0.950 . S
C967 C963 1.393 . S
C967 C966 1.391 . S
H968 C976 0.950 . S
H969 C981 0.950 . S
H970 C978 0.950 . S
H971 C980 0.950 . S
H972 C982 0.950 . S
H973 C984 0.950 . S
H974 C986 0.950 . S
H975 C987 0.950 . S
C976 H968 0.950 . S
C976 C977 1.386 . S
C976 C978 1.391 . S
C977 C976 1.386 . S
C977 C981 1.393 . S
C978 H970 0.950 . S
C978 C976 1.391 . S
C978 C979 1.400 . S
C979 C978 1.400 . S
C979 C980 1.398 . S
C979 C985 1.491 . S
C980 H971 0.950 . S
C980 C979 1.398 . S
C980 C981 1.391 . S
C981 H969 0.950 . S
C981 C977 1.393 . S
C981 C980 1.391 . S
C982 H972 0.950 . S
C982 C983 1.386 . S
C982 C984 1.391 . S
C983 C982 1.386 . S
C983 C987 1.393 . S
C984 H973 0.950 . S
C984 C982 1.391 . S
C984 C985 1.400 . S
C985 C979 1.491 . S
C985 C984 1.400 . S
C985 C986 1.398 . S
C986 H974 0.950 . S
C986 C985 1.398 . S
C986 C987 1.391 . S
C987 H975 0.950 . S
C987 C983 1.393 . S
C987 C986 1.391 . S
H988 C996 0.950 . S
H989 C1001 0.950 . S
H990 C998 0.950 . S
H991 C1000 0.950 . S
H992 C1002 0.950 . S
H993 C1004 0.950 . S
H994 C1006 0.950 . S
H995 C1007 0.950 . S
C996 H988 0.950 . S
C996 C997 1.386 . S
C996 C998 1.391 . S
C997 C996 1.386 . S
C997 C1001 1.393 . S
C998 H990 0.950 . S
C998 C996 1.391 . S
C998 C999 1.400 . S
C999 C998 1.400 . S
C999 C1000 1.398 . S
C999 C1005 1.491 . S
C1000 H991 0.950 . S
C1000 C999 1.398 . S
C1000 C1001 1.391 . S
C1001 H989 0.950 . S
C1001 C997 1.393 . S
C1001 C1000 1.391 . S
C1002 H992 0.950 . S
C1002 C1003 1.386 . S
C1002 C1004 1.391 . S
C1003 C1002 1.386 . S
C1003 C1007 1.393 . S
C1004 H993 0.950 . S
C1004 C1002 1.391 . S
C1004 C1005 1.400 . S
C1005 C999 1.491 . S
C1005 C1004 1.400 . S
C1005 C1006 1.398 . S
C1006 H994 0.950 . S
C1006 C1005 1.398 . S
C1006 C1007 1.391 . S
C1007 H995 0.950 . S
C1007 C1003 1.393 . S
C1007 C1006 1.391 . S
H1008 C1016 0.950 . S
H1009 C1021 0.950 . S
H1010 C1018 0.950 . S
H1011 C1020 0.950 . S
H1012 C1022 0.950 . S
H1013 C1024 0.950 . S
H1014 C1026 0.950 . S
H1015 C1027 0.950 . S
C1016 H1008 0.950 . S
C1016 C1017 1.386 . S
C1016 C1018 1.391 . S
C1017 C1016 1.386 . S
C1017 C1021 1.393 . S
C1018 H1010 0.950 . S
C1018 C1016 1.391 . S
C1018 C1019 1.400 . S
C1019 C1018 1.400 . S
C1019 C1020 1.398 . S
C1019 C1025 1.491 . S
C1020 H1011 0.950 . S
C1020 C1019 1.398 . S
C1020 C1021 1.391 . S
C1021 H1009 0.950 . S
C1021 C1017 1.393 . S
C1021 C1020 1.391 . S
C1022 H1012 0.950 . S
C1022 C1023 1.386 . S
C1022 C1024 1.391 . S
C1023 C1022 1.386 . S
C1023 C1027 1.393 . S
C1024 H1013 0.950 . S
C1024 C1022 1.391 . S
C1024 C1025 1.400 . S
C1025 C1019 1.491 . S
C1025 C1024 1.400 . S
C1025 C1026 1.398 . S
C1026 H1014 0.950 . S
C1026 C1025 1.398 . S
C1026 C1027 1.391 . S
C1027 H1015 0.950 . S
C1027 C1023 1.393 . S
C1027 C1026 1.391 . S
H1028 C1036 0.950 . S
H1029 C1041 0.950 . S
H1030 C1038 0.950 . S
H1031 C1040 0.950 . S
H1032 C1042 0.950 . S
H1033 C1044 0.950 . S
H1034 C1046 0.950 . S
H1035 C1047 0.950 . S
C1036 H1028 0.950 . S
C1036 C1037 1.386 . S
C1036 C1038 1.391 . S
C1037 C1036 1.386 . S
C1037 C1041 1.393 . S
C1038 H1030 0.950 . S
C1038 C1036 1.391 . S
C1038 C1039 1.400 . S
C1039 C1038 1.400 . S
C1039 C1040 1.398 . S
C1039 C1045 1.491 1_545 S
C1040 H1031 0.950 . S
C1040 C1039 1.398 . S
C1040 C1041 1.391 . S
C1041 H1029 0.950 . S
C1041 C1037 1.393 . S
C1041 C1040 1.391 . S
C1042 H1032 0.950 . S
C1042 C1043 1.386 . S
C1042 C1044 1.391 . S
C1043 C1042 1.386 . S
C1043 C1047 1.393 . S
C1044 H1033 0.950 . S
C1044 C1042 1.391 . S
C1044 C1045 1.400 . S
C1045 C1039 1.491 1_565 S
C1045 C1044 1.400 . S
C1045 C1046 1.398 . S
C1046 H1034 0.950 . S
C1046 C1045 1.398 . S
C1046 C1047 1.391 . S
C1047 H1035 0.950 . S
C1047 C1043 1.393 . S
C1047 C1046 1.391 . S
H1048 C1056 0.950 . S
H1049 C1061 0.950 . S
H1050 C1058 0.950 . S
H1051 C1060 0.950 . S
H1052 C1062 0.950 . S
H1053 C1064 0.950 . S
H1054 C1066 0.950 . S
H1055 C1067 0.950 . S
C1056 H1048 0.950 . S
C1056 C1057 1.386 . S
C1056 C1058 1.391 . S
C1057 C1056 1.386 . S
C1057 C1061 1.393 . S
C1058 H1050 0.950 . S
C1058 C1056 1.391 . S
C1058 C1059 1.400 . S
C1059 C1058 1.400 . S
C1059 C1060 1.398 . S
C1059 C1065 1.491 . S
C1060 H1051 0.950 . S
C1060 C1059 1.398 . S
C1060 C1061 1.391 . S
C1061 H1049 0.950 . S
C1061 C1057 1.393 . S
C1061 C1060 1.391 . S
C1062 H1052 0.950 . S
C1062 C1063 1.386 . S
C1062 C1064 1.391 . S
C1063 C1062 1.386 . S
C1063 C1067 1.393 . S
C1064 H1053 0.950 . S
C1064 C1062 1.391 . S
C1064 C1065 1.400 . S
C1065 C1059 1.491 . S
C1065 C1064 1.400 . S
C1065 C1066 1.398 . S
C1066 H1054 0.950 . S
C1066 C1065 1.398 . S
C1066 C1067 1.391 . S
C1067 H1055 0.950 . S
C1067 C1063 1.393 . S
C1067 C1066 1.391 . S
H1068 C1076 0.950 . S
H1069 C1081 0.950 . S
H1070 C1078 0.950 . S
H1071 C1080 0.950 . S
H1072 C1082 0.950 . S
H1073 C1084 0.950 . S
H1074 C1086 0.950 . S
H1075 C1087 0.950 . S
C1076 H1068 0.950 . S
C1076 C1077 1.386 . S
C1076 C1078 1.391 . S
C1077 C1076 1.386 . S
C1077 C1081 1.393 1_554 S
C1078 H1070 0.950 . S
C1078 C1076 1.391 . S
C1078 C1079 1.400 . S
C1079 C1078 1.400 . S
C1079 C1080 1.398 1_554 S
C1079 C1085 1.491 1_554 S
C1080 H1071 0.950 . S
C1080 C1079 1.398 1_556 S
C1080 C1081 1.391 . S
C1081 H1069 0.950 . S
C1081 C1077 1.393 1_556 S
C1081 C1080 1.391 . S
C1082 H1072 0.950 . S
C1082 C1083 1.386 . S
C1082 C1084 1.391 . S
C1083 C1082 1.386 . S
C1083 C1087 1.393 1_556 S
C1084 H1073 0.950 . S
C1084 C1082 1.391 . S
C1084 C1085 1.400 . S
C1085 C1079 1.491 1_556 S
C1085 C1084 1.400 . S
C1085 C1086 1.398 1_556 S
C1086 H1074 0.950 . S
C1086 C1085 1.398 1_554 S
C1086 C1087 1.391 . S
C1087 H1075 0.950 . S
C1087 C1083 1.393 1_554 S
C1087 C1086 1.391 . S
H1088 C1096 0.950 . S
H1089 C1101 0.950 . S
H1090 C1098 0.950 . S
H1091 C1100 0.950 . S
H1092 C1102 0.950 . S
H1093 C1104 0.950 . S
H1094 C1106 0.950 . S
H1095 C1107 0.950 . S
C1096 H1088 0.950 . S
C1096 C1097 1.386 . S
C1096 C1098 1.391 . S
C1097 C1096 1.386 . S
C1097 C1101 1.393 . S
C1098 H1090 0.950 . S
C1098 C1096 1.391 . S
C1098 C1099 1.400 . S
C1099 C1098 1.400 . S
C1099 C1100 1.398 . S
C1099 C1105 1.491 . S
C1100 H1091 0.950 . S
C1100 C1099 1.398 . S
C1100 C1101 1.391 . S
C1101 H1089 0.950 . S
C1101 C1097 1.393 . S
C1101 C1100 1.391 . S
C1102 H1092 0.950 . S
C1102 C1103 1.386 . S
C1102 C1104 1.391 . S
C1103 C1102 1.386 . S
C1103 C1107 1.393 . S
C1104 H1093 0.950 . S
C1104 C1102 1.391 . S
C1104 C1105 1.400 . S
C1105 C1099 1.491 . S
C1105 C1104 1.400 . S
C1105 C1106 1.398 . S
C1106 H1094 0.950 . S
C1106 C1105 1.398 . S
C1106 C1107 1.391 . S
C1107 H1095 0.950 . S
C1107 C1103 1.393 . S
C1107 C1106 1.391 . S
H1108 C1116 0.950 . S
H1109 C1121 0.950 . S
H1110 C1118 0.950 . S
H1111 C1120 0.950 . S
H1112 C1122 0.950 . S
H1113 C1124 0.950 . S
H1114 C1126 0.950 . S
H1115 C1127 0.950 . S
C1116 H1108 0.950 . S
C1116 C1117 1.386 . S
C1116 C1118 1.391 . S
C1117 C1116 1.386 . S
C1117 C1121 1.393 . S
C1118 H1110 0.950 . S
C1118 C1116 1.391 . S
C1118 C1119 1.400 . S
C1119 C1118 1.400 . S
C1119 C1120 1.398 . S
C1119 C1125 1.491 . S
C1120 H1111 0.950 . S
C1120 C1119 1.398 . S
C1120 C1121 1.391 . S
C1121 H1109 0.950 . S
C1121 C1117 1.393 . S
C1121 C1120 1.391 . S
C1122 H1112 0.950 . S
C1122 C1123 1.386 . S
C1122 C1124 1.391 . S
C1123 C1122 1.386 . S
C1123 C1127 1.393 . S
C1124 H1113 0.950 . S
C1124 C1122 1.391 . S
C1124 C1125 1.400 . S
C1125 C1119 1.491 . S
C1125 C1124 1.400 . S
C1125 C1126 1.398 . S
C1126 H1114 0.950 . S
C1126 C1125 1.398 . S
C1126 C1127 1.391 . S
C1127 H1115 0.950 . S
C1127 C1123 1.393 . S
C1127 C1126 1.391 . S
H1128 C1136 0.950 . S
H1129 C1141 0.950 . S
H1130 C1138 0.950 . S
H1131 C1140 0.950 . S
H1132 C1142 0.950 . S
H1133 C1144 0.950 . S
H1134 C1146 0.950 . S
H1135 C1147 0.950 . S
C1136 H1128 0.950 . S
C1136 C1137 1.386 . S
C1136 C1138 1.391 . S
C1137 C1136 1.386 . S
C1137 C1141 1.393 . S
C1138 H1130 0.950 . S
C1138 C1136 1.391 . S
C1138 C1139 1.400 . S
C1139 C1138 1.400 . S
C1139 C1140 1.398 . S
C1139 C1145 1.491 . S
C1140 H1131 0.950 . S
C1140 C1139 1.398 . S
C1140 C1141 1.391 . S
C1141 H1129 0.950 . S
C1141 C1137 1.393 . S
C1141 C1140 1.391 . S
C1142 H1132 0.950 . S
C1142 C1143 1.386 . S
C1142 C1144 1.391 . S
C1143 C1142 1.386 . S
C1143 C1147 1.393 . S
C1144 H1133 0.950 . S
C1144 C1142 1.391 . S
C1144 C1145 1.400 . S
C1145 C1139 1.491 . S
C1145 C1144 1.400 . S
C1145 C1146 1.398 . S
C1146 H1134 0.950 . S
C1146 C1145 1.398 . S
C1146 C1147 1.391 . S
C1147 H1135 0.950 . S
C1147 C1143 1.393 . S
C1147 C1146 1.391 . S
H1148 C1156 0.950 . S
H1149 C1161 0.950 . S
H1150 C1158 0.950 . S
H1151 C1160 0.950 . S
H1152 C1162 0.950 . S
H1153 C1164 0.950 . S
H1154 C1166 0.950 . S
H1155 C1167 0.950 . S
C1156 H1148 0.950 . S
C1156 C1157 1.386 . S
C1156 C1158 1.391 . S
C1157 C1156 1.386 . S
C1157 C1161 1.393 1_554 S
C1158 H1150 0.950 . S
C1158 C1156 1.391 . S
C1158 C1159 1.400 . S
C1159 C1158 1.400 . S
C1159 C1160 1.398 1_554 S
C1159 C1165 1.491 . S
C1160 H1151 0.950 . S
C1160 C1159 1.398 1_556 S
C1160 C1161 1.391 . S
C1161 H1149 0.950 . S
C1161 C1157 1.393 1_556 S
C1161 C1160 1.391 . S
C1162 H1152 0.950 . S
C1162 C1163 1.386 1_556 S
C1162 C1164 1.391 . S
C1163 C1162 1.386 1_554 S
C1163 C1167 1.393 . S
C1164 H1153 0.950 . S
C1164 C1162 1.391 . S
C1164 C1165 1.400 1_556 S
C1165 C1159 1.491 . S
C1165 C1164 1.400 1_554 S
C1165 C1166 1.398 . S
C1166 H1154 0.950 . S
C1166 C1165 1.398 . S
C1166 C1167 1.391 . S
C1167 H1155 0.950 . S
C1167 C1163 1.393 . S
C1167 C1166 1.391 . S
H1168 C1176 0.950 . S
H1169 C1181 0.950 . S
H1170 C1178 0.950 . S
H1171 C1180 0.950 . S
H1172 C1182 0.950 . S
H1173 C1184 0.950 . S
H1174 C1186 0.950 . S
H1175 C1187 0.950 . S
C1176 H1168 0.950 . S
C1176 C1177 1.386 . S
C1176 C1178 1.391 . S
C1177 C1176 1.386 . S
C1177 C1181 1.393 . S
C1178 H1170 0.950 . S
C1178 C1176 1.391 . S
C1178 C1179 1.400 . S
C1179 C1178 1.400 . S
C1179 C1180 1.398 . S
C1179 C1185 1.491 . S
C1180 H1171 0.950 . S
C1180 C1179 1.398 . S
C1180 C1181 1.391 . S
C1181 H1169 0.950 . S
C1181 C1177 1.393 . S
C1181 C1180 1.391 . S
C1182 H1172 0.950 . S
C1182 C1183 1.386 . S
C1182 C1184 1.391 . S
C1183 C1182 1.386 . S
C1183 C1187 1.393 . S
C1184 H1173 0.950 . S
C1184 C1182 1.391 . S
C1184 C1185 1.400 . S
C1185 C1179 1.491 . S
C1185 C1184 1.400 . S
C1185 C1186 1.398 . S
C1186 H1174 0.950 . S
C1186 C1185 1.398 . S
C1186 C1187 1.391 . S
C1187 H1175 0.950 . S
C1187 C1183 1.393 . S
C1187 C1186 1.391 . S
H1188 C1196 0.950 . S
H1189 C1201 0.950 . S
H1190 C1198 0.950 . S
H1191 C1200 0.950 . S
H1192 C1202 0.950 . S
H1193 C1204 0.950 . S
H1194 C1206 0.950 . S
H1195 C1207 0.950 . S
C1196 H1188 0.950 . S
C1196 C1197 1.386 . S
C1196 C1198 1.391 . S
C1197 C1196 1.386 . S
C1197 C1201 1.393 . S
C1198 H1190 0.950 . S
C1198 C1196 1.391 . S
C1198 C1199 1.400 . S
C1199 C1198 1.400 . S
C1199 C1200 1.398 . S
C1199 C1205 1.491 . S
C1200 H1191 0.950 . S
C1200 C1199 1.398 . S
C1200 C1201 1.391 . S
C1201 H1189 0.950 . S
C1201 C1197 1.393 . S
C1201 C1200 1.391 . S
C1202 H1192 0.950 . S
C1202 C1203 1.386 . S
C1202 C1204 1.391 . S
C1203 C1202 1.386 . S
C1203 C1207 1.393 . S
C1204 H1193 0.950 . S
C1204 C1202 1.391 . S
C1204 C1205 1.400 . S
C1205 C1199 1.491 . S
C1205 C1204 1.400 . S
C1205 C1206 1.398 . S
C1206 H1194 0.950 . S
C1206 C1205 1.398 . S
C1206 C1207 1.391 . S
C1207 H1195 0.950 . S
C1207 C1203 1.393 . S
C1207 C1206 1.391 . S
H1208 C1216 0.950 . S
H1209 C1221 0.950 . S
H1210 C1218 0.950 . S
H1211 C1220 0.950 . S
H1212 C1222 0.950 . S
H1213 C1224 0.950 . S
H1214 C1226 0.950 . S
H1215 C1227 0.950 . S
C1216 H1208 0.950 . S
C1216 C1217 1.386 . S
C1216 C1218 1.391 . S
C1217 C1216 1.386 . S
C1217 C1221 1.393 . S
C1218 H1210 0.950 . S
C1218 C1216 1.391 . S
C1218 C1219 1.400 . S
C1219 C1218 1.400 . S
C1219 C1220 1.398 . S
C1219 C1225 1.491 . S
C1220 H1211 0.950 . S
C1220 C1219 1.398 . S
C1220 C1221 1.391 . S
C1221 H1209 0.950 . S
C1221 C1217 1.393 . S
C1221 C1220 1.391 . S
C1222 H1212 0.950 . S
C1222 C1223 1.386 . S
C1222 C1224 1.391 . S
C1223 C1222 1.386 . S
C1223 C1227 1.393 . S
C1224 H1213 0.950 . S
C1224 C1222 1.391 . S
C1224 C1225 1.400 . S
C1225 C1219 1.491 . S
C1225 C1224 1.400 . S
C1225 C1226 1.398 . S
C1226 H1214 0.950 . S
C1226 C1225 1.398 . S
C1226 C1227 1.391 . S
C1227 H1215 0.950 . S
C1227 C1223 1.393 . S
C1227 C1226 1.391 . S
H1228 C1236 0.950 . S
H1229 C1241 0.950 . S
H1230 C1238 0.950 . S
H1231 C1240 0.950 . S
H1232 C1242 0.950 . S
H1233 C1244 0.950 . S
H1234 C1246 0.950 . S
H1235 C1247 0.950 . S
C1236 H1228 0.950 . S
C1236 C1237 1.386 . S
C1236 C1238 1.391 . S
C1237 C1236 1.386 . S
C1237 C1241 1.393 . S
C1238 H1230 0.950 . S
C1238 C1236 1.391 . S
C1238 C1239 1.400 . S
C1239 C1238 1.400 . S
C1239 C1240 1.398 . S
C1239 C1245 1.491 . S
C1240 H1231 0.950 . S
C1240 C1239 1.398 . S
C1240 C1241 1.391 . S
C1241 H1229 0.950 . S
C1241 C1237 1.393 . S
C1241 C1240 1.391 . S
C1242 H1232 0.950 . S
C1242 C1243 1.386 . S
C1242 C1244 1.391 . S
C1243 C1242 1.386 . S
C1243 C1247 1.393 . S
C1244 H1233 0.950 . S
C1244 C1242 1.391 . S
C1244 C1245 1.400 . S
C1245 C1239 1.491 . S
C1245 C1244 1.400 . S
C1245 C1246 1.398 . S
C1246 H1234 0.950 . S
C1246 C1245 1.398 . S
C1246 C1247 1.391 . S
C1247 H1235 0.950 . S
C1247 C1243 1.393 . S
C1247 C1246 1.391 . S
H1248 C1256 0.950 . S
H1249 C1261 0.950 . S
H1250 C1258 0.950 . S
H1251 C1260 0.950 . S
H1252 C1262 0.950 . S
H1253 C1264 0.950 . S
H1254 C1266 0.950 . S
H1255 C1267 0.950 . S
C1256 H1248 0.950 . S
C1256 C1257 1.386 . S
C1256 C1258 1.391 . S
C1257 C1256 1.386 . S
C1257 C1261 1.393 . S
C1258 H1250 0.950 . S
C1258 C1256 1.391 . S
C1258 C1259 1.400 . S
C1259 C1258 1.400 . S
C1259 C1260 1.398 . S
C1259 C1265 1.491 . S
C1260 H1251 0.950 . S
C1260 C1259 1.398 . S
C1260 C1261 1.391 . S
C1261 H1249 0.950 . S
C1261 C1257 1.393 . S
C1261 C1260 1.391 . S
C1262 H1252 0.950 . S
C1262 C1263 1.386 . S
C1262 C1264 1.391 . S
C1263 C1262 1.386 . S
C1263 C1267 1.393 . S
C1264 H1253 0.950 . S
C1264 C1262 1.391 . S
C1264 C1265 1.400 . S
C1265 C1259 1.491 . S
C1265 C1264 1.400 . S
C1265 C1266 1.398 . S
C1266 H1254 0.950 . S
C1266 C1265 1.398 . S
C1266 C1267 1.391 . S
C1267 H1255 0.950 . S
C1267 C1263 1.393 . S
C1267 C1266 1.391 . S
H1268 C1276 0.950 . S
H1269 C1281 0.950 . S
H1270 C1278 0.950 . S
H1271 C1280 0.950 . S
H1272 C1282 0.950 . S
H1273 C1284 0.950 . S
H1274 C1286 0.950 . S
H1275 C1287 0.950 . S
C1276 H1268 0.950 . S
C1276 C1277 1.386 . S
C1276 C1278 1.391 . S
C1277 C1276 1.386 . S
C1277 C1281 1.393 . S
C1278 H1270 0.950 . S
C1278 C1276 1.391 . S
C1278 C1279 1.400 . S
C1279 C1278 1.400 . S
C1279 C1280 1.398 . S
C1279 C1285 1.491 . S
C1280 H1271 0.950 . S
C1280 C1279 1.398 . S
C1280 C1281 1.391 . S
C1281 H1269 0.950 . S
C1281 C1277 1.393 . S
C1281 C1280 1.391 . S
C1282 H1272 0.950 . S
C1282 C1283 1.386 . S
C1282 C1284 1.391 . S
C1283 C1282 1.386 . S
C1283 C1287 1.393 . S
C1284 H1273 0.950 . S
C1284 C1282 1.391 . S
C1284 C1285 1.400 . S
C1285 C1279 1.491 . S
C1285 C1284 1.400 . S
C1285 C1286 1.398 . S
C1286 H1274 0.950 . S
C1286 C1285 1.398 . S
C1286 C1287 1.391 . S
C1287 H1275 0.950 . S
C1287 C1283 1.393 . S
C1287 C1286 1.391 . S
H1288 C1296 0.950 . S
H1289 C1301 0.950 . S
H1290 C1298 0.950 . S
H1291 C1300 0.950 . S
H1292 C1302 0.950 . S
H1293 C1304 0.950 . S
H1294 C1306 0.950 . S
H1295 C1307 0.950 . S
C1296 H1288 0.950 . S
C1296 C1297 1.386 . S
C1296 C1298 1.391 . S
C1297 C1296 1.386 . S
C1297 C1301 1.393 . S
C1298 H1290 0.950 . S
C1298 C1296 1.391 . S
C1298 C1299 1.400 . S
C1299 C1298 1.400 . S
C1299 C1300 1.398 . S
C1299 C1305 1.491 . S
C1300 H1291 0.950 . S
C1300 C1299 1.398 . S
C1300 C1301 1.391 . S
C1301 H1289 0.950 . S
C1301 C1297 1.393 . S
C1301 C1300 1.391 . S
C1302 H1292 0.950 . S
C1302 C1303 1.386 . S
C1302 C1304 1.391 . S
C1303 C1302 1.386 . S
C1303 C1307 1.393 . S
C1304 H1293 0.950 . S
C1304 C1302 1.391 . S
C1304 C1305 1.400 . S
C1305 C1299 1.491 . S
C1305 C1304 1.400 . S
C1305 C1306 1.398 . S
C1306 H1294 0.950 . S
C1306 C1305 1.398 . S
C1306 C1307 1.391 . S
C1307 H1295 0.950 . S
C1307 C1303 1.393 . S
C1307 C1306 1.391 . S
H1308 C1316 0.950 . S
H1309 C1321 0.950 . S
H1310 C1318 0.950 . S
H1311 C1320 0.950 . S
H1312 C1322 0.950 . S
H1313 C1324 0.950 . S
H1314 C1326 0.950 . S
H1315 C1327 0.950 . S
C1316 H1308 0.950 . S
C1316 C1317 1.386 . S
C1316 C1318 1.391 . S
C1317 C1316 1.386 . S
C1317 C1321 1.393 . S
C1318 H1310 0.950 . S
C1318 C1316 1.391 . S
C1318 C1319 1.400 . S
C1319 C1318 1.400 . S
C1319 C1320 1.398 . S
C1319 C1325 1.491 . S
C1320 H1311 0.950 . S
C1320 C1319 1.398 . S
C1320 C1321 1.391 . S
C1321 H1309 0.950 . S
C1321 C1317 1.393 . S
C1321 C1320 1.391 . S
C1322 H1312 0.950 . S
C1322 C1323 1.386 . S
C1322 C1324 1.391 . S
C1323 C1322 1.386 . S
C1323 C1327 1.393 . S
C1324 H1313 0.950 . S
C1324 C1322 1.391 . S
C1324 C1325 1.400 . S
C1325 C1319 1.491 . S
C1325 C1324 1.400 . S
C1325 C1326 1.398 . S
C1326 H1314 0.950 . S
C1326 C1325 1.398 . S
C1326 C1327 1.391 . S
C1327 H1315 0.950 . S
C1327 C1323 1.393 . S
C1327 C1326 1.391 . S
H1328 C1336 0.950 . S
H1329 C1341 0.950 . S
H1330 C1338 0.950 . S
H1331 C1340 0.950 . S
H1332 C1342 0.950 . S
H1333 C1344 0.950 . S
H1334 C1346 0.950 . S
H1335 C1347 0.950 . S
C1336 H1328 0.950 . S
C1336 C1337 1.386 . S
C1336 C1338 1.391 . S
C1337 C1336 1.386 . S
C1337 C1341 1.393 . S
C1338 H1330 0.950 . S
C1338 C1336 1.391 . S
C1338 C1339 1.400 . S
C1339 C1338 1.400 . S
C1339 C1340 1.398 . S
C1339 C1345 1.491 . S
C1340 H1331 0.950 . S
C1340 C1339 1.398 . S
C1340 C1341 1.391 . S
C1341 H1329 0.950 . S
C1341 C1337 1.393 . S
C1341 C1340 1.391 . S
C1342 H1332 0.950 . S
C1342 C1343 1.386 . S
C1342 C1344 1.391 . S
C1343 C1342 1.386 . S
C1343 C1347 1.393 . S
C1344 H1333 0.950 . S
C1344 C1342 1.391 . S
C1344 C1345 1.400 . S
C1345 C1339 1.491 . S
C1345 C1344 1.400 . S
C1345 C1346 1.398 . S
C1346 H1334 0.950 . S
C1346 C1345 1.398 . S
C1346 C1347 1.391 . S
C1347 H1335 0.950 . S
C1347 C1343 1.393 . S
C1347 C1346 1.391 . S
H1348 C1356 0.950 1_554 S
H1349 C1361 0.950 . S
H1350 C1358 0.950 1_554 S
H1351 C1360 0.950 . S
H1352 C1362 0.950 . S
H1353 C1364 0.950 . S
H1354 C1366 0.952 . S
H1355 C1367 0.940 1_554 S
C1356 H1348 0.950 1_556 S
C1356 C1357 1.386 . S
C1356 C1358 1.391 . S
C1357 C1356 1.386 . S
C1357 C1361 1.393 . S
C1358 H1350 0.950 1_556 S
C1358 C1356 1.391 . S
C1358 C1359 1.400 . S
C1359 C1358 1.400 . S
C1359 C1360 1.398 . S
C1359 C1365 1.491 . S
C1360 H1351 0.950 . S
C1360 C1359 1.398 . S
C1360 C1361 1.391 . S
C1361 H1349 0.950 . S
C1361 C1357 1.393 . S
C1361 C1360 1.391 . S
C1362 H1352 0.950 . S
C1362 C1363 1.386 . S
C1362 C1364 1.391 . S
C1363 C1362 1.386 . S
C1363 C1367 1.393 . S
C1364 H1353 0.950 . S
C1364 C1362 1.391 . S
C1364 C1365 1.400 . S
C1365 C1359 1.491 . S
C1365 C1364 1.400 . S
C1365 C1366 1.398 . S
C1366 H1354 0.952 . S
C1366 C1365 1.398 . S
C1366 C1367 1.391 . S
C1367 H1355 0.940 1_556 S
C1367 C1363 1.393 . S
C1367 C1366 1.391 . S
H1368 C1376 0.950 . S
H1369 C1381 0.950 . S
H1370 C1378 0.950 . S
H1371 C1380 0.950 . S
H1372 C1382 0.950 . S
H1373 C1384 0.950 . S
H1374 C1386 0.950 . S
H1375 C1387 0.950 . S
C1376 H1368 0.950 . S
C1376 C1377 1.386 . S
C1376 C1378 1.391 . S
C1377 C1376 1.386 . S
C1377 C1381 1.393 . S
C1378 H1370 0.950 . S
C1378 C1376 1.391 . S
C1378 C1379 1.400 . S
C1379 C1378 1.400 . S
C1379 C1380 1.398 . S
C1379 C1385 1.491 . S
C1380 H1371 0.950 . S
C1380 C1379 1.398 . S
C1380 C1381 1.391 . S
C1381 H1369 0.950 . S
C1381 C1377 1.393 . S
C1381 C1380 1.391 . S
C1382 H1372 0.950 . S
C1382 C1383 1.386 . S
C1382 C1384 1.391 . S
C1383 C1382 1.386 . S
C1383 C1387 1.393 . S
C1384 H1373 0.950 . S
C1384 C1382 1.391 . S
C1384 C1385 1.400 . S
C1385 C1379 1.491 . S
C1385 C1384 1.400 . S
C1385 C1386 1.398 . S
C1386 H1374 0.950 . S
C1386 C1385 1.398 . S
C1386 C1387 1.391 . S
C1387 H1375 0.950 . S
C1387 C1383 1.393 . S
C1387 C1386 1.391 . S
H1388 C1396 0.950 . S
H1389 C1401 0.950 . S
H1390 C1398 0.950 . S
H1391 C1400 0.950 . S
H1392 C1402 0.950 . S
H1393 C1404 0.950 . S
H1394 C1406 0.950 . S
H1395 C1407 0.950 . S
C1396 H1388 0.950 . S
C1396 C1397 1.386 . S
C1396 C1398 1.391 . S
C1397 C1396 1.386 . S
C1397 C1401 1.393 1_554 S
C1398 H1390 0.950 . S
C1398 C1396 1.391 . S
C1398 C1399 1.400 . S
C1399 C1398 1.400 . S
C1399 C1400 1.398 1_554 S
C1399 C1405 1.491 . S
C1400 H1391 0.950 . S
C1400 C1399 1.398 1_556 S
C1400 C1401 1.391 . S
C1401 H1389 0.950 . S
C1401 C1397 1.393 1_556 S
C1401 C1400 1.391 . S
C1402 H1392 0.950 . S
C1402 C1403 1.386 1_556 S
C1402 C1404 1.391 . S
C1403 C1402 1.386 1_554 S
C1403 C1407 1.393 . S
C1404 H1393 0.950 . S
C1404 C1402 1.391 . S
C1404 C1405 1.400 1_556 S
C1405 C1399 1.491 . S
C1405 C1404 1.400 1_554 S
C1405 C1406 1.398 . S
C1406 H1394 0.950 . S
C1406 C1405 1.398 . S
C1406 C1407 1.391 . S
C1407 H1395 0.950 . S
C1407 C1403 1.393 . S
C1407 C1406 1.391 . S
H1408 C1416 0.950 . S
H1409 C1421 0.950 1_455 S
H1410 C1418 0.950 . S
H1411 C1420 0.950 . S
H1412 C1422 0.950 . S
H1413 C1424 0.950 . S
H1414 C1426 0.950 . S
H1415 C1427 0.950 . S
C1416 H1408 0.950 . S
C1416 C1417 1.386 . S
C1416 C1418 1.391 . S
C1417 C1416 1.386 . S
C1417 C1421 1.393 . S
C1418 H1410 0.950 . S
C1418 C1416 1.391 . S
C1418 C1419 1.400 . S
C1419 C1418 1.400 . S
C1419 C1420 1.398 . S
C1419 C1425 1.491 . S
C1420 H1411 0.950 . S
C1420 C1419 1.398 . S
C1420 C1421 1.391 . S
C1421 H1409 0.950 1_655 S
C1421 C1417 1.393 . S
C1421 C1420 1.391 . S
C1422 H1412 0.950 . S
C1422 C1423 1.386 . S
C1422 C1424 1.391 . S
C1423 C1422 1.386 . S
C1423 C1427 1.393 . S
C1424 H1413 0.950 . S
C1424 C1422 1.391 . S
C1424 C1425 1.400 . S
C1425 C1419 1.491 . S
C1425 C1424 1.400 . S
C1425 C1426 1.398 . S
C1426 H1414 0.950 . S
C1426 C1425 1.398 . S
C1426 C1427 1.391 . S
C1427 H1415 0.950 . S
C1427 C1423 1.393 . S
C1427 C1426 1.391 . S
H1428 C1436 0.950 . S
H1429 C1441 0.950 . S
H1430 C1438 0.950 . S
H1431 C1440 0.950 . S
H1432 C1442 0.950 . S
H1433 C1444 0.950 . S
H1434 C1446 0.950 . S
H1435 C1447 0.950 . S
C1436 H1428 0.950 . S
C1436 C1437 1.386 . S
C1436 C1438 1.391 . S
C1437 C1436 1.386 . S
C1437 C1441 1.393 . S
C1438 H1430 0.950 . S
C1438 C1436 1.391 . S
C1438 C1439 1.400 . S
C1439 C1438 1.400 . S
C1439 C1440 1.398 . S
C1439 C1445 1.491 . S
C1440 H1431 0.950 . S
C1440 C1439 1.398 . S
C1440 C1441 1.391 . S
C1441 H1429 0.950 . S
C1441 C1437 1.393 . S
C1441 C1440 1.391 . S
C1442 H1432 0.950 . S
C1442 C1443 1.386 . S
C1442 C1444 1.391 . S
C1443 C1442 1.386 . S
C1443 C1447 1.393 . S
C1444 H1433 0.950 . S
C1444 C1442 1.391 . S
C1444 C1445 1.400 . S
C1445 C1439 1.491 . S
C1445 C1444 1.400 . S
C1445 C1446 1.398 . S
C1446 H1434 0.950 . S
C1446 C1445 1.398 . S
C1446 C1447 1.391 . S
C1447 H1435 0.950 . S
C1447 C1443 1.393 . S
C1447 C1446 1.391 . S
H1448 C1456 0.950 . S
H1449 C1461 0.950 . S
H1450 C1458 0.950 . S
H1451 C1460 0.950 . S
H1452 C1462 0.950 . S
H1453 C1464 0.950 . S
H1454 C1466 0.950 . S
H1455 C1467 0.950 . S
C1456 H1448 0.950 . S
C1456 C1457 1.386 . S
C1456 C1458 1.391 . S
C1457 C1456 1.386 . S
C1457 C1461 1.393 . S
C1458 H1450 0.950 . S
C1458 C1456 1.391 . S
C1458 C1459 1.400 . S
C1459 C1458 1.400 . S
C1459 C1460 1.398 . S
C1459 C1465 1.491 . S
C1460 H1451 0.950 . S
C1460 C1459 1.398 . S
C1460 C1461 1.391 . S
C1461 H1449 0.950 . S
C1461 C1457 1.393 . S
C1461 C1460 1.391 . S
C1462 H1452 0.950 . S
C1462 C1463 1.386 . S
C1462 C1464 1.391 . S
C1463 C1462 1.386 . S
C1463 C1467 1.393 . S
C1464 H1453 0.950 . S
C1464 C1462 1.391 . S
C1464 C1465 1.400 . S
C1465 C1459 1.491 . S
C1465 C1464 1.400 . S
C1465 C1466 1.398 . S
C1466 H1454 0.950 . S
C1466 C1465 1.398 . S
C1466 C1467 1.391 . S
C1467 H1455 0.950 . S
C1467 C1463 1.393 . S
C1467 C1466 1.391 . S
H1468 C1476 0.950 . S
H1469 C1481 0.950 . S
H1470 C1478 0.950 . S
H1471 C1480 0.950 . S
H1472 C1482 0.950 . S
H1473 C1484 0.950 . S
H1474 C1486 0.950 . S
H1475 C1487 0.950 . S
C1476 H1468 0.950 . S
C1476 C1477 1.386 . S
C1476 C1478 1.391 . S
C1477 C1476 1.386 . S
C1477 C1481 1.393 . S
C1478 H1470 0.950 . S
C1478 C1476 1.391 . S
C1478 C1479 1.400 . S
C1479 C1478 1.400 . S
C1479 C1480 1.398 . S
C1479 C1485 1.491 . S
C1480 H1471 0.950 . S
C1480 C1479 1.398 . S
C1480 C1481 1.391 . S
C1481 H1469 0.950 . S
C1481 C1477 1.393 . S
C1481 C1480 1.391 . S
C1482 H1472 0.950 . S
C1482 C1483 1.386 . S
C1482 C1484 1.391 . S
C1483 C1482 1.386 . S
C1483 C1487 1.393 . S
C1484 H1473 0.950 . S
C1484 C1482 1.391 . S
C1484 C1485 1.400 . S
C1485 C1479 1.491 . S
C1485 C1484 1.400 . S
C1485 C1486 1.398 . S
C1486 H1474 0.950 . S
C1486 C1485 1.398 . S
C1486 C1487 1.391 . S
C1487 H1475 0.950 . S
C1487 C1483 1.393 . S
C1487 C1486 1.391 . S
H1488 C1496 0.950 . S
H1489 C1501 0.950 . S
H1490 C1498 0.950 . S
H1491 C1500 0.950 . S
H1492 C1502 0.950 1_655 S
H1493 C1504 0.950 . S
H1494 C1506 0.950 . S
H1495 C1507 0.950 . S
C1496 H1488 0.950 . S
C1496 C1497 1.386 . S
C1496 C1498 1.391 . S
C1497 C1496 1.386 . S
C1497 C1501 1.393 . S
C1498 H1490 0.950 . S
C1498 C1496 1.391 . S
C1498 C1499 1.400 . S
C1499 C1498 1.400 . S
C1499 C1500 1.398 . S
C1499 C1505 1.491 . S
C1500 H1491 0.950 . S
C1500 C1499 1.398 . S
C1500 C1501 1.391 . S
C1501 H1489 0.950 . S
C1501 C1497 1.393 . S
C1501 C1500 1.391 . S
C1502 H1492 0.950 1_455 S
C1502 C1503 1.386 . S
C1502 C1504 1.391 . S
C1503 C1502 1.386 . S
C1503 C1507 1.393 . S
C1504 H1493 0.950 . S
C1504 C1502 1.391 . S
C1504 C1505 1.400 . S
C1505 C1499 1.491 . S
C1505 C1504 1.400 . S
C1505 C1506 1.398 . S
C1506 H1494 0.950 . S
C1506 C1505 1.398 . S
C1506 C1507 1.391 . S
C1507 H1495 0.950 . S
C1507 C1503 1.393 . S
C1507 C1506 1.391 . S
H1508 C1516 0.950 . S
H1509 C1521 0.950 . S
H1510 C1518 0.950 . S
H1511 C1520 0.950 . S
H1512 C1522 0.950 . S
H1513 C1524 0.950 . S
H1514 C1526 0.950 . S
H1515 C1527 0.950 . S
C1516 H1508 0.950 . S
C1516 C1517 1.386 . S
C1516 C1518 1.391 . S
C1517 C1516 1.386 . S
C1517 C1521 1.393 . S
C1518 H1510 0.950 . S
C1518 C1516 1.391 . S
C1518 C1519 1.400 . S
C1519 C1518 1.400 . S
C1519 C1520 1.398 . S
C1519 C1525 1.491 . S
C1520 H1511 0.950 . S
C1520 C1519 1.398 . S
C1520 C1521 1.391 . S
C1521 H1509 0.950 . S
C1521 C1517 1.393 . S
C1521 C1520 1.391 . S
C1522 H1512 0.950 . S
C1522 C1523 1.386 . S
C1522 C1524 1.391 . S
C1523 C1522 1.386 . S
C1523 C1527 1.393 . S
C1524 H1513 0.950 . S
C1524 C1522 1.391 . S
C1524 C1525 1.400 . S
C1525 C1519 1.491 . S
C1525 C1524 1.400 . S
C1525 C1526 1.398 . S
C1526 H1514 0.950 . S
C1526 C1525 1.398 . S
C1526 C1527 1.391 . S
C1527 H1515 0.950 . S
C1527 C1523 1.393 . S
C1527 C1526 1.391 . S
H1528 C1536 0.950 . S
H1529 C1541 0.950 . S
H1530 C1538 0.950 . S
H1531 C1540 0.950 . S
H1532 C1542 0.950 . S
H1533 C1544 0.950 . S
H1534 C1546 0.950 . S
H1535 C1547 0.950 . S
C1536 H1528 0.950 . S
C1536 C1537 1.386 . S
C1536 C1538 1.391 . S
C1537 C1536 1.386 . S
C1537 C1541 1.393 . S
C1538 H1530 0.950 . S
C1538 C1536 1.391 . S
C1538 C1539 1.400 . S
C1539 C1538 1.400 . S
C1539 C1540 1.398 . S
C1539 C1545 1.491 . S
C1540 H1531 0.950 . S
C1540 C1539 1.398 . S
C1540 C1541 1.391 . S
C1541 H1529 0.950 . S
C1541 C1537 1.393 . S
C1541 C1540 1.391 . S
C1542 H1532 0.950 . S
C1542 C1543 1.386 . S
C1542 C1544 1.391 . S
C1543 C1542 1.386 . S
C1543 C1547 1.393 . S
C1544 H1533 0.950 . S
C1544 C1542 1.391 . S
C1544 C1545 1.400 . S
C1545 C1539 1.491 . S
C1545 C1544 1.400 . S
C1545 C1546 1.398 . S
C1546 H1534 0.950 . S
C1546 C1545 1.398 . S
C1546 C1547 1.391 . S
C1547 H1535 0.950 . S
C1547 C1543 1.393 . S
C1547 C1546 1.391 . S
H1548 C1556 0.950 . S
H1549 C1561 0.950 . S
H1550 C1558 0.950 . S
H1551 C1560 0.950 . S
H1552 C1562 0.950 . S
H1553 C1564 0.950 . S
H1554 C1566 0.950 . S
H1555 C1567 0.950 . S
C1556 H1548 0.950 . S
C1556 C1557 1.386 . S
C1556 C1558 1.391 . S
C1557 C1556 1.386 . S
C1557 C1561 1.393 . S
C1558 H1550 0.950 . S
C1558 C1556 1.391 . S
C1558 C1559 1.400 . S
C1559 C1558 1.400 . S
C1559 C1560 1.398 . S
C1559 C1565 1.491 . S
C1560 H1551 0.950 . S
C1560 C1559 1.398 . S
C1560 C1561 1.391 . S
C1561 H1549 0.950 . S
C1561 C1557 1.393 . S
C1561 C1560 1.391 . S
C1562 H1552 0.950 . S
C1562 C1563 1.386 . S
C1562 C1564 1.391 . S
C1563 C1562 1.386 . S
C1563 C1567 1.393 . S
C1564 H1553 0.950 . S
C1564 C1562 1.391 . S
C1564 C1565 1.400 . S
C1565 C1559 1.491 . S
C1565 C1564 1.400 . S
C1565 C1566 1.398 . S
C1566 H1554 0.950 . S
C1566 C1565 1.398 . S
C1566 C1567 1.391 . S
C1567 H1555 0.950 . S
C1567 C1563 1.393 . S
C1567 C1566 1.391 . S
H1568 C1576 0.950 1_455 S
H1569 C1581 0.950 . S
H1570 C1578 0.950 . S
H1571 C1580 0.950 . S
H1572 C1582 0.950 . S
H1573 C1584 0.950 . S
H1574 C1586 0.950 . S
H1575 C1587 0.950 . S
C1576 H1568 0.950 1_655 S
C1576 C1577 1.386 . S
C1576 C1578 1.391 . S
C1577 C1576 1.386 . S
C1577 C1581 1.393 . S
C1578 H1570 0.950 . S
C1578 C1576 1.391 . S
C1578 C1579 1.400 . S
C1579 C1578 1.400 . S
C1579 C1580 1.398 . S
C1579 C1585 1.491 . S
C1580 H1571 0.950 . S
C1580 C1579 1.398 . S
C1580 C1581 1.391 . S
C1581 H1569 0.950 . S
C1581 C1577 1.393 . S
C1581 C1580 1.391 . S
C1582 H1572 0.950 . S
C1582 C1583 1.386 . S
C1582 C1584 1.391 . S
C1583 C1582 1.386 . S
C1583 C1587 1.393 . S
C1584 H1573 0.950 . S
C1584 C1582 1.391 . S
C1584 C1585 1.400 . S
C1585 C1579 1.491 . S
C1585 C1584 1.400 . S
C1585 C1586 1.398 . S
C1586 H1574 0.950 . S
C1586 C1585 1.398 . S
C1586 C1587 1.391 . S
C1587 H1575 0.950 . S
C1587 C1583 1.393 . S
C1587 C1586 1.391 . S
H1588 C1596 0.950 . S
H1589 C1601 0.950 . S
H1590 C1598 0.950 . S
H1591 C1600 0.950 . S
H1592 C1602 0.950 . S
H1593 C1604 0.950 . S
H1594 C1606 0.950 . S
H1595 C1607 0.950 . S
C1596 H1588 0.950 . S
C1596 C1597 1.386 . S
C1596 C1598 1.391 . S
C1597 C1596 1.386 . S
C1597 C1601 1.393 . S
C1598 H1590 0.950 . S
C1598 C1596 1.391 . S
C1598 C1599 1.400 . S
C1599 C1598 1.400 . S
C1599 C1600 1.398 . S
C1599 C1605 1.491 . S
C1600 H1591 0.950 . S
C1600 C1599 1.398 . S
C1600 C1601 1.391 . S
C1601 H1589 0.950 . S
C1601 C1597 1.393 . S
C1601 C1600 1.391 . S
C1602 H1592 0.950 . S
C1602 C1603 1.386 . S
C1602 C1604 1.391 . S
C1603 C1602 1.386 . S
C1603 C1607 1.393 . S
C1604 H1593 0.950 . S
C1604 C1602 1.391 . S
C1604 C1605 1.400 . S
C1605 C1599 1.491 . S
C1605 C1604 1.400 . S
C1605 C1606 1.398 . S
C1606 H1594 0.950 . S
C1606 C1605 1.398 . S
C1606 C1607 1.391 . S
C1607 H1595 0.950 . S
C1607 C1603 1.393 . S
C1607 C1606 1.391 . S
H1608 C1616 0.950 . S
H1609 C1621 0.950 . S
H1610 C1618 0.950 . S
H1611 C1620 0.950 . S
H1612 C1622 0.950 . S
H1613 C1624 0.950 . S
H1614 C1626 0.950 . S
H1615 C1627 0.950 . S
C1616 H1608 0.950 . S
C1616 C1617 1.386 . S
C1616 C1618 1.391 . S
C1617 C1616 1.386 . S
C1617 C1621 1.393 . S
C1618 H1610 0.950 . S
C1618 C1616 1.391 . S
C1618 C1619 1.400 . S
C1619 C1618 1.400 . S
C1619 C1620 1.398 . S
C1619 C1625 1.491 . S
C1620 H1611 0.950 . S
C1620 C1619 1.398 . S
C1620 C1621 1.391 . S
C1621 H1609 0.950 . S
C1621 C1617 1.393 . S
C1621 C1620 1.391 . S
C1622 H1612 0.950 . S
C1622 C1623 1.386 . S
C1622 C1624 1.391 . S
C1623 C1622 1.386 . S
C1623 C1627 1.393 . S
C1624 H1613 0.950 . S
C1624 C1622 1.391 . S
C1624 C1625 1.400 . S
C1625 C1619 1.491 . S
C1625 C1624 1.400 . S
C1625 C1626 1.398 . S
C1626 H1614 0.950 . S
C1626 C1625 1.398 . S
C1626 C1627 1.391 . S
C1627 H1615 0.950 . S
C1627 C1623 1.393 . S
C1627 C1626 1.391 . S
H1628 C1636 0.950 . S
H1629 C1641 0.950 . S
H1630 C1638 0.950 . S
H1631 C1640 0.950 . S
H1632 C1642 0.950 . S
H1633 C1644 0.950 . S
H1634 C1646 0.950 . S
H1635 C1647 0.950 . S
C1636 H1628 0.950 . S
C1636 C1637 1.386 . S
C1636 C1638 1.391 . S
C1637 C1636 1.386 . S
C1637 C1641 1.393 . S
C1638 H1630 0.950 . S
C1638 C1636 1.391 . S
C1638 C1639 1.400 . S
C1639 C1638 1.400 . S
C1639 C1640 1.398 . S
C1639 C1645 1.491 . S
C1640 H1631 0.950 . S
C1640 C1639 1.398 . S
C1640 C1641 1.391 . S
C1641 H1629 0.950 . S
C1641 C1637 1.393 . S
C1641 C1640 1.391 . S
C1642 H1632 0.950 . S
C1642 C1643 1.386 . S
C1642 C1644 1.391 . S
C1643 C1642 1.386 . S
C1643 C1647 1.393 . S
C1644 H1633 0.950 . S
C1644 C1642 1.391 . S
C1644 C1645 1.400 . S
C1645 C1639 1.491 . S
C1645 C1644 1.400 . S
C1645 C1646 1.398 . S
C1646 H1634 0.950 . S
C1646 C1645 1.398 . S
C1646 C1647 1.391 . S
C1647 H1635 0.950 . S
C1647 C1643 1.393 . S
C1647 C1646 1.391 . S
H1648 C1656 0.950 1_655 S
H1649 C1661 0.950 . S
H1650 C1658 0.950 . S
H1651 C1660 0.950 . S
H1652 C1662 0.950 . S
H1653 C1664 0.950 . S
H1654 C1666 0.950 . S
H1655 C1667 0.950 . S
C1656 H1648 0.950 1_455 S
C1656 C1657 1.386 . S
C1656 C1658 1.391 . S
C1657 C1656 1.386 . S
C1657 C1661 1.393 . S
C1658 H1650 0.950 . S
C1658 C1656 1.391 . S
C1658 C1659 1.400 . S
C1659 C1658 1.400 . S
C1659 C1660 1.398 . S
C1659 C1665 1.491 . S
C1660 H1651 0.950 . S
C1660 C1659 1.398 . S
C1660 C1661 1.391 . S
C1661 H1649 0.950 . S
C1661 C1657 1.393 . S
C1661 C1660 1.391 . S
C1662 H1652 0.950 . S
C1662 C1663 1.386 . S
C1662 C1664 1.391 . S
C1663 C1662 1.386 . S
C1663 C1667 1.393 . S
C1664 H1653 0.950 . S
C1664 C1662 1.391 . S
C1664 C1665 1.400 . S
C1665 C1659 1.491 . S
C1665 C1664 1.400 . S
C1665 C1666 1.398 . S
C1666 H1654 0.950 . S
C1666 C1665 1.398 . S
C1666 C1667 1.391 . S
C1667 H1655 0.950 . S
C1667 C1663 1.393 . S
C1667 C1666 1.391 . S
H1668 C1676 0.950 . S
H1669 C1681 0.950 . S
H1670 C1678 0.950 . S
H1671 C1680 0.950 . S
H1672 C1682 0.950 . S
H1673 C1684 0.950 . S
H1674 C1686 0.950 . S
H1675 C1687 0.950 . S
C1676 H1668 0.950 . S
C1676 C1677 1.386 . S
C1676 C1678 1.391 . S
C1677 C1676 1.386 . S
C1677 C1681 1.393 . S
C1678 H1670 0.950 . S
C1678 C1676 1.391 . S
C1678 C1679 1.400 . S
C1679 C1678 1.400 . S
C1679 C1680 1.398 . S
C1679 C1685 1.491 . S
C1680 H1671 0.950 . S
C1680 C1679 1.398 . S
C1680 C1681 1.391 . S
C1681 H1669 0.950 . S
C1681 C1677 1.393 . S
C1681 C1680 1.391 . S
C1682 H1672 0.950 . S
C1682 C1683 1.386 . S
C1682 C1684 1.391 . S
C1683 C1682 1.386 . S
C1683 C1687 1.393 . S
C1684 H1673 0.950 . S
C1684 C1682 1.391 . S
C1684 C1685 1.400 . S
C1685 C1679 1.491 . S
C1685 C1684 1.400 . S
C1685 C1686 1.398 . S
C1686 H1674 0.950 . S
C1686 C1685 1.398 . S
C1686 C1687 1.391 . S
C1687 H1675 0.950 . S
C1687 C1683 1.393 . S
C1687 C1686 1.391 . S
H1688 C1696 0.950 1_655 S
H1689 C1701 0.950 . S
H1690 C1698 0.950 . S
H1691 C1700 0.950 . S
H1692 C1702 0.950 . S
H1693 C1704 0.950 . S
H1694 C1706 0.950 . S
H1695 C1707 0.950 . S
C1696 H1688 0.950 1_455 S
C1696 C1697 1.386 . S
C1696 C1698 1.391 . S
C1697 C1696 1.386 . S
C1697 C1701 1.393 . S
C1698 H1690 0.950 . S
C1698 C1696 1.391 . S
C1698 C1699 1.400 . S
C1699 C1698 1.400 . S
C1699 C1700 1.398 . S
C1699 C1705 1.491 . S
C1700 H1691 0.950 . S
C1700 C1699 1.398 . S
C1700 C1701 1.391 . S
C1701 H1689 0.950 . S
C1701 C1697 1.393 . S
C1701 C1700 1.391 . S
C1702 H1692 0.950 . S
C1702 C1703 1.386 . S
C1702 C1704 1.391 . S
C1703 C1702 1.386 . S
C1703 C1707 1.393 . S
C1704 H1693 0.950 . S
C1704 C1702 1.391 . S
C1704 C1705 1.400 . S
C1705 C1699 1.491 . S
C1705 C1704 1.400 . S
C1705 C1706 1.398 . S
C1706 H1694 0.950 . S
C1706 C1705 1.398 . S
C1706 C1707 1.391 . S
C1707 H1695 0.950 . S
C1707 C1703 1.393 . S
C1707 C1706 1.391 . S
H1708 C1716 0.950 . S
H1709 C1721 0.950 . S
H1710 C1718 0.950 . S
H1711 C1720 0.950 . S
H1712 C1722 0.950 . S
H1713 C1724 0.950 . S
H1714 C1726 0.950 . S
H1715 C1727 0.950 . S
C1716 H1708 0.950 . S
C1716 C1717 1.386 . S
C1716 C1718 1.391 . S
C1717 C1716 1.386 . S
C1717 C1721 1.393 . S
C1718 H1710 0.950 . S
C1718 C1716 1.391 . S
C1718 C1719 1.400 . S
C1719 C1718 1.400 . S
C1719 C1720 1.398 . S
C1719 C1725 1.491 . S
C1720 H1711 0.950 . S
C1720 C1719 1.398 . S
C1720 C1721 1.391 . S
C1721 H1709 0.950 . S
C1721 C1717 1.393 . S
C1721 C1720 1.391 . S
C1722 H1712 0.950 . S
C1722 C1723 1.386 . S
C1722 C1724 1.391 . S
C1723 C1722 1.386 . S
C1723 C1727 1.393 . S
C1724 H1713 0.950 . S
C1724 C1722 1.391 . S
C1724 C1725 1.400 . S
C1725 C1719 1.491 . S
C1725 C1724 1.400 . S
C1725 C1726 1.398 . S
C1726 H1714 0.950 . S
C1726 C1725 1.398 . S
C1726 C1727 1.391 . S
C1727 H1715 0.950 . S
C1727 C1723 1.393 . S
C1727 C1726 1.391 . S
C457 C51 1.048 . S
C463 C9 1.051 . S
C477 C37 1.068 . S
C483 C23 1.069 . S
C497 C107 1.031 . S
C503 C65 1.032 . S
C517 C93 1.036 . S
C523 C79 1.034 . S
C537 C121 1.032 . S
C543 C163 1.033 . S
C557 C135 1.067 . S
C563 C149 1.065 . S
C577 C219 1.051 . S
C583 C177 1.053 . S
C597 C191 1.062 . S
C603 C205 1.065 . S
C617 C233 1.073 . S
C623 C275 1.073 . S
C637 C247 1.037 . S
C643 C261 1.039 . S
C657 C331 1.052 . S
C663 C289 1.055 . S
C677 C317 1.054 . S
C683 C303 1.057 . S
C697 C387 1.034 . S
C703 C345 1.033 . S
C717 C359 1.072 . S
C723 C373 1.073 . S
C737 C401 1.051 . S
C743 C443 1.048 . S
C757 C415 1.040 . S
C763 C429 1.042 . S
C777 C283 1.257 . S
C783 C3 1.257 . S
C797 C185 1.276 . S
C803 C17 1.276 . S
C817 C31 1.269 . S
C823 C423 1.269 . S
C837 C45 1.270 . S
C843 C101 1.270 . S
C857 C227 1.268 . S
C863 C59 1.268 . S
C877 C129 1.276 . S
C883 C73 1.276 . S
C897 C367 1.263 . S
C903 C87 1.263 . S
C917 C115 1.261 . S
C923 C395 1.261 . S
C937 C311 1.255 . S
C943 C143 1.255 . S
C957 C213 1.263 . S
C963 C157 1.263 . S
C977 C339 1.264 . S
C983 C171 1.264 . S
C997 C199 1.276 . S
C1003 C255 1.276 . S
C1017 C409 1.256 . S
C1023 C241 1.256 . S
C1037 C269 1.272 . S
C1043 C325 1.272 . S
C1057 C353 1.266 . S
C1063 C297 1.266 . S
C1077 C437 1.271 . S
C1083 C381 1.271 . S
C1097 C21 1.322 . S
C1103 C7 1.315 . S
C1117 C35 1.328 . S
C1123 C49 1.310 . S
C1137 C63 1.328 . S
C1143 C77 1.311 . S
C1157 C105 1.322 . S
C1163 C91 1.318 . S
C1177 C119 1.314 . S
C1183 C133 1.326 . S
C1197 C147 1.310 . S
C1203 C161 1.328 . S
C1217 C189 1.327 . S
C1223 C175 1.313 . S
C1237 C203 1.311 . S
C1243 C217 1.327 . S
C1257 C231 1.327 . S
C1263 C245 1.311 . S
C1277 C259 1.320 . S
C1283 C273 1.318 . S
C1297 C287 1.310 . S
C1303 C301 1.328 . S
C1317 C329 1.328 . S
C1323 C315 1.312 . S
C1337 C357 1.323 . S
C1343 C343 1.315 . S
C1357 C371 1.312 . S
C1363 C385 1.327 . S
C1377 C399 1.321 . S
C1383 C413 1.316 . S
C1397 C441 1.317 . S
C1403 C427 1.323 . S
C1417 C8 1.516 . S
C1423 C274 1.516 . S
C1437 C22 1.522 . S
C1443 C260 1.523 . S
C1457 C246 1.514 . S
C1463 C36 1.514 . S
C1477 C50 1.523 . S
C1483 C232 1.523 . S
C1497 C330 1.522 . S
C1503 C64 1.522 . S
C1517 C78 1.522 . S
C1523 C316 1.521 . S
C1537 C302 1.515 . S
C1543 C92 1.515 . S
C1557 C106 1.517 . S
C1563 C288 1.516 . S
C1577 C120 1.516 . S
C1583 C386 1.516 . S
C1597 C134 1.520 . S
C1603 C372 1.521 . S
C1617 C148 1.515 . S
C1623 C358 1.515 . S
C1637 C344 1.515 . S
C1643 C162 1.515 . S
C1657 C176 1.516 . S
C1663 C442 1.516 . S
C1677 C190 1.523 . S
C1683 C428 1.523 . S
C1697 C204 1.521 . S
C1703 C414 1.521 . S
C1717 C400 1.515 . S
C1723 C218 1.515 . S
