# Generated by pormake.
# Topology umz, (4)-cn, num edge types: 1
# Building blocks:
#     Node 0, Type 0, BuildingBlock: NAHDIM_clean_sbu_0, # of connection points: 4
#     Node 1, Type 0, BuildingBlock: NAHDIM_clean_sbu_0, # of connection points: 4
#     Node 2, Type 0, BuildingBlock: NAHDIM_clean_sbu_0, # of connection points: 4
#     Node 3, Type 0, BuildingBlock: NAHDIM_clean_sbu_0, # of connection points: 4
#     Node 4, Type 0, BuildingBlock: NAHDIM_clean_sbu_0, # of connection points: 4
#     Node 5, Type 0, BuildingBlock: NAHDIM_clean_sbu_0, # of connection points: 4
#     Node 6, Type 0, BuildingBlock: NAHDIM_clean_sbu_0, # of connection points: 4
#     Node 7, Type 0, BuildingBlock: NAHDIM_clean_sbu_0, # of connection points: 4
#     Node 8, Type 0, BuildingBlock: NAHDIM_clean_sbu_0, # of connection points: 4
#     Node 9, Type 0, BuildingBlock: NAHDIM_clean_sbu_0, # of connection points: 4
#     Node 10, Type 0, BuildingBlock: NAHDIM_clean_sbu_0, # of connection points: 4
#     Node 11, Type 0, BuildingBlock: NAHDIM_clean_sbu_0, # of connection points: 4
#     Node 12, Type 0, BuildingBlock: NAHDIM_clean_sbu_0, # of connection points: 4
#     Node 13, Type 0, BuildingBlock: NAHDIM_clean_sbu_0, # of connection points: 4
#     Node 14, Type 0, BuildingBlock: NAHDIM_clean_sbu_0, # of connection points: 4
#     Node 15, Type 0, BuildingBlock: NAHDIM_clean_sbu_0, # of connection points: 4
#     Edge 16, Type (0, 0), BuildingBlock: OJICUG_clean_linker_0, # of connection points: 2
#     Edge 17, Type (0, 0), BuildingBlock: OJICUG_clean_linker_0, # of connection points: 2
#     Edge 18, Type (0, 0), BuildingBlock: OJICUG_clean_linker_0, # of connection points: 2
#     Edge 19, Type (0, 0), BuildingBlock: OJICUG_clean_linker_0, # of connection points: 2
#     Edge 20, Type (0, 0), BuildingBlock: OJICUG_clean_linker_0, # of connection points: 2
#     Edge 21, Type (0, 0), BuildingBlock: OJICUG_clean_linker_0, # of connection points: 2
#     Edge 22, Type (0, 0), BuildingBlock: OJICUG_clean_linker_0, # of connection points: 2
#     Edge 23, Type (0, 0), BuildingBlock: OJICUG_clean_linker_0, # of connection points: 2
#     Edge 24, Type (0, 0), BuildingBlock: OJICUG_clean_linker_0, # of connection points: 2
#     Edge 25, Type (0, 0), BuildingBlock: OJICUG_clean_linker_0, # of connection points: 2
#     Edge 26, Type (0, 0), BuildingBlock: OJICUG_clean_linker_0, # of connection points: 2
#     Edge 27, Type (0, 0), BuildingBlock: OJICUG_clean_linker_0, # of connection points: 2
#     Edge 28, Type (0, 0), BuildingBlock: OJICUG_clean_linker_0, # of connection points: 2
#     Edge 29, Type (0, 0), BuildingBlock: OJICUG_clean_linker_0, # of connection points: 2
#     Edge 30, Type (0, 0), BuildingBlock: OJICUG_clean_linker_0, # of connection points: 2
#     Edge 31, Type (0, 0), BuildingBlock: OJICUG_clean_linker_0, # of connection points: 2
#     Edge 32, Type (0, 0), BuildingBlock: OJICUG_clean_linker_0, # of connection points: 2
#     Edge 33, Type (0, 0), BuildingBlock: OJICUG_clean_linker_0, # of connection points: 2
#     Edge 34, Type (0, 0), BuildingBlock: OJICUG_clean_linker_0, # of connection points: 2
#     Edge 35, Type (0, 0), BuildingBlock: OJICUG_clean_linker_0, # of connection points: 2
#     Edge 36, Type (0, 0), BuildingBlock: OJICUG_clean_linker_0, # of connection points: 2
#     Edge 37, Type (0, 0), BuildingBlock: OJICUG_clean_linker_0, # of connection points: 2
#     Edge 38, Type (0, 0), BuildingBlock: OJICUG_clean_linker_0, # of connection points: 2
#     Edge 39, Type (0, 0), BuildingBlock: OJICUG_clean_linker_0, # of connection points: 2
#     Edge 40, Type (0, 0), BuildingBlock: OJICUG_clean_linker_0, # of connection points: 2
#     Edge 41, Type (0, 0), BuildingBlock: OJICUG_clean_linker_0, # of connection points: 2
#     Edge 42, Type (0, 0), BuildingBlock: OJICUG_clean_linker_0, # of connection points: 2
#     Edge 43, Type (0, 0), BuildingBlock: OJICUG_clean_linker_0, # of connection points: 2
#     Edge 44, Type (0, 0), BuildingBlock: OJICUG_clean_linker_0, # of connection points: 2
#     Edge 45, Type (0, 0), BuildingBlock: OJICUG_clean_linker_0, # of connection points: 2
#     Edge 46, Type (0, 0), BuildingBlock: OJICUG_clean_linker_0, # of connection points: 2
#     Edge 47, Type (0, 0), BuildingBlock: OJICUG_clean_linker_0, # of connection points: 2
# Relax obj value: 0.217
# Max RMSD: 0.162
# Mean RMSD: 0.160
data_MOF--net-umz--node1-NAHDIM_clean_sbu_0--edge1-OJICUG_clean_linker_0
_symmetry_space_group_name_H-M    P1
_symmetry_Int_Tables_number       1
_symmetry_cell_setting            triclinic
loop_
_symmetry_equiv_pos_as_xyz
'x, y, z'
_cell_length_a     44.514368
_cell_length_b     44.564488
_cell_length_c     16.003471
_cell_angle_alpha  89.882993
_cell_angle_beta   89.920088
_cell_angle_gamma 90.111564
loop_
_atom_site_label
_atom_site_type_symbol
_atom_site_fract_x
_atom_site_fract_y
_atom_site_fract_z
_atom_type_partial_charge
C0 C 0.0055 0.67851 0.02719 0.0
O1 O 0.98467 0.65898 0.00642 0.0
O2 O 0.9834 0.61756 0.16344 0.0
Zn3 Zn 0.02282 0.62722 0.10929 0.0
O4 O 0.03021 0.60473 0.00311 0.0
C5 C 0.05589 0.58358 0.18919 0.0
O6 O 0.03946 0.56823 0.13618 0.0
O7 O 0.02571 0.6707 0.07883 0.0
C8 C 0.05676 0.60835 0.97546 0.0
O9 O 0.07483 0.62696 0.01453 0.0
C10 C 0.96251 0.60202 0.13131 0.0
O11 O 0.96493 0.59327 0.05324 0.0
O12 O 0.0536 0.61206 0.1909 0.0
C13 C 0.79497 0.98784 0.62297 0.0
O14 O 0.81094 0.9633 0.61428 0.0
O15 O 0.86582 0.96931 0.71889 0.0
Zn16 Zn 0.85039 0.00974 0.68396 0.0
O17 O 0.86898 0.02526 0.57791 0.0
C18 C 0.89305 0.03887 0.77455 0.0
O19 O 0.90814 0.02244 0.72092 0.0
O20 O 0.80632 0.01021 0.66076 0.0
C21 C 0.86769 0.05358 0.56811 0.0
O22 O 0.85503 0.07011 0.62614 0.0
C23 C 0.88352 0.95361 0.67487 0.0
O24 O 0.88942 0.96205 0.59786 0.0
O25 O 0.86447 0.03766 0.77387 0.0
C26 C 0.5093 0.82474 0.0757 0.0
O27 O 0.52339 0.84838 0.04588 0.0
O28 O 0.5141 0.89785 0.17354 0.0
Zn29 Zn 0.47879 0.86974 0.16689 0.0
O30 O 0.4506 0.88295 0.07618 0.0
C31 C 0.47216 0.87737 0.34333 0.0
O32 O 0.50165 0.87627 0.34105 0.0
O33 O 0.49062 0.82807 0.13512 0.0
C34 C 0.42655 0.89782 0.08641 0.0
O35 O 0.41895 0.90704 0.16142 0.0
C36 C 0.50745 0.92521 0.18588 0.0
O37 O 0.47901 0.93299 0.18776 0.0
O38 O 0.45743 0.8723 0.27683 0.0
C39 C 0.69038 0.50317 0.61288 0.0
O40 O 0.67261 0.52619 0.59985 0.0
O41 O 0.62375 0.52253 0.72891 0.0
Zn42 Zn 0.63699 0.48237 0.68555 0.0
O43 O 0.61477 0.47049 0.58201 0.0
C44 C 0.59507 0.45223 0.77643 0.0
O45 O 0.57964 0.46977 0.72632 0.0
O46 O 0.68072 0.48105 0.65543 0.0
C47 C 0.61716 0.44294 0.56267 0.0
O48 O 0.6345 0.42554 0.60809 0.0
C49 C 0.609 0.54119 0.68537 0.0
O50 O 0.60446 0.53563 0.60578 0.0
O51 O 0.62364 0.45295 0.77306 0.0
C52 C 0.0076 0.79423 0.8661 0.0
O53 O 0.98224 0.80912 0.86117 0.0
O54 O 0.99058 0.86668 0.79472 0.0
Zn55 Zn 0.03116 0.85219 0.83193 0.0
O56 O 0.04501 0.87023 0.94012 0.0
C57 C 0.05877 0.89684 0.74532 0.0
O58 O 0.0415 0.91055 0.79982 0.0
O59 O 0.03212 0.8076 0.84926 0.0
C60 C 0.07336 0.87098 0.95028 0.0
O61 O 0.09097 0.86003 0.89195 0.0
C62 C 0.97037 0.87891 0.83895 0.0
O63 O 0.97435 0.88141 0.91997 0.0
O64 O 0.05902 0.86827 0.74414 0.0
C65 C 0.6926 0.00347 0.40781 0.0
O66 O 0.66825 0.9873 0.41951 0.0
O67 O 0.62252 0.00634 0.30024 0.0
Zn68 Zn 0.65229 0.04005 0.31417 0.0
O69 O 0.63771 0.06898 0.40087 0.0
C70 C 0.65203 0.04629 0.1368 0.0
O71 O 0.65363 0.01688 0.14036 0.0
O72 O 0.69179 0.02582 0.35839 0.0
C73 C 0.62197 0.09239 0.38958 0.0
O74 O 0.61235 0.09928 0.31442 0.0
C75 C 0.597 0.01373 0.27133 0.0
O76 O 0.59144 0.0422 0.25694 0.0
O77 O 0.65463 0.06127 0.20393 0.0
C78 C 0.50716 0.71715 0.87668 0.0
O79 O 0.53188 0.7038 0.85191 0.0
O80 O 0.51435 0.6424 0.79576 0.0
Zn81 Zn 0.47557 0.66313 0.82095 0.0
O82 O 0.45182 0.64218 0.91082 0.0
C83 C 0.42702 0.65057 0.70535 0.0
O84 O 0.41087 0.64689 0.77338 0.0
O85 O 0.48184 0.70482 0.86372 0.0
C86 C 0.44511 0.61452 0.91565 0.0
O87 O 0.45501 0.5959 0.85839 0.0
C88 C 0.53063 0.62639 0.84302 0.0
O89 O 0.52343 0.62334 0.92223 0.0
O90 O 0.45357 0.66078 0.71161 0.0
C91 C 0.80368 0.49886 0.43866 0.0
O92 O 0.82226 0.5216 0.44685 0.0
O93 O 0.86864 0.51472 0.31735 0.0
Zn94 Zn 0.85642 0.47601 0.37169 0.0
O95 O 0.87834 0.46761 0.47833 0.0
C96 C 0.89923 0.44251 0.29156 0.0
O97 O 0.91464 0.45924 0.3437 0.0
O98 O 0.81262 0.4754 0.40107 0.0
C99 C 0.87468 0.44095 0.50492 0.0
O100 O 0.85615 0.42307 0.46486 0.0
C101 C 0.88636 0.53383 0.34925 0.0
O102 O 0.89521 0.53028 0.42693 0.0
O103 O 0.87069 0.44468 0.29041 0.0
C104 C 0.95378 0.30575 0.94569 0.0
O105 O 0.93022 0.32342 0.94173 0.0
O106 O 0.95141 0.36606 0.7825 0.0
Zn107 Zn 0.97937 0.35769 0.87746 0.0
O108 O 0.96254 0.38211 0.97098 0.0
C109 C 0.02854 0.36455 0.76751 0.0
O110 O 0.01134 0.34647 0.72375 0.0
O111 O 0.97863 0.31493 0.91583 0.0
C112 C 0.96841 0.37789 0.0476 0.0
O113 O 0.98913 0.35841 0.06908 0.0
C114 C 0.9508 0.39391 0.76509 0.0
O115 O 0.96814 0.41229 0.80746 0.0
O116 O 0.02046 0.37154 0.84124 0.0
C117 C 0.20424 0.96116 0.37807 0.0
O118 O 0.19092 0.93519 0.36594 0.0
O119 O 0.14124 0.94855 0.23543 0.0
Zn120 Zn 0.14686 0.9764 0.33427 0.0
O121 O 0.13109 0.95525 0.43536 0.0
C122 C 0.09357 0.00572 0.30817 0.0
O123 O 0.086 0.9777 0.32267 0.0
O124 O 0.18994 0.98503 0.36086 0.0
C125 C 0.12228 0.96798 0.50165 0.0
O126 O 0.12375 -0.00265 0.50751 0.0
C127 C 0.12362 0.92615 0.24317 0.0
O128 O 0.11236 0.91964 0.31684 0.0
O129 O 0.12119 0.01292 0.31205 0.0
C130 C 0.55693 0.19894 0.91181 0.0
O131 O 0.58316 0.18581 0.90366 0.0
O132 O 0.55608 0.14939 0.70532 0.0
Zn133 Zn 0.53974 0.14717 0.82243 0.0
O134 O 0.56918 0.12479 0.89395 0.0
C135 C 0.48492 0.12246 0.75554 0.0
O136 O 0.49344 0.13705 0.68812 0.0
O137 O 0.53408 0.18732 0.87684 0.0
C138 C 0.58179 0.10004 0.87643 0.0
O139 O 0.57484 0.0861 0.8068 0.0
C140 C 0.58422 0.14954 0.6922 0.0
O141 O 0.60259 0.15206 0.75596 0.0
O142 O 0.50086 0.12414 0.82121 0.0
C143 C 0.30466 0.54725 0.37402 0.0
O144 O 0.31717 0.57397 0.37506 0.0
O145 O 0.37537 0.54672 0.21831 0.0
Zn146 Zn 0.36429 0.53112 0.33262 0.0
O147 O 0.37757 0.56 0.42186 0.0
C148 C 0.38208 0.47286 0.28695 0.0
O149 O 0.36477 0.47984 0.2234 0.0
O150 O 0.32016 0.52488 0.3506 0.0
C151 C 0.3998 0.57787 0.41814 0.0
O152 O 0.41768 0.57724 0.35279 0.0
C153 C 0.37421 0.57416 0.1971 0.0
O154 O 0.36271 0.59376 0.24928 0.0
O155 O 0.38518 0.49162 0.34603 0.0
C156 C 0.94615 0.19374 0.12623 0.0
O157 O 0.92031 0.17944 0.12892 0.0
O158 O 0.93683 0.12915 0.27893 0.0
Zn159 Zn 0.96395 0.13701 0.17937 0.0
O160 O 0.94449 0.11893 0.07886 0.0
C161 C -0.00065 0.0873 0.20932 0.0
O162 O 0.97243 0.07606 0.19699 0.0
O163 O 0.9696 0.18045 0.15206 0.0
C164 C 0.9584 0.10921 0.01538 0.0
O165 O 0.9878 0.11161 0.01185 0.0
C166 C 0.91685 0.10878 0.27254 0.0
O167 O 0.91194 0.09628 0.19964 0.0
O168 O 0.00298 0.11549 0.20249 0.0
C169 C 0.31275 0.96179 0.57502 0.0
O170 O 0.32819 0.93684 0.58233 0.0
O171 O 0.36269 0.96224 0.77666 0.0
Zn172 Zn 0.36349 0.9816 0.66268 0.0
O173 O 0.38765 0.95534 0.58643 0.0
C174 C 0.39178 0.03264 0.7407 0.0
O175 O 0.38271 0.0192 0.80937 0.0
O176 O 0.32265 0.98547 0.60974 0.0
C177 C 0.41394 0.94571 0.60119 0.0
O178 O 0.42779 0.95395 0.66991 0.0
C179 C 0.36648 0.93419 0.78578 0.0
O180 O 0.36672 0.91688 0.71946 0.0
O181 O 0.38494 0.02139 0.67027 0.0
C182 C 0.54593 0.30259 0.125 0.0
O183 O 0.56973 0.31953 0.13694 0.0
O184 O 0.54422 0.36491 0.28377 0.0
Zn185 Zn 0.52034 0.35552 0.18112 0.0
O186 O 0.5417 0.37726 0.08966 0.0
C187 C 0.46726 0.3767 0.26465 0.0
O188 O 0.48129 0.36651 0.33103 0.0
O189 O 0.52038 0.31243 0.14712 0.0
C190 C 0.52964 0.38254 0.01953 0.0
O191 O 0.50179 0.374 0.00622 0.0
C192 C 0.54644 0.39308 0.29498 0.0
O193 O 0.53278 0.41126 0.24269 0.0
O194 O 0.47886 0.37271 0.19292 0.0
C195 C 0.19072 0.53067 0.54044 0.0
O196 O 0.172 0.55333 0.54677 0.0
O197 O 0.13089 0.53124 0.69801 0.0
Zn198 Zn 0.13957 0.50313 0.60414 0.0
O199 O 0.1149 0.5192 0.51 0.0
C200 C 0.11116 0.44368 0.60085 0.0
O201 O 0.10678 0.44895 0.521 0.0
O202 O 0.18249 0.50502 0.56683 0.0
C203 C 0.12063 0.5147 0.4334 0.0
O204 O 0.14195 0.49585 0.41217 0.0
C205 C 0.10303 0.53183 0.71566 0.0
O206 O 0.0846 0.51433 0.674 0.0
O207 O 0.12592 0.4625 0.64391 0.0
C208 C 0.98054 0.71915 0.94586 0.0
C209 C 0.00629 0.70813 0.98609 0.0
H210 H 0.96084 0.75505 0.87607 0.0
C211 C 0.03293 0.72505 0.98346 0.0
H212 H 0.95972 0.70652 0.9466 0.0
C213 C 0.03373 0.75257 0.94147 0.0
C214 C 0.00777 0.76385 0.9027 0.0
H215 H 0.0532 0.71692 0.01318 0.0
H216 H 0.05446 0.76535 0.94126 0.0
C217 C 0.9812 0.74686 0.9052 0.0
C218 C 0.72537 0.97067 0.49615 0.0
C219 C 0.71889 -0.00098 0.46224 0.0
H220 H 0.75495 0.94481 0.57377 0.0
C221 C 0.73667 0.02375 0.48491 0.0
H222 H 0.71182 0.95132 0.48005 0.0
C223 C 0.7605 0.02024 0.54047 0.0
C224 C 0.76751 0.9918 0.57288 0.0
H225 H 0.73188 0.04595 0.4607 0.0
H226 H 0.77402 0.03969 0.55597 0.0
C227 C 0.74983 0.967 0.55006 0.0
C228 C 0.48632 0.77583 0.03598 0.0
C229 C 0.51045 0.79605 0.02993 0.0
H230 H 0.46613 0.73552 0.99087 0.0
C231 C 0.53404 0.78985 0.97407 0.0
H232 H 0.46768 0.78009 0.07787 0.0
C233 C 0.53331 0.76398 0.92458 0.0
C234 C 0.50861 0.74438 0.92876 0.0
H235 H 0.55287 0.80513 0.96802 0.0
H236 H 0.55168 0.75967 0.88184 0.0
C237 C 0.48526 0.75046 0.98535 0.0
C238 C 0.73307 0.47415 0.55142 0.0
C239 C 0.71979 0.50188 0.57059 0.0
H240 H 0.76976 0.45141 0.49229 0.0
C241 C 0.73392 0.52846 0.54427 0.0
H242 H 0.72245 0.45329 0.57013 0.0
C243 C 0.76103 0.52738 0.50051 0.0
C244 C 0.77419 0.49969 0.4806 0.0
H245 H 0.7241 0.55013 0.55792 0.0
H246 H 0.77163 0.54826 0.48191 0.0
C247 C 0.75991 0.47305 0.50602 0.0
C248 C 0.92394 0.26553 0.01652 0.0
C249 C 0.95196 0.27698 0.99135 0.0
H250 H 0.90017 0.23036 0.07941 0.0
C251 C 0.97818 0.26137 0.01346 0.0
H252 H 0.90333 0.27712 0.00081 0.0
C253 C 0.97638 0.23477 0.0596 0.0
C254 C 0.94832 0.22311 0.08374 0.0
H255 H 0.00012 0.26978 -0.00435 0.0
H256 H -0.00303 0.22308 0.07498 0.0
C257 C 0.92213 0.2388 0.06188 0.0
C258 C 0.26993 0.98917 0.50691 0.0
C259 C 0.28533 0.96227 0.52308 0.0
H260 H 0.23234 0.01009 0.44694 0.0
C261 C 0.27475 0.93552 0.48718 0.0
H262 H 0.27769 0.01018 0.53313 0.0
C263 C 0.24901 0.9355 0.43775 0.0
C264 C 0.23324 0.96222 0.42276 0.0
H265 H 0.28618 0.91443 0.49779 0.0
H266 H 0.24123 0.91436 0.41233 0.0
C267 C 0.24413 0.98916 0.45697 0.0
C268 C 0.52538 0.23642 0.98848 0.0
C269 C 0.55386 0.22536 0.96664 0.0
H270 H 0.50045 0.2692 0.05717 0.0
C271 C 0.57956 0.23907 0.0004 0.0
H272 H 0.50514 0.22615 0.96407 0.0
C273 C 0.57688 0.26362 0.05379 0.0
C274 C 0.54845 0.2749 0.07501 0.0
H275 H 0.60183 0.23098 0.98521 0.0
H276 H 0.59716 0.27396 0.07769 0.0
C277 C 0.52269 0.26089 0.04245 0.0
C278 C 0.25703 0.56761 0.43374 0.0
C279 C 0.27465 0.54276 0.41154 0.0
H280 H 0.21683 0.58327 0.49223 0.0
C281 C 0.26433 0.51377 0.43148 0.0
H282 H 0.26439 0.59023 0.41942 0.0
C283 C 0.23722 0.50979 0.47427 0.0
C284 C 0.21978 0.5347 0.49722 0.0
H285 H 0.27748 0.49416 0.41568 0.0
H286 H 0.22991 0.4872 0.48915 0.0
C287 C 0.22984 0.56362 0.47583 0.0
C288 C 0.09869 0.59137 0.88324 0.0
C289 C 0.06823 0.58983 0.90624 0.0
H290 H 0.13369 0.57409 0.80527 0.0
C291 C 0.04927 0.56945 0.86518 0.0
H292 H 0.1139 0.60681 0.9139 0.0
C293 C 0.06063 0.55073 0.803 0.0
C294 C 0.09119 0.55194 0.78087 0.0
H295 H 0.02571 0.56772 0.8816 0.0
H296 H 0.04546 0.53512 0.77286 0.0
C297 C 0.11009 0.57255 0.82126 0.0
C298 C 0.901 0.1117 0.42248 0.0
C299 C 0.90308 0.09547 0.3477 0.0
H300 H 0.88768 0.11109 0.55119 0.0
C301 C 0.89332 0.06544 0.3459 0.0
H302 H 0.90848 0.13482 0.4255 0.0
C303 C 0.88217 0.0517 0.41789 0.0
C304 C 0.87994 0.06793 0.49252 0.0
H305 H 0.89495 0.05226 0.28928 0.0
H306 H 0.87505 0.02847 0.41492 0.0
C307 C 0.88915 0.09812 0.49415 0.0
C308 C 0.3897 0.93099 0.01289 0.0
C309 C 0.40797 0.90535 0.01317 0.0
H310 H 0.36207 0.96039 0.93992 0.0
C311 C 0.40959 0.88754 0.94103 0.0
H312 H 0.388 0.94505 0.06783 0.0
C313 C 0.3943 0.89591 0.86868 0.0
C314 C 0.37756 0.92258 0.8665 0.0
H315 H 0.42323 0.86744 0.93991 0.0
H316 H 0.39692 0.88224 0.81325 0.0
C317 C 0.37485 0.93972 0.93981 0.0
C318 C 0.5644 0.43665 0.37885 0.0
C319 C 0.56439 0.40557 0.36408 0.0
H320 H 0.5811 0.47286 0.45302 0.0
C321 C 0.58203 0.38687 0.41475 0.0
H322 H 0.551 0.45167 0.3409 0.0
C323 C 0.59945 0.39908 0.47878 0.0
C324 C 0.59941 0.43018 0.49356 0.0
H325 H 0.58254 0.36285 0.4047 0.0
H326 H 0.6128 0.3841 0.51695 0.0
C327 C 0.58167 0.44883 0.44304 0.0
C328 C 0.128 0.91026 0.0938 0.0
C329 C 0.11174 0.91079 0.1689 0.0
H330 H 0.1286 0.89668 0.96548 0.0
C331 C 0.08293 0.89782 0.17183 0.0
H332 H 0.15019 0.92019 0.08997 0.0
C333 C 0.07032 0.88509 0.10049 0.0
C334 C 0.08658 0.88446 0.02551 0.0
H335 H 0.06974 0.89819 0.22877 0.0
H336 H 0.04794 0.87558 0.10417 0.0
C337 C 0.11565 0.89682 0.02285 0.0
C338 C 0.57727 0.14037 0.53901 0.0
C339 C 0.59576 0.13977 0.61021 0.0
H340 H 0.5714 0.12614 0.41202 0.0
C341 C 0.62413 0.12617 0.605 0.0
H342 H 0.5553 0.15074 0.54132 0.0
C343 C 0.63295 0.11159 0.53204 0.0
C344 C 0.61389 0.11091 0.46225 0.0
H345 H 0.63886 0.12525 0.65876 0.0
H346 H 0.65441 0.10016 0.53097 0.0
C347 C 0.58644 0.12632 0.46516 0.0
C348 C 0.40303 0.56347 0.06559 0.0
C349 C 0.38997 0.58435 0.12059 0.0
H350 H 0.4307 0.55658 0.95762 0.0
C351 C 0.39415 0.6151 0.1053 0.0
H352 H 0.40022 0.53958 0.0756 0.0
C353 C 0.41181 0.62478 0.03829 0.0
C354 C 0.42556 0.60394 0.98459 0.0
H355 H 0.38446 0.63178 0.14639 0.0
H356 H 0.41493 0.64868 0.02921 0.0
C357 C 0.42057 0.57318 -0.0019 0.0
C358 C 0.932 0.43647 0.67831 0.0
C359 C 0.93085 0.40586 0.69951 0.0
H360 H 0.91504 0.47163 0.60054 0.0
C361 C 0.91043 0.38707 0.658 0.0
H362 H 0.94747 0.45157 0.70927 0.0
C363 C 0.89169 0.39865 0.59596 0.0
C364 C 0.89313 0.4292 0.57405 0.0
H365 H 0.90896 0.36341 0.67322 0.0
H366 H 0.87638 0.38354 0.56445 0.0
C367 C 0.91337 0.44801 0.61612 0.0
C368 C 0.92109 0.40322 0.09208 0.0
C369 C 0.95022 0.39319 0.1115 0.0
H370 H 0.88163 0.42605 0.13502 0.0
C371 C 0.96154 0.39774 0.19217 0.0
H372 H 0.91166 0.39964 0.03051 0.0
C373 C 0.94449 0.41317 0.2514 0.0
C374 C 0.91558 0.42362 0.23156 0.0
H375 H 0.98383 0.39011 0.20879 0.0
H376 H 0.95407 0.41719 0.31258 0.0
C377 C 0.90377 0.41803 0.15196 0.0
C378 C 0.07777 0.94616 0.6934 0.0
C379 C 0.07681 0.91472 0.68605 0.0
H380 H 0.09313 0.9877 0.64128 0.0
C381 C 0.09241 0.90088 0.6205 0.0
H382 H 0.06612 0.9575 0.7437 0.0
C383 C 0.10786 0.91823 0.56179 0.0
C384 C 0.10809 0.94974 0.56778 0.0
H385 H 0.09217 0.87671 0.61345 0.0
H386 H 0.11918 0.90692 0.51087 0.0
C387 C 0.09332 0.9635 0.63493 0.0
C388 C 0.63224 0.09175 0.06433 0.0
C389 C 0.63925 0.06104 0.06206 0.0
H390 H 0.60854 0.12804 0.00761 0.0
C391 C 0.62997 0.04394 0.99291 0.0
H392 H 0.63917 0.10565 0.11634 0.0
C393 C 0.61229 0.05685 0.93024 0.0
C394 C 0.60348 0.08702 0.93602 0.0
H395 H 0.63508 0.02022 0.98915 0.0
H396 H 0.60441 0.04287 0.87947 0.0
C397 C 0.61446 0.10456 0.00221 0.0
C398 C 0.43097 0.61739 0.48823 0.0
C399 C 0.40529 0.59905 0.48755 0.0
H400 H 0.45774 0.64863 0.55706 0.0
C401 C 0.38504 0.60065 0.55494 0.0
H402 H 0.44683 0.61696 0.43685 0.0
C403 C 0.39115 0.61896 0.62355 0.0
C404 C 0.41768 0.63602 0.62645 0.0
H405 H 0.36478 0.58714 0.55584 0.0
H406 H 0.37565 0.61872 0.67581 0.0
C407 C 0.43712 0.6357 0.55699 0.0
C408 C 0.94088 0.06058 0.82867 0.0
C409 C 0.90942 0.05816 0.83381 0.0
H410 H 0.98105 0.07883 0.8815 0.0
C411 C 0.89409 0.07389 0.89653 0.0
H412 H 0.95335 0.04886 0.78062 0.0
C413 C 0.91002 0.09107 0.95436 0.0
C414 C 0.94156 0.09292 0.95034 0.0
H415 H 0.86987 0.07255 0.90184 0.0
H416 H 0.8976 0.10253 0.00296 0.0
C417 C 0.9568 0.07784 0.88626 0.0
C418 C 0.41176 0.91347 0.47411 0.0
C419 C 0.4285 0.92542 0.54063 0.0
H420 H 0.41226 0.88835 0.36073 0.0
C421 C 0.45918 0.91849 0.54678 0.0
H422 H 0.38795 0.918 0.46825 0.0
C423 C 0.47319 0.90135 0.48485 0.0
C424 C 0.4567 0.89076 0.416 0.0
H425 H 0.4726 0.92715 0.59775 0.0
H426 H 0.49714 0.89744 0.48934 0.0
C427 C 0.42567 0.89627 0.41265 0.0
C428 C 0.57788 0.40331 0.96373 0.0
C429 C 0.54673 0.39892 0.95496 0.0
H430 H 0.61779 0.42338 0.9134 0.0
C431 C 0.53201 0.411 0.88522 0.0
H432 H 0.58988 0.39407 0.01668 0.0
C433 C 0.54795 0.42793 0.82667 0.0
C434 C 0.57897 0.43282 0.83622 0.0
H435 H 0.50806 0.40795 0.87673 0.0
H436 H 0.53586 0.43739 0.77419 0.0
C437 C 0.59391 0.41997 0.90455 0.0
C438 C 0.10162 0.52189 0.28811 0.0
C439 C 0.10514 0.53275 0.36964 0.0
H440 H 0.08289 0.52966 0.16683 0.0
C441 C 0.09399 0.56133 0.39006 0.0
H442 H 0.11014 0.50001 0.27083 0.0
C443 C 0.07917 0.57861 0.33015 0.0
C444 C 0.07464 0.56725 0.24954 0.0
H445 H 0.09679 0.57037 0.45237 0.0
H446 H 0.07033 0.60034 0.34773 0.0
C447 C 0.08611 0.53886 0.22881 0.0
C448 C 0.92243 0.57621 0.32686 0.0
C449 C 0.90151 0.55581 0.29408 0.0
H450 H 0.95781 0.6073 0.30094 0.0
C451 C 0.89787 0.55411 0.20683 0.0
H452 H 0.92557 0.57826 0.39372 0.0
C453 C 0.91654 0.57056 0.15347 0.0
C454 C 0.93901 0.58924 0.1863 0.0
H455 H 0.88178 0.53877 0.17943 0.0
H456 H 0.9143 0.56752 0.08663 0.0
C457 C 0.9409 0.59287 0.2735 0.0
C458 C 0.92263 0.91346 0.669 0.0
C459 C 0.90197 0.93025 0.71576 0.0
H460 H 0.96018 0.88373 0.6712 0.0
C461 C 0.90164 0.92706 0.80332 0.0
H462 H 0.92333 0.91524 0.60151 0.0
C463 C 0.92297 0.90917 0.84353 0.0
C464 C 0.94488 0.89393 0.79696 0.0
H465 H 0.88592 0.9396 0.8413 0.0
H466 H 0.92304 0.90829 0.91118 0.0
C467 C 0.94378 0.8954 0.70913 0.0
C468 C 0.56026 0.93876 0.22528 0.0
C469 C 0.53089 0.94763 0.20485 0.0
H470 H 0.60423 0.95273 0.26362 0.0
C471 C 0.52355 0.97826 0.20649 0.0
H472 H 0.56651 0.91528 0.22505 0.0
C473 C 0.54508 -0.00039 0.22826 0.0
C474 C 0.57435 0.9908 0.24968 0.0
H475 H 0.50111 0.9858 0.19108 0.0
H476 H 0.53865 0.02304 0.22879 0.0
C477 C 0.58178 0.96016 0.24794 0.0
C478 C 0.57772 0.5876 0.67914 0.0
C479 C 0.59296 0.56607 0.72691 0.0
H480 H 0.54654 0.62389 0.67848 0.0
C481 C 0.59027 0.56682 0.81455 0.0
H482 H 0.57954 0.58778 0.61163 0.0
C483 C 0.57109 0.58741 0.85313 0.0
C484 C 0.55446 0.60778 0.80483 0.0
H485 H 0.60181 0.55055 0.85322 0.0
H486 H 0.56841 0.58654 0.92037 0.0
C487 C 0.5588 0.60832 0.71767 0.0
C488 C 0.0924 0.41913 0.73179 0.0
C489 C 0.09419 0.41958 0.64398 0.0
H490 H 0.07027 0.40129 0.83989 0.0
C491 C 0.07697 0.39895 0.59818 0.0
H492 H 0.10546 0.43463 0.76913 0.0
C493 C 0.05695 0.37963 0.63899 0.0
C494 C 0.05355 0.38079 0.72634 0.0
H495 H 0.07798 0.39858 0.53056 0.0
H496 H 0.04303 0.36494 0.60153 0.0
C497 C 0.07218 0.40004 0.7725 0.0
C498 C 0.01788 0.03671 0.24864 0.0
C499 C 0.02413 0.06715 0.23408 0.0
H500 H 0.03463 0.99385 0.28376 0.0
C501 C 0.05369 0.07767 0.2448 0.0
H502 H -0.00462 0.0278 0.24133 0.0
C503 C 0.07656 0.0579 0.26932 0.0
C504 C 0.07008 0.02743 0.28388 0.0
H505 H 0.05915 0.10106 0.23412 0.0
H506 H 0.0992 0.06642 0.27682 0.0
C507 C 0.04049 0.01717 0.27337 0.0
C508 C 0.42566 0.06637 0.82254 0.0
C509 C 0.41298 0.05817 0.74548 0.0
H510 H 0.45833 0.09311 0.88618 0.0
C511 C 0.4225 0.07307 0.6726 0.0
H512 H 0.4188 0.05538 0.87992 0.0
C513 C 0.44508 0.09486 0.6763 0.0
C514 C 0.45876 0.10199 0.75285 0.0
H515 H 0.41308 0.06735 0.61231 0.0
H516 H 0.4525 0.10533 0.61871 0.0
C517 C 0.44839 0.08796 0.82614 0.0
C518 C 0.42482 0.40612 0.20389 0.0
C519 C 0.44188 0.39771 0.27386 0.0
H520 H 0.39216 0.43623 0.15356 0.0
C521 C 0.43674 0.41215 0.35055 0.0
H522 H 0.4282 0.39529 0.14407 0.0
C523 C 0.4164 0.4359 0.35575 0.0
C524 C 0.40051 0.44535 0.28465 0.0
H525 H 0.44957 0.4062 0.40559 0.0
H526 H 0.41384 0.44747 0.41479 0.0
C527 C 0.40417 0.42957 0.20939 0.0
loop_
_geom_bond_atom_site_label_1
_geom_bond_atom_site_label_2
_geom_bond_distance
_geom_bond_site_symmetry_2
_ccdc_geom_bond_type
C0 O1 1.160 1_455 S
C0 O7 1.185 . S
O1 C0 1.160 1_655 S
O2 Zn3 1.899 1_655 S
O2 C10 1.284 . S
Zn3 O2 1.899 1_455 S
Zn3 O4 2.032 . S
Zn3 O7 2.086 . S
Zn3 O12 1.977 . S
O4 Zn3 2.032 . S
O4 C8 1.278 . S
C5 O6 1.203 . S
C5 O12 1.267 . S
O6 C5 1.203 . S
O7 C0 1.185 . S
O7 Zn3 2.086 . S
C8 O4 1.278 . S
C8 O9 1.211 . S
O9 C8 1.211 . S
C10 O2 1.284 . S
C10 O11 1.273 . S
O11 C10 1.273 . S
O12 Zn3 1.977 . S
O12 C5 1.267 . S
C13 O14 1.160 1_545 S
C13 O20 1.185 . S
O14 C13 1.160 1_565 S
O15 Zn16 1.899 1_565 S
O15 C23 1.284 . S
Zn16 O15 1.899 1_545 S
Zn16 O17 2.032 . S
Zn16 O20 2.086 . S
Zn16 O25 1.977 . S
O17 Zn16 2.032 . S
O17 C21 1.278 . S
C18 O19 1.203 . S
C18 O25 1.267 . S
O19 C18 1.203 . S
O20 C13 1.185 . S
O20 Zn16 2.086 . S
C21 O17 1.278 . S
C21 O22 1.211 . S
O22 C21 1.211 . S
C23 O15 1.284 . S
C23 O24 1.273 . S
O24 C23 1.273 . S
O25 Zn16 1.977 . S
O25 C18 1.267 . S
C26 O27 1.160 . S
C26 O33 1.185 . S
O27 C26 1.160 . S
O28 Zn29 1.899 . S
O28 C36 1.284 . S
Zn29 O28 1.899 . S
Zn29 O30 2.032 . S
Zn29 O33 2.086 . S
Zn29 O38 1.977 . S
O30 Zn29 2.032 . S
O30 C34 1.278 . S
C31 O32 1.203 . S
C31 O38 1.267 . S
O32 C31 1.203 . S
O33 C26 1.185 . S
O33 Zn29 2.086 . S
C34 O30 1.278 . S
C34 O35 1.211 . S
O35 C34 1.211 . S
C36 O28 1.284 . S
C36 O37 1.273 . S
O37 C36 1.273 . S
O38 Zn29 1.977 . S
O38 C31 1.267 . S
C39 O40 1.160 . S
C39 O46 1.185 . S
O40 C39 1.160 . S
O41 Zn42 1.899 . S
O41 C49 1.284 . S
Zn42 O41 1.899 . S
Zn42 O43 2.032 . S
Zn42 O46 2.086 . S
Zn42 O51 1.977 . S
O43 Zn42 2.032 . S
O43 C47 1.278 . S
C44 O45 1.203 . S
C44 O51 1.267 . S
O45 C44 1.203 . S
O46 C39 1.185 . S
O46 Zn42 2.086 . S
C47 O43 1.278 . S
C47 O48 1.211 . S
O48 C47 1.211 . S
C49 O41 1.284 . S
C49 O50 1.273 . S
O50 C49 1.273 . S
O51 Zn42 1.977 . S
O51 C44 1.267 . S
C52 O53 1.160 1_455 S
C52 O59 1.185 . S
O53 C52 1.160 1_655 S
O54 Zn55 1.899 1_655 S
O54 C62 1.284 . S
Zn55 O54 1.899 1_455 S
Zn55 O56 2.032 . S
Zn55 O59 2.086 . S
Zn55 O64 1.977 . S
O56 Zn55 2.032 . S
O56 C60 1.278 . S
C57 O58 1.203 . S
C57 O64 1.267 . S
O58 C57 1.203 . S
O59 C52 1.185 . S
O59 Zn55 2.086 . S
C60 O56 1.278 . S
C60 O61 1.211 . S
O61 C60 1.211 . S
C62 O54 1.284 . S
C62 O63 1.273 . S
O63 C62 1.273 . S
O64 Zn55 1.977 . S
O64 C57 1.267 . S
C65 O66 1.160 1_545 S
C65 O72 1.185 . S
O66 C65 1.160 1_565 S
O67 Zn68 1.899 1_565 S
O67 C75 1.284 . S
Zn68 O67 1.899 1_545 S
Zn68 O69 2.032 . S
Zn68 O72 2.086 . S
Zn68 O77 1.977 . S
O69 Zn68 2.032 . S
O69 C73 1.278 . S
C70 O71 1.203 . S
C70 O77 1.267 . S
O71 C70 1.203 . S
O72 C65 1.185 . S
O72 Zn68 2.086 . S
C73 O69 1.278 . S
C73 O74 1.211 . S
O74 C73 1.211 . S
C75 O67 1.284 . S
C75 O76 1.273 . S
O76 C75 1.273 . S
O77 Zn68 1.977 . S
O77 C70 1.267 . S
C78 O79 1.160 . S
C78 O85 1.185 . S
O79 C78 1.160 . S
O80 Zn81 1.899 . S
O80 C88 1.284 . S
Zn81 O80 1.899 . S
Zn81 O82 2.032 . S
Zn81 O85 2.086 . S
Zn81 O90 1.977 . S
O82 Zn81 2.032 . S
O82 C86 1.278 . S
C83 O84 1.203 . S
C83 O90 1.267 . S
O84 C83 1.203 . S
O85 C78 1.185 . S
O85 Zn81 2.086 . S
C86 O82 1.278 . S
C86 O87 1.211 . S
O87 C86 1.211 . S
C88 O80 1.284 . S
C88 O89 1.273 . S
O89 C88 1.273 . S
O90 Zn81 1.977 . S
O90 C83 1.267 . S
C91 O92 1.160 . S
C91 O98 1.185 . S
O92 C91 1.160 . S
O93 Zn94 1.899 . S
O93 C101 1.284 . S
Zn94 O93 1.899 . S
Zn94 O95 2.032 . S
Zn94 O98 2.086 . S
Zn94 O103 1.977 . S
O95 Zn94 2.032 . S
O95 C99 1.278 . S
C96 O97 1.203 . S
C96 O103 1.267 . S
O97 C96 1.203 . S
O98 C91 1.185 . S
O98 Zn94 2.086 . S
C99 O95 1.278 . S
C99 O100 1.211 . S
O100 C99 1.211 . S
C101 O93 1.284 . S
C101 O102 1.273 . S
O102 C101 1.273 . S
O103 Zn94 1.977 . S
O103 C96 1.267 . S
C104 O105 1.160 . S
C104 O111 1.185 . S
O105 C104 1.160 . S
O106 Zn107 1.899 . S
O106 C114 1.284 . S
Zn107 O106 1.899 . S
Zn107 O108 2.032 . S
Zn107 O111 2.086 . S
Zn107 O116 1.977 1_655 S
O108 Zn107 2.032 . S
O108 C112 1.278 . S
C109 O110 1.203 . S
C109 O116 1.267 . S
O110 C109 1.203 . S
O111 C104 1.185 . S
O111 Zn107 2.086 . S
C112 O108 1.278 . S
C112 O113 1.211 . S
O113 C112 1.211 . S
C114 O106 1.284 . S
C114 O115 1.273 . S
O115 C114 1.273 . S
O116 Zn107 1.977 1_455 S
O116 C109 1.267 . S
C117 O118 1.160 . S
C117 O124 1.185 . S
O118 C117 1.160 . S
O119 Zn120 1.899 . S
O119 C127 1.284 . S
Zn120 O119 1.899 . S
Zn120 O121 2.032 . S
Zn120 O124 2.086 . S
Zn120 O129 1.977 1_565 S
O121 Zn120 2.032 . S
O121 C125 1.278 . S
C122 O123 1.203 . S
C122 O129 1.267 . S
O123 C122 1.203 . S
O124 C117 1.185 . S
O124 Zn120 2.086 . S
C125 O121 1.278 . S
C125 O126 1.211 . S
O126 C125 1.211 . S
C127 O119 1.284 . S
C127 O128 1.273 . S
O128 C127 1.273 . S
O129 Zn120 1.977 1_545 S
O129 C122 1.267 . S
C130 O131 1.160 . S
C130 O137 1.185 . S
O131 C130 1.160 . S
O132 Zn133 1.899 . S
O132 C140 1.284 . S
Zn133 O132 1.899 . S
Zn133 O134 2.032 . S
Zn133 O137 2.086 . S
Zn133 O142 1.977 . S
O134 Zn133 2.032 . S
O134 C138 1.278 . S
C135 O136 1.203 . S
C135 O142 1.267 . S
O136 C135 1.203 . S
O137 C130 1.185 . S
O137 Zn133 2.086 . S
C138 O134 1.278 . S
C138 O139 1.211 . S
O139 C138 1.211 . S
C140 O132 1.284 . S
C140 O141 1.273 . S
O141 C140 1.273 . S
O142 Zn133 1.977 . S
O142 C135 1.267 . S
C143 O144 1.160 . S
C143 O150 1.185 . S
O144 C143 1.160 . S
O145 Zn146 1.899 . S
O145 C153 1.284 . S
Zn146 O145 1.899 . S
Zn146 O147 2.032 . S
Zn146 O150 2.086 . S
Zn146 O155 1.977 . S
O147 Zn146 2.032 . S
O147 C151 1.278 . S
C148 O149 1.203 . S
C148 O155 1.267 . S
O149 C148 1.203 . S
O150 C143 1.185 . S
O150 Zn146 2.086 . S
C151 O147 1.278 . S
C151 O152 1.211 . S
O152 C151 1.211 . S
C153 O145 1.284 . S
C153 O154 1.273 . S
O154 C153 1.273 . S
O155 Zn146 1.977 . S
O155 C148 1.267 . S
C156 O157 1.160 . S
C156 O163 1.185 . S
O157 C156 1.160 . S
O158 Zn159 1.899 . S
O158 C166 1.284 . S
Zn159 O158 1.899 . S
Zn159 O160 2.032 . S
Zn159 O163 2.086 . S
Zn159 O168 1.977 1_655 S
O160 Zn159 2.032 . S
O160 C164 1.278 . S
C161 O162 1.203 . S
C161 O168 1.267 . S
O162 C161 1.203 . S
O163 C156 1.185 . S
O163 Zn159 2.086 . S
C164 O160 1.278 . S
C164 O165 1.211 . S
O165 C164 1.211 . S
C166 O158 1.284 . S
C166 O167 1.273 . S
O167 C166 1.273 . S
O168 Zn159 1.977 1_455 S
O168 C161 1.267 . S
C169 O170 1.160 . S
C169 O176 1.185 . S
O170 C169 1.160 . S
O171 Zn172 1.899 . S
O171 C179 1.284 . S
Zn172 O171 1.899 . S
Zn172 O173 2.032 . S
Zn172 O176 2.086 . S
Zn172 O181 1.977 1_565 S
O173 Zn172 2.032 . S
O173 C177 1.278 . S
C174 O175 1.203 . S
C174 O181 1.267 . S
O175 C174 1.203 . S
O176 C169 1.185 . S
O176 Zn172 2.086 . S
C177 O173 1.278 . S
C177 O178 1.211 . S
O178 C177 1.211 . S
C179 O171 1.284 . S
C179 O180 1.273 . S
O180 C179 1.273 . S
O181 Zn172 1.977 1_545 S
O181 C174 1.267 . S
C182 O183 1.160 . S
C182 O189 1.185 . S
O183 C182 1.160 . S
O184 Zn185 1.899 . S
O184 C192 1.284 . S
Zn185 O184 1.899 . S
Zn185 O186 2.032 . S
Zn185 O189 2.086 . S
Zn185 O194 1.977 . S
O186 Zn185 2.032 . S
O186 C190 1.278 . S
C187 O188 1.203 . S
C187 O194 1.267 . S
O188 C187 1.203 . S
O189 C182 1.185 . S
O189 Zn185 2.086 . S
C190 O186 1.278 . S
C190 O191 1.211 . S
O191 C190 1.211 . S
C192 O184 1.284 . S
C192 O193 1.273 . S
O193 C192 1.273 . S
O194 Zn185 1.977 . S
O194 C187 1.267 . S
C195 O196 1.160 . S
C195 O202 1.185 . S
O196 C195 1.160 . S
O197 Zn198 1.899 . S
O197 C205 1.284 . S
Zn198 O197 1.899 . S
Zn198 O199 2.032 . S
Zn198 O202 2.086 . S
Zn198 O207 1.977 . S
O199 Zn198 2.032 . S
O199 C203 1.278 . S
C200 O201 1.203 . S
C200 O207 1.267 . S
O201 C200 1.203 . S
O202 C195 1.185 . S
O202 Zn198 2.086 . S
C203 O199 1.278 . S
C203 O204 1.211 . S
O204 C203 1.211 . S
C205 O197 1.284 . S
C205 O206 1.273 . S
O206 C205 1.273 . S
O207 Zn198 1.977 . S
O207 C200 1.267 . S
C208 C209 1.387 1_655 S
C208 H212 0.950 . S
C208 C217 1.390 1_554 S
C209 C208 1.387 1_455 S
C209 C211 1.387 . S
H210 C217 0.950 . S
C211 C209 1.387 . S
C211 C213 1.390 1_554 S
C211 H215 0.950 . S
H212 C208 0.950 . S
C213 C211 1.390 1_556 S
C213 C214 1.387 . S
C213 H216 0.950 . S
C214 C213 1.387 . S
C214 C217 1.387 1_455 S
H215 C211 0.950 . S
H216 C213 0.950 . S
C217 C208 1.390 1_556 S
C217 H210 0.950 . S
C217 C214 1.387 1_655 S
C218 C219 1.387 1_565 S
C218 H222 0.950 . S
C218 C227 1.390 . S
C219 C218 1.387 1_545 S
C219 C221 1.387 . S
H220 C227 0.950 . S
C221 C219 1.387 . S
C221 C223 1.390 . S
C221 H225 0.950 . S
H222 C218 0.950 . S
C223 C221 1.390 . S
C223 C224 1.387 . S
C223 H226 0.950 . S
C224 C223 1.387 . S
C224 C227 1.387 1_545 S
H225 C221 0.950 . S
H226 C223 0.950 . S
C227 C218 1.390 . S
C227 H220 0.950 . S
C227 C224 1.387 1_565 S
C228 C229 1.387 . S
C228 H232 0.950 . S
C228 C237 1.390 1_554 S
C229 C228 1.387 . S
C229 C231 1.387 . S
H230 C237 0.950 . S
C231 C229 1.387 . S
C231 C233 1.390 1_554 S
C231 H235 0.950 . S
H232 C228 0.950 . S
C233 C231 1.390 1_556 S
C233 C234 1.387 . S
C233 H236 0.950 . S
C234 C233 1.387 . S
C234 C237 1.387 . S
H235 C231 0.950 . S
H236 C233 0.950 . S
C237 C228 1.390 1_556 S
C237 H230 0.950 . S
C237 C234 1.387 . S
C238 C239 1.387 . S
C238 H242 0.950 . S
C238 C247 1.390 . S
C239 C238 1.387 . S
C239 C241 1.387 . S
H240 C247 0.950 . S
C241 C239 1.387 . S
C241 C243 1.390 . S
C241 H245 0.950 . S
H242 C238 0.950 . S
C243 C241 1.390 . S
C243 C244 1.387 . S
C243 H246 0.950 . S
C244 C243 1.387 . S
C244 C247 1.387 . S
H245 C241 0.950 . S
H246 C243 0.950 . S
C247 C238 1.390 . S
C247 H240 0.950 . S
C247 C244 1.387 . S
C248 C249 1.387 . S
C248 H252 0.950 . S
C248 C257 1.390 1_556 S
C249 C248 1.387 . S
C249 C251 1.387 1_655 S
H250 C257 0.950 . S
C251 C249 1.387 1_455 S
C251 C253 1.390 1_556 S
C251 H255 0.950 . S
H252 C248 0.950 . S
C253 C251 1.390 1_554 S
C253 C254 1.387 1_455 S
C253 H256 0.950 . S
C254 C253 1.387 1_655 S
C254 C257 1.387 . S
H255 C251 0.950 . S
H256 C253 0.950 . S
C257 C248 1.390 1_554 S
C257 H250 0.950 . S
C257 C254 1.387 . S
C258 C259 1.387 1_545 S
C258 H262 0.950 . S
C258 C267 1.390 . S
C259 C258 1.387 1_565 S
C259 C261 1.387 . S
H260 C267 0.950 . S
C261 C259 1.387 . S
C261 C263 1.390 . S
C261 H265 0.950 . S
H262 C258 0.950 . S
C263 C261 1.390 . S
C263 C264 1.387 . S
C263 H266 0.950 . S
C264 C263 1.387 . S
C264 C267 1.387 1_565 S
H265 C261 0.950 . S
H266 C263 0.950 . S
C267 C258 1.390 . S
C267 H260 0.950 . S
C267 C264 1.387 1_545 S
C268 C269 1.387 . S
C268 H272 0.950 . S
C268 C277 1.390 1_556 S
C269 C268 1.387 . S
C269 C271 1.387 . S
H270 C277 0.950 . S
C271 C269 1.387 . S
C271 C273 1.390 1_556 S
C271 H275 0.950 . S
H272 C268 0.950 . S
C273 C271 1.390 1_554 S
C273 C274 1.387 . S
C273 H276 0.950 . S
C274 C273 1.387 . S
C274 C277 1.387 . S
H275 C271 0.950 . S
H276 C273 0.950 . S
C277 C268 1.390 1_554 S
C277 H270 0.950 . S
C277 C274 1.387 . S
C278 C279 1.387 . S
C278 H282 0.950 . S
C278 C287 1.390 . S
C279 C278 1.387 . S
C279 C281 1.387 . S
H280 C287 0.950 . S
C281 C279 1.387 . S
C281 C283 1.390 . S
C281 H285 0.950 . S
H282 C278 0.950 . S
C283 C281 1.390 . S
C283 C284 1.387 . S
C283 H286 0.950 . S
C284 C283 1.387 . S
C284 C287 1.387 . S
H285 C281 0.950 . S
H286 C283 0.950 . S
C287 C278 1.390 . S
C287 H280 0.950 . S
C287 C284 1.387 . S
C288 C289 1.387 . S
C288 H292 0.950 1_556 S
C288 C297 1.390 . S
C289 C288 1.387 . S
C289 C291 1.387 . S
H290 C297 0.950 . S
C291 C289 1.387 . S
C291 C293 1.390 . S
C291 H295 0.950 . S
H292 C288 0.950 1_554 S
C293 C291 1.390 . S
C293 C294 1.387 . S
C293 H296 0.950 . S
C294 C293 1.387 . S
C294 C297 1.387 . S
H295 C291 0.950 . S
H296 C293 0.950 . S
C297 C288 1.390 . S
C297 H290 0.950 . S
C297 C294 1.387 . S
C298 C299 1.387 . S
C298 H302 0.950 . S
C298 C307 1.390 . S
C299 C298 1.387 . S
C299 C301 1.387 . S
H300 C307 0.950 . S
C301 C299 1.387 . S
C301 C303 1.390 . S
C301 H305 0.950 . S
H302 C298 0.950 . S
C303 C301 1.390 . S
C303 C304 1.387 . S
C303 H306 0.950 . S
C304 C303 1.387 . S
C304 C307 1.387 . S
H305 C301 0.950 . S
H306 C303 0.950 . S
C307 C298 1.390 . S
C307 H300 0.950 . S
C307 C304 1.387 . S
C308 C309 1.387 . S
C308 H312 0.950 . S
C308 C317 1.390 . S
C309 C308 1.387 . S
C309 C311 1.387 . S
H310 C317 0.950 . S
C311 C309 1.387 . S
C311 C313 1.390 . S
C311 H315 0.950 . S
H312 C308 0.950 . S
C313 C311 1.390 . S
C313 C314 1.387 . S
C313 H316 0.950 . S
C314 C313 1.387 . S
C314 C317 1.387 . S
H315 C311 0.950 . S
H316 C313 0.950 . S
C317 C308 1.390 . S
C317 H310 0.950 . S
C317 C314 1.387 . S
C318 C319 1.387 . S
C318 H322 0.950 . S
C318 C327 1.390 . S
C319 C318 1.387 . S
C319 C321 1.387 . S
H320 C327 0.950 . S
C321 C319 1.387 . S
C321 C323 1.390 . S
C321 H325 0.950 . S
H322 C318 0.950 . S
C323 C321 1.390 . S
C323 C324 1.387 . S
C323 H326 0.950 . S
C324 C323 1.387 . S
C324 C327 1.387 . S
H325 C321 0.950 . S
H326 C323 0.950 . S
C327 C318 1.390 . S
C327 H320 0.950 . S
C327 C324 1.387 . S
C328 C329 1.387 . S
C328 H332 0.950 . S
C328 C337 1.390 . S
C329 C328 1.387 . S
C329 C331 1.387 . S
H330 C337 0.950 . S
C331 C329 1.387 . S
C331 C333 1.390 . S
C331 H335 0.950 . S
H332 C328 0.950 . S
C333 C331 1.390 . S
C333 C334 1.387 . S
C333 H336 0.950 . S
C334 C333 1.387 . S
C334 C337 1.387 . S
H335 C331 0.950 . S
H336 C333 0.950 . S
C337 C328 1.390 . S
C337 H330 0.950 . S
C337 C334 1.387 . S
C338 C339 1.387 . S
C338 H342 0.950 . S
C338 C347 1.390 . S
C339 C338 1.387 . S
C339 C341 1.387 . S
H340 C347 0.950 . S
C341 C339 1.387 . S
C341 C343 1.390 . S
C341 H345 0.950 . S
H342 C338 0.950 . S
C343 C341 1.390 . S
C343 C344 1.387 . S
C343 H346 0.950 . S
C344 C343 1.387 . S
C344 C347 1.387 . S
H345 C341 0.950 . S
H346 C343 0.950 . S
C347 C338 1.390 . S
C347 H340 0.950 . S
C347 C344 1.387 . S
C348 C349 1.387 . S
C348 H352 0.950 . S
C348 C357 1.390 . S
C349 C348 1.387 . S
C349 C351 1.387 . S
H350 C357 0.950 . S
C351 C349 1.387 . S
C351 C353 1.390 . S
C351 H355 0.950 . S
H352 C348 0.950 . S
C353 C351 1.390 . S
C353 C354 1.387 . S
C353 H356 0.950 . S
C354 C353 1.387 . S
C354 C357 1.387 . S
H355 C351 0.950 . S
H356 C353 0.950 . S
C357 C348 1.390 . S
C357 H350 0.950 . S
C357 C354 1.387 . S
C358 C359 1.387 . S
C358 H362 0.950 . S
C358 C367 1.390 . S
C359 C358 1.387 . S
C359 C361 1.387 . S
H360 C367 0.950 . S
C361 C359 1.387 . S
C361 C363 1.390 . S
C361 H365 0.950 . S
H362 C358 0.950 . S
C363 C361 1.390 . S
C363 C364 1.387 . S
C363 H366 0.950 . S
C364 C363 1.387 . S
C364 C367 1.387 . S
H365 C361 0.950 . S
H366 C363 0.950 . S
C367 C358 1.390 . S
C367 H360 0.950 . S
C367 C364 1.387 . S
C368 C369 1.387 . S
C368 H372 0.950 . S
C368 C377 1.390 . S
C369 C368 1.387 . S
C369 C371 1.387 . S
H370 C377 0.950 . S
C371 C369 1.387 . S
C371 C373 1.390 . S
C371 H375 0.950 1_554 S
H372 C368 0.950 . S
C373 C371 1.390 . S
C373 C374 1.387 . S
C373 H376 0.950 . S
C374 C373 1.387 . S
C374 C377 1.387 . S
H375 C371 0.950 1_556 S
H376 C373 0.950 . S
C377 C368 1.390 . S
C377 H370 0.950 . S
C377 C374 1.387 . S
C378 C379 1.387 . S
C378 H382 0.950 . S
C378 C387 1.390 . S
C379 C378 1.387 . S
C379 C381 1.387 . S
H380 C387 0.950 . S
C381 C379 1.387 . S
C381 C383 1.390 . S
C381 H385 0.950 . S
H382 C378 0.950 . S
C383 C381 1.390 . S
C383 C384 1.387 . S
C383 H386 0.950 . S
C384 C383 1.387 . S
C384 C387 1.387 . S
H385 C381 0.950 . S
H386 C383 0.950 . S
C387 C378 1.390 . S
C387 H380 0.950 . S
C387 C384 1.387 . S
C388 C389 1.387 . S
C388 H392 0.950 . S
C388 C397 1.390 . S
C389 C388 1.387 . S
C389 C391 1.387 . S
H390 C397 0.950 . S
C391 C389 1.387 . S
C391 C393 1.390 . S
C391 H395 0.950 . S
H392 C388 0.950 . S
C393 C391 1.390 . S
C393 C394 1.387 . S
C393 H396 0.950 1_554 S
C394 C393 1.387 . S
C394 C397 1.387 . S
H395 C391 0.950 . S
H396 C393 0.950 1_556 S
C397 C388 1.390 . S
C397 H390 0.950 . S
C397 C394 1.387 . S
C398 C399 1.387 . S
C398 H402 0.950 . S
C398 C407 1.390 . S
C399 C398 1.387 . S
C399 C401 1.387 . S
H400 C407 0.950 . S
C401 C399 1.387 . S
C401 C403 1.390 . S
C401 H405 0.950 . S
H402 C398 0.950 . S
C403 C401 1.390 . S
C403 C404 1.387 . S
C403 H406 0.950 . S
C404 C403 1.387 . S
C404 C407 1.387 . S
H405 C401 0.950 . S
H406 C403 0.950 . S
C407 C398 1.390 . S
C407 H400 0.950 . S
C407 C404 1.387 . S
C408 C409 1.387 . S
C408 H412 0.950 . S
C408 C417 1.390 . S
C409 C408 1.387 . S
C409 C411 1.387 . S
H410 C417 0.950 1_554 S
C411 C409 1.387 . S
C411 C413 1.390 . S
C411 H415 0.950 . S
H412 C408 0.950 . S
C413 C411 1.390 . S
C413 C414 1.387 . S
C413 H416 0.950 . S
C414 C413 1.387 . S
C414 C417 1.387 . S
H415 C411 0.950 . S
H416 C413 0.950 . S
C417 C408 1.390 . S
C417 H410 0.950 1_556 S
C417 C414 1.387 . S
C418 C419 1.387 . S
C418 H422 0.950 . S
C418 C427 1.390 . S
C419 C418 1.387 . S
C419 C421 1.387 . S
H420 C427 0.950 . S
C421 C419 1.387 . S
C421 C423 1.390 . S
C421 H425 0.950 . S
H422 C418 0.950 . S
C423 C421 1.390 . S
C423 C424 1.387 . S
C423 H426 0.950 . S
C424 C423 1.387 . S
C424 C427 1.387 . S
H425 C421 0.950 . S
H426 C423 0.950 . S
C427 C418 1.390 . S
C427 H420 0.950 . S
C427 C424 1.387 . S
C428 C429 1.387 . S
C428 H432 0.950 . S
C428 C437 1.390 . S
C429 C428 1.387 . S
C429 C431 1.387 . S
H430 C437 0.950 . S
C431 C429 1.387 . S
C431 C433 1.390 . S
C431 H435 0.950 1_556 S
H432 C428 0.950 . S
C433 C431 1.390 . S
C433 C434 1.387 . S
C433 H436 0.950 . S
C434 C433 1.387 . S
C434 C437 1.387 . S
H435 C431 0.950 1_554 S
H436 C433 0.950 . S
C437 C428 1.390 . S
C437 H430 0.950 . S
C437 C434 1.387 . S
C438 C439 1.387 . S
C438 H442 0.950 . S
C438 C447 1.390 . S
C439 C438 1.387 . S
C439 C441 1.387 . S
H440 C447 0.950 . S
C441 C439 1.387 . S
C441 C443 1.390 . S
C441 H445 0.950 . S
H442 C438 0.950 . S
C443 C441 1.390 . S
C443 C444 1.387 . S
C443 H446 0.950 . S
C444 C443 1.387 . S
C444 C447 1.387 . S
H445 C441 0.950 . S
H446 C443 0.950 . S
C447 C438 1.390 . S
C447 H440 0.950 . S
C447 C444 1.387 . S
C448 C449 1.387 . S
C448 H452 0.950 . S
C448 C457 1.390 . S
C449 C448 1.387 . S
C449 C451 1.387 . S
H450 C457 0.950 . S
C451 C449 1.387 . S
C451 C453 1.390 . S
C451 H455 0.950 . S
H452 C448 0.950 . S
C453 C451 1.390 . S
C453 C454 1.387 . S
C453 H456 0.950 . S
C454 C453 1.387 . S
C454 C457 1.387 . S
H455 C451 0.950 . S
H456 C453 0.950 . S
C457 C448 1.390 . S
C457 H450 0.950 . S
C457 C454 1.387 . S
C458 C459 1.387 . S
C458 H462 0.950 . S
C458 C467 1.390 . S
C459 C458 1.387 . S
C459 C461 1.387 . S
H460 C467 0.950 . S
C461 C459 1.387 . S
C461 C463 1.390 . S
C461 H465 0.950 . S
H462 C458 0.950 . S
C463 C461 1.390 . S
C463 C464 1.387 . S
C463 H466 0.950 . S
C464 C463 1.387 . S
C464 C467 1.387 . S
H465 C461 0.950 . S
H466 C463 0.950 . S
C467 C458 1.390 . S
C467 H460 0.950 . S
C467 C464 1.387 . S
C468 C469 1.387 . S
C468 H472 0.950 . S
C468 C477 1.390 . S
C469 C468 1.387 . S
C469 C471 1.387 . S
H470 C477 0.950 . S
C471 C469 1.387 . S
C471 C473 1.390 . S
C471 H475 0.950 . S
H472 C468 0.950 . S
C473 C471 1.390 . S
C473 C474 1.387 . S
C473 H476 0.950 . S
C474 C473 1.387 . S
C474 C477 1.387 . S
H475 C471 0.950 . S
H476 C473 0.950 . S
C477 C468 1.390 . S
C477 H470 0.950 . S
C477 C474 1.387 . S
C478 C479 1.387 . S
C478 H482 0.950 . S
C478 C487 1.390 . S
C479 C478 1.387 . S
C479 C481 1.387 . S
H480 C487 0.950 . S
C481 C479 1.387 . S
C481 C483 1.390 . S
C481 H485 0.950 . S
H482 C478 0.950 . S
C483 C481 1.390 . S
C483 C484 1.387 . S
C483 H486 0.950 . S
C484 C483 1.387 . S
C484 C487 1.387 . S
H485 C481 0.950 . S
H486 C483 0.950 . S
C487 C478 1.390 . S
C487 H480 0.950 . S
C487 C484 1.387 . S
C488 C489 1.387 . S
C488 H492 0.950 . S
C488 C497 1.390 . S
C489 C488 1.387 . S
C489 C491 1.387 . S
H490 C497 0.950 . S
C491 C489 1.387 . S
C491 C493 1.390 . S
C491 H495 0.950 . S
H492 C488 0.950 . S
C493 C491 1.390 . S
C493 C494 1.387 . S
C493 H496 0.950 . S
C494 C493 1.387 . S
C494 C497 1.387 . S
H495 C491 0.950 . S
H496 C493 0.950 . S
C497 C488 1.390 . S
C497 H490 0.950 . S
C497 C494 1.387 . S
C498 C499 1.387 . S
C498 H502 0.950 . S
C498 C507 1.390 . S
C499 C498 1.387 . S
C499 C501 1.387 . S
H500 C507 0.950 . S
C501 C499 1.387 . S
C501 C503 1.390 . S
C501 H505 0.950 . S
H502 C498 0.950 . S
C503 C501 1.390 . S
C503 C504 1.387 . S
C503 H506 0.950 . S
C504 C503 1.387 . S
C504 C507 1.387 . S
H505 C501 0.950 . S
H506 C503 0.950 . S
C507 C498 1.390 . S
C507 H500 0.950 . S
C507 C504 1.387 . S
C508 C509 1.387 . S
C508 H512 0.950 . S
C508 C517 1.390 . S
C509 C508 1.387 . S
C509 C511 1.387 . S
H510 C517 0.950 . S
C511 C509 1.387 . S
C511 C513 1.390 . S
C511 H515 0.950 . S
H512 C508 0.950 . S
C513 C511 1.390 . S
C513 C514 1.387 . S
C513 H516 0.950 . S
C514 C513 1.387 . S
C514 C517 1.387 . S
H515 C511 0.950 . S
H516 C513 0.950 . S
C517 C508 1.390 . S
C517 H510 0.950 . S
C517 C514 1.387 . S
C518 C519 1.387 . S
C518 H522 0.950 . S
C518 C527 1.390 . S
C519 C518 1.387 . S
C519 C521 1.387 . S
H520 C527 0.950 . S
C521 C519 1.387 . S
C521 C523 1.390 . S
C521 H525 0.950 . S
H522 C518 0.950 . S
C523 C521 1.390 . S
C523 C524 1.387 . S
C523 H526 0.950 . S
C524 C523 1.387 . S
C524 C527 1.387 . S
H525 C521 0.950 . S
H526 C523 0.950 . S
C527 C518 1.390 . S
C527 H520 0.950 . S
C527 C524 1.387 . S
C209 C0 1.334 . S
C214 C52 1.334 . S
C219 C65 1.334 . S
C224 C13 1.334 . S
C229 C26 1.337 . S
C234 C78 1.337 . S
C239 C39 1.337 . S
C244 C91 1.337 . S
C249 C104 1.425 . S
C254 C156 1.425 . S
C259 C169 1.426 . S
C264 C117 1.426 . S
C269 C130 1.426 . S
C274 C182 1.426 . S
C279 C143 1.425 . S
C284 C195 1.425 . S
C289 C8 1.326 1_556 S
C294 C205 1.297 . S
C299 C166 1.298 . S
C304 C21 1.327 . S
C309 C34 1.326 1_556 S
C314 C179 1.298 . S
C319 C192 1.299 . S
C324 C47 1.327 . S
C329 C127 1.297 . S
C334 C60 1.326 1_554 S
C339 C140 1.300 . S
C344 C73 1.329 . S
C349 C153 1.298 . S
C354 C86 1.326 1_554 S
C359 C114 1.300 . S
C364 C99 1.328 . S
C369 C112 1.262 1_554 S
C374 C96 1.164 . S
C379 C57 1.164 . S
C384 C125 1.262 . S
C389 C70 1.164 . S
C394 C138 1.262 1_554 S
C399 C151 1.261 . S
C404 C83 1.169 . S
C409 C18 1.169 . S
C414 C164 1.261 1_556 S
C419 C177 1.261 . S
C424 C31 1.164 . S
C429 C190 1.261 1_556 S
C434 C44 1.164 . S
C439 C203 1.262 . S
C444 C5 1.168 . S
C449 C101 1.445 . S
C454 C10 1.442 . S
C459 C23 1.445 . S
C464 C62 1.442 . S
C469 C36 1.443 . S
C474 C75 1.444 . S
C479 C49 1.445 . S
C484 C88 1.442 . S
C489 C200 1.258 . S
C494 C109 1.255 . S
C499 C161 1.255 . S
C504 C122 1.253 . S
C509 C174 1.256 . S
C514 C135 1.253 . S
C519 C187 1.255 . S
C524 C148 1.258 . S
