# Generated by pormake.
# Topology wlr, (5)-cn, num edge types: 1
# Building blocks:
#     Node 0, Type 0, BuildingBlock: XOMCOT_clean_sbu_0, # of connection points: 5
#     Node 1, Type 0, BuildingBlock: XOMCOT_clean_sbu_0, # of connection points: 5
#     Node 2, Type 0, BuildingBlock: XOMCOT_clean_sbu_0, # of connection points: 5
#     Node 3, Type 0, BuildingBlock: XOMCOT_clean_sbu_0, # of connection points: 5
#     Node 4, Type 0, BuildingBlock: XOMCOT_clean_sbu_0, # of connection points: 5
#     Node 5, Type 0, BuildingBlock: XOMCOT_clean_sbu_0, # of connection points: 5
#     Node 6, Type 0, BuildingBlock: XOMCOT_clean_sbu_0, # of connection points: 5
#     Node 7, Type 0, BuildingBlock: XOMCOT_clean_sbu_0, # of connection points: 5
#     Node 8, Type 0, BuildingBlock: XOMCOT_clean_sbu_0, # of connection points: 5
#     Node 9, Type 0, BuildingBlock: XOMCOT_clean_sbu_0, # of connection points: 5
#     Node 10, Type 0, BuildingBlock: XOMCOT_clean_sbu_0, # of connection points: 5
#     Node 11, Type 0, BuildingBlock: XOMCOT_clean_sbu_0, # of connection points: 5
#     Node 12, Type 0, BuildingBlock: XOMCOT_clean_sbu_0, # of connection points: 5
#     Node 13, Type 0, BuildingBlock: XOMCOT_clean_sbu_0, # of connection points: 5
#     Node 14, Type 0, BuildingBlock: XOMCOT_clean_sbu_0, # of connection points: 5
#     Node 15, Type 0, BuildingBlock: XOMCOT_clean_sbu_0, # of connection points: 5
#     Node 16, Type 0, BuildingBlock: XOMCOT_clean_sbu_0, # of connection points: 5
#     Node 17, Type 0, BuildingBlock: XOMCOT_clean_sbu_0, # of connection points: 5
#     Node 18, Type 0, BuildingBlock: XOMCOT_clean_sbu_0, # of connection points: 5
#     Node 19, Type 0, BuildingBlock: XOMCOT_clean_sbu_0, # of connection points: 5
#     Node 20, Type 0, BuildingBlock: XOMCOT_clean_sbu_0, # of connection points: 5
#     Node 21, Type 0, BuildingBlock: XOMCOT_clean_sbu_0, # of connection points: 5
#     Node 22, Type 0, BuildingBlock: XOMCOT_clean_sbu_0, # of connection points: 5
#     Node 23, Type 0, BuildingBlock: XOMCOT_clean_sbu_0, # of connection points: 5
#     Node 24, Type 0, BuildingBlock: XOMCOT_clean_sbu_0, # of connection points: 5
#     Node 25, Type 0, BuildingBlock: XOMCOT_clean_sbu_0, # of connection points: 5
#     Node 26, Type 0, BuildingBlock: XOMCOT_clean_sbu_0, # of connection points: 5
#     Node 27, Type 0, BuildingBlock: XOMCOT_clean_sbu_0, # of connection points: 5
#     Node 28, Type 0, BuildingBlock: XOMCOT_clean_sbu_0, # of connection points: 5
#     Node 29, Type 0, BuildingBlock: XOMCOT_clean_sbu_0, # of connection points: 5
#     Node 30, Type 0, BuildingBlock: XOMCOT_clean_sbu_0, # of connection points: 5
#     Node 31, Type 0, BuildingBlock: XOMCOT_clean_sbu_0, # of connection points: 5
#     Node 32, Type 0, BuildingBlock: XOMCOT_clean_sbu_0, # of connection points: 5
#     Node 33, Type 0, BuildingBlock: XOMCOT_clean_sbu_0, # of connection points: 5
#     Node 34, Type 0, BuildingBlock: XOMCOT_clean_sbu_0, # of connection points: 5
#     Node 35, Type 0, BuildingBlock: XOMCOT_clean_sbu_0, # of connection points: 5
#     Edge 36, Type (0, 0), BuildingBlock: KIFKEQ_clean_linker_1, # of connection points: 2
#     Edge 37, Type (0, 0), BuildingBlock: KIFKEQ_clean_linker_1, # of connection points: 2
#     Edge 38, Type (0, 0), BuildingBlock: KIFKEQ_clean_linker_1, # of connection points: 2
#     Edge 39, Type (0, 0), BuildingBlock: KIFKEQ_clean_linker_1, # of connection points: 2
#     Edge 40, Type (0, 0), BuildingBlock: KIFKEQ_clean_linker_1, # of connection points: 2
#     Edge 41, Type (0, 0), BuildingBlock: KIFKEQ_clean_linker_1, # of connection points: 2
#     Edge 42, Type (0, 0), BuildingBlock: KIFKEQ_clean_linker_1, # of connection points: 2
#     Edge 43, Type (0, 0), BuildingBlock: KIFKEQ_clean_linker_1, # of connection points: 2
#     Edge 44, Type (0, 0), BuildingBlock: KIFKEQ_clean_linker_1, # of connection points: 2
#     Edge 45, Type (0, 0), BuildingBlock: KIFKEQ_clean_linker_1, # of connection points: 2
#     Edge 46, Type (0, 0), BuildingBlock: KIFKEQ_clean_linker_1, # of connection points: 2
#     Edge 47, Type (0, 0), BuildingBlock: KIFKEQ_clean_linker_1, # of connection points: 2
#     Edge 48, Type (0, 0), BuildingBlock: KIFKEQ_clean_linker_1, # of connection points: 2
#     Edge 49, Type (0, 0), BuildingBlock: KIFKEQ_clean_linker_1, # of connection points: 2
#     Edge 50, Type (0, 0), BuildingBlock: KIFKEQ_clean_linker_1, # of connection points: 2
#     Edge 51, Type (0, 0), BuildingBlock: KIFKEQ_clean_linker_1, # of connection points: 2
#     Edge 52, Type (0, 0), BuildingBlock: KIFKEQ_clean_linker_1, # of connection points: 2
#     Edge 53, Type (0, 0), BuildingBlock: KIFKEQ_clean_linker_1, # of connection points: 2
#     Edge 54, Type (0, 0), BuildingBlock: KIFKEQ_clean_linker_1, # of connection points: 2
#     Edge 55, Type (0, 0), BuildingBlock: KIFKEQ_clean_linker_1, # of connection points: 2
#     Edge 56, Type (0, 0), BuildingBlock: KIFKEQ_clean_linker_1, # of connection points: 2
#     Edge 57, Type (0, 0), BuildingBlock: KIFKEQ_clean_linker_1, # of connection points: 2
#     Edge 58, Type (0, 0), BuildingBlock: KIFKEQ_clean_linker_1, # of connection points: 2
#     Edge 59, Type (0, 0), BuildingBlock: KIFKEQ_clean_linker_1, # of connection points: 2
#     Edge 60, Type (0, 0), BuildingBlock: KIFKEQ_clean_linker_1, # of connection points: 2
#     Edge 61, Type (0, 0), BuildingBlock: KIFKEQ_clean_linker_1, # of connection points: 2
#     Edge 62, Type (0, 0), BuildingBlock: KIFKEQ_clean_linker_1, # of connection points: 2
#     Edge 63, Type (0, 0), BuildingBlock: KIFKEQ_clean_linker_1, # of connection points: 2
#     Edge 64, Type (0, 0), BuildingBlock: KIFKEQ_clean_linker_1, # of connection points: 2
#     Edge 65, Type (0, 0), BuildingBlock: KIFKEQ_clean_linker_1, # of connection points: 2
#     Edge 66, Type (0, 0), BuildingBlock: KIFKEQ_clean_linker_1, # of connection points: 2
#     Edge 67, Type (0, 0), BuildingBlock: KIFKEQ_clean_linker_1, # of connection points: 2
#     Edge 68, Type (0, 0), BuildingBlock: KIFKEQ_clean_linker_1, # of connection points: 2
#     Edge 69, Type (0, 0), BuildingBlock: KIFKEQ_clean_linker_1, # of connection points: 2
#     Edge 70, Type (0, 0), BuildingBlock: KIFKEQ_clean_linker_1, # of connection points: 2
#     Edge 71, Type (0, 0), BuildingBlock: KIFKEQ_clean_linker_1, # of connection points: 2
#     Edge 72, Type (0, 0), BuildingBlock: KIFKEQ_clean_linker_1, # of connection points: 2
#     Edge 73, Type (0, 0), BuildingBlock: KIFKEQ_clean_linker_1, # of connection points: 2
#     Edge 74, Type (0, 0), BuildingBlock: KIFKEQ_clean_linker_1, # of connection points: 2
#     Edge 75, Type (0, 0), BuildingBlock: KIFKEQ_clean_linker_1, # of connection points: 2
#     Edge 76, Type (0, 0), BuildingBlock: KIFKEQ_clean_linker_1, # of connection points: 2
#     Edge 77, Type (0, 0), BuildingBlock: KIFKEQ_clean_linker_1, # of connection points: 2
#     Edge 78, Type (0, 0), BuildingBlock: KIFKEQ_clean_linker_1, # of connection points: 2
#     Edge 79, Type (0, 0), BuildingBlock: KIFKEQ_clean_linker_1, # of connection points: 2
#     Edge 80, Type (0, 0), BuildingBlock: KIFKEQ_clean_linker_1, # of connection points: 2
#     Edge 81, Type (0, 0), BuildingBlock: KIFKEQ_clean_linker_1, # of connection points: 2
#     Edge 82, Type (0, 0), BuildingBlock: KIFKEQ_clean_linker_1, # of connection points: 2
#     Edge 83, Type (0, 0), BuildingBlock: KIFKEQ_clean_linker_1, # of connection points: 2
#     Edge 84, Type (0, 0), BuildingBlock: KIFKEQ_clean_linker_1, # of connection points: 2
#     Edge 85, Type (0, 0), BuildingBlock: KIFKEQ_clean_linker_1, # of connection points: 2
#     Edge 86, Type (0, 0), BuildingBlock: KIFKEQ_clean_linker_1, # of connection points: 2
#     Edge 87, Type (0, 0), BuildingBlock: KIFKEQ_clean_linker_1, # of connection points: 2
#     Edge 88, Type (0, 0), BuildingBlock: KIFKEQ_clean_linker_1, # of connection points: 2
#     Edge 89, Type (0, 0), BuildingBlock: KIFKEQ_clean_linker_1, # of connection points: 2
#     Edge 90, Type (0, 0), BuildingBlock: KIFKEQ_clean_linker_1, # of connection points: 2
#     Edge 91, Type (0, 0), BuildingBlock: KIFKEQ_clean_linker_1, # of connection points: 2
#     Edge 92, Type (0, 0), BuildingBlock: KIFKEQ_clean_linker_1, # of connection points: 2
#     Edge 93, Type (0, 0), BuildingBlock: KIFKEQ_clean_linker_1, # of connection points: 2
#     Edge 94, Type (0, 0), BuildingBlock: KIFKEQ_clean_linker_1, # of connection points: 2
#     Edge 95, Type (0, 0), BuildingBlock: KIFKEQ_clean_linker_1, # of connection points: 2
#     Edge 96, Type (0, 0), BuildingBlock: KIFKEQ_clean_linker_1, # of connection points: 2
#     Edge 97, Type (0, 0), BuildingBlock: KIFKEQ_clean_linker_1, # of connection points: 2
#     Edge 98, Type (0, 0), BuildingBlock: KIFKEQ_clean_linker_1, # of connection points: 2
#     Edge 99, Type (0, 0), BuildingBlock: KIFKEQ_clean_linker_1, # of connection points: 2
#     Edge 100, Type (0, 0), BuildingBlock: KIFKEQ_clean_linker_1, # of connection points: 2
#     Edge 101, Type (0, 0), BuildingBlock: KIFKEQ_clean_linker_1, # of connection points: 2
#     Edge 102, Type (0, 0), BuildingBlock: KIFKEQ_clean_linker_1, # of connection points: 2
#     Edge 103, Type (0, 0), BuildingBlock: KIFKEQ_clean_linker_1, # of connection points: 2
#     Edge 104, Type (0, 0), BuildingBlock: KIFKEQ_clean_linker_1, # of connection points: 2
#     Edge 105, Type (0, 0), BuildingBlock: KIFKEQ_clean_linker_1, # of connection points: 2
#     Edge 106, Type (0, 0), BuildingBlock: KIFKEQ_clean_linker_1, # of connection points: 2
#     Edge 107, Type (0, 0), BuildingBlock: KIFKEQ_clean_linker_1, # of connection points: 2
#     Edge 108, Type (0, 0), BuildingBlock: KIFKEQ_clean_linker_1, # of connection points: 2
#     Edge 109, Type (0, 0), BuildingBlock: KIFKEQ_clean_linker_1, # of connection points: 2
#     Edge 110, Type (0, 0), BuildingBlock: KIFKEQ_clean_linker_1, # of connection points: 2
#     Edge 111, Type (0, 0), BuildingBlock: KIFKEQ_clean_linker_1, # of connection points: 2
#     Edge 112, Type (0, 0), BuildingBlock: KIFKEQ_clean_linker_1, # of connection points: 2
#     Edge 113, Type (0, 0), BuildingBlock: KIFKEQ_clean_linker_1, # of connection points: 2
#     Edge 114, Type (0, 0), BuildingBlock: KIFKEQ_clean_linker_1, # of connection points: 2
#     Edge 115, Type (0, 0), BuildingBlock: KIFKEQ_clean_linker_1, # of connection points: 2
#     Edge 116, Type (0, 0), BuildingBlock: KIFKEQ_clean_linker_1, # of connection points: 2
#     Edge 117, Type (0, 0), BuildingBlock: KIFKEQ_clean_linker_1, # of connection points: 2
#     Edge 118, Type (0, 0), BuildingBlock: KIFKEQ_clean_linker_1, # of connection points: 2
#     Edge 119, Type (0, 0), BuildingBlock: KIFKEQ_clean_linker_1, # of connection points: 2
#     Edge 120, Type (0, 0), BuildingBlock: KIFKEQ_clean_linker_1, # of connection points: 2
#     Edge 121, Type (0, 0), BuildingBlock: KIFKEQ_clean_linker_1, # of connection points: 2
#     Edge 122, Type (0, 0), BuildingBlock: KIFKEQ_clean_linker_1, # of connection points: 2
#     Edge 123, Type (0, 0), BuildingBlock: KIFKEQ_clean_linker_1, # of connection points: 2
#     Edge 124, Type (0, 0), BuildingBlock: KIFKEQ_clean_linker_1, # of connection points: 2
#     Edge 125, Type (0, 0), BuildingBlock: KIFKEQ_clean_linker_1, # of connection points: 2
# Relax obj value: 0.200
# Max RMSD: 0.170
# Mean RMSD: 0.170
data_MOF--net-wlr--node1-XOMCOT_clean_sbu_0--edge1-KIFKEQ_clean_linker_1
_symmetry_space_group_name_H-M    P1
_symmetry_Int_Tables_number       1
_symmetry_cell_setting            triclinic
loop_
_symmetry_equiv_pos_as_xyz
'x, y, z'
_cell_length_a     80.782242
_cell_length_b     80.744824
_cell_length_c     33.165979
_cell_angle_alpha  90.012542
_cell_angle_beta   90.023978
_cell_angle_gamma 119.98798
loop_
_atom_site_label
_atom_site_type_symbol
_atom_site_fract_x
_atom_site_fract_y
_atom_site_fract_z
_atom_type_partial_charge
Co0 Co 0.25048 0.19212 0.07474 0.0
C1 C 0.22106 0.19935 0.0378 0.0
C2 C 0.24961 0.2214 0.02425 0.0
C3 C 0.23718 0.22708 0.01062 0.0
N4 N 0.23957 0.2038 0.04057 0.0
N5 N 0.21922 0.21332 0.01952 0.0
H6 H 0.20935 0.18712 0.05221 0.0
H7 H 0.265 0.23021 0.02479 0.0
C8 C 0.27578 0.20439 1.00175 0.0
O9 O 0.26001 0.19592 0.98022 0.0
N10 N 0.26089 0.1806 0.10992 0.0
C11 C 0.25021 0.16442 0.13111 0.0
C12 C 0.26209 0.1591 0.14924 0.0
C13 C 0.27918 0.18504 0.11562 0.0
N14 N 0.28023 0.172 0.13939 0.0
C15 C 0.21989 0.15601 0.04557 0.0
C16 C 0.24362 0.14314 0.01694 0.0
C17 C 0.22409 0.13011 0.02048 0.0
C18 C 0.21207 0.13677 0.03435 0.0
C19 C 0.25088 0.16196 0.0295 0.0
N20 N 0.23915 0.16839 0.04354 0.0
H21 H 0.21061 0.1604 0.05923 0.0
H22 H 0.2662 0.17077 0.03134 0.0
H23 H 0.23477 0.15662 0.13206 0.0
H24 H 0.29132 0.19696 0.10128 0.0
O25 O 0.23026 0.18551 0.11369 0.0
O26 O 0.25777 0.2128 0.11304 0.0
O27 O 0.27472 0.20412 0.04039 0.0
C28 C 0.24135 0.20201 0.13041 0.0
H29 H 0.24121 0.24076 0.997 0.0
H30 H 0.25771 0.14653 0.16769 0.0
H31 H 0.2535 0.13844 1.00781 0.0
H32 H 0.19691 0.12701 0.03828 0.0
Co33 Co 0.81837 0.06091 0.07234 0.0
C34 C 0.81229 0.02469 0.03555 0.0
C35 C 0.7901 0.03069 0.01992 0.0
C36 C 0.78513 0.01282 1.00569 0.0
N37 N 0.80737 0.03842 0.03786 0.0
N38 N 0.79903 0.00897 0.01581 0.0
H39 H 0.82428 0.02529 0.0512 0.0
H40 H 0.78105 0.03701 0.01947 0.0
C41 C 0.80649 0.0741 0.99879 0.0
O42 O 0.81542 0.06723 0.97749 0.0
N43 N 0.82921 0.08273 0.10778 0.0
C44 C 0.84515 0.08848 0.12992 0.0
C45 C 0.84915 0.10488 0.1501 0.0
C46 C 0.82366 0.09567 0.11465 0.0
N47 N 0.83568 0.10941 0.14048 0.0
C48 C 0.85463 0.06666 0.0439 0.0
C49 C 0.86766 0.10336 0.01578 0.0
C50 C 0.88057 0.09665 0.01871 0.0
C51 C 0.87379 0.07791 0.03228 0.0
C52 C 0.84882 0.09185 0.02838 0.0
N53 N 0.84233 0.07363 0.04206 0.0
H54 H 0.85027 0.05302 0.05759 0.0
H55 H 0.83999 0.09836 0.03028 0.0
H56 H 0.8536 0.08149 0.13048 0.0
H57 H 0.81127 0.09513 0.10083 0.0
O58 O 0.82502 0.04751 0.11174 0.0
O59 O 0.79745 0.04717 0.10995 0.0
O60 O 0.80635 0.07296 0.03741 0.0
C61 C 0.80838 0.04186 0.12796 0.0
H62 H 0.77188 1.0031 0.99066 0.0
H63 H 0.86146 0.11322 0.16914 0.0
H64 H 0.87243 0.11798 1.00691 0.0
H65 H 0.88341 0.0723 0.03572 0.0
Co66 Co 0.95154 0.75963 0.07014 0.0
C67 C 0.98608 0.79066 0.03015 0.0
C68 C 0.98056 0.76279 0.01297 0.0
C69 C 0.99812 0.77604 0.99823 0.0
N70 N 0.9727 0.77187 0.03237 0.0
N71 N 1.00174 0.79358 1.0095 0.0
H72 H 0.98538 0.80178 0.04688 0.0
H73 H 0.97479 0.74749 0.01252 0.0
C74 C 0.93722 0.73397 0.99767 0.0
O75 O 0.94257 0.74954 0.97628 0.0
N76 N 0.93105 0.74784 0.10906 0.0
C77 C 0.92734 0.7573 0.138 0.0
C78 C 0.91105 0.74463 0.15811 0.0
C79 C 0.91678 0.72952 0.1116 0.0
N80 N 0.90441 0.72727 0.14133 0.0
C81 C 0.94215 0.78819 0.04461 0.0
C82 C 0.90491 0.76208 0.02355 0.0
C83 C 0.91003 0.78129 0.02783 0.0
C84 C 0.92915 0.79458 0.03698 0.0
C85 C 0.91809 0.75629 0.03214 0.0
N86 N 0.93649 0.76917 0.04293 0.0
H87 H 0.95623 0.79838 0.05527 0.0
H88 H 0.91277 0.74113 0.03344 0.0
H89 H 0.93546 0.77254 0.14329 0.0
H90 H 0.91511 0.71821 0.09159 0.0
O91 O 0.96542 0.78036 0.10782 0.0
O92 O 0.96752 0.75407 0.10488 0.0
O93 O 0.93963 0.73527 0.03605 0.0
C94 C 0.97246 0.77028 0.1227 0.0
H95 H 0.00798 0.77286 0.98267 0.0
H96 H 0.90406 0.74807 0.18183 0.0
H97 H 0.89039 0.75128 0.01612 0.0
H98 H 0.9337 0.80956 0.04112 0.0
Co99 Co 0.19529 0.24866 0.44917 0.0
C100 C 0.19786 0.21677 0.48655 0.0
C101 C 0.22174 0.24385 0.5029 0.0
C102 C 0.22487 0.22963 0.51721 0.0
N103 N 0.20452 0.23581 0.48457 0.0
N104 N 0.2099 0.21263 0.50652 0.0
H105 H 0.18527 0.20615 0.47105 0.0
H106 H 0.23199 0.259 0.50333 0.0
C107 C 0.20849 0.27368 0.52283 0.0
O108 O 0.19937 0.25788 0.54408 0.0
N109 N 0.18584 0.26061 0.41253 0.0
C110 C 0.17018 0.2506 0.38937 0.0
C111 C 0.16558 0.26301 0.37137 0.0
C112 C 0.19068 0.27911 0.40818 0.0
N113 N 0.17837 0.28085 0.38329 0.0
C114 C 0.15734 0.22004 0.47481 0.0
C115 C 0.14719 0.24626 0.50079 0.0
C116 C 0.13283 0.22728 0.49521 0.0
C117 C 0.13811 0.21388 0.48363 0.0
C118 C 0.16604 0.2518 0.49161 0.0
N119 N 0.17109 0.23889 0.4782 0.0
H120 H 0.16066 0.20991 0.46141 0.0
H121 H 0.17607 0.26692 0.49124 0.0
H122 H 0.16204 0.23519 0.38724 0.0
H123 H 0.20217 0.29085 0.42441 0.0
O124 O 0.18805 0.22839 0.40987 0.0
O125 O 0.21641 0.25465 0.41295 0.0
O126 O 0.2082 0.27273 0.48417 0.0
C127 C 0.20507 0.23862 0.39468 0.0
H128 H 0.23783 0.23166 0.53139 0.0
H129 H 0.15345 0.25919 0.35183 0.0
H130 H 0.14368 0.2571 0.50933 0.0
H131 H 0.12734 0.19912 0.47815 0.0
Co132 Co 0.76284 0.94926 0.44629 0.0
C133 C 0.79493 0.98289 0.48641 0.0
C134 C 0.76773 0.97892 0.50439 0.0
C135 C 0.78179 0.99572 0.52092 0.0
N136 N 0.77592 0.97048 0.48372 0.0
N137 N 0.79887 0.99825 0.50933 0.0
H138 H 0.80566 0.98157 0.4697 0.0
H139 H 0.75259 0.97396 0.50513 0.0
C140 C 0.73808 0.93587 0.52036 0.0
O141 O 0.75383 0.94161 0.54132 0.0
N142 N 0.75025 0.92865 0.40771 0.0
C143 C 0.75902 0.92498 0.37722 0.0
C144 C 0.746 0.90847 0.35819 0.0
C145 C 0.732 0.91413 0.40713 0.0
N146 N 0.72912 0.90165 0.37717 0.0
C147 C 0.79142 0.93949 0.46909 0.0
C148 C 0.76562 0.90274 0.49366 0.0
C149 C 0.78479 0.90782 0.48885 0.0
C150 C 0.7979 0.92667 0.47766 0.0
C151 C 0.75976 0.91587 0.48471 0.0
N152 N 0.77251 0.93406 0.4724 0.0
H153 H 0.80144 0.95318 0.45654 0.0
H154 H 0.74461 0.91067 0.48465 0.0
H155 H 0.77407 0.93325 0.37011 0.0
H156 H 0.7212 0.91236 0.42868 0.0
O157 O 0.78307 0.96293 0.40749 0.0
O158 O 0.75707 0.96539 0.41249 0.0
O159 O 0.73897 0.93763 0.48182 0.0
C160 C 0.773 0.97018 0.39369 0.0
H161 H 0.77959 0.00604 0.53743 0.0
H162 H 0.74894 0.90146 0.33367 0.0
H163 H 0.75496 0.88833 0.50219 0.0
H164 H 0.8128 0.93108 0.47269 0.0
Co165 Co 0.06213 0.81614 0.44484 0.0
C166 C 0.027 0.81294 0.47996 0.0
C167 C 0.0318 0.79073 0.50167 0.0
C168 C 0.0143 0.7873 0.51555 0.0
N169 N 0.0401 0.80716 0.48028 0.0
N170 N 0.01129 0.8012 0.50149 0.0
H171 H 0.02819 0.82465 0.46205 0.0
H172 H 0.03732 0.78104 0.50458 0.0
C173 C 0.07511 0.80436 0.51887 0.0
O174 O 0.06955 0.81459 0.53962 0.0
N175 N 0.08345 0.82525 0.40818 0.0
C176 C 0.0894 0.84097 0.38507 0.0
C177 C 0.10633 0.84525 0.36718 0.0
C178 C 0.09681 0.82002 0.40382 0.0
N179 N 0.11099 0.83217 0.37907 0.0
C180 C 0.07105 0.85389 0.47193 0.0
C181 C 0.10813 0.86479 0.49399 0.0
C182 C 0.10298 0.87886 0.49028 0.0
C183 C 0.08398 0.8732 0.48068 0.0
C184 C 0.09496 0.84589 0.48494 0.0
N185 N 0.07667 0.84048 0.4734 0.0
H186 H 0.05716 0.85019 0.46049 0.0
H187 H 0.10027 0.83603 0.48339 0.0
H188 H 0.08241 0.84939 0.38304 0.0
H189 H 0.09679 0.80839 0.42009 0.0
O190 O 0.04929 0.82336 0.40515 0.0
O191 O 0.04695 0.79488 0.40897 0.0
O192 O 0.07322 0.80335 0.48036 0.0
C193 C 0.04249 0.80628 0.39017 0.0
H194 H 1.00396 0.77478 0.53196 0.0
H195 H 0.1149 0.85739 0.34787 0.0
H196 H 0.1227 0.86859 0.50111 0.0
H197 H 0.07956 0.88375 0.47687 0.0
Co198 Co 0.76171 0.81504 0.94801 0.0
C199 C 0.79335 0.81259 0.9874 0.0
C200 C 0.76601 0.78987 1.00628 0.0
C201 C 0.77994 0.78682 0.02254 0.0
N202 N 0.77441 0.80636 0.98512 0.0
N203 N 0.7971 0.80105 0.01036 0.0
H204 H 0.80414 0.8245 0.97048 0.0
H205 H 0.7508 0.78001 1.00764 0.0
C206 C 0.73731 0.80466 0.02238 0.0
O207 O 0.75318 0.81482 0.04291 0.0
N208 N 0.7497 0.82383 0.90974 0.0
C209 C 0.7593 0.83709 0.88111 0.0
C210 C 0.74719 0.84216 0.86338 0.0
C211 C 0.73177 0.82104 0.9091 0.0
N212 N 0.72996 0.83227 0.88123 0.0
C213 C 0.7912 0.85338 0.96992 0.0
C214 C 0.76582 0.86494 0.99423 0.0
C215 C 0.78494 0.87879 0.98851 0.0
C216 C 0.79792 0.87285 0.97758 0.0
C217 C 0.75975 0.84586 0.98628 0.0
N218 N 0.77224 0.84008 0.97397 0.0
H219 H 0.801 0.84942 0.95731 0.0
H220 H 0.74456 0.83615 0.98647 0.0
H221 H 0.77438 0.84345 0.87473 0.0
H222 H 0.72068 0.81197 0.93013 0.0
O223 O 0.78156 0.82062 0.90863 0.0
O224 O 0.75472 0.79288 0.91448 0.0
O225 O 0.73802 0.80344 0.98391 0.0
C226 C 0.77062 0.80336 0.8951 0.0
H227 H 0.77756 0.77434 0.03939 0.0
H228 H 0.75097 0.85275 0.83988 0.0
H229 H 0.75531 0.86899 1.0022 0.0
H230 H 0.81278 0.88325 0.97199 0.0
Co231 Co 0.19636 0.95013 0.94721 0.0
C232 C 0.19809 0.98409 0.98496 0.0
C233 C 0.22093 0.9801 1.00575 0.0
C234 C 0.22378 0.99735 0.02025 0.0
N235 N 0.20452 0.97151 0.98432 0.0
N236 N 0.20948 0.99988 1.00673 0.0
H237 H 0.18622 0.98258 0.96725 0.0
H238 H 0.23097 0.975 1.00811 0.0
C239 C 0.20745 0.93639 0.02135 0.0
O240 O 0.19712 0.94175 0.04231 0.0
N241 N 0.18801 0.92935 0.90887 0.0
C242 C 0.17488 0.9256 0.87985 0.0
C243 C 0.17001 0.90844 0.86223 0.0
C244 C 0.19091 0.91426 0.90856 0.0
N245 N 0.17988 0.90118 0.88052 0.0
C246 C 0.15792 0.94061 0.96941 0.0
C247 C 0.14692 0.90382 0.99377 0.0
C248 C 0.13287 0.90887 0.98828 0.0
C249 C 0.13855 0.92772 0.97733 0.0
C250 C 0.16594 0.91701 0.98563 0.0
N251 N 0.17142 0.93521 0.97325 0.0
H252 H 0.16162 0.9543 0.95676 0.0
H253 H 0.17585 0.91178 0.98586 0.0
H254 H 0.16844 0.93421 0.8731 0.0
H255 H 0.1999 0.91228 0.92992 0.0
O256 O 0.19023 0.96406 0.90791 0.0
O257 O 0.21835 0.96578 0.91359 0.0
O258 O 0.20853 0.9385 0.98291 0.0
C259 C 0.20758 0.97093 0.8945 0.0
H260 H 0.23623 0.0079 0.03653 0.0
H261 H 0.15956 0.90159 0.83848 0.0
H262 H 0.14309 0.88932 1.00182 0.0
H263 H 0.12801 0.93201 0.97189 0.0
Co264 Co 0.06021 0.24924 0.94547 0.0
C265 C 0.02744 0.21515 0.9821 0.0
C266 C 0.0316 0.24098 1.00932 0.0
C267 C 0.01487 0.22596 0.0239 0.0
N268 N 0.03986 0.23421 0.98381 0.0
N269 N 0.01218 0.20975 1.00643 0.0
H270 H 0.02863 0.20556 0.96116 0.0
H271 H 0.03636 0.25591 0.0144 0.0
C272 C 0.07462 0.27371 0.01981 0.0
O273 O 0.07148 0.25826 0.03942 0.0
N274 N 0.07976 0.26378 0.90596 0.0
C275 C 0.08486 0.25619 0.87545 0.0
C276 C 0.09928 0.27074 0.85393 0.0
C277 C 0.0913 0.28286 0.90287 0.0
N278 N 0.10333 0.28742 0.87127 0.0
C279 C 0.0727 0.22264 0.96924 0.0
C280 C 0.1099 0.25055 0.98581 0.0
C281 C 0.10541 0.23141 0.98518 0.0
C282 C 0.0864 0.21729 0.97784 0.0
C283 C 0.0959 0.25525 0.9771 0.0
N284 N 0.07749 0.24144 0.96886 0.0
H285 H 0.05862 0.21169 0.96035 0.0
H286 H 0.10026 0.27021 0.97478 0.0
H287 H 0.07891 0.24108 0.86984 0.0
H288 H 0.09129 0.29318 0.92368 0.0
O289 O 0.04769 0.22921 0.90585 0.0
O290 O 0.04227 0.25332 0.9141 0.0
O291 O 0.07062 0.27262 0.98212 0.0
C292 C 0.03891 0.23812 0.89378 0.0
H293 H 1.00462 0.22711 0.043 0.0
H294 H 0.10695 0.26915 0.82882 0.0
H295 H 0.12437 0.26195 0.99148 0.0
H296 H 0.08239 0.20234 0.97634 0.0
Co297 Co 0.8179 0.76033 0.57782 0.0
C298 C 0.8177 0.79296 0.53813 0.0
C299 C 0.7987 0.76648 0.50856 0.0
C300 C 0.79673 0.78085 0.49099 0.0
N301 N 0.81188 0.7741 0.53807 0.0
N302 N 0.80855 0.79747 0.50985 0.0
H303 H 0.82788 0.80305 0.55945 0.0
H304 H 0.7903 0.75142 0.50159 0.0
C305 C 0.81558 0.73019 0.51754 0.0
O306 O 0.83404 0.7367 0.52013 0.0
N307 N 0.82351 0.74641 0.61918 0.0
C308 C 0.82687 0.75101 0.65881 0.0
C309 C 0.83102 0.73849 0.67794 0.0
C310 C 0.82546 0.73079 0.61539 0.0
N311 N 0.83022 0.72582 0.65059 0.0
C312 C 0.8583 0.77876 0.58578 0.0
C313 C 0.86766 0.7826 0.50496 0.0
C314 C 0.88223 0.78771 0.53374 0.0
C315 C 0.87728 0.78614 0.5746 0.0
C316 C 0.84866 0.77522 0.51765 0.0
N317 N 0.84407 0.77218 0.5577 0.0
H318 H 0.85508 0.77814 0.61743 0.0
H319 H 0.83756 0.771 0.4952 0.0
H320 H 0.82694 0.76299 0.67337 0.0
H321 H 0.8237 0.72318 0.58778 0.0
O322 O 0.82197 0.77968 0.61693 0.0
O323 O 0.79417 0.75341 0.6058 0.0
O324 O 0.80767 0.73746 0.5393 0.0
C325 C 0.80397 0.76924 0.62611 0.0
H326 H 0.78644 0.77896 0.46791 0.0
H327 H 0.83431 0.7387 0.70964 0.0
H328 H 0.87085 0.78404 0.47302 0.0
H329 H 0.88786 0.78996 0.59815 0.0
Co330 Co 0.25138 0.06115 0.57351 0.0
C331 C 0.2212 0.02541 0.53538 0.0
C332 C 0.24937 0.03132 0.51991 0.0
C333 C 0.23645 0.01348 0.50558 0.0
N334 N 0.23986 0.03906 0.53792 0.0
N335 N 0.21871 0.00966 0.51568 0.0
H336 H 0.20982 0.02608 0.55094 0.0
H337 H 0.26473 0.03756 0.51969 0.0
C338 C 0.27617 0.07481 0.49956 0.0
O339 O 0.26032 0.06792 0.47838 0.0
N340 N 0.26245 0.08265 0.61018 0.0
C341 C 0.25276 0.0861 0.63899 0.0
C342 C 0.26495 0.10306 0.6577 0.0
C343 C 0.28038 0.09773 0.61129 0.0
N344 N 0.2822 0.11035 0.64011 0.0
C345 C 0.22068 0.06739 0.54874 0.0
C346 C 0.24412 0.10378 0.51879 0.0
C347 C 0.22466 0.09735 0.52348 0.0
C348 C 0.21279 0.07881 0.5382 0.0
C349 C 0.25147 0.09219 0.53065 0.0
N350 N 0.23985 0.07408 0.54502 0.0
H351 H 0.21155 0.05382 0.5629 0.0
H352 H 0.26679 0.09858 0.53118 0.0
H353 H 0.23769 0.07723 0.64533 0.0
H354 H 0.29176 0.09967 0.5912 0.0
O355 O 0.23145 0.04685 0.6127 0.0
O356 O 0.25903 0.04727 0.60956 0.0
O357 O 0.27527 0.07363 0.53817 0.0
C358 C 0.24275 0.04131 0.62779 0.0
H359 H 0.23998 1.00373 0.49067 0.0
H360 H 0.26126 0.10993 0.68126 0.0
H361 H 0.2539 0.11827 0.50902 0.0
H362 H 0.19771 0.07351 0.54313 0.0
Co363 Co 0.95051 0.19436 0.57072 0.0
C364 C 0.98574 0.19879 0.53234 0.0
C365 C 0.98019 0.2212 0.51583 0.0
C366 C 0.998 0.22585 0.50198 0.0
N367 N 0.97222 0.20402 0.53425 0.0
N368 N 1.00162 0.21188 0.51281 0.0
H369 H 0.98493 0.18681 0.54854 0.0
H370 H 0.97425 0.23058 0.51542 0.0
C371 C 0.93684 0.206 0.49766 0.0
O372 O 0.9429 0.19637 0.4763 0.0
N373 N 0.92942 0.18486 0.60842 0.0
C374 C 0.92601 0.172 0.6379 0.0
C375 C 0.90923 0.16762 0.65685 0.0
C376 C 0.91446 0.1879 0.60944 0.0
N377 N 0.90198 0.17751 0.63878 0.0
C378 C 0.94227 0.15682 0.54505 0.0
C379 C 0.90528 0.14512 0.521 0.0
C380 C 0.91066 0.13127 0.52632 0.0
C381 C 0.92968 0.13739 0.53692 0.0
C382 C 0.91806 0.16414 0.53011 0.0
N383 N 0.93633 0.16994 0.54246 0.0
H384 H 0.9562 0.16088 0.55697 0.0
H385 H 0.91245 0.17374 0.53066 0.0
H386 H 0.93468 0.1656 0.64444 0.0
H387 H 0.9124 0.19705 0.58867 0.0
O388 O 0.96428 0.18769 0.60902 0.0
O389 O 0.96561 0.21573 0.60654 0.0
O390 O 0.9386 0.20664 0.53619 0.0
C391 C 0.97069 0.20462 0.62449 0.0
H392 H 0.00799 0.23911 0.48728 0.0
H393 H 0.90237 0.15723 0.68071 0.0
H394 H 0.8908 0.14114 0.51252 0.0
H395 H 0.93439 0.12714 0.54191 0.0
Co396 Co 0.91579 0.52486 0.40376 0.0
C397 C 0.88518 0.53007 0.36724 0.0
C398 C 0.91297 0.55268 0.35054 0.0
C399 C 0.89952 0.55679 0.33557 0.0
N400 N 0.90398 0.53562 0.3695 0.0
N401 N 0.88206 0.5426 0.34635 0.0
H402 H 0.87403 0.5178 0.38259 0.0
H403 H 0.92828 0.56209 0.34967 0.0
C404 C 0.94078 0.5369 0.32985 0.0
O405 O 0.92504 0.52818 0.3083 0.0
N406 N 0.92686 0.514 0.43896 0.0
C407 C 0.91654 0.49791 0.46064 0.0
C408 C 0.92875 0.49306 0.47883 0.0
C409 C 0.94528 0.51888 0.44444 0.0
N410 N 0.94675 0.50618 0.46856 0.0
C411 C 0.88518 0.48815 0.37771 0.0
C412 C 0.90871 0.47556 0.34667 0.0
C413 C 0.88928 0.46239 0.35164 0.0
C414 C 0.87737 0.46892 0.36671 0.0
C415 C 0.91597 0.49446 0.35884 0.0
N416 N 0.90431 0.50076 0.37388 0.0
H417 H 0.87603 0.49231 0.39278 0.0
H418 H 0.93129 0.50343 0.35953 0.0
H419 H 0.9011 0.48987 0.46198 0.0
H420 H 0.95723 0.53088 0.42984 0.0
O421 O 0.89599 0.51862 0.44368 0.0
O422 O 0.92345 0.54595 0.44097 0.0
O423 O 0.93971 0.53677 0.36847 0.0
C424 C 0.90728 0.53534 0.45935 0.0
H425 H 0.90243 0.56983 0.32035 0.0
H426 H 0.92471 0.48067 0.49769 0.0
H427 H 0.91854 0.47096 0.33669 0.0
H428 H 0.86232 0.45906 0.37188 0.0
Co429 Co 0.48674 0.39511 0.41168 0.0
C430 C 0.48152 0.35937 0.37371 0.0
C431 C 0.4594 0.36541 0.35759 0.0
C432 C 0.45449 0.34761 0.34327 0.0
N433 N 0.47659 0.3731 0.37593 0.0
N434 N 0.46827 0.34368 0.35381 0.0
H435 H 0.49344 0.35993 0.38967 0.0
H436 H 0.45023 0.37159 0.35731 0.0
C437 C 0.47513 0.40856 0.33836 0.0
O438 O 0.48467 0.40232 0.3172 0.0
N439 N 0.49655 0.41652 0.44848 0.0
C440 C 0.51035 0.42088 0.47624 0.0
C441 C 0.51446 0.4377 0.49484 0.0
C442 C 0.49257 0.43085 0.45023 0.0
N443 N 0.50338 0.44396 0.47823 0.0
C444 C 0.5236 0.4024 0.38243 0.0
C445 C 0.53525 0.43907 0.35589 0.0
C446 C 0.54853 0.43277 0.35603 0.0
C447 C 0.54251 0.41411 0.36931 0.0
C448 C 0.51679 0.42717 0.36988 0.0
N449 N 0.5109 0.40891 0.38241 0.0
H450 H 0.51963 0.3886 0.39497 0.0
H451 H 0.50765 0.43326 0.37288 0.0
H452 H 0.51747 0.41277 0.48174 0.0
H453 H 0.48238 0.43198 0.43093 0.0
O454 O 0.49357 0.38158 0.45038 0.0
O455 O 0.4656 0.3804 0.44813 0.0
O456 O 0.47445 0.40691 0.3769 0.0
C457 C 0.47669 0.37526 0.466 0.0
H458 H 0.44123 0.33789 0.32822 0.0
H459 H 0.52536 0.44523 0.51746 0.0
H460 H 0.53942 0.45361 0.34748 0.0
H461 H 0.55247 0.40883 0.37071 0.0
Co462 Co 0.61537 0.09037 0.40366 0.0
C463 C 0.65076 0.12084 0.365 0.0
C464 C 0.64533 0.09273 0.3503 0.0
C465 C 0.66307 0.10578 0.3359 0.0
N466 N 0.63733 0.1021 0.36786 0.0
N467 N 0.6666 0.12347 0.34554 0.0
H468 H 0.64988 0.13218 0.38025 0.0
H469 H 0.63931 0.07739 0.35046 0.0
C470 C 0.60194 0.0659 0.32969 0.0
O471 O 0.609 0.08208 0.30967 0.0
N472 N 0.59402 0.0792 0.4407 0.0
C473 C 0.59015 0.08933 0.46761 0.0
C474 C 0.57283 0.07756 0.48513 0.0
C475 C 0.57887 0.0613 0.44209 0.0
N476 N 0.56561 0.05999 0.46886 0.0
C477 C 0.60793 0.12031 0.3786 0.0
C478 C 0.57095 0.0956 0.35355 0.0
C479 C 0.57652 0.1148 0.35982 0.0
C480 C 0.59554 0.12744 0.37086 0.0
C481 C 0.58352 0.08906 0.36225 0.0
N482 N 0.60178 0.10122 0.37514 0.0
H483 H 0.62177 0.12992 0.39116 0.0
H484 H 0.57766 0.0738 0.36237 0.0
H485 H 0.5989 0.10451 0.47304 0.0
H486 H 0.57708 0.04982 0.42249 0.0
O487 O 0.62927 0.11062 0.44231 0.0
O488 O 0.62996 0.08359 0.44002 0.0
O489 O 0.60312 0.06631 0.36836 0.0
C490 C 0.63537 0.09989 0.4579 0.0
H491 H 0.67299 0.10238 0.32133 0.0
H492 H 0.56594 0.08177 0.5076 0.0
H493 H 0.55644 0.08531 0.34482 0.0
H494 H 0.60037 0.14238 0.37662 0.0
Co495 Co 0.86166 0.58071 0.77881 0.0
C496 C 0.86279 0.54855 0.8191 0.0
C497 C 0.88614 0.57562 0.83746 0.0
C498 C 0.88876 0.5614 0.85358 0.0
N499 N 0.86957 0.5676 0.81663 0.0
N500 N 0.87414 0.54438 0.8417 0.0
H501 H 0.85065 0.53796 0.80235 0.0
H502 H 0.8964 0.59075 0.83844 0.0
C503 C 0.87284 0.60569 0.85255 0.0
O504 O 0.86241 0.59003 0.8735 0.0
N505 N 0.85368 0.59314 0.73987 0.0
C506 C 0.84013 0.58372 0.71166 0.0
C507 C 0.83606 0.59633 0.69281 0.0
C508 C 0.85768 0.61148 0.73787 0.0
N509 N 0.84693 0.61372 0.70949 0.0
C510 C 0.82293 0.55233 0.80015 0.0
C511 C 0.81256 0.57852 0.82514 0.0
C512 C 0.79817 0.55957 0.81895 0.0
C513 C 0.8036 0.54622 0.80758 0.0
C514 C 0.83149 0.58405 0.81674 0.0
N515 N 0.83669 0.57112 0.8044 0.0
H516 H 0.82646 0.5422 0.78755 0.0
H517 H 0.84158 0.59915 0.81692 0.0
H518 H 0.83294 0.56848 0.70632 0.0
H519 H 0.86731 0.62265 0.75819 0.0
O520 O 0.85539 0.56042 0.74006 0.0
O521 O 0.88367 0.58666 0.74562 0.0
O522 O 0.87393 0.60465 0.81411 0.0
C523 C 0.87278 0.57068 0.72673 0.0
H524 H 0.90125 0.56345 0.86993 0.0
H525 H 0.82547 0.59284 0.66942 0.0
H526 H 0.80915 0.58937 0.83409 0.0
H527 H 0.79293 0.53148 0.80164 0.0
Co528 Co 0.42924 0.28194 0.78314 0.0
C529 C 0.46103 0.31575 0.8233 0.0
C530 C 0.43372 0.311 0.84266 0.0
C531 C 0.44763 0.32792 0.85908 0.0
N532 N 0.44208 0.30299 0.82111 0.0
N533 N 0.4648 0.33096 0.84664 0.0
H534 H 0.47179 0.31475 0.80592 0.0
H535 H 0.41853 0.30575 0.84397 0.0
C536 C 0.40368 0.26762 0.85558 0.0
O537 O 0.41922 0.27241 0.87665 0.0
N538 N 0.41708 0.26162 0.74409 0.0
C539 C 0.42666 0.25568 0.72053 0.0
C540 C 0.41378 0.24013 0.69883 0.0
C541 C 0.39841 0.24963 0.73639 0.0
N542 N 0.39598 0.23625 0.7087 0.0
C543 C 0.4571 0.27169 0.81048 0.0
C544 C 0.43016 0.23432 0.82859 0.0
C545 C 0.4494 0.23936 0.8272 0.0
C546 C 0.46308 0.25848 0.81941 0.0
C547 C 0.42483 0.24779 0.81939 0.0
N548 N 0.43813 0.26627 0.81016 0.0
H549 H 0.46766 0.28575 0.80056 0.0
H550 H 0.40976 0.24273 0.81632 0.0
H551 H 0.44201 0.26175 0.72044 0.0
H552 H 0.38694 0.25043 0.75141 0.0
O553 O 0.44992 0.29536 0.74511 0.0
O554 O 0.42417 0.29836 0.74888 0.0
O555 O 0.40494 0.27042 0.81731 0.0
C556 C 0.44017 0.30288 0.73071 0.0
H557 H 0.44522 0.33796 0.8761 0.0
H558 H 0.41735 0.23176 0.67892 0.0
H559 H 0.41911 0.21969 0.83435 0.0
H560 H 0.4781 0.26285 0.81733 0.0
Co561 Co 0.72789 0.14802 0.77689 0.0
C562 C 0.69316 0.14519 0.81316 0.0
C563 C 0.69777 0.12281 0.83446 0.0
C564 C 0.68039 0.11959 0.84877 0.0
N565 N 0.70609 0.13921 0.81296 0.0
N566 N 0.67748 0.13362 0.83499 0.0
H567 H 0.69441 0.15691 0.79527 0.0
H568 H 0.7032 0.11304 0.83717 0.0
C569 C 0.74139 0.13664 0.85072 0.0
O570 O 0.73573 0.14675 0.87159 0.0
N571 N 0.74893 0.15696 0.73966 0.0
C572 C 0.7549 0.17268 0.71671 0.0
C573 C 0.77066 0.1757 0.69544 0.0
C574 C 0.76113 0.15052 0.73209 0.0
N575 N 0.77463 0.16181 0.70497 0.0
C576 C 0.73652 0.18563 0.80456 0.0
C577 C 0.77313 0.19653 0.83025 0.0
C578 C 0.76732 0.2102 0.82997 0.0
C579 C 0.74868 0.20454 0.81714 0.0
C580 C 0.76073 0.17802 0.81695 0.0
N581 N 0.74248 0.17249 0.80496 0.0
H582 H 0.72287 0.18206 0.79196 0.0
H583 H 0.76641 0.16851 0.8138 0.0
H584 H 0.7486 0.18176 0.71657 0.0
H585 H 0.76033 0.13814 0.74658 0.0
O586 O 0.71472 0.15492 0.73728 0.0
O587 O 0.71253 0.12653 0.74169 0.0
O588 O 0.73933 0.13554 0.81225 0.0
C589 C 0.70785 0.13773 0.7228 0.0
H590 H 0.67005 0.10711 0.86526 0.0
H591 H 0.77906 0.18779 0.67593 0.0
H592 H 0.78763 0.2004 0.83821 0.0
H593 H 0.74375 0.21478 0.81557 0.0
Co594 Co 0.4291 0.1487 0.2794 0.0
C595 C 0.46107 0.14749 0.32057 0.0
C596 C 0.4339 0.12509 0.34099 0.0
C597 C 0.44796 0.12246 0.35795 0.0
N598 N 0.44209 0.14114 0.31838 0.0
N599 N 0.46502 0.13649 0.3448 0.0
H600 H 0.47172 0.15898 0.30251 0.0
H601 H 0.41873 0.1151 0.34271 0.0
C602 C 0.40383 0.13853 0.35235 0.0
O603 O 0.41943 0.1495 0.37309 0.0
N604 N 0.41666 0.15622 0.23927 0.0
C605 C 0.42575 0.16853 0.20884 0.0
C606 C 0.41309 0.17226 0.18919 0.0
C607 C 0.39848 0.15272 0.23781 0.0
N608 N 0.39596 0.16256 0.20765 0.0
C609 C 0.4574 0.18719 0.30316 0.0
C610 C 0.43109 0.1982 0.32317 0.0
C611 C 0.45039 0.21218 0.3208 0.0
C612 C 0.46375 0.20647 0.31187 0.0
C613 C 0.42539 0.17926 0.31432 0.0
N614 N 0.43838 0.17378 0.30436 0.0
H615 H 0.46768 0.18348 0.29246 0.0
H616 H 0.41026 0.16934 0.31282 0.0
H617 H 0.44081 0.17505 0.20206 0.0
H618 H 0.38767 0.14404 0.25966 0.0
O619 O 0.44965 0.1551 0.24155 0.0
O620 O 0.42377 0.12656 0.24693 0.0
O621 O 0.405 0.13657 0.31422 0.0
C622 C 0.43979 0.13764 0.22837 0.0
H623 H 0.44572 0.11029 0.37581 0.0
H624 H 0.4165 0.18178 0.16373 0.0
H625 H 0.42028 0.20201 0.32981 0.0
H626 H 0.47878 0.21696 0.3089 0.0
Co627 Co 0.86001 0.28214 0.27814 0.0
C628 C 0.86143 0.31575 0.31687 0.0
C629 C 0.88445 0.31187 0.3369 0.0
C630 C 0.88728 0.32904 0.35172 0.0
N631 N 0.86795 0.30326 0.31576 0.0
N632 N 0.87287 0.33151 0.33867 0.0
H633 H 0.8495 0.31424 0.29936 0.0
H634 H 0.89459 0.30688 0.33872 0.0
C635 C 0.87114 0.26837 0.35191 0.0
O636 O 0.86061 0.2735 0.37279 0.0
N637 N 0.85197 0.26164 0.23935 0.0
C638 C 0.83858 0.2576 0.2108 0.0
C639 C 0.83419 0.24068 0.19261 0.0
C640 C 0.85554 0.247 0.23819 0.0
N641 N 0.84466 0.2339 0.21008 0.0
C642 C 0.8214 0.272 0.30084 0.0
C643 C 0.81093 0.23515 0.32385 0.0
C644 C 0.79668 0.23997 0.31907 0.0
C645 C 0.80209 0.25884 0.30879 0.0
C646 C 0.82985 0.24857 0.31566 0.0
N647 N 0.83509 0.2668 0.304 0.0
H648 H 0.82493 0.28575 0.28882 0.0
H649 H 0.83992 0.24353 0.31533 0.0
H650 H 0.83167 0.26586 0.2048 0.0
H651 H 0.86491 0.24533 0.25902 0.0
O652 O 0.85368 0.29609 0.23924 0.0
O653 O 0.88197 0.29816 0.24484 0.0
O654 O 0.87233 0.27059 0.31351 0.0
C655 C 0.87109 0.30323 0.22595 0.0
H656 H 0.89981 0.33963 0.36774 0.0
H657 H 0.82366 0.23366 0.16908 0.0
H658 H 0.80732 0.22067 0.33145 0.0
H659 H 0.7914 0.26299 0.30397 0.0
Co660 Co 0.72904 0.58405 0.27948 0.0
C661 C 0.6935 0.55349 0.31667 0.0
C662 C 0.69698 0.5813 0.32611 0.0
C663 C 0.67899 0.56784 0.3387 0.0
N664 N 0.70627 0.57236 0.31287 0.0
N665 N 0.67673 0.55033 0.33238 0.0
H666 H 0.69557 0.5423 0.30434 0.0
H667 H 0.70237 0.59652 0.32399 0.0
C668 C 0.73988 0.60915 0.3529 0.0
O669 O 0.73133 0.59332 0.37416 0.0
N670 N 0.75111 0.59497 0.24489 0.0
C671 C 0.75696 0.58452 0.22404 0.0
C672 C 0.7735 0.59663 0.20421 0.0
C673 C 0.76413 0.61338 0.23744 0.0
N674 N 0.77804 0.61479 0.21247 0.0
C675 C 0.7366 0.55426 0.30531 0.0
C676 C 0.77208 0.57919 0.33741 0.0
C677 C 0.76773 0.56051 0.32868 0.0
C678 C 0.74935 0.54767 0.31418 0.0
C679 C 0.75929 0.58527 0.32723 0.0
N680 N 0.7418 0.57305 0.31071 0.0
H681 H 0.7235 0.54468 0.2899 0.0
H682 H 0.76475 0.60044 0.3284 0.0
H683 H 0.74992 0.56908 0.2241 0.0
H684 H 0.76349 0.62536 0.25024 0.0
O685 O 0.71573 0.56398 0.2397 0.0
O686 O 0.71574 0.59138 0.24118 0.0
O687 O 0.74068 0.60819 0.31435 0.0
C688 C 0.7103 0.57513 0.22325 0.0
H689 H 0.66805 0.57075 0.34949 0.0
H690 H 0.78188 0.59229 0.18634 0.0
H691 H 0.78603 0.58962 0.34889 0.0
H692 H 0.74544 0.53312 0.30648 0.0
Co693 Co 0.48517 0.09129 0.90823 0.0
C694 C 0.4787 0.12163 0.87375 0.0
C695 C 0.45639 0.09346 0.85828 0.0
C696 C 0.45116 0.10635 0.84539 0.0
N697 N 0.47388 0.10299 0.87528 0.0
N698 N 0.46511 0.12408 0.85546 0.0
H699 H 0.49092 0.13299 0.88895 0.0
H700 H 0.44736 0.07809 0.8577 0.0
C701 C 0.47251 0.06662 0.83404 0.0
O702 O 0.4812 0.0825 0.81293 0.0
N703 N 0.49628 0.08001 0.94208 0.0
C704 C 0.51234 0.08999 0.96401 0.0
C705 C 0.51696 0.07743 0.98145 0.0
C706 C 0.4913 0.0615 0.94637 0.0
N707 N 0.50378 0.05954 0.9703 0.0
C708 C 0.52131 0.12186 0.87962 0.0
C709 C 0.53381 0.09818 0.84881 0.0
C710 C 0.54692 0.11769 0.8528 0.0
C711 C 0.54043 0.12968 0.86775 0.0
C712 C 0.51506 0.09092 0.86189 0.0
N713 N 0.50883 0.10264 0.87698 0.0
H714 H 0.51711 0.1311 0.89418 0.0
H715 H 0.50614 0.07559 0.86313 0.0
H716 H 0.52054 0.10541 0.96596 0.0
H717 H 0.47903 0.04981 0.93183 0.0
O718 O 0.49219 0.11111 0.94838 0.0
O719 O 0.46458 0.08392 0.94678 0.0
O720 O 0.47278 0.06745 0.8727 0.0
C721 C 0.47565 0.10008 0.96492 0.0
H722 H 0.43769 0.10279 0.83135 0.0
H723 H 0.52952 0.08128 0.99954 0.0
H724 H 0.53838 0.08832 0.83883 0.0
H725 H 0.55026 0.14481 0.87205 0.0
Co726 Co 0.91673 0.39284 0.90353 0.0
C727 C 0.88657 0.35655 0.86772 0.0
C728 C 0.91463 0.36081 0.85783 0.0
C729 C 0.90149 0.3426 0.84577 0.0
N730 N 0.90534 0.36976 0.87095 0.0
N731 N 0.88382 0.33984 0.85239 0.0
H732 H 0.8752 0.3583 0.88017 0.0
H733 H 0.92991 0.36659 0.85968 0.0
C734 C 0.9421 0.40354 0.83069 0.0
O735 O 0.92643 0.395 0.80889 0.0
N736 N 0.9275 0.41525 0.93725 0.0
C737 C 0.91713 0.42159 0.95673 0.0
C738 C 0.92932 0.43826 0.97622 0.0
C739 C 0.94591 0.42804 0.94527 0.0
N740 N 0.94744 0.44235 0.96917 0.0
C741 C 0.88667 0.39949 0.87583 0.0
C742 C 0.91131 0.43521 0.84442 0.0
C743 C 0.89249 0.43049 0.85273 0.0
C744 C 0.8798 0.41198 0.86672 0.0
C745 C 0.91765 0.42263 0.85472 0.0
N746 N 0.90558 0.40509 0.87115 0.0
H747 H 0.87718 0.3863 0.89098 0.0
H748 H 0.93286 0.42831 0.85392 0.0
H749 H 0.90171 0.41479 0.956 0.0
H750 H 0.95782 0.42692 0.93368 0.0
O751 O 0.89661 0.37982 0.94315 0.0
O752 O 0.92412 0.38002 0.94285 0.0
O753 O 0.94091 0.40436 0.86914 0.0
C754 C 0.90778 0.37462 0.96033 0.0
H755 H 0.90475 0.33188 0.83512 0.0
H756 H 0.92507 0.44698 0.99311 0.0
H757 H 0.92161 0.4493 0.83336 0.0
H758 H 0.86516 0.4078 0.87404 0.0
Co759 Co 0.61755 0.52784 0.90508 0.0
C760 C 0.65085 0.52991 0.86267 0.0
C761 C 0.64743 0.55396 0.84907 0.0
C762 C 0.66423 0.55695 0.83202 0.0
N763 N 0.63871 0.53673 0.86739 0.0
N764 N 0.66642 0.54188 0.84091 0.0
H765 H 0.64915 0.51719 0.87713 0.0
H766 H 0.64257 0.56423 0.85024 0.0
C767 C 0.60401 0.53945 0.83142 0.0
O768 O 0.61107 0.53074 0.80997 0.0
N769 N 0.59702 0.51896 0.94402 0.0
C770 C 0.59451 0.50731 0.97547 0.0
C771 C 0.57775 0.50282 0.99463 0.0
C772 C 0.58152 0.52115 0.94412 0.0
N773 N 0.5696 0.51142 0.97476 0.0
C774 C 0.60831 0.48939 0.88448 0.0
C775 C 0.57207 0.47825 0.85611 0.0
C776 C 0.57689 0.46415 0.86375 0.0
C777 C 0.59553 0.46996 0.87675 0.0
C778 C 0.58504 0.4973 0.86468 0.0
N779 N 0.603 0.50287 0.87886 0.0
H780 H 0.62178 0.49318 0.89843 0.0
H781 H 0.57968 0.50709 0.86332 0.0
H782 H 0.60379 0.50175 0.98333 0.0
H783 H 0.57871 0.52924 0.9219 0.0
O784 O 0.63225 0.52217 0.94327 0.0
O785 O 0.63304 0.54989 0.93896 0.0
O786 O 0.60501 0.53944 0.87008 0.0
C787 C 0.6388 0.53939 0.95718 0.0
H788 H 0.67475 0.56988 0.81703 0.0
H789 H 0.57155 0.49322 0.02 0.0
H790 H 0.55785 0.47448 0.84601 0.0
H791 H 0.59976 0.45951 0.88384 0.0
Co792 Co 0.58519 0.86084 0.74143 0.0
C793 C 0.5547 0.86571 0.7029 0.0
C794 C 0.58271 0.88852 0.68829 0.0
C795 C 0.56957 0.89312 0.67398 0.0
N796 N 0.57345 0.87108 0.70562 0.0
N797 N 0.55193 0.87887 0.68358 0.0
H798 H 0.54345 0.8535 0.71829 0.0
H799 H 0.59801 0.89797 0.68863 0.0
C800 C 0.61082 0.87349 0.66904 0.0
O801 O 0.59516 0.86463 0.64727 0.0
N802 N 0.59633 0.85074 0.77843 0.0
C803 C 0.58618 0.83496 0.80105 0.0
C804 C 0.59859 0.83129 0.82204 0.0
C805 C 0.61482 0.85651 0.78582 0.0
N806 N 0.61658 0.84479 0.81246 0.0
C807 C 0.55608 0.82378 0.7122 0.0
C808 C 0.58179 0.81219 0.69065 0.0
C809 C 0.56245 0.79845 0.69363 0.0
C810 C 0.54936 0.80446 0.70292 0.0
C811 C 0.58788 0.83115 0.70009 0.0
N812 N 0.57521 0.83685 0.71151 0.0
H813 H 0.54604 0.82768 0.72365 0.0
H814 H 0.60307 0.8407 0.70235 0.0
H815 H 0.57076 0.82632 0.80123 0.0
H816 H 0.62667 0.86877 0.77163 0.0
O817 O 0.56457 0.85367 0.77956 0.0
O818 O 0.59125 0.88175 0.7784 0.0
O819 O 0.60962 0.87335 0.70765 0.0
C820 C 0.57494 0.87047 0.7957 0.0
H821 H 0.5729 0.90645 0.65955 0.0
H822 H 0.59466 0.81911 0.84147 0.0
H823 H 0.59236 0.80805 0.68401 0.0
H824 H 0.5343 0.79414 0.70628 0.0
Co825 Co 0.15081 0.72733 0.74057 0.0
C826 C 0.14523 0.69141 0.70319 0.0
C827 C 0.12305 0.69733 0.68696 0.0
C828 C 0.11821 0.67949 0.67278 0.0
N829 N 0.14024 0.70511 0.70528 0.0
N830 N 0.13209 0.67568 0.6833 0.0
H831 H 0.15714 0.69203 0.71925 0.0
H832 H 0.1139 0.70354 0.6864 0.0
C833 C 0.13899 0.74081 0.66754 0.0
O834 O 0.14823 0.73428 0.64622 0.0
N835 N 0.16126 0.74884 0.77696 0.0
C836 C 0.17705 0.75439 0.79948 0.0
C837 C 0.18095 0.77062 0.82023 0.0
C838 C 0.15571 0.76177 0.78415 0.0
N839 N 0.16758 0.77529 0.8106 0.0
C840 C 0.18726 0.73391 0.7102 0.0
C841 C 0.19946 0.77081 0.68446 0.0
C842 C 0.21253 0.76424 0.68443 0.0
C843 C 0.20618 0.74542 0.69708 0.0
C844 C 0.18092 0.75904 0.69823 0.0
N845 N 0.17478 0.7407 0.71052 0.0
H846 H 0.18318 0.72012 0.72279 0.0
H847 H 0.17196 0.76534 0.70175 0.0
H848 H 0.18552 0.74742 0.79984 0.0
H849 H 0.14347 0.76144 0.77003 0.0
O850 O 0.15764 0.71382 0.77938 0.0
O851 O 0.12984 0.71302 0.77761 0.0
O852 O 0.13858 0.73934 0.70613 0.0
C853 C 0.14086 0.70777 0.79534 0.0
H854 H 0.105 0.66972 0.65763 0.0
H855 H 0.19318 0.77879 0.8396 0.0
H856 H 0.20386 0.78547 0.67662 0.0
H857 H 0.21592 0.73987 0.69829 0.0
Co858 Co 0.2831 0.4251 0.74852 0.0
C859 C 0.3172 0.45931 0.7163 0.0
C860 C 0.30805 0.43538 0.67642 0.0
C861 C 0.32485 0.4504 0.66182 0.0
N862 N 0.30321 0.44099 0.71061 0.0
N863 N 0.33065 0.46532 0.68725 0.0
H864 H 0.31799 0.46796 0.74193 0.0
H865 H 0.30049 0.42116 0.66375 0.0
C866 C 0.2574 0.39621 0.68362 0.0
O867 O 0.24609 0.40349 0.68261 0.0
N868 N 0.26327 0.409 0.78753 0.0
C869 C 0.26494 0.40935 0.82826 0.0
C870 C 0.24733 0.39791 0.84515 0.0
C871 C 0.24445 0.397 0.78064 0.0
N872 N 0.23452 0.39025 0.81518 0.0
C873 C 0.25873 0.44075 0.75978 0.0
C874 C 0.25557 0.44906 0.68041 0.0
C875 C 0.24468 0.45186 0.70985 0.0
C876 C 0.24681 0.44799 0.7501 0.0
C877 C 0.2674 0.44167 0.69154 0.0
N878 N 0.26782 0.43637 0.73056 0.0
H879 H 0.26041 0.43839 0.79118 0.0
H880 H 0.27535 0.43927 0.66837 0.0
H881 H 0.27775 0.41787 0.84551 0.0
H882 H 0.23777 0.39406 0.7515 0.0
O883 O 0.29688 0.44348 0.79031 0.0
O884 O 0.30076 0.41887 0.77523 0.0
O885 O 0.27178 0.403 0.70771 0.0
C886 C 0.30576 0.43407 0.79721 0.0
H887 H 0.33279 0.45001 0.63591 0.0
H888 H 0.24412 0.39562 0.87704 0.0
H889 H 0.25485 0.45235 0.64904 0.0
H890 H 0.23894 0.45 0.77417 0.0
Co891 Co 0.52405 0.9108 0.11624 0.0
C892 C 0.53047 0.88148 0.15309 0.0
C893 C 0.55214 0.90968 0.17088 0.0
C894 C 0.55713 0.8967 0.18492 0.0
N895 N 0.53547 0.90009 0.15084 0.0
N896 N 0.54355 0.87899 0.17343 0.0
H897 H 0.5183 0.87017 0.13745 0.0
H898 H 0.56068 0.92508 0.17298 0.0
C899 C 0.52784 0.94489 0.16344 0.0
O900 O 0.51039 0.94019 0.15245 0.0
N901 N 0.51251 0.92112 0.07994 0.0
C902 C 0.4975 0.91082 0.05527 0.0
C903 C 0.49401 0.92297 0.03281 0.0
C904 C 0.5186 0.93954 0.07017 0.0
N905 N 0.50709 0.94107 0.04259 0.0
C906 C 0.4847 0.88263 0.12977 0.0
C907 C 0.48066 0.89766 0.20131 0.0
C908 C 0.46424 0.88511 0.17945 0.0
C909 C 0.46641 0.87645 0.14487 0.0
C910 C 0.49871 0.90306 0.18541 0.0
N911 N 0.50037 0.89746 0.14746 0.0
H912 H 0.48608 0.87623 0.10242 0.0
H913 H 0.51123 0.91267 0.20257 0.0
H914 H 0.48986 0.89549 0.05223 0.0
H915 H 0.53101 0.95157 0.08342 0.0
O916 O 0.51891 0.8913 0.07637 0.0
O917 O 0.54541 0.91945 0.07905 0.0
O918 O 0.53503 0.9346 0.15228 0.0
C919 C 0.5354 0.90313 0.06065 0.0
H920 H 0.57017 0.90014 0.20077 0.0
H921 H 0.48282 0.9187 0.01054 0.0
H922 H 0.47955 0.90392 0.22936 0.0
H923 H 0.4541 0.8661 0.12786 0.0
Co924 Co 0.09481 0.61441 0.11295 0.0
C925 C 0.12556 0.64985 0.15088 0.0
C926 C 0.09767 0.64387 0.16894 0.0
C927 C 0.11081 0.66167 0.18306 0.0
N928 N 0.10686 0.63618 0.14939 0.0
N929 N 0.12836 0.66553 0.17133 0.0
H930 H 0.13668 0.64932 0.1339 0.0
H931 H 0.08234 0.63774 0.17013 0.0
C932 C 0.06945 0.6002 0.18614 0.0
O933 O 0.08507 0.6061 0.20769 0.0
N934 N 0.0832 0.59328 0.07551 0.0
C935 C 0.0928 0.589 0.048 0.0
C936 C 0.08012 0.57258 0.0282 0.0
C937 C 0.06481 0.57926 0.07248 0.0
N938 N 0.06262 0.56646 0.04376 0.0
C939 C 0.12455 0.60703 0.13917 0.0
C940 C 0.10014 0.57007 0.16498 0.0
C941 C 0.11966 0.57639 0.1621 0.0
C942 C 0.132 0.59521 0.14952 0.0
C943 C 0.09326 0.58212 0.15345 0.0
N944 N 0.10536 0.60048 0.14103 0.0
H945 H 0.13412 0.6209 0.12671 0.0
H946 H 0.07798 0.57603 0.15172 0.0
H947 H 0.10809 0.59693 0.04341 0.0
H948 H 0.05335 0.57819 0.09117 0.0
O949 O 0.11504 0.62819 0.07422 0.0
O950 O 0.0883 0.62942 0.07736 0.0
O951 O 0.0707 0.60231 0.14771 0.0
C952 C 0.10448 0.63465 0.05922 0.0
H953 H 0.10753 0.67142 0.19877 0.0
H954 H 0.08359 0.56522 1.00536 0.0
H955 H 0.09004 0.55543 0.1732 0.0
H956 H 0.14717 0.60049 0.14616 0.0
Co957 Co 0.39598 0.48131 0.11628 0.0
C958 C 0.36182 0.47863 0.15574 0.0
C959 C 0.36701 0.45642 0.17571 0.0
C960 C 0.35002 0.45326 0.19208 0.0
N961 N 0.37476 0.47267 0.1538 0.0
N962 N 0.34673 0.46718 0.17925 0.0
H963 H 0.36263 0.49025 0.13818 0.0
H964 H 0.37258 0.44674 0.17753 0.0
C965 C 0.4107 0.47138 0.19003 0.0
O966 O 0.40522 0.48172 0.21059 0.0
N967 N 0.41646 0.48994 0.07766 0.0
C968 C 0.42183 0.50516 0.05343 0.0
C969 C 0.43744 0.5081 0.03164 0.0
C970 C 0.42884 0.48371 0.0703 0.0
N971 N 0.4419 0.49466 0.04214 0.0
C972 C 0.40472 0.51945 0.14042 0.0
C973 C 0.44216 0.53122 0.16094 0.0
C974 C 0.43655 0.54495 0.15754 0.0
C975 C 0.41741 0.53888 0.1485 0.0
C976 C 0.4292 0.51218 0.15265 0.0
N977 N 0.41067 0.5063 0.14228 0.0
H978 H 0.39071 0.51545 0.12923 0.0
H979 H 0.43477 0.50254 0.1509 0.0
H980 H 0.41524 0.51398 0.05277 0.0
H981 H 0.4285 0.47175 0.08573 0.0
O982 O 0.38176 0.48704 0.07704 0.0
O983 O 0.38067 0.45917 0.08298 0.0
O984 O 0.40829 0.46978 0.15169 0.0
C985 C 0.37532 0.46972 0.06361 0.0
H986 H 0.34016 0.44089 0.20953 0.0
H987 H 0.44542 0.51987 0.01112 0.0
H988 H 0.4569 0.53538 0.16737 0.0
H989 H 0.41268 0.54919 0.14469 0.0
Co990 Co 0.09513 0.48249 0.61178 0.0
C991 C 0.12631 0.47873 0.64971 0.0
C992 C 0.09878 0.45561 0.66626 0.0
C993 C 0.11251 0.45191 0.68119 0.0
N994 N 0.10741 0.47275 0.6475 0.0
N995 N 0.12977 0.46639 0.67039 0.0
H996 H 0.13729 0.49109 0.63418 0.0
H997 H 0.08354 0.44579 0.66669 0.0
C998 C 0.07008 0.47008 0.68531 0.0
O999 O 0.08581 0.47912 0.7068 0.0
N1000 N 0.08356 0.49227 0.57481 0.0
C1001 C 0.09341 0.50629 0.54787 0.0
C1002 C 0.08115 0.51087 0.52912 0.0
C1003 C 0.06536 0.48861 0.57236 0.0
N1004 N 0.06348 0.49992 0.54467 0.0
C1005 C 0.12449 0.52026 0.63705 0.0
C1006 C 0.09893 0.53133 0.66275 0.0
C1007 C 0.11802 0.54534 0.65726 0.0
C1008 C 0.1311 0.53961 0.64576 0.0
C1009 C 0.09295 0.51237 0.65365 0.0
N1010 N 0.10553 0.50686 0.64042 0.0
H1011 H 0.13438 0.51651 0.62399 0.0
H1012 H 0.07777 0.50264 0.65333 0.0
H1013 H 0.10865 0.51321 0.5429 0.0
H1014 H 0.054 0.47844 0.59149 0.0
O1015 O 0.11534 0.48891 0.57277 0.0
O1016 O 0.08836 0.46113 0.57592 0.0
O1017 O 0.07111 0.47023 0.64669 0.0
C1018 C 0.10453 0.47194 0.5577 0.0
H1019 H 0.10995 0.4389 0.69608 0.0
H1020 H 0.08521 0.52168 0.5061 0.0
H1021 H 0.08835 0.53521 0.67116 0.0
H1022 H 0.14594 0.55014 0.64042 0.0
Co1023 Co 0.52435 0.61439 0.61713 0.0
C1024 C 0.53097 0.65085 0.65151 0.0
C1025 C 0.55052 0.6427 0.67573 0.0
C1026 C 0.55544 0.66056 0.69018 0.0
N1027 N 0.53521 0.63666 0.65146 0.0
N1028 N 0.54324 0.66575 0.67466 0.0
H1029 H 0.51986 0.65076 0.63309 0.0
H1030 H 0.55818 0.63512 0.68118 0.0
C1031 C 0.52866 0.5846 0.66564 0.0
O1032 O 0.51143 0.57135 0.65454 0.0
N1033 N 0.5135 0.59234 0.58157 0.0
C1034 C 0.49763 0.58593 0.55876 0.0
C1035 C 0.49516 0.57053 0.53666 0.0
C1036 C 0.52099 0.58128 0.57124 0.0
N1037 N 0.50978 0.56748 0.54463 0.0
C1038 C 0.48528 0.60421 0.62806 0.0
C1039 C 0.47849 0.58279 0.69721 0.0
C1040 C 0.46299 0.58003 0.67332 0.0
C1041 C 0.46652 0.59191 0.64002 0.0
C1042 C 0.49718 0.59539 0.68385 0.0
N1043 N 0.50018 0.60393 0.64687 0.0
H1044 H 0.48756 0.6127 0.60139 0.0
H1045 H 0.50902 0.59731 0.7022 0.0
H1046 H 0.48854 0.59212 0.55704 0.0
H1047 H 0.53438 0.58333 0.58301 0.0
O1048 O 0.51932 0.62827 0.57605 0.0
O1049 O 0.54607 0.62724 0.58061 0.0
O1050 O 0.53531 0.60198 0.65421 0.0
C1051 C 0.53599 0.63316 0.56116 0.0
H1052 H 0.56745 0.66928 0.70967 0.0
H1053 H 0.48321 0.56205 0.51688 0.0
H1054 H 0.47625 0.57443 0.72428 0.0
H1055 H 0.45485 0.59077 0.62181 0.0
Co1056 Co 0.39418 0.91358 0.61397 0.0
C1057 C 0.35928 0.88229 0.65167 0.0
C1058 C 0.36419 0.90989 0.66925 0.0
C1059 C 0.34634 0.89635 0.68235 0.0
N1060 N 0.37255 0.90112 0.65054 0.0
N1061 N 0.34319 0.879 0.67093 0.0
H1062 H 0.36033 0.87142 0.63477 0.0
H1063 H 0.36984 0.92517 0.67014 0.0
C1064 C 0.40772 0.93893 0.68675 0.0
O1065 O 0.40206 0.92324 0.7079 0.0
N1066 N 0.41508 0.9254 0.57623 0.0
C1067 C 0.42085 0.91559 0.55283 0.0
C1068 C 0.43657 0.92831 0.53132 0.0
C1069 C 0.4274 0.94402 0.5688 0.0
N1070 N 0.44071 0.94616 0.54133 0.0
C1071 C 0.40326 0.88504 0.64213 0.0
C1072 C 0.4406 0.91143 0.66192 0.0
C1073 C 0.43533 0.89215 0.65929 0.0
C1074 C 0.41622 0.87872 0.65085 0.0
C1075 C 0.42739 0.91711 0.65285 0.0
N1076 N 0.40897 0.9041 0.64247 0.0
H1077 H 0.38921 0.87473 0.63158 0.0
H1078 H 0.43272 0.93225 0.65032 0.0
H1079 H 0.41442 0.9002 0.55244 0.0
H1080 H 0.42681 0.95567 0.58357 0.0
O1081 O 0.38093 0.89305 0.57549 0.0
O1082 O 0.37865 0.91925 0.5783 0.0
O1083 O 0.40569 0.93783 0.64828 0.0
C1084 C 0.37399 0.90316 0.56028 0.0
H1085 H 0.33598 0.8992 0.69668 0.0
H1086 H 0.44482 0.92466 0.51123 0.0
H1087 H 0.45526 0.92227 0.66812 0.0
H1088 H 0.41172 0.86369 0.6479 0.0
Co1089 Co 0.15113 0.42692 0.23917 0.0
C1090 C 0.14922 0.45867 0.19941 0.0
C1091 C 0.12591 0.43152 0.18142 0.0
C1092 C 0.12287 0.44566 0.16624 0.0
N1093 N 0.1427 0.43966 0.20148 0.0
N1094 N 0.13746 0.46271 0.17801 0.0
H1095 H 0.16142 0.46931 0.21593 0.0
H1096 H 0.11575 0.41636 0.1806 0.0
C1097 C 0.13955 0.4017 0.16583 0.0
O1098 O 0.14958 0.41733 0.14452 0.0
N1099 N 0.1597 0.41492 0.27813 0.0
C1100 C 0.17208 0.42435 0.30829 0.0
C1101 C 0.17678 0.41221 0.32715 0.0
C1102 C 0.15719 0.39709 0.27884 0.0
N1103 N 0.16765 0.39511 0.30844 0.0
C1104 C 0.18965 0.45562 0.21758 0.0
C1105 C 0.20029 0.42977 0.19159 0.0
C1106 C 0.21457 0.4487 0.19832 0.0
C1107 C 0.20902 0.46191 0.21009 0.0
C1108 C 0.18133 0.42407 0.19996 0.0
N1109 N 0.176 0.43681 0.21299 0.0
H1110 H 0.18602 0.46561 0.23054 0.0
H1111 H 0.17135 0.40895 0.19934 0.0
H1112 H 0.17799 0.43931 0.31549 0.0
H1113 H 0.14869 0.38614 0.25702 0.0
O1114 O 0.1572 0.44731 0.27758 0.0
O1115 O 0.12919 0.42071 0.27278 0.0
O1116 O 0.13893 0.40284 0.20434 0.0
C1117 C 0.13992 0.43683 0.29128 0.0
H1118 H 0.11011 0.44352 0.1509 0.0
H1119 H 0.18647 0.41594 0.35241 0.0
H1120 H 0.20385 0.41905 0.18236 0.0
H1121 H 0.21962 0.47663 0.21638 0.0
Co1122 Co 0.58485 0.72657 0.24386 0.0
C1123 C 0.55447 0.69112 0.20523 0.0
C1124 C 0.58253 0.69719 0.18828 0.0
C1125 C 0.56952 0.67951 0.17344 0.0
N1126 N 0.57314 0.70479 0.20746 0.0
N1127 N 0.55185 0.67558 0.18446 0.0
H1128 H 0.54322 0.69158 0.2218 0.0
H1129 H 0.59787 0.70336 0.1876 0.0
C1130 C 0.61022 0.74074 0.17126 0.0
O1131 O 0.59448 0.73461 0.15 0.0
N1132 N 0.596 0.74762 0.28133 0.0
C1133 C 0.58583 0.75329 0.30372 0.0
C1134 C 0.59822 0.76949 0.32442 0.0
C1135 C 0.61449 0.76038 0.28874 0.0
N1136 N 0.61626 0.77401 0.31504 0.0
C1137 C 0.55542 0.73395 0.2136 0.0
C1138 C 0.5806 0.77121 0.19075 0.0
C1139 C 0.56101 0.76482 0.1899 0.0
C1140 C 0.54829 0.74582 0.20111 0.0
C1141 C 0.58707 0.75907 0.20381 0.0
N1142 N 0.57463 0.74057 0.21471 0.0
H1143 H 0.54549 0.71995 0.22497 0.0
H1144 H 0.60227 0.76517 0.20786 0.0
H1145 H 0.57041 0.74654 0.30368 0.0
H1146 H 0.62629 0.75991 0.2745 0.0
O1147 O 0.56439 0.71285 0.28214 0.0
O1148 O 0.59118 0.71166 0.27997 0.0
O1149 O 0.60915 0.73875 0.20974 0.0
C1150 C 0.57491 0.70644 0.29765 0.0
H1151 H 0.57295 0.66991 0.15756 0.0
H1152 H 0.59414 0.77779 0.34328 0.0
H1153 H 0.59104 0.78594 0.18404 0.0
H1154 H 0.53302 0.74038 0.20159 0.0
Co1155 Co 0.28416 0.85887 0.23837 0.0
C1156 C 0.31947 0.8636 0.20093 0.0
C1157 C 0.31557 0.88756 0.18993 0.0
C1158 C 0.33396 0.89256 0.17941 0.0
N1159 N 0.30635 0.86932 0.20327 0.0
N1160 N 0.33636 0.87748 0.18646 0.0
H1161 H 0.31773 0.85066 0.2144 0.0
H1162 H 0.31007 0.89729 0.19192 0.0
C1163 C 0.27204 0.87242 0.16597 0.0
O1164 O 0.27892 0.86365 0.14417 0.0
N1165 N 0.26261 0.84842 0.27481 0.0
C1166 C 0.25844 0.83403 0.3008 0.0
C1167 C 0.24147 0.82902 0.31936 0.0
C1168 C 0.24793 0.85184 0.27758 0.0
N1169 N 0.23467 0.84003 0.3046 0.0
C1170 C 0.27587 0.82151 0.21072 0.0
C1171 C 0.23928 0.81074 0.18519 0.0
C1172 C 0.24426 0.79662 0.19042 0.0
C1173 C 0.26306 0.80222 0.20169 0.0
C1174 C 0.25233 0.82965 0.19462 0.0
N1175 N 0.27036 0.83499 0.20797 0.0
H1176 H 0.28947 0.82511 0.22374 0.0
H1177 H 0.24694 0.83943 0.19532 0.0
H1178 H 0.26684 0.82715 0.30525 0.0
H1179 H 0.24666 0.86217 0.25911 0.0
O1180 O 0.2976 0.85169 0.27668 0.0
O1181 O 0.29867 0.87962 0.27586 0.0
O1182 O 0.27268 0.87181 0.20458 0.0
C1183 C 0.3038 0.8684 0.29311 0.0
H1184 H 0.34518 0.90666 0.1706 0.0
H1185 H 0.23469 0.81788 0.34173 0.0
H1186 H 0.22483 0.80696 0.1769 0.0
H1187 H 0.26731 0.79162 0.2068 0.0
H1188 H 0.35937 0.13848 0.23194 0.0
H1189 H 0.39426 0.19021 0.1639 0.0
H1190 H 0.33141 0.14139 0.21781 0.0
H1191 H 0.36628 0.19228 0.14759 0.0
H1192 H 0.31549 0.20147 0.15561 0.0
H1193 H 0.34361 0.19942 0.17485 0.0
H1194 H 0.31066 0.13783 0.16383 0.0
H1195 H 0.2826 0.14001 0.14606 0.0
C1196 C 0.36116 0.15042 0.21393 0.0
C1197 C 0.37921 0.164 0.19896 0.0
C1198 C 0.34504 0.15198 0.20541 0.0
C1199 C 0.34656 0.16705 0.18141 0.0
C1200 C 0.36458 0.18063 0.16661 0.0
C1201 C 0.38068 0.17921 0.17547 0.0
C1202 C 0.31438 0.18756 0.15729 0.0
C1203 C 0.29693 0.17092 0.14962 0.0
C1204 C 0.33044 0.18633 0.16821 0.0
C1205 C 0.3294 0.16842 0.17103 0.0
C1206 C 0.3119 0.15181 0.1629 0.0
C1207 C 0.29584 0.15305 0.15253 0.0
H1208 H 0.85001 0.12925 0.20967 0.0
H1209 H 0.82094 0.12809 0.09943 0.0
H1210 H 0.85194 0.15934 0.22849 0.0
H1211 H 0.82276 0.15812 0.11839 0.0
H1212 H 0.8131 0.20192 0.18439 0.0
H1213 H 0.81016 0.17114 0.16924 0.0
H1214 H 0.86891 0.19297 0.20486 0.0
H1215 H 0.87191 0.22402 0.21993 0.0
C1216 C 0.84406 0.13543 0.18942 0.0
C1217 C 0.83541 0.12634 0.15293 0.0
C1218 C 0.84519 0.15266 0.2002 0.0
C1219 C 0.83762 0.16112 0.1748 0.0
C1220 C 0.82855 0.15182 0.13877 0.0
C1221 C 0.82746 0.13459 0.12795 0.0
C1222 C 0.82548 0.20027 0.18861 0.0
C1223 C 0.84285 0.21551 0.20279 0.0
C1224 C 0.82375 0.18259 0.18002 0.0
C1225 C 0.83933 0.17971 0.18553 0.0
C1226 C 0.85661 0.19477 0.20063 0.0
C1227 C 0.85834 0.21252 0.20922 0.0
H1228 H 0.79502 0.64999 0.24748 0.0
H1229 H 0.79991 0.61831 0.14755 0.0
H1230 H 0.82522 0.67772 0.2282 0.0
H1231 H 0.83063 0.64534 0.13034 0.0
H1232 H 0.87874 0.70258 0.08812 0.0
H1233 H 0.84685 0.67612 0.10339 0.0
H1234 H 0.85809 0.688 0.23084 0.0
H1235 H 0.88954 0.71495 0.21494 0.0
C1236 C 0.80244 0.64891 0.22136 0.0
C1237 C 0.79509 0.63177 0.19947 0.0
C1238 C 0.81993 0.66474 0.21063 0.0
C1239 C 0.83055 0.66371 0.17805 0.0
C1240 C 0.82286 0.64676 0.15542 0.0
C1241 C 0.8053 0.63109 0.16576 0.0
C1242 C 0.87436 0.69931 0.11931 0.0
C1243 C 0.88648 0.71063 0.15043 0.0
C1244 C 0.85612 0.6842 0.12817 0.0
C1245 C 0.84981 0.67995 0.1684 0.0
C1246 C 0.86223 0.69112 0.19949 0.0
C1247 C 0.88031 0.7064 0.19054 0.0
H1248 H 0.14379 0.35807 0.2869 0.0
H1249 H 0.1967 0.39491 0.3495 0.0
H1250 H 0.14727 0.33061 0.30336 0.0
H1251 H 0.19938 0.36749 0.36831 0.0
H1252 H 0.20795 0.31588 0.36608 0.0
H1253 H 0.20592 0.34384 0.34477 0.0
H1254 H 0.14452 0.31158 0.35982 0.0
H1255 H 0.14669 0.28371 0.37939 0.0
C1256 C 0.15612 0.36037 0.30416 0.0
C1257 C 0.16979 0.37877 0.31722 0.0
C1258 C 0.15801 0.34457 0.31407 0.0
C1259 C 0.17352 0.34679 0.33757 0.0
C1260 C 0.18734 0.36522 0.34991 0.0
C1261 C 0.18558 0.38099 0.33963 0.0
C1262 C 0.19412 0.31496 0.36495 0.0
C1263 C 0.17749 0.29773 0.37395 0.0
C1264 C 0.19289 0.3309 0.35281 0.0
C1265 C 0.175 0.32992 0.35016 0.0
C1266 C 0.15846 0.31273 0.36037 0.0
C1267 C 0.15969 0.2968 0.37188 0.0
H1268 H 0.62083 0.79603 0.38051 0.0
H1269 H 0.65086 0.79106 0.27751 0.0
H1270 H 0.64797 0.82703 0.39594 0.0
H1271 H 0.67867 0.8215 0.29486 0.0
H1272 H 0.71515 0.88595 0.30482 0.0
H1273 H 0.68817 0.85417 0.29149 0.0
H1274 H 0.6794 0.84409 0.4199 0.0
H1275 H 0.70591 0.87629 0.43271 0.0
C1276 C 0.63327 0.80144 0.36128 0.0
C1277 C 0.63342 0.79113 0.32721 0.0
C1278 C 0.64901 0.81917 0.37055 0.0
C1279 C 0.66548 0.82693 0.34641 0.0
C1280 C 0.66604 0.81618 0.31356 0.0
C1281 C 0.65016 0.79853 0.30394 0.0
C1282 C 0.70729 0.8769 0.33002 0.0
C1283 C 0.71243 0.88349 0.3697 0.0
C1284 C 0.69199 0.85864 0.32251 0.0
C1285 C 0.68169 0.84643 0.35461 0.0
C1286 C 0.68681 0.85316 0.39441 0.0
C1287 C 0.70195 0.87159 0.40185 0.0
H1288 H 0.11575 0.80232 0.36056 0.0
H1289 H 0.14586 0.8634 0.3778 0.0
H1290 H 0.14562 0.80386 0.34026 0.0
H1291 H 0.1758 0.86507 0.35942 0.0
H1292 H 0.22276 0.86536 0.28632 0.0
H1293 H 0.19232 0.86268 0.30325 0.0
H1294 H 0.17526 0.80929 0.3645 0.0
H1295 H 0.20485 0.81113 0.34518 0.0
C1296 C 0.12886 0.81599 0.36052 0.0
C1297 C 0.12861 0.83274 0.37029 0.0
C1298 C 0.14596 0.81694 0.34901 0.0
C1299 C 0.16313 0.83464 0.34783 0.0
C1300 C 0.16282 0.85129 0.35886 0.0
C1301 C 0.14572 0.85034 0.36968 0.0
C1302 C 0.21249 0.85291 0.30291 0.0
C1303 C 0.21657 0.83858 0.31449 0.0
C1304 C 0.19505 0.85149 0.3131 0.0
C1305 C 0.18135 0.83582 0.33555 0.0
C1306 C 0.18535 0.82145 0.34682 0.0
C1307 C 0.20262 0.82272 0.33618 0.0
H1308 H 0.69256 0.80614 0.89207 0.0
H1309 H 0.73082 0.86447 0.85548 0.0
H1310 H 0.66523 0.81039 0.87759 0.0
H1311 H 0.70367 0.86864 0.84082 0.0
H1312 H 0.64986 0.85884 0.77118 0.0
H1313 H 0.67773 0.85644 0.79029 0.0
H1314 H 0.64991 0.82869 0.90154 0.0
H1315 H 0.62212 0.83122 0.88259 0.0
C1316 C 0.69513 0.81987 0.88127 0.0
C1317 C 0.71382 0.83485 0.87437 0.0
C1318 C 0.67952 0.82233 0.87302 0.0
C1319 C 0.68236 0.83982 0.85777 0.0
C1320 C 0.70105 0.8549 0.85178 0.0
C1321 C 0.7166 0.85246 0.86007 0.0
C1322 C 0.64983 0.85256 0.80001 0.0
C1323 C 0.63374 0.8451 0.82524 0.0
C1324 C 0.66576 0.85112 0.81092 0.0
C1325 C 0.66589 0.84222 0.84725 0.0
C1326 C 0.65004 0.83529 0.87301 0.0
C1327 C 0.63416 0.83677 0.86217 0.0
H1328 H 0.15352 0.79465 0.7697 0.0
H1329 H 0.18154 0.79451 0.88056 0.0
H1330 H 0.15601 0.82495 0.78907 0.0
H1331 H 0.18415 0.82485 0.89977 0.0
H1332 H 0.20613 0.89004 0.89166 0.0
H1333 H 0.20211 0.85855 0.87675 0.0
H1334 H 0.14386 0.83854 0.83967 0.0
H1335 H 0.14781 0.86974 0.8547 0.0
C1336 C 0.15993 0.80091 0.79845 0.0
C1337 C 0.16744 0.79224 0.82345 0.0
C1338 C 0.16141 0.8183 0.80951 0.0
C1339 C 0.17043 0.82733 0.8458 0.0
C1340 C 0.17747 0.8184 0.87129 0.0
C1341 C 0.17594 0.80102 0.86028 0.0
C1342 C 0.19245 0.87884 0.8807 0.0
C1343 C 0.17741 0.88248 0.87376 0.0
C1344 C 0.19013 0.86083 0.87219 0.0
C1345 C 0.17271 0.84615 0.85666 0.0
C1346 C 0.15756 0.84968 0.85077 0.0
C1347 C 0.15987 0.8676 0.8593 0.0
H1348 H 0.11536 0.30208 0.79733 0.0
H1349 H 0.12807 0.31334 0.9239 0.0
H1350 H 0.14594 0.33017 0.78044 0.0
H1351 H 0.15904 0.34081 0.90762 0.0
H1352 H 0.21204 0.39352 0.87074 0.0
H1353 H 0.17805 0.37157 0.88172 0.0
H1354 H 0.17774 0.33718 0.78126 0.0
H1355 H 0.21147 0.35979 0.76948 0.0
C1356 C 0.12469 0.31081 0.82145 0.0
C1357 C 0.11953 0.30564 0.8618 0.0
C1358 C 0.14225 0.32676 0.8119 0.0
C1359 C 0.15517 0.33761 0.8426 0.0
C1360 C 0.14943 0.33299 0.8831 0.0
C1361 C 0.1317 0.31723 0.89257 0.0
C1362 C 0.20455 0.38132 0.85092 0.0
C1363 C 0.21428 0.37813 0.81958 0.0
C1364 C 0.18512 0.36872 0.8572 0.0
C1365 C 0.17511 0.35245 0.83268 0.0
C1366 C 0.18482 0.34969 0.8004 0.0
C1367 C 0.20417 0.36252 0.79371 0.0
H1368 H 0.87503 0.65078 0.7144 0.0
H1369 H 0.81514 0.61433 0.68731 0.0
H1370 H 0.87226 0.67894 0.69839 0.0
H1371 H 0.81229 0.64214 0.67176 0.0
H1372 H 0.81668 0.69298 0.6076 0.0
H1373 H 0.82232 0.66659 0.62065 0.0
H1374 H 0.85727 0.69678 0.72355 0.0
H1375 H 0.85241 0.72362 0.70934 0.0
C1376 C 0.8613 0.64883 0.70525 0.0
C1377 C 0.84539 0.63039 0.70153 0.0
C1378 C 0.85969 0.66488 0.6961 0.0
C1379 C 0.8421 0.66272 0.68328 0.0
C1380 C 0.82616 0.64427 0.68045 0.0
C1381 C 0.82779 0.62832 0.68941 0.0
C1382 C 0.82581 0.69416 0.63262 0.0
C1383 C 0.83395 0.71038 0.6576 0.0
C1384 C 0.82888 0.67893 0.64037 0.0
C1385 C 0.8401 0.67953 0.67338 0.0
C1386 C 0.84864 0.69593 0.69777 0.0
C1387 C 0.84562 0.7112 0.68994 0.0
H1388 H 0.29494 0.12582 0.71317 0.0
H1389 H 0.30573 0.13624 0.58587 0.0
H1390 H 0.32183 0.15746 0.72802 0.0
H1391 H 0.33204 0.16839 0.60007 0.0
H1392 H 0.39067 0.2151 0.64136 0.0
H1393 H 0.36299 0.18484 0.62443 0.0
H1394 H 0.33277 0.19024 0.72663 0.0
H1395 H 0.36122 0.21987 0.74565 0.0
C1396 C 0.30308 0.13505 0.68842 0.0
C1397 C 0.29849 0.12868 0.64849 0.0
C1398 C 0.31834 0.15325 0.69678 0.0
C1399 C 0.3291 0.16563 0.66527 0.0
C1400 C 0.32433 0.15918 0.62518 0.0
C1401 C 0.3093 0.1408 0.61692 0.0
C1402 C 0.37823 0.20982 0.66056 0.0
C1403 C 0.37844 0.2198 0.69552 0.0
C1404 C 0.36215 0.19252 0.65038 0.0
C1405 C 0.34563 0.18488 0.67436 0.0
C1406 C 0.34541 0.19541 0.708 0.0
C1407 C 0.36166 0.21262 0.71861 0.0
H1408 H 0.79185 0.1445 0.74285 0.0
H1409 H 0.79518 0.17725 0.63702 0.0
H1410 H 0.822 0.14666 0.72431 0.0
H1411 H 0.82588 0.18077 0.62038 0.0
H1412 H 0.8758 0.17374 0.58379 0.0
H1413 H 0.84326 0.1669 0.59733 0.0
H1414 H 0.85452 0.16984 0.72553 0.0
H1415 H 0.88659 0.17562 0.71142 0.0
C1416 C 0.7989 0.15204 0.71552 0.0
C1417 C 0.79121 0.161 0.69187 0.0
C1418 C 0.81637 0.15355 0.70519 0.0
C1419 C 0.82662 0.16423 0.67125 0.0
C1420 C 0.81844 0.17236 0.64661 0.0
C1421 C 0.80089 0.1706 0.65657 0.0
C1422 C 0.87123 0.17307 0.61474 0.0
C1423 C 0.88356 0.17529 0.64663 0.0
C1424 C 0.85263 0.16912 0.62261 0.0
C1425 C 0.84616 0.1677 0.66259 0.0
C1426 C 0.85877 0.17032 0.6944 0.0
C1427 C 0.8772 0.17388 0.68645 0.0
H1428 H 0.98144 0.53624 0.48606 0.0
H1429 H 0.95018 0.47482 0.47484 0.0
H1430 H 0.00982 0.53502 0.50714 0.0
H1431 H 0.97851 0.47345 0.49427 0.0
H1432 H 0.02656 0.47496 0.56614 0.0
H1433 H 0.99846 0.47714 0.54965 0.0
H1434 H 0.03359 0.52899 0.4825 0.0
H1435 H 0.06169 0.52766 0.50109 0.0
C1436 C 0.98078 0.52253 0.48769 0.0
C1437 C 0.96369 0.50564 0.47913 0.0
C1438 C 0.99698 0.52177 0.49966 0.0
C1439 C 0.99645 0.5041 0.50262 0.0
C1440 C 0.97935 0.48726 0.49333 0.0
C1441 C 0.96314 0.48802 0.48196 0.0
C1442 C 0.02842 0.48697 0.5483 0.0
C1443 C 0.04662 0.50103 0.53491 0.0
C1444 C 0.0122 0.48811 0.53841 0.0
C1445 C 0.01372 0.50321 0.51453 0.0
C1446 C 0.03186 0.51729 0.50138 0.0
C1447 C 0.04807 0.5163 0.51164 0.0
H1448 H 0.50272 0.46823 0.42344 0.0
H1449 H 0.50721 0.46035 0.55066 0.0
H1450 H 0.50696 0.49988 0.4365 0.0
H1451 H 0.51045 0.49148 0.56445 0.0
H1452 H 0.531 0.55348 0.57843 0.0
H1453 H 0.53109 0.5245 0.55953 0.0
H1454 H 0.4915 0.51527 0.4627 0.0
H1455 H 0.49268 0.54497 0.47941 0.0
C1456 C 0.50428 0.47322 0.45427 0.0
C1457 C 0.50458 0.46197 0.48612 0.0
C1458 C 0.50672 0.49132 0.46185 0.0
C1459 C 0.50913 0.49834 0.50157 0.0
C1460 C 0.50913 0.48682 0.53341 0.0
C1461 C 0.50707 0.46891 0.52568 0.0
C1462 C 0.52269 0.54557 0.55248 0.0
C1463 C 0.5116 0.55152 0.53089 0.0
C1464 C 0.52249 0.52872 0.54201 0.0
C1465 C 0.511 0.51728 0.51005 0.0
C1466 C 0.5006 0.52369 0.48738 0.0
C1467 C 0.50105 0.54067 0.49742 0.0
H1468 H 0.45917 0.95203 0.47027 0.0
H1469 H 0.45979 0.97962 0.58234 0.0
H1470 H 0.48922 0.97997 0.45075 0.0
H1471 H 0.48978 0.00773 0.56249 0.0
H1472 H 0.53427 0.06085 0.49498 0.0
H1473 H 0.50315 0.03371 0.5109 0.0
H1474 H 0.52301 0.99518 0.47514 0.0
H1475 H 0.55444 0.02246 0.4597 0.0
C1476 C 0.4657 0.96408 0.49071 0.0
C1477 C 0.45721 0.96353 0.52806 0.0
C1478 C 0.4829 0.98005 0.47952 0.0
C1479 C 0.49191 0.9959 0.50529 0.0
C1480 C 0.48306 0.99572 0.54193 0.0
C1481 C 0.46586 0.97967 0.55323 0.0
C1482 C 0.53215 0.04663 0.49091 0.0
C1483 C 0.54697 0.04383 0.47655 0.0
C1484 C 0.51426 0.03108 0.49991 0.0
C1485 C 0.51071 0.01237 0.49446 0.0
C1486 C 0.52533 0.0095 0.47927 0.0
C1487 C 0.54331 0.02509 0.47043 0.0
H1488 H 0.53717 0.9775 0.04348 0.0
H1489 H 0.47735 0.94367 0.01197 0.0
H1490 H 0.53667 0.00646 0.02449 0.0
H1491 H 0.47703 0.97242 0.99263 0.0
H1492 H 0.48869 0.02687 0.92622 0.0
H1493 H 0.4903 0.99816 0.94151 0.0
H1494 H 0.52145 0.02453 0.05088 0.0
H1495 H 0.51967 0.05311 0.03591 0.0
C1496 C 0.52395 0.97618 0.03249 0.0
C1497 C 0.50733 0.95817 0.0292 0.0
C1498 C 0.52368 0.99276 0.0216 0.0
C1499 C 0.50681 0.99166 1.00705 0.0
C1500 C 0.49032 0.97369 1.00312 0.0
C1501 C 0.49055 0.95717 0.01416 0.0
C1502 C 0.49568 0.02647 0.95373 0.0
C1503 C 0.50406 0.0423 0.97982 0.0
C1504 C 0.49669 0.01007 0.96238 0.0
C1505 C 0.50613 0.00919 0.99724 0.0
C1506 C 0.51442 0.02496 0.02339 0.0
C1507 C 0.51335 0.0413 0.01483 0.0
H1508 H 0.98319 0.45766 0.93734 0.0
H1509 H 0.95081 0.46558 0.03159 0.0
H1510 H 0.01142 0.48724 0.95743 0.0
H1511 H 0.97847 0.49573 0.04945 0.0
H1512 H 0.03599 0.5419 0.09565 0.0
H1513 H 0.00865 0.51066 0.07952 0.0
H1514 H 0.02369 0.52044 0.95308 0.0
H1515 H 0.05144 0.55121 0.96992 0.0
C1516 C 0.98203 0.46561 0.96235 0.0
C1517 C 0.96456 0.45924 0.98244 0.0
C1518 C 0.99819 0.48277 0.97352 0.0
C1519 C 0.9972 0.49406 1.00474 0.0
C1520 C 0.97987 0.48741 0.02549 0.0
C1521 C 0.96384 0.47016 0.01473 0.0
C1522 C 0.03325 0.53734 0.06446 0.0
C1523 C 0.04569 0.54885 0.03396 0.0
C1524 C 0.01763 0.51947 0.05512 0.0
C1525 C 0.01397 0.51293 0.01495 0.0
C1526 C 0.02629 0.52475 0.98442 0.0
C1527 C 0.04207 0.54244 0.99391 0.0
H1528 H 0.45982 0.47827 0.08085 0.0
H1529 H 0.46194 0.50947 0.97326 0.0
H1530 H 0.48998 0.48055 0.06201 0.0
H1531 H 0.49266 0.5131 0.9562 0.0
H1532 H 0.54271 0.5061 0.91997 0.0
H1533 H 0.51014 0.49903 0.93393 0.0
H1534 H 0.5224 0.50424 0.06184 0.0
H1535 H 0.55454 0.51034 0.04745 0.0
C1536 C 0.4666 0.4855 0.05308 0.0
C1537 C 0.45856 0.49399 0.02901 0.0
C1538 C 0.48407 0.48707 0.04255 0.0
C1539 C 0.49399 0.49735 1.00797 0.0
C1540 C 0.48547 0.50501 0.98295 0.0
C1541 C 0.46791 0.50319 0.99313 0.0
C1542 C 0.53836 0.50585 0.95095 0.0
C1543 C 0.55101 0.50881 0.98269 0.0
C1544 C 0.51973 0.50178 0.95905 0.0
C1545 C 0.51354 0.50094 0.99908 0.0
C1546 C 0.52644 0.50426 0.03072 0.0
C1547 C 0.54491 0.50798 0.02258 0.0
H1548 H 0.20334 0.10115 0.07328 0.0
H1549 H 0.23023 0.11269 0.95633 0.0
H1550 H 0.19727 0.06826 0.06993 0.0
H1551 H 0.22411 0.07984 0.95284 0.0
H1552 H 0.19741 0.01484 0.94825 0.0
H1553 H 0.19756 0.04516 0.95034 0.0
H1554 H 0.22005 0.05491 0.07151 0.0
H1555 H 0.21983 0.02446 0.06942 0.0
C1556 C 0.20746 0.09648 0.0464 0.0
C1557 C 0.21718 0.10942 0.01497 0.0
C1558 C 0.2042 0.07775 0.04469 0.0
C1559 C 0.21033 0.07153 0.01126 0.0
C1560 C 0.21912 0.08418 0.97888 0.0
C1561 C 0.22264 0.10298 0.98087 0.0
C1562 C 0.20208 0.02329 0.97558 0.0
C1563 C 0.20855 0.01724 1.0088 0.0
C1564 C 0.2023 0.04072 0.97663 0.0
C1565 C 0.20877 0.05238 0.0111 0.0
C1566 C 0.21479 0.04612 0.04469 0.0
C1567 C 0.21482 0.0288 0.04342 0.0
H1568 H 0.89784 0.12172 0.95653 0.0
H1569 H 0.90997 0.10256 0.06839 0.0
H1570 H 0.93111 0.14749 0.95272 0.0
H1571 H 0.94328 0.12824 0.06447 0.0
H1572 H 0.98907 0.19362 0.07054 0.0
H1573 H 0.95824 0.16394 0.07144 0.0
H1574 H 0.96515 0.15478 0.94577 0.0
H1575 H 0.99589 0.18454 0.94486 0.0
C1576 C 0.90772 0.12281 0.97988 0.0
C1577 C 0.90131 0.11013 0.01274 0.0
C1578 C 0.92678 0.1375 0.97763 0.0
C1579 C 0.93977 0.13996 1.00845 0.0
C1580 C 0.93354 0.12679 0.04046 0.0
C1581 C 0.91454 0.11197 0.04246 0.0
C1582 C 0.98405 0.18515 0.04327 0.0
C1583 C 0.9949 0.1914 1.00771 0.0
C1584 C 0.96649 0.1681 0.04382 0.0
C1585 C 0.95928 0.15702 1.00866 0.0
C1586 C 0.97031 0.16306 0.97328 0.0
C1587 C 0.98799 0.18 0.97287 0.0
H1588 H 0.87458 0.76168 0.06107 0.0
H1589 H 0.91119 0.8132 0.99433 0.0
H1590 H 0.84888 0.76875 0.05792 0.0
H1591 H 0.88543 0.82093 0.99297 0.0
H1592 H 0.80922 0.79087 0.07649 0.0
H1593 H 0.83831 0.78904 0.08351 0.0
H1594 H 0.85464 0.81032 0.96195 0.0
H1595 H 0.82577 0.81269 0.9557 0.0
C1596 C 0.87716 0.77458 0.04562 0.0
C1597 C 0.89488 0.78668 0.02722 0.0
C1598 C 0.86245 0.77883 0.04447 0.0
C1599 C 0.86502 0.79548 0.02537 0.0
C1600 C 0.88288 0.80788 1.00762 0.0
C1601 C 0.89769 0.80355 1.00866 0.0
C1602 C 0.81915 0.79532 0.05149 0.0
C1603 C 0.81517 0.80179 0.01553 0.0
C1604 C 0.83579 0.79421 0.05536 0.0
C1605 C 0.84874 0.79924 0.02305 0.0
C1606 C 0.84513 0.80649 0.98759 0.0
C1607 C 0.82855 0.80782 0.98394 0.0
H1608 H 0.00818 0.18201 0.50827 0.0
H1609 H 0.03657 0.24362 0.51386 0.0
H1610 H 0.03938 0.18381 0.50321 0.0
H1611 H 0.06733 0.24542 0.5092 0.0
H1612 H 0.11758 0.24544 0.45465 0.0
H1613 H 0.08525 0.24008 0.45813 0.0
H1614 H 0.06967 0.19305 0.54038 0.0
H1615 H 0.10237 0.19829 0.53602 0.0
C1616 C 0.02105 0.19589 0.50857 0.0
C1617 C 0.01986 0.21268 0.51065 0.0
C1618 C 0.03889 0.19693 0.50579 0.0
C1619 C 0.05585 0.21477 0.50512 0.0
C1620 C 0.05457 0.23145 0.50842 0.0
C1621 C 0.03687 0.23042 0.51102 0.0
C1622 C 0.10726 0.23394 0.4735 0.0
C1623 C 0.11256 0.22253 0.49575 0.0
C1624 C 0.08872 0.23088 0.47558 0.0
C1625 C 0.07495 0.21641 0.50024 0.0
C1626 C 0.07996 0.20434 0.52114 0.0
C1627 C 0.09864 0.20735 0.51879 0.0
H1628 H 0.76589 0.87205 0.45684 0.0
H1629 H 0.81648 0.90987 0.52499 0.0
H1630 H 0.7741 0.847 0.46087 0.0
H1631 H 0.82505 0.88469 0.52823 0.0
H1632 H 0.81652 0.82465 0.56693 0.0
H1633 H 0.81308 0.85288 0.56042 0.0
H1634 H 0.79754 0.83911 0.43523 0.0
H1635 H 0.80098 0.81091 0.44176 0.0
C1636 C 0.77878 0.875 0.47284 0.0
C1637 C 0.79041 0.89288 0.49108 0.0
C1638 C 0.78364 0.8607 0.47464 0.0
C1639 C 0.80029 0.86385 0.49468 0.0
C1640 C 0.81207 0.88179 0.51274 0.0
C1641 C 0.80723 0.89622 0.51071 0.0
C1642 C 0.81278 0.82785 0.53779 0.0
C1643 C 0.80883 0.81538 0.50493 0.0
C1644 C 0.81079 0.84405 0.53408 0.0
C1645 C 0.8048 0.84812 0.49745 0.0
C1646 C 0.80179 0.83617 0.46411 0.0
C1647 C 0.80376 0.82 0.46782 0.0
H1648 H 0.1356 0.89518 0.44692 0.0
H1649 H 0.10466 0.90848 0.53497 0.0
H1650 H 0.16257 0.9275 0.45203 0.0
H1651 H 0.13209 0.94116 0.54079 0.0
H1652 H 0.1823 1.00328 0.5124 0.0
H1653 H 0.15286 0.97232 0.50515 0.0
H1654 H 0.18625 0.94404 0.50413 0.0
H1655 H 0.2153 0.97458 0.51134 0.0
C1656 C 0.13461 0.9051 0.46744 0.0
C1657 C 0.11821 0.89925 0.49115 0.0
C1658 C 0.15009 0.92361 0.47047 0.0
C1659 C 0.14967 0.93681 0.49747 0.0
C1660 C 0.13285 0.93131 0.51974 0.0
C1661 C 0.11719 0.91265 0.51651 0.0
C1662 C 0.18329 0.99042 0.51078 0.0
C1663 C 0.20124 0.9915 0.51182 0.0
C1664 C 0.16644 0.9727 0.50668 0.0
C1665 C 0.16722 0.95573 0.50347 0.0
C1666 C 0.18513 0.95686 0.50543 0.0
C1667 C 0.20187 0.97444 0.50948 0.0
H1668 H 0.8129 0.90842 0.03291 0.0
H1669 H 0.76879 0.89503 0.94447 0.0
H1670 H 0.81794 0.94102 0.03888 0.0
H1671 H 0.77394 0.92731 0.94965 0.0
H1672 H 0.76757 0.9738 0.01031 0.0
H1673 H 0.76643 0.94345 1.00206 0.0
H1674 H 0.8281 0.97221 1.00383 0.0
H1675 H 0.82927 1.00295 0.01212 0.0
C1676 C 0.80457 0.91259 0.0143 0.0
C1677 C 0.79025 0.8992 0.98878 0.0
C1678 C 0.80743 0.93119 0.01764 0.0
C1679 C 0.79605 0.93662 0.99534 0.0
C1680 C 0.78258 0.92345 0.96808 0.0
C1681 C 0.77968 0.90499 0.96496 0.0
C1682 C 0.78094 0.97381 1.00842 0.0
C1683 C 0.79852 0.99092 0.01133 0.0
C1684 C 0.78028 0.95633 1.00374 0.0
C1685 C 0.79719 0.95541 1.00172 0.0
C1686 C 0.81483 0.97244 1.00542 0.0
C1687 C 0.81549 0.99003 0.01013 0.0
H1688 H 0.11688 0.87587 0.94615 0.0
H1689 H 0.10295 0.90767 0.03073 0.0
H1690 H 0.08443 0.84909 0.95032 0.0
H1691 H 0.07015 0.88041 0.03579 0.0
H1692 H 0.00815 0.82998 1.00585 0.0
H1693 H 0.03927 0.85944 0.99955 0.0
H1694 H 0.06737 0.82587 1.00243 0.0
H1695 H 0.03672 0.79689 1.00842 0.0
C1696 C 0.1068 0.87708 0.96573 0.0
C1697 C 0.11249 0.89366 0.98873 0.0
C1698 C 0.08821 0.86172 0.96823 0.0
C1699 C 0.0748 0.86242 0.99409 0.0
C1700 C 0.08017 0.87942 0.01563 0.0
C1701 C 0.0989 0.89497 0.01286 0.0
C1702 C 0.02104 0.82901 1.00521 0.0
C1703 C 0.01992 0.81105 1.00677 0.0
C1704 C 0.03883 0.84584 1.0017 0.0
C1705 C 0.05578 0.84498 0.99975 0.0
C1706 C 0.05458 0.82704 1.00261 0.0
C1707 C 0.03695 0.81036 1.00596 0.0
H1708 H 0.18256 0.18414 0.01198 0.0
H1709 H 0.21693 0.24565 0.01922 0.0
H1710 H 0.15384 0.18688 1.00334 0.0
H1711 H 0.18861 0.24835 0.01067 0.0
H1712 H 0.13997 0.24919 0.94799 0.0
H1713 H 0.16653 0.24344 0.95628 0.0
H1714 H 0.13281 0.19703 0.03825 0.0
H1715 H 0.10589 0.20279 0.02959 0.0
C1716 C 0.18399 0.1982 0.01194 0.0
C1717 C 0.20212 0.21467 0.01558 0.0
C1718 C 0.16756 0.19977 1.00706 0.0
C1719 C 0.16897 0.21785 1.0057 0.0
C1720 C 0.18704 0.23422 0.01048 0.0
C1721 C 0.20335 0.23266 0.0153 0.0
C1722 C 0.1382 0.23781 0.96798 0.0
C1723 C 0.12095 0.2267 0.9888 0.0
C1724 C 0.15345 0.2345 0.97273 0.0
C1725 C 0.15194 0.22 0.99851 0.0
C1726 C 0.13442 0.20831 0.01813 0.0
C1727 C 0.11904 0.21161 0.01326 0.0
H1728 H 0.9155 0.81472 0.56967 0.0
H1729 H 0.8945 0.77375 0.472 0.0
H1730 H 0.94748 0.81945 0.55985 0.0
H1731 H 0.92686 0.77933 0.46111 0.0
H1732 H 0.99381 0.80914 0.44109 0.0
H1733 H 0.96296 0.80819 0.44448 0.0
H1734 H 0.95834 0.7932 0.57049 0.0
H1735 H 0.98893 0.79375 0.56678 0.0
C1736 C 0.9177 0.80688 0.54579 0.0
C1737 C 0.90226 0.79352 0.5222 0.0
C1738 C 0.93605 0.80969 0.54011 0.0
C1739 C 0.93953 0.79958 0.5101 0.0
C1740 C 0.92451 0.78731 0.48445 0.0
C1741 C 0.90601 0.78422 0.49058 0.0
C1742 C 0.98624 0.80583 0.46953 0.0
C1743 C 0.99371 0.8016 0.5038 0.0
C1744 C 0.9686 0.80517 0.47138 0.0
C1745 C 0.95838 0.80072 0.50777 0.0
C1746 C 0.96604 0.79683 0.54216 0.0
C1747 C 0.98343 0.79706 0.54006 0.0
H1748 H 0.22972 0.12001 0.4583 0.0
H1749 H 0.20474 0.10621 0.57718 0.0
H1750 H 0.22328 0.14653 0.45417 0.0
H1751 H 0.19843 0.13286 0.57323 0.0
H1752 H 0.2217 0.1995 0.56858 0.0
H1753 H 0.22179 0.16923 0.57174 0.0
H1754 H 0.19602 0.1542 0.45357 0.0
H1755 H 0.1959 0.18442 0.45052 0.0
C1756 C 0.22249 0.12243 0.48316 0.0
C1757 C 0.21766 0.11104 0.51798 0.0
C1758 C 0.21878 0.13757 0.4808 0.0
C1759 C 0.21047 0.14182 0.5135 0.0
C1760 C 0.20496 0.12997 0.54771 0.0
C1761 C 0.20839 0.11462 0.54979 0.0
C1762 C 0.21592 0.18962 0.54351 0.0
C1763 C 0.20876 0.19428 0.50942 0.0
C1764 C 0.21583 0.17227 0.5454 0.0
C1765 C 0.20886 0.15935 0.51292 0.0
C1766 C 0.20148 0.1639 0.47901 0.0
C1767 C 0.20129 0.18112 0.47741 0.0
H1768 H 0.91264 0.10078 0.49389 0.0
H1769 H 0.87499 0.11505 0.55838 0.0
H1770 H 0.88729 0.06708 0.49273 0.0
H1771 H 0.84974 0.08205 0.5556 0.0
H1772 H 0.81104 0.0204 0.57561 0.0
H1773 H 0.84002 0.05142 0.58253 0.0
H1774 H 0.85645 0.04645 0.46108 0.0
H1775 H 0.82766 0.0151 0.4549 0.0
C1776 C 0.899 0.09674 0.50777 0.0
C1777 C 0.89576 0.11066 0.52564 0.0
C1778 C 0.88445 0.07749 0.50687 0.0
C1779 C 0.86645 0.07179 0.52416 0.0
C1780 C 0.86345 0.08575 0.54254 0.0
C1781 C 0.87789 0.10482 0.54349 0.0
C1782 C 0.82099 0.02588 0.55065 0.0
C1783 C 0.81704 0.01543 0.51468 0.0
C1784 C 0.83756 0.04368 0.55446 0.0
C1785 C 0.85045 0.05163 0.52209 0.0
C1786 C 0.84694 0.04073 0.48673 0.0
C1787 C 0.83043 0.02277 0.48313 0.0
H1788 H 0.8609 0.34657 0.28026 0.0
H1789 H 0.88345 0.35608 0.4013 0.0
H1790 H 0.86158 0.37716 0.28217 0.0
H1791 H 0.88424 0.38678 0.40321 0.0
H1792 H 0.86859 0.43365 0.4049 0.0
H1793 H 0.86195 0.40061 0.40163 0.0
H1794 H 0.88862 0.41166 0.2844 0.0
H1795 H 0.89525 0.44469 0.2877 0.0
C1796 C 0.86569 0.35504 0.30754 0.0
C1797 C 0.87206 0.34891 0.34076 0.0
C1798 C 0.86623 0.37262 0.30848 0.0
C1799 C 0.87293 0.38433 0.34284 0.0
C1800 C 0.87881 0.37796 0.37647 0.0
C1801 C 0.87851 0.3605 0.37531 0.0
C1802 C 0.87258 0.42887 0.37801 0.0
C1803 C 0.88239 0.4417 0.34648 0.0
C1804 C 0.86897 0.41004 0.37635 0.0
C1805 C 0.87488 0.40361 0.3429 0.0
C1806 C 0.8838 0.41618 0.31046 0.0
C1807 C 0.88764 0.43507 0.31236 0.0
H1808 H 0.58055 0.43999 0.39858 0.0
H1809 H 0.56223 0.45731 0.29233 0.0
H1810 H 0.61278 0.46747 0.3906 0.0
H1811 H 0.59432 0.48466 0.28431 0.0
H1812 H 0.64085 0.54433 0.32292 0.0
H1813 H 0.61111 0.51402 0.3252 0.0
H1814 H 0.64247 0.48456 0.34758 0.0
H1815 H 0.67252 0.51527 0.34605 0.0
C1816 C 0.58356 0.44933 0.37285 0.0
C1817 C 0.56882 0.44663 0.34634 0.0
C1818 C 0.60199 0.4651 0.36836 0.0
C1819 C 0.60598 0.47845 0.3373 0.0
C1820 C 0.59158 0.47489 0.30911 0.0
C1821 C 0.57323 0.45918 0.31357 0.0
C1822 C 0.64148 0.53148 0.32877 0.0
C1823 C 0.6591 0.53227 0.33456 0.0
C1824 C 0.62441 0.51402 0.32948 0.0
C1825 C 0.62442 0.49684 0.33613 0.0
C1826 C 0.642 0.49756 0.34239 0.0
C1827 C 0.65918 0.5151 0.34132 0.0
H1828 H 0.54116 0.09564 0.39314 0.0
H1829 H 0.57856 0.14735 0.32785 0.0
H1830 H 0.51596 0.10351 0.39117 0.0
H1831 H 0.55326 0.1558 0.32729 0.0
H1832 H 0.49346 0.14767 0.28965 0.0
H1833 H 0.52222 0.14512 0.29578 0.0
H1834 H 0.50639 0.1247 0.41797 0.0
H1835 H 0.47744 0.12683 0.41127 0.0
C1836 C 0.54401 0.10875 0.37829 0.0
C1837 C 0.56177 0.12069 0.35992 0.0
C1838 C 0.52961 0.11345 0.37777 0.0
C1839 C 0.53255 0.13035 0.35923 0.0
C1840 C 0.55047 0.14258 0.34154 0.0
C1841 C 0.56499 0.13784 0.34207 0.0
C1842 C 0.49634 0.14299 0.31805 0.0
C1843 C 0.48312 0.13726 0.34991 0.0
C1844 C 0.51285 0.14156 0.32161 0.0
C1845 C 0.51653 0.13447 0.35719 0.0
C1846 C 0.50379 0.12978 0.38978 0.0
C1847 C 0.48723 0.13104 0.38606 0.0
H1848 H 0.76696 0.52711 0.84927 0.0
H1849 H 0.78303 0.5807 0.79 0.0
H1850 H 0.73366 0.51991 0.85131 0.0
H1851 H 0.75044 0.57411 0.79394 0.0
H1852 H 0.689 0.55357 0.77527 0.0
H1853 H 0.71968 0.55502 0.76686 0.0
H1854 H 0.71359 0.52992 0.88491 0.0
H1855 H 0.68256 0.52793 0.89243 0.0
C1856 C 0.76341 0.53733 0.83673 0.0
C1857 C 0.77774 0.5546 0.82004 0.0
C1858 C 0.74437 0.5333 0.83818 0.0
C1859 C 0.73928 0.54641 0.82274 0.0
C1860 C 0.75364 0.56349 0.80556 0.0
C1861 C 0.77251 0.56745 0.80398 0.0
C1862 C 0.69417 0.54818 0.79913 0.0
C1863 C 0.68347 0.54076 0.83452 0.0
C1864 C 0.71179 0.54908 0.7945 0.0
C1865 C 0.71933 0.54289 0.8255 0.0
C1866 C 0.7082 0.53467 0.86025 0.0
C1867 C 0.69042 0.53355 0.86463 0.0
H1868 H 0.43304 0.20618 0.7853 0.0
H1869 H 0.47733 0.23809 0.87278 0.0
H1870 H 0.43848 0.17933 0.792 0.0
H1871 H 0.48276 0.21082 0.87991 0.0
H1872 H 0.49501 0.16054 0.85109 0.0
H1873 H 0.49326 0.18988 0.84376 0.0
H1874 H 0.43164 0.15629 0.84622 0.0
H1875 H 0.43335 0.12735 0.85364 0.0
C1876 C 0.44395 0.20741 0.8061 0.0
C1877 C 0.45448 0.22406 0.8292 0.0
C1878 C 0.44706 0.19201 0.80997 0.0
C1879 C 0.46077 0.19278 0.83712 0.0
C1880 C 0.47207 0.20981 0.85879 0.0
C1881 C 0.46896 0.22537 0.85479 0.0
C1882 C 0.48112 0.15949 0.85031 0.0
C1883 C 0.46432 0.14152 0.85226 0.0
C1884 C 0.48013 0.17628 0.84616 0.0
C1885 C 0.46231 0.17538 0.84379 0.0
C1886 C 0.4456 0.15746 0.84689 0.0
C1887 C 0.44658 0.1408 0.85103 0.0
H1888 H 0.84826 0.33454 0.83994 0.0
H1889 H 0.87893 0.30432 0.86135 0.0
H1890 H 0.81808 0.30399 0.83864 0.0
H1891 H 0.84914 0.27408 0.85912 0.0
H1892 H 0.79298 0.22395 0.89192 0.0
H1893 H 0.82012 0.25619 0.89969 0.0
H1894 H 0.80138 0.27461 0.79569 0.0
H1895 H 0.77414 0.24226 0.78794 0.0
C1896 C 0.84856 0.32142 0.84435 0.0
C1897 C 0.86603 0.3219 0.85055 0.0
C1898 C 0.83132 0.30394 0.84339 0.0
C1899 C 0.83119 0.28661 0.84911 0.0
C1900 C 0.84867 0.28716 0.85525 0.0
C1901 C 0.86584 0.30453 0.85592 0.0
C1902 C 0.79451 0.23494 0.87103 0.0
C1903 C 0.78153 0.23049 0.83906 0.0
C1904 C 0.81009 0.25339 0.87538 0.0
C1905 C 0.81311 0.26787 0.84785 0.0
C1906 C 0.79944 0.26378 0.81745 0.0
C1907 C 0.7838 0.24526 0.81309 0.0
H1908 H 0.49793 0.33682 0.34841 0.0
H1909 H 0.43633 0.30889 0.35227 0.0
H1910 H 0.49577 0.30557 0.33963 0.0
H1911 H 0.4342 0.27812 0.34359 0.0
H1912 H 0.43429 0.22964 0.28037 0.0
H1913 H 0.44045 0.26214 0.2881 0.0
H1914 H 0.48502 0.27376 0.37445 0.0
H1915 H 0.47892 0.24088 0.36613 0.0
C1916 C 0.48398 0.32405 0.34759 0.0
C1917 C 0.4673 0.3254 0.3502 0.0
C1918 C 0.48275 0.30619 0.34263 0.0
C1919 C 0.46481 0.28942 0.34018 0.0
C1920 C 0.44823 0.29081 0.34418 0.0
C1921 C 0.44946 0.30851 0.34907 0.0
C1922 C 0.44544 0.23912 0.30099 0.0
C1923 C 0.45586 0.23264 0.32332 0.0
C1924 C 0.44896 0.25774 0.30546 0.0
C1925 C 0.46294 0.27041 0.33255 0.0
C1926 C 0.47413 0.2643 0.3534 0.0
C1927 C 0.47063 0.24553 0.34874 0.0
H1928 H 0.76675 0.23837 0.36222 0.0
H1929 H 0.78086 0.20686 0.27725 0.0
H1930 H 0.73422 0.21076 0.3683 0.0
H1931 H 0.74867 0.17969 0.28257 0.0
H1932 H 0.70186 0.12733 0.3431 0.0
H1933 H 0.73221 0.15655 0.33553 0.0
H1934 H 0.70326 0.18929 0.33264 0.0
H1935 H 0.67248 0.15967 0.34033 0.0
C1936 C 0.76278 0.22567 0.34447 0.0
C1937 C 0.77637 0.22456 0.31993 0.0
C1938 C 0.74421 0.2099 0.34784 0.0
C1939 C 0.73899 0.19288 0.32653 0.0
C1940 C 0.75236 0.19234 0.30029 0.0
C1941 C 0.77079 0.20793 0.29713 0.0
C1942 C 0.70182 0.14066 0.34031 0.0
C1943 C 0.68463 0.14106 0.34163 0.0
C1944 C 0.71929 0.15748 0.33604 0.0
C1945 C 0.72017 0.17526 0.33283 0.0
C1946 C 0.70307 0.17583 0.33511 0.0
C1947 C 0.68546 0.15887 0.33945 0.0
H1948 H 0.87162 0.55615 0.28284 0.0
H1949 H 0.852 0.52843 0.39812 0.0
H1950 H 0.84251 0.55791 0.27569 0.0
H1951 H 0.82302 0.53058 0.39166 0.0
H1952 H 0.76653 0.52747 0.35549 0.0
H1953 H 0.79297 0.52069 0.35692 0.0
H1954 H 0.83043 0.57631 0.30531 0.0
H1955 H 0.80418 0.58258 0.30219 0.0
C1956 C 0.86106 0.55044 0.30665 0.0
C1957 C 0.86418 0.5423 0.34111 0.0
C1958 C 0.84437 0.55147 0.30268 0.0
C1959 C 0.83046 0.54462 0.33336 0.0
C1960 C 0.83329 0.53583 0.36724 0.0
C1961 C 0.84994 0.53463 0.37101 0.0
C1962 C 0.7804 0.53811 0.34417 0.0
C1963 C 0.78329 0.55569 0.3294 0.0
C1964 C 0.79558 0.53431 0.34524 0.0
C1965 C 0.81389 0.54794 0.33119 0.0
C1966 C 0.81655 0.56532 0.31585 0.0
C1967 C 0.8015 0.56907 0.31473 0.0
H1968 H 0.57621 0.13871 0.90472 0.0
H1969 H 0.56393 0.11144 0.78801 0.0
H1970 H 0.60915 0.14512 0.90015 0.0
H1971 H 0.59685 0.11787 0.78335 0.0
H1972 H 0.66194 0.14526 0.77694 0.0
H1973 H 0.63145 0.14473 0.77987 0.0
H1974 H 0.62268 0.12252 0.90116 0.0
H1975 H 0.65328 0.12313 0.89822 0.0
C1976 C 0.58071 0.13455 0.87764 0.0
C1977 C 0.56755 0.12463 0.84665 0.0
C1978 C 0.59948 0.13802 0.87523 0.0
C1979 C 0.60552 0.13188 0.84154 0.0
C1980 C 0.59264 0.12288 0.80959 0.0
C1981 C 0.57381 0.11916 0.81226 0.0
C1982 C 0.65366 0.14056 0.80445 0.0
C1983 C 0.66 0.13427 0.83745 0.0
C1984 C 0.63614 0.14012 0.80599 0.0
C1985 C 0.62471 0.13363 0.84075 0.0
C1986 C 0.63128 0.12779 0.87412 0.0
C1987 C 0.64868 0.12797 0.87236 0.0
H1988 H 0.8606 0.51527 0.78746 0.0
H1989 H 0.88537 0.53214 0.9061 0.0
H1990 H 0.86253 0.48609 0.79225 0.0
H1991 H 0.88697 0.50285 0.91142 0.0
H1992 H 0.91375 0.46656 0.88177 0.0
H1993 H 0.90681 0.49241 0.88061 0.0
H1994 H 0.85212 0.45512 0.82502 0.0
H1995 H 0.85954 0.42907 0.82479 0.0
C1996 C 0.86603 0.51252 0.81497 0.0
C1997 C 0.87302 0.52609 0.84631 0.0
C1998 C 0.86712 0.49577 0.81774 0.0
C1999 C 0.87515 0.49222 0.85199 0.0
C2000 C 0.88113 0.50533 0.88418 0.0
C2001 C 0.88018 0.52209 0.88126 0.0
C2002 C 0.90031 0.46384 0.86881 0.0
C2003 C 0.88736 0.44582 0.85261 0.0
C2004 C 0.89617 0.47864 0.86879 0.0
C2005 C 0.87884 0.47588 0.85296 0.0
C2006 C 0.86567 0.45777 0.83721 0.0
C2007 C 0.86984 0.44282 0.83727 0.0
H2008 H 0.49398 0.3477 0.79284 0.0
H2009 H 0.47635 0.35381 0.91205 0.0
H2010 H 0.52264 0.37914 0.79894 0.0
H2011 H 0.50509 0.38503 0.91862 0.0
H2012 H 0.54057 0.44857 0.89213 0.0
H2013 H 0.51509 0.4156 0.88926 0.0
H2014 H 0.5533 0.39965 0.83279 0.0
H2015 H 0.57894 0.43324 0.83428 0.0
C2016 C 0.49645 0.35556 0.82072 0.0
C2017 C 0.48282 0.34837 0.85186 0.0
C2018 C 0.51289 0.37359 0.82424 0.0
C2019 C 0.51607 0.38475 0.85905 0.0
C2020 C 0.50289 0.37704 0.89098 0.0
C2021 C 0.48644 0.35914 0.88733 0.0
C2022 C 0.54357 0.43812 0.87865 0.0
C2023 C 0.56174 0.44362 0.8628 0.0
C2024 C 0.52899 0.4191 0.87762 0.0
C2025 C 0.53212 0.40489 0.86102 0.0
C2026 C 0.55037 0.41027 0.84555 0.0
C2027 C 0.56508 0.42945 0.84664 0.0
H2028 H 0.57534 0.69977 0.6867 0.0
H2029 H 0.51443 0.67385 0.66903 0.0
H2030 H 0.5781 0.73098 0.69184 0.0
H2031 H 0.51714 0.70538 0.67469 0.0
H2032 H 0.53587 0.76957 0.64547 0.0
H2033 H 0.52985 0.73658 0.64114 0.0
H2034 H 0.57015 0.74855 0.73795 0.0
H2035 H 0.57643 0.78127 0.74118 0.0
C2036 C 0.56246 0.70068 0.68454 0.0
C2037 C 0.54463 0.68424 0.67798 0.0
C2038 C 0.56403 0.71864 0.68747 0.0
C2039 C 0.5478 0.72072 0.68424 0.0
C2040 C 0.52994 0.70432 0.67711 0.0
C2041 C 0.52838 0.68626 0.67396 0.0
C2042 C 0.54324 0.76496 0.66591 0.0
C2043 C 0.55685 0.77796 0.69313 0.0
C2044 C 0.53979 0.74612 0.66357 0.0
C2045 C 0.5498 0.74001 0.68868 0.0
C2046 C 0.5626 0.75287 0.71732 0.0
C2047 C 0.56615 0.7716 0.71935 0.0
H2048 H 0.33745 0.843 0.67646 0.0
H2049 H 0.30796 0.87498 0.66537 0.0
H2050 H 0.30662 0.81301 0.67518 0.0
H2051 H 0.27745 0.84534 0.66448 0.0
H2052 H 0.22724 0.79066 0.6239 0.0
H2053 H 0.25983 0.8174 0.61813 0.0
H2054 H 0.27682 0.79591 0.71974 0.0
H2055 H 0.24409 0.76918 0.72587 0.0
C2056 C 0.32441 0.8436 0.67378 0.0
C2057 C 0.32513 0.86135 0.67131 0.0
C2058 C 0.3068 0.82649 0.67318 0.0
C2059 C 0.28964 0.82683 0.66938 0.0
C2060 C 0.29043 0.84459 0.66686 0.0
C2061 C 0.30792 0.86161 0.66795 0.0
C2062 C 0.23798 0.79148 0.64468 0.0
C2063 C 0.23301 0.77793 0.67568 0.0
C2064 C 0.25662 0.80681 0.64142 0.0
C2065 C 0.27078 0.80893 0.66894 0.0
C2066 C 0.26621 0.79463 0.69806 0.0
C2067 C 0.24747 0.77928 0.70146 0.0
H2068 H 0.23582 0.47563 0.75231 0.0
H2069 H 0.22109 0.44162 0.64353 0.0
H2070 H 0.2089 0.48078 0.7414 0.0
H2071 H 0.19465 0.44762 0.63189 0.0
H2072 H 0.15766 0.47725 0.61431 0.0
H2073 H 0.18741 0.47618 0.62071 0.0
H2074 H 0.17205 0.45543 0.74263 0.0
H2075 H 0.14224 0.45621 0.7359 0.0
C2076 C 0.22698 0.46936 0.72588 0.0
C2077 C 0.23047 0.45786 0.69925 0.0
C2078 C 0.21161 0.47242 0.7196 0.0
C2079 C 0.1996 0.46442 0.68609 0.0
C2080 C 0.20375 0.454 0.65794 0.0
C2081 C 0.21898 0.45065 0.66456 0.0
C2082 C 0.1608 0.47268 0.64257 0.0
C2083 C 0.14775 0.46688 0.67475 0.0
C2084 C 0.17771 0.47194 0.64611 0.0
C2085 C 0.18203 0.4658 0.6822 0.0
C2086 C 0.16914 0.46039 0.7146 0.0
C2087 C 0.15209 0.46074 0.71075 0.0
H2088 H 0.34472 0.85172 0.15532 0.0
H2089 H 0.36816 0.90382 0.22414 0.0
H2090 H 0.37555 0.85288 0.15775 0.0
H2091 H 0.39856 0.90452 0.22951 0.0
H2092 H 0.4564 0.91365 0.19061 0.0
H2093 H 0.42534 0.9113 0.19419 0.0
H2094 H 0.39818 0.84955 0.19351 0.0
H2095 H 0.42955 0.85218 0.18723 0.0
C2096 C 0.35652 0.8633 0.17132 0.0
C2097 C 0.3543 0.87786 0.18886 0.0
C2098 C 0.37415 0.86392 0.1732 0.0
C2099 C 0.38982 0.87889 0.19366 0.0
C2100 C 0.38718 0.89307 0.21242 0.0
C2101 C 0.36973 0.89267 0.20959 0.0
C2102 C 0.44379 0.89958 0.19205 0.0
C2103 C 0.44538 0.88311 0.18891 0.0
C2104 C 0.42586 0.89817 0.19417 0.0
C2105 C 0.40899 0.8802 0.19407 0.0
C2106 C 0.41071 0.86366 0.19273 0.0
C2107 C 0.42869 0.86511 0.18967 0.0
H2108 H 0.14916 0.48996 0.23584 0.0
H2109 H 0.1268 0.47623 0.11475 0.0
H2110 H 0.14786 0.51958 0.23326 0.0
H2111 H 0.12557 0.50593 0.11203 0.0
H2112 H 0.14123 0.56884 0.11022 0.0
H2113 H 0.14811 0.54258 0.11408 0.0
H2114 H 0.11965 0.52596 0.22938 0.0
H2115 H 0.11263 0.55211 0.22532 0.0
C2116 C 0.14431 0.49347 0.2084 0.0
C2117 C 0.13814 0.48085 0.17537 0.0
C2118 C 0.14342 0.51033 0.20707 0.0
C2119 C 0.13665 0.51507 0.17244 0.0
C2120 C 0.13103 0.50273 0.13897 0.0
C2121 C 0.13161 0.48571 0.14057 0.0
C2122 C 0.13684 0.55983 0.13678 0.0
C2123 C 0.12645 0.56252 0.16755 0.0
C2124 C 0.14061 0.54471 0.1388 0.0
C2125 C 0.13434 0.5322 0.17194 0.0
C2126 C 0.12476 0.53546 0.20361 0.0
C2127 C 0.12071 0.55037 0.20126 0.0
H2128 H 0.43831 0.57399 0.20433 0.0
H2129 H 0.46836 0.56199 0.11179 0.0
H2130 H 0.46559 0.60675 0.21036 0.0
H2131 H 0.49519 0.5944 0.11711 0.0
H2132 H 0.54839 0.64056 0.17724 0.0
H2133 H 0.51928 0.61014 0.16931 0.0
H2134 H 0.48595 0.63842 0.17538 0.0
H2135 H 0.51546 0.66928 0.18327 0.0
C2136 C 0.45059 0.57849 0.18488 0.0
C2137 C 0.45145 0.56544 0.15817 0.0
C2138 C 0.46616 0.59718 0.18824 0.0
C2139 C 0.48271 0.60303 0.16478 0.0
C2140 C 0.48291 0.59022 0.13639 0.0
C2141 C 0.46752 0.57167 0.13323 0.0
C2142 C 0.53496 0.64047 0.17633 0.0
C2143 C 0.53435 0.65749 0.18026 0.0
C2144 C 0.51819 0.62295 0.17187 0.0
C2145 C 0.50029 0.62187 0.17112 0.0
C2146 C 0.49953 0.63878 0.17594 0.0
C2147 C 0.51642 0.65644 0.18041 0.0
H2148 H 0.16228 0.66958 0.67995 0.0
H2149 H 0.10059 0.64052 0.67879 0.0
H2150 H 0.16104 0.63876 0.67234 0.0
H2151 H 0.09937 0.61009 0.67131 0.0
H2152 H 0.10146 0.56143 0.61411 0.0
H2153 H 0.10656 0.59367 0.61927 0.0
H2154 H 0.15105 0.60767 0.70744 0.0
H2155 H 0.14606 0.57509 0.70145 0.0
C2156 C 0.14849 0.65666 0.67825 0.0
C2157 C 0.13154 0.65759 0.67936 0.0
C2158 C 0.14778 0.63902 0.67395 0.0
C2159 C 0.13011 0.62198 0.67062 0.0
C2160 C 0.11324 0.62296 0.67268 0.0
C2161 C 0.11394 0.64048 0.67691 0.0
C2162 C 0.11242 0.57143 0.63442 0.0
C2163 C 0.12315 0.56571 0.65791 0.0
C2164 C 0.1153 0.58989 0.63753 0.0
C2165 C 0.12891 0.60314 0.66444 0.0
C2166 C 0.14042 0.59778 0.68647 0.0
C2167 C 0.13758 0.57918 0.68314 0.0
H2168 H 0.43775 0.5718 0.73608 0.0
H2169 H 0.44496 0.55057 0.62208 0.0
H2170 H 0.4049 0.5448 0.74036 0.0
H2171 H 0.41286 0.52325 0.62688 0.0
H2172 H 0.34943 0.4862 0.62212 0.0
H2173 H 0.38104 0.51467 0.62052 0.0
H2174 H 0.38514 0.51164 0.75009 0.0
H2175 H 0.35309 0.48371 0.75141 0.0
C2176 C 0.43232 0.56119 0.71229 0.0
C2177 C 0.44369 0.56324 0.67863 0.0
C2178 C 0.41356 0.54568 0.71467 0.0
C2179 C 0.40598 0.53186 0.68365 0.0
C2180 C 0.41782 0.5338 0.65075 0.0
C2181 C 0.43632 0.54936 0.64814 0.0
C2182 C 0.3571 0.49177 0.65017 0.0
C2183 C 0.34884 0.48277 0.68679 0.0
C2184 C 0.3753 0.508 0.64938 0.0
C2185 C 0.38593 0.51543 0.68516 0.0
C2186 C 0.37741 0.50658 0.72196 0.0
C2187 C 0.35903 0.49052 0.72277 0.0
H2188 H 0.43758 0.8649 0.70536 0.0
H2189 H 0.46729 0.9077 0.61391 0.0
H2190 H 0.46517 0.85987 0.71077 0.0
H2191 H 0.49444 0.90262 0.6188 0.0
H2192 H 0.54779 0.91012 0.67917 0.0
H2193 H 0.5184 0.91094 0.67204 0.0
H2194 H 0.48597 0.84924 0.67373 0.0
H2195 H 0.51577 0.84836 0.68064 0.0
C2196 C 0.44986 0.87297 0.68607 0.0
C2197 C 0.45053 0.88696 0.65987 0.0
C2198 C 0.46561 0.8701 0.68908 0.0
C2199 C 0.48213 0.88115 0.66579 0.0
C2200 C 0.48216 0.89425 0.63793 0.0
C2201 C 0.4666 0.89714 0.63507 0.0
C2202 C 0.53451 0.89667 0.67745 0.0
C2203 C 0.53425 0.87916 0.67983 0.0
C2204 C 0.51759 0.89714 0.67348 0.0
C2205 C 0.49985 0.88014 0.67176 0.0
C2206 C 0.49942 0.86257 0.67507 0.0
C2207 C 0.51648 0.86209 0.67898 0.0
H2208 H 0.24569 0.48099 0.16735 0.0
H2209 H 0.22971 0.42789 0.22867 0.0
H2210 H 0.27902 0.48819 0.16555 0.0
H2211 H 0.26239 0.43456 0.22535 0.0
H2212 H 0.32422 0.45629 0.24514 0.0
H2213 H 0.29334 0.45452 0.25254 0.0
H2214 H 0.29866 0.47719 0.13222 0.0
H2215 H 0.32976 0.47933 0.12538 0.0
C2216 C 0.24928 0.4709 0.18043 0.0
C2217 C 0.23499 0.45375 0.19759 0.0
C2218 C 0.26832 0.47493 0.17915 0.0
C2219 C 0.27343 0.46197 0.19534 0.0
C2220 C 0.25912 0.44504 0.2131 0.0
C2221 C 0.24024 0.44105 0.21439 0.0
C2222 C 0.31882 0.46101 0.22045 0.0
C2223 C 0.32934 0.46781 0.18464 0.0
C2224 C 0.30111 0.45997 0.22457 0.0
C2225 C 0.29335 0.46548 0.19275 0.0
C2226 C 0.30425 0.47301 0.15749 0.0
C2227 C 0.32208 0.4742 0.15352 0.0
H2228 H 0.5754 0.87592 0.17325 0.0
H2229 H 0.51382 0.84265 0.17821 0.0
H2230 H 0.57709 0.84666 0.17398 0.0
H2231 H 0.51551 0.81314 0.17856 0.0
H2232 H 0.53372 0.76923 0.23004 0.0
H2233 H 0.52774 0.79602 0.22445 0.0
H2234 H 0.56819 0.81921 0.12651 0.0
H2235 H 0.57395 0.79239 0.13158 0.0
C2236 C 0.56221 0.86235 0.17491 0.0
C2237 C 0.54447 0.86162 0.17583 0.0
C2238 C 0.56317 0.84556 0.17478 0.0
C2239 C 0.54642 0.82759 0.17591 0.0
C2240 C 0.52865 0.82679 0.17766 0.0
C2241 C 0.52768 0.84365 0.17729 0.0
C2242 C 0.54092 0.77974 0.20654 0.0
C2243 C 0.5545 0.77879 0.18157 0.0
C2244 C 0.53755 0.79513 0.20349 0.0
C2245 C 0.54778 0.80989 0.17557 0.0
C2246 C 0.56041 0.80827 0.14893 0.0
C2247 C 0.56367 0.79288 0.15178 0.0
H2248 H 0.13162 0.70053 0.17463 0.0
H2249 H 0.16481 0.67206 0.17304 0.0
H2250 H 0.16066 0.73122 0.17993 0.0
H2251 H 0.19426 0.70315 0.17867 0.0
H2252 H 0.24234 0.76653 0.14712 0.0
H2253 H 0.21483 0.73383 0.14259 0.0
H2254 H 0.18467 0.74855 0.23012 0.0
H2255 H 0.21168 0.78089 0.23373 0.0
C2256 C 0.14512 0.70077 0.17601 0.0
C2257 C 0.14582 0.68375 0.17409 0.0
C2258 C 0.16184 0.71844 0.17899 0.0
C2259 C 0.17982 0.71967 0.18037 0.0
C2260 C 0.18065 0.70271 0.17756 0.0
C2261 C 0.1638 0.68492 0.17443 0.0
C2262 C 0.22984 0.76259 0.16552 0.0
C2263 C 0.22893 0.77627 0.19012 0.0
C2264 C 0.21414 0.74392 0.16306 0.0
C2265 C 0.19738 0.73869 0.18538 0.0
C2266 C 0.19708 0.75221 0.2116 0.0
C2267 C 0.21258 0.77073 0.21381 0.0
H2268 H 0.21288 0.17906 0.18214 0.0
H2269 H 0.25772 0.23751 0.16528 0.0
H2270 H 0.20475 0.18754 0.24648 0.0
H2271 H 0.24901 0.24636 0.2289 0.0
H2272 H 0.24093 0.25326 0.36255 0.0
H2273 H 0.24983 0.24436 0.29924 0.0
H2274 H 0.19042 0.20296 0.2771 0.0
H2275 H 0.18182 0.21123 0.34115 0.0
C2276 C 0.22083 0.19382 0.19196 0.0
C2277 C 0.23592 0.20762 0.16856 0.0
C2278 C 0.21611 0.19874 0.22889 0.0
C2279 C 0.22614 0.2177 0.24323 0.0
C2280 C 0.24114 0.23155 0.21944 0.0
C2281 C 0.24605 0.22654 0.18271 0.0
C2282 C 0.22983 0.24215 0.34422 0.0
C2283 C 0.2107 0.23287 0.35697 0.0
C2284 C 0.23489 0.23715 0.30766 0.0
C2285 C 0.22088 0.22292 0.28264 0.0
C2286 C 0.20172 0.21369 0.29565 0.0
C2287 C 0.19673 0.2185 0.33242 0.0
H2288 H 0.83156 0.03707 0.18035 0.0
H2289 H 0.77293 0.02278 0.16319 0.0
H2290 H 0.82338 0.02106 0.24526 0.0
H2291 H 0.76438 0.0058 0.22757 0.0
H2292 H 0.75797 0.99126 0.36186 0.0
H2293 H 0.76649 0.00888 0.29822 0.0
H2294 H 0.80827 0.99137 0.27595 0.0
H2295 H 0.8004 0.97472 0.34007 0.0
C2296 C 0.81681 0.03023 0.19022 0.0
C2297 C 0.80287 0.03112 0.1665 0.0
C2298 C 0.81206 0.02092 0.22752 0.0
C2299 C 0.79314 0.01194 0.24196 0.0
C2300 C 0.77915 0.01276 0.21796 0.0
C2301 C 0.78399 0.02234 0.18081 0.0
C2302 C 0.76912 0.99139 0.34346 0.0
C2303 C 0.77861 0.98172 0.35618 0.0
C2304 C 0.77389 1.00134 0.30672 0.0
C2305 C 0.78812 1.00164 0.28157 0.0
C2306 C 0.79755 0.99191 0.2946 0.0
C2307 C 0.79297 0.98224 0.33146 0.0
H2308 H 0.03864 0.82964 0.33653 0.0
H2309 H 0.0222 0.77056 0.35659 0.0
H2310 H 0.02293 0.82134 0.27122 0.0
H2311 H 1.00558 0.76196 0.29184 0.0
H2312 H 0.99274 0.75496 0.15701 0.0
H2313 H 0.00977 0.76367 0.22136 0.0
H2314 H 0.99342 0.80662 0.23919 0.0
H2315 H 0.97732 0.79852 0.17437 0.0
C2316 C 0.03138 0.81479 0.32723 0.0
C2317 C 0.03162 0.80075 0.35182 0.0
C2318 C 0.02226 0.80998 0.28971 0.0
C2319 C 0.01287 0.79093 0.27592 0.0
C2320 C 0.01291 0.77683 0.30092 0.0
C2321 C 0.02228 0.78171 0.3383 0.0
C2322 C 0.99301 0.7664 0.17457 0.0
C2323 C 0.98381 0.77613 0.16044 0.0
C2324 C 1.0026 0.77129 0.21171 0.0
C2325 C 1.00301 0.78587 0.23585 0.0
C2326 C 0.99382 0.7956 0.22137 0.0
C2327 C 0.98448 0.79089 0.1841 0.0
H2328 H 0.74605 0.7739 0.84661 0.0
H2329 H 0.80502 0.81846 0.85689 0.0
H2330 H 0.75244 0.76568 0.77992 0.0
H2331 H 0.81176 0.8097 0.79123 0.0
H2332 H 0.81612 0.80437 0.65822 0.0
H2333 H 0.80723 0.81199 0.72276 0.0
H2334 H 0.76682 0.75199 0.74169 0.0
H2335 H 0.77514 0.74465 0.6759 0.0
C2336 C 0.76049 0.78168 0.83492 0.0
C2337 C 0.77504 0.79685 0.85694 0.0
C2338 C 0.76418 0.77696 0.79661 0.0
C2339 C 0.7826 0.78713 0.77961 0.0
C2340 C 0.79727 0.80186 0.80256 0.0
C2341 C 0.79349 0.80677 0.84052 0.0
C2342 C 0.80508 0.79288 0.67592 0.0
C2343 C 0.79629 0.77394 0.66204 0.0
C2344 C 0.80014 0.79718 0.71326 0.0
C2345 C 0.78656 0.78259 0.73818 0.0
C2346 C 0.77723 0.76368 0.72343 0.0
C2347 C 0.78196 0.75942 0.68563 0.0
H2348 H 0.20755 0.02014 0.66184 0.0
H2349 H 0.26697 0.03758 0.67965 0.0
H2350 H 0.19962 1.00339 0.72613 0.0
H2351 H 0.25935 0.02176 0.74509 0.0
H2352 H 0.23709 0.9769 0.84516 0.0
H2353 H 0.24552 0.99307 0.78015 0.0
H2354 H 0.20134 0.00793 0.79531 0.0
H2355 H 0.19233 0.9908 0.85921 0.0
C2356 C 0.21894 0.02042 0.67964 0.0
C2357 C 0.23787 0.03013 0.66565 0.0
C2358 C 0.21445 0.01098 0.71683 0.0
C2359 C 0.22884 0.01131 0.74144 0.0
C2360 C 0.24778 0.02088 0.72701 0.0
C2361 C 0.25221 0.03004 0.68944 0.0
C2362 C 0.2293 0.98377 0.83466 0.0
C2363 C 0.21402 0.98254 0.85722 0.0
C2364 C 0.23417 0.99313 0.79734 0.0
C2365 C 0.22407 1.00179 0.78191 0.0
C2366 C 0.20917 1.00106 0.80539 0.0
C2367 C 0.2041 0.9914 0.84234 0.0
H2368 H 0.03593 0.21168 0.83916 0.0
H2369 H 0.01689 0.25213 0.86224 0.0
H2370 H 0.0203 0.20434 0.77393 0.0
H2371 H 1.00035 0.24413 0.79726 0.0
H2372 H 0.9893 0.23983 0.66105 0.0
H2373 H 1.00534 0.2478 0.72657 0.0
H2374 H 0.99085 0.18885 0.74154 0.0
H2375 H 0.97573 0.18124 0.6757 0.0
C2376 C 0.02806 0.21876 0.83061 0.0
C2377 C 0.02759 0.23244 0.856 0.0
C2378 C 0.019 0.21449 0.79308 0.0
C2379 C 0.00896 0.22359 0.78003 0.0
C2380 C 0.00818 0.23705 0.80587 0.0
C2381 C 0.01748 0.24149 0.84335 0.0
C2382 C 0.98977 0.22867 0.67825 0.0
C2383 C 0.98141 0.20996 0.66302 0.0
C2384 C 0.99878 0.23317 0.71604 0.0
C2385 C 0.99944 0.21899 0.73964 0.0
C2386 C 0.99103 0.20028 0.72413 0.0
C2387 C 0.98227 0.19587 0.68628 0.0
H2388 H 0.93163 0.56288 0.51166 0.0
H2389 H 0.87214 0.5211 0.49398 0.0
H2390 H 0.92418 0.57096 0.57737 0.0
H2391 H 0.86436 0.52982 0.55861 0.0
H2392 H 0.85721 0.53546 0.69169 0.0
H2393 H 0.86604 0.52711 0.62781 0.0
H2394 H 0.91061 0.58599 0.61237 0.0
H2395 H 0.90237 0.59393 0.67734 0.0
C2396 C 0.91689 0.55566 0.52158 0.0
C2397 C 0.90248 0.54134 0.4977 0.0
C2398 C 0.91256 0.56033 0.55929 0.0
C2399 C 0.89363 0.55102 0.57382 0.0
C2400 C 0.87917 0.53701 0.54922 0.0
C2401 C 0.88358 0.53211 0.51185 0.0
C2402 C 0.86904 0.54654 0.67478 0.0
C2403 C 0.87913 0.56533 0.68957 0.0
C2404 C 0.874 0.54182 0.63784 0.0
C2405 C 0.88896 0.55587 0.61429 0.0
C2406 C 0.89922 0.57465 0.62963 0.0
C2407 C 0.89446 0.57926 0.66694 0.0
H2408 H 0.4411 0.35552 0.5002 0.0
H2409 H 0.4998 0.37018 0.51818 0.0
H2410 H 0.43241 0.33825 0.56418 0.0
H2411 H 0.49143 0.35381 0.58277 0.0
H2412 H 0.46795 0.30736 0.678 0.0
H2413 H 0.4762 0.32404 0.61379 0.0
H2414 H 0.43451 0.34178 0.63471 0.0
H2415 H 0.42565 0.32421 0.6983 0.0
C2416 C 0.45215 0.35508 0.51789 0.0
C2417 C 0.4711 0.3641 0.50399 0.0
C2418 C 0.44722 0.34533 0.55483 0.0
C2419 C 0.46119 0.34459 0.57903 0.0
C2420 C 0.48016 0.35368 0.56487 0.0
C2421 C 0.48501 0.36317 0.52777 0.0
C2422 C 0.46063 0.31493 0.66904 0.0
C2423 C 0.44617 0.31449 0.69333 0.0
C2424 C 0.46542 0.32461 0.63215 0.0
C2425 C 0.45607 0.33436 0.6187 0.0
C2426 C 0.44181 0.33418 0.6435 0.0
C2427 C 0.43685 0.32427 0.68023 0.0
H2428 H 0.70359 0.16055 0.66833 0.0
H2429 H 0.68702 0.10165 0.69117 0.0
H2430 H 0.68705 0.15154 0.60395 0.0
H2431 H 0.66955 0.09233 0.6274 0.0
H2432 H 0.65493 0.08388 0.49294 0.0
H2433 H 0.67247 0.09291 0.55675 0.0
H2434 H 0.65726 0.13676 0.57357 0.0
H2435 H 0.6407 0.12834 0.50932 0.0
C2436 C 0.69612 0.14559 0.65986 0.0
C2437 C 0.69656 0.13181 0.68495 0.0
C2438 C 0.68652 0.14036 0.62287 0.0
C2439 C 0.67681 0.12113 0.61014 0.0
C2440 C 0.67709 0.10731 0.63564 0.0
C2441 C 0.68695 0.11261 0.67246 0.0
C2442 C 0.65552 0.09554 0.51023 0.0
C2443 C 0.64656 0.10548 0.4959 0.0
C2444 C 0.66542 0.10064 0.54705 0.0
C2445 C 0.66639 0.11563 0.57065 0.0
C2446 C 0.65729 0.12544 0.55612 0.0
C2447 C 0.64766 0.12054 0.51919 0.0
H2448 H 0.46768 0.16012 0.17524 0.0
H2449 H 0.42494 0.10134 0.19778 0.0
H2450 H 0.47584 0.15092 0.11195 0.0
H2451 H 0.43373 0.09183 0.13501 0.0
H2452 H 0.44025 0.0839 1.00017 0.0
H2453 H 0.43174 0.09259 0.06429 0.0
H2454 H 0.49086 0.13597 0.08221 0.0
H2455 H 0.49902 0.12789 0.01747 0.0
C2456 C 0.46025 0.14513 0.167 0.0
C2457 C 0.44569 0.13146 0.19164 0.0
C2458 C 0.465 0.1398 0.13063 0.0
C2459 C 0.45552 0.12056 0.11804 0.0
C2460 C 0.44115 0.10681 0.14318 0.0
C2461 C 0.43622 0.11222 0.17942 0.0
C2462 C 0.45136 0.09536 0.01781 0.0
C2463 C 0.47026 0.10531 1.0036 0.0
C2464 C 0.44654 0.10025 0.05481 0.0
C2465 C 0.46057 0.11505 0.07875 0.0
C2466 C 0.47953 0.1248 0.06447 0.0
C2467 C 0.48426 0.1201 0.02731 0.0
H2468 H 0.90092 0.30992 0.17707 0.0
H2469 H 0.85556 0.32298 0.19103 0.0
H2470 H 0.90963 0.32669 0.11283 0.0
H2471 H 0.86486 0.34075 0.12783 0.0
H2472 H 0.87233 0.35407 0.99403 0.0
H2473 H 0.86392 0.33725 0.05835 0.0
H2474 H 0.92352 0.35564 0.07942 0.0
H2475 H 0.9316 0.37146 0.01408 0.0
C2476 C 0.89305 0.31674 0.16673 0.0
C2477 C 0.87755 0.31512 0.18905 0.0
C2478 C 0.89808 0.32646 0.12984 0.0
C2479 C 0.88795 0.33512 0.11462 0.0
C2480 C 0.87276 0.33393 0.1378 0.0
C2481 C 0.86752 0.3239 0.17434 0.0
C2482 C 0.88358 0.35438 0.01238 0.0
C2483 C 0.9026 0.364 0.99894 0.0
C2484 C 0.87881 0.34489 0.04956 0.0
C2485 C 0.89301 0.34508 0.07462 0.0
C2486 C 0.91207 0.35479 0.06093 0.0
C2487 C 0.91677 0.36398 0.02344 0.0
H2488 H 0.64471 0.56864 1.00751 0.0
H2489 H 0.65934 0.52451 0.99097 0.0
H2490 H 0.66137 0.57711 0.07199 0.0
H2491 H 0.67695 0.53356 0.05434 0.0
H2492 H 0.69027 0.53991 0.18799 0.0
H2493 H 0.67335 0.5318 0.12375 0.0
H2494 H 0.69023 0.59126 0.10603 0.0
H2495 H 0.70617 0.59902 0.17128 0.0
C2496 C 0.65184 0.56101 0.01732 0.0
C2497 C 0.65069 0.5459 0.99417 0.0
C2498 C 0.66149 0.56589 0.05436 0.0
C2499 C 0.67053 0.556 0.06895 0.0
C2500 C 0.66982 0.54125 0.04492 0.0
C2501 C 0.65989 0.53616 1.00824 0.0
C2502 C 0.69022 0.55119 0.17042 0.0
C2503 C 0.69949 0.57008 0.18478 0.0
C2504 C 0.68067 0.5466 0.13327 0.0
C2505 C 0.68043 0.56085 0.1091 0.0
C2506 C 0.68973 0.57977 0.12377 0.0
C2507 C 0.69899 0.58428 0.16123 0.0
H2508 H 0.51341 0.87545 1.00676 0.0
H2509 H 0.57132 0.92073 0.02732 0.0
H2510 H 0.52273 0.86845 0.94232 0.0
H2511 H 0.58108 0.91309 0.96344 0.0
H2512 H 0.58938 0.9061 0.82939 0.0
H2513 H 0.57998 0.91438 0.8929 0.0
H2514 H 0.53864 0.85468 0.91222 0.0
H2515 H 0.54736 0.84674 0.84807 0.0
C2516 C 0.52825 0.88374 0.99773 0.0
C2517 C 0.54165 0.89858 0.02226 0.0
C2518 C 0.53367 0.87965 0.96072 0.0
C2519 C 0.55275 0.89006 0.94739 0.0
C2520 C 0.5662 0.90491 0.97217 0.0
C2521 C 0.56067 0.90921 1.00904 0.0
C2522 C 0.57817 0.89482 0.84716 0.0
C2523 C 0.569 0.8758 0.83355 0.0
C2524 C 0.57288 0.89952 0.88383 0.0
C2525 C 0.55847 0.88525 0.90805 0.0
C2526 C 0.54945 0.8662 0.89426 0.0
C2527 C 0.55453 0.86158 0.85741 0.0
H2528 H 0.08902 0.65512 0.02649 0.0
H2529 H 0.1323 0.63959 1.00635 0.0
H2530 H 0.0978 0.67296 0.96315 0.0
H2531 H 0.14044 0.65646 0.94243 0.0
H2532 H 0.16394 0.70291 0.848 0.0
H2533 H 0.15542 0.6863 0.9123 0.0
H2534 H 0.09631 0.67021 0.89259 0.0
H2535 H 0.10518 0.68777 0.82897 0.0
C2536 C 0.10038 0.65549 1.00846 0.0
C2537 C 0.11006 0.64607 0.02158 0.0
C2538 C 0.10532 0.66557 0.9719 0.0
C2539 C 0.11988 0.66624 0.9473 0.0
C2540 C 0.12946 0.65671 0.96067 0.0
C2541 C 0.12472 0.64691 0.99739 0.0
C2542 C 0.14911 0.69575 0.85731 0.0
C2543 C 0.13523 0.6966 0.83331 0.0
C2544 C 0.14416 0.68611 0.89423 0.0
C2545 C 0.12511 0.67675 0.90796 0.0
C2546 C 0.11118 0.67747 0.88358 0.0
C2547 C 0.11621 0.68739 0.84685 0.0
H2548 H 0.32831 0.46936 0.82862 0.0
H2549 H 0.31152 0.41008 0.84583 0.0
H2550 H 0.34553 0.4775 0.89235 0.0
H2551 H 0.32781 0.41788 0.91097 0.0
H2552 H 0.37087 0.4406 0.01477 0.0
H2553 H 0.35594 0.43213 0.94845 0.0
H2554 H 0.33947 0.47528 0.96091 0.0
H2555 H 0.35538 0.48436 0.02615 0.0
C2556 C 0.32844 0.45808 0.84607 0.0
C2557 C 0.31863 0.43911 0.83235 0.0
C2558 C 0.33809 0.46268 0.88295 0.0
C2559 C 0.33778 0.44833 0.90761 0.0
C2560 C 0.32855 0.42939 0.89292 0.0
C2561 C 0.31922 0.42487 0.8555 0.0
C2562 C 0.36391 0.44815 1.00338 0.0
C2563 C 0.36431 0.46316 0.02561 0.0
C2564 C 0.35529 0.44327 0.96529 0.0
C2565 C 0.3466 0.45311 0.94874 0.0
C2566 C 0.34646 0.4677 0.97187 0.0
C2567 C 0.35538 0.47279 1.0096 0.0
H2568 H 0.08068 0.44377 0.50611 0.0
H2569 H 0.1398 0.48681 0.52326 0.0
H2570 H 0.08842 0.43575 0.44073 0.0
H2571 H 0.14791 0.47813 0.45888 0.0
H2572 H 0.15491 0.47216 0.32564 0.0
H2573 H 0.14599 0.48042 0.38954 0.0
H2574 H 0.10257 0.42118 0.40632 0.0
H2575 H 0.11086 0.41331 0.34138 0.0
C2576 C 0.09543 0.45127 0.49617 0.0
C2577 C 0.10964 0.46592 0.51978 0.0
C2578 C 0.09992 0.44663 0.45863 0.0
C2579 C 0.11883 0.4563 0.44403 0.0
C2580 C 0.13311 0.47065 0.46838 0.0
C2581 C 0.12853 0.47552 0.50559 0.0
C2582 C 0.14331 0.46098 0.34286 0.0
C2583 C 0.13354 0.44211 0.32846 0.0
C2584 C 0.1383 0.46565 0.3798 0.0
C2585 C 0.12363 0.45148 0.40369 0.0
C2586 C 0.11372 0.43261 0.38877 0.0
C2587 C 0.11851 0.42804 0.35148 0.0
H2588 H 0.54713 0.70174 0.35033 0.0
H2589 H 0.5901 0.68576 0.33052 0.0
H2590 H 0.53871 0.68473 0.41406 0.0
H2591 H 0.58102 0.66775 0.3937 0.0
H2592 H 0.57214 0.65211 0.52847 0.0
H2593 H 0.58187 0.66975 0.46475 0.0
H2594 H 0.5232 0.65459 0.44234 0.0
H2595 H 0.51388 0.63801 0.50639 0.0
C2596 C 0.55457 0.69429 0.35932 0.0
C2597 C 0.5692 0.695 0.33525 0.0
C2598 C 0.54968 0.68441 0.39593 0.0
C2599 C 0.55904 0.67464 0.40926 0.0
C2600 C 0.57364 0.67528 0.3849 0.0
C2601 C 0.57874 0.68545 0.34845 0.0
C2602 C 0.56142 0.6527 0.50989 0.0
C2603 C 0.5423 0.64386 0.52267 0.0
C2604 C 0.56693 0.66268 0.47317 0.0
C2605 C 0.55338 0.6638 0.44819 0.0
C2606 C 0.53421 0.65457 0.46096 0.0
C2607 C 0.5288 0.64492 0.49776 0.0
H2608 H 0.30842 0.84484 0.34486 0.0
H2609 H 0.32364 0.90379 0.32804 0.0
H2610 H 0.32436 0.85278 0.41 0.0
H2611 H 0.34048 0.91204 0.39251 0.0
H2612 H 0.35317 0.91802 0.52703 0.0
H2613 H 0.33619 0.90954 0.46272 0.0
H2614 H 0.35383 0.86771 0.44239 0.0
H2615 H 0.36992 0.87559 0.50734 0.0
C2616 C 0.31547 0.85959 0.35483 0.0
C2617 C 0.3148 0.87369 0.33127 0.0
C2618 C 0.32471 0.86419 0.39223 0.0
C2619 C 0.33379 0.8831 0.40687 0.0
C2620 C 0.33336 0.89727 0.3828 0.0
C2621 C 0.32387 0.89259 0.34559 0.0
C2622 C 0.35323 0.90689 0.50891 0.0
C2623 C 0.36279 0.89741 0.52237 0.0
C2624 C 0.34365 0.90213 0.47179 0.0
C2625 C 0.34363 0.88795 0.44695 0.0
C2626 C 0.35316 0.87844 0.46076 0.0
C2627 C 0.36249 0.88302 0.49806 0.0
H2628 H 0.28282 0.20179 0.92212 0.0
H2629 H 0.31143 0.22828 0.0336 0.0
H2630 H 0.3133 0.21685 0.8871 0.0
H2631 H 0.342 0.2441 0.99822 0.0
H2632 H 0.39589 0.25446 0.93301 0.0
H2633 H 0.3654 0.23932 0.96787 0.0
H2634 H 0.33817 0.24553 0.86126 0.0
H2635 H 0.36873 0.26001 0.82579 0.0
C2636 C 0.29563 0.21098 0.93917 0.0
C2637 C 0.29461 0.21378 0.98079 0.0
C2638 C 0.31319 0.21979 0.91891 0.0
C2639 C 0.33031 0.23186 0.93952 0.0
C2640 C 0.32926 0.2347 0.98123 0.0
C2641 C 0.31167 0.2257 1.00161 0.0
C2642 C 0.38341 0.25262 0.9169 0.0
C2643 C 0.38483 0.2585 0.87649 0.0
C2644 C 0.36585 0.24402 0.93711 0.0
C2645 C 0.34913 0.24118 0.91772 0.0
C2646 C 0.35058 0.24715 0.87722 0.0
C2647 C 0.36817 0.2556 0.85683 0.0
H2648 H 0.78164 0.08481 0.02993 0.0
H2649 H 0.80958 0.0843 0.91941 0.0
H2650 H 0.76543 0.09908 0.99419 0.0
H2651 H 0.79413 0.09927 0.88406 0.0
H2652 H 0.75054 0.11036 0.82107 0.0
H2653 H 0.76552 0.09486 0.85698 0.0
H2654 H 0.76926 0.12695 0.96432 0.0
H2655 H 0.7536 0.14169 0.92895 0.0
C2656 C 0.78445 0.08788 0.99808 0.0
C2657 C 0.79689 0.08332 0.97763 0.0
C2658 C 0.77523 0.09621 0.97749 0.0
C2659 C 0.77835 0.10041 0.93593 0.0
C2660 C 0.79095 0.09596 0.91572 0.0
C2661 C 0.79999 0.08746 0.93618 0.0
C2662 C 0.75452 0.11405 0.85237 0.0
C2663 C 0.75077 0.12724 0.87205 0.0
C2664 C 0.76326 0.10524 0.87303 0.0
C2665 C 0.7687 0.10955 0.91385 0.0
C2666 C 0.765 0.12287 0.9333 0.0
C2667 C 0.7561 0.13149 0.9128 0.0
H2668 H 0.86906 0.61316 0.9314 0.0
H2669 H 0.89873 0.64092 0.82172 0.0
H2670 H 0.88447 0.64374 0.96623 0.0
H2671 H 0.9148 0.67153 0.85699 0.0
H2672 H 0.92545 0.72625 0.91926 0.0
H2673 H 0.91015 0.69562 0.88477 0.0
H2674 H 0.91322 0.66805 0.99394 0.0
H2675 H 0.92793 0.69878 0.02894 0.0
C2676 C 0.87902 0.62578 0.91472 0.0
C2677 C 0.8826 0.62452 0.87364 0.0
C2678 C 0.88801 0.64339 0.93489 0.0
C2679 C 0.90101 0.66029 0.9147 0.0
C2680 C 0.90468 0.65897 0.87357 0.0
C2681 C 0.89554 0.64135 0.85329 0.0
C2682 C 0.92288 0.71367 0.93601 0.0
C2683 C 0.92796 0.71505 0.97698 0.0
C2684 C 0.91419 0.69603 0.91603 0.0
C2685 C 0.91043 0.67918 0.93626 0.0
C2686 C 0.91558 0.68058 0.97732 0.0
C2687 C 0.92414 0.69826 0.99744 0.0
H2688 H 0.22092 0.30964 0.49164 0.0
H2689 H 0.21758 0.28026 0.60275 0.0
H2690 H 0.23474 0.34 0.52845 0.0
H2691 H 0.23131 0.31045 0.63932 0.0
H2692 H 0.27074 0.37079 0.68872 0.0
H2693 H 0.26091 0.34199 0.64799 0.0
H2694 H 0.22326 0.35464 0.57899 0.0
H2695 H 0.233 0.38323 0.61938 0.0
C2696 C 0.22328 0.30966 0.5238 0.0
C2697 C 0.21803 0.29245 0.54419 0.0
C2698 C 0.23111 0.32705 0.54496 0.0
C2699 C 0.23414 0.32771 0.58694 0.0
C2700 C 0.22939 0.31056 0.60702 0.0
C2701 C 0.22136 0.29319 0.58601 0.0
C2702 C 0.26049 0.3675 0.66464 0.0
C2703 C 0.25261 0.37932 0.65758 0.0
C2704 C 0.25478 0.35094 0.64141 0.0
C2705 C 0.24125 0.34594 0.61016 0.0
C2706 C 0.23383 0.35809 0.60244 0.0
C2707 C 0.23934 0.37446 0.62591 0.0
H2708 H 0.64617 0.88296 0.69941 0.0
H2709 H 0.61807 0.88601 0.59134 0.0
H2710 H 0.67662 0.89754 0.66352 0.0
H2711 H 0.64845 0.90145 0.55599 0.0
H2712 H 0.70211 0.91252 0.48957 0.0
H2713 H 0.67181 0.89731 0.52577 0.0
H2714 H 0.70148 0.92502 0.63585 0.0
H2715 H 0.73173 0.93928 0.59993 0.0
C2716 C 0.64655 0.88699 0.66812 0.0
C2717 C 0.62967 0.88325 0.64826 0.0
C2718 C 0.66407 0.89547 0.64744 0.0
C2719 C 0.66524 0.90075 0.60647 0.0
C2720 C 0.64828 0.89726 0.58705 0.0
C2721 C 0.63078 0.8885 0.60751 0.0
C2722 C 0.70213 0.91535 0.52149 0.0
C2723 C 0.71939 0.92709 0.54179 0.0
C2724 C 0.68468 0.9067 0.54239 0.0
C2725 C 0.68394 0.90983 0.58409 0.0
C2726 C 0.70129 0.92182 0.60411 0.0
C2727 C 0.71873 0.93018 0.58336 0.0
H2728 H 0.08416 0.77801 0.48928 0.0
H2729 H 0.08671 0.80891 0.59751 0.0
H2730 H 0.09873 0.76218 0.52541 0.0
H2731 H 0.10196 0.79382 0.63313 0.0
H2732 H 0.11384 0.7512 0.69841 0.0
H2733 H 0.09782 0.76566 0.66256 0.0
H2734 H 0.12728 0.76659 0.55307 0.0
H2735 H 0.14255 0.75147 0.58846 0.0
C2736 C 0.08793 0.78152 0.5207 0.0
C2737 C 0.08418 0.79471 0.5404 0.0
C2738 C 0.09644 0.77253 0.54149 0.0
C2739 C 0.10164 0.77663 0.58247 0.0
C2740 C 0.0979 0.78991 0.60197 0.0
C2741 C 0.08924 0.79873 0.58133 0.0
C2742 C 0.11685 0.75447 0.66667 0.0
C2743 C 0.12945 0.75008 0.64639 0.0
C2744 C 0.10773 0.7629 0.64603 0.0
C2745 C 0.11113 0.76736 0.60461 0.0
C2746 C 0.12389 0.76307 0.5846 0.0
C2747 C 0.13282 0.75449 0.60509 0.0
H2748 H 0.73048 0.80918 0.10123 0.0
H2749 H 0.70187 0.77864 0.99283 0.0
H2750 H 0.70019 0.79404 0.13708 0.0
H2751 H 0.67156 0.76282 0.02912 0.0
H2752 H 0.61732 0.75218 0.09268 0.0
H2753 H 0.64768 0.76755 0.05734 0.0
H2754 H 0.67619 0.76549 0.16595 0.0
H2755 H 0.64572 0.75073 0.20182 0.0
C2756 C 0.71773 0.79909 0.08506 0.0
C2757 C 0.71866 0.79517 0.04404 0.0
C2758 C 0.7003 0.79026 0.10581 0.0
C2759 C 0.68326 0.77708 0.08628 0.0
C2760 C 0.68424 0.77309 0.0452 0.0
C2761 C 0.70168 0.78209 0.02433 0.0
C2762 C 0.63005 0.755 0.10914 0.0
C2763 C 0.62901 0.75017 0.15018 0.0
C2764 C 0.64754 0.76373 0.08867 0.0
C2765 C 0.66456 0.76775 0.10847 0.0
C2766 C 0.66351 0.76291 0.14965 0.0
C2767 C 0.64598 0.75432 0.17027 0.0
H2768 H 0.26064 0.89651 0.19851 0.0
H2769 H 0.26213 0.87004 0.08653 0.0
H2770 H 0.24584 0.91249 0.16379 0.0
H2771 H 0.24663 0.8852 0.05223 0.0
H2772 H 0.23429 0.92822 0.99129 0.0
H2773 H 0.25034 0.91367 0.02647 0.0
H2774 H 0.21787 0.90845 0.13403 0.0
H2775 H 0.20255 0.92376 0.09934 0.0
C2776 C 0.25769 0.89399 0.16655 0.0
C2777 C 0.26268 0.88203 0.14539 0.0
C2778 C 0.24906 0.90307 0.14655 0.0
C2779 C 0.24496 0.90027 0.1049 0.0
C2780 C 0.24985 0.88815 0.08399 0.0
C2781 C 0.25866 0.87927 0.10384 0.0
C2782 C 0.23062 0.92401 0.02248 0.0
C2783 C 0.21714 0.92724 0.0424 0.0
C2784 C 0.23975 0.9155 0.04272 0.0
C2785 C 0.23549 0.90975 0.08338 0.0
C2786 C 0.2219 0.91295 0.10311 0.0
C2787 C 0.21296 0.92164 0.08302 0.0
H2788 H 0.08803 0.28135 0.09727 0.0
H2789 H 0.08132 0.30853 0.99132 0.0
H2790 H 0.10334 0.31189 0.13232 0.0
H2791 H 0.09608 0.33907 0.0269 0.0
H2792 H 0.1415 0.39426 0.08608 0.0
H2793 H 0.12566 0.36364 0.05145 0.0
H2794 H 0.09863 0.3356 0.16311 0.0
H2795 H 0.1151 0.3663 0.1981 0.0
C2796 C 0.08965 0.29382 0.0815 0.0
C2797 C 0.08342 0.29241 0.04135 0.0
C2798 C 0.09835 0.31139 0.1018 0.0
C2799 C 0.10101 0.32811 0.08268 0.0
C2800 C 0.0946 0.32665 0.04257 0.0
C2801 C 0.08599 0.30906 0.02215 0.0
C2802 C 0.13218 0.38158 0.10335 0.0
C2803 C 0.12962 0.38282 0.14499 0.0
C2804 C 0.12294 0.36396 0.08332 0.0
C2805 C 0.11072 0.34699 0.10423 0.0
C2806 C 0.10811 0.34825 0.14594 0.0
C2807 C 0.11748 0.36591 0.16606 0.0
H2808 H 0.76773 0.64413 0.32414 0.0
H2809 H 0.73481 0.61648 0.43079 0.0
H2810 H 0.78536 0.67415 0.36186 0.0
H2811 H 0.75233 0.64631 0.46824 0.0
H2812 H 0.7764 0.7075 0.51503 0.0
H2813 H 0.75743 0.67923 0.4731 0.0
H2814 H 0.80909 0.68659 0.41805 0.0
H2815 H 0.82801 0.71474 0.4598 0.0
C2816 C 0.76412 0.64448 0.35546 0.0
C2817 C 0.74988 0.62785 0.37441 0.0
C2818 C 0.7743 0.66165 0.37717 0.0
C2819 C 0.77029 0.66267 0.41817 0.0
C2820 C 0.75569 0.64614 0.43668 0.0
C2821 C 0.74572 0.62897 0.4152 0.0
C2822 C 0.78371 0.70315 0.49387 0.0
C2823 C 0.80378 0.71338 0.49108 0.0
C2824 C 0.77284 0.68689 0.46991 0.0
C2825 C 0.78172 0.68059 0.44216 0.0
C2826 C 0.80174 0.6911 0.43875 0.0
C2827 C 0.81261 0.7072 0.46299 0.0
H2828 H 0.39625 0.14416 0.42982 0.0
H2829 H 0.36873 0.11137 0.32286 0.0
H2830 H 0.36578 0.12909 0.46485 0.0
H2831 H 0.3382 0.09561 0.35849 0.0
H2832 H 0.28308 0.08455 0.41987 0.0
H2833 H 0.31352 0.0998 0.38456 0.0
H2834 H 0.34231 0.10089 0.49526 0.0
H2835 H 0.31182 0.08629 0.5309 0.0
C2836 C 0.3837 0.13359 0.41379 0.0
C2837 C 0.38502 0.129 0.37341 0.0
C2838 C 0.36616 0.12479 0.4341 0.0
C2839 C 0.34935 0.11097 0.41483 0.0
C2840 C 0.35069 0.10636 0.37435 0.0
C2841 C 0.36826 0.11531 0.35388 0.0
C2842 C 0.2959 0.08806 0.43677 0.0
C2843 C 0.29494 0.08418 0.47834 0.0
C2844 C 0.31343 0.09671 0.41635 0.0
C2845 C 0.33056 0.10161 0.43676 0.0
C2846 C 0.32956 0.09766 0.47843 0.0
C2847 C 0.31202 0.08915 0.49895 0.0
H2848 H 0.86696 0.25661 0.43043 0.0
H2849 H 0.89772 0.2599 0.32152 0.0
H2850 H 0.88264 0.24174 0.46536 0.0
H2851 H 0.91408 0.2457 0.35691 0.0
H2852 H 0.92576 0.20227 0.41879 0.0
H2853 H 0.91006 0.21715 0.38411 0.0
H2854 H 0.91133 0.24663 0.4939 0.0
H2855 H 0.9264 0.23102 0.52905 0.0
C2856 C 0.87721 0.25431 0.41395 0.0
C2857 C 0.88103 0.25946 0.37305 0.0
C2858 C 0.88636 0.24588 0.43418 0.0
C2859 C 0.89976 0.24247 0.41425 0.0
C2860 C 0.90365 0.24775 0.3733 0.0
C2861 C 0.89434 0.25603 0.35294 0.0
C2862 C 0.9227 0.21192 0.43563 0.0
C2863 C 0.92738 0.21542 0.47681 0.0
C2864 C 0.91379 0.22062 0.41556 0.0
C2865 C 0.90941 0.23326 0.4359 0.0
C2866 C 0.91416 0.2368 0.47717 0.0
C2867 C 0.92294 0.22793 0.49738 0.0
H2868 H 0.03443 0.59148 0.15501 0.0
H2869 H 0.06149 0.58769 0.2641 0.0
H2870 H 1.00371 0.5769 0.18972 0.0
H2871 H 0.0308 0.57238 0.29832 0.0
H2872 H 0.97626 0.56118 0.36185 0.0
H2873 H 0.00698 0.57681 0.3271 0.0
H2874 H 0.97884 0.54862 0.21622 0.0
H2875 H 0.94818 0.53377 0.25061 0.0
C2876 C 0.03381 0.58739 0.18632 0.0
C2877 C 0.0505 0.59086 0.20671 0.0
C2878 C 0.01611 0.57888 0.20629 0.0
C2879 C 0.01455 0.57337 0.24713 0.0
C2880 C 0.03131 0.57671 0.26726 0.0
C2881 C 0.04899 0.5854 0.24744 0.0
C2882 C 0.97665 0.55836 0.33004 0.0
C2883 C 0.95969 0.54624 0.3091 0.0
C2884 C 0.99434 0.56725 0.31002 0.0
C2885 C 0.99561 0.56408 0.26856 0.0
C2886 C 0.97857 0.55181 0.24783 0.0
C2887 C 0.9609 0.54313 0.26773 0.0
H2888 H 0.41981 0.44511 0.16056 0.0
H2889 H 0.42278 0.47646 0.26838 0.0
H2890 H 0.43461 0.42951 0.19663 0.0
H2891 H 0.43824 0.46154 0.30397 0.0
H2892 H 0.44977 0.41864 0.36913 0.0
H2893 H 0.43373 0.43309 0.33332 0.0
H2894 H 0.46352 0.43446 0.22402 0.0
H2895 H 0.47885 0.41937 0.25937 0.0
C2896 C 0.42374 0.44878 0.19188 0.0
C2897 C 0.42004 0.46202 0.21151 0.0
C2898 C 0.43236 0.43991 0.21261 0.0
C2899 C 0.43771 0.44419 0.25345 0.0
C2900 C 0.43405 0.45754 0.27289 0.0
C2901 C 0.42528 0.46624 0.25229 0.0
C2902 C 0.45285 0.422 0.33744 0.0
C2903 C 0.46556 0.41776 0.31718 0.0
C2904 C 0.44373 0.43042 0.31685 0.0
C2905 C 0.44723 0.43499 0.27552 0.0
C2906 C 0.46009 0.43084 0.2555 0.0
C2907 C 0.46903 0.42228 0.27596 0.0
H2908 H 0.55971 0.95445 0.20999 0.0
H2909 H 0.52095 0.97428 0.17592 0.0
H2910 H 0.57759 0.983 0.25234 0.0
H2911 H 0.53884 1.00266 0.21761 0.0
H2912 H 0.58977 0.06112 0.25181 0.0
H2913 H 0.57224 0.03162 0.21364 0.0
H2914 H 0.57257 0.99926 0.31679 0.0
H2915 H 0.59013 0.02908 0.35575 0.0
C2916 C 0.55501 0.96487 0.21147 0.0
C2917 C 0.53891 0.96207 0.1894 0.0
C2918 C 0.56517 0.98114 0.23595 0.0
C2919 C 0.55966 0.99513 0.23829 0.0
C2920 C 0.54355 0.99225 0.21628 0.0
C2921 C 0.53325 0.97591 0.19245 0.0
C2922 C 0.58619 0.04778 0.26659 0.0
C2923 C 0.59139 0.04754 0.30701 0.0
C2924 C 0.57602 0.03082 0.24463 0.0
C2925 C 0.57093 0.01307 0.26214 0.0
C2926 C 0.57637 0.01273 0.30238 0.0
C2927 C 0.58633 0.02979 0.32474 0.0
H2928 H 0.41635 0.97415 0.65681 0.0
H2929 H 0.42043 0.94639 0.76452 0.0
H2930 H 0.43124 0.00472 0.6924 0.0
H2931 H 0.43602 0.97688 0.79951 0.0
H2932 H 0.44797 0.03107 0.86522 0.0
H2933 H 0.43182 1.0006 0.8295 0.0
H2934 H 0.45984 0.02925 0.71896 0.0
H2935 H 0.47522 0.05969 0.75434 0.0
C2936 C 0.42054 0.97459 0.68799 0.0
C2937 C 0.41709 0.95776 0.70776 0.0
C2938 C 0.42923 0.99218 0.70845 0.0
C2939 C 0.43491 0.99346 0.74913 0.0
C2940 C 0.43155 0.97657 0.76861 0.0
C2941 C 0.42269 0.95901 0.74834 0.0
C2942 C 0.45064 0.03085 0.83327 0.0
C2943 C 0.46287 0.04788 0.81272 0.0
C2944 C 0.44145 0.01331 0.81271 0.0
C2945 C 0.44443 0.01226 0.77107 0.0
C2946 C 0.4568 0.02936 0.75071 0.0
C2947 C 0.46579 0.04689 0.77116 0.0
H2948 H 0.0343 0.45743 0.65341 0.0
H2949 H 0.06324 0.46028 0.76482 0.0
H2950 H 1.00372 0.44193 0.68867 0.0
H2951 H 0.03274 0.44405 0.79978 0.0
H2952 H 0.97693 0.43069 0.86095 0.0
H2953 H 0.00752 0.44703 0.82572 0.0
H2954 H 0.98063 0.41365 0.7188 0.0
H2955 H 0.95004 0.39804 0.75352 0.0
C2956 C 0.03412 0.45458 0.68536 0.0
C2957 C 0.05127 0.46016 0.70623 0.0
C2958 C 0.01653 0.44556 0.70568 0.0
C2959 C 0.01556 0.44163 0.74735 0.0
C2960 C 0.03278 0.44711 0.76799 0.0
C2961 C 0.05035 0.45633 0.7478 0.0
C2962 C 0.97759 0.42684 0.82994 0.0
C2963 C 0.961 0.41307 0.81009 0.0
C2964 C 0.99519 0.43615 0.80967 0.0
C2965 C 0.99674 0.43178 0.76912 0.0
C2966 C 0.98009 0.41779 0.74959 0.0
C2967 C 0.9625 0.40868 0.76969 0.0
H2968 H 0.56748 0.60405 0.67791 0.0
H2969 H 0.51573 0.55328 0.71465 0.0
H2970 H 0.58624 0.59455 0.72022 0.0
H2971 H 0.53446 0.54406 0.75747 0.0
H2972 H 0.57466 0.54446 0.85915 0.0
H2973 H 0.55667 0.55643 0.82116 0.0
H2974 H 0.59274 0.56606 0.71772 0.0
H2975 H 0.61038 0.55377 0.75517 0.0
C2976 C 0.56009 0.59097 0.69526 0.0
C2977 C 0.54009 0.5794 0.6927 0.0
C2978 C 0.57084 0.58551 0.71941 0.0
C2979 C 0.56183 0.56857 0.74228 0.0
C2980 C 0.54181 0.55726 0.74051 0.0
C2981 C 0.5311 0.56251 0.71573 0.0
C2982 C 0.57885 0.5493 0.82846 0.0
C2983 C 0.59394 0.54813 0.8102 0.0
C2984 C 0.56848 0.55605 0.80663 0.0
C2985 C 0.57329 0.56221 0.76641 0.0
C2986 C 0.58876 0.56157 0.74868 0.0
C2987 C 0.59881 0.55444 0.77013 0.0
loop_
_geom_bond_atom_site_label_1
_geom_bond_atom_site_label_2
_geom_bond_distance
_geom_bond_site_symmetry_2
_ccdc_geom_bond_type
Co0 N4 2.148 . S
Co0 N10 2.128 . S
Co0 N20 2.194 . S
Co0 O25 2.351 . S
Co0 O26 2.155 . S
Co0 O27 2.096 . S
C1 N4 1.301 . S
C1 N5 1.328 . S
C1 H6 0.930 . S
C2 C3 1.333 . S
C2 N4 1.317 1_556 S
C2 H7 0.930 . S
C3 C2 1.333 . S
C3 N5 1.350 1_556 S
C3 H29 0.931 . S
N4 Co0 2.148 . S
N4 C1 1.301 . S
N4 C2 1.317 1_554 S
N5 C1 1.328 . S
N5 C3 1.350 1_554 S
H6 C1 0.930 . S
H7 C2 0.930 . S
C8 O9 1.224 . S
C8 O27 1.247 . S
O9 C8 1.224 . S
N10 Co0 2.128 . S
N10 C11 1.355 . S
N10 C13 1.311 . S
C11 N10 1.355 . S
C11 C12 1.363 . S
C11 H23 0.929 . S
C12 C11 1.363 . S
C12 N14 1.375 . S
C12 H30 0.931 . S
C13 N10 1.311 . S
C13 N14 1.347 . S
C13 H24 0.929 . S
N14 C12 1.375 . S
N14 C13 1.347 . S
C15 C18 1.365 . S
C15 N20 1.328 . S
C15 H21 0.929 . S
C16 C17 1.362 . S
C16 C19 1.378 . S
C16 H31 0.929 1_554 S
C17 C16 1.362 . S
C17 C18 1.366 . S
C18 C15 1.365 . S
C18 C17 1.366 . S
C18 H32 0.930 . S
C19 C16 1.378 . S
C19 N20 1.315 . S
C19 H22 0.930 . S
N20 Co0 2.194 . S
N20 C15 1.328 . S
N20 C19 1.315 . S
H21 C15 0.929 . S
H22 C19 0.930 . S
H23 C11 0.929 . S
H24 C13 0.929 . S
O25 Co0 2.351 . S
O25 C28 1.244 . S
O26 Co0 2.155 . S
O26 C28 1.240 . S
O27 Co0 2.096 . S
O27 C8 1.247 . S
C28 O25 1.244 . S
C28 O26 1.240 . S
H29 C3 0.931 . S
H30 C12 0.931 . S
H31 C16 0.929 1_556 S
H32 C18 0.930 . S
Co33 N37 2.148 . S
Co33 N43 2.128 . S
Co33 N53 2.194 . S
Co33 O58 2.351 . S
Co33 O59 2.155 . S
Co33 O60 2.096 . S
C34 N37 1.301 . S
C34 N38 1.328 . S
C34 H39 0.930 . S
C35 C36 1.333 . S
C35 N37 1.317 1_556 S
C35 H40 0.930 . S
C36 C35 1.333 . S
C36 N38 1.350 1_556 S
C36 H62 0.931 . S
N37 Co33 2.148 . S
N37 C34 1.301 . S
N37 C35 1.317 1_554 S
N38 C34 1.328 . S
N38 C36 1.350 1_554 S
H39 C34 0.930 . S
H40 C35 0.930 . S
C41 O42 1.224 . S
C41 O60 1.247 . S
O42 C41 1.224 . S
N43 Co33 2.128 . S
N43 C44 1.355 . S
N43 C46 1.311 . S
C44 N43 1.355 . S
C44 C45 1.363 . S
C44 H56 0.929 . S
C45 C44 1.363 . S
C45 N47 1.375 . S
C45 H63 0.931 . S
C46 N43 1.311 . S
C46 N47 1.347 . S
C46 H57 0.929 . S
N47 C45 1.375 . S
N47 C46 1.347 . S
C48 C51 1.365 . S
C48 N53 1.328 . S
C48 H54 0.929 . S
C49 C50 1.362 . S
C49 C52 1.378 . S
C49 H64 0.929 1_554 S
C50 C49 1.362 . S
C50 C51 1.366 . S
C51 C48 1.365 . S
C51 C50 1.366 . S
C51 H65 0.930 . S
C52 C49 1.378 . S
C52 N53 1.315 . S
C52 H55 0.930 . S
N53 Co33 2.194 . S
N53 C48 1.328 . S
N53 C52 1.315 . S
H54 C48 0.929 . S
H55 C52 0.930 . S
H56 C44 0.929 . S
H57 C46 0.929 . S
O58 Co33 2.351 . S
O58 C61 1.244 . S
O59 Co33 2.155 . S
O59 C61 1.240 . S
O60 Co33 2.096 . S
O60 C41 1.247 . S
C61 O58 1.244 . S
C61 O59 1.240 . S
H62 C36 0.931 . S
H63 C45 0.931 . S
H64 C49 0.929 1_556 S
H65 C51 0.930 . S
Co66 N70 2.148 . S
Co66 N76 2.128 . S
Co66 N86 2.194 . S
Co66 O91 2.351 . S
Co66 O92 2.155 . S
Co66 O93 2.096 . S
C67 N70 1.301 . S
C67 N71 1.328 . S
C67 H72 0.930 . S
C68 C69 1.333 . S
C68 N70 1.317 1_556 S
C68 H73 0.930 . S
C69 C68 1.333 . S
C69 N71 1.350 1_556 S
C69 H95 0.931 . S
N70 Co66 2.148 . S
N70 C67 1.301 . S
N70 C68 1.317 1_554 S
N71 C67 1.328 . S
N71 C69 1.350 1_554 S
H72 C67 0.930 . S
H73 C68 0.930 . S
C74 O75 1.224 . S
C74 O93 1.247 . S
O75 C74 1.224 . S
N76 Co66 2.128 . S
N76 C77 1.355 . S
N76 C79 1.311 . S
C77 N76 1.355 . S
C77 C78 1.363 . S
C77 H89 0.929 . S
C78 C77 1.363 . S
C78 N80 1.375 . S
C78 H96 0.931 . S
C79 N76 1.311 . S
C79 N80 1.347 . S
C79 H90 0.929 . S
N80 C78 1.375 . S
N80 C79 1.347 . S
C81 C84 1.365 . S
C81 N86 1.328 . S
C81 H87 0.929 . S
C82 C83 1.362 . S
C82 C85 1.378 . S
C82 H97 0.929 1_554 S
C83 C82 1.362 . S
C83 C84 1.366 . S
C84 C81 1.365 . S
C84 C83 1.366 . S
C84 H98 0.930 . S
C85 C82 1.378 . S
C85 N86 1.315 . S
C85 H88 0.930 . S
N86 Co66 2.194 . S
N86 C81 1.328 . S
N86 C85 1.315 . S
H87 C81 0.929 . S
H88 C85 0.930 . S
H89 C77 0.929 . S
H90 C79 0.929 . S
O91 Co66 2.351 . S
O91 C94 1.244 . S
O92 Co66 2.155 . S
O92 C94 1.240 . S
O93 Co66 2.096 . S
O93 C74 1.247 . S
C94 O91 1.244 . S
C94 O92 1.240 . S
H95 C69 0.931 . S
H96 C78 0.931 . S
H97 C82 0.929 1_556 S
H98 C84 0.930 . S
Co99 N103 2.148 . S
Co99 N109 2.128 . S
Co99 N119 2.194 . S
Co99 O124 2.351 . S
Co99 O125 2.155 . S
Co99 O126 2.096 . S
C100 N103 1.301 . S
C100 N104 1.328 . S
C100 H105 0.930 . S
C101 C102 1.333 . S
C101 N103 1.317 . S
C101 H106 0.930 . S
C102 C101 1.333 . S
C102 N104 1.350 . S
C102 H128 0.931 . S
N103 Co99 2.148 . S
N103 C100 1.301 . S
N103 C101 1.317 . S
N104 C100 1.328 . S
N104 C102 1.350 . S
H105 C100 0.930 . S
H106 C101 0.930 . S
C107 O108 1.224 . S
C107 O126 1.247 . S
O108 C107 1.224 . S
N109 Co99 2.128 . S
N109 C110 1.355 . S
N109 C112 1.311 . S
C110 N109 1.355 . S
C110 C111 1.363 . S
C110 H122 0.929 . S
C111 C110 1.363 . S
C111 N113 1.375 . S
C111 H129 0.931 . S
C112 N109 1.311 . S
C112 N113 1.347 . S
C112 H123 0.929 . S
N113 C111 1.375 . S
N113 C112 1.347 . S
C114 C117 1.365 . S
C114 N119 1.328 . S
C114 H120 0.929 . S
C115 C116 1.362 . S
C115 C118 1.378 . S
C115 H130 0.929 . S
C116 C115 1.362 . S
C116 C117 1.366 . S
C117 C114 1.365 . S
C117 C116 1.366 . S
C117 H131 0.930 . S
C118 C115 1.378 . S
C118 N119 1.315 . S
C118 H121 0.930 . S
N119 Co99 2.194 . S
N119 C114 1.328 . S
N119 C118 1.315 . S
H120 C114 0.929 . S
H121 C118 0.930 . S
H122 C110 0.929 . S
H123 C112 0.929 . S
O124 Co99 2.351 . S
O124 C127 1.244 . S
O125 Co99 2.155 . S
O125 C127 1.240 . S
O126 Co99 2.096 . S
O126 C107 1.247 . S
C127 O124 1.244 . S
C127 O125 1.240 . S
H128 C102 0.931 . S
H129 C111 0.931 . S
H130 C115 0.929 . S
H131 C117 0.930 . S
Co132 N136 2.148 . S
Co132 N142 2.128 . S
Co132 N152 2.194 . S
Co132 O157 2.351 . S
Co132 O158 2.155 . S
Co132 O159 2.096 . S
C133 N136 1.301 . S
C133 N137 1.328 . S
C133 H138 0.930 . S
C134 C135 1.333 . S
C134 N136 1.317 . S
C134 H139 0.930 . S
C135 C134 1.333 . S
C135 N137 1.350 . S
C135 H161 0.931 . S
N136 Co132 2.148 . S
N136 C133 1.301 . S
N136 C134 1.317 . S
N137 C133 1.328 . S
N137 C135 1.350 . S
H138 C133 0.930 . S
H139 C134 0.930 . S
C140 O141 1.224 . S
C140 O159 1.247 . S
O141 C140 1.224 . S
N142 Co132 2.128 . S
N142 C143 1.355 . S
N142 C145 1.311 . S
C143 N142 1.355 . S
C143 C144 1.363 . S
C143 H155 0.929 . S
C144 C143 1.363 . S
C144 N146 1.375 . S
C144 H162 0.931 . S
C145 N142 1.311 . S
C145 N146 1.347 . S
C145 H156 0.929 . S
N146 C144 1.375 . S
N146 C145 1.347 . S
C147 C150 1.365 . S
C147 N152 1.328 . S
C147 H153 0.929 . S
C148 C149 1.362 . S
C148 C151 1.378 . S
C148 H163 0.929 . S
C149 C148 1.362 . S
C149 C150 1.366 . S
C150 C147 1.365 . S
C150 C149 1.366 . S
C150 H164 0.930 . S
C151 C148 1.378 . S
C151 N152 1.315 . S
C151 H154 0.930 . S
N152 Co132 2.194 . S
N152 C147 1.328 . S
N152 C151 1.315 . S
H153 C147 0.929 . S
H154 C151 0.930 . S
H155 C143 0.929 . S
H156 C145 0.929 . S
O157 Co132 2.351 . S
O157 C160 1.244 . S
O158 Co132 2.155 . S
O158 C160 1.240 . S
O159 Co132 2.096 . S
O159 C140 1.247 . S
C160 O157 1.244 . S
C160 O158 1.240 . S
H161 C135 0.931 . S
H162 C144 0.931 . S
H163 C148 0.929 . S
H164 C150 0.930 . S
Co165 N169 2.148 . S
Co165 N175 2.128 . S
Co165 N185 2.194 . S
Co165 O190 2.351 . S
Co165 O191 2.155 . S
Co165 O192 2.096 . S
C166 N169 1.301 . S
C166 N170 1.328 . S
C166 H171 0.930 . S
C167 C168 1.333 . S
C167 N169 1.317 . S
C167 H172 0.930 . S
C168 C167 1.333 . S
C168 N170 1.350 . S
C168 H194 0.931 . S
N169 Co165 2.148 . S
N169 C166 1.301 . S
N169 C167 1.317 . S
N170 C166 1.328 . S
N170 C168 1.350 . S
H171 C166 0.930 . S
H172 C167 0.930 . S
C173 O174 1.224 . S
C173 O192 1.247 . S
O174 C173 1.224 . S
N175 Co165 2.128 . S
N175 C176 1.355 . S
N175 C178 1.311 . S
C176 N175 1.355 . S
C176 C177 1.363 . S
C176 H188 0.929 . S
C177 C176 1.363 . S
C177 N179 1.375 . S
C177 H195 0.931 . S
C178 N175 1.311 . S
C178 N179 1.347 . S
C178 H189 0.929 . S
N179 C177 1.375 . S
N179 C178 1.347 . S
C180 C183 1.365 . S
C180 N185 1.328 . S
C180 H186 0.929 . S
C181 C182 1.362 . S
C181 C184 1.378 . S
C181 H196 0.929 . S
C182 C181 1.362 . S
C182 C183 1.366 . S
C183 C180 1.365 . S
C183 C182 1.366 . S
C183 H197 0.930 . S
C184 C181 1.378 . S
C184 N185 1.315 . S
C184 H187 0.930 . S
N185 Co165 2.194 . S
N185 C180 1.328 . S
N185 C184 1.315 . S
H186 C180 0.929 . S
H187 C184 0.930 . S
H188 C176 0.929 . S
H189 C178 0.929 . S
O190 Co165 2.351 . S
O190 C193 1.244 . S
O191 Co165 2.155 . S
O191 C193 1.240 . S
O192 Co165 2.096 . S
O192 C173 1.247 . S
C193 O190 1.244 . S
C193 O191 1.240 . S
H194 C168 0.931 . S
H195 C177 0.931 . S
H196 C181 0.929 . S
H197 C183 0.930 . S
Co198 N202 2.148 . S
Co198 N208 2.128 . S
Co198 N218 2.194 . S
Co198 O223 2.351 . S
Co198 O224 2.155 . S
Co198 O225 2.096 . S
C199 N202 1.301 . S
C199 N203 1.328 . S
C199 H204 0.930 . S
C200 C201 1.333 . S
C200 N202 1.317 1_554 S
C200 H205 0.930 . S
C201 C200 1.333 . S
C201 N203 1.350 1_554 S
C201 H227 0.931 . S
N202 Co198 2.148 . S
N202 C199 1.301 . S
N202 C200 1.317 1_556 S
N203 C199 1.328 . S
N203 C201 1.350 1_556 S
H204 C199 0.930 . S
H205 C200 0.930 . S
C206 O207 1.224 . S
C206 O225 1.247 . S
O207 C206 1.224 . S
N208 Co198 2.128 . S
N208 C209 1.355 . S
N208 C211 1.311 . S
C209 N208 1.355 . S
C209 C210 1.363 . S
C209 H221 0.929 . S
C210 C209 1.363 . S
C210 N212 1.375 . S
C210 H228 0.931 . S
C211 N208 1.311 . S
C211 N212 1.347 . S
C211 H222 0.929 . S
N212 C210 1.375 . S
N212 C211 1.347 . S
C213 C216 1.365 . S
C213 N218 1.328 . S
C213 H219 0.929 . S
C214 C215 1.362 . S
C214 C217 1.378 . S
C214 H229 0.929 1_556 S
C215 C214 1.362 . S
C215 C216 1.366 . S
C216 C213 1.365 . S
C216 C215 1.366 . S
C216 H230 0.930 . S
C217 C214 1.378 . S
C217 N218 1.315 . S
C217 H220 0.930 . S
N218 Co198 2.194 . S
N218 C213 1.328 . S
N218 C217 1.315 . S
H219 C213 0.929 . S
H220 C217 0.930 . S
H221 C209 0.929 . S
H222 C211 0.929 . S
O223 Co198 2.351 . S
O223 C226 1.244 . S
O224 Co198 2.155 . S
O224 C226 1.240 . S
O225 Co198 2.096 . S
O225 C206 1.247 . S
C226 O223 1.244 . S
C226 O224 1.240 . S
H227 C201 0.931 . S
H228 C210 0.931 . S
H229 C214 0.929 1_554 S
H230 C216 0.930 . S
Co231 N235 2.148 . S
Co231 N241 2.128 . S
Co231 N251 2.194 . S
Co231 O256 2.351 . S
Co231 O257 2.155 . S
Co231 O258 2.096 . S
C232 N235 1.301 . S
C232 N236 1.328 . S
C232 H237 0.930 . S
C233 C234 1.333 . S
C233 N235 1.317 1_554 S
C233 H238 0.930 . S
C234 C233 1.333 . S
C234 N236 1.350 1_554 S
C234 H260 0.931 . S
N235 Co231 2.148 . S
N235 C232 1.301 . S
N235 C233 1.317 1_556 S
N236 C232 1.328 . S
N236 C234 1.350 1_556 S
H237 C232 0.930 . S
H238 C233 0.930 . S
C239 O240 1.224 . S
C239 O258 1.247 . S
O240 C239 1.224 . S
N241 Co231 2.128 . S
N241 C242 1.355 . S
N241 C244 1.311 . S
C242 N241 1.355 . S
C242 C243 1.363 . S
C242 H254 0.929 . S
C243 C242 1.363 . S
C243 N245 1.375 . S
C243 H261 0.931 . S
C244 N241 1.311 . S
C244 N245 1.347 . S
C244 H255 0.929 . S
N245 C243 1.375 . S
N245 C244 1.347 . S
C246 C249 1.365 . S
C246 N251 1.328 . S
C246 H252 0.929 . S
C247 C248 1.362 . S
C247 C250 1.378 . S
C247 H262 0.929 1_556 S
C248 C247 1.362 . S
C248 C249 1.366 . S
C249 C246 1.365 . S
C249 C248 1.366 . S
C249 H263 0.930 . S
C250 C247 1.378 . S
C250 N251 1.315 . S
C250 H253 0.930 . S
N251 Co231 2.194 . S
N251 C246 1.328 . S
N251 C250 1.315 . S
H252 C246 0.929 . S
H253 C250 0.930 . S
H254 C242 0.929 . S
H255 C244 0.929 . S
O256 Co231 2.351 . S
O256 C259 1.244 . S
O257 Co231 2.155 . S
O257 C259 1.240 . S
O258 Co231 2.096 . S
O258 C239 1.247 . S
C259 O256 1.244 . S
C259 O257 1.240 . S
H260 C234 0.931 . S
H261 C243 0.931 . S
H262 C247 0.929 1_554 S
H263 C249 0.930 . S
Co264 N268 2.148 . S
Co264 N274 2.128 . S
Co264 N284 2.194 . S
Co264 O289 2.351 . S
Co264 O290 2.155 . S
Co264 O291 2.096 . S
C265 N268 1.301 . S
C265 N269 1.328 . S
C265 H270 0.930 . S
C266 C267 1.333 . S
C266 N268 1.317 1_554 S
C266 H271 0.930 . S
C267 C266 1.333 . S
C267 N269 1.350 1_554 S
C267 H293 0.931 . S
N268 Co264 2.148 . S
N268 C265 1.301 . S
N268 C266 1.317 1_556 S
N269 C265 1.328 . S
N269 C267 1.350 1_556 S
H270 C265 0.930 . S
H271 C266 0.930 . S
C272 O273 1.224 . S
C272 O291 1.247 . S
O273 C272 1.224 . S
N274 Co264 2.128 . S
N274 C275 1.355 . S
N274 C277 1.311 . S
C275 N274 1.355 . S
C275 C276 1.363 . S
C275 H287 0.929 . S
C276 C275 1.363 . S
C276 N278 1.375 . S
C276 H294 0.931 . S
C277 N274 1.311 . S
C277 N278 1.347 . S
C277 H288 0.929 . S
N278 C276 1.375 . S
N278 C277 1.347 . S
C279 C282 1.365 . S
C279 N284 1.328 . S
C279 H285 0.929 . S
C280 C281 1.362 . S
C280 C283 1.378 . S
C280 H295 0.929 1_556 S
C281 C280 1.362 . S
C281 C282 1.366 . S
C282 C279 1.365 . S
C282 C281 1.366 . S
C282 H296 0.930 . S
C283 C280 1.378 . S
C283 N284 1.315 . S
C283 H286 0.930 . S
N284 Co264 2.194 . S
N284 C279 1.328 . S
N284 C283 1.315 . S
H285 C279 0.929 . S
H286 C283 0.930 . S
H287 C275 0.929 . S
H288 C277 0.929 . S
O289 Co264 2.351 . S
O289 C292 1.244 . S
O290 Co264 2.155 . S
O290 C292 1.240 . S
O291 Co264 2.096 . S
O291 C272 1.247 . S
C292 O289 1.244 . S
C292 O290 1.240 . S
H293 C267 0.931 . S
H294 C276 0.931 . S
H295 C280 0.929 1_554 S
H296 C282 0.930 . S
Co297 N301 2.148 . S
Co297 N307 2.128 . S
Co297 N317 2.194 . S
Co297 O322 2.351 . S
Co297 O323 2.155 . S
Co297 O324 2.096 . S
C298 N301 1.301 . S
C298 N302 1.328 . S
C298 H303 0.930 . S
C299 C300 1.333 . S
C299 N301 1.317 . S
C299 H304 0.930 . S
C300 C299 1.333 . S
C300 N302 1.350 . S
C300 H326 0.931 . S
N301 Co297 2.148 . S
N301 C298 1.301 . S
N301 C299 1.317 . S
N302 C298 1.328 . S
N302 C300 1.350 . S
H303 C298 0.930 . S
H304 C299 0.930 . S
C305 O306 1.224 . S
C305 O324 1.247 . S
O306 C305 1.224 . S
N307 Co297 2.128 . S
N307 C308 1.355 . S
N307 C310 1.311 . S
C308 N307 1.355 . S
C308 C309 1.363 . S
C308 H320 0.929 . S
C309 C308 1.363 . S
C309 N311 1.375 . S
C309 H327 0.931 . S
C310 N307 1.311 . S
C310 N311 1.347 . S
C310 H321 0.929 . S
N311 C309 1.375 . S
N311 C310 1.347 . S
C312 C315 1.365 . S
C312 N317 1.328 . S
C312 H318 0.929 . S
C313 C314 1.362 . S
C313 C316 1.378 . S
C313 H328 0.929 . S
C314 C313 1.362 . S
C314 C315 1.366 . S
C315 C312 1.365 . S
C315 C314 1.366 . S
C315 H329 0.930 . S
C316 C313 1.378 . S
C316 N317 1.315 . S
C316 H319 0.930 . S
N317 Co297 2.194 . S
N317 C312 1.328 . S
N317 C316 1.315 . S
H318 C312 0.929 . S
H319 C316 0.930 . S
H320 C308 0.929 . S
H321 C310 0.929 . S
O322 Co297 2.351 . S
O322 C325 1.244 . S
O323 Co297 2.155 . S
O323 C325 1.240 . S
O324 Co297 2.096 . S
O324 C305 1.247 . S
C325 O322 1.244 . S
C325 O323 1.240 . S
H326 C300 0.931 . S
H327 C309 0.931 . S
H328 C313 0.929 . S
H329 C315 0.930 . S
Co330 N334 2.148 . S
Co330 N340 2.128 . S
Co330 N350 2.194 . S
Co330 O355 2.351 . S
Co330 O356 2.155 . S
Co330 O357 2.096 . S
C331 N334 1.301 . S
C331 N335 1.328 . S
C331 H336 0.930 . S
C332 C333 1.333 . S
C332 N334 1.317 . S
C332 H337 0.930 . S
C333 C332 1.333 . S
C333 N335 1.350 . S
C333 H359 0.931 . S
N334 Co330 2.148 . S
N334 C331 1.301 . S
N334 C332 1.317 . S
N335 C331 1.328 . S
N335 C333 1.350 . S
H336 C331 0.930 . S
H337 C332 0.930 . S
C338 O339 1.224 . S
C338 O357 1.247 . S
O339 C338 1.224 . S
N340 Co330 2.128 . S
N340 C341 1.355 . S
N340 C343 1.311 . S
C341 N340 1.355 . S
C341 C342 1.363 . S
C341 H353 0.929 . S
C342 C341 1.363 . S
C342 N344 1.375 . S
C342 H360 0.931 . S
C343 N340 1.311 . S
C343 N344 1.347 . S
C343 H354 0.929 . S
N344 C342 1.375 . S
N344 C343 1.347 . S
C345 C348 1.365 . S
C345 N350 1.328 . S
C345 H351 0.929 . S
C346 C347 1.362 . S
C346 C349 1.378 . S
C346 H361 0.929 . S
C347 C346 1.362 . S
C347 C348 1.366 . S
C348 C345 1.365 . S
C348 C347 1.366 . S
C348 H362 0.930 . S
C349 C346 1.378 . S
C349 N350 1.315 . S
C349 H352 0.930 . S
N350 Co330 2.194 . S
N350 C345 1.328 . S
N350 C349 1.315 . S
H351 C345 0.929 . S
H352 C349 0.930 . S
H353 C341 0.929 . S
H354 C343 0.929 . S
O355 Co330 2.351 . S
O355 C358 1.244 . S
O356 Co330 2.155 . S
O356 C358 1.240 . S
O357 Co330 2.096 . S
O357 C338 1.247 . S
C358 O355 1.244 . S
C358 O356 1.240 . S
H359 C333 0.931 . S
H360 C342 0.931 . S
H361 C346 0.929 . S
H362 C348 0.930 . S
Co363 N367 2.148 . S
Co363 N373 2.128 . S
Co363 N383 2.194 . S
Co363 O388 2.351 . S
Co363 O389 2.155 . S
Co363 O390 2.096 . S
C364 N367 1.301 . S
C364 N368 1.328 . S
C364 H369 0.930 . S
C365 C366 1.333 . S
C365 N367 1.317 . S
C365 H370 0.930 . S
C366 C365 1.333 . S
C366 N368 1.350 . S
C366 H392 0.931 . S
N367 Co363 2.148 . S
N367 C364 1.301 . S
N367 C365 1.317 . S
N368 C364 1.328 . S
N368 C366 1.350 . S
H369 C364 0.930 . S
H370 C365 0.930 . S
C371 O372 1.224 . S
C371 O390 1.247 . S
O372 C371 1.224 . S
N373 Co363 2.128 . S
N373 C374 1.355 . S
N373 C376 1.311 . S
C374 N373 1.355 . S
C374 C375 1.363 . S
C374 H386 0.929 . S
C375 C374 1.363 . S
C375 N377 1.375 . S
C375 H393 0.931 . S
C376 N373 1.311 . S
C376 N377 1.347 . S
C376 H387 0.929 . S
N377 C375 1.375 . S
N377 C376 1.347 . S
C378 C381 1.365 . S
C378 N383 1.328 . S
C378 H384 0.929 . S
C379 C380 1.362 . S
C379 C382 1.378 . S
C379 H394 0.929 . S
C380 C379 1.362 . S
C380 C381 1.366 . S
C381 C378 1.365 . S
C381 C380 1.366 . S
C381 H395 0.930 . S
C382 C379 1.378 . S
C382 N383 1.315 . S
C382 H385 0.930 . S
N383 Co363 2.194 . S
N383 C378 1.328 . S
N383 C382 1.315 . S
H384 C378 0.929 . S
H385 C382 0.930 . S
H386 C374 0.929 . S
H387 C376 0.929 . S
O388 Co363 2.351 . S
O388 C391 1.244 . S
O389 Co363 2.155 . S
O389 C391 1.240 . S
O390 Co363 2.096 . S
O390 C371 1.247 . S
C391 O388 1.244 . S
C391 O389 1.240 . S
H392 C366 0.931 . S
H393 C375 0.931 . S
H394 C379 0.929 . S
H395 C381 0.930 . S
Co396 N400 2.148 . S
Co396 N406 2.128 . S
Co396 N416 2.194 . S
Co396 O421 2.351 . S
Co396 O422 2.155 . S
Co396 O423 2.096 . S
C397 N400 1.301 . S
C397 N401 1.328 . S
C397 H402 0.930 . S
C398 C399 1.333 . S
C398 N400 1.317 . S
C398 H403 0.930 . S
C399 C398 1.333 . S
C399 N401 1.350 . S
C399 H425 0.931 . S
N400 Co396 2.148 . S
N400 C397 1.301 . S
N400 C398 1.317 . S
N401 C397 1.328 . S
N401 C399 1.350 . S
H402 C397 0.930 . S
H403 C398 0.930 . S
C404 O405 1.224 . S
C404 O423 1.247 . S
O405 C404 1.224 . S
N406 Co396 2.128 . S
N406 C407 1.355 . S
N406 C409 1.311 . S
C407 N406 1.355 . S
C407 C408 1.363 . S
C407 H419 0.929 . S
C408 C407 1.363 . S
C408 N410 1.375 . S
C408 H426 0.931 . S
C409 N406 1.311 . S
C409 N410 1.347 . S
C409 H420 0.929 . S
N410 C408 1.375 . S
N410 C409 1.347 . S
C411 C414 1.365 . S
C411 N416 1.328 . S
C411 H417 0.929 . S
C412 C413 1.362 . S
C412 C415 1.378 . S
C412 H427 0.929 . S
C413 C412 1.362 . S
C413 C414 1.366 . S
C414 C411 1.365 . S
C414 C413 1.366 . S
C414 H428 0.930 . S
C415 C412 1.378 . S
C415 N416 1.315 . S
C415 H418 0.930 . S
N416 Co396 2.194 . S
N416 C411 1.328 . S
N416 C415 1.315 . S
H417 C411 0.929 . S
H418 C415 0.930 . S
H419 C407 0.929 . S
H420 C409 0.929 . S
O421 Co396 2.351 . S
O421 C424 1.244 . S
O422 Co396 2.155 . S
O422 C424 1.240 . S
O423 Co396 2.096 . S
O423 C404 1.247 . S
C424 O421 1.244 . S
C424 O422 1.240 . S
H425 C399 0.931 . S
H426 C408 0.931 . S
H427 C412 0.929 . S
H428 C414 0.930 . S
Co429 N433 2.148 . S
Co429 N439 2.128 . S
Co429 N449 2.194 . S
Co429 O454 2.351 . S
Co429 O455 2.155 . S
Co429 O456 2.096 . S
C430 N433 1.301 . S
C430 N434 1.328 . S
C430 H435 0.930 . S
C431 C432 1.333 . S
C431 N433 1.317 . S
C431 H436 0.930 . S
C432 C431 1.333 . S
C432 N434 1.350 . S
C432 H458 0.931 . S
N433 Co429 2.148 . S
N433 C430 1.301 . S
N433 C431 1.317 . S
N434 C430 1.328 . S
N434 C432 1.350 . S
H435 C430 0.930 . S
H436 C431 0.930 . S
C437 O438 1.224 . S
C437 O456 1.247 . S
O438 C437 1.224 . S
N439 Co429 2.128 . S
N439 C440 1.355 . S
N439 C442 1.311 . S
C440 N439 1.355 . S
C440 C441 1.363 . S
C440 H452 0.929 . S
C441 C440 1.363 . S
C441 N443 1.375 . S
C441 H459 0.931 . S
C442 N439 1.311 . S
C442 N443 1.347 . S
C442 H453 0.929 . S
N443 C441 1.375 . S
N443 C442 1.347 . S
C444 C447 1.365 . S
C444 N449 1.328 . S
C444 H450 0.929 . S
C445 C446 1.362 . S
C445 C448 1.378 . S
C445 H460 0.929 . S
C446 C445 1.362 . S
C446 C447 1.366 . S
C447 C444 1.365 . S
C447 C446 1.366 . S
C447 H461 0.930 . S
C448 C445 1.378 . S
C448 N449 1.315 . S
C448 H451 0.930 . S
N449 Co429 2.194 . S
N449 C444 1.328 . S
N449 C448 1.315 . S
H450 C444 0.929 . S
H451 C448 0.930 . S
H452 C440 0.929 . S
H453 C442 0.929 . S
O454 Co429 2.351 . S
O454 C457 1.244 . S
O455 Co429 2.155 . S
O455 C457 1.240 . S
O456 Co429 2.096 . S
O456 C437 1.247 . S
C457 O454 1.244 . S
C457 O455 1.240 . S
H458 C432 0.931 . S
H459 C441 0.931 . S
H460 C445 0.929 . S
H461 C447 0.930 . S
Co462 N466 2.148 . S
Co462 N472 2.128 . S
Co462 N482 2.194 . S
Co462 O487 2.351 . S
Co462 O488 2.155 . S
Co462 O489 2.096 . S
C463 N466 1.301 . S
C463 N467 1.328 . S
C463 H468 0.930 . S
C464 C465 1.333 . S
C464 N466 1.317 . S
C464 H469 0.930 . S
C465 C464 1.333 . S
C465 N467 1.350 . S
C465 H491 0.931 . S
N466 Co462 2.148 . S
N466 C463 1.301 . S
N466 C464 1.317 . S
N467 C463 1.328 . S
N467 C465 1.350 . S
H468 C463 0.930 . S
H469 C464 0.930 . S
C470 O471 1.224 . S
C470 O489 1.247 . S
O471 C470 1.224 . S
N472 Co462 2.128 . S
N472 C473 1.355 . S
N472 C475 1.311 . S
C473 N472 1.355 . S
C473 C474 1.363 . S
C473 H485 0.929 . S
C474 C473 1.363 . S
C474 N476 1.375 . S
C474 H492 0.931 . S
C475 N472 1.311 . S
C475 N476 1.347 . S
C475 H486 0.929 . S
N476 C474 1.375 . S
N476 C475 1.347 . S
C477 C480 1.365 . S
C477 N482 1.328 . S
C477 H483 0.929 . S
C478 C479 1.362 . S
C478 C481 1.378 . S
C478 H493 0.929 . S
C479 C478 1.362 . S
C479 C480 1.366 . S
C480 C477 1.365 . S
C480 C479 1.366 . S
C480 H494 0.930 . S
C481 C478 1.378 . S
C481 N482 1.315 . S
C481 H484 0.930 . S
N482 Co462 2.194 . S
N482 C477 1.328 . S
N482 C481 1.315 . S
H483 C477 0.929 . S
H484 C481 0.930 . S
H485 C473 0.929 . S
H486 C475 0.929 . S
O487 Co462 2.351 . S
O487 C490 1.244 . S
O488 Co462 2.155 . S
O488 C490 1.240 . S
O489 Co462 2.096 . S
O489 C470 1.247 . S
C490 O487 1.244 . S
C490 O488 1.240 . S
H491 C465 0.931 . S
H492 C474 0.931 . S
H493 C478 0.929 . S
H494 C480 0.930 . S
Co495 N499 2.148 . S
Co495 N505 2.128 . S
Co495 N515 2.194 . S
Co495 O520 2.351 . S
Co495 O521 2.155 . S
Co495 O522 2.096 . S
C496 N499 1.301 . S
C496 N500 1.328 . S
C496 H501 0.930 . S
C497 C498 1.333 . S
C497 N499 1.317 . S
C497 H502 0.930 . S
C498 C497 1.333 . S
C498 N500 1.350 . S
C498 H524 0.931 . S
N499 Co495 2.148 . S
N499 C496 1.301 . S
N499 C497 1.317 . S
N500 C496 1.328 . S
N500 C498 1.350 . S
H501 C496 0.930 . S
H502 C497 0.930 . S
C503 O504 1.224 . S
C503 O522 1.247 . S
O504 C503 1.224 . S
N505 Co495 2.128 . S
N505 C506 1.355 . S
N505 C508 1.311 . S
C506 N505 1.355 . S
C506 C507 1.363 . S
C506 H518 0.929 . S
C507 C506 1.363 . S
C507 N509 1.375 . S
C507 H525 0.931 . S
C508 N505 1.311 . S
C508 N509 1.347 . S
C508 H519 0.929 . S
N509 C507 1.375 . S
N509 C508 1.347 . S
C510 C513 1.365 . S
C510 N515 1.328 . S
C510 H516 0.929 . S
C511 C512 1.362 . S
C511 C514 1.378 . S
C511 H526 0.929 . S
C512 C511 1.362 . S
C512 C513 1.366 . S
C513 C510 1.365 . S
C513 C512 1.366 . S
C513 H527 0.930 . S
C514 C511 1.378 . S
C514 N515 1.315 . S
C514 H517 0.930 . S
N515 Co495 2.194 . S
N515 C510 1.328 . S
N515 C514 1.315 . S
H516 C510 0.929 . S
H517 C514 0.930 . S
H518 C506 0.929 . S
H519 C508 0.929 . S
O520 Co495 2.351 . S
O520 C523 1.244 . S
O521 Co495 2.155 . S
O521 C523 1.240 . S
O522 Co495 2.096 . S
O522 C503 1.247 . S
C523 O520 1.244 . S
C523 O521 1.240 . S
H524 C498 0.931 . S
H525 C507 0.931 . S
H526 C511 0.929 . S
H527 C513 0.930 . S
Co528 N532 2.148 . S
Co528 N538 2.128 . S
Co528 N548 2.194 . S
Co528 O553 2.351 . S
Co528 O554 2.155 . S
Co528 O555 2.096 . S
C529 N532 1.301 . S
C529 N533 1.328 . S
C529 H534 0.930 . S
C530 C531 1.333 . S
C530 N532 1.317 . S
C530 H535 0.930 . S
C531 C530 1.333 . S
C531 N533 1.350 . S
C531 H557 0.931 . S
N532 Co528 2.148 . S
N532 C529 1.301 . S
N532 C530 1.317 . S
N533 C529 1.328 . S
N533 C531 1.350 . S
H534 C529 0.930 . S
H535 C530 0.930 . S
C536 O537 1.224 . S
C536 O555 1.247 . S
O537 C536 1.224 . S
N538 Co528 2.128 . S
N538 C539 1.355 . S
N538 C541 1.311 . S
C539 N538 1.355 . S
C539 C540 1.363 . S
C539 H551 0.929 . S
C540 C539 1.363 . S
C540 N542 1.375 . S
C540 H558 0.931 . S
C541 N538 1.311 . S
C541 N542 1.347 . S
C541 H552 0.929 . S
N542 C540 1.375 . S
N542 C541 1.347 . S
C543 C546 1.365 . S
C543 N548 1.328 . S
C543 H549 0.929 . S
C544 C545 1.362 . S
C544 C547 1.378 . S
C544 H559 0.929 . S
C545 C544 1.362 . S
C545 C546 1.366 . S
C546 C543 1.365 . S
C546 C545 1.366 . S
C546 H560 0.930 . S
C547 C544 1.378 . S
C547 N548 1.315 . S
C547 H550 0.930 . S
N548 Co528 2.194 . S
N548 C543 1.328 . S
N548 C547 1.315 . S
H549 C543 0.929 . S
H550 C547 0.930 . S
H551 C539 0.929 . S
H552 C541 0.929 . S
O553 Co528 2.351 . S
O553 C556 1.244 . S
O554 Co528 2.155 . S
O554 C556 1.240 . S
O555 Co528 2.096 . S
O555 C536 1.247 . S
C556 O553 1.244 . S
C556 O554 1.240 . S
H557 C531 0.931 . S
H558 C540 0.931 . S
H559 C544 0.929 . S
H560 C546 0.930 . S
Co561 N565 2.148 . S
Co561 N571 2.128 . S
Co561 N581 2.194 . S
Co561 O586 2.351 . S
Co561 O587 2.155 . S
Co561 O588 2.096 . S
C562 N565 1.301 . S
C562 N566 1.328 . S
C562 H567 0.930 . S
C563 C564 1.333 . S
C563 N565 1.317 . S
C563 H568 0.930 . S
C564 C563 1.333 . S
C564 N566 1.350 . S
C564 H590 0.931 . S
N565 Co561 2.148 . S
N565 C562 1.301 . S
N565 C563 1.317 . S
N566 C562 1.328 . S
N566 C564 1.350 . S
H567 C562 0.930 . S
H568 C563 0.930 . S
C569 O570 1.224 . S
C569 O588 1.247 . S
O570 C569 1.224 . S
N571 Co561 2.128 . S
N571 C572 1.355 . S
N571 C574 1.311 . S
C572 N571 1.355 . S
C572 C573 1.363 . S
C572 H584 0.929 . S
C573 C572 1.363 . S
C573 N575 1.375 . S
C573 H591 0.931 . S
C574 N571 1.311 . S
C574 N575 1.347 . S
C574 H585 0.929 . S
N575 C573 1.375 . S
N575 C574 1.347 . S
C576 C579 1.365 . S
C576 N581 1.328 . S
C576 H582 0.929 . S
C577 C578 1.362 . S
C577 C580 1.378 . S
C577 H592 0.929 . S
C578 C577 1.362 . S
C578 C579 1.366 . S
C579 C576 1.365 . S
C579 C578 1.366 . S
C579 H593 0.930 . S
C580 C577 1.378 . S
C580 N581 1.315 . S
C580 H583 0.930 . S
N581 Co561 2.194 . S
N581 C576 1.328 . S
N581 C580 1.315 . S
H582 C576 0.929 . S
H583 C580 0.930 . S
H584 C572 0.929 . S
H585 C574 0.929 . S
O586 Co561 2.351 . S
O586 C589 1.244 . S
O587 Co561 2.155 . S
O587 C589 1.240 . S
O588 Co561 2.096 . S
O588 C569 1.247 . S
C589 O586 1.244 . S
C589 O587 1.240 . S
H590 C564 0.931 . S
H591 C573 0.931 . S
H592 C577 0.929 . S
H593 C579 0.930 . S
Co594 N598 2.148 . S
Co594 N604 2.128 . S
Co594 N614 2.194 . S
Co594 O619 2.351 . S
Co594 O620 2.155 . S
Co594 O621 2.096 . S
C595 N598 1.301 . S
C595 N599 1.328 . S
C595 H600 0.930 . S
C596 C597 1.333 . S
C596 N598 1.317 . S
C596 H601 0.930 . S
C597 C596 1.333 . S
C597 N599 1.350 . S
C597 H623 0.931 . S
N598 Co594 2.148 . S
N598 C595 1.301 . S
N598 C596 1.317 . S
N599 C595 1.328 . S
N599 C597 1.350 . S
H600 C595 0.930 . S
H601 C596 0.930 . S
C602 O603 1.224 . S
C602 O621 1.247 . S
O603 C602 1.224 . S
N604 Co594 2.128 . S
N604 C605 1.355 . S
N604 C607 1.311 . S
C605 N604 1.355 . S
C605 C606 1.363 . S
C605 H617 0.929 . S
C606 C605 1.363 . S
C606 N608 1.375 . S
C606 H624 0.931 . S
C607 N604 1.311 . S
C607 N608 1.347 . S
C607 H618 0.929 . S
N608 C606 1.375 . S
N608 C607 1.347 . S
C609 C612 1.365 . S
C609 N614 1.328 . S
C609 H615 0.929 . S
C610 C611 1.362 . S
C610 C613 1.378 . S
C610 H625 0.929 . S
C611 C610 1.362 . S
C611 C612 1.366 . S
C612 C609 1.365 . S
C612 C611 1.366 . S
C612 H626 0.930 . S
C613 C610 1.378 . S
C613 N614 1.315 . S
C613 H616 0.930 . S
N614 Co594 2.194 . S
N614 C609 1.328 . S
N614 C613 1.315 . S
H615 C609 0.929 . S
H616 C613 0.930 . S
H617 C605 0.929 . S
H618 C607 0.929 . S
O619 Co594 2.351 . S
O619 C622 1.244 . S
O620 Co594 2.155 . S
O620 C622 1.240 . S
O621 Co594 2.096 . S
O621 C602 1.247 . S
C622 O619 1.244 . S
C622 O620 1.240 . S
H623 C597 0.931 . S
H624 C606 0.931 . S
H625 C610 0.929 . S
H626 C612 0.930 . S
Co627 N631 2.148 . S
Co627 N637 2.128 . S
Co627 N647 2.194 . S
Co627 O652 2.351 . S
Co627 O653 2.155 . S
Co627 O654 2.096 . S
C628 N631 1.301 . S
C628 N632 1.328 . S
C628 H633 0.930 . S
C629 C630 1.333 . S
C629 N631 1.317 . S
C629 H634 0.930 . S
C630 C629 1.333 . S
C630 N632 1.350 . S
C630 H656 0.931 . S
N631 Co627 2.148 . S
N631 C628 1.301 . S
N631 C629 1.317 . S
N632 C628 1.328 . S
N632 C630 1.350 . S
H633 C628 0.930 . S
H634 C629 0.930 . S
C635 O636 1.224 . S
C635 O654 1.247 . S
O636 C635 1.224 . S
N637 Co627 2.128 . S
N637 C638 1.355 . S
N637 C640 1.311 . S
C638 N637 1.355 . S
C638 C639 1.363 . S
C638 H650 0.929 . S
C639 C638 1.363 . S
C639 N641 1.375 . S
C639 H657 0.931 . S
C640 N637 1.311 . S
C640 N641 1.347 . S
C640 H651 0.929 . S
N641 C639 1.375 . S
N641 C640 1.347 . S
C642 C645 1.365 . S
C642 N647 1.328 . S
C642 H648 0.929 . S
C643 C644 1.362 . S
C643 C646 1.378 . S
C643 H658 0.929 . S
C644 C643 1.362 . S
C644 C645 1.366 . S
C645 C642 1.365 . S
C645 C644 1.366 . S
C645 H659 0.930 . S
C646 C643 1.378 . S
C646 N647 1.315 . S
C646 H649 0.930 . S
N647 Co627 2.194 . S
N647 C642 1.328 . S
N647 C646 1.315 . S
H648 C642 0.929 . S
H649 C646 0.930 . S
H650 C638 0.929 . S
H651 C640 0.929 . S
O652 Co627 2.351 . S
O652 C655 1.244 . S
O653 Co627 2.155 . S
O653 C655 1.240 . S
O654 Co627 2.096 . S
O654 C635 1.247 . S
C655 O652 1.244 . S
C655 O653 1.240 . S
H656 C630 0.931 . S
H657 C639 0.931 . S
H658 C643 0.929 . S
H659 C645 0.930 . S
Co660 N664 2.148 . S
Co660 N670 2.128 . S
Co660 N680 2.194 . S
Co660 O685 2.351 . S
Co660 O686 2.155 . S
Co660 O687 2.096 . S
C661 N664 1.301 . S
C661 N665 1.328 . S
C661 H666 0.930 . S
C662 C663 1.333 . S
C662 N664 1.317 . S
C662 H667 0.930 . S
C663 C662 1.333 . S
C663 N665 1.350 . S
C663 H689 0.931 . S
N664 Co660 2.148 . S
N664 C661 1.301 . S
N664 C662 1.317 . S
N665 C661 1.328 . S
N665 C663 1.350 . S
H666 C661 0.930 . S
H667 C662 0.930 . S
C668 O669 1.224 . S
C668 O687 1.247 . S
O669 C668 1.224 . S
N670 Co660 2.128 . S
N670 C671 1.355 . S
N670 C673 1.311 . S
C671 N670 1.355 . S
C671 C672 1.363 . S
C671 H683 0.929 . S
C672 C671 1.363 . S
C672 N674 1.375 . S
C672 H690 0.931 . S
C673 N670 1.311 . S
C673 N674 1.347 . S
C673 H684 0.929 . S
N674 C672 1.375 . S
N674 C673 1.347 . S
C675 C678 1.365 . S
C675 N680 1.328 . S
C675 H681 0.929 . S
C676 C677 1.362 . S
C676 C679 1.378 . S
C676 H691 0.929 . S
C677 C676 1.362 . S
C677 C678 1.366 . S
C678 C675 1.365 . S
C678 C677 1.366 . S
C678 H692 0.930 . S
C679 C676 1.378 . S
C679 N680 1.315 . S
C679 H682 0.930 . S
N680 Co660 2.194 . S
N680 C675 1.328 . S
N680 C679 1.315 . S
H681 C675 0.929 . S
H682 C679 0.930 . S
H683 C671 0.929 . S
H684 C673 0.929 . S
O685 Co660 2.351 . S
O685 C688 1.244 . S
O686 Co660 2.155 . S
O686 C688 1.240 . S
O687 Co660 2.096 . S
O687 C668 1.247 . S
C688 O685 1.244 . S
C688 O686 1.240 . S
H689 C663 0.931 . S
H690 C672 0.931 . S
H691 C676 0.929 . S
H692 C678 0.930 . S
Co693 N697 2.148 . S
Co693 N703 2.128 . S
Co693 N713 2.194 . S
Co693 O718 2.351 . S
Co693 O719 2.155 . S
Co693 O720 2.096 . S
C694 N697 1.301 . S
C694 N698 1.328 . S
C694 H699 0.930 . S
C695 C696 1.333 . S
C695 N697 1.317 . S
C695 H700 0.930 . S
C696 C695 1.333 . S
C696 N698 1.350 . S
C696 H722 0.931 . S
N697 Co693 2.148 . S
N697 C694 1.301 . S
N697 C695 1.317 . S
N698 C694 1.328 . S
N698 C696 1.350 . S
H699 C694 0.930 . S
H700 C695 0.930 . S
C701 O702 1.224 . S
C701 O720 1.247 . S
O702 C701 1.224 . S
N703 Co693 2.128 . S
N703 C704 1.355 . S
N703 C706 1.311 . S
C704 N703 1.355 . S
C704 C705 1.363 . S
C704 H716 0.929 . S
C705 C704 1.363 . S
C705 N707 1.375 . S
C705 H723 0.931 . S
C706 N703 1.311 . S
C706 N707 1.347 . S
C706 H717 0.929 . S
N707 C705 1.375 . S
N707 C706 1.347 . S
C708 C711 1.365 . S
C708 N713 1.328 . S
C708 H714 0.929 . S
C709 C710 1.362 . S
C709 C712 1.378 . S
C709 H724 0.929 . S
C710 C709 1.362 . S
C710 C711 1.366 . S
C711 C708 1.365 . S
C711 C710 1.366 . S
C711 H725 0.930 . S
C712 C709 1.378 . S
C712 N713 1.315 . S
C712 H715 0.930 . S
N713 Co693 2.194 . S
N713 C708 1.328 . S
N713 C712 1.315 . S
H714 C708 0.929 . S
H715 C712 0.930 . S
H716 C704 0.929 . S
H717 C706 0.929 . S
O718 Co693 2.351 . S
O718 C721 1.244 . S
O719 Co693 2.155 . S
O719 C721 1.240 . S
O720 Co693 2.096 . S
O720 C701 1.247 . S
C721 O718 1.244 . S
C721 O719 1.240 . S
H722 C696 0.931 . S
H723 C705 0.931 . S
H724 C709 0.929 . S
H725 C711 0.930 . S
Co726 N730 2.148 . S
Co726 N736 2.128 . S
Co726 N746 2.194 . S
Co726 O751 2.351 . S
Co726 O752 2.155 . S
Co726 O753 2.096 . S
C727 N730 1.301 . S
C727 N731 1.328 . S
C727 H732 0.930 . S
C728 C729 1.333 . S
C728 N730 1.317 . S
C728 H733 0.930 . S
C729 C728 1.333 . S
C729 N731 1.350 . S
C729 H755 0.931 . S
N730 Co726 2.148 . S
N730 C727 1.301 . S
N730 C728 1.317 . S
N731 C727 1.328 . S
N731 C729 1.350 . S
H732 C727 0.930 . S
H733 C728 0.930 . S
C734 O735 1.224 . S
C734 O753 1.247 . S
O735 C734 1.224 . S
N736 Co726 2.128 . S
N736 C737 1.355 . S
N736 C739 1.311 . S
C737 N736 1.355 . S
C737 C738 1.363 . S
C737 H749 0.929 . S
C738 C737 1.363 . S
C738 N740 1.375 . S
C738 H756 0.931 . S
C739 N736 1.311 . S
C739 N740 1.347 . S
C739 H750 0.929 . S
N740 C738 1.375 . S
N740 C739 1.347 . S
C741 C744 1.365 . S
C741 N746 1.328 . S
C741 H747 0.929 . S
C742 C743 1.362 . S
C742 C745 1.378 . S
C742 H757 0.929 . S
C743 C742 1.362 . S
C743 C744 1.366 . S
C744 C741 1.365 . S
C744 C743 1.366 . S
C744 H758 0.930 . S
C745 C742 1.378 . S
C745 N746 1.315 . S
C745 H748 0.930 . S
N746 Co726 2.194 . S
N746 C741 1.328 . S
N746 C745 1.315 . S
H747 C741 0.929 . S
H748 C745 0.930 . S
H749 C737 0.929 . S
H750 C739 0.929 . S
O751 Co726 2.351 . S
O751 C754 1.244 . S
O752 Co726 2.155 . S
O752 C754 1.240 . S
O753 Co726 2.096 . S
O753 C734 1.247 . S
C754 O751 1.244 . S
C754 O752 1.240 . S
H755 C729 0.931 . S
H756 C738 0.931 . S
H757 C742 0.929 . S
H758 C744 0.930 . S
Co759 N763 2.148 . S
Co759 N769 2.128 . S
Co759 N779 2.194 . S
Co759 O784 2.351 . S
Co759 O785 2.155 . S
Co759 O786 2.096 . S
C760 N763 1.301 . S
C760 N764 1.328 . S
C760 H765 0.930 . S
C761 C762 1.333 . S
C761 N763 1.317 . S
C761 H766 0.930 . S
C762 C761 1.333 . S
C762 N764 1.350 . S
C762 H788 0.931 . S
N763 Co759 2.148 . S
N763 C760 1.301 . S
N763 C761 1.317 . S
N764 C760 1.328 . S
N764 C762 1.350 . S
H765 C760 0.930 . S
H766 C761 0.930 . S
C767 O768 1.224 . S
C767 O786 1.247 . S
O768 C767 1.224 . S
N769 Co759 2.128 . S
N769 C770 1.355 . S
N769 C772 1.311 . S
C770 N769 1.355 . S
C770 C771 1.363 . S
C770 H782 0.929 . S
C771 C770 1.363 . S
C771 N773 1.375 . S
C771 H789 0.931 . S
C772 N769 1.311 . S
C772 N773 1.347 . S
C772 H783 0.929 . S
N773 C771 1.375 . S
N773 C772 1.347 . S
C774 C777 1.365 . S
C774 N779 1.328 . S
C774 H780 0.929 . S
C775 C776 1.362 . S
C775 C778 1.378 . S
C775 H790 0.929 . S
C776 C775 1.362 . S
C776 C777 1.366 . S
C777 C774 1.365 . S
C777 C776 1.366 . S
C777 H791 0.930 . S
C778 C775 1.378 . S
C778 N779 1.315 . S
C778 H781 0.930 . S
N779 Co759 2.194 . S
N779 C774 1.328 . S
N779 C778 1.315 . S
H780 C774 0.929 . S
H781 C778 0.930 . S
H782 C770 0.929 . S
H783 C772 0.929 . S
O784 Co759 2.351 . S
O784 C787 1.244 . S
O785 Co759 2.155 . S
O785 C787 1.240 . S
O786 Co759 2.096 . S
O786 C767 1.247 . S
C787 O784 1.244 . S
C787 O785 1.240 . S
H788 C762 0.931 . S
H789 C771 0.931 . S
H790 C775 0.929 . S
H791 C777 0.930 . S
Co792 N796 2.148 . S
Co792 N802 2.128 . S
Co792 N812 2.194 . S
Co792 O817 2.351 . S
Co792 O818 2.155 . S
Co792 O819 2.096 . S
C793 N796 1.301 . S
C793 N797 1.328 . S
C793 H798 0.930 . S
C794 C795 1.333 . S
C794 N796 1.317 . S
C794 H799 0.930 . S
C795 C794 1.333 . S
C795 N797 1.350 . S
C795 H821 0.931 . S
N796 Co792 2.148 . S
N796 C793 1.301 . S
N796 C794 1.317 . S
N797 C793 1.328 . S
N797 C795 1.350 . S
H798 C793 0.930 . S
H799 C794 0.930 . S
C800 O801 1.224 . S
C800 O819 1.247 . S
O801 C800 1.224 . S
N802 Co792 2.128 . S
N802 C803 1.355 . S
N802 C805 1.311 . S
C803 N802 1.355 . S
C803 C804 1.363 . S
C803 H815 0.929 . S
C804 C803 1.363 . S
C804 N806 1.375 . S
C804 H822 0.931 . S
C805 N802 1.311 . S
C805 N806 1.347 . S
C805 H816 0.929 . S
N806 C804 1.375 . S
N806 C805 1.347 . S
C807 C810 1.365 . S
C807 N812 1.328 . S
C807 H813 0.929 . S
C808 C809 1.362 . S
C808 C811 1.378 . S
C808 H823 0.929 . S
C809 C808 1.362 . S
C809 C810 1.366 . S
C810 C807 1.365 . S
C810 C809 1.366 . S
C810 H824 0.930 . S
C811 C808 1.378 . S
C811 N812 1.315 . S
C811 H814 0.930 . S
N812 Co792 2.194 . S
N812 C807 1.328 . S
N812 C811 1.315 . S
H813 C807 0.929 . S
H814 C811 0.930 . S
H815 C803 0.929 . S
H816 C805 0.929 . S
O817 Co792 2.351 . S
O817 C820 1.244 . S
O818 Co792 2.155 . S
O818 C820 1.240 . S
O819 Co792 2.096 . S
O819 C800 1.247 . S
C820 O817 1.244 . S
C820 O818 1.240 . S
H821 C795 0.931 . S
H822 C804 0.931 . S
H823 C808 0.929 . S
H824 C810 0.930 . S
Co825 N829 2.148 . S
Co825 N835 2.128 . S
Co825 N845 2.194 . S
Co825 O850 2.351 . S
Co825 O851 2.155 . S
Co825 O852 2.096 . S
C826 N829 1.301 . S
C826 N830 1.328 . S
C826 H831 0.930 . S
C827 C828 1.333 . S
C827 N829 1.317 . S
C827 H832 0.930 . S
C828 C827 1.333 . S
C828 N830 1.350 . S
C828 H854 0.931 . S
N829 Co825 2.148 . S
N829 C826 1.301 . S
N829 C827 1.317 . S
N830 C826 1.328 . S
N830 C828 1.350 . S
H831 C826 0.930 . S
H832 C827 0.930 . S
C833 O834 1.224 . S
C833 O852 1.247 . S
O834 C833 1.224 . S
N835 Co825 2.128 . S
N835 C836 1.355 . S
N835 C838 1.311 . S
C836 N835 1.355 . S
C836 C837 1.363 . S
C836 H848 0.929 . S
C837 C836 1.363 . S
C837 N839 1.375 . S
C837 H855 0.931 . S
C838 N835 1.311 . S
C838 N839 1.347 . S
C838 H849 0.929 . S
N839 C837 1.375 . S
N839 C838 1.347 . S
C840 C843 1.365 . S
C840 N845 1.328 . S
C840 H846 0.929 . S
C841 C842 1.362 . S
C841 C844 1.378 . S
C841 H856 0.929 . S
C842 C841 1.362 . S
C842 C843 1.366 . S
C843 C840 1.365 . S
C843 C842 1.366 . S
C843 H857 0.930 . S
C844 C841 1.378 . S
C844 N845 1.315 . S
C844 H847 0.930 . S
N845 Co825 2.194 . S
N845 C840 1.328 . S
N845 C844 1.315 . S
H846 C840 0.929 . S
H847 C844 0.930 . S
H848 C836 0.929 . S
H849 C838 0.929 . S
O850 Co825 2.351 . S
O850 C853 1.244 . S
O851 Co825 2.155 . S
O851 C853 1.240 . S
O852 Co825 2.096 . S
O852 C833 1.247 . S
C853 O850 1.244 . S
C853 O851 1.240 . S
H854 C828 0.931 . S
H855 C837 0.931 . S
H856 C841 0.929 . S
H857 C843 0.930 . S
Co858 N862 2.148 . S
Co858 N868 2.128 . S
Co858 N878 2.194 . S
Co858 O883 2.351 . S
Co858 O884 2.155 . S
Co858 O885 2.096 . S
C859 N862 1.301 . S
C859 N863 1.328 . S
C859 H864 0.930 . S
C860 C861 1.333 . S
C860 N862 1.317 . S
C860 H865 0.930 . S
C861 C860 1.333 . S
C861 N863 1.350 . S
C861 H887 0.931 . S
N862 Co858 2.148 . S
N862 C859 1.301 . S
N862 C860 1.317 . S
N863 C859 1.328 . S
N863 C861 1.350 . S
H864 C859 0.930 . S
H865 C860 0.930 . S
C866 O867 1.224 . S
C866 O885 1.247 . S
O867 C866 1.224 . S
N868 Co858 2.128 . S
N868 C869 1.355 . S
N868 C871 1.311 . S
C869 N868 1.355 . S
C869 C870 1.363 . S
C869 H881 0.929 . S
C870 C869 1.363 . S
C870 N872 1.375 . S
C870 H888 0.931 . S
C871 N868 1.311 . S
C871 N872 1.347 . S
C871 H882 0.929 . S
N872 C870 1.375 . S
N872 C871 1.347 . S
C873 C876 1.365 . S
C873 N878 1.328 . S
C873 H879 0.929 . S
C874 C875 1.362 . S
C874 C877 1.378 . S
C874 H889 0.929 . S
C875 C874 1.362 . S
C875 C876 1.366 . S
C876 C873 1.365 . S
C876 C875 1.366 . S
C876 H890 0.930 . S
C877 C874 1.378 . S
C877 N878 1.315 . S
C877 H880 0.930 . S
N878 Co858 2.194 . S
N878 C873 1.328 . S
N878 C877 1.315 . S
H879 C873 0.929 . S
H880 C877 0.930 . S
H881 C869 0.929 . S
H882 C871 0.929 . S
O883 Co858 2.351 . S
O883 C886 1.244 . S
O884 Co858 2.155 . S
O884 C886 1.240 . S
O885 Co858 2.096 . S
O885 C866 1.247 . S
C886 O883 1.244 . S
C886 O884 1.240 . S
H887 C861 0.931 . S
H888 C870 0.931 . S
H889 C874 0.929 . S
H890 C876 0.930 . S
Co891 N895 2.148 . S
Co891 N901 2.128 . S
Co891 N911 2.194 . S
Co891 O916 2.351 . S
Co891 O917 2.155 . S
Co891 O918 2.096 . S
C892 N895 1.301 . S
C892 N896 1.328 . S
C892 H897 0.930 . S
C893 C894 1.333 . S
C893 N895 1.317 . S
C893 H898 0.930 . S
C894 C893 1.333 . S
C894 N896 1.350 . S
C894 H920 0.931 . S
N895 Co891 2.148 . S
N895 C892 1.301 . S
N895 C893 1.317 . S
N896 C892 1.328 . S
N896 C894 1.350 . S
H897 C892 0.930 . S
H898 C893 0.930 . S
C899 O900 1.224 . S
C899 O918 1.247 . S
O900 C899 1.224 . S
N901 Co891 2.128 . S
N901 C902 1.355 . S
N901 C904 1.311 . S
C902 N901 1.355 . S
C902 C903 1.363 . S
C902 H914 0.929 . S
C903 C902 1.363 . S
C903 N905 1.375 . S
C903 H921 0.931 . S
C904 N901 1.311 . S
C904 N905 1.347 . S
C904 H915 0.929 . S
N905 C903 1.375 . S
N905 C904 1.347 . S
C906 C909 1.365 . S
C906 N911 1.328 . S
C906 H912 0.929 . S
C907 C908 1.362 . S
C907 C910 1.378 . S
C907 H922 0.929 . S
C908 C907 1.362 . S
C908 C909 1.366 . S
C909 C906 1.365 . S
C909 C908 1.366 . S
C909 H923 0.930 . S
C910 C907 1.378 . S
C910 N911 1.315 . S
C910 H913 0.930 . S
N911 Co891 2.194 . S
N911 C906 1.328 . S
N911 C910 1.315 . S
H912 C906 0.929 . S
H913 C910 0.930 . S
H914 C902 0.929 . S
H915 C904 0.929 . S
O916 Co891 2.351 . S
O916 C919 1.244 . S
O917 Co891 2.155 . S
O917 C919 1.240 . S
O918 Co891 2.096 . S
O918 C899 1.247 . S
C919 O916 1.244 . S
C919 O917 1.240 . S
H920 C894 0.931 . S
H921 C903 0.931 . S
H922 C907 0.929 . S
H923 C909 0.930 . S
Co924 N928 2.148 . S
Co924 N934 2.128 . S
Co924 N944 2.194 . S
Co924 O949 2.351 . S
Co924 O950 2.155 . S
Co924 O951 2.096 . S
C925 N928 1.301 . S
C925 N929 1.328 . S
C925 H930 0.930 . S
C926 C927 1.333 . S
C926 N928 1.317 . S
C926 H931 0.930 . S
C927 C926 1.333 . S
C927 N929 1.350 . S
C927 H953 0.931 . S
N928 Co924 2.148 . S
N928 C925 1.301 . S
N928 C926 1.317 . S
N929 C925 1.328 . S
N929 C927 1.350 . S
H930 C925 0.930 . S
H931 C926 0.930 . S
C932 O933 1.224 . S
C932 O951 1.247 . S
O933 C932 1.224 . S
N934 Co924 2.128 . S
N934 C935 1.355 . S
N934 C937 1.311 . S
C935 N934 1.355 . S
C935 C936 1.363 . S
C935 H947 0.929 . S
C936 C935 1.363 . S
C936 N938 1.375 . S
C936 H954 0.931 . S
C937 N934 1.311 . S
C937 N938 1.347 . S
C937 H948 0.929 . S
N938 C936 1.375 . S
N938 C937 1.347 . S
C939 C942 1.365 . S
C939 N944 1.328 . S
C939 H945 0.929 . S
C940 C941 1.362 . S
C940 C943 1.378 . S
C940 H955 0.929 . S
C941 C940 1.362 . S
C941 C942 1.366 . S
C942 C939 1.365 . S
C942 C941 1.366 . S
C942 H956 0.930 . S
C943 C940 1.378 . S
C943 N944 1.315 . S
C943 H946 0.930 . S
N944 Co924 2.194 . S
N944 C939 1.328 . S
N944 C943 1.315 . S
H945 C939 0.929 . S
H946 C943 0.930 . S
H947 C935 0.929 . S
H948 C937 0.929 . S
O949 Co924 2.351 . S
O949 C952 1.244 . S
O950 Co924 2.155 . S
O950 C952 1.240 . S
O951 Co924 2.096 . S
O951 C932 1.247 . S
C952 O949 1.244 . S
C952 O950 1.240 . S
H953 C927 0.931 . S
H954 C936 0.931 . S
H955 C940 0.929 . S
H956 C942 0.930 . S
Co957 N961 2.148 . S
Co957 N967 2.128 . S
Co957 N977 2.194 . S
Co957 O982 2.351 . S
Co957 O983 2.155 . S
Co957 O984 2.096 . S
C958 N961 1.301 . S
C958 N962 1.328 . S
C958 H963 0.930 . S
C959 C960 1.333 . S
C959 N961 1.317 . S
C959 H964 0.930 . S
C960 C959 1.333 . S
C960 N962 1.350 . S
C960 H986 0.931 . S
N961 Co957 2.148 . S
N961 C958 1.301 . S
N961 C959 1.317 . S
N962 C958 1.328 . S
N962 C960 1.350 . S
H963 C958 0.930 . S
H964 C959 0.930 . S
C965 O966 1.224 . S
C965 O984 1.247 . S
O966 C965 1.224 . S
N967 Co957 2.128 . S
N967 C968 1.355 . S
N967 C970 1.311 . S
C968 N967 1.355 . S
C968 C969 1.363 . S
C968 H980 0.929 . S
C969 C968 1.363 . S
C969 N971 1.375 . S
C969 H987 0.931 . S
C970 N967 1.311 . S
C970 N971 1.347 . S
C970 H981 0.929 . S
N971 C969 1.375 . S
N971 C970 1.347 . S
C972 C975 1.365 . S
C972 N977 1.328 . S
C972 H978 0.929 . S
C973 C974 1.362 . S
C973 C976 1.378 . S
C973 H988 0.929 . S
C974 C973 1.362 . S
C974 C975 1.366 . S
C975 C972 1.365 . S
C975 C974 1.366 . S
C975 H989 0.930 . S
C976 C973 1.378 . S
C976 N977 1.315 . S
C976 H979 0.930 . S
N977 Co957 2.194 . S
N977 C972 1.328 . S
N977 C976 1.315 . S
H978 C972 0.929 . S
H979 C976 0.930 . S
H980 C968 0.929 . S
H981 C970 0.929 . S
O982 Co957 2.351 . S
O982 C985 1.244 . S
O983 Co957 2.155 . S
O983 C985 1.240 . S
O984 Co957 2.096 . S
O984 C965 1.247 . S
C985 O982 1.244 . S
C985 O983 1.240 . S
H986 C960 0.931 . S
H987 C969 0.931 . S
H988 C973 0.929 . S
H989 C975 0.930 . S
Co990 N994 2.148 . S
Co990 N1000 2.128 . S
Co990 N1010 2.194 . S
Co990 O1015 2.351 . S
Co990 O1016 2.155 . S
Co990 O1017 2.096 . S
C991 N994 1.301 . S
C991 N995 1.328 . S
C991 H996 0.930 . S
C992 C993 1.333 . S
C992 N994 1.317 . S
C992 H997 0.930 . S
C993 C992 1.333 . S
C993 N995 1.350 . S
C993 H1019 0.931 . S
N994 Co990 2.148 . S
N994 C991 1.301 . S
N994 C992 1.317 . S
N995 C991 1.328 . S
N995 C993 1.350 . S
H996 C991 0.930 . S
H997 C992 0.930 . S
C998 O999 1.224 . S
C998 O1017 1.247 . S
O999 C998 1.224 . S
N1000 Co990 2.128 . S
N1000 C1001 1.355 . S
N1000 C1003 1.311 . S
C1001 N1000 1.355 . S
C1001 C1002 1.363 . S
C1001 H1013 0.929 . S
C1002 C1001 1.363 . S
C1002 N1004 1.375 . S
C1002 H1020 0.931 . S
C1003 N1000 1.311 . S
C1003 N1004 1.347 . S
C1003 H1014 0.929 . S
N1004 C1002 1.375 . S
N1004 C1003 1.347 . S
C1005 C1008 1.365 . S
C1005 N1010 1.328 . S
C1005 H1011 0.929 . S
C1006 C1007 1.362 . S
C1006 C1009 1.378 . S
C1006 H1021 0.929 . S
C1007 C1006 1.362 . S
C1007 C1008 1.366 . S
C1008 C1005 1.365 . S
C1008 C1007 1.366 . S
C1008 H1022 0.930 . S
C1009 C1006 1.378 . S
C1009 N1010 1.315 . S
C1009 H1012 0.930 . S
N1010 Co990 2.194 . S
N1010 C1005 1.328 . S
N1010 C1009 1.315 . S
H1011 C1005 0.929 . S
H1012 C1009 0.930 . S
H1013 C1001 0.929 . S
H1014 C1003 0.929 . S
O1015 Co990 2.351 . S
O1015 C1018 1.244 . S
O1016 Co990 2.155 . S
O1016 C1018 1.240 . S
O1017 Co990 2.096 . S
O1017 C998 1.247 . S
C1018 O1015 1.244 . S
C1018 O1016 1.240 . S
H1019 C993 0.931 . S
H1020 C1002 0.931 . S
H1021 C1006 0.929 . S
H1022 C1008 0.930 . S
Co1023 N1027 2.148 . S
Co1023 N1033 2.128 . S
Co1023 N1043 2.194 . S
Co1023 O1048 2.351 . S
Co1023 O1049 2.155 . S
Co1023 O1050 2.096 . S
C1024 N1027 1.301 . S
C1024 N1028 1.328 . S
C1024 H1029 0.930 . S
C1025 C1026 1.333 . S
C1025 N1027 1.317 . S
C1025 H1030 0.930 . S
C1026 C1025 1.333 . S
C1026 N1028 1.350 . S
C1026 H1052 0.931 . S
N1027 Co1023 2.148 . S
N1027 C1024 1.301 . S
N1027 C1025 1.317 . S
N1028 C1024 1.328 . S
N1028 C1026 1.350 . S
H1029 C1024 0.930 . S
H1030 C1025 0.930 . S
C1031 O1032 1.224 . S
C1031 O1050 1.247 . S
O1032 C1031 1.224 . S
N1033 Co1023 2.128 . S
N1033 C1034 1.355 . S
N1033 C1036 1.311 . S
C1034 N1033 1.355 . S
C1034 C1035 1.363 . S
C1034 H1046 0.929 . S
C1035 C1034 1.363 . S
C1035 N1037 1.375 . S
C1035 H1053 0.931 . S
C1036 N1033 1.311 . S
C1036 N1037 1.347 . S
C1036 H1047 0.929 . S
N1037 C1035 1.375 . S
N1037 C1036 1.347 . S
C1038 C1041 1.365 . S
C1038 N1043 1.328 . S
C1038 H1044 0.929 . S
C1039 C1040 1.362 . S
C1039 C1042 1.378 . S
C1039 H1054 0.929 . S
C1040 C1039 1.362 . S
C1040 C1041 1.366 . S
C1041 C1038 1.365 . S
C1041 C1040 1.366 . S
C1041 H1055 0.930 . S
C1042 C1039 1.378 . S
C1042 N1043 1.315 . S
C1042 H1045 0.930 . S
N1043 Co1023 2.194 . S
N1043 C1038 1.328 . S
N1043 C1042 1.315 . S
H1044 C1038 0.929 . S
H1045 C1042 0.930 . S
H1046 C1034 0.929 . S
H1047 C1036 0.929 . S
O1048 Co1023 2.351 . S
O1048 C1051 1.244 . S
O1049 Co1023 2.155 . S
O1049 C1051 1.240 . S
O1050 Co1023 2.096 . S
O1050 C1031 1.247 . S
C1051 O1048 1.244 . S
C1051 O1049 1.240 . S
H1052 C1026 0.931 . S
H1053 C1035 0.931 . S
H1054 C1039 0.929 . S
H1055 C1041 0.930 . S
Co1056 N1060 2.148 . S
Co1056 N1066 2.128 . S
Co1056 N1076 2.194 . S
Co1056 O1081 2.351 . S
Co1056 O1082 2.155 . S
Co1056 O1083 2.096 . S
C1057 N1060 1.301 . S
C1057 N1061 1.328 . S
C1057 H1062 0.930 . S
C1058 C1059 1.333 . S
C1058 N1060 1.317 . S
C1058 H1063 0.930 . S
C1059 C1058 1.333 . S
C1059 N1061 1.350 . S
C1059 H1085 0.931 . S
N1060 Co1056 2.148 . S
N1060 C1057 1.301 . S
N1060 C1058 1.317 . S
N1061 C1057 1.328 . S
N1061 C1059 1.350 . S
H1062 C1057 0.930 . S
H1063 C1058 0.930 . S
C1064 O1065 1.224 . S
C1064 O1083 1.247 . S
O1065 C1064 1.224 . S
N1066 Co1056 2.128 . S
N1066 C1067 1.355 . S
N1066 C1069 1.311 . S
C1067 N1066 1.355 . S
C1067 C1068 1.363 . S
C1067 H1079 0.929 . S
C1068 C1067 1.363 . S
C1068 N1070 1.375 . S
C1068 H1086 0.931 . S
C1069 N1066 1.311 . S
C1069 N1070 1.347 . S
C1069 H1080 0.929 . S
N1070 C1068 1.375 . S
N1070 C1069 1.347 . S
C1071 C1074 1.365 . S
C1071 N1076 1.328 . S
C1071 H1077 0.929 . S
C1072 C1073 1.362 . S
C1072 C1075 1.378 . S
C1072 H1087 0.929 . S
C1073 C1072 1.362 . S
C1073 C1074 1.366 . S
C1074 C1071 1.365 . S
C1074 C1073 1.366 . S
C1074 H1088 0.930 . S
C1075 C1072 1.378 . S
C1075 N1076 1.315 . S
C1075 H1078 0.930 . S
N1076 Co1056 2.194 . S
N1076 C1071 1.328 . S
N1076 C1075 1.315 . S
H1077 C1071 0.929 . S
H1078 C1075 0.930 . S
H1079 C1067 0.929 . S
H1080 C1069 0.929 . S
O1081 Co1056 2.351 . S
O1081 C1084 1.244 . S
O1082 Co1056 2.155 . S
O1082 C1084 1.240 . S
O1083 Co1056 2.096 . S
O1083 C1064 1.247 . S
C1084 O1081 1.244 . S
C1084 O1082 1.240 . S
H1085 C1059 0.931 . S
H1086 C1068 0.931 . S
H1087 C1072 0.929 . S
H1088 C1074 0.930 . S
Co1089 N1093 2.148 . S
Co1089 N1099 2.128 . S
Co1089 N1109 2.194 . S
Co1089 O1114 2.351 . S
Co1089 O1115 2.155 . S
Co1089 O1116 2.096 . S
C1090 N1093 1.301 . S
C1090 N1094 1.328 . S
C1090 H1095 0.930 . S
C1091 C1092 1.333 . S
C1091 N1093 1.317 . S
C1091 H1096 0.930 . S
C1092 C1091 1.333 . S
C1092 N1094 1.350 . S
C1092 H1118 0.931 . S
N1093 Co1089 2.148 . S
N1093 C1090 1.301 . S
N1093 C1091 1.317 . S
N1094 C1090 1.328 . S
N1094 C1092 1.350 . S
H1095 C1090 0.930 . S
H1096 C1091 0.930 . S
C1097 O1098 1.224 . S
C1097 O1116 1.247 . S
O1098 C1097 1.224 . S
N1099 Co1089 2.128 . S
N1099 C1100 1.355 . S
N1099 C1102 1.311 . S
C1100 N1099 1.355 . S
C1100 C1101 1.363 . S
C1100 H1112 0.929 . S
C1101 C1100 1.363 . S
C1101 N1103 1.375 . S
C1101 H1119 0.931 . S
C1102 N1099 1.311 . S
C1102 N1103 1.347 . S
C1102 H1113 0.929 . S
N1103 C1101 1.375 . S
N1103 C1102 1.347 . S
C1104 C1107 1.365 . S
C1104 N1109 1.328 . S
C1104 H1110 0.929 . S
C1105 C1106 1.362 . S
C1105 C1108 1.378 . S
C1105 H1120 0.929 . S
C1106 C1105 1.362 . S
C1106 C1107 1.366 . S
C1107 C1104 1.365 . S
C1107 C1106 1.366 . S
C1107 H1121 0.930 . S
C1108 C1105 1.378 . S
C1108 N1109 1.315 . S
C1108 H1111 0.930 . S
N1109 Co1089 2.194 . S
N1109 C1104 1.328 . S
N1109 C1108 1.315 . S
H1110 C1104 0.929 . S
H1111 C1108 0.930 . S
H1112 C1100 0.929 . S
H1113 C1102 0.929 . S
O1114 Co1089 2.351 . S
O1114 C1117 1.244 . S
O1115 Co1089 2.155 . S
O1115 C1117 1.240 . S
O1116 Co1089 2.096 . S
O1116 C1097 1.247 . S
C1117 O1114 1.244 . S
C1117 O1115 1.240 . S
H1118 C1092 0.931 . S
H1119 C1101 0.931 . S
H1120 C1105 0.929 . S
H1121 C1107 0.930 . S
Co1122 N1126 2.148 . S
Co1122 N1132 2.128 . S
Co1122 N1142 2.194 . S
Co1122 O1147 2.351 . S
Co1122 O1148 2.155 . S
Co1122 O1149 2.096 . S
C1123 N1126 1.301 . S
C1123 N1127 1.328 . S
C1123 H1128 0.930 . S
C1124 C1125 1.333 . S
C1124 N1126 1.317 . S
C1124 H1129 0.930 . S
C1125 C1124 1.333 . S
C1125 N1127 1.350 . S
C1125 H1151 0.931 . S
N1126 Co1122 2.148 . S
N1126 C1123 1.301 . S
N1126 C1124 1.317 . S
N1127 C1123 1.328 . S
N1127 C1125 1.350 . S
H1128 C1123 0.930 . S
H1129 C1124 0.930 . S
C1130 O1131 1.224 . S
C1130 O1149 1.247 . S
O1131 C1130 1.224 . S
N1132 Co1122 2.128 . S
N1132 C1133 1.355 . S
N1132 C1135 1.311 . S
C1133 N1132 1.355 . S
C1133 C1134 1.363 . S
C1133 H1145 0.929 . S
C1134 C1133 1.363 . S
C1134 N1136 1.375 . S
C1134 H1152 0.931 . S
C1135 N1132 1.311 . S
C1135 N1136 1.347 . S
C1135 H1146 0.929 . S
N1136 C1134 1.375 . S
N1136 C1135 1.347 . S
C1137 C1140 1.365 . S
C1137 N1142 1.328 . S
C1137 H1143 0.929 . S
C1138 C1139 1.362 . S
C1138 C1141 1.378 . S
C1138 H1153 0.929 . S
C1139 C1138 1.362 . S
C1139 C1140 1.366 . S
C1140 C1137 1.365 . S
C1140 C1139 1.366 . S
C1140 H1154 0.930 . S
C1141 C1138 1.378 . S
C1141 N1142 1.315 . S
C1141 H1144 0.930 . S
N1142 Co1122 2.194 . S
N1142 C1137 1.328 . S
N1142 C1141 1.315 . S
H1143 C1137 0.929 . S
H1144 C1141 0.930 . S
H1145 C1133 0.929 . S
H1146 C1135 0.929 . S
O1147 Co1122 2.351 . S
O1147 C1150 1.244 . S
O1148 Co1122 2.155 . S
O1148 C1150 1.240 . S
O1149 Co1122 2.096 . S
O1149 C1130 1.247 . S
C1150 O1147 1.244 . S
C1150 O1148 1.240 . S
H1151 C1125 0.931 . S
H1152 C1134 0.931 . S
H1153 C1138 0.929 . S
H1154 C1140 0.930 . S
Co1155 N1159 2.148 . S
Co1155 N1165 2.128 . S
Co1155 N1175 2.194 . S
Co1155 O1180 2.351 . S
Co1155 O1181 2.155 . S
Co1155 O1182 2.096 . S
C1156 N1159 1.301 . S
C1156 N1160 1.328 . S
C1156 H1161 0.930 . S
C1157 C1158 1.333 . S
C1157 N1159 1.317 . S
C1157 H1162 0.930 . S
C1158 C1157 1.333 . S
C1158 N1160 1.350 . S
C1158 H1184 0.931 . S
N1159 Co1155 2.148 . S
N1159 C1156 1.301 . S
N1159 C1157 1.317 . S
N1160 C1156 1.328 . S
N1160 C1158 1.350 . S
H1161 C1156 0.930 . S
H1162 C1157 0.930 . S
C1163 O1164 1.224 . S
C1163 O1182 1.247 . S
O1164 C1163 1.224 . S
N1165 Co1155 2.128 . S
N1165 C1166 1.355 . S
N1165 C1168 1.311 . S
C1166 N1165 1.355 . S
C1166 C1167 1.363 . S
C1166 H1178 0.929 . S
C1167 C1166 1.363 . S
C1167 N1169 1.375 . S
C1167 H1185 0.931 . S
C1168 N1165 1.311 . S
C1168 N1169 1.347 . S
C1168 H1179 0.929 . S
N1169 C1167 1.375 . S
N1169 C1168 1.347 . S
C1170 C1173 1.365 . S
C1170 N1175 1.328 . S
C1170 H1176 0.929 . S
C1171 C1172 1.362 . S
C1171 C1174 1.378 . S
C1171 H1186 0.929 . S
C1172 C1171 1.362 . S
C1172 C1173 1.366 . S
C1173 C1170 1.365 . S
C1173 C1172 1.366 . S
C1173 H1187 0.930 . S
C1174 C1171 1.378 . S
C1174 N1175 1.315 . S
C1174 H1177 0.930 . S
N1175 Co1155 2.194 . S
N1175 C1170 1.328 . S
N1175 C1174 1.315 . S
H1176 C1170 0.929 . S
H1177 C1174 0.930 . S
H1178 C1166 0.929 . S
H1179 C1168 0.929 . S
O1180 Co1155 2.351 . S
O1180 C1183 1.244 . S
O1181 Co1155 2.155 . S
O1181 C1183 1.240 . S
O1182 Co1155 2.096 . S
O1182 C1163 1.247 . S
C1183 O1180 1.244 . S
C1183 O1181 1.240 . S
H1184 C1158 0.931 . S
H1185 C1167 0.931 . S
H1186 C1171 0.929 . S
H1187 C1173 0.930 . S
H1188 C1196 0.950 . S
H1189 C1201 0.950 . S
H1190 C1198 0.950 . S
H1191 C1200 0.950 . S
H1192 C1202 0.950 . S
H1193 C1204 0.950 . S
H1194 C1206 0.950 . S
H1195 C1207 0.950 . S
C1196 H1188 0.950 . S
C1196 C1197 1.386 . S
C1196 C1198 1.391 . S
C1197 C1196 1.386 . S
C1197 C1201 1.393 . S
C1198 H1190 0.950 . S
C1198 C1196 1.391 . S
C1198 C1199 1.400 . S
C1199 C1198 1.400 . S
C1199 C1200 1.398 . S
C1199 C1205 1.491 . S
C1200 H1191 0.950 . S
C1200 C1199 1.398 . S
C1200 C1201 1.391 . S
C1201 H1189 0.950 . S
C1201 C1197 1.393 . S
C1201 C1200 1.391 . S
C1202 H1192 0.950 . S
C1202 C1203 1.386 . S
C1202 C1204 1.391 . S
C1203 C1202 1.386 . S
C1203 C1207 1.393 . S
C1204 H1193 0.950 . S
C1204 C1202 1.391 . S
C1204 C1205 1.400 . S
C1205 C1199 1.491 . S
C1205 C1204 1.400 . S
C1205 C1206 1.398 . S
C1206 H1194 0.950 . S
C1206 C1205 1.398 . S
C1206 C1207 1.391 . S
C1207 H1195 0.950 . S
C1207 C1203 1.393 . S
C1207 C1206 1.391 . S
H1208 C1216 0.950 . S
H1209 C1221 0.950 . S
H1210 C1218 0.950 . S
H1211 C1220 0.950 . S
H1212 C1222 0.950 . S
H1213 C1224 0.950 . S
H1214 C1226 0.950 . S
H1215 C1227 0.950 . S
C1216 H1208 0.950 . S
C1216 C1217 1.386 . S
C1216 C1218 1.391 . S
C1217 C1216 1.386 . S
C1217 C1221 1.393 . S
C1218 H1210 0.950 . S
C1218 C1216 1.391 . S
C1218 C1219 1.400 . S
C1219 C1218 1.400 . S
C1219 C1220 1.398 . S
C1219 C1225 1.491 . S
C1220 H1211 0.950 . S
C1220 C1219 1.398 . S
C1220 C1221 1.391 . S
C1221 H1209 0.950 . S
C1221 C1217 1.393 . S
C1221 C1220 1.391 . S
C1222 H1212 0.950 . S
C1222 C1223 1.386 . S
C1222 C1224 1.391 . S
C1223 C1222 1.386 . S
C1223 C1227 1.393 . S
C1224 H1213 0.950 . S
C1224 C1222 1.391 . S
C1224 C1225 1.400 . S
C1225 C1219 1.491 . S
C1225 C1224 1.400 . S
C1225 C1226 1.398 . S
C1226 H1214 0.950 . S
C1226 C1225 1.398 . S
C1226 C1227 1.391 . S
C1227 H1215 0.950 . S
C1227 C1223 1.393 . S
C1227 C1226 1.391 . S
H1228 C1236 0.950 . S
H1229 C1241 0.950 . S
H1230 C1238 0.950 . S
H1231 C1240 0.950 . S
H1232 C1242 0.950 . S
H1233 C1244 0.950 . S
H1234 C1246 0.950 . S
H1235 C1247 0.950 . S
C1236 H1228 0.950 . S
C1236 C1237 1.386 . S
C1236 C1238 1.391 . S
C1237 C1236 1.386 . S
C1237 C1241 1.393 . S
C1238 H1230 0.950 . S
C1238 C1236 1.391 . S
C1238 C1239 1.400 . S
C1239 C1238 1.400 . S
C1239 C1240 1.398 . S
C1239 C1245 1.491 . S
C1240 H1231 0.950 . S
C1240 C1239 1.398 . S
C1240 C1241 1.391 . S
C1241 H1229 0.950 . S
C1241 C1237 1.393 . S
C1241 C1240 1.391 . S
C1242 H1232 0.950 . S
C1242 C1243 1.386 . S
C1242 C1244 1.391 . S
C1243 C1242 1.386 . S
C1243 C1247 1.393 . S
C1244 H1233 0.950 . S
C1244 C1242 1.391 . S
C1244 C1245 1.400 . S
C1245 C1239 1.491 . S
C1245 C1244 1.400 . S
C1245 C1246 1.398 . S
C1246 H1234 0.950 . S
C1246 C1245 1.398 . S
C1246 C1247 1.391 . S
C1247 H1235 0.950 . S
C1247 C1243 1.393 . S
C1247 C1246 1.391 . S
H1248 C1256 0.950 . S
H1249 C1261 0.950 . S
H1250 C1258 0.950 . S
H1251 C1260 0.950 . S
H1252 C1262 0.950 . S
H1253 C1264 0.950 . S
H1254 C1266 0.950 . S
H1255 C1267 0.950 . S
C1256 H1248 0.950 . S
C1256 C1257 1.386 . S
C1256 C1258 1.391 . S
C1257 C1256 1.386 . S
C1257 C1261 1.393 . S
C1258 H1250 0.950 . S
C1258 C1256 1.391 . S
C1258 C1259 1.400 . S
C1259 C1258 1.400 . S
C1259 C1260 1.398 . S
C1259 C1265 1.491 . S
C1260 H1251 0.950 . S
C1260 C1259 1.398 . S
C1260 C1261 1.391 . S
C1261 H1249 0.950 . S
C1261 C1257 1.393 . S
C1261 C1260 1.391 . S
C1262 H1252 0.950 . S
C1262 C1263 1.386 . S
C1262 C1264 1.391 . S
C1263 C1262 1.386 . S
C1263 C1267 1.393 . S
C1264 H1253 0.950 . S
C1264 C1262 1.391 . S
C1264 C1265 1.400 . S
C1265 C1259 1.491 . S
C1265 C1264 1.400 . S
C1265 C1266 1.398 . S
C1266 H1254 0.950 . S
C1266 C1265 1.398 . S
C1266 C1267 1.391 . S
C1267 H1255 0.950 . S
C1267 C1263 1.393 . S
C1267 C1266 1.391 . S
H1268 C1276 0.950 . S
H1269 C1281 0.950 . S
H1270 C1278 0.950 . S
H1271 C1280 0.950 . S
H1272 C1282 0.950 . S
H1273 C1284 0.950 . S
H1274 C1286 0.950 . S
H1275 C1287 0.950 . S
C1276 H1268 0.950 . S
C1276 C1277 1.386 . S
C1276 C1278 1.391 . S
C1277 C1276 1.386 . S
C1277 C1281 1.393 . S
C1278 H1270 0.950 . S
C1278 C1276 1.391 . S
C1278 C1279 1.400 . S
C1279 C1278 1.400 . S
C1279 C1280 1.398 . S
C1279 C1285 1.491 . S
C1280 H1271 0.950 . S
C1280 C1279 1.398 . S
C1280 C1281 1.391 . S
C1281 H1269 0.950 . S
C1281 C1277 1.393 . S
C1281 C1280 1.391 . S
C1282 H1272 0.950 . S
C1282 C1283 1.386 . S
C1282 C1284 1.391 . S
C1283 C1282 1.386 . S
C1283 C1287 1.393 . S
C1284 H1273 0.950 . S
C1284 C1282 1.391 . S
C1284 C1285 1.400 . S
C1285 C1279 1.491 . S
C1285 C1284 1.400 . S
C1285 C1286 1.398 . S
C1286 H1274 0.950 . S
C1286 C1285 1.398 . S
C1286 C1287 1.391 . S
C1287 H1275 0.950 . S
C1287 C1283 1.393 . S
C1287 C1286 1.391 . S
H1288 C1296 0.950 . S
H1289 C1301 0.950 . S
H1290 C1298 0.950 . S
H1291 C1300 0.950 . S
H1292 C1302 0.950 . S
H1293 C1304 0.950 . S
H1294 C1306 0.950 . S
H1295 C1307 0.950 . S
C1296 H1288 0.950 . S
C1296 C1297 1.386 . S
C1296 C1298 1.391 . S
C1297 C1296 1.386 . S
C1297 C1301 1.393 . S
C1298 H1290 0.950 . S
C1298 C1296 1.391 . S
C1298 C1299 1.400 . S
C1299 C1298 1.400 . S
C1299 C1300 1.398 . S
C1299 C1305 1.491 . S
C1300 H1291 0.950 . S
C1300 C1299 1.398 . S
C1300 C1301 1.391 . S
C1301 H1289 0.950 . S
C1301 C1297 1.393 . S
C1301 C1300 1.391 . S
C1302 H1292 0.950 . S
C1302 C1303 1.386 . S
C1302 C1304 1.391 . S
C1303 C1302 1.386 . S
C1303 C1307 1.393 . S
C1304 H1293 0.950 . S
C1304 C1302 1.391 . S
C1304 C1305 1.400 . S
C1305 C1299 1.491 . S
C1305 C1304 1.400 . S
C1305 C1306 1.398 . S
C1306 H1294 0.950 . S
C1306 C1305 1.398 . S
C1306 C1307 1.391 . S
C1307 H1295 0.950 . S
C1307 C1303 1.393 . S
C1307 C1306 1.391 . S
H1308 C1316 0.950 . S
H1309 C1321 0.950 . S
H1310 C1318 0.950 . S
H1311 C1320 0.950 . S
H1312 C1322 0.950 . S
H1313 C1324 0.950 . S
H1314 C1326 0.950 . S
H1315 C1327 0.950 . S
C1316 H1308 0.950 . S
C1316 C1317 1.386 . S
C1316 C1318 1.391 . S
C1317 C1316 1.386 . S
C1317 C1321 1.393 . S
C1318 H1310 0.950 . S
C1318 C1316 1.391 . S
C1318 C1319 1.400 . S
C1319 C1318 1.400 . S
C1319 C1320 1.398 . S
C1319 C1325 1.491 . S
C1320 H1311 0.950 . S
C1320 C1319 1.398 . S
C1320 C1321 1.391 . S
C1321 H1309 0.950 . S
C1321 C1317 1.393 . S
C1321 C1320 1.391 . S
C1322 H1312 0.950 . S
C1322 C1323 1.386 . S
C1322 C1324 1.391 . S
C1323 C1322 1.386 . S
C1323 C1327 1.393 . S
C1324 H1313 0.950 . S
C1324 C1322 1.391 . S
C1324 C1325 1.400 . S
C1325 C1319 1.491 . S
C1325 C1324 1.400 . S
C1325 C1326 1.398 . S
C1326 H1314 0.950 . S
C1326 C1325 1.398 . S
C1326 C1327 1.391 . S
C1327 H1315 0.950 . S
C1327 C1323 1.393 . S
C1327 C1326 1.391 . S
H1328 C1336 0.950 . S
H1329 C1341 0.950 . S
H1330 C1338 0.950 . S
H1331 C1340 0.950 . S
H1332 C1342 0.950 . S
H1333 C1344 0.950 . S
H1334 C1346 0.950 . S
H1335 C1347 0.950 . S
C1336 H1328 0.950 . S
C1336 C1337 1.386 . S
C1336 C1338 1.391 . S
C1337 C1336 1.386 . S
C1337 C1341 1.393 . S
C1338 H1330 0.950 . S
C1338 C1336 1.391 . S
C1338 C1339 1.400 . S
C1339 C1338 1.400 . S
C1339 C1340 1.398 . S
C1339 C1345 1.491 . S
C1340 H1331 0.950 . S
C1340 C1339 1.398 . S
C1340 C1341 1.391 . S
C1341 H1329 0.950 . S
C1341 C1337 1.393 . S
C1341 C1340 1.391 . S
C1342 H1332 0.950 . S
C1342 C1343 1.386 . S
C1342 C1344 1.391 . S
C1343 C1342 1.386 . S
C1343 C1347 1.393 . S
C1344 H1333 0.950 . S
C1344 C1342 1.391 . S
C1344 C1345 1.400 . S
C1345 C1339 1.491 . S
C1345 C1344 1.400 . S
C1345 C1346 1.398 . S
C1346 H1334 0.950 . S
C1346 C1345 1.398 . S
C1346 C1347 1.391 . S
C1347 H1335 0.950 . S
C1347 C1343 1.393 . S
C1347 C1346 1.391 . S
H1348 C1356 0.950 . S
H1349 C1361 0.950 . S
H1350 C1358 0.950 . S
H1351 C1360 0.950 . S
H1352 C1362 0.950 . S
H1353 C1364 0.950 . S
H1354 C1366 0.950 . S
H1355 C1367 0.950 . S
C1356 H1348 0.950 . S
C1356 C1357 1.386 . S
C1356 C1358 1.391 . S
C1357 C1356 1.386 . S
C1357 C1361 1.393 . S
C1358 H1350 0.950 . S
C1358 C1356 1.391 . S
C1358 C1359 1.400 . S
C1359 C1358 1.400 . S
C1359 C1360 1.398 . S
C1359 C1365 1.491 . S
C1360 H1351 0.950 . S
C1360 C1359 1.398 . S
C1360 C1361 1.391 . S
C1361 H1349 0.950 . S
C1361 C1357 1.393 . S
C1361 C1360 1.391 . S
C1362 H1352 0.950 . S
C1362 C1363 1.386 . S
C1362 C1364 1.391 . S
C1363 C1362 1.386 . S
C1363 C1367 1.393 . S
C1364 H1353 0.950 . S
C1364 C1362 1.391 . S
C1364 C1365 1.400 . S
C1365 C1359 1.491 . S
C1365 C1364 1.400 . S
C1365 C1366 1.398 . S
C1366 H1354 0.950 . S
C1366 C1365 1.398 . S
C1366 C1367 1.391 . S
C1367 H1355 0.950 . S
C1367 C1363 1.393 . S
C1367 C1366 1.391 . S
H1368 C1376 0.950 . S
H1369 C1381 0.950 . S
H1370 C1378 0.950 . S
H1371 C1380 0.950 . S
H1372 C1382 0.950 . S
H1373 C1384 0.950 . S
H1374 C1386 0.950 . S
H1375 C1387 0.950 . S
C1376 H1368 0.950 . S
C1376 C1377 1.386 . S
C1376 C1378 1.391 . S
C1377 C1376 1.386 . S
C1377 C1381 1.393 . S
C1378 H1370 0.950 . S
C1378 C1376 1.391 . S
C1378 C1379 1.400 . S
C1379 C1378 1.400 . S
C1379 C1380 1.398 . S
C1379 C1385 1.491 . S
C1380 H1371 0.950 . S
C1380 C1379 1.398 . S
C1380 C1381 1.391 . S
C1381 H1369 0.950 . S
C1381 C1377 1.393 . S
C1381 C1380 1.391 . S
C1382 H1372 0.950 . S
C1382 C1383 1.386 . S
C1382 C1384 1.391 . S
C1383 C1382 1.386 . S
C1383 C1387 1.393 . S
C1384 H1373 0.950 . S
C1384 C1382 1.391 . S
C1384 C1385 1.400 . S
C1385 C1379 1.491 . S
C1385 C1384 1.400 . S
C1385 C1386 1.398 . S
C1386 H1374 0.950 . S
C1386 C1385 1.398 . S
C1386 C1387 1.391 . S
C1387 H1375 0.950 . S
C1387 C1383 1.393 . S
C1387 C1386 1.391 . S
H1388 C1396 0.950 . S
H1389 C1401 0.950 . S
H1390 C1398 0.950 . S
H1391 C1400 0.950 . S
H1392 C1402 0.950 . S
H1393 C1404 0.950 . S
H1394 C1406 0.950 . S
H1395 C1407 0.950 . S
C1396 H1388 0.950 . S
C1396 C1397 1.386 . S
C1396 C1398 1.391 . S
C1397 C1396 1.386 . S
C1397 C1401 1.393 . S
C1398 H1390 0.950 . S
C1398 C1396 1.391 . S
C1398 C1399 1.400 . S
C1399 C1398 1.400 . S
C1399 C1400 1.398 . S
C1399 C1405 1.491 . S
C1400 H1391 0.950 . S
C1400 C1399 1.398 . S
C1400 C1401 1.391 . S
C1401 H1389 0.950 . S
C1401 C1397 1.393 . S
C1401 C1400 1.391 . S
C1402 H1392 0.950 . S
C1402 C1403 1.386 . S
C1402 C1404 1.391 . S
C1403 C1402 1.386 . S
C1403 C1407 1.393 . S
C1404 H1393 0.950 . S
C1404 C1402 1.391 . S
C1404 C1405 1.400 . S
C1405 C1399 1.491 . S
C1405 C1404 1.400 . S
C1405 C1406 1.398 . S
C1406 H1394 0.950 . S
C1406 C1405 1.398 . S
C1406 C1407 1.391 . S
C1407 H1395 0.950 . S
C1407 C1403 1.393 . S
C1407 C1406 1.391 . S
H1408 C1416 0.950 . S
H1409 C1421 0.950 . S
H1410 C1418 0.950 . S
H1411 C1420 0.950 . S
H1412 C1422 0.950 . S
H1413 C1424 0.950 . S
H1414 C1426 0.950 . S
H1415 C1427 0.950 . S
C1416 H1408 0.950 . S
C1416 C1417 1.386 . S
C1416 C1418 1.391 . S
C1417 C1416 1.386 . S
C1417 C1421 1.393 . S
C1418 H1410 0.950 . S
C1418 C1416 1.391 . S
C1418 C1419 1.400 . S
C1419 C1418 1.400 . S
C1419 C1420 1.398 . S
C1419 C1425 1.491 . S
C1420 H1411 0.950 . S
C1420 C1419 1.398 . S
C1420 C1421 1.391 . S
C1421 H1409 0.950 . S
C1421 C1417 1.393 . S
C1421 C1420 1.391 . S
C1422 H1412 0.950 . S
C1422 C1423 1.386 . S
C1422 C1424 1.391 . S
C1423 C1422 1.386 . S
C1423 C1427 1.393 . S
C1424 H1413 0.950 . S
C1424 C1422 1.391 . S
C1424 C1425 1.400 . S
C1425 C1419 1.491 . S
C1425 C1424 1.400 . S
C1425 C1426 1.398 . S
C1426 H1414 0.950 . S
C1426 C1425 1.398 . S
C1426 C1427 1.391 . S
C1427 H1415 0.950 . S
C1427 C1423 1.393 . S
C1427 C1426 1.391 . S
H1428 C1436 0.950 . S
H1429 C1441 0.950 . S
H1430 C1438 0.950 1_455 S
H1431 C1440 0.950 . S
H1432 C1442 0.950 . S
H1433 C1444 0.950 1_655 S
H1434 C1446 0.950 . S
H1435 C1447 0.950 . S
C1436 H1428 0.950 . S
C1436 C1437 1.386 . S
C1436 C1438 1.391 . S
C1437 C1436 1.386 . S
C1437 C1441 1.393 . S
C1438 H1430 0.950 1_655 S
C1438 C1436 1.391 . S
C1438 C1439 1.400 . S
C1439 C1438 1.400 . S
C1439 C1440 1.398 . S
C1439 C1445 1.491 1_655 S
C1440 H1431 0.950 . S
C1440 C1439 1.398 . S
C1440 C1441 1.391 . S
C1441 H1429 0.950 . S
C1441 C1437 1.393 . S
C1441 C1440 1.391 . S
C1442 H1432 0.950 . S
C1442 C1443 1.386 . S
C1442 C1444 1.391 . S
C1443 C1442 1.386 . S
C1443 C1447 1.393 . S
C1444 H1433 0.950 1_455 S
C1444 C1442 1.391 . S
C1444 C1445 1.400 . S
C1445 C1439 1.491 1_455 S
C1445 C1444 1.400 . S
C1445 C1446 1.398 . S
C1446 H1434 0.950 . S
C1446 C1445 1.398 . S
C1446 C1447 1.391 . S
C1447 H1435 0.950 . S
C1447 C1443 1.393 . S
C1447 C1446 1.391 . S
H1448 C1456 0.950 . S
H1449 C1461 0.950 . S
H1450 C1458 0.950 . S
H1451 C1460 0.950 . S
H1452 C1462 0.950 . S
H1453 C1464 0.950 . S
H1454 C1466 0.950 . S
H1455 C1467 0.950 . S
C1456 H1448 0.950 . S
C1456 C1457 1.386 . S
C1456 C1458 1.391 . S
C1457 C1456 1.386 . S
C1457 C1461 1.393 . S
C1458 H1450 0.950 . S
C1458 C1456 1.391 . S
C1458 C1459 1.400 . S
C1459 C1458 1.400 . S
C1459 C1460 1.398 . S
C1459 C1465 1.491 . S
C1460 H1451 0.950 . S
C1460 C1459 1.398 . S
C1460 C1461 1.391 . S
C1461 H1449 0.950 . S
C1461 C1457 1.393 . S
C1461 C1460 1.391 . S
C1462 H1452 0.950 . S
C1462 C1463 1.386 . S
C1462 C1464 1.391 . S
C1463 C1462 1.386 . S
C1463 C1467 1.393 . S
C1464 H1453 0.950 . S
C1464 C1462 1.391 . S
C1464 C1465 1.400 . S
C1465 C1459 1.491 . S
C1465 C1464 1.400 . S
C1465 C1466 1.398 . S
C1466 H1454 0.950 . S
C1466 C1465 1.398 . S
C1466 C1467 1.391 . S
C1467 H1455 0.950 . S
C1467 C1463 1.393 . S
C1467 C1466 1.391 . S
H1468 C1476 0.950 . S
H1469 C1481 0.950 . S
H1470 C1478 0.950 . S
H1471 C1480 0.950 1_545 S
H1472 C1482 0.950 . S
H1473 C1484 0.950 . S
H1474 C1486 0.950 1_565 S
H1475 C1487 0.950 . S
C1476 H1468 0.950 . S
C1476 C1477 1.386 . S
C1476 C1478 1.391 . S
C1477 C1476 1.386 . S
C1477 C1481 1.393 . S
C1478 H1470 0.950 . S
C1478 C1476 1.391 . S
C1478 C1479 1.400 . S
C1479 C1478 1.400 . S
C1479 C1480 1.398 . S
C1479 C1485 1.491 1_565 S
C1480 H1471 0.950 1_565 S
C1480 C1479 1.398 . S
C1480 C1481 1.391 . S
C1481 H1469 0.950 . S
C1481 C1477 1.393 . S
C1481 C1480 1.391 . S
C1482 H1472 0.950 . S
C1482 C1483 1.386 . S
C1482 C1484 1.391 . S
C1483 C1482 1.386 . S
C1483 C1487 1.393 . S
C1484 H1473 0.950 . S
C1484 C1482 1.391 . S
C1484 C1485 1.400 . S
C1485 C1479 1.491 1_545 S
C1485 C1484 1.400 . S
C1485 C1486 1.398 . S
C1486 H1474 0.950 1_545 S
C1486 C1485 1.398 . S
C1486 C1487 1.391 . S
C1487 H1475 0.950 . S
C1487 C1483 1.393 . S
C1487 C1486 1.391 . S
H1488 C1496 0.950 . S
H1489 C1501 0.950 . S
H1490 C1498 0.950 . S
H1491 C1500 0.950 . S
H1492 C1502 0.950 . S
H1493 C1504 0.950 . S
H1494 C1506 0.950 . S
H1495 C1507 0.950 . S
C1496 H1488 0.950 . S
C1496 C1497 1.386 . S
C1496 C1498 1.391 1_554 S
C1497 C1496 1.386 . S
C1497 C1501 1.393 . S
C1498 H1490 0.950 . S
C1498 C1496 1.391 1_556 S
C1498 C1499 1.400 1_556 S
C1499 C1498 1.400 1_554 S
C1499 C1500 1.398 . S
C1499 C1505 1.491 1_564 S
C1500 H1491 0.950 . S
C1500 C1499 1.398 . S
C1500 C1501 1.391 . S
C1501 H1489 0.950 . S
C1501 C1497 1.393 . S
C1501 C1500 1.391 . S
C1502 H1492 0.950 . S
C1502 C1503 1.386 . S
C1502 C1504 1.391 1_556 S
C1503 C1502 1.386 . S
C1503 C1507 1.393 . S
C1504 H1493 0.950 . S
C1504 C1502 1.391 1_554 S
C1504 C1505 1.400 1_554 S
C1505 C1499 1.491 1_546 S
C1505 C1504 1.400 1_556 S
C1505 C1506 1.398 . S
C1506 H1494 0.950 . S
C1506 C1505 1.398 . S
C1506 C1507 1.391 . S
C1507 H1495 0.950 . S
C1507 C1503 1.393 . S
C1507 C1506 1.391 . S
H1508 C1516 0.950 . S
H1509 C1521 0.950 1_554 S
H1510 C1518 0.950 . S
H1511 C1520 0.950 . S
H1512 C1522 0.950 . S
H1513 C1524 0.950 . S
H1514 C1526 0.950 . S
H1515 C1527 0.950 1_556 S
C1516 H1508 0.950 . S
C1516 C1517 1.386 . S
C1516 C1518 1.391 . S
C1517 C1516 1.386 . S
C1517 C1521 1.393 . S
C1518 H1510 0.950 . S
C1518 C1516 1.391 . S
C1518 C1519 1.400 . S
C1519 C1518 1.400 . S
C1519 C1520 1.398 1_556 S
C1519 C1525 1.491 1_656 S
C1520 H1511 0.950 . S
C1520 C1519 1.398 1_554 S
C1520 C1521 1.391 1_554 S
C1521 H1509 0.950 1_556 S
C1521 C1517 1.393 . S
C1521 C1520 1.391 1_556 S
C1522 H1512 0.950 . S
C1522 C1523 1.386 . S
C1522 C1524 1.391 . S
C1523 C1522 1.386 . S
C1523 C1527 1.393 . S
C1524 H1513 0.950 . S
C1524 C1522 1.391 . S
C1524 C1525 1.400 . S
C1525 C1519 1.491 1_454 S
C1525 C1524 1.400 . S
C1525 C1526 1.398 1_554 S
C1526 H1514 0.950 . S
C1526 C1525 1.398 1_556 S
C1526 C1527 1.391 1_556 S
C1527 H1515 0.950 1_554 S
C1527 C1523 1.393 . S
C1527 C1526 1.391 1_554 S
H1528 C1536 0.950 . S
H1529 C1541 0.950 1_556 S
H1530 C1538 0.950 . S
H1531 C1540 0.950 . S
H1532 C1542 0.950 . S
H1533 C1544 0.950 . S
H1534 C1546 0.950 . S
H1535 C1547 0.950 1_554 S
C1536 H1528 0.950 . S
C1536 C1537 1.386 . S
C1536 C1538 1.391 . S
C1537 C1536 1.386 . S
C1537 C1541 1.393 . S
C1538 H1530 0.950 . S
C1538 C1536 1.391 . S
C1538 C1539 1.400 . S
C1539 C1538 1.400 . S
C1539 C1540 1.398 1_554 S
C1539 C1545 1.491 1_554 S
C1540 H1531 0.950 . S
C1540 C1539 1.398 1_556 S
C1540 C1541 1.391 1_556 S
C1541 H1529 0.950 1_554 S
C1541 C1537 1.393 . S
C1541 C1540 1.391 1_554 S
C1542 H1532 0.950 . S
C1542 C1543 1.386 . S
C1542 C1544 1.391 . S
C1543 C1542 1.386 . S
C1543 C1547 1.393 . S
C1544 H1533 0.950 . S
C1544 C1542 1.391 . S
C1544 C1545 1.400 . S
C1545 C1539 1.491 1_556 S
C1545 C1544 1.400 . S
C1545 C1546 1.398 1_556 S
C1546 H1534 0.950 . S
C1546 C1545 1.398 1_554 S
C1546 C1547 1.391 1_554 S
C1547 H1535 0.950 1_556 S
C1547 C1543 1.393 . S
C1547 C1546 1.391 1_556 S
H1548 C1556 0.950 . S
H1549 C1561 0.947 1_556 S
H1550 C1558 0.950 . S
H1551 C1560 0.950 . S
H1552 C1562 0.950 1_565 S
H1553 C1564 0.950 . S
H1554 C1566 0.950 . S
H1555 C1567 0.950 . S
C1556 H1548 0.950 . S
C1556 C1557 1.386 . S
C1556 C1558 1.391 . S
C1557 C1556 1.386 . S
C1557 C1561 1.396 . S
C1558 H1550 0.950 . S
C1558 C1556 1.391 . S
C1558 C1559 1.400 . S
C1559 C1558 1.400 . S
C1559 C1560 1.398 1_554 S
C1559 C1565 1.491 . S
C1560 H1551 0.950 . S
C1560 C1559 1.398 1_556 S
C1560 C1561 1.390 1_556 S
C1561 H1549 0.947 1_554 S
C1561 C1557 1.396 . S
C1561 C1560 1.390 1_554 S
C1562 H1552 0.950 1_545 S
C1562 C1563 1.386 1_545 S
C1562 C1564 1.391 . S
C1563 C1562 1.386 1_565 S
C1563 C1567 1.393 1_566 S
C1564 H1553 0.950 . S
C1564 C1562 1.391 . S
C1564 C1565 1.400 1_556 S
C1565 C1559 1.491 . S
C1565 C1564 1.400 1_554 S
C1565 C1566 1.398 . S
C1566 H1554 0.950 . S
C1566 C1565 1.398 . S
C1566 C1567 1.391 . S
C1567 H1555 0.950 . S
C1567 C1563 1.393 1_544 S
C1567 C1566 1.391 . S
H1568 C1576 0.950 1_556 S
H1569 C1581 0.950 . S
H1570 C1578 0.950 . S
H1571 C1580 0.950 . S
H1572 C1582 0.956 . S
H1573 C1584 0.950 . S
H1574 C1586 0.950 . S
H1575 C1587 0.950 . S
C1576 H1568 0.950 1_554 S
C1576 C1577 1.386 . S
C1576 C1578 1.391 1_554 S
C1577 C1576 1.386 . S
C1577 C1581 1.393 . S
C1578 H1570 0.950 . S
C1578 C1576 1.391 1_556 S
C1578 C1579 1.400 1_556 S
C1579 C1578 1.400 1_554 S
C1579 C1580 1.398 . S
C1579 C1585 1.491 . S
C1580 H1571 0.950 . S
C1580 C1579 1.398 . S
C1580 C1581 1.391 . S
C1581 H1569 0.950 . S
C1581 C1577 1.393 . S
C1581 C1580 1.391 . S
C1582 H1572 0.956 . S
C1582 C1583 1.384 1_554 S
C1582 C1584 1.386 1_455 S
C1583 C1582 1.384 1_556 S
C1583 C1587 1.393 1_455 S
C1584 H1573 0.950 . S
C1584 C1582 1.386 1_655 S
C1584 C1585 1.400 . S
C1585 C1579 1.491 . S
C1585 C1584 1.400 . S
C1585 C1586 1.398 1_554 S
C1586 H1574 0.950 . S
C1586 C1585 1.398 1_556 S
C1586 C1587 1.391 . S
C1587 H1575 0.950 . S
C1587 C1583 1.393 1_655 S
C1587 C1586 1.391 . S
H1588 C1596 0.950 1_556 S
H1589 C1601 0.950 . S
H1590 C1598 0.950 1_556 S
H1591 C1600 0.950 . S
H1592 C1602 0.950 . S
H1593 C1604 0.950 . S
H1594 C1606 0.950 . S
H1595 C1607 0.950 . S
C1596 H1588 0.950 1_554 S
C1596 C1597 1.386 . S
C1596 C1598 1.391 . S
C1597 C1596 1.386 . S
C1597 C1601 1.393 . S
C1598 H1590 0.950 1_554 S
C1598 C1596 1.391 . S
C1598 C1599 1.400 . S
C1599 C1598 1.400 . S
C1599 C1600 1.398 . S
C1599 C1605 1.491 . S
C1600 H1591 0.950 . S
C1600 C1599 1.398 . S
C1600 C1601 1.391 . S
C1601 H1589 0.950 . S
C1601 C1597 1.393 . S
C1601 C1600 1.391 . S
C1602 H1592 0.950 . S
C1602 C1603 1.386 1_554 S
C1602 C1604 1.391 . S
C1603 C1602 1.386 1_556 S
C1603 C1607 1.393 . S
C1604 H1593 0.950 . S
C1604 C1602 1.391 . S
C1604 C1605 1.400 . S
C1605 C1599 1.491 . S
C1605 C1604 1.400 . S
C1605 C1606 1.398 1_554 S
C1606 H1594 0.950 . S
C1606 C1605 1.398 1_556 S
C1606 C1607 1.391 . S
C1607 H1595 0.950 . S
C1607 C1603 1.393 . S
C1607 C1606 1.391 . S
H1608 C1616 0.961 . S
H1609 C1621 0.950 . S
H1610 C1618 0.950 . S
H1611 C1620 0.950 . S
H1612 C1622 0.950 . S
H1613 C1624 0.950 . S
H1614 C1626 0.950 . S
H1615 C1627 0.950 . S
C1616 H1608 0.961 . S
C1616 C1617 1.405 . S
C1616 C1618 1.362 1_655 S
C1617 C1616 1.405 . S
C1617 C1621 1.393 1_655 S
C1618 H1610 0.950 . S
C1618 C1616 1.362 1_455 S
C1618 C1619 1.400 . S
C1619 C1618 1.400 . S
C1619 C1620 1.398 . S
C1619 C1625 1.491 . S
C1620 H1611 0.950 . S
C1620 C1619 1.398 . S
C1620 C1621 1.391 . S
C1621 H1609 0.950 . S
C1621 C1617 1.393 1_455 S
C1621 C1620 1.391 . S
C1622 H1612 0.950 . S
C1622 C1623 1.386 . S
C1622 C1624 1.391 . S
C1623 C1622 1.386 . S
C1623 C1627 1.393 . S
C1624 H1613 0.950 . S
C1624 C1622 1.391 . S
C1624 C1625 1.400 . S
C1625 C1619 1.491 . S
C1625 C1624 1.400 . S
C1625 C1626 1.398 . S
C1626 H1614 0.950 . S
C1626 C1625 1.398 . S
C1626 C1627 1.391 . S
C1627 H1615 0.950 . S
C1627 C1623 1.393 . S
C1627 C1626 1.391 . S
H1628 C1636 0.950 . S
H1629 C1641 0.950 . S
H1630 C1638 0.950 . S
H1631 C1640 0.950 . S
H1632 C1642 0.950 . S
H1633 C1644 0.950 . S
H1634 C1646 0.950 . S
H1635 C1647 0.950 . S
C1636 H1628 0.950 . S
C1636 C1637 1.386 . S
C1636 C1638 1.391 . S
C1637 C1636 1.386 . S
C1637 C1641 1.393 . S
C1638 H1630 0.950 . S
C1638 C1636 1.391 . S
C1638 C1639 1.400 . S
C1639 C1638 1.400 . S
C1639 C1640 1.398 . S
C1639 C1645 1.491 . S
C1640 H1631 0.950 . S
C1640 C1639 1.398 . S
C1640 C1641 1.391 . S
C1641 H1629 0.950 . S
C1641 C1637 1.393 . S
C1641 C1640 1.391 . S
C1642 H1632 0.950 . S
C1642 C1643 1.386 . S
C1642 C1644 1.391 . S
C1643 C1642 1.386 . S
C1643 C1647 1.393 . S
C1644 H1633 0.950 . S
C1644 C1642 1.391 . S
C1644 C1645 1.400 . S
C1645 C1639 1.491 . S
C1645 C1644 1.400 . S
C1645 C1646 1.398 . S
C1646 H1634 0.950 . S
C1646 C1645 1.398 . S
C1646 C1647 1.391 . S
C1647 H1635 0.950 . S
C1647 C1643 1.393 . S
C1647 C1646 1.391 . S
H1648 C1656 0.950 . S
H1649 C1661 0.950 . S
H1650 C1658 0.950 . S
H1651 C1660 0.950 . S
H1652 C1662 0.950 1_545 S
H1653 C1664 0.950 . S
H1654 C1666 0.950 . S
H1655 C1667 0.950 . S
C1656 H1648 0.950 . S
C1656 C1657 1.386 . S
C1656 C1658 1.391 . S
C1657 C1656 1.386 . S
C1657 C1661 1.393 . S
C1658 H1650 0.950 . S
C1658 C1656 1.391 . S
C1658 C1659 1.400 . S
C1659 C1658 1.400 . S
C1659 C1660 1.398 . S
C1659 C1665 1.491 . S
C1660 H1651 0.950 . S
C1660 C1659 1.398 . S
C1660 C1661 1.391 . S
C1661 H1649 0.950 . S
C1661 C1657 1.393 . S
C1661 C1660 1.391 . S
C1662 H1652 0.950 1_565 S
C1662 C1663 1.386 1_565 S
C1662 C1664 1.391 . S
C1663 C1662 1.386 1_545 S
C1663 C1667 1.393 1_545 S
C1664 H1653 0.950 . S
C1664 C1662 1.391 . S
C1664 C1665 1.400 . S
C1665 C1659 1.491 . S
C1665 C1664 1.400 . S
C1665 C1666 1.398 . S
C1666 H1654 0.950 . S
C1666 C1665 1.398 . S
C1666 C1667 1.391 . S
C1667 H1655 0.950 . S
C1667 C1663 1.393 1_565 S
C1667 C1666 1.391 . S
H1668 C1676 0.950 . S
H1669 C1681 0.950 . S
H1670 C1678 0.950 . S
H1671 C1680 0.950 . S
H1672 C1682 0.950 . S
H1673 C1684 0.950 . S
H1674 C1686 0.950 . S
H1675 C1687 0.937 1_545 S
C1676 H1668 0.950 . S
C1676 C1677 1.386 . S
C1676 C1678 1.391 . S
C1677 C1676 1.386 . S
C1677 C1681 1.393 . S
C1678 H1670 0.950 . S
C1678 C1676 1.391 . S
C1678 C1679 1.400 . S
C1679 C1678 1.400 . S
C1679 C1680 1.398 . S
C1679 C1685 1.491 . S
C1680 H1671 0.950 . S
C1680 C1679 1.398 . S
C1680 C1681 1.391 . S
C1681 H1669 0.950 . S
C1681 C1677 1.393 . S
C1681 C1680 1.391 . S
C1682 H1672 0.950 . S
C1682 C1683 1.386 1_566 S
C1682 C1684 1.391 . S
C1683 C1682 1.386 1_544 S
C1683 C1687 1.361 1_545 S
C1684 H1673 0.950 . S
C1684 C1682 1.391 . S
C1684 C1685 1.400 . S
C1685 C1679 1.491 . S
C1685 C1684 1.400 . S
C1685 C1686 1.398 1_556 S
C1686 H1674 0.950 . S
C1686 C1685 1.398 1_554 S
C1686 C1687 1.437 . S
C1687 H1675 0.937 1_565 S
C1687 C1683 1.361 1_565 S
C1687 C1686 1.437 . S
H1688 C1696 0.950 1_554 S
H1689 C1701 0.950 . S
H1690 C1698 0.950 1_554 S
H1691 C1700 0.950 . S
H1692 C1702 0.972 . S
H1693 C1704 0.950 . S
H1694 C1706 0.950 . S
H1695 C1707 0.950 . S
C1696 H1688 0.950 1_556 S
C1696 C1697 1.386 . S
C1696 C1698 1.391 . S
C1697 C1696 1.386 . S
C1697 C1701 1.393 . S
C1698 H1690 0.950 1_556 S
C1698 C1696 1.391 . S
C1698 C1699 1.400 . S
C1699 C1698 1.400 . S
C1699 C1700 1.398 . S
C1699 C1705 1.491 . S
C1700 H1691 0.950 . S
C1700 C1699 1.398 . S
C1700 C1701 1.391 . S
C1701 H1689 0.950 . S
C1701 C1697 1.393 . S
C1701 C1700 1.391 . S
C1702 H1692 0.972 . S
C1702 C1703 1.378 . S
C1702 C1704 1.376 1_655 S
C1703 C1702 1.378 . S
C1703 C1707 1.394 1_656 S
C1704 H1693 0.950 . S
C1704 C1702 1.376 1_455 S
C1704 C1705 1.400 . S
C1705 C1699 1.491 . S
C1705 C1704 1.400 . S
C1705 C1706 1.398 1_556 S
C1706 H1694 0.950 . S
C1706 C1705 1.398 1_554 S
C1706 C1707 1.391 . S
C1707 H1695 0.950 . S
C1707 C1703 1.394 1_454 S
C1707 C1706 1.391 . S
H1708 C1716 0.950 . S
H1709 C1721 0.950 . S
H1710 C1718 0.950 . S
H1711 C1720 0.950 . S
H1712 C1722 0.950 . S
H1713 C1724 0.950 . S
H1714 C1726 0.950 1_554 S
H1715 C1727 0.950 1_554 S
C1716 H1708 0.950 . S
C1716 C1717 1.386 . S
C1716 C1718 1.391 . S
C1717 C1716 1.386 . S
C1717 C1721 1.393 1_554 S
C1718 H1710 0.950 . S
C1718 C1716 1.391 . S
C1718 C1719 1.400 1_554 S
C1719 C1718 1.400 1_556 S
C1719 C1720 1.398 . S
C1719 C1725 1.491 . S
C1720 H1711 0.950 . S
C1720 C1719 1.398 . S
C1720 C1721 1.391 . S
C1721 H1709 0.950 . S
C1721 C1717 1.393 1_556 S
C1721 C1720 1.391 . S
C1722 H1712 0.950 . S
C1722 C1723 1.386 . S
C1722 C1724 1.391 . S
C1723 C1722 1.386 . S
C1723 C1727 1.393 . S
C1724 H1713 0.950 . S
C1724 C1722 1.391 . S
C1724 C1725 1.400 . S
C1725 C1719 1.491 . S
C1725 C1724 1.400 . S
C1725 C1726 1.398 . S
C1726 H1714 0.950 1_556 S
C1726 C1725 1.398 . S
C1726 C1727 1.391 . S
C1727 H1715 0.950 1_556 S
C1727 C1723 1.393 . S
C1727 C1726 1.391 . S
H1728 C1736 0.950 . S
H1729 C1741 0.950 . S
H1730 C1738 0.950 . S
H1731 C1740 0.950 . S
H1732 C1742 0.950 . S
H1733 C1744 0.950 . S
H1734 C1746 0.950 . S
H1735 C1747 0.958 . S
C1736 H1728 0.950 . S
C1736 C1737 1.386 . S
C1736 C1738 1.391 . S
C1737 C1736 1.386 . S
C1737 C1741 1.393 . S
C1738 H1730 0.950 . S
C1738 C1736 1.391 . S
C1738 C1739 1.400 . S
C1739 C1738 1.400 . S
C1739 C1740 1.398 . S
C1739 C1745 1.491 . S
C1740 H1731 0.950 . S
C1740 C1739 1.398 . S
C1740 C1741 1.391 . S
C1741 H1729 0.950 . S
C1741 C1737 1.393 . S
C1741 C1740 1.391 . S
C1742 H1732 0.950 . S
C1742 C1743 1.386 1_655 S
C1742 C1744 1.391 . S
C1743 C1742 1.386 1_455 S
C1743 C1747 1.404 . S
C1744 H1733 0.950 . S
C1744 C1742 1.391 . S
C1744 C1745 1.400 . S
C1745 C1739 1.491 . S
C1745 C1744 1.400 . S
C1745 C1746 1.398 . S
C1746 H1734 0.950 . S
C1746 C1745 1.398 . S
C1746 C1747 1.372 1_655 S
C1747 H1735 0.958 . S
C1747 C1743 1.404 . S
C1747 C1746 1.372 1_455 S
H1748 C1756 0.950 . S
H1749 C1761 0.950 . S
H1750 C1758 0.950 . S
H1751 C1760 0.950 . S
H1752 C1762 0.950 . S
H1753 C1764 0.950 . S
H1754 C1766 0.950 . S
H1755 C1767 0.950 . S
C1756 H1748 0.950 . S
C1756 C1757 1.386 . S
C1756 C1758 1.391 . S
C1757 C1756 1.386 . S
C1757 C1761 1.393 . S
C1758 H1750 0.950 . S
C1758 C1756 1.391 . S
C1758 C1759 1.400 . S
C1759 C1758 1.400 . S
C1759 C1760 1.398 . S
C1759 C1765 1.491 . S
C1760 H1751 0.950 . S
C1760 C1759 1.398 . S
C1760 C1761 1.391 . S
C1761 H1749 0.950 . S
C1761 C1757 1.393 . S
C1761 C1760 1.391 . S
C1762 H1752 0.950 . S
C1762 C1763 1.386 . S
C1762 C1764 1.391 . S
C1763 C1762 1.386 . S
C1763 C1767 1.393 . S
C1764 H1753 0.950 . S
C1764 C1762 1.391 . S
C1764 C1765 1.400 . S
C1765 C1759 1.491 . S
C1765 C1764 1.400 . S
C1765 C1766 1.398 . S
C1766 H1754 0.950 . S
C1766 C1765 1.398 . S
C1766 C1767 1.391 . S
C1767 H1755 0.950 . S
C1767 C1763 1.393 . S
C1767 C1766 1.391 . S
H1768 C1776 0.950 . S
H1769 C1781 0.950 . S
H1770 C1778 0.950 . S
H1771 C1780 0.950 . S
H1772 C1782 0.945 1_565 S
H1773 C1784 0.950 . S
H1774 C1786 0.950 . S
H1775 C1787 0.937 1_565 S
C1776 H1768 0.950 . S
C1776 C1777 1.386 . S
C1776 C1778 1.391 . S
C1777 C1776 1.386 . S
C1777 C1781 1.393 . S
C1778 H1770 0.950 . S
C1778 C1776 1.391 . S
C1778 C1779 1.400 . S
C1779 C1778 1.400 . S
C1779 C1780 1.398 . S
C1779 C1785 1.491 . S
C1780 H1771 0.950 . S
C1780 C1779 1.398 . S
C1780 C1781 1.391 . S
C1781 H1769 0.950 . S
C1781 C1777 1.393 . S
C1781 C1780 1.391 . S
C1782 H1772 0.945 1_545 S
C1782 C1783 1.386 1_545 S
C1782 C1784 1.391 . S
C1783 C1782 1.386 1_565 S
C1783 C1787 1.393 1_565 S
C1784 H1773 0.950 . S
C1784 C1782 1.391 . S
C1784 C1785 1.400 . S
C1785 C1779 1.491 . S
C1785 C1784 1.400 . S
C1785 C1786 1.398 . S
C1786 H1774 0.950 . S
C1786 C1785 1.398 . S
C1786 C1787 1.391 . S
C1787 H1775 0.937 1_545 S
C1787 C1783 1.393 1_545 S
C1787 C1786 1.391 . S
H1788 C1796 0.950 . S
H1789 C1801 0.950 . S
H1790 C1798 0.950 . S
H1791 C1800 0.950 . S
H1792 C1802 0.950 . S
H1793 C1804 0.950 . S
H1794 C1806 0.950 . S
H1795 C1807 0.950 . S
C1796 H1788 0.950 . S
C1796 C1797 1.386 . S
C1796 C1798 1.391 . S
C1797 C1796 1.386 . S
C1797 C1801 1.393 . S
C1798 H1790 0.950 . S
C1798 C1796 1.391 . S
C1798 C1799 1.400 . S
C1799 C1798 1.400 . S
C1799 C1800 1.398 . S
C1799 C1805 1.491 . S
C1800 H1791 0.950 . S
C1800 C1799 1.398 . S
C1800 C1801 1.391 . S
C1801 H1789 0.950 . S
C1801 C1797 1.393 . S
C1801 C1800 1.391 . S
C1802 H1792 0.950 . S
C1802 C1803 1.386 . S
C1802 C1804 1.391 . S
C1803 C1802 1.386 . S
C1803 C1807 1.393 . S
C1804 H1793 0.950 . S
C1804 C1802 1.391 . S
C1804 C1805 1.400 . S
C1805 C1799 1.491 . S
C1805 C1804 1.400 . S
C1805 C1806 1.398 . S
C1806 H1794 0.950 . S
C1806 C1805 1.398 . S
C1806 C1807 1.391 . S
C1807 H1795 0.950 . S
C1807 C1803 1.393 . S
C1807 C1806 1.391 . S
H1808 C1816 0.950 . S
H1809 C1821 0.950 . S
H1810 C1818 0.950 . S
H1811 C1820 0.950 . S
H1812 C1822 0.950 . S
H1813 C1824 0.950 . S
H1814 C1826 0.950 . S
H1815 C1827 0.950 . S
C1816 H1808 0.950 . S
C1816 C1817 1.386 . S
C1816 C1818 1.391 . S
C1817 C1816 1.386 . S
C1817 C1821 1.393 . S
C1818 H1810 0.950 . S
C1818 C1816 1.391 . S
C1818 C1819 1.400 . S
C1819 C1818 1.400 . S
C1819 C1820 1.398 . S
C1819 C1825 1.491 . S
C1820 H1811 0.950 . S
C1820 C1819 1.398 . S
C1820 C1821 1.391 . S
C1821 H1809 0.950 . S
C1821 C1817 1.393 . S
C1821 C1820 1.391 . S
C1822 H1812 0.950 . S
C1822 C1823 1.386 . S
C1822 C1824 1.391 . S
C1823 C1822 1.386 . S
C1823 C1827 1.393 . S
C1824 H1813 0.950 . S
C1824 C1822 1.391 . S
C1824 C1825 1.400 . S
C1825 C1819 1.491 . S
C1825 C1824 1.400 . S
C1825 C1826 1.398 . S
C1826 H1814 0.950 . S
C1826 C1825 1.398 . S
C1826 C1827 1.391 . S
C1827 H1815 0.950 . S
C1827 C1823 1.393 . S
C1827 C1826 1.391 . S
H1828 C1836 0.950 . S
H1829 C1841 0.950 . S
H1830 C1838 0.950 . S
H1831 C1840 0.950 . S
H1832 C1842 0.950 . S
H1833 C1844 0.950 . S
H1834 C1846 0.950 . S
H1835 C1847 0.950 . S
C1836 H1828 0.950 . S
C1836 C1837 1.386 . S
C1836 C1838 1.391 . S
C1837 C1836 1.386 . S
C1837 C1841 1.393 . S
C1838 H1830 0.950 . S
C1838 C1836 1.391 . S
C1838 C1839 1.400 . S
C1839 C1838 1.400 . S
C1839 C1840 1.398 . S
C1839 C1845 1.491 . S
C1840 H1831 0.950 . S
C1840 C1839 1.398 . S
C1840 C1841 1.391 . S
C1841 H1829 0.950 . S
C1841 C1837 1.393 . S
C1841 C1840 1.391 . S
C1842 H1832 0.950 . S
C1842 C1843 1.386 . S
C1842 C1844 1.391 . S
C1843 C1842 1.386 . S
C1843 C1847 1.393 . S
C1844 H1833 0.950 . S
C1844 C1842 1.391 . S
C1844 C1845 1.400 . S
C1845 C1839 1.491 . S
C1845 C1844 1.400 . S
C1845 C1846 1.398 . S
C1846 H1834 0.950 . S
C1846 C1845 1.398 . S
C1846 C1847 1.391 . S
C1847 H1835 0.950 . S
C1847 C1843 1.393 . S
C1847 C1846 1.391 . S
H1848 C1856 0.950 . S
H1849 C1861 0.950 . S
H1850 C1858 0.950 . S
H1851 C1860 0.950 . S
H1852 C1862 0.950 . S
H1853 C1864 0.950 . S
H1854 C1866 0.950 . S
H1855 C1867 0.950 . S
C1856 H1848 0.950 . S
C1856 C1857 1.386 . S
C1856 C1858 1.391 . S
C1857 C1856 1.386 . S
C1857 C1861 1.393 . S
C1858 H1850 0.950 . S
C1858 C1856 1.391 . S
C1858 C1859 1.400 . S
C1859 C1858 1.400 . S
C1859 C1860 1.398 . S
C1859 C1865 1.491 . S
C1860 H1851 0.950 . S
C1860 C1859 1.398 . S
C1860 C1861 1.391 . S
C1861 H1849 0.950 . S
C1861 C1857 1.393 . S
C1861 C1860 1.391 . S
C1862 H1852 0.950 . S
C1862 C1863 1.386 . S
C1862 C1864 1.391 . S
C1863 C1862 1.386 . S
C1863 C1867 1.393 . S
C1864 H1853 0.950 . S
C1864 C1862 1.391 . S
C1864 C1865 1.400 . S
C1865 C1859 1.491 . S
C1865 C1864 1.400 . S
C1865 C1866 1.398 . S
C1866 H1854 0.950 . S
C1866 C1865 1.398 . S
C1866 C1867 1.391 . S
C1867 H1855 0.950 . S
C1867 C1863 1.393 . S
C1867 C1866 1.391 . S
H1868 C1876 0.950 . S
H1869 C1881 0.950 . S
H1870 C1878 0.950 . S
H1871 C1880 0.950 . S
H1872 C1882 0.950 . S
H1873 C1884 0.950 . S
H1874 C1886 0.950 . S
H1875 C1887 0.950 . S
C1876 H1868 0.950 . S
C1876 C1877 1.386 . S
C1876 C1878 1.391 . S
C1877 C1876 1.386 . S
C1877 C1881 1.393 . S
C1878 H1870 0.950 . S
C1878 C1876 1.391 . S
C1878 C1879 1.400 . S
C1879 C1878 1.400 . S
C1879 C1880 1.398 . S
C1879 C1885 1.491 . S
C1880 H1871 0.950 . S
C1880 C1879 1.398 . S
C1880 C1881 1.391 . S
C1881 H1869 0.950 . S
C1881 C1877 1.393 . S
C1881 C1880 1.391 . S
C1882 H1872 0.950 . S
C1882 C1883 1.386 . S
C1882 C1884 1.391 . S
C1883 C1882 1.386 . S
C1883 C1887 1.393 . S
C1884 H1873 0.950 . S
C1884 C1882 1.391 . S
C1884 C1885 1.400 . S
C1885 C1879 1.491 . S
C1885 C1884 1.400 . S
C1885 C1886 1.398 . S
C1886 H1874 0.950 . S
C1886 C1885 1.398 . S
C1886 C1887 1.391 . S
C1887 H1875 0.950 . S
C1887 C1883 1.393 . S
C1887 C1886 1.391 . S
H1888 C1896 0.950 . S
H1889 C1901 0.950 . S
H1890 C1898 0.950 . S
H1891 C1900 0.950 . S
H1892 C1902 0.950 . S
H1893 C1904 0.950 . S
H1894 C1906 0.950 . S
H1895 C1907 0.950 . S
C1896 H1888 0.950 . S
C1896 C1897 1.386 . S
C1896 C1898 1.391 . S
C1897 C1896 1.386 . S
C1897 C1901 1.393 . S
C1898 H1890 0.950 . S
C1898 C1896 1.391 . S
C1898 C1899 1.400 . S
C1899 C1898 1.400 . S
C1899 C1900 1.398 . S
C1899 C1905 1.491 . S
C1900 H1891 0.950 . S
C1900 C1899 1.398 . S
C1900 C1901 1.391 . S
C1901 H1889 0.950 . S
C1901 C1897 1.393 . S
C1901 C1900 1.391 . S
C1902 H1892 0.950 . S
C1902 C1903 1.386 . S
C1902 C1904 1.391 . S
C1903 C1902 1.386 . S
C1903 C1907 1.393 . S
C1904 H1893 0.950 . S
C1904 C1902 1.391 . S
C1904 C1905 1.400 . S
C1905 C1899 1.491 . S
C1905 C1904 1.400 . S
C1905 C1906 1.398 . S
C1906 H1894 0.950 . S
C1906 C1905 1.398 . S
C1906 C1907 1.391 . S
C1907 H1895 0.950 . S
C1907 C1903 1.393 . S
C1907 C1906 1.391 . S
H1908 C1916 0.950 . S
H1909 C1921 0.950 . S
H1910 C1918 0.950 . S
H1911 C1920 0.950 . S
H1912 C1922 0.950 . S
H1913 C1924 0.950 . S
H1914 C1926 0.950 . S
H1915 C1927 0.950 . S
C1916 H1908 0.950 . S
C1916 C1917 1.386 . S
C1916 C1918 1.391 . S
C1917 C1916 1.386 . S
C1917 C1921 1.393 . S
C1918 H1910 0.950 . S
C1918 C1916 1.391 . S
C1918 C1919 1.400 . S
C1919 C1918 1.400 . S
C1919 C1920 1.398 . S
C1919 C1925 1.491 . S
C1920 H1911 0.950 . S
C1920 C1919 1.398 . S
C1920 C1921 1.391 . S
C1921 H1909 0.950 . S
C1921 C1917 1.393 . S
C1921 C1920 1.391 . S
C1922 H1912 0.950 . S
C1922 C1923 1.386 . S
C1922 C1924 1.391 . S
C1923 C1922 1.386 . S
C1923 C1927 1.393 . S
C1924 H1913 0.950 . S
C1924 C1922 1.391 . S
C1924 C1925 1.400 . S
C1925 C1919 1.491 . S
C1925 C1924 1.400 . S
C1925 C1926 1.398 . S
C1926 H1914 0.950 . S
C1926 C1925 1.398 . S
C1926 C1927 1.391 . S
C1927 H1915 0.950 . S
C1927 C1923 1.393 . S
C1927 C1926 1.391 . S
H1928 C1936 0.950 . S
H1929 C1941 0.950 . S
H1930 C1938 0.950 . S
H1931 C1940 0.950 . S
H1932 C1942 0.950 . S
H1933 C1944 0.950 . S
H1934 C1946 0.950 . S
H1935 C1947 0.950 . S
C1936 H1928 0.950 . S
C1936 C1937 1.386 . S
C1936 C1938 1.391 . S
C1937 C1936 1.386 . S
C1937 C1941 1.393 . S
C1938 H1930 0.950 . S
C1938 C1936 1.391 . S
C1938 C1939 1.400 . S
C1939 C1938 1.400 . S
C1939 C1940 1.398 . S
C1939 C1945 1.491 . S
C1940 H1931 0.950 . S
C1940 C1939 1.398 . S
C1940 C1941 1.391 . S
C1941 H1929 0.950 . S
C1941 C1937 1.393 . S
C1941 C1940 1.391 . S
C1942 H1932 0.950 . S
C1942 C1943 1.386 . S
C1942 C1944 1.391 . S
C1943 C1942 1.386 . S
C1943 C1947 1.393 . S
C1944 H1933 0.950 . S
C1944 C1942 1.391 . S
C1944 C1945 1.400 . S
C1945 C1939 1.491 . S
C1945 C1944 1.400 . S
C1945 C1946 1.398 . S
C1946 H1934 0.950 . S
C1946 C1945 1.398 . S
C1946 C1947 1.391 . S
C1947 H1935 0.950 . S
C1947 C1943 1.393 . S
C1947 C1946 1.391 . S
H1948 C1956 0.950 . S
H1949 C1961 0.950 . S
H1950 C1958 0.950 . S
H1951 C1960 0.950 . S
H1952 C1962 0.950 . S
H1953 C1964 0.950 . S
H1954 C1966 0.950 . S
H1955 C1967 0.950 . S
C1956 H1948 0.950 . S
C1956 C1957 1.386 . S
C1956 C1958 1.391 . S
C1957 C1956 1.386 . S
C1957 C1961 1.393 . S
C1958 H1950 0.950 . S
C1958 C1956 1.391 . S
C1958 C1959 1.400 . S
C1959 C1958 1.400 . S
C1959 C1960 1.398 . S
C1959 C1965 1.491 . S
C1960 H1951 0.950 . S
C1960 C1959 1.398 . S
C1960 C1961 1.391 . S
C1961 H1949 0.950 . S
C1961 C1957 1.393 . S
C1961 C1960 1.391 . S
C1962 H1952 0.950 . S
C1962 C1963 1.386 . S
C1962 C1964 1.391 . S
C1963 C1962 1.386 . S
C1963 C1967 1.393 . S
C1964 H1953 0.950 . S
C1964 C1962 1.391 . S
C1964 C1965 1.400 . S
C1965 C1959 1.491 . S
C1965 C1964 1.400 . S
C1965 C1966 1.398 . S
C1966 H1954 0.950 . S
C1966 C1965 1.398 . S
C1966 C1967 1.391 . S
C1967 H1955 0.950 . S
C1967 C1963 1.393 . S
C1967 C1966 1.391 . S
H1968 C1976 0.950 . S
H1969 C1981 0.950 . S
H1970 C1978 0.950 . S
H1971 C1980 0.950 . S
H1972 C1982 0.950 . S
H1973 C1984 0.950 . S
H1974 C1986 0.950 . S
H1975 C1987 0.950 . S
C1976 H1968 0.950 . S
C1976 C1977 1.386 . S
C1976 C1978 1.391 . S
C1977 C1976 1.386 . S
C1977 C1981 1.393 . S
C1978 H1970 0.950 . S
C1978 C1976 1.391 . S
C1978 C1979 1.400 . S
C1979 C1978 1.400 . S
C1979 C1980 1.398 . S
C1979 C1985 1.491 . S
C1980 H1971 0.950 . S
C1980 C1979 1.398 . S
C1980 C1981 1.391 . S
C1981 H1969 0.950 . S
C1981 C1977 1.393 . S
C1981 C1980 1.391 . S
C1982 H1972 0.950 . S
C1982 C1983 1.386 . S
C1982 C1984 1.391 . S
C1983 C1982 1.386 . S
C1983 C1987 1.393 . S
C1984 H1973 0.950 . S
C1984 C1982 1.391 . S
C1984 C1985 1.400 . S
C1985 C1979 1.491 . S
C1985 C1984 1.400 . S
C1985 C1986 1.398 . S
C1986 H1974 0.950 . S
C1986 C1985 1.398 . S
C1986 C1987 1.391 . S
C1987 H1975 0.950 . S
C1987 C1983 1.393 . S
C1987 C1986 1.391 . S
H1988 C1996 0.950 . S
H1989 C2001 0.950 . S
H1990 C1998 0.950 . S
H1991 C2000 0.950 . S
H1992 C2002 0.950 . S
H1993 C2004 0.950 . S
H1994 C2006 0.950 . S
H1995 C2007 0.950 . S
C1996 H1988 0.950 . S
C1996 C1997 1.386 . S
C1996 C1998 1.391 . S
C1997 C1996 1.386 . S
C1997 C2001 1.393 . S
C1998 H1990 0.950 . S
C1998 C1996 1.391 . S
C1998 C1999 1.400 . S
C1999 C1998 1.400 . S
C1999 C2000 1.398 . S
C1999 C2005 1.491 . S
C2000 H1991 0.950 . S
C2000 C1999 1.398 . S
C2000 C2001 1.391 . S
C2001 H1989 0.950 . S
C2001 C1997 1.393 . S
C2001 C2000 1.391 . S
C2002 H1992 0.950 . S
C2002 C2003 1.386 . S
C2002 C2004 1.391 . S
C2003 C2002 1.386 . S
C2003 C2007 1.393 . S
C2004 H1993 0.950 . S
C2004 C2002 1.391 . S
C2004 C2005 1.400 . S
C2005 C1999 1.491 . S
C2005 C2004 1.400 . S
C2005 C2006 1.398 . S
C2006 H1994 0.950 . S
C2006 C2005 1.398 . S
C2006 C2007 1.391 . S
C2007 H1995 0.950 . S
C2007 C2003 1.393 . S
C2007 C2006 1.391 . S
H2008 C2016 0.950 . S
H2009 C2021 0.950 . S
H2010 C2018 0.950 . S
H2011 C2020 0.950 . S
H2012 C2022 0.950 . S
H2013 C2024 0.950 . S
H2014 C2026 0.950 . S
H2015 C2027 0.950 . S
C2016 H2008 0.950 . S
C2016 C2017 1.386 . S
C2016 C2018 1.391 . S
C2017 C2016 1.386 . S
C2017 C2021 1.393 . S
C2018 H2010 0.950 . S
C2018 C2016 1.391 . S
C2018 C2019 1.400 . S
C2019 C2018 1.400 . S
C2019 C2020 1.398 . S
C2019 C2025 1.491 . S
C2020 H2011 0.950 . S
C2020 C2019 1.398 . S
C2020 C2021 1.391 . S
C2021 H2009 0.950 . S
C2021 C2017 1.393 . S
C2021 C2020 1.391 . S
C2022 H2012 0.950 . S
C2022 C2023 1.386 . S
C2022 C2024 1.391 . S
C2023 C2022 1.386 . S
C2023 C2027 1.393 . S
C2024 H2013 0.950 . S
C2024 C2022 1.391 . S
C2024 C2025 1.400 . S
C2025 C2019 1.491 . S
C2025 C2024 1.400 . S
C2025 C2026 1.398 . S
C2026 H2014 0.950 . S
C2026 C2025 1.398 . S
C2026 C2027 1.391 . S
C2027 H2015 0.950 . S
C2027 C2023 1.393 . S
C2027 C2026 1.391 . S
H2028 C2036 0.950 . S
H2029 C2041 0.950 . S
H2030 C2038 0.950 . S
H2031 C2040 0.950 . S
H2032 C2042 0.950 . S
H2033 C2044 0.950 . S
H2034 C2046 0.950 . S
H2035 C2047 0.950 . S
C2036 H2028 0.950 . S
C2036 C2037 1.386 . S
C2036 C2038 1.391 . S
C2037 C2036 1.386 . S
C2037 C2041 1.393 . S
C2038 H2030 0.950 . S
C2038 C2036 1.391 . S
C2038 C2039 1.400 . S
C2039 C2038 1.400 . S
C2039 C2040 1.398 . S
C2039 C2045 1.491 . S
C2040 H2031 0.950 . S
C2040 C2039 1.398 . S
C2040 C2041 1.391 . S
C2041 H2029 0.950 . S
C2041 C2037 1.393 . S
C2041 C2040 1.391 . S
C2042 H2032 0.950 . S
C2042 C2043 1.386 . S
C2042 C2044 1.391 . S
C2043 C2042 1.386 . S
C2043 C2047 1.393 . S
C2044 H2033 0.950 . S
C2044 C2042 1.391 . S
C2044 C2045 1.400 . S
C2045 C2039 1.491 . S
C2045 C2044 1.400 . S
C2045 C2046 1.398 . S
C2046 H2034 0.950 . S
C2046 C2045 1.398 . S
C2046 C2047 1.391 . S
C2047 H2035 0.950 . S
C2047 C2043 1.393 . S
C2047 C2046 1.391 . S
H2048 C2056 0.950 . S
H2049 C2061 0.950 . S
H2050 C2058 0.950 . S
H2051 C2060 0.950 . S
H2052 C2062 0.950 . S
H2053 C2064 0.950 . S
H2054 C2066 0.950 . S
H2055 C2067 0.950 . S
C2056 H2048 0.950 . S
C2056 C2057 1.386 . S
C2056 C2058 1.391 . S
C2057 C2056 1.386 . S
C2057 C2061 1.393 . S
C2058 H2050 0.950 . S
C2058 C2056 1.391 . S
C2058 C2059 1.400 . S
C2059 C2058 1.400 . S
C2059 C2060 1.398 . S
C2059 C2065 1.491 . S
C2060 H2051 0.950 . S
C2060 C2059 1.398 . S
C2060 C2061 1.391 . S
C2061 H2049 0.950 . S
C2061 C2057 1.393 . S
C2061 C2060 1.391 . S
C2062 H2052 0.950 . S
C2062 C2063 1.386 . S
C2062 C2064 1.391 . S
C2063 C2062 1.386 . S
C2063 C2067 1.393 . S
C2064 H2053 0.950 . S
C2064 C2062 1.391 . S
C2064 C2065 1.400 . S
C2065 C2059 1.491 . S
C2065 C2064 1.400 . S
C2065 C2066 1.398 . S
C2066 H2054 0.950 . S
C2066 C2065 1.398 . S
C2066 C2067 1.391 . S
C2067 H2055 0.950 . S
C2067 C2063 1.393 . S
C2067 C2066 1.391 . S
H2068 C2076 0.950 . S
H2069 C2081 0.950 . S
H2070 C2078 0.950 . S
H2071 C2080 0.950 . S
H2072 C2082 0.950 . S
H2073 C2084 0.950 . S
H2074 C2086 0.950 . S
H2075 C2087 0.950 . S
C2076 H2068 0.950 . S
C2076 C2077 1.386 . S
C2076 C2078 1.391 . S
C2077 C2076 1.386 . S
C2077 C2081 1.393 . S
C2078 H2070 0.950 . S
C2078 C2076 1.391 . S
C2078 C2079 1.400 . S
C2079 C2078 1.400 . S
C2079 C2080 1.398 . S
C2079 C2085 1.491 . S
C2080 H2071 0.950 . S
C2080 C2079 1.398 . S
C2080 C2081 1.391 . S
C2081 H2069 0.950 . S
C2081 C2077 1.393 . S
C2081 C2080 1.391 . S
C2082 H2072 0.950 . S
C2082 C2083 1.386 . S
C2082 C2084 1.391 . S
C2083 C2082 1.386 . S
C2083 C2087 1.393 . S
C2084 H2073 0.950 . S
C2084 C2082 1.391 . S
C2084 C2085 1.400 . S
C2085 C2079 1.491 . S
C2085 C2084 1.400 . S
C2085 C2086 1.398 . S
C2086 H2074 0.950 . S
C2086 C2085 1.398 . S
C2086 C2087 1.391 . S
C2087 H2075 0.950 . S
C2087 C2083 1.393 . S
C2087 C2086 1.391 . S
H2088 C2096 0.950 . S
H2089 C2101 0.950 . S
H2090 C2098 0.950 . S
H2091 C2100 0.950 . S
H2092 C2102 0.950 . S
H2093 C2104 0.950 . S
H2094 C2106 0.950 . S
H2095 C2107 0.950 . S
C2096 H2088 0.950 . S
C2096 C2097 1.386 . S
C2096 C2098 1.391 . S
C2097 C2096 1.386 . S
C2097 C2101 1.393 . S
C2098 H2090 0.950 . S
C2098 C2096 1.391 . S
C2098 C2099 1.400 . S
C2099 C2098 1.400 . S
C2099 C2100 1.398 . S
C2099 C2105 1.491 . S
C2100 H2091 0.950 . S
C2100 C2099 1.398 . S
C2100 C2101 1.391 . S
C2101 H2089 0.950 . S
C2101 C2097 1.393 . S
C2101 C2100 1.391 . S
C2102 H2092 0.950 . S
C2102 C2103 1.386 . S
C2102 C2104 1.391 . S
C2103 C2102 1.386 . S
C2103 C2107 1.393 . S
C2104 H2093 0.950 . S
C2104 C2102 1.391 . S
C2104 C2105 1.400 . S
C2105 C2099 1.491 . S
C2105 C2104 1.400 . S
C2105 C2106 1.398 . S
C2106 H2094 0.950 . S
C2106 C2105 1.398 . S
C2106 C2107 1.391 . S
C2107 H2095 0.950 . S
C2107 C2103 1.393 . S
C2107 C2106 1.391 . S
H2108 C2116 0.950 . S
H2109 C2121 0.950 . S
H2110 C2118 0.950 . S
H2111 C2120 0.950 . S
H2112 C2122 0.950 . S
H2113 C2124 0.950 . S
H2114 C2126 0.950 . S
H2115 C2127 0.950 . S
C2116 H2108 0.950 . S
C2116 C2117 1.386 . S
C2116 C2118 1.391 . S
C2117 C2116 1.386 . S
C2117 C2121 1.393 . S
C2118 H2110 0.950 . S
C2118 C2116 1.391 . S
C2118 C2119 1.400 . S
C2119 C2118 1.400 . S
C2119 C2120 1.398 . S
C2119 C2125 1.491 . S
C2120 H2111 0.950 . S
C2120 C2119 1.398 . S
C2120 C2121 1.391 . S
C2121 H2109 0.950 . S
C2121 C2117 1.393 . S
C2121 C2120 1.391 . S
C2122 H2112 0.950 . S
C2122 C2123 1.386 . S
C2122 C2124 1.391 . S
C2123 C2122 1.386 . S
C2123 C2127 1.393 . S
C2124 H2113 0.950 . S
C2124 C2122 1.391 . S
C2124 C2125 1.400 . S
C2125 C2119 1.491 . S
C2125 C2124 1.400 . S
C2125 C2126 1.398 . S
C2126 H2114 0.950 . S
C2126 C2125 1.398 . S
C2126 C2127 1.391 . S
C2127 H2115 0.950 . S
C2127 C2123 1.393 . S
C2127 C2126 1.391 . S
H2128 C2136 0.950 . S
H2129 C2141 0.950 . S
H2130 C2138 0.950 . S
H2131 C2140 0.950 . S
H2132 C2142 0.950 . S
H2133 C2144 0.950 . S
H2134 C2146 0.950 . S
H2135 C2147 0.950 . S
C2136 H2128 0.950 . S
C2136 C2137 1.386 . S
C2136 C2138 1.391 . S
C2137 C2136 1.386 . S
C2137 C2141 1.393 . S
C2138 H2130 0.950 . S
C2138 C2136 1.391 . S
C2138 C2139 1.400 . S
C2139 C2138 1.400 . S
C2139 C2140 1.398 . S
C2139 C2145 1.491 . S
C2140 H2131 0.950 . S
C2140 C2139 1.398 . S
C2140 C2141 1.391 . S
C2141 H2129 0.950 . S
C2141 C2137 1.393 . S
C2141 C2140 1.391 . S
C2142 H2132 0.950 . S
C2142 C2143 1.386 . S
C2142 C2144 1.391 . S
C2143 C2142 1.386 . S
C2143 C2147 1.393 . S
C2144 H2133 0.950 . S
C2144 C2142 1.391 . S
C2144 C2145 1.400 . S
C2145 C2139 1.491 . S
C2145 C2144 1.400 . S
C2145 C2146 1.398 . S
C2146 H2134 0.950 . S
C2146 C2145 1.398 . S
C2146 C2147 1.391 . S
C2147 H2135 0.950 . S
C2147 C2143 1.393 . S
C2147 C2146 1.391 . S
H2148 C2156 0.950 . S
H2149 C2161 0.950 . S
H2150 C2158 0.950 . S
H2151 C2160 0.950 . S
H2152 C2162 0.950 . S
H2153 C2164 0.950 . S
H2154 C2166 0.950 . S
H2155 C2167 0.950 . S
C2156 H2148 0.950 . S
C2156 C2157 1.386 . S
C2156 C2158 1.391 . S
C2157 C2156 1.386 . S
C2157 C2161 1.393 . S
C2158 H2150 0.950 . S
C2158 C2156 1.391 . S
C2158 C2159 1.400 . S
C2159 C2158 1.400 . S
C2159 C2160 1.398 . S
C2159 C2165 1.491 . S
C2160 H2151 0.950 . S
C2160 C2159 1.398 . S
C2160 C2161 1.391 . S
C2161 H2149 0.950 . S
C2161 C2157 1.393 . S
C2161 C2160 1.391 . S
C2162 H2152 0.950 . S
C2162 C2163 1.386 . S
C2162 C2164 1.391 . S
C2163 C2162 1.386 . S
C2163 C2167 1.393 . S
C2164 H2153 0.950 . S
C2164 C2162 1.391 . S
C2164 C2165 1.400 . S
C2165 C2159 1.491 . S
C2165 C2164 1.400 . S
C2165 C2166 1.398 . S
C2166 H2154 0.950 . S
C2166 C2165 1.398 . S
C2166 C2167 1.391 . S
C2167 H2155 0.950 . S
C2167 C2163 1.393 . S
C2167 C2166 1.391 . S
H2168 C2176 0.950 . S
H2169 C2181 0.950 . S
H2170 C2178 0.950 . S
H2171 C2180 0.950 . S
H2172 C2182 0.950 . S
H2173 C2184 0.950 . S
H2174 C2186 0.950 . S
H2175 C2187 0.950 . S
C2176 H2168 0.950 . S
C2176 C2177 1.386 . S
C2176 C2178 1.391 . S
C2177 C2176 1.386 . S
C2177 C2181 1.393 . S
C2178 H2170 0.950 . S
C2178 C2176 1.391 . S
C2178 C2179 1.400 . S
C2179 C2178 1.400 . S
C2179 C2180 1.398 . S
C2179 C2185 1.491 . S
C2180 H2171 0.950 . S
C2180 C2179 1.398 . S
C2180 C2181 1.391 . S
C2181 H2169 0.950 . S
C2181 C2177 1.393 . S
C2181 C2180 1.391 . S
C2182 H2172 0.950 . S
C2182 C2183 1.386 . S
C2182 C2184 1.391 . S
C2183 C2182 1.386 . S
C2183 C2187 1.393 . S
C2184 H2173 0.950 . S
C2184 C2182 1.391 . S
C2184 C2185 1.400 . S
C2185 C2179 1.491 . S
C2185 C2184 1.400 . S
C2185 C2186 1.398 . S
C2186 H2174 0.950 . S
C2186 C2185 1.398 . S
C2186 C2187 1.391 . S
C2187 H2175 0.950 . S
C2187 C2183 1.393 . S
C2187 C2186 1.391 . S
H2188 C2196 0.950 . S
H2189 C2201 0.950 . S
H2190 C2198 0.950 . S
H2191 C2200 0.950 . S
H2192 C2202 0.950 . S
H2193 C2204 0.950 . S
H2194 C2206 0.950 . S
H2195 C2207 0.950 . S
C2196 H2188 0.950 . S
C2196 C2197 1.386 . S
C2196 C2198 1.391 . S
C2197 C2196 1.386 . S
C2197 C2201 1.393 . S
C2198 H2190 0.950 . S
C2198 C2196 1.391 . S
C2198 C2199 1.400 . S
C2199 C2198 1.400 . S
C2199 C2200 1.398 . S
C2199 C2205 1.491 . S
C2200 H2191 0.950 . S
C2200 C2199 1.398 . S
C2200 C2201 1.391 . S
C2201 H2189 0.950 . S
C2201 C2197 1.393 . S
C2201 C2200 1.391 . S
C2202 H2192 0.950 . S
C2202 C2203 1.386 . S
C2202 C2204 1.391 . S
C2203 C2202 1.386 . S
C2203 C2207 1.393 . S
C2204 H2193 0.950 . S
C2204 C2202 1.391 . S
C2204 C2205 1.400 . S
C2205 C2199 1.491 . S
C2205 C2204 1.400 . S
C2205 C2206 1.398 . S
C2206 H2194 0.950 . S
C2206 C2205 1.398 . S
C2206 C2207 1.391 . S
C2207 H2195 0.950 . S
C2207 C2203 1.393 . S
C2207 C2206 1.391 . S
H2208 C2216 0.950 . S
H2209 C2221 0.950 . S
H2210 C2218 0.950 . S
H2211 C2220 0.950 . S
H2212 C2222 0.950 . S
H2213 C2224 0.950 . S
H2214 C2226 0.950 . S
H2215 C2227 0.950 . S
C2216 H2208 0.950 . S
C2216 C2217 1.386 . S
C2216 C2218 1.391 . S
C2217 C2216 1.386 . S
C2217 C2221 1.393 . S
C2218 H2210 0.950 . S
C2218 C2216 1.391 . S
C2218 C2219 1.400 . S
C2219 C2218 1.400 . S
C2219 C2220 1.398 . S
C2219 C2225 1.491 . S
C2220 H2211 0.950 . S
C2220 C2219 1.398 . S
C2220 C2221 1.391 . S
C2221 H2209 0.950 . S
C2221 C2217 1.393 . S
C2221 C2220 1.391 . S
C2222 H2212 0.950 . S
C2222 C2223 1.386 . S
C2222 C2224 1.391 . S
C2223 C2222 1.386 . S
C2223 C2227 1.393 . S
C2224 H2213 0.950 . S
C2224 C2222 1.391 . S
C2224 C2225 1.400 . S
C2225 C2219 1.491 . S
C2225 C2224 1.400 . S
C2225 C2226 1.398 . S
C2226 H2214 0.950 . S
C2226 C2225 1.398 . S
C2226 C2227 1.391 . S
C2227 H2215 0.950 . S
C2227 C2223 1.393 . S
C2227 C2226 1.391 . S
H2228 C2236 0.950 . S
H2229 C2241 0.950 . S
H2230 C2238 0.950 . S
H2231 C2240 0.950 . S
H2232 C2242 0.950 . S
H2233 C2244 0.950 . S
H2234 C2246 0.950 . S
H2235 C2247 0.950 . S
C2236 H2228 0.950 . S
C2236 C2237 1.386 . S
C2236 C2238 1.391 . S
C2237 C2236 1.386 . S
C2237 C2241 1.393 . S
C2238 H2230 0.950 . S
C2238 C2236 1.391 . S
C2238 C2239 1.400 . S
C2239 C2238 1.400 . S
C2239 C2240 1.398 . S
C2239 C2245 1.491 . S
C2240 H2231 0.950 . S
C2240 C2239 1.398 . S
C2240 C2241 1.391 . S
C2241 H2229 0.950 . S
C2241 C2237 1.393 . S
C2241 C2240 1.391 . S
C2242 H2232 0.950 . S
C2242 C2243 1.386 . S
C2242 C2244 1.391 . S
C2243 C2242 1.386 . S
C2243 C2247 1.393 . S
C2244 H2233 0.950 . S
C2244 C2242 1.391 . S
C2244 C2245 1.400 . S
C2245 C2239 1.491 . S
C2245 C2244 1.400 . S
C2245 C2246 1.398 . S
C2246 H2234 0.950 . S
C2246 C2245 1.398 . S
C2246 C2247 1.391 . S
C2247 H2235 0.950 . S
C2247 C2243 1.393 . S
C2247 C2246 1.391 . S
H2248 C2256 0.950 . S
H2249 C2261 0.950 . S
H2250 C2258 0.950 . S
H2251 C2260 0.950 . S
H2252 C2262 0.950 . S
H2253 C2264 0.950 . S
H2254 C2266 0.950 . S
H2255 C2267 0.950 . S
C2256 H2248 0.950 . S
C2256 C2257 1.386 . S
C2256 C2258 1.391 . S
C2257 C2256 1.386 . S
C2257 C2261 1.393 . S
C2258 H2250 0.950 . S
C2258 C2256 1.391 . S
C2258 C2259 1.400 . S
C2259 C2258 1.400 . S
C2259 C2260 1.398 . S
C2259 C2265 1.491 . S
C2260 H2251 0.950 . S
C2260 C2259 1.398 . S
C2260 C2261 1.391 . S
C2261 H2249 0.950 . S
C2261 C2257 1.393 . S
C2261 C2260 1.391 . S
C2262 H2252 0.950 . S
C2262 C2263 1.386 . S
C2262 C2264 1.391 . S
C2263 C2262 1.386 . S
C2263 C2267 1.393 . S
C2264 H2253 0.950 . S
C2264 C2262 1.391 . S
C2264 C2265 1.400 . S
C2265 C2259 1.491 . S
C2265 C2264 1.400 . S
C2265 C2266 1.398 . S
C2266 H2254 0.950 . S
C2266 C2265 1.398 . S
C2266 C2267 1.391 . S
C2267 H2255 0.950 . S
C2267 C2263 1.393 . S
C2267 C2266 1.391 . S
H2268 C2276 0.950 . S
H2269 C2281 0.950 . S
H2270 C2278 0.950 . S
H2271 C2280 0.950 . S
H2272 C2282 0.950 . S
H2273 C2284 0.950 . S
H2274 C2286 0.950 . S
H2275 C2287 0.950 . S
C2276 H2268 0.950 . S
C2276 C2277 1.386 . S
C2276 C2278 1.391 . S
C2277 C2276 1.386 . S
C2277 C2281 1.393 . S
C2278 H2270 0.950 . S
C2278 C2276 1.391 . S
C2278 C2279 1.400 . S
C2279 C2278 1.400 . S
C2279 C2280 1.398 . S
C2279 C2285 1.491 . S
C2280 H2271 0.950 . S
C2280 C2279 1.398 . S
C2280 C2281 1.391 . S
C2281 H2269 0.950 . S
C2281 C2277 1.393 . S
C2281 C2280 1.391 . S
C2282 H2272 0.950 . S
C2282 C2283 1.386 . S
C2282 C2284 1.391 . S
C2283 C2282 1.386 . S
C2283 C2287 1.393 . S
C2284 H2273 0.950 . S
C2284 C2282 1.391 . S
C2284 C2285 1.400 . S
C2285 C2279 1.491 . S
C2285 C2284 1.400 . S
C2285 C2286 1.398 . S
C2286 H2274 0.950 . S
C2286 C2285 1.398 . S
C2286 C2287 1.391 . S
C2287 H2275 0.950 . S
C2287 C2283 1.393 . S
C2287 C2286 1.391 . S
H2288 C2296 0.950 . S
H2289 C2301 0.950 . S
H2290 C2298 0.950 1_565 S
H2291 C2300 0.950 . S
H2292 C2302 0.950 . S
H2293 C2304 0.950 1_545 S
H2294 C2306 0.950 . S
H2295 C2307 0.950 . S
C2296 H2288 0.950 . S
C2296 C2297 1.386 . S
C2296 C2298 1.391 . S
C2297 C2296 1.386 . S
C2297 C2301 1.393 . S
C2298 H2290 0.950 1_545 S
C2298 C2296 1.391 . S
C2298 C2299 1.400 . S
C2299 C2298 1.400 . S
C2299 C2300 1.398 . S
C2299 C2305 1.491 1_545 S
C2300 H2291 0.950 . S
C2300 C2299 1.398 . S
C2300 C2301 1.391 . S
C2301 H2289 0.950 . S
C2301 C2297 1.393 . S
C2301 C2300 1.391 . S
C2302 H2292 0.950 . S
C2302 C2303 1.386 . S
C2302 C2304 1.391 . S
C2303 C2302 1.386 . S
C2303 C2307 1.393 . S
C2304 H2293 0.950 1_565 S
C2304 C2302 1.391 . S
C2304 C2305 1.400 . S
C2305 C2299 1.491 1_565 S
C2305 C2304 1.400 . S
C2305 C2306 1.398 . S
C2306 H2294 0.950 . S
C2306 C2305 1.398 . S
C2306 C2307 1.391 . S
C2307 H2295 0.950 . S
C2307 C2303 1.393 . S
C2307 C2306 1.391 . S
H2308 C2316 0.950 . S
H2309 C2321 0.950 . S
H2310 C2318 0.950 1_655 S
H2311 C2320 0.950 . S
H2312 C2322 0.950 . S
H2313 C2324 0.950 1_455 S
H2314 C2326 0.950 . S
H2315 C2327 0.950 . S
C2316 H2308 0.950 . S
C2316 C2317 1.386 . S
C2316 C2318 1.391 . S
C2317 C2316 1.386 . S
C2317 C2321 1.393 . S
C2318 H2310 0.950 1_455 S
C2318 C2316 1.391 . S
C2318 C2319 1.400 . S
C2319 C2318 1.400 . S
C2319 C2320 1.398 . S
C2319 C2325 1.491 1_455 S
C2320 H2311 0.950 . S
C2320 C2319 1.398 . S
C2320 C2321 1.391 . S
C2321 H2309 0.950 . S
C2321 C2317 1.393 . S
C2321 C2320 1.391 . S
C2322 H2312 0.950 . S
C2322 C2323 1.386 . S
C2322 C2324 1.391 . S
C2323 C2322 1.386 . S
C2323 C2327 1.393 . S
C2324 H2313 0.950 1_655 S
C2324 C2322 1.391 . S
C2324 C2325 1.400 . S
C2325 C2319 1.491 1_655 S
C2325 C2324 1.400 . S
C2325 C2326 1.398 . S
C2326 H2314 0.950 . S
C2326 C2325 1.398 . S
C2326 C2327 1.391 . S
C2327 H2315 0.950 . S
C2327 C2323 1.393 . S
C2327 C2326 1.391 . S
H2328 C2336 0.950 . S
H2329 C2341 0.950 . S
H2330 C2338 0.950 . S
H2331 C2340 0.950 . S
H2332 C2342 0.950 . S
H2333 C2344 0.950 . S
H2334 C2346 0.950 . S
H2335 C2347 0.950 . S
C2336 H2328 0.950 . S
C2336 C2337 1.386 . S
C2336 C2338 1.391 . S
C2337 C2336 1.386 . S
C2337 C2341 1.393 . S
C2338 H2330 0.950 . S
C2338 C2336 1.391 . S
C2338 C2339 1.400 . S
C2339 C2338 1.400 . S
C2339 C2340 1.398 . S
C2339 C2345 1.491 . S
C2340 H2331 0.950 . S
C2340 C2339 1.398 . S
C2340 C2341 1.391 . S
C2341 H2329 0.950 . S
C2341 C2337 1.393 . S
C2341 C2340 1.391 . S
C2342 H2332 0.950 . S
C2342 C2343 1.386 . S
C2342 C2344 1.391 . S
C2343 C2342 1.386 . S
C2343 C2347 1.393 . S
C2344 H2333 0.950 . S
C2344 C2342 1.391 . S
C2344 C2345 1.400 . S
C2345 C2339 1.491 . S
C2345 C2344 1.400 . S
C2345 C2346 1.398 . S
C2346 H2334 0.950 . S
C2346 C2345 1.398 . S
C2346 C2347 1.391 . S
C2347 H2335 0.950 . S
C2347 C2343 1.393 . S
C2347 C2346 1.391 . S
H2348 C2356 0.950 . S
H2349 C2361 0.950 . S
H2350 C2358 0.950 . S
H2351 C2360 0.950 . S
H2352 C2362 0.950 . S
H2353 C2364 0.950 . S
H2354 C2366 0.950 . S
H2355 C2367 0.950 . S
C2356 H2348 0.950 . S
C2356 C2357 1.386 . S
C2356 C2358 1.391 . S
C2357 C2356 1.386 . S
C2357 C2361 1.393 . S
C2358 H2350 0.950 . S
C2358 C2356 1.391 . S
C2358 C2359 1.400 . S
C2359 C2358 1.400 . S
C2359 C2360 1.398 1_545 S
C2359 C2365 1.491 1_545 S
C2360 H2351 0.950 . S
C2360 C2359 1.398 1_565 S
C2360 C2361 1.391 1_565 S
C2361 H2349 0.950 . S
C2361 C2357 1.393 . S
C2361 C2360 1.391 1_545 S
C2362 H2352 0.950 . S
C2362 C2363 1.386 . S
C2362 C2364 1.391 . S
C2363 C2362 1.386 . S
C2363 C2367 1.393 . S
C2364 H2353 0.950 . S
C2364 C2362 1.391 . S
C2364 C2365 1.400 . S
C2365 C2359 1.491 1_565 S
C2365 C2364 1.400 . S
C2365 C2366 1.398 1_565 S
C2366 H2354 0.950 . S
C2366 C2365 1.398 1_545 S
C2366 C2367 1.391 1_545 S
C2367 H2355 0.950 . S
C2367 C2363 1.393 . S
C2367 C2366 1.391 1_565 S
H2368 C2376 0.950 . S
H2369 C2381 0.950 . S
H2370 C2378 0.950 1_655 S
H2371 C2380 0.950 . S
H2372 C2382 0.950 . S
H2373 C2384 0.950 1_455 S
H2374 C2386 0.950 . S
H2375 C2387 0.950 . S
C2376 H2368 0.950 . S
C2376 C2377 1.386 . S
C2376 C2378 1.391 . S
C2377 C2376 1.386 . S
C2377 C2381 1.393 . S
C2378 H2370 0.950 1_455 S
C2378 C2376 1.391 . S
C2378 C2379 1.400 . S
C2379 C2378 1.400 . S
C2379 C2380 1.398 . S
C2379 C2385 1.491 1_455 S
C2380 H2371 0.950 . S
C2380 C2379 1.398 . S
C2380 C2381 1.391 . S
C2381 H2369 0.950 . S
C2381 C2377 1.393 . S
C2381 C2380 1.391 . S
C2382 H2372 0.950 . S
C2382 C2383 1.386 . S
C2382 C2384 1.391 . S
C2383 C2382 1.386 . S
C2383 C2387 1.393 . S
C2384 H2373 0.950 1_655 S
C2384 C2382 1.391 . S
C2384 C2385 1.400 . S
C2385 C2379 1.491 1_655 S
C2385 C2384 1.400 . S
C2385 C2386 1.398 . S
C2386 H2374 0.950 . S
C2386 C2385 1.398 . S
C2386 C2387 1.391 . S
C2387 H2375 0.950 . S
C2387 C2383 1.393 . S
C2387 C2386 1.391 . S
H2388 C2396 0.950 . S
H2389 C2401 0.950 . S
H2390 C2398 0.950 . S
H2391 C2400 0.950 . S
H2392 C2402 0.950 . S
H2393 C2404 0.950 . S
H2394 C2406 0.950 . S
H2395 C2407 0.950 . S
C2396 H2388 0.950 . S
C2396 C2397 1.386 . S
C2396 C2398 1.391 . S
C2397 C2396 1.386 . S
C2397 C2401 1.393 . S
C2398 H2390 0.950 . S
C2398 C2396 1.391 . S
C2398 C2399 1.400 . S
C2399 C2398 1.400 . S
C2399 C2400 1.398 . S
C2399 C2405 1.491 . S
C2400 H2391 0.950 . S
C2400 C2399 1.398 . S
C2400 C2401 1.391 . S
C2401 H2389 0.950 . S
C2401 C2397 1.393 . S
C2401 C2400 1.391 . S
C2402 H2392 0.950 . S
C2402 C2403 1.386 . S
C2402 C2404 1.391 . S
C2403 C2402 1.386 . S
C2403 C2407 1.393 . S
C2404 H2393 0.950 . S
C2404 C2402 1.391 . S
C2404 C2405 1.400 . S
C2405 C2399 1.491 . S
C2405 C2404 1.400 . S
C2405 C2406 1.398 . S
C2406 H2394 0.950 . S
C2406 C2405 1.398 . S
C2406 C2407 1.391 . S
C2407 H2395 0.950 . S
C2407 C2403 1.393 . S
C2407 C2406 1.391 . S
H2408 C2416 0.950 . S
H2409 C2421 0.950 . S
H2410 C2418 0.950 . S
H2411 C2420 0.950 . S
H2412 C2422 0.950 . S
H2413 C2424 0.950 . S
H2414 C2426 0.950 . S
H2415 C2427 0.950 . S
C2416 H2408 0.950 . S
C2416 C2417 1.386 . S
C2416 C2418 1.391 . S
C2417 C2416 1.386 . S
C2417 C2421 1.393 . S
C2418 H2410 0.950 . S
C2418 C2416 1.391 . S
C2418 C2419 1.400 . S
C2419 C2418 1.400 . S
C2419 C2420 1.398 . S
C2419 C2425 1.491 . S
C2420 H2411 0.950 . S
C2420 C2419 1.398 . S
C2420 C2421 1.391 . S
C2421 H2409 0.950 . S
C2421 C2417 1.393 . S
C2421 C2420 1.391 . S
C2422 H2412 0.950 . S
C2422 C2423 1.386 . S
C2422 C2424 1.391 . S
C2423 C2422 1.386 . S
C2423 C2427 1.393 . S
C2424 H2413 0.950 . S
C2424 C2422 1.391 . S
C2424 C2425 1.400 . S
C2425 C2419 1.491 . S
C2425 C2424 1.400 . S
C2425 C2426 1.398 . S
C2426 H2414 0.950 . S
C2426 C2425 1.398 . S
C2426 C2427 1.391 . S
C2427 H2415 0.950 . S
C2427 C2423 1.393 . S
C2427 C2426 1.391 . S
H2428 C2436 0.950 . S
H2429 C2441 0.950 . S
H2430 C2438 0.950 . S
H2431 C2440 0.950 . S
H2432 C2442 0.950 . S
H2433 C2444 0.950 . S
H2434 C2446 0.950 . S
H2435 C2447 0.950 . S
C2436 H2428 0.950 . S
C2436 C2437 1.386 . S
C2436 C2438 1.391 . S
C2437 C2436 1.386 . S
C2437 C2441 1.393 . S
C2438 H2430 0.950 . S
C2438 C2436 1.391 . S
C2438 C2439 1.400 . S
C2439 C2438 1.400 . S
C2439 C2440 1.398 . S
C2439 C2445 1.491 . S
C2440 H2431 0.950 . S
C2440 C2439 1.398 . S
C2440 C2441 1.391 . S
C2441 H2429 0.950 . S
C2441 C2437 1.393 . S
C2441 C2440 1.391 . S
C2442 H2432 0.950 . S
C2442 C2443 1.386 . S
C2442 C2444 1.391 . S
C2443 C2442 1.386 . S
C2443 C2447 1.393 . S
C2444 H2433 0.950 . S
C2444 C2442 1.391 . S
C2444 C2445 1.400 . S
C2445 C2439 1.491 . S
C2445 C2444 1.400 . S
C2445 C2446 1.398 . S
C2446 H2434 0.950 . S
C2446 C2445 1.398 . S
C2446 C2447 1.391 . S
C2447 H2435 0.950 . S
C2447 C2443 1.393 . S
C2447 C2446 1.391 . S
H2448 C2456 0.950 . S
H2449 C2461 0.950 . S
H2450 C2458 0.950 . S
H2451 C2460 0.950 . S
H2452 C2462 0.950 . S
H2453 C2464 0.950 . S
H2454 C2466 0.950 . S
H2455 C2467 0.950 . S
C2456 H2448 0.950 . S
C2456 C2457 1.386 . S
C2456 C2458 1.391 . S
C2457 C2456 1.386 . S
C2457 C2461 1.393 . S
C2458 H2450 0.950 . S
C2458 C2456 1.391 . S
C2458 C2459 1.400 . S
C2459 C2458 1.400 . S
C2459 C2460 1.398 . S
C2459 C2465 1.491 . S
C2460 H2451 0.950 . S
C2460 C2459 1.398 . S
C2460 C2461 1.391 . S
C2461 H2449 0.950 . S
C2461 C2457 1.393 . S
C2461 C2460 1.391 . S
C2462 H2452 0.950 . S
C2462 C2463 1.386 . S
C2462 C2464 1.391 1_556 S
C2463 C2462 1.386 . S
C2463 C2467 1.393 1_556 S
C2464 H2453 0.950 . S
C2464 C2462 1.391 1_554 S
C2464 C2465 1.400 . S
C2465 C2459 1.491 . S
C2465 C2464 1.400 . S
C2465 C2466 1.398 . S
C2466 H2454 0.950 . S
C2466 C2465 1.398 . S
C2466 C2467 1.391 . S
C2467 H2455 0.950 . S
C2467 C2463 1.393 1_554 S
C2467 C2466 1.391 . S
H2468 C2476 0.950 . S
H2469 C2481 0.950 . S
H2470 C2478 0.950 . S
H2471 C2480 0.950 . S
H2472 C2482 0.950 . S
H2473 C2484 0.950 . S
H2474 C2486 0.950 . S
H2475 C2487 0.950 . S
C2476 H2468 0.950 . S
C2476 C2477 1.386 . S
C2476 C2478 1.391 . S
C2477 C2476 1.386 . S
C2477 C2481 1.393 . S
C2478 H2470 0.950 . S
C2478 C2476 1.391 . S
C2478 C2479 1.400 . S
C2479 C2478 1.400 . S
C2479 C2480 1.398 . S
C2479 C2485 1.491 . S
C2480 H2471 0.950 . S
C2480 C2479 1.398 . S
C2480 C2481 1.391 . S
C2481 H2469 0.950 . S
C2481 C2477 1.393 . S
C2481 C2480 1.391 . S
C2482 H2472 0.950 . S
C2482 C2483 1.387 . S
C2482 C2484 1.391 1_556 S
C2483 C2482 1.387 . S
C2483 C2487 1.381 1_556 S
C2484 H2473 0.950 . S
C2484 C2482 1.391 1_554 S
C2484 C2485 1.400 . S
C2485 C2479 1.491 . S
C2485 C2484 1.400 . S
C2485 C2486 1.398 . S
C2486 H2474 0.950 . S
C2486 C2485 1.398 . S
C2486 C2487 1.391 . S
C2487 H2475 0.950 . S
C2487 C2483 1.381 1_554 S
C2487 C2486 1.391 . S
H2488 C2496 0.950 . S
H2489 C2501 0.950 . S
H2490 C2498 0.950 . S
H2491 C2500 0.950 . S
H2492 C2502 0.950 . S
H2493 C2504 0.950 . S
H2494 C2506 0.950 . S
H2495 C2507 0.950 . S
C2496 H2488 0.950 . S
C2496 C2497 1.387 . S
C2496 C2498 1.391 1_556 S
C2497 C2496 1.387 . S
C2497 C2501 1.382 1_556 S
C2498 H2490 0.950 . S
C2498 C2496 1.391 1_554 S
C2498 C2499 1.400 . S
C2499 C2498 1.400 . S
C2499 C2500 1.398 . S
C2499 C2505 1.491 . S
C2500 H2491 0.950 . S
C2500 C2499 1.398 . S
C2500 C2501 1.391 . S
C2501 H2489 0.950 . S
C2501 C2497 1.382 1_554 S
C2501 C2500 1.391 . S
C2502 H2492 0.950 . S
C2502 C2503 1.386 . S
C2502 C2504 1.391 . S
C2503 C2502 1.386 . S
C2503 C2507 1.393 . S
C2504 H2493 0.950 . S
C2504 C2502 1.391 . S
C2504 C2505 1.400 . S
C2505 C2499 1.491 . S
C2505 C2504 1.400 . S
C2505 C2506 1.398 . S
C2506 H2494 0.950 . S
C2506 C2505 1.398 . S
C2506 C2507 1.391 . S
C2507 H2495 0.950 . S
C2507 C2503 1.393 . S
C2507 C2506 1.391 . S
H2508 C2516 0.950 1_554 S
H2509 C2521 0.950 . S
H2510 C2518 0.950 . S
H2511 C2520 0.950 . S
H2512 C2522 0.950 . S
H2513 C2524 0.950 . S
H2514 C2526 0.950 . S
H2515 C2527 0.950 . S
C2516 H2508 0.950 1_556 S
C2516 C2517 1.385 . S
C2516 C2518 1.391 . S
C2517 C2516 1.385 . S
C2517 C2521 1.391 . S
C2518 H2510 0.950 . S
C2518 C2516 1.391 . S
C2518 C2519 1.400 . S
C2519 C2518 1.400 . S
C2519 C2520 1.398 . S
C2519 C2525 1.491 . S
C2520 H2511 0.950 . S
C2520 C2519 1.398 . S
C2520 C2521 1.391 . S
C2521 H2509 0.950 . S
C2521 C2517 1.391 . S
C2521 C2520 1.391 . S
C2522 H2512 0.950 . S
C2522 C2523 1.386 . S
C2522 C2524 1.391 . S
C2523 C2522 1.386 . S
C2523 C2527 1.393 . S
C2524 H2513 0.950 . S
C2524 C2522 1.391 . S
C2524 C2525 1.400 . S
C2525 C2519 1.491 . S
C2525 C2524 1.400 . S
C2525 C2526 1.398 . S
C2526 H2514 0.950 . S
C2526 C2525 1.398 . S
C2526 C2527 1.391 . S
C2527 H2515 0.950 . S
C2527 C2523 1.393 . S
C2527 C2526 1.391 . S
H2528 C2536 0.947 1_554 S
H2529 C2541 0.950 . S
H2530 C2538 0.950 . S
H2531 C2540 0.950 . S
H2532 C2542 0.950 . S
H2533 C2544 0.950 . S
H2534 C2546 0.950 . S
H2535 C2547 0.950 . S
C2536 H2528 0.947 1_556 S
C2536 C2537 1.386 1_556 S
C2536 C2538 1.391 . S
C2537 C2536 1.386 1_554 S
C2537 C2541 1.393 1_554 S
C2538 H2530 0.950 . S
C2538 C2536 1.391 . S
C2538 C2539 1.400 . S
C2539 C2538 1.400 . S
C2539 C2540 1.398 . S
C2539 C2545 1.491 . S
C2540 H2531 0.950 . S
C2540 C2539 1.398 . S
C2540 C2541 1.391 . S
C2541 H2529 0.950 . S
C2541 C2537 1.393 1_556 S
C2541 C2540 1.391 . S
C2542 H2532 0.950 . S
C2542 C2543 1.386 . S
C2542 C2544 1.391 . S
C2543 C2542 1.386 . S
C2543 C2547 1.393 . S
C2544 H2533 0.950 . S
C2544 C2542 1.391 . S
C2544 C2545 1.400 . S
C2545 C2539 1.491 . S
C2545 C2544 1.400 . S
C2545 C2546 1.398 . S
C2546 H2534 0.950 . S
C2546 C2545 1.398 . S
C2546 C2547 1.391 . S
C2547 H2535 0.950 . S
C2547 C2543 1.393 . S
C2547 C2546 1.391 . S
H2548 C2556 0.950 . S
H2549 C2561 0.950 . S
H2550 C2558 0.950 . S
H2551 C2560 0.950 . S
H2552 C2562 0.950 . S
H2553 C2564 0.950 . S
H2554 C2566 0.950 . S
H2555 C2567 0.950 . S
C2556 H2548 0.950 . S
C2556 C2557 1.386 . S
C2556 C2558 1.391 . S
C2557 C2556 1.386 . S
C2557 C2561 1.393 . S
C2558 H2550 0.950 . S
C2558 C2556 1.391 . S
C2558 C2559 1.400 . S
C2559 C2558 1.400 . S
C2559 C2560 1.398 . S
C2559 C2565 1.491 . S
C2560 H2551 0.950 . S
C2560 C2559 1.398 . S
C2560 C2561 1.391 . S
C2561 H2549 0.950 . S
C2561 C2557 1.393 . S
C2561 C2560 1.391 . S
C2562 H2552 0.950 . S
C2562 C2563 1.388 . S
C2562 C2564 1.391 1_554 S
C2563 C2562 1.388 . S
C2563 C2567 1.376 1_554 S
C2564 H2553 0.950 . S
C2564 C2562 1.391 1_556 S
C2564 C2565 1.400 . S
C2565 C2559 1.491 . S
C2565 C2564 1.400 . S
C2565 C2566 1.398 . S
C2566 H2554 0.950 . S
C2566 C2565 1.398 . S
C2566 C2567 1.391 . S
C2567 H2555 0.950 . S
C2567 C2563 1.376 1_556 S
C2567 C2566 1.391 . S
H2568 C2576 0.950 . S
H2569 C2581 0.950 . S
H2570 C2578 0.950 . S
H2571 C2580 0.950 . S
H2572 C2582 0.950 . S
H2573 C2584 0.950 . S
H2574 C2586 0.950 . S
H2575 C2587 0.950 . S
C2576 H2568 0.950 . S
C2576 C2577 1.386 . S
C2576 C2578 1.391 . S
C2577 C2576 1.386 . S
C2577 C2581 1.393 . S
C2578 H2570 0.950 . S
C2578 C2576 1.391 . S
C2578 C2579 1.400 . S
C2579 C2578 1.400 . S
C2579 C2580 1.398 . S
C2579 C2585 1.491 . S
C2580 H2571 0.950 . S
C2580 C2579 1.398 . S
C2580 C2581 1.391 . S
C2581 H2569 0.950 . S
C2581 C2577 1.393 . S
C2581 C2580 1.391 . S
C2582 H2572 0.950 . S
C2582 C2583 1.386 . S
C2582 C2584 1.391 . S
C2583 C2582 1.386 . S
C2583 C2587 1.393 . S
C2584 H2573 0.950 . S
C2584 C2582 1.391 . S
C2584 C2585 1.400 . S
C2585 C2579 1.491 . S
C2585 C2584 1.400 . S
C2585 C2586 1.398 . S
C2586 H2574 0.950 . S
C2586 C2585 1.398 . S
C2586 C2587 1.391 . S
C2587 H2575 0.950 . S
C2587 C2583 1.393 . S
C2587 C2586 1.391 . S
H2588 C2596 0.950 . S
H2589 C2601 0.950 . S
H2590 C2598 0.950 . S
H2591 C2600 0.950 . S
H2592 C2602 0.950 . S
H2593 C2604 0.950 . S
H2594 C2606 0.950 . S
H2595 C2607 0.950 . S
C2596 H2588 0.950 . S
C2596 C2597 1.386 . S
C2596 C2598 1.391 . S
C2597 C2596 1.386 . S
C2597 C2601 1.393 . S
C2598 H2590 0.950 . S
C2598 C2596 1.391 . S
C2598 C2599 1.400 . S
C2599 C2598 1.400 . S
C2599 C2600 1.398 . S
C2599 C2605 1.491 . S
C2600 H2591 0.950 . S
C2600 C2599 1.398 . S
C2600 C2601 1.391 . S
C2601 H2589 0.950 . S
C2601 C2597 1.393 . S
C2601 C2600 1.391 . S
C2602 H2592 0.950 . S
C2602 C2603 1.386 . S
C2602 C2604 1.391 . S
C2603 C2602 1.386 . S
C2603 C2607 1.393 . S
C2604 H2593 0.950 . S
C2604 C2602 1.391 . S
C2604 C2605 1.400 . S
C2605 C2599 1.491 . S
C2605 C2604 1.400 . S
C2605 C2606 1.398 . S
C2606 H2594 0.950 . S
C2606 C2605 1.398 . S
C2606 C2607 1.391 . S
C2607 H2595 0.950 . S
C2607 C2603 1.393 . S
C2607 C2606 1.391 . S
H2608 C2616 0.950 . S
H2609 C2621 0.950 . S
H2610 C2618 0.950 . S
H2611 C2620 0.950 . S
H2612 C2622 0.950 . S
H2613 C2624 0.950 . S
H2614 C2626 0.950 . S
H2615 C2627 0.950 . S
C2616 H2608 0.950 . S
C2616 C2617 1.386 . S
C2616 C2618 1.391 . S
C2617 C2616 1.386 . S
C2617 C2621 1.393 . S
C2618 H2610 0.950 . S
C2618 C2616 1.391 . S
C2618 C2619 1.400 . S
C2619 C2618 1.400 . S
C2619 C2620 1.398 . S
C2619 C2625 1.491 . S
C2620 H2611 0.950 . S
C2620 C2619 1.398 . S
C2620 C2621 1.391 . S
C2621 H2609 0.950 . S
C2621 C2617 1.393 . S
C2621 C2620 1.391 . S
C2622 H2612 0.950 . S
C2622 C2623 1.386 . S
C2622 C2624 1.391 . S
C2623 C2622 1.386 . S
C2623 C2627 1.393 . S
C2624 H2613 0.950 . S
C2624 C2622 1.391 . S
C2624 C2625 1.400 . S
C2625 C2619 1.491 . S
C2625 C2624 1.400 . S
C2625 C2626 1.398 . S
C2626 H2614 0.950 . S
C2626 C2625 1.398 . S
C2626 C2627 1.391 . S
C2627 H2615 0.950 . S
C2627 C2623 1.393 . S
C2627 C2626 1.391 . S
H2628 C2636 0.950 . S
H2629 C2641 0.950 . S
H2630 C2638 0.950 . S
H2631 C2640 0.950 . S
H2632 C2642 0.950 . S
H2633 C2644 0.950 . S
H2634 C2646 0.950 . S
H2635 C2647 0.950 . S
C2636 H2628 0.950 . S
C2636 C2637 1.386 . S
C2636 C2638 1.391 . S
C2637 C2636 1.386 . S
C2637 C2641 1.393 . S
C2638 H2630 0.950 . S
C2638 C2636 1.391 . S
C2638 C2639 1.400 . S
C2639 C2638 1.400 . S
C2639 C2640 1.398 . S
C2639 C2645 1.491 . S
C2640 H2631 0.950 . S
C2640 C2639 1.398 . S
C2640 C2641 1.391 . S
C2641 H2629 0.950 . S
C2641 C2637 1.393 . S
C2641 C2640 1.391 . S
C2642 H2632 0.950 . S
C2642 C2643 1.386 . S
C2642 C2644 1.391 . S
C2643 C2642 1.386 . S
C2643 C2647 1.393 . S
C2644 H2633 0.950 . S
C2644 C2642 1.391 . S
C2644 C2645 1.400 . S
C2645 C2639 1.491 . S
C2645 C2644 1.400 . S
C2645 C2646 1.398 . S
C2646 H2634 0.950 . S
C2646 C2645 1.398 . S
C2646 C2647 1.391 . S
C2647 H2635 0.950 . S
C2647 C2643 1.393 . S
C2647 C2646 1.391 . S
H2648 C2656 0.950 . S
H2649 C2661 0.950 . S
H2650 C2658 0.950 . S
H2651 C2660 0.950 . S
H2652 C2662 0.950 . S
H2653 C2664 0.950 . S
H2654 C2666 0.950 . S
H2655 C2667 0.950 . S
C2656 H2648 0.950 . S
C2656 C2657 1.386 . S
C2656 C2658 1.391 . S
C2657 C2656 1.386 . S
C2657 C2661 1.393 . S
C2658 H2650 0.950 . S
C2658 C2656 1.391 . S
C2658 C2659 1.400 . S
C2659 C2658 1.400 . S
C2659 C2660 1.398 . S
C2659 C2665 1.491 . S
C2660 H2651 0.950 . S
C2660 C2659 1.398 . S
C2660 C2661 1.391 . S
C2661 H2649 0.950 . S
C2661 C2657 1.393 . S
C2661 C2660 1.391 . S
C2662 H2652 0.950 . S
C2662 C2663 1.386 . S
C2662 C2664 1.391 . S
C2663 C2662 1.386 . S
C2663 C2667 1.393 . S
C2664 H2653 0.950 . S
C2664 C2662 1.391 . S
C2664 C2665 1.400 . S
C2665 C2659 1.491 . S
C2665 C2664 1.400 . S
C2665 C2666 1.398 . S
C2666 H2654 0.950 . S
C2666 C2665 1.398 . S
C2666 C2667 1.391 . S
C2667 H2655 0.950 . S
C2667 C2663 1.393 . S
C2667 C2666 1.391 . S
H2668 C2676 0.950 . S
H2669 C2681 0.950 . S
H2670 C2678 0.950 . S
H2671 C2680 0.950 . S
H2672 C2682 0.950 . S
H2673 C2684 0.950 . S
H2674 C2686 0.950 . S
H2675 C2687 0.950 1_554 S
C2676 H2668 0.950 . S
C2676 C2677 1.386 . S
C2676 C2678 1.391 . S
C2677 C2676 1.386 . S
C2677 C2681 1.393 . S
C2678 H2670 0.950 . S
C2678 C2676 1.391 . S
C2678 C2679 1.400 . S
C2679 C2678 1.400 . S
C2679 C2680 1.398 . S
C2679 C2685 1.491 . S
C2680 H2671 0.950 . S
C2680 C2679 1.398 . S
C2680 C2681 1.391 . S
C2681 H2669 0.950 . S
C2681 C2677 1.393 . S
C2681 C2680 1.391 . S
C2682 H2672 0.950 . S
C2682 C2683 1.386 . S
C2682 C2684 1.391 . S
C2683 C2682 1.386 . S
C2683 C2687 1.393 . S
C2684 H2673 0.950 . S
C2684 C2682 1.391 . S
C2684 C2685 1.400 . S
C2685 C2679 1.491 . S
C2685 C2684 1.400 . S
C2685 C2686 1.398 . S
C2686 H2674 0.950 . S
C2686 C2685 1.398 . S
C2686 C2687 1.391 . S
C2687 H2675 0.950 1_556 S
C2687 C2683 1.393 . S
C2687 C2686 1.391 . S
H2688 C2696 0.950 . S
H2689 C2701 0.950 . S
H2690 C2698 0.950 . S
H2691 C2700 0.950 . S
H2692 C2702 0.950 . S
H2693 C2704 0.950 . S
H2694 C2706 0.950 . S
H2695 C2707 0.950 . S
C2696 H2688 0.950 . S
C2696 C2697 1.386 . S
C2696 C2698 1.391 . S
C2697 C2696 1.386 . S
C2697 C2701 1.393 . S
C2698 H2690 0.950 . S
C2698 C2696 1.391 . S
C2698 C2699 1.400 . S
C2699 C2698 1.400 . S
C2699 C2700 1.398 . S
C2699 C2705 1.491 . S
C2700 H2691 0.950 . S
C2700 C2699 1.398 . S
C2700 C2701 1.391 . S
C2701 H2689 0.950 . S
C2701 C2697 1.393 . S
C2701 C2700 1.391 . S
C2702 H2692 0.950 . S
C2702 C2703 1.386 . S
C2702 C2704 1.391 . S
C2703 C2702 1.386 . S
C2703 C2707 1.393 . S
C2704 H2693 0.950 . S
C2704 C2702 1.391 . S
C2704 C2705 1.400 . S
C2705 C2699 1.491 . S
C2705 C2704 1.400 . S
C2705 C2706 1.398 . S
C2706 H2694 0.950 . S
C2706 C2705 1.398 . S
C2706 C2707 1.391 . S
C2707 H2695 0.950 . S
C2707 C2703 1.393 . S
C2707 C2706 1.391 . S
H2708 C2716 0.950 . S
H2709 C2721 0.950 . S
H2710 C2718 0.950 . S
H2711 C2720 0.950 . S
H2712 C2722 0.950 . S
H2713 C2724 0.950 . S
H2714 C2726 0.950 . S
H2715 C2727 0.950 . S
C2716 H2708 0.950 . S
C2716 C2717 1.386 . S
C2716 C2718 1.391 . S
C2717 C2716 1.386 . S
C2717 C2721 1.393 . S
C2718 H2710 0.950 . S
C2718 C2716 1.391 . S
C2718 C2719 1.400 . S
C2719 C2718 1.400 . S
C2719 C2720 1.398 . S
C2719 C2725 1.491 . S
C2720 H2711 0.950 . S
C2720 C2719 1.398 . S
C2720 C2721 1.391 . S
C2721 H2709 0.950 . S
C2721 C2717 1.393 . S
C2721 C2720 1.391 . S
C2722 H2712 0.950 . S
C2722 C2723 1.386 . S
C2722 C2724 1.391 . S
C2723 C2722 1.386 . S
C2723 C2727 1.393 . S
C2724 H2713 0.950 . S
C2724 C2722 1.391 . S
C2724 C2725 1.400 . S
C2725 C2719 1.491 . S
C2725 C2724 1.400 . S
C2725 C2726 1.398 . S
C2726 H2714 0.950 . S
C2726 C2725 1.398 . S
C2726 C2727 1.391 . S
C2727 H2715 0.950 . S
C2727 C2723 1.393 . S
C2727 C2726 1.391 . S
H2728 C2736 0.950 . S
H2729 C2741 0.950 . S
H2730 C2738 0.950 . S
H2731 C2740 0.950 . S
H2732 C2742 0.950 . S
H2733 C2744 0.950 . S
H2734 C2746 0.950 . S
H2735 C2747 0.950 . S
C2736 H2728 0.950 . S
C2736 C2737 1.386 . S
C2736 C2738 1.391 . S
C2737 C2736 1.386 . S
C2737 C2741 1.393 . S
C2738 H2730 0.950 . S
C2738 C2736 1.391 . S
C2738 C2739 1.400 . S
C2739 C2738 1.400 . S
C2739 C2740 1.398 . S
C2739 C2745 1.491 . S
C2740 H2731 0.950 . S
C2740 C2739 1.398 . S
C2740 C2741 1.391 . S
C2741 H2729 0.950 . S
C2741 C2737 1.393 . S
C2741 C2740 1.391 . S
C2742 H2732 0.950 . S
C2742 C2743 1.386 . S
C2742 C2744 1.391 . S
C2743 C2742 1.386 . S
C2743 C2747 1.393 . S
C2744 H2733 0.950 . S
C2744 C2742 1.391 . S
C2744 C2745 1.400 . S
C2745 C2739 1.491 . S
C2745 C2744 1.400 . S
C2745 C2746 1.398 . S
C2746 H2734 0.950 . S
C2746 C2745 1.398 . S
C2746 C2747 1.391 . S
C2747 H2735 0.950 . S
C2747 C2743 1.393 . S
C2747 C2746 1.391 . S
H2748 C2756 0.950 . S
H2749 C2761 0.950 1_556 S
H2750 C2758 0.950 . S
H2751 C2760 0.950 . S
H2752 C2762 0.950 . S
H2753 C2764 0.950 . S
H2754 C2766 0.950 . S
H2755 C2767 0.950 . S
C2756 H2748 0.950 . S
C2756 C2757 1.386 . S
C2756 C2758 1.391 . S
C2757 C2756 1.386 . S
C2757 C2761 1.393 . S
C2758 H2750 0.950 . S
C2758 C2756 1.391 . S
C2758 C2759 1.400 . S
C2759 C2758 1.400 . S
C2759 C2760 1.398 . S
C2759 C2765 1.491 . S
C2760 H2751 0.950 . S
C2760 C2759 1.398 . S
C2760 C2761 1.391 . S
C2761 H2749 0.950 1_554 S
C2761 C2757 1.393 . S
C2761 C2760 1.391 . S
C2762 H2752 0.950 . S
C2762 C2763 1.386 . S
C2762 C2764 1.391 . S
C2763 C2762 1.386 . S
C2763 C2767 1.393 . S
C2764 H2753 0.950 . S
C2764 C2762 1.391 . S
C2764 C2765 1.400 . S
C2765 C2759 1.491 . S
C2765 C2764 1.400 . S
C2765 C2766 1.398 . S
C2766 H2754 0.950 . S
C2766 C2765 1.398 . S
C2766 C2767 1.391 . S
C2767 H2755 0.950 . S
C2767 C2763 1.393 . S
C2767 C2766 1.391 . S
H2768 C2776 0.950 . S
H2769 C2781 0.950 . S
H2770 C2778 0.950 . S
H2771 C2780 0.950 . S
H2772 C2782 0.950 . S
H2773 C2784 0.950 . S
H2774 C2786 0.950 . S
H2775 C2787 0.950 . S
C2776 H2768 0.950 . S
C2776 C2777 1.386 . S
C2776 C2778 1.391 . S
C2777 C2776 1.386 . S
C2777 C2781 1.393 . S
C2778 H2770 0.950 . S
C2778 C2776 1.391 . S
C2778 C2779 1.400 . S
C2779 C2778 1.400 . S
C2779 C2780 1.398 . S
C2779 C2785 1.491 . S
C2780 H2771 0.950 . S
C2780 C2779 1.398 . S
C2780 C2781 1.391 . S
C2781 H2769 0.950 . S
C2781 C2777 1.393 . S
C2781 C2780 1.391 . S
C2782 H2772 0.950 . S
C2782 C2783 1.386 . S
C2782 C2784 1.391 . S
C2783 C2782 1.386 . S
C2783 C2787 1.393 . S
C2784 H2773 0.950 . S
C2784 C2782 1.391 . S
C2784 C2785 1.400 . S
C2785 C2779 1.491 . S
C2785 C2784 1.400 . S
C2785 C2786 1.398 . S
C2786 H2774 0.950 . S
C2786 C2785 1.398 . S
C2786 C2787 1.391 . S
C2787 H2775 0.950 . S
C2787 C2783 1.393 . S
C2787 C2786 1.391 . S
H2788 C2796 0.950 . S
H2789 C2801 0.950 1_556 S
H2790 C2798 0.950 . S
H2791 C2800 0.950 . S
H2792 C2802 0.950 . S
H2793 C2804 0.950 . S
H2794 C2806 0.950 . S
H2795 C2807 0.950 . S
C2796 H2788 0.950 . S
C2796 C2797 1.386 . S
C2796 C2798 1.391 . S
C2797 C2796 1.386 . S
C2797 C2801 1.393 . S
C2798 H2790 0.950 . S
C2798 C2796 1.391 . S
C2798 C2799 1.400 . S
C2799 C2798 1.400 . S
C2799 C2800 1.398 . S
C2799 C2805 1.491 . S
C2800 H2791 0.950 . S
C2800 C2799 1.398 . S
C2800 C2801 1.391 . S
C2801 H2789 0.950 1_554 S
C2801 C2797 1.393 . S
C2801 C2800 1.391 . S
C2802 H2792 0.950 . S
C2802 C2803 1.386 . S
C2802 C2804 1.391 . S
C2803 C2802 1.386 . S
C2803 C2807 1.393 . S
C2804 H2793 0.950 . S
C2804 C2802 1.391 . S
C2804 C2805 1.400 . S
C2805 C2799 1.491 . S
C2805 C2804 1.400 . S
C2805 C2806 1.398 . S
C2806 H2794 0.950 . S
C2806 C2805 1.398 . S
C2806 C2807 1.391 . S
C2807 H2795 0.950 . S
C2807 C2803 1.393 . S
C2807 C2806 1.391 . S
H2808 C2816 0.950 . S
H2809 C2821 0.950 . S
H2810 C2818 0.950 . S
H2811 C2820 0.950 . S
H2812 C2822 0.950 . S
H2813 C2824 0.950 . S
H2814 C2826 0.950 . S
H2815 C2827 0.950 . S
C2816 H2808 0.950 . S
C2816 C2817 1.386 . S
C2816 C2818 1.391 . S
C2817 C2816 1.386 . S
C2817 C2821 1.393 . S
C2818 H2810 0.950 . S
C2818 C2816 1.391 . S
C2818 C2819 1.400 . S
C2819 C2818 1.400 . S
C2819 C2820 1.398 . S
C2819 C2825 1.491 . S
C2820 H2811 0.950 . S
C2820 C2819 1.398 . S
C2820 C2821 1.391 . S
C2821 H2809 0.950 . S
C2821 C2817 1.393 . S
C2821 C2820 1.391 . S
C2822 H2812 0.950 . S
C2822 C2823 1.386 . S
C2822 C2824 1.391 . S
C2823 C2822 1.386 . S
C2823 C2827 1.393 . S
C2824 H2813 0.950 . S
C2824 C2822 1.391 . S
C2824 C2825 1.400 . S
C2825 C2819 1.491 . S
C2825 C2824 1.400 . S
C2825 C2826 1.398 . S
C2826 H2814 0.950 . S
C2826 C2825 1.398 . S
C2826 C2827 1.391 . S
C2827 H2815 0.950 . S
C2827 C2823 1.393 . S
C2827 C2826 1.391 . S
H2828 C2836 0.950 . S
H2829 C2841 0.950 . S
H2830 C2838 0.950 . S
H2831 C2840 0.950 . S
H2832 C2842 0.950 . S
H2833 C2844 0.950 . S
H2834 C2846 0.950 . S
H2835 C2847 0.950 . S
C2836 H2828 0.950 . S
C2836 C2837 1.386 . S
C2836 C2838 1.391 . S
C2837 C2836 1.386 . S
C2837 C2841 1.393 . S
C2838 H2830 0.950 . S
C2838 C2836 1.391 . S
C2838 C2839 1.400 . S
C2839 C2838 1.400 . S
C2839 C2840 1.398 . S
C2839 C2845 1.491 . S
C2840 H2831 0.950 . S
C2840 C2839 1.398 . S
C2840 C2841 1.391 . S
C2841 H2829 0.950 . S
C2841 C2837 1.393 . S
C2841 C2840 1.391 . S
C2842 H2832 0.950 . S
C2842 C2843 1.386 . S
C2842 C2844 1.391 . S
C2843 C2842 1.386 . S
C2843 C2847 1.393 . S
C2844 H2833 0.950 . S
C2844 C2842 1.391 . S
C2844 C2845 1.400 . S
C2845 C2839 1.491 . S
C2845 C2844 1.400 . S
C2845 C2846 1.398 . S
C2846 H2834 0.950 . S
C2846 C2845 1.398 . S
C2846 C2847 1.391 . S
C2847 H2835 0.950 . S
C2847 C2843 1.393 . S
C2847 C2846 1.391 . S
H2848 C2856 0.950 . S
H2849 C2861 0.950 . S
H2850 C2858 0.950 . S
H2851 C2860 0.950 . S
H2852 C2862 0.950 . S
H2853 C2864 0.950 . S
H2854 C2866 0.950 . S
H2855 C2867 0.950 . S
C2856 H2848 0.950 . S
C2856 C2857 1.386 . S
C2856 C2858 1.391 . S
C2857 C2856 1.386 . S
C2857 C2861 1.393 . S
C2858 H2850 0.950 . S
C2858 C2856 1.391 . S
C2858 C2859 1.400 . S
C2859 C2858 1.400 . S
C2859 C2860 1.398 . S
C2859 C2865 1.491 . S
C2860 H2851 0.950 . S
C2860 C2859 1.398 . S
C2860 C2861 1.391 . S
C2861 H2849 0.950 . S
C2861 C2857 1.393 . S
C2861 C2860 1.391 . S
C2862 H2852 0.950 . S
C2862 C2863 1.386 . S
C2862 C2864 1.391 . S
C2863 C2862 1.386 . S
C2863 C2867 1.393 . S
C2864 H2853 0.950 . S
C2864 C2862 1.391 . S
C2864 C2865 1.400 . S
C2865 C2859 1.491 . S
C2865 C2864 1.400 . S
C2865 C2866 1.398 . S
C2866 H2854 0.950 . S
C2866 C2865 1.398 . S
C2866 C2867 1.391 . S
C2867 H2855 0.950 . S
C2867 C2863 1.393 . S
C2867 C2866 1.391 . S
H2868 C2876 0.950 . S
H2869 C2881 0.950 . S
H2870 C2878 0.950 . S
H2871 C2880 0.950 . S
H2872 C2882 0.950 . S
H2873 C2884 0.950 . S
H2874 C2886 0.950 . S
H2875 C2887 0.950 . S
C2876 H2868 0.950 . S
C2876 C2877 1.386 . S
C2876 C2878 1.391 . S
C2877 C2876 1.386 . S
C2877 C2881 1.393 . S
C2878 H2870 0.950 . S
C2878 C2876 1.391 . S
C2878 C2879 1.400 . S
C2879 C2878 1.400 . S
C2879 C2880 1.398 . S
C2879 C2885 1.491 1_455 S
C2880 H2871 0.950 . S
C2880 C2879 1.398 . S
C2880 C2881 1.391 . S
C2881 H2869 0.950 . S
C2881 C2877 1.393 . S
C2881 C2880 1.391 . S
C2882 H2872 0.950 . S
C2882 C2883 1.386 . S
C2882 C2884 1.391 . S
C2883 C2882 1.386 . S
C2883 C2887 1.393 . S
C2884 H2873 0.950 . S
C2884 C2882 1.391 . S
C2884 C2885 1.400 . S
C2885 C2879 1.491 1_655 S
C2885 C2884 1.400 . S
C2885 C2886 1.398 . S
C2886 H2874 0.950 . S
C2886 C2885 1.398 . S
C2886 C2887 1.391 . S
C2887 H2875 0.950 . S
C2887 C2883 1.393 . S
C2887 C2886 1.391 . S
H2888 C2896 0.950 . S
H2889 C2901 0.950 . S
H2890 C2898 0.950 . S
H2891 C2900 0.950 . S
H2892 C2902 0.950 . S
H2893 C2904 0.950 . S
H2894 C2906 0.950 . S
H2895 C2907 0.950 . S
C2896 H2888 0.950 . S
C2896 C2897 1.386 . S
C2896 C2898 1.391 . S
C2897 C2896 1.386 . S
C2897 C2901 1.393 . S
C2898 H2890 0.950 . S
C2898 C2896 1.391 . S
C2898 C2899 1.400 . S
C2899 C2898 1.400 . S
C2899 C2900 1.398 . S
C2899 C2905 1.491 . S
C2900 H2891 0.950 . S
C2900 C2899 1.398 . S
C2900 C2901 1.391 . S
C2901 H2889 0.950 . S
C2901 C2897 1.393 . S
C2901 C2900 1.391 . S
C2902 H2892 0.950 . S
C2902 C2903 1.386 . S
C2902 C2904 1.391 . S
C2903 C2902 1.386 . S
C2903 C2907 1.393 . S
C2904 H2893 0.950 . S
C2904 C2902 1.391 . S
C2904 C2905 1.400 . S
C2905 C2899 1.491 . S
C2905 C2904 1.400 . S
C2905 C2906 1.398 . S
C2906 H2894 0.950 . S
C2906 C2905 1.398 . S
C2906 C2907 1.391 . S
C2907 H2895 0.950 . S
C2907 C2903 1.393 . S
C2907 C2906 1.391 . S
H2908 C2916 0.950 . S
H2909 C2921 0.950 . S
H2910 C2918 0.950 . S
H2911 C2920 0.950 1_545 S
H2912 C2922 0.950 . S
H2913 C2924 0.950 . S
H2914 C2926 0.950 1_565 S
H2915 C2927 0.950 . S
C2916 H2908 0.950 . S
C2916 C2917 1.386 . S
C2916 C2918 1.391 . S
C2917 C2916 1.386 . S
C2917 C2921 1.393 . S
C2918 H2910 0.950 . S
C2918 C2916 1.391 . S
C2918 C2919 1.400 . S
C2919 C2918 1.400 . S
C2919 C2920 1.398 . S
C2919 C2925 1.491 1_565 S
C2920 H2911 0.950 1_565 S
C2920 C2919 1.398 . S
C2920 C2921 1.391 . S
C2921 H2909 0.950 . S
C2921 C2917 1.393 . S
C2921 C2920 1.391 . S
C2922 H2912 0.950 . S
C2922 C2923 1.386 . S
C2922 C2924 1.391 . S
C2923 C2922 1.386 . S
C2923 C2927 1.393 . S
C2924 H2913 0.950 . S
C2924 C2922 1.391 . S
C2924 C2925 1.400 . S
C2925 C2919 1.491 1_545 S
C2925 C2924 1.400 . S
C2925 C2926 1.398 . S
C2926 H2914 0.950 1_545 S
C2926 C2925 1.398 . S
C2926 C2927 1.391 . S
C2927 H2915 0.950 . S
C2927 C2923 1.393 . S
C2927 C2926 1.391 . S
H2928 C2936 0.950 . S
H2929 C2941 0.950 . S
H2930 C2938 0.936 1_545 S
H2931 C2940 0.950 . S
H2932 C2942 0.950 . S
H2933 C2944 0.936 1_565 S
H2934 C2946 0.950 . S
H2935 C2947 0.950 . S
C2936 H2928 0.950 . S
C2936 C2937 1.386 . S
C2936 C2938 1.391 . S
C2937 C2936 1.386 . S
C2937 C2941 1.393 . S
C2938 H2930 0.936 1_565 S
C2938 C2936 1.391 . S
C2938 C2939 1.400 . S
C2939 C2938 1.400 . S
C2939 C2940 1.398 . S
C2939 C2945 1.491 1_565 S
C2940 H2931 0.950 . S
C2940 C2939 1.398 . S
C2940 C2941 1.391 . S
C2941 H2929 0.950 . S
C2941 C2937 1.393 . S
C2941 C2940 1.391 . S
C2942 H2932 0.950 . S
C2942 C2943 1.386 . S
C2942 C2944 1.391 . S
C2943 C2942 1.386 . S
C2943 C2947 1.393 . S
C2944 H2933 0.936 1_545 S
C2944 C2942 1.391 . S
C2944 C2945 1.400 . S
C2945 C2939 1.491 1_545 S
C2945 C2944 1.400 . S
C2945 C2946 1.398 . S
C2946 H2934 0.950 . S
C2946 C2945 1.398 . S
C2946 C2947 1.391 . S
C2947 H2935 0.950 . S
C2947 C2943 1.393 . S
C2947 C2946 1.391 . S
H2948 C2956 0.950 . S
H2949 C2961 0.950 . S
H2950 C2958 0.950 1_655 S
H2951 C2960 0.950 . S
H2952 C2962 0.950 . S
H2953 C2964 0.950 1_455 S
H2954 C2966 0.950 . S
H2955 C2967 0.950 . S
C2956 H2948 0.950 . S
C2956 C2957 1.386 . S
C2956 C2958 1.391 . S
C2957 C2956 1.386 . S
C2957 C2961 1.393 . S
C2958 H2950 0.950 1_455 S
C2958 C2956 1.391 . S
C2958 C2959 1.400 . S
C2959 C2958 1.400 . S
C2959 C2960 1.398 . S
C2959 C2965 1.491 1_455 S
C2960 H2951 0.950 . S
C2960 C2959 1.398 . S
C2960 C2961 1.391 . S
C2961 H2949 0.950 . S
C2961 C2957 1.393 . S
C2961 C2960 1.391 . S
C2962 H2952 0.950 . S
C2962 C2963 1.386 . S
C2962 C2964 1.391 . S
C2963 C2962 1.386 . S
C2963 C2967 1.393 . S
C2964 H2953 0.950 1_655 S
C2964 C2962 1.391 . S
C2964 C2965 1.400 . S
C2965 C2959 1.491 1_655 S
C2965 C2964 1.400 . S
C2965 C2966 1.398 . S
C2966 H2954 0.950 . S
C2966 C2965 1.398 . S
C2966 C2967 1.391 . S
C2967 H2955 0.950 . S
C2967 C2963 1.393 . S
C2967 C2966 1.391 . S
H2968 C2976 0.950 . S
H2969 C2981 0.950 . S
H2970 C2978 0.950 . S
H2971 C2980 0.950 . S
H2972 C2982 0.950 . S
H2973 C2984 0.950 . S
H2974 C2986 0.950 . S
H2975 C2987 0.950 . S
C2976 H2968 0.950 . S
C2976 C2977 1.386 . S
C2976 C2978 1.391 . S
C2977 C2976 1.386 . S
C2977 C2981 1.393 . S
C2978 H2970 0.950 . S
C2978 C2976 1.391 . S
C2978 C2979 1.400 . S
C2979 C2978 1.400 . S
C2979 C2980 1.398 . S
C2979 C2985 1.491 . S
C2980 H2971 0.950 . S
C2980 C2979 1.398 . S
C2980 C2981 1.391 . S
C2981 H2969 0.950 . S
C2981 C2977 1.393 . S
C2981 C2980 1.391 . S
C2982 H2972 0.950 . S
C2982 C2983 1.386 . S
C2982 C2984 1.391 . S
C2983 C2982 1.386 . S
C2983 C2987 1.393 . S
C2984 H2973 0.950 . S
C2984 C2982 1.391 . S
C2984 C2985 1.400 . S
C2985 C2979 1.491 . S
C2985 C2984 1.400 . S
C2985 C2986 1.398 . S
C2986 H2974 0.950 . S
C2986 C2985 1.398 . S
C2986 C2987 1.391 . S
C2987 H2975 0.950 . S
C2987 C2983 1.393 . S
C2987 C2986 1.391 . S
C1197 N608 0.860 . S
C1203 N14 0.860 . S
C1217 N47 0.863 . S
C1223 N641 0.863 . S
C1237 N674 0.842 . S
C1243 N80 0.842 . S
C1257 N1103 0.861 . S
C1263 N113 0.861 . S
C1277 N1136 0.849 . S
C1283 N146 0.849 . S
C1297 N179 0.833 . S
C1303 N1169 0.833 . S
C1317 N212 0.849 . S
C1323 N806 0.849 . S
C1337 N839 0.837 . S
C1343 N245 0.837 . S
C1357 N278 0.844 . S
C1363 N872 0.844 . S
C1377 N509 0.832 . S
C1383 N311 0.832 . S
C1397 N344 0.858 . S
C1403 N542 0.858 . S
C1417 N575 0.853 . S
C1423 N377 0.853 . S
C1437 N410 0.834 . S
C1443 N1004 0.834 . S
C1457 N443 0.842 . S
C1463 N1037 0.842 . S
C1477 N1070 0.843 . S
C1483 N476 0.843 . S
C1497 N905 0.832 . S
C1503 N707 0.832 . S
C1517 N740 0.833 . S
C1523 N938 0.833 . S
C1537 N971 0.846 . S
C1543 N773 0.846 . S
C1557 C17 1.098 . S
C1563 N236 1.079 . S
C1577 C50 1.086 . S
C1583 N269 1.094 . S
C1597 C83 1.087 . S
C1603 N203 1.092 . S
C1617 N368 1.084 . S
C1623 C116 1.097 . S
C1637 C149 1.099 . S
C1643 N302 1.080 . S
C1657 C182 1.098 . S
C1663 N335 1.080 . S
C1677 C215 1.091 . S
C1683 N38 1.087 . S
C1697 C248 1.099 . S
C1703 N71 1.081 1_556 S
C1717 N5 1.081 . S
C1723 C281 1.096 . S
C1737 C314 1.085 . S
C1743 N170 1.095 . S
C1757 C347 1.100 . S
C1763 N104 1.077 . S
C1777 C380 1.099 . S
C1783 N137 1.078 . S
C1797 N632 1.098 . S
C1803 C413 1.084 . S
C1817 C446 1.100 . S
C1823 N665 1.079 . S
C1837 C479 1.098 . S
C1843 N599 1.078 . S
C1857 C512 1.085 . S
C1863 N764 1.098 . S
C1877 C545 1.097 . S
C1883 N698 1.080 . S
C1897 N731 1.078 . S
C1903 C578 1.100 . S
C1917 N434 1.081 . S
C1923 C611 1.097 . S
C1937 C644 1.086 . S
C1943 N467 1.094 . S
C1957 N401 1.096 . S
C1963 C677 1.087 . S
C1977 C710 1.084 . S
C1983 N566 1.098 . S
C1997 N500 1.077 . S
C2003 C743 1.100 . S
C2017 N533 1.078 . S
C2023 C776 1.100 . S
C2037 N1028 1.085 . S
C2043 C809 1.093 . S
C2057 N1061 1.077 . S
C2063 C842 1.101 . S
C2077 C875 1.099 . S
C2083 N995 1.082 . S
C2097 N1160 1.082 . S
C2103 C908 1.098 . S
C2117 N1094 1.096 . S
C2123 C941 1.085 . S
C2137 C974 1.092 . S
C2143 N1127 1.090 . S
C2157 N830 1.091 . S
C2163 C1007 1.088 . S
C2177 C1040 1.100 . S
C2183 N863 1.077 . S
C2197 C1073 1.093 . S
C2203 N797 1.084 . S
C2217 C1106 1.101 . S
C2223 N962 1.077 . S
C2237 N896 1.080 . S
C2243 C1139 1.099 . S
C2257 N929 1.087 . S
C2263 C1172 1.094 . S
C2277 C28 1.589 . S
C2283 C127 1.590 . S
C2297 C61 1.590 . S
C2303 C160 1.590 . S
C2317 C193 1.590 . S
C2323 C94 1.590 . S
C2337 C226 1.591 . S
C2343 C325 1.590 . S
C2357 C358 1.592 . S
C2363 C259 1.591 . S
C2377 C292 1.592 . S
C2383 C391 1.592 . S
C2397 C424 1.591 . S
C2403 C523 1.590 . S
C2417 C457 1.593 . S
C2423 C556 1.593 . S
C2437 C589 1.590 . S
C2443 C490 1.590 . S
C2457 C622 1.590 . S
C2463 C721 1.591 . S
C2477 C655 1.590 . S
C2483 C754 1.601 . S
C2497 C787 1.600 . S
C2503 C688 1.591 . S
C2517 C919 1.591 1_556 S
C2523 C820 1.589 . S
C2537 C952 1.593 . S
C2543 C853 1.592 . S
C2557 C886 1.591 . S
C2563 C985 1.605 . S
C2577 C1018 1.591 . S
C2583 C1117 1.590 . S
C2597 C1150 1.593 . S
C2603 C1051 1.593 . S
C2617 C1183 1.592 . S
C2623 C1084 1.592 . S
C2637 C8 1.982 1_556 S
C2643 C536 1.982 . S
C2657 C41 1.979 1_556 S
C2663 C569 1.983 . S
C2677 C503 1.986 . S
C2683 C74 1.977 1_556 S
C2697 C107 1.977 . S
C2703 C866 1.987 . S
C2717 C800 1.976 . S
C2723 C140 1.988 . S
C2737 C173 1.976 . S
C2743 C833 1.987 . S
C2757 C206 1.978 1_554 S
C2763 C1130 1.986 . S
C2777 C1163 1.981 . S
C2783 C239 1.982 1_554 S
C2797 C272 1.978 1_554 S
C2803 C1097 1.985 . S
C2817 C668 1.987 . S
C2823 C305 1.976 . S
C2837 C602 1.979 . S
C2843 C338 1.985 . S
C2857 C635 1.980 . S
C2863 C371 1.983 . S
C2877 C932 1.978 . S
C2883 C404 1.986 . S
C2897 C965 1.979 . S
C2903 C437 1.983 . S
C2917 C899 1.988 . S
C2923 C470 1.976 . S
C2937 C1064 1.986 . S
C2943 C701 1.977 . S
C2957 C998 1.987 . S
C2963 C734 1.976 . S
C2977 C1031 1.986 . S
C2983 C767 1.976 . S
