# Generated by pormake.
# Topology whm, (6)-cn, num edge types: 1
# Building blocks:
#     Node 0, Type 0, BuildingBlock: OJICUG_clean_sbu_0, # of connection points: 6
#     Node 1, Type 0, BuildingBlock: OJICUG_clean_sbu_0, # of connection points: 6
#     Node 2, Type 0, BuildingBlock: OJICUG_clean_sbu_0, # of connection points: 6
#     Node 3, Type 0, BuildingBlock: OJICUG_clean_sbu_0, # of connection points: 6
#     Node 4, Type 0, BuildingBlock: OJICUG_clean_sbu_0, # of connection points: 6
#     Node 5, Type 0, BuildingBlock: OJICUG_clean_sbu_0, # of connection points: 6
#     Node 6, Type 0, BuildingBlock: OJICUG_clean_sbu_0, # of connection points: 6
#     Node 7, Type 0, BuildingBlock: OJICUG_clean_sbu_0, # of connection points: 6
#     Node 8, Type 0, BuildingBlock: OJICUG_clean_sbu_0, # of connection points: 6
#     Node 9, Type 0, BuildingBlock: OJICUG_clean_sbu_0, # of connection points: 6
#     Node 10, Type 0, BuildingBlock: OJICUG_clean_sbu_0, # of connection points: 6
#     Node 11, Type 0, BuildingBlock: OJICUG_clean_sbu_0, # of connection points: 6
#     Node 12, Type 0, BuildingBlock: OJICUG_clean_sbu_0, # of connection points: 6
#     Node 13, Type 0, BuildingBlock: OJICUG_clean_sbu_0, # of connection points: 6
#     Node 14, Type 0, BuildingBlock: OJICUG_clean_sbu_0, # of connection points: 6
#     Node 15, Type 0, BuildingBlock: OJICUG_clean_sbu_0, # of connection points: 6
#     Edge 16, Type (0, 0), BuildingBlock: CIFDUS_clean_linker_0, # of connection points: 2
#     Edge 17, Type (0, 0), BuildingBlock: CIFDUS_clean_linker_0, # of connection points: 2
#     Edge 18, Type (0, 0), BuildingBlock: CIFDUS_clean_linker_0, # of connection points: 2
#     Edge 19, Type (0, 0), BuildingBlock: CIFDUS_clean_linker_0, # of connection points: 2
#     Edge 20, Type (0, 0), BuildingBlock: CIFDUS_clean_linker_0, # of connection points: 2
#     Edge 21, Type (0, 0), BuildingBlock: CIFDUS_clean_linker_0, # of connection points: 2
#     Edge 22, Type (0, 0), BuildingBlock: CIFDUS_clean_linker_0, # of connection points: 2
#     Edge 23, Type (0, 0), BuildingBlock: CIFDUS_clean_linker_0, # of connection points: 2
#     Edge 24, Type (0, 0), BuildingBlock: CIFDUS_clean_linker_0, # of connection points: 2
#     Edge 25, Type (0, 0), BuildingBlock: CIFDUS_clean_linker_0, # of connection points: 2
#     Edge 26, Type (0, 0), BuildingBlock: CIFDUS_clean_linker_0, # of connection points: 2
#     Edge 27, Type (0, 0), BuildingBlock: CIFDUS_clean_linker_0, # of connection points: 2
#     Edge 28, Type (0, 0), BuildingBlock: CIFDUS_clean_linker_0, # of connection points: 2
#     Edge 29, Type (0, 0), BuildingBlock: CIFDUS_clean_linker_0, # of connection points: 2
#     Edge 30, Type (0, 0), BuildingBlock: CIFDUS_clean_linker_0, # of connection points: 2
#     Edge 31, Type (0, 0), BuildingBlock: CIFDUS_clean_linker_0, # of connection points: 2
#     Edge 32, Type (0, 0), BuildingBlock: CIFDUS_clean_linker_0, # of connection points: 2
#     Edge 33, Type (0, 0), BuildingBlock: CIFDUS_clean_linker_0, # of connection points: 2
#     Edge 34, Type (0, 0), BuildingBlock: CIFDUS_clean_linker_0, # of connection points: 2
#     Edge 35, Type (0, 0), BuildingBlock: CIFDUS_clean_linker_0, # of connection points: 2
#     Edge 36, Type (0, 0), BuildingBlock: CIFDUS_clean_linker_0, # of connection points: 2
#     Edge 37, Type (0, 0), BuildingBlock: CIFDUS_clean_linker_0, # of connection points: 2
#     Edge 38, Type (0, 0), BuildingBlock: CIFDUS_clean_linker_0, # of connection points: 2
#     Edge 39, Type (0, 0), BuildingBlock: CIFDUS_clean_linker_0, # of connection points: 2
#     Edge 40, Type (0, 0), BuildingBlock: CIFDUS_clean_linker_0, # of connection points: 2
#     Edge 41, Type (0, 0), BuildingBlock: CIFDUS_clean_linker_0, # of connection points: 2
#     Edge 42, Type (0, 0), BuildingBlock: CIFDUS_clean_linker_0, # of connection points: 2
#     Edge 43, Type (0, 0), BuildingBlock: CIFDUS_clean_linker_0, # of connection points: 2
#     Edge 44, Type (0, 0), BuildingBlock: CIFDUS_clean_linker_0, # of connection points: 2
#     Edge 45, Type (0, 0), BuildingBlock: CIFDUS_clean_linker_0, # of connection points: 2
#     Edge 46, Type (0, 0), BuildingBlock: CIFDUS_clean_linker_0, # of connection points: 2
#     Edge 47, Type (0, 0), BuildingBlock: CIFDUS_clean_linker_0, # of connection points: 2
#     Edge 48, Type (0, 0), BuildingBlock: CIFDUS_clean_linker_0, # of connection points: 2
#     Edge 49, Type (0, 0), BuildingBlock: CIFDUS_clean_linker_0, # of connection points: 2
#     Edge 50, Type (0, 0), BuildingBlock: CIFDUS_clean_linker_0, # of connection points: 2
#     Edge 51, Type (0, 0), BuildingBlock: CIFDUS_clean_linker_0, # of connection points: 2
#     Edge 52, Type (0, 0), BuildingBlock: CIFDUS_clean_linker_0, # of connection points: 2
#     Edge 53, Type (0, 0), BuildingBlock: CIFDUS_clean_linker_0, # of connection points: 2
#     Edge 54, Type (0, 0), BuildingBlock: CIFDUS_clean_linker_0, # of connection points: 2
#     Edge 55, Type (0, 0), BuildingBlock: CIFDUS_clean_linker_0, # of connection points: 2
#     Edge 56, Type (0, 0), BuildingBlock: CIFDUS_clean_linker_0, # of connection points: 2
#     Edge 57, Type (0, 0), BuildingBlock: CIFDUS_clean_linker_0, # of connection points: 2
#     Edge 58, Type (0, 0), BuildingBlock: CIFDUS_clean_linker_0, # of connection points: 2
#     Edge 59, Type (0, 0), BuildingBlock: CIFDUS_clean_linker_0, # of connection points: 2
#     Edge 60, Type (0, 0), BuildingBlock: CIFDUS_clean_linker_0, # of connection points: 2
#     Edge 61, Type (0, 0), BuildingBlock: CIFDUS_clean_linker_0, # of connection points: 2
#     Edge 62, Type (0, 0), BuildingBlock: CIFDUS_clean_linker_0, # of connection points: 2
#     Edge 63, Type (0, 0), BuildingBlock: CIFDUS_clean_linker_0, # of connection points: 2
# Relax obj value: 0.342
# Max RMSD: 0.245
# Mean RMSD: 0.245
data_MOF--net-whm--node1-OJICUG_clean_sbu_0--edge1-CIFDUS_clean_linker_0
_symmetry_space_group_name_H-M    P1
_symmetry_Int_Tables_number       1
_symmetry_cell_setting            triclinic
loop_
_symmetry_equiv_pos_as_xyz
'x, y, z'
_cell_length_a     45.921619
_cell_length_b     45.743123
_cell_length_c     25.978151
_cell_angle_alpha  89.933016
_cell_angle_beta   89.964605
_cell_angle_gamma 90.302447
loop_
_atom_site_label
_atom_site_type_symbol
_atom_site_fract_x
_atom_site_fract_y
_atom_site_fract_z
_atom_type_partial_charge
Sc0 Sc 0.57837 0.17945 0.12816 0.0
Sc1 Sc 0.5185 0.16747 0.21057 0.0
Sc2 Sc 0.56117 0.10812 0.16751 0.0
O3 O 0.5526 0.15164 0.16873 0.0
C4 C 0.57478 0.12525 0.05104 0.0
C5 C 0.51408 0.2031 0.10675 0.0
C6 C 0.4924 0.10679 0.16983 0.0
C7 C 0.56626 0.21743 0.22805 0.0
C8 C 0.62472 0.13608 0.17537 0.0
C9 C 0.54376 0.11925 0.28556 0.0
O10 O 0.5784 0.15225 0.06056 0.0
O11 O 0.50179 0.1921 0.14616 0.0
O12 O 0.5165 0.09636 0.15457 0.0
O13 O 0.5819 0.21005 0.19009 0.0
O14 O 0.60681 0.11507 0.18123 0.0
O15 O 0.53164 0.14387 0.27823 0.0
O16 O 0.61794 0.16069 0.15651 0.0
O17 O 0.54227 0.20491 0.23877 0.0
O18 O 0.55467 0.10414 0.24932 0.0
O19 O 0.54107 0.2008 0.09692 0.0
O20 O 0.56859 0.10657 0.0856 0.0
O21 O 0.49024 0.13181 0.19056 0.0
Sc22 Sc 0.3204 0.57709 0.63312 0.0
Sc23 Sc 0.31676 0.52572 0.73348 0.0
Sc24 Sc 0.38325 0.55878 0.69986 0.0
O25 O 0.34 0.55366 0.68863 0.0
C26 C 0.38009 0.55613 0.58059 0.0
C27 C 0.28927 0.51528 0.62209 0.0
C28 C 0.37441 0.4912 0.72855 0.0
C29 C 0.27295 0.57861 0.72269 0.0
C30 C 0.36578 0.62365 0.66835 0.0
C31 C 0.35896 0.55969 0.81255 0.0
O32 O 0.35568 0.56918 0.58056 0.0
O33 O 0.2919 0.50829 0.66933 0.0
O34 O 0.38939 0.51444 0.72414 0.0
O35 O 0.28307 0.58742 0.67983 0.0
O36 O 0.38439 0.60415 0.67869 0.0
O37 O 0.33911 0.54086 0.80247 0.0
O38 O 0.3394 0.61771 0.6582 0.0
O39 O 0.28375 0.55749 0.74785 0.0
O40 O 0.37533 0.57106 0.77827 0.0
O41 O 0.29969 0.53871 0.60309 0.0
O42 O 0.3929 0.54748 0.62126 0.0
O43 O 0.34697 0.49053 0.72415 0.0
Sc44 Sc 0.90531 0.314 0.11222 0.0
Sc45 Sc 0.96685 0.31514 0.19294 0.0
Sc46 Sc 0.93246 0.3807 0.15649 0.0
O47 O 0.93489 0.33659 0.15379 0.0
C48 C 0.91213 0.37029 0.04118 0.0
C49 C 0.96667 0.28521 0.08354 0.0
C50 C -0.0001 0.37351 0.15637 0.0
C51 C 0.91413 0.2701 0.20511 0.0
C52 C 0.8663 0.36069 0.16972 0.0
C53 C 0.94847 0.36287 0.27275 0.0
O54 O 0.906 0.3436 0.04862 0.0
O55 O 0.9804 0.29267 0.12404 0.0
O56 O 0.97759 0.38593 0.13775 0.0
O57 O 0.89918 0.28145 0.16963 0.0
O58 O 0.88694 0.37905 0.17584 0.0
O59 O 0.9554 0.33647 0.26369 0.0
O60 O 0.86934 0.33632 0.14695 0.0
O61 O 0.93969 0.27872 0.21601 0.0
O62 O 0.94205 0.38101 0.23744 0.0
O63 O 0.93983 0.29046 0.07556 0.0
O64 O 0.9222 0.38664 0.07637 0.0
O65 O -0.00131 0.34887 0.17891 0.0
Sc66 Sc 0.16378 0.91014 0.63507 0.0
Sc67 Sc 0.16434 0.96148 0.73461 0.0
Sc68 Sc 0.09827 0.93818 0.68281 0.0
O69 O 0.14217 0.93641 0.68382 0.0
C70 C 0.11162 0.93071 0.56361 0.0
C71 C 0.19728 0.97234 0.63069 0.0
C72 C 0.1115 0.00281 0.70727 0.0
C73 C 0.20716 0.90705 0.72805 0.0
C74 C 0.11046 0.87003 0.67268 0.0
C75 C 0.11454 0.93622 0.80238 0.0
O76 O 0.13754 0.92219 0.57035 0.0
O77 O 0.18759 0.98276 0.67285 0.0
O78 O 0.09886 0.98491 0.67746 0.0
O79 O 0.19371 0.89405 0.69213 0.0
O80 O 0.09476 0.89148 0.68659 0.0
O81 O 0.14183 0.93992 0.7964 0.0
O82 O 0.13576 0.87303 0.6528 0.0
O83 O 0.19982 0.93204 0.74404 0.0
O84 O 0.09605 0.93944 0.76626 0.0
O85 O 0.19224 0.94631 0.615 0.0
O86 O 0.09443 0.93646 0.6004 0.0
O87 O 0.13274 -0.0042 0.73563 0.0
Sc88 Sc 0.58493 0.31563 0.84332 0.0
Sc89 Sc 0.52388 0.32516 0.76402 0.0
Sc90 Sc 0.56322 0.38582 0.80887 0.0
O91 O 0.5573 0.34216 0.80561 0.0
C92 C 0.58027 0.36681 0.92367 0.0
C93 C 0.52188 0.28668 0.86296 0.0
C94 C 0.49553 0.38272 0.81251 0.0
C95 C 0.57431 0.27857 0.74349 0.0
C96 C 0.62759 0.36395 0.7959 0.0
C97 C 0.54578 0.37491 0.69093 0.0
O98 O 0.5812 0.33967 0.91378 0.0
O99 O 0.50803 0.30087 0.82895 0.0
O100 O 0.51899 0.39268 0.83176 0.0
O101 O 0.59166 0.28901 0.77676 0.0
O102 O 0.60753 0.38193 0.7852 0.0
O103 O 0.53753 0.34851 0.6965 0.0
O104 O 0.62326 0.34035 0.82085 0.0
O105 O 0.54837 0.28767 0.73792 0.0
O106 O 0.55246 0.39142 0.72858 0.0
O107 O 0.54936 0.28828 0.86933 0.0
O108 O 0.57583 0.3861 0.88928 0.0
O109 O 0.4948 0.36021 0.78386 0.0
Sc110 Sc 0.08863 0.5503 0.3322 0.0
Sc111 Sc 0.15326 0.51876 0.29069 0.0
Sc112 Sc 0.15369 0.57072 0.38825 0.0
O113 O 0.13201 0.54652 0.33702 0.0
C114 C 0.10804 0.61601 0.35556 0.0
C115 C 0.10596 0.54934 0.21693 0.0
C116 C 0.1972 0.57087 0.29172 0.0
C117 C 0.09814 0.48264 0.30564 0.0
C118 C 0.09573 0.55173 0.44922 0.0
C119 C 0.18559 0.51088 0.39885 0.0
O120 O 0.08859 0.59613 0.35312 0.0
O121 O 0.12555 0.53008 0.2251 0.0
O122 O 0.19087 0.57785 0.33786 0.0
O123 O 0.08262 0.50554 0.30776 0.0
O124 O 0.11899 0.56676 0.44413 0.0
O125 O 0.18342 0.50523 0.35092 0.0
O126 O 0.08327 0.53874 0.41191 0.0
O127 O 0.12545 0.48314 0.31179 0.0
O128 O 0.17295 0.53235 0.42011 0.0
O129 O 0.09272 0.5625 0.2531 0.0
O130 O 0.13498 0.61022 0.35929 0.0
O131 O 0.1828 0.55205 0.26632 0.0
Sc132 Sc 0.92283 0.1013 0.79215 0.0
Sc133 Sc 0.95676 0.16335 0.73728 0.0
Sc134 Sc 0.89706 0.17157 0.82143 0.0
O135 O 0.92556 0.1454 0.78365 0.0
C136 C 0.85601 0.1199 0.78505 0.0
C137 C 0.93578 0.10853 0.67168 0.0
C138 C 0.90387 0.2063 0.71514 0.0
C139 C -0.00871 0.11071 0.78785 0.0
C140 C 0.90787 0.12134 0.90584 0.0
C141 C 0.95803 0.20427 0.8356 0.0
O142 O 0.8764 0.10125 0.78328 0.0
O143 O 0.94665 0.1341 0.67492 0.0
O144 O 0.89018 0.20029 0.75636 0.0
O145 O 0.969 0.09644 0.80254 0.0
O146 O 0.89952 0.14671 0.89245 0.0
O147 O 0.97023 0.19399 0.79569 0.0
O148 O 0.91796 0.10287 0.87419 0.0
O149 O 0.98992 0.13465 0.76349 0.0
O150 O 0.93212 0.1982 0.84936 0.0
O151 O 0.92661 0.09423 0.7105 0.0
O152 O 0.85995 0.14667 0.79622 0.0
O153 O 0.92789 0.19446 0.70363 0.0
Sc154 Sc 0.38897 0.93236 0.33678 0.0
Sc155 Sc 0.32297 0.9657 0.29863 0.0
Sc156 Sc 0.32468 0.91902 0.40579 0.0
O157 O 0.34561 0.93925 0.34712 0.0
C158 C 0.36615 0.8687 0.36899 0.0
C159 C 0.36496 0.92999 0.22273 0.0
C160 C 0.27701 0.91487 0.3171 0.0
C161 C 0.38279 -0.00052 0.3036 0.0
C162 C 0.38561 0.93671 0.45728 0.0
C163 C 0.29665 0.98222 0.4085 0.0
O164 O 0.38589 0.88624 0.35359 0.0
O165 O 0.343 0.94617 0.2315 0.0
O166 O 0.28708 0.9075 0.36065 0.0
O167 O 0.39747 0.97701 0.31564 0.0
O168 O 0.35953 0.92745 0.4585 0.0
O169 O 0.29973 0.98737 0.3606 0.0
O170 O 0.39957 0.94152 0.41587 0.0
O171 O 0.35525 -0.00033 0.30045 0.0
O172 O 0.30568 0.95908 0.43013 0.0
O173 O 0.38289 0.92219 0.25723 0.0
O174 O 0.34174 0.87714 0.386 0.0
O175 O 0.28827 0.9349 0.28974 0.0
Sc176 Sc 0.43351 0.8856 0.83679 0.0
Sc177 Sc 0.46263 0.82004 0.78701 0.0
Sc178 Sc 0.40375 0.81882 0.87439 0.0
O179 O 0.43345 0.84146 0.83252 0.0
C180 C 0.41849 0.87121 0.95153 0.0
C181 C 0.5014 0.87322 0.82646 0.0
C182 C 0.46294 0.78456 0.8926 0.0
C183 C 0.44319 0.87373 0.71681 0.0
C184 C 0.36532 0.86979 0.83255 0.0
C185 C 0.40726 0.77886 0.77418 0.0
O186 O 0.43284 0.88643 0.91948 0.0
O187 O 0.49857 0.84782 0.80752 0.0
O188 O 0.43818 0.79367 0.90749 0.0
O189 O 0.43475 0.8893 0.75448 0.0
O190 O 0.36818 0.84284 0.84291 0.0
O191 O 0.4311 0.78936 0.75762 0.0
O192 O 0.38651 0.88788 0.8329 0.0
O193 O 0.4535 0.84808 0.72212 0.0
O194 O 0.39588 0.78679 0.81623 0.0
O195 O 0.47997 0.88878 0.84019 0.0
O196 O 0.4055 0.84767 0.93955 0.0
O197 O 0.4743 0.79064 0.84909 0.0
Sc198 Sc 0.67272 0.41642 0.36788 0.0
Sc199 Sc 0.66692 0.47187 0.2744 0.0
Sc200 Sc 0.60612 0.42873 0.30867 0.0
O201 O 0.6487 0.43922 0.31693 0.0
C202 C 0.63331 0.36568 0.32808 0.0
C203 C 0.71894 0.4266 0.27815 0.0
C204 C 0.62824 0.43437 0.19401 0.0
C205 C 0.6928 0.48242 0.3868 0.0
C206 C 0.61242 0.427 0.4277 0.0
C207 C 0.60436 0.49726 0.28527 0.0
O208 O 0.65883 0.37463 0.33843 0.0
O209 O 0.70531 0.44759 0.25766 0.0
O210 O 0.61303 0.42155 0.22838 0.0
O211 O 0.6883 0.45621 0.40113 0.0
O212 O 0.59748 0.43515 0.38909 0.0
O213 O 0.63159 0.50134 0.28495 0.0
O214 O 0.63832 0.41738 0.42437 0.0
O215 O 0.68775 0.49166 0.34133 0.0
O216 O 0.59268 0.47237 0.29166 0.0
O217 O 0.71003 0.41319 0.31801 0.0
O218 O 0.61204 0.38289 0.32218 0.0
O219 O 0.64715 0.45425 0.20416 0.0
Sc220 Sc 0.07594 0.66955 0.86758 0.0
Sc221 Sc 0.01645 0.66653 0.78418 0.0
Sc222 Sc 0.04838 0.6019 0.82879 0.0
O223 O 0.04709 0.6459 0.82691 0.0
C224 C 0.11545 0.61794 0.82502 0.0
C225 C 0.07004 0.71099 0.77296 0.0
C226 C 0.03849 0.61829 0.70924 0.0
C227 C 0.01406 0.70002 0.88779 0.0
C228 C 0.06271 0.61771 0.94572 0.0
C229 C 0.98211 0.60845 0.81651 0.0
O230 O 0.11249 0.64312 0.84493 0.0
O231 O 0.04331 0.70446 0.76704 0.0
O232 O 0.04173 0.59998 0.746 0.0
O233 O 0.04153 0.69773 0.89368 0.0
O234 O 0.0558 0.5994 0.91092 0.0
O235 O 0.98454 0.63193 0.79084 0.0
O236 O 0.0691 0.64421 0.93615 0.0
O237 O -0.00027 0.68774 0.85181 0.0
O238 O 0.00272 0.5986 0.84376 0.0
O239 O 0.08636 0.69723 0.80373 0.0
O240 O 0.09427 0.6009 0.81521 0.0
O241 O 0.03249 0.64518 0.71652 0.0
Sc242 Sc 0.82171 0.07184 0.34457 0.0
Sc243 Sc 0.82011 0.0178 0.24941 0.0
Sc244 Sc 0.88629 0.04734 0.29147 0.0
O245 O 0.84252 0.04542 0.29543 0.0
C246 C 0.87143 0.11405 0.31181 0.0
C247 C 0.77905 0.07255 0.24714 0.0
C248 C 0.86843 0.04724 0.17545 0.0
C249 C 0.78642 0.01291 0.35719 0.0
C250 C 0.87694 0.04919 0.40909 0.0
C251 C 0.87396 0.97969 0.26822 0.0
O252 O 0.84418 0.10997 0.3165 0.0
O253 O 0.79122 0.0512 0.22494 0.0
O254 O 0.88327 0.05863 0.21166 0.0
O255 O 0.79815 0.03569 0.37606 0.0
O256 O 0.89054 0.03729 0.37194 0.0
O257 O 0.8465 0.98112 0.2691 0.0
O258 O 0.85416 0.06464 0.40329 0.0
O259 O 0.79007 0.00479 0.31064 0.0
O260 O 0.89042 0.002 0.27111 0.0
O261 O 0.78654 0.08148 0.29163 0.0
O262 O 0.88935 0.0931 0.30961 0.0
O263 O 0.84764 0.02899 0.18324 0.0
Sc264 Sc 0.41297 0.60743 0.19926 0.0
Sc265 Sc 0.46073 0.66341 0.24088 0.0
Sc266 Sc 0.39804 0.68053 0.16892 0.0
O267 O 0.42393 0.65044 0.20307 0.0
C268 C 0.39653 0.62864 0.08651 0.0
C269 C 0.48147 0.603 0.19236 0.0
C270 C 0.46266 0.70152 0.1397 0.0
C271 C 0.43443 0.6152 0.316 0.0
C272 C 0.35105 0.63733 0.21629 0.0
C273 C 0.41777 0.71547 0.26855 0.0
O274 O 0.40375 0.60879 0.11818 0.0
O275 O 0.48583 0.62741 0.21408 0.0
O276 O 0.43516 0.70115 0.13398 0.0
O277 O 0.42113 0.6016 0.28021 0.0
O278 O 0.3585 0.66266 0.20104 0.0
O279 O 0.44129 0.70148 0.27437 0.0
O280 O 0.36817 0.61564 0.21687 0.0
O281 O 0.44866 0.63883 0.30851 0.0
O282 O 0.3994 0.70952 0.23362 0.0
O283 O 0.45624 0.59354 0.18131 0.0
O284 O 0.39355 0.65527 0.09929 0.0
O285 O 0.47596 0.68854 0.17591 0.0
Sc286 Sc 0.88499 0.41387 0.64838 0.0
Sc287 Sc 0.82794 0.45855 0.68679 0.0
Sc288 Sc 0.82206 0.41521 0.57778 0.0
O289 O 0.8451 0.42976 0.63744 0.0
C290 C 0.88649 0.42145 0.53221 0.0
C291 C 0.89134 0.47996 0.68905 0.0
C292 C 0.80788 0.48135 0.57525 0.0
C293 C 0.86077 0.41254 0.7591 0.0
C294 C 0.85025 0.35771 0.6126 0.0
C295 C 0.7735 0.42013 0.66428 0.0
O296 O 0.89891 0.42825 0.57415 0.0
O297 O 0.86501 0.48704 0.68108 0.0
O298 O 0.81731 0.45904 0.5515 0.0
O299 O 0.87215 0.39847 0.72221 0.0
O300 O 0.82642 0.37089 0.60455 0.0
O301 O 0.79027 0.43146 0.69759 0.0
O302 O 0.87438 0.37124 0.61725 0.0
O303 O 0.84757 0.43685 0.75322 0.0
O304 O 0.78064 0.41704 0.61734 0.0
O305 O 0.90057 0.45403 0.68238 0.0
O306 O 0.8604 0.41199 0.52969 0.0
O307 O 0.80651 0.48281 0.62441 0.0
Sc308 Sc 0.06001 0.88086 0.18064 0.0
Sc309 Sc 0.02638 0.81896 0.23732 0.0
Sc310 Sc 0.0881 0.81155 0.15749 0.0
O311 O 0.05806 0.83708 0.19196 0.0
C312 C 0.07855 0.86024 0.07038 0.0
C313 C -0.00839 0.87093 0.18447 0.0
C314 C 0.02755 0.77877 0.13785 0.0
C315 C 0.04726 0.87442 0.30139 0.0
C316 C 0.12705 0.86396 0.19426 0.0
C317 C 0.07887 0.77617 0.26185 0.0
O318 O 0.06428 0.87776 0.09845 0.0
O319 O -0.00721 0.84725 0.2097 0.0
O320 O 0.05363 0.78536 0.12543 0.0
O321 O 0.05642 0.88839 0.26212 0.0
O322 O 0.12378 0.83658 0.18817 0.0
O323 O 0.05456 0.78746 0.27316 0.0
O324 O 0.10649 0.88223 0.18935 0.0
O325 O 0.036 0.84892 0.29911 0.0
O326 O 0.09286 0.78278 0.22152 0.0
O327 O 0.01408 0.88494 0.17016 0.0
O328 O 0.08917 0.83661 0.08755 0.0
O329 O 0.0146 0.78827 0.17777 0.0
Sc330 Sc 0.58788 0.05125 0.66718 0.0
Sc331 Sc 0.65678 0.02376 0.69905 0.0
Sc332 Sc 0.64908 0.07543 0.6007 0.0
O333 O 0.63133 0.04989 0.65548 0.0
C334 C 0.59 0.05256 0.54829 0.0
C335 C 0.60216 0.984 0.69141 0.0
C336 C 0.68355 0.01659 0.58561 0.0
C337 C 0.61228 0.05259 0.78005 0.0
C338 C 0.60228 0.11819 0.64266 0.0
C339 C 0.69743 0.079 0.68853 0.0
O340 O 0.57855 0.04095 0.58799 0.0
O341 O 0.62955 0.98628 0.68812 0.0
O342 O 0.67051 0.03867 0.56705 0.0
O343 O 0.59493 0.06244 0.74613 0.0
O344 O 0.62873 0.11386 0.63082 0.0
O345 O 0.687 0.05811 0.71494 0.0
O346 O 0.58431 0.09738 0.65015 0.0
O347 O 0.63366 0.03583 0.76942 0.0
O348 O 0.68719 0.08655 0.64514 0.0
O349 O 0.58508 0.00569 0.68837 0.0
O350 O 0.61329 0.06768 0.54936 0.0
O351 O 0.68268 0.00976 0.63325 0.0
H352 H 0.62092 0.23999 0.23559 0.0
H353 H 0.53295 0.25162 0.29054 0.0
H354 H 0.54728 0.29721 0.33235 0.0
H355 H 0.58317 0.33631 0.34429 0.0
H356 H 0.67106 0.32526 0.28921 0.0
H357 H 0.65849 0.27647 0.25716 0.0
C358 C 0.60494 0.25237 0.2571 0.0
C359 C 0.57578 0.24275 0.25909 0.0
C360 C 0.61328 0.27861 0.28086 0.0
C361 C 0.55548 0.25866 0.28808 0.0
C362 C 0.56362 0.28477 0.31187 0.0
C363 C 0.59968 0.32302 0.32592 0.0
C364 C 0.62783 0.33442 0.31828 0.0
C365 C 0.59221 0.29533 0.30715 0.0
C366 C 0.64922 0.31689 0.29539 0.0
C367 C 0.64198 0.28914 0.27672 0.0
H368 H 0.23167 0.55188 0.77913 0.0
H369 H 0.25367 0.63459 0.70889 0.0
H370 H 0.2073 0.65508 0.73818 0.0
H371 H 0.15948 0.6484 0.78048 0.0
H372 H 0.13651 0.56397 0.84289 0.0
H373 H 0.1845 0.54512 0.8203 0.0
C374 C 0.22648 0.57451 0.77079 0.0
C375 C 0.24602 0.59182 0.74234 0.0
C376 C 0.19962 0.5857 0.78619 0.0
C377 C 0.23884 0.62091 0.73081 0.0
C378 C 0.21241 0.63259 0.74752 0.0
C379 C 0.16525 0.626 0.78944 0.0
C380 C 0.14481 0.60752 0.81332 0.0
C381 C 0.19249 0.61506 0.77476 0.0
C382 C 0.15206 0.57842 0.82426 0.0
C383 C 0.17941 0.56768 0.81145 0.0
H384 H 0.84154 0.16243 0.28327 0.0
H385 H 0.92752 0.13254 0.32403 0.0
H386 H 0.94814 0.17984 0.30001 0.0
H387 H 0.94248 0.22761 0.25822 0.0
H388 H 0.85669 0.25633 0.2137 0.0
H389 H 0.83532 0.21175 0.24887 0.0
C390 C 0.8647 0.16643 0.28776 0.0
C391 C 0.88298 0.14392 0.30471 0.0
C392 C 0.87654 0.19341 0.27272 0.0
C393 C 0.913 0.14943 0.31034 0.0
C394 C 0.92484 0.17647 0.29661 0.0
C395 C 0.91908 0.2243 0.25701 0.0
C396 C 0.90128 0.24499 0.23274 0.0
C397 C 0.90694 0.1983 0.27628 0.0
C398 C 0.87095 0.24046 0.23146 0.0
C399 C 0.85867 0.215 0.25161 0.0
H400 H 0.32036 0.83856 0.79223 0.0
H401 H 0.3451 0.92529 0.84179 0.0
H402 H 0.29737 0.9437 0.81701 0.0
H403 H 0.24981 0.93571 0.77852 0.0
H404 H 0.22539 0.84998 0.72355 0.0
H405 H 0.27197 0.83048 0.75368 0.0
C406 C 0.31518 0.86144 0.79796 0.0
C407 C 0.33617 0.88057 0.81881 0.0
C408 C 0.2879 0.872 0.7827 0.0
C409 C 0.32935 0.9102 0.82551 0.0
C410 C 0.30207 0.92072 0.8115 0.0
C411 C 0.25443 0.91264 0.77362 0.0
C412 C 0.2341 0.89426 0.7491 0.0
C413 C 0.28134 0.90186 0.78971 0.0
C414 C 0.24069 0.86456 0.74235 0.0
C415 C 0.2673 0.85344 0.75949 0.0
H416 H 0.54044 0.23546 0.70372 0.0
H417 H 0.62992 0.2634 0.71912 0.0
H418 H 0.64645 0.21696 0.68358 0.0
H419 H 0.63564 0.16668 0.6574 0.0
H420 H 0.5462 0.13761 0.64743 0.0
H421 H 0.52953 0.1863 0.67126 0.0
C422 C 0.56353 0.23162 0.69826 0.0
C423 C 0.58393 0.25273 0.71424 0.0
C424 C 0.57291 0.20453 0.67941 0.0
C425 C 0.6138 0.24735 0.70743 0.0
C426 C 0.62327 0.2208 0.68724 0.0
C427 C 0.61249 0.17108 0.65967 0.0
C428 C 0.59223 0.14845 0.65117 0.0
C429 C 0.60304 0.19892 0.67457 0.0
C430 C 0.56229 0.15455 0.65438 0.0
C431 C 0.55271 0.1824 0.66796 0.0
H432 H 0.31671 0.59454 0.18181 0.0
H433 H 0.31815 0.66819 0.28487 0.0
H434 H 0.26937 0.65494 0.31668 0.0
H435 H 0.22795 0.61997 0.31867 0.0
H436 H 0.22688 0.5479 0.2112 0.0
H437 H 0.27374 0.56321 0.17712 0.0
C438 C 0.30614 0.60778 0.21094 0.0
C439 C 0.32078 0.63196 0.23163 0.0
C440 C 0.27827 0.60029 0.2282 0.0
C441 C 0.30701 0.64941 0.26865 0.0
C442 C 0.27929 0.64176 0.28687 0.0
C443 C 0.23789 0.60782 0.28752 0.0
C444 C 0.22404 0.58266 0.26798 0.0
C445 C 0.26493 0.61689 0.26753 0.0
C446 C 0.237 0.56734 0.22708 0.0
C447 C 0.26391 0.57597 0.2076 0.0
H448 H 0.89017 0.31897 0.58072 0.0
H449 H 0.81116 0.32627 0.66919 0.0
H450 H 0.81898 0.27746 0.70549 0.0
H451 H 0.85254 0.23644 0.72181 0.0
H452 H 0.93147 0.22993 0.63186 0.0
H453 H 0.91915 0.2744 0.58597 0.0
C454 C 0.87428 0.30946 0.60689 0.0
C455 C 0.85034 0.32608 0.62277 0.0
C456 C 0.87913 0.28173 0.62795 0.0
C457 C 0.8297 0.31367 0.65631 0.0
C458 C 0.83435 0.28594 0.67748 0.0
C459 C 0.8668 0.24447 0.69161 0.0
C460 C 0.89327 0.23016 0.68141 0.0
C461 C 0.85966 0.27031 0.66518 0.0
C462 C 0.91118 0.24063 0.64133 0.0
C463 C 0.90421 0.26616 0.61494 0.0
H464 H 0.16606 0.83975 0.25962 0.0
H465 H 0.15168 0.91433 0.16124 0.0
H466 H 0.19776 0.93594 0.18897 0.0
H467 H 0.24059 0.93478 0.2438 0.0
H468 H 0.25413 0.86207 0.34701 0.0
H469 H 0.20971 0.83856 0.31498 0.0
C470 C 0.17331 0.86054 0.24394 0.0
C471 C 0.15578 0.87547 0.20845 0.0
C472 C 0.19938 0.87325 0.26123 0.0
C473 C 0.16494 0.90259 0.18879 0.0
C474 C 0.1912 0.91493 0.2046 0.0
C475 C 0.234 0.91367 0.25909 0.0
C476 C 0.25061 0.90016 0.29763 0.0
C477 C 0.20835 0.90063 0.24127 0.0
C478 C 0.24158 0.87298 0.31746 0.0
C479 C 0.21627 0.8595 0.29909 0.0
H480 H 0.33476 0.66957 0.70391 0.0
H481 H 0.41857 0.64581 0.64226 0.0
H482 H 0.43782 0.69431 0.6626 0.0
H483 H 0.43272 0.74057 0.70884 0.0
H484 H 0.3501 0.7627 0.77735 0.0
H485 H 0.32838 0.718 0.74297 0.0
C486 C 0.35701 0.67534 0.69389 0.0
C487 C 0.37534 0.65427 0.67211 0.0
C488 C 0.36824 0.70283 0.70754 0.0
C489 C 0.40421 0.66174 0.65961 0.0
C490 C 0.41522 0.68939 0.67128 0.0
C491 C 0.40981 0.73591 0.71528 0.0
C492 C 0.39314 0.75467 0.74603 0.0
C493 C 0.39774 0.70971 0.69695 0.0
C494 C 0.36349 0.74833 0.75429 0.0
C495 C 0.35105 0.72279 0.73469 0.0
H496 H 0.74228 0.37241 0.2712 0.0
H497 H 0.75849 0.46313 0.23502 0.0
H498 H 0.80592 0.45076 0.19898 0.0
H499 H 0.84276 0.41429 0.17803 0.0
H500 H 0.82563 0.32308 0.20833 0.0
H501 H 0.77845 0.3354 0.24622 0.0
C502 C 0.7563 0.38937 0.25543 0.0
C503 C 0.74713 0.41857 0.25578 0.0
C504 C 0.78323 0.38202 0.23368 0.0
C505 C 0.76515 0.44045 0.23479 0.0
C506 C 0.79226 0.43343 0.21436 0.0
C507 C 0.82866 0.39715 0.193 0.0
C508 C 0.83754 0.36792 0.19077 0.0
C509 C 0.80149 0.40432 0.21364 0.0
C510 C 0.81905 0.34577 0.20954 0.0
C511 C 0.79219 0.3528 0.23133 0.0
H512 H 0.14072 0.82013 0.69156 0.0
H513 H 0.05356 0.85364 0.67502 0.0
H514 H 0.03328 0.80622 0.69935 0.0
H515 H 0.04021 0.75671 0.73271 0.0
H516 H 0.12727 0.72391 0.75482 0.0
H517 H 0.14763 0.76937 0.72054 0.0
C518 C 0.11731 0.81686 0.69252 0.0
C519 C 0.09868 0.84036 0.68182 0.0
C520 C 0.10575 0.78971 0.70791 0.0
C521 C 0.06837 0.83594 0.68361 0.0
C522 C 0.05674 0.80883 0.69748 0.0
C523 C 0.06363 0.75931 0.72927 0.0
C524 C 0.08217 0.73702 0.74654 0.0
C525 C 0.07521 0.78577 0.71085 0.0
C526 C 0.11249 0.74084 0.74217 0.0
C527 C 0.12417 0.76684 0.72259 0.0
H528 H 0.6599 0.09534 0.13704 0.0
H529 H 0.65666 0.16615 0.24584 0.0
H530 H 0.70592 0.15426 0.27602 0.0
H531 H 0.74801 0.12086 0.27548 0.0
H532 H 0.75111 0.05164 0.16239 0.0
H533 H 0.70409 0.06621 0.12908 0.0
C534 C 0.67023 0.10824 0.167 0.0
C535 C 0.655 0.13117 0.18993 0.0
C536 C 0.69844 0.10162 0.18325 0.0
C537 C 0.66832 0.14826 0.22808 0.0
C538 C 0.69632 0.14144 0.24528 0.0
C539 C 0.73858 0.10924 0.24314 0.0
C540 C 0.75292 0.08489 0.22223 0.0
C541 C 0.71137 0.11776 0.22377 0.0
C542 C 0.74055 0.07033 0.17972 0.0
C543 C 0.71353 0.07852 0.16061 0.0
H544 H 0.41762 0.83998 0.36763 0.0
H545 H 0.32482 0.82683 0.35368 0.0
H546 H 0.33257 0.77644 0.32648 0.0
H547 H 0.36591 0.73848 0.29605 0.0
H548 H 0.45868 0.75119 0.31131 0.0
H549 H 0.45074 0.79928 0.34942 0.0
C550 C 0.39912 0.82591 0.35934 0.0
C551 C 0.37077 0.83716 0.36172 0.0
C552 C 0.40372 0.797 0.34369 0.0
C553 C 0.34689 0.81864 0.35191 0.0
C554 C 0.3513 0.78989 0.33608 0.0
C555 C 0.38434 0.75163 0.30849 0.0
C556 C 0.4128 0.74164 0.30014 0.0
C557 C 0.37963 0.7792 0.33019 0.0
C558 C 0.43654 0.75853 0.31724 0.0
C559 C 0.43204 0.78608 0.33871 0.0
H560 H 0.64196 0.39018 0.70666 0.0
H561 H 0.67907 0.35304 0.84432 0.0
H562 H 0.72791 0.36763 0.81572 0.0
H563 H 0.75963 0.39226 0.75251 0.0
H564 H 0.72268 0.42605 0.61209 0.0
H565 H 0.67392 0.41147 0.64076 0.0
C566 C 0.66079 0.38529 0.73031 0.0
C567 C 0.65711 0.37093 0.7777 0.0
C568 C 0.68864 0.39319 0.71319 0.0
C569 C 0.68156 0.36413 0.80768 0.0
C570 C 0.70937 0.37254 0.79146 0.0
C571 C 0.74083 0.39638 0.72836 0.0
C572 C 0.74444 0.41041 0.68068 0.0
C573 C 0.7131 0.38731 0.74451 0.0
C574 C 0.7202 0.41525 0.64901 0.0
C575 C 0.69241 0.407 0.66539 0.0
H576 H 0.04694 0.73601 0.31379 0.0
H577 H 0.1353 0.76052 0.27645 0.0
H578 H 0.15278 0.71368 0.30902 0.0
H579 H 0.14204 0.66345 0.33564 0.0
H580 H 0.05315 0.63771 0.36684 0.0
H581 H 0.03682 0.68737 0.3494 0.0
C582 C 0.07008 0.7314 0.31419 0.0
C583 C 0.0898 0.75148 0.2925 0.0
C584 C 0.07982 0.70399 0.33089 0.0
C585 C 0.11972 0.74519 0.29269 0.0
C586 C 0.1297 0.7184 0.31103 0.0
C587 C 0.11916 0.66879 0.33942 0.0
C588 C 0.09881 0.6468 0.35155 0.0
C589 C 0.1098 0.6972 0.32817 0.0
C590 C 0.06923 0.65413 0.35659 0.0
C591 C 0.05985 0.68254 0.34677 0.0
H592 H 0.81309 0.14892 0.7351 0.0
H593 H 0.8329 0.06764 0.81164 0.0
H594 H 0.78426 0.04902 0.79234 0.0
H595 H 0.73751 0.05473 0.75014 0.0
H596 H 0.71827 0.1339 0.66664 0.0
H597 H 0.76537 0.15469 0.69244 0.0
C598 C 0.80653 0.12725 0.7478 0.0
C599 C 0.82633 0.10958 0.7746 0.0
C600 C 0.77882 0.11638 0.73528 0.0
C601 C 0.81796 0.08144 0.79054 0.0
C602 C 0.7902 0.07085 0.77968 0.0
C603 C 0.74339 0.07673 0.73815 0.0
C604 C 0.72446 0.09288 0.70688 0.0
C605 C 0.77064 0.08799 0.7516 0.0
C606 C 0.73259 0.1211 0.69079 0.0
C607 C 0.75946 0.13293 0.70547 0.0
H608 H 0.59762 0.07371 0.01921 0.0
H609 H 0.56147 0.15457 0.96315 0.0
H610 H 0.56938 0.13882 0.87436 0.0
H611 H 0.58719 0.10252 0.8129 0.0
H612 H 0.62643 0.02296 0.86817 0.0
H613 H 0.6169 0.03779 0.9572 0.0
C614 C 0.59129 0.08773 0.98744 0.0
C615 C 0.57878 0.11515 -0.00245 0.0
C616 C 0.59664 0.07886 0.93654 0.0
C617 C 0.57115 0.13339 0.95623 0.0
C618 C 0.57566 0.12439 0.90553 0.0
C619 C 0.59357 0.08835 0.84444 0.0
C620 C 0.60733 0.06158 0.83402 0.0
C621 C 0.58849 0.09725 0.89527 0.0
C622 C 0.61589 0.04369 0.87525 0.0
C623 C 0.61034 0.05213 0.92608 0.0
H624 H 0.42574 0.58901 0.55328 0.0
H625 H 0.36585 0.52366 0.49746 0.0
H626 H 0.38043 0.53419 0.40864 0.0
H627 H 0.40414 0.56725 0.34766 0.0
H628 H 0.46061 0.63609 0.40349 0.0
H629 H 0.45348 0.61901 0.49162 0.0
C630 C 0.41689 0.57634 0.52159 0.0
C631 C 0.39532 0.55525 0.53129 0.0
C632 C 0.42411 0.58377 0.47077 0.0
C633 C 0.383 0.53954 0.49039 0.0
C634 C 0.39102 0.54587 0.43977 0.0
C635 C 0.41519 0.57839 0.37892 0.0
C636 C 0.43246 0.60327 0.36891 0.0
C637 C 0.41056 0.56883 0.42952 0.0
C638 C 0.44683 0.61715 0.41004 0.0
C639 C 0.44285 0.60736 0.4605 0.0
H640 H 0.89266 0.34156 0.95679 0.0
H641 H 0.91426 0.42802 0.01215 0.0
H642 H 0.89758 0.44915 0.93096 0.0
H643 H 0.87702 0.44288 0.84381 0.0
H644 H 0.85731 0.3561 0.7888 0.0
H645 H 0.8724 0.33528 0.87111 0.0
C646 C 0.89385 0.36504 0.95126 0.0
C647 C 0.9047 0.38314 0.99062 0.0
C648 C 0.88407 0.37702 0.9049 0.0
C649 C 0.90615 0.41352 0.98244 0.0
C650 C 0.89641 0.42566 0.93618 0.0
C651 C 0.87552 0.4195 0.85048 0.0
C652 C 0.86576 0.40099 0.81098 0.0
C653 C 0.88514 0.40762 0.89728 0.0
C654 C 0.86457 0.37067 0.81912 0.0
C655 C 0.87337 0.35878 0.8659 0.0
H656 H 0.09054 0.91142 0.32856 0.0
H657 H 0.01485 0.86659 0.38848 0.0
H658 H 0.02574 0.88484 0.4749 0.0
H659 H 0.0598 0.90879 0.5344 0.0
H660 H 0.13845 0.94842 0.47556 0.0
H661 H 0.12318 0.93752 0.38732 0.0
C662 C 0.07614 0.90607 0.36041 0.0
C663 C 0.05197 0.88767 0.35238 0.0
C664 C 0.08315 0.91572 0.41004 0.0
C665 C 0.03371 0.88056 0.39397 0.0
C666 C 0.03991 0.89102 0.44325 0.0
C667 C 0.07314 0.91572 0.50206 0.0
C668 C 0.10002 0.92955 0.511 0.0
C669 C 0.06496 0.90799 0.45191 0.0
C670 C 0.1176 0.93784 0.4692 0.0
C671 C 0.10895 0.93147 0.41895 0.0
H672 H 0.60565 0.41758 0.95552 0.0
H673 H 0.56892 0.3365 0.01146 0.0
H674 H 0.58118 0.35015 0.09964 0.0
H675 H 0.60255 0.38459 0.16048 0.0
H676 H 0.64112 0.46511 0.1058 0.0
H677 H 0.62833 0.45196 0.0172 0.0
C678 C 0.60007 0.40309 0.98714 0.0
C679 C 0.58616 0.37619 0.97709 0.0
C680 C 0.60781 0.41078 0.03774 0.0
C681 C 0.57958 0.35733 0.01824 0.0
C682 C 0.58663 0.36509 0.06863 0.0
C683 C 0.60819 0.39936 0.12927 0.0
C684 C 0.62264 0.42591 0.13984 0.0
C685 C 0.60085 0.39166 0.07874 0.0
C686 C 0.63011 0.4445 0.09875 0.0
C687 C 0.62263 0.43707 0.04814 0.0
H688 H 0.06575 0.59881 0.47468 0.0
H689 H 0.09197 0.51448 0.53123 0.0
H690 H 0.07378 0.52695 0.61748 0.0
H691 H 0.05555 0.56409 0.67775 0.0
H692 H 0.03159 0.64939 0.62028 0.0
H693 H 0.04361 0.63422 0.53309 0.0
C694 C 0.06672 0.58297 0.5058 0.0
C695 C 0.07973 0.55577 0.49726 0.0
C696 C 0.05707 0.59065 0.55498 0.0
C697 C 0.08155 0.53538 0.53735 0.0
C698 C 0.07143 0.54264 0.58652 0.0
C699 C 0.05265 0.57929 0.64617 0.0
C700 C 0.04307 0.60801 0.65584 0.0
C701 C 0.05995 0.57057 0.59604 0.0
C702 C 0.03924 0.62728 0.61421 0.0
C703 C 0.04607 0.61865 0.56424 0.0
H704 H 0.89253 0.06737 0.93869 0.0
H705 H 0.91219 0.15424 0.99334 0.0
H706 H 0.90279 0.1385 0.08208 0.0
H707 H 0.88792 0.10023 0.14362 0.0
H708 H 0.86422 0.01457 0.08783 0.0
H709 H 0.87618 0.02962 -0.00023 0.0
C710 C 0.89504 0.08277 0.97014 0.0
C711 C 0.90339 0.11183 0.9597 0.0
C712 C 0.88869 0.0738 0.02064 0.0
C713 C 0.9059 0.13175 0.00055 0.0
C714 C 0.90051 0.12275 0.05119 0.0
C715 C 0.88553 0.08482 0.11216 0.0
C716 C 0.87541 0.05625 0.12214 0.0
C717 C 0.89174 0.09387 0.06162 0.0
C718 C 0.8719 0.03667 0.08102 0.0
C719 C 0.87882 0.04525 0.03077 0.0
H720 H 0.41285 0.92187 0.68876 0.0
H721 H 0.46702 0.85335 0.62711 0.0
H722 H 0.45876 0.87169 0.54003 0.0
H723 H 0.43096 0.90305 0.48121 0.0
H724 H 0.37272 0.96762 0.54303 0.0
H725 H 0.38852 0.95573 0.63055 0.0
C726 C 0.42319 0.91111 0.65642 0.0
C727 C 0.44018 0.886 0.66442 0.0
C728 C 0.41782 0.92132 0.60654 0.0
C729 C 0.45345 0.87243 0.62198 0.0
C730 C 0.44886 0.88298 0.5722 0.0
C731 C 0.42269 0.91522 0.5139 0.0
C732 C 0.40122 0.93647 0.50625 0.0
C733 C 0.43046 0.90691 0.56396 0.0
C734 C 0.3897 0.95155 0.54849 0.0
C735 C 0.39843 0.94446 0.59836 0.0
H736 H 0.36729 0.87667 -0.00034 0.0
H737 H 0.45928 0.89246 0.01814 0.0
H738 H 0.45073 0.91193 0.10488 0.0
H739 H 0.41683 0.92412 0.1751 0.0
H740 H 0.32443 0.91237 0.15293 0.0
H741 H 0.33322 0.89183 0.06734 0.0
C742 C 0.38542 0.88426 0.02298 0.0
C743 C 0.41387 0.88283 0.00346 0.0
C744 C 0.38018 0.89625 0.07164 0.0
C745 C 0.43724 0.89329 0.03296 0.0
C746 C 0.43233 0.90438 0.08231 0.0
C747 C 0.39867 0.91706 0.15136 0.0
C748 C 0.37006 0.91945 0.17008 0.0
C749 C 0.40388 0.90593 0.10199 0.0
C750 C 0.3466 0.91076 0.13899 0.0
C751 C 0.35164 0.89892 0.09032 0.0
H752 H 0.56277 0.39943 0.45448 0.0
H753 H 0.63327 0.45166 0.51462 0.0
H754 H 0.61612 0.443 0.60257 0.0
H755 H 0.58479 0.41591 0.66186 0.0
H756 H 0.51777 0.35874 0.6025 0.0
H757 H 0.52962 0.374 0.51453 0.0
C758 C 0.57376 0.40949 0.48696 0.0
C759 C 0.5989 0.42639 0.47869 0.0
C760 C 0.56464 0.40316 0.53732 0.0
C761 C 0.61367 0.43878 0.52062 0.0
C762 C 0.60399 0.4337 0.5707 0.0
C763 C 0.57238 0.40721 0.62973 0.0
C764 C 0.55045 0.38626 0.63847 0.0
C765 C 0.58004 0.41522 0.5795 0.0
C766 C 0.53486 0.3748 0.59653 0.0
C767 C 0.54162 0.38352 0.54634 0.0
H768 H 0.08199 0.56502 0.97889 0.0
H769 H 0.0507 0.64835 0.03262 0.0
H770 H 0.0602 0.63391 0.12162 0.0
H771 H 0.07986 0.59883 0.18348 0.0
H772 H 0.1142 0.51662 0.12997 0.0
H773 H 0.10123 0.52944 0.04146 0.0
C774 C 0.07684 0.57977 0.01024 0.0
C775 C 0.06552 0.60761 -0.00059 0.0
C776 C 0.08327 0.57169 0.06117 0.0
C777 C 0.05944 0.6268 0.04015 0.0
C778 C 0.06493 0.61859 0.09096 0.0
C779 C 0.08437 0.58359 0.15252 0.0
C780 C 0.09804 0.55682 0.1633 0.0
C781 C 0.07728 0.59129 0.10182 0.0
C782 C 0.10394 0.53748 0.12266 0.0
C783 C 0.09641 0.54474 0.07209 0.0
H784 H 0.92624 0.076 0.43718 0.0
H785 H 0.85459 0.02466 0.4954 0.0
H786 H 0.86912 0.03583 0.58401 0.0
H787 H 0.89788 0.06583 0.64346 0.0
H788 H 0.96615 0.12174 0.58424 0.0
H789 H 0.95739 0.10328 0.4974 0.0
C790 C 0.91456 0.0665 0.46951 0.0
C791 C 0.88986 0.04913 0.46047 0.0
C792 C 0.92203 0.07444 0.51992 0.0
C793 C 0.87403 0.03764 0.50205 0.0
C794 C 0.88214 0.0443 0.55248 0.0
C795 C 0.91117 0.07363 0.61169 0.0
C796 C 0.93244 0.09531 0.62016 0.0
C797 C 0.90544 0.06357 0.56175 0.0
C798 C 0.94937 0.10533 0.57857 0.0
C799 C 0.94445 0.09472 0.52896 0.0
H800 H 0.3805 0.61132 0.84735 0.0
H801 H 0.34769 0.52771 0.89902 0.0
H802 H 0.35706 0.54149 0.9884 0.0
H803 H 0.37509 0.57709 0.05172 0.0
H804 H 0.40521 0.66176 0.0005 0.0
H805 H 0.39642 0.64778 0.91094 0.0
C806 C 0.37544 0.59611 0.87821 0.0
C807 C 0.36361 0.56846 0.86664 0.0
C808 C 0.38045 0.60435 0.92947 0.0
C809 C 0.35674 0.54914 0.90699 0.0
C810 C 0.36219 0.55696 0.95805 0.0
C811 C 0.37982 0.59241 0.02088 0.0
C812 C 0.39098 0.6203 0.03253 0.0
C813 C 0.37415 0.58445 0.9697 0.0
C814 C 0.39655 0.64017 0.99239 0.0
C815 C 0.39159 0.63217 0.94124 0.0
H816 H 0.92742 0.41477 0.30553 0.0
H817 H 0.96253 0.33314 0.36109 0.0
H818 H 0.95086 0.34723 0.44939 0.0
H819 H 0.92442 0.37957 0.50873 0.0
H820 H 0.88508 0.45831 0.45105 0.0
H821 H 0.90514 0.44885 0.36528 0.0
C822 C 0.93295 0.40015 0.33685 0.0
C823 C 0.94538 0.37271 0.32658 0.0
C824 C 0.92541 0.40795 0.38707 0.0
C825 C 0.95259 0.35423 0.36786 0.0
C826 C 0.94594 0.36225 0.41834 0.0
C827 C 0.92115 0.395 0.47752 0.0
C828 C 0.90386 0.41973 0.48549 0.0
C829 C 0.93149 0.38861 0.42812 0.0
C830 C 0.8988 0.43939 0.44522 0.0
C831 C 0.91001 0.43383 0.39636 0.0
H832 H 0.13646 0.89214 0.858 0.0
H833 H 0.06791 0.95607 0.85654 0.0
H834 H 0.04953 0.93736 0.93904 0.0
H835 H 0.05399 0.90338 0.01233 0.0
H836 H 0.12097 0.8374 0.0095 0.0
H837 H 0.13851 0.85593 0.92734 0.0
C838 C 0.11763 0.90204 0.8761 0.0
C839 C 0.10382 0.9257 0.85229 0.0
C840 C 0.10672 0.89058 0.92228 0.0
C841 C 0.07896 0.93796 0.87488 0.0
C842 C 0.06845 0.92723 0.92178 0.0
C843 C 0.07224 0.89291 0.9935 0.0
C844 C 0.08623 0.86919 0.01734 0.0
C845 C 0.08223 0.90357 0.94592 0.0
C846 C 0.10969 0.85566 0.9921 0.0
C847 C 0.11994 0.86635 0.94522 0.0
H848 H 0.55034 0.09184 0.52246 0.0
H849 H 0.59715 0.01729 0.46556 0.0
H850 H 0.58426 0.03036 0.37693 0.0
H851 H 0.56647 0.06724 0.31638 0.0
H852 H 0.52335 0.14435 0.37403 0.0
H853 H 0.52811 0.12616 0.4618 0.0
C854 C 0.55654 0.07785 0.49059 0.0
C855 C 0.57397 0.05336 0.49992 0.0
C856 C 0.55055 0.08652 0.44002 0.0
C857 C 0.583 0.0358 0.45882 0.0
C858 C 0.57608 0.04358 0.4083 0.0
C859 C 0.5579 0.08003 0.34801 0.0
C860 C 0.54509 0.10742 0.33856 0.0
C861 C 0.56102 0.06964 0.39846 0.0
C862 C 0.53374 0.12342 0.38012 0.0
C863 C 0.53631 0.11299 0.43038 0.0
H864 H 0.42125 -0.00398 0.22757 0.0
H865 H 0.37763 0.0577 0.32582 0.0
H866 H 0.4043 0.09819 0.28457 0.0
H867 H 0.44331 0.11467 0.22666 0.0
H868 H 0.48637 0.05223 0.12811 0.0
H869 H 0.4553 0.01331 0.16169 0.0
C870 C 0.41781 0.01838 0.24009 0.0
C871 C 0.39858 0.02412 0.28074 0.0
C872 C 0.43252 0.04124 0.21545 0.0
C873 C 0.39306 0.05302 0.29541 0.0
C874 C 0.40807 0.07602 0.27158 0.0
C875 C 0.44544 0.09274 0.21137 0.0
C876 C 0.46767 0.08627 0.17576 0.0
C877 C 0.42823 0.07027 0.23217 0.0
C878 C 0.46974 0.05776 0.156 0.0
C879 C 0.45223 0.03541 0.17562 0.0
H880 H 0.44507 0.37624 0.75872 0.0
H881 H 0.48699 0.43073 0.87292 0.0
H882 H 0.45029 0.46822 0.86008 0.0
H883 H 0.41191 0.48866 0.80625 0.0
H884 H 0.37017 0.43546 0.69082 0.0
H885 H 0.40134 0.39401 0.71432 0.0
C886 C 0.44582 0.39598 0.78177 0.0
C887 C 0.46924 0.40103 0.81568 0.0
C888 C 0.42513 0.41783 0.77313 0.0
C889 C 0.46955 0.42653 0.84583 0.0
C890 C 0.44867 0.44806 0.83833 0.0
C891 C 0.40952 0.46783 0.78666 0.0
C892 C 0.38962 0.46502 0.74606 0.0
C893 C 0.42737 0.4445 0.80028 0.0
C894 C 0.3858 0.43795 0.72174 0.0
C895 C 0.40358 0.41441 0.73516 0.0
H896 H 0.04163 0.36592 0.22885 0.0
H897 H 0.01567 0.42328 0.10501 0.0
H898 H 0.0461 0.46222 0.14037 0.0
H899 H 0.07244 0.48226 0.21425 0.0
H900 H 0.09767 0.42594 0.33937 0.0
H901 H 0.07446 0.38406 0.29617 0.0
C902 C 0.04334 0.38659 0.20853 0.0
C903 C 0.02586 0.39196 0.165 0.0
C904 C 0.05973 0.40927 0.23041 0.0
C905 C 0.0286 0.41877 0.13895 0.0
C906 C 0.04568 0.44115 0.1595 0.0
C907 C 0.07277 0.46073 0.23193 0.0
C908 C 0.08554 0.45701 0.28049 0.0
C909 C 0.05987 0.43708 0.20669 0.0
C910 C 0.08715 0.42911 0.30248 0.0
C911 C 0.07411 0.4053 0.27766 0.0
H912 H 0.08981 0.01833 0.79792 0.0
H913 H 0.09933 0.04689 0.64068 0.0
H914 H 0.06705 0.08838 0.65731 0.0
H915 H 0.03037 0.11076 0.71203 0.0
H916 H 0.01387 0.07633 0.86397 0.0
H917 H 0.05523 0.04303 0.85493 0.0
C918 C 0.08531 0.03421 0.76788 0.0
C919 C 0.09674 0.03013 0.71839 0.0
C920 C 0.06543 0.05661 0.77694 0.0
C921 C 0.09059 0.05004 0.67901 0.0
C922 C 0.07217 0.07355 0.68854 0.0
C923 C 0.03644 0.09659 0.74378 0.0
C924 C 0.01942 0.09587 0.78868 0.0
C925 C 0.05863 0.0763 0.73674 0.0
C926 C 0.02688 0.07709 0.82919 0.0
C927 C 0.05031 0.05804 0.82384 0.0
H928 H 0.58461 0.9764 0.78753 0.0
H929 H 0.59423 0.93152 0.64296 0.0
H930 H 0.56932 0.88831 0.67882 0.0
H931 H 0.53811 0.86751 0.74651 0.0
H932 H 0.52554 0.9147 0.88842 0.0
H933 H 0.55973 0.95243 0.85962 0.0
C934 C 0.5815 0.9569 0.7643 0.0
C935 C 0.59037 0.95691 0.71271 0.0
C936 C 0.56709 0.93264 0.78502 0.0
C937 C 0.587 0.93176 0.68266 0.0
C938 C 0.57291 0.9072 0.70321 0.0
C939 C 0.54382 0.88542 0.77201 0.0
C940 C 0.52928 0.88856 0.81935 0.0
C941 C 0.562 0.90784 0.7538 0.0
C942 C 0.53653 0.91197 0.85183 0.0
C943 C 0.55571 0.93369 0.83506 0.0
H944 H 0.55734 0.49278 0.22514 0.0
H945 H 0.6111 0.5555 0.30531 0.0
H946 H 0.5802 0.59534 0.2742 0.0
H947 H 0.5358 0.61115 0.23087 0.0
H948 H 0.48186 0.54784 0.15169 0.0
H949 H 0.51609 0.50931 0.17379 0.0
C950 C 0.56209 0.51518 0.23621 0.0
C951 C 0.5857 0.52134 0.26878 0.0
C952 C 0.54472 0.53773 0.21748 0.0
C953 C 0.59253 0.5504 0.28116 0.0
C954 C 0.57507 0.57308 0.26308 0.0
C955 C 0.53176 0.58907 0.21737 0.0
C956 C 0.50591 0.58226 0.19077 0.0
C957 C 0.55087 0.56688 0.23189 0.0
C958 C 0.50138 0.55362 0.17284 0.0
C959 C 0.52075 0.53151 0.18595 0.0
H960 H 0.88188 0.5381 0.70757 0.0
H961 H 0.94514 0.46934 0.72813 0.0
H962 H 0.97608 0.50221 0.77697 0.0
H963 H 0.9863 0.55025 0.81124 0.0
H964 H 0.92652 0.62111 0.78492 0.0
H965 H 0.89254 0.58728 0.74247 0.0
C966 C 0.90251 0.53038 0.72245 0.0
C967 C 0.91114 0.50128 0.71384 0.0
C968 C 0.92052 0.54952 0.75043 0.0
C969 C 0.93796 0.49165 0.73357 0.0
C970 C 0.95563 0.51034 0.76202 0.0
C971 C 0.96549 0.55824 0.7975 0.0
C972 C 0.95866 0.588 0.80194 0.0
C973 C 0.94711 0.53922 0.7707 0.0
C974 C 0.93201 0.59815 0.78252 0.0
C975 C 0.91281 0.57891 0.75774 0.0
H976 H 0.90278 0.97108 0.18145 0.0
H977 H 0.87454 0.92768 0.32007 0.0
H978 H 0.90467 0.88511 0.29855 0.0
H979 H 0.94546 0.86533 0.24848 0.0
H980 H 0.97545 0.91102 0.11274 0.0
H981 H 0.93718 0.94728 0.12354 0.0
C982 C 0.90293 0.95197 0.20632 0.0
C983 C 0.88736 0.95232 0.25263 0.0
C984 C 0.92041 0.92816 0.194 0.0
C985 C 0.88687 0.92763 0.2845 0.0
C986 C 0.90403 0.90347 0.27218 0.0
C987 C 0.94296 0.88262 0.22023 0.0
C988 C 0.96353 0.88598 0.1805 0.0
C989 C 0.92183 0.90411 0.22813 0.0
C990 C 0.96005 0.90837 0.14405 0.0
C991 C 0.93837 0.92919 0.15044 0.0
H992 H 0.50122 0.18552 0.01203 0.0
H993 H 0.49206 0.25763 0.11688 0.0
H994 H 0.48614 0.29138 0.04444 0.0
H995 H 0.49787 0.30108 0.95338 0.0
H996 H 0.51249 0.22903 0.85024 0.0
H997 H 0.50153 0.19423 0.91923 0.0
C998 C 0.49633 0.2084 0.01872 0.0
C999 C 0.49709 0.21936 0.06904 0.0
C1000 C 0.49472 0.22766 0.97701 0.0
C1001 C 0.49122 0.24893 0.07813 0.0
C1002 C 0.48835 0.26821 0.03672 0.0
C1003 C 0.49729 0.27775 0.94583 0.0
C1004 C 0.50589 0.26729 0.89752 0.0
C1005 C 0.49219 0.25804 0.9862 0.0
C1006 C 0.5057 0.23723 0.88747 0.0
C1007 C 0.49966 0.21743 0.92691 0.0
H1008 H 0.1794 0.49115 0.49616 0.0
H1009 H 0.24136 0.4989 0.37221 0.0
H1010 H 0.28155 0.49381 0.43316 0.0
H1011 H 0.2979 0.50062 0.52263 0.0
H1012 H 0.23585 0.49381 0.64664 0.0
H1013 H 0.19681 0.48418 0.58494 0.0
C1014 C 0.2017 0.49039 0.48242 0.0
C1015 C 0.20761 0.49591 0.43021 0.0
C1016 C 0.22461 0.48816 0.51783 0.0
C1017 C 0.23641 0.4947 0.41234 0.0
C1018 C 0.25939 0.49217 0.44729 0.0
C1019 C 0.27602 0.49579 0.53609 0.0
C1020 C 0.26948 0.49847 0.58873 0.0
C1021 C 0.25367 0.4909 0.50033 0.0
C1022 C 0.24127 0.49191 0.60619 0.0
C1023 C 0.2189 0.48675 0.57086 0.0
H1024 H 0.97518 0.30386 0.98753 0.0
H1025 H 0.98972 0.23084 0.08881 0.0
H1026 H -0.0038 0.19852 0.01459 0.0
H1027 H 0.98419 0.1897 0.92359 0.0
H1028 H 0.96572 0.26239 0.82362 0.0
H1029 H 0.97507 0.29664 0.8941 0.0
C1030 C 0.98112 0.28112 0.99299 0.0
C1031 C 0.98177 0.2694 0.04284 0.0
C1032 C 0.98362 0.26271 0.95035 0.0
C1033 C 0.9893 0.24008 0.0504 0.0
C1034 C -0.00737 0.22163 0.00803 0.0
C1035 C 0.98365 0.21313 0.91697 0.0
C1036 C 0.97432 0.22384 0.86923 0.0
C1037 C 0.98789 0.2324 0.95812 0.0
C1038 C 0.97314 0.254 0.86035 0.0
C1039 C 0.97816 0.27346 0.9007 0.0
H1040 H 0.30559 0.00222 0.50467 0.0
H1041 H 0.24223 -0.00071 0.3826 0.0
H1042 H 0.2028 0.00263 0.44537 0.0
H1043 H 0.1876 0.99095 0.53413 0.0
H1044 H 0.25104 0.99187 0.65612 0.0
H1045 H 0.28934 0.00512 0.59464 0.0
C1046 C 0.28317 0.00399 0.49185 0.0
C1047 C 0.27662 -0.00013 0.43952 0.0
C1048 C 0.2607 0.00458 0.52834 0.0
C1049 C 0.24769 0.00236 0.42282 0.0
C1050 C 0.22512 0.0037 0.45882 0.0
C1051 C 0.20961 -0.00463 0.54731 0.0
C1052 C 0.21687 0.99016 0.59896 0.0
C1053 C 0.23145 0.00244 0.51162 0.0
C1054 C 0.24522 -0.00416 0.6163 0.0
C1055 C 0.26709 0.00317 0.58112 0.0
H1056 H 0.47564 0.68382 0.0445 0.0
H1057 H 0.48387 0.75638 0.14894 0.0
H1058 H 0.4926 0.78963 0.07661 0.0
H1059 H 0.48445 0.79893 0.98467 0.0
H1060 H 0.47301 0.72675 0.88031 0.0
H1061 H 0.47974 0.69207 0.95116 0.0
C1062 C 0.48082 0.70668 0.05123 0.0
C1063 C 0.47918 0.71793 0.10131 0.0
C1064 C 0.48468 0.72564 0.00941 0.0
C1065 C 0.48537 0.74749 0.11038 0.0
C1066 C 0.48998 0.76646 0.06906 0.0
C1067 C 0.48485 0.77557 0.97735 0.0
C1068 C 0.47814 0.76512 0.92806 0.0
C1069 C 0.48776 0.75601 0.01844 0.0
C1070 C 0.47837 0.73501 0.91824 0.0
C1071 C 0.48186 0.71528 0.9588 0.0
H1072 H 0.75324 0.50068 0.58967 0.0
H1073 H 0.82647 0.50675 0.48663 0.0
H1074 H 0.79406 0.51779 0.4149 0.0
H1075 H 0.74535 0.50862 0.37888 0.0
H1076 H 0.67265 0.49597 0.4813 0.0
H1077 H 0.70377 0.50541 0.55558 0.0
C1078 C 0.76214 0.50615 0.55214 0.0
C1079 C 0.792 0.50239 0.543 0.0
C1080 C 0.74316 0.51044 0.51044 0.0
C1081 C 0.80342 0.50932 0.49425 0.0
C1082 C 0.78483 0.5152 0.45306 0.0
C1083 C 0.73613 0.50964 0.41731 0.0
C1084 C 0.70701 0.50136 0.42499 0.0
C1085 C 0.75461 0.51328 0.45999 0.0
C1086 C 0.69515 0.50227 0.47482 0.0
C1087 C 0.71303 0.50731 0.51732 0.0
H1088 H 0.00243 0.68117 0.98234 0.0
H1089 H -0.00477 0.75592 0.8825 0.0
H1090 H -0.00808 0.78828 0.95727 0.0
H1091 H 0.00458 0.79543 0.04834 0.0
H1092 H 0.01667 0.7208 0.14701 0.0
H1093 H 0.00425 0.68788 0.07588 0.0
C1094 C -0.00143 0.7044 0.97732 0.0
C1095 C -0.00104 0.71642 0.92766 0.0
C1096 C -0.0016 0.72277 0.02031 0.0
C1097 C -0.00544 0.74643 0.92072 0.0
C1098 C -0.00682 0.76488 0.96342 0.0
C1099 C 0.00326 0.77198 0.05444 0.0
C1100 C 0.01151 0.76022 0.10204 0.0
C1101 C -0.00291 0.75341 0.01307 0.0
C1102 C 0.01018 0.73 0.11033 0.0
C1103 C 0.0033 0.71129 0.06968 0.0
H1104 H 0.79333 -0.00494 0.4552 0.0
H1105 H 0.73024 0.00057 0.33299 0.0
H1106 H 0.69059 -0.00397 0.39554 0.0
H1107 H 0.67492 0.00276 0.48552 0.0
H1108 H 0.7382 -0.00216 0.6077 0.0
H1109 H 0.7768 0.98911 0.54481 0.0
C1110 C 0.77089 -0.00607 0.44224 0.0
C1111 C 0.76453 -0.00156 0.38992 0.0
C1112 C 0.74832 0.99199 0.47853 0.0
C1113 C 0.73553 -0.00303 0.37314 0.0
C1114 C 0.71289 -0.0052 0.40899 0.0
C1115 C 0.69702 -0.00131 0.49836 0.0
C1116 C 0.70392 0.00148 0.55089 0.0
C1117 C 0.7191 -0.00586 0.46192 0.0
C1118 C 0.73244 -0.00415 0.56741 0.0
C1119 C 0.75455 0.99115 0.53141 0.0
loop_
_geom_bond_atom_site_label_1
_geom_bond_atom_site_label_2
_geom_bond_distance
_geom_bond_site_symmetry_2
_ccdc_geom_bond_type
Sc0 O3 2.025 . S
Sc0 O10 2.105 . S
Sc0 O13 2.105 . S
Sc0 O16 2.105 . S
Sc0 O19 2.105 . S
Sc1 O3 2.025 . S
Sc1 O11 2.105 . S
Sc1 O15 2.105 . S
Sc1 O17 2.105 . S
Sc1 O21 2.105 . S
Sc2 O3 2.025 . S
Sc2 O12 2.105 . S
Sc2 O14 2.105 . S
Sc2 O18 2.105 . S
Sc2 O20 2.105 . S
O3 Sc0 2.025 . S
O3 Sc1 2.025 . S
O3 Sc2 2.025 . S
C4 O10 1.268 . S
C4 O20 1.268 . S
C5 O11 1.268 . S
C5 O19 1.268 . S
C6 O12 1.268 . S
C6 O21 1.268 . S
C7 O13 1.268 . S
C7 O17 1.268 . S
C8 O14 1.268 . S
C8 O16 1.268 . S
C9 O15 1.268 . S
C9 O18 1.268 . S
O10 Sc0 2.105 . S
O10 C4 1.268 . S
O11 Sc1 2.105 . S
O11 C5 1.268 . S
O12 Sc2 2.105 . S
O12 C6 1.268 . S
O13 Sc0 2.105 . S
O13 C7 1.268 . S
O14 Sc2 2.105 . S
O14 C8 1.268 . S
O15 Sc1 2.105 . S
O15 C9 1.268 . S
O16 Sc0 2.105 . S
O16 C8 1.268 . S
O17 Sc1 2.105 . S
O17 C7 1.268 . S
O18 Sc2 2.105 . S
O18 C9 1.268 . S
O19 Sc0 2.105 . S
O19 C5 1.268 . S
O20 Sc2 2.105 . S
O20 C4 1.268 . S
O21 Sc1 2.105 . S
O21 C6 1.268 . S
Sc22 O25 2.025 . S
Sc22 O32 2.105 . S
Sc22 O35 2.105 . S
Sc22 O38 2.105 . S
Sc22 O41 2.105 . S
Sc23 O25 2.025 . S
Sc23 O33 2.105 . S
Sc23 O37 2.105 . S
Sc23 O39 2.105 . S
Sc23 O43 2.105 . S
Sc24 O25 2.025 . S
Sc24 O34 2.105 . S
Sc24 O36 2.105 . S
Sc24 O40 2.105 . S
Sc24 O42 2.105 . S
O25 Sc22 2.025 . S
O25 Sc23 2.025 . S
O25 Sc24 2.025 . S
C26 O32 1.268 . S
C26 O42 1.268 . S
C27 O33 1.268 . S
C27 O41 1.268 . S
C28 O34 1.268 . S
C28 O43 1.268 . S
C29 O35 1.268 . S
C29 O39 1.268 . S
C30 O36 1.268 . S
C30 O38 1.268 . S
C31 O37 1.268 . S
C31 O40 1.268 . S
O32 Sc22 2.105 . S
O32 C26 1.268 . S
O33 Sc23 2.105 . S
O33 C27 1.268 . S
O34 Sc24 2.105 . S
O34 C28 1.268 . S
O35 Sc22 2.105 . S
O35 C29 1.268 . S
O36 Sc24 2.105 . S
O36 C30 1.268 . S
O37 Sc23 2.105 . S
O37 C31 1.268 . S
O38 Sc22 2.105 . S
O38 C30 1.268 . S
O39 Sc23 2.105 . S
O39 C29 1.268 . S
O40 Sc24 2.105 . S
O40 C31 1.268 . S
O41 Sc22 2.105 . S
O41 C27 1.268 . S
O42 Sc24 2.105 . S
O42 C26 1.268 . S
O43 Sc23 2.105 . S
O43 C28 1.268 . S
Sc44 O47 2.025 . S
Sc44 O54 2.105 . S
Sc44 O57 2.105 . S
Sc44 O60 2.105 . S
Sc44 O63 2.105 . S
Sc45 O47 2.025 . S
Sc45 O55 2.105 . S
Sc45 O59 2.105 . S
Sc45 O61 2.105 . S
Sc45 O65 2.105 1_655 S
Sc46 O47 2.025 . S
Sc46 O56 2.105 . S
Sc46 O58 2.105 . S
Sc46 O62 2.105 . S
Sc46 O64 2.105 . S
O47 Sc44 2.025 . S
O47 Sc45 2.025 . S
O47 Sc46 2.025 . S
C48 O54 1.268 . S
C48 O64 1.268 . S
C49 O55 1.268 . S
C49 O63 1.268 . S
C50 O56 1.268 1_455 S
C50 O65 1.268 . S
C51 O57 1.268 . S
C51 O61 1.268 . S
C52 O58 1.268 . S
C52 O60 1.268 . S
C53 O59 1.268 . S
C53 O62 1.268 . S
O54 Sc44 2.105 . S
O54 C48 1.268 . S
O55 Sc45 2.105 . S
O55 C49 1.268 . S
O56 Sc46 2.105 . S
O56 C50 1.268 1_655 S
O57 Sc44 2.105 . S
O57 C51 1.268 . S
O58 Sc46 2.105 . S
O58 C52 1.268 . S
O59 Sc45 2.105 . S
O59 C53 1.268 . S
O60 Sc44 2.105 . S
O60 C52 1.268 . S
O61 Sc45 2.105 . S
O61 C51 1.268 . S
O62 Sc46 2.105 . S
O62 C53 1.268 . S
O63 Sc44 2.105 . S
O63 C49 1.268 . S
O64 Sc46 2.105 . S
O64 C48 1.268 . S
O65 Sc45 2.105 1_455 S
O65 C50 1.268 . S
Sc66 O69 2.025 . S
Sc66 O76 2.105 . S
Sc66 O79 2.105 . S
Sc66 O82 2.105 . S
Sc66 O85 2.105 . S
Sc67 O69 2.025 . S
Sc67 O77 2.105 . S
Sc67 O81 2.105 . S
Sc67 O83 2.105 . S
Sc67 O87 2.105 1_565 S
Sc68 O69 2.025 . S
Sc68 O78 2.105 . S
Sc68 O80 2.105 . S
Sc68 O84 2.105 . S
Sc68 O86 2.105 . S
O69 Sc66 2.025 . S
O69 Sc67 2.025 . S
O69 Sc68 2.025 . S
C70 O76 1.268 . S
C70 O86 1.268 . S
C71 O77 1.268 . S
C71 O85 1.268 . S
C72 O78 1.268 1_545 S
C72 O87 1.268 . S
C73 O79 1.268 . S
C73 O83 1.268 . S
C74 O80 1.268 . S
C74 O82 1.268 . S
C75 O81 1.268 . S
C75 O84 1.268 . S
O76 Sc66 2.105 . S
O76 C70 1.268 . S
O77 Sc67 2.105 . S
O77 C71 1.268 . S
O78 Sc68 2.105 . S
O78 C72 1.268 1_565 S
O79 Sc66 2.105 . S
O79 C73 1.268 . S
O80 Sc68 2.105 . S
O80 C74 1.268 . S
O81 Sc67 2.105 . S
O81 C75 1.268 . S
O82 Sc66 2.105 . S
O82 C74 1.268 . S
O83 Sc67 2.105 . S
O83 C73 1.268 . S
O84 Sc68 2.105 . S
O84 C75 1.268 . S
O85 Sc66 2.105 . S
O85 C71 1.268 . S
O86 Sc68 2.105 . S
O86 C70 1.268 . S
O87 Sc67 2.105 1_545 S
O87 C72 1.268 . S
Sc88 O91 2.025 . S
Sc88 O98 2.105 . S
Sc88 O101 2.105 . S
Sc88 O104 2.105 . S
Sc88 O107 2.105 . S
Sc89 O91 2.025 . S
Sc89 O99 2.105 . S
Sc89 O103 2.105 . S
Sc89 O105 2.105 . S
Sc89 O109 2.105 . S
Sc90 O91 2.025 . S
Sc90 O100 2.105 . S
Sc90 O102 2.105 . S
Sc90 O106 2.105 . S
Sc90 O108 2.105 . S
O91 Sc88 2.025 . S
O91 Sc89 2.025 . S
O91 Sc90 2.025 . S
C92 O98 1.268 . S
C92 O108 1.268 . S
C93 O99 1.268 . S
C93 O107 1.268 . S
C94 O100 1.268 . S
C94 O109 1.268 . S
C95 O101 1.268 . S
C95 O105 1.268 . S
C96 O102 1.268 . S
C96 O104 1.268 . S
C97 O103 1.268 . S
C97 O106 1.268 . S
O98 Sc88 2.105 . S
O98 C92 1.268 . S
O99 Sc89 2.105 . S
O99 C93 1.268 . S
O100 Sc90 2.105 . S
O100 C94 1.268 . S
O101 Sc88 2.105 . S
O101 C95 1.268 . S
O102 Sc90 2.105 . S
O102 C96 1.268 . S
O103 Sc89 2.105 . S
O103 C97 1.268 . S
O104 Sc88 2.105 . S
O104 C96 1.268 . S
O105 Sc89 2.105 . S
O105 C95 1.268 . S
O106 Sc90 2.105 . S
O106 C97 1.268 . S
O107 Sc88 2.105 . S
O107 C93 1.268 . S
O108 Sc90 2.105 . S
O108 C92 1.268 . S
O109 Sc89 2.105 . S
O109 C94 1.268 . S
Sc110 O113 2.025 . S
Sc110 O120 2.105 . S
Sc110 O123 2.105 . S
Sc110 O126 2.105 . S
Sc110 O129 2.105 . S
Sc111 O113 2.025 . S
Sc111 O121 2.105 . S
Sc111 O125 2.105 . S
Sc111 O127 2.105 . S
Sc111 O131 2.105 . S
Sc112 O113 2.025 . S
Sc112 O122 2.105 . S
Sc112 O124 2.105 . S
Sc112 O128 2.105 . S
Sc112 O130 2.105 . S
O113 Sc110 2.025 . S
O113 Sc111 2.025 . S
O113 Sc112 2.025 . S
C114 O120 1.268 . S
C114 O130 1.268 . S
C115 O121 1.268 . S
C115 O129 1.268 . S
C116 O122 1.268 . S
C116 O131 1.268 . S
C117 O123 1.268 . S
C117 O127 1.268 . S
C118 O124 1.268 . S
C118 O126 1.268 . S
C119 O125 1.268 . S
C119 O128 1.268 . S
O120 Sc110 2.105 . S
O120 C114 1.268 . S
O121 Sc111 2.105 . S
O121 C115 1.268 . S
O122 Sc112 2.105 . S
O122 C116 1.268 . S
O123 Sc110 2.105 . S
O123 C117 1.268 . S
O124 Sc112 2.105 . S
O124 C118 1.268 . S
O125 Sc111 2.105 . S
O125 C119 1.268 . S
O126 Sc110 2.105 . S
O126 C118 1.268 . S
O127 Sc111 2.105 . S
O127 C117 1.268 . S
O128 Sc112 2.105 . S
O128 C119 1.268 . S
O129 Sc110 2.105 . S
O129 C115 1.268 . S
O130 Sc112 2.105 . S
O130 C114 1.268 . S
O131 Sc111 2.105 . S
O131 C116 1.268 . S
Sc132 O135 2.025 . S
Sc132 O142 2.105 . S
Sc132 O145 2.105 . S
Sc132 O148 2.105 . S
Sc132 O151 2.105 . S
Sc133 O135 2.025 . S
Sc133 O143 2.105 . S
Sc133 O147 2.105 . S
Sc133 O149 2.105 1_655 S
Sc133 O153 2.105 . S
Sc134 O135 2.025 . S
Sc134 O144 2.105 . S
Sc134 O146 2.105 . S
Sc134 O150 2.105 . S
Sc134 O152 2.105 . S
O135 Sc132 2.025 . S
O135 Sc133 2.025 . S
O135 Sc134 2.025 . S
C136 O142 1.268 . S
C136 O152 1.268 . S
C137 O143 1.268 . S
C137 O151 1.268 . S
C138 O144 1.268 . S
C138 O153 1.268 . S
C139 O145 1.268 1_455 S
C139 O149 1.268 . S
C140 O146 1.268 . S
C140 O148 1.268 . S
C141 O147 1.268 . S
C141 O150 1.268 . S
O142 Sc132 2.105 . S
O142 C136 1.268 . S
O143 Sc133 2.105 . S
O143 C137 1.268 . S
O144 Sc134 2.105 . S
O144 C138 1.268 . S
O145 Sc132 2.105 . S
O145 C139 1.268 1_655 S
O146 Sc134 2.105 . S
O146 C140 1.268 . S
O147 Sc133 2.105 . S
O147 C141 1.268 . S
O148 Sc132 2.105 . S
O148 C140 1.268 . S
O149 Sc133 2.105 1_455 S
O149 C139 1.268 . S
O150 Sc134 2.105 . S
O150 C141 1.268 . S
O151 Sc132 2.105 . S
O151 C137 1.268 . S
O152 Sc134 2.105 . S
O152 C136 1.268 . S
O153 Sc133 2.105 . S
O153 C138 1.268 . S
Sc154 O157 2.025 . S
Sc154 O164 2.105 . S
Sc154 O167 2.105 . S
Sc154 O170 2.105 . S
Sc154 O173 2.105 . S
Sc155 O157 2.025 . S
Sc155 O165 2.105 . S
Sc155 O169 2.105 . S
Sc155 O171 2.105 1_565 S
Sc155 O175 2.105 . S
Sc156 O157 2.025 . S
Sc156 O166 2.105 . S
Sc156 O168 2.105 . S
Sc156 O172 2.105 . S
Sc156 O174 2.105 . S
O157 Sc154 2.025 . S
O157 Sc155 2.025 . S
O157 Sc156 2.025 . S
C158 O164 1.268 . S
C158 O174 1.268 . S
C159 O165 1.268 . S
C159 O173 1.268 . S
C160 O166 1.268 . S
C160 O175 1.268 . S
C161 O167 1.268 1_545 S
C161 O171 1.268 . S
C162 O168 1.268 . S
C162 O170 1.268 . S
C163 O169 1.268 . S
C163 O172 1.268 . S
O164 Sc154 2.105 . S
O164 C158 1.268 . S
O165 Sc155 2.105 . S
O165 C159 1.268 . S
O166 Sc156 2.105 . S
O166 C160 1.268 . S
O167 Sc154 2.105 . S
O167 C161 1.268 1_565 S
O168 Sc156 2.105 . S
O168 C162 1.268 . S
O169 Sc155 2.105 . S
O169 C163 1.268 . S
O170 Sc154 2.105 . S
O170 C162 1.268 . S
O171 Sc155 2.105 1_545 S
O171 C161 1.268 . S
O172 Sc156 2.105 . S
O172 C163 1.268 . S
O173 Sc154 2.105 . S
O173 C159 1.268 . S
O174 Sc156 2.105 . S
O174 C158 1.268 . S
O175 Sc155 2.105 . S
O175 C160 1.268 . S
Sc176 O179 2.025 . S
Sc176 O186 2.105 . S
Sc176 O189 2.105 . S
Sc176 O192 2.105 . S
Sc176 O195 2.105 . S
Sc177 O179 2.025 . S
Sc177 O187 2.105 . S
Sc177 O191 2.105 . S
Sc177 O193 2.105 . S
Sc177 O197 2.105 . S
Sc178 O179 2.025 . S
Sc178 O188 2.105 . S
Sc178 O190 2.105 . S
Sc178 O194 2.105 . S
Sc178 O196 2.105 . S
O179 Sc176 2.025 . S
O179 Sc177 2.025 . S
O179 Sc178 2.025 . S
C180 O186 1.268 . S
C180 O196 1.268 . S
C181 O187 1.268 . S
C181 O195 1.268 . S
C182 O188 1.268 . S
C182 O197 1.268 . S
C183 O189 1.268 . S
C183 O193 1.268 . S
C184 O190 1.268 . S
C184 O192 1.268 . S
C185 O191 1.268 . S
C185 O194 1.268 . S
O186 Sc176 2.105 . S
O186 C180 1.268 . S
O187 Sc177 2.105 . S
O187 C181 1.268 . S
O188 Sc178 2.105 . S
O188 C182 1.268 . S
O189 Sc176 2.105 . S
O189 C183 1.268 . S
O190 Sc178 2.105 . S
O190 C184 1.268 . S
O191 Sc177 2.105 . S
O191 C185 1.268 . S
O192 Sc176 2.105 . S
O192 C184 1.268 . S
O193 Sc177 2.105 . S
O193 C183 1.268 . S
O194 Sc178 2.105 . S
O194 C185 1.268 . S
O195 Sc176 2.105 . S
O195 C181 1.268 . S
O196 Sc178 2.105 . S
O196 C180 1.268 . S
O197 Sc177 2.105 . S
O197 C182 1.268 . S
Sc198 O201 2.025 . S
Sc198 O208 2.105 . S
Sc198 O211 2.105 . S
Sc198 O214 2.105 . S
Sc198 O217 2.105 . S
Sc199 O201 2.025 . S
Sc199 O209 2.105 . S
Sc199 O213 2.105 . S
Sc199 O215 2.105 . S
Sc199 O219 2.105 . S
Sc200 O201 2.025 . S
Sc200 O210 2.105 . S
Sc200 O212 2.105 . S
Sc200 O216 2.105 . S
Sc200 O218 2.105 . S
O201 Sc198 2.025 . S
O201 Sc199 2.025 . S
O201 Sc200 2.025 . S
C202 O208 1.268 . S
C202 O218 1.268 . S
C203 O209 1.268 . S
C203 O217 1.268 . S
C204 O210 1.268 . S
C204 O219 1.268 . S
C205 O211 1.268 . S
C205 O215 1.268 . S
C206 O212 1.268 . S
C206 O214 1.268 . S
C207 O213 1.268 . S
C207 O216 1.268 . S
O208 Sc198 2.105 . S
O208 C202 1.268 . S
O209 Sc199 2.105 . S
O209 C203 1.268 . S
O210 Sc200 2.105 . S
O210 C204 1.268 . S
O211 Sc198 2.105 . S
O211 C205 1.268 . S
O212 Sc200 2.105 . S
O212 C206 1.268 . S
O213 Sc199 2.105 . S
O213 C207 1.268 . S
O214 Sc198 2.105 . S
O214 C206 1.268 . S
O215 Sc199 2.105 . S
O215 C205 1.268 . S
O216 Sc200 2.105 . S
O216 C207 1.268 . S
O217 Sc198 2.105 . S
O217 C203 1.268 . S
O218 Sc200 2.105 . S
O218 C202 1.268 . S
O219 Sc199 2.105 . S
O219 C204 1.268 . S
Sc220 O223 2.025 . S
Sc220 O230 2.105 . S
Sc220 O233 2.105 . S
Sc220 O236 2.105 . S
Sc220 O239 2.105 . S
Sc221 O223 2.025 . S
Sc221 O231 2.105 . S
Sc221 O235 2.105 1_455 S
Sc221 O237 2.105 . S
Sc221 O241 2.105 . S
Sc222 O223 2.025 . S
Sc222 O232 2.105 . S
Sc222 O234 2.105 . S
Sc222 O238 2.105 . S
Sc222 O240 2.105 . S
O223 Sc220 2.025 . S
O223 Sc221 2.025 . S
O223 Sc222 2.025 . S
C224 O230 1.268 . S
C224 O240 1.268 . S
C225 O231 1.268 . S
C225 O239 1.268 . S
C226 O232 1.268 . S
C226 O241 1.268 . S
C227 O233 1.268 . S
C227 O237 1.268 . S
C228 O234 1.268 . S
C228 O236 1.268 . S
C229 O235 1.268 . S
C229 O238 1.268 1_655 S
O230 Sc220 2.105 . S
O230 C224 1.268 . S
O231 Sc221 2.105 . S
O231 C225 1.268 . S
O232 Sc222 2.105 . S
O232 C226 1.268 . S
O233 Sc220 2.105 . S
O233 C227 1.268 . S
O234 Sc222 2.105 . S
O234 C228 1.268 . S
O235 Sc221 2.105 1_655 S
O235 C229 1.268 . S
O236 Sc220 2.105 . S
O236 C228 1.268 . S
O237 Sc221 2.105 . S
O237 C227 1.268 . S
O238 Sc222 2.105 . S
O238 C229 1.268 1_455 S
O239 Sc220 2.105 . S
O239 C225 1.268 . S
O240 Sc222 2.105 . S
O240 C224 1.268 . S
O241 Sc221 2.105 . S
O241 C226 1.268 . S
Sc242 O245 2.025 . S
Sc242 O252 2.105 . S
Sc242 O255 2.105 . S
Sc242 O258 2.105 . S
Sc242 O261 2.105 . S
Sc243 O245 2.025 . S
Sc243 O253 2.105 . S
Sc243 O257 2.105 1_545 S
Sc243 O259 2.105 . S
Sc243 O263 2.105 . S
Sc244 O245 2.025 . S
Sc244 O254 2.105 . S
Sc244 O256 2.105 . S
Sc244 O260 2.105 . S
Sc244 O262 2.105 . S
O245 Sc242 2.025 . S
O245 Sc243 2.025 . S
O245 Sc244 2.025 . S
C246 O252 1.268 . S
C246 O262 1.268 . S
C247 O253 1.268 . S
C247 O261 1.268 . S
C248 O254 1.268 . S
C248 O263 1.268 . S
C249 O255 1.268 . S
C249 O259 1.268 . S
C250 O256 1.268 . S
C250 O258 1.268 . S
C251 O257 1.268 . S
C251 O260 1.268 1_565 S
O252 Sc242 2.105 . S
O252 C246 1.268 . S
O253 Sc243 2.105 . S
O253 C247 1.268 . S
O254 Sc244 2.105 . S
O254 C248 1.268 . S
O255 Sc242 2.105 . S
O255 C249 1.268 . S
O256 Sc244 2.105 . S
O256 C250 1.268 . S
O257 Sc243 2.105 1_565 S
O257 C251 1.268 . S
O258 Sc242 2.105 . S
O258 C250 1.268 . S
O259 Sc243 2.105 . S
O259 C249 1.268 . S
O260 Sc244 2.105 . S
O260 C251 1.268 1_545 S
O261 Sc242 2.105 . S
O261 C247 1.268 . S
O262 Sc244 2.105 . S
O262 C246 1.268 . S
O263 Sc243 2.105 . S
O263 C248 1.268 . S
Sc264 O267 2.025 . S
Sc264 O274 2.105 . S
Sc264 O277 2.105 . S
Sc264 O280 2.105 . S
Sc264 O283 2.105 . S
Sc265 O267 2.025 . S
Sc265 O275 2.105 . S
Sc265 O279 2.105 . S
Sc265 O281 2.105 . S
Sc265 O285 2.105 . S
Sc266 O267 2.025 . S
Sc266 O276 2.105 . S
Sc266 O278 2.105 . S
Sc266 O282 2.105 . S
Sc266 O284 2.105 . S
O267 Sc264 2.025 . S
O267 Sc265 2.025 . S
O267 Sc266 2.025 . S
C268 O274 1.268 . S
C268 O284 1.268 . S
C269 O275 1.268 . S
C269 O283 1.268 . S
C270 O276 1.268 . S
C270 O285 1.268 . S
C271 O277 1.268 . S
C271 O281 1.268 . S
C272 O278 1.268 . S
C272 O280 1.268 . S
C273 O279 1.268 . S
C273 O282 1.268 . S
O274 Sc264 2.105 . S
O274 C268 1.268 . S
O275 Sc265 2.105 . S
O275 C269 1.268 . S
O276 Sc266 2.105 . S
O276 C270 1.268 . S
O277 Sc264 2.105 . S
O277 C271 1.268 . S
O278 Sc266 2.105 . S
O278 C272 1.268 . S
O279 Sc265 2.105 . S
O279 C273 1.268 . S
O280 Sc264 2.105 . S
O280 C272 1.268 . S
O281 Sc265 2.105 . S
O281 C271 1.268 . S
O282 Sc266 2.105 . S
O282 C273 1.268 . S
O283 Sc264 2.105 . S
O283 C269 1.268 . S
O284 Sc266 2.105 . S
O284 C268 1.268 . S
O285 Sc265 2.105 . S
O285 C270 1.268 . S
Sc286 O289 2.025 . S
Sc286 O296 2.105 . S
Sc286 O299 2.105 . S
Sc286 O302 2.105 . S
Sc286 O305 2.105 . S
Sc287 O289 2.025 . S
Sc287 O297 2.105 . S
Sc287 O301 2.105 . S
Sc287 O303 2.105 . S
Sc287 O307 2.105 . S
Sc288 O289 2.025 . S
Sc288 O298 2.105 . S
Sc288 O300 2.105 . S
Sc288 O304 2.105 . S
Sc288 O306 2.105 . S
O289 Sc286 2.025 . S
O289 Sc287 2.025 . S
O289 Sc288 2.025 . S
C290 O296 1.268 . S
C290 O306 1.268 . S
C291 O297 1.268 . S
C291 O305 1.268 . S
C292 O298 1.268 . S
C292 O307 1.268 . S
C293 O299 1.268 . S
C293 O303 1.268 . S
C294 O300 1.268 . S
C294 O302 1.268 . S
C295 O301 1.268 . S
C295 O304 1.268 . S
O296 Sc286 2.105 . S
O296 C290 1.268 . S
O297 Sc287 2.105 . S
O297 C291 1.268 . S
O298 Sc288 2.105 . S
O298 C292 1.268 . S
O299 Sc286 2.105 . S
O299 C293 1.268 . S
O300 Sc288 2.105 . S
O300 C294 1.268 . S
O301 Sc287 2.105 . S
O301 C295 1.268 . S
O302 Sc286 2.105 . S
O302 C294 1.268 . S
O303 Sc287 2.105 . S
O303 C293 1.268 . S
O304 Sc288 2.105 . S
O304 C295 1.268 . S
O305 Sc286 2.105 . S
O305 C291 1.268 . S
O306 Sc288 2.105 . S
O306 C290 1.268 . S
O307 Sc287 2.105 . S
O307 C292 1.268 . S
Sc308 O311 2.025 . S
Sc308 O318 2.105 . S
Sc308 O321 2.105 . S
Sc308 O324 2.105 . S
Sc308 O327 2.105 . S
Sc309 O311 2.025 . S
Sc309 O319 2.105 1_455 S
Sc309 O323 2.105 . S
Sc309 O325 2.105 . S
Sc309 O329 2.105 . S
Sc310 O311 2.025 . S
Sc310 O320 2.105 . S
Sc310 O322 2.105 . S
Sc310 O326 2.105 . S
Sc310 O328 2.105 . S
O311 Sc308 2.025 . S
O311 Sc309 2.025 . S
O311 Sc310 2.025 . S
C312 O318 1.268 . S
C312 O328 1.268 . S
C313 O319 1.268 . S
C313 O327 1.268 1_655 S
C314 O320 1.268 . S
C314 O329 1.268 . S
C315 O321 1.268 . S
C315 O325 1.268 . S
C316 O322 1.268 . S
C316 O324 1.268 . S
C317 O323 1.268 . S
C317 O326 1.268 . S
O318 Sc308 2.105 . S
O318 C312 1.268 . S
O319 Sc309 2.105 1_655 S
O319 C313 1.268 . S
O320 Sc310 2.105 . S
O320 C314 1.268 . S
O321 Sc308 2.105 . S
O321 C315 1.268 . S
O322 Sc310 2.105 . S
O322 C316 1.268 . S
O323 Sc309 2.105 . S
O323 C317 1.268 . S
O324 Sc308 2.105 . S
O324 C316 1.268 . S
O325 Sc309 2.105 . S
O325 C315 1.268 . S
O326 Sc310 2.105 . S
O326 C317 1.268 . S
O327 Sc308 2.105 . S
O327 C313 1.268 1_455 S
O328 Sc310 2.105 . S
O328 C312 1.268 . S
O329 Sc309 2.105 . S
O329 C314 1.268 . S
Sc330 O333 2.025 . S
Sc330 O340 2.105 . S
Sc330 O343 2.105 . S
Sc330 O346 2.105 . S
Sc330 O349 2.105 . S
Sc331 O333 2.025 . S
Sc331 O341 2.105 1_545 S
Sc331 O345 2.105 . S
Sc331 O347 2.105 . S
Sc331 O351 2.105 . S
Sc332 O333 2.025 . S
Sc332 O342 2.105 . S
Sc332 O344 2.105 . S
Sc332 O348 2.105 . S
Sc332 O350 2.105 . S
O333 Sc330 2.025 . S
O333 Sc331 2.025 . S
O333 Sc332 2.025 . S
C334 O340 1.268 . S
C334 O350 1.268 . S
C335 O341 1.268 . S
C335 O349 1.268 1_565 S
C336 O342 1.268 . S
C336 O351 1.268 . S
C337 O343 1.268 . S
C337 O347 1.268 . S
C338 O344 1.268 . S
C338 O346 1.268 . S
C339 O345 1.268 . S
C339 O348 1.268 . S
O340 Sc330 2.105 . S
O340 C334 1.268 . S
O341 Sc331 2.105 1_565 S
O341 C335 1.268 . S
O342 Sc332 2.105 . S
O342 C336 1.268 . S
O343 Sc330 2.105 . S
O343 C337 1.268 . S
O344 Sc332 2.105 . S
O344 C338 1.268 . S
O345 Sc331 2.105 . S
O345 C339 1.268 . S
O346 Sc330 2.105 . S
O346 C338 1.268 . S
O347 Sc331 2.105 . S
O347 C337 1.268 . S
O348 Sc332 2.105 . S
O348 C339 1.268 . S
O349 Sc330 2.105 . S
O349 C335 1.268 1_545 S
O350 Sc332 2.105 . S
O350 C334 1.268 . S
O351 Sc331 2.105 . S
O351 C336 1.268 . S
H352 C358 0.930 . S
H353 C361 0.930 . S
H354 C362 0.930 . S
H355 C363 0.930 . S
H356 C366 0.930 . S
H357 C367 0.930 . S
C358 H352 0.930 . S
C358 C359 1.355 . S
C358 C360 1.415 . S
C359 C358 1.355 . S
C359 C361 1.419 . S
C360 C358 1.415 . S
C360 C365 1.425 . S
C360 C367 1.409 . S
C361 H353 0.930 . S
C361 C359 1.419 . S
C361 C362 1.362 . S
C362 H354 0.930 . S
C362 C361 1.362 . S
C362 C365 1.409 . S
C363 H355 0.930 . S
C363 C364 1.355 . S
C363 C365 1.415 . S
C364 C363 1.355 . S
C364 C366 1.419 . S
C365 C360 1.425 . S
C365 C362 1.409 . S
C365 C363 1.415 . S
C366 H356 0.930 . S
C366 C364 1.419 . S
C366 C367 1.362 . S
C367 H357 0.930 . S
C367 C360 1.409 . S
C367 C366 1.362 . S
H368 C374 0.930 . S
H369 C377 0.930 . S
H370 C378 0.930 . S
H371 C379 0.930 . S
H372 C382 0.930 . S
H373 C383 0.930 . S
C374 H368 0.930 . S
C374 C375 1.355 . S
C374 C376 1.415 . S
C375 C374 1.355 . S
C375 C377 1.419 . S
C376 C374 1.415 . S
C376 C381 1.425 . S
C376 C383 1.409 . S
C377 H369 0.930 . S
C377 C375 1.419 . S
C377 C378 1.362 . S
C378 H370 0.930 . S
C378 C377 1.362 . S
C378 C381 1.409 . S
C379 H371 0.930 . S
C379 C380 1.355 . S
C379 C381 1.415 . S
C380 C379 1.355 . S
C380 C382 1.419 . S
C381 C376 1.425 . S
C381 C378 1.409 . S
C381 C379 1.415 . S
C382 H372 0.930 . S
C382 C380 1.419 . S
C382 C383 1.362 . S
C383 H373 0.930 . S
C383 C376 1.409 . S
C383 C382 1.362 . S
H384 C390 0.930 . S
H385 C393 0.930 . S
H386 C394 0.930 . S
H387 C395 0.930 . S
H388 C398 0.930 . S
H389 C399 0.930 . S
C390 H384 0.930 . S
C390 C391 1.355 . S
C390 C392 1.415 . S
C391 C390 1.355 . S
C391 C393 1.419 . S
C392 C390 1.415 . S
C392 C397 1.425 . S
C392 C399 1.409 . S
C393 H385 0.930 . S
C393 C391 1.419 . S
C393 C394 1.362 . S
C394 H386 0.930 . S
C394 C393 1.362 . S
C394 C397 1.409 . S
C395 H387 0.930 . S
C395 C396 1.355 . S
C395 C397 1.415 . S
C396 C395 1.355 . S
C396 C398 1.419 . S
C397 C392 1.425 . S
C397 C394 1.409 . S
C397 C395 1.415 . S
C398 H388 0.930 . S
C398 C396 1.419 . S
C398 C399 1.362 . S
C399 H389 0.930 . S
C399 C392 1.409 . S
C399 C398 1.362 . S
H400 C406 0.930 . S
H401 C409 0.930 . S
H402 C410 0.930 . S
H403 C411 0.930 . S
H404 C414 0.930 . S
H405 C415 0.930 . S
C406 H400 0.930 . S
C406 C407 1.355 . S
C406 C408 1.415 . S
C407 C406 1.355 . S
C407 C409 1.419 . S
C408 C406 1.415 . S
C408 C413 1.425 . S
C408 C415 1.409 . S
C409 H401 0.930 . S
C409 C407 1.419 . S
C409 C410 1.362 . S
C410 H402 0.930 . S
C410 C409 1.362 . S
C410 C413 1.409 . S
C411 H403 0.930 . S
C411 C412 1.355 . S
C411 C413 1.415 . S
C412 C411 1.355 . S
C412 C414 1.419 . S
C413 C408 1.425 . S
C413 C410 1.409 . S
C413 C411 1.415 . S
C414 H404 0.930 . S
C414 C412 1.419 . S
C414 C415 1.362 . S
C415 H405 0.930 . S
C415 C408 1.409 . S
C415 C414 1.362 . S
H416 C422 0.930 . S
H417 C425 0.930 . S
H418 C426 0.930 . S
H419 C427 0.930 . S
H420 C430 0.930 . S
H421 C431 0.930 . S
C422 H416 0.930 . S
C422 C423 1.355 . S
C422 C424 1.415 . S
C423 C422 1.355 . S
C423 C425 1.419 . S
C424 C422 1.415 . S
C424 C429 1.425 . S
C424 C431 1.409 . S
C425 H417 0.930 . S
C425 C423 1.419 . S
C425 C426 1.362 . S
C426 H418 0.930 . S
C426 C425 1.362 . S
C426 C429 1.409 . S
C427 H419 0.930 . S
C427 C428 1.355 . S
C427 C429 1.415 . S
C428 C427 1.355 . S
C428 C430 1.419 . S
C429 C424 1.425 . S
C429 C426 1.409 . S
C429 C427 1.415 . S
C430 H420 0.930 . S
C430 C428 1.419 . S
C430 C431 1.362 . S
C431 H421 0.930 . S
C431 C424 1.409 . S
C431 C430 1.362 . S
H432 C438 0.930 . S
H433 C441 0.930 . S
H434 C442 0.930 . S
H435 C443 0.930 . S
H436 C446 0.930 . S
H437 C447 0.930 . S
C438 H432 0.930 . S
C438 C439 1.355 . S
C438 C440 1.415 . S
C439 C438 1.355 . S
C439 C441 1.419 . S
C440 C438 1.415 . S
C440 C445 1.425 . S
C440 C447 1.409 . S
C441 H433 0.930 . S
C441 C439 1.419 . S
C441 C442 1.362 . S
C442 H434 0.930 . S
C442 C441 1.362 . S
C442 C445 1.409 . S
C443 H435 0.930 . S
C443 C444 1.355 . S
C443 C445 1.415 . S
C444 C443 1.355 . S
C444 C446 1.419 . S
C445 C440 1.425 . S
C445 C442 1.409 . S
C445 C443 1.415 . S
C446 H436 0.930 . S
C446 C444 1.419 . S
C446 C447 1.362 . S
C447 H437 0.930 . S
C447 C440 1.409 . S
C447 C446 1.362 . S
H448 C454 0.930 . S
H449 C457 0.930 . S
H450 C458 0.930 . S
H451 C459 0.930 . S
H452 C462 0.930 . S
H453 C463 0.930 . S
C454 H448 0.930 . S
C454 C455 1.355 . S
C454 C456 1.415 . S
C455 C454 1.355 . S
C455 C457 1.419 . S
C456 C454 1.415 . S
C456 C461 1.425 . S
C456 C463 1.409 . S
C457 H449 0.930 . S
C457 C455 1.419 . S
C457 C458 1.362 . S
C458 H450 0.930 . S
C458 C457 1.362 . S
C458 C461 1.409 . S
C459 H451 0.930 . S
C459 C460 1.355 . S
C459 C461 1.415 . S
C460 C459 1.355 . S
C460 C462 1.419 . S
C461 C456 1.425 . S
C461 C458 1.409 . S
C461 C459 1.415 . S
C462 H452 0.930 . S
C462 C460 1.419 . S
C462 C463 1.362 . S
C463 H453 0.930 . S
C463 C456 1.409 . S
C463 C462 1.362 . S
H464 C470 0.930 . S
H465 C473 0.930 . S
H466 C474 0.930 . S
H467 C475 0.930 . S
H468 C478 0.930 . S
H469 C479 0.930 . S
C470 H464 0.930 . S
C470 C471 1.355 . S
C470 C472 1.415 . S
C471 C470 1.355 . S
C471 C473 1.419 . S
C472 C470 1.415 . S
C472 C477 1.425 . S
C472 C479 1.409 . S
C473 H465 0.930 . S
C473 C471 1.419 . S
C473 C474 1.362 . S
C474 H466 0.930 . S
C474 C473 1.362 . S
C474 C477 1.409 . S
C475 H467 0.930 . S
C475 C476 1.355 . S
C475 C477 1.415 . S
C476 C475 1.355 . S
C476 C478 1.419 . S
C477 C472 1.425 . S
C477 C474 1.409 . S
C477 C475 1.415 . S
C478 H468 0.930 . S
C478 C476 1.419 . S
C478 C479 1.362 . S
C479 H469 0.930 . S
C479 C472 1.409 . S
C479 C478 1.362 . S
H480 C486 0.930 . S
H481 C489 0.930 . S
H482 C490 0.930 . S
H483 C491 0.930 . S
H484 C494 0.930 . S
H485 C495 0.930 . S
C486 H480 0.930 . S
C486 C487 1.355 . S
C486 C488 1.415 . S
C487 C486 1.355 . S
C487 C489 1.419 . S
C488 C486 1.415 . S
C488 C493 1.425 . S
C488 C495 1.409 . S
C489 H481 0.930 . S
C489 C487 1.419 . S
C489 C490 1.362 . S
C490 H482 0.930 . S
C490 C489 1.362 . S
C490 C493 1.409 . S
C491 H483 0.930 . S
C491 C492 1.355 . S
C491 C493 1.415 . S
C492 C491 1.355 . S
C492 C494 1.419 . S
C493 C488 1.425 . S
C493 C490 1.409 . S
C493 C491 1.415 . S
C494 H484 0.930 . S
C494 C492 1.419 . S
C494 C495 1.362 . S
C495 H485 0.930 . S
C495 C488 1.409 . S
C495 C494 1.362 . S
H496 C502 0.930 . S
H497 C505 0.930 . S
H498 C506 0.930 . S
H499 C507 0.930 . S
H500 C510 0.930 . S
H501 C511 0.930 . S
C502 H496 0.930 . S
C502 C503 1.355 . S
C502 C504 1.415 . S
C503 C502 1.355 . S
C503 C505 1.419 . S
C504 C502 1.415 . S
C504 C509 1.425 . S
C504 C511 1.409 . S
C505 H497 0.930 . S
C505 C503 1.419 . S
C505 C506 1.362 . S
C506 H498 0.930 . S
C506 C505 1.362 . S
C506 C509 1.409 . S
C507 H499 0.930 . S
C507 C508 1.355 . S
C507 C509 1.415 . S
C508 C507 1.355 . S
C508 C510 1.419 . S
C509 C504 1.425 . S
C509 C506 1.409 . S
C509 C507 1.415 . S
C510 H500 0.930 . S
C510 C508 1.419 . S
C510 C511 1.362 . S
C511 H501 0.930 . S
C511 C504 1.409 . S
C511 C510 1.362 . S
H512 C518 0.930 . S
H513 C521 0.930 . S
H514 C522 0.930 . S
H515 C523 0.930 . S
H516 C526 0.930 . S
H517 C527 0.930 . S
C518 H512 0.930 . S
C518 C519 1.355 . S
C518 C520 1.415 . S
C519 C518 1.355 . S
C519 C521 1.419 . S
C520 C518 1.415 . S
C520 C525 1.425 . S
C520 C527 1.409 . S
C521 H513 0.930 . S
C521 C519 1.419 . S
C521 C522 1.362 . S
C522 H514 0.930 . S
C522 C521 1.362 . S
C522 C525 1.409 . S
C523 H515 0.930 . S
C523 C524 1.355 . S
C523 C525 1.415 . S
C524 C523 1.355 . S
C524 C526 1.419 . S
C525 C520 1.425 . S
C525 C522 1.409 . S
C525 C523 1.415 . S
C526 H516 0.930 . S
C526 C524 1.419 . S
C526 C527 1.362 . S
C527 H517 0.930 . S
C527 C520 1.409 . S
C527 C526 1.362 . S
H528 C534 0.930 . S
H529 C537 0.930 . S
H530 C538 0.930 . S
H531 C539 0.930 . S
H532 C542 0.930 . S
H533 C543 0.930 . S
C534 H528 0.930 . S
C534 C535 1.355 . S
C534 C536 1.415 . S
C535 C534 1.355 . S
C535 C537 1.419 . S
C536 C534 1.415 . S
C536 C541 1.425 . S
C536 C543 1.409 . S
C537 H529 0.930 . S
C537 C535 1.419 . S
C537 C538 1.362 . S
C538 H530 0.930 . S
C538 C537 1.362 . S
C538 C541 1.409 . S
C539 H531 0.930 . S
C539 C540 1.355 . S
C539 C541 1.415 . S
C540 C539 1.355 . S
C540 C542 1.419 . S
C541 C536 1.425 . S
C541 C538 1.409 . S
C541 C539 1.415 . S
C542 H532 0.930 . S
C542 C540 1.419 . S
C542 C543 1.362 . S
C543 H533 0.930 . S
C543 C536 1.409 . S
C543 C542 1.362 . S
H544 C550 0.930 . S
H545 C553 0.930 . S
H546 C554 0.930 . S
H547 C555 0.930 . S
H548 C558 0.930 . S
H549 C559 0.930 . S
C550 H544 0.930 . S
C550 C551 1.355 . S
C550 C552 1.415 . S
C551 C550 1.355 . S
C551 C553 1.419 . S
C552 C550 1.415 . S
C552 C557 1.425 . S
C552 C559 1.409 . S
C553 H545 0.930 . S
C553 C551 1.419 . S
C553 C554 1.362 . S
C554 H546 0.930 . S
C554 C553 1.362 . S
C554 C557 1.409 . S
C555 H547 0.930 . S
C555 C556 1.355 . S
C555 C557 1.415 . S
C556 C555 1.355 . S
C556 C558 1.419 . S
C557 C552 1.425 . S
C557 C554 1.409 . S
C557 C555 1.415 . S
C558 H548 0.930 . S
C558 C556 1.419 . S
C558 C559 1.362 . S
C559 H549 0.930 . S
C559 C552 1.409 . S
C559 C558 1.362 . S
H560 C566 0.930 . S
H561 C569 0.930 . S
H562 C570 0.930 . S
H563 C571 0.930 . S
H564 C574 0.930 . S
H565 C575 0.930 . S
C566 H560 0.930 . S
C566 C567 1.355 . S
C566 C568 1.415 . S
C567 C566 1.355 . S
C567 C569 1.419 . S
C568 C566 1.415 . S
C568 C573 1.425 . S
C568 C575 1.409 . S
C569 H561 0.930 . S
C569 C567 1.419 . S
C569 C570 1.362 . S
C570 H562 0.930 . S
C570 C569 1.362 . S
C570 C573 1.409 . S
C571 H563 0.930 . S
C571 C572 1.355 . S
C571 C573 1.415 . S
C572 C571 1.355 . S
C572 C574 1.419 . S
C573 C568 1.425 . S
C573 C570 1.409 . S
C573 C571 1.415 . S
C574 H564 0.930 . S
C574 C572 1.419 . S
C574 C575 1.362 . S
C575 H565 0.930 . S
C575 C568 1.409 . S
C575 C574 1.362 . S
H576 C582 0.930 . S
H577 C585 0.930 . S
H578 C586 0.930 . S
H579 C587 0.930 . S
H580 C590 0.930 . S
H581 C591 0.930 . S
C582 H576 0.930 . S
C582 C583 1.355 . S
C582 C584 1.415 . S
C583 C582 1.355 . S
C583 C585 1.419 . S
C584 C582 1.415 . S
C584 C589 1.425 . S
C584 C591 1.409 . S
C585 H577 0.930 . S
C585 C583 1.419 . S
C585 C586 1.362 . S
C586 H578 0.930 . S
C586 C585 1.362 . S
C586 C589 1.409 . S
C587 H579 0.930 . S
C587 C588 1.355 . S
C587 C589 1.415 . S
C588 C587 1.355 . S
C588 C590 1.419 . S
C589 C584 1.425 . S
C589 C586 1.409 . S
C589 C587 1.415 . S
C590 H580 0.930 . S
C590 C588 1.419 . S
C590 C591 1.362 . S
C591 H581 0.930 . S
C591 C584 1.409 . S
C591 C590 1.362 . S
H592 C598 0.930 . S
H593 C601 0.930 . S
H594 C602 0.930 . S
H595 C603 0.930 . S
H596 C606 0.930 . S
H597 C607 0.930 . S
C598 H592 0.930 . S
C598 C599 1.355 . S
C598 C600 1.415 . S
C599 C598 1.355 . S
C599 C601 1.419 . S
C600 C598 1.415 . S
C600 C605 1.425 . S
C600 C607 1.409 . S
C601 H593 0.930 . S
C601 C599 1.419 . S
C601 C602 1.362 . S
C602 H594 0.930 . S
C602 C601 1.362 . S
C602 C605 1.409 . S
C603 H595 0.930 . S
C603 C604 1.355 . S
C603 C605 1.415 . S
C604 C603 1.355 . S
C604 C606 1.419 . S
C605 C600 1.425 . S
C605 C602 1.409 . S
C605 C603 1.415 . S
C606 H596 0.930 . S
C606 C604 1.419 . S
C606 C607 1.362 . S
C607 H597 0.930 . S
C607 C600 1.409 . S
C607 C606 1.362 . S
H608 C614 0.930 . S
H609 C617 0.930 1_554 S
H610 C618 0.930 . S
H611 C619 0.930 . S
H612 C622 0.930 . S
H613 C623 0.930 . S
C614 H608 0.930 . S
C614 C615 1.355 . S
C614 C616 1.415 1_554 S
C615 C614 1.355 . S
C615 C617 1.419 1_554 S
C616 C614 1.415 1_556 S
C616 C621 1.425 . S
C616 C623 1.409 . S
C617 H609 0.930 1_556 S
C617 C615 1.419 1_556 S
C617 C618 1.362 . S
C618 H610 0.930 . S
C618 C617 1.362 . S
C618 C621 1.409 . S
C619 H611 0.930 . S
C619 C620 1.355 . S
C619 C621 1.415 . S
C620 C619 1.355 . S
C620 C622 1.419 . S
C621 C616 1.425 . S
C621 C618 1.409 . S
C621 C619 1.415 . S
C622 H612 0.930 . S
C622 C620 1.419 . S
C622 C623 1.362 . S
C623 H613 0.930 . S
C623 C616 1.409 . S
C623 C622 1.362 . S
H624 C630 0.930 . S
H625 C633 0.930 . S
H626 C634 0.930 . S
H627 C635 0.930 . S
H628 C638 0.930 . S
H629 C639 0.930 . S
C630 H624 0.930 . S
C630 C631 1.355 . S
C630 C632 1.415 . S
C631 C630 1.355 . S
C631 C633 1.419 . S
C632 C630 1.415 . S
C632 C637 1.425 . S
C632 C639 1.409 . S
C633 H625 0.930 . S
C633 C631 1.419 . S
C633 C634 1.362 . S
C634 H626 0.930 . S
C634 C633 1.362 . S
C634 C637 1.409 . S
C635 H627 0.930 . S
C635 C636 1.355 . S
C635 C637 1.415 . S
C636 C635 1.355 . S
C636 C638 1.419 . S
C637 C632 1.425 . S
C637 C634 1.409 . S
C637 C635 1.415 . S
C638 H628 0.930 . S
C638 C636 1.419 . S
C638 C639 1.362 . S
C639 H629 0.930 . S
C639 C632 1.409 . S
C639 C638 1.362 . S
H640 C646 0.930 . S
H641 C649 0.930 . S
H642 C650 0.930 . S
H643 C651 0.930 . S
H644 C654 0.930 . S
H645 C655 0.930 . S
C646 H640 0.930 . S
C646 C647 1.355 1_556 S
C646 C648 1.415 . S
C647 C646 1.355 1_554 S
C647 C649 1.419 . S
C648 C646 1.415 . S
C648 C653 1.425 . S
C648 C655 1.409 . S
C649 H641 0.930 . S
C649 C647 1.419 . S
C649 C650 1.362 . S
C650 H642 0.930 . S
C650 C649 1.362 . S
C650 C653 1.409 1_554 S
C651 H643 0.930 . S
C651 C652 1.355 . S
C651 C653 1.415 . S
C652 C651 1.355 . S
C652 C654 1.419 . S
C653 C648 1.425 . S
C653 C650 1.409 1_556 S
C653 C651 1.415 . S
C654 H644 0.930 . S
C654 C652 1.419 . S
C654 C655 1.362 . S
C655 H645 0.930 . S
C655 C648 1.409 . S
C655 C654 1.362 . S
H656 C662 0.930 . S
H657 C665 0.930 . S
H658 C666 0.930 . S
H659 C667 0.930 . S
H660 C670 0.930 . S
H661 C671 0.930 . S
C662 H656 0.930 . S
C662 C663 1.355 . S
C662 C664 1.415 . S
C663 C662 1.355 . S
C663 C665 1.419 . S
C664 C662 1.415 . S
C664 C669 1.425 . S
C664 C671 1.409 . S
C665 H657 0.930 . S
C665 C663 1.419 . S
C665 C666 1.362 . S
C666 H658 0.930 . S
C666 C665 1.362 . S
C666 C669 1.409 . S
C667 H659 0.930 . S
C667 C668 1.355 . S
C667 C669 1.415 . S
C668 C667 1.355 . S
C668 C670 1.419 . S
C669 C664 1.425 . S
C669 C666 1.409 . S
C669 C667 1.415 . S
C670 H660 0.930 . S
C670 C668 1.419 . S
C670 C671 1.362 . S
C671 H661 0.930 . S
C671 C664 1.409 . S
C671 C670 1.362 . S
H672 C678 0.930 . S
H673 C681 0.930 1_556 S
H674 C682 0.930 . S
H675 C683 0.930 . S
H676 C686 0.930 . S
H677 C687 0.930 . S
C678 H672 0.930 . S
C678 C679 1.355 . S
C678 C680 1.415 1_556 S
C679 C678 1.355 . S
C679 C681 1.419 1_556 S
C680 C678 1.415 1_554 S
C680 C685 1.425 . S
C680 C687 1.409 . S
C681 H673 0.930 1_554 S
C681 C679 1.419 1_554 S
C681 C682 1.362 . S
C682 H674 0.930 . S
C682 C681 1.362 . S
C682 C685 1.409 . S
C683 H675 0.930 . S
C683 C684 1.355 . S
C683 C685 1.415 . S
C684 C683 1.355 . S
C684 C686 1.419 . S
C685 C680 1.425 . S
C685 C682 1.409 . S
C685 C683 1.415 . S
C686 H676 0.930 . S
C686 C684 1.419 . S
C686 C687 1.362 . S
C687 H677 0.930 . S
C687 C680 1.409 . S
C687 C686 1.362 . S
H688 C694 0.930 . S
H689 C697 0.930 . S
H690 C698 0.930 . S
H691 C699 0.930 . S
H692 C702 0.930 . S
H693 C703 0.930 . S
C694 H688 0.930 . S
C694 C695 1.355 . S
C694 C696 1.415 . S
C695 C694 1.355 . S
C695 C697 1.419 . S
C696 C694 1.415 . S
C696 C701 1.425 . S
C696 C703 1.409 . S
C697 H689 0.930 . S
C697 C695 1.419 . S
C697 C698 1.362 . S
C698 H690 0.930 . S
C698 C697 1.362 . S
C698 C701 1.409 . S
C699 H691 0.930 . S
C699 C700 1.355 . S
C699 C701 1.415 . S
C700 C699 1.355 . S
C700 C702 1.419 . S
C701 C696 1.425 . S
C701 C698 1.409 . S
C701 C699 1.415 . S
C702 H692 0.930 . S
C702 C700 1.419 . S
C702 C703 1.362 . S
C703 H693 0.930 . S
C703 C696 1.409 . S
C703 C702 1.362 . S
H704 C710 0.930 . S
H705 C713 0.930 . S
H706 C714 0.930 . S
H707 C715 0.930 . S
H708 C718 0.930 . S
H709 C719 0.930 . S
C710 H704 0.930 . S
C710 C711 1.355 . S
C710 C712 1.415 1_556 S
C711 C710 1.355 . S
C711 C713 1.419 . S
C712 C710 1.415 1_554 S
C712 C717 1.425 . S
C712 C719 1.409 . S
C713 H705 0.930 . S
C713 C711 1.419 . S
C713 C714 1.362 1_556 S
C714 H706 0.930 . S
C714 C713 1.362 1_554 S
C714 C717 1.409 . S
C715 H707 0.930 . S
C715 C716 1.355 . S
C715 C717 1.415 . S
C716 C715 1.355 . S
C716 C718 1.419 . S
C717 C712 1.425 . S
C717 C714 1.409 . S
C717 C715 1.415 . S
C718 H708 0.930 . S
C718 C716 1.419 . S
C718 C719 1.362 . S
C719 H709 0.930 . S
C719 C712 1.409 . S
C719 C718 1.362 . S
H720 C726 0.930 . S
H721 C729 0.930 . S
H722 C730 0.930 . S
H723 C731 0.930 . S
H724 C734 0.930 . S
H725 C735 0.930 . S
C726 H720 0.930 . S
C726 C727 1.355 . S
C726 C728 1.415 . S
C727 C726 1.355 . S
C727 C729 1.419 . S
C728 C726 1.415 . S
C728 C733 1.425 . S
C728 C735 1.409 . S
C729 H721 0.930 . S
C729 C727 1.419 . S
C729 C730 1.362 . S
C730 H722 0.930 . S
C730 C729 1.362 . S
C730 C733 1.409 . S
C731 H723 0.930 . S
C731 C732 1.355 . S
C731 C733 1.415 . S
C732 C731 1.355 . S
C732 C734 1.419 . S
C733 C728 1.425 . S
C733 C730 1.409 . S
C733 C731 1.415 . S
C734 H724 0.930 . S
C734 C732 1.419 . S
C734 C735 1.362 . S
C735 H725 0.930 . S
C735 C728 1.409 . S
C735 C734 1.362 . S
H736 C742 0.930 . S
H737 C745 0.931 . S
H738 C746 0.930 . S
H739 C747 0.930 . S
H740 C750 0.930 . S
H741 C751 0.930 . S
C742 H736 0.930 . S
C742 C743 1.355 . S
C742 C744 1.415 1_556 S
C743 C742 1.355 . S
C743 C745 1.422 . S
C744 C742 1.415 1_554 S
C744 C749 1.425 . S
C744 C751 1.409 . S
C745 H737 0.931 . S
C745 C743 1.422 . S
C745 C746 1.358 1_556 S
C746 H738 0.930 . S
C746 C745 1.358 1_554 S
C746 C749 1.409 . S
C747 H739 0.930 . S
C747 C748 1.355 . S
C747 C749 1.415 . S
C748 C747 1.355 . S
C748 C750 1.419 . S
C749 C744 1.425 . S
C749 C746 1.409 . S
C749 C747 1.415 . S
C750 H740 0.930 . S
C750 C748 1.419 . S
C750 C751 1.362 . S
C751 H741 0.930 . S
C751 C744 1.409 . S
C751 C750 1.362 . S
H752 C758 0.930 . S
H753 C761 0.930 . S
H754 C762 0.930 . S
H755 C763 0.930 . S
H756 C766 0.930 . S
H757 C767 0.930 . S
C758 H752 0.930 . S
C758 C759 1.355 . S
C758 C760 1.415 . S
C759 C758 1.355 . S
C759 C761 1.419 . S
C760 C758 1.415 . S
C760 C765 1.425 . S
C760 C767 1.409 . S
C761 H753 0.930 . S
C761 C759 1.419 . S
C761 C762 1.362 . S
C762 H754 0.930 . S
C762 C761 1.362 . S
C762 C765 1.409 . S
C763 H755 0.930 . S
C763 C764 1.355 . S
C763 C765 1.415 . S
C764 C763 1.355 . S
C764 C766 1.419 . S
C765 C760 1.425 . S
C765 C762 1.409 . S
C765 C763 1.415 . S
C766 H756 0.930 . S
C766 C764 1.419 . S
C766 C767 1.362 . S
C767 H757 0.930 . S
C767 C760 1.409 . S
C767 C766 1.362 . S
H768 C774 0.930 . S
H769 C777 0.930 . S
H770 C778 0.930 . S
H771 C779 0.930 . S
H772 C782 0.930 . S
H773 C783 0.930 . S
C774 H768 0.930 . S
C774 C775 1.355 . S
C774 C776 1.415 1_556 S
C775 C774 1.355 . S
C775 C777 1.419 1_556 S
C776 C774 1.415 1_554 S
C776 C781 1.425 . S
C776 C783 1.409 . S
C777 H769 0.930 . S
C777 C775 1.419 1_554 S
C777 C778 1.362 . S
C778 H770 0.930 . S
C778 C777 1.362 . S
C778 C781 1.409 . S
C779 H771 0.930 . S
C779 C780 1.355 . S
C779 C781 1.415 . S
C780 C779 1.355 . S
C780 C782 1.419 . S
C781 C776 1.425 . S
C781 C778 1.409 . S
C781 C779 1.415 . S
C782 H772 0.930 . S
C782 C780 1.419 . S
C782 C783 1.362 . S
C783 H773 0.930 . S
C783 C776 1.409 . S
C783 C782 1.362 . S
H784 C790 0.930 . S
H785 C793 0.930 . S
H786 C794 0.930 . S
H787 C795 0.930 . S
H788 C798 0.930 . S
H789 C799 0.930 . S
C790 H784 0.930 . S
C790 C791 1.355 . S
C790 C792 1.415 . S
C791 C790 1.355 . S
C791 C793 1.419 . S
C792 C790 1.415 . S
C792 C797 1.425 . S
C792 C799 1.409 . S
C793 H785 0.930 . S
C793 C791 1.419 . S
C793 C794 1.362 . S
C794 H786 0.930 . S
C794 C793 1.362 . S
C794 C797 1.409 . S
C795 H787 0.930 . S
C795 C796 1.355 . S
C795 C797 1.415 . S
C796 C795 1.355 . S
C796 C798 1.419 . S
C797 C792 1.425 . S
C797 C794 1.409 . S
C797 C795 1.415 . S
C798 H788 0.930 . S
C798 C796 1.419 . S
C798 C799 1.362 . S
C799 H789 0.930 . S
C799 C792 1.409 . S
C799 C798 1.362 . S
H800 C806 0.930 . S
H801 C809 0.930 . S
H802 C810 0.930 . S
H803 C811 0.930 . S
H804 C814 0.930 . S
H805 C815 0.930 . S
C806 H800 0.930 . S
C806 C807 1.355 . S
C806 C808 1.415 . S
C807 C806 1.355 . S
C807 C809 1.419 . S
C808 C806 1.415 . S
C808 C813 1.425 . S
C808 C815 1.409 1_556 S
C809 H801 0.930 . S
C809 C807 1.419 . S
C809 C810 1.362 . S
C810 H802 0.930 . S
C810 C809 1.362 . S
C810 C813 1.409 . S
C811 H803 0.930 . S
C811 C812 1.355 1_556 S
C811 C813 1.415 . S
C812 C811 1.355 1_554 S
C812 C814 1.419 . S
C813 C808 1.425 . S
C813 C810 1.409 . S
C813 C811 1.415 . S
C814 H804 0.930 . S
C814 C812 1.419 . S
C814 C815 1.362 . S
C815 H805 0.930 . S
C815 C808 1.409 1_554 S
C815 C814 1.362 . S
H816 C822 0.930 . S
H817 C825 0.930 . S
H818 C826 0.930 . S
H819 C827 0.930 . S
H820 C830 0.930 . S
H821 C831 0.930 . S
C822 H816 0.930 . S
C822 C823 1.355 . S
C822 C824 1.415 . S
C823 C822 1.355 . S
C823 C825 1.419 . S
C824 C822 1.415 . S
C824 C829 1.425 . S
C824 C831 1.409 . S
C825 H817 0.930 . S
C825 C823 1.419 . S
C825 C826 1.362 . S
C826 H818 0.930 . S
C826 C825 1.362 . S
C826 C829 1.409 . S
C827 H819 0.930 . S
C827 C828 1.355 . S
C827 C829 1.415 . S
C828 C827 1.355 . S
C828 C830 1.419 . S
C829 C824 1.425 . S
C829 C826 1.409 . S
C829 C827 1.415 . S
C830 H820 0.930 . S
C830 C828 1.419 . S
C830 C831 1.362 . S
C831 H821 0.930 . S
C831 C824 1.409 . S
C831 C830 1.362 . S
H832 C838 0.930 . S
H833 C841 0.930 . S
H834 C842 0.930 . S
H835 C843 0.929 . S
H836 C846 0.930 . S
H837 C847 0.930 1_554 S
C838 H832 0.930 . S
C838 C839 1.355 . S
C838 C840 1.415 . S
C839 C838 1.355 . S
C839 C841 1.419 . S
C840 C838 1.415 . S
C840 C845 1.425 . S
C840 C847 1.410 . S
C841 H833 0.930 . S
C841 C839 1.419 . S
C841 C842 1.362 . S
C842 H834 0.930 . S
C842 C841 1.362 . S
C842 C845 1.409 . S
C843 H835 0.929 . S
C843 C844 1.354 . S
C843 C845 1.416 1_554 S
C844 C843 1.354 . S
C844 C846 1.419 . S
C845 C840 1.425 . S
C845 C842 1.409 . S
C845 C843 1.416 1_556 S
C846 H836 0.930 . S
C846 C844 1.419 . S
C846 C847 1.361 1_554 S
C847 H837 0.930 1_556 S
C847 C840 1.410 . S
C847 C846 1.361 1_556 S
H848 C854 0.930 . S
H849 C857 0.930 . S
H850 C858 0.930 . S
H851 C859 0.930 . S
H852 C862 0.930 . S
H853 C863 0.930 . S
C854 H848 0.930 . S
C854 C855 1.355 . S
C854 C856 1.415 . S
C855 C854 1.355 . S
C855 C857 1.419 . S
C856 C854 1.415 . S
C856 C861 1.425 . S
C856 C863 1.409 . S
C857 H849 0.930 . S
C857 C855 1.419 . S
C857 C858 1.362 . S
C858 H850 0.930 . S
C858 C857 1.362 . S
C858 C861 1.409 . S
C859 H851 0.930 . S
C859 C860 1.355 . S
C859 C861 1.415 . S
C860 C859 1.355 . S
C860 C862 1.419 . S
C861 C856 1.425 . S
C861 C858 1.409 . S
C861 C859 1.415 . S
C862 H852 0.930 . S
C862 C860 1.419 . S
C862 C863 1.362 . S
C863 H853 0.930 . S
C863 C856 1.409 . S
C863 C862 1.362 . S
H864 C870 0.930 . S
H865 C873 0.930 . S
H866 C874 0.930 . S
H867 C875 0.930 . S
H868 C878 0.930 . S
H869 C879 0.930 . S
C870 H864 0.930 . S
C870 C871 1.355 . S
C870 C872 1.415 . S
C871 C870 1.355 . S
C871 C873 1.419 . S
C872 C870 1.415 . S
C872 C877 1.425 . S
C872 C879 1.409 . S
C873 H865 0.930 . S
C873 C871 1.419 . S
C873 C874 1.362 . S
C874 H866 0.930 . S
C874 C873 1.362 . S
C874 C877 1.409 . S
C875 H867 0.930 . S
C875 C876 1.355 . S
C875 C877 1.415 . S
C876 C875 1.355 . S
C876 C878 1.419 . S
C877 C872 1.425 . S
C877 C874 1.409 . S
C877 C875 1.415 . S
C878 H868 0.930 . S
C878 C876 1.419 . S
C878 C879 1.362 . S
C879 H869 0.930 . S
C879 C872 1.409 . S
C879 C878 1.362 . S
H880 C886 0.930 . S
H881 C889 0.930 . S
H882 C890 0.930 . S
H883 C891 0.930 . S
H884 C894 0.930 . S
H885 C895 0.930 . S
C886 H880 0.930 . S
C886 C887 1.355 . S
C886 C888 1.415 . S
C887 C886 1.355 . S
C887 C889 1.419 . S
C888 C886 1.415 . S
C888 C893 1.425 . S
C888 C895 1.409 . S
C889 H881 0.930 . S
C889 C887 1.419 . S
C889 C890 1.362 . S
C890 H882 0.930 . S
C890 C889 1.362 . S
C890 C893 1.409 . S
C891 H883 0.930 . S
C891 C892 1.355 . S
C891 C893 1.415 . S
C892 C891 1.355 . S
C892 C894 1.419 . S
C893 C888 1.425 . S
C893 C890 1.409 . S
C893 C891 1.415 . S
C894 H884 0.930 . S
C894 C892 1.419 . S
C894 C895 1.362 . S
C895 H885 0.930 . S
C895 C888 1.409 . S
C895 C894 1.362 . S
H896 C902 0.930 . S
H897 C905 0.930 1_655 S
H898 C906 0.930 . S
H899 C907 0.930 . S
H900 C910 0.930 . S
H901 C911 0.930 . S
C902 H896 0.930 . S
C902 C903 1.355 . S
C902 C904 1.415 . S
C903 C902 1.355 . S
C903 C905 1.419 . S
C904 C902 1.415 . S
C904 C909 1.425 . S
C904 C911 1.409 . S
C905 H897 0.930 1_455 S
C905 C903 1.419 . S
C905 C906 1.362 . S
C906 H898 0.930 . S
C906 C905 1.362 . S
C906 C909 1.409 . S
C907 H899 0.930 . S
C907 C908 1.355 . S
C907 C909 1.415 . S
C908 C907 1.355 . S
C908 C910 1.419 . S
C909 C904 1.425 . S
C909 C906 1.409 . S
C909 C907 1.415 . S
C910 H900 0.930 . S
C910 C908 1.419 . S
C910 C911 1.362 . S
C911 H901 0.930 . S
C911 C904 1.409 . S
C911 C910 1.362 . S
H912 C918 0.930 . S
H913 C921 0.930 . S
H914 C922 0.930 . S
H915 C923 0.930 . S
H916 C926 0.930 1_655 S
H917 C927 0.930 . S
C918 H912 0.930 . S
C918 C919 1.355 . S
C918 C920 1.415 . S
C919 C918 1.355 . S
C919 C921 1.419 . S
C920 C918 1.415 . S
C920 C925 1.425 . S
C920 C927 1.409 . S
C921 H913 0.930 . S
C921 C919 1.419 . S
C921 C922 1.362 . S
C922 H914 0.930 . S
C922 C921 1.362 . S
C922 C925 1.409 . S
C923 H915 0.930 . S
C923 C924 1.355 . S
C923 C925 1.415 . S
C924 C923 1.355 . S
C924 C926 1.419 . S
C925 C920 1.425 . S
C925 C922 1.409 . S
C925 C923 1.415 . S
C926 H916 0.930 1_455 S
C926 C924 1.419 . S
C926 C927 1.362 . S
C927 H917 0.930 . S
C927 C920 1.409 . S
C927 C926 1.362 . S
H928 C934 0.930 . S
H929 C937 0.930 1_545 S
H930 C938 0.930 . S
H931 C939 0.930 . S
H932 C942 0.930 . S
H933 C943 0.930 . S
C934 H928 0.930 . S
C934 C935 1.355 . S
C934 C936 1.415 . S
C935 C934 1.355 . S
C935 C937 1.419 . S
C936 C934 1.415 . S
C936 C941 1.425 . S
C936 C943 1.409 . S
C937 H929 0.930 1_565 S
C937 C935 1.419 . S
C937 C938 1.362 . S
C938 H930 0.930 . S
C938 C937 1.362 . S
C938 C941 1.409 . S
C939 H931 0.930 . S
C939 C940 1.355 . S
C939 C941 1.415 . S
C940 C939 1.355 . S
C940 C942 1.419 . S
C941 C936 1.425 . S
C941 C938 1.409 . S
C941 C939 1.415 . S
C942 H932 0.930 . S
C942 C940 1.419 . S
C942 C943 1.362 . S
C943 H933 0.930 . S
C943 C936 1.409 . S
C943 C942 1.362 . S
H944 C950 0.930 . S
H945 C953 0.930 . S
H946 C954 0.930 . S
H947 C955 0.930 . S
H948 C958 0.930 . S
H949 C959 0.930 . S
C950 H944 0.930 . S
C950 C951 1.355 . S
C950 C952 1.415 . S
C951 C950 1.355 . S
C951 C953 1.419 . S
C952 C950 1.415 . S
C952 C957 1.425 . S
C952 C959 1.409 . S
C953 H945 0.930 . S
C953 C951 1.419 . S
C953 C954 1.362 . S
C954 H946 0.930 . S
C954 C953 1.362 . S
C954 C957 1.409 . S
C955 H947 0.930 . S
C955 C956 1.355 . S
C955 C957 1.415 . S
C956 C955 1.355 . S
C956 C958 1.419 . S
C957 C952 1.425 . S
C957 C954 1.409 . S
C957 C955 1.415 . S
C958 H948 0.930 . S
C958 C956 1.419 . S
C958 C959 1.362 . S
C959 H949 0.930 . S
C959 C952 1.409 . S
C959 C958 1.362 . S
H960 C966 0.930 . S
H961 C969 0.930 . S
H962 C970 0.930 . S
H963 C971 0.930 . S
H964 C974 0.930 . S
H965 C975 0.930 . S
C966 H960 0.930 . S
C966 C967 1.355 . S
C966 C968 1.415 . S
C967 C966 1.355 . S
C967 C969 1.419 . S
C968 C966 1.415 . S
C968 C973 1.425 . S
C968 C975 1.409 . S
C969 H961 0.930 . S
C969 C967 1.419 . S
C969 C970 1.362 . S
C970 H962 0.930 . S
C970 C969 1.362 . S
C970 C973 1.409 . S
C971 H963 0.930 . S
C971 C972 1.355 . S
C971 C973 1.415 . S
C972 C971 1.355 . S
C972 C974 1.419 . S
C973 C968 1.425 . S
C973 C970 1.409 . S
C973 C971 1.415 . S
C974 H964 0.930 . S
C974 C972 1.419 . S
C974 C975 1.362 . S
C975 H965 0.930 . S
C975 C968 1.409 . S
C975 C974 1.362 . S
H976 C982 0.930 . S
H977 C985 0.930 . S
H978 C986 0.930 . S
H979 C987 0.930 . S
H980 C990 0.930 . S
H981 C991 0.930 . S
C982 H976 0.930 . S
C982 C983 1.355 . S
C982 C984 1.415 . S
C983 C982 1.355 . S
C983 C985 1.419 . S
C984 C982 1.415 . S
C984 C989 1.425 . S
C984 C991 1.409 . S
C985 H977 0.930 . S
C985 C983 1.419 . S
C985 C986 1.362 . S
C986 H978 0.930 . S
C986 C985 1.362 . S
C986 C989 1.409 . S
C987 H979 0.930 . S
C987 C988 1.355 . S
C987 C989 1.415 . S
C988 C987 1.355 . S
C988 C990 1.419 . S
C989 C984 1.425 . S
C989 C986 1.409 . S
C989 C987 1.415 . S
C990 H980 0.930 . S
C990 C988 1.419 . S
C990 C991 1.362 . S
C991 H981 0.930 . S
C991 C984 1.409 . S
C991 C990 1.362 . S
H992 C998 0.930 . S
H993 C1001 0.930 . S
H994 C1002 0.930 . S
H995 C1003 0.930 . S
H996 C1006 0.930 . S
H997 C1007 0.930 . S
C998 H992 0.930 . S
C998 C999 1.355 . S
C998 C1000 1.415 1_554 S
C999 C998 1.355 . S
C999 C1001 1.419 . S
C1000 C998 1.415 1_556 S
C1000 C1005 1.425 1_556 S
C1000 C1007 1.409 . S
C1001 H993 0.930 . S
C1001 C999 1.419 . S
C1001 C1002 1.362 . S
C1002 H994 0.930 . S
C1002 C1001 1.362 . S
C1002 C1005 1.409 . S
C1003 H995 0.930 . S
C1003 C1004 1.355 . S
C1003 C1005 1.415 1_556 S
C1004 C1003 1.355 . S
C1004 C1006 1.419 . S
C1005 C1000 1.425 1_554 S
C1005 C1002 1.409 . S
C1005 C1003 1.415 1_554 S
C1006 H996 0.930 . S
C1006 C1004 1.419 . S
C1006 C1007 1.362 . S
C1007 H997 0.930 . S
C1007 C1000 1.409 . S
C1007 C1006 1.362 . S
H1008 C1014 0.930 . S
H1009 C1017 0.930 . S
H1010 C1018 0.930 . S
H1011 C1019 0.930 . S
H1012 C1022 0.930 . S
H1013 C1023 0.930 . S
C1014 H1008 0.930 . S
C1014 C1015 1.355 . S
C1014 C1016 1.415 . S
C1015 C1014 1.355 . S
C1015 C1017 1.419 . S
C1016 C1014 1.415 . S
C1016 C1021 1.425 . S
C1016 C1023 1.409 . S
C1017 H1009 0.930 . S
C1017 C1015 1.419 . S
C1017 C1018 1.362 . S
C1018 H1010 0.930 . S
C1018 C1017 1.362 . S
C1018 C1021 1.409 . S
C1019 H1011 0.930 . S
C1019 C1020 1.355 . S
C1019 C1021 1.415 . S
C1020 C1019 1.355 . S
C1020 C1022 1.419 . S
C1021 C1016 1.425 . S
C1021 C1018 1.409 . S
C1021 C1019 1.415 . S
C1022 H1012 0.930 . S
C1022 C1020 1.419 . S
C1022 C1023 1.362 . S
C1023 H1013 0.930 . S
C1023 C1016 1.409 . S
C1023 C1022 1.362 . S
H1024 C1030 0.930 . S
H1025 C1033 0.930 . S
H1026 C1034 0.930 . S
H1027 C1035 0.930 . S
H1028 C1038 0.930 . S
H1029 C1039 0.930 . S
C1030 H1024 0.930 . S
C1030 C1031 1.355 . S
C1030 C1032 1.415 1_554 S
C1031 C1030 1.355 . S
C1031 C1033 1.419 1_655 S
C1032 C1030 1.415 1_556 S
C1032 C1037 1.425 1_556 S
C1032 C1039 1.409 . S
C1033 H1025 0.930 . S
C1033 C1031 1.419 1_455 S
C1033 C1034 1.362 . S
C1034 H1026 0.930 . S
C1034 C1033 1.362 . S
C1034 C1037 1.409 1_455 S
C1035 H1027 0.930 . S
C1035 C1036 1.355 1_455 S
C1035 C1037 1.415 1_456 S
C1036 C1035 1.355 1_655 S
C1036 C1038 1.419 . S
C1037 C1032 1.425 1_554 S
C1037 C1034 1.409 1_655 S
C1037 C1035 1.415 1_654 S
C1038 H1028 0.930 . S
C1038 C1036 1.419 . S
C1038 C1039 1.362 . S
C1039 H1029 0.930 . S
C1039 C1032 1.409 . S
C1039 C1038 1.362 . S
H1040 C1046 0.930 . S
H1041 C1049 0.930 . S
H1042 C1050 0.930 . S
H1043 C1051 0.907 1_545 S
H1044 C1054 0.930 . S
H1045 C1055 0.930 . S
C1046 H1040 0.930 . S
C1046 C1047 1.355 . S
C1046 C1048 1.415 . S
C1047 C1046 1.355 . S
C1047 C1049 1.419 1_565 S
C1048 C1046 1.415 . S
C1048 C1053 1.425 . S
C1048 C1055 1.409 . S
C1049 H1041 0.930 . S
C1049 C1047 1.419 1_545 S
C1049 C1050 1.362 . S
C1050 H1042 0.930 . S
C1050 C1049 1.362 . S
C1050 C1053 1.409 1_545 S
C1051 H1043 0.907 1_565 S
C1051 C1052 1.373 . S
C1051 C1053 1.420 . S
C1052 C1051 1.373 . S
C1052 C1054 1.419 . S
C1053 C1048 1.425 . S
C1053 C1050 1.409 1_565 S
C1053 C1051 1.420 . S
C1054 H1044 0.930 . S
C1054 C1052 1.419 . S
C1054 C1055 1.362 . S
C1055 H1045 0.930 . S
C1055 C1048 1.409 . S
C1055 C1054 1.362 . S
H1056 C1062 0.930 . S
H1057 C1065 0.930 . S
H1058 C1066 0.930 . S
H1059 C1067 0.930 . S
H1060 C1070 0.930 . S
H1061 C1071 0.930 . S
C1062 H1056 0.930 . S
C1062 C1063 1.355 . S
C1062 C1064 1.415 . S
C1063 C1062 1.355 . S
C1063 C1065 1.419 . S
C1064 C1062 1.415 . S
C1064 C1069 1.425 1_554 S
C1064 C1071 1.409 1_554 S
C1065 H1057 0.930 . S
C1065 C1063 1.419 . S
C1065 C1066 1.362 . S
C1066 H1058 0.930 . S
C1066 C1065 1.362 . S
C1066 C1069 1.409 1_554 S
C1067 H1059 0.930 . S
C1067 C1068 1.355 . S
C1067 C1069 1.415 . S
C1068 C1067 1.355 . S
C1068 C1070 1.419 . S
C1069 C1064 1.425 1_556 S
C1069 C1066 1.409 1_556 S
C1069 C1067 1.415 . S
C1070 H1060 0.930 . S
C1070 C1068 1.419 . S
C1070 C1071 1.362 . S
C1071 H1061 0.930 . S
C1071 C1064 1.409 1_556 S
C1071 C1070 1.362 . S
H1072 C1078 0.930 . S
H1073 C1081 0.930 . S
H1074 C1082 0.930 . S
H1075 C1083 0.930 . S
H1076 C1086 0.930 . S
H1077 C1087 0.930 . S
C1078 H1072 0.930 . S
C1078 C1079 1.355 . S
C1078 C1080 1.415 . S
C1079 C1078 1.355 . S
C1079 C1081 1.419 . S
C1080 C1078 1.415 . S
C1080 C1085 1.425 . S
C1080 C1087 1.409 . S
C1081 H1073 0.930 . S
C1081 C1079 1.419 . S
C1081 C1082 1.362 . S
C1082 H1074 0.930 . S
C1082 C1081 1.362 . S
C1082 C1085 1.409 . S
C1083 H1075 0.930 . S
C1083 C1084 1.355 . S
C1083 C1085 1.415 . S
C1084 C1083 1.355 . S
C1084 C1086 1.419 . S
C1085 C1080 1.425 . S
C1085 C1082 1.409 . S
C1085 C1083 1.415 . S
C1086 H1076 0.930 . S
C1086 C1084 1.419 . S
C1086 C1087 1.362 . S
C1087 H1077 0.930 . S
C1087 C1080 1.409 . S
C1087 C1086 1.362 . S
H1088 C1094 0.930 1_655 S
H1089 C1097 0.930 . S
H1090 C1098 0.930 . S
H1091 C1099 0.930 . S
H1092 C1102 0.930 . S
H1093 C1103 0.930 . S
C1094 H1088 0.930 1_455 S
C1094 C1095 1.355 . S
C1094 C1096 1.415 1_556 S
C1095 C1094 1.355 . S
C1095 C1097 1.419 . S
C1096 C1094 1.415 1_554 S
C1096 C1101 1.425 1_554 S
C1096 C1103 1.409 1_455 S
C1097 H1089 0.930 . S
C1097 C1095 1.419 . S
C1097 C1098 1.362 . S
C1098 H1090 0.930 . S
C1098 C1097 1.362 . S
C1098 C1101 1.409 . S
C1099 H1091 0.930 . S
C1099 C1100 1.355 . S
C1099 C1101 1.415 1_554 S
C1100 C1099 1.355 . S
C1100 C1102 1.419 1_455 S
C1101 C1096 1.425 1_556 S
C1101 C1098 1.409 . S
C1101 C1099 1.415 1_556 S
C1102 H1092 0.930 . S
C1102 C1100 1.419 1_655 S
C1102 C1103 1.362 . S
C1103 H1093 0.930 . S
C1103 C1096 1.409 1_655 S
C1103 C1102 1.362 . S
H1104 C1110 0.930 . S
H1105 C1113 0.930 . S
H1106 C1114 0.930 . S
H1107 C1115 0.930 . S
H1108 C1118 0.930 . S
H1109 C1119 0.930 . S
C1110 H1104 0.930 . S
C1110 C1111 1.355 . S
C1110 C1112 1.415 . S
C1111 C1110 1.355 . S
C1111 C1113 1.419 . S
C1112 C1110 1.415 . S
C1112 C1117 1.425 . S
C1112 C1119 1.409 . S
C1113 H1105 0.930 . S
C1113 C1111 1.419 . S
C1113 C1114 1.362 . S
C1114 H1106 0.930 . S
C1114 C1113 1.362 . S
C1114 C1117 1.409 . S
C1115 H1107 0.930 . S
C1115 C1116 1.355 . S
C1115 C1117 1.415 . S
C1116 C1115 1.355 . S
C1116 C1118 1.419 . S
C1117 C1112 1.425 . S
C1117 C1114 1.409 . S
C1117 C1115 1.415 . S
C1118 H1108 0.930 . S
C1118 C1116 1.419 . S
C1118 C1119 1.362 . S
C1119 H1109 0.930 . S
C1119 C1112 1.409 . S
C1119 C1118 1.362 . S
C359 C7 1.174 . S
C364 C202 1.221 . S
C375 C29 1.154 . S
C380 C224 1.152 . S
C391 C246 1.198 . S
C396 C51 1.218 . S
C407 C184 1.184 . S
C412 C73 1.211 . S
C423 C95 1.160 . S
C428 C338 1.152 . S
C439 C272 1.185 . S
C444 C116 1.211 . S
C455 C294 1.200 . S
C460 C138 1.144 . S
C471 C316 1.179 . S
C476 C160 1.207 . S
C487 C30 1.169 . S
C492 C185 1.129 . S
C503 C203 1.158 . S
C508 C52 1.212 . S
C519 C74 1.174 . S
C524 C225 1.201 . S
C535 C8 1.218 . S
C540 C247 1.167 . S
C551 C158 1.217 . S
C556 C273 1.166 . S
C567 C96 1.152 . S
C572 C295 1.150 . S
C583 C317 1.141 . S
C588 C114 1.153 . S
C599 C136 1.157 . S
C604 C339 1.177 . S
C615 C4 1.484 . S
C620 C337 1.535 . S
C631 C26 1.493 . S
C636 C271 1.540 . S
C647 C48 1.491 . S
C652 C293 1.513 . S
C663 C315 1.551 . S
C668 C70 1.525 . S
C679 C92 1.521 . S
C684 C204 1.551 . S
C695 C118 1.482 . S
C700 C226 1.507 . S
C711 C140 1.468 . S
C716 C248 1.523 . S
C727 C183 1.542 . S
C732 C162 1.525 . S
C743 C180 1.526 . S
C748 C159 1.545 . S
C759 C206 1.526 . S
C764 C97 1.550 . S
C775 C228 1.522 . S
C780 C115 1.551 . S
C791 C250 1.458 . S
C796 C137 1.513 . S
C807 C31 1.498 . S
C812 C268 1.458 . S
C823 C53 1.525 . S
C828 C290 1.470 . S
C839 C75 1.499 . S
C844 C312 1.452 . S
C855 C334 1.527 . S
C860 C9 1.546 . S
C871 C161 1.363 . S
C876 C6 1.332 . S
C887 C94 1.329 . S
C892 C28 1.334 . S
C903 C50 1.360 . S
C908 C117 1.401 . S
C919 C72 1.410 . S
C924 C139 1.368 . S
C935 C335 1.401 . S
C940 C181 1.433 . S
C951 C207 1.380 . S
C956 C269 1.342 . S
C967 C291 1.439 . S
C972 C229 1.435 . S
C983 C251 1.428 . S
C988 C313 1.392 . S
C999 C5 1.325 . S
C1004 C93 1.371 . S
C1015 C119 1.315 . S
C1020 C27 1.391 . S
C1031 C49 1.378 . S
C1036 C141 1.321 . S
C1047 C163 1.363 . S
C1052 C71 1.331 . S
C1063 C270 1.315 . S
C1068 C182 1.392 . S
C1079 C292 1.407 . S
C1084 C205 1.339 . S
C1095 C227 1.333 . S
C1100 C314 1.360 . S
C1111 C249 1.371 . S
C1116 C336 1.325 . S
