# Generated by pormake.
# Topology sml, (6)-cn, num edge types: 1
# Building blocks:
#     Node 0, Type 0, BuildingBlock: BETDIP_clean_sbu_0, # of connection points: 6
#     Node 1, Type 0, BuildingBlock: BETDIP_clean_sbu_0, # of connection points: 6
#     Node 2, Type 0, BuildingBlock: BETDIP_clean_sbu_0, # of connection points: 6
#     Node 3, Type 0, BuildingBlock: BETDIP_clean_sbu_0, # of connection points: 6
#     Node 4, Type 0, BuildingBlock: BETDIP_clean_sbu_0, # of connection points: 6
#     Node 5, Type 0, BuildingBlock: BETDIP_clean_sbu_0, # of connection points: 6
#     Edge 6, Type (0, 0), BuildingBlock: KIFKEQ_clean_linker_1, # of connection points: 2
#     Edge 7, Type (0, 0), BuildingBlock: KIFKEQ_clean_linker_1, # of connection points: 2
#     Edge 8, Type (0, 0), BuildingBlock: KIFKEQ_clean_linker_1, # of connection points: 2
#     Edge 9, Type (0, 0), BuildingBlock: KIFKEQ_clean_linker_1, # of connection points: 2
#     Edge 10, Type (0, 0), BuildingBlock: KIFKEQ_clean_linker_1, # of connection points: 2
#     Edge 11, Type (0, 0), BuildingBlock: KIFKEQ_clean_linker_1, # of connection points: 2
#     Edge 12, Type (0, 0), BuildingBlock: KIFKEQ_clean_linker_1, # of connection points: 2
#     Edge 13, Type (0, 0), BuildingBlock: KIFKEQ_clean_linker_1, # of connection points: 2
#     Edge 14, Type (0, 0), BuildingBlock: KIFKEQ_clean_linker_1, # of connection points: 2
#     Edge 15, Type (0, 0), BuildingBlock: KIFKEQ_clean_linker_1, # of connection points: 2
#     Edge 16, Type (0, 0), BuildingBlock: KIFKEQ_clean_linker_1, # of connection points: 2
#     Edge 17, Type (0, 0), BuildingBlock: KIFKEQ_clean_linker_1, # of connection points: 2
#     Edge 18, Type (0, 0), BuildingBlock: KIFKEQ_clean_linker_1, # of connection points: 2
#     Edge 19, Type (0, 0), BuildingBlock: KIFKEQ_clean_linker_1, # of connection points: 2
#     Edge 20, Type (0, 0), BuildingBlock: KIFKEQ_clean_linker_1, # of connection points: 2
#     Edge 21, Type (0, 0), BuildingBlock: KIFKEQ_clean_linker_1, # of connection points: 2
#     Edge 22, Type (0, 0), BuildingBlock: KIFKEQ_clean_linker_1, # of connection points: 2
#     Edge 23, Type (0, 0), BuildingBlock: KIFKEQ_clean_linker_1, # of connection points: 2
# Relax obj value: 0.252
# Max RMSD: 0.253
# Mean RMSD: 0.253
data_MOF--net-sml--node1-BETDIP_clean_sbu_0--edge1-KIFKEQ_clean_linker_1
_symmetry_space_group_name_H-M    P1
_symmetry_Int_Tables_number       1
_symmetry_cell_setting            triclinic
loop_
_symmetry_equiv_pos_as_xyz
'x, y, z'
_cell_length_a     33.00643
_cell_length_b     33.075603
_cell_length_c     25.07003
_cell_angle_alpha  89.986147
_cell_angle_beta   90.00212
_cell_angle_gamma 120.03744
loop_
_atom_site_label
_atom_site_type_symbol
_atom_site_fract_x
_atom_site_fract_y
_atom_site_fract_z
_atom_type_partial_charge
Tb0 Tb 0.17994 0.43862 0.97814 0.0
Tb1 Tb 0.21514 0.40506 0.07049 0.0
C2 C 0.16981 0.468 0.88927 0.0
C3 C 0.17723 0.46218 0.83243 0.0
C4 C 0.21046 0.45006 0.81598 0.0
C5 C 0.21588 0.44369 0.76169 0.0
C6 C 0.18848 0.44978 0.72292 0.0
C7 C 0.15551 0.4622 0.7398 0.0
C8 C 0.14991 0.4682 0.79397 0.0
C9 C 0.11468 0.38024 0.04332 0.0
C10 C 0.20777 0.35896 0.96117 0.0
C11 C 0.22719 0.37789 0.15986 0.0
C12 C 0.22201 0.38604 0.21694 0.0
C13 C 0.17869 0.3759 0.23886 0.0
C14 C 0.1748 0.38274 0.29339 0.0
C15 C 0.21412 0.39999 0.32719 0.0
C16 C 0.25744 0.41057 0.30481 0.0
C17 C 0.26124 0.40348 0.25048 0.0
C18 C 0.27938 0.46569 1.00552 0.0
C19 C 0.19116 0.48733 0.08709 0.0
O20 O 0.20728 0.49039 0.91899 0.0
O21 O 0.13656 0.43111 0.91321 0.0
O22 O 0.15027 0.37809 0.02892 0.0
O23 O 0.11314 0.4135 0.01775 0.0
O24 O 0.20121 0.39222 0.94071 0.0
O25 O 0.20859 0.35297 1.01325 0.0
O26 O 0.18896 0.35491 0.13147 0.0
O27 O 0.26033 0.41325 0.13373 0.0
O28 O 0.24324 0.46556 0.02138 0.0
O29 O 0.28236 0.43224 0.02873 0.0
O30 O 0.19654 0.45355 0.10829 0.0
O31 O 0.18875 0.49185 0.03492 0.0
H32 H 0.23216 0.44554 0.84503 0.0
H33 H 0.24188 0.43455 0.75004 0.0
H34 H 0.13341 0.46654 0.71116 0.0
H35 H 0.12397 0.47737 0.80589 0.0
H36 H 0.14771 0.36235 0.21409 0.0
H37 H 0.14075 0.37367 0.30917 0.0
H38 H 0.28868 0.42472 0.32918 0.0
H39 H 0.29503 0.41162 0.2346 0.0
Tb40 Tb 0.74229 0.17854 0.31118 0.0
Tb41 Tb 0.81106 0.21322 0.40362 0.0
C42 C 0.70288 0.16905 0.2223 0.0
C43 C 0.71605 0.17566 0.16544 0.0
C44 C 0.76198 0.20694 0.14883 0.0
C45 C 0.77375 0.21131 0.09457 0.0
C46 C 0.7397 0.1847 0.05587 0.0
C47 C 0.6936 0.15401 0.07298 0.0
C48 C 0.68202 0.14945 0.12714 0.0
C49 C 0.73469 0.11322 0.37644 0.0
C50 C 0.84971 0.20495 0.29461 0.0
C51 C 0.85026 0.22511 0.49299 0.0
C52 C 0.83669 0.21976 0.54995 0.0
C53 C 0.80089 0.1773 0.57075 0.0
C54 C 0.78977 0.17318 0.62517 0.0
C55 C 0.8139 0.21149 0.65977 0.0
C56 C 0.84932 0.25398 0.63864 0.0
C57 C 0.86067 0.25797 0.58442 0.0
C58 C 0.815 0.27744 0.33851 0.0
C59 C 0.7049 0.19007 0.42015 0.0
O60 O 0.71918 0.2068 0.25162 0.0
O61 O 0.70535 0.13533 0.24663 0.0
O62 O 0.77271 0.1485 0.3621 0.0
O63 O 0.70004 0.11201 0.35072 0.0
O64 O 0.80997 0.19864 0.27393 0.0
O65 O 0.85647 0.20604 0.34671 0.0
O66 O 0.83502 0.18698 0.46454 0.0
O67 O 0.84803 0.25823 0.46696 0.0
O68 O 0.77891 0.24155 0.35452 0.0
O69 O 0.85146 0.28022 0.36158 0.0
O70 O 0.74393 0.19494 0.4414 0.0
O71 O 0.69811 0.18792 0.36796 0.0
H72 H 0.78875 0.22775 0.17777 0.0
H73 H 0.80969 0.23496 0.08311 0.0
H74 H 0.66619 0.13367 0.04449 0.0
H75 H 0.64632 0.12531 0.13916 0.0
H76 H 0.78155 0.14724 0.54512 0.0
H77 H 0.76197 0.14012 0.6401 0.0
H78 H 0.86894 0.28398 0.66425 0.0
H79 H 0.88851 0.291 0.5694 0.0
Tb80 Tb 0.56525 0.73941 0.64338 0.0
Tb81 Tb 0.6001 0.80863 0.7359 0.0
C82 C 0.53681 0.70056 0.55414 0.0
C83 C 0.5438 0.71421 0.49725 0.0
C84 C 0.54348 0.75419 0.47877 0.0
C85 C 0.54969 0.76565 0.42437 0.0
C86 C 0.55653 0.7375 0.38737 0.0
C87 C 0.5574 0.6979 0.40645 0.0
C88 C 0.55097 0.68638 0.46063 0.0
C89 C 0.62369 0.73291 0.70866 0.0
C90 C 0.64506 0.8468 0.62583 0.0
C91 C 0.63052 0.84805 0.82473 0.0
C92 C 0.62287 0.83545 0.88175 0.0
C93 C 0.60058 0.78869 0.89862 0.0
C94 C 0.59296 0.77773 0.95305 0.0
C95 C 0.60789 0.81335 0.99161 0.0
C96 C 0.63049 0.86011 0.97434 0.0
C97 C 0.63776 0.87098 0.91998 0.0
C98 C 0.53925 0.81249 0.67161 0.0
C99 C 0.51576 0.70272 0.75215 0.0
O100 O 0.51395 0.71529 0.58358 0.0
O101 O 0.57306 0.7034 0.57892 0.0
O102 O 0.62593 0.77041 0.69361 0.0
O103 O 0.59002 0.69778 0.68386 0.0
O104 O 0.61137 0.80702 0.60573 0.0
O105 O 0.65177 0.8537 0.67783 0.0
O106 O 0.65054 0.82961 0.79642 0.0
O107 O 0.59555 0.84747 0.79947 0.0
O108 O 0.53934 0.77644 0.68708 0.0
O109 O 0.57268 0.84883 0.6952 0.0
O110 O 0.54961 0.74195 0.77337 0.0
O111 O 0.51153 0.69543 0.70002 0.0
H112 H 0.53824 0.77645 0.50624 0.0
H113 H 0.5484 0.79618 0.41125 0.0
H114 H 0.56357 0.67591 0.37958 0.0
H115 H 0.55168 0.65558 0.47402 0.0
H116 H 0.58915 0.76071 0.86982 0.0
H117 H 0.57591 0.7414 0.96498 0.0
H118 H 0.64193 0.88836 1.00284 0.0
H119 H 0.65492 0.90726 0.90775 0.0
Tb120 Tb 0.82255 0.56545 0.98227 0.0
Tb121 Tb 0.78447 0.59477 0.07524 0.0
C122 C 0.83756 0.54029 0.89308 0.0
C123 C 0.82893 0.54485 0.83643 0.0
C124 C 0.79731 0.55923 0.82059 0.0
C125 C 0.79083 0.56459 0.76636 0.0
C126 C 0.81549 0.5551 0.72714 0.0
C127 C 0.84672 0.54022 0.74341 0.0
C128 C 0.85345 0.53531 0.79754 0.0
C129 C 0.886 0.62174 0.0505 0.0
C130 C 0.79256 0.64348 0.96771 0.0
C131 C 0.76982 0.61959 0.1647 0.0
C132 C 0.77567 0.61222 0.22166 0.0
C133 C 0.81827 0.619 0.24217 0.0
C134 C 0.82279 0.61279 0.29669 0.0
C135 C 0.78478 0.59945 0.33174 0.0
C136 C 0.74208 0.59209 0.31068 0.0
C137 C 0.73769 0.59858 0.25637 0.0
C138 C 0.72143 0.5356 1.00783 0.0
C139 C 0.81017 0.51384 0.08949 0.0
O140 O 0.80073 0.51446 0.92249 0.0
O141 O 0.86758 0.57888 0.91724 0.0
O142 O 0.85062 0.6242 0.03583 0.0
O143 O 0.88823 0.58946 0.02374 0.0
O144 O 0.79963 0.61099 0.94602 0.0
O145 O 0.79113 0.64803 0.01992 0.0
O146 O 0.80781 0.64454 0.13652 0.0
O147 O 0.73834 0.58304 0.13866 0.0
O148 O 0.75781 0.5359 0.02327 0.0
O149 O 0.71752 0.56766 0.03308 0.0
O150 O 0.80413 0.54679 0.1118 0.0
O151 O 0.81331 0.51076 0.03719 0.0
H152 H 0.77768 0.5663 0.85006 0.0
H153 H 0.7662 0.57567 0.75509 0.0
H154 H 0.86663 0.53317 0.71429 0.0
H155 H 0.87808 0.52428 0.80906 0.0
H156 H 0.84816 0.62941 0.21625 0.0
H157 H 0.85635 0.61925 0.31146 0.0
H158 H 0.71178 0.58091 0.33609 0.0
H159 H 0.70445 0.59294 0.24139 0.0
Tb160 Tb 0.26088 0.82177 0.31398 0.0
Tb161 Tb 0.19251 0.78608 0.40655 0.0
C162 C 0.3003 0.83212 0.22499 0.0
C163 C 0.28692 0.82443 0.16826 0.0
C164 C 0.24114 0.79209 0.15214 0.0
C165 C 0.2293 0.78622 0.09788 0.0
C166 C 0.26315 0.81231 0.05885 0.0
C167 C 0.30896 0.84444 0.07542 0.0
C168 C 0.32063 0.85047 0.12956 0.0
C169 C 0.26859 0.88654 0.38025 0.0
C170 C 0.15352 0.79543 0.29836 0.0
C171 C 0.15312 0.77291 0.49598 0.0
C172 C 0.16645 0.77785 0.553 0.0
C173 C 0.20046 0.82076 0.57478 0.0
C174 C 0.21116 0.82447 0.62929 0.0
C175 C 0.18825 0.78538 0.66317 0.0
C176 C 0.15471 0.74243 0.64091 0.0
C177 C 0.14385 0.73881 0.58659 0.0
C178 C 0.18838 0.72247 0.34021 0.0
C179 C 0.29884 0.80982 0.42228 0.0
O180 O 0.28557 0.79479 0.25476 0.0
O181 O 0.29621 0.86509 0.24886 0.0
O182 O 0.23057 0.8513 0.36585 0.0
O183 O 0.30316 0.88806 0.35404 0.0
O184 O 0.193 0.80146 0.2772 0.0
O185 O 0.14713 0.79417 0.35052 0.0
O186 O 0.16798 0.81124 0.468 0.0
O187 O 0.15593 0.74032 0.46949 0.0
O188 O 0.22452 0.7582 0.35644 0.0
O189 O 0.15201 0.71956 0.36368 0.0
O190 O 0.25978 0.80446 0.44396 0.0
O191 O 0.3055 0.81248 0.37008 0.0
H192 H 0.21465 0.77139 0.18143 0.0
H193 H 0.19382 0.76089 0.08645 0.0
H194 H 0.33569 0.86554 0.04654 0.0
H195 H 0.35609 0.87571 0.14126 0.0
H196 H 0.21854 0.85156 0.54991 0.0
H197 H 0.23678 0.85824 0.64501 0.0
H198 H 0.13697 0.71136 0.66537 0.0
H199 H 0.11758 0.70533 0.57075 0.0
Tb200 Tb 0.4404 0.26099 0.64371 0.0
Tb201 Tb 0.40583 0.19322 0.73666 0.0
C202 C 0.47091 0.30037 0.55495 0.0
C203 C 0.464 0.28738 0.49807 0.0
C204 C 0.44998 0.24174 0.4812 0.0
C205 C 0.44278 0.23024 0.4269 0.0
C206 C 0.44993 0.26431 0.38852 0.0
C207 C 0.46424 0.30999 0.40579 0.0
C208 C 0.47107 0.32132 0.46001 0.0
C209 C 0.38189 0.26891 0.70778 0.0
C210 C 0.35938 0.15391 0.62758 0.0
C211 C 0.37885 0.1538 0.82594 0.0
C212 C 0.38587 0.16698 0.88299 0.0
C213 C 0.37706 0.20131 0.90383 0.0
C214 C 0.38325 0.21209 0.95837 0.0
C215 C 0.39855 0.18895 0.99315 0.0
C216 C 0.40782 0.15506 0.97177 0.0
C217 C 0.40135 0.14412 0.91747 0.0
C218 C 0.46678 0.18887 0.67259 0.0
C219 C 0.48797 0.29899 0.7527 0.0
O220 O 0.49168 0.28319 0.58406 0.0
O221 O 0.43517 0.29884 0.57945 0.0
O222 O 0.3794 0.23095 0.69401 0.0
O223 O 0.41578 0.30341 0.68242 0.0
O224 O 0.39312 0.1933 0.6067 0.0
O225 O 0.35331 0.14768 0.67972 0.0
O226 O 0.35493 0.16756 0.79698 0.0
O227 O 0.4154 0.15795 0.80062 0.0
O228 O 0.46688 0.22496 0.6881 0.0
O229 O 0.43265 0.15267 0.69536 0.0
O230 O 0.45228 0.26127 0.77406 0.0
O231 O 0.49449 0.30402 0.70053 0.0
H232 H 0.44466 0.21506 0.50994 0.0
H233 H 0.43219 0.19485 0.41489 0.0
H234 H 0.46947 0.33689 0.37742 0.0
H235 H 0.48174 0.35668 0.47227 0.0
H236 H 0.36516 0.21963 0.87818 0.0
H237 H 0.37529 0.23803 0.97338 0.0
H238 H 0.42054 0.13716 0.9969 0.0
H239 H 0.40853 0.11765 0.90232 0.0
H240 H 0.38822 0.35016 0.73754 0.0
H241 H 0.30497 0.20124 0.76238 0.0
H242 H 0.33792 0.36242 0.79837 0.0
H243 H 0.2555 0.21401 0.82595 0.0
H244 H 0.24045 0.29897 0.98519 0.0
H245 H 0.27671 0.26905 0.92305 0.0
H246 H 0.24298 0.33093 0.79147 0.0
H247 H 0.2059 0.35973 0.85246 0.0
C248 C 0.35932 0.31999 0.7563 0.0
C249 C 0.3508 0.27472 0.74557 0.0
C250 C 0.33057 0.32708 0.79109 0.0
C251 C 0.29295 0.28915 0.81664 0.0
C252 C 0.28454 0.24376 0.8068 0.0
C253 C 0.31294 0.23653 0.77082 0.0
C254 C 0.23956 0.30505 0.94287 0.0
C255 C 0.22097 0.33252 0.92399 0.0
C256 C 0.26026 0.28785 0.90741 0.0
C257 C 0.26292 0.29818 0.85276 0.0
C258 C 0.24159 0.32283 0.83356 0.0
C259 C 0.22051 0.33945 0.86866 0.0
H260 H 0.03937 0.38576 0.07385 0.0
H261 H 0.10573 0.30283 0.09634 0.0
H262 H 0.97663 0.33452 0.13394 0.0
H263 H 0.04327 0.25239 0.15927 0.0
H264 H 0.84735 0.20161 0.1859 0.0
H265 H 0.9136 0.23855 0.12516 0.0
H266 H 0.0089 0.27387 0.25748 0.0
H267 H 0.9424 0.23784 0.31929 0.0
C268 C 0.04078 0.35674 0.09195 0.0
C269 C 0.07779 0.34861 0.08079 0.0
C270 C 0.00481 0.32744 0.12631 0.0
C271 C 0.00525 0.28964 0.15101 0.0
C272 C 0.04246 0.28156 0.14075 0.0
C273 C 0.07824 0.31054 0.10518 0.0
C274 C 0.88227 0.21653 0.20229 0.0
C275 C 0.88947 0.21761 0.2577 0.0
C276 C 0.92017 0.23746 0.16734 0.0
C277 C 0.96614 0.25921 0.18684 0.0
C278 C 0.97364 0.25704 0.24163 0.0
C279 C 0.93556 0.23649 0.27689 0.0
H280 H 0.80272 0.10318 0.42927 0.0
H281 H 0.6533 0.03877 0.40698 0.0
H282 H 0.78995 0.03994 0.49118 0.0
H283 H 0.641 0.97548 0.46627 0.0
H284 H 0.639 0.84487 0.51734 0.0
H285 H 0.66817 0.91117 0.45713 0.0
H286 H 0.739 0.00521 0.5878 0.0
H287 H 0.70922 0.93857 0.64921 0.0
C288 C 0.76733 0.07592 0.43793 0.0
C289 C 0.729 0.07615 0.41376 0.0
C290 C 0.76009 0.03973 0.47297 0.0
C291 C 0.71453 0.00284 0.48299 0.0
C292 C 0.67648 0.00328 0.45873 0.0
C293 C 0.6836 0.03959 0.42484 0.0
C294 C 0.66151 0.87946 0.53346 0.0
C295 C 0.67111 0.88635 0.58844 0.0
C296 C 0.67823 0.91742 0.49878 0.0
C297 C 0.70539 0.96315 0.51803 0.0
C298 C 0.71821 0.97016 0.5721 0.0
C299 C 0.70105 0.93202 0.60716 0.0
H300 H 0.60745 0.65314 0.75641 0.0
H301 H 0.7063 0.80129 0.7526 0.0
H302 H 0.65635 0.64232 0.82123 0.0
H303 H 0.75508 0.79018 0.81898 0.0
H304 H 0.80252 0.65196 0.8596 0.0
H305 H 0.76634 0.68231 0.79889 0.0
H306 H 0.71637 0.72679 0.93269 0.0
H307 H 0.752 0.69582 0.99424 0.0
C308 C 0.63949 0.68346 0.76972 0.0
C309 C 0.65307 0.72809 0.74963 0.0
C310 C 0.66727 0.67721 0.80687 0.0
C311 C 0.7091 0.71545 0.82484 0.0
C312 C 0.72263 0.76035 0.80573 0.0
C313 C 0.69477 0.76664 0.76808 0.0
C314 C 0.78468 0.66899 0.87632 0.0
C315 C 0.77958 0.67082 0.93184 0.0
C316 C 0.7643 0.68661 0.84148 0.0
C317 C 0.73893 0.70688 0.86141 0.0
C318 C 0.73637 0.71173 0.91668 0.0
C319 C 0.75669 0.69394 0.95174 0.0
H320 H 0.06139 0.76411 0.32423 0.0
H321 H 0.15501 0.79853 0.18965 0.0
H322 H 0.99429 0.72888 0.26327 0.0
H323 H 0.08817 0.76273 0.1297 0.0
H324 H 0.96309 0.61812 0.0768 0.0
H325 H 0.0265 0.66932 0.13586 0.0
H326 H 0.95701 0.7476 0.16926 0.0
H327 H 0.89352 0.69695 0.10749 0.0
C328 C 0.0678 0.76527 0.28174 0.0
C329 C 0.11361 0.78334 0.26196 0.0
C330 C 0.02938 0.74523 0.24695 0.0
C331 C 0.03626 0.74279 0.19205 0.0
C332 C 0.08205 0.76395 0.17199 0.0
C333 C 0.1203 0.78428 0.20647 0.0
C334 C 0.96116 0.64629 0.09642 0.0
C335 C 0.92311 0.65333 0.08773 0.0
C336 C 0.99758 0.67564 0.13016 0.0
C337 C 0.99665 0.71244 0.15673 0.0
C338 C 0.95832 0.71931 0.14912 0.0
C339 C 0.92199 0.69025 0.11417 0.0
H340 H 0.29856 0.06183 0.65312 0.0
H341 H 0.35964 0.15521 0.51883 0.0
H342 H 0.26806 0.99483 0.59227 0.0
H343 H 0.33019 0.08849 0.45906 0.0
H344 H 0.34971 0.96259 0.40838 0.0
H345 H 0.36172 0.026 0.46734 0.0
H346 H 0.21314 0.95866 0.49643 0.0
H347 H 0.20058 0.89538 0.43476 0.0
C348 C 0.30456 0.06821 0.6107 0.0
C349 C 0.33238 0.11395 0.59102 0.0
C350 C 0.28701 0.02984 0.57597 0.0
C351 C 0.2973 0.03671 0.52126 0.0
C352 C 0.32213 0.08239 0.50121 0.0
C353 C 0.33914 0.12057 0.53561 0.0
C354 C 0.31943 0.96116 0.42707 0.0
C355 C 0.27418 0.92376 0.41726 0.0
C356 C 0.32638 0.99754 0.46076 0.0
C357 C 0.28834 0.99716 0.48613 0.0
C358 C 0.24298 0.9595 0.47732 0.0
C359 C 0.23587 0.92327 0.44244 0.0
H360 H 0.19056 0.50382 0.63907 0.0
H361 H 0.19834 0.38036 0.67578 0.0
H362 H 0.19693 0.49176 0.54431 0.0
H363 H 0.20394 0.3677 0.58084 0.0
H364 H 0.25835 0.38374 0.41032 0.0
H365 H 0.25388 0.39702 0.50501 0.0
H366 H 0.15425 0.44223 0.47175 0.0
H367 H 0.16076 0.43149 0.3767 0.0
C368 C 0.19328 0.47386 0.62686 0.0
C369 C 0.19381 0.443 0.66508 0.0
C370 C 0.19679 0.46682 0.57241 0.0
C371 C 0.2007 0.42857 0.55459 0.0
C372 C 0.20164 0.39791 0.59294 0.0
C373 C 0.19839 0.40512 0.64747 0.0
C374 C 0.23591 0.3971 0.42302 0.0
C375 C 0.21012 0.40676 0.38551 0.0
C376 C 0.23285 0.4041 0.47759 0.0
C377 C 0.20371 0.42074 0.49634 0.0
C378 C 0.17759 0.43001 0.45889 0.0
C379 C 0.18082 0.42321 0.40427 0.0
H380 H 0.7071 0.11488 0.98092 0.0
H381 H 0.8001 0.26341 0.99915 0.0
H382 H 0.724 0.12148 0.88599 0.0
H383 H 0.81919 0.26957 0.90456 0.0
H384 H 0.80426 0.27332 0.72363 0.0
H385 H 0.78708 0.26692 0.81884 0.0
H386 H 0.7824 0.13399 0.82272 0.0
H387 H 0.79857 0.1401 0.72727 0.0
C388 C 0.73121 0.14902 0.96477 0.0
C389 C 0.75191 0.18866 0.99796 0.0
C390 C 0.74146 0.15269 0.91024 0.0
C391 C 0.77301 0.19607 0.88725 0.0
C392 C 0.79421 0.23566 0.92054 0.0
C393 C 0.78374 0.23202 0.9751 0.0
C394 C 0.79972 0.24281 0.74491 0.0
C395 C 0.80272 0.20719 0.71781 0.0
C396 C 0.79004 0.23919 0.79962 0.0
C397 C 0.78341 0.19998 0.82882 0.0
C398 C 0.78647 0.16436 0.80158 0.0
C399 C 0.79581 0.16784 0.74677 0.0
H400 H 0.52305 0.67709 0.30242 0.0
H401 H 0.60393 0.82414 0.33996 0.0
H402 H 0.53599 0.69526 0.20788 0.0
H403 H 0.61456 0.8425 0.24509 0.0
H404 H 0.66879 0.85645 0.07432 0.0
H405 H 0.65571 0.83855 0.16918 0.0
H406 H 0.51531 0.72719 0.13525 0.0
H407 H 0.52887 0.74468 0.04025 0.0
C408 C 0.54359 0.71337 0.29061 0.0
C409 C 0.56271 0.74907 0.32919 0.0
C410 C 0.55046 0.72386 0.23613 0.0
C411 C 0.57638 0.77041 0.21848 0.0
C412 C 0.59497 0.80619 0.25702 0.0
C413 C 0.58829 0.79568 0.31159 0.0
C414 C 0.63504 0.8283 0.08716 0.0
C415 C 0.5999 0.802 0.04961 0.0
C416 C 0.62744 0.8181 0.14168 0.0
C417 C 0.58437 0.78145 0.16024 0.0
C418 C 0.5492 0.75517 0.12258 0.0
C419 C 0.55693 0.76521 0.068 0.0
H420 H 0.80523 0.49627 0.64509 0.0
H421 H 0.81178 0.6274 0.67876 0.0
H422 H 0.79744 0.5069 0.55021 0.0
H423 H 0.80497 0.63869 0.58371 0.0
H424 H 0.74703 0.62312 0.41531 0.0
H425 H 0.75243 0.61102 0.51012 0.0
H426 H 0.84093 0.55257 0.47561 0.0
H427 H 0.83325 0.56215 0.38053 0.0
C428 C 0.80533 0.52756 0.63212 0.0
C429 C 0.80922 0.56103 0.66945 0.0
C430 C 0.80105 0.53378 0.57766 0.0
C431 C 0.80083 0.57381 0.55903 0.0
C432 C 0.80432 0.60711 0.59652 0.0
C433 C 0.80828 0.6007 0.65107 0.0
C434 C 0.76716 0.60711 0.4278 0.0
C435 C 0.78948 0.5934 0.39 0.0
C436 C 0.77081 0.60076 0.48238 0.0
C437 C 0.79713 0.58079 0.50078 0.0
C438 C 0.81981 0.56746 0.46301 0.0
C439 C 0.81595 0.57357 0.40838 0.0
H440 H 0.12718 0.74277 0.74626 0.0
H441 H 0.2735 0.83684 0.71262 0.0
H442 H 0.1447 0.74728 0.84104 0.0
H443 H 0.29061 0.84342 0.80772 0.0
H444 H 0.31409 0.80708 0.97575 0.0
H445 H 0.29573 0.80014 0.88092 0.0
H446 H 0.16662 0.79828 0.91611 0.0
H447 H 0.1848 0.8045 1.01112 0.0
C448 C 0.16314 0.76442 0.75898 0.0
C449 C 0.19893 0.78925 0.72148 0.0
C450 C 0.1731 0.76752 0.81357 0.0
C451 C 0.2191 0.79573 0.83231 0.0
C452 C 0.25485 0.82083 0.79485 0.0
C453 C 0.24493 0.81757 0.74021 0.0
C454 C 0.28186 0.80537 0.96321 0.0
C455 C 0.25099 0.80649 1.00106 0.0
C456 C 0.27136 0.80152 0.90875 0.0
C457 C 0.22978 0.79891 0.89057 0.0
C458 C 0.19866 0.79956 0.92854 0.0
C459 C 0.20907 0.80316 0.98309 0.0
H460 H 0.50484 0.31518 0.3046 0.0
H461 H 0.37789 0.18678 0.34157 0.0
H462 H 0.4919 0.29692 0.20984 0.0
H463 H 0.36433 0.16875 0.24666 0.0
H464 H 0.37873 0.12823 0.07676 0.0
H465 H 0.39205 0.14613 0.17135 0.0
H466 H 0.44328 0.29187 0.13702 0.0
H467 H 0.43255 0.27434 0.04201 0.0
C468 C 0.47392 0.2832 0.29243 0.0
C469 C 0.44237 0.25248 0.33069 0.0
C470 C 0.46638 0.27277 0.238 0.0
C471 C 0.42692 0.23142 0.22029 0.0
C472 C 0.39547 0.20058 0.25868 0.0
C473 C 0.40319 0.21091 0.31318 0.0
C474 C 0.39339 0.16423 0.0892 0.0
C475 C 0.40484 0.19985 0.05141 0.0
C476 C 0.40042 0.17442 0.14371 0.0
C477 C 0.4188 0.22049 0.16212 0.0
C478 C 0.42969 0.25606 0.12441 0.0
C479 C 0.4229 0.24589 0.06982 0.0
H480 H 0.21846 0.50428 0.19119 0.0
H481 H 0.15926 0.54783 0.06518 0.0
H482 H 0.2171 0.56183 0.25081 0.0
H483 H 0.15738 0.60516 0.12558 0.0
H484 H 0.11507 0.65942 0.27987 0.0
H485 H 0.11479 0.60267 0.21645 0.0
H486 H 0.26054 0.65305 0.25079 0.0
H487 H 0.26098 0.70998 0.31336 0.0
C488 C 0.20494 0.52596 0.17624 0.0
C489 C 0.18911 0.52159 0.12334 0.0
C490 C 0.20439 0.55904 0.21036 0.0
C491 C 0.18728 0.58795 0.19268 0.0
C492 C 0.17059 0.58311 0.14017 0.0
C493 C 0.17189 0.5505 0.10562 0.0
C494 C 0.14697 0.65829 0.27365 0.0
C495 C 0.18799 0.6888 0.30147 0.0
C496 C 0.14689 0.62612 0.23726 0.0
C497 C 0.18759 0.62343 0.22902 0.0
C498 C 0.22861 0.65419 0.25675 0.0
C499 C 0.2289 0.68682 0.29232 0.0
H500 H 0.61257 0.15923 0.39806 0.0
H501 H 0.71529 0.217 0.52437 0.0
H502 H 0.55343 0.15778 0.45845 0.0
H503 H 0.65644 0.21607 0.58397 0.0
H504 H 0.5526 0.26081 0.64678 0.0
H505 H 0.60925 0.26006 0.58446 0.0
H506 H 0.51279 0.11512 0.54884 0.0
H507 H 0.45619 0.11572 0.61199 0.0
C508 C 0.62254 0.17164 0.43857 0.0
C509 C 0.66863 0.18832 0.45637 0.0
C510 C 0.58866 0.17059 0.4731 0.0
C511 C 0.60052 0.18699 0.5257 0.0
C512 C 0.64652 0.20359 0.54346 0.0
C513 C 0.68011 0.20389 0.50934 0.0
C514 C 0.54352 0.22884 0.62554 0.0
C515 C 0.50026 0.18825 0.63423 0.0
C516 C 0.57593 0.22837 0.59011 0.0
C517 C 0.56538 0.1875 0.56205 0.0
C518 C 0.52166 0.1471 0.56989 0.0
C519 C 0.4895 0.14736 0.60614 0.0
H520 H 0.34282 0.4558 0.94571 0.0
H521 H 0.29147 0.5504 0.97809 0.0
H522 H 0.39968 0.51222 0.88225 0.0
H523 H 0.34846 0.60685 0.91531 0.0
H524 H 0.4971 0.71408 0.85524 0.0
H525 H 0.43919 0.65548 0.91498 0.0
H526 H 0.39788 0.55127 0.79147 0.0
H527 H 0.45576 0.61011 0.73107 0.0
C528 C 0.3438 0.48867 0.93921 0.0
C529 C 0.31305 0.49899 0.96674 0.0
C530 C 0.37602 0.52071 0.90278 0.0
C531 C 0.3785 0.56388 0.89416 0.0
C532 C 0.34749 0.57397 0.92159 0.0
C533 C 0.31483 0.54166 0.95726 0.0
C534 C 0.47583 0.67869 0.84073 0.0
C535 C 0.48098 0.66675 0.78835 0.0
C536 C 0.44249 0.64524 0.87489 0.0
C537 C 0.41404 0.59897 0.85771 0.0
C538 C 0.41956 0.58672 0.80568 0.0
C539 C 0.45247 0.62042 0.77112 0.0
H540 H 0.74219 0.28971 0.31252 0.0
H541 H 0.88805 0.34084 0.27799 0.0
H542 H 0.7421 0.34663 0.2504 0.0
H543 H 0.88783 0.39772 0.21508 0.0
H544 H 0.84252 0.45399 0.06554 0.0
H545 H 0.845 0.39617 0.12467 0.0
H546 H 0.78507 0.43743 0.25169 0.0
H547 H 0.78302 0.49533 0.19342 0.0
C548 C 0.77414 0.31301 0.29134 0.0
C549 C 0.81519 0.31119 0.30008 0.0
C550 C 0.77413 0.34562 0.25602 0.0
C551 C 0.81499 0.37659 0.22819 0.0
C552 C 0.85585 0.37407 0.23596 0.0
C553 C 0.85606 0.34187 0.27208 0.0
C554 C 0.82994 0.45072 0.1061 0.0
C555 C 0.81246 0.47914 0.12473 0.0
C556 C 0.8316 0.41785 0.13991 0.0
C557 C 0.81502 0.41231 0.19255 0.0
C558 C 0.79767 0.44076 0.21112 0.0
C559 C 0.79672 0.47403 0.17775 0.0
H560 H 0.28913 0.78179 0.52604 0.0
H561 H 0.39127 0.84217 0.39941 0.0
H562 H 0.34868 0.78304 0.58474 0.0
H563 H 0.45109 0.84393 0.45887 0.0
H564 H 0.5485 0.88589 0.61259 0.0
H565 H 0.49134 0.88612 0.55001 0.0
H566 H 0.39721 0.74007 0.58281 0.0
H567 H 0.4544 0.73969 0.64454 0.0
C568 C 0.32432 0.79554 0.51077 0.0
C569 C 0.33546 0.81175 0.45798 0.0
C570 C 0.35831 0.79603 0.54435 0.0
C571 C 0.40433 0.81345 0.52618 0.0
C572 C 0.41583 0.83048 0.47379 0.0
C573 C 0.38158 0.82925 0.43979 0.0
C574 C 0.51559 0.85393 0.60621 0.0
C575 C 0.50559 0.81283 0.63338 0.0
C576 C 0.48313 0.85398 0.57031 0.0
C577 C 0.43989 0.81316 0.56192 0.0
C578 C 0.43015 0.77207 0.58894 0.0
C579 C 0.46287 0.77182 0.62402 0.0
H580 H 0.72069 0.46046 0.96214 0.0
H581 H 0.64352 0.534 0.969 0.0
H582 H 0.66486 0.40612 0.8969 0.0
H583 H 0.58601 0.47772 0.906 0.0
H584 H 0.47201 0.31986 0.85293 0.0
H585 H 0.52867 0.37948 0.91358 0.0
H586 H 0.6369 0.41984 0.795 0.0
H587 H 0.5801 0.36117 0.73353 0.0
C588 C 0.69222 0.4654 0.94913 0.0
C589 C 0.68706 0.50208 0.96959 0.0
C590 C 0.66013 0.43411 0.91223 0.0
C591 C 0.62152 0.43811 0.89642 0.0
C592 C 0.61567 0.47413 0.91766 0.0
C593 C 0.64846 0.50616 0.95361 0.0
C594 C 0.50783 0.34168 0.83968 0.0
C595 C 0.52172 0.33594 0.78856 0.0
C596 C 0.54005 0.37581 0.87425 0.0
C597 C 0.58691 0.40398 0.85873 0.0
C598 C 0.60087 0.39837 0.80768 0.0
C599 C 0.5684 0.36501 0.7726 0.0
loop_
_geom_bond_atom_site_label_1
_geom_bond_atom_site_label_2
_geom_bond_distance
_geom_bond_site_symmetry_2
_ccdc_geom_bond_type
Tb0 C2 2.809 . S
Tb0 O20 2.484 . S
Tb0 O21 2.440 . S
Tb0 O22 2.658 1_556 S
Tb0 O23 2.409 . S
Tb0 O24 2.378 . S
Tb0 O28 2.325 . S
Tb0 O31 2.341 1_556 S
Tb1 C11 2.809 . S
Tb1 O22 2.325 . S
Tb1 O25 2.341 1_554 S
Tb1 O26 2.484 . S
Tb1 O27 2.440 . S
Tb1 O28 2.658 1_554 S
Tb1 O29 2.409 . S
Tb1 O30 2.378 . S
C2 Tb0 2.809 . S
C2 C3 1.514 . S
C2 O20 1.248 . S
C2 O21 1.266 . S
C3 C2 1.514 . S
C3 C4 1.359 . S
C3 C8 1.348 . S
C4 C3 1.359 . S
C4 C5 1.380 . S
C4 H32 0.929 . S
C5 C4 1.380 . S
C5 C6 1.347 . S
C5 H33 0.931 . S
C6 C5 1.347 . S
C6 C7 1.369 . S
C7 C6 1.369 . S
C7 C8 1.408 . S
C7 H34 0.930 . S
C8 C3 1.348 . S
C8 C7 1.408 . S
C8 H35 0.930 . S
C9 O22 1.281 . S
C9 O23 1.254 1_554 S
C10 O24 1.236 . S
C10 O25 1.266 . S
C11 Tb1 2.809 . S
C11 C12 1.514 . S
C11 O26 1.248 . S
C11 O27 1.266 . S
C12 C11 1.514 . S
C12 C13 1.359 . S
C12 C17 1.348 . S
C13 C12 1.359 . S
C13 C14 1.380 . S
C13 H36 0.929 . S
C14 C13 1.380 . S
C14 C15 1.347 . S
C14 H37 0.931 . S
C15 C14 1.347 . S
C15 C16 1.369 . S
C16 C15 1.369 . S
C16 C17 1.408 . S
C16 H38 0.930 . S
C17 C12 1.348 . S
C17 C16 1.408 . S
C17 H39 0.930 . S
C18 O28 1.281 . S
C18 O29 1.254 1_556 S
C19 O30 1.236 . S
C19 O31 1.266 . S
O20 Tb0 2.484 . S
O20 C2 1.248 . S
O21 Tb0 2.440 . S
O21 C2 1.266 . S
O22 Tb0 2.658 1_554 S
O22 Tb1 2.325 . S
O22 C9 1.281 . S
O23 Tb0 2.409 . S
O23 C9 1.254 1_556 S
O24 Tb0 2.378 . S
O24 C10 1.236 . S
O25 Tb1 2.341 1_556 S
O25 C10 1.266 . S
O26 Tb1 2.484 . S
O26 C11 1.248 . S
O27 Tb1 2.440 . S
O27 C11 1.266 . S
O28 Tb0 2.325 . S
O28 Tb1 2.658 1_556 S
O28 C18 1.281 . S
O29 Tb1 2.409 . S
O29 C18 1.254 1_554 S
O30 Tb1 2.378 . S
O30 C19 1.236 . S
O31 Tb0 2.341 1_554 S
O31 C19 1.266 . S
H32 C4 0.929 . S
H33 C5 0.931 . S
H34 C7 0.930 . S
H35 C8 0.930 . S
H36 C13 0.929 . S
H37 C14 0.931 . S
H38 C16 0.930 . S
H39 C17 0.930 . S
Tb40 C42 2.809 . S
Tb40 O60 2.484 . S
Tb40 O61 2.440 . S
Tb40 O62 2.658 . S
Tb40 O63 2.409 . S
Tb40 O64 2.378 . S
Tb40 O68 2.325 . S
Tb40 O71 2.341 . S
Tb41 C51 2.809 . S
Tb41 O62 2.325 . S
Tb41 O65 2.341 . S
Tb41 O66 2.484 . S
Tb41 O67 2.440 . S
Tb41 O68 2.658 . S
Tb41 O69 2.409 . S
Tb41 O70 2.378 . S
C42 Tb40 2.809 . S
C42 C43 1.514 . S
C42 O60 1.248 . S
C42 O61 1.266 . S
C43 C42 1.514 . S
C43 C44 1.359 . S
C43 C48 1.348 . S
C44 C43 1.359 . S
C44 C45 1.380 . S
C44 H72 0.929 . S
C45 C44 1.380 . S
C45 C46 1.347 . S
C45 H73 0.931 . S
C46 C45 1.347 . S
C46 C47 1.369 . S
C47 C46 1.369 . S
C47 C48 1.408 . S
C47 H74 0.930 . S
C48 C43 1.348 . S
C48 C47 1.408 . S
C48 H75 0.930 . S
C49 O62 1.281 . S
C49 O63 1.254 . S
C50 O64 1.236 . S
C50 O65 1.266 . S
C51 Tb41 2.809 . S
C51 C52 1.514 . S
C51 O66 1.248 . S
C51 O67 1.266 . S
C52 C51 1.514 . S
C52 C53 1.359 . S
C52 C57 1.348 . S
C53 C52 1.359 . S
C53 C54 1.380 . S
C53 H76 0.929 . S
C54 C53 1.380 . S
C54 C55 1.347 . S
C54 H77 0.931 . S
C55 C54 1.347 . S
C55 C56 1.369 . S
C56 C55 1.369 . S
C56 C57 1.408 . S
C56 H78 0.930 . S
C57 C52 1.348 . S
C57 C56 1.408 . S
C57 H79 0.930 . S
C58 O68 1.281 . S
C58 O69 1.254 . S
C59 O70 1.236 . S
C59 O71 1.266 . S
O60 Tb40 2.484 . S
O60 C42 1.248 . S
O61 Tb40 2.440 . S
O61 C42 1.266 . S
O62 Tb40 2.658 . S
O62 Tb41 2.325 . S
O62 C49 1.281 . S
O63 Tb40 2.409 . S
O63 C49 1.254 . S
O64 Tb40 2.378 . S
O64 C50 1.236 . S
O65 Tb41 2.341 . S
O65 C50 1.266 . S
O66 Tb41 2.484 . S
O66 C51 1.248 . S
O67 Tb41 2.440 . S
O67 C51 1.266 . S
O68 Tb40 2.325 . S
O68 Tb41 2.658 . S
O68 C58 1.281 . S
O69 Tb41 2.409 . S
O69 C58 1.254 . S
O70 Tb41 2.378 . S
O70 C59 1.236 . S
O71 Tb40 2.341 . S
O71 C59 1.266 . S
H72 C44 0.929 . S
H73 C45 0.931 . S
H74 C47 0.930 . S
H75 C48 0.930 . S
H76 C53 0.929 . S
H77 C54 0.931 . S
H78 C56 0.930 . S
H79 C57 0.930 . S
Tb80 C82 2.809 . S
Tb80 O100 2.484 . S
Tb80 O101 2.440 . S
Tb80 O102 2.658 . S
Tb80 O103 2.409 . S
Tb80 O104 2.378 . S
Tb80 O108 2.325 . S
Tb80 O111 2.341 . S
Tb81 C91 2.809 . S
Tb81 O102 2.325 . S
Tb81 O105 2.341 . S
Tb81 O106 2.484 . S
Tb81 O107 2.440 . S
Tb81 O108 2.658 . S
Tb81 O109 2.409 . S
Tb81 O110 2.378 . S
C82 Tb80 2.809 . S
C82 C83 1.514 . S
C82 O100 1.248 . S
C82 O101 1.266 . S
C83 C82 1.514 . S
C83 C84 1.359 . S
C83 C88 1.348 . S
C84 C83 1.359 . S
C84 C85 1.380 . S
C84 H112 0.929 . S
C85 C84 1.380 . S
C85 C86 1.347 . S
C85 H113 0.931 . S
C86 C85 1.347 . S
C86 C87 1.369 . S
C87 C86 1.369 . S
C87 C88 1.408 . S
C87 H114 0.930 . S
C88 C83 1.348 . S
C88 C87 1.408 . S
C88 H115 0.930 . S
C89 O102 1.281 . S
C89 O103 1.254 . S
C90 O104 1.236 . S
C90 O105 1.266 . S
C91 Tb81 2.809 . S
C91 C92 1.514 . S
C91 O106 1.248 . S
C91 O107 1.266 . S
C92 C91 1.514 . S
C92 C93 1.359 . S
C92 C97 1.348 . S
C93 C92 1.359 . S
C93 C94 1.380 . S
C93 H116 0.929 . S
C94 C93 1.380 . S
C94 C95 1.347 . S
C94 H117 0.931 1_556 S
C95 C94 1.347 . S
C95 C96 1.369 . S
C96 C95 1.369 . S
C96 C97 1.408 . S
C96 H118 0.930 . S
C97 C92 1.348 . S
C97 C96 1.408 . S
C97 H119 0.930 . S
C98 O108 1.281 . S
C98 O109 1.254 . S
C99 O110 1.236 . S
C99 O111 1.266 . S
O100 Tb80 2.484 . S
O100 C82 1.248 . S
O101 Tb80 2.440 . S
O101 C82 1.266 . S
O102 Tb80 2.658 . S
O102 Tb81 2.325 . S
O102 C89 1.281 . S
O103 Tb80 2.409 . S
O103 C89 1.254 . S
O104 Tb80 2.378 . S
O104 C90 1.236 . S
O105 Tb81 2.341 . S
O105 C90 1.266 . S
O106 Tb81 2.484 . S
O106 C91 1.248 . S
O107 Tb81 2.440 . S
O107 C91 1.266 . S
O108 Tb80 2.325 . S
O108 Tb81 2.658 . S
O108 C98 1.281 . S
O109 Tb81 2.409 . S
O109 C98 1.254 . S
O110 Tb81 2.378 . S
O110 C99 1.236 . S
O111 Tb80 2.341 . S
O111 C99 1.266 . S
H112 C84 0.929 . S
H113 C85 0.931 . S
H114 C87 0.930 . S
H115 C88 0.930 . S
H116 C93 0.929 . S
H117 C94 0.931 1_554 S
H118 C96 0.930 . S
H119 C97 0.930 . S
Tb120 C122 2.809 . S
Tb120 O140 2.484 . S
Tb120 O141 2.440 . S
Tb120 O142 2.658 1_556 S
Tb120 O143 2.409 . S
Tb120 O144 2.378 . S
Tb120 O148 2.325 . S
Tb120 O151 2.341 1_556 S
Tb121 C131 2.809 . S
Tb121 O142 2.325 . S
Tb121 O145 2.341 1_554 S
Tb121 O146 2.484 . S
Tb121 O147 2.440 . S
Tb121 O148 2.658 1_554 S
Tb121 O149 2.409 . S
Tb121 O150 2.378 . S
C122 Tb120 2.809 . S
C122 C123 1.514 . S
C122 O140 1.248 . S
C122 O141 1.266 . S
C123 C122 1.514 . S
C123 C124 1.359 . S
C123 C128 1.348 . S
C124 C123 1.359 . S
C124 C125 1.380 . S
C124 H152 0.929 . S
C125 C124 1.380 . S
C125 C126 1.347 . S
C125 H153 0.931 . S
C126 C125 1.347 . S
C126 C127 1.369 . S
C127 C126 1.369 . S
C127 C128 1.408 . S
C127 H154 0.930 . S
C128 C123 1.348 . S
C128 C127 1.408 . S
C128 H155 0.930 . S
C129 O142 1.281 . S
C129 O143 1.254 1_554 S
C130 O144 1.236 . S
C130 O145 1.266 . S
C131 Tb121 2.809 . S
C131 C132 1.514 . S
C131 O146 1.248 . S
C131 O147 1.266 . S
C132 C131 1.514 . S
C132 C133 1.359 . S
C132 C137 1.348 . S
C133 C132 1.359 . S
C133 C134 1.380 . S
C133 H156 0.929 . S
C134 C133 1.380 . S
C134 C135 1.347 . S
C134 H157 0.931 . S
C135 C134 1.347 . S
C135 C136 1.369 . S
C136 C135 1.369 . S
C136 C137 1.408 . S
C136 H158 0.930 . S
C137 C132 1.348 . S
C137 C136 1.408 . S
C137 H159 0.930 . S
C138 O148 1.281 . S
C138 O149 1.254 1_556 S
C139 O150 1.236 . S
C139 O151 1.266 . S
O140 Tb120 2.484 . S
O140 C122 1.248 . S
O141 Tb120 2.440 . S
O141 C122 1.266 . S
O142 Tb120 2.658 1_554 S
O142 Tb121 2.325 . S
O142 C129 1.281 . S
O143 Tb120 2.409 . S
O143 C129 1.254 1_556 S
O144 Tb120 2.378 . S
O144 C130 1.236 . S
O145 Tb121 2.341 1_556 S
O145 C130 1.266 . S
O146 Tb121 2.484 . S
O146 C131 1.248 . S
O147 Tb121 2.440 . S
O147 C131 1.266 . S
O148 Tb120 2.325 . S
O148 Tb121 2.658 1_556 S
O148 C138 1.281 . S
O149 Tb121 2.409 . S
O149 C138 1.254 1_554 S
O150 Tb121 2.378 . S
O150 C139 1.236 . S
O151 Tb120 2.341 1_554 S
O151 C139 1.266 . S
H152 C124 0.929 . S
H153 C125 0.931 . S
H154 C127 0.930 . S
H155 C128 0.930 . S
H156 C133 0.929 . S
H157 C134 0.931 . S
H158 C136 0.930 . S
H159 C137 0.930 . S
Tb160 C162 2.809 . S
Tb160 O180 2.484 . S
Tb160 O181 2.440 . S
Tb160 O182 2.658 . S
Tb160 O183 2.409 . S
Tb160 O184 2.378 . S
Tb160 O188 2.325 . S
Tb160 O191 2.341 . S
Tb161 C171 2.809 . S
Tb161 O182 2.325 . S
Tb161 O185 2.341 . S
Tb161 O186 2.484 . S
Tb161 O187 2.440 . S
Tb161 O188 2.658 . S
Tb161 O189 2.409 . S
Tb161 O190 2.378 . S
C162 Tb160 2.809 . S
C162 C163 1.514 . S
C162 O180 1.248 . S
C162 O181 1.266 . S
C163 C162 1.514 . S
C163 C164 1.359 . S
C163 C168 1.348 . S
C164 C163 1.359 . S
C164 C165 1.380 . S
C164 H192 0.929 . S
C165 C164 1.380 . S
C165 C166 1.347 . S
C165 H193 0.931 . S
C166 C165 1.347 . S
C166 C167 1.369 . S
C167 C166 1.369 . S
C167 C168 1.408 . S
C167 H194 0.930 . S
C168 C163 1.348 . S
C168 C167 1.408 . S
C168 H195 0.930 . S
C169 O182 1.281 . S
C169 O183 1.254 . S
C170 O184 1.236 . S
C170 O185 1.266 . S
C171 Tb161 2.809 . S
C171 C172 1.514 . S
C171 O186 1.248 . S
C171 O187 1.266 . S
C172 C171 1.514 . S
C172 C173 1.359 . S
C172 C177 1.348 . S
C173 C172 1.359 . S
C173 C174 1.380 . S
C173 H196 0.929 . S
C174 C173 1.380 . S
C174 C175 1.347 . S
C174 H197 0.931 . S
C175 C174 1.347 . S
C175 C176 1.369 . S
C176 C175 1.369 . S
C176 C177 1.408 . S
C176 H198 0.930 . S
C177 C172 1.348 . S
C177 C176 1.408 . S
C177 H199 0.930 . S
C178 O188 1.281 . S
C178 O189 1.254 . S
C179 O190 1.236 . S
C179 O191 1.266 . S
O180 Tb160 2.484 . S
O180 C162 1.248 . S
O181 Tb160 2.440 . S
O181 C162 1.266 . S
O182 Tb160 2.658 . S
O182 Tb161 2.325 . S
O182 C169 1.281 . S
O183 Tb160 2.409 . S
O183 C169 1.254 . S
O184 Tb160 2.378 . S
O184 C170 1.236 . S
O185 Tb161 2.341 . S
O185 C170 1.266 . S
O186 Tb161 2.484 . S
O186 C171 1.248 . S
O187 Tb161 2.440 . S
O187 C171 1.266 . S
O188 Tb160 2.325 . S
O188 Tb161 2.658 . S
O188 C178 1.281 . S
O189 Tb161 2.409 . S
O189 C178 1.254 . S
O190 Tb161 2.378 . S
O190 C179 1.236 . S
O191 Tb160 2.341 . S
O191 C179 1.266 . S
H192 C164 0.929 . S
H193 C165 0.931 . S
H194 C167 0.930 . S
H195 C168 0.930 . S
H196 C173 0.929 . S
H197 C174 0.931 . S
H198 C176 0.930 . S
H199 C177 0.930 . S
Tb200 C202 2.809 . S
Tb200 O220 2.484 . S
Tb200 O221 2.440 . S
Tb200 O222 2.658 . S
Tb200 O223 2.409 . S
Tb200 O224 2.378 . S
Tb200 O228 2.325 . S
Tb200 O231 2.341 . S
Tb201 C211 2.809 . S
Tb201 O222 2.325 . S
Tb201 O225 2.341 . S
Tb201 O226 2.484 . S
Tb201 O227 2.440 . S
Tb201 O228 2.658 . S
Tb201 O229 2.409 . S
Tb201 O230 2.378 . S
C202 Tb200 2.809 . S
C202 C203 1.514 . S
C202 O220 1.248 . S
C202 O221 1.266 . S
C203 C202 1.514 . S
C203 C204 1.359 . S
C203 C208 1.348 . S
C204 C203 1.359 . S
C204 C205 1.380 . S
C204 H232 0.929 . S
C205 C204 1.380 . S
C205 C206 1.347 . S
C205 H233 0.931 . S
C206 C205 1.347 . S
C206 C207 1.369 . S
C207 C206 1.369 . S
C207 C208 1.408 . S
C207 H234 0.930 . S
C208 C203 1.348 . S
C208 C207 1.408 . S
C208 H235 0.930 . S
C209 O222 1.281 . S
C209 O223 1.254 . S
C210 O224 1.236 . S
C210 O225 1.266 . S
C211 Tb201 2.809 . S
C211 C212 1.514 . S
C211 O226 1.248 . S
C211 O227 1.266 . S
C212 C211 1.514 . S
C212 C213 1.359 . S
C212 C217 1.348 . S
C213 C212 1.359 . S
C213 C214 1.380 . S
C213 H236 0.929 . S
C214 C213 1.380 . S
C214 C215 1.347 . S
C214 H237 0.931 1_556 S
C215 C214 1.347 . S
C215 C216 1.369 . S
C216 C215 1.369 . S
C216 C217 1.408 . S
C216 H238 0.930 . S
C217 C212 1.348 . S
C217 C216 1.408 . S
C217 H239 0.930 . S
C218 O228 1.281 . S
C218 O229 1.254 . S
C219 O230 1.236 . S
C219 O231 1.266 . S
O220 Tb200 2.484 . S
O220 C202 1.248 . S
O221 Tb200 2.440 . S
O221 C202 1.266 . S
O222 Tb200 2.658 . S
O222 Tb201 2.325 . S
O222 C209 1.281 . S
O223 Tb200 2.409 . S
O223 C209 1.254 . S
O224 Tb200 2.378 . S
O224 C210 1.236 . S
O225 Tb201 2.341 . S
O225 C210 1.266 . S
O226 Tb201 2.484 . S
O226 C211 1.248 . S
O227 Tb201 2.440 . S
O227 C211 1.266 . S
O228 Tb200 2.325 . S
O228 Tb201 2.658 . S
O228 C218 1.281 . S
O229 Tb201 2.409 . S
O229 C218 1.254 . S
O230 Tb201 2.378 . S
O230 C219 1.236 . S
O231 Tb200 2.341 . S
O231 C219 1.266 . S
H232 C204 0.929 . S
H233 C205 0.931 . S
H234 C207 0.930 . S
H235 C208 0.930 . S
H236 C213 0.929 . S
H237 C214 0.931 1_554 S
H238 C216 0.930 . S
H239 C217 0.930 . S
H240 C248 0.950 . S
H241 C253 0.950 . S
H242 C250 0.950 . S
H243 C252 0.950 . S
H244 C254 0.950 . S
H245 C256 0.950 . S
H246 C258 0.950 . S
H247 C259 0.950 . S
C248 H240 0.950 . S
C248 C249 1.386 . S
C248 C250 1.391 . S
C249 C248 1.386 . S
C249 C253 1.393 . S
C250 H242 0.950 . S
C250 C248 1.391 . S
C250 C251 1.400 . S
C251 C250 1.400 . S
C251 C252 1.398 . S
C251 C257 1.491 . S
C252 H243 0.950 . S
C252 C251 1.398 . S
C252 C253 1.391 . S
C253 H241 0.950 . S
C253 C249 1.393 . S
C253 C252 1.391 . S
C254 H244 0.950 . S
C254 C255 1.386 . S
C254 C256 1.391 . S
C255 C254 1.386 . S
C255 C259 1.393 . S
C256 H245 0.950 . S
C256 C254 1.391 . S
C256 C257 1.400 . S
C257 C251 1.491 . S
C257 C256 1.400 . S
C257 C258 1.398 . S
C258 H246 0.950 . S
C258 C257 1.398 . S
C258 C259 1.391 . S
C259 H247 0.950 . S
C259 C255 1.393 . S
C259 C258 1.391 . S
H260 C268 0.950 . S
H261 C273 0.950 . S
H262 C270 0.950 . S
H263 C272 0.950 . S
H264 C274 0.950 . S
H265 C276 0.950 . S
H266 C278 0.950 . S
H267 C279 0.950 . S
C268 H260 0.950 . S
C268 C269 1.386 . S
C268 C270 1.391 . S
C269 C268 1.386 . S
C269 C273 1.393 . S
C270 H262 0.950 . S
C270 C268 1.391 . S
C270 C271 1.400 . S
C271 C270 1.400 . S
C271 C272 1.398 . S
C271 C277 1.491 1_455 S
C272 H263 0.950 . S
C272 C271 1.398 . S
C272 C273 1.391 . S
C273 H261 0.950 . S
C273 C269 1.393 . S
C273 C272 1.391 . S
C274 H264 0.950 . S
C274 C275 1.386 . S
C274 C276 1.391 . S
C275 C274 1.386 . S
C275 C279 1.393 . S
C276 H265 0.950 . S
C276 C274 1.391 . S
C276 C277 1.400 . S
C277 C271 1.491 1_655 S
C277 C276 1.400 . S
C277 C278 1.398 . S
C278 H266 0.950 . S
C278 C277 1.398 . S
C278 C279 1.391 . S
C279 H267 0.950 . S
C279 C275 1.393 . S
C279 C278 1.391 . S
H280 C288 0.950 . S
H281 C293 0.950 . S
H282 C290 0.950 . S
H283 C292 0.950 1_565 S
H284 C294 0.950 . S
H285 C296 0.950 . S
H286 C298 0.950 1_545 S
H287 C299 0.950 . S
C288 H280 0.950 . S
C288 C289 1.386 . S
C288 C290 1.391 . S
C289 C288 1.386 . S
C289 C293 1.393 . S
C290 H282 0.950 . S
C290 C288 1.391 . S
C290 C291 1.400 . S
C291 C290 1.400 . S
C291 C292 1.398 . S
C291 C297 1.491 1_545 S
C292 H283 0.950 1_545 S
C292 C291 1.398 . S
C292 C293 1.391 . S
C293 H281 0.950 . S
C293 C289 1.393 . S
C293 C292 1.391 . S
C294 H284 0.950 . S
C294 C295 1.386 . S
C294 C296 1.391 . S
C295 C294 1.386 . S
C295 C299 1.393 . S
C296 H285 0.950 . S
C296 C294 1.391 . S
C296 C297 1.400 . S
C297 C291 1.491 1_565 S
C297 C296 1.400 . S
C297 C298 1.398 . S
C298 H286 0.950 1_565 S
C298 C297 1.398 . S
C298 C299 1.391 . S
C299 H287 0.950 . S
C299 C295 1.393 . S
C299 C298 1.391 . S
H300 C308 0.950 . S
H301 C313 0.950 . S
H302 C310 0.950 . S
H303 C312 0.950 . S
H304 C314 0.950 . S
H305 C316 0.950 . S
H306 C318 0.950 . S
H307 C319 0.950 . S
C308 H300 0.950 . S
C308 C309 1.386 . S
C308 C310 1.391 . S
C309 C308 1.386 . S
C309 C313 1.393 . S
C310 H302 0.950 . S
C310 C308 1.391 . S
C310 C311 1.400 . S
C311 C310 1.400 . S
C311 C312 1.398 . S
C311 C317 1.491 . S
C312 H303 0.950 . S
C312 C311 1.398 . S
C312 C313 1.391 . S
C313 H301 0.950 . S
C313 C309 1.393 . S
C313 C312 1.391 . S
C314 H304 0.950 . S
C314 C315 1.386 . S
C314 C316 1.391 . S
C315 C314 1.386 . S
C315 C319 1.393 . S
C316 H305 0.950 . S
C316 C314 1.391 . S
C316 C317 1.400 . S
C317 C311 1.491 . S
C317 C316 1.400 . S
C317 C318 1.398 . S
C318 H306 0.950 . S
C318 C317 1.398 . S
C318 C319 1.391 . S
C319 H307 0.950 . S
C319 C315 1.393 . S
C319 C318 1.391 . S
H320 C328 0.950 . S
H321 C333 0.950 . S
H322 C330 0.950 . S
H323 C332 0.950 . S
H324 C334 0.950 . S
H325 C336 0.950 1_455 S
H326 C338 0.950 . S
H327 C339 0.950 . S
C328 H320 0.950 . S
C328 C329 1.386 . S
C328 C330 1.391 . S
C329 C328 1.386 . S
C329 C333 1.393 . S
C330 H322 0.950 . S
C330 C328 1.391 . S
C330 C331 1.400 . S
C331 C330 1.400 . S
C331 C332 1.398 . S
C331 C337 1.491 1_455 S
C332 H323 0.950 . S
C332 C331 1.398 . S
C332 C333 1.391 . S
C333 H321 0.950 . S
C333 C329 1.393 . S
C333 C332 1.391 . S
C334 H324 0.950 . S
C334 C335 1.386 . S
C334 C336 1.391 . S
C335 C334 1.386 . S
C335 C339 1.393 . S
C336 H325 0.950 1_655 S
C336 C334 1.391 . S
C336 C337 1.400 . S
C337 C331 1.491 1_655 S
C337 C336 1.400 . S
C337 C338 1.398 . S
C338 H326 0.950 . S
C338 C337 1.398 . S
C338 C339 1.391 . S
C339 H327 0.950 . S
C339 C335 1.393 . S
C339 C338 1.391 . S
H340 C348 0.950 . S
H341 C353 0.950 . S
H342 C350 0.950 . S
H343 C352 0.950 . S
H344 C354 0.950 . S
H345 C356 0.950 . S
H346 C358 0.950 . S
H347 C359 0.950 . S
C348 H340 0.950 . S
C348 C349 1.386 . S
C348 C350 1.391 . S
C349 C348 1.386 . S
C349 C353 1.393 . S
C350 H342 0.950 . S
C350 C348 1.391 . S
C350 C351 1.400 . S
C351 C350 1.400 . S
C351 C352 1.398 . S
C351 C357 1.491 1_545 S
C352 H343 0.950 . S
C352 C351 1.398 . S
C352 C353 1.391 . S
C353 H341 0.950 . S
C353 C349 1.393 . S
C353 C352 1.391 . S
C354 H344 0.950 . S
C354 C355 1.386 . S
C354 C356 1.391 . S
C355 C354 1.386 . S
C355 C359 1.393 . S
C356 H345 0.950 . S
C356 C354 1.391 . S
C356 C357 1.400 . S
C357 C351 1.491 1_565 S
C357 C356 1.400 . S
C357 C358 1.398 . S
C358 H346 0.950 . S
C358 C357 1.398 . S
C358 C359 1.391 . S
C359 H347 0.950 . S
C359 C355 1.393 . S
C359 C358 1.391 . S
H360 C368 0.950 . S
H361 C373 0.950 . S
H362 C370 0.950 . S
H363 C372 0.950 . S
H364 C374 0.950 . S
H365 C376 0.950 . S
H366 C378 0.950 . S
H367 C379 0.950 . S
C368 H360 0.950 . S
C368 C369 1.386 . S
C368 C370 1.391 . S
C369 C368 1.386 . S
C369 C373 1.393 . S
C370 H362 0.950 . S
C370 C368 1.391 . S
C370 C371 1.400 . S
C371 C370 1.400 . S
C371 C372 1.398 . S
C371 C377 1.491 . S
C372 H363 0.950 . S
C372 C371 1.398 . S
C372 C373 1.391 . S
C373 H361 0.950 . S
C373 C369 1.393 . S
C373 C372 1.391 . S
C374 H364 0.950 . S
C374 C375 1.386 . S
C374 C376 1.391 . S
C375 C374 1.386 . S
C375 C379 1.393 . S
C376 H365 0.950 . S
C376 C374 1.391 . S
C376 C377 1.400 . S
C377 C371 1.491 . S
C377 C376 1.400 . S
C377 C378 1.398 . S
C378 H366 0.950 . S
C378 C377 1.398 . S
C378 C379 1.391 . S
C379 H367 0.950 . S
C379 C375 1.393 . S
C379 C378 1.391 . S
H380 C388 0.950 . S
H381 C393 0.950 . S
H382 C390 0.950 . S
H383 C392 0.950 . S
H384 C394 0.950 . S
H385 C396 0.950 . S
H386 C398 0.950 . S
H387 C399 0.950 . S
C388 H380 0.950 . S
C388 C389 1.386 . S
C388 C390 1.391 . S
C389 C388 1.386 . S
C389 C393 1.393 . S
C390 H382 0.950 . S
C390 C388 1.391 . S
C390 C391 1.400 . S
C391 C390 1.400 . S
C391 C392 1.398 . S
C391 C397 1.491 . S
C392 H383 0.950 . S
C392 C391 1.398 . S
C392 C393 1.391 . S
C393 H381 0.950 . S
C393 C389 1.393 . S
C393 C392 1.391 . S
C394 H384 0.950 . S
C394 C395 1.386 . S
C394 C396 1.391 . S
C395 C394 1.386 . S
C395 C399 1.393 . S
C396 H385 0.950 . S
C396 C394 1.391 . S
C396 C397 1.400 . S
C397 C391 1.491 . S
C397 C396 1.400 . S
C397 C398 1.398 . S
C398 H386 0.950 . S
C398 C397 1.398 . S
C398 C399 1.391 . S
C399 H387 0.950 . S
C399 C395 1.393 . S
C399 C398 1.391 . S
H400 C408 0.950 . S
H401 C413 0.950 . S
H402 C410 0.950 . S
H403 C412 0.950 . S
H404 C414 0.950 . S
H405 C416 0.950 . S
H406 C418 0.950 . S
H407 C419 0.950 . S
C408 H400 0.950 . S
C408 C409 1.386 . S
C408 C410 1.391 . S
C409 C408 1.386 . S
C409 C413 1.393 . S
C410 H402 0.950 . S
C410 C408 1.391 . S
C410 C411 1.400 . S
C411 C410 1.400 . S
C411 C412 1.398 . S
C411 C417 1.491 . S
C412 H403 0.950 . S
C412 C411 1.398 . S
C412 C413 1.391 . S
C413 H401 0.950 . S
C413 C409 1.393 . S
C413 C412 1.391 . S
C414 H404 0.950 . S
C414 C415 1.386 . S
C414 C416 1.391 . S
C415 C414 1.386 . S
C415 C419 1.393 . S
C416 H405 0.950 . S
C416 C414 1.391 . S
C416 C417 1.400 . S
C417 C411 1.491 . S
C417 C416 1.400 . S
C417 C418 1.398 . S
C418 H406 0.950 . S
C418 C417 1.398 . S
C418 C419 1.391 . S
C419 H407 0.950 . S
C419 C415 1.393 . S
C419 C418 1.391 . S
H420 C428 0.950 . S
H421 C433 0.950 . S
H422 C430 0.950 . S
H423 C432 0.950 . S
H424 C434 0.950 . S
H425 C436 0.950 . S
H426 C438 0.950 . S
H427 C439 0.950 . S
C428 H420 0.950 . S
C428 C429 1.386 . S
C428 C430 1.391 . S
C429 C428 1.386 . S
C429 C433 1.393 . S
C430 H422 0.950 . S
C430 C428 1.391 . S
C430 C431 1.400 . S
C431 C430 1.400 . S
C431 C432 1.398 . S
C431 C437 1.491 . S
C432 H423 0.950 . S
C432 C431 1.398 . S
C432 C433 1.391 . S
C433 H421 0.950 . S
C433 C429 1.393 . S
C433 C432 1.391 . S
C434 H424 0.950 . S
C434 C435 1.386 . S
C434 C436 1.391 . S
C435 C434 1.386 . S
C435 C439 1.393 . S
C436 H425 0.950 . S
C436 C434 1.391 . S
C436 C437 1.400 . S
C437 C431 1.491 . S
C437 C436 1.400 . S
C437 C438 1.398 . S
C438 H426 0.950 . S
C438 C437 1.398 . S
C438 C439 1.391 . S
C439 H427 0.950 . S
C439 C435 1.393 . S
C439 C438 1.391 . S
H440 C448 0.950 . S
H441 C453 0.950 . S
H442 C450 0.950 . S
H443 C452 0.950 . S
H444 C454 0.950 . S
H445 C456 0.950 . S
H446 C458 0.950 . S
H447 C459 0.950 . S
C448 H440 0.950 . S
C448 C449 1.386 . S
C448 C450 1.391 . S
C449 C448 1.386 . S
C449 C453 1.393 . S
C450 H442 0.950 . S
C450 C448 1.391 . S
C450 C451 1.400 . S
C451 C450 1.400 . S
C451 C452 1.398 . S
C451 C457 1.491 . S
C452 H443 0.950 . S
C452 C451 1.398 . S
C452 C453 1.391 . S
C453 H441 0.950 . S
C453 C449 1.393 . S
C453 C452 1.391 . S
C454 H444 0.950 . S
C454 C455 1.386 . S
C454 C456 1.391 . S
C455 C454 1.386 . S
C455 C459 1.393 . S
C456 H445 0.950 . S
C456 C454 1.391 . S
C456 C457 1.400 . S
C457 C451 1.491 . S
C457 C456 1.400 . S
C457 C458 1.398 . S
C458 H446 0.950 . S
C458 C457 1.398 . S
C458 C459 1.391 . S
C459 H447 0.950 . S
C459 C455 1.393 . S
C459 C458 1.391 . S
H460 C468 0.950 . S
H461 C473 0.950 . S
H462 C470 0.950 . S
H463 C472 0.950 . S
H464 C474 0.950 . S
H465 C476 0.950 . S
H466 C478 0.950 . S
H467 C479 0.950 . S
C468 H460 0.950 . S
C468 C469 1.386 . S
C468 C470 1.391 . S
C469 C468 1.386 . S
C469 C473 1.393 . S
C470 H462 0.950 . S
C470 C468 1.391 . S
C470 C471 1.400 . S
C471 C470 1.400 . S
C471 C472 1.398 . S
C471 C477 1.491 . S
C472 H463 0.950 . S
C472 C471 1.398 . S
C472 C473 1.391 . S
C473 H461 0.950 . S
C473 C469 1.393 . S
C473 C472 1.391 . S
C474 H464 0.950 . S
C474 C475 1.386 . S
C474 C476 1.391 . S
C475 C474 1.386 . S
C475 C479 1.393 . S
C476 H465 0.950 . S
C476 C474 1.391 . S
C476 C477 1.400 . S
C477 C471 1.491 . S
C477 C476 1.400 . S
C477 C478 1.398 . S
C478 H466 0.950 . S
C478 C477 1.398 . S
C478 C479 1.391 . S
C479 H467 0.950 . S
C479 C475 1.393 . S
C479 C478 1.391 . S
H480 C488 0.950 . S
H481 C493 0.950 . S
H482 C490 0.950 . S
H483 C492 0.950 . S
H484 C494 0.950 . S
H485 C496 0.950 . S
H486 C498 0.950 . S
H487 C499 0.950 . S
C488 H480 0.950 . S
C488 C489 1.386 . S
C488 C490 1.391 . S
C489 C488 1.386 . S
C489 C493 1.393 . S
C490 H482 0.950 . S
C490 C488 1.391 . S
C490 C491 1.400 . S
C491 C490 1.400 . S
C491 C492 1.398 . S
C491 C497 1.491 . S
C492 H483 0.950 . S
C492 C491 1.398 . S
C492 C493 1.391 . S
C493 H481 0.950 . S
C493 C489 1.393 . S
C493 C492 1.391 . S
C494 H484 0.950 . S
C494 C495 1.386 . S
C494 C496 1.391 . S
C495 C494 1.386 . S
C495 C499 1.393 . S
C496 H485 0.950 . S
C496 C494 1.391 . S
C496 C497 1.400 . S
C497 C491 1.491 . S
C497 C496 1.400 . S
C497 C498 1.398 . S
C498 H486 0.950 . S
C498 C497 1.398 . S
C498 C499 1.391 . S
C499 H487 0.950 . S
C499 C495 1.393 . S
C499 C498 1.391 . S
H500 C508 0.950 . S
H501 C513 0.950 . S
H502 C510 0.950 . S
H503 C512 0.950 . S
H504 C514 0.950 . S
H505 C516 0.950 . S
H506 C518 0.950 . S
H507 C519 0.950 . S
C508 H500 0.950 . S
C508 C509 1.386 . S
C508 C510 1.391 . S
C509 C508 1.386 . S
C509 C513 1.393 . S
C510 H502 0.950 . S
C510 C508 1.391 . S
C510 C511 1.400 . S
C511 C510 1.400 . S
C511 C512 1.398 . S
C511 C517 1.491 . S
C512 H503 0.950 . S
C512 C511 1.398 . S
C512 C513 1.391 . S
C513 H501 0.950 . S
C513 C509 1.393 . S
C513 C512 1.391 . S
C514 H504 0.950 . S
C514 C515 1.386 . S
C514 C516 1.391 . S
C515 C514 1.386 . S
C515 C519 1.393 . S
C516 H505 0.950 . S
C516 C514 1.391 . S
C516 C517 1.400 . S
C517 C511 1.491 . S
C517 C516 1.400 . S
C517 C518 1.398 . S
C518 H506 0.950 . S
C518 C517 1.398 . S
C518 C519 1.391 . S
C519 H507 0.950 . S
C519 C515 1.393 . S
C519 C518 1.391 . S
H520 C528 0.950 . S
H521 C533 0.950 . S
H522 C530 0.950 . S
H523 C532 0.950 . S
H524 C534 0.950 . S
H525 C536 0.950 . S
H526 C538 0.950 . S
H527 C539 0.950 . S
C528 H520 0.950 . S
C528 C529 1.386 . S
C528 C530 1.391 . S
C529 C528 1.386 . S
C529 C533 1.393 . S
C530 H522 0.950 . S
C530 C528 1.391 . S
C530 C531 1.400 . S
C531 C530 1.400 . S
C531 C532 1.398 . S
C531 C537 1.491 . S
C532 H523 0.950 . S
C532 C531 1.398 . S
C532 C533 1.391 . S
C533 H521 0.950 . S
C533 C529 1.393 . S
C533 C532 1.391 . S
C534 H524 0.950 . S
C534 C535 1.386 . S
C534 C536 1.391 . S
C535 C534 1.386 . S
C535 C539 1.393 . S
C536 H525 0.950 . S
C536 C534 1.391 . S
C536 C537 1.400 . S
C537 C531 1.491 . S
C537 C536 1.400 . S
C537 C538 1.398 . S
C538 H526 0.950 . S
C538 C537 1.398 . S
C538 C539 1.391 . S
C539 H527 0.950 . S
C539 C535 1.393 . S
C539 C538 1.391 . S
H540 C548 0.950 . S
H541 C553 0.950 . S
H542 C550 0.950 . S
H543 C552 0.950 . S
H544 C554 0.950 . S
H545 C556 0.950 . S
H546 C558 0.950 . S
H547 C559 0.950 . S
C548 H540 0.950 . S
C548 C549 1.386 . S
C548 C550 1.391 . S
C549 C548 1.386 . S
C549 C553 1.393 . S
C550 H542 0.950 . S
C550 C548 1.391 . S
C550 C551 1.400 . S
C551 C550 1.400 . S
C551 C552 1.398 . S
C551 C557 1.491 . S
C552 H543 0.950 . S
C552 C551 1.398 . S
C552 C553 1.391 . S
C553 H541 0.950 . S
C553 C549 1.393 . S
C553 C552 1.391 . S
C554 H544 0.950 . S
C554 C555 1.386 . S
C554 C556 1.391 . S
C555 C554 1.386 . S
C555 C559 1.393 . S
C556 H545 0.950 . S
C556 C554 1.391 . S
C556 C557 1.400 . S
C557 C551 1.491 . S
C557 C556 1.400 . S
C557 C558 1.398 . S
C558 H546 0.950 . S
C558 C557 1.398 . S
C558 C559 1.391 . S
C559 H547 0.950 . S
C559 C555 1.393 . S
C559 C558 1.391 . S
H560 C568 0.950 . S
H561 C573 0.950 . S
H562 C570 0.950 . S
H563 C572 0.950 . S
H564 C574 0.950 . S
H565 C576 0.950 . S
H566 C578 0.950 . S
H567 C579 0.950 . S
C568 H560 0.950 . S
C568 C569 1.386 . S
C568 C570 1.391 . S
C569 C568 1.386 . S
C569 C573 1.393 . S
C570 H562 0.950 . S
C570 C568 1.391 . S
C570 C571 1.400 . S
C571 C570 1.400 . S
C571 C572 1.398 . S
C571 C577 1.491 . S
C572 H563 0.950 . S
C572 C571 1.398 . S
C572 C573 1.391 . S
C573 H561 0.950 . S
C573 C569 1.393 . S
C573 C572 1.391 . S
C574 H564 0.950 . S
C574 C575 1.386 . S
C574 C576 1.391 . S
C575 C574 1.386 . S
C575 C579 1.393 . S
C576 H565 0.950 . S
C576 C574 1.391 . S
C576 C577 1.400 . S
C577 C571 1.491 . S
C577 C576 1.400 . S
C577 C578 1.398 . S
C578 H566 0.950 . S
C578 C577 1.398 . S
C578 C579 1.391 . S
C579 H567 0.950 . S
C579 C575 1.393 . S
C579 C578 1.391 . S
H580 C588 0.950 . S
H581 C593 0.967 . S
H582 C590 0.950 . S
H583 C592 0.950 . S
H584 C594 0.950 . S
H585 C596 0.950 . S
H586 C598 0.950 . S
H587 C599 0.950 . S
C588 H580 0.950 . S
C588 C589 1.386 . S
C588 C590 1.391 . S
C589 C588 1.386 . S
C589 C593 1.393 . S
C590 H582 0.950 . S
C590 C588 1.391 . S
C590 C591 1.400 . S
C591 C590 1.400 . S
C591 C592 1.398 . S
C591 C597 1.491 . S
C592 H583 0.950 . S
C592 C591 1.398 . S
C592 C593 1.391 . S
C593 H581 0.967 . S
C593 C589 1.393 . S
C593 C592 1.391 . S
C594 H584 0.950 . S
C594 C595 1.386 . S
C594 C596 1.391 . S
C595 C594 1.386 . S
C595 C599 1.393 . S
C596 H585 0.950 . S
C596 C594 1.391 . S
C596 C597 1.400 . S
C597 C591 1.491 . S
C597 C596 1.400 . S
C597 C598 1.398 . S
C598 H586 0.950 . S
C598 C597 1.398 . S
C598 C599 1.391 . S
C599 H587 0.950 . S
C599 C595 1.393 . S
C599 C598 1.391 . S
C249 C209 1.337 . S
C255 C10 1.382 . S
C269 C9 1.317 . S
C275 C50 1.384 . S
C289 C49 1.306 . S
C295 C90 1.387 . S
C309 C89 1.315 . S
C315 C130 1.385 . S
C329 C170 1.385 . S
C335 C129 1.317 . S
C349 C210 1.385 . S
C355 C169 1.325 . S
C369 C6 1.473 . S
C375 C15 1.473 . S
C389 C46 1.477 1_556 S
C395 C55 1.477 . S
C409 C86 1.469 . S
C415 C95 1.469 1_554 S
C429 C126 1.469 . S
C435 C135 1.469 . S
C449 C175 1.492 . S
C455 C166 1.492 1_556 S
C469 C206 1.469 . S
C475 C215 1.469 1_554 S
C489 C19 1.704 . S
C495 C178 1.713 . S
C509 C59 1.711 . S
C515 C218 1.717 . S
C529 C18 1.721 . S
C535 C99 1.715 . S
C549 C58 1.712 . S
C555 C139 1.703 . S
C569 C179 1.703 . S
C575 C98 1.712 . S
C589 C138 1.720 . S
C595 C219 1.714 . S
