# Generated by pormake.
# Topology wkb, (5)-cn, num edge types: 1
# Building blocks:
#     Node 0, Type 0, BuildingBlock: XOMCOT_clean_sbu_0, # of connection points: 5
#     Node 1, Type 0, BuildingBlock: XOMCOT_clean_sbu_0, # of connection points: 5
#     Node 2, Type 0, BuildingBlock: XOMCOT_clean_sbu_0, # of connection points: 5
#     Node 3, Type 0, BuildingBlock: XOMCOT_clean_sbu_0, # of connection points: 5
#     Node 4, Type 0, BuildingBlock: XOMCOT_clean_sbu_0, # of connection points: 5
#     Node 5, Type 0, BuildingBlock: XOMCOT_clean_sbu_0, # of connection points: 5
#     Node 6, Type 0, BuildingBlock: XOMCOT_clean_sbu_0, # of connection points: 5
#     Node 7, Type 0, BuildingBlock: XOMCOT_clean_sbu_0, # of connection points: 5
#     Node 8, Type 0, BuildingBlock: XOMCOT_clean_sbu_0, # of connection points: 5
#     Node 9, Type 0, BuildingBlock: XOMCOT_clean_sbu_0, # of connection points: 5
#     Node 10, Type 0, BuildingBlock: XOMCOT_clean_sbu_0, # of connection points: 5
#     Node 11, Type 0, BuildingBlock: XOMCOT_clean_sbu_0, # of connection points: 5
#     Edge 12, Type (0, 0), BuildingBlock: AJUNOK_clean_linker_0, # of connection points: 2
#     Edge 13, Type (0, 0), BuildingBlock: AJUNOK_clean_linker_0, # of connection points: 2
#     Edge 14, Type (0, 0), BuildingBlock: AJUNOK_clean_linker_0, # of connection points: 2
#     Edge 15, Type (0, 0), BuildingBlock: AJUNOK_clean_linker_0, # of connection points: 2
#     Edge 16, Type (0, 0), BuildingBlock: AJUNOK_clean_linker_0, # of connection points: 2
#     Edge 17, Type (0, 0), BuildingBlock: AJUNOK_clean_linker_0, # of connection points: 2
#     Edge 18, Type (0, 0), BuildingBlock: AJUNOK_clean_linker_0, # of connection points: 2
#     Edge 19, Type (0, 0), BuildingBlock: AJUNOK_clean_linker_0, # of connection points: 2
#     Edge 20, Type (0, 0), BuildingBlock: AJUNOK_clean_linker_0, # of connection points: 2
#     Edge 21, Type (0, 0), BuildingBlock: AJUNOK_clean_linker_0, # of connection points: 2
#     Edge 22, Type (0, 0), BuildingBlock: AJUNOK_clean_linker_0, # of connection points: 2
#     Edge 23, Type (0, 0), BuildingBlock: AJUNOK_clean_linker_0, # of connection points: 2
#     Edge 24, Type (0, 0), BuildingBlock: AJUNOK_clean_linker_0, # of connection points: 2
#     Edge 25, Type (0, 0), BuildingBlock: AJUNOK_clean_linker_0, # of connection points: 2
#     Edge 26, Type (0, 0), BuildingBlock: AJUNOK_clean_linker_0, # of connection points: 2
#     Edge 27, Type (0, 0), BuildingBlock: AJUNOK_clean_linker_0, # of connection points: 2
#     Edge 28, Type (0, 0), BuildingBlock: AJUNOK_clean_linker_0, # of connection points: 2
#     Edge 29, Type (0, 0), BuildingBlock: AJUNOK_clean_linker_0, # of connection points: 2
#     Edge 30, Type (0, 0), BuildingBlock: AJUNOK_clean_linker_0, # of connection points: 2
#     Edge 31, Type (0, 0), BuildingBlock: AJUNOK_clean_linker_0, # of connection points: 2
#     Edge 32, Type (0, 0), BuildingBlock: AJUNOK_clean_linker_0, # of connection points: 2
#     Edge 33, Type (0, 0), BuildingBlock: AJUNOK_clean_linker_0, # of connection points: 2
#     Edge 34, Type (0, 0), BuildingBlock: AJUNOK_clean_linker_0, # of connection points: 2
#     Edge 35, Type (0, 0), BuildingBlock: AJUNOK_clean_linker_0, # of connection points: 2
#     Edge 36, Type (0, 0), BuildingBlock: AJUNOK_clean_linker_0, # of connection points: 2
#     Edge 37, Type (0, 0), BuildingBlock: AJUNOK_clean_linker_0, # of connection points: 2
#     Edge 38, Type (0, 0), BuildingBlock: AJUNOK_clean_linker_0, # of connection points: 2
#     Edge 39, Type (0, 0), BuildingBlock: AJUNOK_clean_linker_0, # of connection points: 2
#     Edge 40, Type (0, 0), BuildingBlock: AJUNOK_clean_linker_0, # of connection points: 2
#     Edge 41, Type (0, 0), BuildingBlock: AJUNOK_clean_linker_0, # of connection points: 2
# Relax obj value: 0.126
# Max RMSD: 0.149
# Mean RMSD: 0.149
data_MOF--net-wkb--node1-XOMCOT_clean_sbu_0--edge1-AJUNOK_clean_linker_0
_symmetry_space_group_name_H-M    P1
_symmetry_Int_Tables_number       1
_symmetry_cell_setting            triclinic
loop_
_symmetry_equiv_pos_as_xyz
'x, y, z'
_cell_length_a     34.650516
_cell_length_b     34.655483
_cell_length_c     28.308225
_cell_angle_alpha  90.066975
_cell_angle_beta   90.046364
_cell_angle_gamma 120.02244
loop_
_atom_site_label
_atom_site_type_symbol
_atom_site_fract_x
_atom_site_fract_y
_atom_site_fract_z
_atom_type_partial_charge
Co0 Co 0.07263 0.32652 0.07953 0.0
C1 C 0.06443 0.32591 0.97511 0.0
C2 C 1.00002 0.2907 1.00749 0.0
C3 C 0.99453 0.2889 0.9592 0.0
N4 N 1.044 0.31354 0.0176 0.0
N5 N 1.03511 0.31051 0.93878 0.0
H6 H 0.10017 0.34538 0.97069 0.0
H7 H 0.97337 0.27647 0.03308 0.0
C8 C 0.13149 0.30269 0.02998 0.0
O9 O 0.095 0.26366 0.02696 0.0
N10 N 0.10141 0.33963 0.14053 0.0
C11 C 0.09459 0.36092 0.17655 0.0
C12 C 0.12126 0.36342 0.21388 0.0
C13 C 0.1319 0.32931 0.15627 0.0
N14 N 0.14446 0.3433 0.20116 0.0
C15 C 1.05668 0.3985 0.06659 0.0
C16 C 0.14237 0.46708 0.0846 0.0
C17 C 0.10762 0.47673 0.08152 0.0
C18 C 0.06465 0.442 0.07126 0.0
C19 C 0.13292 0.42274 0.07976 0.0
N20 N 0.09022 0.38905 0.07209 0.0
H21 H 1.02286 0.37183 0.06108 0.0
H22 H 0.15933 0.41515 0.085 0.0
H23 H 0.07223 0.37419 0.17545 0.0
H24 H 0.14448 0.31175 0.1355 0.0
O25 O 1.01568 0.30629 0.11101 0.0
O26 O 1.04392 0.26336 0.09419 0.0
O27 O 0.12948 0.33505 0.04944 0.0
C28 C 1.01171 0.267 0.11312 0.0
H29 H 0.96292 0.27352 0.9408 0.0
H30 H 0.12427 0.37993 0.24729 0.0
H31 H 0.17597 0.49313 0.09288 0.0
H32 H 1.03701 0.44821 0.06882 0.0
Co33 Co 0.7781 0.05566 0.24978 0.0
C34 C 0.76617 0.04836 0.14666 0.0
C35 C 0.763 0.98925 0.17415 0.0
C36 C 0.76193 0.98692 0.12555 0.0
N37 N 0.76592 1.02802 0.18746 0.0
N38 N 0.76442 1.02434 0.10813 0.0
H39 H 0.76855 0.08064 0.14568 0.0
H40 H 0.7637 0.965 0.19749 0.0
C41 C 0.86212 0.11115 0.20146 0.0
O42 O 0.86301 0.07373 0.19989 0.0
N43 N 0.79132 0.08414 0.31102 0.0
C44 C 0.76189 0.08144 0.34382 0.0
C45 C 0.7851 0.11003 0.38045 0.0
C46 C 0.83193 0.11342 0.32839 0.0
N47 N 0.82897 0.12989 0.37055 0.0
C48 C 0.69333 0.04447 0.22625 0.0
C49 C 0.71165 0.12952 0.24977 0.0
C50 C 0.66742 0.0966 0.24032 0.0
C51 C 0.65871 0.05411 0.22697 0.0
C52 C 0.74573 0.11875 0.24751 0.0
N53 N 0.73593 0.07617 0.23757 0.0
H54 H 0.68553 1.01069 0.21898 0.0
H55 H 0.77938 0.14372 0.25697 0.0
H56 H 0.72605 0.06126 0.34053 0.0
H57 H 0.86288 0.12373 0.30984 0.0
O58 O 0.73708 0.99949 0.27904 0.0
O59 O 0.80876 1.02373 0.2693 0.0
O60 O 0.82906 0.11131 0.22131 0.0
C61 C 0.77036 0.99274 0.28529 0.0
H62 H 0.76167 0.9606 0.10469 0.0
H63 H 0.77093 0.1163 0.41158 0.0
H64 H 0.7195 0.16268 0.26048 0.0
H65 H 0.62493 1.0278 0.2198 0.0
Co66 Co 0.77315 0.76777 0.41686 0.0
C67 C 0.76675 0.74757 0.31323 0.0
C68 C 0.83204 0.76872 0.34013 0.0
C69 C 0.83291 0.76522 0.29178 0.0
N70 N 0.7905 0.75799 0.35396 0.0
N71 N 0.79199 0.75258 0.27483 0.0
H72 H 0.73177 0.73685 0.31124 0.0
H73 H 0.86084 0.78078 0.36286 0.0
C74 C 0.74527 0.82467 0.36103 0.0
O75 O 0.7123 0.78838 0.34278 0.0
N76 N 0.75737 0.77886 0.47893 0.0
C77 C 0.73452 0.74841 0.51255 0.0
C78 C 0.72912 0.76985 0.55082 0.0
C79 C 0.76614 0.81836 0.49728 0.0
N80 N 0.74925 0.81389 0.54127 0.0
C81 C 0.69976 0.68369 0.39123 0.0
C82 C 0.6325 0.69835 0.42218 0.0
C83 C 0.62172 0.65484 0.40967 0.0
C84 C 0.65606 0.64816 0.39303 0.0
C85 C 0.67695 0.73313 0.42014 0.0
N86 N 0.71009 0.72562 0.40472 0.0
H87 H 0.72597 0.67697 0.38137 0.0
H88 H 0.68499 0.7658 0.4327 0.0
H89 H 0.72154 0.71294 0.5089 0.0
H90 H 0.78436 0.84974 0.47875 0.0
O91 O 0.78663 0.72494 0.44402 0.0
O92 O 0.83537 0.79677 0.43801 0.0
O93 O 0.77171 0.82216 0.39098 0.0
C94 C 0.82654 0.75742 0.45265 0.0
H95 H 0.86214 0.7742 0.27047 0.0
H96 H 0.71024 0.75386 0.58232 0.0
H97 H 0.6071 0.70535 0.43464 0.0
H98 H 0.64971 0.61515 0.3838 0.0
Co99 Co 1.04704 0.7474 0.58585 0.0
C100 C 1.05446 0.74352 0.4834 0.0
C101 C 0.11447 0.79849 0.51104 0.0
C102 C 0.11725 0.79897 0.46244 0.0
N103 N 0.07487 0.76367 0.52412 0.0
N104 N 0.07927 0.76462 0.44509 0.0
H105 H 1.02175 0.71411 0.48217 0.0
H106 H 0.13921 0.82292 0.53454 0.0
C107 C 0.95153 0.72931 0.56636 0.0
O108 O 0.93613 0.70758 0.60611 0.0
N109 N 1.01933 0.73126 0.64765 0.0
C110 C 1.01475 0.69742 0.67504 0.0
C111 C 0.99009 0.69479 0.7142 0.0
C112 C 1.00013 0.7507 0.67215 0.0
N113 N 0.98072 0.72809 0.71213 0.0
C114 C 0.06143 0.67578 0.56427 0.0
C115 C 0.97552 0.60615 0.57712 0.0
C116 C 1.01032 0.59691 0.57297 0.0
C117 C 1.05343 0.6321 0.56487 0.0
C118 C 0.98495 0.65052 0.57599 0.0
N119 N 1.02786 0.68492 0.57186 0.0
H120 H 0.09535 0.7027 0.56026 0.0
H121 H 0.95801 0.65664 0.58171 0.0
H122 H 1.02694 0.67501 0.66637 0.0
H123 H 0.99677 0.77814 0.65878 0.0
O124 O 0.10288 0.76239 0.61582 0.0
O125 O 0.07863 0.80985 0.60557 0.0
O126 O 0.99249 0.74514 0.55478 0.0
C127 C 0.10947 0.80235 0.62211 0.0
H128 H 0.14436 0.8239 0.44143 0.0
H129 H 0.97811 0.66914 0.74103 0.0
H130 H 0.94174 0.57956 0.5835 0.0
H131 H 0.08111 0.62607 0.56145 0.0
Co132 Co 0.33914 1.02565 0.7537 0.0
C133 C 0.34272 0.04169 0.65042 0.0
C134 C 0.40768 0.07675 0.68209 0.0
C135 C 0.41215 0.08268 0.63388 0.0
N136 N 0.36418 0.0506 0.69238 0.0
N137 N 0.37124 0.06071 0.61389 0.0
H138 H 0.30705 1.02062 0.64643 0.0
H139 H 0.43451 0.08845 0.70758 0.0
C140 C 0.27481 0.93277 0.71606 0.0
O141 O 0.29752 0.91707 0.73786 0.0
N142 N 0.31286 1.00116 0.81588 0.0
C143 C 0.32569 1.02273 0.85795 0.0
C144 C 0.2988 0.99537 0.89324 0.0
C145 C 0.27746 0.96088 0.82688 0.0
N146 N 0.2688 0.95645 0.87364 0.0
C147 C 0.3976 1.00016 0.79711 0.0
C148 C 0.41997 0.97053 0.71675 0.0
C149 C 0.44351 0.97512 0.75871 0.0
C150 C 0.43108 0.98905 0.7994 0.0
C151 C 0.38571 0.98104 0.71619 0.0
N152 N 0.37526 0.99647 0.75599 0.0
H153 H 0.39212 1.01481 0.82802 0.0
H154 H 0.36887 0.97849 0.6832 0.0
H155 H 0.35339 0.05595 0.86348 0.0
H156 H 0.25711 0.9354 0.80187 0.0
O157 O 0.38236 0.08077 0.78307 0.0
O158 O 0.31589 0.06646 0.75847 0.0
O159 O 0.28647 0.97395 0.72045 0.0
C160 C 0.35358 0.09419 0.77894 0.0
H161 H 0.44344 0.09948 0.61503 0.0
H162 H 0.30159 1.00311 0.93058 0.0
H163 H 0.42893 0.96031 0.68435 0.0
H164 H 0.44932 0.99446 0.83215 0.0
Co165 Co 0.35437 0.31831 0.91465 0.0
C166 C 0.35425 0.32794 0.81135 0.0
C167 C 0.31327 0.35078 0.84345 0.0
C168 C 0.31255 0.35556 0.7951 0.0
N169 N 0.33922 0.33306 0.85362 0.0
N170 N 0.33853 0.34135 0.775 0.0
H171 H 0.37575 0.31394 0.80716 0.0
H172 H 0.29605 0.35988 0.869 0.0
C173 C 0.38132 0.24816 0.89023 0.0
O174 O 0.40436 0.25525 0.92931 0.0
N175 N 0.36971 0.30374 0.9755 0.0
C176 C 0.40179 0.33231 1.00521 0.0
C177 C 0.40438 0.30875 0.04298 0.0
C178 C 0.35167 0.26348 0.99685 0.0
N179 N 0.37308 0.26556 0.03751 0.0
C180 C 0.42142 0.40894 0.9066 0.0
C181 C 0.49561 0.39906 0.90269 0.0
C182 C 0.50184 0.44224 0.90694 0.0
C183 C 0.4638 0.44667 0.90776 0.0
C184 C 0.45229 0.36189 0.90203 0.0
N185 N 0.41574 0.36701 0.9056 0.0
H186 H 0.39288 0.41357 0.90793 0.0
H187 H 0.44888 0.32952 0.89967 0.0
H188 H 0.4229 0.36766 0.99927 0.0
H189 H 0.32585 0.23284 0.98117 0.0
O190 O 0.33143 0.35164 0.94803 0.0
O191 O 0.29151 0.28041 0.9293 0.0
O192 O 0.36335 0.27167 0.88034 0.0
C193 C 0.2931 0.31508 0.9493 0.0
H194 H 0.29456 0.36882 0.77622 0.0
H195 H 0.42857 0.32193 0.07137 0.0
H196 H 0.52387 0.3939 0.90018 0.0
H197 H 0.46657 0.47912 0.91081 0.0
Co198 Co 0.7677 1.02831 0.77012 0.0
C199 C 0.76481 0.04239 0.87279 0.0
C200 C 0.82277 0.09704 0.84185 0.0
C201 C 0.82514 0.10265 0.89004 0.0
N202 N 0.78491 0.05909 0.83083 0.0
N203 N 0.78853 0.06842 0.90974 0.0
H204 H 0.73425 1.01076 0.87617 0.0
H205 H 0.84864 0.11817 0.81738 0.0
C206 C 0.79644 0.97389 0.82037 0.0
O207 O 0.83493 1.01117 0.82162 0.0
N208 N 0.75077 0.99692 0.71063 0.0
C209 C 0.72427 0.99883 0.67704 0.0
C210 C 0.71938 0.96959 0.64135 0.0
C211 C 0.76207 0.96719 0.69493 0.0
N212 N 0.74291 0.94949 0.65284 0.0
C213 C 0.69491 0.04157 0.7886 0.0
C214 C 0.62761 0.95426 0.77588 0.0
C215 C 0.61655 0.98806 0.77846 0.0
C216 C 0.65076 1.03192 0.78626 0.0
C217 C 0.67258 0.96545 0.77803 0.0
N218 N 0.70552 1.0089 0.78291 0.0
H219 H 0.72104 0.0759 0.79246 0.0
H220 H 0.68106 0.93969 0.77267 0.0
H221 H 0.70896 1.0194 0.67882 0.0
H222 H 0.78431 0.9592 0.71383 0.0
O223 O 0.78266 0.08306 0.73778 0.0
O224 O 0.82976 0.05861 0.74925 0.0
O225 O 0.76306 0.97384 0.80114 0.0
C226 C 0.82234 0.08897 0.73137 0.0
H227 H 0.8535 0.12842 0.90889 0.0
H228 H 0.69924 0.96291 0.60987 0.0
H229 H 0.60206 0.91997 0.76971 0.0
H230 H 0.64352 0.05885 0.78901 0.0
Co231 Co 0.79039 0.75673 0.93694 0.0
C232 C 0.77001 0.74939 0.04009 0.0
C233 C 0.7795 0.81082 1.01203 0.0
C234 C 0.77422 0.8111 0.0601 0.0
N235 N 0.77713 0.77212 0.99912 0.0
N236 N 0.76828 0.77246 0.07779 0.0
H237 H 0.76665 0.71688 0.04275 0.0
H238 H 0.78692 0.83849 0.98906 0.0
C239 C 0.8425 0.72154 0.9932 0.0
O240 O 0.80636 0.6849 1.00587 0.0
N241 N 0.8049 0.74274 0.87574 0.0
C242 C 0.77661 0.72186 0.83962 0.0
C243 C 0.80012 0.7169 0.80316 0.0
C244 C 0.84528 0.75121 0.86055 0.0
N245 N 0.84319 0.73563 0.81638 0.0
C246 C 0.70254 0.68666 0.95648 0.0
C247 C 0.71251 0.6165 0.9251 0.0
C248 C 0.66967 0.60862 0.93582 0.0
C249 C 0.66508 0.64419 0.95238 0.0
C250 C 0.7492 0.65981 0.92904 0.0
N251 N 0.744 0.69436 0.94467 0.0
H252 H 0.69785 0.7141 0.96668 0.0
H253 H 0.78155 0.66591 0.91759 0.0
H254 H 0.74121 0.71005 0.84029 0.0
H255 H 0.87528 0.76718 0.88181 0.0
O256 O 0.75397 0.77732 0.90604 0.0
O257 O 0.826 0.81928 0.92127 0.0
O258 O 0.84014 0.75009 0.96658 0.0
C259 C 0.79007 0.816 0.90257 0.0
H260 H 0.77762 0.83897 0.08068 0.0
H261 H 0.78662 0.70039 0.76972 0.0
H262 H 0.71728 0.58998 0.91143 0.0
H263 H 0.63248 0.63949 0.96063 0.0
Co264 Co 0.07383 0.7585 0.10685 0.0
C265 C 1.05786 0.73972 0.21059 0.0
C266 C 1.01407 0.75994 0.18069 0.0
C267 C 1.0082 0.75689 0.22868 0.0
N268 N 1.04543 0.74933 0.16884 0.0
N269 N 1.03566 0.74411 0.24762 0.0
H270 H 0.08331 0.73068 0.21427 0.0
H271 H 0.99808 0.772 0.15698 0.0
C272 C 0.15781 0.81605 0.16504 0.0
O273 O 0.15694 0.78068 0.18271 0.0
N274 N 0.10194 0.76953 0.04561 0.0
C275 C 0.09194 0.74044 1.00977 0.0
C276 C 0.11693 0.76331 0.97094 0.0
C277 C 0.13248 0.80947 0.02826 0.0
N278 N 0.14259 0.80674 0.98275 0.0
C279 C 1.06056 0.67366 0.13386 0.0
C280 C 0.1418 0.68581 0.10378 0.0
C281 C 0.10853 0.64286 0.11727 0.0
C282 C 0.06772 0.63739 0.13304 0.0
C283 C 0.13331 0.72145 0.1053 0.0
N284 N 0.09294 0.71514 0.12013 0.0
H285 H 1.0278 0.66783 0.14304 0.0
H286 H 0.15853 0.75374 0.09254 0.0
H287 H 0.06733 0.70536 1.01137 0.0
H288 H 0.14657 0.8401 0.04843 0.0
O289 O 1.01713 0.71713 0.07838 0.0
O290 O 1.04352 0.78968 0.0852 0.0
O291 O 0.12912 0.81204 0.13403 0.0
C292 C 1.01164 0.75103 0.07058 0.0
H293 H 0.98772 0.76678 0.24823 0.0
H294 H 0.11483 0.7492 0.9363 0.0
H295 H 0.17367 0.69158 0.0909 0.0
H296 H 1.0404 0.60473 0.14217 0.0
Co297 Co 0.34818 0.05438 0.27127 0.0
C298 C 0.34506 0.05083 0.37753 0.0
C299 C 0.32055 0.98607 0.34757 0.0
C300 C 0.32039 0.98251 0.39601 0.0
N301 N 0.33677 1.02925 0.33553 0.0
N302 N 0.33621 1.02338 0.41493 0.0
H303 H 0.35651 0.08565 0.3813 0.0
H304 H 0.31094 0.95877 0.32318 0.0
C305 C 0.3791 0.14446 0.31895 0.0
O306 O 0.41706 0.14732 0.33081 0.0
N307 N 0.35794 0.07872 0.20778 0.0
C308 C 0.37565 0.06774 0.17136 0.0
C309 C 0.37995 0.09431 0.13331 0.0
C310 C 0.35089 0.11126 0.19112 0.0
N311 N 0.36462 0.12176 0.14589 0.0
C312 C 0.42561 0.04963 0.29798 0.0
C313 C 0.48857 0.12561 0.25228 0.0
C314 C 0.50188 0.09708 0.27228 0.0
C315 C 0.46981 0.05912 0.29602 0.0
C316 C 0.44394 0.11533 0.25584 0.0
N317 N 0.41268 0.07743 0.27833 0.0
H318 H 0.40138 1.01817 0.31291 0.0
H319 H 0.43441 0.13743 0.23935 0.0
H320 H 0.38609 0.04312 0.17285 0.0
H321 H 0.33767 0.12816 0.212 0.0
O322 O 0.33352 0.99718 0.24477 0.0
O323 O 0.28467 1.01948 0.25712 0.0
O324 O 0.34957 0.11023 0.29651 0.0
C325 C 0.29258 0.98869 0.2414 0.0
H326 H 0.31075 0.95228 0.41567 0.0
H327 H 0.39392 0.094 0.09922 0.0
H328 H 0.51226 0.15515 0.23326 0.0
H329 H 0.47824 1.03541 0.31069 0.0
Co330 Co 0.34095 0.3374 0.43606 0.0
C331 C 0.34695 0.33642 0.54001 0.0
C332 C 0.37736 0.30177 0.50878 0.0
C333 C 0.38128 0.30108 0.55721 0.0
N334 N 0.3556 0.32381 0.49793 0.0
N335 N 0.36222 0.32297 0.5767 0.0
H336 H 0.33056 0.35585 0.5439 0.0
H337 H 0.38985 0.28721 0.48362 0.0
C338 C 0.26604 0.35833 0.45484 0.0
O339 O 0.27551 0.38191 0.41599 0.0
N340 N 0.32621 0.3507 0.37436 0.0
C341 C 0.35295 0.38398 0.34496 0.0
C342 C 0.32823 0.3833 0.30647 0.0
C343 C 0.2863 0.32895 0.3523 0.0
N344 N 0.28613 0.34921 0.31157 0.0
C345 C 0.42883 0.40912 0.44717 0.0
C346 C 0.4128 0.4795 0.44601 0.0
C347 C 0.45673 0.48822 0.44162 0.0
C348 C 0.46458 0.45251 0.44389 0.0
C349 C 0.37762 0.43514 0.44876 0.0
N350 N 0.38571 0.40033 0.44669 0.0
H351 H 0.43607 0.38227 0.44815 0.0
H352 H 0.34453 0.42968 0.45129 0.0
H353 H 0.38757 0.40804 0.35164 0.0
H354 H 0.25736 0.30047 0.36731 0.0
O355 O 0.37988 0.32052 0.40493 0.0
O356 O 0.30887 0.27389 0.41949 0.0
O357 O 0.28966 0.34106 0.46741 0.0
C358 C 0.3463 0.28039 0.40141 0.0
H359 H 0.39632 0.28503 0.57658 0.0
H360 H 0.33969 0.4076 0.27825 0.0
H361 H 0.40559 0.50651 0.44541 0.0
H362 H 0.49821 0.45803 0.44188 0.0
Co363 Co 1.046 0.31716 0.59907 0.0
C364 C 1.05192 0.32237 0.70397 0.0
C365 C 0.11634 0.34523 0.67379 0.0
C366 C 0.12041 0.34703 0.72235 0.0
N367 N 0.07314 0.32952 0.66206 0.0
N368 N 0.07971 0.33214 0.74109 0.0
H369 H 1.01705 0.31112 0.70784 0.0
H370 H 0.14341 0.35463 0.64921 0.0
C371 C 0.95689 0.25685 0.648 0.0
O372 O 0.95182 0.29099 0.658 0.0
N373 N 1.01899 0.30338 0.53674 0.0
C374 C 1.02688 0.33251 0.50139 0.0
C375 C 0.99835 0.31012 0.4645 0.0
C376 C 0.98671 0.26351 0.52044 0.0
N377 N 0.9733 0.26691 0.47667 0.0
C378 C 1.05299 0.39884 0.62957 0.0
C379 C 0.97672 0.3884 0.58656 0.0
C380 C 1.00697 0.42995 0.60611 0.0
C381 C 1.04511 0.43457 0.62849 0.0
C382 C 0.98571 0.35321 0.58868 0.0
N383 N 1.02369 0.35855 0.60988 0.0
H384 H 0.08455 0.40484 0.64342 0.0
H385 H 0.96257 0.322 0.57193 0.0
H386 H 1.05046 0.36787 0.50311 0.0
H387 H 0.97207 0.23296 0.54068 0.0
O388 O 0.10153 0.36032 0.57088 0.0
O389 O 0.08064 0.28918 0.58055 0.0
O390 O 0.9915 0.26232 0.62583 0.0
C391 C 0.10985 0.32817 0.56385 0.0
H392 H 0.15071 0.35746 0.74234 0.0
H393 H 0.99554 0.32451 0.43166 0.0
H394 H 0.94696 0.38348 0.56861 0.0
H395 H 0.07023 0.46646 0.64254 0.0
C396 C 0.25228 0.34887 0.23459 0.0
C397 C 0.24816 0.34226 0.28381 0.0
C398 C 0.21764 0.34751 0.20749 0.0
C399 C 0.17786 0.34025 0.22874 0.0
H400 H 0.2829 0.35596 0.21709 0.0
H401 H 0.2227 0.35393 0.16993 0.0
S402 S 0.14926 0.31896 0.35589 0.0
N403 N 0.20013 0.32652 0.35229 0.0
N404 N 0.13526 0.32386 0.30139 0.0
C405 C 0.17274 0.33227 0.27764 0.0
C406 C 0.20777 0.33321 0.30516 0.0
C407 C 0.90114 0.1595 0.41182 0.0
C408 C 0.86495 0.16436 0.39741 0.0
C409 C 0.93627 0.19287 0.43853 0.0
C410 C 0.9368 0.23255 0.4503 0.0
H411 H 0.90185 0.12948 0.40285 0.0
H412 H 0.96353 0.18807 0.44944 0.0
S413 S 0.8504 0.26157 0.42016 0.0
N414 N 0.83177 0.2116 0.3968 0.0
N415 N 0.89837 0.2748 0.4457 0.0
C416 C 0.90105 0.23788 0.43566 0.0
C417 C 0.86493 0.20362 0.40952 0.0
C418 C 0.74695 0.88379 0.5488 0.0
C419 C 0.74943 0.84842 0.57012 0.0
C420 C 0.74516 0.9167 0.57603 0.0
C421 C 0.74602 0.9158 0.62571 0.0
H422 H 0.74541 0.88559 0.51074 0.0
H423 H 0.7432 0.94319 0.55797 0.0
S424 S 0.75338 0.8309 0.69904 0.0
N425 N 0.75425 0.81538 0.64407 0.0
N426 N 0.74933 0.87627 0.69517 0.0
C427 C 0.74893 0.88084 0.64755 0.0
C428 C 0.7509 0.84738 0.61979 0.0
C429 C 0.90502 0.69266 0.7452 0.0
C430 C 0.94712 0.73086 0.73921 0.0
C431 C 0.8711 0.69463 0.77004 0.0
C432 C 0.8784 0.73466 0.79057 0.0
H433 H 0.89809 0.66121 0.7298 0.0
H434 H 0.83907 0.66455 0.77378 0.0
S435 S 0.98264 0.84393 0.78484 0.0
N436 N 0.99413 0.80985 0.75506 0.0
N437 N 0.93058 0.81338 0.80308 0.0
C438 C 0.92041 0.77302 0.78515 0.0
C439 C 0.9547 0.77119 0.75899 0.0
C440 C 0.21062 0.92309 0.93464 0.0
C441 C 0.23526 0.91797 0.89833 0.0
C442 C 0.17981 0.88652 0.96124 0.0
C443 C 0.17286 0.84336 0.95303 0.0
H444 H 0.21527 0.95576 0.9425 0.0
H445 H 0.16132 0.89219 0.98847 0.0
S446 S 0.23116 0.81299 0.86307 0.0
N447 N 0.25153 0.86702 0.85569 0.0
N448 N 0.19459 0.79823 0.90641 0.0
C449 C 0.19734 0.83786 0.91654 0.0
C450 C 0.22833 0.87514 0.88904 0.0
C451 C 0.33137 0.19874 0.08765 0.0
C452 C 0.37054 0.2288 0.06368 0.0
C453 C 0.32966 0.16399 0.11506 0.0
C454 C 0.36671 0.15768 0.11824 0.0
H455 H 0.30233 0.2027 0.08581 0.0
H456 H 0.29913 0.14158 0.13343 0.0
S457 S 0.47668 0.22738 0.06141 0.0
N458 N 0.44684 0.25008 0.04463 0.0
N459 N 0.44358 0.18474 0.0953 0.0
C460 C 0.40578 0.18737 0.09391 0.0
C461 C 0.40769 0.22294 0.06682 0.0
C462 C 0.13037 0.55571 0.05947 0.0
C463 C 0.1143 0.52151 0.09333 0.0
C464 C 0.1305 0.59584 0.06831 0.0
C465 C 0.11436 0.60309 0.11126 0.0
H466 H 0.14122 0.5507 0.02529 0.0
H467 H 0.14136 0.62047 0.04044 0.0
S468 S 0.0732 0.52526 0.21306 0.0
N469 N 0.08486 0.49845 0.17235 0.0
N470 N 0.08572 0.57371 0.18944 0.0
C471 C 0.10025 0.56975 0.14611 0.0
C472 C 0.10004 0.52904 0.13701 0.0
C473 C 0.56452 0.10716 0.21919 0.0
C474 C 0.54766 0.10406 0.2652 0.0
C475 C 0.60443 0.10671 0.21126 0.0
C476 C 0.62942 0.10419 0.2491 0.0
H477 H 0.54556 0.10764 0.18897 0.0
H478 H 0.61514 0.10697 0.17526 0.0
S479 S 0.60159 0.09834 0.37619 0.0
N480 N 0.56036 0.1003 0.34908 0.0
N481 N 0.63554 0.10031 0.3341 0.0
C482 C 0.614 0.10303 0.29522 0.0
C483 C 0.57313 0.10277 0.30329 0.0
C484 C 0.558 0.5818 0.38163 0.0
C485 C 0.57594 0.61565 0.41619 0.0
C486 C 0.51837 0.54154 0.38951 0.0
C487 C 0.4946 0.53358 0.43198 0.0
H488 H 0.57545 0.58591 0.34863 0.0
H489 H 0.50678 0.51584 0.3626 0.0
S490 S 0.52554 0.61115 0.53336 0.0
N491 N 0.56574 0.63836 0.49451 0.0
N492 N 0.49048 0.56298 0.50837 0.0
C493 C 0.51072 0.56762 0.466 0.0
C494 C 0.5515 0.6086 0.4583 0.0
C495 C 0.99506 0.52164 0.54558 0.0
C496 C 1.0033 0.55186 0.58257 0.0
C497 C 0.99394 0.48106 0.55391 0.0
C498 C 1.00153 0.46966 0.59943 0.0
H499 H 0.99088 0.53007 0.50982 0.0
H500 H 0.98918 0.45946 0.52412 0.0
S501 S 1.02134 0.53657 0.70852 0.0
N502 N 1.01674 0.56701 0.66643 0.0
N503 N 1.01457 0.49096 0.68232 0.0
C504 C 1.00814 0.4991 0.63688 0.0
C505 C 1.00907 0.54016 0.62838 0.0
C506 C 0.52035 0.99909 0.72943 0.0
C507 C 0.48469 0.9717 0.7594 0.0
C508 C 0.5624 1.00292 0.73494 0.0
C509 C 0.57031 0.97904 0.77019 0.0
H510 H 0.51638 1.01951 0.70309 0.0
H511 H 0.58934 1.02568 0.71217 0.0
S512 S 0.48709 0.89988 0.8551 0.0
N513 N 0.45931 0.91827 0.82379 0.0
N514 N 0.53826 0.92499 0.83359 0.0
C515 C 0.53439 0.94978 0.79877 0.0
C516 C 0.49166 0.94632 0.79359 0.0
C517 C 0.55647 0.52232 0.88763 0.0
C518 C 0.54713 0.48282 0.91137 0.0
C519 C 0.59647 0.5624 0.89514 0.0
C520 C 0.62925 0.56473 0.92619 0.0
H521 H 0.53231 0.5225 0.86347 0.0
H522 H 0.60164 0.59204 0.87678 0.0
S523 S 0.62252 0.47152 0.99659 0.0
N524 N 0.57483 0.44903 0.96737 0.0
N525 N 0.6506 0.52425 0.98005 0.0
C526 C 0.62136 0.52545 0.94894 0.0
C527 C 0.58025 0.48456 0.94182 0.0
C528 C 0.09497 0.35878 0.82377 0.0
C529 C 0.06793 0.32627 0.79048 0.0
C530 C 0.08385 0.35359 0.87196 0.0
C531 C 1.04544 0.31546 0.88883 0.0
H532 H 0.12462 0.38874 0.8123 0.0
H533 H 0.1053 0.3799 0.89612 0.0
S534 S 0.96621 0.21835 0.8161 0.0
N535 N 1.00267 0.2535 0.77774 0.0
N536 N 0.98214 0.24307 0.86809 0.0
C537 C 1.01863 0.28224 0.85578 0.0
C538 C 1.02978 0.28778 0.80672 0.0
C539 C 0.75535 1.01407 0.97532 0.0
C540 C 0.77999 0.05855 0.95973 0.0
C541 C 0.74952 1.00348 0.02359 0.0
C542 C 0.76833 1.03674 0.05869 0.0
H543 H 0.74141 0.98691 0.95017 0.0
H544 H 0.7304 0.9687 0.03345 0.0
S545 S 0.83446 0.1588 0.03706 0.0
N546 N 0.82082 0.13649 0.98383 0.0
N547 N 0.81267 0.11645 0.07409 0.0
C548 C 0.79246 0.08149 0.04371 0.0
C549 C 0.79766 0.09236 0.99446 0.0
C550 C 0.7931 0.74206 0.14256 0.0
C551 C 0.76871 0.76221 0.12716 0.0
C552 C 0.79915 0.73751 0.19088 0.0
C553 C 0.78066 0.75248 0.22568 0.0
H554 H 0.80942 0.73162 0.11714 0.0
H555 H 0.81935 0.72315 0.20119 0.0
S556 S 0.71171 0.80518 0.2038 0.0
N557 N 0.72368 0.79473 0.15054 0.0
N558 N 0.73588 0.78721 0.24108 0.0
C559 C 0.75477 0.77112 0.2107 0.0
C560 C 0.74865 0.77578 0.16154 0.0
C561 C 0.09963 0.76522 0.36126 0.0
C562 C 0.06681 0.75531 0.39588 0.0
C563 C 0.08898 0.75962 0.31297 0.0
C564 C 1.04502 0.7439 0.29733 0.0
H565 H 0.13402 0.77805 0.37157 0.0
H566 H 0.11571 0.7694 0.28771 0.0
S567 S 0.94612 0.71092 0.37339 0.0
N568 N 0.98815 0.72825 0.41078 0.0
N569 N 0.96792 0.71563 0.32043 0.0
C570 C 1.01157 0.7322 0.3316 0.0
C571 C 1.02247 0.73836 0.38072 0.0
C572 C 0.32543 1.01268 0.54765 0.0
C573 C 0.36093 0.05355 0.56391 0.0
C574 C 0.31711 1.0036 0.49917 0.0
C575 C 0.34385 1.03487 0.46469 0.0
H576 H 0.30463 0.98688 0.57248 0.0
H577 H 0.28957 0.97152 0.48865 0.0
S578 S 0.43958 0.14811 0.4887 0.0
N579 N 0.42121 0.1268 0.54156 0.0
N580 N 0.40713 0.10904 0.45076 0.0
C581 C 0.3789 0.07634 0.4805 0.0
C582 C 0.38705 0.08573 0.52994 0.0
C583 C 0.31748 0.32483 0.64377 0.0
C584 C 0.35752 0.32928 0.62634 0.0
C585 C 0.31171 0.3293 0.69219 0.0
C586 C 0.34587 0.3387 0.72507 0.0
H587 H 0.29002 0.31676 0.61988 0.0
H588 H 0.27987 0.32436 0.70407 0.0
S589 S 0.45917 0.3592 0.69642 0.0
N590 N 0.43304 0.34705 0.64506 0.0
N591 N 0.42268 0.35632 0.73576 0.0
C592 C 0.38662 0.3447 0.70777 0.0
C593 C 0.39232 0.33979 0.65853 0.0
C594 C 0.21151 0.27386 0.96813 0.0
C595 C 0.25292 0.31341 0.97067 0.0
C596 C 0.17288 0.27116 0.98719 0.0
C597 C 0.17368 0.30787 1.00983 0.0
H598 H 0.2087 0.24455 0.9511 0.0
H599 H 0.14203 0.2397 0.984 0.0
S600 S 0.27386 0.41936 0.02655 0.0
N601 N 0.29256 0.39041 0.99802 0.0
N602 N 0.21992 0.38517 0.03394 0.0
C603 C 0.21491 0.34772 1.01278 0.0
C604 C 0.25444 0.35051 0.99323 0.0
C605 C 0.97103 0.1869 0.13763 0.0
C606 C 0.97264 0.22821 0.13551 0.0
C607 C 0.93526 0.14969 0.15892 0.0
C608 C 0.89924 0.15189 0.1792 0.0
H609 H 0.99777 0.18311 0.12286 0.0
H610 H 0.93612 0.11889 0.15947 0.0
S611 S 0.8865 0.25205 0.18223 0.0
N612 N 0.93449 0.26903 0.15503 0.0
N613 N 0.86723 0.19904 0.19503 0.0
C614 C 0.90015 0.19294 0.17709 0.0
C615 C 0.93676 0.23102 0.1553 0.0
C616 C 0.79422 0.90638 0.34172 0.0
C617 C 0.75147 0.86845 0.34538 0.0
C618 C 0.80029 0.94656 0.32237 0.0
C619 C 0.76376 0.95054 0.30676 0.0
H620 H 0.8233 0.90461 0.35252 0.0
H621 H 0.83384 0.97463 0.31947 0.0
S622 S 0.64471 0.86153 0.31107 0.0
N623 N 0.67199 0.83805 0.33328 0.0
N624 N 0.68314 0.91299 0.29778 0.0
C625 C 0.72081 0.91309 0.31148 0.0
C626 C 0.71475 0.87227 0.33053 0.0
C627 C 0.9049 0.78068 0.47988 0.0
C628 C 0.8589 0.74937 0.47961 0.0
C629 C 0.93515 0.77341 0.50653 0.0
C630 C 0.92036 0.73502 0.53469 0.0
H631 H 0.91762 0.81106 0.45949 0.0
H632 H 0.97013 0.79864 0.50619 0.0
S633 S 0.80379 0.64178 0.54466 0.0
N634 N 0.80063 0.6775 0.50867 0.0
N635 N 0.85697 0.66446 0.55873 0.0
C636 C 0.87466 0.70319 0.53394 0.0
C637 C 0.84411 0.7102 0.50646 0.0
C638 C 0.22002 0.85576 0.68796 0.0
C639 C 0.2326 0.90112 0.69102 0.0
C640 C 0.1803 0.82458 0.6658 0.0
C641 C 0.151 0.83705 0.64561 0.0
H642 H 0.24095 0.84389 0.70293 0.0
H643 H 0.17256 0.79018 0.66471 0.0
S644 S 0.16806 0.95163 0.64308 0.0
N645 N 0.21229 0.95705 0.6712 0.0
N646 N 0.13755 0.89822 0.62965 0.0
C647 C 0.16299 0.88226 0.64815 0.0
C648 C 0.20374 0.91428 0.67072 0.0
C649 C 0.40347 0.19328 0.86266 0.0
C650 C 0.37554 0.21166 0.85778 0.0
C651 C 0.39698 0.15664 0.83554 0.0
C652 C 0.36181 0.13607 0.80267 0.0
H653 H 0.4304 0.2069 0.88821 0.0
H654 H 0.41907 0.14348 0.84169 0.0
S655 S 0.28064 0.17275 0.77384 0.0
N656 N 0.31258 0.20787 0.81527 0.0
N657 N 0.29996 0.13836 0.76497 0.0
C658 C 0.33431 0.15478 0.79628 0.0
C659 C 0.3413 0.19268 0.82357 0.0
C660 C 0.82796 0.89774 0.8858 0.0
C661 C 0.79015 0.85518 0.88092 0.0
C662 C 0.82928 0.93558 0.8664 0.0
C663 C 0.79289 0.93269 0.84107 0.0
H664 H 0.85691 0.9021 0.90505 0.0
H665 H 0.85932 0.96745 0.87149 0.0
S666 S 0.68616 0.82871 0.81676 0.0
N667 N 0.71544 0.81211 0.84801 0.0
N668 N 0.71799 0.88324 0.81142 0.0
C669 C 0.75481 0.89026 0.83568 0.0
C670 C 0.75344 0.85157 0.85558 0.0
C671 C 0.89128 0.69479 0.02854 0.0
C672 C 0.88661 0.73025 1.01107 0.0
C673 C 0.93198 0.70189 0.04683 0.0
C674 C 0.96971 0.74487 0.04915 0.0
H675 H 0.86325 0.66107 0.02806 0.0
H676 H 0.93357 0.67338 0.05999 0.0
S677 S 0.97563 0.84929 1.00784 0.0
N678 N 0.92376 0.81017 0.99675 0.0
N679 N 0.99997 0.82348 0.03178 0.0
C680 C 0.9657 0.7807 0.03166 0.0
C681 C 0.92431 0.7734 1.01243 0.0
C682 C 0.2319 0.86724 0.20236 0.0
C683 C 0.19183 0.86099 0.18271 0.0
C684 C 0.26407 0.90862 0.22088 0.0
C685 C 0.25728 0.94544 0.22156 0.0
H686 H 0.23869 0.83994 0.20326 0.0
H687 H 0.29437 0.91154 0.23537 0.0
S688 S 0.15795 0.94692 0.17488 0.0
N689 N 0.14728 0.89553 0.16489 0.0
N690 N 0.20737 0.97297 0.20066 0.0
C691 C 0.21732 0.93974 0.20226 0.0
C692 C 0.18479 0.89769 0.18255 0.0
C693 C 0.39595 0.25269 0.37184 0.0
C694 C 0.35235 0.24462 0.37953 0.0
C695 C 0.40392 0.22037 0.35172 0.0
C696 C 0.36871 0.1785 0.33769 0.0
H697 H 0.42453 0.28423 0.38199 0.0
H698 H 0.43819 0.2284 0.3472 0.0
S699 S 0.24806 0.14047 0.34918 0.0
N700 N 0.27328 0.19155 0.37108 0.0
N701 N 0.28814 0.13077 0.33264 0.0
C702 C 0.32479 0.17002 0.34449 0.0
C703 C 0.31666 0.20298 0.36563 0.0
C704 C 0.16851 0.30828 0.54191 0.0
C705 C 0.1501 0.33622 0.53688 0.0
C706 C 0.20671 0.3162 0.51631 0.0
C707 C 0.2274 0.35185 0.48404 0.0
H708 H 0.1535 0.2803 0.56599 0.0
H709 H 0.21957 0.29371 0.52119 0.0
S710 S 0.19178 0.43445 0.45763 0.0
N711 N 0.15555 0.40094 0.4971 0.0
N712 N 0.22639 0.41545 0.44908 0.0
C713 C 0.20916 0.37994 0.47884 0.0
C714 C 0.17081 0.37222 0.50519 0.0
C715 C 0.87936 0.20309 0.67363 0.0
C716 C 0.92327 0.2123 0.66616 0.0
C717 C 0.84713 0.16282 0.69369 0.0
C718 C 0.85739 0.13002 0.70783 0.0
H719 H 0.86972 0.22736 0.66408 0.0
H720 H 0.81396 0.15784 0.69883 0.0
S721 S 0.9678 0.13782 0.69648 0.0
N722 N 0.97552 0.18522 0.67429 0.0
N723 N 0.91497 0.10956 0.71268 0.0
C724 C 0.90113 0.13853 0.70021 0.0
C725 C 0.934 0.17958 0.67918 0.0
loop_
_geom_bond_atom_site_label_1
_geom_bond_atom_site_label_2
_geom_bond_distance
_geom_bond_site_symmetry_2
_ccdc_geom_bond_type
Co0 N4 2.148 1_554 S
Co0 N10 2.128 . S
Co0 N20 2.194 . S
Co0 O25 2.351 . S
Co0 O26 2.155 . S
Co0 O27 2.096 . S
C1 N4 1.301 . S
C1 N5 1.328 . S
C1 H6 0.921 1_455 S
C2 C3 1.333 . S
C2 N4 1.317 . S
C2 H7 0.930 . S
C3 C2 1.333 . S
C3 N5 1.350 . S
C3 H29 0.931 . S
N4 Co0 2.148 1_556 S
N4 C1 1.301 . S
N4 C2 1.317 . S
N5 C1 1.328 . S
N5 C3 1.350 . S
H6 C1 0.921 1_655 S
H7 C2 0.930 . S
C8 O9 1.224 . S
C8 O27 1.247 . S
O9 C8 1.224 . S
N10 Co0 2.128 . S
N10 C11 1.355 . S
N10 C13 1.311 . S
C11 N10 1.355 . S
C11 C12 1.363 . S
C11 H23 0.929 . S
C12 C11 1.363 . S
C12 N14 1.375 . S
C12 H30 0.931 . S
C13 N10 1.311 . S
C13 N14 1.347 . S
C13 H24 0.929 . S
N14 C12 1.375 . S
N14 C13 1.347 . S
C15 C18 1.365 . S
C15 N20 1.328 . S
C15 H21 0.929 . S
C16 C17 1.362 . S
C16 C19 1.378 . S
C16 H31 0.929 . S
C17 C16 1.362 . S
C17 C18 1.366 . S
C18 C15 1.365 . S
C18 C17 1.366 . S
C18 H32 0.930 . S
C19 C16 1.378 . S
C19 N20 1.315 . S
C19 H22 0.930 . S
N20 Co0 2.194 . S
N20 C15 1.328 . S
N20 C19 1.315 . S
H21 C15 0.929 . S
H22 C19 0.930 . S
H23 C11 0.929 . S
H24 C13 0.929 . S
O25 Co0 2.351 . S
O25 C28 1.244 1_455 S
O26 Co0 2.155 . S
O26 C28 1.240 1_455 S
O27 Co0 2.096 . S
O27 C8 1.247 . S
C28 O25 1.244 1_655 S
C28 O26 1.240 1_655 S
H29 C3 0.931 . S
H30 C12 0.931 . S
H31 C16 0.929 . S
H32 C18 0.930 . S
Co33 N37 2.148 . S
Co33 N43 2.128 . S
Co33 N53 2.194 . S
Co33 O58 2.351 . S
Co33 O59 2.155 . S
Co33 O60 2.096 . S
C34 N37 1.301 . S
C34 N38 1.328 . S
C34 H39 0.927 1_545 S
C35 C36 1.333 . S
C35 N37 1.317 . S
C35 H40 0.930 . S
C36 C35 1.333 . S
C36 N38 1.350 . S
C36 H62 0.931 . S
N37 Co33 2.148 . S
N37 C34 1.301 . S
N37 C35 1.317 . S
N38 C34 1.328 . S
N38 C36 1.350 . S
H39 C34 0.927 1_565 S
H40 C35 0.930 . S
C41 O42 1.224 . S
C41 O60 1.247 . S
O42 C41 1.224 . S
N43 Co33 2.128 . S
N43 C44 1.355 . S
N43 C46 1.311 . S
C44 N43 1.355 . S
C44 C45 1.363 . S
C44 H56 0.929 . S
C45 C44 1.363 . S
C45 N47 1.375 . S
C45 H63 0.931 . S
C46 N43 1.311 . S
C46 N47 1.347 . S
C46 H57 0.929 . S
N47 C45 1.375 . S
N47 C46 1.347 . S
C48 C51 1.365 . S
C48 N53 1.328 . S
C48 H54 0.929 . S
C49 C50 1.362 . S
C49 C52 1.378 . S
C49 H64 0.929 . S
C50 C49 1.362 . S
C50 C51 1.366 . S
C51 C48 1.365 . S
C51 C50 1.366 . S
C51 H65 0.930 . S
C52 C49 1.378 . S
C52 N53 1.315 . S
C52 H55 0.930 . S
N53 Co33 2.194 . S
N53 C48 1.328 . S
N53 C52 1.315 . S
H54 C48 0.929 . S
H55 C52 0.930 . S
H56 C44 0.929 . S
H57 C46 0.929 . S
O58 Co33 2.351 . S
O58 C61 1.244 1_545 S
O59 Co33 2.155 . S
O59 C61 1.240 1_545 S
O60 Co33 2.096 . S
O60 C41 1.247 . S
C61 O58 1.244 1_565 S
C61 O59 1.240 1_565 S
H62 C36 0.931 . S
H63 C45 0.931 . S
H64 C49 0.929 . S
H65 C51 0.930 . S
Co66 N70 2.148 . S
Co66 N76 2.128 . S
Co66 N86 2.194 . S
Co66 O91 2.351 . S
Co66 O92 2.155 . S
Co66 O93 2.096 . S
C67 N70 1.301 . S
C67 N71 1.328 . S
C67 H72 0.930 . S
C68 C69 1.333 . S
C68 N70 1.317 . S
C68 H73 0.930 . S
C69 C68 1.333 . S
C69 N71 1.350 . S
C69 H95 0.931 . S
N70 Co66 2.148 . S
N70 C67 1.301 . S
N70 C68 1.317 . S
N71 C67 1.328 . S
N71 C69 1.350 . S
H72 C67 0.930 . S
H73 C68 0.930 . S
C74 O75 1.224 . S
C74 O93 1.247 . S
O75 C74 1.224 . S
N76 Co66 2.128 . S
N76 C77 1.355 . S
N76 C79 1.311 . S
C77 N76 1.355 . S
C77 C78 1.363 . S
C77 H89 0.929 . S
C78 C77 1.363 . S
C78 N80 1.375 . S
C78 H96 0.931 . S
C79 N76 1.311 . S
C79 N80 1.347 . S
C79 H90 0.929 . S
N80 C78 1.375 . S
N80 C79 1.347 . S
C81 C84 1.365 . S
C81 N86 1.328 . S
C81 H87 0.929 . S
C82 C83 1.362 . S
C82 C85 1.378 . S
C82 H97 0.929 . S
C83 C82 1.362 . S
C83 C84 1.366 . S
C84 C81 1.365 . S
C84 C83 1.366 . S
C84 H98 0.930 . S
C85 C82 1.378 . S
C85 N86 1.315 . S
C85 H88 0.930 . S
N86 Co66 2.194 . S
N86 C81 1.328 . S
N86 C85 1.315 . S
H87 C81 0.929 . S
H88 C85 0.930 . S
H89 C77 0.929 . S
H90 C79 0.929 . S
O91 Co66 2.351 . S
O91 C94 1.244 . S
O92 Co66 2.155 . S
O92 C94 1.240 . S
O93 Co66 2.096 . S
O93 C74 1.247 . S
C94 O91 1.244 . S
C94 O92 1.240 . S
H95 C69 0.931 . S
H96 C78 0.931 . S
H97 C82 0.929 . S
H98 C84 0.930 . S
Co99 N103 2.148 . S
Co99 N109 2.128 . S
Co99 N119 2.194 . S
Co99 O124 2.351 . S
Co99 O125 2.155 . S
Co99 O126 2.096 . S
C100 N103 1.301 . S
C100 N104 1.328 . S
C100 H105 0.921 1_655 S
C101 C102 1.333 . S
C101 N103 1.317 . S
C101 H106 0.930 . S
C102 C101 1.333 . S
C102 N104 1.350 . S
C102 H128 0.931 . S
N103 Co99 2.148 . S
N103 C100 1.301 . S
N103 C101 1.317 . S
N104 C100 1.328 . S
N104 C102 1.350 . S
H105 C100 0.921 1_455 S
H106 C101 0.930 . S
C107 O108 1.224 . S
C107 O126 1.247 . S
O108 C107 1.224 . S
N109 Co99 2.128 . S
N109 C110 1.355 . S
N109 C112 1.311 . S
C110 N109 1.355 . S
C110 C111 1.363 . S
C110 H122 0.929 . S
C111 C110 1.363 . S
C111 N113 1.375 . S
C111 H129 0.931 . S
C112 N109 1.311 . S
C112 N113 1.347 . S
C112 H123 0.929 . S
N113 C111 1.375 . S
N113 C112 1.347 . S
C114 C117 1.365 . S
C114 N119 1.328 . S
C114 H120 0.929 . S
C115 C116 1.362 . S
C115 C118 1.378 . S
C115 H130 0.929 . S
C116 C115 1.362 . S
C116 C117 1.366 . S
C117 C114 1.365 . S
C117 C116 1.366 . S
C117 H131 0.930 . S
C118 C115 1.378 . S
C118 N119 1.315 . S
C118 H121 0.930 . S
N119 Co99 2.194 . S
N119 C114 1.328 . S
N119 C118 1.315 . S
H120 C114 0.929 . S
H121 C118 0.930 . S
H122 C110 0.929 . S
H123 C112 0.929 . S
O124 Co99 2.351 . S
O124 C127 1.244 1_655 S
O125 Co99 2.155 . S
O125 C127 1.240 1_655 S
O126 Co99 2.096 . S
O126 C107 1.247 . S
C127 O124 1.244 1_455 S
C127 O125 1.240 1_455 S
H128 C102 0.931 . S
H129 C111 0.931 . S
H130 C115 0.929 . S
H131 C117 0.930 . S
Co132 N136 2.148 . S
Co132 N142 2.128 . S
Co132 N152 2.194 . S
Co132 O157 2.351 . S
Co132 O158 2.155 . S
Co132 O159 2.096 . S
C133 N136 1.301 . S
C133 N137 1.328 . S
C133 H138 0.927 1_565 S
C134 C135 1.333 . S
C134 N136 1.317 . S
C134 H139 0.930 . S
C135 C134 1.333 . S
C135 N137 1.350 . S
C135 H161 0.931 . S
N136 Co132 2.148 . S
N136 C133 1.301 . S
N136 C134 1.317 . S
N137 C133 1.328 . S
N137 C135 1.350 . S
H138 C133 0.927 1_545 S
H139 C134 0.930 . S
C140 O141 1.224 . S
C140 O159 1.247 . S
O141 C140 1.224 . S
N142 Co132 2.128 . S
N142 C143 1.355 . S
N142 C145 1.311 . S
C143 N142 1.355 . S
C143 C144 1.363 . S
C143 H155 0.929 . S
C144 C143 1.363 . S
C144 N146 1.375 . S
C144 H162 0.931 . S
C145 N142 1.311 . S
C145 N146 1.347 . S
C145 H156 0.929 . S
N146 C144 1.375 . S
N146 C145 1.347 . S
C147 C150 1.365 . S
C147 N152 1.328 . S
C147 H153 0.929 . S
C148 C149 1.362 . S
C148 C151 1.378 . S
C148 H163 0.929 . S
C149 C148 1.362 . S
C149 C150 1.366 . S
C150 C147 1.365 . S
C150 C149 1.366 . S
C150 H164 0.930 . S
C151 C148 1.378 . S
C151 N152 1.315 . S
C151 H154 0.930 . S
N152 Co132 2.194 . S
N152 C147 1.328 . S
N152 C151 1.315 . S
H153 C147 0.929 . S
H154 C151 0.930 . S
H155 C143 0.929 . S
H156 C145 0.929 . S
O157 Co132 2.351 . S
O157 C160 1.244 1_565 S
O158 Co132 2.155 . S
O158 C160 1.240 1_565 S
O159 Co132 2.096 . S
O159 C140 1.247 . S
C160 O157 1.244 1_545 S
C160 O158 1.240 1_545 S
H161 C135 0.931 . S
H162 C144 0.931 . S
H163 C148 0.929 . S
H164 C150 0.930 . S
Co165 N169 2.148 . S
Co165 N175 2.128 . S
Co165 N185 2.194 . S
Co165 O190 2.351 . S
Co165 O191 2.155 . S
Co165 O192 2.096 . S
C166 N169 1.301 . S
C166 N170 1.328 . S
C166 H171 0.930 . S
C167 C168 1.333 . S
C167 N169 1.317 . S
C167 H172 0.930 . S
C168 C167 1.333 . S
C168 N170 1.350 . S
C168 H194 0.931 . S
N169 Co165 2.148 . S
N169 C166 1.301 . S
N169 C167 1.317 . S
N170 C166 1.328 . S
N170 C168 1.350 . S
H171 C166 0.930 . S
H172 C167 0.930 . S
C173 O174 1.224 . S
C173 O192 1.247 . S
O174 C173 1.224 . S
N175 Co165 2.128 . S
N175 C176 1.355 . S
N175 C178 1.311 . S
C176 N175 1.355 . S
C176 C177 1.363 1_556 S
C176 H188 0.929 . S
C177 C176 1.363 1_554 S
C177 N179 1.375 . S
C177 H195 0.931 . S
C178 N175 1.311 . S
C178 N179 1.347 1_556 S
C178 H189 0.929 . S
N179 C177 1.375 . S
N179 C178 1.347 1_554 S
C180 C183 1.365 . S
C180 N185 1.328 . S
C180 H186 0.929 . S
C181 C182 1.362 . S
C181 C184 1.378 . S
C181 H196 0.929 . S
C182 C181 1.362 . S
C182 C183 1.366 . S
C183 C180 1.365 . S
C183 C182 1.366 . S
C183 H197 0.930 . S
C184 C181 1.378 . S
C184 N185 1.315 . S
C184 H187 0.930 . S
N185 Co165 2.194 . S
N185 C180 1.328 . S
N185 C184 1.315 . S
H186 C180 0.929 . S
H187 C184 0.930 . S
H188 C176 0.929 . S
H189 C178 0.929 . S
O190 Co165 2.351 . S
O190 C193 1.244 . S
O191 Co165 2.155 . S
O191 C193 1.240 . S
O192 Co165 2.096 . S
O192 C173 1.247 . S
C193 O190 1.244 . S
C193 O191 1.240 . S
H194 C168 0.931 . S
H195 C177 0.931 . S
H196 C181 0.929 . S
H197 C183 0.930 . S
Co198 N202 2.148 . S
Co198 N208 2.128 . S
Co198 N218 2.194 . S
Co198 O223 2.351 . S
Co198 O224 2.155 . S
Co198 O225 2.096 . S
C199 N202 1.301 . S
C199 N203 1.328 . S
C199 H204 0.921 1_565 S
C200 C201 1.333 . S
C200 N202 1.317 . S
C200 H205 0.930 . S
C201 C200 1.333 . S
C201 N203 1.350 . S
C201 H227 0.931 . S
N202 Co198 2.148 . S
N202 C199 1.301 . S
N202 C200 1.317 . S
N203 C199 1.328 . S
N203 C201 1.350 . S
H204 C199 0.921 1_545 S
H205 C200 0.930 . S
C206 O207 1.224 . S
C206 O225 1.247 . S
O207 C206 1.224 . S
N208 Co198 2.128 . S
N208 C209 1.355 . S
N208 C211 1.311 . S
C209 N208 1.355 . S
C209 C210 1.363 . S
C209 H221 0.929 . S
C210 C209 1.363 . S
C210 N212 1.375 . S
C210 H228 0.931 . S
C211 N208 1.311 . S
C211 N212 1.347 . S
C211 H222 0.929 . S
N212 C210 1.375 . S
N212 C211 1.347 . S
C213 C216 1.365 . S
C213 N218 1.328 . S
C213 H219 0.929 . S
C214 C215 1.362 . S
C214 C217 1.378 . S
C214 H229 0.929 . S
C215 C214 1.362 . S
C215 C216 1.366 . S
C216 C213 1.365 . S
C216 C215 1.366 . S
C216 H230 0.930 . S
C217 C214 1.378 . S
C217 N218 1.315 . S
C217 H220 0.930 . S
N218 Co198 2.194 . S
N218 C213 1.328 . S
N218 C217 1.315 . S
H219 C213 0.929 . S
H220 C217 0.930 . S
H221 C209 0.929 . S
H222 C211 0.929 . S
O223 Co198 2.351 . S
O223 C226 1.244 1_565 S
O224 Co198 2.155 . S
O224 C226 1.240 1_565 S
O225 Co198 2.096 . S
O225 C206 1.247 . S
C226 O223 1.244 1_545 S
C226 O224 1.240 1_545 S
H227 C201 0.931 . S
H228 C210 0.931 . S
H229 C214 0.929 . S
H230 C216 0.930 . S
Co231 N235 2.148 1_556 S
Co231 N241 2.128 . S
Co231 N251 2.194 . S
Co231 O256 2.351 . S
Co231 O257 2.155 . S
Co231 O258 2.096 . S
C232 N235 1.301 . S
C232 N236 1.328 . S
C232 H237 0.930 . S
C233 C234 1.333 . S
C233 N235 1.317 . S
C233 H238 0.930 . S
C234 C233 1.333 . S
C234 N236 1.350 . S
C234 H260 0.931 . S
N235 Co231 2.148 1_554 S
N235 C232 1.301 . S
N235 C233 1.317 . S
N236 C232 1.328 . S
N236 C234 1.350 . S
H237 C232 0.930 . S
H238 C233 0.930 . S
C239 O240 1.224 . S
C239 O258 1.247 . S
O240 C239 1.224 . S
N241 Co231 2.128 . S
N241 C242 1.355 . S
N241 C244 1.311 . S
C242 N241 1.355 . S
C242 C243 1.363 . S
C242 H254 0.929 . S
C243 C242 1.363 . S
C243 N245 1.375 . S
C243 H261 0.931 . S
C244 N241 1.311 . S
C244 N245 1.347 . S
C244 H255 0.929 . S
N245 C243 1.375 . S
N245 C244 1.347 . S
C246 C249 1.365 . S
C246 N251 1.328 . S
C246 H252 0.929 . S
C247 C248 1.362 . S
C247 C250 1.378 . S
C247 H262 0.929 . S
C248 C247 1.362 . S
C248 C249 1.366 . S
C249 C246 1.365 . S
C249 C248 1.366 . S
C249 H263 0.930 . S
C250 C247 1.378 . S
C250 N251 1.315 . S
C250 H253 0.930 . S
N251 Co231 2.194 . S
N251 C246 1.328 . S
N251 C250 1.315 . S
H252 C246 0.929 . S
H253 C250 0.930 . S
H254 C242 0.929 . S
H255 C244 0.929 . S
O256 Co231 2.351 . S
O256 C259 1.244 . S
O257 Co231 2.155 . S
O257 C259 1.240 . S
O258 Co231 2.096 . S
O258 C239 1.247 . S
C259 O256 1.244 . S
C259 O257 1.240 . S
H260 C234 0.931 . S
H261 C243 0.931 . S
H262 C247 0.929 . S
H263 C249 0.930 . S
Co264 N268 2.148 . S
Co264 N274 2.128 . S
Co264 N284 2.194 . S
Co264 O289 2.351 . S
Co264 O290 2.155 . S
Co264 O291 2.096 . S
C265 N268 1.301 . S
C265 N269 1.328 . S
C265 H270 0.927 1_455 S
C266 C267 1.333 . S
C266 N268 1.317 . S
C266 H271 0.930 . S
C267 C266 1.333 . S
C267 N269 1.350 . S
C267 H293 0.931 . S
N268 Co264 2.148 . S
N268 C265 1.301 . S
N268 C266 1.317 . S
N269 C265 1.328 . S
N269 C267 1.350 . S
H270 C265 0.927 1_655 S
H271 C266 0.930 . S
C272 O273 1.224 . S
C272 O291 1.247 . S
O273 C272 1.224 . S
N274 Co264 2.128 . S
N274 C275 1.355 . S
N274 C277 1.311 . S
C275 N274 1.355 . S
C275 C276 1.363 1_554 S
C275 H287 0.929 . S
C276 C275 1.363 1_556 S
C276 N278 1.375 . S
C276 H294 0.931 . S
C277 N274 1.311 . S
C277 N278 1.347 1_554 S
C277 H288 0.929 . S
N278 C276 1.375 . S
N278 C277 1.347 1_556 S
C279 C282 1.365 . S
C279 N284 1.328 . S
C279 H285 0.929 . S
C280 C281 1.362 . S
C280 C283 1.378 . S
C280 H295 0.929 . S
C281 C280 1.362 . S
C281 C282 1.366 . S
C282 C279 1.365 . S
C282 C281 1.366 . S
C282 H296 0.930 . S
C283 C280 1.378 . S
C283 N284 1.315 . S
C283 H286 0.930 . S
N284 Co264 2.194 . S
N284 C279 1.328 . S
N284 C283 1.315 . S
H285 C279 0.929 . S
H286 C283 0.930 . S
H287 C275 0.929 . S
H288 C277 0.929 . S
O289 Co264 2.351 . S
O289 C292 1.244 1_455 S
O290 Co264 2.155 . S
O290 C292 1.240 1_455 S
O291 Co264 2.096 . S
O291 C272 1.247 . S
C292 O289 1.244 1_655 S
C292 O290 1.240 1_655 S
H293 C267 0.931 . S
H294 C276 0.931 . S
H295 C280 0.929 . S
H296 C282 0.930 . S
Co297 N301 2.148 . S
Co297 N307 2.128 . S
Co297 N317 2.194 . S
Co297 O322 2.351 . S
Co297 O323 2.155 . S
Co297 O324 2.096 . S
C298 N301 1.301 . S
C298 N302 1.328 . S
C298 H303 0.921 1_545 S
C299 C300 1.333 . S
C299 N301 1.317 . S
C299 H304 0.930 . S
C300 C299 1.333 . S
C300 N302 1.350 . S
C300 H326 0.931 . S
N301 Co297 2.148 . S
N301 C298 1.301 . S
N301 C299 1.317 . S
N302 C298 1.328 . S
N302 C300 1.350 . S
H303 C298 0.921 1_565 S
H304 C299 0.930 . S
C305 O306 1.224 . S
C305 O324 1.247 . S
O306 C305 1.224 . S
N307 Co297 2.128 . S
N307 C308 1.355 . S
N307 C310 1.311 . S
C308 N307 1.355 . S
C308 C309 1.363 . S
C308 H320 0.929 . S
C309 C308 1.363 . S
C309 N311 1.375 . S
C309 H327 0.931 . S
C310 N307 1.311 . S
C310 N311 1.347 . S
C310 H321 0.929 . S
N311 C309 1.375 . S
N311 C310 1.347 . S
C312 C315 1.365 . S
C312 N317 1.328 . S
C312 H318 0.929 . S
C313 C314 1.362 . S
C313 C316 1.378 . S
C313 H328 0.929 . S
C314 C313 1.362 . S
C314 C315 1.366 . S
C315 C312 1.365 . S
C315 C314 1.366 . S
C315 H329 0.930 . S
C316 C313 1.378 . S
C316 N317 1.315 . S
C316 H319 0.930 . S
N317 Co297 2.194 . S
N317 C312 1.328 . S
N317 C316 1.315 . S
H318 C312 0.929 . S
H319 C316 0.930 . S
H320 C308 0.929 . S
H321 C310 0.929 . S
O322 Co297 2.351 . S
O322 C325 1.244 1_545 S
O323 Co297 2.155 . S
O323 C325 1.240 1_545 S
O324 Co297 2.096 . S
O324 C305 1.247 . S
C325 O322 1.244 1_565 S
C325 O323 1.240 1_565 S
H326 C300 0.931 . S
H327 C309 0.931 . S
H328 C313 0.929 . S
H329 C315 0.930 . S
Co330 N334 2.148 . S
Co330 N340 2.128 . S
Co330 N350 2.194 . S
Co330 O355 2.351 . S
Co330 O356 2.155 . S
Co330 O357 2.096 . S
C331 N334 1.301 . S
C331 N335 1.328 . S
C331 H336 0.930 . S
C332 C333 1.333 . S
C332 N334 1.317 . S
C332 H337 0.930 . S
C333 C332 1.333 . S
C333 N335 1.350 . S
C333 H359 0.931 . S
N334 Co330 2.148 . S
N334 C331 1.301 . S
N334 C332 1.317 . S
N335 C331 1.328 . S
N335 C333 1.350 . S
H336 C331 0.930 . S
H337 C332 0.930 . S
C338 O339 1.224 . S
C338 O357 1.247 . S
O339 C338 1.224 . S
N340 Co330 2.128 . S
N340 C341 1.355 . S
N340 C343 1.311 . S
C341 N340 1.355 . S
C341 C342 1.363 . S
C341 H353 0.929 . S
C342 C341 1.363 . S
C342 N344 1.375 . S
C342 H360 0.931 . S
C343 N340 1.311 . S
C343 N344 1.347 . S
C343 H354 0.929 . S
N344 C342 1.375 . S
N344 C343 1.347 . S
C345 C348 1.365 . S
C345 N350 1.328 . S
C345 H351 0.929 . S
C346 C347 1.362 . S
C346 C349 1.378 . S
C346 H361 0.929 . S
C347 C346 1.362 . S
C347 C348 1.366 . S
C348 C345 1.365 . S
C348 C347 1.366 . S
C348 H362 0.930 . S
C349 C346 1.378 . S
C349 N350 1.315 . S
C349 H352 0.930 . S
N350 Co330 2.194 . S
N350 C345 1.328 . S
N350 C349 1.315 . S
H351 C345 0.929 . S
H352 C349 0.930 . S
H353 C341 0.929 . S
H354 C343 0.929 . S
O355 Co330 2.351 . S
O355 C358 1.244 . S
O356 Co330 2.155 . S
O356 C358 1.240 . S
O357 Co330 2.096 . S
O357 C338 1.247 . S
C358 O355 1.244 . S
C358 O356 1.240 . S
H359 C333 0.931 . S
H360 C342 0.931 . S
H361 C346 0.929 . S
H362 C348 0.930 . S
Co363 N367 2.148 . S
Co363 N373 2.128 . S
Co363 N383 2.194 . S
Co363 O388 2.351 . S
Co363 O389 2.155 . S
Co363 O390 2.096 . S
C364 N367 1.301 . S
C364 N368 1.328 . S
C364 H369 0.927 1_655 S
C365 C366 1.333 . S
C365 N367 1.317 . S
C365 H370 0.930 . S
C366 C365 1.333 . S
C366 N368 1.350 . S
C366 H392 0.931 . S
N367 Co363 2.148 . S
N367 C364 1.301 . S
N367 C365 1.317 . S
N368 C364 1.328 . S
N368 C366 1.350 . S
H369 C364 0.927 1_455 S
H370 C365 0.930 . S
C371 O372 1.224 . S
C371 O390 1.247 . S
O372 C371 1.224 . S
N373 Co363 2.128 . S
N373 C374 1.355 . S
N373 C376 1.311 . S
C374 N373 1.355 . S
C374 C375 1.363 . S
C374 H386 0.929 . S
C375 C374 1.363 . S
C375 N377 1.375 . S
C375 H393 0.931 . S
C376 N373 1.311 . S
C376 N377 1.347 . S
C376 H387 0.929 . S
N377 C375 1.375 . S
N377 C376 1.347 . S
C378 C381 1.365 . S
C378 N383 1.328 . S
C378 H384 0.929 . S
C379 C380 1.362 . S
C379 C382 1.378 . S
C379 H394 0.929 . S
C380 C379 1.362 . S
C380 C381 1.366 . S
C381 C378 1.365 . S
C381 C380 1.366 . S
C381 H395 0.930 . S
C382 C379 1.378 . S
C382 N383 1.315 . S
C382 H385 0.930 . S
N383 Co363 2.194 . S
N383 C378 1.328 . S
N383 C382 1.315 . S
H384 C378 0.929 . S
H385 C382 0.930 . S
H386 C374 0.929 . S
H387 C376 0.929 . S
O388 Co363 2.351 . S
O388 C391 1.244 1_655 S
O389 Co363 2.155 . S
O389 C391 1.240 1_655 S
O390 Co363 2.096 . S
O390 C371 1.247 . S
C391 O388 1.244 1_455 S
C391 O389 1.240 1_455 S
H392 C366 0.931 . S
H393 C375 0.931 . S
H394 C379 0.929 . S
H395 C381 0.930 . S
C396 C397 1.369 . S
C396 C398 1.419 . S
C396 H400 0.930 . S
C397 C396 1.369 . S
C397 C406 1.429 . S
C398 C396 1.419 . S
C398 C399 1.363 . S
C398 H401 0.929 . S
C399 C398 1.363 . S
C399 C405 1.428 . S
H400 C396 0.930 . S
H401 C398 0.929 . S
S402 N403 1.613 . S
S402 N404 1.610 . S
N403 S402 1.613 . S
N403 C406 1.350 . S
N404 S402 1.610 . S
N404 C405 1.351 . S
C405 C399 1.428 . S
C405 N404 1.351 . S
C405 C406 1.434 . S
C406 C397 1.429 . S
C406 N403 1.350 . S
C406 C405 1.434 . S
C407 C408 1.369 . S
C407 C409 1.419 . S
C407 H411 0.930 . S
C408 C407 1.369 . S
C408 C417 1.429 . S
C409 C407 1.419 . S
C409 C410 1.363 . S
C409 H412 0.929 . S
C410 C409 1.363 . S
C410 C416 1.428 . S
H411 C407 0.930 . S
H412 C409 0.929 . S
S413 N414 1.613 . S
S413 N415 1.610 . S
N414 S413 1.613 . S
N414 C417 1.350 . S
N415 S413 1.610 . S
N415 C416 1.351 . S
C416 C410 1.428 . S
C416 N415 1.351 . S
C416 C417 1.434 . S
C417 C408 1.429 . S
C417 N414 1.350 . S
C417 C416 1.434 . S
C418 C419 1.369 . S
C418 C420 1.419 . S
C418 H422 0.930 . S
C419 C418 1.369 . S
C419 C428 1.429 . S
C420 C418 1.419 . S
C420 C421 1.363 . S
C420 H423 0.929 . S
C421 C420 1.363 . S
C421 C427 1.428 . S
H422 C418 0.930 . S
H423 C420 0.929 . S
S424 N425 1.613 . S
S424 N426 1.610 . S
N425 S424 1.613 . S
N425 C428 1.350 . S
N426 S424 1.610 . S
N426 C427 1.351 . S
C427 C421 1.428 . S
C427 N426 1.351 . S
C427 C428 1.434 . S
C428 C419 1.429 . S
C428 N425 1.350 . S
C428 C427 1.434 . S
C429 C430 1.369 . S
C429 C431 1.419 . S
C429 H433 0.930 . S
C430 C429 1.369 . S
C430 C439 1.429 . S
C431 C429 1.419 . S
C431 C432 1.363 . S
C431 H434 0.929 . S
C432 C431 1.363 . S
C432 C438 1.428 . S
H433 C429 0.930 . S
H434 C431 0.929 . S
S435 N436 1.613 . S
S435 N437 1.610 . S
N436 S435 1.613 . S
N436 C439 1.350 . S
N437 S435 1.610 . S
N437 C438 1.351 . S
C438 C432 1.428 . S
C438 N437 1.351 . S
C438 C439 1.434 . S
C439 C430 1.429 . S
C439 N436 1.350 . S
C439 C438 1.434 . S
C440 C441 1.369 . S
C440 C442 1.419 . S
C440 H444 0.930 . S
C441 C440 1.369 . S
C441 C450 1.429 . S
C442 C440 1.419 . S
C442 C443 1.363 . S
C442 H445 0.929 . S
C443 C442 1.363 . S
C443 C449 1.428 . S
H444 C440 0.930 . S
H445 C442 0.929 . S
S446 N447 1.613 . S
S446 N448 1.610 . S
N447 S446 1.613 . S
N447 C450 1.350 . S
N448 S446 1.610 . S
N448 C449 1.351 . S
C449 C443 1.428 . S
C449 N448 1.351 . S
C449 C450 1.434 . S
C450 C441 1.429 . S
C450 N447 1.350 . S
C450 C449 1.434 . S
C451 C452 1.369 . S
C451 C453 1.419 . S
C451 H455 0.930 . S
C452 C451 1.369 . S
C452 C461 1.429 . S
C453 C451 1.419 . S
C453 C454 1.363 . S
C453 H456 0.929 . S
C454 C453 1.363 . S
C454 C460 1.428 . S
H455 C451 0.930 . S
H456 C453 0.929 . S
S457 N458 1.613 . S
S457 N459 1.610 . S
N458 S457 1.613 . S
N458 C461 1.350 . S
N459 S457 1.610 . S
N459 C460 1.351 . S
C460 C454 1.428 . S
C460 N459 1.351 . S
C460 C461 1.434 . S
C461 C452 1.429 . S
C461 N458 1.350 . S
C461 C460 1.434 . S
C462 C463 1.369 . S
C462 C464 1.419 . S
C462 H466 0.930 . S
C463 C462 1.369 . S
C463 C472 1.429 . S
C464 C462 1.419 . S
C464 C465 1.363 . S
C464 H467 0.929 . S
C465 C464 1.363 . S
C465 C471 1.428 . S
H466 C462 0.930 . S
H467 C464 0.929 . S
S468 N469 1.613 . S
S468 N470 1.610 . S
N469 S468 1.613 . S
N469 C472 1.350 . S
N470 S468 1.610 . S
N470 C471 1.351 . S
C471 C465 1.428 . S
C471 N470 1.351 . S
C471 C472 1.434 . S
C472 C463 1.429 . S
C472 N469 1.350 . S
C472 C471 1.434 . S
C473 C474 1.369 . S
C473 C475 1.419 . S
C473 H477 0.930 . S
C474 C473 1.369 . S
C474 C483 1.429 . S
C475 C473 1.419 . S
C475 C476 1.363 . S
C475 H478 0.929 . S
C476 C475 1.363 . S
C476 C482 1.428 . S
H477 C473 0.930 . S
H478 C475 0.929 . S
S479 N480 1.613 . S
S479 N481 1.610 . S
N480 S479 1.613 . S
N480 C483 1.350 . S
N481 S479 1.610 . S
N481 C482 1.351 . S
C482 C476 1.428 . S
C482 N481 1.351 . S
C482 C483 1.434 . S
C483 C474 1.429 . S
C483 N480 1.350 . S
C483 C482 1.434 . S
C484 C485 1.369 . S
C484 C486 1.419 . S
C484 H488 0.930 . S
C485 C484 1.369 . S
C485 C494 1.429 . S
C486 C484 1.419 . S
C486 C487 1.363 . S
C486 H489 0.929 . S
C487 C486 1.363 . S
C487 C493 1.428 . S
H488 C484 0.930 . S
H489 C486 0.929 . S
S490 N491 1.613 . S
S490 N492 1.610 . S
N491 S490 1.613 . S
N491 C494 1.350 . S
N492 S490 1.610 . S
N492 C493 1.351 . S
C493 C487 1.428 . S
C493 N492 1.351 . S
C493 C494 1.434 . S
C494 C485 1.429 . S
C494 N491 1.350 . S
C494 C493 1.434 . S
C495 C496 1.369 . S
C495 C497 1.419 . S
C495 H499 0.930 . S
C496 C495 1.369 . S
C496 C505 1.429 . S
C497 C495 1.419 . S
C497 C498 1.363 . S
C497 H500 0.929 . S
C498 C497 1.363 . S
C498 C504 1.428 . S
H499 C495 0.930 . S
H500 C497 0.929 . S
S501 N502 1.613 . S
S501 N503 1.610 . S
N502 S501 1.613 . S
N502 C505 1.350 . S
N503 S501 1.610 . S
N503 C504 1.351 . S
C504 C498 1.428 . S
C504 N503 1.351 . S
C504 C505 1.434 . S
C505 C496 1.429 . S
C505 N502 1.350 . S
C505 C504 1.434 . S
C506 C507 1.369 . S
C506 C508 1.419 . S
C506 H510 0.930 . S
C507 C506 1.369 . S
C507 C516 1.429 . S
C508 C506 1.419 . S
C508 C509 1.363 . S
C508 H511 0.929 . S
C509 C508 1.363 . S
C509 C515 1.428 . S
H510 C506 0.930 . S
H511 C508 0.929 . S
S512 N513 1.613 . S
S512 N514 1.610 . S
N513 S512 1.613 . S
N513 C516 1.350 . S
N514 S512 1.610 . S
N514 C515 1.351 . S
C515 C509 1.428 . S
C515 N514 1.351 . S
C515 C516 1.434 . S
C516 C507 1.429 . S
C516 N513 1.350 . S
C516 C515 1.434 . S
C517 C518 1.369 . S
C517 C519 1.419 . S
C517 H521 0.930 . S
C518 C517 1.369 . S
C518 C527 1.429 . S
C519 C517 1.419 . S
C519 C520 1.363 . S
C519 H522 0.929 . S
C520 C519 1.363 . S
C520 C526 1.428 . S
H521 C517 0.930 . S
H522 C519 0.929 . S
S523 N524 1.611 . S
S523 N525 1.610 . S
N524 S523 1.611 . S
N524 C527 1.350 . S
N525 S523 1.610 . S
N525 C526 1.351 . S
C526 C520 1.428 . S
C526 N525 1.351 . S
C526 C527 1.434 . S
C527 C518 1.429 . S
C527 N524 1.350 . S
C527 C526 1.434 . S
C528 C529 1.369 . S
C528 C530 1.419 . S
C528 H532 0.930 . S
C529 C528 1.369 . S
C529 C538 1.429 1_455 S
C530 C528 1.419 . S
C530 C531 1.363 1_455 S
C530 H533 0.929 . S
C531 C530 1.363 1_655 S
C531 C537 1.428 . S
H532 C528 0.930 . S
H533 C530 0.929 . S
S534 N535 1.613 . S
S534 N536 1.610 . S
N535 S534 1.613 . S
N535 C538 1.350 . S
N536 S534 1.610 . S
N536 C537 1.351 . S
C537 C531 1.428 . S
C537 N536 1.351 . S
C537 C538 1.434 . S
C538 C529 1.429 1_655 S
C538 N535 1.350 . S
C538 C537 1.434 . S
C539 C540 1.369 1_565 S
C539 C541 1.419 1_556 S
C539 H543 0.930 . S
C540 C539 1.369 1_545 S
C540 C549 1.429 . S
C541 C539 1.419 1_554 S
C541 C542 1.363 . S
C541 H544 0.929 . S
C542 C541 1.363 . S
C542 C548 1.428 1_565 S
H543 C539 0.930 . S
H544 C541 0.929 . S
S545 N546 1.613 1_554 S
S545 N547 1.610 . S
N546 S545 1.613 1_556 S
N546 C549 1.350 . S
N547 S545 1.610 . S
N547 C548 1.351 . S
C548 C542 1.428 1_545 S
C548 N547 1.351 . S
C548 C549 1.434 1_554 S
C549 C540 1.429 . S
C549 N546 1.350 . S
C549 C548 1.434 1_556 S
C550 C551 1.369 . S
C550 C552 1.419 . S
C550 H554 0.930 . S
C551 C550 1.369 . S
C551 C560 1.429 . S
C552 C550 1.419 . S
C552 C553 1.363 . S
C552 H555 0.929 . S
C553 C552 1.363 . S
C553 C559 1.428 . S
H554 C550 0.930 . S
H555 C552 0.929 . S
S556 N557 1.613 . S
S556 N558 1.610 . S
N557 S556 1.613 . S
N557 C560 1.350 . S
N558 S556 1.610 . S
N558 C559 1.351 . S
C559 C553 1.428 . S
C559 N558 1.351 . S
C559 C560 1.434 . S
C560 C551 1.429 . S
C560 N557 1.350 . S
C560 C559 1.434 . S
C561 C562 1.369 . S
C561 C563 1.419 . S
C561 H565 0.930 . S
C562 C561 1.369 . S
C562 C571 1.429 1_455 S
C563 C561 1.419 . S
C563 C564 1.363 1_455 S
C563 H566 0.929 . S
C564 C563 1.363 1_655 S
C564 C570 1.428 . S
H565 C561 0.930 . S
H566 C563 0.929 . S
S567 N568 1.613 . S
S567 N569 1.610 . S
N568 S567 1.613 . S
N568 C571 1.350 . S
N569 S567 1.610 . S
N569 C570 1.351 . S
C570 C564 1.428 . S
C570 N569 1.351 . S
C570 C571 1.434 . S
C571 C562 1.429 1_655 S
C571 N568 1.350 . S
C571 C570 1.434 . S
C572 C573 1.369 1_565 S
C572 C574 1.419 . S
C572 H576 0.930 . S
C573 C572 1.369 1_545 S
C573 C582 1.429 . S
C574 C572 1.419 . S
C574 C575 1.363 . S
C574 H577 0.929 . S
C575 C574 1.363 . S
C575 C581 1.428 1_565 S
H576 C572 0.930 . S
H577 C574 0.929 . S
S578 N579 1.613 . S
S578 N580 1.610 . S
N579 S578 1.613 . S
N579 C582 1.350 . S
N580 S578 1.610 . S
N580 C581 1.351 . S
C581 C575 1.428 1_545 S
C581 N580 1.351 . S
C581 C582 1.434 . S
C582 C573 1.429 . S
C582 N579 1.350 . S
C582 C581 1.434 . S
C583 C584 1.369 . S
C583 C585 1.419 . S
C583 H587 0.930 . S
C584 C583 1.369 . S
C584 C593 1.429 . S
C585 C583 1.419 . S
C585 C586 1.363 . S
C585 H588 0.929 . S
C586 C585 1.363 . S
C586 C592 1.428 . S
H587 C583 0.930 . S
H588 C585 0.929 . S
S589 N590 1.613 . S
S589 N591 1.610 . S
N590 S589 1.613 . S
N590 C593 1.350 . S
N591 S589 1.610 . S
N591 C592 1.351 . S
C592 C586 1.428 . S
C592 N591 1.351 . S
C592 C593 1.434 . S
C593 C584 1.429 . S
C593 N590 1.350 . S
C593 C592 1.434 . S
C594 C595 1.369 . S
C594 C596 1.425 . S
C594 H598 0.930 . S
C595 C594 1.369 . S
C595 C604 1.429 . S
C596 C594 1.425 . S
C596 C597 1.365 . S
C596 H599 0.920 1_556 S
C597 C596 1.365 . S
C597 C603 1.428 . S
H598 C594 0.930 . S
H599 C596 0.920 1_554 S
S600 N601 1.613 . S
S600 N602 1.610 . S
N601 S600 1.613 . S
N601 C604 1.350 . S
N602 S600 1.610 . S
N602 C603 1.351 . S
C603 C597 1.428 . S
C603 N602 1.351 . S
C603 C604 1.434 . S
C604 C595 1.429 . S
C604 N601 1.350 . S
C604 C603 1.434 . S
C605 C606 1.369 . S
C605 C607 1.419 . S
C605 H609 0.930 . S
C606 C605 1.369 . S
C606 C615 1.429 . S
C607 C605 1.419 . S
C607 C608 1.363 . S
C607 H610 0.929 . S
C608 C607 1.363 . S
C608 C614 1.428 . S
H609 C605 0.930 . S
H610 C607 0.929 . S
S611 N612 1.613 . S
S611 N613 1.610 . S
N612 S611 1.613 . S
N612 C615 1.350 . S
N613 S611 1.610 . S
N613 C614 1.351 . S
C614 C608 1.428 . S
C614 N613 1.351 . S
C614 C615 1.434 . S
C615 C606 1.429 . S
C615 N612 1.350 . S
C615 C614 1.434 . S
C616 C617 1.369 . S
C616 C618 1.419 . S
C616 H620 0.930 . S
C617 C616 1.369 . S
C617 C626 1.429 . S
C618 C616 1.419 . S
C618 C619 1.363 . S
C618 H621 0.929 . S
C619 C618 1.363 . S
C619 C625 1.428 . S
H620 C616 0.930 . S
H621 C618 0.929 . S
S622 N623 1.613 . S
S622 N624 1.610 . S
N623 S622 1.613 . S
N623 C626 1.350 . S
N624 S622 1.610 . S
N624 C625 1.351 . S
C625 C619 1.428 . S
C625 N624 1.351 . S
C625 C626 1.434 . S
C626 C617 1.429 . S
C626 N623 1.350 . S
C626 C625 1.434 . S
C627 C628 1.369 . S
C627 C629 1.419 . S
C627 H631 0.930 . S
C628 C627 1.369 . S
C628 C637 1.429 . S
C629 C627 1.419 . S
C629 C630 1.363 . S
C629 H632 0.929 . S
C630 C629 1.363 . S
C630 C636 1.428 . S
H631 C627 0.930 . S
H632 C629 0.929 . S
S633 N634 1.613 . S
S633 N635 1.610 . S
N634 S633 1.613 . S
N634 C637 1.350 . S
N635 S633 1.610 . S
N635 C636 1.351 . S
C636 C630 1.428 . S
C636 N635 1.351 . S
C636 C637 1.434 . S
C637 C628 1.429 . S
C637 N634 1.350 . S
C637 C636 1.434 . S
C638 C639 1.369 . S
C638 C640 1.419 . S
C638 H642 0.930 . S
C639 C638 1.369 . S
C639 C648 1.429 . S
C640 C638 1.419 . S
C640 C641 1.363 . S
C640 H643 0.929 . S
C641 C640 1.363 . S
C641 C647 1.428 . S
H642 C638 0.930 . S
H643 C640 0.929 . S
S644 N645 1.613 . S
S644 N646 1.610 . S
N645 S644 1.613 . S
N645 C648 1.350 . S
N646 S644 1.610 . S
N646 C647 1.351 . S
C647 C641 1.428 . S
C647 N646 1.351 . S
C647 C648 1.434 . S
C648 C639 1.429 . S
C648 N645 1.350 . S
C648 C647 1.434 . S
C649 C650 1.369 . S
C649 C651 1.419 . S
C649 H653 0.930 . S
C650 C649 1.369 . S
C650 C659 1.429 . S
C651 C649 1.419 . S
C651 C652 1.363 . S
C651 H654 0.929 . S
C652 C651 1.363 . S
C652 C658 1.428 . S
H653 C649 0.930 . S
H654 C651 0.929 . S
S655 N656 1.613 . S
S655 N657 1.610 . S
N656 S655 1.613 . S
N656 C659 1.350 . S
N657 S655 1.610 . S
N657 C658 1.351 . S
C658 C652 1.428 . S
C658 N657 1.351 . S
C658 C659 1.434 . S
C659 C650 1.429 . S
C659 N656 1.350 . S
C659 C658 1.434 . S
C660 C661 1.369 . S
C660 C662 1.419 . S
C660 H664 0.930 . S
C661 C660 1.369 . S
C661 C670 1.429 . S
C662 C660 1.419 . S
C662 C663 1.363 . S
C662 H665 0.929 . S
C663 C662 1.363 . S
C663 C669 1.428 . S
H664 C660 0.930 . S
H665 C662 0.929 . S
S666 N667 1.613 . S
S666 N668 1.610 . S
N667 S666 1.613 . S
N667 C670 1.350 . S
N668 S666 1.610 . S
N668 C669 1.351 . S
C669 C663 1.428 . S
C669 N668 1.351 . S
C669 C670 1.434 . S
C670 C661 1.429 . S
C670 N667 1.350 . S
C670 C669 1.434 . S
C671 C672 1.369 . S
C671 C673 1.419 . S
C671 H675 0.930 . S
C672 C671 1.369 . S
C672 C681 1.429 . S
C673 C671 1.419 . S
C673 C674 1.363 . S
C673 H676 0.929 . S
C674 C673 1.363 . S
C674 C680 1.428 . S
H675 C671 0.930 . S
H676 C673 0.929 . S
S677 N678 1.613 . S
S677 N679 1.610 1_556 S
N678 S677 1.613 . S
N678 C681 1.350 1_556 S
N679 S677 1.610 1_554 S
N679 C680 1.351 . S
C680 C674 1.428 . S
C680 N679 1.351 . S
C680 C681 1.434 . S
C681 C672 1.429 . S
C681 N678 1.350 1_554 S
C681 C680 1.434 . S
C682 C683 1.369 . S
C682 C684 1.419 . S
C682 H686 0.930 . S
C683 C682 1.369 . S
C683 C692 1.429 . S
C684 C682 1.419 . S
C684 C685 1.363 . S
C684 H687 0.929 . S
C685 C684 1.363 . S
C685 C691 1.428 . S
H686 C682 0.930 . S
H687 C684 0.929 . S
S688 N689 1.613 . S
S688 N690 1.610 . S
N689 S688 1.613 . S
N689 C692 1.350 . S
N690 S688 1.610 . S
N690 C691 1.351 . S
C691 C685 1.428 . S
C691 N690 1.351 . S
C691 C692 1.434 . S
C692 C683 1.429 . S
C692 N689 1.350 . S
C692 C691 1.434 . S
C693 C694 1.369 . S
C693 C695 1.419 . S
C693 H697 0.930 . S
C694 C693 1.369 . S
C694 C703 1.429 . S
C695 C693 1.419 . S
C695 C696 1.363 . S
C695 H698 0.929 . S
C696 C695 1.363 . S
C696 C702 1.428 . S
H697 C693 0.930 . S
H698 C695 0.929 . S
S699 N700 1.613 . S
S699 N701 1.610 . S
N700 S699 1.613 . S
N700 C703 1.350 . S
N701 S699 1.610 . S
N701 C702 1.351 . S
C702 C696 1.428 . S
C702 N701 1.351 . S
C702 C703 1.434 . S
C703 C694 1.429 . S
C703 N700 1.350 . S
C703 C702 1.434 . S
C704 C705 1.369 . S
C704 C706 1.419 . S
C704 H708 0.930 . S
C705 C704 1.369 . S
C705 C714 1.429 . S
C706 C704 1.419 . S
C706 C707 1.363 . S
C706 H709 0.929 . S
C707 C706 1.363 . S
C707 C713 1.428 . S
H708 C704 0.930 . S
H709 C706 0.929 . S
S710 N711 1.613 . S
S710 N712 1.610 . S
N711 S710 1.613 . S
N711 C714 1.350 . S
N712 S710 1.610 . S
N712 C713 1.351 . S
C713 C707 1.428 . S
C713 N712 1.351 . S
C713 C714 1.434 . S
C714 C705 1.429 . S
C714 N711 1.350 . S
C714 C713 1.434 . S
C715 C716 1.369 . S
C715 C717 1.419 . S
C715 H719 0.930 . S
C716 C715 1.369 . S
C716 C725 1.429 . S
C717 C715 1.419 . S
C717 C718 1.363 . S
C717 H720 0.929 . S
C718 C717 1.363 . S
C718 C724 1.428 . S
H719 C715 0.930 . S
H720 C717 0.929 . S
S721 N722 1.613 . S
S721 N723 1.610 . S
N722 S721 1.613 . S
N722 C725 1.350 . S
N723 S721 1.610 . S
N723 C724 1.351 . S
C724 C718 1.428 . S
C724 N723 1.351 . S
C724 C725 1.434 . S
C725 C716 1.429 . S
C725 N722 1.350 . S
C725 C724 1.434 . S
C397 N344 1.061 . S
C399 N14 1.054 . S
C408 N47 1.060 . S
C410 N377 1.055 . S
C419 N80 1.053 . S
C421 N212 1.061 . S
C430 N113 1.053 . S
C432 N245 1.060 . S
C441 N146 1.062 . S
C443 N278 1.054 . S
C452 N179 1.060 . S
C454 N311 1.055 . S
C463 C17 1.517 . S
C465 C281 1.518 . S
C474 C314 1.519 . S
C476 C50 1.517 . S
C485 C83 1.518 . S
C487 C347 1.520 . S
C496 C116 1.517 . S
C498 C380 1.518 . S
C507 C149 1.518 . S
C509 C215 1.519 . S
C518 C182 1.518 . S
C520 C248 1.520 . S
C529 N368 1.261 1_455 S
C531 N5 1.263 1_655 S
C540 N203 1.265 1_545 S
C542 N38 1.252 1_565 S
C551 N236 1.260 . S
C553 N71 1.253 . S
C562 N104 1.256 1_455 S
C564 N269 1.265 1_655 S
C573 N137 1.267 1_545 S
C575 N302 1.256 1_565 S
C584 N335 1.261 . S
C586 N170 1.253 . S
C595 C193 2.034 . S
C597 C8 2.049 1_556 S
C606 C28 2.032 . S
C608 C41 2.050 . S
C617 C74 2.050 . S
C619 C61 2.033 . S
C628 C94 2.033 . S
C630 C107 2.050 . S
C639 C140 2.050 . S
C641 C127 2.033 . S
C650 C173 2.048 . S
C652 C160 2.036 . S
C661 C259 2.035 . S
C663 C206 2.049 . S
C672 C239 2.049 1_554 S
C674 C292 2.034 . S
C683 C272 2.051 . S
C685 C325 2.032 . S
C694 C358 2.036 . S
C696 C305 2.048 . S
C705 C391 2.032 . S
C707 C338 2.050 . S
C716 C371 2.051 . S
C718 C226 2.032 . S
