# Generated by pormake.
# Topology wkr, (6)-cn, num edge types: 1
# Building blocks:
#     Node 0, Type 0, BuildingBlock: VOLQOD_clean_sbu_1, # of connection points: 6
#     Node 1, Type 0, BuildingBlock: VOLQOD_clean_sbu_1, # of connection points: 6
#     Node 2, Type 0, BuildingBlock: VOLQOD_clean_sbu_1, # of connection points: 6
#     Node 3, Type 0, BuildingBlock: VOLQOD_clean_sbu_1, # of connection points: 6
#     Node 4, Type 0, BuildingBlock: VOLQOD_clean_sbu_1, # of connection points: 6
#     Node 5, Type 0, BuildingBlock: VOLQOD_clean_sbu_1, # of connection points: 6
#     Node 6, Type 0, BuildingBlock: VOLQOD_clean_sbu_1, # of connection points: 6
#     Node 7, Type 0, BuildingBlock: VOLQOD_clean_sbu_1, # of connection points: 6
#     Node 8, Type 0, BuildingBlock: VOLQOD_clean_sbu_1, # of connection points: 6
#     Node 9, Type 0, BuildingBlock: VOLQOD_clean_sbu_1, # of connection points: 6
#     Node 10, Type 0, BuildingBlock: VOLQOD_clean_sbu_1, # of connection points: 6
#     Node 11, Type 0, BuildingBlock: VOLQOD_clean_sbu_1, # of connection points: 6
#     Node 12, Type 0, BuildingBlock: VOLQOD_clean_sbu_1, # of connection points: 6
#     Node 13, Type 0, BuildingBlock: VOLQOD_clean_sbu_1, # of connection points: 6
#     Node 14, Type 0, BuildingBlock: VOLQOD_clean_sbu_1, # of connection points: 6
#     Node 15, Type 0, BuildingBlock: VOLQOD_clean_sbu_1, # of connection points: 6
#     Node 16, Type 0, BuildingBlock: VOLQOD_clean_sbu_1, # of connection points: 6
#     Node 17, Type 0, BuildingBlock: VOLQOD_clean_sbu_1, # of connection points: 6
#     Node 18, Type 0, BuildingBlock: VOLQOD_clean_sbu_1, # of connection points: 6
#     Node 19, Type 0, BuildingBlock: VOLQOD_clean_sbu_1, # of connection points: 6
#     Node 20, Type 0, BuildingBlock: VOLQOD_clean_sbu_1, # of connection points: 6
#     Node 21, Type 0, BuildingBlock: VOLQOD_clean_sbu_1, # of connection points: 6
#     Node 22, Type 0, BuildingBlock: VOLQOD_clean_sbu_1, # of connection points: 6
#     Node 23, Type 0, BuildingBlock: VOLQOD_clean_sbu_1, # of connection points: 6
#     Edge 24, Type (0, 0), BuildingBlock: UVAHIK_clean_linker_0, # of connection points: 2
#     Edge 25, Type (0, 0), BuildingBlock: UVAHIK_clean_linker_0, # of connection points: 2
#     Edge 26, Type (0, 0), BuildingBlock: UVAHIK_clean_linker_0, # of connection points: 2
#     Edge 27, Type (0, 0), BuildingBlock: UVAHIK_clean_linker_0, # of connection points: 2
#     Edge 28, Type (0, 0), BuildingBlock: UVAHIK_clean_linker_0, # of connection points: 2
#     Edge 29, Type (0, 0), BuildingBlock: UVAHIK_clean_linker_0, # of connection points: 2
#     Edge 30, Type (0, 0), BuildingBlock: UVAHIK_clean_linker_0, # of connection points: 2
#     Edge 31, Type (0, 0), BuildingBlock: UVAHIK_clean_linker_0, # of connection points: 2
#     Edge 32, Type (0, 0), BuildingBlock: UVAHIK_clean_linker_0, # of connection points: 2
#     Edge 33, Type (0, 0), BuildingBlock: UVAHIK_clean_linker_0, # of connection points: 2
#     Edge 34, Type (0, 0), BuildingBlock: UVAHIK_clean_linker_0, # of connection points: 2
#     Edge 35, Type (0, 0), BuildingBlock: UVAHIK_clean_linker_0, # of connection points: 2
#     Edge 36, Type (0, 0), BuildingBlock: UVAHIK_clean_linker_0, # of connection points: 2
#     Edge 37, Type (0, 0), BuildingBlock: UVAHIK_clean_linker_0, # of connection points: 2
#     Edge 38, Type (0, 0), BuildingBlock: UVAHIK_clean_linker_0, # of connection points: 2
#     Edge 39, Type (0, 0), BuildingBlock: UVAHIK_clean_linker_0, # of connection points: 2
#     Edge 40, Type (0, 0), BuildingBlock: UVAHIK_clean_linker_0, # of connection points: 2
#     Edge 41, Type (0, 0), BuildingBlock: UVAHIK_clean_linker_0, # of connection points: 2
#     Edge 42, Type (0, 0), BuildingBlock: UVAHIK_clean_linker_0, # of connection points: 2
#     Edge 43, Type (0, 0), BuildingBlock: UVAHIK_clean_linker_0, # of connection points: 2
#     Edge 44, Type (0, 0), BuildingBlock: UVAHIK_clean_linker_0, # of connection points: 2
#     Edge 45, Type (0, 0), BuildingBlock: UVAHIK_clean_linker_0, # of connection points: 2
#     Edge 46, Type (0, 0), BuildingBlock: UVAHIK_clean_linker_0, # of connection points: 2
#     Edge 47, Type (0, 0), BuildingBlock: UVAHIK_clean_linker_0, # of connection points: 2
#     Edge 48, Type (0, 0), BuildingBlock: UVAHIK_clean_linker_0, # of connection points: 2
#     Edge 49, Type (0, 0), BuildingBlock: UVAHIK_clean_linker_0, # of connection points: 2
#     Edge 50, Type (0, 0), BuildingBlock: UVAHIK_clean_linker_0, # of connection points: 2
#     Edge 51, Type (0, 0), BuildingBlock: UVAHIK_clean_linker_0, # of connection points: 2
#     Edge 52, Type (0, 0), BuildingBlock: UVAHIK_clean_linker_0, # of connection points: 2
#     Edge 53, Type (0, 0), BuildingBlock: UVAHIK_clean_linker_0, # of connection points: 2
#     Edge 54, Type (0, 0), BuildingBlock: UVAHIK_clean_linker_0, # of connection points: 2
#     Edge 55, Type (0, 0), BuildingBlock: UVAHIK_clean_linker_0, # of connection points: 2
#     Edge 56, Type (0, 0), BuildingBlock: UVAHIK_clean_linker_0, # of connection points: 2
#     Edge 57, Type (0, 0), BuildingBlock: UVAHIK_clean_linker_0, # of connection points: 2
#     Edge 58, Type (0, 0), BuildingBlock: UVAHIK_clean_linker_0, # of connection points: 2
#     Edge 59, Type (0, 0), BuildingBlock: UVAHIK_clean_linker_0, # of connection points: 2
#     Edge 60, Type (0, 0), BuildingBlock: UVAHIK_clean_linker_0, # of connection points: 2
#     Edge 61, Type (0, 0), BuildingBlock: UVAHIK_clean_linker_0, # of connection points: 2
#     Edge 62, Type (0, 0), BuildingBlock: UVAHIK_clean_linker_0, # of connection points: 2
#     Edge 63, Type (0, 0), BuildingBlock: UVAHIK_clean_linker_0, # of connection points: 2
#     Edge 64, Type (0, 0), BuildingBlock: UVAHIK_clean_linker_0, # of connection points: 2
#     Edge 65, Type (0, 0), BuildingBlock: UVAHIK_clean_linker_0, # of connection points: 2
#     Edge 66, Type (0, 0), BuildingBlock: UVAHIK_clean_linker_0, # of connection points: 2
#     Edge 67, Type (0, 0), BuildingBlock: UVAHIK_clean_linker_0, # of connection points: 2
#     Edge 68, Type (0, 0), BuildingBlock: UVAHIK_clean_linker_0, # of connection points: 2
#     Edge 69, Type (0, 0), BuildingBlock: UVAHIK_clean_linker_0, # of connection points: 2
#     Edge 70, Type (0, 0), BuildingBlock: UVAHIK_clean_linker_0, # of connection points: 2
#     Edge 71, Type (0, 0), BuildingBlock: UVAHIK_clean_linker_0, # of connection points: 2
#     Edge 72, Type (0, 0), BuildingBlock: UVAHIK_clean_linker_0, # of connection points: 2
#     Edge 73, Type (0, 0), BuildingBlock: UVAHIK_clean_linker_0, # of connection points: 2
#     Edge 74, Type (0, 0), BuildingBlock: UVAHIK_clean_linker_0, # of connection points: 2
#     Edge 75, Type (0, 0), BuildingBlock: UVAHIK_clean_linker_0, # of connection points: 2
#     Edge 76, Type (0, 0), BuildingBlock: UVAHIK_clean_linker_0, # of connection points: 2
#     Edge 77, Type (0, 0), BuildingBlock: UVAHIK_clean_linker_0, # of connection points: 2
#     Edge 78, Type (0, 0), BuildingBlock: UVAHIK_clean_linker_0, # of connection points: 2
#     Edge 79, Type (0, 0), BuildingBlock: UVAHIK_clean_linker_0, # of connection points: 2
#     Edge 80, Type (0, 0), BuildingBlock: UVAHIK_clean_linker_0, # of connection points: 2
#     Edge 81, Type (0, 0), BuildingBlock: UVAHIK_clean_linker_0, # of connection points: 2
#     Edge 82, Type (0, 0), BuildingBlock: UVAHIK_clean_linker_0, # of connection points: 2
#     Edge 83, Type (0, 0), BuildingBlock: UVAHIK_clean_linker_0, # of connection points: 2
#     Edge 84, Type (0, 0), BuildingBlock: UVAHIK_clean_linker_0, # of connection points: 2
#     Edge 85, Type (0, 0), BuildingBlock: UVAHIK_clean_linker_0, # of connection points: 2
#     Edge 86, Type (0, 0), BuildingBlock: UVAHIK_clean_linker_0, # of connection points: 2
#     Edge 87, Type (0, 0), BuildingBlock: UVAHIK_clean_linker_0, # of connection points: 2
#     Edge 88, Type (0, 0), BuildingBlock: UVAHIK_clean_linker_0, # of connection points: 2
#     Edge 89, Type (0, 0), BuildingBlock: UVAHIK_clean_linker_0, # of connection points: 2
#     Edge 90, Type (0, 0), BuildingBlock: UVAHIK_clean_linker_0, # of connection points: 2
#     Edge 91, Type (0, 0), BuildingBlock: UVAHIK_clean_linker_0, # of connection points: 2
#     Edge 92, Type (0, 0), BuildingBlock: UVAHIK_clean_linker_0, # of connection points: 2
#     Edge 93, Type (0, 0), BuildingBlock: UVAHIK_clean_linker_0, # of connection points: 2
#     Edge 94, Type (0, 0), BuildingBlock: UVAHIK_clean_linker_0, # of connection points: 2
#     Edge 95, Type (0, 0), BuildingBlock: UVAHIK_clean_linker_0, # of connection points: 2
# Relax obj value: 0.732
# Max RMSD: 0.278
# Mean RMSD: 0.278
data_MOF--net-wkr--node1-VOLQOD_clean_sbu_1--edge1-UVAHIK_clean_linker_0
_symmetry_space_group_name_H-M    P1
_symmetry_Int_Tables_number       1
_symmetry_cell_setting            triclinic
loop_
_symmetry_equiv_pos_as_xyz
'x, y, z'
_cell_length_a     65.721456
_cell_length_b     65.726024
_cell_length_c     68.21308
_cell_angle_alpha  90.03396
_cell_angle_beta   90.004855
_cell_angle_gamma 119.99036
loop_
_atom_site_label
_atom_site_type_symbol
_atom_site_fract_x
_atom_site_fract_y
_atom_site_fract_z
_atom_type_partial_charge
O0 O 0.49799 0.11912 0.15282 0.0
Zn1 Zn 0.49502 0.14839 0.14452 0.0
O2 O 0.5253 0.17297 0.13349 0.0
Zn3 Zn 0.54098 0.20065 0.1497 0.0
Zn4 Zn 0.54618 0.16063 0.12967 0.0
Zn5 Zn 0.52157 0.1844 0.10834 0.0
O6 O 0.54969 0.22993 0.1343 0.0
O7 O 0.52439 0.21624 0.10961 0.0
O8 O 0.48599 0.16338 0.16813 0.0
O9 O 0.51896 0.19796 0.17089 0.0
O10 O 0.57086 0.20508 0.16161 0.0
O11 O 0.57425 0.1767 0.14722 0.0
O12 O 0.55937 0.16551 0.10253 0.0
O13 O 0.47065 0.13676 0.12179 0.0
O14 O 0.54749 0.18881 0.08975 0.0
O15 O 0.49055 0.16144 0.09736 0.0
C16 C 0.513 0.11326 0.14715 0.0
C17 C 0.53982 0.2333 0.11962 0.0
C18 C 0.58197 0.19409 0.15887 0.0
C19 C 0.49826 0.18337 0.17671 0.0
C20 C 0.56006 0.17909 0.08896 0.0
C21 C 0.4721 0.14381 0.10405 0.0
O22 O 0.53076 0.12723 0.137 0.0
O23 O 0.37302 0.48293 0.15587 0.0
Zn24 Zn 0.34005 0.47729 0.14702 0.0
O25 O 0.34264 0.50763 0.13879 0.0
Zn26 Zn 0.31876 0.51234 0.15141 0.0
Zn27 Zn 0.37318 0.5333 0.14633 0.0
Zn28 Zn 0.3391 0.50985 0.11043 0.0
O29 O 0.29633 0.51365 0.13237 0.0
O30 O 0.31065 0.51242 0.10328 0.0
O31 O 0.31477 0.46221 0.16967 0.0
O32 O 0.29987 0.48612 0.16948 0.0
O33 O 0.33264 0.54161 0.16793 0.0
O34 O 0.37083 0.5544 0.16618 0.0
O35 O 0.39043 0.55329 0.12349 0.0
O36 O 0.33112 0.4559 0.12236 0.0
O37 O 0.36687 0.53785 0.09786 0.0
O38 O 0.335 0.48066 0.09825 0.0
C39 C 0.39242 0.50202 0.15894 0.0
C40 C 0.29528 0.51361 0.11377 0.0
C41 C 0.35369 0.55616 0.17284 0.0
C42 C 0.29999 0.4681 0.17598 0.0
C43 C 0.38621 0.55331 0.10534 0.0
C44 C 0.33125 0.46073 0.10413 0.0
O45 O 0.39391 0.52186 0.15646 0.0
O46 O 0.89438 0.36256 0.15848 0.0
Zn47 Zn 0.86506 0.33132 0.1491 0.0
O48 O 0.83926 0.33758 0.14376 0.0
Zn49 Zn 0.80942 0.31227 0.15255 0.0
Zn50 Zn 0.8448 0.36504 0.15829 0.0
Zn51 Zn 0.83627 0.34234 0.116 0.0
O52 O 0.78762 0.29509 0.13055 0.0
O53 O 0.80548 0.31669 0.10445 0.0
O54 O 0.85321 0.30364 0.16976 0.0
O55 O 0.81461 0.28978 0.16796 0.0
O56 O 0.79291 0.32331 0.17081 0.0
O57 O 0.82325 0.35669 0.1814 0.0
O58 O 0.83914 0.38643 0.14114 0.0
O59 O 0.87479 0.3234 0.12252 0.0
O60 O 0.83707 0.37303 0.11091 0.0
O61 O 0.86196 0.34085 0.10172 0.0
C62 C 0.89621 0.38171 0.16498 0.0
C63 C 0.78803 0.29896 0.11226 0.0
C64 C 0.80193 0.34038 0.18282 0.0
C65 C 0.83199 0.28843 0.17454 0.0
C66 C 0.8373 0.38817 0.12272 0.0
C67 C 0.87407 0.33105 0.10539 0.0
O68 O 0.87825 0.38412 0.16648 0.0
O69 O 0.52745 0.89161 0.15605 0.0
Zn70 Zn 0.53031 0.863 0.14647 0.0
O71 O 0.49854 0.83667 0.13977 0.0
Zn72 Zn 0.49322 0.80755 0.15165 0.0
Zn73 Zn 0.47481 0.84341 0.14934 0.0
Zn74 Zn 0.49375 0.83129 0.11149 0.0
O75 O 0.49216 0.78482 0.13164 0.0
O76 O 0.49131 0.80072 0.10317 0.0
O77 O 0.54572 0.85199 0.16821 0.0
O78 O 0.51944 0.81381 0.16941 0.0
O79 O 0.46369 0.79205 0.16808 0.0
O80 O 0.45446 0.82022 0.16956 0.0
O81 O 0.45256 0.84068 0.12823 0.0
O82 O 0.5498 0.87385 0.1207 0.0
O83 O 0.46418 0.83013 0.10156 0.0
O84 O 0.52169 0.85666 0.09795 0.0
C85 C 0.50957 0.89353 0.16065 0.0
C86 C 0.49135 0.78433 0.11302 0.0
C87 C 0.45089 0.80005 0.17458 0.0
C88 C 0.53865 0.8313 0.17504 0.0
C89 C 0.44994 0.83488 0.11025 0.0
C90 C 0.54285 0.87095 0.10282 0.0
O91 O 0.48887 0.87603 0.15944 0.0
O92 O 0.64201 0.54351 0.1511 0.0
Zn93 Zn 0.67586 0.55031 0.14344 0.0
O94 O 0.67529 0.52034 0.13711 0.0
Zn95 Zn 0.69819 0.51678 0.15246 0.0
Zn96 Zn 0.64446 0.49399 0.14308 0.0
Zn97 Zn 0.68231 0.51779 0.10959 0.0
O98 O 0.72207 0.51424 0.13627 0.0
O99 O 0.71216 0.51654 0.10572 0.0
O100 O 0.7004 0.56768 0.1663 0.0
O101 O 0.71556 0.54417 0.16961 0.0
O102 O 0.68334 0.48886 0.17021 0.0
O103 O 0.64526 0.47488 0.16563 0.0
O104 O 0.63103 0.47193 0.12057 0.0
O105 O 0.68454 0.57002 0.11773 0.0
O106 O 0.65715 0.48815 0.0967 0.0
O107 O 0.68571 0.54561 0.09545 0.0
C108 C 0.6225 0.52403 0.15204 0.0
C109 C 0.72574 0.5147 0.11796 0.0
C110 C 0.66206 0.47426 0.17433 0.0
C111 C 0.71496 0.56252 0.17432 0.0
C112 C 0.63773 0.47163 0.10316 0.0
C113 C 0.68695 0.56496 0.10003 0.0
O114 O 0.62186 0.50463 0.14917 0.0
O115 O 0.10426 0.63096 0.15479 0.0
Zn116 Zn 0.13168 0.66386 0.14613 0.0
O117 O 0.15971 0.66115 0.13972 0.0
Zn118 Zn 0.18764 0.68679 0.15148 0.0
Zn119 Zn 0.15559 0.63185 0.15011 0.0
Zn120 Zn 0.16578 0.66201 0.1115 0.0
O121 O 0.2104 0.70857 0.13176 0.0
O122 O 0.19691 0.69015 0.10342 0.0
O123 O 0.14047 0.68949 0.1684 0.0
O124 O 0.1794 0.70573 0.16857 0.0
O125 O 0.20442 0.67539 0.16894 0.0
O126 O 0.17885 0.63726 0.17127 0.0
O127 O 0.16087 0.61351 0.12943 0.0
O128 O 0.12071 0.67228 0.12032 0.0
O129 O 0.16674 0.63341 0.10183 0.0
O130 O 0.14065 0.66472 0.0976 0.0
C131 C 0.10407 0.61206 0.15978 0.0
C132 C 0.21224 0.70746 0.11332 0.0
C133 C 0.19809 0.65529 0.17624 0.0
C134 C 0.16085 0.70502 0.1747 0.0
C135 C 0.1648 0.61573 0.1111 0.0
C136 C 0.12509 0.66994 0.10239 0.0
O137 O 0.12281 0.61089 0.1595 0.0
O138 O 0.89574 0.53261 0.35211 0.0
Zn139 Zn 0.86691 0.53574 0.36111 0.0
O140 O 0.83981 0.50415 0.36613 0.0
Zn141 Zn 0.81097 0.50075 0.35573 0.0
Zn142 Zn 0.84509 0.48128 0.35291 0.0
Zn143 Zn 0.83469 0.49655 0.39397 0.0
O144 O 0.78779 0.49633 0.37648 0.0
O145 O 0.80425 0.49368 0.40393 0.0
O146 O 0.85683 0.55298 0.34033 0.0
O147 O 0.81801 0.5291 0.34046 0.0
O148 O 0.79515 0.47369 0.33696 0.0
O149 O 0.82494 0.46839 0.32893 0.0
O150 O 0.83715 0.45407 0.37057 0.0
O151 O 0.87682 0.55299 0.38786 0.0
O152 O 0.8321 0.4652 0.40006 0.0
O153 O 0.86087 0.52271 0.40879 0.0
C154 C 0.89711 0.51452 0.3471 0.0
C155 C 0.78729 0.49372 0.39496 0.0
C156 C 0.80418 0.46459 0.32608 0.0
C157 C 0.83609 0.54778 0.33471 0.0
C158 C 0.83295 0.45018 0.3888 0.0
C159 C 0.87463 0.54441 0.40513 0.0
O160 O 0.87879 0.49434 0.34638 0.0
O161 O 0.3674 0.89271 0.35413 0.0
Zn162 Zn 0.33485 0.865 0.36344 0.0
O163 O 0.33846 0.83769 0.37011 0.0
Zn164 Zn 0.31214 0.80858 0.36094 0.0
Zn165 Zn 0.36598 0.84092 0.3573 0.0
Zn166 Zn 0.34153 0.83454 0.39816 0.0
O167 O 0.2926 0.7879 0.38281 0.0
O168 O 0.31487 0.80422 0.40905 0.0
O169 O 0.30827 0.8544 0.34179 0.0
O170 O 0.29181 0.81553 0.34421 0.0
O171 O 0.32215 0.7904 0.34334 0.0
O172 O 0.35762 0.81897 0.33454 0.0
O173 O 0.38556 0.83437 0.37585 0.0
O174 O 0.327 0.87637 0.38937 0.0
O175 O 0.37134 0.83463 0.40527 0.0
O176 O 0.33999 0.86053 0.41165 0.0
C177 C 0.38621 0.89275 0.34902 0.0
C178 C 0.2963 0.788 0.40111 0.0
C179 C 0.34019 0.79836 0.33238 0.0
C180 C 0.29224 0.83352 0.33695 0.0
C181 C 0.38651 0.83351 0.39444 0.0
C182 C 0.33242 0.87434 0.40706 0.0
O183 O 0.387 0.87383 0.34896 0.0
O184 O 0.48594 0.37154 0.36276 0.0
Zn185 Zn 0.48083 0.3384 0.37019 0.0
O186 O 0.51129 0.34082 0.37791 0.0
Zn187 Zn 0.51824 0.32082 0.36168 0.0
Zn188 Zn 0.53656 0.37299 0.37469 0.0
Zn189 Zn 0.51205 0.33157 0.40513 0.0
O190 O 0.52015 0.29602 0.37683 0.0
O191 O 0.51317 0.30151 0.40755 0.0
O192 O 0.46598 0.31463 0.34644 0.0
O193 O 0.49282 0.30371 0.3426 0.0
O194 O 0.54784 0.33882 0.34618 0.0
O195 O 0.55899 0.37575 0.35358 0.0
O196 O 0.55574 0.38578 0.39897 0.0
O197 O 0.4596 0.32803 0.395 0.0
O198 O 0.54067 0.35602 0.41995 0.0
O199 O 0.48291 0.32661 0.41824 0.0
C200 C 0.50451 0.39185 0.36321 0.0
C201 C 0.51714 0.28989 0.39472 0.0
C202 C 0.56183 0.36071 0.34405 0.0
C203 C 0.47359 0.3024 0.33771 0.0
C204 C 0.55588 0.37704 0.41553 0.0
C205 C 0.46361 0.32498 0.41285 0.0
O206 O 0.52425 0.39405 0.36778 0.0
O207 O 0.11403 0.4869 0.35954 0.0
Zn208 Zn 0.14194 0.48187 0.3683 0.0
O209 O 0.16944 0.51237 0.37691 0.0
Zn210 Zn 0.19778 0.5188 0.36298 0.0
Zn211 Zn 0.1633 0.53773 0.3713 0.0
Zn212 Zn 0.17676 0.51359 0.40501 0.0
O213 O 0.22303 0.52132 0.38062 0.0
O214 O 0.20818 0.51595 0.4105 0.0
O215 O 0.15259 0.46722 0.34553 0.0
O216 O 0.19096 0.49297 0.34461 0.0
O217 O 0.21138 0.54842 0.34724 0.0
O218 O 0.1855 0.56027 0.35134 0.0
O219 O 0.16685 0.55673 0.39509 0.0
O220 O 0.13009 0.46018 0.39283 0.0
O221 O 0.17795 0.54148 0.41892 0.0
O222 O 0.1521 0.48402 0.41708 0.0
C223 C 0.11284 0.50577 0.35834 0.0
C224 C 0.22487 0.51952 0.39898 0.0
C225 C 0.20429 0.56283 0.34369 0.0
C226 C 0.17325 0.47416 0.33862 0.0
C227 C 0.17293 0.5567 0.41275 0.0
C228 C 0.13553 0.46435 0.41103 0.0
O229 O 0.13064 0.5256 0.36224 0.0
O230 O 0.63838 0.09389 0.35638 0.0
Zn231 Zn 0.67252 0.11996 0.36319 0.0
O232 O 0.67355 0.14995 0.36656 0.0
Zn233 Zn 0.70371 0.17317 0.35642 0.0
Zn234 Zn 0.64874 0.14903 0.35139 0.0
Zn235 Zn 0.67127 0.15825 0.3931 0.0
O236 O 0.7204 0.20074 0.37392 0.0
O237 O 0.69784 0.19096 0.40037 0.0
O238 O 0.69588 0.12607 0.33994 0.0
O239 O 0.72375 0.15873 0.35292 0.0
O240 O 0.70008 0.18403 0.32982 0.0
O241 O 0.6613 0.16423 0.32525 0.0
O242 O 0.63327 0.16396 0.36626 0.0
O243 O 0.68082 0.11185 0.39039 0.0
O244 O 0.64144 0.15938 0.39706 0.0
O245 O 0.67306 0.1345 0.41013 0.0
C246 C 0.62081 0.09575 0.3507 0.0
C247 C 0.71616 0.20548 0.39096 0.0
C248 C 0.68209 0.17803 0.31912 0.0
C249 C 0.71699 0.14339 0.33948 0.0
C250 C 0.62987 0.16412 0.38466 0.0
C251 C 0.67817 0.11835 0.40752 0.0
O252 O 0.62296 0.11585 0.34782 0.0
O253 O 0.53048 0.63451 0.35948 0.0
Zn254 Zn 0.53597 0.66737 0.36795 0.0
O255 O 0.50547 0.66501 0.37525 0.0
Zn256 Zn 0.50091 0.68826 0.36137 0.0
Zn257 Zn 0.47979 0.634 0.36843 0.0
Zn258 Zn 0.50306 0.67018 0.40326 0.0
O259 O 0.49982 0.71185 0.37911 0.0
O260 O 0.50099 0.69917 0.40888 0.0
O261 O 0.55185 0.69232 0.34521 0.0
O262 O 0.52713 0.70616 0.34308 0.0
O263 O 0.47153 0.6736 0.34516 0.0
O264 O 0.45884 0.6355 0.34777 0.0
O265 O 0.45918 0.618 0.39147 0.0
O266 O 0.55661 0.67623 0.39306 0.0
O267 O 0.47435 0.64342 0.41602 0.0
O268 O 0.53205 0.67496 0.41634 0.0
C269 C 0.51157 0.61482 0.35695 0.0
C270 C 0.49997 0.71402 0.39762 0.0
C271 C 0.45702 0.65241 0.34063 0.0
C272 C 0.54566 0.70631 0.33764 0.0
C273 C 0.45882 0.62365 0.40922 0.0
C274 C 0.55181 0.67768 0.41104 0.0
O275 O 0.49155 0.61297 0.35952 0.0
O276 O 0.5369 0.89663 0.85548 0.0
Zn277 Zn 0.53973 0.86769 0.86436 0.0
O278 O 0.50794 0.84116 0.86917 0.0
Zn279 Zn 0.50465 0.81186 0.86005 0.0
Zn280 Zn 0.48567 0.84606 0.85467 0.0
Zn281 Zn 0.49956 0.83747 0.89674 0.0
O282 O 0.50157 0.79045 0.88199 0.0
O283 O 0.49448 0.8066 0.90776 0.0
O284 O 0.55619 0.85712 0.84318 0.0
O285 O 0.53258 0.81829 0.84442 0.0
O286 O 0.47734 0.79487 0.84138 0.0
O287 O 0.47403 0.82519 0.83111 0.0
O288 O 0.45791 0.83913 0.87144 0.0
O289 O 0.55702 0.87706 0.89119 0.0
O290 O 0.46957 0.83792 0.90172 0.0
O291 O 0.52628 0.86283 0.91161 0.0
C292 C 0.51931 0.89791 0.84889 0.0
C293 C 0.49686 0.79026 0.90008 0.0
C294 C 0.4696 0.80409 0.82925 0.0
C295 C 0.55089 0.83622 0.83798 0.0
C296 C 0.4544 0.83749 0.88987 0.0
C297 C 0.54822 0.87547 0.9083 0.0
O298 O 0.49926 0.87958 0.84703 0.0
O299 O 0.64418 0.53518 0.85294 0.0
Zn300 Zn 0.67601 0.53778 0.86179 0.0
O301 O 0.67093 0.50606 0.86767 0.0
Zn302 Zn 0.6951 0.501 0.85652 0.0
Zn303 Zn 0.64171 0.48298 0.85593 0.0
Zn304 Zn 0.67006 0.49997 0.89576 0.0
O305 O 0.71463 0.49706 0.87679 0.0
O306 O 0.69782 0.49692 0.90493 0.0
O307 O 0.70273 0.55349 0.84031 0.0
O308 O 0.71624 0.52837 0.84019 0.0
O309 O 0.68217 0.47296 0.83857 0.0
O310 O 0.64676 0.46787 0.83235 0.0
O311 O 0.62264 0.45741 0.87501 0.0
O312 O 0.68454 0.55633 0.88803 0.0
O313 O 0.64113 0.46952 0.90354 0.0
O314 O 0.67153 0.52718 0.90999 0.0
C315 C 0.62435 0.51712 0.84866 0.0
C316 C 0.71387 0.49579 0.89539 0.0
C317 C 0.66319 0.46351 0.82875 0.0
C318 C 0.71735 0.54723 0.83429 0.0
C319 C 0.62405 0.45443 0.89327 0.0
C320 C 0.67922 0.54866 0.90566 0.0
O321 O 0.62187 0.49668 0.84892 0.0
O322 O 0.10764 0.63395 0.85685 0.0
Zn323 Zn 0.1357 0.66671 0.86524 0.0
O324 O 0.1633 0.66354 0.87289 0.0
Zn325 Zn 0.1911 0.68477 0.85799 0.0
Zn326 Zn 0.15648 0.63166 0.86794 0.0
Zn327 Zn 0.17187 0.67046 0.90062 0.0
O328 O 0.21637 0.70922 0.87468 0.0
O329 O 0.20264 0.70043 0.90496 0.0
O330 O 0.14564 0.69178 0.84238 0.0
O331 O 0.1834 0.70245 0.83898 0.0
O332 O 0.20482 0.6681 0.84314 0.0
O333 O 0.17841 0.63067 0.84808 0.0
O334 O 0.16071 0.61666 0.89183 0.0
O335 O 0.12423 0.67607 0.8903 0.0
O336 O 0.1753 0.64494 0.91417 0.0
O337 O 0.14704 0.6742 0.91378 0.0
C338 C 0.10601 0.61372 0.85556 0.0
C339 C 0.21856 0.71365 0.89293 0.0
C340 C 0.19735 0.64638 0.84022 0.0
C341 C 0.16572 0.7042 0.83406 0.0
C342 C 0.1691 0.6241 0.9088 0.0
C343 C 0.13009 0.67702 0.90836 0.0
O344 O 0.12358 0.6112 0.8592 0.0
O345 O 0.47446 0.10381 0.85907 0.0
Zn346 Zn 0.46948 0.13159 0.8677 0.0
O347 O 0.50054 0.15968 0.8735 0.0
Zn348 Zn 0.50336 0.18727 0.86062 0.0
Zn349 Zn 0.52544 0.15468 0.8638 0.0
Zn350 Zn 0.506 0.16716 0.90157 0.0
O351 O 0.50487 0.21106 0.87945 0.0
O352 O 0.51029 0.19917 0.90838 0.0
O353 O 0.45214 0.14009 0.84571 0.0
O354 O 0.47608 0.17877 0.84357 0.0
O355 O 0.53184 0.20323 0.84337 0.0
O356 O 0.54466 0.1778 0.84302 0.0
O357 O 0.54807 0.15885 0.88504 0.0
O358 O 0.45056 0.12133 0.89376 0.0
O359 O 0.53469 0.16695 0.91197 0.0
O360 O 0.47784 0.14343 0.91595 0.0
C361 C 0.49301 0.1034 0.85391 0.0
C362 C 0.50832 0.21403 0.89779 0.0
C363 C 0.54606 0.19685 0.83721 0.0
C364 C 0.45752 0.16023 0.83847 0.0
C365 C 0.54979 0.16345 0.90326 0.0
C366 C 0.45722 0.1272 0.91156 0.0
O367 O 0.51304 0.12198 0.85418 0.0
O368 O 0.37997 0.48848 0.86024 0.0
Zn369 Zn 0.3467 0.48235 0.86895 0.0
O370 O 0.34855 0.51252 0.87696 0.0
Zn371 Zn 0.32613 0.51753 0.86223 0.0
Zn372 Zn 0.37987 0.53858 0.87176 0.0
Zn373 Zn 0.34187 0.51387 0.90491 0.0
O374 O 0.30359 0.52119 0.87944 0.0
O375 O 0.31268 0.5161 0.90957 0.0
O376 O 0.32131 0.46617 0.84647 0.0
O377 O 0.307 0.49051 0.84489 0.0
O378 O 0.34181 0.54599 0.84512 0.0
O379 O 0.37965 0.56102 0.85196 0.0
O380 O 0.39476 0.55764 0.89561 0.0
O381 O 0.33768 0.46128 0.89377 0.0
O382 O 0.36794 0.54211 0.91904 0.0
O383 O 0.33721 0.4846 0.91748 0.0
C384 C 0.39974 0.50765 0.85902 0.0
C385 C 0.29982 0.51974 0.89779 0.0
C386 C 0.36317 0.56174 0.84281 0.0
C387 C 0.30675 0.47193 0.83942 0.0
C388 C 0.38821 0.55757 0.91312 0.0
C389 C 0.33538 0.46532 0.91179 0.0
O390 O 0.40122 0.52729 0.8628 0.0
O391 O 0.88893 0.37072 0.86215 0.0
Zn392 Zn 0.86172 0.33771 0.87096 0.0
O393 O 0.83417 0.34019 0.88013 0.0
Zn394 Zn 0.80555 0.31743 0.86676 0.0
Zn395 Zn 0.83964 0.37151 0.87483 0.0
Zn396 Zn 0.82811 0.33468 0.90829 0.0
O397 O 0.78118 0.29422 0.88504 0.0
O398 O 0.79766 0.30522 0.91434 0.0
O399 O 0.85123 0.31294 0.84784 0.0
O400 O 0.81259 0.29886 0.84803 0.0
O401 O 0.79141 0.33289 0.85069 0.0
O402 O 0.81701 0.37075 0.85496 0.0
O403 O 0.83551 0.3869 0.89849 0.0
O404 O 0.87459 0.32829 0.89504 0.0
O405 O 0.82566 0.36061 0.92223 0.0
O406 O 0.85379 0.33106 0.91984 0.0
C407 C 0.88989 0.39066 0.86111 0.0
C408 C 0.78063 0.29126 0.90349 0.0
C409 C 0.79841 0.3544 0.84717 0.0
C410 C 0.83052 0.29866 0.84135 0.0
C411 C 0.82969 0.38057 0.91614 0.0
C412 C 0.87009 0.3278 0.91338 0.0
O413 O 0.87212 0.39259 0.86541 0.0
O414 O 0.11273 0.47194 0.6563 0.0
Zn415 Zn 0.14118 0.46789 0.64793 0.0
O416 O 0.16846 0.49904 0.64177 0.0
Zn417 Zn 0.19729 0.50261 0.65248 0.0
Zn418 Zn 0.16387 0.52285 0.65382 0.0
Zn419 Zn 0.17334 0.5054 0.6138 0.0
O420 O 0.21968 0.50474 0.63188 0.0
O421 O 0.20434 0.50917 0.60435 0.0
O422 O 0.15123 0.45217 0.67021 0.0
O423 O 0.19011 0.47529 0.66908 0.0
O424 O 0.21356 0.53028 0.67087 0.0
O425 O 0.18346 0.53547 0.67792 0.0
O426 O 0.17194 0.54938 0.63532 0.0
O427 O 0.13086 0.44897 0.62185 0.0
O428 O 0.1738 0.53531 0.60622 0.0
O429 O 0.14793 0.47791 0.59975 0.0
C430 C 0.11188 0.49051 0.66054 0.0
C431 C 0.22049 0.50774 0.61344 0.0
C432 C 0.204 0.53908 0.68149 0.0
C433 C 0.17199 0.45744 0.67582 0.0
C434 C 0.17419 0.55148 0.61679 0.0
C435 C 0.13375 0.45655 0.60415 0.0
O436 O 0.13041 0.51053 0.66046 0.0
O437 O 0.63333 0.11546 0.65414 0.0
Zn438 Zn 0.66592 0.14332 0.64517 0.0
O439 O 0.66262 0.17068 0.63709 0.0
Zn440 Zn 0.68581 0.19928 0.65009 0.0
Zn441 Zn 0.63173 0.16495 0.64444 0.0
Zn442 Zn 0.6664 0.17684 0.60876 0.0
O443 O 0.70766 0.22364 0.6313 0.0
O444 O 0.69532 0.20776 0.60198 0.0
O445 O 0.69131 0.15378 0.66772 0.0
O446 O 0.70529 0.19243 0.66802 0.0
O447 O 0.67115 0.21376 0.66667 0.0
O448 O 0.63323 0.18742 0.66493 0.0
O449 O 0.61492 0.16888 0.62184 0.0
O450 O 0.67504 0.13135 0.62034 0.0
O451 O 0.63909 0.1785 0.59648 0.0
O452 O 0.6698 0.15138 0.59621 0.0
C453 C 0.61345 0.11436 0.65649 0.0
C454 C 0.70968 0.22471 0.61275 0.0
C455 C 0.64998 0.20655 0.67164 0.0
C456 C 0.7057 0.17444 0.67425 0.0
C457 C 0.61964 0.1744 0.60392 0.0
C458 C 0.67415 0.13556 0.6021 0.0
O459 O 0.61133 0.1323 0.65358 0.0
O460 O 0.52785 0.63232 0.65506 0.0
Zn461 Zn 0.53564 0.66599 0.64634 0.0
O462 O 0.50617 0.6657 0.63895 0.0
Zn463 Zn 0.50588 0.69254 0.65051 0.0
Zn464 Zn 0.47946 0.63707 0.64862 0.0
Zn465 Zn 0.50197 0.66751 0.61065 0.0
O466 O 0.50445 0.71436 0.63093 0.0
O467 O 0.49819 0.69512 0.60289 0.0
O468 O 0.55287 0.69106 0.66894 0.0
O469 O 0.53381 0.711 0.66695 0.0
O470 O 0.47889 0.68244 0.66898 0.0
O471 O 0.46207 0.64357 0.66963 0.0
O472 O 0.45668 0.61974 0.62725 0.0
O473 O 0.55582 0.67385 0.62101 0.0
O474 O 0.47313 0.63896 0.59974 0.0
O475 O 0.531 0.67209 0.59768 0.0
C476 C 0.50816 0.61391 0.65896 0.0
C477 C 0.50056 0.71268 0.6126 0.0
C478 C 0.46341 0.66257 0.67557 0.0
C479 C 0.55012 0.70834 0.67415 0.0
C480 C 0.45648 0.62175 0.60875 0.0
C481 C 0.55082 0.67488 0.60299 0.0
O482 O 0.48905 0.61432 0.65786 0.0
O483 O 0.9007 0.52706 0.64977 0.0
Zn484 Zn 0.87366 0.53369 0.64187 0.0
O485 O 0.8447 0.50375 0.63447 0.0
Zn486 Zn 0.818 0.4994 0.64981 0.0
Zn487 Zn 0.84951 0.47743 0.63953 0.0
Zn488 Zn 0.83549 0.50205 0.60682 0.0
O489 O 0.79268 0.49892 0.63363 0.0
O490 O 0.80458 0.50129 0.60291 0.0
O491 O 0.86584 0.55042 0.66487 0.0
O492 O 0.82742 0.52584 0.66798 0.0
O493 O 0.8042 0.47028 0.66622 0.0
O494 O 0.82867 0.45685 0.66104 0.0
O495 O 0.84289 0.457 0.61604 0.0
O496 O 0.88518 0.55422 0.61674 0.0
O497 O 0.8316 0.47302 0.59298 0.0
O498 O 0.86036 0.5306 0.59364 0.0
C499 C 0.90098 0.5077 0.65039 0.0
C500 C 0.78963 0.50004 0.61538 0.0
C501 C 0.81089 0.45552 0.66968 0.0
C502 C 0.84596 0.54447 0.67294 0.0
C503 C 0.83579 0.45708 0.59875 0.0
C504 C 0.87825 0.54982 0.59887 0.0
O505 O 0.88252 0.48829 0.64678 0.0
O506 O 0.37148 0.89521 0.6543 0.0
Zn507 Zn 0.33946 0.86666 0.64502 0.0
O508 O 0.34386 0.8396 0.63814 0.0
Zn509 Zn 0.32135 0.81115 0.65179 0.0
Zn510 Zn 0.37508 0.84662 0.64568 0.0
Zn511 Zn 0.3404 0.83237 0.61 0.0
O512 O 0.29882 0.78657 0.63338 0.0
O513 O 0.31168 0.80124 0.60379 0.0
O514 O 0.31327 0.85608 0.66693 0.0
O515 O 0.30198 0.81809 0.66971 0.0
O516 O 0.33678 0.79698 0.66801 0.0
O517 O 0.37437 0.82425 0.66581 0.0
O518 O 0.39278 0.84359 0.62329 0.0
O519 O 0.33056 0.87759 0.61939 0.0
O520 O 0.36799 0.83089 0.59827 0.0
O521 O 0.3366 0.85693 0.59635 0.0
C522 C 0.39152 0.89691 0.65744 0.0
C523 C 0.29693 0.78495 0.61483 0.0
C524 C 0.3582 0.80481 0.67257 0.0
C525 C 0.30017 0.83575 0.67462 0.0
C526 C 0.38796 0.83673 0.60563 0.0
C527 C 0.33183 0.87272 0.60138 0.0
O528 O 0.39434 0.8793 0.6551 0.0
O529 O 0.46807 0.36441 0.66072 0.0
Zn530 Zn 0.46481 0.33232 0.65181 0.0
O531 O 0.49638 0.33697 0.64666 0.0
Zn532 Zn 0.49948 0.31097 0.65599 0.0
Zn533 Zn 0.51897 0.36421 0.66087 0.0
Zn534 Zn 0.50461 0.34087 0.61899 0.0
O535 O 0.50146 0.29165 0.63436 0.0
O536 O 0.5091 0.31453 0.60832 0.0
O537 O 0.44834 0.30549 0.67321 0.0
O538 O 0.47205 0.29035 0.67233 0.0
O539 O 0.5276 0.32154 0.67366 0.0
O540 O 0.53174 0.35547 0.68403 0.0
O541 O 0.54606 0.38493 0.64359 0.0
O542 O 0.44739 0.32427 0.62499 0.0
O543 O 0.53487 0.37091 0.61348 0.0
O544 O 0.47786 0.33955 0.60421 0.0
C545 C 0.48601 0.38322 0.66702 0.0
C546 C 0.50621 0.29574 0.61625 0.0
C547 C 0.53618 0.33878 0.68554 0.0
C548 C 0.45376 0.29007 0.67873 0.0
C549 C 0.54971 0.3862 0.6252 0.0
C550 C 0.45602 0.33082 0.60774 0.0
O551 O 0.50583 0.38439 0.66863 0.0
C552 C 0.46082 0.29513 0.30253 0.0
C553 C 0.46108 0.28622 0.32117 0.0
C554 C 0.45775 0.2816 0.28559 0.0
C555 C 0.44447 0.22161 0.26769 0.0
H556 H 0.49086 0.25812 0.22822 0.0
C557 C 0.465 0.181 0.19797 0.0
C558 C 0.48909 0.19111 0.19358 0.0
C559 C 0.45733 0.19081 0.21269 0.0
C560 C 0.47776 0.24757 0.23907 0.0
H561 H 0.45704 0.25575 0.33672 0.0
H562 H 0.45135 0.23217 0.30757 0.0
H563 H 0.48346 0.27809 0.25484 0.0
H564 H 0.52391 0.21873 0.20225 0.0
H565 H 0.51072 0.2353 0.22741 0.0
H566 H 0.43969 0.191 0.25214 0.0
C567 C 0.45322 0.24938 0.30575 0.0
C568 C 0.47325 0.25911 0.25428 0.0
C569 C 0.45635 0.2629 0.32258 0.0
C570 C 0.50518 0.21057 0.20482 0.0
C571 C 0.4976 0.22028 0.21929 0.0
C572 C 0.44898 0.21002 0.25236 0.0
C573 C 0.45497 0.25888 0.28692 0.0
C574 C 0.45694 0.24636 0.26914 0.0
C575 C 0.47359 0.21098 0.22322 0.0
C576 C 0.4662 0.22285 0.23814 0.0
H577 H 0.465 0.31321 0.30091 0.0
H578 H 0.45882 0.28945 0.27141 0.0
H579 H 0.43156 0.2111 0.27867 0.0
H580 H 0.45209 0.16605 0.18967 0.0
H581 H 0.43868 0.18308 0.2154 0.0
C582 C 0.25911 0.44896 0.18856 0.0
C583 C 0.28265 0.45512 0.19172 0.0
C584 C 0.24366 0.44414 0.20429 0.0
C585 C 0.23577 0.43399 0.25852 0.0
H586 H 0.19895 0.46491 0.25311 0.0
C587 C 0.19862 0.45948 0.32505 0.0
C588 C 0.17815 0.46112 0.32321 0.0
C589 C 0.20774 0.45326 0.30909 0.0
C590 C 0.20865 0.4557 0.25484 0.0
H591 H 0.30818 0.4602 0.21398 0.0
H592 H 0.28119 0.45162 0.24164 0.0
H593 H 0.22189 0.46402 0.22554 0.0
H594 H 0.15063 0.45644 0.3032 0.0
H595 H 0.1663 0.44504 0.27515 0.0
H596 H 0.22282 0.42608 0.288 0.0
C597 C 0.2745 0.45015 0.22689 0.0
C598 C 0.22195 0.45522 0.23893 0.0
C599 C 0.28999 0.45486 0.21102 0.0
C600 C 0.1662 0.45497 0.30519 0.0
C601 C 0.17546 0.44883 0.28904 0.0
C602 C 0.22238 0.4344 0.27444 0.0
C603 C 0.25136 0.44566 0.22377 0.0
C604 C 0.23597 0.44461 0.24055 0.0
C605 C 0.19681 0.44858 0.29061 0.0
C606 C 0.20887 0.44559 0.27297 0.0
H607 H 0.25302 0.44935 0.17387 0.0
H608 H 0.22591 0.44021 0.20117 0.0
H609 H 0.24604 0.42537 0.26032 0.0
H610 H 0.20841 0.46435 0.33868 0.0
H611 H 0.22426 0.45359 0.31102 0.0
C612 C 0.83808 0.27314 0.20687 0.0
C613 C 0.82611 0.26919 0.18894 0.0
C614 C 0.8282 0.2567 0.22229 0.0
C615 C 0.76933 0.21089 0.23967 0.0
H616 H 0.80338 0.19403 0.2764 0.0
C617 C 0.72013 0.14494 0.30251 0.0
C618 C 0.73107 0.15061 0.321 0.0
C619 C 0.73267 0.15685 0.28557 0.0
C620 C 0.79356 0.19867 0.2664 0.0
H621 H 0.79531 0.24416 0.17273 0.0
H622 H 0.77857 0.21564 0.19912 0.0
H623 H 0.82424 0.22021 0.249 0.0
H624 H 0.76415 0.17241 0.3359 0.0
H625 H 0.78582 0.19292 0.3067 0.0
H626 H 0.73884 0.19008 0.25721 0.0
C627 C 0.79521 0.23153 0.20162 0.0
C628 C 0.8056 0.21372 0.25064 0.0
C629 C 0.80499 0.24781 0.18636 0.0
C630 C 0.75517 0.16741 0.32189 0.0
C631 C 0.76767 0.17924 0.30504 0.0
C632 C 0.75736 0.19602 0.25547 0.0
C633 C 0.80615 0.23607 0.22006 0.0
C634 C 0.79364 0.22002 0.237 0.0
C635 C 0.7565 0.17471 0.28666 0.0
C636 C 0.76923 0.18962 0.26914 0.0
H637 H 0.85416 0.28957 0.20946 0.0
H638 H 0.83716 0.26081 0.23629 0.0
H639 H 0.75954 0.21567 0.22975 0.0
H640 H 0.70154 0.1324 0.30125 0.0
H641 H 0.72346 0.15248 0.27168 0.0
C642 C 0.55243 0.80513 0.18853 0.0
C643 C 0.55187 0.82619 0.19013 0.0
C644 C 0.55903 0.79621 0.20438 0.0
C645 C 0.5596 0.79755 0.25859 0.0
H646 H 0.58752 0.75802 0.25256 0.0
C647 C 0.56635 0.74709 0.32489 0.0
C648 C 0.55912 0.72327 0.32184 0.0
C649 C 0.57134 0.76244 0.30904 0.0
C650 C 0.5796 0.7689 0.25453 0.0
H651 H 0.55889 0.85498 0.20956 0.0
H652 H 0.57089 0.83962 0.23743 0.0
H653 H 0.58643 0.78081 0.22472 0.0
H654 H 0.55218 0.69705 0.2997 0.0
H655 H 0.56106 0.72382 0.27189 0.0
H656 H 0.55229 0.7853 0.28822 0.0
C657 C 0.56597 0.82985 0.22381 0.0
C658 C 0.57897 0.78204 0.23852 0.0
C659 C 0.55947 0.83891 0.20775 0.0
C660 C 0.55842 0.71546 0.30255 0.0
C661 C 0.5633 0.73083 0.28659 0.0
C662 C 0.56029 0.78447 0.27459 0.0
C663 C 0.56517 0.80797 0.22252 0.0
C664 C 0.56859 0.79628 0.24019 0.0
C665 C 0.56888 0.75434 0.2896 0.0
C666 C 0.57 0.76967 0.27277 0.0
H667 H 0.54646 0.79478 0.1752 0.0
H668 H 0.55786 0.77928 0.2027 0.0
H669 H 0.55106 0.80786 0.26049 0.0
H670 H 0.5666 0.75352 0.33957 0.0
H671 H 0.57607 0.78045 0.31206 0.0
C672 C 0.72325 0.57458 0.20948 0.0
C673 C 0.73145 0.57668 0.19015 0.0
C674 C 0.73852 0.57916 0.22547 0.0
C675 C 0.79237 0.57658 0.23661 0.0
H676 H 0.78757 0.59943 0.28775 0.0
C677 C 0.84469 0.57052 0.30289 0.0
C678 C 0.83164 0.56215 0.32028 0.0
C679 C 0.8362 0.57823 0.28724 0.0
C680 C 0.78911 0.59286 0.2736 0.0
H681 H 0.76228 0.58646 0.17246 0.0
H682 H 0.789 0.59532 0.2001 0.0
H683 H 0.76529 0.60219 0.26025 0.0
H684 H 0.80028 0.55675 0.33528 0.0
H685 H 0.78569 0.57006 0.30848 0.0
H686 H 0.8154 0.5664 0.24999 0.0
C687 C 0.77078 0.5898 0.20307 0.0
C688 C 0.77629 0.59449 0.25778 0.0
C689 C 0.75555 0.5852 0.18718 0.0
C690 C 0.81086 0.56321 0.32213 0.0
C691 C 0.80248 0.57095 0.30666 0.0
C692 C 0.80507 0.57483 0.25243 0.0
C693 C 0.76229 0.58578 0.22245 0.0
C694 C 0.77747 0.58608 0.23908 0.0
C695 C 0.81454 0.57787 0.28869 0.0
C696 C 0.80336 0.58255 0.2713 0.0
H697 H 0.70466 0.56728 0.21226 0.0
H698 H 0.73124 0.57572 0.24013 0.0
H699 H 0.7935 0.56952 0.22257 0.0
H700 H 0.86058 0.56964 0.30088 0.0
H701 H 0.84624 0.58375 0.27377 0.0
C702 C 0.28034 0.8401 0.30326 0.0
C703 C 0.27429 0.82864 0.3215 0.0
C704 C 0.26497 0.83063 0.2871 0.0
C705 C 0.20343 0.78367 0.27264 0.0
H706 H 0.23367 0.78348 0.22399 0.0
C707 C 0.15695 0.71513 0.20955 0.0
C708 C 0.16448 0.72241 0.19022 0.0
C709 C 0.16751 0.73079 0.22537 0.0
C710 C 0.22479 0.78359 0.23732 0.0
H711 H 0.24676 0.79915 0.33731 0.0
H712 H 0.22029 0.7829 0.30963 0.0
H713 H 0.25744 0.80673 0.25148 0.0
H714 H 0.18794 0.75212 0.1723 0.0
H715 H 0.20557 0.77948 0.19952 0.0
H716 H 0.1708 0.75979 0.25854 0.0
C717 C 0.23664 0.79919 0.30752 0.0
C718 C 0.23853 0.79709 0.25318 0.0
C719 C 0.25193 0.80855 0.32351 0.0
C720 C 0.18149 0.74606 0.18699 0.0
C721 C 0.19193 0.76166 0.20268 0.0
C722 C 0.18968 0.77004 0.25677 0.0
C723 C 0.24317 0.80955 0.28884 0.0
C724 C 0.22816 0.79716 0.27123 0.0
C725 C 0.18589 0.75404 0.22218 0.0
C726 C 0.20016 0.76961 0.2389 0.0
H727 H 0.29754 0.85538 0.30111 0.0
H728 H 0.27055 0.83942 0.27308 0.0
H729 H 0.19461 0.78345 0.2861 0.0
H730 H 0.14441 0.69687 0.21258 0.0
H731 H 0.1624 0.72418 0.24014 0.0
C732 C 0.56598 0.71683 0.70873 0.0
C733 C 0.56378 0.72495 0.69024 0.0
C734 C 0.57161 0.73142 0.72538 0.0
C735 C 0.59047 0.79356 0.7417 0.0
H736 H 0.55251 0.76193 0.78717 0.0
C737 C 0.56765 0.84064 0.80395 0.0
C738 C 0.56434 0.83131 0.82299 0.0
C739 C 0.57294 0.83003 0.78827 0.0
C740 C 0.56358 0.77115 0.77477 0.0
H741 H 0.56732 0.7552 0.67459 0.0
H742 H 0.57713 0.78037 0.70315 0.0
H743 H 0.5528 0.73893 0.75943 0.0
H744 H 0.56555 0.8046 0.84067 0.0
H745 H 0.57552 0.78681 0.81377 0.0
H746 H 0.60053 0.82588 0.75696 0.0
C747 C 0.57476 0.76297 0.7051 0.0
C748 C 0.56382 0.75784 0.75877 0.0
C749 C 0.56913 0.74846 0.68859 0.0
C750 C 0.56818 0.81235 0.82621 0.0
C751 C 0.57353 0.80188 0.81068 0.0
C752 C 0.59012 0.80691 0.75771 0.0
C753 C 0.57518 0.75445 0.72393 0.0
C754 C 0.57706 0.76877 0.74184 0.0
C755 C 0.57497 0.80986 0.79132 0.0
C756 C 0.57653 0.79591 0.77446 0.0
H757 H 0.56159 0.69872 0.71059 0.0
H758 H 0.5722 0.72427 0.73953 0.0
H759 H 0.6012 0.80276 0.72914 0.0
H760 H 0.56426 0.85484 0.80088 0.0
H761 H 0.57386 0.83669 0.77359 0.0
C762 C 0.82421 0.56313 0.68644 0.0
C763 C 0.84285 0.55855 0.68848 0.0
C764 C 0.81518 0.56909 0.70264 0.0
C765 C 0.8098 0.56005 0.75647 0.0
H766 H 0.77749 0.59575 0.75325 0.0
C767 C 0.75864 0.56477 0.82296 0.0
C768 C 0.7358 0.56065 0.81941 0.0
C769 C 0.77465 0.57008 0.8076 0.0
C770 C 0.78632 0.58563 0.7544 0.0
H771 H 0.86734 0.55771 0.70915 0.0
H772 H 0.85211 0.56889 0.73757 0.0
H773 H 0.80145 0.59603 0.72573 0.0
H774 H 0.71223 0.55987 0.79693 0.0
H775 H 0.74027 0.56933 0.76993 0.0
H776 H 0.79444 0.54932 0.78493 0.0
C777 C 0.84422 0.56758 0.72336 0.0
C778 C 0.80013 0.58577 0.73857 0.0
C779 C 0.85333 0.56163 0.707 0.0
C780 C 0.72988 0.56354 0.80022 0.0
C781 C 0.74594 0.56876 0.78472 0.0
C782 C 0.79613 0.56 0.77228 0.0
C783 C 0.82439 0.57052 0.72154 0.0
C784 C 0.81186 0.5727 0.73923 0.0
C785 C 0.76824 0.57113 0.7881 0.0
C786 C 0.78395 0.57258 0.77146 0.0
H787 H 0.81545 0.56044 0.67242 0.0
H788 H 0.79985 0.57091 0.70047 0.0
H789 H 0.81799 0.54932 0.75753 0.0
H790 H 0.76364 0.5624 0.83755 0.0
H791 H 0.79177 0.57234 0.81094 0.0
C792 C 0.28779 0.83916 0.70881 0.0
C793 C 0.28178 0.8311 0.68942 0.0
C794 C 0.27139 0.82844 0.7241 0.0
C795 C 0.21916 0.77048 0.73546 0.0
H796 H 0.21535 0.80122 0.78262 0.0
C797 C 0.18974 0.74458 0.82098 0.0
C798 C 0.17021 0.72192 0.81863 0.0
C799 C 0.19957 0.75974 0.80498 0.0
C800 C 0.21623 0.79226 0.7696 0.0
H801 H 0.25363 0.80632 0.67078 0.0
H802 H 0.22494 0.78836 0.69706 0.0
H803 H 0.24019 0.82481 0.75547 0.0
H804 H 0.1451 0.69779 0.79764 0.0
H805 H 0.16181 0.72454 0.76957 0.0
H806 H 0.19594 0.73795 0.74967 0.0
C807 C 0.24232 0.80259 0.70069 0.0
C808 C 0.23054 0.80587 0.75398 0.0
C809 C 0.25866 0.81319 0.68552 0.0
C810 C 0.1598 0.71531 0.80001 0.0
C811 C 0.16973 0.73054 0.78386 0.0
C812 C 0.20497 0.75689 0.75106 0.0
C813 C 0.24868 0.80935 0.72033 0.0
C814 C 0.2324 0.79518 0.73671 0.0
C815 C 0.19031 0.7527 0.78599 0.0
C816 C 0.20345 0.76749 0.76852 0.0
H817 H 0.30565 0.85243 0.71235 0.0
H818 H 0.27705 0.8341 0.73901 0.0
H819 H 0.22039 0.76145 0.72262 0.0
H820 H 0.19845 0.75 0.83508 0.0
H821 H 0.21547 0.77638 0.80738 0.0
C822 C 0.4421 0.15602 0.8041 0.0
C823 C 0.443 0.16356 0.82352 0.0
C824 C 0.4361 0.1663 0.78866 0.0
C825 C 0.43927 0.2231 0.77743 0.0
H826 H 0.40731 0.19237 0.72936 0.0
C827 C 0.43556 0.27805 0.7124 0.0
C828 C 0.44043 0.27196 0.69394 0.0
C829 C 0.4301 0.26269 0.72849 0.0
C830 C 0.41643 0.20134 0.74263 0.0
H831 H 0.43716 0.18687 0.84206 0.0
H832 H 0.42591 0.20405 0.8155 0.0
H833 H 0.40861 0.16891 0.75659 0.0
H834 H 0.44191 0.24444 0.67768 0.0
H835 H 0.43238 0.21793 0.70525 0.0
H836 H 0.44789 0.25555 0.76339 0.0
C837 C 0.43019 0.19055 0.81197 0.0
C838 C 0.41715 0.18779 0.7583 0.0
C839 C 0.43622 0.18037 0.82729 0.0
C840 C 0.43799 0.24956 0.69166 0.0
C841 C 0.4325 0.23428 0.70759 0.0
C842 C 0.43868 0.23663 0.76176 0.0
C843 C 0.43103 0.18446 0.79233 0.0
C844 C 0.42878 0.19848 0.77589 0.0
C845 C 0.42934 0.24089 0.72647 0.0
C846 C 0.42753 0.22606 0.74397 0.0
H847 H 0.44793 0.14365 0.80066 0.0
H848 H 0.43707 0.16118 0.77375 0.0
H849 H 0.44879 0.23213 0.79055 0.0
H850 H 0.4377 0.29531 0.71476 0.0
H851 H 0.42738 0.26832 0.74268 0.0
C852 C 0.16614 0.44209 0.71043 0.0
C853 C 0.17653 0.44491 0.6919 0.0
C854 C 0.1763 0.43806 0.72712 0.0
C855 C 0.22368 0.42505 0.74364 0.0
H856 H 0.22736 0.46312 0.78831 0.0
C857 C 0.29505 0.45448 0.80551 0.0
C858 C 0.28872 0.45767 0.82446 0.0
C859 C 0.27884 0.44777 0.7899 0.0
C860 C 0.22629 0.45203 0.77614 0.0
H861 H 0.20479 0.44418 0.67621 0.0
H862 H 0.22219 0.43699 0.70484 0.0
H863 H 0.20265 0.45975 0.76063 0.0
H864 H 0.26015 0.45506 0.84209 0.0
H865 H 0.23186 0.4426 0.81536 0.0
H866 H 0.24804 0.41803 0.75907 0.0
C867 C 0.2062 0.43768 0.70678 0.0
C868 C 0.21194 0.45002 0.76018 0.0
C869 C 0.19613 0.44176 0.69024 0.0
C870 C 0.26549 0.45251 0.82769 0.0
C871 C 0.24936 0.44573 0.81225 0.0
C872 C 0.23816 0.42715 0.75962 0.0
C873 C 0.19707 0.43672 0.72564 0.0
C874 C 0.21053 0.4367 0.74353 0.0
C875 C 0.25601 0.44419 0.79294 0.0
C876 C 0.23981 0.44082 0.77609 0.0
H877 H 0.15134 0.44486 0.71229 0.0
H878 H 0.16843 0.43699 0.74129 0.0
H879 H 0.22294 0.41437 0.73127 0.0
H880 H 0.31297 0.45889 0.80245 0.0
H881 H 0.28471 0.44687 0.77527 0.0
C882 C 0.74635 0.19731 0.6873 0.0
C883 C 0.72315 0.1789 0.68994 0.0
C884 C 0.76162 0.20718 0.70326 0.0
C885 C 0.76968 0.20104 0.75697 0.0
H886 H 0.80501 0.26911 0.75499 0.0
C887 C 0.83793 0.28873 0.8072 0.0
C888 C 0.8259 0.28166 0.82516 0.0
C889 C 0.82889 0.27436 0.79044 0.0
C890 C 0.79573 0.25011 0.75574 0.0
H891 H 0.69807 0.15584 0.71146 0.0
H892 H 0.72471 0.17305 0.73952 0.0
H893 H 0.78239 0.24702 0.72663 0.0
H894 H 0.79581 0.25344 0.83982 0.0
H895 H 0.78037 0.22853 0.81107 0.0
H896 H 0.78266 0.20428 0.78634 0.0
C897 C 0.7313 0.17966 0.72498 0.0
C898 C 0.78261 0.23732 0.73938 0.0
C899 C 0.71601 0.1696 0.70887 0.0
C900 C 0.80564 0.25932 0.82625 0.0
C901 C 0.79675 0.24496 0.80967 0.0
C902 C 0.78285 0.21386 0.77337 0.0
C903 C 0.75406 0.19924 0.72249 0.0
C904 C 0.76916 0.21257 0.73975 0.0
C905 C 0.80772 0.25254 0.79131 0.0
C906 C 0.79584 0.23864 0.77312 0.0
H907 H 0.7523 0.20502 0.67292 0.0
H908 H 0.77912 0.22175 0.70056 0.0
H909 H 0.75987 0.18205 0.75782 0.0
H910 H 0.85334 0.30599 0.80578 0.0
H911 H 0.83806 0.28072 0.77664 0.0
C912 C 0.53063 0.08732 0.14889 0.0
C913 C 0.51124 0.09042 0.15263 0.0
C914 C 0.5299 0.06624 0.15312 0.0
C915 C 0.48953 1.00297 0.1603 0.0
H916 H 0.54639 0.00455 0.17819 0.0
C917 C 0.49244 0.91763 0.1731 0.0
C918 C 0.51187 0.91677 0.16536 0.0
C919 C 0.49245 0.93886 0.17447 0.0
C920 C 0.53041 0.00377 0.17307 0.0
H921 H 0.47579 0.07332 0.16412 0.0
H922 H 0.47445 0.036 0.17163 0.0
H923 H 0.54518 0.04095 0.17589 0.0
H924 H 0.54709 0.93803 0.15387 0.0
H925 H 0.5472 0.97528 0.15634 0.0
H926 H 0.47486 0.96579 0.15728 0.0
C927 C 0.49025 0.05021 0.16524 0.0
C928 C 0.52967 0.02467 0.17177 0.0
C929 C 0.49102 0.07162 0.16103 0.0
C930 C 0.53189 0.93802 0.16001 0.0
C931 C 0.5319 0.95938 0.1614 0.0
C932 C 0.49024 0.98203 0.16168 0.0
C933 C 0.50977 0.04732 0.16133 0.0
C934 C 0.50938 0.02465 0.16499 0.0
C935 C 0.5119 0.95996 0.16816 0.0
C936 C 0.51081 0.98218 0.1678 0.0
H937 H 0.54664 0.10126 0.14248 0.0
H938 H 0.54509 0.06467 0.1495 0.0
H939 H 0.47372 1.00224 0.1548 0.0
H940 H 0.47675 0.90169 0.17756 0.0
H941 H 0.47696 0.93865 0.18017 0.0
C942 C 0.59763 0.543 0.15948 0.0
C943 C 0.59949 0.52298 0.15551 0.0
C944 C 0.57541 0.54104 0.16203 0.0
C945 C 0.51187 0.49608 0.17121 0.0
H946 H 0.50009 0.54405 0.15045 0.0
C947 C 0.41772 0.48282 0.15921 0.0
C948 C 0.41476 0.50215 0.16336 0.0
C949 C 0.44015 0.48501 0.16021 0.0
C950 C 0.50311 0.53055 0.15651 0.0
H951 H 0.57902 0.48518 0.15098 0.0
H952 H 0.54116 0.48202 0.15486 0.0
H953 H 0.53955 0.54946 0.14865 0.0
H954 H 0.43304 0.53852 0.17305 0.0
H955 H 0.47159 0.54216 0.17485 0.0
H956 H 0.47522 0.47694 0.1786 0.0
C957 C 0.55661 0.49918 0.1566 0.0
C958 C 0.52585 0.53373 0.15555 0.0
C959 C 0.57858 0.50109 0.1542 0.0
C960 C 0.43455 0.52326 0.16952 0.0
C961 C 0.45681 0.52546 0.17042 0.0
C962 C 0.48909 0.49281 0.172 0.0
C963 C 0.55454 0.51903 0.16061 0.0
C964 C 0.53059 0.51646 0.16275 0.0
C965 C 0.46009 0.50661 0.16531 0.0
C966 C 0.48437 0.50997 0.16462 0.0
H967 H 0.61327 0.56013 0.16057 0.0
H968 H 0.57463 0.55676 0.16525 0.0
H969 H 0.51477 0.48254 0.17733 0.0
H970 H 0.40297 0.46636 0.15429 0.0
H971 H 0.44203 0.4701 0.15617 0.0
C972 C 0.9395 0.40764 0.15763 0.0
C973 C 0.91953 0.40306 0.16859 0.0
C974 C 0.95982 0.43002 0.15806 0.0
C975 C 1.00446 0.47708 0.16676 0.0
H976 H 0.99404 0.53007 0.17064 0.0
C977 C 0.08248 0.57167 0.17435 0.0
C978 C 0.08169 0.5899 0.16417 0.0
C979 C 0.06256 0.54933 0.1759 0.0
C980 C 0.99735 0.51556 0.16939 0.0
H981 H 0.90593 0.41805 0.18959 0.0
H982 H 0.94129 0.4564 0.19092 0.0
H983 H 0.96069 0.49024 0.17114 0.0
H984 H 0.05883 0.59889 0.14816 0.0
H985 H 0.02396 0.55976 0.15069 0.0
H986 H 0.04107 0.50241 0.16434 0.0
C987 C 0.94118 0.44314 0.18141 0.0
C988 C 0.97816 0.49256 0.16996 0.0
C989 C 0.92092 0.42095 0.18085 0.0
C990 C 0.06005 0.58538 0.15628 0.0
C991 C 0.04004 0.56285 0.15771 0.0
C992 C 0.02366 0.50008 0.16613 0.0
C993 C 0.96071 0.44833 0.16956 0.0
C994 C 0.98138 0.47291 0.16878 0.0
C995 C 0.04115 0.54431 0.16716 0.0
C996 C 0.02046 0.51973 0.16756 0.0
H997 H 0.93895 0.3944 0.14782 0.0
H998 H 0.97439 0.43324 0.14865 0.0
H999 H 0.00781 0.46257 0.1659 0.0
H1000 H 0.09877 0.5745 0.18077 0.0
H1001 H 0.0641 0.53588 0.1838 0.0
C1002 C 0.94178 0.53587 0.34851 0.0
C1003 C 0.92023 0.51566 0.34409 0.0
C1004 C 0.96289 0.53522 0.34811 0.0
C1005 C 0.98868 0.49777 0.33188 0.0
H1006 H 0.03538 0.53341 0.37145 0.0
C1007 C 0.06872 0.48463 0.35146 0.0
C1008 C 0.0904 0.50551 0.3538 0.0
C1009 C 0.04778 0.48538 0.349 0.0
C1010 C 0.02256 0.5234 0.36024 0.0
H1011 H 0.90445 0.47914 0.33506 0.0
H1012 H 0.94053 0.47792 0.3349 0.0
H1013 H 1.00023 0.5368 0.36903 0.0
H1014 H 0.10675 0.54362 0.35462 0.0
H1015 H 0.07077 0.5447 0.35058 0.0
H1016 H 0.011 0.48397 0.32353 0.0
C1017 C 0.94151 0.49446 0.33834 0.0
C1018 C 1.0024 0.52549 0.35872 0.0
C1019 C 0.92059 0.49516 0.33858 0.0
C1020 C 0.09053 0.52704 0.35306 0.0
C1021 C 0.06978 0.52775 0.35084 0.0
C1022 C 0.00875 0.49546 0.33359 0.0
C1023 C 0.96303 0.51434 0.34339 0.0
C1024 C 0.98509 0.51277 0.34449 0.0
C1025 C 0.04806 0.507 0.34906 0.0
C1026 C 0.02602 0.50836 0.34772 0.0
H1027 H 0.94227 0.55196 0.35283 0.0
H1028 H 0.97909 0.55109 0.35174 0.0
H1029 H 0.97611 0.48792 0.32049 0.0
H1030 H 0.06786 0.46775 0.35197 0.0
H1031 H 0.03129 0.46904 0.34764 0.0
C1032 C 0.41184 0.93733 0.34943 0.0
C1033 C 0.40878 0.91502 0.34518 0.0
C1034 C 0.43429 0.95755 0.34838 0.0
C1035 C 0.49627 0.97861 0.3306 0.0
H1036 H 0.51256 0.02752 0.36931 0.0
C1037 C 0.59295 0.05168 0.348 0.0
C1038 C 0.59679 0.07473 0.34883 0.0
C1039 C 0.56997 0.03233 0.34671 0.0
C1040 C 0.50826 0.01403 0.35835 0.0
H1041 H 0.42717 0.89693 0.33574 0.0
H1042 H 0.46559 0.93135 0.33454 0.0
H1043 H 0.47246 0.99449 0.36783 0.0
H1044 H 0.57916 0.09525 0.3492 0.0
H1045 H 0.53958 0.0618 0.34734 0.0
H1046 H 0.53242 0.99795 0.32163 0.0
C1047 C 0.45088 0.93369 0.3383 0.0
C1048 C 0.48513 0.99512 0.35737 0.0
C1049 C 0.4286 0.91369 0.33915 0.0
C1050 C 0.57706 0.07785 0.34846 0.0
C1051 C 0.55424 0.05861 0.34755 0.0
C1052 C 0.51947 0.99732 0.33182 0.0
C1053 C 0.45429 0.95597 0.34316 0.0
C1054 C 0.47872 0.977 0.3435 0.0
C1055 C 0.55033 0.0356 0.34666 0.0
C1056 C 0.52578 0.01528 0.3457 0.0
H1057 H 0.39707 0.9391 0.35416 0.0
H1058 H 0.43597 0.97438 0.35191 0.0
H1059 H 0.49215 0.96546 0.31938 0.0
H1060 H 0.60767 0.04859 0.34829 0.0
H1061 H 0.56753 0.01478 0.34613 0.0
C1062 C 0.52508 0.4356 0.35959 0.0
C1063 C 0.50391 0.41389 0.35914 0.0
C1064 C 0.52531 0.45676 0.35698 0.0
C1065 C 0.48747 0.48363 0.36008 0.0
H1066 H 0.54063 0.53589 0.33449 0.0
C1067 C 0.491 0.57215 0.34791 0.0
C1068 C 0.51207 0.59278 0.35275 0.0
C1069 C 0.49002 0.55046 0.34668 0.0
C1070 C 0.52576 0.52154 0.34181 0.0
H1071 H 0.46627 0.39774 0.3552 0.0
H1072 H 0.46666 0.43495 0.35027 0.0
H1073 H 0.53782 0.49747 0.33537 0.0
H1074 H 0.54896 0.60665 0.35921 0.0
H1075 H 0.54732 0.5686 0.3569 0.0
H1076 H 0.47541 0.50776 0.36644 0.0
C1077 C 0.48314 0.43543 0.35295 0.0
C1078 C 0.5241 0.49944 0.34234 0.0
C1079 C 0.48289 0.41405 0.35564 0.0
C1080 C 0.53248 0.59121 0.35538 0.0
C1081 C 0.5315 0.56936 0.35408 0.0
C1082 C 0.48904 0.50569 0.35942 0.0
C1083 C 0.5044 0.45712 0.35368 0.0
C1084 C 0.50508 0.48019 0.35171 0.0
C1085 C 0.5101 0.54862 0.35018 0.0
C1086 C 0.50831 0.52502 0.35042 0.0
H1087 H 0.54171 0.43642 0.36229 0.0
H1088 H 0.54198 0.47294 0.35807 0.0
H1089 H 0.47276 0.46945 0.3677 0.0
H1090 H 0.47491 0.57258 0.34556 0.0
H1091 H 0.47338 0.53501 0.34321 0.0
C1092 C 0.47601 0.05953 0.85796 0.0
C1093 C 0.49258 0.08096 0.84942 0.0
C1094 C 0.47876 0.03964 0.8566 0.0
C1095 C 0.52546 0.02401 0.84738 0.0
H1096 H 0.473 0.96048 0.84384 0.0
C1097 C 0.50364 0.92182 0.83338 0.0
C1098 C 0.52056 0.92093 0.84545 0.0
C1099 C 0.50118 0.94176 0.83288 0.0
C1100 C 0.48795 0.97811 0.84462 0.0
H1101 H 0.52417 0.09777 0.83167 0.0
H1102 H 0.52847 0.06329 0.82879 0.0
H1103 H 0.46574 0.99337 0.84419 0.0
H1104 H 0.54882 0.94094 0.86594 0.0
H1105 H 0.54451 0.97587 0.86519 0.0
H1106 H 0.54769 0.00879 0.84739 0.0
C1107 C 0.51379 0.06184 0.83713 0.0
C1108 C 0.48371 0.99703 0.8451 0.0
C1109 C 0.51115 0.08162 0.8386 0.0
C1110 C 0.5358 0.9411 0.85629 0.0
C1111 C 0.53322 0.96111 0.85591 0.0
C1112 C 0.5297 0.00509 0.84687 0.0
C1113 C 0.49808 0.04071 0.84657 0.0
C1114 C 0.50241 0.02031 0.84636 0.0
C1115 C 0.5154 0.96148 0.84459 0.0
C1116 C 0.51102 0.98183 0.84536 0.0
H1117 H 0.46166 0.05844 0.86658 0.0
H1118 H 0.46628 0.02375 0.86413 0.0
H1119 H 0.54036 0.04159 0.84873 0.0
H1120 H 0.49167 0.90669 0.82472 0.0
H1121 H 0.48774 0.9415 0.82353 0.0
C1122 C 0.6012 0.53866 0.85021 0.0
C1123 C 0.60267 0.51865 0.8452 0.0
C1124 C 0.57943 0.53802 0.84966 0.0
C1125 C 0.51575 0.49551 0.85346 0.0
H1126 H 0.5071 0.54533 0.83237 0.0
C1127 C 0.42316 0.48733 0.85097 0.0
C1128 C 0.42219 0.50791 0.85457 0.0
C1129 C 0.44493 0.48837 0.84819 0.0
C1130 C 0.50915 0.53132 0.8386 0.0
H1131 H 0.58234 0.48273 0.83459 0.0
H1132 H 0.545 0.48174 0.83375 0.0
H1133 H 0.54583 0.54885 0.83118 0.0
H1134 H 0.44379 0.5458 0.85789 0.0
H1135 H 0.48094 0.54742 0.85371 0.0
H1136 H 0.47938 0.4782 0.86142 0.0
C1137 C 0.56045 0.49779 0.83841 0.0
C1138 C 0.53146 0.53339 0.83785 0.0
C1139 C 0.58204 0.49847 0.83879 0.0
C1140 C 0.44354 0.52947 0.85504 0.0
C1141 C 0.46511 0.53047 0.85246 0.0
C1142 C 0.49351 0.49355 0.85444 0.0
C1143 C 0.55868 0.51731 0.84424 0.0
C1144 C 0.53506 0.5155 0.84525 0.0
C1145 C 0.4663 0.51 0.84906 0.0
C1146 C 0.48981 0.51146 0.84709 0.0
H1147 H 0.61661 0.55446 0.85531 0.0
H1148 H 0.57868 0.55341 0.85423 0.0
H1149 H 0.51792 0.48147 0.85951 0.0
H1150 H 0.40717 0.47042 0.8505 0.0
H1151 H 0.44496 0.47218 0.84535 0.0
C1152 C 0.93408 0.41389 0.85539 0.0
C1153 C 0.91214 0.41278 0.85624 0.0
C1154 C 0.95491 0.43563 0.85299 0.0
C1155 C 0.97836 0.49926 0.8615 0.0
H1156 H 0.02927 0.50825 0.82738 0.0
C1157 C 0.06152 0.59136 0.85214 0.0
C1158 C 0.08318 0.59192 0.85136 0.0
C1159 C 0.04024 0.56987 0.85067 0.0
C1160 C 0.01536 0.50607 0.83717 0.0
H1161 H 0.89513 0.43384 0.85424 0.0
H1162 H 0.93099 0.4711 0.85012 0.0
H1163 H 0.99384 0.46971 0.82932 0.0
H1164 H 0.09919 0.57015 0.84756 0.0
H1165 H 0.06271 0.53332 0.84543 0.0
H1166 H 0.99991 0.53532 0.86978 0.0
C1167 C 0.93226 0.45537 0.85163 0.0
C1168 C 0.995 0.48389 0.83825 0.0
C1169 C 0.91161 0.43383 0.8539 0.0
C1170 C 0.08294 0.57059 0.8483 0.0
C1171 C 0.06185 0.54927 0.8469 0.0
C1172 C 0.99877 0.52136 0.86056 0.0
C1173 C 0.95425 0.45671 0.85151 0.0
C1174 C 0.97621 0.48018 0.85043 0.0
C1175 C 0.04011 0.54843 0.84837 0.0
C1176 C 0.01767 0.52515 0.84843 0.0
H1177 H 0.93523 0.39813 0.85718 0.0
H1178 H 0.97158 0.43603 0.85297 0.0
H1179 H 0.96438 0.49701 0.87125 0.0
H1180 H 0.06096 0.60736 0.8545 0.0
H1181 H 0.0239 0.57007 0.85155 0.0
C1182 C 0.06733 0.47054 0.65871 0.0
C1183 C 0.08915 0.49003 0.6638 0.0
C1184 C 0.04671 0.4721 0.65919 0.0
C1185 C 0.02771 0.5164 0.65573 0.0
H1186 H 0.96825 0.46725 0.67589 0.0
C1187 C 0.94466 0.52705 0.65844 0.0
C1188 C 0.92299 0.50689 0.65426 0.0
C1189 C 0.96508 0.52541 0.66112 0.0
C1190 C 0.98461 0.48109 0.66995 0.0
H1191 H 0.10592 0.52602 0.67444 0.0
H1192 H 0.07039 0.52856 0.67522 0.0
H1193 H 1.00271 0.46247 0.67723 0.0
H1194 H 0.90614 0.46913 0.64962 0.0
H1195 H 0.94113 0.46652 0.65367 0.0
H1196 H 0.00965 0.5348 0.64795 0.0
C1197 C 0.06915 0.51223 0.67053 0.0
C1198 C 1.00442 0.4783 0.67077 0.0
C1199 C 0.08957 0.51065 0.67019 0.0
C1200 C 0.92234 0.48516 0.65296 0.0
C1201 C 0.94257 0.48356 0.65547 0.0
C1202 C 0.00786 0.51909 0.65471 0.0
C1203 C 0.04752 0.49321 0.66464 0.0
C1204 C 0.02624 0.49591 0.66367 0.0
C1205 C 0.96432 0.50358 0.65959 0.0
C1206 C 0.98593 0.50142 0.6617 0.0
H1207 H 0.0663 0.45445 0.65363 0.0
H1208 H 0.0303 0.45708 0.65456 0.0
H1209 H 0.04418 0.53022 0.64991 0.0
H1210 H 0.9459 0.54406 0.65955 0.0
H1211 H 0.98142 0.54125 0.66446 0.0
C1212 C 0.5906 0.06992 0.66087 0.0
C1213 C 0.59148 0.09177 0.66093 0.0
C1214 C 0.56896 0.04887 0.66278 0.0
C1215 C 0.50566 0.02507 0.65354 0.0
H1216 H 0.49582 0.97397 0.68777 0.0
C1217 C 0.41349 0.94145 0.66062 0.0
C1218 C 0.41299 0.91986 0.66207 0.0
C1219 C 0.43485 0.96281 0.6625 0.0
C1220 C 0.49823 0.9879 0.6779 0.0
H1221 H 0.57007 0.10831 0.66398 0.0
H1222 H 0.53297 0.07206 0.66708 0.0
H1223 H 0.53435 0.00946 0.68648 0.0
H1224 H 0.43472 0.9041 0.66745 0.0
H1225 H 0.47129 0.94061 0.67011 0.0
H1226 H 0.46995 1.00349 0.64443 0.0
C1227 C 0.54884 0.07108 0.66534 0.0
C1228 C 0.52042 0.0083 0.67722 0.0
C1229 C 0.57029 0.09195 0.66365 0.0
C1230 C 0.43421 0.92026 0.66618 0.0
C1231 C 0.4554 0.94142 0.66789 0.0
C1232 C 0.48359 0.00458 0.65401 0.0
C1233 C 0.54776 0.04924 0.66457 0.0
C1234 C 0.5244 0.02717 0.66506 0.0
C1235 C 0.45623 0.96309 0.6658 0.0
C1236 C 0.47948 0.98559 0.66616 0.0
H1237 H 0.60648 0.06904 0.65876 0.0
H1238 H 0.56871 0.03228 0.66215 0.0
H1239 H 0.50819 0.03919 0.64384 0.0
H1240 H 0.39757 0.94189 0.65745 0.0
H1241 H 0.43459 0.97908 0.66113 0.0
C1242 C 0.50595 0.42557 0.67714 0.0
C1243 C 0.48548 0.40549 0.67031 0.0
C1244 C 0.50769 0.44764 0.67739 0.0
C1245 C 0.47493 0.47929 0.67787 0.0
H1246 H 0.53097 0.52959 0.65369 0.0
C1247 C 0.48411 0.57018 0.66312 0.0
C1248 C 0.50641 0.59066 0.6629 0.0
C1249 C 0.48169 0.5479 0.66511 0.0
C1250 C 0.5154 0.51599 0.66085 0.0
H1251 H 0.45028 0.39314 0.6593 0.0
H1252 H 0.45313 0.43192 0.6603 0.0
H1253 H 0.52558 0.49018 0.65532 0.0
H1254 H 0.54374 0.6034 0.6651 0.0
H1255 H 0.53956 0.56449 0.6694 0.0
H1256 H 0.46498 0.50503 0.68403 0.0
C1257 C 0.46793 0.43032 0.66523 0.0
C1258 C 0.51223 0.49324 0.66164 0.0
C1259 C 0.46626 0.40808 0.66473 0.0
C1260 C 0.52629 0.58811 0.6652 0.0
C1261 C 0.52384 0.56566 0.66748 0.0
C1262 C 0.47827 0.50213 0.67738 0.0
C1263 C 0.48894 0.45047 0.67108 0.0
C1264 C 0.49192 0.47457 0.67008 0.0
C1265 C 0.50145 0.54513 0.66727 0.0
C1266 C 0.49849 0.52089 0.66871 0.0
H1267 H 0.52115 0.42447 0.68174 0.0
H1268 H 0.52394 0.46266 0.68233 0.0
H1269 H 0.45925 0.4654 0.68471 0.0
H1270 H 0.46828 0.57118 0.66119 0.0
H1271 H 0.46417 0.5328 0.66437 0.0
C1272 C 0.61664 0.22358 0.17825 0.0
C1273 C 0.60388 0.20115 0.16979 0.0
C1274 C 0.63643 0.22947 0.18976 0.0
C1275 C 0.67481 0.20583 0.20769 0.0
H1276 H 0.67136 0.2341 0.25653 0.0
C1277 C 0.67187 0.17143 0.28387 0.0
C1278 C 0.68532 0.18677 0.29894 0.0
C1279 C 0.67316 0.17988 0.26495 0.0
C1280 C 0.67314 0.22682 0.24281 0.0
H1281 H 0.6024 0.16768 0.16596 0.0
H1282 H 0.63581 0.1773 0.18675 0.0
H1283 H 0.65155 0.23734 0.22776 0.0
H1284 H 0.71152 0.22258 0.30615 0.0
H1285 H 0.71263 0.23778 0.27295 0.0
H1286 H 0.69405 0.19289 0.22378 0.0
C1287 C 0.63131 0.19081 0.18409 0.0
C1288 C 0.66178 0.22866 0.22622 0.0
C1289 C 0.61185 0.18511 0.17232 0.0
C1290 C 0.70094 0.21051 0.29467 0.0
C1291 C 0.70169 0.21915 0.27578 0.0
C1292 C 0.68571 0.20353 0.22443 0.0
C1293 C 0.64356 0.21287 0.19337 0.0
C1294 C 0.66126 0.21696 0.20876 0.0
C1295 C 0.68747 0.2039 0.26091 0.0
C1296 C 0.68386 0.21299 0.24232 0.0
H1297 H 0.61113 0.23646 0.17622 0.0
H1298 H 0.64568 0.24678 0.19631 0.0
H1299 H 0.67552 0.19733 0.19431 0.0
H1300 H 0.65994 0.153 0.28685 0.0
H1301 H 0.66178 0.16789 0.25374 0.0
C1302 C 0.43678 0.66578 0.31706 0.0
C1303 C 0.4384 0.64739 0.32609 0.0
C1304 C 0.42084 0.66108 0.30179 0.0
C1305 C 0.40321 0.64698 0.26016 0.0
H1306 H 0.34606 0.58683 0.25484 0.0
C1307 C 0.3816 0.59132 0.19228 0.0
C1308 C 0.35835 0.57443 0.18763 0.0
C1309 C 0.38639 0.60629 0.20822 0.0
C1310 C 0.3616 0.60403 0.25605 0.0
H1311 H 0.42346 0.60956 0.32705 0.0
H1312 H 0.39623 0.60146 0.30029 0.0
H1313 H 0.36214 0.60128 0.28726 0.0
H1314 H 0.32175 0.56138 0.19502 0.0
H1315 H 0.3302 0.58765 0.22298 0.0
H1316 H 0.4031 0.64934 0.22889 0.0
C1317 C 0.40695 0.61948 0.3051 0.0
C1318 C 0.37098 0.61216 0.27466 0.0
C1319 C 0.42282 0.62416 0.32033 0.0
C1320 C 0.33989 0.57404 0.19836 0.0
C1321 C 0.3447 0.58905 0.21439 0.0
C1322 C 0.39371 0.63894 0.24156 0.0
C1323 C 0.40621 0.63792 0.29528 0.0
C1324 C 0.39267 0.63298 0.27678 0.0
C1325 C 0.36804 0.60475 0.2199 0.0
C1326 C 0.37366 0.61668 0.23924 0.0
H1327 H 0.44835 0.68387 0.32131 0.0
H1328 H 0.42051 0.67563 0.29466 0.0
H1329 H 0.41989 0.66316 0.26124 0.0
H1330 H 0.39623 0.59228 0.18418 0.0
H1331 H 0.40459 0.61793 0.21214 0.0
C1332 C 0.79684 0.34931 0.21712 0.0
C1333 C 0.78735 0.34191 0.19836 0.0
C1334 C 0.78442 0.35386 0.2313 0.0
C1335 C 0.75087 0.35715 0.26019 0.0
H1336 H 0.75631 0.41569 0.24238 0.0
C1337 C 0.80095 0.44927 0.29234 0.0
C1338 C 0.79016 0.44869 0.31019 0.0
C1339 C 0.78848 0.43271 0.27787 0.0
C1340 C 0.75378 0.39897 0.24748 0.0
H1341 H 0.75718 0.33237 0.17973 0.0
H1342 H 0.73585 0.34179 0.20444 0.0
H1343 H 0.75477 0.38736 0.21839 0.0
H1344 H 0.75783 0.43104 0.32691 0.0
H1345 H 0.73626 0.40093 0.30177 0.0
H1346 H 0.75215 0.36983 0.28933 0.0
C1347 C 0.75254 0.34327 0.20826 0.0
C1348 C 0.75283 0.38274 0.2338 0.0
C1349 C 0.76473 0.33801 0.1942 0.0
C1350 C 0.76642 0.43181 0.31315 0.0
C1351 C 0.75409 0.41472 0.29885 0.0
C1352 C 0.75139 0.3732 0.27388 0.0
C1353 C 0.76256 0.35168 0.22678 0.0
C1354 C 0.75315 0.36258 0.24013 0.0
C1355 C 0.76519 0.41494 0.28123 0.0
C1356 C 0.75459 0.39493 0.26758 0.0
H1357 H 0.81422 0.35232 0.22061 0.0
H1358 H 0.79268 0.36074 0.24537 0.0
H1359 H 0.75116 0.3417 0.26535 0.0
H1360 H 0.81921 0.46221 0.28975 0.0
H1361 H 0.7975 0.43293 0.26451 0.0
C1362 C 0.43075 0.76745 0.19918 0.0
C1363 C 0.4314 0.78587 0.1882 0.0
C1364 C 0.4133 0.75578 0.21337 0.0
C1365 C 0.35707 0.74944 0.23221 0.0
H1366 H 0.38542 0.75581 0.28334 0.0
C1367 C 0.34177 0.79269 0.29682 0.0
C1368 C 0.34042 0.78426 0.31588 0.0
C1369 C 0.34481 0.78112 0.28098 0.0
C1370 C 0.37692 0.75313 0.2692 0.0
H1371 H 0.4134 0.80536 0.18247 0.0
H1372 H 0.38336 0.78535 0.20707 0.0
H1373 H 0.40691 0.7565 0.25404 0.0
H1374 H 0.34044 0.757 0.33365 0.0
H1375 H 0.34694 0.73712 0.30571 0.0
H1376 H 0.32812 0.74855 0.24741 0.0
C1377 C 0.39609 0.77969 0.20479 0.0
C1378 C 0.38924 0.75352 0.25238 0.0
C1379 C 0.41356 0.79145 0.19085 0.0
C1380 C 0.34132 0.76362 0.31894 0.0
C1381 C 0.34499 0.7523 0.30306 0.0
C1382 C 0.34487 0.74925 0.24901 0.0
C1383 C 0.39604 0.76211 0.21656 0.0
C1384 C 0.38008 0.7533 0.23371 0.0
C1385 C 0.34711 0.76122 0.28399 0.0
C1386 C 0.35538 0.75262 0.26753 0.0
H1387 H 0.44423 0.76271 0.19736 0.0
H1388 H 0.41368 0.74231 0.22223 0.0
H1389 H 0.34936 0.74867 0.218 0.0
H1390 H 0.34115 0.80864 0.29425 0.0
H1391 H 0.34684 0.78864 0.26648 0.0
C1392 C 0.58305 0.35266 0.31736 0.0
C1393 C 0.58058 0.36887 0.32913 0.0
C1394 C 0.5984 0.36037 0.30139 0.0
C1395 C 0.64492 0.41405 0.27645 0.0
H1396 H 0.61153 0.38154 0.22928 0.0
C1397 C 0.6334 0.44094 0.19514 0.0
C1398 C 0.65679 0.4569 0.19007 0.0
C1399 C 0.62835 0.42597 0.21112 0.0
C1400 C 0.6212 0.3907 0.24232 0.0
H1401 H 0.59367 0.40597 0.33433 0.0
H1402 H 0.61991 0.41932 0.30637 0.0
H1403 H 0.59636 0.3638 0.26111 0.0
H1404 H 0.69326 0.46873 0.19714 0.0
H1405 H 0.68435 0.44248 0.2251 0.0
H1406 H 0.66866 0.44184 0.25768 0.0
C1407 C 0.61025 0.40068 0.30951 0.0
C1408 C 0.61268 0.38041 0.26057 0.0
C1409 C 0.59498 0.39299 0.32547 0.0
C1410 C 0.67504 0.45678 0.20077 0.0
C1411 C 0.66997 0.44178 0.2168 0.0
C1412 C 0.65338 0.4244 0.25818 0.0
C1413 C 0.61154 0.38442 0.29691 0.0
C1414 C 0.62385 0.39249 0.27786 0.0
C1415 C 0.64657 0.42658 0.22238 0.0
C1416 C 0.64095 0.41329 0.24101 0.0
H1417 H 0.57243 0.33395 0.31994 0.0
H1418 H 0.59927 0.34746 0.2921 0.0
H1419 H 0.65413 0.42357 0.28952 0.0
H1420 H 0.61892 0.44048 0.18717 0.0
H1421 H 0.61014 0.41474 0.21521 0.0
C1422 C 0.20875 0.59698 0.32419 0.0
C1423 C 0.21747 0.58218 0.32966 0.0
C1424 C 0.21939 0.61324 0.30913 0.0
C1425 C 0.24558 0.64897 0.2779 0.0
H1426 H 0.25097 0.61622 0.23269 0.0
C1427 C 0.23094 0.67285 0.20076 0.0
C1428 C 0.2128 0.65293 0.19141 0.0
C1429 C 0.24283 0.67031 0.21672 0.0
C1430 C 0.24991 0.62583 0.24519 0.0
H1431 H 0.24549 0.57432 0.32484 0.0
H1432 H 0.26411 0.60286 0.29852 0.0
H1433 H 0.2512 0.60175 0.26537 0.0
H1434 H 0.19418 0.61484 0.19047 0.0
H1435 H 0.21455 0.61041 0.21827 0.0
H1436 H 0.24182 0.67157 0.25758 0.0
C1437 C 0.2488 0.60157 0.30568 0.0
C1438 C 0.25029 0.61768 0.26398 0.0
C1439 C 0.23809 0.58521 0.32073 0.0
C1440 C 0.20788 0.63053 0.19748 0.0
C1441 C 0.21982 0.62801 0.21329 0.0
C1442 C 0.24501 0.657 0.25909 0.0
C1443 C 0.23906 0.61517 0.29924 0.0
C1444 C 0.24655 0.62826 0.28047 0.0
C1445 C 0.23694 0.64783 0.22346 0.0
C1446 C 0.2456 0.64453 0.24256 0.0
H1447 H 0.19304 0.59528 0.33088 0.0
H1448 H 0.21116 0.62315 0.30441 0.0
H1449 H 0.24329 0.65785 0.29037 0.0
H1450 H 0.23525 0.69038 0.19631 0.0
H1451 H 0.25602 0.68588 0.22423 0.0
C1452 C 0.46175 0.80116 0.79367 0.0
C1453 C 0.45598 0.79059 0.81219 0.0
C1454 C 0.44781 0.78964 0.77751 0.0
C1455 C 0.38886 0.75702 0.76521 0.0
H1456 H 0.41377 0.75762 0.71355 0.0
C1457 C 0.34762 0.77208 0.69671 0.0
C1458 C 0.36471 0.79126 0.6859 0.0
C1459 C 0.35434 0.76059 0.71032 0.0
C1460 C 0.40635 0.75699 0.72787 0.0
H1461 H 0.43176 0.75958 0.82852 0.0
H1462 H 0.40626 0.73975 0.80009 0.0
H1463 H 0.4355 0.75777 0.74264 0.0
H1464 H 0.40208 0.81245 0.68004 0.0
H1465 H 0.41371 0.79292 0.70377 0.0
H1466 H 0.36115 0.75901 0.75062 0.0
C1467 C 0.42202 0.75663 0.79811 0.0
C1468 C 0.41869 0.75688 0.74447 0.0
C1469 C 0.43648 0.76794 0.81427 0.0
C1470 C 0.38846 0.79792 0.68825 0.0
C1471 C 0.39512 0.78642 0.70169 0.0
C1472 C 0.37665 0.75744 0.74859 0.0
C1473 C 0.42751 0.76758 0.77967 0.0
C1474 C 0.41076 0.75841 0.76321 0.0
C1475 C 0.37822 0.76795 0.71319 0.0
C1476 C 0.38617 0.75909 0.72981 0.0
H1477 H 0.4768 0.8186 0.79178 0.0
H1478 H 0.45216 0.79861 0.7635 0.0
H1479 H 0.38249 0.75831 0.77954 0.0
H1480 H 0.32914 0.76642 0.69511 0.0
H1481 H 0.34093 0.74639 0.71895 0.0
C1482 C 0.64915 0.44767 0.79546 0.0
C1483 C 0.65985 0.44692 0.81299 0.0
C1484 C 0.64383 0.4307 0.78108 0.0
C1485 C 0.61936 0.37094 0.77687 0.0
H1486 H 0.63036 0.38478 0.72134 0.0
C1487 C 0.57087 0.33614 0.69699 0.0
C1488 C 0.55214 0.34002 0.70112 0.0
C1489 C 0.58825 0.34131 0.71112 0.0
C1490 C 0.62757 0.38024 0.73676 0.0
H1491 H 0.67401 0.42847 0.82925 0.0
H1492 H 0.6633 0.39766 0.80426 0.0
H1493 H 0.65767 0.41276 0.74529 0.0
H1494 H 0.53558 0.35031 0.72338 0.0
H1495 H 0.56539 0.35856 0.74823 0.0
H1496 H 0.58761 0.33991 0.76839 0.0
C1497 C 0.65982 0.41187 0.80152 0.0
C1498 C 0.64315 0.39627 0.75042 0.0
C1499 C 0.66584 0.42936 0.81573 0.0
C1500 C 0.54995 0.3473 0.71991 0.0
C1501 C 0.56686 0.35177 0.73415 0.0
C1502 C 0.60355 0.3551 0.76321 0.0
C1503 C 0.64857 0.41237 0.7842 0.0
C1504 C 0.63833 0.39235 0.77053 0.0
C1505 C 0.58656 0.34963 0.72966 0.0
C1506 C 0.60682 0.36041 0.74312 0.0
H1507 H 0.64447 0.46111 0.79305 0.0
H1508 H 0.63478 0.43116 0.76795 0.0
H1509 H 0.61525 0.36769 0.79233 0.0
H1510 H 0.57286 0.33061 0.6825 0.0
H1511 H 0.60346 0.33983 0.70732 0.0
C1512 C 0.23106 0.65591 0.81751 0.0
C1513 C 0.21072 0.63915 0.82736 0.0
C1514 C 0.24262 0.64879 0.80436 0.0
C1515 C 0.24355 0.59561 0.78604 0.0
H1516 H 0.24905 0.62393 0.73504 0.0
C1517 C 0.20305 0.54662 0.7168 0.0
C1518 C 0.2159 0.552 0.69932 0.0
C1519 C 0.21341 0.55935 0.73375 0.0
C1520 C 0.24844 0.61628 0.74926 0.0
H1521 H 0.18738 0.60181 0.83191 0.0
H1522 H 0.20697 0.58947 0.8088 0.0
H1523 H 0.24722 0.64411 0.76434 0.0
H1524 H 0.24966 0.57435 0.68568 0.0
H1525 H 0.26759 0.59792 0.7155 0.0
H1526 H 0.24195 0.56649 0.77055 0.0
C1527 C 0.21437 0.60812 0.81139 0.0
C1528 C 0.24735 0.62781 0.76608 0.0
C1529 C 0.20287 0.6152 0.82448 0.0
C1530 C 0.23952 0.56999 0.6991 0.0
C1531 C 0.24975 0.58331 0.71604 0.0
C1532 C 0.24431 0.58396 0.7692 0.0
C1533 C 0.23409 0.62479 0.80086 0.0
C1534 C 0.24328 0.61681 0.78449 0.0
C1535 C 0.23664 0.57808 0.73343 0.0
C1536 C 0.24529 0.5936 0.75066 0.0
H1537 H 0.23772 0.67454 0.81957 0.0
H1538 H 0.25783 0.66205 0.79654 0.0
H1539 H 0.24107 0.58702 0.8001 0.0
H1540 H 0.18486 0.53268 0.71729 0.0
H1541 H 0.20287 0.55529 0.74693 0.0
C1542 C 0.56434 0.2309 0.81386 0.0
C1543 C 0.56416 0.21144 0.82265 0.0
C1544 C 0.58013 0.24317 0.79874 0.0
C1545 C 0.59834 0.24791 0.7571 0.0
H1546 H 0.65758 0.24887 0.75227 0.0
C1547 C 0.62135 0.2127 0.69107 0.0
C1548 C 0.64475 0.21995 0.68621 0.0
C1549 C 0.61622 0.22327 0.7065 0.0
C1550 C 0.64144 0.24947 0.75331 0.0
H1551 H 0.58145 0.19065 0.82339 0.0
H1552 H 0.60843 0.21156 0.79696 0.0
H1553 H 0.64136 0.24728 0.78458 0.0
H1554 H 0.68117 0.24534 0.69268 0.0
H1555 H 0.67213 0.26382 0.71979 0.0
H1556 H 0.59797 0.24913 0.72578 0.0
C1557 C 0.59669 0.21765 0.8018 0.0
C1558 C 0.63201 0.24827 0.77187 0.0
C1559 C 0.58094 0.2054 0.81682 0.0
C1560 C 0.66293 0.23915 0.69623 0.0
C1561 C 0.65778 0.24975 0.71175 0.0
C1562 C 0.60789 0.24934 0.73854 0.0
C1563 C 0.59608 0.23628 0.79223 0.0
C1564 C 0.60958 0.24576 0.77384 0.0
C1565 C 0.63437 0.24138 0.71746 0.0
C1566 C 0.62868 0.2484 0.73643 0.0
H1567 H 0.55177 0.23615 0.81817 0.0
H1568 H 0.57935 0.25755 0.79173 0.0
H1569 H 0.58111 0.24619 0.75808 0.0
H1570 H 0.6069 0.19815 0.68351 0.0
H1571 H 0.59799 0.21609 0.71063 0.0
C1572 C 0.45541 0.68093 0.7044 0.0
C1573 C 0.44801 0.66169 0.69164 0.0
C1574 C 0.44291 0.67871 0.72157 0.0
C1575 C 0.38852 0.64196 0.74906 0.0
H1576 H 0.42983 0.64433 0.79063 0.0
C1577 C 0.35568 0.57629 0.81153 0.0
C1578 C 0.36904 0.58072 0.82864 0.0
C1579 C 0.36286 0.59334 0.79692 0.0
C1580 C 0.41795 0.64421 0.77958 0.0
H1581 H 0.42065 0.62589 0.68577 0.0
H1582 H 0.39862 0.62214 0.71565 0.0
H1583 H 0.44632 0.66278 0.75955 0.0
H1584 H 0.39895 0.607 0.84495 0.0
H1585 H 0.41084 0.63735 0.81997 0.0
H1586 H 0.36004 0.623 0.76893 0.0
C1587 C 0.41412 0.63885 0.71242 0.0
C1588 C 0.42752 0.6548 0.76166 0.0
C1589 C 0.42685 0.6409 0.69546 0.0
C1590 C 0.38866 0.60305 0.83163 0.0
C1591 C 0.39548 0.62037 0.81727 0.0
C1592 C 0.37893 0.63183 0.76719 0.0
C1593 C 0.42258 0.6574 0.72598 0.0
C1594 C 0.41281 0.65265 0.74597 0.0
C1595 C 0.38326 0.61542 0.79934 0.0
C1596 C 0.39343 0.63158 0.7823 0.0
H1597 H 0.47166 0.6972 0.70179 0.0
H1598 H 0.44977 0.69316 0.73191 0.0
H1599 H 0.37689 0.64029 0.73713 0.0
H1600 H 0.34043 0.55917 0.80892 0.0
H1601 H 0.35311 0.58855 0.7833 0.0
C1602 C 0.80906 0.42442 0.69178 0.0
C1603 C 0.79932 0.43807 0.68546 0.0
C1604 C 0.80113 0.41136 0.70898 0.0
C1605 C 0.79807 0.41408 0.75354 0.0
H1606 H 0.73926 0.36039 0.77023 0.0
C1607 C 0.79061 0.38382 0.83116 0.0
C1608 C 0.78644 0.36071 0.83212 0.0
C1609 C 0.7843 0.3916 0.8145 0.0
C1610 C 0.75565 0.37555 0.76574 0.0
H1611 H 0.772 0.44679 0.69108 0.0
H1612 H 0.75821 0.42374 0.72129 0.0
H1613 H 0.74337 0.37529 0.73641 0.0
H1614 H 0.76994 0.32684 0.81752 0.0
H1615 H 0.75946 0.34069 0.7881 0.0
H1616 H 0.81077 0.41446 0.7823 0.0
C1617 C 0.77199 0.42337 0.71287 0.0
C1618 C 0.75796 0.38397 0.74652 0.0
C1619 C 0.78005 0.43664 0.6957 0.0
C1620 C 0.77354 0.34482 0.81708 0.0
C1621 C 0.7674 0.3527 0.80028 0.0
C1622 C 0.79569 0.40599 0.77265 0.0
C1623 C 0.78319 0.41148 0.71998 0.0
C1624 C 0.77941 0.40297 0.74029 0.0
C1625 C 0.77397 0.37649 0.79844 0.0
C1626 C 0.77461 0.38646 0.7789 0.0
H1627 H 0.82373 0.42492 0.68416 0.0
H1628 H 0.80996 0.40224 0.71433 0.0
H1629 H 0.8147 0.4289 0.74897 0.0
H1630 H 0.80008 0.39631 0.84274 0.0
H1631 H 0.78913 0.40993 0.81356 0.0
C1632 C 0.53354 0.2652 0.10632 0.0
C1633 C 0.54878 0.25737 0.11255 0.0
C1634 C 0.54259 0.2883 0.0997 0.0
C1635 C 0.59824 0.34614 0.10107 0.0
H1636 H 0.56428 0.36468 0.06559 0.0
C1637 C 0.63708 0.44132 0.08092 0.0
C1638 C 0.62469 0.44963 0.09196 0.0
C1639 C 0.6265 0.4175 0.07618 0.0
C1640 C 0.57404 0.35957 0.07525 0.0
H1641 H 0.58516 0.26655 0.11557 0.0
H1642 H 0.60101 0.30602 0.10282 0.0
H1643 H 0.54905 0.32293 0.07245 0.0
H1644 H 0.59076 0.44056 0.1042 0.0
H1645 H 0.57214 0.39903 0.09542 0.0
H1646 H 0.6233 0.3827 0.10362 0.0
C1647 C 0.58213 0.29518 0.10408 0.0
C1648 C 0.56522 0.33575 0.07945 0.0
C1649 C 0.57309 0.27248 0.11131 0.0
C1650 C 0.6007 0.43451 0.09579 0.0
C1651 C 0.59001 0.4108 0.09069 0.0
C1652 C 0.6073 0.36971 0.09645 0.0
C1653 C 0.56707 0.30368 0.09859 0.0
C1654 C 0.57702 0.32874 0.09272 0.0
C1655 C 0.6033 0.40191 0.082 0.0
C1656 C 0.59513 0.37666 0.08377 0.0
H1657 H 0.51468 0.25368 0.10707 0.0
H1658 H 0.53036 0.29415 0.0959 0.0
H1659 H 0.60758 0.3418 0.11182 0.0
H1660 H 0.6556 0.45258 0.07784 0.0
H1661 H 0.63705 0.41089 0.06954 0.0
C1662 C 0.16395 0.5774 0.11056 0.0
C1663 C 0.16945 0.5985 0.10108 0.0
C1664 C 0.17219 0.56305 0.10327 0.0
C1665 C 0.2234 0.57017 0.07706 0.0
H1666 H 0.19485 0.50381 0.08908 0.0
C1667 C 0.27944 0.52599 0.08556 0.0
C1668 C 0.27644 0.5162 0.10439 0.0
C1669 C 0.2629 0.53138 0.07798 0.0
C1670 C 0.20297 0.52227 0.08537 0.0
H1671 H 0.18616 0.62006 0.07551 0.0
H1672 H 0.20059 0.59485 0.06267 0.0
H1673 H 0.1704 0.52209 0.08758 0.0
H1674 H 0.25303 0.50278 0.12941 0.0
H1675 H 0.22419 0.51192 0.11616 0.0
H1676 H 0.25613 0.57059 0.07585 0.0
C1677 C 0.19013 0.58961 0.07593 0.0
C1678 C 0.18901 0.53275 0.08456 0.0
C1679 C 0.18176 0.60398 0.08323 0.0
C1680 C 0.25591 0.5105 0.11493 0.0
C1681 C 0.23926 0.51552 0.10724 0.0
C1682 C 0.23731 0.55964 0.07772 0.0
C1683 C 0.18618 0.56945 0.08629 0.0
C1684 C 0.19929 0.55709 0.08148 0.0
C1685 C 0.24289 0.52662 0.08895 0.0
C1686 C 0.22741 0.53587 0.08289 0.0
H1687 H 0.15427 0.57251 0.12424 0.0
H1688 H 0.16897 0.54783 0.11179 0.0
H1689 H 0.23196 0.58897 0.07477 0.0
H1690 H 0.29511 0.53057 0.07711 0.0
H1691 H 0.26609 0.53992 0.06383 0.0
C1692 C 0.74855 0.26308 0.10913 0.0
C1693 C 0.76709 0.28313 0.10039 0.0
C1694 C 0.72769 0.24924 0.09901 0.0
C1695 C 0.69156 0.25311 0.05983 0.0
H1696 H 0.65248 0.18784 0.07448 0.0
C1697 C 0.58858 0.17331 0.06903 0.0
C1698 C 0.57991 0.18793 0.07512 0.0
C1699 C 0.61152 0.18302 0.06191 0.0
C1700 C 0.66301 0.20582 0.06958 0.0
H1701 H 0.77856 0.30374 0.07367 0.0
H1702 H 0.74193 0.27923 0.05577 0.0
H1703 H 0.69396 0.20758 0.08132 0.0
H1704 H 0.58738 0.22392 0.07666 0.0
H1705 H 0.6275 0.24093 0.06552 0.0
H1706 H 0.66062 0.25127 0.04785 0.0
C1707 C 0.74356 0.27447 0.07064 0.0
C1708 C 0.68695 0.21732 0.0739 0.0
C1709 C 0.76458 0.28844 0.08086 0.0
C1710 C 0.5936 0.21221 0.07198 0.0
C1711 C 0.61678 0.22198 0.06551 0.0
C1712 C 0.66761 0.24143 0.0551 0.0
C1713 C 0.72471 0.2549 0.07973 0.0
C1714 C 0.70121 0.24147 0.07024 0.0
C1715 C 0.62657 0.20758 0.06157 0.0
C1716 C 0.65269 0.218 0.06102 0.0
H1717 H 0.74981 0.25836 0.12412 0.0
H1718 H 0.71349 0.23467 0.10672 0.0
H1719 H 0.70203 0.27167 0.05658 0.0
H1720 H 0.57822 0.15447 0.07111 0.0
H1721 H 0.61795 0.17123 0.05816 0.0
C1722 C 0.39594 0.58571 0.08162 0.0
C1723 C 0.40336 0.57332 0.09362 0.0
C1724 C 0.41202 0.60863 0.0757 0.0
C1725 C 0.46295 0.65653 0.09858 0.0
H1726 H 0.4606 0.69345 0.05529 0.0
C1727 C 0.50357 0.75446 0.10902 0.0
C1728 C 0.48956 0.76378 0.10291 0.0
C1729 C 0.49952 0.73294 0.10173 0.0
C1730 C 0.46147 0.68338 0.06749 0.0
H1731 H 0.43352 0.57344 0.10651 0.0
H1732 H 0.46172 0.61298 0.09551 0.0
H1733 H 0.44124 0.65063 0.05226 0.0
H1734 H 0.46134 0.75896 0.08364 0.0
H1735 H 0.45306 0.7205 0.07182 0.0
H1736 H 0.4814 0.68844 0.11447 0.0
C1737 C 0.44348 0.60549 0.09123 0.0
C1738 C 0.45048 0.65889 0.0657 0.0
C1739 C 0.42739 0.58285 0.09746 0.0
C1740 C 0.47234 0.752 0.08852 0.0
C1741 C 0.46776 0.73005 0.08166 0.0
C1742 C 0.47364 0.68078 0.10044 0.0
C1743 C 0.43569 0.61923 0.08154 0.0
C1744 C 0.45069 0.64519 0.08143 0.0
C1745 C 0.48072 0.71982 0.08879 0.0
C1746 C 0.47259 0.69455 0.08515 0.0
H1747 H 0.37744 0.57867 0.07852 0.0
H1748 H 0.40545 0.61874 0.06825 0.0
H1749 H 0.46299 0.64656 0.11121 0.0
H1750 H 0.51722 0.76352 0.11989 0.0
H1751 H 0.51042 0.72605 0.10703 0.0
C1752 C 0.82581 0.40691 0.0961 0.0
C1753 C 0.83412 0.40752 0.11522 0.0
C1754 C 0.82011 0.4238 0.09004 0.0
C1755 C 0.82538 0.48111 0.10389 0.0
H1756 H 0.76167 0.45306 0.08413 0.0
C1757 C 0.76252 0.51351 0.12416 0.0
C1758 C 0.74491 0.51091 0.11104 0.0
C1759 C 0.77845 0.50632 0.11891 0.0
C1760 C 0.77972 0.46141 0.08913 0.0
H1761 H 0.84441 0.4272 0.14248 0.0
H1762 H 0.83438 0.45636 0.13201 0.0
H1763 H 0.78109 0.42984 0.08524 0.0
H1764 H 0.73116 0.50018 0.08161 0.0
H1765 H 0.75902 0.48738 0.07246 0.0
H1766 H 0.82343 0.51226 0.10883 0.0
C1767 C 0.83235 0.443 0.12162 0.0
C1768 C 0.79087 0.44806 0.08978 0.0
C1769 C 0.83787 0.42609 0.12771 0.0
C1770 C 0.74451 0.50236 0.09206 0.0
C1771 C 0.76037 0.49493 0.08685 0.0
C1772 C 0.81423 0.49445 0.10325 0.0
C1773 C 0.82284 0.44172 0.1029 0.0
C1774 C 0.81342 0.45745 0.09797 0.0
C1775 C 0.77707 0.49622 0.10044 0.0
C1776 C 0.7909 0.48439 0.09667 0.0
H1777 H 0.8228 0.39287 0.0861 0.0
H1778 H 0.81297 0.42248 0.07548 0.0
H1779 H 0.84296 0.48896 0.10991 0.0
H1780 H 0.76341 0.52021 0.13884 0.0
H1781 H 0.7909 0.50733 0.12982 0.0
C1782 C 0.41714 0.84318 0.10656 0.0
C1783 C 0.42817 0.83069 0.10044 0.0
C1784 C 0.39391 0.83553 0.10132 0.0
C1785 C 0.34215 0.79083 0.07282 0.0
H1786 H 0.30966 0.78796 0.12105 0.0
C1787 C 0.24592 0.72036 0.09012 0.0
C1788 C 0.23362 0.72602 0.10384 0.0
C1789 C 0.26884 0.73718 0.0847 0.0
C1790 C 0.31826 0.78903 0.10724 0.0
H1791 H 0.4244 0.80171 0.08262 0.0
H1792 H 0.38346 0.78778 0.07397 0.0
H1793 H 0.35187 0.81096 0.11994 0.0
H1794 H 0.23424 0.75405 0.12098 0.0
H1795 H 0.27358 0.78367 0.1108 0.0
H1796 H 0.30814 0.76793 0.06046 0.0
C1797 C 0.39283 0.80374 0.08252 0.0
C1798 C 0.34265 0.80231 0.10661 0.0
C1799 C 0.41629 0.81168 0.0875 0.0
C1800 C 0.24357 0.74921 0.11058 0.0
C1801 C 0.26615 0.7661 0.10484 0.0
C1802 C 0.31755 0.77749 0.07344 0.0
C1803 C 0.38105 0.8149 0.09023 0.0
C1804 C 0.35498 0.80314 0.08953 0.0
C1805 C 0.27957 0.75998 0.0927 0.0
C1806 C 0.30534 0.77617 0.09079 0.0
H1807 H 0.42605 0.85811 0.11633 0.0
H1808 H 0.38554 0.84492 0.10703 0.0
H1809 H 0.35115 0.79119 0.05941 0.0
H1810 H 0.23859 0.70252 0.08478 0.0
H1811 H 0.27864 0.73179 0.07537 0.0
C1812 C 0.76253 0.4823 0.42559 0.0
C1813 C 0.76572 0.48886 0.40571 0.0
C1814 C 0.74088 0.47502 0.4348 0.0
C1815 C 0.68295 0.47198 0.42725 0.0
H1816 H 0.65824 0.41406 0.45671 0.0
C1817 C 0.59114 0.3813 0.4324 0.0
C1818 C 0.57654 0.39055 0.42807 0.0
C1819 C 0.61438 0.39618 0.43824 0.0
C1820 C 0.66477 0.43019 0.44845 0.0
H1821 H 0.74898 0.49399 0.38023 0.0
H1822 H 0.71158 0.48091 0.39589 0.0
H1823 H 0.69989 0.43617 0.44901 0.0
H1824 H 0.57341 0.42175 0.42871 0.0
H1825 H 0.61321 0.44746 0.44065 0.0
H1826 H 0.64788 0.46505 0.42472 0.0
C1827 C 0.7257 0.48171 0.40466 0.0
C1828 C 0.68884 0.44313 0.44432 0.0
C1829 C 0.74721 0.48903 0.39554 0.0
C1830 C 0.5845 0.41431 0.43189 0.0
C1831 C 0.60747 0.42906 0.43842 0.0
C1832 C 0.6589 0.45884 0.43096 0.0
C1833 C 0.72205 0.4742 0.4243 0.0
C1834 C 0.698 0.46359 0.43281 0.0
C1835 C 0.62328 0.42056 0.4403 0.0
C1836 C 0.64923 0.43714 0.44083 0.0
H1837 H 0.77647 0.48206 0.43387 0.0
H1838 H 0.73877 0.46959 0.44999 0.0
H1839 H 0.68951 0.48808 0.41891 0.0
H1840 H 0.5854 0.36303 0.42934 0.0
H1841 H 0.62574 0.38872 0.43937 0.0
C1842 C 0.16243 0.58645 0.42306 0.0
C1843 C 0.17715 0.57682 0.42507 0.0
C1844 C 0.16993 0.60932 0.42934 0.0
C1845 C 0.21957 0.66313 0.45195 0.0
H1846 H 0.21156 0.69206 0.40533 0.0
C1847 C 0.28683 0.7564 0.42568 0.0
C1848 C 0.27924 0.7679 0.41282 0.0
C1849 C 0.27068 0.73445 0.43344 0.0
C1850 C 0.21359 0.68456 0.4188 0.0
H1851 H 0.21004 0.58235 0.43701 0.0
H1852 H 0.22364 0.62271 0.44737 0.0
H1853 H 0.18882 0.65017 0.40908 0.0
H1854 H 0.24891 0.7671 0.39964 0.0
H1855 H 0.22054 0.72963 0.41412 0.0
H1856 H 0.24519 0.69787 0.4612 0.0
C1857 C 0.20611 0.61254 0.44134 0.0
C1858 C 0.20043 0.66031 0.42096 0.0
C1859 C 0.19836 0.58941 0.43538 0.0
C1860 C 0.25515 0.75832 0.40932 0.0
C1861 C 0.23897 0.73677 0.41751 0.0
C1862 C 0.23271 0.68762 0.44986 0.0
C1863 C 0.19257 0.62318 0.43723 0.0
C1864 C 0.20363 0.64919 0.43728 0.0
C1865 C 0.24663 0.72391 0.42876 0.0
C1866 C 0.2303 0.69857 0.43298 0.0
H1867 H 0.14587 0.57693 0.41531 0.0
H1868 H 0.15882 0.61681 0.42646 0.0
H1869 H 0.22235 0.65507 0.46475 0.0
H1870 H 0.30539 0.76351 0.42852 0.0
H1871 H 0.27732 0.72511 0.44194 0.0
C1872 C 0.52598 0.26734 0.41969 0.0
C1873 C 0.51952 0.26956 0.40051 0.0
C1874 C 0.53164 0.24995 0.42411 0.0
C1875 C 0.52981 0.19625 0.4043 0.0
H1876 H 0.5929 0.22378 0.42541 0.0
C1877 C 0.59607 0.17053 0.37844 0.0
C1878 C 0.61224 0.17013 0.39166 0.0
C1879 C 0.58013 0.17731 0.38465 0.0
C1880 C 0.57504 0.21556 0.41995 0.0
H1881 H 0.51208 0.25427 0.37137 0.0
H1882 H 0.52189 0.22418 0.37901 0.0
H1883 H 0.57166 0.24522 0.42781 0.0
H1884 H 0.6239 0.17584 0.42196 0.0
H1885 H 0.59615 0.18811 0.43276 0.0
H1886 H 0.53385 0.16725 0.39533 0.0
C1887 C 0.52261 0.2357 0.39069 0.0
C1888 C 0.56283 0.22783 0.42136 0.0
C1889 C 0.51723 0.25314 0.38623 0.0
C1890 C 0.61169 0.17604 0.4114 0.0
C1891 C 0.59585 0.18307 0.4176 0.0
C1892 C 0.54203 0.18402 0.40285 0.0
C1893 C 0.53057 0.23434 0.40949 0.0
C1894 C 0.54055 0.21879 0.41271 0.0
C1895 C 0.58009 0.18401 0.40421 0.0
C1896 C 0.56518 0.19406 0.40985 0.0
H1897 H 0.52783 0.27974 0.43098 0.0
H1898 H 0.53762 0.24921 0.43875 0.0
H1899 H 0.51248 0.18868 0.39782 0.0
H1900 H 0.5959 0.16593 0.36316 0.0
H1901 H 0.56847 0.17822 0.37392 0.0
C1902 C 0.25177 0.52401 0.42709 0.0
C1903 C 0.24728 0.52264 0.40681 0.0
C1904 C 0.27384 0.52889 0.43404 0.0
C1905 C 0.32964 0.53225 0.41756 0.0
H1906 H 0.35896 0.58195 0.45614 0.0
C1907 C 0.42475 0.61731 0.42941 0.0
C1908 C 0.43794 0.6082 0.42091 0.0
C1909 C 0.40153 0.60222 0.43515 0.0
C1910 C 0.35111 0.56807 0.44532 0.0
H1911 H 0.26225 0.52453 0.37803 0.0
H1912 H 0.30036 0.5334 0.38997 0.0
H1913 H 0.31687 0.56342 0.45032 0.0
H1914 H 0.43863 0.57646 0.41398 0.0
H1915 H 0.39885 0.54997 0.42552 0.0
H1916 H 0.36374 0.53824 0.41095 0.0
C1917 C 0.28691 0.53033 0.40063 0.0
C1918 C 0.32683 0.55717 0.4422 0.0
C1919 C 0.26502 0.52547 0.39373 0.0
C1920 C 0.42862 0.58382 0.42035 0.0
C1921 C 0.40569 0.5687 0.42672 0.0
C1922 C 0.35386 0.5434 0.42036 0.0
C1923 C 0.29176 0.53236 0.42084 0.0
C1924 C 0.31604 0.53993 0.42758 0.0
C1925 C 0.39126 0.57769 0.43292 0.0
C1926 C 0.36516 0.56224 0.43365 0.0
H1927 H 0.23845 0.52187 0.43756 0.0
H1928 H 0.27697 0.53022 0.4497 0.0
H1929 H 0.32178 0.51853 0.40659 0.0
H1930 H 0.43157 0.63611 0.42983 0.0
H1931 H 0.3912 0.61004 0.43971 0.0
C1932 C 0.83762 0.41494 0.38785 0.0
C1933 C 0.82722 0.42693 0.3964 0.0
C1934 C 0.82938 0.3914 0.39225 0.0
C1935 C 0.78826 0.34094 0.42379 0.0
H1936 H 0.78253 0.30613 0.37623 0.0
C1937 C 0.72398 0.24067 0.4111 0.0
C1938 C 0.73225 0.22907 0.39896 0.0
C1939 C 0.73823 0.26472 0.41503 0.0
C1940 C 0.78432 0.31554 0.38975 0.0
H1941 H 0.80106 0.42427 0.41715 0.0
H1942 H 0.7859 0.38268 0.4243 0.0
H1943 H 0.80289 0.34852 0.37526 0.0
H1944 H 0.76255 0.23272 0.3832 0.0
H1945 H 0.7874 0.27431 0.39036 0.0
H1946 H 0.76857 0.30736 0.43795 0.0
C1947 C 0.80078 0.39158 0.41453 0.0
C1948 C 0.79611 0.33995 0.38923 0.0
C1949 C 0.80941 0.41539 0.41041 0.0
C1950 C 0.75558 0.24132 0.39232 0.0
C1951 C 0.76979 0.26514 0.39637 0.0
C1952 C 0.77622 0.3163 0.42428 0.0
C1953 C 0.81011 0.3791 0.4049 0.0
C1954 C 0.79835 0.35304 0.40621 0.0
C1955 C 0.76093 0.27735 0.40696 0.0
C1956 C 0.77424 0.3034 0.40723 0.0
H1957 H 0.85162 0.42358 0.37721 0.0
H1958 H 0.8375 0.38256 0.38506 0.0
H1959 H 0.7897 0.35048 0.43715 0.0
H1960 H 0.70605 0.23162 0.4164 0.0
H1961 H 0.73094 0.2737 0.42323 0.0
C1962 C 0.50172 0.7526 0.39414 0.0
C1963 C 0.4975 0.7334 0.40597 0.0
C1964 C 0.49639 0.7694 0.40091 0.0
C1965 C 0.45316 0.77183 0.43157 0.0
H1966 H 0.48515 0.83663 0.41408 0.0
C1967 C 0.40281 0.82153 0.42261 0.0
C1968 C 0.40505 0.83006 0.40337 0.0
C1969 C 0.4189 0.81538 0.42993 0.0
C1970 C 0.47611 0.81866 0.41929 0.0
H1971 H 0.48582 0.71754 0.43465 0.0
H1972 H 0.4761 0.74686 0.44639 0.0
H1973 H 0.50622 0.81479 0.41465 0.0
H1974 H 0.42685 0.84056 0.37729 0.0
H1975 H 0.45466 0.82978 0.38991 0.0
H1976 H 0.42258 0.77509 0.43487 0.0
C1977 C 0.48357 0.74884 0.43189 0.0
C1978 C 0.48816 0.80619 0.41963 0.0
C1979 C 0.48916 0.7321 0.42517 0.0
C1980 C 0.42449 0.83379 0.3921 0.0
C1981 C 0.44063 0.82788 0.39944 0.0
C1982 C 0.4411 0.7843 0.43121 0.0
C1983 C 0.48656 0.76729 0.4196 0.0
C1984 C 0.47641 0.78228 0.42475 0.0
C1985 C 0.43764 0.81795 0.41821 0.0
C1986 C 0.4521 0.80742 0.42404 0.0
H1987 H 0.50834 0.75421 0.37934 0.0
H1988 H 0.49862 0.78321 0.39097 0.0
H1989 H 0.44357 0.7534 0.4355 0.0
H1990 H 0.38804 0.81856 0.43168 0.0
H1991 H 0.41625 0.80787 0.44447 0.0
C1992 C 0.5072 0.75996 0.90904 0.0
C1993 C 0.49282 0.76982 0.91184 0.0
C1994 C 0.50115 0.73824 0.91727 0.0
C1995 C 0.45679 0.68929 0.94888 0.0
H1996 H 0.46476 0.65159 0.90925 0.0
C1997 C 0.39429 0.59044 0.93506 0.0
C1998 C 0.40353 0.57795 0.92544 0.0
C1999 C 0.40919 0.61378 0.94078 0.0
C2000 C 0.46282 0.6618 0.92081 0.0
H2001 H 0.4617 0.7657 0.92633 0.0
H2002 H 0.45022 0.72702 0.93984 0.0
H2003 H 0.48385 0.69345 0.90515 0.0
H2004 H 0.43548 0.57855 0.91671 0.0
H2005 H 0.46155 0.61879 0.92749 0.0
H2006 H 0.43429 0.65684 0.96379 0.0
C2007 C 0.46661 0.73627 0.93185 0.0
C2008 C 0.47388 0.68603 0.91846 0.0
C2009 C 0.47307 0.75838 0.92404 0.0
C2010 C 0.42797 0.58797 0.92393 0.0
C2011 C 0.44284 0.61105 0.92998 0.0
C2012 C 0.44548 0.66482 0.95117 0.0
C2013 C 0.48009 0.7255 0.92787 0.0
C2014 C 0.47072 0.70013 0.93223 0.0
C2015 C 0.43349 0.62473 0.93714 0.0
C2016 C 0.44808 0.65078 0.93694 0.0
H2017 H 0.52273 0.76868 0.89989 0.0
H2018 H 0.51241 0.73091 0.91445 0.0
H2019 H 0.45415 0.69961 0.9599 0.0
H2020 H 0.37546 0.5831 0.93628 0.0
H2021 H 0.4014 0.62381 0.94625 0.0
C2022 C 0.80057 0.3866 0.93429 0.0
C2023 C 0.82389 0.39531 0.92841 0.0
C2024 C 0.79286 0.40207 0.93993 0.0
C2025 C 0.77751 0.43703 0.94942 0.0
H2026 H 0.80766 0.49196 0.91605 0.0
C2027 C 0.72958 0.4868 0.92593 0.0
C2028 C 0.73122 0.49147 0.90568 0.0
C2029 C 0.74471 0.48034 0.93491 0.0
C2030 C 0.79897 0.4767 0.92547 0.0
H2031 H 0.85816 0.42636 0.926 0.0
H2032 H 0.84538 0.45326 0.9376 0.0
H2033 H 0.82687 0.46956 0.92206 0.0
H2034 H 0.75076 0.49402 0.87924 0.0
H2035 H 0.77636 0.48234 0.89456 0.0
H2036 H 0.74841 0.44303 0.95091 0.0
C2037 C 0.83253 0.43473 0.93676 0.0
C2038 C 0.81026 0.46394 0.92929 0.0
C2039 C 0.84003 0.41933 0.93042 0.0
C2040 C 0.74889 0.49051 0.89485 0.0
C2041 C 0.76385 0.48403 0.90375 0.0
C2042 C 0.76595 0.44953 0.94519 0.0
C2043 C 0.8085 0.42654 0.94022 0.0
C2044 C 0.79922 0.44321 0.94054 0.0
C2045 C 0.76178 0.47849 0.92383 0.0
C2046 C 0.77607 0.46882 0.93232 0.0
H2047 H 0.78778 0.36812 0.9326 0.0
H2048 H 0.77422 0.39481 0.9423 0.0
H2049 H 0.76874 0.42172 0.95876 0.0
H2050 H 0.7162 0.48746 0.93472 0.0
H2051 H 0.74276 0.4764 0.95044 0.0
C2052 C 0.41603 0.83597 0.88479 0.0
C2053 C 0.43164 0.83366 0.89741 0.0
C2054 C 0.39345 0.8297 0.89103 0.0
C2055 C 0.34878 0.78788 0.92381 0.0
H2056 H 0.31344 0.81579 0.903 0.0
C2057 C 0.24827 0.73468 0.91947 0.0
C2058 C 0.24065 0.73385 0.90008 0.0
C2059 C 0.27083 0.75206 0.92516 0.0
C2060 C 0.32309 0.80792 0.90912 0.0
H2061 H 0.43628 0.82431 0.92692 0.0
H2062 H 0.3966 0.81316 0.9378 0.0
H2063 H 0.35632 0.83801 0.90227 0.0
H2064 H 0.2498 0.75158 0.87194 0.0
H2065 H 0.28889 0.7817 0.8818 0.0
H2066 H 0.31563 0.75728 0.92957 0.0
C2067 C 0.40189 0.81973 0.92302 0.0
C2068 C 0.34761 0.8206 0.90868 0.0
C2069 C 0.42461 0.82616 0.9168 0.0
C2070 C 0.25528 0.75162 0.88693 0.0
C2071 C 0.27762 0.76906 0.89266 0.0
C2072 C 0.32427 0.77521 0.92427 0.0
C2073 C 0.3859 0.82089 0.91004 0.0
C2074 C 0.36067 0.81026 0.91512 0.0
C2075 C 0.28593 0.76906 0.91163 0.0
C2076 C 0.3112 0.78467 0.91604 0.0
H2077 H 0.42094 0.84188 0.86982 0.0
H2078 H 0.38149 0.83051 0.88056 0.0
H2079 H 0.3583 0.77934 0.92878 0.0
H2080 H 0.23732 0.72124 0.92993 0.0
H2081 H 0.27677 0.75173 0.93991 0.0
C2082 C 0.49943 0.24651 0.89845 0.0
C2083 C 0.5119 0.23621 0.90623 0.0
C2084 C 0.50612 0.26972 0.90289 0.0
C2085 C 0.54694 0.32251 0.93222 0.0
H2086 H 0.5512 0.35396 0.88306 0.0
C2087 C 0.6127 0.42074 0.91621 0.0
C2088 C 0.60631 0.432 0.90202 0.0
C2089 C 0.59716 0.3973 0.92121 0.0
C2090 C 0.5497 0.34558 0.89707 0.0
H2091 H 0.53989 0.24126 0.92592 0.0
H2092 H 0.55228 0.28232 0.93317 0.0
H2093 H 0.53074 0.31166 0.88413 0.0
H2094 H 0.57799 0.42871 0.88358 0.0
H2095 H 0.55058 0.38829 0.89288 0.0
H2096 H 0.56688 0.35692 0.94488 0.0
C2097 C 0.53702 0.27235 0.92396 0.0
C2098 C 0.53791 0.32118 0.89769 0.0
C2099 C 0.52999 0.24886 0.91979 0.0
C2100 C 0.58346 0.42026 0.89432 0.0
C2101 C 0.56783 0.39708 0.89958 0.0
C2102 C 0.55882 0.34714 0.93161 0.0
C2103 C 0.52582 0.28331 0.9148 0.0
C2104 C 0.53651 0.30928 0.91518 0.0
C2105 C 0.57491 0.38492 0.91228 0.0
C2106 C 0.5605 0.35893 0.91394 0.0
H2107 H 0.48519 0.23696 0.88816 0.0
H2108 H 0.49669 0.27744 0.89605 0.0
H2109 H 0.54612 0.31385 0.94594 0.0
H2110 H 0.63027 0.42944 0.92233 0.0
H2111 H 0.60322 0.38846 0.931 0.0
C2112 C 0.16041 0.58491 0.92095 0.0
C2113 C 0.17528 0.60935 0.92074 0.0
C2114 C 0.16885 0.57022 0.92707 0.0
C2115 C 0.19594 0.54577 0.91922 0.0
H2116 H 0.25349 0.56597 0.94844 0.0
C2117 C 0.26633 0.5268 0.89223 0.0
C2118 C 0.28085 0.5235 0.90541 0.0
C2119 C 0.24964 0.53224 0.89903 0.0
C2120 C 0.23715 0.55971 0.94051 0.0
H2121 H 0.20987 0.6378 0.9283 0.0
H2122 H 0.22511 0.6124 0.93789 0.0
H2123 H 0.22998 0.58452 0.95466 0.0
H2124 H 0.28864 0.52259 0.93621 0.0
H2125 H 0.25913 0.53196 0.94815 0.0
H2126 H 0.20306 0.521 0.90512 0.0
C2127 C 0.20672 0.60428 0.934 0.0
C2128 C 0.2238 0.57058 0.94389 0.0
C2129 C 0.19802 0.61897 0.92845 0.0
C2130 C 0.27775 0.52507 0.92566 0.0
C2131 C 0.26094 0.53054 0.9325 0.0
C2132 C 0.20906 0.53473 0.91609 0.0
C2133 C 0.19262 0.57968 0.93233 0.0
C2134 C 0.20361 0.56454 0.93259 0.0
C2135 C 0.24686 0.53443 0.91922 0.0
C2136 C 0.23044 0.54238 0.92593 0.0
H2137 H 0.14269 0.57712 0.91523 0.0
H2138 H 0.15715 0.55141 0.92631 0.0
H2139 H 0.18068 0.54055 0.91005 0.0
H2140 H 0.26819 0.52576 0.87655 0.0
H2141 H 0.23949 0.53559 0.88833 0.0
C2142 C 0.75293 0.27363 0.93178 0.0
C2143 C 0.75925 0.27192 0.91242 0.0
C2144 C 0.73107 0.25676 0.93921 0.0
C2145 C 0.67976 0.19781 0.93039 0.0
H2146 H 0.64267 0.22708 0.94261 0.0
C2147 C 0.58641 0.16103 0.90449 0.0
C2148 C 0.57105 0.16704 0.91373 0.0
C2149 C 0.60864 0.1684 0.91223 0.0
C2150 C 0.6527 0.21837 0.9399 0.0
H2151 H 0.74853 0.25043 0.88616 0.0
H2152 H 0.71064 0.22089 0.89919 0.0
H2153 H 0.68521 0.2508 0.94187 0.0
H2154 H 0.56606 0.18351 0.93944 0.0
H2155 H 0.60499 0.19627 0.95313 0.0
H2156 H 0.64721 0.16556 0.92753 0.0
C2157 C 0.72246 0.23525 0.90862 0.0
C2158 C 0.67716 0.23206 0.93942 0.0
C2159 C 0.74404 0.25229 0.90108 0.0
C2160 C 0.5776 0.1788 0.93185 0.0
C2161 C 0.59994 0.18621 0.93965 0.0
C2162 C 0.6553 0.18405 0.93111 0.0
C2163 C 0.71546 0.23768 0.92753 0.0
C2164 C 0.6908 0.22214 0.9336 0.0
C2165 C 0.61607 0.18193 0.92947 0.0
C2166 C 0.64144 0.19446 0.9347 0.0
H2167 H 0.76433 0.28861 0.94084 0.0
H2168 H 0.72603 0.25902 0.95382 0.0
H2169 H 0.68996 0.18971 0.92614 0.0
H2170 H 0.58182 0.15172 0.89063 0.0
H2171 H 0.62055 0.16493 0.90382 0.0
C2172 C 0.25177 0.49768 0.60837 0.0
C2173 C 0.24153 0.51112 0.60299 0.0
C2174 C 0.27424 0.50387 0.60187 0.0
C2175 C 0.32497 0.54623 0.57099 0.0
H2176 H 0.36002 0.54534 0.61635 0.0
C2177 C 0.42328 0.6118 0.58578 0.0
C2178 C 0.43537 0.60443 0.59818 0.0
C2179 C 0.39999 0.59606 0.58043 0.0
C2180 C 0.35062 0.54527 0.60329 0.0
H2181 H 0.24574 0.54046 0.58553 0.0
H2182 H 0.28563 0.55212 0.57487 0.0
H2183 H 0.31783 0.52523 0.61772 0.0
H2184 H 0.43408 0.57459 0.61279 0.0
H2185 H 0.39401 0.54685 0.60265 0.0
H2186 H 0.35837 0.56752 0.55702 0.0
C2187 C 0.27614 0.53641 0.58366 0.0
C2188 C 0.32623 0.53365 0.60408 0.0
C2189 C 0.25333 0.52982 0.58981 0.0
C2190 C 0.42493 0.58067 0.60336 0.0
C2191 C 0.40195 0.56487 0.59766 0.0
C2192 C 0.34959 0.558 0.5702 0.0
C2193 C 0.28724 0.52412 0.59039 0.0
C2194 C 0.31303 0.5342 0.58809 0.0
C2195 C 0.38871 0.57271 0.58722 0.0
C2196 C 0.36269 0.55791 0.58649 0.0
H2197 H 0.24281 0.48298 0.61834 0.0
H2198 H 0.28195 0.49357 0.60683 0.0
H2199 H 0.31533 0.54689 0.55836 0.0
H2200 H 0.43101 0.63013 0.58173 0.0
H2201 H 0.39032 0.60271 0.57241 0.0
C2202 C 0.84477 0.42756 0.58481 0.0
C2203 C 0.82935 0.43638 0.58647 0.0
C2204 C 0.8366 0.40466 0.57816 0.0
C2205 C 0.81176 0.35298 0.58515 0.0
H2206 H 0.75144 0.31469 0.56001 0.0
C2207 C 0.74488 0.26465 0.61584 0.0
C2208 C 0.72835 0.24665 0.60377 0.0
C2209 C 0.76111 0.28632 0.60796 0.0
C2210 C 0.76855 0.32501 0.56673 0.0
H2211 H 0.79393 0.42921 0.58124 0.0
H2212 H 0.77916 0.38888 0.5709 0.0
H2213 H 0.77365 0.35667 0.5534 0.0
H2214 H 0.71663 0.23699 0.57371 0.0
H2215 H 0.74533 0.27506 0.55984 0.0
H2216 H 0.80674 0.32137 0.59836 0.0
C2217 C 0.79776 0.39957 0.57388 0.0
C2218 C 0.78118 0.34922 0.56317 0.0
C2219 C 0.80616 0.42276 0.57989 0.0
C2220 C 0.7291 0.25054 0.58343 0.0
C2221 C 0.74545 0.27236 0.57549 0.0
C2222 C 0.79938 0.32881 0.58838 0.0
C2223 C 0.81259 0.38979 0.57395 0.0
C2224 C 0.80233 0.36374 0.57322 0.0
C2225 C 0.76141 0.29062 0.58774 0.0
C2226 C 0.77701 0.31476 0.58016 0.0
H2227 H 0.86281 0.43792 0.58971 0.0
H2228 H 0.84883 0.39818 0.57766 0.0
H2229 H 0.82786 0.36325 0.59329 0.0
H2230 H 0.74489 0.26231 0.63156 0.0
H2231 H 0.77276 0.30004 0.61795 0.0
C2232 C 0.39728 0.81234 0.58333 0.0
C2233 C 0.40499 0.83261 0.59484 0.0
C2234 C 0.41295 0.80462 0.57819 0.0
C2235 C 0.46349 0.80681 0.60151 0.0
H2236 H 0.46257 0.76893 0.55758 0.0
C2237 C 0.50979 0.7541 0.60931 0.0
C2238 C 0.49696 0.7307 0.60301 0.0
C2239 C 0.50377 0.77053 0.60286 0.0
C2240 C 0.463 0.77944 0.56998 0.0
H2241 H 0.43544 0.86238 0.60775 0.0
H2242 H 0.46287 0.8494 0.59824 0.0
H2243 H 0.44212 0.79142 0.55506 0.0
H2244 H 0.46876 0.70628 0.58416 0.0
H2245 H 0.4573 0.73463 0.57366 0.0
H2246 H 0.48283 0.794 0.617 0.0
C2247 C 0.44468 0.83901 0.59373 0.0
C2248 C 0.45137 0.79238 0.56848 0.0
C2249 C 0.42902 0.8465 0.59909 0.0
C2250 C 0.47894 0.72429 0.58918 0.0
C2251 C 0.47248 0.74061 0.5831 0.0
C2252 C 0.47484 0.79381 0.60307 0.0
C2253 C 0.43653 0.81724 0.58435 0.0
C2254 C 0.45126 0.80595 0.58436 0.0
C2255 C 0.48426 0.76373 0.59048 0.0
C2256 C 0.4745 0.77966 0.58747 0.0
H2257 H 0.37881 0.80129 0.5799 0.0
H2258 H 0.40612 0.78777 0.57097 0.0
H2259 H 0.46325 0.81654 0.61425 0.0
H2260 H 0.52401 0.75952 0.61975 0.0
H2261 H 0.51377 0.78835 0.60833 0.0
C2262 C 0.75791 0.50947 0.62018 0.0
C2263 C 0.76753 0.49845 0.60899 0.0
C2264 C 0.73479 0.50407 0.61717 0.0
C2265 C 0.68095 0.46965 0.58676 0.0
H2266 H 0.65108 0.4562 0.63781 0.0
C2267 C 0.58325 0.40134 0.60154 0.0
C2268 C 0.57238 0.4051 0.61776 0.0
C2269 C 0.60659 0.41765 0.59691 0.0
C2270 C 0.65903 0.46032 0.62339 0.0
H2271 H 0.76144 0.47462 0.58489 0.0
H2272 H 0.72046 0.4643 0.5801 0.0
H2273 H 0.69332 0.47662 0.63572 0.0
H2274 H 0.57629 0.42981 0.64054 0.0
H2275 H 0.6166 0.45859 0.63206 0.0
H2276 H 0.64615 0.45224 0.5746 0.0
C2277 C 0.73091 0.47753 0.5909 0.0
C2278 C 0.68339 0.4721 0.62218 0.0
C2279 C 0.75432 0.48335 0.59366 0.0
C2280 C 0.58444 0.42629 0.62818 0.0
C2281 C 0.60754 0.44272 0.62335 0.0
C2282 C 0.65636 0.45776 0.58799 0.0
C2283 C 0.7206 0.48702 0.60328 0.0
C2284 C 0.69471 0.47673 0.6039 0.0
C2285 C 0.61926 0.43808 0.60829 0.0
C2286 C 0.64516 0.45276 0.60637 0.0
H2287 H 0.76794 0.52143 0.63192 0.0
H2288 H 0.72758 0.51221 0.62656 0.0
H2289 H 0.68916 0.47302 0.57246 0.0
H2290 H 0.57428 0.38512 0.59326 0.0
H2291 H 0.61511 0.41348 0.58527 0.0
C2292 C 0.17439 0.58946 0.6185 0.0
C2293 C 0.17851 0.57368 0.60768 0.0
C2294 C 0.18113 0.6117 0.61114 0.0
C2295 C 0.22697 0.65575 0.58077 0.0
H2296 H 0.1966 0.69112 0.59553 0.0
C2297 C 0.27984 0.75611 0.58711 0.0
C2298 C 0.27787 0.76311 0.60617 0.0
C2299 C 0.26329 0.73382 0.58018 0.0
C2300 C 0.20519 0.68146 0.59105 0.0
H2301 H 0.19156 0.5683 0.58009 0.0
H2302 H 0.20364 0.6075 0.56726 0.0
H2303 H 0.17415 0.64824 0.59578 0.0
H2304 H 0.25615 0.75313 0.63227 0.0
H2305 H 0.22742 0.7145 0.62023 0.0
H2306 H 0.25837 0.6889 0.57725 0.0
C2307 C 0.19522 0.60256 0.58148 0.0
C2308 C 0.19237 0.65694 0.59122 0.0
C2309 C 0.18827 0.58014 0.58881 0.0
C2310 C 0.25826 0.74814 0.6176 0.0
C2311 C 0.24163 0.72608 0.6106 0.0
C2312 C 0.23977 0.68027 0.58055 0.0
C2313 C 0.19226 0.61878 0.59281 0.0
C2314 C 0.20349 0.64388 0.58713 0.0
C2315 C 0.24434 0.71838 0.59207 0.0
C2316 C 0.22932 0.69332 0.58673 0.0
H2317 H 0.16669 0.58495 0.633 0.0
H2318 H 0.17887 0.62384 0.62038 0.0
H2319 H 0.2361 0.64622 0.57763 0.0
H2320 H 0.29476 0.76733 0.57796 0.0
H2321 H 0.26574 0.72833 0.56582 0.0
C2322 C 0.52941 0.28697 0.59213 0.0
C2323 C 0.51016 0.27898 0.60489 0.0
C2324 C 0.5362 0.27131 0.58488 0.0
C2325 C 0.53184 0.21593 0.60095 0.0
H2326 H 0.56865 0.22339 0.55431 0.0
C2327 C 0.57894 0.16459 0.59598 0.0
C2328 C 0.60313 0.17884 0.5927 0.0
C2329 C 0.56345 0.17227 0.59052 0.0
C2330 C 0.55828 0.22102 0.56733 0.0
H2331 H 0.48137 0.24828 0.61836 0.0
H2332 H 0.49229 0.22076 0.60488 0.0
H2333 H 0.54805 0.24567 0.5576 0.0
H2334 H 0.62997 0.21114 0.57952 0.0
H2335 H 0.60299 0.22504 0.57055 0.0
H2336 H 0.54255 0.19215 0.61112 0.0
C2337 C 0.5029 0.23918 0.60115 0.0
C2338 C 0.54653 0.23382 0.56926 0.0
C2339 C 0.4965 0.25487 0.60877 0.0
C2340 C 0.61133 0.1998 0.5821 0.0
C2341 C 0.59584 0.20774 0.57696 0.0
C2342 C 0.54337 0.20315 0.59898 0.0
C2343 C 0.52356 0.24736 0.59002 0.0
C2344 C 0.53352 0.23173 0.5863 0.0
C2345 C 0.57195 0.19463 0.58217 0.0
C2346 C 0.55709 0.2058 0.58235 0.0
H2347 H 0.54025 0.30554 0.58899 0.0
H2348 H 0.55225 0.27831 0.57643 0.0
H2349 H 0.52262 0.21426 0.61454 0.0
H2350 H 0.57221 0.14824 0.60398 0.0
H2351 H 0.54504 0.16146 0.59423 0.0
C2352 C 0.44527 0.10055 0.94011 0.0
C2353 C 0.44132 0.11562 0.92819 0.0
C2354 C 0.4375 0.09644 0.95958 0.0
C2355 C 0.43001 0.12998 0.99852 0.0
H2356 H 0.41443 0.07517 0.03022 0.0
C2357 C 0.44133 0.1408 0.08129 0.0
C2358 C 0.4534 0.1304 0.08967 0.0
C2359 C 0.43056 0.13341 0.06293 0.0
C2360 C 0.41882 0.09066 0.02162 0.0
H2361 H 0.42511 0.13721 0.92676 0.0
H2362 H 0.41103 0.12972 0.96068 0.0
H2363 H 0.41199 0.07174 0.99448 0.0
H2364 H 0.46277 0.10345 0.08605 0.0
H2365 H 0.44455 0.09081 0.05391 0.0
H2366 H 0.43831 0.14933 0.02523 0.0
C2367 C 0.42015 0.12105 0.95505 0.0
C2368 C 0.41732 0.08865 1.00111 0.0
C2369 C 0.42786 0.12507 0.93554 0.0
C2370 C 0.45301 0.11131 0.08011 0.0
C2371 C 0.44261 0.10417 0.06157 0.0
C2372 C 0.43169 0.13203 0.01893 0.0
C2373 C 0.42591 0.10764 0.96758 0.0
C2374 C 0.42343 0.10843 0.98929 0.0
C2375 C 0.43229 0.11596 0.05227 0.0
C2376 C 0.42668 0.11255 0.03081 0.0
H2377 H 0.45617 0.0936 0.93491 0.0
H2378 H 0.44247 0.08622 0.96879 0.0
H2379 H 0.43532 0.14571 0.98995 0.0
H2380 H 0.44175 0.15583 0.08825 0.0
H2381 H 0.42222 0.14249 0.05656 0.0
C2382 C 0.35042 0.45107 0.93855 0.0
C2383 C 0.33129 0.44809 0.92724 0.0
C2384 C 0.34688 0.44135 0.95735 0.0
C2385 C 0.30467 0.42738 0.99732 0.0
H2386 H 0.34699 0.41277 0.02551 0.0
C2387 C 0.30517 0.42949 0.08087 0.0
C2388 C 0.32772 0.44365 0.08868 0.0
C2389 C 0.30236 0.42051 0.06179 0.0
C2390 C 0.33494 0.41673 0.01786 0.0
H2391 H 0.29346 0.43162 0.92608 0.0
H2392 H 0.28706 0.41383 0.95864 0.0
H2393 H 0.34788 0.414 0.98968 0.0
H2394 H 0.36488 0.45849 0.08332 0.0
H2395 H 0.36016 0.44288 0.05021 0.0
H2396 H 0.29251 0.4313 0.0253 0.0
C2397 C 0.30486 0.42389 0.95316 0.0
C2398 C 0.33547 0.41745 0.9973 0.0
C2399 C 0.30845 0.43372 0.93438 0.0
C2400 C 0.34729 0.44708 0.07779 0.0
C2401 C 0.34452 0.43818 0.05873 0.0
C2402 C 0.30415 0.42667 0.0178 0.0
C2403 C 0.3241 0.42858 0.96529 0.0
C2404 C 0.3208 0.42347 0.98677 0.0
C2405 C 0.32209 0.42584 0.0501 0.0
C2406 C 0.31975 0.42203 0.02841 0.0
H2407 H 0.36822 0.46263 0.93354 0.0
H2408 H 0.36216 0.44559 0.96624 0.0
H2409 H 0.29339 0.43251 0.98986 0.0
H2410 H 0.28985 0.42708 0.08883 0.0
H2411 H 0.28479 0.41074 0.05576 0.0
C2412 C 0.88075 0.30506 0.08264 0.0
C2413 C 0.88618 0.32768 0.08856 0.0
C2414 C 0.88667 0.30134 0.06372 0.0
C2415 C 0.92049 0.33164 0.01856 0.0
H2416 H 0.86408 0.28642 0.99131 0.0
C2417 C 0.90021 0.34362 0.93934 0.0
C2418 C 0.88411 0.32419 0.92831 0.0
C2419 C 0.90696 0.34057 0.95805 0.0
C2420 C 0.88029 0.2987 0.99858 0.0
H2421 H 0.90343 0.36429 0.08013 0.0
H2422 H 0.91434 0.35802 0.04752 0.0
H2423 H 0.86461 0.28727 0.02687 0.0
H2424 H 0.8635 0.28629 0.9275 0.0
H2425 H 0.87593 0.28072 0.95992 0.0
H2426 H 0.93588 0.3437 0.99022 0.0
C2427 C 0.90554 0.34309 0.05726 0.0
C2428 C 0.88055 0.29918 0.01909 0.0
C2429 C 0.89928 0.34671 0.07595 0.0
C2430 C 0.87636 0.30153 0.93557 0.0
C2431 C 0.88318 0.29841 0.9543 0.0
C2432 C 0.92031 0.33104 0.99803 0.0
C2433 C 0.89843 0.32026 0.05058 0.0
C2434 C 0.90031 0.31627 0.02931 0.0
C2435 C 0.89759 0.31795 0.9662 0.0
C2436 C 0.89986 0.3152 0.98773 0.0
H2437 H 0.87032 0.29007 0.092 0.0
H2438 H 0.88105 0.28356 0.05902 0.0
H2439 H 0.9361 0.34483 0.02602 0.0
H2440 H 0.9059 0.36129 0.93424 0.0
H2441 H 0.91784 0.35609 0.96671 0.0
C2442 C 0.5569 0.90045 0.93776 0.0
C2443 C 0.56314 0.88731 0.92548 0.0
C2444 C 0.56572 0.90614 0.95682 0.0
C2445 C 0.58293 0.88033 0.99602 0.0
H2446 H 0.59124 0.93487 0.0248 0.0
C2447 C 0.57536 0.87745 0.08012 0.0
C2448 C 0.55909 0.88385 0.08665 0.0
C2449 C 0.58505 0.88376 0.06124 0.0
C2450 C 0.58909 0.91955 0.017 0.0
H2451 H 0.58431 0.87069 0.92309 0.0
H2452 H 0.59986 0.88059 0.95665 0.0
H2453 H 0.59207 0.93561 0.98901 0.0
H2454 H 0.54109 0.90277 0.07924 0.0
H2455 H 0.55816 0.91418 0.04668 0.0
H2456 H 0.5786 0.86377 0.02391 0.0
C2457 C 0.58822 0.88663 0.95144 0.0
C2458 C 0.58959 0.91999 0.99648 0.0
C2459 C 0.57959 0.88122 0.93217 0.0
C2460 C 0.554 0.89806 0.07466 0.0
C2461 C 0.56379 0.90455 0.05595 0.0
C2462 C 0.58239 0.87988 0.01655 0.0
C2463 C 0.58072 0.89845 0.96422 0.0
C2464 C 0.58559 0.90006 0.98571 0.0
C2465 C 0.57866 0.89665 0.04864 0.0
C2466 C 0.58454 0.89915 0.0273 0.0
H2467 H 0.54395 0.90502 0.93302 0.0
H2468 H 0.55929 0.91498 0.96623 0.0
H2469 H 0.57955 0.86457 0.98826 0.0
H2470 H 0.57913 0.86604 0.08896 0.0
H2471 H 0.59659 0.87754 0.05614 0.0
C2472 C 0.66324 0.5585 0.93474 0.0
C2473 C 0.68228 0.56451 0.92212 0.0
C2474 C 0.6667 0.5691 0.95313 0.0
C2475 C 0.71091 0.59132 0.99124 0.0
H2476 H 0.66648 0.60375 0.01848 0.0
C2477 C 0.71199 0.5941 0.07498 0.0
C2478 C 0.68976 0.58058 0.08355 0.0
C2479 C 0.71407 0.60145 0.05543 0.0
C2480 C 0.67907 0.60033 0.01115 0.0
H2481 H 0.71977 0.58691 0.91841 0.0
H2482 H 0.72603 0.60541 0.95087 0.0
H2483 H 0.66439 0.59945 0.98284 0.0
H2484 H 0.6524 0.56503 0.07886 0.0
H2485 H 0.65579 0.57749 0.04488 0.0
H2486 H 0.72462 0.5905 0.01939 0.0
C2487 C 0.70833 0.59267 0.94639 0.0
C2488 C 0.67793 0.59798 0.99069 0.0
C2489 C 0.70476 0.5823 0.92776 0.0
C2490 C 0.66977 0.57604 0.07275 0.0
C2491 C 0.67179 0.58313 0.05316 0.0
C2492 C 0.71191 0.59341 0.01168 0.0
C2493 C 0.68942 0.58562 0.95951 0.0
C2494 C 0.6934 0.59276 0.98055 0.0
C2495 C 0.69392 0.59493 0.04391 0.0
C2496 C 0.69554 0.59721 0.02203 0.0
H2497 H 0.6458 0.54456 0.9308 0.0
H2498 H 0.65179 0.56303 0.9629 0.0
H2499 H 0.7229 0.58698 0.98395 0.0
H2500 H 0.72763 0.59736 0.08289 0.0
H2501 H 0.73144 0.61096 0.04902 0.0
C2502 C 0.11963 0.69637 0.07957 0.0
C2503 C 0.11256 0.67354 0.08607 0.0
C2504 C 0.11421 0.70012 0.06049 0.0
C2505 C 0.0804 0.67002 0.01507 0.0
H2506 H 0.13776 0.71469 0.98869 0.0
C2507 C 0.10037 0.66045 0.93467 0.0
C2508 C 0.11674 0.68026 0.92418 0.0
C2509 C 0.09399 0.66274 0.95377 0.0
C2510 C 0.12132 0.70255 0.99571 0.0
H2511 H 0.09336 0.63673 0.07833 0.0
H2512 H 0.08343 0.64306 0.04533 0.0
H2513 H 0.13664 0.71317 0.02419 0.0
H2514 H 0.13834 0.71808 0.92483 0.0
H2515 H 0.1265 0.72236 0.95789 0.0
H2516 H 0.06536 0.65882 0.98647 0.0
C2517 C 0.09291 0.65814 0.05484 0.0
C2518 C 0.1207 0.70168 0.01621 0.0
C2519 C 0.09851 0.65446 0.07379 0.0
C2520 C 0.12526 0.70259 0.93249 0.0
C2521 C 0.11878 0.70494 0.95157 0.0
C2522 C 0.08096 0.67098 0.99452 0.0
C2523 C 0.10162 0.68107 0.04761 0.0
C2524 C 0.10049 0.6849 0.02615 0.0
C2525 C 0.10399 0.68494 0.96285 0.0
C2526 C 0.10169 0.68675 0.98453 0.0
H2527 H 0.13096 0.71139 0.08862 0.0
H2528 H 0.12101 0.71799 0.05545 0.0
H2529 H 0.06444 0.65708 0.02226 0.0
H2530 H 0.0941 0.64299 0.92876 0.0
H2531 H 0.0828 0.64687 0.96193 0.0
C2532 C 0.88363 0.58083 0.57526 0.0
C2533 C 0.89153 0.56622 0.58297 0.0
C2534 C 0.88973 0.58964 0.55615 0.0
C2535 C 0.92474 0.59099 0.51185 0.0
H2536 H 0.86874 0.5803 0.48411 0.0
C2537 C 0.8997 0.5525 0.43449 0.0
C2538 C 0.88734 0.55948 0.42199 0.0
C2539 C 0.90673 0.56245 0.4531 0.0
C2540 C 0.88477 0.58394 0.49158 0.0
H2541 H 0.91272 0.55018 0.57734 0.0
H2542 H 0.92323 0.56518 0.54411 0.0
H2543 H 0.86948 0.58172 0.51965 0.0
H2544 H 0.87344 0.58296 0.41868 0.0
H2545 H 0.88543 0.60026 0.45156 0.0
H2546 H 0.93924 0.59142 0.48356 0.0
C2547 C 0.91289 0.57055 0.55274 0.0
C2548 C 0.88525 0.58481 0.51208 0.0
C2549 C 0.90696 0.56196 0.57188 0.0
C2550 C 0.8833 0.57759 0.42796 0.0
C2551 C 0.88996 0.58729 0.44681 0.0
C2552 C 0.92414 0.58986 0.49133 0.0
C2553 C 0.90342 0.58357 0.54425 0.0
C2554 C 0.90494 0.58753 0.52256 0.0
C2555 C 0.90109 0.57926 0.4598 0.0
C2556 C 0.90385 0.58555 0.481 0.0
H2557 H 0.87128 0.58391 0.58342 0.0
H2558 H 0.88248 0.59999 0.55031 0.0
H2559 H 0.94041 0.59363 0.51932 0.0
H2560 H 0.90274 0.53834 0.43027 0.0
H2561 H 0.915 0.55565 0.46277 0.0
C2562 C 0.34777 0.90071 0.57379 0.0
C2563 C 0.32832 0.88552 0.58525 0.0
C2564 C 0.34471 0.90676 0.55481 0.0
C2565 C 0.30266 0.87995 0.51443 0.0
H2566 H 0.34775 0.93609 0.48681 0.0
C2567 C 0.30655 0.88031 0.43029 0.0
C2568 C 0.3292 0.88707 0.42346 0.0
C2569 C 0.30329 0.88598 0.44946 0.0
C2570 C 0.33491 0.92034 0.4943 0.0
H2571 H 0.29039 0.86553 0.58631 0.0
H2572 H 0.28484 0.87654 0.55324 0.0
H2573 H 0.34747 0.93567 0.52262 0.0
H2574 H 0.36619 0.90615 0.43064 0.0
H2575 H 0.36071 0.91654 0.4637 0.0
H2576 H 0.29077 0.86426 0.48619 0.0
C2577 C 0.30253 0.88374 0.55886 0.0
C2578 C 0.33477 0.92007 0.51485 0.0
C2579 C 0.30565 0.87773 0.57792 0.0
C2580 C 0.34858 0.90115 0.43545 0.0
C2581 C 0.34538 0.90704 0.45445 0.0
C2582 C 0.30276 0.88024 0.49391 0.0
C2583 C 0.32206 0.89751 0.54674 0.0
C2584 C 0.31919 0.89958 0.5252 0.0
C2585 C 0.32266 0.89861 0.46204 0.0
C2586 C 0.31942 0.90016 0.48356 0.0
H2587 H 0.36542 0.90641 0.57895 0.0
H2588 H 0.36019 0.91713 0.54596 0.0
H2589 H 0.2906 0.86372 0.52178 0.0
H2590 H 0.2913 0.86898 0.42147 0.0
H2591 H 0.28556 0.87938 0.45478 0.0
C2592 C 0.43387 0.29866 0.43704 0.0
C2593 C 0.44665 0.321 0.42854 0.0
C2594 C 0.42426 0.29599 0.45584 0.0
C2595 C 0.41638 0.32902 0.49766 0.0
H2596 H 0.4301 0.28813 0.52898 0.0
C2597 C 0.44666 0.34607 0.57797 0.0
C2598 C 0.44094 0.32705 0.59054 0.0
C2599 C 0.43836 0.34229 0.55869 0.0
C2600 C 0.4256 0.29924 0.52049 0.0
H2601 H 0.45877 0.35793 0.43253 0.0
H2602 H 0.44247 0.35356 0.46533 0.0
H2603 H 0.43192 0.28686 0.49355 0.0
H2604 H 0.42115 0.28922 0.59322 0.0
H2605 H 0.4066 0.28246 0.55934 0.0
H2606 H 0.41163 0.34244 0.52493 0.0
C2607 C 0.43908 0.33786 0.45748 0.0
C2608 C 0.42661 0.29851 0.50003 0.0
C2609 C 0.44841 0.34044 0.43858 0.0
C2610 C 0.42541 0.30419 0.58393 0.0
C2611 C 0.41736 0.30035 0.56447 0.0
C2612 C 0.4156 0.3299 0.51818 0.0
C2613 C 0.42778 0.31572 0.46674 0.0
C2614 C 0.42267 0.31385 0.48829 0.0
C2615 C 0.42453 0.31934 0.55141 0.0
C2616 C 0.42082 0.31546 0.52984 0.0
H2617 H 0.43271 0.28348 0.42971 0.0
H2618 H 0.41524 0.27859 0.46223 0.0
H2619 H 0.41276 0.34077 0.48919 0.0
H2620 H 0.45896 0.36384 0.58265 0.0
H2621 H 0.44445 0.35731 0.54905 0.0
C2622 C 0.12854 0.42572 0.58013 0.0
C2623 C 0.12113 0.44084 0.58762 0.0
C2624 C 0.12279 0.41719 0.56087 0.0
C2625 C 0.08755 0.41459 0.51667 0.0
H2626 H 0.14461 0.4295 0.48862 0.0
C2627 C 0.10637 0.44964 0.43782 0.0
C2628 C 0.12241 0.44678 0.42627 0.0
C2629 C 0.10026 0.43963 0.45652 0.0
C2630 C 0.12827 0.4246 0.4961 0.0
H2631 H 0.10091 0.45783 0.5815 0.0
H2632 H 0.09045 0.44271 0.54822 0.0
H2633 H 0.14421 0.42804 0.52414 0.0
H2634 H 0.14372 0.43027 0.4246 0.0
H2635 H 0.13248 0.412 0.45702 0.0
H2636 H 0.07194 0.41217 0.48854 0.0
C2637 C 0.10046 0.43712 0.55705 0.0
C2638 C 0.12805 0.42377 0.5166 0.0
C2639 C 0.10639 0.44577 0.57617 0.0
C2640 C 0.13088 0.43226 0.43308 0.0
C2641 C 0.12473 0.42217 0.45179 0.0
C2642 C 0.08774 0.41533 0.49612 0.0
C2643 C 0.1095 0.42364 0.54882 0.0
C2644 C 0.10795 0.41956 0.52719 0.0
C2645 C 0.11026 0.42669 0.46415 0.0
C2646 C 0.10836 0.42116 0.48557 0.0
H2647 H 0.14036 0.42211 0.58854 0.0
H2648 H 0.12985 0.40667 0.55505 0.0
H2649 H 0.07166 0.41096 0.52434 0.0
H2650 H 0.10014 0.46131 0.43308 0.0
H2651 H 0.0893 0.4438 0.46557 0.0
C2652 C 0.66087 0.09426 0.43719 0.0
C2653 C 0.68072 0.10728 0.42539 0.0
C2654 C 0.66333 0.09001 0.45689 0.0
C2655 C 0.70489 0.11967 0.49678 0.0
H2656 H 0.65858 0.067 0.5272 0.0
C2657 C 0.70018 0.12828 0.5802 0.0
C2658 C 0.67749 0.12178 0.58673 0.0
C2659 C 0.70347 0.12078 0.56181 0.0
C2660 C 0.67173 0.08183 0.51894 0.0
H2661 H 0.71866 0.12529 0.42453 0.0
H2662 H 0.72311 0.11761 0.45901 0.0
H2663 H 0.65928 0.06374 0.49156 0.0
H2664 H 0.64049 0.10171 0.5798 0.0
H2665 H 0.64601 0.08839 0.54796 0.0
H2666 H 0.71661 0.13821 0.52395 0.0
C2667 C 0.7056 0.11062 0.45305 0.0
C2668 C 0.67214 0.07995 0.4985 0.0
C2669 C 0.70308 0.11473 0.43325 0.0
C2670 C 0.65812 0.10646 0.57525 0.0
C2671 C 0.66135 0.09889 0.55695 0.0
C2672 C 0.70448 0.12155 0.5172 0.0
C2673 C 0.68576 0.09903 0.46531 0.0
C2674 C 0.68822 0.09913 0.48709 0.0
C2675 C 0.6841 0.10675 0.54961 0.0
C2676 C 0.68739 0.10294 0.52851 0.0
H2677 H 0.64348 0.08885 0.43155 0.0
H2678 H 0.64765 0.0813 0.46584 0.0
H2679 H 0.71733 0.13493 0.48853 0.0
H2680 H 0.7154 0.14052 0.58863 0.0
H2681 H 0.72122 0.12697 0.55671 0.0
C2682 C 0.57189 0.66185 0.58036 0.0
C2683 C 0.5679 0.6797 0.58718 0.0
C2684 C 0.58106 0.66323 0.5615 0.0
C2685 C 0.60606 0.70243 0.5175 0.0
H2686 H 0.56492 0.64559 0.48869 0.0
C2687 C 0.57533 0.70177 0.43906 0.0
C2688 C 0.56884 0.68228 0.42686 0.0
C2689 C 0.58449 0.70274 0.45774 0.0
C2690 C 0.57706 0.66148 0.49644 0.0
H2691 H 0.57152 0.71347 0.58037 0.0
H2692 H 0.5878 0.71619 0.54784 0.0
H2693 H 0.56462 0.64495 0.52429 0.0
H2694 H 0.5679 0.64905 0.42409 0.0
H2695 H 0.58414 0.6507 0.45685 0.0
H2696 H 0.61747 0.71923 0.48953 0.0
C2697 C 0.58422 0.70121 0.55687 0.0
C2698 C 0.5769 0.66111 0.51696 0.0
C2699 C 0.57492 0.69973 0.57557 0.0
C2700 C 0.57326 0.66451 0.43309 0.0
C2701 C 0.58223 0.66533 0.45194 0.0
C2702 C 0.60621 0.7028 0.49696 0.0
C2703 C 0.58639 0.6825 0.5492 0.0
C2704 C 0.5907 0.6818 0.52777 0.0
C2705 C 0.587 0.684 0.4648 0.0
C2706 C 0.59102 0.68254 0.48617 0.0
H2707 H 0.56612 0.64601 0.5889 0.0
H2708 H 0.58273 0.64862 0.55615 0.0
H2709 H 0.61724 0.71859 0.52533 0.0
H2710 H 0.57162 0.71545 0.43472 0.0
H2711 H 0.58766 0.71726 0.46722 0.0
loop_
_geom_bond_atom_site_label_1
_geom_bond_atom_site_label_2
_geom_bond_distance
_geom_bond_site_symmetry_2
_ccdc_geom_bond_type
O0 Zn1 1.953 . S
O0 C16 1.225 . S
Zn1 O0 1.953 . S
Zn1 O2 1.949 . S
Zn1 O8 1.919 . S
Zn1 O13 1.924 . S
O2 Zn1 1.949 . S
O2 Zn3 1.923 . S
O2 Zn4 1.950 . S
O2 Zn5 1.945 . S
Zn3 O2 1.923 . S
Zn3 O6 1.933 . S
Zn3 O9 1.941 . S
Zn3 O10 1.965 . S
Zn4 O2 1.950 . S
Zn4 O11 1.938 . S
Zn4 O12 1.906 . S
Zn4 O22 1.953 . S
Zn5 O2 1.945 . S
Zn5 O7 1.932 . S
Zn5 O14 1.977 . S
Zn5 O15 1.910 . S
O6 Zn3 1.933 . S
O6 C17 1.226 . S
O7 Zn5 1.932 . S
O7 C17 1.307 . S
O8 Zn1 1.919 . S
O8 C19 1.253 . S
O9 Zn3 1.941 . S
O9 C19 1.283 . S
O10 Zn3 1.965 . S
O10 C18 1.303 . S
O11 Zn4 1.938 . S
O11 C18 1.247 . S
O12 Zn4 1.906 . S
O12 C20 1.304 . S
O13 Zn1 1.924 . S
O13 C21 1.311 . S
O14 Zn5 1.977 . S
O14 C20 1.272 . S
O15 Zn5 1.910 . S
O15 C21 1.231 . S
C16 O0 1.225 . S
C16 O22 1.298 . S
C17 O6 1.226 . S
C17 O7 1.307 . S
C18 O10 1.303 . S
C18 O11 1.247 . S
C19 O8 1.253 . S
C19 O9 1.283 . S
C20 O12 1.304 . S
C20 O14 1.272 . S
C21 O13 1.311 . S
C21 O15 1.231 . S
O22 Zn4 1.953 . S
O22 C16 1.298 . S
O23 Zn24 1.953 . S
O23 C39 1.225 . S
Zn24 O23 1.953 . S
Zn24 O25 1.949 . S
Zn24 O31 1.919 . S
Zn24 O36 1.924 . S
O25 Zn24 1.949 . S
O25 Zn26 1.923 . S
O25 Zn27 1.950 . S
O25 Zn28 1.945 . S
Zn26 O25 1.923 . S
Zn26 O29 1.933 . S
Zn26 O32 1.941 . S
Zn26 O33 1.965 . S
Zn27 O25 1.950 . S
Zn27 O34 1.938 . S
Zn27 O35 1.906 . S
Zn27 O45 1.953 . S
Zn28 O25 1.945 . S
Zn28 O30 1.932 . S
Zn28 O37 1.977 . S
Zn28 O38 1.910 . S
O29 Zn26 1.933 . S
O29 C40 1.226 . S
O30 Zn28 1.932 . S
O30 C40 1.307 . S
O31 Zn24 1.919 . S
O31 C42 1.253 . S
O32 Zn26 1.941 . S
O32 C42 1.283 . S
O33 Zn26 1.965 . S
O33 C41 1.303 . S
O34 Zn27 1.938 . S
O34 C41 1.247 . S
O35 Zn27 1.906 . S
O35 C43 1.304 . S
O36 Zn24 1.924 . S
O36 C44 1.311 . S
O37 Zn28 1.977 . S
O37 C43 1.272 . S
O38 Zn28 1.910 . S
O38 C44 1.231 . S
C39 O23 1.225 . S
C39 O45 1.298 . S
C40 O29 1.226 . S
C40 O30 1.307 . S
C41 O33 1.303 . S
C41 O34 1.247 . S
C42 O31 1.253 . S
C42 O32 1.283 . S
C43 O35 1.304 . S
C43 O37 1.272 . S
C44 O36 1.311 . S
C44 O38 1.231 . S
O45 Zn27 1.953 . S
O45 C39 1.298 . S
O46 Zn47 1.953 . S
O46 C62 1.225 . S
Zn47 O46 1.953 . S
Zn47 O48 1.949 . S
Zn47 O54 1.919 . S
Zn47 O59 1.924 . S
O48 Zn47 1.949 . S
O48 Zn49 1.923 . S
O48 Zn50 1.950 . S
O48 Zn51 1.945 . S
Zn49 O48 1.923 . S
Zn49 O52 1.933 . S
Zn49 O55 1.941 . S
Zn49 O56 1.965 . S
Zn50 O48 1.950 . S
Zn50 O57 1.938 . S
Zn50 O58 1.906 . S
Zn50 O68 1.953 . S
Zn51 O48 1.945 . S
Zn51 O53 1.932 . S
Zn51 O60 1.977 . S
Zn51 O61 1.910 . S
O52 Zn49 1.933 . S
O52 C63 1.226 . S
O53 Zn51 1.932 . S
O53 C63 1.307 . S
O54 Zn47 1.919 . S
O54 C65 1.253 . S
O55 Zn49 1.941 . S
O55 C65 1.283 . S
O56 Zn49 1.965 . S
O56 C64 1.303 . S
O57 Zn50 1.938 . S
O57 C64 1.247 . S
O58 Zn50 1.906 . S
O58 C66 1.304 . S
O59 Zn47 1.924 . S
O59 C67 1.311 . S
O60 Zn51 1.977 . S
O60 C66 1.272 . S
O61 Zn51 1.910 . S
O61 C67 1.231 . S
C62 O46 1.225 . S
C62 O68 1.298 . S
C63 O52 1.226 . S
C63 O53 1.307 . S
C64 O56 1.303 . S
C64 O57 1.247 . S
C65 O54 1.253 . S
C65 O55 1.283 . S
C66 O58 1.304 . S
C66 O60 1.272 . S
C67 O59 1.311 . S
C67 O61 1.231 . S
O68 Zn50 1.953 . S
O68 C62 1.298 . S
O69 Zn70 1.953 . S
O69 C85 1.225 . S
Zn70 O69 1.953 . S
Zn70 O71 1.949 . S
Zn70 O77 1.919 . S
Zn70 O82 1.924 . S
O71 Zn70 1.949 . S
O71 Zn72 1.923 . S
O71 Zn73 1.950 . S
O71 Zn74 1.945 . S
Zn72 O71 1.923 . S
Zn72 O75 1.933 . S
Zn72 O78 1.941 . S
Zn72 O79 1.965 . S
Zn73 O71 1.950 . S
Zn73 O80 1.938 . S
Zn73 O81 1.906 . S
Zn73 O91 1.953 . S
Zn74 O71 1.945 . S
Zn74 O76 1.932 . S
Zn74 O83 1.977 . S
Zn74 O84 1.910 . S
O75 Zn72 1.933 . S
O75 C86 1.226 . S
O76 Zn74 1.932 . S
O76 C86 1.307 . S
O77 Zn70 1.919 . S
O77 C88 1.253 . S
O78 Zn72 1.941 . S
O78 C88 1.283 . S
O79 Zn72 1.965 . S
O79 C87 1.303 . S
O80 Zn73 1.938 . S
O80 C87 1.247 . S
O81 Zn73 1.906 . S
O81 C89 1.304 . S
O82 Zn70 1.924 . S
O82 C90 1.311 . S
O83 Zn74 1.977 . S
O83 C89 1.272 . S
O84 Zn74 1.910 . S
O84 C90 1.231 . S
C85 O69 1.225 . S
C85 O91 1.298 . S
C86 O75 1.226 . S
C86 O76 1.307 . S
C87 O79 1.303 . S
C87 O80 1.247 . S
C88 O77 1.253 . S
C88 O78 1.283 . S
C89 O81 1.304 . S
C89 O83 1.272 . S
C90 O82 1.311 . S
C90 O84 1.231 . S
O91 Zn73 1.953 . S
O91 C85 1.298 . S
O92 Zn93 1.953 . S
O92 C108 1.225 . S
Zn93 O92 1.953 . S
Zn93 O94 1.949 . S
Zn93 O100 1.919 . S
Zn93 O105 1.924 . S
O94 Zn93 1.949 . S
O94 Zn95 1.923 . S
O94 Zn96 1.950 . S
O94 Zn97 1.945 . S
Zn95 O94 1.923 . S
Zn95 O98 1.933 . S
Zn95 O101 1.941 . S
Zn95 O102 1.965 . S
Zn96 O94 1.950 . S
Zn96 O103 1.938 . S
Zn96 O104 1.906 . S
Zn96 O114 1.953 . S
Zn97 O94 1.945 . S
Zn97 O99 1.932 . S
Zn97 O106 1.977 . S
Zn97 O107 1.910 . S
O98 Zn95 1.933 . S
O98 C109 1.226 . S
O99 Zn97 1.932 . S
O99 C109 1.307 . S
O100 Zn93 1.919 . S
O100 C111 1.253 . S
O101 Zn95 1.941 . S
O101 C111 1.283 . S
O102 Zn95 1.965 . S
O102 C110 1.303 . S
O103 Zn96 1.938 . S
O103 C110 1.247 . S
O104 Zn96 1.906 . S
O104 C112 1.304 . S
O105 Zn93 1.924 . S
O105 C113 1.311 . S
O106 Zn97 1.977 . S
O106 C112 1.272 . S
O107 Zn97 1.910 . S
O107 C113 1.231 . S
C108 O92 1.225 . S
C108 O114 1.298 . S
C109 O98 1.226 . S
C109 O99 1.307 . S
C110 O102 1.303 . S
C110 O103 1.247 . S
C111 O100 1.253 . S
C111 O101 1.283 . S
C112 O104 1.304 . S
C112 O106 1.272 . S
C113 O105 1.311 . S
C113 O107 1.231 . S
O114 Zn96 1.953 . S
O114 C108 1.298 . S
O115 Zn116 1.953 . S
O115 C131 1.225 . S
Zn116 O115 1.953 . S
Zn116 O117 1.949 . S
Zn116 O123 1.919 . S
Zn116 O128 1.924 . S
O117 Zn116 1.949 . S
O117 Zn118 1.923 . S
O117 Zn119 1.950 . S
O117 Zn120 1.945 . S
Zn118 O117 1.923 . S
Zn118 O121 1.933 . S
Zn118 O124 1.941 . S
Zn118 O125 1.965 . S
Zn119 O117 1.950 . S
Zn119 O126 1.938 . S
Zn119 O127 1.906 . S
Zn119 O137 1.953 . S
Zn120 O117 1.945 . S
Zn120 O122 1.932 . S
Zn120 O129 1.977 . S
Zn120 O130 1.910 . S
O121 Zn118 1.933 . S
O121 C132 1.226 . S
O122 Zn120 1.932 . S
O122 C132 1.307 . S
O123 Zn116 1.919 . S
O123 C134 1.253 . S
O124 Zn118 1.941 . S
O124 C134 1.283 . S
O125 Zn118 1.965 . S
O125 C133 1.303 . S
O126 Zn119 1.938 . S
O126 C133 1.247 . S
O127 Zn119 1.906 . S
O127 C135 1.304 . S
O128 Zn116 1.924 . S
O128 C136 1.311 . S
O129 Zn120 1.977 . S
O129 C135 1.272 . S
O130 Zn120 1.910 . S
O130 C136 1.231 . S
C131 O115 1.225 . S
C131 O137 1.298 . S
C132 O121 1.226 . S
C132 O122 1.307 . S
C133 O125 1.303 . S
C133 O126 1.247 . S
C134 O123 1.253 . S
C134 O124 1.283 . S
C135 O127 1.304 . S
C135 O129 1.272 . S
C136 O128 1.311 . S
C136 O130 1.231 . S
O137 Zn119 1.953 . S
O137 C131 1.298 . S
O138 Zn139 1.953 . S
O138 C154 1.225 . S
Zn139 O138 1.953 . S
Zn139 O140 1.949 . S
Zn139 O146 1.919 . S
Zn139 O151 1.924 . S
O140 Zn139 1.949 . S
O140 Zn141 1.923 . S
O140 Zn142 1.950 . S
O140 Zn143 1.945 . S
Zn141 O140 1.923 . S
Zn141 O144 1.933 . S
Zn141 O147 1.941 . S
Zn141 O148 1.965 . S
Zn142 O140 1.950 . S
Zn142 O149 1.938 . S
Zn142 O150 1.906 . S
Zn142 O160 1.953 . S
Zn143 O140 1.945 . S
Zn143 O145 1.932 . S
Zn143 O152 1.977 . S
Zn143 O153 1.910 . S
O144 Zn141 1.933 . S
O144 C155 1.226 . S
O145 Zn143 1.932 . S
O145 C155 1.307 . S
O146 Zn139 1.919 . S
O146 C157 1.253 . S
O147 Zn141 1.941 . S
O147 C157 1.283 . S
O148 Zn141 1.965 . S
O148 C156 1.303 . S
O149 Zn142 1.938 . S
O149 C156 1.247 . S
O150 Zn142 1.906 . S
O150 C158 1.304 . S
O151 Zn139 1.924 . S
O151 C159 1.311 . S
O152 Zn143 1.977 . S
O152 C158 1.272 . S
O153 Zn143 1.910 . S
O153 C159 1.231 . S
C154 O138 1.225 . S
C154 O160 1.298 . S
C155 O144 1.226 . S
C155 O145 1.307 . S
C156 O148 1.303 . S
C156 O149 1.247 . S
C157 O146 1.253 . S
C157 O147 1.283 . S
C158 O150 1.304 . S
C158 O152 1.272 . S
C159 O151 1.311 . S
C159 O153 1.231 . S
O160 Zn142 1.953 . S
O160 C154 1.298 . S
O161 Zn162 1.953 . S
O161 C177 1.225 . S
Zn162 O161 1.953 . S
Zn162 O163 1.949 . S
Zn162 O169 1.919 . S
Zn162 O174 1.924 . S
O163 Zn162 1.949 . S
O163 Zn164 1.923 . S
O163 Zn165 1.950 . S
O163 Zn166 1.945 . S
Zn164 O163 1.923 . S
Zn164 O167 1.933 . S
Zn164 O170 1.941 . S
Zn164 O171 1.965 . S
Zn165 O163 1.950 . S
Zn165 O172 1.938 . S
Zn165 O173 1.906 . S
Zn165 O183 1.953 . S
Zn166 O163 1.945 . S
Zn166 O168 1.932 . S
Zn166 O175 1.977 . S
Zn166 O176 1.910 . S
O167 Zn164 1.933 . S
O167 C178 1.226 . S
O168 Zn166 1.932 . S
O168 C178 1.307 . S
O169 Zn162 1.919 . S
O169 C180 1.253 . S
O170 Zn164 1.941 . S
O170 C180 1.283 . S
O171 Zn164 1.965 . S
O171 C179 1.303 . S
O172 Zn165 1.938 . S
O172 C179 1.247 . S
O173 Zn165 1.906 . S
O173 C181 1.304 . S
O174 Zn162 1.924 . S
O174 C182 1.311 . S
O175 Zn166 1.977 . S
O175 C181 1.272 . S
O176 Zn166 1.910 . S
O176 C182 1.231 . S
C177 O161 1.225 . S
C177 O183 1.298 . S
C178 O167 1.226 . S
C178 O168 1.307 . S
C179 O171 1.303 . S
C179 O172 1.247 . S
C180 O169 1.253 . S
C180 O170 1.283 . S
C181 O173 1.304 . S
C181 O175 1.272 . S
C182 O174 1.311 . S
C182 O176 1.231 . S
O183 Zn165 1.953 . S
O183 C177 1.298 . S
O184 Zn185 1.953 . S
O184 C200 1.225 . S
Zn185 O184 1.953 . S
Zn185 O186 1.949 . S
Zn185 O192 1.919 . S
Zn185 O197 1.924 . S
O186 Zn185 1.949 . S
O186 Zn187 1.923 . S
O186 Zn188 1.950 . S
O186 Zn189 1.945 . S
Zn187 O186 1.923 . S
Zn187 O190 1.933 . S
Zn187 O193 1.941 . S
Zn187 O194 1.965 . S
Zn188 O186 1.950 . S
Zn188 O195 1.938 . S
Zn188 O196 1.906 . S
Zn188 O206 1.953 . S
Zn189 O186 1.945 . S
Zn189 O191 1.932 . S
Zn189 O198 1.977 . S
Zn189 O199 1.910 . S
O190 Zn187 1.933 . S
O190 C201 1.226 . S
O191 Zn189 1.932 . S
O191 C201 1.307 . S
O192 Zn185 1.919 . S
O192 C203 1.253 . S
O193 Zn187 1.941 . S
O193 C203 1.283 . S
O194 Zn187 1.965 . S
O194 C202 1.303 . S
O195 Zn188 1.938 . S
O195 C202 1.247 . S
O196 Zn188 1.906 . S
O196 C204 1.304 . S
O197 Zn185 1.924 . S
O197 C205 1.311 . S
O198 Zn189 1.977 . S
O198 C204 1.272 . S
O199 Zn189 1.910 . S
O199 C205 1.231 . S
C200 O184 1.225 . S
C200 O206 1.298 . S
C201 O190 1.226 . S
C201 O191 1.307 . S
C202 O194 1.303 . S
C202 O195 1.247 . S
C203 O192 1.253 . S
C203 O193 1.283 . S
C204 O196 1.304 . S
C204 O198 1.272 . S
C205 O197 1.311 . S
C205 O199 1.231 . S
O206 Zn188 1.953 . S
O206 C200 1.298 . S
O207 Zn208 1.953 . S
O207 C223 1.225 . S
Zn208 O207 1.953 . S
Zn208 O209 1.949 . S
Zn208 O215 1.919 . S
Zn208 O220 1.924 . S
O209 Zn208 1.949 . S
O209 Zn210 1.923 . S
O209 Zn211 1.950 . S
O209 Zn212 1.945 . S
Zn210 O209 1.923 . S
Zn210 O213 1.933 . S
Zn210 O216 1.941 . S
Zn210 O217 1.965 . S
Zn211 O209 1.950 . S
Zn211 O218 1.938 . S
Zn211 O219 1.906 . S
Zn211 O229 1.953 . S
Zn212 O209 1.945 . S
Zn212 O214 1.932 . S
Zn212 O221 1.977 . S
Zn212 O222 1.910 . S
O213 Zn210 1.933 . S
O213 C224 1.226 . S
O214 Zn212 1.932 . S
O214 C224 1.307 . S
O215 Zn208 1.919 . S
O215 C226 1.253 . S
O216 Zn210 1.941 . S
O216 C226 1.283 . S
O217 Zn210 1.965 . S
O217 C225 1.303 . S
O218 Zn211 1.938 . S
O218 C225 1.247 . S
O219 Zn211 1.906 . S
O219 C227 1.304 . S
O220 Zn208 1.924 . S
O220 C228 1.311 . S
O221 Zn212 1.977 . S
O221 C227 1.272 . S
O222 Zn212 1.910 . S
O222 C228 1.231 . S
C223 O207 1.225 . S
C223 O229 1.298 . S
C224 O213 1.226 . S
C224 O214 1.307 . S
C225 O217 1.303 . S
C225 O218 1.247 . S
C226 O215 1.253 . S
C226 O216 1.283 . S
C227 O219 1.304 . S
C227 O221 1.272 . S
C228 O220 1.311 . S
C228 O222 1.231 . S
O229 Zn211 1.953 . S
O229 C223 1.298 . S
O230 Zn231 1.953 . S
O230 C246 1.225 . S
Zn231 O230 1.953 . S
Zn231 O232 1.949 . S
Zn231 O238 1.919 . S
Zn231 O243 1.924 . S
O232 Zn231 1.949 . S
O232 Zn233 1.923 . S
O232 Zn234 1.950 . S
O232 Zn235 1.945 . S
Zn233 O232 1.923 . S
Zn233 O236 1.933 . S
Zn233 O239 1.941 . S
Zn233 O240 1.965 . S
Zn234 O232 1.950 . S
Zn234 O241 1.938 . S
Zn234 O242 1.906 . S
Zn234 O252 1.953 . S
Zn235 O232 1.945 . S
Zn235 O237 1.932 . S
Zn235 O244 1.977 . S
Zn235 O245 1.910 . S
O236 Zn233 1.933 . S
O236 C247 1.226 . S
O237 Zn235 1.932 . S
O237 C247 1.307 . S
O238 Zn231 1.919 . S
O238 C249 1.253 . S
O239 Zn233 1.941 . S
O239 C249 1.283 . S
O240 Zn233 1.965 . S
O240 C248 1.303 . S
O241 Zn234 1.938 . S
O241 C248 1.247 . S
O242 Zn234 1.906 . S
O242 C250 1.304 . S
O243 Zn231 1.924 . S
O243 C251 1.311 . S
O244 Zn235 1.977 . S
O244 C250 1.272 . S
O245 Zn235 1.910 . S
O245 C251 1.231 . S
C246 O230 1.225 . S
C246 O252 1.298 . S
C247 O236 1.226 . S
C247 O237 1.307 . S
C248 O240 1.303 . S
C248 O241 1.247 . S
C249 O238 1.253 . S
C249 O239 1.283 . S
C250 O242 1.304 . S
C250 O244 1.272 . S
C251 O243 1.311 . S
C251 O245 1.231 . S
O252 Zn234 1.953 . S
O252 C246 1.298 . S
O253 Zn254 1.953 . S
O253 C269 1.225 . S
Zn254 O253 1.953 . S
Zn254 O255 1.949 . S
Zn254 O261 1.919 . S
Zn254 O266 1.924 . S
O255 Zn254 1.949 . S
O255 Zn256 1.923 . S
O255 Zn257 1.950 . S
O255 Zn258 1.945 . S
Zn256 O255 1.923 . S
Zn256 O259 1.933 . S
Zn256 O262 1.941 . S
Zn256 O263 1.965 . S
Zn257 O255 1.950 . S
Zn257 O264 1.938 . S
Zn257 O265 1.906 . S
Zn257 O275 1.953 . S
Zn258 O255 1.945 . S
Zn258 O260 1.932 . S
Zn258 O267 1.977 . S
Zn258 O268 1.910 . S
O259 Zn256 1.933 . S
O259 C270 1.226 . S
O260 Zn258 1.932 . S
O260 C270 1.307 . S
O261 Zn254 1.919 . S
O261 C272 1.253 . S
O262 Zn256 1.941 . S
O262 C272 1.283 . S
O263 Zn256 1.965 . S
O263 C271 1.303 . S
O264 Zn257 1.938 . S
O264 C271 1.247 . S
O265 Zn257 1.906 . S
O265 C273 1.304 . S
O266 Zn254 1.924 . S
O266 C274 1.311 . S
O267 Zn258 1.977 . S
O267 C273 1.272 . S
O268 Zn258 1.910 . S
O268 C274 1.231 . S
C269 O253 1.225 . S
C269 O275 1.298 . S
C270 O259 1.226 . S
C270 O260 1.307 . S
C271 O263 1.303 . S
C271 O264 1.247 . S
C272 O261 1.253 . S
C272 O262 1.283 . S
C273 O265 1.304 . S
C273 O267 1.272 . S
C274 O266 1.311 . S
C274 O268 1.231 . S
O275 Zn257 1.953 . S
O275 C269 1.298 . S
O276 Zn277 1.953 . S
O276 C292 1.225 . S
Zn277 O276 1.953 . S
Zn277 O278 1.949 . S
Zn277 O284 1.919 . S
Zn277 O289 1.924 . S
O278 Zn277 1.949 . S
O278 Zn279 1.923 . S
O278 Zn280 1.950 . S
O278 Zn281 1.945 . S
Zn279 O278 1.923 . S
Zn279 O282 1.933 . S
Zn279 O285 1.941 . S
Zn279 O286 1.965 . S
Zn280 O278 1.950 . S
Zn280 O287 1.938 . S
Zn280 O288 1.906 . S
Zn280 O298 1.953 . S
Zn281 O278 1.945 . S
Zn281 O283 1.932 . S
Zn281 O290 1.977 . S
Zn281 O291 1.910 . S
O282 Zn279 1.933 . S
O282 C293 1.226 . S
O283 Zn281 1.932 . S
O283 C293 1.307 . S
O284 Zn277 1.919 . S
O284 C295 1.253 . S
O285 Zn279 1.941 . S
O285 C295 1.283 . S
O286 Zn279 1.965 . S
O286 C294 1.303 . S
O287 Zn280 1.938 . S
O287 C294 1.247 . S
O288 Zn280 1.906 . S
O288 C296 1.304 . S
O289 Zn277 1.924 . S
O289 C297 1.311 . S
O290 Zn281 1.977 . S
O290 C296 1.272 . S
O291 Zn281 1.910 . S
O291 C297 1.231 . S
C292 O276 1.225 . S
C292 O298 1.298 . S
C293 O282 1.226 . S
C293 O283 1.307 . S
C294 O286 1.303 . S
C294 O287 1.247 . S
C295 O284 1.253 . S
C295 O285 1.283 . S
C296 O288 1.304 . S
C296 O290 1.272 . S
C297 O289 1.311 . S
C297 O291 1.231 . S
O298 Zn280 1.953 . S
O298 C292 1.298 . S
O299 Zn300 1.953 . S
O299 C315 1.225 . S
Zn300 O299 1.953 . S
Zn300 O301 1.949 . S
Zn300 O307 1.919 . S
Zn300 O312 1.924 . S
O301 Zn300 1.949 . S
O301 Zn302 1.923 . S
O301 Zn303 1.950 . S
O301 Zn304 1.945 . S
Zn302 O301 1.923 . S
Zn302 O305 1.933 . S
Zn302 O308 1.941 . S
Zn302 O309 1.965 . S
Zn303 O301 1.950 . S
Zn303 O310 1.938 . S
Zn303 O311 1.906 . S
Zn303 O321 1.953 . S
Zn304 O301 1.945 . S
Zn304 O306 1.932 . S
Zn304 O313 1.977 . S
Zn304 O314 1.910 . S
O305 Zn302 1.933 . S
O305 C316 1.226 . S
O306 Zn304 1.932 . S
O306 C316 1.307 . S
O307 Zn300 1.919 . S
O307 C318 1.253 . S
O308 Zn302 1.941 . S
O308 C318 1.283 . S
O309 Zn302 1.965 . S
O309 C317 1.303 . S
O310 Zn303 1.938 . S
O310 C317 1.247 . S
O311 Zn303 1.906 . S
O311 C319 1.304 . S
O312 Zn300 1.924 . S
O312 C320 1.311 . S
O313 Zn304 1.977 . S
O313 C319 1.272 . S
O314 Zn304 1.910 . S
O314 C320 1.231 . S
C315 O299 1.225 . S
C315 O321 1.298 . S
C316 O305 1.226 . S
C316 O306 1.307 . S
C317 O309 1.303 . S
C317 O310 1.247 . S
C318 O307 1.253 . S
C318 O308 1.283 . S
C319 O311 1.304 . S
C319 O313 1.272 . S
C320 O312 1.311 . S
C320 O314 1.231 . S
O321 Zn303 1.953 . S
O321 C315 1.298 . S
O322 Zn323 1.953 . S
O322 C338 1.225 . S
Zn323 O322 1.953 . S
Zn323 O324 1.949 . S
Zn323 O330 1.919 . S
Zn323 O335 1.924 . S
O324 Zn323 1.949 . S
O324 Zn325 1.923 . S
O324 Zn326 1.950 . S
O324 Zn327 1.945 . S
Zn325 O324 1.923 . S
Zn325 O328 1.933 . S
Zn325 O331 1.941 . S
Zn325 O332 1.965 . S
Zn326 O324 1.950 . S
Zn326 O333 1.938 . S
Zn326 O334 1.906 . S
Zn326 O344 1.953 . S
Zn327 O324 1.945 . S
Zn327 O329 1.932 . S
Zn327 O336 1.977 . S
Zn327 O337 1.910 . S
O328 Zn325 1.933 . S
O328 C339 1.226 . S
O329 Zn327 1.932 . S
O329 C339 1.307 . S
O330 Zn323 1.919 . S
O330 C341 1.253 . S
O331 Zn325 1.941 . S
O331 C341 1.283 . S
O332 Zn325 1.965 . S
O332 C340 1.303 . S
O333 Zn326 1.938 . S
O333 C340 1.247 . S
O334 Zn326 1.906 . S
O334 C342 1.304 . S
O335 Zn323 1.924 . S
O335 C343 1.311 . S
O336 Zn327 1.977 . S
O336 C342 1.272 . S
O337 Zn327 1.910 . S
O337 C343 1.231 . S
C338 O322 1.225 . S
C338 O344 1.298 . S
C339 O328 1.226 . S
C339 O329 1.307 . S
C340 O332 1.303 . S
C340 O333 1.247 . S
C341 O330 1.253 . S
C341 O331 1.283 . S
C342 O334 1.304 . S
C342 O336 1.272 . S
C343 O335 1.311 . S
C343 O337 1.231 . S
O344 Zn326 1.953 . S
O344 C338 1.298 . S
O345 Zn346 1.953 . S
O345 C361 1.225 . S
Zn346 O345 1.953 . S
Zn346 O347 1.949 . S
Zn346 O353 1.919 . S
Zn346 O358 1.924 . S
O347 Zn346 1.949 . S
O347 Zn348 1.923 . S
O347 Zn349 1.950 . S
O347 Zn350 1.945 . S
Zn348 O347 1.923 . S
Zn348 O351 1.933 . S
Zn348 O354 1.941 . S
Zn348 O355 1.965 . S
Zn349 O347 1.950 . S
Zn349 O356 1.938 . S
Zn349 O357 1.906 . S
Zn349 O367 1.953 . S
Zn350 O347 1.945 . S
Zn350 O352 1.932 . S
Zn350 O359 1.977 . S
Zn350 O360 1.910 . S
O351 Zn348 1.933 . S
O351 C362 1.226 . S
O352 Zn350 1.932 . S
O352 C362 1.307 . S
O353 Zn346 1.919 . S
O353 C364 1.253 . S
O354 Zn348 1.941 . S
O354 C364 1.283 . S
O355 Zn348 1.965 . S
O355 C363 1.303 . S
O356 Zn349 1.938 . S
O356 C363 1.247 . S
O357 Zn349 1.906 . S
O357 C365 1.304 . S
O358 Zn346 1.924 . S
O358 C366 1.311 . S
O359 Zn350 1.977 . S
O359 C365 1.272 . S
O360 Zn350 1.910 . S
O360 C366 1.231 . S
C361 O345 1.225 . S
C361 O367 1.298 . S
C362 O351 1.226 . S
C362 O352 1.307 . S
C363 O355 1.303 . S
C363 O356 1.247 . S
C364 O353 1.253 . S
C364 O354 1.283 . S
C365 O357 1.304 . S
C365 O359 1.272 . S
C366 O358 1.311 . S
C366 O360 1.231 . S
O367 Zn349 1.953 . S
O367 C361 1.298 . S
O368 Zn369 1.953 . S
O368 C384 1.225 . S
Zn369 O368 1.953 . S
Zn369 O370 1.949 . S
Zn369 O376 1.919 . S
Zn369 O381 1.924 . S
O370 Zn369 1.949 . S
O370 Zn371 1.923 . S
O370 Zn372 1.950 . S
O370 Zn373 1.945 . S
Zn371 O370 1.923 . S
Zn371 O374 1.933 . S
Zn371 O377 1.941 . S
Zn371 O378 1.965 . S
Zn372 O370 1.950 . S
Zn372 O379 1.938 . S
Zn372 O380 1.906 . S
Zn372 O390 1.953 . S
Zn373 O370 1.945 . S
Zn373 O375 1.932 . S
Zn373 O382 1.977 . S
Zn373 O383 1.910 . S
O374 Zn371 1.933 . S
O374 C385 1.226 . S
O375 Zn373 1.932 . S
O375 C385 1.307 . S
O376 Zn369 1.919 . S
O376 C387 1.253 . S
O377 Zn371 1.941 . S
O377 C387 1.283 . S
O378 Zn371 1.965 . S
O378 C386 1.303 . S
O379 Zn372 1.938 . S
O379 C386 1.247 . S
O380 Zn372 1.906 . S
O380 C388 1.304 . S
O381 Zn369 1.924 . S
O381 C389 1.311 . S
O382 Zn373 1.977 . S
O382 C388 1.272 . S
O383 Zn373 1.910 . S
O383 C389 1.231 . S
C384 O368 1.225 . S
C384 O390 1.298 . S
C385 O374 1.226 . S
C385 O375 1.307 . S
C386 O378 1.303 . S
C386 O379 1.247 . S
C387 O376 1.253 . S
C387 O377 1.283 . S
C388 O380 1.304 . S
C388 O382 1.272 . S
C389 O381 1.311 . S
C389 O383 1.231 . S
O390 Zn372 1.953 . S
O390 C384 1.298 . S
O391 Zn392 1.953 . S
O391 C407 1.225 . S
Zn392 O391 1.953 . S
Zn392 O393 1.949 . S
Zn392 O399 1.919 . S
Zn392 O404 1.924 . S
O393 Zn392 1.949 . S
O393 Zn394 1.923 . S
O393 Zn395 1.950 . S
O393 Zn396 1.945 . S
Zn394 O393 1.923 . S
Zn394 O397 1.933 . S
Zn394 O400 1.941 . S
Zn394 O401 1.965 . S
Zn395 O393 1.950 . S
Zn395 O402 1.938 . S
Zn395 O403 1.906 . S
Zn395 O413 1.953 . S
Zn396 O393 1.945 . S
Zn396 O398 1.932 . S
Zn396 O405 1.977 . S
Zn396 O406 1.910 . S
O397 Zn394 1.933 . S
O397 C408 1.226 . S
O398 Zn396 1.932 . S
O398 C408 1.307 . S
O399 Zn392 1.919 . S
O399 C410 1.253 . S
O400 Zn394 1.941 . S
O400 C410 1.283 . S
O401 Zn394 1.965 . S
O401 C409 1.303 . S
O402 Zn395 1.938 . S
O402 C409 1.247 . S
O403 Zn395 1.906 . S
O403 C411 1.304 . S
O404 Zn392 1.924 . S
O404 C412 1.311 . S
O405 Zn396 1.977 . S
O405 C411 1.272 . S
O406 Zn396 1.910 . S
O406 C412 1.231 . S
C407 O391 1.225 . S
C407 O413 1.298 . S
C408 O397 1.226 . S
C408 O398 1.307 . S
C409 O401 1.303 . S
C409 O402 1.247 . S
C410 O399 1.253 . S
C410 O400 1.283 . S
C411 O403 1.304 . S
C411 O405 1.272 . S
C412 O404 1.311 . S
C412 O406 1.231 . S
O413 Zn395 1.953 . S
O413 C407 1.298 . S
O414 Zn415 1.953 . S
O414 C430 1.225 . S
Zn415 O414 1.953 . S
Zn415 O416 1.949 . S
Zn415 O422 1.919 . S
Zn415 O427 1.924 . S
O416 Zn415 1.949 . S
O416 Zn417 1.923 . S
O416 Zn418 1.950 . S
O416 Zn419 1.945 . S
Zn417 O416 1.923 . S
Zn417 O420 1.933 . S
Zn417 O423 1.941 . S
Zn417 O424 1.965 . S
Zn418 O416 1.950 . S
Zn418 O425 1.938 . S
Zn418 O426 1.906 . S
Zn418 O436 1.953 . S
Zn419 O416 1.945 . S
Zn419 O421 1.932 . S
Zn419 O428 1.977 . S
Zn419 O429 1.910 . S
O420 Zn417 1.933 . S
O420 C431 1.226 . S
O421 Zn419 1.932 . S
O421 C431 1.307 . S
O422 Zn415 1.919 . S
O422 C433 1.253 . S
O423 Zn417 1.941 . S
O423 C433 1.283 . S
O424 Zn417 1.965 . S
O424 C432 1.303 . S
O425 Zn418 1.938 . S
O425 C432 1.247 . S
O426 Zn418 1.906 . S
O426 C434 1.304 . S
O427 Zn415 1.924 . S
O427 C435 1.311 . S
O428 Zn419 1.977 . S
O428 C434 1.272 . S
O429 Zn419 1.910 . S
O429 C435 1.231 . S
C430 O414 1.225 . S
C430 O436 1.298 . S
C431 O420 1.226 . S
C431 O421 1.307 . S
C432 O424 1.303 . S
C432 O425 1.247 . S
C433 O422 1.253 . S
C433 O423 1.283 . S
C434 O426 1.304 . S
C434 O428 1.272 . S
C435 O427 1.311 . S
C435 O429 1.231 . S
O436 Zn418 1.953 . S
O436 C430 1.298 . S
O437 Zn438 1.953 . S
O437 C453 1.225 . S
Zn438 O437 1.953 . S
Zn438 O439 1.949 . S
Zn438 O445 1.919 . S
Zn438 O450 1.924 . S
O439 Zn438 1.949 . S
O439 Zn440 1.923 . S
O439 Zn441 1.950 . S
O439 Zn442 1.945 . S
Zn440 O439 1.923 . S
Zn440 O443 1.933 . S
Zn440 O446 1.941 . S
Zn440 O447 1.965 . S
Zn441 O439 1.950 . S
Zn441 O448 1.938 . S
Zn441 O449 1.906 . S
Zn441 O459 1.953 . S
Zn442 O439 1.945 . S
Zn442 O444 1.932 . S
Zn442 O451 1.977 . S
Zn442 O452 1.910 . S
O443 Zn440 1.933 . S
O443 C454 1.226 . S
O444 Zn442 1.932 . S
O444 C454 1.307 . S
O445 Zn438 1.919 . S
O445 C456 1.253 . S
O446 Zn440 1.941 . S
O446 C456 1.283 . S
O447 Zn440 1.965 . S
O447 C455 1.303 . S
O448 Zn441 1.938 . S
O448 C455 1.247 . S
O449 Zn441 1.906 . S
O449 C457 1.304 . S
O450 Zn438 1.924 . S
O450 C458 1.311 . S
O451 Zn442 1.977 . S
O451 C457 1.272 . S
O452 Zn442 1.910 . S
O452 C458 1.231 . S
C453 O437 1.225 . S
C453 O459 1.298 . S
C454 O443 1.226 . S
C454 O444 1.307 . S
C455 O447 1.303 . S
C455 O448 1.247 . S
C456 O445 1.253 . S
C456 O446 1.283 . S
C457 O449 1.304 . S
C457 O451 1.272 . S
C458 O450 1.311 . S
C458 O452 1.231 . S
O459 Zn441 1.953 . S
O459 C453 1.298 . S
O460 Zn461 1.953 . S
O460 C476 1.225 . S
Zn461 O460 1.953 . S
Zn461 O462 1.949 . S
Zn461 O468 1.919 . S
Zn461 O473 1.924 . S
O462 Zn461 1.949 . S
O462 Zn463 1.923 . S
O462 Zn464 1.950 . S
O462 Zn465 1.945 . S
Zn463 O462 1.923 . S
Zn463 O466 1.933 . S
Zn463 O469 1.941 . S
Zn463 O470 1.965 . S
Zn464 O462 1.950 . S
Zn464 O471 1.938 . S
Zn464 O472 1.906 . S
Zn464 O482 1.953 . S
Zn465 O462 1.945 . S
Zn465 O467 1.932 . S
Zn465 O474 1.977 . S
Zn465 O475 1.910 . S
O466 Zn463 1.933 . S
O466 C477 1.226 . S
O467 Zn465 1.932 . S
O467 C477 1.307 . S
O468 Zn461 1.919 . S
O468 C479 1.253 . S
O469 Zn463 1.941 . S
O469 C479 1.283 . S
O470 Zn463 1.965 . S
O470 C478 1.303 . S
O471 Zn464 1.938 . S
O471 C478 1.247 . S
O472 Zn464 1.906 . S
O472 C480 1.304 . S
O473 Zn461 1.924 . S
O473 C481 1.311 . S
O474 Zn465 1.977 . S
O474 C480 1.272 . S
O475 Zn465 1.910 . S
O475 C481 1.231 . S
C476 O460 1.225 . S
C476 O482 1.298 . S
C477 O466 1.226 . S
C477 O467 1.307 . S
C478 O470 1.303 . S
C478 O471 1.247 . S
C479 O468 1.253 . S
C479 O469 1.283 . S
C480 O472 1.304 . S
C480 O474 1.272 . S
C481 O473 1.311 . S
C481 O475 1.231 . S
O482 Zn464 1.953 . S
O482 C476 1.298 . S
O483 Zn484 1.953 . S
O483 C499 1.225 . S
Zn484 O483 1.953 . S
Zn484 O485 1.949 . S
Zn484 O491 1.919 . S
Zn484 O496 1.924 . S
O485 Zn484 1.949 . S
O485 Zn486 1.923 . S
O485 Zn487 1.950 . S
O485 Zn488 1.945 . S
Zn486 O485 1.923 . S
Zn486 O489 1.933 . S
Zn486 O492 1.941 . S
Zn486 O493 1.965 . S
Zn487 O485 1.950 . S
Zn487 O494 1.938 . S
Zn487 O495 1.906 . S
Zn487 O505 1.953 . S
Zn488 O485 1.945 . S
Zn488 O490 1.932 . S
Zn488 O497 1.977 . S
Zn488 O498 1.910 . S
O489 Zn486 1.933 . S
O489 C500 1.226 . S
O490 Zn488 1.932 . S
O490 C500 1.307 . S
O491 Zn484 1.919 . S
O491 C502 1.253 . S
O492 Zn486 1.941 . S
O492 C502 1.283 . S
O493 Zn486 1.965 . S
O493 C501 1.303 . S
O494 Zn487 1.938 . S
O494 C501 1.247 . S
O495 Zn487 1.906 . S
O495 C503 1.304 . S
O496 Zn484 1.924 . S
O496 C504 1.311 . S
O497 Zn488 1.977 . S
O497 C503 1.272 . S
O498 Zn488 1.910 . S
O498 C504 1.231 . S
C499 O483 1.225 . S
C499 O505 1.298 . S
C500 O489 1.226 . S
C500 O490 1.307 . S
C501 O493 1.303 . S
C501 O494 1.247 . S
C502 O491 1.253 . S
C502 O492 1.283 . S
C503 O495 1.304 . S
C503 O497 1.272 . S
C504 O496 1.311 . S
C504 O498 1.231 . S
O505 Zn487 1.953 . S
O505 C499 1.298 . S
O506 Zn507 1.953 . S
O506 C522 1.225 . S
Zn507 O506 1.953 . S
Zn507 O508 1.949 . S
Zn507 O514 1.919 . S
Zn507 O519 1.924 . S
O508 Zn507 1.949 . S
O508 Zn509 1.923 . S
O508 Zn510 1.950 . S
O508 Zn511 1.945 . S
Zn509 O508 1.923 . S
Zn509 O512 1.933 . S
Zn509 O515 1.941 . S
Zn509 O516 1.965 . S
Zn510 O508 1.950 . S
Zn510 O517 1.938 . S
Zn510 O518 1.906 . S
Zn510 O528 1.953 . S
Zn511 O508 1.945 . S
Zn511 O513 1.932 . S
Zn511 O520 1.977 . S
Zn511 O521 1.910 . S
O512 Zn509 1.933 . S
O512 C523 1.226 . S
O513 Zn511 1.932 . S
O513 C523 1.307 . S
O514 Zn507 1.919 . S
O514 C525 1.253 . S
O515 Zn509 1.941 . S
O515 C525 1.283 . S
O516 Zn509 1.965 . S
O516 C524 1.303 . S
O517 Zn510 1.938 . S
O517 C524 1.247 . S
O518 Zn510 1.906 . S
O518 C526 1.304 . S
O519 Zn507 1.924 . S
O519 C527 1.311 . S
O520 Zn511 1.977 . S
O520 C526 1.272 . S
O521 Zn511 1.910 . S
O521 C527 1.231 . S
C522 O506 1.225 . S
C522 O528 1.298 . S
C523 O512 1.226 . S
C523 O513 1.307 . S
C524 O516 1.303 . S
C524 O517 1.247 . S
C525 O514 1.253 . S
C525 O515 1.283 . S
C526 O518 1.304 . S
C526 O520 1.272 . S
C527 O519 1.311 . S
C527 O521 1.231 . S
O528 Zn510 1.953 . S
O528 C522 1.298 . S
O529 Zn530 1.953 . S
O529 C545 1.225 . S
Zn530 O529 1.953 . S
Zn530 O531 1.949 . S
Zn530 O537 1.919 . S
Zn530 O542 1.924 . S
O531 Zn530 1.949 . S
O531 Zn532 1.923 . S
O531 Zn533 1.950 . S
O531 Zn534 1.945 . S
Zn532 O531 1.923 . S
Zn532 O535 1.933 . S
Zn532 O538 1.941 . S
Zn532 O539 1.965 . S
Zn533 O531 1.950 . S
Zn533 O540 1.938 . S
Zn533 O541 1.906 . S
Zn533 O551 1.953 . S
Zn534 O531 1.945 . S
Zn534 O536 1.932 . S
Zn534 O543 1.977 . S
Zn534 O544 1.910 . S
O535 Zn532 1.933 . S
O535 C546 1.226 . S
O536 Zn534 1.932 . S
O536 C546 1.307 . S
O537 Zn530 1.919 . S
O537 C548 1.253 . S
O538 Zn532 1.941 . S
O538 C548 1.283 . S
O539 Zn532 1.965 . S
O539 C547 1.303 . S
O540 Zn533 1.938 . S
O540 C547 1.247 . S
O541 Zn533 1.906 . S
O541 C549 1.304 . S
O542 Zn530 1.924 . S
O542 C550 1.311 . S
O543 Zn534 1.977 . S
O543 C549 1.272 . S
O544 Zn534 1.910 . S
O544 C550 1.231 . S
C545 O529 1.225 . S
C545 O551 1.298 . S
C546 O535 1.226 . S
C546 O536 1.307 . S
C547 O539 1.303 . S
C547 O540 1.247 . S
C548 O537 1.253 . S
C548 O538 1.283 . S
C549 O541 1.304 . S
C549 O543 1.272 . S
C550 O542 1.311 . S
C550 O544 1.231 . S
O551 Zn533 1.953 . S
O551 C545 1.298 . S
C552 C553 1.349 . S
C552 C554 1.327 . S
C552 H577 0.950 . S
C553 C552 1.349 . S
C553 C569 1.349 . S
C554 C552 1.327 . S
C554 C573 1.429 . S
C554 H578 0.950 . S
C555 C572 1.574 . S
C555 C574 1.368 . S
C555 H579 0.949 . S
H556 C560 0.949 . S
C557 C558 1.349 . S
C557 C559 1.327 . S
C557 H580 0.950 . S
C558 C557 1.349 . S
C558 C570 1.349 . S
C559 C557 1.327 . S
C559 C575 1.429 . S
C559 H581 0.950 . S
C560 H556 0.949 . S
C560 C568 1.574 . S
C560 C576 1.368 . S
H561 C569 0.950 . S
H562 C567 0.950 . S
H563 C568 0.949 . S
H564 C570 0.950 . S
H565 C571 0.950 . S
H566 C572 0.949 . S
C567 H562 0.950 . S
C567 C569 1.327 . S
C567 C573 1.429 . S
C568 C560 1.574 . S
C568 H563 0.949 . S
C568 C574 1.368 . S
C569 C553 1.349 . S
C569 H561 0.950 . S
C569 C567 1.327 . S
C570 C558 1.349 . S
C570 H564 0.950 . S
C570 C571 1.327 . S
C571 H565 0.950 . S
C571 C570 1.327 . S
C571 C575 1.429 . S
C572 C555 1.574 . S
C572 H566 0.949 . S
C572 C576 1.368 . S
C573 C554 1.429 . S
C573 C567 1.429 . S
C573 C574 1.523 . S
C574 C555 1.368 . S
C574 C568 1.368 . S
C574 C573 1.523 . S
C575 C559 1.429 . S
C575 C571 1.429 . S
C575 C576 1.523 . S
C576 C560 1.368 . S
C576 C572 1.368 . S
C576 C575 1.523 . S
H577 C552 0.950 . S
H578 C554 0.950 . S
H579 C555 0.949 . S
H580 C557 0.950 . S
H581 C559 0.950 . S
C582 C583 1.349 . S
C582 C584 1.327 . S
C582 H607 0.950 . S
C583 C582 1.349 . S
C583 C599 1.349 . S
C584 C582 1.327 . S
C584 C603 1.429 . S
C584 H608 0.950 . S
C585 C602 1.574 . S
C585 C604 1.368 . S
C585 H609 0.949 . S
H586 C590 0.949 . S
C587 C588 1.349 . S
C587 C589 1.327 . S
C587 H610 0.950 . S
C588 C587 1.349 . S
C588 C600 1.349 . S
C589 C587 1.327 . S
C589 C605 1.429 . S
C589 H611 0.950 . S
C590 H586 0.949 . S
C590 C598 1.574 . S
C590 C606 1.368 . S
H591 C599 0.950 . S
H592 C597 0.950 . S
H593 C598 0.949 . S
H594 C600 0.950 . S
H595 C601 0.950 . S
H596 C602 0.949 . S
C597 H592 0.950 . S
C597 C599 1.327 . S
C597 C603 1.429 . S
C598 C590 1.574 . S
C598 H593 0.949 . S
C598 C604 1.368 . S
C599 C583 1.349 . S
C599 H591 0.950 . S
C599 C597 1.327 . S
C600 C588 1.349 . S
C600 H594 0.950 . S
C600 C601 1.327 . S
C601 H595 0.950 . S
C601 C600 1.327 . S
C601 C605 1.429 . S
C602 C585 1.574 . S
C602 H596 0.949 . S
C602 C606 1.368 . S
C603 C584 1.429 . S
C603 C597 1.429 . S
C603 C604 1.523 . S
C604 C585 1.368 . S
C604 C598 1.368 . S
C604 C603 1.523 . S
C605 C589 1.429 . S
C605 C601 1.429 . S
C605 C606 1.523 . S
C606 C590 1.368 . S
C606 C602 1.368 . S
C606 C605 1.523 . S
H607 C582 0.950 . S
H608 C584 0.950 . S
H609 C585 0.949 . S
H610 C587 0.950 . S
H611 C589 0.950 . S
C612 C613 1.349 . S
C612 C614 1.327 . S
C612 H637 0.950 . S
C613 C612 1.349 . S
C613 C629 1.349 . S
C614 C612 1.327 . S
C614 C633 1.429 . S
C614 H638 0.950 . S
C615 C632 1.574 . S
C615 C634 1.368 . S
C615 H639 0.949 . S
H616 C620 0.949 . S
C617 C618 1.349 . S
C617 C619 1.327 . S
C617 H640 0.950 . S
C618 C617 1.349 . S
C618 C630 1.349 . S
C619 C617 1.327 . S
C619 C635 1.429 . S
C619 H641 0.950 . S
C620 H616 0.949 . S
C620 C628 1.574 . S
C620 C636 1.368 . S
H621 C629 0.950 . S
H622 C627 0.950 . S
H623 C628 0.949 . S
H624 C630 0.950 . S
H625 C631 0.950 . S
H626 C632 0.949 . S
C627 H622 0.950 . S
C627 C629 1.327 . S
C627 C633 1.429 . S
C628 C620 1.574 . S
C628 H623 0.949 . S
C628 C634 1.368 . S
C629 C613 1.349 . S
C629 H621 0.950 . S
C629 C627 1.327 . S
C630 C618 1.349 . S
C630 H624 0.950 . S
C630 C631 1.327 . S
C631 H625 0.950 . S
C631 C630 1.327 . S
C631 C635 1.429 . S
C632 C615 1.574 . S
C632 H626 0.949 . S
C632 C636 1.368 . S
C633 C614 1.429 . S
C633 C627 1.429 . S
C633 C634 1.523 . S
C634 C615 1.368 . S
C634 C628 1.368 . S
C634 C633 1.523 . S
C635 C619 1.429 . S
C635 C631 1.429 . S
C635 C636 1.523 . S
C636 C620 1.368 . S
C636 C632 1.368 . S
C636 C635 1.523 . S
H637 C612 0.950 . S
H638 C614 0.950 . S
H639 C615 0.949 . S
H640 C617 0.950 . S
H641 C619 0.950 . S
C642 C643 1.349 . S
C642 C644 1.327 . S
C642 H667 0.950 . S
C643 C642 1.349 . S
C643 C659 1.349 . S
C644 C642 1.327 . S
C644 C663 1.429 . S
C644 H668 0.950 . S
C645 C662 1.574 . S
C645 C664 1.368 . S
C645 H669 0.949 . S
H646 C650 0.949 . S
C647 C648 1.349 . S
C647 C649 1.327 . S
C647 H670 0.950 . S
C648 C647 1.349 . S
C648 C660 1.349 . S
C649 C647 1.327 . S
C649 C665 1.429 . S
C649 H671 0.950 . S
C650 H646 0.949 . S
C650 C658 1.574 . S
C650 C666 1.368 . S
H651 C659 0.950 . S
H652 C657 0.950 . S
H653 C658 0.949 . S
H654 C660 0.950 . S
H655 C661 0.950 . S
H656 C662 0.949 . S
C657 H652 0.950 . S
C657 C659 1.327 . S
C657 C663 1.429 . S
C658 C650 1.574 . S
C658 H653 0.949 . S
C658 C664 1.368 . S
C659 C643 1.349 . S
C659 H651 0.950 . S
C659 C657 1.327 . S
C660 C648 1.349 . S
C660 H654 0.950 . S
C660 C661 1.327 . S
C661 H655 0.950 . S
C661 C660 1.327 . S
C661 C665 1.429 . S
C662 C645 1.574 . S
C662 H656 0.949 . S
C662 C666 1.368 . S
C663 C644 1.429 . S
C663 C657 1.429 . S
C663 C664 1.523 . S
C664 C645 1.368 . S
C664 C658 1.368 . S
C664 C663 1.523 . S
C665 C649 1.429 . S
C665 C661 1.429 . S
C665 C666 1.523 . S
C666 C650 1.368 . S
C666 C662 1.368 . S
C666 C665 1.523 . S
H667 C642 0.950 . S
H668 C644 0.950 . S
H669 C645 0.949 . S
H670 C647 0.950 . S
H671 C649 0.950 . S
C672 C673 1.349 . S
C672 C674 1.327 . S
C672 H697 0.950 . S
C673 C672 1.349 . S
C673 C689 1.349 . S
C674 C672 1.327 . S
C674 C693 1.429 . S
C674 H698 0.950 . S
C675 C692 1.574 . S
C675 C694 1.368 . S
C675 H699 0.949 . S
H676 C680 0.949 . S
C677 C678 1.349 . S
C677 C679 1.327 . S
C677 H700 0.950 . S
C678 C677 1.349 . S
C678 C690 1.349 . S
C679 C677 1.327 . S
C679 C695 1.429 . S
C679 H701 0.950 . S
C680 H676 0.949 . S
C680 C688 1.574 . S
C680 C696 1.368 . S
H681 C689 0.950 . S
H682 C687 0.950 . S
H683 C688 0.949 . S
H684 C690 0.950 . S
H685 C691 0.950 . S
H686 C692 0.949 . S
C687 H682 0.950 . S
C687 C689 1.327 . S
C687 C693 1.429 . S
C688 C680 1.574 . S
C688 H683 0.949 . S
C688 C694 1.368 . S
C689 C673 1.349 . S
C689 H681 0.950 . S
C689 C687 1.327 . S
C690 C678 1.349 . S
C690 H684 0.950 . S
C690 C691 1.327 . S
C691 H685 0.950 . S
C691 C690 1.327 . S
C691 C695 1.429 . S
C692 C675 1.574 . S
C692 H686 0.949 . S
C692 C696 1.368 . S
C693 C674 1.429 . S
C693 C687 1.429 . S
C693 C694 1.523 . S
C694 C675 1.368 . S
C694 C688 1.368 . S
C694 C693 1.523 . S
C695 C679 1.429 . S
C695 C691 1.429 . S
C695 C696 1.523 . S
C696 C680 1.368 . S
C696 C692 1.368 . S
C696 C695 1.523 . S
H697 C672 0.950 . S
H698 C674 0.950 . S
H699 C675 0.949 . S
H700 C677 0.950 . S
H701 C679 0.950 . S
C702 C703 1.349 . S
C702 C704 1.327 . S
C702 H727 0.950 . S
C703 C702 1.349 . S
C703 C719 1.349 . S
C704 C702 1.327 . S
C704 C723 1.429 . S
C704 H728 0.950 . S
C705 C722 1.574 . S
C705 C724 1.368 . S
C705 H729 0.949 . S
H706 C710 0.949 . S
C707 C708 1.349 . S
C707 C709 1.327 . S
C707 H730 0.950 . S
C708 C707 1.349 . S
C708 C720 1.349 . S
C709 C707 1.327 . S
C709 C725 1.429 . S
C709 H731 0.950 . S
C710 H706 0.949 . S
C710 C718 1.574 . S
C710 C726 1.368 . S
H711 C719 0.950 . S
H712 C717 0.950 . S
H713 C718 0.949 . S
H714 C720 0.950 . S
H715 C721 0.950 . S
H716 C722 0.949 . S
C717 H712 0.950 . S
C717 C719 1.327 . S
C717 C723 1.429 . S
C718 C710 1.574 . S
C718 H713 0.949 . S
C718 C724 1.368 . S
C719 C703 1.349 . S
C719 H711 0.950 . S
C719 C717 1.327 . S
C720 C708 1.349 . S
C720 H714 0.950 . S
C720 C721 1.327 . S
C721 H715 0.950 . S
C721 C720 1.327 . S
C721 C725 1.429 . S
C722 C705 1.574 . S
C722 H716 0.949 . S
C722 C726 1.368 . S
C723 C704 1.429 . S
C723 C717 1.429 . S
C723 C724 1.523 . S
C724 C705 1.368 . S
C724 C718 1.368 . S
C724 C723 1.523 . S
C725 C709 1.429 . S
C725 C721 1.429 . S
C725 C726 1.523 . S
C726 C710 1.368 . S
C726 C722 1.368 . S
C726 C725 1.523 . S
H727 C702 0.950 . S
H728 C704 0.950 . S
H729 C705 0.949 . S
H730 C707 0.950 . S
H731 C709 0.950 . S
C732 C733 1.349 . S
C732 C734 1.327 . S
C732 H757 0.950 . S
C733 C732 1.349 . S
C733 C749 1.349 . S
C734 C732 1.327 . S
C734 C753 1.429 . S
C734 H758 0.950 . S
C735 C752 1.574 . S
C735 C754 1.368 . S
C735 H759 0.949 . S
H736 C740 0.949 . S
C737 C738 1.349 . S
C737 C739 1.327 . S
C737 H760 0.950 . S
C738 C737 1.349 . S
C738 C750 1.349 . S
C739 C737 1.327 . S
C739 C755 1.429 . S
C739 H761 0.950 . S
C740 H736 0.949 . S
C740 C748 1.574 . S
C740 C756 1.368 . S
H741 C749 0.950 . S
H742 C747 0.950 . S
H743 C748 0.949 . S
H744 C750 0.950 . S
H745 C751 0.950 . S
H746 C752 0.949 . S
C747 H742 0.950 . S
C747 C749 1.327 . S
C747 C753 1.429 . S
C748 C740 1.574 . S
C748 H743 0.949 . S
C748 C754 1.368 . S
C749 C733 1.349 . S
C749 H741 0.950 . S
C749 C747 1.327 . S
C750 C738 1.349 . S
C750 H744 0.950 . S
C750 C751 1.327 . S
C751 H745 0.950 . S
C751 C750 1.327 . S
C751 C755 1.429 . S
C752 C735 1.574 . S
C752 H746 0.949 . S
C752 C756 1.368 . S
C753 C734 1.429 . S
C753 C747 1.429 . S
C753 C754 1.523 . S
C754 C735 1.368 . S
C754 C748 1.368 . S
C754 C753 1.523 . S
C755 C739 1.429 . S
C755 C751 1.429 . S
C755 C756 1.523 . S
C756 C740 1.368 . S
C756 C752 1.368 . S
C756 C755 1.523 . S
H757 C732 0.950 . S
H758 C734 0.950 . S
H759 C735 0.949 . S
H760 C737 0.950 . S
H761 C739 0.950 . S
C762 C763 1.349 . S
C762 C764 1.327 . S
C762 H787 0.950 . S
C763 C762 1.349 . S
C763 C779 1.349 . S
C764 C762 1.327 . S
C764 C783 1.429 . S
C764 H788 0.950 . S
C765 C782 1.574 . S
C765 C784 1.368 . S
C765 H789 0.949 . S
H766 C770 0.949 . S
C767 C768 1.349 . S
C767 C769 1.327 . S
C767 H790 0.950 . S
C768 C767 1.349 . S
C768 C780 1.349 . S
C769 C767 1.327 . S
C769 C785 1.429 . S
C769 H791 0.950 . S
C770 H766 0.949 . S
C770 C778 1.574 . S
C770 C786 1.368 . S
H771 C779 0.950 . S
H772 C777 0.950 . S
H773 C778 0.949 . S
H774 C780 0.950 . S
H775 C781 0.950 . S
H776 C782 0.949 . S
C777 H772 0.950 . S
C777 C779 1.327 . S
C777 C783 1.429 . S
C778 C770 1.574 . S
C778 H773 0.949 . S
C778 C784 1.368 . S
C779 C763 1.349 . S
C779 H771 0.950 . S
C779 C777 1.327 . S
C780 C768 1.349 . S
C780 H774 0.950 . S
C780 C781 1.327 . S
C781 H775 0.950 . S
C781 C780 1.327 . S
C781 C785 1.429 . S
C782 C765 1.574 . S
C782 H776 0.949 . S
C782 C786 1.368 . S
C783 C764 1.429 . S
C783 C777 1.429 . S
C783 C784 1.523 . S
C784 C765 1.368 . S
C784 C778 1.368 . S
C784 C783 1.523 . S
C785 C769 1.429 . S
C785 C781 1.429 . S
C785 C786 1.523 . S
C786 C770 1.368 . S
C786 C782 1.368 . S
C786 C785 1.523 . S
H787 C762 0.950 . S
H788 C764 0.950 . S
H789 C765 0.949 . S
H790 C767 0.950 . S
H791 C769 0.950 . S
C792 C793 1.349 . S
C792 C794 1.327 . S
C792 H817 0.950 . S
C793 C792 1.349 . S
C793 C809 1.349 . S
C794 C792 1.327 . S
C794 C813 1.429 . S
C794 H818 0.950 . S
C795 C812 1.574 . S
C795 C814 1.368 . S
C795 H819 0.949 . S
H796 C800 0.949 . S
C797 C798 1.349 . S
C797 C799 1.327 . S
C797 H820 0.950 . S
C798 C797 1.349 . S
C798 C810 1.349 . S
C799 C797 1.327 . S
C799 C815 1.429 . S
C799 H821 0.950 . S
C800 H796 0.949 . S
C800 C808 1.574 . S
C800 C816 1.368 . S
H801 C809 0.950 . S
H802 C807 0.950 . S
H803 C808 0.949 . S
H804 C810 0.950 . S
H805 C811 0.950 . S
H806 C812 0.949 . S
C807 H802 0.950 . S
C807 C809 1.327 . S
C807 C813 1.429 . S
C808 C800 1.574 . S
C808 H803 0.949 . S
C808 C814 1.368 . S
C809 C793 1.349 . S
C809 H801 0.950 . S
C809 C807 1.327 . S
C810 C798 1.349 . S
C810 H804 0.950 . S
C810 C811 1.327 . S
C811 H805 0.950 . S
C811 C810 1.327 . S
C811 C815 1.429 . S
C812 C795 1.574 . S
C812 H806 0.949 . S
C812 C816 1.368 . S
C813 C794 1.429 . S
C813 C807 1.429 . S
C813 C814 1.523 . S
C814 C795 1.368 . S
C814 C808 1.368 . S
C814 C813 1.523 . S
C815 C799 1.429 . S
C815 C811 1.429 . S
C815 C816 1.523 . S
C816 C800 1.368 . S
C816 C812 1.368 . S
C816 C815 1.523 . S
H817 C792 0.950 . S
H818 C794 0.950 . S
H819 C795 0.949 . S
H820 C797 0.950 . S
H821 C799 0.950 . S
C822 C823 1.349 . S
C822 C824 1.327 . S
C822 H847 0.950 . S
C823 C822 1.349 . S
C823 C839 1.349 . S
C824 C822 1.327 . S
C824 C843 1.429 . S
C824 H848 0.950 . S
C825 C842 1.574 . S
C825 C844 1.368 . S
C825 H849 0.949 . S
H826 C830 0.949 . S
C827 C828 1.349 . S
C827 C829 1.327 . S
C827 H850 0.950 . S
C828 C827 1.349 . S
C828 C840 1.349 . S
C829 C827 1.327 . S
C829 C845 1.429 . S
C829 H851 0.950 . S
C830 H826 0.949 . S
C830 C838 1.574 . S
C830 C846 1.368 . S
H831 C839 0.950 . S
H832 C837 0.950 . S
H833 C838 0.949 . S
H834 C840 0.950 . S
H835 C841 0.950 . S
H836 C842 0.949 . S
C837 H832 0.950 . S
C837 C839 1.327 . S
C837 C843 1.429 . S
C838 C830 1.574 . S
C838 H833 0.949 . S
C838 C844 1.368 . S
C839 C823 1.349 . S
C839 H831 0.950 . S
C839 C837 1.327 . S
C840 C828 1.349 . S
C840 H834 0.950 . S
C840 C841 1.327 . S
C841 H835 0.950 . S
C841 C840 1.327 . S
C841 C845 1.429 . S
C842 C825 1.574 . S
C842 H836 0.949 . S
C842 C846 1.368 . S
C843 C824 1.429 . S
C843 C837 1.429 . S
C843 C844 1.523 . S
C844 C825 1.368 . S
C844 C838 1.368 . S
C844 C843 1.523 . S
C845 C829 1.429 . S
C845 C841 1.429 . S
C845 C846 1.523 . S
C846 C830 1.368 . S
C846 C842 1.368 . S
C846 C845 1.523 . S
H847 C822 0.950 . S
H848 C824 0.950 . S
H849 C825 0.949 . S
H850 C827 0.950 . S
H851 C829 0.950 . S
C852 C853 1.349 . S
C852 C854 1.327 . S
C852 H877 0.950 . S
C853 C852 1.349 . S
C853 C869 1.349 . S
C854 C852 1.327 . S
C854 C873 1.429 . S
C854 H878 0.950 . S
C855 C872 1.574 . S
C855 C874 1.368 . S
C855 H879 0.949 . S
H856 C860 0.949 . S
C857 C858 1.349 . S
C857 C859 1.327 . S
C857 H880 0.950 . S
C858 C857 1.349 . S
C858 C870 1.349 . S
C859 C857 1.327 . S
C859 C875 1.429 . S
C859 H881 0.950 . S
C860 H856 0.949 . S
C860 C868 1.574 . S
C860 C876 1.368 . S
H861 C869 0.950 . S
H862 C867 0.950 . S
H863 C868 0.949 . S
H864 C870 0.950 . S
H865 C871 0.950 . S
H866 C872 0.949 . S
C867 H862 0.950 . S
C867 C869 1.327 . S
C867 C873 1.429 . S
C868 C860 1.574 . S
C868 H863 0.949 . S
C868 C874 1.368 . S
C869 C853 1.349 . S
C869 H861 0.950 . S
C869 C867 1.327 . S
C870 C858 1.349 . S
C870 H864 0.950 . S
C870 C871 1.327 . S
C871 H865 0.950 . S
C871 C870 1.327 . S
C871 C875 1.429 . S
C872 C855 1.574 . S
C872 H866 0.949 . S
C872 C876 1.368 . S
C873 C854 1.429 . S
C873 C867 1.429 . S
C873 C874 1.523 . S
C874 C855 1.368 . S
C874 C868 1.368 . S
C874 C873 1.523 . S
C875 C859 1.429 . S
C875 C871 1.429 . S
C875 C876 1.523 . S
C876 C860 1.368 . S
C876 C872 1.368 . S
C876 C875 1.523 . S
H877 C852 0.950 . S
H878 C854 0.950 . S
H879 C855 0.949 . S
H880 C857 0.950 . S
H881 C859 0.950 . S
C882 C883 1.349 . S
C882 C884 1.327 . S
C882 H907 0.950 . S
C883 C882 1.349 . S
C883 C899 1.349 . S
C884 C882 1.327 . S
C884 C903 1.429 . S
C884 H908 0.950 . S
C885 C902 1.574 . S
C885 C904 1.368 . S
C885 H909 0.949 . S
H886 C890 0.949 . S
C887 C888 1.349 . S
C887 C889 1.327 . S
C887 H910 0.950 . S
C888 C887 1.349 . S
C888 C900 1.349 . S
C889 C887 1.327 . S
C889 C905 1.429 . S
C889 H911 0.950 . S
C890 H886 0.949 . S
C890 C898 1.574 . S
C890 C906 1.368 . S
H891 C899 0.950 . S
H892 C897 0.950 . S
H893 C898 0.949 . S
H894 C900 0.950 . S
H895 C901 0.950 . S
H896 C902 0.949 . S
C897 H892 0.950 . S
C897 C899 1.327 . S
C897 C903 1.429 . S
C898 C890 1.574 . S
C898 H893 0.949 . S
C898 C904 1.368 . S
C899 C883 1.349 . S
C899 H891 0.950 . S
C899 C897 1.327 . S
C900 C888 1.349 . S
C900 H894 0.950 . S
C900 C901 1.327 . S
C901 H895 0.950 . S
C901 C900 1.327 . S
C901 C905 1.429 . S
C902 C885 1.574 . S
C902 H896 0.949 . S
C902 C906 1.368 . S
C903 C884 1.429 . S
C903 C897 1.429 . S
C903 C904 1.523 . S
C904 C885 1.368 . S
C904 C898 1.368 . S
C904 C903 1.523 . S
C905 C889 1.429 . S
C905 C901 1.429 . S
C905 C906 1.523 . S
C906 C890 1.368 . S
C906 C902 1.368 . S
C906 C905 1.523 . S
H907 C882 0.950 . S
H908 C884 0.950 . S
H909 C885 0.949 . S
H910 C887 0.950 . S
H911 C889 0.950 . S
C912 C913 1.349 . S
C912 C914 1.327 . S
C912 H937 0.950 . S
C913 C912 1.349 . S
C913 C929 1.349 . S
C914 C912 1.327 . S
C914 C933 1.429 . S
C914 H938 0.950 . S
C915 C932 1.574 1_545 S
C915 C934 1.368 . S
C915 H939 0.949 . S
H916 C920 0.949 . S
C917 C918 1.349 . S
C917 C919 1.327 . S
C917 H940 0.950 . S
C918 C917 1.349 . S
C918 C930 1.349 . S
C919 C917 1.327 . S
C919 C935 1.429 . S
C919 H941 0.950 . S
C920 H916 0.949 . S
C920 C928 1.574 1_565 S
C920 C936 1.368 . S
H921 C929 0.950 . S
H922 C927 0.950 . S
H923 C928 0.949 . S
H924 C930 0.950 . S
H925 C931 0.950 . S
H926 C932 0.949 . S
C927 H922 0.950 . S
C927 C929 1.327 . S
C927 C933 1.429 . S
C928 C920 1.574 1_545 S
C928 H923 0.949 . S
C928 C934 1.368 . S
C929 C913 1.349 . S
C929 H921 0.950 . S
C929 C927 1.327 . S
C930 C918 1.349 . S
C930 H924 0.950 . S
C930 C931 1.327 . S
C931 H925 0.950 . S
C931 C930 1.327 . S
C931 C935 1.429 . S
C932 C915 1.574 1_565 S
C932 H926 0.949 . S
C932 C936 1.368 . S
C933 C914 1.429 . S
C933 C927 1.429 . S
C933 C934 1.523 . S
C934 C915 1.368 . S
C934 C928 1.368 . S
C934 C933 1.523 . S
C935 C919 1.429 . S
C935 C931 1.429 . S
C935 C936 1.523 . S
C936 C920 1.368 . S
C936 C932 1.368 . S
C936 C935 1.523 . S
H937 C912 0.950 . S
H938 C914 0.950 . S
H939 C915 0.949 . S
H940 C917 0.950 . S
H941 C919 0.950 . S
C942 C943 1.349 . S
C942 C944 1.327 . S
C942 H967 0.950 . S
C943 C942 1.349 . S
C943 C959 1.349 . S
C944 C942 1.327 . S
C944 C963 1.429 . S
C944 H968 0.950 . S
C945 C962 1.574 . S
C945 C964 1.368 . S
C945 H969 0.949 . S
H946 C950 0.949 . S
C947 C948 1.349 . S
C947 C949 1.327 . S
C947 H970 0.950 . S
C948 C947 1.349 . S
C948 C960 1.349 . S
C949 C947 1.327 . S
C949 C965 1.429 . S
C949 H971 0.950 . S
C950 H946 0.949 . S
C950 C958 1.574 . S
C950 C966 1.368 . S
H951 C959 0.950 . S
H952 C957 0.950 . S
H953 C958 0.949 . S
H954 C960 0.950 . S
H955 C961 0.950 . S
H956 C962 0.949 . S
C957 H952 0.950 . S
C957 C959 1.327 . S
C957 C963 1.429 . S
C958 C950 1.574 . S
C958 H953 0.949 . S
C958 C964 1.368 . S
C959 C943 1.349 . S
C959 H951 0.950 . S
C959 C957 1.327 . S
C960 C948 1.349 . S
C960 H954 0.950 . S
C960 C961 1.327 . S
C961 H955 0.950 . S
C961 C960 1.327 . S
C961 C965 1.429 . S
C962 C945 1.574 . S
C962 H956 0.949 . S
C962 C966 1.368 . S
C963 C944 1.429 . S
C963 C957 1.429 . S
C963 C964 1.523 . S
C964 C945 1.368 . S
C964 C958 1.368 . S
C964 C963 1.523 . S
C965 C949 1.429 . S
C965 C961 1.429 . S
C965 C966 1.523 . S
C966 C950 1.368 . S
C966 C962 1.368 . S
C966 C965 1.523 . S
H967 C942 0.950 . S
H968 C944 0.950 . S
H969 C945 0.949 . S
H970 C947 0.950 . S
H971 C949 0.950 . S
C972 C973 1.349 . S
C972 C974 1.327 . S
C972 H997 0.950 . S
C973 C972 1.349 . S
C973 C989 1.349 . S
C974 C972 1.327 . S
C974 C993 1.429 . S
C974 H998 0.950 . S
C975 C992 1.574 1_655 S
C975 C994 1.368 . S
C975 H999 0.949 . S
H976 C980 0.949 . S
C977 C978 1.349 . S
C977 C979 1.327 . S
C977 H1000 0.950 . S
C978 C977 1.349 . S
C978 C990 1.349 . S
C979 C977 1.327 . S
C979 C995 1.429 . S
C979 H1001 0.950 . S
C980 H976 0.949 . S
C980 C988 1.574 1_455 S
C980 C996 1.368 . S
H981 C989 0.950 . S
H982 C987 0.950 . S
H983 C988 0.949 . S
H984 C990 0.950 . S
H985 C991 0.950 . S
H986 C992 0.949 . S
C987 H982 0.950 . S
C987 C989 1.327 . S
C987 C993 1.429 . S
C988 C980 1.574 1_655 S
C988 H983 0.949 . S
C988 C994 1.368 . S
C989 C973 1.349 . S
C989 H981 0.950 . S
C989 C987 1.327 . S
C990 C978 1.349 . S
C990 H984 0.950 . S
C990 C991 1.327 . S
C991 H985 0.950 . S
C991 C990 1.327 . S
C991 C995 1.429 . S
C992 C975 1.574 1_455 S
C992 H986 0.949 . S
C992 C996 1.368 . S
C993 C974 1.429 . S
C993 C987 1.429 . S
C993 C994 1.523 . S
C994 C975 1.368 . S
C994 C988 1.368 . S
C994 C993 1.523 . S
C995 C979 1.429 . S
C995 C991 1.429 . S
C995 C996 1.523 . S
C996 C980 1.368 . S
C996 C992 1.368 . S
C996 C995 1.523 . S
H997 C972 0.950 . S
H998 C974 0.950 . S
H999 C975 0.949 . S
H1000 C977 0.950 . S
H1001 C979 0.950 . S
C1002 C1003 1.349 . S
C1002 C1004 1.327 . S
C1002 H1027 0.950 . S
C1003 C1002 1.349 . S
C1003 C1019 1.349 . S
C1004 C1002 1.327 . S
C1004 C1023 1.429 . S
C1004 H1028 0.950 . S
C1005 C1022 1.574 1_655 S
C1005 C1024 1.368 . S
C1005 H1029 0.949 . S
H1006 C1010 0.949 . S
C1007 C1008 1.349 . S
C1007 C1009 1.327 . S
C1007 H1030 0.950 . S
C1008 C1007 1.349 . S
C1008 C1020 1.349 . S
C1009 C1007 1.327 . S
C1009 C1025 1.429 . S
C1009 H1031 0.950 . S
C1010 H1006 0.949 . S
C1010 C1018 1.574 1_455 S
C1010 C1026 1.368 . S
H1011 C1019 0.950 . S
H1012 C1017 0.950 . S
H1013 C1018 0.949 . S
H1014 C1020 0.950 . S
H1015 C1021 0.950 . S
H1016 C1022 0.949 . S
C1017 H1012 0.950 . S
C1017 C1019 1.327 . S
C1017 C1023 1.429 . S
C1018 C1010 1.574 1_655 S
C1018 H1013 0.949 . S
C1018 C1024 1.368 . S
C1019 C1003 1.349 . S
C1019 H1011 0.950 . S
C1019 C1017 1.327 . S
C1020 C1008 1.349 . S
C1020 H1014 0.950 . S
C1020 C1021 1.327 . S
C1021 H1015 0.950 . S
C1021 C1020 1.327 . S
C1021 C1025 1.429 . S
C1022 C1005 1.574 1_455 S
C1022 H1016 0.949 . S
C1022 C1026 1.368 . S
C1023 C1004 1.429 . S
C1023 C1017 1.429 . S
C1023 C1024 1.523 . S
C1024 C1005 1.368 . S
C1024 C1018 1.368 . S
C1024 C1023 1.523 . S
C1025 C1009 1.429 . S
C1025 C1021 1.429 . S
C1025 C1026 1.523 . S
C1026 C1010 1.368 . S
C1026 C1022 1.368 . S
C1026 C1025 1.523 . S
H1027 C1002 0.950 . S
H1028 C1004 0.950 . S
H1029 C1005 0.949 . S
H1030 C1007 0.950 . S
H1031 C1009 0.950 . S
C1032 C1033 1.349 . S
C1032 C1034 1.327 . S
C1032 H1057 0.950 . S
C1033 C1032 1.349 . S
C1033 C1049 1.349 . S
C1034 C1032 1.327 . S
C1034 C1053 1.429 . S
C1034 H1058 0.950 . S
C1035 C1052 1.574 1_565 S
C1035 C1054 1.368 . S
C1035 H1059 0.949 . S
H1036 C1040 0.949 . S
C1037 C1038 1.349 . S
C1037 C1039 1.327 . S
C1037 H1060 0.950 . S
C1038 C1037 1.349 . S
C1038 C1050 1.349 . S
C1039 C1037 1.327 . S
C1039 C1055 1.429 . S
C1039 H1061 0.950 . S
C1040 H1036 0.949 . S
C1040 C1048 1.574 1_545 S
C1040 C1056 1.368 . S
H1041 C1049 0.950 . S
H1042 C1047 0.950 . S
H1043 C1048 0.949 . S
H1044 C1050 0.950 . S
H1045 C1051 0.950 . S
H1046 C1052 0.949 . S
C1047 H1042 0.950 . S
C1047 C1049 1.327 . S
C1047 C1053 1.429 . S
C1048 C1040 1.574 1_565 S
C1048 H1043 0.949 . S
C1048 C1054 1.368 . S
C1049 C1033 1.349 . S
C1049 H1041 0.950 . S
C1049 C1047 1.327 . S
C1050 C1038 1.349 . S
C1050 H1044 0.950 . S
C1050 C1051 1.327 . S
C1051 H1045 0.950 . S
C1051 C1050 1.327 . S
C1051 C1055 1.429 . S
C1052 C1035 1.574 1_545 S
C1052 H1046 0.949 . S
C1052 C1056 1.368 . S
C1053 C1034 1.429 . S
C1053 C1047 1.429 . S
C1053 C1054 1.523 . S
C1054 C1035 1.368 . S
C1054 C1048 1.368 . S
C1054 C1053 1.523 . S
C1055 C1039 1.429 . S
C1055 C1051 1.429 . S
C1055 C1056 1.523 . S
C1056 C1040 1.368 . S
C1056 C1052 1.368 . S
C1056 C1055 1.523 . S
H1057 C1032 0.950 . S
H1058 C1034 0.950 . S
H1059 C1035 0.949 . S
H1060 C1037 0.950 . S
H1061 C1039 0.950 . S
C1062 C1063 1.349 . S
C1062 C1064 1.327 . S
C1062 H1087 0.950 . S
C1063 C1062 1.349 . S
C1063 C1079 1.349 . S
C1064 C1062 1.327 . S
C1064 C1083 1.429 . S
C1064 H1088 0.950 . S
C1065 C1082 1.574 . S
C1065 C1084 1.368 . S
C1065 H1089 0.949 . S
H1066 C1070 0.949 . S
C1067 C1068 1.349 . S
C1067 C1069 1.327 . S
C1067 H1090 0.950 . S
C1068 C1067 1.349 . S
C1068 C1080 1.349 . S
C1069 C1067 1.327 . S
C1069 C1085 1.429 . S
C1069 H1091 0.950 . S
C1070 H1066 0.949 . S
C1070 C1078 1.574 . S
C1070 C1086 1.368 . S
H1071 C1079 0.950 . S
H1072 C1077 0.950 . S
H1073 C1078 0.949 . S
H1074 C1080 0.950 . S
H1075 C1081 0.950 . S
H1076 C1082 0.949 . S
C1077 H1072 0.950 . S
C1077 C1079 1.327 . S
C1077 C1083 1.429 . S
C1078 C1070 1.574 . S
C1078 H1073 0.949 . S
C1078 C1084 1.368 . S
C1079 C1063 1.349 . S
C1079 H1071 0.950 . S
C1079 C1077 1.327 . S
C1080 C1068 1.349 . S
C1080 H1074 0.950 . S
C1080 C1081 1.327 . S
C1081 H1075 0.950 . S
C1081 C1080 1.327 . S
C1081 C1085 1.429 . S
C1082 C1065 1.574 . S
C1082 H1076 0.949 . S
C1082 C1086 1.368 . S
C1083 C1064 1.429 . S
C1083 C1077 1.429 . S
C1083 C1084 1.523 . S
C1084 C1065 1.368 . S
C1084 C1078 1.368 . S
C1084 C1083 1.523 . S
C1085 C1069 1.429 . S
C1085 C1081 1.429 . S
C1085 C1086 1.523 . S
C1086 C1070 1.368 . S
C1086 C1082 1.368 . S
C1086 C1085 1.523 . S
H1087 C1062 0.950 . S
H1088 C1064 0.950 . S
H1089 C1065 0.949 . S
H1090 C1067 0.950 . S
H1091 C1069 0.950 . S
C1092 C1093 1.349 . S
C1092 C1094 1.327 . S
C1092 H1117 0.950 . S
C1093 C1092 1.349 . S
C1093 C1109 1.349 . S
C1094 C1092 1.327 . S
C1094 C1113 1.429 . S
C1094 H1118 0.950 . S
C1095 C1112 1.574 1_545 S
C1095 C1114 1.368 . S
C1095 H1119 0.949 . S
H1096 C1100 0.949 . S
C1097 C1098 1.349 . S
C1097 C1099 1.327 . S
C1097 H1120 0.950 . S
C1098 C1097 1.349 . S
C1098 C1110 1.349 . S
C1099 C1097 1.327 . S
C1099 C1115 1.429 . S
C1099 H1121 0.950 . S
C1100 H1096 0.949 . S
C1100 C1108 1.574 1_565 S
C1100 C1116 1.368 . S
H1101 C1109 0.950 . S
H1102 C1107 0.950 . S
H1103 C1108 0.949 . S
H1104 C1110 0.950 . S
H1105 C1111 0.950 . S
H1106 C1112 0.949 . S
C1107 H1102 0.950 . S
C1107 C1109 1.327 . S
C1107 C1113 1.429 . S
C1108 C1100 1.574 1_545 S
C1108 H1103 0.949 . S
C1108 C1114 1.368 . S
C1109 C1093 1.349 . S
C1109 H1101 0.950 . S
C1109 C1107 1.327 . S
C1110 C1098 1.349 . S
C1110 H1104 0.950 . S
C1110 C1111 1.327 . S
C1111 H1105 0.950 . S
C1111 C1110 1.327 . S
C1111 C1115 1.429 . S
C1112 C1095 1.574 1_565 S
C1112 H1106 0.949 . S
C1112 C1116 1.368 . S
C1113 C1094 1.429 . S
C1113 C1107 1.429 . S
C1113 C1114 1.523 . S
C1114 C1095 1.368 . S
C1114 C1108 1.368 . S
C1114 C1113 1.523 . S
C1115 C1099 1.429 . S
C1115 C1111 1.429 . S
C1115 C1116 1.523 . S
C1116 C1100 1.368 . S
C1116 C1112 1.368 . S
C1116 C1115 1.523 . S
H1117 C1092 0.950 . S
H1118 C1094 0.950 . S
H1119 C1095 0.949 . S
H1120 C1097 0.950 . S
H1121 C1099 0.950 . S
C1122 C1123 1.349 . S
C1122 C1124 1.327 . S
C1122 H1147 0.950 . S
C1123 C1122 1.349 . S
C1123 C1139 1.349 . S
C1124 C1122 1.327 . S
C1124 C1143 1.429 . S
C1124 H1148 0.950 . S
C1125 C1142 1.574 . S
C1125 C1144 1.368 . S
C1125 H1149 0.949 . S
H1126 C1130 0.949 . S
C1127 C1128 1.349 . S
C1127 C1129 1.327 . S
C1127 H1150 0.950 . S
C1128 C1127 1.349 . S
C1128 C1140 1.349 . S
C1129 C1127 1.327 . S
C1129 C1145 1.429 . S
C1129 H1151 0.950 . S
C1130 H1126 0.949 . S
C1130 C1138 1.574 . S
C1130 C1146 1.368 . S
H1131 C1139 0.950 . S
H1132 C1137 0.950 . S
H1133 C1138 0.949 . S
H1134 C1140 0.950 . S
H1135 C1141 0.950 . S
H1136 C1142 0.949 . S
C1137 H1132 0.950 . S
C1137 C1139 1.327 . S
C1137 C1143 1.429 . S
C1138 C1130 1.574 . S
C1138 H1133 0.949 . S
C1138 C1144 1.368 . S
C1139 C1123 1.349 . S
C1139 H1131 0.950 . S
C1139 C1137 1.327 . S
C1140 C1128 1.349 . S
C1140 H1134 0.950 . S
C1140 C1141 1.327 . S
C1141 H1135 0.950 . S
C1141 C1140 1.327 . S
C1141 C1145 1.429 . S
C1142 C1125 1.574 . S
C1142 H1136 0.949 . S
C1142 C1146 1.368 . S
C1143 C1124 1.429 . S
C1143 C1137 1.429 . S
C1143 C1144 1.523 . S
C1144 C1125 1.368 . S
C1144 C1138 1.368 . S
C1144 C1143 1.523 . S
C1145 C1129 1.429 . S
C1145 C1141 1.429 . S
C1145 C1146 1.523 . S
C1146 C1130 1.368 . S
C1146 C1142 1.368 . S
C1146 C1145 1.523 . S
H1147 C1122 0.950 . S
H1148 C1124 0.950 . S
H1149 C1125 0.949 . S
H1150 C1127 0.950 . S
H1151 C1129 0.950 . S
C1152 C1153 1.349 . S
C1152 C1154 1.327 . S
C1152 H1177 0.950 . S
C1153 C1152 1.349 . S
C1153 C1169 1.349 . S
C1154 C1152 1.327 . S
C1154 C1173 1.429 . S
C1154 H1178 0.950 . S
C1155 C1172 1.574 1_655 S
C1155 C1174 1.368 . S
C1155 H1179 0.949 . S
H1156 C1160 0.949 . S
C1157 C1158 1.349 . S
C1157 C1159 1.327 . S
C1157 H1180 0.950 . S
C1158 C1157 1.349 . S
C1158 C1170 1.349 . S
C1159 C1157 1.327 . S
C1159 C1175 1.429 . S
C1159 H1181 0.950 . S
C1160 H1156 0.949 . S
C1160 C1168 1.574 1_455 S
C1160 C1176 1.368 . S
H1161 C1169 0.950 . S
H1162 C1167 0.950 . S
H1163 C1168 0.949 . S
H1164 C1170 0.950 . S
H1165 C1171 0.950 . S
H1166 C1172 0.949 . S
C1167 H1162 0.950 . S
C1167 C1169 1.327 . S
C1167 C1173 1.429 . S
C1168 C1160 1.574 1_655 S
C1168 H1163 0.949 . S
C1168 C1174 1.368 . S
C1169 C1153 1.349 . S
C1169 H1161 0.950 . S
C1169 C1167 1.327 . S
C1170 C1158 1.349 . S
C1170 H1164 0.950 . S
C1170 C1171 1.327 . S
C1171 H1165 0.950 . S
C1171 C1170 1.327 . S
C1171 C1175 1.429 . S
C1172 C1155 1.574 1_455 S
C1172 H1166 0.949 . S
C1172 C1176 1.368 . S
C1173 C1154 1.429 . S
C1173 C1167 1.429 . S
C1173 C1174 1.523 . S
C1174 C1155 1.368 . S
C1174 C1168 1.368 . S
C1174 C1173 1.523 . S
C1175 C1159 1.429 . S
C1175 C1171 1.429 . S
C1175 C1176 1.523 . S
C1176 C1160 1.368 . S
C1176 C1172 1.368 . S
C1176 C1175 1.523 . S
H1177 C1152 0.950 . S
H1178 C1154 0.950 . S
H1179 C1155 0.949 . S
H1180 C1157 0.950 . S
H1181 C1159 0.950 . S
C1182 C1183 1.349 . S
C1182 C1184 1.327 . S
C1182 H1207 0.950 . S
C1183 C1182 1.349 . S
C1183 C1199 1.349 . S
C1184 C1182 1.327 . S
C1184 C1203 1.429 . S
C1184 H1208 0.950 . S
C1185 C1202 1.574 1_455 S
C1185 C1204 1.368 . S
C1185 H1209 0.949 . S
H1186 C1190 0.949 . S
C1187 C1188 1.349 . S
C1187 C1189 1.327 . S
C1187 H1210 0.950 . S
C1188 C1187 1.349 . S
C1188 C1200 1.349 . S
C1189 C1187 1.327 . S
C1189 C1205 1.429 . S
C1189 H1211 0.950 . S
C1190 H1186 0.949 . S
C1190 C1198 1.574 1_655 S
C1190 C1206 1.368 . S
H1191 C1199 0.950 . S
H1192 C1197 0.950 . S
H1193 C1198 0.949 . S
H1194 C1200 0.950 . S
H1195 C1201 0.950 . S
H1196 C1202 0.949 . S
C1197 H1192 0.950 . S
C1197 C1199 1.327 . S
C1197 C1203 1.429 . S
C1198 C1190 1.574 1_455 S
C1198 H1193 0.949 . S
C1198 C1204 1.368 . S
C1199 C1183 1.349 . S
C1199 H1191 0.950 . S
C1199 C1197 1.327 . S
C1200 C1188 1.349 . S
C1200 H1194 0.950 . S
C1200 C1201 1.327 . S
C1201 H1195 0.950 . S
C1201 C1200 1.327 . S
C1201 C1205 1.429 . S
C1202 C1185 1.574 1_655 S
C1202 H1196 0.949 . S
C1202 C1206 1.368 . S
C1203 C1184 1.429 . S
C1203 C1197 1.429 . S
C1203 C1204 1.523 . S
C1204 C1185 1.368 . S
C1204 C1198 1.368 . S
C1204 C1203 1.523 . S
C1205 C1189 1.429 . S
C1205 C1201 1.429 . S
C1205 C1206 1.523 . S
C1206 C1190 1.368 . S
C1206 C1202 1.368 . S
C1206 C1205 1.523 . S
H1207 C1182 0.950 . S
H1208 C1184 0.950 . S
H1209 C1185 0.949 . S
H1210 C1187 0.950 . S
H1211 C1189 0.950 . S
C1212 C1213 1.349 . S
C1212 C1214 1.327 . S
C1212 H1237 0.950 . S
C1213 C1212 1.349 . S
C1213 C1229 1.349 . S
C1214 C1212 1.327 . S
C1214 C1233 1.429 . S
C1214 H1238 0.950 . S
C1215 C1232 1.574 1_545 S
C1215 C1234 1.368 . S
C1215 H1239 0.949 . S
H1216 C1220 0.949 . S
C1217 C1218 1.349 . S
C1217 C1219 1.327 . S
C1217 H1240 0.950 . S
C1218 C1217 1.349 . S
C1218 C1230 1.349 . S
C1219 C1217 1.327 . S
C1219 C1235 1.429 . S
C1219 H1241 0.950 . S
C1220 H1216 0.949 . S
C1220 C1228 1.574 1_565 S
C1220 C1236 1.368 . S
H1221 C1229 0.950 . S
H1222 C1227 0.950 . S
H1223 C1228 0.949 . S
H1224 C1230 0.950 . S
H1225 C1231 0.950 . S
H1226 C1232 0.949 . S
C1227 H1222 0.950 . S
C1227 C1229 1.327 . S
C1227 C1233 1.429 . S
C1228 C1220 1.574 1_545 S
C1228 H1223 0.949 . S
C1228 C1234 1.368 . S
C1229 C1213 1.349 . S
C1229 H1221 0.950 . S
C1229 C1227 1.327 . S
C1230 C1218 1.349 . S
C1230 H1224 0.950 . S
C1230 C1231 1.327 . S
C1231 H1225 0.950 . S
C1231 C1230 1.327 . S
C1231 C1235 1.429 . S
C1232 C1215 1.574 1_565 S
C1232 H1226 0.949 . S
C1232 C1236 1.368 . S
C1233 C1214 1.429 . S
C1233 C1227 1.429 . S
C1233 C1234 1.523 . S
C1234 C1215 1.368 . S
C1234 C1228 1.368 . S
C1234 C1233 1.523 . S
C1235 C1219 1.429 . S
C1235 C1231 1.429 . S
C1235 C1236 1.523 . S
C1236 C1220 1.368 . S
C1236 C1232 1.368 . S
C1236 C1235 1.523 . S
H1237 C1212 0.950 . S
H1238 C1214 0.950 . S
H1239 C1215 0.949 . S
H1240 C1217 0.950 . S
H1241 C1219 0.950 . S
C1242 C1243 1.349 . S
C1242 C1244 1.327 . S
C1242 H1267 0.950 . S
C1243 C1242 1.349 . S
C1243 C1259 1.349 . S
C1244 C1242 1.327 . S
C1244 C1263 1.429 . S
C1244 H1268 0.950 . S
C1245 C1262 1.574 . S
C1245 C1264 1.368 . S
C1245 H1269 0.949 . S
H1246 C1250 0.949 . S
C1247 C1248 1.349 . S
C1247 C1249 1.327 . S
C1247 H1270 0.950 . S
C1248 C1247 1.349 . S
C1248 C1260 1.349 . S
C1249 C1247 1.327 . S
C1249 C1265 1.429 . S
C1249 H1271 0.950 . S
C1250 H1246 0.949 . S
C1250 C1258 1.574 . S
C1250 C1266 1.368 . S
H1251 C1259 0.950 . S
H1252 C1257 0.950 . S
H1253 C1258 0.949 . S
H1254 C1260 0.950 . S
H1255 C1261 0.950 . S
H1256 C1262 0.949 . S
C1257 H1252 0.950 . S
C1257 C1259 1.327 . S
C1257 C1263 1.429 . S
C1258 C1250 1.574 . S
C1258 H1253 0.949 . S
C1258 C1264 1.368 . S
C1259 C1243 1.349 . S
C1259 H1251 0.950 . S
C1259 C1257 1.327 . S
C1260 C1248 1.349 . S
C1260 H1254 0.950 . S
C1260 C1261 1.327 . S
C1261 H1255 0.950 . S
C1261 C1260 1.327 . S
C1261 C1265 1.429 . S
C1262 C1245 1.574 . S
C1262 H1256 0.949 . S
C1262 C1266 1.368 . S
C1263 C1244 1.429 . S
C1263 C1257 1.429 . S
C1263 C1264 1.523 . S
C1264 C1245 1.368 . S
C1264 C1258 1.368 . S
C1264 C1263 1.523 . S
C1265 C1249 1.429 . S
C1265 C1261 1.429 . S
C1265 C1266 1.523 . S
C1266 C1250 1.368 . S
C1266 C1262 1.368 . S
C1266 C1265 1.523 . S
H1267 C1242 0.950 . S
H1268 C1244 0.950 . S
H1269 C1245 0.949 . S
H1270 C1247 0.950 . S
H1271 C1249 0.950 . S
C1272 C1273 1.349 . S
C1272 C1274 1.327 . S
C1272 H1297 0.950 . S
C1273 C1272 1.349 . S
C1273 C1289 1.349 . S
C1274 C1272 1.327 . S
C1274 C1293 1.429 . S
C1274 H1298 0.950 . S
C1275 C1292 1.574 . S
C1275 C1294 1.368 . S
C1275 H1299 0.949 . S
H1276 C1280 0.949 . S
C1277 C1278 1.349 . S
C1277 C1279 1.327 . S
C1277 H1300 0.950 . S
C1278 C1277 1.349 . S
C1278 C1290 1.349 . S
C1279 C1277 1.327 . S
C1279 C1295 1.429 . S
C1279 H1301 0.950 . S
C1280 H1276 0.949 . S
C1280 C1288 1.574 . S
C1280 C1296 1.368 . S
H1281 C1289 0.950 . S
H1282 C1287 0.950 . S
H1283 C1288 0.949 . S
H1284 C1290 0.950 . S
H1285 C1291 0.950 . S
H1286 C1292 0.949 . S
C1287 H1282 0.950 . S
C1287 C1289 1.327 . S
C1287 C1293 1.429 . S
C1288 C1280 1.574 . S
C1288 H1283 0.949 . S
C1288 C1294 1.368 . S
C1289 C1273 1.349 . S
C1289 H1281 0.950 . S
C1289 C1287 1.327 . S
C1290 C1278 1.349 . S
C1290 H1284 0.950 . S
C1290 C1291 1.327 . S
C1291 H1285 0.950 . S
C1291 C1290 1.327 . S
C1291 C1295 1.429 . S
C1292 C1275 1.574 . S
C1292 H1286 0.949 . S
C1292 C1296 1.368 . S
C1293 C1274 1.429 . S
C1293 C1287 1.429 . S
C1293 C1294 1.523 . S
C1294 C1275 1.368 . S
C1294 C1288 1.368 . S
C1294 C1293 1.523 . S
C1295 C1279 1.429 . S
C1295 C1291 1.429 . S
C1295 C1296 1.523 . S
C1296 C1280 1.368 . S
C1296 C1292 1.368 . S
C1296 C1295 1.523 . S
H1297 C1272 0.950 . S
H1298 C1274 0.950 . S
H1299 C1275 0.949 . S
H1300 C1277 0.950 . S
H1301 C1279 0.950 . S
C1302 C1303 1.349 . S
C1302 C1304 1.327 . S
C1302 H1327 0.950 . S
C1303 C1302 1.349 . S
C1303 C1319 1.349 . S
C1304 C1302 1.327 . S
C1304 C1323 1.429 . S
C1304 H1328 0.950 . S
C1305 C1322 1.574 . S
C1305 C1324 1.368 . S
C1305 H1329 0.949 . S
H1306 C1310 0.949 . S
C1307 C1308 1.349 . S
C1307 C1309 1.327 . S
C1307 H1330 0.950 . S
C1308 C1307 1.349 . S
C1308 C1320 1.349 . S
C1309 C1307 1.327 . S
C1309 C1325 1.429 . S
C1309 H1331 0.950 . S
C1310 H1306 0.949 . S
C1310 C1318 1.574 . S
C1310 C1326 1.368 . S
H1311 C1319 0.950 . S
H1312 C1317 0.950 . S
H1313 C1318 0.949 . S
H1314 C1320 0.950 . S
H1315 C1321 0.950 . S
H1316 C1322 0.949 . S
C1317 H1312 0.950 . S
C1317 C1319 1.327 . S
C1317 C1323 1.429 . S
C1318 C1310 1.574 . S
C1318 H1313 0.949 . S
C1318 C1324 1.368 . S
C1319 C1303 1.349 . S
C1319 H1311 0.950 . S
C1319 C1317 1.327 . S
C1320 C1308 1.349 . S
C1320 H1314 0.950 . S
C1320 C1321 1.327 . S
C1321 H1315 0.950 . S
C1321 C1320 1.327 . S
C1321 C1325 1.429 . S
C1322 C1305 1.574 . S
C1322 H1316 0.949 . S
C1322 C1326 1.368 . S
C1323 C1304 1.429 . S
C1323 C1317 1.429 . S
C1323 C1324 1.523 . S
C1324 C1305 1.368 . S
C1324 C1318 1.368 . S
C1324 C1323 1.523 . S
C1325 C1309 1.429 . S
C1325 C1321 1.429 . S
C1325 C1326 1.523 . S
C1326 C1310 1.368 . S
C1326 C1322 1.368 . S
C1326 C1325 1.523 . S
H1327 C1302 0.950 . S
H1328 C1304 0.950 . S
H1329 C1305 0.949 . S
H1330 C1307 0.950 . S
H1331 C1309 0.950 . S
C1332 C1333 1.349 . S
C1332 C1334 1.327 . S
C1332 H1357 0.950 . S
C1333 C1332 1.349 . S
C1333 C1349 1.349 . S
C1334 C1332 1.327 . S
C1334 C1353 1.429 . S
C1334 H1358 0.950 . S
C1335 C1352 1.574 . S
C1335 C1354 1.368 . S
C1335 H1359 0.949 . S
H1336 C1340 0.949 . S
C1337 C1338 1.349 . S
C1337 C1339 1.327 . S
C1337 H1360 0.950 . S
C1338 C1337 1.349 . S
C1338 C1350 1.349 . S
C1339 C1337 1.327 . S
C1339 C1355 1.429 . S
C1339 H1361 0.950 . S
C1340 H1336 0.949 . S
C1340 C1348 1.574 . S
C1340 C1356 1.368 . S
H1341 C1349 0.950 . S
H1342 C1347 0.950 . S
H1343 C1348 0.949 . S
H1344 C1350 0.950 . S
H1345 C1351 0.950 . S
H1346 C1352 0.949 . S
C1347 H1342 0.950 . S
C1347 C1349 1.327 . S
C1347 C1353 1.429 . S
C1348 C1340 1.574 . S
C1348 H1343 0.949 . S
C1348 C1354 1.368 . S
C1349 C1333 1.349 . S
C1349 H1341 0.950 . S
C1349 C1347 1.327 . S
C1350 C1338 1.349 . S
C1350 H1344 0.950 . S
C1350 C1351 1.327 . S
C1351 H1345 0.950 . S
C1351 C1350 1.327 . S
C1351 C1355 1.429 . S
C1352 C1335 1.574 . S
C1352 H1346 0.949 . S
C1352 C1356 1.368 . S
C1353 C1334 1.429 . S
C1353 C1347 1.429 . S
C1353 C1354 1.523 . S
C1354 C1335 1.368 . S
C1354 C1348 1.368 . S
C1354 C1353 1.523 . S
C1355 C1339 1.429 . S
C1355 C1351 1.429 . S
C1355 C1356 1.523 . S
C1356 C1340 1.368 . S
C1356 C1352 1.368 . S
C1356 C1355 1.523 . S
H1357 C1332 0.950 . S
H1358 C1334 0.950 . S
H1359 C1335 0.949 . S
H1360 C1337 0.950 . S
H1361 C1339 0.950 . S
C1362 C1363 1.349 . S
C1362 C1364 1.327 . S
C1362 H1387 0.950 . S
C1363 C1362 1.349 . S
C1363 C1379 1.349 . S
C1364 C1362 1.327 . S
C1364 C1383 1.429 . S
C1364 H1388 0.950 . S
C1365 C1382 1.574 . S
C1365 C1384 1.368 . S
C1365 H1389 0.949 . S
H1366 C1370 0.949 . S
C1367 C1368 1.349 . S
C1367 C1369 1.327 . S
C1367 H1390 0.950 . S
C1368 C1367 1.349 . S
C1368 C1380 1.349 . S
C1369 C1367 1.327 . S
C1369 C1385 1.429 . S
C1369 H1391 0.950 . S
C1370 H1366 0.949 . S
C1370 C1378 1.574 . S
C1370 C1386 1.368 . S
H1371 C1379 0.950 . S
H1372 C1377 0.950 . S
H1373 C1378 0.949 . S
H1374 C1380 0.950 . S
H1375 C1381 0.950 . S
H1376 C1382 0.949 . S
C1377 H1372 0.950 . S
C1377 C1379 1.327 . S
C1377 C1383 1.429 . S
C1378 C1370 1.574 . S
C1378 H1373 0.949 . S
C1378 C1384 1.368 . S
C1379 C1363 1.349 . S
C1379 H1371 0.950 . S
C1379 C1377 1.327 . S
C1380 C1368 1.349 . S
C1380 H1374 0.950 . S
C1380 C1381 1.327 . S
C1381 H1375 0.950 . S
C1381 C1380 1.327 . S
C1381 C1385 1.429 . S
C1382 C1365 1.574 . S
C1382 H1376 0.949 . S
C1382 C1386 1.368 . S
C1383 C1364 1.429 . S
C1383 C1377 1.429 . S
C1383 C1384 1.523 . S
C1384 C1365 1.368 . S
C1384 C1378 1.368 . S
C1384 C1383 1.523 . S
C1385 C1369 1.429 . S
C1385 C1381 1.429 . S
C1385 C1386 1.523 . S
C1386 C1370 1.368 . S
C1386 C1382 1.368 . S
C1386 C1385 1.523 . S
H1387 C1362 0.950 . S
H1388 C1364 0.950 . S
H1389 C1365 0.949 . S
H1390 C1367 0.950 . S
H1391 C1369 0.950 . S
C1392 C1393 1.349 . S
C1392 C1394 1.327 . S
C1392 H1417 0.950 . S
C1393 C1392 1.349 . S
C1393 C1409 1.349 . S
C1394 C1392 1.327 . S
C1394 C1413 1.429 . S
C1394 H1418 0.950 . S
C1395 C1412 1.574 . S
C1395 C1414 1.368 . S
C1395 H1419 0.949 . S
H1396 C1400 0.949 . S
C1397 C1398 1.349 . S
C1397 C1399 1.327 . S
C1397 H1420 0.950 . S
C1398 C1397 1.349 . S
C1398 C1410 1.349 . S
C1399 C1397 1.327 . S
C1399 C1415 1.429 . S
C1399 H1421 0.950 . S
C1400 H1396 0.949 . S
C1400 C1408 1.574 . S
C1400 C1416 1.368 . S
H1401 C1409 0.950 . S
H1402 C1407 0.950 . S
H1403 C1408 0.949 . S
H1404 C1410 0.950 . S
H1405 C1411 0.950 . S
H1406 C1412 0.949 . S
C1407 H1402 0.950 . S
C1407 C1409 1.327 . S
C1407 C1413 1.429 . S
C1408 C1400 1.574 . S
C1408 H1403 0.949 . S
C1408 C1414 1.368 . S
C1409 C1393 1.349 . S
C1409 H1401 0.950 . S
C1409 C1407 1.327 . S
C1410 C1398 1.349 . S
C1410 H1404 0.950 . S
C1410 C1411 1.327 . S
C1411 H1405 0.950 . S
C1411 C1410 1.327 . S
C1411 C1415 1.429 . S
C1412 C1395 1.574 . S
C1412 H1406 0.949 . S
C1412 C1416 1.368 . S
C1413 C1394 1.429 . S
C1413 C1407 1.429 . S
C1413 C1414 1.523 . S
C1414 C1395 1.368 . S
C1414 C1408 1.368 . S
C1414 C1413 1.523 . S
C1415 C1399 1.429 . S
C1415 C1411 1.429 . S
C1415 C1416 1.523 . S
C1416 C1400 1.368 . S
C1416 C1412 1.368 . S
C1416 C1415 1.523 . S
H1417 C1392 0.950 . S
H1418 C1394 0.950 . S
H1419 C1395 0.949 . S
H1420 C1397 0.950 . S
H1421 C1399 0.950 . S
C1422 C1423 1.349 . S
C1422 C1424 1.327 . S
C1422 H1447 0.950 . S
C1423 C1422 1.349 . S
C1423 C1439 1.349 . S
C1424 C1422 1.327 . S
C1424 C1443 1.429 . S
C1424 H1448 0.950 . S
C1425 C1442 1.574 . S
C1425 C1444 1.368 . S
C1425 H1449 0.949 . S
H1426 C1430 0.949 . S
C1427 C1428 1.349 . S
C1427 C1429 1.327 . S
C1427 H1450 0.950 . S
C1428 C1427 1.349 . S
C1428 C1440 1.349 . S
C1429 C1427 1.327 . S
C1429 C1445 1.429 . S
C1429 H1451 0.950 . S
C1430 H1426 0.949 . S
C1430 C1438 1.574 . S
C1430 C1446 1.368 . S
H1431 C1439 0.950 . S
H1432 C1437 0.950 . S
H1433 C1438 0.949 . S
H1434 C1440 0.950 . S
H1435 C1441 0.950 . S
H1436 C1442 0.949 . S
C1437 H1432 0.950 . S
C1437 C1439 1.327 . S
C1437 C1443 1.429 . S
C1438 C1430 1.574 . S
C1438 H1433 0.949 . S
C1438 C1444 1.368 . S
C1439 C1423 1.349 . S
C1439 H1431 0.950 . S
C1439 C1437 1.327 . S
C1440 C1428 1.349 . S
C1440 H1434 0.950 . S
C1440 C1441 1.327 . S
C1441 H1435 0.950 . S
C1441 C1440 1.327 . S
C1441 C1445 1.429 . S
C1442 C1425 1.574 . S
C1442 H1436 0.949 . S
C1442 C1446 1.368 . S
C1443 C1424 1.429 . S
C1443 C1437 1.429 . S
C1443 C1444 1.523 . S
C1444 C1425 1.368 . S
C1444 C1438 1.368 . S
C1444 C1443 1.523 . S
C1445 C1429 1.429 . S
C1445 C1441 1.429 . S
C1445 C1446 1.523 . S
C1446 C1430 1.368 . S
C1446 C1442 1.368 . S
C1446 C1445 1.523 . S
H1447 C1422 0.950 . S
H1448 C1424 0.950 . S
H1449 C1425 0.949 . S
H1450 C1427 0.950 . S
H1451 C1429 0.950 . S
C1452 C1453 1.349 . S
C1452 C1454 1.327 . S
C1452 H1477 0.950 . S
C1453 C1452 1.349 . S
C1453 C1469 1.349 . S
C1454 C1452 1.327 . S
C1454 C1473 1.429 . S
C1454 H1478 0.950 . S
C1455 C1472 1.574 . S
C1455 C1474 1.368 . S
C1455 H1479 0.949 . S
H1456 C1460 0.949 . S
C1457 C1458 1.349 . S
C1457 C1459 1.327 . S
C1457 H1480 0.950 . S
C1458 C1457 1.349 . S
C1458 C1470 1.349 . S
C1459 C1457 1.327 . S
C1459 C1475 1.429 . S
C1459 H1481 0.950 . S
C1460 H1456 0.949 . S
C1460 C1468 1.574 . S
C1460 C1476 1.368 . S
H1461 C1469 0.950 . S
H1462 C1467 0.950 . S
H1463 C1468 0.949 . S
H1464 C1470 0.950 . S
H1465 C1471 0.950 . S
H1466 C1472 0.949 . S
C1467 H1462 0.950 . S
C1467 C1469 1.327 . S
C1467 C1473 1.429 . S
C1468 C1460 1.574 . S
C1468 H1463 0.949 . S
C1468 C1474 1.368 . S
C1469 C1453 1.349 . S
C1469 H1461 0.950 . S
C1469 C1467 1.327 . S
C1470 C1458 1.349 . S
C1470 H1464 0.950 . S
C1470 C1471 1.327 . S
C1471 H1465 0.950 . S
C1471 C1470 1.327 . S
C1471 C1475 1.429 . S
C1472 C1455 1.574 . S
C1472 H1466 0.949 . S
C1472 C1476 1.368 . S
C1473 C1454 1.429 . S
C1473 C1467 1.429 . S
C1473 C1474 1.523 . S
C1474 C1455 1.368 . S
C1474 C1468 1.368 . S
C1474 C1473 1.523 . S
C1475 C1459 1.429 . S
C1475 C1471 1.429 . S
C1475 C1476 1.523 . S
C1476 C1460 1.368 . S
C1476 C1472 1.368 . S
C1476 C1475 1.523 . S
H1477 C1452 0.950 . S
H1478 C1454 0.950 . S
H1479 C1455 0.949 . S
H1480 C1457 0.950 . S
H1481 C1459 0.950 . S
C1482 C1483 1.349 . S
C1482 C1484 1.327 . S
C1482 H1507 0.950 . S
C1483 C1482 1.349 . S
C1483 C1499 1.349 . S
C1484 C1482 1.327 . S
C1484 C1503 1.429 . S
C1484 H1508 0.950 . S
C1485 C1502 1.574 . S
C1485 C1504 1.368 . S
C1485 H1509 0.949 . S
H1486 C1490 0.949 . S
C1487 C1488 1.349 . S
C1487 C1489 1.327 . S
C1487 H1510 0.950 . S
C1488 C1487 1.349 . S
C1488 C1500 1.349 . S
C1489 C1487 1.327 . S
C1489 C1505 1.429 . S
C1489 H1511 0.950 . S
C1490 H1486 0.949 . S
C1490 C1498 1.574 . S
C1490 C1506 1.368 . S
H1491 C1499 0.950 . S
H1492 C1497 0.950 . S
H1493 C1498 0.949 . S
H1494 C1500 0.950 . S
H1495 C1501 0.950 . S
H1496 C1502 0.949 . S
C1497 H1492 0.950 . S
C1497 C1499 1.327 . S
C1497 C1503 1.429 . S
C1498 C1490 1.574 . S
C1498 H1493 0.949 . S
C1498 C1504 1.368 . S
C1499 C1483 1.349 . S
C1499 H1491 0.950 . S
C1499 C1497 1.327 . S
C1500 C1488 1.349 . S
C1500 H1494 0.950 . S
C1500 C1501 1.327 . S
C1501 H1495 0.950 . S
C1501 C1500 1.327 . S
C1501 C1505 1.429 . S
C1502 C1485 1.574 . S
C1502 H1496 0.949 . S
C1502 C1506 1.368 . S
C1503 C1484 1.429 . S
C1503 C1497 1.429 . S
C1503 C1504 1.523 . S
C1504 C1485 1.368 . S
C1504 C1498 1.368 . S
C1504 C1503 1.523 . S
C1505 C1489 1.429 . S
C1505 C1501 1.429 . S
C1505 C1506 1.523 . S
C1506 C1490 1.368 . S
C1506 C1502 1.368 . S
C1506 C1505 1.523 . S
H1507 C1482 0.950 . S
H1508 C1484 0.950 . S
H1509 C1485 0.949 . S
H1510 C1487 0.950 . S
H1511 C1489 0.950 . S
C1512 C1513 1.349 . S
C1512 C1514 1.327 . S
C1512 H1537 0.950 . S
C1513 C1512 1.349 . S
C1513 C1529 1.349 . S
C1514 C1512 1.327 . S
C1514 C1533 1.429 . S
C1514 H1538 0.950 . S
C1515 C1532 1.574 . S
C1515 C1534 1.368 . S
C1515 H1539 0.949 . S
H1516 C1520 0.949 . S
C1517 C1518 1.349 . S
C1517 C1519 1.327 . S
C1517 H1540 0.950 . S
C1518 C1517 1.349 . S
C1518 C1530 1.349 . S
C1519 C1517 1.327 . S
C1519 C1535 1.429 . S
C1519 H1541 0.950 . S
C1520 H1516 0.949 . S
C1520 C1528 1.574 . S
C1520 C1536 1.368 . S
H1521 C1529 0.950 . S
H1522 C1527 0.950 . S
H1523 C1528 0.949 . S
H1524 C1530 0.950 . S
H1525 C1531 0.950 . S
H1526 C1532 0.949 . S
C1527 H1522 0.950 . S
C1527 C1529 1.327 . S
C1527 C1533 1.429 . S
C1528 C1520 1.574 . S
C1528 H1523 0.949 . S
C1528 C1534 1.368 . S
C1529 C1513 1.349 . S
C1529 H1521 0.950 . S
C1529 C1527 1.327 . S
C1530 C1518 1.349 . S
C1530 H1524 0.950 . S
C1530 C1531 1.327 . S
C1531 H1525 0.950 . S
C1531 C1530 1.327 . S
C1531 C1535 1.429 . S
C1532 C1515 1.574 . S
C1532 H1526 0.949 . S
C1532 C1536 1.368 . S
C1533 C1514 1.429 . S
C1533 C1527 1.429 . S
C1533 C1534 1.523 . S
C1534 C1515 1.368 . S
C1534 C1528 1.368 . S
C1534 C1533 1.523 . S
C1535 C1519 1.429 . S
C1535 C1531 1.429 . S
C1535 C1536 1.523 . S
C1536 C1520 1.368 . S
C1536 C1532 1.368 . S
C1536 C1535 1.523 . S
H1537 C1512 0.950 . S
H1538 C1514 0.950 . S
H1539 C1515 0.949 . S
H1540 C1517 0.950 . S
H1541 C1519 0.950 . S
C1542 C1543 1.349 . S
C1542 C1544 1.327 . S
C1542 H1567 0.950 . S
C1543 C1542 1.349 . S
C1543 C1559 1.349 . S
C1544 C1542 1.327 . S
C1544 C1563 1.429 . S
C1544 H1568 0.950 . S
C1545 C1562 1.574 . S
C1545 C1564 1.368 . S
C1545 H1569 0.949 . S
H1546 C1550 0.949 . S
C1547 C1548 1.349 . S
C1547 C1549 1.327 . S
C1547 H1570 0.950 . S
C1548 C1547 1.349 . S
C1548 C1560 1.349 . S
C1549 C1547 1.327 . S
C1549 C1565 1.429 . S
C1549 H1571 0.950 . S
C1550 H1546 0.949 . S
C1550 C1558 1.574 . S
C1550 C1566 1.368 . S
H1551 C1559 0.950 . S
H1552 C1557 0.950 . S
H1553 C1558 0.949 . S
H1554 C1560 0.950 . S
H1555 C1561 0.950 . S
H1556 C1562 0.949 . S
C1557 H1552 0.950 . S
C1557 C1559 1.327 . S
C1557 C1563 1.429 . S
C1558 C1550 1.574 . S
C1558 H1553 0.949 . S
C1558 C1564 1.368 . S
C1559 C1543 1.349 . S
C1559 H1551 0.950 . S
C1559 C1557 1.327 . S
C1560 C1548 1.349 . S
C1560 H1554 0.950 . S
C1560 C1561 1.327 . S
C1561 H1555 0.950 . S
C1561 C1560 1.327 . S
C1561 C1565 1.429 . S
C1562 C1545 1.574 . S
C1562 H1556 0.949 . S
C1562 C1566 1.368 . S
C1563 C1544 1.429 . S
C1563 C1557 1.429 . S
C1563 C1564 1.523 . S
C1564 C1545 1.368 . S
C1564 C1558 1.368 . S
C1564 C1563 1.523 . S
C1565 C1549 1.429 . S
C1565 C1561 1.429 . S
C1565 C1566 1.523 . S
C1566 C1550 1.368 . S
C1566 C1562 1.368 . S
C1566 C1565 1.523 . S
H1567 C1542 0.950 . S
H1568 C1544 0.950 . S
H1569 C1545 0.949 . S
H1570 C1547 0.950 . S
H1571 C1549 0.950 . S
C1572 C1573 1.349 . S
C1572 C1574 1.327 . S
C1572 H1597 0.950 . S
C1573 C1572 1.349 . S
C1573 C1589 1.349 . S
C1574 C1572 1.327 . S
C1574 C1593 1.429 . S
C1574 H1598 0.950 . S
C1575 C1592 1.574 . S
C1575 C1594 1.368 . S
C1575 H1599 0.949 . S
H1576 C1580 0.949 . S
C1577 C1578 1.349 . S
C1577 C1579 1.327 . S
C1577 H1600 0.950 . S
C1578 C1577 1.349 . S
C1578 C1590 1.349 . S
C1579 C1577 1.327 . S
C1579 C1595 1.429 . S
C1579 H1601 0.950 . S
C1580 H1576 0.949 . S
C1580 C1588 1.574 . S
C1580 C1596 1.368 . S
H1581 C1589 0.950 . S
H1582 C1587 0.950 . S
H1583 C1588 0.949 . S
H1584 C1590 0.950 . S
H1585 C1591 0.950 . S
H1586 C1592 0.949 . S
C1587 H1582 0.950 . S
C1587 C1589 1.327 . S
C1587 C1593 1.429 . S
C1588 C1580 1.574 . S
C1588 H1583 0.949 . S
C1588 C1594 1.368 . S
C1589 C1573 1.349 . S
C1589 H1581 0.950 . S
C1589 C1587 1.327 . S
C1590 C1578 1.349 . S
C1590 H1584 0.950 . S
C1590 C1591 1.327 . S
C1591 H1585 0.950 . S
C1591 C1590 1.327 . S
C1591 C1595 1.429 . S
C1592 C1575 1.574 . S
C1592 H1586 0.949 . S
C1592 C1596 1.368 . S
C1593 C1574 1.429 . S
C1593 C1587 1.429 . S
C1593 C1594 1.523 . S
C1594 C1575 1.368 . S
C1594 C1588 1.368 . S
C1594 C1593 1.523 . S
C1595 C1579 1.429 . S
C1595 C1591 1.429 . S
C1595 C1596 1.523 . S
C1596 C1580 1.368 . S
C1596 C1592 1.368 . S
C1596 C1595 1.523 . S
H1597 C1572 0.950 . S
H1598 C1574 0.950 . S
H1599 C1575 0.949 . S
H1600 C1577 0.950 . S
H1601 C1579 0.950 . S
C1602 C1603 1.349 . S
C1602 C1604 1.327 . S
C1602 H1627 0.950 . S
C1603 C1602 1.349 . S
C1603 C1619 1.349 . S
C1604 C1602 1.327 . S
C1604 C1623 1.429 . S
C1604 H1628 0.950 . S
C1605 C1622 1.574 . S
C1605 C1624 1.368 . S
C1605 H1629 0.949 . S
H1606 C1610 0.949 . S
C1607 C1608 1.349 . S
C1607 C1609 1.327 . S
C1607 H1630 0.950 . S
C1608 C1607 1.349 . S
C1608 C1620 1.349 . S
C1609 C1607 1.327 . S
C1609 C1625 1.429 . S
C1609 H1631 0.950 . S
C1610 H1606 0.949 . S
C1610 C1618 1.574 . S
C1610 C1626 1.368 . S
H1611 C1619 0.950 . S
H1612 C1617 0.950 . S
H1613 C1618 0.949 . S
H1614 C1620 0.950 . S
H1615 C1621 0.950 . S
H1616 C1622 0.949 . S
C1617 H1612 0.950 . S
C1617 C1619 1.327 . S
C1617 C1623 1.429 . S
C1618 C1610 1.574 . S
C1618 H1613 0.949 . S
C1618 C1624 1.368 . S
C1619 C1603 1.349 . S
C1619 H1611 0.950 . S
C1619 C1617 1.327 . S
C1620 C1608 1.349 . S
C1620 H1614 0.950 . S
C1620 C1621 1.327 . S
C1621 H1615 0.950 . S
C1621 C1620 1.327 . S
C1621 C1625 1.429 . S
C1622 C1605 1.574 . S
C1622 H1616 0.949 . S
C1622 C1626 1.368 . S
C1623 C1604 1.429 . S
C1623 C1617 1.429 . S
C1623 C1624 1.523 . S
C1624 C1605 1.368 . S
C1624 C1618 1.368 . S
C1624 C1623 1.523 . S
C1625 C1609 1.429 . S
C1625 C1621 1.429 . S
C1625 C1626 1.523 . S
C1626 C1610 1.368 . S
C1626 C1622 1.368 . S
C1626 C1625 1.523 . S
H1627 C1602 0.950 . S
H1628 C1604 0.950 . S
H1629 C1605 0.949 . S
H1630 C1607 0.950 . S
H1631 C1609 0.950 . S
C1632 C1633 1.349 . S
C1632 C1634 1.327 . S
C1632 H1657 0.950 . S
C1633 C1632 1.349 . S
C1633 C1649 1.349 . S
C1634 C1632 1.327 . S
C1634 C1653 1.429 . S
C1634 H1658 0.950 . S
C1635 C1652 1.574 . S
C1635 C1654 1.368 . S
C1635 H1659 0.949 . S
H1636 C1640 0.949 . S
C1637 C1638 1.349 . S
C1637 C1639 1.327 . S
C1637 H1660 0.950 . S
C1638 C1637 1.349 . S
C1638 C1650 1.349 . S
C1639 C1637 1.327 . S
C1639 C1655 1.429 . S
C1639 H1661 0.950 . S
C1640 H1636 0.949 . S
C1640 C1648 1.574 . S
C1640 C1656 1.368 . S
H1641 C1649 0.950 . S
H1642 C1647 0.950 . S
H1643 C1648 0.949 . S
H1644 C1650 0.950 . S
H1645 C1651 0.950 . S
H1646 C1652 0.949 . S
C1647 H1642 0.950 . S
C1647 C1649 1.327 . S
C1647 C1653 1.429 . S
C1648 C1640 1.574 . S
C1648 H1643 0.949 . S
C1648 C1654 1.368 . S
C1649 C1633 1.349 . S
C1649 H1641 0.950 . S
C1649 C1647 1.327 . S
C1650 C1638 1.349 . S
C1650 H1644 0.950 . S
C1650 C1651 1.327 . S
C1651 H1645 0.950 . S
C1651 C1650 1.327 . S
C1651 C1655 1.429 . S
C1652 C1635 1.574 . S
C1652 H1646 0.949 . S
C1652 C1656 1.368 . S
C1653 C1634 1.429 . S
C1653 C1647 1.429 . S
C1653 C1654 1.523 . S
C1654 C1635 1.368 . S
C1654 C1648 1.368 . S
C1654 C1653 1.523 . S
C1655 C1639 1.429 . S
C1655 C1651 1.429 . S
C1655 C1656 1.523 . S
C1656 C1640 1.368 . S
C1656 C1652 1.368 . S
C1656 C1655 1.523 . S
H1657 C1632 0.950 . S
H1658 C1634 0.950 . S
H1659 C1635 0.949 . S
H1660 C1637 0.950 . S
H1661 C1639 0.950 . S
C1662 C1663 1.349 . S
C1662 C1664 1.327 . S
C1662 H1687 0.950 . S
C1663 C1662 1.349 . S
C1663 C1679 1.349 . S
C1664 C1662 1.327 . S
C1664 C1683 1.429 . S
C1664 H1688 0.950 . S
C1665 C1682 1.574 . S
C1665 C1684 1.368 . S
C1665 H1689 0.949 . S
H1666 C1670 0.949 . S
C1667 C1668 1.349 . S
C1667 C1669 1.327 . S
C1667 H1690 0.950 . S
C1668 C1667 1.349 . S
C1668 C1680 1.349 . S
C1669 C1667 1.327 . S
C1669 C1685 1.429 . S
C1669 H1691 0.950 . S
C1670 H1666 0.949 . S
C1670 C1678 1.574 . S
C1670 C1686 1.368 . S
H1671 C1679 0.950 . S
H1672 C1677 0.950 . S
H1673 C1678 0.949 . S
H1674 C1680 0.950 . S
H1675 C1681 0.950 . S
H1676 C1682 0.949 . S
C1677 H1672 0.950 . S
C1677 C1679 1.327 . S
C1677 C1683 1.429 . S
C1678 C1670 1.574 . S
C1678 H1673 0.949 . S
C1678 C1684 1.368 . S
C1679 C1663 1.349 . S
C1679 H1671 0.950 . S
C1679 C1677 1.327 . S
C1680 C1668 1.349 . S
C1680 H1674 0.950 . S
C1680 C1681 1.327 . S
C1681 H1675 0.950 . S
C1681 C1680 1.327 . S
C1681 C1685 1.429 . S
C1682 C1665 1.574 . S
C1682 H1676 0.949 . S
C1682 C1686 1.368 . S
C1683 C1664 1.429 . S
C1683 C1677 1.429 . S
C1683 C1684 1.523 . S
C1684 C1665 1.368 . S
C1684 C1678 1.368 . S
C1684 C1683 1.523 . S
C1685 C1669 1.429 . S
C1685 C1681 1.429 . S
C1685 C1686 1.523 . S
C1686 C1670 1.368 . S
C1686 C1682 1.368 . S
C1686 C1685 1.523 . S
H1687 C1662 0.950 . S
H1688 C1664 0.950 . S
H1689 C1665 0.949 . S
H1690 C1667 0.950 . S
H1691 C1669 0.950 . S
C1692 C1693 1.349 . S
C1692 C1694 1.327 . S
C1692 H1717 0.950 . S
C1693 C1692 1.349 . S
C1693 C1709 1.349 . S
C1694 C1692 1.327 . S
C1694 C1713 1.429 . S
C1694 H1718 0.950 . S
C1695 C1712 1.574 . S
C1695 C1714 1.368 . S
C1695 H1719 0.949 . S
H1696 C1700 0.949 . S
C1697 C1698 1.349 . S
C1697 C1699 1.327 . S
C1697 H1720 0.950 . S
C1698 C1697 1.349 . S
C1698 C1710 1.349 . S
C1699 C1697 1.327 . S
C1699 C1715 1.429 . S
C1699 H1721 0.950 . S
C1700 H1696 0.949 . S
C1700 C1708 1.574 . S
C1700 C1716 1.368 . S
H1701 C1709 0.950 . S
H1702 C1707 0.950 . S
H1703 C1708 0.949 . S
H1704 C1710 0.950 . S
H1705 C1711 0.950 . S
H1706 C1712 0.949 . S
C1707 H1702 0.950 . S
C1707 C1709 1.327 . S
C1707 C1713 1.429 . S
C1708 C1700 1.574 . S
C1708 H1703 0.949 . S
C1708 C1714 1.368 . S
C1709 C1693 1.349 . S
C1709 H1701 0.950 . S
C1709 C1707 1.327 . S
C1710 C1698 1.349 . S
C1710 H1704 0.950 . S
C1710 C1711 1.327 . S
C1711 H1705 0.950 . S
C1711 C1710 1.327 . S
C1711 C1715 1.429 . S
C1712 C1695 1.574 . S
C1712 H1706 0.949 . S
C1712 C1716 1.368 . S
C1713 C1694 1.429 . S
C1713 C1707 1.429 . S
C1713 C1714 1.523 . S
C1714 C1695 1.368 . S
C1714 C1708 1.368 . S
C1714 C1713 1.523 . S
C1715 C1699 1.429 . S
C1715 C1711 1.429 . S
C1715 C1716 1.523 . S
C1716 C1700 1.368 . S
C1716 C1712 1.368 . S
C1716 C1715 1.523 . S
H1717 C1692 0.950 . S
H1718 C1694 0.950 . S
H1719 C1695 0.949 . S
H1720 C1697 0.950 . S
H1721 C1699 0.950 . S
C1722 C1723 1.349 . S
C1722 C1724 1.327 . S
C1722 H1747 0.950 . S
C1723 C1722 1.349 . S
C1723 C1739 1.349 . S
C1724 C1722 1.327 . S
C1724 C1743 1.429 . S
C1724 H1748 0.950 . S
C1725 C1742 1.574 . S
C1725 C1744 1.368 . S
C1725 H1749 0.949 . S
H1726 C1730 0.949 . S
C1727 C1728 1.349 . S
C1727 C1729 1.327 . S
C1727 H1750 0.950 . S
C1728 C1727 1.349 . S
C1728 C1740 1.349 . S
C1729 C1727 1.327 . S
C1729 C1745 1.429 . S
C1729 H1751 0.950 . S
C1730 H1726 0.949 . S
C1730 C1738 1.574 . S
C1730 C1746 1.368 . S
H1731 C1739 0.950 . S
H1732 C1737 0.950 . S
H1733 C1738 0.949 . S
H1734 C1740 0.950 . S
H1735 C1741 0.950 . S
H1736 C1742 0.949 . S
C1737 H1732 0.950 . S
C1737 C1739 1.327 . S
C1737 C1743 1.429 . S
C1738 C1730 1.574 . S
C1738 H1733 0.949 . S
C1738 C1744 1.368 . S
C1739 C1723 1.349 . S
C1739 H1731 0.950 . S
C1739 C1737 1.327 . S
C1740 C1728 1.349 . S
C1740 H1734 0.950 . S
C1740 C1741 1.327 . S
C1741 H1735 0.950 . S
C1741 C1740 1.327 . S
C1741 C1745 1.429 . S
C1742 C1725 1.574 . S
C1742 H1736 0.949 . S
C1742 C1746 1.368 . S
C1743 C1724 1.429 . S
C1743 C1737 1.429 . S
C1743 C1744 1.523 . S
C1744 C1725 1.368 . S
C1744 C1738 1.368 . S
C1744 C1743 1.523 . S
C1745 C1729 1.429 . S
C1745 C1741 1.429 . S
C1745 C1746 1.523 . S
C1746 C1730 1.368 . S
C1746 C1742 1.368 . S
C1746 C1745 1.523 . S
H1747 C1722 0.950 . S
H1748 C1724 0.950 . S
H1749 C1725 0.949 . S
H1750 C1727 0.950 . S
H1751 C1729 0.950 . S
C1752 C1753 1.349 . S
C1752 C1754 1.327 . S
C1752 H1777 0.950 . S
C1753 C1752 1.349 . S
C1753 C1769 1.349 . S
C1754 C1752 1.327 . S
C1754 C1773 1.429 . S
C1754 H1778 0.950 . S
C1755 C1772 1.574 . S
C1755 C1774 1.368 . S
C1755 H1779 0.949 . S
H1756 C1760 0.949 . S
C1757 C1758 1.349 . S
C1757 C1759 1.327 . S
C1757 H1780 0.950 . S
C1758 C1757 1.349 . S
C1758 C1770 1.349 . S
C1759 C1757 1.327 . S
C1759 C1775 1.429 . S
C1759 H1781 0.950 . S
C1760 H1756 0.949 . S
C1760 C1768 1.574 . S
C1760 C1776 1.368 . S
H1761 C1769 0.950 . S
H1762 C1767 0.950 . S
H1763 C1768 0.949 . S
H1764 C1770 0.950 . S
H1765 C1771 0.950 . S
H1766 C1772 0.949 . S
C1767 H1762 0.950 . S
C1767 C1769 1.327 . S
C1767 C1773 1.429 . S
C1768 C1760 1.574 . S
C1768 H1763 0.949 . S
C1768 C1774 1.368 . S
C1769 C1753 1.349 . S
C1769 H1761 0.950 . S
C1769 C1767 1.327 . S
C1770 C1758 1.349 . S
C1770 H1764 0.950 . S
C1770 C1771 1.327 . S
C1771 H1765 0.950 . S
C1771 C1770 1.327 . S
C1771 C1775 1.429 . S
C1772 C1755 1.574 . S
C1772 H1766 0.949 . S
C1772 C1776 1.368 . S
C1773 C1754 1.429 . S
C1773 C1767 1.429 . S
C1773 C1774 1.523 . S
C1774 C1755 1.368 . S
C1774 C1768 1.368 . S
C1774 C1773 1.523 . S
C1775 C1759 1.429 . S
C1775 C1771 1.429 . S
C1775 C1776 1.523 . S
C1776 C1760 1.368 . S
C1776 C1772 1.368 . S
C1776 C1775 1.523 . S
H1777 C1752 0.950 . S
H1778 C1754 0.950 . S
H1779 C1755 0.949 . S
H1780 C1757 0.950 . S
H1781 C1759 0.950 . S
C1782 C1783 1.349 . S
C1782 C1784 1.327 . S
C1782 H1807 0.950 . S
C1783 C1782 1.349 . S
C1783 C1799 1.349 . S
C1784 C1782 1.327 . S
C1784 C1803 1.429 . S
C1784 H1808 0.950 . S
C1785 C1802 1.574 . S
C1785 C1804 1.368 . S
C1785 H1809 0.949 . S
H1786 C1790 0.949 . S
C1787 C1788 1.349 . S
C1787 C1789 1.327 . S
C1787 H1810 0.950 . S
C1788 C1787 1.349 . S
C1788 C1800 1.349 . S
C1789 C1787 1.327 . S
C1789 C1805 1.429 . S
C1789 H1811 0.950 . S
C1790 H1786 0.949 . S
C1790 C1798 1.574 . S
C1790 C1806 1.368 . S
H1791 C1799 0.950 . S
H1792 C1797 0.950 . S
H1793 C1798 0.949 . S
H1794 C1800 0.950 . S
H1795 C1801 0.950 . S
H1796 C1802 0.949 . S
C1797 H1792 0.950 . S
C1797 C1799 1.327 . S
C1797 C1803 1.429 . S
C1798 C1790 1.574 . S
C1798 H1793 0.949 . S
C1798 C1804 1.368 . S
C1799 C1783 1.349 . S
C1799 H1791 0.950 . S
C1799 C1797 1.327 . S
C1800 C1788 1.349 . S
C1800 H1794 0.950 . S
C1800 C1801 1.327 . S
C1801 H1795 0.950 . S
C1801 C1800 1.327 . S
C1801 C1805 1.429 . S
C1802 C1785 1.574 . S
C1802 H1796 0.949 . S
C1802 C1806 1.368 . S
C1803 C1784 1.429 . S
C1803 C1797 1.429 . S
C1803 C1804 1.523 . S
C1804 C1785 1.368 . S
C1804 C1798 1.368 . S
C1804 C1803 1.523 . S
C1805 C1789 1.429 . S
C1805 C1801 1.429 . S
C1805 C1806 1.523 . S
C1806 C1790 1.368 . S
C1806 C1802 1.368 . S
C1806 C1805 1.523 . S
H1807 C1782 0.950 . S
H1808 C1784 0.950 . S
H1809 C1785 0.949 . S
H1810 C1787 0.950 . S
H1811 C1789 0.950 . S
C1812 C1813 1.349 . S
C1812 C1814 1.327 . S
C1812 H1837 0.950 . S
C1813 C1812 1.349 . S
C1813 C1829 1.349 . S
C1814 C1812 1.327 . S
C1814 C1833 1.429 . S
C1814 H1838 0.950 . S
C1815 C1832 1.574 . S
C1815 C1834 1.368 . S
C1815 H1839 0.949 . S
H1816 C1820 0.949 . S
C1817 C1818 1.349 . S
C1817 C1819 1.327 . S
C1817 H1840 0.950 . S
C1818 C1817 1.349 . S
C1818 C1830 1.349 . S
C1819 C1817 1.327 . S
C1819 C1835 1.429 . S
C1819 H1841 0.950 . S
C1820 H1816 0.949 . S
C1820 C1828 1.574 . S
C1820 C1836 1.368 . S
H1821 C1829 0.950 . S
H1822 C1827 0.950 . S
H1823 C1828 0.949 . S
H1824 C1830 0.950 . S
H1825 C1831 0.950 . S
H1826 C1832 0.949 . S
C1827 H1822 0.950 . S
C1827 C1829 1.327 . S
C1827 C1833 1.429 . S
C1828 C1820 1.574 . S
C1828 H1823 0.949 . S
C1828 C1834 1.368 . S
C1829 C1813 1.349 . S
C1829 H1821 0.950 . S
C1829 C1827 1.327 . S
C1830 C1818 1.349 . S
C1830 H1824 0.950 . S
C1830 C1831 1.327 . S
C1831 H1825 0.950 . S
C1831 C1830 1.327 . S
C1831 C1835 1.429 . S
C1832 C1815 1.574 . S
C1832 H1826 0.949 . S
C1832 C1836 1.368 . S
C1833 C1814 1.429 . S
C1833 C1827 1.429 . S
C1833 C1834 1.523 . S
C1834 C1815 1.368 . S
C1834 C1828 1.368 . S
C1834 C1833 1.523 . S
C1835 C1819 1.429 . S
C1835 C1831 1.429 . S
C1835 C1836 1.523 . S
C1836 C1820 1.368 . S
C1836 C1832 1.368 . S
C1836 C1835 1.523 . S
H1837 C1812 0.950 . S
H1838 C1814 0.950 . S
H1839 C1815 0.949 . S
H1840 C1817 0.950 . S
H1841 C1819 0.950 . S
C1842 C1843 1.349 . S
C1842 C1844 1.327 . S
C1842 H1867 0.950 . S
C1843 C1842 1.349 . S
C1843 C1859 1.349 . S
C1844 C1842 1.327 . S
C1844 C1863 1.429 . S
C1844 H1868 0.950 . S
C1845 C1862 1.574 . S
C1845 C1864 1.368 . S
C1845 H1869 0.949 . S
H1846 C1850 0.949 . S
C1847 C1848 1.349 . S
C1847 C1849 1.327 . S
C1847 H1870 0.950 . S
C1848 C1847 1.349 . S
C1848 C1860 1.349 . S
C1849 C1847 1.327 . S
C1849 C1865 1.429 . S
C1849 H1871 0.950 . S
C1850 H1846 0.949 . S
C1850 C1858 1.574 . S
C1850 C1866 1.368 . S
H1851 C1859 0.950 . S
H1852 C1857 0.950 . S
H1853 C1858 0.949 . S
H1854 C1860 0.950 . S
H1855 C1861 0.950 . S
H1856 C1862 0.949 . S
C1857 H1852 0.950 . S
C1857 C1859 1.327 . S
C1857 C1863 1.429 . S
C1858 C1850 1.574 . S
C1858 H1853 0.949 . S
C1858 C1864 1.368 . S
C1859 C1843 1.349 . S
C1859 H1851 0.950 . S
C1859 C1857 1.327 . S
C1860 C1848 1.349 . S
C1860 H1854 0.950 . S
C1860 C1861 1.327 . S
C1861 H1855 0.950 . S
C1861 C1860 1.327 . S
C1861 C1865 1.429 . S
C1862 C1845 1.574 . S
C1862 H1856 0.949 . S
C1862 C1866 1.368 . S
C1863 C1844 1.429 . S
C1863 C1857 1.429 . S
C1863 C1864 1.523 . S
C1864 C1845 1.368 . S
C1864 C1858 1.368 . S
C1864 C1863 1.523 . S
C1865 C1849 1.429 . S
C1865 C1861 1.429 . S
C1865 C1866 1.523 . S
C1866 C1850 1.368 . S
C1866 C1862 1.368 . S
C1866 C1865 1.523 . S
H1867 C1842 0.950 . S
H1868 C1844 0.950 . S
H1869 C1845 0.949 . S
H1870 C1847 0.950 . S
H1871 C1849 0.950 . S
C1872 C1873 1.349 . S
C1872 C1874 1.327 . S
C1872 H1897 0.950 . S
C1873 C1872 1.349 . S
C1873 C1889 1.349 . S
C1874 C1872 1.327 . S
C1874 C1893 1.429 . S
C1874 H1898 0.950 . S
C1875 C1892 1.574 . S
C1875 C1894 1.368 . S
C1875 H1899 0.949 . S
H1876 C1880 0.949 . S
C1877 C1878 1.349 . S
C1877 C1879 1.327 . S
C1877 H1900 0.950 . S
C1878 C1877 1.349 . S
C1878 C1890 1.349 . S
C1879 C1877 1.327 . S
C1879 C1895 1.429 . S
C1879 H1901 0.950 . S
C1880 H1876 0.949 . S
C1880 C1888 1.574 . S
C1880 C1896 1.368 . S
H1881 C1889 0.950 . S
H1882 C1887 0.950 . S
H1883 C1888 0.949 . S
H1884 C1890 0.950 . S
H1885 C1891 0.950 . S
H1886 C1892 0.949 . S
C1887 H1882 0.950 . S
C1887 C1889 1.327 . S
C1887 C1893 1.429 . S
C1888 C1880 1.574 . S
C1888 H1883 0.949 . S
C1888 C1894 1.368 . S
C1889 C1873 1.349 . S
C1889 H1881 0.950 . S
C1889 C1887 1.327 . S
C1890 C1878 1.349 . S
C1890 H1884 0.950 . S
C1890 C1891 1.327 . S
C1891 H1885 0.950 . S
C1891 C1890 1.327 . S
C1891 C1895 1.429 . S
C1892 C1875 1.574 . S
C1892 H1886 0.949 . S
C1892 C1896 1.368 . S
C1893 C1874 1.429 . S
C1893 C1887 1.429 . S
C1893 C1894 1.523 . S
C1894 C1875 1.368 . S
C1894 C1888 1.368 . S
C1894 C1893 1.523 . S
C1895 C1879 1.429 . S
C1895 C1891 1.429 . S
C1895 C1896 1.523 . S
C1896 C1880 1.368 . S
C1896 C1892 1.368 . S
C1896 C1895 1.523 . S
H1897 C1872 0.950 . S
H1898 C1874 0.950 . S
H1899 C1875 0.949 . S
H1900 C1877 0.950 . S
H1901 C1879 0.950 . S
C1902 C1903 1.349 . S
C1902 C1904 1.327 . S
C1902 H1927 0.950 . S
C1903 C1902 1.349 . S
C1903 C1919 1.349 . S
C1904 C1902 1.327 . S
C1904 C1923 1.429 . S
C1904 H1928 0.950 . S
C1905 C1922 1.574 . S
C1905 C1924 1.368 . S
C1905 H1929 0.949 . S
H1906 C1910 0.949 . S
C1907 C1908 1.349 . S
C1907 C1909 1.327 . S
C1907 H1930 0.950 . S
C1908 C1907 1.349 . S
C1908 C1920 1.349 . S
C1909 C1907 1.327 . S
C1909 C1925 1.429 . S
C1909 H1931 0.950 . S
C1910 H1906 0.949 . S
C1910 C1918 1.574 . S
C1910 C1926 1.368 . S
H1911 C1919 0.950 . S
H1912 C1917 0.950 . S
H1913 C1918 0.949 . S
H1914 C1920 0.950 . S
H1915 C1921 0.950 . S
H1916 C1922 0.949 . S
C1917 H1912 0.950 . S
C1917 C1919 1.327 . S
C1917 C1923 1.429 . S
C1918 C1910 1.574 . S
C1918 H1913 0.949 . S
C1918 C1924 1.368 . S
C1919 C1903 1.349 . S
C1919 H1911 0.950 . S
C1919 C1917 1.327 . S
C1920 C1908 1.349 . S
C1920 H1914 0.950 . S
C1920 C1921 1.327 . S
C1921 H1915 0.950 . S
C1921 C1920 1.327 . S
C1921 C1925 1.429 . S
C1922 C1905 1.574 . S
C1922 H1916 0.949 . S
C1922 C1926 1.368 . S
C1923 C1904 1.429 . S
C1923 C1917 1.429 . S
C1923 C1924 1.523 . S
C1924 C1905 1.368 . S
C1924 C1918 1.368 . S
C1924 C1923 1.523 . S
C1925 C1909 1.429 . S
C1925 C1921 1.429 . S
C1925 C1926 1.523 . S
C1926 C1910 1.368 . S
C1926 C1922 1.368 . S
C1926 C1925 1.523 . S
H1927 C1902 0.950 . S
H1928 C1904 0.950 . S
H1929 C1905 0.949 . S
H1930 C1907 0.950 . S
H1931 C1909 0.950 . S
C1932 C1933 1.349 . S
C1932 C1934 1.327 . S
C1932 H1957 0.950 . S
C1933 C1932 1.349 . S
C1933 C1949 1.349 . S
C1934 C1932 1.327 . S
C1934 C1953 1.429 . S
C1934 H1958 0.950 . S
C1935 C1952 1.574 . S
C1935 C1954 1.368 . S
C1935 H1959 0.949 . S
H1936 C1940 0.949 . S
C1937 C1938 1.349 . S
C1937 C1939 1.327 . S
C1937 H1960 0.950 . S
C1938 C1937 1.349 . S
C1938 C1950 1.349 . S
C1939 C1937 1.327 . S
C1939 C1955 1.429 . S
C1939 H1961 0.950 . S
C1940 H1936 0.949 . S
C1940 C1948 1.574 . S
C1940 C1956 1.368 . S
H1941 C1949 0.950 . S
H1942 C1947 0.950 . S
H1943 C1948 0.949 . S
H1944 C1950 0.950 . S
H1945 C1951 0.950 . S
H1946 C1952 0.949 . S
C1947 H1942 0.950 . S
C1947 C1949 1.327 . S
C1947 C1953 1.429 . S
C1948 C1940 1.574 . S
C1948 H1943 0.949 . S
C1948 C1954 1.368 . S
C1949 C1933 1.349 . S
C1949 H1941 0.950 . S
C1949 C1947 1.327 . S
C1950 C1938 1.349 . S
C1950 H1944 0.950 . S
C1950 C1951 1.327 . S
C1951 H1945 0.950 . S
C1951 C1950 1.327 . S
C1951 C1955 1.429 . S
C1952 C1935 1.574 . S
C1952 H1946 0.949 . S
C1952 C1956 1.368 . S
C1953 C1934 1.429 . S
C1953 C1947 1.429 . S
C1953 C1954 1.523 . S
C1954 C1935 1.368 . S
C1954 C1948 1.368 . S
C1954 C1953 1.523 . S
C1955 C1939 1.429 . S
C1955 C1951 1.429 . S
C1955 C1956 1.523 . S
C1956 C1940 1.368 . S
C1956 C1952 1.368 . S
C1956 C1955 1.523 . S
H1957 C1932 0.950 . S
H1958 C1934 0.950 . S
H1959 C1935 0.949 . S
H1960 C1937 0.950 . S
H1961 C1939 0.950 . S
C1962 C1963 1.349 . S
C1962 C1964 1.327 . S
C1962 H1987 0.950 . S
C1963 C1962 1.349 . S
C1963 C1979 1.349 . S
C1964 C1962 1.327 . S
C1964 C1983 1.429 . S
C1964 H1988 0.950 . S
C1965 C1982 1.574 . S
C1965 C1984 1.368 . S
C1965 H1989 0.949 . S
H1966 C1970 0.949 . S
C1967 C1968 1.349 . S
C1967 C1969 1.327 . S
C1967 H1990 0.950 . S
C1968 C1967 1.349 . S
C1968 C1980 1.349 . S
C1969 C1967 1.327 . S
C1969 C1985 1.429 . S
C1969 H1991 0.950 . S
C1970 H1966 0.949 . S
C1970 C1978 1.574 . S
C1970 C1986 1.368 . S
H1971 C1979 0.950 . S
H1972 C1977 0.950 . S
H1973 C1978 0.949 . S
H1974 C1980 0.950 . S
H1975 C1981 0.950 . S
H1976 C1982 0.949 . S
C1977 H1972 0.950 . S
C1977 C1979 1.327 . S
C1977 C1983 1.429 . S
C1978 C1970 1.574 . S
C1978 H1973 0.949 . S
C1978 C1984 1.368 . S
C1979 C1963 1.349 . S
C1979 H1971 0.950 . S
C1979 C1977 1.327 . S
C1980 C1968 1.349 . S
C1980 H1974 0.950 . S
C1980 C1981 1.327 . S
C1981 H1975 0.950 . S
C1981 C1980 1.327 . S
C1981 C1985 1.429 . S
C1982 C1965 1.574 . S
C1982 H1976 0.949 . S
C1982 C1986 1.368 . S
C1983 C1964 1.429 . S
C1983 C1977 1.429 . S
C1983 C1984 1.523 . S
C1984 C1965 1.368 . S
C1984 C1978 1.368 . S
C1984 C1983 1.523 . S
C1985 C1969 1.429 . S
C1985 C1981 1.429 . S
C1985 C1986 1.523 . S
C1986 C1970 1.368 . S
C1986 C1982 1.368 . S
C1986 C1985 1.523 . S
H1987 C1962 0.950 . S
H1988 C1964 0.950 . S
H1989 C1965 0.949 . S
H1990 C1967 0.950 . S
H1991 C1969 0.950 . S
C1992 C1993 1.349 . S
C1992 C1994 1.327 . S
C1992 H2017 0.950 . S
C1993 C1992 1.349 . S
C1993 C2009 1.349 . S
C1994 C1992 1.327 . S
C1994 C2013 1.429 . S
C1994 H2018 0.950 . S
C1995 C2012 1.574 . S
C1995 C2014 1.368 . S
C1995 H2019 0.949 . S
H1996 C2000 0.949 . S
C1997 C1998 1.349 . S
C1997 C1999 1.327 . S
C1997 H2020 0.950 . S
C1998 C1997 1.349 . S
C1998 C2010 1.349 . S
C1999 C1997 1.327 . S
C1999 C2015 1.429 . S
C1999 H2021 0.950 . S
C2000 H1996 0.949 . S
C2000 C2008 1.574 . S
C2000 C2016 1.368 . S
H2001 C2009 0.950 . S
H2002 C2007 0.950 . S
H2003 C2008 0.949 . S
H2004 C2010 0.950 . S
H2005 C2011 0.950 . S
H2006 C2012 0.949 . S
C2007 H2002 0.950 . S
C2007 C2009 1.327 . S
C2007 C2013 1.429 . S
C2008 C2000 1.574 . S
C2008 H2003 0.949 . S
C2008 C2014 1.368 . S
C2009 C1993 1.349 . S
C2009 H2001 0.950 . S
C2009 C2007 1.327 . S
C2010 C1998 1.349 . S
C2010 H2004 0.950 . S
C2010 C2011 1.327 . S
C2011 H2005 0.950 . S
C2011 C2010 1.327 . S
C2011 C2015 1.429 . S
C2012 C1995 1.574 . S
C2012 H2006 0.949 . S
C2012 C2016 1.368 . S
C2013 C1994 1.429 . S
C2013 C2007 1.429 . S
C2013 C2014 1.523 . S
C2014 C1995 1.368 . S
C2014 C2008 1.368 . S
C2014 C2013 1.523 . S
C2015 C1999 1.429 . S
C2015 C2011 1.429 . S
C2015 C2016 1.523 . S
C2016 C2000 1.368 . S
C2016 C2012 1.368 . S
C2016 C2015 1.523 . S
H2017 C1992 0.950 . S
H2018 C1994 0.950 . S
H2019 C1995 0.949 . S
H2020 C1997 0.950 . S
H2021 C1999 0.950 . S
C2022 C2023 1.349 . S
C2022 C2024 1.327 . S
C2022 H2047 0.950 . S
C2023 C2022 1.349 . S
C2023 C2039 1.349 . S
C2024 C2022 1.327 . S
C2024 C2043 1.429 . S
C2024 H2048 0.950 . S
C2025 C2042 1.574 . S
C2025 C2044 1.368 . S
C2025 H2049 0.949 . S
H2026 C2030 0.949 . S
C2027 C2028 1.349 . S
C2027 C2029 1.327 . S
C2027 H2050 0.950 . S
C2028 C2027 1.349 . S
C2028 C2040 1.349 . S
C2029 C2027 1.327 . S
C2029 C2045 1.429 . S
C2029 H2051 0.950 . S
C2030 H2026 0.949 . S
C2030 C2038 1.574 . S
C2030 C2046 1.368 . S
H2031 C2039 0.950 . S
H2032 C2037 0.950 . S
H2033 C2038 0.949 . S
H2034 C2040 0.950 . S
H2035 C2041 0.950 . S
H2036 C2042 0.949 . S
C2037 H2032 0.950 . S
C2037 C2039 1.327 . S
C2037 C2043 1.429 . S
C2038 C2030 1.574 . S
C2038 H2033 0.949 . S
C2038 C2044 1.368 . S
C2039 C2023 1.349 . S
C2039 H2031 0.950 . S
C2039 C2037 1.327 . S
C2040 C2028 1.349 . S
C2040 H2034 0.950 . S
C2040 C2041 1.327 . S
C2041 H2035 0.950 . S
C2041 C2040 1.327 . S
C2041 C2045 1.429 . S
C2042 C2025 1.574 . S
C2042 H2036 0.949 . S
C2042 C2046 1.368 . S
C2043 C2024 1.429 . S
C2043 C2037 1.429 . S
C2043 C2044 1.523 . S
C2044 C2025 1.368 . S
C2044 C2038 1.368 . S
C2044 C2043 1.523 . S
C2045 C2029 1.429 . S
C2045 C2041 1.429 . S
C2045 C2046 1.523 . S
C2046 C2030 1.368 . S
C2046 C2042 1.368 . S
C2046 C2045 1.523 . S
H2047 C2022 0.950 . S
H2048 C2024 0.950 . S
H2049 C2025 0.949 . S
H2050 C2027 0.950 . S
H2051 C2029 0.950 . S
C2052 C2053 1.349 . S
C2052 C2054 1.327 . S
C2052 H2077 0.950 . S
C2053 C2052 1.349 . S
C2053 C2069 1.349 . S
C2054 C2052 1.327 . S
C2054 C2073 1.429 . S
C2054 H2078 0.950 . S
C2055 C2072 1.574 . S
C2055 C2074 1.368 . S
C2055 H2079 0.949 . S
H2056 C2060 0.949 . S
C2057 C2058 1.349 . S
C2057 C2059 1.327 . S
C2057 H2080 0.950 . S
C2058 C2057 1.349 . S
C2058 C2070 1.349 . S
C2059 C2057 1.327 . S
C2059 C2075 1.429 . S
C2059 H2081 0.950 . S
C2060 H2056 0.949 . S
C2060 C2068 1.574 . S
C2060 C2076 1.368 . S
H2061 C2069 0.950 . S
H2062 C2067 0.950 . S
H2063 C2068 0.949 . S
H2064 C2070 0.950 . S
H2065 C2071 0.950 . S
H2066 C2072 0.949 . S
C2067 H2062 0.950 . S
C2067 C2069 1.327 . S
C2067 C2073 1.429 . S
C2068 C2060 1.574 . S
C2068 H2063 0.949 . S
C2068 C2074 1.368 . S
C2069 C2053 1.349 . S
C2069 H2061 0.950 . S
C2069 C2067 1.327 . S
C2070 C2058 1.349 . S
C2070 H2064 0.950 . S
C2070 C2071 1.327 . S
C2071 H2065 0.950 . S
C2071 C2070 1.327 . S
C2071 C2075 1.429 . S
C2072 C2055 1.574 . S
C2072 H2066 0.949 . S
C2072 C2076 1.368 . S
C2073 C2054 1.429 . S
C2073 C2067 1.429 . S
C2073 C2074 1.523 . S
C2074 C2055 1.368 . S
C2074 C2068 1.368 . S
C2074 C2073 1.523 . S
C2075 C2059 1.429 . S
C2075 C2071 1.429 . S
C2075 C2076 1.523 . S
C2076 C2060 1.368 . S
C2076 C2072 1.368 . S
C2076 C2075 1.523 . S
H2077 C2052 0.950 . S
H2078 C2054 0.950 . S
H2079 C2055 0.949 . S
H2080 C2057 0.950 . S
H2081 C2059 0.950 . S
C2082 C2083 1.349 . S
C2082 C2084 1.327 . S
C2082 H2107 0.950 . S
C2083 C2082 1.349 . S
C2083 C2099 1.349 . S
C2084 C2082 1.327 . S
C2084 C2103 1.429 . S
C2084 H2108 0.950 . S
C2085 C2102 1.574 . S
C2085 C2104 1.368 . S
C2085 H2109 0.949 . S
H2086 C2090 0.949 . S
C2087 C2088 1.349 . S
C2087 C2089 1.327 . S
C2087 H2110 0.950 . S
C2088 C2087 1.349 . S
C2088 C2100 1.349 . S
C2089 C2087 1.327 . S
C2089 C2105 1.429 . S
C2089 H2111 0.950 . S
C2090 H2086 0.949 . S
C2090 C2098 1.574 . S
C2090 C2106 1.368 . S
H2091 C2099 0.950 . S
H2092 C2097 0.950 . S
H2093 C2098 0.949 . S
H2094 C2100 0.950 . S
H2095 C2101 0.950 . S
H2096 C2102 0.949 . S
C2097 H2092 0.950 . S
C2097 C2099 1.327 . S
C2097 C2103 1.429 . S
C2098 C2090 1.574 . S
C2098 H2093 0.949 . S
C2098 C2104 1.368 . S
C2099 C2083 1.349 . S
C2099 H2091 0.950 . S
C2099 C2097 1.327 . S
C2100 C2088 1.349 . S
C2100 H2094 0.950 . S
C2100 C2101 1.327 . S
C2101 H2095 0.950 . S
C2101 C2100 1.327 . S
C2101 C2105 1.429 . S
C2102 C2085 1.574 . S
C2102 H2096 0.949 . S
C2102 C2106 1.368 . S
C2103 C2084 1.429 . S
C2103 C2097 1.429 . S
C2103 C2104 1.523 . S
C2104 C2085 1.368 . S
C2104 C2098 1.368 . S
C2104 C2103 1.523 . S
C2105 C2089 1.429 . S
C2105 C2101 1.429 . S
C2105 C2106 1.523 . S
C2106 C2090 1.368 . S
C2106 C2102 1.368 . S
C2106 C2105 1.523 . S
H2107 C2082 0.950 . S
H2108 C2084 0.950 . S
H2109 C2085 0.949 . S
H2110 C2087 0.950 . S
H2111 C2089 0.950 . S
C2112 C2113 1.349 . S
C2112 C2114 1.327 . S
C2112 H2137 0.950 . S
C2113 C2112 1.349 . S
C2113 C2129 1.349 . S
C2114 C2112 1.327 . S
C2114 C2133 1.429 . S
C2114 H2138 0.950 . S
C2115 C2132 1.574 . S
C2115 C2134 1.368 . S
C2115 H2139 0.949 . S
H2116 C2120 0.949 . S
C2117 C2118 1.349 . S
C2117 C2119 1.327 . S
C2117 H2140 0.950 . S
C2118 C2117 1.349 . S
C2118 C2130 1.349 . S
C2119 C2117 1.327 . S
C2119 C2135 1.429 . S
C2119 H2141 0.950 . S
C2120 H2116 0.949 . S
C2120 C2128 1.574 . S
C2120 C2136 1.368 . S
H2121 C2129 0.950 . S
H2122 C2127 0.950 . S
H2123 C2128 0.949 . S
H2124 C2130 0.950 . S
H2125 C2131 0.950 . S
H2126 C2132 0.949 . S
C2127 H2122 0.950 . S
C2127 C2129 1.327 . S
C2127 C2133 1.429 . S
C2128 C2120 1.574 . S
C2128 H2123 0.949 . S
C2128 C2134 1.368 . S
C2129 C2113 1.349 . S
C2129 H2121 0.950 . S
C2129 C2127 1.327 . S
C2130 C2118 1.349 . S
C2130 H2124 0.950 . S
C2130 C2131 1.327 . S
C2131 H2125 0.950 . S
C2131 C2130 1.327 . S
C2131 C2135 1.429 . S
C2132 C2115 1.574 . S
C2132 H2126 0.949 . S
C2132 C2136 1.368 . S
C2133 C2114 1.429 . S
C2133 C2127 1.429 . S
C2133 C2134 1.523 . S
C2134 C2115 1.368 . S
C2134 C2128 1.368 . S
C2134 C2133 1.523 . S
C2135 C2119 1.429 . S
C2135 C2131 1.429 . S
C2135 C2136 1.523 . S
C2136 C2120 1.368 . S
C2136 C2132 1.368 . S
C2136 C2135 1.523 . S
H2137 C2112 0.950 . S
H2138 C2114 0.950 . S
H2139 C2115 0.949 . S
H2140 C2117 0.950 . S
H2141 C2119 0.950 . S
C2142 C2143 1.349 . S
C2142 C2144 1.327 . S
C2142 H2167 0.950 . S
C2143 C2142 1.349 . S
C2143 C2159 1.349 . S
C2144 C2142 1.327 . S
C2144 C2163 1.429 . S
C2144 H2168 0.950 . S
C2145 C2162 1.574 . S
C2145 C2164 1.368 . S
C2145 H2169 0.949 . S
H2146 C2150 0.949 . S
C2147 C2148 1.349 . S
C2147 C2149 1.327 . S
C2147 H2170 0.950 . S
C2148 C2147 1.349 . S
C2148 C2160 1.349 . S
C2149 C2147 1.327 . S
C2149 C2165 1.429 . S
C2149 H2171 0.950 . S
C2150 H2146 0.949 . S
C2150 C2158 1.574 . S
C2150 C2166 1.368 . S
H2151 C2159 0.950 . S
H2152 C2157 0.950 . S
H2153 C2158 0.949 . S
H2154 C2160 0.950 . S
H2155 C2161 0.950 . S
H2156 C2162 0.949 . S
C2157 H2152 0.950 . S
C2157 C2159 1.327 . S
C2157 C2163 1.429 . S
C2158 C2150 1.574 . S
C2158 H2153 0.949 . S
C2158 C2164 1.368 . S
C2159 C2143 1.349 . S
C2159 H2151 0.950 . S
C2159 C2157 1.327 . S
C2160 C2148 1.349 . S
C2160 H2154 0.950 . S
C2160 C2161 1.327 . S
C2161 H2155 0.950 . S
C2161 C2160 1.327 . S
C2161 C2165 1.429 . S
C2162 C2145 1.574 . S
C2162 H2156 0.949 . S
C2162 C2166 1.368 . S
C2163 C2144 1.429 . S
C2163 C2157 1.429 . S
C2163 C2164 1.523 . S
C2164 C2145 1.368 . S
C2164 C2158 1.368 . S
C2164 C2163 1.523 . S
C2165 C2149 1.429 . S
C2165 C2161 1.429 . S
C2165 C2166 1.523 . S
C2166 C2150 1.368 . S
C2166 C2162 1.368 . S
C2166 C2165 1.523 . S
H2167 C2142 0.950 . S
H2168 C2144 0.950 . S
H2169 C2145 0.949 . S
H2170 C2147 0.950 . S
H2171 C2149 0.950 . S
C2172 C2173 1.349 . S
C2172 C2174 1.327 . S
C2172 H2197 0.950 . S
C2173 C2172 1.349 . S
C2173 C2189 1.349 . S
C2174 C2172 1.327 . S
C2174 C2193 1.429 . S
C2174 H2198 0.950 . S
C2175 C2192 1.574 . S
C2175 C2194 1.368 . S
C2175 H2199 0.949 . S
H2176 C2180 0.949 . S
C2177 C2178 1.349 . S
C2177 C2179 1.327 . S
C2177 H2200 0.950 . S
C2178 C2177 1.349 . S
C2178 C2190 1.349 . S
C2179 C2177 1.327 . S
C2179 C2195 1.429 . S
C2179 H2201 0.950 . S
C2180 H2176 0.949 . S
C2180 C2188 1.574 . S
C2180 C2196 1.368 . S
H2181 C2189 0.950 . S
H2182 C2187 0.950 . S
H2183 C2188 0.949 . S
H2184 C2190 0.950 . S
H2185 C2191 0.950 . S
H2186 C2192 0.949 . S
C2187 H2182 0.950 . S
C2187 C2189 1.327 . S
C2187 C2193 1.429 . S
C2188 C2180 1.574 . S
C2188 H2183 0.949 . S
C2188 C2194 1.368 . S
C2189 C2173 1.349 . S
C2189 H2181 0.950 . S
C2189 C2187 1.327 . S
C2190 C2178 1.349 . S
C2190 H2184 0.950 . S
C2190 C2191 1.327 . S
C2191 H2185 0.950 . S
C2191 C2190 1.327 . S
C2191 C2195 1.429 . S
C2192 C2175 1.574 . S
C2192 H2186 0.949 . S
C2192 C2196 1.368 . S
C2193 C2174 1.429 . S
C2193 C2187 1.429 . S
C2193 C2194 1.523 . S
C2194 C2175 1.368 . S
C2194 C2188 1.368 . S
C2194 C2193 1.523 . S
C2195 C2179 1.429 . S
C2195 C2191 1.429 . S
C2195 C2196 1.523 . S
C2196 C2180 1.368 . S
C2196 C2192 1.368 . S
C2196 C2195 1.523 . S
H2197 C2172 0.950 . S
H2198 C2174 0.950 . S
H2199 C2175 0.949 . S
H2200 C2177 0.950 . S
H2201 C2179 0.950 . S
C2202 C2203 1.349 . S
C2202 C2204 1.327 . S
C2202 H2227 0.950 . S
C2203 C2202 1.349 . S
C2203 C2219 1.349 . S
C2204 C2202 1.327 . S
C2204 C2223 1.429 . S
C2204 H2228 0.950 . S
C2205 C2222 1.574 . S
C2205 C2224 1.368 . S
C2205 H2229 0.949 . S
H2206 C2210 0.949 . S
C2207 C2208 1.349 . S
C2207 C2209 1.327 . S
C2207 H2230 0.950 . S
C2208 C2207 1.349 . S
C2208 C2220 1.349 . S
C2209 C2207 1.327 . S
C2209 C2225 1.429 . S
C2209 H2231 0.950 . S
C2210 H2206 0.949 . S
C2210 C2218 1.574 . S
C2210 C2226 1.368 . S
H2211 C2219 0.950 . S
H2212 C2217 0.950 . S
H2213 C2218 0.949 . S
H2214 C2220 0.950 . S
H2215 C2221 0.950 . S
H2216 C2222 0.949 . S
C2217 H2212 0.950 . S
C2217 C2219 1.327 . S
C2217 C2223 1.429 . S
C2218 C2210 1.574 . S
C2218 H2213 0.949 . S
C2218 C2224 1.368 . S
C2219 C2203 1.349 . S
C2219 H2211 0.950 . S
C2219 C2217 1.327 . S
C2220 C2208 1.349 . S
C2220 H2214 0.950 . S
C2220 C2221 1.327 . S
C2221 H2215 0.950 . S
C2221 C2220 1.327 . S
C2221 C2225 1.429 . S
C2222 C2205 1.574 . S
C2222 H2216 0.949 . S
C2222 C2226 1.368 . S
C2223 C2204 1.429 . S
C2223 C2217 1.429 . S
C2223 C2224 1.523 . S
C2224 C2205 1.368 . S
C2224 C2218 1.368 . S
C2224 C2223 1.523 . S
C2225 C2209 1.429 . S
C2225 C2221 1.429 . S
C2225 C2226 1.523 . S
C2226 C2210 1.368 . S
C2226 C2222 1.368 . S
C2226 C2225 1.523 . S
H2227 C2202 0.950 . S
H2228 C2204 0.950 . S
H2229 C2205 0.949 . S
H2230 C2207 0.950 . S
H2231 C2209 0.950 . S
C2232 C2233 1.349 . S
C2232 C2234 1.327 . S
C2232 H2257 0.950 . S
C2233 C2232 1.349 . S
C2233 C2249 1.349 . S
C2234 C2232 1.327 . S
C2234 C2253 1.429 . S
C2234 H2258 0.950 . S
C2235 C2252 1.574 . S
C2235 C2254 1.368 . S
C2235 H2259 0.949 . S
H2236 C2240 0.949 . S
C2237 C2238 1.349 . S
C2237 C2239 1.327 . S
C2237 H2260 0.950 . S
C2238 C2237 1.349 . S
C2238 C2250 1.349 . S
C2239 C2237 1.327 . S
C2239 C2255 1.429 . S
C2239 H2261 0.950 . S
C2240 H2236 0.949 . S
C2240 C2248 1.574 . S
C2240 C2256 1.368 . S
H2241 C2249 0.950 . S
H2242 C2247 0.950 . S
H2243 C2248 0.949 . S
H2244 C2250 0.950 . S
H2245 C2251 0.950 . S
H2246 C2252 0.949 . S
C2247 H2242 0.950 . S
C2247 C2249 1.327 . S
C2247 C2253 1.429 . S
C2248 C2240 1.574 . S
C2248 H2243 0.949 . S
C2248 C2254 1.368 . S
C2249 C2233 1.349 . S
C2249 H2241 0.950 . S
C2249 C2247 1.327 . S
C2250 C2238 1.349 . S
C2250 H2244 0.950 . S
C2250 C2251 1.327 . S
C2251 H2245 0.950 . S
C2251 C2250 1.327 . S
C2251 C2255 1.429 . S
C2252 C2235 1.574 . S
C2252 H2246 0.949 . S
C2252 C2256 1.368 . S
C2253 C2234 1.429 . S
C2253 C2247 1.429 . S
C2253 C2254 1.523 . S
C2254 C2235 1.368 . S
C2254 C2248 1.368 . S
C2254 C2253 1.523 . S
C2255 C2239 1.429 . S
C2255 C2251 1.429 . S
C2255 C2256 1.523 . S
C2256 C2240 1.368 . S
C2256 C2252 1.368 . S
C2256 C2255 1.523 . S
H2257 C2232 0.950 . S
H2258 C2234 0.950 . S
H2259 C2235 0.949 . S
H2260 C2237 0.950 . S
H2261 C2239 0.950 . S
C2262 C2263 1.349 . S
C2262 C2264 1.327 . S
C2262 H2287 0.950 . S
C2263 C2262 1.349 . S
C2263 C2279 1.349 . S
C2264 C2262 1.327 . S
C2264 C2283 1.429 . S
C2264 H2288 0.950 . S
C2265 C2282 1.574 . S
C2265 C2284 1.368 . S
C2265 H2289 0.949 . S
H2266 C2270 0.949 . S
C2267 C2268 1.349 . S
C2267 C2269 1.327 . S
C2267 H2290 0.950 . S
C2268 C2267 1.349 . S
C2268 C2280 1.349 . S
C2269 C2267 1.327 . S
C2269 C2285 1.429 . S
C2269 H2291 0.950 . S
C2270 H2266 0.949 . S
C2270 C2278 1.574 . S
C2270 C2286 1.368 . S
H2271 C2279 0.950 . S
H2272 C2277 0.950 . S
H2273 C2278 0.949 . S
H2274 C2280 0.950 . S
H2275 C2281 0.950 . S
H2276 C2282 0.949 . S
C2277 H2272 0.950 . S
C2277 C2279 1.327 . S
C2277 C2283 1.429 . S
C2278 C2270 1.574 . S
C2278 H2273 0.949 . S
C2278 C2284 1.368 . S
C2279 C2263 1.349 . S
C2279 H2271 0.950 . S
C2279 C2277 1.327 . S
C2280 C2268 1.349 . S
C2280 H2274 0.950 . S
C2280 C2281 1.327 . S
C2281 H2275 0.950 . S
C2281 C2280 1.327 . S
C2281 C2285 1.429 . S
C2282 C2265 1.574 . S
C2282 H2276 0.949 . S
C2282 C2286 1.368 . S
C2283 C2264 1.429 . S
C2283 C2277 1.429 . S
C2283 C2284 1.523 . S
C2284 C2265 1.368 . S
C2284 C2278 1.368 . S
C2284 C2283 1.523 . S
C2285 C2269 1.429 . S
C2285 C2281 1.429 . S
C2285 C2286 1.523 . S
C2286 C2270 1.368 . S
C2286 C2282 1.368 . S
C2286 C2285 1.523 . S
H2287 C2262 0.950 . S
H2288 C2264 0.950 . S
H2289 C2265 0.949 . S
H2290 C2267 0.950 . S
H2291 C2269 0.950 . S
C2292 C2293 1.349 . S
C2292 C2294 1.327 . S
C2292 H2317 0.950 . S
C2293 C2292 1.349 . S
C2293 C2309 1.349 . S
C2294 C2292 1.327 . S
C2294 C2313 1.429 . S
C2294 H2318 0.950 . S
C2295 C2312 1.574 . S
C2295 C2314 1.368 . S
C2295 H2319 0.949 . S
H2296 C2300 0.949 . S
C2297 C2298 1.349 . S
C2297 C2299 1.327 . S
C2297 H2320 0.950 . S
C2298 C2297 1.349 . S
C2298 C2310 1.349 . S
C2299 C2297 1.327 . S
C2299 C2315 1.429 . S
C2299 H2321 0.950 . S
C2300 H2296 0.949 . S
C2300 C2308 1.574 . S
C2300 C2316 1.368 . S
H2301 C2309 0.950 . S
H2302 C2307 0.950 . S
H2303 C2308 0.949 . S
H2304 C2310 0.950 . S
H2305 C2311 0.950 . S
H2306 C2312 0.949 . S
C2307 H2302 0.950 . S
C2307 C2309 1.327 . S
C2307 C2313 1.429 . S
C2308 C2300 1.574 . S
C2308 H2303 0.949 . S
C2308 C2314 1.368 . S
C2309 C2293 1.349 . S
C2309 H2301 0.950 . S
C2309 C2307 1.327 . S
C2310 C2298 1.349 . S
C2310 H2304 0.950 . S
C2310 C2311 1.327 . S
C2311 H2305 0.950 . S
C2311 C2310 1.327 . S
C2311 C2315 1.429 . S
C2312 C2295 1.574 . S
C2312 H2306 0.949 . S
C2312 C2316 1.368 . S
C2313 C2294 1.429 . S
C2313 C2307 1.429 . S
C2313 C2314 1.523 . S
C2314 C2295 1.368 . S
C2314 C2308 1.368 . S
C2314 C2313 1.523 . S
C2315 C2299 1.429 . S
C2315 C2311 1.429 . S
C2315 C2316 1.523 . S
C2316 C2300 1.368 . S
C2316 C2312 1.368 . S
C2316 C2315 1.523 . S
H2317 C2292 0.950 . S
H2318 C2294 0.950 . S
H2319 C2295 0.949 . S
H2320 C2297 0.950 . S
H2321 C2299 0.950 . S
C2322 C2323 1.349 . S
C2322 C2324 1.327 . S
C2322 H2347 0.950 . S
C2323 C2322 1.349 . S
C2323 C2339 1.349 . S
C2324 C2322 1.327 . S
C2324 C2343 1.429 . S
C2324 H2348 0.950 . S
C2325 C2342 1.574 . S
C2325 C2344 1.368 . S
C2325 H2349 0.949 . S
H2326 C2330 0.949 . S
C2327 C2328 1.349 . S
C2327 C2329 1.327 . S
C2327 H2350 0.950 . S
C2328 C2327 1.349 . S
C2328 C2340 1.349 . S
C2329 C2327 1.327 . S
C2329 C2345 1.429 . S
C2329 H2351 0.950 . S
C2330 H2326 0.949 . S
C2330 C2338 1.574 . S
C2330 C2346 1.368 . S
H2331 C2339 0.950 . S
H2332 C2337 0.950 . S
H2333 C2338 0.949 . S
H2334 C2340 0.950 . S
H2335 C2341 0.950 . S
H2336 C2342 0.949 . S
C2337 H2332 0.950 . S
C2337 C2339 1.327 . S
C2337 C2343 1.429 . S
C2338 C2330 1.574 . S
C2338 H2333 0.949 . S
C2338 C2344 1.368 . S
C2339 C2323 1.349 . S
C2339 H2331 0.950 . S
C2339 C2337 1.327 . S
C2340 C2328 1.349 . S
C2340 H2334 0.950 . S
C2340 C2341 1.327 . S
C2341 H2335 0.950 . S
C2341 C2340 1.327 . S
C2341 C2345 1.429 . S
C2342 C2325 1.574 . S
C2342 H2336 0.949 . S
C2342 C2346 1.368 . S
C2343 C2324 1.429 . S
C2343 C2337 1.429 . S
C2343 C2344 1.523 . S
C2344 C2325 1.368 . S
C2344 C2338 1.368 . S
C2344 C2343 1.523 . S
C2345 C2329 1.429 . S
C2345 C2341 1.429 . S
C2345 C2346 1.523 . S
C2346 C2330 1.368 . S
C2346 C2342 1.368 . S
C2346 C2345 1.523 . S
H2347 C2322 0.950 . S
H2348 C2324 0.950 . S
H2349 C2325 0.949 . S
H2350 C2327 0.950 . S
H2351 C2329 0.950 . S
C2352 C2353 1.349 . S
C2352 C2354 1.327 . S
C2352 H2377 0.950 . S
C2353 C2352 1.349 . S
C2353 C2369 1.349 . S
C2354 C2352 1.327 . S
C2354 C2373 1.429 . S
C2354 H2378 0.950 . S
C2355 C2372 1.574 1_556 S
C2355 C2374 1.368 . S
C2355 H2379 0.949 . S
H2356 C2360 0.949 . S
C2357 C2358 1.349 . S
C2357 C2359 1.327 . S
C2357 H2380 0.950 . S
C2358 C2357 1.349 . S
C2358 C2370 1.349 . S
C2359 C2357 1.327 . S
C2359 C2375 1.429 . S
C2359 H2381 0.950 . S
C2360 H2356 0.949 . S
C2360 C2368 1.574 1_554 S
C2360 C2376 1.368 . S
H2361 C2369 0.950 . S
H2362 C2367 0.950 . S
H2363 C2368 0.949 . S
H2364 C2370 0.950 . S
H2365 C2371 0.950 . S
H2366 C2372 0.949 . S
C2367 H2362 0.950 . S
C2367 C2369 1.327 . S
C2367 C2373 1.429 . S
C2368 C2360 1.574 1_556 S
C2368 H2363 0.949 . S
C2368 C2374 1.368 . S
C2369 C2353 1.349 . S
C2369 H2361 0.950 . S
C2369 C2367 1.327 . S
C2370 C2358 1.349 . S
C2370 H2364 0.950 . S
C2370 C2371 1.327 . S
C2371 H2365 0.950 . S
C2371 C2370 1.327 . S
C2371 C2375 1.429 . S
C2372 C2355 1.574 1_554 S
C2372 H2366 0.949 . S
C2372 C2376 1.368 . S
C2373 C2354 1.429 . S
C2373 C2367 1.429 . S
C2373 C2374 1.523 . S
C2374 C2355 1.368 . S
C2374 C2368 1.368 . S
C2374 C2373 1.523 . S
C2375 C2359 1.429 . S
C2375 C2371 1.429 . S
C2375 C2376 1.523 . S
C2376 C2360 1.368 . S
C2376 C2372 1.368 . S
C2376 C2375 1.523 . S
H2377 C2352 0.950 . S
H2378 C2354 0.950 . S
H2379 C2355 0.949 . S
H2380 C2357 0.950 . S
H2381 C2359 0.950 . S
C2382 C2383 1.349 . S
C2382 C2384 1.327 . S
C2382 H2407 0.950 . S
C2383 C2382 1.349 . S
C2383 C2399 1.349 . S
C2384 C2382 1.327 . S
C2384 C2403 1.429 . S
C2384 H2408 0.950 . S
C2385 C2402 1.574 1_556 S
C2385 C2404 1.368 . S
C2385 H2409 0.949 . S
H2386 C2390 0.949 . S
C2387 C2388 1.349 . S
C2387 C2389 1.327 . S
C2387 H2410 0.950 . S
C2388 C2387 1.349 . S
C2388 C2400 1.349 . S
C2389 C2387 1.327 . S
C2389 C2405 1.429 . S
C2389 H2411 0.950 . S
C2390 H2386 0.949 . S
C2390 C2398 1.574 1_554 S
C2390 C2406 1.368 . S
H2391 C2399 0.950 . S
H2392 C2397 0.950 . S
H2393 C2398 0.949 . S
H2394 C2400 0.950 . S
H2395 C2401 0.950 . S
H2396 C2402 0.949 . S
C2397 H2392 0.950 . S
C2397 C2399 1.327 . S
C2397 C2403 1.429 . S
C2398 C2390 1.574 1_556 S
C2398 H2393 0.949 . S
C2398 C2404 1.368 . S
C2399 C2383 1.349 . S
C2399 H2391 0.950 . S
C2399 C2397 1.327 . S
C2400 C2388 1.349 . S
C2400 H2394 0.950 . S
C2400 C2401 1.327 . S
C2401 H2395 0.950 . S
C2401 C2400 1.327 . S
C2401 C2405 1.429 . S
C2402 C2385 1.574 1_554 S
C2402 H2396 0.949 . S
C2402 C2406 1.368 . S
C2403 C2384 1.429 . S
C2403 C2397 1.429 . S
C2403 C2404 1.523 . S
C2404 C2385 1.368 . S
C2404 C2398 1.368 . S
C2404 C2403 1.523 . S
C2405 C2389 1.429 . S
C2405 C2401 1.429 . S
C2405 C2406 1.523 . S
C2406 C2390 1.368 . S
C2406 C2402 1.368 . S
C2406 C2405 1.523 . S
H2407 C2382 0.950 . S
H2408 C2384 0.950 . S
H2409 C2385 0.949 . S
H2410 C2387 0.950 . S
H2411 C2389 0.950 . S
C2412 C2413 1.349 . S
C2412 C2414 1.327 . S
C2412 H2437 0.950 . S
C2413 C2412 1.349 . S
C2413 C2429 1.349 . S
C2414 C2412 1.327 . S
C2414 C2433 1.429 . S
C2414 H2438 0.950 . S
C2415 C2432 1.574 1_554 S
C2415 C2434 1.368 . S
C2415 H2439 0.949 . S
H2416 C2420 0.949 . S
C2417 C2418 1.349 . S
C2417 C2419 1.327 . S
C2417 H2440 0.950 . S
C2418 C2417 1.349 . S
C2418 C2430 1.349 . S
C2419 C2417 1.327 . S
C2419 C2435 1.429 . S
C2419 H2441 0.950 . S
C2420 H2416 0.949 . S
C2420 C2428 1.574 1_556 S
C2420 C2436 1.368 . S
H2421 C2429 0.950 . S
H2422 C2427 0.950 . S
H2423 C2428 0.949 . S
H2424 C2430 0.950 . S
H2425 C2431 0.950 . S
H2426 C2432 0.949 . S
C2427 H2422 0.950 . S
C2427 C2429 1.327 . S
C2427 C2433 1.429 . S
C2428 C2420 1.574 1_554 S
C2428 H2423 0.949 . S
C2428 C2434 1.368 . S
C2429 C2413 1.349 . S
C2429 H2421 0.950 . S
C2429 C2427 1.327 . S
C2430 C2418 1.349 . S
C2430 H2424 0.950 . S
C2430 C2431 1.327 . S
C2431 H2425 0.950 . S
C2431 C2430 1.327 . S
C2431 C2435 1.429 . S
C2432 C2415 1.574 1_556 S
C2432 H2426 0.949 . S
C2432 C2436 1.368 . S
C2433 C2414 1.429 . S
C2433 C2427 1.429 . S
C2433 C2434 1.523 . S
C2434 C2415 1.368 . S
C2434 C2428 1.368 . S
C2434 C2433 1.523 . S
C2435 C2419 1.429 . S
C2435 C2431 1.429 . S
C2435 C2436 1.523 . S
C2436 C2420 1.368 . S
C2436 C2432 1.368 . S
C2436 C2435 1.523 . S
H2437 C2412 0.950 . S
H2438 C2414 0.950 . S
H2439 C2415 0.949 . S
H2440 C2417 0.950 . S
H2441 C2419 0.950 . S
C2442 C2443 1.349 . S
C2442 C2444 1.327 . S
C2442 H2467 0.950 . S
C2443 C2442 1.349 . S
C2443 C2459 1.349 . S
C2444 C2442 1.327 . S
C2444 C2463 1.429 . S
C2444 H2468 0.950 . S
C2445 C2462 1.574 1_556 S
C2445 C2464 1.368 . S
C2445 H2469 0.949 . S
H2446 C2450 0.949 . S
C2447 C2448 1.349 . S
C2447 C2449 1.327 . S
C2447 H2470 0.950 . S
C2448 C2447 1.349 . S
C2448 C2460 1.349 . S
C2449 C2447 1.327 . S
C2449 C2465 1.429 . S
C2449 H2471 0.950 . S
C2450 H2446 0.949 . S
C2450 C2458 1.574 1_554 S
C2450 C2466 1.368 . S
H2451 C2459 0.950 . S
H2452 C2457 0.950 . S
H2453 C2458 0.949 . S
H2454 C2460 0.950 . S
H2455 C2461 0.950 . S
H2456 C2462 0.949 . S
C2457 H2452 0.950 . S
C2457 C2459 1.327 . S
C2457 C2463 1.429 . S
C2458 C2450 1.574 1_556 S
C2458 H2453 0.949 . S
C2458 C2464 1.368 . S
C2459 C2443 1.349 . S
C2459 H2451 0.950 . S
C2459 C2457 1.327 . S
C2460 C2448 1.349 . S
C2460 H2454 0.950 . S
C2460 C2461 1.327 . S
C2461 H2455 0.950 . S
C2461 C2460 1.327 . S
C2461 C2465 1.429 . S
C2462 C2445 1.574 1_554 S
C2462 H2456 0.949 . S
C2462 C2466 1.368 . S
C2463 C2444 1.429 . S
C2463 C2457 1.429 . S
C2463 C2464 1.523 . S
C2464 C2445 1.368 . S
C2464 C2458 1.368 . S
C2464 C2463 1.523 . S
C2465 C2449 1.429 . S
C2465 C2461 1.429 . S
C2465 C2466 1.523 . S
C2466 C2450 1.368 . S
C2466 C2462 1.368 . S
C2466 C2465 1.523 . S
H2467 C2442 0.950 . S
H2468 C2444 0.950 . S
H2469 C2445 0.949 . S
H2470 C2447 0.950 . S
H2471 C2449 0.950 . S
C2472 C2473 1.349 . S
C2472 C2474 1.327 . S
C2472 H2497 0.950 . S
C2473 C2472 1.349 . S
C2473 C2489 1.349 . S
C2474 C2472 1.327 . S
C2474 C2493 1.429 . S
C2474 H2498 0.950 . S
C2475 C2492 1.574 1_556 S
C2475 C2494 1.368 . S
C2475 H2499 0.949 . S
H2476 C2480 0.949 . S
C2477 C2478 1.349 . S
C2477 C2479 1.327 . S
C2477 H2500 0.950 . S
C2478 C2477 1.349 . S
C2478 C2490 1.349 . S
C2479 C2477 1.327 . S
C2479 C2495 1.429 . S
C2479 H2501 0.950 . S
C2480 H2476 0.949 . S
C2480 C2488 1.574 1_554 S
C2480 C2496 1.368 . S
H2481 C2489 0.950 . S
H2482 C2487 0.950 . S
H2483 C2488 0.949 . S
H2484 C2490 0.950 . S
H2485 C2491 0.950 . S
H2486 C2492 0.949 . S
C2487 H2482 0.950 . S
C2487 C2489 1.327 . S
C2487 C2493 1.429 . S
C2488 C2480 1.574 1_556 S
C2488 H2483 0.949 . S
C2488 C2494 1.368 . S
C2489 C2473 1.349 . S
C2489 H2481 0.950 . S
C2489 C2487 1.327 . S
C2490 C2478 1.349 . S
C2490 H2484 0.950 . S
C2490 C2491 1.327 . S
C2491 H2485 0.950 . S
C2491 C2490 1.327 . S
C2491 C2495 1.429 . S
C2492 C2475 1.574 1_554 S
C2492 H2486 0.949 . S
C2492 C2496 1.368 . S
C2493 C2474 1.429 . S
C2493 C2487 1.429 . S
C2493 C2494 1.523 . S
C2494 C2475 1.368 . S
C2494 C2488 1.368 . S
C2494 C2493 1.523 . S
C2495 C2479 1.429 . S
C2495 C2491 1.429 . S
C2495 C2496 1.523 . S
C2496 C2480 1.368 . S
C2496 C2492 1.368 . S
C2496 C2495 1.523 . S
H2497 C2472 0.950 . S
H2498 C2474 0.950 . S
H2499 C2475 0.949 . S
H2500 C2477 0.950 . S
H2501 C2479 0.950 . S
C2502 C2503 1.349 . S
C2502 C2504 1.327 . S
C2502 H2527 0.950 . S
C2503 C2502 1.349 . S
C2503 C2519 1.349 . S
C2504 C2502 1.327 . S
C2504 C2523 1.429 . S
C2504 H2528 0.950 . S
C2505 C2522 1.574 1_554 S
C2505 C2524 1.368 . S
C2505 H2529 0.949 . S
H2506 C2510 0.949 . S
C2507 C2508 1.349 . S
C2507 C2509 1.327 . S
C2507 H2530 0.950 . S
C2508 C2507 1.349 . S
C2508 C2520 1.349 . S
C2509 C2507 1.327 . S
C2509 C2525 1.429 . S
C2509 H2531 0.950 . S
C2510 H2506 0.949 . S
C2510 C2518 1.574 1_556 S
C2510 C2526 1.368 . S
H2511 C2519 0.950 . S
H2512 C2517 0.950 . S
H2513 C2518 0.949 . S
H2514 C2520 0.950 . S
H2515 C2521 0.950 . S
H2516 C2522 0.949 . S
C2517 H2512 0.950 . S
C2517 C2519 1.327 . S
C2517 C2523 1.429 . S
C2518 C2510 1.574 1_554 S
C2518 H2513 0.949 . S
C2518 C2524 1.368 . S
C2519 C2503 1.349 . S
C2519 H2511 0.950 . S
C2519 C2517 1.327 . S
C2520 C2508 1.349 . S
C2520 H2514 0.950 . S
C2520 C2521 1.327 . S
C2521 H2515 0.950 . S
C2521 C2520 1.327 . S
C2521 C2525 1.429 . S
C2522 C2505 1.574 1_556 S
C2522 H2516 0.949 . S
C2522 C2526 1.368 . S
C2523 C2504 1.429 . S
C2523 C2517 1.429 . S
C2523 C2524 1.523 . S
C2524 C2505 1.368 . S
C2524 C2518 1.368 . S
C2524 C2523 1.523 . S
C2525 C2509 1.429 . S
C2525 C2521 1.429 . S
C2525 C2526 1.523 . S
C2526 C2510 1.368 . S
C2526 C2522 1.368 . S
C2526 C2525 1.523 . S
H2527 C2502 0.950 . S
H2528 C2504 0.950 . S
H2529 C2505 0.949 . S
H2530 C2507 0.950 . S
H2531 C2509 0.950 . S
C2532 C2533 1.349 . S
C2532 C2534 1.327 . S
C2532 H2557 0.950 . S
C2533 C2532 1.349 . S
C2533 C2549 1.349 . S
C2534 C2532 1.327 . S
C2534 C2553 1.429 . S
C2534 H2558 0.950 . S
C2535 C2552 1.574 . S
C2535 C2554 1.368 . S
C2535 H2559 0.949 . S
H2536 C2540 0.949 . S
C2537 C2538 1.349 . S
C2537 C2539 1.327 . S
C2537 H2560 0.950 . S
C2538 C2537 1.349 . S
C2538 C2550 1.349 . S
C2539 C2537 1.327 . S
C2539 C2555 1.429 . S
C2539 H2561 0.950 . S
C2540 H2536 0.949 . S
C2540 C2548 1.574 . S
C2540 C2556 1.368 . S
H2541 C2549 0.950 . S
H2542 C2547 0.950 . S
H2543 C2548 0.949 . S
H2544 C2550 0.950 . S
H2545 C2551 0.950 . S
H2546 C2552 0.949 . S
C2547 H2542 0.950 . S
C2547 C2549 1.327 . S
C2547 C2553 1.429 . S
C2548 C2540 1.574 . S
C2548 H2543 0.949 . S
C2548 C2554 1.368 . S
C2549 C2533 1.349 . S
C2549 H2541 0.950 . S
C2549 C2547 1.327 . S
C2550 C2538 1.349 . S
C2550 H2544 0.950 . S
C2550 C2551 1.327 . S
C2551 H2545 0.950 . S
C2551 C2550 1.327 . S
C2551 C2555 1.429 . S
C2552 C2535 1.574 . S
C2552 H2546 0.949 . S
C2552 C2556 1.368 . S
C2553 C2534 1.429 . S
C2553 C2547 1.429 . S
C2553 C2554 1.523 . S
C2554 C2535 1.368 . S
C2554 C2548 1.368 . S
C2554 C2553 1.523 . S
C2555 C2539 1.429 . S
C2555 C2551 1.429 . S
C2555 C2556 1.523 . S
C2556 C2540 1.368 . S
C2556 C2552 1.368 . S
C2556 C2555 1.523 . S
H2557 C2532 0.950 . S
H2558 C2534 0.950 . S
H2559 C2535 0.949 . S
H2560 C2537 0.950 . S
H2561 C2539 0.950 . S
C2562 C2563 1.349 . S
C2562 C2564 1.327 . S
C2562 H2587 0.950 . S
C2563 C2562 1.349 . S
C2563 C2579 1.349 . S
C2564 C2562 1.327 . S
C2564 C2583 1.429 . S
C2564 H2588 0.950 . S
C2565 C2582 1.574 . S
C2565 C2584 1.368 . S
C2565 H2589 0.949 . S
H2566 C2570 0.949 . S
C2567 C2568 1.349 . S
C2567 C2569 1.327 . S
C2567 H2590 0.950 . S
C2568 C2567 1.349 . S
C2568 C2580 1.349 . S
C2569 C2567 1.327 . S
C2569 C2585 1.429 . S
C2569 H2591 0.950 . S
C2570 H2566 0.949 . S
C2570 C2578 1.574 . S
C2570 C2586 1.368 . S
H2571 C2579 0.950 . S
H2572 C2577 0.950 . S
H2573 C2578 0.949 . S
H2574 C2580 0.950 . S
H2575 C2581 0.950 . S
H2576 C2582 0.949 . S
C2577 H2572 0.950 . S
C2577 C2579 1.327 . S
C2577 C2583 1.429 . S
C2578 C2570 1.574 . S
C2578 H2573 0.949 . S
C2578 C2584 1.368 . S
C2579 C2563 1.349 . S
C2579 H2571 0.950 . S
C2579 C2577 1.327 . S
C2580 C2568 1.349 . S
C2580 H2574 0.950 . S
C2580 C2581 1.327 . S
C2581 H2575 0.950 . S
C2581 C2580 1.327 . S
C2581 C2585 1.429 . S
C2582 C2565 1.574 . S
C2582 H2576 0.949 . S
C2582 C2586 1.368 . S
C2583 C2564 1.429 . S
C2583 C2577 1.429 . S
C2583 C2584 1.523 . S
C2584 C2565 1.368 . S
C2584 C2578 1.368 . S
C2584 C2583 1.523 . S
C2585 C2569 1.429 . S
C2585 C2581 1.429 . S
C2585 C2586 1.523 . S
C2586 C2570 1.368 . S
C2586 C2582 1.368 . S
C2586 C2585 1.523 . S
H2587 C2562 0.950 . S
H2588 C2564 0.950 . S
H2589 C2565 0.949 . S
H2590 C2567 0.950 . S
H2591 C2569 0.950 . S
C2592 C2593 1.349 . S
C2592 C2594 1.327 . S
C2592 H2617 0.950 . S
C2593 C2592 1.349 . S
C2593 C2609 1.349 . S
C2594 C2592 1.327 . S
C2594 C2613 1.429 . S
C2594 H2618 0.950 . S
C2595 C2612 1.574 . S
C2595 C2614 1.368 . S
C2595 H2619 0.949 . S
H2596 C2600 0.949 . S
C2597 C2598 1.349 . S
C2597 C2599 1.327 . S
C2597 H2620 0.950 . S
C2598 C2597 1.349 . S
C2598 C2610 1.349 . S
C2599 C2597 1.327 . S
C2599 C2615 1.429 . S
C2599 H2621 0.950 . S
C2600 H2596 0.949 . S
C2600 C2608 1.574 . S
C2600 C2616 1.368 . S
H2601 C2609 0.950 . S
H2602 C2607 0.950 . S
H2603 C2608 0.949 . S
H2604 C2610 0.950 . S
H2605 C2611 0.950 . S
H2606 C2612 0.949 . S
C2607 H2602 0.950 . S
C2607 C2609 1.327 . S
C2607 C2613 1.429 . S
C2608 C2600 1.574 . S
C2608 H2603 0.949 . S
C2608 C2614 1.368 . S
C2609 C2593 1.349 . S
C2609 H2601 0.950 . S
C2609 C2607 1.327 . S
C2610 C2598 1.349 . S
C2610 H2604 0.950 . S
C2610 C2611 1.327 . S
C2611 H2605 0.950 . S
C2611 C2610 1.327 . S
C2611 C2615 1.429 . S
C2612 C2595 1.574 . S
C2612 H2606 0.949 . S
C2612 C2616 1.368 . S
C2613 C2594 1.429 . S
C2613 C2607 1.429 . S
C2613 C2614 1.523 . S
C2614 C2595 1.368 . S
C2614 C2608 1.368 . S
C2614 C2613 1.523 . S
C2615 C2599 1.429 . S
C2615 C2611 1.429 . S
C2615 C2616 1.523 . S
C2616 C2600 1.368 . S
C2616 C2612 1.368 . S
C2616 C2615 1.523 . S
H2617 C2592 0.950 . S
H2618 C2594 0.950 . S
H2619 C2595 0.949 . S
H2620 C2597 0.950 . S
H2621 C2599 0.950 . S
C2622 C2623 1.349 . S
C2622 C2624 1.327 . S
C2622 H2647 0.950 . S
C2623 C2622 1.349 . S
C2623 C2639 1.349 . S
C2624 C2622 1.327 . S
C2624 C2643 1.429 . S
C2624 H2648 0.950 . S
C2625 C2642 1.574 . S
C2625 C2644 1.368 . S
C2625 H2649 0.949 . S
H2626 C2630 0.949 . S
C2627 C2628 1.349 . S
C2627 C2629 1.327 . S
C2627 H2650 0.950 . S
C2628 C2627 1.349 . S
C2628 C2640 1.349 . S
C2629 C2627 1.327 . S
C2629 C2645 1.429 . S
C2629 H2651 0.950 . S
C2630 H2626 0.949 . S
C2630 C2638 1.574 . S
C2630 C2646 1.368 . S
H2631 C2639 0.950 . S
H2632 C2637 0.950 . S
H2633 C2638 0.949 . S
H2634 C2640 0.950 . S
H2635 C2641 0.950 . S
H2636 C2642 0.949 . S
C2637 H2632 0.950 . S
C2637 C2639 1.327 . S
C2637 C2643 1.429 . S
C2638 C2630 1.574 . S
C2638 H2633 0.949 . S
C2638 C2644 1.368 . S
C2639 C2623 1.349 . S
C2639 H2631 0.950 . S
C2639 C2637 1.327 . S
C2640 C2628 1.349 . S
C2640 H2634 0.950 . S
C2640 C2641 1.327 . S
C2641 H2635 0.950 . S
C2641 C2640 1.327 . S
C2641 C2645 1.429 . S
C2642 C2625 1.574 . S
C2642 H2636 0.949 . S
C2642 C2646 1.368 . S
C2643 C2624 1.429 . S
C2643 C2637 1.429 . S
C2643 C2644 1.523 . S
C2644 C2625 1.368 . S
C2644 C2638 1.368 . S
C2644 C2643 1.523 . S
C2645 C2629 1.429 . S
C2645 C2641 1.429 . S
C2645 C2646 1.523 . S
C2646 C2630 1.368 . S
C2646 C2642 1.368 . S
C2646 C2645 1.523 . S
H2647 C2622 0.950 . S
H2648 C2624 0.950 . S
H2649 C2625 0.949 . S
H2650 C2627 0.950 . S
H2651 C2629 0.950 . S
C2652 C2653 1.349 . S
C2652 C2654 1.327 . S
C2652 H2677 0.950 . S
C2653 C2652 1.349 . S
C2653 C2669 1.349 . S
C2654 C2652 1.327 . S
C2654 C2673 1.429 . S
C2654 H2678 0.950 . S
C2655 C2672 1.574 . S
C2655 C2674 1.368 . S
C2655 H2679 0.949 . S
H2656 C2660 0.949 . S
C2657 C2658 1.349 . S
C2657 C2659 1.327 . S
C2657 H2680 0.950 . S
C2658 C2657 1.349 . S
C2658 C2670 1.349 . S
C2659 C2657 1.327 . S
C2659 C2675 1.429 . S
C2659 H2681 0.950 . S
C2660 H2656 0.949 . S
C2660 C2668 1.574 . S
C2660 C2676 1.368 . S
H2661 C2669 0.950 . S
H2662 C2667 0.950 . S
H2663 C2668 0.949 . S
H2664 C2670 0.950 . S
H2665 C2671 0.950 . S
H2666 C2672 0.949 . S
C2667 H2662 0.950 . S
C2667 C2669 1.327 . S
C2667 C2673 1.429 . S
C2668 C2660 1.574 . S
C2668 H2663 0.949 . S
C2668 C2674 1.368 . S
C2669 C2653 1.349 . S
C2669 H2661 0.950 . S
C2669 C2667 1.327 . S
C2670 C2658 1.349 . S
C2670 H2664 0.950 . S
C2670 C2671 1.327 . S
C2671 H2665 0.950 . S
C2671 C2670 1.327 . S
C2671 C2675 1.429 . S
C2672 C2655 1.574 . S
C2672 H2666 0.949 . S
C2672 C2676 1.368 . S
C2673 C2654 1.429 . S
C2673 C2667 1.429 . S
C2673 C2674 1.523 . S
C2674 C2655 1.368 . S
C2674 C2668 1.368 . S
C2674 C2673 1.523 . S
C2675 C2659 1.429 . S
C2675 C2671 1.429 . S
C2675 C2676 1.523 . S
C2676 C2660 1.368 . S
C2676 C2672 1.368 . S
C2676 C2675 1.523 . S
H2677 C2652 0.950 . S
H2678 C2654 0.950 . S
H2679 C2655 0.949 . S
H2680 C2657 0.950 . S
H2681 C2659 0.950 . S
C2682 C2683 1.349 . S
C2682 C2684 1.327 . S
C2682 H2707 0.950 . S
C2683 C2682 1.349 . S
C2683 C2699 1.349 . S
C2684 C2682 1.327 . S
C2684 C2703 1.429 . S
C2684 H2708 0.950 . S
C2685 C2702 1.574 . S
C2685 C2704 1.368 . S
C2685 H2709 0.949 . S
H2686 C2690 0.949 . S
C2687 C2688 1.349 . S
C2687 C2689 1.327 . S
C2687 H2710 0.950 . S
C2688 C2687 1.349 . S
C2688 C2700 1.349 . S
C2689 C2687 1.327 . S
C2689 C2705 1.429 . S
C2689 H2711 0.950 . S
C2690 H2686 0.949 . S
C2690 C2698 1.574 . S
C2690 C2706 1.368 . S
H2691 C2699 0.950 . S
H2692 C2697 0.950 . S
H2693 C2698 0.949 . S
H2694 C2700 0.950 . S
H2695 C2701 0.950 . S
H2696 C2702 0.949 . S
C2697 H2692 0.950 . S
C2697 C2699 1.327 . S
C2697 C2703 1.429 . S
C2698 C2690 1.574 . S
C2698 H2693 0.949 . S
C2698 C2704 1.368 . S
C2699 C2683 1.349 . S
C2699 H2691 0.950 . S
C2699 C2697 1.327 . S
C2700 C2688 1.349 . S
C2700 H2694 0.950 . S
C2700 C2701 1.327 . S
C2701 H2695 0.950 . S
C2701 C2700 1.327 . S
C2701 C2705 1.429 . S
C2702 C2685 1.574 . S
C2702 H2696 0.949 . S
C2702 C2706 1.368 . S
C2703 C2684 1.429 . S
C2703 C2697 1.429 . S
C2703 C2704 1.523 . S
C2704 C2685 1.368 . S
C2704 C2698 1.368 . S
C2704 C2703 1.523 . S
C2705 C2689 1.429 . S
C2705 C2701 1.429 . S
C2705 C2706 1.523 . S
C2706 C2690 1.368 . S
C2706 C2702 1.368 . S
C2706 C2705 1.523 . S
H2707 C2682 0.950 . S
H2708 C2684 0.950 . S
H2709 C2685 0.949 . S
H2710 C2687 0.950 . S
H2711 C2689 0.950 . S
C553 C203 1.604 . S
C558 C19 1.604 . S
C583 C42 1.604 . S
C588 C226 1.604 . S
C613 C65 1.604 . S
C618 C249 1.604 . S
C643 C88 1.604 . S
C648 C272 1.604 . S
C673 C111 1.604 . S
C678 C157 1.604 . S
C703 C180 1.604 . S
C708 C134 1.604 . S
C733 C479 1.604 . S
C738 C295 1.604 . S
C763 C502 1.604 . S
C768 C318 1.604 . S
C793 C525 1.604 . S
C798 C341 1.604 . S
C823 C364 1.604 . S
C828 C548 1.604 . S
C853 C433 1.604 . S
C858 C387 1.604 . S
C883 C456 1.604 . S
C888 C410 1.604 . S
C913 C16 2.091 . S
C918 C85 2.091 . S
C943 C108 2.091 . S
C948 C39 2.091 . S
C973 C62 2.091 . S
C978 C131 2.091 . S
C1003 C154 2.091 . S
C1008 C223 2.091 . S
C1033 C177 2.091 . S
C1038 C246 2.091 . S
C1063 C200 2.091 . S
C1068 C269 2.091 . S
C1093 C361 2.091 . S
C1098 C292 2.091 . S
C1123 C315 2.091 . S
C1128 C384 2.091 . S
C1153 C407 2.091 . S
C1158 C338 2.091 . S
C1183 C430 2.091 . S
C1188 C499 2.091 . S
C1213 C453 2.091 . S
C1218 C522 2.091 . S
C1243 C545 2.091 . S
C1248 C476 2.091 . S
C1273 C18 0.529 . S
C1278 C248 0.529 . S
C1303 C271 0.529 . S
C1308 C41 0.529 . S
C1333 C64 0.529 . S
C1338 C156 0.529 . S
C1363 C87 0.529 . S
C1368 C179 0.529 . S
C1393 C202 0.529 . S
C1398 C110 0.529 . S
C1423 C225 0.529 . S
C1428 C133 0.529 . S
C1453 C294 0.529 . S
C1458 C524 0.529 . S
C1483 C317 0.529 . S
C1488 C547 0.529 . S
C1513 C340 0.529 . S
C1518 C432 0.529 . S
C1543 C363 0.529 . S
C1548 C455 0.529 . S
C1573 C478 0.529 . S
C1578 C386 0.529 . S
C1603 C501 0.529 . S
C1608 C409 0.529 . S
C1633 C17 0.704 . S
C1638 C112 0.705 . S
C1663 C135 0.704 . S
C1668 C40 0.704 . S
C1693 C63 0.704 . S
C1698 C20 0.705 . S
C1723 C43 0.705 . S
C1728 C86 0.704 . S
C1753 C66 0.704 . S
C1758 C109 0.704 . S
C1783 C89 0.705 . S
C1788 C132 0.704 . S
C1813 C155 0.704 . S
C1818 C204 0.705 . S
C1843 C227 0.705 . S
C1848 C178 0.704 . S
C1873 C201 0.704 . S
C1878 C250 0.704 . S
C1903 C224 0.704 . S
C1908 C273 0.705 . S
C1933 C158 0.705 . S
C1938 C247 0.704 . S
C1963 C270 0.704 . S
C1968 C181 0.704 . S
C1993 C293 0.704 . S
C1998 C388 0.705 . S
C2023 C411 0.704 . S
C2028 C316 0.704 . S
C2053 C296 0.705 . S
C2058 C339 0.704 . S
C2083 C362 0.704 . S
C2088 C319 0.705 . S
C2113 C342 0.704 . S
C2118 C385 0.704 . S
C2143 C408 0.704 . S
C2148 C365 0.705 . S
C2173 C431 0.704 . S
C2178 C480 0.705 . S
C2203 C503 0.705 . S
C2208 C454 0.704 . S
C2233 C526 0.704 . S
C2238 C477 0.704 . S
C2263 C500 0.704 . S
C2268 C549 0.705 . S
C2293 C434 0.705 . S
C2298 C523 0.704 . S
C2323 C546 0.704 . S
C2328 C457 0.704 . S
C2353 C366 1.258 . S
C2358 C21 1.258 . S
C2383 C389 1.258 . S
C2388 C44 1.258 . S
C2413 C67 1.258 . S
C2418 C412 1.258 . S
C2443 C297 1.258 . S
C2448 C90 1.258 . S
C2473 C320 1.258 . S
C2478 C113 1.258 . S
C2503 C136 1.258 . S
C2508 C343 1.258 . S
C2533 C504 1.258 . S
C2538 C159 1.258 . S
C2563 C527 1.258 . S
C2568 C182 1.258 . S
C2593 C205 1.258 . S
C2598 C550 1.258 . S
C2623 C435 1.258 . S
C2628 C228 1.258 . S
C2653 C251 1.258 . S
C2658 C458 1.258 . S
C2683 C481 1.258 . S
C2688 C274 1.258 . S
