# Generated by pormake.
# Topology bsn, (6)-cn, num edge types: 1
# Building blocks:
#     Node 0, Type 0, BuildingBlock: JUFBIX_clean_sbu_0, # of connection points: 6
#     Node 1, Type 0, BuildingBlock: JUFBIX_clean_sbu_0, # of connection points: 6
#     Node 2, Type 0, BuildingBlock: JUFBIX_clean_sbu_0, # of connection points: 6
#     Node 3, Type 0, BuildingBlock: JUFBIX_clean_sbu_0, # of connection points: 6
#     Edge 4, Type (0, 0), BuildingBlock: ZUJKAS_clean_linker_0, # of connection points: 2
#     Edge 5, Type (0, 0), BuildingBlock: ZUJKAS_clean_linker_0, # of connection points: 2
#     Edge 6, Type (0, 0), BuildingBlock: ZUJKAS_clean_linker_0, # of connection points: 2
#     Edge 7, Type (0, 0), BuildingBlock: ZUJKAS_clean_linker_0, # of connection points: 2
#     Edge 8, Type (0, 0), BuildingBlock: ZUJKAS_clean_linker_0, # of connection points: 2
#     Edge 9, Type (0, 0), BuildingBlock: ZUJKAS_clean_linker_0, # of connection points: 2
#     Edge 10, Type (0, 0), BuildingBlock: ZUJKAS_clean_linker_0, # of connection points: 2
#     Edge 11, Type (0, 0), BuildingBlock: ZUJKAS_clean_linker_0, # of connection points: 2
#     Edge 12, Type (0, 0), BuildingBlock: ZUJKAS_clean_linker_0, # of connection points: 2
#     Edge 13, Type (0, 0), BuildingBlock: ZUJKAS_clean_linker_0, # of connection points: 2
#     Edge 14, Type (0, 0), BuildingBlock: ZUJKAS_clean_linker_0, # of connection points: 2
#     Edge 15, Type (0, 0), BuildingBlock: ZUJKAS_clean_linker_0, # of connection points: 2
# Relax obj value: 0.111
# Max RMSD: 0.166
# Mean RMSD: 0.166
data_MOF--net-bsn--node1-JUFBIX_clean_sbu_0--edge1-ZUJKAS_clean_linker_0
_symmetry_space_group_name_H-M    P1
_symmetry_Int_Tables_number       1
_symmetry_cell_setting            triclinic
loop_
_symmetry_equiv_pos_as_xyz
'x, y, z'
_cell_length_a     37.207656
_cell_length_b     47.360487
_cell_length_c     18.918396
_cell_angle_alpha  87.302022
_cell_angle_beta   93.440159
_cell_angle_gamma 99.357453
loop_
_atom_site_label
_atom_site_type_symbol
_atom_site_fract_x
_atom_site_fract_y
_atom_site_fract_z
_atom_type_partial_charge
Co0 Co 0.02935 0.26663 0.32866 0.0
C1 C 0.04703 0.28858 0.45864 0.0
Co2 Co 0.03992 0.31439 0.32616 0.0
C3 C 0.03113 0.20498 0.36215 0.0
C4 C 0.98843 0.21346 0.28722 0.0
N5 N 1.01686 0.22666 0.32737 0.0
N6 N 1.01277 0.17889 0.34433 0.0
C7 C 0.9859 0.18439 0.29733 0.0
H8 H 0.05458 0.20827 0.39929 0.0
H9 H 0.97029 0.22436 0.25298 0.0
C10 C 1.02237 0.2926 0.1959 0.0
N11 N 0.05132 0.35439 0.32488 0.0
C12 C 0.03888 0.37393 0.36318 0.0
C13 C 0.07429 0.37012 0.28029 0.0
N14 N 0.05307 0.40121 0.34367 0.0
C15 C 0.07545 0.39868 0.29167 0.0
C16 C 0.10116 0.28801 0.30921 0.0
O17 O 1.02043 0.26884 0.23031 0.0
O18 O 0.03108 0.31579 0.22803 0.0
O19 O 0.08966 0.31172 0.31393 0.0
O20 O 0.07896 0.26465 0.3152 0.0
O21 O 0.04868 0.31244 0.42428 0.0
H22 H 0.08908 0.36135 0.24133 0.0
H23 H 1.01922 0.36823 0.40344 0.0
O24 O 0.03852 0.26523 0.42666 0.0
O25 O 0.97988 0.26924 0.34105 0.0
O26 O 0.98995 0.31622 0.33694 0.0
C27 C 0.96777 0.29282 0.34111 0.0
H28 H 0.96523 0.16851 0.27298 0.0
H29 H 0.09185 0.41623 0.26391 0.0
Co30 Co 1.01551 0.75794 0.62699 0.0
C31 C 0.03435 0.78004 0.75687 0.0
Co32 Co 1.02543 0.80569 0.62407 0.0
C33 C 1.01655 0.69835 0.59004 0.0
C34 C 0.98216 0.70219 0.67461 0.0
N35 N 1.0045 0.71791 0.6289 0.0
N36 N 1.00271 0.67106 0.61026 0.0
C37 C 0.98096 0.67362 0.66332 0.0
H38 H 0.03566 0.70404 0.54881 0.0
H39 H 0.9678 0.71098 0.71424 0.0
C40 C 1.00666 0.78346 0.49441 0.0
N41 N 0.03753 0.8457 0.62473 0.0
C42 C 1.02277 0.86722 0.59031 0.0
C43 C 0.06622 0.85911 0.66386 0.0
N44 N 0.04106 0.89341 0.60744 0.0
C45 C 0.0684 0.88815 0.65358 0.0
C46 C 0.08712 0.78 0.60802 0.0
O47 O 1.00559 0.75967 0.52893 0.0
O48 O 1.01499 0.80687 0.52624 0.0
O49 O 0.07472 0.80343 0.60901 0.0
O50 O 0.06535 0.75644 0.61369 0.0
O51 O 0.03565 0.80372 0.72223 0.0
H52 H 0.08478 0.8484 0.69749 0.0
H53 H 0.99903 0.86375 0.55393 0.0
O54 O 1.02559 0.75677 0.72505 0.0
O55 O 0.96591 0.76028 0.64167 0.0
O56 O 0.97601 0.80734 0.64021 0.0
C57 C 0.9542 0.78383 0.6474 0.0
H58 H 0.96496 0.6561 0.69186 0.0
H59 H 0.08915 0.90419 0.67717 0.0
Co60 Co 0.52067 0.76525 0.87278 0.0
C61 C 0.5277 0.79725 -0.00589 0.0
Co62 Co 0.53332 0.81224 0.85555 0.0
C63 C 0.5227 0.70333 0.89296 0.0
C64 C 0.47564 0.71708 0.93128 0.0
N65 N 0.50603 0.72659 0.89593 0.0
N66 N 0.50384 0.68003 0.92582 0.0
C67 C 0.47418 0.68866 0.94933 0.0
H68 H 0.54894 0.70381 0.87071 0.0
H69 H 0.45643 0.73027 0.94638 0.0
C70 C 0.52693 0.78008 0.73468 0.0
N71 N 0.54628 0.85105 0.83606 0.0
C72 C 0.53479 0.8724 0.86871 0.0
C73 C 0.56977 0.86428 0.78886 0.0
N74 N 0.55028 0.8985 0.84425 0.0
C75 C 0.57224 0.89348 0.79365 0.0
C76 C 0.59416 0.78408 0.87526 0.0
O77 O 0.52247 0.75812 0.77638 0.0
O78 O 0.531 0.80508 0.75861 0.0
O79 O 0.58319 0.80794 0.86191 0.0
O80 O 0.57086 0.76164 0.88581 0.0
O81 O 0.53592 0.81889 0.95299 0.0
H82 H 0.58458 0.85339 0.75407 0.0
H83 H 0.51535 0.86877 0.90978 0.0
O84 O 0.51931 0.77259 0.96908 0.0
O85 O 0.47097 0.76958 0.85726 0.0
O86 O 0.48323 0.81629 0.84779 0.0
C87 C 0.45996 0.7935 0.84748 0.0
H88 H 0.45329 0.67547 -0.02093 0.0
H89 H 0.5896 0.9097 0.76362 0.0
Co90 Co 0.52476 0.25577 0.09398 0.0
C91 C 0.54139 0.28659 0.21691 0.0
Co92 Co 0.53664 0.30299 0.07957 0.0
C93 C 0.52214 0.19561 0.07748 0.0
C94 C 0.49045 0.2036 0.16294 0.0
N95 N 0.51207 0.2169 0.11274 0.0
N96 N 0.50761 0.16946 0.10336 0.0
C97 C 0.4877 0.17442 0.15739 0.0
H98 H 0.54003 0.19934 0.03382 0.0
H99 H 0.47727 0.21443 0.20064 0.0
C100 C 0.51997 0.27233 0.95645 0.0
N101 N 0.5506 0.34182 0.05641 0.0
C102 C 0.53503 0.36525 0.06545 0.0
C103 C 0.57858 0.35135 0.01453 0.0
N104 N 0.55225 0.38867 0.03024 0.0
C105 C 0.57978 0.37991 -0.00105 0.0
C106 C 0.5974 0.27389 0.08417 0.0
O107 O 0.5169 0.25 -0.00347 0.0
O108 O 0.52881 0.29673 -0.01722 0.0
O109 O 0.58619 0.29781 0.07732 0.0
O110 O 0.57426 0.25122 0.09019 0.0
O111 O 0.54413 0.30904 0.17677 0.0
H112 H 0.59611 0.33816 -0.00684 0.0
H113 H 0.51051 0.36484 0.09378 0.0
O114 O 0.53291 0.26201 0.19082 0.0
O115 O 0.47524 0.26053 0.09931 0.0
O116 O 0.48701 0.30735 0.08431 0.0
C117 C 0.46418 0.28464 0.09486 0.0
H118 H 0.47165 0.15819 0.18968 0.0
H119 H 0.59892 0.39309 0.9654 0.0
H120 H 0.05835 0.45302 0.27401 0.0
H121 H 0.0501 0.49844 0.32101 0.0
H122 H 1.02189 0.45571 0.52102 0.0
H123 H 0.03122 0.41003 0.4748 0.0
H124 H 0.98969 0.5153 0.37363 0.0
H125 H 0.10264 0.5208 0.58061 0.0
H126 H 0.09744 0.49583 0.51012 0.0
H127 H 0.06951 0.48873 0.58523 0.0
C128 C 0.05079 0.45319 0.32829 0.0
C129 C 0.04599 0.42777 0.37086 0.0
C130 C 0.0458 0.47925 0.35495 0.0
C131 C 0.036 0.4807 0.42497 0.0
C132 C 0.03019 0.45529 0.46724 0.0
H133 H 0.99785 0.61926 0.67997 0.0
H134 H 1.00572 0.57383 0.63268 0.0
C135 C 0.03515 0.42909 0.4405 0.0
C136 C 0.03181 0.50886 0.45297 0.0
H137 H 0.0654 0.55688 0.57957 0.0
C138 C 1.0063 0.52442 0.41857 0.0
C139 C 0.05357 0.52086 0.51147 0.0
C140 C 0.08258 0.50588 0.54875 0.0
C141 C 1.00148 0.55131 0.44179 0.0
C142 C 1.02326 0.56332 0.50027 0.0
C143 C 0.04877 0.54776 0.53465 0.0
C144 C 1.01911 0.5915 0.5283 0.0
C145 C 0.97241 0.56625 0.40459 0.0
C146 C 1.02464 0.61688 0.48588 0.0
C147 C 1.01987 0.6431 0.51279 0.0
C148 C 1.00953 0.64447 0.58277 0.0
C149 C 1.005 0.61907 0.62544 0.0
C150 C 1.00978 0.59299 0.59861 0.0
H151 H 0.95225 0.55126 0.37311 0.0
H152 H 0.95768 0.57642 0.4432 0.0
H153 H 0.9854 0.58329 0.36774 0.0
H154 H 0.03262 0.61644 0.43189 0.0
H155 H 1.02357 0.66214 0.47838 0.0
H156 H 0.65044 0.82841 0.86321 0.0
H157 H 0.71246 0.82604 0.83159 0.0
H158 H 0.68861 0.73379 0.8403 0.0
H159 H 0.62607 0.7359 0.87128 0.0
H160 H 0.76959 0.79908 0.896 0.0
H161 H 0.71876 0.75452 0.63513 0.0
H162 H 0.69027 0.77015 0.6911 0.0
H163 H 0.70008 0.73468 0.71143 0.0
C164 C 0.65846 0.80756 0.85952 0.0
C165 C 0.63319 0.78232 0.8691 0.0
C166 C 0.69396 0.80628 0.84142 0.0
C167 C 0.70485 0.77978 0.83223 0.0
C168 C 0.68045 0.75447 0.84589 0.0
H169 H 0.90191 0.73718 0.66962 0.0
H170 H 0.84168 0.73619 0.71523 0.0
C171 C 0.64485 0.75572 0.86418 0.0
C172 C 0.74106 0.77893 0.80462 0.0
H173 H 0.78233 0.76103 0.6604 0.0
C174 C 0.77245 0.79069 0.84461 0.0
C175 C 0.74459 0.76813 0.73733 0.0
C176 C 0.7117 0.75635 0.69079 0.0
C177 C 0.80738 0.79171 0.81936 0.0
C178 C 0.81088 0.78117 0.75176 0.0
C179 C 0.77951 0.76915 0.7121 0.0
C180 C 0.8469 0.78217 0.72147 0.0
C181 C 0.84025 0.80365 0.86568 0.0
C182 C 0.86941 0.80844 0.70798 0.0
C183 C 0.90392 0.80913 0.68175 0.0
C184 C 0.91641 0.78352 0.66823 0.0
C185 C 0.8932 0.75731 0.67953 0.0
C186 C 0.85877 0.75667 0.70573 0.0
H187 H 0.83354 0.80401 0.92204 0.0
H188 H 0.86263 0.79093 0.86239 0.0
H189 H 0.85037 0.82598 0.84738 0.0
H190 H 0.8604 0.82841 0.71829 0.0
H191 H 0.92105 0.82966 0.67342 0.0
H192 H 0.55757 0.42245 0.91175 0.0
H193 H 0.54864 0.47227 0.89885 0.0
H194 H 0.51467 0.46868 0.11358 0.0
H195 H 0.52457 0.41847 0.12734 0.0
H196 H 0.48792 0.49805 0.91237 0.0
H197 H 0.59962 0.53635 0.11063 0.0
H198 H 0.59373 0.50105 0.07532 0.0
H199 H 0.56465 0.50864 0.14203 0.0
C200 C 0.54828 0.43225 0.95636 0.0
C201 C 0.54242 0.4168 0.02106 0.0
C202 C 0.54297 0.46067 0.94873 0.0
C203 C 0.53173 0.47432 0.00564 0.0
C204 C 0.52409 0.45863 0.06946 0.0
H205 H 0.49399 0.64731 0.04533 0.0
H206 H 0.50288 0.5975 0.06382 0.0
C207 C 0.52935 0.42997 0.07709 0.0
C208 C 0.52903 0.50516 -0.00249 0.0
H209 H 0.56691 0.57103 0.05626 0.0
C210 C 0.50513 0.51402 0.94386 0.0
C211 C 0.55181 0.52591 0.03829 0.0
C212 C 0.57916 0.51766 0.09445 0.0
C213 C 0.50313 0.54311 0.93031 0.0
C214 C 0.52599 0.56384 0.97088 0.0
C215 C 0.54969 0.55501 0.0249 0.0
C216 C 0.52398 0.5947 0.96081 0.0
C217 C 0.47612 0.55146 0.87359 0.0
C218 C 0.53405 0.60986 0.89748 0.0
C219 C 0.52904 0.63848 0.88682 0.0
C220 C 0.51366 0.65207 0.93917 0.0
C221 C 0.50527 0.63714 0.00362 0.0
C222 C 0.51049 0.60877 0.01442 0.0
H223 H 0.4559 0.53279 0.85645 0.0
H224 H 0.46127 0.5679 0.89276 0.0
H225 H 0.49096 0.56081 0.82668 0.0
H226 H 0.545 0.59938 0.85588 0.0
H227 H 0.5357 0.64958 0.8368 0.0
H228 H 0.91388 0.2468 0.35547 0.0
H229 H 0.84998 0.24403 0.31446 0.0
H230 H 0.86743 0.3349 0.26562 0.0
H231 H 0.93167 0.33794 0.30609 0.0
H232 H 0.79127 0.27352 0.3478 0.0
H233 H 0.83594 0.29662 0.07273 0.0
H234 H 0.86612 0.28673 0.14464 0.0
H235 H 0.85547 0.32243 0.1367 0.0
C236 C 0.904 0.26635 0.33756 0.0
C237 C 0.92796 0.29255 0.33318 0.0
C238 C 0.86747 0.26469 0.31405 0.0
C239 C 0.85434 0.28912 0.28558 0.0
C240 C 0.87737 0.31572 0.2863 0.0
H241 H 0.65306 0.31852 0.06955 0.0
H242 H 0.71605 0.32055 0.11543 0.0
C243 C 0.91395 0.31745 0.31002 0.0
C244 C 0.81743 0.28625 0.2504 0.0
H245 H 0.77268 0.29117 0.08847 0.0
C246 C 0.78711 0.27734 0.29114 0.0
C247 C 0.81231 0.29105 0.17636 0.0
C248 C 0.84413 0.29952 0.12971 0.0
C249 C 0.75155 0.27372 0.25995 0.0
C250 C 0.74641 0.27852 0.18585 0.0
C251 C 0.77679 0.28735 0.14514 0.0
C252 C 0.70956 0.27595 0.1503 0.0
C253 C 0.71977 0.26554 0.3068 0.0
C254 C 0.68556 0.24981 0.15157 0.0
C255 C 0.64941 0.24852 0.12522 0.0
C256 C 0.63686 0.27338 0.0971 0.0
C257 C 0.66179 0.29901 0.09128 0.0
C258 C 0.69781 0.30025 0.1176 0.0
H259 H 0.72795 0.26908 0.36355 0.0
H260 H 0.69755 0.278 0.29097 0.0
H261 H 0.70875 0.24248 0.30136 0.0
H262 H 0.69443 0.23065 0.17514 0.0
H263 H 0.63092 0.22844 0.1303 0.0
H264 H 0.43216 0.33238 0.10688 0.0
H265 H 0.37018 0.33376 0.14259 0.0
H266 H 0.34751 0.24149 0.14865 0.0
H267 H 0.40916 0.23981 0.11377 0.0
H268 H 0.30024 0.30982 0.08079 0.0
H269 H 0.3266 0.26265 0.34947 0.0
H270 H 0.3628 0.2771 0.29224 0.0
H271 H 0.3371 0.24207 0.27831 0.0
C272 C 0.41385 0.3124 0.1151 0.0
C273 C 0.4257 0.28599 0.10806 0.0
C274 C 0.37851 0.31323 0.13563 0.0
C275 C 0.35461 0.28771 0.14967 0.0
C276 C 0.36583 0.2614 0.13957 0.0
H277 H 0.1348 0.2417 0.29081 0.0
H278 H 0.19664 0.24222 0.25239 0.0
C279 C 0.40104 0.26053 0.11919 0.0
C280 C 0.31813 0.2884 0.17615 0.0
H281 H 0.2652 0.26731 0.31654 0.0
C282 C 0.29259 0.30071 0.13247 0.0
C283 C 0.30833 0.27646 0.24363 0.0
C284 C 0.33521 0.26404 0.29401 0.0
C285 C 0.25711 0.30079 0.15385 0.0
C286 C 0.24725 0.28866 0.22111 0.0
C287 C 0.27286 0.27651 0.26494 0.0
C288 C 0.21042 0.28842 0.24697 0.0
C289 C 0.2302 0.31322 0.10363 0.0
C290 C 0.19814 0.3142 0.25839 0.0
C291 C 0.16296 0.314 0.28049 0.0
C292 C 0.13941 0.28796 0.29184 0.0
C293 C 0.15222 0.26211 0.28244 0.0
C294 C 0.18749 0.26236 0.2604 0.0
H295 H 0.23919 0.31536 0.0484 0.0
H296 H 0.20286 0.29971 0.10416 0.0
H297 H 0.22751 0.33486 0.12062 0.0
H298 H 0.21571 0.33452 0.2497 0.0
H299 H 0.15405 0.33431 0.28748 0.0
H300 H 0.40415 0.74852 0.84878 0.0
H301 H 0.34176 0.74773 0.80043 0.0
H302 H 0.36504 0.83847 0.75135 0.0
H303 H 0.42784 0.83958 0.80013 0.0
H304 H 0.29628 0.81863 0.81396 0.0
H305 H 0.31688 0.75515 0.58457 0.0
H306 H 0.32946 0.73991 0.66942 0.0
H307 H 0.35435 0.77352 0.63856 0.0
C308 C 0.396 0.76842 0.82841 0.0
C309 C 0.42105 0.7941 0.82774 0.0
C310 C 0.36039 0.76785 0.80034 0.0
C311 C 0.34918 0.79289 0.77082 0.0
C312 C 0.37343 0.81886 0.77326 0.0
H313 H 0.13981 0.82627 0.58629 0.0
H314 H 0.20492 0.82976 0.61801 0.0
C315 C 0.40919 0.81948 0.8014 0.0
C316 C 0.31216 0.7917 0.73689 0.0
H317 H 0.25585 0.76112 0.60251 0.0
C318 C 0.28747 0.80631 0.76736 0.0
C319 C 0.30089 0.77552 0.67617 0.0
C320 C 0.32683 0.76031 0.63975 0.0
C321 C 0.25133 0.80447 0.73995 0.0
C322 C 0.23993 0.78804 0.67963 0.0
C323 C 0.26475 0.7737 0.64865 0.0
C324 C 0.20196 0.78498 0.64952 0.0
C325 C 0.22532 0.81936 0.77715 0.0
C326 C 0.17927 0.75826 0.65253 0.0
C327 C 0.14202 0.75609 0.63372 0.0
C328 C 0.12703 0.78068 0.61178 0.0
C329 C 0.15045 0.80698 0.60366 0.0
C330 C 0.18763 0.80907 0.62217 0.0
H331 H 0.23602 0.82547 0.83134 0.0
H332 H 0.22115 0.83919 0.7463 0.0
H333 H 0.19837 0.80547 0.78106 0.0
H334 H 0.19 0.73937 0.67296 0.0
H335 H 0.12472 0.73553 0.64051 0.0
H336 H 0.53223 0.90984 0.97553 0.0
H337 H 0.524 0.95616 0.01797 0.0
H338 H 0.55054 0.9959 0.81392 0.0
H339 H 0.55792 0.94943 0.77034 0.0
H340 H 0.57625 1.00677 0.02362 0.0
H341 H 0.45343 1.02218 0.85343 0.0
H342 H 0.46836 0.98782 0.86714 0.0
H343 H 0.49112 1.01432 0.80689 0.0
C344 C 0.53579 0.92831 0.93925 0.0
C345 C 0.54546 0.92586 0.86928 0.0
C346 C 0.53134 0.9548 0.96381 0.0
C347 C 0.53621 0.97934 0.91881 0.0
C348 C 0.5461 0.9771 0.84913 0.0
H349 H 0.52318 0.15804 0.97034 0.0
H350 H 0.53125 0.11183 0.92713 0.0
C351 C 0.55066 0.95059 0.82453 0.0
C352 C 0.53181 1.00738 0.94557 0.0
H353 H 0.48099 0.06128 0.92197 0.0
C354 C 0.55537 1.01868 0.00164 0.0
C355 C 0.50455 1.0228 0.91662 0.0
C356 C 0.47767 1.01113 0.85809 0.0
C357 C 0.55278 0.04529 0.02887 0.0
C358 C 0.52546 0.0607 3e-05 0.0
C359 C 0.50191 0.04939 0.94391 0.0
C360 C 0.52094 0.08868 0.02706 0.0
C361 C 0.57982 0.05697 0.08716 0.0
C362 C 0.51209 0.09093 0.09742 0.0
C363 C 0.50775 0.11739 0.12252 0.0
C364 C 0.51197 0.1421 0.07757 0.0
C365 C 0.5204 0.13963 0.00681 0.0
C366 C 0.52475 0.11317 -0.01818 0.0
H367 H 0.60438 0.0463 0.09054 0.0
H368 H 0.5886 0.08039 0.07894 0.0
H369 H 0.56677 0.05318 0.13872 0.0
H370 H 0.50838 0.07217 0.13287 0.0
H371 H 0.50146 0.11852 0.17731 0.0
H372 H 1.01144 0.90833 0.47848 0.0
H373 H 1.00657 0.95715 0.43267 0.0
H374 H 0.05104 0.99081 0.63284 0.0
H375 H 0.05579 0.9425 0.67862 0.0
H376 H 0.97018 1.00003 0.48227 0.0
H377 H 0.11986 0.03587 0.49147 0.0
H378 H 0.09971 0.99858 0.49855 0.0
H379 H 0.10291 1.02069 0.5741 0.0
C380 C 1.01977 0.92612 0.51285 0.0
C381 C 0.03455 0.92151 0.58184 0.0
C382 C 1.01718 0.95402 0.48655 0.0
C383 C 0.02936 0.97775 0.52872 0.0
C384 C 0.0425 0.97299 0.59856 0.0
H385 H 0.04186 0.16373 0.47359 0.0
H386 H 0.04636 0.11484 0.51926 0.0
C387 C 0.04515 0.94529 0.62469 0.0
C388 C 0.02852 1.00754 0.50033 0.0
H389 H 0.08276 0.07204 0.46929 0.0
C390 C 0.99481 1.01572 0.47897 0.0
C391 C 0.06067 1.02811 0.49639 0.0
C392 C 0.09789 1.02038 0.51571 0.0
C393 C 0.99228 0.04397 0.45513 0.0
C394 C 1.02442 0.06454 0.45126 0.0
C395 C 0.05814 0.05636 0.47258 0.0
C396 C 1.0236 0.09436 0.42303 0.0
C397 C 0.95506 0.0517 0.43573 0.0
C398 C 1.01058 0.0992 0.35317 0.0
C399 C 1.00815 0.12696 0.32708 0.0
C400 C 1.01885 0.15069 0.37003 0.0
C401 C 0.03345 0.14598 0.43911 0.0
C402 C 0.03583 0.11804 0.46534 0.0
H403 H 0.93308 0.03618 0.45979 0.0
H404 H 0.95322 0.07348 0.45302 0.0
H405 H 0.95011 0.05146 0.37732 0.0
H406 H 1.002 0.08142 0.31878 0.0
H407 H 0.99766 0.1298 0.27307 0.0
H408 H 0.03473 0.33896 0.10508 0.0
H409 H 0.03656 0.33821 -0.02349 0.0
H410 H 1.00086 0.2468 -0.01554 0.0
H411 H 0.99921 0.24717 0.11314 0.0
H412 H 0.06937 0.26664 0.92289 0.0
H413 H 0.95815 0.3238 0.81134 0.0
H414 H 0.98668 0.34138 0.88155 0.0
H415 H 0.95828 0.3077 0.89987 0.0
C416 C 0.02645 0.31881 0.0793 0.0
C417 C 1.01738 0.29305 0.11878 0.0
C418 C 0.02732 0.31847 0.00606 0.0
C419 C 1.01875 0.29246 0.97194 0.0
C420 C 1.00748 0.267 0.01065 0.0
H421 H 0.03596 0.24221 0.5499 0.0
H422 H 0.0349 0.24303 0.6786 0.0
C423 C 1.00667 0.26728 0.08385 0.0
C424 C 1.02614 0.29133 0.89742 0.0
H425 H 1.00157 0.31473 0.73192 0.0
C426 C 0.05448 0.27696 0.88083 0.0
C427 C 1.00672 0.30513 0.8438 0.0
C428 C 0.97554 0.32021 0.85969 0.0
C429 C 0.06425 0.27626 0.81098 0.0
C430 C 0.0448 0.29004 0.75733 0.0
C431 C 1.01648 0.30442 0.77396 0.0
C432 C 0.05207 0.28887 0.68274 0.0
C433 C 0.09546 0.26122 0.79512 0.0
C434 C 0.06273 0.31436 0.64371 0.0
C435 C 0.06301 0.31404 0.57044 0.0
C436 C 0.05244 0.2882 0.53573 0.0
C437 C 0.04407 0.26243 0.57548 0.0
C438 C 0.04368 0.2628 0.64881 0.0
H439 H 0.11302 0.25787 0.84341 0.0
H440 H 0.08437 0.23993 0.77387 0.0
H441 H 0.11256 0.27361 0.75454 0.0
H442 H 0.06919 0.33461 0.66971 0.0
H443 H 0.06994 0.33418 0.54098 0.0
H444 H 0.05621 0.82586 0.83914 0.0
H445 H 0.05468 0.82637 0.96781 0.0
H446 H 1.02258 0.73459 -0.02293 0.0
H447 H 1.02425 0.73371 0.84845 0.0
H448 H 0.98656 0.80502 0.02954 0.0
H449 H 0.10039 0.75116 0.1428 0.0
H450 H 0.09986 0.76711 0.05415 0.0
H451 H 0.0727 0.7329 0.0725 0.0
C452 C 0.04961 0.80571 0.86869 0.0
C453 C 0.0398 0.77978 0.83404 0.0
C454 C 0.04885 0.80607 0.94194 0.0
C455 C 0.03858 0.78054 -0.01892 0.0
C456 C 0.03103 0.75441 0.94725 0.0
H457 H 0.98658 0.73756 0.41158 0.0
H458 H 0.98882 0.73729 0.28304 0.0
C459 C 0.03182 0.75399 0.87395 0.0
C460 C 0.03096 0.7816 0.05563 0.0
H461 H 0.05606 0.75903 0.22168 0.0
C462 C 1.00183 0.79518 0.07185 0.0
C463 C 0.05089 0.76843 0.10966 0.0
C464 C 0.08292 0.75425 0.09425 0.0
C465 C 0.99171 0.79562 0.14158 0.0
C466 C 1.01162 0.78243 0.19563 0.0
C467 C 0.0408 0.7689 0.17941 0.0
C468 C 1.00376 0.78325 0.27016 0.0
C469 C 0.95957 0.80971 0.15683 0.0
C470 C 1.01039 0.80935 0.30419 0.0
C471 C 1.0091 0.80963 0.37743 0.0
C472 C 1.00158 0.78375 0.41714 0.0
C473 C 0.99276 0.7578 0.38224 0.0
C474 C 0.99396 0.75757 0.30905 0.0
H475 H 0.94196 0.81252 0.10829 0.0
H476 H 0.94277 0.79695 0.19731 0.0
H477 H 0.96967 0.83119 0.17792 0.0
H478 H 1.01849 0.82929 0.27462 0.0
H479 H 1.01593 0.82993 0.40307 0.0
H480 H 0.58149 0.83037 0.06952 0.0
H481 H 0.59442 0.82651 0.19802 0.0
H482 H 0.49485 0.76613 0.21796 0.0
H483 H 0.48322 0.76864 0.08968 0.0
H484 H 0.56295 0.83715 0.30831 0.0
H485 H 0.56503 0.72129 0.31788 0.0
H486 H 0.56438 0.74187 0.23519 0.0
H487 H 0.52239 0.7275 0.27634 0.0
C488 C 0.56227 0.81661 0.10187 0.0
C489 C 0.53153 0.79965 0.07067 0.0
C490 C 0.56979 0.81421 0.17481 0.0
C491 C 0.54632 0.79515 0.21687 0.0
C492 C 0.51418 0.77992 0.18594 0.0
H493 H 0.49058 0.80567 0.63026 0.0
H494 H 0.50244 0.80832 0.50442 0.0
C495 C 0.50719 0.78173 0.11311 0.0
C496 C 0.55437 0.79161 0.29356 0.0
H497 H 0.54768 0.74054 0.42698 0.0
C498 C 0.56048 0.81605 0.33425 0.0
C499 C 0.55284 0.76417 0.32737 0.0
C500 C 0.55129 0.73732 0.2866 0.0
C501 C 0.56135 0.8136 0.40816 0.0
C502 C 0.55418 0.78602 0.44141 0.0
C503 C 0.55189 0.76167 0.40114 0.0
C504 C 0.54529 0.78213 0.5163 0.0
C505 C 0.56896 0.8406 0.44955 0.0
C506 C 0.56328 0.76454 0.56322 0.0
C507 C 0.55534 0.76205 0.63461 0.0
C508 C 0.52971 0.77739 0.65917 0.0
C509 C 0.51053 0.79379 0.61176 0.0
C510 C 0.51776 0.79569 0.54046 0.0
H511 H 0.5878 0.85747 0.42149 0.0
H512 H 0.54309 0.84898 0.45449 0.0
H513 H 0.58114 0.83669 0.50345 0.0
H514 H 0.5842 0.75356 0.54514 0.0
H515 H 0.57062 0.74956 0.67115 0.0
H516 H 0.53475 0.33162 0.2972 0.0
H517 H 0.53385 0.33072 0.42694 0.0
H518 H 0.5583 0.24456 0.43739 0.0
H519 H 0.55941 0.24529 0.30887 0.0
H520 H 0.48227 0.2872 0.49483 0.0
H521 H 0.62509 0.28527 0.59679 0.0
H522 H 0.61374 0.29881 0.50875 0.0
H523 H 0.60941 0.26089 0.52742 0.0
C524 C 0.54087 0.31285 0.32754 0.0
C525 C 0.5467 0.2884 0.29364 0.0
C526 C 0.54032 0.31236 0.40116 0.0
C527 C 0.54624 0.28764 0.44088 0.0
C528 C 0.55422 0.26392 0.40725 0.0
H529 H 0.52506 0.22691 0.87626 0.0
H530 H 0.52571 0.22762 0.74647 0.0
C531 C 0.5545 0.2643 0.334 0.0
C532 C 0.5393 0.28483 0.51622 0.0
H533 H 0.57859 0.27131 0.67853 0.0
C534 C 0.50331 0.28402 0.53531 0.0
C535 C 0.56686 0.28019 0.56783 0.0
C536 C 0.60603 0.28155 0.54943 0.0
C537 C 0.49401 0.27835 0.60553 0.0
C538 C 0.52158 0.2737 0.65711 0.0
C539 C 0.55755 0.27448 0.63803 0.0
C540 C 0.5147 0.27108 0.73247 0.0
C541 C 0.45489 0.27711 0.62409 0.0
C542 C 0.50761 0.29511 0.76603 0.0
C543 C 0.50757 0.29486 0.83929 0.0
C544 C 0.51463 0.27056 0.87971 0.0
C545 C 0.51954 0.24585 0.84587 0.0
C546 C 0.51993 0.24622 0.77223 0.0
H547 H 0.43579 0.27377 0.57669 0.0
H548 H 0.44706 0.25964 0.66418 0.0
H549 H 0.45175 0.29765 0.64703 0.0
H550 H 0.50407 0.31457 0.73579 0.0
H551 H 0.50337 0.31409 0.86437 0.0
loop_
_geom_bond_atom_site_label_1
_geom_bond_atom_site_label_2
_geom_bond_distance
_geom_bond_site_symmetry_2
_ccdc_geom_bond_type
Co0 N5 2.057 . S
Co0 O17 2.021 . S
Co0 O20 2.062 1_655 S
Co0 O24 2.117 1_655 S
Co0 O25 2.020 . S
C1 O21 1.259 . S
C1 O24 1.258 . S
Co2 N11 2.057 . S
Co2 O18 2.117 . S
Co2 O19 2.020 . S
Co2 O21 2.021 . S
Co2 O26 2.062 1_455 S
C3 N5 1.319 . S
C3 N6 1.342 1_655 S
C3 H8 0.930 1_655 S
C4 N5 1.375 . S
C4 C7 1.350 . S
C4 H9 0.930 . S
N5 Co0 2.057 . S
N5 C3 1.319 . S
N5 C4 1.375 . S
N6 C3 1.342 1_455 S
N6 C7 1.369 1_455 S
C7 C4 1.350 . S
C7 N6 1.369 1_655 S
C7 H28 0.931 . S
H8 C3 0.930 1_455 S
H9 C4 0.930 . S
C10 O17 1.259 1_455 S
C10 O18 1.258 . S
N11 Co2 2.057 . S
N11 C12 1.316 . S
N11 C13 1.375 . S
C12 N11 1.316 . S
C12 N14 1.347 . S
C12 H23 0.931 . S
C13 N11 1.375 . S
C13 C15 1.350 . S
C13 H22 0.930 . S
N14 C12 1.347 . S
N14 C15 1.373 . S
C15 C13 1.350 . S
C15 N14 1.373 . S
C15 H29 0.931 . S
C16 O19 1.256 . S
C16 O20 1.255 . S
O17 Co0 2.021 . S
O17 C10 1.259 1_655 S
O18 Co2 2.117 . S
O18 C10 1.258 . S
O19 Co2 2.020 . S
O19 C16 1.256 . S
O20 Co0 2.062 1_455 S
O20 C16 1.255 . S
O21 C1 1.259 . S
O21 Co2 2.021 . S
H22 C13 0.930 . S
H23 C12 0.931 . S
O24 Co0 2.117 1_455 S
O24 C1 1.258 . S
O25 Co0 2.020 . S
O25 C27 1.256 . S
O26 Co2 2.062 1_655 S
O26 C27 1.255 . S
C27 O25 1.256 . S
C27 O26 1.255 . S
H28 C7 0.931 . S
H29 C15 0.931 . S
Co30 N35 2.057 . S
Co30 O47 2.021 . S
Co30 O50 2.062 1_655 S
Co30 O54 2.117 1_655 S
Co30 O55 2.020 . S
C31 O51 1.259 . S
C31 O54 1.258 . S
Co32 N41 2.057 . S
Co32 O48 2.117 . S
Co32 O49 2.020 . S
Co32 O51 2.021 . S
Co32 O56 2.062 1_455 S
C33 N35 1.316 . S
C33 N36 1.347 . S
C33 H38 0.933 . S
C34 N35 1.375 . S
C34 C37 1.350 . S
C34 H39 0.930 . S
N35 Co30 2.057 . S
N35 C33 1.316 . S
N35 C34 1.375 . S
N36 C33 1.347 . S
N36 C37 1.373 . S
C37 C34 1.350 . S
C37 N36 1.373 . S
C37 H58 0.931 . S
H38 C33 0.933 . S
H39 C34 0.930 . S
C40 O47 1.259 1_455 S
C40 O48 1.258 . S
N41 Co32 2.057 . S
N41 C42 1.316 . S
N41 C43 1.375 . S
C42 N41 1.316 . S
C42 N44 1.347 . S
C42 H53 0.931 . S
C43 N41 1.375 . S
C43 C45 1.350 . S
C43 H52 0.930 . S
N44 C42 1.347 . S
N44 C45 1.373 . S
C45 C43 1.350 . S
C45 N44 1.373 . S
C45 H59 0.931 . S
C46 O49 1.256 . S
C46 O50 1.255 . S
O47 Co30 2.021 . S
O47 C40 1.259 1_655 S
O48 Co32 2.117 . S
O48 C40 1.258 . S
O49 Co32 2.020 . S
O49 C46 1.256 . S
O50 Co30 2.062 1_455 S
O50 C46 1.255 . S
O51 C31 1.259 . S
O51 Co32 2.021 . S
H52 C43 0.930 . S
H53 C42 0.931 . S
O54 Co30 2.117 1_455 S
O54 C31 1.258 . S
O55 Co30 2.020 . S
O55 C57 1.256 . S
O56 Co32 2.062 1_655 S
O56 C57 1.255 . S
C57 O55 1.256 . S
C57 O56 1.255 . S
H58 C37 0.931 . S
H59 C45 0.931 . S
Co60 N65 2.057 . S
Co60 O77 2.021 . S
Co60 O80 2.062 . S
Co60 O84 2.117 . S
Co60 O85 2.020 . S
C61 O81 1.259 1_554 S
C61 O84 1.258 1_554 S
Co62 N71 2.057 . S
Co62 O78 2.117 . S
Co62 O79 2.020 . S
Co62 O81 2.021 . S
Co62 O86 2.062 . S
C63 N65 1.316 . S
C63 N66 1.347 . S
C63 H68 0.931 . S
C64 N65 1.375 . S
C64 C67 1.350 . S
C64 H69 0.930 1_556 S
N65 Co60 2.057 . S
N65 C63 1.316 . S
N65 C64 1.375 . S
N66 C63 1.347 . S
N66 C67 1.373 . S
C67 C64 1.350 . S
C67 N66 1.373 . S
C67 H88 0.931 1_556 S
H68 C63 0.931 . S
H69 C64 0.930 1_554 S
C70 O77 1.259 . S
C70 O78 1.258 . S
N71 Co62 2.057 . S
N71 C72 1.316 . S
N71 C73 1.375 . S
C72 N71 1.316 . S
C72 N74 1.347 . S
C72 H83 0.931 . S
C73 N71 1.375 . S
C73 C75 1.350 . S
C73 H82 0.930 . S
N74 C72 1.347 . S
N74 C75 1.373 . S
C75 C73 1.350 . S
C75 N74 1.373 . S
C75 H89 0.931 . S
C76 O79 1.256 . S
C76 O80 1.255 . S
O77 Co60 2.021 . S
O77 C70 1.259 . S
O78 Co62 2.117 . S
O78 C70 1.258 . S
O79 Co62 2.020 . S
O79 C76 1.256 . S
O80 Co60 2.062 . S
O80 C76 1.255 . S
O81 C61 1.259 1_556 S
O81 Co62 2.021 . S
H82 C73 0.930 . S
H83 C72 0.931 . S
O84 Co60 2.117 . S
O84 C61 1.258 1_556 S
O85 Co60 2.020 . S
O85 C87 1.256 . S
O86 Co62 2.062 . S
O86 C87 1.255 . S
C87 O85 1.256 . S
C87 O86 1.255 . S
H88 C67 0.931 1_554 S
H89 C75 0.931 . S
Co90 N95 2.057 . S
Co90 O107 2.021 . S
Co90 O110 2.062 . S
Co90 O114 2.117 . S
Co90 O115 2.020 . S
C91 O111 1.259 . S
C91 O114 1.258 . S
Co92 N101 2.057 . S
Co92 O108 2.117 . S
Co92 O109 2.020 . S
Co92 O111 2.021 . S
Co92 O116 2.062 . S
C93 N95 1.316 . S
C93 N96 1.347 . S
C93 H98 0.931 . S
C94 N95 1.375 . S
C94 C97 1.350 . S
C94 H99 0.930 . S
N95 Co90 2.057 . S
N95 C93 1.316 . S
N95 C94 1.375 . S
N96 C93 1.347 . S
N96 C97 1.373 . S
C97 C94 1.350 . S
C97 N96 1.373 . S
C97 H118 0.931 . S
H98 C93 0.931 . S
H99 C94 0.930 . S
C100 O107 1.259 1_556 S
C100 O108 1.258 1_556 S
N101 Co92 2.057 . S
N101 C102 1.316 . S
N101 C103 1.375 . S
C102 N101 1.316 . S
C102 N104 1.347 . S
C102 H113 0.931 . S
C103 N101 1.375 . S
C103 C105 1.350 . S
C103 H112 0.930 1_554 S
N104 C102 1.347 . S
N104 C105 1.373 . S
C105 C103 1.350 . S
C105 N104 1.373 . S
C105 H119 0.931 1_554 S
C106 O109 1.256 . S
C106 O110 1.255 . S
O107 Co90 2.021 . S
O107 C100 1.259 1_554 S
O108 Co92 2.117 . S
O108 C100 1.258 1_554 S
O109 Co92 2.020 . S
O109 C106 1.256 . S
O110 Co90 2.062 . S
O110 C106 1.255 . S
O111 C91 1.259 . S
O111 Co92 2.021 . S
H112 C103 0.930 1_556 S
H113 C102 0.931 . S
O114 Co90 2.117 . S
O114 C91 1.258 . S
O115 Co90 2.020 . S
O115 C117 1.256 . S
O116 Co92 2.062 . S
O116 C117 1.255 . S
C117 O115 1.256 . S
C117 O116 1.255 . S
H118 C97 0.931 . S
H119 C105 0.931 1_556 S
H120 C128 0.929 . S
H121 C130 0.930 . S
H122 C132 0.930 . S
H123 C135 0.929 . S
H124 C138 0.930 . S
H125 C140 0.960 . S
H126 C140 0.960 . S
H127 C140 0.960 . S
C128 H120 0.929 . S
C128 C129 1.377 . S
C128 C130 1.384 . S
C129 C128 1.377 . S
C129 C135 1.390 1_455 S
C130 H121 0.930 . S
C130 C128 1.384 . S
C130 C131 1.372 . S
C131 C130 1.372 . S
C131 C132 1.400 1_455 S
C131 C136 1.490 . S
C132 H122 0.930 . S
C132 C131 1.400 1_655 S
C132 C135 1.386 . S
H133 C149 0.930 . S
H134 C150 0.931 . S
C135 H123 0.929 . S
C135 C129 1.390 1_655 S
C135 C132 1.386 . S
C136 C131 1.490 . S
C136 C138 1.395 1_455 S
C136 C139 1.403 . S
H137 C143 0.930 . S
C138 H124 0.930 . S
C138 C136 1.395 1_655 S
C138 C141 1.403 . S
C139 C136 1.403 . S
C139 C140 1.524 . S
C139 C143 1.400 . S
C140 H125 0.960 . S
C140 H126 0.960 . S
C140 H127 0.960 . S
C140 C139 1.524 . S
C141 C138 1.403 . S
C141 C142 1.392 1_655 S
C141 C145 1.495 . S
C142 C141 1.392 1_455 S
C142 C143 1.385 . S
C142 C144 1.477 . S
C143 H137 0.930 . S
C143 C139 1.400 . S
C143 C142 1.385 . S
C144 C142 1.477 . S
C144 C146 1.381 . S
C144 C150 1.383 1_455 S
C145 C141 1.495 . S
C145 H151 0.959 . S
C145 H152 0.961 . S
C145 H153 0.960 . S
C146 C144 1.381 . S
C146 C147 1.394 . S
C146 H154 0.930 . S
C147 C146 1.394 . S
C147 C148 1.383 . S
C147 H155 0.929 . S
C148 C147 1.383 . S
C148 C149 1.377 1_455 S
C149 H133 0.930 . S
C149 C148 1.377 1_655 S
C149 C150 1.379 . S
C150 H134 0.931 . S
C150 C144 1.383 1_655 S
C150 C149 1.379 . S
H151 C145 0.959 . S
H152 C145 0.961 . S
H153 C145 0.960 . S
H154 C146 0.930 . S
H155 C147 0.929 . S
H156 C164 0.929 . S
H157 C166 0.930 . S
H158 C168 0.930 . S
H159 C171 0.929 . S
H160 C174 0.930 . S
H161 C176 0.960 . S
H162 C176 0.960 . S
H163 C176 0.960 . S
C164 H156 0.929 . S
C164 C165 1.377 . S
C164 C166 1.384 . S
C165 C164 1.377 . S
C165 C171 1.390 . S
C166 H157 0.930 . S
C166 C164 1.384 . S
C166 C167 1.372 . S
C167 C166 1.372 . S
C167 C168 1.400 . S
C167 C172 1.490 . S
C168 H158 0.930 . S
C168 C167 1.400 . S
C168 C171 1.386 . S
H169 C185 0.930 . S
H170 C186 0.931 . S
C171 H159 0.929 . S
C171 C165 1.390 . S
C171 C168 1.386 . S
C172 C167 1.490 . S
C172 C174 1.395 . S
C172 C175 1.403 . S
H173 C179 0.930 . S
C174 H160 0.930 . S
C174 C172 1.395 . S
C174 C177 1.403 . S
C175 C172 1.403 . S
C175 C176 1.524 . S
C175 C179 1.400 . S
C176 H161 0.960 . S
C176 H162 0.960 . S
C176 H163 0.960 . S
C176 C175 1.524 . S
C177 C174 1.403 . S
C177 C178 1.392 . S
C177 C181 1.495 . S
C178 C177 1.392 . S
C178 C179 1.385 . S
C178 C180 1.478 . S
C179 H173 0.930 . S
C179 C175 1.400 . S
C179 C178 1.385 . S
C180 C178 1.478 . S
C180 C182 1.381 . S
C180 C186 1.383 . S
C181 C177 1.495 . S
C181 H187 0.959 . S
C181 H188 0.961 . S
C181 H189 0.960 . S
C182 C180 1.381 . S
C182 C183 1.394 . S
C182 H190 0.930 . S
C183 C182 1.394 . S
C183 C184 1.383 . S
C183 H191 0.929 . S
C184 C183 1.383 . S
C184 C185 1.377 . S
C185 H169 0.930 . S
C185 C184 1.377 . S
C185 C186 1.379 . S
C186 H170 0.931 . S
C186 C180 1.383 . S
C186 C185 1.379 . S
H187 C181 0.959 . S
H188 C181 0.961 . S
H189 C181 0.960 . S
H190 C182 0.930 . S
H191 C183 0.929 . S
H192 C200 0.929 . S
H193 C202 0.930 1_556 S
H194 C204 0.930 . S
H195 C207 0.929 . S
H196 C210 0.930 . S
H197 C212 0.960 . S
H198 C212 0.960 1_556 S
H199 C212 0.960 . S
C200 H192 0.929 . S
C200 C201 1.377 . S
C200 C202 1.384 . S
C201 C200 1.377 . S
C201 C207 1.390 . S
C202 H193 0.930 1_554 S
C202 C200 1.384 . S
C202 C203 1.372 . S
C203 C202 1.372 . S
C203 C204 1.400 . S
C203 C208 1.490 . S
C204 H194 0.930 . S
C204 C203 1.400 . S
C204 C207 1.386 . S
H205 C221 0.930 . S
H206 C222 0.931 1_554 S
C207 H195 0.929 . S
C207 C201 1.390 . S
C207 C204 1.386 . S
C208 C203 1.490 . S
C208 C210 1.395 . S
C208 C211 1.403 . S
H209 C215 0.930 . S
C210 H196 0.930 . S
C210 C208 1.395 . S
C210 C213 1.403 1_554 S
C211 C208 1.403 . S
C211 C212 1.524 . S
C211 C215 1.400 1_554 S
C212 H197 0.960 . S
C212 H198 0.960 1_554 S
C212 H199 0.960 . S
C212 C211 1.524 . S
C213 C210 1.403 1_556 S
C213 C214 1.392 . S
C213 C217 1.495 . S
C214 C213 1.392 . S
C214 C215 1.385 . S
C214 C216 1.478 . S
C215 H209 0.930 . S
C215 C211 1.400 1_556 S
C215 C214 1.385 . S
C216 C214 1.478 . S
C216 C218 1.381 . S
C216 C222 1.383 . S
C217 C213 1.495 . S
C217 H223 0.959 . S
C217 H224 0.961 . S
C217 H225 0.960 . S
C218 C216 1.381 . S
C218 C219 1.394 . S
C218 H226 0.930 . S
C219 C218 1.394 . S
C219 C220 1.383 . S
C219 H227 0.929 . S
C220 C219 1.383 . S
C220 C221 1.377 . S
C221 H205 0.930 . S
C221 C220 1.377 . S
C221 C222 1.379 . S
C222 H206 0.931 1_556 S
C222 C216 1.383 . S
C222 C221 1.379 . S
H223 C217 0.959 . S
H224 C217 0.961 . S
H225 C217 0.960 . S
H226 C218 0.930 . S
H227 C219 0.929 . S
H228 C236 0.929 . S
H229 C238 0.930 . S
H230 C240 0.930 . S
H231 C243 0.929 . S
H232 C246 0.930 . S
H233 C248 0.960 . S
H234 C248 0.960 . S
H235 C248 0.960 . S
C236 H228 0.929 . S
C236 C237 1.377 . S
C236 C238 1.384 . S
C237 C236 1.377 . S
C237 C243 1.390 . S
C238 H229 0.930 . S
C238 C236 1.384 . S
C238 C239 1.372 . S
C239 C238 1.372 . S
C239 C240 1.400 . S
C239 C244 1.490 . S
C240 H230 0.930 . S
C240 C239 1.400 . S
C240 C243 1.386 . S
H241 C257 0.930 . S
H242 C258 0.931 . S
C243 H231 0.929 . S
C243 C237 1.390 . S
C243 C240 1.386 . S
C244 C239 1.490 . S
C244 C246 1.395 . S
C244 C247 1.403 . S
H245 C251 0.930 . S
C246 H232 0.930 . S
C246 C244 1.395 . S
C246 C249 1.403 . S
C247 C244 1.403 . S
C247 C248 1.524 . S
C247 C251 1.400 . S
C248 H233 0.960 . S
C248 H234 0.960 . S
C248 H235 0.960 . S
C248 C247 1.524 . S
C249 C246 1.403 . S
C249 C250 1.392 . S
C249 C253 1.495 . S
C250 C249 1.392 . S
C250 C251 1.385 . S
C250 C252 1.478 . S
C251 H245 0.930 . S
C251 C247 1.400 . S
C251 C250 1.385 . S
C252 C250 1.478 . S
C252 C254 1.381 . S
C252 C258 1.383 . S
C253 C249 1.495 . S
C253 H259 0.959 . S
C253 H260 0.961 . S
C253 H261 0.960 . S
C254 C252 1.381 . S
C254 C255 1.394 . S
C254 H262 0.930 . S
C255 C254 1.394 . S
C255 C256 1.383 . S
C255 H263 0.929 . S
C256 C255 1.383 . S
C256 C257 1.377 . S
C257 H241 0.930 . S
C257 C256 1.377 . S
C257 C258 1.379 . S
C258 H242 0.931 . S
C258 C252 1.383 . S
C258 C257 1.379 . S
H259 C253 0.959 . S
H260 C253 0.961 . S
H261 C253 0.960 . S
H262 C254 0.930 . S
H263 C255 0.929 . S
H264 C272 0.929 . S
H265 C274 0.930 . S
H266 C276 0.930 . S
H267 C279 0.929 . S
H268 C282 0.930 . S
H269 C284 0.960 . S
H270 C284 0.960 . S
H271 C284 0.960 . S
C272 H264 0.929 . S
C272 C273 1.377 . S
C272 C274 1.384 . S
C273 C272 1.377 . S
C273 C279 1.390 . S
C274 H265 0.930 . S
C274 C272 1.384 . S
C274 C275 1.372 . S
C275 C274 1.372 . S
C275 C276 1.400 . S
C275 C280 1.490 . S
C276 H266 0.930 . S
C276 C275 1.400 . S
C276 C279 1.386 . S
H277 C293 0.930 . S
H278 C294 0.931 . S
C279 H267 0.929 . S
C279 C273 1.390 . S
C279 C276 1.386 . S
C280 C275 1.490 . S
C280 C282 1.395 . S
C280 C283 1.403 . S
H281 C287 0.930 . S
C282 H268 0.930 . S
C282 C280 1.395 . S
C282 C285 1.403 . S
C283 C280 1.403 . S
C283 C284 1.524 . S
C283 C287 1.400 . S
C284 H269 0.960 . S
C284 H270 0.960 . S
C284 H271 0.960 . S
C284 C283 1.524 . S
C285 C282 1.403 . S
C285 C286 1.392 . S
C285 C289 1.495 . S
C286 C285 1.392 . S
C286 C287 1.385 . S
C286 C288 1.478 . S
C287 H281 0.930 . S
C287 C283 1.400 . S
C287 C286 1.385 . S
C288 C286 1.478 . S
C288 C290 1.381 . S
C288 C294 1.383 . S
C289 C285 1.495 . S
C289 H295 0.959 . S
C289 H296 0.961 . S
C289 H297 0.960 . S
C290 C288 1.381 . S
C290 C291 1.394 . S
C290 H298 0.930 . S
C291 C290 1.394 . S
C291 C292 1.383 . S
C291 H299 0.929 . S
C292 C291 1.383 . S
C292 C293 1.377 . S
C293 H277 0.930 . S
C293 C292 1.377 . S
C293 C294 1.379 . S
C294 H278 0.931 . S
C294 C288 1.383 . S
C294 C293 1.379 . S
H295 C289 0.959 . S
H296 C289 0.961 . S
H297 C289 0.960 . S
H298 C290 0.930 . S
H299 C291 0.929 . S
H300 C308 0.929 . S
H301 C310 0.930 . S
H302 C312 0.930 . S
H303 C315 0.929 . S
H304 C318 0.930 . S
H305 C320 0.960 . S
H306 C320 0.960 . S
H307 C320 0.960 . S
C308 H300 0.929 . S
C308 C309 1.377 . S
C308 C310 1.384 . S
C309 C308 1.377 . S
C309 C315 1.390 . S
C310 H301 0.930 . S
C310 C308 1.384 . S
C310 C311 1.372 . S
C311 C310 1.372 . S
C311 C312 1.400 . S
C311 C316 1.490 . S
C312 H302 0.930 . S
C312 C311 1.400 . S
C312 C315 1.386 . S
H313 C329 0.930 . S
H314 C330 0.931 . S
C315 H303 0.929 . S
C315 C309 1.390 . S
C315 C312 1.386 . S
C316 C311 1.490 . S
C316 C318 1.395 . S
C316 C319 1.403 . S
H317 C323 0.930 . S
C318 H304 0.930 . S
C318 C316 1.395 . S
C318 C321 1.403 . S
C319 C316 1.403 . S
C319 C320 1.524 . S
C319 C323 1.400 . S
C320 H305 0.960 . S
C320 H306 0.960 . S
C320 H307 0.960 . S
C320 C319 1.524 . S
C321 C318 1.403 . S
C321 C322 1.392 . S
C321 C325 1.495 . S
C322 C321 1.392 . S
C322 C323 1.385 . S
C322 C324 1.478 . S
C323 H317 0.930 . S
C323 C319 1.400 . S
C323 C322 1.385 . S
C324 C322 1.478 . S
C324 C326 1.381 . S
C324 C330 1.383 . S
C325 C321 1.495 . S
C325 H331 0.959 . S
C325 H332 0.961 . S
C325 H333 0.960 . S
C326 C324 1.381 . S
C326 C327 1.394 . S
C326 H334 0.930 . S
C327 C326 1.394 . S
C327 C328 1.383 . S
C327 H335 0.929 . S
C328 C327 1.383 . S
C328 C329 1.377 . S
C329 H313 0.930 . S
C329 C328 1.377 . S
C329 C330 1.379 . S
C330 H314 0.931 . S
C330 C324 1.383 . S
C330 C329 1.379 . S
H331 C325 0.959 . S
H332 C325 0.961 . S
H333 C325 0.960 . S
H334 C326 0.930 . S
H335 C327 0.929 . S
H336 C344 0.930 . S
H337 C346 0.930 1_554 S
H338 C348 0.930 . S
H339 C351 0.929 . S
H340 C354 0.930 . S
H341 C356 0.960 . S
H342 C356 0.960 . S
H343 C356 0.960 . S
C344 H336 0.930 . S
C344 C345 1.377 . S
C344 C346 1.384 . S
C345 C344 1.377 . S
C345 C351 1.390 . S
C346 H337 0.930 1_556 S
C346 C344 1.384 . S
C346 C347 1.372 . S
C347 C346 1.372 . S
C347 C348 1.400 . S
C347 C352 1.490 . S
C348 H338 0.930 . S
C348 C347 1.400 . S
C348 C351 1.386 . S
H349 C365 0.930 . S
H350 C366 0.931 1_556 S
C351 H339 0.929 . S
C351 C345 1.390 . S
C351 C348 1.386 . S
C352 C347 1.490 . S
C352 C354 1.395 1_556 S
C352 C355 1.403 . S
H353 C359 0.930 . S
C354 H340 0.930 . S
C354 C352 1.395 1_554 S
C354 C357 1.403 1_565 S
C355 C352 1.403 . S
C355 C356 1.524 . S
C355 C359 1.400 1_565 S
C356 H341 0.960 . S
C356 H342 0.960 . S
C356 H343 0.960 . S
C356 C355 1.524 . S
C357 C354 1.403 1_545 S
C357 C358 1.392 . S
C357 C361 1.495 . S
C358 C357 1.392 . S
C358 C359 1.385 1_554 S
C358 C360 1.478 . S
C359 H353 0.930 . S
C359 C355 1.400 1_545 S
C359 C358 1.385 1_556 S
C360 C358 1.478 . S
C360 C362 1.381 . S
C360 C366 1.383 . S
C361 C357 1.495 . S
C361 H367 0.967 . S
C361 H368 0.961 . S
C361 H369 0.960 . S
C362 C360 1.381 . S
C362 C363 1.394 . S
C362 H370 0.930 . S
C363 C362 1.394 . S
C363 C364 1.383 . S
C363 H371 0.929 . S
C364 C363 1.383 . S
C364 C365 1.377 . S
C365 H349 0.930 . S
C365 C364 1.377 . S
C365 C366 1.379 . S
C366 H350 0.931 1_554 S
C366 C360 1.383 . S
C366 C365 1.379 . S
H367 C361 0.967 . S
H368 C361 0.961 . S
H369 C361 0.960 . S
H370 C362 0.930 . S
H371 C363 0.929 . S
H372 C380 0.929 . S
H373 C382 0.930 . S
H374 C384 0.930 . S
H375 C387 0.929 . S
H376 C390 0.930 . S
H377 C392 0.960 . S
H378 C392 0.960 . S
H379 C392 0.960 . S
C380 H372 0.929 . S
C380 C381 1.377 1_655 S
C380 C382 1.384 . S
C381 C380 1.377 1_455 S
C381 C387 1.390 . S
C382 H373 0.930 . S
C382 C380 1.384 . S
C382 C383 1.372 1_655 S
C383 C382 1.372 1_455 S
C383 C384 1.400 . S
C383 C388 1.490 . S
C384 H374 0.930 . S
C384 C383 1.400 . S
C384 C387 1.386 . S
H385 C401 0.930 . S
H386 C402 0.931 . S
C387 H375 0.929 . S
C387 C381 1.390 . S
C387 C384 1.386 . S
C388 C383 1.490 . S
C388 C390 1.395 1_455 S
C388 C391 1.403 . S
H389 C395 0.930 . S
C390 H376 0.930 . S
C390 C388 1.395 1_655 S
C390 C393 1.403 1_565 S
C391 C388 1.403 . S
C391 C392 1.524 . S
C391 C395 1.400 1_565 S
C392 H377 0.960 . S
C392 H378 0.960 . S
C392 H379 0.960 . S
C392 C391 1.524 . S
C393 C390 1.403 1_545 S
C393 C394 1.392 . S
C393 C397 1.495 . S
C394 C393 1.392 . S
C394 C395 1.385 1_655 S
C394 C396 1.478 . S
C395 H389 0.930 . S
C395 C391 1.400 1_545 S
C395 C394 1.385 1_455 S
C396 C394 1.478 . S
C396 C398 1.381 . S
C396 C402 1.383 1_655 S
C397 C393 1.495 . S
C397 H403 0.959 . S
C397 H404 0.961 . S
C397 H405 0.960 . S
C398 C396 1.381 . S
C398 C399 1.394 . S
C398 H406 0.930 . S
C399 C398 1.394 . S
C399 C400 1.383 1_655 S
C399 H407 0.929 . S
C400 C399 1.383 1_455 S
C400 C401 1.377 . S
C401 H385 0.930 . S
C401 C400 1.377 . S
C401 C402 1.379 . S
C402 H386 0.931 . S
C402 C396 1.383 1_455 S
C402 C401 1.379 . S
H403 C397 0.959 . S
H404 C397 0.961 . S
H405 C397 0.960 . S
H406 C398 0.930 . S
H407 C399 0.929 . S
H408 C416 0.929 . S
H409 C418 0.930 . S
H410 C420 0.930 . S
H411 C423 0.929 . S
H412 C426 0.930 . S
H413 C428 0.960 . S
H414 C428 0.960 . S
H415 C428 0.960 . S
C416 H408 0.929 . S
C416 C417 1.377 . S
C416 C418 1.384 . S
C417 C416 1.377 . S
C417 C423 1.390 1_455 S
C418 H409 0.930 . S
C418 C416 1.384 . S
C418 C419 1.372 . S
C419 C418 1.372 . S
C419 C420 1.400 1_455 S
C419 C424 1.490 1_554 S
C420 H410 0.930 . S
C420 C419 1.400 1_655 S
C420 C423 1.386 . S
H421 C437 0.930 . S
H422 C438 0.931 . S
C423 H411 0.929 . S
C423 C417 1.390 1_655 S
C423 C420 1.386 . S
C424 C419 1.490 1_556 S
C424 C426 1.395 . S
C424 C427 1.403 1_455 S
H425 C431 0.930 . S
C426 H412 0.930 . S
C426 C424 1.395 . S
C426 C429 1.403 . S
C427 C424 1.403 1_655 S
C427 C428 1.524 . S
C427 C431 1.400 . S
C428 H413 0.960 . S
C428 H414 0.960 . S
C428 H415 0.960 . S
C428 C427 1.524 . S
C429 C426 1.403 . S
C429 C430 1.392 . S
C429 C433 1.495 . S
C430 C429 1.392 . S
C430 C431 1.385 1_455 S
C430 C432 1.478 . S
C431 H425 0.930 . S
C431 C427 1.400 . S
C431 C430 1.385 1_655 S
C432 C430 1.478 . S
C432 C434 1.381 . S
C432 C438 1.383 1_455 S
C433 C429 1.495 . S
C433 H439 0.959 . S
C433 H440 0.961 . S
C433 H441 0.960 . S
C434 C432 1.381 . S
C434 C435 1.394 . S
C434 H442 0.930 . S
C435 C434 1.394 . S
C435 C436 1.383 . S
C435 H443 0.929 . S
C436 C435 1.383 . S
C436 C437 1.377 1_455 S
C437 H421 0.930 . S
C437 C436 1.377 1_655 S
C437 C438 1.379 . S
C438 H422 0.931 . S
C438 C432 1.383 1_655 S
C438 C437 1.379 . S
H439 C433 0.959 . S
H440 C433 0.961 . S
H441 C433 0.960 . S
H442 C434 0.930 . S
H443 C435 0.929 . S
H444 C452 0.929 . S
H445 C454 0.930 . S
H446 C456 0.930 . S
H447 C459 0.929 . S
H448 C462 0.930 . S
H449 C464 0.960 . S
H450 C464 0.960 . S
H451 C464 0.960 . S
C452 H444 0.929 . S
C452 C453 1.377 . S
C452 C454 1.384 . S
C453 C452 1.377 . S
C453 C459 1.390 1_455 S
C454 H445 0.930 . S
C454 C452 1.384 . S
C454 C455 1.372 . S
C455 C454 1.372 . S
C455 C456 1.400 1_455 S
C455 C460 1.490 1_556 S
C456 H446 0.930 . S
C456 C455 1.400 1_655 S
C456 C459 1.386 . S
H457 C473 0.930 . S
H458 C474 0.931 . S
C459 H447 0.929 . S
C459 C453 1.390 1_655 S
C459 C456 1.386 . S
C460 C455 1.490 1_554 S
C460 C462 1.395 1_455 S
C460 C463 1.403 . S
H461 C467 0.930 . S
C462 H448 0.930 . S
C462 C460 1.395 1_655 S
C462 C465 1.403 . S
C463 C460 1.403 . S
C463 C464 1.524 . S
C463 C467 1.400 . S
C464 H449 0.960 . S
C464 H450 0.960 . S
C464 H451 0.960 . S
C464 C463 1.524 . S
C465 C462 1.403 . S
C465 C466 1.392 1_655 S
C465 C469 1.495 . S
C466 C465 1.392 1_455 S
C466 C467 1.385 . S
C466 C468 1.479 . S
C467 H461 0.930 . S
C467 C463 1.400 . S
C467 C466 1.385 . S
C468 C466 1.479 . S
C468 C470 1.395 . S
C468 C474 1.369 1_455 S
C469 C465 1.495 . S
C469 H475 0.959 . S
C469 H476 0.961 . S
C469 H477 0.960 . S
C470 C468 1.395 . S
C470 C471 1.394 . S
C470 H478 0.930 . S
C471 C470 1.394 . S
C471 C472 1.383 . S
C471 H479 0.929 . S
C472 C471 1.383 . S
C472 C473 1.377 1_455 S
C473 H457 0.930 . S
C473 C472 1.377 1_655 S
C473 C474 1.379 . S
C474 H458 0.931 . S
C474 C468 1.369 1_655 S
C474 C473 1.379 . S
H475 C469 0.959 . S
H476 C469 0.961 . S
H477 C469 0.960 . S
H478 C470 0.930 . S
H479 C471 0.929 . S
H480 C488 0.929 . S
H481 C490 0.930 . S
H482 C492 0.930 . S
H483 C495 0.929 . S
H484 C498 0.930 . S
H485 C500 0.960 . S
H486 C500 0.960 . S
H487 C500 0.960 . S
C488 H480 0.929 . S
C488 C489 1.377 . S
C488 C490 1.384 . S
C489 C488 1.377 . S
C489 C495 1.390 . S
C490 H481 0.930 . S
C490 C488 1.384 . S
C490 C491 1.372 . S
C491 C490 1.372 . S
C491 C492 1.400 . S
C491 C496 1.490 . S
C492 H482 0.930 . S
C492 C491 1.400 . S
C492 C495 1.386 . S
H493 C509 0.930 . S
H494 C510 0.931 . S
C495 H483 0.929 . S
C495 C489 1.390 . S
C495 C492 1.386 . S
C496 C491 1.490 . S
C496 C498 1.395 . S
C496 C499 1.403 . S
H497 C503 0.930 . S
C498 H484 0.930 . S
C498 C496 1.395 . S
C498 C501 1.403 . S
C499 C496 1.403 . S
C499 C500 1.524 . S
C499 C503 1.400 . S
C500 H485 0.960 . S
C500 H486 0.960 . S
C500 H487 0.960 . S
C500 C499 1.524 . S
C501 C498 1.403 . S
C501 C502 1.392 . S
C501 C505 1.495 . S
C502 C501 1.392 . S
C502 C503 1.385 . S
C502 C504 1.478 . S
C503 H497 0.930 . S
C503 C499 1.400 . S
C503 C502 1.385 . S
C504 C502 1.478 . S
C504 C506 1.381 . S
C504 C510 1.383 . S
C505 C501 1.495 . S
C505 H511 0.959 . S
C505 H512 0.961 . S
C505 H513 0.960 . S
C506 C504 1.381 . S
C506 C507 1.394 . S
C506 H514 0.930 . S
C507 C506 1.394 . S
C507 C508 1.383 . S
C507 H515 0.929 . S
C508 C507 1.383 . S
C508 C509 1.377 . S
C509 H493 0.930 . S
C509 C508 1.377 . S
C509 C510 1.379 . S
C510 H494 0.931 . S
C510 C504 1.383 . S
C510 C509 1.379 . S
H511 C505 0.959 . S
H512 C505 0.961 . S
H513 C505 0.960 . S
H514 C506 0.930 . S
H515 C507 0.929 . S
H516 C524 0.929 . S
H517 C526 0.930 . S
H518 C528 0.930 . S
H519 C531 0.929 . S
H520 C534 0.930 . S
H521 C536 0.960 . S
H522 C536 0.960 . S
H523 C536 0.960 . S
C524 H516 0.929 . S
C524 C525 1.377 . S
C524 C526 1.384 . S
C525 C524 1.377 . S
C525 C531 1.390 . S
C526 H517 0.930 . S
C526 C524 1.384 . S
C526 C527 1.372 . S
C527 C526 1.372 . S
C527 C528 1.400 . S
C527 C532 1.490 . S
C528 H518 0.930 . S
C528 C527 1.400 . S
C528 C531 1.386 . S
H529 C545 0.930 . S
H530 C546 0.931 . S
C531 H519 0.929 . S
C531 C525 1.390 . S
C531 C528 1.386 . S
C532 C527 1.490 . S
C532 C534 1.395 . S
C532 C535 1.403 . S
H533 C539 0.930 . S
C534 H520 0.930 . S
C534 C532 1.395 . S
C534 C537 1.403 . S
C535 C532 1.403 . S
C535 C536 1.524 . S
C535 C539 1.400 . S
C536 H521 0.960 . S
C536 H522 0.960 . S
C536 H523 0.960 . S
C536 C535 1.524 . S
C537 C534 1.403 . S
C537 C538 1.392 . S
C537 C541 1.495 . S
C538 C537 1.392 . S
C538 C539 1.385 . S
C538 C540 1.478 . S
C539 H533 0.930 . S
C539 C535 1.400 . S
C539 C538 1.385 . S
C540 C538 1.478 . S
C540 C542 1.381 . S
C540 C546 1.383 . S
C541 C537 1.495 . S
C541 H547 0.959 . S
C541 H548 0.961 . S
C541 H549 0.960 . S
C542 C540 1.381 . S
C542 C543 1.394 . S
C542 H550 0.930 . S
C543 C542 1.394 . S
C543 C544 1.383 . S
C543 H551 0.929 . S
C544 C543 1.383 . S
C544 C545 1.377 . S
C545 H529 0.930 . S
C545 C544 1.377 . S
C545 C546 1.379 . S
C546 H530 0.931 . S
C546 C540 1.383 . S
C546 C545 1.379 . S
H547 C541 0.959 . S
H548 C541 0.961 . S
H549 C541 0.960 . S
H550 C542 0.930 . S
H551 C543 0.929 . S
C129 N14 1.871 . S
C148 N36 1.866 1_455 S
C165 C76 1.838 . S
C184 C57 1.821 . S
C201 N104 1.630 . S
C220 N66 1.622 . S
C237 C27 1.709 . S
C256 C106 1.693 . S
C273 C117 1.838 . S
C292 C16 1.821 . S
C309 C87 1.712 . S
C328 C46 1.699 . S
C345 N74 1.875 . S
C364 N96 1.874 . S
C381 N44 1.630 . S
C400 N6 1.620 . S
C417 C10 0.732 . S
C436 C1 0.729 . S
C453 C31 0.727 . S
C472 C40 0.738 . S
C489 C61 0.730 . S
C508 C70 0.744 . S
C525 C91 0.726 . S
C544 C100 0.719 . S
