# Generated by pormake.
# Topology ukm, (4)-cn, num edge types: 1
# Building blocks:
#     Node 0, Type 0, BuildingBlock: GALJAG_clean_sbu_0, # of connection points: 4
#     Node 1, Type 0, BuildingBlock: GALJAG_clean_sbu_0, # of connection points: 4
#     Node 2, Type 0, BuildingBlock: GALJAG_clean_sbu_0, # of connection points: 4
#     Node 3, Type 0, BuildingBlock: GALJAG_clean_sbu_0, # of connection points: 4
#     Node 4, Type 0, BuildingBlock: GALJAG_clean_sbu_0, # of connection points: 4
#     Node 5, Type 0, BuildingBlock: GALJAG_clean_sbu_0, # of connection points: 4
#     Node 6, Type 0, BuildingBlock: GALJAG_clean_sbu_0, # of connection points: 4
#     Node 7, Type 0, BuildingBlock: GALJAG_clean_sbu_0, # of connection points: 4
#     Node 8, Type 0, BuildingBlock: GALJAG_clean_sbu_0, # of connection points: 4
#     Node 9, Type 0, BuildingBlock: GALJAG_clean_sbu_0, # of connection points: 4
#     Node 10, Type 0, BuildingBlock: GALJAG_clean_sbu_0, # of connection points: 4
#     Node 11, Type 0, BuildingBlock: GALJAG_clean_sbu_0, # of connection points: 4
#     Node 12, Type 0, BuildingBlock: GALJAG_clean_sbu_0, # of connection points: 4
#     Node 13, Type 0, BuildingBlock: GALJAG_clean_sbu_0, # of connection points: 4
#     Node 14, Type 0, BuildingBlock: GALJAG_clean_sbu_0, # of connection points: 4
#     Node 15, Type 0, BuildingBlock: GALJAG_clean_sbu_0, # of connection points: 4
#     Node 16, Type 0, BuildingBlock: GALJAG_clean_sbu_0, # of connection points: 4
#     Node 17, Type 0, BuildingBlock: GALJAG_clean_sbu_0, # of connection points: 4
#     Node 18, Type 0, BuildingBlock: GALJAG_clean_sbu_0, # of connection points: 4
#     Node 19, Type 0, BuildingBlock: GALJAG_clean_sbu_0, # of connection points: 4
#     Node 20, Type 0, BuildingBlock: GALJAG_clean_sbu_0, # of connection points: 4
#     Node 21, Type 0, BuildingBlock: GALJAG_clean_sbu_0, # of connection points: 4
#     Node 22, Type 0, BuildingBlock: GALJAG_clean_sbu_0, # of connection points: 4
#     Node 23, Type 0, BuildingBlock: GALJAG_clean_sbu_0, # of connection points: 4
#     Node 24, Type 0, BuildingBlock: GALJAG_clean_sbu_0, # of connection points: 4
#     Node 25, Type 0, BuildingBlock: GALJAG_clean_sbu_0, # of connection points: 4
#     Node 26, Type 0, BuildingBlock: GALJAG_clean_sbu_0, # of connection points: 4
#     Node 27, Type 0, BuildingBlock: GALJAG_clean_sbu_0, # of connection points: 4
#     Node 28, Type 0, BuildingBlock: GALJAG_clean_sbu_0, # of connection points: 4
#     Node 29, Type 0, BuildingBlock: GALJAG_clean_sbu_0, # of connection points: 4
#     Node 30, Type 0, BuildingBlock: GALJAG_clean_sbu_0, # of connection points: 4
#     Node 31, Type 0, BuildingBlock: GALJAG_clean_sbu_0, # of connection points: 4
#     Edge 32, Type (0, 0), BuildingBlock: TEMPAE_clean_linker_10, # of connection points: 2
#     Edge 33, Type (0, 0), BuildingBlock: TEMPAE_clean_linker_10, # of connection points: 2
#     Edge 34, Type (0, 0), BuildingBlock: TEMPAE_clean_linker_10, # of connection points: 2
#     Edge 35, Type (0, 0), BuildingBlock: TEMPAE_clean_linker_10, # of connection points: 2
#     Edge 36, Type (0, 0), BuildingBlock: TEMPAE_clean_linker_10, # of connection points: 2
#     Edge 37, Type (0, 0), BuildingBlock: TEMPAE_clean_linker_10, # of connection points: 2
#     Edge 38, Type (0, 0), BuildingBlock: TEMPAE_clean_linker_10, # of connection points: 2
#     Edge 39, Type (0, 0), BuildingBlock: TEMPAE_clean_linker_10, # of connection points: 2
#     Edge 40, Type (0, 0), BuildingBlock: TEMPAE_clean_linker_10, # of connection points: 2
#     Edge 41, Type (0, 0), BuildingBlock: TEMPAE_clean_linker_10, # of connection points: 2
#     Edge 42, Type (0, 0), BuildingBlock: TEMPAE_clean_linker_10, # of connection points: 2
#     Edge 43, Type (0, 0), BuildingBlock: TEMPAE_clean_linker_10, # of connection points: 2
#     Edge 44, Type (0, 0), BuildingBlock: TEMPAE_clean_linker_10, # of connection points: 2
#     Edge 45, Type (0, 0), BuildingBlock: TEMPAE_clean_linker_10, # of connection points: 2
#     Edge 46, Type (0, 0), BuildingBlock: TEMPAE_clean_linker_10, # of connection points: 2
#     Edge 47, Type (0, 0), BuildingBlock: TEMPAE_clean_linker_10, # of connection points: 2
#     Edge 48, Type (0, 0), BuildingBlock: TEMPAE_clean_linker_10, # of connection points: 2
#     Edge 49, Type (0, 0), BuildingBlock: TEMPAE_clean_linker_10, # of connection points: 2
#     Edge 50, Type (0, 0), BuildingBlock: TEMPAE_clean_linker_10, # of connection points: 2
#     Edge 51, Type (0, 0), BuildingBlock: TEMPAE_clean_linker_10, # of connection points: 2
#     Edge 52, Type (0, 0), BuildingBlock: TEMPAE_clean_linker_10, # of connection points: 2
#     Edge 53, Type (0, 0), BuildingBlock: TEMPAE_clean_linker_10, # of connection points: 2
#     Edge 54, Type (0, 0), BuildingBlock: TEMPAE_clean_linker_10, # of connection points: 2
#     Edge 55, Type (0, 0), BuildingBlock: TEMPAE_clean_linker_10, # of connection points: 2
#     Edge 56, Type (0, 0), BuildingBlock: TEMPAE_clean_linker_10, # of connection points: 2
#     Edge 57, Type (0, 0), BuildingBlock: TEMPAE_clean_linker_10, # of connection points: 2
#     Edge 58, Type (0, 0), BuildingBlock: TEMPAE_clean_linker_10, # of connection points: 2
#     Edge 59, Type (0, 0), BuildingBlock: TEMPAE_clean_linker_10, # of connection points: 2
#     Edge 60, Type (0, 0), BuildingBlock: TEMPAE_clean_linker_10, # of connection points: 2
#     Edge 61, Type (0, 0), BuildingBlock: TEMPAE_clean_linker_10, # of connection points: 2
#     Edge 62, Type (0, 0), BuildingBlock: TEMPAE_clean_linker_10, # of connection points: 2
#     Edge 63, Type (0, 0), BuildingBlock: TEMPAE_clean_linker_10, # of connection points: 2
#     Edge 64, Type (0, 0), BuildingBlock: TEMPAE_clean_linker_10, # of connection points: 2
#     Edge 65, Type (0, 0), BuildingBlock: TEMPAE_clean_linker_10, # of connection points: 2
#     Edge 66, Type (0, 0), BuildingBlock: TEMPAE_clean_linker_10, # of connection points: 2
#     Edge 67, Type (0, 0), BuildingBlock: TEMPAE_clean_linker_10, # of connection points: 2
#     Edge 68, Type (0, 0), BuildingBlock: TEMPAE_clean_linker_10, # of connection points: 2
#     Edge 69, Type (0, 0), BuildingBlock: TEMPAE_clean_linker_10, # of connection points: 2
#     Edge 70, Type (0, 0), BuildingBlock: TEMPAE_clean_linker_10, # of connection points: 2
#     Edge 71, Type (0, 0), BuildingBlock: TEMPAE_clean_linker_10, # of connection points: 2
#     Edge 72, Type (0, 0), BuildingBlock: TEMPAE_clean_linker_10, # of connection points: 2
#     Edge 73, Type (0, 0), BuildingBlock: TEMPAE_clean_linker_10, # of connection points: 2
#     Edge 74, Type (0, 0), BuildingBlock: TEMPAE_clean_linker_10, # of connection points: 2
#     Edge 75, Type (0, 0), BuildingBlock: TEMPAE_clean_linker_10, # of connection points: 2
#     Edge 76, Type (0, 0), BuildingBlock: TEMPAE_clean_linker_10, # of connection points: 2
#     Edge 77, Type (0, 0), BuildingBlock: TEMPAE_clean_linker_10, # of connection points: 2
#     Edge 78, Type (0, 0), BuildingBlock: TEMPAE_clean_linker_10, # of connection points: 2
#     Edge 79, Type (0, 0), BuildingBlock: TEMPAE_clean_linker_10, # of connection points: 2
#     Edge 80, Type (0, 0), BuildingBlock: TEMPAE_clean_linker_10, # of connection points: 2
#     Edge 81, Type (0, 0), BuildingBlock: TEMPAE_clean_linker_10, # of connection points: 2
#     Edge 82, Type (0, 0), BuildingBlock: TEMPAE_clean_linker_10, # of connection points: 2
#     Edge 83, Type (0, 0), BuildingBlock: TEMPAE_clean_linker_10, # of connection points: 2
#     Edge 84, Type (0, 0), BuildingBlock: TEMPAE_clean_linker_10, # of connection points: 2
#     Edge 85, Type (0, 0), BuildingBlock: TEMPAE_clean_linker_10, # of connection points: 2
#     Edge 86, Type (0, 0), BuildingBlock: TEMPAE_clean_linker_10, # of connection points: 2
#     Edge 87, Type (0, 0), BuildingBlock: TEMPAE_clean_linker_10, # of connection points: 2
#     Edge 88, Type (0, 0), BuildingBlock: TEMPAE_clean_linker_10, # of connection points: 2
#     Edge 89, Type (0, 0), BuildingBlock: TEMPAE_clean_linker_10, # of connection points: 2
#     Edge 90, Type (0, 0), BuildingBlock: TEMPAE_clean_linker_10, # of connection points: 2
#     Edge 91, Type (0, 0), BuildingBlock: TEMPAE_clean_linker_10, # of connection points: 2
#     Edge 92, Type (0, 0), BuildingBlock: TEMPAE_clean_linker_10, # of connection points: 2
#     Edge 93, Type (0, 0), BuildingBlock: TEMPAE_clean_linker_10, # of connection points: 2
#     Edge 94, Type (0, 0), BuildingBlock: TEMPAE_clean_linker_10, # of connection points: 2
#     Edge 95, Type (0, 0), BuildingBlock: TEMPAE_clean_linker_10, # of connection points: 2
# Relax obj value: 0.098
# Max RMSD: 0.122
# Mean RMSD: 0.122
data_MOF--net-ukm--node1-GALJAG_clean_sbu_0--edge1-TEMPAE_clean_linker_10
_symmetry_space_group_name_H-M    P1
_symmetry_Int_Tables_number       1
_symmetry_cell_setting            triclinic
loop_
_symmetry_equiv_pos_as_xyz
'x, y, z'
_cell_length_a     25.314077
_cell_length_b     103.19261
_cell_length_c     45.37251
_cell_angle_alpha  90.029179
_cell_angle_beta   89.981744
_cell_angle_gamma 89.994345
loop_
_atom_site_label
_atom_site_type_symbol
_atom_site_fract_x
_atom_site_fract_y
_atom_site_fract_z
_atom_type_partial_charge
In0 In 0.07869 0.31684 0.30084 0.0
O1 O 0.03727 0.326 0.34084 0.0
O2 O 0.02461 0.33446 0.29899 0.0
C3 C 0.02331 0.29476 0.29244 0.0
C4 C 0.17149 0.31712 0.33068 0.0
C5 C 0.11152 0.32064 0.24517 0.0
O6 O 0.00771 0.30562 0.28322 0.0
O7 O 0.0653 0.29514 0.30735 0.0
O8 O 0.0947 0.32975 0.2612 0.0
O9 O 0.11315 0.3097 0.25756 0.0
C10 C 0.01569 0.33496 0.32624 0.0
O11 O 0.16271 0.32413 0.3085 0.0
O12 O 0.13302 0.3101 0.33831 0.0
In13 In 0.16626 0.93548 0.28656 0.0
O14 O 0.07692 0.93538 0.29096 0.0
O15 O 0.12156 0.94244 0.32736 0.0
C16 C 0.15166 0.93053 0.22903 0.0
C17 C 0.2022 0.9143 0.31494 0.0
C18 C 0.22597 0.95687 0.27862 0.0
O19 O 0.12375 0.93862 0.24295 0.0
O20 O 0.18568 0.9247 0.24437 0.0
O21 O 0.23972 0.94583 0.26963 0.0
O22 O 0.18392 0.95699 0.2935 0.0
C23 C 0.07647 0.93994 0.3168 0.0
O24 O 0.22591 0.92505 0.31677 0.0
O25 O 0.16138 0.91443 0.29912 0.0
In26 In 0.08357 0.93381 0.95506 0.0
O27 O 0.03262 0.92644 0.91613 0.0
O28 O 0.04352 0.9143 0.9532 0.0
C29 C 0.02469 0.95491 0.96865 0.0
C30 C 0.17441 0.9348 0.92346 0.0
C31 C 0.12006 0.92881 0.00949 0.0
O32 O 0.02425 0.94465 0.98357 0.0
O33 O 0.05214 0.9543 0.94548 0.0
O34 O 0.13824 0.93795 0.99402 0.0
O35 O 0.08502 0.92207 0.99707 0.0
C36 C 0.02384 0.91557 0.92796 0.0
O37 O 0.14488 0.94452 0.92699 0.0
O38 O 0.15802 0.9246 0.93571 0.0
In39 In 0.14562 0.32037 0.96715 0.0
O40 O 0.05925 0.32528 0.95855 0.0
O41 O 0.10033 0.31442 0.92592 0.0
C42 C 0.14093 0.3246 0.02548 0.0
C43 C 0.1932 0.34088 0.94157 0.0
C44 C 0.18313 0.29604 0.97162 0.0
O45 O 0.10025 0.32246 0.01013 0.0
O46 O 0.18376 0.32482 0.01127 0.0
O47 O 0.21334 0.30567 0.96813 0.0
O48 O 0.13456 0.29869 0.97178 0.0
C49 C 0.05755 0.31966 0.93384 0.0
O50 O 0.20155 0.32942 0.93292 0.0
O51 O 0.16227 0.3418 0.9632 0.0
In52 In 0.87801 0.68072 0.70052 0.0
O53 O 0.79722 0.67175 0.6936 0.0
O54 O 0.81541 0.68879 0.66911 0.0
C55 C 0.87785 0.66852 0.75302 0.0
C56 C 0.93992 0.666 0.66502 0.0
C57 C 0.90275 0.70556 0.71448 0.0
O58 O 0.83679 0.67322 0.74152 0.0
O59 O 0.919 0.66959 0.73754 0.0
O60 O 0.9209 0.70012 0.69169 0.0
O61 O 0.87187 0.69861 0.7293 0.0
C62 C 0.78186 0.68009 0.67513 0.0
O63 O 0.89211 0.66843 0.65971 0.0
O64 O 0.95766 0.67145 0.68783 0.0
In65 In 0.88118 0.06147 0.7153 0.0
O66 O 0.81453 0.07217 0.69069 0.0
O67 O 0.8832 0.08263 0.70368 0.0
C68 C 0.84129 0.03744 0.72292 0.0
C69 C 0.96582 0.05716 0.68051 0.0
C70 C 0.88366 0.07001 0.77118 0.0
O71 O 0.81811 0.04578 0.7071 0.0
O72 O 0.88455 0.04115 0.73372 0.0
O73 O 0.92393 0.07016 0.75477 0.0
O74 O 0.8422 0.06571 0.75926 0.0
C75 C 0.83886 0.0829 0.69105 0.0
O76 O 0.96835 0.05677 0.70825 0.0
O77 O 0.92042 0.05939 0.67024 0.0
In78 In 0.90379 0.06832 0.04734 0.0
O79 O 0.81373 0.06825 0.04572 0.0
O80 O 0.84993 0.0729 0.08658 0.0
C81 C 0.91109 0.07402 0.98973 0.0
C82 C 0.96636 0.08591 0.07416 0.0
C83 C 0.92418 0.04259 0.04696 0.0
O84 O 0.87749 0.07937 0.00633 0.0
O85 O 0.94146 0.0661 0.00239 0.0
O86 O 0.9598 0.05088 0.05196 0.0
O87 O 0.87856 0.04728 0.04414 0.0
C88 C 0.8076 0.07129 0.0724 0.0
O89 O 0.95592 0.07508 0.0858 0.0
O90 O 0.94662 0.08755 0.04893 0.0
In91 In 0.8702 0.67778 0.02606 0.0
O92 O 0.95996 0.67732 0.02894 0.0
O93 O 0.91798 0.68593 0.0645 0.0
C94 C 0.88936 0.67071 0.97002 0.0
C95 C 0.82641 0.65834 0.05776 0.0
C96 C 0.81211 0.69955 0.01888 0.0
O97 O 0.90592 0.68121 0.98089 0.0
O98 O 0.86366 0.66364 0.9876 0.0
O99 O 0.80421 0.68937 0.00416 0.0
O100 O 0.84779 0.69858 0.03815 0.0
C101 C 0.96221 0.68278 0.05379 0.0
O102 O 0.79972 0.66805 0.04977 0.0
O103 O 0.87399 0.65859 0.04982 0.0
In104 In 0.09377 0.81378 0.79205 0.0
O105 O 0.03075 0.82428 0.82009 0.0
O106 O 0.09416 0.83517 0.80198 0.0
C107 C 0.03905 0.79137 0.78775 0.0
C108 C 0.1827 0.81181 0.82435 0.0
C109 C 0.10981 0.81698 0.73389 0.0
O110 O 0.01913 0.80222 0.78138 0.0
O111 O 0.08527 0.79194 0.79802 0.0
O112 O 0.13798 0.80959 0.74944 0.0
O113 O 0.07411 0.82291 0.74777 0.0
C114 C 0.05265 0.83522 0.81725 0.0
O115 O 0.18172 0.81658 0.79875 0.0
O116 O 0.13852 0.80786 0.83381 0.0
In117 In 0.11201 0.43567 0.78121 0.0
O118 O 0.17536 0.42701 0.81191 0.0
O119 O 0.11264 0.41498 0.7973 0.0
C120 C 0.17675 0.45601 0.77139 0.0
C121 C 0.02213 0.44023 0.81176 0.0
C122 C 0.09327 0.42945 0.72457 0.0
O123 O 0.18907 0.44453 0.76476 0.0
O124 O 0.13265 0.45718 0.78414 0.0
O125 O 0.11599 0.42184 0.74221 0.0
O126 O 0.07917 0.44012 0.73562 0.0
C127 C 0.15423 0.41593 0.81233 0.0
O128 O 0.02275 0.43484 0.78683 0.0
O129 O 0.06693 0.44367 0.82115 0.0
In130 In 0.14079 0.43258 0.45262 0.0
O131 O 0.22724 0.42716 0.44887 0.0
O132 O 0.19485 0.43897 0.4149 0.0
C133 C 0.12607 0.42321 0.50734 0.0
C134 C 0.08691 0.41518 0.42001 0.0
C135 C 0.12197 0.45786 0.46359 0.0
O136 O 0.1713 0.42489 0.49631 0.0
O137 O 0.08816 0.42585 0.49036 0.0
O138 O 0.09818 0.45185 0.44321 0.0
O139 O 0.15545 0.4512 0.47739 0.0
C140 C 0.23494 0.43316 0.42502 0.0
O141 O 0.06614 0.42578 0.42782 0.0
O142 O 0.13398 0.41364 0.42828 0.0
In143 In 0.16299 0.81468 0.45566 0.0
O144 O 0.22133 0.82351 0.42218 0.0
O145 O 0.18317 0.83592 0.4528 0.0
C146 C 0.21123 0.79142 0.46015 0.0
C147 C 0.07094 0.81557 0.4257 0.0
C148 C 0.14544 0.81742 0.51361 0.0
O149 O 0.2315 0.80173 0.46982 0.0
O150 O 0.16843 0.79296 0.44643 0.0
O151 O 0.11681 0.81035 0.49746 0.0
O152 O 0.1824 0.82321 0.50039 0.0
C153 C 0.21488 0.83493 0.43156 0.0
O154 O 0.07589 0.81974 0.45168 0.0
O155 O 0.11268 0.81097 0.41461 0.0
In156 In 0.86018 0.18396 0.21026 0.0
O157 O 0.9324 0.17495 0.18715 0.0
O158 O 0.86381 0.16338 0.19423 0.0
C159 C 0.88899 0.20875 0.21941 0.0
C160 C 0.7748 0.1876 0.17594 0.0
C161 C 0.86213 0.17508 0.26586 0.0
O162 O 0.91618 0.20126 0.20328 0.0
O163 O 0.84741 0.20379 0.22965 0.0
O164 O 0.82224 0.17366 0.24946 0.0
O165 O 0.90094 0.18065 0.25392 0.0
C166 C 0.91015 0.16404 0.18412 0.0
O167 O 0.77186 0.18689 0.20365 0.0
O168 O 0.82079 0.18657 0.16544 0.0
In169 In 0.85424 0.56916 0.21716 0.0
O170 O 0.93368 0.57764 0.20289 0.0
O171 O 0.90325 0.56172 0.17858 0.0
C172 C 0.85945 0.57693 0.2735 0.0
C173 C 0.78898 0.58562 0.18845 0.0
C174 C 0.83629 0.54415 0.23082 0.0
O175 O 0.8994 0.57676 0.25677 0.0
O176 O 0.81665 0.57349 0.26149 0.0
O177 O 0.80103 0.55115 0.21913 0.0
O178 O 0.88003 0.5497 0.23475 0.0
C179 C 0.94019 0.56978 0.18188 0.0
O180 O 0.7945 0.57397 0.1805 0.0
O181 O 0.81487 0.58867 0.21109 0.0
In182 In 0.93911 0.56597 0.54675 0.0
O183 O 0.96989 0.57501 0.58948 0.0
O184 O 0.99861 0.58265 0.54934 0.0
C185 C 0.99591 0.54408 0.53879 0.0
C186 C 0.84461 0.56443 0.57448 0.0
C187 C 0.90864 0.57104 0.49099 0.0
O188 O 0.01227 0.55504 0.53055 0.0
O189 O 0.95249 0.5443 0.55238 0.0
O190 O 0.91971 0.57993 0.50908 0.0
O191 O 0.91188 0.55973 0.50127 0.0
C192 C 0.99835 0.5834 0.57703 0.0
O193 O 0.85501 0.57306 0.55567 0.0
O194 O 0.88209 0.55669 0.57963 0.0
In195 In 0.85657 0.18025 0.54086 0.0
O196 O 0.80501 0.17248 0.57905 0.0
O197 O 0.83303 0.15932 0.54682 0.0
C198 C 0.82479 0.20482 0.53096 0.0
C199 C 0.95154 0.18219 0.56791 0.0
C200 C 0.84683 0.17288 0.48452 0.0
O201 O 0.79676 0.19688 0.54536 0.0
O202 O 0.86909 0.20049 0.52293 0.0
O203 O 0.8886 0.17094 0.49913 0.0
O204 O 0.80978 0.17829 0.49854 0.0
C205 C 0.80717 0.16089 0.5702 0.0
O206 O 0.94568 0.17714 0.54282 0.0
O207 O 0.90941 0.18629 0.57949 0.0
In208 In 0.63464 0.31985 0.78042 0.0
O209 O 0.72212 0.32408 0.78685 0.0
O210 O 0.68335 0.31299 0.81984 0.0
C211 C 0.6245 0.32672 0.72365 0.0
C212 C 0.58961 0.33985 0.80932 0.0
C213 C 0.60322 0.29517 0.77169 0.0
O214 O 0.6688 0.32459 0.7355 0.0
O215 O 0.58529 0.32568 0.74071 0.0
O216 O 0.57633 0.30302 0.78705 0.0
O217 O 0.64604 0.29969 0.76195 0.0
C218 C 0.72566 0.31822 0.81115 0.0
O219 O 0.57404 0.32831 0.81313 0.0
O220 O 0.62656 0.34108 0.79093 0.0
In221 In 0.61379 0.93086 0.78567 0.0
O222 O 0.52383 0.93198 0.78638 0.0
O223 O 0.56472 0.93581 0.82637 0.0
C224 C 0.60528 0.9248 0.72815 0.0
C225 C 0.64898 0.90989 0.81528 0.0
C226 C 0.6736 0.95256 0.78127 0.0
O227 O 0.58023 0.93411 0.73963 0.0
O228 O 0.63356 0.91844 0.74582 0.0
O229 O 0.68887 0.94166 0.77213 0.0
O230 O 0.62948 0.9524 0.79413 0.0
C231 C 0.52076 0.93476 0.81343 0.0
O232 O 0.67272 0.92065 0.81676 0.0
O233 O 0.60846 0.9099 0.79918 0.0
In234 In 0.64148 0.93645 0.45677 0.0
O235 O 0.72755 0.93106 0.44983 0.0
O236 O 0.69868 0.94771 0.42732 0.0
C237 C 0.6465 0.92548 0.51053 0.0
C238 C 0.59297 0.91879 0.42186 0.0
C239 C 0.59621 0.9597 0.46774 0.0
O240 O 0.68288 0.93253 0.50032 0.0
O241 O 0.60854 0.92353 0.49309 0.0
O242 O 0.62337 0.95356 0.48621 0.0
O243 O 0.59188 0.95422 0.44295 0.0
C244 C 0.7373 0.94025 0.4323 0.0
O245 O 0.56835 0.92493 0.44161 0.0
O246 O 0.64074 0.92196 0.41919 0.0
In247 In 0.62966 0.31281 0.44972 0.0
O248 O 0.54707 0.32123 0.44456 0.0
O249 O 0.56731 0.3051 0.41763 0.0
C250 C 0.60501 0.31927 0.50552 0.0
C251 C 0.69181 0.32895 0.41759 0.0
C252 C 0.68169 0.29015 0.45781 0.0
O253 O 0.59903 0.30798 0.49539 0.0
O254 O 0.62203 0.32746 0.48717 0.0
O255 O 0.69872 0.30089 0.46688 0.0
O256 O 0.63946 0.29084 0.44314 0.0
C257 C 0.5326 0.3133 0.42497 0.0
O258 O 0.65394 0.32268 0.4066 0.0
O259 O 0.69944 0.32679 0.44453 0.0
In260 In 0.37857 0.68472 0.21198 0.0
O261 O 0.29575 0.67836 0.19905 0.0
O262 O 0.33337 0.69226 0.17174 0.0
C263 C 0.36761 0.67778 0.26855 0.0
C264 C 0.43235 0.66544 0.18541 0.0
C265 C 0.41604 0.70861 0.22412 0.0
O266 O 0.3308 0.68303 0.25409 0.0
O267 O 0.40992 0.67593 0.25444 0.0
O268 O 0.44519 0.6999 0.21312 0.0
O269 O 0.36861 0.70534 0.22776 0.0
C270 C 0.29288 0.68546 0.17652 0.0
O271 O 0.439 0.67716 0.17808 0.0
O272 O 0.39989 0.66372 0.20609 0.0
In273 In 0.35341 0.06857 0.19393 0.0
O274 O 0.44349 0.06841 0.19577 0.0
O275 O 0.40795 0.07393 0.15537 0.0
C276 C 0.34219 0.07583 0.25049 0.0
C277 C 0.28631 0.0841 0.16437 0.0
C278 C 0.33732 0.04274 0.19687 0.0
O279 O 0.37511 0.0812 0.2335 0.0
O280 O 0.31438 0.06713 0.23867 0.0
O281 O 0.30173 0.05042 0.18823 0.0
O282 O 0.38103 0.04803 0.20221 0.0
C283 C 0.45006 0.07192 0.16945 0.0
O284 O 0.30131 0.07331 0.15408 0.0
O285 O 0.30445 0.0868 0.18953 0.0
In286 In 0.38153 0.06845 0.52571 0.0
O287 O 0.29659 0.06181 0.53237 0.0
O288 O 0.34133 0.06666 0.57056 0.0
C289 C 0.37406 0.07586 0.46885 0.0
C290 C 0.42164 0.08979 0.55151 0.0
C291 C 0.42854 0.04506 0.52162 0.0
O292 O 0.33591 0.07687 0.48656 0.0
O293 O 0.41565 0.07129 0.47992 0.0
O294 O 0.4541 0.05521 0.52797 0.0
O295 O 0.37955 0.04671 0.51854 0.0
C296 C 0.29773 0.06292 0.56006 0.0
O297 O 0.44657 0.07917 0.55131 0.0
O298 O 0.37745 0.08954 0.5387 0.0
In299 In 0.33636 0.67763 0.54399 0.0
O300 O 0.41622 0.66872 0.55525 0.0
O301 O 0.38781 0.68377 0.58298 0.0
C302 C 0.34863 0.67105 0.48734 0.0
C303 C 0.27198 0.65991 0.56942 0.0
C304 C 0.31038 0.70253 0.5326 0.0
O305 O 0.3873 0.67345 0.50406 0.0
O306 O 0.30371 0.67163 0.49941 0.0
O307 O 0.27787 0.69484 0.54447 0.0
O308 O 0.35526 0.69777 0.52792 0.0
C309 C 0.42469 0.67594 0.57718 0.0
O310 O 0.28407 0.67038 0.58217 0.0
O311 O 0.29132 0.65866 0.54401 0.0
In312 In 0.61884 0.81574 0.30055 0.0
O313 O 0.59038 0.82472 0.34385 0.0
O314 O 0.563 0.83309 0.30412 0.0
C315 C 0.55837 0.79432 0.29452 0.0
C316 C 0.71565 0.81563 0.32543 0.0
C317 C 0.64697 0.81912 0.24391 0.0
O318 O 0.54812 0.80487 0.28179 0.0
O319 O 0.59726 0.79478 0.31184 0.0
O320 O 0.65481 0.80867 0.25765 0.0
O321 O 0.6264 0.82806 0.25907 0.0
C322 C 0.56371 0.83358 0.33185 0.0
O323 O 0.69987 0.82466 0.3089 0.0
O324 O 0.68249 0.80667 0.3295 0.0
In325 In 0.69064 0.43241 0.30343 0.0
O326 O 0.60868 0.42368 0.31079 0.0
O327 O 0.62805 0.44099 0.33373 0.0
C328 C 0.66121 0.42998 0.24669 0.0
C329 C 0.74486 0.4138 0.33295 0.0
C330 C 0.74907 0.45428 0.29984 0.0
O331 O 0.65082 0.43987 0.26195 0.0
O332 O 0.68546 0.42111 0.26029 0.0
O333 O 0.75944 0.44425 0.28509 0.0
O334 O 0.71159 0.45297 0.31784 0.0
C335 C 0.59389 0.4324 0.32851 0.0
O336 O 0.71831 0.42247 0.34569 0.0
O337 O 0.74617 0.41486 0.30532 0.0
In338 In 0.60384 0.43693 0.96851 0.0
O339 O 0.55066 0.4267 0.93442 0.0
O340 O 0.59949 0.41523 0.962 0.0
C341 C 0.54859 0.45927 0.97229 0.0
C342 C 0.69311 0.43967 0.93663 0.0
C343 C 0.61613 0.43336 0.02692 0.0
O344 O 0.5271 0.44832 0.97539 0.0
O345 O 0.59715 0.45889 0.96624 0.0
O346 O 0.65048 0.43892 0.01123 0.0
O347 O 0.57584 0.42954 0.01309 0.0
C348 C 0.56635 0.41549 0.94134 0.0
O349 O 0.69166 0.43361 0.96077 0.0
O350 O 0.64949 0.44445 0.92857 0.0
In351 In 0.61846 0.81116 0.96653 0.0
O352 O 0.53093 0.8161 0.96233 0.0
O353 O 0.56543 0.80467 0.92849 0.0
C354 C 0.62935 0.81639 0.02418 0.0
C355 C 0.66205 0.83182 0.93928 0.0
C356 C 0.65508 0.78669 0.9703 0.0
O357 O 0.5851 0.81401 0.01251 0.0
O358 O 0.66808 0.81625 0.00666 0.0
O359 O 0.6812 0.79557 0.9578 0.0
O360 O 0.61052 0.79013 0.97991 0.0
C361 C 0.52448 0.81014 0.93832 0.0
O362 O 0.67194 0.82035 0.93113 0.0
O363 O 0.63107 0.83267 0.96092 0.0
In364 In 0.4031 0.18713 0.69433 0.0
O365 O 0.4398 0.17958 0.65125 0.0
O366 O 0.45714 0.16961 0.69081 0.0
C367 C 0.45756 0.20934 0.70351 0.0
C368 C 0.30759 0.18669 0.66738 0.0
C369 C 0.37757 0.18105 0.75017 0.0
O370 O 0.47525 0.19838 0.71077 0.0
O371 O 0.41367 0.20904 0.69042 0.0
O372 O 0.39513 0.17282 0.73211 0.0
O373 O 0.37172 0.19232 0.73986 0.0
C374 C 0.46229 0.17004 0.66326 0.0
O375 O 0.32017 0.17897 0.68769 0.0
O376 O 0.34321 0.19469 0.66052 0.0
In377 In 0.39083 0.56185 0.69742 0.0
O378 O 0.31463 0.5704 0.6771 0.0
O379 O 0.38683 0.58035 0.67077 0.0
C380 C 0.36293 0.53679 0.70389 0.0
C381 C 0.48729 0.55946 0.67265 0.0
C382 C 0.37976 0.57121 0.75257 0.0
O383 O 0.34352 0.54387 0.68386 0.0
O384 O 0.39774 0.54223 0.71945 0.0
O385 O 0.41958 0.57373 0.7369 0.0
O386 O 0.34542 0.56427 0.74021 0.0
C387 C 0.3378 0.58012 0.66637 0.0
O388 O 0.48013 0.56383 0.69832 0.0
O389 O 0.44561 0.55596 0.65949 0.0
In390 In 0.36266 0.57115 0.02789 0.0
O391 O 0.2733 0.57305 0.0323 0.0
O392 O 0.31595 0.56608 0.06936 0.0
C393 C 0.37442 0.57789 0.97115 0.0
C394 C 0.40981 0.59148 0.0545 0.0
C395 C 0.39142 0.54614 0.02218 0.0
O396 O 0.3308 0.57891 0.98446 0.0
O397 O 0.41217 0.57372 0.98663 0.0
O398 O 0.41549 0.55383 0.03927 0.0
O399 O 0.35242 0.551 0.00889 0.0
C400 C 0.27172 0.56918 0.05866 0.0
O401 O 0.42906 0.5802 0.05602 0.0
O402 O 0.36802 0.59231 0.03959 0.0
In403 In 0.35512 0.18209 0.02313 0.0
O404 O 0.44244 0.18729 0.02819 0.0
O405 O 0.39744 0.1843 0.06716 0.0
C406 C 0.35904 0.17278 0.96798 0.0
C407 C 0.31193 0.16114 0.04861 0.0
C408 C 0.31374 0.20596 0.01547 0.0
O409 O 0.40017 0.17506 0.98289 0.0
O410 O 0.31607 0.17478 0.98136 0.0
O411 O 0.30187 0.19913 0.03763 0.0
O412 O 0.34592 0.20077 -0.00199 0.0
C413 C 0.44178 0.18687 0.05595 0.0
O414 O 0.28488 0.17124 0.04381 0.0
O415 O 0.35944 0.16174 0.04033 0.0
C416 C 0.00353 0.404 0.40363 0.0
C417 C 0.05884 0.40494 0.40358 0.0
C418 C 0.97803 0.39325 0.39078 0.0
C419 C 0.00885 0.38333 0.37768 0.0
C420 C 0.06458 0.38465 0.37639 0.0
C421 C 0.08869 0.39538 0.38944 0.0
C422 C 0.91863 0.39233 0.39263 0.0
C423 C 0.0993 0.3745 0.36206 0.0
C424 C 0.99116 0.3477 0.37098 0.0
C425 C 0.9922 0.34655 0.34022 0.0
C426 C 0.98703 0.35992 0.38433 0.0
C427 C 0.98509 0.37113 0.36636 0.0
C428 C 0.97652 0.36977 0.33573 0.0
C429 C 0.98022 0.35743 0.32291 0.0
C430 C 0.99233 0.36096 0.41733 0.0
C431 C 0.97109 0.38146 0.31605 0.0
H432 H 0.98032 0.41139 0.41466 0.0
H433 H 0.13141 0.39616 0.38905 0.0
H434 H 0.9017 0.38651 0.37439 0.0
H435 H 0.90767 0.38763 0.41374 0.0
H436 H 0.90031 0.40212 0.39237 0.0
H437 H 0.14164 0.37733 0.36185 0.0
H438 H 0.09565 0.36519 0.3741 0.0
H439 H 0.08659 0.37281 0.33899 0.0
H440 H 0.99854 0.33925 0.38456 0.0
H441 H 0.97907 0.35655 0.29911 0.0
H442 H 0.9667 0.3688 0.42603 0.0
H443 H 0.03386 0.36337 0.42298 0.0
H444 H 0.9818 0.35171 0.4284 0.0
H445 H 0.94591 0.38895 0.32659 0.0
H446 H 0.95389 0.37886 0.29431 0.0
H447 H 0.0107 0.38577 0.31228 0.0
C448 C 0.18318 0.89211 0.33269 0.0
C449 C 0.21863 0.9025 0.3308 0.0
C450 C 0.19545 0.88102 0.34894 0.0
C451 C 0.24496 0.88015 0.36332 0.0
C452 C 0.28217 0.89032 0.36032 0.0
C453 C 0.26826 0.90151 0.34435 0.0
C454 C 0.15425 0.87048 0.35172 0.0
C455 C 0.33589 0.88954 0.37457 0.0
C456 C 0.22693 0.85876 0.42927 0.0
C457 C 0.23669 0.84654 0.41694 0.0
C458 C 0.23525 0.87008 0.41297 0.0
C459 C 0.25421 0.86913 0.38372 0.0
C460 C 0.27037 0.85694 0.37253 0.0
C461 C 0.26103 0.84571 0.38926 0.0
C462 C 0.21776 0.88288 0.42591 0.0
C463 C 0.29263 0.85561 0.34183 0.0
H464 H 0.14483 0.89281 0.32218 0.0
H465 H 0.296 0.90947 0.34261 0.0
H466 H 0.17081 0.86105 0.34446 0.0
H467 H 0.14229 0.86942 0.37514 0.0
H468 H 0.11833 0.87253 0.33845 0.0
H469 H 0.36327 0.89706 0.36599 0.0
H470 H 0.33191 0.8909 0.39871 0.0
H471 H 0.35371 0.87985 0.37088 0.0
H472 H 0.20917 0.85948 0.45096 0.0
H473 H 0.26953 0.83628 0.37984 0.0
H474 H 0.17986 0.88583 0.41561 0.0
H475 H 0.24711 0.89058 0.42127 0.0
H476 H 0.21177 0.88227 0.45013 0.0
H477 H 0.25982 0.85581 0.32563 0.0
H478 H 0.31438 0.84633 0.33907 0.0
H479 H 0.31957 0.86377 0.3366 0.0
C480 C 0.98801 0.90509 0.88221 0.0
C481 C 0.0014 0.90432 0.91212 0.0
C482 C 0.98043 0.89376 0.8655 0.0
C483 C 0.98804 0.88151 0.87895 0.0
C484 C 0.99522 0.88076 0.90981 0.0
C485 C 0.00122 0.89219 0.92607 0.0
C486 C 0.96943 0.8949 0.83295 0.0
C487 C 0.00319 0.86792 0.92516 0.0
C488 C 0.98095 0.84877 0.84019 0.0
C489 C 0.03382 0.84716 0.8317 0.0
C490 C 0.96416 0.86027 0.85408 0.0
C491 C 0.00174 0.87005 0.86059 0.0
C492 C 0.05501 0.86844 0.8517 0.0
C493 C 0.07008 0.85713 0.83701 0.0
C494 C 0.90666 0.86176 0.86223 0.0
C495 C 0.09683 0.87846 0.85863 0.0
H496 H 0.98691 0.91446 0.87142 0.0
H497 H 0.01036 0.89153 0.94937 0.0
H498 H 0.00682 0.89369 0.82049 0.0
H499 H 0.94176 0.8872 0.82563 0.0
H500 H 0.95245 0.90452 0.82732 0.0
H501 H 0.00191 0.86889 0.94953 0.0
H502 H 0.97258 0.86087 0.91826 0.0
H503 H 0.04222 0.86387 0.91887 0.0
H504 H 0.95271 0.84112 0.83577 0.0
H505 H 0.111 0.8559 0.83049 0.0
H506 H 0.89375 0.87202 0.86093 0.0
H507 H 0.90057 0.85838 0.88518 0.0
H508 H 0.881 0.85581 0.84767 0.0
H509 H 0.08617 0.88789 0.84855 0.0
H510 H 0.13652 0.87562 0.85041 0.0
H511 H 0.0994 0.87995 0.88281 0.0
C512 C 0.1428 0.39393 0.83322 0.0
C513 C 0.17445 0.40495 0.82987 0.0
C514 C 0.15852 0.38367 0.85131 0.0
C515 C 0.2077 0.38433 0.86611 0.0
C516 C 0.24128 0.39514 0.86161 0.0
C517 C 0.2239 0.40544 0.84377 0.0
C518 C 0.1212 0.37238 0.85556 0.0
C519 C 0.2946 0.39604 0.87635 0.0
C520 C 0.19634 0.36477 0.93549 0.0
C521 C 0.21106 0.35247 0.92528 0.0
C522 C 0.20044 0.37567 0.9173 0.0
C523 C 0.22026 0.37422 0.88832 0.0
C524 C 0.24132 0.36214 0.87927 0.0
C525 C 0.23607 0.35132 0.89784 0.0
C526 C 0.17794 0.38839 0.92797 0.0
C527 C 0.26474 0.36036 0.84897 0.0
H528 H 0.10465 0.39347 0.82242 0.0
H529 H 0.24873 0.41391 0.84096 0.0
H530 H 0.14134 0.36315 0.84999 0.0
H531 H 0.10892 0.37181 0.879 0.0
H532 H 0.08514 0.37321 0.84174 0.0
H533 H 0.32061 0.40318 0.86517 0.0
H534 H 0.28936 0.39917 0.89955 0.0
H535 H 0.31471 0.38648 0.8766 0.0
H536 H 0.17791 0.36576 0.95695 0.0
H537 H 0.24839 0.34186 0.89005 0.0
H538 H 0.13968 0.39023 0.91677 0.0
H539 H 0.20478 0.39652 0.92245 0.0
H540 H 0.171 0.38839 0.95215 0.0
H541 H 0.23241 0.35936 0.83262 0.0
H542 H 0.2898 0.35153 0.84779 0.0
H543 H 0.28879 0.3689 0.84259 0.0
C544 C 0.00401 0.59707 0.62205 0.0
C545 C 0.01971 0.59477 0.59292 0.0
C546 C 0.0084 0.60946 0.63445 0.0
C547 C 0.02974 0.6197 0.61737 0.0
C548 C 0.05344 0.61689 0.58985 0.0
C549 C 0.04757 0.60444 0.5777 0.0
C550 C 0.98362 0.61193 0.6642 0.0
C551 C 0.07987 0.62734 0.57189 0.0
C552 C 0.9436 0.64924 0.62585 0.0
C553 C 0.96933 0.65596 0.64848 0.0
C554 C 0.96508 0.63789 0.61402 0.0
C555 C 0.01417 0.63323 0.6247 0.0
C556 C 0.04303 0.64071 0.64534 0.0
C557 C 0.0199 0.65195 0.65732 0.0
C558 C 0.93294 0.63034 0.59177 0.0
C559 C 0.09668 0.63647 0.65612 0.0
H560 H 0.98352 0.58955 0.6342 0.0
H561 H 0.06123 0.6026 0.55544 0.0
H562 H 0.00953 0.61813 0.67794 0.0
H563 H 0.9456 0.61712 0.66118 0.0
H564 H 0.97566 0.60278 0.67631 0.0
H565 H 0.10584 0.62317 0.55457 0.0
H566 H 0.04932 0.63336 0.56097 0.0
H567 H 0.10371 0.6338 0.5862 0.0
H568 H 0.90487 0.6524 0.61861 0.0
H569 H 0.04036 0.65722 0.67455 0.0
H570 H 0.92061 0.62094 0.60146 0.0
H571 H 0.95701 0.6282 0.57194 0.0
H572 H 0.8969 0.63564 0.58471 0.0
H573 H 0.11934 0.64473 0.66545 0.0
H574 H 0.12003 0.63204 0.63806 0.0
H575 H 0.0919 0.62909 0.67367 0.0
C576 C 0.85527 0.10496 0.67158 0.0
C577 C 0.81974 0.09476 0.67623 0.0
C578 C 0.84068 0.11593 0.6555 0.0
C579 C 0.78866 0.11693 0.64424 0.0
C580 C 0.75149 0.107 0.65024 0.0
C581 C 0.76775 0.09589 0.66584 0.0
C582 C 0.88198 0.12617 0.64933 0.0
C583 C 0.69524 0.10786 0.63941 0.0
C584 C 0.77034 0.1511 0.61649 0.0
C585 C 0.7879 0.14967 0.58737 0.0
C586 C 0.76395 0.1402 0.63476 0.0
C587 C 0.77636 0.12772 0.62366 0.0
C588 C 0.78843 0.12619 0.59341 0.0
C589 C 0.79373 0.13718 0.57561 0.0
C590 C 0.74858 0.14214 0.66657 0.0
C591 C 0.80163 0.11308 0.58052 0.0
H592 H 0.89549 0.10417 0.6796 0.0
H593 H 0.73998 0.08807 0.66965 0.0
H594 H 0.88895 0.12688 0.62523 0.0
H595 H 0.868 0.13578 0.657 0.0
H596 H 0.92027 0.12404 0.66027 0.0
H597 H 0.66853 0.10151 0.6524 0.0
H598 H 0.6803 0.11796 0.64052 0.0
H599 H 0.69344 0.10471 0.61606 0.0
H600 H 0.76485 0.16072 0.62556 0.0
H601 H 0.8062 0.136 0.5529 0.0
H602 H 0.7845 0.14181 0.68056 0.0
H603 H 0.72172 0.13431 0.67407 0.0
H604 H 0.72893 0.15165 0.67005 0.0
H605 H 0.84053 0.10984 0.58907 0.0
H606 H 0.80365 0.11332 0.55606 0.0
H607 H 0.77187 0.10578 0.5872 0.0
C608 C 0.90172 0.14314 0.15791 0.0
C609 C 0.93459 0.15287 0.16903 0.0
C610 C 0.92255 0.13237 0.14331 0.0
C611 C 0.97806 0.13108 0.14032 0.0
C612 C 0.01181 0.14076 0.15207 0.0
C613 C 0.98951 0.1517 0.16589 0.0
C614 C 0.88471 0.12244 0.13079 0.0
C615 C 0.07115 0.13977 0.14989 0.0
C616 C 0.99606 0.09613 0.12129 0.0
C617 C 0.98992 0.09684 0.09064 0.0
C618 C 0.00102 0.10749 0.13814 0.0
C619 C 0.99879 0.11968 0.1239 0.0
C620 C 0.0015 0.12027 0.0928 0.0
C621 C 0.99696 0.10879 0.07646 0.0
C622 C 0.00196 0.1065 0.17128 0.0
C623 C 0.00188 0.13306 0.07675 0.0
H624 H 0.85923 0.14405 0.16016 0.0
H625 H 0.01506 0.15921 0.17463 0.0
H626 H 0.89156 0.12126 0.10678 0.0
H627 H 0.89149 0.11289 0.14135 0.0
H628 H 0.84269 0.12516 0.13421 0.0
H629 H 0.08488 0.12959 0.14815 0.0
H630 H 0.08463 0.1451 0.13003 0.0
H631 H 0.09036 0.14434 0.16929 0.0
H632 H 0.99217 0.08687 0.13237 0.0
H633 H 0.99399 0.10935 0.05266 0.0
H634 H 0.96143 0.108 0.17999 0.0
H635 H 0.02781 0.1141 0.18089 0.0
H636 H 0.01602 0.09683 0.17865 0.0
H637 H 0.96175 0.13739 0.07761 0.0
H638 H 0.0134 0.13191 0.05327 0.0
H639 H 0.02955 0.13993 0.08746 0.0
C640 C 0.75314 0.59322 0.14014 0.0
C641 C 0.76358 0.59562 0.16998 0.0
C642 C 0.74616 0.60356 0.12038 0.0
C643 C 0.75033 0.61645 0.13086 0.0
C644 C 0.7526 0.61878 0.16156 0.0
C645 C 0.75925 0.6083 0.18081 0.0
C646 C 0.74124 0.60069 0.0879 0.0
C647 C 0.75562 0.63236 0.1738 0.0
C648 C 0.84034 0.63851 0.08743 0.0
C649 C 0.80508 0.64753 0.07547 0.0
C650 C 0.82252 0.62828 0.10495 0.0
C651 C 0.76769 0.62687 0.11041 0.0
C652 C 0.73146 0.63573 0.09771 0.0
C653 C 0.75073 0.64609 0.0806 0.0
C654 C 0.86283 0.61914 0.11813 0.0
C655 C 0.67271 0.63444 0.10253 0.0
H656 H 0.75535 0.5834 0.13172 0.0
H657 H 0.76588 0.61017 0.20404 0.0
H658 H 0.71473 0.60778 0.07698 0.0
H659 H 0.78074 0.60146 0.07743 0.0
H660 H 0.72592 0.59075 0.08399 0.0
H661 H 0.74722 0.63259 0.19783 0.0
H662 H 0.79596 0.63626 0.17016 0.0
H663 H 0.72736 0.63884 0.16238 0.0
H664 H 0.88238 0.63956 0.08354 0.0
H665 H 0.7233 0.65302 0.07121 0.0
H666 H 0.85458 0.60905 0.11104 0.0
H667 H 0.86038 0.61941 0.14254 0.0
H668 H 0.90391 0.6216 0.11157 0.0
H669 H 0.66037 0.62413 0.10255 0.0
H670 H 0.64993 0.63969 0.08535 0.0
H671 H 0.66214 0.63863 0.12426 0.0
C672 C 0.57967 0.39211 0.93053 0.0
C673 C 0.55233 0.40365 0.92471 0.0
C674 C 0.57436 0.38131 0.91211 0.0
C675 C 0.54007 0.38196 0.88752 0.0
C676 C 0.50863 0.39315 0.8831 0.0
C677 C 0.51563 0.40397 0.90158 0.0
C678 C 0.60891 0.36962 0.91762 0.0
C679 C 0.47013 0.39402 0.8578 0.0
C680 C 0.59503 0.36307 0.82325 0.0
C681 C 0.57011 0.35103 0.82657 0.0
C682 C 0.58309 0.37347 0.8419 0.0
C683 C 0.54453 0.37188 0.8642 0.0
C684 C 0.51625 0.36006 0.86626 0.0
C685 C 0.52981 0.34969 0.84756 0.0
C686 C 0.6145 0.38586 0.83896 0.0
C687 C 0.4737 0.35815 0.88913 0.0
H688 H 0.60772 0.39175 0.94856 0.0
H689 H 0.49381 0.4128 0.89725 0.0
H690 H 0.58505 0.36061 0.91718 0.0
H691 H 0.63893 0.36885 0.89986 0.0
H692 H 0.62978 0.37018 0.93912 0.0
H693 H 0.44079 0.40189 0.86123 0.0
H694 H 0.49202 0.39606 0.83713 0.0
H695 H 0.44879 0.38472 0.85479 0.0
H696 H 0.62589 0.36423 0.80689 0.0
H697 H 0.50998 0.34044 0.84999 0.0
H698 H 0.6394 0.38723 0.85886 0.0
H699 H 0.58762 0.39431 0.8374 0.0
H700 H 0.64065 0.38581 0.81929 0.0
H701 H 0.49221 0.35645 0.91094 0.0
H702 H 0.44819 0.3497 0.88386 0.0
H703 H 0.44857 0.36692 0.89104 0.0
C704 C 0.70832 0.84249 0.89676 0.0
C705 C 0.68025 0.84348 0.92331 0.0
C706 C 0.71694 0.85349 0.87911 0.0
C707 C 0.69616 0.86562 0.8881 0.0
C708 C 0.67229 0.86682 0.91616 0.0
C709 C 0.66483 0.85575 0.93346 0.0
C710 C 0.74463 0.85195 0.84987 0.0
C711 C 0.65006 0.87958 0.92679 0.0
C712 C 0.71238 0.89772 0.84785 0.0
C713 C 0.66502 0.8982 0.83184 0.0
C714 C 0.72527 0.88677 0.8649 0.0
C715 C 0.68925 0.87628 0.8664 0.0
C716 C 0.64246 0.87656 0.84932 0.0
C717 C 0.6312 0.88745 0.83214 0.0
C718 C 0.77626 0.8867 0.88212 0.0
C719 C 0.60273 0.86562 0.8503 0.0
H720 H 0.72118 0.83306 0.88905 0.0
H721 H 0.64402 0.85662 0.95425 0.0
H722 H 0.71483 0.85165 0.83196 0.0
H723 H 0.77114 0.86031 0.84555 0.0
H724 H 0.76816 0.84287 0.84897 0.0
H725 H 0.6384 0.87923 0.95039 0.0
H726 H 0.67934 0.88746 0.9238 0.0
H727 H 0.61465 0.8821 0.91354 0.0
H728 H 0.73896 0.90596 0.84741 0.0
H729 H 0.5947 0.88771 0.81966 0.0
H730 H 0.79356 0.87683 0.88317 0.0
H731 H 0.76836 0.88993 0.90502 0.0
H732 H 0.8058 0.8934 0.87232 0.0
H733 H 0.6222 0.85629 0.84497 0.0
H734 H 0.56954 0.86711 0.83465 0.0
H735 H 0.58617 0.86478 0.87288 0.0
C736 C 0.51351 0.85442 0.33409 0.0
C737 C 0.54413 0.84497 0.34829 0.0
C738 C 0.50622 0.8667 0.3468 0.0
C739 C 0.53142 0.86964 0.37382 0.0
C740 C 0.55735 0.85967 0.38966 0.0
C741 C 0.56303 0.8474 0.37678 0.0
C742 C 0.47559 0.87686 0.33009 0.0
C743 C 0.58391 0.86232 0.41884 0.0
C744 C 0.60053 0.90177 0.38346 0.0
C745 C 0.57075 0.90757 0.40589 0.0
C746 C 0.58611 0.88975 0.37168 0.0
C747 C 0.5405 0.88336 0.38248 0.0
C748 C 0.50796 0.88962 0.40353 0.0
C749 C 0.52361 0.90167 0.41511 0.0
C750 C 0.62185 0.88351 0.34905 0.0
C751 C 0.4586 0.8833 0.41538 0.0
H752 H 0.49786 0.85249 0.31228 0.0
H753 H 0.58615 0.84007 0.38804 0.0
H754 H 0.45209 0.88297 0.34538 0.0
H755 H 0.50357 0.88329 0.31825 0.0
H756 H 0.44859 0.87242 0.31363 0.0
H757 H 0.59685 0.85326 0.42993 0.0
H758 H 0.61912 0.86853 0.4152 0.0
H759 H 0.55681 0.86763 0.43378 0.0
H760 H 0.63671 0.90635 0.37604 0.0
H761 H 0.50034 0.90613 0.43243 0.0
H762 H 0.59878 0.88064 0.32933 0.0
H763 H 0.63966 0.87459 0.35841 0.0
H764 H 0.65427 0.89005 0.34192 0.0
H765 H 0.44006 0.87678 0.39893 0.0
H766 H 0.42925 0.89071 0.42233 0.0
H767 H 0.46891 0.87745 0.43505 0.0
C768 C 0.69378 0.34542 0.37779 0.0
C769 C 0.71898 0.33951 0.40169 0.0
C770 C 0.71239 0.35717 0.36632 0.0
C771 C 0.75835 0.36292 0.3785 0.0
C772 C 0.78706 0.35628 0.40059 0.0
C773 C 0.76644 0.34473 0.41237 0.0
C774 C 0.68012 0.36394 0.34291 0.0
C775 C 0.83789 0.36172 0.41281 0.0
C776 C 0.79236 0.3925 0.33345 0.0
C777 C 0.76271 0.40196 0.34833 0.0
C778 C 0.79707 0.37989 0.34489 0.0
C779 C 0.77026 0.37668 0.37127 0.0
C780 C 0.74523 0.38658 0.38785 0.0
C781 C 0.7424 0.39915 0.37631 0.0
C782 C 0.82695 0.36979 0.32758 0.0
C783 C 0.71602 0.38363 0.4161 0.0
H784 H 0.65719 0.34139 0.36943 0.0
H785 H 0.78646 0.34004 0.43058 0.0
H786 H 0.66324 0.37302 0.35207 0.0
H787 H 0.70545 0.36664 0.32395 0.0
H788 H 0.64713 0.35783 0.33468 0.0
H789 H 0.85851 0.35469 0.42734 0.0
H790 H 0.86482 0.36446 0.39457 0.0
H791 H 0.82962 0.37063 0.42568 0.0
H792 H 0.80916 0.39473 0.31206 0.0
H793 H 0.72 0.40646 0.38808 0.0
H794 H 0.79868 0.36303 0.31696 0.0
H795 H 0.85244 0.36397 0.34243 0.0
H796 H 0.85193 0.3742 0.31013 0.0
H797 H 0.68025 0.37782 0.41101 0.0
H798 H 0.70348 0.39257 0.42781 0.0
H799 H 0.74099 0.37781 0.43118 0.0
C800 C 0.40037 0.61404 0.07242 0.0
C801 C 0.43097 0.60275 0.07074 0.0
C802 C 0.41512 0.62435 0.0906 0.0
C803 C 0.4625 0.62352 0.1071 0.0
C804 C 0.49586 0.61259 0.10371 0.0
C805 C 0.47924 0.6022 0.08586 0.0
C806 C 0.37793 0.63575 0.09362 0.0
C807 C 0.54773 0.61149 0.11988 0.0
C808 C 0.4827 0.65615 0.14261 0.0
C809 C 0.45425 0.65434 0.16881 0.0
C810 C 0.49237 0.64565 0.12356 0.0
C811 C 0.47173 0.63328 0.13065 0.0
C812 C 0.44861 0.63119 0.15864 0.0
C813 C 0.44054 0.64174 0.17747 0.0
C814 C 0.52049 0.64803 0.09478 0.0
C815 C 0.42698 0.61811 0.16741 0.0
H816 H 0.36323 0.61459 0.06059 0.0
H817 H 0.50346 0.59356 0.08429 0.0
H818 H 0.36305 0.63633 0.1166 0.0
H819 H 0.39904 0.64492 0.08882 0.0
H820 H 0.34345 0.63503 0.07857 0.0
H821 H 0.57701 0.60601 0.10653 0.0
H822 H 0.56453 0.62112 0.12539 0.0
H823 H 0.54155 0.60606 0.14068 0.0
H824 H 0.49458 0.66582 0.13612 0.0
H825 H 0.41976 0.64022 0.19808 0.0
H826 H 0.49092 0.64978 0.07718 0.0
H827 H 0.54448 0.63949 0.08829 0.0
H828 H 0.54661 0.65666 0.09615 0.0
H829 H 0.39196 0.61579 0.15365 0.0
H830 H 0.41495 0.6178 0.19095 0.0
H831 H 0.45688 0.61044 0.16354 0.0
C832 C 0.32775 0.14115 0.07718 0.0
C833 C 0.29152 0.14961 0.06408 0.0
C834 C 0.31091 0.13015 0.09238 0.0
C835 C 0.25618 0.12733 0.09413 0.0
C836 C 0.21911 0.13575 0.08068 0.0
C837 C 0.23731 0.14691 0.06592 0.0
C838 C 0.35208 0.12162 0.10683 0.0
C839 C 0.16063 0.13289 0.08105 0.0
C840 C 0.25435 0.09251 0.11593 0.0
C841 C 0.25845 0.09394 0.14656 0.0
C842 C 0.24456 0.10331 0.09795 0.0
C843 C 0.23965 0.1157 0.11108 0.0
C844 C 0.23475 0.11673 0.14204 0.0
C845 C 0.24446 0.10579 0.15951 0.0
C846 C 0.2465 0.10175 0.06494 0.0
C847 C 0.22687 0.12967 0.15689 0.0
H848 H 0.36966 0.14326 0.07596 0.0
H849 H 0.20926 0.15338 0.05548 0.0
H850 H 0.34392 0.12075 0.13078 0.0
H851 H 0.35065 0.11174 0.09723 0.0
H852 H 0.39279 0.12545 0.10403 0.0
H853 H 0.13698 0.14189 0.07852 0.0
H854 H 0.15107 0.12641 0.06227 0.0
H855 H 0.14831 0.1279 0.10156 0.0
H856 H 0.26365 0.08326 0.1058 0.0
H857 H 0.24582 0.10685 0.18328 0.0
H858 H 0.2865 0.10438 0.05689 0.0
H859 H 0.21762 0.1083 0.05414 0.0
H860 H 0.23815 0.0916 0.05822 0.0
H861 H 0.26507 0.13495 0.15735 0.0
H862 H 0.21274 0.12853 0.17993 0.0
H863 H 0.1981 0.13569 0.14455 0.0
C864 C 0.4945 0.10375 0.5716 0.0
C865 C 0.44054 0.10151 0.56682 0.0
C866 C 0.51171 0.11508 0.58601 0.0
C867 C 0.4738 0.12408 0.5965 0.0
C868 C 0.41928 0.1217 0.59192 0.0
C869 C 0.40348 0.11056 0.57678 0.0
C870 C 0.57014 0.1175 0.58973 0.0
C871 C 0.37732 0.13084 0.60339 0.0
C872 C 0.48875 0.14688 0.66053 0.0
C873 C 0.48234 0.15884 0.6463 0.0
C874 C 0.49177 0.13534 0.64433 0.0
C875 C 0.48964 0.13585 0.61318 0.0
C876 C 0.49061 0.14802 0.59876 0.0
C877 C 0.48615 0.15942 0.61553 0.0
C878 C 0.49022 0.12261 0.66072 0.0
C879 C 0.49065 0.14899 0.56559 0.0
H880 H 0.52317 0.09677 0.56366 0.0
H881 H 0.36172 0.10879 0.57328 0.0
H882 H 0.58117 0.12668 0.5786 0.0
H883 H 0.58004 0.11864 0.61339 0.0
H884 H 0.5945 0.10952 0.58045 0.0
H885 H 0.33668 0.12728 0.59896 0.0
H886 H 0.38188 0.13216 0.62754 0.0
H887 H 0.3818 0.1405 0.59296 0.0
H888 H 0.48641 0.14638 0.68436 0.0
H889 H 0.48213 0.16867 0.60443 0.0
H890 H 0.51644 0.11534 0.65026 0.0
H891 H 0.44936 0.11871 0.6601 0.0
H892 H 0.50202 0.12376 0.68416 0.0
H893 H 0.51674 0.14151 0.55572 0.0
H894 H 0.50378 0.15871 0.55805 0.0
H895 H 0.45004 0.14732 0.55721 0.0
C896 C 0.23471 0.63762 0.56851 0.0
C897 C 0.24706 0.64882 0.58463 0.0
C898 C 0.23007 0.6256 0.58264 0.0
C899 C 0.23862 0.62486 0.61337 0.0
C900 C 0.24111 0.63643 0.63012 0.0
C901 C 0.24562 0.64837 0.61548 0.0
C902 C 0.22396 0.61353 0.56417 0.0
C903 C 0.24667 0.63607 0.66317 0.0
C904 C 0.2553 0.59221 0.65196 0.0
C905 C 0.31047 0.59086 0.65113 0.0
C906 C 0.23049 0.60311 0.63934 0.0
C907 C 0.26186 0.61281 0.62581 0.0
C908 C 0.31745 0.6112 0.62426 0.0
C909 C 0.34086 0.60029 0.63693 0.0
C910 C 0.17122 0.60436 0.64155 0.0
C911 C 0.35273 0.62114 0.60962 0.0
H912 H 0.23381 0.63801 0.54464 0.0
H913 H 0.25356 0.65707 0.62812 0.0
H914 H 0.26331 0.60901 0.5609 0.0
H915 H 0.19827 0.60637 0.57542 0.0
H916 H 0.20698 0.61576 0.54217 0.0
H917 H 0.23622 0.64553 0.6733 0.0
H918 H 0.22113 0.62841 0.67275 0.0
H919 H 0.28824 0.63378 0.66896 0.0
H920 H 0.23164 0.58495 0.66307 0.0
H921 H 0.38346 0.59925 0.63604 0.0
H922 H 0.152 0.59471 0.64309 0.0
H923 H 0.15434 0.60965 0.62248 0.0
H924 H 0.16124 0.60985 0.66182 0.0
H925 H 0.34041 0.62261 0.5864 0.0
H926 H 0.39498 0.61823 0.60975 0.0
H927 H 0.34919 0.63059 0.62115 0.0
C928 C 0.4651 0.30504 0.38922 0.0
C929 C 0.47916 0.31369 0.41172 0.0
C930 C 0.41461 0.30545 0.37637 0.0
C931 C 0.37729 0.3147 0.38634 0.0
C932 C 0.39118 0.32339 0.40921 0.0
C933 C 0.44195 0.32279 0.42159 0.0
C934 C 0.40133 0.29604 0.35197 0.0
C935 C 0.35251 0.33337 0.42049 0.0
C936 C 0.26559 0.32421 0.33474 0.0
C937 C 0.22347 0.31678 0.34562 0.0
C938 C 0.31578 0.32363 0.34782 0.0
C939 C 0.32406 0.31546 0.37245 0.0
C940 C 0.28154 0.30805 0.38374 0.0
C941 C 0.23174 0.30878 0.37015 0.0
C942 C 0.36007 0.33169 0.33511 0.0
C943 C 0.28876 0.29928 0.41006 0.0
H944 H 0.49368 0.29799 0.38151 0.0
H945 H 0.45251 0.32949 0.43903 0.0
H946 H 0.36615 0.29023 0.35812 0.0
H947 H 0.39123 0.30145 0.3316 0.0
H948 H 0.43448 0.28933 0.34702 0.0
H949 H 0.3691 0.33925 0.43881 0.0
H950 H 0.34097 0.34 0.40235 0.0
H951 H 0.316 0.32854 0.42836 0.0
H952 H 0.25949 0.3304 0.31575 0.0
H953 H 0.19935 0.30302 0.37865 0.0
H954 H 0.39288 0.32529 0.32794 0.0
H955 H 0.37608 0.33829 0.35223 0.0
H956 H 0.34707 0.33759 0.31597 0.0
H957 H 0.31922 0.29185 0.40516 0.0
H958 H 0.25158 0.29428 0.41638 0.0
H959 H 0.30303 0.30498 0.42922 0.0
C960 C 0.02754 0.94746 0.36165 0.0
C961 C 0.02701 0.94162 0.33374 0.0
C962 C 0.98113 0.94841 0.37851 0.0
C963 C 0.93333 0.94327 0.36728 0.0
C964 C 0.93243 0.93761 0.33886 0.0
C965 C 0.97922 0.93691 0.32238 0.0
C966 C 0.98348 0.95464 0.40859 0.0
C967 C 0.88235 0.93192 0.32619 0.0
C968 C 0.82695 0.9318 0.42007 0.0
C969 C 0.78894 0.94161 0.41738 0.0
C970 C 0.87462 0.93238 0.40438 0.0
C971 C 0.88479 0.94311 0.38578 0.0
C972 C 0.84733 0.95326 0.38373 0.0
C973 C 0.79963 0.95236 0.39944 0.0
C974 C 0.91334 0.9213 0.40699 0.0
C975 C 0.85709 0.96492 0.36439 0.0
H976 H 0.06436 0.95116 0.37047 0.0
H977 H 0.97857 0.93238 0.30082 0.0
H978 H 0.9529 0.9623 0.41047 0.0
H979 H 0.97491 0.9473 0.42579 0.0
H980 H 0.02274 0.95899 0.41322 0.0
H981 H 0.88786 0.9283 0.30333 0.0
H982 H 0.86877 0.92376 0.34018 0.0
H983 H 0.85047 0.9393 0.32613 0.0
H984 H 0.81888 0.92347 0.43389 0.0
H985 H 0.77044 0.95999 0.39739 0.0
H986 H 0.95273 0.92499 0.41364 0.0
H987 H 0.91808 0.91652 0.38524 0.0
H988 H 0.9004 0.91392 0.42326 0.0
H989 H 0.8959 0.96933 0.36972 0.0
H990 H 0.82589 0.97241 0.36691 0.0
H991 H 0.85851 0.96187 0.34095 0.0
C992 C 0.46833 0.93815 0.85954 0.0
C993 C 0.46964 0.93601 0.82903 0.0
C994 C 0.42019 0.93853 0.8749 0.0
C995 C 0.37223 0.93673 0.85936 0.0
C996 C 0.37327 0.93487 0.82845 0.0
C997 C 0.42198 0.93452 0.81365 0.0
C998 C 0.42071 0.94056 0.90787 0.0
C999 C 0.32298 0.93295 0.81109 0.0
C1000 C 0.25404 0.924 0.9021 0.0
C1001 C 0.22457 0.93532 0.90674 0.0
C1002 C 0.30203 0.92433 0.88661 0.0
C1003 C 0.32114 0.93628 0.87561 0.0
C1004 C 0.29152 0.94775 0.8802 0.0
C1005 C 0.24348 0.94713 0.89566 0.0
C1006 C 0.33234 0.91188 0.88207 0.0
C1007 C 0.3107 0.96068 0.86889 0.0
H1008 H 0.50505 0.93931 0.87154 0.0
H1009 H 0.42273 0.93288 0.79006 0.0
H1010 H 0.39513 0.94888 0.91386 0.0
H1011 H 0.40442 0.93187 0.91904 0.0
H1012 H 0.46112 0.94238 0.91647 0.0
H1013 H 0.3304 0.93219 0.78702 0.0
H1014 H 0.30284 0.92398 0.81855 0.0
H1015 H 0.29548 0.94114 0.81508 0.0
H1016 H 0.23958 0.91484 0.91058 0.0
H1017 H 0.2209 0.95591 0.89924 0.0
H1018 H 0.37212 0.91269 0.89216 0.0
H1019 H 0.33809 0.91008 0.85817 0.0
H1020 H 0.31186 0.90338 0.89182 0.0
H1021 H 0.3498 0.96297 0.87861 0.0
H1022 H 0.28294 0.96868 0.8742 0.0
H1023 H 0.31597 0.96026 0.84463 0.0
C1024 C 0.7797 0.30973 0.85301 0.0
C1025 C 0.77506 0.31789 0.82847 0.0
C1026 C 0.82599 0.3096 0.87004 0.0
C1027 C 0.86822 0.31798 0.86257 0.0
C1028 C 0.86377 0.32621 0.83774 0.0
C1029 C 0.81735 0.32599 0.82086 0.0
C1030 C 0.8296 0.30057 0.89614 0.0
C1031 C 0.9077 0.33538 0.82927 0.0
C1032 C 0.96578 0.32705 0.9227 0.0
C1033 C 0.00918 0.3192 0.91567 0.0
C1034 C 0.9197 0.32678 0.90553 0.0
C1035 C 0.91675 0.31832 0.88101 0.0
C1036 C 0.96031 0.31029 0.87396 0.0
C1037 C 0.00619 0.31089 0.89127 0.0
C1038 C 0.87432 0.33562 0.9135 0.0
C1039 C 0.95838 0.30103 0.84819 0.0
H1040 H 0.74714 0.30341 0.85889 0.0
H1041 H 0.81383 0.33236 0.80196 0.0
H1042 H 0.86486 0.29425 0.89395 0.0
H1043 H 0.83447 0.30626 0.91671 0.0
H1044 H 0.79402 0.29435 0.89838 0.0
H1045 H 0.8981 0.3411 0.80924 0.0
H1046 H 0.91563 0.34219 0.84768 0.0
H1047 H 0.94465 0.32989 0.82518 0.0
H1048 H 0.96803 0.33352 0.94149 0.0
H1049 H 0.0396 0.30477 0.88584 0.0
H1050 H 0.8384 0.3298 0.91809 0.0
H1051 H 0.86505 0.34208 0.89466 0.0
H1052 H 0.88309 0.3417 0.9331 0.0
H1053 H 0.92454 0.29429 0.85074 0.0
H1054 H 0.9952 0.29525 0.84604 0.0
H1055 H 0.9521 0.30649 0.82743 0.0
C1056 C 0.69199 0.67029 0.67122 0.0
C1057 C 0.72876 0.67954 0.6616 0.0
C1058 C 0.64153 0.6695 0.65857 0.0
C1059 C 0.62762 0.67812 0.6356 0.0
C1060 C 0.66452 0.68751 0.62584 0.0
C1061 C 0.71464 0.68814 0.63905 0.0
C1062 C 0.60318 0.65942 0.6697 0.0
C1063 C 0.6512 0.69682 0.60127 0.0
C1064 C 0.51773 0.66835 0.58313 0.0
C1065 C 0.47542 0.67589 0.59334 0.0
C1066 C 0.56739 0.66893 0.5968 0.0
C1067 C 0.57477 0.67717 0.62142 0.0
C1068 C 0.53186 0.68457 0.63225 0.0
C1069 C 0.4827 0.68388 0.618 0.0
C1070 C 0.61222 0.66091 0.58455 0.0
C1071 C 0.53808 0.69336 0.65865 0.0
H1072 H 0.70262 0.66363 0.68872 0.0
H1073 H 0.74293 0.6953 0.63153 0.0
H1074 H 0.56622 0.66415 0.67726 0.0
H1075 H 0.5924 0.65271 0.65156 0.0
H1076 H 0.6197 0.65365 0.68819 0.0
H1077 H 0.68414 0.7036 0.5964 0.0
H1078 H 0.64165 0.69133 0.58091 0.0
H1079 H 0.61569 0.70256 0.60718 0.0
H1080 H 0.51238 0.66218 0.56402 0.0
H1081 H 0.45009 0.68973 0.62598 0.0
H1082 H 0.62833 0.65446 0.60193 0.0
H1083 H 0.64481 0.66736 0.57732 0.0
H1084 H 0.59977 0.65485 0.56553 0.0
H1085 H 0.55278 0.68774 0.6778 0.0
H1086 H 0.5004 0.69815 0.66491 0.0
H1087 H 0.56784 0.70096 0.65382 0.0
C1088 C 0.01596 0.06354 0.6357 0.0
C1089 C 0.01316 0.05629 0.66173 0.0
C1090 C 0.06272 0.06399 0.61914 0.0
C1091 C 0.10701 0.05663 0.62832 0.0
C1092 C 0.10348 0.04882 0.65392 0.0
C1093 C 0.05684 0.04896 0.67068 0.0
C1094 C 0.06539 0.07274 0.59251 0.0
C1095 C 0.14918 0.0405 0.66381 0.0
C1096 C 0.21268 0.05155 0.56998 0.0
C1097 C 0.25077 0.06065 0.57852 0.0
C1098 C 0.16659 0.04974 0.5867 0.0
C1099 C 0.15763 0.05759 0.61182 0.0
C1100 C 0.19621 0.06678 0.62053 0.0
C1101 C 0.24283 0.06802 0.60404 0.0
C1102 C 0.12728 0.03954 0.57733 0.0
C1103 C 0.18744 0.07561 0.64664 0.0
H1104 H 0.9823 0.06933 0.62899 0.0
H1105 H 0.05447 0.04331 0.69079 0.0
H1106 H 0.09676 0.08012 0.59574 0.0
H1107 H 0.07601 0.06706 0.57262 0.0
H1108 H 0.02741 0.07781 0.58831 0.0
H1109 H 0.13834 0.03408 0.68251 0.0
H1110 H 0.16337 0.03441 0.64526 0.0
H1111 H 0.1826 0.04673 0.67077 0.0
H1112 H 0.21912 0.0458 0.55031 0.0
H1113 H 0.27217 0.07514 0.61044 0.0
H1114 H 0.08996 0.04422 0.57023 0.0
H1115 H 0.11764 0.03312 0.5962 0.0
H1116 H 0.1423 0.0335 0.55887 0.0
H1117 H 0.1513 0.0815 0.64309 0.0
H1118 H 0.22127 0.08226 0.6504 0.0
H1119 H 0.18108 0.0698 0.66688 0.0
C1120 C 0.51183 0.08131 0.13218 0.0
C1121 C 0.50284 0.0729 0.15587 0.0
C1122 C 0.56179 0.08203 0.11877 0.0
C1123 C 0.60293 0.0738 0.12865 0.0
C1124 C 0.59384 0.06527 0.15255 0.0
C1125 C 0.54412 0.06509 0.1662 0.0
C1126 C 0.57046 0.09155 0.09397 0.0
C1127 C 0.63612 0.05606 0.16317 0.0
C1128 C 0.7125 0.06525 0.07487 0.0
C1129 C 0.75498 0.07239 0.08614 0.0
C1130 C 0.66275 0.06565 0.08847 0.0
C1131 C 0.65495 0.07372 0.11336 0.0
C1132 C 0.69739 0.08128 0.12423 0.0
C1133 C 0.74724 0.08036 0.11077 0.0
C1134 C 0.61899 0.05714 0.07673 0.0
C1135 C 0.69021 0.0903 0.15014 0.0
H1136 H 0.47993 0.08741 0.12435 0.0
H1137 H 0.53699 0.0585 0.18439 0.0
H1138 H 0.60537 0.09771 0.09875 0.0
H1139 H 0.57879 0.08625 0.07321 0.0
H1140 H 0.53566 0.09792 0.0904 0.0
H1141 H 0.62252 0.04997 0.18188 0.0
H1142 H 0.64843 0.0496 0.14486 0.0
H1143 H 0.67157 0.06155 0.17025 0.0
H1144 H 0.71862 0.05903 0.05591 0.0
H1145 H 0.78006 0.08597 0.11933 0.0
H1146 H 0.58452 0.06315 0.07035 0.0
H1147 H 0.60554 0.05039 0.09421 0.0
H1148 H 0.63162 0.05137 0.05728 0.0
H1149 H 0.65632 0.09689 0.14613 0.0
H1150 H 0.726 0.09624 0.15445 0.0
H1151 H 0.68101 0.08462 0.17024 0.0
C1152 C 0.01382 0.69181 0.09601 0.0
C1153 C 0.01243 0.6846 0.06983 0.0
C1154 C 0.06051 0.69282 0.11253 0.0
C1155 C 0.10661 0.68633 0.10278 0.0
C1156 C 0.10575 0.67931 0.07596 0.0
C1157 C 0.0587 0.6786 0.05971 0.0
C1158 C 0.06012 0.70052 0.14083 0.0
C1159 C 0.15396 0.67216 0.06499 0.0
C1160 C 0.23988 0.69525 0.13566 0.0
C1161 C 0.24566 0.68572 0.15742 0.0
C1162 C 0.19463 0.69565 0.11777 0.0
C1163 C 0.15472 0.68618 0.12155 0.0
C1164 C 0.16068 0.67646 0.14331 0.0
C1165 C 0.20593 0.6764 0.1611 0.0
C1166 C 0.18933 0.70622 0.09499 0.0
C1167 C 0.11931 0.66609 0.14776 0.0
H1168 H 0.97818 0.69652 0.10382 0.0
H1169 H 0.05779 0.67301 0.03949 0.0
H1170 H 0.0663 0.69393 0.15982 0.0
H1171 H 0.093 0.70763 0.1409 0.0
H1172 H 0.02234 0.7058 0.14414 0.0
H1173 H 0.14757 0.66773 0.04295 0.0
H1174 H 0.18823 0.67883 0.06366 0.0
H1175 H 0.16449 0.66437 0.08078 0.0
H1176 H 0.27048 0.7025 0.13283 0.0
H1177 H 0.21036 0.66898 0.17782 0.0
H1178 H 0.15293 0.71192 0.09918 0.0
H1179 H 0.18546 0.7019 0.0727 0.0
H1180 H 0.22369 0.71292 0.095 0.0
H1181 H 0.08099 0.67061 0.1537 0.0
H1182 H 0.13036 0.65911 0.16535 0.0
H1183 H 0.1132 0.66065 0.12694 0.0
C1184 C 0.46487 0.80106 0.89957 0.0
C1185 C 0.47321 0.8098 0.92277 0.0
C1186 C 0.41666 0.80081 0.8843 0.0
C1187 C 0.37624 0.80966 0.89209 0.0
C1188 C 0.38438 0.81845 0.91562 0.0
C1189 C 0.43264 0.81834 0.93085 0.0
C1190 C 0.40918 0.79117 0.8596 0.0
C1191 C 0.34259 0.82818 0.92427 0.0
C1192 C 0.27618 0.81833 0.83304 0.0
C1193 C 0.23188 0.81116 0.84184 0.0
C1194 C 0.3232 0.818 0.84934 0.0
C1195 C 0.32633 0.81011 0.87479 0.0
C1196 C 0.28186 0.80275 0.88367 0.0
C1197 C 0.23492 0.80345 0.8672 0.0
C1198 C 0.36944 0.82616 0.83941 0.0
C1199 C 0.284 0.79409 0.91044 0.0
H1200 H 0.49605 0.79439 0.89339 0.0
H1201 H 0.43901 0.82514 0.94872 0.0
H1202 H 0.37292 0.78536 0.86343 0.0
H1203 H 0.40386 0.79637 0.83842 0.0
H1204 H 0.44329 0.78446 0.85738 0.0
H1205 H 0.35468 0.83417 0.94348 0.0
H1206 H 0.33426 0.83472 0.90543 0.0
H1207 H 0.30518 0.82314 0.92977 0.0
H1208 H 0.27391 0.82437 0.81353 0.0
H1209 H 0.20079 0.79785 0.87399 0.0
H1210 H 0.40389 0.81986 0.83456 0.0
H1211 H 0.38137 0.83288 0.85732 0.0
H1212 H 0.36023 0.83195 0.81943 0.0
H1213 H 0.3163 0.7869 0.90793 0.0
H1214 H 0.24631 0.78881 0.9141 0.0
H1215 H 0.29294 0.79992 0.93036 0.0
C1216 C 0.74559 0.45 0.89625 0.0
C1217 C 0.74187 0.44081 0.9189 0.0
C1218 C 0.79141 0.45095 0.8789 0.0
C1219 C 0.83394 0.44231 0.88395 0.0
C1220 C 0.83041 0.43306 0.90692 0.0
C1221 C 0.78462 0.43251 0.9243 0.0
C1222 C 0.79411 0.46109 0.85499 0.0
C1223 C 0.87448 0.42353 0.91266 0.0
C1224 C 0.92775 0.43467 0.82103 0.0
C1225 C 0.97314 0.44156 0.82926 0.0
C1226 C 0.88199 0.43497 0.83845 0.0
C1227 C 0.88127 0.44254 0.86448 0.0
C1228 C 0.92643 0.44985 0.87242 0.0
C1229 C 0.97208 0.44918 0.85484 0.0
C1230 C 0.83496 0.42687 0.82945 0.0
C1231 C 0.92681 0.45821 0.89973 0.0
H1232 H 0.71272 0.45649 0.89215 0.0
H1233 H 0.78179 0.42536 0.94172 0.0
H1234 H 0.83016 0.46709 0.85774 0.0
H1235 H 0.79683 0.45634 0.83311 0.0
H1236 H 0.75906 0.46757 0.85507 0.0
H1237 H 0.86584 0.41705 0.93162 0.0
H1238 H 0.88105 0.41745 0.8928 0.0
H1239 H 0.91187 0.42877 0.91715 0.0
H1240 H 0.92844 0.42871 0.80134 0.0
H1241 H 0.00705 0.45456 0.86121 0.0
H1242 H 0.7994 0.43308 0.82724 0.0
H1243 H 0.82639 0.41958 0.84678 0.0
H1244 H 0.84153 0.42172 0.80826 0.0
H1245 H 0.89262 0.46494 0.89948 0.0
H1246 H 0.9637 0.46398 0.90174 0.0
H1247 H 0.92279 0.45204 0.9196 0.0
C1248 C 0.52665 0.44254 0.36154 0.0
C1249 C 0.54066 0.43262 0.34191 0.0
C1250 C 0.47636 0.4429 0.37453 0.0
C1251 C 0.4392 0.4331 0.36768 0.0
C1252 C 0.45297 0.42311 0.34769 0.0
C1253 C 0.5036 0.42299 0.33504 0.0
C1254 C 0.46317 0.45369 0.39579 0.0
C1255 C 0.41438 0.4125 0.33987 0.0
C1256 C 0.32976 0.42666 0.42291 0.0
C1257 C 0.28694 0.43321 0.41016 0.0
C1258 C 0.37945 0.42653 0.40926 0.0
C1259 C 0.38649 0.43309 0.38216 0.0
C1260 C 0.34339 0.4397 0.36912 0.0
C1261 C 0.29405 0.43969 0.38331 0.0
C1262 C 0.42446 0.41939 0.42388 0.0
C1263 C 0.34945 0.4468 0.34022 0.0
H1264 H 0.55512 0.45003 0.36689 0.0
H1265 H 0.5142 0.41532 0.31982 0.0
H1266 H 0.42755 0.45897 0.38817 0.0
H1267 H 0.45388 0.44958 0.41778 0.0
H1268 H 0.49609 0.46073 0.39825 0.0
H1269 H 0.43074 0.40562 0.32337 0.0
H1270 H 0.40349 0.40699 0.35996 0.0
H1271 H 0.37751 0.41677 0.3309 0.0
H1272 H 0.32451 0.42163 0.44367 0.0
H1273 H 0.26104 0.44475 0.37336 0.0
H1274 H 0.45735 0.4262 0.42852 0.0
H1275 H 0.44001 0.41181 0.40886 0.0
H1276 H 0.41236 0.41473 0.44489 0.0
H1277 H 0.38004 0.45444 0.34235 0.0
H1278 H 0.31197 0.45138 0.3329 0.0
H1279 H 0.36297 0.43999 0.32286 0.0
C1280 C 0.78483 0.80511 0.35653 0.0
C1281 C 0.76867 0.81558 0.33904 0.0
C1282 C 0.83482 0.805 0.36989 0.0
C1283 C 0.86934 0.81564 0.3657 0.0
C1284 C 0.85339 0.82619 0.34787 0.0
C1285 C 0.80322 0.82602 0.33471 0.0
C1286 C 0.85048 0.79357 0.38873 0.0
C1287 C 0.88909 0.83771 0.34296 0.0
C1288 C 0.97515 0.82116 0.42356 0.0
C1289 C 0.0199 0.81586 0.40991 0.0
C1290 C 0.92602 0.82125 0.4093 0.0
C1291 C 0.92154 0.81588 0.3807 0.0
C1292 C 0.96668 0.81061 0.36667 0.0
C1293 C 0.01541 0.81067 0.38146 0.0
C1294 C 0.87881 0.82698 0.42495 0.0
C1295 C 0.96336 0.80481 0.33617 0.0
H1296 H 0.75831 0.797 0.35989 0.0
H1297 H 0.79092 0.83414 0.32119 0.0
H1298 H 0.88776 0.78927 0.38038 0.0
H1299 H 0.85792 0.79683 0.41167 0.0
H1300 H 0.81961 0.78592 0.38915 0.0
H1301 H 0.87126 0.84499 0.32792 0.0
H1302 H 0.89782 0.84248 0.36434 0.0
H1303 H 0.92732 0.83449 0.33352 0.0
H1304 H 0.97841 0.8252 0.44555 0.0
H1305 H 0.04991 0.80656 0.37082 0.0
H1306 H 0.84791 0.81947 0.42785 0.0
H1307 H 0.86136 0.83485 0.41145 0.0
H1308 H 0.88916 0.83097 0.44695 0.0
H1309 H 0.93523 0.79656 0.33618 0.0
H1310 H 0.00228 0.8013 0.32815 0.0
H1311 H 0.94802 0.8121 0.32039 0.0
C1312 C 0.68518 0.19657 0.1664 0.0
C1313 C 0.72766 0.18888 0.15726 0.0
C1314 C 0.63904 0.19741 0.14936 0.0
C1315 C 0.63465 0.1899 0.12333 0.0
C1316 C 0.67769 0.18213 0.11403 0.0
C1317 C 0.72419 0.18192 0.13085 0.0
C1318 C 0.59482 0.20619 0.15939 0.0
C1319 C 0.67387 0.17362 0.08702 0.0
C1320 C 0.4965 0.18054 0.09896 0.0
C1321 C 0.48988 0.18824 0.07386 0.0
C1322 C 0.54363 0.18093 0.11515 0.0
C1323 C 0.58413 0.18963 0.10666 0.0
C1324 C 0.57676 0.19778 0.08188 0.0
C1325 C 0.53004 0.19678 0.06534 0.0
C1326 C 0.55067 0.17176 0.14079 0.0
C1327 C 0.61818 0.20753 0.07285 0.0
H1328 H 0.68824 0.20201 0.18679 0.0
H1329 H 0.75705 0.17588 0.12401 0.0
H1330 H 0.58211 0.21256 0.14101 0.0
H1331 H 0.56014 0.2003 0.16597 0.0
H1332 H 0.60659 0.21234 0.17838 0.0
H1333 H 0.71097 0.16818 0.08277 0.0
H1334 H 0.64114 0.16657 0.0898 0.0
H1335 H 0.66463 0.17956 0.06733 0.0
H1336 H 0.46552 0.17383 0.10528 0.0
H1337 H 0.5246 0.20277 0.04596 0.0
H1338 H 0.55742 0.1773 0.16138 0.0
H1339 H 0.58602 0.1656 0.13712 0.0
H1340 H 0.51584 0.16536 0.14401 0.0
H1341 H 0.62877 0.21376 0.0919 0.0
H1342 H 0.60463 0.21381 0.05446 0.0
H1343 H 0.65465 0.20244 0.06582 0.0
C1344 C 0.17587 0.5743 0.06461 0.0
C1345 C 0.22228 0.56883 0.07598 0.0
C1346 C 0.12919 0.57455 0.0813 0.0
C1347 C 0.12885 0.56908 0.1099 0.0
C1348 C 0.17541 0.56336 0.12131 0.0
C1349 C 0.22168 0.56337 0.10425 0.0
C1350 C 0.08042 0.58082 0.06849 0.0
C1351 C 0.17642 0.55731 0.1516 0.0
C1352 C 0.0246 0.5799 0.16492 0.0
C1353 C 0.98781 0.56979 0.16304 0.0
C1354 C 0.07042 0.57987 0.14748 0.0
C1355 C 0.07988 0.5694 0.12799 0.0
C1356 C 0.04277 0.55917 0.12598 0.0
C1357 C 0.99701 0.55953 0.14341 0.0
C1358 C 0.1088 0.59102 0.14998 0.0
C1359 C 0.05171 0.54779 0.10564 0.0
H1360 H 0.1762 0.57859 0.0428 0.0
H1361 H 0.25745 0.5591 0.1131 0.0
H1362 H 0.04754 0.57372 0.06773 0.0
H1363 H 0.06749 0.58895 0.08279 0.0
H1364 H 0.0872 0.5846 0.04588 0.0
H1365 H 0.21547 0.553 0.15695 0.0
H1366 H 0.16685 0.56472 0.1685 0.0
H1367 H 0.14588 0.54963 0.15314 0.0
H1368 H 0.01752 0.58787 0.17999 0.0
H1369 H 0.96874 0.55167 0.14196 0.0
H1370 H 0.1147 0.59556 0.12807 0.0
H1371 H 0.14784 0.58741 0.15746 0.0
H1372 H 0.09502 0.59856 0.16567 0.0
H1373 H 0.05582 0.55121 0.08258 0.0
H1374 H 0.01894 0.54064 0.10663 0.0
H1375 H 0.08908 0.54281 0.11157 0.0
C1376 C 0.78081 0.55267 0.60701 0.0
C1377 C 0.79237 0.56332 0.58893 0.0
C1378 C 0.73116 0.55141 0.62054 0.0
C1379 C 0.69232 0.56108 0.61607 0.0
C1380 C 0.70382 0.57186 0.59784 0.0
C1381 C 0.75363 0.57282 0.58439 0.0
C1382 C 0.72028 0.53974 0.63966 0.0
C1383 C 0.66362 0.58244 0.59273 0.0
C1384 C 0.54736 0.55368 0.63072 0.0
C1385 C 0.54013 0.55921 0.65867 0.0
C1386 C 0.59694 0.55401 0.61677 0.0
C1387 C 0.64008 0.56012 0.63102 0.0
C1388 C 0.63307 0.56558 0.65938 0.0
C1389 C 0.58327 0.565 0.6729 0.0
C1390 C 0.60302 0.54798 0.58665 0.0
C1391 C 0.67793 0.57226 0.67522 0.0
H1392 H 0.81053 0.54526 0.61049 0.0
H1393 H 0.76235 0.58107 0.57044 0.0
H1394 H 0.71137 0.54289 0.6625 0.0
H1395 H 0.68504 0.53448 0.63138 0.0
H1396 H 0.7542 0.53291 0.64029 0.0
H1397 H 0.67861 0.59013 0.57778 0.0
H1398 H 0.62713 0.57828 0.58307 0.0
H1399 H 0.65254 0.58695 0.61406 0.0
H1400 H 0.51416 0.54918 0.61964 0.0
H1401 H 0.57792 0.56932 0.69448 0.0
H1402 H 0.63535 0.54072 0.58693 0.0
H1403 H 0.61406 0.55552 0.57037 0.0
H1404 H 0.5662 0.54316 0.57906 0.0
H1405 H 0.71174 0.56551 0.67776 0.0
H1406 H 0.6662 0.57582 0.69738 0.0
H1407 H 0.692 0.58061 0.66199 0.0
C1408 C 0.04797 0.17715 0.56993 0.0
C1409 C 0.00365 0.18316 0.58248 0.0
C1410 C 0.09764 0.17785 0.58356 0.0
C1411 C 0.1032 0.18482 0.61027 0.0
C1412 C 0.05866 0.191 0.62293 0.0
C1413 C 0.00932 0.19004 0.60893 0.0
C1414 C 0.14409 0.17104 0.56951 0.0
C1415 C 0.06312 0.19858 0.65129 0.0
C1416 C 0.21918 0.17649 0.65985 0.0
C1417 C 0.2553 0.18632 0.65286 0.0
C1418 C 0.1695 0.17591 0.6462 0.0
C1419 C 0.15548 0.18544 0.62519 0.0
C1420 C 0.19166 0.19545 0.61818 0.0
C1421 C 0.24126 0.19574 0.63204 0.0
C1422 C 0.13217 0.16504 0.65412 0.0
C1423 C 0.17799 0.20582 0.59601 0.0
H1424 H 0.04378 0.17179 0.5495 0.0
H1425 H 0.9752 0.19473 0.61868 0.0
H1426 H 0.17601 0.17811 0.56482 0.0
H1427 H 0.16042 0.16374 0.58496 0.0
H1428 H 0.13321 0.16609 0.54863 0.0
H1429 H 0.025 0.20305 0.6579 0.0
H1430 H 0.07668 0.19212 0.6693 0.0
H1431 H 0.09308 0.20635 0.64886 0.0
H1432 H 0.22985 0.16917 0.67591 0.0
H1433 H 0.26901 0.20338 0.62662 0.0
H1434 H 0.12249 0.1593 0.63414 0.0
H1435 H 0.09456 0.16907 0.6627 0.0
H1436 H 0.14903 0.15841 0.67096 0.0
H1437 H 0.16999 0.20135 0.57423 0.0
H1438 H 0.21012 0.21307 0.59341 0.0
H1439 H 0.14145 0.21094 0.60289 0.0
C1440 C 0.87729 0.22862 0.24976 0.0
C1441 C 0.90586 0.22192 0.22804 0.0
C1442 C 0.89436 0.24067 0.26031 0.0
C1443 C 0.94084 0.24625 0.24861 0.0
C1444 C 0.96912 0.23973 0.22607 0.0
C1445 C 0.95144 0.22757 0.21616 0.0
C1446 C 0.86338 0.24725 0.28453 0.0
C1447 C 0.01852 0.24549 0.21283 0.0
C1448 C 0.96189 0.28234 0.26003 0.0
C1449 C 0.99869 0.28245 0.28312 0.0
C1450 C 0.94284 0.27062 0.24848 0.0
C1451 C 0.9605 0.25876 0.26061 0.0
C1452 C 0.99651 0.25882 0.28449 0.0
C1453 C 0.01545 0.27068 0.29534 0.0
C1454 C 0.90473 0.27093 0.22289 0.0
C1455 C 0.01552 0.24636 0.29834 0.0
H1456 H 0.84208 0.22429 0.25914 0.0
H1457 H 0.97359 0.22243 0.19937 0.0
H1458 H 0.88859 0.24836 0.30437 0.0
H1459 H 0.8514 0.25711 0.27749 0.0
H1460 H 0.82738 0.24174 0.29076 0.0
H1461 H 0.03444 0.23951 0.19451 0.0
H1462 H 0.01022 0.25538 0.20439 0.0
H1463 H 0.04941 0.24643 0.23003 0.0
H1464 H 0.94919 0.29142 0.25032 0.0
H1465 H 0.04397 0.27073 0.31316 0.0
H1466 H 0.8677 0.26581 0.22881 0.0
H1467 H 0.92211 0.26578 0.20374 0.0
H1468 H 0.8947 0.28097 0.21607 0.0
H1469 H 0.98132 0.24059 0.30616 0.0
H1470 H 0.0425 0.2481 0.31724 0.0
H1471 H 0.03662 0.24043 0.28168 0.0
C1472 C 0.28194 0.96861 0.24231 0.0
C1473 C 0.25148 0.96885 0.26813 0.0
C1474 C 0.29915 0.98014 0.22907 0.0
C1475 C 0.28656 0.99215 0.24237 0.0
C1476 C 0.25807 0.99241 0.26925 0.0
C1477 C 0.24031 0.98074 0.28164 0.0
C1478 C 0.3287 0.97949 0.20018 0.0
C1479 C 0.24504 0.00503 0.28447 0.0
C1480 C 0.36351 0.02238 0.22231 0.0
C1481 C 0.32693 0.0291 0.20481 0.0
C1482 C 0.35139 0.0102 0.23416 0.0
C1483 C 0.30189 0.0045 0.22787 0.0
C1484 C 0.26591 0.01091 0.2089 0.0
C1485 C 0.27867 0.02323 0.19781 0.0
C1486 C 0.39047 0.00376 0.25459 0.0
C1487 C 0.21321 0.00497 0.20116 0.0
H1488 H 0.2901 0.95943 0.23161 0.0
H1489 H 0.21671 0.98094 0.30158 0.0
H1490 H 0.30488 0.98416 0.18262 0.0
H1491 H 0.36645 0.9849 0.20177 0.0
H1492 H 0.33743 0.96936 0.19342 0.0
H1493 H 0.22583 0.00351 0.30621 0.0
H1494 H 0.2815 0.01082 0.28777 0.0
H1495 H 0.2181 0.01084 0.27043 0.0
H1496 H 0.40082 0.02691 0.22794 0.0
H1497 H 0.25036 0.02838 0.18426 0.0
H1498 H 0.39862 0.99371 0.24723 0.0
H1499 H 0.3734 0.00316 0.27708 0.0
H1500 H 0.42847 0.00912 0.25585 0.0
H1501 H 0.21872 0.99493 0.19297 0.0
H1502 H 0.19182 0.01065 0.18414 0.0
H1503 H 0.18812 0.00442 0.22117 0.0
C1504 C 0.98712 0.02401 0.04161 0.0
C1505 C 0.93549 0.02885 0.04006 0.0
C1506 C 0.99921 0.01155 0.03104 0.0
C1507 C 0.95878 0.00386 0.01834 0.0
C1508 C 0.90629 0.00854 0.01767 0.0
C1509 C 0.89523 0.02094 0.02871 0.0
C1510 C 0.05553 0.00679 0.03258 0.0
C1511 C 0.86216 0.00068 0.00417 0.0
C1512 C 0.00297 0.97844 0.96288 0.0
C1513 C 0.00186 0.96714 0.97996 0.0
C1514 C 0.98775 0.99042 0.97491 0.0
C1515 C 0.97177 0.99111 0.00481 0.0
C1516 C 0.96923 0.97967 0.0219 0.0
C1517 C 0.98396 0.9678 0.0092 0.0
C1518 C 0.99009 0.0024 0.95584 0.0
C1519 C 0.9528 0.98001 0.05389 0.0
H1520 H 0.01837 0.03008 0.05032 0.0
H1521 H 0.85523 0.02464 0.02734 0.0
H1522 H 0.05705 0.99716 0.04342 0.0
H1523 H 0.07148 0.00559 0.00997 0.0
H1524 H 0.08156 0.01357 0.04487 0.0
H1525 H 0.82306 0.00544 0.00669 0.0
H1526 H 0.86998 0.99923 0.98033 0.0
H1527 H 0.86032 0.99094 0.01446 0.0
H1528 H 0.01687 0.97797 0.9403 0.0
H1529 H 0.98336 0.95911 0.0226 0.0
H1530 H 0.01984 0.00924 0.96479 0.0
H1531 H 0.95138 0.00744 0.95608 0.0
H1532 H 1.00063 0.00012 0.93264 0.0
H1533 H 0.98123 0.98596 0.06667 0.0
H1534 H 0.95106 0.97018 0.06383 0.0
H1535 H 0.91345 0.98464 0.05616 0.0
C1536 C 0.29662 0.22424 0.98131 0.0
C1537 C 0.29228 0.219 0.00971 0.0
C1538 C 0.27831 0.23673 0.97504 0.0
C1539 C 0.25586 0.24426 -0.00214 0.0
C1540 C 0.25119 0.23903 0.02663 0.0
C1541 C 0.26908 0.22636 0.03218 0.0
C1542 C 0.28308 0.24187 0.94396 0.0
C1543 C 0.22799 0.24687 0.05157 0.0
C1544 C 0.25504 0.28067 0.98567 0.0
C1545 C 0.20256 0.28279 0.97717 0.0
C1546 C 0.2727 0.26819 0.99306 0.0
C1547 C 0.23719 0.25761 0.9914 0.0
C1548 C 0.18435 0.25969 0.98242 0.0
C1549 C 0.16756 0.27228 0.97564 0.0
C1550 C 0.32923 0.26634 0.00281 0.0
C1551 C 0.14565 0.24861 0.97981 0.0
H1552 H 0.31423 0.21853 0.96381 0.0
H1553 H 0.26596 0.22233 0.05417 0.0
H1554 H 0.24361 0.24475 0.9356 0.0
H1555 H 0.30835 0.25064 0.94374 0.0
H1556 H 0.30028 0.23462 0.92859 0.0
H1557 H 0.22749 0.24142 0.07268 0.0
H1558 H 0.25121 0.25589 0.05468 0.0
H1559 H 0.18698 0.24979 0.0461 0.0
H1560 H 0.28201 0.2888 0.98715 0.0
H1561 H 0.12693 0.2739 0.96906 0.0
H1562 H 0.34999 0.25976 0.9873 0.0
H1563 H 0.33024 0.26169 0.02486 0.0
H1564 H 0.35127 0.27563 0.00392 0.0
H1565 H 0.16061 0.24137 0.96376 0.0
H1566 H 0.10592 0.25188 0.97255 0.0
H1567 H 0.1416 0.24362 0.00133 0.0
C1568 C 0.89909 0.72343 0.75137 0.0
C1569 C 0.91825 0.71867 0.72442 0.0
C1570 C 0.9157 0.73544 0.76246 0.0
C1571 C 0.95221 0.74292 0.74614 0.0
C1572 C 0.97076 0.73833 0.71855 0.0
C1573 C 0.95364 0.72622 0.70804 0.0
C1574 C 0.89516 0.73996 0.79199 0.0
C1575 C 0.00949 0.7461 0.70045 0.0
C1576 C 0.96684 0.77881 0.76334 0.0
C1577 C 0.01352 0.77894 0.77998 0.0
C1578 C 0.94602 0.76714 0.75244 0.0
C1579 C 0.97243 0.75533 0.75846 0.0
C1580 C 0.01858 0.75538 0.77609 0.0
C1581 C 0.03862 0.76719 0.78659 0.0
C1582 C 0.89665 0.76747 0.73379 0.0
C1583 C 0.04755 0.74298 0.78325 0.0
H1584 H 0.87172 0.71764 0.76418 0.0
H1585 H 0.96853 0.72259 0.68721 0.0
H1586 H 0.9284 0.74085 0.80779 0.0
H1587 H 0.87696 0.74969 0.78986 0.0
H1588 H 0.86541 0.73321 0.80139 0.0
H1589 H 0.01826 0.74145 0.6789 0.0
H1590 H 0.99364 0.75596 0.69637 0.0
H1591 H 0.04703 0.74724 0.7128 0.0
H1592 H 0.94742 0.78787 0.75803 0.0
H1593 H 0.07477 0.76723 0.79939 0.0
H1594 H 0.86622 0.76094 0.74322 0.0
H1595 H 0.90572 0.76389 0.71129 0.0
H1596 H 0.8798 0.77738 0.73202 0.0
H1597 H 0.02032 0.73599 0.79393 0.0
H1598 H 0.08179 0.74463 0.7981 0.0
H1599 H 0.06202 0.73841 0.76263 0.0
C1600 C 0.74202 0.96479 0.75303 0.0
C1601 C 0.70194 0.96472 0.77438 0.0
C1602 C 0.76549 0.97644 0.74388 0.0
C1603 C 0.74903 0.98828 0.75672 0.0
C1604 C 0.70956 0.98823 0.77886 0.0
C1605 C 0.68619 0.97645 0.78726 0.0
C1606 C 0.80712 0.97611 0.72004 0.0
C1607 C 0.69164 0.00063 0.79345 0.0
C1608 C 0.84178 0.01712 0.75256 0.0
C1609 C 0.81855 0.02463 0.73026 0.0
C1610 C 0.8196 0.00528 0.76132 0.0
C1611 C 0.77341 0.00073 0.74718 0.0
C1612 C 0.75029 0.00813 0.72424 0.0
C1613 C 0.77295 0.02006 0.71619 0.0
C1614 C 0.84511 0.99777 0.78609 0.0
C1615 C 0.70141 0.00349 0.70838 0.0
H1616 H 0.75401 0.95576 0.7428 0.0
H1617 H 0.65517 0.97644 0.80374 0.0
H1618 H 0.79402 0.982 0.70094 0.0
H1619 H 0.84438 0.98045 0.72827 0.0
H1620 H 0.8155 0.96611 0.7123 0.0
H1621 H 0.66164 0.99888 0.81088 0.0
H1622 H 0.72594 0.00568 0.80345 0.0
H1623 H 0.67449 0.00725 0.77675 0.0
H1624 H 0.87689 0.02062 0.76367 0.0
H1625 H 0.7549 0.02583 0.69895 0.0
H1626 H 0.85611 0.98793 0.7784 0.0
H1627 H 0.81662 0.99657 0.80447 0.0
H1628 H 0.88108 0.00264 0.79472 0.0
H1629 H 0.70842 0.99372 0.6989 0.0
H1630 H 0.68937 0.01015 0.69037 0.0
H1631 H 0.66818 0.0026 0.7242 0.0
C1632 C 0.64673 0.76464 0.99222 0.0
C1633 C 0.67588 0.77348 0.97526 0.0
C1634 C 0.66705 0.75237 -0.00091 0.0
C1635 C 0.71762 0.7488 0.98859 0.0
C1636 C 0.74676 0.75756 0.97086 0.0
C1637 C 0.72559 0.76983 0.96448 0.0
C1638 C 0.63487 0.74333 0.01816 0.0
C1639 C 0.80066 0.75404 0.95905 0.0
C1640 C 0.79388 0.72284 0.02995 0.0
C1641 C 0.78517 0.71192 0.01225 0.0
C1642 C 0.77174 0.73489 0.02262 0.0
C1643 C 0.74054 0.73604 0.99685 0.0
C1644 C 0.73111 0.725 0.97909 0.0
C1645 C 0.75336 0.71305 0.98708 0.0
C1646 C 0.78218 0.74642 0.0423 0.0
C1647 C 0.69824 0.72586 0.95139 0.0
H1648 H 0.60829 0.7674 0.00068 0.0
H1649 H 0.74825 0.77663 0.95137 0.0
H1650 H 0.62883 0.73395 0.0067 0.0
H1651 H 0.65656 0.74125 0.03888 0.0
H1652 H 0.59563 0.74744 0.0239 0.0
H1653 H 0.81723 0.76172 0.94458 0.0
H1654 H 0.82835 0.75241 0.97763 0.0
H1655 H 0.79845 0.74487 0.94636 0.0
H1656 H 0.81849 0.72202 0.04941 0.0
H1657 H 0.74678 0.70464 0.97322 0.0
H1658 H 0.74426 0.75062 0.04999 0.0
H1659 H 0.80311 0.75407 0.0297 0.0
H1660 H 0.80638 0.74384 0.06186 0.0
H1661 H 0.65816 0.72952 0.95672 0.0
H1662 H 0.69434 0.71635 0.94011 0.0
H1663 H 0.71643 0.73286 0.93585 0.0
C1664 C 0.30097 0.5183 0.69478 0.0
C1665 C 0.34236 0.52376 0.71111 0.0
C1666 C 0.27685 0.5067 0.70383 0.0
C1667 C 0.29438 0.50049 0.72991 0.0
C1668 C 0.33749 0.5057 0.74582 0.0
C1669 C 0.36106 0.51725 0.73617 0.0
C1670 C 0.23133 0.50135 0.68611 0.0
C1671 C 0.35728 0.4994 0.77374 0.0
C1672 C 0.1943 0.47984 0.77096 0.0
C1673 C 0.20912 0.46729 0.76253 0.0
C1674 C 0.22215 0.49071 0.76077 0.0
C1675 C 0.26566 0.48899 0.74151 0.0
C1676 C 0.28135 0.47632 0.7333 0.0
C1677 C 0.25298 0.46562 0.744 0.0
C1678 C 0.20454 0.50406 0.77027 0.0
C1679 C 0.32742 0.4741 0.71277 0.0
H1680 H 0.28639 0.52328 0.6754 0.0
H1681 H 0.39304 0.52141 0.74892 0.0
H1682 H 0.2383 0.491 0.68079 0.0
H1683 H 0.19451 0.50187 0.69933 0.0
H1684 H 0.22513 0.50676 0.66523 0.0
H1685 H 0.39339 0.50418 0.78243 0.0
H1686 H 0.32611 0.49985 0.79092 0.0
H1687 H 0.36612 0.48901 0.76979 0.0
H1688 H 0.16042 0.48119 0.78526 0.0
H1689 H 0.26446 0.45594 0.73728 0.0
H1690 H 0.19257 0.5098 0.75071 0.0
H1691 H 0.23778 0.50927 0.78093 0.0
H1692 H 0.17082 0.50372 0.78593 0.0
H1693 H 0.31942 0.47875 0.69118 0.0
H1694 H 0.33532 0.46364 0.70905 0.0
H1695 H 0.3636 0.47866 0.72186 0.0
C1696 C 0.13494 0.47673 0.49703 0.0
C1697 C 0.10939 0.47129 0.47252 0.0
C1698 C 0.12049 0.48894 0.50787 0.0
C1699 C 0.07966 0.49593 0.49377 0.0
C1700 C 0.05499 0.49071 0.46835 0.0
C1701 C 0.07008 0.47841 0.45805 0.0
C1702 C 0.1476 0.49414 0.53508 0.0
C1703 C 0.01153 0.49795 0.45261 0.0
C1704 C 1.00003 0.51994 0.53889 0.0
C1705 C 0.02135 0.53181 0.52975 0.0
C1706 C 0.01921 0.50819 0.52764 0.0
C1707 C 0.06064 0.50833 0.50667 0.0
C1708 C 0.08342 0.52026 0.498 0.0
C1709 C 0.06353 0.53188 0.5097 0.0
C1710 C 0.99425 0.49565 0.53767 0.0
C1711 C 0.12776 0.52077 0.47578 0.0
H1712 H 0.16542 0.47128 0.50833 0.0
H1713 H 0.05029 0.47425 0.43909 0.0
H1714 H 0.16299 0.50403 0.53092 0.0
H1715 H 0.11868 0.49487 0.55339 0.0
H1716 H 0.18084 0.48788 0.54233 0.0
H1717 H 0.99887 0.49297 0.43207 0.0
H1718 H 0.97678 0.49891 0.46737 0.0
H1719 H 0.02482 0.50789 0.44698 0.0
H1720 H 0.96737 0.51984 0.55435 0.0
H1721 H 0.07996 0.54104 0.50245 0.0
H1722 H 0.02488 0.48907 0.54672 0.0
H1723 H 0.9759 0.49065 0.5186 0.0
H1724 H 0.96349 0.4972 0.55478 0.0
H1725 H 0.16117 0.51462 0.48317 0.0
H1726 H 0.14249 0.53079 0.47221 0.0
H1727 H 0.11392 0.51682 0.45437 0.0
C1728 C 0.33006 0.72196 0.50222 0.0
C1729 C 0.29689 0.71573 0.52256 0.0
C1730 C 0.31764 0.73423 0.49108 0.0
C1731 C 0.27139 0.74057 0.50095 0.0
C1732 C 0.23803 0.73443 0.52181 0.0
C1733 C 0.25092 0.72198 0.53216 0.0
C1734 C 0.35369 0.74035 0.46848 0.0
C1735 C 0.18883 0.74102 0.53318 0.0
C1736 C 0.26531 0.77713 0.49244 0.0
C1737 C 0.23119 0.77848 0.46831 0.0
C1738 C 0.27861 0.76484 0.50336 0.0
C1739 C 0.25813 0.75365 0.4894 0.0
C1740 C 0.22528 0.75495 0.46431 0.0
C1741 C 0.21173 0.76737 0.45424 0.0
C1742 C 0.31328 0.76385 0.53035 0.0
C1743 C 0.20378 0.74322 0.4484 0.0
H1744 H 0.36544 0.71711 0.49448 0.0
H1745 H 0.22527 0.71718 0.54788 0.0
H1746 H 0.33123 0.74247 0.44804 0.0
H1747 H 0.36914 0.7497 0.4769 0.0
H1748 H 0.38771 0.73402 0.46276 0.0
H1749 H 0.16786 0.73508 0.54993 0.0
H1750 H 0.19923 0.7505 0.54316 0.0
H1751 H 0.16138 0.74298 0.51467 0.0
H1752 H 0.27993 0.7857 0.5036 0.0
H1753 H 0.18525 0.7684 0.43561 0.0
H1754 H 0.34893 0.75799 0.52534 0.0
H1755 H 0.2916 0.7588 0.54824 0.0
H1756 H 0.32607 0.77349 0.53856 0.0
H1757 H 0.23666 0.73675 0.4417 0.0
H1758 H 0.18074 0.74589 0.42848 0.0
H1759 H 0.17786 0.7376 0.4634 0.0
C1760 C 0.80141 0.46872 0.26689 0.0
C1761 C 0.77193 0.46707 0.29278 0.0
C1762 C 0.81502 0.48114 0.25688 0.0
C1763 C 0.79928 0.49213 0.27338 0.0
C1764 C 0.7721 0.49047 0.30039 0.0
C1765 C 0.7585 0.47795 0.3097 0.0
C1766 C 0.84396 0.48253 0.22794 0.0
C1767 C 0.75546 0.50196 0.31884 0.0
C1768 C 0.8653 0.52441 0.25795 0.0
C1769 C 0.8271 0.5307 0.24069 0.0
C1770 C 0.85683 0.51186 0.26872 0.0
C1771 C 0.80924 0.50537 0.26178 0.0
C1772 C 0.7708 0.51158 0.244 0.0
C1773 C 0.78008 0.52423 0.23379 0.0
C1774 C 0.89847 0.50561 0.28785 0.0
C1775 C 0.71976 0.5049 0.23592 0.0
H1776 H 0.81163 0.46035 0.25363 0.0
H1777 H 0.73573 0.47671 0.32975 0.0
H1778 H 0.81805 0.48743 0.21168 0.0
H1779 H 0.87958 0.48866 0.23077 0.0
H1780 H 0.85623 0.47302 0.21871 0.0
H1781 H 0.73828 0.49898 0.34033 0.0
H1782 H 0.78973 0.50839 0.32304 0.0
H1783 H 0.72556 0.50772 0.3067 0.0
H1784 H 0.90166 0.5294 0.26349 0.0
H1785 H 0.75052 0.52905 0.22044 0.0
H1786 H 0.91158 0.49633 0.27789 0.0
H1787 H 0.8816 0.50331 0.30981 0.0
H1788 H 0.93355 0.51192 0.29097 0.0
H1789 H 0.72826 0.49559 0.22464 0.0
H1790 H 0.69461 0.51093 0.22128 0.0
H1791 H 0.69707 0.5026 0.25618 0.0
C1792 C 0.75913 0.22299 0.53303 0.0
C1793 C 0.80569 0.2177 0.52144 0.0
C1794 C 0.73948 0.23488 0.52265 0.0
C1795 C 0.7666 0.24149 0.49982 0.0
C1796 C 0.8137 0.23619 0.48814 0.0
C1797 C 0.83289 0.22442 0.49926 0.0
C1798 C 0.68961 0.24036 0.53601 0.0
C1799 C 0.8434 0.24284 0.46354 0.0
C1800 C 0.68915 0.26599 0.45445 0.0
C1801 C 0.70595 0.27773 0.46681 0.0
C1802 C 0.7091 0.25411 0.4647 0.0
C1803 C 0.74596 0.25399 0.48821 0.0
C1804 C 0.76335 0.26584 0.50057 0.0
C1805 C 0.74348 0.27756 0.48955 0.0
C1806 C 0.69041 0.24167 0.45059 0.0
C1807 C 0.80214 0.26612 0.52586 0.0
H1808 H 0.73799 0.21781 0.55015 0.0
H1809 H 0.86869 0.22032 0.49002 0.0
H1810 H 0.69724 0.25022 0.54477 0.0
H1811 H 0.65869 0.24127 0.51882 0.0
H1812 H 0.67406 0.23421 0.55414 0.0
H1813 H 0.87921 0.23738 0.45673 0.0
H1814 H 0.81728 0.24398 0.44409 0.0
H1815 H 0.85556 0.2527 0.47057 0.0
H1816 H 0.6601 0.26608 0.4369 0.0
H1817 H 0.75628 0.28661 0.49939 0.0
H1818 H 0.6699 0.23559 0.46718 0.0
H1819 H 0.72474 0.23603 0.44241 0.0
H1820 H 0.663 0.24345 0.4319 0.0
H1821 H 0.78572 0.26072 0.54492 0.0
H1822 H 0.81154 0.27615 0.53305 0.0
H1823 H 0.83941 0.26124 0.51938 0.0
C1824 C 0.61092 0.27519 0.74115 0.0
C1825 C 0.58475 0.28205 0.76353 0.0
C1826 C 0.5922 0.26316 0.73131 0.0
C1827 C 0.54661 0.25774 0.74446 0.0
C1828 C 0.52081 0.26444 0.76764 0.0
C1829 C 0.53996 0.27659 0.77675 0.0
C1830 C 0.62042 0.25642 0.70629 0.0
C1831 C 0.47255 0.25887 0.7825 0.0
C1832 C 0.46569 0.23343 0.70066 0.0
C1833 C 0.48314 0.22162 0.71238 0.0
C1834 C 0.4865 0.24524 0.71066 0.0
C1835 C 0.52506 0.24525 0.73328 0.0
C1836 C 0.5432 0.23334 0.74499 0.0
C1837 C 0.52231 0.22165 0.73422 0.0
C1838 C 0.46687 0.25773 0.69722 0.0
C1839 C 0.58387 0.23295 0.76932 0.0
H1840 H 0.64542 0.27939 0.73071 0.0
H1841 H 0.51969 0.28185 0.79407 0.0
H1842 H 0.63261 0.24654 0.7131 0.0
H1843 H 0.59322 0.25532 0.68727 0.0
H1844 H 0.656 0.2618 0.69886 0.0
H1845 H 0.45879 0.26495 0.8012 0.0
H1846 H 0.43992 0.25798 0.76631 0.0
H1847 H 0.48119 0.24898 0.79082 0.0
H1848 H 0.4354 0.23344 0.68377 0.0
H1849 H 0.53556 0.21254 0.74355 0.0
H1850 H 0.50058 0.26335 0.68822 0.0
H1851 H 0.44787 0.2638 0.71441 0.0
H1852 H 0.4379 0.25604 0.67924 0.0
H1853 H 0.62058 0.23789 0.7621 0.0
H1854 H 0.59385 0.22289 0.77602 0.0
H1855 H 0.56888 0.23826 0.78888 0.0
C1856 C 0.4228 0.02133 0.512 0.0
C1857 C 0.45394 0.03245 0.51562 0.0
C1858 C 0.44555 0.00944 0.50405 0.0
C1859 C 0.50071 0.0087 0.49928 0.0
C1860 C 0.53245 0.01988 0.50313 0.0
C1861 C 0.50869 0.03162 0.51146 0.0
C1862 C 0.41052 0.99768 0.50066 0.0
C1863 C 0.59138 0.01947 0.49805 0.0
C1864 C 0.5672 0.97589 0.50497 0.0
C1865 C 0.57125 0.97221 0.47529 0.0
C1866 C 0.54407 0.9877 0.51304 0.0
C1867 C 0.52529 0.99615 0.49086 0.0
C1868 C 0.52947 0.99252 0.46081 0.0
C1869 C 0.55204 0.98051 0.45336 0.0
C1870 C 0.53944 0.99109 0.54534 0.0
C1871 C 0.51039 0.00137 0.43656 0.0
H1872 H 0.38042 0.02193 0.51519 0.0
H1873 H 0.53282 0.04023 0.514 0.0
H1874 H 0.41321 0.99391 0.47781 0.0
H1875 H 0.42408 0.98985 0.5156 0.0
H1876 H 0.36846 -0.00015 0.50562 0.0
H1877 H 0.61034 0.02905 0.50161 0.0
H1878 H 0.60988 0.01233 0.51311 0.0
H1879 H 0.59974 0.01624 0.47518 0.0
H1880 H 0.5817 0.96945 0.52202 0.0
H1881 H 0.55533 0.9777 0.43041 0.0
H1882 H 0.49741 0.99275 0.55116 0.0
H1883 H 0.56104 0.00022 0.54997 0.0
H1884 H 0.5554 0.98336 0.55986 0.0
H1885 H 0.46747 0.00322 0.43914 0.0
H1886 H 0.51747 0.99724 0.41429 0.0
H1887 H 0.53076 0.01087 0.43809 0.0
C1888 C 0.50157 0.78141 0.26064 0.0
C1889 C 0.53214 0.78205 0.28637 0.0
C1890 C 0.48212 0.76954 0.25024 0.0
C1891 C 0.49273 0.75806 0.26624 0.0
C1892 C 0.52199 0.75871 0.29281 0.0
C1893 C 0.54177 0.7707 0.30243 0.0
C1894 C 0.45151 0.76922 0.22167 0.0
C1895 C 0.53316 0.7467 0.31078 0.0
C1896 C 0.40394 0.72913 0.25213 0.0
C1897 C 0.43577 0.72137 0.23396 0.0
C1898 C 0.42219 0.74103 0.26299 0.0
C1899 C 0.47324 0.74538 0.25511 0.0
C1900 C 0.5054 0.73767 0.23647 0.0
C1901 C 0.48641 0.72568 0.22629 0.0
C1902 C 0.38701 0.74888 0.28313 0.0
C1903 C 0.55978 0.7421 0.22727 0.0
H1904 H 0.49445 0.79014 0.24798 0.0
H1905 H 0.56547 0.77116 0.3223 0.0
H1906 H 0.47239 0.76303 0.20542 0.0
H1907 H 0.41195 0.76489 0.22531 0.0
H1908 H 0.4463 0.77903 0.21201 0.0
H1909 H 0.55446 0.74894 0.33157 0.0
H1910 H 0.49564 0.74171 0.3163 0.0
H1911 H 0.55738 0.73983 0.29769 0.0
H1912 H 0.36488 0.7258 0.25834 0.0
H1913 H 0.51108 0.7197 0.21227 0.0
H1914 H 0.37904 0.7585 0.27322 0.0
H1915 H 0.40724 0.75058 0.30447 0.0
H1916 H 0.34866 0.74401 0.2875 0.0
H1917 H 0.55711 0.75162 0.21598 0.0
H1918 H 0.57941 0.73509 0.21225 0.0
H1919 H 0.58503 0.74346 0.24701 0.0
C1920 C 0.47365 0.47179 0.99412 0.0
C1921 C 0.52067 0.47161 0.9778 0.0
C1922 C 0.44978 0.48358 0.0021 0.0
C1923 C 0.47304 0.49541 0.99304 0.0
C1924 C 0.5196 0.49523 0.97574 0.0
C1925 C 0.54313 0.48333 0.96857 0.0
C1926 C 0.40055 0.48338 0.02088 0.0
C1927 C 0.54501 0.50762 0.96513 0.0
C1928 C 0.39081 0.52615 0.99134 0.0
C1929 C 0.40958 0.53278 0.01622 0.0
C1930 C 0.41051 0.51389 0.98378 0.0
C1931 C 0.44922 0.50801 0.00185 0.0
C1932 C 0.46701 0.51446 0.02758 0.0
C1933 C 0.44733 0.52685 0.03431 0.0
C1934 C 0.3912 0.50743 0.95591 0.0
C1935 C 0.5076 0.5084 0.04766 0.0
H1936 H 0.45646 0.46274 0.00151 0.0
H1937 H 0.57944 0.48321 0.9559 0.0
H1938 H 0.4083 0.4884 0.04208 0.0
H1939 H 0.3682 0.48871 0.00971 0.0
H1940 H 0.38687 0.47337 0.02565 0.0
H1941 H 0.57973 0.50579 0.95073 0.0
H1942 H 0.5159 0.51351 0.9527 0.0
H1943 H 0.55806 0.51349 0.98428 0.0
H1944 H 0.36183 0.53073 0.97717 0.0
H1945 H 0.46176 0.53193 0.05361 0.0
H1946 H 0.37587 0.4976 0.96089 0.0
H1947 H 0.42459 0.50625 0.94029 0.0
H1948 H 0.35955 0.51308 0.94486 0.0
H1949 H 0.49473 0.49854 0.05429 0.0
H1950 H 0.51448 0.51426 0.06785 0.0
H1951 H 0.54565 0.50734 0.03576 0.0
C1952 C 0.1196 0.33464 0.20056 0.0
C1953 C 0.12395 0.32239 0.21369 0.0
C1954 C 0.12568 0.33615 0.17003 0.0
C1955 C 0.13605 0.32514 0.15237 0.0
C1956 C 0.14251 0.31284 0.16568 0.0
C1957 C 0.1365 0.31162 0.19624 0.0
C1958 C 0.119 0.34943 0.15657 0.0
C1959 C 0.15361 0.30087 0.14752 0.0
C1960 C 0.09114 0.32436 0.07283 0.0
C1961 C 0.13903 0.32594 0.0578 0.0
C1962 C 0.08944 0.32446 0.10369 0.0
C1963 C 0.13677 0.32625 0.1198 0.0
C1964 C 0.18495 0.32833 0.10474 0.0
C1965 C 0.18553 0.32812 0.07384 0.0
C1966 C 0.03729 0.3222 0.11905 0.0
C1967 C 0.23609 0.33035 0.12123 0.0
H1968 H 0.11006 0.343 0.21404 0.0
H1969 H 0.13997 0.30214 0.20632 0.0
H1970 H 0.15289 0.3517 0.14195 0.0
H1971 H 0.08284 0.3496 0.14277 0.0
H1972 H 0.11567 0.35715 0.17356 0.0
H1973 H 0.16057 0.29218 0.16143 0.0
H1974 H 0.11963 0.29889 0.13275 0.0
H1975 H 0.18874 0.30243 0.13334 0.0
H1976 H 0.0551 0.32269 0.0605 0.0
H1977 H 0.22264 0.3294 0.06226 0.0
H1978 H 0.02935 0.33012 0.13501 0.0
H1979 H 0.03901 0.31302 0.13172 0.0
H1980 H 0.00375 0.32163 0.10332 0.0
H1981 H 0.23154 0.3382 0.13776 0.0
H1982 H 0.26932 0.33286 0.10628 0.0
H1983 H 0.24654 0.32139 0.1334 0.0
C1984 C 0.16751 0.93573 0.05504 0.0
C1985 C 0.13322 0.92709 0.04087 0.0
C1986 C 0.17389 0.93537 0.08573 0.0
C1987 C 0.14511 0.92619 0.10245 0.0
C1988 C 0.11264 0.91701 0.08807 0.0
C1989 C 0.10719 0.91755 0.05739 0.0
C1990 C 0.20932 0.94523 0.10037 0.0
C1991 C 0.0814 0.90707 0.10519 0.0
C1992 C 0.18362 0.92065 0.18216 0.0
C1993 C 0.14776 0.92874 0.19689 0.0
C1994 C 0.18307 0.91964 0.15136 0.0
C1995 C 0.14565 0.92685 0.13506 0.0
C1996 C 0.10864 0.93482 0.14987 0.0
C1997 C 0.11021 0.93569 0.18066 0.0
C1998 C 0.22307 0.91105 0.13624 0.0
C1999 C 0.0679 0.94259 0.13315 0.0
H2000 H 0.1878 0.94309 0.0423 0.0
H2001 H 0.08075 0.91081 0.04649 0.0
H2002 H 0.18498 0.95208 0.11346 0.0
H2003 H 0.2369 0.94038 0.11583 0.0
H2004 H 0.2327 0.95088 0.08411 0.0
H2005 H 0.0618 0.8999 0.09055 0.0
H2006 H 0.10744 0.9018 0.12078 0.0
H2007 H 0.05059 0.91202 0.11846 0.0
H2008 H 0.21283 0.91529 0.19467 0.0
H2009 H 0.08247 0.94196 0.192 0.0
H2010 H 0.2486 0.91697 0.12163 0.0
H2011 H 0.2027 0.90383 0.12212 0.0
H2012 H 0.24859 0.90581 0.15219 0.0
H2013 H 0.08786 0.94954 0.11818 0.0
H2014 H 0.04126 0.9481 0.14805 0.0
H2015 H 0.04355 0.93606 0.11926 0.0
C2016 C 0.92606 0.65946 0.79636 0.0
C2017 C 0.87911 0.66414 0.78391 0.0
C2018 C 0.93063 0.65783 0.82696 0.0
C2019 C 0.88754 0.66119 0.84531 0.0
C2020 C 0.83878 0.66491 0.8326 0.0
C2021 C 0.83505 0.66623 0.80198 0.0
C2022 C 0.98272 0.65346 0.8397 0.0
C2023 C 0.79192 0.66863 0.85142 0.0
C2024 C 0.88086 0.65534 0.9277 0.0
C2025 C 0.89549 0.66755 0.93854 0.0
C2026 C 0.88113 0.65279 0.8973 0.0
C2027 C 0.89529 0.66279 0.87749 0.0
C2028 C 0.91226 0.67494 0.88847 0.0
C2029 C 0.91259 0.67713 0.9189 0.0
C2030 C 0.86411 0.63962 0.88639 0.0
C2031 C 0.92728 0.68591 0.86804 0.0
H2032 H 0.96005 0.65768 0.78238 0.0
H2033 H 0.79854 0.66976 0.79241 0.0
H2034 H 0.00401 0.66195 0.84886 0.0
H2035 H 0.97641 0.64649 0.85798 0.0
H2036 H 0.00827 0.64885 0.82276 0.0
H2037 H 0.75548 0.67 0.83814 0.0
H2038 H 0.78421 0.66112 0.86835 0.0
H2039 H 0.80062 0.67783 0.86315 0.0
H2040 H 0.86806 0.64787 0.9429 0.0
H2041 H 0.92402 0.68657 0.92723 0.0
H2042 H 0.89123 0.6361 0.86891 0.0
H2043 H 0.82409 0.64032 0.87657 0.0
H2044 H 0.86288 0.63236 0.90444 0.0
H2045 H 0.95841 0.68271 0.85245 0.0
H2046 H 0.9419 0.69455 0.88017 0.0
H2047 H 0.89242 0.68882 0.85476 0.0
C2048 C 0.9286 0.08061 0.81378 0.0
C2049 C 0.88582 0.07354 0.80258 0.0
C2050 C 0.93358 0.08283 0.84416 0.0
C2051 C 0.89561 0.07754 0.86363 0.0
C2052 C 0.85125 0.07085 0.85227 0.0
C2053 C 0.8466 0.06906 0.8218 0.0
C2054 C 0.9806 0.09032 0.85547 0.0
C2055 C 0.81036 0.06487 0.87237 0.0
C2056 C 0.93755 0.06682 0.93969 0.0
C2057 C 0.91197 0.07593 0.95759 0.0
C2058 C 0.93385 0.0675 0.90897 0.0
C2059 C 0.90484 0.07771 0.89588 0.0
C2060 C 0.88141 0.08736 0.9138 0.0
C2061 C 0.88467 0.08626 0.94458 0.0
C2062 C 0.95869 0.05689 0.89063 0.0
C2063 C 0.85141 0.09857 0.90052 0.0
H2064 H 0.95868 0.0842 0.79885 0.0
H2065 H 0.81351 0.06357 0.81316 0.0
H2066 H 0.96796 0.0976 0.87205 0.0
H2067 H 0.00844 0.08361 0.86655 0.0
H2068 H 0.00206 0.09536 0.83745 0.0
H2069 H 0.77666 0.06066 0.85995 0.0
H2070 H 0.8289 0.05708 0.88567 0.0
H2071 H 0.79483 0.07222 0.88797 0.0
H2072 H 0.95859 0.0588 0.94972 0.0
H2073 H 0.86522 0.09337 0.95845 0.0
H2074 H 0.98553 0.06112 0.87389 0.0
H2075 H 0.92742 0.05151 0.87863 0.0
H2076 H 0.98147 0.0499 0.90422 0.0
H2077 H 0.8748 0.10311 0.8826 0.0
H2078 H 0.84156 0.10608 0.91718 0.0
H2079 H 0.81409 0.095 0.89062 0.0
C2080 C 0.15337 0.81032 0.68706 0.0
C2081 C 0.11638 0.81809 0.70174 0.0
C2082 C 0.15795 0.81071 0.65631 0.0
C2083 C 0.12488 0.81912 0.63999 0.0
C2084 C 0.08819 0.82718 0.65474 0.0
C2085 C 0.08429 0.82655 0.68551 0.0
C2086 C 0.19745 0.80195 0.64125 0.0
C2087 C 0.05254 0.83631 0.63798 0.0
C2088 C 0.1686 0.82705 0.56226 0.0
C2089 C 0.13787 0.81841 0.5457 0.0
C2090 C 0.16393 0.8276 0.593 0.0
C2091 C 0.12798 0.81923 0.6074 0.0
C2092 C 0.09618 0.81065 0.59074 0.0
C2093 C 0.10139 0.81038 0.56001 0.0
C2094 C 0.19817 0.83693 0.6101 0.0
C2095 C 0.05758 0.80155 0.60543 0.0
H2096 H 0.17819 0.80376 0.69956 0.0
H2097 H 0.05568 0.83258 0.69683 0.0
H2098 H 0.17658 0.79519 0.62623 0.0
H2099 H 0.22494 0.80778 0.62759 0.0
H2100 H 0.22096 0.79618 0.65722 0.0
H2101 H 0.0275 0.84226 0.65286 0.0
H2102 H 0.07649 0.84289 0.624 0.0
H2103 H 0.02641 0.8307 0.62305 0.0
H2104 H 0.19673 0.8333 0.55121 0.0
H2105 H 0.07765 0.80367 0.54724 0.0
H2106 H 0.22513 0.83146 0.62482 0.0
H2107 H 0.17326 0.8432 0.6243 0.0
H2108 H 0.22231 0.8432 0.59545 0.0
H2109 H 0.07917 0.79479 0.62014 0.0
H2110 H 0.03463 0.79577 0.58922 0.0
H2111 H 0.02955 0.8071 0.61937 0.0
C2112 C 0.09547 0.41391 0.68248 0.0
C2113 C 0.08824 0.42657 0.69292 0.0
C2114 C 0.0967 0.41132 0.65213 0.0
C2115 C 0.09187 0.4217 0.63197 0.0
C2116 C 0.0825 0.43443 0.64246 0.0
C2117 C 0.08024 0.43668 0.67287 0.0
C2118 C 0.10533 0.39759 0.64169 0.0
C2119 C 0.07779 0.44579 0.62163 0.0
C2120 C 0.16112 0.4211 0.55826 0.0
C2121 C 0.11825 0.42031 0.53884 0.0
C2122 C 0.15328 0.42088 0.58879 0.0
C2123 C 0.10139 0.41961 0.60007 0.0
C2124 C 0.05844 0.41777 0.58056 0.0
C2125 C 0.06734 0.41826 0.55007 0.0
C2126 C 0.20009 0.42295 0.6089 0.0
C2127 C 0.00278 0.41606 0.59184 0.0
H2128 H 0.10122 0.40606 0.69802 0.0
H2129 H 0.07475 0.44648 0.68093 0.0
H2130 H 0.07698 0.39512 0.6239 0.0
H2131 H 0.14567 0.39664 0.63238 0.0
H2132 H 0.10093 0.39045 0.65985 0.0
H2133 H 0.06813 0.45496 0.6333 0.0
H2134 H 0.11561 0.44713 0.60963 0.0
H2135 H 0.04674 0.44391 0.60494 0.0
H2136 H 0.20057 0.42266 0.54964 0.0
H2137 H 0.03414 0.41754 0.53506 0.0
H2138 H 0.20122 0.4154 0.62626 0.0
H2139 H 0.19628 0.43247 0.6201 0.0
H2140 H 0.23819 0.42278 0.59674 0.0
H2141 H 0.00185 0.40902 0.61031 0.0
H2142 H 0.9755 0.41268 0.57427 0.0
H2143 H 0.9879 0.42544 0.60042 0.0
C2144 C 0.89682 0.17821 0.31642 0.0
C2145 C 0.8617 0.17187 0.29745 0.0
C2146 C 0.89311 0.17666 0.34697 0.0
C2147 C 0.85426 0.16826 0.35873 0.0
C2148 C 0.82071 0.16122 0.33958 0.0
C2149 C 0.82425 0.16327 0.30905 0.0
C2150 C 0.92891 0.18456 0.36666 0.0
C2151 C 0.78002 0.15188 0.35137 0.0
C2152 C 0.87697 0.16114 0.43953 0.0
C2153 C 0.84343 0.17023 0.45275 0.0
C2154 C 0.8781 0.15966 0.4088 0.0
C2155 C 0.84628 0.16781 0.39107 0.0
C2156 C 0.81088 0.17666 0.40446 0.0
C2157 C 0.80935 0.17762 0.43523 0.0
C2158 C 0.91504 0.14983 0.39529 0.0
C2159 C 0.77724 0.18575 0.38632 0.0
H2160 H 0.92565 0.18491 0.30746 0.0
H2161 H 0.79734 0.15829 0.29431 0.0
H2162 H 0.90483 0.19126 0.38033 0.0
H2163 H 0.95084 0.17813 0.38193 0.0
H2164 H 0.95793 0.19039 0.35394 0.0
H2165 H 0.7622 0.14589 0.3336 0.0
H2166 H 0.79804 0.14535 0.36799 0.0
H2167 H 0.74798 0.15733 0.36252 0.0
H2168 H 0.90298 0.15534 0.45318 0.0
H2169 H 0.78358 0.18471 0.44549 0.0
H2170 H 0.94906 0.15489 0.38503 0.0
H2171 H 0.89469 0.1443 0.37765 0.0
H2172 H 0.93048 0.14291 0.41194 0.0
H2173 H 0.80311 0.19254 0.374 0.0
H2174 H 0.74963 0.19152 0.40013 0.0
H2175 H 0.75393 0.18024 0.36986 0.0
C2176 C 0.89243 0.56311 0.44006 0.0
C2177 C 0.89592 0.57353 0.45978 0.0
C2178 C 0.88414 0.56521 0.40995 0.0
C2179 C 0.87862 0.57804 0.39934 0.0
C2180 C 0.88057 0.58859 0.41924 0.0
C2181 C 0.88954 0.58621 0.44931 0.0
C2182 C 0.88263 0.55369 0.38938 0.0
C2183 C 0.87415 0.60237 0.4087 0.0
C2184 C 0.91315 0.58104 0.31856 0.0
C2185 C 0.86348 0.57952 0.3054 0.0
C2186 C 0.91839 0.58137 0.34931 0.0
C2187 C 0.87279 0.58024 0.36719 0.0
C2188 C 0.82223 0.57964 0.35398 0.0
C2189 C 0.81817 0.57923 0.32316 0.0
C2190 C 0.97303 0.58202 0.36259 0.0
C2191 C 0.77266 0.57859 0.37234 0.0
H2192 H 0.89744 0.55329 0.44806 0.0
H2193 H 0.89207 0.59428 0.46455 0.0
H2194 H 0.8449 0.55358 0.37696 0.0
H2195 H 0.91508 0.55444 0.37302 0.0
H2196 H 0.88672 0.54433 0.40127 0.0
H2197 H 0.87331 0.60942 0.42722 0.0
H2198 H 0.90726 0.60495 0.39379 0.0
H2199 H 0.8371 0.60336 0.39584 0.0
H2200 H 0.94827 0.58133 0.3049 0.0
H2201 H 0.77962 0.57816 0.31305 0.0
H2202 H 0.98279 0.57255 0.37283 0.0
H2203 H 0.97459 0.58945 0.38022 0.0
H2204 H 0.00373 0.58429 0.34587 0.0
H2205 H 0.77068 0.56883 0.38254 0.0
H2206 H 0.7364 0.58007 0.35897 0.0
H2207 H 0.77315 0.5858 0.39048 0.0
C2208 C 0.60502 0.33491 0.5476 0.0
C2209 C 0.59766 0.32227 0.53702 0.0
C2210 C 0.60476 0.33749 0.57798 0.0
C2211 C 0.59766 0.32714 0.59805 0.0
C2212 C 0.58771 0.31448 0.58739 0.0
C2213 C 0.58753 0.31222 0.55698 0.0
C2214 C 0.61454 0.35114 0.58859 0.0
C2215 C 0.58015 0.30317 0.60812 0.0
C2216 C 0.66239 0.32739 0.67308 0.0
C2217 C 0.61863 0.32885 0.69169 0.0
C2218 C 0.65638 0.32745 0.64241 0.0
C2219 C 0.60546 0.32917 0.63012 0.0
C2220 C 0.56166 0.33149 0.64877 0.0
C2221 C 0.56872 0.33122 0.67944 0.0
C2222 C 0.70405 0.32489 0.62323 0.0
C2223 C 0.50697 0.33358 0.63641 0.0
H2224 H 0.61254 0.34272 0.5322 0.0
H2225 H 0.58168 0.30244 0.54889 0.0
H2226 H 0.58546 0.35385 0.60583 0.0
H2227 H 0.65439 0.35176 0.59866 0.0
H2228 H 0.61224 0.35831 0.57037 0.0
H2229 H 0.56952 0.29411 0.59629 0.0
H2230 H 0.61717 0.30145 0.62062 0.0
H2231 H 0.54869 0.30536 0.62439 0.0
H2232 H 0.70107 0.32559 0.68248 0.0
H2233 H 0.53484 0.33245 0.69379 0.0
H2234 H 0.70743 0.3324 0.60586 0.0
H2235 H 0.69943 0.3154 0.612 0.0
H2236 H 0.74137 0.32471 0.6361 0.0
H2237 H 0.50802 0.3407 0.6181 0.0
H2238 H 0.47884 0.33707 0.65346 0.0
H2239 H 0.49178 0.32433 0.62729 0.0
C2240 C 0.60145 0.91452 0.55262 0.0
C2241 C 0.64441 0.92166 0.54182 0.0
C2242 C 0.59384 0.91293 0.58303 0.0
C2243 C 0.62979 0.91874 0.60292 0.0
C2244 C 0.67505 0.92523 0.59206 0.0
C2245 C 0.68196 0.92655 0.56158 0.0
C2246 C 0.54568 0.90573 0.59384 0.0
C2247 C 0.71432 0.93155 0.61259 0.0
C2248 C 0.5825 0.9312 0.67679 0.0
C2249 C 0.60559 0.92229 0.69616 0.0
C2250 C 0.5884 0.92985 0.64624 0.0
C2251 C 0.61763 0.91926 0.63488 0.0
C2252 C 0.63857 0.90985 0.65428 0.0
C2253 C 0.63255 0.91152 0.68478 0.0
C2254 C 0.56558 0.94011 0.62621 0.0
C2255 C 0.66925 0.89833 0.64292 0.0
H2256 H 0.57248 0.91066 0.53737 0.0
H2257 H 0.71533 0.93204 0.55332 0.0
H2258 H 0.55643 0.89892 0.61177 0.0
H2259 H 0.51681 0.91274 0.60303 0.0
H2260 H 0.52609 0.90021 0.57588 0.0
H2261 H 0.74957 0.93527 0.60071 0.0
H2262 H 0.69511 0.93978 0.62416 0.0
H2263 H 0.72758 0.92458 0.62965 0.0
H2264 H 0.56159 0.93953 0.68553 0.0
H2265 H 0.65019 0.90456 0.69973 0.0
H2266 H 0.54061 0.93558 0.60898 0.0
H2267 H 0.59808 0.94531 0.61484 0.0
H2268 H 0.54137 0.94731 0.63843 0.0
H2269 H 0.64738 0.8935 0.62481 0.0
H2270 H 0.67728 0.89112 0.66052 0.0
H2271 H 0.70756 0.90165 0.63376 0.0
C2272 C 0.31687 0.66251 0.43917 0.0
C2273 C 0.35494 0.66927 0.45543 0.0
C2274 C 0.31949 0.66207 0.40832 0.0
C2275 C 0.35994 0.66897 0.39359 0.0
C2276 C 0.39935 0.67549 0.41003 0.0
C2277 C 0.39683 0.67537 0.44085 0.0
C2278 C 0.27791 0.65464 0.39148 0.0
C2279 C 0.44226 0.68327 0.39512 0.0
C2280 C 0.39167 0.66464 0.31254 0.0
C2281 C 0.36267 0.6748 0.30005 0.0
C2282 C 0.38916 0.66219 0.34291 0.0
C2283 C 0.35856 0.67042 0.36111 0.0
C2284 C 0.32882 0.68063 0.34845 0.0
C2285 C 0.33053 0.68254 0.31792 0.0
C2286 C 0.41987 0.65095 0.35557 0.0
C2287 C 0.29692 0.68985 0.36724 0.0
H2288 H 0.28467 0.65772 0.45058 0.0
H2289 H 0.42599 0.68069 0.4535 0.0
H2290 H 0.25107 0.66152 0.38017 0.0
H2291 H 0.29656 0.64851 0.37426 0.0
H2292 H 0.25385 0.64836 0.40615 0.0
H2293 H 0.47113 0.68731 0.41111 0.0
H2294 H 0.46387 0.67718 0.37899 0.0
H2295 H 0.42423 0.69142 0.38272 0.0
H2296 H 0.41619 0.65861 0.29854 0.0
H2297 H 0.30845 0.69046 0.30817 0.0
H2298 H 0.3939 0.64495 0.36976 0.0
H2299 H 0.4524 0.65463 0.36964 0.0
H2300 H 0.43715 0.6447 0.33811 0.0
H2301 H 0.26734 0.68442 0.38036 0.0
H2302 H 0.27594 0.69725 0.35387 0.0
H2303 H 0.32335 0.6949 0.38303 0.0
C2304 C 0.32584 0.08555 0.42614 0.0
C2305 C 0.36951 0.07876 0.43717 0.0
C2306 C 0.31916 0.08727 0.39568 0.0
C2307 C 0.35639 0.08179 0.376 0.0
C2308 C 0.40152 0.07535 0.38715 0.0
C2309 C 0.40778 0.07403 0.41764 0.0
C2310 C 0.2713 0.09448 0.38454 0.0
C2311 C 0.44174 0.0692 0.36688 0.0
C2312 C 0.31424 0.06973 0.30104 0.0
C2313 C 0.33976 0.07853 0.28234 0.0
C2314 C 0.31745 0.07103 0.33168 0.0
C2315 C 0.34595 0.08154 0.34385 0.0
C2316 C 0.36886 0.09094 0.32507 0.0
C2317 C 0.36604 0.08924 0.29442 0.0
C2318 C 0.29315 0.06068 0.35095 0.0
C2319 C 0.39835 0.10246 0.33733 0.0
H2320 H 0.29646 0.08932 0.44127 0.0
H2321 H 0.44161 0.06878 0.42613 0.0
H2322 H 0.28289 0.10159 0.36735 0.0
H2323 H 0.24334 0.08755 0.37424 0.0
H2324 H 0.25035 0.09969 0.40252 0.0
H2325 H 0.47592 0.06511 0.37911 0.0
H2326 H 0.42282 0.06128 0.35413 0.0
H2327 H 0.45666 0.07641 0.35081 0.0
H2328 H 0.29389 0.06144 0.29175 0.0
H2329 H 0.38541 0.09612 0.27995 0.0
H2330 H 0.26709 0.06513 0.36779 0.0
H2331 H 0.32483 0.05539 0.36283 0.0
H2332 H 0.26971 0.05356 0.33805 0.0
H2333 H 0.37541 0.10708 0.35534 0.0
H2334 H 0.40675 0.10983 0.32012 0.0
H2335 H 0.43646 0.09919 0.34684 0.0
C2336 C 0.59269 0.81663 0.07509 0.0
C2337 C 0.63559 0.81857 0.05611 0.0
C2338 C 0.59873 0.81775 0.10567 0.0
C2339 C 0.64877 0.82102 0.11746 0.0
C2340 C 0.69183 0.82343 0.09835 0.0
C2341 C 0.68479 0.8221 0.06782 0.0
C2342 C 0.55192 0.81504 0.12539 0.0
C2343 C 0.74555 0.82707 0.11018 0.0
C2344 C 0.64452 0.83188 0.19719 0.0
C2345 C 0.65542 0.82024 0.21186 0.0
C2346 C 0.64506 0.83249 0.1663 0.0
C2347 C 0.65627 0.82116 0.14988 0.0
C2348 C 0.67 0.80956 0.16463 0.0
C2349 C 0.66964 0.80926 0.19549 0.0
C2350 C 0.63098 0.84508 0.15128 0.0
C2351 C 0.68205 0.79726 0.14787 0.0
H2352 H 0.5546 0.81391 0.06611 0.0
H2353 H 0.71799 0.82367 0.05316 0.0
H2354 H 0.56046 0.80652 0.13954 0.0
H2355 H 0.54461 0.8234 0.1402 0.0
H2356 H 0.51531 0.81305 0.11267 0.0
H2357 H 0.77373 0.82963 0.09232 0.0
H2358 H 0.74215 0.83542 0.12548 0.0
H2359 H 0.76219 0.81886 0.12291 0.0
H2360 H 0.63378 0.84041 0.2098 0.0
H2361 H 0.67822 0.80024 0.20675 0.0
H2362 H 0.59163 0.84416 0.14072 0.0
H2363 H 0.6599 0.84732 0.13362 0.0
H2364 H 0.6297 0.85333 0.16699 0.0
H2365 H 0.6459 0.79388 0.13635 0.0
H2366 H 0.69611 0.78936 0.16254 0.0
H2367 H 0.71254 0.79908 0.13081 0.0
C2368 C 0.66731 0.43626 0.07342 0.0
C2369 C 0.62191 0.43174 0.05907 0.0
C2370 C 0.67243 0.43524 0.1041 0.0
C2371 C 0.6311 0.42959 0.12074 0.0
C2372 C 0.58554 0.42482 0.10631 0.0
C2373 C 0.58149 0.42595 0.07559 0.0
C2374 C 0.72166 0.44043 0.11876 0.0
C2375 C 0.54071 0.41874 0.12336 0.0
C2376 C 0.6658 0.41861 0.19814 0.0
C2377 C 0.6493 0.42928 0.2149 0.0
C2378 C 0.65888 0.41841 0.16746 0.0
C2379 C 0.63491 0.42914 0.15336 0.0
C2380 C 0.61666 0.43974 0.17031 0.0
C2381 C 0.62409 0.43969 0.20091 0.0
C2382 C 0.67868 0.40692 0.15006 0.0
C2383 C 0.59073 0.45134 0.15604 0.0
H2384 H 0.69868 0.44072 0.06072 0.0
H2385 H 0.54633 0.42243 0.06455 0.0
H2386 H 0.71105 0.44842 0.13403 0.0
H2387 H 0.74063 0.43271 0.1321 0.0
H2388 H 0.7509 0.44413 0.10256 0.0
H2389 H 0.50899 0.41503 0.1087 0.0
H2390 H 0.55565 0.41061 0.13702 0.0
H2391 H 0.52331 0.42598 0.13862 0.0
H2392 H 0.68528 0.41054 0.2089 0.0
H2393 H 0.61118 0.44795 0.2138 0.0
H2394 H 0.71119 0.41001 0.13524 0.0
H2395 H 0.64668 0.403 0.13593 0.0
H2396 H 0.6935 0.39903 0.16451 0.0
H2397 H 0.61936 0.45625 0.14127 0.0
H2398 H 0.57629 0.45848 0.1725 0.0
H2399 H 0.5569 0.44819 0.14225 0.0
C2400 C 0.37321 0.16514 0.79153 0.0
C2401 C 0.36833 0.17793 0.78144 0.0
C2402 C 0.36922 0.16225 0.82165 0.0
C2403 C 0.36074 0.17242 0.84202 0.0
C2404 C 0.35419 0.18529 0.83183 0.0
C2405 C 0.35781 0.18788 0.80161 0.0
C2406 C 0.37565 0.1484 0.83175 0.0
C2407 C 0.34524 0.1964 0.85294 0.0
C2408 C 0.31382 0.16794 0.92045 0.0
C2409 C 0.3608 0.16999 0.93614 0.0
C2410 C 0.31365 0.16779 0.88956 0.0
C2411 C 0.36151 0.16986 0.87417 0.0
C2412 C 0.40956 0.171 0.88992 0.0
C2413 C 0.40865 0.17099 0.92079 0.0
C2414 C 0.2618 0.16631 0.87349 0.0
C2415 C 0.46144 0.17321 0.87425 0.0
H2416 H 0.38113 0.15742 0.77594 0.0
H2417 H 0.35404 0.19777 0.79387 0.0
H2418 H 0.41275 0.14743 0.84456 0.0
H2419 H 0.34266 0.14562 0.84655 0.0
H2420 H 0.37703 0.14149 0.81297 0.0
H2421 H 0.3392 0.20577 0.84134 0.0
H2422 H 0.31018 0.19446 0.86692 0.0
H2423 H 0.37977 0.19739 0.86783 0.0
H2424 H 0.27678 0.16705 0.93228 0.0
H2425 H 0.44508 0.17252 0.93285 0.0
H2426 H 0.26588 0.15944 0.85481 0.0
H2427 H 0.24978 0.17581 0.8642 0.0
H2428 H 0.22981 0.16283 0.88827 0.0
H2429 H 0.46677 0.16605 0.85627 0.0
H2430 H 0.49572 0.17255 0.88946 0.0
H2431 H 0.46137 0.18299 0.86406 0.0
C2432 C 0.34287 0.58773 0.92414 0.0
C2433 C 0.37947 0.58001 0.93922 0.0
C2434 C 0.34374 0.58851 0.89328 0.0
C2435 C 0.38095 0.58105 0.8773 0.0
C2436 C 0.41928 0.57365 0.89256 0.0
C2437 C 0.41853 0.57338 0.92341 0.0
C2438 C 0.30339 0.59684 0.87775 0.0
C2439 C 0.45885 0.56532 0.87633 0.0
C2440 C 0.34283 0.56782 0.80259 0.0
C2441 C 0.37598 0.57489 0.78385 0.0
C2442 C 0.34309 0.57 0.83303 0.0
C2443 C 0.37628 0.57974 0.84486 0.0
C2444 C 0.40764 0.58742 0.82583 0.0
C2445 C 0.40775 0.58476 0.79548 0.0
C2446 C 0.30987 0.56141 0.85264 0.0
C2447 C 0.44222 0.59815 0.83762 0.0
H2448 H 0.31294 0.59295 0.93645 0.0
H2449 H 0.4467 0.56735 0.93509 0.0
H2450 H 0.32241 0.60262 0.86008 0.0
H2451 H 0.27326 0.59057 0.86718 0.0
H2452 H 0.28297 0.60353 0.8932 0.0
H2453 H 0.48791 0.56075 0.89144 0.0
H2454 H 0.43777 0.55754 0.86422 0.0
H2455 H 0.48063 0.57116 0.85982 0.0
H2456 H 0.31842 0.56013 0.79363 0.0
H2457 H 0.43312 0.59029 0.78091 0.0
H2458 H 0.28345 0.56738 0.86663 0.0
H2459 H 0.33589 0.55579 0.86761 0.0
H2460 H 0.28526 0.5545 0.83984 0.0
H2461 H 0.41951 0.60439 0.85299 0.0
H2462 H 0.45867 0.60427 0.81971 0.0
H2463 H 0.47557 0.59393 0.85024 0.0
loop_
_geom_bond_atom_site_label_1
_geom_bond_atom_site_label_2
_geom_bond_distance
_geom_bond_site_symmetry_2
_ccdc_geom_bond_type
In0 O1 2.294 . S
In0 O2 2.326 . S
In0 O6 2.266 . S
In0 O7 2.326 . S
In0 O8 2.266 . S
In0 O9 2.326 . S
In0 O11 2.294 . S
In0 O12 2.326 . S
O1 In0 2.294 . S
O1 C10 1.240 . S
O2 In0 2.326 . S
O2 C10 1.252 . S
C3 O6 1.252 . S
C3 O7 1.260 . S
C4 O11 1.240 . S
C4 O12 1.252 . S
C5 O8 1.252 . S
C5 O9 1.260 . S
O6 In0 2.266 . S
O6 C3 1.252 . S
O7 In0 2.326 . S
O7 C3 1.260 . S
O8 In0 2.266 . S
O8 C5 1.252 . S
O9 In0 2.326 . S
O9 C5 1.260 . S
C10 O1 1.240 . S
C10 O2 1.252 . S
O11 In0 2.294 . S
O11 C4 1.240 . S
O12 In0 2.326 . S
O12 C4 1.252 . S
In13 O14 2.294 . S
In13 O15 2.326 . S
In13 O19 2.266 . S
In13 O20 2.326 . S
In13 O21 2.266 . S
In13 O22 2.326 . S
In13 O24 2.294 . S
In13 O25 2.326 . S
O14 In13 2.294 . S
O14 C23 1.240 . S
O15 In13 2.326 . S
O15 C23 1.252 . S
C16 O19 1.252 . S
C16 O20 1.260 . S
C17 O24 1.240 . S
C17 O25 1.252 . S
C18 O21 1.252 . S
C18 O22 1.260 . S
O19 In13 2.266 . S
O19 C16 1.252 . S
O20 In13 2.326 . S
O20 C16 1.260 . S
O21 In13 2.266 . S
O21 C18 1.252 . S
O22 In13 2.326 . S
O22 C18 1.260 . S
C23 O14 1.240 . S
C23 O15 1.252 . S
O24 In13 2.294 . S
O24 C17 1.240 . S
O25 In13 2.326 . S
O25 C17 1.252 . S
In26 O27 2.294 . S
In26 O28 2.326 . S
In26 O32 2.266 . S
In26 O33 2.326 . S
In26 O34 2.266 1_556 S
In26 O35 2.326 1_556 S
In26 O37 2.294 . S
In26 O38 2.326 . S
O27 In26 2.294 . S
O27 C36 1.240 . S
O28 In26 2.326 . S
O28 C36 1.252 . S
C29 O32 1.252 . S
C29 O33 1.260 . S
C30 O37 1.240 . S
C30 O38 1.252 . S
C31 O34 1.252 . S
C31 O35 1.260 . S
O32 In26 2.266 . S
O32 C29 1.252 . S
O33 In26 2.326 . S
O33 C29 1.260 . S
O34 In26 2.266 1_554 S
O34 C31 1.252 . S
O35 In26 2.326 1_554 S
O35 C31 1.260 . S
C36 O27 1.240 . S
C36 O28 1.252 . S
O37 In26 2.294 . S
O37 C30 1.240 . S
O38 In26 2.326 . S
O38 C30 1.252 . S
In39 O40 2.294 . S
In39 O41 2.326 . S
In39 O45 2.266 1_556 S
In39 O46 2.326 1_556 S
In39 O47 2.266 . S
In39 O48 2.326 . S
In39 O50 2.294 . S
In39 O51 2.326 . S
O40 In39 2.294 . S
O40 C49 1.240 . S
O41 In39 2.326 . S
O41 C49 1.252 . S
C42 O45 1.252 . S
C42 O46 1.260 . S
C43 O50 1.240 . S
C43 O51 1.252 . S
C44 O47 1.252 . S
C44 O48 1.260 . S
O45 In39 2.266 1_554 S
O45 C42 1.252 . S
O46 In39 2.326 1_554 S
O46 C42 1.260 . S
O47 In39 2.266 . S
O47 C44 1.252 . S
O48 In39 2.326 . S
O48 C44 1.260 . S
C49 O40 1.240 . S
C49 O41 1.252 . S
O50 In39 2.294 . S
O50 C43 1.240 . S
O51 In39 2.326 . S
O51 C43 1.252 . S
In52 O53 2.294 . S
In52 O54 2.326 . S
In52 O58 2.266 . S
In52 O59 2.326 . S
In52 O60 2.266 . S
In52 O61 2.326 . S
In52 O63 2.294 . S
In52 O64 2.326 . S
O53 In52 2.294 . S
O53 C62 1.240 . S
O54 In52 2.326 . S
O54 C62 1.252 . S
C55 O58 1.252 . S
C55 O59 1.260 . S
C56 O63 1.240 . S
C56 O64 1.252 . S
C57 O60 1.252 . S
C57 O61 1.260 . S
O58 In52 2.266 . S
O58 C55 1.252 . S
O59 In52 2.326 . S
O59 C55 1.260 . S
O60 In52 2.266 . S
O60 C57 1.252 . S
O61 In52 2.326 . S
O61 C57 1.260 . S
C62 O53 1.240 . S
C62 O54 1.252 . S
O63 In52 2.294 . S
O63 C56 1.240 . S
O64 In52 2.326 . S
O64 C56 1.252 . S
In65 O66 2.294 . S
In65 O67 2.326 . S
In65 O71 2.266 . S
In65 O72 2.326 . S
In65 O73 2.266 . S
In65 O74 2.326 . S
In65 O76 2.294 . S
In65 O77 2.326 . S
O66 In65 2.294 . S
O66 C75 1.240 . S
O67 In65 2.326 . S
O67 C75 1.252 . S
C68 O71 1.252 . S
C68 O72 1.260 . S
C69 O76 1.240 . S
C69 O77 1.252 . S
C70 O73 1.252 . S
C70 O74 1.260 . S
O71 In65 2.266 . S
O71 C68 1.252 . S
O72 In65 2.326 . S
O72 C68 1.260 . S
O73 In65 2.266 . S
O73 C70 1.252 . S
O74 In65 2.326 . S
O74 C70 1.260 . S
C75 O66 1.240 . S
C75 O67 1.252 . S
O76 In65 2.294 . S
O76 C69 1.240 . S
O77 In65 2.326 . S
O77 C69 1.252 . S
In78 O79 2.294 . S
In78 O80 2.326 . S
In78 O84 2.266 1_554 S
In78 O85 2.326 1_554 S
In78 O86 2.266 . S
In78 O87 2.326 . S
In78 O89 2.294 . S
In78 O90 2.326 . S
O79 In78 2.294 . S
O79 C88 1.240 . S
O80 In78 2.326 . S
O80 C88 1.252 . S
C81 O84 1.252 . S
C81 O85 1.260 . S
C82 O89 1.240 . S
C82 O90 1.252 . S
C83 O86 1.252 . S
C83 O87 1.260 . S
O84 In78 2.266 1_556 S
O84 C81 1.252 . S
O85 In78 2.326 1_556 S
O85 C81 1.260 . S
O86 In78 2.266 . S
O86 C83 1.252 . S
O87 In78 2.326 . S
O87 C83 1.260 . S
C88 O79 1.240 . S
C88 O80 1.252 . S
O89 In78 2.294 . S
O89 C82 1.240 . S
O90 In78 2.326 . S
O90 C82 1.252 . S
In91 O92 2.294 . S
In91 O93 2.326 . S
In91 O97 2.266 1_554 S
In91 O98 2.326 1_554 S
In91 O99 2.266 . S
In91 O100 2.326 . S
In91 O102 2.294 . S
In91 O103 2.326 . S
O92 In91 2.294 . S
O92 C101 1.240 . S
O93 In91 2.326 . S
O93 C101 1.252 . S
C94 O97 1.252 . S
C94 O98 1.260 . S
C95 O102 1.240 . S
C95 O103 1.252 . S
C96 O99 1.252 . S
C96 O100 1.260 . S
O97 In91 2.266 1_556 S
O97 C94 1.252 . S
O98 In91 2.326 1_556 S
O98 C94 1.260 . S
O99 In91 2.266 . S
O99 C96 1.252 . S
O100 In91 2.326 . S
O100 C96 1.260 . S
C101 O92 1.240 . S
C101 O93 1.252 . S
O102 In91 2.294 . S
O102 C95 1.240 . S
O103 In91 2.326 . S
O103 C95 1.252 . S
In104 O105 2.294 . S
In104 O106 2.326 . S
In104 O110 2.266 . S
In104 O111 2.326 . S
In104 O112 2.266 . S
In104 O113 2.326 . S
In104 O115 2.294 . S
In104 O116 2.326 . S
O105 In104 2.294 . S
O105 C114 1.240 . S
O106 In104 2.326 . S
O106 C114 1.252 . S
C107 O110 1.252 . S
C107 O111 1.260 . S
C108 O115 1.240 . S
C108 O116 1.252 . S
C109 O112 1.252 . S
C109 O113 1.260 . S
O110 In104 2.266 . S
O110 C107 1.252 . S
O111 In104 2.326 . S
O111 C107 1.260 . S
O112 In104 2.266 . S
O112 C109 1.252 . S
O113 In104 2.326 . S
O113 C109 1.260 . S
C114 O105 1.240 . S
C114 O106 1.252 . S
O115 In104 2.294 . S
O115 C108 1.240 . S
O116 In104 2.326 . S
O116 C108 1.252 . S
In117 O118 2.294 . S
In117 O119 2.326 . S
In117 O123 2.266 . S
In117 O124 2.326 . S
In117 O125 2.266 . S
In117 O126 2.326 . S
In117 O128 2.294 . S
In117 O129 2.326 . S
O118 In117 2.294 . S
O118 C127 1.240 . S
O119 In117 2.326 . S
O119 C127 1.252 . S
C120 O123 1.252 . S
C120 O124 1.260 . S
C121 O128 1.240 . S
C121 O129 1.252 . S
C122 O125 1.252 . S
C122 O126 1.260 . S
O123 In117 2.266 . S
O123 C120 1.252 . S
O124 In117 2.326 . S
O124 C120 1.260 . S
O125 In117 2.266 . S
O125 C122 1.252 . S
O126 In117 2.326 . S
O126 C122 1.260 . S
C127 O118 1.240 . S
C127 O119 1.252 . S
O128 In117 2.294 . S
O128 C121 1.240 . S
O129 In117 2.326 . S
O129 C121 1.252 . S
In130 O131 2.294 . S
In130 O132 2.326 . S
In130 O136 2.266 . S
In130 O137 2.326 . S
In130 O138 2.266 . S
In130 O139 2.326 . S
In130 O141 2.294 . S
In130 O142 2.326 . S
O131 In130 2.294 . S
O131 C140 1.240 . S
O132 In130 2.326 . S
O132 C140 1.252 . S
C133 O136 1.252 . S
C133 O137 1.260 . S
C134 O141 1.240 . S
C134 O142 1.252 . S
C135 O138 1.252 . S
C135 O139 1.260 . S
O136 In130 2.266 . S
O136 C133 1.252 . S
O137 In130 2.326 . S
O137 C133 1.260 . S
O138 In130 2.266 . S
O138 C135 1.252 . S
O139 In130 2.326 . S
O139 C135 1.260 . S
C140 O131 1.240 . S
C140 O132 1.252 . S
O141 In130 2.294 . S
O141 C134 1.240 . S
O142 In130 2.326 . S
O142 C134 1.252 . S
In143 O144 2.294 . S
In143 O145 2.326 . S
In143 O149 2.266 . S
In143 O150 2.326 . S
In143 O151 2.266 . S
In143 O152 2.326 . S
In143 O154 2.294 . S
In143 O155 2.326 . S
O144 In143 2.294 . S
O144 C153 1.240 . S
O145 In143 2.326 . S
O145 C153 1.252 . S
C146 O149 1.252 . S
C146 O150 1.260 . S
C147 O154 1.240 . S
C147 O155 1.252 . S
C148 O151 1.252 . S
C148 O152 1.260 . S
O149 In143 2.266 . S
O149 C146 1.252 . S
O150 In143 2.326 . S
O150 C146 1.260 . S
O151 In143 2.266 . S
O151 C148 1.252 . S
O152 In143 2.326 . S
O152 C148 1.260 . S
C153 O144 1.240 . S
C153 O145 1.252 . S
O154 In143 2.294 . S
O154 C147 1.240 . S
O155 In143 2.326 . S
O155 C147 1.252 . S
In156 O157 2.294 . S
In156 O158 2.326 . S
In156 O162 2.266 . S
In156 O163 2.326 . S
In156 O164 2.266 . S
In156 O165 2.326 . S
In156 O167 2.294 . S
In156 O168 2.326 . S
O157 In156 2.294 . S
O157 C166 1.240 . S
O158 In156 2.326 . S
O158 C166 1.252 . S
C159 O162 1.252 . S
C159 O163 1.260 . S
C160 O167 1.240 . S
C160 O168 1.252 . S
C161 O164 1.252 . S
C161 O165 1.260 . S
O162 In156 2.266 . S
O162 C159 1.252 . S
O163 In156 2.326 . S
O163 C159 1.260 . S
O164 In156 2.266 . S
O164 C161 1.252 . S
O165 In156 2.326 . S
O165 C161 1.260 . S
C166 O157 1.240 . S
C166 O158 1.252 . S
O167 In156 2.294 . S
O167 C160 1.240 . S
O168 In156 2.326 . S
O168 C160 1.252 . S
In169 O170 2.294 . S
In169 O171 2.326 . S
In169 O175 2.266 . S
In169 O176 2.326 . S
In169 O177 2.266 . S
In169 O178 2.326 . S
In169 O180 2.294 . S
In169 O181 2.326 . S
O170 In169 2.294 . S
O170 C179 1.240 . S
O171 In169 2.326 . S
O171 C179 1.252 . S
C172 O175 1.252 . S
C172 O176 1.260 . S
C173 O180 1.240 . S
C173 O181 1.252 . S
C174 O177 1.252 . S
C174 O178 1.260 . S
O175 In169 2.266 . S
O175 C172 1.252 . S
O176 In169 2.326 . S
O176 C172 1.260 . S
O177 In169 2.266 . S
O177 C174 1.252 . S
O178 In169 2.326 . S
O178 C174 1.260 . S
C179 O170 1.240 . S
C179 O171 1.252 . S
O180 In169 2.294 . S
O180 C173 1.240 . S
O181 In169 2.326 . S
O181 C173 1.252 . S
In182 O183 2.294 . S
In182 O184 2.326 . S
In182 O188 2.266 . S
In182 O189 2.326 . S
In182 O190 2.266 . S
In182 O191 2.326 . S
In182 O193 2.294 . S
In182 O194 2.326 . S
O183 In182 2.294 . S
O183 C192 1.240 . S
O184 In182 2.326 . S
O184 C192 1.252 . S
C185 O188 1.252 . S
C185 O189 1.260 . S
C186 O193 1.240 . S
C186 O194 1.252 . S
C187 O190 1.252 . S
C187 O191 1.260 . S
O188 In182 2.266 . S
O188 C185 1.252 . S
O189 In182 2.326 . S
O189 C185 1.260 . S
O190 In182 2.266 . S
O190 C187 1.252 . S
O191 In182 2.326 . S
O191 C187 1.260 . S
C192 O183 1.240 . S
C192 O184 1.252 . S
O193 In182 2.294 . S
O193 C186 1.240 . S
O194 In182 2.326 . S
O194 C186 1.252 . S
In195 O196 2.294 . S
In195 O197 2.326 . S
In195 O201 2.266 . S
In195 O202 2.326 . S
In195 O203 2.266 . S
In195 O204 2.326 . S
In195 O206 2.294 . S
In195 O207 2.326 . S
O196 In195 2.294 . S
O196 C205 1.240 . S
O197 In195 2.326 . S
O197 C205 1.252 . S
C198 O201 1.252 . S
C198 O202 1.260 . S
C199 O206 1.240 . S
C199 O207 1.252 . S
C200 O203 1.252 . S
C200 O204 1.260 . S
O201 In195 2.266 . S
O201 C198 1.252 . S
O202 In195 2.326 . S
O202 C198 1.260 . S
O203 In195 2.266 . S
O203 C200 1.252 . S
O204 In195 2.326 . S
O204 C200 1.260 . S
C205 O196 1.240 . S
C205 O197 1.252 . S
O206 In195 2.294 . S
O206 C199 1.240 . S
O207 In195 2.326 . S
O207 C199 1.252 . S
In208 O209 2.294 . S
In208 O210 2.326 . S
In208 O214 2.266 . S
In208 O215 2.326 . S
In208 O216 2.266 . S
In208 O217 2.326 . S
In208 O219 2.294 . S
In208 O220 2.326 . S
O209 In208 2.294 . S
O209 C218 1.240 . S
O210 In208 2.326 . S
O210 C218 1.252 . S
C211 O214 1.252 . S
C211 O215 1.260 . S
C212 O219 1.240 . S
C212 O220 1.252 . S
C213 O216 1.252 . S
C213 O217 1.260 . S
O214 In208 2.266 . S
O214 C211 1.252 . S
O215 In208 2.326 . S
O215 C211 1.260 . S
O216 In208 2.266 . S
O216 C213 1.252 . S
O217 In208 2.326 . S
O217 C213 1.260 . S
C218 O209 1.240 . S
C218 O210 1.252 . S
O219 In208 2.294 . S
O219 C212 1.240 . S
O220 In208 2.326 . S
O220 C212 1.252 . S
In221 O222 2.294 . S
In221 O223 2.326 . S
In221 O227 2.266 . S
In221 O228 2.326 . S
In221 O229 2.266 . S
In221 O230 2.326 . S
In221 O232 2.294 . S
In221 O233 2.326 . S
O222 In221 2.294 . S
O222 C231 1.240 . S
O223 In221 2.326 . S
O223 C231 1.252 . S
C224 O227 1.252 . S
C224 O228 1.260 . S
C225 O232 1.240 . S
C225 O233 1.252 . S
C226 O229 1.252 . S
C226 O230 1.260 . S
O227 In221 2.266 . S
O227 C224 1.252 . S
O228 In221 2.326 . S
O228 C224 1.260 . S
O229 In221 2.266 . S
O229 C226 1.252 . S
O230 In221 2.326 . S
O230 C226 1.260 . S
C231 O222 1.240 . S
C231 O223 1.252 . S
O232 In221 2.294 . S
O232 C225 1.240 . S
O233 In221 2.326 . S
O233 C225 1.252 . S
In234 O235 2.294 . S
In234 O236 2.326 . S
In234 O240 2.266 . S
In234 O241 2.326 . S
In234 O242 2.266 . S
In234 O243 2.326 . S
In234 O245 2.294 . S
In234 O246 2.326 . S
O235 In234 2.294 . S
O235 C244 1.240 . S
O236 In234 2.326 . S
O236 C244 1.252 . S
C237 O240 1.252 . S
C237 O241 1.260 . S
C238 O245 1.240 . S
C238 O246 1.252 . S
C239 O242 1.252 . S
C239 O243 1.260 . S
O240 In234 2.266 . S
O240 C237 1.252 . S
O241 In234 2.326 . S
O241 C237 1.260 . S
O242 In234 2.266 . S
O242 C239 1.252 . S
O243 In234 2.326 . S
O243 C239 1.260 . S
C244 O235 1.240 . S
C244 O236 1.252 . S
O245 In234 2.294 . S
O245 C238 1.240 . S
O246 In234 2.326 . S
O246 C238 1.252 . S
In247 O248 2.294 . S
In247 O249 2.326 . S
In247 O253 2.266 . S
In247 O254 2.326 . S
In247 O255 2.266 . S
In247 O256 2.326 . S
In247 O258 2.294 . S
In247 O259 2.326 . S
O248 In247 2.294 . S
O248 C257 1.240 . S
O249 In247 2.326 . S
O249 C257 1.252 . S
C250 O253 1.252 . S
C250 O254 1.260 . S
C251 O258 1.240 . S
C251 O259 1.252 . S
C252 O255 1.252 . S
C252 O256 1.260 . S
O253 In247 2.266 . S
O253 C250 1.252 . S
O254 In247 2.326 . S
O254 C250 1.260 . S
O255 In247 2.266 . S
O255 C252 1.252 . S
O256 In247 2.326 . S
O256 C252 1.260 . S
C257 O248 1.240 . S
C257 O249 1.252 . S
O258 In247 2.294 . S
O258 C251 1.240 . S
O259 In247 2.326 . S
O259 C251 1.252 . S
In260 O261 2.294 . S
In260 O262 2.326 . S
In260 O266 2.266 . S
In260 O267 2.326 . S
In260 O268 2.266 . S
In260 O269 2.326 . S
In260 O271 2.294 . S
In260 O272 2.326 . S
O261 In260 2.294 . S
O261 C270 1.240 . S
O262 In260 2.326 . S
O262 C270 1.252 . S
C263 O266 1.252 . S
C263 O267 1.260 . S
C264 O271 1.240 . S
C264 O272 1.252 . S
C265 O268 1.252 . S
C265 O269 1.260 . S
O266 In260 2.266 . S
O266 C263 1.252 . S
O267 In260 2.326 . S
O267 C263 1.260 . S
O268 In260 2.266 . S
O268 C265 1.252 . S
O269 In260 2.326 . S
O269 C265 1.260 . S
C270 O261 1.240 . S
C270 O262 1.252 . S
O271 In260 2.294 . S
O271 C264 1.240 . S
O272 In260 2.326 . S
O272 C264 1.252 . S
In273 O274 2.294 . S
In273 O275 2.326 . S
In273 O279 2.266 . S
In273 O280 2.326 . S
In273 O281 2.266 . S
In273 O282 2.326 . S
In273 O284 2.294 . S
In273 O285 2.326 . S
O274 In273 2.294 . S
O274 C283 1.240 . S
O275 In273 2.326 . S
O275 C283 1.252 . S
C276 O279 1.252 . S
C276 O280 1.260 . S
C277 O284 1.240 . S
C277 O285 1.252 . S
C278 O281 1.252 . S
C278 O282 1.260 . S
O279 In273 2.266 . S
O279 C276 1.252 . S
O280 In273 2.326 . S
O280 C276 1.260 . S
O281 In273 2.266 . S
O281 C278 1.252 . S
O282 In273 2.326 . S
O282 C278 1.260 . S
C283 O274 1.240 . S
C283 O275 1.252 . S
O284 In273 2.294 . S
O284 C277 1.240 . S
O285 In273 2.326 . S
O285 C277 1.252 . S
In286 O287 2.294 . S
In286 O288 2.326 . S
In286 O292 2.266 . S
In286 O293 2.326 . S
In286 O294 2.266 . S
In286 O295 2.326 . S
In286 O297 2.294 . S
In286 O298 2.326 . S
O287 In286 2.294 . S
O287 C296 1.240 . S
O288 In286 2.326 . S
O288 C296 1.252 . S
C289 O292 1.252 . S
C289 O293 1.260 . S
C290 O297 1.240 . S
C290 O298 1.252 . S
C291 O294 1.252 . S
C291 O295 1.260 . S
O292 In286 2.266 . S
O292 C289 1.252 . S
O293 In286 2.326 . S
O293 C289 1.260 . S
O294 In286 2.266 . S
O294 C291 1.252 . S
O295 In286 2.326 . S
O295 C291 1.260 . S
C296 O287 1.240 . S
C296 O288 1.252 . S
O297 In286 2.294 . S
O297 C290 1.240 . S
O298 In286 2.326 . S
O298 C290 1.252 . S
In299 O300 2.294 . S
In299 O301 2.326 . S
In299 O305 2.266 . S
In299 O306 2.326 . S
In299 O307 2.266 . S
In299 O308 2.326 . S
In299 O310 2.294 . S
In299 O311 2.326 . S
O300 In299 2.294 . S
O300 C309 1.240 . S
O301 In299 2.326 . S
O301 C309 1.252 . S
C302 O305 1.252 . S
C302 O306 1.260 . S
C303 O310 1.240 . S
C303 O311 1.252 . S
C304 O307 1.252 . S
C304 O308 1.260 . S
O305 In299 2.266 . S
O305 C302 1.252 . S
O306 In299 2.326 . S
O306 C302 1.260 . S
O307 In299 2.266 . S
O307 C304 1.252 . S
O308 In299 2.326 . S
O308 C304 1.260 . S
C309 O300 1.240 . S
C309 O301 1.252 . S
O310 In299 2.294 . S
O310 C303 1.240 . S
O311 In299 2.326 . S
O311 C303 1.252 . S
In312 O313 2.294 . S
In312 O314 2.326 . S
In312 O318 2.266 . S
In312 O319 2.326 . S
In312 O320 2.266 . S
In312 O321 2.326 . S
In312 O323 2.294 . S
In312 O324 2.326 . S
O313 In312 2.294 . S
O313 C322 1.240 . S
O314 In312 2.326 . S
O314 C322 1.252 . S
C315 O318 1.252 . S
C315 O319 1.260 . S
C316 O323 1.240 . S
C316 O324 1.252 . S
C317 O320 1.252 . S
C317 O321 1.260 . S
O318 In312 2.266 . S
O318 C315 1.252 . S
O319 In312 2.326 . S
O319 C315 1.260 . S
O320 In312 2.266 . S
O320 C317 1.252 . S
O321 In312 2.326 . S
O321 C317 1.260 . S
C322 O313 1.240 . S
C322 O314 1.252 . S
O323 In312 2.294 . S
O323 C316 1.240 . S
O324 In312 2.326 . S
O324 C316 1.252 . S
In325 O326 2.294 . S
In325 O327 2.326 . S
In325 O331 2.266 . S
In325 O332 2.326 . S
In325 O333 2.266 . S
In325 O334 2.326 . S
In325 O336 2.294 . S
In325 O337 2.326 . S
O326 In325 2.294 . S
O326 C335 1.240 . S
O327 In325 2.326 . S
O327 C335 1.252 . S
C328 O331 1.252 . S
C328 O332 1.260 . S
C329 O336 1.240 . S
C329 O337 1.252 . S
C330 O333 1.252 . S
C330 O334 1.260 . S
O331 In325 2.266 . S
O331 C328 1.252 . S
O332 In325 2.326 . S
O332 C328 1.260 . S
O333 In325 2.266 . S
O333 C330 1.252 . S
O334 In325 2.326 . S
O334 C330 1.260 . S
C335 O326 1.240 . S
C335 O327 1.252 . S
O336 In325 2.294 . S
O336 C329 1.240 . S
O337 In325 2.326 . S
O337 C329 1.252 . S
In338 O339 2.294 . S
In338 O340 2.326 . S
In338 O344 2.266 . S
In338 O345 2.326 . S
In338 O346 2.266 1_556 S
In338 O347 2.326 1_556 S
In338 O349 2.294 . S
In338 O350 2.326 . S
O339 In338 2.294 . S
O339 C348 1.240 . S
O340 In338 2.326 . S
O340 C348 1.252 . S
C341 O344 1.252 . S
C341 O345 1.260 . S
C342 O349 1.240 . S
C342 O350 1.252 . S
C343 O346 1.252 . S
C343 O347 1.260 . S
O344 In338 2.266 . S
O344 C341 1.252 . S
O345 In338 2.326 . S
O345 C341 1.260 . S
O346 In338 2.266 1_554 S
O346 C343 1.252 . S
O347 In338 2.326 1_554 S
O347 C343 1.260 . S
C348 O339 1.240 . S
C348 O340 1.252 . S
O349 In338 2.294 . S
O349 C342 1.240 . S
O350 In338 2.326 . S
O350 C342 1.252 . S
In351 O352 2.294 . S
In351 O353 2.326 . S
In351 O357 2.266 1_556 S
In351 O358 2.326 1_556 S
In351 O359 2.266 . S
In351 O360 2.326 . S
In351 O362 2.294 . S
In351 O363 2.326 . S
O352 In351 2.294 . S
O352 C361 1.240 . S
O353 In351 2.326 . S
O353 C361 1.252 . S
C354 O357 1.252 . S
C354 O358 1.260 . S
C355 O362 1.240 . S
C355 O363 1.252 . S
C356 O359 1.252 . S
C356 O360 1.260 . S
O357 In351 2.266 1_554 S
O357 C354 1.252 . S
O358 In351 2.326 1_554 S
O358 C354 1.260 . S
O359 In351 2.266 . S
O359 C356 1.252 . S
O360 In351 2.326 . S
O360 C356 1.260 . S
C361 O352 1.240 . S
C361 O353 1.252 . S
O362 In351 2.294 . S
O362 C355 1.240 . S
O363 In351 2.326 . S
O363 C355 1.252 . S
In364 O365 2.294 . S
In364 O366 2.326 . S
In364 O370 2.266 . S
In364 O371 2.326 . S
In364 O372 2.266 . S
In364 O373 2.326 . S
In364 O375 2.294 . S
In364 O376 2.326 . S
O365 In364 2.294 . S
O365 C374 1.240 . S
O366 In364 2.326 . S
O366 C374 1.252 . S
C367 O370 1.252 . S
C367 O371 1.260 . S
C368 O375 1.240 . S
C368 O376 1.252 . S
C369 O372 1.252 . S
C369 O373 1.260 . S
O370 In364 2.266 . S
O370 C367 1.252 . S
O371 In364 2.326 . S
O371 C367 1.260 . S
O372 In364 2.266 . S
O372 C369 1.252 . S
O373 In364 2.326 . S
O373 C369 1.260 . S
C374 O365 1.240 . S
C374 O366 1.252 . S
O375 In364 2.294 . S
O375 C368 1.240 . S
O376 In364 2.326 . S
O376 C368 1.252 . S
In377 O378 2.294 . S
In377 O379 2.326 . S
In377 O383 2.266 . S
In377 O384 2.326 . S
In377 O385 2.266 . S
In377 O386 2.326 . S
In377 O388 2.294 . S
In377 O389 2.326 . S
O378 In377 2.294 . S
O378 C387 1.240 . S
O379 In377 2.326 . S
O379 C387 1.252 . S
C380 O383 1.252 . S
C380 O384 1.260 . S
C381 O388 1.240 . S
C381 O389 1.252 . S
C382 O385 1.252 . S
C382 O386 1.260 . S
O383 In377 2.266 . S
O383 C380 1.252 . S
O384 In377 2.326 . S
O384 C380 1.260 . S
O385 In377 2.266 . S
O385 C382 1.252 . S
O386 In377 2.326 . S
O386 C382 1.260 . S
C387 O378 1.240 . S
C387 O379 1.252 . S
O388 In377 2.294 . S
O388 C381 1.240 . S
O389 In377 2.326 . S
O389 C381 1.252 . S
In390 O391 2.294 . S
In390 O392 2.326 . S
In390 O396 2.266 1_554 S
In390 O397 2.326 1_554 S
In390 O398 2.266 . S
In390 O399 2.326 . S
In390 O401 2.294 . S
In390 O402 2.326 . S
O391 In390 2.294 . S
O391 C400 1.240 . S
O392 In390 2.326 . S
O392 C400 1.252 . S
C393 O396 1.252 . S
C393 O397 1.260 . S
C394 O401 1.240 . S
C394 O402 1.252 . S
C395 O398 1.252 . S
C395 O399 1.260 . S
O396 In390 2.266 1_556 S
O396 C393 1.252 . S
O397 In390 2.326 1_556 S
O397 C393 1.260 . S
O398 In390 2.266 . S
O398 C395 1.252 . S
O399 In390 2.326 . S
O399 C395 1.260 . S
C400 O391 1.240 . S
C400 O392 1.252 . S
O401 In390 2.294 . S
O401 C394 1.240 . S
O402 In390 2.326 . S
O402 C394 1.252 . S
In403 O404 2.294 . S
In403 O405 2.326 . S
In403 O409 2.266 1_554 S
In403 O410 2.326 1_554 S
In403 O411 2.266 . S
In403 O412 2.326 . S
In403 O414 2.294 . S
In403 O415 2.326 . S
O404 In403 2.294 . S
O404 C413 1.240 . S
O405 In403 2.326 . S
O405 C413 1.252 . S
C406 O409 1.252 . S
C406 O410 1.260 . S
C407 O414 1.240 . S
C407 O415 1.252 . S
C408 O411 1.252 . S
C408 O412 1.260 . S
O409 In403 2.266 1_556 S
O409 C406 1.252 . S
O410 In403 2.326 1_556 S
O410 C406 1.260 . S
O411 In403 2.266 . S
O411 C408 1.252 . S
O412 In403 2.326 . S
O412 C408 1.260 . S
C413 O404 1.240 . S
C413 O405 1.252 . S
O414 In403 2.294 . S
O414 C407 1.240 . S
O415 In403 2.326 . S
O415 C407 1.252 . S
C416 C417 1.391 . S
C416 C418 1.394 . S
C416 H432 0.931 . S
C417 C416 1.391 . S
C417 C421 1.376 . S
C418 C416 1.394 . S
C418 C419 1.369 . S
C418 C422 1.531 . S
C419 C418 1.369 . S
C419 C420 1.410 . S
C419 C427 1.503 . S
C420 C419 1.410 . S
C420 C421 1.392 . S
C420 C423 1.511 . S
C421 C417 1.376 . S
C421 C420 1.392 . S
C421 H433 0.929 . S
C422 C418 1.531 . S
C422 H434 0.960 . S
C422 H435 0.962 . S
C422 H436 0.960 1_455 S
C423 C420 1.511 . S
C423 H437 0.961 . S
C423 H438 0.961 . S
C423 H439 0.961 . S
C424 C425 1.370 . S
C424 C426 1.363 . S
C424 H440 0.931 . S
C425 C424 1.370 . S
C425 C429 1.408 . S
C426 C424 1.363 . S
C426 C427 1.370 . S
C426 C430 1.524 . S
C427 C419 1.503 . S
C427 C426 1.370 . S
C427 C428 1.403 . S
C428 C427 1.403 . S
C428 C429 1.404 . S
C428 C431 1.539 . S
C429 C425 1.408 . S
C429 C428 1.404 . S
C429 H441 0.930 . S
C430 C426 1.524 . S
C430 H442 0.956 . S
C430 H443 0.961 . S
C430 H444 0.961 . S
C431 C428 1.539 . S
C431 H445 0.958 . S
C431 H446 0.961 . S
C431 H447 0.960 . S
H432 C416 0.931 . S
H433 C421 0.929 . S
H434 C422 0.960 . S
H435 C422 0.962 . S
H436 C422 0.960 1_655 S
H437 C423 0.961 . S
H438 C423 0.961 . S
H439 C423 0.961 . S
H440 C424 0.931 . S
H441 C429 0.930 . S
H442 C430 0.956 . S
H443 C430 0.961 . S
H444 C430 0.961 . S
H445 C431 0.958 . S
H446 C431 0.961 . S
H447 C431 0.960 . S
C448 C449 1.391 . S
C448 C450 1.394 . S
C448 H464 0.931 . S
C449 C448 1.391 . S
C449 C453 1.376 . S
C450 C448 1.394 . S
C450 C451 1.369 . S
C450 C454 1.531 . S
C451 C450 1.369 . S
C451 C452 1.410 . S
C451 C459 1.503 . S
C452 C451 1.410 . S
C452 C453 1.392 . S
C452 C455 1.511 . S
C453 C449 1.376 . S
C453 C452 1.392 . S
C453 H465 0.929 . S
C454 C450 1.531 . S
C454 H466 0.960 . S
C454 H467 0.962 . S
C454 H468 0.960 . S
C455 C452 1.511 . S
C455 H469 0.961 . S
C455 H470 0.961 . S
C455 H471 0.961 . S
C456 C457 1.370 . S
C456 C458 1.363 . S
C456 H472 0.931 . S
C457 C456 1.370 . S
C457 C461 1.408 . S
C458 C456 1.363 . S
C458 C459 1.370 . S
C458 C462 1.524 . S
C459 C451 1.503 . S
C459 C458 1.370 . S
C459 C460 1.403 . S
C460 C459 1.403 . S
C460 C461 1.404 . S
C460 C463 1.539 . S
C461 C457 1.408 . S
C461 C460 1.404 . S
C461 H473 0.930 . S
C462 C458 1.524 . S
C462 H474 0.956 . S
C462 H475 0.961 . S
C462 H476 0.961 . S
C463 C460 1.539 . S
C463 H477 0.958 . S
C463 H478 0.961 . S
C463 H479 0.960 . S
H464 C448 0.931 . S
H465 C453 0.929 . S
H466 C454 0.960 . S
H467 C454 0.962 . S
H468 C454 0.960 . S
H469 C455 0.961 . S
H470 C455 0.961 . S
H471 C455 0.961 . S
H472 C456 0.931 . S
H473 C461 0.930 . S
H474 C462 0.956 . S
H475 C462 0.961 . S
H476 C462 0.961 . S
H477 C463 0.958 . S
H478 C463 0.961 . S
H479 C463 0.960 . S
C480 C481 1.391 . S
C480 C482 1.394 . S
C480 H496 0.931 . S
C481 C480 1.391 . S
C481 C485 1.376 . S
C482 C480 1.394 . S
C482 C483 1.369 . S
C482 C486 1.531 . S
C483 C482 1.369 . S
C483 C484 1.410 . S
C483 C491 1.503 . S
C484 C483 1.410 . S
C484 C485 1.392 . S
C484 C487 1.511 . S
C485 C481 1.376 . S
C485 C484 1.392 . S
C485 H497 0.929 . S
C486 C482 1.531 . S
C486 H498 0.960 . S
C486 H499 0.962 . S
C486 H500 0.960 . S
C487 C484 1.511 . S
C487 H501 0.961 . S
C487 H502 0.961 . S
C487 H503 0.961 . S
C488 C489 1.370 . S
C488 C490 1.363 . S
C488 H504 0.931 . S
C489 C488 1.370 . S
C489 C493 1.408 . S
C490 C488 1.363 . S
C490 C491 1.370 . S
C490 C494 1.524 . S
C491 C483 1.503 . S
C491 C490 1.370 . S
C491 C492 1.403 . S
C492 C491 1.403 . S
C492 C493 1.404 . S
C492 C495 1.539 . S
C493 C489 1.408 . S
C493 C492 1.404 . S
C493 H505 0.930 . S
C494 C490 1.524 . S
C494 H506 0.956 . S
C494 H507 0.961 . S
C494 H508 0.961 . S
C495 C492 1.539 . S
C495 H509 0.958 . S
C495 H510 0.961 . S
C495 H511 0.960 . S
H496 C480 0.931 . S
H497 C485 0.929 . S
H498 C486 0.960 . S
H499 C486 0.962 . S
H500 C486 0.960 . S
H501 C487 0.961 . S
H502 C487 0.961 . S
H503 C487 0.961 . S
H504 C488 0.931 . S
H505 C493 0.930 . S
H506 C494 0.956 . S
H507 C494 0.961 . S
H508 C494 0.961 . S
H509 C495 0.958 . S
H510 C495 0.961 . S
H511 C495 0.960 . S
C512 C513 1.391 . S
C512 C514 1.394 . S
C512 H528 0.931 . S
C513 C512 1.391 . S
C513 C517 1.376 . S
C514 C512 1.394 . S
C514 C515 1.369 . S
C514 C518 1.531 . S
C515 C514 1.369 . S
C515 C516 1.410 . S
C515 C523 1.503 . S
C516 C515 1.410 . S
C516 C517 1.392 . S
C516 C519 1.511 . S
C517 C513 1.376 . S
C517 C516 1.392 . S
C517 H529 0.929 . S
C518 C514 1.531 . S
C518 H530 0.960 . S
C518 H531 0.962 . S
C518 H532 0.960 . S
C519 C516 1.511 . S
C519 H533 0.961 . S
C519 H534 0.961 . S
C519 H535 0.961 . S
C520 C521 1.370 . S
C520 C522 1.363 . S
C520 H536 0.931 . S
C521 C520 1.370 . S
C521 C525 1.408 . S
C522 C520 1.363 . S
C522 C523 1.370 . S
C522 C526 1.524 . S
C523 C515 1.503 . S
C523 C522 1.370 . S
C523 C524 1.403 . S
C524 C523 1.403 . S
C524 C525 1.404 . S
C524 C527 1.539 . S
C525 C521 1.408 . S
C525 C524 1.404 . S
C525 H537 0.930 . S
C526 C522 1.524 . S
C526 H538 0.956 . S
C526 H539 0.961 . S
C526 H540 0.961 . S
C527 C524 1.539 . S
C527 H541 0.958 . S
C527 H542 0.961 . S
C527 H543 0.960 . S
H528 C512 0.931 . S
H529 C517 0.929 . S
H530 C518 0.960 . S
H531 C518 0.962 . S
H532 C518 0.960 . S
H533 C519 0.961 . S
H534 C519 0.961 . S
H535 C519 0.961 . S
H536 C520 0.931 . S
H537 C525 0.930 . S
H538 C526 0.956 . S
H539 C526 0.961 . S
H540 C526 0.961 . S
H541 C527 0.958 . S
H542 C527 0.961 . S
H543 C527 0.960 . S
C544 C545 1.391 . S
C544 C546 1.394 . S
C544 H560 0.931 . S
C545 C544 1.391 . S
C545 C549 1.376 . S
C546 C544 1.394 . S
C546 C547 1.369 . S
C546 C550 1.531 . S
C547 C546 1.369 . S
C547 C548 1.410 . S
C547 C555 1.503 . S
C548 C547 1.410 . S
C548 C549 1.392 . S
C548 C551 1.511 . S
C549 C545 1.376 . S
C549 C548 1.392 . S
C549 H561 0.929 . S
C550 C546 1.531 . S
C550 H562 0.960 . S
C550 H563 0.962 . S
C550 H564 0.960 . S
C551 C548 1.511 . S
C551 H565 0.961 . S
C551 H566 0.961 . S
C551 H567 0.961 1_655 S
C552 C553 1.370 . S
C552 C554 1.363 . S
C552 H568 0.931 . S
C553 C552 1.370 . S
C553 C557 1.408 . S
C554 C552 1.363 . S
C554 C555 1.370 . S
C554 C558 1.524 . S
C555 C547 1.503 . S
C555 C554 1.370 . S
C555 C556 1.403 . S
C556 C555 1.403 . S
C556 C557 1.404 . S
C556 C559 1.539 . S
C557 C553 1.408 . S
C557 C556 1.404 . S
C557 H569 0.930 . S
C558 C554 1.524 . S
C558 H570 0.956 . S
C558 H571 0.961 . S
C558 H572 0.961 . S
C559 C556 1.539 . S
C559 H573 0.958 . S
C559 H574 0.961 . S
C559 H575 0.960 . S
H560 C544 0.931 . S
H561 C549 0.929 . S
H562 C550 0.960 . S
H563 C550 0.962 . S
H564 C550 0.960 . S
H565 C551 0.961 . S
H566 C551 0.961 . S
H567 C551 0.961 1_455 S
H568 C552 0.931 . S
H569 C557 0.930 . S
H570 C558 0.956 . S
H571 C558 0.961 . S
H572 C558 0.961 . S
H573 C559 0.958 . S
H574 C559 0.961 . S
H575 C559 0.960 . S
C576 C577 1.391 . S
C576 C578 1.394 . S
C576 H592 0.931 . S
C577 C576 1.391 . S
C577 C581 1.376 . S
C578 C576 1.394 . S
C578 C579 1.369 . S
C578 C582 1.531 . S
C579 C578 1.369 . S
C579 C580 1.410 . S
C579 C587 1.503 . S
C580 C579 1.410 . S
C580 C581 1.392 . S
C580 C583 1.511 . S
C581 C577 1.376 . S
C581 C580 1.392 . S
C581 H593 0.929 . S
C582 C578 1.531 . S
C582 H594 0.960 . S
C582 H595 0.962 . S
C582 H596 0.960 . S
C583 C580 1.511 . S
C583 H597 0.961 . S
C583 H598 0.961 . S
C583 H599 0.961 . S
C584 C585 1.370 . S
C584 C586 1.363 . S
C584 H600 0.931 . S
C585 C584 1.370 . S
C585 C589 1.408 . S
C586 C584 1.363 . S
C586 C587 1.370 . S
C586 C590 1.524 . S
C587 C579 1.503 . S
C587 C586 1.370 . S
C587 C588 1.403 . S
C588 C587 1.403 . S
C588 C589 1.404 . S
C588 C591 1.539 . S
C589 C585 1.408 . S
C589 C588 1.404 . S
C589 H601 0.930 . S
C590 C586 1.524 . S
C590 H602 0.956 . S
C590 H603 0.961 . S
C590 H604 0.961 . S
C591 C588 1.539 . S
C591 H605 0.958 . S
C591 H606 0.961 . S
C591 H607 0.960 . S
H592 C576 0.931 . S
H593 C581 0.929 . S
H594 C582 0.960 . S
H595 C582 0.962 . S
H596 C582 0.960 . S
H597 C583 0.961 . S
H598 C583 0.961 . S
H599 C583 0.961 . S
H600 C584 0.931 . S
H601 C589 0.930 . S
H602 C590 0.956 . S
H603 C590 0.961 . S
H604 C590 0.961 . S
H605 C591 0.958 . S
H606 C591 0.961 . S
H607 C591 0.960 . S
C608 C609 1.391 . S
C608 C610 1.394 . S
C608 H624 0.931 . S
C609 C608 1.391 . S
C609 C613 1.376 . S
C610 C608 1.394 . S
C610 C611 1.369 . S
C610 C614 1.531 . S
C611 C610 1.369 . S
C611 C612 1.410 . S
C611 C619 1.503 . S
C612 C611 1.410 . S
C612 C613 1.392 . S
C612 C615 1.511 . S
C613 C609 1.376 . S
C613 C612 1.392 . S
C613 H625 0.929 . S
C614 C610 1.531 . S
C614 H626 0.960 . S
C614 H627 0.962 . S
C614 H628 0.960 . S
C615 C612 1.511 . S
C615 H629 0.961 1_655 S
C615 H630 0.961 . S
C615 H631 0.961 . S
C616 C617 1.370 . S
C616 C618 1.363 . S
C616 H632 0.931 . S
C617 C616 1.370 . S
C617 C621 1.408 . S
C618 C616 1.363 . S
C618 C619 1.370 . S
C618 C622 1.524 . S
C619 C611 1.503 . S
C619 C618 1.370 . S
C619 C620 1.403 . S
C620 C619 1.403 . S
C620 C621 1.404 . S
C620 C623 1.539 . S
C621 C617 1.408 . S
C621 C620 1.404 . S
C621 H633 0.930 . S
C622 C618 1.524 . S
C622 H634 0.956 . S
C622 H635 0.961 . S
C622 H636 0.961 . S
C623 C620 1.539 . S
C623 H637 0.958 . S
C623 H638 0.961 . S
C623 H639 0.960 . S
H624 C608 0.931 . S
H625 C613 0.929 . S
H626 C614 0.960 . S
H627 C614 0.962 . S
H628 C614 0.960 . S
H629 C615 0.961 1_455 S
H630 C615 0.961 . S
H631 C615 0.961 . S
H632 C616 0.931 . S
H633 C621 0.930 . S
H634 C622 0.956 . S
H635 C622 0.961 . S
H636 C622 0.961 . S
H637 C623 0.958 . S
H638 C623 0.961 . S
H639 C623 0.960 . S
C640 C641 1.391 . S
C640 C642 1.394 . S
C640 H656 0.931 . S
C641 C640 1.391 . S
C641 C645 1.376 . S
C642 C640 1.394 . S
C642 C643 1.369 . S
C642 C646 1.531 . S
C643 C642 1.369 . S
C643 C644 1.410 . S
C643 C651 1.503 . S
C644 C643 1.410 . S
C644 C645 1.392 . S
C644 C647 1.511 . S
C645 C641 1.376 . S
C645 C644 1.392 . S
C645 H657 0.929 . S
C646 C642 1.531 . S
C646 H658 0.960 . S
C646 H659 0.962 . S
C646 H660 0.960 . S
C647 C644 1.511 . S
C647 H661 0.961 . S
C647 H662 0.961 . S
C647 H663 0.961 . S
C648 C649 1.370 . S
C648 C650 1.363 . S
C648 H664 0.931 . S
C649 C648 1.370 . S
C649 C653 1.408 . S
C650 C648 1.363 . S
C650 C651 1.370 . S
C650 C654 1.524 . S
C651 C643 1.503 . S
C651 C650 1.370 . S
C651 C652 1.403 . S
C652 C651 1.403 . S
C652 C653 1.404 . S
C652 C655 1.539 . S
C653 C649 1.408 . S
C653 C652 1.404 . S
C653 H665 0.930 . S
C654 C650 1.524 . S
C654 H666 0.956 . S
C654 H667 0.961 . S
C654 H668 0.961 . S
C655 C652 1.539 . S
C655 H669 0.958 . S
C655 H670 0.961 . S
C655 H671 0.960 . S
H656 C640 0.931 . S
H657 C645 0.929 . S
H658 C646 0.960 . S
H659 C646 0.962 . S
H660 C646 0.960 . S
H661 C647 0.961 . S
H662 C647 0.961 . S
H663 C647 0.961 . S
H664 C648 0.931 . S
H665 C653 0.930 . S
H666 C654 0.956 . S
H667 C654 0.961 . S
H668 C654 0.961 . S
H669 C655 0.958 . S
H670 C655 0.961 . S
H671 C655 0.960 . S
C672 C673 1.391 . S
C672 C674 1.394 . S
C672 H688 0.931 . S
C673 C672 1.391 . S
C673 C677 1.376 . S
C674 C672 1.394 . S
C674 C675 1.369 . S
C674 C678 1.531 . S
C675 C674 1.369 . S
C675 C676 1.410 . S
C675 C683 1.503 . S
C676 C675 1.410 . S
C676 C677 1.392 . S
C676 C679 1.511 . S
C677 C673 1.376 . S
C677 C676 1.392 . S
C677 H689 0.929 . S
C678 C674 1.531 . S
C678 H690 0.960 . S
C678 H691 0.962 . S
C678 H692 0.960 . S
C679 C676 1.511 . S
C679 H693 0.961 . S
C679 H694 0.961 . S
C679 H695 0.961 . S
C680 C681 1.370 . S
C680 C682 1.363 . S
C680 H696 0.931 . S
C681 C680 1.370 . S
C681 C685 1.408 . S
C682 C680 1.363 . S
C682 C683 1.370 . S
C682 C686 1.524 . S
C683 C675 1.503 . S
C683 C682 1.370 . S
C683 C684 1.403 . S
C684 C683 1.403 . S
C684 C685 1.404 . S
C684 C687 1.539 . S
C685 C681 1.408 . S
C685 C684 1.404 . S
C685 H697 0.930 . S
C686 C682 1.524 . S
C686 H698 0.956 . S
C686 H699 0.961 . S
C686 H700 0.961 . S
C687 C684 1.539 . S
C687 H701 0.958 . S
C687 H702 0.961 . S
C687 H703 0.960 . S
H688 C672 0.931 . S
H689 C677 0.929 . S
H690 C678 0.960 . S
H691 C678 0.962 . S
H692 C678 0.960 . S
H693 C679 0.961 . S
H694 C679 0.961 . S
H695 C679 0.961 . S
H696 C680 0.931 . S
H697 C685 0.930 . S
H698 C686 0.956 . S
H699 C686 0.961 . S
H700 C686 0.961 . S
H701 C687 0.958 . S
H702 C687 0.961 . S
H703 C687 0.960 . S
C704 C705 1.391 . S
C704 C706 1.394 . S
C704 H720 0.931 . S
C705 C704 1.391 . S
C705 C709 1.376 . S
C706 C704 1.394 . S
C706 C707 1.369 . S
C706 C710 1.531 . S
C707 C706 1.369 . S
C707 C708 1.410 . S
C707 C715 1.503 . S
C708 C707 1.410 . S
C708 C709 1.392 . S
C708 C711 1.511 . S
C709 C705 1.376 . S
C709 C708 1.392 . S
C709 H721 0.929 . S
C710 C706 1.531 . S
C710 H722 0.960 . S
C710 H723 0.962 . S
C710 H724 0.960 . S
C711 C708 1.511 . S
C711 H725 0.961 . S
C711 H726 0.961 . S
C711 H727 0.961 . S
C712 C713 1.370 . S
C712 C714 1.363 . S
C712 H728 0.931 . S
C713 C712 1.370 . S
C713 C717 1.408 . S
C714 C712 1.363 . S
C714 C715 1.370 . S
C714 C718 1.524 . S
C715 C707 1.503 . S
C715 C714 1.370 . S
C715 C716 1.403 . S
C716 C715 1.403 . S
C716 C717 1.404 . S
C716 C719 1.539 . S
C717 C713 1.408 . S
C717 C716 1.404 . S
C717 H729 0.930 . S
C718 C714 1.524 . S
C718 H730 0.956 . S
C718 H731 0.961 . S
C718 H732 0.961 . S
C719 C716 1.539 . S
C719 H733 0.958 . S
C719 H734 0.961 . S
C719 H735 0.960 . S
H720 C704 0.931 . S
H721 C709 0.929 . S
H722 C710 0.960 . S
H723 C710 0.962 . S
H724 C710 0.960 . S
H725 C711 0.961 . S
H726 C711 0.961 . S
H727 C711 0.961 . S
H728 C712 0.931 . S
H729 C717 0.930 . S
H730 C718 0.956 . S
H731 C718 0.961 . S
H732 C718 0.961 . S
H733 C719 0.958 . S
H734 C719 0.961 . S
H735 C719 0.960 . S
C736 C737 1.391 . S
C736 C738 1.394 . S
C736 H752 0.931 . S
C737 C736 1.391 . S
C737 C741 1.376 . S
C738 C736 1.394 . S
C738 C739 1.369 . S
C738 C742 1.531 . S
C739 C738 1.369 . S
C739 C740 1.410 . S
C739 C747 1.503 . S
C740 C739 1.410 . S
C740 C741 1.392 . S
C740 C743 1.511 . S
C741 C737 1.376 . S
C741 C740 1.392 . S
C741 H753 0.929 . S
C742 C738 1.531 . S
C742 H754 0.960 . S
C742 H755 0.962 . S
C742 H756 0.960 . S
C743 C740 1.511 . S
C743 H757 0.961 . S
C743 H758 0.961 . S
C743 H759 0.961 . S
C744 C745 1.370 . S
C744 C746 1.363 . S
C744 H760 0.931 . S
C745 C744 1.370 . S
C745 C749 1.408 . S
C746 C744 1.363 . S
C746 C747 1.370 . S
C746 C750 1.524 . S
C747 C739 1.503 . S
C747 C746 1.370 . S
C747 C748 1.403 . S
C748 C747 1.403 . S
C748 C749 1.404 . S
C748 C751 1.539 . S
C749 C745 1.408 . S
C749 C748 1.404 . S
C749 H761 0.930 . S
C750 C746 1.524 . S
C750 H762 0.956 . S
C750 H763 0.961 . S
C750 H764 0.961 . S
C751 C748 1.539 . S
C751 H765 0.958 . S
C751 H766 0.961 . S
C751 H767 0.960 . S
H752 C736 0.931 . S
H753 C741 0.929 . S
H754 C742 0.960 . S
H755 C742 0.962 . S
H756 C742 0.960 . S
H757 C743 0.961 . S
H758 C743 0.961 . S
H759 C743 0.961 . S
H760 C744 0.931 . S
H761 C749 0.930 . S
H762 C750 0.956 . S
H763 C750 0.961 . S
H764 C750 0.961 . S
H765 C751 0.958 . S
H766 C751 0.961 . S
H767 C751 0.960 . S
C768 C769 1.391 . S
C768 C770 1.394 . S
C768 H784 0.931 . S
C769 C768 1.391 . S
C769 C773 1.376 . S
C770 C768 1.394 . S
C770 C771 1.369 . S
C770 C774 1.531 . S
C771 C770 1.369 . S
C771 C772 1.410 . S
C771 C779 1.503 . S
C772 C771 1.410 . S
C772 C773 1.392 . S
C772 C775 1.511 . S
C773 C769 1.376 . S
C773 C772 1.392 . S
C773 H785 0.929 . S
C774 C770 1.531 . S
C774 H786 0.960 . S
C774 H787 0.962 . S
C774 H788 0.960 . S
C775 C772 1.511 . S
C775 H789 0.961 . S
C775 H790 0.961 . S
C775 H791 0.961 . S
C776 C777 1.370 . S
C776 C778 1.363 . S
C776 H792 0.931 . S
C777 C776 1.370 . S
C777 C781 1.408 . S
C778 C776 1.363 . S
C778 C779 1.370 . S
C778 C782 1.524 . S
C779 C771 1.503 . S
C779 C778 1.370 . S
C779 C780 1.403 . S
C780 C779 1.403 . S
C780 C781 1.404 . S
C780 C783 1.539 . S
C781 C777 1.408 . S
C781 C780 1.404 . S
C781 H793 0.930 . S
C782 C778 1.524 . S
C782 H794 0.956 . S
C782 H795 0.961 . S
C782 H796 0.961 . S
C783 C780 1.539 . S
C783 H797 0.958 . S
C783 H798 0.961 . S
C783 H799 0.960 . S
H784 C768 0.931 . S
H785 C773 0.929 . S
H786 C774 0.960 . S
H787 C774 0.962 . S
H788 C774 0.960 . S
H789 C775 0.961 . S
H790 C775 0.961 . S
H791 C775 0.961 . S
H792 C776 0.931 . S
H793 C781 0.930 . S
H794 C782 0.956 . S
H795 C782 0.961 . S
H796 C782 0.961 . S
H797 C783 0.958 . S
H798 C783 0.961 . S
H799 C783 0.960 . S
C800 C801 1.391 . S
C800 C802 1.394 . S
C800 H816 0.931 . S
C801 C800 1.391 . S
C801 C805 1.376 . S
C802 C800 1.394 . S
C802 C803 1.369 . S
C802 C806 1.531 . S
C803 C802 1.369 . S
C803 C804 1.410 . S
C803 C811 1.503 . S
C804 C803 1.410 . S
C804 C805 1.392 . S
C804 C807 1.511 . S
C805 C801 1.376 . S
C805 C804 1.392 . S
C805 H817 0.929 . S
C806 C802 1.531 . S
C806 H818 0.960 . S
C806 H819 0.962 . S
C806 H820 0.960 . S
C807 C804 1.511 . S
C807 H821 0.961 . S
C807 H822 0.961 . S
C807 H823 0.961 . S
C808 C809 1.370 . S
C808 C810 1.363 . S
C808 H824 0.931 . S
C809 C808 1.370 . S
C809 C813 1.408 . S
C810 C808 1.363 . S
C810 C811 1.370 . S
C810 C814 1.524 . S
C811 C803 1.503 . S
C811 C810 1.370 . S
C811 C812 1.403 . S
C812 C811 1.403 . S
C812 C813 1.404 . S
C812 C815 1.539 . S
C813 C809 1.408 . S
C813 C812 1.404 . S
C813 H825 0.930 . S
C814 C810 1.524 . S
C814 H826 0.956 . S
C814 H827 0.961 . S
C814 H828 0.961 . S
C815 C812 1.539 . S
C815 H829 0.958 . S
C815 H830 0.961 . S
C815 H831 0.960 . S
H816 C800 0.931 . S
H817 C805 0.929 . S
H818 C806 0.960 . S
H819 C806 0.962 . S
H820 C806 0.960 . S
H821 C807 0.961 . S
H822 C807 0.961 . S
H823 C807 0.961 . S
H824 C808 0.931 . S
H825 C813 0.930 . S
H826 C814 0.956 . S
H827 C814 0.961 . S
H828 C814 0.961 . S
H829 C815 0.958 . S
H830 C815 0.961 . S
H831 C815 0.960 . S
C832 C833 1.391 . S
C832 C834 1.394 . S
C832 H848 0.931 . S
C833 C832 1.391 . S
C833 C837 1.376 . S
C834 C832 1.394 . S
C834 C835 1.369 . S
C834 C838 1.531 . S
C835 C834 1.369 . S
C835 C836 1.410 . S
C835 C843 1.503 . S
C836 C835 1.410 . S
C836 C837 1.392 . S
C836 C839 1.511 . S
C837 C833 1.376 . S
C837 C836 1.392 . S
C837 H849 0.929 . S
C838 C834 1.531 . S
C838 H850 0.960 . S
C838 H851 0.962 . S
C838 H852 0.960 . S
C839 C836 1.511 . S
C839 H853 0.961 . S
C839 H854 0.961 . S
C839 H855 0.961 . S
C840 C841 1.370 . S
C840 C842 1.363 . S
C840 H856 0.931 . S
C841 C840 1.370 . S
C841 C845 1.408 . S
C842 C840 1.363 . S
C842 C843 1.370 . S
C842 C846 1.524 . S
C843 C835 1.503 . S
C843 C842 1.370 . S
C843 C844 1.403 . S
C844 C843 1.403 . S
C844 C845 1.404 . S
C844 C847 1.539 . S
C845 C841 1.408 . S
C845 C844 1.404 . S
C845 H857 0.930 . S
C846 C842 1.524 . S
C846 H858 0.956 . S
C846 H859 0.961 . S
C846 H860 0.961 . S
C847 C844 1.539 . S
C847 H861 0.958 . S
C847 H862 0.961 . S
C847 H863 0.960 . S
H848 C832 0.931 . S
H849 C837 0.929 . S
H850 C838 0.960 . S
H851 C838 0.962 . S
H852 C838 0.960 . S
H853 C839 0.961 . S
H854 C839 0.961 . S
H855 C839 0.961 . S
H856 C840 0.931 . S
H857 C845 0.930 . S
H858 C846 0.956 . S
H859 C846 0.961 . S
H860 C846 0.961 . S
H861 C847 0.958 . S
H862 C847 0.961 . S
H863 C847 0.960 . S
C864 C865 1.391 . S
C864 C866 1.394 . S
C864 H880 0.931 . S
C865 C864 1.391 . S
C865 C869 1.376 . S
C866 C864 1.394 . S
C866 C867 1.369 . S
C866 C870 1.531 . S
C867 C866 1.369 . S
C867 C868 1.410 . S
C867 C875 1.503 . S
C868 C867 1.410 . S
C868 C869 1.392 . S
C868 C871 1.511 . S
C869 C865 1.376 . S
C869 C868 1.392 . S
C869 H881 0.929 . S
C870 C866 1.531 . S
C870 H882 0.960 . S
C870 H883 0.962 . S
C870 H884 0.960 . S
C871 C868 1.511 . S
C871 H885 0.961 . S
C871 H886 0.961 . S
C871 H887 0.961 . S
C872 C873 1.370 . S
C872 C874 1.363 . S
C872 H888 0.931 . S
C873 C872 1.370 . S
C873 C877 1.408 . S
C874 C872 1.363 . S
C874 C875 1.370 . S
C874 C878 1.524 . S
C875 C867 1.503 . S
C875 C874 1.370 . S
C875 C876 1.403 . S
C876 C875 1.403 . S
C876 C877 1.404 . S
C876 C879 1.539 . S
C877 C873 1.408 . S
C877 C876 1.404 . S
C877 H889 0.930 . S
C878 C874 1.524 . S
C878 H890 0.956 . S
C878 H891 0.961 . S
C878 H892 0.961 . S
C879 C876 1.539 . S
C879 H893 0.958 . S
C879 H894 0.961 . S
C879 H895 0.960 . S
H880 C864 0.931 . S
H881 C869 0.929 . S
H882 C870 0.960 . S
H883 C870 0.962 . S
H884 C870 0.960 . S
H885 C871 0.961 . S
H886 C871 0.961 . S
H887 C871 0.961 . S
H888 C872 0.931 . S
H889 C877 0.930 . S
H890 C878 0.956 . S
H891 C878 0.961 . S
H892 C878 0.961 . S
H893 C879 0.958 . S
H894 C879 0.961 . S
H895 C879 0.960 . S
C896 C897 1.391 . S
C896 C898 1.394 . S
C896 H912 0.931 . S
C897 C896 1.391 . S
C897 C901 1.376 . S
C898 C896 1.394 . S
C898 C899 1.369 . S
C898 C902 1.531 . S
C899 C898 1.369 . S
C899 C900 1.410 . S
C899 C907 1.503 . S
C900 C899 1.410 . S
C900 C901 1.392 . S
C900 C903 1.511 . S
C901 C897 1.376 . S
C901 C900 1.392 . S
C901 H913 0.929 . S
C902 C898 1.531 . S
C902 H914 0.960 . S
C902 H915 0.962 . S
C902 H916 0.960 . S
C903 C900 1.511 . S
C903 H917 0.961 . S
C903 H918 0.961 . S
C903 H919 0.961 . S
C904 C905 1.370 . S
C904 C906 1.363 . S
C904 H920 0.931 . S
C905 C904 1.370 . S
C905 C909 1.408 . S
C906 C904 1.363 . S
C906 C907 1.370 . S
C906 C910 1.524 . S
C907 C899 1.503 . S
C907 C906 1.370 . S
C907 C908 1.403 . S
C908 C907 1.403 . S
C908 C909 1.404 . S
C908 C911 1.539 . S
C909 C905 1.408 . S
C909 C908 1.404 . S
C909 H921 0.930 . S
C910 C906 1.524 . S
C910 H922 0.956 . S
C910 H923 0.961 . S
C910 H924 0.961 . S
C911 C908 1.539 . S
C911 H925 0.958 . S
C911 H926 0.961 . S
C911 H927 0.960 . S
H912 C896 0.931 . S
H913 C901 0.929 . S
H914 C902 0.960 . S
H915 C902 0.962 . S
H916 C902 0.960 . S
H917 C903 0.961 . S
H918 C903 0.961 . S
H919 C903 0.961 . S
H920 C904 0.931 . S
H921 C909 0.930 . S
H922 C910 0.956 . S
H923 C910 0.961 . S
H924 C910 0.961 . S
H925 C911 0.958 . S
H926 C911 0.961 . S
H927 C911 0.960 . S
C928 C929 1.391 . S
C928 C930 1.394 . S
C928 H944 0.931 . S
C929 C928 1.391 . S
C929 C933 1.376 . S
C930 C928 1.394 . S
C930 C931 1.369 . S
C930 C934 1.531 . S
C931 C930 1.369 . S
C931 C932 1.410 . S
C931 C939 1.503 . S
C932 C931 1.410 . S
C932 C933 1.392 . S
C932 C935 1.511 . S
C933 C929 1.376 . S
C933 C932 1.392 . S
C933 H945 0.929 . S
C934 C930 1.531 . S
C934 H946 0.960 . S
C934 H947 0.962 . S
C934 H948 0.960 . S
C935 C932 1.511 . S
C935 H949 0.961 . S
C935 H950 0.961 . S
C935 H951 0.961 . S
C936 C937 1.370 . S
C936 C938 1.363 . S
C936 H952 0.931 . S
C937 C936 1.370 . S
C937 C941 1.408 . S
C938 C936 1.363 . S
C938 C939 1.370 . S
C938 C942 1.524 . S
C939 C931 1.503 . S
C939 C938 1.370 . S
C939 C940 1.403 . S
C940 C939 1.403 . S
C940 C941 1.404 . S
C940 C943 1.539 . S
C941 C937 1.408 . S
C941 C940 1.404 . S
C941 H953 0.930 . S
C942 C938 1.524 . S
C942 H954 0.956 . S
C942 H955 0.961 . S
C942 H956 0.961 . S
C943 C940 1.539 . S
C943 H957 0.958 . S
C943 H958 0.961 . S
C943 H959 0.960 . S
H944 C928 0.931 . S
H945 C933 0.929 . S
H946 C934 0.960 . S
H947 C934 0.962 . S
H948 C934 0.960 . S
H949 C935 0.961 . S
H950 C935 0.961 . S
H951 C935 0.961 . S
H952 C936 0.931 . S
H953 C941 0.930 . S
H954 C942 0.956 . S
H955 C942 0.961 . S
H956 C942 0.961 . S
H957 C943 0.958 . S
H958 C943 0.961 . S
H959 C943 0.960 . S
C960 C961 1.391 . S
C960 C962 1.394 . S
C960 H976 0.931 1_655 S
C961 C960 1.391 . S
C961 C965 1.376 . S
C962 C960 1.394 . S
C962 C963 1.369 . S
C962 C966 1.531 . S
C963 C962 1.369 . S
C963 C964 1.410 . S
C963 C971 1.503 . S
C964 C963 1.410 . S
C964 C965 1.392 . S
C964 C967 1.511 . S
C965 C961 1.376 . S
C965 C964 1.392 . S
C965 H977 0.929 . S
C966 C962 1.531 . S
C966 H978 0.960 . S
C966 H979 0.962 . S
C966 H980 0.960 . S
C967 C964 1.511 . S
C967 H981 0.961 . S
C967 H982 0.961 . S
C967 H983 0.961 . S
C968 C969 1.370 . S
C968 C970 1.363 . S
C968 H984 0.931 . S
C969 C968 1.370 . S
C969 C973 1.408 . S
C970 C968 1.363 . S
C970 C971 1.370 . S
C970 C974 1.524 . S
C971 C963 1.503 . S
C971 C970 1.370 . S
C971 C972 1.403 . S
C972 C971 1.403 . S
C972 C973 1.404 . S
C972 C975 1.539 . S
C973 C969 1.408 . S
C973 C972 1.404 . S
C973 H985 0.930 . S
C974 C970 1.524 . S
C974 H986 0.956 . S
C974 H987 0.961 . S
C974 H988 0.961 . S
C975 C972 1.539 . S
C975 H989 0.958 . S
C975 H990 0.961 . S
C975 H991 0.960 . S
H976 C960 0.931 1_455 S
H977 C965 0.929 . S
H978 C966 0.960 . S
H979 C966 0.962 . S
H980 C966 0.960 . S
H981 C967 0.961 . S
H982 C967 0.961 . S
H983 C967 0.961 . S
H984 C968 0.931 . S
H985 C973 0.930 . S
H986 C974 0.956 . S
H987 C974 0.961 . S
H988 C974 0.961 . S
H989 C975 0.958 . S
H990 C975 0.961 . S
H991 C975 0.960 . S
C992 C993 1.391 . S
C992 C994 1.394 . S
C992 H1008 0.931 . S
C993 C992 1.391 . S
C993 C997 1.376 . S
C994 C992 1.394 . S
C994 C995 1.369 . S
C994 C998 1.531 . S
C995 C994 1.369 . S
C995 C996 1.410 . S
C995 C1003 1.503 . S
C996 C995 1.410 . S
C996 C997 1.392 . S
C996 C999 1.511 . S
C997 C993 1.376 . S
C997 C996 1.392 . S
C997 H1009 0.929 . S
C998 C994 1.531 . S
C998 H1010 0.960 . S
C998 H1011 0.962 . S
C998 H1012 0.960 . S
C999 C996 1.511 . S
C999 H1013 0.961 . S
C999 H1014 0.961 . S
C999 H1015 0.961 . S
C1000 C1001 1.370 . S
C1000 C1002 1.363 . S
C1000 H1016 0.931 . S
C1001 C1000 1.370 . S
C1001 C1005 1.408 . S
C1002 C1000 1.363 . S
C1002 C1003 1.370 . S
C1002 C1006 1.524 . S
C1003 C995 1.503 . S
C1003 C1002 1.370 . S
C1003 C1004 1.403 . S
C1004 C1003 1.403 . S
C1004 C1005 1.404 . S
C1004 C1007 1.539 . S
C1005 C1001 1.408 . S
C1005 C1004 1.404 . S
C1005 H1017 0.930 . S
C1006 C1002 1.524 . S
C1006 H1018 0.956 . S
C1006 H1019 0.961 . S
C1006 H1020 0.961 . S
C1007 C1004 1.539 . S
C1007 H1021 0.958 . S
C1007 H1022 0.961 . S
C1007 H1023 0.960 . S
H1008 C992 0.931 . S
H1009 C997 0.929 . S
H1010 C998 0.960 . S
H1011 C998 0.962 . S
H1012 C998 0.960 . S
H1013 C999 0.961 . S
H1014 C999 0.961 . S
H1015 C999 0.961 . S
H1016 C1000 0.931 . S
H1017 C1005 0.930 . S
H1018 C1006 0.956 . S
H1019 C1006 0.961 . S
H1020 C1006 0.961 . S
H1021 C1007 0.958 . S
H1022 C1007 0.961 . S
H1023 C1007 0.960 . S
C1024 C1025 1.391 . S
C1024 C1026 1.394 . S
C1024 H1040 0.931 . S
C1025 C1024 1.391 . S
C1025 C1029 1.376 . S
C1026 C1024 1.394 . S
C1026 C1027 1.369 . S
C1026 C1030 1.531 . S
C1027 C1026 1.369 . S
C1027 C1028 1.410 . S
C1027 C1035 1.503 . S
C1028 C1027 1.410 . S
C1028 C1029 1.392 . S
C1028 C1031 1.511 . S
C1029 C1025 1.376 . S
C1029 C1028 1.392 . S
C1029 H1041 0.929 . S
C1030 C1026 1.531 . S
C1030 H1042 0.960 . S
C1030 H1043 0.962 . S
C1030 H1044 0.960 . S
C1031 C1028 1.511 . S
C1031 H1045 0.961 . S
C1031 H1046 0.961 . S
C1031 H1047 0.961 . S
C1032 C1033 1.383 . S
C1032 C1034 1.363 . S
C1032 H1048 0.931 . S
C1033 C1032 1.383 . S
C1033 C1037 1.409 . S
C1034 C1032 1.363 . S
C1034 C1035 1.370 . S
C1034 C1038 1.524 . S
C1035 C1027 1.503 . S
C1035 C1034 1.370 . S
C1035 C1036 1.403 . S
C1036 C1035 1.403 . S
C1036 C1037 1.404 . S
C1036 C1039 1.539 . S
C1037 C1033 1.409 . S
C1037 C1036 1.404 . S
C1037 H1049 0.930 1_655 S
C1038 C1034 1.524 . S
C1038 H1050 0.956 . S
C1038 H1051 0.961 . S
C1038 H1052 0.961 . S
C1039 C1036 1.539 . S
C1039 H1053 0.958 . S
C1039 H1054 0.961 . S
C1039 H1055 0.960 . S
H1040 C1024 0.931 . S
H1041 C1029 0.929 . S
H1042 C1030 0.960 . S
H1043 C1030 0.962 . S
H1044 C1030 0.960 . S
H1045 C1031 0.961 . S
H1046 C1031 0.961 . S
H1047 C1031 0.961 . S
H1048 C1032 0.931 . S
H1049 C1037 0.930 1_455 S
H1050 C1038 0.956 . S
H1051 C1038 0.961 . S
H1052 C1038 0.961 . S
H1053 C1039 0.958 . S
H1054 C1039 0.961 . S
H1055 C1039 0.960 . S
C1056 C1057 1.391 . S
C1056 C1058 1.394 . S
C1056 H1072 0.931 . S
C1057 C1056 1.391 . S
C1057 C1061 1.376 . S
C1058 C1056 1.394 . S
C1058 C1059 1.369 . S
C1058 C1062 1.531 . S
C1059 C1058 1.369 . S
C1059 C1060 1.410 . S
C1059 C1067 1.503 . S
C1060 C1059 1.410 . S
C1060 C1061 1.392 . S
C1060 C1063 1.511 . S
C1061 C1057 1.376 . S
C1061 C1060 1.392 . S
C1061 H1073 0.929 . S
C1062 C1058 1.531 . S
C1062 H1074 0.960 . S
C1062 H1075 0.962 . S
C1062 H1076 0.960 . S
C1063 C1060 1.511 . S
C1063 H1077 0.961 . S
C1063 H1078 0.961 . S
C1063 H1079 0.961 . S
C1064 C1065 1.370 . S
C1064 C1066 1.363 . S
C1064 H1080 0.931 . S
C1065 C1064 1.370 . S
C1065 C1069 1.408 . S
C1066 C1064 1.363 . S
C1066 C1067 1.370 . S
C1066 C1070 1.524 . S
C1067 C1059 1.503 . S
C1067 C1066 1.370 . S
C1067 C1068 1.403 . S
C1068 C1067 1.403 . S
C1068 C1069 1.404 . S
C1068 C1071 1.539 . S
C1069 C1065 1.408 . S
C1069 C1068 1.404 . S
C1069 H1081 0.930 . S
C1070 C1066 1.524 . S
C1070 H1082 0.956 . S
C1070 H1083 0.961 . S
C1070 H1084 0.961 . S
C1071 C1068 1.539 . S
C1071 H1085 0.958 . S
C1071 H1086 0.961 . S
C1071 H1087 0.960 . S
H1072 C1056 0.931 . S
H1073 C1061 0.929 . S
H1074 C1062 0.960 . S
H1075 C1062 0.962 . S
H1076 C1062 0.960 . S
H1077 C1063 0.961 . S
H1078 C1063 0.961 . S
H1079 C1063 0.961 . S
H1080 C1064 0.931 . S
H1081 C1069 0.930 . S
H1082 C1070 0.956 . S
H1083 C1070 0.961 . S
H1084 C1070 0.961 . S
H1085 C1071 0.958 . S
H1086 C1071 0.961 . S
H1087 C1071 0.960 . S
C1088 C1089 1.391 . S
C1088 C1090 1.394 . S
C1088 H1104 0.931 1_455 S
C1089 C1088 1.391 . S
C1089 C1093 1.376 . S
C1090 C1088 1.394 . S
C1090 C1091 1.369 . S
C1090 C1094 1.531 . S
C1091 C1090 1.369 . S
C1091 C1092 1.410 . S
C1091 C1099 1.503 . S
C1092 C1091 1.410 . S
C1092 C1093 1.392 . S
C1092 C1095 1.511 . S
C1093 C1089 1.376 . S
C1093 C1092 1.392 . S
C1093 H1105 0.929 . S
C1094 C1090 1.531 . S
C1094 H1106 0.960 . S
C1094 H1107 0.962 . S
C1094 H1108 0.960 . S
C1095 C1092 1.511 . S
C1095 H1109 0.961 . S
C1095 H1110 0.961 . S
C1095 H1111 0.961 . S
C1096 C1097 1.370 . S
C1096 C1098 1.363 . S
C1096 H1112 0.931 . S
C1097 C1096 1.370 . S
C1097 C1101 1.408 . S
C1098 C1096 1.363 . S
C1098 C1099 1.370 . S
C1098 C1102 1.524 . S
C1099 C1091 1.503 . S
C1099 C1098 1.370 . S
C1099 C1100 1.403 . S
C1100 C1099 1.403 . S
C1100 C1101 1.404 . S
C1100 C1103 1.539 . S
C1101 C1097 1.408 . S
C1101 C1100 1.404 . S
C1101 H1113 0.930 . S
C1102 C1098 1.524 . S
C1102 H1114 0.956 . S
C1102 H1115 0.961 . S
C1102 H1116 0.961 . S
C1103 C1100 1.539 . S
C1103 H1117 0.958 . S
C1103 H1118 0.961 . S
C1103 H1119 0.960 . S
H1104 C1088 0.931 1_655 S
H1105 C1093 0.929 . S
H1106 C1094 0.960 . S
H1107 C1094 0.962 . S
H1108 C1094 0.960 . S
H1109 C1095 0.961 . S
H1110 C1095 0.961 . S
H1111 C1095 0.961 . S
H1112 C1096 0.931 . S
H1113 C1101 0.930 . S
H1114 C1102 0.956 . S
H1115 C1102 0.961 . S
H1116 C1102 0.961 . S
H1117 C1103 0.958 . S
H1118 C1103 0.961 . S
H1119 C1103 0.960 . S
C1120 C1121 1.391 . S
C1120 C1122 1.394 . S
C1120 H1136 0.931 . S
C1121 C1120 1.391 . S
C1121 C1125 1.376 . S
C1122 C1120 1.394 . S
C1122 C1123 1.369 . S
C1122 C1126 1.531 . S
C1123 C1122 1.369 . S
C1123 C1124 1.410 . S
C1123 C1131 1.503 . S
C1124 C1123 1.410 . S
C1124 C1125 1.392 . S
C1124 C1127 1.511 . S
C1125 C1121 1.376 . S
C1125 C1124 1.392 . S
C1125 H1137 0.929 . S
C1126 C1122 1.531 . S
C1126 H1138 0.960 . S
C1126 H1139 0.962 . S
C1126 H1140 0.960 . S
C1127 C1124 1.511 . S
C1127 H1141 0.961 . S
C1127 H1142 0.961 . S
C1127 H1143 0.961 . S
C1128 C1129 1.370 . S
C1128 C1130 1.363 . S
C1128 H1144 0.931 . S
C1129 C1128 1.370 . S
C1129 C1133 1.408 . S
C1130 C1128 1.363 . S
C1130 C1131 1.370 . S
C1130 C1134 1.524 . S
C1131 C1123 1.503 . S
C1131 C1130 1.370 . S
C1131 C1132 1.403 . S
C1132 C1131 1.403 . S
C1132 C1133 1.404 . S
C1132 C1135 1.539 . S
C1133 C1129 1.408 . S
C1133 C1132 1.404 . S
C1133 H1145 0.930 . S
C1134 C1130 1.524 . S
C1134 H1146 0.956 . S
C1134 H1147 0.961 . S
C1134 H1148 0.961 . S
C1135 C1132 1.539 . S
C1135 H1149 0.958 . S
C1135 H1150 0.961 . S
C1135 H1151 0.960 . S
H1136 C1120 0.931 . S
H1137 C1125 0.929 . S
H1138 C1126 0.960 . S
H1139 C1126 0.962 . S
H1140 C1126 0.960 . S
H1141 C1127 0.961 . S
H1142 C1127 0.961 . S
H1143 C1127 0.961 . S
H1144 C1128 0.931 . S
H1145 C1133 0.930 . S
H1146 C1134 0.956 . S
H1147 C1134 0.961 . S
H1148 C1134 0.961 . S
H1149 C1135 0.958 . S
H1150 C1135 0.961 . S
H1151 C1135 0.960 . S
C1152 C1153 1.392 . S
C1152 C1154 1.394 . S
C1152 H1168 0.931 1_455 S
C1153 C1152 1.392 . S
C1153 C1157 1.385 . S
C1154 C1152 1.394 . S
C1154 C1155 1.369 . S
C1154 C1158 1.531 . S
C1155 C1154 1.369 . S
C1155 C1156 1.410 . S
C1155 C1163 1.503 . S
C1156 C1155 1.410 . S
C1156 C1157 1.392 . S
C1156 C1159 1.511 . S
C1157 C1153 1.385 . S
C1157 C1156 1.392 . S
C1157 H1169 0.929 . S
C1158 C1154 1.531 . S
C1158 H1170 0.960 . S
C1158 H1171 0.962 . S
C1158 H1172 0.960 . S
C1159 C1156 1.511 . S
C1159 H1173 0.961 . S
C1159 H1174 0.961 . S
C1159 H1175 0.961 . S
C1160 C1161 1.370 . S
C1160 C1162 1.363 . S
C1160 H1176 0.931 . S
C1161 C1160 1.370 . S
C1161 C1165 1.408 . S
C1162 C1160 1.363 . S
C1162 C1163 1.370 . S
C1162 C1166 1.524 . S
C1163 C1155 1.503 . S
C1163 C1162 1.370 . S
C1163 C1164 1.403 . S
C1164 C1163 1.403 . S
C1164 C1165 1.404 . S
C1164 C1167 1.539 . S
C1165 C1161 1.408 . S
C1165 C1164 1.404 . S
C1165 H1177 0.930 . S
C1166 C1162 1.524 . S
C1166 H1178 0.956 . S
C1166 H1179 0.961 . S
C1166 H1180 0.961 . S
C1167 C1164 1.539 . S
C1167 H1181 0.958 . S
C1167 H1182 0.961 . S
C1167 H1183 0.960 . S
H1168 C1152 0.931 1_655 S
H1169 C1157 0.929 . S
H1170 C1158 0.960 . S
H1171 C1158 0.962 . S
H1172 C1158 0.960 . S
H1173 C1159 0.961 . S
H1174 C1159 0.961 . S
H1175 C1159 0.961 . S
H1176 C1160 0.931 . S
H1177 C1165 0.930 . S
H1178 C1166 0.956 . S
H1179 C1166 0.961 . S
H1180 C1166 0.961 . S
H1181 C1167 0.958 . S
H1182 C1167 0.961 . S
H1183 C1167 0.960 . S
C1184 C1185 1.391 . S
C1184 C1186 1.394 . S
C1184 H1200 0.931 . S
C1185 C1184 1.391 . S
C1185 C1189 1.376 . S
C1186 C1184 1.394 . S
C1186 C1187 1.369 . S
C1186 C1190 1.531 . S
C1187 C1186 1.369 . S
C1187 C1188 1.410 . S
C1187 C1195 1.503 . S
C1188 C1187 1.410 . S
C1188 C1189 1.392 . S
C1188 C1191 1.511 . S
C1189 C1185 1.376 . S
C1189 C1188 1.392 . S
C1189 H1201 0.929 . S
C1190 C1186 1.531 . S
C1190 H1202 0.960 . S
C1190 H1203 0.962 . S
C1190 H1204 0.960 . S
C1191 C1188 1.511 . S
C1191 H1205 0.961 . S
C1191 H1206 0.961 . S
C1191 H1207 0.961 . S
C1192 C1193 1.370 . S
C1192 C1194 1.363 . S
C1192 H1208 0.931 . S
C1193 C1192 1.370 . S
C1193 C1197 1.408 . S
C1194 C1192 1.363 . S
C1194 C1195 1.370 . S
C1194 C1198 1.524 . S
C1195 C1187 1.503 . S
C1195 C1194 1.370 . S
C1195 C1196 1.403 . S
C1196 C1195 1.403 . S
C1196 C1197 1.404 . S
C1196 C1199 1.539 . S
C1197 C1193 1.408 . S
C1197 C1196 1.404 . S
C1197 H1209 0.930 . S
C1198 C1194 1.524 . S
C1198 H1210 0.956 . S
C1198 H1211 0.961 . S
C1198 H1212 0.961 . S
C1199 C1196 1.539 . S
C1199 H1213 0.958 . S
C1199 H1214 0.961 . S
C1199 H1215 0.960 . S
H1200 C1184 0.931 . S
H1201 C1189 0.929 . S
H1202 C1190 0.960 . S
H1203 C1190 0.962 . S
H1204 C1190 0.960 . S
H1205 C1191 0.961 . S
H1206 C1191 0.961 . S
H1207 C1191 0.961 . S
H1208 C1192 0.931 . S
H1209 C1197 0.930 . S
H1210 C1198 0.956 . S
H1211 C1198 0.961 . S
H1212 C1198 0.961 . S
H1213 C1199 0.958 . S
H1214 C1199 0.961 . S
H1215 C1199 0.960 . S
C1216 C1217 1.391 . S
C1216 C1218 1.394 . S
C1216 H1232 0.931 . S
C1217 C1216 1.391 . S
C1217 C1221 1.376 . S
C1218 C1216 1.394 . S
C1218 C1219 1.369 . S
C1218 C1222 1.531 . S
C1219 C1218 1.369 . S
C1219 C1220 1.410 . S
C1219 C1227 1.503 . S
C1220 C1219 1.410 . S
C1220 C1221 1.392 . S
C1220 C1223 1.511 . S
C1221 C1217 1.376 . S
C1221 C1220 1.392 . S
C1221 H1233 0.929 . S
C1222 C1218 1.531 . S
C1222 H1234 0.960 . S
C1222 H1235 0.962 . S
C1222 H1236 0.960 . S
C1223 C1220 1.511 . S
C1223 H1237 0.961 . S
C1223 H1238 0.961 . S
C1223 H1239 0.961 . S
C1224 C1225 1.383 . S
C1224 C1226 1.363 . S
C1224 H1240 0.931 . S
C1225 C1224 1.383 . S
C1225 C1229 1.409 . S
C1226 C1224 1.363 . S
C1226 C1227 1.370 . S
C1226 C1230 1.524 . S
C1227 C1219 1.503 . S
C1227 C1226 1.370 . S
C1227 C1228 1.403 . S
C1228 C1227 1.403 . S
C1228 C1229 1.404 . S
C1228 C1231 1.539 . S
C1229 C1225 1.409 . S
C1229 C1228 1.404 . S
C1229 H1241 0.930 1_655 S
C1230 C1226 1.524 . S
C1230 H1242 0.956 . S
C1230 H1243 0.961 . S
C1230 H1244 0.961 . S
C1231 C1228 1.539 . S
C1231 H1245 0.958 . S
C1231 H1246 0.961 . S
C1231 H1247 0.960 . S
H1232 C1216 0.931 . S
H1233 C1221 0.929 . S
H1234 C1222 0.960 . S
H1235 C1222 0.962 . S
H1236 C1222 0.960 . S
H1237 C1223 0.961 . S
H1238 C1223 0.961 . S
H1239 C1223 0.961 . S
H1240 C1224 0.931 . S
H1241 C1229 0.930 1_455 S
H1242 C1230 0.956 . S
H1243 C1230 0.961 . S
H1244 C1230 0.961 . S
H1245 C1231 0.958 . S
H1246 C1231 0.961 . S
H1247 C1231 0.960 . S
C1248 C1249 1.391 . S
C1248 C1250 1.394 . S
C1248 H1264 0.931 . S
C1249 C1248 1.391 . S
C1249 C1253 1.376 . S
C1250 C1248 1.394 . S
C1250 C1251 1.369 . S
C1250 C1254 1.531 . S
C1251 C1250 1.369 . S
C1251 C1252 1.410 . S
C1251 C1259 1.503 . S
C1252 C1251 1.410 . S
C1252 C1253 1.392 . S
C1252 C1255 1.511 . S
C1253 C1249 1.376 . S
C1253 C1252 1.392 . S
C1253 H1265 0.929 . S
C1254 C1250 1.531 . S
C1254 H1266 0.960 . S
C1254 H1267 0.962 . S
C1254 H1268 0.960 . S
C1255 C1252 1.511 . S
C1255 H1269 0.961 . S
C1255 H1270 0.961 . S
C1255 H1271 0.961 . S
C1256 C1257 1.370 . S
C1256 C1258 1.363 . S
C1256 H1272 0.931 . S
C1257 C1256 1.370 . S
C1257 C1261 1.408 . S
C1258 C1256 1.363 . S
C1258 C1259 1.370 . S
C1258 C1262 1.524 . S
C1259 C1251 1.503 . S
C1259 C1258 1.370 . S
C1259 C1260 1.403 . S
C1260 C1259 1.403 . S
C1260 C1261 1.404 . S
C1260 C1263 1.539 . S
C1261 C1257 1.408 . S
C1261 C1260 1.404 . S
C1261 H1273 0.930 . S
C1262 C1258 1.524 . S
C1262 H1274 0.956 . S
C1262 H1275 0.961 . S
C1262 H1276 0.961 . S
C1263 C1260 1.539 . S
C1263 H1277 0.958 . S
C1263 H1278 0.961 . S
C1263 H1279 0.960 . S
H1264 C1248 0.931 . S
H1265 C1253 0.929 . S
H1266 C1254 0.960 . S
H1267 C1254 0.962 . S
H1268 C1254 0.960 . S
H1269 C1255 0.961 . S
H1270 C1255 0.961 . S
H1271 C1255 0.961 . S
H1272 C1256 0.931 . S
H1273 C1261 0.930 . S
H1274 C1262 0.956 . S
H1275 C1262 0.961 . S
H1276 C1262 0.961 . S
H1277 C1263 0.958 . S
H1278 C1263 0.961 . S
H1279 C1263 0.960 . S
C1280 C1281 1.391 . S
C1280 C1282 1.394 . S
C1280 H1296 0.931 . S
C1281 C1280 1.391 . S
C1281 C1285 1.376 . S
C1282 C1280 1.394 . S
C1282 C1283 1.369 . S
C1282 C1286 1.531 . S
C1283 C1282 1.369 . S
C1283 C1284 1.410 . S
C1283 C1291 1.503 . S
C1284 C1283 1.410 . S
C1284 C1285 1.392 . S
C1284 C1287 1.511 . S
C1285 C1281 1.376 . S
C1285 C1284 1.392 . S
C1285 H1297 0.929 . S
C1286 C1282 1.531 . S
C1286 H1298 0.960 . S
C1286 H1299 0.962 . S
C1286 H1300 0.960 . S
C1287 C1284 1.511 . S
C1287 H1301 0.961 . S
C1287 H1302 0.961 . S
C1287 H1303 0.961 . S
C1288 C1289 1.384 . S
C1288 C1290 1.363 . S
C1288 H1304 0.931 . S
C1289 C1288 1.384 . S
C1289 C1293 1.408 1_655 S
C1290 C1288 1.363 . S
C1290 C1291 1.370 . S
C1290 C1294 1.524 . S
C1291 C1283 1.503 . S
C1291 C1290 1.370 . S
C1291 C1292 1.403 . S
C1292 C1291 1.403 . S
C1292 C1293 1.386 1_655 S
C1292 C1295 1.539 . S
C1293 C1289 1.408 1_455 S
C1293 C1292 1.386 1_455 S
C1293 H1305 0.947 . S
C1294 C1290 1.524 . S
C1294 H1306 0.956 . S
C1294 H1307 0.961 . S
C1294 H1308 0.961 . S
C1295 C1292 1.539 . S
C1295 H1309 0.958 . S
C1295 H1310 0.961 . S
C1295 H1311 0.960 . S
H1296 C1280 0.931 . S
H1297 C1285 0.929 . S
H1298 C1286 0.960 . S
H1299 C1286 0.962 . S
H1300 C1286 0.960 . S
H1301 C1287 0.961 . S
H1302 C1287 0.961 . S
H1303 C1287 0.961 . S
H1304 C1288 0.931 . S
H1305 C1293 0.947 . S
H1306 C1294 0.956 . S
H1307 C1294 0.961 . S
H1308 C1294 0.961 . S
H1309 C1295 0.958 . S
H1310 C1295 0.961 . S
H1311 C1295 0.960 . S
C1312 C1313 1.391 . S
C1312 C1314 1.394 . S
C1312 H1328 0.931 . S
C1313 C1312 1.391 . S
C1313 C1317 1.376 . S
C1314 C1312 1.394 . S
C1314 C1315 1.369 . S
C1314 C1318 1.531 . S
C1315 C1314 1.369 . S
C1315 C1316 1.410 . S
C1315 C1323 1.503 . S
C1316 C1315 1.410 . S
C1316 C1317 1.392 . S
C1316 C1319 1.511 . S
C1317 C1313 1.376 . S
C1317 C1316 1.392 . S
C1317 H1329 0.929 . S
C1318 C1314 1.531 . S
C1318 H1330 0.960 . S
C1318 H1331 0.962 . S
C1318 H1332 0.960 . S
C1319 C1316 1.511 . S
C1319 H1333 0.961 . S
C1319 H1334 0.961 . S
C1319 H1335 0.961 . S
C1320 C1321 1.370 . S
C1320 C1322 1.363 . S
C1320 H1336 0.931 . S
C1321 C1320 1.370 . S
C1321 C1325 1.408 . S
C1322 C1320 1.363 . S
C1322 C1323 1.370 . S
C1322 C1326 1.524 . S
C1323 C1315 1.503 . S
C1323 C1322 1.370 . S
C1323 C1324 1.403 . S
C1324 C1323 1.403 . S
C1324 C1325 1.404 . S
C1324 C1327 1.539 . S
C1325 C1321 1.408 . S
C1325 C1324 1.404 . S
C1325 H1337 0.930 . S
C1326 C1322 1.524 . S
C1326 H1338 0.956 . S
C1326 H1339 0.961 . S
C1326 H1340 0.961 . S
C1327 C1324 1.539 . S
C1327 H1341 0.958 . S
C1327 H1342 0.961 . S
C1327 H1343 0.960 . S
H1328 C1312 0.931 . S
H1329 C1317 0.929 . S
H1330 C1318 0.960 . S
H1331 C1318 0.962 . S
H1332 C1318 0.960 . S
H1333 C1319 0.961 . S
H1334 C1319 0.961 . S
H1335 C1319 0.961 . S
H1336 C1320 0.931 . S
H1337 C1325 0.930 . S
H1338 C1326 0.956 . S
H1339 C1326 0.961 . S
H1340 C1326 0.961 . S
H1341 C1327 0.958 . S
H1342 C1327 0.961 . S
H1343 C1327 0.960 . S
C1344 C1345 1.391 . S
C1344 C1346 1.394 . S
C1344 H1360 0.931 . S
C1345 C1344 1.391 . S
C1345 C1349 1.376 . S
C1346 C1344 1.394 . S
C1346 C1347 1.369 . S
C1346 C1350 1.531 . S
C1347 C1346 1.369 . S
C1347 C1348 1.410 . S
C1347 C1355 1.503 . S
C1348 C1347 1.410 . S
C1348 C1349 1.392 . S
C1348 C1351 1.511 . S
C1349 C1345 1.376 . S
C1349 C1348 1.392 . S
C1349 H1361 0.929 . S
C1350 C1346 1.531 . S
C1350 H1362 0.960 . S
C1350 H1363 0.962 . S
C1350 H1364 0.960 . S
C1351 C1348 1.511 . S
C1351 H1365 0.961 . S
C1351 H1366 0.961 . S
C1351 H1367 0.961 . S
C1352 C1353 1.370 . S
C1352 C1354 1.363 . S
C1352 H1368 0.931 . S
C1353 C1352 1.370 . S
C1353 C1357 1.408 . S
C1354 C1352 1.363 . S
C1354 C1355 1.370 . S
C1354 C1358 1.524 . S
C1355 C1347 1.503 . S
C1355 C1354 1.370 . S
C1355 C1356 1.403 . S
C1356 C1355 1.403 . S
C1356 C1357 1.404 . S
C1356 C1359 1.539 . S
C1357 C1353 1.408 . S
C1357 C1356 1.404 . S
C1357 H1369 0.930 1_455 S
C1358 C1354 1.524 . S
C1358 H1370 0.956 . S
C1358 H1371 0.961 . S
C1358 H1372 0.961 . S
C1359 C1356 1.539 . S
C1359 H1373 0.958 . S
C1359 H1374 0.961 . S
C1359 H1375 0.960 . S
H1360 C1344 0.931 . S
H1361 C1349 0.929 . S
H1362 C1350 0.960 . S
H1363 C1350 0.962 . S
H1364 C1350 0.960 . S
H1365 C1351 0.961 . S
H1366 C1351 0.961 . S
H1367 C1351 0.961 . S
H1368 C1352 0.931 . S
H1369 C1357 0.930 1_655 S
H1370 C1358 0.956 . S
H1371 C1358 0.961 . S
H1372 C1358 0.961 . S
H1373 C1359 0.958 . S
H1374 C1359 0.961 . S
H1375 C1359 0.960 . S
C1376 C1377 1.391 . S
C1376 C1378 1.394 . S
C1376 H1392 0.931 . S
C1377 C1376 1.391 . S
C1377 C1381 1.376 . S
C1378 C1376 1.394 . S
C1378 C1379 1.369 . S
C1378 C1382 1.531 . S
C1379 C1378 1.369 . S
C1379 C1380 1.410 . S
C1379 C1387 1.503 . S
C1380 C1379 1.410 . S
C1380 C1381 1.392 . S
C1380 C1383 1.511 . S
C1381 C1377 1.376 . S
C1381 C1380 1.392 . S
C1381 H1393 0.929 . S
C1382 C1378 1.531 . S
C1382 H1394 0.960 . S
C1382 H1395 0.962 . S
C1382 H1396 0.960 . S
C1383 C1380 1.511 . S
C1383 H1397 0.961 . S
C1383 H1398 0.961 . S
C1383 H1399 0.961 . S
C1384 C1385 1.370 . S
C1384 C1386 1.363 . S
C1384 H1400 0.931 . S
C1385 C1384 1.370 . S
C1385 C1389 1.408 . S
C1386 C1384 1.363 . S
C1386 C1387 1.370 . S
C1386 C1390 1.524 . S
C1387 C1379 1.503 . S
C1387 C1386 1.370 . S
C1387 C1388 1.403 . S
C1388 C1387 1.403 . S
C1388 C1389 1.404 . S
C1388 C1391 1.539 . S
C1389 C1385 1.408 . S
C1389 C1388 1.404 . S
C1389 H1401 0.930 . S
C1390 C1386 1.524 . S
C1390 H1402 0.956 . S
C1390 H1403 0.961 . S
C1390 H1404 0.961 . S
C1391 C1388 1.539 . S
C1391 H1405 0.958 . S
C1391 H1406 0.961 . S
C1391 H1407 0.960 . S
H1392 C1376 0.931 . S
H1393 C1381 0.929 . S
H1394 C1382 0.960 . S
H1395 C1382 0.962 . S
H1396 C1382 0.960 . S
H1397 C1383 0.961 . S
H1398 C1383 0.961 . S
H1399 C1383 0.961 . S
H1400 C1384 0.931 . S
H1401 C1389 0.930 . S
H1402 C1390 0.956 . S
H1403 C1390 0.961 . S
H1404 C1390 0.961 . S
H1405 C1391 0.958 . S
H1406 C1391 0.961 . S
H1407 C1391 0.960 . S
C1408 C1409 1.391 . S
C1408 C1410 1.394 . S
C1408 H1424 0.931 . S
C1409 C1408 1.391 . S
C1409 C1413 1.376 . S
C1410 C1408 1.394 . S
C1410 C1411 1.369 . S
C1410 C1414 1.531 . S
C1411 C1410 1.369 . S
C1411 C1412 1.410 . S
C1411 C1419 1.503 . S
C1412 C1411 1.410 . S
C1412 C1413 1.392 . S
C1412 C1415 1.511 . S
C1413 C1409 1.376 . S
C1413 C1412 1.392 . S
C1413 H1425 0.929 1_455 S
C1414 C1410 1.531 . S
C1414 H1426 0.960 . S
C1414 H1427 0.962 . S
C1414 H1428 0.960 . S
C1415 C1412 1.511 . S
C1415 H1429 0.961 . S
C1415 H1430 0.961 . S
C1415 H1431 0.961 . S
C1416 C1417 1.370 . S
C1416 C1418 1.363 . S
C1416 H1432 0.931 . S
C1417 C1416 1.370 . S
C1417 C1421 1.408 . S
C1418 C1416 1.363 . S
C1418 C1419 1.370 . S
C1418 C1422 1.524 . S
C1419 C1411 1.503 . S
C1419 C1418 1.370 . S
C1419 C1420 1.403 . S
C1420 C1419 1.403 . S
C1420 C1421 1.404 . S
C1420 C1423 1.539 . S
C1421 C1417 1.408 . S
C1421 C1420 1.404 . S
C1421 H1433 0.930 . S
C1422 C1418 1.524 . S
C1422 H1434 0.956 . S
C1422 H1435 0.961 . S
C1422 H1436 0.961 . S
C1423 C1420 1.539 . S
C1423 H1437 0.958 . S
C1423 H1438 0.961 . S
C1423 H1439 0.960 . S
H1424 C1408 0.931 . S
H1425 C1413 0.929 1_655 S
H1426 C1414 0.960 . S
H1427 C1414 0.962 . S
H1428 C1414 0.960 . S
H1429 C1415 0.961 . S
H1430 C1415 0.961 . S
H1431 C1415 0.961 . S
H1432 C1416 0.931 . S
H1433 C1421 0.930 . S
H1434 C1422 0.956 . S
H1435 C1422 0.961 . S
H1436 C1422 0.961 . S
H1437 C1423 0.958 . S
H1438 C1423 0.961 . S
H1439 C1423 0.960 . S
C1440 C1441 1.391 . S
C1440 C1442 1.394 . S
C1440 H1456 0.931 . S
C1441 C1440 1.391 . S
C1441 C1445 1.360 1_655 S
C1442 C1440 1.394 . S
C1442 C1443 1.369 . S
C1442 C1446 1.531 . S
C1443 C1442 1.369 . S
C1443 C1444 1.410 1_655 S
C1443 C1451 1.503 1_655 S
C1444 C1443 1.410 1_455 S
C1444 C1445 1.399 . S
C1444 C1447 1.511 . S
C1445 C1441 1.360 1_455 S
C1445 C1444 1.399 . S
C1445 H1457 0.938 . S
C1446 C1442 1.531 . S
C1446 H1458 0.960 . S
C1446 H1459 0.962 . S
C1446 H1460 0.960 . S
C1447 C1444 1.511 . S
C1447 H1461 0.961 . S
C1447 H1462 0.961 . S
C1447 H1463 0.961 . S
C1448 C1449 1.370 . S
C1448 C1450 1.363 . S
C1448 H1464 0.931 . S
C1449 C1448 1.370 . S
C1449 C1453 1.408 . S
C1450 C1448 1.363 . S
C1450 C1451 1.370 . S
C1450 C1454 1.524 1_455 S
C1451 C1443 1.503 1_455 S
C1451 C1450 1.370 . S
C1451 C1452 1.403 . S
C1452 C1451 1.403 . S
C1452 C1453 1.404 . S
C1452 C1455 1.539 . S
C1453 C1449 1.408 . S
C1453 C1452 1.404 . S
C1453 H1465 0.930 . S
C1454 C1450 1.524 1_655 S
C1454 H1466 0.956 . S
C1454 H1467 0.968 . S
C1454 H1468 0.961 . S
C1455 C1452 1.539 . S
C1455 H1469 0.958 . S
C1455 H1470 0.961 . S
C1455 H1471 0.960 . S
H1456 C1440 0.931 . S
H1457 C1445 0.938 . S
H1458 C1446 0.960 . S
H1459 C1446 0.962 . S
H1460 C1446 0.960 . S
H1461 C1447 0.961 . S
H1462 C1447 0.961 . S
H1463 C1447 0.961 . S
H1464 C1448 0.931 . S
H1465 C1453 0.930 . S
H1466 C1454 0.956 . S
H1467 C1454 0.968 . S
H1468 C1454 0.961 . S
H1469 C1455 0.958 . S
H1470 C1455 0.961 . S
H1471 C1455 0.960 . S
C1472 C1473 1.391 . S
C1472 C1474 1.394 . S
C1472 H1488 0.931 . S
C1473 C1472 1.391 . S
C1473 C1477 1.376 . S
C1474 C1472 1.394 . S
C1474 C1475 1.369 . S
C1474 C1478 1.531 . S
C1475 C1474 1.369 . S
C1475 C1476 1.410 . S
C1475 C1483 1.503 1_565 S
C1476 C1475 1.410 . S
C1476 C1477 1.392 . S
C1476 C1479 1.511 1_565 S
C1477 C1473 1.376 . S
C1477 C1476 1.392 . S
C1477 H1489 0.929 . S
C1478 C1474 1.531 . S
C1478 H1490 0.960 . S
C1478 H1491 0.962 . S
C1478 H1492 0.960 . S
C1479 C1476 1.511 1_545 S
C1479 H1493 0.961 . S
C1479 H1494 0.961 . S
C1479 H1495 0.961 . S
C1480 C1481 1.370 . S
C1480 C1482 1.363 . S
C1480 H1496 0.931 . S
C1481 C1480 1.370 . S
C1481 C1485 1.408 . S
C1482 C1480 1.363 . S
C1482 C1483 1.370 . S
C1482 C1486 1.524 . S
C1483 C1475 1.503 1_545 S
C1483 C1482 1.370 . S
C1483 C1484 1.403 . S
C1484 C1483 1.403 . S
C1484 C1485 1.404 . S
C1484 C1487 1.539 . S
C1485 C1481 1.408 . S
C1485 C1484 1.404 . S
C1485 H1497 0.930 . S
C1486 C1482 1.524 . S
C1486 H1498 0.956 1_545 S
C1486 H1499 0.970 . S
C1486 H1500 0.961 . S
C1487 C1484 1.539 . S
C1487 H1501 0.958 . S
C1487 H1502 0.961 . S
C1487 H1503 0.960 . S
H1488 C1472 0.931 . S
H1489 C1477 0.929 . S
H1490 C1478 0.960 . S
H1491 C1478 0.962 . S
H1492 C1478 0.960 . S
H1493 C1479 0.961 . S
H1494 C1479 0.961 . S
H1495 C1479 0.961 . S
H1496 C1480 0.931 . S
H1497 C1485 0.930 . S
H1498 C1486 0.956 1_565 S
H1499 C1486 0.970 . S
H1500 C1486 0.961 . S
H1501 C1487 0.958 . S
H1502 C1487 0.961 . S
H1503 C1487 0.960 . S
C1504 C1505 1.391 . S
C1504 C1506 1.394 1_655 S
C1504 H1520 0.931 1_655 S
C1505 C1504 1.391 . S
C1505 C1509 1.376 . S
C1506 C1504 1.394 1_455 S
C1506 C1507 1.369 1_455 S
C1506 C1510 1.531 . S
C1507 C1506 1.369 1_655 S
C1507 C1508 1.410 . S
C1507 C1515 1.503 1_644 S
C1508 C1507 1.410 . S
C1508 C1509 1.392 . S
C1508 C1511 1.525 1_554 S
C1509 C1505 1.376 . S
C1509 C1508 1.392 . S
C1509 H1521 0.929 . S
C1510 C1506 1.531 . S
C1510 H1522 0.960 1_545 S
C1510 H1523 0.962 . S
C1510 H1524 0.960 . S
C1511 C1508 1.525 1_556 S
C1511 H1525 0.974 . S
C1511 H1526 0.949 1_545 S
C1511 H1527 0.946 1_545 S
C1512 C1513 1.370 . S
C1512 C1514 1.363 . S
C1512 H1528 0.931 . S
C1513 C1512 1.370 . S
C1513 C1517 1.387 1_556 S
C1514 C1512 1.363 . S
C1514 C1515 1.370 . S
C1514 C1518 1.524 1_565 S
C1515 C1507 1.503 1_466 S
C1515 C1514 1.370 . S
C1515 C1516 1.403 1_556 S
C1516 C1515 1.403 1_554 S
C1516 C1517 1.414 . S
C1516 C1519 1.539 1_455 S
C1517 C1513 1.387 1_554 S
C1517 C1516 1.414 . S
C1517 H1529 0.941 . S
C1518 C1514 1.524 1_545 S
C1518 H1530 0.956 . S
C1518 H1531 0.961 . S
C1518 H1532 0.961 . S
C1519 C1516 1.539 1_655 S
C1519 H1533 0.958 . S
C1519 H1534 0.961 . S
C1519 H1535 0.960 . S
H1520 C1504 0.931 1_455 S
H1521 C1509 0.929 . S
H1522 C1510 0.960 1_565 S
H1523 C1510 0.962 . S
H1524 C1510 0.960 . S
H1525 C1511 0.974 . S
H1526 C1511 0.949 1_565 S
H1527 C1511 0.946 1_565 S
H1528 C1512 0.931 . S
H1529 C1517 0.941 . S
H1530 C1518 0.956 . S
H1531 C1518 0.961 . S
H1532 C1518 0.961 . S
H1533 C1519 0.958 . S
H1534 C1519 0.961 . S
H1535 C1519 0.960 . S
C1536 C1537 1.391 1_556 S
C1536 C1538 1.394 . S
C1536 H1552 0.931 . S
C1537 C1536 1.391 1_554 S
C1537 C1541 1.376 . S
C1538 C1536 1.394 . S
C1538 C1539 1.369 1_556 S
C1538 C1542 1.531 . S
C1539 C1538 1.369 1_554 S
C1539 C1540 1.410 . S
C1539 C1547 1.503 1_554 S
C1540 C1539 1.410 . S
C1540 C1541 1.392 . S
C1540 C1543 1.511 . S
C1541 C1537 1.376 . S
C1541 C1540 1.392 . S
C1541 H1553 0.929 . S
C1542 C1538 1.531 . S
C1542 H1554 0.960 . S
C1542 H1555 0.962 . S
C1542 H1556 0.960 . S
C1543 C1540 1.511 . S
C1543 H1557 0.961 . S
C1543 H1558 0.961 . S
C1543 H1559 0.961 . S
C1544 C1545 1.370 . S
C1544 C1546 1.354 1_556 S
C1544 H1560 0.931 . S
C1545 C1544 1.370 . S
C1545 C1549 1.408 . S
C1546 C1544 1.354 1_554 S
C1546 C1547 1.361 1_554 S
C1546 C1550 1.543 . S
C1547 C1539 1.503 1_556 S
C1547 C1546 1.361 1_556 S
C1547 C1548 1.403 . S
C1548 C1547 1.403 . S
C1548 C1549 1.404 . S
C1548 C1551 1.539 . S
C1549 C1545 1.408 . S
C1549 C1548 1.404 . S
C1549 H1561 0.930 . S
C1550 C1546 1.543 . S
C1550 H1562 0.956 . S
C1550 H1563 0.961 . S
C1550 H1564 0.961 . S
C1551 C1548 1.539 . S
C1551 H1565 0.958 . S
C1551 H1566 0.961 . S
C1551 H1567 0.960 . S
H1552 C1536 0.931 . S
H1553 C1541 0.929 . S
H1554 C1542 0.960 . S
H1555 C1542 0.962 . S
H1556 C1542 0.960 . S
H1557 C1543 0.961 . S
H1558 C1543 0.961 . S
H1559 C1543 0.961 . S
H1560 C1544 0.931 . S
H1561 C1549 0.930 . S
H1562 C1550 0.956 . S
H1563 C1550 0.961 . S
H1564 C1550 0.961 . S
H1565 C1551 0.958 . S
H1566 C1551 0.961 . S
H1567 C1551 0.960 . S
C1568 C1569 1.391 . S
C1568 C1570 1.394 . S
C1568 H1584 0.931 . S
C1569 C1568 1.391 . S
C1569 C1573 1.376 . S
C1570 C1568 1.394 . S
C1570 C1571 1.369 . S
C1570 C1574 1.531 . S
C1571 C1570 1.369 . S
C1571 C1572 1.410 1_655 S
C1571 C1579 1.503 1_655 S
C1572 C1571 1.410 1_455 S
C1572 C1573 1.392 1_455 S
C1572 C1575 1.511 . S
C1573 C1569 1.376 . S
C1573 C1572 1.392 1_655 S
C1573 H1585 0.929 1_655 S
C1574 C1570 1.531 . S
C1574 H1586 0.960 . S
C1574 H1587 0.962 . S
C1574 H1588 0.960 . S
C1575 C1572 1.511 . S
C1575 H1589 0.961 . S
C1575 H1590 0.961 . S
C1575 H1591 0.961 . S
C1576 C1577 1.370 . S
C1576 C1578 1.363 1_455 S
C1576 H1592 0.939 . S
C1577 C1576 1.370 . S
C1577 C1581 1.408 . S
C1578 C1576 1.363 1_655 S
C1578 C1579 1.370 1_655 S
C1578 C1582 1.524 . S
C1579 C1571 1.503 1_455 S
C1579 C1578 1.370 1_455 S
C1579 C1580 1.403 . S
C1580 C1579 1.403 . S
C1580 C1581 1.404 . S
C1580 C1583 1.539 . S
C1581 C1577 1.408 . S
C1581 C1580 1.404 . S
C1581 H1593 0.930 . S
C1582 C1578 1.524 . S
C1582 H1594 0.956 . S
C1582 H1595 0.961 . S
C1582 H1596 0.961 . S
C1583 C1580 1.539 . S
C1583 H1597 0.958 . S
C1583 H1598 0.961 . S
C1583 H1599 0.960 . S
H1584 C1568 0.931 . S
H1585 C1573 0.929 1_455 S
H1586 C1574 0.960 . S
H1587 C1574 0.962 . S
H1588 C1574 0.960 . S
H1589 C1575 0.961 . S
H1590 C1575 0.961 . S
H1591 C1575 0.961 . S
H1592 C1576 0.939 . S
H1593 C1581 0.930 . S
H1594 C1582 0.956 . S
H1595 C1582 0.961 . S
H1596 C1582 0.961 . S
H1597 C1583 0.958 . S
H1598 C1583 0.961 . S
H1599 C1583 0.960 . S
C1600 C1601 1.391 . S
C1600 C1602 1.394 . S
C1600 H1616 0.931 . S
C1601 C1600 1.391 . S
C1601 C1605 1.376 . S
C1602 C1600 1.394 . S
C1602 C1603 1.369 . S
C1602 C1606 1.531 . S
C1603 C1602 1.369 . S
C1603 C1604 1.410 . S
C1603 C1611 1.503 1_565 S
C1604 C1603 1.410 . S
C1604 C1605 1.392 . S
C1604 C1607 1.511 1_565 S
C1605 C1601 1.376 . S
C1605 C1604 1.392 . S
C1605 H1617 0.929 . S
C1606 C1602 1.531 . S
C1606 H1618 0.960 . S
C1606 H1619 0.962 . S
C1606 H1620 0.960 . S
C1607 C1604 1.511 1_545 S
C1607 H1621 0.961 . S
C1607 H1622 0.961 . S
C1607 H1623 0.961 . S
C1608 C1609 1.370 . S
C1608 C1610 1.363 . S
C1608 H1624 0.931 . S
C1609 C1608 1.370 . S
C1609 C1613 1.408 . S
C1610 C1608 1.363 . S
C1610 C1611 1.370 . S
C1610 C1614 1.524 . S
C1611 C1603 1.503 1_545 S
C1611 C1610 1.370 . S
C1611 C1612 1.403 . S
C1612 C1611 1.403 . S
C1612 C1613 1.404 . S
C1612 C1615 1.539 1_545 S
C1613 C1609 1.408 . S
C1613 C1612 1.404 . S
C1613 H1625 0.930 . S
C1614 C1610 1.524 . S
C1614 H1626 0.956 . S
C1614 H1627 0.961 . S
C1614 H1628 0.961 . S
C1615 C1612 1.539 1_565 S
C1615 H1629 0.958 . S
C1615 H1630 0.961 1_565 S
C1615 H1631 0.960 . S
H1616 C1600 0.931 . S
H1617 C1605 0.929 . S
H1618 C1606 0.960 . S
H1619 C1606 0.962 . S
H1620 C1606 0.960 . S
H1621 C1607 0.961 . S
H1622 C1607 0.961 . S
H1623 C1607 0.961 . S
H1624 C1608 0.931 . S
H1625 C1613 0.930 . S
H1626 C1614 0.956 . S
H1627 C1614 0.961 . S
H1628 C1614 0.961 . S
H1629 C1615 0.958 . S
H1630 C1615 0.961 1_545 S
H1631 C1615 0.960 . S
C1632 C1633 1.391 . S
C1632 C1634 1.385 1_556 S
C1632 H1648 0.941 . S
C1633 C1632 1.391 . S
C1633 C1637 1.376 . S
C1634 C1632 1.385 1_554 S
C1634 C1635 1.358 1_554 S
C1634 C1638 1.551 . S
C1635 C1634 1.358 1_556 S
C1635 C1636 1.410 . S
C1635 C1643 1.503 1_556 S
C1636 C1635 1.410 . S
C1636 C1637 1.392 . S
C1636 C1639 1.511 . S
C1637 C1633 1.376 . S
C1637 C1636 1.392 . S
C1637 H1649 0.929 . S
C1638 C1634 1.551 . S
C1638 H1650 0.960 . S
C1638 H1651 0.962 . S
C1638 H1652 0.960 . S
C1639 C1636 1.511 . S
C1639 H1653 0.961 . S
C1639 H1654 0.961 . S
C1639 H1655 0.961 . S
C1640 C1641 1.370 . S
C1640 C1642 1.363 . S
C1640 H1656 0.931 . S
C1641 C1640 1.370 . S
C1641 C1645 1.408 . S
C1642 C1640 1.363 . S
C1642 C1643 1.370 . S
C1642 C1646 1.524 . S
C1643 C1635 1.503 1_554 S
C1643 C1642 1.370 . S
C1643 C1644 1.403 1_554 S
C1644 C1643 1.403 1_556 S
C1644 C1645 1.404 1_556 S
C1644 C1647 1.539 . S
C1645 C1641 1.408 . S
C1645 C1644 1.404 1_554 S
C1645 H1657 0.930 1_554 S
C1646 C1642 1.524 . S
C1646 H1658 0.956 . S
C1646 H1659 0.961 . S
C1646 H1660 0.961 . S
C1647 C1644 1.539 . S
C1647 H1661 0.958 . S
C1647 H1662 0.961 . S
C1647 H1663 0.960 . S
H1648 C1632 0.941 . S
H1649 C1637 0.929 . S
H1650 C1638 0.960 . S
H1651 C1638 0.962 . S
H1652 C1638 0.960 . S
H1653 C1639 0.961 . S
H1654 C1639 0.961 . S
H1655 C1639 0.961 . S
H1656 C1640 0.931 . S
H1657 C1645 0.930 1_556 S
H1658 C1646 0.956 . S
H1659 C1646 0.961 . S
H1660 C1646 0.961 . S
H1661 C1647 0.958 . S
H1662 C1647 0.961 . S
H1663 C1647 0.960 . S
C1664 C1665 1.391 . S
C1664 C1666 1.394 . S
C1664 H1680 0.931 . S
C1665 C1664 1.391 . S
C1665 C1669 1.376 . S
C1666 C1664 1.394 . S
C1666 C1667 1.369 . S
C1666 C1670 1.531 . S
C1667 C1666 1.369 . S
C1667 C1668 1.410 . S
C1667 C1675 1.503 . S
C1668 C1667 1.410 . S
C1668 C1669 1.392 . S
C1668 C1671 1.511 . S
C1669 C1665 1.376 . S
C1669 C1668 1.392 . S
C1669 H1681 0.929 . S
C1670 C1666 1.531 . S
C1670 H1682 0.960 . S
C1670 H1683 0.962 . S
C1670 H1684 0.960 . S
C1671 C1668 1.511 . S
C1671 H1685 0.961 . S
C1671 H1686 0.961 . S
C1671 H1687 0.961 . S
C1672 C1673 1.370 . S
C1672 C1674 1.363 . S
C1672 H1688 0.931 . S
C1673 C1672 1.370 . S
C1673 C1677 1.408 . S
C1674 C1672 1.363 . S
C1674 C1675 1.370 . S
C1674 C1678 1.524 . S
C1675 C1667 1.503 . S
C1675 C1674 1.370 . S
C1675 C1676 1.403 . S
C1676 C1675 1.403 . S
C1676 C1677 1.404 . S
C1676 C1679 1.539 . S
C1677 C1673 1.408 . S
C1677 C1676 1.404 . S
C1677 H1689 0.930 . S
C1678 C1674 1.524 . S
C1678 H1690 0.956 . S
C1678 H1691 0.961 . S
C1678 H1692 0.961 . S
C1679 C1676 1.539 . S
C1679 H1693 0.958 . S
C1679 H1694 0.961 . S
C1679 H1695 0.960 . S
H1680 C1664 0.931 . S
H1681 C1669 0.929 . S
H1682 C1670 0.960 . S
H1683 C1670 0.962 . S
H1684 C1670 0.960 . S
H1685 C1671 0.961 . S
H1686 C1671 0.961 . S
H1687 C1671 0.961 . S
H1688 C1672 0.931 . S
H1689 C1677 0.930 . S
H1690 C1678 0.956 . S
H1691 C1678 0.961 . S
H1692 C1678 0.961 . S
H1693 C1679 0.958 . S
H1694 C1679 0.961 . S
H1695 C1679 0.960 . S
C1696 C1697 1.391 . S
C1696 C1698 1.394 . S
C1696 H1712 0.931 . S
C1697 C1696 1.391 . S
C1697 C1701 1.376 . S
C1698 C1696 1.394 . S
C1698 C1699 1.369 . S
C1698 C1702 1.531 . S
C1699 C1698 1.369 . S
C1699 C1700 1.410 . S
C1699 C1707 1.503 1_455 S
C1700 C1699 1.410 . S
C1700 C1701 1.392 . S
C1700 C1703 1.511 . S
C1701 C1697 1.376 . S
C1701 C1700 1.392 . S
C1701 H1713 0.929 . S
C1702 C1698 1.531 . S
C1702 H1714 0.960 . S
C1702 H1715 0.962 1_455 S
C1702 H1716 0.960 . S
C1703 C1700 1.511 . S
C1703 H1717 0.961 . S
C1703 H1718 0.967 . S
C1703 H1719 0.961 . S
C1704 C1705 1.370 . S
C1704 C1706 1.363 . S
C1704 H1720 0.931 . S
C1705 C1704 1.370 . S
C1705 C1709 1.408 1_655 S
C1706 C1704 1.363 . S
C1706 C1707 1.370 . S
C1706 C1710 1.524 . S
C1707 C1699 1.503 1_655 S
C1707 C1706 1.370 . S
C1707 C1708 1.403 1_655 S
C1708 C1707 1.403 1_455 S
C1708 C1709 1.404 . S
C1708 C1711 1.539 . S
C1709 C1705 1.408 1_455 S
C1709 C1708 1.404 . S
C1709 H1721 0.930 . S
C1710 C1706 1.524 . S
C1710 H1722 0.956 . S
C1710 H1723 0.961 . S
C1710 H1724 0.961 . S
C1711 C1708 1.539 . S
C1711 H1725 0.958 . S
C1711 H1726 0.961 . S
C1711 H1727 0.960 . S
H1712 C1696 0.931 . S
H1713 C1701 0.929 . S
H1714 C1702 0.960 . S
H1715 C1702 0.962 1_655 S
H1716 C1702 0.960 . S
H1717 C1703 0.961 . S
H1718 C1703 0.967 . S
H1719 C1703 0.961 . S
H1720 C1704 0.931 . S
H1721 C1709 0.930 . S
H1722 C1710 0.956 . S
H1723 C1710 0.961 . S
H1724 C1710 0.961 . S
H1725 C1711 0.958 . S
H1726 C1711 0.961 . S
H1727 C1711 0.960 . S
C1728 C1729 1.391 . S
C1728 C1730 1.394 . S
C1728 H1744 0.931 . S
C1729 C1728 1.391 . S
C1729 C1733 1.376 . S
C1730 C1728 1.394 . S
C1730 C1731 1.369 . S
C1730 C1734 1.531 . S
C1731 C1730 1.369 . S
C1731 C1732 1.410 . S
C1731 C1739 1.503 . S
C1732 C1731 1.410 . S
C1732 C1733 1.392 . S
C1732 C1735 1.511 . S
C1733 C1729 1.376 . S
C1733 C1732 1.392 . S
C1733 H1745 0.929 . S
C1734 C1730 1.531 . S
C1734 H1746 0.960 . S
C1734 H1747 0.962 . S
C1734 H1748 0.960 . S
C1735 C1732 1.511 . S
C1735 H1749 0.961 . S
C1735 H1750 0.961 . S
C1735 H1751 0.961 . S
C1736 C1737 1.370 . S
C1736 C1738 1.363 . S
C1736 H1752 0.931 . S
C1737 C1736 1.370 . S
C1737 C1741 1.408 . S
C1738 C1736 1.363 . S
C1738 C1739 1.370 . S
C1738 C1742 1.524 . S
C1739 C1731 1.503 . S
C1739 C1738 1.370 . S
C1739 C1740 1.403 . S
C1740 C1739 1.403 . S
C1740 C1741 1.404 . S
C1740 C1743 1.539 . S
C1741 C1737 1.408 . S
C1741 C1740 1.404 . S
C1741 H1753 0.930 . S
C1742 C1738 1.524 . S
C1742 H1754 0.956 . S
C1742 H1755 0.961 . S
C1742 H1756 0.961 . S
C1743 C1740 1.539 . S
C1743 H1757 0.958 . S
C1743 H1758 0.961 . S
C1743 H1759 0.960 . S
H1744 C1728 0.931 . S
H1745 C1733 0.929 . S
H1746 C1734 0.960 . S
H1747 C1734 0.962 . S
H1748 C1734 0.960 . S
H1749 C1735 0.961 . S
H1750 C1735 0.961 . S
H1751 C1735 0.961 . S
H1752 C1736 0.931 . S
H1753 C1741 0.930 . S
H1754 C1742 0.956 . S
H1755 C1742 0.961 . S
H1756 C1742 0.961 . S
H1757 C1743 0.958 . S
H1758 C1743 0.961 . S
H1759 C1743 0.960 . S
C1760 C1761 1.391 . S
C1760 C1762 1.394 . S
C1760 H1776 0.931 . S
C1761 C1760 1.391 . S
C1761 C1765 1.376 . S
C1762 C1760 1.394 . S
C1762 C1763 1.369 . S
C1762 C1766 1.531 . S
C1763 C1762 1.369 . S
C1763 C1764 1.410 . S
C1763 C1771 1.503 . S
C1764 C1763 1.410 . S
C1764 C1765 1.392 . S
C1764 C1767 1.511 . S
C1765 C1761 1.376 . S
C1765 C1764 1.392 . S
C1765 H1777 0.929 . S
C1766 C1762 1.531 . S
C1766 H1778 0.960 . S
C1766 H1779 0.962 . S
C1766 H1780 0.960 . S
C1767 C1764 1.511 . S
C1767 H1781 0.961 . S
C1767 H1782 0.961 . S
C1767 H1783 0.961 . S
C1768 C1769 1.370 . S
C1768 C1770 1.363 . S
C1768 H1784 0.931 . S
C1769 C1768 1.370 . S
C1769 C1773 1.408 . S
C1770 C1768 1.363 . S
C1770 C1771 1.370 . S
C1770 C1774 1.524 . S
C1771 C1763 1.503 . S
C1771 C1770 1.370 . S
C1771 C1772 1.403 . S
C1772 C1771 1.403 . S
C1772 C1773 1.404 . S
C1772 C1775 1.539 . S
C1773 C1769 1.408 . S
C1773 C1772 1.404 . S
C1773 H1785 0.930 . S
C1774 C1770 1.524 . S
C1774 H1786 0.956 . S
C1774 H1787 0.961 . S
C1774 H1788 0.961 . S
C1775 C1772 1.539 . S
C1775 H1789 0.958 . S
C1775 H1790 0.961 . S
C1775 H1791 0.960 . S
H1776 C1760 0.931 . S
H1777 C1765 0.929 . S
H1778 C1766 0.960 . S
H1779 C1766 0.962 . S
H1780 C1766 0.960 . S
H1781 C1767 0.961 . S
H1782 C1767 0.961 . S
H1783 C1767 0.961 . S
H1784 C1768 0.931 . S
H1785 C1773 0.930 . S
H1786 C1774 0.956 . S
H1787 C1774 0.961 . S
H1788 C1774 0.961 . S
H1789 C1775 0.958 . S
H1790 C1775 0.961 . S
H1791 C1775 0.960 . S
C1792 C1793 1.391 . S
C1792 C1794 1.394 . S
C1792 H1808 0.931 . S
C1793 C1792 1.391 . S
C1793 C1797 1.376 . S
C1794 C1792 1.394 . S
C1794 C1795 1.369 . S
C1794 C1798 1.531 . S
C1795 C1794 1.369 . S
C1795 C1796 1.410 . S
C1795 C1803 1.503 . S
C1796 C1795 1.410 . S
C1796 C1797 1.392 . S
C1796 C1799 1.511 . S
C1797 C1793 1.376 . S
C1797 C1796 1.392 . S
C1797 H1809 0.929 . S
C1798 C1794 1.531 . S
C1798 H1810 0.960 . S
C1798 H1811 0.962 . S
C1798 H1812 0.960 . S
C1799 C1796 1.511 . S
C1799 H1813 0.961 . S
C1799 H1814 0.961 . S
C1799 H1815 0.961 . S
C1800 C1801 1.370 . S
C1800 C1802 1.363 . S
C1800 H1816 0.931 . S
C1801 C1800 1.370 . S
C1801 C1805 1.408 . S
C1802 C1800 1.363 . S
C1802 C1803 1.370 . S
C1802 C1806 1.524 . S
C1803 C1795 1.503 . S
C1803 C1802 1.370 . S
C1803 C1804 1.403 . S
C1804 C1803 1.403 . S
C1804 C1805 1.404 . S
C1804 C1807 1.539 . S
C1805 C1801 1.408 . S
C1805 C1804 1.404 . S
C1805 H1817 0.930 . S
C1806 C1802 1.524 . S
C1806 H1818 0.956 . S
C1806 H1819 0.961 . S
C1806 H1820 0.961 . S
C1807 C1804 1.539 . S
C1807 H1821 0.958 . S
C1807 H1822 0.961 . S
C1807 H1823 0.960 . S
H1808 C1792 0.931 . S
H1809 C1797 0.929 . S
H1810 C1798 0.960 . S
H1811 C1798 0.962 . S
H1812 C1798 0.960 . S
H1813 C1799 0.961 . S
H1814 C1799 0.961 . S
H1815 C1799 0.961 . S
H1816 C1800 0.931 . S
H1817 C1805 0.930 . S
H1818 C1806 0.956 . S
H1819 C1806 0.961 . S
H1820 C1806 0.961 . S
H1821 C1807 0.958 . S
H1822 C1807 0.961 . S
H1823 C1807 0.960 . S
C1824 C1825 1.391 . S
C1824 C1826 1.394 . S
C1824 H1840 0.931 . S
C1825 C1824 1.391 . S
C1825 C1829 1.376 . S
C1826 C1824 1.394 . S
C1826 C1827 1.369 . S
C1826 C1830 1.531 . S
C1827 C1826 1.369 . S
C1827 C1828 1.410 . S
C1827 C1835 1.503 . S
C1828 C1827 1.410 . S
C1828 C1829 1.392 . S
C1828 C1831 1.511 . S
C1829 C1825 1.376 . S
C1829 C1828 1.392 . S
C1829 H1841 0.929 . S
C1830 C1826 1.531 . S
C1830 H1842 0.960 . S
C1830 H1843 0.962 . S
C1830 H1844 0.960 . S
C1831 C1828 1.511 . S
C1831 H1845 0.961 . S
C1831 H1846 0.961 . S
C1831 H1847 0.961 . S
C1832 C1833 1.370 . S
C1832 C1834 1.363 . S
C1832 H1848 0.931 . S
C1833 C1832 1.370 . S
C1833 C1837 1.408 . S
C1834 C1832 1.363 . S
C1834 C1835 1.370 . S
C1834 C1838 1.524 . S
C1835 C1827 1.503 . S
C1835 C1834 1.370 . S
C1835 C1836 1.403 . S
C1836 C1835 1.403 . S
C1836 C1837 1.404 . S
C1836 C1839 1.539 . S
C1837 C1833 1.408 . S
C1837 C1836 1.404 . S
C1837 H1849 0.930 . S
C1838 C1834 1.524 . S
C1838 H1850 0.956 . S
C1838 H1851 0.961 . S
C1838 H1852 0.961 . S
C1839 C1836 1.539 . S
C1839 H1853 0.958 . S
C1839 H1854 0.961 . S
C1839 H1855 0.960 . S
H1840 C1824 0.931 . S
H1841 C1829 0.929 . S
H1842 C1830 0.960 . S
H1843 C1830 0.962 . S
H1844 C1830 0.960 . S
H1845 C1831 0.961 . S
H1846 C1831 0.961 . S
H1847 C1831 0.961 . S
H1848 C1832 0.931 . S
H1849 C1837 0.930 . S
H1850 C1838 0.956 . S
H1851 C1838 0.961 . S
H1852 C1838 0.961 . S
H1853 C1839 0.958 . S
H1854 C1839 0.961 . S
H1855 C1839 0.960 . S
C1856 C1857 1.391 . S
C1856 C1858 1.394 . S
C1856 H1872 0.931 . S
C1857 C1856 1.391 . S
C1857 C1861 1.376 . S
C1858 C1856 1.394 . S
C1858 C1859 1.369 . S
C1858 C1862 1.531 . S
C1859 C1858 1.369 . S
C1859 C1860 1.410 . S
C1859 C1867 1.503 1_545 S
C1860 C1859 1.410 . S
C1860 C1861 1.392 . S
C1860 C1863 1.511 . S
C1861 C1857 1.376 . S
C1861 C1860 1.392 . S
C1861 H1873 0.929 . S
C1862 C1858 1.531 . S
C1862 H1874 0.960 . S
C1862 H1875 0.965 1_545 S
C1862 H1876 0.960 . S
C1863 C1860 1.511 . S
C1863 H1877 0.961 . S
C1863 H1878 0.941 1_545 S
C1863 H1879 0.961 . S
C1864 C1865 1.370 . S
C1864 C1866 1.363 . S
C1864 H1880 0.931 . S
C1865 C1864 1.370 . S
C1865 C1869 1.408 . S
C1866 C1864 1.363 . S
C1866 C1867 1.370 . S
C1866 C1870 1.524 . S
C1867 C1859 1.503 1_565 S
C1867 C1866 1.370 . S
C1867 C1868 1.403 . S
C1868 C1867 1.403 . S
C1868 C1869 1.404 . S
C1868 C1871 1.539 1_565 S
C1869 C1865 1.408 . S
C1869 C1868 1.404 . S
C1869 H1881 0.930 . S
C1870 C1866 1.524 . S
C1870 H1882 0.956 . S
C1870 H1883 0.961 . S
C1870 H1884 0.961 . S
C1871 C1868 1.539 1_545 S
C1871 H1885 0.958 . S
C1871 H1886 0.961 . S
C1871 H1887 0.960 . S
H1872 C1856 0.931 . S
H1873 C1861 0.929 . S
H1874 C1862 0.960 . S
H1875 C1862 0.965 1_565 S
H1876 C1862 0.960 . S
H1877 C1863 0.961 . S
H1878 C1863 0.941 1_565 S
H1879 C1863 0.961 . S
H1880 C1864 0.931 . S
H1881 C1869 0.930 . S
H1882 C1870 0.956 . S
H1883 C1870 0.961 . S
H1884 C1870 0.961 . S
H1885 C1871 0.958 . S
H1886 C1871 0.961 . S
H1887 C1871 0.960 . S
C1888 C1889 1.391 . S
C1888 C1890 1.394 . S
C1888 H1904 0.931 . S
C1889 C1888 1.391 . S
C1889 C1893 1.376 . S
C1890 C1888 1.394 . S
C1890 C1891 1.369 . S
C1890 C1894 1.531 . S
C1891 C1890 1.369 . S
C1891 C1892 1.410 . S
C1891 C1899 1.503 . S
C1892 C1891 1.410 . S
C1892 C1893 1.392 . S
C1892 C1895 1.511 . S
C1893 C1889 1.376 . S
C1893 C1892 1.392 . S
C1893 H1905 0.929 . S
C1894 C1890 1.531 . S
C1894 H1906 0.960 . S
C1894 H1907 0.962 . S
C1894 H1908 0.960 . S
C1895 C1892 1.511 . S
C1895 H1909 0.961 . S
C1895 H1910 0.961 . S
C1895 H1911 0.961 . S
C1896 C1897 1.370 . S
C1896 C1898 1.363 . S
C1896 H1912 0.931 . S
C1897 C1896 1.370 . S
C1897 C1901 1.408 . S
C1898 C1896 1.363 . S
C1898 C1899 1.370 . S
C1898 C1902 1.524 . S
C1899 C1891 1.503 . S
C1899 C1898 1.370 . S
C1899 C1900 1.403 . S
C1900 C1899 1.403 . S
C1900 C1901 1.404 . S
C1900 C1903 1.539 . S
C1901 C1897 1.408 . S
C1901 C1900 1.404 . S
C1901 H1913 0.930 . S
C1902 C1898 1.524 . S
C1902 H1914 0.956 . S
C1902 H1915 0.961 . S
C1902 H1916 0.961 . S
C1903 C1900 1.539 . S
C1903 H1917 0.958 . S
C1903 H1918 0.961 . S
C1903 H1919 0.960 . S
H1904 C1888 0.931 . S
H1905 C1893 0.929 . S
H1906 C1894 0.960 . S
H1907 C1894 0.962 . S
H1908 C1894 0.960 . S
H1909 C1895 0.961 . S
H1910 C1895 0.961 . S
H1911 C1895 0.961 . S
H1912 C1896 0.931 . S
H1913 C1901 0.930 . S
H1914 C1902 0.956 . S
H1915 C1902 0.961 . S
H1916 C1902 0.961 . S
H1917 C1903 0.958 . S
H1918 C1903 0.961 . S
H1919 C1903 0.960 . S
C1920 C1921 1.391 . S
C1920 C1922 1.394 1_556 S
C1920 H1936 0.931 1_556 S
C1921 C1920 1.391 . S
C1921 C1925 1.376 . S
C1922 C1920 1.394 1_554 S
C1922 C1923 1.363 1_554 S
C1922 C1926 1.531 . S
C1923 C1922 1.363 1_556 S
C1923 C1924 1.422 . S
C1923 C1931 1.498 1_556 S
C1924 C1923 1.422 . S
C1924 C1925 1.392 . S
C1924 C1927 1.511 . S
C1925 C1921 1.376 . S
C1925 C1924 1.392 . S
C1925 H1937 0.929 . S
C1926 C1922 1.531 . S
C1926 H1938 0.960 . S
C1926 H1939 0.962 . S
C1926 H1940 0.960 . S
C1927 C1924 1.511 . S
C1927 H1941 0.961 . S
C1927 H1942 0.961 . S
C1927 H1943 0.961 . S
C1928 C1929 1.370 . S
C1928 C1930 1.363 1_554 S
C1928 H1944 0.931 1_554 S
C1929 C1928 1.370 . S
C1929 C1933 1.408 . S
C1930 C1928 1.363 1_556 S
C1930 C1931 1.370 1_556 S
C1930 C1934 1.524 . S
C1931 C1923 1.498 1_554 S
C1931 C1930 1.370 1_554 S
C1931 C1932 1.403 . S
C1932 C1931 1.403 . S
C1932 C1933 1.404 . S
C1932 C1935 1.539 . S
C1933 C1929 1.408 . S
C1933 C1932 1.404 . S
C1933 H1945 0.930 . S
C1934 C1930 1.524 . S
C1934 H1946 0.956 . S
C1934 H1947 0.961 . S
C1934 H1948 0.961 . S
C1935 C1932 1.539 . S
C1935 H1949 0.958 . S
C1935 H1950 0.961 . S
C1935 H1951 0.960 . S
H1936 C1920 0.931 1_554 S
H1937 C1925 0.929 . S
H1938 C1926 0.960 . S
H1939 C1926 0.962 . S
H1940 C1926 0.960 . S
H1941 C1927 0.961 . S
H1942 C1927 0.961 . S
H1943 C1927 0.961 . S
H1944 C1928 0.931 1_556 S
H1945 C1933 0.930 . S
H1946 C1934 0.956 . S
H1947 C1934 0.961 . S
H1948 C1934 0.961 . S
H1949 C1935 0.958 . S
H1950 C1935 0.961 . S
H1951 C1935 0.960 . S
C1952 C1953 1.391 . S
C1952 C1954 1.394 . S
C1952 H1968 0.931 . S
C1953 C1952 1.391 . S
C1953 C1957 1.376 . S
C1954 C1952 1.394 . S
C1954 C1955 1.369 . S
C1954 C1958 1.531 . S
C1955 C1954 1.369 . S
C1955 C1956 1.410 . S
C1955 C1963 1.503 . S
C1956 C1955 1.410 . S
C1956 C1957 1.392 . S
C1956 C1959 1.511 . S
C1957 C1953 1.376 . S
C1957 C1956 1.392 . S
C1957 H1969 0.929 . S
C1958 C1954 1.531 . S
C1958 H1970 0.960 . S
C1958 H1971 0.962 . S
C1958 H1972 0.960 . S
C1959 C1956 1.511 . S
C1959 H1973 0.961 . S
C1959 H1974 0.961 . S
C1959 H1975 0.961 . S
C1960 C1961 1.370 . S
C1960 C1962 1.363 . S
C1960 H1976 0.931 . S
C1961 C1960 1.370 . S
C1961 C1965 1.408 . S
C1962 C1960 1.363 . S
C1962 C1963 1.370 . S
C1962 C1966 1.524 . S
C1963 C1955 1.503 . S
C1963 C1962 1.370 . S
C1963 C1964 1.403 . S
C1964 C1963 1.403 . S
C1964 C1965 1.404 . S
C1964 C1967 1.539 . S
C1965 C1961 1.408 . S
C1965 C1964 1.404 . S
C1965 H1977 0.930 . S
C1966 C1962 1.524 . S
C1966 H1978 0.956 . S
C1966 H1979 0.961 . S
C1966 H1980 0.961 . S
C1967 C1964 1.539 . S
C1967 H1981 0.958 . S
C1967 H1982 0.961 . S
C1967 H1983 0.960 . S
H1968 C1952 0.931 . S
H1969 C1957 0.929 . S
H1970 C1958 0.960 . S
H1971 C1958 0.962 . S
H1972 C1958 0.960 . S
H1973 C1959 0.961 . S
H1974 C1959 0.961 . S
H1975 C1959 0.961 . S
H1976 C1960 0.931 . S
H1977 C1965 0.930 . S
H1978 C1966 0.956 . S
H1979 C1966 0.961 . S
H1980 C1966 0.961 . S
H1981 C1967 0.958 . S
H1982 C1967 0.961 . S
H1983 C1967 0.960 . S
C1984 C1985 1.391 . S
C1984 C1986 1.394 . S
C1984 H2000 0.931 . S
C1985 C1984 1.391 . S
C1985 C1989 1.376 . S
C1986 C1984 1.394 . S
C1986 C1987 1.369 . S
C1986 C1990 1.531 . S
C1987 C1986 1.369 . S
C1987 C1988 1.410 . S
C1987 C1995 1.503 . S
C1988 C1987 1.410 . S
C1988 C1989 1.392 . S
C1988 C1991 1.511 . S
C1989 C1985 1.376 . S
C1989 C1988 1.392 . S
C1989 H2001 0.929 . S
C1990 C1986 1.531 . S
C1990 H2002 0.960 . S
C1990 H2003 0.962 . S
C1990 H2004 0.960 . S
C1991 C1988 1.511 . S
C1991 H2005 0.961 . S
C1991 H2006 0.961 . S
C1991 H2007 0.961 . S
C1992 C1993 1.370 . S
C1992 C1994 1.363 . S
C1992 H2008 0.931 . S
C1993 C1992 1.370 . S
C1993 C1997 1.408 . S
C1994 C1992 1.363 . S
C1994 C1995 1.370 . S
C1994 C1998 1.524 . S
C1995 C1987 1.503 . S
C1995 C1994 1.370 . S
C1995 C1996 1.403 . S
C1996 C1995 1.403 . S
C1996 C1997 1.404 . S
C1996 C1999 1.539 . S
C1997 C1993 1.408 . S
C1997 C1996 1.404 . S
C1997 H2009 0.930 . S
C1998 C1994 1.524 . S
C1998 H2010 0.956 . S
C1998 H2011 0.961 . S
C1998 H2012 0.961 . S
C1999 C1996 1.539 . S
C1999 H2013 0.958 . S
C1999 H2014 0.961 . S
C1999 H2015 0.960 . S
H2000 C1984 0.931 . S
H2001 C1989 0.929 . S
H2002 C1990 0.960 . S
H2003 C1990 0.962 . S
H2004 C1990 0.960 . S
H2005 C1991 0.961 . S
H2006 C1991 0.961 . S
H2007 C1991 0.961 . S
H2008 C1992 0.931 . S
H2009 C1997 0.930 . S
H2010 C1998 0.956 . S
H2011 C1998 0.961 . S
H2012 C1998 0.961 . S
H2013 C1999 0.958 . S
H2014 C1999 0.961 . S
H2015 C1999 0.960 . S
C2016 C2017 1.391 . S
C2016 C2018 1.394 . S
C2016 H2032 0.931 . S
C2017 C2016 1.391 . S
C2017 C2021 1.376 . S
C2018 C2016 1.394 . S
C2018 C2019 1.369 . S
C2018 C2022 1.531 . S
C2019 C2018 1.369 . S
C2019 C2020 1.410 . S
C2019 C2027 1.503 . S
C2020 C2019 1.410 . S
C2020 C2021 1.392 . S
C2020 C2023 1.511 . S
C2021 C2017 1.376 . S
C2021 C2020 1.392 . S
C2021 H2033 0.929 . S
C2022 C2018 1.531 . S
C2022 H2034 0.960 . S
C2022 H2035 0.962 . S
C2022 H2036 0.960 . S
C2023 C2020 1.511 . S
C2023 H2037 0.961 . S
C2023 H2038 0.961 . S
C2023 H2039 0.961 . S
C2024 C2025 1.370 . S
C2024 C2026 1.363 . S
C2024 H2040 0.931 . S
C2025 C2024 1.370 . S
C2025 C2029 1.408 . S
C2026 C2024 1.363 . S
C2026 C2027 1.370 . S
C2026 C2030 1.524 . S
C2027 C2019 1.503 . S
C2027 C2026 1.370 . S
C2027 C2028 1.403 . S
C2028 C2027 1.403 . S
C2028 C2029 1.404 . S
C2028 C2031 1.539 . S
C2029 C2025 1.408 . S
C2029 C2028 1.404 . S
C2029 H2041 0.930 . S
C2030 C2026 1.524 . S
C2030 H2042 0.956 . S
C2030 H2043 0.961 . S
C2030 H2044 0.961 . S
C2031 C2028 1.539 . S
C2031 H2045 0.958 . S
C2031 H2046 0.961 . S
C2031 H2047 0.960 . S
H2032 C2016 0.931 . S
H2033 C2021 0.929 . S
H2034 C2022 0.960 . S
H2035 C2022 0.962 . S
H2036 C2022 0.960 . S
H2037 C2023 0.961 . S
H2038 C2023 0.961 . S
H2039 C2023 0.961 . S
H2040 C2024 0.931 . S
H2041 C2029 0.930 . S
H2042 C2030 0.956 . S
H2043 C2030 0.961 . S
H2044 C2030 0.961 . S
H2045 C2031 0.958 . S
H2046 C2031 0.961 . S
H2047 C2031 0.960 . S
C2048 C2049 1.391 . S
C2048 C2050 1.394 . S
C2048 H2064 0.931 . S
C2049 C2048 1.391 . S
C2049 C2053 1.376 . S
C2050 C2048 1.394 . S
C2050 C2051 1.369 . S
C2050 C2054 1.531 . S
C2051 C2050 1.369 . S
C2051 C2052 1.410 . S
C2051 C2059 1.503 . S
C2052 C2051 1.410 . S
C2052 C2053 1.392 . S
C2052 C2055 1.511 . S
C2053 C2049 1.376 . S
C2053 C2052 1.392 . S
C2053 H2065 0.929 . S
C2054 C2050 1.531 . S
C2054 H2066 0.960 . S
C2054 H2067 0.962 . S
C2054 H2068 0.960 . S
C2055 C2052 1.511 . S
C2055 H2069 0.961 . S
C2055 H2070 0.961 . S
C2055 H2071 0.961 . S
C2056 C2057 1.370 . S
C2056 C2058 1.363 . S
C2056 H2072 0.931 . S
C2057 C2056 1.370 . S
C2057 C2061 1.408 . S
C2058 C2056 1.363 . S
C2058 C2059 1.370 . S
C2058 C2062 1.524 . S
C2059 C2051 1.503 . S
C2059 C2058 1.370 . S
C2059 C2060 1.403 . S
C2060 C2059 1.403 . S
C2060 C2061 1.404 . S
C2060 C2063 1.539 . S
C2061 C2057 1.408 . S
C2061 C2060 1.404 . S
C2061 H2073 0.930 . S
C2062 C2058 1.524 . S
C2062 H2074 0.956 . S
C2062 H2075 0.961 . S
C2062 H2076 0.961 . S
C2063 C2060 1.539 . S
C2063 H2077 0.958 . S
C2063 H2078 0.961 . S
C2063 H2079 0.960 . S
H2064 C2048 0.931 . S
H2065 C2053 0.929 . S
H2066 C2054 0.960 . S
H2067 C2054 0.962 . S
H2068 C2054 0.960 . S
H2069 C2055 0.961 . S
H2070 C2055 0.961 . S
H2071 C2055 0.961 . S
H2072 C2056 0.931 . S
H2073 C2061 0.930 . S
H2074 C2062 0.956 . S
H2075 C2062 0.961 . S
H2076 C2062 0.961 . S
H2077 C2063 0.958 . S
H2078 C2063 0.961 . S
H2079 C2063 0.960 . S
C2080 C2081 1.391 . S
C2080 C2082 1.394 . S
C2080 H2096 0.931 . S
C2081 C2080 1.391 . S
C2081 C2085 1.376 . S
C2082 C2080 1.394 . S
C2082 C2083 1.369 . S
C2082 C2086 1.531 . S
C2083 C2082 1.369 . S
C2083 C2084 1.410 . S
C2083 C2091 1.503 . S
C2084 C2083 1.410 . S
C2084 C2085 1.392 . S
C2084 C2087 1.511 . S
C2085 C2081 1.376 . S
C2085 C2084 1.392 . S
C2085 H2097 0.929 . S
C2086 C2082 1.531 . S
C2086 H2098 0.960 . S
C2086 H2099 0.962 . S
C2086 H2100 0.960 . S
C2087 C2084 1.511 . S
C2087 H2101 0.961 . S
C2087 H2102 0.961 . S
C2087 H2103 0.961 . S
C2088 C2089 1.370 . S
C2088 C2090 1.363 . S
C2088 H2104 0.931 . S
C2089 C2088 1.370 . S
C2089 C2093 1.408 . S
C2090 C2088 1.363 . S
C2090 C2091 1.370 . S
C2090 C2094 1.524 . S
C2091 C2083 1.503 . S
C2091 C2090 1.370 . S
C2091 C2092 1.403 . S
C2092 C2091 1.403 . S
C2092 C2093 1.404 . S
C2092 C2095 1.539 . S
C2093 C2089 1.408 . S
C2093 C2092 1.404 . S
C2093 H2105 0.930 . S
C2094 C2090 1.524 . S
C2094 H2106 0.956 . S
C2094 H2107 0.961 . S
C2094 H2108 0.961 . S
C2095 C2092 1.539 . S
C2095 H2109 0.958 . S
C2095 H2110 0.961 . S
C2095 H2111 0.960 . S
H2096 C2080 0.931 . S
H2097 C2085 0.929 . S
H2098 C2086 0.960 . S
H2099 C2086 0.962 . S
H2100 C2086 0.960 . S
H2101 C2087 0.961 . S
H2102 C2087 0.961 . S
H2103 C2087 0.961 . S
H2104 C2088 0.931 . S
H2105 C2093 0.930 . S
H2106 C2094 0.956 . S
H2107 C2094 0.961 . S
H2108 C2094 0.961 . S
H2109 C2095 0.958 . S
H2110 C2095 0.961 . S
H2111 C2095 0.960 . S
C2112 C2113 1.391 . S
C2112 C2114 1.394 . S
C2112 H2128 0.931 . S
C2113 C2112 1.391 . S
C2113 C2117 1.376 . S
C2114 C2112 1.394 . S
C2114 C2115 1.369 . S
C2114 C2118 1.531 . S
C2115 C2114 1.369 . S
C2115 C2116 1.410 . S
C2115 C2123 1.503 . S
C2116 C2115 1.410 . S
C2116 C2117 1.392 . S
C2116 C2119 1.511 . S
C2117 C2113 1.376 . S
C2117 C2116 1.392 . S
C2117 H2129 0.929 . S
C2118 C2114 1.531 . S
C2118 H2130 0.960 . S
C2118 H2131 0.962 . S
C2118 H2132 0.960 . S
C2119 C2116 1.511 . S
C2119 H2133 0.961 . S
C2119 H2134 0.961 . S
C2119 H2135 0.961 . S
C2120 C2121 1.370 . S
C2120 C2122 1.363 . S
C2120 H2136 0.931 . S
C2121 C2120 1.370 . S
C2121 C2125 1.408 . S
C2122 C2120 1.363 . S
C2122 C2123 1.370 . S
C2122 C2126 1.524 . S
C2123 C2115 1.503 . S
C2123 C2122 1.370 . S
C2123 C2124 1.403 . S
C2124 C2123 1.403 . S
C2124 C2125 1.404 . S
C2124 C2127 1.539 . S
C2125 C2121 1.408 . S
C2125 C2124 1.404 . S
C2125 H2137 0.930 . S
C2126 C2122 1.524 . S
C2126 H2138 0.956 . S
C2126 H2139 0.961 . S
C2126 H2140 0.961 . S
C2127 C2124 1.539 . S
C2127 H2141 0.958 . S
C2127 H2142 0.961 . S
C2127 H2143 0.960 . S
H2128 C2112 0.931 . S
H2129 C2117 0.929 . S
H2130 C2118 0.960 . S
H2131 C2118 0.962 . S
H2132 C2118 0.960 . S
H2133 C2119 0.961 . S
H2134 C2119 0.961 . S
H2135 C2119 0.961 . S
H2136 C2120 0.931 . S
H2137 C2125 0.930 . S
H2138 C2126 0.956 . S
H2139 C2126 0.961 . S
H2140 C2126 0.961 . S
H2141 C2127 0.958 . S
H2142 C2127 0.961 . S
H2143 C2127 0.960 . S
C2144 C2145 1.391 . S
C2144 C2146 1.394 . S
C2144 H2160 0.931 . S
C2145 C2144 1.391 . S
C2145 C2149 1.376 . S
C2146 C2144 1.394 . S
C2146 C2147 1.369 . S
C2146 C2150 1.531 . S
C2147 C2146 1.369 . S
C2147 C2148 1.410 . S
C2147 C2155 1.503 . S
C2148 C2147 1.410 . S
C2148 C2149 1.392 . S
C2148 C2151 1.511 . S
C2149 C2145 1.376 . S
C2149 C2148 1.392 . S
C2149 H2161 0.929 . S
C2150 C2146 1.531 . S
C2150 H2162 0.960 . S
C2150 H2163 0.962 . S
C2150 H2164 0.960 . S
C2151 C2148 1.511 . S
C2151 H2165 0.961 . S
C2151 H2166 0.961 . S
C2151 H2167 0.961 . S
C2152 C2153 1.370 . S
C2152 C2154 1.363 . S
C2152 H2168 0.931 . S
C2153 C2152 1.370 . S
C2153 C2157 1.408 . S
C2154 C2152 1.363 . S
C2154 C2155 1.370 . S
C2154 C2158 1.524 . S
C2155 C2147 1.503 . S
C2155 C2154 1.370 . S
C2155 C2156 1.403 . S
C2156 C2155 1.403 . S
C2156 C2157 1.404 . S
C2156 C2159 1.539 . S
C2157 C2153 1.408 . S
C2157 C2156 1.404 . S
C2157 H2169 0.930 . S
C2158 C2154 1.524 . S
C2158 H2170 0.956 . S
C2158 H2171 0.961 . S
C2158 H2172 0.961 . S
C2159 C2156 1.539 . S
C2159 H2173 0.958 . S
C2159 H2174 0.961 . S
C2159 H2175 0.960 . S
H2160 C2144 0.931 . S
H2161 C2149 0.929 . S
H2162 C2150 0.960 . S
H2163 C2150 0.962 . S
H2164 C2150 0.960 . S
H2165 C2151 0.961 . S
H2166 C2151 0.961 . S
H2167 C2151 0.961 . S
H2168 C2152 0.931 . S
H2169 C2157 0.930 . S
H2170 C2158 0.956 . S
H2171 C2158 0.961 . S
H2172 C2158 0.961 . S
H2173 C2159 0.958 . S
H2174 C2159 0.961 . S
H2175 C2159 0.960 . S
C2176 C2177 1.391 . S
C2176 C2178 1.394 . S
C2176 H2192 0.931 . S
C2177 C2176 1.391 . S
C2177 C2181 1.376 . S
C2178 C2176 1.394 . S
C2178 C2179 1.369 . S
C2178 C2182 1.531 . S
C2179 C2178 1.369 . S
C2179 C2180 1.410 . S
C2179 C2187 1.503 . S
C2180 C2179 1.410 . S
C2180 C2181 1.392 . S
C2180 C2183 1.511 . S
C2181 C2177 1.376 . S
C2181 C2180 1.392 . S
C2181 H2193 0.929 . S
C2182 C2178 1.531 . S
C2182 H2194 0.960 . S
C2182 H2195 0.962 . S
C2182 H2196 0.960 . S
C2183 C2180 1.511 . S
C2183 H2197 0.961 . S
C2183 H2198 0.961 . S
C2183 H2199 0.961 . S
C2184 C2185 1.370 . S
C2184 C2186 1.363 . S
C2184 H2200 0.931 . S
C2185 C2184 1.370 . S
C2185 C2189 1.408 . S
C2186 C2184 1.363 . S
C2186 C2187 1.370 . S
C2186 C2190 1.524 . S
C2187 C2179 1.503 . S
C2187 C2186 1.370 . S
C2187 C2188 1.403 . S
C2188 C2187 1.403 . S
C2188 C2189 1.404 . S
C2188 C2191 1.539 . S
C2189 C2185 1.408 . S
C2189 C2188 1.404 . S
C2189 H2201 0.930 . S
C2190 C2186 1.524 . S
C2190 H2202 0.956 . S
C2190 H2203 0.961 . S
C2190 H2204 0.961 . S
C2191 C2188 1.539 . S
C2191 H2205 0.958 . S
C2191 H2206 0.961 . S
C2191 H2207 0.960 . S
H2192 C2176 0.931 . S
H2193 C2181 0.929 . S
H2194 C2182 0.960 . S
H2195 C2182 0.962 . S
H2196 C2182 0.960 . S
H2197 C2183 0.961 . S
H2198 C2183 0.961 . S
H2199 C2183 0.961 . S
H2200 C2184 0.931 . S
H2201 C2189 0.930 . S
H2202 C2190 0.956 . S
H2203 C2190 0.961 . S
H2204 C2190 0.961 . S
H2205 C2191 0.958 . S
H2206 C2191 0.961 . S
H2207 C2191 0.960 . S
C2208 C2209 1.391 . S
C2208 C2210 1.394 . S
C2208 H2224 0.931 . S
C2209 C2208 1.391 . S
C2209 C2213 1.376 . S
C2210 C2208 1.394 . S
C2210 C2211 1.369 . S
C2210 C2214 1.531 . S
C2211 C2210 1.369 . S
C2211 C2212 1.410 . S
C2211 C2219 1.503 . S
C2212 C2211 1.410 . S
C2212 C2213 1.392 . S
C2212 C2215 1.511 . S
C2213 C2209 1.376 . S
C2213 C2212 1.392 . S
C2213 H2225 0.929 . S
C2214 C2210 1.531 . S
C2214 H2226 0.960 . S
C2214 H2227 0.962 . S
C2214 H2228 0.960 . S
C2215 C2212 1.511 . S
C2215 H2229 0.961 . S
C2215 H2230 0.961 . S
C2215 H2231 0.961 . S
C2216 C2217 1.370 . S
C2216 C2218 1.363 . S
C2216 H2232 0.931 . S
C2217 C2216 1.370 . S
C2217 C2221 1.408 . S
C2218 C2216 1.363 . S
C2218 C2219 1.370 . S
C2218 C2222 1.524 . S
C2219 C2211 1.503 . S
C2219 C2218 1.370 . S
C2219 C2220 1.403 . S
C2220 C2219 1.403 . S
C2220 C2221 1.404 . S
C2220 C2223 1.539 . S
C2221 C2217 1.408 . S
C2221 C2220 1.404 . S
C2221 H2233 0.930 . S
C2222 C2218 1.524 . S
C2222 H2234 0.956 . S
C2222 H2235 0.961 . S
C2222 H2236 0.961 . S
C2223 C2220 1.539 . S
C2223 H2237 0.958 . S
C2223 H2238 0.961 . S
C2223 H2239 0.960 . S
H2224 C2208 0.931 . S
H2225 C2213 0.929 . S
H2226 C2214 0.960 . S
H2227 C2214 0.962 . S
H2228 C2214 0.960 . S
H2229 C2215 0.961 . S
H2230 C2215 0.961 . S
H2231 C2215 0.961 . S
H2232 C2216 0.931 . S
H2233 C2221 0.930 . S
H2234 C2222 0.956 . S
H2235 C2222 0.961 . S
H2236 C2222 0.961 . S
H2237 C2223 0.958 . S
H2238 C2223 0.961 . S
H2239 C2223 0.960 . S
C2240 C2241 1.391 . S
C2240 C2242 1.394 . S
C2240 H2256 0.931 . S
C2241 C2240 1.391 . S
C2241 C2245 1.376 . S
C2242 C2240 1.394 . S
C2242 C2243 1.369 . S
C2242 C2246 1.531 . S
C2243 C2242 1.369 . S
C2243 C2244 1.410 . S
C2243 C2251 1.503 . S
C2244 C2243 1.410 . S
C2244 C2245 1.392 . S
C2244 C2247 1.511 . S
C2245 C2241 1.376 . S
C2245 C2244 1.392 . S
C2245 H2257 0.929 . S
C2246 C2242 1.531 . S
C2246 H2258 0.960 . S
C2246 H2259 0.962 . S
C2246 H2260 0.960 . S
C2247 C2244 1.511 . S
C2247 H2261 0.961 . S
C2247 H2262 0.961 . S
C2247 H2263 0.961 . S
C2248 C2249 1.370 . S
C2248 C2250 1.363 . S
C2248 H2264 0.931 . S
C2249 C2248 1.370 . S
C2249 C2253 1.408 . S
C2250 C2248 1.363 . S
C2250 C2251 1.370 . S
C2250 C2254 1.524 . S
C2251 C2243 1.503 . S
C2251 C2250 1.370 . S
C2251 C2252 1.403 . S
C2252 C2251 1.403 . S
C2252 C2253 1.404 . S
C2252 C2255 1.539 . S
C2253 C2249 1.408 . S
C2253 C2252 1.404 . S
C2253 H2265 0.930 . S
C2254 C2250 1.524 . S
C2254 H2266 0.956 . S
C2254 H2267 0.961 . S
C2254 H2268 0.961 . S
C2255 C2252 1.539 . S
C2255 H2269 0.958 . S
C2255 H2270 0.961 . S
C2255 H2271 0.960 . S
H2256 C2240 0.931 . S
H2257 C2245 0.929 . S
H2258 C2246 0.960 . S
H2259 C2246 0.962 . S
H2260 C2246 0.960 . S
H2261 C2247 0.961 . S
H2262 C2247 0.961 . S
H2263 C2247 0.961 . S
H2264 C2248 0.931 . S
H2265 C2253 0.930 . S
H2266 C2254 0.956 . S
H2267 C2254 0.961 . S
H2268 C2254 0.961 . S
H2269 C2255 0.958 . S
H2270 C2255 0.961 . S
H2271 C2255 0.960 . S
C2272 C2273 1.391 . S
C2272 C2274 1.394 . S
C2272 H2288 0.931 . S
C2273 C2272 1.391 . S
C2273 C2277 1.376 . S
C2274 C2272 1.394 . S
C2274 C2275 1.369 . S
C2274 C2278 1.531 . S
C2275 C2274 1.369 . S
C2275 C2276 1.410 . S
C2275 C2283 1.503 . S
C2276 C2275 1.410 . S
C2276 C2277 1.392 . S
C2276 C2279 1.511 . S
C2277 C2273 1.376 . S
C2277 C2276 1.392 . S
C2277 H2289 0.929 . S
C2278 C2274 1.531 . S
C2278 H2290 0.960 . S
C2278 H2291 0.962 . S
C2278 H2292 0.960 . S
C2279 C2276 1.511 . S
C2279 H2293 0.961 . S
C2279 H2294 0.961 . S
C2279 H2295 0.961 . S
C2280 C2281 1.370 . S
C2280 C2282 1.363 . S
C2280 H2296 0.931 . S
C2281 C2280 1.370 . S
C2281 C2285 1.408 . S
C2282 C2280 1.363 . S
C2282 C2283 1.370 . S
C2282 C2286 1.524 . S
C2283 C2275 1.503 . S
C2283 C2282 1.370 . S
C2283 C2284 1.403 . S
C2284 C2283 1.403 . S
C2284 C2285 1.404 . S
C2284 C2287 1.539 . S
C2285 C2281 1.408 . S
C2285 C2284 1.404 . S
C2285 H2297 0.930 . S
C2286 C2282 1.524 . S
C2286 H2298 0.956 . S
C2286 H2299 0.961 . S
C2286 H2300 0.961 . S
C2287 C2284 1.539 . S
C2287 H2301 0.958 . S
C2287 H2302 0.961 . S
C2287 H2303 0.960 . S
H2288 C2272 0.931 . S
H2289 C2277 0.929 . S
H2290 C2278 0.960 . S
H2291 C2278 0.962 . S
H2292 C2278 0.960 . S
H2293 C2279 0.961 . S
H2294 C2279 0.961 . S
H2295 C2279 0.961 . S
H2296 C2280 0.931 . S
H2297 C2285 0.930 . S
H2298 C2286 0.956 . S
H2299 C2286 0.961 . S
H2300 C2286 0.961 . S
H2301 C2287 0.958 . S
H2302 C2287 0.961 . S
H2303 C2287 0.960 . S
C2304 C2305 1.391 . S
C2304 C2306 1.394 . S
C2304 H2320 0.931 . S
C2305 C2304 1.391 . S
C2305 C2309 1.376 . S
C2306 C2304 1.394 . S
C2306 C2307 1.369 . S
C2306 C2310 1.531 . S
C2307 C2306 1.369 . S
C2307 C2308 1.410 . S
C2307 C2315 1.503 . S
C2308 C2307 1.410 . S
C2308 C2309 1.392 . S
C2308 C2311 1.511 . S
C2309 C2305 1.376 . S
C2309 C2308 1.392 . S
C2309 H2321 0.929 . S
C2310 C2306 1.531 . S
C2310 H2322 0.960 . S
C2310 H2323 0.962 . S
C2310 H2324 0.960 . S
C2311 C2308 1.511 . S
C2311 H2325 0.961 . S
C2311 H2326 0.961 . S
C2311 H2327 0.961 . S
C2312 C2313 1.370 . S
C2312 C2314 1.363 . S
C2312 H2328 0.931 . S
C2313 C2312 1.370 . S
C2313 C2317 1.408 . S
C2314 C2312 1.363 . S
C2314 C2315 1.370 . S
C2314 C2318 1.524 . S
C2315 C2307 1.503 . S
C2315 C2314 1.370 . S
C2315 C2316 1.403 . S
C2316 C2315 1.403 . S
C2316 C2317 1.404 . S
C2316 C2319 1.539 . S
C2317 C2313 1.408 . S
C2317 C2316 1.404 . S
C2317 H2329 0.930 . S
C2318 C2314 1.524 . S
C2318 H2330 0.956 . S
C2318 H2331 0.961 . S
C2318 H2332 0.961 . S
C2319 C2316 1.539 . S
C2319 H2333 0.958 . S
C2319 H2334 0.961 . S
C2319 H2335 0.960 . S
H2320 C2304 0.931 . S
H2321 C2309 0.929 . S
H2322 C2310 0.960 . S
H2323 C2310 0.962 . S
H2324 C2310 0.960 . S
H2325 C2311 0.961 . S
H2326 C2311 0.961 . S
H2327 C2311 0.961 . S
H2328 C2312 0.931 . S
H2329 C2317 0.930 . S
H2330 C2318 0.956 . S
H2331 C2318 0.961 . S
H2332 C2318 0.961 . S
H2333 C2319 0.958 . S
H2334 C2319 0.961 . S
H2335 C2319 0.960 . S
C2336 C2337 1.391 . S
C2336 C2338 1.394 . S
C2336 H2352 0.931 . S
C2337 C2336 1.391 . S
C2337 C2341 1.376 . S
C2338 C2336 1.394 . S
C2338 C2339 1.369 . S
C2338 C2342 1.531 . S
C2339 C2338 1.369 . S
C2339 C2340 1.410 . S
C2339 C2347 1.503 . S
C2340 C2339 1.410 . S
C2340 C2341 1.392 . S
C2340 C2343 1.511 . S
C2341 C2337 1.376 . S
C2341 C2340 1.392 . S
C2341 H2353 0.929 . S
C2342 C2338 1.531 . S
C2342 H2354 0.960 . S
C2342 H2355 0.962 . S
C2342 H2356 0.960 . S
C2343 C2340 1.511 . S
C2343 H2357 0.961 . S
C2343 H2358 0.961 . S
C2343 H2359 0.961 . S
C2344 C2345 1.370 . S
C2344 C2346 1.363 . S
C2344 H2360 0.931 . S
C2345 C2344 1.370 . S
C2345 C2349 1.408 . S
C2346 C2344 1.363 . S
C2346 C2347 1.370 . S
C2346 C2350 1.524 . S
C2347 C2339 1.503 . S
C2347 C2346 1.370 . S
C2347 C2348 1.403 . S
C2348 C2347 1.403 . S
C2348 C2349 1.404 . S
C2348 C2351 1.539 . S
C2349 C2345 1.408 . S
C2349 C2348 1.404 . S
C2349 H2361 0.930 . S
C2350 C2346 1.524 . S
C2350 H2362 0.956 . S
C2350 H2363 0.961 . S
C2350 H2364 0.961 . S
C2351 C2348 1.539 . S
C2351 H2365 0.958 . S
C2351 H2366 0.961 . S
C2351 H2367 0.960 . S
H2352 C2336 0.931 . S
H2353 C2341 0.929 . S
H2354 C2342 0.960 . S
H2355 C2342 0.962 . S
H2356 C2342 0.960 . S
H2357 C2343 0.961 . S
H2358 C2343 0.961 . S
H2359 C2343 0.961 . S
H2360 C2344 0.931 . S
H2361 C2349 0.930 . S
H2362 C2350 0.956 . S
H2363 C2350 0.961 . S
H2364 C2350 0.961 . S
H2365 C2351 0.958 . S
H2366 C2351 0.961 . S
H2367 C2351 0.960 . S
C2368 C2369 1.391 . S
C2368 C2370 1.394 . S
C2368 H2384 0.931 . S
C2369 C2368 1.391 . S
C2369 C2373 1.376 . S
C2370 C2368 1.394 . S
C2370 C2371 1.369 . S
C2370 C2374 1.531 . S
C2371 C2370 1.369 . S
C2371 C2372 1.410 . S
C2371 C2379 1.503 . S
C2372 C2371 1.410 . S
C2372 C2373 1.392 . S
C2372 C2375 1.511 . S
C2373 C2369 1.376 . S
C2373 C2372 1.392 . S
C2373 H2385 0.929 . S
C2374 C2370 1.531 . S
C2374 H2386 0.960 . S
C2374 H2387 0.962 . S
C2374 H2388 0.960 . S
C2375 C2372 1.511 . S
C2375 H2389 0.961 . S
C2375 H2390 0.961 . S
C2375 H2391 0.961 . S
C2376 C2377 1.370 . S
C2376 C2378 1.363 . S
C2376 H2392 0.931 . S
C2377 C2376 1.370 . S
C2377 C2381 1.408 . S
C2378 C2376 1.363 . S
C2378 C2379 1.370 . S
C2378 C2382 1.524 . S
C2379 C2371 1.503 . S
C2379 C2378 1.370 . S
C2379 C2380 1.403 . S
C2380 C2379 1.403 . S
C2380 C2381 1.404 . S
C2380 C2383 1.539 . S
C2381 C2377 1.408 . S
C2381 C2380 1.404 . S
C2381 H2393 0.930 . S
C2382 C2378 1.524 . S
C2382 H2394 0.956 . S
C2382 H2395 0.961 . S
C2382 H2396 0.961 . S
C2383 C2380 1.539 . S
C2383 H2397 0.958 . S
C2383 H2398 0.961 . S
C2383 H2399 0.960 . S
H2384 C2368 0.931 . S
H2385 C2373 0.929 . S
H2386 C2374 0.960 . S
H2387 C2374 0.962 . S
H2388 C2374 0.960 . S
H2389 C2375 0.961 . S
H2390 C2375 0.961 . S
H2391 C2375 0.961 . S
H2392 C2376 0.931 . S
H2393 C2381 0.930 . S
H2394 C2382 0.956 . S
H2395 C2382 0.961 . S
H2396 C2382 0.961 . S
H2397 C2383 0.958 . S
H2398 C2383 0.961 . S
H2399 C2383 0.960 . S
C2400 C2401 1.391 . S
C2400 C2402 1.394 . S
C2400 H2416 0.931 . S
C2401 C2400 1.391 . S
C2401 C2405 1.376 . S
C2402 C2400 1.394 . S
C2402 C2403 1.369 . S
C2402 C2406 1.531 . S
C2403 C2402 1.369 . S
C2403 C2404 1.410 . S
C2403 C2411 1.503 . S
C2404 C2403 1.410 . S
C2404 C2405 1.392 . S
C2404 C2407 1.511 . S
C2405 C2401 1.376 . S
C2405 C2404 1.392 . S
C2405 H2417 0.929 . S
C2406 C2402 1.531 . S
C2406 H2418 0.960 . S
C2406 H2419 0.962 . S
C2406 H2420 0.960 . S
C2407 C2404 1.511 . S
C2407 H2421 0.961 . S
C2407 H2422 0.961 . S
C2407 H2423 0.961 . S
C2408 C2409 1.370 . S
C2408 C2410 1.363 . S
C2408 H2424 0.931 . S
C2409 C2408 1.370 . S
C2409 C2413 1.408 . S
C2410 C2408 1.363 . S
C2410 C2411 1.370 . S
C2410 C2414 1.524 . S
C2411 C2403 1.503 . S
C2411 C2410 1.370 . S
C2411 C2412 1.403 . S
C2412 C2411 1.403 . S
C2412 C2413 1.404 . S
C2412 C2415 1.539 . S
C2413 C2409 1.408 . S
C2413 C2412 1.404 . S
C2413 H2425 0.930 . S
C2414 C2410 1.524 . S
C2414 H2426 0.956 . S
C2414 H2427 0.961 . S
C2414 H2428 0.961 . S
C2415 C2412 1.539 . S
C2415 H2429 0.958 . S
C2415 H2430 0.961 . S
C2415 H2431 0.960 . S
H2416 C2400 0.931 . S
H2417 C2405 0.929 . S
H2418 C2406 0.960 . S
H2419 C2406 0.962 . S
H2420 C2406 0.960 . S
H2421 C2407 0.961 . S
H2422 C2407 0.961 . S
H2423 C2407 0.961 . S
H2424 C2408 0.931 . S
H2425 C2413 0.930 . S
H2426 C2414 0.956 . S
H2427 C2414 0.961 . S
H2428 C2414 0.961 . S
H2429 C2415 0.958 . S
H2430 C2415 0.961 . S
H2431 C2415 0.960 . S
C2432 C2433 1.391 . S
C2432 C2434 1.394 . S
C2432 H2448 0.931 . S
C2433 C2432 1.391 . S
C2433 C2437 1.376 . S
C2434 C2432 1.394 . S
C2434 C2435 1.369 . S
C2434 C2438 1.531 . S
C2435 C2434 1.369 . S
C2435 C2436 1.410 . S
C2435 C2443 1.503 . S
C2436 C2435 1.410 . S
C2436 C2437 1.392 . S
C2436 C2439 1.511 . S
C2437 C2433 1.376 . S
C2437 C2436 1.392 . S
C2437 H2449 0.929 . S
C2438 C2434 1.531 . S
C2438 H2450 0.960 . S
C2438 H2451 0.962 . S
C2438 H2452 0.960 . S
C2439 C2436 1.511 . S
C2439 H2453 0.961 . S
C2439 H2454 0.961 . S
C2439 H2455 0.961 . S
C2440 C2441 1.370 . S
C2440 C2442 1.363 . S
C2440 H2456 0.931 . S
C2441 C2440 1.370 . S
C2441 C2445 1.408 . S
C2442 C2440 1.363 . S
C2442 C2443 1.370 . S
C2442 C2446 1.524 . S
C2443 C2435 1.503 . S
C2443 C2442 1.370 . S
C2443 C2444 1.403 . S
C2444 C2443 1.403 . S
C2444 C2445 1.404 . S
C2444 C2447 1.539 . S
C2445 C2441 1.408 . S
C2445 C2444 1.404 . S
C2445 H2457 0.930 . S
C2446 C2442 1.524 . S
C2446 H2458 0.956 . S
C2446 H2459 0.961 . S
C2446 H2460 0.961 . S
C2447 C2444 1.539 . S
C2447 H2461 0.958 . S
C2447 H2462 0.961 . S
C2447 H2463 0.960 . S
H2448 C2432 0.931 . S
H2449 C2437 0.929 . S
H2450 C2438 0.960 . S
H2451 C2438 0.962 . S
H2452 C2438 0.960 . S
H2453 C2439 0.961 . S
H2454 C2439 0.961 . S
H2455 C2439 0.961 . S
H2456 C2440 0.931 . S
H2457 C2445 0.930 . S
H2458 C2446 0.956 . S
H2459 C2446 0.961 . S
H2460 C2446 0.961 . S
H2461 C2447 0.958 . S
H2462 C2447 0.961 . S
H2463 C2447 0.960 . S
C417 C134 1.352 . S
C425 C10 1.365 . S
C449 C17 1.369 . S
C457 C153 1.357 . S
C481 C36 1.337 . S
C489 C114 1.357 . S
C513 C127 1.367 . S
C521 C43 1.355 . S
C545 C192 1.356 . S
C553 C56 1.367 . S
C577 C75 1.339 . S
C585 C205 1.362 . S
C609 C166 1.338 . S
C617 C82 1.361 . S
C641 C173 1.365 . S
C649 C95 1.366 . S
C673 C348 1.371 . S
C681 C212 1.358 . S
C705 C355 1.337 . S
C713 C225 1.357 . S
C737 C322 1.367 . S
C745 C238 1.367 . S
C769 C251 1.354 . S
C777 C329 1.352 . S
C801 C394 1.337 . S
C809 C264 1.359 . S
C833 C407 1.347 . S
C841 C277 1.366 . S
C865 C290 1.372 . S
C873 C374 1.356 . S
C897 C303 1.341 . S
C905 C387 1.354 . S
C929 C257 1.324 . S
C937 C4 1.329 . S
C961 C23 1.325 1_655 S
C969 C244 1.329 . S
C993 C231 1.333 . S
C1001 C30 1.327 . S
C1025 C218 1.315 . S
C1033 C49 1.316 1_655 S
C1057 C62 1.318 . S
C1065 C309 1.329 . S
C1089 C69 1.303 1_455 S
C1097 C296 1.324 . S
C1121 C283 1.303 . S
C1129 C88 1.321 . S
C1153 C101 1.302 1_455 S
C1161 C270 1.317 . S
C1185 C361 1.327 . S
C1193 C108 1.329 . S
C1217 C342 1.315 . S
C1225 C121 1.316 1_655 S
C1249 C335 1.327 . S
C1257 C140 1.329 . S
C1281 C316 1.306 . S
C1289 C147 1.312 1_655 S
C1313 C160 1.335 . S
C1321 C413 1.320 . S
C1345 C400 1.325 . S
C1353 C179 1.328 1_455 S
C1377 C186 1.327 . S
C1385 C381 1.316 . S
C1409 C199 1.324 1_455 S
C1417 C368 1.329 . S
C1441 C159 1.344 . S
C1449 C3 1.367 . S
C1473 C18 1.341 . S
C1481 C278 1.368 . S
C1505 C83 1.370 . S
C1513 C29 1.358 . S
C1537 C408 1.354 . S
C1545 C44 1.363 . S
C1569 C57 1.351 . S
C1577 C107 1.364 . S
C1601 C226 1.340 . S
C1609 C68 1.370 . S
C1633 C356 1.369 . S
C1641 C96 1.356 . S
C1665 C380 1.353 . S
C1673 C120 1.366 . S
C1697 C135 1.348 . S
C1705 C185 1.365 . S
C1729 C304 1.339 . S
C1737 C146 1.369 . S
C1761 C330 1.341 . S
C1769 C174 1.369 . S
C1793 C198 1.371 . S
C1801 C252 1.358 . S
C1825 C213 1.371 . S
C1833 C367 1.356 . S
C1857 C291 1.350 . S
C1865 C239 1.364 . S
C1889 C315 1.342 . S
C1897 C265 1.368 . S
C1921 C341 1.340 . S
C1929 C395 1.369 . S
C1953 C5 1.251 . S
C1961 C42 1.266 . S
C1985 C31 1.264 . S
C1993 C16 1.262 . S
C2017 C55 1.278 . S
C2025 C94 1.262 . S
C2049 C70 1.280 . S
C2057 C81 1.269 . S
C2081 C109 1.263 . S
C2089 C148 1.262 . S
C2113 C122 1.251 . S
C2121 C133 1.267 . S
C2145 C161 1.249 . S
C2153 C200 1.271 . S
C2177 C187 1.253 . S
C2185 C172 1.267 . S
C2209 C250 1.268 . S
C2217 C211 1.275 . S
C2241 C237 1.272 . S
C2249 C224 1.274 . S
C2273 C302 1.255 . S
C2281 C263 1.266 . S
C2305 C289 1.282 . S
C2313 C276 1.264 . S
C2337 C354 1.270 . S
C2345 C317 1.262 . S
C2369 C343 1.263 . S
C2377 C328 1.262 . S
C2401 C369 1.281 . S
C2409 C406 1.268 . S
C2433 C393 1.282 . S
C2441 C382 1.265 . S
