# Generated by pormake.
# Topology wkj, (6)-cn, num edge types: 1
# Building blocks:
#     Node 0, Type 0, BuildingBlock: CIFDUS_clean_sbu_1, # of connection points: 6
#     Node 1, Type 0, BuildingBlock: CIFDUS_clean_sbu_1, # of connection points: 6
#     Node 2, Type 0, BuildingBlock: CIFDUS_clean_sbu_1, # of connection points: 6
#     Node 3, Type 0, BuildingBlock: CIFDUS_clean_sbu_1, # of connection points: 6
#     Node 4, Type 0, BuildingBlock: CIFDUS_clean_sbu_1, # of connection points: 6
#     Node 5, Type 0, BuildingBlock: CIFDUS_clean_sbu_1, # of connection points: 6
#     Node 6, Type 0, BuildingBlock: CIFDUS_clean_sbu_1, # of connection points: 6
#     Node 7, Type 0, BuildingBlock: CIFDUS_clean_sbu_1, # of connection points: 6
#     Node 8, Type 0, BuildingBlock: CIFDUS_clean_sbu_1, # of connection points: 6
#     Node 9, Type 0, BuildingBlock: CIFDUS_clean_sbu_1, # of connection points: 6
#     Node 10, Type 0, BuildingBlock: CIFDUS_clean_sbu_1, # of connection points: 6
#     Node 11, Type 0, BuildingBlock: CIFDUS_clean_sbu_1, # of connection points: 6
#     Edge 12, Type (0, 0), BuildingBlock: ZUJKAS_clean_linker_0, # of connection points: 2
#     Edge 13, Type (0, 0), BuildingBlock: ZUJKAS_clean_linker_0, # of connection points: 2
#     Edge 14, Type (0, 0), BuildingBlock: ZUJKAS_clean_linker_0, # of connection points: 2
#     Edge 15, Type (0, 0), BuildingBlock: ZUJKAS_clean_linker_0, # of connection points: 2
#     Edge 16, Type (0, 0), BuildingBlock: ZUJKAS_clean_linker_0, # of connection points: 2
#     Edge 17, Type (0, 0), BuildingBlock: ZUJKAS_clean_linker_0, # of connection points: 2
#     Edge 18, Type (0, 0), BuildingBlock: ZUJKAS_clean_linker_0, # of connection points: 2
#     Edge 19, Type (0, 0), BuildingBlock: ZUJKAS_clean_linker_0, # of connection points: 2
#     Edge 20, Type (0, 0), BuildingBlock: ZUJKAS_clean_linker_0, # of connection points: 2
#     Edge 21, Type (0, 0), BuildingBlock: ZUJKAS_clean_linker_0, # of connection points: 2
#     Edge 22, Type (0, 0), BuildingBlock: ZUJKAS_clean_linker_0, # of connection points: 2
#     Edge 23, Type (0, 0), BuildingBlock: ZUJKAS_clean_linker_0, # of connection points: 2
#     Edge 24, Type (0, 0), BuildingBlock: ZUJKAS_clean_linker_0, # of connection points: 2
#     Edge 25, Type (0, 0), BuildingBlock: ZUJKAS_clean_linker_0, # of connection points: 2
#     Edge 26, Type (0, 0), BuildingBlock: ZUJKAS_clean_linker_0, # of connection points: 2
#     Edge 27, Type (0, 0), BuildingBlock: ZUJKAS_clean_linker_0, # of connection points: 2
#     Edge 28, Type (0, 0), BuildingBlock: ZUJKAS_clean_linker_0, # of connection points: 2
#     Edge 29, Type (0, 0), BuildingBlock: ZUJKAS_clean_linker_0, # of connection points: 2
#     Edge 30, Type (0, 0), BuildingBlock: ZUJKAS_clean_linker_0, # of connection points: 2
#     Edge 31, Type (0, 0), BuildingBlock: ZUJKAS_clean_linker_0, # of connection points: 2
#     Edge 32, Type (0, 0), BuildingBlock: ZUJKAS_clean_linker_0, # of connection points: 2
#     Edge 33, Type (0, 0), BuildingBlock: ZUJKAS_clean_linker_0, # of connection points: 2
#     Edge 34, Type (0, 0), BuildingBlock: ZUJKAS_clean_linker_0, # of connection points: 2
#     Edge 35, Type (0, 0), BuildingBlock: ZUJKAS_clean_linker_0, # of connection points: 2
#     Edge 36, Type (0, 0), BuildingBlock: ZUJKAS_clean_linker_0, # of connection points: 2
#     Edge 37, Type (0, 0), BuildingBlock: ZUJKAS_clean_linker_0, # of connection points: 2
#     Edge 38, Type (0, 0), BuildingBlock: ZUJKAS_clean_linker_0, # of connection points: 2
#     Edge 39, Type (0, 0), BuildingBlock: ZUJKAS_clean_linker_0, # of connection points: 2
#     Edge 40, Type (0, 0), BuildingBlock: ZUJKAS_clean_linker_0, # of connection points: 2
#     Edge 41, Type (0, 0), BuildingBlock: ZUJKAS_clean_linker_0, # of connection points: 2
#     Edge 42, Type (0, 0), BuildingBlock: ZUJKAS_clean_linker_0, # of connection points: 2
#     Edge 43, Type (0, 0), BuildingBlock: ZUJKAS_clean_linker_0, # of connection points: 2
#     Edge 44, Type (0, 0), BuildingBlock: ZUJKAS_clean_linker_0, # of connection points: 2
#     Edge 45, Type (0, 0), BuildingBlock: ZUJKAS_clean_linker_0, # of connection points: 2
#     Edge 46, Type (0, 0), BuildingBlock: ZUJKAS_clean_linker_0, # of connection points: 2
#     Edge 47, Type (0, 0), BuildingBlock: ZUJKAS_clean_linker_0, # of connection points: 2
# Relax obj value: 0.527
# Max RMSD: 0.242
# Mean RMSD: 0.242
data_MOF--net-wkj--node1-CIFDUS_clean_sbu_1--edge1-ZUJKAS_clean_linker_0
_symmetry_space_group_name_H-M    P1
_symmetry_Int_Tables_number       1
_symmetry_cell_setting            triclinic
loop_
_symmetry_equiv_pos_as_xyz
'x, y, z'
_cell_length_a     65.307261
_cell_length_b     65.320221
_cell_length_c     31.781678
_cell_angle_alpha  89.904371
_cell_angle_beta   90.015737
_cell_angle_gamma 120.03832
loop_
_atom_site_label
_atom_site_type_symbol
_atom_site_fract_x
_atom_site_fract_y
_atom_site_fract_z
_atom_type_partial_charge
O0 O 0.49733 0.11992 0.30072 0.0
Mn1 Mn 0.47838 0.09759 0.25221 0.0
O2 O 0.47282 0.12933 0.33456 0.0
Mn3 Mn 0.44661 0.11285 0.29922 0.0
O4 O 0.45869 0.07481 0.20262 0.0
O5 O 0.49871 0.08256 0.25853 0.0
Mn6 Mn 0.50683 0.07763 0.20849 0.0
O7 O 0.50211 0.12238 0.20803 0.0
O8 O 0.47883 0.05701 0.18152 0.0
O9 O 0.45486 0.0723 0.2958 0.0
O10 O 0.42738 0.08155 0.31393 0.0
O11 O 0.52075 0.06712 0.24657 0.0
O12 O 0.52432 0.1072 0.18443 0.0
C13 C 0.45162 0.12761 0.23695 0.0
C14 C 0.49287 0.13049 0.33021 0.0
C15 C 0.46067 0.05948 0.18015 0.0
C16 C 0.51093 0.07381 0.27458 0.0
C17 C 0.51929 0.12367 0.18588 0.0
C18 C 0.43575 0.06768 0.31543 0.0
O19 O 0.45873 0.11335 0.24927 0.0
O20 O 0.43807 0.12986 0.26402 0.0
O21 O 0.3972 0.51064 0.63576 0.0
Mn22 Mn 0.39167 0.4865 0.58882 0.0
O23 O 0.36365 0.49695 0.67283 0.0
Mn24 Mn 0.34748 0.46872 0.64306 0.0
O25 O 0.38668 0.46224 0.54034 0.0
O26 O 0.42666 0.49884 0.59105 0.0
Mn27 Mn 0.43835 0.50278 0.54012 0.0
O28 O 0.39622 0.51209 0.54321 0.0
O29 O 0.42323 0.47296 0.51642 0.0
O30 O 0.3882 0.46115 0.63394 0.0
O31 O 0.35218 0.44482 0.66244 0.0
O32 O 0.4635 0.51229 0.57652 0.0
O33 O 0.43245 0.52494 0.51541 0.0
C34 C 0.33457 0.46941 0.5822 0.0
C35 C 0.38512 0.5126 0.66559 0.0
C36 C 0.40096 0.45878 0.51729 0.0
C37 C 0.4478 0.50694 0.60572 0.0
C38 C 0.41348 0.52591 0.51875 0.0
C39 C 0.37214 0.44611 0.65881 0.0
O40 O 0.35639 0.47506 0.58946 0.0
O41 O 0.32061 0.46186 0.61451 0.0
O42 O 0.88081 0.3748 0.97263 0.0
Mn43 Mn 0.90139 0.37639 0.92183 0.0
O44 O 0.86975 0.34017 0.00547 0.0
Mn45 Mn 0.88411 0.32893 0.96842 0.0
O46 O 0.92245 0.37814 0.87035 0.0
O47 O 0.91896 0.41146 0.92695 0.0
Mn48 Mn 0.92236 0.42589 0.87897 0.0
O49 O 0.87691 0.37742 0.87947 0.0
O50 O 0.93876 0.41555 0.84558 0.0
O51 O 0.9265 0.37648 0.96372 0.0
O52 O 0.91538 0.33913 0.98098 0.0
O53 O 0.93863 0.44922 0.91903 0.0
O54 O 0.89161 0.41586 0.86258 0.0
C55 C 0.8682 0.31969 0.90706 0.0
C56 C 0.8702 0.35995 1.00257 0.0
C57 C 0.93626 0.39484 0.84501 0.0
C58 C 0.93207 0.43159 0.94454 0.0
C59 C 0.87521 0.39423 0.86134 0.0
C60 C 0.93033 0.36116 0.98224 0.0
O61 O 0.88331 0.34089 0.91898 0.0
O62 O 0.86536 0.30359 0.93402 0.0
O63 O 0.49654 0.8797 0.30248 0.0
Mn64 Mn 0.515 0.90209 0.25342 0.0
O65 O 0.5213 0.86954 0.33332 0.0
Mn66 Mn 0.54709 0.88614 0.29724 0.0
O67 O 0.53385 0.9249 0.20359 0.0
O68 O 0.49578 0.91788 0.26065 0.0
Mn69 Mn 0.4842 0.92089 0.21295 0.0
O70 O 0.49036 0.87754 0.20979 0.0
O71 O 0.5106 0.93878 0.17923 0.0
O72 O 0.53891 0.92676 0.29727 0.0
O73 O 0.5666 0.9173 0.3127 0.0
O74 O 0.47586 0.9358 0.25348 0.0
O75 O 0.46461 0.89014 0.19594 0.0
C76 C 0.54099 0.87177 0.23461 0.0
C77 C 0.50137 0.8688 0.33095 0.0
C78 C 0.52981 0.93803 0.1786 0.0
C79 C 0.48778 0.93011 0.27863 0.0
C80 C 0.47109 0.87474 0.19297 0.0
C81 C 0.55817 0.93107 0.31604 0.0
O82 O 0.53428 0.88608 0.24831 0.0
O83 O 0.55485 0.86918 0.26048 0.0
O84 O 0.61841 0.4991 0.64477 0.0
Mn85 Mn 0.60966 0.51329 0.59466 0.0
O86 O 0.65114 0.52942 0.67358 0.0
Mn87 Mn 0.65651 0.55271 0.63359 0.0
O88 O 0.60125 0.52849 0.54386 0.0
O89 O 0.57519 0.48922 0.60546 0.0
Mn90 Mn 0.56226 0.47707 0.5564 0.0
O91 O 0.61382 0.49071 0.55219 0.0
O92 O 0.56438 0.50158 0.52386 0.0
O93 O 0.60532 0.53593 0.63649 0.0
O94 O 0.64052 0.5687 0.64485 0.0
O95 O 0.53847 0.46228 0.5947 0.0
O96 O 0.57725 0.46173 0.53568 0.0
C97 C 0.66518 0.54498 0.57249 0.0
C98 C 0.63451 0.50777 0.67323 0.0
C99 C 0.58274 0.52201 0.52094 0.0
C100 C 0.55445 0.47554 0.62182 0.0
C101 C 0.59961 0.47106 0.53375 0.0
C102 C 0.61828 0.557 0.6511 0.0
O103 O 0.64405 0.53683 0.58695 0.0
O104 O 0.68111 0.56157 0.59572 0.0
O105 O 0.11294 0.61601 0.97044 0.0
Mn106 Mn 0.09132 0.61549 0.92244 0.0
O107 O 0.12696 0.65076 1.00423 0.0
Mn108 Mn 0.11164 0.66248 0.97076 0.0
O109 O 0.0691 0.61483 0.87341 0.0
O110 O 0.07321 0.58018 0.92829 0.0
Mn111 Mn 0.06612 0.56641 0.87893 0.0
O112 O 0.11428 0.61361 0.87765 0.0
O113 O 0.0473 0.57668 0.85356 0.0
O114 O 0.06768 0.61619 0.96694 0.0
O115 O 0.08142 0.65334 0.98858 0.0
O116 O 0.05462 0.54245 0.91868 0.0
O117 O 0.09503 0.57601 0.85358 0.0
C118 C 0.12491 0.67278 0.90817 0.0
C119 C 0.12526 0.63053 0.99962 0.0
C120 C 0.0522 0.59819 0.85189 0.0
C121 C 0.06345 0.55954 0.94567 0.0
C122 C 0.11319 0.59666 0.8551 0.0
C123 C 0.06562 0.6316 0.98888 0.0
O124 O 0.11043 0.65117 0.91957 0.0
O125 O 0.12904 0.68836 0.93703 0.0
O126 O 0.87113 0.4891 0.37672 0.0
Mn127 Mn 0.8893 0.51474 0.42217 0.0
O128 O 0.84857 0.49971 0.33999 0.0
Mn129 Mn 0.86072 0.52907 0.36554 0.0
O130 O 0.90813 0.53987 0.46936 0.0
O131 O 0.91323 0.50452 0.42343 0.0
Mn132 Mn 0.91822 0.49714 0.47371 0.0
O133 O 0.86876 0.4899 0.46941 0.0
O134 O 0.9273 0.52434 0.50512 0.0
O135 O 0.91025 0.53866 0.37434 0.0
O136 O 0.88877 0.55216 0.34258 0.0
O137 O 0.93976 0.49535 0.4377 0.0
O138 O 0.8891 0.47176 0.48783 0.0
C139 C 0.84834 0.53041 0.42652 0.0
C140 C 0.85589 0.4853 0.34785 0.0
C141 C 0.92173 0.54032 0.49936 0.0
C142 C 0.9303 0.50215 0.40923 0.0
C143 C 0.87035 0.47321 0.48827 0.0
C144 C 0.9079 0.5517 0.34651 0.0
O145 O 0.86476 0.52513 0.41954 0.0
O146 O 0.84091 0.53646 0.39357 0.0
O147 O 0.37952 0.86915 0.70633 0.0
Mn148 Mn 0.37805 0.89041 0.7526 0.0
O149 O 0.34804 0.85886 0.66426 0.0
Mn150 Mn 0.33476 0.87388 0.69459 0.0
O151 O 0.37612 0.91219 0.79946 0.0
O152 O 0.41381 0.90731 0.75544 0.0
Mn153 Mn 0.4227 0.91204 0.80849 0.0
O154 O 0.37509 0.86574 0.79903 0.0
O155 O 0.41175 0.93083 0.83118 0.0
O156 O 0.38184 0.91519 0.70586 0.0
O157 O 0.34619 0.90514 0.68004 0.0
O158 O 0.45012 0.9246 0.77762 0.0
O159 O 0.41049 0.88238 0.83178 0.0
C160 C 0.32011 0.85884 0.75467 0.0
C161 C 0.36701 0.85869 0.6738 0.0
C162 C 0.39094 0.9274 0.82571 0.0
C163 C 0.43606 0.91754 0.74548 0.0
C164 C 0.38972 0.86511 0.82562 0.0
C165 C 0.36825 0.91949 0.68265 0.0
O166 O 0.34244 0.8728 0.74758 0.0
O167 O 0.30666 0.85617 0.72278 0.0
O168 O 0.51077 0.38558 0.0442 0.0
Mn169 Mn 0.4865 0.38168 0.08973 0.0
O170 O 0.49544 0.35196 0.00673 0.0
Mn171 Mn 0.46636 0.33715 0.03437 0.0
O172 O 0.46191 0.37811 0.13649 0.0
O173 O 0.50184 0.41723 0.08955 0.0
Mn174 Mn 0.50576 0.42785 0.1414 0.0
O175 O 0.51011 0.38297 0.13653 0.0
O176 O 0.47565 0.41454 0.16401 0.0
O177 O 0.46315 0.38096 0.04264 0.0
O178 O 0.44491 0.34495 0.01339 0.0
O179 O 0.51813 0.45412 0.10704 0.0
O180 O 0.52575 0.41908 0.1663 0.0
C181 C 0.46563 0.32428 0.09635 0.0
C182 C 0.51208 0.37291 0.01473 0.0
C183 C 0.45983 0.39281 0.16071 0.0
C184 C 0.51206 0.43896 0.07673 0.0
C185 C 0.52458 0.39914 0.16193 0.0
C186 C 0.44826 0.36581 0.01635 0.0
O187 O 0.47226 0.34614 0.08765 0.0
O188 O 0.45734 0.31003 0.06458 0.0
O189 O 0.12645 0.50298 0.36957 0.0
Mn190 Mn 0.10499 0.48033 0.41627 0.0
O191 O 0.13871 0.48196 0.33157 0.0
Mn192 Mn 0.12476 0.45441 0.36423 0.0
O193 O 0.08295 0.45711 0.46345 0.0
O194 O 0.0856 0.49641 0.41449 0.0
Mn195 Mn 0.08094 0.50385 0.46506 0.0
O196 O 0.12762 0.50373 0.46357 0.0
O197 O 0.0651 0.47537 0.49407 0.0
O198 O 0.08236 0.45789 0.36881 0.0
O199 O 0.09417 0.43277 0.3486 0.0
O200 O 0.06571 0.51395 0.42873 0.0
O201 O 0.1107 0.52474 0.48472 0.0
C202 C 0.13952 0.4574 0.42547 0.0
C203 C 0.13761 0.50072 0.33826 0.0
C204 C 0.06857 0.45787 0.49039 0.0
C205 C 0.07331 0.50537 0.40003 0.0
C206 C 0.1279 0.52078 0.48467 0.0
C207 C 0.07929 0.43983 0.34753 0.0
O208 O 0.12461 0.46429 0.416 0.0
O209 O 0.14333 0.44634 0.39545 0.0
O210 O 0.61485 0.12573 0.69923 0.0
Mn211 Mn 0.61543 0.10547 0.74868 0.0
O212 O 0.64977 0.14093 0.66565 0.0
Mn213 Mn 0.66205 0.12612 0.69904 0.0
O214 O 0.61514 0.0848 0.79944 0.0
O215 O 0.58028 0.08618 0.74507 0.0
Mn216 Mn 0.56671 0.08515 0.79295 0.0
O217 O 0.61386 0.12935 0.79216 0.0
O218 O 0.5798 0.07307 0.83088 0.0
O219 O 0.61611 0.08133 0.70525 0.0
O220 O 0.65322 0.09579 0.68233 0.0
O221 O 0.54284 0.06529 0.75625 0.0
O222 O 0.57521 0.11623 0.80197 0.0
C223 C 0.6728 0.13983 0.76107 0.0
C224 C 0.62915 0.13835 0.66996 0.0
C225 C 0.59995 0.07421 0.82915 0.0
C226 C 0.55997 0.07113 0.72991 0.0
C227 C 0.59683 0.13198 0.80667 0.0
C228 C 0.63166 0.0795 0.68316 0.0
O229 O 0.65111 0.12518 0.75042 0.0
O230 O 0.68818 0.14406 0.73172 0.0
O231 O 0.4983 0.63538 0.03476 0.0
Mn232 Mn 0.51066 0.62399 0.08382 0.0
O233 O 0.53038 0.66697 0.00721 0.0
Mn234 Mn 0.55241 0.67099 0.04896 0.0
O235 O 0.52287 0.61193 0.13326 0.0
O236 O 0.48553 0.59105 0.07104 0.0
Mn237 Mn 0.46897 0.57553 0.11495 0.0
O238 O 0.48842 0.62806 0.12735 0.0
O239 O 0.4918 0.57649 0.15194 0.0
O240 O 0.53304 0.61961 0.04093 0.0
O241 O 0.56735 0.65404 0.03686 0.0
O242 O 0.45824 0.55467 0.0695 0.0
O243 O 0.45503 0.59272 0.13198 0.0
C244 C 0.54248 0.67796 0.1099 0.0
C245 C 0.50838 0.65131 0.00633 0.0
C246 C 0.51333 0.59312 0.15624 0.0
C247 C 0.47471 0.57222 0.04878 0.0
C248 C 0.46711 0.61465 0.14088 0.0
C249 C 0.5546 0.63217 0.02788 0.0
O250 O 0.53573 0.65732 0.0946 0.0
O251 O 0.55963 0.69456 0.08853 0.0
H252 H 0.43237 0.13941 0.17286 0.0
H253 H 0.44742 0.1801 0.14917 0.0
H254 H 0.51283 0.20172 0.21487 0.0
H255 H 0.49798 0.16082 0.23773 0.0
H256 H 0.4815 0.22064 0.24419 0.0
H257 H 0.5019 0.23341 0.07329 0.0
H258 H 0.47589 0.20613 0.08779 0.0
H259 H 0.50447 0.21155 0.10431 0.0
C260 C 0.45056 0.15252 0.17975 0.0
C261 C 0.46416 0.14689 0.20645 0.0
C262 C 0.45907 0.17586 0.16664 0.0
C263 C 0.48119 0.19396 0.18051 0.0
C264 C 0.49578 0.18799 0.20362 0.0
H265 H 0.51024 0.33658 0.1183 0.0
H266 H 0.52005 0.30799 0.14849 0.0
C267 C 0.48742 0.16452 0.21607 0.0
C268 C 0.4867 0.2189 0.17762 0.0
H269 H 0.49368 0.26126 0.10685 0.0
C270 C 0.48475 0.22981 0.21431 0.0
C271 C 0.49088 0.23079 0.13871 0.0
C272 C 0.49361 0.22002 0.09871 0.0
C273 C 0.48538 0.25164 0.21263 0.0
C274 C 0.48814 0.26286 0.17334 0.0
C275 C 0.49162 0.25267 0.13705 0.0
C276 C 0.48425 0.28326 0.16796 0.0
C277 C 0.48217 0.26214 0.25255 0.0
C278 C 0.46121 0.27955 0.17143 0.0
C279 C 0.45561 0.29583 0.1541 0.0
C280 C 0.47299 0.31614 0.13342 0.0
C281 C 0.49663 0.32136 0.13502 0.0
C282 C 0.50218 0.30483 0.15164 0.0
H283 H 0.4862 0.25479 0.28088 0.0
H284 H 0.49367 0.28168 0.25249 0.0
H285 H 0.46352 0.258 0.25475 0.0
H286 H 0.44705 0.26294 0.18348 0.0
H287 H 0.43718 0.29111 0.15231 0.0
H288 H 0.34615 0.51342 0.55708 0.0
H289 H 0.31675 0.52197 0.52648 0.0
H290 H 0.2723 0.44818 0.49661 0.0
H291 H 0.30138 0.4396 0.52785 0.0
H292 H 0.27178 0.48673 0.43748 0.0
H293 H 0.25505 0.48965 0.60888 0.0
H294 H 0.28475 0.5072 0.58899 0.0
H295 H 0.27097 0.4756 0.58955 0.0
C296 C 0.33086 0.49932 0.54138 0.0
C297 C 0.32608 0.47587 0.54451 0.0
C298 C 0.31388 0.50417 0.52454 0.0
C299 C 0.29217 0.48562 0.51005 0.0
C300 C 0.28892 0.46274 0.5077 0.0
H301 H 0.14839 0.43237 0.4827 0.0
H302 H 0.18792 0.44525 0.51038 0.0
C303 C 0.30573 0.45788 0.52499 0.0
C304 C 0.27135 0.48881 0.5049 0.0
H305 H 0.22673 0.48847 0.56199 0.0
C306 C 0.26222 0.48773 0.46455 0.0
C307 C 0.25875 0.48976 0.54045 0.0
C308 C 0.26769 0.49054 0.58455 0.0
C309 C 0.24041 0.48682 0.45889 0.0
C310 C 0.22739 0.48687 0.49453 0.0
C311 C 0.23689 0.48872 0.5348 0.0
C312 C 0.20258 0.48156 0.49026 0.0
C313 C 0.23071 0.48447 0.41496 0.0
C314 C 0.19728 0.49817 0.47297 0.0
C315 C 0.17441 0.49091 0.45817 0.0
C316 C 0.15681 0.46692 0.4599 0.0
C317 C 0.1615 0.45103 0.48177 0.0
C318 C 0.18419 0.45833 0.49707 0.0
H319 H 0.24241 0.48338 0.39078 0.0
H320 H 0.21295 0.4684 0.41276 0.0
H321 H 0.22864 0.49996 0.40772 0.0
H322 H 0.21125 0.51621 0.46757 0.0
H323 H 0.17143 0.50339 0.44053 0.0
H324 H 0.85595 0.28856 0.84321 0.0
H325 H 0.8155 0.2646 0.81725 0.0
H326 H 0.79564 0.31029 0.88083 0.0
H327 H 0.83636 0.33466 0.90604 0.0
H328 H 0.77316 0.26065 0.90964 0.0
H329 H 0.76598 0.268 0.73704 0.0
H330 H 0.7918 0.26704 0.75378 0.0
H331 H 0.78838 0.29171 0.76848 0.0
C332 C 0.84335 0.2944 0.84922 0.0
C333 C 0.84937 0.31368 0.87595 0.0
C334 C 0.82014 0.28055 0.83476 0.0
C335 C 0.80251 0.28558 0.84729 0.0
C336 C 0.80899 0.30619 0.87059 0.0
H337 H 0.66111 0.17357 0.77411 0.0
H338 H 0.68899 0.21234 0.80385 0.0
C339 C 0.83237 0.32033 0.88442 0.0
C340 C 0.77726 0.26701 0.84279 0.0
H341 H 0.73662 0.2319 0.76957 0.0
C342 C 0.76488 0.25471 0.87909 0.0
C343 C 0.76648 0.25929 0.80303 0.0
C344 C 0.77872 0.27229 0.7633 0.0
C345 C 0.74273 0.23392 0.87635 0.0
C346 C 0.73269 0.22527 0.83637 0.0
C347 C 0.7443 0.23853 0.8003 0.0
C348 C 0.71221 0.20105 0.83046 0.0
C349 C 0.73065 0.22078 0.91608 0.0
C350 C 0.71521 0.18151 0.83787 0.0
C351 C 0.69934 0.15942 0.8208 0.0
C352 C 0.68012 0.15646 0.79646 0.0
C353 C 0.67545 0.17522 0.79368 0.0
C354 C 0.69159 0.19749 0.8101 0.0
H355 H 0.73692 0.23261 0.94395 0.0
H356 H 0.71115 0.21268 0.9135 0.0
H357 H 0.7347 0.20638 0.92131 0.0
H358 H 0.73111 0.18387 0.85301 0.0
H359 H 0.70367 0.14544 0.82244 0.0
H360 H 0.54652 0.69276 0.19111 0.0
H361 H 0.53334 0.71973 0.21596 0.0
H362 H 0.4944 0.70875 0.10042 0.0
H363 H 0.50581 0.68038 0.07785 0.0
H364 H 0.54955 0.75844 0.18162 0.0
H365 H 0.45346 0.72179 0.17033 0.0
H366 H 0.46639 0.70302 0.16929 0.0
H367 H 0.46387 0.71669 0.12161 0.0
C368 C 0.53377 0.69487 0.17258 0.0
C369 C 0.52688 0.68424 0.13293 0.0
C370 C 0.52652 0.71062 0.18637 0.0
C371 C 0.51298 0.71669 0.16001 0.0
C372 C 0.50429 0.70422 0.12211 0.0
H373 H 0.55605 0.86484 0.15903 0.0
H374 H 0.54462 0.82533 0.13284 0.0
C375 C 0.51085 0.68786 0.1091 0.0
C376 C 0.51222 0.73893 0.16774 0.0
H377 H 0.47758 0.76448 0.16017 0.0
C378 C 0.53361 0.75948 0.17762 0.0
C379 C 0.49157 0.74071 0.16271 0.0
C380 C 0.46753 0.71926 0.15587 0.0
C381 C 0.53509 0.78153 0.18201 0.0
C382 C 0.5149 0.78368 0.17372 0.0
C383 C 0.49328 0.7631 0.165 0.0
C384 C 0.51591 0.80698 0.17725 0.0
C385 C 0.55828 0.80212 0.19677 0.0
C386 C 0.50143 0.80994 0.2064 0.0
C387 C 0.50714 0.83266 0.21954 0.0
C388 C 0.52768 0.8526 0.20443 0.0
C389 C 0.54002 0.84979 0.17092 0.0
C390 C 0.5338 0.82712 0.15671 0.0
H391 H 0.56924 0.79605 0.21349 0.0
H392 H 0.56857 0.81266 0.16915 0.0
H393 H 0.55538 0.81379 0.21833 0.0
H394 H 0.48726 0.79476 0.22226 0.0
H395 H 0.49751 0.83433 0.24583 0.0
H396 H 0.65566 0.49996 0.58396 0.0
H397 H 0.68245 0.48571 0.56318 0.0
H398 H 0.72125 0.54729 0.4848 0.0
H399 H 0.69447 0.56152 0.50548 0.0
H400 H 0.7182 0.50213 0.45485 0.0
H401 H 0.74968 0.52848 0.61959 0.0
H402 H 0.71882 0.50759 0.61131 0.0
H403 H 0.73086 0.53758 0.59392 0.0
C404 C 0.66889 0.50963 0.56009 0.0
C405 C 0.67272 0.53164 0.54562 0.0
C406 C 0.6845 0.5017 0.54889 0.0
C407 C 0.70408 0.51567 0.52308 0.0
C408 C 0.70626 0.53625 0.50481 0.0
H409 H 0.84445 0.56183 0.47565 0.0
H410 H 0.80733 0.55287 0.5096 0.0
C411 C 0.69079 0.54425 0.51623 0.0
C412 C 0.72427 0.51129 0.52034 0.0
H413 H 0.77321 0.5202 0.57505 0.0
C414 C 0.72995 0.50548 0.48132 0.0
C415 C 0.73972 0.51602 0.55492 0.0
C416 C 0.73469 0.52289 0.59735 0.0
C417 C 0.7511 0.50509 0.47552 0.0
C418 C 0.76697 0.51066 0.50971 0.0
C419 C 0.76088 0.51564 0.54913 0.0
C420 C 0.79132 0.51498 0.50295 0.0
C421 C 0.75706 0.50018 0.43219 0.0
C422 C 0.79538 0.49655 0.49147 0.0
C423 C 0.81696 0.5017 0.473 0.0
C424 C 0.83445 0.52529 0.46534 0.0
C425 C 0.83145 0.54351 0.48195 0.0
C426 C 0.81007 0.53839 0.50082 0.0
H427 H 0.74394 0.49849 0.40817 0.0
H428 H 0.77483 0.51456 0.4224 0.0
H429 H 0.75755 0.48344 0.4328 0.0
H430 H 0.78118 0.47834 0.49318 0.0
H431 H 0.81863 0.48734 0.45966 0.0
H432 H 0.33064 0.82473 0.77409 0.0
H433 H 0.30136 0.78584 0.80203 0.0
H434 H 0.25597 0.81351 0.83577 0.0
H435 H 0.28492 0.85211 0.80724 0.0
H436 H 0.25684 0.77482 0.893 0.0
H437 H 0.23896 0.75541 0.72181 0.0
H438 H 0.26886 0.76817 0.74094 0.0
H439 H 0.25445 0.78539 0.74127 0.0
C440 C 0.31511 0.82288 0.78992 0.0
C441 C 0.31014 0.84148 0.78904 0.0
C442 C 0.29821 0.80055 0.80522 0.0
C443 C 0.27636 0.79674 0.82033 0.0
C444 C 0.27271 0.81607 0.82422 0.0
H445 H 0.1332 0.70548 0.84865 0.0
H446 H 0.17254 0.73175 0.81979 0.0
C447 C 0.2894 0.83823 0.80843 0.0
C448 C 0.25588 0.77249 0.82555 0.0
H449 H 0.21103 0.72809 0.76913 0.0
C450 C 0.24713 0.76425 0.86605 0.0
C451 C 0.24309 0.75895 0.79017 0.0
C452 C 0.25163 0.7673 0.74595 0.0
C453 C 0.22546 0.74322 0.87207 0.0
C454 C 0.2122 0.73016 0.83662 0.0
C455 C 0.22136 0.73797 0.79617 0.0
C456 C 0.18742 0.71057 0.84139 0.0
C457 C 0.21615 0.73578 0.91623 0.0
C458 C 0.18226 0.68895 0.85987 0.0
C459 C 0.15949 0.67354 0.87541 0.0
C460 C 0.14185 0.67985 0.8732 0.0
C461 C 0.14634 0.69999 0.85003 0.0
C462 C 0.16894 0.71519 0.83403 0.0
H463 H 0.22777 0.74882 0.94015 0.0
H464 H 0.19817 0.73349 0.91894 0.0
H465 H 0.21474 0.71849 0.92346 0.0
H466 H 0.19628 0.68502 0.86567 0.0
H467 H 0.15668 0.65843 0.89402 0.0
H468 H 0.63385 0.15379 0.86258 0.0
H469 H 0.63141 0.17004 0.93071 0.0
H470 H 0.56592 0.16561 0.89262 0.0
H471 H 0.56897 0.15077 0.82421 0.0
H472 H 0.58666 0.19926 0.95006 0.0
H473 H 0.58571 0.11796 0.00584 0.0
H474 H 0.61302 0.13955 0.98225 0.0
H475 H 0.58658 0.12487 0.95083 0.0
C476 C 0.61961 0.15744 0.86794 0.0
C477 C 0.60126 0.15039 0.83841 0.0
C478 C 0.61798 0.16635 0.90724 0.0
C479 C 0.59783 0.16793 0.91764 0.0
C480 C 0.58141 0.16416 0.88587 0.0
H481 H 0.50296 0.13816 0.11994 0.0
H482 H 0.52608 0.15677 0.0562 0.0
C483 C 0.5832 0.15565 0.84658 0.0
C484 C 0.59152 0.16948 0.96224 0.0
H485 H 0.57691 0.13876 0.05494 0.0
C486 C 0.58488 0.18625 0.97321 0.0
C487 C 0.5887 0.15222 0.99243 0.0
C488 C 0.59364 0.1325 0.98231 0.0
C489 C 0.57519 0.18594 0.01304 0.0
C490 C 0.57212 0.16849 0.0427 0.0
C491 C 0.5795 0.15231 0.0323 0.0
C492 C 0.55971 0.16507 0.08366 0.0
C493 C 0.56798 0.204 0.0229 0.0
C494 C 0.57102 0.1647 0.12097 0.0
C495 C 0.55783 0.15404 0.15722 0.0
C496 C 0.53308 0.14362 0.15694 0.0
C497 C 0.52206 0.1465 0.12126 0.0
C498 C 0.5353 0.15706 0.08471 0.0
H499 H 0.57695 0.21968 1.0019 0.0
H500 H 0.5486 0.19589 0.01834 0.0
H501 H 0.57206 0.20992 0.05613 0.0
H502 H 0.58978 0.17067 0.12094 0.0
H503 H 0.56669 0.15176 0.18414 0.0
H504 H 0.42168 0.60361 0.1554 0.0
H505 H 0.40443 0.59836 0.22548 0.0
H506 H 0.47439 0.6343 0.27945 0.0
H507 H 0.49165 0.64014 0.2093 0.0
H508 H 0.41214 0.56967 0.27389 0.0
H509 H 0.43914 0.65161 0.36338 0.0
H510 H 0.44064 0.65127 0.30662 0.0
H511 H 0.46393 0.65206 0.3382 0.0
C512 C 0.43339 0.61168 0.18199 0.0
C513 C 0.45801 0.6221 0.17688 0.0
C514 C 0.42349 0.60848 0.22216 0.0
C515 C 0.43802 0.61563 0.258 0.0
C516 C 0.46271 0.62884 0.25247 0.0
H517 H 0.44938 0.56828 0.4934 0.0
H518 H 0.4498 0.5915 0.43329 0.0
C519 C 0.47264 0.63229 0.21212 0.0
C520 C 0.42785 0.60478 0.29971 0.0
H521 H 0.42991 0.61666 0.40479 0.0
C522 C 0.41546 0.57997 0.30241 0.0
C523 C 0.43229 0.61813 0.33701 0.0
C524 C 0.44453 0.64475 0.33613 0.0
C525 C 0.40893 0.56818 0.34132 0.0
C526 C 0.41437 0.58154 0.37891 0.0
C527 C 0.42558 0.60635 0.3761 0.0
C528 C 0.41229 0.57034 0.42084 0.0
C529 C 0.39793 0.54159 0.34179 0.0
C530 C 0.39076 0.55139 0.43574 0.0
C531 C 0.39049 0.53779 0.47037 0.0
C532 C 0.41174 0.54311 0.49055 0.0
C533 C 0.43274 0.5635 0.47813 0.0
C534 C 0.43301 0.57692 0.44376 0.0
H535 H 0.39875 0.53447 0.3105 0.0
H536 H 0.40696 0.53608 0.365 0.0
H537 H 0.37904 0.53338 0.35092 0.0
H538 H 0.37441 0.54631 0.41921 0.0
H539 H 0.37404 0.52223 0.47925 0.0
H540 H 0.85422 0.42035 0.84692 0.0
H541 H 0.83611 0.42174 0.78097 0.0
H542 H 0.83553 0.35861 0.73943 0.0
H543 H 0.85416 0.35742 0.8057 0.0
H544 H 0.86229 0.39559 0.69027 0.0
H545 H 0.77729 0.39306 0.71084 0.0
H546 H 0.79882 0.41333 0.74726 0.0
H547 H 0.78931 0.38228 0.75068 0.0
C548 C 0.84915 0.40607 0.82463 0.0
C549 C 0.85582 0.38891 0.83133 0.0
C550 C 0.83866 0.40682 0.7868 0.0
C551 C 0.83443 0.39033 0.75492 0.0
C552 C 0.83857 0.37153 0.76355 0.0
H553 H 0.84692 0.42532 0.48753 0.0
H554 H 0.83059 0.40014 0.5498 0.0
C555 C 0.84905 0.37073 0.80163 0.0
C556 C 0.83108 0.39595 0.71082 0.0
H557 H 0.80121 0.41605 0.65076 0.0
C558 C 0.84851 0.3994 0.6813 0.0
C559 C 0.81336 0.40136 0.69916 0.0
C560 C 0.79352 0.39708 0.72863 0.0
C561 C 0.84965 0.4094 0.64165 0.0
C562 C 0.83243 0.41561 0.63044 0.0
C563 C 0.81437 0.41128 0.65923 0.0
C564 C 0.83446 0.42841 0.5904 0.0
C565 C 0.87029 0.41466 0.61325 0.0
C566 C 0.83979 0.4521 0.59145 0.0
C567 C 0.84841 0.46636 0.5554 0.0
C568 C 0.852 0.45711 0.51805 0.0
C569 C 0.8441 0.4328 0.51586 0.0
C570 C 0.83507 0.41848 0.5516 0.0
H571 H 0.88459 0.4136 0.63029 0.0
H572 H 0.86412 0.40156 0.58733 0.0
H573 H 0.8779 0.43258 0.59917 0.0
H574 H 0.83937 0.46015 0.62098 0.0
H575 H 0.85476 0.48513 0.55811 0.0
H576 H 0.40595 0.83452 0.82219 0.0
H577 H 0.41275 0.81691 0.88468 0.0
H578 H 0.36835 0.83511 0.95711 0.0
H579 H 0.3614 0.85253 0.89437 0.0
H580 H 0.43639 0.85126 0.94534 0.0
H581 H 0.35847 0.77447 0.01675 0.0
H582 H 0.36004 0.78172 0.96145 0.0
H583 H 0.35299 0.79752 0.99963 0.0
C584 C 0.3963 0.83325 0.85075 0.0
C585 C 0.38295 0.84465 0.85338 0.0
C586 C 0.40041 0.8234 0.88663 0.0
C587 C 0.39118 0.82475 0.92575 0.0
C588 C 0.37538 0.83346 0.92724 0.0
H589 H 0.42427 0.8547 0.1766 0.0
H590 H 0.40491 0.83538 0.1115 0.0
C591 C 0.37123 0.8433 0.89121 0.0
C592 C 0.40249 0.82291 0.9652 0.0
H593 H 0.39082 0.79837 0.06345 0.0
C594 C 0.4266 0.83929 0.97089 0.0
C595 C 0.38964 0.80747 0.99854 0.0
C596 C 0.36388 0.78914 0.99378 0.0
C597 C 0.43782 0.84194 0.00982 0.0
C598 C 0.42479 0.82707 0.04397 0.0
C599 C 0.40096 0.80966 0.03742 0.0
C600 C 0.43429 0.83222 0.08784 0.0
C601 C 0.46296 0.86203 0.01465 0.0
C602 C 0.45659 0.83516 0.0983 0.0
C603 C 0.46803 0.84675 0.13568 0.0
C604 C 0.45704 0.8551 0.16328 0.0
C605 C 0.43341 0.84889 0.15556 0.0
C606 C 0.42223 0.83774 0.1182 0.0
H607 H 0.46868 0.87453 0.98766 0.0
H608 H 0.46495 0.87218 0.04384 0.0
H609 H 0.4751 0.85479 0.01644 0.0
H610 H 0.46592 0.83016 0.07617 0.0
H611 H 0.48615 0.85106 0.14089 0.0
H612 H 0.51212 0.37113 0.23128 0.0
H613 H 0.53799 0.37918 0.29245 0.0
H614 H 0.59802 0.42835 0.21856 0.0
H615 H 0.57214 0.42064 0.15776 0.0
H616 H 0.58686 0.38521 0.31521 0.0
H617 H 0.58181 0.46776 0.30404 0.0
H618 H 0.5619 0.44136 0.27542 0.0
H619 H 0.59196 0.45931 0.25825 0.0
C620 C 0.53104 0.38256 0.22748 0.0
C621 C 0.54022 0.39514 0.18983 0.0
C622 C 0.5458 0.3873 0.26253 0.0
C623 C 0.56987 0.40463 0.26017 0.0
C624 C 0.5795 0.41499 0.22108 0.0
H625 H 0.63596 0.49357 0.47734 0.0
H626 H 0.6375 0.47704 0.40904 0.0
C627 C 0.56475 0.41041 0.18625 0.0
C628 C 0.58334 0.41535 0.29945 0.0
H629 H 0.60052 0.46337 0.36271 0.0
C630 C 0.59019 0.40244 0.32545 0.0
C631 C 0.58784 0.43793 0.31263 0.0
C632 C 0.58042 0.45244 0.28642 0.0
C633 C 0.60086 0.41129 0.36489 0.0
C634 C 0.60415 0.43332 0.37908 0.0
C635 C 0.59828 0.44662 0.35199 0.0
C636 C 0.6098 0.44136 0.42369 0.0
C637 C 0.60823 0.39679 0.391 0.0
C638 C 0.59511 0.42656 0.45588 0.0
C639 C 0.59453 0.43593 0.49501 0.0
C640 C 0.6083 0.46036 0.50261 0.0
C641 C 0.62523 0.47466 0.47253 0.0
C642 C 0.62593 0.46522 0.43325 0.0
H643 H 0.61436 0.38714 0.37054 0.0
H644 H 0.62258 0.40791 0.4134 0.0
H645 H 0.59274 0.38336 0.40904 0.0
H646 H 0.58218 0.40827 0.44955 0.0
H647 H 0.58131 0.42447 0.51765 0.0
H648 H 0.13739 0.57329 0.85773 0.0
H649 H 0.15681 0.56677 0.79775 0.0
H650 H 0.14992 0.6193 0.72669 0.0
H651 H 0.13083 0.62615 0.78729 0.0
H652 H 0.12821 0.54906 0.72832 0.0
H653 H 0.21307 0.62764 0.68244 0.0
H654 H 0.20092 0.62357 0.73492 0.0
H655 H 0.18965 0.63376 0.69321 0.0
C656 C 0.14126 0.5844 0.83013 0.0
C657 C 0.13284 0.60038 0.82723 0.0
C658 C 0.1522 0.58054 0.79571 0.0
C659 C 0.15483 0.59247 0.75755 0.0
C660 C 0.14851 0.61015 0.75594 0.0
H661 H 0.14833 0.56766 0.49925 0.0
H662 H 0.16184 0.58583 0.56795 0.0
C663 C 0.13767 0.61416 0.79067 0.0
C664 C 0.15925 0.58297 0.71809 0.0
H665 H 0.19353 0.59784 0.62956 0.0
C666 C 0.14279 0.55956 0.7071 0.0
C667 C 0.17809 0.59675 0.69022 0.0
C668 C 0.19659 0.62178 0.70085 0.0
C669 C 0.14382 0.54993 0.66824 0.0
C670 C 0.16244 0.56381 0.63976 0.0
C671 C 0.17945 0.58702 0.65143 0.0
C672 C 0.16218 0.55573 0.5957 0.0
C673 C 0.12389 0.52553 0.65707 0.0
C674 C 0.16008 0.5336 0.58689 0.0
C675 C 0.1521 0.523 0.54728 0.0
C676 C 0.14652 0.53464 0.51599 0.0
C677 C 0.15236 0.55822 0.52291 0.0
C678 C 0.16001 0.56863 0.5624 0.0
H679 H 0.10858 0.51941 0.67879 0.0
H680 H 0.11754 0.5252 0.62453 0.0
H681 H 0.13027 0.5127 0.6591 0.0
H682 H 0.1625 0.52361 0.61167 0.0
H683 H 0.14775 0.50482 0.54291 0.0
H684 H 0.36924 0.91189 0.9005 0.0
H685 H 0.37018 0.93675 0.95856 0.0
H686 H 0.39901 0.99716 0.87539 0.0
H687 H 0.39902 0.97226 0.81769 0.0
H688 H 0.42673 0.00622 0.93795 0.0
H689 H 0.3377 0.96878 0.00656 0.0
H690 H 0.34515 0.94597 1.00162 0.0
H691 H 0.34244 0.96027 0.95503 0.0
C692 C 0.37466 0.93023 0.89424 0.0
C693 C 0.38361 0.94012 0.85458 0.0
C694 C 0.37518 0.9445 0.92748 0.0
C695 C 0.38441 0.96892 0.92155 0.0
C696 C 0.39165 0.97839 0.88087 0.0
H697 H 0.43305 0.07168 0.13294 0.0
H698 H 0.41017 0.05101 0.06976 0.0
C699 C 0.39146 0.96415 0.84776 0.0
C700 C 0.39059 0.98489 0.95875 0.0
H701 H 0.37081 0.99009 0.05574 0.0
C702 C 0.41423 0.00308 0.96303 0.0
C703 C 0.37446 0.98097 0.99187 0.0
C704 C 0.34848 0.96308 0.98826 0.0
C705 C 0.42245 0.01627 1.00022 0.0
C706 C 0.40676 0.01106 0.03437 0.0
C707 C 0.38284 0.9939 0.02955 0.0
C708 C 0.41598 0.02135 0.07641 0.0
C709 C 0.44824 0.03486 1.00379 0.0
C710 C 0.42611 0.01112 0.10155 0.0
C711 C 0.43924 0.02288 0.13712 0.0
C712 C 0.4424 0.04508 0.14852 0.0
C713 C 0.43075 0.05452 0.12512 0.0
C714 C 0.41773 0.04278 0.08903 0.0
H715 H 0.45746 0.03888 0.97293 0.0
H716 H 0.45009 0.05143 0.01698 0.0
H717 H 0.45717 0.02856 0.02568 0.0
H718 H 0.42501 0.99465 0.09223 0.0
H719 H 0.44791 0.01511 0.1546 0.0
H720 H 0.45322 0.3697 0.23447 0.0
H721 H 0.42909 0.3699 0.29305 0.0
H722 H 0.39784 0.39983 0.21185 0.0
H723 H 0.42295 0.40065 0.15383 0.0
H724 H 0.41611 0.42662 0.27558 0.0
H725 H 0.36424 0.3365 0.34001 0.0
H726 H 0.39467 0.34446 0.33546 0.0
H727 H 0.37794 0.34213 0.28874 0.0
C728 C 0.44031 0.37518 0.2287 0.0
C729 C 0.43954 0.38469 0.1895 0.0
C730 C 0.42647 0.37531 0.26227 0.0
C731 C 0.41132 0.38466 0.25709 0.0
C732 C 0.40924 0.39242 0.21681 0.0
H733 H 0.3653 0.44537 0.45966 0.0
H734 H 0.3607 0.42256 0.39525 0.0
C735 C 0.42339 0.39266 0.18347 0.0
C736 C 0.40118 0.39023 0.29465 0.0
H737 H 0.37445 0.36868 0.38991 0.0
C738 C 0.40639 0.41372 0.29996 0.0
C739 C 0.38856 0.37355 0.32685 0.0
C740 C 0.38083 0.34772 0.32222 0.0
C741 C 0.40072 0.4213 0.33726 0.0
C742 C 0.38933 0.40494 0.37035 0.0
C743 C 0.38314 0.38121 0.36451 0.0
C744 C 0.38696 0.41313 0.41279 0.0
C745 C 0.40834 0.44715 0.34203 0.0
C746 C 0.40211 0.41414 0.445 0.0
C747 C 0.40473 0.42709 0.48153 0.0
C748 C 0.39202 0.43904 0.48688 0.0
C749 C 0.37505 0.43605 0.45661 0.0
C750 C 0.3726 0.42323 0.41965 0.0
H751 H 0.41957 0.45803 0.31543 0.0
H752 H 0.39246 0.44916 0.34344 0.0
H753 H 0.41835 0.45423 0.37177 0.0
H754 H 0.41336 0.40652 0.44044 0.0
H755 H 0.41803 0.42924 0.50426 0.0
H756 H 0.08194 0.45943 0.57063 0.0
H757 H 0.05736 0.43497 0.62857 0.0
H758 H 0.00294 0.39043 0.54034 0.0
H759 H 0.02759 0.41557 0.48212 0.0
H760 H 0.98551 0.40581 0.59783 0.0
H761 H 0.03654 0.37276 0.68271 0.0
H762 H 0.05477 0.40397 0.67484 0.0
H763 H 0.04419 0.38449 0.62994 0.0
C764 C 0.06516 0.44379 0.56353 0.0
C765 C 0.05682 0.43902 0.52201 0.0
C766 C 0.05109 0.42972 0.59669 0.0
C767 C 0.02834 0.41049 0.58904 0.0
C768 C 0.0205 0.40496 0.54711 0.0
H769 H 0.92194 0.35519 0.79616 0.0
H770 H 0.94217 0.3522 0.73287 0.0
C771 C 0.03463 0.41917 0.51382 0.0
C772 C 0.01176 0.399 0.62503 0.0
H773 H 0.00986 0.38036 0.72635 0.0
C774 C 0.99047 0.39948 0.62538 0.0
C775 C 0.01805 0.39063 0.66117 0.0
C776 C 0.03953 0.3877 0.6619 0.0
C777 C 0.97647 0.39377 0.66183 0.0
C778 C 0.98391 0.38745 0.69893 0.0
C779 C 0.00425 0.38534 0.69789 0.0
C780 C 0.97298 0.38694 0.74013 0.0
C781 C 0.9547 0.39624 0.6615 0.0
C782 C 0.9839 0.40712 0.76557 0.0
C783 C 0.97238 0.40895 0.80108 0.0
C784 C 0.94978 0.39049 0.81232 0.0
C785 C 0.93944 0.36958 0.78842 0.0
C786 C 0.95091 0.3679 0.75225 0.0
H787 H 0.95119 0.40122 0.62999 0.0
H788 H 0.93905 0.37929 0.67122 0.0
H789 H 0.95682 0.40993 0.68454 0.0
H790 H 0.00088 0.42201 0.75671 0.0
H791 H 0.98081 0.42524 0.81897 0.0
H792 H 0.53666 0.97925 0.14551 0.0
H793 H 0.56204 0.00166 0.08687 0.0
H794 H 0.58857 0.95317 0.07928 0.0
H795 H 0.563 0.93043 0.13884 0.0
H796 H 0.61455 0.02269 0.07466 0.0
H797 H 0.55757 0.95216 0.96044 0.0
H798 H 0.54646 0.95345 0.0118 0.0
H799 H 0.56843 0.94481 0.00689 0.0
C800 C 0.54806 0.97342 0.13179 0.0
C801 C 0.54766 0.95293 0.14662 0.0
C802 C 0.56264 0.98633 0.09834 0.0
C803 C 0.57703 0.97899 0.07852 0.0
C804 C 0.57748 0.95905 0.09408 0.0
H805 H 0.61989 0.04563 0.82751 0.0
H806 H 0.62228 0.02262 0.88718 0.0
C807 C 0.56298 0.94617 0.12817 0.0
C808 C 0.59005 0.99171 0.03998 0.0
H809 H 0.58242 0.9902 0.93351 0.0
C810 C 0.60807 0.01539 0.04365 0.0
C811 C 0.58173 0.98214 0.99953 0.0
C812 C 0.56247 0.95676 0.99399 0.0
C813 C 0.6166 0.03024 0.00824 0.0
C814 C 0.60647 0.02131 0.96833 0.0
C815 C 0.59012 0.99708 0.96412 0.0
C816 C 0.60881 0.03737 0.93311 0.0
C817 C 0.63548 0.05572 0.01424 0.0
C818 C 0.60065 0.05334 0.93919 0.0
C819 C 0.59905 0.06611 0.90547 0.0
C820 C 0.60565 0.06333 0.86475 0.0
C821 C 0.61492 0.04823 0.85871 0.0
C822 C 0.61621 0.03507 0.89266 0.0
H823 H 0.64736 0.05755 0.04078 0.0
H824 H 0.64627 0.06316 0.98533 0.0
H825 H 0.62698 0.06631 0.02202 0.0
H826 H 0.59433 0.05508 0.96975 0.0
H827 H 0.59184 0.07764 0.91101 0.0
H828 H 0.54444 0.52309 0.49089 0.0
H829 H 0.54217 0.54396 0.42903 0.0
H830 H 0.61773 0.57739 0.41294 0.0
H831 H 0.62018 0.55638 0.47551 0.0
H832 H 0.56601 0.59399 0.40599 0.0
H833 H 0.58747 0.53858 0.30207 0.0
H834 H 0.57837 0.53049 0.35605 0.0
H835 H 0.60742 0.55452 0.34447 0.0
C836 C 0.56067 0.53516 0.47466 0.0
C837 C 0.58248 0.53794 0.4879 0.0
C838 C 0.55934 0.54713 0.43934 0.0
C839 C 0.57971 0.56199 0.41609 0.0
C840 C 0.60176 0.56582 0.43029 0.0
H841 H 0.55518 0.62756 0.19089 0.0
H842 H 0.57604 0.62366 0.25197 0.0
C843 C 0.60316 0.55396 0.46615 0.0
C844 C 0.57706 0.57174 0.37552 0.0
H845 H 0.57361 0.56156 0.2696 0.0
C846 C 0.56822 0.5874 0.37603 0.0
C847 C 0.57969 0.56284 0.33656 0.0
C848 C 0.58864 0.54559 0.33435 0.0
C849 C 0.56094 0.59357 0.33879 0.0
C850 C 0.56264 0.58387 0.30007 0.0
C851 C 0.57247 0.56906 0.29933 0.0
C852 C 0.55147 0.58636 0.26114 0.0
C853 C 0.55013 0.60923 0.34137 0.0
C854 C 0.53113 0.5666 0.24547 0.0
C855 C 0.51917 0.56874 0.21081 0.0
C856 C 0.5274 0.59071 0.19071 0.0
C857 C 0.54834 0.61037 0.20555 0.0
C858 C 0.56023 0.60822 0.24058 0.0
H859 H 0.54776 0.61323 0.37439 0.0
H860 H 0.56174 0.62618 0.32493 0.0
H861 H 0.53265 0.60068 0.32543 0.0
H862 H 0.52409 0.54956 0.26082 0.0
H863 H 0.50323 0.55317 0.20019 0.0
H864 H 0.00594 0.57052 0.83179 0.0
H865 H 0.98514 0.57453 0.77136 0.0
H866 H 0.04653 0.64138 0.74021 0.0
H867 H 0.06757 0.6375 0.80136 0.0
H868 H 0.97586 0.61246 0.74041 0.0
H869 H 0.0351 0.59528 0.63837 0.0
H870 H 0.03233 0.58889 0.69403 0.0
H871 H 0.04824 0.61896 0.67609 0.0
C872 C 0.01486 0.58638 0.81272 0.0
C873 C 0.03845 0.60364 0.8212 0.0
C874 C 0.00291 0.58866 0.7782 0.0
C875 C 0.01434 0.6081 0.75098 0.0
C876 C 0.03742 0.62616 0.76072 0.0
H877 H 0.96018 0.58462 0.49322 0.0
H878 H 0.98343 0.60888 0.55312 0.0
C879 C 0.04936 0.62402 0.79579 0.0
C880 C 0.00271 0.60767 0.71044 0.0
H881 H 0.00157 0.59273 0.60723 0.0
C882 C 0.98172 0.60866 0.71103 0.0
C883 C 0.01041 0.60283 0.67206 0.0
C884 C 0.03268 0.6013 0.66971 0.0
C885 C 0.96772 0.60393 0.67468 0.0
C886 C 0.97448 0.59729 0.63701 0.0
C887 C 0.99625 0.59778 0.63591 0.0
C888 C 0.95809 0.58667 0.60042 0.0
C889 C 0.9456 0.6057 0.67737 0.0
C890 C 0.93563 0.56669 0.60664 0.0
C891 C 0.92225 0.55317 0.57244 0.0
C892 C 0.93102 0.55921 0.53125 0.0
C893 C 0.95269 0.58003 0.52457 0.0
C894 C 0.9661 0.5937 0.55888 0.0
H895 H 0.948 0.61972 0.69989 0.0
H896 H 0.94058 0.60959 0.64625 0.0
H897 H 0.93083 0.58871 0.68924 0.0
H898 H 0.92923 0.56031 0.63809 0.0
H899 H 0.90596 0.53676 0.57848 0.0
H900 H 0.48389 0.07251 0.34399 0.0
H901 H 0.48177 0.05299 0.41107 0.0
H902 H 0.54262 0.04768 0.37383 0.0
H903 H 0.54462 0.06696 0.30867 0.0
H904 H 0.46805 0.0113 0.41559 0.0
H905 H 0.55067 0.03996 0.49176 0.0
H906 H 0.54634 0.0612 0.4622 0.0
H907 H 0.56089 0.04656 0.43872 0.0
C908 C 0.49706 0.06767 0.35076 0.0
C909 C 0.51354 0.07004 0.31996 0.0
C910 C 0.49606 0.05669 0.38949 0.0
C911 C 0.51177 0.04826 0.39807 0.0
C912 C 0.53029 0.05398 0.3694 0.0
H913 H 0.5148 0.9764 0.28917 0.0
H914 H 0.51997 0.99884 0.35295 0.0
C915 C 0.53118 0.06475 0.33113 0.0
C916 C 0.50546 0.02829 0.42823 0.0
H917 H 0.53497 0.99883 0.44856 0.0
C918 C 0.4825 0.00872 0.42495 0.0
C919 C 0.52319 0.02427 0.44528 0.0
C920 C 0.54653 0.04432 0.46023 0.0
C921 C 0.47895 0.98567 0.42464 0.0
C922 C 0.49892 0.98269 0.42669 0.0
C923 C 0.51996 0.00132 0.44332 0.0
C924 C 0.50122 0.96815 0.39325 0.0
C925 C 0.45493 0.96543 0.41314 0.0
C926 C 0.48969 0.94329 0.3948 0.0
C927 C 0.48714 0.9303 0.35788 0.0
C928 C 0.4958 0.94217 0.31935 0.0
C929 C 0.50829 0.96691 0.31862 0.0
C930 C 0.51133 0.97974 0.35518 0.0
H931 H 0.44068 0.96913 0.42235 0.0
H932 H 0.45402 0.96269 0.37856 0.0
H933 H 0.45176 0.94887 0.42872 0.0
H934 H 0.48144 0.934 0.4237 0.0
H935 H 0.47691 0.91117 0.35882 0.0
H936 H 0.42029 0.48935 0.67887 0.0
H937 H 0.43514 0.48665 0.74847 0.0
H938 H 0.50667 0.53002 0.70275 0.0
H939 H 0.49203 0.5323 0.63511 0.0
H940 H 0.45506 0.46459 0.77079 0.0
H941 H 0.52447 0.54887 0.81844 0.0
H942 H 0.49833 0.54587 0.79295 0.0
H943 H 0.52469 0.55377 0.7629 0.0
C944 C 0.43909 0.4985 0.6841 0.0
C945 C 0.45493 0.50998 0.65074 0.0
C946 C 0.44765 0.49723 0.72419 0.0
C947 C 0.47218 0.50812 0.73171 0.0
C948 C 0.48769 0.52179 0.69924 0.0
H949 H 0.51255 0.44499 0.65534 0.0
H950 H 0.49517 0.44903 0.71712 0.0
C951 C 0.47922 0.52274 0.65965 0.0
C952 C 0.48221 0.50144 0.76809 0.0
H953 H 0.5404 0.52183 0.78601 0.0
C954 C 0.47355 0.47729 0.77562 0.0
C955 C 0.50547 0.51725 0.78187 0.0
C956 C 0.51356 0.54289 0.78945 0.0
C957 C 0.48954 0.46919 0.78283 0.0
C958 C 0.51392 0.4851 0.77536 0.0
C959 C 0.52175 0.50911 0.78338 0.0
C960 C 0.52707 0.47901 0.7432 0.0
C961 C 0.48032 0.44357 0.79368 0.0
C962 C 0.55152 0.49392 0.73484 0.0
C963 C 0.56157 0.4921 0.69666 0.0
C964 C 0.54739 0.47525 0.66641 0.0
C965 C 0.52401 0.4587 0.67717 0.0
C966 C 0.51398 0.46076 0.71413 0.0
H967 H 0.47289 0.44018 0.82591 0.0
H968 H 0.46569 0.43189 0.77217 0.0
H969 H 0.49449 0.43889 0.79305 0.0
H970 H 0.56263 0.50791 0.75644 0.0
H971 H 0.57993 0.50455 0.69013 0.0
H972 H 0.91033 0.42284 0.02192 0.0
H973 H 0.93056 0.44162 0.08835 0.0
H974 H 0.99794 0.46864 0.02629 0.0
H975 H 0.97801 0.45054 0.96083 0.0
H976 H 0.99833 0.45948 0.11983 0.0
H977 H 0.95757 0.51409 0.08351 0.0
H978 H 0.9404 0.48291 0.09546 0.0
H979 H 0.9529 0.49253 0.0438 0.0
C980 C 0.92944 0.43187 0.02331 0.0
C981 C 0.94272 0.43525 0.98656 0.0
C982 C 0.94095 0.44264 0.06116 0.0
C983 C 0.96575 0.45665 0.06236 0.0
C984 C 0.97883 0.45777 0.02649 0.0
H985 H 0.06433 0.52294 0.98209 0.0
H986 H 0.04619 0.50473 0.04779 0.0
C987 C 0.96744 0.44753 0.9889 0.0
C988 C 0.97839 0.47495 0.09504 0.0
H989 H -0.00019 0.53364 0.08154 0.0
C990 C 0.9983 0.4758 0.11371 0.0
C991 C 0.97801 0.49634 0.09131 0.0
C992 C 0.95598 0.49656 0.07792 0.0
C993 C 0.01963 0.49743 0.11665 0.0
C994 C 0.02093 0.5178 0.09821 0.0
C995 C -0.00044 0.51777 0.09233 0.0
C996 C 0.04096 0.53337 0.06951 0.0
C997 C 0.04118 0.49772 0.13418 0.0
C998 C 0.04601 0.55651 0.05981 0.0
C999 C 0.0562 0.56685 0.02092 0.0
C1000 C 0.06157 0.55427 0.99137 0.0
C1001 C 0.05996 0.53292 1.00389 0.0
C1002 C 0.0498 0.52258 0.04234 0.0
H1003 H 0.03714 0.4897 0.16609 0.0
H1004 H 0.04593 0.48676 0.11429 0.0
H1005 H 0.05646 0.51598 0.13634 0.0
H1006 H 0.0398 0.56556 0.08017 0.0
H1007 H 0.05748 0.58337 0.01266 0.0
H1008 H 0.05188 0.46759 0.34743 0.0
H1009 H 0.03003 0.46497 0.28405 0.0
H1010 H 0.05128 0.53883 0.29799 0.0
H1011 H 0.07591 0.54183 0.35662 0.0
H1012 H 0.99447 0.46227 0.28376 0.0
H1013 H 0.03333 0.53856 0.18511 0.0
H1014 H 0.05278 0.5318 0.21491 0.0
H1015 H 0.04481 0.55309 0.23402 0.0
C1016 C 0.05378 0.48367 0.33422 0.0
C1017 C 0.06641 0.50506 0.35587 0.0
C1018 C 0.04059 0.48212 0.29839 0.0
C1019 C 0.03846 0.50159 0.28516 0.0
C1020 C 0.05275 0.52346 0.30532 0.0
H1021 H 0.9759 0.53087 0.39104 0.0
H1022 H 0.9957 0.53127 0.32629 0.0
C1023 C 0.06674 0.52519 0.33981 0.0
C1024 C 0.01722 0.49791 0.26061 0.0
H1025 H 0.99765 0.53541 0.2336 0.0
C1026 C 0.99526 0.47788 0.27032 0.0
C1027 C 0.01688 0.51683 0.2394 0.0
C1028 C 0.03834 0.53604 0.21729 0.0
C1029 C 0.97444 0.4791 0.27025 0.0
C1030 C 0.97606 0.5012 0.2625 0.0
C1031 C 0.99645 0.5188 0.24216 0.0
C1032 C 0.96346 0.50883 0.29182 0.0
C1033 C 0.95196 0.45813 0.28627 0.0
C1034 C 0.93861 0.49776 0.29311 0.0
C1035 C 0.92717 0.49771 0.33063 0.0
C1036 C 0.94057 0.50863 0.36679 0.0
C1037 C 0.96523 0.52214 0.36359 0.0
C1038 C 0.97655 0.52254 0.32631 0.0
H1039 H 0.95285 0.44159 0.28513 0.0
H1040 H 0.94887 0.46124 0.31941 0.0
H1041 H 0.93666 0.45556 0.26708 0.0
H1042 H 0.92812 0.48732 0.26671 0.0
H1043 H 0.9081 0.48723 0.33247 0.0
H1044 H 0.41374 0.91254 0.66869 0.0
H1045 H 0.43376 0.93265 0.60255 0.0
H1046 H 0.50104 0.95286 0.65987 0.0
H1047 H 0.48154 0.93358 0.72424 0.0
H1048 H 0.45926 0.97882 0.60425 0.0
H1049 H 0.51996 0.95289 0.54134 0.0
H1050 H 0.49296 0.93168 0.56777 0.0
H1051 H 0.52026 0.94828 0.59676 0.0
C1052 C 0.4327 0.92109 0.66657 0.0
C1053 C 0.44607 0.92273 0.70228 0.0
C1054 C 0.44409 0.93223 0.62876 0.0
C1055 C 0.46893 0.9446 0.6261 0.0
C1056 C 0.48189 0.94334 0.66028 0.0
H1057 H 0.544 0.02495 0.72624 0.0
H1058 H 0.52672 -0.00084 0.66597 0.0
C1059 C 0.47063 0.93255 0.69774 0.0
C1060 C 0.4818 0.96383 0.59467 0.0
H1061 H 0.54038 0.99586 0.57161 0.0
C1062 C 0.4767 0.98233 0.59485 0.0
C1063 C 0.50405 0.96864 0.57895 0.0
C1064 C 0.50939 0.94911 0.57067 0.0
C1065 C 0.4951 0.00593 0.59192 0.0
C1066 C 0.51868 0.0106 0.58997 0.0
C1067 C 0.5225 0.99225 0.5768 0.0
C1068 C 0.53549 0.02747 0.6213 0.0
C1069 C 0.48974 0.02548 0.59982 0.0
C1070 C 0.54711 0.05217 0.61611 0.0
C1071 C 0.55752 0.06714 0.65102 0.0
C1072 C 0.55601 0.05738 0.69118 0.0
C1073 C 0.54562 0.03285 0.69551 0.0
C1074 C 0.53581 0.01811 0.66095 0.0
H1075 H 0.47126 0.02001 0.59095 0.0
H1076 H 0.49207 0.03002 0.63381 0.0
H1077 H 0.50199 0.04154 0.58166 0.0
H1078 H 0.54682 0.05975 0.58594 0.0
H1079 H 0.56505 0.08605 0.64727 0.0
H1080 H 0.45592 0.5619 0.96931 0.0
H1081 H 0.46458 0.5395 0.91691 0.0
H1082 H 0.52149 0.54611 0.99523 0.0
H1083 H 0.51347 0.569 0.04592 0.0
H1084 H 0.52794 0.54144 0.90318 0.0
H1085 H 0.4411 0.47365 0.97049 0.0
H1086 H 0.44354 0.49791 0.93963 0.0
H1087 H 0.45561 0.50306 0.99191 0.0
C1088 C 0.47123 0.55982 0.97367 0.0
C1089 C 0.48457 0.56769 0.01088 0.0
C1090 C 0.47609 0.54695 0.9439 0.0
C1091 C 0.49382 0.54124 0.952 0.0
C1092 C 0.50822 0.55086 0.98755 0.0
H1093 H 0.54586 0.4816 0.04907 0.0
H1094 H 0.54328 0.50161 0.98719 0.0
C1095 C 0.50369 0.56402 0.0166 0.0
C1096 C 0.49371 0.52066 0.93218 0.0
H1097 H 0.47021 0.46348 0.96288 0.0
C1098 C 0.5148 0.52397 0.91409 0.0
C1099 C 0.47633 0.49767 0.94497 0.0
C1100 C 0.4528 0.49265 0.96274 0.0
C1101 C 0.52053 0.50588 0.91538 0.0
C1102 C 0.50505 0.48441 0.93625 0.0
C1103 C 0.48234 0.47993 0.94722 0.0
C1104 C 0.51384 0.47049 0.95943 0.0
C1105 C 0.54409 0.51081 0.89833 0.0
C1106 C 0.49958 0.44575 0.96338 0.0
C1107 C 0.50085 0.43423 0.99975 0.0
C1108 C 0.51628 0.44732 0.03247 0.0
C1109 C 0.53323 0.47111 0.02492 0.0
C1110 C 0.53204 0.48259 0.98881 0.0
H1111 H 0.54787 0.52054 0.86801 0.0
H1112 H 0.55831 0.52238 0.92058 0.0
H1113 H 0.54466 0.49427 0.89347 0.0
H1114 H 0.4856 0.43583 0.94093 0.0
H1115 H 0.48815 0.41583 1.00376 0.0
H1116 H 0.39223 0.91726 0.61627 0.0
H1117 H 0.40597 0.94278 0.55432 0.0
H1118 H 0.37688 0.98396 0.60535 0.0
H1119 H 0.36454 0.95909 0.66904 0.0
H1120 H 0.37966 0.9478 0.49781 0.0
H1121 H 0.44025 0.03578 0.56543 0.0
H1122 H 0.42875 0.00898 0.59606 0.0
H1123 H 0.41121 0.02286 0.58796 0.0
C1124 C 0.39017 0.93268 0.61545 0.0
C1125 C 0.3788 0.93718 0.64861 0.0
C1126 C 0.39744 0.9469 0.57948 0.0
C1127 C 0.39295 0.96568 0.57527 0.0
C1128 C 0.38126 0.97009 0.60829 0.0
H1129 H 0.40467 0.06128 0.37836 0.0
H1130 H 0.39399 0.03491 0.43864 0.0
C1131 C 0.37419 0.9559 0.64465 0.0
C1132 C 0.39899 0.97936 0.53508 0.0
H1133 H 0.42796 0.03527 0.49414 0.0
C1134 C 0.39039 0.96693 0.49703 0.0
C1135 C 0.41311 0.00431 0.53382 0.0
C1136 C 0.42407 0.01874 0.57297 0.0
C1137 C 0.39487 0.97876 0.45814 0.0
C1138 C 0.40845 0.00371 0.4571 0.0
C1139 C 0.41741 0.01612 0.49497 0.0
C1140 C 0.41287 0.01752 0.41748 0.0
C1141 C 0.38447 0.96452 0.41861 0.0
C1142 C 0.42646 0.01603 0.38458 0.0
C1143 C 0.43297 0.03144 0.34995 0.0
C1144 C 0.42562 0.04831 0.34727 0.0
C1145 C 0.41071 0.04857 0.37906 0.0
C1146 C 0.40464 0.03356 0.41386 0.0
H1147 H 0.37049 0.94607 0.42566 0.0
H1148 H 0.37682 0.97288 0.39837 0.0
H1149 H 0.39865 0.96388 0.40049 0.0
H1150 H 0.43273 0.00356 0.38634 0.0
H1151 H 0.4444 0.03066 0.32607 0.0
H1152 H 0.43974 0.34978 0.93657 0.0
H1153 H 0.42594 0.36306 0.87769 0.0
H1154 H 0.41868 0.41201 0.95883 0.0
H1155 H 0.43459 0.39987 0.01796 0.0
H1156 H 0.38749 0.35998 0.8595 0.0
H1157 H 0.45127 0.45652 0.86785 0.0
H1158 H 0.45449 0.43549 0.89977 0.0
H1159 H 0.43332 0.44439 0.91383 0.0
C1160 C 0.43516 0.36336 0.94218 0.0
C1161 C 0.43804 0.37357 0.98226 0.0
C1162 C 0.42725 0.37101 0.90819 0.0
C1163 C 0.42138 0.3888 0.9131 0.0
C1164 C 0.42371 0.39878 0.95346 0.0
H1165 H 0.34309 0.41509 0.71875 0.0
H1166 H 0.35436 0.39981 0.7788 0.0
C1167 C 0.43247 0.3916 0.98754 0.0
C1168 C 0.41266 0.39614 0.87553 0.0
H1169 H 0.42198 0.44361 0.81553 0.0
C1170 C 0.3953 0.37832 0.84987 0.0
C1171 C 0.42253 0.42004 0.86253 0.0
C1172 C 0.44157 0.44023 0.88721 0.0
C1173 C 0.38817 0.38359 0.81156 0.0
C1174 C 0.39809 0.40743 0.79884 0.0
C1175 C 0.41485 0.42531 0.82481 0.0
C1176 C 0.39078 0.41438 0.75949 0.0
C1177 C 0.3704 0.36354 0.78462 0.0
C1178 C 0.40741 0.42735 0.72798 0.0
C1179 C 0.40105 0.43629 0.6933 0.0
C1180 C 0.37796 0.43262 0.68976 0.0
C1181 C 0.36107 0.41842 0.72025 0.0
C1182 C 0.36745 0.40956 0.75477 0.0
H1183 H 0.36941 0.34653 0.79284 0.0
H1184 H 0.35263 0.36142 0.78965 0.0
H1185 H 0.37486 0.36723 0.75071 0.0
H1186 H 0.42548 0.43105 0.73074 0.0
H1187 H 0.41447 0.44692 0.67035 0.0
H1188 H 0.96744 0.40619 0.99438 0.0
H1189 H 0.99501 0.42048 0.05397 0.0
H1190 H 0.96561 0.34884 0.09875 0.0
H1191 H 0.93818 0.33464 0.03988 0.0
H1192 H 0.98201 0.41592 0.13668 0.0
H1193 H 0.03532 0.37267 0.1114 0.0
H1194 H 0.01718 0.37467 0.07058 0.0
H1195 H 0.00416 0.352 0.11027 0.0
C1196 C 0.96709 0.39353 0.01665 0.0
C1197 C 0.95034 0.36937 0.0125 0.0
C1198 C 0.98289 0.40167 0.05065 0.0
C1199 C 0.98252 0.38573 0.08082 0.0
C1200 C 0.96662 0.36148 0.07556 0.0
H1201 H 0.04417 0.39467 0.32862 0.0
H1202 H 0.01981 0.38174 0.26429 0.0
C1203 C 0.95084 0.35338 0.04172 0.0
C1204 C 0.99715 0.39442 0.11969 0.0
H1205 H 0.0365 0.38762 0.18065 0.0
C1206 C 0.99417 0.40998 0.14603 0.0
C1207 C 0.01283 0.38648 0.13215 0.0
C1208 C 0.01776 0.37072 0.10441 0.0
C1209 C 0.00598 0.41738 0.18483 0.0
C1210 C 0.02136 0.40913 0.19761 0.0
C1211 C 0.0245 0.39373 0.17112 0.0
C1212 C 0.03502 0.4169 0.23761 0.0
C1213 C 0.00136 0.43344 0.2123 0.0
C1214 C 0.05182 0.44082 0.24373 0.0
C1215 C 0.06549 0.44812 0.28034 0.0
C1216 C 0.06258 0.43174 0.3118 0.0
C1217 C 0.04615 0.40771 0.30545 0.0
C1218 C 0.03237 0.40036 0.26869 0.0
H1219 H 0.98492 0.43339 0.20307 0.0
H1220 H -8e-05 0.42814 0.24586 0.0
H1221 H 0.0163 0.45182 0.20917 0.0
H1222 H 0.05478 0.45381 0.21972 0.0
H1223 H 0.07891 0.46658 0.28353 0.0
H1224 H 0.58842 0.03899 0.67537 0.0
H1225 H 0.57356 0.01293 0.61407 0.0
H1226 H 0.64278 0.05047 0.5574 0.0
H1227 H 0.65739 0.07679 0.61769 0.0
H1228 H 0.61017 0.04753 0.50342 0.0
H1229 H 0.57939 0.95856 0.57226 0.0
H1230 H 0.56643 0.97451 0.59519 0.0
H1231 H 0.59757 0.98538 0.60131 0.0
C1232 C 0.60039 0.04157 0.64988 0.0
C1233 C 0.62385 0.06034 0.65123 0.0
C1234 C 0.59194 0.02656 0.61482 0.0
C1235 C 0.6069 0.02987 0.5805 0.0
C1236 C 0.63073 0.04767 0.58308 0.0
H1237 H 0.59122 0.93785 0.3759 0.0
H1238 H 0.60184 0.96284 0.43813 0.0
C1239 C 0.63913 0.06264 0.61797 0.0
C1240 C 0.59788 0.01597 0.5408 0.0
H1241 H 0.5723 0.96019 0.49985 0.0
C1242 C 0.60188 0.02841 0.50268 0.0
C1243 C 0.58686 0.99101 0.53971 0.0
C1244 C 0.58244 0.97654 0.57922 0.0
C1245 C 0.59608 0.01677 0.46359 0.0
C1246 C 0.58543 0.99184 0.46245 0.0
C1247 C 0.5806 0.97931 0.50064 0.0
C1248 C 0.58038 0.97842 0.42219 0.0
C1249 C 0.60241 0.0314 0.42389 0.0
C1250 C 0.56539 0.97935 0.39144 0.0
C1251 C 0.55961 0.96531 0.35519 0.0
C1252 C 0.56824 0.94967 0.34923 0.0
C1253 C 0.58413 0.94962 0.37917 0.0
C1254 C 0.59006 0.96376 0.41517 0.0
H1255 H 0.61544 0.05031 0.42992 0.0
H1256 H 0.60984 0.02461 0.39987 0.0
H1257 H 0.58624 0.03045 0.41066 0.0
H1258 H 0.55757 0.99038 0.39595 0.0
H1259 H 0.54784 0.96611 0.33237 0.0
H1260 H 0.57428 0.65543 0.9555 0.0
H1261 H 0.5816 0.63984 0.89125 0.0
H1262 H 0.55898 0.57306 0.95315 0.0
H1263 H 0.55324 0.58947 0.01894 0.0
H1264 H 0.59226 0.58047 0.90388 0.0
H1265 H 0.53291 0.59896 0.80924 0.0
H1266 H 0.55516 0.62611 0.83203 0.0
H1267 H 0.53472 0.60226 0.86562 0.0
C1268 C 0.57118 0.63751 0.95568 0.0
C1269 C 0.56239 0.62332 0.99189 0.0
C1270 C 0.57489 0.62842 0.91855 0.0
C1271 C 0.56953 0.60476 0.91635 0.0
C1272 C 0.5624 0.59108 0.95342 0.0
H1273 H 0.5715 0.54085 0.67128 0.0
H1274 H 0.55668 0.55102 0.73402 0.0
C1275 C 0.55891 0.60033 0.9909 0.0
C1276 C 0.57213 0.59484 0.87564 0.0
H1277 H 0.56248 0.5947 0.76967 0.0
C1278 C 0.58536 0.58326 0.87474 0.0
C1279 C 0.56253 0.59762 0.83735 0.0
C1280 C 0.54529 0.60663 0.83622 0.0
C1281 C 0.59051 0.5759 0.83662 0.0
C1282 C 0.58307 0.58104 0.79815 0.0
C1283 C 0.56875 0.59136 0.79907 0.0
C1284 C 0.59128 0.57698 0.75698 0.0
C1285 C 0.60418 0.56291 0.83774 0.0
C1286 C 0.61546 0.58942 0.74733 0.0
C1287 C 0.62392 0.58412 0.71106 0.0
C1288 C 0.60841 0.566 0.68368 0.0
C1289 C 0.58397 0.55466 0.69189 0.0
C1290 C 0.57547 0.56033 0.72801 0.0
H1291 H 0.6028 0.55463 0.86896 0.0
H1292 H 0.5977 0.54893 0.81326 0.0
H1293 H 0.62314 0.5756 0.8315 0.0
H1294 H 0.62793 0.60276 0.76866 0.0
H1295 H 0.64285 0.59339 0.70588 0.0
H1296 H 0.02101 0.59169 0.99085 0.0
H1297 H 0.99263 0.57817 0.04965 0.0
H1298 H 0.04209 0.63846 0.12265 0.0
H1299 H 0.06933 0.65265 0.06388 0.0
H1300 H 0.99173 0.5639 0.12432 0.0
H1301 H 0.98675 0.64498 0.14225 0.0
H1302 H 0.00138 0.64068 0.09798 0.0
H1303 H 0.01705 0.65261 0.1468 0.0
C1304 C 0.02544 0.60232 0.0191 0.0
C1305 C 0.04713 0.62363 0.02208 0.0
C1306 C 0.00932 0.5945 0.05287 0.0
C1307 C 0.01476 0.60768 0.09044 0.0
C1308 C 0.03677 0.6285 0.09361 0.0
H1309 H 0.95192 0.55563 0.33925 0.0
H1310 H 0.97768 0.56843 0.27695 0.0
C1311 C 0.05247 0.63659 0.05976 0.0
C1312 C 0.99811 0.5996 0.12709 0.0
H1313 H 0.97579 0.61983 0.20347 0.0
C1314 C 0.9882 0.57613 0.14147 0.0
C1315 C 0.9926 0.61518 0.14893 0.0
C1316 C -0.00021 0.63964 0.13279 0.0
C1317 C 0.9738 0.56822 0.17768 0.0
C1318 C 0.97013 0.58445 0.20138 0.0
C1319 C 0.97933 0.6076 0.18626 0.0
C1320 C 0.95535 0.57747 0.24026 0.0
C1321 C 0.96123 0.54224 0.18859 0.0
C1322 C 0.93506 0.57962 0.24146 0.0
C1323 C 0.92061 0.57269 0.2771 0.0
C1324 C 0.92597 0.56328 0.31265 0.0
C1325 C 0.94702 0.56233 0.31228 0.0
C1326 C 0.96163 0.56945 0.27649 0.0
H1327 H 0.96649 0.53203 0.16768 0.0
H1328 H 0.96481 0.53959 0.22154 0.0
H1329 H 0.94185 0.5349 0.18585 0.0
H1330 H 0.93002 0.58613 0.21427 0.0
H1331 H 0.90464 0.57384 0.27592 0.0
H1332 H 0.4873 0.1418 0.41063 0.0
H1333 H 0.51631 0.1543 0.46743 0.0
H1334 H 0.56896 0.15928 0.37957 0.0
H1335 H 0.54001 0.14634 0.32284 0.0
H1336 H 0.56083 0.12866 0.44356 0.0
H1337 H 0.57525 0.21375 0.50781 0.0
H1338 H 0.54459 0.19169 0.50282 0.0
H1339 H 0.56261 0.20302 0.4564 0.0
C1340 C 0.50524 0.14625 0.40317 0.0
C1341 C 0.5113 0.1428 0.36241 0.0
C1342 C 0.52186 0.15355 0.43563 0.0
C1343 C 0.54481 0.15785 0.42761 0.0
C1344 C 0.55134 0.15609 0.38634 0.0
H1345 H 0.65108 0.16103 0.59685 0.0
H1346 H 0.63317 0.17048 0.5379 0.0
C1347 C 0.53474 0.14861 0.35402 0.0
C1348 C 0.56059 0.16016 0.46281 0.0
H1349 H 0.58705 0.19146 0.55189 0.0
C1350 C 0.56694 0.14266 0.4668 0.0
C1351 C 0.56822 0.17826 0.49332 0.0
C1352 C 0.56251 0.19788 0.48975 0.0
C1353 C 0.58017 0.14235 0.50111 0.0
C1354 C 0.58749 0.1602 0.53194 0.0
C1355 C 0.58148 0.17794 0.52786 0.0
C1356 C 0.60003 0.15945 0.56986 0.0
C1357 C 0.58547 0.12241 0.50507 0.0
C1358 C 0.58753 0.15104 0.60764 0.0
C1359 C 0.59761 0.14552 0.6413 0.0
C1360 C 0.62037 0.14835 0.63761 0.0
C1361 C 0.63348 0.1585 0.60068 0.0
C1362 C 0.62333 0.16395 0.56698 0.0
H1363 H 0.57586 0.10833 0.4813 0.0
H1364 H 0.60472 0.12948 0.50078 0.0
H1365 H 0.5806 0.11435 0.53693 0.0
H1366 H 0.56947 0.14742 0.6102 0.0
H1367 H 0.58707 0.13792 0.66938 0.0
H1368 H 0.42899 0.55159 0.6561 0.0
H1369 H 0.45043 0.58344 0.70657 0.0
H1370 H 0.39055 0.55173 0.79064 0.0
H1371 H 0.36866 0.52006 0.73994 0.0
H1372 H 0.41185 0.60059 0.78745 0.0
H1373 H 0.47828 0.57218 0.8125 0.0
H1374 H 0.47572 0.57939 0.75898 0.0
H1375 H 0.4512 0.55442 0.78386 0.0
C1376 C 0.42023 0.55149 0.68511 0.0
C1377 C 0.39716 0.53312 0.69415 0.0
C1378 C 0.43259 0.56966 0.71398 0.0
C1379 C 0.42224 0.56965 0.75263 0.0
C1380 C 0.39887 0.55198 0.761 0.0
H1381 H 0.46046 0.62577 0.99597 0.0
H1382 H 0.43969 0.61143 0.9293 0.0
C1383 C 0.3864 0.53388 0.732 0.0
C1384 C 0.43609 0.58728 0.78535 0.0
H1385 H 0.48383 0.60557 0.84989 0.0
C1386 C 0.4277 0.60184 0.80092 0.0
C1387 C 0.45673 0.58878 0.80288 0.0
C1388 C 0.46594 0.57274 0.78905 0.0
C1389 C 0.43925 0.61767 0.83407 0.0
C1390 C 0.45958 0.61883 0.85199 0.0
C1391 C 0.46837 0.6048 0.8356 0.0
C1392 C 0.47064 0.6323 0.89075 0.0
C1393 C 0.42949 0.63279 0.85009 0.0
C1394 C 0.49474 0.64944 0.89106 0.0
C1395 C 0.5067 0.65774 0.9292 0.0
C1396 C 0.49477 0.64863 0.96755 0.0
C1397 C 0.47018 0.63306 0.967 0.0
C1398 C 0.45823 0.62492 0.92887 0.0
H1399 H 0.41815 0.63473 0.8262 0.0
H1400 H 0.41851 0.62432 0.87842 0.0
H1401 H 0.44398 0.65062 0.85915 0.0
H1402 H 0.50461 0.65521 0.86188 0.0
H1403 H 0.52564 0.66967 0.92845 0.0
H1404 H 0.86559 0.39932 0.00696 0.0
H1405 H 0.85587 0.41469 0.06915 0.0
H1406 H 0.84216 0.35256 0.13927 0.0
H1407 H 0.85204 0.33699 0.07742 0.0
H1408 H 0.80914 0.37328 0.15256 0.0
H1409 H 0.90587 0.43517 0.16994 0.0
H1410 H 0.89331 0.43473 0.11935 0.0
H1411 H 0.89409 0.40905 0.13739 0.0
C1412 C 0.86014 0.38868 0.03534 0.0
C1413 C 0.86004 0.36711 0.03738 0.0
C1414 C 0.85454 0.39749 0.07078 0.0
C1415 C 0.84857 0.38483 0.10871 0.0
C1416 C 0.84676 0.36255 0.11015 0.0
H1417 H 0.86853 0.4512 0.35228 0.0
H1418 H 0.86305 0.42255 0.29789 0.0
C1419 C 0.85245 0.35373 0.07475 0.0
C1420 C 0.84686 0.39602 0.14779 0.0
H1421 H 0.88062 0.44028 0.21644 0.0
C1422 C 0.82471 0.38785 0.16677 0.0
C1423 C 0.86731 0.41479 0.16633 0.0
C1424 C 0.89156 0.42391 0.14752 0.0
C1425 C 0.82244 0.39857 0.20343 0.0
C1426 C 0.84285 0.41777 0.22121 0.0
C1427 C 0.86502 0.42546 0.20276 0.0
C1428 C 0.84181 0.43127 0.25758 0.0
C1429 C 0.79834 0.38936 0.22287 0.0
C1430 C 0.83114 0.44518 0.25331 0.0
C1431 C 0.8344 0.46176 0.28414 0.0
C1432 C 0.84853 0.46476 0.31964 0.0
C1433 C 0.85777 0.44956 0.32516 0.0
C1434 C 0.85459 0.4331 0.2942 0.0
H1435 H 0.7856 0.37121 0.21183 0.0
H1436 H 0.79939 0.38923 0.25774 0.0
H1437 H 0.79136 0.40114 0.21391 0.0
H1438 H 0.82153 0.44429 0.22494 0.0
H1439 H 0.82693 0.47308 0.27891 0.0
H1440 H 0.4561 0.86075 0.33481 0.0
H1441 H 0.43031 0.84833 0.39641 0.0
H1442 H 0.48107 0.83788 0.46574 0.0
H1443 H 0.50712 0.8502 0.40433 0.0
H1444 H 0.41489 0.80376 0.4631 0.0
H1445 H 0.47252 0.8975 0.51347 0.0
H1446 H 0.46881 0.88919 0.4587 0.0
H1447 H 0.48602 0.88151 0.49219 0.0
C1448 C 0.46159 0.85525 0.36275 0.0
C1449 C 0.48386 0.85682 0.36485 0.0
C1450 C 0.44674 0.84804 0.39778 0.0
C1451 C 0.45394 0.84229 0.43531 0.0
C1452 C 0.4753 0.84217 0.43676 0.0
H1453 H 0.40675 0.85511 0.68247 0.0
H1454 H 0.42664 0.84557 0.62759 0.0
C1455 C 0.49015 0.84929 0.40168 0.0
C1456 C 0.44096 0.84017 0.47433 0.0
H1457 H 0.4401 0.87327 0.55619 0.0
C1458 C 0.42043 0.81879 0.48384 0.0
C1459 C 0.44837 0.85995 0.50087 0.0
C1460 C 0.47008 0.88344 0.49102 0.0
C1461 C 0.40684 0.81677 0.5195 0.0
C1462 C 0.41398 0.83674 0.54554 0.0
C1463 C 0.43482 0.85794 0.53631 0.0
C1464 C 0.39944 0.83696 0.58086 0.0
C1465 C 0.38498 0.79343 0.52895 0.0
C1466 C 0.37721 0.83456 0.57302 0.0
C1467 C 0.36574 0.84002 0.60433 0.0
C1468 C 0.37647 0.84821 0.64381 0.0
C1469 C 0.398 0.84899 0.65237 0.0
C1470 C 0.40941 0.8435 0.62109 0.0
H1471 H 0.38571 0.7785 0.51374 0.0
H1472 H 0.38262 0.79016 0.56338 0.0
H1473 H 0.36925 0.79374 0.51658 0.0
H1474 H 0.36946 0.82999 0.5419 0.0
H1475 H 0.34918 0.8392 0.59667 0.0
H1476 H 0.6571 0.52137 0.74921 0.0
H1477 H 0.64664 0.49766 0.81351 0.0
H1478 H 0.59555 0.43649 0.74449 0.0
H1479 H 0.60579 0.45991 0.6801 0.0
H1480 H 0.59843 0.47696 0.84005 0.0
H1481 H 0.62626 0.40974 0.82617 0.0
H1482 H 0.64012 0.43713 0.79671 0.0
H1483 H 0.61214 0.41293 0.78008 0.0
C1484 C 0.64417 0.5027 0.74736 0.0
C1485 C 0.63208 0.49259 0.7096 0.0
C1486 C 0.63825 0.4892 0.78416 0.0
C1487 C 0.62048 0.46535 0.78357 0.0
C1488 C 0.60961 0.45479 0.74539 0.0
H1489 H 0.51622 0.35867 0.93593 0.0
H1490 H 0.54692 0.3817 0.8842 0.0
C1491 C 0.61537 0.46828 0.70867 0.0
C1492 C 0.61026 0.45265 0.82335 0.0
H1493 H 0.59582 0.40182 0.87664 0.0
C1494 C 0.59828 0.4608 0.84871 0.0
C1495 C 0.60989 0.43147 0.83391 0.0
C1496 C 0.62296 0.42235 0.808 0.0
C1497 C 0.58479 0.44766 0.88324 0.0
C1498 C 0.58394 0.42612 0.89337 0.0
C1499 C 0.59667 0.4184 0.8689 0.0
C1500 C 0.56812 0.41047 0.9268 0.0
C1501 C 0.5704 0.45623 0.90684 0.0
C1502 C 0.57052 0.41854 0.96834 0.0
C1503 C 0.55286 0.40558 0.99784 0.0
C1504 C 0.53273 0.38416 0.98636 0.0
C1505 C 0.53146 0.37513 0.94572 0.0
C1506 C 0.549 0.38826 0.91612 0.0
H1507 H 0.56899 0.47019 0.88923 0.0
H1508 H 0.55225 0.44142 0.91323 0.0
H1509 H 0.57901 0.46381 0.93746 0.0
H1510 H 0.58545 0.43541 0.97738 0.0
H1511 H 0.55452 0.41284 0.0291 0.0
H1512 H 0.15696 0.50028 0.26212 0.0
H1513 H 0.16469 0.52721 0.2032 0.0
H1514 H 0.14713 0.57026 0.28088 0.0
H1515 H 0.1392 0.54345 0.34013 0.0
H1516 H 0.12429 0.53349 0.17801 0.0
H1517 H 0.20738 0.61806 0.20924 0.0
H1518 H 0.20176 0.59011 0.23097 0.0
H1519 H 0.18718 0.60479 0.25261 0.0
C1520 C 0.15536 0.51581 0.26718 0.0
C1521 C 0.14719 0.51953 0.30581 0.0
C1522 C 0.15982 0.53118 0.23342 0.0
C1523 C 0.15657 0.5507 0.2379 0.0
C1524 C 0.15004 0.55543 0.2771 0.0
H1525 H 0.13673 0.64566 0.08071 0.0
H1526 H 0.14748 0.62702 0.13656 0.0
C1527 C 0.14541 0.54 0.31085 0.0
C1528 C 0.15617 0.56374 0.2003 0.0
H1529 H 0.18326 0.61797 0.15319 0.0
C1530 C 0.13734 0.55187 0.17213 0.0
C1531 C 0.17304 0.58775 0.19345 0.0
C1532 C 0.19362 0.60101 0.22294 0.0
C1533 C 0.13446 0.56358 0.1377 0.0
C1534 C 0.15138 0.58767 0.13058 0.0
C1535 C 0.17046 0.59947 0.15853 0.0
C1536 C 0.14861 0.60112 0.09571 0.0
C1537 C 0.11268 0.55032 0.11058 0.0
C1538 C 0.14675 0.5934 0.05399 0.0
C1539 C 0.1402 0.60373 0.02217 0.0
C1540 C 0.13603 0.62236 0.03144 0.0
C1541 C 0.13984 0.63134 0.07262 0.0
C1542 C 0.14597 0.62071 0.10457 0.0
H1543 H 0.09895 0.53395 0.12621 0.0
H1544 H 0.10486 0.56155 0.1028 0.0
H1545 H 0.11755 0.54505 0.08073 0.0
H1546 H 0.14942 0.57876 0.04631 0.0
H1547 H 0.13771 0.59666 0.99059 0.0
loop_
_geom_bond_atom_site_label_1
_geom_bond_atom_site_label_2
_geom_bond_distance
_geom_bond_site_symmetry_2
_ccdc_geom_bond_type
O0 Mn1 2.163 . S
O0 C14 1.244 . S
Mn1 O0 2.163 . S
Mn1 O4 2.160 . S
Mn1 O5 2.221 . S
Mn1 O7 2.163 . S
Mn1 O9 2.160 . S
Mn1 O19 2.221 . S
O2 Mn3 2.087 . S
O2 C14 1.256 . S
Mn3 O2 2.087 . S
Mn3 O10 2.089 . S
Mn3 O19 2.290 . S
Mn3 O20 2.251 . S
O4 Mn1 2.160 . S
O4 C15 1.239 . S
O5 Mn1 2.221 . S
O5 Mn6 2.290 . S
O5 C16 1.278 . S
Mn6 O5 2.290 . S
Mn6 O8 2.089 . S
Mn6 O11 2.251 . S
Mn6 O12 2.087 . S
O7 Mn1 2.163 . S
O7 C17 1.244 . S
O8 Mn6 2.089 . S
O8 C15 1.256 . S
O9 Mn1 2.160 . S
O9 C18 1.239 . S
O10 Mn3 2.089 . S
O10 C18 1.256 . S
O11 Mn6 2.251 . S
O11 C16 1.241 . S
O12 Mn6 2.087 . S
O12 C17 1.256 . S
C13 O19 1.278 . S
C13 O20 1.241 . S
C14 O0 1.244 . S
C14 O2 1.256 . S
C15 O4 1.239 . S
C15 O8 1.256 . S
C16 O5 1.278 . S
C16 O11 1.241 . S
C17 O7 1.244 . S
C17 O12 1.256 . S
C18 O9 1.239 . S
C18 O10 1.256 . S
O19 Mn1 2.221 . S
O19 Mn3 2.290 . S
O19 C13 1.278 . S
O20 Mn3 2.251 . S
O20 C13 1.241 . S
O21 Mn22 2.163 . S
O21 C35 1.244 . S
Mn22 O21 2.163 . S
Mn22 O25 2.160 . S
Mn22 O26 2.221 . S
Mn22 O28 2.163 . S
Mn22 O30 2.160 . S
Mn22 O40 2.221 . S
O23 Mn24 2.087 . S
O23 C35 1.256 . S
Mn24 O23 2.087 . S
Mn24 O31 2.089 . S
Mn24 O40 2.290 . S
Mn24 O41 2.251 . S
O25 Mn22 2.160 . S
O25 C36 1.239 . S
O26 Mn22 2.221 . S
O26 Mn27 2.290 . S
O26 C37 1.278 . S
Mn27 O26 2.290 . S
Mn27 O29 2.089 . S
Mn27 O32 2.251 . S
Mn27 O33 2.087 . S
O28 Mn22 2.163 . S
O28 C38 1.244 . S
O29 Mn27 2.089 . S
O29 C36 1.256 . S
O30 Mn22 2.160 . S
O30 C39 1.239 . S
O31 Mn24 2.089 . S
O31 C39 1.256 . S
O32 Mn27 2.251 . S
O32 C37 1.241 . S
O33 Mn27 2.087 . S
O33 C38 1.256 . S
C34 O40 1.278 . S
C34 O41 1.241 . S
C35 O21 1.244 . S
C35 O23 1.256 . S
C36 O25 1.239 . S
C36 O29 1.256 . S
C37 O26 1.278 . S
C37 O32 1.241 . S
C38 O28 1.244 . S
C38 O33 1.256 . S
C39 O30 1.239 . S
C39 O31 1.256 . S
O40 Mn22 2.221 . S
O40 Mn24 2.290 . S
O40 C34 1.278 . S
O41 Mn24 2.251 . S
O41 C34 1.241 . S
O42 Mn43 2.163 . S
O42 C56 1.244 . S
Mn43 O42 2.163 . S
Mn43 O46 2.160 . S
Mn43 O47 2.221 . S
Mn43 O49 2.163 . S
Mn43 O51 2.160 . S
Mn43 O61 2.221 . S
O44 Mn45 2.086 1_554 S
O44 C56 1.256 1_554 S
Mn45 O44 2.086 1_556 S
Mn45 O52 2.084 1_556 S
Mn45 O61 2.305 . S
Mn45 O62 2.262 . S
O46 Mn43 2.160 . S
O46 C57 1.239 . S
O47 Mn43 2.221 . S
O47 Mn48 2.290 . S
O47 C58 1.278 . S
Mn48 O47 2.290 . S
Mn48 O50 2.089 . S
Mn48 O53 2.251 . S
Mn48 O54 2.087 . S
O49 Mn43 2.163 . S
O49 C59 1.244 . S
O50 Mn48 2.089 . S
O50 C57 1.256 . S
O51 Mn43 2.160 . S
O51 C60 1.239 1_556 S
O52 Mn45 2.084 1_554 S
O52 C60 1.256 . S
O53 Mn48 2.251 . S
O53 C58 1.241 . S
O54 Mn48 2.087 . S
O54 C59 1.256 . S
C55 O61 1.278 . S
C55 O62 1.241 . S
C56 O42 1.244 . S
C56 O44 1.256 1_556 S
C57 O46 1.239 . S
C57 O50 1.256 . S
C58 O47 1.278 . S
C58 O53 1.241 . S
C59 O49 1.244 . S
C59 O54 1.256 . S
C60 O51 1.239 1_554 S
C60 O52 1.256 . S
O61 Mn43 2.221 . S
O61 Mn45 2.305 . S
O61 C55 1.278 . S
O62 Mn45 2.262 . S
O62 C55 1.241 . S
O63 Mn64 2.163 . S
O63 C77 1.244 . S
Mn64 O63 2.163 . S
Mn64 O67 2.160 . S
Mn64 O68 2.221 . S
Mn64 O70 2.163 . S
Mn64 O72 2.160 . S
Mn64 O82 2.221 . S
O65 Mn66 2.087 . S
O65 C77 1.256 . S
Mn66 O65 2.087 . S
Mn66 O73 2.089 . S
Mn66 O82 2.290 . S
Mn66 O83 2.251 . S
O67 Mn64 2.160 . S
O67 C78 1.239 . S
O68 Mn64 2.221 . S
O68 Mn69 2.290 . S
O68 C79 1.278 . S
Mn69 O68 2.290 . S
Mn69 O71 2.089 . S
Mn69 O74 2.251 . S
Mn69 O75 2.087 . S
O70 Mn64 2.163 . S
O70 C80 1.244 . S
O71 Mn69 2.089 . S
O71 C78 1.256 . S
O72 Mn64 2.160 . S
O72 C81 1.239 . S
O73 Mn66 2.089 . S
O73 C81 1.256 . S
O74 Mn69 2.251 . S
O74 C79 1.241 . S
O75 Mn69 2.087 . S
O75 C80 1.256 . S
C76 O82 1.278 . S
C76 O83 1.241 . S
C77 O63 1.244 . S
C77 O65 1.256 . S
C78 O67 1.239 . S
C78 O71 1.256 . S
C79 O68 1.278 . S
C79 O74 1.241 . S
C80 O70 1.244 . S
C80 O75 1.256 . S
C81 O72 1.239 . S
C81 O73 1.256 . S
O82 Mn64 2.221 . S
O82 Mn66 2.290 . S
O82 C76 1.278 . S
O83 Mn66 2.251 . S
O83 C76 1.241 . S
O84 Mn85 2.163 . S
O84 C98 1.244 . S
Mn85 O84 2.163 . S
Mn85 O88 2.160 . S
Mn85 O89 2.221 . S
Mn85 O91 2.163 . S
Mn85 O93 2.160 . S
Mn85 O103 2.221 . S
O86 Mn87 2.087 . S
O86 C98 1.256 . S
Mn87 O86 2.087 . S
Mn87 O94 2.089 . S
Mn87 O103 2.290 . S
Mn87 O104 2.251 . S
O88 Mn85 2.160 . S
O88 C99 1.239 . S
O89 Mn85 2.221 . S
O89 Mn90 2.290 . S
O89 C100 1.278 . S
Mn90 O89 2.290 . S
Mn90 O92 2.089 . S
Mn90 O95 2.251 . S
Mn90 O96 2.087 . S
O91 Mn85 2.163 . S
O91 C101 1.244 . S
O92 Mn90 2.089 . S
O92 C99 1.256 . S
O93 Mn85 2.160 . S
O93 C102 1.239 . S
O94 Mn87 2.089 . S
O94 C102 1.256 . S
O95 Mn90 2.251 . S
O95 C100 1.241 . S
O96 Mn90 2.087 . S
O96 C101 1.256 . S
C97 O103 1.278 . S
C97 O104 1.241 . S
C98 O84 1.244 . S
C98 O86 1.256 . S
C99 O88 1.239 . S
C99 O92 1.256 . S
C100 O89 1.278 . S
C100 O95 1.241 . S
C101 O91 1.244 . S
C101 O96 1.256 . S
C102 O93 1.239 . S
C102 O94 1.256 . S
O103 Mn85 2.221 . S
O103 Mn87 2.290 . S
O103 C97 1.278 . S
O104 Mn87 2.251 . S
O104 C97 1.241 . S
O105 Mn106 2.163 . S
O105 C119 1.244 . S
Mn106 O105 2.163 . S
Mn106 O109 2.160 . S
Mn106 O110 2.221 . S
Mn106 O112 2.163 . S
Mn106 O114 2.160 . S
Mn106 O124 2.221 . S
O107 Mn108 2.086 1_554 S
O107 C119 1.256 1_554 S
Mn108 O107 2.086 1_556 S
Mn108 O115 2.084 1_556 S
Mn108 O124 2.305 . S
Mn108 O125 2.262 . S
O109 Mn106 2.160 . S
O109 C120 1.239 . S
O110 Mn106 2.221 . S
O110 Mn111 2.290 . S
O110 C121 1.278 . S
Mn111 O110 2.290 . S
Mn111 O113 2.089 . S
Mn111 O116 2.251 . S
Mn111 O117 2.087 . S
O112 Mn106 2.163 . S
O112 C122 1.244 . S
O113 Mn111 2.089 . S
O113 C120 1.256 . S
O114 Mn106 2.160 . S
O114 C123 1.239 1_556 S
O115 Mn108 2.084 1_554 S
O115 C123 1.256 . S
O116 Mn111 2.251 . S
O116 C121 1.241 . S
O117 Mn111 2.087 . S
O117 C122 1.256 . S
C118 O124 1.278 . S
C118 O125 1.241 . S
C119 O105 1.244 . S
C119 O107 1.256 1_556 S
C120 O109 1.239 . S
C120 O113 1.256 . S
C121 O110 1.278 . S
C121 O116 1.241 . S
C122 O112 1.244 . S
C122 O117 1.256 . S
C123 O114 1.239 1_554 S
C123 O115 1.256 . S
O124 Mn106 2.221 . S
O124 Mn108 2.305 . S
O124 C118 1.278 . S
O125 Mn108 2.262 . S
O125 C118 1.241 . S
O126 Mn127 2.163 . S
O126 C140 1.244 . S
Mn127 O126 2.163 . S
Mn127 O130 2.160 . S
Mn127 O131 2.221 . S
Mn127 O133 2.163 . S
Mn127 O135 2.160 . S
Mn127 O145 2.221 . S
O128 Mn129 2.087 . S
O128 C140 1.256 . S
Mn129 O128 2.087 . S
Mn129 O136 2.089 . S
Mn129 O145 2.290 . S
Mn129 O146 2.251 . S
O130 Mn127 2.160 . S
O130 C141 1.239 . S
O131 Mn127 2.221 . S
O131 Mn132 2.290 . S
O131 C142 1.278 . S
Mn132 O131 2.290 . S
Mn132 O134 2.089 . S
Mn132 O137 2.251 . S
Mn132 O138 2.087 . S
O133 Mn127 2.163 . S
O133 C143 1.244 . S
O134 Mn132 2.089 . S
O134 C141 1.256 . S
O135 Mn127 2.160 . S
O135 C144 1.239 . S
O136 Mn129 2.089 . S
O136 C144 1.256 . S
O137 Mn132 2.251 . S
O137 C142 1.241 . S
O138 Mn132 2.087 . S
O138 C143 1.256 . S
C139 O145 1.278 . S
C139 O146 1.241 . S
C140 O126 1.244 . S
C140 O128 1.256 . S
C141 O130 1.239 . S
C141 O134 1.256 . S
C142 O131 1.278 . S
C142 O137 1.241 . S
C143 O133 1.244 . S
C143 O138 1.256 . S
C144 O135 1.239 . S
C144 O136 1.256 . S
O145 Mn127 2.221 . S
O145 Mn129 2.290 . S
O145 C139 1.278 . S
O146 Mn129 2.251 . S
O146 C139 1.241 . S
O147 Mn148 2.163 . S
O147 C161 1.244 . S
Mn148 O147 2.163 . S
Mn148 O151 2.160 . S
Mn148 O152 2.221 . S
Mn148 O154 2.163 . S
Mn148 O156 2.160 . S
Mn148 O166 2.221 . S
O149 Mn150 2.087 . S
O149 C161 1.256 . S
Mn150 O149 2.087 . S
Mn150 O157 2.089 . S
Mn150 O166 2.290 . S
Mn150 O167 2.251 . S
O151 Mn148 2.160 . S
O151 C162 1.239 . S
O152 Mn148 2.221 . S
O152 Mn153 2.290 . S
O152 C163 1.278 . S
Mn153 O152 2.290 . S
Mn153 O155 2.089 . S
Mn153 O158 2.251 . S
Mn153 O159 2.087 . S
O154 Mn148 2.163 . S
O154 C164 1.244 . S
O155 Mn153 2.089 . S
O155 C162 1.256 . S
O156 Mn148 2.160 . S
O156 C165 1.239 . S
O157 Mn150 2.089 . S
O157 C165 1.256 . S
O158 Mn153 2.251 . S
O158 C163 1.241 . S
O159 Mn153 2.087 . S
O159 C164 1.256 . S
C160 O166 1.278 . S
C160 O167 1.241 . S
C161 O147 1.244 . S
C161 O149 1.256 . S
C162 O151 1.239 . S
C162 O155 1.256 . S
C163 O152 1.278 . S
C163 O158 1.241 . S
C164 O154 1.244 . S
C164 O159 1.256 . S
C165 O156 1.239 . S
C165 O157 1.256 . S
O166 Mn148 2.221 . S
O166 Mn150 2.290 . S
O166 C160 1.278 . S
O167 Mn150 2.251 . S
O167 C160 1.241 . S
O168 Mn169 2.163 . S
O168 C182 1.244 . S
Mn169 O168 2.163 . S
Mn169 O172 2.160 . S
Mn169 O173 2.221 . S
Mn169 O175 2.163 . S
Mn169 O177 2.160 . S
Mn169 O187 2.221 . S
O170 Mn171 2.086 1_556 S
O170 C182 1.256 1_556 S
Mn171 O170 2.086 1_554 S
Mn171 O178 2.084 1_554 S
Mn171 O187 2.305 . S
Mn171 O188 2.262 . S
O172 Mn169 2.160 . S
O172 C183 1.239 . S
O173 Mn169 2.221 . S
O173 Mn174 2.290 . S
O173 C184 1.278 . S
Mn174 O173 2.290 . S
Mn174 O176 2.089 . S
Mn174 O179 2.251 . S
Mn174 O180 2.087 . S
O175 Mn169 2.163 . S
O175 C185 1.244 . S
O176 Mn174 2.089 . S
O176 C183 1.256 . S
O177 Mn169 2.160 . S
O177 C186 1.239 1_554 S
O178 Mn171 2.084 1_556 S
O178 C186 1.256 . S
O179 Mn174 2.251 . S
O179 C184 1.241 . S
O180 Mn174 2.087 . S
O180 C185 1.256 . S
C181 O187 1.278 . S
C181 O188 1.241 . S
C182 O168 1.244 . S
C182 O170 1.256 1_554 S
C183 O172 1.239 . S
C183 O176 1.256 . S
C184 O173 1.278 . S
C184 O179 1.241 . S
C185 O175 1.244 . S
C185 O180 1.256 . S
C186 O177 1.239 1_556 S
C186 O178 1.256 . S
O187 Mn169 2.221 . S
O187 Mn171 2.305 . S
O187 C181 1.278 . S
O188 Mn171 2.262 . S
O188 C181 1.241 . S
O189 Mn190 2.163 . S
O189 C203 1.244 . S
Mn190 O189 2.163 . S
Mn190 O193 2.160 . S
Mn190 O194 2.221 . S
Mn190 O196 2.163 . S
Mn190 O198 2.160 . S
Mn190 O208 2.221 . S
O191 Mn192 2.087 . S
O191 C203 1.256 . S
Mn192 O191 2.087 . S
Mn192 O199 2.089 . S
Mn192 O208 2.290 . S
Mn192 O209 2.251 . S
O193 Mn190 2.160 . S
O193 C204 1.239 . S
O194 Mn190 2.221 . S
O194 Mn195 2.290 . S
O194 C205 1.278 . S
Mn195 O194 2.290 . S
Mn195 O197 2.089 . S
Mn195 O200 2.251 . S
Mn195 O201 2.087 . S
O196 Mn190 2.163 . S
O196 C206 1.244 . S
O197 Mn195 2.089 . S
O197 C204 1.256 . S
O198 Mn190 2.160 . S
O198 C207 1.239 . S
O199 Mn192 2.089 . S
O199 C207 1.256 . S
O200 Mn195 2.251 . S
O200 C205 1.241 . S
O201 Mn195 2.087 . S
O201 C206 1.256 . S
C202 O208 1.278 . S
C202 O209 1.241 . S
C203 O189 1.244 . S
C203 O191 1.256 . S
C204 O193 1.239 . S
C204 O197 1.256 . S
C205 O194 1.278 . S
C205 O200 1.241 . S
C206 O196 1.244 . S
C206 O201 1.256 . S
C207 O198 1.239 . S
C207 O199 1.256 . S
O208 Mn190 2.221 . S
O208 Mn192 2.290 . S
O208 C202 1.278 . S
O209 Mn192 2.251 . S
O209 C202 1.241 . S
O210 Mn211 2.163 . S
O210 C224 1.244 . S
Mn211 O210 2.163 . S
Mn211 O214 2.160 . S
Mn211 O215 2.221 . S
Mn211 O217 2.163 . S
Mn211 O219 2.160 . S
Mn211 O229 2.221 . S
O212 Mn213 2.087 . S
O212 C224 1.256 . S
Mn213 O212 2.087 . S
Mn213 O220 2.089 . S
Mn213 O229 2.290 . S
Mn213 O230 2.251 . S
O214 Mn211 2.160 . S
O214 C225 1.239 . S
O215 Mn211 2.221 . S
O215 Mn216 2.290 . S
O215 C226 1.278 . S
Mn216 O215 2.290 . S
Mn216 O218 2.089 . S
Mn216 O221 2.251 . S
Mn216 O222 2.087 . S
O217 Mn211 2.163 . S
O217 C227 1.244 . S
O218 Mn216 2.089 . S
O218 C225 1.256 . S
O219 Mn211 2.160 . S
O219 C228 1.239 . S
O220 Mn213 2.089 . S
O220 C228 1.256 . S
O221 Mn216 2.251 . S
O221 C226 1.241 . S
O222 Mn216 2.087 . S
O222 C227 1.256 . S
C223 O229 1.278 . S
C223 O230 1.241 . S
C224 O210 1.244 . S
C224 O212 1.256 . S
C225 O214 1.239 . S
C225 O218 1.256 . S
C226 O215 1.278 . S
C226 O221 1.241 . S
C227 O217 1.244 . S
C227 O222 1.256 . S
C228 O219 1.239 . S
C228 O220 1.256 . S
O229 Mn211 2.221 . S
O229 Mn213 2.290 . S
O229 C223 1.278 . S
O230 Mn213 2.251 . S
O230 C223 1.241 . S
O231 Mn232 2.163 . S
O231 C245 1.244 . S
Mn232 O231 2.163 . S
Mn232 O235 2.160 . S
Mn232 O236 2.221 . S
Mn232 O238 2.163 . S
Mn232 O240 2.160 . S
Mn232 O250 2.221 . S
O233 Mn234 2.086 1_556 S
O233 C245 1.256 1_556 S
Mn234 O233 2.086 1_554 S
Mn234 O241 2.084 1_554 S
Mn234 O250 2.305 . S
Mn234 O251 2.262 . S
O235 Mn232 2.160 . S
O235 C246 1.239 . S
O236 Mn232 2.221 . S
O236 Mn237 2.290 . S
O236 C247 1.278 . S
Mn237 O236 2.290 . S
Mn237 O239 2.089 . S
Mn237 O242 2.251 . S
Mn237 O243 2.087 . S
O238 Mn232 2.163 . S
O238 C248 1.244 . S
O239 Mn237 2.089 . S
O239 C246 1.256 . S
O240 Mn232 2.160 . S
O240 C249 1.239 1_554 S
O241 Mn234 2.084 1_556 S
O241 C249 1.256 . S
O242 Mn237 2.251 . S
O242 C247 1.241 . S
O243 Mn237 2.087 . S
O243 C248 1.256 . S
C244 O250 1.278 . S
C244 O251 1.241 . S
C245 O231 1.244 . S
C245 O233 1.256 1_554 S
C246 O235 1.239 . S
C246 O239 1.256 . S
C247 O236 1.278 . S
C247 O242 1.241 . S
C248 O238 1.244 . S
C248 O243 1.256 . S
C249 O240 1.239 1_556 S
C249 O241 1.256 . S
O250 Mn232 2.221 . S
O250 Mn234 2.305 . S
O250 C244 1.278 . S
O251 Mn234 2.262 . S
O251 C244 1.241 . S
H252 C260 0.929 . S
H253 C262 0.930 . S
H254 C264 0.930 . S
H255 C267 0.929 . S
H256 C270 0.930 . S
H257 C272 0.960 . S
H258 C272 0.960 . S
H259 C272 0.960 . S
C260 H252 0.929 . S
C260 C261 1.377 . S
C260 C262 1.384 . S
C261 C260 1.377 . S
C261 C267 1.390 . S
C262 H253 0.930 . S
C262 C260 1.384 . S
C262 C263 1.372 . S
C263 C262 1.372 . S
C263 C264 1.400 . S
C263 C268 1.490 . S
C264 H254 0.930 . S
C264 C263 1.400 . S
C264 C267 1.386 . S
H265 C281 0.930 . S
H266 C282 0.931 . S
C267 H255 0.929 . S
C267 C261 1.390 . S
C267 C264 1.386 . S
C268 C263 1.490 . S
C268 C270 1.395 . S
C268 C271 1.403 . S
H269 C275 0.930 . S
C270 H256 0.930 . S
C270 C268 1.395 . S
C270 C273 1.403 . S
C271 C268 1.403 . S
C271 C272 1.524 . S
C271 C275 1.400 . S
C272 H257 0.960 . S
C272 H258 0.960 . S
C272 H259 0.960 . S
C272 C271 1.524 . S
C273 C270 1.403 . S
C273 C274 1.392 . S
C273 C277 1.495 . S
C274 C273 1.392 . S
C274 C275 1.385 . S
C274 C276 1.478 . S
C275 H269 0.930 . S
C275 C271 1.400 . S
C275 C274 1.385 . S
C276 C274 1.478 . S
C276 C278 1.381 . S
C276 C282 1.383 . S
C277 C273 1.495 . S
C277 H283 0.959 . S
C277 H284 0.961 . S
C277 H285 0.960 . S
C278 C276 1.381 . S
C278 C279 1.394 . S
C278 H286 0.930 . S
C279 C278 1.394 . S
C279 C280 1.383 . S
C279 H287 0.929 . S
C280 C279 1.383 . S
C280 C281 1.377 . S
C281 H265 0.930 . S
C281 C280 1.377 . S
C281 C282 1.379 . S
C282 H266 0.931 . S
C282 C276 1.383 . S
C282 C281 1.379 . S
H283 C277 0.959 . S
H284 C277 0.961 . S
H285 C277 0.960 . S
H286 C278 0.930 . S
H287 C279 0.929 . S
H288 C296 0.929 . S
H289 C298 0.930 . S
H290 C300 0.930 . S
H291 C303 0.929 . S
H292 C306 0.930 . S
H293 C308 0.960 . S
H294 C308 0.960 . S
H295 C308 0.960 . S
C296 H288 0.929 . S
C296 C297 1.377 . S
C296 C298 1.384 . S
C297 C296 1.377 . S
C297 C303 1.390 . S
C298 H289 0.930 . S
C298 C296 1.384 . S
C298 C299 1.372 . S
C299 C298 1.372 . S
C299 C300 1.400 . S
C299 C304 1.490 . S
C300 H290 0.930 . S
C300 C299 1.400 . S
C300 C303 1.386 . S
H301 C317 0.930 . S
H302 C318 0.931 . S
C303 H291 0.929 . S
C303 C297 1.390 . S
C303 C300 1.386 . S
C304 C299 1.490 . S
C304 C306 1.395 . S
C304 C307 1.403 . S
H305 C311 0.930 . S
C306 H292 0.930 . S
C306 C304 1.395 . S
C306 C309 1.403 . S
C307 C304 1.403 . S
C307 C308 1.524 . S
C307 C311 1.400 . S
C308 H293 0.960 . S
C308 H294 0.960 . S
C308 H295 0.960 . S
C308 C307 1.524 . S
C309 C306 1.403 . S
C309 C310 1.392 . S
C309 C313 1.495 . S
C310 C309 1.392 . S
C310 C311 1.385 . S
C310 C312 1.478 . S
C311 H305 0.930 . S
C311 C307 1.400 . S
C311 C310 1.385 . S
C312 C310 1.478 . S
C312 C314 1.381 . S
C312 C318 1.383 . S
C313 C309 1.495 . S
C313 H319 0.959 . S
C313 H320 0.961 . S
C313 H321 0.960 . S
C314 C312 1.381 . S
C314 C315 1.394 . S
C314 H322 0.930 . S
C315 C314 1.394 . S
C315 C316 1.383 . S
C315 H323 0.929 . S
C316 C315 1.383 . S
C316 C317 1.377 . S
C317 H301 0.930 . S
C317 C316 1.377 . S
C317 C318 1.379 . S
C318 H302 0.931 . S
C318 C312 1.383 . S
C318 C317 1.379 . S
H319 C313 0.959 . S
H320 C313 0.961 . S
H321 C313 0.960 . S
H322 C314 0.930 . S
H323 C315 0.929 . S
H324 C332 0.929 . S
H325 C334 0.930 . S
H326 C336 0.930 . S
H327 C339 0.929 . S
H328 C342 0.930 . S
H329 C344 0.960 . S
H330 C344 0.960 . S
H331 C344 0.960 . S
C332 H324 0.929 . S
C332 C333 1.377 . S
C332 C334 1.384 . S
C333 C332 1.377 . S
C333 C339 1.390 . S
C334 H325 0.930 . S
C334 C332 1.384 . S
C334 C335 1.372 . S
C335 C334 1.372 . S
C335 C336 1.400 . S
C335 C340 1.490 . S
C336 H326 0.930 . S
C336 C335 1.400 . S
C336 C339 1.386 . S
H337 C353 0.930 . S
H338 C354 0.931 . S
C339 H327 0.929 . S
C339 C333 1.390 . S
C339 C336 1.386 . S
C340 C335 1.490 . S
C340 C342 1.395 . S
C340 C343 1.403 . S
H341 C347 0.930 . S
C342 H328 0.930 . S
C342 C340 1.395 . S
C342 C345 1.403 . S
C343 C340 1.403 . S
C343 C344 1.524 . S
C343 C347 1.400 . S
C344 H329 0.960 . S
C344 H330 0.960 . S
C344 H331 0.960 . S
C344 C343 1.524 . S
C345 C342 1.403 . S
C345 C346 1.392 . S
C345 C349 1.495 . S
C346 C345 1.392 . S
C346 C347 1.385 . S
C346 C348 1.478 . S
C347 H341 0.930 . S
C347 C343 1.400 . S
C347 C346 1.385 . S
C348 C346 1.478 . S
C348 C350 1.381 . S
C348 C354 1.383 . S
C349 C345 1.495 . S
C349 H355 0.959 . S
C349 H356 0.961 . S
C349 H357 0.960 . S
C350 C348 1.381 . S
C350 C351 1.394 . S
C350 H358 0.930 . S
C351 C350 1.394 . S
C351 C352 1.383 . S
C351 H359 0.929 . S
C352 C351 1.383 . S
C352 C353 1.377 . S
C353 H337 0.930 . S
C353 C352 1.377 . S
C353 C354 1.379 . S
C354 H338 0.931 . S
C354 C348 1.383 . S
C354 C353 1.379 . S
H355 C349 0.959 . S
H356 C349 0.961 . S
H357 C349 0.960 . S
H358 C350 0.930 . S
H359 C351 0.929 . S
H360 C368 0.929 . S
H361 C370 0.930 . S
H362 C372 0.930 . S
H363 C375 0.929 . S
H364 C378 0.930 . S
H365 C380 0.960 . S
H366 C380 0.960 . S
H367 C380 0.960 . S
C368 H360 0.929 . S
C368 C369 1.377 . S
C368 C370 1.384 . S
C369 C368 1.377 . S
C369 C375 1.390 . S
C370 H361 0.930 . S
C370 C368 1.384 . S
C370 C371 1.372 . S
C371 C370 1.372 . S
C371 C372 1.400 . S
C371 C376 1.490 . S
C372 H362 0.930 . S
C372 C371 1.400 . S
C372 C375 1.386 . S
H373 C389 0.930 . S
H374 C390 0.931 . S
C375 H363 0.929 . S
C375 C369 1.390 . S
C375 C372 1.386 . S
C376 C371 1.490 . S
C376 C378 1.395 . S
C376 C379 1.403 . S
H377 C383 0.930 . S
C378 H364 0.930 . S
C378 C376 1.395 . S
C378 C381 1.403 . S
C379 C376 1.403 . S
C379 C380 1.524 . S
C379 C383 1.400 . S
C380 H365 0.960 . S
C380 H366 0.960 . S
C380 H367 0.960 . S
C380 C379 1.524 . S
C381 C378 1.403 . S
C381 C382 1.392 . S
C381 C385 1.495 . S
C382 C381 1.392 . S
C382 C383 1.385 . S
C382 C384 1.478 . S
C383 H377 0.930 . S
C383 C379 1.400 . S
C383 C382 1.385 . S
C384 C382 1.478 . S
C384 C386 1.381 . S
C384 C390 1.383 . S
C385 C381 1.495 . S
C385 H391 0.959 . S
C385 H392 0.961 . S
C385 H393 0.960 . S
C386 C384 1.381 . S
C386 C387 1.394 . S
C386 H394 0.930 . S
C387 C386 1.394 . S
C387 C388 1.383 . S
C387 H395 0.929 . S
C388 C387 1.383 . S
C388 C389 1.377 . S
C389 H373 0.930 . S
C389 C388 1.377 . S
C389 C390 1.379 . S
C390 H374 0.931 . S
C390 C384 1.383 . S
C390 C389 1.379 . S
H391 C385 0.959 . S
H392 C385 0.961 . S
H393 C385 0.960 . S
H394 C386 0.930 . S
H395 C387 0.929 . S
H396 C404 0.929 . S
H397 C406 0.930 . S
H398 C408 0.930 . S
H399 C411 0.929 . S
H400 C414 0.930 . S
H401 C416 0.960 . S
H402 C416 0.960 . S
H403 C416 0.960 . S
C404 H396 0.929 . S
C404 C405 1.377 . S
C404 C406 1.384 . S
C405 C404 1.377 . S
C405 C411 1.390 . S
C406 H397 0.930 . S
C406 C404 1.384 . S
C406 C407 1.372 . S
C407 C406 1.372 . S
C407 C408 1.400 . S
C407 C412 1.490 . S
C408 H398 0.930 . S
C408 C407 1.400 . S
C408 C411 1.386 . S
H409 C425 0.930 . S
H410 C426 0.931 . S
C411 H399 0.929 . S
C411 C405 1.390 . S
C411 C408 1.386 . S
C412 C407 1.490 . S
C412 C414 1.395 . S
C412 C415 1.403 . S
H413 C419 0.930 . S
C414 H400 0.930 . S
C414 C412 1.395 . S
C414 C417 1.403 . S
C415 C412 1.403 . S
C415 C416 1.524 . S
C415 C419 1.400 . S
C416 H401 0.960 . S
C416 H402 0.960 . S
C416 H403 0.960 . S
C416 C415 1.524 . S
C417 C414 1.403 . S
C417 C418 1.392 . S
C417 C421 1.495 . S
C418 C417 1.392 . S
C418 C419 1.385 . S
C418 C420 1.478 . S
C419 H413 0.930 . S
C419 C415 1.400 . S
C419 C418 1.385 . S
C420 C418 1.478 . S
C420 C422 1.381 . S
C420 C426 1.383 . S
C421 C417 1.495 . S
C421 H427 0.959 . S
C421 H428 0.961 . S
C421 H429 0.960 . S
C422 C420 1.381 . S
C422 C423 1.394 . S
C422 H430 0.930 . S
C423 C422 1.394 . S
C423 C424 1.383 . S
C423 H431 0.929 . S
C424 C423 1.383 . S
C424 C425 1.377 . S
C425 H409 0.930 . S
C425 C424 1.377 . S
C425 C426 1.379 . S
C426 H410 0.931 . S
C426 C420 1.383 . S
C426 C425 1.379 . S
H427 C421 0.959 . S
H428 C421 0.961 . S
H429 C421 0.960 . S
H430 C422 0.930 . S
H431 C423 0.929 . S
H432 C440 0.929 . S
H433 C442 0.930 . S
H434 C444 0.930 . S
H435 C447 0.929 . S
H436 C450 0.930 . S
H437 C452 0.960 . S
H438 C452 0.960 . S
H439 C452 0.960 . S
C440 H432 0.929 . S
C440 C441 1.377 . S
C440 C442 1.384 . S
C441 C440 1.377 . S
C441 C447 1.390 . S
C442 H433 0.930 . S
C442 C440 1.384 . S
C442 C443 1.372 . S
C443 C442 1.372 . S
C443 C444 1.400 . S
C443 C448 1.490 . S
C444 H434 0.930 . S
C444 C443 1.400 . S
C444 C447 1.386 . S
H445 C461 0.930 . S
H446 C462 0.931 . S
C447 H435 0.929 . S
C447 C441 1.390 . S
C447 C444 1.386 . S
C448 C443 1.490 . S
C448 C450 1.395 . S
C448 C451 1.403 . S
H449 C455 0.930 . S
C450 H436 0.930 . S
C450 C448 1.395 . S
C450 C453 1.403 . S
C451 C448 1.403 . S
C451 C452 1.524 . S
C451 C455 1.400 . S
C452 H437 0.960 . S
C452 H438 0.960 . S
C452 H439 0.960 . S
C452 C451 1.524 . S
C453 C450 1.403 . S
C453 C454 1.392 . S
C453 C457 1.495 . S
C454 C453 1.392 . S
C454 C455 1.385 . S
C454 C456 1.478 . S
C455 H449 0.930 . S
C455 C451 1.400 . S
C455 C454 1.385 . S
C456 C454 1.478 . S
C456 C458 1.381 . S
C456 C462 1.383 . S
C457 C453 1.495 . S
C457 H463 0.959 . S
C457 H464 0.961 . S
C457 H465 0.960 . S
C458 C456 1.381 . S
C458 C459 1.394 . S
C458 H466 0.930 . S
C459 C458 1.394 . S
C459 C460 1.383 . S
C459 H467 0.929 . S
C460 C459 1.383 . S
C460 C461 1.377 . S
C461 H445 0.930 . S
C461 C460 1.377 . S
C461 C462 1.379 . S
C462 H446 0.931 . S
C462 C456 1.383 . S
C462 C461 1.379 . S
H463 C457 0.959 . S
H464 C457 0.961 . S
H465 C457 0.960 . S
H466 C458 0.930 . S
H467 C459 0.929 . S
H468 C476 0.929 . S
H469 C478 0.930 . S
H470 C480 0.930 . S
H471 C483 0.929 . S
H472 C486 0.930 . S
H473 C488 0.960 1_554 S
H474 C488 0.960 . S
H475 C488 0.960 . S
C476 H468 0.929 . S
C476 C477 1.377 . S
C476 C478 1.384 . S
C477 C476 1.377 . S
C477 C483 1.390 . S
C478 H469 0.930 . S
C478 C476 1.384 . S
C478 C479 1.372 . S
C479 C478 1.372 . S
C479 C480 1.400 . S
C479 C484 1.490 . S
C480 H470 0.930 . S
C480 C479 1.400 . S
C480 C483 1.386 . S
H481 C497 0.930 . S
H482 C498 0.931 . S
C483 H471 0.929 . S
C483 C477 1.390 . S
C483 C480 1.386 . S
C484 C479 1.490 . S
C484 C486 1.395 . S
C484 C487 1.403 . S
H485 C491 0.930 . S
C486 H472 0.930 . S
C486 C484 1.395 . S
C486 C489 1.403 1_556 S
C487 C484 1.403 . S
C487 C488 1.524 . S
C487 C491 1.400 1_556 S
C488 H473 0.960 1_556 S
C488 H474 0.960 . S
C488 H475 0.960 . S
C488 C487 1.524 . S
C489 C486 1.403 1_554 S
C489 C490 1.392 . S
C489 C493 1.495 . S
C490 C489 1.392 . S
C490 C491 1.385 . S
C490 C492 1.478 . S
C491 H485 0.930 . S
C491 C487 1.400 1_554 S
C491 C490 1.385 . S
C492 C490 1.478 . S
C492 C494 1.381 . S
C492 C498 1.383 . S
C493 C489 1.495 . S
C493 H499 0.959 1_554 S
C493 H500 0.961 . S
C493 H501 0.960 . S
C494 C492 1.381 . S
C494 C495 1.394 . S
C494 H502 0.930 . S
C495 C494 1.394 . S
C495 C496 1.383 . S
C495 H503 0.929 . S
C496 C495 1.383 . S
C496 C497 1.377 . S
C497 H481 0.930 . S
C497 C496 1.377 . S
C497 C498 1.379 . S
C498 H482 0.931 . S
C498 C492 1.383 . S
C498 C497 1.379 . S
H499 C493 0.959 1_556 S
H500 C493 0.961 . S
H501 C493 0.960 . S
H502 C494 0.930 . S
H503 C495 0.929 . S
H504 C512 0.929 . S
H505 C514 0.930 . S
H506 C516 0.930 . S
H507 C519 0.929 . S
H508 C522 0.930 . S
H509 C524 0.960 . S
H510 C524 0.960 . S
H511 C524 0.960 . S
C512 H504 0.929 . S
C512 C513 1.377 . S
C512 C514 1.384 . S
C513 C512 1.377 . S
C513 C519 1.390 . S
C514 H505 0.930 . S
C514 C512 1.384 . S
C514 C515 1.372 . S
C515 C514 1.372 . S
C515 C516 1.400 . S
C515 C520 1.490 . S
C516 H506 0.930 . S
C516 C515 1.400 . S
C516 C519 1.386 . S
H517 C533 0.930 . S
H518 C534 0.931 . S
C519 H507 0.929 . S
C519 C513 1.390 . S
C519 C516 1.386 . S
C520 C515 1.490 . S
C520 C522 1.395 . S
C520 C523 1.403 . S
H521 C527 0.930 . S
C522 H508 0.930 . S
C522 C520 1.395 . S
C522 C525 1.403 . S
C523 C520 1.403 . S
C523 C524 1.524 . S
C523 C527 1.400 . S
C524 H509 0.960 . S
C524 H510 0.960 . S
C524 H511 0.960 . S
C524 C523 1.524 . S
C525 C522 1.403 . S
C525 C526 1.392 . S
C525 C529 1.495 . S
C526 C525 1.392 . S
C526 C527 1.385 . S
C526 C528 1.478 . S
C527 H521 0.930 . S
C527 C523 1.400 . S
C527 C526 1.385 . S
C528 C526 1.478 . S
C528 C530 1.381 . S
C528 C534 1.383 . S
C529 C525 1.495 . S
C529 H535 0.959 . S
C529 H536 0.961 . S
C529 H537 0.960 . S
C530 C528 1.381 . S
C530 C531 1.394 . S
C530 H538 0.930 . S
C531 C530 1.394 . S
C531 C532 1.383 . S
C531 H539 0.929 . S
C532 C531 1.383 . S
C532 C533 1.377 . S
C533 H517 0.930 . S
C533 C532 1.377 . S
C533 C534 1.379 . S
C534 H518 0.931 . S
C534 C528 1.383 . S
C534 C533 1.379 . S
H535 C529 0.959 . S
H536 C529 0.961 . S
H537 C529 0.960 . S
H538 C530 0.930 . S
H539 C531 0.929 . S
H540 C548 0.929 . S
H541 C550 0.930 . S
H542 C552 0.930 . S
H543 C555 0.929 . S
H544 C558 0.930 . S
H545 C560 0.960 . S
H546 C560 0.960 . S
H547 C560 0.960 . S
C548 H540 0.929 . S
C548 C549 1.377 . S
C548 C550 1.384 . S
C549 C548 1.377 . S
C549 C555 1.390 . S
C550 H541 0.930 . S
C550 C548 1.384 . S
C550 C551 1.372 . S
C551 C550 1.372 . S
C551 C552 1.400 . S
C551 C556 1.490 . S
C552 H542 0.930 . S
C552 C551 1.400 . S
C552 C555 1.386 . S
H553 C569 0.930 . S
H554 C570 0.931 . S
C555 H543 0.929 . S
C555 C549 1.390 . S
C555 C552 1.386 . S
C556 C551 1.490 . S
C556 C558 1.395 . S
C556 C559 1.403 . S
H557 C563 0.930 . S
C558 H544 0.930 . S
C558 C556 1.395 . S
C558 C561 1.403 . S
C559 C556 1.403 . S
C559 C560 1.524 . S
C559 C563 1.400 . S
C560 H545 0.960 . S
C560 H546 0.960 . S
C560 H547 0.960 . S
C560 C559 1.524 . S
C561 C558 1.403 . S
C561 C562 1.392 . S
C561 C565 1.495 . S
C562 C561 1.392 . S
C562 C563 1.385 . S
C562 C564 1.478 . S
C563 H557 0.930 . S
C563 C559 1.400 . S
C563 C562 1.385 . S
C564 C562 1.478 . S
C564 C566 1.381 . S
C564 C570 1.383 . S
C565 C561 1.495 . S
C565 H571 0.959 . S
C565 H572 0.961 . S
C565 H573 0.960 . S
C566 C564 1.381 . S
C566 C567 1.394 . S
C566 H574 0.930 . S
C567 C566 1.394 . S
C567 C568 1.383 . S
C567 H575 0.929 . S
C568 C567 1.383 . S
C568 C569 1.377 . S
C569 H553 0.930 . S
C569 C568 1.377 . S
C569 C570 1.379 . S
C570 H554 0.931 . S
C570 C564 1.383 . S
C570 C569 1.379 . S
H571 C565 0.959 . S
H572 C565 0.961 . S
H573 C565 0.960 . S
H574 C566 0.930 . S
H575 C567 0.929 . S
H576 C584 0.929 . S
H577 C586 0.930 . S
H578 C588 0.930 . S
H579 C591 0.929 . S
H580 C594 0.930 . S
H581 C596 0.960 . S
H582 C596 0.960 1_556 S
H583 C596 0.960 . S
C584 H576 0.929 . S
C584 C585 1.377 . S
C584 C586 1.384 . S
C585 C584 1.377 . S
C585 C591 1.390 . S
C586 H577 0.930 . S
C586 C584 1.384 . S
C586 C587 1.372 . S
C587 C586 1.372 . S
C587 C588 1.400 . S
C587 C592 1.490 . S
C588 H578 0.930 . S
C588 C587 1.400 . S
C588 C591 1.386 . S
H589 C605 0.930 . S
H590 C606 0.931 . S
C591 H579 0.929 . S
C591 C585 1.390 . S
C591 C588 1.386 . S
C592 C587 1.490 . S
C592 C594 1.395 . S
C592 C595 1.403 1_556 S
H593 C599 0.930 . S
C594 H580 0.930 . S
C594 C592 1.395 . S
C594 C597 1.403 . S
C595 C592 1.403 1_554 S
C595 C596 1.524 . S
C595 C599 1.400 . S
C596 H581 0.960 . S
C596 H582 0.960 1_554 S
C596 H583 0.960 . S
C596 C595 1.524 . S
C597 C594 1.403 . S
C597 C598 1.392 1_556 S
C597 C601 1.495 . S
C598 C597 1.392 1_554 S
C598 C599 1.385 . S
C598 C600 1.478 . S
C599 H593 0.930 . S
C599 C595 1.400 . S
C599 C598 1.385 . S
C600 C598 1.478 . S
C600 C602 1.381 . S
C600 C606 1.383 . S
C601 C597 1.495 . S
C601 H607 0.959 . S
C601 H608 0.961 1_556 S
C601 H609 0.960 . S
C602 C600 1.381 . S
C602 C603 1.394 . S
C602 H610 0.930 . S
C603 C602 1.394 . S
C603 C604 1.383 . S
C603 H611 0.929 . S
C604 C603 1.383 . S
C604 C605 1.377 . S
C605 H589 0.930 . S
C605 C604 1.377 . S
C605 C606 1.379 . S
C606 H590 0.931 . S
C606 C600 1.383 . S
C606 C605 1.379 . S
H607 C601 0.959 . S
H608 C601 0.961 1_554 S
H609 C601 0.960 . S
H610 C602 0.930 . S
H611 C603 0.929 . S
H612 C620 0.929 . S
H613 C622 0.930 . S
H614 C624 0.930 . S
H615 C627 0.929 . S
H616 C630 0.930 . S
H617 C632 0.960 . S
H618 C632 0.960 . S
H619 C632 0.960 . S
C620 H612 0.929 . S
C620 C621 1.377 . S
C620 C622 1.384 . S
C621 C620 1.377 . S
C621 C627 1.390 . S
C622 H613 0.930 . S
C622 C620 1.384 . S
C622 C623 1.372 . S
C623 C622 1.372 . S
C623 C624 1.400 . S
C623 C628 1.490 . S
C624 H614 0.930 . S
C624 C623 1.400 . S
C624 C627 1.386 . S
H625 C641 0.930 . S
H626 C642 0.931 . S
C627 H615 0.929 . S
C627 C621 1.390 . S
C627 C624 1.386 . S
C628 C623 1.490 . S
C628 C630 1.395 . S
C628 C631 1.403 . S
H629 C635 0.930 . S
C630 H616 0.930 . S
C630 C628 1.395 . S
C630 C633 1.403 . S
C631 C628 1.403 . S
C631 C632 1.524 . S
C631 C635 1.400 . S
C632 H617 0.960 . S
C632 H618 0.960 . S
C632 H619 0.960 . S
C632 C631 1.524 . S
C633 C630 1.403 . S
C633 C634 1.392 . S
C633 C637 1.495 . S
C634 C633 1.392 . S
C634 C635 1.385 . S
C634 C636 1.478 . S
C635 H629 0.930 . S
C635 C631 1.400 . S
C635 C634 1.385 . S
C636 C634 1.478 . S
C636 C638 1.381 . S
C636 C642 1.383 . S
C637 C633 1.495 . S
C637 H643 0.959 . S
C637 H644 0.961 . S
C637 H645 0.960 . S
C638 C636 1.381 . S
C638 C639 1.394 . S
C638 H646 0.930 . S
C639 C638 1.394 . S
C639 C640 1.383 . S
C639 H647 0.929 . S
C640 C639 1.383 . S
C640 C641 1.377 . S
C641 H625 0.930 . S
C641 C640 1.377 . S
C641 C642 1.379 . S
C642 H626 0.931 . S
C642 C636 1.383 . S
C642 C641 1.379 . S
H643 C637 0.959 . S
H644 C637 0.961 . S
H645 C637 0.960 . S
H646 C638 0.930 . S
H647 C639 0.929 . S
H648 C656 0.929 . S
H649 C658 0.930 . S
H650 C660 0.930 . S
H651 C663 0.929 . S
H652 C666 0.930 . S
H653 C668 0.960 . S
H654 C668 0.960 . S
H655 C668 0.960 . S
C656 H648 0.929 . S
C656 C657 1.377 . S
C656 C658 1.384 . S
C657 C656 1.377 . S
C657 C663 1.390 . S
C658 H649 0.930 . S
C658 C656 1.384 . S
C658 C659 1.372 . S
C659 C658 1.372 . S
C659 C660 1.400 . S
C659 C664 1.490 . S
C660 H650 0.930 . S
C660 C659 1.400 . S
C660 C663 1.386 . S
H661 C677 0.930 . S
H662 C678 0.931 . S
C663 H651 0.929 . S
C663 C657 1.390 . S
C663 C660 1.386 . S
C664 C659 1.490 . S
C664 C666 1.395 . S
C664 C667 1.403 . S
H665 C671 0.930 . S
C666 H652 0.930 . S
C666 C664 1.395 . S
C666 C669 1.403 . S
C667 C664 1.403 . S
C667 C668 1.524 . S
C667 C671 1.400 . S
C668 H653 0.960 . S
C668 H654 0.960 . S
C668 H655 0.960 . S
C668 C667 1.524 . S
C669 C666 1.403 . S
C669 C670 1.392 . S
C669 C673 1.495 . S
C670 C669 1.392 . S
C670 C671 1.385 . S
C670 C672 1.478 . S
C671 H665 0.930 . S
C671 C667 1.400 . S
C671 C670 1.385 . S
C672 C670 1.478 . S
C672 C674 1.381 . S
C672 C678 1.383 . S
C673 C669 1.495 . S
C673 H679 0.959 . S
C673 H680 0.961 . S
C673 H681 0.960 . S
C674 C672 1.381 . S
C674 C675 1.394 . S
C674 H682 0.930 . S
C675 C674 1.394 . S
C675 C676 1.383 . S
C675 H683 0.929 . S
C676 C675 1.383 . S
C676 C677 1.377 . S
C677 H661 0.930 . S
C677 C676 1.377 . S
C677 C678 1.379 . S
C678 H662 0.931 . S
C678 C672 1.383 . S
C678 C677 1.379 . S
H679 C673 0.959 . S
H680 C673 0.961 . S
H681 C673 0.960 . S
H682 C674 0.930 . S
H683 C675 0.929 . S
H684 C692 0.929 . S
H685 C694 0.930 . S
H686 C696 0.930 . S
H687 C699 0.929 . S
H688 C702 0.930 . S
H689 C704 0.960 1_554 S
H690 C704 0.960 . S
H691 C704 0.960 . S
C692 H684 0.929 . S
C692 C693 1.377 . S
C692 C694 1.384 . S
C693 C692 1.377 . S
C693 C699 1.390 . S
C694 H685 0.930 . S
C694 C692 1.384 . S
C694 C695 1.372 . S
C695 C694 1.372 . S
C695 C696 1.400 . S
C695 C700 1.490 . S
C696 H686 0.930 . S
C696 C695 1.400 . S
C696 C699 1.386 . S
H697 C713 0.930 . S
H698 C714 0.931 . S
C699 H687 0.929 . S
C699 C693 1.390 . S
C699 C696 1.386 . S
C700 C695 1.490 . S
C700 C702 1.395 1_565 S
C700 C703 1.403 . S
H701 C707 0.930 . S
C702 H688 0.930 . S
C702 C700 1.395 1_545 S
C702 C705 1.403 1_556 S
C703 C700 1.403 . S
C703 C704 1.524 . S
C703 C707 1.400 1_556 S
C704 H689 0.960 1_556 S
C704 H690 0.960 . S
C704 H691 0.960 . S
C704 C703 1.524 . S
C705 C702 1.403 1_554 S
C705 C706 1.392 . S
C705 C709 1.495 . S
C706 C705 1.392 . S
C706 C707 1.385 1_545 S
C706 C708 1.478 . S
C707 H701 0.930 . S
C707 C703 1.400 1_554 S
C707 C706 1.385 1_565 S
C708 C706 1.478 . S
C708 C710 1.381 . S
C708 C714 1.383 . S
C709 C705 1.495 . S
C709 H715 0.959 1_554 S
C709 H716 0.961 . S
C709 H717 0.960 . S
C710 C708 1.381 . S
C710 C711 1.394 . S
C710 H718 0.930 . S
C711 C710 1.394 . S
C711 C712 1.383 . S
C711 H719 0.929 . S
C712 C711 1.383 . S
C712 C713 1.377 . S
C713 H697 0.930 . S
C713 C712 1.377 . S
C713 C714 1.379 . S
C714 H698 0.931 . S
C714 C708 1.383 . S
C714 C713 1.379 . S
H715 C709 0.959 1_556 S
H716 C709 0.961 . S
H717 C709 0.960 . S
H718 C710 0.930 . S
H719 C711 0.929 . S
H720 C728 0.929 . S
H721 C730 0.930 . S
H722 C732 0.930 . S
H723 C735 0.929 . S
H724 C738 0.930 . S
H725 C740 0.960 . S
H726 C740 0.960 . S
H727 C740 0.960 . S
C728 H720 0.929 . S
C728 C729 1.377 . S
C728 C730 1.384 . S
C729 C728 1.377 . S
C729 C735 1.390 . S
C730 H721 0.930 . S
C730 C728 1.384 . S
C730 C731 1.372 . S
C731 C730 1.372 . S
C731 C732 1.400 . S
C731 C736 1.490 . S
C732 H722 0.930 . S
C732 C731 1.400 . S
C732 C735 1.386 . S
H733 C749 0.930 . S
H734 C750 0.931 . S
C735 H723 0.929 . S
C735 C729 1.390 . S
C735 C732 1.386 . S
C736 C731 1.490 . S
C736 C738 1.395 . S
C736 C739 1.403 . S
H737 C743 0.930 . S
C738 H724 0.930 . S
C738 C736 1.395 . S
C738 C741 1.403 . S
C739 C736 1.403 . S
C739 C740 1.524 . S
C739 C743 1.400 . S
C740 H725 0.960 . S
C740 H726 0.960 . S
C740 H727 0.960 . S
C740 C739 1.524 . S
C741 C738 1.403 . S
C741 C742 1.392 . S
C741 C745 1.495 . S
C742 C741 1.392 . S
C742 C743 1.385 . S
C742 C744 1.478 . S
C743 H737 0.930 . S
C743 C739 1.400 . S
C743 C742 1.385 . S
C744 C742 1.478 . S
C744 C746 1.381 . S
C744 C750 1.383 . S
C745 C741 1.495 . S
C745 H751 0.959 . S
C745 H752 0.961 . S
C745 H753 0.960 . S
C746 C744 1.381 . S
C746 C747 1.394 . S
C746 H754 0.930 . S
C747 C746 1.394 . S
C747 C748 1.383 . S
C747 H755 0.929 . S
C748 C747 1.383 . S
C748 C749 1.377 . S
C749 H733 0.930 . S
C749 C748 1.377 . S
C749 C750 1.379 . S
C750 H734 0.931 . S
C750 C744 1.383 . S
C750 C749 1.379 . S
H751 C745 0.959 . S
H752 C745 0.961 . S
H753 C745 0.960 . S
H754 C746 0.930 . S
H755 C747 0.929 . S
H756 C764 0.929 . S
H757 C766 0.930 . S
H758 C768 0.930 . S
H759 C771 0.929 . S
H760 C774 0.930 . S
H761 C776 0.960 . S
H762 C776 0.960 . S
H763 C776 0.960 . S
C764 H756 0.929 . S
C764 C765 1.377 . S
C764 C766 1.384 . S
C765 C764 1.377 . S
C765 C771 1.390 . S
C766 H757 0.930 . S
C766 C764 1.384 . S
C766 C767 1.372 . S
C767 C766 1.372 . S
C767 C768 1.400 . S
C767 C772 1.490 . S
C768 H758 0.930 . S
C768 C767 1.400 . S
C768 C771 1.386 . S
H769 C785 0.930 . S
H770 C786 0.931 . S
C771 H759 0.929 . S
C771 C765 1.390 . S
C771 C768 1.386 . S
C772 C767 1.490 . S
C772 C774 1.395 1_455 S
C772 C775 1.403 . S
H773 C779 0.930 . S
C774 H760 0.930 . S
C774 C772 1.395 1_655 S
C774 C777 1.403 . S
C775 C772 1.403 . S
C775 C776 1.524 . S
C775 C779 1.400 . S
C776 H761 0.960 . S
C776 H762 0.960 . S
C776 H763 0.960 . S
C776 C775 1.524 . S
C777 C774 1.403 . S
C777 C778 1.392 . S
C777 C781 1.495 . S
C778 C777 1.392 . S
C778 C779 1.385 1_655 S
C778 C780 1.478 . S
C779 H773 0.930 . S
C779 C775 1.400 . S
C779 C778 1.385 1_455 S
C780 C778 1.478 . S
C780 C782 1.381 . S
C780 C786 1.383 . S
C781 C777 1.495 . S
C781 H787 0.959 . S
C781 H788 0.961 . S
C781 H789 0.960 . S
C782 C780 1.381 . S
C782 C783 1.394 . S
C782 H790 0.930 . S
C783 C782 1.394 . S
C783 C784 1.383 . S
C783 H791 0.929 . S
C784 C783 1.383 . S
C784 C785 1.377 . S
C785 H769 0.930 . S
C785 C784 1.377 . S
C785 C786 1.379 . S
C786 H770 0.931 . S
C786 C780 1.383 . S
C786 C785 1.379 . S
H787 C781 0.959 . S
H788 C781 0.961 . S
H789 C781 0.960 . S
H790 C782 0.930 . S
H791 C783 0.929 . S
H792 C800 0.929 . S
H793 C802 0.930 . S
H794 C804 0.930 . S
H795 C807 0.929 . S
H796 C810 0.930 . S
H797 C812 0.960 . S
H798 C812 0.960 1_554 S
H799 C812 0.960 1_554 S
C800 H792 0.929 . S
C800 C801 1.377 . S
C800 C802 1.384 . S
C801 C800 1.377 . S
C801 C807 1.390 . S
C802 H793 0.930 . S
C802 C800 1.384 . S
C802 C803 1.372 . S
C803 C802 1.372 . S
C803 C804 1.400 . S
C803 C808 1.490 . S
C804 H794 0.930 . S
C804 C803 1.400 . S
C804 C807 1.386 . S
H805 C821 0.930 . S
H806 C822 0.931 . S
C807 H795 0.929 . S
C807 C801 1.390 . S
C807 C804 1.386 . S
C808 C803 1.490 . S
C808 C810 1.395 1_565 S
C808 C811 1.403 . S
H809 C815 0.930 . S
C810 H796 0.930 . S
C810 C808 1.395 1_545 S
C810 C813 1.403 . S
C811 C808 1.403 . S
C811 C812 1.524 1_554 S
C811 C815 1.400 1_554 S
C812 H797 0.960 . S
C812 H798 0.960 1_556 S
C812 H799 0.960 1_556 S
C812 C811 1.524 1_556 S
C813 C810 1.403 . S
C813 C814 1.392 1_554 S
C813 C817 1.495 . S
C814 C813 1.392 1_556 S
C814 C815 1.385 1_545 S
C814 C816 1.478 . S
C815 H809 0.930 . S
C815 C811 1.400 1_556 S
C815 C814 1.385 1_565 S
C816 C814 1.478 . S
C816 C818 1.381 . S
C816 C822 1.383 . S
C817 C813 1.495 . S
C817 H823 0.959 . S
C817 H824 0.961 1_554 S
C817 H825 0.960 . S
C818 C816 1.381 . S
C818 C819 1.394 . S
C818 H826 0.930 . S
C819 C818 1.394 . S
C819 C820 1.383 . S
C819 H827 0.929 . S
C820 C819 1.383 . S
C820 C821 1.377 . S
C821 H805 0.930 . S
C821 C820 1.377 . S
C821 C822 1.379 . S
C822 H806 0.931 . S
C822 C816 1.383 . S
C822 C821 1.379 . S
H823 C817 0.959 . S
H824 C817 0.961 1_556 S
H825 C817 0.960 . S
H826 C818 0.930 . S
H827 C819 0.929 . S
H828 C836 0.929 . S
H829 C838 0.930 . S
H830 C840 0.930 . S
H831 C843 0.929 . S
H832 C846 0.930 . S
H833 C848 0.960 . S
H834 C848 0.960 . S
H835 C848 0.960 . S
C836 H828 0.929 . S
C836 C837 1.377 . S
C836 C838 1.384 . S
C837 C836 1.377 . S
C837 C843 1.390 . S
C838 H829 0.930 . S
C838 C836 1.384 . S
C838 C839 1.372 . S
C839 C838 1.372 . S
C839 C840 1.400 . S
C839 C844 1.490 . S
C840 H830 0.930 . S
C840 C839 1.400 . S
C840 C843 1.386 . S
H841 C857 0.930 . S
H842 C858 0.931 . S
C843 H831 0.929 . S
C843 C837 1.390 . S
C843 C840 1.386 . S
C844 C839 1.490 . S
C844 C846 1.395 . S
C844 C847 1.403 . S
H845 C851 0.930 . S
C846 H832 0.930 . S
C846 C844 1.395 . S
C846 C849 1.403 . S
C847 C844 1.403 . S
C847 C848 1.524 . S
C847 C851 1.400 . S
C848 H833 0.960 . S
C848 H834 0.960 . S
C848 H835 0.960 . S
C848 C847 1.524 . S
C849 C846 1.403 . S
C849 C850 1.392 . S
C849 C853 1.495 . S
C850 C849 1.392 . S
C850 C851 1.385 . S
C850 C852 1.478 . S
C851 H845 0.930 . S
C851 C847 1.400 . S
C851 C850 1.385 . S
C852 C850 1.478 . S
C852 C854 1.381 . S
C852 C858 1.383 . S
C853 C849 1.495 . S
C853 H859 0.959 . S
C853 H860 0.961 . S
C853 H861 0.960 . S
C854 C852 1.381 . S
C854 C855 1.394 . S
C854 H862 0.930 . S
C855 C854 1.394 . S
C855 C856 1.383 . S
C855 H863 0.929 . S
C856 C855 1.383 . S
C856 C857 1.377 . S
C857 H841 0.930 . S
C857 C856 1.377 . S
C857 C858 1.379 . S
C858 H842 0.931 . S
C858 C852 1.383 . S
C858 C857 1.379 . S
H859 C853 0.959 . S
H860 C853 0.961 . S
H861 C853 0.960 . S
H862 C854 0.930 . S
H863 C855 0.929 . S
H864 C872 0.929 . S
H865 C874 0.930 . S
H866 C876 0.930 . S
H867 C879 0.929 . S
H868 C882 0.930 . S
H869 C884 0.960 . S
H870 C884 0.960 . S
H871 C884 0.960 . S
C872 H864 0.929 . S
C872 C873 1.377 . S
C872 C874 1.384 . S
C873 C872 1.377 . S
C873 C879 1.390 . S
C874 H865 0.930 . S
C874 C872 1.384 . S
C874 C875 1.372 . S
C875 C874 1.372 . S
C875 C876 1.400 . S
C875 C880 1.490 . S
C876 H866 0.930 . S
C876 C875 1.400 . S
C876 C879 1.386 . S
H877 C893 0.930 . S
H878 C894 0.931 . S
C879 H867 0.929 . S
C879 C873 1.390 . S
C879 C876 1.386 . S
C880 C875 1.490 . S
C880 C882 1.395 1_455 S
C880 C883 1.403 . S
H881 C887 0.930 . S
C882 H868 0.930 . S
C882 C880 1.395 1_655 S
C882 C885 1.403 . S
C883 C880 1.403 . S
C883 C884 1.524 . S
C883 C887 1.400 . S
C884 H869 0.960 . S
C884 H870 0.960 . S
C884 H871 0.960 . S
C884 C883 1.524 . S
C885 C882 1.403 . S
C885 C886 1.392 . S
C885 C889 1.495 . S
C886 C885 1.392 . S
C886 C887 1.385 1_655 S
C886 C888 1.478 . S
C887 H881 0.930 . S
C887 C883 1.400 . S
C887 C886 1.385 1_455 S
C888 C886 1.478 . S
C888 C890 1.381 . S
C888 C894 1.383 . S
C889 C885 1.495 . S
C889 H895 0.959 . S
C889 H896 0.961 . S
C889 H897 0.960 . S
C890 C888 1.381 . S
C890 C891 1.394 . S
C890 H898 0.930 . S
C891 C890 1.394 . S
C891 C892 1.383 . S
C891 H899 0.929 . S
C892 C891 1.383 . S
C892 C893 1.377 . S
C893 H877 0.930 . S
C893 C892 1.377 . S
C893 C894 1.379 . S
C894 H878 0.931 . S
C894 C888 1.383 . S
C894 C893 1.379 . S
H895 C889 0.959 . S
H896 C889 0.961 . S
H897 C889 0.960 . S
H898 C890 0.930 . S
H899 C891 0.929 . S
H900 C908 0.929 . S
H901 C910 0.930 . S
H902 C912 0.930 . S
H903 C915 0.929 . S
H904 C918 0.930 . S
H905 C920 0.960 . S
H906 C920 0.960 . S
H907 C920 0.960 . S
C908 H900 0.929 . S
C908 C909 1.377 . S
C908 C910 1.384 . S
C909 C908 1.377 . S
C909 C915 1.390 . S
C910 H901 0.930 . S
C910 C908 1.384 . S
C910 C911 1.372 . S
C911 C910 1.372 . S
C911 C912 1.400 . S
C911 C916 1.490 . S
C912 H902 0.930 . S
C912 C911 1.400 . S
C912 C915 1.386 . S
H913 C929 0.930 . S
H914 C930 0.931 . S
C915 H903 0.929 . S
C915 C909 1.390 . S
C915 C912 1.386 . S
C916 C911 1.490 . S
C916 C918 1.395 1_545 S
C916 C919 1.403 . S
H917 C923 0.930 . S
C918 H904 0.930 . S
C918 C916 1.395 1_565 S
C918 C921 1.403 . S
C919 C916 1.403 . S
C919 C920 1.524 . S
C919 C923 1.400 . S
C920 H905 0.960 . S
C920 H906 0.960 . S
C920 H907 0.960 . S
C920 C919 1.524 . S
C921 C918 1.403 . S
C921 C922 1.392 . S
C921 C925 1.495 . S
C922 C921 1.392 . S
C922 C923 1.385 1_565 S
C922 C924 1.478 . S
C923 H917 0.930 . S
C923 C919 1.400 . S
C923 C922 1.385 1_545 S
C924 C922 1.478 . S
C924 C926 1.381 . S
C924 C930 1.383 . S
C925 C921 1.495 . S
C925 H931 0.959 . S
C925 H932 0.961 . S
C925 H933 0.960 . S
C926 C924 1.381 . S
C926 C927 1.394 . S
C926 H934 0.930 . S
C927 C926 1.394 . S
C927 C928 1.383 . S
C927 H935 0.929 . S
C928 C927 1.383 . S
C928 C929 1.377 . S
C929 H913 0.930 . S
C929 C928 1.377 . S
C929 C930 1.379 . S
C930 H914 0.931 . S
C930 C924 1.383 . S
C930 C929 1.379 . S
H931 C925 0.959 . S
H932 C925 0.961 . S
H933 C925 0.960 . S
H934 C926 0.930 . S
H935 C927 0.929 . S
H936 C944 0.929 . S
H937 C946 0.930 . S
H938 C948 0.930 . S
H939 C951 0.929 . S
H940 C954 0.930 . S
H941 C956 0.960 . S
H942 C956 0.960 . S
H943 C956 0.960 . S
C944 H936 0.929 . S
C944 C945 1.377 . S
C944 C946 1.384 . S
C945 C944 1.377 . S
C945 C951 1.390 . S
C946 H937 0.930 . S
C946 C944 1.384 . S
C946 C947 1.372 . S
C947 C946 1.372 . S
C947 C948 1.400 . S
C947 C952 1.490 . S
C948 H938 0.930 . S
C948 C947 1.400 . S
C948 C951 1.386 . S
H949 C965 0.930 . S
H950 C966 0.931 . S
C951 H939 0.929 . S
C951 C945 1.390 . S
C951 C948 1.386 . S
C952 C947 1.490 . S
C952 C954 1.395 . S
C952 C955 1.403 . S
H953 C959 0.930 . S
C954 H940 0.930 . S
C954 C952 1.395 . S
C954 C957 1.403 . S
C955 C952 1.403 . S
C955 C956 1.524 . S
C955 C959 1.400 . S
C956 H941 0.960 . S
C956 H942 0.960 . S
C956 H943 0.960 . S
C956 C955 1.524 . S
C957 C954 1.403 . S
C957 C958 1.392 . S
C957 C961 1.495 . S
C958 C957 1.392 . S
C958 C959 1.385 . S
C958 C960 1.478 . S
C959 H953 0.930 . S
C959 C955 1.400 . S
C959 C958 1.385 . S
C960 C958 1.478 . S
C960 C962 1.381 . S
C960 C966 1.383 . S
C961 C957 1.495 . S
C961 H967 0.959 . S
C961 H968 0.961 . S
C961 H969 0.960 . S
C962 C960 1.381 . S
C962 C963 1.394 . S
C962 H970 0.930 . S
C963 C962 1.394 . S
C963 C964 1.383 . S
C963 H971 0.929 . S
C964 C963 1.383 . S
C964 C965 1.377 . S
C965 H949 0.930 . S
C965 C964 1.377 . S
C965 C966 1.379 . S
C966 H950 0.931 . S
C966 C960 1.383 . S
C966 C965 1.379 . S
H967 C961 0.959 . S
H968 C961 0.961 . S
H969 C961 0.960 . S
H970 C962 0.930 . S
H971 C963 0.929 . S
H972 C980 0.929 . S
H973 C982 0.930 . S
H974 C984 0.930 . S
H975 C987 0.929 . S
H976 C990 0.930 1_554 S
H977 C992 0.960 . S
H978 C992 0.960 . S
H979 C992 0.960 . S
C980 H972 0.929 . S
C980 C981 1.377 . S
C980 C982 1.384 . S
C981 C980 1.377 . S
C981 C987 1.390 . S
C982 H973 0.930 . S
C982 C980 1.384 . S
C982 C983 1.372 . S
C983 C982 1.372 . S
C983 C984 1.400 . S
C983 C988 1.490 . S
C984 H974 0.930 . S
C984 C983 1.400 . S
C984 C987 1.386 . S
H985 C1001 0.930 . S
H986 C1002 0.931 . S
C987 H975 0.929 . S
C987 C981 1.390 . S
C987 C984 1.386 . S
C988 C983 1.490 . S
C988 C990 1.395 . S
C988 C991 1.403 . S
H989 C995 0.930 . S
C990 H976 0.930 1_556 S
C990 C988 1.395 . S
C990 C993 1.403 1_655 S
C991 C988 1.403 . S
C991 C992 1.524 . S
C991 C995 1.400 1_655 S
C992 H977 0.960 . S
C992 H978 0.960 . S
C992 H979 0.960 . S
C992 C991 1.524 . S
C993 C990 1.403 1_455 S
C993 C994 1.392 . S
C993 C997 1.495 1_556 S
C994 C993 1.392 . S
C994 C995 1.385 . S
C994 C996 1.478 . S
C995 H989 0.930 . S
C995 C991 1.400 1_455 S
C995 C994 1.385 . S
C996 C994 1.478 . S
C996 C998 1.381 . S
C996 C1002 1.383 . S
C997 C993 1.495 1_554 S
C997 H1003 0.959 . S
C997 H1004 0.961 . S
C997 H1005 0.960 . S
C998 C996 1.381 . S
C998 C999 1.394 . S
C998 H1006 0.930 . S
C999 C998 1.394 . S
C999 C1000 1.383 . S
C999 H1007 0.929 . S
C1000 C999 1.383 . S
C1000 C1001 1.377 . S
C1001 H985 0.930 . S
C1001 C1000 1.377 . S
C1001 C1002 1.379 . S
C1002 H986 0.931 . S
C1002 C996 1.383 . S
C1002 C1001 1.379 . S
H1003 C997 0.959 . S
H1004 C997 0.961 . S
H1005 C997 0.960 . S
H1006 C998 0.930 . S
H1007 C999 0.929 . S
H1008 C1016 0.929 . S
H1009 C1018 0.930 . S
H1010 C1020 0.930 . S
H1011 C1023 0.929 . S
H1012 C1026 0.930 . S
H1013 C1028 0.960 . S
H1014 C1028 0.960 . S
H1015 C1028 0.960 . S
C1016 H1008 0.929 . S
C1016 C1017 1.377 . S
C1016 C1018 1.384 . S
C1017 C1016 1.377 . S
C1017 C1023 1.390 . S
C1018 H1009 0.930 . S
C1018 C1016 1.384 . S
C1018 C1019 1.372 . S
C1019 C1018 1.372 . S
C1019 C1020 1.400 . S
C1019 C1024 1.490 . S
C1020 H1010 0.930 . S
C1020 C1019 1.400 . S
C1020 C1023 1.386 . S
H1021 C1037 0.930 . S
H1022 C1038 0.931 . S
C1023 H1011 0.929 . S
C1023 C1017 1.390 . S
C1023 C1020 1.386 . S
C1024 C1019 1.490 . S
C1024 C1026 1.395 1_455 S
C1024 C1027 1.403 . S
H1025 C1031 0.930 . S
C1026 H1012 0.930 . S
C1026 C1024 1.395 1_655 S
C1026 C1029 1.403 . S
C1027 C1024 1.403 . S
C1027 C1028 1.524 . S
C1027 C1031 1.400 . S
C1028 H1013 0.960 . S
C1028 H1014 0.960 . S
C1028 H1015 0.960 . S
C1028 C1027 1.524 . S
C1029 C1026 1.403 . S
C1029 C1030 1.392 . S
C1029 C1033 1.495 . S
C1030 C1029 1.392 . S
C1030 C1031 1.385 1_655 S
C1030 C1032 1.478 . S
C1031 H1025 0.930 . S
C1031 C1027 1.400 . S
C1031 C1030 1.385 1_455 S
C1032 C1030 1.478 . S
C1032 C1034 1.381 . S
C1032 C1038 1.383 . S
C1033 C1029 1.495 . S
C1033 H1039 0.959 . S
C1033 H1040 0.961 . S
C1033 H1041 0.960 . S
C1034 C1032 1.381 . S
C1034 C1035 1.394 . S
C1034 H1042 0.930 . S
C1035 C1034 1.394 . S
C1035 C1036 1.383 . S
C1035 H1043 0.929 . S
C1036 C1035 1.383 . S
C1036 C1037 1.377 . S
C1037 H1021 0.930 . S
C1037 C1036 1.377 . S
C1037 C1038 1.379 . S
C1038 H1022 0.931 . S
C1038 C1032 1.383 . S
C1038 C1037 1.379 . S
H1039 C1033 0.959 . S
H1040 C1033 0.961 . S
H1041 C1033 0.960 . S
H1042 C1034 0.930 . S
H1043 C1035 0.929 . S
H1044 C1052 0.929 . S
H1045 C1054 0.930 . S
H1046 C1056 0.930 . S
H1047 C1059 0.929 . S
H1048 C1062 0.930 . S
H1049 C1064 0.960 . S
H1050 C1064 0.960 . S
H1051 C1064 0.960 . S
C1052 H1044 0.929 . S
C1052 C1053 1.377 . S
C1052 C1054 1.384 . S
C1053 C1052 1.377 . S
C1053 C1059 1.390 . S
C1054 H1045 0.930 . S
C1054 C1052 1.384 . S
C1054 C1055 1.372 . S
C1055 C1054 1.372 . S
C1055 C1056 1.400 . S
C1055 C1060 1.490 . S
C1056 H1046 0.930 . S
C1056 C1055 1.400 . S
C1056 C1059 1.386 . S
H1057 C1073 0.930 . S
H1058 C1074 0.931 . S
C1059 H1047 0.929 . S
C1059 C1053 1.390 . S
C1059 C1056 1.386 . S
C1060 C1055 1.490 . S
C1060 C1062 1.395 1_565 S
C1060 C1063 1.403 . S
H1061 C1067 0.930 . S
C1062 H1048 0.930 . S
C1062 C1060 1.395 1_545 S
C1062 C1065 1.403 . S
C1063 C1060 1.403 . S
C1063 C1064 1.524 . S
C1063 C1067 1.400 . S
C1064 H1049 0.960 . S
C1064 H1050 0.960 . S
C1064 H1051 0.960 . S
C1064 C1063 1.524 . S
C1065 C1062 1.403 . S
C1065 C1066 1.392 . S
C1065 C1069 1.495 . S
C1066 C1065 1.392 . S
C1066 C1067 1.385 1_545 S
C1066 C1068 1.478 . S
C1067 H1061 0.930 . S
C1067 C1063 1.400 . S
C1067 C1066 1.385 1_565 S
C1068 C1066 1.478 . S
C1068 C1070 1.381 . S
C1068 C1074 1.383 . S
C1069 C1065 1.495 . S
C1069 H1075 0.959 . S
C1069 H1076 0.961 . S
C1069 H1077 0.960 . S
C1070 C1068 1.381 . S
C1070 C1071 1.394 . S
C1070 H1078 0.930 . S
C1071 C1070 1.394 . S
C1071 C1072 1.383 . S
C1071 H1079 0.929 . S
C1072 C1071 1.383 . S
C1072 C1073 1.377 . S
C1073 H1057 0.930 . S
C1073 C1072 1.377 . S
C1073 C1074 1.379 . S
C1074 H1058 0.931 . S
C1074 C1068 1.383 . S
C1074 C1073 1.379 . S
H1075 C1069 0.959 . S
H1076 C1069 0.961 . S
H1077 C1069 0.960 . S
H1078 C1070 0.930 . S
H1079 C1071 0.929 . S
H1080 C1088 0.929 . S
H1081 C1090 0.930 . S
H1082 C1092 0.930 . S
H1083 C1095 0.929 . S
H1084 C1098 0.930 1_556 S
H1085 C1100 0.960 . S
H1086 C1100 0.960 . S
H1087 C1100 0.960 . S
C1088 H1080 0.929 . S
C1088 C1089 1.377 . S
C1088 C1090 1.384 . S
C1089 C1088 1.377 . S
C1089 C1095 1.390 . S
C1090 H1081 0.930 . S
C1090 C1088 1.384 . S
C1090 C1091 1.372 . S
C1091 C1090 1.372 . S
C1091 C1092 1.400 . S
C1091 C1096 1.490 . S
C1092 H1082 0.930 . S
C1092 C1091 1.400 . S
C1092 C1095 1.386 . S
H1093 C1109 0.930 . S
H1094 C1110 0.931 . S
C1095 H1083 0.929 . S
C1095 C1089 1.390 . S
C1095 C1092 1.386 . S
C1096 C1091 1.490 . S
C1096 C1098 1.395 . S
C1096 C1099 1.403 . S
H1097 C1103 0.930 . S
C1098 H1084 0.930 1_554 S
C1098 C1096 1.395 . S
C1098 C1101 1.403 . S
C1099 C1096 1.403 . S
C1099 C1100 1.524 . S
C1099 C1103 1.400 . S
C1100 H1085 0.960 . S
C1100 H1086 0.960 . S
C1100 H1087 0.960 . S
C1100 C1099 1.524 . S
C1101 C1098 1.403 . S
C1101 C1102 1.392 . S
C1101 C1105 1.495 1_554 S
C1102 C1101 1.392 . S
C1102 C1103 1.385 . S
C1102 C1104 1.478 . S
C1103 H1097 0.930 . S
C1103 C1099 1.400 . S
C1103 C1102 1.385 . S
C1104 C1102 1.478 . S
C1104 C1106 1.381 . S
C1104 C1110 1.383 . S
C1105 C1101 1.495 1_556 S
C1105 H1111 0.959 . S
C1105 H1112 0.961 . S
C1105 H1113 0.960 . S
C1106 C1104 1.381 . S
C1106 C1107 1.394 . S
C1106 H1114 0.930 . S
C1107 C1106 1.394 . S
C1107 C1108 1.383 . S
C1107 H1115 0.929 . S
C1108 C1107 1.383 . S
C1108 C1109 1.377 . S
C1109 H1093 0.930 . S
C1109 C1108 1.377 . S
C1109 C1110 1.379 . S
C1110 H1094 0.931 . S
C1110 C1104 1.383 . S
C1110 C1109 1.379 . S
H1111 C1105 0.959 . S
H1112 C1105 0.961 . S
H1113 C1105 0.960 . S
H1114 C1106 0.930 . S
H1115 C1107 0.929 . S
H1116 C1124 0.929 . S
H1117 C1126 0.930 . S
H1118 C1128 0.930 . S
H1119 C1131 0.929 . S
H1120 C1134 0.930 . S
H1121 C1136 0.960 . S
H1122 C1136 0.960 . S
H1123 C1136 0.960 . S
C1124 H1116 0.929 . S
C1124 C1125 1.377 . S
C1124 C1126 1.384 . S
C1125 C1124 1.377 . S
C1125 C1131 1.390 . S
C1126 H1117 0.930 . S
C1126 C1124 1.384 . S
C1126 C1127 1.372 . S
C1127 C1126 1.372 . S
C1127 C1128 1.400 . S
C1127 C1132 1.490 . S
C1128 H1118 0.930 . S
C1128 C1127 1.400 . S
C1128 C1131 1.386 . S
H1129 C1145 0.930 . S
H1130 C1146 0.931 . S
C1131 H1119 0.929 . S
C1131 C1125 1.390 . S
C1131 C1128 1.386 . S
C1132 C1127 1.490 . S
C1132 C1134 1.395 . S
C1132 C1135 1.403 1_565 S
H1133 C1139 0.930 . S
C1134 H1120 0.930 . S
C1134 C1132 1.395 . S
C1134 C1137 1.403 . S
C1135 C1132 1.403 1_545 S
C1135 C1136 1.524 . S
C1135 C1139 1.400 . S
C1136 H1121 0.960 . S
C1136 H1122 0.960 . S
C1136 H1123 0.960 . S
C1136 C1135 1.524 . S
C1137 C1134 1.403 . S
C1137 C1138 1.392 1_565 S
C1137 C1141 1.495 . S
C1138 C1137 1.392 1_545 S
C1138 C1139 1.385 . S
C1138 C1140 1.478 . S
C1139 H1133 0.930 . S
C1139 C1135 1.400 . S
C1139 C1138 1.385 . S
C1140 C1138 1.478 . S
C1140 C1142 1.381 . S
C1140 C1146 1.383 . S
C1141 C1137 1.495 . S
C1141 H1147 0.959 . S
C1141 H1148 0.961 . S
C1141 H1149 0.960 . S
C1142 C1140 1.381 . S
C1142 C1143 1.394 . S
C1142 H1150 0.930 . S
C1143 C1142 1.394 . S
C1143 C1144 1.383 . S
C1143 H1151 0.929 . S
C1144 C1143 1.383 . S
C1144 C1145 1.377 . S
C1145 H1129 0.930 . S
C1145 C1144 1.377 . S
C1145 C1146 1.379 . S
C1146 H1130 0.931 . S
C1146 C1140 1.383 . S
C1146 C1145 1.379 . S
H1147 C1141 0.959 . S
H1148 C1141 0.961 . S
H1149 C1141 0.960 . S
H1150 C1142 0.930 . S
H1151 C1143 0.929 . S
H1152 C1160 0.929 . S
H1153 C1162 0.930 . S
H1154 C1164 0.930 . S
H1155 C1167 0.929 1_554 S
H1156 C1170 0.930 . S
H1157 C1172 0.960 . S
H1158 C1172 0.960 . S
H1159 C1172 0.960 . S
C1160 H1152 0.929 . S
C1160 C1161 1.377 . S
C1160 C1162 1.384 . S
C1161 C1160 1.377 . S
C1161 C1167 1.390 . S
C1162 H1153 0.930 . S
C1162 C1160 1.384 . S
C1162 C1163 1.372 . S
C1163 C1162 1.372 . S
C1163 C1164 1.400 . S
C1163 C1168 1.490 . S
C1164 H1154 0.930 . S
C1164 C1163 1.400 . S
C1164 C1167 1.386 . S
H1165 C1181 0.930 . S
H1166 C1182 0.931 . S
C1167 H1155 0.929 1_556 S
C1167 C1161 1.390 . S
C1167 C1164 1.386 . S
C1168 C1163 1.490 . S
C1168 C1170 1.395 . S
C1168 C1171 1.403 . S
H1169 C1175 0.930 . S
C1170 H1156 0.930 . S
C1170 C1168 1.395 . S
C1170 C1173 1.403 . S
C1171 C1168 1.403 . S
C1171 C1172 1.524 . S
C1171 C1175 1.400 . S
C1172 H1157 0.960 . S
C1172 H1158 0.960 . S
C1172 H1159 0.960 . S
C1172 C1171 1.524 . S
C1173 C1170 1.403 . S
C1173 C1174 1.392 . S
C1173 C1177 1.495 . S
C1174 C1173 1.392 . S
C1174 C1175 1.385 . S
C1174 C1176 1.478 . S
C1175 H1169 0.930 . S
C1175 C1171 1.400 . S
C1175 C1174 1.385 . S
C1176 C1174 1.478 . S
C1176 C1178 1.381 . S
C1176 C1182 1.383 . S
C1177 C1173 1.495 . S
C1177 H1183 0.959 . S
C1177 H1184 0.961 . S
C1177 H1185 0.960 . S
C1178 C1176 1.381 . S
C1178 C1179 1.394 . S
C1178 H1186 0.930 . S
C1179 C1178 1.394 . S
C1179 C1180 1.383 . S
C1179 H1187 0.929 . S
C1180 C1179 1.383 . S
C1180 C1181 1.377 . S
C1181 H1165 0.930 . S
C1181 C1180 1.377 . S
C1181 C1182 1.379 . S
C1182 H1166 0.931 . S
C1182 C1176 1.383 . S
C1182 C1181 1.379 . S
H1183 C1177 0.959 . S
H1184 C1177 0.961 . S
H1185 C1177 0.960 . S
H1186 C1178 0.930 . S
H1187 C1179 0.929 . S
H1188 C1196 0.929 . S
H1189 C1198 0.930 . S
H1190 C1200 0.930 . S
H1191 C1203 0.929 . S
H1192 C1206 0.930 . S
H1193 C1208 0.960 . S
H1194 C1208 0.960 . S
H1195 C1208 0.960 . S
C1196 H1188 0.929 . S
C1196 C1197 1.377 . S
C1196 C1198 1.384 . S
C1197 C1196 1.377 . S
C1197 C1203 1.390 . S
C1198 H1189 0.930 . S
C1198 C1196 1.384 . S
C1198 C1199 1.372 . S
C1199 C1198 1.372 . S
C1199 C1200 1.400 . S
C1199 C1204 1.490 . S
C1200 H1190 0.930 . S
C1200 C1199 1.400 . S
C1200 C1203 1.386 . S
H1201 C1217 0.930 . S
H1202 C1218 0.931 . S
C1203 H1191 0.929 . S
C1203 C1197 1.390 . S
C1203 C1200 1.386 . S
C1204 C1199 1.490 . S
C1204 C1206 1.395 . S
C1204 C1207 1.403 1_655 S
H1205 C1211 0.930 . S
C1206 H1192 0.930 . S
C1206 C1204 1.395 . S
C1206 C1209 1.403 . S
C1207 C1204 1.403 1_455 S
C1207 C1208 1.524 . S
C1207 C1211 1.400 . S
C1208 H1193 0.960 . S
C1208 H1194 0.960 . S
C1208 H1195 0.960 . S
C1208 C1207 1.524 . S
C1209 C1206 1.403 . S
C1209 C1210 1.392 1_655 S
C1209 C1213 1.495 . S
C1210 C1209 1.392 1_455 S
C1210 C1211 1.385 . S
C1210 C1212 1.478 . S
C1211 H1205 0.930 . S
C1211 C1207 1.400 . S
C1211 C1210 1.385 . S
C1212 C1210 1.478 . S
C1212 C1214 1.381 . S
C1212 C1218 1.383 . S
C1213 C1209 1.495 . S
C1213 H1219 0.959 . S
C1213 H1220 0.961 . S
C1213 H1221 0.960 . S
C1214 C1212 1.381 . S
C1214 C1215 1.394 . S
C1214 H1222 0.930 . S
C1215 C1214 1.394 . S
C1215 C1216 1.383 . S
C1215 H1223 0.929 . S
C1216 C1215 1.383 . S
C1216 C1217 1.377 . S
C1217 H1201 0.930 . S
C1217 C1216 1.377 . S
C1217 C1218 1.379 . S
C1218 H1202 0.931 . S
C1218 C1212 1.383 . S
C1218 C1217 1.379 . S
H1219 C1213 0.959 . S
H1220 C1213 0.961 . S
H1221 C1213 0.960 . S
H1222 C1214 0.930 . S
H1223 C1215 0.929 . S
H1224 C1232 0.929 . S
H1225 C1234 0.930 . S
H1226 C1236 0.930 . S
H1227 C1239 0.929 . S
H1228 C1242 0.930 . S
H1229 C1244 0.960 . S
H1230 C1244 0.960 . S
H1231 C1244 0.960 . S
C1232 H1224 0.929 . S
C1232 C1233 1.377 . S
C1232 C1234 1.384 . S
C1233 C1232 1.377 . S
C1233 C1239 1.390 . S
C1234 H1225 0.930 . S
C1234 C1232 1.384 . S
C1234 C1235 1.372 . S
C1235 C1234 1.372 . S
C1235 C1236 1.400 . S
C1235 C1240 1.490 . S
C1236 H1226 0.930 . S
C1236 C1235 1.400 . S
C1236 C1239 1.386 . S
H1237 C1253 0.930 . S
H1238 C1254 0.931 . S
C1239 H1227 0.929 . S
C1239 C1233 1.390 . S
C1239 C1236 1.386 . S
C1240 C1235 1.490 . S
C1240 C1242 1.395 . S
C1240 C1243 1.403 1_545 S
H1241 C1247 0.930 . S
C1242 H1228 0.930 . S
C1242 C1240 1.395 . S
C1242 C1245 1.403 . S
C1243 C1240 1.403 1_565 S
C1243 C1244 1.524 . S
C1243 C1247 1.400 . S
C1244 H1229 0.960 . S
C1244 H1230 0.960 . S
C1244 H1231 0.960 . S
C1244 C1243 1.524 . S
C1245 C1242 1.403 . S
C1245 C1246 1.392 1_545 S
C1245 C1249 1.495 . S
C1246 C1245 1.392 1_565 S
C1246 C1247 1.385 . S
C1246 C1248 1.478 . S
C1247 H1241 0.930 . S
C1247 C1243 1.400 . S
C1247 C1246 1.385 . S
C1248 C1246 1.478 . S
C1248 C1250 1.381 . S
C1248 C1254 1.383 . S
C1249 C1245 1.495 . S
C1249 H1255 0.959 . S
C1249 H1256 0.961 . S
C1249 H1257 0.960 . S
C1250 C1248 1.381 . S
C1250 C1251 1.394 . S
C1250 H1258 0.930 . S
C1251 C1250 1.394 . S
C1251 C1252 1.383 . S
C1251 H1259 0.929 . S
C1252 C1251 1.383 . S
C1252 C1253 1.377 . S
C1253 H1237 0.930 . S
C1253 C1252 1.377 . S
C1253 C1254 1.379 . S
C1254 H1238 0.931 . S
C1254 C1248 1.383 . S
C1254 C1253 1.379 . S
H1255 C1249 0.959 . S
H1256 C1249 0.961 . S
H1257 C1249 0.960 . S
H1258 C1250 0.930 . S
H1259 C1251 0.929 . S
H1260 C1268 0.929 . S
H1261 C1270 0.930 . S
H1262 C1272 0.930 . S
H1263 C1275 0.929 . S
H1264 C1278 0.930 . S
H1265 C1280 0.960 . S
H1266 C1280 0.960 . S
H1267 C1280 0.960 . S
C1268 H1260 0.929 . S
C1268 C1269 1.377 . S
C1268 C1270 1.384 . S
C1269 C1268 1.377 . S
C1269 C1275 1.390 . S
C1270 H1261 0.930 . S
C1270 C1268 1.384 . S
C1270 C1271 1.372 . S
C1271 C1270 1.372 . S
C1271 C1272 1.400 . S
C1271 C1276 1.490 . S
C1272 H1262 0.930 . S
C1272 C1271 1.400 . S
C1272 C1275 1.386 . S
H1273 C1289 0.930 . S
H1274 C1290 0.931 . S
C1275 H1263 0.929 . S
C1275 C1269 1.390 . S
C1275 C1272 1.386 . S
C1276 C1271 1.490 . S
C1276 C1278 1.395 . S
C1276 C1279 1.403 . S
H1277 C1283 0.930 . S
C1278 H1264 0.930 . S
C1278 C1276 1.395 . S
C1278 C1281 1.403 . S
C1279 C1276 1.403 . S
C1279 C1280 1.524 . S
C1279 C1283 1.400 . S
C1280 H1265 0.960 . S
C1280 H1266 0.960 . S
C1280 H1267 0.960 . S
C1280 C1279 1.524 . S
C1281 C1278 1.403 . S
C1281 C1282 1.392 . S
C1281 C1285 1.495 . S
C1282 C1281 1.392 . S
C1282 C1283 1.385 . S
C1282 C1284 1.478 . S
C1283 H1277 0.930 . S
C1283 C1279 1.400 . S
C1283 C1282 1.385 . S
C1284 C1282 1.478 . S
C1284 C1286 1.381 . S
C1284 C1290 1.383 . S
C1285 C1281 1.495 . S
C1285 H1291 0.959 . S
C1285 H1292 0.961 . S
C1285 H1293 0.960 . S
C1286 C1284 1.381 . S
C1286 C1287 1.394 . S
C1286 H1294 0.930 . S
C1287 C1286 1.394 . S
C1287 C1288 1.383 . S
C1287 H1295 0.929 . S
C1288 C1287 1.383 . S
C1288 C1289 1.377 . S
C1289 H1273 0.930 . S
C1289 C1288 1.377 . S
C1289 C1290 1.379 . S
C1290 H1274 0.931 . S
C1290 C1284 1.383 . S
C1290 C1289 1.379 . S
H1291 C1285 0.959 . S
H1292 C1285 0.961 . S
H1293 C1285 0.960 . S
H1294 C1286 0.930 . S
H1295 C1287 0.929 . S
H1296 C1304 0.929 1_556 S
H1297 C1306 0.930 . S
H1298 C1308 0.930 . S
H1299 C1311 0.929 . S
H1300 C1314 0.930 . S
H1301 C1316 0.960 . S
H1302 C1316 0.960 . S
H1303 C1316 0.960 . S
C1304 H1296 0.929 1_554 S
C1304 C1305 1.377 . S
C1304 C1306 1.384 . S
C1305 C1304 1.377 . S
C1305 C1311 1.390 . S
C1306 H1297 0.930 . S
C1306 C1304 1.384 . S
C1306 C1307 1.372 . S
C1307 C1306 1.372 . S
C1307 C1308 1.400 . S
C1307 C1312 1.490 . S
C1308 H1298 0.930 . S
C1308 C1307 1.400 . S
C1308 C1311 1.386 . S
H1309 C1325 0.930 . S
H1310 C1326 0.931 . S
C1311 H1299 0.929 . S
C1311 C1305 1.390 . S
C1311 C1308 1.386 . S
C1312 C1307 1.490 . S
C1312 C1314 1.395 . S
C1312 C1315 1.403 . S
H1313 C1319 0.930 . S
C1314 H1300 0.930 . S
C1314 C1312 1.395 . S
C1314 C1317 1.403 1_455 S
C1315 C1312 1.403 . S
C1315 C1316 1.524 . S
C1315 C1319 1.400 1_455 S
C1316 H1301 0.960 . S
C1316 H1302 0.960 . S
C1316 H1303 0.960 . S
C1316 C1315 1.524 . S
C1317 C1314 1.403 1_655 S
C1317 C1318 1.392 . S
C1317 C1321 1.495 . S
C1318 C1317 1.392 . S
C1318 C1319 1.385 . S
C1318 C1320 1.478 . S
C1319 H1313 0.930 . S
C1319 C1315 1.400 1_655 S
C1319 C1318 1.385 . S
C1320 C1318 1.478 . S
C1320 C1322 1.381 . S
C1320 C1326 1.383 . S
C1321 C1317 1.495 . S
C1321 H1327 0.959 . S
C1321 H1328 0.961 . S
C1321 H1329 0.960 . S
C1322 C1320 1.381 . S
C1322 C1323 1.394 . S
C1322 H1330 0.930 . S
C1323 C1322 1.394 . S
C1323 C1324 1.383 . S
C1323 H1331 0.929 . S
C1324 C1323 1.383 . S
C1324 C1325 1.377 . S
C1325 H1309 0.930 . S
C1325 C1324 1.377 . S
C1325 C1326 1.379 . S
C1326 H1310 0.931 . S
C1326 C1320 1.383 . S
C1326 C1325 1.379 . S
H1327 C1321 0.959 . S
H1328 C1321 0.961 . S
H1329 C1321 0.960 . S
H1330 C1322 0.930 . S
H1331 C1323 0.929 . S
H1332 C1340 0.929 . S
H1333 C1342 0.930 . S
H1334 C1344 0.930 . S
H1335 C1347 0.929 . S
H1336 C1350 0.930 . S
H1337 C1352 0.960 . S
H1338 C1352 0.960 . S
H1339 C1352 0.960 . S
C1340 H1332 0.929 . S
C1340 C1341 1.377 . S
C1340 C1342 1.384 . S
C1341 C1340 1.377 . S
C1341 C1347 1.390 . S
C1342 H1333 0.930 . S
C1342 C1340 1.384 . S
C1342 C1343 1.372 . S
C1343 C1342 1.372 . S
C1343 C1344 1.400 . S
C1343 C1348 1.490 . S
C1344 H1334 0.930 . S
C1344 C1343 1.400 . S
C1344 C1347 1.386 . S
H1345 C1361 0.930 . S
H1346 C1362 0.931 . S
C1347 H1335 0.929 . S
C1347 C1341 1.390 . S
C1347 C1344 1.386 . S
C1348 C1343 1.490 . S
C1348 C1350 1.395 . S
C1348 C1351 1.403 . S
H1349 C1355 0.930 . S
C1350 H1336 0.930 . S
C1350 C1348 1.395 . S
C1350 C1353 1.403 . S
C1351 C1348 1.403 . S
C1351 C1352 1.524 . S
C1351 C1355 1.400 . S
C1352 H1337 0.960 . S
C1352 H1338 0.960 . S
C1352 H1339 0.960 . S
C1352 C1351 1.524 . S
C1353 C1350 1.403 . S
C1353 C1354 1.392 . S
C1353 C1357 1.495 . S
C1354 C1353 1.392 . S
C1354 C1355 1.385 . S
C1354 C1356 1.478 . S
C1355 H1349 0.930 . S
C1355 C1351 1.400 . S
C1355 C1354 1.385 . S
C1356 C1354 1.478 . S
C1356 C1358 1.381 . S
C1356 C1362 1.383 . S
C1357 C1353 1.495 . S
C1357 H1363 0.959 . S
C1357 H1364 0.961 . S
C1357 H1365 0.960 . S
C1358 C1356 1.381 . S
C1358 C1359 1.394 . S
C1358 H1366 0.930 . S
C1359 C1358 1.394 . S
C1359 C1360 1.383 . S
C1359 H1367 0.929 . S
C1360 C1359 1.383 . S
C1360 C1361 1.377 . S
C1361 H1345 0.930 . S
C1361 C1360 1.377 . S
C1361 C1362 1.379 . S
C1362 H1346 0.931 . S
C1362 C1356 1.383 . S
C1362 C1361 1.379 . S
H1363 C1357 0.959 . S
H1364 C1357 0.961 . S
H1365 C1357 0.960 . S
H1366 C1358 0.930 . S
H1367 C1359 0.929 . S
H1368 C1376 0.929 . S
H1369 C1378 0.930 . S
H1370 C1380 0.930 . S
H1371 C1383 0.929 . S
H1372 C1386 0.930 . S
H1373 C1388 0.960 . S
H1374 C1388 0.960 . S
H1375 C1388 0.960 . S
C1376 H1368 0.929 . S
C1376 C1377 1.377 . S
C1376 C1378 1.384 . S
C1377 C1376 1.377 . S
C1377 C1383 1.390 . S
C1378 H1369 0.930 . S
C1378 C1376 1.384 . S
C1378 C1379 1.372 . S
C1379 C1378 1.372 . S
C1379 C1380 1.400 . S
C1379 C1384 1.490 . S
C1380 H1370 0.930 . S
C1380 C1379 1.400 . S
C1380 C1383 1.386 . S
H1381 C1397 0.930 . S
H1382 C1398 0.931 . S
C1383 H1371 0.929 . S
C1383 C1377 1.390 . S
C1383 C1380 1.386 . S
C1384 C1379 1.490 . S
C1384 C1386 1.395 . S
C1384 C1387 1.403 . S
H1385 C1391 0.930 . S
C1386 H1372 0.930 . S
C1386 C1384 1.395 . S
C1386 C1389 1.403 . S
C1387 C1384 1.403 . S
C1387 C1388 1.524 . S
C1387 C1391 1.400 . S
C1388 H1373 0.960 . S
C1388 H1374 0.960 . S
C1388 H1375 0.960 . S
C1388 C1387 1.524 . S
C1389 C1386 1.403 . S
C1389 C1390 1.392 . S
C1389 C1393 1.495 . S
C1390 C1389 1.392 . S
C1390 C1391 1.385 . S
C1390 C1392 1.478 . S
C1391 H1385 0.930 . S
C1391 C1387 1.400 . S
C1391 C1390 1.385 . S
C1392 C1390 1.478 . S
C1392 C1394 1.381 . S
C1392 C1398 1.383 . S
C1393 C1389 1.495 . S
C1393 H1399 0.959 . S
C1393 H1400 0.961 . S
C1393 H1401 0.960 . S
C1394 C1392 1.381 . S
C1394 C1395 1.394 . S
C1394 H1402 0.930 . S
C1395 C1394 1.394 . S
C1395 C1396 1.383 . S
C1395 H1403 0.929 . S
C1396 C1395 1.383 . S
C1396 C1397 1.377 . S
C1397 H1381 0.930 . S
C1397 C1396 1.377 . S
C1397 C1398 1.379 . S
C1398 H1382 0.931 . S
C1398 C1392 1.383 . S
C1398 C1397 1.379 . S
H1399 C1393 0.959 . S
H1400 C1393 0.961 . S
H1401 C1393 0.960 . S
H1402 C1394 0.930 . S
H1403 C1395 0.929 . S
H1404 C1412 0.929 . S
H1405 C1414 0.930 . S
H1406 C1416 0.930 . S
H1407 C1419 0.929 . S
H1408 C1422 0.930 . S
H1409 C1424 0.960 . S
H1410 C1424 0.960 . S
H1411 C1424 0.960 . S
C1412 H1404 0.929 . S
C1412 C1413 1.377 . S
C1412 C1414 1.384 . S
C1413 C1412 1.377 . S
C1413 C1419 1.390 . S
C1414 H1405 0.930 . S
C1414 C1412 1.384 . S
C1414 C1415 1.372 . S
C1415 C1414 1.372 . S
C1415 C1416 1.400 . S
C1415 C1420 1.490 . S
C1416 H1406 0.930 . S
C1416 C1415 1.400 . S
C1416 C1419 1.386 . S
H1417 C1433 0.930 . S
H1418 C1434 0.931 . S
C1419 H1407 0.929 . S
C1419 C1413 1.390 . S
C1419 C1416 1.386 . S
C1420 C1415 1.490 . S
C1420 C1422 1.395 . S
C1420 C1423 1.403 . S
H1421 C1427 0.930 . S
C1422 H1408 0.930 . S
C1422 C1420 1.395 . S
C1422 C1425 1.403 . S
C1423 C1420 1.403 . S
C1423 C1424 1.524 . S
C1423 C1427 1.400 . S
C1424 H1409 0.960 . S
C1424 H1410 0.960 . S
C1424 H1411 0.960 . S
C1424 C1423 1.524 . S
C1425 C1422 1.403 . S
C1425 C1426 1.392 . S
C1425 C1429 1.495 . S
C1426 C1425 1.392 . S
C1426 C1427 1.385 . S
C1426 C1428 1.478 . S
C1427 H1421 0.930 . S
C1427 C1423 1.400 . S
C1427 C1426 1.385 . S
C1428 C1426 1.478 . S
C1428 C1430 1.381 . S
C1428 C1434 1.383 . S
C1429 C1425 1.495 . S
C1429 H1435 0.959 . S
C1429 H1436 0.961 . S
C1429 H1437 0.960 . S
C1430 C1428 1.381 . S
C1430 C1431 1.394 . S
C1430 H1438 0.930 . S
C1431 C1430 1.394 . S
C1431 C1432 1.383 . S
C1431 H1439 0.929 . S
C1432 C1431 1.383 . S
C1432 C1433 1.377 . S
C1433 H1417 0.930 . S
C1433 C1432 1.377 . S
C1433 C1434 1.379 . S
C1434 H1418 0.931 . S
C1434 C1428 1.383 . S
C1434 C1433 1.379 . S
H1435 C1429 0.959 . S
H1436 C1429 0.961 . S
H1437 C1429 0.960 . S
H1438 C1430 0.930 . S
H1439 C1431 0.929 . S
H1440 C1448 0.929 . S
H1441 C1450 0.930 . S
H1442 C1452 0.930 . S
H1443 C1455 0.929 . S
H1444 C1458 0.930 . S
H1445 C1460 0.960 . S
H1446 C1460 0.960 . S
H1447 C1460 0.960 . S
C1448 H1440 0.929 . S
C1448 C1449 1.377 . S
C1448 C1450 1.384 . S
C1449 C1448 1.377 . S
C1449 C1455 1.390 . S
C1450 H1441 0.930 . S
C1450 C1448 1.384 . S
C1450 C1451 1.372 . S
C1451 C1450 1.372 . S
C1451 C1452 1.400 . S
C1451 C1456 1.490 . S
C1452 H1442 0.930 . S
C1452 C1451 1.400 . S
C1452 C1455 1.386 . S
H1453 C1469 0.930 . S
H1454 C1470 0.931 . S
C1455 H1443 0.929 . S
C1455 C1449 1.390 . S
C1455 C1452 1.386 . S
C1456 C1451 1.490 . S
C1456 C1458 1.395 . S
C1456 C1459 1.403 . S
H1457 C1463 0.930 . S
C1458 H1444 0.930 . S
C1458 C1456 1.395 . S
C1458 C1461 1.403 . S
C1459 C1456 1.403 . S
C1459 C1460 1.524 . S
C1459 C1463 1.400 . S
C1460 H1445 0.960 . S
C1460 H1446 0.960 . S
C1460 H1447 0.960 . S
C1460 C1459 1.524 . S
C1461 C1458 1.403 . S
C1461 C1462 1.392 . S
C1461 C1465 1.495 . S
C1462 C1461 1.392 . S
C1462 C1463 1.385 . S
C1462 C1464 1.478 . S
C1463 H1457 0.930 . S
C1463 C1459 1.400 . S
C1463 C1462 1.385 . S
C1464 C1462 1.478 . S
C1464 C1466 1.381 . S
C1464 C1470 1.383 . S
C1465 C1461 1.495 . S
C1465 H1471 0.959 . S
C1465 H1472 0.961 . S
C1465 H1473 0.960 . S
C1466 C1464 1.381 . S
C1466 C1467 1.394 . S
C1466 H1474 0.930 . S
C1467 C1466 1.394 . S
C1467 C1468 1.383 . S
C1467 H1475 0.929 . S
C1468 C1467 1.383 . S
C1468 C1469 1.377 . S
C1469 H1453 0.930 . S
C1469 C1468 1.377 . S
C1469 C1470 1.379 . S
C1470 H1454 0.931 . S
C1470 C1464 1.383 . S
C1470 C1469 1.379 . S
H1471 C1465 0.959 . S
H1472 C1465 0.961 . S
H1473 C1465 0.960 . S
H1474 C1466 0.930 . S
H1475 C1467 0.929 . S
H1476 C1484 0.929 . S
H1477 C1486 0.930 . S
H1478 C1488 0.930 . S
H1479 C1491 0.929 . S
H1480 C1494 0.930 . S
H1481 C1496 0.960 . S
H1482 C1496 0.960 . S
H1483 C1496 0.960 . S
C1484 H1476 0.929 . S
C1484 C1485 1.377 . S
C1484 C1486 1.384 . S
C1485 C1484 1.377 . S
C1485 C1491 1.390 . S
C1486 H1477 0.930 . S
C1486 C1484 1.384 . S
C1486 C1487 1.372 . S
C1487 C1486 1.372 . S
C1487 C1488 1.400 . S
C1487 C1492 1.490 . S
C1488 H1478 0.930 . S
C1488 C1487 1.400 . S
C1488 C1491 1.386 . S
H1489 C1505 0.930 . S
H1490 C1506 0.931 . S
C1491 H1479 0.929 . S
C1491 C1485 1.390 . S
C1491 C1488 1.386 . S
C1492 C1487 1.490 . S
C1492 C1494 1.395 . S
C1492 C1495 1.403 . S
H1493 C1499 0.930 . S
C1494 H1480 0.930 . S
C1494 C1492 1.395 . S
C1494 C1497 1.403 . S
C1495 C1492 1.403 . S
C1495 C1496 1.524 . S
C1495 C1499 1.400 . S
C1496 H1481 0.960 . S
C1496 H1482 0.960 . S
C1496 H1483 0.960 . S
C1496 C1495 1.524 . S
C1497 C1494 1.403 . S
C1497 C1498 1.392 . S
C1497 C1501 1.495 . S
C1498 C1497 1.392 . S
C1498 C1499 1.385 . S
C1498 C1500 1.478 . S
C1499 H1493 0.930 . S
C1499 C1495 1.400 . S
C1499 C1498 1.385 . S
C1500 C1498 1.478 . S
C1500 C1502 1.381 . S
C1500 C1506 1.383 . S
C1501 C1497 1.495 . S
C1501 H1507 0.959 . S
C1501 H1508 0.961 . S
C1501 H1509 0.960 . S
C1502 C1500 1.381 . S
C1502 C1503 1.394 . S
C1502 H1510 0.930 . S
C1503 C1502 1.394 . S
C1503 C1504 1.383 . S
C1503 H1511 0.929 1_556 S
C1504 C1503 1.383 . S
C1504 C1505 1.377 . S
C1505 H1489 0.930 . S
C1505 C1504 1.377 . S
C1505 C1506 1.379 . S
C1506 H1490 0.931 . S
C1506 C1500 1.383 . S
C1506 C1505 1.379 . S
H1507 C1501 0.959 . S
H1508 C1501 0.961 . S
H1509 C1501 0.960 . S
H1510 C1502 0.930 . S
H1511 C1503 0.929 1_554 S
H1512 C1520 0.929 . S
H1513 C1522 0.930 . S
H1514 C1524 0.930 . S
H1515 C1527 0.929 . S
H1516 C1530 0.930 . S
H1517 C1532 0.960 . S
H1518 C1532 0.960 . S
H1519 C1532 0.960 . S
C1520 H1512 0.929 . S
C1520 C1521 1.377 . S
C1520 C1522 1.384 . S
C1521 C1520 1.377 . S
C1521 C1527 1.390 . S
C1522 H1513 0.930 . S
C1522 C1520 1.384 . S
C1522 C1523 1.372 . S
C1523 C1522 1.372 . S
C1523 C1524 1.400 . S
C1523 C1528 1.490 . S
C1524 H1514 0.930 . S
C1524 C1523 1.400 . S
C1524 C1527 1.386 . S
H1525 C1541 0.930 . S
H1526 C1542 0.931 . S
C1527 H1515 0.929 . S
C1527 C1521 1.390 . S
C1527 C1524 1.386 . S
C1528 C1523 1.490 . S
C1528 C1530 1.395 . S
C1528 C1531 1.403 . S
H1529 C1535 0.930 . S
C1530 H1516 0.930 . S
C1530 C1528 1.395 . S
C1530 C1533 1.403 . S
C1531 C1528 1.403 . S
C1531 C1532 1.524 . S
C1531 C1535 1.400 . S
C1532 H1517 0.960 . S
C1532 H1518 0.960 . S
C1532 H1519 0.960 . S
C1532 C1531 1.524 . S
C1533 C1530 1.403 . S
C1533 C1534 1.392 . S
C1533 C1537 1.495 . S
C1534 C1533 1.392 . S
C1534 C1535 1.385 . S
C1534 C1536 1.478 . S
C1535 H1529 0.930 . S
C1535 C1531 1.400 . S
C1535 C1534 1.385 . S
C1536 C1534 1.478 . S
C1536 C1538 1.381 . S
C1536 C1542 1.383 . S
C1537 C1533 1.495 . S
C1537 H1543 0.959 . S
C1537 H1544 0.961 . S
C1537 H1545 0.960 . S
C1538 C1536 1.381 . S
C1538 C1539 1.394 . S
C1538 H1546 0.930 . S
C1539 C1538 1.394 . S
C1539 C1540 1.383 . S
C1539 H1547 0.929 . S
C1540 C1539 1.383 . S
C1540 C1541 1.377 . S
C1541 H1525 0.930 . S
C1541 C1540 1.377 . S
C1541 C1542 1.379 . S
C1542 H1526 0.931 . S
C1542 C1536 1.383 . S
C1542 C1541 1.379 . S
H1543 C1537 0.959 . S
H1544 C1537 0.961 . S
H1545 C1537 0.960 . S
H1546 C1538 0.930 . S
H1547 C1539 0.929 . S
C261 C13 0.850 . S
C280 C181 0.855 . S
C297 C34 0.836 . S
C316 C202 0.781 . S
C333 C55 0.827 . S
C352 C223 0.857 . S
C369 C244 0.845 . S
C388 C76 0.815 . S
C405 C97 0.834 . S
C424 C139 0.775 . S
C441 C160 0.822 . S
C460 C118 0.778 . S
C477 C227 1.491 . S
C496 C17 1.522 . S
C513 C248 1.496 . S
C532 C38 1.484 . S
C549 C59 1.487 . S
C568 C143 1.442 . S
C585 C164 1.495 . S
C604 C80 1.473 . S
C621 C185 1.484 . S
C640 C101 1.521 . S
C657 C122 1.491 . S
C676 C206 1.448 . S
C693 C162 1.214 . S
C712 C15 1.180 . S
C729 C183 1.216 . S
C748 C36 1.172 . S
C765 C204 1.211 . S
C784 C57 1.193 . S
C801 C78 1.203 . S
C820 C225 1.255 . S
C837 C99 1.209 . S
C856 C246 1.202 . S
C873 C120 1.209 . S
C892 C141 1.204 . S
C909 C16 1.457 . S
C928 C79 1.449 . S
C945 C37 1.455 . S
C964 C100 1.470 . S
C981 C58 1.447 . S
C1000 C121 1.502 . S
C1017 C205 1.457 . S
C1036 C142 1.455 . S
C1053 C163 1.459 . S
C1072 C226 1.434 . S
C1089 C247 1.442 . S
C1108 C184 1.505 . S
C1125 C165 1.098 . S
C1144 C18 1.104 . S
C1161 C186 1.090 . S
C1180 C39 1.120 . S
C1197 C60 1.099 . S
C1216 C207 1.101 . S
C1233 C228 1.095 . S
C1252 C81 1.117 . S
C1269 C249 1.091 . S
C1288 C102 1.101 . S
C1305 C123 1.103 . S
C1324 C144 1.069 . S
C1341 C14 1.333 . S
C1360 C224 1.317 . S
C1377 C35 1.338 . S
C1396 C245 1.338 1_556 S
C1413 C56 1.338 1_554 S
C1432 C140 1.339 . S
C1449 C77 1.338 . S
C1468 C161 1.342 . S
C1485 C98 1.334 . S
C1504 C182 1.339 1_556 S
C1521 C203 1.337 . S
C1540 C119 1.347 1_554 S
