# Generated by pormake.
# Topology afw, (4)-cn, num edge types: 1
# Building blocks:
#     Node 0, Type 0, BuildingBlock: QUQFOY_clean_sbu_3, # of connection points: 4
#     Node 1, Type 0, BuildingBlock: QUQFOY_clean_sbu_3, # of connection points: 4
#     Node 2, Type 0, BuildingBlock: QUQFOY_clean_sbu_3, # of connection points: 4
#     Node 3, Type 0, BuildingBlock: QUQFOY_clean_sbu_3, # of connection points: 4
#     Node 4, Type 0, BuildingBlock: QUQFOY_clean_sbu_3, # of connection points: 4
#     Node 5, Type 0, BuildingBlock: QUQFOY_clean_sbu_3, # of connection points: 4
#     Node 6, Type 0, BuildingBlock: QUQFOY_clean_sbu_3, # of connection points: 4
#     Node 7, Type 0, BuildingBlock: QUQFOY_clean_sbu_3, # of connection points: 4
#     Node 8, Type 0, BuildingBlock: QUQFOY_clean_sbu_3, # of connection points: 4
#     Edge 9, Type (0, 0), BuildingBlock: MIFKUJ_clean_linker_0, # of connection points: 2
#     Edge 10, Type (0, 0), BuildingBlock: MIFKUJ_clean_linker_0, # of connection points: 2
#     Edge 11, Type (0, 0), BuildingBlock: MIFKUJ_clean_linker_0, # of connection points: 2
#     Edge 12, Type (0, 0), BuildingBlock: MIFKUJ_clean_linker_0, # of connection points: 2
#     Edge 13, Type (0, 0), BuildingBlock: MIFKUJ_clean_linker_0, # of connection points: 2
#     Edge 14, Type (0, 0), BuildingBlock: MIFKUJ_clean_linker_0, # of connection points: 2
#     Edge 15, Type (0, 0), BuildingBlock: MIFKUJ_clean_linker_0, # of connection points: 2
#     Edge 16, Type (0, 0), BuildingBlock: MIFKUJ_clean_linker_0, # of connection points: 2
#     Edge 17, Type (0, 0), BuildingBlock: MIFKUJ_clean_linker_0, # of connection points: 2
#     Edge 18, Type (0, 0), BuildingBlock: MIFKUJ_clean_linker_0, # of connection points: 2
#     Edge 19, Type (0, 0), BuildingBlock: MIFKUJ_clean_linker_0, # of connection points: 2
#     Edge 20, Type (0, 0), BuildingBlock: MIFKUJ_clean_linker_0, # of connection points: 2
#     Edge 21, Type (0, 0), BuildingBlock: MIFKUJ_clean_linker_0, # of connection points: 2
#     Edge 22, Type (0, 0), BuildingBlock: MIFKUJ_clean_linker_0, # of connection points: 2
#     Edge 23, Type (0, 0), BuildingBlock: MIFKUJ_clean_linker_0, # of connection points: 2
#     Edge 24, Type (0, 0), BuildingBlock: MIFKUJ_clean_linker_0, # of connection points: 2
#     Edge 25, Type (0, 0), BuildingBlock: MIFKUJ_clean_linker_0, # of connection points: 2
#     Edge 26, Type (0, 0), BuildingBlock: MIFKUJ_clean_linker_0, # of connection points: 2
# Relax obj value: 0.197
# Max RMSD: 0.206
# Mean RMSD: 0.200
data_MOF--net-afw--node1-QUQFOY_clean_sbu_3--edge1-MIFKUJ_clean_linker_0
_symmetry_space_group_name_H-M    P1
_symmetry_Int_Tables_number       1
_symmetry_cell_setting            triclinic
loop_
_symmetry_equiv_pos_as_xyz
'x, y, z'
_cell_length_a     56.554279
_cell_length_b     57.002588
_cell_length_c     42.070187
_cell_angle_alpha  91.163553
_cell_angle_beta   90.863843
_cell_angle_gamma 120.13942
loop_
_atom_site_label
_atom_site_type_symbol
_atom_site_fract_x
_atom_site_fract_y
_atom_site_fract_z
_atom_type_partial_charge
C0 C 0.08739 0.20145 0.09568 0.0
O1 O 0.07783 0.2009 0.12294 0.0
Cd2 Cd 0.04107 0.2096 0.1312 0.0
O3 O 0.07897 0.20884 0.07175 0.0
Cd4 Cd 0.04678 0.2255 0.06097 0.0
C5 C -0.00584 0.16365 0.07662 0.0
O6 O 0.05212 0.25237 0.10933 0.0
O7 O 0.01545 0.23974 0.08059 0.0
O8 O 0.07987 0.26358 0.03095 0.0
C9 C 0.03111 0.25433 0.10351 0.0
O10 O 0.00087 0.1706 0.10579 0.0
C11 C 0.06553 0.25679 0.00534 0.0
O12 O 0.00828 0.17935 0.05478 0.0
O13 O 0.04269 0.23478 0.00517 0.0
C14 C 0.85528 0.82706 0.00545 0.0
O15 O 0.84827 0.8287 0.97712 0.0
Cd16 Cd 0.80663 0.82815 0.96412 0.0
O17 O 0.83965 0.82413 0.0284 0.0
Cd18 Cd 0.79418 0.81872 0.03855 0.0
C19 C 0.81654 0.88216 0.01229 0.0
O20 O 0.77278 0.79006 0.9915 0.0
O21 O 0.74738 0.80136 0.01779 0.0
O22 O 0.79358 0.78787 0.07765 0.0
C23 C 0.74953 0.78777 -0.00502 0.0
O24 O 0.81496 0.87226 0.98439 0.0
C25 C 0.78168 0.79408 0.09875 0.0
O26 O 0.81105 0.86736 0.03645 0.0
O27 O 0.77633 0.81263 0.09231 0.0
C28 C 0.13861 0.93232 0.04945 0.0
O29 O 0.15087 0.9388 0.07652 0.0
Cd30 Cd 0.19817 0.97265 0.08499 0.0
O31 O 0.15142 0.94333 0.02437 0.0
Cd32 Cd 0.19769 0.97655 0.00726 0.0
C33 C 0.19574 0.02624 0.0516 0.0
O34 O 0.22084 0.96257 0.04431 0.0
O35 O 0.24724 -0.00306 0.01652 0.0
O36 O 0.18915 0.94668 0.96151 0.0
C37 C 0.24491 0.98018 0.03729 0.0
O38 O 0.19861 0.0151 0.07618 0.0
C39 C 0.19703 0.96508 0.94112 0.0
O40 O 0.19389 0.0159 0.02389 0.0
O41 O 0.20414 0.9889 0.95144 0.0
C42 C 0.57592 0.46722 0.26689 0.0
O43 O 0.58695 0.48175 0.24305 0.0
Cd44 Cd 0.62417 0.5282 0.24757 0.0
O45 O 0.58317 0.47732 0.295 0.0
Cd46 Cd 0.6148 0.52053 0.3227 0.0
C47 C 0.66683 0.51482 0.29295 0.0
O48 O 0.61503 0.55343 0.28642 0.0
O49 O 0.64757 0.56863 0.32223 0.0
O50 O 0.57845 0.51529 0.35654 0.0
C51 C 0.63598 0.57363 0.29947 0.0
O52 O 0.66238 0.52353 0.26718 0.0
C53 C 0.59139 0.51809 0.38258 0.0
O54 O 0.65128 0.5097 0.31657 0.0
O55 O 0.6151 0.5209 0.3808 0.0
C56 C 0.5627 0.16181 0.28146 0.0
O57 O 0.55614 0.15763 0.25201 0.0
Cd58 Cd 0.51118 0.14184 0.23028 0.0
O59 O 0.54466 0.15648 0.30226 0.0
Cd60 Cd 0.49438 0.13671 0.30418 0.0
C61 C 0.49936 0.19039 0.26501 0.0
O62 O 0.48314 0.10349 0.26083 0.0
O63 O 0.44965 0.10712 0.27905 0.0
O64 O 0.49773 0.11333 0.35008 0.0
C65 C 0.45772 0.09503 0.26042 0.0
O66 O 0.50332 0.17973 0.24024 0.0
C67 C 0.4801 0.11564 0.36604 0.0
O68 O 0.49661 0.17965 0.292 0.0
O69 O 0.47031 0.12935 0.35405 0.0
C70 C 0.86825 0.43336 0.27749 0.0
O71 O 0.87052 0.42091 0.25339 0.0
Cd72 Cd 0.89046 0.39216 0.25397 0.0
O73 O 0.87684 0.43145 0.30491 0.0
Cd74 Cd 0.89738 0.40679 0.32937 0.0
C75 C 0.84316 0.34646 0.30303 0.0
O76 O 0.93007 0.4121 0.28901 0.0
O77 O 0.92303 0.38327 0.32524 0.0
O78 O 0.92305 0.4427 0.36997 0.0
C79 C 0.93587 0.39522 0.30079 0.0
O80 O 0.85347 0.35067 0.27557 0.0
C81 C 0.91227 0.42706 0.39307 0.0
O82 O 0.85423 0.3643 0.32544 0.0
O83 O 0.89455 0.40253 0.38618 0.0
C84 C 0.38888 0.8706 0.68996 0.0
O85 O 0.38119 0.87282 0.71751 0.0
Cd86 Cd 0.33789 0.87019 0.72393 0.0
O87 O 0.3757 0.87087 0.66529 0.0
Cd88 Cd 0.33763 0.87763 0.64791 0.0
C89 C 0.29984 0.8139 0.67279 0.0
O90 O 0.33749 0.9046 0.6932 0.0
O91 O 0.30183 0.88749 0.6616 0.0
O92 O 0.37307 0.91235 0.61739 0.0
C93 C 0.31455 0.90233 0.68588 0.0
O94 O 0.3072 0.82495 0.70055 0.0
C95 C 0.35861 0.90793 0.59223 0.0
O96 O 0.30804 0.82814 0.64805 0.0
O97 O 0.33404 0.88833 0.59223 0.0
C98 C 0.15703 0.45661 0.63253 0.0
O99 O 0.14486 0.45767 0.60744 0.0
Cd100 Cd 0.1062 0.4646 0.61025 0.0
O101 O 0.14804 0.45737 0.65986 0.0
Cd102 Cd 0.11195 0.45914 0.68936 0.0
C103 C 0.13999 0.52248 0.66006 0.0
O104 O 0.07646 0.43698 0.65007 0.0
O105 O 0.06802 0.458 0.68742 0.0
O106 O 0.10442 0.41944 0.71657 0.0
C107 C 0.06031 0.44413 0.66146 0.0
O108 O 0.12937 0.51071 0.63323 0.0
C109 C 0.10924 0.43 0.74446 0.0
O110 O 0.13795 0.50882 0.68465 0.0
O111 O 0.11556 0.45479 0.74713 0.0
C112 C 0.43309 0.60399 0.72477 0.0
O113 O 0.43749 0.61406 0.75293 0.0
Cd114 Cd 0.48196 0.64996 0.77191 0.0
O115 O 0.45251 0.61206 0.70542 0.0
Cd116 Cd 0.50166 0.6436 0.70224 0.0
C117 C 0.49226 0.69717 0.71594 0.0
O118 O 0.51568 0.63898 0.75576 0.0
O119 O 0.54649 0.6702 0.72712 0.0
O120 O 0.50427 0.60727 0.67503 0.0
C121 C 0.54033 0.65772 0.753 0.0
O122 O 0.48855 0.69002 0.74477 0.0
C123 C 0.51496 0.62029 0.65017 0.0
O124 O 0.49579 0.68302 0.6947 0.0
O125 O 0.51934 0.64444 0.64929 0.0
H126 H 0.18823 0.05533 0.0053 0.0
H127 H 0.1768 0.09113 0.01288 0.0
H128 H 0.18352 0.08689 0.11459 0.0
H129 H 0.19489 0.05118 0.10737 0.0
H130 H 0.1347 0.08142 0.09499 0.0
H131 H 0.23015 0.14152 0.07728 0.0
H132 H 0.27302 0.15929 0.04816 0.0
H133 H 0.23566 0.1753 0.96829 0.0
H134 H 0.19241 0.15726 -0.00324 0.0
H135 H 0.11093 0.18576 0.1415 0.0
H136 H 0.13607 0.16175 0.1336 0.0
H137 H 0.13107 0.16816 0.03204 0.0
H138 H 0.10623 0.1926 0.03968 0.0
H139 H 0.18026 0.17364 0.05106 0.0
H140 H 0.08497 0.11203 0.066 0.0
H141 H 0.04107 0.09334 0.09314 0.0
H142 H 0.07677 0.07842 0.17547 0.0
H143 H 0.12106 0.0975 0.14905 0.0
C144 C 0.18771 0.06231 0.02928 0.0
C145 C 0.19225 0.0502 0.05573 0.0
C146 C 0.18128 0.08285 0.03355 0.0
C147 C 0.17933 0.09164 0.0643 0.0
C148 C 0.18489 0.08034 0.09066 0.0
C149 C 0.19142 0.05994 0.08645 0.0
C150 C 0.16912 0.11079 0.06914 0.0
C151 C 0.14494 0.10177 0.08587 0.0
C152 C 0.18197 0.13693 0.05622 0.0
C153 C 0.20795 0.14778 0.03905 0.0
C154 C 0.23099 0.1486 0.05339 0.0
C155 C 0.25538 0.15877 0.03703 0.0
C156 C 0.25704 0.16836 0.00636 0.0
C157 C 0.23433 0.16784 0.99203 0.0
C158 C 0.20988 0.15767 0.00828 0.0
C159 C 0.11556 0.1825 0.11749 0.0
C160 C 0.10623 0.19078 0.0912 0.0
C161 C 0.12989 0.16872 0.11302 0.0
C162 C 0.13495 0.16273 0.08221 0.0
C163 C 0.12727 0.17249 0.056 0.0
C164 C 0.113 0.1864 0.06044 0.0
C165 C 0.14612 0.14437 0.07734 0.0
C166 C 0.17022 0.15339 0.0604 0.0
C167 C 0.13306 0.11803 0.08976 0.0
C168 C 0.10642 0.10647 0.10568 0.0
C169 C 0.08353 0.10498 0.08999 0.0
C170 C 0.05857 0.09428 0.10522 0.0
C171 C 0.05615 0.08475 0.13602 0.0
C172 C 0.07869 0.08585 0.15163 0.0
C173 C 0.10373 0.09661 0.13655 0.0
H174 H 0.0368 0.07645 0.14776 0.0
H175 H 0.27594 0.17623 -0.00626 0.0
H176 H 0.82536 0.91126 0.06822 0.0
H177 H 0.84933 0.96058 0.07569 0.0
H178 H 0.85662 0.9694 0.97416 0.0
H179 H 0.83288 0.92014 0.9664 0.0
H180 H 0.90522 -0.00144 0.00483 0.0
H181 H 0.81602 0.98692 0.01418 0.0
H182 H 0.76936 0.96725 0.03437 0.0
H183 H 0.8022 -0.00395 0.12898 0.0
H184 H 0.84908 0.01557 0.10944 0.0
H185 H 0.974 0.14157 0.01705 0.0
H186 H 0.93796 0.0952 0.0032 0.0
H187 H 0.92539 0.07757 0.10277 0.0
H188 H 0.96107 0.12397 0.11689 0.0
H189 H 0.87707 0.0539 0.06906 0.0
H190 H 0.96531 0.06064 0.06095 0.0
H191 H 0.0122 0.07949 0.04169 0.0
H192 H 0.98091 0.05885 0.94538 0.0
H193 H 0.93382 0.04019 0.96405 0.0
C194 C 0.83161 0.92364 0.04742 0.0
C195 C 0.82739 0.91172 0.01672 0.0
C196 C 0.84522 0.95186 0.05174 0.0
C197 C 0.85472 0.96865 0.02546 0.0
C198 C 0.84949 0.9568 -0.00526 0.0
C199 C 0.83586 0.92861 0.99039 0.0
C200 C 0.87236 -0.00157 0.03023 0.0
C201 C 0.89883 0.01076 0.01829 0.0
C202 C 0.86426 0.01418 0.04851 0.0
C203 C 0.83609 0.00253 0.06037 0.0
C204 C 0.8133 0.98887 0.03934 0.0
C205 C 0.78681 0.97778 0.05066 0.0
C206 C 0.78282 0.98035 0.08295 0.0
C207 C 0.80532 -0.00593 0.10398 0.0
C208 C 0.83187 0.00518 0.09278 0.0
C209 C 0.96338 0.12795 0.03604 0.0
C210 C 0.97066 0.13642 0.0681 0.0
C211 C 0.94281 0.10143 0.02806 0.0
C212 C 0.92928 0.08285 0.05196 0.0
C213 C 0.9356 0.09159 0.08396 0.0
C214 C 0.95611 0.1181 0.09197 0.0
C215 C 0.90988 0.05388 0.04375 0.0
C216 C 0.88321 0.04171 0.05517 0.0
C217 C 0.91779 0.03816 0.0251 0.0
C218 C 0.94608 0.04931 0.01386 0.0
C219 C 0.96845 0.06032 0.03565 0.0
C220 C -0.00495 0.07093 0.02485 0.0
C221 C -0.00046 0.07044 0.99234 0.0
C222 C 0.97741 0.05926 0.97056 0.0
C223 C 0.95076 0.04866 0.98123 0.0
H224 H 0.02015 0.07866 0.98403 0.0
H225 H 0.76229 0.97175 0.09167 0.0
H226 H 0.89431 0.83443 0.96281 0.0
H227 H 0.94047 0.84316 0.97449 0.0
H228 H 0.9237 0.83449 0.07459 0.0
H229 H 0.87753 0.82602 0.06322 0.0
H230 H 0.96966 0.88075 0.0634 0.0
H231 H 0.93241 0.78744 0.03366 0.0
H232 H 0.90671 0.74576 0.00016 0.0
H233 H 0.96207 0.78337 0.92426 0.0
H234 H -0.0121 0.82544 0.95712 0.0
H235 H 0.10359 0.90795 0.09804 0.0
H236 H 0.05367 0.88109 0.09429 0.0
H237 H 0.05624 0.88701 0.99221 0.0
H238 H 0.10607 0.91355 -0.0044 0.0
H239 H 0.01609 0.83694 0.01046 0.0
H240 H 0.04791 0.93148 0.03617 0.0
H241 H 0.07347 0.97419 0.06799 0.0
H242 H 0.0276 0.93458 0.15002 0.0
H243 H 0.00202 0.89152 0.11874 0.0
C244 C 0.90028 0.83402 0.98729 0.0
C245 C 0.8823 0.82974 0.0121 0.0
C246 C 0.92663 0.83882 -0.00611 0.0
C247 C 0.93542 0.83926 0.02539 0.0
C248 C 0.91726 0.83417 0.05012 0.0
C249 C 0.8909 0.82936 0.04355 0.0
C250 C 0.96433 0.84765 0.03263 0.0
C251 C 0.97965 0.87074 0.05245 0.0
C252 C 0.97746 0.83497 0.01769 0.0
C253 C 0.96199 0.80968 -0.00219 0.0
C254 C 0.93899 0.78691 0.00974 0.0
C255 C 0.92442 0.76319 0.99088 0.0
C256 C 0.93273 0.76193 0.96009 0.0
C257 C 0.95566 0.78438 0.94811 0.0
C258 C 0.9703 0.80815 0.96687 0.0
C259 C 0.09358 0.90318 0.07474 0.0
C260 C 0.10879 0.91323 0.04714 0.0
C261 C 0.06506 0.88785 0.07267 0.0
C262 C 0.05133 0.88243 0.04302 0.0
C263 C 0.06649 0.89102 0.01532 0.0
C264 C 0.09498 0.90633 0.01734 0.0
C265 C 0.02127 0.87012 0.0409 0.0
C266 C 0.00585 0.84647 0.02195 0.0
C267 C 0.00799 0.88235 0.05644 0.0
C268 C 0.02331 0.90822 0.07525 0.0
C269 C 0.04344 0.93183 0.06106 0.0
C270 C 0.0579 0.95611 0.07898 0.0
C271 C 0.05223 0.95707 0.11104 0.0
C272 C 0.03202 0.93378 0.12521 0.0
C273 C 0.01753 0.90944 0.1074 0.0
H274 H 0.06344 0.97589 0.12487 0.0
H275 H 0.92142 0.74355 0.94552 0.0
H276 H 0.87315 0.47602 0.31349 0.0
H277 H 0.84101 0.49288 0.31479 0.0
H278 H 0.79259 0.43562 0.23901 0.0
H279 H 0.82559 0.42006 0.23631 0.0
H280 H 0.78901 0.47686 0.23125 0.0
H281 H 0.7779 0.42346 0.32093 0.0
H282 H 0.79187 0.40894 0.36905 0.0
H283 H 0.81539 0.48543 0.41603 0.0
H284 H 0.80204 0.50063 0.36797 0.0
H285 H 0.6689 0.47446 0.32429 0.0
H286 H 0.70441 0.46197 0.321 0.0
H287 H 0.75189 0.53089 0.26271 0.0
H288 H 0.71573 0.54239 0.26445 0.0
H289 H 0.75395 0.48127 0.33731 0.0
H290 H 0.78614 0.5184 0.20833 0.0
H291 H 0.76496 0.52294 0.15887 0.0
H292 H 0.68596 0.46114 0.18826 0.0
H293 H 0.70669 0.45597 0.23766 0.0
C294 C 0.85597 0.46753 0.29665 0.0
C295 C 0.85178 0.44672 0.27486 0.0
C296 C 0.83745 0.47695 0.29761 0.0
C297 C 0.81389 0.46498 0.27765 0.0
C298 C 0.81051 0.44516 0.25475 0.0
C299 C 0.82943 0.43629 0.25318 0.0
C300 C 0.79212 0.47208 0.28156 0.0
C301 C 0.78143 0.47789 0.25447 0.0
C302 C 0.78135 0.4724 0.31169 0.0
C303 C 0.78923 0.46329 0.34074 0.0
C304 C 0.78622 0.43726 0.34145 0.0
C305 C 0.79401 0.4289 0.36871 0.0
C306 C 0.80455 0.44627 0.39555 0.0
C307 C 0.80726 0.47202 0.3952 0.0
C308 C 0.79959 0.48052 0.36796 0.0
C309 C 0.68706 0.48702 0.31102 0.0
C310 C 0.68955 0.50922 0.29439 0.0
C311 C 0.70733 0.4799 0.30914 0.0
C312 C 0.73061 0.49514 0.29103 0.0
C313 C 0.73378 0.5183 0.27601 0.0
C314 C 0.71322 0.52499 0.2772 0.0
C315 C 0.75119 0.48647 0.28706 0.0
C316 C 0.76162 0.48033 0.31412 0.0
C317 C 0.76056 0.48426 0.2567 0.0
C318 C 0.74797 0.48703 0.22684 0.0
C319 C 0.76427 0.50572 0.20417 0.0
C320 C 0.75233 0.50841 0.17616 0.0
C321 C 0.72412 0.49241 0.17048 0.0
C322 C 0.70779 0.47359 0.19274 0.0
C323 C 0.71962 0.4708 0.22076 0.0
H324 H 0.71492 0.49455 0.1488 0.0
H325 H 0.81056 0.43975 0.41664 0.0
H326 H 0.49177 0.21984 0.31214 0.0
H327 H 0.49677 0.2649 0.30829 0.0
H328 H 0.51301 0.26511 0.20844 0.0
H329 H 0.50815 0.22026 0.21198 0.0
H330 H 0.55181 0.31059 0.24044 0.0
H331 H 0.45382 0.25941 0.23128 0.0
H332 H 0.40733 0.22579 0.24717 0.0
H333 H 0.41957 0.27035 0.33524 0.0
H334 H 0.4663 0.30406 0.32008 0.0
H335 H 0.56406 0.43635 0.21185 0.0
H336 H 0.54247 0.38695 0.20742 0.0
H337 H 0.52552 0.38148 0.30744 0.0
H338 H 0.54678 0.43076 0.3121 0.0
H339 H 0.48475 0.33799 0.2723 0.0
H340 H 0.58272 0.38552 0.2856 0.0
H341 H 0.63 0.41942 0.27256 0.0
H342 H 0.61868 0.38147 0.18002 0.0
H343 H 0.57114 0.34757 0.19236 0.0
C344 C 0.49606 0.22931 0.28927 0.0
C345 C 0.49972 0.21647 0.26242 0.0
C346 C 0.49879 0.25502 0.28708 0.0
C347 C 0.50518 0.26829 0.25804 0.0
C348 C 0.50809 0.25521 0.23107 0.0
C349 C 0.50527 0.22953 0.23317 0.0
C350 C 0.5109 0.2966 0.25624 0.0
C351 C 0.53693 0.31647 0.24679 0.0
C352 C 0.49178 0.30437 0.26548 0.0
C353 C 0.46367 0.28413 0.27466 0.0
C354 C 0.4467 0.26192 0.25416 0.0
C355 C 0.42027 0.24287 0.26301 0.0
C356 C 0.41052 0.24589 0.29222 0.0
C357 C 0.42716 0.26802 0.31263 0.0
C358 C 0.45361 0.28712 0.3039 0.0
C359 C 0.55508 0.42463 0.23273 0.0
C360 C 0.55759 0.43754 0.26245 0.0
C361 C 0.54282 0.39639 0.23017 0.0
C362 C 0.53291 0.38067 0.25725 0.0
C363 C 0.53316 0.39328 0.2863 0.0
C364 C 0.54545 0.42149 0.28891 0.0
C365 C 0.52551 0.35178 0.25626 0.0
C366 C 0.49938 0.33193 0.26546 0.0
C367 C 0.54464 0.34397 0.24718 0.0
C368 C 0.57328 0.3642 0.23976 0.0
C369 C 0.59024 0.38454 0.26238 0.0
C370 C 0.61709 0.40373 0.25513 0.0
C371 C 0.62731 0.40265 0.22545 0.0
C372 C 0.61071 0.38231 0.20298 0.0
C373 C 0.58382 0.3631 0.21009 0.0
H374 H 0.64812 0.41751 0.21989 0.0
H375 H 0.39006 0.23113 0.29903 0.0
H376 H 0.60525 0.16929 0.24495 0.0
H377 H 0.65378 0.19394 0.25965 0.0
H378 H 0.63492 0.20727 0.35495 0.0
H379 H 0.58607 0.18262 0.34039 0.0
H380 H 0.67211 0.25394 0.3281 0.0
H381 H 0.66186 0.16719 0.34358 0.0
H382 H 0.64691 0.11924 0.33097 0.0
H383 H 0.69661 0.14252 0.2485 0.0
H384 H 0.71156 0.1906 0.26033 0.0
H385 H 0.81453 0.33149 0.35791 0.0
H386 H 0.76817 0.29371 0.3644 0.0
H387 H 0.76557 0.26752 0.26685 0.0
H388 H 0.81201 0.30504 0.26015 0.0
H389 H 0.73939 0.22438 0.30634 0.0
H390 H 0.74153 0.30878 0.28508 0.0
H391 H 0.75534 0.3568 0.29546 0.0
H392 H 0.71973 0.33738 0.38747 0.0
H393 H 0.70605 0.28928 0.3778 0.0
C394 C 0.61133 0.17712 0.26917 0.0
C395 C 0.59181 0.17418 0.29143 0.0
C396 C 0.6391 0.19102 0.27761 0.0
C397 C 0.64791 0.20222 0.30846 0.0
C398 C 0.62847 0.19863 0.33106 0.0
C399 C 0.6006 0.18455 0.32269 0.0
C400 C 0.67747 0.22006 0.31573 0.0
C401 C 0.68681 0.2473 0.32423 0.0
C402 C 0.69658 0.21145 0.31 0.0
C403 C 0.68773 0.18254 0.30278 0.0
C404 C 0.66946 0.16209 0.32262 0.0
C405 C 0.661 0.13488 0.31563 0.0
C406 C 0.67077 0.12783 0.28893 0.0
C407 C 0.68906 0.148 0.26919 0.0
C408 C 0.69757 0.17526 0.27605 0.0
C409 C 0.80431 0.31745 0.33795 0.0
C410 C 0.81682 0.32153 0.30833 0.0
C411 C 0.77782 0.29588 0.34175 0.0
C412 C 0.76337 0.27813 0.31597 0.0
C413 C 0.77641 0.28106 0.28702 0.0
C414 C 0.80291 0.30261 0.28319 0.0
C415 C 0.73387 0.25824 0.31798 0.0
C416 C 0.72461 0.23075 0.31108 0.0
C417 C 0.71475 0.26659 0.32501 0.0
C418 C 0.72308 0.29552 0.33088 0.0
C419 C 0.73687 0.3148 0.30764 0.0
C420 C 0.74464 0.34202 0.31337 0.0
C421 C 0.73847 0.35014 0.34213 0.0
C422 C 0.72453 0.33106 0.36523 0.0
C423 C 0.71678 0.30383 0.35964 0.0
H424 H 0.74436 0.37118 0.34647 0.0
H425 H 0.6642 0.10675 0.28356 0.0
H426 H 0.42094 0.86714 0.73696 0.0
H427 H 0.44978 0.84678 0.73203 0.0
H428 H 0.43517 0.8381 0.63041 0.0
H429 H 0.40624 0.85841 0.63504 0.0
H430 H 0.4196 0.79016 0.65819 0.0
H431 H 0.49925 0.87767 0.6594 0.0
H432 H 0.53041 0.92479 0.67842 0.0
H433 H 0.54123 0.89627 0.76811 0.0
H434 H 0.50981 0.84898 0.74983 0.0
H435 H 0.48618 0.71251 0.65631 0.0
H436 H 0.47849 0.74993 0.6432 0.0
H437 H 0.48718 0.77373 0.74261 0.0
H438 H 0.49496 0.7367 0.75586 0.0
H439 H 0.51112 0.8178 0.70545 0.0
H440 H 0.42526 0.73354 0.7099 0.0
H441 H 0.39066 0.68625 0.69512 0.0
H442 H 0.38887 0.70879 0.59873 0.0
H443 H 0.42379 0.75619 0.61286 0.0
C444 C 0.42443 0.8616 0.71345 0.0
C445 C 0.41093 0.86401 0.68646 0.0
C446 C 0.44108 0.8501 0.71065 0.0
C447 C 0.44457 0.8409 0.68084 0.0
C448 C 0.43272 0.84507 0.65362 0.0
C449 C 0.41618 0.85669 0.65636 0.0
C450 C 0.4568 0.82328 0.67894 0.0
C451 C 0.43996 0.79644 0.66762 0.0
C452 C 0.483 0.83131 0.69215 0.0
C453 C 0.50203 0.85974 0.70326 0.0
C454 C 0.50811 0.88144 0.68327 0.0
C455 C 0.52585 0.90819 0.69391 0.0
C456 C 0.53777 0.91352 0.72447 0.0
C457 C 0.532 0.89211 0.74444 0.0
C458 C 0.51425 0.86532 0.73392 0.0
C459 C 0.48689 0.72599 0.67529 0.0
C460 C 0.49084 0.72144 0.70716 0.0
C461 C 0.48244 0.7473 0.66777 0.0
C462 C 0.48202 0.76441 0.69199 0.0
C463 C 0.48745 0.76078 0.72356 0.0
C464 C 0.4917 0.73946 0.7311 0.0
C465 C 0.4737 0.78467 0.68516 0.0
C466 C 0.49114 0.81185 0.69504 0.0
C467 C 0.44783 0.77692 0.67105 0.0
C468 C 0.4275 0.74829 0.6623 0.0
C469 C 0.41778 0.72833 0.68545 0.0
C470 C 0.39805 0.70153 0.67722 0.0
C471 C 0.38767 0.69449 0.64598 0.0
C472 C 0.397 0.71425 0.6229 0.0
C473 C 0.41679 0.74107 0.631 0.0
H474 H 0.37232 0.67375 0.63968 0.0
H475 H 0.5515 0.93424 0.73266 0.0
H476 H 0.29 0.77761 0.71904 0.0
H477 H 0.26383 0.72825 0.71443 0.0
H478 H 0.24541 0.73249 0.61561 0.0
H479 H 0.272 0.78229 0.61986 0.0
H480 H 0.19963 0.69655 0.65066 0.0
H481 H 0.28971 0.71422 0.63073 0.0
H482 H 0.33938 0.73387 0.63976 0.0
H483 H 0.32516 0.6935 0.72839 0.0
H484 H 0.27538 0.67388 0.72014 0.0
H485 H 0.14604 0.55712 0.61298 0.0
H486 H 0.17342 0.60642 0.61453 0.0
H487 H 0.19753 0.60573 0.71209 0.0
H488 H 0.17025 0.55601 0.71074 0.0
H489 H 0.24104 0.63997 0.67562 0.0
H490 H 0.15052 0.62343 0.69555 0.0
H491 H 0.10094 0.60297 0.68489 0.0
H492 H 0.11646 0.64113 0.59464 0.0
H493 H 0.16616 0.66152 0.60457 0.0
C494 C 0.28036 0.76816 0.69627 0.0
C495 C 0.28306 0.78393 0.66979 0.0
C496 C 0.26556 0.7399 0.69367 0.0
C497 C 0.25295 0.72677 0.66463 0.0
C498 C 0.25515 0.74233 0.6382 0.0
C499 C 0.27032 0.77072 0.64066 0.0
C500 C 0.23691 0.69675 0.66242 0.0
C501 C 0.20874 0.68414 0.6556 0.0
C502 C 0.24879 0.68069 0.66962 0.0
C503 C 0.27878 0.69281 0.67497 0.0
C504 C 0.29716 0.70977 0.65234 0.0
C505 C 0.32535 0.72085 0.65727 0.0
C506 C 0.33542 0.71501 0.68468 0.0
C507 C 0.31733 0.69804 0.70719 0.0
C508 C 0.28912 0.68692 0.70239 0.0
C509 C 0.15702 0.56734 0.6349 0.0
C510 C 0.15581 0.55255 0.66183 0.0
C511 C 0.17264 0.59559 0.63572 0.0
C512 C 0.18728 0.60974 0.6635 0.0
C513 C 0.18629 0.59514 0.69044 0.0
C514 C 0.17057 0.56677 0.68968 0.0
C515 C 0.20372 0.63979 0.66417 0.0
C516 C 0.23196 0.65239 0.67068 0.0
C517 C 0.19193 0.65587 0.65659 0.0
C518 C 0.16206 0.6438 0.65068 0.0
C519 C 0.14336 0.62729 0.67332 0.0
C520 C 0.11523 0.61573 0.66743 0.0
C521 C 0.10556 0.62069 0.63907 0.0
C522 C 0.12399 0.63728 0.61658 0.0
C523 C 0.15214 0.64887 0.62234 0.0
H524 H 0.08377 0.61172 0.63455 0.0
H525 H 0.35724 0.72359 0.68843 0.0
H526 H 0.18087 0.43845 0.6743 0.0
H527 H 0.23005 0.45712 0.68234 0.0
H528 H 0.2449 0.50265 0.59706 0.0
H529 H 0.19563 0.4837 0.58857 0.0
H530 H 0.27851 0.46634 0.64784 0.0
H531 H 0.28949 0.56954 0.62495 0.0
H532 H 0.26106 0.59101 0.62041 0.0
H533 H 0.20434 0.53463 0.68571 0.0
H534 H 0.23274 0.51324 0.69115 0.0
H535 H 0.41779 0.57456 0.66866 0.0
H536 H 0.37142 0.54376 0.64803 0.0
H537 H 0.3386 0.5568 0.73414 0.0
H538 H 0.38498 0.58782 0.75503 0.0
H539 H 0.31466 0.56302 0.67983 0.0
H540 H 0.33744 0.49804 0.72138 0.0
H541 H 0.36604 0.47685 0.72652 0.0
H542 H 0.35525 0.45672 0.62644 0.0
H543 H 0.32682 0.47808 0.62065 0.0
C544 C 0.19455 0.4515 0.65651 0.0
C545 C 0.18454 0.45994 0.63106 0.0
C546 C 0.22262 0.46208 0.66109 0.0
C547 C 0.24097 0.48156 0.64058 0.0
C548 C 0.23093 0.48769 0.61318 0.0
C549 C 0.20279 0.47677 0.60831 0.0
C550 C 0.26978 0.49896 0.65127 0.0
C551 C 0.28658 0.48754 0.65452 0.0
C552 C 0.28002 0.52649 0.66046 0.0
C553 C 0.26305 0.53956 0.65807 0.0
C554 C 0.271 0.5618 0.63842 0.0
C555 C 0.25491 0.57397 0.63572 0.0
C556 C 0.23085 0.56411 0.65265 0.0
C557 C 0.22292 0.54218 0.67251 0.0
C558 C 0.23901 0.53002 0.6754 0.0
C559 C 0.40074 0.57074 0.68338 0.0
C560 C 0.40507 0.58371 0.7135 0.0
C561 C 0.37426 0.55305 0.67155 0.0
C562 C 0.35165 0.54798 0.68961 0.0
C563 C 0.35586 0.56052 0.71986 0.0
C564 C 0.38235 0.57812 0.73181 0.0
C565 C 0.32355 0.53047 0.67644 0.0
C566 C 0.30681 0.54191 0.67278 0.0
C567 C 0.31344 0.50301 0.66699 0.0
C568 C 0.33021 0.48985 0.67054 0.0
C569 C 0.34131 0.48924 0.70044 0.0
C570 C 0.35746 0.47718 0.70348 0.0
C571 C 0.36251 0.46551 0.67681 0.0
C572 C 0.35134 0.46579 0.64707 0.0
C573 C 0.33517 0.47783 0.64391 0.0
H574 H 0.37504 0.4562 0.67921 0.0
H575 H 0.21842 0.57353 0.65041 0.0
H576 H 0.10531 0.31001 0.00463 0.0
H577 H 0.11657 0.34095 0.96059 0.0
H578 H 0.05681 0.27518 0.90007 0.0
H579 H 0.04498 0.24412 0.94423 0.0
H580 H 0.11095 0.31192 0.87231 0.0
H581 H 0.03682 0.31245 0.92862 0.0
H582 H 0.01512 0.31757 0.97663 0.0
H583 H 0.08162 0.3992 0.99183 0.0
H584 H 0.10393 0.3944 0.94413 0.0
H585 H 0.08644 0.37526 0.74575 0.0
H586 H 0.08328 0.34791 0.79087 0.0
H587 H 0.1253 0.42034 0.85099 0.0
H588 H 0.12766 0.44793 0.80581 0.0
H589 H 0.08465 0.38275 0.88126 0.0
H590 H 0.15754 0.38526 0.82396 0.0
H591 H 0.1816 0.38149 0.77749 0.0
H592 H 0.1219 0.29679 0.76578 0.0
H593 H 0.09723 0.30013 0.81193 0.0
C594 C 0.09478 0.30204 0.98185 0.0
C595 C 0.07419 0.27467 0.97786 0.0
C596 C 0.10121 0.31975 0.95679 0.0
C597 C 0.0874 0.3103 0.92727 0.0
C598 C 0.06766 0.28277 0.92276 0.0
C599 C 0.06089 0.26511 0.94798 0.0
C600 C 0.09257 0.32943 0.90157 0.0
C601 C 0.10502 0.32728 0.87401 0.0
C602 C 0.08567 0.35 0.90451 0.0
C603 C 0.07219 0.35295 0.93305 0.0
C604 C 0.04694 0.3314 0.94237 0.0
C605 C 0.03451 0.33426 0.96949 0.0
C606 C 0.04703 0.35866 0.98733 0.0
C607 C 0.07197 0.38029 0.97802 0.0
C608 C 0.08451 0.37752 0.95094 0.0
C609 C 0.09509 0.38544 0.76854 0.0
C610 C 0.10743 0.41378 0.77222 0.0
C611 C 0.09343 0.36976 0.79431 0.0
C612 C 0.1046 0.38208 0.8242 0.0
C613 C 0.11669 0.4104 0.82809 0.0
C614 C 0.11804 0.42613 0.8023 0.0
C615 C 0.10275 0.36514 0.85144 0.0
C616 C 0.09091 0.36765 0.87944 0.0
C617 C 0.11062 0.34515 0.84905 0.0
C618 C 0.12541 0.34301 0.82129 0.0
C619 C 0.14942 0.36587 0.81135 0.0
C620 C 0.16319 0.36381 0.78508 0.0
C621 C 0.15325 0.33893 0.76865 0.0
C622 C 0.12956 0.31605 0.77851 0.0
C623 C 0.11569 0.31801 0.80475 0.0
H624 H 0.16394 0.33737 0.74832 0.0
H625 H 0.03737 0.36084 0.00831 0.0
H626 H 0.69508 0.76864 0.00319 0.0
H627 H 0.65746 0.74248 0.9643 0.0
H628 H 0.71505 0.74473 0.89668 0.0
H629 H 0.75258 0.77022 0.93547 0.0
H630 H 0.67635 0.76399 0.87688 0.0
H631 H 0.68078 0.68933 0.92461 0.0
H632 H 0.67995 0.66202 0.96973 0.0
H633 H 0.59941 0.64587 0.99218 0.0
H634 H 0.59995 0.67345 0.94743 0.0
H635 H 0.59547 0.68335 0.74903 0.0
H636 H 0.62938 0.70184 0.79271 0.0
H637 H 0.5647 0.67177 0.8604 0.0
H638 H 0.53061 0.652 0.81656 0.0
H639 H 0.60505 0.66692 0.88328 0.0
H640 H 0.59803 0.73902 0.83772 0.0
H641 H 0.59703 0.7677 0.79522 0.0
H642 H 0.67962 0.79123 0.77239 0.0
H643 H 0.681 0.76238 0.81447 0.0
C644 C 0.69964 0.76338 0.98006 0.0
C645 C 0.7267 0.77148 0.97223 0.0
C646 C 0.67819 0.74839 0.95805 0.0
C647 C 0.68364 0.74172 0.92784 0.0
C648 C 0.71057 0.74968 0.92 0.0
C649 C 0.73193 0.7642 0.94216 0.0
C650 C 0.66149 0.72773 0.90363 0.0
C651 C 0.6609 0.74269 0.87798 0.0
C652 C 0.64086 0.70031 0.90605 0.0
C653 C 0.64055 0.68373 0.93292 0.0
C654 C 0.66302 0.68021 0.93937 0.0
C655 C 0.66258 0.66462 0.96483 0.0
C656 C 0.63968 0.65229 0.98388 0.0
C657 C 0.61716 0.65547 0.97744 0.0
C658 C 0.61751 0.67107 0.95203 0.0
C659 C 0.58852 0.68044 0.77325 0.0
C660 C 0.5605 0.66653 0.77951 0.0
C661 C 0.60787 0.69112 0.79818 0.0
C662 C 0.59956 0.68886 0.82979 0.0
C663 C 0.57156 0.67391 0.83617 0.0
C664 C 0.55213 0.66267 0.81117 0.0
C665 C 0.62015 0.70302 0.85588 0.0
C666 C 0.6204 0.68823 0.88206 0.0
C667 C 0.6402 0.73087 0.85436 0.0
C668 C 0.63952 0.74835 0.82909 0.0
C669 C 0.61592 0.75017 0.8235 0.0
C670 C 0.61529 0.76647 0.7995 0.0
C671 C 0.63823 0.78123 0.78107 0.0
C672 C 0.66186 0.77976 0.78666 0.0
C673 C 0.66259 0.76346 0.8106 0.0
H674 H 0.6377 0.79384 0.7625 0.0
H675 H 0.63937 0.64021 0.00356 0.0
H676 H 0.32913 0.92135 0.74709 0.0
H677 H 0.30531 0.93609 0.783 0.0
H678 H 0.248 0.92492 0.70709 0.0
H679 H 0.27117 0.90904 0.67136 0.0
H680 H 0.29474 0.97505 0.78682 0.0
H681 H 0.18533 0.90352 0.73769 0.0
H682 H 0.15899 0.86002 0.7074 0.0
H683 H 0.21372 0.83417 0.74233 0.0
H684 H 0.24015 0.87736 0.77309 0.0
H685 H 0.2135 4e-05 0.89177 0.0
H686 H 0.228 -0.00705 0.83963 0.0
H687 H 0.20512 0.91114 0.86388 0.0
H688 H 0.18977 0.91774 0.91522 0.0
H689 H 0.19607 0.91197 0.80343 0.0
H690 H 0.27117 0.96619 0.87837 0.0
H691 H 0.2993 0.00562 0.91449 0.0
H692 H 0.31634 0.05938 0.83714 0.0
H693 H 0.28802 0.02024 0.80065 0.0
C694 C 0.31158 0.92223 0.73799 0.0
C695 C 0.30179 0.91376 0.70658 0.0
C696 C 0.29803 0.93076 0.75849 0.0
C697 C 0.27462 0.93126 0.74788 0.0
C698 C 0.26567 0.92417 0.71599 0.0
C699 C 0.27896 0.91517 0.6956 0.0
C700 C 0.25895 0.93777 0.77087 0.0
C701 C 0.27308 0.9614 0.79019 0.0
C702 C 0.23073 0.9199 0.77547 0.0
C703 C 0.21489 0.89379 0.7573 0.0
C704 C 0.19169 0.88852 0.73892 0.0
C705 C 0.17675 0.86393 0.72168 0.0
C706 C 0.18475 0.84439 0.72284 0.0
C707 C 0.20762 0.84936 0.74135 0.0
C708 C 0.2226 0.87389 0.75866 0.0
C709 C 0.21094 0.98034 0.88561 0.0
C710 C 0.2009 0.95957 0.90775 0.0
C711 C 0.21934 0.97635 0.85589 0.0
C712 C 0.21823 0.95172 0.84816 0.0
C713 C 0.20626 0.93035 0.86932 0.0
C714 C 0.19758 0.9342 0.89878 0.0
C715 C 0.23205 0.94883 0.81993 0.0
C716 C 0.21755 0.92597 0.7995 0.0
C717 C 0.26018 0.96686 0.81506 0.0
C718 C 0.27722 0.99036 0.83692 0.0
C719 C 0.28078 0.98645 0.86914 0.0
C720 C 0.29676 0.00872 0.88966 0.0
C721 C 0.30952 0.03499 0.87814 0.0
C722 C 0.30639 0.03903 0.84604 0.0
C723 C 0.29037 0.01681 0.82544 0.0
H724 H 0.3219 0.05222 0.89406 0.0
H725 H 0.17317 0.82538 0.70946 0.0
H726 H 0.40252 0.0638 0.26303 0.0
H727 H 0.3708 0.0347 0.22038 0.0
H728 H 0.4388 0.0526 0.16063 0.0
H729 H 0.47077 0.08136 0.20353 0.0
H730 H 0.39855 0.06588 0.13683 0.0
H731 H 0.40372 -0.00882 0.17865 0.0
H732 H 0.40317 0.96173 0.22109 0.0
H733 H 0.32032 0.93912 0.24126 0.0
H734 H 0.32049 0.96875 0.19925 0.0
H735 H 0.29692 0.00038 0.01721 0.0
H736 H 0.33741 0.01045 0.04971 0.0
H737 H 0.28702 0.97973 0.13187 0.0
H738 H 0.24646 0.96791 0.09894 0.0
H739 H 0.32532 0.96923 0.13792 0.0
H740 H 0.32255 0.04995 0.11099 0.0
H741 H 0.32102 0.08279 0.07491 0.0
H742 H 0.39625 0.09764 0.03402 0.0
H743 H 0.39804 0.06463 0.06965 0.0
C744 C 0.4107 0.06109 0.24102 0.0
C745 C 0.439 0.07493 0.23638 0.0
C746 C 0.39262 0.04435 0.21683 0.0
C747 C 0.40258 0.04149 0.18755 0.0
C748 C 0.43086 0.05447 0.18323 0.0
C749 C 0.44901 0.07085 0.20768 0.0
C750 C 0.38324 0.02803 0.16044 0.0
C751 C 0.38295 0.04455 0.13644 0.0
C752 C 0.36251 0.00049 0.16085 0.0
C753 C 0.36217 0.9823 0.18584 0.0
C754 C 0.38543 0.98007 0.19225 0.0
C755 C 0.38518 0.96331 0.21622 0.0
C756 C 0.36174 0.94859 0.23389 0.0
C757 C 0.33846 0.95053 0.22755 0.0
C758 C 0.33861 0.96726 0.20361 0.0
C759 C 0.29456 -0.00461 0.0421 0.0
C760 C 0.26877 0.98373 0.05578 0.0
C761 C 0.31765 0.0012 0.06067 0.0
C762 C 0.3154 -0.00347 0.09346 0.0
C763 C 0.28935 0.98357 0.10667 0.0
C764 C 0.26619 0.97696 0.0879 0.0
C765 C 0.34006 0.0073 0.11468 0.0
C766 C 0.34133 0.99036 0.13764 0.0
C767 C 0.36129 0.03479 0.11407 0.0
C768 C 0.36023 0.05458 0.09263 0.0
C769 C 0.33865 0.06009 0.09414 0.0
C770 C 0.33775 0.07874 0.0738 0.0
C771 C 0.35847 0.09221 0.05211 0.0
C772 C 0.38018 0.08712 0.05077 0.0
C773 C 0.38115 0.06846 0.07102 0.0
H774 H 0.35775 0.10665 0.03639 0.0
H775 H 0.36159 0.93566 0.25246 0.0
H776 H 0.06522 0.29652 0.14369 0.0
H777 H 0.05356 0.32469 0.17706 0.0
H778 H 0.9695 0.27772 0.14328 0.0
H779 H 0.98138 0.25047 0.10878 0.0
H780 H 0.98226 0.32715 0.14629 0.0
H781 H -0.0071 0.26884 0.21824 0.0
H782 H 0.01645 0.24752 0.24425 0.0
H783 H 0.08036 0.32574 0.27868 0.0
H784 H 0.05734 0.34756 0.25252 0.0
H785 H 0.93884 0.34988 0.31174 0.0
H786 H 0.95961 0.33004 0.27862 0.0
H787 H -0.00957 0.39864 0.21749 0.0
H788 H 0.96846 0.41807 0.24991 0.0
H789 H 0.00694 0.34098 0.26153 0.0
H790 H -0.0108 0.37802 0.1412 0.0
H791 H 0.95841 0.39213 0.11708 0.0
H792 H 0.89616 0.34387 0.18264 0.0
H793 H 0.92643 0.3292 0.20682 0.0
C794 C 0.04428 0.29228 0.1434 0.0
C795 C 0.02416 0.27126 0.1238 0.0
C796 C 0.03761 0.30831 0.16255 0.0
C797 C 0.01055 0.30311 0.16307 0.0
C798 C -0.00947 0.28221 0.14325 0.0
C799 C -0.0027 0.26656 0.12364 0.0
C800 C 0.00289 0.31915 0.1844 0.0
C801 C -0.01223 0.33025 0.17147 0.0
C802 C 0.00967 0.32289 0.21736 0.0
C803 C 0.02356 0.30985 0.23313 0.0
C804 C 0.01208 0.28151 0.23116 0.0
C805 C 0.02532 0.26934 0.24596 0.0
C806 C 0.04993 0.28528 0.26302 0.0
C807 C 0.06132 0.31343 0.2654 0.0
C808 C 0.04819 0.32571 0.25061 0.0
C809 C 0.95025 0.36092 0.29142 0.0
C810 C 0.95173 0.38537 0.28315 0.0
C811 C 0.96223 0.34957 0.27254 0.0
C812 C 0.97619 0.36259 0.24522 0.0
C813 C 0.9792 0.38791 0.23805 0.0
C814 C 0.96678 0.39906 0.25665 0.0
C815 C -0.01396 0.34869 0.22348 0.0
C816 C 0.0017 0.33812 0.23628 0.0
C817 C 0.9787 0.34437 0.19066 0.0
C818 C 0.96022 0.35282 0.17605 0.0
C819 C 0.96892 0.37038 0.15039 0.0
C820 C 0.95155 0.37847 0.13672 0.0
C821 C 0.92539 0.36898 0.1484 0.0
C822 C 0.91647 0.35129 0.17369 0.0
C823 C 0.93373 0.34309 0.18739 0.0
H824 H 0.912 0.3753 0.13781 0.0
H825 H 0.06015 0.27582 0.27447 0.0
H826 H 0.62078 0.58862 0.24502 0.0
H827 H 0.64709 0.63123 0.21758 0.0
H828 H 0.70809 0.66186 0.29373 0.0
H829 H 0.68178 0.61951 0.32153 0.0
H830 H 0.70054 0.70214 0.26957 0.0
H831 H 0.71817 0.63282 0.23188 0.0
H832 H 0.70577 0.58718 0.21113 0.0
H833 H 0.66868 0.5989 0.12773 0.0
H834 H 0.68046 0.64447 0.14826 0.0
H835 H 0.79896 0.76161 0.12427 0.0
H836 H 0.77773 0.72952 0.16666 0.0
H837 H 0.7203 0.75755 0.17986 0.0
H838 H 0.74214 0.79037 0.13821 0.0
H839 H 0.7292 0.68879 0.16301 0.0
H840 H 0.6932 0.74242 0.25333 0.0
H841 H 0.70978 0.78811 0.2772 0.0
H842 H 0.7927 0.80921 0.26001 0.0
H843 H 0.77666 0.76354 0.23644 0.0
C844 C 0.63951 0.60462 0.25621 0.0
C845 C 0.64945 0.60057 0.28516 0.0
C846 C 0.65452 0.62892 0.24051 0.0
C847 C 0.67971 0.64947 0.25344 0.0
C848 C 0.68872 0.64622 0.28336 0.0
C849 C 0.67373 0.62193 0.29909 0.0
C850 C 0.69793 0.67297 0.2343 0.0
C851 C 0.7068 0.69935 0.24621 0.0
C852 C 0.7068 0.66921 0.20438 0.0
C853 C 0.69996 0.64195 0.19175 0.0
C854 C 0.70719 0.62559 0.20921 0.0
C855 C 0.7003 0.59974 0.19749 0.0
C856 C 0.68639 0.59012 0.16816 0.0
C857 C 0.67942 0.60636 0.15046 0.0
C858 C 0.6862 0.63221 0.16212 0.0
C859 C 0.78223 0.76137 0.13675 0.0
C860 C 0.77205 0.77832 0.12783 0.0
C861 C 0.77007 0.74299 0.16091 0.0
C862 C 0.74734 0.74101 0.17639 0.0
C863 C 0.73804 0.75893 0.16862 0.0
C864 C 0.75048 0.77764 0.14472 0.0
C865 C 0.7316 0.71828 0.19785 0.0
C866 C 0.7231 0.69184 0.18635 0.0
C867 C 0.7238 0.72214 0.22848 0.0
C868 C 0.73368 0.74962 0.24283 0.0
C869 C 0.71497 0.75677 0.25475 0.0
C870 C 0.72428 0.78268 0.26821 0.0
C871 C 0.75227 0.80158 0.27003 0.0
C872 C 0.77102 0.79459 0.25847 0.0
C873 C 0.76182 0.76871 0.245 0.0
H874 H 0.75943 0.82162 0.28045 0.0
H875 H 0.68107 0.5701 0.15911 0.0
H876 H 0.04049 0.41703 0.60472 0.0
H877 H 0.0104 0.42203 0.56685 0.0
H878 H 0.00042 0.47427 0.63417 0.0
H879 H 0.03049 0.4692 0.67259 0.0
H880 H 0.95194 0.43876 0.5969 0.0
H881 H 0.04423 0.50557 0.58351 0.0
H882 H 0.09377 0.52291 0.58049 0.0
H883 H 0.08001 0.47328 0.49635 0.0
H884 H 0.03031 0.45521 0.49923 0.0
H885 H 0.94885 0.47835 0.41614 0.0
H886 H 0.96862 0.49121 0.47025 0.0
H887 H 0.91698 0.40854 0.49838 0.0
H888 H 0.89658 0.39597 0.4452 0.0
H889 H -0.00147 0.47531 0.49557 0.0
H890 H 0.90745 0.40099 0.57447 0.0
H891 H 0.85863 0.3861 0.57993 0.0
H892 H 0.87073 0.45843 0.53578 0.0
H893 H 0.91973 0.474 0.53048 0.0
C894 C 0.03148 0.42914 0.61178 0.0
C895 C 0.03818 0.44306 0.6414 0.0
C896 C 0.01434 0.43201 0.59011 0.0
C897 C 0.00373 0.44895 0.5976 0.0
C898 C 0.0086 0.46124 0.62801 0.0
C899 C 0.02578 0.45833 0.64984 0.0
C900 C -0.01019 0.45549 0.57231 0.0
C901 C 0.962 0.44699 0.57476 0.0
C902 C 0.0035 0.46754 0.5442 0.0
C903 C 0.03349 0.47896 0.54166 0.0
C904 C 0.05175 0.49826 0.56443 0.0
C905 C 0.07986 0.50821 0.56276 0.0
C906 C 0.09003 0.49919 0.53825 0.0
C907 C 0.0721 0.48026 0.51531 0.0
C908 C 0.04395 0.47018 0.51693 0.0
C909 C 0.94125 0.46314 0.43416 0.0
C910 C 0.92138 0.43611 0.42638 0.0
C911 C 0.95254 0.4705 0.46505 0.0
C912 C 0.9442 0.45092 0.48855 0.0
C913 C 0.92335 0.42424 0.48106 0.0
C914 C 0.91187 0.41698 0.45041 0.0
C915 C 0.95989 0.45686 0.51911 0.0
C916 C -0.01169 0.46781 0.5178 0.0
C917 C 0.94681 0.44778 0.54848 0.0
C918 C 0.91734 0.43865 0.552 0.0
C919 C 0.89979 0.41386 0.56616 0.0
C920 C 0.87204 0.40526 0.56916 0.0
C921 C 0.86158 0.42129 0.55818 0.0
C922 C 0.87885 0.44599 0.54421 0.0
C923 C 0.90661 0.4547 0.54116 0.0
H924 H 0.84008 0.41459 0.56051 0.0
H925 H 0.1118 0.50688 0.53703 0.0
H926 H 0.54283 0.51595 0.39217 0.0
H927 H 0.5286 0.52902 0.44058 0.0
H928 H 0.60069 0.53975 0.49064 0.0
H929 H 0.61546 0.52726 0.44195 0.0
H930 H 0.51686 0.51314 0.50003 0.0
H931 H 0.62606 0.59702 0.53776 0.0
H932 H 0.67092 0.62553 0.51384 0.0
H933 H 0.63116 0.6194 0.42375 0.0
H934 H 0.5861 0.59118 0.44725 0.0
H935 H 0.51264 0.57137 0.64895 0.0
H936 H 0.52473 0.55068 0.60552 0.0
H937 H 0.54505 0.61988 0.54814 0.0
H938 H 0.53361 0.64105 0.59186 0.0
H939 H 0.58258 0.60565 0.54315 0.0
H940 H 0.4846 0.55961 0.53622 0.0
H941 H 0.43787 0.53337 0.55628 0.0
H942 H 0.45148 0.46767 0.57767 0.0
H943 H 0.49845 0.49369 0.55813 0.0
C944 C 0.55546 0.52063 0.4136 0.0
C945 C 0.58048 0.52098 0.41315 0.0
C946 C 0.54722 0.52801 0.44129 0.0
C947 C 0.56384 0.53584 0.46901 0.0
C948 C 0.58782 0.53423 0.4693 0.0
C949 C 0.59617 0.52699 0.44152 0.0
C950 C 0.55719 0.54794 0.49645 0.0
C951 C 0.53128 0.53326 0.50966 0.0
C952 C 0.5758 0.57447 0.50847 0.0
C953 C 0.60276 0.59174 0.49419 0.0
C954 C 0.62692 0.60184 0.51288 0.0
C955 C 0.65237 0.61794 0.49939 0.0
C956 C 0.65389 0.62419 0.46726 0.0
C957 C 0.62996 0.61446 0.44859 0.0
C958 C 0.60447 0.59839 0.46198 0.0
C959 C 0.51966 0.58219 0.62708 0.0
C960 C 0.52209 0.6078 0.62374 0.0
C961 C 0.52647 0.57028 0.60225 0.0
C962 C 0.53547 0.58359 0.57348 0.0
C963 C 0.53813 0.60927 0.57017 0.0
C964 C 0.53151 0.62129 0.5951 0.0
C965 C 0.54226 0.57081 0.54687 0.0
C966 C 0.56823 0.58538 0.53381 0.0
C967 C 0.52343 0.54449 0.53446 0.0
C968 C 0.49513 0.52871 0.54601 0.0
C969 C 0.4777 0.53964 0.54542 0.0
C970 C 0.45116 0.5248 0.55666 0.0
C971 C 0.44174 0.4989 0.56833 0.0
C972 C 0.45882 0.48775 0.56867 0.0
C973 C 0.48539 0.50253 0.55749 0.0
H974 H 0.42119 0.48744 0.57704 0.0
H975 H 0.67361 0.63662 0.45686 0.0
H976 H 0.41182 0.93913 0.57714 0.0
H977 H 0.43081 0.97535 0.53901 0.0
H978 H 0.34929 0.95652 0.51077 0.0
H979 H 0.33011 0.91931 0.5481 0.0
H980 H 0.37984 0.97076 0.46106 0.0
H981 H 0.38931 0.00927 0.56492 0.0
H982 H 0.40188 0.01739 0.6221 0.0
H983 H 0.48648 0.05002 0.60051 0.0
H984 H 0.47437 0.04173 0.54319 0.0
H985 H 0.43057 0.09995 0.39168 0.0
H986 H 0.40826 0.06604 0.43233 0.0
H987 H 0.48158 0.06148 0.4456 0.0
H988 H 0.50383 0.09489 0.40447 0.0
H989 H 0.45186 0.06097 0.50403 0.0
H990 H 0.43877 0.01789 0.39864 0.0
H991 H 0.42407 0.01122 0.34209 0.0
H992 H 0.34262 0.98919 0.36856 0.0
H993 H 0.35699 -0.00382 0.42531 0.0
C994 C 0.39794 0.94241 0.56239 0.0
C995 C 0.36953 0.92661 0.56569 0.0
C996 C 0.4088 0.96326 0.54081 0.0
C997 C 0.39151 0.96924 0.52277 0.0
C998 C 0.36303 0.95245 0.52468 0.0
C999 C 0.3521 0.93117 0.54591 0.0
C1000 C 0.40332 -0.00644 0.50288 0.0
C1001 C 0.39525 -0.00946 0.47065 0.0
C1002 C 0.42345 0.01947 0.5153 0.0
C1003 C 0.43089 0.02467 0.54976 0.0
C1004 C 0.41057 0.01802 0.57237 0.0
C1005 C 0.41762 0.02267 0.60481 0.0
C1006 C 0.44495 0.03416 0.61494 0.0
C1007 C 0.46531 0.0411 0.59263 0.0
C1008 C 0.45837 0.03645 0.56016 0.0
C1009 C 0.44217 0.09223 0.40383 0.0
C1010 C 0.46888 0.09991 0.39486 0.0
C1011 C 0.42935 0.0728 0.42689 0.0
C1012 C 0.44326 0.06118 0.44161 0.0
C1013 C 0.47058 0.07027 0.43439 0.0
C1014 C 0.48323 0.0893 0.41093 0.0
C1015 C 0.42871 0.03788 0.4624 0.0
C1016 C 0.43624 0.04117 0.49472 0.0
C1017 C 0.40773 0.0124 0.45024 0.0
C1018 C 0.39903 0.00787 0.41617 0.0
C1019 C 0.4178 0.01186 0.39239 0.0
C1020 C 0.40951 0.00798 0.3603 0.0
C1021 C 0.38244 -0.00013 0.35173 0.0
C1022 C 0.36359 -0.00447 0.37524 0.0
C1023 C 0.37179 -0.00056 0.40735 0.0
H1024 H 0.37607 -0.00313 0.32688 0.0
H1025 H 0.45037 0.03775 0.64006 0.0
loop_
_geom_bond_atom_site_label_1
_geom_bond_atom_site_label_2
_geom_bond_distance
_geom_bond_site_symmetry_2
_ccdc_geom_bond_type
C0 O1 1.306 . S
C0 O3 1.160 . S
O1 C0 1.306 . S
O1 Cd2 2.228 . S
Cd2 O1 2.228 . S
Cd2 O6 2.273 . S
Cd2 O10 2.277 1_455 S
O3 C0 1.160 . S
O3 Cd4 2.203 . S
Cd4 O3 2.203 . S
Cd4 O6 2.411 . S
Cd4 O7 2.333 1_455 S
Cd4 O8 2.352 1_554 S
Cd4 O12 2.277 1_454 S
Cd4 O13 2.356 1_554 S
C5 O10 1.209 . S
C5 O12 1.226 1_554 S
O6 Cd2 2.273 . S
O6 Cd4 2.411 . S
O6 C9 1.320 1_455 S
O7 Cd4 2.333 1_655 S
O7 C9 1.214 . S
O8 Cd4 2.352 1_556 S
O8 C11 1.258 . S
C9 O6 1.320 1_655 S
C9 O7 1.214 . S
O10 Cd2 2.277 1_655 S
O10 C5 1.209 . S
C11 O8 1.258 . S
C11 O13 1.282 . S
O12 Cd4 2.277 1_656 S
O12 C5 1.226 1_556 S
O13 Cd4 2.356 1_556 S
O13 C11 1.282 . S
C14 O15 1.306 1_554 S
C14 O17 1.160 . S
O15 C14 1.306 1_556 S
O15 Cd16 2.228 . S
Cd16 O15 2.228 . S
Cd16 O20 2.273 . S
Cd16 O24 2.272 1_556 S
O17 C14 1.160 . S
O17 Cd18 2.203 . S
Cd18 O17 2.203 . S
Cd18 O20 2.411 1_554 S
Cd18 O21 2.333 . S
Cd18 O22 2.352 . S
Cd18 O26 2.277 . S
Cd18 O27 2.356 . S
C19 O24 1.214 . S
C19 O26 1.226 . S
O20 Cd16 2.273 . S
O20 Cd18 2.411 1_556 S
O20 C23 1.320 . S
O21 Cd18 2.333 . S
O21 C23 1.214 1_554 S
O22 Cd18 2.352 . S
O22 C25 1.258 . S
C23 O20 1.320 . S
C23 O21 1.214 1_556 S
O24 Cd16 2.272 1_554 S
O24 C19 1.214 . S
C25 O22 1.258 . S
C25 O27 1.282 . S
O26 Cd18 2.277 . S
O26 C19 1.226 . S
O27 Cd18 2.356 . S
O27 C25 1.282 . S
C28 O29 1.306 . S
C28 O31 1.160 1_554 S
O29 C28 1.306 . S
O29 Cd30 2.228 1_565 S
Cd30 O29 2.228 1_545 S
Cd30 O34 2.273 . S
Cd30 O38 2.277 . S
O31 C28 1.160 1_556 S
O31 Cd32 2.203 1_566 S
Cd32 O31 2.203 1_544 S
Cd32 O34 2.411 . S
Cd32 O35 2.333 . S
Cd32 O36 2.352 1_544 S
Cd32 O40 2.277 1_554 S
Cd32 O41 2.356 1_554 S
C33 O38 1.209 . S
C33 O40 1.226 1_554 S
O34 Cd30 2.273 . S
O34 Cd32 2.411 . S
O34 C37 1.320 . S
O35 Cd32 2.333 . S
O35 C37 1.214 . S
O36 Cd32 2.352 1_566 S
O36 C39 1.258 . S
C37 O34 1.320 . S
C37 O35 1.214 . S
O38 Cd30 2.277 . S
O38 C33 1.209 . S
C39 O36 1.258 . S
C39 O41 1.282 1_565 S
O40 Cd32 2.277 1_556 S
O40 C33 1.226 1_556 S
O41 Cd32 2.356 1_556 S
O41 C39 1.282 1_545 S
C42 O43 1.306 . S
C42 O45 1.160 . S
O43 C42 1.306 . S
O43 Cd44 2.228 . S
Cd44 O43 2.228 . S
Cd44 O48 2.273 . S
Cd44 O52 2.277 . S
O45 C42 1.160 . S
O45 Cd46 2.203 . S
Cd46 O45 2.203 . S
Cd46 O48 2.411 . S
Cd46 O49 2.333 . S
Cd46 O50 2.352 . S
Cd46 O54 2.277 . S
Cd46 O55 2.356 . S
C47 O52 1.209 . S
C47 O54 1.226 . S
O48 Cd44 2.273 . S
O48 Cd46 2.411 . S
O48 C51 1.320 . S
O49 Cd46 2.333 . S
O49 C51 1.214 . S
O50 Cd46 2.352 . S
O50 C53 1.258 . S
C51 O48 1.320 . S
C51 O49 1.214 . S
O52 Cd44 2.277 . S
O52 C47 1.209 . S
C53 O50 1.258 . S
C53 O55 1.282 . S
O54 Cd46 2.277 . S
O54 C47 1.226 . S
O55 Cd46 2.356 . S
O55 C53 1.282 . S
C56 O57 1.306 . S
C56 O59 1.160 . S
O57 C56 1.306 . S
O57 Cd58 2.228 . S
Cd58 O57 2.228 . S
Cd58 O62 2.273 . S
Cd58 O66 2.277 . S
O59 C56 1.160 . S
O59 Cd60 2.203 . S
Cd60 O59 2.203 . S
Cd60 O62 2.411 . S
Cd60 O63 2.333 . S
Cd60 O64 2.352 . S
Cd60 O68 2.277 . S
Cd60 O69 2.356 . S
C61 O66 1.209 . S
C61 O68 1.226 . S
O62 Cd58 2.273 . S
O62 Cd60 2.411 . S
O62 C65 1.320 . S
O63 Cd60 2.333 . S
O63 C65 1.214 . S
O64 Cd60 2.352 . S
O64 C67 1.258 . S
C65 O62 1.320 . S
C65 O63 1.214 . S
O66 Cd58 2.277 . S
O66 C61 1.209 . S
C67 O64 1.258 . S
C67 O69 1.282 . S
O68 Cd60 2.277 . S
O68 C61 1.226 . S
O69 Cd60 2.356 . S
O69 C67 1.282 . S
C70 O71 1.306 . S
C70 O73 1.160 . S
O71 C70 1.306 . S
O71 Cd72 2.228 . S
Cd72 O71 2.228 . S
Cd72 O76 2.273 . S
Cd72 O80 2.277 . S
O73 C70 1.160 . S
O73 Cd74 2.203 . S
Cd74 O73 2.203 . S
Cd74 O76 2.411 . S
Cd74 O77 2.333 . S
Cd74 O78 2.352 . S
Cd74 O82 2.277 . S
Cd74 O83 2.356 . S
C75 O80 1.209 . S
C75 O82 1.226 . S
O76 Cd72 2.273 . S
O76 Cd74 2.411 . S
O76 C79 1.320 . S
O77 Cd74 2.333 . S
O77 C79 1.214 . S
O78 Cd74 2.352 . S
O78 C81 1.258 . S
C79 O76 1.320 . S
C79 O77 1.214 . S
O80 Cd72 2.277 . S
O80 C75 1.209 . S
C81 O78 1.258 . S
C81 O83 1.282 . S
O82 Cd74 2.277 . S
O82 C75 1.226 . S
O83 Cd74 2.356 . S
O83 C81 1.282 . S
C84 O85 1.306 . S
C84 O87 1.160 . S
O85 C84 1.306 . S
O85 Cd86 2.228 . S
Cd86 O85 2.228 . S
Cd86 O90 2.273 . S
Cd86 O94 2.277 . S
O87 C84 1.160 . S
O87 Cd88 2.203 . S
Cd88 O87 2.203 . S
Cd88 O90 2.411 . S
Cd88 O91 2.333 . S
Cd88 O92 2.352 . S
Cd88 O96 2.277 . S
Cd88 O97 2.356 . S
C89 O94 1.209 . S
C89 O96 1.226 . S
O90 Cd86 2.273 . S
O90 Cd88 2.411 . S
O90 C93 1.320 . S
O91 Cd88 2.333 . S
O91 C93 1.214 . S
O92 Cd88 2.352 . S
O92 C95 1.258 . S
C93 O90 1.320 . S
C93 O91 1.214 . S
O94 Cd86 2.277 . S
O94 C89 1.209 . S
C95 O92 1.258 . S
C95 O97 1.282 . S
O96 Cd88 2.277 . S
O96 C89 1.226 . S
O97 Cd88 2.356 . S
O97 C95 1.282 . S
C98 O99 1.306 . S
C98 O101 1.160 . S
O99 C98 1.306 . S
O99 Cd100 2.228 . S
Cd100 O99 2.228 . S
Cd100 O104 2.273 . S
Cd100 O108 2.277 . S
O101 C98 1.160 . S
O101 Cd102 2.203 . S
Cd102 O101 2.203 . S
Cd102 O104 2.411 . S
Cd102 O105 2.333 . S
Cd102 O106 2.352 . S
Cd102 O110 2.277 . S
Cd102 O111 2.356 . S
C103 O108 1.209 . S
C103 O110 1.226 . S
O104 Cd100 2.273 . S
O104 Cd102 2.411 . S
O104 C107 1.320 . S
O105 Cd102 2.333 . S
O105 C107 1.214 . S
O106 Cd102 2.352 . S
O106 C109 1.258 . S
C107 O104 1.320 . S
C107 O105 1.214 . S
O108 Cd100 2.277 . S
O108 C103 1.209 . S
C109 O106 1.258 . S
C109 O111 1.282 . S
O110 Cd102 2.277 . S
O110 C103 1.226 . S
O111 Cd102 2.356 . S
O111 C109 1.282 . S
C112 O113 1.306 . S
C112 O115 1.160 . S
O113 C112 1.306 . S
O113 Cd114 2.228 . S
Cd114 O113 2.228 . S
Cd114 O118 2.273 . S
Cd114 O122 2.277 . S
O115 C112 1.160 . S
O115 Cd116 2.203 . S
Cd116 O115 2.203 . S
Cd116 O118 2.411 . S
Cd116 O119 2.333 . S
Cd116 O120 2.352 . S
Cd116 O124 2.277 . S
Cd116 O125 2.356 . S
C117 O122 1.209 . S
C117 O124 1.226 . S
O118 Cd114 2.273 . S
O118 Cd116 2.411 . S
O118 C121 1.320 . S
O119 Cd116 2.333 . S
O119 C121 1.214 . S
O120 Cd116 2.352 . S
O120 C123 1.258 . S
C121 O118 1.320 . S
C121 O119 1.214 . S
O122 Cd114 2.277 . S
O122 C117 1.209 . S
C123 O120 1.258 . S
C123 O125 1.282 . S
O124 Cd116 2.277 . S
O124 C117 1.226 . S
O125 Cd116 2.356 . S
O125 C123 1.282 . S
H126 C144 0.951 . S
H127 C146 0.951 . S
H128 C148 0.950 . S
H129 C149 0.950 . S
H130 C151 0.950 . S
H131 C154 0.950 . S
H132 C155 0.950 . S
H133 C157 0.950 . S
H134 C158 0.950 . S
H135 C159 0.951 . S
H136 C161 0.951 . S
H137 C163 0.950 . S
H138 C164 0.950 . S
H139 C166 0.950 . S
H140 C169 0.950 . S
H141 C170 0.950 . S
H142 C172 0.950 . S
H143 C173 0.950 . S
C144 H126 0.951 . S
C144 C145 1.366 . S
C144 C146 1.388 . S
C145 C144 1.366 . S
C145 C149 1.385 . S
C146 H127 0.951 . S
C146 C144 1.388 . S
C146 C147 1.366 . S
C147 C146 1.366 . S
C147 C148 1.414 . S
C147 C150 1.499 . S
C148 H128 0.950 . S
C148 C147 1.414 . S
C148 C149 1.374 . S
C149 H129 0.950 . S
C149 C145 1.385 . S
C149 C148 1.374 . S
C150 C147 1.499 . S
C150 C151 1.373 . S
C150 C152 1.389 1_554 S
C151 H130 0.950 . S
C151 C150 1.373 . S
C151 C167 1.377 . S
C152 C150 1.389 1_556 S
C152 C153 1.524 . S
C152 C166 1.377 . S
C153 C152 1.524 . S
C153 C154 1.397 . S
C153 C158 1.363 . S
C154 H131 0.950 . S
C154 C153 1.397 . S
C154 C155 1.334 . S
C155 H132 0.950 . S
C155 C154 1.334 . S
C155 C156 1.287 . S
C156 C155 1.287 . S
C156 C157 1.524 . S
C156 H175 0.913 . S
C157 H133 0.950 . S
C157 C156 1.524 . S
C157 C158 1.415 . S
C158 H134 0.950 . S
C158 C153 1.363 . S
C158 C157 1.415 . S
C159 H135 0.951 . S
C159 C160 1.366 . S
C159 C161 1.388 . S
C160 C159 1.366 . S
C160 C164 1.385 . S
C161 H136 0.951 . S
C161 C159 1.388 . S
C161 C162 1.366 . S
C162 C161 1.366 . S
C162 C163 1.414 . S
C162 C165 1.499 . S
C163 H137 0.950 . S
C163 C162 1.414 . S
C163 C164 1.374 . S
C164 H138 0.950 . S
C164 C160 1.385 . S
C164 C163 1.374 . S
C165 C162 1.499 . S
C165 C166 1.373 1_554 S
C165 C167 1.389 . S
C166 H139 0.950 . S
C166 C152 1.377 . S
C166 C165 1.373 1_556 S
C167 C151 1.377 . S
C167 C165 1.389 . S
C167 C168 1.524 . S
C168 C167 1.524 . S
C168 C169 1.397 . S
C168 C173 1.363 . S
C169 H140 0.950 . S
C169 C168 1.397 . S
C169 C170 1.334 . S
C170 H141 0.950 . S
C170 C169 1.334 . S
C170 C171 1.287 . S
C171 C170 1.287 . S
C171 C172 1.524 . S
C171 H174 0.999 . S
C172 H142 0.950 . S
C172 C171 1.524 . S
C172 C173 1.415 . S
C173 H143 0.950 . S
C173 C168 1.363 . S
C173 C172 1.415 . S
H174 C171 0.999 . S
H175 C156 0.913 . S
H176 C194 0.951 . S
H177 C196 0.951 . S
H178 C198 0.950 . S
H179 C199 0.950 . S
H180 C201 0.989 . S
H181 C204 0.963 . S
H182 C205 0.950 . S
H183 C207 0.950 . S
H184 C208 0.950 1_545 S
H185 C209 0.951 . S
H186 C211 0.951 . S
H187 C213 0.950 . S
H188 C214 0.950 . S
H189 C216 0.950 . S
H190 C219 0.950 . S
H191 C220 0.950 . S
H192 C222 0.950 . S
H193 C223 0.950 . S
C194 H176 0.951 . S
C194 C195 1.366 . S
C194 C196 1.388 . S
C195 C194 1.366 . S
C195 C199 1.385 1_554 S
C196 H177 0.951 . S
C196 C194 1.388 . S
C196 C197 1.366 . S
C197 C196 1.366 . S
C197 C198 1.414 1_554 S
C197 C200 1.499 . S
C198 H178 0.950 . S
C198 C197 1.414 1_556 S
C198 C199 1.374 . S
C199 H179 0.950 . S
C199 C195 1.385 1_556 S
C199 C198 1.374 . S
C200 C197 1.499 . S
C200 C201 1.375 . S
C200 C202 1.389 1_565 S
C201 H180 0.989 . S
C201 C200 1.375 . S
C201 C217 1.338 1_565 S
C202 C200 1.389 1_545 S
C202 C203 1.524 1_545 S
C202 C216 1.377 . S
C203 C202 1.524 1_565 S
C203 C204 1.397 . S
C203 C208 1.363 . S
C204 H181 0.963 . S
C204 C203 1.397 . S
C204 C205 1.334 . S
C205 H182 0.950 . S
C205 C204 1.334 . S
C205 C206 1.287 . S
C206 C205 1.287 . S
C206 C207 1.524 . S
C206 H225 0.913 . S
C207 H183 0.950 . S
C207 C206 1.524 . S
C207 C208 1.415 . S
C208 H184 0.950 1_565 S
C208 C203 1.363 . S
C208 C207 1.415 . S
C209 H185 0.951 . S
C209 C210 1.366 1_556 S
C209 C211 1.388 . S
C210 C209 1.366 1_554 S
C210 C214 1.385 . S
C211 H186 0.951 . S
C211 C209 1.388 . S
C211 C212 1.366 1_556 S
C212 C211 1.366 1_554 S
C212 C213 1.414 . S
C212 C215 1.499 . S
C213 H187 0.950 . S
C213 C212 1.414 . S
C213 C214 1.374 . S
C214 H188 0.950 . S
C214 C210 1.385 . S
C214 C213 1.374 . S
C215 C212 1.499 . S
C215 C216 1.373 . S
C215 C217 1.389 . S
C216 H189 0.950 . S
C216 C202 1.377 . S
C216 C215 1.373 . S
C217 C201 1.338 1_545 S
C217 C215 1.389 . S
C217 C218 1.524 . S
C218 C217 1.524 . S
C218 C219 1.397 . S
C218 C223 1.363 1_554 S
C219 H190 0.950 . S
C219 C218 1.397 . S
C219 C220 1.334 1_655 S
C220 H191 0.950 . S
C220 C219 1.334 1_455 S
C220 C221 1.287 1_554 S
C221 C220 1.287 1_556 S
C221 C222 1.524 1_455 S
C221 H224 0.999 . S
C222 H192 0.950 . S
C222 C221 1.524 1_655 S
C222 C223 1.415 . S
C223 H193 0.950 . S
C223 C218 1.363 1_556 S
C223 C222 1.415 . S
H224 C221 0.999 . S
H225 C206 0.913 . S
H226 C244 0.951 . S
H227 C246 0.951 . S
H228 C248 0.950 . S
H229 C249 0.950 . S
H230 C251 0.961 . S
H231 C254 0.950 . S
H232 C255 0.950 1_554 S
H233 C257 0.950 . S
H234 C258 0.950 1_455 S
H235 C259 0.951 . S
H236 C261 0.951 . S
H237 C263 0.950 . S
H238 C264 0.950 . S
H239 C266 0.950 1_556 S
H240 C269 0.950 . S
H241 C270 0.950 . S
H242 C272 0.950 . S
H243 C273 0.950 . S
C244 H226 0.951 . S
C244 C245 1.366 1_556 S
C244 C246 1.388 . S
C245 C244 1.366 1_554 S
C245 C249 1.385 . S
C246 H227 0.951 . S
C246 C244 1.388 . S
C246 C247 1.366 1_556 S
C247 C246 1.366 1_554 S
C247 C248 1.414 . S
C247 C250 1.499 . S
C248 H228 0.950 . S
C248 C247 1.414 . S
C248 C249 1.374 . S
C249 H229 0.950 . S
C249 C245 1.385 . S
C249 C248 1.374 . S
C250 C247 1.499 . S
C250 C251 1.374 . S
C250 C252 1.371 1_655 S
C251 H230 0.961 . S
C251 C250 1.374 . S
C251 C267 1.365 1_655 S
C252 C250 1.371 1_455 S
C252 C253 1.525 1_454 S
C252 C266 1.396 . S
C253 C252 1.525 1_656 S
C253 C254 1.397 1_556 S
C253 C258 1.363 . S
C254 H231 0.950 . S
C254 C253 1.397 1_554 S
C254 C255 1.334 1_554 S
C255 H232 0.950 1_556 S
C255 C254 1.334 1_556 S
C255 C256 1.287 . S
C256 C255 1.287 . S
C256 C257 1.524 . S
C256 H275 0.913 . S
C257 H233 0.950 . S
C257 C256 1.524 . S
C257 C258 1.415 . S
C258 H234 0.950 1_655 S
C258 C253 1.363 . S
C258 C257 1.415 . S
C259 H235 0.951 . S
C259 C260 1.366 . S
C259 C261 1.388 . S
C260 C259 1.366 . S
C260 C264 1.385 1_554 S
C261 H236 0.951 . S
C261 C259 1.388 . S
C261 C262 1.366 . S
C262 C261 1.366 . S
C262 C263 1.414 1_554 S
C262 C265 1.499 . S
C263 H237 0.950 . S
C263 C262 1.414 1_556 S
C263 C264 1.374 . S
C264 H238 0.950 . S
C264 C260 1.385 1_556 S
C264 C263 1.374 . S
C265 C262 1.499 . S
C265 C266 1.373 . S
C265 C267 1.389 . S
C266 H239 0.950 1_554 S
C266 C252 1.396 . S
C266 C265 1.373 . S
C267 C251 1.365 1_455 S
C267 C265 1.389 . S
C267 C268 1.524 . S
C268 C267 1.524 . S
C268 C269 1.397 . S
C268 C273 1.363 . S
C269 H240 0.950 . S
C269 C268 1.397 . S
C269 C270 1.334 1_565 S
C270 H241 0.950 . S
C270 C269 1.334 1_545 S
C270 C271 1.287 . S
C271 C270 1.287 . S
C271 C272 1.524 1_545 S
C271 H274 0.999 . S
C272 H242 0.950 . S
C272 C271 1.524 1_565 S
C272 C273 1.415 . S
C273 H243 0.950 . S
C273 C268 1.363 . S
C273 C272 1.415 . S
H274 C271 0.999 . S
H275 C256 0.913 . S
H276 C294 0.951 . S
H277 C296 0.951 . S
H278 C298 0.950 . S
H279 C299 0.950 . S
H280 C301 0.950 . S
H281 C304 0.950 . S
H282 C305 0.950 . S
H283 C307 0.950 . S
H284 C308 0.950 . S
H285 C309 0.951 . S
H286 C311 0.951 . S
H287 C313 0.950 . S
H288 C314 0.950 . S
H289 C316 0.950 . S
H290 C319 0.950 . S
H291 C320 0.950 . S
H292 C322 0.950 . S
H293 C323 0.950 . S
C294 H276 0.951 . S
C294 C295 1.366 . S
C294 C296 1.388 . S
C295 C294 1.366 . S
C295 C299 1.385 . S
C296 H277 0.951 . S
C296 C294 1.388 . S
C296 C297 1.366 . S
C297 C296 1.366 . S
C297 C298 1.414 . S
C297 C300 1.499 . S
C298 H278 0.950 . S
C298 C297 1.414 . S
C298 C299 1.374 . S
C299 H279 0.950 . S
C299 C295 1.385 . S
C299 C298 1.374 . S
C300 C297 1.499 . S
C300 C301 1.373 . S
C300 C302 1.389 . S
C301 H280 0.950 . S
C301 C300 1.373 . S
C301 C317 1.377 . S
C302 C300 1.389 . S
C302 C303 1.524 . S
C302 C316 1.377 . S
C303 C302 1.524 . S
C303 C304 1.397 . S
C303 C308 1.363 . S
C304 H281 0.950 . S
C304 C303 1.397 . S
C304 C305 1.334 . S
C305 H282 0.950 . S
C305 C304 1.334 . S
C305 C306 1.287 . S
C306 C305 1.287 . S
C306 C307 1.524 . S
C306 H325 0.913 . S
C307 H283 0.950 . S
C307 C306 1.524 . S
C307 C308 1.415 . S
C308 H284 0.950 . S
C308 C303 1.363 . S
C308 C307 1.415 . S
C309 H285 0.951 . S
C309 C310 1.366 . S
C309 C311 1.388 . S
C310 C309 1.366 . S
C310 C314 1.385 . S
C311 H286 0.951 . S
C311 C309 1.388 . S
C311 C312 1.366 . S
C312 C311 1.366 . S
C312 C313 1.414 . S
C312 C315 1.499 . S
C313 H287 0.950 . S
C313 C312 1.414 . S
C313 C314 1.374 . S
C314 H288 0.950 . S
C314 C310 1.385 . S
C314 C313 1.374 . S
C315 C312 1.499 . S
C315 C316 1.373 . S
C315 C317 1.389 . S
C316 H289 0.950 . S
C316 C302 1.377 . S
C316 C315 1.373 . S
C317 C301 1.377 . S
C317 C315 1.389 . S
C317 C318 1.524 . S
C318 C317 1.524 . S
C318 C319 1.397 . S
C318 C323 1.363 . S
C319 H290 0.950 . S
C319 C318 1.397 . S
C319 C320 1.334 . S
C320 H291 0.950 . S
C320 C319 1.334 . S
C320 C321 1.287 . S
C321 C320 1.287 . S
C321 C322 1.524 . S
C321 H324 0.999 . S
C322 H292 0.950 . S
C322 C321 1.524 . S
C322 C323 1.415 . S
C323 H293 0.950 . S
C323 C318 1.363 . S
C323 C322 1.415 . S
H324 C321 0.999 . S
H325 C306 0.913 . S
H326 C344 0.951 . S
H327 C346 0.951 . S
H328 C348 0.950 . S
H329 C349 0.950 . S
H330 C351 0.950 . S
H331 C354 0.950 . S
H332 C355 0.950 . S
H333 C357 0.950 . S
H334 C358 0.950 . S
H335 C359 0.951 . S
H336 C361 0.951 . S
H337 C363 0.950 . S
H338 C364 0.950 . S
H339 C366 0.950 . S
H340 C369 0.950 . S
H341 C370 0.950 . S
H342 C372 0.950 . S
H343 C373 0.950 . S
C344 H326 0.951 . S
C344 C345 1.366 . S
C344 C346 1.388 . S
C345 C344 1.366 . S
C345 C349 1.385 . S
C346 H327 0.951 . S
C346 C344 1.388 . S
C346 C347 1.366 . S
C347 C346 1.366 . S
C347 C348 1.414 . S
C347 C350 1.499 . S
C348 H328 0.950 . S
C348 C347 1.414 . S
C348 C349 1.374 . S
C349 H329 0.950 . S
C349 C345 1.385 . S
C349 C348 1.374 . S
C350 C347 1.499 . S
C350 C351 1.373 . S
C350 C352 1.389 . S
C351 H330 0.950 . S
C351 C350 1.373 . S
C351 C367 1.377 . S
C352 C350 1.389 . S
C352 C353 1.524 . S
C352 C366 1.377 . S
C353 C352 1.524 . S
C353 C354 1.397 . S
C353 C358 1.363 . S
C354 H331 0.950 . S
C354 C353 1.397 . S
C354 C355 1.334 . S
C355 H332 0.950 . S
C355 C354 1.334 . S
C355 C356 1.287 . S
C356 C355 1.287 . S
C356 C357 1.524 . S
C356 H375 0.913 . S
C357 H333 0.950 . S
C357 C356 1.524 . S
C357 C358 1.415 . S
C358 H334 0.950 . S
C358 C353 1.363 . S
C358 C357 1.415 . S
C359 H335 0.951 . S
C359 C360 1.366 . S
C359 C361 1.388 . S
C360 C359 1.366 . S
C360 C364 1.385 . S
C361 H336 0.951 . S
C361 C359 1.388 . S
C361 C362 1.366 . S
C362 C361 1.366 . S
C362 C363 1.414 . S
C362 C365 1.499 . S
C363 H337 0.950 . S
C363 C362 1.414 . S
C363 C364 1.374 . S
C364 H338 0.950 . S
C364 C360 1.385 . S
C364 C363 1.374 . S
C365 C362 1.499 . S
C365 C366 1.373 . S
C365 C367 1.389 . S
C366 H339 0.950 . S
C366 C352 1.377 . S
C366 C365 1.373 . S
C367 C351 1.377 . S
C367 C365 1.389 . S
C367 C368 1.524 . S
C368 C367 1.524 . S
C368 C369 1.397 . S
C368 C373 1.363 . S
C369 H340 0.950 . S
C369 C368 1.397 . S
C369 C370 1.334 . S
C370 H341 0.950 . S
C370 C369 1.334 . S
C370 C371 1.287 . S
C371 C370 1.287 . S
C371 C372 1.524 . S
C371 H374 0.999 . S
C372 H342 0.950 . S
C372 C371 1.524 . S
C372 C373 1.415 . S
C373 H343 0.950 . S
C373 C368 1.363 . S
C373 C372 1.415 . S
H374 C371 0.999 . S
H375 C356 0.913 . S
H376 C394 0.951 . S
H377 C396 0.951 . S
H378 C398 0.950 . S
H379 C399 0.950 . S
H380 C401 0.950 . S
H381 C404 0.950 . S
H382 C405 0.950 . S
H383 C407 0.950 . S
H384 C408 0.950 . S
H385 C409 0.951 . S
H386 C411 0.951 . S
H387 C413 0.950 . S
H388 C414 0.950 . S
H389 C416 0.950 . S
H390 C419 0.950 . S
H391 C420 0.950 . S
H392 C422 0.950 . S
H393 C423 0.950 . S
C394 H376 0.951 . S
C394 C395 1.366 . S
C394 C396 1.388 . S
C395 C394 1.366 . S
C395 C399 1.385 . S
C396 H377 0.951 . S
C396 C394 1.388 . S
C396 C397 1.366 . S
C397 C396 1.366 . S
C397 C398 1.414 . S
C397 C400 1.499 . S
C398 H378 0.950 . S
C398 C397 1.414 . S
C398 C399 1.374 . S
C399 H379 0.950 . S
C399 C395 1.385 . S
C399 C398 1.374 . S
C400 C397 1.499 . S
C400 C401 1.373 . S
C400 C402 1.389 . S
C401 H380 0.950 . S
C401 C400 1.373 . S
C401 C417 1.377 . S
C402 C400 1.389 . S
C402 C403 1.524 . S
C402 C416 1.377 . S
C403 C402 1.524 . S
C403 C404 1.397 . S
C403 C408 1.363 . S
C404 H381 0.950 . S
C404 C403 1.397 . S
C404 C405 1.334 . S
C405 H382 0.950 . S
C405 C404 1.334 . S
C405 C406 1.287 . S
C406 C405 1.287 . S
C406 C407 1.524 . S
C406 H425 0.913 . S
C407 H383 0.950 . S
C407 C406 1.524 . S
C407 C408 1.415 . S
C408 H384 0.950 . S
C408 C403 1.363 . S
C408 C407 1.415 . S
C409 H385 0.951 . S
C409 C410 1.366 . S
C409 C411 1.388 . S
C410 C409 1.366 . S
C410 C414 1.385 . S
C411 H386 0.951 . S
C411 C409 1.388 . S
C411 C412 1.366 . S
C412 C411 1.366 . S
C412 C413 1.414 . S
C412 C415 1.499 . S
C413 H387 0.950 . S
C413 C412 1.414 . S
C413 C414 1.374 . S
C414 H388 0.950 . S
C414 C410 1.385 . S
C414 C413 1.374 . S
C415 C412 1.499 . S
C415 C416 1.373 . S
C415 C417 1.389 . S
C416 H389 0.950 . S
C416 C402 1.377 . S
C416 C415 1.373 . S
C417 C401 1.377 . S
C417 C415 1.389 . S
C417 C418 1.524 . S
C418 C417 1.524 . S
C418 C419 1.397 . S
C418 C423 1.363 . S
C419 H390 0.950 . S
C419 C418 1.397 . S
C419 C420 1.334 . S
C420 H391 0.950 . S
C420 C419 1.334 . S
C420 C421 1.287 . S
C421 C420 1.287 . S
C421 C422 1.524 . S
C421 H424 0.999 . S
C422 H392 0.950 . S
C422 C421 1.524 . S
C422 C423 1.415 . S
C423 H393 0.950 . S
C423 C418 1.363 . S
C423 C422 1.415 . S
H424 C421 0.999 . S
H425 C406 0.913 . S
H426 C444 0.951 . S
H427 C446 0.951 . S
H428 C448 0.950 . S
H429 C449 0.950 . S
H430 C451 0.950 . S
H431 C454 0.950 . S
H432 C455 0.950 . S
H433 C457 0.950 . S
H434 C458 0.950 . S
H435 C459 0.951 . S
H436 C461 0.951 . S
H437 C463 0.950 . S
H438 C464 0.950 . S
H439 C466 0.950 . S
H440 C469 0.950 . S
H441 C470 0.950 . S
H442 C472 0.950 . S
H443 C473 0.950 . S
C444 H426 0.951 . S
C444 C445 1.366 . S
C444 C446 1.388 . S
C445 C444 1.366 . S
C445 C449 1.385 . S
C446 H427 0.951 . S
C446 C444 1.388 . S
C446 C447 1.366 . S
C447 C446 1.366 . S
C447 C448 1.414 . S
C447 C450 1.499 . S
C448 H428 0.950 . S
C448 C447 1.414 . S
C448 C449 1.374 . S
C449 H429 0.950 . S
C449 C445 1.385 . S
C449 C448 1.374 . S
C450 C447 1.499 . S
C450 C451 1.373 . S
C450 C452 1.389 . S
C451 H430 0.950 . S
C451 C450 1.373 . S
C451 C467 1.377 . S
C452 C450 1.389 . S
C452 C453 1.524 . S
C452 C466 1.377 . S
C453 C452 1.524 . S
C453 C454 1.397 . S
C453 C458 1.363 . S
C454 H431 0.950 . S
C454 C453 1.397 . S
C454 C455 1.334 . S
C455 H432 0.950 . S
C455 C454 1.334 . S
C455 C456 1.287 . S
C456 C455 1.287 . S
C456 C457 1.524 . S
C456 H475 0.913 . S
C457 H433 0.950 . S
C457 C456 1.524 . S
C457 C458 1.415 . S
C458 H434 0.950 . S
C458 C453 1.363 . S
C458 C457 1.415 . S
C459 H435 0.951 . S
C459 C460 1.366 . S
C459 C461 1.388 . S
C460 C459 1.366 . S
C460 C464 1.385 . S
C461 H436 0.951 . S
C461 C459 1.388 . S
C461 C462 1.366 . S
C462 C461 1.366 . S
C462 C463 1.414 . S
C462 C465 1.499 . S
C463 H437 0.950 . S
C463 C462 1.414 . S
C463 C464 1.374 . S
C464 H438 0.950 . S
C464 C460 1.385 . S
C464 C463 1.374 . S
C465 C462 1.499 . S
C465 C466 1.373 . S
C465 C467 1.389 . S
C466 H439 0.950 . S
C466 C452 1.377 . S
C466 C465 1.373 . S
C467 C451 1.377 . S
C467 C465 1.389 . S
C467 C468 1.524 . S
C468 C467 1.524 . S
C468 C469 1.397 . S
C468 C473 1.363 . S
C469 H440 0.950 . S
C469 C468 1.397 . S
C469 C470 1.334 . S
C470 H441 0.950 . S
C470 C469 1.334 . S
C470 C471 1.287 . S
C471 C470 1.287 . S
C471 C472 1.524 . S
C471 H474 0.999 . S
C472 H442 0.950 . S
C472 C471 1.524 . S
C472 C473 1.415 . S
C473 H443 0.950 . S
C473 C468 1.363 . S
C473 C472 1.415 . S
H474 C471 0.999 . S
H475 C456 0.913 . S
H476 C494 0.951 . S
H477 C496 0.951 . S
H478 C498 0.950 . S
H479 C499 0.950 . S
H480 C501 0.950 . S
H481 C504 0.950 . S
H482 C505 0.950 . S
H483 C507 0.950 . S
H484 C508 0.950 . S
H485 C509 0.951 . S
H486 C511 0.951 . S
H487 C513 0.950 . S
H488 C514 0.950 . S
H489 C516 0.950 . S
H490 C519 0.950 . S
H491 C520 0.950 . S
H492 C522 0.950 . S
H493 C523 0.950 . S
C494 H476 0.951 . S
C494 C495 1.366 . S
C494 C496 1.388 . S
C495 C494 1.366 . S
C495 C499 1.385 . S
C496 H477 0.951 . S
C496 C494 1.388 . S
C496 C497 1.366 . S
C497 C496 1.366 . S
C497 C498 1.414 . S
C497 C500 1.499 . S
C498 H478 0.950 . S
C498 C497 1.414 . S
C498 C499 1.374 . S
C499 H479 0.950 . S
C499 C495 1.385 . S
C499 C498 1.374 . S
C500 C497 1.499 . S
C500 C501 1.373 . S
C500 C502 1.389 . S
C501 H480 0.950 . S
C501 C500 1.373 . S
C501 C517 1.377 . S
C502 C500 1.389 . S
C502 C503 1.524 . S
C502 C516 1.377 . S
C503 C502 1.524 . S
C503 C504 1.397 . S
C503 C508 1.363 . S
C504 H481 0.950 . S
C504 C503 1.397 . S
C504 C505 1.334 . S
C505 H482 0.950 . S
C505 C504 1.334 . S
C505 C506 1.287 . S
C506 C505 1.287 . S
C506 C507 1.524 . S
C506 H525 0.913 . S
C507 H483 0.950 . S
C507 C506 1.524 . S
C507 C508 1.415 . S
C508 H484 0.950 . S
C508 C503 1.363 . S
C508 C507 1.415 . S
C509 H485 0.951 . S
C509 C510 1.366 . S
C509 C511 1.388 . S
C510 C509 1.366 . S
C510 C514 1.385 . S
C511 H486 0.951 . S
C511 C509 1.388 . S
C511 C512 1.366 . S
C512 C511 1.366 . S
C512 C513 1.414 . S
C512 C515 1.499 . S
C513 H487 0.950 . S
C513 C512 1.414 . S
C513 C514 1.374 . S
C514 H488 0.950 . S
C514 C510 1.385 . S
C514 C513 1.374 . S
C515 C512 1.499 . S
C515 C516 1.373 . S
C515 C517 1.389 . S
C516 H489 0.950 . S
C516 C502 1.377 . S
C516 C515 1.373 . S
C517 C501 1.377 . S
C517 C515 1.389 . S
C517 C518 1.524 . S
C518 C517 1.524 . S
C518 C519 1.397 . S
C518 C523 1.363 . S
C519 H490 0.950 . S
C519 C518 1.397 . S
C519 C520 1.334 . S
C520 H491 0.950 . S
C520 C519 1.334 . S
C520 C521 1.287 . S
C521 C520 1.287 . S
C521 C522 1.524 . S
C521 H524 0.999 . S
C522 H492 0.950 . S
C522 C521 1.524 . S
C522 C523 1.415 . S
C523 H493 0.950 . S
C523 C518 1.363 . S
C523 C522 1.415 . S
H524 C521 0.999 . S
H525 C506 0.913 . S
H526 C544 0.951 . S
H527 C546 0.951 . S
H528 C548 0.950 . S
H529 C549 0.950 . S
H530 C551 0.950 . S
H531 C554 0.950 . S
H532 C555 0.950 . S
H533 C557 0.950 . S
H534 C558 0.950 . S
H535 C559 0.951 . S
H536 C561 0.951 . S
H537 C563 0.950 . S
H538 C564 0.950 . S
H539 C566 0.950 . S
H540 C569 0.950 . S
H541 C570 0.950 . S
H542 C572 0.950 . S
H543 C573 0.950 . S
C544 H526 0.951 . S
C544 C545 1.366 . S
C544 C546 1.388 . S
C545 C544 1.366 . S
C545 C549 1.385 . S
C546 H527 0.951 . S
C546 C544 1.388 . S
C546 C547 1.366 . S
C547 C546 1.366 . S
C547 C548 1.414 . S
C547 C550 1.499 . S
C548 H528 0.950 . S
C548 C547 1.414 . S
C548 C549 1.374 . S
C549 H529 0.950 . S
C549 C545 1.385 . S
C549 C548 1.374 . S
C550 C547 1.499 . S
C550 C551 1.373 . S
C550 C552 1.389 . S
C551 H530 0.950 . S
C551 C550 1.373 . S
C551 C567 1.377 . S
C552 C550 1.389 . S
C552 C553 1.524 . S
C552 C566 1.377 . S
C553 C552 1.524 . S
C553 C554 1.397 . S
C553 C558 1.363 . S
C554 H531 0.950 . S
C554 C553 1.397 . S
C554 C555 1.334 . S
C555 H532 0.950 . S
C555 C554 1.334 . S
C555 C556 1.287 . S
C556 C555 1.287 . S
C556 C557 1.524 . S
C556 H575 0.913 . S
C557 H533 0.950 . S
C557 C556 1.524 . S
C557 C558 1.415 . S
C558 H534 0.950 . S
C558 C553 1.363 . S
C558 C557 1.415 . S
C559 H535 0.951 . S
C559 C560 1.366 . S
C559 C561 1.388 . S
C560 C559 1.366 . S
C560 C564 1.385 . S
C561 H536 0.951 . S
C561 C559 1.388 . S
C561 C562 1.366 . S
C562 C561 1.366 . S
C562 C563 1.414 . S
C562 C565 1.499 . S
C563 H537 0.950 . S
C563 C562 1.414 . S
C563 C564 1.374 . S
C564 H538 0.950 . S
C564 C560 1.385 . S
C564 C563 1.374 . S
C565 C562 1.499 . S
C565 C566 1.373 . S
C565 C567 1.389 . S
C566 H539 0.950 . S
C566 C552 1.377 . S
C566 C565 1.373 . S
C567 C551 1.377 . S
C567 C565 1.389 . S
C567 C568 1.524 . S
C568 C567 1.524 . S
C568 C569 1.397 . S
C568 C573 1.363 . S
C569 H540 0.950 . S
C569 C568 1.397 . S
C569 C570 1.334 . S
C570 H541 0.950 . S
C570 C569 1.334 . S
C570 C571 1.287 . S
C571 C570 1.287 . S
C571 C572 1.524 . S
C571 H574 0.999 . S
C572 H542 0.950 . S
C572 C571 1.524 . S
C572 C573 1.415 . S
C573 H543 0.950 . S
C573 C568 1.363 . S
C573 C572 1.415 . S
H574 C571 0.999 . S
H575 C556 0.913 . S
H576 C594 0.951 . S
H577 C596 0.951 . S
H578 C598 0.950 . S
H579 C599 0.950 . S
H580 C601 0.950 . S
H581 C604 0.950 . S
H582 C605 0.950 1_655 S
H583 C607 0.950 . S
H584 C608 0.950 . S
H585 C609 0.951 . S
H586 C611 0.951 . S
H587 C613 0.950 . S
H588 C614 0.950 . S
H589 C616 0.950 . S
H590 C619 0.950 . S
H591 C620 0.950 . S
H592 C622 0.950 . S
H593 C623 0.950 . S
C594 H576 0.951 . S
C594 C595 1.366 . S
C594 C596 1.388 . S
C595 C594 1.366 . S
C595 C599 1.385 . S
C596 H577 0.951 . S
C596 C594 1.388 . S
C596 C597 1.366 . S
C597 C596 1.366 . S
C597 C598 1.414 . S
C597 C600 1.499 . S
C598 H578 0.950 . S
C598 C597 1.414 . S
C598 C599 1.374 . S
C599 H579 0.950 . S
C599 C595 1.385 . S
C599 C598 1.374 . S
C600 C597 1.499 . S
C600 C601 1.373 . S
C600 C602 1.389 . S
C601 H580 0.950 . S
C601 C600 1.373 . S
C601 C617 1.377 . S
C602 C600 1.389 . S
C602 C603 1.524 . S
C602 C616 1.377 . S
C603 C602 1.524 . S
C603 C604 1.397 . S
C603 C608 1.363 . S
C604 H581 0.950 . S
C604 C603 1.397 . S
C604 C605 1.334 . S
C605 H582 0.950 1_455 S
C605 C604 1.334 . S
C605 C606 1.287 . S
C606 C605 1.287 . S
C606 C607 1.524 . S
C606 H625 0.913 . S
C607 H583 0.950 . S
C607 C606 1.524 . S
C607 C608 1.415 . S
C608 H584 0.950 . S
C608 C603 1.363 . S
C608 C607 1.415 . S
C609 H585 0.951 . S
C609 C610 1.366 . S
C609 C611 1.388 . S
C610 C609 1.366 . S
C610 C614 1.385 . S
C611 H586 0.951 . S
C611 C609 1.388 . S
C611 C612 1.366 . S
C612 C611 1.366 . S
C612 C613 1.414 . S
C612 C615 1.499 . S
C613 H587 0.950 . S
C613 C612 1.414 . S
C613 C614 1.374 . S
C614 H588 0.950 . S
C614 C610 1.385 . S
C614 C613 1.374 . S
C615 C612 1.499 . S
C615 C616 1.373 . S
C615 C617 1.389 . S
C616 H589 0.950 . S
C616 C602 1.377 . S
C616 C615 1.373 . S
C617 C601 1.377 . S
C617 C615 1.389 . S
C617 C618 1.524 . S
C618 C617 1.524 . S
C618 C619 1.397 . S
C618 C623 1.363 . S
C619 H590 0.950 . S
C619 C618 1.397 . S
C619 C620 1.334 . S
C620 H591 0.950 . S
C620 C619 1.334 . S
C620 C621 1.287 . S
C621 C620 1.287 . S
C621 C622 1.524 . S
C621 H624 0.999 . S
C622 H592 0.950 . S
C622 C621 1.524 . S
C622 C623 1.415 . S
C623 H593 0.950 . S
C623 C618 1.363 . S
C623 C622 1.415 . S
H624 C621 0.999 . S
H625 C606 0.913 . S
H626 C644 0.951 . S
H627 C646 0.951 . S
H628 C648 0.950 . S
H629 C649 0.950 . S
H630 C651 0.950 . S
H631 C654 0.950 . S
H632 C655 0.950 . S
H633 C657 0.950 . S
H634 C658 0.950 . S
H635 C659 0.951 . S
H636 C661 0.951 . S
H637 C663 0.950 . S
H638 C664 0.950 . S
H639 C666 0.950 . S
H640 C669 0.950 . S
H641 C670 0.950 . S
H642 C672 0.950 . S
H643 C673 0.950 . S
C644 H626 0.951 . S
C644 C645 1.366 . S
C644 C646 1.388 . S
C645 C644 1.366 . S
C645 C649 1.385 . S
C646 H627 0.951 . S
C646 C644 1.388 . S
C646 C647 1.366 . S
C647 C646 1.366 . S
C647 C648 1.414 . S
C647 C650 1.499 . S
C648 H628 0.950 . S
C648 C647 1.414 . S
C648 C649 1.374 . S
C649 H629 0.950 . S
C649 C645 1.385 . S
C649 C648 1.374 . S
C650 C647 1.499 . S
C650 C651 1.373 . S
C650 C652 1.389 . S
C651 H630 0.950 . S
C651 C650 1.373 . S
C651 C667 1.377 . S
C652 C650 1.389 . S
C652 C653 1.524 . S
C652 C666 1.377 . S
C653 C652 1.524 . S
C653 C654 1.397 . S
C653 C658 1.363 . S
C654 H631 0.950 . S
C654 C653 1.397 . S
C654 C655 1.334 . S
C655 H632 0.950 . S
C655 C654 1.334 . S
C655 C656 1.287 . S
C656 C655 1.287 . S
C656 C657 1.524 . S
C656 H675 0.913 . S
C657 H633 0.950 . S
C657 C656 1.524 . S
C657 C658 1.415 . S
C658 H634 0.950 . S
C658 C653 1.363 . S
C658 C657 1.415 . S
C659 H635 0.951 . S
C659 C660 1.366 . S
C659 C661 1.388 . S
C660 C659 1.366 . S
C660 C664 1.385 . S
C661 H636 0.951 . S
C661 C659 1.388 . S
C661 C662 1.366 . S
C662 C661 1.366 . S
C662 C663 1.414 . S
C662 C665 1.499 . S
C663 H637 0.950 . S
C663 C662 1.414 . S
C663 C664 1.374 . S
C664 H638 0.950 . S
C664 C660 1.385 . S
C664 C663 1.374 . S
C665 C662 1.499 . S
C665 C666 1.373 . S
C665 C667 1.389 . S
C666 H639 0.950 . S
C666 C652 1.377 . S
C666 C665 1.373 . S
C667 C651 1.377 . S
C667 C665 1.389 . S
C667 C668 1.524 . S
C668 C667 1.524 . S
C668 C669 1.397 . S
C668 C673 1.363 . S
C669 H640 0.950 . S
C669 C668 1.397 . S
C669 C670 1.334 . S
C670 H641 0.950 . S
C670 C669 1.334 . S
C670 C671 1.287 . S
C671 C670 1.287 . S
C671 C672 1.524 . S
C671 H674 0.999 . S
C672 H642 0.950 . S
C672 C671 1.524 . S
C672 C673 1.415 . S
C673 H643 0.950 . S
C673 C668 1.363 . S
C673 C672 1.415 . S
H674 C671 0.999 . S
H675 C656 0.913 . S
H676 C694 0.951 . S
H677 C696 0.951 . S
H678 C698 0.950 . S
H679 C699 0.950 . S
H680 C701 0.950 . S
H681 C704 0.950 . S
H682 C705 0.950 . S
H683 C707 0.950 . S
H684 C708 0.950 . S
H685 C709 0.986 . S
H686 C711 0.951 1_545 S
H687 C713 0.950 . S
H688 C714 0.950 . S
H689 C716 0.950 . S
H690 C719 0.950 . S
H691 C720 0.950 . S
H692 C722 0.950 . S
H693 C723 0.950 . S
C694 H676 0.951 . S
C694 C695 1.366 . S
C694 C696 1.388 . S
C695 C694 1.366 . S
C695 C699 1.385 . S
C696 H677 0.951 . S
C696 C694 1.388 . S
C696 C697 1.366 . S
C697 C696 1.366 . S
C697 C698 1.414 . S
C697 C700 1.499 . S
C698 H678 0.950 . S
C698 C697 1.414 . S
C698 C699 1.374 . S
C699 H679 0.950 . S
C699 C695 1.385 . S
C699 C698 1.374 . S
C700 C697 1.499 . S
C700 C701 1.373 . S
C700 C702 1.389 . S
C701 H680 0.950 . S
C701 C700 1.373 . S
C701 C717 1.377 . S
C702 C700 1.389 . S
C702 C703 1.524 . S
C702 C716 1.377 . S
C703 C702 1.524 . S
C703 C704 1.397 . S
C703 C708 1.363 . S
C704 H681 0.950 . S
C704 C703 1.397 . S
C704 C705 1.334 . S
C705 H682 0.950 . S
C705 C704 1.334 . S
C705 C706 1.287 . S
C706 C705 1.287 . S
C706 C707 1.524 . S
C706 H725 0.913 . S
C707 H683 0.950 . S
C707 C706 1.524 . S
C707 C708 1.415 . S
C708 H684 0.950 . S
C708 C703 1.363 . S
C708 C707 1.415 . S
C709 H685 0.986 . S
C709 C710 1.353 1_545 S
C709 C711 1.367 1_545 S
C710 C709 1.353 1_565 S
C710 C714 1.385 . S
C711 H686 0.951 1_565 S
C711 C709 1.367 1_565 S
C711 C712 1.366 . S
C712 C711 1.366 . S
C712 C713 1.414 . S
C712 C715 1.499 . S
C713 H687 0.950 . S
C713 C712 1.414 . S
C713 C714 1.374 . S
C714 H688 0.950 . S
C714 C710 1.385 . S
C714 C713 1.374 . S
C715 C712 1.499 . S
C715 C716 1.373 . S
C715 C717 1.389 . S
C716 H689 0.950 . S
C716 C702 1.377 . S
C716 C715 1.373 . S
C717 C701 1.377 . S
C717 C715 1.389 . S
C717 C718 1.524 . S
C718 C717 1.524 . S
C718 C719 1.397 . S
C718 C723 1.363 1_565 S
C719 H690 0.950 . S
C719 C718 1.397 . S
C719 C720 1.334 1_565 S
C720 H691 0.950 . S
C720 C719 1.334 1_545 S
C720 C721 1.287 . S
C721 C720 1.287 . S
C721 C722 1.524 . S
C721 H724 0.999 . S
C722 H692 0.950 . S
C722 C721 1.524 . S
C722 C723 1.415 . S
C723 H693 0.950 . S
C723 C718 1.363 1_545 S
C723 C722 1.415 . S
H724 C721 0.999 . S
H725 C706 0.913 . S
H726 C744 0.951 . S
H727 C746 0.951 . S
H728 C748 0.950 . S
H729 C749 0.950 . S
H730 C751 0.950 . S
H731 C754 0.950 . S
H732 C755 0.950 . S
H733 C757 0.950 . S
H734 C758 0.950 . S
H735 C759 0.951 . S
H736 C761 0.951 . S
H737 C763 0.950 . S
H738 C764 0.950 . S
H739 C766 0.950 . S
H740 C769 0.950 . S
H741 C770 0.950 . S
H742 C772 0.950 . S
H743 C773 0.950 . S
C744 H726 0.951 . S
C744 C745 1.366 . S
C744 C746 1.388 . S
C745 C744 1.366 . S
C745 C749 1.385 . S
C746 H727 0.951 . S
C746 C744 1.388 . S
C746 C747 1.366 . S
C747 C746 1.366 . S
C747 C748 1.414 . S
C747 C750 1.499 . S
C748 H728 0.950 . S
C748 C747 1.414 . S
C748 C749 1.374 . S
C749 H729 0.950 . S
C749 C745 1.385 . S
C749 C748 1.374 . S
C750 C747 1.499 . S
C750 C751 1.373 . S
C750 C752 1.389 . S
C751 H730 0.950 . S
C751 C750 1.373 . S
C751 C767 1.377 . S
C752 C750 1.389 . S
C752 C753 1.524 . S
C752 C766 1.377 . S
C753 C752 1.524 . S
C753 C754 1.397 . S
C753 C758 1.363 . S
C754 H731 0.950 . S
C754 C753 1.397 . S
C754 C755 1.334 . S
C755 H732 0.950 . S
C755 C754 1.334 . S
C755 C756 1.287 . S
C756 C755 1.287 . S
C756 C757 1.524 . S
C756 H775 0.913 1_545 S
C757 H733 0.950 . S
C757 C756 1.524 . S
C757 C758 1.415 . S
C758 H734 0.950 . S
C758 C753 1.363 . S
C758 C757 1.415 . S
C759 H735 0.951 . S
C759 C760 1.366 . S
C759 C761 1.388 . S
C760 C759 1.366 . S
C760 C764 1.385 . S
C761 H736 0.951 . S
C761 C759 1.388 . S
C761 C762 1.366 . S
C762 C761 1.366 . S
C762 C763 1.414 . S
C762 C765 1.499 . S
C763 H737 0.950 . S
C763 C762 1.414 . S
C763 C764 1.374 . S
C764 H738 0.950 . S
C764 C760 1.385 . S
C764 C763 1.374 . S
C765 C762 1.499 . S
C765 C766 1.373 . S
C765 C767 1.389 . S
C766 H739 0.950 . S
C766 C752 1.377 . S
C766 C765 1.373 . S
C767 C751 1.377 . S
C767 C765 1.389 . S
C767 C768 1.524 . S
C768 C767 1.524 . S
C768 C769 1.397 . S
C768 C773 1.363 . S
C769 H740 0.950 . S
C769 C768 1.397 . S
C769 C770 1.334 . S
C770 H741 0.950 . S
C770 C769 1.334 . S
C770 C771 1.287 . S
C771 C770 1.287 . S
C771 C772 1.524 . S
C771 H774 0.999 . S
C772 H742 0.950 . S
C772 C771 1.524 . S
C772 C773 1.415 . S
C773 H743 0.950 . S
C773 C768 1.363 . S
C773 C772 1.415 . S
H774 C771 0.999 . S
H775 C756 0.913 1_565 S
H776 C794 0.951 1_455 S
H777 C796 0.951 . S
H778 C798 0.950 . S
H779 C799 0.950 . S
H780 C801 0.950 . S
H781 C804 0.950 . S
H782 C805 0.950 . S
H783 C807 0.950 . S
H784 C808 0.950 . S
H785 C809 0.951 . S
H786 C811 0.951 . S
H787 C813 0.950 . S
H788 C814 0.950 . S
H789 C816 0.950 . S
H790 C819 0.950 . S
H791 C820 0.950 . S
H792 C822 0.950 . S
H793 C823 0.950 . S
C794 H776 0.951 1_655 S
C794 C795 1.366 . S
C794 C796 1.388 . S
C795 C794 1.366 . S
C795 C799 1.385 . S
C796 H777 0.951 . S
C796 C794 1.388 . S
C796 C797 1.366 . S
C797 C796 1.366 . S
C797 C798 1.414 . S
C797 C800 1.499 . S
C798 H778 0.950 . S
C798 C797 1.414 . S
C798 C799 1.374 . S
C799 H779 0.950 . S
C799 C795 1.385 . S
C799 C798 1.374 . S
C800 C797 1.499 . S
C800 C801 1.373 . S
C800 C802 1.389 . S
C801 H780 0.950 . S
C801 C800 1.373 . S
C801 C817 1.377 . S
C802 C800 1.389 . S
C802 C803 1.524 . S
C802 C816 1.377 . S
C803 C802 1.524 . S
C803 C804 1.397 . S
C803 C808 1.363 . S
C804 H781 0.950 . S
C804 C803 1.397 . S
C804 C805 1.334 . S
C805 H782 0.950 . S
C805 C804 1.334 . S
C805 C806 1.287 . S
C806 C805 1.287 . S
C806 C807 1.524 . S
C806 H825 0.913 . S
C807 H783 0.950 . S
C807 C806 1.524 . S
C807 C808 1.415 . S
C808 H784 0.950 . S
C808 C803 1.363 . S
C808 C807 1.415 . S
C809 H785 0.951 . S
C809 C810 1.366 . S
C809 C811 1.388 . S
C810 C809 1.366 . S
C810 C814 1.385 . S
C811 H786 0.951 . S
C811 C809 1.388 . S
C811 C812 1.366 . S
C812 C811 1.366 . S
C812 C813 1.414 . S
C812 C815 1.499 . S
C813 H787 0.950 . S
C813 C812 1.414 . S
C813 C814 1.374 . S
C814 H788 0.950 . S
C814 C810 1.385 . S
C814 C813 1.374 . S
C815 C812 1.499 . S
C815 C816 1.373 . S
C815 C817 1.389 . S
C816 H789 0.950 . S
C816 C802 1.377 . S
C816 C815 1.373 . S
C817 C801 1.377 . S
C817 C815 1.389 . S
C817 C818 1.524 . S
C818 C817 1.524 . S
C818 C819 1.397 . S
C818 C823 1.363 . S
C819 H790 0.950 . S
C819 C818 1.397 . S
C819 C820 1.334 . S
C820 H791 0.950 . S
C820 C819 1.334 . S
C820 C821 1.287 . S
C821 C820 1.287 . S
C821 C822 1.524 . S
C821 H824 0.999 . S
C822 H792 0.950 . S
C822 C821 1.524 . S
C822 C823 1.415 . S
C823 H793 0.950 . S
C823 C818 1.363 . S
C823 C822 1.415 . S
H824 C821 0.999 . S
H825 C806 0.913 . S
H826 C844 0.951 . S
H827 C846 0.951 . S
H828 C848 0.950 . S
H829 C849 0.950 . S
H830 C851 0.950 . S
H831 C854 0.950 . S
H832 C855 0.950 . S
H833 C857 0.950 . S
H834 C858 0.950 . S
H835 C859 0.951 . S
H836 C861 0.951 . S
H837 C863 0.950 . S
H838 C864 0.950 . S
H839 C866 0.950 . S
H840 C869 0.950 . S
H841 C870 0.950 . S
H842 C872 0.950 . S
H843 C873 0.950 . S
C844 H826 0.951 . S
C844 C845 1.366 . S
C844 C846 1.388 . S
C845 C844 1.366 . S
C845 C849 1.385 . S
C846 H827 0.951 . S
C846 C844 1.388 . S
C846 C847 1.366 . S
C847 C846 1.366 . S
C847 C848 1.414 . S
C847 C850 1.499 . S
C848 H828 0.950 . S
C848 C847 1.414 . S
C848 C849 1.374 . S
C849 H829 0.950 . S
C849 C845 1.385 . S
C849 C848 1.374 . S
C850 C847 1.499 . S
C850 C851 1.373 . S
C850 C852 1.389 . S
C851 H830 0.950 . S
C851 C850 1.373 . S
C851 C867 1.377 . S
C852 C850 1.389 . S
C852 C853 1.524 . S
C852 C866 1.377 . S
C853 C852 1.524 . S
C853 C854 1.397 . S
C853 C858 1.363 . S
C854 H831 0.950 . S
C854 C853 1.397 . S
C854 C855 1.334 . S
C855 H832 0.950 . S
C855 C854 1.334 . S
C855 C856 1.287 . S
C856 C855 1.287 . S
C856 C857 1.524 . S
C856 H875 0.913 . S
C857 H833 0.950 . S
C857 C856 1.524 . S
C857 C858 1.415 . S
C858 H834 0.950 . S
C858 C853 1.363 . S
C858 C857 1.415 . S
C859 H835 0.951 . S
C859 C860 1.366 . S
C859 C861 1.388 . S
C860 C859 1.366 . S
C860 C864 1.385 . S
C861 H836 0.951 . S
C861 C859 1.388 . S
C861 C862 1.366 . S
C862 C861 1.366 . S
C862 C863 1.414 . S
C862 C865 1.499 . S
C863 H837 0.950 . S
C863 C862 1.414 . S
C863 C864 1.374 . S
C864 H838 0.950 . S
C864 C860 1.385 . S
C864 C863 1.374 . S
C865 C862 1.499 . S
C865 C866 1.373 . S
C865 C867 1.389 . S
C866 H839 0.950 . S
C866 C852 1.377 . S
C866 C865 1.373 . S
C867 C851 1.377 . S
C867 C865 1.389 . S
C867 C868 1.524 . S
C868 C867 1.524 . S
C868 C869 1.397 . S
C868 C873 1.363 . S
C869 H840 0.950 . S
C869 C868 1.397 . S
C869 C870 1.334 . S
C870 H841 0.950 . S
C870 C869 1.334 . S
C870 C871 1.287 . S
C871 C870 1.287 . S
C871 C872 1.524 . S
C871 H874 0.999 . S
C872 H842 0.950 . S
C872 C871 1.524 . S
C872 C873 1.415 . S
C873 H843 0.950 . S
C873 C868 1.363 . S
C873 C872 1.415 . S
H874 C871 0.999 . S
H875 C856 0.913 . S
H876 C894 0.951 . S
H877 C896 0.951 . S
H878 C898 0.950 . S
H879 C899 0.950 . S
H880 C901 0.950 . S
H881 C904 0.950 . S
H882 C905 0.950 . S
H883 C907 0.950 . S
H884 C908 0.950 . S
H885 C909 0.951 . S
H886 C911 0.951 . S
H887 C913 0.950 . S
H888 C914 0.950 . S
H889 C916 0.950 . S
H890 C919 0.950 . S
H891 C920 0.950 . S
H892 C922 0.950 . S
H893 C923 0.950 . S
C894 H876 0.951 . S
C894 C895 1.366 . S
C894 C896 1.388 . S
C895 C894 1.366 . S
C895 C899 1.385 . S
C896 H877 0.951 . S
C896 C894 1.388 . S
C896 C897 1.366 . S
C897 C896 1.366 . S
C897 C898 1.414 . S
C897 C900 1.499 . S
C898 H878 0.950 . S
C898 C897 1.414 . S
C898 C899 1.374 . S
C899 H879 0.950 . S
C899 C895 1.385 . S
C899 C898 1.374 . S
C900 C897 1.499 . S
C900 C901 1.373 . S
C900 C902 1.389 . S
C901 H880 0.950 . S
C901 C900 1.373 . S
C901 C917 1.377 1_455 S
C902 C900 1.389 . S
C902 C903 1.524 . S
C902 C916 1.377 . S
C903 C902 1.524 . S
C903 C904 1.397 . S
C903 C908 1.363 . S
C904 H881 0.950 . S
C904 C903 1.397 . S
C904 C905 1.334 . S
C905 H882 0.950 . S
C905 C904 1.334 . S
C905 C906 1.287 . S
C906 C905 1.287 . S
C906 C907 1.524 . S
C906 H925 0.913 . S
C907 H883 0.950 . S
C907 C906 1.524 . S
C907 C908 1.415 . S
C908 H884 0.950 . S
C908 C903 1.363 . S
C908 C907 1.415 . S
C909 H885 0.951 . S
C909 C910 1.366 . S
C909 C911 1.388 . S
C910 C909 1.366 . S
C910 C914 1.385 . S
C911 H886 0.951 . S
C911 C909 1.388 . S
C911 C912 1.366 . S
C912 C911 1.366 . S
C912 C913 1.414 . S
C912 C915 1.499 1_655 S
C913 H887 0.950 . S
C913 C912 1.414 . S
C913 C914 1.374 . S
C914 H888 0.950 . S
C914 C910 1.385 . S
C914 C913 1.374 . S
C915 C912 1.499 1_455 S
C915 C916 1.373 . S
C915 C917 1.389 1_455 S
C916 H889 0.950 . S
C916 C902 1.377 . S
C916 C915 1.373 . S
C917 C901 1.377 1_655 S
C917 C915 1.389 1_655 S
C917 C918 1.524 . S
C918 C917 1.524 . S
C918 C919 1.397 . S
C918 C923 1.363 . S
C919 H890 0.950 . S
C919 C918 1.397 . S
C919 C920 1.334 . S
C920 H891 0.950 . S
C920 C919 1.334 . S
C920 C921 1.287 . S
C921 C920 1.287 . S
C921 C922 1.524 . S
C921 H924 0.999 . S
C922 H892 0.950 . S
C922 C921 1.524 . S
C922 C923 1.415 . S
C923 H893 0.950 . S
C923 C918 1.363 . S
C923 C922 1.415 . S
H924 C921 0.999 . S
H925 C906 0.913 . S
H926 C944 0.951 . S
H927 C946 0.951 . S
H928 C948 0.950 . S
H929 C949 0.950 . S
H930 C951 0.950 . S
H931 C954 0.950 . S
H932 C955 0.950 . S
H933 C957 0.950 . S
H934 C958 0.950 . S
H935 C959 0.951 . S
H936 C961 0.951 . S
H937 C963 0.950 . S
H938 C964 0.950 . S
H939 C966 0.950 . S
H940 C969 0.950 . S
H941 C970 0.950 . S
H942 C972 0.950 . S
H943 C973 0.950 . S
C944 H926 0.951 . S
C944 C945 1.366 . S
C944 C946 1.388 . S
C945 C944 1.366 . S
C945 C949 1.385 . S
C946 H927 0.951 . S
C946 C944 1.388 . S
C946 C947 1.366 . S
C947 C946 1.366 . S
C947 C948 1.414 . S
C947 C950 1.499 . S
C948 H928 0.950 . S
C948 C947 1.414 . S
C948 C949 1.374 . S
C949 H929 0.950 . S
C949 C945 1.385 . S
C949 C948 1.374 . S
C950 C947 1.499 . S
C950 C951 1.373 . S
C950 C952 1.389 . S
C951 H930 0.950 . S
C951 C950 1.373 . S
C951 C967 1.377 . S
C952 C950 1.389 . S
C952 C953 1.524 . S
C952 C966 1.377 . S
C953 C952 1.524 . S
C953 C954 1.397 . S
C953 C958 1.363 . S
C954 H931 0.950 . S
C954 C953 1.397 . S
C954 C955 1.334 . S
C955 H932 0.950 . S
C955 C954 1.334 . S
C955 C956 1.287 . S
C956 C955 1.287 . S
C956 C957 1.524 . S
C956 H975 0.913 . S
C957 H933 0.950 . S
C957 C956 1.524 . S
C957 C958 1.415 . S
C958 H934 0.950 . S
C958 C953 1.363 . S
C958 C957 1.415 . S
C959 H935 0.951 . S
C959 C960 1.366 . S
C959 C961 1.388 . S
C960 C959 1.366 . S
C960 C964 1.385 . S
C961 H936 0.951 . S
C961 C959 1.388 . S
C961 C962 1.366 . S
C962 C961 1.366 . S
C962 C963 1.414 . S
C962 C965 1.499 . S
C963 H937 0.950 . S
C963 C962 1.414 . S
C963 C964 1.374 . S
C964 H938 0.950 . S
C964 C960 1.385 . S
C964 C963 1.374 . S
C965 C962 1.499 . S
C965 C966 1.373 . S
C965 C967 1.389 . S
C966 H939 0.950 . S
C966 C952 1.377 . S
C966 C965 1.373 . S
C967 C951 1.377 . S
C967 C965 1.389 . S
C967 C968 1.524 . S
C968 C967 1.524 . S
C968 C969 1.397 . S
C968 C973 1.363 . S
C969 H940 0.950 . S
C969 C968 1.397 . S
C969 C970 1.334 . S
C970 H941 0.950 . S
C970 C969 1.334 . S
C970 C971 1.287 . S
C971 C970 1.287 . S
C971 C972 1.524 . S
C971 H974 0.999 . S
C972 H942 0.950 . S
C972 C971 1.524 . S
C972 C973 1.415 . S
C973 H943 0.950 . S
C973 C968 1.363 . S
C973 C972 1.415 . S
H974 C971 0.999 . S
H975 C956 0.913 . S
H976 C994 0.951 . S
H977 C996 0.951 . S
H978 C998 0.950 . S
H979 C999 0.950 . S
H980 C1001 0.952 1_565 S
H981 C1004 0.950 . S
H982 C1005 0.950 . S
H983 C1007 0.950 . S
H984 C1008 0.950 . S
H985 C1009 0.951 . S
H986 C1011 0.951 . S
H987 C1013 0.950 . S
H988 C1014 0.950 . S
H989 C1016 0.950 . S
H990 C1019 0.950 . S
H991 C1020 0.950 . S
H992 C1022 0.950 . S
H993 C1023 0.950 . S
C994 H976 0.951 . S
C994 C995 1.366 . S
C994 C996 1.388 . S
C995 C994 1.366 . S
C995 C999 1.385 . S
C996 H977 0.951 . S
C996 C994 1.388 . S
C996 C997 1.366 . S
C997 C996 1.366 . S
C997 C998 1.414 . S
C997 C1000 1.499 . S
C998 H978 0.950 . S
C998 C997 1.414 . S
C998 C999 1.374 . S
C999 H979 0.950 . S
C999 C995 1.385 . S
C999 C998 1.374 . S
C1000 C997 1.499 . S
C1000 C1001 1.373 1_565 S
C1000 C1002 1.389 1_565 S
C1001 H980 0.952 1_545 S
C1001 C1000 1.373 1_545 S
C1001 C1017 1.377 . S
C1002 C1000 1.389 1_545 S
C1002 C1003 1.524 . S
C1002 C1016 1.377 . S
C1003 C1002 1.524 . S
C1003 C1004 1.397 . S
C1003 C1008 1.363 1_545 S
C1004 H981 0.950 . S
C1004 C1003 1.397 . S
C1004 C1005 1.334 . S
C1005 H982 0.950 . S
C1005 C1004 1.334 . S
C1005 C1006 1.287 1_545 S
C1006 C1005 1.287 1_565 S
C1006 C1007 1.524 . S
C1006 H1025 0.913 . S
C1007 H983 0.950 . S
C1007 C1006 1.524 . S
C1007 C1008 1.415 . S
C1008 H984 0.950 . S
C1008 C1003 1.363 1_565 S
C1008 C1007 1.415 . S
C1009 H985 0.951 . S
C1009 C1010 1.366 . S
C1009 C1011 1.388 . S
C1010 C1009 1.366 . S
C1010 C1014 1.385 . S
C1011 H986 0.951 . S
C1011 C1009 1.388 . S
C1011 C1012 1.366 . S
C1012 C1011 1.366 . S
C1012 C1013 1.414 . S
C1012 C1015 1.499 . S
C1013 H987 0.950 . S
C1013 C1012 1.414 . S
C1013 C1014 1.374 . S
C1014 H988 0.950 . S
C1014 C1010 1.385 . S
C1014 C1013 1.374 . S
C1015 C1012 1.499 . S
C1015 C1016 1.373 . S
C1015 C1017 1.389 . S
C1016 H989 0.950 . S
C1016 C1002 1.377 . S
C1016 C1015 1.373 . S
C1017 C1001 1.377 . S
C1017 C1015 1.389 . S
C1017 C1018 1.524 . S
C1018 C1017 1.524 . S
C1018 C1019 1.397 . S
C1018 C1023 1.363 . S
C1019 H990 0.950 . S
C1019 C1018 1.397 . S
C1019 C1020 1.334 . S
C1020 H991 0.950 . S
C1020 C1019 1.334 . S
C1020 C1021 1.287 . S
C1021 C1020 1.287 . S
C1021 C1022 1.524 . S
C1021 H1024 0.999 . S
C1022 H992 0.950 . S
C1022 C1021 1.524 . S
C1022 C1023 1.415 . S
C1023 H993 0.950 . S
C1023 C1018 1.363 . S
C1023 C1022 1.415 . S
H1024 C1021 0.999 . S
H1025 C1006 0.913 . S
C145 C33 0.874 . S
C160 C0 0.871 . S
C195 C19 0.897 . S
C210 C5 0.897 . S
C245 C14 0.856 . S
C260 C28 0.858 . S
C295 C70 0.845 . S
C310 C47 0.849 . S
C345 C61 0.817 . S
C360 C42 0.817 . S
C395 C56 0.870 . S
C410 C75 0.876 . S
C445 C84 0.814 . S
C460 C117 0.817 . S
C495 C89 0.827 . S
C510 C103 0.826 . S
C545 C98 0.793 . S
C560 C112 0.792 . S
C595 C11 1.349 . S
C610 C109 1.348 . S
C645 C23 1.394 . S
C660 C121 1.394 . S
C695 C93 1.367 . S
C710 C39 1.369 . S
C745 C65 1.345 . S
C760 C37 1.345 . S
C795 C9 1.399 . S
C810 C79 1.400 . S
C845 C51 1.378 . S
C860 C25 1.383 . S
C895 C107 1.367 . S
C910 C81 1.367 . S
C945 C53 1.344 . S
C960 C123 1.344 . S
C995 C95 1.392 . S
C1010 C67 1.392 . S
