# Generated by pormake.
# Topology umg, (4)-cn, num edge types: 1
# Building blocks:
#     Node 0, Type 0, BuildingBlock: QUQFOY_clean_sbu_1, # of connection points: 4
#     Node 1, Type 0, BuildingBlock: QUQFOY_clean_sbu_1, # of connection points: 4
#     Node 2, Type 0, BuildingBlock: QUQFOY_clean_sbu_1, # of connection points: 4
#     Node 3, Type 0, BuildingBlock: QUQFOY_clean_sbu_1, # of connection points: 4
#     Node 4, Type 0, BuildingBlock: QUQFOY_clean_sbu_1, # of connection points: 4
#     Node 5, Type 0, BuildingBlock: QUQFOY_clean_sbu_1, # of connection points: 4
#     Node 6, Type 0, BuildingBlock: QUQFOY_clean_sbu_1, # of connection points: 4
#     Node 7, Type 0, BuildingBlock: QUQFOY_clean_sbu_1, # of connection points: 4
#     Node 8, Type 0, BuildingBlock: QUQFOY_clean_sbu_1, # of connection points: 4
#     Node 9, Type 0, BuildingBlock: QUQFOY_clean_sbu_1, # of connection points: 4
#     Node 10, Type 0, BuildingBlock: QUQFOY_clean_sbu_1, # of connection points: 4
#     Node 11, Type 0, BuildingBlock: QUQFOY_clean_sbu_1, # of connection points: 4
#     Edge 12, Type (0, 0), BuildingBlock: XUDNAN_clean_linker_2, # of connection points: 2
#     Edge 13, Type (0, 0), BuildingBlock: XUDNAN_clean_linker_2, # of connection points: 2
#     Edge 14, Type (0, 0), BuildingBlock: XUDNAN_clean_linker_2, # of connection points: 2
#     Edge 15, Type (0, 0), BuildingBlock: XUDNAN_clean_linker_2, # of connection points: 2
#     Edge 16, Type (0, 0), BuildingBlock: XUDNAN_clean_linker_2, # of connection points: 2
#     Edge 17, Type (0, 0), BuildingBlock: XUDNAN_clean_linker_2, # of connection points: 2
#     Edge 18, Type (0, 0), BuildingBlock: XUDNAN_clean_linker_2, # of connection points: 2
#     Edge 19, Type (0, 0), BuildingBlock: XUDNAN_clean_linker_2, # of connection points: 2
#     Edge 20, Type (0, 0), BuildingBlock: XUDNAN_clean_linker_2, # of connection points: 2
#     Edge 21, Type (0, 0), BuildingBlock: XUDNAN_clean_linker_2, # of connection points: 2
#     Edge 22, Type (0, 0), BuildingBlock: XUDNAN_clean_linker_2, # of connection points: 2
#     Edge 23, Type (0, 0), BuildingBlock: XUDNAN_clean_linker_2, # of connection points: 2
#     Edge 24, Type (0, 0), BuildingBlock: XUDNAN_clean_linker_2, # of connection points: 2
#     Edge 25, Type (0, 0), BuildingBlock: XUDNAN_clean_linker_2, # of connection points: 2
#     Edge 26, Type (0, 0), BuildingBlock: XUDNAN_clean_linker_2, # of connection points: 2
#     Edge 27, Type (0, 0), BuildingBlock: XUDNAN_clean_linker_2, # of connection points: 2
#     Edge 28, Type (0, 0), BuildingBlock: XUDNAN_clean_linker_2, # of connection points: 2
#     Edge 29, Type (0, 0), BuildingBlock: XUDNAN_clean_linker_2, # of connection points: 2
#     Edge 30, Type (0, 0), BuildingBlock: XUDNAN_clean_linker_2, # of connection points: 2
#     Edge 31, Type (0, 0), BuildingBlock: XUDNAN_clean_linker_2, # of connection points: 2
#     Edge 32, Type (0, 0), BuildingBlock: XUDNAN_clean_linker_2, # of connection points: 2
#     Edge 33, Type (0, 0), BuildingBlock: XUDNAN_clean_linker_2, # of connection points: 2
#     Edge 34, Type (0, 0), BuildingBlock: XUDNAN_clean_linker_2, # of connection points: 2
#     Edge 35, Type (0, 0), BuildingBlock: XUDNAN_clean_linker_2, # of connection points: 2
# Relax obj value: 0.077
# Max RMSD: 0.298
# Mean RMSD: 0.199
data_MOF--net-umg--node1-QUQFOY_clean_sbu_1--edge1-XUDNAN_clean_linker_2
_symmetry_space_group_name_H-M    P1
_symmetry_Int_Tables_number       1
_symmetry_cell_setting            triclinic
loop_
_symmetry_equiv_pos_as_xyz
'x, y, z'
_cell_length_a     28.922298
_cell_length_b     28.975535
_cell_length_c     86.23181
_cell_angle_alpha  89.53871
_cell_angle_beta   90.35344
_cell_angle_gamma 119.89874
loop_
_atom_site_label
_atom_site_type_symbol
_atom_site_fract_x
_atom_site_fract_y
_atom_site_fract_z
_atom_type_partial_charge
O0 O 0.28449 0.62074 0.05542 0.0
Cd1 Cd 0.27579 0.58897 0.0774 0.0
Cd2 Cd 0.30779 0.70056 0.08343 0.0
O3 O 0.32076 0.70762 0.05958 0.0
O4 O 0.30356 0.53599 0.07882 0.0
O5 O 0.34353 0.61632 0.0888 0.0
C6 C 0.34457 0.57353 0.08586 0.0
C7 C 0.37115 0.74872 0.1027 0.0
C8 C 0.30442 0.66832 0.05032 0.0
C9 C 0.19473 0.61004 0.09233 0.0
O10 O 0.22906 0.65916 0.09054 0.0
O11 O 0.20595 0.57394 0.08885 0.0
O12 O 0.34502 0.76897 0.0961 0.0
O13 O 0.36331 0.70386 0.09768 0.0
O14 O 0.80878 0.34097 0.39634 0.0
Cd15 Cd 0.8406 0.32332 0.41524 0.0
Cd16 Cd 0.76886 0.34859 0.42997 0.0
O17 O 0.7699 0.3806 0.40803 0.0
O18 O 0.92104 0.35263 0.41271 0.0
O19 O 0.88513 0.38823 0.42737 0.0
C20 C 0.92729 0.39128 0.42153 0.0
C21 C 0.78687 0.39133 0.45413 0.0
C22 C 0.7845 0.36748 0.39566 0.0
C23 C 0.74432 0.23311 0.43013 0.0
O24 O 0.72872 0.26686 0.43167 0.0
O25 O 0.79123 0.24779 0.42514 0.0
O26 O 0.74122 0.37502 0.44745 0.0
O27 O 0.82239 0.38649 0.44664 0.0
O28 O 0.41518 0.67147 0.72144 0.0
Cd29 Cd 0.43186 0.68886 0.7445 0.0
Cd30 Cd 0.33589 0.5963 0.74697 0.0
O31 O 0.32865 0.61592 0.72406 0.0
O32 O 0.48052 0.76924 0.74764 0.0
O33 O 0.39441 0.72633 0.75248 0.0
C34 C 0.43844 0.77077 0.75182 0.0
C35 C 0.29709 0.60442 0.76969 0.0
C36 C 0.36908 0.64373 0.71544 0.0
C37 C 0.42952 0.58777 0.75566 0.0
O38 O 0.38246 0.56257 0.75016 0.0
O39 O 0.4539 0.6387 0.75662 0.0
O40 O 0.27006 0.56404 0.76071 0.0
O41 O 0.34392 0.6399 0.76527 0.0
O42 O 0.69877 0.44389 0.06502 0.0
Cd43 Cd 0.71148 0.48337 0.08569 0.0
Cd44 Cd 0.70152 0.39395 0.09637 0.0
O45 O 0.66264 0.36355 0.07535 0.0
O46 O 0.69606 0.54368 0.08265 0.0
O47 O 0.64269 0.47009 0.09559 0.0
C48 C 0.65194 0.51528 0.09005 0.0
C49 C 0.66511 0.37903 0.12119 0.0
C50 C 0.67366 0.39356 0.06345 0.0
C51 C 0.81059 0.4841 0.0969 0.0
O52 O 0.78342 0.43374 0.09568 0.0
O53 O 0.78755 0.51186 0.09563 0.0
O54 O 0.67318 0.3437 0.11461 0.0
O55 O 0.67505 0.42095 0.11332 0.0
O56 O 0.40032 0.754 0.38889 0.0
Cd57 Cd 0.38337 0.75661 0.41189 0.0
Cd58 Cd 0.47474 0.7453 0.41354 0.0
O59 O 0.45868 0.72572 0.3902 0.0
O60 O 0.30804 0.74535 0.4131 0.0
O61 O 0.32835 0.68473 0.42051 0.0
C62 C 0.29255 0.6979 0.41825 0.0
C63 C 0.44872 0.68765 0.43482 0.0
C64 C 0.42884 0.73784 0.38225 0.0
C65 C 0.48832 0.84979 0.4233 0.0
O66 O 0.51135 0.82514 0.41835 0.0
O67 O 0.43733 0.82691 0.42365 0.0
O68 O 0.49498 0.7037 0.42865 0.0
O69 O 0.41823 0.70282 0.42847 0.0
O70 O 0.57955 0.25178 0.73346 0.0
Cd71 Cd 0.53892 0.22816 0.75398 0.0
Cd72 Cd 0.63567 0.29364 0.76528 0.0
O73 O 0.66042 0.28479 0.74335 0.0
O74 O 0.47417 0.15511 0.75111 0.0
O75 O 0.54592 0.16946 0.76423 0.0
C76 C 0.50001 0.13613 0.75856 0.0
C77 C 0.65538 0.27029 0.78941 0.0
C78 C 0.62942 0.27096 0.73161 0.0
C79 C 0.55701 0.33183 0.76654 0.0
O80 O 0.60601 0.34483 0.76653 0.0
O81 O 0.5212 0.2839 0.76362 0.0
O82 O 0.69084 0.31201 0.78208 0.0
O83 O 0.61056 0.24056 0.78255 0.0
O84 O 0.47695 0.70606 0.60115 0.0
Cd85 Cd 0.51829 0.7238 0.58078 0.0
Cd86 Cd 0.42197 0.6928 0.56902 0.0
O87 O 0.39677 0.65774 0.59094 0.0
O88 O 0.58308 0.71519 0.58385 0.0
O89 O 0.51142 0.65841 0.57076 0.0
C90 C 0.5573 0.67066 0.57649 0.0
C91 C 0.40514 0.65188 0.54477 0.0
C92 C 0.42714 0.67473 0.60281 0.0
C93 C 0.49963 0.80934 0.5679 0.0
O94 O 0.45069 0.77339 0.56788 0.0
O95 O 0.5356 0.7972 0.57091 0.0
O96 O 0.36832 0.65639 0.55185 0.0
O97 O 0.44968 0.66754 0.5519 0.0
O98 O 0.6551 0.37525 0.94518 0.0
Cd99 Cd 0.66566 0.40751 0.92314 0.0
Cd100 Cd 0.58707 0.29662 0.91965 0.0
O101 O 0.59934 0.28868 0.94298 0.0
O102 O 0.74088 0.47184 0.92396 0.0
O103 O 0.71715 0.40386 0.90832 0.0
C104 C 0.75423 0.44778 0.91392 0.0
C105 C 0.61571 0.26523 0.89915 0.0
C106 C 0.62897 0.3291 0.95128 0.0
C107 C 0.5559 0.38247 0.913 0.0
O108 O 0.54367 0.33385 0.91444 0.0
O109 O 0.60389 0.41989 0.91519 0.0
O110 O 0.56856 0.23547 0.90484 0.0
O111 O 0.64593 0.31018 0.90568 0.0
O112 O 0.34901 0.79461 0.27024 0.0
Cd113 Cd 0.33364 0.82428 0.25057 0.0
Cd114 Cd 0.36112 0.75689 0.23675 0.0
O115 O 0.39651 0.76439 0.25859 0.0
O116 O 0.3627 0.90465 0.25185 0.0
O117 O 0.40172 0.86715 0.23944 0.0
C118 C 0.4034 0.90987 0.24418 0.0
C119 C 0.40171 0.77283 0.21227 0.0
C120 C 0.38019 0.77551 0.27098 0.0
C121 C 0.24533 0.72507 0.2364 0.0
O122 O 0.27975 0.70999 0.2359 0.0
O123 O 0.25938 0.77295 0.24014 0.0
O124 O 0.39382 0.73194 0.22042 0.0
O125 O 0.38913 0.80544 0.2183 0.0
O126 O 0.63749 0.28474 0.61298 0.0
Cd127 Cd 0.62184 0.28821 0.58996 0.0
Cd128 Cd 0.7176 0.29294 0.5872 0.0
O129 O 0.72435 0.31826 0.61016 0.0
O130 O 0.57391 0.32101 0.58671 0.0
O131 O 0.66057 0.36407 0.58269 0.0
C132 C 0.61659 0.36486 0.58303 0.0
C133 C 0.75622 0.34164 0.56458 0.0
C134 C 0.68385 0.30384 0.61888 0.0
C135 C 0.62565 0.19129 0.57839 0.0
O136 O 0.67263 0.21294 0.58396 0.0
O137 O 0.60088 0.21763 0.57748 0.0
O138 O 0.78387 0.3289 0.5737 0.0
O139 O 0.7086 0.32832 0.56873 0.0
O140 O 0.23374 0.57626 0.93577 0.0
Cd141 Cd 0.20594 0.5273 0.91669 0.0
Cd142 Cd 0.29772 0.61654 0.90588 0.0
O143 O 0.29637 0.65314 0.92629 0.0
O144 O 0.12779 0.47654 0.9218 0.0
O145 O 0.15405 0.53373 0.90234 0.0
C146 C 0.11567 0.49843 0.91059 0.0
C147 C 0.27732 0.63128 0.88084 0.0
C148 C 0.26796 0.62522 0.93764 0.0
C149 C 0.30058 0.51443 0.90868 0.0
O150 O 0.32692 0.56497 0.90765 0.0
O151 O 0.24999 0.49006 0.9107 0.0
O152 O 0.32473 0.66123 0.88639 0.0
O153 O 0.24185 0.59625 0.88992 0.0
O154 O 0.7624 0.38265 0.2777 0.0
Cd155 Cd 0.76696 0.36538 0.25485 0.0
Cd156 Cd 0.75651 0.45764 0.25266 0.0
O157 O 0.73592 0.4423 0.276 0.0
O158 O 0.75619 0.29035 0.25411 0.0
O159 O 0.6961 0.31019 0.24575 0.0
C160 C 0.70927 0.27464 0.24845 0.0
C161 C 0.69963 0.43028 0.23121 0.0
C162 C 0.74671 0.41187 0.28414 0.0
C163 C 0.86126 0.46975 0.24337 0.0
O164 O 0.83662 0.49325 0.24796 0.0
O165 O 0.83814 0.41884 0.24334 0.0
O166 O 0.71553 0.47691 0.23699 0.0
O167 O 0.71435 0.40023 0.23806 0.0
H168 H 0.22127 0.57049 0.96406 0.0
H169 H 0.3368 0.72834 0.94752 0.0
H170 H 0.35668 0.75959 0.97477 0.0
H171 H 0.17253 0.60997 0.9972 0.0
H172 H 0.1667 0.55549 0.00889 0.0
H173 H 0.15863 0.54843 0.98817 0.0
H174 H 0.23278 0.52302 0.98703 0.0
H175 H 0.24144 0.53045 0.0077 0.0
H176 H 0.29763 0.56766 0.99506 0.0
H177 H 0.36579 0.77116 0.00469 0.0
H178 H 0.36465 0.76093 0.03336 0.0
H179 H 0.24602 0.59386 0.02877 0.0
C180 C 0.25017 0.61199 0.96603 0.0
C181 C 0.27719 0.64705 0.95359 0.0
C182 C 0.31527 0.70079 0.95685 0.0
C183 C 0.32683 0.71883 0.97229 0.0
C184 C 0.30008 0.68257 0.98428 0.0
C185 C 0.2625 0.63025 0.98121 0.0
C186 C 0.24143 0.59774 0.99588 0.0
C187 C 0.18127 0.57669 0.99764 0.0
C188 C 0.25411 0.55205 0.99644 0.0
C189 C 0.27325 0.63963 0.00781 0.0
C190 C 0.30654 0.68858 0.00105 0.0
C191 C 0.33977 0.73294 0.01005 0.0
C192 C 0.33891 0.72681 0.02631 0.0
C193 C 0.30563 0.67651 0.03331 0.0
C194 C 0.27241 0.63276 0.02383 0.0
H195 H 0.79883 0.33307 0.36783 0.0
H196 H 0.74302 0.43298 0.38815 0.0
H197 H 0.72447 0.45482 0.36174 0.0
H198 H 0.8643 0.41518 0.33532 0.0
H199 H 0.84562 0.35969 0.32253 0.0
H200 H 0.85341 0.35246 0.34297 0.0
H201 H 0.75718 0.27186 0.34412 0.0
H202 H 0.74902 0.27894 0.32369 0.0
H203 H 0.70234 0.27958 0.33732 0.0
H204 H 0.71464 0.46678 0.33218 0.0
H205 H 0.71391 0.4665 0.30336 0.0
H206 H 0.7746 0.35639 0.30397 0.0
C207 C 0.78275 0.35965 0.36685 0.0
C208 C 0.77261 0.38148 0.38011 0.0
C209 C 0.75118 0.41579 0.37816 0.0
C210 C 0.74053 0.42838 0.36321 0.0
C211 C 0.7512 0.40602 0.35038 0.0
C212 C 0.7717 0.37222 0.35217 0.0
C213 C 0.78005 0.35309 0.33679 0.0
C214 C 0.83936 0.37121 0.33426 0.0
C215 C 0.74505 0.29227 0.3354 0.0
C216 C 0.76138 0.38154 0.32592 0.0
C217 C 0.74486 0.41204 0.33384 0.0
C218 C 0.72724 0.44273 0.32592 0.0
C219 C 0.72691 0.44232 0.30956 0.0
C220 C 0.74396 0.41128 0.30134 0.0
C221 C 0.76093 0.38039 0.30978 0.0
H222 H 0.44937 0.69364 0.69446 0.0
H223 H 0.27794 0.58964 0.69749 0.0
H224 H 0.27267 0.58479 0.66877 0.0
H225 H 0.45027 0.767 0.6607 0.0
H226 H 0.51034 0.7714 0.65317 0.0
H227 H 0.49919 0.76708 0.67378 0.0
H228 H 0.51149 0.68438 0.67517 0.0
H229 H 0.52229 0.6882 0.65455 0.0
H230 H 0.47056 0.62758 0.66317 0.0
H231 H 0.2881 0.59162 0.63909 0.0
H232 H 0.32227 0.61039 0.61209 0.0
H233 H 0.48311 0.70791 0.62983 0.0
C234 C 0.41047 0.67003 0.68918 0.0
C235 C 0.36402 0.64217 0.69828 0.0
C236 C 0.31411 0.61153 0.69077 0.0
C237 C 0.31076 0.60847 0.67446 0.0
C238 C 0.35768 0.63612 0.66587 0.0
C239 C 0.40651 0.66634 0.67306 0.0
C240 C 0.45139 0.69183 0.66147 0.0
C241 C 0.47942 0.75294 0.66233 0.0
C242 C 0.49126 0.67178 0.66373 0.0
C243 C 0.42043 0.67148 0.64654 0.0
C244 C 0.36643 0.63941 0.64919 0.0
C245 C 0.33035 0.61666 0.63693 0.0
C246 C 0.3501 0.62743 0.62164 0.0
C247 C 0.40539 0.66055 0.61878 0.0
C248 C 0.44063 0.68232 0.6315 0.0
H249 H 0.70473 0.44791 0.03607 0.0
H250 H 0.61182 0.28808 0.05491 0.0
H251 H 0.59125 0.25215 0.02817 0.0
H252 H 0.62065 0.43178 0.00379 0.0
H253 H 0.67562 0.4727 0.99111 0.0
H254 H 0.6821 0.48449 0.01168 0.0
H255 H 0.76628 0.47433 0.01207 0.0
H256 H 0.75984 0.46216 0.99152 0.0
H257 H 0.76221 0.4145 0.00458 0.0
H258 H 0.57997 0.23492 0.9986 0.0
H259 H 0.5795 0.23864 0.96983 0.0
H260 H 0.68269 0.41014 0.97166 0.0
C261 C 0.67986 0.40529 0.03467 0.0
C262 C 0.65971 0.37085 0.04762 0.0
C263 C 0.62766 0.3153 0.04516 0.0
C264 C 0.61583 0.29455 0.03001 0.0
C265 C 0.63669 0.32987 0.0175 0.0
C266 C 0.66813 0.38408 0.01976 0.0
C267 C 0.68611 0.41406 0.00458 0.0
C268 C 0.66483 0.45303 0.00268 0.0
C269 C 0.74723 0.44295 0.00311 0.0
C270 C 0.65967 0.36843 0.99332 0.0
C271 C 0.63121 0.32004 0.00087 0.0
C272 C 0.60244 0.27266 0.99262 0.0
C273 C 0.60245 0.2751 0.97628 0.0
C274 C 0.63122 0.32459 0.96841 0.0
C275 C 0.6605 0.37148 0.97719 0.0
H276 H 0.34636 0.78979 0.29898 0.0
H277 H 0.44903 0.73792 0.27822 0.0
H278 H 0.47252 0.72032 0.3045 0.0
H279 H 0.42903 0.85619 0.33147 0.0
H280 H 0.37339 0.83606 0.3444 0.0
H281 H 0.36562 0.84413 0.324 0.0
H282 H 0.28621 0.74735 0.32286 0.0
H283 H 0.29389 0.73888 0.34324 0.0
H284 H 0.29548 0.69329 0.32944 0.0
H285 H 0.48476 0.70953 0.33387 0.0
H286 H 0.48454 0.70739 0.36267 0.0
H287 H 0.37188 0.76511 0.36277 0.0
C288 C 0.37392 0.77482 0.29985 0.0
C289 C 0.39592 0.76536 0.2865 0.0
C290 C 0.43169 0.74556 0.28828 0.0
C291 C 0.44519 0.7354 0.30316 0.0
C292 C 0.42242 0.74508 0.31608 0.0
C293 C 0.38751 0.76435 0.31447 0.0
C294 C 0.36811 0.77167 0.32996 0.0
C295 C 0.38507 0.8305 0.33261 0.0
C296 C 0.30733 0.73564 0.33145 0.0
C297 C 0.39758 0.75366 0.34066 0.0
C298 C 0.42883 0.73843 0.33257 0.0
C299 C 0.46022 0.72123 0.34028 0.0
C300 C 0.45981 0.72006 0.35663 0.0
C301 C 0.42812 0.73591 0.36504 0.0
C302 C 0.39648 0.75246 0.3568 0.0
H303 H 0.57221 0.24754 0.70478 0.0
H304 H 0.73417 0.31349 0.72203 0.0
H305 H 0.76741 0.33034 0.69494 0.0
H306 H 0.58593 0.18231 0.6714 0.0
H307 H 0.54333 0.19715 0.65958 0.0
H308 H 0.53352 0.18947 0.68023 0.0
H309 H 0.54262 0.28302 0.68171 0.0
H310 H 0.55287 0.29118 0.66107 0.0
H311 H 0.60153 0.33986 0.67405 0.0
H312 H 0.78187 0.34059 0.66528 0.0
H313 H 0.7757 0.34165 0.63658 0.0
H314 H 0.60381 0.27041 0.64006 0.0
C315 C 0.61474 0.26526 0.70297 0.0
C316 C 0.65056 0.27909 0.71558 0.0
C317 C 0.7059 0.30239 0.71256 0.0
C318 C 0.72512 0.31219 0.69722 0.0
C319 C 0.68848 0.29854 0.68507 0.0
C320 C 0.63442 0.27544 0.68787 0.0
C321 C 0.60286 0.26487 0.67302 0.0
C322 C 0.56415 0.2049 0.67094 0.0
C323 C 0.57325 0.29664 0.67243 0.0
C324 C 0.64748 0.28567 0.66133 0.0
C325 C 0.69668 0.3049 0.66838 0.0
C326 C 0.74347 0.32564 0.65968 0.0
C327 C 0.73962 0.3262 0.64339 0.0
C328 C 0.68932 0.30629 0.63602 0.0
C329 C 0.64298 0.2862 0.64523 0.0
H330 H 0.37987 0.82462 0.18961 0.0
H331 H 0.45985 0.73394 0.19801 0.0
H332 H 0.47924 0.73762 0.16995 0.0
H333 H 0.31166 0.75479 0.15806 0.0
H334 H 0.31355 0.80969 0.14752 0.0
H335 H 0.31818 0.81179 0.16829 0.0
H336 H 0.4072 0.90133 0.16663 0.0
H337 H 0.4029 0.89928 0.14575 0.0
H338 H 0.46142 0.90568 0.1553 0.0
H339 H 0.47815 0.7395 0.14116 0.0
H340 H 0.44696 0.72847 0.11413 0.0
H341 H 0.36279 0.81354 0.12415 0.0
C342 C 0.40324 0.80726 0.18561 0.0
C343 C 0.41934 0.77985 0.19597 0.0
C344 C 0.44779 0.75566 0.19026 0.0
C345 C 0.45928 0.75796 0.17437 0.0
C346 C 0.44169 0.78427 0.16439 0.0
C347 C 0.41389 0.80819 0.16979 0.0
C348 C 0.39128 0.82568 0.15655 0.0
C349 C 0.33008 0.79886 0.15767 0.0
C350 C 0.41727 0.88662 0.15603 0.0
C351 C 0.40829 0.80543 0.14283 0.0
C352 C 0.43894 0.78338 0.1476 0.0
C353 C 0.45502 0.75744 0.13728 0.0
C354 C 0.43707 0.7514 0.12192 0.0
C355 C 0.40266 0.7704 0.11704 0.0
C356 C 0.39016 0.79988 0.12746 0.0
H357 H 0.71353 0.37982 0.4761 0.0
H358 H 0.88201 0.43637 0.46947 0.0
H359 H 0.89555 0.44214 0.49775 0.0
H360 H 0.72962 0.45898 0.51291 0.0
H361 H 0.66963 0.40454 0.52096 0.0
H362 H 0.67536 0.41595 0.5003 0.0
H363 H 0.65399 0.31881 0.49611 0.0
H364 H 0.649 0.30732 0.51668 0.0
H365 H 0.69478 0.29588 0.50551 0.0
H366 H 0.88733 0.42314 0.52633 0.0
H367 H 0.85866 0.38912 0.55306 0.0
H368 H 0.69688 0.34892 0.54118 0.0
C369 C 0.75363 0.3957 0.48059 0.0
C370 C 0.79664 0.40774 0.47058 0.0
C371 C 0.84839 0.42703 0.47691 0.0
C372 C 0.85656 0.43051 0.49299 0.0
C373 C 0.8128 0.41544 0.50261 0.0
C374 C 0.76251 0.39958 0.49665 0.0
C375 C 0.72124 0.38025 0.50942 0.0
C376 C 0.69758 0.41715 0.51099 0.0
C377 C 0.67721 0.32214 0.50676 0.0
C378 C 0.75562 0.38498 0.5233 0.0
C379 C 0.80843 0.40584 0.51921 0.0
C380 C 0.84637 0.40823 0.52979 0.0
C381 C 0.82977 0.38859 0.54491 0.0
C382 C 0.77578 0.36702 0.54926 0.0
C383 C 0.73873 0.36625 0.53834 0.0
H384 H 0.35563 0.67422 0.79232 0.0
H385 H 0.19697 0.54333 0.78241 0.0
H386 H 0.17044 0.54633 0.80951 0.0
H387 H 0.36815 0.62742 0.82777 0.0
H388 H 0.40567 0.6917 0.83679 0.0
H389 H 0.40871 0.6858 0.81615 0.0
H390 H 0.37861 0.7556 0.81198 0.0
H391 H 0.3755 0.76179 0.83268 0.0
H392 H 0.31782 0.74527 0.82082 0.0
H393 H 0.16478 0.55746 0.83828 0.0
H394 H 0.18154 0.57015 0.86638 0.0
H395 H 0.34568 0.69131 0.85749 0.0
C396 C 0.31477 0.64706 0.79568 0.0
C397 C 0.27809 0.60887 0.7852 0.0
C398 C 0.22552 0.57319 0.79021 0.0
C399 C 0.21012 0.57481 0.80555 0.0
C400 C 0.24781 0.61229 0.81567 0.0
C401 C 0.29912 0.6477 0.81091 0.0
C402 C 0.33411 0.67965 0.82436 0.0
C403 C 0.38194 0.67055 0.82638 0.0
C404 C 0.35258 0.73911 0.82233 0.0
C405 C 0.29504 0.65547 0.8376 0.0
C406 C 0.24514 0.61759 0.83232 0.0
C407 C 0.20347 0.58747 0.8425 0.0
C408 C 0.21347 0.59503 0.85848 0.0
C409 C 0.26499 0.63186 0.86416 0.0
C410 C 0.30575 0.66344 0.85353 0.0
H411 H 0.68421 0.45981 0.14089 0.0
H412 H 0.61477 0.28838 0.13894 0.0
H413 H 0.5998 0.2827 0.16726 0.0
H414 H 0.75845 0.47641 0.17344 0.0
H415 H 0.75196 0.53 0.1816 0.0
H416 H 0.74634 0.51962 0.16101 0.0
H417 H 0.65345 0.51259 0.16128 0.0
H418 H 0.65879 0.52287 0.18196 0.0
H419 H 0.60216 0.46487 0.17391 0.0
H420 H 0.60407 0.29643 0.19574 0.0
H421 H 0.63375 0.32835 0.22231 0.0
H422 H 0.70359 0.49167 0.20623 0.0
C423 C 0.66411 0.42089 0.14635 0.0
C424 C 0.64977 0.37436 0.13771 0.0
C425 C 0.6255 0.32439 0.14533 0.0
C426 C 0.61659 0.32082 0.1614 0.0
C427 C 0.6324 0.36762 0.16966 0.0
C428 C 0.65583 0.41679 0.16241 0.0
C429 C 0.67626 0.46153 0.17414 0.0
C430 C 0.73682 0.49906 0.17244 0.0
C431 C 0.64584 0.49228 0.17274 0.0
C432 C 0.66278 0.42999 0.18917 0.0
C433 C 0.63622 0.37582 0.18629 0.0
C434 C 0.62393 0.33864 0.19815 0.0
C435 C 0.641 0.3572 0.21322 0.0
C436 C 0.67047 0.41248 0.21634 0.0
C437 C 0.67979 0.44924 0.20425 0.0
H438 H 0.4846 0.67022 0.52451 0.0
H439 H 0.31282 0.59892 0.52777 0.0
H440 H 0.30521 0.58366 0.49947 0.0
H441 H 0.49833 0.74382 0.49236 0.0
H442 H 0.55168 0.73808 0.48362 0.0
H443 H 0.54283 0.73188 0.50427 0.0
H444 H 0.5364 0.63949 0.50351 0.0
H445 H 0.5453 0.64544 0.48277 0.0
H446 H 0.488 0.58842 0.49103 0.0
H447 H 0.31711 0.58962 0.47088 0.0
H448 H 0.34724 0.62099 0.44424 0.0
H449 H 0.51191 0.69073 0.45914 0.0
C450 C 0.44518 0.64955 0.51936 0.0
C451 C 0.39915 0.63499 0.52837 0.0
C452 C 0.3485 0.60985 0.52112 0.0
C453 C 0.34384 0.6008 0.50506 0.0
C454 C 0.39021 0.61717 0.49643 0.0
C455 C 0.43998 0.641 0.50334 0.0
C456 C 0.484 0.66203 0.49129 0.0
C457 C 0.52135 0.72251 0.49299 0.0
C458 C 0.51527 0.63204 0.49221 0.0
C459 C 0.45136 0.64873 0.4765 0.0
C460 C 0.39729 0.6216 0.47974 0.0
C461 C 0.35923 0.60977 0.46818 0.0
C462 C 0.37676 0.62782 0.45307 0.0
C463 C 0.43191 0.65771 0.44961 0.0
C464 C 0.46957 0.66657 0.46137 0.0
H465 H 0.55356 0.20208 0.87537 0.0
H466 H 0.71785 0.30412 0.88951 0.0
H467 H 0.7478 0.3027 0.86294 0.0
H468 H 0.58152 0.12545 0.84413 0.0
H469 H 0.53075 0.12472 0.83174 0.0
H470 H 0.52312 0.12243 0.85252 0.0
H471 H 0.51097 0.20508 0.85107 0.0
H472 H 0.51911 0.20803 0.8304 0.0
H473 H 0.56189 0.26527 0.84201 0.0
H474 H 0.75849 0.30722 0.83433 0.0
H475 H 0.74886 0.3133 0.80599 0.0
H476 H 0.57828 0.20689 0.81006 0.0
C477 C 0.59593 0.22182 0.87302 0.0
C478 C 0.6334 0.25263 0.88452 0.0
C479 C 0.68848 0.27982 0.88089 0.0
C480 C 0.70592 0.27918 0.86582 0.0
C481 C 0.66786 0.25081 0.85449 0.0
C482 C 0.61399 0.22184 0.85794 0.0
C483 C 0.58092 0.20082 0.84329 0.0
C484 C 0.5524 0.13972 0.8429 0.0
C485 C 0.54092 0.22104 0.8416 0.0
C486 C 0.62427 0.22511 0.83109 0.0
C487 C 0.67424 0.25304 0.83778 0.0
C488 C 0.71976 0.28417 0.82891 0.0
C489 C 0.71395 0.28759 0.81283 0.0
C490 C 0.663 0.26001 0.8058 0.0
C491 C 0.61796 0.2273 0.81504 0.0
H492 H 0.87581 0.44222 0.09147 0.0
H493 H 0.87842 0.58534 0.10727 0.0
H494 H 0.97638 0.62945 0.1103 0.0
H495 H 0.98409 0.45211 0.11621 0.0
H496 H 1.01061 0.4288 0.10126 0.0
H497 H 0.9403 0.40671 0.10168 0.0
H498 H 0.94512 0.4401 0.07346 0.0
H499 H 1.01528 0.46204 0.07293 0.0
H500 H 0.99242 0.50838 0.06868 0.0
H501 H 0.07401 0.65932 0.11046 0.0
H502 H 0.16492 0.67576 0.10595 0.0
H503 H 0.10019 0.5141 0.08925 0.0
C504 C 0.89686 0.48258 0.09581 0.0
C505 C 0.86926 0.51018 0.09928 0.0
C506 C 0.89855 0.56334 0.10459 0.0
C507 C 0.9542 0.58861 0.10641 0.0
C508 C 0.98013 0.56036 0.10281 0.0
C509 C 0.9525 0.50862 0.09752 0.0
C510 C 0.99036 0.48854 0.09337 0.0
C511 C 0.98076 0.44123 0.10375 0.0
C512 C 0.9855 0.47392 0.07608 0.0
C513 C 0.04376 0.53736 0.09693 0.0
C514 C 0.03675 0.57802 0.10256 0.0
C515 C 0.07993 0.62768 0.10614 0.0
C516 C 0.13154 0.63659 0.10352 0.0
C517 C 0.14001 0.59623 0.09727 0.0
C518 C 0.09529 0.54554 0.09425 0.0
H519 H 0.74444 0.14236 0.41997 0.0
H520 H 0.65378 0.19485 0.4473 0.0
H521 H 0.58121 0.10221 0.44996 0.0
H522 H 0.63632 0.04535 0.39888 0.0
H523 H 0.65851 0.99723 0.39864 0.0
H524 H 0.70647 0.06704 0.40019 0.0
H525 H 0.74401 0.04914 0.42546 0.0
H526 H 0.69637 0.9791 0.42391 0.0
H527 H 0.69948 1.01451 0.44133 0.0
H528 H 0.51375 1.00542 0.44727 0.0
H529 H 0.45891 0.91 0.44072 0.0
H530 H 0.59307 0.91859 0.41587 0.0
C531 C 0.70996 0.13418 0.42685 0.0
C532 C 0.70509 0.17617 0.43343 0.0
C533 C 0.65865 0.16364 0.4421 0.0
C534 C 0.61705 0.11098 0.44371 0.0
C535 C 0.62226 0.07075 0.4367 0.0
C536 C 0.66774 0.08148 0.4286 0.0
C537 C 0.66173 0.03092 0.42155 0.0
C538 C 0.666 0.03543 0.40376 0.0
C539 C 0.70284 0.01763 0.42848 0.0
C540 C 0.60549 0.99064 0.42665 0.0
C541 C 0.58348 1.01445 0.43541 0.0
C542 C 0.53086 0.98609 0.44063 0.0
C543 C 0.49989 0.93193 0.43681 0.0
C544 C 0.52166 0.9065 0.42793 0.0
C545 C 0.5754 0.93647 0.42292 0.0
H546 H 0.46299 0.33011 0.75915 0.0
H547 H 0.62055 0.43071 0.77867 0.0
H548 H 0.60321 0.50572 0.77963 0.0
H549 H 0.46344 0.427 0.73455 0.0
H550 H 0.39397 0.4065 0.73702 0.0
H551 H 0.41611 0.35881 0.73942 0.0
H552 H 0.37552 0.33592 0.76702 0.0
H553 H 0.35288 0.38332 0.76465 0.0
H554 H 0.39448 0.38846 0.78095 0.0
H555 H 0.57205 0.57261 0.77628 0.0
H556 H 0.52791 0.62459 0.76954 0.0
H557 H 0.3909 0.48061 0.75233 0.0
C558 C 0.49332 0.36751 0.76397 0.0
C559 C 0.54306 0.37426 0.76889 0.0
C560 C 0.58208 0.42436 0.77484 0.0
C561 C 0.57262 0.46733 0.77545 0.0
C562 C 0.52382 0.45982 0.77013 0.0
C563 C 0.48462 0.41105 0.76462 0.0
C564 C 0.43686 0.41447 0.75877 0.0
C565 C 0.42705 0.4009 0.74141 0.0
C566 C 0.38699 0.3784 0.76843 0.0
C567 C 0.4558 0.47287 0.76158 0.0
C568 C 0.50592 0.49834 0.76822 0.0
C569 C 0.53249 0.55291 0.77124 0.0
C570 C 0.50717 0.5822 0.76734 0.0
C571 C 0.45581 0.5569 0.76047 0.0
C572 C 0.42995 0.50134 0.7577 0.0
H573 H 0.66491 0.12295 0.58171 0.0
H574 H 0.52754 0.13057 0.56442 0.0
H575 H 0.48376 0.03496 0.55774 0.0
H576 H 0.6617 0.02834 0.55321 0.0
H577 H 0.68108 0.99468 0.56725 0.0
H578 H 0.70321 0.06446 0.56946 0.0
H579 H 0.66247 0.04611 0.59703 0.0
H580 H 0.64033 0.97641 0.59492 0.0
H581 H 0.59302 0.99742 0.59963 0.0
H582 H 0.45286 0.93727 0.55454 0.0
H583 H 0.43576 0.84506 0.55568 0.0
H584 H 0.59349 0.9011 0.5752 0.0
C585 C 0.6259 0.1049 0.57632 0.0
C586 C 0.5998 0.1346 0.57352 0.0
C587 C 0.54847 0.1089 0.56663 0.0
C588 C 0.52336 0.0546 0.56276 0.0
C589 C 0.55012 0.02654 0.56583 0.0
C590 C 0.60029 0.05087 0.57244 0.0
C591 C 0.6193 1.01128 0.57537 0.0
C592 C 0.66929 0.02555 0.56575 0.0
C593 C 0.62935 1.0076 0.59277 0.0
C594 C 0.57155 0.96048 0.56963 0.0
C595 C 0.53229 0.97028 0.56404 0.0
C596 C 0.48352 0.9293 0.55877 0.0
C597 C 0.4742 0.87694 0.55948 0.0
C598 C 0.51335 0.86566 0.56547 0.0
C599 C 0.56305 0.90834 0.57034 0.0
H600 H 0.40859 0.55481 0.91133 0.0
H601 H 0.26003 0.40691 0.9043 0.0
H602 H 0.31036 0.35856 0.90299 0.0
H603 H 0.4915 0.52648 0.88623 0.0
H604 H 0.54864 0.55738 0.89892 0.0
H605 H 0.50136 0.5807 0.89853 0.0
H606 H 0.48768 0.5653 0.92818 0.0
H607 H 0.53504 0.54218 0.92868 0.0
H608 H 0.46869 0.50058 0.93617 0.0
H609 H 0.37678 0.32642 0.90282 0.0
H610 H 0.45262 0.31096 0.90551 0.0
H611 H 0.55863 0.47977 0.91346 0.0
C612 C 0.38651 0.51228 0.90938 0.0
C613 C 0.33017 0.4847 0.9078 0.0
C614 C 0.30302 0.42894 0.90551 0.0
C615 C 0.33135 0.40121 0.90469 0.0
C616 C 0.3868 0.42972 0.90628 0.0
C617 C 0.41406 0.48398 0.90869 0.0
C618 C 0.47344 0.50485 0.91077 0.0
C619 C 0.50563 0.54471 0.89784 0.0
C620 C 0.4923 0.52968 0.92691 0.0
C621 C 0.47543 0.45375 0.90926 0.0
C622 C 0.42503 0.41104 0.90652 0.0
C623 C 0.41636 0.35959 0.90495 0.0
C624 C 0.45996 0.35129 0.90651 0.0
C625 C 0.51198 0.3941 0.90973 0.0
C626 C 0.51967 0.4462 0.91089 0.0
H627 H 0.15368 0.72657 0.24496 0.0
H628 H 0.20848 0.63097 0.22132 0.0
H629 H 0.11588 0.55785 0.21893 0.0
H630 H 0.05521 0.62278 0.26719 0.0
H631 H 1.00696 0.64477 0.26595 0.0
H632 H 0.07698 0.69239 0.26438 0.0
H633 H 0.06067 0.72462 0.23788 0.0
H634 H 0.99042 0.67728 0.23942 0.0
H635 H 0.02714 0.67704 0.22263 0.0
H636 H 1.01869 0.49122 0.22144 0.0
H637 H 0.92273 0.43761 0.2277 0.0
H638 H 0.92946 0.57584 0.24918 0.0
C639 C 0.14603 0.69078 0.23894 0.0
C640 C 0.18859 0.68477 0.23331 0.0
C641 C 0.17678 0.63672 0.22577 0.0
C642 C 0.12417 0.59482 0.22431 0.0
C643 C 0.08332 0.60132 0.23037 0.0
C644 C 0.09343 0.64822 0.2374 0.0
C645 C 0.04227 0.64349 0.24366 0.0
C646 C 0.04558 0.65131 0.26134 0.0
C647 C 0.02937 0.68295 0.2354 0.0
C648 C 1.00234 0.58638 0.23935 0.0
C649 C 0.02685 0.56286 0.23164 0.0
C650 C 0.99884 0.50944 0.22728 0.0
C651 C 0.94435 0.4792 0.23092 0.0
C652 C 0.91825 0.50243 0.23881 0.0
C653 C 0.94786 0.55696 0.24292 0.0
H654 H 0.54333 0.45426 0.0876 0.0
H655 H 0.67096 0.61593 0.09529 0.0
H656 H 0.60459 0.64589 0.09714 0.0
H657 H 0.46835 0.49113 0.06251 0.0
H658 H 0.40404 0.43942 0.0691 0.0
H659 H 0.46069 0.4295 0.07005 0.0
H660 H 0.44487 0.40928 0.09946 0.0
H661 H 0.38818 0.41928 0.09861 0.0
H662 H 0.44178 0.45708 0.11204 0.0
H663 H 0.52535 0.65824 0.09812 0.0
H664 H 0.4399 0.65588 0.09495 0.0
H665 H 0.36224 0.48738 0.08408 0.0
C666 C 0.55706 0.4958 0.08992 0.0
C667 C 0.61214 0.53282 0.09158 0.0
C668 C 0.62894 0.58706 0.09412 0.0
C669 C 0.59152 0.60429 0.09524 0.0
C670 C 0.53752 0.56691 0.09348 0.0
C671 C 0.52026 0.51394 0.09063 0.0
C672 C 0.46035 0.48305 0.0878 0.0
C673 C 0.44763 0.4594 0.07139 0.0
C674 C 0.43213 0.4396 0.10022 0.0
C675 C 0.44665 0.52702 0.08947 0.0
C676 C 0.49179 0.57474 0.09305 0.0
C677 C 0.48981 0.62117 0.09526 0.0
C678 C 0.44077 0.61925 0.09347 0.0
C679 C 0.39402 0.57141 0.08923 0.0
C680 C 0.39708 0.5245 0.08734 0.0
H681 H 0.02939 0.4103 0.4147 0.0
H682 H 0.94342 0.48482 0.43327 0.0
H683 H 0.02703 0.57026 0.43491 0.0
H684 H 0.14876 0.48572 0.43931 0.0
H685 H 0.19415 0.49062 0.4243 0.0
H686 H 0.12748 0.43427 0.42489 0.0
H687 H 0.11175 0.45425 0.39662 0.0
H688 H 0.1782 0.51081 0.39599 0.0
H689 H 0.12172 0.51921 0.39174 0.0
H690 H 0.11809 0.65018 0.43204 0.0
H691 H 0.21346 0.71663 0.42797 0.0
H692 H 0.24301 0.59048 0.41372 0.0
C693 C 0.02836 0.44445 0.41929 0.0
C694 C 0.97958 0.4406 0.4238 0.0
C695 C 0.98007 0.48639 0.42976 0.0
C696 C 0.02744 0.53538 0.4307 0.0
C697 C 0.07459 0.53816 0.42593 0.0
C698 C 0.07577 0.49379 0.42064 0.0
C699 C 0.13228 0.50801 0.41643 0.0
C700 C 0.15181 0.47786 0.42686 0.0
C701 C 0.13619 0.49744 0.39917 0.0
C702 C 0.16213 0.56727 0.41989 0.0
C703 C 0.12795 0.58394 0.42519 0.0
C704 C 0.14551 0.63749 0.42817 0.0
C705 C 0.19958 0.67498 0.42578 0.0
C706 C 0.23557 0.65857 0.42077 0.0
C707 C 0.21648 0.60396 0.41787 0.0
H708 H 0.55901 0.08623 0.76011 0.0
H709 H 0.3961 0.05523 0.75841 0.0
H710 H 0.36331 0.95828 0.75842 0.0
H711 H 0.5387 0.98505 0.73356 0.0
H712 H 0.58369 0.9677 0.74306 0.0
H713 H 0.59426 0.03419 0.74467 0.0
H714 H 0.59261 0.02623 0.77463 0.0
H715 H 0.58213 0.95967 0.77311 0.0
H716 H 0.5361 0.97153 0.784 0.0
H717 H 0.3485 0.86541 0.75812 0.0
H718 H 0.3516 0.78271 0.75517 0.0
H719 H 0.52474 0.8733 0.75497 0.0
C720 C 0.51639 0.05895 0.76005 0.0
C721 C 0.47992 0.07812 0.75953 0.0
C722 C 0.42458 0.04133 0.75896 0.0
C723 C 0.40568 0.98627 0.759 0.0
C724 C 0.4427 0.96869 0.75936 0.0
C725 C 0.49692 1.0039 0.75972 0.0
C726 C 0.52825 0.97469 0.75876 0.0
C727 C 0.56328 0.99141 0.74414 0.0
C728 C 0.56175 0.98356 0.7735 0.0
C729 C 0.48316 0.91748 0.7577 0.0
C730 C 0.43421 0.91505 0.75834 0.0
C731 C 0.38659 0.86687 0.75759 0.0
C732 C 0.38888 0.82 0.75593 0.0
C733 C 0.43846 0.8213 0.75479 0.0
C734 C 0.48626 0.87088 0.7558 0.0
H735 H 0.49818 0.56229 0.5744 0.0
H736 H 0.66112 0.69279 0.57741 0.0
H737 H 0.69354 0.62816 0.57754 0.0
H738 H 0.51556 0.47813 0.60093 0.0
H739 H 0.47129 0.41718 0.59099 0.0
H740 H 0.46117 0.47352 0.58942 0.0
H741 H 0.46559 0.47056 0.55948 0.0
H742 H 0.47563 0.41408 0.56095 0.0
H743 H 0.52284 0.47287 0.5505 0.0
H744 H 0.70788 0.54969 0.57786 0.0
H745 H 0.70406 0.46337 0.58059 0.0
H746 H 0.53098 0.38241 0.57937 0.0
C747 C 0.54076 0.57729 0.57478 0.0
C748 C 0.57734 0.63263 0.57564 0.0
C749 C 0.63258 0.65065 0.57662 0.0
C750 C 0.65127 0.61422 0.57666 0.0
C751 C 0.61412 0.55991 0.57596 0.0
C752 C 0.55999 0.54142 0.57519 0.0
C753 C 0.52835 0.48097 0.57581 0.0
C754 C 0.49195 0.46131 0.59014 0.0
C755 C 0.49621 0.45829 0.56079 0.0
C756 C 0.57315 0.46825 0.57715 0.0
C757 C 0.62226 0.51445 0.57695 0.0
C758 C 0.66967 0.51332 0.57804 0.0
C759 C 0.66697 0.46387 0.57957 0.0
C760 C 0.61717 0.41586 0.58024 0.0
C761 C 0.56962 0.41826 0.57891 0.0
H762 H 0.0401 0.48195 0.93237 0.0
H763 H 0.06849 0.49412 0.88282 0.0
H764 H 0.9802 0.48608 0.8782 0.0
H765 H 0.89707 0.38948 0.93146 0.0
H766 H 0.88327 0.42212 0.94699 0.0
H767 H 0.94672 0.4247 0.94617 0.0
H768 H 0.99461 0.52771 0.9469 0.0
H769 H 0.93125 0.52544 0.94744 0.0
H770 H 0.97872 0.563 0.93245 0.0
H771 H 0.88732 0.47361 0.87902 0.0
H772 H 0.79815 0.46078 0.88529 0.0
H773 H 0.83431 0.46742 0.93431 0.0
C774 C 0.02711 0.48174 0.92055 0.0
C775 C 0.06048 0.48744 0.9079 0.0
C776 C 0.04309 0.48898 0.89263 0.0
C777 C 0.99315 0.48467 0.88991 0.0
C778 C 0.96156 0.48014 0.90263 0.0
C779 C 0.97794 0.479 0.91766 0.0
C780 C 0.93751 0.47647 0.92928 0.0
C781 C 0.91479 0.42513 0.93905 0.0
C782 C 0.962 0.52612 0.93963 0.0
C783 C 0.8956 0.47579 0.91845 0.0
C784 C 0.91004 0.47741 0.90311 0.0
C785 C 0.87609 0.47338 0.89098 0.0
C786 C 0.82573 0.46648 0.89462 0.0
C787 C 0.81036 0.46513 0.91023 0.0
C788 C 0.8461 0.47061 0.92227 0.0
H789 H 0.42095 1.01212 0.2493 0.0
H790 H 0.49932 0.92525 0.23456 0.0
H791 H 0.58508 1.00875 0.2334 0.0
H792 H 0.50143 0.12976 0.2244 0.0
H793 H 0.50321 0.17592 0.2386 0.0
H794 H 0.44695 0.1093 0.2378 0.0
H795 H 0.46102 0.09536 0.26679 0.0
H796 H 0.51746 0.16176 0.26764 0.0
H797 H 0.52497 0.10573 0.27317 0.0
H798 H 0.66438 0.09999 0.23648 0.0
H799 H 0.73002 0.19538 0.24055 0.0
H800 H 0.60083 0.22534 0.25096 0.0
C801 C 0.45603 1.01085 0.24563 0.0
C802 C 0.45315 0.96189 0.24206 0.0
C803 C 0.50015 0.96206 0.23732 0.0
C804 C 0.54931 1.00937 0.23666 0.0
C805 C 0.55107 0.05672 0.2405 0.0
C806 C 0.50561 0.05814 0.2446 0.0
C807 C 0.51894 0.11474 0.24808 0.0
C808 C 0.49097 0.13353 0.23653 0.0
C809 C 0.50476 0.11966 0.26492 0.0
C810 C 0.57892 0.1444 0.24563 0.0
C811 C 0.5967 0.11007 0.2414 0.0
C812 C 0.65089 0.12751 0.23951 0.0
C813 C 0.68789 0.1816 0.24189 0.0
C814 C 0.67044 0.2177 0.24583 0.0
C815 C 0.6152 0.19873 0.24764 0.0
loop_
_geom_bond_atom_site_label_1
_geom_bond_atom_site_label_2
_geom_bond_distance
_geom_bond_site_symmetry_2
_ccdc_geom_bond_type
O0 Cd1 2.223 . S
O0 C8 1.315 . S
Cd1 O0 2.223 . S
Cd1 O4 2.297 . S
Cd1 O5 2.439 . S
Cd1 O11 2.240 . S
Cd2 O3 2.240 . S
Cd2 O10 2.223 . S
Cd2 O12 2.297 . S
Cd2 O13 2.439 . S
O3 Cd2 2.240 . S
O3 C8 1.279 . S
O4 Cd1 2.297 . S
O4 C6 1.247 . S
O5 Cd1 2.439 . S
O5 C6 1.208 . S
C6 O4 1.247 . S
C6 O5 1.208 . S
C7 O12 1.247 . S
C7 O13 1.208 . S
C8 O0 1.315 . S
C8 O3 1.279 . S
C9 O10 1.315 . S
C9 O11 1.279 . S
O10 Cd2 2.223 . S
O10 C9 1.315 . S
O11 Cd1 2.240 . S
O11 C9 1.279 . S
O12 Cd2 2.297 . S
O12 C7 1.247 . S
O13 Cd2 2.439 . S
O13 C7 1.208 . S
O14 Cd15 2.223 . S
O14 C22 1.315 . S
Cd15 O14 2.223 . S
Cd15 O18 2.297 . S
Cd15 O19 2.439 . S
Cd15 O25 2.240 . S
Cd16 O17 2.240 . S
Cd16 O24 2.223 . S
Cd16 O26 2.297 . S
Cd16 O27 2.439 . S
O17 Cd16 2.240 . S
O17 C22 1.279 . S
O18 Cd15 2.297 . S
O18 C20 1.247 . S
O19 Cd15 2.439 . S
O19 C20 1.208 . S
C20 O18 1.247 . S
C20 O19 1.208 . S
C21 O26 1.247 . S
C21 O27 1.208 . S
C22 O14 1.315 . S
C22 O17 1.279 . S
C23 O24 1.315 . S
C23 O25 1.279 . S
O24 Cd16 2.223 . S
O24 C23 1.315 . S
O25 Cd15 2.240 . S
O25 C23 1.279 . S
O26 Cd16 2.297 . S
O26 C21 1.247 . S
O27 Cd16 2.439 . S
O27 C21 1.208 . S
O28 Cd29 2.223 . S
O28 C36 1.315 . S
Cd29 O28 2.223 . S
Cd29 O32 2.297 . S
Cd29 O33 2.439 . S
Cd29 O39 2.240 . S
Cd30 O31 2.240 . S
Cd30 O38 2.223 . S
Cd30 O40 2.297 . S
Cd30 O41 2.439 . S
O31 Cd30 2.240 . S
O31 C36 1.279 . S
O32 Cd29 2.297 . S
O32 C34 1.247 . S
O33 Cd29 2.439 . S
O33 C34 1.208 . S
C34 O32 1.247 . S
C34 O33 1.208 . S
C35 O40 1.247 . S
C35 O41 1.208 . S
C36 O28 1.315 . S
C36 O31 1.279 . S
C37 O38 1.315 . S
C37 O39 1.279 . S
O38 Cd30 2.223 . S
O38 C37 1.315 . S
O39 Cd29 2.240 . S
O39 C37 1.279 . S
O40 Cd30 2.297 . S
O40 C35 1.247 . S
O41 Cd30 2.439 . S
O41 C35 1.208 . S
O42 Cd43 2.223 . S
O42 C50 1.315 . S
Cd43 O42 2.223 . S
Cd43 O46 2.297 . S
Cd43 O47 2.439 . S
Cd43 O53 2.240 . S
Cd44 O45 2.240 . S
Cd44 O52 2.223 . S
Cd44 O54 2.297 . S
Cd44 O55 2.439 . S
O45 Cd44 2.240 . S
O45 C50 1.279 . S
O46 Cd43 2.297 . S
O46 C48 1.247 . S
O47 Cd43 2.439 . S
O47 C48 1.208 . S
C48 O46 1.247 . S
C48 O47 1.208 . S
C49 O54 1.247 . S
C49 O55 1.208 . S
C50 O42 1.315 . S
C50 O45 1.279 . S
C51 O52 1.315 . S
C51 O53 1.279 . S
O52 Cd44 2.223 . S
O52 C51 1.315 . S
O53 Cd43 2.240 . S
O53 C51 1.279 . S
O54 Cd44 2.297 . S
O54 C49 1.247 . S
O55 Cd44 2.439 . S
O55 C49 1.208 . S
O56 Cd57 2.223 . S
O56 C64 1.315 . S
Cd57 O56 2.223 . S
Cd57 O60 2.297 . S
Cd57 O61 2.439 . S
Cd57 O67 2.240 . S
Cd58 O59 2.240 . S
Cd58 O66 2.223 . S
Cd58 O68 2.297 . S
Cd58 O69 2.439 . S
O59 Cd58 2.240 . S
O59 C64 1.279 . S
O60 Cd57 2.297 . S
O60 C62 1.247 . S
O61 Cd57 2.439 . S
O61 C62 1.208 . S
C62 O60 1.247 . S
C62 O61 1.208 . S
C63 O68 1.247 . S
C63 O69 1.208 . S
C64 O56 1.315 . S
C64 O59 1.279 . S
C65 O66 1.315 . S
C65 O67 1.279 . S
O66 Cd58 2.223 . S
O66 C65 1.315 . S
O67 Cd57 2.240 . S
O67 C65 1.279 . S
O68 Cd58 2.297 . S
O68 C63 1.247 . S
O69 Cd58 2.439 . S
O69 C63 1.208 . S
O70 Cd71 2.223 . S
O70 C78 1.315 . S
Cd71 O70 2.223 . S
Cd71 O74 2.297 . S
Cd71 O75 2.439 . S
Cd71 O81 2.240 . S
Cd72 O73 2.240 . S
Cd72 O80 2.223 . S
Cd72 O82 2.297 . S
Cd72 O83 2.439 . S
O73 Cd72 2.240 . S
O73 C78 1.279 . S
O74 Cd71 2.297 . S
O74 C76 1.247 . S
O75 Cd71 2.439 . S
O75 C76 1.208 . S
C76 O74 1.247 . S
C76 O75 1.208 . S
C77 O82 1.247 . S
C77 O83 1.208 . S
C78 O70 1.315 . S
C78 O73 1.279 . S
C79 O80 1.315 . S
C79 O81 1.279 . S
O80 Cd72 2.223 . S
O80 C79 1.315 . S
O81 Cd71 2.240 . S
O81 C79 1.279 . S
O82 Cd72 2.297 . S
O82 C77 1.247 . S
O83 Cd72 2.439 . S
O83 C77 1.208 . S
O84 Cd85 2.223 . S
O84 C92 1.315 . S
Cd85 O84 2.223 . S
Cd85 O88 2.297 . S
Cd85 O89 2.439 . S
Cd85 O95 2.240 . S
Cd86 O87 2.240 . S
Cd86 O94 2.223 . S
Cd86 O96 2.297 . S
Cd86 O97 2.439 . S
O87 Cd86 2.240 . S
O87 C92 1.279 . S
O88 Cd85 2.297 . S
O88 C90 1.247 . S
O89 Cd85 2.439 . S
O89 C90 1.208 . S
C90 O88 1.247 . S
C90 O89 1.208 . S
C91 O96 1.247 . S
C91 O97 1.208 . S
C92 O84 1.315 . S
C92 O87 1.279 . S
C93 O94 1.315 . S
C93 O95 1.279 . S
O94 Cd86 2.223 . S
O94 C93 1.315 . S
O95 Cd85 2.240 . S
O95 C93 1.279 . S
O96 Cd86 2.297 . S
O96 C91 1.247 . S
O97 Cd86 2.439 . S
O97 C91 1.208 . S
O98 Cd99 2.223 . S
O98 C106 1.315 . S
Cd99 O98 2.223 . S
Cd99 O102 2.297 . S
Cd99 O103 2.439 . S
Cd99 O109 2.240 . S
Cd100 O101 2.240 . S
Cd100 O108 2.223 . S
Cd100 O110 2.297 . S
Cd100 O111 2.439 . S
O101 Cd100 2.240 . S
O101 C106 1.279 . S
O102 Cd99 2.297 . S
O102 C104 1.247 . S
O103 Cd99 2.439 . S
O103 C104 1.208 . S
C104 O102 1.247 . S
C104 O103 1.208 . S
C105 O110 1.247 . S
C105 O111 1.208 . S
C106 O98 1.315 . S
C106 O101 1.279 . S
C107 O108 1.315 . S
C107 O109 1.279 . S
O108 Cd100 2.223 . S
O108 C107 1.315 . S
O109 Cd99 2.240 . S
O109 C107 1.279 . S
O110 Cd100 2.297 . S
O110 C105 1.247 . S
O111 Cd100 2.439 . S
O111 C105 1.208 . S
O112 Cd113 2.223 . S
O112 C120 1.315 . S
Cd113 O112 2.223 . S
Cd113 O116 2.297 . S
Cd113 O117 2.439 . S
Cd113 O123 2.240 . S
Cd114 O115 2.240 . S
Cd114 O122 2.223 . S
Cd114 O124 2.297 . S
Cd114 O125 2.439 . S
O115 Cd114 2.240 . S
O115 C120 1.279 . S
O116 Cd113 2.297 . S
O116 C118 1.247 . S
O117 Cd113 2.439 . S
O117 C118 1.208 . S
C118 O116 1.247 . S
C118 O117 1.208 . S
C119 O124 1.247 . S
C119 O125 1.208 . S
C120 O112 1.315 . S
C120 O115 1.279 . S
C121 O122 1.315 . S
C121 O123 1.279 . S
O122 Cd114 2.223 . S
O122 C121 1.315 . S
O123 Cd113 2.240 . S
O123 C121 1.279 . S
O124 Cd114 2.297 . S
O124 C119 1.247 . S
O125 Cd114 2.439 . S
O125 C119 1.208 . S
O126 Cd127 2.223 . S
O126 C134 1.315 . S
Cd127 O126 2.223 . S
Cd127 O130 2.297 . S
Cd127 O131 2.439 . S
Cd127 O137 2.240 . S
Cd128 O129 2.240 . S
Cd128 O136 2.223 . S
Cd128 O138 2.297 . S
Cd128 O139 2.439 . S
O129 Cd128 2.240 . S
O129 C134 1.279 . S
O130 Cd127 2.297 . S
O130 C132 1.247 . S
O131 Cd127 2.439 . S
O131 C132 1.208 . S
C132 O130 1.247 . S
C132 O131 1.208 . S
C133 O138 1.247 . S
C133 O139 1.208 . S
C134 O126 1.315 . S
C134 O129 1.279 . S
C135 O136 1.315 . S
C135 O137 1.279 . S
O136 Cd128 2.223 . S
O136 C135 1.315 . S
O137 Cd127 2.240 . S
O137 C135 1.279 . S
O138 Cd128 2.297 . S
O138 C133 1.247 . S
O139 Cd128 2.439 . S
O139 C133 1.208 . S
O140 Cd141 2.223 . S
O140 C148 1.315 . S
Cd141 O140 2.223 . S
Cd141 O144 2.297 . S
Cd141 O145 2.439 . S
Cd141 O151 2.240 . S
Cd142 O143 2.240 . S
Cd142 O150 2.223 . S
Cd142 O152 2.297 . S
Cd142 O153 2.439 . S
O143 Cd142 2.240 . S
O143 C148 1.279 . S
O144 Cd141 2.297 . S
O144 C146 1.247 . S
O145 Cd141 2.439 . S
O145 C146 1.208 . S
C146 O144 1.247 . S
C146 O145 1.208 . S
C147 O152 1.247 . S
C147 O153 1.208 . S
C148 O140 1.315 . S
C148 O143 1.279 . S
C149 O150 1.315 . S
C149 O151 1.279 . S
O150 Cd142 2.223 . S
O150 C149 1.315 . S
O151 Cd141 2.240 . S
O151 C149 1.279 . S
O152 Cd142 2.297 . S
O152 C147 1.247 . S
O153 Cd142 2.439 . S
O153 C147 1.208 . S
O154 Cd155 2.223 . S
O154 C162 1.315 . S
Cd155 O154 2.223 . S
Cd155 O158 2.297 . S
Cd155 O159 2.439 . S
Cd155 O165 2.240 . S
Cd156 O157 2.240 . S
Cd156 O164 2.223 . S
Cd156 O166 2.297 . S
Cd156 O167 2.439 . S
O157 Cd156 2.240 . S
O157 C162 1.279 . S
O158 Cd155 2.297 . S
O158 C160 1.247 . S
O159 Cd155 2.439 . S
O159 C160 1.208 . S
C160 O158 1.247 . S
C160 O159 1.208 . S
C161 O166 1.247 . S
C161 O167 1.208 . S
C162 O154 1.315 . S
C162 O157 1.279 . S
C163 O164 1.315 . S
C163 O165 1.279 . S
O164 Cd156 2.223 . S
O164 C163 1.315 . S
O165 Cd155 2.240 . S
O165 C163 1.279 . S
O166 Cd156 2.297 . S
O166 C161 1.247 . S
O167 Cd156 2.439 . S
O167 C161 1.208 . S
H168 C180 0.930 . S
H169 C182 0.930 . S
H170 C183 0.930 . S
H171 C187 0.959 . S
H172 C187 0.959 . S
H173 C187 0.961 . S
H174 C188 0.960 . S
H175 C188 0.961 . S
H176 C188 0.959 . S
H177 C191 0.929 . S
H178 C192 0.931 . S
H179 C194 0.930 . S
C180 H168 0.930 . S
C180 C181 1.399 . S
C180 C185 1.399 . S
C181 C180 1.399 . S
C181 C182 1.376 . S
C182 H169 0.930 . S
C182 C181 1.376 . S
C182 C183 1.388 . S
C183 H170 0.930 . S
C183 C182 1.388 . S
C183 C184 1.390 . S
C184 C183 1.390 . S
C184 C185 1.394 . S
C184 C190 1.465 1_556 S
C185 C180 1.399 . S
C185 C184 1.394 . S
C185 C186 1.516 . S
C186 C185 1.516 . S
C186 C187 1.502 . S
C186 C188 1.561 . S
C186 C189 1.535 . S
C187 H171 0.959 . S
C187 H172 0.959 . S
C187 H173 0.961 . S
C187 C186 1.502 . S
C188 H174 0.960 . S
C188 H175 0.961 . S
C188 H176 0.959 . S
C188 C186 1.561 . S
C189 C186 1.535 . S
C189 C190 1.394 1_556 S
C189 C194 1.383 1_556 S
C190 C184 1.465 1_554 S
C190 C189 1.394 1_554 S
C190 C191 1.399 . S
C191 H177 0.929 . S
C191 C190 1.399 . S
C191 C192 1.385 . S
C192 H178 0.931 . S
C192 C191 1.385 . S
C192 C193 1.389 . S
C193 C192 1.389 . S
C193 C194 1.387 . S
C194 H179 0.930 . S
C194 C189 1.383 1_554 S
C194 C193 1.387 . S
H195 C207 0.930 . S
H196 C209 0.930 . S
H197 C210 0.930 . S
H198 C214 0.959 . S
H199 C214 0.959 . S
H200 C214 0.961 . S
H201 C215 0.960 . S
H202 C215 0.961 . S
H203 C215 0.959 . S
H204 C218 0.929 . S
H205 C219 0.931 . S
H206 C221 0.930 . S
C207 H195 0.930 . S
C207 C208 1.399 . S
C207 C212 1.399 . S
C208 C207 1.399 . S
C208 C209 1.376 . S
C209 H196 0.930 . S
C209 C208 1.376 . S
C209 C210 1.388 . S
C210 H197 0.930 . S
C210 C209 1.388 . S
C210 C211 1.390 . S
C211 C210 1.390 . S
C211 C212 1.394 . S
C211 C217 1.465 . S
C212 C207 1.399 . S
C212 C211 1.394 . S
C212 C213 1.516 . S
C213 C212 1.516 . S
C213 C214 1.502 . S
C213 C215 1.561 . S
C213 C216 1.526 . S
C214 H198 0.959 . S
C214 H199 0.959 . S
C214 H200 0.961 . S
C214 C213 1.502 . S
C215 H201 0.960 . S
C215 H202 0.961 . S
C215 H203 0.959 . S
C215 C213 1.561 . S
C216 C213 1.526 . S
C216 C217 1.396 . S
C216 C221 1.390 . S
C217 C211 1.465 . S
C217 C216 1.396 . S
C217 C218 1.399 . S
C218 H204 0.929 . S
C218 C217 1.399 . S
C218 C219 1.385 . S
C219 H205 0.931 . S
C219 C218 1.385 . S
C219 C220 1.389 . S
C220 C219 1.389 . S
C220 C221 1.387 . S
C221 H206 0.930 . S
C221 C216 1.390 . S
C221 C220 1.387 . S
H222 C234 0.930 . S
H223 C236 0.930 . S
H224 C237 0.930 . S
H225 C241 0.959 . S
H226 C241 0.959 . S
H227 C241 0.961 . S
H228 C242 0.960 . S
H229 C242 0.961 . S
H230 C242 0.959 . S
H231 C245 0.929 . S
H232 C246 0.931 . S
H233 C248 0.930 . S
C234 H222 0.930 . S
C234 C235 1.399 . S
C234 C239 1.399 . S
C235 C234 1.399 . S
C235 C236 1.376 . S
C236 H223 0.930 . S
C236 C235 1.376 . S
C236 C237 1.388 . S
C237 H224 0.930 . S
C237 C236 1.388 . S
C237 C238 1.390 . S
C238 C237 1.390 . S
C238 C239 1.394 . S
C238 C244 1.465 . S
C239 C234 1.399 . S
C239 C238 1.394 . S
C239 C240 1.516 . S
C240 C239 1.516 . S
C240 C241 1.502 . S
C240 C242 1.561 . S
C240 C243 1.526 . S
C241 H225 0.959 . S
C241 H226 0.959 . S
C241 H227 0.961 . S
C241 C240 1.502 . S
C242 H228 0.960 . S
C242 H229 0.961 . S
C242 H230 0.959 . S
C242 C240 1.561 . S
C243 C240 1.526 . S
C243 C244 1.396 . S
C243 C248 1.390 . S
C244 C238 1.465 . S
C244 C243 1.396 . S
C244 C245 1.399 . S
C245 H231 0.929 . S
C245 C244 1.399 . S
C245 C246 1.385 . S
C246 H232 0.931 . S
C246 C245 1.385 . S
C246 C247 1.389 . S
C247 C246 1.389 . S
C247 C248 1.387 . S
C248 H233 0.930 . S
C248 C243 1.390 . S
C248 C247 1.387 . S
H249 C261 0.930 . S
H250 C263 0.930 . S
H251 C264 0.930 . S
H252 C268 1.005 . S
H253 C268 0.959 . S
H254 C268 0.961 . S
H255 C269 0.960 . S
H256 C269 0.961 . S
H257 C269 0.959 . S
H258 C272 0.929 . S
H259 C273 0.931 . S
H260 C275 0.930 . S
C261 H249 0.930 . S
C261 C262 1.399 . S
C261 C266 1.399 . S
C262 C261 1.399 . S
C262 C263 1.376 . S
C263 H250 0.930 . S
C263 C262 1.376 . S
C263 C264 1.388 . S
C264 H251 0.930 . S
C264 C263 1.388 . S
C264 C265 1.390 . S
C265 C264 1.390 . S
C265 C266 1.394 . S
C265 C271 1.405 1_554 S
C266 C261 1.399 . S
C266 C265 1.394 . S
C266 C267 1.516 . S
C267 C266 1.516 . S
C267 C268 1.502 . S
C267 C269 1.561 . S
C267 C270 1.526 1_554 S
C268 H252 1.005 . S
C268 H253 0.959 . S
C268 H254 0.961 . S
C268 C267 1.502 . S
C269 H255 0.960 . S
C269 H256 0.961 . S
C269 H257 0.959 . S
C269 C267 1.561 . S
C270 C267 1.526 1_556 S
C270 C271 1.400 . S
C270 C275 1.390 . S
C271 C265 1.405 1_556 S
C271 C270 1.400 . S
C271 C272 1.453 . S
C272 H258 0.929 . S
C272 C271 1.453 . S
C272 C273 1.385 . S
C273 H259 0.931 . S
C273 C272 1.385 . S
C273 C274 1.389 . S
C274 C273 1.389 . S
C274 C275 1.387 . S
C275 H260 0.930 . S
C275 C270 1.390 . S
C275 C274 1.387 . S
H276 C288 0.930 . S
H277 C290 0.930 . S
H278 C291 0.930 . S
H279 C295 0.959 . S
H280 C295 0.959 . S
H281 C295 0.961 . S
H282 C296 0.960 . S
H283 C296 0.961 . S
H284 C296 0.959 . S
H285 C299 0.929 . S
H286 C300 0.931 . S
H287 C302 0.930 . S
C288 H276 0.930 . S
C288 C289 1.399 . S
C288 C293 1.399 . S
C289 C288 1.399 . S
C289 C290 1.376 . S
C290 H277 0.930 . S
C290 C289 1.376 . S
C290 C291 1.388 . S
C291 H278 0.930 . S
C291 C290 1.388 . S
C291 C292 1.390 . S
C292 C291 1.390 . S
C292 C293 1.394 . S
C292 C298 1.465 . S
C293 C288 1.399 . S
C293 C292 1.394 . S
C293 C294 1.516 . S
C294 C293 1.516 . S
C294 C295 1.502 . S
C294 C296 1.561 . S
C294 C297 1.526 . S
C295 H279 0.959 . S
C295 H280 0.959 . S
C295 H281 0.961 . S
C295 C294 1.502 . S
C296 H282 0.960 . S
C296 H283 0.961 . S
C296 H284 0.959 . S
C296 C294 1.561 . S
C297 C294 1.526 . S
C297 C298 1.396 . S
C297 C302 1.390 . S
C298 C292 1.465 . S
C298 C297 1.396 . S
C298 C299 1.399 . S
C299 H285 0.929 . S
C299 C298 1.399 . S
C299 C300 1.385 . S
C300 H286 0.931 . S
C300 C299 1.385 . S
C300 C301 1.389 . S
C301 C300 1.389 . S
C301 C302 1.387 . S
C302 H287 0.930 . S
C302 C297 1.390 . S
C302 C301 1.387 . S
H303 C315 0.930 . S
H304 C317 0.930 . S
H305 C318 0.930 . S
H306 C322 0.959 . S
H307 C322 0.959 . S
H308 C322 0.961 . S
H309 C323 0.960 . S
H310 C323 0.961 . S
H311 C323 0.959 . S
H312 C326 0.929 . S
H313 C327 0.931 . S
H314 C329 0.930 . S
C315 H303 0.930 . S
C315 C316 1.399 . S
C315 C320 1.399 . S
C316 C315 1.399 . S
C316 C317 1.376 . S
C317 H304 0.930 . S
C317 C316 1.376 . S
C317 C318 1.388 . S
C318 H305 0.930 . S
C318 C317 1.388 . S
C318 C319 1.390 . S
C319 C318 1.390 . S
C319 C320 1.394 . S
C319 C325 1.465 . S
C320 C315 1.399 . S
C320 C319 1.394 . S
C320 C321 1.516 . S
C321 C320 1.516 . S
C321 C322 1.502 . S
C321 C323 1.561 . S
C321 C324 1.526 . S
C322 H306 0.959 . S
C322 H307 0.959 . S
C322 H308 0.961 . S
C322 C321 1.502 . S
C323 H309 0.960 . S
C323 H310 0.961 . S
C323 H311 0.959 . S
C323 C321 1.561 . S
C324 C321 1.526 . S
C324 C325 1.396 . S
C324 C329 1.390 . S
C325 C319 1.465 . S
C325 C324 1.396 . S
C325 C326 1.399 . S
C326 H312 0.929 . S
C326 C325 1.399 . S
C326 C327 1.385 . S
C327 H313 0.931 . S
C327 C326 1.385 . S
C327 C328 1.389 . S
C328 C327 1.389 . S
C328 C329 1.387 . S
C329 H314 0.930 . S
C329 C324 1.390 . S
C329 C328 1.387 . S
H330 C342 0.930 . S
H331 C344 0.930 . S
H332 C345 0.930 . S
H333 C349 0.959 . S
H334 C349 0.959 . S
H335 C349 0.961 . S
H336 C350 0.960 . S
H337 C350 0.961 . S
H338 C350 0.959 . S
H339 C353 0.929 . S
H340 C354 0.931 . S
H341 C356 0.930 . S
C342 H330 0.930 . S
C342 C343 1.399 . S
C342 C347 1.399 . S
C343 C342 1.399 . S
C343 C344 1.376 . S
C344 H331 0.930 . S
C344 C343 1.376 . S
C344 C345 1.388 . S
C345 H332 0.930 . S
C345 C344 1.388 . S
C345 C346 1.390 . S
C346 C345 1.390 . S
C346 C347 1.394 . S
C346 C352 1.465 . S
C347 C342 1.399 . S
C347 C346 1.394 . S
C347 C348 1.516 . S
C348 C347 1.516 . S
C348 C349 1.502 . S
C348 C350 1.561 . S
C348 C351 1.526 . S
C349 H333 0.959 . S
C349 H334 0.959 . S
C349 H335 0.961 . S
C349 C348 1.502 . S
C350 H336 0.960 . S
C350 H337 0.961 . S
C350 H338 0.959 . S
C350 C348 1.561 . S
C351 C348 1.526 . S
C351 C352 1.396 . S
C351 C356 1.390 . S
C352 C346 1.465 . S
C352 C351 1.396 . S
C352 C353 1.399 . S
C353 H339 0.929 . S
C353 C352 1.399 . S
C353 C354 1.385 . S
C354 H340 0.931 . S
C354 C353 1.385 . S
C354 C355 1.389 . S
C355 C354 1.389 . S
C355 C356 1.387 . S
C356 H341 0.930 . S
C356 C351 1.390 . S
C356 C355 1.387 . S
H357 C369 0.930 . S
H358 C371 0.930 . S
H359 C372 0.930 . S
H360 C376 0.959 . S
H361 C376 0.959 . S
H362 C376 0.961 . S
H363 C377 0.960 . S
H364 C377 0.961 . S
H365 C377 0.959 . S
H366 C380 0.929 . S
H367 C381 0.931 . S
H368 C383 0.930 . S
C369 H357 0.930 . S
C369 C370 1.399 . S
C369 C374 1.399 . S
C370 C369 1.399 . S
C370 C371 1.376 . S
C371 H358 0.930 . S
C371 C370 1.376 . S
C371 C372 1.388 . S
C372 H359 0.930 . S
C372 C371 1.388 . S
C372 C373 1.390 . S
C373 C372 1.390 . S
C373 C374 1.394 . S
C373 C379 1.465 . S
C374 C369 1.399 . S
C374 C373 1.394 . S
C374 C375 1.516 . S
C375 C374 1.516 . S
C375 C376 1.502 . S
C375 C377 1.561 . S
C375 C378 1.526 . S
C376 H360 0.959 . S
C376 H361 0.959 . S
C376 H362 0.961 . S
C376 C375 1.502 . S
C377 H363 0.960 . S
C377 H364 0.961 . S
C377 H365 0.959 . S
C377 C375 1.561 . S
C378 C375 1.526 . S
C378 C379 1.396 . S
C378 C383 1.390 . S
C379 C373 1.465 . S
C379 C378 1.396 . S
C379 C380 1.399 . S
C380 H366 0.929 . S
C380 C379 1.399 . S
C380 C381 1.385 . S
C381 H367 0.931 . S
C381 C380 1.385 . S
C381 C382 1.389 . S
C382 C381 1.389 . S
C382 C383 1.387 . S
C383 H368 0.930 . S
C383 C378 1.390 . S
C383 C382 1.387 . S
H384 C396 0.930 . S
H385 C398 0.930 . S
H386 C399 0.930 . S
H387 C403 0.959 . S
H388 C403 0.959 . S
H389 C403 0.961 . S
H390 C404 0.960 . S
H391 C404 0.961 . S
H392 C404 0.959 . S
H393 C407 0.929 . S
H394 C408 0.931 . S
H395 C410 0.930 . S
C396 H384 0.930 . S
C396 C397 1.399 . S
C396 C401 1.399 . S
C397 C396 1.399 . S
C397 C398 1.376 . S
C398 H385 0.930 . S
C398 C397 1.376 . S
C398 C399 1.388 . S
C399 H386 0.930 . S
C399 C398 1.388 . S
C399 C400 1.390 . S
C400 C399 1.390 . S
C400 C401 1.394 . S
C400 C406 1.465 . S
C401 C396 1.399 . S
C401 C400 1.394 . S
C401 C402 1.516 . S
C402 C401 1.516 . S
C402 C403 1.502 . S
C402 C404 1.561 . S
C402 C405 1.526 . S
C403 H387 0.959 . S
C403 H388 0.959 . S
C403 H389 0.961 . S
C403 C402 1.502 . S
C404 H390 0.960 . S
C404 H391 0.961 . S
C404 H392 0.959 . S
C404 C402 1.561 . S
C405 C402 1.526 . S
C405 C406 1.396 . S
C405 C410 1.390 . S
C406 C400 1.465 . S
C406 C405 1.396 . S
C406 C407 1.399 . S
C407 H393 0.929 . S
C407 C406 1.399 . S
C407 C408 1.385 . S
C408 H394 0.931 . S
C408 C407 1.385 . S
C408 C409 1.389 . S
C409 C408 1.389 . S
C409 C410 1.387 . S
C410 H395 0.930 . S
C410 C405 1.390 . S
C410 C409 1.387 . S
H411 C423 0.930 . S
H412 C425 0.930 . S
H413 C426 0.930 . S
H414 C430 0.959 . S
H415 C430 0.959 . S
H416 C430 0.961 . S
H417 C431 0.960 . S
H418 C431 0.961 . S
H419 C431 0.959 . S
H420 C434 0.929 . S
H421 C435 0.931 . S
H422 C437 0.930 . S
C423 H411 0.930 . S
C423 C424 1.399 . S
C423 C428 1.399 . S
C424 C423 1.399 . S
C424 C425 1.376 . S
C425 H412 0.930 . S
C425 C424 1.376 . S
C425 C426 1.388 . S
C426 H413 0.930 . S
C426 C425 1.388 . S
C426 C427 1.390 . S
C427 C426 1.390 . S
C427 C428 1.394 . S
C427 C433 1.465 . S
C428 C423 1.399 . S
C428 C427 1.394 . S
C428 C429 1.516 . S
C429 C428 1.516 . S
C429 C430 1.502 . S
C429 C431 1.561 . S
C429 C432 1.526 . S
C430 H414 0.959 . S
C430 H415 0.959 . S
C430 H416 0.961 . S
C430 C429 1.502 . S
C431 H417 0.960 . S
C431 H418 0.961 . S
C431 H419 0.959 . S
C431 C429 1.561 . S
C432 C429 1.526 . S
C432 C433 1.396 . S
C432 C437 1.390 . S
C433 C427 1.465 . S
C433 C432 1.396 . S
C433 C434 1.399 . S
C434 H420 0.929 . S
C434 C433 1.399 . S
C434 C435 1.385 . S
C435 H421 0.931 . S
C435 C434 1.385 . S
C435 C436 1.389 . S
C436 C435 1.389 . S
C436 C437 1.387 . S
C437 H422 0.930 . S
C437 C432 1.390 . S
C437 C436 1.387 . S
H438 C450 0.930 . S
H439 C452 0.930 . S
H440 C453 0.930 . S
H441 C457 0.959 . S
H442 C457 0.959 . S
H443 C457 0.961 . S
H444 C458 0.960 . S
H445 C458 0.961 . S
H446 C458 0.959 . S
H447 C461 0.929 . S
H448 C462 0.931 . S
H449 C464 0.930 . S
C450 H438 0.930 . S
C450 C451 1.399 . S
C450 C455 1.399 . S
C451 C450 1.399 . S
C451 C452 1.376 . S
C452 H439 0.930 . S
C452 C451 1.376 . S
C452 C453 1.388 . S
C453 H440 0.930 . S
C453 C452 1.388 . S
C453 C454 1.390 . S
C454 C453 1.390 . S
C454 C455 1.394 . S
C454 C460 1.465 . S
C455 C450 1.399 . S
C455 C454 1.394 . S
C455 C456 1.516 . S
C456 C455 1.516 . S
C456 C457 1.502 . S
C456 C458 1.561 . S
C456 C459 1.526 . S
C457 H441 0.959 . S
C457 H442 0.959 . S
C457 H443 0.961 . S
C457 C456 1.502 . S
C458 H444 0.960 . S
C458 H445 0.961 . S
C458 H446 0.959 . S
C458 C456 1.561 . S
C459 C456 1.526 . S
C459 C460 1.396 . S
C459 C464 1.390 . S
C460 C454 1.465 . S
C460 C459 1.396 . S
C460 C461 1.399 . S
C461 H447 0.929 . S
C461 C460 1.399 . S
C461 C462 1.385 . S
C462 H448 0.931 . S
C462 C461 1.385 . S
C462 C463 1.389 . S
C463 C462 1.389 . S
C463 C464 1.387 . S
C464 H449 0.930 . S
C464 C459 1.390 . S
C464 C463 1.387 . S
H465 C477 0.930 . S
H466 C479 0.930 . S
H467 C480 0.930 . S
H468 C484 0.959 . S
H469 C484 0.959 . S
H470 C484 0.961 . S
H471 C485 0.960 . S
H472 C485 0.961 . S
H473 C485 0.959 . S
H474 C488 0.929 . S
H475 C489 0.931 . S
H476 C491 0.930 . S
C477 H465 0.930 . S
C477 C478 1.399 . S
C477 C482 1.399 . S
C478 C477 1.399 . S
C478 C479 1.376 . S
C479 H466 0.930 . S
C479 C478 1.376 . S
C479 C480 1.388 . S
C480 H467 0.930 . S
C480 C479 1.388 . S
C480 C481 1.390 . S
C481 C480 1.390 . S
C481 C482 1.394 . S
C481 C487 1.465 . S
C482 C477 1.399 . S
C482 C481 1.394 . S
C482 C483 1.516 . S
C483 C482 1.516 . S
C483 C484 1.502 . S
C483 C485 1.561 . S
C483 C486 1.526 . S
C484 H468 0.959 . S
C484 H469 0.959 . S
C484 H470 0.961 . S
C484 C483 1.502 . S
C485 H471 0.960 . S
C485 H472 0.961 . S
C485 H473 0.959 . S
C485 C483 1.561 . S
C486 C483 1.526 . S
C486 C487 1.396 . S
C486 C491 1.390 . S
C487 C481 1.465 . S
C487 C486 1.396 . S
C487 C488 1.399 . S
C488 H474 0.929 . S
C488 C487 1.399 . S
C488 C489 1.385 . S
C489 H475 0.931 . S
C489 C488 1.385 . S
C489 C490 1.389 . S
C490 C489 1.389 . S
C490 C491 1.387 . S
C491 H476 0.930 . S
C491 C486 1.390 . S
C491 C490 1.387 . S
H492 C504 0.930 . S
H493 C506 0.930 . S
H494 C507 0.930 . S
H495 C511 0.959 . S
H496 C511 0.959 . S
H497 C511 0.961 . S
H498 C512 0.960 . S
H499 C512 0.962 . S
H500 C512 0.959 . S
H501 C515 0.929 . S
H502 C516 0.931 . S
H503 C518 0.930 . S
C504 H492 0.930 . S
C504 C505 1.399 . S
C504 C509 1.399 . S
C505 C504 1.399 . S
C505 C506 1.376 . S
C506 H493 0.930 . S
C506 C505 1.376 . S
C506 C507 1.388 . S
C507 H494 0.930 . S
C507 C506 1.388 . S
C507 C508 1.390 . S
C508 C507 1.390 . S
C508 C509 1.394 . S
C508 C514 1.465 1_655 S
C509 C504 1.399 . S
C509 C508 1.394 . S
C509 C510 1.516 . S
C510 C509 1.516 . S
C510 C511 1.502 . S
C510 C512 1.561 . S
C510 C513 1.526 1_655 S
C511 H495 0.959 . S
C511 H496 0.959 . S
C511 H497 0.961 . S
C511 C510 1.502 . S
C512 H498 0.960 . S
C512 H499 0.962 . S
C512 H500 0.959 . S
C512 C510 1.561 . S
C513 C510 1.526 1_455 S
C513 C514 1.396 . S
C513 C518 1.390 . S
C514 C508 1.465 1_455 S
C514 C513 1.396 . S
C514 C515 1.399 . S
C515 H501 0.929 . S
C515 C514 1.399 . S
C515 C516 1.385 . S
C516 H502 0.931 . S
C516 C515 1.385 . S
C516 C517 1.389 . S
C517 C516 1.389 . S
C517 C518 1.387 . S
C518 H503 0.930 . S
C518 C513 1.390 . S
C518 C517 1.387 . S
H519 C531 0.930 . S
H520 C533 0.930 . S
H521 C534 0.930 . S
H522 C538 0.959 . S
H523 C538 0.959 1_565 S
H524 C538 0.961 . S
H525 C539 0.960 1_545 S
H526 C539 0.961 . S
H527 C539 0.959 . S
H528 C542 0.929 . S
H529 C543 0.931 . S
H530 C545 0.930 . S
C531 H519 0.930 . S
C531 C532 1.399 . S
C531 C536 1.399 . S
C532 C531 1.399 . S
C532 C533 1.376 . S
C533 H520 0.930 . S
C533 C532 1.376 . S
C533 C534 1.388 . S
C534 H521 0.930 . S
C534 C533 1.388 . S
C534 C535 1.390 . S
C535 C534 1.390 . S
C535 C536 1.394 . S
C535 C541 1.465 1_545 S
C536 C531 1.399 . S
C536 C535 1.394 . S
C536 C537 1.516 1_545 S
C537 C536 1.516 1_565 S
C537 C538 1.502 1_565 S
C537 C539 1.561 . S
C537 C540 1.526 . S
C538 H522 0.959 . S
C538 H523 0.959 1_545 S
C538 H524 0.961 . S
C538 C537 1.502 1_545 S
C539 H525 0.960 1_565 S
C539 H526 0.961 . S
C539 H527 0.959 . S
C539 C537 1.561 . S
C540 C537 1.526 . S
C540 C541 1.396 . S
C540 C545 1.390 . S
C541 C535 1.465 1_565 S
C541 C540 1.396 . S
C541 C542 1.399 . S
C542 H528 0.929 . S
C542 C541 1.399 . S
C542 C543 1.385 . S
C543 H529 0.931 . S
C543 C542 1.385 . S
C543 C544 1.389 . S
C544 C543 1.389 . S
C544 C545 1.387 . S
C545 H530 0.930 . S
C545 C540 1.390 . S
C545 C544 1.387 . S
H546 C558 0.930 . S
H547 C560 0.930 . S
H548 C561 0.930 . S
H549 C565 0.959 . S
H550 C565 0.959 . S
H551 C565 0.961 . S
H552 C566 0.960 . S
H553 C566 0.961 . S
H554 C566 0.959 . S
H555 C569 0.929 . S
H556 C570 0.931 . S
H557 C572 0.930 . S
C558 H546 0.930 . S
C558 C559 1.399 . S
C558 C563 1.399 . S
C559 C558 1.399 . S
C559 C560 1.376 . S
C560 H547 0.930 . S
C560 C559 1.376 . S
C560 C561 1.388 . S
C561 H548 0.930 . S
C561 C560 1.388 . S
C561 C562 1.390 . S
C562 C561 1.390 . S
C562 C563 1.394 . S
C562 C568 1.465 . S
C563 C558 1.399 . S
C563 C562 1.394 . S
C563 C564 1.516 . S
C564 C563 1.516 . S
C564 C565 1.502 . S
C564 C566 1.561 . S
C564 C567 1.526 . S
C565 H549 0.959 . S
C565 H550 0.959 . S
C565 H551 0.961 . S
C565 C564 1.502 . S
C566 H552 0.960 . S
C566 H553 0.961 . S
C566 H554 0.959 . S
C566 C564 1.561 . S
C567 C564 1.526 . S
C567 C568 1.396 . S
C567 C572 1.390 . S
C568 C562 1.465 . S
C568 C567 1.396 . S
C568 C569 1.399 . S
C569 H555 0.929 . S
C569 C568 1.399 . S
C569 C570 1.385 . S
C570 H556 0.931 . S
C570 C569 1.385 . S
C570 C571 1.389 . S
C571 C570 1.389 . S
C571 C572 1.387 . S
C572 H557 0.930 . S
C572 C567 1.390 . S
C572 C571 1.387 . S
H573 C585 0.930 . S
H574 C587 0.930 . S
H575 C588 0.930 . S
H576 C592 0.959 . S
H577 C592 0.959 1_565 S
H578 C592 0.961 . S
H579 C593 0.960 1_545 S
H580 C593 0.961 . S
H581 C593 0.959 . S
H582 C596 0.929 . S
H583 C597 0.931 . S
H584 C599 0.930 . S
C585 H573 0.930 . S
C585 C586 1.399 . S
C585 C590 1.399 . S
C586 C585 1.399 . S
C586 C587 1.376 . S
C587 H574 0.930 . S
C587 C586 1.376 . S
C587 C588 1.388 . S
C588 H575 0.930 . S
C588 C587 1.388 . S
C588 C589 1.390 . S
C589 C588 1.390 . S
C589 C590 1.394 . S
C589 C595 1.465 1_545 S
C590 C585 1.399 . S
C590 C589 1.394 . S
C590 C591 1.516 . S
C591 C590 1.516 . S
C591 C592 1.502 . S
C591 C593 1.561 1_545 S
C591 C594 1.526 1_545 S
C592 H576 0.959 . S
C592 H577 0.959 1_545 S
C592 H578 0.961 . S
C592 C591 1.502 . S
C593 H579 0.960 1_565 S
C593 H580 0.961 . S
C593 H581 0.959 . S
C593 C591 1.561 1_565 S
C594 C591 1.526 1_565 S
C594 C595 1.396 . S
C594 C599 1.390 . S
C595 C589 1.465 1_565 S
C595 C594 1.396 . S
C595 C596 1.399 . S
C596 H582 0.929 . S
C596 C595 1.399 . S
C596 C597 1.385 . S
C597 H583 0.931 . S
C597 C596 1.385 . S
C597 C598 1.389 . S
C598 C597 1.389 . S
C598 C599 1.387 . S
C599 H584 0.930 . S
C599 C594 1.390 . S
C599 C598 1.387 . S
H600 C612 0.930 . S
H601 C614 0.930 . S
H602 C615 0.930 . S
H603 C619 0.959 . S
H604 C619 0.959 . S
H605 C619 0.961 . S
H606 C620 0.960 . S
H607 C620 0.961 . S
H608 C620 0.959 . S
H609 C623 0.929 . S
H610 C624 0.931 . S
H611 C626 0.930 . S
C612 H600 0.930 . S
C612 C613 1.399 . S
C612 C617 1.399 . S
C613 C612 1.399 . S
C613 C614 1.376 . S
C614 H601 0.930 . S
C614 C613 1.376 . S
C614 C615 1.388 . S
C615 H602 0.930 . S
C615 C614 1.388 . S
C615 C616 1.390 . S
C616 C615 1.390 . S
C616 C617 1.394 . S
C616 C622 1.465 . S
C617 C612 1.399 . S
C617 C616 1.394 . S
C617 C618 1.516 . S
C618 C617 1.516 . S
C618 C619 1.502 . S
C618 C620 1.561 . S
C618 C621 1.526 . S
C619 H603 0.959 . S
C619 H604 0.959 . S
C619 H605 0.961 . S
C619 C618 1.502 . S
C620 H606 0.960 . S
C620 H607 0.961 . S
C620 H608 0.959 . S
C620 C618 1.561 . S
C621 C618 1.526 . S
C621 C622 1.396 . S
C621 C626 1.390 . S
C622 C616 1.465 . S
C622 C621 1.396 . S
C622 C623 1.399 . S
C623 H609 0.929 . S
C623 C622 1.399 . S
C623 C624 1.385 . S
C624 H610 0.931 . S
C624 C623 1.385 . S
C624 C625 1.389 . S
C625 C624 1.389 . S
C625 C626 1.387 . S
C626 H611 0.930 . S
C626 C621 1.390 . S
C626 C625 1.387 . S
H627 C639 0.930 . S
H628 C641 0.930 . S
H629 C642 0.930 . S
H630 C646 0.959 . S
H631 C646 0.959 1_655 S
H632 C646 0.961 . S
H633 C647 0.960 1_455 S
H634 C647 0.961 . S
H635 C647 0.959 . S
H636 C650 0.929 . S
H637 C651 0.931 . S
H638 C653 0.930 . S
C639 H627 0.930 . S
C639 C640 1.399 . S
C639 C644 1.399 . S
C640 C639 1.399 . S
C640 C641 1.376 . S
C641 H628 0.930 . S
C641 C640 1.376 . S
C641 C642 1.388 . S
C642 H629 0.930 . S
C642 C641 1.388 . S
C642 C643 1.390 . S
C643 C642 1.390 . S
C643 C644 1.394 . S
C643 C649 1.465 1_455 S
C644 C639 1.399 . S
C644 C643 1.394 . S
C644 C645 1.516 . S
C645 C644 1.516 . S
C645 C646 1.502 . S
C645 C647 1.561 1_455 S
C645 C648 1.526 1_455 S
C646 H630 0.959 . S
C646 H631 0.959 1_455 S
C646 H632 0.961 . S
C646 C645 1.502 . S
C647 H633 0.960 1_655 S
C647 H634 0.961 . S
C647 H635 0.959 . S
C647 C645 1.561 1_655 S
C648 C645 1.526 1_655 S
C648 C649 1.396 . S
C648 C653 1.390 . S
C649 C643 1.465 1_655 S
C649 C648 1.396 . S
C649 C650 1.399 . S
C650 H636 0.929 . S
C650 C649 1.399 . S
C650 C651 1.385 . S
C651 H637 0.931 . S
C651 C650 1.385 . S
C651 C652 1.389 . S
C652 C651 1.389 . S
C652 C653 1.387 . S
C653 H638 0.930 . S
C653 C648 1.390 . S
C653 C652 1.387 . S
H654 C666 0.930 . S
H655 C668 0.930 . S
H656 C669 0.930 . S
H657 C673 0.959 . S
H658 C673 0.959 . S
H659 C673 0.961 . S
H660 C674 0.960 . S
H661 C674 0.961 . S
H662 C674 0.959 . S
H663 C677 0.929 . S
H664 C678 0.931 . S
H665 C680 0.930 . S
C666 H654 0.930 . S
C666 C667 1.399 . S
C666 C671 1.399 . S
C667 C666 1.399 . S
C667 C668 1.376 . S
C668 H655 0.930 . S
C668 C667 1.376 . S
C668 C669 1.388 . S
C669 H656 0.930 . S
C669 C668 1.388 . S
C669 C670 1.390 . S
C670 C669 1.390 . S
C670 C671 1.394 . S
C670 C676 1.465 . S
C671 C666 1.399 . S
C671 C670 1.394 . S
C671 C672 1.516 . S
C672 C671 1.516 . S
C672 C673 1.502 . S
C672 C674 1.561 . S
C672 C675 1.526 . S
C673 H657 0.959 . S
C673 H658 0.959 . S
C673 H659 0.961 . S
C673 C672 1.502 . S
C674 H660 0.960 . S
C674 H661 0.961 . S
C674 H662 0.959 . S
C674 C672 1.561 . S
C675 C672 1.526 . S
C675 C676 1.396 . S
C675 C680 1.390 . S
C676 C670 1.465 . S
C676 C675 1.396 . S
C676 C677 1.399 . S
C677 H663 0.929 . S
C677 C676 1.399 . S
C677 C678 1.385 . S
C678 H664 0.931 . S
C678 C677 1.385 . S
C678 C679 1.389 . S
C679 C678 1.389 . S
C679 C680 1.387 . S
C680 H665 0.930 . S
C680 C675 1.390 . S
C680 C679 1.387 . S
H681 C693 0.930 . S
H682 C695 0.930 1_655 S
H683 C696 0.930 . S
H684 C700 0.959 . S
H685 C700 0.959 . S
H686 C700 0.961 . S
H687 C701 0.960 . S
H688 C701 0.961 . S
H689 C701 0.959 . S
H690 C704 0.929 . S
H691 C705 0.931 . S
H692 C707 0.930 . S
C693 H681 0.930 . S
C693 C694 1.399 1_455 S
C693 C698 1.399 . S
C694 C693 1.399 1_655 S
C694 C695 1.376 1_655 S
C695 H682 0.930 1_455 S
C695 C694 1.376 1_455 S
C695 C696 1.388 . S
C696 H683 0.930 . S
C696 C695 1.388 . S
C696 C697 1.390 . S
C697 C696 1.390 . S
C697 C698 1.394 . S
C697 C703 1.465 . S
C698 C693 1.399 . S
C698 C697 1.394 . S
C698 C699 1.516 . S
C699 C698 1.516 . S
C699 C700 1.502 . S
C699 C701 1.561 . S
C699 C702 1.526 . S
C700 H684 0.959 . S
C700 H685 0.959 . S
C700 H686 0.961 . S
C700 C699 1.502 . S
C701 H687 0.960 . S
C701 H688 0.961 . S
C701 H689 0.959 . S
C701 C699 1.561 . S
C702 C699 1.526 . S
C702 C703 1.396 . S
C702 C707 1.390 . S
C703 C697 1.465 . S
C703 C702 1.396 . S
C703 C704 1.399 . S
C704 H690 0.929 . S
C704 C703 1.399 . S
C704 C705 1.385 . S
C705 H691 0.931 . S
C705 C704 1.385 . S
C705 C706 1.389 . S
C706 C705 1.389 . S
C706 C707 1.387 . S
C707 H692 0.930 . S
C707 C702 1.390 . S
C707 C706 1.387 . S
H708 C720 0.930 . S
H709 C722 0.930 . S
H710 C723 0.930 . S
H711 C727 0.959 . S
H712 C727 0.959 . S
H713 C727 0.961 . S
H714 C728 0.960 . S
H715 C728 0.961 . S
H716 C728 0.959 . S
H717 C731 0.929 . S
H718 C732 0.931 . S
H719 C734 0.930 . S
C720 H708 0.930 . S
C720 C721 1.380 1_565 S
C720 C725 1.399 . S
C721 C720 1.380 1_545 S
C721 C722 1.370 1_545 S
C722 H709 0.930 . S
C722 C721 1.370 1_565 S
C722 C723 1.388 . S
C723 H710 0.930 . S
C723 C722 1.388 . S
C723 C724 1.390 . S
C724 C723 1.390 . S
C724 C725 1.394 . S
C724 C730 1.465 . S
C725 C720 1.399 . S
C725 C724 1.394 . S
C725 C726 1.516 . S
C726 C725 1.516 . S
C726 C727 1.502 . S
C726 C728 1.561 . S
C726 C729 1.526 . S
C727 H711 0.959 . S
C727 H712 0.959 . S
C727 H713 0.961 . S
C727 C726 1.502 . S
C728 H714 0.960 . S
C728 H715 0.961 . S
C728 H716 0.959 . S
C728 C726 1.561 . S
C729 C726 1.526 . S
C729 C730 1.396 . S
C729 C734 1.390 . S
C730 C724 1.465 . S
C730 C729 1.396 . S
C730 C731 1.399 . S
C731 H717 0.929 . S
C731 C730 1.399 . S
C731 C732 1.385 . S
C732 H718 0.931 . S
C732 C731 1.385 . S
C732 C733 1.389 . S
C733 C732 1.389 . S
C733 C734 1.387 . S
C734 H719 0.930 . S
C734 C729 1.390 . S
C734 C733 1.387 . S
H735 C747 0.930 . S
H736 C749 0.930 . S
H737 C750 0.930 . S
H738 C754 0.959 . S
H739 C754 0.959 . S
H740 C754 0.961 . S
H741 C755 0.960 . S
H742 C755 0.961 . S
H743 C755 0.959 . S
H744 C758 0.929 . S
H745 C759 0.931 . S
H746 C761 0.930 . S
C747 H735 0.930 . S
C747 C748 1.399 . S
C747 C752 1.399 . S
C748 C747 1.399 . S
C748 C749 1.376 . S
C749 H736 0.930 . S
C749 C748 1.376 . S
C749 C750 1.388 . S
C750 H737 0.930 . S
C750 C749 1.388 . S
C750 C751 1.390 . S
C751 C750 1.390 . S
C751 C752 1.394 . S
C751 C757 1.465 . S
C752 C747 1.399 . S
C752 C751 1.394 . S
C752 C753 1.516 . S
C753 C752 1.516 . S
C753 C754 1.502 . S
C753 C755 1.561 . S
C753 C756 1.526 . S
C754 H738 0.959 . S
C754 H739 0.959 . S
C754 H740 0.961 . S
C754 C753 1.502 . S
C755 H741 0.960 . S
C755 H742 0.961 . S
C755 H743 0.959 . S
C755 C753 1.561 . S
C756 C753 1.526 . S
C756 C757 1.396 . S
C756 C761 1.390 . S
C757 C751 1.465 . S
C757 C756 1.396 . S
C757 C758 1.399 . S
C758 H744 0.929 . S
C758 C757 1.399 . S
C758 C759 1.385 . S
C759 H745 0.931 . S
C759 C758 1.385 . S
C759 C760 1.389 . S
C760 C759 1.389 . S
C760 C761 1.387 . S
C761 H746 0.930 . S
C761 C756 1.390 . S
C761 C760 1.387 . S
H762 C774 0.930 . S
H763 C776 0.930 . S
H764 C777 0.930 . S
H765 C781 0.959 . S
H766 C781 0.959 . S
H767 C781 0.961 . S
H768 C782 0.960 . S
H769 C782 0.961 . S
H770 C782 0.959 . S
H771 C785 0.929 . S
H772 C786 0.931 . S
H773 C788 0.930 . S
C774 H762 0.930 . S
C774 C775 1.399 1_655 S
C774 C779 1.399 . S
C775 C774 1.399 1_455 S
C775 C776 1.376 1_455 S
C776 H763 0.930 . S
C776 C775 1.376 1_655 S
C776 C777 1.388 . S
C777 H764 0.930 . S
C777 C776 1.388 . S
C777 C778 1.390 . S
C778 C777 1.390 . S
C778 C779 1.394 . S
C778 C784 1.465 . S
C779 C774 1.399 . S
C779 C778 1.394 . S
C779 C780 1.516 . S
C780 C779 1.516 . S
C780 C781 1.502 . S
C780 C782 1.561 . S
C780 C783 1.526 . S
C781 H765 0.959 . S
C781 H766 0.959 . S
C781 H767 0.961 . S
C781 C780 1.502 . S
C782 H768 0.960 . S
C782 H769 0.961 . S
C782 H770 0.959 . S
C782 C780 1.561 . S
C783 C780 1.526 . S
C783 C784 1.396 . S
C783 C788 1.390 . S
C784 C778 1.465 . S
C784 C783 1.396 . S
C784 C785 1.399 . S
C785 H771 0.929 . S
C785 C784 1.399 . S
C785 C786 1.385 . S
C786 H772 0.931 . S
C786 C785 1.385 . S
C786 C787 1.389 . S
C787 C786 1.389 . S
C787 C788 1.387 . S
C788 H773 0.930 . S
C788 C783 1.390 . S
C788 C787 1.387 . S
H789 C801 0.930 . S
H790 C803 0.930 . S
H791 C804 0.930 . S
H792 C808 0.959 . S
H793 C808 0.959 . S
H794 C808 0.961 . S
H795 C809 0.960 . S
H796 C809 0.961 . S
H797 C809 0.959 . S
H798 C812 0.929 . S
H799 C813 0.931 . S
H800 C815 0.930 . S
C801 H789 0.930 . S
C801 C802 1.399 1_545 S
C801 C806 1.399 . S
C802 C801 1.399 1_565 S
C802 C803 1.376 . S
C803 H790 0.930 . S
C803 C802 1.376 . S
C803 C804 1.388 1_565 S
C804 H791 0.930 . S
C804 C803 1.388 1_545 S
C804 C805 1.390 . S
C805 C804 1.390 . S
C805 C806 1.394 . S
C805 C811 1.465 . S
C806 C801 1.399 . S
C806 C805 1.394 . S
C806 C807 1.516 . S
C807 C806 1.516 . S
C807 C808 1.502 . S
C807 C809 1.561 . S
C807 C810 1.526 . S
C808 H792 0.959 . S
C808 H793 0.959 . S
C808 H794 0.961 . S
C808 C807 1.502 . S
C809 H795 0.960 . S
C809 H796 0.961 . S
C809 H797 0.959 . S
C809 C807 1.561 . S
C810 C807 1.526 . S
C810 C811 1.396 . S
C810 C815 1.390 . S
C811 C805 1.465 . S
C811 C810 1.396 . S
C811 C812 1.399 . S
C812 H798 0.929 . S
C812 C811 1.399 . S
C812 C813 1.385 . S
C813 H799 0.931 . S
C813 C812 1.385 . S
C813 C814 1.389 . S
C814 C813 1.389 . S
C814 C815 1.387 . S
C815 H800 0.930 . S
C815 C810 1.390 . S
C815 C814 1.387 . S
C181 C148 1.501 . S
C193 C8 1.283 . S
C208 C22 1.514 . S
C220 C162 1.259 . S
C235 C36 1.364 . S
C247 C92 1.548 . S
C262 C50 1.501 . S
C274 C106 1.321 . S
C289 C120 1.507 . S
C301 C64 1.264 . S
C316 C78 1.507 . S
C328 C134 1.352 . S
C343 C119 1.706 . S
C355 C7 1.685 . S
C370 C21 1.710 . S
C382 C133 1.701 . S
C397 C35 1.701 . S
C409 C147 1.714 . S
C424 C49 1.706 . S
C436 C161 1.684 . S
C451 C91 1.713 . S
C463 C63 1.650 . S
C478 C105 1.653 . S
C490 C77 1.715 . S
C505 C51 1.602 . S
C517 C9 1.532 . S
C532 C23 1.555 . S
C544 C65 1.571 . S
C559 C79 1.574 . S
C571 C37 1.551 . S
C586 C135 1.596 . S
C598 C93 1.538 . S
C613 C149 1.606 . S
C625 C107 1.532 . S
C640 C121 1.577 . S
C652 C163 1.549 . S
C667 C48 1.209 . S
C679 C6 1.221 . S
C694 C20 1.236 . S
C706 C62 1.227 . S
C721 C76 1.235 . S
C733 C34 1.220 . S
C748 C90 1.208 . S
C760 C132 1.218 . S
C775 C146 1.233 . S
C787 C104 1.234 . S
C802 C118 1.230 . S
C814 C160 1.217 . S
