# Generated by pormake.
# Topology cag, (4)-cn, num edge types: 1
# Building blocks:
#     Node 0, Type 0, BuildingBlock: TATPOV_clean_sbu_0, # of connection points: 4
#     Node 1, Type 0, BuildingBlock: TATPOV_clean_sbu_0, # of connection points: 4
#     Node 2, Type 0, BuildingBlock: TATPOV_clean_sbu_0, # of connection points: 4
#     Node 3, Type 0, BuildingBlock: TATPOV_clean_sbu_0, # of connection points: 4
#     Node 4, Type 0, BuildingBlock: TATPOV_clean_sbu_0, # of connection points: 4
#     Node 5, Type 0, BuildingBlock: TATPOV_clean_sbu_0, # of connection points: 4
#     Node 6, Type 0, BuildingBlock: TATPOV_clean_sbu_0, # of connection points: 4
#     Node 7, Type 0, BuildingBlock: TATPOV_clean_sbu_0, # of connection points: 4
#     Node 8, Type 0, BuildingBlock: TATPOV_clean_sbu_0, # of connection points: 4
#     Node 9, Type 0, BuildingBlock: TATPOV_clean_sbu_0, # of connection points: 4
#     Node 10, Type 0, BuildingBlock: TATPOV_clean_sbu_0, # of connection points: 4
#     Node 11, Type 0, BuildingBlock: TATPOV_clean_sbu_0, # of connection points: 4
#     Node 12, Type 0, BuildingBlock: TATPOV_clean_sbu_0, # of connection points: 4
#     Node 13, Type 0, BuildingBlock: TATPOV_clean_sbu_0, # of connection points: 4
#     Node 14, Type 0, BuildingBlock: TATPOV_clean_sbu_0, # of connection points: 4
#     Node 15, Type 0, BuildingBlock: TATPOV_clean_sbu_0, # of connection points: 4
#     Edge 16, Type (0, 0), BuildingBlock: KIFKEQ_clean_linker_1, # of connection points: 2
#     Edge 17, Type (0, 0), BuildingBlock: KIFKEQ_clean_linker_1, # of connection points: 2
#     Edge 18, Type (0, 0), BuildingBlock: KIFKEQ_clean_linker_1, # of connection points: 2
#     Edge 19, Type (0, 0), BuildingBlock: KIFKEQ_clean_linker_1, # of connection points: 2
#     Edge 20, Type (0, 0), BuildingBlock: KIFKEQ_clean_linker_1, # of connection points: 2
#     Edge 21, Type (0, 0), BuildingBlock: KIFKEQ_clean_linker_1, # of connection points: 2
#     Edge 22, Type (0, 0), BuildingBlock: KIFKEQ_clean_linker_1, # of connection points: 2
#     Edge 23, Type (0, 0), BuildingBlock: KIFKEQ_clean_linker_1, # of connection points: 2
#     Edge 24, Type (0, 0), BuildingBlock: KIFKEQ_clean_linker_1, # of connection points: 2
#     Edge 25, Type (0, 0), BuildingBlock: KIFKEQ_clean_linker_1, # of connection points: 2
#     Edge 26, Type (0, 0), BuildingBlock: KIFKEQ_clean_linker_1, # of connection points: 2
#     Edge 27, Type (0, 0), BuildingBlock: KIFKEQ_clean_linker_1, # of connection points: 2
#     Edge 28, Type (0, 0), BuildingBlock: KIFKEQ_clean_linker_1, # of connection points: 2
#     Edge 29, Type (0, 0), BuildingBlock: KIFKEQ_clean_linker_1, # of connection points: 2
#     Edge 30, Type (0, 0), BuildingBlock: KIFKEQ_clean_linker_1, # of connection points: 2
#     Edge 31, Type (0, 0), BuildingBlock: KIFKEQ_clean_linker_1, # of connection points: 2
#     Edge 32, Type (0, 0), BuildingBlock: KIFKEQ_clean_linker_1, # of connection points: 2
#     Edge 33, Type (0, 0), BuildingBlock: KIFKEQ_clean_linker_1, # of connection points: 2
#     Edge 34, Type (0, 0), BuildingBlock: KIFKEQ_clean_linker_1, # of connection points: 2
#     Edge 35, Type (0, 0), BuildingBlock: KIFKEQ_clean_linker_1, # of connection points: 2
#     Edge 36, Type (0, 0), BuildingBlock: KIFKEQ_clean_linker_1, # of connection points: 2
#     Edge 37, Type (0, 0), BuildingBlock: KIFKEQ_clean_linker_1, # of connection points: 2
#     Edge 38, Type (0, 0), BuildingBlock: KIFKEQ_clean_linker_1, # of connection points: 2
#     Edge 39, Type (0, 0), BuildingBlock: KIFKEQ_clean_linker_1, # of connection points: 2
#     Edge 40, Type (0, 0), BuildingBlock: KIFKEQ_clean_linker_1, # of connection points: 2
#     Edge 41, Type (0, 0), BuildingBlock: KIFKEQ_clean_linker_1, # of connection points: 2
#     Edge 42, Type (0, 0), BuildingBlock: KIFKEQ_clean_linker_1, # of connection points: 2
#     Edge 43, Type (0, 0), BuildingBlock: KIFKEQ_clean_linker_1, # of connection points: 2
#     Edge 44, Type (0, 0), BuildingBlock: KIFKEQ_clean_linker_1, # of connection points: 2
#     Edge 45, Type (0, 0), BuildingBlock: KIFKEQ_clean_linker_1, # of connection points: 2
#     Edge 46, Type (0, 0), BuildingBlock: KIFKEQ_clean_linker_1, # of connection points: 2
#     Edge 47, Type (0, 0), BuildingBlock: KIFKEQ_clean_linker_1, # of connection points: 2
# Relax obj value: 0.024
# Max RMSD: 0.072
# Mean RMSD: 0.062
data_MOF--net-cag--node1-TATPOV_clean_sbu_0--edge1-KIFKEQ_clean_linker_1
_symmetry_space_group_name_H-M    P1
_symmetry_Int_Tables_number       1
_symmetry_cell_setting            triclinic
loop_
_symmetry_equiv_pos_as_xyz
'x, y, z'
_cell_length_a     44.066595
_cell_length_b     49.398421
_cell_length_c     43.497191
_cell_angle_alpha  90.012586
_cell_angle_beta   90.213643
_cell_angle_gamma 89.91488
loop_
_atom_site_label
_atom_site_type_symbol
_atom_site_fract_x
_atom_site_fract_y
_atom_site_fract_z
_atom_type_partial_charge
Zn0 Zn 0.30331 0.14022 0.02952 0.0
Zn1 Zn 0.27971 0.13574 0.08529 0.0
O2 O 0.32544 0.14321 0.09119 0.0
O3 O 0.34503 0.14883 0.04527 0.0
O4 O 0.26755 0.13335 0.1302 0.0
O5 O 0.27366 0.16941 0.01991 0.0
O6 O 0.25436 0.16755 0.06655 0.0
C7 C 0.34825 0.14815 0.07416 0.0
C8 C 0.27701 0.08793 0.03989 0.0
O9 O 0.27037 0.09787 0.06617 0.0
O10 O 0.29147 0.10201 0.02057 0.0
C11 C 0.24233 0.12622 0.14175 0.0
O12 O 0.21982 0.11948 0.12341 0.0
C13 C 0.25482 0.17782 0.0396 0.0
Zn14 Zn 0.18473 0.84594 0.52747 0.0
Zn15 Zn 0.2102 0.85002 0.58245 0.0
O16 O 0.16468 0.84247 0.59067 0.0
O17 O 0.14406 0.83684 0.54503 0.0
O18 O 0.22685 0.85216 0.62604 0.0
O19 O 0.21411 0.81722 0.51582 0.0
O20 O 0.2348 0.81874 0.56199 0.0
C21 C 0.14151 0.83743 0.57397 0.0
C22 C 0.21081 0.89817 0.53733 0.0
O23 O 0.21845 0.88793 0.56322 0.0
O24 O 0.1956 0.88431 0.51828 0.0
C25 C 0.21866 0.87132 0.64375 0.0
O26 O 0.20058 0.89023 0.63288 0.0
C27 C 0.2337 0.80884 0.53489 0.0
Zn28 Zn 0.31405 0.84322 0.98425 0.0
Zn29 Zn 0.28689 0.84928 0.92999 0.0
O30 O 0.33276 0.8456 0.92024 0.0
O31 O 0.35515 0.84089 0.96519 0.0
O32 O 0.26904 0.85223 0.88698 0.0
O33 O 0.29074 0.80938 0.99193 0.0
O34 O 0.2659 0.81522 0.9484 0.0
C35 C 0.35684 0.84251 0.93623 0.0
C36 C 0.28166 0.89368 0.97931 0.0
O37 O 0.2758 0.88519 0.95218 0.0
O38 O 0.29727 0.87922 0.9975 0.0
C39 C 0.27657 0.87163 0.86934 0.0
O40 O 0.29465 0.89058 0.88002 0.0
C41 C 0.27062 0.80176 0.97302 0.0
Zn42 Zn 0.18256 0.14515 0.48821 0.0
Zn43 Zn 0.21034 0.1405 0.43423 0.0
O44 O 0.16498 0.14691 0.4245 0.0
O45 O 0.14185 0.15145 0.46887 0.0
O46 O 0.2268 0.13767 0.39073 0.0
O47 O 0.20924 0.17628 0.49864 0.0
O48 O 0.23316 0.17299 0.45442 0.0
C49 C 0.1408 0.1509 0.43983 0.0
C50 C 0.21185 0.09366 0.48097 0.0
O51 O 0.2193 0.10331 0.4548 0.0
O52 O 0.19604 0.10768 0.49929 0.0
C53 C 0.21448 0.12038 0.37291 0.0
O54 O 0.19379 0.10407 0.38421 0.0
C55 C 0.22962 0.18449 0.48049 0.0
Zn56 Zn 0.61364 0.92069 0.85518 0.0
Zn57 Zn 0.63399 0.87881 0.89024 0.0
O58 O 0.58966 0.86855 0.88249 0.0
O59 O 0.57194 0.90316 0.85598 0.0
O60 O 0.65108 0.84783 0.91489 0.0
O61 O 0.64371 0.91086 0.82196 0.0
O62 O 0.66201 0.87927 0.85255 0.0
C63 C 0.56769 0.88056 0.86907 0.0
C64 C 0.63503 0.93651 0.91556 0.0
O65 O 0.63822 0.91109 0.91911 0.0
O66 O 0.62619 0.94604 0.88998 0.0
C67 C 0.64136 0.83994 0.94089 0.0
O68 O 0.61793 0.85219 0.9533 0.0
C69 C 0.66292 0.89236 0.82734 0.0
Zn70 Zn 0.88494 0.07981 0.35246 0.0
Zn71 Zn 0.86575 0.12165 0.38835 0.0
O72 O 0.90985 0.13141 0.37977 0.0
O73 O 0.92686 0.09704 0.35255 0.0
O74 O 0.85032 0.15305 0.41326 0.0
O75 O 0.85384 0.09017 0.32012 0.0
O76 O 0.83654 0.12154 0.35148 0.0
C77 C 0.93146 0.11951 0.36586 0.0
C78 C 0.86484 0.06389 0.41329 0.0
O79 O 0.86182 0.0893 0.41707 0.0
O80 O 0.8731 0.05446 0.38751 0.0
C81 C 0.85435 0.15624 0.44201 0.0
O82 O 0.8701 0.1382 0.45753 0.0
C83 C 0.83482 0.10864 0.32618 0.0
Zn84 Zn 0.60872 0.08096 0.15445 0.0
Zn85 Zn 0.6278 0.12303 0.11908 0.0
O86 O 0.58324 0.13224 0.12649 0.0
O87 O 0.56656 0.09771 0.15358 0.0
O88 O 0.64336 0.15457 0.09457 0.0
O89 O 0.63891 0.09145 0.1875 0.0
O90 O 0.65624 0.12313 0.15662 0.0
C91 C 0.56166 0.12004 0.14005 0.0
C92 C 0.6306 0.06529 0.0942 0.0
O93 O 0.63319 0.09073 0.0905 0.0
O94 O 0.62182 0.05575 0.11971 0.0
C95 C 0.63991 0.15768 0.06573 0.0
O96 O 0.62466 0.13954 0.04993 0.0
C97 C 0.65773 0.11014 0.18189 0.0
Zn98 Zn 0.88602 0.91598 0.65111 0.0
Zn99 Zn 0.86387 0.87552 0.6151 0.0
O100 O 0.90755 0.86276 0.62266 0.0
O101 O 0.92653 0.89635 0.64994 0.0
O102 O 0.84422 0.84683 0.58883 0.0
O103 O 0.8554 0.90697 0.68398 0.0
O104 O 0.83582 0.87646 0.65283 0.0
C105 C 0.9299 0.87376 0.63652 0.0
C106 C 0.866 0.93396 0.59139 0.0
O107 O 0.86169 0.90874 0.58737 0.0
O108 O 0.87508 0.94279 0.61719 0.0
C109 C 0.85706 0.83201 0.5688 0.0
O110 O 0.88642 0.83423 0.56429 0.0
C111 C 0.83541 0.88927 0.67826 0.0
Zn112 Zn 0.80272 0.64411 0.02502 0.0
Zn113 Zn 0.77699 0.6407 0.08081 0.0
O114 O 0.82222 0.64775 0.08943 0.0
O115 O 0.8433 0.65347 0.04407 0.0
O116 O 0.76034 0.63927 0.12424 0.0
O117 O 0.77358 0.67311 0.0133 0.0
O118 O 0.75283 0.67197 0.05932 0.0
C119 C 0.84545 0.65282 0.07309 0.0
C120 C 0.77635 0.59189 0.03691 0.0
O121 O 0.76955 0.60241 0.0628 0.0
O122 O 0.79052 0.60548 0.01692 0.0
C123 C 0.7696 0.6207 0.14228 0.0
O124 O 0.78839 0.60228 0.13165 0.0
C125 C 0.75412 0.68181 0.03219 0.0
Zn126 Zn 0.6839 0.34589 0.52443 0.0
Zn127 Zn 0.71079 0.35068 0.58002 0.0
O128 O 0.66529 0.34492 0.58894 0.0
O129 O 0.64295 0.34056 0.54382 0.0
O130 O 0.72866 0.35338 0.62315 0.0
O131 O 0.70926 0.31349 0.51578 0.0
O132 O 0.73335 0.31796 0.55997 0.0
C133 C 0.64146 0.34115 0.57285 0.0
C134 C 0.71403 0.39715 0.5332 0.0
O135 O 0.71954 0.38776 0.55998 0.0
O136 O 0.69971 0.38307 0.51362 0.0
C137 C 0.71405 0.36598 0.64394 0.0
O138 O 0.68839 0.37796 0.63661 0.0
C139 C 0.72941 0.30553 0.5345 0.0
Zn140 Zn 0.81363 0.34528 0.98558 0.0
Zn141 Zn 0.78739 0.3504 0.92971 0.0
O142 O 0.83291 0.34401 0.92123 0.0
O143 O 0.85468 0.33937 0.96661 0.0
O144 O 0.7699 0.35333 0.88643 0.0
O145 O 0.78774 0.31323 0.99398 0.0
O146 O 0.76421 0.31798 0.94951 0.0
C147 C 0.8565 0.33991 0.9376 0.0
C148 C 0.78423 0.3969 0.97657 0.0
O149 O 0.77888 0.38758 0.94972 0.0
O150 O 0.79819 0.38265 0.99628 0.0
C151 C 0.78491 0.36545 0.8656 0.0
O152 O 0.81088 0.37683 0.87292 0.0
C153 C 0.76769 0.30553 0.97503 0.0
Zn154 Zn 0.68474 0.64181 0.48622 0.0
Zn155 Zn 0.70912 0.64049 0.43011 0.0
O156 O 0.66337 0.64629 0.42233 0.0
O157 O 0.64276 0.64596 0.46829 0.0
O158 O 0.72515 0.63986 0.3864 0.0
O159 O 0.70926 0.67448 0.49643 0.0
O160 O 0.73185 0.67253 0.45142 0.0
C161 C 0.63996 0.64769 0.43938 0.0
C162 C 0.71542 0.59187 0.47409 0.0
O163 O 0.71911 0.60239 0.44757 0.0
O164 O 0.70216 0.60498 0.49514 0.0
C165 C 0.71704 0.62067 0.36865 0.0
O166 O 0.69976 0.60135 0.37968 0.0
C167 C 0.72869 0.68359 0.47778 0.0
Zn168 Zn 0.11183 0.41282 0.86027 0.0
Zn169 Zn 0.13673 0.3746 0.89782 0.0
O170 O 0.09267 0.36227 0.8924 0.0
O171 O 0.07255 0.3915 0.85989 0.0
O172 O 0.15549 0.34531 0.92376 0.0
O173 O 0.14396 0.40509 0.82838 0.0
O174 O 0.16412 0.37489 0.8596 0.0
C175 C 0.07011 0.37066 0.87666 0.0
C176 C 0.13199 0.43272 0.92025 0.0
O177 O 0.13993 0.40822 0.92445 0.0
O178 O 0.11983 0.43985 0.89503 0.0
C179 C 0.14568 0.33796 0.94992 0.0
O180 O 0.12169 0.34996 0.96152 0.0
C181 C 0.16431 0.38768 0.83416 0.0
Zn182 Zn 0.38275 0.57749 0.35473 0.0
Zn183 Zn 0.36136 0.6185 0.39035 0.0
O184 O 0.40571 0.62925 0.38367 0.0
O185 O 0.42371 0.59637 0.35478 0.0
O186 O 0.34375 0.64883 0.41524 0.0
O187 O 0.35095 0.58622 0.32224 0.0
O188 O 0.33318 0.618 0.35275 0.0
C189 C 0.42772 0.61831 0.36936 0.0
C190 C 0.36244 0.5609 0.41544 0.0
O191 O 0.35709 0.58605 0.41861 0.0
O192 O 0.37284 0.55192 0.39026 0.0
C193 C 0.35244 0.65573 0.44202 0.0
O194 O 0.37527 0.64294 0.45503 0.0
C195 C 0.33168 0.60463 0.32777 0.0
Zn196 Zn 0.10217 0.58376 0.15587 0.0
Zn197 Zn 0.12663 0.62257 0.119 0.0
O198 O 0.08216 0.63402 0.12305 0.0
O199 O 0.06228 0.60452 0.15519 0.0
O200 O 0.14539 0.65231 0.09404 0.0
O201 O 0.13392 0.59172 0.18851 0.0
O202 O 0.15358 0.62223 0.1576 0.0
C203 C 0.05955 0.62523 0.1382 0.0
C204 C 0.12426 0.56451 0.09629 0.0
O205 O 0.1315 0.58918 0.09243 0.0
O206 O 0.11164 0.55703 0.12106 0.0
C207 C 0.14188 0.65545 0.06523 0.0
O208 O 0.12445 0.63861 0.04987 0.0
C209 C 0.15404 0.60931 0.18293 0.0
Zn210 Zn 0.38698 0.41537 0.65589 0.0
Zn211 Zn 0.36164 0.37656 0.61896 0.0
O212 O 0.40586 0.36438 0.62284 0.0
O213 O 0.42645 0.39404 0.65453 0.0
O214 O 0.34159 0.34836 0.59251 0.0
O215 O 0.35565 0.4069 0.68855 0.0
O216 O 0.33568 0.37609 0.65801 0.0
C217 C 0.42872 0.37312 0.63782 0.0
C218 C 0.36454 0.43513 0.59694 0.0
O219 O 0.35711 0.41048 0.59326 0.0
O220 O 0.37753 0.44263 0.62159 0.0
C221 C 0.35397 0.33592 0.57022 0.0
O222 O 0.38248 0.34078 0.56349 0.0
C223 C 0.33577 0.38894 0.6834 0.0
H224 H 0.22896 0.21816 0.07493 0.0
H225 H 0.23313 0.18643 0.98252 0.0
H226 H 0.20075 0.2578 0.05565 0.0
H227 H 0.20484 0.22514 0.96363 0.0
H228 H 0.19697 0.31119 0.93308 0.0
H229 H 0.22049 0.27248 0.95783 0.0
H230 H 0.15222 0.27415 0.02879 0.0
H231 H 0.12862 0.31359 1.00407 0.0
C232 C 0.22332 0.21939 0.05072 0.0
C233 C 0.23369 0.19953 0.03012 0.0
C234 C 0.20724 0.24201 0.03969 0.0
C235 C 0.20128 0.24486 0.00801 0.0
C236 C 0.20988 0.22395 0.988 0.0
C237 C 0.22598 0.2017 0.99887 0.0
C238 C 0.18692 0.30347 0.954 0.0
C239 C 0.16068 0.31532 0.96637 0.0
C240 C 0.20036 0.28116 0.96814 0.0
C241 C 0.18789 0.26997 0.99498 0.0
C242 C 0.16229 0.28234 0.00811 0.0
C243 C 0.14875 0.30482 0.99388 0.0
H244 H 0.30076 0.68129 0.42392 0.0
H245 H 0.36765 0.6801 0.49686 0.0
H246 H 0.27463 0.71826 0.44906 0.0
H247 H 0.34156 0.71802 0.5219 0.0
H248 H 0.26254 0.76906 0.56874 0.0
H249 H 0.29323 0.73155 0.54823 0.0
H250 H 0.28503 0.76559 0.45707 0.0
H251 H 0.25405 0.802 0.47715 0.0
C252 C 0.31003 0.68902 0.44529 0.0
C253 C 0.33651 0.67792 0.45819 0.0
C254 C 0.29508 0.71035 0.45967 0.0
C255 C 0.30631 0.7214 0.48723 0.0
C256 C 0.33237 0.70991 0.50069 0.0
C257 C 0.34736 0.68833 0.48627 0.0
C258 C 0.26768 0.76852 0.54442 0.0
C259 C 0.25545 0.78807 0.52443 0.0
C260 C 0.28523 0.74715 0.53269 0.0
C261 C 0.29093 0.74529 0.50091 0.0
C262 C 0.28027 0.76592 0.48148 0.0
C263 C 0.2626 0.78688 0.49303 0.0
H264 H 0.21398 0.78756 0.95134 0.0
H265 H 0.28552 0.76195 0.01306 0.0
H266 H 0.18126 0.75144 0.97138 0.0
H267 H 0.25337 0.72606 0.03245 0.0
H268 H 0.17799 0.69392 0.09104 0.0
H269 H 0.20817 0.728 0.06524 0.0
H270 H 0.17471 0.70047 0.9772 0.0
H271 H 0.14384 0.6662 1.00321 0.0
C272 C 0.22288 0.77395 0.96869 0.0
C273 C 0.2521 0.77786 0.98101 0.0
C274 C 0.2042 0.75332 0.98014 0.0
C275 C 0.21457 0.73635 1.00396 0.0
C276 C 0.24445 0.73929 0.01471 0.0
C277 C 0.26292 0.75981 1.00347 0.0
C278 C 0.17688 0.69509 0.06619 0.0
C279 C 0.15871 0.67714 0.04918 0.0
C280 C 0.19434 0.71457 0.05138 0.0
C281 C 0.19419 0.71661 0.01916 0.0
C282 C 0.17526 0.69933 1.00207 0.0
C283 C 0.1577 0.67969 0.01696 0.0
H284 H 0.37491 0.29748 0.52982 0.0
H285 H 0.29283 0.32891 0.57064 0.0
H286 H 0.34538 0.26166 0.50476 0.0
H287 H 0.26351 0.29389 0.54512 0.0
H288 H 0.22962 0.20855 0.53646 0.0
H289 H 0.26017 0.24581 0.55443 0.0
H290 H 0.30462 0.25022 0.46623 0.0
H291 H 0.27392 0.21186 0.44799 0.0
C292 C 0.35056 0.29697 0.5331 0.0
C293 C 0.33626 0.3157 0.55266 0.0
C294 C 0.33366 0.27658 0.5186 0.0
C295 C 0.3022 0.2747 0.52335 0.0
C296 C 0.28782 0.29438 0.54158 0.0
C297 C 0.30464 0.3145 0.55619 0.0
C298 C 0.24577 0.21736 0.52065 0.0
C299 C 0.24909 0.20729 0.49061 0.0
C300 C 0.26322 0.23894 0.53099 0.0
C301 C 0.28446 0.25131 0.51162 0.0
C302 C 0.28837 0.24107 0.48168 0.0
C303 C 0.27076 0.21922 0.47121 0.0
H304 H 0.72516 0.72123 0.06633 0.0
H305 H 0.73559 0.69072 0.97391 0.0
H306 H 0.69609 0.75993 0.04609 0.0
H307 H 0.70627 0.72838 0.95405 0.0
H308 H 0.69301 0.81399 0.92354 0.0
H309 H 0.71768 0.77577 0.94807 0.0
H310 H 0.64894 0.77513 0.01861 0.0
H311 H 0.62433 0.81421 0.99422 0.0
C312 C 0.72079 0.72255 0.04186 0.0
C313 C 0.7331 0.70327 0.02164 0.0
C314 C 0.70417 0.74462 0.03027 0.0
C315 C 0.6995 0.74754 0.99837 0.0
C316 C 0.71025 0.72724 0.97861 0.0
C317 C 0.72696 0.70554 0.99004 0.0
C318 C 0.68306 0.80581 0.94428 0.0
C319 C 0.6565 0.81702 0.95671 0.0
C320 C 0.69715 0.78375 0.9583 0.0
C321 C 0.685 0.7721 0.98504 0.0
C322 C 0.65886 0.78368 0.99805 0.0
C323 C 0.64471 0.80595 0.98399 0.0
H324 H 0.82456 0.19861 0.4157 0.0
H325 H 0.8508 0.16605 0.50415 0.0
H326 H 0.79636 0.23438 0.4411 0.0
H327 H 0.82191 0.20201 0.52971 0.0
H328 H 0.78502 0.28949 0.55788 0.0
H329 H 0.81797 0.2535 0.53749 0.0
H330 H 0.74886 0.2329 0.47088 0.0
H331 H 0.71654 0.26845 0.49063 0.0
C332 C 0.82442 0.19912 0.44059 0.0
C333 C 0.83959 0.17924 0.45788 0.0
C334 C 0.80815 0.2196 0.45516 0.0
C335 C 0.80649 0.2207 0.48739 0.0
C336 C 0.8228 0.20163 0.50483 0.0
C337 C 0.83921 0.18102 0.49018 0.0
C338 C 0.77686 0.27702 0.53912 0.0
C339 C 0.74841 0.28211 0.52554 0.0
C340 C 0.79567 0.25647 0.52748 0.0
C341 C 0.78621 0.24083 0.50215 0.0
C342 C 0.75714 0.2451 0.48983 0.0
C343 C 0.73855 0.26546 0.50129 0.0
H344 H 0.71231 0.29004 0.95074 0.0
H345 H 0.77932 0.26853 0.01936 0.0
H346 H 0.6786 0.25452 0.97068 0.0
H347 H 0.74625 0.23344 0.03869 0.0
H348 H 0.66926 0.20003 0.09249 0.0
H349 H 0.69813 0.23553 0.06753 0.0
H350 H 0.67415 0.20303 0.97855 0.0
H351 H 0.6446 0.16735 1.00366 0.0
C352 C 0.71998 0.27757 0.96971 0.0
C353 C 0.74825 0.28239 0.98379 0.0
C354 C 0.70074 0.25728 0.9811 0.0
C355 C 0.70956 0.24165 0.00668 0.0
C356 C 0.73845 0.24565 0.01953 0.0
C357 C 0.75747 0.26574 0.00831 0.0
C358 C 0.66987 0.20046 0.0676 0.0
C359 C 0.65497 0.18061 0.05009 0.0
C360 C 0.68652 0.22079 0.05329 0.0
C361 C 0.68883 0.22176 0.0211 0.0
C362 C 0.67276 0.20275 1.0034 0.0
C363 C 0.65597 0.18229 0.0178 0.0
H364 H 0.87711 0.79016 0.53247 0.0
H365 H 0.79552 0.82929 0.56494 0.0
H366 H 0.8462 0.75557 0.50697 0.0
H367 H 0.76489 0.79543 0.53893 0.0
H368 H 0.72402 0.71188 0.53102 0.0
H369 H 0.75542 0.74847 0.54942 0.0
H370 H 0.80817 0.74534 0.46597 0.0
H371 H 0.77664 0.70769 0.44744 0.0
C372 C 0.85262 0.79158 0.53384 0.0
C373 C 0.83878 0.81219 0.55117 0.0
C374 C 0.83493 0.77188 0.51906 0.0
C375 C 0.8031 0.77254 0.52126 0.0
C376 C 0.78937 0.79396 0.53736 0.0
C377 C 0.80695 0.81342 0.55225 0.0
C378 C 0.74218 0.71891 0.51635 0.0
C379 C 0.74773 0.70678 0.48765 0.0
C380 C 0.76012 0.74014 0.52689 0.0
C381 C 0.78414 0.75007 0.50906 0.0
C382 C 0.78987 0.73806 0.48029 0.0
C383 C 0.77173 0.71663 0.46961 0.0
H384 H 0.28158 0.06463 0.98352 0.0
H385 H 0.25476 0.04724 0.07692 0.0
H386 H 0.27526 0.01755 0.96995 0.0
H387 H 0.24752 -0.00038 0.06294 0.0
H388 H 0.28998 0.91637 0.03584 0.0
H389 H 0.28137 0.96294 0.051 0.0
H390 H 0.24242 0.97986 0.96171 0.0
H391 H 0.25201 0.93311 0.94606 0.0
C392 C 0.27384 0.0508 1.00114 0.0
C393 C 0.26915 0.05969 0.03149 0.0
C394 C 0.26985 0.02372 0.99319 0.0
C395 C 0.26097 0.00466 0.01532 0.0
C396 C 0.25478 0.01373 0.0454 0.0
C397 C 0.25878 0.04101 0.05341 0.0
C398 C 0.27924 0.92987 0.01946 0.0
C399 C 0.27218 0.92108 0.98949 0.0
C400 C 0.274 0.95661 0.02834 0.0
C401 C 0.26144 0.9753 0.00753 0.0
C402 C 0.25264 0.9661 0.97815 0.0
C403 C 0.25801 0.93928 0.9692 0.0
H404 H 0.20332 0.92256 0.4818 0.0
H405 H 0.23613 0.93771 0.57397 0.0
H406 H 0.21084 0.96967 0.46875 0.0
H407 H 0.24444 0.98525 0.56051 0.0
H408 H 0.20408 0.07011 0.53695 0.0
H409 H 0.21088 0.02297 0.55067 0.0
H410 H 0.24573 0.00631 0.45988 0.0
H411 H 0.23811 0.05378 0.44572 0.0
C412 C 0.21257 0.93589 0.49923 0.0
C413 C 0.2187 0.9264 0.52912 0.0
C414 C 0.21724 0.96295 0.49157 0.0
C415 C 0.22819 0.98133 0.51356 0.0
C416 C 0.23563 0.97165 0.54312 0.0
C417 C 0.23098 0.94442 0.55083 0.0
C418 C 0.21351 0.05653 0.51991 0.0
C419 C 0.22007 0.06566 0.49002 0.0
C420 C 0.21773 0.02946 0.52796 0.0
C421 C 0.22866 0.01076 0.50635 0.0
C422 C 0.23684 0.02015 0.47694 0.0
C423 C 0.2326 0.04735 0.46884 0.0
H424 H 0.62717 0.92506 0.97609 0.0
H425 H 0.65305 0.98928 0.91432 0.0
H426 H 0.62926 0.95628 0.01914 0.0
H427 H 0.6575 0.0203 0.95762 0.0
H428 H 0.62385 0.07633 0.03337 0.0
H429 H 0.62819 0.04511 0.99054 0.0
H430 H 0.65649 0.98181 0.0533 0.0
H431 H 0.64981 0.01281 0.09631 0.0
C432 C 0.63404 0.94579 0.97189 0.0
C433 C 0.63971 0.95484 0.9419 0.0
C434 C 0.63548 0.96374 0.99664 0.0
C435 C 0.6434 0.99107 0.9921 0.0
C436 C 0.65049 -0.00031 0.96209 0.0
C437 C 0.64822 0.98188 0.93723 0.0
C438 C 0.63118 0.05576 0.03791 0.0
C439 C 0.63625 0.0469 0.06813 0.0
C440 C 0.63394 0.03781 0.01328 0.0
C441 C 0.64262 0.01069 0.01821 0.0
C442 C 0.64898 0.00225 0.04851 0.0
C443 C 0.64541 0.02005 0.07321 0.0
H444 H 0.87412 0.0749 0.47379 0.0
H445 H 0.84612 0.01132 0.41188 0.0
H446 H 0.87202 0.04356 0.51671 0.0
H447 H 0.84164 0.98023 0.45505 0.0
H448 H 0.84962 0.9872 0.59371 0.0
H449 H 0.84442 0.0186 0.55085 0.0
H450 H 0.8703 0.95472 0.48795 0.0
H451 H 0.87311 0.92316 0.53062 0.0
C452 C 0.86682 0.05429 0.46953 0.0
C453 C 0.8605 0.04544 0.43954 0.0
C454 C 0.86537 0.03627 0.49421 0.0
C455 C 0.85677 0.00911 0.4896 0.0
C456 C 0.84917 0.00069 0.45958 0.0
C457 C 0.85145 0.01855 0.43479 0.0
C458 C 0.85385 0.97994 0.57061 0.0
C459 C 0.86178 0.95281 0.56544 0.0
C460 C 0.85114 -0.00203 0.54599 0.0
C461 C 0.85714 0.98945 0.51568 0.0
C462 C 0.86481 0.9621 0.51069 0.0
C463 C 0.8667 0.94395 0.53522 0.0
H464 H 0.78469 0.44145 0.9397 0.0
H465 H 0.76509 0.41531 0.03208 0.0
H466 H 0.77795 0.48834 0.95519 0.0
H467 H 0.75582 0.46198 0.04737 0.0
H468 H 0.78343 0.54824 0.07448 0.0
H469 H 0.78078 0.50074 0.05977 0.0
H470 H 0.74889 0.52416 0.96927 0.0
H471 H 0.75419 0.57153 0.98358 0.0
C472 C 0.77805 0.44579 0.96315 0.0
C473 C 0.77565 0.42487 0.98475 0.0
C474 C 0.77395 0.47273 0.97213 0.0
C475 C 0.76649 0.47934 1.00278 0.0
C476 C 0.7624 0.45802 0.02386 0.0
C477 C 0.76739 0.43118 0.01505 0.0
C478 C 0.77545 0.54305 0.05163 0.0
C479 C 0.76923 0.56339 0.03008 0.0
C480 C 0.77375 0.51576 0.0431 0.0
C481 C 0.76498 0.50825 0.01302 0.0
C482 C 0.75673 0.52889 0.99226 0.0
C483 C 0.75936 0.55611 1.00053 0.0
H484 H 0.7145 0.44151 0.57038 0.0
H485 H 0.73214 0.41575 0.47742 0.0
H486 H 0.72051 0.48847 0.55496 0.0
H487 H 0.74063 0.46251 0.46213 0.0
H488 H 0.70911 0.54824 0.4364 0.0
H489 H 0.71414 0.50083 0.45066 0.0
H490 H 0.74851 0.52473 0.54003 0.0
H491 H 0.74093 0.57201 0.52625 0.0
C492 C 0.72059 0.44594 0.54681 0.0
C493 C 0.72258 0.4251 0.52504 0.0
C494 C 0.72427 0.47293 0.53786 0.0
C495 C 0.73084 0.47966 0.50705 0.0
C496 C 0.7347 0.45843 0.4858 0.0
C497 C 0.73015 0.43154 0.49459 0.0
C498 C 0.71821 0.54322 0.45886 0.0
C499 C 0.7244 0.56365 0.48032 0.0
C500 C 0.72127 0.51597 0.46713 0.0
C501 C 0.73136 0.50859 0.49683 0.0
C502 C 0.7397 0.52936 0.51738 0.0
C503 C 0.73575 0.55652 0.50939 0.0
H504 H 0.14838 0.57425 0.03955 0.0
H505 H 0.11175 0.51023 0.09608 0.0
H506 H 0.15402 0.5425 0.99708 0.0
H507 H 0.11701 0.47864 0.05338 0.0
H508 H 0.1531 0.42352 0.97855 0.0
H509 H 0.15479 0.45534 0.02137 0.0
H510 H 0.11942 0.51833 0.96235 0.0
H511 H 0.11812 0.48671 0.91941 0.0
C512 C 0.14166 0.55338 0.043 0.0
C513 C 0.12946 0.54481 0.0712 0.0
C514 C 0.14477 0.53524 0.01858 0.0
C515 C 0.13583 0.50811 0.02183 0.0
C516 C 0.1244 0.49936 0.05027 0.0
C517 C 0.12122 0.51751 0.07468 0.0
C518 C 0.14597 0.44423 0.9746 0.0
C519 C 0.13533 0.45254 0.94556 0.0
C520 C 0.14678 0.4624 0.9992 0.0
C521 C 0.13709 0.48929 0.99528 0.0
C522 C 0.12733 0.49781 0.96604 0.0
C523 C 0.12643 0.47963 0.94145 0.0
H524 H 0.34382 0.57386 0.47355 0.0
H525 H 0.37159 0.50615 0.41721 0.0
H526 H 0.34039 0.54398 0.51799 0.0
H527 H 0.36861 0.47645 0.46175 0.0
H528 H 0.33738 0.42548 0.54148 0.0
H529 H 0.33291 0.45618 0.49793 0.0
H530 H 0.37644 0.51925 0.55083 0.0
H531 H 0.38051 0.48869 0.59468 0.0
C532 C 0.349 0.55258 0.47057 0.0
C533 C 0.35811 0.54241 0.44183 0.0
C534 C 0.3472 0.53551 0.4961 0.0
C535 C 0.35435 0.5079 0.49342 0.0
C536 C 0.36262 0.49758 0.4645 0.0
C537 C 0.3645 0.51465 0.43899 0.0
C538 C 0.34575 0.44598 0.54398 0.0
C539 C 0.35952 0.45457 0.57153 0.0
C540 C 0.34331 0.46351 0.51894 0.0
C541 C 0.35453 0.49005 0.52085 0.0
C542 C 0.36733 0.49897 0.54873 0.0
C543 C 0.36981 0.48142 0.57381 0.0
H544 H 0.50989 0.09763 0.16324 0.0
H545 H 0.54215 0.16572 0.11023 0.0
H546 H 0.45784 0.11012 0.15119 0.0
H547 H 0.48988 0.17857 0.09876 0.0
H548 H 0.40114 0.1595 0.04445 0.0
H549 H 0.45227 0.15808 0.06534 0.0
H550 H 0.41623 0.14222 0.15581 0.0
H551 H 0.36481 0.14308 0.13472 0.0
C552 C 0.50589 0.11563 0.14958 0.0
C553 C 0.53023 0.13041 0.13728 0.0
C554 C 0.47597 0.12291 0.14284 0.0
C555 C 0.46971 0.14518 0.12372 0.0
C556 C 0.49399 0.16103 0.11312 0.0
C557 C 0.52395 0.15372 0.11982 0.0
C558 C 0.40402 0.15608 0.06888 0.0
C559 C 0.37889 0.15104 0.08782 0.0
C560 C 0.43339 0.1555 0.08093 0.0
C561 C 0.43836 0.14989 0.11223 0.0
C562 C 0.41315 0.14624 0.13152 0.0
C563 C 0.3837 0.14685 0.11944 0.0
H564 H 0.94682 0.82679 0.60754 0.0
H565 H 0.98267 0.89351 0.66069 0.0
H566 H -0.00162 0.81104 0.59767 0.0
H567 H 0.03392 0.87832 0.65007 0.0
H568 H 0.12538 0.84358 0.63452 0.0
H569 H 0.074 0.84568 0.65531 0.0
H570 H 0.03749 0.82825 0.5651 0.0
H571 H 0.08845 0.82538 0.54467 0.0
C572 C 0.96564 0.83788 0.61747 0.0
C573 C 0.96061 0.86165 0.6345 0.0
C574 C 0.9952 0.82893 0.6117 0.0
C575 C 0.02035 0.8436 0.62272 0.0
C576 C 0.01518 0.86634 0.64142 0.0
C577 C 0.98568 0.87521 0.64731 0.0
C578 C 0.10638 0.83964 0.61931 0.0
C579 C 0.11102 0.8347 0.58784 0.0
C580 C 0.07693 0.84098 0.63118 0.0
C581 C 0.05156 0.83742 0.61183 0.0
C582 C 0.0564 0.83082 0.5808 0.0
C583 C 0.08573 0.82943 0.56898 0.0
H584 H 0.41109 0.83113 0.96338 0.0
H585 H 0.37116 0.85341 0.87604 0.0
H586 H 0.46135 0.83565 0.94166 0.0
H587 H 0.42194 0.8574 0.85393 0.0
H588 H 0.5149 0.90357 0.84857 0.0
H589 H 0.46339 0.88944 0.86017 0.0
H590 H 0.49817 0.81821 0.906 0.0
H591 H 0.54987 0.83272 0.89513 0.0
C592 C 0.41302 0.83658 0.93935 0.0
C593 C 0.38708 0.8422 0.92154 0.0
C594 C 0.44193 0.83892 0.92678 0.0
C595 C 0.44572 0.84691 0.89604 0.0
C596 C 0.41977 0.85146 0.87779 0.0
C597 C 0.3907 0.84905 0.8904 0.0
C598 C 0.5116 0.88465 0.86067 0.0
C599 C 0.53655 0.86952 0.87139 0.0
C600 C 0.48199 0.87644 0.86713 0.0
C601 C 0.47665 0.85287 0.88436 0.0
C602 C 0.50155 0.83676 0.8932 0.0
C603 C 0.53118 0.84502 0.88685 0.0
H604 H 0.08629 0.16378 0.46531 0.0
H605 H 0.12803 0.14269 0.37875 0.0
H606 H 0.03657 0.16155 0.4414 0.0
H607 H 0.07792 0.14097 0.35452 0.0
H608 H 0.98403 0.09616 0.34562 0.0
H609 H 0.0356 0.10942 0.35868 0.0
H610 H 0.0014 0.18075 0.40453 0.0
H611 H 0.94965 0.16715 0.39214 0.0
C612 C 0.0849 0.15913 0.441 0.0
C613 C 0.11111 0.15308 0.42403 0.0
C614 C 0.05634 0.15811 0.42719 0.0
C615 C 0.05325 0.15101 0.39604 0.0
C616 C 0.07956 0.14623 0.37865 0.0
C617 C 0.10825 0.14733 0.39249 0.0
C618 C 0.98749 0.11496 0.35796 0.0
C619 C 0.96268 0.13032 0.36836 0.0
C620 C 0.01713 0.12267 0.36528 0.0
C621 C 0.02258 0.14594 0.38304 0.0
C622 C -0.00212 0.16241 0.39134 0.0
C623 C 0.96824 0.15466 0.38412 0.0
H624 H 0.03837 0.64865 0.08596 0.0
H625 H 0.01204 0.62747 0.17829 0.0
H626 H 0.9863 0.65997 0.07358 0.0
H627 H 0.95997 0.64095 0.16696 0.0
H628 H 0.86655 0.62619 0.1234 0.0
H629 H 0.91842 0.62461 0.14221 0.0
H630 H 0.94373 0.68555 0.07549 0.0
H631 H 0.89218 0.6851 0.05515 0.0
C632 C 0.0215 0.64732 0.10395 0.0
C633 C 0.02915 0.63695 0.13298 0.0
C634 C 0.99146 0.654 0.09695 0.0
C635 C 0.9684 0.65117 0.1191 0.0
C636 C 0.97669 0.64263 0.14891 0.0
C637 C 0.00663 0.63518 0.1556 0.0
C638 C 0.88321 0.63946 0.11308 0.0
C639 C 0.87555 0.65552 0.08764 0.0
C640 C 0.91307 0.63877 0.124 0.0
C641 C 0.9358 0.65472 0.11024 0.0
C642 C 0.92734 0.67226 0.08612 0.0
C643 C 0.89769 0.67228 0.0746 0.0
H644 H 0.59411 0.30908 0.55633 0.0
H645 H 0.62155 0.36946 0.62237 0.0
H646 H 0.54283 0.30982 0.57692 0.0
H647 H 0.56988 0.37221 0.64139 0.0
H648 H 0.47653 0.37116 0.67787 0.0
H649 H 0.5283 0.35684 0.66683 0.0
H650 H 0.50084 0.33617 0.57403 0.0
H651 H 0.44906 0.3484 0.58615 0.0
C652 C 0.58903 0.3225 0.57535 0.0
C653 C 0.61158 0.33933 0.58769 0.0
C654 C 0.55956 0.32318 0.587 0.0
C655 C 0.55168 0.34149 0.61052 0.0
C656 C 0.57482 0.35752 0.62364 0.0
C657 C 0.60453 0.35615 0.61262 0.0
C658 C 0.48162 0.36292 0.65538 0.0
C659 C 0.45889 0.36096 0.63283 0.0
C660 C 0.51138 0.35497 0.64886 0.0
C661 C 0.51925 0.3457 0.6193 0.0
C662 C 0.49597 0.3427 0.59724 0.0
C663 C 0.46611 0.3499 0.60408 0.0
H664 H 0.04884 0.34569 0.92774 0.0
H665 H 0.02328 0.36846 0.83545 0.0
H666 H -0.00315 0.33348 0.93869 0.0
H667 H 0.97132 0.35417 0.84535 0.0
H668 H 0.87739 0.36783 0.88825 0.0
H669 H 0.92936 0.36996 0.87001 0.0
H670 H 0.95478 0.30734 0.93493 0.0
H671 H 0.90319 0.30721 0.95473 0.0
C672 C 0.03219 0.34718 0.90943 0.0
C673 C 0.03998 0.35828 0.88087 0.0
C674 C 0.00221 0.33999 0.9156 0.0
C675 C 0.97938 0.34305 0.89306 0.0
C676 C 0.98787 0.35227 0.86366 0.0
C677 C 0.01774 0.3602 0.8578 0.0
C678 C 0.89411 0.35433 0.89826 0.0
C679 C 0.88652 0.33764 0.92311 0.0
C680 C 0.924 0.35534 0.88768 0.0
C681 C 0.94677 0.33909 0.90119 0.0
C682 C 0.93834 0.32087 0.92457 0.0
C683 C 0.90869 0.32054 0.93577 0.0
H684 H 0.62411 0.64534 0.37835 0.0
H685 H 0.58623 0.65461 0.46929 0.0
H686 H 0.5729 0.64426 0.35661 0.0
H687 H 0.5354 0.65302 0.44772 0.0
H688 H 0.44587 0.66246 0.4028 0.0
H689 H 0.49775 0.67538 0.41575 0.0
H690 H 0.53182 0.61128 0.35773 0.0
H691 H 0.48015 0.59874 0.34423 0.0
C692 C 0.60492 0.64745 0.39366 0.0
C693 C 0.60927 0.64981 0.42559 0.0
C694 C 0.57559 0.64673 0.38121 0.0
C695 C 0.55005 0.64847 0.40042 0.0
C696 C 0.55452 0.652 0.43218 0.0
C697 C 0.58374 0.65265 0.4446 0.0
C698 C 0.46442 0.6515 0.39227 0.0
C699 C 0.45882 0.62931 0.37282 0.0
C700 C 0.49416 0.65881 0.39985 0.0
C701 C 0.51892 0.64411 0.38814 0.0
C702 C 0.51332 0.62315 0.36702 0.0
C703 C 0.48362 0.61585 0.35942 0.0
H704 H 0.28537 0.13648 0.18579 0.0
H705 H 0.19134 0.11369 0.17478 0.0
H706 H 0.27999 0.13424 0.24144 0.0
H707 H 0.18575 0.1121 0.2305 0.0
H708 H 0.19322 0.08483 0.32989 0.0
H709 H 0.20065 0.08589 0.2745 0.0
H710 H 0.25679 0.15703 0.28423 0.0
H711 H 0.24992 0.15557 0.33988 0.0
C712 C 0.26347 0.13113 0.19522 0.0
C713 C 0.23878 0.12523 0.17572 0.0
C714 C 0.26035 0.12999 0.22721 0.0
C715 C 0.23245 0.12296 0.2406 0.0
C716 C 0.20772 0.11717 0.22107 0.0
C717 C 0.21086 0.11825 0.18905 0.0
C718 C 0.20734 0.10061 0.32029 0.0
C719 C 0.22093 0.12015 0.3394 0.0
C720 C 0.2114 0.10135 0.28842 0.0
C721 C 0.2291 0.12169 0.27473 0.0
C722 C 0.24323 0.14091 0.29393 0.0
C723 C 0.23923 0.14013 0.32588 0.0
H724 H 0.24803 0.83146 0.8367 0.0
H725 H 0.2835 0.91254 0.82764 0.0
H726 H 0.23439 0.8315 0.78218 0.0
H727 H 0.26993 0.9125 0.77321 0.0
H728 H 0.21069 0.9121 0.68544 0.0
H729 H 0.22397 0.91224 0.73993 0.0
H730 H 0.26067 0.83153 0.73126 0.0
H731 H 0.24732 0.83131 0.67665 0.0
C732 C 0.25278 0.84934 0.82315 0.0
C733 C 0.26686 0.87201 0.83659 0.0
C734 C 0.24518 0.84927 0.79185 0.0
C735 C 0.25117 0.87197 0.77332 0.0
C736 C 0.26479 0.89478 0.78688 0.0
C737 C 0.27267 0.89475 0.81809 0.0
C738 C 0.22169 0.8944 0.69508 0.0
C739 C 0.22795 0.8717 0.67662 0.0
C740 C 0.2294 0.89454 0.72632 0.0
C741 C 0.24331 0.87188 0.73997 0.0
C742 C 0.24967 0.84919 0.72151 0.0
C743 C 0.24222 0.84915 0.69017 0.0
H744 H 0.71709 0.8667 0.83732 0.0
H745 H 0.66388 0.90606 0.76659 0.0
H746 H 0.75916 0.86168 0.80119 0.0
H747 H 0.70579 0.90071 0.73053 0.0
H748 H 0.83526 0.90177 0.73932 0.0
H749 H 0.79304 0.89799 0.77522 0.0
H750 H 0.73739 0.86313 0.70363 0.0
H751 H 0.77979 0.86656 0.66763 0.0
C752 C 0.71421 0.87391 0.81398 0.0
C753 C 0.68727 0.88695 0.80484 0.0
C754 C 0.7383 0.87111 0.79338 0.0
C755 C 0.73566 0.88083 0.76314 0.0
C756 C 0.7083 0.89284 0.75365 0.0
C757 C 0.68442 0.89606 0.77435 0.0
C758 C 0.81415 0.89299 0.73131 0.0
C759 C 0.81078 0.8846 0.70061 0.0
C760 C 0.79007 0.89068 0.75192 0.0
C761 C 0.762 0.88032 0.74213 0.0
C762 C 0.7588 0.87129 0.71167 0.0
C763 C 0.78308 0.87316 0.69115 0.0
H764 H 0.83195 0.09589 0.26521 0.0
H765 H 0.78071 0.1335 0.33824 0.0
H766 H 0.78865 0.10121 0.23052 0.0
H767 H 0.73723 0.13842 0.3035 0.0
H768 H 0.66004 0.09703 0.24277 0.0
H769 H 0.70325 0.10148 0.27772 0.0
H770 H 0.75528 0.13908 0.20555 0.0
H771 H 0.7119 0.13502 0.17057 0.0
C772 C 0.81155 0.10552 0.27376 0.0
C773 C 0.80966 0.11414 0.30449 0.0
C774 C 0.78687 0.10871 0.25385 0.0
C775 C 0.75966 0.12018 0.26441 0.0
C776 C 0.75796 0.12943 0.29488 0.0
C777 C 0.78285 0.12668 0.31468 0.0
C778 C 0.68054 0.1066 0.23448 0.0
C779 C 0.68264 0.11553 0.20389 0.0
C780 C 0.70518 0.10928 0.25453 0.0
C781 C 0.73255 0.12054 0.24424 0.0
C782 C 0.73442 0.13021 0.21395 0.0
C783 C 0.70958 0.12798 0.19402 0.0
H784 H 0.74329 0.66153 0.3353 0.0
H785 H 0.70971 0.5797 0.32716 0.0
H786 H 0.75542 0.6616 0.28045 0.0
H787 H 0.72178 0.57985 0.27251 0.0
H788 H 0.77963 0.58068 0.18441 0.0
H789 H 0.76741 0.58087 0.23904 0.0
H790 H 0.72791 0.66049 0.22966 0.0
H791 H 0.74019 0.66038 0.17485 0.0
C792 C 0.73861 0.64353 0.32187 0.0
C793 C 0.72556 0.6206 0.33565 0.0
C794 C 0.74535 0.64365 0.29041 0.0
C795 C 0.73951 0.62075 0.27212 0.0
C796 C 0.72679 0.59773 0.286 0.0
C797 C 0.71977 0.5977 0.31733 0.0
C798 C 0.76823 0.59821 0.19392 0.0
C799 C 0.76086 0.62051 0.17521 0.0
C800 C 0.76113 0.59826 0.22523 0.0
C801 C 0.74674 0.62071 0.23871 0.0
C802 C 0.73929 0.643 0.22002 0.0
C803 C 0.74611 0.64284 0.18858 0.0
H804 H 0.76898 0.34878 0.66672 0.0
H805 H 0.68338 0.38361 0.69458 0.0
H806 H 0.78591 0.34859 0.72034 0.0
H807 H 0.70033 0.3834 0.748 0.0
H808 H 0.72953 0.34958 0.84283 0.0
H809 H 0.71265 0.34964 0.7892 0.0
H810 H 0.79923 0.3821 0.76147 0.0
H811 H 0.81614 0.38206 0.81491 0.0
C812 C 0.75381 0.35644 0.68423 0.0
C813 C 0.72485 0.36624 0.67632 0.0
C814 C 0.76355 0.35642 0.71493 0.0
C815 C 0.74442 0.36592 0.73842 0.0
C816 C 0.71547 0.37567 0.73049 0.0
C817 C 0.70586 0.37595 0.69981 0.0
C818 C 0.74494 0.35677 0.8253 0.0
C819 C 0.77417 0.36584 0.8332 0.0
C820 C 0.73523 0.3569 0.7946 0.0
C821 C 0.75464 0.36583 0.77108 0.0
C822 C 0.78387 0.37483 0.779 0.0
C823 C 0.79346 0.37497 0.80969 0.0
H824 H 0.28116 0.36392 0.67441 0.0
H825 H 0.33576 0.40309 0.74411 0.0
H826 H 0.23952 0.35969 0.71109 0.0
H827 H 0.29421 0.39854 0.78074 0.0
H828 H 0.22024 0.36532 0.84468 0.0
H829 H 0.26245 0.36173 0.80845 0.0
H830 H 0.20627 0.39628 0.737 0.0
H831 H 0.16425 0.40019 0.77312 0.0
C832 C 0.28444 0.37127 0.69765 0.0
C833 C 0.31167 0.38401 0.70632 0.0
C834 C 0.26057 0.36893 0.71856 0.0
C835 C 0.26369 0.37884 0.74867 0.0
C836 C 0.29133 0.39055 0.75772 0.0
C837 C 0.31501 0.39329 0.73669 0.0
C838 C 0.21681 0.37186 0.82115 0.0
C839 C 0.18899 0.38318 0.81178 0.0
C840 C 0.24098 0.3699 0.8005 0.0
C841 C 0.23757 0.37875 0.76999 0.0
C842 C 0.20942 0.38911 0.76034 0.0
C843 C 0.18545 0.39149 0.78107 0.0
H844 H 0.27774 0.63001 0.33909 0.0
H845 H 0.3284 0.59011 0.26722 0.0
H846 H 0.23437 0.63472 0.30423 0.0
H847 H 0.28515 0.59524 0.23234 0.0
H848 H 0.20963 0.63154 0.17162 0.0
H849 H 0.25317 0.63376 0.20658 0.0
H850 H 0.19922 0.59844 0.27877 0.0
H851 H 0.15578 0.59579 0.24381 0.0
C852 C 0.27978 0.62259 0.31576 0.0
C853 C 0.30644 0.60957 0.30593 0.0
C854 C 0.25492 0.6252 0.2959 0.0
C855 C 0.25647 0.61533 0.26567 0.0
C856 C 0.28348 0.6032 0.25549 0.0
C857 C 0.30814 0.60015 0.27549 0.0
C858 C 0.20693 0.62456 0.19506 0.0
C859 C 0.17931 0.61337 0.20494 0.0
C860 C 0.23189 0.62572 0.21497 0.0
C861 C 0.22951 0.61621 0.24528 0.0
C862 C 0.20157 0.60606 0.25555 0.0
C863 C 0.17678 0.60444 0.2355 0.0
loop_
_geom_bond_atom_site_label_1
_geom_bond_atom_site_label_2
_geom_bond_distance
_geom_bond_site_symmetry_2
_ccdc_geom_bond_type
Zn0 O3 2.031 . S
Zn0 O5 2.049 . S
Zn0 O10 2.067 . S
Zn1 O2 1.962 . S
Zn1 O4 1.986 . S
Zn1 O6 1.996 . S
Zn1 O9 1.943 . S
O2 Zn1 1.962 . S
O2 C7 1.254 . S
O3 Zn0 2.031 . S
O3 C7 1.269 . S
O4 Zn1 1.986 . S
O4 C11 1.262 . S
O5 Zn0 2.049 . S
O5 C13 1.260 . S
O6 Zn1 1.996 . S
O6 C13 1.257 . S
C7 O2 1.254 . S
C7 O3 1.269 . S
C8 O9 1.249 . S
C8 O10 1.270 . S
O9 Zn1 1.943 . S
O9 C8 1.249 . S
O10 Zn0 2.067 . S
O10 C8 1.270 . S
C11 O4 1.262 . S
C11 O12 1.232 . S
O12 C11 1.232 . S
C13 O5 1.260 . S
C13 O6 1.257 . S
Zn14 O17 2.031 . S
Zn14 O19 2.049 . S
Zn14 O24 2.067 . S
Zn15 O16 1.962 . S
Zn15 O18 1.986 . S
Zn15 O20 1.996 . S
Zn15 O23 1.943 . S
O16 Zn15 1.962 . S
O16 C21 1.254 . S
O17 Zn14 2.031 . S
O17 C21 1.269 . S
O18 Zn15 1.986 . S
O18 C25 1.262 . S
O19 Zn14 2.049 . S
O19 C27 1.260 . S
O20 Zn15 1.996 . S
O20 C27 1.257 . S
C21 O16 1.254 . S
C21 O17 1.269 . S
C22 O23 1.249 . S
C22 O24 1.270 . S
O23 Zn15 1.943 . S
O23 C22 1.249 . S
O24 Zn14 2.067 . S
O24 C22 1.270 . S
C25 O18 1.262 . S
C25 O26 1.232 . S
O26 C25 1.232 . S
C27 O19 1.260 . S
C27 O20 1.257 . S
Zn28 O31 2.031 . S
Zn28 O33 2.049 . S
Zn28 O38 2.067 . S
Zn29 O30 1.962 . S
Zn29 O32 1.986 . S
Zn29 O34 1.996 . S
Zn29 O37 1.943 . S
O30 Zn29 1.962 . S
O30 C35 1.254 . S
O31 Zn28 2.031 . S
O31 C35 1.269 . S
O32 Zn29 1.986 . S
O32 C39 1.262 . S
O33 Zn28 2.049 . S
O33 C41 1.260 . S
O34 Zn29 1.996 . S
O34 C41 1.257 . S
C35 O30 1.254 . S
C35 O31 1.269 . S
C36 O37 1.249 . S
C36 O38 1.270 . S
O37 Zn29 1.943 . S
O37 C36 1.249 . S
O38 Zn28 2.067 . S
O38 C36 1.270 . S
C39 O32 1.262 . S
C39 O40 1.232 . S
O40 C39 1.232 . S
C41 O33 1.260 . S
C41 O34 1.257 . S
Zn42 O45 2.031 . S
Zn42 O47 2.049 . S
Zn42 O52 2.067 . S
Zn43 O44 1.962 . S
Zn43 O46 1.986 . S
Zn43 O48 1.996 . S
Zn43 O51 1.943 . S
O44 Zn43 1.962 . S
O44 C49 1.254 . S
O45 Zn42 2.031 . S
O45 C49 1.269 . S
O46 Zn43 1.986 . S
O46 C53 1.262 . S
O47 Zn42 2.049 . S
O47 C55 1.260 . S
O48 Zn43 1.996 . S
O48 C55 1.257 . S
C49 O44 1.254 . S
C49 O45 1.269 . S
C50 O51 1.249 . S
C50 O52 1.270 . S
O51 Zn43 1.943 . S
O51 C50 1.249 . S
O52 Zn42 2.067 . S
O52 C50 1.270 . S
C53 O46 1.262 . S
C53 O54 1.232 . S
O54 C53 1.232 . S
C55 O47 1.260 . S
C55 O48 1.257 . S
Zn56 O59 2.031 . S
Zn56 O61 2.049 . S
Zn56 O66 2.067 . S
Zn57 O58 1.962 . S
Zn57 O60 1.986 . S
Zn57 O62 1.996 . S
Zn57 O65 1.943 . S
O58 Zn57 1.962 . S
O58 C63 1.254 . S
O59 Zn56 2.031 . S
O59 C63 1.269 . S
O60 Zn57 1.986 . S
O60 C67 1.262 . S
O61 Zn56 2.049 . S
O61 C69 1.260 . S
O62 Zn57 1.996 . S
O62 C69 1.257 . S
C63 O58 1.254 . S
C63 O59 1.269 . S
C64 O65 1.249 . S
C64 O66 1.270 . S
O65 Zn57 1.943 . S
O65 C64 1.249 . S
O66 Zn56 2.067 . S
O66 C64 1.270 . S
C67 O60 1.262 . S
C67 O68 1.232 . S
O68 C67 1.232 . S
C69 O61 1.260 . S
C69 O62 1.257 . S
Zn70 O73 2.031 . S
Zn70 O75 2.049 . S
Zn70 O80 2.067 . S
Zn71 O72 1.962 . S
Zn71 O74 1.986 . S
Zn71 O76 1.996 . S
Zn71 O79 1.943 . S
O72 Zn71 1.962 . S
O72 C77 1.254 . S
O73 Zn70 2.031 . S
O73 C77 1.269 . S
O74 Zn71 1.986 . S
O74 C81 1.262 . S
O75 Zn70 2.049 . S
O75 C83 1.260 . S
O76 Zn71 1.996 . S
O76 C83 1.257 . S
C77 O72 1.254 . S
C77 O73 1.269 . S
C78 O79 1.249 . S
C78 O80 1.270 . S
O79 Zn71 1.943 . S
O79 C78 1.249 . S
O80 Zn70 2.067 . S
O80 C78 1.270 . S
C81 O74 1.262 . S
C81 O82 1.232 . S
O82 C81 1.232 . S
C83 O75 1.260 . S
C83 O76 1.257 . S
Zn84 O87 2.031 . S
Zn84 O89 2.049 . S
Zn84 O94 2.067 . S
Zn85 O86 1.962 . S
Zn85 O88 1.986 . S
Zn85 O90 1.996 . S
Zn85 O93 1.943 . S
O86 Zn85 1.962 . S
O86 C91 1.254 . S
O87 Zn84 2.031 . S
O87 C91 1.269 . S
O88 Zn85 1.986 . S
O88 C95 1.262 . S
O89 Zn84 2.049 . S
O89 C97 1.260 . S
O90 Zn85 1.996 . S
O90 C97 1.257 . S
C91 O86 1.254 . S
C91 O87 1.269 . S
C92 O93 1.249 . S
C92 O94 1.270 . S
O93 Zn85 1.943 . S
O93 C92 1.249 . S
O94 Zn84 2.067 . S
O94 C92 1.270 . S
C95 O88 1.262 . S
C95 O96 1.232 . S
O96 C95 1.232 . S
C97 O89 1.260 . S
C97 O90 1.257 . S
Zn98 O101 2.031 . S
Zn98 O103 2.049 . S
Zn98 O108 2.067 . S
Zn99 O100 1.962 . S
Zn99 O102 1.986 . S
Zn99 O104 1.996 . S
Zn99 O107 1.943 . S
O100 Zn99 1.962 . S
O100 C105 1.254 . S
O101 Zn98 2.031 . S
O101 C105 1.269 . S
O102 Zn99 1.986 . S
O102 C109 1.262 . S
O103 Zn98 2.049 . S
O103 C111 1.260 . S
O104 Zn99 1.996 . S
O104 C111 1.257 . S
C105 O100 1.254 . S
C105 O101 1.269 . S
C106 O107 1.249 . S
C106 O108 1.270 . S
O107 Zn99 1.943 . S
O107 C106 1.249 . S
O108 Zn98 2.067 . S
O108 C106 1.270 . S
C109 O102 1.262 . S
C109 O110 1.232 . S
O110 C109 1.232 . S
C111 O103 1.260 . S
C111 O104 1.257 . S
Zn112 O115 2.031 . S
Zn112 O117 2.049 . S
Zn112 O122 2.067 . S
Zn113 O114 1.962 . S
Zn113 O116 1.986 . S
Zn113 O118 1.996 . S
Zn113 O121 1.943 . S
O114 Zn113 1.962 . S
O114 C119 1.254 . S
O115 Zn112 2.031 . S
O115 C119 1.269 . S
O116 Zn113 1.986 . S
O116 C123 1.262 . S
O117 Zn112 2.049 . S
O117 C125 1.260 . S
O118 Zn113 1.996 . S
O118 C125 1.257 . S
C119 O114 1.254 . S
C119 O115 1.269 . S
C120 O121 1.249 . S
C120 O122 1.270 . S
O121 Zn113 1.943 . S
O121 C120 1.249 . S
O122 Zn112 2.067 . S
O122 C120 1.270 . S
C123 O116 1.262 . S
C123 O124 1.232 . S
O124 C123 1.232 . S
C125 O117 1.260 . S
C125 O118 1.257 . S
Zn126 O129 2.031 . S
Zn126 O131 2.049 . S
Zn126 O136 2.067 . S
Zn127 O128 1.962 . S
Zn127 O130 1.986 . S
Zn127 O132 1.996 . S
Zn127 O135 1.943 . S
O128 Zn127 1.962 . S
O128 C133 1.254 . S
O129 Zn126 2.031 . S
O129 C133 1.269 . S
O130 Zn127 1.986 . S
O130 C137 1.262 . S
O131 Zn126 2.049 . S
O131 C139 1.260 . S
O132 Zn127 1.996 . S
O132 C139 1.257 . S
C133 O128 1.254 . S
C133 O129 1.269 . S
C134 O135 1.249 . S
C134 O136 1.270 . S
O135 Zn127 1.943 . S
O135 C134 1.249 . S
O136 Zn126 2.067 . S
O136 C134 1.270 . S
C137 O130 1.262 . S
C137 O138 1.232 . S
O138 C137 1.232 . S
C139 O131 1.260 . S
C139 O132 1.257 . S
Zn140 O143 2.031 . S
Zn140 O145 2.049 . S
Zn140 O150 2.067 . S
Zn141 O142 1.962 . S
Zn141 O144 1.986 . S
Zn141 O146 1.996 . S
Zn141 O149 1.943 . S
O142 Zn141 1.962 . S
O142 C147 1.254 . S
O143 Zn140 2.031 . S
O143 C147 1.269 . S
O144 Zn141 1.986 . S
O144 C151 1.262 . S
O145 Zn140 2.049 . S
O145 C153 1.260 . S
O146 Zn141 1.996 . S
O146 C153 1.257 . S
C147 O142 1.254 . S
C147 O143 1.269 . S
C148 O149 1.249 . S
C148 O150 1.270 . S
O149 Zn141 1.943 . S
O149 C148 1.249 . S
O150 Zn140 2.067 . S
O150 C148 1.270 . S
C151 O144 1.262 . S
C151 O152 1.232 . S
O152 C151 1.232 . S
C153 O145 1.260 . S
C153 O146 1.257 . S
Zn154 O157 2.031 . S
Zn154 O159 2.049 . S
Zn154 O164 2.067 . S
Zn155 O156 1.962 . S
Zn155 O158 1.986 . S
Zn155 O160 1.996 . S
Zn155 O163 1.943 . S
O156 Zn155 1.962 . S
O156 C161 1.254 . S
O157 Zn154 2.031 . S
O157 C161 1.269 . S
O158 Zn155 1.986 . S
O158 C165 1.262 . S
O159 Zn154 2.049 . S
O159 C167 1.260 . S
O160 Zn155 1.996 . S
O160 C167 1.257 . S
C161 O156 1.254 . S
C161 O157 1.269 . S
C162 O163 1.249 . S
C162 O164 1.270 . S
O163 Zn155 1.943 . S
O163 C162 1.249 . S
O164 Zn154 2.067 . S
O164 C162 1.270 . S
C165 O158 1.262 . S
C165 O166 1.232 . S
O166 C165 1.232 . S
C167 O159 1.260 . S
C167 O160 1.257 . S
Zn168 O171 2.031 . S
Zn168 O173 2.049 . S
Zn168 O178 2.067 . S
Zn169 O170 1.962 . S
Zn169 O172 1.986 . S
Zn169 O174 1.996 . S
Zn169 O177 1.943 . S
O170 Zn169 1.962 . S
O170 C175 1.254 . S
O171 Zn168 2.031 . S
O171 C175 1.269 . S
O172 Zn169 1.986 . S
O172 C179 1.262 . S
O173 Zn168 2.049 . S
O173 C181 1.260 . S
O174 Zn169 1.996 . S
O174 C181 1.257 . S
C175 O170 1.254 . S
C175 O171 1.269 . S
C176 O177 1.249 . S
C176 O178 1.270 . S
O177 Zn169 1.943 . S
O177 C176 1.249 . S
O178 Zn168 2.067 . S
O178 C176 1.270 . S
C179 O172 1.262 . S
C179 O180 1.232 . S
O180 C179 1.232 . S
C181 O173 1.260 . S
C181 O174 1.257 . S
Zn182 O185 2.031 . S
Zn182 O187 2.049 . S
Zn182 O192 2.067 . S
Zn183 O184 1.962 . S
Zn183 O186 1.986 . S
Zn183 O188 1.996 . S
Zn183 O191 1.943 . S
O184 Zn183 1.962 . S
O184 C189 1.254 . S
O185 Zn182 2.031 . S
O185 C189 1.269 . S
O186 Zn183 1.986 . S
O186 C193 1.262 . S
O187 Zn182 2.049 . S
O187 C195 1.260 . S
O188 Zn183 1.996 . S
O188 C195 1.257 . S
C189 O184 1.254 . S
C189 O185 1.269 . S
C190 O191 1.249 . S
C190 O192 1.270 . S
O191 Zn183 1.943 . S
O191 C190 1.249 . S
O192 Zn182 2.067 . S
O192 C190 1.270 . S
C193 O186 1.262 . S
C193 O194 1.232 . S
O194 C193 1.232 . S
C195 O187 1.260 . S
C195 O188 1.257 . S
Zn196 O199 2.031 . S
Zn196 O201 2.049 . S
Zn196 O206 2.067 . S
Zn197 O198 1.962 . S
Zn197 O200 1.986 . S
Zn197 O202 1.996 . S
Zn197 O205 1.943 . S
O198 Zn197 1.962 . S
O198 C203 1.254 . S
O199 Zn196 2.031 . S
O199 C203 1.269 . S
O200 Zn197 1.986 . S
O200 C207 1.262 . S
O201 Zn196 2.049 . S
O201 C209 1.260 . S
O202 Zn197 1.996 . S
O202 C209 1.257 . S
C203 O198 1.254 . S
C203 O199 1.269 . S
C204 O205 1.249 . S
C204 O206 1.270 . S
O205 Zn197 1.943 . S
O205 C204 1.249 . S
O206 Zn196 2.067 . S
O206 C204 1.270 . S
C207 O200 1.262 . S
C207 O208 1.232 . S
O208 C207 1.232 . S
C209 O201 1.260 . S
C209 O202 1.257 . S
Zn210 O213 2.031 . S
Zn210 O215 2.049 . S
Zn210 O220 2.067 . S
Zn211 O212 1.962 . S
Zn211 O214 1.986 . S
Zn211 O216 1.996 . S
Zn211 O219 1.943 . S
O212 Zn211 1.962 . S
O212 C217 1.254 . S
O213 Zn210 2.031 . S
O213 C217 1.269 . S
O214 Zn211 1.986 . S
O214 C221 1.262 . S
O215 Zn210 2.049 . S
O215 C223 1.260 . S
O216 Zn211 1.996 . S
O216 C223 1.257 . S
C217 O212 1.254 . S
C217 O213 1.269 . S
C218 O219 1.249 . S
C218 O220 1.270 . S
O219 Zn211 1.943 . S
O219 C218 1.249 . S
O220 Zn210 2.067 . S
O220 C218 1.270 . S
C221 O214 1.262 . S
C221 O222 1.232 . S
O222 C221 1.232 . S
C223 O215 1.260 . S
C223 O216 1.257 . S
H224 C232 0.950 . S
H225 C237 0.950 1_556 S
H226 C234 0.950 . S
H227 C236 0.950 . S
H228 C238 0.950 . S
H229 C240 0.950 . S
H230 C242 0.950 . S
H231 C243 0.958 . S
C232 H224 0.950 . S
C232 C233 1.386 . S
C232 C234 1.391 . S
C233 C232 1.386 . S
C233 C237 1.393 . S
C234 H226 0.950 . S
C234 C232 1.391 . S
C234 C235 1.400 . S
C235 C234 1.400 . S
C235 C236 1.398 1_554 S
C235 C241 1.491 1_554 S
C236 H227 0.950 . S
C236 C235 1.398 1_556 S
C236 C237 1.391 1_556 S
C237 H225 0.950 1_554 S
C237 C233 1.393 . S
C237 C236 1.391 1_554 S
C238 H228 0.950 . S
C238 C239 1.386 . S
C238 C240 1.391 . S
C239 C238 1.386 . S
C239 C243 1.393 . S
C240 H229 0.950 . S
C240 C238 1.391 . S
C240 C241 1.400 . S
C241 C235 1.491 1_556 S
C241 C240 1.400 . S
C241 C242 1.398 1_556 S
C242 H230 0.950 . S
C242 C241 1.398 1_554 S
C242 C243 1.391 1_554 S
C243 H231 0.958 . S
C243 C239 1.393 . S
C243 C242 1.391 1_556 S
H244 C252 0.950 . S
H245 C257 0.950 . S
H246 C254 0.950 . S
H247 C256 0.950 . S
H248 C258 0.950 . S
H249 C260 0.950 . S
H250 C262 0.950 . S
H251 C263 0.950 . S
C252 H244 0.950 . S
C252 C253 1.386 . S
C252 C254 1.391 . S
C253 C252 1.386 . S
C253 C257 1.393 . S
C254 H246 0.950 . S
C254 C252 1.391 . S
C254 C255 1.400 . S
C255 C254 1.400 . S
C255 C256 1.398 . S
C255 C261 1.491 . S
C256 H247 0.950 . S
C256 C255 1.398 . S
C256 C257 1.391 . S
C257 H245 0.950 . S
C257 C253 1.393 . S
C257 C256 1.391 . S
C258 H248 0.950 . S
C258 C259 1.386 . S
C258 C260 1.391 . S
C259 C258 1.386 . S
C259 C263 1.393 . S
C260 H249 0.950 . S
C260 C258 1.391 . S
C260 C261 1.400 . S
C261 C255 1.491 . S
C261 C260 1.400 . S
C261 C262 1.398 . S
C262 H250 0.950 . S
C262 C261 1.398 . S
C262 C263 1.391 . S
C263 H251 0.950 . S
C263 C259 1.393 . S
C263 C262 1.391 . S
H264 C272 0.950 . S
H265 C277 0.950 . S
H266 C274 0.950 . S
H267 C276 0.950 1_554 S
H268 C278 0.950 . S
H269 C280 0.950 . S
H270 C282 0.950 1_556 S
H271 C283 0.950 . S
C272 H264 0.950 . S
C272 C273 1.386 . S
C272 C274 1.391 . S
C273 C272 1.386 . S
C273 C277 1.393 . S
C274 H266 0.950 . S
C274 C272 1.391 . S
C274 C275 1.400 . S
C275 C274 1.400 . S
C275 C276 1.398 . S
C275 C281 1.491 1_556 S
C276 H267 0.950 1_556 S
C276 C275 1.398 . S
C276 C277 1.391 . S
C277 H265 0.950 . S
C277 C273 1.393 . S
C277 C276 1.391 . S
C278 H268 0.950 . S
C278 C279 1.386 . S
C278 C280 1.391 . S
C279 C278 1.386 . S
C279 C283 1.393 . S
C280 H269 0.950 . S
C280 C278 1.391 . S
C280 C281 1.400 . S
C281 C275 1.491 1_554 S
C281 C280 1.400 . S
C281 C282 1.398 . S
C282 H270 0.950 1_554 S
C282 C281 1.398 . S
C282 C283 1.391 . S
C283 H271 0.950 . S
C283 C279 1.393 . S
C283 C282 1.391 . S
H284 C292 0.950 . S
H285 C297 0.950 . S
H286 C294 0.950 . S
H287 C296 0.950 . S
H288 C298 0.950 . S
H289 C300 0.950 . S
H290 C302 0.950 . S
H291 C303 0.950 . S
C292 H284 0.950 . S
C292 C293 1.386 . S
C292 C294 1.391 . S
C293 C292 1.386 . S
C293 C297 1.393 . S
C294 H286 0.950 . S
C294 C292 1.391 . S
C294 C295 1.400 . S
C295 C294 1.400 . S
C295 C296 1.398 . S
C295 C301 1.491 . S
C296 H287 0.950 . S
C296 C295 1.398 . S
C296 C297 1.391 . S
C297 H285 0.950 . S
C297 C293 1.393 . S
C297 C296 1.391 . S
C298 H288 0.950 . S
C298 C299 1.386 . S
C298 C300 1.391 . S
C299 C298 1.386 . S
C299 C303 1.393 . S
C300 H289 0.950 . S
C300 C298 1.391 . S
C300 C301 1.400 . S
C301 C295 1.491 . S
C301 C300 1.400 . S
C301 C302 1.398 . S
C302 H290 0.950 . S
C302 C301 1.398 . S
C302 C303 1.391 . S
C303 H291 0.950 . S
C303 C299 1.393 . S
C303 C302 1.391 . S
H304 C312 0.950 . S
H305 C317 0.950 1_556 S
H306 C314 0.950 . S
H307 C316 0.950 . S
H308 C318 0.950 . S
H309 C320 0.950 . S
H310 C322 0.950 . S
H311 C323 0.950 1_554 S
C312 H304 0.950 . S
C312 C313 1.386 . S
C312 C314 1.391 . S
C313 C312 1.386 . S
C313 C317 1.393 . S
C314 H306 0.950 . S
C314 C312 1.391 . S
C314 C315 1.400 . S
C315 C314 1.400 . S
C315 C316 1.398 1_554 S
C315 C321 1.491 1_554 S
C316 H307 0.950 . S
C316 C315 1.398 1_556 S
C316 C317 1.391 1_556 S
C317 H305 0.950 1_554 S
C317 C313 1.393 . S
C317 C316 1.391 1_554 S
C318 H308 0.950 . S
C318 C319 1.386 . S
C318 C320 1.391 . S
C319 C318 1.386 . S
C319 C323 1.393 . S
C320 H309 0.950 . S
C320 C318 1.391 . S
C320 C321 1.400 . S
C321 C315 1.491 1_556 S
C321 C320 1.400 . S
C321 C322 1.398 1_556 S
C322 H310 0.950 . S
C322 C321 1.398 1_554 S
C322 C323 1.391 1_554 S
C323 H311 0.950 1_556 S
C323 C319 1.393 . S
C323 C322 1.391 1_556 S
H324 C332 0.950 . S
H325 C337 0.950 . S
H326 C334 0.950 . S
H327 C336 0.950 . S
H328 C338 0.950 . S
H329 C340 0.950 . S
H330 C342 0.950 . S
H331 C343 0.950 . S
C332 H324 0.950 . S
C332 C333 1.386 . S
C332 C334 1.391 . S
C333 C332 1.386 . S
C333 C337 1.393 . S
C334 H326 0.950 . S
C334 C332 1.391 . S
C334 C335 1.400 . S
C335 C334 1.400 . S
C335 C336 1.398 . S
C335 C341 1.491 . S
C336 H327 0.950 . S
C336 C335 1.398 . S
C336 C337 1.391 . S
C337 H325 0.950 . S
C337 C333 1.393 . S
C337 C336 1.391 . S
C338 H328 0.950 . S
C338 C339 1.386 . S
C338 C340 1.391 . S
C339 C338 1.386 . S
C339 C343 1.393 . S
C340 H329 0.950 . S
C340 C338 1.391 . S
C340 C341 1.400 . S
C341 C335 1.491 . S
C341 C340 1.400 . S
C341 C342 1.398 . S
C342 H330 0.950 . S
C342 C341 1.398 . S
C342 C343 1.391 . S
C343 H331 0.950 . S
C343 C339 1.393 . S
C343 C342 1.391 . S
H344 C352 0.950 . S
H345 C357 0.950 1_554 S
H346 C354 0.950 . S
H347 C356 0.950 . S
H348 C358 0.950 . S
H349 C360 0.950 . S
H350 C362 0.950 . S
H351 C363 0.959 . S
C352 H344 0.950 . S
C352 C353 1.386 . S
C352 C354 1.391 . S
C353 C352 1.386 . S
C353 C357 1.393 . S
C354 H346 0.950 . S
C354 C352 1.391 . S
C354 C355 1.400 . S
C355 C354 1.400 . S
C355 C356 1.398 1_556 S
C355 C361 1.491 1_556 S
C356 H347 0.950 . S
C356 C355 1.398 1_554 S
C356 C357 1.391 1_554 S
C357 H345 0.950 1_556 S
C357 C353 1.393 . S
C357 C356 1.391 1_556 S
C358 H348 0.950 . S
C358 C359 1.386 . S
C358 C360 1.391 . S
C359 C358 1.386 . S
C359 C363 1.393 . S
C360 H349 0.950 . S
C360 C358 1.391 . S
C360 C361 1.400 . S
C361 C355 1.491 1_554 S
C361 C360 1.400 . S
C361 C362 1.398 1_554 S
C362 H350 0.950 . S
C362 C361 1.398 1_556 S
C362 C363 1.391 1_556 S
C363 H351 0.959 . S
C363 C359 1.393 . S
C363 C362 1.391 1_554 S
H364 C372 0.950 . S
H365 C377 0.950 . S
H366 C374 0.950 . S
H367 C376 0.950 . S
H368 C378 0.950 . S
H369 C380 0.950 . S
H370 C382 0.950 . S
H371 C383 0.950 . S
C372 H364 0.950 . S
C372 C373 1.386 . S
C372 C374 1.391 . S
C373 C372 1.386 . S
C373 C377 1.393 . S
C374 H366 0.950 . S
C374 C372 1.391 . S
C374 C375 1.400 . S
C375 C374 1.400 . S
C375 C376 1.398 . S
C375 C381 1.491 . S
C376 H367 0.950 . S
C376 C375 1.398 . S
C376 C377 1.391 . S
C377 H365 0.950 . S
C377 C373 1.393 . S
C377 C376 1.391 . S
C378 H368 0.950 . S
C378 C379 1.386 . S
C378 C380 1.391 . S
C379 C378 1.386 . S
C379 C383 1.393 . S
C380 H369 0.950 . S
C380 C378 1.391 . S
C380 C381 1.400 . S
C381 C375 1.491 . S
C381 C380 1.400 . S
C381 C382 1.398 . S
C382 H370 0.950 . S
C382 C381 1.398 . S
C382 C383 1.391 . S
C383 H371 0.950 . S
C383 C379 1.393 . S
C383 C382 1.391 . S
H384 C392 0.950 . S
H385 C397 0.950 . S
H386 C394 0.950 . S
H387 C396 0.950 . S
H388 C398 0.950 . S
H389 C400 0.950 . S
H390 C402 0.950 . S
H391 C403 0.950 . S
C392 H384 0.950 . S
C392 C393 1.386 . S
C392 C394 1.391 . S
C393 C392 1.386 . S
C393 C397 1.393 . S
C394 H386 0.950 . S
C394 C392 1.391 . S
C394 C395 1.400 . S
C395 C394 1.400 . S
C395 C396 1.398 . S
C395 C401 1.491 1_544 S
C396 H387 0.950 . S
C396 C395 1.398 . S
C396 C397 1.391 . S
C397 H385 0.950 . S
C397 C393 1.393 . S
C397 C396 1.391 . S
C398 H388 0.950 . S
C398 C399 1.386 . S
C398 C400 1.391 . S
C399 C398 1.386 . S
C399 C403 1.393 . S
C400 H389 0.950 . S
C400 C398 1.391 . S
C400 C401 1.400 . S
C401 C395 1.491 1_566 S
C401 C400 1.400 . S
C401 C402 1.398 . S
C402 H390 0.950 . S
C402 C401 1.398 . S
C402 C403 1.391 . S
C403 H391 0.950 . S
C403 C399 1.393 . S
C403 C402 1.391 . S
H404 C412 0.950 . S
H405 C417 0.950 . S
H406 C414 0.950 . S
H407 C416 0.950 . S
H408 C418 0.950 . S
H409 C420 0.950 . S
H410 C422 0.950 . S
H411 C423 0.950 . S
C412 H404 0.950 . S
C412 C413 1.386 . S
C412 C414 1.391 . S
C413 C412 1.386 . S
C413 C417 1.393 . S
C414 H406 0.950 . S
C414 C412 1.391 . S
C414 C415 1.400 . S
C415 C414 1.400 . S
C415 C416 1.398 . S
C415 C421 1.491 1_565 S
C416 H407 0.950 . S
C416 C415 1.398 . S
C416 C417 1.391 . S
C417 H405 0.950 . S
C417 C413 1.393 . S
C417 C416 1.391 . S
C418 H408 0.950 . S
C418 C419 1.386 . S
C418 C420 1.391 . S
C419 C418 1.386 . S
C419 C423 1.393 . S
C420 H409 0.950 . S
C420 C418 1.391 . S
C420 C421 1.400 . S
C421 C415 1.491 1_545 S
C421 C420 1.400 . S
C421 C422 1.398 . S
C422 H410 0.950 . S
C422 C421 1.398 . S
C422 C423 1.391 . S
C423 H411 0.950 . S
C423 C419 1.393 . S
C423 C422 1.391 . S
H424 C432 0.950 . S
H425 C437 0.950 . S
H426 C434 0.974 . S
H427 C436 0.950 1_545 S
H428 C438 0.950 . S
H429 C440 0.974 . S
H430 C442 0.950 1_565 S
H431 C443 0.950 . S
C432 H424 0.950 . S
C432 C433 1.386 . S
C432 C434 1.376 1_556 S
C433 C432 1.386 . S
C433 C437 1.393 . S
C434 H426 0.974 . S
C434 C432 1.376 1_554 S
C434 C435 1.392 1_554 S
C435 C434 1.392 1_556 S
C435 C436 1.398 . S
C435 C441 1.491 1_566 S
C436 H427 0.950 1_565 S
C436 C435 1.398 . S
C436 C437 1.391 . S
C437 H425 0.950 . S
C437 C433 1.393 . S
C437 C436 1.391 . S
C438 H428 0.950 . S
C438 C439 1.386 . S
C438 C440 1.376 1_554 S
C439 C438 1.386 . S
C439 C443 1.393 . S
C440 H429 0.974 . S
C440 C438 1.376 1_556 S
C440 C441 1.392 1_556 S
C441 C435 1.491 1_544 S
C441 C440 1.392 1_554 S
C441 C442 1.398 . S
C442 H430 0.950 1_545 S
C442 C441 1.398 . S
C442 C443 1.391 . S
C443 H431 0.950 . S
C443 C439 1.393 . S
C443 C442 1.391 . S
H444 C452 0.950 . S
H445 C457 0.950 . S
H446 C454 0.950 . S
H447 C456 0.950 . S
H448 C458 0.950 . S
H449 C460 0.950 . S
H450 C462 0.950 . S
H451 C463 0.950 . S
C452 H444 0.950 . S
C452 C453 1.386 . S
C452 C454 1.391 . S
C453 C452 1.386 . S
C453 C457 1.393 . S
C454 H446 0.950 . S
C454 C452 1.391 . S
C454 C455 1.400 . S
C455 C454 1.400 . S
C455 C456 1.398 . S
C455 C461 1.491 1_545 S
C456 H447 0.950 . S
C456 C455 1.398 . S
C456 C457 1.391 . S
C457 H445 0.950 . S
C457 C453 1.393 . S
C457 C456 1.391 . S
C458 H448 0.950 . S
C458 C459 1.386 . S
C458 C460 1.391 . S
C459 C458 1.386 . S
C459 C463 1.393 . S
C460 H449 0.950 . S
C460 C458 1.391 . S
C460 C461 1.400 . S
C461 C455 1.491 1_565 S
C461 C460 1.400 . S
C461 C462 1.398 . S
C462 H450 0.950 . S
C462 C461 1.398 . S
C462 C463 1.391 . S
C463 H451 0.950 . S
C463 C459 1.393 . S
C463 C462 1.391 . S
H464 C472 0.950 . S
H465 C477 0.950 . S
H466 C474 0.950 . S
H467 C476 0.950 1_554 S
H468 C478 0.950 . S
H469 C480 0.950 . S
H470 C482 0.950 1_556 S
H471 C483 0.950 . S
C472 H464 0.950 . S
C472 C473 1.386 . S
C472 C474 1.391 . S
C473 C472 1.386 . S
C473 C477 1.393 . S
C474 H466 0.950 . S
C474 C472 1.391 . S
C474 C475 1.400 . S
C475 C474 1.400 . S
C475 C476 1.398 . S
C475 C481 1.491 1_556 S
C476 H467 0.950 1_556 S
C476 C475 1.398 . S
C476 C477 1.391 . S
C477 H465 0.950 . S
C477 C473 1.393 . S
C477 C476 1.391 . S
C478 H468 0.950 . S
C478 C479 1.386 . S
C478 C480 1.391 . S
C479 C478 1.386 . S
C479 C483 1.393 . S
C480 H469 0.950 . S
C480 C478 1.391 . S
C480 C481 1.400 . S
C481 C475 1.491 1_554 S
C481 C480 1.400 . S
C481 C482 1.398 . S
C482 H470 0.950 1_554 S
C482 C481 1.398 . S
C482 C483 1.391 . S
C483 H471 0.950 . S
C483 C479 1.393 . S
C483 C482 1.391 . S
H484 C492 0.950 . S
H485 C497 0.950 . S
H486 C494 0.950 . S
H487 C496 0.950 . S
H488 C498 0.950 . S
H489 C500 0.950 . S
H490 C502 0.950 . S
H491 C503 0.950 . S
C492 H484 0.950 . S
C492 C493 1.386 . S
C492 C494 1.391 . S
C493 C492 1.386 . S
C493 C497 1.393 . S
C494 H486 0.950 . S
C494 C492 1.391 . S
C494 C495 1.400 . S
C495 C494 1.400 . S
C495 C496 1.398 . S
C495 C501 1.491 . S
C496 H487 0.950 . S
C496 C495 1.398 . S
C496 C497 1.391 . S
C497 H485 0.950 . S
C497 C493 1.393 . S
C497 C496 1.391 . S
C498 H488 0.950 . S
C498 C499 1.386 . S
C498 C500 1.391 . S
C499 C498 1.386 . S
C499 C503 1.393 . S
C500 H489 0.950 . S
C500 C498 1.391 . S
C500 C501 1.400 . S
C501 C495 1.491 . S
C501 C500 1.400 . S
C501 C502 1.398 . S
C502 H490 0.950 . S
C502 C501 1.398 . S
C502 C503 1.391 . S
C503 H491 0.950 . S
C503 C499 1.393 . S
C503 C502 1.391 . S
H504 C512 0.950 . S
H505 C517 0.950 . S
H506 C514 0.950 1_556 S
H507 C516 0.950 . S
H508 C518 0.950 . S
H509 C520 0.950 1_554 S
H510 C522 0.950 . S
H511 C523 0.950 . S
C512 H504 0.950 . S
C512 C513 1.386 . S
C512 C514 1.391 . S
C513 C512 1.386 . S
C513 C517 1.393 . S
C514 H506 0.950 1_554 S
C514 C512 1.391 . S
C514 C515 1.400 . S
C515 C514 1.400 . S
C515 C516 1.398 . S
C515 C521 1.491 1_554 S
C516 H507 0.950 . S
C516 C515 1.398 . S
C516 C517 1.391 . S
C517 H505 0.950 . S
C517 C513 1.393 . S
C517 C516 1.391 . S
C518 H508 0.950 . S
C518 C519 1.386 . S
C518 C520 1.391 . S
C519 C518 1.386 . S
C519 C523 1.393 . S
C520 H509 0.950 1_556 S
C520 C518 1.391 . S
C520 C521 1.400 . S
C521 C515 1.491 1_556 S
C521 C520 1.400 . S
C521 C522 1.398 . S
C522 H510 0.950 . S
C522 C521 1.398 . S
C522 C523 1.391 . S
C523 H511 0.950 . S
C523 C519 1.393 . S
C523 C522 1.391 . S
H524 C532 0.950 . S
H525 C537 0.950 . S
H526 C534 0.950 . S
H527 C536 0.950 . S
H528 C538 0.950 . S
H529 C540 0.950 . S
H530 C542 0.950 . S
H531 C543 0.950 . S
C532 H524 0.950 . S
C532 C533 1.386 . S
C532 C534 1.391 . S
C533 C532 1.386 . S
C533 C537 1.393 . S
C534 H526 0.950 . S
C534 C532 1.391 . S
C534 C535 1.400 . S
C535 C534 1.400 . S
C535 C536 1.398 . S
C535 C541 1.491 . S
C536 H527 0.950 . S
C536 C535 1.398 . S
C536 C537 1.391 . S
C537 H525 0.950 . S
C537 C533 1.393 . S
C537 C536 1.391 . S
C538 H528 0.950 . S
C538 C539 1.386 . S
C538 C540 1.391 . S
C539 C538 1.386 . S
C539 C543 1.393 . S
C540 H529 0.950 . S
C540 C538 1.391 . S
C540 C541 1.400 . S
C541 C535 1.491 . S
C541 C540 1.400 . S
C541 C542 1.398 . S
C542 H530 0.950 . S
C542 C541 1.398 . S
C542 C543 1.391 . S
C543 H531 0.950 . S
C543 C539 1.393 . S
C543 C542 1.391 . S
H544 C552 0.950 . S
H545 C557 0.950 . S
H546 C554 0.950 . S
H547 C556 0.950 . S
H548 C558 0.950 . S
H549 C560 0.950 . S
H550 C562 0.950 . S
H551 C563 0.950 . S
C552 H544 0.950 . S
C552 C553 1.386 . S
C552 C554 1.391 . S
C553 C552 1.386 . S
C553 C557 1.393 . S
C554 H546 0.950 . S
C554 C552 1.391 . S
C554 C555 1.400 . S
C555 C554 1.400 . S
C555 C556 1.398 . S
C555 C561 1.491 . S
C556 H547 0.950 . S
C556 C555 1.398 . S
C556 C557 1.391 . S
C557 H545 0.950 . S
C557 C553 1.393 . S
C557 C556 1.391 . S
C558 H548 0.950 . S
C558 C559 1.386 . S
C558 C560 1.391 . S
C559 C558 1.386 . S
C559 C563 1.393 . S
C560 H549 0.950 . S
C560 C558 1.391 . S
C560 C561 1.400 . S
C561 C555 1.491 . S
C561 C560 1.400 . S
C561 C562 1.398 . S
C562 H550 0.950 . S
C562 C561 1.398 . S
C562 C563 1.391 . S
C563 H551 0.950 . S
C563 C559 1.393 . S
C563 C562 1.391 . S
H564 C572 0.950 . S
H565 C577 0.950 . S
H566 C574 0.950 . S
H567 C576 0.950 . S
H568 C578 0.950 . S
H569 C580 0.950 . S
H570 C582 0.950 . S
H571 C583 0.950 . S
C572 H564 0.950 . S
C572 C573 1.386 . S
C572 C574 1.391 . S
C573 C572 1.386 . S
C573 C577 1.393 . S
C574 H566 0.950 . S
C574 C572 1.391 . S
C574 C575 1.400 . S
C575 C574 1.400 . S
C575 C576 1.398 . S
C575 C581 1.491 1_655 S
C576 H567 0.950 . S
C576 C575 1.398 . S
C576 C577 1.391 . S
C577 H565 0.950 . S
C577 C573 1.393 . S
C577 C576 1.391 . S
C578 H568 0.950 . S
C578 C579 1.386 . S
C578 C580 1.391 . S
C579 C578 1.386 . S
C579 C583 1.393 . S
C580 H569 0.950 . S
C580 C578 1.391 . S
C580 C581 1.400 . S
C581 C575 1.491 1_455 S
C581 C580 1.400 . S
C581 C582 1.398 . S
C582 H570 0.950 . S
C582 C581 1.398 . S
C582 C583 1.391 . S
C583 H571 0.950 . S
C583 C579 1.393 . S
C583 C582 1.391 . S
H584 C592 0.950 . S
H585 C597 0.950 . S
H586 C594 0.950 . S
H587 C596 0.950 . S
H588 C598 0.950 . S
H589 C600 0.950 . S
H590 C602 0.950 . S
H591 C603 0.950 . S
C592 H584 0.950 . S
C592 C593 1.386 . S
C592 C594 1.391 . S
C593 C592 1.386 . S
C593 C597 1.393 . S
C594 H586 0.950 . S
C594 C592 1.391 . S
C594 C595 1.400 . S
C595 C594 1.400 . S
C595 C596 1.398 . S
C595 C601 1.491 . S
C596 H587 0.950 . S
C596 C595 1.398 . S
C596 C597 1.391 . S
C597 H585 0.950 . S
C597 C593 1.393 . S
C597 C596 1.391 . S
C598 H588 0.950 . S
C598 C599 1.386 . S
C598 C600 1.391 . S
C599 C598 1.386 . S
C599 C603 1.393 . S
C600 H589 0.950 . S
C600 C598 1.391 . S
C600 C601 1.400 . S
C601 C595 1.491 . S
C601 C600 1.400 . S
C601 C602 1.398 . S
C602 H590 0.950 . S
C602 C601 1.398 . S
C602 C603 1.391 . S
C603 H591 0.950 . S
C603 C599 1.393 . S
C603 C602 1.391 . S
H604 C612 0.950 . S
H605 C617 0.950 . S
H606 C614 0.950 . S
H607 C616 0.950 . S
H608 C618 0.950 . S
H609 C620 0.950 . S
H610 C622 0.950 . S
H611 C623 0.950 . S
C612 H604 0.950 . S
C612 C613 1.386 . S
C612 C614 1.391 . S
C613 C612 1.386 . S
C613 C617 1.393 . S
C614 H606 0.950 . S
C614 C612 1.391 . S
C614 C615 1.400 . S
C615 C614 1.400 . S
C615 C616 1.398 . S
C615 C621 1.491 1_455 S
C616 H607 0.950 . S
C616 C615 1.398 . S
C616 C617 1.391 . S
C617 H605 0.950 . S
C617 C613 1.393 . S
C617 C616 1.391 . S
C618 H608 0.950 . S
C618 C619 1.386 . S
C618 C620 1.391 . S
C619 C618 1.386 . S
C619 C623 1.393 . S
C620 H609 0.950 . S
C620 C618 1.391 . S
C620 C621 1.400 . S
C621 C615 1.491 1_655 S
C621 C620 1.400 . S
C621 C622 1.398 . S
C622 H610 0.950 . S
C622 C621 1.398 . S
C622 C623 1.391 . S
C623 H611 0.950 . S
C623 C619 1.393 . S
C623 C622 1.391 . S
H624 C632 0.950 . S
H625 C637 0.950 . S
H626 C634 0.950 . S
H627 C636 0.950 . S
H628 C638 0.950 . S
H629 C640 0.950 . S
H630 C642 0.950 . S
H631 C643 0.950 . S
C632 H624 0.950 . S
C632 C633 1.386 . S
C632 C634 1.391 . S
C633 C632 1.386 . S
C633 C637 1.393 . S
C634 H626 0.950 . S
C634 C632 1.391 . S
C634 C635 1.400 . S
C635 C634 1.400 . S
C635 C636 1.398 . S
C635 C641 1.491 1_455 S
C636 H627 0.950 . S
C636 C635 1.398 . S
C636 C637 1.391 . S
C637 H625 0.950 . S
C637 C633 1.393 . S
C637 C636 1.391 . S
C638 H628 0.950 . S
C638 C639 1.386 . S
C638 C640 1.391 . S
C639 C638 1.386 . S
C639 C643 1.393 . S
C640 H629 0.950 . S
C640 C638 1.391 . S
C640 C641 1.400 . S
C641 C635 1.491 1_655 S
C641 C640 1.400 . S
C641 C642 1.398 . S
C642 H630 0.950 . S
C642 C641 1.398 . S
C642 C643 1.391 . S
C643 H631 0.950 . S
C643 C639 1.393 . S
C643 C642 1.391 . S
H644 C652 0.950 . S
H645 C657 0.950 . S
H646 C654 0.950 . S
H647 C656 0.950 . S
H648 C658 0.950 . S
H649 C660 0.950 . S
H650 C662 0.950 . S
H651 C663 0.950 . S
C652 H644 0.950 . S
C652 C653 1.386 . S
C652 C654 1.391 . S
C653 C652 1.386 . S
C653 C657 1.393 . S
C654 H646 0.950 . S
C654 C652 1.391 . S
C654 C655 1.400 . S
C655 C654 1.400 . S
C655 C656 1.398 . S
C655 C661 1.491 . S
C656 H647 0.950 . S
C656 C655 1.398 . S
C656 C657 1.391 . S
C657 H645 0.950 . S
C657 C653 1.393 . S
C657 C656 1.391 . S
C658 H648 0.950 . S
C658 C659 1.386 . S
C658 C660 1.391 . S
C659 C658 1.386 . S
C659 C663 1.393 . S
C660 H649 0.950 . S
C660 C658 1.391 . S
C660 C661 1.400 . S
C661 C655 1.491 . S
C661 C660 1.400 . S
C661 C662 1.398 . S
C662 H650 0.950 . S
C662 C661 1.398 . S
C662 C663 1.391 . S
C663 H651 0.950 . S
C663 C659 1.393 . S
C663 C662 1.391 . S
H664 C672 0.950 . S
H665 C677 0.950 . S
H666 C674 0.950 . S
H667 C676 0.950 . S
H668 C678 0.950 . S
H669 C680 0.950 . S
H670 C682 0.950 . S
H671 C683 0.950 . S
C672 H664 0.950 . S
C672 C673 1.386 . S
C672 C674 1.391 . S
C673 C672 1.386 . S
C673 C677 1.393 . S
C674 H666 0.950 . S
C674 C672 1.391 . S
C674 C675 1.400 . S
C675 C674 1.400 . S
C675 C676 1.398 . S
C675 C681 1.491 1_455 S
C676 H667 0.950 . S
C676 C675 1.398 . S
C676 C677 1.391 . S
C677 H665 0.950 . S
C677 C673 1.393 . S
C677 C676 1.391 . S
C678 H668 0.950 . S
C678 C679 1.386 . S
C678 C680 1.391 . S
C679 C678 1.386 . S
C679 C683 1.393 . S
C680 H669 0.950 . S
C680 C678 1.391 . S
C680 C681 1.400 . S
C681 C675 1.491 1_655 S
C681 C680 1.400 . S
C681 C682 1.398 . S
C682 H670 0.950 . S
C682 C681 1.398 . S
C682 C683 1.391 . S
C683 H671 0.950 . S
C683 C679 1.393 . S
C683 C682 1.391 . S
H684 C692 0.950 . S
H685 C697 0.950 . S
H686 C694 0.950 . S
H687 C696 0.950 . S
H688 C698 0.950 . S
H689 C700 0.950 . S
H690 C702 0.950 . S
H691 C703 0.950 . S
C692 H684 0.950 . S
C692 C693 1.386 . S
C692 C694 1.391 . S
C693 C692 1.386 . S
C693 C697 1.393 . S
C694 H686 0.950 . S
C694 C692 1.391 . S
C694 C695 1.400 . S
C695 C694 1.400 . S
C695 C696 1.398 . S
C695 C701 1.491 . S
C696 H687 0.950 . S
C696 C695 1.398 . S
C696 C697 1.391 . S
C697 H685 0.950 . S
C697 C693 1.393 . S
C697 C696 1.391 . S
C698 H688 0.950 . S
C698 C699 1.386 . S
C698 C700 1.391 . S
C699 C698 1.386 . S
C699 C703 1.393 . S
C700 H689 0.950 . S
C700 C698 1.391 . S
C700 C701 1.400 . S
C701 C695 1.491 . S
C701 C700 1.400 . S
C701 C702 1.398 . S
C702 H690 0.950 . S
C702 C701 1.398 . S
C702 C703 1.391 . S
C703 H691 0.950 . S
C703 C699 1.393 . S
C703 C702 1.391 . S
H704 C712 0.950 . S
H705 C717 0.950 . S
H706 C714 0.950 . S
H707 C716 0.950 . S
H708 C718 0.950 . S
H709 C720 0.950 . S
H710 C722 0.950 . S
H711 C723 0.950 . S
C712 H704 0.950 . S
C712 C713 1.386 . S
C712 C714 1.391 . S
C713 C712 1.386 . S
C713 C717 1.393 . S
C714 H706 0.950 . S
C714 C712 1.391 . S
C714 C715 1.400 . S
C715 C714 1.400 . S
C715 C716 1.398 . S
C715 C721 1.491 . S
C716 H707 0.950 . S
C716 C715 1.398 . S
C716 C717 1.391 . S
C717 H705 0.950 . S
C717 C713 1.393 . S
C717 C716 1.391 . S
C718 H708 0.950 . S
C718 C719 1.386 . S
C718 C720 1.391 . S
C719 C718 1.386 . S
C719 C723 1.393 . S
C720 H709 0.950 . S
C720 C718 1.391 . S
C720 C721 1.400 . S
C721 C715 1.491 . S
C721 C720 1.400 . S
C721 C722 1.398 . S
C722 H710 0.950 . S
C722 C721 1.398 . S
C722 C723 1.391 . S
C723 H711 0.950 . S
C723 C719 1.393 . S
C723 C722 1.391 . S
H724 C732 0.950 . S
H725 C737 0.950 . S
H726 C734 0.950 . S
H727 C736 0.950 . S
H728 C738 0.950 . S
H729 C740 0.950 . S
H730 C742 0.950 . S
H731 C743 0.950 . S
C732 H724 0.950 . S
C732 C733 1.386 . S
C732 C734 1.391 . S
C733 C732 1.386 . S
C733 C737 1.393 . S
C734 H726 0.950 . S
C734 C732 1.391 . S
C734 C735 1.400 . S
C735 C734 1.400 . S
C735 C736 1.398 . S
C735 C741 1.491 . S
C736 H727 0.950 . S
C736 C735 1.398 . S
C736 C737 1.391 . S
C737 H725 0.950 . S
C737 C733 1.393 . S
C737 C736 1.391 . S
C738 H728 0.950 . S
C738 C739 1.386 . S
C738 C740 1.391 . S
C739 C738 1.386 . S
C739 C743 1.393 . S
C740 H729 0.950 . S
C740 C738 1.391 . S
C740 C741 1.400 . S
C741 C735 1.491 . S
C741 C740 1.400 . S
C741 C742 1.398 . S
C742 H730 0.950 . S
C742 C741 1.398 . S
C742 C743 1.391 . S
C743 H731 0.950 . S
C743 C739 1.393 . S
C743 C742 1.391 . S
H744 C752 0.950 . S
H745 C757 0.950 . S
H746 C754 0.950 . S
H747 C756 0.950 . S
H748 C758 0.950 . S
H749 C760 0.950 . S
H750 C762 0.950 . S
H751 C763 0.950 . S
C752 H744 0.950 . S
C752 C753 1.386 . S
C752 C754 1.391 . S
C753 C752 1.386 . S
C753 C757 1.393 . S
C754 H746 0.950 . S
C754 C752 1.391 . S
C754 C755 1.400 . S
C755 C754 1.400 . S
C755 C756 1.398 . S
C755 C761 1.491 . S
C756 H747 0.950 . S
C756 C755 1.398 . S
C756 C757 1.391 . S
C757 H745 0.950 . S
C757 C753 1.393 . S
C757 C756 1.391 . S
C758 H748 0.950 . S
C758 C759 1.386 . S
C758 C760 1.391 . S
C759 C758 1.386 . S
C759 C763 1.393 . S
C760 H749 0.950 . S
C760 C758 1.391 . S
C760 C761 1.400 . S
C761 C755 1.491 . S
C761 C760 1.400 . S
C761 C762 1.398 . S
C762 H750 0.950 . S
C762 C761 1.398 . S
C762 C763 1.391 . S
C763 H751 0.950 . S
C763 C759 1.393 . S
C763 C762 1.391 . S
H764 C772 0.950 . S
H765 C777 0.950 . S
H766 C774 0.950 . S
H767 C776 0.950 . S
H768 C778 0.950 . S
H769 C780 0.950 . S
H770 C782 0.950 . S
H771 C783 0.950 . S
C772 H764 0.950 . S
C772 C773 1.386 . S
C772 C774 1.391 . S
C773 C772 1.386 . S
C773 C777 1.393 . S
C774 H766 0.950 . S
C774 C772 1.391 . S
C774 C775 1.400 . S
C775 C774 1.400 . S
C775 C776 1.398 . S
C775 C781 1.491 . S
C776 H767 0.950 . S
C776 C775 1.398 . S
C776 C777 1.391 . S
C777 H765 0.950 . S
C777 C773 1.393 . S
C777 C776 1.391 . S
C778 H768 0.950 . S
C778 C779 1.386 . S
C778 C780 1.391 . S
C779 C778 1.386 . S
C779 C783 1.393 . S
C780 H769 0.950 . S
C780 C778 1.391 . S
C780 C781 1.400 . S
C781 C775 1.491 . S
C781 C780 1.400 . S
C781 C782 1.398 . S
C782 H770 0.950 . S
C782 C781 1.398 . S
C782 C783 1.391 . S
C783 H771 0.950 . S
C783 C779 1.393 . S
C783 C782 1.391 . S
H784 C792 0.950 . S
H785 C797 0.950 . S
H786 C794 0.950 . S
H787 C796 0.950 . S
H788 C798 0.950 . S
H789 C800 0.950 . S
H790 C802 0.950 . S
H791 C803 0.950 . S
C792 H784 0.950 . S
C792 C793 1.386 . S
C792 C794 1.391 . S
C793 C792 1.386 . S
C793 C797 1.393 . S
C794 H786 0.950 . S
C794 C792 1.391 . S
C794 C795 1.400 . S
C795 C794 1.400 . S
C795 C796 1.398 . S
C795 C801 1.491 . S
C796 H787 0.950 . S
C796 C795 1.398 . S
C796 C797 1.391 . S
C797 H785 0.950 . S
C797 C793 1.393 . S
C797 C796 1.391 . S
C798 H788 0.950 . S
C798 C799 1.386 . S
C798 C800 1.391 . S
C799 C798 1.386 . S
C799 C803 1.393 . S
C800 H789 0.950 . S
C800 C798 1.391 . S
C800 C801 1.400 . S
C801 C795 1.491 . S
C801 C800 1.400 . S
C801 C802 1.398 . S
C802 H790 0.950 . S
C802 C801 1.398 . S
C802 C803 1.391 . S
C803 H791 0.950 . S
C803 C799 1.393 . S
C803 C802 1.391 . S
H804 C812 0.950 . S
H805 C817 0.950 . S
H806 C814 0.950 . S
H807 C816 0.950 . S
H808 C818 0.950 . S
H809 C820 0.950 . S
H810 C822 0.950 . S
H811 C823 0.950 . S
C812 H804 0.950 . S
C812 C813 1.386 . S
C812 C814 1.391 . S
C813 C812 1.386 . S
C813 C817 1.393 . S
C814 H806 0.950 . S
C814 C812 1.391 . S
C814 C815 1.400 . S
C815 C814 1.400 . S
C815 C816 1.398 . S
C815 C821 1.491 . S
C816 H807 0.950 . S
C816 C815 1.398 . S
C816 C817 1.391 . S
C817 H805 0.950 . S
C817 C813 1.393 . S
C817 C816 1.391 . S
C818 H808 0.950 . S
C818 C819 1.386 . S
C818 C820 1.391 . S
C819 C818 1.386 . S
C819 C823 1.393 . S
C820 H809 0.950 . S
C820 C818 1.391 . S
C820 C821 1.400 . S
C821 C815 1.491 . S
C821 C820 1.400 . S
C821 C822 1.398 . S
C822 H810 0.950 . S
C822 C821 1.398 . S
C822 C823 1.391 . S
C823 H811 0.950 . S
C823 C819 1.393 . S
C823 C822 1.391 . S
H824 C832 0.950 . S
H825 C837 0.950 . S
H826 C834 0.950 . S
H827 C836 0.950 . S
H828 C838 0.950 . S
H829 C840 0.950 . S
H830 C842 0.950 . S
H831 C843 0.950 . S
C832 H824 0.950 . S
C832 C833 1.386 . S
C832 C834 1.391 . S
C833 C832 1.386 . S
C833 C837 1.393 . S
C834 H826 0.950 . S
C834 C832 1.391 . S
C834 C835 1.400 . S
C835 C834 1.400 . S
C835 C836 1.398 . S
C835 C841 1.491 . S
C836 H827 0.950 . S
C836 C835 1.398 . S
C836 C837 1.391 . S
C837 H825 0.950 . S
C837 C833 1.393 . S
C837 C836 1.391 . S
C838 H828 0.950 . S
C838 C839 1.386 . S
C838 C840 1.391 . S
C839 C838 1.386 . S
C839 C843 1.393 . S
C840 H829 0.950 . S
C840 C838 1.391 . S
C840 C841 1.400 . S
C841 C835 1.491 . S
C841 C840 1.400 . S
C841 C842 1.398 . S
C842 H830 0.950 . S
C842 C841 1.398 . S
C842 C843 1.391 . S
C843 H831 0.950 . S
C843 C839 1.393 . S
C843 C842 1.391 . S
H844 C852 0.950 . S
H845 C857 0.950 . S
H846 C854 0.950 . S
H847 C856 0.950 . S
H848 C858 0.950 . S
H849 C860 0.950 . S
H850 C862 0.950 . S
H851 C863 0.950 . S
C852 H844 0.950 . S
C852 C853 1.386 . S
C852 C854 1.391 . S
C853 C852 1.386 . S
C853 C857 1.393 . S
C854 H846 0.950 . S
C854 C852 1.391 . S
C854 C855 1.400 . S
C855 C854 1.400 . S
C855 C856 1.398 . S
C855 C861 1.491 . S
C856 H847 0.950 . S
C856 C855 1.398 . S
C856 C857 1.391 . S
C857 H845 0.950 . S
C857 C853 1.393 . S
C857 C856 1.391 . S
C858 H848 0.950 . S
C858 C859 1.386 . S
C858 C860 1.391 . S
C859 C858 1.386 . S
C859 C863 1.393 . S
C860 H849 0.950 . S
C860 C858 1.391 . S
C860 C861 1.400 . S
C861 C855 1.491 . S
C861 C860 1.400 . S
C861 C862 1.398 . S
C862 H850 0.950 . S
C862 C861 1.398 . S
C862 C863 1.391 . S
C863 H851 0.950 . S
C863 C859 1.393 . S
C863 C862 1.391 . S
C233 C13 1.331 . S
C239 C179 1.431 . S
C253 C193 1.440 . S
C259 C27 1.364 . S
C273 C41 1.353 . S
C279 C207 1.434 . S
C293 C221 1.432 . S
C299 C55 1.344 . S
C313 C125 1.335 . S
C319 C67 1.431 . S
C333 C81 1.439 . S
C339 C139 1.367 . S
C353 C153 1.341 . S
C359 C95 1.432 . S
C373 C109 1.432 . S
C379 C167 1.343 . S
C393 C8 1.376 . S
C399 C36 1.376 . S
C413 C22 1.376 . S
C419 C50 1.376 . S
C433 C64 1.507 . S
C439 C92 1.506 . S
C453 C78 1.517 . S
C459 C106 1.516 . S
C473 C148 1.374 . S
C479 C120 1.373 . S
C493 C134 1.372 . S
C499 C162 1.370 . S
C513 C204 1.514 . S
C519 C176 1.513 . S
C533 C190 1.504 . S
C539 C218 1.503 . S
C553 C91 1.492 . S
C559 C7 1.489 . S
C573 C105 1.495 . S
C579 C21 1.498 . S
C593 C35 1.493 . S
C599 C63 1.491 . S
C613 C49 1.501 . S
C619 C77 1.501 . S
C633 C203 1.491 . S
C639 C119 1.493 . S
C653 C133 1.494 . S
C659 C217 1.491 . S
C673 C175 1.490 . S
C679 C147 1.492 . S
C693 C161 1.499 . S
C699 C189 1.501 . S
C713 C11 1.326 . S
C719 C53 1.327 . S
C733 C39 1.328 . S
C739 C25 1.328 . S
C753 C69 1.448 . S
C759 C111 1.431 . S
C773 C83 1.456 . S
C779 C97 1.463 . S
C793 C165 1.327 . S
C799 C123 1.326 . S
C813 C137 1.322 . S
C819 C151 1.321 . S
C833 C223 1.433 . S
C839 C181 1.431 . S
C853 C195 1.436 . S
C859 C209 1.429 . S
