# Generated by pormake.
# Topology ana, (4)-cn, num edge types: 1
# Building blocks:
#     Node 0, Type 0, BuildingBlock: TATPOV_clean_sbu_0, # of connection points: 4
#     Node 1, Type 0, BuildingBlock: TATPOV_clean_sbu_0, # of connection points: 4
#     Node 2, Type 0, BuildingBlock: TATPOV_clean_sbu_0, # of connection points: 4
#     Node 3, Type 0, BuildingBlock: TATPOV_clean_sbu_0, # of connection points: 4
#     Node 4, Type 0, BuildingBlock: TATPOV_clean_sbu_0, # of connection points: 4
#     Node 5, Type 0, BuildingBlock: TATPOV_clean_sbu_0, # of connection points: 4
#     Node 6, Type 0, BuildingBlock: TATPOV_clean_sbu_0, # of connection points: 4
#     Node 7, Type 0, BuildingBlock: TATPOV_clean_sbu_0, # of connection points: 4
#     Node 8, Type 0, BuildingBlock: TATPOV_clean_sbu_0, # of connection points: 4
#     Node 9, Type 0, BuildingBlock: TATPOV_clean_sbu_0, # of connection points: 4
#     Node 10, Type 0, BuildingBlock: TATPOV_clean_sbu_0, # of connection points: 4
#     Node 11, Type 0, BuildingBlock: TATPOV_clean_sbu_0, # of connection points: 4
#     Node 12, Type 0, BuildingBlock: TATPOV_clean_sbu_0, # of connection points: 4
#     Node 13, Type 0, BuildingBlock: TATPOV_clean_sbu_0, # of connection points: 4
#     Node 14, Type 0, BuildingBlock: TATPOV_clean_sbu_0, # of connection points: 4
#     Node 15, Type 0, BuildingBlock: TATPOV_clean_sbu_0, # of connection points: 4
#     Node 16, Type 0, BuildingBlock: TATPOV_clean_sbu_0, # of connection points: 4
#     Node 17, Type 0, BuildingBlock: TATPOV_clean_sbu_0, # of connection points: 4
#     Node 18, Type 0, BuildingBlock: TATPOV_clean_sbu_0, # of connection points: 4
#     Node 19, Type 0, BuildingBlock: TATPOV_clean_sbu_0, # of connection points: 4
#     Node 20, Type 0, BuildingBlock: TATPOV_clean_sbu_0, # of connection points: 4
#     Node 21, Type 0, BuildingBlock: TATPOV_clean_sbu_0, # of connection points: 4
#     Node 22, Type 0, BuildingBlock: TATPOV_clean_sbu_0, # of connection points: 4
#     Node 23, Type 0, BuildingBlock: TATPOV_clean_sbu_0, # of connection points: 4
#     Node 24, Type 0, BuildingBlock: TATPOV_clean_sbu_0, # of connection points: 4
#     Node 25, Type 0, BuildingBlock: TATPOV_clean_sbu_0, # of connection points: 4
#     Node 26, Type 0, BuildingBlock: TATPOV_clean_sbu_0, # of connection points: 4
#     Node 27, Type 0, BuildingBlock: TATPOV_clean_sbu_0, # of connection points: 4
#     Node 28, Type 0, BuildingBlock: TATPOV_clean_sbu_0, # of connection points: 4
#     Node 29, Type 0, BuildingBlock: TATPOV_clean_sbu_0, # of connection points: 4
#     Node 30, Type 0, BuildingBlock: TATPOV_clean_sbu_0, # of connection points: 4
#     Node 31, Type 0, BuildingBlock: TATPOV_clean_sbu_0, # of connection points: 4
#     Node 32, Type 0, BuildingBlock: TATPOV_clean_sbu_0, # of connection points: 4
#     Node 33, Type 0, BuildingBlock: TATPOV_clean_sbu_0, # of connection points: 4
#     Node 34, Type 0, BuildingBlock: TATPOV_clean_sbu_0, # of connection points: 4
#     Node 35, Type 0, BuildingBlock: TATPOV_clean_sbu_0, # of connection points: 4
#     Node 36, Type 0, BuildingBlock: TATPOV_clean_sbu_0, # of connection points: 4
#     Node 37, Type 0, BuildingBlock: TATPOV_clean_sbu_0, # of connection points: 4
#     Node 38, Type 0, BuildingBlock: TATPOV_clean_sbu_0, # of connection points: 4
#     Node 39, Type 0, BuildingBlock: TATPOV_clean_sbu_0, # of connection points: 4
#     Node 40, Type 0, BuildingBlock: TATPOV_clean_sbu_0, # of connection points: 4
#     Node 41, Type 0, BuildingBlock: TATPOV_clean_sbu_0, # of connection points: 4
#     Node 42, Type 0, BuildingBlock: TATPOV_clean_sbu_0, # of connection points: 4
#     Node 43, Type 0, BuildingBlock: TATPOV_clean_sbu_0, # of connection points: 4
#     Node 44, Type 0, BuildingBlock: TATPOV_clean_sbu_0, # of connection points: 4
#     Node 45, Type 0, BuildingBlock: TATPOV_clean_sbu_0, # of connection points: 4
#     Node 46, Type 0, BuildingBlock: TATPOV_clean_sbu_0, # of connection points: 4
#     Node 47, Type 0, BuildingBlock: TATPOV_clean_sbu_0, # of connection points: 4
#     Edge 48, Type (0, 0), BuildingBlock: XUDNAN_clean_linker_2, # of connection points: 2
#     Edge 49, Type (0, 0), BuildingBlock: XUDNAN_clean_linker_2, # of connection points: 2
#     Edge 50, Type (0, 0), BuildingBlock: XUDNAN_clean_linker_2, # of connection points: 2
#     Edge 51, Type (0, 0), BuildingBlock: XUDNAN_clean_linker_2, # of connection points: 2
#     Edge 52, Type (0, 0), BuildingBlock: XUDNAN_clean_linker_2, # of connection points: 2
#     Edge 53, Type (0, 0), BuildingBlock: XUDNAN_clean_linker_2, # of connection points: 2
#     Edge 54, Type (0, 0), BuildingBlock: XUDNAN_clean_linker_2, # of connection points: 2
#     Edge 55, Type (0, 0), BuildingBlock: XUDNAN_clean_linker_2, # of connection points: 2
#     Edge 56, Type (0, 0), BuildingBlock: XUDNAN_clean_linker_2, # of connection points: 2
#     Edge 57, Type (0, 0), BuildingBlock: XUDNAN_clean_linker_2, # of connection points: 2
#     Edge 58, Type (0, 0), BuildingBlock: XUDNAN_clean_linker_2, # of connection points: 2
#     Edge 59, Type (0, 0), BuildingBlock: XUDNAN_clean_linker_2, # of connection points: 2
#     Edge 60, Type (0, 0), BuildingBlock: XUDNAN_clean_linker_2, # of connection points: 2
#     Edge 61, Type (0, 0), BuildingBlock: XUDNAN_clean_linker_2, # of connection points: 2
#     Edge 62, Type (0, 0), BuildingBlock: XUDNAN_clean_linker_2, # of connection points: 2
#     Edge 63, Type (0, 0), BuildingBlock: XUDNAN_clean_linker_2, # of connection points: 2
#     Edge 64, Type (0, 0), BuildingBlock: XUDNAN_clean_linker_2, # of connection points: 2
#     Edge 65, Type (0, 0), BuildingBlock: XUDNAN_clean_linker_2, # of connection points: 2
#     Edge 66, Type (0, 0), BuildingBlock: XUDNAN_clean_linker_2, # of connection points: 2
#     Edge 67, Type (0, 0), BuildingBlock: XUDNAN_clean_linker_2, # of connection points: 2
#     Edge 68, Type (0, 0), BuildingBlock: XUDNAN_clean_linker_2, # of connection points: 2
#     Edge 69, Type (0, 0), BuildingBlock: XUDNAN_clean_linker_2, # of connection points: 2
#     Edge 70, Type (0, 0), BuildingBlock: XUDNAN_clean_linker_2, # of connection points: 2
#     Edge 71, Type (0, 0), BuildingBlock: XUDNAN_clean_linker_2, # of connection points: 2
#     Edge 72, Type (0, 0), BuildingBlock: XUDNAN_clean_linker_2, # of connection points: 2
#     Edge 73, Type (0, 0), BuildingBlock: XUDNAN_clean_linker_2, # of connection points: 2
#     Edge 74, Type (0, 0), BuildingBlock: XUDNAN_clean_linker_2, # of connection points: 2
#     Edge 75, Type (0, 0), BuildingBlock: XUDNAN_clean_linker_2, # of connection points: 2
#     Edge 76, Type (0, 0), BuildingBlock: XUDNAN_clean_linker_2, # of connection points: 2
#     Edge 77, Type (0, 0), BuildingBlock: XUDNAN_clean_linker_2, # of connection points: 2
#     Edge 78, Type (0, 0), BuildingBlock: XUDNAN_clean_linker_2, # of connection points: 2
#     Edge 79, Type (0, 0), BuildingBlock: XUDNAN_clean_linker_2, # of connection points: 2
#     Edge 80, Type (0, 0), BuildingBlock: XUDNAN_clean_linker_2, # of connection points: 2
#     Edge 81, Type (0, 0), BuildingBlock: XUDNAN_clean_linker_2, # of connection points: 2
#     Edge 82, Type (0, 0), BuildingBlock: XUDNAN_clean_linker_2, # of connection points: 2
#     Edge 83, Type (0, 0), BuildingBlock: XUDNAN_clean_linker_2, # of connection points: 2
#     Edge 84, Type (0, 0), BuildingBlock: XUDNAN_clean_linker_2, # of connection points: 2
#     Edge 85, Type (0, 0), BuildingBlock: XUDNAN_clean_linker_2, # of connection points: 2
#     Edge 86, Type (0, 0), BuildingBlock: XUDNAN_clean_linker_2, # of connection points: 2
#     Edge 87, Type (0, 0), BuildingBlock: XUDNAN_clean_linker_2, # of connection points: 2
#     Edge 88, Type (0, 0), BuildingBlock: XUDNAN_clean_linker_2, # of connection points: 2
#     Edge 89, Type (0, 0), BuildingBlock: XUDNAN_clean_linker_2, # of connection points: 2
#     Edge 90, Type (0, 0), BuildingBlock: XUDNAN_clean_linker_2, # of connection points: 2
#     Edge 91, Type (0, 0), BuildingBlock: XUDNAN_clean_linker_2, # of connection points: 2
#     Edge 92, Type (0, 0), BuildingBlock: XUDNAN_clean_linker_2, # of connection points: 2
#     Edge 93, Type (0, 0), BuildingBlock: XUDNAN_clean_linker_2, # of connection points: 2
#     Edge 94, Type (0, 0), BuildingBlock: XUDNAN_clean_linker_2, # of connection points: 2
#     Edge 95, Type (0, 0), BuildingBlock: XUDNAN_clean_linker_2, # of connection points: 2
#     Edge 96, Type (0, 0), BuildingBlock: XUDNAN_clean_linker_2, # of connection points: 2
#     Edge 97, Type (0, 0), BuildingBlock: XUDNAN_clean_linker_2, # of connection points: 2
#     Edge 98, Type (0, 0), BuildingBlock: XUDNAN_clean_linker_2, # of connection points: 2
#     Edge 99, Type (0, 0), BuildingBlock: XUDNAN_clean_linker_2, # of connection points: 2
#     Edge 100, Type (0, 0), BuildingBlock: XUDNAN_clean_linker_2, # of connection points: 2
#     Edge 101, Type (0, 0), BuildingBlock: XUDNAN_clean_linker_2, # of connection points: 2
#     Edge 102, Type (0, 0), BuildingBlock: XUDNAN_clean_linker_2, # of connection points: 2
#     Edge 103, Type (0, 0), BuildingBlock: XUDNAN_clean_linker_2, # of connection points: 2
#     Edge 104, Type (0, 0), BuildingBlock: XUDNAN_clean_linker_2, # of connection points: 2
#     Edge 105, Type (0, 0), BuildingBlock: XUDNAN_clean_linker_2, # of connection points: 2
#     Edge 106, Type (0, 0), BuildingBlock: XUDNAN_clean_linker_2, # of connection points: 2
#     Edge 107, Type (0, 0), BuildingBlock: XUDNAN_clean_linker_2, # of connection points: 2
#     Edge 108, Type (0, 0), BuildingBlock: XUDNAN_clean_linker_2, # of connection points: 2
#     Edge 109, Type (0, 0), BuildingBlock: XUDNAN_clean_linker_2, # of connection points: 2
#     Edge 110, Type (0, 0), BuildingBlock: XUDNAN_clean_linker_2, # of connection points: 2
#     Edge 111, Type (0, 0), BuildingBlock: XUDNAN_clean_linker_2, # of connection points: 2
#     Edge 112, Type (0, 0), BuildingBlock: XUDNAN_clean_linker_2, # of connection points: 2
#     Edge 113, Type (0, 0), BuildingBlock: XUDNAN_clean_linker_2, # of connection points: 2
#     Edge 114, Type (0, 0), BuildingBlock: XUDNAN_clean_linker_2, # of connection points: 2
#     Edge 115, Type (0, 0), BuildingBlock: XUDNAN_clean_linker_2, # of connection points: 2
#     Edge 116, Type (0, 0), BuildingBlock: XUDNAN_clean_linker_2, # of connection points: 2
#     Edge 117, Type (0, 0), BuildingBlock: XUDNAN_clean_linker_2, # of connection points: 2
#     Edge 118, Type (0, 0), BuildingBlock: XUDNAN_clean_linker_2, # of connection points: 2
#     Edge 119, Type (0, 0), BuildingBlock: XUDNAN_clean_linker_2, # of connection points: 2
#     Edge 120, Type (0, 0), BuildingBlock: XUDNAN_clean_linker_2, # of connection points: 2
#     Edge 121, Type (0, 0), BuildingBlock: XUDNAN_clean_linker_2, # of connection points: 2
#     Edge 122, Type (0, 0), BuildingBlock: XUDNAN_clean_linker_2, # of connection points: 2
#     Edge 123, Type (0, 0), BuildingBlock: XUDNAN_clean_linker_2, # of connection points: 2
#     Edge 124, Type (0, 0), BuildingBlock: XUDNAN_clean_linker_2, # of connection points: 2
#     Edge 125, Type (0, 0), BuildingBlock: XUDNAN_clean_linker_2, # of connection points: 2
#     Edge 126, Type (0, 0), BuildingBlock: XUDNAN_clean_linker_2, # of connection points: 2
#     Edge 127, Type (0, 0), BuildingBlock: XUDNAN_clean_linker_2, # of connection points: 2
#     Edge 128, Type (0, 0), BuildingBlock: XUDNAN_clean_linker_2, # of connection points: 2
#     Edge 129, Type (0, 0), BuildingBlock: XUDNAN_clean_linker_2, # of connection points: 2
#     Edge 130, Type (0, 0), BuildingBlock: XUDNAN_clean_linker_2, # of connection points: 2
#     Edge 131, Type (0, 0), BuildingBlock: XUDNAN_clean_linker_2, # of connection points: 2
#     Edge 132, Type (0, 0), BuildingBlock: XUDNAN_clean_linker_2, # of connection points: 2
#     Edge 133, Type (0, 0), BuildingBlock: XUDNAN_clean_linker_2, # of connection points: 2
#     Edge 134, Type (0, 0), BuildingBlock: XUDNAN_clean_linker_2, # of connection points: 2
#     Edge 135, Type (0, 0), BuildingBlock: XUDNAN_clean_linker_2, # of connection points: 2
#     Edge 136, Type (0, 0), BuildingBlock: XUDNAN_clean_linker_2, # of connection points: 2
#     Edge 137, Type (0, 0), BuildingBlock: XUDNAN_clean_linker_2, # of connection points: 2
#     Edge 138, Type (0, 0), BuildingBlock: XUDNAN_clean_linker_2, # of connection points: 2
#     Edge 139, Type (0, 0), BuildingBlock: XUDNAN_clean_linker_2, # of connection points: 2
#     Edge 140, Type (0, 0), BuildingBlock: XUDNAN_clean_linker_2, # of connection points: 2
#     Edge 141, Type (0, 0), BuildingBlock: XUDNAN_clean_linker_2, # of connection points: 2
#     Edge 142, Type (0, 0), BuildingBlock: XUDNAN_clean_linker_2, # of connection points: 2
#     Edge 143, Type (0, 0), BuildingBlock: XUDNAN_clean_linker_2, # of connection points: 2
# Relax obj value: 0.165
# Max RMSD: 0.202
# Mean RMSD: 0.184
data_MOF--net-ana--node1-TATPOV_clean_sbu_0--edge1-XUDNAN_clean_linker_2
_symmetry_space_group_name_H-M    P1
_symmetry_Int_Tables_number       1
_symmetry_cell_setting            triclinic
loop_
_symmetry_equiv_pos_as_xyz
'x, y, z'
_cell_length_a     64.939861
_cell_length_b     65.248552
_cell_length_c     65.249701
_cell_angle_alpha  90.550057
_cell_angle_beta   90.120898
_cell_angle_gamma 91.102234
loop_
_atom_site_label
_atom_site_type_symbol
_atom_site_fract_x
_atom_site_fract_y
_atom_site_fract_z
_atom_type_partial_charge
Zn0 Zn 0.11365 0.14844 0.35391 0.0
Zn1 Zn 0.10637 0.14469 0.39519 0.0
O2 O 0.0832 0.12796 0.38149 0.0
O3 O 0.08718 0.13249 0.34826 0.0
O4 O 0.10023 0.14047 0.42507 0.0
O5 O 0.14116 0.13443 0.35781 0.0
O6 O 0.13569 0.13487 0.39117 0.0
C7 C 0.07719 0.12497 0.36313 0.0
C8 C 0.1071 0.18688 0.37618 0.0
O9 O 0.10422 0.17543 0.39161 0.0
O10 O 0.11164 0.17917 0.35889 0.0
C11 C 0.10874 0.1508 0.43948 0.0
O12 O 0.12278 0.16483 0.43506 0.0
C13 C 0.14732 0.13124 0.37591 0.0
Zn14 Zn 0.06372 0.81291 0.66934 0.0
Zn15 Zn 0.07414 0.85103 0.65503 0.0
O16 O 0.04632 0.84667 0.64133 0.0
O17 O 0.03819 0.81516 0.65085 0.0
O18 O 0.08252 0.88025 0.6487 0.0
O19 O 0.06294 0.82282 0.69891 0.0
O20 O 0.0713 0.85299 0.68618 0.0
C21 C 0.03404 0.83123 0.64095 0.0
C22 C 0.1015 0.8142 0.64587 0.0
O23 O 0.09674 0.83277 0.64268 0.0
O24 O 0.09053 0.80301 0.65745 0.0
C25 C 0.08813 0.88763 0.6316 0.0
O26 O 0.08906 0.87553 0.61543 0.0
C27 C 0.06682 0.84175 0.70144 0.0
Zn28 Zn 0.3592 0.83219 0.85583 0.0
Zn29 Zn 0.35203 0.83163 0.89563 0.0
O30 O 0.38059 0.84544 0.89194 0.0
O31 O 0.38554 0.84835 0.85878 0.0
O32 O 0.3502 0.83362 0.92629 0.0
O33 O 0.33286 0.84604 0.85112 0.0
O34 O 0.32552 0.8452 0.88402 0.0
C35 C 0.39168 0.85132 0.87698 0.0
C36 C 0.35553 0.79156 0.87251 0.0
O37 O 0.35266 0.80111 0.88931 0.0
O38 O 0.35881 0.80128 0.8561 0.0
C39 C 0.35437 0.81942 0.9388 0.0
O40 O 0.35805 0.80086 0.93198 0.0
C41 C 0.3205 0.84952 0.86563 0.0
Zn42 Zn 0.42009 0.14945 0.17305 0.0
Zn43 Zn 0.39933 0.11494 0.16037 0.0
O44 O 0.4289 0.11042 0.15044 0.0
O45 O 0.44634 0.13747 0.16206 0.0
O46 O 0.38443 0.09005 0.14869 0.0
O47 O 0.41156 0.14257 0.20159 0.0
O48 O 0.39528 0.11414 0.19182 0.0
C49 C 0.4458 0.12037 0.15275 0.0
C50 C 0.38667 0.15769 0.14595 0.0
O51 O 0.38431 0.13835 0.14647 0.0
O52 O 0.40122 0.16658 0.15569 0.0
C53 C 0.37939 0.09049 0.12984 0.0
O54 O 0.38397 0.10684 0.11904 0.0
C55 C 0.40112 0.12663 0.20596 0.0
Zn56 Zn 0.09864 0.8644 0.07709 0.0
Zn57 Zn 0.11141 0.82508 0.08066 0.0
O58 O 0.13417 0.84246 0.09472 0.0
O59 O 0.12345 0.87424 0.09347 0.0
O60 O 0.12124 0.79611 0.0842 0.0
O61 O 0.07221 0.85686 0.09141 0.0
O62 O 0.08264 0.82506 0.09408 0.0
C63 C 0.1368 0.86146 0.09887 0.0
C64 C 0.10599 0.84351 0.03826 0.0
O65 O 0.11061 0.82853 0.04963 0.0
O66 O 0.10062 0.86038 0.04622 0.0
C67 C 0.11372 0.78127 0.07365 0.0
O68 O 0.09909 0.78486 0.06029 0.0
C69 C 0.06901 0.83858 0.0971 0.0
Zn70 Zn 0.41572 0.83083 0.29487 0.0
Zn71 Zn 0.40908 0.86571 0.31607 0.0
O72 O 0.44011 0.86208 0.32092 0.0
O73 O 0.44587 0.83469 0.30188 0.0
O74 O 0.40174 0.89186 0.33059 0.0
O75 O 0.40404 0.84271 0.26935 0.0
O76 O 0.3998 0.8715 0.28653 0.0
C77 C 0.45244 0.84885 0.31376 0.0
C78 C 0.38831 0.82521 0.32881 0.0
O79 O 0.39158 0.84436 0.33121 0.0
O80 O 0.39685 0.81566 0.31424 0.0
C81 C 0.39852 0.89228 0.34979 0.0
O82 O 0.40169 0.87571 0.36054 0.0
C83 C 0.39828 0.86111 0.26994 0.0
Zn84 Zn 0.37589 0.11182 0.57071 0.0
Zn85 Zn 0.36363 0.15072 0.57085 0.0
O86 O 0.33773 0.13433 0.58038 0.0
O87 O 0.34772 0.10227 0.57961 0.0
O88 O 0.35452 0.18021 0.57247 0.0
O89 O 0.39744 0.11806 0.5916 0.0
O90 O 0.3892 0.15058 0.59008 0.0
C91 C 0.33392 0.11529 0.58308 0.0
C92 C 0.3805 0.13153 0.53167 0.0
O93 O 0.37164 0.1463 0.54074 0.0
O94 O 0.38408 0.11511 0.54111 0.0
C95 C 0.35547 0.19341 0.55822 0.0
O96 O 0.36274 0.18814 0.5402 0.0
C97 C 0.40075 0.13653 0.59685 0.0
Zn98 Zn 0.04042 0.11895 0.79349 0.0
Zn99 Zn 0.06173 0.10155 0.82329 0.0
O100 O 0.03094 0.09532 0.82958 0.0
O101 O 0.01355 0.10769 0.80368 0.0
O102 O 0.07755 0.08568 0.84449 0.0
O103 O 0.05579 0.10434 0.77168 0.0
O104 O 0.07473 0.09128 0.7961 0.0
C105 C 0.01385 0.09833 0.82055 0.0
C106 C 0.06392 0.14759 0.81942 0.0
O107 O 0.06935 0.13158 0.82888 0.0
O108 O 0.05179 0.14612 0.80421 0.0
C109 C 0.06968 0.07134 0.85519 0.0
O110 O 0.04993 0.06696 0.8534 0.0
C111 C 0.0708 0.09359 0.77711 0.0
Zn112 Zn 0.16236 0.40935 0.07983 0.0
Zn113 Zn 0.15108 0.39179 0.11539 0.0
O114 O 0.18142 0.38365 0.11385 0.0
O115 O 0.19026 0.39601 0.08373 0.0
O116 O 0.14018 0.3803 0.14168 0.0
O117 O 0.15637 0.43766 0.09102 0.0
O118 O 0.14571 0.42269 0.11925 0.0
C119 C 0.19473 0.38609 0.09971 0.0
C120 C 0.12909 0.37989 0.07554 0.0
O121 O 0.13261 0.37679 0.09441 0.0
O122 O 0.13917 0.39345 0.06585 0.0
C123 C 0.14093 0.36178 0.14748 0.0
O124 O 0.15083 0.34829 0.13637 0.0
C125 C 0.14853 0.43888 0.10873 0.0
Zn126 Zn 0.67317 0.0471 0.89749 0.0
Zn127 Zn 0.65821 0.06046 0.86177 0.0
O128 O 0.68636 0.07481 0.8613 0.0
O129 O 0.69873 0.06375 0.89069 0.0
O130 O 0.64558 0.06589 0.83434 0.0
O131 O 0.67024 0.01721 0.89036 0.0
O132 O 0.65969 0.02916 0.86076 0.0
C133 C 0.70065 0.07439 0.87464 0.0
C134 C 0.63869 0.07359 0.90216 0.0
O135 O 0.63916 0.07442 0.88268 0.0
O136 O 0.65086 0.06213 0.91172 0.0
C137 C 0.63813 0.08279 0.82876 0.0
O138 O 0.6386 0.09853 0.84148 0.0
C139 C 0.6643 0.01416 0.87212 0.0
Zn140 Zn 0.79142 0.92554 0.38704 0.0
Zn141 Zn 0.81044 0.91146 0.35897 0.0
O142 O 0.782 0.89655 0.35609 0.0
O143 O 0.77056 0.90354 0.38694 0.0
O144 O 0.82656 0.90148 0.33442 0.0
O145 O 0.78342 0.95167 0.37455 0.0
O146 O 0.81057 0.94323 0.35661 0.0
C147 C 0.76841 0.89426 0.36999 0.0
C148 C 0.82798 0.91066 0.40184 0.0
O149 O 0.82701 0.90206 0.38424 0.0
O150 O 0.81535 0.92447 0.40638 0.0
C151 C 0.83613 0.88471 0.33556 0.0
O152 O 0.83537 0.87435 0.35271 0.0
C153 C 0.79766 0.95661 0.36242 0.0
Zn154 Zn 0.81694 0.05356 0.07121 0.0
Zn155 Zn 0.81822 0.07229 0.10728 0.0
O156 O 0.78871 0.07868 0.09758 0.0
O157 O 0.78883 0.06565 0.06635 0.0
O158 O 0.81922 0.08343 0.13624 0.0
O159 O 0.82025 0.02547 0.08288 0.0
O160 O 0.82524 0.04174 0.11216 0.0
C161 C 0.7798 0.07559 0.08036 0.0
C162 C 0.84889 0.08465 0.0743 0.0
O163 O 0.84024 0.08873 0.09132 0.0
O164 O 0.84259 0.06963 0.06342 0.0
C165 C 0.83286 0.09548 0.14393 0.0
O166 O 0.84769 0.10272 0.13224 0.0
C167 C 0.82502 0.02512 0.10167 0.0
Zn168 Zn 0.31131 0.54458 0.57214 0.0
Zn169 Zn 0.31603 0.56541 0.60824 0.0
O170 O 0.28577 0.5704 0.60053 0.0
O171 O 0.28135 0.55331 0.57153 0.0
O172 O 0.31902 0.58005 0.63559 0.0
O173 O 0.31935 0.51838 0.58605 0.0
O174 O 0.32443 0.53576 0.61477 0.0
C175 C 0.27427 0.56469 0.5856 0.0
C176 C 0.34223 0.57725 0.57107 0.0
O177 O 0.33643 0.58014 0.58946 0.0
O178 O 0.33402 0.56299 0.56033 0.0
C179 C 0.33398 0.59214 0.64011 0.0
O180 O 0.34842 0.59571 0.62648 0.0
C181 C 0.32493 0.51894 0.60466 0.0
Zn182 Zn 0.16158 0.55341 0.39925 0.0
Zn183 Zn 0.15297 0.56732 0.36234 0.0
O184 O 0.18086 0.58159 0.36729 0.0
O185 O 0.18581 0.57324 0.39957 0.0
O186 O 0.14381 0.57757 0.33465 0.0
O187 O 0.16457 0.52481 0.38922 0.0
O188 O 0.15566 0.53591 0.35867 0.0
C189 C 0.1914 0.58292 0.38373 0.0
C190 C 0.1244 0.57409 0.39976 0.0
O191 O 0.1302 0.5784 0.38164 0.0
O192 O 0.13461 0.5619 0.41053 0.0
C193 C 0.14062 0.59669 0.33351 0.0
O194 O 0.14398 0.60823 0.34984 0.0
C195 C 0.16076 0.52136 0.3705 0.0
Zn196 Zn 0.28918 0.42589 0.89532 0.0
Zn197 Zn 0.30391 0.41363 0.85904 0.0
O198 O 0.27397 0.40361 0.85702 0.0
O199 O 0.26105 0.41788 0.88484 0.0
O200 O 0.31647 0.40371 0.83243 0.0
O201 O 0.29908 0.45428 0.89114 0.0
O202 O 0.30628 0.44522 0.85923 0.0
C203 C 0.25864 0.40796 0.86823 0.0
C204 C 0.32065 0.397 0.8998 0.0
O205 O 0.32141 0.39858 0.8804 0.0
O206 O 0.30731 0.4066 0.90997 0.0
C207 C 0.31751 0.38429 0.83131 0.0
O208 O 0.30992 0.37335 0.84643 0.0
C209 C 0.30454 0.45891 0.8732 0.0
Zn210 Zn 0.88084 0.79014 0.53428 0.0
Zn211 Zn 0.85696 0.81313 0.56012 0.0
O212 O 0.84668 0.78324 0.56317 0.0
O213 O 0.86302 0.76508 0.53994 0.0
O214 O 0.83711 0.83049 0.57659 0.0
O215 O 0.87474 0.80873 0.51042 0.0
O216 O 0.8564 0.82687 0.53213 0.0
C217 C 0.84985 0.76616 0.55418 0.0
C218 C 0.90249 0.8107 0.56888 0.0
O219 O 0.88502 0.81817 0.57314 0.0
O220 O 0.90442 0.79817 0.55403 0.0
C221 C 0.82017 0.82421 0.58434 0.0
O222 O 0.81489 0.80473 0.58266 0.0
C223 C 0.86388 0.82418 0.5143 0.0
Zn224 Zn 0.89699 0.07245 0.31709 0.0
Zn225 Zn 0.89125 0.11125 0.32725 0.0
O226 O 0.8817 0.11171 0.29725 0.0
O227 O 0.88334 0.07868 0.28997 0.0
O228 O 0.88875 0.14007 0.33758 0.0
O229 O 0.92725 0.07369 0.32206 0.0
O230 O 0.92197 0.10533 0.33268 0.0
C231 C 0.8786 0.0967 0.28495 0.0
C232 C 0.86821 0.0774 0.34946 0.0
O233 O 0.86987 0.09623 0.34496 0.0
O234 O 0.87926 0.06428 0.3406 0.0
C235 C 0.88724 0.14325 0.35678 0.0
O236 O 0.88768 0.12763 0.36932 0.0
C237 C 0.93396 0.09029 0.32991 0.0
Zn238 Zn 0.56852 0.17405 0.04582 0.0
Zn239 Zn 0.60336 0.15335 0.05763 0.0
O240 O 0.60812 0.18099 0.07155 0.0
O241 O 0.58178 0.19874 0.06055 0.0
O242 O 0.63057 0.13905 0.0598 0.0
O243 O 0.5725 0.16968 0.01546 0.0
O244 O 0.5996 0.15338 0.02658 0.0
C245 C 0.59831 0.19765 0.07085 0.0
C246 C 0.5623 0.13745 0.07215 0.0
O247 O 0.58183 0.13611 0.07268 0.0
O248 O 0.5538 0.15149 0.06199 0.0
C249 C 0.6421 0.13649 0.07531 0.0
O250 O 0.63615 0.14298 0.09344 0.0
C251 C 0.58838 0.15937 0.01183 0.0
Zn252 Zn 0.55853 0.88487 0.80654 0.0
Zn253 Zn 0.57414 0.85316 0.82417 0.0
O254 O 0.57612 0.84661 0.79289 0.0
O255 O 0.55863 0.87146 0.77903 0.0
O256 O 0.58498 0.82807 0.83755 0.0
O257 O 0.53351 0.88455 0.82427 0.0
O258 O 0.54563 0.85654 0.8379 0.0
C259 C 0.56907 0.8554 0.77703 0.0
C260 C 0.59744 0.89333 0.82613 0.0
O261 O 0.59545 0.87507 0.83251 0.0
O262 O 0.58406 0.90094 0.81449 0.0
C263 C 0.58532 0.82622 0.85693 0.0
O264 O 0.57812 0.84098 0.86855 0.0
C265 C 0.53165 0.86995 0.83677 0.0
Zn266 Zn 0.8416 0.18619 0.93728 0.0
Zn267 Zn 0.8687 0.16166 0.91636 0.0
O268 O 0.87653 0.15781 0.94648 0.0
O269 O 0.85553 0.17765 0.96372 0.0
O270 O 0.88723 0.14332 0.90005 0.0
O271 O 0.85289 0.21018 0.92082 0.0
O272 O 0.87422 0.18988 0.9045 0.0
C273 C 0.8702 0.16511 0.96346 0.0
C274 C 0.8221 0.15469 0.91201 0.0
O275 O 0.84066 0.15054 0.90779 0.0
O276 O 0.81811 0.16885 0.92477 0.0
C277 C 0.90195 0.13272 0.90679 0.0
O278 O 0.90671 0.13357 0.92636 0.0
C279 C 0.8667 0.20754 0.9074 0.0
Zn280 Zn 0.58208 0.15526 0.66532 0.0
Zn281 Zn 0.58174 0.11927 0.6457 0.0
O282 O 0.55133 0.12691 0.64278 0.0
O283 O 0.55213 0.15764 0.65719 0.0
O284 O 0.58521 0.0908 0.6339 0.0
O285 O 0.58961 0.14333 0.69241 0.0
O286 O 0.59061 0.11408 0.67553 0.0
C287 C 0.54228 0.14337 0.64793 0.0
C288 C 0.60823 0.15537 0.63015 0.0
O289 O 0.60034 0.1375 0.62745 0.0
O290 O 0.60399 0.16558 0.64615 0.0
C291 C 0.572 0.07626 0.63545 0.0
O292 O 0.55385 0.08004 0.64334 0.0
C293 C 0.5927 0.12427 0.69218 0.0
Zn294 Zn 0.63933 0.78002 0.43372 0.0
Zn295 Zn 0.60794 0.79659 0.41098 0.0
O296 O 0.60157 0.80704 0.44001 0.0
O297 O 0.62531 0.79204 0.45861 0.0
O298 O 0.58523 0.80621 0.39265 0.0
O299 O 0.63214 0.75148 0.42406 0.0
O300 O 0.60794 0.76567 0.40551 0.0
C301 C 0.60975 0.80336 0.45731 0.0
C302 C 0.65186 0.8088 0.4018 0.0
O303 O 0.63273 0.81049 0.39844 0.0
O304 O 0.65846 0.79739 0.41588 0.0
C305 C 0.57356 0.82138 0.3955 0.0
O306 O 0.57503 0.83216 0.41256 0.0
C307 C 0.61777 0.7499 0.411 0.0
Zn308 Zn 0.88936 0.81348 0.16691 0.0
Zn309 Zn 0.88749 0.85032 0.15522 0.0
O310 O 0.91789 0.84457 0.14793 0.0
O311 O 0.91719 0.81139 0.15376 0.0
O312 O 0.88268 0.88026 0.14903 0.0
O313 O 0.88781 0.81891 0.19668 0.0
O314 O 0.88155 0.85026 0.18678 0.0
C315 C 0.92673 0.82725 0.14753 0.0
C316 C 0.85934 0.8164 0.13675 0.0
O317 O 0.86796 0.83404 0.13526 0.0
O318 O 0.8641 0.80486 0.15139 0.0
C319 C 0.87453 0.88725 0.13285 0.0
O320 O 0.86975 0.87461 0.11771 0.0
C321 C 0.88326 0.83715 0.20106 0.0
Zn322 Zn 0.82059 0.57004 0.91424 0.0
Zn323 Zn 0.83498 0.57399 0.87526 0.0
O324 O 0.80444 0.58023 0.87269 0.0
O325 O 0.7919 0.57477 0.90354 0.0
O326 O 0.84485 0.5751 0.84635 0.0
O327 O 0.83164 0.54097 0.91538 0.0
O328 O 0.84091 0.54479 0.88319 0.0
C329 C 0.78922 0.5794 0.88492 0.0
C330 C 0.85179 0.60237 0.90813 0.0
O331 O 0.85302 0.5954 0.88996 0.0
O332 O 0.83905 0.59468 0.92072 0.0
C333 C 0.84743 0.5922 0.83752 0.0
O334 O 0.84342 0.60919 0.8476 0.0
C335 C 0.83934 0.53373 0.89908 0.0
Zn336 Zn 0.30386 0.92277 0.0648 0.0
Zn337 Zn 0.32269 0.91348 0.10046 0.0
O338 O 0.29265 0.90656 0.1068 0.0
O339 O 0.27699 0.91279 0.07753 0.0
O340 O 0.33612 0.91022 0.12767 0.0
O341 O 0.31242 0.9526 0.06737 0.0
O342 O 0.32896 0.94385 0.09529 0.0
C343 C 0.2764 0.90688 0.09595 0.0
C344 C 0.33541 0.89145 0.06181 0.0
O345 O 0.33661 0.89288 0.08123 0.0
O346 O 0.32343 0.90276 0.05181 0.0
C347 C 0.33899 0.89305 0.13603 0.0
O348 O 0.33363 0.8761 0.12619 0.0
C349 C 0.32394 0.95741 0.08239 0.0
Zn350 Zn 0.15555 0.05504 0.57133 0.0
Zn351 Zn 0.14486 0.07419 0.60687 0.0
O352 O 0.17602 0.0796 0.60564 0.0
O353 O 0.1854 0.0626 0.57789 0.0
O354 O 0.13709 0.08374 0.6351 0.0
O355 O 0.14328 0.02783 0.58058 0.0
O356 O 0.1354 0.04404 0.60908 0.0
C357 C 0.18991 0.07375 0.59332 0.0
C358 C 0.12761 0.08968 0.56702 0.0
O359 O 0.12863 0.09148 0.58645 0.0
O360 O 0.13735 0.07582 0.55763 0.0
C361 C 0.14811 0.07784 0.65 0.0
O362 O 0.16496 0.06768 0.64615 0.0
C363 C 0.1354 0.02766 0.59831 0.0
Zn364 Zn 0.14892 0.9242 0.83679 0.0
Zn365 Zn 0.13624 0.90269 0.86637 0.0
O366 O 0.13188 0.93292 0.87546 0.0
O367 O 0.15103 0.95002 0.85351 0.0
O368 O 0.12635 0.88723 0.89091 0.0
O369 O 0.17372 0.90692 0.83334 0.0
O370 O 0.16646 0.89347 0.86328 0.0
C371 C 0.14011 0.94974 0.86951 0.0
C372 C 0.11249 0.90169 0.82655 0.0
O373 O 0.11681 0.89261 0.84315 0.0
O374 O 0.12287 0.91733 0.82114 0.0
C375 C 0.12795 0.86798 0.89301 0.0
O376 O 0.13621 0.85707 0.87825 0.0
C377 C 0.17864 0.89562 0.84813 0.0
Zn378 Zn 0.667 0.43304 0.35998 0.0
Zn379 Zn 0.64052 0.40347 0.37269 0.0
O380 O 0.63001 0.43063 0.38466 0.0
O381 O 0.65277 0.45459 0.37676 0.0
O382 O 0.6232 0.38189 0.38682 0.0
O383 O 0.6917 0.41833 0.37096 0.0
O384 O 0.66973 0.39342 0.37837 0.0
C385 C 0.63599 0.44933 0.3852 0.0
C386 C 0.64126 0.41248 0.32792 0.0
O387 O 0.63378 0.40192 0.34254 0.0
O388 O 0.65524 0.42597 0.33141 0.0
C389 C 0.60532 0.38531 0.39379 0.0
O390 O 0.59666 0.40287 0.3899 0.0
C391 C 0.68813 0.40042 0.37746 0.0
Zn392 Zn 0.8083 0.41588 0.57176 0.0
Zn393 Zn 0.82699 0.40733 0.60697 0.0
O394 O 0.7985 0.39275 0.60911 0.0
O395 O 0.78256 0.40095 0.58055 0.0
O396 O 0.83951 0.40088 0.63424 0.0
O397 O 0.8123 0.44598 0.57711 0.0
O398 O 0.8282 0.43911 0.60598 0.0
C399 C 0.78269 0.39179 0.59753 0.0
C400 C 0.84522 0.39237 0.56682 0.0
O401 O 0.84633 0.39358 0.58625 0.0
O402 O 0.83056 0.40044 0.55719 0.0
C403 C 0.84459 0.38247 0.63735 0.0
O404 O 0.84182 0.3688 0.62263 0.0
C405 C 0.82181 0.4521 0.59305 0.0
Zn406 Zn 0.66473 0.55082 0.13216 0.0
Zn407 Zn 0.64251 0.56656 0.10296 0.0
O408 O 0.6416 0.53544 0.09711 0.0
O409 O 0.66577 0.52359 0.1172 0.0
O410 O 0.62882 0.5783 0.07787 0.0
O411 O 0.68742 0.57198 0.12971 0.0
O412 O 0.67122 0.5811 0.10167 0.0
C413 C 0.6523 0.52056 0.10339 0.0
C414 C 0.62543 0.56578 0.14603 0.0
O415 O 0.62403 0.57313 0.12804 0.0
O416 O 0.64075 0.55521 0.15102 0.0
C417 C 0.61781 0.5942 0.0778 0.0
O418 O 0.61373 0.6035 0.09523 0.0
C419 C 0.68671 0.58259 0.11365 0.0
Zn420 Zn 0.61388 0.64717 0.85363 0.0
Zn421 Zn 0.61367 0.63985 0.89442 0.0
O422 O 0.58671 0.62626 0.88433 0.0
O423 O 0.58547 0.63454 0.85163 0.0
O424 O 0.61352 0.63354 0.92473 0.0
O425 O 0.63911 0.63022 0.85018 0.0
O426 O 0.64002 0.62656 0.8837 0.0
C427 C 0.57749 0.62602 0.86711 0.0
C428 C 0.61611 0.6839 0.87842 0.0
O429 O 0.61413 0.67148 0.89329 0.0
O430 O 0.61711 0.67716 0.86019 0.0
C431 C 0.60044 0.64201 0.93639 0.0
O432 O 0.58749 0.655 0.92846 0.0
C433 C 0.64788 0.62357 0.86605 0.0
Zn434 Zn 0.55061 0.33624 0.18092 0.0
Zn435 Zn 0.56868 0.36207 0.15309 0.0
O436 O 0.53822 0.36374 0.14499 0.0
O437 O 0.52331 0.34393 0.16811 0.0
O438 O 0.5848 0.38108 0.13462 0.0
O439 O 0.56224 0.35292 0.20427 0.0
O440 O 0.57691 0.37328 0.18166 0.0
C441 C 0.52206 0.35566 0.1528 0.0
C442 C 0.57929 0.31661 0.15364 0.0
O443 O 0.58057 0.33435 0.14579 0.0
O444 O 0.56788 0.31331 0.16902 0.0
C445 C 0.57804 0.3958 0.12408 0.0
O446 O 0.55822 0.39944 0.12406 0.0
C447 C 0.57353 0.36836 0.20023 0.0
Zn448 Zn 0.86153 0.32806 0.35745 0.0
Zn449 Zn 0.86493 0.33217 0.39842 0.0
O450 O 0.88915 0.34781 0.3859 0.0
O451 O 0.8841 0.34947 0.35261 0.0
O452 O 0.87061 0.33863 0.42799 0.0
O453 O 0.8316 0.33538 0.35998 0.0
O454 O 0.83551 0.34215 0.39299 0.0
C455 C 0.89455 0.35425 0.36839 0.0
C456 C 0.86961 0.29028 0.37946 0.0
O457 O 0.86737 0.30124 0.3955 0.0
O458 O 0.86897 0.29834 0.36185 0.0
C459 C 0.86906 0.32686 0.44332 0.0
O460 O 0.86167 0.30811 0.44089 0.0
C461 C 0.82429 0.34139 0.37693 0.0
Zn462 Zn 0.90556 0.65513 0.66957 0.0
Zn463 Zn 0.89629 0.61828 0.65146 0.0
O464 O 0.92671 0.62173 0.64365 0.0
O465 O 0.93391 0.65244 0.65654 0.0
O466 O 0.88688 0.59097 0.63967 0.0
O467 O 0.89923 0.64329 0.69743 0.0
O468 O 0.89133 0.61401 0.68202 0.0
C469 C 0.93933 0.63667 0.64655 0.0
C470 C 0.87324 0.65758 0.63981 0.0
O471 O 0.87731 0.63871 0.63719 0.0
O472 O 0.88273 0.66805 0.65341 0.0
C473 C 0.88067 0.58941 0.62124 0.0
O474 O 0.88185 0.60556 0.60939 0.0
C475 C 0.89308 0.62479 0.69832 0.0
Zn476 Zn 0.6023 0.35983 0.57338 0.0
Zn477 Zn 0.60658 0.31816 0.57109 0.0
O478 O 0.63447 0.32891 0.58085 0.0
O479 O 0.63184 0.36226 0.58463 0.0
O480 O 0.61184 0.28793 0.57148 0.0
O481 O 0.57799 0.35545 0.59258 0.0
O482 O 0.58259 0.32206 0.59114 0.0
C483 C 0.64242 0.34618 0.58588 0.0
C484 C 0.5964 0.34168 0.53244 0.0
O485 O 0.59987 0.32484 0.5414 0.0
O486 O 0.59684 0.35842 0.54251 0.0
C487 C 0.61428 0.2757 0.55641 0.0
O488 O 0.61187 0.28217 0.53758 0.0
C489 C 0.57281 0.33747 0.59794 0.0
Zn490 Zn 0.91555 0.32339 0.7984 0.0
Zn491 Zn 0.88957 0.37083 0.82254 0.0
O492 O 0.92086 0.36404 0.8273 0.0
O493 O 0.93834 0.33709 0.81504 0.0
O494 O 0.88338 0.39619 0.83863 0.0
O495 O 0.89874 0.34737 0.78683 0.0
O496 O 0.88236 0.37572 0.79212 0.0
C497 C 0.93749 0.35374 0.82553 0.0
C498 C 0.87905 0.33199 0.82513 0.0
O499 O 0.87178 0.34735 0.83432 0.0
O500 O 0.89058 0.33606 0.81014 0.0
C501 C 0.88297 0.39657 0.85811 0.0
O502 O 0.88692 0.3798 0.86828 0.0
C503 C 0.88844 0.36203 0.77968 0.0
Zn504 Zn 0.8664 0.60706 0.06577 0.0
Zn505 Zn 0.86646 0.64826 0.07287 0.0
O506 O 0.83744 0.63758 0.0797 0.0
O507 O 0.83521 0.60527 0.06996 0.0
O508 O 0.8643 0.6791 0.07613 0.0
O509 O 0.88646 0.60481 0.08947 0.0
O510 O 0.88981 0.6385 0.09155 0.0
C511 C 0.82686 0.62114 0.07722 0.0
C512 C 0.88047 0.63151 0.03172 0.0
O513 O 0.87473 0.6463 0.04299 0.0
O514 O 0.87908 0.61322 0.03797 0.0
C515 C 0.84892 0.68757 0.08451 0.0
O516 O 0.83474 0.67613 0.09336 0.0
C517 C 0.89546 0.62066 0.09682 0.0
Zn518 Zn 0.53361 0.62877 0.29679 0.0
Zn519 Zn 0.54726 0.59485 0.31701 0.0
O520 O 0.51727 0.5973 0.32571 0.0
O521 O 0.50529 0.62383 0.30924 0.0
O522 O 0.55566 0.5697 0.33291 0.0
O523 O 0.54232 0.61569 0.27013 0.0
O524 O 0.55231 0.58807 0.28643 0.0
C525 C 0.50258 0.60926 0.32172 0.0
C526 C 0.56649 0.63752 0.32552 0.0
O527 O 0.56542 0.61828 0.32853 0.0
O528 O 0.55457 0.64572 0.31272 0.0
C529 C 0.57001 0.56978 0.34623 0.0
O530 O 0.58113 0.58653 0.34932 0.0
C531 C 0.54993 0.59797 0.26983 0.0
Zn532 Zn 0.66521 0.92213 0.58559 0.0
Zn533 Zn 0.65063 0.89895 0.61654 0.0
O534 O 0.68215 0.8946 0.6179 0.0
O535 O 0.69425 0.91463 0.59353 0.0
O536 O 0.63906 0.88453 0.64122 0.0
O537 O 0.6526 0.94785 0.59704 0.0
O538 O 0.63849 0.92786 0.62033 0.0
C539 C 0.6973 0.90201 0.6078 0.0
C540 C 0.63745 0.88794 0.57345 0.0
O541 O 0.63739 0.88395 0.59249 0.0
O542 O 0.64779 0.90319 0.5668 0.0
C543 C 0.63923 0.86556 0.64554 0.0
O544 O 0.64849 0.85266 0.63321 0.0
C545 C 0.64061 0.94542 0.6121 0.0
Zn546 Zn 0.39392 0.2897 0.03731 0.0
Zn547 Zn 0.36145 0.31134 0.05295 0.0
O548 O 0.35446 0.28174 0.06013 0.0
O549 O 0.37998 0.26369 0.04784 0.0
O550 O 0.33607 0.32606 0.06248 0.0
O551 O 0.38803 0.29941 0.00867 0.0
O552 O 0.36399 0.31848 0.02259 0.0
C553 C 0.36299 0.26457 0.05731 0.0
C554 C 0.40428 0.32065 0.06919 0.0
O555 O 0.38494 0.3233 0.07018 0.0
O556 O 0.41166 0.30794 0.05645 0.0
C557 C 0.33117 0.3258 0.08134 0.0
O558 O 0.34326 0.31659 0.09438 0.0
C559 C 0.3744 0.31289 0.00703 0.0
Zn560 Zn 0.40171 0.57681 0.80404 0.0
Zn561 Zn 0.39517 0.61348 0.82184 0.0
O562 O 0.38534 0.61708 0.79232 0.0
O563 O 0.39496 0.58893 0.77637 0.0
O564 O 0.39142 0.64058 0.83523 0.0
O565 O 0.43057 0.57618 0.81546 0.0
O566 O 0.42541 0.60732 0.82747 0.0
C567 C 0.38676 0.60638 0.77602 0.0
C568 C 0.36898 0.57804 0.83461 0.0
O569 O 0.37453 0.59653 0.83753 0.0
O570 O 0.37769 0.56696 0.82128 0.0
C571 C 0.37521 0.65038 0.83138 0.0
O572 O 0.36198 0.64311 0.81777 0.0
C573 C 0.43711 0.59207 0.82486 0.0
Zn574 Zn 0.08434 0.68926 0.54023 0.0
Zn575 Zn 0.11082 0.66171 0.55528 0.0
O576 O 0.12391 0.69028 0.56228 0.0
O577 O 0.10379 0.71254 0.54753 0.0
O578 O 0.13267 0.64112 0.56252 0.0
O579 O 0.08398 0.6766 0.51186 0.0
O580 O 0.10412 0.65352 0.52541 0.0
C581 C 0.11965 0.70879 0.55806 0.0
C582 C 0.06851 0.66327 0.57384 0.0
O583 O 0.08602 0.6548 0.57327 0.0
O584 O 0.06457 0.67803 0.562 0.0
C585 C 0.14781 0.64383 0.57474 0.0
O586 O 0.14991 0.66133 0.58471 0.0
C587 C 0.09389 0.66019 0.51027 0.0
Zn588 Zn 0.06677 0.39548 0.30601 0.0
Zn589 Zn 0.07522 0.36269 0.32533 0.0
O590 O 0.07759 0.35486 0.29461 0.0
O591 O 0.06412 0.38108 0.27901 0.0
O592 O 0.08038 0.33589 0.33871 0.0
O593 O 0.04192 0.40119 0.32304 0.0
O594 O 0.04651 0.37075 0.33621 0.0
C595 C 0.07196 0.3635 0.27814 0.0
C596 C 0.10565 0.39771 0.32693 0.0
O597 O 0.09952 0.38099 0.33494 0.0
O598 O 0.0948 0.40647 0.31363 0.0
C599 C 0.08302 0.33323 0.35779 0.0
O600 O 0.08215 0.34897 0.37044 0.0
C601 C 0.03579 0.38683 0.33454 0.0
Zn602 Zn 0.33427 0.68975 0.45219 0.0
Zn603 Zn 0.36114 0.67232 0.42534 0.0
O604 O 0.37207 0.66495 0.45381 0.0
O605 O 0.35239 0.68134 0.4757 0.0
O606 O 0.38169 0.65945 0.40644 0.0
O607 O 0.33917 0.7172 0.43899 0.0
O608 O 0.36067 0.70251 0.41746 0.0
C609 C 0.36761 0.67002 0.47212 0.0
C610 C 0.31642 0.65856 0.42453 0.0
O611 O 0.3345 0.65798 0.41721 0.0
O612 O 0.31255 0.67004 0.4398 0.0
C613 C 0.38577 0.64065 0.40896 0.0
O614 O 0.3765 0.6305 0.42371 0.0
C615 C 0.35125 0.7183 0.42384 0.0
Zn616 Zn 0.06906 0.65305 0.16351 0.0
Zn617 Zn 0.08294 0.61605 0.15399 0.0
O618 O 0.05165 0.61353 0.14737 0.0
O619 O 0.04063 0.64451 0.1546 0.0
O620 O 0.09313 0.58719 0.1498 0.0
O621 O 0.07817 0.65083 0.19282 0.0
O622 O 0.08999 0.62045 0.18474 0.0
C623 C 0.03711 0.62641 0.14822 0.0
C624 C 0.0996 0.65406 0.13173 0.0
O625 O 0.09973 0.63462 0.13384 0.0
O626 O 0.08809 0.66504 0.14271 0.0
C627 C 0.09943 0.57879 0.13336 0.0
O628 O 0.0997 0.58931 0.11629 0.0
C629 C 0.08722 0.63465 0.19795 0.0
Zn630 Zn 0.12833 0.29444 0.9238 0.0
Zn631 Zn 0.09598 0.31658 0.90931 0.0
O632 O 0.0912 0.31717 0.94008 0.0
O633 O 0.11738 0.3003 0.95252 0.0
O634 O 0.07174 0.33061 0.89739 0.0
O635 O 0.11851 0.26936 0.90781 0.0
O636 O 0.09465 0.28894 0.89475 0.0
C637 C 0.10102 0.31024 0.95533 0.0
C638 C 0.13913 0.33097 0.8998 0.0
O639 O 0.11989 0.33405 0.89974 0.0
O640 O 0.14638 0.31539 0.90856 0.0
C641 C 0.06333 0.34669 0.90427 0.0
O642 O 0.07041 0.35548 0.92113 0.0
C643 C 0.1038 0.2719 0.89538 0.0
Zn644 Zn 0.39757 0.3095 0.67284 0.0
Zn645 Zn 0.39321 0.34691 0.66001 0.0
O646 O 0.42486 0.34327 0.65683 0.0
O647 O 0.42782 0.31134 0.66682 0.0
O648 O 0.38825 0.37668 0.6529 0.0
O649 O 0.38757 0.3152 0.70092 0.0
O650 O 0.38216 0.34645 0.69018 0.0
C651 C 0.436 0.32772 0.66012 0.0
C652 C 0.37149 0.31057 0.63786 0.0
O653 O 0.37667 0.32953 0.63829 0.0
O654 O 0.37773 0.29875 0.6517 0.0
C655 C 0.37689 0.3827 0.63831 0.0
O656 O 0.3684 0.36909 0.62581 0.0
C657 C 0.38123 0.33309 0.70435 0.0
Zn658 Zn 0.31735 0.05597 0.40833 0.0
Zn659 Zn 0.32881 0.06553 0.37059 0.0
O660 O 0.29873 0.07575 0.37201 0.0
O661 O 0.28937 0.06659 0.40312 0.0
O662 O 0.33834 0.07333 0.34231 0.0
O663 O 0.32449 0.02663 0.40382 0.0
O664 O 0.33398 0.03433 0.37242 0.0
C665 C 0.28536 0.07508 0.38628 0.0
C666 C 0.35006 0.08569 0.40772 0.0
O667 O 0.34878 0.08303 0.38845 0.0
O668 O 0.33827 0.07594 0.41972 0.0
C669 C 0.34169 0.09239 0.33981 0.0
O670 O 0.33727 0.1052 0.35476 0.0
C671 C 0.3318 0.02123 0.38669 0.0
H672 H 0.08787 0.29864 0.33479 0.0
H673 H 0.08784 0.32081 0.39775 0.0
H674 H 0.09473 0.28566 0.40971 0.0
H675 H 0.06253 0.25077 0.34399 0.0
H676 H 0.07753 0.2371 0.3253 0.0
H677 H 0.07286 0.26398 0.32203 0.0
H678 H 0.11221 0.27124 0.31982 0.0
H679 H 0.117 0.24438 0.32312 0.0
H680 H 0.12874 0.26303 0.34028 0.0
H681 H 0.10058 0.24742 0.41448 0.0
H682 H 0.10564 0.20998 0.41157 0.0
H683 H 0.10254 0.2142 0.34529 0.0
C684 C 0.08932 0.29621 0.35112 0.0
C685 C 0.08727 0.31246 0.36535 0.0
C686 C 0.08933 0.30856 0.38657 0.0
C687 C 0.09325 0.28867 0.3935 0.0
C688 C 0.09512 0.27298 0.37898 0.0
C689 C 0.09327 0.27662 0.35823 0.0
C690 C 0.09578 0.2573 0.34565 0.0
C691 C 0.076 0.25198 0.33354 0.0
C692 C 0.11455 0.2591 0.33138 0.0
C693 C 0.09934 0.24212 0.36251 0.0
C694 C 0.09883 0.25134 0.38166 0.0
C695 C 0.10112 0.24009 0.39955 0.0
C696 C 0.10395 0.21886 0.39775 0.0
C697 C 0.10459 0.20923 0.3782 0.0
C698 C 0.10235 0.22112 0.36044 0.0
H699 H 0.01281 0.80004 0.62145 0.0
H700 H 0.01094 0.86512 0.63537 0.0
H701 H 0.97677 0.86688 0.61875 0.0
H702 H -0.01098 0.80407 0.57092 0.0
H703 H 0.97531 0.7799 0.573 0.0
H704 H -0.00047 0.78382 0.58611 0.0
H705 H 0.98209 0.77414 0.62046 0.0
H706 H 0.95779 0.77037 0.60749 0.0
H707 H 0.95983 0.78797 0.6289 0.0
H708 H 0.9417 0.86087 0.60317 0.0
H709 H 0.9101 0.84862 0.58529 0.0
H710 H 0.93622 0.78824 0.57863 0.0
C711 C 0.0052 0.81465 0.62092 0.0
C712 C 0.01434 0.83242 0.62981 0.0
C713 C 0.00414 0.85135 0.6286 0.0
C714 C -0.01528 0.85247 0.61929 0.0
C715 C 0.97598 0.83461 0.61089 0.0
C716 C -0.01394 0.81615 0.61121 0.0
C717 C 0.97358 0.7994 0.60043 0.0
C718 C -0.01495 0.79133 0.58149 0.0
C719 C 0.96799 0.78194 0.61521 0.0
C720 C 0.95474 0.81124 0.59436 0.0
C721 C 0.95632 0.83146 0.60077 0.0
C722 C 0.94039 0.84515 0.59783 0.0
C723 C 0.92249 0.83803 0.5878 0.0
C724 C 0.92086 0.81756 0.58053 0.0
C725 C 0.9372 0.80403 0.58386 0.0
H726 H 0.34447 0.76656 0.84074 0.0
H727 H 0.36768 0.76621 0.90311 0.0
H728 H 0.37251 0.72874 0.90046 0.0
H729 H 0.31735 0.71556 0.84321 0.0
H730 H 0.32368 0.70967 0.81695 0.0
H731 H 0.31983 0.73588 0.8248 0.0
H732 H 0.35592 0.74581 0.8107 0.0
H733 H 0.36 0.71966 0.80306 0.0
H734 H 0.3782 0.73258 0.81987 0.0
H735 H 0.38019 0.69301 0.88885 0.0
H736 H 0.38627 0.6603 0.87056 0.0
H737 H 0.35549 0.68356 0.81677 0.0
C738 C 0.35018 0.75849 0.85396 0.0
C739 C 0.35583 0.7691 0.87208 0.0
C740 C 0.36319 0.7582 0.88914 0.0
C741 C 0.36599 0.73699 0.88776 0.0
C742 C 0.36083 0.72703 0.86941 0.0
C743 C 0.35262 0.73734 0.85298 0.0
C744 C 0.34921 0.7233 0.83468 0.0
C745 C 0.32614 0.72097 0.82962 0.0
C746 C 0.36157 0.73079 0.81599 0.0
C747 C 0.35766 0.70368 0.84305 0.0
C748 C 0.36428 0.70612 0.8631 0.0
C749 C 0.37458 0.69072 0.87335 0.0
C750 C 0.3781 0.67232 0.86282 0.0
C751 C 0.37111 0.66951 0.84242 0.0
C752 C 0.36056 0.68526 0.83253 0.0
H753 H 0.453 0.11246 0.11268 0.0
H754 H 0.48156 0.11308 0.1726 0.0
H755 H 0.51547 0.10714 0.15675 0.0
H756 H 0.49207 0.07688 0.08532 0.0
H757 H 0.49088 0.0924 0.06265 0.0
H758 H 0.46832 0.08893 0.07843 0.0
H759 H 0.46523 0.12833 0.08195 0.0
H760 H 0.48762 0.13188 0.06632 0.0
H761 H 0.48688 0.14326 0.09159 0.0
H762 H 0.54639 0.1089 0.135 0.0
H763 H 0.57145 0.12246 0.10991 0.0
H764 H 0.52335 0.12388 0.06389 0.0
C765 C 0.46632 0.11024 0.12237 0.0
C766 C 0.46484 0.11266 0.14376 0.0
C767 C 0.48254 0.11083 0.15615 0.0
C768 C 0.50178 0.10731 0.14728 0.0
C769 C 0.50306 0.10593 0.12597 0.0
C770 C 0.48574 0.10736 0.11363 0.0
C771 C 0.49164 0.11002 0.09135 0.0
C772 C 0.48536 0.09092 0.07869 0.0
C773 C 0.48231 0.12953 0.08231 0.0
C774 C 0.51484 0.11187 0.09337 0.0
C775 C 0.5212 0.10831 0.11325 0.0
C776 C 0.54168 0.11125 0.11929 0.0
C777 C 0.55583 0.11896 0.10495 0.0
C778 C 0.54921 0.1242 0.08507 0.0
C779 C 0.52873 0.11979 0.07901 0.0
H780 H 0.08675 0.66698 0.09507 0.0
H781 H 0.13906 0.66761 0.13604 0.0
H782 H 0.15329 0.6982 0.11873 0.0
H783 H 0.11542 0.69302 0.04815 0.0
H784 H 0.09226 0.70667 0.04246 0.0
H785 H 0.0906 0.68094 0.05227 0.0
H786 H 0.06723 0.69389 0.08149 0.0
H787 H 0.06929 0.71963 0.07236 0.0
H788 H 0.07659 0.71408 0.09836 0.0
H789 H 0.15547 0.73362 0.10561 0.0
H790 H 0.14753 0.76882 0.0951 0.0
H791 H 0.09385 0.74575 0.06198 0.0
C792 C 0.10198 0.67271 0.09923 0.0
C793 C 0.11219 0.6647 0.11637 0.0
C794 C 0.13145 0.67315 0.12244 0.0
C795 C 0.13954 0.69064 0.11275 0.0
C796 C 0.12823 0.6993 0.09691 0.0
C797 C 0.11012 0.69022 0.08971 0.0
C798 C 0.09898 0.70432 0.07522 0.0
C799 C 0.09935 0.69572 0.05322 0.0
C800 C 0.07674 0.70821 0.08231 0.0
C801 C 0.11241 0.72346 0.07713 0.0
C802 C 0.12954 0.72011 0.08921 0.0
C803 C 0.14254 0.73623 0.09554 0.0
C804 C 0.1378 0.75624 0.08966 0.0
C805 C 0.12012 0.76 0.07763 0.0
C806 C 0.10769 0.74329 0.07083 0.0
H807 H 0.46885 0.86365 0.34996 0.0
H808 H 0.48455 0.832 0.29349 0.0
H809 H 0.51906 0.82519 0.30723 0.0
H810 H 0.52246 0.88511 0.3613 0.0
H811 H 0.51936 0.88104 0.38841 0.0
H812 H 0.49735 0.88697 0.37282 0.0
H813 H 0.47865 0.85412 0.38562 0.0
H814 H 0.50064 0.84792 0.40099 0.0
H815 H 0.49075 0.82966 0.38235 0.0
H816 H 0.54902 0.81681 0.32847 0.0
H817 H 0.57402 0.80902 0.35554 0.0
H818 H 0.53974 0.84608 0.39875 0.0
C819 C 0.47986 0.856 0.34023 0.0
C820 C 0.47411 0.84847 0.32061 0.0
C821 C 0.48868 0.83795 0.30853 0.0
C822 C 0.50834 0.83406 0.31618 0.0
C823 C 0.51325 0.84087 0.3359 0.0
C824 C 0.49959 0.85186 0.34772 0.0
C825 C 0.50807 0.85554 0.36917 0.0
C826 C 0.51205 0.87853 0.37315 0.0
C827 C 0.49367 0.84625 0.38548 0.0
C828 C 0.52812 0.84407 0.36778 0.0
C829 C 0.53087 0.83598 0.34835 0.0
C830 C 0.5473 0.82341 0.34363 0.0
C831 C 0.56133 0.81894 0.35918 0.0
C832 C 0.55888 0.827 0.37924 0.0
C833 C 0.54217 0.83994 0.38349 0.0
H834 H 0.33542 0.20829 0.5916 0.0
H835 H 0.36594 0.22749 0.53581 0.0
H836 H 0.36437 0.26357 0.54735 0.0
H837 H 0.30364 0.25749 0.59908 0.0
H838 H 0.30712 0.25589 0.62643 0.0
H839 H 0.30485 0.23279 0.61111 0.0
H840 H 0.33952 0.22039 0.62578 0.0
H841 H 0.34183 0.24323 0.64106 0.0
H842 H 0.36218 0.23664 0.62356 0.0
H843 H 0.36746 0.29574 0.56847 0.0
H844 H 0.37625 0.31941 0.59716 0.0
H845 H 0.34362 0.27946 0.63907 0.0
C846 C 0.34108 0.22017 0.58148 0.0
C847 C 0.35087 0.2151 0.56289 0.0
C848 C 0.35827 0.23101 0.5501 0.0
C849 C 0.35733 0.2516 0.55649 0.0
C850 C 0.34854 0.25605 0.57549 0.0
C851 C 0.34021 0.24071 0.58764 0.0
C852 C 0.33466 0.24879 0.60867 0.0
C853 C 0.31117 0.24874 0.61148 0.0
C854 C 0.3452 0.23655 0.62574 0.0
C855 C 0.34323 0.27046 0.60728 0.0
C856 C 0.35033 0.27473 0.58776 0.0
C857 C 0.3614 0.29281 0.58362 0.0
C858 C 0.36628 0.30624 0.59999 0.0
C859 C 0.36048 0.30119 0.62022 0.0
C860 C 0.3479 0.28372 0.62363 0.0
H861 H 0.00695 0.0953 0.86171 0.0
H862 H 0.97616 0.09293 0.80269 0.0
H863 H 0.94254 0.0947 0.81991 0.0
H864 H 0.96343 0.06798 0.89217 0.0
H865 H 0.9682 0.08473 0.91386 0.0
H866 H -0.01076 0.07719 0.89761 0.0
H867 H -0.00126 0.11543 0.89192 0.0
H868 H 0.97766 0.12311 0.90778 0.0
H869 H 0.97957 0.1323 0.88187 0.0
H870 H 0.91384 0.10503 0.84197 0.0
H871 H 0.89167 0.12142 0.86766 0.0
H872 H 0.94046 0.11736 0.9129 0.0
C873 C -0.00693 0.09409 0.85252 0.0
C874 C -0.00589 0.09384 0.8309 0.0
C875 C 0.97568 0.09301 0.81929 0.0
C876 C 0.9565 0.09393 0.82895 0.0
C877 C 0.95599 0.09549 0.85024 0.0
C878 C 0.97377 0.09519 0.86197 0.0
C879 C 0.96924 0.10017 0.88425 0.0
C880 C 0.97273 0.0814 0.89777 0.0
C881 C 0.98206 0.11886 0.89187 0.0
C882 C 0.94655 0.10495 0.88285 0.0
C883 C 0.9391 0.1016 0.86321 0.0
C884 C 0.9193 0.10715 0.85754 0.0
C885 C 0.90688 0.11662 0.8722 0.0
C886 C 0.91434 0.12059 0.89229 0.0
C887 C 0.93423 0.11417 0.89777 0.0
H888 H 0.37732 0.09521 0.22242 0.0
H889 H 0.4119 0.15077 0.23865 0.0
H890 H 0.40105 0.14722 0.27442 0.0
H891 H 0.33467 0.10409 0.25503 0.0
H892 H 0.33102 0.07772 0.2624 0.0
H893 H 0.34223 0.08374 0.23791 0.0
H894 H 0.37416 0.06232 0.24674 0.0
H895 H 0.36301 0.0561 0.27123 0.0
H896 H 0.38832 0.06785 0.27 0.0
H897 H 0.38467 0.13973 0.30751 0.0
H898 H 0.36552 0.12683 0.3374 0.0
H899 H 0.3425 0.07514 0.3011 0.0
C900 C 0.38277 0.10649 0.23354 0.0
C901 C 0.3954 0.1233 0.22763 0.0
C902 C 0.40216 0.13777 0.24269 0.0
C903 C 0.3961 0.13592 0.26311 0.0
C904 C 0.38339 0.11944 0.26835 0.0
C905 C 0.37695 0.10482 0.25416 0.0
C906 C 0.36304 0.08881 0.26404 0.0
C907 C 0.34146 0.08859 0.25426 0.0
C908 C 0.37272 0.06751 0.26294 0.0
C909 C 0.36252 0.09695 0.28589 0.0
C910 C 0.37432 0.1147 0.28791 0.0
C911 C 0.37555 0.12572 0.30624 0.0
C912 C 0.36451 0.11834 0.32308 0.0
C913 C 0.3526 0.09999 0.32154 0.0
C914 C 0.35167 0.08911 0.30271 0.0
H915 H 0.13123 0.16092 0.47376 0.0
H916 H 0.07551 0.12895 0.45367 0.0
H917 H 0.06968 0.11674 0.48883 0.0
H918 H 0.1495 0.12332 0.50205 0.0
H919 H 0.1604 0.13881 0.52253 0.0
H920 H 0.1571 0.14964 0.49763 0.0
H921 H 0.13551 0.17873 0.51353 0.0
H922 H 0.13865 0.16779 0.53861 0.0
H923 H 0.11321 0.1724 0.52879 0.0
H924 H 0.07374 0.10199 0.52318 0.0
H925 H 0.08864 0.08436 0.55293 0.0
H926 H 0.14166 0.12538 0.55144 0.0
C927 C 0.1174 0.15199 0.47696 0.0
C928 C 0.10379 0.14595 0.46103 0.0
C929 C 0.08615 0.13378 0.46566 0.0
C930 C 0.0826 0.12694 0.48565 0.0
C931 C 0.09673 0.1325 0.50092 0.0
C932 C 0.11376 0.14487 0.49684 0.0
C933 C 0.12834 0.14586 0.515 0.0
C934 C 0.15009 0.13897 0.50893 0.0
C935 C 0.12895 0.16748 0.52455 0.0
C936 C 0.11779 0.1307 0.52917 0.0
C937 C 0.09914 0.12381 0.52112 0.0
C938 C 0.08793 0.10774 0.53001 0.0
C939 C 0.09643 0.09784 0.54693 0.0
C940 C 0.1159 0.10404 0.55467 0.0
C941 C 0.12633 0.12108 0.54621 0.0
H942 H 0.10674 0.86206 0.81375 0.0
H943 H 0.08395 0.9235 0.80654 0.0
H944 H 0.06325 0.91198 0.77677 0.0
H945 H 0.11658 0.85387 0.76473 0.0
H946 H 0.1092 0.82714 0.76284 0.0
H947 H 0.11702 0.83789 0.78712 0.0
H948 H 0.08257 0.82597 0.80343 0.0
H949 H 0.07472 0.8148 0.77919 0.0
H950 H 0.05855 0.83313 0.79187 0.0
H951 H 0.05283 0.89708 0.74394 0.0
H952 H 0.05149 0.87892 0.71066 0.0
H953 H 0.08034 0.82637 0.73793 0.0
C954 C 0.09648 0.8727 0.8065 0.0
C955 C 0.09656 0.89354 0.8125 0.0
C956 C 0.08381 0.90742 0.80221 0.0
C957 C 0.07196 0.90098 0.78535 0.0
C958 C 0.07308 0.8806 0.77897 0.0
C959 C 0.08477 0.86651 0.78935 0.0
C960 C 0.08602 0.84654 0.77732 0.0
C961 C 0.10853 0.84107 0.77273 0.0
C962 C 0.07479 0.82908 0.78863 0.0
C963 C 0.07456 0.85218 0.75797 0.0
C964 C 0.06683 0.87175 0.75949 0.0
C965 C 0.05818 0.88151 0.74275 0.0
C966 C 0.05765 0.87118 0.72388 0.0
C967 C 0.06562 0.85125 0.72192 0.0
C968 C 0.07367 0.84141 0.73927 0.0
H969 H 0.36703 0.8559 0.95464 0.0
H970 H 0.34797 0.79455 0.97207 0.0
H971 H 0.3496 0.80499 0.00871 0.0
H972 H 0.40106 0.86669 0.00157 0.0
H973 H 0.39347 0.89311 0.00185 0.0
H974 H 0.39559 0.87941 0.97783 0.0
H975 H 0.35789 0.88839 0.9688 0.0
H976 H 0.35571 0.90216 -0.00746 0.0
H977 H 0.33759 0.88169 -0.01352 0.0
H978 H 0.34632 0.82419 0.04232 0.0
H979 H 0.33656 0.85016 0.06835 0.0
H980 H 0.35859 0.89842 0.0286 0.0
C981 C 0.36363 0.84455 0.96621 0.0
C982 C 0.35714 0.82455 0.96067 0.0
C983 C 0.35296 0.81 0.97612 0.0
C984 C 0.35403 0.81576 -0.00307 0.0
C985 C 0.35991 0.83592 0.00191 0.0
C986 C 0.36494 0.84997 -0.01311 0.0
C987 C 0.36818 0.87126 -0.00431 0.0
C988 C 0.39093 0.87801 -0.00586 0.0
C989 C 0.35399 0.88676 0.98527 0.0
C990 C 0.36217 0.8675 0.01768 0.0
C991 C 0.35826 0.84691 0.02129 0.0
C992 C 0.34992 0.84023 0.03985 0.0
C993 C 0.34449 0.85504 0.05458 0.0
C994 C 0.34708 0.87612 0.05034 0.0
C995 C 0.3569 0.8823 0.03219 0.0
H996 H 0.38718 0.84121 0.23452 0.0
H997 H 0.38874 0.90139 0.26358 0.0
H998 H 0.37352 0.91616 0.23237 0.0
H999 H 0.40029 0.85739 0.18407 0.0
H1000 H 0.38322 0.83906 0.17157 0.0
H1001 H 0.39415 0.83333 0.19619 0.0
H1002 H 0.35754 0.82707 0.21091 0.0
H1003 H 0.34649 0.83276 0.18632 0.0
H1004 H 0.33864 0.84683 0.20879 0.0
H1005 H 0.35901 0.92433 0.19771 0.0
H1006 H 0.34506 0.92528 0.16256 0.0
H1007 H 0.35228 0.85943 0.15679 0.0
C1008 C 0.38441 0.85752 0.23435 0.0
C1009 C 0.38927 0.87019 0.25142 0.0
C1010 C 0.38518 0.89141 0.25064 0.0
C1011 C 0.37655 0.89993 0.23301 0.0
C1012 C 0.37201 0.88696 0.21644 0.0
C1013 C 0.37569 0.8662 0.21702 0.0
C1014 C 0.36927 0.85554 0.19727 0.0
C1015 C 0.38784 0.84576 0.18665 0.0
C1016 C 0.35195 0.83961 0.20106 0.0
C1017 C 0.36153 0.87359 0.18536 0.0
C1018 C 0.36329 0.89158 0.19666 0.0
C1019 C 0.35748 0.91034 0.18874 0.0
C1020 C 0.34964 0.9107 0.16874 0.0
C1021 C 0.34757 0.89241 0.15695 0.0
C1022 C 0.35358 0.87364 0.16545 0.0
H1023 H 0.3591 0.15028 0.50165 0.0
H1024 H 0.41338 0.11464 0.51278 0.0
H1025 H 0.41816 0.10993 0.47567 0.0
H1026 H 0.33734 0.1196 0.47074 0.0
H1027 H 0.32625 0.13712 0.45275 0.0
H1028 H 0.33228 0.14575 0.47813 0.0
H1029 H 0.3551 0.17504 0.46341 0.0
H1030 H 0.34913 0.16627 0.43773 0.0
H1031 H 0.37558 0.16918 0.44584 0.0
H1032 H 0.411 0.09922 0.44087 0.0
H1033 H 0.39103 0.08128 0.41374 0.0
H1034 H 0.34045 0.12212 0.4237 0.0
C1035 C 0.37255 0.14245 0.49605 0.0
C1036 C 0.3859 0.13288 0.50985 0.0
C1037 C 0.403 0.1221 0.50232 0.0
C1038 C 0.40596 0.11958 0.48123 0.0
C1039 C 0.39164 0.12785 0.46784 0.0
C1040 C 0.37531 0.13933 0.47497 0.0
C1041 C 0.3594 0.14221 0.45829 0.0
C1042 C 0.33758 0.13574 0.46541 0.0
C1043 C 0.35984 0.1645 0.45088 0.0
C1044 C 0.36769 0.12797 0.44192 0.0
C1045 C 0.38704 0.12103 0.44709 0.0
C1046 C 0.39624 0.10506 0.43624 0.0
C1047 C 0.38485 0.09493 0.42081 0.0
C1048 C 0.3645 0.10073 0.41666 0.0
C1049 C 0.35632 0.11808 0.42639 0.0
H1050 H 0.06334 0.09089 0.73617 0.0
H1051 H 0.11061 0.08056 0.78182 0.0
H1052 H 0.1359 0.07471 0.7541 0.0
H1053 H 0.08161 0.05353 0.69782 0.0
H1054 H 0.0747 0.06989 0.6769 0.0
H1055 H 0.06023 0.07057 0.70041 0.0
H1056 H 0.06719 0.10978 0.70307 0.0
H1057 H 0.0821 0.10916 0.67988 0.0
H1058 H 0.09339 0.11946 0.70314 0.0
H1059 H 0.15654 0.07296 0.72095 0.0
H1060 H 0.17006 0.07303 0.6855 0.0
H1061 H 0.10898 0.08595 0.66247 0.0
C1062 C 0.07889 0.08695 0.7404 0.0
C1063 C 0.08501 0.08616 0.76114 0.0
C1064 C 0.10554 0.08104 0.76601 0.0
C1065 C 0.12002 0.07782 0.75038 0.0
C1066 C 0.11362 0.07963 0.73005 0.0
C1067 C 0.09344 0.08377 0.72509 0.0
C1068 C 0.0905 0.0859 0.70224 0.0
C1069 C 0.0759 0.06896 0.69385 0.0
C1070 C 0.08285 0.10735 0.69678 0.0
C1071 C 0.11231 0.08285 0.69505 0.0
C1072 C 0.12543 0.07906 0.71123 0.0
C1073 C 0.14635 0.07578 0.70818 0.0
C1074 C 0.1539 0.07595 0.68802 0.0
C1075 C 0.14058 0.0796 0.67126 0.0
C1076 C 0.1196 0.08333 0.67495 0.0
H1077 H 0.09645 0.87226 0.00979 0.0
H1078 H 0.11895 0.81036 0.01571 0.0
H1079 H 0.12344 0.80827 0.97813 0.0
H1080 H 0.06938 0.86408 0.96038 0.0
H1081 H 0.07652 0.88932 0.95156 0.0
H1082 H 0.07278 0.88488 0.97853 0.0
H1083 H 0.10952 0.89938 0.98607 0.0
H1084 H 0.11336 0.90386 0.95921 0.0
H1085 H 0.13123 0.88837 0.97311 0.0
H1086 H 0.12868 0.81443 0.94016 0.0
H1087 H 0.13477 0.82855 0.90558 0.0
H1088 H 0.10862 0.8862 0.92524 0.0
C1089 C 0.10201 0.85811 0.00321 0.0
C1090 C 0.10736 0.84148 0.0157 0.0
C1091 C 0.11472 0.82331 0.00644 0.0
C1092 C 0.11725 0.82194 0.9851 0.0
C1093 C 0.11216 0.8388 0.97327 0.0
C1094 C 0.10458 0.85648 0.98204 0.0
C1095 C 0.10161 0.87299 0.96628 0.0
C1096 C 0.07871 0.87811 0.96405 0.0
C1097 C 0.11472 0.89227 0.97148 0.0
C1098 C 0.10948 0.86215 0.94738 0.0
C1099 C 0.11519 0.84233 0.95157 0.0
C1100 C 0.12401 0.82984 0.93665 0.0
C1101 C 0.12743 0.83799 0.91707 0.0
C1102 C 0.12222 0.85849 0.91273 0.0
C1103 C 0.11273 0.87046 0.92802 0.0
H1104 H 0.30038 0.34178 0.05779 0.0
H1105 H 0.31763 0.33012 0.12087 0.0
H1106 H 0.28461 0.34423 0.13261 0.0
H1107 H 0.27505 0.38932 0.06668 0.0
H1108 H 0.25496 0.38406 0.04815 0.0
H1109 H 0.27995 0.37303 0.04481 0.0
H1110 H 0.26309 0.33673 0.04296 0.0
H1111 H 0.23804 0.34763 0.04634 0.0
H1112 H 0.24672 0.32817 0.06358 0.0
H1113 H 0.24907 0.35889 0.13737 0.0
H1114 H 0.21456 0.37418 0.13472 0.0
H1115 H 0.22123 0.37683 0.06863 0.0
C1116 C 0.2973 0.34229 0.07409 0.0
C1117 C 0.31164 0.33487 0.08841 0.0
C1118 C 0.3069 0.3357 0.10959 0.0
C1119 C 0.28816 0.34367 0.11642 0.0
C1120 C 0.27431 0.35072 0.10188 0.0
C1121 C 0.27868 0.35014 0.08116 0.0
C1122 C 0.26114 0.35851 0.06865 0.0
C1123 C 0.2682 0.37735 0.05635 0.0
C1124 C 0.25169 0.34176 0.05455 0.0
C1125 C 0.24639 0.36429 0.08558 0.0
C1126 C 0.25412 0.35945 0.10464 0.0
C1127 C 0.24292 0.36285 0.12253 0.0
C1128 C 0.22334 0.3715 0.12088 0.0
C1129 C 0.21531 0.37689 0.10151 0.0
C1130 C 0.22707 0.37318 0.08369 0.0
H1131 H 0.71023 0.10532 0.90041 0.0
H1132 H 0.73143 0.07355 0.8461 0.0
H1133 H 0.76451 0.09331 0.8479 0.0
H1134 H 0.73634 0.15596 0.88888 0.0
H1135 H 0.74154 0.16064 0.91568 0.0
H1136 H 0.7188 0.14624 0.908 0.0
H1137 H 0.72989 0.11641 0.93122 0.0
H1138 H 0.75283 0.13044 0.93867 0.0
H1139 H 0.75479 0.10518 0.92748 0.0
H1140 H 0.79681 0.11228 0.8593 0.0
H1141 H 0.82479 0.13157 0.87698 0.0
H1142 H 0.78148 0.15203 0.92308 0.0
C1143 C 0.72168 0.10303 0.88858 0.0
C1144 C 0.71857 0.08815 0.87309 0.0
C1145 C 0.73369 0.08515 0.85792 0.0
C1146 C 0.75243 0.09625 0.85888 0.0
C1147 C 0.75536 0.11045 0.87484 0.0
C1148 C 0.74017 0.11419 0.88914 0.0
C1149 C 0.74745 0.12924 0.90549 0.0
C1150 C 0.73531 0.14921 0.90444 0.0
C1151 C 0.74617 0.11974 0.92697 0.0
C1152 C 0.76951 0.1326 0.89884 0.0
C1153 C 0.77375 0.12176 0.88106 0.0
C1154 C 0.79355 0.12118 0.87295 0.0
C1155 C 0.80936 0.13204 0.88321 0.0
C1156 C 0.80526 0.14337 0.90136 0.0
C1157 C 0.78502 0.14375 0.9091 0.0
H1158 H 0.14423 0.47463 0.08743 0.0
H1159 H 0.13701 0.44851 0.14801 0.0
H1160 H 0.12421 0.48161 0.16093 0.0
H1161 H 0.16071 0.52555 0.10364 0.0
H1162 H 0.1465 0.53811 0.08376 0.0
H1163 H 0.15586 0.51261 0.07952 0.0
H1164 H 0.11884 0.49987 0.07068 0.0
H1165 H 0.10935 0.5253 0.07497 0.0
H1166 H 0.09838 0.50397 0.08881 0.0
H1167 H 0.11169 0.51733 0.16711 0.0
H1168 H 0.10006 0.55304 0.1662 0.0
H1169 H 0.11473 0.55577 0.10135 0.0
C1170 C 0.14017 0.47591 0.10348 0.0
C1171 C 0.14175 0.45898 0.11675 0.0
C1172 C 0.13598 0.46125 0.13757 0.0
C1173 C 0.1287 0.48 0.14505 0.0
C1174 C 0.12717 0.49629 0.1315 0.0
C1175 C 0.13271 0.49444 0.11115 0.0
C1176 C 0.12896 0.51411 0.09965 0.0
C1177 C 0.14921 0.52313 0.09115 0.0
C1178 C 0.11293 0.5106 0.08252 0.0
C1179 C 0.12053 0.52738 0.11675 0.0
C1180 C 0.11965 0.5168 0.13499 0.0
C1181 C 0.11232 0.52577 0.15292 0.0
C1182 C 0.10574 0.54609 0.15223 0.0
C1183 C 0.10646 0.55728 0.1337 0.0
C1184 C 0.11397 0.54769 0.11575 0.0
H1185 H 0.66538 0.84682 0.41107 0.0
H1186 H 0.6714 0.79764 0.36671 0.0
H1187 H 0.69934 0.81722 0.34921 0.0
H1188 H 0.67881 0.89062 0.37621 0.0
H1189 H 0.69289 0.9037 0.39642 0.0
H1190 H 0.67085 0.8877 0.40249 0.0
H1191 H 0.69333 0.8669 0.42746 0.0
H1192 H 0.71535 0.88271 0.4214 0.0
H1193 H 0.7165 0.8553 0.41807 0.0
H1194 H 0.73027 0.83993 0.34037 0.0
H1195 H 0.76102 0.86322 0.34149 0.0
H1196 H 0.73349 0.89691 0.39174 0.0
C1197 C 0.67222 0.84057 0.39729 0.0
C1198 C 0.66645 0.82104 0.38997 0.0
C1199 C 0.6758 0.8128 0.37227 0.0
C1200 C 0.69151 0.82382 0.36225 0.0
C1201 C 0.6974 0.84299 0.37018 0.0
C1202 C 0.68785 0.85133 0.38723 0.0
C1203 C 0.69852 0.87079 0.39444 0.0
C1204 C 0.68442 0.88929 0.39224 0.0
C1205 C 0.70639 0.86878 0.41664 0.0
C1206 C 0.71603 0.8717 0.37935 0.0
C1207 C 0.7151 0.85583 0.36521 0.0
C1208 C 0.73094 0.85267 0.35111 0.0
C1209 C 0.74833 0.86588 0.35186 0.0
C1210 C 0.74963 0.88169 0.3668 0.0
C1211 C 0.73298 0.88489 0.38018 0.0
H1212 H 0.85746 0.90768 0.10046 0.0
H1213 H 0.87835 0.91635 0.16327 0.0
H1214 H 0.86694 0.95218 0.16257 0.0
H1215 H 0.87287 0.95807 0.08286 0.0
H1216 H 0.8509 0.96039 0.06619 0.0
H1217 H 0.86084 0.93546 0.07168 0.0
H1218 H 0.82476 0.92363 0.08431 0.0
H1219 H 0.81476 0.9486 0.07904 0.0
H1220 H 0.81225 0.93797 0.10433 0.0
H1221 H 0.85271 -0.01293 0.15521 0.0
H1222 H 0.83865 0.01888 0.14098 0.0
H1223 H 0.82723 -0.01265 0.08302 0.0
C1224 C 0.85974 0.91712 0.11405 0.0
C1225 C 0.8688 0.90914 0.13193 0.0
C1226 C 0.87149 0.92207 0.14937 0.0
C1227 C 0.86499 0.94245 0.14915 0.0
C1228 C 0.85588 0.94974 0.13137 0.0
C1229 C 0.8534 0.93752 0.11409 0.0
C1230 C 0.84338 0.94917 0.09687 0.0
C1231 C 0.85787 0.95087 0.07831 0.0
C1232 C 0.82255 0.93925 0.09079 0.0
C1233 C 0.84057 0.96981 0.1072 0.0
C1234 C 0.8478 0.96982 0.12712 0.0
C1235 C 0.84701 -0.01275 0.13962 0.0
C1236 C 0.83894 0.00523 0.13142 0.0
C1237 C 0.83181 0.00567 0.11089 0.0
C1238 C 0.83247 -0.01242 0.09879 0.0
H1239 H 0.18404 0.64552 0.59691 0.0
H1240 H 0.14775 0.60608 0.55613 0.0
H1241 H 0.17518 0.58052 0.55662 0.0
H1242 H 0.23211 0.63606 0.57452 0.0
H1243 H 0.2464 0.63614 0.59823 0.0
H1244 H 0.22322 0.65067 0.59625 0.0
H1245 H 0.20795 0.63163 0.62755 0.0
H1246 H 0.23115 0.61707 0.62967 0.0
H1247 H 0.20654 0.60401 0.62733 0.0
H1248 H 0.2076 0.56073 0.55878 0.0
H1249 H 0.24258 0.5474 0.5635 0.0
H1250 H 0.25778 0.59892 0.60368 0.0
C1251 C 0.1817 0.63137 0.58834 0.0
C1252 C 0.16368 0.62785 0.57647 0.0
C1253 C 0.16137 0.60918 0.56534 0.0
C1254 C 0.17686 0.59452 0.56554 0.0
C1255 C 0.19456 0.59863 0.57708 0.0
C1256 C 0.19703 0.6165 0.58842 0.0
C1257 C 0.21798 0.61749 0.59877 0.0
C1258 C 0.23067 0.63619 0.5915 0.0
C1259 C 0.21577 0.61755 0.62223 0.0
C1260 C 0.22705 0.5976 0.59107 0.0
C1261 C 0.21323 0.58694 0.57864 0.0
C1262 C 0.21846 0.56877 0.56872 0.0
C1263 C 0.23839 0.56136 0.57145 0.0
C1264 C 0.25286 0.572 0.58409 0.0
C1265 C 0.24695 0.59024 0.59422 0.0
H1266 H 0.1156 0.4108 0.36521 0.0
H1267 H 0.13693 0.40955 0.30252 0.0
H1268 H 0.16147 0.43779 0.31013 0.0
H1269 H 0.11 0.45873 0.36853 0.0
H1270 H 0.11848 0.46402 0.3944 0.0
H1271 H 0.1093 0.43882 0.38753 0.0
H1272 H 0.14339 0.42295 0.39952 0.0
H1273 H 0.1526 0.44814 0.40718 0.0
H1274 H 0.16759 0.43277 0.38987 0.0
H1275 H 0.17256 0.4723 0.31985 0.0
H1276 H 0.17431 0.50788 0.33325 0.0
H1277 H 0.14742 0.48752 0.3904 0.0
C1278 C 0.12654 0.41562 0.35363 0.0
C1279 C 0.12478 0.40803 0.33345 0.0
C1280 C 0.13843 0.41513 0.31816 0.0
C1281 C 0.1524 0.43116 0.32237 0.0
C1282 C 0.1525 0.43982 0.34197 0.0
C1283 C 0.1404 0.4319 0.35763 0.0
C1284 C 0.14031 0.44633 0.37596 0.0
C1285 C 0.11822 0.45233 0.38191 0.0
C1286 C 0.15166 0.43699 0.39421 0.0
C1287 C 0.15236 0.46435 0.36734 0.0
C1288 C 0.15964 0.46015 0.34789 0.0
C1289 C 0.16781 0.47555 0.33541 0.0
C1290 C 0.1685 0.49572 0.34298 0.0
C1291 C 0.16126 0.50017 0.36287 0.0
C1292 C 0.15361 0.48425 0.37534 0.0
H1293 H 0.36724 0.56044 0.87183 0.0
H1294 H 0.33103 0.57571 0.81872 0.0
H1295 H 0.30426 0.55065 0.82881 0.0
H1296 H 0.36484 0.51342 0.86834 0.0
H1297 H 0.36135 0.50516 0.89441 0.0
H1298 H 0.37284 0.52976 0.88948 0.0
H1299 H 0.34532 0.54789 0.91123 0.0
H1300 H 0.33404 0.52317 0.91712 0.0
H1301 H 0.31838 0.54284 0.90626 0.0
H1302 H 0.29101 0.51658 0.83498 0.0
H1303 H 0.28663 0.4797 0.84244 0.0
H1304 H 0.32902 0.48622 0.89347 0.0
C1305 C 0.35292 0.55938 0.86333 0.0
C1306 C 0.35079 0.56983 0.84476 0.0
C1307 C 0.33252 0.56785 0.83319 0.0
C1308 C 0.31727 0.5537 0.83885 0.0
C1309 C 0.32057 0.54197 0.85623 0.0
C1310 C 0.33751 0.54527 0.86895 0.0
C1311 C 0.33934 0.52824 0.88443 0.0
C1312 C 0.36085 0.51859 0.8841 0.0
C1313 C 0.33394 0.536 0.90604 0.0
C1314 C 0.32289 0.51355 0.87639 0.0
C1315 C 0.31186 0.52199 0.86049 0.0
C1316 C 0.29874 0.5101 0.84804 0.0
C1317 C 0.29666 0.48916 0.85207 0.0
C1318 C 0.30749 0.48052 0.86849 0.0
C1319 C 0.32037 0.49285 0.88105 0.0
H1320 H 0.85496 0.69438 0.64555 0.0
H1321 H 0.86126 0.64491 0.60137 0.0
H1322 H 0.84581 0.66635 0.57474 0.0
H1323 H 0.80593 0.71757 0.62088 0.0
H1324 H 0.81539 0.74298 0.62732 0.0
H1325 H 0.82056 0.72186 0.64409 0.0
H1326 H 0.85964 0.73031 0.64198 0.0
H1327 H 0.85464 0.75124 0.62529 0.0
H1328 H 0.87186 0.7314 0.6172 0.0
H1329 H 0.84037 0.69556 0.5516 0.0
H1330 H 0.844 0.7291 0.53474 0.0
H1331 H 0.83886 0.75967 0.59365 0.0
C1332 C 0.85224 0.68778 0.63048 0.0
C1333 C 0.85937 0.66806 0.62549 0.0
C1334 C 0.85578 0.65994 0.60558 0.0
C1335 C 0.84694 0.67202 0.59035 0.0
C1336 C 0.84126 0.69196 0.59543 0.0
C1337 C 0.84328 0.6996 0.61521 0.0
C1338 C 0.8391 0.72234 0.61613 0.0
C1339 C 0.81905 0.72642 0.62779 0.0
C1340 C 0.8574 0.73451 0.62568 0.0
C1341 C 0.83664 0.72676 0.59354 0.0
C1342 C 0.83729 0.70894 0.58186 0.0
C1343 C 0.83904 0.70951 0.56056 0.0
C1344 C 0.84116 0.72865 0.55108 0.0
C1345 C 0.84147 0.74694 0.56291 0.0
C1346 C 0.83802 0.74594 0.58421 0.0
H1347 H 0.96079 0.12265 0.32572 0.0
H1348 H 0.95538 0.06095 0.34942 0.0
H1349 H -0.00836 0.063 0.36119 0.0
H1350 H 0.0115 0.11678 0.30565 0.0
H1351 H 0.01976 0.1427 0.31159 0.0
H1352 H -0.00702 0.13701 0.30654 0.0
H1353 H 0.98308 0.15297 0.34163 0.0
H1354 H 0.00983 0.15886 0.34672 0.0
H1355 H -0.00496 0.14383 0.36467 0.0
H1356 H 0.02815 0.07257 0.37158 0.0
H1357 H 0.06322 0.08771 0.37663 0.0
H1358 H 0.04558 0.14116 0.34236 0.0
C1359 C 0.96727 0.10968 0.33352 0.0
C1360 C 0.95546 0.09171 0.33683 0.0
C1361 C 0.96437 0.07483 0.34675 0.0
C1362 C -0.01515 0.07588 0.35354 0.0
C1363 C -0.00376 0.09377 0.34987 0.0
C1364 C -0.01215 0.11025 0.33985 0.0
C1365 C 0.00369 0.12719 0.3367 0.0
C1366 C 0.00719 0.13114 0.31376 0.0
C1367 C -0.00246 0.14687 0.34811 0.0
C1368 C 0.0223 0.11765 0.34646 0.0
C1369 C 0.01762 0.09855 0.35436 0.0
C1370 C 0.0321 0.08737 0.36517 0.0
C1371 C 0.0519 0.09599 0.36793 0.0
C1372 C 0.057 0.11525 0.35941 0.0
C1373 C 0.04208 0.12612 0.34849 0.0
H1374 H 0.59268 0.23823 0.06366 0.0
H1375 H 0.61742 0.19616 0.10798 0.0
H1376 H 0.62098 0.22445 0.13321 0.0
H1377 H 0.62522 0.28497 0.08203 0.0
H1378 H 0.60417 0.30176 0.0768 0.0
H1379 H 0.60794 0.27932 0.06099 0.0
H1380 H 0.57043 0.26736 0.06839 0.0
H1381 H 0.56663 0.28948 0.08438 0.0
H1382 H 0.56224 0.2642 0.09459 0.0
H1383 H 0.61297 0.25429 0.15568 0.0
H1384 H 0.59867 0.28511 0.1724 0.0
H1385 H 0.58253 0.30905 0.11293 0.0
C1386 C 0.59958 0.23521 0.07843 0.0
C1387 C 0.60473 0.21512 0.08397 0.0
C1388 C 0.61355 0.21154 0.10343 0.0
C1389 C 0.61562 0.22751 0.11784 0.0
C1390 C 0.60945 0.24703 0.11226 0.0
C1391 C 0.60223 0.25109 0.09278 0.0
C1392 C 0.59489 0.27289 0.09121 0.0
C1393 C 0.6089 0.28548 0.07691 0.0
C1394 C 0.57221 0.27349 0.08425 0.0
C1395 C 0.59745 0.27988 0.11324 0.0
C1396 C 0.60609 0.26483 0.12513 0.0
C1397 C 0.60697 0.26652 0.14645 0.0
C1398 C 0.59869 0.28394 0.15583 0.0
C1399 C 0.58994 0.29947 0.14384 0.0
C1400 C 0.5898 0.29763 0.12231 0.0
H1401 H 0.41291 0.87974 0.85502 0.0
H1402 H 0.41867 0.8377 0.90556 0.0
H1403 H 0.45656 0.84185 0.9043 0.0
H1404 H 0.45014 0.86251 0.82632 0.0
H1405 H 0.46037 0.88652 0.81695 0.0
H1406 H 0.43404 0.8847 0.8251 0.0
H1407 H 0.43995 0.91449 0.8511 0.0
H1408 H 0.4663 0.91685 0.84266 0.0
H1409 H 0.46068 0.91323 0.86943 0.0
H1410 H 0.49309 0.84349 0.89137 0.0
H1411 H 0.52533 0.84679 0.87135 0.0
H1412 H 0.49557 0.8894 0.83073 0.0
C1413 C 0.42217 0.87221 0.86643 0.0
C1414 C 0.41304 0.85847 0.88038 0.0
C1415 C 0.42546 0.84853 0.89493 0.0
C1416 C 0.44699 0.85074 0.89427 0.0
C1417 C 0.45567 0.86345 0.8794 0.0
C1418 C 0.44358 0.87461 0.86622 0.0
C1419 C 0.4565 0.88558 0.85034 0.0
C1420 C 0.44986 0.87944 0.8284 0.0
C1421 C 0.45582 0.90892 0.85359 0.0
C1422 C 0.4775 0.87751 0.85554 0.0
C1423 C 0.47685 0.86499 0.8725 0.0
C1424 C 0.49393 0.85382 0.87851 0.0
C1425 C 0.5121 0.85562 0.86694 0.0
C1426 C 0.51298 0.86849 0.84961 0.0
C1427 C 0.49551 0.87976 0.84414 0.0
H1428 H 0.85658 0.24811 0.91086 0.0
H1429 H 0.88935 0.20505 0.87226 0.0
H1430 H 0.89539 0.23219 0.84688 0.0
H1431 H 0.83143 0.27426 0.87095 0.0
H1432 H 0.83394 0.29929 0.88271 0.0
H1433 H 0.83278 0.27679 0.89846 0.0
H1434 H 0.86744 0.28739 0.91566 0.0
H1435 H 0.86856 0.31008 0.90016 0.0
H1436 H 0.88966 0.29253 0.89988 0.0
H1437 H 0.89553 0.26285 0.82457 0.0
H1438 H 0.89364 0.29665 0.80839 0.0
H1439 H 0.86233 0.32051 0.86204 0.0
C1440 C 0.86526 0.24445 0.8972 0.0
C1441 C 0.87247 0.22445 0.89355 0.0
C1442 C 0.88375 0.22028 0.87546 0.0
C1443 C 0.88717 0.23555 0.86088 0.0
C1444 C 0.8794 0.25494 0.86472 0.0
C1445 C 0.86899 0.25956 0.88256 0.0
C1446 C 0.86232 0.28168 0.88288 0.0
C1447 C 0.83872 0.28307 0.8838 0.0
C1448 C 0.87262 0.29363 0.9007 0.0
C1449 C 0.87053 0.2887 0.86236 0.0
C1450 C 0.88015 0.27295 0.85209 0.0
C1451 C 0.8884 0.27544 0.83261 0.0
C1452 C 0.88732 0.29474 0.82358 0.0
C1453 C 0.87833 0.31136 0.83416 0.0
C1454 C 0.8695 0.30816 0.85367 0.0
H1455 H 0.43074 0.11028 0.60812 0.0
H1456 H 0.41398 0.17433 0.61156 0.0
H1457 H 0.44794 0.1828 0.62713 0.0
H1458 H 0.46158 0.10874 0.65527 0.0
H1459 H 0.48006 0.09191 0.64376 0.0
H1460 H 0.45357 0.09081 0.63548 0.0
H1461 H 0.46534 0.09674 0.59805 0.0
H1462 H 0.49181 0.09816 0.6062 0.0
H1463 H 0.48098 0.11903 0.59213 0.0
H1464 H 0.48471 0.18437 0.63993 0.0
H1465 H 0.52113 0.17919 0.64895 0.0
H1466 H 0.51384 0.11418 0.63534 0.0
C1467 C 0.43392 0.12606 0.61255 0.0
C1468 C 0.41961 0.14164 0.60875 0.0
C1469 C 0.42463 0.16212 0.61448 0.0
C1470 C 0.44388 0.16706 0.6233 0.0
C1471 C 0.45784 0.15135 0.62623 0.0
C1472 C 0.45302 0.13125 0.62108 0.0
C1473 C 0.47114 0.11738 0.62425 0.0
C1474 C 0.4663 0.10126 0.64067 0.0
C1475 C 0.4777 0.10724 0.60395 0.0
C1476 C 0.48712 0.13285 0.63173 0.0
C1477 C 0.4791 0.15232 0.63299 0.0
C1478 C 0.49108 0.16918 0.63916 0.0
C1479 C 0.51176 0.16606 0.64424 0.0
C1480 C 0.52032 0.14625 0.64289 0.0
C1481 C 0.50776 0.12948 0.63653 0.0
H1482 H 0.5993 0.74408 0.37402 0.0
H1483 H 0.62779 0.71137 0.42389 0.0
H1484 H 0.62158 0.67856 0.40523 0.0
H1485 H 0.5597 0.70922 0.36337 0.0
H1486 H 0.56065 0.71248 0.33598 0.0
H1487 H 0.56895 0.73306 0.35271 0.0
H1488 H 0.60437 0.73429 0.33442 0.0
H1489 H 0.59625 0.71349 0.31773 0.0
H1490 H 0.61941 0.7114 0.33277 0.0
H1491 H 0.60928 0.64929 0.38224 0.0
H1492 H 0.59111 0.62619 0.35774 0.0
H1493 H 0.57228 0.67886 0.32266 0.0
C1494 C 0.60424 0.73003 0.38106 0.0
C1495 C 0.61378 0.73017 0.40047 0.0
C1496 C 0.62033 0.71152 0.40904 0.0
C1497 C 0.617 0.69288 0.3985 0.0
C1498 C 0.60752 0.69332 0.37932 0.0
C1499 C 0.60137 0.71146 0.37067 0.0
C1500 C 0.59078 0.70789 0.35031 0.0
C1501 C 0.56872 0.71614 0.35063 0.0
C1502 C 0.60347 0.71733 0.33277 0.0
C1503 C 0.59087 0.68478 0.34931 0.0
C1504 C 0.60092 0.6766 0.36596 0.0
C1505 C 0.60163 0.65552 0.369 0.0
C1506 C 0.59125 0.64252 0.35499 0.0
C1507 C 0.58021 0.65071 0.3383 0.0
C1508 C 0.58064 0.67208 0.33518 0.0
H1509 H 0.03729 0.86408 0.10674 0.0
H1510 H 0.055 0.80023 0.10783 0.0
H1511 H 0.02051 0.79064 0.12087 0.0
H1512 H 0.00638 0.86296 0.15303 0.0
H1513 H -0.01253 0.88007 0.14297 0.0
H1514 H 0.01378 0.88192 0.13438 0.0
H1515 H 0.00146 0.87755 0.09678 0.0
H1516 H 0.97513 0.87548 0.10524 0.0
H1517 H -0.01411 0.85543 0.08963 0.0
H1518 H -0.016 0.78785 0.13248 0.0
H1519 H 0.94815 0.79191 0.1435 0.0
H1520 H 0.95395 0.85775 0.13501 0.0
C1521 C 0.03402 0.84808 0.10986 0.0
C1522 C 0.04889 0.83289 0.10625 0.0
C1523 C 0.04391 0.81214 0.11052 0.0
C1524 C 0.02435 0.80654 0.11789 0.0
C1525 C 0.01 0.82188 0.12096 0.0
C1526 C 0.01461 0.84223 0.11723 0.0
C1527 C -0.00367 0.85568 0.12164 0.0
C1528 C 0.00129 0.87107 0.13904 0.0
C1529 C -0.01071 0.86668 0.10216 0.0
C1530 C 0.98062 0.83966 0.1283 0.0
C1531 C -0.01113 0.82028 0.12777 0.0
C1532 C 0.9774 0.80294 0.13307 0.0
C1533 C 0.957 0.80546 0.13931 0.0
C1534 C 0.94819 0.82519 0.14023 0.0
C1535 C 0.9602 0.84249 0.13451 0.0
H1536 H 0.61476 0.88792 0.6706 0.0
H1537 H 0.63929 0.82697 0.66274 0.0
H1538 H 0.62154 0.81598 0.69458 0.0
H1539 H 0.62039 0.89049 0.72441 0.0
H1540 H 0.59723 0.90485 0.72808 0.0
H1541 H 0.61135 0.90705 0.70449 0.0
H1542 H 0.57835 0.89666 0.68409 0.0
H1543 H 0.56418 0.89423 0.70766 0.0
H1544 H 0.56503 0.87292 0.68991 0.0
H1545 H 0.60309 0.8132 0.72978 0.0
H1546 H 0.58538 0.81881 0.76308 0.0
H1547 H 0.57162 0.88078 0.74472 0.0
C1548 C 0.61638 0.87219 0.67542 0.0
C1549 C 0.62848 0.85833 0.6642 0.0
C1550 C 0.6301 0.83788 0.67112 0.0
C1551 C 0.62005 0.83151 0.68916 0.0
C1552 C 0.6083 0.84572 0.69991 0.0
C1553 C 0.6064 0.8656 0.6931 0.0
C1554 C 0.59354 0.87829 0.70742 0.0
C1555 C 0.60639 0.89622 0.71664 0.0
C1556 C 0.57412 0.88596 0.69662 0.0
C1557 C 0.58828 0.86249 0.72338 0.0
C1558 C 0.59706 0.84381 0.71911 0.0
C1559 C 0.59581 0.82765 0.73302 0.0
C1560 C 0.58569 0.83092 0.75185 0.0
C1561 C 0.5767 0.85006 0.75633 0.0
C1562 C 0.5777 0.86573 0.74159 0.0
H1563 H 0.86254 0.82028 0.47229 0.0
H1564 H 0.86095 0.86487 0.52199 0.0
H1565 H 0.85885 0.89278 0.49699 0.0
H1566 H 0.89085 0.85297 0.43448 0.0
H1567 H 0.87534 0.84369 0.41328 0.0
H1568 H 0.8803 0.82721 0.4347 0.0
H1569 H 0.84106 0.82141 0.43998 0.0
H1570 H 0.8361 0.83751 0.4184 0.0
H1571 H 0.82475 0.8433 0.44293 0.0
H1572 H 0.85402 0.91539 0.4677 0.0
H1573 H 0.84073 0.93093 0.43625 0.0
H1574 H 0.84375 0.87212 0.40488 0.0
C1575 C 0.86206 0.83597 0.4778 0.0
C1576 C 0.862 0.84049 0.49901 0.0
C1577 C 0.86091 0.86111 0.50579 0.0
C1578 C 0.86002 0.87708 0.49171 0.0
C1579 C 0.86009 0.87218 0.47091 0.0
C1580 C 0.86074 0.85213 0.46391 0.0
C1581 C 0.85773 0.85098 0.44087 0.0
C1582 C 0.87722 0.84326 0.43021 0.0
C1583 C 0.83878 0.83752 0.43522 0.0
C1584 C 0.85429 0.87339 0.43623 0.0
C1585 C 0.85648 0.88538 0.45372 0.0
C1586 C 0.85247 0.90625 0.45383 0.0
C1587 C 0.84492 0.91493 0.4359 0.0
C1588 C 0.84119 0.90269 0.41821 0.0
C1589 C 0.84683 0.88189 0.41809 0.0
H1590 H 0.86212 0.11689 0.16661 0.0
H1591 H 0.80525 0.08125 0.17215 0.0
H1592 H 0.80877 0.08214 0.20966 0.0
H1593 H 0.88929 0.09271 0.20338 0.0
H1594 H 0.90253 0.11492 0.214 0.0
H1595 H 0.89392 0.11501 0.18781 0.0
H1596 H 0.87326 0.14789 0.19483 0.0
H1597 H 0.88198 0.14802 0.22109 0.0
H1598 H 0.85481 0.14827 0.21543 0.0
H1599 H 0.82128 0.08108 0.2452 0.0
H1600 H 0.84112 0.08034 0.27749 0.0
H1601 H 0.88926 0.11797 0.25025 0.0
C1602 C 0.85009 0.10981 0.17574 0.0
C1603 C 0.83343 0.09896 0.16639 0.0
C1604 C 0.81815 0.08966 0.1789 0.0
C1605 C 0.81997 0.09014 0.20026 0.0
C1606 C 0.83695 0.10027 0.20896 0.0
C1607 C 0.85159 0.11027 0.19718 0.0
C1608 C 0.86922 0.11851 0.2104 0.0
C1609 C 0.88996 0.10975 0.20348 0.0
C1610 C 0.86985 0.14207 0.21044 0.0
C1611 C 0.86283 0.11039 0.23117 0.0
C1612 C 0.84397 0.10019 0.22998 0.0
C1613 C 0.83574 0.08951 0.24651 0.0
C1614 C 0.84713 0.08908 0.2647 0.0
C1615 C 0.86642 0.09936 0.26625 0.0
C1616 C 0.87425 0.11046 0.24946 0.0
H1617 H 0.65156 0.0911 0.93723 0.0
H1618 H 0.60094 0.09106 0.89382 0.0
H1619 H 0.58326 0.11703 0.91547 0.0
H1620 H 0.62347 0.09434 0.98195 0.0
H1621 H 0.64198 0.11088 -0.00511 0.0
H1622 H 0.65034 0.09366 0.9751 0.0
H1623 H 0.66678 0.12439 0.9556 0.0
H1624 H 0.65819 0.14174 0.97531 0.0
H1625 H 0.65111 0.14586 0.94896 0.0
H1626 H 0.57018 0.14063 0.94471 0.0
H1627 H 0.5632 0.15855 0.97762 0.0
H1628 H 0.62432 0.14366 -0.00093 0.0
C1629 C 0.6367 0.09646 0.93222 0.0
C1630 C 0.62733 0.08883 0.91417 0.0
C1631 C 0.60819 0.09664 0.90781 0.0
C1632 C 0.59818 0.11142 0.91992 0.0
C1633 C 0.60792 0.1185 0.93785 0.0
C1634 C 0.62691 0.11133 0.94371 0.0
C1635 C 0.63422 0.12057 0.96373 0.0
C1636 C 0.63768 0.10387 0.97986 0.0
C1637 C 0.65373 0.13393 0.9607 0.0
C1638 C 0.61596 0.13345 0.9689 0.0
C1639 C 0.60095 0.13238 0.95382 0.0
C1640 C 0.58201 0.14182 0.9564 0.0
C1641 C 0.57819 0.15201 0.97509 0.0
C1642 C 0.59324 0.15243 -0.00913 0.0
C1643 C 0.61253 0.14365 -0.0127 0.0
H1644 H 0.62503 0.11765 0.80979 0.0
H1645 H 0.63218 0.05219 0.80032 0.0
H1646 H 0.61981 0.05542 0.76478 0.0
H1647 H 0.57857 0.12246 0.7782 0.0
H1648 H 0.58656 0.14712 0.76848 0.0
H1649 H 0.59456 0.13942 0.79367 0.0
H1650 H 0.63272 0.14571 0.78356 0.0
H1651 H 0.62485 0.15331 0.75833 0.0
H1652 H 0.64287 0.13287 0.76128 0.0
H1653 H 0.60868 0.06599 0.7297 0.0
H1654 H 0.59901 0.08323 0.69766 0.0
H1655 H 0.59923 0.14172 0.73005 0.0
C1656 C 0.62377 0.10395 0.80033 0.0
C1657 C 0.62962 0.08468 0.80784 0.0
C1658 C 0.62786 0.06715 0.7949 0.0
C1659 C 0.62079 0.06879 0.7747 0.0
C1660 C 0.61549 0.08806 0.76767 0.0
C1661 C 0.61678 0.10532 0.78011 0.0
C1662 C 0.61089 0.12433 0.76854 0.0
C1663 C 0.59149 0.13389 0.77778 0.0
C1664 C 0.62891 0.13997 0.76789 0.0
C1665 C 0.60653 0.11512 0.74757 0.0
C1666 C 0.60911 0.09416 0.74742 0.0
C1667 C 0.60647 0.08238 0.72964 0.0
C1668 C 0.60105 0.09233 0.71151 0.0
C1669 C 0.59839 0.11383 0.71132 0.0
C1670 C 0.60111 0.12526 0.72967 0.0
H1671 H 0.61103 0.84426 0.46334 0.0
H1672 H 0.59662 0.78682 0.49308 0.0
H1673 H 0.59522 0.80472 0.5266 0.0
H1674 H 0.64649 0.85916 0.49689 0.0
H1675 H 0.64174 0.88629 0.49709 0.0
H1676 H 0.63482 0.87105 0.47502 0.0
H1677 H 0.59711 0.88302 0.47744 0.0
H1678 H 0.60398 0.89872 0.4994 0.0
H1679 H 0.5832 0.88011 0.50114 0.0
H1680 H 0.60254 0.82684 0.55687 0.0
H1681 H 0.6185 0.85109 0.58165 0.0
H1682 H 0.63078 0.89391 0.53245 0.0
C1683 C 0.6064 0.83579 0.47682 0.0
C1684 C 0.60326 0.81439 0.47577 0.0
C1685 C 0.59849 0.80335 0.4937 0.0
C1686 C 0.59767 0.81341 0.51274 0.0
C1687 C 0.60195 0.83444 0.51353 0.0
C1688 C 0.6061 0.84557 0.496 0.0
C1689 C 0.61404 0.86697 0.50126 0.0
C1690 C 0.63554 0.87108 0.49203 0.0
C1691 C 0.59866 0.88316 0.49441 0.0
C1692 C 0.61495 0.86569 0.52439 0.0
C1693 C 0.60728 0.84706 0.53119 0.0
C1694 C 0.60817 0.84165 0.55178 0.0
C1695 C 0.61739 0.85549 0.56573 0.0
C1696 C 0.62595 0.87438 0.55897 0.0
C1697 C 0.62429 0.87964 0.53809 0.0
H1698 H 0.83639 0.89894 0.2959 0.0
H1699 H 0.86091 0.85143 0.33469 0.0
H1700 H 0.87776 0.83591 0.30472 0.0
H1701 H 0.82442 0.86708 0.2538 0.0
H1702 H 0.83161 0.88538 0.23444 0.0
H1703 H 0.82311 0.89418 0.25918 0.0
H1704 H 0.85695 0.91548 0.26367 0.0
H1705 H 0.8655 0.90678 0.23886 0.0
H1706 H 0.88135 0.903 0.26116 0.0
H1707 H 0.88933 0.82378 0.27072 0.0
H1708 H 0.89554 0.81584 0.23438 0.0
H1709 H 0.86401 0.87117 0.21694 0.0
C1710 C 0.84558 0.88547 0.29813 0.0
C1711 C 0.84733 0.8764 0.31767 0.0
C1712 C 0.85931 0.85865 0.3199 0.0
C1713 C 0.86901 0.84974 0.30298 0.0
C1714 C 0.86669 0.85882 0.28392 0.0
C1715 C 0.85539 0.87633 0.28135 0.0
C1716 C 0.85444 0.88226 0.25893 0.0
C1717 C 0.83206 0.88221 0.25114 0.0
C1718 C 0.86521 0.90312 0.25546 0.0
C1719 C 0.86648 0.86499 0.24929 0.0
C1720 C 0.87353 0.85178 0.26407 0.0
C1721 C 0.8841 0.83412 0.25901 0.0
C1722 C 0.88745 0.8297 0.23829 0.0
C1723 C 0.88026 0.8429 0.22281 0.0
C1724 C 0.86987 0.86092 0.22844 0.0
H1725 H 0.85718 0.17416 0.00225 0.0
H1726 H 0.90084 0.1373 0.96872 0.0
H1727 H 0.90826 0.11819 6e-05 0.0
H1728 H 0.88474 0.17016 0.05574 0.0
H1729 H 0.85995 0.16886 0.06808 0.0
H1730 H 0.86356 0.1844 0.0456 0.0
H1731 H 0.8331 0.16515 0.02779 0.0
H1732 H 0.82943 0.14972 0.05003 0.0
H1733 H 0.83361 0.13758 0.02547 0.0
H1734 H 0.90259 0.09659 0.0298 0.0
H1735 H 0.88442 0.07501 0.05499 0.0
H1736 H 0.84562 0.1257 0.07128 0.0
C1737 C 0.869 0.16269 0.00175 0.0
C1738 C 0.87832 0.15715 0.98301 0.0
C1739 C 0.89345 0.14184 0.98287 0.0
C1740 C 0.89791 0.13098 0.0007 0.0
C1741 C 0.8874 0.13584 0.01867 0.0
C1742 C 0.87353 0.15167 0.01945 0.0
C1743 C 0.8615 0.15142 0.03934 0.0
C1744 C 0.86782 0.1698 0.053 0.0
C1745 C 0.83805 0.1509 0.03539 0.0
C1746 C 0.86888 0.13156 0.04841 0.0
C1747 C 0.88448 0.12326 0.03667 0.0
C1748 C 0.89103 0.10326 0.0396 0.0
C1749 C 0.88062 0.09106 0.05392 0.0
C1750 C 0.86398 0.09895 0.06523 0.0
C1751 C 0.85887 0.11973 0.06333 0.0
H1752 H 0.75428 0.58338 0.90781 0.0
H1753 H 0.77699 0.58592 0.84529 0.0
H1754 H 0.74213 0.59435 0.83319 0.0
H1755 H 0.70318 0.56169 0.89587 0.0
H1756 H 0.69078 0.57695 0.91525 0.0
H1757 H 0.71706 0.5693 0.91874 0.0
H1758 H 0.72839 0.60735 0.92383 0.0
H1759 H 0.70218 0.61507 0.92044 0.0
H1760 H 0.72218 0.62573 0.90442 0.0
H1761 H 0.7054 0.60439 0.82823 0.0
H1762 H 0.66999 0.6171 0.83094 0.0
H1763 H 0.67169 0.60832 0.89683 0.0
C1764 C 0.75191 0.58543 0.89153 0.0
C1765 C 0.76833 0.5839 0.87748 0.0
C1766 C 0.76462 0.58698 0.85634 0.0
C1767 C 0.74487 0.59168 0.8493 0.0
C1768 C 0.72906 0.59317 0.86361 0.0
C1769 C 0.73238 0.59019 0.88427 0.0
C1770 C 0.71315 0.59401 0.89666 0.0
C1771 C 0.7056 0.57431 0.90725 0.0
C1772 C 0.7167 0.61159 0.91225 0.0
C1773 C 0.6986 0.60008 0.87977 0.0
C1774 C 0.70797 0.59922 0.86079 0.0
C1775 C 0.69784 0.60496 0.84299 0.0
C1776 C 0.67773 0.61217 0.8447 0.0
C1777 C 0.66807 0.61372 0.86411 0.0
C1778 C 0.67858 0.60721 0.88177 0.0
H1779 H 0.25696 0.86967 0.09531 0.0
H1780 H 0.25091 0.93258 0.11563 0.0
H1781 H 0.21482 0.92535 0.12575 0.0
H1782 H 0.21159 0.8647 0.07167 0.0
H1783 H 0.20543 0.83867 0.07881 0.0
H1784 H 0.23182 0.84726 0.07796 0.0
H1785 H 0.2368 0.83646 0.11573 0.0
H1786 H 0.21029 0.82777 0.11669 0.0
H1787 H 0.2199 0.84625 0.13523 0.0
H1788 H 0.17841 0.91365 0.12643 0.0
H1789 H 0.1444 0.89828 0.11805 0.0
H1790 H 0.17378 0.84228 0.0985 0.0
C1791 C 0.24816 0.88159 0.10267 0.0
C1792 C 0.25649 0.90155 0.10506 0.0
C1793 C 0.24465 0.91713 0.11407 0.0
C1794 C 0.22424 0.91312 0.11991 0.0
C1795 C 0.21611 0.89338 0.11685 0.0
C1796 C 0.22779 0.87775 0.10872 0.0
C1797 C 0.21469 0.85869 0.10457 0.0
C1798 C 0.21595 0.85196 0.08191 0.0
C1799 C 0.22079 0.84126 0.11892 0.0
C1800 C 0.19359 0.8666 0.10996 0.0
C1801 C 0.19481 0.88646 0.11754 0.0
C1802 C 0.17726 0.89791 0.12109 0.0
C1803 C 0.158 0.88909 0.11619 0.0
C1804 C 0.15647 0.86903 0.10778 0.0
C1805 C 0.17446 0.85744 0.10537 0.0
H1806 H 0.84976 0.51248 0.86481 0.0
H1807 H 0.84421 0.50647 0.93077 0.0
H1808 H 0.85572 0.47051 0.92798 0.0
H1809 H 0.83055 0.46255 0.8521 0.0
H1810 H 0.84769 0.45958 0.83063 0.0
H1811 H 0.83958 0.48474 0.83826 0.0
H1812 H 0.87777 0.49666 0.84188 0.0
H1813 H 0.88603 0.47152 0.83431 0.0
H1814 H 0.8948 0.48266 0.85824 0.0
H1815 H 0.86784 0.43475 0.91724 0.0
H1816 H 0.87829 0.40275 0.89969 0.0
H1817 H 0.87505 0.43352 0.84111 0.0
C1818 C 0.85105 0.50372 0.87875 0.0
C1819 C 0.84621 0.5123 0.89802 0.0
C1820 C 0.84788 0.50017 0.91583 0.0
C1821 C 0.85443 0.47978 0.91439 0.0
C1822 C 0.8591 0.47184 0.89505 0.0
C1823 C 0.85737 0.4835 0.87758 0.0
C1824 C 0.8627 0.47151 0.85851 0.0
C1825 C 0.84402 0.46948 0.84403 0.0
C1826 C 0.88144 0.48116 0.8476 0.0
C1827 C 0.86784 0.45121 0.86788 0.0
C1828 C 0.86574 0.45158 0.88896 0.0
C1829 C 0.86953 0.43433 0.90075 0.0
C1830 C 0.87547 0.41625 0.89065 0.0
C1831 C 0.87746 0.41564 0.86902 0.0
C1832 C 0.87368 0.43344 0.85765 0.0
H1833 H 0.21118 0.10912 0.58454 0.0
H1834 H 0.21725 0.0489 0.61096 0.0
H1835 H 0.25473 0.05511 0.61525 0.0
H1836 H 0.25527 0.10783 0.55504 0.0
H1837 H 0.26282 0.13438 0.55844 0.0
H1838 H 0.23614 0.12679 0.5605 0.0
H1839 H 0.23454 0.14309 0.59679 0.0
H1840 H 0.26126 0.15084 0.59481 0.0
H1841 H 0.25269 0.13551 0.6161 0.0
H1842 H 0.29129 0.06564 0.6125 0.0
H1843 H 0.32532 0.0799 0.60318 0.0
H1844 H 0.29638 0.13385 0.57862 0.0
C1845 C 0.22044 0.09757 0.59173 0.0
C1846 C 0.21159 0.07864 0.5977 0.0
C1847 C 0.22396 0.06353 0.60654 0.0
C1848 C 0.24516 0.06697 0.60907 0.0
C1849 C 0.25364 0.08563 0.60269 0.0
C1850 C 0.24171 0.10077 0.59431 0.0
C1851 C 0.25503 0.11861 0.58699 0.0
C1852 C 0.25214 0.12209 0.56388 0.0
C1853 C 0.25062 0.13817 0.59942 0.0
C1854 C 0.27632 0.11071 0.59175 0.0
C1855 C 0.27506 0.09179 0.60108 0.0
C1856 C 0.29251 0.08059 0.60553 0.0
C1857 C 0.31176 0.08878 0.60005 0.0
C1858 C 0.31349 0.108 0.59024 0.0
C1859 C 0.29553 0.11928 0.58641 0.0
H1860 H 0.10208 0.96078 0.88184 0.0
H1861 H 0.16478 0.98338 0.87546 0.0
H1862 H 0.15311 0.01881 0.88048 0.0
H1863 H 0.08186 -0.00646 0.8511 0.0
H1864 H 0.05783 -0.00221 0.86411 0.0
H1865 H 0.0712 0.97439 0.868 0.0
H1866 H 0.07193 0.98098 0.90716 0.0
H1867 H 0.05818 0.00442 0.90348 0.0
H1868 H 0.08234 0.00487 0.91715 0.0
H1869 H 0.13452 0.05091 0.87646 0.0
H1870 H 0.11072 0.0769 0.86381 0.0
H1871 H 0.05945 0.0341 0.87155 0.0
C1872 C 0.11341 0.97315 0.88281 0.0
C1873 C 0.13432 0.96947 0.87871 0.0
C1874 C 0.14873 0.98598 0.87894 0.0
C1875 C 0.14222 0.00613 0.88183 0.0
C1876 C 0.12124 0.0095 0.88439 0.0
C1877 C 0.10702 -0.00658 0.88518 0.0
C1878 C 0.08519 0.00113 0.88383 0.0
C1879 C 0.07336 -0.00887 0.86568 0.0
C1880 C 0.07373 -0.00235 0.90412 0.0
C1881 C 0.0894 0.02374 0.88037 0.0
C1882 C 0.11025 0.02838 0.88149 0.0
C1883 C 0.11812 0.04763 0.87614 0.0
C1884 C 0.10449 0.06228 0.86883 0.0
C1885 C 0.08322 0.05753 0.86671 0.0
C1886 C 0.07557 0.0383 0.87334 0.0
H1887 H 0.8059 0.37419 0.3955 0.0
H1888 H 0.79319 0.31857 0.36049 0.0
H1889 H 0.75597 0.32559 0.3614 0.0
H1890 H 0.75807 0.37384 0.42665 0.0
H1891 H 0.75524 0.40119 0.42489 0.0
H1892 H 0.78055 0.39031 0.42445 0.0
H1893 H 0.78826 0.40825 0.38995 0.0
H1894 H 0.7631 0.41928 0.39039 0.0
H1895 H 0.77093 0.40413 0.36861 0.0
H1896 H 0.72057 0.3389 0.36514 0.0
H1897 H 0.6898 0.36051 0.36605 0.0
H1898 H 0.72563 0.40952 0.39509 0.0
C1899 C 0.79516 0.36336 0.38841 0.0
C1900 C 0.8022 0.34571 0.37819 0.0
C1901 C 0.78793 0.33211 0.36849 0.0
C1902 C 0.7668 0.33588 0.36908 0.0
C1903 C 0.76026 0.35348 0.37918 0.0
C1904 C 0.774 0.36721 0.38835 0.0
C1905 C 0.76312 0.38619 0.39588 0.0
C1906 C 0.76432 0.38798 0.41936 0.0
C1907 C 0.77187 0.4056 0.38558 0.0
C1908 C 0.74132 0.38127 0.38883 0.0
C1909 C 0.7399 0.36198 0.37996 0.0
C1910 C 0.72143 0.35401 0.37212 0.0
C1911 C 0.70404 0.36633 0.3728 0.0
C1912 C 0.70544 0.38659 0.38067 0.0
C1913 C 0.72422 0.39403 0.38908 0.0
H1914 H 0.84308 0.47182 0.62457 0.0
H1915 H 0.81233 0.48257 0.56654 0.0
H1916 H 0.82373 0.51865 0.56788 0.0
H1917 H 0.83128 0.52232 0.64743 0.0
H1918 H 0.85575 0.52446 0.66043 0.0
H1919 H 0.84414 0.49956 0.65565 0.0
H1920 H 0.87727 0.48828 0.63701 0.0
H1921 H 0.8889 0.51319 0.6415 0.0
H1922 H 0.88687 0.50308 0.61575 0.0
H1923 H 0.84067 0.55259 0.57364 0.0
H1924 H 0.85947 0.5837 0.58541 0.0
H1925 H 0.87851 0.55192 0.6403 0.0
C1926 C 0.83848 0.48183 0.61231 0.0
C1927 C 0.82686 0.47425 0.59541 0.0
C1928 C 0.82123 0.48791 0.57966 0.0
C1929 C 0.82766 0.50848 0.58023 0.0
C1930 C 0.83953 0.51532 0.59677 0.0
C1931 C 0.84464 0.50257 0.61271 0.0
C1932 C 0.85779 0.51393 0.62854 0.0
C1933 C 0.84657 0.51514 0.64924 0.0
C1934 C 0.87896 0.50402 0.63082 0.0
C1935 C 0.85964 0.53485 0.61869 0.0
C1936 C 0.84899 0.53525 0.60036 0.0
C1937 C 0.84889 0.55258 0.58808 0.0
C1938 C 0.85972 0.57015 0.59486 0.0
C1939 C 0.87042 0.5703 0.6138 0.0
C1940 C 0.87041 0.55233 0.62579 0.0
H1941 H 0.61451 0.50619 0.09128 0.0
H1942 H 0.67651 0.4868 0.10469 0.0
H1943 H 0.66449 0.45071 0.10429 0.0
H1944 H 0.59127 0.47613 0.12479 0.0
H1945 H 0.56836 0.46973 0.11025 0.0
H1946 H 0.58235 0.49309 0.10514 0.0
H1947 H 0.58624 0.48256 0.067 0.0
H1948 H 0.57191 0.45916 0.07188 0.0
H1949 H 0.59714 0.45815 0.0605 0.0
H1950 H 0.64501 0.41827 0.1099 0.0
H1951 H 0.61982 0.39207 0.12115 0.0
H1952 H 0.56991 0.43238 0.10547 0.0
C1953 C 0.62573 0.49426 0.09304 0.0
C1954 C 0.64649 0.49924 0.09771 0.0
C1955 C 0.66059 0.48329 0.10084 0.0
C1956 C 0.65389 0.46273 0.10059 0.0
C1957 C 0.63305 0.45838 0.09715 0.0
C1958 C 0.61918 0.47369 0.09319 0.0
C1959 C 0.5972 0.46539 0.0934 0.0
C1960 C 0.58405 0.47676 0.10935 0.0
C1961 C 0.58756 0.46637 0.07192 0.0
C1962 C 0.60078 0.44342 0.09955 0.0
C1963 C 0.62159 0.43953 0.10099 0.0
C1964 C 0.6287 0.42098 0.10836 0.0
C1965 C 0.61423 0.40621 0.11483 0.0
C1966 C 0.59285 0.41015 0.11419 0.0
C1967 C 0.58611 0.42879 0.10589 0.0
H1968 H 0.62573 0.71343 0.8508 0.0
H1969 H 0.60506 0.70499 0.91339 0.0
H1970 H 0.5993 0.74231 0.91648 0.0
H1971 H 0.65 0.76565 0.85825 0.0
H1972 H 0.64134 0.77353 0.83333 0.0
H1973 H 0.64764 0.74714 0.83766 0.0
H1974 H 0.61138 0.73583 0.82466 0.0
H1975 H 0.60488 0.76209 0.82052 0.0
H1976 H 0.58889 0.74627 0.83676 0.0
H1977 H 0.59088 0.77967 0.91066 0.0
H1978 H 0.58091 0.81319 0.89666 0.0
H1979 H 0.60666 0.79611 0.83777 0.0
C1980 C 0.6205 0.71945 0.86537 0.0
C1981 C 0.6158 0.70632 0.88185 0.0
C1982 C 0.60888 0.7148 0.9006 0.0
C1983 C 0.60559 0.73598 0.90249 0.0
C1984 C 0.60959 0.74838 0.88559 0.0
C1985 C 0.61716 0.74039 0.86747 0.0
C1986 C 0.61819 0.7563 0.85082 0.0
C1987 C 0.64063 0.76093 0.84466 0.0
C1988 C 0.60505 0.74973 0.83211 0.0
C1989 C 0.609 0.77427 0.86201 0.0
C1990 C 0.60453 0.76964 0.88217 0.0
C1991 C 0.59465 0.78355 0.895 0.0
C1992 C 0.589 0.80252 0.88691 0.0
C1993 C 0.59296 0.8072 0.86611 0.0
C1994 C 0.60344 0.79299 0.85373 0.0
H1995 H 0.5138 0.35495 0.11196 0.0
H1996 H 0.48493 0.35983 0.17153 0.0
H1997 H 0.45058 0.35724 0.1552 0.0
H1998 H 0.47189 0.38022 0.08084 0.0
H1999 H 0.47501 0.36206 0.06015 0.0
H2000 H 0.49685 0.36971 0.07573 0.0
H2001 H 0.50349 0.33159 0.08376 0.0
H2002 H 0.48162 0.32384 0.06847 0.0
H2003 H 0.48317 0.31613 0.09488 0.0
H2004 H 0.41985 0.34943 0.13316 0.0
H2005 H 0.39544 0.33451 0.10774 0.0
H2006 H 0.44463 0.33149 0.06303 0.0
C2007 C 0.50019 0.35639 0.1214 0.0
C2008 C 0.50187 0.35804 0.1429 0.0
C2009 C 0.48384 0.35888 0.15498 0.0
C2010 C 0.4643 0.3575 0.14582 0.0
C2011 C 0.46311 0.35506 0.1246 0.0
C2012 C 0.4806 0.35448 0.11252 0.0
C2013 C 0.47532 0.34839 0.09064 0.0
C2014 C 0.48005 0.36616 0.07597 0.0
C2015 C 0.48656 0.32883 0.08407 0.0
C2016 C 0.45235 0.34457 0.09256 0.0
C2017 C 0.44548 0.34921 0.11207 0.0
C2018 C 0.425 0.346 0.11777 0.0
C2019 C 0.41125 0.33749 0.10326 0.0
C2020 C 0.41822 0.33179 0.08351 0.0
C2021 C 0.43894 0.3357 0.07805 0.0
H2022 H 0.89202 0.17906 0.33597 0.0
H2023 H 0.87642 0.15477 0.39578 0.0
H2024 H 0.87121 0.19002 0.40882 0.0
H2025 H 0.91976 0.22421 0.35467 0.0
H2026 H 0.91066 0.24005 0.3342 0.0
H2027 H 0.91371 0.21296 0.32999 0.0
H2028 H 0.87553 0.20956 0.31842 0.0
H2029 H 0.87237 0.23662 0.32258 0.0
H2030 H 0.85553 0.21849 0.33523 0.0
H2031 H 0.86693 0.22825 0.41486 0.0
H2032 H 0.86356 0.26594 0.41317 0.0
H2033 H 0.8821 0.26425 0.3493 0.0
C2034 C 0.88757 0.18112 0.35183 0.0
C2035 C 0.88462 0.16422 0.36486 0.0
C2036 C 0.87886 0.16756 0.38555 0.0
C2037 C 0.87586 0.1875 0.39309 0.0
C2038 C 0.87886 0.20384 0.37977 0.0
C2039 C 0.88466 0.20082 0.3596 0.0
C2040 C 0.88667 0.22082 0.34829 0.0
C2041 C 0.90903 0.22474 0.34139 0.0
C2042 C 0.87162 0.2214 0.33006 0.0
C2043 C 0.88065 0.23559 0.36508 0.0
C2044 C 0.87638 0.22561 0.3832 0.0
C2045 C 0.87032 0.23623 0.40076 0.0
C2046 C 0.86849 0.2576 0.39967 0.0
C2047 C 0.87253 0.26799 0.38109 0.0
C2048 C 0.87881 0.25676 0.3637 0.0
H2049 H 0.96243 0.66929 0.63371 0.0
H2050 H 0.9629 0.60306 0.63851 0.0
H2051 H -0.0023 0.60278 0.62291 0.0
H2052 H -0.0148 0.67099 0.58453 0.0
H2053 H -0.00055 0.69451 0.58943 0.0
H2054 H 0.97568 0.68946 0.60273 0.0
H2055 H -0.0055 0.6946 0.63755 0.0
H2056 H 0.01838 0.69957 0.62432 0.0
H2057 H 0.0168 0.67959 0.64317 0.0
H2058 H 0.03265 0.61012 0.6065 0.0
H2059 H 0.06253 0.62385 0.58704 0.0
H2060 H 0.0373 0.68481 0.59093 0.0
C2061 C 0.96999 0.65474 0.63176 0.0
C2062 C 0.96017 0.63621 0.63756 0.0
C2063 C 0.97027 0.61743 0.63424 0.0
C2064 C -0.00996 0.61715 0.62551 0.0
C2065 C -0.00071 0.63575 0.61993 0.0
C2066 C -0.01057 0.65416 0.6227 0.0
C2067 C 0.00179 0.67185 0.61387 0.0
C2068 C -0.01018 0.68231 0.59662 0.0
C2069 C 0.00825 0.68731 0.63074 0.0
C2070 C 0.02014 0.66056 0.6056 0.0
C2071 C 0.01867 0.63981 0.60956 0.0
C2072 C 0.03392 0.62634 0.60331 0.0
C2073 C 0.05087 0.63427 0.59237 0.0
C2074 C 0.05213 0.65536 0.58747 0.0
C2075 C 0.03667 0.66861 0.59441 0.0
H2076 H 0.63378 0.26178 0.59003 0.0
H2077 H 0.60708 0.24153 0.53225 0.0
H2078 H 0.61208 0.20541 0.54215 0.0
H2079 H 0.67087 0.21696 0.59595 0.0
H2080 H 0.66664 0.21704 0.62324 0.0
H2081 H 0.66623 0.24075 0.60927 0.0
H2082 H 0.6298 0.24807 0.62346 0.0
H2083 H 0.63024 0.22467 0.63751 0.0
H2084 H 0.60948 0.22914 0.6198 0.0
H2085 H 0.61209 0.17254 0.56167 0.0
H2086 H 0.60536 0.14729 0.58888 0.0
H2087 H 0.63344 0.18876 0.63347 0.0
C2088 C 0.62955 0.24973 0.57921 0.0
C2089 C 0.61993 0.25433 0.56048 0.0
C2090 C 0.61456 0.23826 0.54667 0.0
C2091 C 0.61749 0.21773 0.55213 0.0
C2092 C 0.62629 0.21364 0.57118 0.0
C2093 C 0.63256 0.2293 0.58436 0.0
C2094 C 0.63872 0.22124 0.60507 0.0
C2095 C 0.662 0.22417 0.60858 0.0
C2096 C 0.6263 0.23136 0.62245 0.0
C2097 C 0.633 0.19882 0.60225 0.0
C2098 C 0.62661 0.19451 0.58238 0.0
C2099 C 0.61763 0.17556 0.57708 0.0
C2100 C 0.61392 0.16124 0.59265 0.0
C2101 C 0.61884 0.16617 0.61327 0.0
C2102 C 0.62972 0.18457 0.61778 0.0
H2103 H 0.04937 0.33541 0.86648 0.0
H2104 H 0.03608 0.37563 0.91791 0.0
H2105 H 0.00382 0.38589 0.9008 0.0
H2106 H 0.02693 0.36774 0.82586 0.0
H2107 H 0.01729 0.34552 0.812 0.0
H2108 H 0.04059 0.34398 0.82691 0.0
H2109 H 0.0249 0.31332 0.84695 0.0
H2110 H 0.00163 0.31477 0.83216 0.0
H2111 H 0.00053 0.31622 0.85974 0.0
H2112 H 0.97083 0.38806 0.87982 0.0
H2113 H 0.94048 0.38156 0.8575 0.0
H2114 H 0.97644 0.34006 0.82023 0.0
C2115 C 0.03991 0.34668 0.87403 0.0
C2116 C 0.04518 0.3547 0.89353 0.0
C2117 C 0.03235 0.36936 0.9029 0.0
C2118 C 0.01404 0.37531 0.89328 0.0
C2119 C 0.00905 0.36666 0.87421 0.0
C2120 C 0.02178 0.35279 0.86466 0.0
C2121 C 0.01232 0.34426 0.84514 0.0
C2122 C 0.02504 0.35078 0.82637 0.0
C2123 C 0.00969 0.32076 0.84608 0.0
C2124 C -0.00817 0.35476 0.84562 0.0
C2125 C -0.00974 0.36791 0.86225 0.0
C2126 C 0.97203 0.37807 0.86656 0.0
C2127 C 0.95488 0.37429 0.8538 0.0
C2128 C 0.95609 0.36027 0.83715 0.0
C2129 C 0.975 0.3509 0.8328 0.0
H2130 H 0.82341 0.71063 0.10792 0.0
H2131 H 0.86982 0.71529 0.06049 0.0
H2132 H 0.86766 0.75301 0.06181 0.0
H2133 H 0.79461 0.75993 0.09436 0.0
H2134 H 0.7907 0.76539 0.12118 0.0
H2135 H 0.79092 0.73919 0.11211 0.0
H2136 H 0.81978 0.73088 0.13812 0.0
H2137 H 0.81914 0.7567 0.14747 0.0
H2138 H 0.84308 0.74639 0.13841 0.0
H2139 H 0.86589 0.78925 0.07284 0.0
H2140 H 0.87049 0.81835 0.09677 0.0
H2141 H 0.82626 0.7907 0.13802 0.0
C2142 C 0.83263 0.7196 0.09735 0.0
C2143 C 0.84672 0.71007 0.08407 0.0
C2144 C 0.85891 0.72228 0.07081 0.0
C2145 C 0.85754 0.74373 0.07124 0.0
C2146 C 0.84384 0.75274 0.08493 0.0
C2147 C 0.83165 0.74099 0.09784 0.0
C2148 C 0.82136 0.7541 0.11392 0.0
C2149 C 0.79801 0.75469 0.11016 0.0
C2150 C 0.82617 0.74658 0.13574 0.0
C2151 C 0.83145 0.77472 0.10953 0.0
C2152 C 0.84332 0.77392 0.09193 0.0
C2153 C 0.8563 0.79022 0.08635 0.0
C2154 C 0.8587 0.80686 0.09997 0.0
C2155 C 0.84869 0.80661 0.11918 0.0
C2156 C 0.8337 0.79127 0.1232 0.0
H2157 H 0.40308 0.6549 0.37346 0.0
H2158 H 0.40381 0.60371 0.41544 0.0
H2159 H 0.43145 0.5879 0.39512 0.0
H2160 H 0.41399 0.62432 0.32651 0.0
H2161 H 0.42973 0.64455 0.31575 0.0
H2162 H 0.40852 0.65072 0.33235 0.0
H2163 H 0.43334 0.67174 0.35601 0.0
H2164 H 0.45455 0.66567 0.33951 0.0
H2165 H 0.45576 0.65963 0.36638 0.0
H2166 H 0.46141 0.5796 0.37241 0.0
H2167 H 0.49134 0.57951 0.34916 0.0
H2168 H 0.47031 0.63567 0.32152 0.0
C2169 C 0.40885 0.64022 0.37823 0.0
C2170 C 0.40132 0.63054 0.39604 0.0
C2171 C 0.40929 0.61137 0.40179 0.0
C2172 C 0.42495 0.60224 0.39032 0.0
C2173 C 0.43222 0.61232 0.37297 0.0
C2174 C 0.4243 0.63081 0.36684 0.0
C2175 C 0.43553 0.63905 0.34828 0.0
C2176 C 0.42108 0.63969 0.32962 0.0
C2177 C 0.44538 0.66027 0.35283 0.0
C2178 C 0.45165 0.62283 0.34551 0.0
C2179 C 0.4493 0.60737 0.3597 0.0
C2180 C 0.4632 0.59143 0.361 0.0
C2181 C 0.48017 0.59153 0.34773 0.0
C2182 C 0.48313 0.60753 0.33342 0.0
C2183 C 0.46836 0.62307 0.33206 0.0
H2184 H 0.85738 0.62622 0.81502 0.0
H2185 H 0.85433 0.5597 0.81181 0.0
H2186 H 0.86651 0.5608 0.77606 0.0
H2187 H 0.83973 0.63505 0.76401 0.0
H2188 H 0.85669 0.65682 0.75997 0.0
H2189 H 0.84804 0.6508 0.78544 0.0
H2190 H 0.88594 0.64934 0.7978 0.0
H2191 H 0.89471 0.65534 0.77234 0.0
H2192 H 0.90353 0.63259 0.78483 0.0
H2193 H 0.87778 0.56911 0.74038 0.0
H2194 H 0.88824 0.58414 0.70732 0.0
H2195 H 0.88485 0.64513 0.73418 0.0
C2196 C 0.8593 0.61187 0.80683 0.0
C2197 C 0.85488 0.59288 0.81619 0.0
C2198 C 0.85763 0.57445 0.80495 0.0
C2199 C 0.86455 0.5749 0.78464 0.0
C2200 C 0.86873 0.59388 0.77586 0.0
C2201 C 0.86629 0.61203 0.78659 0.0
C2202 C 0.87172 0.63039 0.77353 0.0
C2203 C 0.85292 0.64406 0.77056 0.0
C2204 C 0.89007 0.64263 0.78267 0.0
C2205 C 0.87753 0.6197 0.75376 0.0
C2206 C 0.87563 0.59866 0.7554 0.0
C2207 C 0.87947 0.58556 0.73893 0.0
C2208 C 0.88535 0.59424 0.72022 0.0
C2209 C 0.88746 0.61578 0.71823 0.0
C2210 C 0.88361 0.6286 0.7353 0.0
H2211 H 0.63042 0.58367 0.03904 0.0
H2212 H 0.59038 0.62506 0.07196 0.0
H2213 H 0.58075 0.64109 0.03922 0.0
H2214 H 0.64953 0.62017 0.00364 0.0
H2215 H 0.65051 0.60241 0.98235 0.0
H2216 H 0.65318 0.59327 0.00815 0.0
H2217 H 0.62271 0.56763 0.00223 0.0
H2218 H 0.62002 0.57664 0.97637 0.0
H2219 H 0.5983 0.57699 -0.00649 0.0
H2220 H 0.57626 0.65326 0.00293 0.0
H2221 H 0.5776 0.66095 0.96598 0.0
H2222 H 0.62136 0.61222 0.95697 0.0
C2223 C 0.61941 0.59593 0.03938 0.0
C2224 C 0.61106 0.60304 0.05809 0.0
C2225 C 0.59695 0.61932 0.05783 0.0
C2226 C 0.59137 0.62851 0.03931 0.0
C2227 C 0.60009 0.6213 0.02118 0.0
C2228 C 0.61382 0.60538 0.02107 0.0
C2229 C 0.62163 0.60105 -0.00038 0.0
C2230 C 0.6451 0.60443 -0.00163 0.0
C2231 C 0.61528 0.57928 -0.00748 0.0
C2232 C 0.6103 0.61714 -0.01232 0.0
C2233 C 0.59784 0.62856 0.00037 0.0
C2234 C 0.58594 0.64438 -0.00715 0.0
C2235 C 0.58682 0.64864 0.97182 0.0
C2236 C 0.59962 0.63724 0.95855 0.0
C2237 C 0.61148 0.62127 0.96669 0.0
H2238 H 0.57199 0.3596 0.24106 0.0
H2239 H 0.59904 0.40236 0.19769 0.0
H2240 H 0.61879 0.41906 0.22589 0.0
H2241 H 0.56793 0.39533 0.28406 0.0
H2242 H 0.57444 0.37617 0.30258 0.0
H2243 H 0.56145 0.36874 0.27917 0.0
H2244 H 0.59049 0.34321 0.27108 0.0
H2245 H 0.60368 0.35071 0.29433 0.0
H2246 H 0.61682 0.35243 0.27008 0.0
H2247 H 0.6371 0.42964 0.25862 0.0
H2248 H 0.65154 0.43418 0.29346 0.0
H2249 H 0.61242 0.38408 0.31486 0.0
C2250 C 0.58182 0.37266 0.23746 0.0
C2251 C 0.58394 0.37969 0.21715 0.0
C2252 C 0.59713 0.39673 0.21314 0.0
C2253 C 0.60842 0.4063 0.22905 0.0
C2254 C 0.60628 0.39865 0.24882 0.0
C2255 C 0.59319 0.3823 0.25307 0.0
C2256 C 0.5942 0.37646 0.27541 0.0
C2257 C 0.57326 0.37936 0.28592 0.0
C2258 C 0.60175 0.3544 0.27786 0.0
C2259 C 0.61005 0.39197 0.28308 0.0
C2260 C 0.61682 0.40466 0.26755 0.0
C2261 C 0.63182 0.41988 0.27093 0.0
C2262 C 0.63997 0.42228 0.29075 0.0
C2263 C 0.63311 0.40949 0.30691 0.0
C2264 C 0.61798 0.39415 0.3029 0.0
H2265 H 0.84269 0.35245 0.55657 0.0
H2266 H 0.87941 0.40767 0.54851 0.0
H2267 H 0.89673 0.39188 0.51883 0.0
H2268 H 0.88335 0.31427 0.53321 0.0
H2269 H 0.86253 0.29953 0.5217 0.0
H2270 H 0.85908 0.31168 0.54638 0.0
H2271 H 0.82698 0.32976 0.53229 0.0
H2272 H 0.83055 0.31827 0.50756 0.0
H2273 H 0.8295 0.34578 0.51001 0.0
H2274 H 0.90142 0.37555 0.48538 0.0
H2275 H 0.89526 0.35886 0.45189 0.0
H2276 H 0.85556 0.31344 0.48067 0.0
C2277 C 0.8554 0.36052 0.54931 0.0
C2278 C 0.86028 0.38091 0.55495 0.0
C2279 C 0.87605 0.39177 0.54464 0.0
C2280 C 0.88591 0.38289 0.52777 0.0
C2281 C 0.87979 0.36316 0.52157 0.0
C2282 C 0.86524 0.35183 0.53235 0.0
C2283 C 0.85858 0.33272 0.52048 0.0
C2284 C 0.86636 0.31341 0.53107 0.0
C2285 C 0.83502 0.33161 0.5174 0.0
C2286 C 0.8698 0.33628 0.50049 0.0
C2287 C 0.88252 0.35353 0.50171 0.0
C2288 C 0.89212 0.36163 0.48443 0.0
C2289 C 0.88834 0.35217 0.46542 0.0
C2290 C 0.87499 0.33482 0.46377 0.0
C2291 C 0.86618 0.32641 0.48162 0.0
H2292 H 0.86961 0.39229 0.75729 0.0
H2293 H 0.89642 0.33194 0.75206 0.0
H2294 H 0.88847 0.33103 0.7153 0.0
H2295 H 0.82806 0.38288 0.72163 0.0
H2296 H 0.82927 0.40817 0.71076 0.0
H2297 H 0.83715 0.40439 0.73692 0.0
H2298 H 0.87274 0.42105 0.72904 0.0
H2299 H 0.86501 0.42487 0.70284 0.0
H2300 H 0.88803 0.41094 0.70839 0.0
H2301 H 0.87708 0.3358 0.67958 0.0
H2302 H 0.86345 0.34666 0.64621 0.0
H2303 H 0.84469 0.40427 0.67364 0.0
C2304 C 0.87382 0.37894 0.74837 0.0
C2305 C 0.88363 0.36221 0.75757 0.0
C2306 C 0.88893 0.34499 0.74539 0.0
C2307 C 0.88447 0.34428 0.72446 0.0
C2308 C 0.8748 0.36093 0.71584 0.0
C2309 C 0.86958 0.37799 0.7273 0.0
C2310 C 0.85927 0.39376 0.71403 0.0
C2311 C 0.83712 0.39751 0.72127 0.0
C2312 C 0.87203 0.41384 0.71355 0.0
C2313 C 0.85952 0.38281 0.69342 0.0
C2314 C 0.86849 0.36387 0.6949 0.0
C2315 C 0.8701 0.35065 0.67814 0.0
C2316 C 0.86229 0.35694 0.65927 0.0
C2317 C 0.8531 0.37633 0.65731 0.0
C2318 C 0.8518 0.38944 0.67463 0.0
H2319 H 0.84441 0.63904 0.92528 0.0
H2320 H 0.89279 0.59709 0.91052 0.0
H2321 H 0.91399 0.61155 0.9385 0.0
H2322 H 0.88462 0.68189 0.95243 0.0
H2323 H 0.86418 0.68773 0.97005 0.0
H2324 H 0.85845 0.68301 0.94332 0.0
H2325 H 0.83185 0.6552 0.95385 0.0
H2326 H 0.83771 0.65937 0.98025 0.0
H2327 H 0.84002 0.63401 0.96933 0.0
H2328 H 0.9194 0.6151 0.97474 0.0
H2329 H 0.91242 0.6138 0.01178 0.0
H2330 H 0.86342 0.65701 0.00462 0.0
C2331 C 0.86018 0.63427 0.92709 0.0
C2332 C 0.86712 0.61713 0.91608 0.0
C2333 C 0.88744 0.61047 0.91875 0.0
C2334 C 0.89956 0.61863 0.93469 0.0
C2335 C 0.89127 0.6338 0.94729 0.0
C2336 C 0.87247 0.64258 0.94288 0.0
C2337 C 0.86506 0.65544 0.9608 0.0
C2338 C 0.86828 0.67837 0.95638 0.0
C2339 C 0.84236 0.65064 0.96638 0.0
C2340 C 0.87988 0.64868 0.97721 0.0
C2341 C 0.89555 0.63706 0.96892 0.0
C2342 C 0.90797 0.62504 0.98132 0.0
C2343 C 0.90375 0.62414 0.00232 0.0
C2344 C 0.88752 0.63549 0.01077 0.0
C2345 C 0.87628 0.64874 -0.00167 0.0
H2346 H 0.56551 0.61898 0.23721 0.0
H2347 H 0.55105 0.55759 0.25843 0.0
H2348 H 0.56433 0.54325 0.22591 0.0
H2349 H 0.5553 0.61041 0.182 0.0
H2350 H 0.57713 0.626 0.17435 0.0
H2351 H 0.56384 0.63169 0.1979 0.0
H2352 H 0.59809 0.62932 0.21807 0.0
H2353 H 0.61147 0.6238 0.19462 0.0
H2354 H 0.61308 0.60644 0.21586 0.0
H2355 H 0.58177 0.53547 0.19311 0.0
H2356 H 0.60503 0.5343 0.16331 0.0
H2357 H 0.60925 0.60065 0.16319 0.0
C2358 C 0.56471 0.60254 0.23478 0.0
C2359 C 0.55699 0.58934 0.25014 0.0
C2360 C 0.55681 0.56791 0.24677 0.0
C2361 C 0.56417 0.55967 0.22832 0.0
C2362 C 0.57184 0.5731 0.21353 0.0
C2363 C 0.57237 0.59407 0.21661 0.0
C2364 C 0.5836 0.60493 0.19933 0.0
C2365 C 0.5691 0.61909 0.1877 0.0
C2366 C 0.60269 0.61681 0.20746 0.0
C2367 C 0.58964 0.58673 0.18619 0.0
C2368 C 0.58237 0.56857 0.19456 0.0
C2369 C 0.58726 0.54957 0.18624 0.0
C2370 C 0.60044 0.54906 0.16933 0.0
C2371 C 0.60855 0.56738 0.16089 0.0
C2372 C 0.6027 0.58649 0.16906 0.0
H2373 H 0.58124 0.373 0.50973 0.0
H2374 H 0.60378 0.31102 0.50453 0.0
H2375 H 0.60179 0.31313 0.46684 0.0
H2376 H 0.54646 0.37011 0.46301 0.0
H2377 H 0.55253 0.39638 0.45672 0.0
H2378 H 0.55194 0.38854 0.48315 0.0
H2379 H 0.58925 0.40256 0.4882 0.0
H2380 H 0.5899 0.41048 0.46195 0.0
H2381 H 0.60932 0.39362 0.47148 0.0
H2382 H 0.60444 0.32458 0.43049 0.0
H2383 H 0.61048 0.34414 0.39871 0.0
H2384 H 0.58388 0.39772 0.42714 0.0
C2385 C 0.58525 0.35968 0.50068 0.0
C2386 C 0.59273 0.34188 0.51006 0.0
C2387 C 0.59793 0.3248 0.49769 0.0
C2388 C 0.59677 0.32583 0.47625 0.0
C2389 C 0.58992 0.34386 0.46745 0.0
C2390 C 0.58392 0.36037 0.47931 0.0
C2391 C 0.57914 0.3787 0.46622 0.0
C2392 C 0.55615 0.38372 0.46734 0.0
C2393 C 0.59272 0.39742 0.47232 0.0
C2394 C 0.58475 0.37042 0.44526 0.0
C2395 C 0.5906 0.35017 0.44621 0.0
C2396 C 0.59926 0.3402 0.42939 0.0
C2397 C 0.60268 0.35141 0.41143 0.0
C2398 C 0.5973 0.37229 0.41043 0.0
C2399 C 0.58748 0.38158 0.42727 0.0
H2400 H 0.70891 0.86264 0.61465 0.0
H2401 H 0.73306 0.92433 0.6063 0.0
H2402 H 0.76842 0.91107 0.60495 0.0
H2403 H 0.75448 0.84164 0.64367 0.0
H2404 H 0.75228 0.81739 0.63029 0.0
H2405 H 0.72957 0.83204 0.63543 0.0
H2406 H 0.72057 0.83118 0.59674 0.0
H2407 H 0.74327 0.81675 0.59147 0.0
H2408 H 0.73921 0.84062 0.57851 0.0
H2409 H 0.80016 0.89103 0.59935 0.0
H2410 H 0.82586 0.86572 0.58885 0.0
H2411 H 0.78115 0.81658 0.59912 0.0
C2412 C 0.72176 0.87338 0.61344 0.0
C2413 C 0.71838 0.89454 0.611 0.0
C2414 C 0.73542 0.90811 0.60848 0.0
C2415 C 0.75554 0.90071 0.60775 0.0
C2416 C 0.75835 0.87966 0.6094 0.0
C2417 C 0.74194 0.86616 0.61225 0.0
C2418 C 0.74882 0.8441 0.61064 0.0
C2419 C 0.74613 0.83315 0.63124 0.0
C2420 C 0.73729 0.8325 0.59331 0.0
C2421 C 0.77142 0.84734 0.60555 0.0
C2422 C 0.77669 0.86796 0.6054 0.0
C2423 C 0.7963 0.87483 0.59974 0.0
C2424 C 0.8108 0.86031 0.59372 0.0
C2425 C 0.80558 0.83913 0.59315 0.0
C2426 C 0.78572 0.83262 0.59958 0.0
H2427 H 0.20657 0.60341 0.41688 0.0
H2428 H 0.21901 0.59053 0.35282 0.0
H2429 H 0.25278 0.60874 0.35607 0.0
H2430 H 0.23019 0.65475 0.4176 0.0
H2431 H 0.2396 0.65196 0.44341 0.0
H2432 H 0.21634 0.63868 0.4354 0.0
H2433 H 0.232 0.60425 0.44654 0.0
H2434 H 0.25544 0.61734 0.45427 0.0
H2435 H 0.2563 0.59654 0.43592 0.0
H2436 H 0.28649 0.62564 0.36766 0.0
H2437 H 0.31548 0.64368 0.38518 0.0
H2438 H 0.27948 0.64682 0.44104 0.0
C2439 C 0.21634 0.60458 0.40348 0.0
C2440 C 0.21041 0.59549 0.38466 0.0
C2441 C 0.22338 0.59749 0.36737 0.0
C2442 C 0.24256 0.6077 0.36911 0.0
C2443 C 0.24818 0.61607 0.38812 0.0
C2444 C 0.23523 0.61498 0.40486 0.0
C2445 C 0.24467 0.62528 0.42356 0.0
C2446 C 0.23194 0.64377 0.43039 0.0
C2447 C 0.24726 0.60993 0.4411 0.0
C2448 C 0.26522 0.632 0.41492 0.0
C2449 C 0.26706 0.62645 0.3945 0.0
C2450 C 0.28509 0.6303 0.38356 0.0
C2451 C 0.3015 0.64042 0.39367 0.0
C2452 C 0.29962 0.64674 0.41442 0.0
C2453 C 0.28126 0.64236 0.42512 0.0
H2454 H 0.61095 0.0622 0.62895 0.0
H2455 H 0.54704 0.04188 0.63276 0.0
H2456 H 0.55783 0.00591 0.62863 0.0
H2457 H 0.62762 0.02599 0.59122 0.0
H2458 H 0.65236 0.02255 0.60316 0.0
H2459 H 0.63934 0.04648 0.60618 0.0
H2460 H 0.64175 0.04304 0.64565 0.0
H2461 H 0.65451 0.01891 0.64274 0.0
H2462 H 0.63129 0.02041 0.65771 0.0
H2463 H 0.57598 0.97195 0.62574 0.0
H2464 H 0.59961 0.94308 0.62024 0.0
H2465 H 0.65132 0.98591 0.61707 0.0
C2466 C 0.59915 0.05024 0.62867 0.0
C2467 C 0.57812 0.05488 0.63114 0.0
C2468 C 0.56324 0.0387 0.63093 0.0
C2469 C 0.56923 0.01822 0.62867 0.0
C2470 C 0.59016 0.01419 0.62677 0.0
C2471 C 0.60486 0.02977 0.62657 0.0
C2472 C 0.62635 0.0214 0.62445 0.0
C2473 C 0.63704 0.02959 0.60509 0.0
C2474 C 0.63923 0.02623 0.64378 0.0
C2475 C 0.62143 -0.00131 0.62269 0.0
C2476 C 0.60051 -0.00522 0.6246 0.0
C2477 C 0.59236 0.97486 0.62414 0.0
C2478 C 0.60588 0.95856 0.62118 0.0
C2479 C 0.6272 0.96236 0.61827 0.0
C2480 C 0.63505 0.98266 0.61921 0.0
H2481 H 0.17666 0.32288 0.88336 0.0
H2482 H 0.13278 0.37143 0.89218 0.0
H2483 H 0.15718 0.39608 0.87642 0.0
H2484 H 0.2193 0.34878 0.89714 0.0
H2485 H 0.23637 0.33812 0.87824 0.0
H2486 H 0.21392 0.32383 0.88602 0.0
H2487 H 0.20195 0.32115 0.84811 0.0
H2488 H 0.22443 0.33571 0.84027 0.0
H2489 H 0.19909 0.34415 0.83338 0.0
H2490 H 0.18832 0.41616 0.8678 0.0
H2491 H 0.22391 0.43005 0.86677 0.0
H2492 H 0.2472 0.36866 0.86038 0.0
C2493 C 0.17207 0.33863 0.88156 0.0
C2494 C 0.153 0.34537 0.88909 0.0
C2495 C 0.14737 0.36601 0.88647 0.0
C2496 C 0.16104 0.38006 0.87737 0.0
C2497 C 0.17996 0.37303 0.87047 0.0
C2498 C 0.18536 0.35272 0.87213 0.0
C2499 C 0.20742 0.34952 0.86563 0.0
C2500 C 0.21997 0.3395 0.88279 0.0
C2501 C 0.20826 0.33689 0.84566 0.0
C2502 C 0.21422 0.3715 0.86206 0.0
C2503 C 0.19796 0.38477 0.86433 0.0
C2504 C 0.20102 0.40596 0.86519 0.0
C2505 C 0.22123 0.41373 0.86465 0.0
C2506 C 0.23797 0.40032 0.86306 0.0
C2507 C 0.23444 0.3791 0.86078 0.0
H2508 H 0.35409 0.40083 0.60828 0.0
H2509 H 0.38813 0.41435 0.6643 0.0
H2510 H 0.37789 0.45055 0.66234 0.0
H2511 H 0.3667 0.44836 0.58278 0.0
H2512 H 0.34172 0.45009 0.57091 0.0
H2513 H 0.35198 0.42538 0.57674 0.0
H2514 H 0.31924 0.4166 0.5978 0.0
H2515 H 0.30896 0.44137 0.5922 0.0
H2516 H 0.31174 0.43343 0.61843 0.0
H2517 H 0.36287 0.48522 0.65477 0.0
H2518 H 0.34642 0.51599 0.6408 0.0
H2519 H 0.32282 0.47963 0.58953 0.0
C2520 C 0.3595 0.41139 0.6201 0.0
C2521 C 0.37189 0.4047 0.63647 0.0
C2522 C 0.37865 0.41908 0.65159 0.0
C2523 C 0.37286 0.43968 0.65065 0.0
C2524 C 0.36038 0.44568 0.63446 0.0
C2525 C 0.35395 0.43199 0.61936 0.0
C2526 C 0.34076 0.44233 0.6035 0.0
C2527 C 0.3509 0.44149 0.58223 0.0
C2528 C 0.31888 0.43287 0.60296 0.0
C2529 C 0.34074 0.46399 0.61204 0.0
C2530 C 0.35202 0.46561 0.62997 0.0
C2531 C 0.35404 0.48413 0.6407 0.0
C2532 C 0.34456 0.50151 0.6327 0.0
C2533 C 0.33334 0.50026 0.61406 0.0
C2534 C 0.33132 0.48115 0.60379 0.0
H2535 H 0.75097 0.08999 0.10795 0.0
H2536 H 0.76245 0.08129 0.04291 0.0
H2537 H 0.72891 0.0962 0.03493 0.0
H2538 H 0.6966 0.07686 0.10541 0.0
H2539 H 0.68927 0.09554 0.12444 0.0
H2540 H 0.7145 0.08456 0.12532 0.0
H2541 H 0.73118 0.12092 0.1246 0.0
H2542 H 0.706 0.13201 0.12373 0.0
H2543 H 0.72468 0.13811 0.1042 0.0
H2544 H 0.69442 0.11159 0.03362 0.0
H2545 H 0.6604 0.12657 0.03906 0.0
H2546 H 0.67022 0.12535 0.10494 0.0
C2547 C 0.74641 0.09126 0.09205 0.0
C2548 C 0.75936 0.08439 0.07606 0.0
C2549 C 0.75278 0.08625 0.05544 0.0
C2550 C 0.73376 0.09478 0.05073 0.0
C2551 C 0.72134 0.10127 0.06677 0.0
C2552 C 0.72728 0.09958 0.08703 0.0
C2553 C 0.71063 0.10739 0.10127 0.0
C2554 C 0.70225 0.09005 0.11491 0.0
C2555 C 0.7186 0.1257 0.11421 0.0
C2556 C 0.69458 0.1139 0.08579 0.0
C2557 C 0.70114 0.11016 0.06601 0.0
C2558 C 0.68907 0.11459 0.04904 0.0
C2559 C 0.66971 0.12307 0.05232 0.0
C2560 C 0.66255 0.12714 0.07244 0.0
C2561 C 0.67523 0.12247 0.08938 0.0
H2562 H 0.64915 0.98026 0.89137 0.0
H2563 H 0.67441 0.00168 0.83386 0.0
H2564 H 0.66725 0.96781 0.81808 0.0
H2565 H 0.66289 0.92351 0.88516 0.0
H2566 H 0.63857 0.91558 0.89606 0.0
H2567 H 0.65107 0.93905 0.90469 0.0
H2568 H 0.61815 0.95913 0.89612 0.0
H2569 H 0.60563 0.93584 0.88756 0.0
H2570 H 0.60754 0.95742 0.87058 0.0
H2571 H 0.65099 0.936 0.80657 0.0
H2572 H 0.625 0.90878 0.79953 0.0
H2573 H 0.60931 0.90693 0.86392 0.0
C2574 C 0.65391 0.9774 0.87572 0.0
C2575 C 0.66254 -0.00673 0.86381 0.0
C2576 C 0.66788 -0.01047 0.84316 0.0
C2577 C 0.66407 0.97031 0.83417 0.0
C2578 C 0.6548 0.95509 0.84604 0.0
C2579 C 0.64976 0.95837 0.86639 0.0
C2580 C 0.63644 0.94095 0.87454 0.0
C2581 C 0.64794 0.92907 0.89109 0.0
C2582 C 0.61573 0.94881 0.88266 0.0
C2583 C 0.63363 0.92814 0.85522 0.0
C2584 C 0.64493 0.93627 0.83915 0.0
C2585 C 0.64259 0.92906 0.8191 0.0
C2586 C 0.6278 0.9137 0.81522 0.0
C2587 C 0.61567 0.90573 0.83131 0.0
C2588 C 0.61906 0.91243 0.85161 0.0
H2589 H 0.87104 0.0502 0.37947 0.0
H2590 H 0.82762 0.08563 0.34516 0.0
H2591 H 0.80065 0.05928 0.35105 0.0
H2592 H 0.86366 0.00975 0.35646 0.0
H2593 H 0.86514 -0.00917 0.37633 0.0
H2594 H 0.87768 0.01525 0.37986 0.0
H2595 H 0.85758 0.02243 0.41322 0.0
H2596 H 0.84579 -0.00273 0.41077 0.0
H2597 H 0.82992 0.01949 0.41348 0.0
H2598 H 0.783 0.02496 0.34996 0.0
H2599 H 0.77474 -0.01232 0.34681 0.0
H2600 H 0.83175 0.97395 0.37776 0.0
C2601 C 0.85537 0.053 0.37469 0.0
C2602 C 0.8512 0.06965 0.36197 0.0
C2603 C 0.83087 0.073 0.35527 0.0
C2604 C 0.81552 0.05797 0.35839 0.0
C2605 C 0.82089 0.04008 0.36851 0.0
C2606 C 0.84022 0.03787 0.37727 0.0
C2607 C 0.84396 0.01588 0.38311 0.0
C2608 C 0.86376 0.00747 0.37333 0.0
C2609 C 0.84432 0.01364 0.40654 0.0
C2610 C 0.82497 0.00578 0.37404 0.0
C2611 C 0.81136 0.01992 0.36653 0.0
C2612 C 0.79336 0.01382 0.35621 0.0
C2613 C 0.78898 -0.00726 0.35408 0.0
C2614 C 0.80307 0.97831 0.36142 0.0
C2615 C 0.82115 0.9849 0.3715 0.0
H2616 H 0.37351 0.22473 0.05074 0.0
H2617 H 0.33506 0.26327 0.08854 0.0
H2618 H 0.32973 0.23486 0.11252 0.0
H2619 H 0.34502 0.17285 0.06527 0.0
H2620 H 0.36933 0.16001 0.06443 0.0
H2621 H 0.36425 0.18048 0.04684 0.0
H2622 H 0.39758 0.19926 0.05908 0.0
H2623 H 0.40258 0.17924 0.07688 0.0
H2624 H 0.4008 0.20534 0.08595 0.0
H2625 H 0.33835 0.20823 0.13722 0.0
H2626 H 0.35677 0.18333 0.15857 0.0
H2627 H 0.38777 0.16024 0.10477 0.0
C2628 C 0.36317 0.22681 0.06355 0.0
C2629 C 0.35489 0.2462 0.06789 0.0
C2630 C 0.34155 0.24852 0.08486 0.0
C2631 C 0.33837 0.2324 0.09857 0.0
C2632 C 0.34812 0.21391 0.09477 0.0
C2633 C 0.35968 0.21075 0.07725 0.0
C2634 C 0.37101 0.19069 0.07822 0.0
C2635 C 0.36185 0.17508 0.06278 0.0
C2636 C 0.39435 0.19386 0.07486 0.0
C2637 C 0.36614 0.18445 0.09998 0.0
C2638 C 0.35237 0.19768 0.10907 0.0
C2639 C 0.34837 0.1972 0.13008 0.0
C2640 C 0.35897 0.18318 0.14212 0.0
C2641 C 0.37319 0.16981 0.13305 0.0
C2642 C 0.37636 0.16998 0.11174 0.0
H2643 H 0.54263 0.64586 0.8584 0.0
H2644 H 0.56647 0.5857 0.87075 0.0
H2645 H 0.53216 0.57004 0.86276 0.0
H2646 H 0.49072 0.63551 0.88036 0.0
H2647 H 0.47841 0.65113 0.86147 0.0
H2648 H 0.50431 0.65728 0.86975 0.0
H2649 H 0.51657 0.65592 0.83198 0.0
H2650 H 0.49082 0.64952 0.8236 0.0
H2651 H 0.51175 0.63301 0.81691 0.0
H2652 H 0.49656 0.56112 0.84909 0.0
H2653 H 0.46128 0.55966 0.83469 0.0
H2654 H 0.46049 0.62613 0.83379 0.0
C2655 C 0.54041 0.62944 0.8598 0.0
C2656 C 0.55687 0.61685 0.86515 0.0
C2657 C 0.55377 0.59545 0.8668 0.0
C2658 C 0.53444 0.5865 0.86226 0.0
C2659 C 0.51849 0.59933 0.85658 0.0
C2660 C 0.52118 0.62039 0.8558 0.0
C2661 C 0.50179 0.63079 0.84895 0.0
C2662 C 0.49331 0.64448 0.86616 0.0
C2663 C 0.50546 0.64302 0.82919 0.0
C2664 C 0.48797 0.61227 0.84514 0.0
C2665 C 0.49783 0.59425 0.84961 0.0
C2666 C 0.48855 0.57513 0.84591 0.0
C2667 C 0.46861 0.57446 0.8376 0.0
C2668 C 0.45818 0.5928 0.83328 0.0
C2669 C 0.468 0.61188 0.83722 0.0
H2670 H 0.11575 0.74956 0.55058 0.0
H2671 H 0.14705 0.70713 0.59007 0.0
H2672 H 0.1555 0.7354 0.61404 0.0
H2673 H 0.14883 0.79857 0.5664 0.0
H2674 H 0.12597 0.81371 0.56485 0.0
H2675 H 0.1295 0.79255 0.54729 0.0
H2676 H 0.09424 0.77712 0.55829 0.0
H2677 H 0.09071 0.79793 0.57587 0.0
H2678 H 0.08965 0.77195 0.58503 0.0
H2679 H 0.14949 0.76348 0.63836 0.0
H2680 H 0.13137 0.789 0.65941 0.0
H2681 H 0.10529 0.81497 0.60472 0.0
C2682 C 0.12531 0.74645 0.56376 0.0
C2683 C 0.13061 0.72612 0.56851 0.0
C2684 C 0.14288 0.72256 0.58601 0.0
C2685 C 0.1478 0.73861 0.59974 0.0
C2686 C 0.14073 0.75822 0.59554 0.0
C2687 C 0.13021 0.76233 0.57762 0.0
C2688 C 0.12093 0.78348 0.57837 0.0
C2689 C 0.13198 0.79793 0.56334 0.0
C2690 C 0.09752 0.78253 0.57417 0.0
C2691 C 0.12572 0.78962 0.60035 0.0
C2692 C 0.13781 0.77517 0.60979 0.0
C2693 C 0.14083 0.77535 0.63098 0.0
C2694 C 0.13048 0.78989 0.64286 0.0
C2695 C 0.11744 0.80418 0.63353 0.0
C2696 C 0.11594 0.80474 0.61201 0.0
H2697 H 0.01525 0.35724 0.35666 0.0
H2698 H 0.00962 0.41911 0.33365 0.0
H2699 H 0.97321 0.41912 0.34398 0.0
H2700 H 0.96957 0.33866 0.33875 0.0
H2701 H 0.96304 0.32275 0.3603 0.0
H2702 H -0.01042 0.32871 0.35484 0.0
H2703 H -0.00531 0.34357 0.39148 0.0
H2704 H 0.96816 0.33737 0.39722 0.0
H2705 H 0.97784 0.36325 0.40073 0.0
H2706 H 0.93627 0.40988 0.34975 0.0
H2707 H 0.90202 0.39316 0.35486 0.0
H2708 H 0.93169 0.33849 0.37631 0.0
C2709 C 0.00655 0.37103 0.3544 0.0
C2710 C 0.01526 0.3881 0.34421 0.0
C2711 C 0.00328 0.40578 0.34133 0.0
C2712 C 0.98257 0.40598 0.34721 0.0
C2713 C 0.97414 0.38854 0.35628 0.0
C2714 C -0.01415 0.37154 0.36032 0.0
C2715 C 0.97266 0.35416 0.36864 0.0
C2716 C 0.97379 0.33495 0.3548 0.0
C2717 C 0.9787 0.34931 0.39084 0.0
C2718 C 0.95162 0.36369 0.36764 0.0
C2719 C 0.95279 0.38357 0.36054 0.0
C2720 C 0.93516 0.39458 0.35595 0.0
C2721 C 0.91584 0.38499 0.35872 0.0
C2722 C 0.91449 0.36482 0.36626 0.0
C2723 C 0.93252 0.35417 0.37103 0.0
H2724 H 0.37641 0.785 0.32668 0.0
H2725 H 0.37396 0.83896 0.36596 0.0
H2726 H 0.36002 0.81767 0.39398 0.0
H2727 H 0.32969 0.75762 0.34916 0.0
H2728 H 0.3419 0.7332 0.3462 0.0
H2729 H 0.34709 0.75337 0.32813 0.0
H2730 H 0.38617 0.75017 0.33531 0.0
H2731 H 0.38113 0.7304 0.35369 0.0
H2732 H 0.39559 0.75311 0.36122 0.0
H2733 H 0.35139 0.78968 0.41913 0.0
H2734 H 0.34807 0.75748 0.43881 0.0
H2735 H 0.35805 0.7223 0.38311 0.0
C2736 C 0.37236 0.79248 0.34096 0.0
C2737 C 0.37633 0.81359 0.34417 0.0
C2738 C 0.37096 0.82279 0.36313 0.0
C2739 C 0.36301 0.81083 0.37913 0.0
C2740 C 0.36027 0.78983 0.37577 0.0
C2741 C 0.36448 0.7808 0.35701 0.0
C2742 C 0.36236 0.75772 0.35785 0.0
C2743 C 0.34418 0.75003 0.34455 0.0
C2744 C 0.38252 0.74726 0.35166 0.0
C2745 C 0.3578 0.75507 0.38034 0.0
C2746 C 0.35599 0.77372 0.39034 0.0
C2747 C 0.35251 0.775 0.41139 0.0
C2748 C 0.35078 0.7567 0.42245 0.0
C2749 C 0.35309 0.73755 0.41244 0.0
C2750 C 0.35651 0.73679 0.39115 0.0
H2751 H 0.00929 0.65149 0.13101 0.0
H2752 H 0.0174 0.58875 0.15031 0.0
H2753 H 0.9809 0.58077 0.14136 0.0
H2754 H 0.95857 0.65854 0.14864 0.0
H2755 H 0.95053 0.67296 0.12669 0.0
H2756 H 0.97716 0.67354 0.13443 0.0
H2757 H -0.01183 0.66131 0.09822 0.0
H2758 H 0.96161 0.66111 0.09024 0.0
H2759 H 0.9766 0.6383 0.08742 0.0
H2760 H 0.94308 0.58027 0.13076 0.0
H2761 H 0.90856 0.58606 0.11609 0.0
H2762 H 0.9261 0.64924 0.10368 0.0
C2763 C 0.00339 0.63606 0.13339 0.0
C2764 C 0.016 0.62077 0.14157 0.0
C2765 C 0.00791 0.60066 0.14406 0.0
C2766 C -0.01279 0.59605 0.13914 0.0
C2767 C 0.97505 0.61168 0.13149 0.0
C2768 C 0.98301 0.63117 0.12828 0.0
C2769 C 0.96717 0.64505 0.11903 0.0
C2770 C 0.96312 0.66362 0.13305 0.0
C2771 C 0.97378 0.65184 0.09745 0.0
C2772 C 0.94876 0.63056 0.1181 0.0
C2773 C 0.95358 0.61135 0.12526 0.0
C2774 C 0.93917 0.59526 0.12514 0.0
C2775 C 0.91957 0.59872 0.11687 0.0
C2776 C 0.91456 0.61816 0.10889 0.0
C2777 C 0.92927 0.63434 0.11 0.0
H2778 H 0.11017 0.23052 0.8984 0.0
H2779 H 0.08446 0.27672 0.85884 0.0
H2780 H 0.07479 0.24994 0.83358 0.0
H2781 H 0.12948 0.19671 0.85747 0.0
H2782 H 0.12239 0.17364 0.87093 0.0
H2783 H 0.12932 0.1966 0.8851 0.0
H2784 H 0.09451 0.19473 0.90438 0.0
H2785 H 0.0875 0.17176 0.89034 0.0
H2786 H 0.07083 0.19353 0.88991 0.0
H2787 H 0.06622 0.21866 0.81363 0.0
H2788 H 0.05692 0.18412 0.80093 0.0
H2789 H 0.08709 0.15756 0.85366 0.0
C2790 C 0.1027 0.23497 0.88431 0.0
C2791 C 0.09805 0.25564 0.88054 0.0
C2792 C 0.08803 0.26092 0.86208 0.0
C2793 C 0.08265 0.24587 0.84756 0.0
C2794 C 0.08729 0.22562 0.85178 0.0
C2795 C 0.09696 0.22007 0.86973 0.0
C2796 C 0.09864 0.19699 0.87112 0.0
C2797 C 0.12131 0.19062 0.87115 0.0
C2798 C 0.08718 0.18878 0.89006 0.0
C2799 C 0.08789 0.19048 0.85141 0.0
C2800 C 0.08185 0.20729 0.84036 0.0
C2801 C 0.07095 0.20533 0.82206 0.0
C2802 C 0.06568 0.18562 0.81502 0.0
C2803 C 0.07117 0.16812 0.82635 0.0
C2804 C 0.08274 0.17063 0.84461 0.0
H2805 H 0.53943 0.3622 0.60257 0.0
H2806 H 0.56533 0.30517 0.62329 0.0
H2807 H 0.53433 0.29858 0.64425 0.0
H2808 H 0.51203 0.37574 0.65032 0.0
H2809 H 0.49009 0.38534 0.63671 0.0
H2810 H 0.51535 0.38693 0.62536 0.0
H2811 H 0.50167 0.36739 0.59324 0.0
H2812 H 0.47643 0.36568 0.60447 0.0
H2813 H 0.48911 0.34271 0.5962 0.0
H2814 H 0.50008 0.29689 0.66085 0.0
H2815 H 0.46377 0.299 0.67093 0.0
H2816 H 0.45887 0.35662 0.6386 0.0
C2817 C 0.53874 0.34855 0.61188 0.0
C2818 C 0.55485 0.33426 0.61149 0.0
C2819 C 0.55318 0.31632 0.62342 0.0
C2820 C 0.53569 0.31251 0.63544 0.0
C2821 C 0.51995 0.32673 0.63524 0.0
C2822 C 0.52122 0.34435 0.62373 0.0
C2823 C 0.50131 0.35615 0.6248 0.0
C2824 C 0.50492 0.37729 0.63491 0.0
C2825 C 0.49156 0.35809 0.60341 0.0
C2826 C 0.48852 0.34217 0.63842 0.0
C2827 C 0.49975 0.32547 0.64447 0.0
C2828 C 0.49116 0.30995 0.65635 0.0
C2829 C 0.47045 0.3113 0.66194 0.0
C2830 C 0.45838 0.32799 0.65556 0.0
C2831 C 0.4677 0.3438 0.6439 0.0
H2832 H 0.06792 0.38205 0.24135 0.0
H2833 H 0.091 0.32697 0.26937 0.0
H2834 H 0.10812 0.31785 0.23675 0.0
H2835 H 0.06228 0.36243 0.18768 0.0
H2836 H 0.07139 0.3866 0.17766 0.0
H2837 H 0.05722 0.38593 0.20138 0.0
H2838 H 0.08726 0.4057 0.21943 0.0
H2839 H 0.1017 0.40609 0.19599 0.0
H2840 H 0.11277 0.39528 0.21871 0.0
H2841 H 0.12701 0.31776 0.20236 0.0
H2842 H 0.14525 0.32665 0.17017 0.0
H2843 H 0.11101 0.38296 0.16688 0.0
C2844 C 0.07589 0.36764 0.24051 0.0
C2845 C 0.078 0.35517 0.2579 0.0
C2846 C 0.08901 0.33669 0.25618 0.0
C2847 C 0.09882 0.33141 0.23771 0.0
C2848 C 0.09741 0.34476 0.2212 0.0
C2849 C 0.08603 0.36243 0.22247 0.0
C2850 C 0.08905 0.37575 0.20389 0.0
C2851 C 0.06878 0.37778 0.19194 0.0
C2852 C 0.09824 0.39694 0.20988 0.0
C2853 C 0.10433 0.36316 0.19212 0.0
C2854 C 0.10878 0.34516 0.20205 0.0
C2855 C 0.12341 0.3317 0.19436 0.0
C2856 C 0.13374 0.33689 0.17614 0.0
C2857 C 0.12963 0.35555 0.16612 0.0
C2858 C 0.11458 0.36862 0.1742 0.0
H2859 H 0.33339 0.40183 0.93892 0.0
H2860 H 0.33935 0.36209 0.88574 0.0
H2861 H 0.35832 0.33723 0.90686 0.0
H2862 H 0.38413 0.38875 0.96345 0.0
H2863 H 0.37288 0.39053 -0.01138 0.0
H2864 H 0.36383 0.40661 0.9683 0.0
H2865 H 0.32659 0.39295 0.97442 0.0
H2866 H 0.3355 0.37663 -0.00557 0.0
H2867 H 0.32133 0.36573 0.97304 0.0
H2868 H 0.37194 0.31466 0.9354 0.0
H2869 H 0.37921 0.29708 0.96815 0.0
H2870 H 0.36285 0.35199 0.00179 0.0
C2871 C 0.33915 0.38813 0.93158 0.0
C2872 C 0.33489 0.38374 0.91083 0.0
C2873 C 0.34263 0.36572 0.90167 0.0
C2874 C 0.35341 0.35157 0.91353 0.0
C2875 C 0.35657 0.356 0.93429 0.0
C2876 C 0.34994 0.37407 0.94309 0.0
C2877 C 0.35331 0.37457 0.96597 0.0
C2878 C 0.3695 0.39109 0.97193 0.0
C2879 C 0.33297 0.37763 0.97763 0.0
C2880 C 0.36151 0.35338 0.96898 0.0
C2881 C 0.36392 0.34302 0.95057 0.0
C2882 C 0.3704 0.32276 0.94985 0.0
C2883 C 0.37439 0.31288 0.96846 0.0
C2884 C 0.37132 0.3232 -0.01263 0.0
C2885 C 0.36509 0.34372 -0.01248 0.0
H2886 H 0.36835 0.60984 0.65743 0.0
H2887 H 0.30512 0.59196 0.67068 0.0
H2888 H 0.31067 0.60099 0.7071 0.0
H2889 H 0.38986 0.58729 0.69739 0.0
H2890 H 0.40939 0.60653 0.70312 0.0
H2891 H 0.39923 0.60416 0.6776 0.0
H2892 H 0.38906 0.64238 0.6784 0.0
H2893 H 0.39936 0.64491 0.70402 0.0
H2894 H 0.37311 0.65175 0.69889 0.0
H2895 H 0.32427 0.60669 0.74234 0.0
H2896 H 0.3455 0.60571 0.77378 0.0
H2897 H 0.40049 0.61721 0.73798 0.0
C2898 C 0.35546 0.6085 0.66786 0.0
C2899 C 0.33628 0.6003 0.66122 0.0
C2900 C 0.31993 0.59829 0.67543 0.0
C2901 C 0.32289 0.60355 0.69612 0.0
C2902 C 0.34225 0.6109 0.70233 0.0
C2903 C 0.35826 0.61346 0.68859 0.0
C2904 C 0.37832 0.61863 0.69955 0.0
C2905 C 0.39517 0.60322 0.69409 0.0
C2906 C 0.38537 0.64073 0.69494 0.0
C2907 C 0.37149 0.61673 0.72161 0.0
C2908 C 0.35043 0.61329 0.72288 0.0
C2909 C 0.34067 0.60981 0.74156 0.0
C2910 C 0.35281 0.6093 0.7593 0.0
C2911 C 0.37445 0.61168 0.75809 0.0
C2912 C 0.38389 0.61578 0.73915 0.0
H2913 H 0.10678 0.66683 0.47086 0.0
H2914 H 0.07454 0.62345 0.50968 0.0
H2915 H 0.07051 0.59945 0.48042 0.0
H2916 H 0.07935 0.65252 0.42066 0.0
H2917 H 0.10297 0.65503 0.40636 0.0
H2918 H 0.09878 0.67107 0.42857 0.0
H2919 H 0.13282 0.6587 0.44476 0.0
H2920 H 0.13719 0.64307 0.42249 0.0
H2921 H 0.13676 0.63158 0.44751 0.0
H2922 H 0.07547 0.57801 0.45015 0.0
H2923 H 0.09296 0.55905 0.42261 0.0
H2924 H 0.12223 0.61536 0.40221 0.0
C2925 C 0.09834 0.65251 0.47285 0.0
C2926 C 0.09072 0.64691 0.49225 0.0
C2927 C 0.08034 0.6279 0.49477 0.0
C2928 C 0.07778 0.61432 0.47821 0.0
C2929 C 0.08576 0.61999 0.45924 0.0
C2930 C 0.09599 0.63857 0.45646 0.0
C2931 C 0.10625 0.63934 0.43562 0.0
C2932 C 0.09623 0.65545 0.422 0.0
C2933 C 0.12963 0.64339 0.43773 0.0
C2934 C 0.1014 0.61781 0.42777 0.0
C2935 C 0.08889 0.6072 0.44134 0.0
C2936 C 0.08474 0.58626 0.43908 0.0
C2937 C 0.09465 0.5756 0.42336 0.0
C2938 C 0.10846 0.58592 0.41014 0.0
C2939 C 0.11101 0.6074 0.41165 0.0
H2940 H 0.10103 0.59992 0.21704 0.0
H2941 H 0.09046 0.66478 0.22712 0.0
H2942 H 0.10314 0.66192 0.26253 0.0
H2943 H 0.0849 0.58383 0.26754 0.0
H2944 H 0.10402 0.56428 0.2695 0.0
H2945 H 0.09429 0.57134 0.24473 0.0
H2946 H 0.13147 0.57912 0.23241 0.0
H2947 H 0.14135 0.57212 0.25714 0.0
H2948 H 0.14754 0.59698 0.24676 0.0
H2949 H 0.11724 0.65246 0.29648 0.0
H2950 H 0.13105 0.63671 0.32761 0.0
H2951 H 0.13206 0.57765 0.29632 0.0
C2952 C 0.10143 0.61352 0.22669 0.0
C2953 C 0.09478 0.6326 0.21926 0.0
C2954 C 0.0954 0.64999 0.23244 0.0
C2955 C 0.10262 0.64855 0.25259 0.0
C2956 C 0.10905 0.62957 0.25944 0.0
C2957 C 0.10844 0.61232 0.24698 0.0
C2958 C 0.11599 0.59373 0.25837 0.0
C2959 C 0.09877 0.57733 0.26014 0.0
C2960 C 0.13523 0.58498 0.24806 0.0
C2961 C 0.12113 0.60332 0.27908 0.0
C2962 C 0.11699 0.62401 0.27929 0.0
C2963 C 0.1205 0.63626 0.29656 0.0
C2964 C 0.12839 0.62714 0.31418 0.0
C2965 C 0.13266 0.60593 0.31447 0.0
C2966 C 0.12897 0.5939 0.29661 0.0
H2967 H 0.13468 0.34045 0.06507 0.0
H2968 H 0.09267 0.39055 0.05876 0.0
H2969 H 0.07352 0.3712 0.0319 0.0
H2970 H 0.14316 0.33459 0.01698 0.0
H2971 H 0.14518 0.30709 0.01546 0.0
H2972 H 0.15016 0.32011 0.03927 0.0
H2973 H 0.12241 0.29768 0.05723 0.0
H2974 H 0.11746 0.28429 0.03336 0.0
H2975 H 0.09664 0.29617 0.04695 0.0
H2976 H 0.06532 0.35186 0.00054 0.0
H2977 H 0.06996 0.33576 0.96669 0.0
H2978 H 0.11864 0.29862 -0.00861 0.0
C2979 C 0.12068 0.34664 0.0588 0.0
C2980 C 0.11466 0.36657 0.06415 0.0
C2981 C 0.09707 0.37502 0.05505 0.0
C2982 C 0.0861 0.36407 0.03988 0.0
C2983 C 0.09311 0.34483 0.03389 0.0
C2984 C 0.10996 0.33607 0.04323 0.0
C2985 C 0.11732 0.31771 0.03108 0.0
C2986 C 0.14029 0.32005 0.02535 0.0
C2987 C 0.1132 0.29778 0.04286 0.0
C2988 C 0.10348 0.31887 0.01245 0.0
C2989 C 0.08894 0.33393 0.01483 0.0
C2990 C 0.07624 0.33967 -0.0013 0.0
C2991 C 0.07907 0.33048 0.97944 0.0
C2992 C 0.09479 0.31603 0.97638 0.0
C2993 C 0.10641 0.3095 -0.00666 0.0
H2994 H 0.32789 0.39982 0.79322 0.0
H2995 H 0.33057 0.34507 0.83044 0.0
H2996 H 0.34768 0.32687 0.8023 0.0
H2997 H 0.31672 0.37317 0.74563 0.0
H2998 H 0.33211 0.39021 0.73007 0.0
H2999 H 0.32059 0.39957 0.75335 0.0
H3000 H 0.35648 0.41182 0.76649 0.0
H3001 H 0.36808 0.4025 0.74323 0.0
H3002 H 0.37714 0.39381 0.76773 0.0
H3003 H 0.364 0.3143 0.77087 0.0
H3004 H 0.37829 0.30739 0.73682 0.0
H3005 H 0.36497 0.36966 0.7185 0.0
C3006 C 0.33219 0.38404 0.79543 0.0
C3007 C 0.32789 0.37387 0.81406 0.0
C3008 C 0.33359 0.35317 0.81631 0.0
C3009 C 0.34339 0.34269 0.80043 0.0
C3010 C 0.3473 0.35304 0.78229 0.0
C3011 C 0.34186 0.3732 0.77956 0.0
C3012 C 0.34743 0.38032 0.75812 0.0
C3013 C 0.32806 0.38616 0.74609 0.0
C3014 C 0.36323 0.39817 0.75896 0.0
C3015 C 0.35689 0.36101 0.74938 0.0
C3016 C 0.35665 0.34556 0.76371 0.0
C3017 C 0.3643 0.32625 0.75948 0.0
C3018 C 0.37239 0.3225 0.74002 0.0
C3019 C 0.37277 0.33796 0.72488 0.0
C3020 C 0.36493 0.35753 0.7297 0.0
H3021 H 0.37914 0.6306 0.47355 0.0
H3022 H 0.37612 0.68618 0.50992 0.0
H3023 H 0.38123 0.6663 0.54135 0.0
H3024 H 0.34723 0.60508 0.49899 0.0
H3025 H 0.35832 0.57995 0.49834 0.0
H3026 H 0.36479 0.59798 0.47884 0.0
H3027 H 0.40353 0.59481 0.48714 0.0
H3028 H 0.39724 0.57631 0.50664 0.0
H3029 H 0.41258 0.59879 0.51303 0.0
H3030 H 0.37471 0.64119 0.56794 0.0
H3031 H 0.3565 0.61392 0.58675 0.0
H3032 H 0.36095 0.57365 0.53379 0.0
C3033 C 0.38093 0.6386 0.48808 0.0
C3034 C 0.3775 0.65982 0.48945 0.0
C3035 C 0.37896 0.66991 0.50865 0.0
C3036 C 0.38197 0.65871 0.52656 0.0
C3037 C 0.38332 0.63742 0.525 0.0
C3038 C 0.38319 0.62743 0.50613 0.0
C3039 C 0.37969 0.60455 0.50858 0.0
C3040 C 0.36141 0.59646 0.49544 0.0
C3041 C 0.39944 0.59293 0.50356 0.0
C3042 C 0.37503 0.60366 0.53128 0.0
C3043 C 0.37846 0.62252 0.54068 0.0
C3044 C 0.37255 0.62621 0.5609 0.0
C3045 C 0.36205 0.61063 0.57146 0.0
C3046 C 0.35714 0.59173 0.56162 0.0
C3047 C 0.36459 0.58794 0.54166 0.0
H3048 H 0.17237 0.10765 0.35143 0.0
H3049 H 0.1707 0.14197 0.40873 0.0
H3050 H 0.20699 0.13396 0.41511 0.0
H3051 H 0.20274 0.06708 0.37112 0.0
H3052 H 0.21716 0.06318 0.34788 0.0
H3053 H 0.19148 0.07304 0.34666 0.0
H3054 H 0.20524 0.1045 0.32664 0.0
H3055 H 0.23101 0.09481 0.32796 0.0
H3056 H 0.22574 0.1202 0.33747 0.0
H3057 H 0.24204 0.12164 0.41646 0.0
H3058 H 0.27434 0.10271 0.41436 0.0
H3059 H 0.25461 0.07512 0.35664 0.0
C3060 C 0.17977 0.11354 0.36522 0.0
C3061 C 0.16881 0.12546 0.37961 0.0
C3062 C 0.1788 0.1327 0.39762 0.0
C3063 C 0.19945 0.1284 0.40128 0.0
C3064 C 0.20984 0.11665 0.38689 0.0
C3065 C 0.2004 0.10904 0.36934 0.0
C3066 C 0.21486 0.09537 0.35735 0.0
C3067 C 0.20603 0.07337 0.35566 0.0
C3068 C 0.21949 0.10426 0.33609 0.0
C3069 C 0.23378 0.0964 0.37108 0.0
C3070 C 0.23045 0.10902 0.38786 0.0
C3071 C 0.24493 0.1118 0.40338 0.0
C3072 C 0.26316 0.10095 0.40208 0.0
C3073 C 0.26681 0.08754 0.38538 0.0
C3074 C 0.25219 0.08552 0.3694 0.0
H3075 H 0.74648 0.40511 0.61245 0.0
H3076 H 0.77814 0.3507 0.59265 0.0
H3077 H 0.74517 0.33098 0.59298 0.0
H3078 H 0.70517 0.37621 0.64462 0.0
H3079 H 0.68613 0.39452 0.63735 0.0
H3080 H 0.71267 0.4026 0.64062 0.0
H3081 H 0.71256 0.41726 0.60388 0.0
H3082 H 0.68631 0.4089 0.60026 0.0
H3083 H 0.70584 0.40061 0.58257 0.0
H3084 H 0.70848 0.31944 0.58887 0.0
H3085 H 0.67128 0.31647 0.58165 0.0
H3086 H 0.66325 0.37869 0.60393 0.0
C3087 C 0.74648 0.3888 0.6092 0.0
C3088 C 0.76467 0.37917 0.60299 0.0
C3089 C 0.7643 0.35806 0.59799 0.0
C3090 C 0.74567 0.3468 0.59811 0.0
C3091 C 0.72771 0.35691 0.60357 0.0
C3092 C 0.72804 0.37735 0.60947 0.0
C3093 C 0.70645 0.38524 0.61233 0.0
C3094 C 0.70236 0.38992 0.63508 0.0
C3095 C 0.70258 0.4041 0.59895 0.0
C3096 C 0.69392 0.36673 0.60515 0.0
C3097 C 0.70643 0.35031 0.60088 0.0
C3098 C 0.69851 0.33203 0.59263 0.0
C3099 C 0.67734 0.33054 0.58849 0.0
C3100 C 0.66434 0.34738 0.59221 0.0
C3101 C 0.67277 0.36555 0.60099 0.0
H3102 H 0.39064 0.92932 0.33205 0.0
H3103 H 0.38447 0.89604 0.38913 0.0
H3104 H 0.36584 0.92508 0.40427 0.0
H3105 H 0.39872 0.97963 0.35517 0.0
H3106 H 0.3843 -0.00752 0.33565 0.0
H3107 H 0.3975 0.96921 0.3295 0.0
H3108 H 0.36323 0.95295 0.31615 0.0
H3109 H 0.34988 0.9761 0.3225 0.0
H3110 H 0.34114 0.95194 0.33283 0.0
H3111 H 0.34681 0.95692 0.41275 0.0
H3112 H 0.33114 -0.00913 0.41523 0.0
H3113 H 0.3501 0.00387 0.35278 0.0
C3114 C 0.38553 0.92818 0.3478 0.0
C3115 C 0.38899 0.91038 0.3594 0.0
C3116 C 0.38205 0.90953 0.37995 0.0
C3117 C 0.37137 0.9259 0.38866 0.0
C3118 C 0.36787 0.94303 0.37666 0.0
C3119 C 0.37493 0.94441 0.35677 0.0
C3120 C 0.36921 0.96462 0.34724 0.0
C3121 C 0.38859 0.97723 0.34156 0.0
C3122 C 0.35502 0.96119 0.32857 0.0
C3123 C 0.35779 0.97438 0.36491 0.0
C3124 C 0.35709 0.96159 0.38166 0.0
C3125 C 0.34733 0.96712 0.39978 0.0
C3126 C 0.33841 -0.01355 0.40098 0.0
C3127 C 0.3394 0.00011 0.3842 0.0
C3128 C 0.34903 -0.00619 0.36585 0.0
H3129 H 0.79544 0.59694 0.06145 0.0
H3130 H 0.80895 0.64416 0.10704 0.0
H3131 H 0.77284 0.6425 0.11872 0.0
H3132 H 0.74246 0.61467 0.04973 0.0
H3133 H 0.73259 0.58888 0.04617 0.0
H3134 H 0.75909 0.59496 0.04016 0.0
H3135 H 0.7711 0.56645 0.06461 0.0
H3136 H 0.7447 0.56022 0.07054 0.0
H3137 H 0.76257 0.56665 0.09089 0.0
H3138 H 0.737 0.63209 0.12876 0.0
H3139 H 0.70325 0.6149 0.13496 0.0
H3140 H 0.71169 0.57692 0.08099 0.0
C3141 C 0.7907 0.60707 0.07373 0.0
C3142 C 0.80496 0.62065 0.08338 0.0
C3143 C 0.79822 0.63375 0.09934 0.0
C3144 C 0.77774 0.63293 0.10608 0.0
C3145 C 0.76407 0.61928 0.09636 0.0
C3146 C 0.77017 0.6068 0.08033 0.0
C3147 C 0.75257 0.59298 0.07301 0.0
C3148 C 0.74631 0.59819 0.05096 0.0
C3149 C 0.75807 0.57024 0.07489 0.0
C3150 C 0.73597 0.5989 0.08811 0.0
C3151 C 0.74288 0.61419 0.10139 0.0
C3152 C 0.73117 0.62055 0.1181 0.0
C3153 C 0.71208 0.61076 0.12153 0.0
C3154 C 0.70483 0.59511 0.10809 0.0
C3155 C 0.71669 0.58942 0.09097 0.0
H3156 H 0.60517 0.56127 0.36721 0.0
H3157 H 0.54488 0.53601 0.35146 0.0
H3158 H 0.55326 0.50401 0.36929 0.0
H3159 H 0.63168 0.51926 0.35549 0.0
H3160 H 0.65058 0.52163 0.37571 0.0
H3161 H 0.63794 0.544 0.36668 0.0
H3162 H 0.62603 0.5521 0.40375 0.0
H3163 H 0.63848 0.52942 0.41282 0.0
H3164 H 0.61151 0.53308 0.4178 0.0
H3165 H 0.5697 0.47336 0.38384 0.0
H3166 H 0.59413 0.4454 0.38805 0.0
H3167 H 0.64444 0.48982 0.39302 0.0
C3168 C 0.59351 0.54923 0.36806 0.0
C3169 C 0.57434 0.55115 0.35809 0.0
C3170 C 0.55967 0.53486 0.35904 0.0
C3171 C 0.56419 0.51673 0.36937 0.0
C3172 C 0.58343 0.51514 0.37872 0.0
C3173 C 0.59791 0.53095 0.37805 0.0
C3174 C 0.61858 0.52422 0.3861 0.0
C3175 C 0.63567 0.52745 0.37003 0.0
C3176 C 0.62396 0.53537 0.40632 0.0
C3177 C 0.61395 0.50172 0.38973 0.0
C3178 C 0.59333 0.49703 0.3864 0.0
C3179 C 0.58578 0.4769 0.38684 0.0
C3180 C 0.59982 0.46106 0.38934 0.0
C3181 C 0.62123 0.46545 0.39073 0.0
C3182 C 0.62815 0.48607 0.39216 0.0
H3183 H 0.20279 0.88338 0.88067 0.0
H3184 H 0.2002 0.88588 0.8142 0.0
H3185 H 0.23564 0.87363 0.81221 0.0
H3186 H 0.25377 0.90183 0.88579 0.0
H3187 H 0.26103 0.88532 0.90648 0.0
H3188 H 0.23451 0.89223 0.90329 0.0
H3189 H 0.22351 0.85391 0.9016 0.0
H3190 H 0.24998 0.84686 0.90513 0.0
H3191 H 0.23562 0.83714 0.88332 0.0
H3192 H 0.27144 0.86517 0.81674 0.0
H3193 H 0.30626 0.85665 0.82735 0.0
H3194 H 0.28738 0.85825 0.8913 0.0
C3195 C 0.20959 0.88087 0.86574 0.0
C3196 C 0.19881 0.88565 0.84757 0.0
C3197 C 0.20824 0.88247 0.8283 0.0
C3198 C 0.22835 0.87549 0.82699 0.0
C3199 C 0.23885 0.87168 0.84509 0.0
C3200 C 0.22987 0.87391 0.86413 0.0
C3201 C 0.24524 0.86944 0.88106 0.0
C3202 C 0.24884 0.88833 0.89497 0.0
C3203 C 0.23817 0.85072 0.89351 0.0
C3204 C 0.26428 0.8648 0.86844 0.0
C3205 C 0.26003 0.86627 0.84776 0.0
C3206 C 0.27496 0.86365 0.83287 0.0
C3207 C 0.2948 0.85892 0.83915 0.0
C3208 C 0.29967 0.85664 0.86022 0.0
C3209 C 0.28416 0.85981 0.8751 0.0
H3210 H 0.34911 0.97272 0.11283 0.0
H3211 H 0.31443 -0.00921 0.05917 0.0
H3212 H 0.32485 0.0269 0.06551 0.0
H3213 H 0.33681 0.01512 0.14441 0.0
H3214 H 0.36194 0.01734 0.15611 0.0
H3215 H 0.35254 -0.0072 0.14686 0.0
H3216 H 0.38491 -0.01081 0.12404 0.0
H3217 H 0.39452 0.01365 0.13334 0.0
H3218 H 0.39148 0.00919 0.10619 0.0
H3219 H 0.33892 0.06102 0.07787 0.0
H3220 H 0.35557 0.09073 0.0954 0.0
H3221 H 0.38002 0.05032 0.14153 0.0
C3222 C 0.34377 0.98422 0.10232 0.0
C3223 C 0.33093 0.97891 0.0855 0.0
C3224 C 0.3243 -0.00553 0.07214 0.0
C3225 C 0.33012 0.01502 0.07562 0.0
C3226 C 0.34259 0.01972 0.09249 0.0
C3227 C 0.3494 0.00476 0.10557 0.0
C3228 C 0.36251 0.01385 0.1227 0.0
C3229 C 0.35286 0.00952 0.14376 0.0
C3230 C 0.38466 0.006 0.12148 0.0
C3231 C 0.36168 0.03635 0.11746 0.0
C3232 C 0.35032 0.03939 0.09985 0.0
C3233 C 0.34782 0.05883 0.09169 0.0
C3234 C 0.35733 0.07558 0.10174 0.0
C3235 C 0.36895 0.07278 0.11986 0.0
C3236 C 0.371 0.05292 0.12785 0.0
H3237 H 0.10292 0.90872 0.59811 0.0
H3238 H 0.08564 0.91671 0.66192 0.0
H3239 H 0.09488 0.95344 0.65999 0.0
H3240 H 0.14668 0.94275 0.5994 0.0
H3241 H 0.14244 0.95268 0.57409 0.0
H3242 H 0.1338 0.92708 0.58021 0.0
H3243 H 0.09674 0.93595 0.56897 0.0
H3244 H 0.10528 0.9616 0.56284 0.0
H3245 H 0.08429 0.95765 0.58049 0.0
H3246 H 0.10648 -0.0108 0.65144 0.0
H3247 H 0.12033 0.0214 0.63697 0.0
H3248 H 0.13043 -0.00972 0.5788 0.0
C3249 C 0.10099 0.9182 0.61165 0.0
C3250 C 0.09352 0.90977 0.63016 0.0
C3251 C 0.09132 0.92275 0.64755 0.0
C3252 C 0.0965 0.94367 0.64662 0.0
C3253 C 0.10386 0.95146 0.62819 0.0
C3254 C 0.10613 0.93915 0.61101 0.0
C3255 C 0.11479 0.95133 0.59322 0.0
C3256 C 0.13567 0.94296 0.58634 0.0
C3257 C 0.09935 0.95165 0.57533 0.0
C3258 C 0.11724 0.97233 0.60317 0.0
C3259 C 0.11071 0.97209 0.6233 0.0
C3260 C 0.11161 -0.0104 0.63568 0.0
C3261 C 0.11951 0.00783 0.6273 0.0
C3262 C 0.12652 0.00841 0.60675 0.0
C3263 C 0.12524 -0.00963 0.59456 0.0
loop_
_geom_bond_atom_site_label_1
_geom_bond_atom_site_label_2
_geom_bond_distance
_geom_bond_site_symmetry_2
_ccdc_geom_bond_type
Zn0 O3 2.031 . S
Zn0 O5 2.049 . S
Zn0 O10 2.067 . S
Zn1 O2 1.962 . S
Zn1 O4 1.986 . S
Zn1 O6 1.996 . S
Zn1 O9 1.943 . S
O2 Zn1 1.962 . S
O2 C7 1.254 . S
O3 Zn0 2.031 . S
O3 C7 1.269 . S
O4 Zn1 1.986 . S
O4 C11 1.262 . S
O5 Zn0 2.049 . S
O5 C13 1.260 . S
O6 Zn1 1.996 . S
O6 C13 1.257 . S
C7 O2 1.254 . S
C7 O3 1.269 . S
C8 O9 1.249 . S
C8 O10 1.270 . S
O9 Zn1 1.943 . S
O9 C8 1.249 . S
O10 Zn0 2.067 . S
O10 C8 1.270 . S
C11 O4 1.262 . S
C11 O12 1.232 . S
O12 C11 1.232 . S
C13 O5 1.260 . S
C13 O6 1.257 . S
Zn14 O17 2.031 . S
Zn14 O19 2.049 . S
Zn14 O24 2.067 . S
Zn15 O16 1.962 . S
Zn15 O18 1.986 . S
Zn15 O20 1.996 . S
Zn15 O23 1.943 . S
O16 Zn15 1.962 . S
O16 C21 1.254 . S
O17 Zn14 2.031 . S
O17 C21 1.269 . S
O18 Zn15 1.986 . S
O18 C25 1.262 . S
O19 Zn14 2.049 . S
O19 C27 1.260 . S
O20 Zn15 1.996 . S
O20 C27 1.257 . S
C21 O16 1.254 . S
C21 O17 1.269 . S
C22 O23 1.249 . S
C22 O24 1.270 . S
O23 Zn15 1.943 . S
O23 C22 1.249 . S
O24 Zn14 2.067 . S
O24 C22 1.270 . S
C25 O18 1.262 . S
C25 O26 1.232 . S
O26 C25 1.232 . S
C27 O19 1.260 . S
C27 O20 1.257 . S
Zn28 O31 2.031 . S
Zn28 O33 2.049 . S
Zn28 O38 2.067 . S
Zn29 O30 1.962 . S
Zn29 O32 1.986 . S
Zn29 O34 1.996 . S
Zn29 O37 1.943 . S
O30 Zn29 1.962 . S
O30 C35 1.254 . S
O31 Zn28 2.031 . S
O31 C35 1.269 . S
O32 Zn29 1.986 . S
O32 C39 1.262 . S
O33 Zn28 2.049 . S
O33 C41 1.260 . S
O34 Zn29 1.996 . S
O34 C41 1.257 . S
C35 O30 1.254 . S
C35 O31 1.269 . S
C36 O37 1.249 . S
C36 O38 1.270 . S
O37 Zn29 1.943 . S
O37 C36 1.249 . S
O38 Zn28 2.067 . S
O38 C36 1.270 . S
C39 O32 1.262 . S
C39 O40 1.232 . S
O40 C39 1.232 . S
C41 O33 1.260 . S
C41 O34 1.257 . S
Zn42 O45 2.031 . S
Zn42 O47 2.049 . S
Zn42 O52 2.067 . S
Zn43 O44 1.962 . S
Zn43 O46 1.986 . S
Zn43 O48 1.996 . S
Zn43 O51 1.943 . S
O44 Zn43 1.962 . S
O44 C49 1.254 . S
O45 Zn42 2.031 . S
O45 C49 1.269 . S
O46 Zn43 1.986 . S
O46 C53 1.262 . S
O47 Zn42 2.049 . S
O47 C55 1.260 . S
O48 Zn43 1.996 . S
O48 C55 1.257 . S
C49 O44 1.254 . S
C49 O45 1.269 . S
C50 O51 1.249 . S
C50 O52 1.270 . S
O51 Zn43 1.943 . S
O51 C50 1.249 . S
O52 Zn42 2.067 . S
O52 C50 1.270 . S
C53 O46 1.262 . S
C53 O54 1.232 . S
O54 C53 1.232 . S
C55 O47 1.260 . S
C55 O48 1.257 . S
Zn56 O59 2.031 . S
Zn56 O61 2.049 . S
Zn56 O66 2.067 . S
Zn57 O58 1.962 . S
Zn57 O60 1.986 . S
Zn57 O62 1.996 . S
Zn57 O65 1.943 . S
O58 Zn57 1.962 . S
O58 C63 1.254 . S
O59 Zn56 2.031 . S
O59 C63 1.269 . S
O60 Zn57 1.986 . S
O60 C67 1.262 . S
O61 Zn56 2.049 . S
O61 C69 1.260 . S
O62 Zn57 1.996 . S
O62 C69 1.257 . S
C63 O58 1.254 . S
C63 O59 1.269 . S
C64 O65 1.249 . S
C64 O66 1.270 . S
O65 Zn57 1.943 . S
O65 C64 1.249 . S
O66 Zn56 2.067 . S
O66 C64 1.270 . S
C67 O60 1.262 . S
C67 O68 1.232 . S
O68 C67 1.232 . S
C69 O61 1.260 . S
C69 O62 1.257 . S
Zn70 O73 2.031 . S
Zn70 O75 2.049 . S
Zn70 O80 2.067 . S
Zn71 O72 1.962 . S
Zn71 O74 1.986 . S
Zn71 O76 1.996 . S
Zn71 O79 1.943 . S
O72 Zn71 1.962 . S
O72 C77 1.254 . S
O73 Zn70 2.031 . S
O73 C77 1.269 . S
O74 Zn71 1.986 . S
O74 C81 1.262 . S
O75 Zn70 2.049 . S
O75 C83 1.260 . S
O76 Zn71 1.996 . S
O76 C83 1.257 . S
C77 O72 1.254 . S
C77 O73 1.269 . S
C78 O79 1.249 . S
C78 O80 1.270 . S
O79 Zn71 1.943 . S
O79 C78 1.249 . S
O80 Zn70 2.067 . S
O80 C78 1.270 . S
C81 O74 1.262 . S
C81 O82 1.232 . S
O82 C81 1.232 . S
C83 O75 1.260 . S
C83 O76 1.257 . S
Zn84 O87 2.031 . S
Zn84 O89 2.049 . S
Zn84 O94 2.067 . S
Zn85 O86 1.962 . S
Zn85 O88 1.986 . S
Zn85 O90 1.996 . S
Zn85 O93 1.943 . S
O86 Zn85 1.962 . S
O86 C91 1.254 . S
O87 Zn84 2.031 . S
O87 C91 1.269 . S
O88 Zn85 1.986 . S
O88 C95 1.262 . S
O89 Zn84 2.049 . S
O89 C97 1.260 . S
O90 Zn85 1.996 . S
O90 C97 1.257 . S
C91 O86 1.254 . S
C91 O87 1.269 . S
C92 O93 1.249 . S
C92 O94 1.270 . S
O93 Zn85 1.943 . S
O93 C92 1.249 . S
O94 Zn84 2.067 . S
O94 C92 1.270 . S
C95 O88 1.262 . S
C95 O96 1.232 . S
O96 C95 1.232 . S
C97 O89 1.260 . S
C97 O90 1.257 . S
Zn98 O101 2.031 . S
Zn98 O103 2.049 . S
Zn98 O108 2.067 . S
Zn99 O100 1.962 . S
Zn99 O102 1.986 . S
Zn99 O104 1.996 . S
Zn99 O107 1.943 . S
O100 Zn99 1.962 . S
O100 C105 1.254 . S
O101 Zn98 2.031 . S
O101 C105 1.269 . S
O102 Zn99 1.986 . S
O102 C109 1.262 . S
O103 Zn98 2.049 . S
O103 C111 1.260 . S
O104 Zn99 1.996 . S
O104 C111 1.257 . S
C105 O100 1.254 . S
C105 O101 1.269 . S
C106 O107 1.249 . S
C106 O108 1.270 . S
O107 Zn99 1.943 . S
O107 C106 1.249 . S
O108 Zn98 2.067 . S
O108 C106 1.270 . S
C109 O102 1.262 . S
C109 O110 1.232 . S
O110 C109 1.232 . S
C111 O103 1.260 . S
C111 O104 1.257 . S
Zn112 O115 2.031 . S
Zn112 O117 2.049 . S
Zn112 O122 2.067 . S
Zn113 O114 1.962 . S
Zn113 O116 1.986 . S
Zn113 O118 1.996 . S
Zn113 O121 1.943 . S
O114 Zn113 1.962 . S
O114 C119 1.254 . S
O115 Zn112 2.031 . S
O115 C119 1.269 . S
O116 Zn113 1.986 . S
O116 C123 1.262 . S
O117 Zn112 2.049 . S
O117 C125 1.260 . S
O118 Zn113 1.996 . S
O118 C125 1.257 . S
C119 O114 1.254 . S
C119 O115 1.269 . S
C120 O121 1.249 . S
C120 O122 1.270 . S
O121 Zn113 1.943 . S
O121 C120 1.249 . S
O122 Zn112 2.067 . S
O122 C120 1.270 . S
C123 O116 1.262 . S
C123 O124 1.232 . S
O124 C123 1.232 . S
C125 O117 1.260 . S
C125 O118 1.257 . S
Zn126 O129 2.031 . S
Zn126 O131 2.049 . S
Zn126 O136 2.067 . S
Zn127 O128 1.962 . S
Zn127 O130 1.986 . S
Zn127 O132 1.996 . S
Zn127 O135 1.943 . S
O128 Zn127 1.962 . S
O128 C133 1.254 . S
O129 Zn126 2.031 . S
O129 C133 1.269 . S
O130 Zn127 1.986 . S
O130 C137 1.262 . S
O131 Zn126 2.049 . S
O131 C139 1.260 . S
O132 Zn127 1.996 . S
O132 C139 1.257 . S
C133 O128 1.254 . S
C133 O129 1.269 . S
C134 O135 1.249 . S
C134 O136 1.270 . S
O135 Zn127 1.943 . S
O135 C134 1.249 . S
O136 Zn126 2.067 . S
O136 C134 1.270 . S
C137 O130 1.262 . S
C137 O138 1.232 . S
O138 C137 1.232 . S
C139 O131 1.260 . S
C139 O132 1.257 . S
Zn140 O143 2.031 . S
Zn140 O145 2.049 . S
Zn140 O150 2.067 . S
Zn141 O142 1.962 . S
Zn141 O144 1.986 . S
Zn141 O146 1.996 . S
Zn141 O149 1.943 . S
O142 Zn141 1.962 . S
O142 C147 1.254 . S
O143 Zn140 2.031 . S
O143 C147 1.269 . S
O144 Zn141 1.986 . S
O144 C151 1.262 . S
O145 Zn140 2.049 . S
O145 C153 1.260 . S
O146 Zn141 1.996 . S
O146 C153 1.257 . S
C147 O142 1.254 . S
C147 O143 1.269 . S
C148 O149 1.249 . S
C148 O150 1.270 . S
O149 Zn141 1.943 . S
O149 C148 1.249 . S
O150 Zn140 2.067 . S
O150 C148 1.270 . S
C151 O144 1.262 . S
C151 O152 1.232 . S
O152 C151 1.232 . S
C153 O145 1.260 . S
C153 O146 1.257 . S
Zn154 O157 2.031 . S
Zn154 O159 2.049 . S
Zn154 O164 2.067 . S
Zn155 O156 1.962 . S
Zn155 O158 1.986 . S
Zn155 O160 1.996 . S
Zn155 O163 1.943 . S
O156 Zn155 1.962 . S
O156 C161 1.254 . S
O157 Zn154 2.031 . S
O157 C161 1.269 . S
O158 Zn155 1.986 . S
O158 C165 1.262 . S
O159 Zn154 2.049 . S
O159 C167 1.260 . S
O160 Zn155 1.996 . S
O160 C167 1.257 . S
C161 O156 1.254 . S
C161 O157 1.269 . S
C162 O163 1.249 . S
C162 O164 1.270 . S
O163 Zn155 1.943 . S
O163 C162 1.249 . S
O164 Zn154 2.067 . S
O164 C162 1.270 . S
C165 O158 1.262 . S
C165 O166 1.232 . S
O166 C165 1.232 . S
C167 O159 1.260 . S
C167 O160 1.257 . S
Zn168 O171 2.031 . S
Zn168 O173 2.049 . S
Zn168 O178 2.067 . S
Zn169 O170 1.962 . S
Zn169 O172 1.986 . S
Zn169 O174 1.996 . S
Zn169 O177 1.943 . S
O170 Zn169 1.962 . S
O170 C175 1.254 . S
O171 Zn168 2.031 . S
O171 C175 1.269 . S
O172 Zn169 1.986 . S
O172 C179 1.262 . S
O173 Zn168 2.049 . S
O173 C181 1.260 . S
O174 Zn169 1.996 . S
O174 C181 1.257 . S
C175 O170 1.254 . S
C175 O171 1.269 . S
C176 O177 1.249 . S
C176 O178 1.270 . S
O177 Zn169 1.943 . S
O177 C176 1.249 . S
O178 Zn168 2.067 . S
O178 C176 1.270 . S
C179 O172 1.262 . S
C179 O180 1.232 . S
O180 C179 1.232 . S
C181 O173 1.260 . S
C181 O174 1.257 . S
Zn182 O185 2.031 . S
Zn182 O187 2.049 . S
Zn182 O192 2.067 . S
Zn183 O184 1.962 . S
Zn183 O186 1.986 . S
Zn183 O188 1.996 . S
Zn183 O191 1.943 . S
O184 Zn183 1.962 . S
O184 C189 1.254 . S
O185 Zn182 2.031 . S
O185 C189 1.269 . S
O186 Zn183 1.986 . S
O186 C193 1.262 . S
O187 Zn182 2.049 . S
O187 C195 1.260 . S
O188 Zn183 1.996 . S
O188 C195 1.257 . S
C189 O184 1.254 . S
C189 O185 1.269 . S
C190 O191 1.249 . S
C190 O192 1.270 . S
O191 Zn183 1.943 . S
O191 C190 1.249 . S
O192 Zn182 2.067 . S
O192 C190 1.270 . S
C193 O186 1.262 . S
C193 O194 1.232 . S
O194 C193 1.232 . S
C195 O187 1.260 . S
C195 O188 1.257 . S
Zn196 O199 2.031 . S
Zn196 O201 2.049 . S
Zn196 O206 2.067 . S
Zn197 O198 1.962 . S
Zn197 O200 1.986 . S
Zn197 O202 1.996 . S
Zn197 O205 1.943 . S
O198 Zn197 1.962 . S
O198 C203 1.254 . S
O199 Zn196 2.031 . S
O199 C203 1.269 . S
O200 Zn197 1.986 . S
O200 C207 1.262 . S
O201 Zn196 2.049 . S
O201 C209 1.260 . S
O202 Zn197 1.996 . S
O202 C209 1.257 . S
C203 O198 1.254 . S
C203 O199 1.269 . S
C204 O205 1.249 . S
C204 O206 1.270 . S
O205 Zn197 1.943 . S
O205 C204 1.249 . S
O206 Zn196 2.067 . S
O206 C204 1.270 . S
C207 O200 1.262 . S
C207 O208 1.232 . S
O208 C207 1.232 . S
C209 O201 1.260 . S
C209 O202 1.257 . S
Zn210 O213 2.031 . S
Zn210 O215 2.049 . S
Zn210 O220 2.067 . S
Zn211 O212 1.962 . S
Zn211 O214 1.986 . S
Zn211 O216 1.996 . S
Zn211 O219 1.943 . S
O212 Zn211 1.962 . S
O212 C217 1.254 . S
O213 Zn210 2.031 . S
O213 C217 1.269 . S
O214 Zn211 1.986 . S
O214 C221 1.262 . S
O215 Zn210 2.049 . S
O215 C223 1.260 . S
O216 Zn211 1.996 . S
O216 C223 1.257 . S
C217 O212 1.254 . S
C217 O213 1.269 . S
C218 O219 1.249 . S
C218 O220 1.270 . S
O219 Zn211 1.943 . S
O219 C218 1.249 . S
O220 Zn210 2.067 . S
O220 C218 1.270 . S
C221 O214 1.262 . S
C221 O222 1.232 . S
O222 C221 1.232 . S
C223 O215 1.260 . S
C223 O216 1.257 . S
Zn224 O227 2.031 . S
Zn224 O229 2.049 . S
Zn224 O234 2.067 . S
Zn225 O226 1.962 . S
Zn225 O228 1.986 . S
Zn225 O230 1.996 . S
Zn225 O233 1.943 . S
O226 Zn225 1.962 . S
O226 C231 1.254 . S
O227 Zn224 2.031 . S
O227 C231 1.269 . S
O228 Zn225 1.986 . S
O228 C235 1.262 . S
O229 Zn224 2.049 . S
O229 C237 1.260 . S
O230 Zn225 1.996 . S
O230 C237 1.257 . S
C231 O226 1.254 . S
C231 O227 1.269 . S
C232 O233 1.249 . S
C232 O234 1.270 . S
O233 Zn225 1.943 . S
O233 C232 1.249 . S
O234 Zn224 2.067 . S
O234 C232 1.270 . S
C235 O228 1.262 . S
C235 O236 1.232 . S
O236 C235 1.232 . S
C237 O229 1.260 . S
C237 O230 1.257 . S
Zn238 O241 2.031 . S
Zn238 O243 2.049 . S
Zn238 O248 2.067 . S
Zn239 O240 1.962 . S
Zn239 O242 1.986 . S
Zn239 O244 1.996 . S
Zn239 O247 1.943 . S
O240 Zn239 1.962 . S
O240 C245 1.254 . S
O241 Zn238 2.031 . S
O241 C245 1.269 . S
O242 Zn239 1.986 . S
O242 C249 1.262 . S
O243 Zn238 2.049 . S
O243 C251 1.260 . S
O244 Zn239 1.996 . S
O244 C251 1.257 . S
C245 O240 1.254 . S
C245 O241 1.269 . S
C246 O247 1.249 . S
C246 O248 1.270 . S
O247 Zn239 1.943 . S
O247 C246 1.249 . S
O248 Zn238 2.067 . S
O248 C246 1.270 . S
C249 O242 1.262 . S
C249 O250 1.232 . S
O250 C249 1.232 . S
C251 O243 1.260 . S
C251 O244 1.257 . S
Zn252 O255 2.031 . S
Zn252 O257 2.049 . S
Zn252 O262 2.067 . S
Zn253 O254 1.962 . S
Zn253 O256 1.986 . S
Zn253 O258 1.996 . S
Zn253 O261 1.943 . S
O254 Zn253 1.962 . S
O254 C259 1.254 . S
O255 Zn252 2.031 . S
O255 C259 1.269 . S
O256 Zn253 1.986 . S
O256 C263 1.262 . S
O257 Zn252 2.049 . S
O257 C265 1.260 . S
O258 Zn253 1.996 . S
O258 C265 1.257 . S
C259 O254 1.254 . S
C259 O255 1.269 . S
C260 O261 1.249 . S
C260 O262 1.270 . S
O261 Zn253 1.943 . S
O261 C260 1.249 . S
O262 Zn252 2.067 . S
O262 C260 1.270 . S
C263 O256 1.262 . S
C263 O264 1.232 . S
O264 C263 1.232 . S
C265 O257 1.260 . S
C265 O258 1.257 . S
Zn266 O269 2.031 . S
Zn266 O271 2.049 . S
Zn266 O276 2.067 . S
Zn267 O268 1.962 . S
Zn267 O270 1.986 . S
Zn267 O272 1.996 . S
Zn267 O275 1.943 . S
O268 Zn267 1.962 . S
O268 C273 1.254 . S
O269 Zn266 2.031 . S
O269 C273 1.269 . S
O270 Zn267 1.986 . S
O270 C277 1.262 . S
O271 Zn266 2.049 . S
O271 C279 1.260 . S
O272 Zn267 1.996 . S
O272 C279 1.257 . S
C273 O268 1.254 . S
C273 O269 1.269 . S
C274 O275 1.249 . S
C274 O276 1.270 . S
O275 Zn267 1.943 . S
O275 C274 1.249 . S
O276 Zn266 2.067 . S
O276 C274 1.270 . S
C277 O270 1.262 . S
C277 O278 1.232 . S
O278 C277 1.232 . S
C279 O271 1.260 . S
C279 O272 1.257 . S
Zn280 O283 2.031 . S
Zn280 O285 2.049 . S
Zn280 O290 2.067 . S
Zn281 O282 1.962 . S
Zn281 O284 1.986 . S
Zn281 O286 1.996 . S
Zn281 O289 1.943 . S
O282 Zn281 1.962 . S
O282 C287 1.254 . S
O283 Zn280 2.031 . S
O283 C287 1.269 . S
O284 Zn281 1.986 . S
O284 C291 1.262 . S
O285 Zn280 2.049 . S
O285 C293 1.260 . S
O286 Zn281 1.996 . S
O286 C293 1.257 . S
C287 O282 1.254 . S
C287 O283 1.269 . S
C288 O289 1.249 . S
C288 O290 1.270 . S
O289 Zn281 1.943 . S
O289 C288 1.249 . S
O290 Zn280 2.067 . S
O290 C288 1.270 . S
C291 O284 1.262 . S
C291 O292 1.232 . S
O292 C291 1.232 . S
C293 O285 1.260 . S
C293 O286 1.257 . S
Zn294 O297 2.031 . S
Zn294 O299 2.049 . S
Zn294 O304 2.067 . S
Zn295 O296 1.962 . S
Zn295 O298 1.986 . S
Zn295 O300 1.996 . S
Zn295 O303 1.943 . S
O296 Zn295 1.962 . S
O296 C301 1.254 . S
O297 Zn294 2.031 . S
O297 C301 1.269 . S
O298 Zn295 1.986 . S
O298 C305 1.262 . S
O299 Zn294 2.049 . S
O299 C307 1.260 . S
O300 Zn295 1.996 . S
O300 C307 1.257 . S
C301 O296 1.254 . S
C301 O297 1.269 . S
C302 O303 1.249 . S
C302 O304 1.270 . S
O303 Zn295 1.943 . S
O303 C302 1.249 . S
O304 Zn294 2.067 . S
O304 C302 1.270 . S
C305 O298 1.262 . S
C305 O306 1.232 . S
O306 C305 1.232 . S
C307 O299 1.260 . S
C307 O300 1.257 . S
Zn308 O311 2.031 . S
Zn308 O313 2.049 . S
Zn308 O318 2.067 . S
Zn309 O310 1.962 . S
Zn309 O312 1.986 . S
Zn309 O314 1.996 . S
Zn309 O317 1.943 . S
O310 Zn309 1.962 . S
O310 C315 1.254 . S
O311 Zn308 2.031 . S
O311 C315 1.269 . S
O312 Zn309 1.986 . S
O312 C319 1.262 . S
O313 Zn308 2.049 . S
O313 C321 1.260 . S
O314 Zn309 1.996 . S
O314 C321 1.257 . S
C315 O310 1.254 . S
C315 O311 1.269 . S
C316 O317 1.249 . S
C316 O318 1.270 . S
O317 Zn309 1.943 . S
O317 C316 1.249 . S
O318 Zn308 2.067 . S
O318 C316 1.270 . S
C319 O312 1.262 . S
C319 O320 1.232 . S
O320 C319 1.232 . S
C321 O313 1.260 . S
C321 O314 1.257 . S
Zn322 O325 2.031 . S
Zn322 O327 2.049 . S
Zn322 O332 2.067 . S
Zn323 O324 1.962 . S
Zn323 O326 1.986 . S
Zn323 O328 1.996 . S
Zn323 O331 1.943 . S
O324 Zn323 1.962 . S
O324 C329 1.254 . S
O325 Zn322 2.031 . S
O325 C329 1.269 . S
O326 Zn323 1.986 . S
O326 C333 1.262 . S
O327 Zn322 2.049 . S
O327 C335 1.260 . S
O328 Zn323 1.996 . S
O328 C335 1.257 . S
C329 O324 1.254 . S
C329 O325 1.269 . S
C330 O331 1.249 . S
C330 O332 1.270 . S
O331 Zn323 1.943 . S
O331 C330 1.249 . S
O332 Zn322 2.067 . S
O332 C330 1.270 . S
C333 O326 1.262 . S
C333 O334 1.232 . S
O334 C333 1.232 . S
C335 O327 1.260 . S
C335 O328 1.257 . S
Zn336 O339 2.031 . S
Zn336 O341 2.049 . S
Zn336 O346 2.067 . S
Zn337 O338 1.962 . S
Zn337 O340 1.986 . S
Zn337 O342 1.996 . S
Zn337 O345 1.943 . S
O338 Zn337 1.962 . S
O338 C343 1.254 . S
O339 Zn336 2.031 . S
O339 C343 1.269 . S
O340 Zn337 1.986 . S
O340 C347 1.262 . S
O341 Zn336 2.049 . S
O341 C349 1.260 . S
O342 Zn337 1.996 . S
O342 C349 1.257 . S
C343 O338 1.254 . S
C343 O339 1.269 . S
C344 O345 1.249 . S
C344 O346 1.270 . S
O345 Zn337 1.943 . S
O345 C344 1.249 . S
O346 Zn336 2.067 . S
O346 C344 1.270 . S
C347 O340 1.262 . S
C347 O348 1.232 . S
O348 C347 1.232 . S
C349 O341 1.260 . S
C349 O342 1.257 . S
Zn350 O353 2.031 . S
Zn350 O355 2.049 . S
Zn350 O360 2.067 . S
Zn351 O352 1.962 . S
Zn351 O354 1.986 . S
Zn351 O356 1.996 . S
Zn351 O359 1.943 . S
O352 Zn351 1.962 . S
O352 C357 1.254 . S
O353 Zn350 2.031 . S
O353 C357 1.269 . S
O354 Zn351 1.986 . S
O354 C361 1.262 . S
O355 Zn350 2.049 . S
O355 C363 1.260 . S
O356 Zn351 1.996 . S
O356 C363 1.257 . S
C357 O352 1.254 . S
C357 O353 1.269 . S
C358 O359 1.249 . S
C358 O360 1.270 . S
O359 Zn351 1.943 . S
O359 C358 1.249 . S
O360 Zn350 2.067 . S
O360 C358 1.270 . S
C361 O354 1.262 . S
C361 O362 1.232 . S
O362 C361 1.232 . S
C363 O355 1.260 . S
C363 O356 1.257 . S
Zn364 O367 2.031 . S
Zn364 O369 2.049 . S
Zn364 O374 2.067 . S
Zn365 O366 1.962 . S
Zn365 O368 1.986 . S
Zn365 O370 1.996 . S
Zn365 O373 1.943 . S
O366 Zn365 1.962 . S
O366 C371 1.254 . S
O367 Zn364 2.031 . S
O367 C371 1.269 . S
O368 Zn365 1.986 . S
O368 C375 1.262 . S
O369 Zn364 2.049 . S
O369 C377 1.260 . S
O370 Zn365 1.996 . S
O370 C377 1.257 . S
C371 O366 1.254 . S
C371 O367 1.269 . S
C372 O373 1.249 . S
C372 O374 1.270 . S
O373 Zn365 1.943 . S
O373 C372 1.249 . S
O374 Zn364 2.067 . S
O374 C372 1.270 . S
C375 O368 1.262 . S
C375 O376 1.232 . S
O376 C375 1.232 . S
C377 O369 1.260 . S
C377 O370 1.257 . S
Zn378 O381 2.031 . S
Zn378 O383 2.049 . S
Zn378 O388 2.067 . S
Zn379 O380 1.962 . S
Zn379 O382 1.986 . S
Zn379 O384 1.996 . S
Zn379 O387 1.943 . S
O380 Zn379 1.962 . S
O380 C385 1.254 . S
O381 Zn378 2.031 . S
O381 C385 1.269 . S
O382 Zn379 1.986 . S
O382 C389 1.262 . S
O383 Zn378 2.049 . S
O383 C391 1.260 . S
O384 Zn379 1.996 . S
O384 C391 1.257 . S
C385 O380 1.254 . S
C385 O381 1.269 . S
C386 O387 1.249 . S
C386 O388 1.270 . S
O387 Zn379 1.943 . S
O387 C386 1.249 . S
O388 Zn378 2.067 . S
O388 C386 1.270 . S
C389 O382 1.262 . S
C389 O390 1.232 . S
O390 C389 1.232 . S
C391 O383 1.260 . S
C391 O384 1.257 . S
Zn392 O395 2.031 . S
Zn392 O397 2.049 . S
Zn392 O402 2.067 . S
Zn393 O394 1.962 . S
Zn393 O396 1.986 . S
Zn393 O398 1.996 . S
Zn393 O401 1.943 . S
O394 Zn393 1.962 . S
O394 C399 1.254 . S
O395 Zn392 2.031 . S
O395 C399 1.269 . S
O396 Zn393 1.986 . S
O396 C403 1.262 . S
O397 Zn392 2.049 . S
O397 C405 1.260 . S
O398 Zn393 1.996 . S
O398 C405 1.257 . S
C399 O394 1.254 . S
C399 O395 1.269 . S
C400 O401 1.249 . S
C400 O402 1.270 . S
O401 Zn393 1.943 . S
O401 C400 1.249 . S
O402 Zn392 2.067 . S
O402 C400 1.270 . S
C403 O396 1.262 . S
C403 O404 1.232 . S
O404 C403 1.232 . S
C405 O397 1.260 . S
C405 O398 1.257 . S
Zn406 O409 2.031 . S
Zn406 O411 2.049 . S
Zn406 O416 2.067 . S
Zn407 O408 1.962 . S
Zn407 O410 1.986 . S
Zn407 O412 1.996 . S
Zn407 O415 1.943 . S
O408 Zn407 1.962 . S
O408 C413 1.254 . S
O409 Zn406 2.031 . S
O409 C413 1.269 . S
O410 Zn407 1.986 . S
O410 C417 1.262 . S
O411 Zn406 2.049 . S
O411 C419 1.260 . S
O412 Zn407 1.996 . S
O412 C419 1.257 . S
C413 O408 1.254 . S
C413 O409 1.269 . S
C414 O415 1.249 . S
C414 O416 1.270 . S
O415 Zn407 1.943 . S
O415 C414 1.249 . S
O416 Zn406 2.067 . S
O416 C414 1.270 . S
C417 O410 1.262 . S
C417 O418 1.232 . S
O418 C417 1.232 . S
C419 O411 1.260 . S
C419 O412 1.257 . S
Zn420 O423 2.031 . S
Zn420 O425 2.049 . S
Zn420 O430 2.067 . S
Zn421 O422 1.962 . S
Zn421 O424 1.986 . S
Zn421 O426 1.996 . S
Zn421 O429 1.943 . S
O422 Zn421 1.962 . S
O422 C427 1.254 . S
O423 Zn420 2.031 . S
O423 C427 1.269 . S
O424 Zn421 1.986 . S
O424 C431 1.262 . S
O425 Zn420 2.049 . S
O425 C433 1.260 . S
O426 Zn421 1.996 . S
O426 C433 1.257 . S
C427 O422 1.254 . S
C427 O423 1.269 . S
C428 O429 1.249 . S
C428 O430 1.270 . S
O429 Zn421 1.943 . S
O429 C428 1.249 . S
O430 Zn420 2.067 . S
O430 C428 1.270 . S
C431 O424 1.262 . S
C431 O432 1.232 . S
O432 C431 1.232 . S
C433 O425 1.260 . S
C433 O426 1.257 . S
Zn434 O437 2.031 . S
Zn434 O439 2.049 . S
Zn434 O444 2.067 . S
Zn435 O436 1.962 . S
Zn435 O438 1.986 . S
Zn435 O440 1.996 . S
Zn435 O443 1.943 . S
O436 Zn435 1.962 . S
O436 C441 1.254 . S
O437 Zn434 2.031 . S
O437 C441 1.269 . S
O438 Zn435 1.986 . S
O438 C445 1.262 . S
O439 Zn434 2.049 . S
O439 C447 1.260 . S
O440 Zn435 1.996 . S
O440 C447 1.257 . S
C441 O436 1.254 . S
C441 O437 1.269 . S
C442 O443 1.249 . S
C442 O444 1.270 . S
O443 Zn435 1.943 . S
O443 C442 1.249 . S
O444 Zn434 2.067 . S
O444 C442 1.270 . S
C445 O438 1.262 . S
C445 O446 1.232 . S
O446 C445 1.232 . S
C447 O439 1.260 . S
C447 O440 1.257 . S
Zn448 O451 2.031 . S
Zn448 O453 2.049 . S
Zn448 O458 2.067 . S
Zn449 O450 1.962 . S
Zn449 O452 1.986 . S
Zn449 O454 1.996 . S
Zn449 O457 1.943 . S
O450 Zn449 1.962 . S
O450 C455 1.254 . S
O451 Zn448 2.031 . S
O451 C455 1.269 . S
O452 Zn449 1.986 . S
O452 C459 1.262 . S
O453 Zn448 2.049 . S
O453 C461 1.260 . S
O454 Zn449 1.996 . S
O454 C461 1.257 . S
C455 O450 1.254 . S
C455 O451 1.269 . S
C456 O457 1.249 . S
C456 O458 1.270 . S
O457 Zn449 1.943 . S
O457 C456 1.249 . S
O458 Zn448 2.067 . S
O458 C456 1.270 . S
C459 O452 1.262 . S
C459 O460 1.232 . S
O460 C459 1.232 . S
C461 O453 1.260 . S
C461 O454 1.257 . S
Zn462 O465 2.031 . S
Zn462 O467 2.049 . S
Zn462 O472 2.067 . S
Zn463 O464 1.962 . S
Zn463 O466 1.986 . S
Zn463 O468 1.996 . S
Zn463 O471 1.943 . S
O464 Zn463 1.962 . S
O464 C469 1.254 . S
O465 Zn462 2.031 . S
O465 C469 1.269 . S
O466 Zn463 1.986 . S
O466 C473 1.262 . S
O467 Zn462 2.049 . S
O467 C475 1.260 . S
O468 Zn463 1.996 . S
O468 C475 1.257 . S
C469 O464 1.254 . S
C469 O465 1.269 . S
C470 O471 1.249 . S
C470 O472 1.270 . S
O471 Zn463 1.943 . S
O471 C470 1.249 . S
O472 Zn462 2.067 . S
O472 C470 1.270 . S
C473 O466 1.262 . S
C473 O474 1.232 . S
O474 C473 1.232 . S
C475 O467 1.260 . S
C475 O468 1.257 . S
Zn476 O479 2.031 . S
Zn476 O481 2.049 . S
Zn476 O486 2.067 . S
Zn477 O478 1.962 . S
Zn477 O480 1.986 . S
Zn477 O482 1.996 . S
Zn477 O485 1.943 . S
O478 Zn477 1.962 . S
O478 C483 1.254 . S
O479 Zn476 2.031 . S
O479 C483 1.269 . S
O480 Zn477 1.986 . S
O480 C487 1.262 . S
O481 Zn476 2.049 . S
O481 C489 1.260 . S
O482 Zn477 1.996 . S
O482 C489 1.257 . S
C483 O478 1.254 . S
C483 O479 1.269 . S
C484 O485 1.249 . S
C484 O486 1.270 . S
O485 Zn477 1.943 . S
O485 C484 1.249 . S
O486 Zn476 2.067 . S
O486 C484 1.270 . S
C487 O480 1.262 . S
C487 O488 1.232 . S
O488 C487 1.232 . S
C489 O481 1.260 . S
C489 O482 1.257 . S
Zn490 O493 2.031 . S
Zn490 O495 2.049 . S
Zn490 O500 2.067 . S
Zn491 O492 1.962 . S
Zn491 O494 1.986 . S
Zn491 O496 1.996 . S
Zn491 O499 1.943 . S
O492 Zn491 1.962 . S
O492 C497 1.254 . S
O493 Zn490 2.031 . S
O493 C497 1.269 . S
O494 Zn491 1.986 . S
O494 C501 1.262 . S
O495 Zn490 2.049 . S
O495 C503 1.260 . S
O496 Zn491 1.996 . S
O496 C503 1.257 . S
C497 O492 1.254 . S
C497 O493 1.269 . S
C498 O499 1.249 . S
C498 O500 1.270 . S
O499 Zn491 1.943 . S
O499 C498 1.249 . S
O500 Zn490 2.067 . S
O500 C498 1.270 . S
C501 O494 1.262 . S
C501 O502 1.232 . S
O502 C501 1.232 . S
C503 O495 1.260 . S
C503 O496 1.257 . S
Zn504 O507 2.031 . S
Zn504 O509 2.049 . S
Zn504 O514 2.067 . S
Zn505 O506 1.962 . S
Zn505 O508 1.986 . S
Zn505 O510 1.996 . S
Zn505 O513 1.943 . S
O506 Zn505 1.962 . S
O506 C511 1.254 . S
O507 Zn504 2.031 . S
O507 C511 1.269 . S
O508 Zn505 1.986 . S
O508 C515 1.262 . S
O509 Zn504 2.049 . S
O509 C517 1.260 . S
O510 Zn505 1.996 . S
O510 C517 1.257 . S
C511 O506 1.254 . S
C511 O507 1.269 . S
C512 O513 1.249 . S
C512 O514 1.270 . S
O513 Zn505 1.943 . S
O513 C512 1.249 . S
O514 Zn504 2.067 . S
O514 C512 1.270 . S
C515 O508 1.262 . S
C515 O516 1.232 . S
O516 C515 1.232 . S
C517 O509 1.260 . S
C517 O510 1.257 . S
Zn518 O521 2.031 . S
Zn518 O523 2.049 . S
Zn518 O528 2.067 . S
Zn519 O520 1.962 . S
Zn519 O522 1.986 . S
Zn519 O524 1.996 . S
Zn519 O527 1.943 . S
O520 Zn519 1.962 . S
O520 C525 1.254 . S
O521 Zn518 2.031 . S
O521 C525 1.269 . S
O522 Zn519 1.986 . S
O522 C529 1.262 . S
O523 Zn518 2.049 . S
O523 C531 1.260 . S
O524 Zn519 1.996 . S
O524 C531 1.257 . S
C525 O520 1.254 . S
C525 O521 1.269 . S
C526 O527 1.249 . S
C526 O528 1.270 . S
O527 Zn519 1.943 . S
O527 C526 1.249 . S
O528 Zn518 2.067 . S
O528 C526 1.270 . S
C529 O522 1.262 . S
C529 O530 1.232 . S
O530 C529 1.232 . S
C531 O523 1.260 . S
C531 O524 1.257 . S
Zn532 O535 2.031 . S
Zn532 O537 2.049 . S
Zn532 O542 2.067 . S
Zn533 O534 1.962 . S
Zn533 O536 1.986 . S
Zn533 O538 1.996 . S
Zn533 O541 1.943 . S
O534 Zn533 1.962 . S
O534 C539 1.254 . S
O535 Zn532 2.031 . S
O535 C539 1.269 . S
O536 Zn533 1.986 . S
O536 C543 1.262 . S
O537 Zn532 2.049 . S
O537 C545 1.260 . S
O538 Zn533 1.996 . S
O538 C545 1.257 . S
C539 O534 1.254 . S
C539 O535 1.269 . S
C540 O541 1.249 . S
C540 O542 1.270 . S
O541 Zn533 1.943 . S
O541 C540 1.249 . S
O542 Zn532 2.067 . S
O542 C540 1.270 . S
C543 O536 1.262 . S
C543 O544 1.232 . S
O544 C543 1.232 . S
C545 O537 1.260 . S
C545 O538 1.257 . S
Zn546 O549 2.031 . S
Zn546 O551 2.049 . S
Zn546 O556 2.067 . S
Zn547 O548 1.962 . S
Zn547 O550 1.986 . S
Zn547 O552 1.996 . S
Zn547 O555 1.943 . S
O548 Zn547 1.962 . S
O548 C553 1.254 . S
O549 Zn546 2.031 . S
O549 C553 1.269 . S
O550 Zn547 1.986 . S
O550 C557 1.262 . S
O551 Zn546 2.049 . S
O551 C559 1.260 . S
O552 Zn547 1.996 . S
O552 C559 1.257 . S
C553 O548 1.254 . S
C553 O549 1.269 . S
C554 O555 1.249 . S
C554 O556 1.270 . S
O555 Zn547 1.943 . S
O555 C554 1.249 . S
O556 Zn546 2.067 . S
O556 C554 1.270 . S
C557 O550 1.262 . S
C557 O558 1.232 . S
O558 C557 1.232 . S
C559 O551 1.260 . S
C559 O552 1.257 . S
Zn560 O563 2.031 . S
Zn560 O565 2.049 . S
Zn560 O570 2.067 . S
Zn561 O562 1.962 . S
Zn561 O564 1.986 . S
Zn561 O566 1.996 . S
Zn561 O569 1.943 . S
O562 Zn561 1.962 . S
O562 C567 1.254 . S
O563 Zn560 2.031 . S
O563 C567 1.269 . S
O564 Zn561 1.986 . S
O564 C571 1.262 . S
O565 Zn560 2.049 . S
O565 C573 1.260 . S
O566 Zn561 1.996 . S
O566 C573 1.257 . S
C567 O562 1.254 . S
C567 O563 1.269 . S
C568 O569 1.249 . S
C568 O570 1.270 . S
O569 Zn561 1.943 . S
O569 C568 1.249 . S
O570 Zn560 2.067 . S
O570 C568 1.270 . S
C571 O564 1.262 . S
C571 O572 1.232 . S
O572 C571 1.232 . S
C573 O565 1.260 . S
C573 O566 1.257 . S
Zn574 O577 2.031 . S
Zn574 O579 2.049 . S
Zn574 O584 2.067 . S
Zn575 O576 1.962 . S
Zn575 O578 1.986 . S
Zn575 O580 1.996 . S
Zn575 O583 1.943 . S
O576 Zn575 1.962 . S
O576 C581 1.254 . S
O577 Zn574 2.031 . S
O577 C581 1.269 . S
O578 Zn575 1.986 . S
O578 C585 1.262 . S
O579 Zn574 2.049 . S
O579 C587 1.260 . S
O580 Zn575 1.996 . S
O580 C587 1.257 . S
C581 O576 1.254 . S
C581 O577 1.269 . S
C582 O583 1.249 . S
C582 O584 1.270 . S
O583 Zn575 1.943 . S
O583 C582 1.249 . S
O584 Zn574 2.067 . S
O584 C582 1.270 . S
C585 O578 1.262 . S
C585 O586 1.232 . S
O586 C585 1.232 . S
C587 O579 1.260 . S
C587 O580 1.257 . S
Zn588 O591 2.031 . S
Zn588 O593 2.049 . S
Zn588 O598 2.067 . S
Zn589 O590 1.962 . S
Zn589 O592 1.986 . S
Zn589 O594 1.996 . S
Zn589 O597 1.943 . S
O590 Zn589 1.962 . S
O590 C595 1.254 . S
O591 Zn588 2.031 . S
O591 C595 1.269 . S
O592 Zn589 1.986 . S
O592 C599 1.262 . S
O593 Zn588 2.049 . S
O593 C601 1.260 . S
O594 Zn589 1.996 . S
O594 C601 1.257 . S
C595 O590 1.254 . S
C595 O591 1.269 . S
C596 O597 1.249 . S
C596 O598 1.270 . S
O597 Zn589 1.943 . S
O597 C596 1.249 . S
O598 Zn588 2.067 . S
O598 C596 1.270 . S
C599 O592 1.262 . S
C599 O600 1.232 . S
O600 C599 1.232 . S
C601 O593 1.260 . S
C601 O594 1.257 . S
Zn602 O605 2.031 . S
Zn602 O607 2.049 . S
Zn602 O612 2.067 . S
Zn603 O604 1.962 . S
Zn603 O606 1.986 . S
Zn603 O608 1.996 . S
Zn603 O611 1.943 . S
O604 Zn603 1.962 . S
O604 C609 1.254 . S
O605 Zn602 2.031 . S
O605 C609 1.269 . S
O606 Zn603 1.986 . S
O606 C613 1.262 . S
O607 Zn602 2.049 . S
O607 C615 1.260 . S
O608 Zn603 1.996 . S
O608 C615 1.257 . S
C609 O604 1.254 . S
C609 O605 1.269 . S
C610 O611 1.249 . S
C610 O612 1.270 . S
O611 Zn603 1.943 . S
O611 C610 1.249 . S
O612 Zn602 2.067 . S
O612 C610 1.270 . S
C613 O606 1.262 . S
C613 O614 1.232 . S
O614 C613 1.232 . S
C615 O607 1.260 . S
C615 O608 1.257 . S
Zn616 O619 2.031 . S
Zn616 O621 2.049 . S
Zn616 O626 2.067 . S
Zn617 O618 1.962 . S
Zn617 O620 1.986 . S
Zn617 O622 1.996 . S
Zn617 O625 1.943 . S
O618 Zn617 1.962 . S
O618 C623 1.254 . S
O619 Zn616 2.031 . S
O619 C623 1.269 . S
O620 Zn617 1.986 . S
O620 C627 1.262 . S
O621 Zn616 2.049 . S
O621 C629 1.260 . S
O622 Zn617 1.996 . S
O622 C629 1.257 . S
C623 O618 1.254 . S
C623 O619 1.269 . S
C624 O625 1.249 . S
C624 O626 1.270 . S
O625 Zn617 1.943 . S
O625 C624 1.249 . S
O626 Zn616 2.067 . S
O626 C624 1.270 . S
C627 O620 1.262 . S
C627 O628 1.232 . S
O628 C627 1.232 . S
C629 O621 1.260 . S
C629 O622 1.257 . S
Zn630 O633 2.031 . S
Zn630 O635 2.049 . S
Zn630 O640 2.067 . S
Zn631 O632 1.962 . S
Zn631 O634 1.986 . S
Zn631 O636 1.996 . S
Zn631 O639 1.943 . S
O632 Zn631 1.962 . S
O632 C637 1.254 . S
O633 Zn630 2.031 . S
O633 C637 1.269 . S
O634 Zn631 1.986 . S
O634 C641 1.262 . S
O635 Zn630 2.049 . S
O635 C643 1.260 . S
O636 Zn631 1.996 . S
O636 C643 1.257 . S
C637 O632 1.254 . S
C637 O633 1.269 . S
C638 O639 1.249 . S
C638 O640 1.270 . S
O639 Zn631 1.943 . S
O639 C638 1.249 . S
O640 Zn630 2.067 . S
O640 C638 1.270 . S
C641 O634 1.262 . S
C641 O642 1.232 . S
O642 C641 1.232 . S
C643 O635 1.260 . S
C643 O636 1.257 . S
Zn644 O647 2.031 . S
Zn644 O649 2.049 . S
Zn644 O654 2.067 . S
Zn645 O646 1.962 . S
Zn645 O648 1.986 . S
Zn645 O650 1.996 . S
Zn645 O653 1.943 . S
O646 Zn645 1.962 . S
O646 C651 1.254 . S
O647 Zn644 2.031 . S
O647 C651 1.269 . S
O648 Zn645 1.986 . S
O648 C655 1.262 . S
O649 Zn644 2.049 . S
O649 C657 1.260 . S
O650 Zn645 1.996 . S
O650 C657 1.257 . S
C651 O646 1.254 . S
C651 O647 1.269 . S
C652 O653 1.249 . S
C652 O654 1.270 . S
O653 Zn645 1.943 . S
O653 C652 1.249 . S
O654 Zn644 2.067 . S
O654 C652 1.270 . S
C655 O648 1.262 . S
C655 O656 1.232 . S
O656 C655 1.232 . S
C657 O649 1.260 . S
C657 O650 1.257 . S
Zn658 O661 2.031 . S
Zn658 O663 2.049 . S
Zn658 O668 2.067 . S
Zn659 O660 1.962 . S
Zn659 O662 1.986 . S
Zn659 O664 1.996 . S
Zn659 O667 1.943 . S
O660 Zn659 1.962 . S
O660 C665 1.254 . S
O661 Zn658 2.031 . S
O661 C665 1.269 . S
O662 Zn659 1.986 . S
O662 C669 1.262 . S
O663 Zn658 2.049 . S
O663 C671 1.260 . S
O664 Zn659 1.996 . S
O664 C671 1.257 . S
C665 O660 1.254 . S
C665 O661 1.269 . S
C666 O667 1.249 . S
C666 O668 1.270 . S
O667 Zn659 1.943 . S
O667 C666 1.249 . S
O668 Zn658 2.067 . S
O668 C666 1.270 . S
C669 O662 1.262 . S
C669 O670 1.232 . S
O670 C669 1.232 . S
C671 O663 1.260 . S
C671 O664 1.257 . S
H672 C684 0.930 . S
H673 C686 0.930 . S
H674 C687 0.930 . S
H675 C691 0.959 . S
H676 C691 0.959 . S
H677 C691 0.961 . S
H678 C692 0.960 . S
H679 C692 0.961 . S
H680 C692 0.959 . S
H681 C695 0.929 . S
H682 C696 0.931 . S
H683 C698 0.930 . S
C684 H672 0.930 . S
C684 C685 1.399 . S
C684 C689 1.399 . S
C685 C684 1.399 . S
C685 C686 1.376 . S
C686 H673 0.930 . S
C686 C685 1.376 . S
C686 C687 1.388 . S
C687 H674 0.930 . S
C687 C686 1.388 . S
C687 C688 1.390 . S
C688 C687 1.390 . S
C688 C689 1.394 . S
C688 C694 1.465 . S
C689 C684 1.399 . S
C689 C688 1.394 . S
C689 C690 1.516 . S
C690 C689 1.516 . S
C690 C691 1.502 . S
C690 C692 1.561 . S
C690 C693 1.526 . S
C691 H675 0.959 . S
C691 H676 0.959 . S
C691 H677 0.961 . S
C691 C690 1.502 . S
C692 H678 0.960 . S
C692 H679 0.961 . S
C692 H680 0.959 . S
C692 C690 1.561 . S
C693 C690 1.526 . S
C693 C694 1.396 . S
C693 C698 1.390 . S
C694 C688 1.465 . S
C694 C693 1.396 . S
C694 C695 1.399 . S
C695 H681 0.929 . S
C695 C694 1.399 . S
C695 C696 1.385 . S
C696 H682 0.931 . S
C696 C695 1.385 . S
C696 C697 1.389 . S
C697 C696 1.389 . S
C697 C698 1.387 . S
C698 H683 0.930 . S
C698 C693 1.390 . S
C698 C697 1.387 . S
H699 C711 0.930 . S
H700 C713 0.930 . S
H701 C714 0.928 . S
H702 C718 0.959 . S
H703 C718 0.959 . S
H704 C718 0.961 1_455 S
H705 C719 0.960 . S
H706 C719 0.961 . S
H707 C719 0.959 . S
H708 C722 0.929 . S
H709 C723 0.931 . S
H710 C725 0.930 . S
C711 H699 0.930 . S
C711 C712 1.399 . S
C711 C716 1.399 1_455 S
C712 C711 1.399 . S
C712 C713 1.376 . S
C713 H700 0.930 . S
C713 C712 1.376 . S
C713 C714 1.392 1_455 S
C714 H701 0.928 . S
C714 C713 1.392 1_655 S
C714 C715 1.388 . S
C715 C714 1.388 . S
C715 C716 1.394 . S
C715 C721 1.465 . S
C716 C711 1.399 1_655 S
C716 C715 1.394 . S
C716 C717 1.516 . S
C717 C716 1.516 . S
C717 C718 1.502 . S
C717 C719 1.561 . S
C717 C720 1.526 . S
C718 H702 0.959 . S
C718 H703 0.959 . S
C718 H704 0.961 1_655 S
C718 C717 1.502 . S
C719 H705 0.960 . S
C719 H706 0.961 . S
C719 H707 0.959 . S
C719 C717 1.561 . S
C720 C717 1.526 . S
C720 C721 1.396 . S
C720 C725 1.390 . S
C721 C715 1.465 . S
C721 C720 1.396 . S
C721 C722 1.399 . S
C722 H708 0.929 . S
C722 C721 1.399 . S
C722 C723 1.385 . S
C723 H709 0.931 . S
C723 C722 1.385 . S
C723 C724 1.389 . S
C724 C723 1.389 . S
C724 C725 1.387 . S
C725 H710 0.930 . S
C725 C720 1.390 . S
C725 C724 1.387 . S
H726 C738 0.930 . S
H727 C740 0.930 . S
H728 C741 0.930 . S
H729 C745 0.959 . S
H730 C745 0.959 . S
H731 C745 0.961 . S
H732 C746 0.960 . S
H733 C746 0.961 . S
H734 C746 0.959 . S
H735 C749 0.929 . S
H736 C750 0.931 . S
H737 C752 0.930 . S
C738 H726 0.930 . S
C738 C739 1.399 . S
C738 C743 1.399 . S
C739 C738 1.399 . S
C739 C740 1.376 . S
C740 H727 0.930 . S
C740 C739 1.376 . S
C740 C741 1.388 . S
C741 H728 0.930 . S
C741 C740 1.388 . S
C741 C742 1.390 . S
C742 C741 1.390 . S
C742 C743 1.394 . S
C742 C748 1.465 . S
C743 C738 1.399 . S
C743 C742 1.394 . S
C743 C744 1.516 . S
C744 C743 1.516 . S
C744 C745 1.502 . S
C744 C746 1.561 . S
C744 C747 1.526 . S
C745 H729 0.959 . S
C745 H730 0.959 . S
C745 H731 0.961 . S
C745 C744 1.502 . S
C746 H732 0.960 . S
C746 H733 0.961 . S
C746 H734 0.959 . S
C746 C744 1.561 . S
C747 C744 1.526 . S
C747 C748 1.396 . S
C747 C752 1.390 . S
C748 C742 1.465 . S
C748 C747 1.396 . S
C748 C749 1.399 . S
C749 H735 0.929 . S
C749 C748 1.399 . S
C749 C750 1.385 . S
C750 H736 0.931 . S
C750 C749 1.385 . S
C750 C751 1.389 . S
C751 C750 1.389 . S
C751 C752 1.387 . S
C752 H737 0.930 . S
C752 C747 1.390 . S
C752 C751 1.387 . S
H753 C765 0.930 . S
H754 C767 0.930 . S
H755 C768 0.930 . S
H756 C772 0.959 . S
H757 C772 0.959 . S
H758 C772 0.961 . S
H759 C773 0.960 . S
H760 C773 0.961 . S
H761 C773 0.959 . S
H762 C776 0.929 . S
H763 C777 0.931 . S
H764 C779 0.930 . S
C765 H753 0.930 . S
C765 C766 1.399 . S
C765 C770 1.399 . S
C766 C765 1.399 . S
C766 C767 1.376 . S
C767 H754 0.930 . S
C767 C766 1.376 . S
C767 C768 1.388 . S
C768 H755 0.930 . S
C768 C767 1.388 . S
C768 C769 1.390 . S
C769 C768 1.390 . S
C769 C770 1.394 . S
C769 C775 1.465 . S
C770 C765 1.399 . S
C770 C769 1.394 . S
C770 C771 1.516 . S
C771 C770 1.516 . S
C771 C772 1.502 . S
C771 C773 1.561 . S
C771 C774 1.526 . S
C772 H756 0.959 . S
C772 H757 0.959 . S
C772 H758 0.961 . S
C772 C771 1.502 . S
C773 H759 0.960 . S
C773 H760 0.961 . S
C773 H761 0.959 . S
C773 C771 1.561 . S
C774 C771 1.526 . S
C774 C775 1.396 . S
C774 C779 1.390 . S
C775 C769 1.465 . S
C775 C774 1.396 . S
C775 C776 1.399 . S
C776 H762 0.929 . S
C776 C775 1.399 . S
C776 C777 1.385 . S
C777 H763 0.931 . S
C777 C776 1.385 . S
C777 C778 1.389 . S
C778 C777 1.389 . S
C778 C779 1.387 . S
C779 H764 0.930 . S
C779 C774 1.390 . S
C779 C778 1.387 . S
H780 C792 0.930 . S
H781 C794 0.930 . S
H782 C795 0.930 . S
H783 C799 0.959 . S
H784 C799 0.959 . S
H785 C799 0.961 . S
H786 C800 0.960 . S
H787 C800 0.961 . S
H788 C800 0.959 . S
H789 C803 0.929 . S
H790 C804 0.931 . S
H791 C806 0.930 . S
C792 H780 0.930 . S
C792 C793 1.399 . S
C792 C797 1.399 . S
C793 C792 1.399 . S
C793 C794 1.376 . S
C794 H781 0.930 . S
C794 C793 1.376 . S
C794 C795 1.388 . S
C795 H782 0.930 . S
C795 C794 1.388 . S
C795 C796 1.390 . S
C796 C795 1.390 . S
C796 C797 1.394 . S
C796 C802 1.465 . S
C797 C792 1.399 . S
C797 C796 1.394 . S
C797 C798 1.516 . S
C798 C797 1.516 . S
C798 C799 1.502 . S
C798 C800 1.561 . S
C798 C801 1.526 . S
C799 H783 0.959 . S
C799 H784 0.959 . S
C799 H785 0.961 . S
C799 C798 1.502 . S
C800 H786 0.960 . S
C800 H787 0.961 . S
C800 H788 0.959 . S
C800 C798 1.561 . S
C801 C798 1.526 . S
C801 C802 1.396 . S
C801 C806 1.390 . S
C802 C796 1.465 . S
C802 C801 1.396 . S
C802 C803 1.399 . S
C803 H789 0.929 . S
C803 C802 1.399 . S
C803 C804 1.385 . S
C804 H790 0.931 . S
C804 C803 1.385 . S
C804 C805 1.389 . S
C805 C804 1.389 . S
C805 C806 1.387 . S
C806 H791 0.930 . S
C806 C801 1.390 . S
C806 C805 1.387 . S
H807 C819 0.930 . S
H808 C821 0.930 . S
H809 C822 0.930 . S
H810 C826 0.959 . S
H811 C826 0.959 . S
H812 C826 0.961 . S
H813 C827 0.960 . S
H814 C827 0.961 . S
H815 C827 0.959 . S
H816 C830 0.929 . S
H817 C831 0.931 . S
H818 C833 0.930 . S
C819 H807 0.930 . S
C819 C820 1.399 . S
C819 C824 1.399 . S
C820 C819 1.399 . S
C820 C821 1.376 . S
C821 H808 0.930 . S
C821 C820 1.376 . S
C821 C822 1.388 . S
C822 H809 0.930 . S
C822 C821 1.388 . S
C822 C823 1.390 . S
C823 C822 1.390 . S
C823 C824 1.394 . S
C823 C829 1.465 . S
C824 C819 1.399 . S
C824 C823 1.394 . S
C824 C825 1.516 . S
C825 C824 1.516 . S
C825 C826 1.502 . S
C825 C827 1.561 . S
C825 C828 1.526 . S
C826 H810 0.959 . S
C826 H811 0.959 . S
C826 H812 0.961 . S
C826 C825 1.502 . S
C827 H813 0.960 . S
C827 H814 0.961 . S
C827 H815 0.959 . S
C827 C825 1.561 . S
C828 C825 1.526 . S
C828 C829 1.396 . S
C828 C833 1.390 . S
C829 C823 1.465 . S
C829 C828 1.396 . S
C829 C830 1.399 . S
C830 H816 0.929 . S
C830 C829 1.399 . S
C830 C831 1.385 . S
C831 H817 0.931 . S
C831 C830 1.385 . S
C831 C832 1.389 . S
C832 C831 1.389 . S
C832 C833 1.387 . S
C833 H818 0.930 . S
C833 C828 1.390 . S
C833 C832 1.387 . S
H834 C846 0.930 . S
H835 C848 0.930 . S
H836 C849 0.930 . S
H837 C853 0.959 . S
H838 C853 0.959 . S
H839 C853 0.961 . S
H840 C854 0.960 . S
H841 C854 0.961 . S
H842 C854 0.959 . S
H843 C857 0.929 . S
H844 C858 0.931 . S
H845 C860 0.930 . S
C846 H834 0.930 . S
C846 C847 1.399 . S
C846 C851 1.399 . S
C847 C846 1.399 . S
C847 C848 1.376 . S
C848 H835 0.930 . S
C848 C847 1.376 . S
C848 C849 1.388 . S
C849 H836 0.930 . S
C849 C848 1.388 . S
C849 C850 1.390 . S
C850 C849 1.390 . S
C850 C851 1.394 . S
C850 C856 1.465 . S
C851 C846 1.399 . S
C851 C850 1.394 . S
C851 C852 1.516 . S
C852 C851 1.516 . S
C852 C853 1.502 . S
C852 C854 1.561 . S
C852 C855 1.526 . S
C853 H837 0.959 . S
C853 H838 0.959 . S
C853 H839 0.961 . S
C853 C852 1.502 . S
C854 H840 0.960 . S
C854 H841 0.961 . S
C854 H842 0.959 . S
C854 C852 1.561 . S
C855 C852 1.526 . S
C855 C856 1.396 . S
C855 C860 1.390 . S
C856 C850 1.465 . S
C856 C855 1.396 . S
C856 C857 1.399 . S
C857 H843 0.929 . S
C857 C856 1.399 . S
C857 C858 1.385 . S
C858 H844 0.931 . S
C858 C857 1.385 . S
C858 C859 1.389 . S
C859 C858 1.389 . S
C859 C860 1.387 . S
C860 H845 0.930 . S
C860 C855 1.390 . S
C860 C859 1.387 . S
H861 C873 0.930 . S
H862 C875 0.930 . S
H863 C876 0.930 . S
H864 C880 0.959 . S
H865 C880 0.959 . S
H866 C880 0.961 . S
H867 C881 0.964 . S
H868 C881 0.961 . S
H869 C881 0.959 . S
H870 C884 0.929 . S
H871 C885 0.931 . S
H872 C887 0.930 . S
C873 H861 0.930 . S
C873 C874 1.399 . S
C873 C878 1.443 . S
C874 C873 1.399 . S
C874 C875 1.376 . S
C875 H862 0.930 . S
C875 C874 1.376 . S
C875 C876 1.388 . S
C876 H863 0.930 . S
C876 C875 1.388 . S
C876 C877 1.390 1_455 S
C877 C876 1.390 1_655 S
C877 C878 1.383 1_655 S
C877 C883 1.465 . S
C878 C873 1.443 . S
C878 C877 1.383 1_455 S
C878 C879 1.480 1_455 S
C879 C878 1.480 1_655 S
C879 C880 1.502 . S
C879 C881 1.561 . S
C879 C882 1.526 . S
C880 H864 0.959 . S
C880 H865 0.959 . S
C880 H866 0.961 . S
C880 C879 1.502 . S
C881 H867 0.964 . S
C881 H868 0.961 . S
C881 H869 0.959 . S
C881 C879 1.561 . S
C882 C879 1.526 . S
C882 C883 1.396 . S
C882 C887 1.390 . S
C883 C877 1.465 . S
C883 C882 1.396 . S
C883 C884 1.399 . S
C884 H870 0.929 . S
C884 C883 1.399 . S
C884 C885 1.385 . S
C885 H871 0.931 . S
C885 C884 1.385 . S
C885 C886 1.389 . S
C886 C885 1.389 . S
C886 C887 1.387 . S
C887 H872 0.930 . S
C887 C882 1.390 . S
C887 C886 1.387 . S
H888 C900 0.930 . S
H889 C902 0.930 . S
H890 C903 0.930 . S
H891 C907 0.959 . S
H892 C907 0.959 . S
H893 C907 0.961 . S
H894 C908 0.960 . S
H895 C908 0.961 . S
H896 C908 0.959 . S
H897 C911 0.929 . S
H898 C912 0.931 . S
H899 C914 0.930 . S
C900 H888 0.930 . S
C900 C901 1.399 . S
C900 C905 1.399 . S
C901 C900 1.399 . S
C901 C902 1.376 . S
C902 H889 0.930 . S
C902 C901 1.376 . S
C902 C903 1.388 . S
C903 H890 0.930 . S
C903 C902 1.388 . S
C903 C904 1.390 . S
C904 C903 1.390 . S
C904 C905 1.394 . S
C904 C910 1.465 . S
C905 C900 1.399 . S
C905 C904 1.394 . S
C905 C906 1.516 . S
C906 C905 1.516 . S
C906 C907 1.502 . S
C906 C908 1.561 . S
C906 C909 1.526 . S
C907 H891 0.959 . S
C907 H892 0.959 . S
C907 H893 0.961 . S
C907 C906 1.502 . S
C908 H894 0.960 . S
C908 H895 0.961 . S
C908 H896 0.959 . S
C908 C906 1.561 . S
C909 C906 1.526 . S
C909 C910 1.396 . S
C909 C914 1.390 . S
C910 C904 1.465 . S
C910 C909 1.396 . S
C910 C911 1.399 . S
C911 H897 0.929 . S
C911 C910 1.399 . S
C911 C912 1.385 . S
C912 H898 0.931 . S
C912 C911 1.385 . S
C912 C913 1.389 . S
C913 C912 1.389 . S
C913 C914 1.387 . S
C914 H899 0.930 . S
C914 C909 1.390 . S
C914 C913 1.387 . S
H915 C927 0.930 . S
H916 C929 0.930 . S
H917 C930 0.930 . S
H918 C934 0.959 . S
H919 C934 0.959 . S
H920 C934 0.961 . S
H921 C935 0.960 . S
H922 C935 0.961 . S
H923 C935 0.959 . S
H924 C938 0.929 . S
H925 C939 0.931 . S
H926 C941 0.930 . S
C927 H915 0.930 . S
C927 C928 1.399 . S
C927 C932 1.399 . S
C928 C927 1.399 . S
C928 C929 1.376 . S
C929 H916 0.930 . S
C929 C928 1.376 . S
C929 C930 1.388 . S
C930 H917 0.930 . S
C930 C929 1.388 . S
C930 C931 1.390 . S
C931 C930 1.390 . S
C931 C932 1.394 . S
C931 C937 1.465 . S
C932 C927 1.399 . S
C932 C931 1.394 . S
C932 C933 1.516 . S
C933 C932 1.516 . S
C933 C934 1.502 . S
C933 C935 1.561 . S
C933 C936 1.526 . S
C934 H918 0.959 . S
C934 H919 0.959 . S
C934 H920 0.961 . S
C934 C933 1.502 . S
C935 H921 0.960 . S
C935 H922 0.961 . S
C935 H923 0.959 . S
C935 C933 1.561 . S
C936 C933 1.526 . S
C936 C937 1.396 . S
C936 C941 1.390 . S
C937 C931 1.465 . S
C937 C936 1.396 . S
C937 C938 1.399 . S
C938 H924 0.929 . S
C938 C937 1.399 . S
C938 C939 1.385 . S
C939 H925 0.931 . S
C939 C938 1.385 . S
C939 C940 1.389 . S
C940 C939 1.389 . S
C940 C941 1.387 . S
C941 H926 0.930 . S
C941 C936 1.390 . S
C941 C940 1.387 . S
H942 C954 0.930 . S
H943 C956 0.930 . S
H944 C957 0.930 . S
H945 C961 0.959 . S
H946 C961 0.959 . S
H947 C961 0.961 . S
H948 C962 0.960 . S
H949 C962 0.961 . S
H950 C962 0.959 . S
H951 C965 0.929 . S
H952 C966 0.931 . S
H953 C968 0.930 . S
C954 H942 0.930 . S
C954 C955 1.399 . S
C954 C959 1.399 . S
C955 C954 1.399 . S
C955 C956 1.376 . S
C956 H943 0.930 . S
C956 C955 1.376 . S
C956 C957 1.388 . S
C957 H944 0.930 . S
C957 C956 1.388 . S
C957 C958 1.390 . S
C958 C957 1.390 . S
C958 C959 1.394 . S
C958 C964 1.465 . S
C959 C954 1.399 . S
C959 C958 1.394 . S
C959 C960 1.516 . S
C960 C959 1.516 . S
C960 C961 1.502 . S
C960 C962 1.561 . S
C960 C963 1.526 . S
C961 H945 0.959 . S
C961 H946 0.959 . S
C961 H947 0.961 . S
C961 C960 1.502 . S
C962 H948 0.960 . S
C962 H949 0.961 . S
C962 H950 0.959 . S
C962 C960 1.561 . S
C963 C960 1.526 . S
C963 C964 1.396 . S
C963 C968 1.390 . S
C964 C958 1.465 . S
C964 C963 1.396 . S
C964 C965 1.399 . S
C965 H951 0.929 . S
C965 C964 1.399 . S
C965 C966 1.385 . S
C966 H952 0.931 . S
C966 C965 1.385 . S
C966 C967 1.389 . S
C967 C966 1.389 . S
C967 C968 1.387 . S
C968 H953 0.930 . S
C968 C963 1.390 . S
C968 C967 1.387 . S
H969 C981 0.930 . S
H970 C983 0.930 . S
H971 C984 0.930 . S
H972 C988 0.959 . S
H973 C988 0.959 . S
H974 C988 0.961 . S
H975 C989 0.960 . S
H976 C989 0.961 . S
H977 C989 0.959 . S
H978 C992 0.929 . S
H979 C993 0.931 . S
H980 C995 0.930 . S
C981 H969 0.930 . S
C981 C982 1.399 . S
C981 C986 1.399 1_556 S
C982 C981 1.399 . S
C982 C983 1.376 . S
C983 H970 0.930 . S
C983 C982 1.376 . S
C983 C984 1.388 1_556 S
C984 H971 0.930 . S
C984 C983 1.388 1_554 S
C984 C985 1.390 . S
C985 C984 1.390 . S
C985 C986 1.394 . S
C985 C991 1.465 . S
C986 C981 1.399 1_554 S
C986 C985 1.394 . S
C986 C987 1.516 . S
C987 C986 1.516 . S
C987 C988 1.502 . S
C987 C989 1.561 . S
C987 C990 1.526 . S
C988 H972 0.959 . S
C988 H973 0.959 . S
C988 H974 0.961 . S
C988 C987 1.502 . S
C989 H975 0.960 . S
C989 H976 0.961 . S
C989 H977 0.959 . S
C989 C987 1.561 . S
C990 C987 1.526 . S
C990 C991 1.396 . S
C990 C995 1.390 . S
C991 C985 1.465 . S
C991 C990 1.396 . S
C991 C992 1.399 . S
C992 H978 0.929 . S
C992 C991 1.399 . S
C992 C993 1.385 . S
C993 H979 0.931 . S
C993 C992 1.385 . S
C993 C994 1.389 . S
C994 C993 1.389 . S
C994 C995 1.387 . S
C995 H980 0.930 . S
C995 C990 1.390 . S
C995 C994 1.387 . S
H996 C1008 0.930 . S
H997 C1010 0.930 . S
H998 C1011 0.930 . S
H999 C1015 0.959 . S
H1000 C1015 0.959 . S
H1001 C1015 0.961 . S
H1002 C1016 0.960 . S
H1003 C1016 0.961 . S
H1004 C1016 0.959 . S
H1005 C1019 0.929 . S
H1006 C1020 0.931 . S
H1007 C1022 0.930 . S
C1008 H996 0.930 . S
C1008 C1009 1.399 . S
C1008 C1013 1.399 . S
C1009 C1008 1.399 . S
C1009 C1010 1.376 . S
C1010 H997 0.930 . S
C1010 C1009 1.376 . S
C1010 C1011 1.388 . S
C1011 H998 0.930 . S
C1011 C1010 1.388 . S
C1011 C1012 1.390 . S
C1012 C1011 1.390 . S
C1012 C1013 1.394 . S
C1012 C1018 1.465 . S
C1013 C1008 1.399 . S
C1013 C1012 1.394 . S
C1013 C1014 1.516 . S
C1014 C1013 1.516 . S
C1014 C1015 1.502 . S
C1014 C1016 1.561 . S
C1014 C1017 1.526 . S
C1015 H999 0.959 . S
C1015 H1000 0.959 . S
C1015 H1001 0.961 . S
C1015 C1014 1.502 . S
C1016 H1002 0.960 . S
C1016 H1003 0.961 . S
C1016 H1004 0.959 . S
C1016 C1014 1.561 . S
C1017 C1014 1.526 . S
C1017 C1018 1.396 . S
C1017 C1022 1.390 . S
C1018 C1012 1.465 . S
C1018 C1017 1.396 . S
C1018 C1019 1.399 . S
C1019 H1005 0.929 . S
C1019 C1018 1.399 . S
C1019 C1020 1.385 . S
C1020 H1006 0.931 . S
C1020 C1019 1.385 . S
C1020 C1021 1.389 . S
C1021 C1020 1.389 . S
C1021 C1022 1.387 . S
C1022 H1007 0.930 . S
C1022 C1017 1.390 . S
C1022 C1021 1.387 . S
H1023 C1035 0.930 . S
H1024 C1037 0.930 . S
H1025 C1038 0.930 . S
H1026 C1042 0.959 . S
H1027 C1042 0.959 . S
H1028 C1042 0.961 . S
H1029 C1043 0.960 . S
H1030 C1043 0.961 . S
H1031 C1043 0.959 . S
H1032 C1046 0.929 . S
H1033 C1047 0.931 . S
H1034 C1049 0.930 . S
C1035 H1023 0.930 . S
C1035 C1036 1.399 . S
C1035 C1040 1.399 . S
C1036 C1035 1.399 . S
C1036 C1037 1.376 . S
C1037 H1024 0.930 . S
C1037 C1036 1.376 . S
C1037 C1038 1.388 . S
C1038 H1025 0.930 . S
C1038 C1037 1.388 . S
C1038 C1039 1.390 . S
C1039 C1038 1.390 . S
C1039 C1040 1.394 . S
C1039 C1045 1.465 . S
C1040 C1035 1.399 . S
C1040 C1039 1.394 . S
C1040 C1041 1.516 . S
C1041 C1040 1.516 . S
C1041 C1042 1.502 . S
C1041 C1043 1.561 . S
C1041 C1044 1.526 . S
C1042 H1026 0.959 . S
C1042 H1027 0.959 . S
C1042 H1028 0.961 . S
C1042 C1041 1.502 . S
C1043 H1029 0.960 . S
C1043 H1030 0.961 . S
C1043 H1031 0.959 . S
C1043 C1041 1.561 . S
C1044 C1041 1.526 . S
C1044 C1045 1.396 . S
C1044 C1049 1.390 . S
C1045 C1039 1.465 . S
C1045 C1044 1.396 . S
C1045 C1046 1.399 . S
C1046 H1032 0.929 . S
C1046 C1045 1.399 . S
C1046 C1047 1.385 . S
C1047 H1033 0.931 . S
C1047 C1046 1.385 . S
C1047 C1048 1.389 . S
C1048 C1047 1.389 . S
C1048 C1049 1.387 . S
C1049 H1034 0.930 . S
C1049 C1044 1.390 . S
C1049 C1048 1.387 . S
H1050 C1062 0.930 . S
H1051 C1064 0.930 . S
H1052 C1065 0.930 . S
H1053 C1069 0.959 . S
H1054 C1069 0.959 . S
H1055 C1069 0.961 . S
H1056 C1070 0.960 . S
H1057 C1070 0.961 . S
H1058 C1070 0.959 . S
H1059 C1073 0.929 . S
H1060 C1074 0.931 . S
H1061 C1076 0.930 . S
C1062 H1050 0.930 . S
C1062 C1063 1.399 . S
C1062 C1067 1.399 . S
C1063 C1062 1.399 . S
C1063 C1064 1.376 . S
C1064 H1051 0.930 . S
C1064 C1063 1.376 . S
C1064 C1065 1.388 . S
C1065 H1052 0.930 . S
C1065 C1064 1.388 . S
C1065 C1066 1.390 . S
C1066 C1065 1.390 . S
C1066 C1067 1.394 . S
C1066 C1072 1.465 . S
C1067 C1062 1.399 . S
C1067 C1066 1.394 . S
C1067 C1068 1.516 . S
C1068 C1067 1.516 . S
C1068 C1069 1.502 . S
C1068 C1070 1.561 . S
C1068 C1071 1.526 . S
C1069 H1053 0.959 . S
C1069 H1054 0.959 . S
C1069 H1055 0.961 . S
C1069 C1068 1.502 . S
C1070 H1056 0.960 . S
C1070 H1057 0.961 . S
C1070 H1058 0.959 . S
C1070 C1068 1.561 . S
C1071 C1068 1.526 . S
C1071 C1072 1.396 . S
C1071 C1076 1.390 . S
C1072 C1066 1.465 . S
C1072 C1071 1.396 . S
C1072 C1073 1.399 . S
C1073 H1059 0.929 . S
C1073 C1072 1.399 . S
C1073 C1074 1.385 . S
C1074 H1060 0.931 . S
C1074 C1073 1.385 . S
C1074 C1075 1.389 . S
C1075 C1074 1.389 . S
C1075 C1076 1.387 . S
C1076 H1061 0.930 . S
C1076 C1071 1.390 . S
C1076 C1075 1.387 . S
H1077 C1089 0.930 . S
H1078 C1091 0.930 . S
H1079 C1092 0.930 1_556 S
H1080 C1096 0.959 . S
H1081 C1096 0.959 . S
H1082 C1096 0.961 1_554 S
H1083 C1097 0.960 1_554 S
H1084 C1097 0.961 . S
H1085 C1097 0.959 . S
H1086 C1100 0.929 . S
H1087 C1101 0.931 . S
H1088 C1103 0.930 . S
C1089 H1077 0.930 . S
C1089 C1090 1.399 . S
C1089 C1094 1.399 . S
C1090 C1089 1.399 . S
C1090 C1091 1.376 . S
C1091 H1078 0.930 . S
C1091 C1090 1.376 . S
C1091 C1092 1.388 . S
C1092 H1079 0.930 1_554 S
C1092 C1091 1.388 . S
C1092 C1093 1.390 1_554 S
C1093 C1092 1.390 1_556 S
C1093 C1094 1.394 1_556 S
C1093 C1099 1.465 . S
C1094 C1089 1.399 . S
C1094 C1093 1.394 1_554 S
C1094 C1095 1.516 1_554 S
C1095 C1094 1.516 1_556 S
C1095 C1096 1.502 . S
C1095 C1097 1.561 . S
C1095 C1098 1.526 . S
C1096 H1080 0.959 . S
C1096 H1081 0.959 . S
C1096 H1082 0.961 1_556 S
C1096 C1095 1.502 . S
C1097 H1083 0.960 1_556 S
C1097 H1084 0.961 . S
C1097 H1085 0.959 . S
C1097 C1095 1.561 . S
C1098 C1095 1.526 . S
C1098 C1099 1.396 . S
C1098 C1103 1.390 . S
C1099 C1093 1.465 . S
C1099 C1098 1.396 . S
C1099 C1100 1.399 . S
C1100 H1086 0.929 . S
C1100 C1099 1.399 . S
C1100 C1101 1.385 . S
C1101 H1087 0.931 . S
C1101 C1100 1.385 . S
C1101 C1102 1.389 . S
C1102 C1101 1.389 . S
C1102 C1103 1.387 . S
C1103 H1088 0.930 . S
C1103 C1098 1.390 . S
C1103 C1102 1.387 . S
H1104 C1116 0.930 . S
H1105 C1118 0.930 . S
H1106 C1119 0.930 . S
H1107 C1123 0.959 . S
H1108 C1123 0.959 . S
H1109 C1123 0.961 . S
H1110 C1124 0.960 . S
H1111 C1124 0.961 . S
H1112 C1124 0.959 . S
H1113 C1127 0.929 . S
H1114 C1128 0.931 . S
H1115 C1130 0.930 . S
C1116 H1104 0.930 . S
C1116 C1117 1.399 . S
C1116 C1121 1.399 . S
C1117 C1116 1.399 . S
C1117 C1118 1.376 . S
C1118 H1105 0.930 . S
C1118 C1117 1.376 . S
C1118 C1119 1.388 . S
C1119 H1106 0.930 . S
C1119 C1118 1.388 . S
C1119 C1120 1.390 . S
C1120 C1119 1.390 . S
C1120 C1121 1.394 . S
C1120 C1126 1.465 . S
C1121 C1116 1.399 . S
C1121 C1120 1.394 . S
C1121 C1122 1.516 . S
C1122 C1121 1.516 . S
C1122 C1123 1.502 . S
C1122 C1124 1.561 . S
C1122 C1125 1.526 . S
C1123 H1107 0.959 . S
C1123 H1108 0.959 . S
C1123 H1109 0.961 . S
C1123 C1122 1.502 . S
C1124 H1110 0.960 . S
C1124 H1111 0.961 . S
C1124 H1112 0.959 . S
C1124 C1122 1.561 . S
C1125 C1122 1.526 . S
C1125 C1126 1.396 . S
C1125 C1130 1.390 . S
C1126 C1120 1.465 . S
C1126 C1125 1.396 . S
C1126 C1127 1.399 . S
C1127 H1113 0.929 . S
C1127 C1126 1.399 . S
C1127 C1128 1.385 . S
C1128 H1114 0.931 . S
C1128 C1127 1.385 . S
C1128 C1129 1.389 . S
C1129 C1128 1.389 . S
C1129 C1130 1.387 . S
C1130 H1115 0.930 . S
C1130 C1125 1.390 . S
C1130 C1129 1.387 . S
H1131 C1143 0.930 . S
H1132 C1145 0.930 . S
H1133 C1146 0.930 . S
H1134 C1150 0.959 . S
H1135 C1150 0.959 . S
H1136 C1150 0.961 . S
H1137 C1151 0.960 . S
H1138 C1151 0.961 . S
H1139 C1151 0.959 . S
H1140 C1154 0.929 . S
H1141 C1155 0.931 . S
H1142 C1157 0.930 . S
C1143 H1131 0.930 . S
C1143 C1144 1.399 . S
C1143 C1148 1.399 . S
C1144 C1143 1.399 . S
C1144 C1145 1.376 . S
C1145 H1132 0.930 . S
C1145 C1144 1.376 . S
C1145 C1146 1.388 . S
C1146 H1133 0.930 . S
C1146 C1145 1.388 . S
C1146 C1147 1.390 . S
C1147 C1146 1.390 . S
C1147 C1148 1.394 . S
C1147 C1153 1.465 . S
C1148 C1143 1.399 . S
C1148 C1147 1.394 . S
C1148 C1149 1.516 . S
C1149 C1148 1.516 . S
C1149 C1150 1.502 . S
C1149 C1151 1.561 . S
C1149 C1152 1.526 . S
C1150 H1134 0.959 . S
C1150 H1135 0.959 . S
C1150 H1136 0.961 . S
C1150 C1149 1.502 . S
C1151 H1137 0.960 . S
C1151 H1138 0.961 . S
C1151 H1139 0.959 . S
C1151 C1149 1.561 . S
C1152 C1149 1.526 . S
C1152 C1153 1.396 . S
C1152 C1157 1.390 . S
C1153 C1147 1.465 . S
C1153 C1152 1.396 . S
C1153 C1154 1.399 . S
C1154 H1140 0.929 . S
C1154 C1153 1.399 . S
C1154 C1155 1.385 . S
C1155 H1141 0.931 . S
C1155 C1154 1.385 . S
C1155 C1156 1.389 . S
C1156 C1155 1.389 . S
C1156 C1157 1.387 . S
C1157 H1142 0.930 . S
C1157 C1152 1.390 . S
C1157 C1156 1.387 . S
H1158 C1170 0.930 . S
H1159 C1172 0.930 . S
H1160 C1173 0.930 . S
H1161 C1177 0.959 . S
H1162 C1177 0.959 . S
H1163 C1177 0.961 . S
H1164 C1178 0.960 . S
H1165 C1178 0.961 . S
H1166 C1178 0.959 . S
H1167 C1181 0.929 . S
H1168 C1182 0.931 . S
H1169 C1184 0.930 . S
C1170 H1158 0.930 . S
C1170 C1171 1.399 . S
C1170 C1175 1.399 . S
C1171 C1170 1.399 . S
C1171 C1172 1.376 . S
C1172 H1159 0.930 . S
C1172 C1171 1.376 . S
C1172 C1173 1.388 . S
C1173 H1160 0.930 . S
C1173 C1172 1.388 . S
C1173 C1174 1.390 . S
C1174 C1173 1.390 . S
C1174 C1175 1.394 . S
C1174 C1180 1.465 . S
C1175 C1170 1.399 . S
C1175 C1174 1.394 . S
C1175 C1176 1.516 . S
C1176 C1175 1.516 . S
C1176 C1177 1.502 . S
C1176 C1178 1.561 . S
C1176 C1179 1.526 . S
C1177 H1161 0.959 . S
C1177 H1162 0.959 . S
C1177 H1163 0.961 . S
C1177 C1176 1.502 . S
C1178 H1164 0.960 . S
C1178 H1165 0.961 . S
C1178 H1166 0.959 . S
C1178 C1176 1.561 . S
C1179 C1176 1.526 . S
C1179 C1180 1.396 . S
C1179 C1184 1.390 . S
C1180 C1174 1.465 . S
C1180 C1179 1.396 . S
C1180 C1181 1.399 . S
C1181 H1167 0.929 . S
C1181 C1180 1.399 . S
C1181 C1182 1.385 . S
C1182 H1168 0.931 . S
C1182 C1181 1.385 . S
C1182 C1183 1.389 . S
C1183 C1182 1.389 . S
C1183 C1184 1.387 . S
C1184 H1169 0.930 . S
C1184 C1179 1.390 . S
C1184 C1183 1.387 . S
H1185 C1197 0.930 . S
H1186 C1199 0.930 . S
H1187 C1200 0.930 . S
H1188 C1204 0.959 . S
H1189 C1204 0.959 . S
H1190 C1204 0.961 . S
H1191 C1205 0.960 . S
H1192 C1205 0.961 . S
H1193 C1205 0.959 . S
H1194 C1208 0.929 . S
H1195 C1209 0.931 . S
H1196 C1211 0.930 . S
C1197 H1185 0.930 . S
C1197 C1198 1.399 . S
C1197 C1202 1.399 . S
C1198 C1197 1.399 . S
C1198 C1199 1.376 . S
C1199 H1186 0.930 . S
C1199 C1198 1.376 . S
C1199 C1200 1.388 . S
C1200 H1187 0.930 . S
C1200 C1199 1.388 . S
C1200 C1201 1.390 . S
C1201 C1200 1.390 . S
C1201 C1202 1.394 . S
C1201 C1207 1.465 . S
C1202 C1197 1.399 . S
C1202 C1201 1.394 . S
C1202 C1203 1.516 . S
C1203 C1202 1.516 . S
C1203 C1204 1.502 . S
C1203 C1205 1.561 . S
C1203 C1206 1.526 . S
C1204 H1188 0.959 . S
C1204 H1189 0.959 . S
C1204 H1190 0.961 . S
C1204 C1203 1.502 . S
C1205 H1191 0.960 . S
C1205 H1192 0.961 . S
C1205 H1193 0.959 . S
C1205 C1203 1.561 . S
C1206 C1203 1.526 . S
C1206 C1207 1.396 . S
C1206 C1211 1.390 . S
C1207 C1201 1.465 . S
C1207 C1206 1.396 . S
C1207 C1208 1.399 . S
C1208 H1194 0.929 . S
C1208 C1207 1.399 . S
C1208 C1209 1.385 . S
C1209 H1195 0.931 . S
C1209 C1208 1.385 . S
C1209 C1210 1.389 . S
C1210 C1209 1.389 . S
C1210 C1211 1.387 . S
C1211 H1196 0.930 . S
C1211 C1206 1.390 . S
C1211 C1210 1.387 . S
H1212 C1224 0.930 . S
H1213 C1226 0.930 . S
H1214 C1227 0.930 . S
H1215 C1231 0.959 . S
H1216 C1231 0.959 1_545 S
H1217 C1231 0.961 . S
H1218 C1232 0.960 . S
H1219 C1232 0.961 . S
H1220 C1232 0.959 . S
H1221 C1235 0.929 . S
H1222 C1236 0.931 . S
H1223 C1238 0.930 . S
C1224 H1212 0.930 . S
C1224 C1225 1.399 . S
C1224 C1229 1.399 . S
C1225 C1224 1.399 . S
C1225 C1226 1.376 . S
C1226 H1213 0.930 . S
C1226 C1225 1.376 . S
C1226 C1227 1.388 . S
C1227 H1214 0.930 . S
C1227 C1226 1.388 . S
C1227 C1228 1.390 . S
C1228 C1227 1.390 . S
C1228 C1229 1.394 . S
C1228 C1234 1.465 . S
C1229 C1224 1.399 . S
C1229 C1228 1.394 . S
C1229 C1230 1.516 . S
C1230 C1229 1.516 . S
C1230 C1231 1.502 . S
C1230 C1232 1.561 . S
C1230 C1233 1.526 1_565 S
C1231 H1215 0.959 . S
C1231 H1216 0.959 1_565 S
C1231 H1217 0.961 . S
C1231 C1230 1.502 . S
C1232 H1218 0.960 . S
C1232 H1219 0.961 . S
C1232 H1220 0.959 . S
C1232 C1230 1.561 . S
C1233 C1230 1.526 1_545 S
C1233 C1234 1.396 1_545 S
C1233 C1238 1.390 . S
C1234 C1228 1.465 . S
C1234 C1233 1.396 1_565 S
C1234 C1235 1.399 1_565 S
C1235 H1221 0.929 . S
C1235 C1234 1.399 1_545 S
C1235 C1236 1.385 . S
C1236 H1222 0.931 . S
C1236 C1235 1.385 . S
C1236 C1237 1.389 . S
C1237 C1236 1.389 . S
C1237 C1238 1.387 . S
C1238 H1223 0.930 . S
C1238 C1233 1.390 . S
C1238 C1237 1.387 . S
H1239 C1251 0.930 . S
H1240 C1253 0.930 . S
H1241 C1254 0.930 . S
H1242 C1258 0.959 . S
H1243 C1258 0.959 . S
H1244 C1258 0.961 . S
H1245 C1259 0.960 . S
H1246 C1259 0.961 . S
H1247 C1259 0.959 . S
H1248 C1262 0.929 . S
H1249 C1263 0.931 . S
H1250 C1265 0.930 . S
C1251 H1239 0.930 . S
C1251 C1252 1.399 . S
C1251 C1256 1.399 . S
C1252 C1251 1.399 . S
C1252 C1253 1.376 . S
C1253 H1240 0.930 . S
C1253 C1252 1.376 . S
C1253 C1254 1.388 . S
C1254 H1241 0.930 . S
C1254 C1253 1.388 . S
C1254 C1255 1.390 . S
C1255 C1254 1.390 . S
C1255 C1256 1.394 . S
C1255 C1261 1.465 . S
C1256 C1251 1.399 . S
C1256 C1255 1.394 . S
C1256 C1257 1.516 . S
C1257 C1256 1.516 . S
C1257 C1258 1.502 . S
C1257 C1259 1.561 . S
C1257 C1260 1.526 . S
C1258 H1242 0.959 . S
C1258 H1243 0.959 . S
C1258 H1244 0.961 . S
C1258 C1257 1.502 . S
C1259 H1245 0.960 . S
C1259 H1246 0.961 . S
C1259 H1247 0.959 . S
C1259 C1257 1.561 . S
C1260 C1257 1.526 . S
C1260 C1261 1.396 . S
C1260 C1265 1.390 . S
C1261 C1255 1.465 . S
C1261 C1260 1.396 . S
C1261 C1262 1.399 . S
C1262 H1248 0.929 . S
C1262 C1261 1.399 . S
C1262 C1263 1.385 . S
C1263 H1249 0.931 . S
C1263 C1262 1.385 . S
C1263 C1264 1.389 . S
C1264 C1263 1.389 . S
C1264 C1265 1.387 . S
C1265 H1250 0.930 . S
C1265 C1260 1.390 . S
C1265 C1264 1.387 . S
H1266 C1278 0.930 . S
H1267 C1280 0.930 . S
H1268 C1281 0.930 . S
H1269 C1285 0.959 . S
H1270 C1285 0.959 . S
H1271 C1285 0.961 . S
H1272 C1286 0.960 . S
H1273 C1286 0.961 . S
H1274 C1286 0.959 . S
H1275 C1289 0.929 . S
H1276 C1290 0.931 . S
H1277 C1292 0.930 . S
C1278 H1266 0.930 . S
C1278 C1279 1.399 . S
C1278 C1283 1.399 . S
C1279 C1278 1.399 . S
C1279 C1280 1.376 . S
C1280 H1267 0.930 . S
C1280 C1279 1.376 . S
C1280 C1281 1.388 . S
C1281 H1268 0.930 . S
C1281 C1280 1.388 . S
C1281 C1282 1.390 . S
C1282 C1281 1.390 . S
C1282 C1283 1.394 . S
C1282 C1288 1.465 . S
C1283 C1278 1.399 . S
C1283 C1282 1.394 . S
C1283 C1284 1.516 . S
C1284 C1283 1.516 . S
C1284 C1285 1.502 . S
C1284 C1286 1.561 . S
C1284 C1287 1.526 . S
C1285 H1269 0.959 . S
C1285 H1270 0.959 . S
C1285 H1271 0.961 . S
C1285 C1284 1.502 . S
C1286 H1272 0.960 . S
C1286 H1273 0.961 . S
C1286 H1274 0.959 . S
C1286 C1284 1.561 . S
C1287 C1284 1.526 . S
C1287 C1288 1.396 . S
C1287 C1292 1.390 . S
C1288 C1282 1.465 . S
C1288 C1287 1.396 . S
C1288 C1289 1.399 . S
C1289 H1275 0.929 . S
C1289 C1288 1.399 . S
C1289 C1290 1.385 . S
C1290 H1276 0.931 . S
C1290 C1289 1.385 . S
C1290 C1291 1.389 . S
C1291 C1290 1.389 . S
C1291 C1292 1.387 . S
C1292 H1277 0.930 . S
C1292 C1287 1.390 . S
C1292 C1291 1.387 . S
H1293 C1305 0.930 . S
H1294 C1307 0.930 . S
H1295 C1308 0.930 . S
H1296 C1312 0.959 . S
H1297 C1312 0.959 . S
H1298 C1312 0.961 . S
H1299 C1313 0.960 . S
H1300 C1313 0.961 . S
H1301 C1313 0.959 . S
H1302 C1316 0.929 . S
H1303 C1317 0.931 . S
H1304 C1319 0.930 . S
C1305 H1293 0.930 . S
C1305 C1306 1.399 . S
C1305 C1310 1.399 . S
C1306 C1305 1.399 . S
C1306 C1307 1.376 . S
C1307 H1294 0.930 . S
C1307 C1306 1.376 . S
C1307 C1308 1.388 . S
C1308 H1295 0.930 . S
C1308 C1307 1.388 . S
C1308 C1309 1.390 . S
C1309 C1308 1.390 . S
C1309 C1310 1.394 . S
C1309 C1315 1.465 . S
C1310 C1305 1.399 . S
C1310 C1309 1.394 . S
C1310 C1311 1.516 . S
C1311 C1310 1.516 . S
C1311 C1312 1.502 . S
C1311 C1313 1.561 . S
C1311 C1314 1.526 . S
C1312 H1296 0.959 . S
C1312 H1297 0.959 . S
C1312 H1298 0.961 . S
C1312 C1311 1.502 . S
C1313 H1299 0.960 . S
C1313 H1300 0.961 . S
C1313 H1301 0.959 . S
C1313 C1311 1.561 . S
C1314 C1311 1.526 . S
C1314 C1315 1.396 . S
C1314 C1319 1.390 . S
C1315 C1309 1.465 . S
C1315 C1314 1.396 . S
C1315 C1316 1.399 . S
C1316 H1302 0.929 . S
C1316 C1315 1.399 . S
C1316 C1317 1.385 . S
C1317 H1303 0.931 . S
C1317 C1316 1.385 . S
C1317 C1318 1.389 . S
C1318 C1317 1.389 . S
C1318 C1319 1.387 . S
C1319 H1304 0.930 . S
C1319 C1314 1.390 . S
C1319 C1318 1.387 . S
H1320 C1332 0.930 . S
H1321 C1334 0.930 . S
H1322 C1335 0.930 . S
H1323 C1339 0.959 . S
H1324 C1339 0.959 . S
H1325 C1339 0.961 . S
H1326 C1340 0.960 . S
H1327 C1340 0.961 . S
H1328 C1340 0.959 . S
H1329 C1343 0.929 . S
H1330 C1344 0.931 . S
H1331 C1346 0.930 . S
C1332 H1320 0.930 . S
C1332 C1333 1.399 . S
C1332 C1337 1.399 . S
C1333 C1332 1.399 . S
C1333 C1334 1.376 . S
C1334 H1321 0.930 . S
C1334 C1333 1.376 . S
C1334 C1335 1.388 . S
C1335 H1322 0.930 . S
C1335 C1334 1.388 . S
C1335 C1336 1.390 . S
C1336 C1335 1.390 . S
C1336 C1337 1.394 . S
C1336 C1342 1.465 . S
C1337 C1332 1.399 . S
C1337 C1336 1.394 . S
C1337 C1338 1.516 . S
C1338 C1337 1.516 . S
C1338 C1339 1.502 . S
C1338 C1340 1.561 . S
C1338 C1341 1.526 . S
C1339 H1323 0.959 . S
C1339 H1324 0.959 . S
C1339 H1325 0.961 . S
C1339 C1338 1.502 . S
C1340 H1326 0.960 . S
C1340 H1327 0.961 . S
C1340 H1328 0.959 . S
C1340 C1338 1.561 . S
C1341 C1338 1.526 . S
C1341 C1342 1.396 . S
C1341 C1346 1.390 . S
C1342 C1336 1.465 . S
C1342 C1341 1.396 . S
C1342 C1343 1.399 . S
C1343 H1329 0.929 . S
C1343 C1342 1.399 . S
C1343 C1344 1.385 . S
C1344 H1330 0.931 . S
C1344 C1343 1.385 . S
C1344 C1345 1.389 . S
C1345 C1344 1.389 . S
C1345 C1346 1.387 . S
C1346 H1331 0.930 . S
C1346 C1341 1.390 . S
C1346 C1345 1.387 . S
H1347 C1359 0.930 . S
H1348 C1361 0.930 . S
H1349 C1362 0.930 . S
H1350 C1366 0.959 . S
H1351 C1366 0.959 . S
H1352 C1366 0.961 . S
H1353 C1367 0.960 . S
H1354 C1367 0.961 . S
H1355 C1367 0.959 . S
H1356 C1370 0.929 . S
H1357 C1371 0.931 . S
H1358 C1373 0.930 . S
C1359 H1347 0.930 . S
C1359 C1360 1.399 . S
C1359 C1364 1.399 1_655 S
C1360 C1359 1.399 . S
C1360 C1361 1.376 . S
C1361 H1348 0.930 . S
C1361 C1360 1.376 . S
C1361 C1362 1.388 . S
C1362 H1349 0.930 . S
C1362 C1361 1.388 . S
C1362 C1363 1.390 1_655 S
C1363 C1362 1.390 1_455 S
C1363 C1364 1.394 . S
C1363 C1369 1.465 . S
C1364 C1359 1.399 1_455 S
C1364 C1363 1.394 . S
C1364 C1365 1.516 . S
C1365 C1364 1.516 . S
C1365 C1366 1.502 . S
C1365 C1367 1.561 . S
C1365 C1368 1.526 . S
C1366 H1350 0.959 . S
C1366 H1351 0.959 . S
C1366 H1352 0.961 . S
C1366 C1365 1.502 . S
C1367 H1353 0.960 . S
C1367 H1354 0.961 . S
C1367 H1355 0.959 . S
C1367 C1365 1.561 . S
C1368 C1365 1.526 . S
C1368 C1369 1.396 . S
C1368 C1373 1.390 . S
C1369 C1363 1.465 . S
C1369 C1368 1.396 . S
C1369 C1370 1.399 . S
C1370 H1356 0.929 . S
C1370 C1369 1.399 . S
C1370 C1371 1.385 . S
C1371 H1357 0.931 . S
C1371 C1370 1.385 . S
C1371 C1372 1.389 . S
C1372 C1371 1.389 . S
C1372 C1373 1.387 . S
C1373 H1358 0.930 . S
C1373 C1368 1.390 . S
C1373 C1372 1.387 . S
H1374 C1386 0.930 . S
H1375 C1388 0.930 . S
H1376 C1389 0.930 . S
H1377 C1393 0.959 . S
H1378 C1393 0.959 . S
H1379 C1393 0.961 . S
H1380 C1394 0.960 . S
H1381 C1394 0.961 . S
H1382 C1394 0.959 . S
H1383 C1397 0.929 . S
H1384 C1398 0.931 . S
H1385 C1400 0.930 . S
C1386 H1374 0.930 . S
C1386 C1387 1.399 . S
C1386 C1391 1.399 . S
C1387 C1386 1.399 . S
C1387 C1388 1.376 . S
C1388 H1375 0.930 . S
C1388 C1387 1.376 . S
C1388 C1389 1.388 . S
C1389 H1376 0.930 . S
C1389 C1388 1.388 . S
C1389 C1390 1.390 . S
C1390 C1389 1.390 . S
C1390 C1391 1.394 . S
C1390 C1396 1.465 . S
C1391 C1386 1.399 . S
C1391 C1390 1.394 . S
C1391 C1392 1.516 . S
C1392 C1391 1.516 . S
C1392 C1393 1.502 . S
C1392 C1394 1.561 . S
C1392 C1395 1.526 . S
C1393 H1377 0.959 . S
C1393 H1378 0.959 . S
C1393 H1379 0.961 . S
C1393 C1392 1.502 . S
C1394 H1380 0.960 . S
C1394 H1381 0.961 . S
C1394 H1382 0.959 . S
C1394 C1392 1.561 . S
C1395 C1392 1.526 . S
C1395 C1396 1.396 . S
C1395 C1400 1.390 . S
C1396 C1390 1.465 . S
C1396 C1395 1.396 . S
C1396 C1397 1.399 . S
C1397 H1383 0.929 . S
C1397 C1396 1.399 . S
C1397 C1398 1.385 . S
C1398 H1384 0.931 . S
C1398 C1397 1.385 . S
C1398 C1399 1.389 . S
C1399 C1398 1.389 . S
C1399 C1400 1.387 . S
C1400 H1385 0.930 . S
C1400 C1395 1.390 . S
C1400 C1399 1.387 . S
H1401 C1413 0.930 . S
H1402 C1415 0.930 . S
H1403 C1416 0.930 . S
H1404 C1420 0.959 . S
H1405 C1420 0.959 . S
H1406 C1420 0.961 . S
H1407 C1421 0.960 . S
H1408 C1421 0.961 . S
H1409 C1421 0.959 . S
H1410 C1424 0.929 . S
H1411 C1425 0.931 . S
H1412 C1427 0.930 . S
C1413 H1401 0.930 . S
C1413 C1414 1.399 . S
C1413 C1418 1.399 . S
C1414 C1413 1.399 . S
C1414 C1415 1.376 . S
C1415 H1402 0.930 . S
C1415 C1414 1.376 . S
C1415 C1416 1.388 . S
C1416 H1403 0.930 . S
C1416 C1415 1.388 . S
C1416 C1417 1.390 . S
C1417 C1416 1.390 . S
C1417 C1418 1.394 . S
C1417 C1423 1.465 . S
C1418 C1413 1.399 . S
C1418 C1417 1.394 . S
C1418 C1419 1.516 . S
C1419 C1418 1.516 . S
C1419 C1420 1.502 . S
C1419 C1421 1.561 . S
C1419 C1422 1.526 . S
C1420 H1404 0.959 . S
C1420 H1405 0.959 . S
C1420 H1406 0.961 . S
C1420 C1419 1.502 . S
C1421 H1407 0.960 . S
C1421 H1408 0.961 . S
C1421 H1409 0.959 . S
C1421 C1419 1.561 . S
C1422 C1419 1.526 . S
C1422 C1423 1.396 . S
C1422 C1427 1.390 . S
C1423 C1417 1.465 . S
C1423 C1422 1.396 . S
C1423 C1424 1.399 . S
C1424 H1410 0.929 . S
C1424 C1423 1.399 . S
C1424 C1425 1.385 . S
C1425 H1411 0.931 . S
C1425 C1424 1.385 . S
C1425 C1426 1.389 . S
C1426 C1425 1.389 . S
C1426 C1427 1.387 . S
C1427 H1412 0.930 . S
C1427 C1422 1.390 . S
C1427 C1426 1.387 . S
H1428 C1440 0.930 . S
H1429 C1442 0.930 . S
H1430 C1443 0.930 . S
H1431 C1447 0.959 . S
H1432 C1447 0.959 . S
H1433 C1447 0.961 . S
H1434 C1448 0.960 . S
H1435 C1448 0.961 . S
H1436 C1448 0.959 . S
H1437 C1451 0.929 . S
H1438 C1452 0.931 . S
H1439 C1454 0.930 . S
C1440 H1428 0.930 . S
C1440 C1441 1.399 . S
C1440 C1445 1.399 . S
C1441 C1440 1.399 . S
C1441 C1442 1.376 . S
C1442 H1429 0.930 . S
C1442 C1441 1.376 . S
C1442 C1443 1.388 . S
C1443 H1430 0.930 . S
C1443 C1442 1.388 . S
C1443 C1444 1.390 . S
C1444 C1443 1.390 . S
C1444 C1445 1.394 . S
C1444 C1450 1.465 . S
C1445 C1440 1.399 . S
C1445 C1444 1.394 . S
C1445 C1446 1.516 . S
C1446 C1445 1.516 . S
C1446 C1447 1.502 . S
C1446 C1448 1.561 . S
C1446 C1449 1.526 . S
C1447 H1431 0.959 . S
C1447 H1432 0.959 . S
C1447 H1433 0.961 . S
C1447 C1446 1.502 . S
C1448 H1434 0.960 . S
C1448 H1435 0.961 . S
C1448 H1436 0.959 . S
C1448 C1446 1.561 . S
C1449 C1446 1.526 . S
C1449 C1450 1.396 . S
C1449 C1454 1.390 . S
C1450 C1444 1.465 . S
C1450 C1449 1.396 . S
C1450 C1451 1.399 . S
C1451 H1437 0.929 . S
C1451 C1450 1.399 . S
C1451 C1452 1.385 . S
C1452 H1438 0.931 . S
C1452 C1451 1.385 . S
C1452 C1453 1.389 . S
C1453 C1452 1.389 . S
C1453 C1454 1.387 . S
C1454 H1439 0.930 . S
C1454 C1449 1.390 . S
C1454 C1453 1.387 . S
H1455 C1467 0.930 . S
H1456 C1469 0.930 . S
H1457 C1470 0.930 . S
H1458 C1474 0.959 . S
H1459 C1474 0.959 . S
H1460 C1474 0.961 . S
H1461 C1475 0.960 . S
H1462 C1475 0.961 . S
H1463 C1475 0.959 . S
H1464 C1478 0.929 . S
H1465 C1479 0.931 . S
H1466 C1481 0.930 . S
C1467 H1455 0.930 . S
C1467 C1468 1.399 . S
C1467 C1472 1.399 . S
C1468 C1467 1.399 . S
C1468 C1469 1.376 . S
C1469 H1456 0.930 . S
C1469 C1468 1.376 . S
C1469 C1470 1.388 . S
C1470 H1457 0.930 . S
C1470 C1469 1.388 . S
C1470 C1471 1.390 . S
C1471 C1470 1.390 . S
C1471 C1472 1.394 . S
C1471 C1477 1.465 . S
C1472 C1467 1.399 . S
C1472 C1471 1.394 . S
C1472 C1473 1.516 . S
C1473 C1472 1.516 . S
C1473 C1474 1.502 . S
C1473 C1475 1.561 . S
C1473 C1476 1.526 . S
C1474 H1458 0.959 . S
C1474 H1459 0.959 . S
C1474 H1460 0.961 . S
C1474 C1473 1.502 . S
C1475 H1461 0.960 . S
C1475 H1462 0.961 . S
C1475 H1463 0.959 . S
C1475 C1473 1.561 . S
C1476 C1473 1.526 . S
C1476 C1477 1.396 . S
C1476 C1481 1.390 . S
C1477 C1471 1.465 . S
C1477 C1476 1.396 . S
C1477 C1478 1.399 . S
C1478 H1464 0.929 . S
C1478 C1477 1.399 . S
C1478 C1479 1.385 . S
C1479 H1465 0.931 . S
C1479 C1478 1.385 . S
C1479 C1480 1.389 . S
C1480 C1479 1.389 . S
C1480 C1481 1.387 . S
C1481 H1466 0.930 . S
C1481 C1476 1.390 . S
C1481 C1480 1.387 . S
H1482 C1494 0.930 . S
H1483 C1496 0.930 . S
H1484 C1497 0.930 . S
H1485 C1501 0.959 . S
H1486 C1501 0.959 . S
H1487 C1501 0.961 . S
H1488 C1502 0.960 . S
H1489 C1502 0.961 . S
H1490 C1502 0.959 . S
H1491 C1505 0.929 . S
H1492 C1506 0.931 . S
H1493 C1508 0.930 . S
C1494 H1482 0.930 . S
C1494 C1495 1.399 . S
C1494 C1499 1.399 . S
C1495 C1494 1.399 . S
C1495 C1496 1.376 . S
C1496 H1483 0.930 . S
C1496 C1495 1.376 . S
C1496 C1497 1.388 . S
C1497 H1484 0.930 . S
C1497 C1496 1.388 . S
C1497 C1498 1.390 . S
C1498 C1497 1.390 . S
C1498 C1499 1.394 . S
C1498 C1504 1.465 . S
C1499 C1494 1.399 . S
C1499 C1498 1.394 . S
C1499 C1500 1.516 . S
C1500 C1499 1.516 . S
C1500 C1501 1.502 . S
C1500 C1502 1.561 . S
C1500 C1503 1.526 . S
C1501 H1485 0.959 . S
C1501 H1486 0.959 . S
C1501 H1487 0.961 . S
C1501 C1500 1.502 . S
C1502 H1488 0.960 . S
C1502 H1489 0.961 . S
C1502 H1490 0.959 . S
C1502 C1500 1.561 . S
C1503 C1500 1.526 . S
C1503 C1504 1.396 . S
C1503 C1508 1.390 . S
C1504 C1498 1.465 . S
C1504 C1503 1.396 . S
C1504 C1505 1.399 . S
C1505 H1491 0.929 . S
C1505 C1504 1.399 . S
C1505 C1506 1.385 . S
C1506 H1492 0.931 . S
C1506 C1505 1.385 . S
C1506 C1507 1.389 . S
C1507 C1506 1.389 . S
C1507 C1508 1.387 . S
C1508 H1493 0.930 . S
C1508 C1503 1.390 . S
C1508 C1507 1.387 . S
H1509 C1521 0.930 . S
H1510 C1523 0.930 . S
H1511 C1524 0.930 . S
H1512 C1528 0.959 . S
H1513 C1528 0.959 . S
H1514 C1528 0.961 . S
H1515 C1529 0.960 . S
H1516 C1529 0.961 . S
H1517 C1529 0.959 . S
H1518 C1532 0.929 . S
H1519 C1533 0.931 . S
H1520 C1535 0.930 . S
C1521 H1509 0.930 . S
C1521 C1522 1.399 . S
C1521 C1526 1.399 . S
C1522 C1521 1.399 . S
C1522 C1523 1.376 . S
C1523 H1510 0.930 . S
C1523 C1522 1.376 . S
C1523 C1524 1.388 . S
C1524 H1511 0.930 . S
C1524 C1523 1.388 . S
C1524 C1525 1.390 . S
C1525 C1524 1.390 . S
C1525 C1526 1.394 . S
C1525 C1531 1.465 . S
C1526 C1521 1.399 . S
C1526 C1525 1.394 . S
C1526 C1527 1.516 . S
C1527 C1526 1.516 . S
C1527 C1528 1.502 . S
C1527 C1529 1.561 . S
C1527 C1530 1.503 1_455 S
C1528 H1512 0.959 . S
C1528 H1513 0.959 . S
C1528 H1514 0.961 . S
C1528 C1527 1.502 . S
C1529 H1515 0.960 . S
C1529 H1516 0.961 . S
C1529 H1517 0.959 . S
C1529 C1527 1.561 . S
C1530 C1527 1.503 1_655 S
C1530 C1531 1.391 1_655 S
C1530 C1535 1.415 . S
C1531 C1525 1.465 . S
C1531 C1530 1.391 1_455 S
C1531 C1532 1.399 1_455 S
C1532 H1518 0.929 . S
C1532 C1531 1.399 1_655 S
C1532 C1533 1.385 . S
C1533 H1519 0.931 . S
C1533 C1532 1.385 . S
C1533 C1534 1.389 . S
C1534 C1533 1.389 . S
C1534 C1535 1.387 . S
C1535 H1520 0.930 . S
C1535 C1530 1.415 . S
C1535 C1534 1.387 . S
H1536 C1548 0.930 . S
H1537 C1550 0.930 . S
H1538 C1551 0.930 . S
H1539 C1555 0.959 . S
H1540 C1555 0.959 . S
H1541 C1555 0.961 . S
H1542 C1556 0.960 . S
H1543 C1556 0.961 . S
H1544 C1556 0.959 . S
H1545 C1559 0.929 . S
H1546 C1560 0.931 . S
H1547 C1562 0.930 . S
C1548 H1536 0.930 . S
C1548 C1549 1.399 . S
C1548 C1553 1.399 . S
C1549 C1548 1.399 . S
C1549 C1550 1.376 . S
C1550 H1537 0.930 . S
C1550 C1549 1.376 . S
C1550 C1551 1.388 . S
C1551 H1538 0.930 . S
C1551 C1550 1.388 . S
C1551 C1552 1.390 . S
C1552 C1551 1.390 . S
C1552 C1553 1.394 . S
C1552 C1558 1.465 . S
C1553 C1548 1.399 . S
C1553 C1552 1.394 . S
C1553 C1554 1.516 . S
C1554 C1553 1.516 . S
C1554 C1555 1.502 . S
C1554 C1556 1.561 . S
C1554 C1557 1.526 . S
C1555 H1539 0.959 . S
C1555 H1540 0.959 . S
C1555 H1541 0.961 . S
C1555 C1554 1.502 . S
C1556 H1542 0.960 . S
C1556 H1543 0.961 . S
C1556 H1544 0.959 . S
C1556 C1554 1.561 . S
C1557 C1554 1.526 . S
C1557 C1558 1.396 . S
C1557 C1562 1.390 . S
C1558 C1552 1.465 . S
C1558 C1557 1.396 . S
C1558 C1559 1.399 . S
C1559 H1545 0.929 . S
C1559 C1558 1.399 . S
C1559 C1560 1.385 . S
C1560 H1546 0.931 . S
C1560 C1559 1.385 . S
C1560 C1561 1.389 . S
C1561 C1560 1.389 . S
C1561 C1562 1.387 . S
C1562 H1547 0.930 . S
C1562 C1557 1.390 . S
C1562 C1561 1.387 . S
H1563 C1575 0.930 . S
H1564 C1577 0.930 . S
H1565 C1578 0.930 . S
H1566 C1582 0.959 . S
H1567 C1582 0.959 . S
H1568 C1582 0.961 . S
H1569 C1583 0.960 . S
H1570 C1583 0.961 . S
H1571 C1583 0.959 . S
H1572 C1586 0.929 . S
H1573 C1587 0.931 . S
H1574 C1589 0.930 . S
C1575 H1563 0.930 . S
C1575 C1576 1.399 . S
C1575 C1580 1.399 . S
C1576 C1575 1.399 . S
C1576 C1577 1.376 . S
C1577 H1564 0.930 . S
C1577 C1576 1.376 . S
C1577 C1578 1.388 . S
C1578 H1565 0.930 . S
C1578 C1577 1.388 . S
C1578 C1579 1.390 . S
C1579 C1578 1.390 . S
C1579 C1580 1.394 . S
C1579 C1585 1.465 . S
C1580 C1575 1.399 . S
C1580 C1579 1.394 . S
C1580 C1581 1.516 . S
C1581 C1580 1.516 . S
C1581 C1582 1.502 . S
C1581 C1583 1.561 . S
C1581 C1584 1.526 . S
C1582 H1566 0.959 . S
C1582 H1567 0.959 . S
C1582 H1568 0.961 . S
C1582 C1581 1.502 . S
C1583 H1569 0.960 . S
C1583 H1570 0.961 . S
C1583 H1571 0.959 . S
C1583 C1581 1.561 . S
C1584 C1581 1.526 . S
C1584 C1585 1.396 . S
C1584 C1589 1.390 . S
C1585 C1579 1.465 . S
C1585 C1584 1.396 . S
C1585 C1586 1.399 . S
C1586 H1572 0.929 . S
C1586 C1585 1.399 . S
C1586 C1587 1.385 . S
C1587 H1573 0.931 . S
C1587 C1586 1.385 . S
C1587 C1588 1.389 . S
C1588 C1587 1.389 . S
C1588 C1589 1.387 . S
C1589 H1574 0.930 . S
C1589 C1584 1.390 . S
C1589 C1588 1.387 . S
H1590 C1602 0.930 . S
H1591 C1604 0.930 . S
H1592 C1605 0.930 . S
H1593 C1609 0.959 . S
H1594 C1609 0.959 . S
H1595 C1609 0.961 . S
H1596 C1610 0.960 . S
H1597 C1610 0.961 . S
H1598 C1610 0.959 . S
H1599 C1613 0.929 . S
H1600 C1614 0.931 . S
H1601 C1616 0.930 . S
C1602 H1590 0.930 . S
C1602 C1603 1.399 . S
C1602 C1607 1.399 . S
C1603 C1602 1.399 . S
C1603 C1604 1.376 . S
C1604 H1591 0.930 . S
C1604 C1603 1.376 . S
C1604 C1605 1.388 . S
C1605 H1592 0.930 . S
C1605 C1604 1.388 . S
C1605 C1606 1.390 . S
C1606 C1605 1.390 . S
C1606 C1607 1.394 . S
C1606 C1612 1.465 . S
C1607 C1602 1.399 . S
C1607 C1606 1.394 . S
C1607 C1608 1.516 . S
C1608 C1607 1.516 . S
C1608 C1609 1.502 . S
C1608 C1610 1.561 . S
C1608 C1611 1.526 . S
C1609 H1593 0.959 . S
C1609 H1594 0.959 . S
C1609 H1595 0.961 . S
C1609 C1608 1.502 . S
C1610 H1596 0.960 . S
C1610 H1597 0.961 . S
C1610 H1598 0.959 . S
C1610 C1608 1.561 . S
C1611 C1608 1.526 . S
C1611 C1612 1.396 . S
C1611 C1616 1.390 . S
C1612 C1606 1.465 . S
C1612 C1611 1.396 . S
C1612 C1613 1.399 . S
C1613 H1599 0.929 . S
C1613 C1612 1.399 . S
C1613 C1614 1.385 . S
C1614 H1600 0.931 . S
C1614 C1613 1.385 . S
C1614 C1615 1.389 . S
C1615 C1614 1.389 . S
C1615 C1616 1.387 . S
C1616 H1601 0.930 . S
C1616 C1611 1.390 . S
C1616 C1615 1.387 . S
H1617 C1629 0.930 . S
H1618 C1631 0.930 . S
H1619 C1632 0.930 . S
H1620 C1636 0.959 . S
H1621 C1636 1.012 . S
H1622 C1636 0.961 . S
H1623 C1637 0.960 . S
H1624 C1637 0.961 . S
H1625 C1637 0.959 . S
H1626 C1640 0.929 . S
H1627 C1641 0.931 . S
H1628 C1643 0.930 . S
C1629 H1617 0.930 . S
C1629 C1630 1.399 . S
C1629 C1634 1.399 . S
C1630 C1629 1.399 . S
C1630 C1631 1.376 . S
C1631 H1618 0.930 . S
C1631 C1630 1.376 . S
C1631 C1632 1.388 . S
C1632 H1619 0.930 . S
C1632 C1631 1.388 . S
C1632 C1633 1.390 . S
C1633 C1632 1.390 . S
C1633 C1634 1.394 . S
C1633 C1639 1.465 . S
C1634 C1629 1.399 . S
C1634 C1633 1.394 . S
C1634 C1635 1.516 . S
C1635 C1634 1.516 . S
C1635 C1636 1.502 . S
C1635 C1637 1.561 . S
C1635 C1638 1.526 . S
C1636 H1620 0.959 . S
C1636 H1621 1.012 . S
C1636 H1622 0.961 . S
C1636 C1635 1.502 . S
C1637 H1623 0.960 . S
C1637 H1624 0.961 . S
C1637 H1625 0.959 . S
C1637 C1635 1.561 . S
C1638 C1635 1.526 . S
C1638 C1639 1.396 . S
C1638 C1643 1.390 1_556 S
C1639 C1633 1.465 . S
C1639 C1638 1.396 . S
C1639 C1640 1.399 . S
C1640 H1626 0.929 . S
C1640 C1639 1.399 . S
C1640 C1641 1.385 1_556 S
C1641 H1627 0.931 . S
C1641 C1640 1.385 1_554 S
C1641 C1642 1.389 . S
C1642 C1641 1.389 . S
C1642 C1643 1.387 . S
C1643 H1628 0.930 . S
C1643 C1638 1.390 1_554 S
C1643 C1642 1.387 . S
H1644 C1656 0.930 . S
H1645 C1658 0.930 . S
H1646 C1659 0.930 . S
H1647 C1663 0.959 . S
H1648 C1663 0.959 . S
H1649 C1663 0.961 . S
H1650 C1664 0.960 . S
H1651 C1664 0.961 . S
H1652 C1664 0.959 . S
H1653 C1667 0.929 . S
H1654 C1668 0.931 . S
H1655 C1670 0.930 . S
C1656 H1644 0.930 . S
C1656 C1657 1.399 . S
C1656 C1661 1.399 . S
C1657 C1656 1.399 . S
C1657 C1658 1.376 . S
C1658 H1645 0.930 . S
C1658 C1657 1.376 . S
C1658 C1659 1.388 . S
C1659 H1646 0.930 . S
C1659 C1658 1.388 . S
C1659 C1660 1.390 . S
C1660 C1659 1.390 . S
C1660 C1661 1.394 . S
C1660 C1666 1.465 . S
C1661 C1656 1.399 . S
C1661 C1660 1.394 . S
C1661 C1662 1.516 . S
C1662 C1661 1.516 . S
C1662 C1663 1.502 . S
C1662 C1664 1.561 . S
C1662 C1665 1.526 . S
C1663 H1647 0.959 . S
C1663 H1648 0.959 . S
C1663 H1649 0.961 . S
C1663 C1662 1.502 . S
C1664 H1650 0.960 . S
C1664 H1651 0.961 . S
C1664 H1652 0.959 . S
C1664 C1662 1.561 . S
C1665 C1662 1.526 . S
C1665 C1666 1.396 . S
C1665 C1670 1.390 . S
C1666 C1660 1.465 . S
C1666 C1665 1.396 . S
C1666 C1667 1.399 . S
C1667 H1653 0.929 . S
C1667 C1666 1.399 . S
C1667 C1668 1.385 . S
C1668 H1654 0.931 . S
C1668 C1667 1.385 . S
C1668 C1669 1.389 . S
C1669 C1668 1.389 . S
C1669 C1670 1.387 . S
C1670 H1655 0.930 . S
C1670 C1665 1.390 . S
C1670 C1669 1.387 . S
H1671 C1683 0.930 . S
H1672 C1685 0.930 . S
H1673 C1686 0.930 . S
H1674 C1690 0.959 . S
H1675 C1690 0.959 . S
H1676 C1690 0.961 . S
H1677 C1691 0.960 . S
H1678 C1691 0.961 . S
H1679 C1691 0.959 . S
H1680 C1694 0.929 . S
H1681 C1695 0.931 . S
H1682 C1697 0.930 . S
C1683 H1671 0.930 . S
C1683 C1684 1.399 . S
C1683 C1688 1.399 . S
C1684 C1683 1.399 . S
C1684 C1685 1.376 . S
C1685 H1672 0.930 . S
C1685 C1684 1.376 . S
C1685 C1686 1.388 . S
C1686 H1673 0.930 . S
C1686 C1685 1.388 . S
C1686 C1687 1.390 . S
C1687 C1686 1.390 . S
C1687 C1688 1.394 . S
C1687 C1693 1.465 . S
C1688 C1683 1.399 . S
C1688 C1687 1.394 . S
C1688 C1689 1.516 . S
C1689 C1688 1.516 . S
C1689 C1690 1.502 . S
C1689 C1691 1.561 . S
C1689 C1692 1.526 . S
C1690 H1674 0.959 . S
C1690 H1675 0.959 . S
C1690 H1676 0.961 . S
C1690 C1689 1.502 . S
C1691 H1677 0.960 . S
C1691 H1678 0.961 . S
C1691 H1679 0.959 . S
C1691 C1689 1.561 . S
C1692 C1689 1.526 . S
C1692 C1693 1.396 . S
C1692 C1697 1.390 . S
C1693 C1687 1.465 . S
C1693 C1692 1.396 . S
C1693 C1694 1.399 . S
C1694 H1680 0.929 . S
C1694 C1693 1.399 . S
C1694 C1695 1.385 . S
C1695 H1681 0.931 . S
C1695 C1694 1.385 . S
C1695 C1696 1.389 . S
C1696 C1695 1.389 . S
C1696 C1697 1.387 . S
C1697 H1682 0.930 . S
C1697 C1692 1.390 . S
C1697 C1696 1.387 . S
H1698 C1710 0.930 . S
H1699 C1712 0.930 . S
H1700 C1713 0.930 . S
H1701 C1717 0.959 . S
H1702 C1717 0.959 . S
H1703 C1717 0.961 . S
H1704 C1718 0.960 . S
H1705 C1718 0.961 . S
H1706 C1718 0.959 . S
H1707 C1721 0.929 . S
H1708 C1722 0.931 . S
H1709 C1724 0.930 . S
C1710 H1698 0.930 . S
C1710 C1711 1.399 . S
C1710 C1715 1.399 . S
C1711 C1710 1.399 . S
C1711 C1712 1.376 . S
C1712 H1699 0.930 . S
C1712 C1711 1.376 . S
C1712 C1713 1.388 . S
C1713 H1700 0.930 . S
C1713 C1712 1.388 . S
C1713 C1714 1.390 . S
C1714 C1713 1.390 . S
C1714 C1715 1.394 . S
C1714 C1720 1.465 . S
C1715 C1710 1.399 . S
C1715 C1714 1.394 . S
C1715 C1716 1.516 . S
C1716 C1715 1.516 . S
C1716 C1717 1.502 . S
C1716 C1718 1.561 . S
C1716 C1719 1.526 . S
C1717 H1701 0.959 . S
C1717 H1702 0.959 . S
C1717 H1703 0.961 . S
C1717 C1716 1.502 . S
C1718 H1704 0.960 . S
C1718 H1705 0.961 . S
C1718 H1706 0.959 . S
C1718 C1716 1.561 . S
C1719 C1716 1.526 . S
C1719 C1720 1.396 . S
C1719 C1724 1.390 . S
C1720 C1714 1.465 . S
C1720 C1719 1.396 . S
C1720 C1721 1.399 . S
C1721 H1707 0.929 . S
C1721 C1720 1.399 . S
C1721 C1722 1.385 . S
C1722 H1708 0.931 . S
C1722 C1721 1.385 . S
C1722 C1723 1.389 . S
C1723 C1722 1.389 . S
C1723 C1724 1.387 . S
C1724 H1709 0.930 . S
C1724 C1719 1.390 . S
C1724 C1723 1.387 . S
H1725 C1737 0.930 . S
H1726 C1739 0.930 . S
H1727 C1740 0.930 . S
H1728 C1744 0.959 . S
H1729 C1744 0.959 . S
H1730 C1744 0.961 . S
H1731 C1745 0.960 . S
H1732 C1745 0.961 . S
H1733 C1745 0.959 . S
H1734 C1748 0.929 . S
H1735 C1749 0.931 . S
H1736 C1751 0.930 . S
C1737 H1725 0.930 . S
C1737 C1738 1.399 . S
C1737 C1742 1.399 1_556 S
C1738 C1737 1.399 . S
C1738 C1739 1.376 . S
C1739 H1726 0.930 . S
C1739 C1738 1.376 . S
C1739 C1740 1.388 . S
C1740 H1727 0.930 . S
C1740 C1739 1.388 . S
C1740 C1741 1.390 1_556 S
C1741 C1740 1.390 1_554 S
C1741 C1742 1.394 . S
C1741 C1747 1.465 . S
C1742 C1737 1.399 1_554 S
C1742 C1741 1.394 . S
C1742 C1743 1.516 . S
C1743 C1742 1.516 . S
C1743 C1744 1.502 . S
C1743 C1745 1.561 . S
C1743 C1746 1.526 . S
C1744 H1728 0.959 . S
C1744 H1729 0.959 . S
C1744 H1730 0.961 . S
C1744 C1743 1.502 . S
C1745 H1731 0.960 . S
C1745 H1732 0.961 . S
C1745 H1733 0.959 . S
C1745 C1743 1.561 . S
C1746 C1743 1.526 . S
C1746 C1747 1.396 . S
C1746 C1751 1.390 . S
C1747 C1741 1.465 . S
C1747 C1746 1.396 . S
C1747 C1748 1.399 . S
C1748 H1734 0.929 . S
C1748 C1747 1.399 . S
C1748 C1749 1.385 . S
C1749 H1735 0.931 . S
C1749 C1748 1.385 . S
C1749 C1750 1.389 . S
C1750 C1749 1.389 . S
C1750 C1751 1.387 . S
C1751 H1736 0.930 . S
C1751 C1746 1.390 . S
C1751 C1750 1.387 . S
H1752 C1764 0.930 . S
H1753 C1766 0.930 . S
H1754 C1767 0.930 . S
H1755 C1771 0.959 . S
H1756 C1771 0.959 . S
H1757 C1771 0.961 . S
H1758 C1772 0.960 . S
H1759 C1772 0.961 . S
H1760 C1772 0.959 . S
H1761 C1775 0.929 . S
H1762 C1776 0.931 . S
H1763 C1778 0.930 . S
C1764 H1752 0.930 . S
C1764 C1765 1.399 . S
C1764 C1769 1.399 . S
C1765 C1764 1.399 . S
C1765 C1766 1.376 . S
C1766 H1753 0.930 . S
C1766 C1765 1.376 . S
C1766 C1767 1.388 . S
C1767 H1754 0.930 . S
C1767 C1766 1.388 . S
C1767 C1768 1.390 . S
C1768 C1767 1.390 . S
C1768 C1769 1.394 . S
C1768 C1774 1.465 . S
C1769 C1764 1.399 . S
C1769 C1768 1.394 . S
C1769 C1770 1.516 . S
C1770 C1769 1.516 . S
C1770 C1771 1.502 . S
C1770 C1772 1.561 . S
C1770 C1773 1.526 . S
C1771 H1755 0.959 . S
C1771 H1756 0.959 . S
C1771 H1757 0.961 . S
C1771 C1770 1.502 . S
C1772 H1758 0.960 . S
C1772 H1759 0.961 . S
C1772 H1760 0.959 . S
C1772 C1770 1.561 . S
C1773 C1770 1.526 . S
C1773 C1774 1.396 . S
C1773 C1778 1.390 . S
C1774 C1768 1.465 . S
C1774 C1773 1.396 . S
C1774 C1775 1.399 . S
C1775 H1761 0.929 . S
C1775 C1774 1.399 . S
C1775 C1776 1.385 . S
C1776 H1762 0.931 . S
C1776 C1775 1.385 . S
C1776 C1777 1.389 . S
C1777 C1776 1.389 . S
C1777 C1778 1.387 . S
C1778 H1763 0.930 . S
C1778 C1773 1.390 . S
C1778 C1777 1.387 . S
H1779 C1791 0.930 . S
H1780 C1793 0.930 . S
H1781 C1794 0.930 . S
H1782 C1798 0.959 . S
H1783 C1798 0.959 . S
H1784 C1798 0.961 . S
H1785 C1799 0.960 . S
H1786 C1799 0.961 . S
H1787 C1799 0.959 . S
H1788 C1802 0.929 . S
H1789 C1803 0.931 . S
H1790 C1805 0.930 . S
C1791 H1779 0.930 . S
C1791 C1792 1.399 . S
C1791 C1796 1.399 . S
C1792 C1791 1.399 . S
C1792 C1793 1.376 . S
C1793 H1780 0.930 . S
C1793 C1792 1.376 . S
C1793 C1794 1.388 . S
C1794 H1781 0.930 . S
C1794 C1793 1.388 . S
C1794 C1795 1.390 . S
C1795 C1794 1.390 . S
C1795 C1796 1.394 . S
C1795 C1801 1.465 . S
C1796 C1791 1.399 . S
C1796 C1795 1.394 . S
C1796 C1797 1.516 . S
C1797 C1796 1.516 . S
C1797 C1798 1.502 . S
C1797 C1799 1.561 . S
C1797 C1800 1.526 . S
C1798 H1782 0.959 . S
C1798 H1783 0.959 . S
C1798 H1784 0.961 . S
C1798 C1797 1.502 . S
C1799 H1785 0.960 . S
C1799 H1786 0.961 . S
C1799 H1787 0.959 . S
C1799 C1797 1.561 . S
C1800 C1797 1.526 . S
C1800 C1801 1.396 . S
C1800 C1805 1.390 . S
C1801 C1795 1.465 . S
C1801 C1800 1.396 . S
C1801 C1802 1.399 . S
C1802 H1788 0.929 . S
C1802 C1801 1.399 . S
C1802 C1803 1.385 . S
C1803 H1789 0.931 . S
C1803 C1802 1.385 . S
C1803 C1804 1.389 . S
C1804 C1803 1.389 . S
C1804 C1805 1.387 . S
C1805 H1790 0.930 . S
C1805 C1800 1.390 . S
C1805 C1804 1.387 . S
H1806 C1818 0.930 . S
H1807 C1820 0.930 . S
H1808 C1821 0.930 . S
H1809 C1825 0.959 . S
H1810 C1825 0.959 . S
H1811 C1825 0.961 . S
H1812 C1826 0.960 . S
H1813 C1826 0.961 . S
H1814 C1826 0.959 . S
H1815 C1829 0.929 . S
H1816 C1830 0.931 . S
H1817 C1832 0.930 . S
C1818 H1806 0.930 . S
C1818 C1819 1.399 . S
C1818 C1823 1.399 . S
C1819 C1818 1.399 . S
C1819 C1820 1.376 . S
C1820 H1807 0.930 . S
C1820 C1819 1.376 . S
C1820 C1821 1.388 . S
C1821 H1808 0.930 . S
C1821 C1820 1.388 . S
C1821 C1822 1.390 . S
C1822 C1821 1.390 . S
C1822 C1823 1.394 . S
C1822 C1828 1.465 . S
C1823 C1818 1.399 . S
C1823 C1822 1.394 . S
C1823 C1824 1.516 . S
C1824 C1823 1.516 . S
C1824 C1825 1.502 . S
C1824 C1826 1.561 . S
C1824 C1827 1.526 . S
C1825 H1809 0.959 . S
C1825 H1810 0.959 . S
C1825 H1811 0.961 . S
C1825 C1824 1.502 . S
C1826 H1812 0.960 . S
C1826 H1813 0.961 . S
C1826 H1814 0.959 . S
C1826 C1824 1.561 . S
C1827 C1824 1.526 . S
C1827 C1828 1.396 . S
C1827 C1832 1.390 . S
C1828 C1822 1.465 . S
C1828 C1827 1.396 . S
C1828 C1829 1.399 . S
C1829 H1815 0.929 . S
C1829 C1828 1.399 . S
C1829 C1830 1.385 . S
C1830 H1816 0.931 . S
C1830 C1829 1.385 . S
C1830 C1831 1.389 . S
C1831 C1830 1.389 . S
C1831 C1832 1.387 . S
C1832 H1817 0.930 . S
C1832 C1827 1.390 . S
C1832 C1831 1.387 . S
H1833 C1845 0.930 . S
H1834 C1847 0.930 . S
H1835 C1848 0.930 . S
H1836 C1852 0.959 . S
H1837 C1852 0.959 . S
H1838 C1852 0.961 . S
H1839 C1853 0.960 . S
H1840 C1853 0.961 . S
H1841 C1853 0.959 . S
H1842 C1856 0.929 . S
H1843 C1857 0.931 . S
H1844 C1859 0.930 . S
C1845 H1833 0.930 . S
C1845 C1846 1.399 . S
C1845 C1850 1.399 . S
C1846 C1845 1.399 . S
C1846 C1847 1.376 . S
C1847 H1834 0.930 . S
C1847 C1846 1.376 . S
C1847 C1848 1.388 . S
C1848 H1835 0.930 . S
C1848 C1847 1.388 . S
C1848 C1849 1.390 . S
C1849 C1848 1.390 . S
C1849 C1850 1.394 . S
C1849 C1855 1.465 . S
C1850 C1845 1.399 . S
C1850 C1849 1.394 . S
C1850 C1851 1.516 . S
C1851 C1850 1.516 . S
C1851 C1852 1.502 . S
C1851 C1853 1.561 . S
C1851 C1854 1.526 . S
C1852 H1836 0.959 . S
C1852 H1837 0.959 . S
C1852 H1838 0.961 . S
C1852 C1851 1.502 . S
C1853 H1839 0.960 . S
C1853 H1840 0.961 . S
C1853 H1841 0.959 . S
C1853 C1851 1.561 . S
C1854 C1851 1.526 . S
C1854 C1855 1.396 . S
C1854 C1859 1.390 . S
C1855 C1849 1.465 . S
C1855 C1854 1.396 . S
C1855 C1856 1.399 . S
C1856 H1842 0.929 . S
C1856 C1855 1.399 . S
C1856 C1857 1.385 . S
C1857 H1843 0.931 . S
C1857 C1856 1.385 . S
C1857 C1858 1.389 . S
C1858 C1857 1.389 . S
C1858 C1859 1.387 . S
C1859 H1844 0.930 . S
C1859 C1854 1.390 . S
C1859 C1858 1.387 . S
H1860 C1872 0.930 . S
H1861 C1874 0.930 . S
H1862 C1875 0.930 . S
H1863 C1879 0.959 . S
H1864 C1879 0.959 . S
H1865 C1879 0.961 1_565 S
H1866 C1880 0.960 1_565 S
H1867 C1880 0.961 . S
H1868 C1880 0.959 . S
H1869 C1883 0.929 . S
H1870 C1884 0.931 . S
H1871 C1886 0.930 . S
C1872 H1860 0.930 . S
C1872 C1873 1.399 . S
C1872 C1877 1.399 . S
C1873 C1872 1.399 . S
C1873 C1874 1.376 . S
C1874 H1861 0.930 . S
C1874 C1873 1.376 . S
C1874 C1875 1.388 . S
C1875 H1862 0.930 . S
C1875 C1874 1.388 . S
C1875 C1876 1.421 . S
C1876 C1875 1.421 . S
C1876 C1877 1.417 . S
C1876 C1882 1.412 1_565 S
C1877 C1872 1.399 . S
C1877 C1876 1.417 . S
C1877 C1878 1.516 1_565 S
C1878 C1877 1.516 1_545 S
C1878 C1879 1.502 . S
C1878 C1880 1.561 . S
C1878 C1881 1.526 . S
C1879 H1863 0.959 . S
C1879 H1864 0.959 . S
C1879 H1865 0.961 1_545 S
C1879 C1878 1.502 . S
C1880 H1866 0.960 1_545 S
C1880 H1867 0.961 . S
C1880 H1868 0.959 . S
C1880 C1878 1.561 . S
C1881 C1878 1.526 . S
C1881 C1882 1.396 . S
C1881 C1886 1.390 . S
C1882 C1876 1.412 1_545 S
C1882 C1881 1.396 . S
C1882 C1883 1.399 . S
C1883 H1869 0.929 . S
C1883 C1882 1.399 . S
C1883 C1884 1.385 . S
C1884 H1870 0.931 . S
C1884 C1883 1.385 . S
C1884 C1885 1.389 . S
C1885 C1884 1.389 . S
C1885 C1886 1.387 . S
C1886 H1871 0.930 . S
C1886 C1881 1.390 . S
C1886 C1885 1.387 . S
H1887 C1899 0.930 . S
H1888 C1901 0.930 . S
H1889 C1902 0.930 . S
H1890 C1906 0.959 . S
H1891 C1906 0.959 . S
H1892 C1906 0.961 . S
H1893 C1907 0.960 . S
H1894 C1907 0.961 . S
H1895 C1907 0.959 . S
H1896 C1910 0.929 . S
H1897 C1911 0.931 . S
H1898 C1913 0.930 . S
C1899 H1887 0.930 . S
C1899 C1900 1.399 . S
C1899 C1904 1.399 . S
C1900 C1899 1.399 . S
C1900 C1901 1.376 . S
C1901 H1888 0.930 . S
C1901 C1900 1.376 . S
C1901 C1902 1.388 . S
C1902 H1889 0.930 . S
C1902 C1901 1.388 . S
C1902 C1903 1.390 . S
C1903 C1902 1.390 . S
C1903 C1904 1.394 . S
C1903 C1909 1.465 . S
C1904 C1899 1.399 . S
C1904 C1903 1.394 . S
C1904 C1905 1.516 . S
C1905 C1904 1.516 . S
C1905 C1906 1.502 . S
C1905 C1907 1.561 . S
C1905 C1908 1.526 . S
C1906 H1890 0.959 . S
C1906 H1891 0.959 . S
C1906 H1892 0.961 . S
C1906 C1905 1.502 . S
C1907 H1893 0.960 . S
C1907 H1894 0.961 . S
C1907 H1895 0.959 . S
C1907 C1905 1.561 . S
C1908 C1905 1.526 . S
C1908 C1909 1.396 . S
C1908 C1913 1.390 . S
C1909 C1903 1.465 . S
C1909 C1908 1.396 . S
C1909 C1910 1.399 . S
C1910 H1896 0.929 . S
C1910 C1909 1.399 . S
C1910 C1911 1.385 . S
C1911 H1897 0.931 . S
C1911 C1910 1.385 . S
C1911 C1912 1.389 . S
C1912 C1911 1.389 . S
C1912 C1913 1.387 . S
C1913 H1898 0.930 . S
C1913 C1908 1.390 . S
C1913 C1912 1.387 . S
H1914 C1926 0.930 . S
H1915 C1928 0.930 . S
H1916 C1929 0.930 . S
H1917 C1933 0.959 . S
H1918 C1933 0.959 . S
H1919 C1933 0.961 . S
H1920 C1934 0.960 . S
H1921 C1934 0.961 . S
H1922 C1934 0.959 . S
H1923 C1937 0.929 . S
H1924 C1938 0.931 . S
H1925 C1940 0.930 . S
C1926 H1914 0.930 . S
C1926 C1927 1.399 . S
C1926 C1931 1.399 . S
C1927 C1926 1.399 . S
C1927 C1928 1.376 . S
C1928 H1915 0.930 . S
C1928 C1927 1.376 . S
C1928 C1929 1.388 . S
C1929 H1916 0.930 . S
C1929 C1928 1.388 . S
C1929 C1930 1.390 . S
C1930 C1929 1.390 . S
C1930 C1931 1.394 . S
C1930 C1936 1.465 . S
C1931 C1926 1.399 . S
C1931 C1930 1.394 . S
C1931 C1932 1.516 . S
C1932 C1931 1.516 . S
C1932 C1933 1.502 . S
C1932 C1934 1.561 . S
C1932 C1935 1.526 . S
C1933 H1917 0.959 . S
C1933 H1918 0.959 . S
C1933 H1919 0.961 . S
C1933 C1932 1.502 . S
C1934 H1920 0.960 . S
C1934 H1921 0.961 . S
C1934 H1922 0.959 . S
C1934 C1932 1.561 . S
C1935 C1932 1.526 . S
C1935 C1936 1.396 . S
C1935 C1940 1.390 . S
C1936 C1930 1.465 . S
C1936 C1935 1.396 . S
C1936 C1937 1.399 . S
C1937 H1923 0.929 . S
C1937 C1936 1.399 . S
C1937 C1938 1.385 . S
C1938 H1924 0.931 . S
C1938 C1937 1.385 . S
C1938 C1939 1.389 . S
C1939 C1938 1.389 . S
C1939 C1940 1.387 . S
C1940 H1925 0.930 . S
C1940 C1935 1.390 . S
C1940 C1939 1.387 . S
H1941 C1953 0.930 . S
H1942 C1955 0.930 . S
H1943 C1956 0.930 . S
H1944 C1960 0.959 . S
H1945 C1960 0.959 . S
H1946 C1960 0.961 . S
H1947 C1961 0.960 . S
H1948 C1961 0.961 . S
H1949 C1961 0.959 . S
H1950 C1964 0.929 . S
H1951 C1965 0.931 . S
H1952 C1967 0.930 . S
C1953 H1941 0.930 . S
C1953 C1954 1.399 . S
C1953 C1958 1.399 . S
C1954 C1953 1.399 . S
C1954 C1955 1.376 . S
C1955 H1942 0.930 . S
C1955 C1954 1.376 . S
C1955 C1956 1.388 . S
C1956 H1943 0.930 . S
C1956 C1955 1.388 . S
C1956 C1957 1.390 . S
C1957 C1956 1.390 . S
C1957 C1958 1.394 . S
C1957 C1963 1.465 . S
C1958 C1953 1.399 . S
C1958 C1957 1.394 . S
C1958 C1959 1.516 . S
C1959 C1958 1.516 . S
C1959 C1960 1.502 . S
C1959 C1961 1.561 . S
C1959 C1962 1.526 . S
C1960 H1944 0.959 . S
C1960 H1945 0.959 . S
C1960 H1946 0.961 . S
C1960 C1959 1.502 . S
C1961 H1947 0.960 . S
C1961 H1948 0.961 . S
C1961 H1949 0.959 . S
C1961 C1959 1.561 . S
C1962 C1959 1.526 . S
C1962 C1963 1.396 . S
C1962 C1967 1.390 . S
C1963 C1957 1.465 . S
C1963 C1962 1.396 . S
C1963 C1964 1.399 . S
C1964 H1950 0.929 . S
C1964 C1963 1.399 . S
C1964 C1965 1.385 . S
C1965 H1951 0.931 . S
C1965 C1964 1.385 . S
C1965 C1966 1.389 . S
C1966 C1965 1.389 . S
C1966 C1967 1.387 . S
C1967 H1952 0.930 . S
C1967 C1962 1.390 . S
C1967 C1966 1.387 . S
H1968 C1980 0.930 . S
H1969 C1982 0.930 . S
H1970 C1983 0.930 . S
H1971 C1987 0.959 . S
H1972 C1987 0.959 . S
H1973 C1987 0.961 . S
H1974 C1988 0.960 . S
H1975 C1988 0.961 . S
H1976 C1988 0.959 . S
H1977 C1991 0.929 . S
H1978 C1992 0.931 . S
H1979 C1994 0.930 . S
C1980 H1968 0.930 . S
C1980 C1981 1.399 . S
C1980 C1985 1.399 . S
C1981 C1980 1.399 . S
C1981 C1982 1.376 . S
C1982 H1969 0.930 . S
C1982 C1981 1.376 . S
C1982 C1983 1.388 . S
C1983 H1970 0.930 . S
C1983 C1982 1.388 . S
C1983 C1984 1.390 . S
C1984 C1983 1.390 . S
C1984 C1985 1.394 . S
C1984 C1990 1.465 . S
C1985 C1980 1.399 . S
C1985 C1984 1.394 . S
C1985 C1986 1.516 . S
C1986 C1985 1.516 . S
C1986 C1987 1.502 . S
C1986 C1988 1.561 . S
C1986 C1989 1.526 . S
C1987 H1971 0.959 . S
C1987 H1972 0.959 . S
C1987 H1973 0.961 . S
C1987 C1986 1.502 . S
C1988 H1974 0.960 . S
C1988 H1975 0.961 . S
C1988 H1976 0.959 . S
C1988 C1986 1.561 . S
C1989 C1986 1.526 . S
C1989 C1990 1.396 . S
C1989 C1994 1.390 . S
C1990 C1984 1.465 . S
C1990 C1989 1.396 . S
C1990 C1991 1.399 . S
C1991 H1977 0.929 . S
C1991 C1990 1.399 . S
C1991 C1992 1.385 . S
C1992 H1978 0.931 . S
C1992 C1991 1.385 . S
C1992 C1993 1.389 . S
C1993 C1992 1.389 . S
C1993 C1994 1.387 . S
C1994 H1979 0.930 . S
C1994 C1989 1.390 . S
C1994 C1993 1.387 . S
H1995 C2007 0.930 . S
H1996 C2009 0.930 . S
H1997 C2010 0.930 . S
H1998 C2014 0.959 . S
H1999 C2014 0.959 . S
H2000 C2014 0.961 . S
H2001 C2015 0.960 . S
H2002 C2015 0.961 . S
H2003 C2015 0.959 . S
H2004 C2018 0.929 . S
H2005 C2019 0.931 . S
H2006 C2021 0.930 . S
C2007 H1995 0.930 . S
C2007 C2008 1.399 . S
C2007 C2012 1.399 . S
C2008 C2007 1.399 . S
C2008 C2009 1.376 . S
C2009 H1996 0.930 . S
C2009 C2008 1.376 . S
C2009 C2010 1.388 . S
C2010 H1997 0.930 . S
C2010 C2009 1.388 . S
C2010 C2011 1.390 . S
C2011 C2010 1.390 . S
C2011 C2012 1.394 . S
C2011 C2017 1.465 . S
C2012 C2007 1.399 . S
C2012 C2011 1.394 . S
C2012 C2013 1.516 . S
C2013 C2012 1.516 . S
C2013 C2014 1.502 . S
C2013 C2015 1.561 . S
C2013 C2016 1.526 . S
C2014 H1998 0.959 . S
C2014 H1999 0.959 . S
C2014 H2000 0.961 . S
C2014 C2013 1.502 . S
C2015 H2001 0.960 . S
C2015 H2002 0.961 . S
C2015 H2003 0.959 . S
C2015 C2013 1.561 . S
C2016 C2013 1.526 . S
C2016 C2017 1.396 . S
C2016 C2021 1.390 . S
C2017 C2011 1.465 . S
C2017 C2016 1.396 . S
C2017 C2018 1.399 . S
C2018 H2004 0.929 . S
C2018 C2017 1.399 . S
C2018 C2019 1.385 . S
C2019 H2005 0.931 . S
C2019 C2018 1.385 . S
C2019 C2020 1.389 . S
C2020 C2019 1.389 . S
C2020 C2021 1.387 . S
C2021 H2006 0.930 . S
C2021 C2016 1.390 . S
C2021 C2020 1.387 . S
H2022 C2034 0.930 . S
H2023 C2036 0.930 . S
H2024 C2037 0.930 . S
H2025 C2041 0.959 . S
H2026 C2041 0.959 . S
H2027 C2041 0.961 . S
H2028 C2042 0.960 . S
H2029 C2042 0.961 . S
H2030 C2042 0.959 . S
H2031 C2045 0.929 . S
H2032 C2046 0.931 . S
H2033 C2048 0.930 . S
C2034 H2022 0.930 . S
C2034 C2035 1.399 . S
C2034 C2039 1.399 . S
C2035 C2034 1.399 . S
C2035 C2036 1.376 . S
C2036 H2023 0.930 . S
C2036 C2035 1.376 . S
C2036 C2037 1.388 . S
C2037 H2024 0.930 . S
C2037 C2036 1.388 . S
C2037 C2038 1.390 . S
C2038 C2037 1.390 . S
C2038 C2039 1.394 . S
C2038 C2044 1.465 . S
C2039 C2034 1.399 . S
C2039 C2038 1.394 . S
C2039 C2040 1.516 . S
C2040 C2039 1.516 . S
C2040 C2041 1.502 . S
C2040 C2042 1.561 . S
C2040 C2043 1.526 . S
C2041 H2025 0.959 . S
C2041 H2026 0.959 . S
C2041 H2027 0.961 . S
C2041 C2040 1.502 . S
C2042 H2028 0.960 . S
C2042 H2029 0.961 . S
C2042 H2030 0.959 . S
C2042 C2040 1.561 . S
C2043 C2040 1.526 . S
C2043 C2044 1.396 . S
C2043 C2048 1.390 . S
C2044 C2038 1.465 . S
C2044 C2043 1.396 . S
C2044 C2045 1.399 . S
C2045 H2031 0.929 . S
C2045 C2044 1.399 . S
C2045 C2046 1.385 . S
C2046 H2032 0.931 . S
C2046 C2045 1.385 . S
C2046 C2047 1.389 . S
C2047 C2046 1.389 . S
C2047 C2048 1.387 . S
C2048 H2033 0.930 . S
C2048 C2043 1.390 . S
C2048 C2047 1.387 . S
H2049 C2061 0.930 . S
H2050 C2063 0.930 . S
H2051 C2064 0.930 . S
H2052 C2068 0.959 . S
H2053 C2068 0.959 . S
H2054 C2068 0.958 1_655 S
H2055 C2069 0.960 . S
H2056 C2069 0.961 . S
H2057 C2069 0.959 . S
H2058 C2072 0.929 . S
H2059 C2073 0.931 . S
H2060 C2075 0.930 . S
C2061 H2049 0.930 . S
C2061 C2062 1.399 . S
C2061 C2066 1.399 1_655 S
C2062 C2061 1.399 . S
C2062 C2063 1.376 . S
C2063 H2050 0.930 . S
C2063 C2062 1.376 . S
C2063 C2064 1.388 1_655 S
C2064 H2051 0.930 . S
C2064 C2063 1.388 1_455 S
C2064 C2065 1.390 . S
C2065 C2064 1.390 . S
C2065 C2066 1.394 . S
C2065 C2071 1.465 . S
C2066 C2061 1.399 1_455 S
C2066 C2065 1.394 . S
C2066 C2067 1.516 . S
C2067 C2066 1.516 . S
C2067 C2068 1.502 . S
C2067 C2069 1.561 . S
C2067 C2070 1.526 . S
C2068 H2052 0.959 . S
C2068 H2053 0.959 . S
C2068 H2054 0.958 1_455 S
C2068 C2067 1.502 . S
C2069 H2055 0.960 . S
C2069 H2056 0.961 . S
C2069 H2057 0.959 . S
C2069 C2067 1.561 . S
C2070 C2067 1.526 . S
C2070 C2071 1.396 . S
C2070 C2075 1.390 . S
C2071 C2065 1.465 . S
C2071 C2070 1.396 . S
C2071 C2072 1.399 . S
C2072 H2058 0.929 . S
C2072 C2071 1.399 . S
C2072 C2073 1.385 . S
C2073 H2059 0.931 . S
C2073 C2072 1.385 . S
C2073 C2074 1.389 . S
C2074 C2073 1.389 . S
C2074 C2075 1.387 . S
C2075 H2060 0.930 . S
C2075 C2070 1.390 . S
C2075 C2074 1.387 . S
H2076 C2088 0.930 . S
H2077 C2090 0.930 . S
H2078 C2091 0.930 . S
H2079 C2095 0.959 . S
H2080 C2095 0.959 . S
H2081 C2095 0.961 . S
H2082 C2096 0.960 . S
H2083 C2096 0.961 . S
H2084 C2096 0.959 . S
H2085 C2099 0.929 . S
H2086 C2100 0.931 . S
H2087 C2102 0.930 . S
C2088 H2076 0.930 . S
C2088 C2089 1.399 . S
C2088 C2093 1.399 . S
C2089 C2088 1.399 . S
C2089 C2090 1.376 . S
C2090 H2077 0.930 . S
C2090 C2089 1.376 . S
C2090 C2091 1.388 . S
C2091 H2078 0.930 . S
C2091 C2090 1.388 . S
C2091 C2092 1.390 . S
C2092 C2091 1.390 . S
C2092 C2093 1.394 . S
C2092 C2098 1.465 . S
C2093 C2088 1.399 . S
C2093 C2092 1.394 . S
C2093 C2094 1.516 . S
C2094 C2093 1.516 . S
C2094 C2095 1.502 . S
C2094 C2096 1.561 . S
C2094 C2097 1.526 . S
C2095 H2079 0.959 . S
C2095 H2080 0.959 . S
C2095 H2081 0.961 . S
C2095 C2094 1.502 . S
C2096 H2082 0.960 . S
C2096 H2083 0.961 . S
C2096 H2084 0.959 . S
C2096 C2094 1.561 . S
C2097 C2094 1.526 . S
C2097 C2098 1.396 . S
C2097 C2102 1.390 . S
C2098 C2092 1.465 . S
C2098 C2097 1.396 . S
C2098 C2099 1.399 . S
C2099 H2085 0.929 . S
C2099 C2098 1.399 . S
C2099 C2100 1.385 . S
C2100 H2086 0.931 . S
C2100 C2099 1.385 . S
C2100 C2101 1.389 . S
C2101 C2100 1.389 . S
C2101 C2102 1.387 . S
C2102 H2087 0.930 . S
C2102 C2097 1.390 . S
C2102 C2101 1.387 . S
H2103 C2115 0.930 . S
H2104 C2117 0.930 . S
H2105 C2118 0.930 . S
H2106 C2122 0.959 . S
H2107 C2122 0.959 . S
H2108 C2122 0.961 . S
H2109 C2123 0.960 . S
H2110 C2123 0.961 . S
H2111 C2123 0.959 . S
H2112 C2126 0.929 . S
H2113 C2127 0.931 . S
H2114 C2129 0.930 . S
C2115 H2103 0.930 . S
C2115 C2116 1.399 . S
C2115 C2120 1.399 . S
C2116 C2115 1.399 . S
C2116 C2117 1.376 . S
C2117 H2104 0.930 . S
C2117 C2116 1.376 . S
C2117 C2118 1.388 . S
C2118 H2105 0.930 . S
C2118 C2117 1.388 . S
C2118 C2119 1.390 . S
C2119 C2118 1.390 . S
C2119 C2120 1.394 . S
C2119 C2125 1.513 . S
C2120 C2115 1.399 . S
C2120 C2119 1.394 . S
C2120 C2121 1.516 . S
C2121 C2120 1.516 . S
C2121 C2122 1.502 . S
C2121 C2123 1.561 . S
C2121 C2124 1.526 1_455 S
C2122 H2106 0.959 . S
C2122 H2107 0.959 . S
C2122 H2108 0.961 . S
C2122 C2121 1.502 . S
C2123 H2109 0.960 . S
C2123 H2110 0.961 . S
C2123 H2111 0.959 . S
C2123 C2121 1.561 . S
C2124 C2121 1.526 1_655 S
C2124 C2125 1.391 1_655 S
C2124 C2129 1.390 . S
C2125 C2119 1.513 . S
C2125 C2124 1.391 1_455 S
C2125 C2126 1.360 1_455 S
C2126 H2112 0.929 . S
C2126 C2125 1.360 1_655 S
C2126 C2127 1.385 . S
C2127 H2113 0.931 . S
C2127 C2126 1.385 . S
C2127 C2128 1.389 . S
C2128 C2127 1.389 . S
C2128 C2129 1.387 . S
C2129 H2114 0.930 . S
C2129 C2124 1.390 . S
C2129 C2128 1.387 . S
H2130 C2142 0.930 . S
H2131 C2144 0.930 . S
H2132 C2145 0.930 . S
H2133 C2149 0.959 . S
H2134 C2149 0.959 . S
H2135 C2149 0.961 . S
H2136 C2150 0.960 . S
H2137 C2150 0.961 . S
H2138 C2150 0.959 . S
H2139 C2153 0.929 . S
H2140 C2154 0.931 . S
H2141 C2156 0.930 . S
C2142 H2130 0.930 . S
C2142 C2143 1.399 . S
C2142 C2147 1.399 . S
C2143 C2142 1.399 . S
C2143 C2144 1.376 . S
C2144 H2131 0.930 . S
C2144 C2143 1.376 . S
C2144 C2145 1.388 . S
C2145 H2132 0.930 . S
C2145 C2144 1.388 . S
C2145 C2146 1.390 . S
C2146 C2145 1.390 . S
C2146 C2147 1.394 . S
C2146 C2152 1.465 . S
C2147 C2142 1.399 . S
C2147 C2146 1.394 . S
C2147 C2148 1.516 . S
C2148 C2147 1.516 . S
C2148 C2149 1.502 . S
C2148 C2150 1.561 . S
C2148 C2151 1.526 . S
C2149 H2133 0.959 . S
C2149 H2134 0.959 . S
C2149 H2135 0.961 . S
C2149 C2148 1.502 . S
C2150 H2136 0.960 . S
C2150 H2137 0.961 . S
C2150 H2138 0.959 . S
C2150 C2148 1.561 . S
C2151 C2148 1.526 . S
C2151 C2152 1.396 . S
C2151 C2156 1.390 . S
C2152 C2146 1.465 . S
C2152 C2151 1.396 . S
C2152 C2153 1.399 . S
C2153 H2139 0.929 . S
C2153 C2152 1.399 . S
C2153 C2154 1.385 . S
C2154 H2140 0.931 . S
C2154 C2153 1.385 . S
C2154 C2155 1.389 . S
C2155 C2154 1.389 . S
C2155 C2156 1.387 . S
C2156 H2141 0.930 . S
C2156 C2151 1.390 . S
C2156 C2155 1.387 . S
H2157 C2169 0.930 . S
H2158 C2171 0.930 . S
H2159 C2172 0.930 . S
H2160 C2176 0.959 . S
H2161 C2176 0.959 . S
H2162 C2176 0.961 . S
H2163 C2177 0.960 . S
H2164 C2177 0.961 . S
H2165 C2177 0.959 . S
H2166 C2180 0.929 . S
H2167 C2181 0.931 . S
H2168 C2183 0.930 . S
C2169 H2157 0.930 . S
C2169 C2170 1.399 . S
C2169 C2174 1.399 . S
C2170 C2169 1.399 . S
C2170 C2171 1.376 . S
C2171 H2158 0.930 . S
C2171 C2170 1.376 . S
C2171 C2172 1.388 . S
C2172 H2159 0.930 . S
C2172 C2171 1.388 . S
C2172 C2173 1.390 . S
C2173 C2172 1.390 . S
C2173 C2174 1.394 . S
C2173 C2179 1.465 . S
C2174 C2169 1.399 . S
C2174 C2173 1.394 . S
C2174 C2175 1.516 . S
C2175 C2174 1.516 . S
C2175 C2176 1.502 . S
C2175 C2177 1.561 . S
C2175 C2178 1.526 . S
C2176 H2160 0.959 . S
C2176 H2161 0.959 . S
C2176 H2162 0.961 . S
C2176 C2175 1.502 . S
C2177 H2163 0.960 . S
C2177 H2164 0.961 . S
C2177 H2165 0.959 . S
C2177 C2175 1.561 . S
C2178 C2175 1.526 . S
C2178 C2179 1.396 . S
C2178 C2183 1.390 . S
C2179 C2173 1.465 . S
C2179 C2178 1.396 . S
C2179 C2180 1.399 . S
C2180 H2166 0.929 . S
C2180 C2179 1.399 . S
C2180 C2181 1.385 . S
C2181 H2167 0.931 . S
C2181 C2180 1.385 . S
C2181 C2182 1.389 . S
C2182 C2181 1.389 . S
C2182 C2183 1.387 . S
C2183 H2168 0.930 . S
C2183 C2178 1.390 . S
C2183 C2182 1.387 . S
H2184 C2196 0.930 . S
H2185 C2198 0.930 . S
H2186 C2199 0.930 . S
H2187 C2203 0.959 . S
H2188 C2203 0.959 . S
H2189 C2203 0.961 . S
H2190 C2204 0.960 . S
H2191 C2204 0.961 . S
H2192 C2204 0.959 . S
H2193 C2207 0.929 . S
H2194 C2208 0.931 . S
H2195 C2210 0.930 . S
C2196 H2184 0.930 . S
C2196 C2197 1.399 . S
C2196 C2201 1.399 . S
C2197 C2196 1.399 . S
C2197 C2198 1.376 . S
C2198 H2185 0.930 . S
C2198 C2197 1.376 . S
C2198 C2199 1.388 . S
C2199 H2186 0.930 . S
C2199 C2198 1.388 . S
C2199 C2200 1.390 . S
C2200 C2199 1.390 . S
C2200 C2201 1.394 . S
C2200 C2206 1.465 . S
C2201 C2196 1.399 . S
C2201 C2200 1.394 . S
C2201 C2202 1.516 . S
C2202 C2201 1.516 . S
C2202 C2203 1.502 . S
C2202 C2204 1.561 . S
C2202 C2205 1.526 . S
C2203 H2187 0.959 . S
C2203 H2188 0.959 . S
C2203 H2189 0.961 . S
C2203 C2202 1.502 . S
C2204 H2190 0.960 . S
C2204 H2191 0.961 . S
C2204 H2192 0.959 . S
C2204 C2202 1.561 . S
C2205 C2202 1.526 . S
C2205 C2206 1.396 . S
C2205 C2210 1.390 . S
C2206 C2200 1.465 . S
C2206 C2205 1.396 . S
C2206 C2207 1.399 . S
C2207 H2193 0.929 . S
C2207 C2206 1.399 . S
C2207 C2208 1.385 . S
C2208 H2194 0.931 . S
C2208 C2207 1.385 . S
C2208 C2209 1.389 . S
C2209 C2208 1.389 . S
C2209 C2210 1.387 . S
C2210 H2195 0.930 . S
C2210 C2205 1.390 . S
C2210 C2209 1.387 . S
H2211 C2223 0.930 . S
H2212 C2225 0.930 . S
H2213 C2226 0.930 . S
H2214 C2230 0.959 . S
H2215 C2230 0.981 . S
H2216 C2230 0.961 . S
H2217 C2231 0.960 . S
H2218 C2231 0.961 1_556 S
H2219 C2231 0.959 . S
H2220 C2234 0.929 . S
H2221 C2235 0.931 . S
H2222 C2237 0.930 . S
C2223 H2211 0.930 . S
C2223 C2224 1.399 . S
C2223 C2228 1.399 . S
C2224 C2223 1.399 . S
C2224 C2225 1.376 . S
C2225 H2212 0.930 . S
C2225 C2224 1.376 . S
C2225 C2226 1.388 . S
C2226 H2213 0.930 . S
C2226 C2225 1.388 . S
C2226 C2227 1.390 . S
C2227 C2226 1.390 . S
C2227 C2228 1.394 . S
C2227 C2233 1.465 . S
C2228 C2223 1.399 . S
C2228 C2227 1.394 . S
C2228 C2229 1.516 . S
C2229 C2228 1.516 . S
C2229 C2230 1.502 . S
C2229 C2231 1.561 . S
C2229 C2232 1.526 . S
C2230 H2214 0.959 . S
C2230 H2215 0.981 . S
C2230 H2216 0.961 . S
C2230 C2229 1.502 . S
C2231 H2217 0.960 . S
C2231 H2218 0.961 1_554 S
C2231 H2219 0.959 . S
C2231 C2229 1.561 . S
C2232 C2229 1.526 . S
C2232 C2233 1.396 . S
C2232 C2237 1.390 1_554 S
C2233 C2227 1.465 . S
C2233 C2232 1.396 . S
C2233 C2234 1.399 . S
C2234 H2220 0.929 . S
C2234 C2233 1.399 . S
C2234 C2235 1.385 1_554 S
C2235 H2221 0.931 . S
C2235 C2234 1.385 1_556 S
C2235 C2236 1.389 . S
C2236 C2235 1.389 . S
C2236 C2237 1.387 . S
C2237 H2222 0.930 . S
C2237 C2232 1.390 1_556 S
C2237 C2236 1.387 . S
H2238 C2250 0.930 . S
H2239 C2252 0.930 . S
H2240 C2253 0.930 . S
H2241 C2257 0.959 . S
H2242 C2257 0.959 . S
H2243 C2257 0.961 . S
H2244 C2258 0.960 . S
H2245 C2258 0.961 . S
H2246 C2258 0.959 . S
H2247 C2261 0.929 . S
H2248 C2262 0.931 . S
H2249 C2264 0.930 . S
C2250 H2238 0.930 . S
C2250 C2251 1.399 . S
C2250 C2255 1.399 . S
C2251 C2250 1.399 . S
C2251 C2252 1.376 . S
C2252 H2239 0.930 . S
C2252 C2251 1.376 . S
C2252 C2253 1.388 . S
C2253 H2240 0.930 . S
C2253 C2252 1.388 . S
C2253 C2254 1.390 . S
C2254 C2253 1.390 . S
C2254 C2255 1.394 . S
C2254 C2260 1.465 . S
C2255 C2250 1.399 . S
C2255 C2254 1.394 . S
C2255 C2256 1.516 . S
C2256 C2255 1.516 . S
C2256 C2257 1.502 . S
C2256 C2258 1.561 . S
C2256 C2259 1.526 . S
C2257 H2241 0.959 . S
C2257 H2242 0.959 . S
C2257 H2243 0.961 . S
C2257 C2256 1.502 . S
C2258 H2244 0.960 . S
C2258 H2245 0.961 . S
C2258 H2246 0.959 . S
C2258 C2256 1.561 . S
C2259 C2256 1.526 . S
C2259 C2260 1.396 . S
C2259 C2264 1.390 . S
C2260 C2254 1.465 . S
C2260 C2259 1.396 . S
C2260 C2261 1.399 . S
C2261 H2247 0.929 . S
C2261 C2260 1.399 . S
C2261 C2262 1.385 . S
C2262 H2248 0.931 . S
C2262 C2261 1.385 . S
C2262 C2263 1.389 . S
C2263 C2262 1.389 . S
C2263 C2264 1.387 . S
C2264 H2249 0.930 . S
C2264 C2259 1.390 . S
C2264 C2263 1.387 . S
H2265 C2277 0.930 . S
H2266 C2279 0.930 . S
H2267 C2280 0.930 . S
H2268 C2284 0.959 . S
H2269 C2284 0.959 . S
H2270 C2284 0.961 . S
H2271 C2285 0.960 . S
H2272 C2285 0.961 . S
H2273 C2285 0.959 . S
H2274 C2288 0.929 . S
H2275 C2289 0.931 . S
H2276 C2291 0.930 . S
C2277 H2265 0.930 . S
C2277 C2278 1.399 . S
C2277 C2282 1.399 . S
C2278 C2277 1.399 . S
C2278 C2279 1.376 . S
C2279 H2266 0.930 . S
C2279 C2278 1.376 . S
C2279 C2280 1.388 . S
C2280 H2267 0.930 . S
C2280 C2279 1.388 . S
C2280 C2281 1.390 . S
C2281 C2280 1.390 . S
C2281 C2282 1.394 . S
C2281 C2287 1.465 . S
C2282 C2277 1.399 . S
C2282 C2281 1.394 . S
C2282 C2283 1.516 . S
C2283 C2282 1.516 . S
C2283 C2284 1.502 . S
C2283 C2285 1.561 . S
C2283 C2286 1.526 . S
C2284 H2268 0.959 . S
C2284 H2269 0.959 . S
C2284 H2270 0.961 . S
C2284 C2283 1.502 . S
C2285 H2271 0.960 . S
C2285 H2272 0.961 . S
C2285 H2273 0.959 . S
C2285 C2283 1.561 . S
C2286 C2283 1.526 . S
C2286 C2287 1.396 . S
C2286 C2291 1.390 . S
C2287 C2281 1.465 . S
C2287 C2286 1.396 . S
C2287 C2288 1.399 . S
C2288 H2274 0.929 . S
C2288 C2287 1.399 . S
C2288 C2289 1.385 . S
C2289 H2275 0.931 . S
C2289 C2288 1.385 . S
C2289 C2290 1.389 . S
C2290 C2289 1.389 . S
C2290 C2291 1.387 . S
C2291 H2276 0.930 . S
C2291 C2286 1.390 . S
C2291 C2290 1.387 . S
H2292 C2304 0.930 . S
H2293 C2306 0.930 . S
H2294 C2307 0.930 . S
H2295 C2311 0.959 . S
H2296 C2311 0.959 . S
H2297 C2311 0.961 . S
H2298 C2312 0.960 . S
H2299 C2312 0.961 . S
H2300 C2312 0.959 . S
H2301 C2315 0.929 . S
H2302 C2316 0.931 . S
H2303 C2318 0.930 . S
C2304 H2292 0.930 . S
C2304 C2305 1.399 . S
C2304 C2309 1.399 . S
C2305 C2304 1.399 . S
C2305 C2306 1.376 . S
C2306 H2293 0.930 . S
C2306 C2305 1.376 . S
C2306 C2307 1.388 . S
C2307 H2294 0.930 . S
C2307 C2306 1.388 . S
C2307 C2308 1.390 . S
C2308 C2307 1.390 . S
C2308 C2309 1.394 . S
C2308 C2314 1.465 . S
C2309 C2304 1.399 . S
C2309 C2308 1.394 . S
C2309 C2310 1.516 . S
C2310 C2309 1.516 . S
C2310 C2311 1.502 . S
C2310 C2312 1.561 . S
C2310 C2313 1.526 . S
C2311 H2295 0.959 . S
C2311 H2296 0.959 . S
C2311 H2297 0.961 . S
C2311 C2310 1.502 . S
C2312 H2298 0.960 . S
C2312 H2299 0.961 . S
C2312 H2300 0.959 . S
C2312 C2310 1.561 . S
C2313 C2310 1.526 . S
C2313 C2314 1.396 . S
C2313 C2318 1.390 . S
C2314 C2308 1.465 . S
C2314 C2313 1.396 . S
C2314 C2315 1.399 . S
C2315 H2301 0.929 . S
C2315 C2314 1.399 . S
C2315 C2316 1.385 . S
C2316 H2302 0.931 . S
C2316 C2315 1.385 . S
C2316 C2317 1.389 . S
C2317 C2316 1.389 . S
C2317 C2318 1.387 . S
C2318 H2303 0.930 . S
C2318 C2313 1.390 . S
C2318 C2317 1.387 . S
H2319 C2331 0.930 . S
H2320 C2333 0.930 . S
H2321 C2334 0.930 . S
H2322 C2338 0.959 . S
H2323 C2338 0.959 . S
H2324 C2338 0.961 . S
H2325 C2339 0.960 . S
H2326 C2339 0.961 . S
H2327 C2339 0.959 . S
H2328 C2342 0.929 . S
H2329 C2343 0.931 . S
H2330 C2345 0.930 . S
C2331 H2319 0.930 . S
C2331 C2332 1.399 . S
C2331 C2336 1.399 . S
C2332 C2331 1.399 . S
C2332 C2333 1.376 . S
C2333 H2320 0.930 . S
C2333 C2332 1.376 . S
C2333 C2334 1.388 . S
C2334 H2321 0.930 . S
C2334 C2333 1.388 . S
C2334 C2335 1.390 . S
C2335 C2334 1.390 . S
C2335 C2336 1.394 . S
C2335 C2341 1.465 . S
C2336 C2331 1.399 . S
C2336 C2335 1.394 . S
C2336 C2337 1.516 . S
C2337 C2336 1.516 . S
C2337 C2338 1.502 . S
C2337 C2339 1.561 . S
C2337 C2340 1.526 . S
C2338 H2322 0.959 . S
C2338 H2323 0.959 . S
C2338 H2324 0.961 . S
C2338 C2337 1.502 . S
C2339 H2325 0.960 . S
C2339 H2326 0.961 . S
C2339 H2327 0.959 . S
C2339 C2337 1.561 . S
C2340 C2337 1.526 . S
C2340 C2341 1.396 . S
C2340 C2345 1.390 1_556 S
C2341 C2335 1.465 . S
C2341 C2340 1.396 . S
C2341 C2342 1.399 1_556 S
C2342 H2328 0.929 . S
C2342 C2341 1.399 1_554 S
C2342 C2343 1.385 . S
C2343 H2329 0.931 . S
C2343 C2342 1.385 . S
C2343 C2344 1.389 . S
C2344 C2343 1.389 . S
C2344 C2345 1.387 . S
C2345 H2330 0.930 . S
C2345 C2340 1.390 1_554 S
C2345 C2344 1.387 . S
H2346 C2358 0.930 . S
H2347 C2360 0.930 . S
H2348 C2361 0.930 . S
H2349 C2365 0.959 . S
H2350 C2365 0.959 . S
H2351 C2365 0.961 . S
H2352 C2366 0.960 . S
H2353 C2366 0.961 . S
H2354 C2366 0.959 . S
H2355 C2369 0.929 . S
H2356 C2370 0.931 . S
H2357 C2372 0.930 . S
C2358 H2346 0.930 . S
C2358 C2359 1.399 . S
C2358 C2363 1.399 . S
C2359 C2358 1.399 . S
C2359 C2360 1.376 . S
C2360 H2347 0.930 . S
C2360 C2359 1.376 . S
C2360 C2361 1.388 . S
C2361 H2348 0.930 . S
C2361 C2360 1.388 . S
C2361 C2362 1.390 . S
C2362 C2361 1.390 . S
C2362 C2363 1.394 . S
C2362 C2368 1.465 . S
C2363 C2358 1.399 . S
C2363 C2362 1.394 . S
C2363 C2364 1.516 . S
C2364 C2363 1.516 . S
C2364 C2365 1.502 . S
C2364 C2366 1.561 . S
C2364 C2367 1.526 . S
C2365 H2349 0.959 . S
C2365 H2350 0.959 . S
C2365 H2351 0.961 . S
C2365 C2364 1.502 . S
C2366 H2352 0.960 . S
C2366 H2353 0.961 . S
C2366 H2354 0.959 . S
C2366 C2364 1.561 . S
C2367 C2364 1.526 . S
C2367 C2368 1.396 . S
C2367 C2372 1.390 . S
C2368 C2362 1.465 . S
C2368 C2367 1.396 . S
C2368 C2369 1.399 . S
C2369 H2355 0.929 . S
C2369 C2368 1.399 . S
C2369 C2370 1.385 . S
C2370 H2356 0.931 . S
C2370 C2369 1.385 . S
C2370 C2371 1.389 . S
C2371 C2370 1.389 . S
C2371 C2372 1.387 . S
C2372 H2357 0.930 . S
C2372 C2367 1.390 . S
C2372 C2371 1.387 . S
H2373 C2385 0.930 . S
H2374 C2387 0.930 . S
H2375 C2388 0.930 . S
H2376 C2392 0.959 . S
H2377 C2392 0.959 . S
H2378 C2392 0.961 . S
H2379 C2393 0.960 . S
H2380 C2393 0.961 . S
H2381 C2393 0.959 . S
H2382 C2396 0.929 . S
H2383 C2397 0.931 . S
H2384 C2399 0.930 . S
C2385 H2373 0.930 . S
C2385 C2386 1.399 . S
C2385 C2390 1.399 . S
C2386 C2385 1.399 . S
C2386 C2387 1.376 . S
C2387 H2374 0.930 . S
C2387 C2386 1.376 . S
C2387 C2388 1.388 . S
C2388 H2375 0.930 . S
C2388 C2387 1.388 . S
C2388 C2389 1.390 . S
C2389 C2388 1.390 . S
C2389 C2390 1.394 . S
C2389 C2395 1.465 . S
C2390 C2385 1.399 . S
C2390 C2389 1.394 . S
C2390 C2391 1.516 . S
C2391 C2390 1.516 . S
C2391 C2392 1.502 . S
C2391 C2393 1.561 . S
C2391 C2394 1.526 . S
C2392 H2376 0.959 . S
C2392 H2377 0.959 . S
C2392 H2378 0.961 . S
C2392 C2391 1.502 . S
C2393 H2379 0.960 . S
C2393 H2380 0.961 . S
C2393 H2381 0.959 . S
C2393 C2391 1.561 . S
C2394 C2391 1.526 . S
C2394 C2395 1.396 . S
C2394 C2399 1.390 . S
C2395 C2389 1.465 . S
C2395 C2394 1.396 . S
C2395 C2396 1.399 . S
C2396 H2382 0.929 . S
C2396 C2395 1.399 . S
C2396 C2397 1.385 . S
C2397 H2383 0.931 . S
C2397 C2396 1.385 . S
C2397 C2398 1.389 . S
C2398 C2397 1.389 . S
C2398 C2399 1.387 . S
C2399 H2384 0.930 . S
C2399 C2394 1.390 . S
C2399 C2398 1.387 . S
H2400 C2412 0.930 . S
H2401 C2414 0.930 . S
H2402 C2415 0.930 . S
H2403 C2419 0.959 . S
H2404 C2419 0.959 . S
H2405 C2419 0.961 . S
H2406 C2420 0.960 . S
H2407 C2420 0.961 . S
H2408 C2420 0.959 . S
H2409 C2423 0.929 . S
H2410 C2424 0.931 . S
H2411 C2426 0.930 . S
C2412 H2400 0.930 . S
C2412 C2413 1.399 . S
C2412 C2417 1.399 . S
C2413 C2412 1.399 . S
C2413 C2414 1.376 . S
C2414 H2401 0.930 . S
C2414 C2413 1.376 . S
C2414 C2415 1.388 . S
C2415 H2402 0.930 . S
C2415 C2414 1.388 . S
C2415 C2416 1.390 . S
C2416 C2415 1.390 . S
C2416 C2417 1.394 . S
C2416 C2422 1.465 . S
C2417 C2412 1.399 . S
C2417 C2416 1.394 . S
C2417 C2418 1.516 . S
C2418 C2417 1.516 . S
C2418 C2419 1.502 . S
C2418 C2420 1.561 . S
C2418 C2421 1.526 . S
C2419 H2403 0.959 . S
C2419 H2404 0.959 . S
C2419 H2405 0.961 . S
C2419 C2418 1.502 . S
C2420 H2406 0.960 . S
C2420 H2407 0.961 . S
C2420 H2408 0.959 . S
C2420 C2418 1.561 . S
C2421 C2418 1.526 . S
C2421 C2422 1.396 . S
C2421 C2426 1.390 . S
C2422 C2416 1.465 . S
C2422 C2421 1.396 . S
C2422 C2423 1.399 . S
C2423 H2409 0.929 . S
C2423 C2422 1.399 . S
C2423 C2424 1.385 . S
C2424 H2410 0.931 . S
C2424 C2423 1.385 . S
C2424 C2425 1.389 . S
C2425 C2424 1.389 . S
C2425 C2426 1.387 . S
C2426 H2411 0.930 . S
C2426 C2421 1.390 . S
C2426 C2425 1.387 . S
H2427 C2439 0.930 . S
H2428 C2441 0.930 . S
H2429 C2442 0.930 . S
H2430 C2446 0.959 . S
H2431 C2446 0.959 . S
H2432 C2446 0.961 . S
H2433 C2447 0.960 . S
H2434 C2447 0.961 . S
H2435 C2447 0.959 . S
H2436 C2450 0.929 . S
H2437 C2451 0.931 . S
H2438 C2453 0.930 . S
C2439 H2427 0.930 . S
C2439 C2440 1.399 . S
C2439 C2444 1.399 . S
C2440 C2439 1.399 . S
C2440 C2441 1.376 . S
C2441 H2428 0.930 . S
C2441 C2440 1.376 . S
C2441 C2442 1.388 . S
C2442 H2429 0.930 . S
C2442 C2441 1.388 . S
C2442 C2443 1.390 . S
C2443 C2442 1.390 . S
C2443 C2444 1.394 . S
C2443 C2449 1.465 . S
C2444 C2439 1.399 . S
C2444 C2443 1.394 . S
C2444 C2445 1.516 . S
C2445 C2444 1.516 . S
C2445 C2446 1.502 . S
C2445 C2447 1.561 . S
C2445 C2448 1.526 . S
C2446 H2430 0.959 . S
C2446 H2431 0.959 . S
C2446 H2432 0.961 . S
C2446 C2445 1.502 . S
C2447 H2433 0.960 . S
C2447 H2434 0.961 . S
C2447 H2435 0.959 . S
C2447 C2445 1.561 . S
C2448 C2445 1.526 . S
C2448 C2449 1.396 . S
C2448 C2453 1.390 . S
C2449 C2443 1.465 . S
C2449 C2448 1.396 . S
C2449 C2450 1.399 . S
C2450 H2436 0.929 . S
C2450 C2449 1.399 . S
C2450 C2451 1.385 . S
C2451 H2437 0.931 . S
C2451 C2450 1.385 . S
C2451 C2452 1.389 . S
C2452 C2451 1.389 . S
C2452 C2453 1.387 . S
C2453 H2438 0.930 . S
C2453 C2448 1.390 . S
C2453 C2452 1.387 . S
H2454 C2466 0.930 . S
H2455 C2468 0.930 . S
H2456 C2469 0.930 . S
H2457 C2473 0.959 . S
H2458 C2473 0.959 . S
H2459 C2473 0.961 . S
H2460 C2474 0.960 . S
H2461 C2474 0.930 1_565 S
H2462 C2474 0.959 . S
H2463 C2477 0.929 . S
H2464 C2478 0.931 . S
H2465 C2480 0.930 . S
C2466 H2454 0.930 . S
C2466 C2467 1.399 . S
C2466 C2471 1.399 . S
C2467 C2466 1.399 . S
C2467 C2468 1.376 . S
C2468 H2455 0.930 . S
C2468 C2467 1.376 . S
C2468 C2469 1.388 . S
C2469 H2456 0.930 . S
C2469 C2468 1.388 . S
C2469 C2470 1.390 . S
C2470 C2469 1.390 . S
C2470 C2471 1.394 . S
C2470 C2476 1.465 1_545 S
C2471 C2466 1.399 . S
C2471 C2470 1.394 . S
C2471 C2472 1.516 . S
C2472 C2471 1.516 . S
C2472 C2473 1.502 . S
C2472 C2474 1.561 . S
C2472 C2475 1.526 1_545 S
C2473 H2457 0.959 . S
C2473 H2458 0.959 . S
C2473 H2459 0.961 . S
C2473 C2472 1.502 . S
C2474 H2460 0.960 . S
C2474 H2461 0.930 1_545 S
C2474 H2462 0.959 . S
C2474 C2472 1.561 . S
C2475 C2472 1.526 1_565 S
C2475 C2476 1.396 . S
C2475 C2480 1.390 . S
C2476 C2470 1.465 1_565 S
C2476 C2475 1.396 . S
C2476 C2477 1.399 . S
C2477 H2463 0.929 . S
C2477 C2476 1.399 . S
C2477 C2478 1.385 . S
C2478 H2464 0.931 . S
C2478 C2477 1.385 . S
C2478 C2479 1.389 . S
C2479 C2478 1.389 . S
C2479 C2480 1.387 . S
C2480 H2465 0.930 . S
C2480 C2475 1.390 . S
C2480 C2479 1.387 . S
H2481 C2493 0.930 . S
H2482 C2495 0.930 . S
H2483 C2496 0.930 . S
H2484 C2500 0.959 . S
H2485 C2500 0.959 . S
H2486 C2500 0.961 . S
H2487 C2501 0.960 . S
H2488 C2501 0.961 . S
H2489 C2501 0.959 . S
H2490 C2504 0.929 . S
H2491 C2505 0.931 . S
H2492 C2507 0.930 . S
C2493 H2481 0.930 . S
C2493 C2494 1.399 . S
C2493 C2498 1.399 . S
C2494 C2493 1.399 . S
C2494 C2495 1.376 . S
C2495 H2482 0.930 . S
C2495 C2494 1.376 . S
C2495 C2496 1.388 . S
C2496 H2483 0.930 . S
C2496 C2495 1.388 . S
C2496 C2497 1.390 . S
C2497 C2496 1.390 . S
C2497 C2498 1.394 . S
C2497 C2503 1.465 . S
C2498 C2493 1.399 . S
C2498 C2497 1.394 . S
C2498 C2499 1.516 . S
C2499 C2498 1.516 . S
C2499 C2500 1.502 . S
C2499 C2501 1.561 . S
C2499 C2502 1.526 . S
C2500 H2484 0.959 . S
C2500 H2485 0.959 . S
C2500 H2486 0.961 . S
C2500 C2499 1.502 . S
C2501 H2487 0.960 . S
C2501 H2488 0.961 . S
C2501 H2489 0.959 . S
C2501 C2499 1.561 . S
C2502 C2499 1.526 . S
C2502 C2503 1.396 . S
C2502 C2507 1.390 . S
C2503 C2497 1.465 . S
C2503 C2502 1.396 . S
C2503 C2504 1.399 . S
C2504 H2490 0.929 . S
C2504 C2503 1.399 . S
C2504 C2505 1.385 . S
C2505 H2491 0.931 . S
C2505 C2504 1.385 . S
C2505 C2506 1.389 . S
C2506 C2505 1.389 . S
C2506 C2507 1.387 . S
C2507 H2492 0.930 . S
C2507 C2502 1.390 . S
C2507 C2506 1.387 . S
H2508 C2520 0.930 . S
H2509 C2522 0.930 . S
H2510 C2523 0.930 . S
H2511 C2527 0.959 . S
H2512 C2527 0.959 . S
H2513 C2527 0.961 . S
H2514 C2528 0.960 . S
H2515 C2528 0.961 . S
H2516 C2528 0.959 . S
H2517 C2531 0.929 . S
H2518 C2532 0.931 . S
H2519 C2534 0.930 . S
C2520 H2508 0.930 . S
C2520 C2521 1.399 . S
C2520 C2525 1.399 . S
C2521 C2520 1.399 . S
C2521 C2522 1.376 . S
C2522 H2509 0.930 . S
C2522 C2521 1.376 . S
C2522 C2523 1.388 . S
C2523 H2510 0.930 . S
C2523 C2522 1.388 . S
C2523 C2524 1.390 . S
C2524 C2523 1.390 . S
C2524 C2525 1.394 . S
C2524 C2530 1.465 . S
C2525 C2520 1.399 . S
C2525 C2524 1.394 . S
C2525 C2526 1.516 . S
C2526 C2525 1.516 . S
C2526 C2527 1.502 . S
C2526 C2528 1.561 . S
C2526 C2529 1.526 . S
C2527 H2511 0.959 . S
C2527 H2512 0.959 . S
C2527 H2513 0.961 . S
C2527 C2526 1.502 . S
C2528 H2514 0.960 . S
C2528 H2515 0.961 . S
C2528 H2516 0.959 . S
C2528 C2526 1.561 . S
C2529 C2526 1.526 . S
C2529 C2530 1.396 . S
C2529 C2534 1.390 . S
C2530 C2524 1.465 . S
C2530 C2529 1.396 . S
C2530 C2531 1.399 . S
C2531 H2517 0.929 . S
C2531 C2530 1.399 . S
C2531 C2532 1.385 . S
C2532 H2518 0.931 . S
C2532 C2531 1.385 . S
C2532 C2533 1.389 . S
C2533 C2532 1.389 . S
C2533 C2534 1.387 . S
C2534 H2519 0.930 . S
C2534 C2529 1.390 . S
C2534 C2533 1.387 . S
H2535 C2547 0.930 . S
H2536 C2549 0.930 . S
H2537 C2550 0.930 . S
H2538 C2554 0.959 . S
H2539 C2554 0.959 . S
H2540 C2554 0.961 . S
H2541 C2555 0.960 . S
H2542 C2555 0.961 . S
H2543 C2555 0.959 . S
H2544 C2558 0.929 . S
H2545 C2559 0.931 . S
H2546 C2561 0.930 . S
C2547 H2535 0.930 . S
C2547 C2548 1.399 . S
C2547 C2552 1.399 . S
C2548 C2547 1.399 . S
C2548 C2549 1.376 . S
C2549 H2536 0.930 . S
C2549 C2548 1.376 . S
C2549 C2550 1.388 . S
C2550 H2537 0.930 . S
C2550 C2549 1.388 . S
C2550 C2551 1.390 . S
C2551 C2550 1.390 . S
C2551 C2552 1.394 . S
C2551 C2557 1.465 . S
C2552 C2547 1.399 . S
C2552 C2551 1.394 . S
C2552 C2553 1.516 . S
C2553 C2552 1.516 . S
C2553 C2554 1.502 . S
C2553 C2555 1.561 . S
C2553 C2556 1.526 . S
C2554 H2538 0.959 . S
C2554 H2539 0.959 . S
C2554 H2540 0.961 . S
C2554 C2553 1.502 . S
C2555 H2541 0.960 . S
C2555 H2542 0.961 . S
C2555 H2543 0.959 . S
C2555 C2553 1.561 . S
C2556 C2553 1.526 . S
C2556 C2557 1.396 . S
C2556 C2561 1.390 . S
C2557 C2551 1.465 . S
C2557 C2556 1.396 . S
C2557 C2558 1.399 . S
C2558 H2544 0.929 . S
C2558 C2557 1.399 . S
C2558 C2559 1.385 . S
C2559 H2545 0.931 . S
C2559 C2558 1.385 . S
C2559 C2560 1.389 . S
C2560 C2559 1.389 . S
C2560 C2561 1.387 . S
C2561 H2546 0.930 . S
C2561 C2556 1.390 . S
C2561 C2560 1.387 . S
H2562 C2574 0.930 . S
H2563 C2576 0.930 . S
H2564 C2577 0.930 . S
H2565 C2581 0.959 . S
H2566 C2581 0.959 . S
H2567 C2581 0.961 . S
H2568 C2582 0.960 . S
H2569 C2582 0.961 . S
H2570 C2582 0.959 . S
H2571 C2585 0.929 . S
H2572 C2586 0.931 . S
H2573 C2588 0.930 . S
C2574 H2562 0.930 . S
C2574 C2575 1.399 . S
C2574 C2579 1.399 1_545 S
C2575 C2574 1.399 . S
C2575 C2576 1.376 . S
C2576 H2563 0.930 . S
C2576 C2575 1.376 . S
C2576 C2577 1.388 . S
C2577 H2564 0.930 . S
C2577 C2576 1.388 . S
C2577 C2578 1.390 1_545 S
C2578 C2577 1.390 1_565 S
C2578 C2579 1.394 . S
C2578 C2584 1.465 . S
C2579 C2574 1.399 1_565 S
C2579 C2578 1.394 . S
C2579 C2580 1.516 . S
C2580 C2579 1.516 . S
C2580 C2581 1.502 . S
C2580 C2582 1.561 . S
C2580 C2583 1.526 . S
C2581 H2565 0.959 . S
C2581 H2566 0.959 . S
C2581 H2567 0.961 . S
C2581 C2580 1.502 . S
C2582 H2568 0.960 . S
C2582 H2569 0.961 . S
C2582 H2570 0.959 . S
C2582 C2580 1.561 . S
C2583 C2580 1.526 . S
C2583 C2584 1.396 . S
C2583 C2588 1.390 . S
C2584 C2578 1.465 . S
C2584 C2583 1.396 . S
C2584 C2585 1.399 . S
C2585 H2571 0.929 . S
C2585 C2584 1.399 . S
C2585 C2586 1.385 . S
C2586 H2572 0.931 . S
C2586 C2585 1.385 . S
C2586 C2587 1.389 . S
C2587 C2586 1.389 . S
C2587 C2588 1.387 . S
C2588 H2573 0.930 . S
C2588 C2583 1.390 . S
C2588 C2587 1.387 . S
H2589 C2601 0.930 . S
H2590 C2603 0.930 . S
H2591 C2604 0.930 . S
H2592 C2608 0.959 . S
H2593 C2608 0.959 . S
H2594 C2608 0.961 . S
H2595 C2609 0.960 . S
H2596 C2609 0.961 . S
H2597 C2609 0.959 . S
H2598 C2612 0.929 . S
H2599 C2613 0.931 . S
H2600 C2615 0.930 . S
C2601 H2589 0.930 . S
C2601 C2602 1.399 . S
C2601 C2606 1.399 . S
C2602 C2601 1.399 . S
C2602 C2603 1.376 . S
C2603 H2590 0.930 . S
C2603 C2602 1.376 . S
C2603 C2604 1.388 . S
C2604 H2591 0.930 . S
C2604 C2603 1.388 . S
C2604 C2605 1.390 . S
C2605 C2604 1.390 . S
C2605 C2606 1.394 . S
C2605 C2611 1.465 . S
C2606 C2601 1.399 . S
C2606 C2605 1.394 . S
C2606 C2607 1.516 . S
C2607 C2606 1.516 . S
C2607 C2608 1.502 . S
C2607 C2609 1.561 . S
C2607 C2610 1.526 . S
C2608 H2592 0.959 . S
C2608 H2593 0.959 . S
C2608 H2594 0.961 . S
C2608 C2607 1.502 . S
C2609 H2595 0.960 . S
C2609 H2596 0.961 . S
C2609 H2597 0.959 . S
C2609 C2607 1.561 . S
C2610 C2607 1.526 . S
C2610 C2611 1.396 . S
C2610 C2615 1.390 1_545 S
C2611 C2605 1.465 . S
C2611 C2610 1.396 . S
C2611 C2612 1.398 . S
C2612 H2598 0.929 . S
C2612 C2611 1.398 . S
C2612 C2613 1.386 1_545 S
C2613 H2599 0.931 . S
C2613 C2612 1.386 1_565 S
C2613 C2614 1.389 . S
C2614 C2613 1.389 . S
C2614 C2615 1.387 . S
C2615 H2600 0.930 . S
C2615 C2610 1.390 1_565 S
C2615 C2614 1.387 . S
H2616 C2628 0.930 . S
H2617 C2630 0.930 . S
H2618 C2631 0.930 . S
H2619 C2635 0.959 . S
H2620 C2635 0.959 . S
H2621 C2635 0.961 . S
H2622 C2636 0.960 . S
H2623 C2636 0.961 . S
H2624 C2636 0.959 . S
H2625 C2639 0.929 . S
H2626 C2640 0.931 . S
H2627 C2642 0.930 . S
C2628 H2616 0.930 . S
C2628 C2629 1.399 . S
C2628 C2633 1.399 . S
C2629 C2628 1.399 . S
C2629 C2630 1.376 . S
C2630 H2617 0.930 . S
C2630 C2629 1.376 . S
C2630 C2631 1.388 . S
C2631 H2618 0.930 . S
C2631 C2630 1.388 . S
C2631 C2632 1.390 . S
C2632 C2631 1.390 . S
C2632 C2633 1.394 . S
C2632 C2638 1.465 . S
C2633 C2628 1.399 . S
C2633 C2632 1.394 . S
C2633 C2634 1.516 . S
C2634 C2633 1.516 . S
C2634 C2635 1.502 . S
C2634 C2636 1.561 . S
C2634 C2637 1.526 . S
C2635 H2619 0.959 . S
C2635 H2620 0.959 . S
C2635 H2621 0.961 . S
C2635 C2634 1.502 . S
C2636 H2622 0.960 . S
C2636 H2623 0.961 . S
C2636 H2624 0.959 . S
C2636 C2634 1.561 . S
C2637 C2634 1.526 . S
C2637 C2638 1.396 . S
C2637 C2642 1.390 . S
C2638 C2632 1.465 . S
C2638 C2637 1.396 . S
C2638 C2639 1.399 . S
C2639 H2625 0.929 . S
C2639 C2638 1.399 . S
C2639 C2640 1.385 . S
C2640 H2626 0.931 . S
C2640 C2639 1.385 . S
C2640 C2641 1.389 . S
C2641 C2640 1.389 . S
C2641 C2642 1.387 . S
C2642 H2627 0.930 . S
C2642 C2637 1.390 . S
C2642 C2641 1.387 . S
H2643 C2655 0.930 . S
H2644 C2657 0.930 . S
H2645 C2658 0.930 . S
H2646 C2662 0.959 . S
H2647 C2662 0.959 . S
H2648 C2662 0.961 . S
H2649 C2663 0.960 . S
H2650 C2663 0.961 . S
H2651 C2663 0.959 . S
H2652 C2666 0.929 . S
H2653 C2667 0.931 . S
H2654 C2669 0.930 . S
C2655 H2643 0.930 . S
C2655 C2656 1.399 . S
C2655 C2660 1.399 . S
C2656 C2655 1.399 . S
C2656 C2657 1.376 . S
C2657 H2644 0.930 . S
C2657 C2656 1.376 . S
C2657 C2658 1.388 . S
C2658 H2645 0.930 . S
C2658 C2657 1.388 . S
C2658 C2659 1.390 . S
C2659 C2658 1.390 . S
C2659 C2660 1.394 . S
C2659 C2665 1.465 . S
C2660 C2655 1.399 . S
C2660 C2659 1.394 . S
C2660 C2661 1.516 . S
C2661 C2660 1.516 . S
C2661 C2662 1.502 . S
C2661 C2663 1.561 . S
C2661 C2664 1.526 . S
C2662 H2646 0.959 . S
C2662 H2647 0.959 . S
C2662 H2648 0.961 . S
C2662 C2661 1.502 . S
C2663 H2649 0.960 . S
C2663 H2650 0.961 . S
C2663 H2651 0.959 . S
C2663 C2661 1.561 . S
C2664 C2661 1.526 . S
C2664 C2665 1.396 . S
C2664 C2669 1.390 . S
C2665 C2659 1.465 . S
C2665 C2664 1.396 . S
C2665 C2666 1.399 . S
C2666 H2652 0.929 . S
C2666 C2665 1.399 . S
C2666 C2667 1.385 . S
C2667 H2653 0.931 . S
C2667 C2666 1.385 . S
C2667 C2668 1.389 . S
C2668 C2667 1.389 . S
C2668 C2669 1.387 . S
C2669 H2654 0.930 . S
C2669 C2664 1.390 . S
C2669 C2668 1.387 . S
H2670 C2682 0.930 . S
H2671 C2684 0.930 . S
H2672 C2685 0.930 . S
H2673 C2689 0.959 . S
H2674 C2689 0.959 . S
H2675 C2689 0.961 . S
H2676 C2690 0.960 . S
H2677 C2690 0.961 . S
H2678 C2690 0.959 . S
H2679 C2693 0.929 . S
H2680 C2694 0.931 . S
H2681 C2696 0.930 . S
C2682 H2670 0.930 . S
C2682 C2683 1.399 . S
C2682 C2687 1.399 . S
C2683 C2682 1.399 . S
C2683 C2684 1.376 . S
C2684 H2671 0.930 . S
C2684 C2683 1.376 . S
C2684 C2685 1.388 . S
C2685 H2672 0.930 . S
C2685 C2684 1.388 . S
C2685 C2686 1.390 . S
C2686 C2685 1.390 . S
C2686 C2687 1.394 . S
C2686 C2692 1.465 . S
C2687 C2682 1.399 . S
C2687 C2686 1.394 . S
C2687 C2688 1.516 . S
C2688 C2687 1.516 . S
C2688 C2689 1.502 . S
C2688 C2690 1.561 . S
C2688 C2691 1.526 . S
C2689 H2673 0.959 . S
C2689 H2674 0.959 . S
C2689 H2675 0.961 . S
C2689 C2688 1.502 . S
C2690 H2676 0.960 . S
C2690 H2677 0.961 . S
C2690 H2678 0.959 . S
C2690 C2688 1.561 . S
C2691 C2688 1.526 . S
C2691 C2692 1.396 . S
C2691 C2696 1.390 . S
C2692 C2686 1.465 . S
C2692 C2691 1.396 . S
C2692 C2693 1.399 . S
C2693 H2679 0.929 . S
C2693 C2692 1.399 . S
C2693 C2694 1.385 . S
C2694 H2680 0.931 . S
C2694 C2693 1.385 . S
C2694 C2695 1.389 . S
C2695 C2694 1.389 . S
C2695 C2696 1.387 . S
C2696 H2681 0.930 . S
C2696 C2691 1.390 . S
C2696 C2695 1.387 . S
H2697 C2709 0.930 . S
H2698 C2711 0.930 . S
H2699 C2712 0.917 1_655 S
H2700 C2716 0.959 . S
H2701 C2716 0.959 . S
H2702 C2716 0.961 . S
H2703 C2717 0.960 1_455 S
H2704 C2717 0.961 . S
H2705 C2717 0.959 . S
H2706 C2720 0.929 . S
H2707 C2721 0.931 . S
H2708 C2723 0.930 . S
C2709 H2697 0.930 . S
C2709 C2710 1.399 . S
C2709 C2714 1.399 . S
C2710 C2709 1.399 . S
C2710 C2711 1.376 . S
C2711 H2698 0.930 . S
C2711 C2710 1.376 . S
C2711 C2712 1.388 . S
C2712 H2699 0.917 1_455 S
C2712 C2711 1.388 . S
C2712 C2713 1.390 1_455 S
C2713 C2712 1.390 1_655 S
C2713 C2714 1.394 1_655 S
C2713 C2719 1.465 . S
C2714 C2709 1.399 . S
C2714 C2713 1.394 1_455 S
C2714 C2715 1.516 1_455 S
C2715 C2714 1.516 1_655 S
C2715 C2716 1.502 . S
C2715 C2717 1.561 . S
C2715 C2718 1.526 . S
C2716 H2700 0.959 . S
C2716 H2701 0.959 . S
C2716 H2702 0.961 . S
C2716 C2715 1.502 . S
C2717 H2703 0.960 1_655 S
C2717 H2704 0.961 . S
C2717 H2705 0.959 . S
C2717 C2715 1.561 . S
C2718 C2715 1.526 . S
C2718 C2719 1.396 . S
C2718 C2723 1.390 . S
C2719 C2713 1.465 . S
C2719 C2718 1.396 . S
C2719 C2720 1.399 . S
C2720 H2706 0.929 . S
C2720 C2719 1.399 . S
C2720 C2721 1.385 . S
C2721 H2707 0.931 . S
C2721 C2720 1.385 . S
C2721 C2722 1.389 . S
C2722 C2721 1.389 . S
C2722 C2723 1.387 . S
C2723 H2708 0.930 . S
C2723 C2718 1.390 . S
C2723 C2722 1.387 . S
H2724 C2736 0.930 . S
H2725 C2738 0.930 . S
H2726 C2739 0.930 . S
H2727 C2743 0.959 . S
H2728 C2743 0.959 . S
H2729 C2743 0.961 . S
H2730 C2744 0.960 . S
H2731 C2744 0.961 . S
H2732 C2744 0.959 . S
H2733 C2747 0.929 . S
H2734 C2748 0.931 . S
H2735 C2750 0.930 . S
C2736 H2724 0.930 . S
C2736 C2737 1.399 . S
C2736 C2741 1.399 . S
C2737 C2736 1.399 . S
C2737 C2738 1.376 . S
C2738 H2725 0.930 . S
C2738 C2737 1.376 . S
C2738 C2739 1.388 . S
C2739 H2726 0.930 . S
C2739 C2738 1.388 . S
C2739 C2740 1.390 . S
C2740 C2739 1.390 . S
C2740 C2741 1.394 . S
C2740 C2746 1.465 . S
C2741 C2736 1.399 . S
C2741 C2740 1.394 . S
C2741 C2742 1.516 . S
C2742 C2741 1.516 . S
C2742 C2743 1.502 . S
C2742 C2744 1.561 . S
C2742 C2745 1.526 . S
C2743 H2727 0.959 . S
C2743 H2728 0.959 . S
C2743 H2729 0.961 . S
C2743 C2742 1.502 . S
C2744 H2730 0.960 . S
C2744 H2731 0.961 . S
C2744 H2732 0.959 . S
C2744 C2742 1.561 . S
C2745 C2742 1.526 . S
C2745 C2746 1.396 . S
C2745 C2750 1.390 . S
C2746 C2740 1.465 . S
C2746 C2745 1.396 . S
C2746 C2747 1.399 . S
C2747 H2733 0.929 . S
C2747 C2746 1.399 . S
C2747 C2748 1.385 . S
C2748 H2734 0.931 . S
C2748 C2747 1.385 . S
C2748 C2749 1.389 . S
C2749 C2748 1.389 . S
C2749 C2750 1.387 . S
C2750 H2735 0.930 . S
C2750 C2745 1.390 . S
C2750 C2749 1.387 . S
H2751 C2763 0.930 . S
H2752 C2765 0.930 . S
H2753 C2766 0.930 . S
H2754 C2770 0.959 . S
H2755 C2770 0.959 . S
H2756 C2770 0.961 1_455 S
H2757 C2771 0.960 1_455 S
H2758 C2771 0.961 . S
H2759 C2771 0.959 . S
H2760 C2774 0.929 . S
H2761 C2775 0.931 . S
H2762 C2777 0.930 . S
C2763 H2751 0.930 . S
C2763 C2764 1.399 . S
C2763 C2768 1.399 . S
C2764 C2763 1.399 . S
C2764 C2765 1.376 . S
C2765 H2752 0.930 . S
C2765 C2764 1.376 . S
C2765 C2766 1.388 1_455 S
C2766 H2753 0.930 . S
C2766 C2765 1.388 1_655 S
C2766 C2767 1.390 . S
C2767 C2766 1.390 . S
C2767 C2768 1.394 1_655 S
C2767 C2773 1.465 . S
C2768 C2763 1.399 . S
C2768 C2767 1.394 1_455 S
C2768 C2769 1.516 1_455 S
C2769 C2768 1.516 1_655 S
C2769 C2770 1.502 . S
C2769 C2771 1.561 . S
C2769 C2772 1.526 . S
C2770 H2754 0.959 . S
C2770 H2755 0.959 . S
C2770 H2756 0.961 1_655 S
C2770 C2769 1.502 . S
C2771 H2757 0.960 1_655 S
C2771 H2758 0.961 . S
C2771 H2759 0.959 . S
C2771 C2769 1.561 . S
C2772 C2769 1.526 . S
C2772 C2773 1.396 . S
C2772 C2777 1.390 . S
C2773 C2767 1.465 . S
C2773 C2772 1.396 . S
C2773 C2774 1.399 . S
C2774 H2760 0.929 . S
C2774 C2773 1.399 . S
C2774 C2775 1.385 . S
C2775 H2761 0.931 . S
C2775 C2774 1.385 . S
C2775 C2776 1.389 . S
C2776 C2775 1.389 . S
C2776 C2777 1.387 . S
C2777 H2762 0.930 . S
C2777 C2772 1.390 . S
C2777 C2776 1.387 . S
H2778 C2790 0.930 . S
H2779 C2792 0.930 . S
H2780 C2793 0.930 . S
H2781 C2797 0.959 . S
H2782 C2797 0.959 . S
H2783 C2797 0.961 . S
H2784 C2798 0.960 . S
H2785 C2798 0.961 . S
H2786 C2798 0.959 . S
H2787 C2801 0.929 . S
H2788 C2802 0.931 . S
H2789 C2804 0.930 . S
C2790 H2778 0.930 . S
C2790 C2791 1.399 . S
C2790 C2795 1.399 . S
C2791 C2790 1.399 . S
C2791 C2792 1.376 . S
C2792 H2779 0.930 . S
C2792 C2791 1.376 . S
C2792 C2793 1.388 . S
C2793 H2780 0.930 . S
C2793 C2792 1.388 . S
C2793 C2794 1.390 . S
C2794 C2793 1.390 . S
C2794 C2795 1.394 . S
C2794 C2800 1.465 . S
C2795 C2790 1.399 . S
C2795 C2794 1.394 . S
C2795 C2796 1.516 . S
C2796 C2795 1.516 . S
C2796 C2797 1.502 . S
C2796 C2798 1.561 . S
C2796 C2799 1.526 . S
C2797 H2781 0.959 . S
C2797 H2782 0.959 . S
C2797 H2783 0.961 . S
C2797 C2796 1.502 . S
C2798 H2784 0.960 . S
C2798 H2785 0.961 . S
C2798 H2786 0.959 . S
C2798 C2796 1.561 . S
C2799 C2796 1.526 . S
C2799 C2800 1.396 . S
C2799 C2804 1.390 . S
C2800 C2794 1.465 . S
C2800 C2799 1.396 . S
C2800 C2801 1.399 . S
C2801 H2787 0.929 . S
C2801 C2800 1.399 . S
C2801 C2802 1.385 . S
C2802 H2788 0.931 . S
C2802 C2801 1.385 . S
C2802 C2803 1.389 . S
C2803 C2802 1.389 . S
C2803 C2804 1.387 . S
C2804 H2789 0.930 . S
C2804 C2799 1.390 . S
C2804 C2803 1.387 . S
H2805 C2817 0.930 . S
H2806 C2819 0.930 . S
H2807 C2820 0.930 . S
H2808 C2824 0.959 . S
H2809 C2824 0.959 . S
H2810 C2824 0.961 . S
H2811 C2825 0.960 . S
H2812 C2825 0.961 . S
H2813 C2825 0.959 . S
H2814 C2828 0.929 . S
H2815 C2829 0.931 . S
H2816 C2831 0.930 . S
C2817 H2805 0.930 . S
C2817 C2818 1.399 . S
C2817 C2822 1.399 . S
C2818 C2817 1.399 . S
C2818 C2819 1.376 . S
C2819 H2806 0.930 . S
C2819 C2818 1.376 . S
C2819 C2820 1.388 . S
C2820 H2807 0.930 . S
C2820 C2819 1.388 . S
C2820 C2821 1.390 . S
C2821 C2820 1.390 . S
C2821 C2822 1.394 . S
C2821 C2827 1.465 . S
C2822 C2817 1.399 . S
C2822 C2821 1.394 . S
C2822 C2823 1.516 . S
C2823 C2822 1.516 . S
C2823 C2824 1.502 . S
C2823 C2825 1.561 . S
C2823 C2826 1.526 . S
C2824 H2808 0.959 . S
C2824 H2809 0.959 . S
C2824 H2810 0.961 . S
C2824 C2823 1.502 . S
C2825 H2811 0.960 . S
C2825 H2812 0.961 . S
C2825 H2813 0.959 . S
C2825 C2823 1.561 . S
C2826 C2823 1.526 . S
C2826 C2827 1.396 . S
C2826 C2831 1.390 . S
C2827 C2821 1.465 . S
C2827 C2826 1.396 . S
C2827 C2828 1.399 . S
C2828 H2814 0.929 . S
C2828 C2827 1.399 . S
C2828 C2829 1.385 . S
C2829 H2815 0.931 . S
C2829 C2828 1.385 . S
C2829 C2830 1.389 . S
C2830 C2829 1.389 . S
C2830 C2831 1.387 . S
C2831 H2816 0.930 . S
C2831 C2826 1.390 . S
C2831 C2830 1.387 . S
H2832 C2844 0.930 . S
H2833 C2846 0.930 . S
H2834 C2847 0.930 . S
H2835 C2851 0.959 . S
H2836 C2851 0.959 . S
H2837 C2851 0.961 . S
H2838 C2852 0.960 . S
H2839 C2852 0.961 . S
H2840 C2852 0.959 . S
H2841 C2855 0.929 . S
H2842 C2856 0.931 . S
H2843 C2858 0.930 . S
C2844 H2832 0.930 . S
C2844 C2845 1.399 . S
C2844 C2849 1.399 . S
C2845 C2844 1.399 . S
C2845 C2846 1.376 . S
C2846 H2833 0.930 . S
C2846 C2845 1.376 . S
C2846 C2847 1.388 . S
C2847 H2834 0.930 . S
C2847 C2846 1.388 . S
C2847 C2848 1.390 . S
C2848 C2847 1.390 . S
C2848 C2849 1.394 . S
C2848 C2854 1.465 . S
C2849 C2844 1.399 . S
C2849 C2848 1.394 . S
C2849 C2850 1.516 . S
C2850 C2849 1.516 . S
C2850 C2851 1.502 . S
C2850 C2852 1.561 . S
C2850 C2853 1.526 . S
C2851 H2835 0.959 . S
C2851 H2836 0.959 . S
C2851 H2837 0.961 . S
C2851 C2850 1.502 . S
C2852 H2838 0.960 . S
C2852 H2839 0.961 . S
C2852 H2840 0.959 . S
C2852 C2850 1.561 . S
C2853 C2850 1.526 . S
C2853 C2854 1.396 . S
C2853 C2858 1.390 . S
C2854 C2848 1.465 . S
C2854 C2853 1.396 . S
C2854 C2855 1.399 . S
C2855 H2841 0.929 . S
C2855 C2854 1.399 . S
C2855 C2856 1.385 . S
C2856 H2842 0.931 . S
C2856 C2855 1.385 . S
C2856 C2857 1.389 . S
C2857 C2856 1.389 . S
C2857 C2858 1.387 . S
C2858 H2843 0.930 . S
C2858 C2853 1.390 . S
C2858 C2857 1.387 . S
H2859 C2871 0.930 . S
H2860 C2873 0.930 . S
H2861 C2874 0.930 . S
H2862 C2878 0.959 . S
H2863 C2878 0.959 . S
H2864 C2878 0.961 . S
H2865 C2879 0.960 . S
H2866 C2879 0.912 1_554 S
H2867 C2879 0.959 . S
H2868 C2882 0.929 . S
H2869 C2883 0.931 . S
H2870 C2885 0.930 . S
C2871 H2859 0.930 . S
C2871 C2872 1.399 . S
C2871 C2876 1.399 . S
C2872 C2871 1.399 . S
C2872 C2873 1.376 . S
C2873 H2860 0.930 . S
C2873 C2872 1.376 . S
C2873 C2874 1.388 . S
C2874 H2861 0.930 . S
C2874 C2873 1.388 . S
C2874 C2875 1.390 . S
C2875 C2874 1.390 . S
C2875 C2876 1.394 . S
C2875 C2881 1.465 . S
C2876 C2871 1.399 . S
C2876 C2875 1.394 . S
C2876 C2877 1.516 . S
C2877 C2876 1.516 . S
C2877 C2878 1.502 . S
C2877 C2879 1.561 . S
C2877 C2880 1.526 . S
C2878 H2862 0.959 . S
C2878 H2863 0.959 . S
C2878 H2864 0.961 . S
C2878 C2877 1.502 . S
C2879 H2865 0.960 . S
C2879 H2866 0.912 1_556 S
C2879 H2867 0.959 . S
C2879 C2877 1.561 . S
C2880 C2877 1.526 . S
C2880 C2881 1.396 . S
C2880 C2885 1.390 1_556 S
C2881 C2875 1.465 . S
C2881 C2880 1.396 . S
C2881 C2882 1.399 . S
C2882 H2868 0.929 . S
C2882 C2881 1.399 . S
C2882 C2883 1.385 1_556 S
C2883 H2869 0.931 . S
C2883 C2882 1.385 1_554 S
C2883 C2884 1.389 . S
C2884 C2883 1.389 . S
C2884 C2885 1.387 . S
C2885 H2870 0.930 . S
C2885 C2880 1.390 1_554 S
C2885 C2884 1.387 . S
H2886 C2898 0.930 . S
H2887 C2900 0.930 . S
H2888 C2901 0.930 . S
H2889 C2905 0.959 . S
H2890 C2905 0.959 . S
H2891 C2905 0.961 . S
H2892 C2906 0.960 . S
H2893 C2906 0.961 . S
H2894 C2906 0.959 . S
H2895 C2909 0.929 . S
H2896 C2910 0.931 . S
H2897 C2912 0.930 . S
C2898 H2886 0.930 . S
C2898 C2899 1.399 . S
C2898 C2903 1.399 . S
C2899 C2898 1.399 . S
C2899 C2900 1.376 . S
C2900 H2887 0.930 . S
C2900 C2899 1.376 . S
C2900 C2901 1.388 . S
C2901 H2888 0.930 . S
C2901 C2900 1.388 . S
C2901 C2902 1.390 . S
C2902 C2901 1.390 . S
C2902 C2903 1.394 . S
C2902 C2908 1.465 . S
C2903 C2898 1.399 . S
C2903 C2902 1.394 . S
C2903 C2904 1.516 . S
C2904 C2903 1.516 . S
C2904 C2905 1.502 . S
C2904 C2906 1.561 . S
C2904 C2907 1.526 . S
C2905 H2889 0.959 . S
C2905 H2890 0.959 . S
C2905 H2891 0.961 . S
C2905 C2904 1.502 . S
C2906 H2892 0.960 . S
C2906 H2893 0.961 . S
C2906 H2894 0.959 . S
C2906 C2904 1.561 . S
C2907 C2904 1.526 . S
C2907 C2908 1.396 . S
C2907 C2912 1.390 . S
C2908 C2902 1.465 . S
C2908 C2907 1.396 . S
C2908 C2909 1.399 . S
C2909 H2895 0.929 . S
C2909 C2908 1.399 . S
C2909 C2910 1.385 . S
C2910 H2896 0.931 . S
C2910 C2909 1.385 . S
C2910 C2911 1.389 . S
C2911 C2910 1.389 . S
C2911 C2912 1.387 . S
C2912 H2897 0.930 . S
C2912 C2907 1.390 . S
C2912 C2911 1.387 . S
H2913 C2925 0.930 . S
H2914 C2927 0.930 . S
H2915 C2928 0.930 . S
H2916 C2932 0.959 . S
H2917 C2932 0.959 . S
H2918 C2932 0.961 . S
H2919 C2933 0.960 . S
H2920 C2933 0.961 . S
H2921 C2933 0.959 . S
H2922 C2936 0.929 . S
H2923 C2937 0.931 . S
H2924 C2939 0.930 . S
C2925 H2913 0.930 . S
C2925 C2926 1.399 . S
C2925 C2930 1.399 . S
C2926 C2925 1.399 . S
C2926 C2927 1.376 . S
C2927 H2914 0.930 . S
C2927 C2926 1.376 . S
C2927 C2928 1.388 . S
C2928 H2915 0.930 . S
C2928 C2927 1.388 . S
C2928 C2929 1.390 . S
C2929 C2928 1.390 . S
C2929 C2930 1.394 . S
C2929 C2935 1.465 . S
C2930 C2925 1.399 . S
C2930 C2929 1.394 . S
C2930 C2931 1.516 . S
C2931 C2930 1.516 . S
C2931 C2932 1.502 . S
C2931 C2933 1.561 . S
C2931 C2934 1.526 . S
C2932 H2916 0.959 . S
C2932 H2917 0.959 . S
C2932 H2918 0.961 . S
C2932 C2931 1.502 . S
C2933 H2919 0.960 . S
C2933 H2920 0.961 . S
C2933 H2921 0.959 . S
C2933 C2931 1.561 . S
C2934 C2931 1.526 . S
C2934 C2935 1.396 . S
C2934 C2939 1.390 . S
C2935 C2929 1.465 . S
C2935 C2934 1.396 . S
C2935 C2936 1.399 . S
C2936 H2922 0.929 . S
C2936 C2935 1.399 . S
C2936 C2937 1.385 . S
C2937 H2923 0.931 . S
C2937 C2936 1.385 . S
C2937 C2938 1.389 . S
C2938 C2937 1.389 . S
C2938 C2939 1.387 . S
C2939 H2924 0.930 . S
C2939 C2934 1.390 . S
C2939 C2938 1.387 . S
H2940 C2952 0.930 . S
H2941 C2954 0.930 . S
H2942 C2955 0.930 . S
H2943 C2959 0.959 . S
H2944 C2959 0.959 . S
H2945 C2959 0.961 . S
H2946 C2960 0.960 . S
H2947 C2960 0.961 . S
H2948 C2960 0.959 . S
H2949 C2963 0.929 . S
H2950 C2964 0.931 . S
H2951 C2966 0.930 . S
C2952 H2940 0.930 . S
C2952 C2953 1.399 . S
C2952 C2957 1.399 . S
C2953 C2952 1.399 . S
C2953 C2954 1.376 . S
C2954 H2941 0.930 . S
C2954 C2953 1.376 . S
C2954 C2955 1.388 . S
C2955 H2942 0.930 . S
C2955 C2954 1.388 . S
C2955 C2956 1.390 . S
C2956 C2955 1.390 . S
C2956 C2957 1.394 . S
C2956 C2962 1.465 . S
C2957 C2952 1.399 . S
C2957 C2956 1.394 . S
C2957 C2958 1.516 . S
C2958 C2957 1.516 . S
C2958 C2959 1.502 . S
C2958 C2960 1.561 . S
C2958 C2961 1.526 . S
C2959 H2943 0.959 . S
C2959 H2944 0.959 . S
C2959 H2945 0.961 . S
C2959 C2958 1.502 . S
C2960 H2946 0.960 . S
C2960 H2947 0.961 . S
C2960 H2948 0.959 . S
C2960 C2958 1.561 . S
C2961 C2958 1.526 . S
C2961 C2962 1.396 . S
C2961 C2966 1.390 . S
C2962 C2956 1.465 . S
C2962 C2961 1.396 . S
C2962 C2963 1.399 . S
C2963 H2949 0.929 . S
C2963 C2962 1.399 . S
C2963 C2964 1.385 . S
C2964 H2950 0.931 . S
C2964 C2963 1.385 . S
C2964 C2965 1.389 . S
C2965 C2964 1.389 . S
C2965 C2966 1.387 . S
C2966 H2951 0.930 . S
C2966 C2961 1.390 . S
C2966 C2965 1.387 . S
H2967 C2979 0.930 . S
H2968 C2981 0.930 . S
H2969 C2982 0.930 . S
H2970 C2986 0.959 . S
H2971 C2986 0.959 . S
H2972 C2986 0.961 . S
H2973 C2987 0.960 . S
H2974 C2987 0.961 . S
H2975 C2987 0.959 . S
H2976 C2990 0.929 . S
H2977 C2991 0.931 . S
H2978 C2993 0.930 . S
C2979 H2967 0.930 . S
C2979 C2980 1.399 . S
C2979 C2984 1.399 . S
C2980 C2979 1.399 . S
C2980 C2981 1.376 . S
C2981 H2968 0.930 . S
C2981 C2980 1.376 . S
C2981 C2982 1.388 . S
C2982 H2969 0.930 . S
C2982 C2981 1.388 . S
C2982 C2983 1.390 . S
C2983 C2982 1.390 . S
C2983 C2984 1.394 . S
C2983 C2989 1.465 . S
C2984 C2979 1.399 . S
C2984 C2983 1.394 . S
C2984 C2985 1.516 . S
C2985 C2984 1.516 . S
C2985 C2986 1.502 . S
C2985 C2987 1.561 . S
C2985 C2988 1.526 . S
C2986 H2970 0.959 . S
C2986 H2971 0.959 . S
C2986 H2972 0.961 . S
C2986 C2985 1.502 . S
C2987 H2973 0.960 . S
C2987 H2974 0.961 . S
C2987 H2975 0.959 . S
C2987 C2985 1.561 . S
C2988 C2985 1.526 . S
C2988 C2989 1.396 . S
C2988 C2993 1.390 1_554 S
C2989 C2983 1.465 . S
C2989 C2988 1.396 . S
C2989 C2990 1.399 1_554 S
C2990 H2976 0.929 . S
C2990 C2989 1.399 1_556 S
C2990 C2991 1.385 . S
C2991 H2977 0.931 . S
C2991 C2990 1.385 . S
C2991 C2992 1.389 . S
C2992 C2991 1.389 . S
C2992 C2993 1.387 . S
C2993 H2978 0.930 . S
C2993 C2988 1.390 1_556 S
C2993 C2992 1.387 . S
H2994 C3006 0.930 . S
H2995 C3008 0.930 . S
H2996 C3009 0.930 . S
H2997 C3013 0.959 . S
H2998 C3013 0.959 . S
H2999 C3013 0.961 . S
H3000 C3014 0.960 . S
H3001 C3014 0.961 . S
H3002 C3014 0.959 . S
H3003 C3017 0.929 . S
H3004 C3018 0.931 . S
H3005 C3020 0.930 . S
C3006 H2994 0.930 . S
C3006 C3007 1.399 . S
C3006 C3011 1.399 . S
C3007 C3006 1.399 . S
C3007 C3008 1.376 . S
C3008 H2995 0.930 . S
C3008 C3007 1.376 . S
C3008 C3009 1.388 . S
C3009 H2996 0.930 . S
C3009 C3008 1.388 . S
C3009 C3010 1.390 . S
C3010 C3009 1.390 . S
C3010 C3011 1.394 . S
C3010 C3016 1.465 . S
C3011 C3006 1.399 . S
C3011 C3010 1.394 . S
C3011 C3012 1.516 . S
C3012 C3011 1.516 . S
C3012 C3013 1.502 . S
C3012 C3014 1.561 . S
C3012 C3015 1.526 . S
C3013 H2997 0.959 . S
C3013 H2998 0.959 . S
C3013 H2999 0.961 . S
C3013 C3012 1.502 . S
C3014 H3000 0.960 . S
C3014 H3001 0.961 . S
C3014 H3002 0.959 . S
C3014 C3012 1.561 . S
C3015 C3012 1.526 . S
C3015 C3016 1.396 . S
C3015 C3020 1.390 . S
C3016 C3010 1.465 . S
C3016 C3015 1.396 . S
C3016 C3017 1.399 . S
C3017 H3003 0.929 . S
C3017 C3016 1.399 . S
C3017 C3018 1.385 . S
C3018 H3004 0.931 . S
C3018 C3017 1.385 . S
C3018 C3019 1.389 . S
C3019 C3018 1.389 . S
C3019 C3020 1.387 . S
C3020 H3005 0.930 . S
C3020 C3015 1.390 . S
C3020 C3019 1.387 . S
H3021 C3033 0.930 . S
H3022 C3035 0.930 . S
H3023 C3036 0.930 . S
H3024 C3040 0.959 . S
H3025 C3040 0.959 . S
H3026 C3040 0.961 . S
H3027 C3041 0.960 . S
H3028 C3041 0.961 . S
H3029 C3041 0.959 . S
H3030 C3044 0.929 . S
H3031 C3045 0.931 . S
H3032 C3047 0.930 . S
C3033 H3021 0.930 . S
C3033 C3034 1.399 . S
C3033 C3038 1.399 . S
C3034 C3033 1.399 . S
C3034 C3035 1.376 . S
C3035 H3022 0.930 . S
C3035 C3034 1.376 . S
C3035 C3036 1.388 . S
C3036 H3023 0.930 . S
C3036 C3035 1.388 . S
C3036 C3037 1.390 . S
C3037 C3036 1.390 . S
C3037 C3038 1.394 . S
C3037 C3043 1.465 . S
C3038 C3033 1.399 . S
C3038 C3037 1.394 . S
C3038 C3039 1.516 . S
C3039 C3038 1.516 . S
C3039 C3040 1.502 . S
C3039 C3041 1.561 . S
C3039 C3042 1.526 . S
C3040 H3024 0.959 . S
C3040 H3025 0.959 . S
C3040 H3026 0.961 . S
C3040 C3039 1.502 . S
C3041 H3027 0.960 . S
C3041 H3028 0.961 . S
C3041 H3029 0.959 . S
C3041 C3039 1.561 . S
C3042 C3039 1.526 . S
C3042 C3043 1.396 . S
C3042 C3047 1.390 . S
C3043 C3037 1.465 . S
C3043 C3042 1.396 . S
C3043 C3044 1.399 . S
C3044 H3030 0.929 . S
C3044 C3043 1.399 . S
C3044 C3045 1.385 . S
C3045 H3031 0.931 . S
C3045 C3044 1.385 . S
C3045 C3046 1.389 . S
C3046 C3045 1.389 . S
C3046 C3047 1.387 . S
C3047 H3032 0.930 . S
C3047 C3042 1.390 . S
C3047 C3046 1.387 . S
H3048 C3060 0.930 . S
H3049 C3062 0.930 . S
H3050 C3063 0.930 . S
H3051 C3067 0.959 . S
H3052 C3067 0.959 . S
H3053 C3067 0.961 . S
H3054 C3068 0.960 . S
H3055 C3068 0.961 . S
H3056 C3068 0.959 . S
H3057 C3071 0.929 . S
H3058 C3072 0.931 . S
H3059 C3074 0.930 . S
C3060 H3048 0.930 . S
C3060 C3061 1.399 . S
C3060 C3065 1.399 . S
C3061 C3060 1.399 . S
C3061 C3062 1.376 . S
C3062 H3049 0.930 . S
C3062 C3061 1.376 . S
C3062 C3063 1.388 . S
C3063 H3050 0.930 . S
C3063 C3062 1.388 . S
C3063 C3064 1.390 . S
C3064 C3063 1.390 . S
C3064 C3065 1.394 . S
C3064 C3070 1.465 . S
C3065 C3060 1.399 . S
C3065 C3064 1.394 . S
C3065 C3066 1.516 . S
C3066 C3065 1.516 . S
C3066 C3067 1.502 . S
C3066 C3068 1.561 . S
C3066 C3069 1.526 . S
C3067 H3051 0.959 . S
C3067 H3052 0.959 . S
C3067 H3053 0.961 . S
C3067 C3066 1.502 . S
C3068 H3054 0.960 . S
C3068 H3055 0.961 . S
C3068 H3056 0.959 . S
C3068 C3066 1.561 . S
C3069 C3066 1.526 . S
C3069 C3070 1.396 . S
C3069 C3074 1.390 . S
C3070 C3064 1.465 . S
C3070 C3069 1.396 . S
C3070 C3071 1.399 . S
C3071 H3057 0.929 . S
C3071 C3070 1.399 . S
C3071 C3072 1.385 . S
C3072 H3058 0.931 . S
C3072 C3071 1.385 . S
C3072 C3073 1.389 . S
C3073 C3072 1.389 . S
C3073 C3074 1.387 . S
C3074 H3059 0.930 . S
C3074 C3069 1.390 . S
C3074 C3073 1.387 . S
H3075 C3087 0.930 . S
H3076 C3089 0.930 . S
H3077 C3090 0.930 . S
H3078 C3094 0.959 . S
H3079 C3094 0.959 . S
H3080 C3094 0.961 . S
H3081 C3095 0.960 . S
H3082 C3095 0.961 . S
H3083 C3095 0.959 . S
H3084 C3098 0.929 . S
H3085 C3099 0.931 . S
H3086 C3101 0.930 . S
C3087 H3075 0.930 . S
C3087 C3088 1.399 . S
C3087 C3092 1.399 . S
C3088 C3087 1.399 . S
C3088 C3089 1.376 . S
C3089 H3076 0.930 . S
C3089 C3088 1.376 . S
C3089 C3090 1.388 . S
C3090 H3077 0.930 . S
C3090 C3089 1.388 . S
C3090 C3091 1.390 . S
C3091 C3090 1.390 . S
C3091 C3092 1.394 . S
C3091 C3097 1.465 . S
C3092 C3087 1.399 . S
C3092 C3091 1.394 . S
C3092 C3093 1.516 . S
C3093 C3092 1.516 . S
C3093 C3094 1.502 . S
C3093 C3095 1.561 . S
C3093 C3096 1.526 . S
C3094 H3078 0.959 . S
C3094 H3079 0.959 . S
C3094 H3080 0.961 . S
C3094 C3093 1.502 . S
C3095 H3081 0.960 . S
C3095 H3082 0.961 . S
C3095 H3083 0.959 . S
C3095 C3093 1.561 . S
C3096 C3093 1.526 . S
C3096 C3097 1.396 . S
C3096 C3101 1.390 . S
C3097 C3091 1.465 . S
C3097 C3096 1.396 . S
C3097 C3098 1.399 . S
C3098 H3084 0.929 . S
C3098 C3097 1.399 . S
C3098 C3099 1.385 . S
C3099 H3085 0.931 . S
C3099 C3098 1.385 . S
C3099 C3100 1.389 . S
C3100 C3099 1.389 . S
C3100 C3101 1.387 . S
C3101 H3086 0.930 . S
C3101 C3096 1.390 . S
C3101 C3100 1.387 . S
H3102 C3114 0.930 . S
H3103 C3116 0.930 . S
H3104 C3117 0.930 . S
H3105 C3121 0.959 . S
H3106 C3121 0.959 1_545 S
H3107 C3121 0.961 . S
H3108 C3122 0.960 . S
H3109 C3122 0.961 . S
H3110 C3122 0.959 . S
H3111 C3125 0.929 . S
H3112 C3126 0.931 . S
H3113 C3128 0.930 . S
C3114 H3102 0.930 . S
C3114 C3115 1.399 . S
C3114 C3119 1.399 . S
C3115 C3114 1.399 . S
C3115 C3116 1.376 . S
C3116 H3103 0.930 . S
C3116 C3115 1.376 . S
C3116 C3117 1.388 . S
C3117 H3104 0.930 . S
C3117 C3116 1.388 . S
C3117 C3118 1.390 . S
C3118 C3117 1.390 . S
C3118 C3119 1.394 . S
C3118 C3124 1.430 1_565 S
C3119 C3114 1.399 . S
C3119 C3118 1.394 . S
C3119 C3120 1.516 . S
C3120 C3119 1.516 . S
C3120 C3121 1.502 . S
C3120 C3122 1.561 . S
C3120 C3123 1.526 1_565 S
C3121 H3105 0.959 . S
C3121 H3106 0.959 1_565 S
C3121 H3107 0.961 . S
C3121 C3120 1.502 . S
C3122 H3108 0.960 . S
C3122 H3109 0.961 . S
C3122 H3110 0.959 . S
C3122 C3120 1.561 . S
C3123 C3120 1.526 1_545 S
C3123 C3124 1.408 . S
C3123 C3128 1.390 . S
C3124 C3118 1.430 1_545 S
C3124 C3123 1.408 . S
C3124 C3125 1.422 . S
C3125 H3111 0.929 . S
C3125 C3124 1.422 . S
C3125 C3126 1.385 . S
C3126 H3112 0.931 . S
C3126 C3125 1.385 . S
C3126 C3127 1.389 . S
C3127 C3126 1.389 . S
C3127 C3128 1.387 . S
C3128 H3113 0.930 . S
C3128 C3123 1.390 . S
C3128 C3127 1.387 . S
H3129 C3141 0.930 . S
H3130 C3143 0.930 . S
H3131 C3144 0.930 . S
H3132 C3148 0.959 . S
H3133 C3148 0.959 . S
H3134 C3148 0.961 . S
H3135 C3149 0.960 . S
H3136 C3149 0.961 . S
H3137 C3149 0.959 . S
H3138 C3152 0.929 . S
H3139 C3153 0.931 . S
H3140 C3155 0.930 . S
C3141 H3129 0.930 . S
C3141 C3142 1.399 . S
C3141 C3146 1.399 . S
C3142 C3141 1.399 . S
C3142 C3143 1.376 . S
C3143 H3130 0.930 . S
C3143 C3142 1.376 . S
C3143 C3144 1.388 . S
C3144 H3131 0.930 . S
C3144 C3143 1.388 . S
C3144 C3145 1.390 . S
C3145 C3144 1.390 . S
C3145 C3146 1.394 . S
C3145 C3151 1.465 . S
C3146 C3141 1.399 . S
C3146 C3145 1.394 . S
C3146 C3147 1.516 . S
C3147 C3146 1.516 . S
C3147 C3148 1.502 . S
C3147 C3149 1.561 . S
C3147 C3150 1.526 . S
C3148 H3132 0.959 . S
C3148 H3133 0.959 . S
C3148 H3134 0.961 . S
C3148 C3147 1.502 . S
C3149 H3135 0.960 . S
C3149 H3136 0.961 . S
C3149 H3137 0.959 . S
C3149 C3147 1.561 . S
C3150 C3147 1.526 . S
C3150 C3151 1.396 . S
C3150 C3155 1.390 . S
C3151 C3145 1.465 . S
C3151 C3150 1.396 . S
C3151 C3152 1.399 . S
C3152 H3138 0.929 . S
C3152 C3151 1.399 . S
C3152 C3153 1.385 . S
C3153 H3139 0.931 . S
C3153 C3152 1.385 . S
C3153 C3154 1.389 . S
C3154 C3153 1.389 . S
C3154 C3155 1.387 . S
C3155 H3140 0.930 . S
C3155 C3150 1.390 . S
C3155 C3154 1.387 . S
H3156 C3168 0.930 . S
H3157 C3170 0.930 . S
H3158 C3171 0.930 . S
H3159 C3175 0.959 . S
H3160 C3175 0.959 . S
H3161 C3175 0.961 . S
H3162 C3176 0.960 . S
H3163 C3176 0.961 . S
H3164 C3176 0.959 . S
H3165 C3179 0.929 . S
H3166 C3180 0.931 . S
H3167 C3182 0.930 . S
C3168 H3156 0.930 . S
C3168 C3169 1.399 . S
C3168 C3173 1.399 . S
C3169 C3168 1.399 . S
C3169 C3170 1.376 . S
C3170 H3157 0.930 . S
C3170 C3169 1.376 . S
C3170 C3171 1.388 . S
C3171 H3158 0.930 . S
C3171 C3170 1.388 . S
C3171 C3172 1.390 . S
C3172 C3171 1.390 . S
C3172 C3173 1.394 . S
C3172 C3178 1.465 . S
C3173 C3168 1.399 . S
C3173 C3172 1.394 . S
C3173 C3174 1.516 . S
C3174 C3173 1.516 . S
C3174 C3175 1.502 . S
C3174 C3176 1.561 . S
C3174 C3177 1.526 . S
C3175 H3159 0.959 . S
C3175 H3160 0.959 . S
C3175 H3161 0.961 . S
C3175 C3174 1.502 . S
C3176 H3162 0.960 . S
C3176 H3163 0.961 . S
C3176 H3164 0.959 . S
C3176 C3174 1.561 . S
C3177 C3174 1.526 . S
C3177 C3178 1.396 . S
C3177 C3182 1.390 . S
C3178 C3172 1.465 . S
C3178 C3177 1.396 . S
C3178 C3179 1.399 . S
C3179 H3165 0.929 . S
C3179 C3178 1.399 . S
C3179 C3180 1.385 . S
C3180 H3166 0.931 . S
C3180 C3179 1.385 . S
C3180 C3181 1.389 . S
C3181 C3180 1.389 . S
C3181 C3182 1.387 . S
C3182 H3167 0.930 . S
C3182 C3177 1.390 . S
C3182 C3181 1.387 . S
H3183 C3195 0.930 . S
H3184 C3197 0.930 . S
H3185 C3198 0.930 . S
H3186 C3202 0.959 . S
H3187 C3202 0.959 . S
H3188 C3202 0.961 . S
H3189 C3203 0.960 . S
H3190 C3203 0.961 . S
H3191 C3203 0.959 . S
H3192 C3206 0.929 . S
H3193 C3207 0.931 . S
H3194 C3209 0.930 . S
C3195 H3183 0.930 . S
C3195 C3196 1.399 . S
C3195 C3200 1.399 . S
C3196 C3195 1.399 . S
C3196 C3197 1.376 . S
C3197 H3184 0.930 . S
C3197 C3196 1.376 . S
C3197 C3198 1.388 . S
C3198 H3185 0.930 . S
C3198 C3197 1.388 . S
C3198 C3199 1.390 . S
C3199 C3198 1.390 . S
C3199 C3200 1.394 . S
C3199 C3205 1.465 . S
C3200 C3195 1.399 . S
C3200 C3199 1.394 . S
C3200 C3201 1.516 . S
C3201 C3200 1.516 . S
C3201 C3202 1.502 . S
C3201 C3203 1.561 . S
C3201 C3204 1.526 . S
C3202 H3186 0.959 . S
C3202 H3187 0.959 . S
C3202 H3188 0.961 . S
C3202 C3201 1.502 . S
C3203 H3189 0.960 . S
C3203 H3190 0.961 . S
C3203 H3191 0.959 . S
C3203 C3201 1.561 . S
C3204 C3201 1.526 . S
C3204 C3205 1.396 . S
C3204 C3209 1.390 . S
C3205 C3199 1.465 . S
C3205 C3204 1.396 . S
C3205 C3206 1.399 . S
C3206 H3192 0.929 . S
C3206 C3205 1.399 . S
C3206 C3207 1.385 . S
C3207 H3193 0.931 . S
C3207 C3206 1.385 . S
C3207 C3208 1.389 . S
C3208 C3207 1.389 . S
C3208 C3209 1.387 . S
C3209 H3194 0.930 . S
C3209 C3204 1.390 . S
C3209 C3208 1.387 . S
H3210 C3222 0.930 . S
H3211 C3224 0.930 . S
H3212 C3225 0.930 1_545 S
H3213 C3229 0.959 . S
H3214 C3229 0.959 . S
H3215 C3229 0.961 1_565 S
H3216 C3230 0.960 1_565 S
H3217 C3230 0.961 . S
H3218 C3230 0.959 . S
H3219 C3233 0.929 . S
H3220 C3234 0.931 . S
H3221 C3236 0.930 . S
C3222 H3210 0.930 . S
C3222 C3223 1.399 . S
C3222 C3227 1.399 . S
C3223 C3222 1.399 . S
C3223 C3224 1.376 . S
C3224 H3211 0.930 . S
C3224 C3223 1.376 . S
C3224 C3225 1.388 . S
C3225 H3212 0.930 1_565 S
C3225 C3224 1.388 . S
C3225 C3226 1.390 1_565 S
C3226 C3225 1.390 1_545 S
C3226 C3227 1.394 1_545 S
C3226 C3232 1.465 . S
C3227 C3222 1.399 . S
C3227 C3226 1.394 1_565 S
C3227 C3228 1.516 1_565 S
C3228 C3227 1.516 1_545 S
C3228 C3229 1.502 . S
C3228 C3230 1.561 . S
C3228 C3231 1.526 . S
C3229 H3213 0.959 . S
C3229 H3214 0.959 . S
C3229 H3215 0.961 1_545 S
C3229 C3228 1.502 . S
C3230 H3216 0.960 1_545 S
C3230 H3217 0.961 . S
C3230 H3218 0.959 . S
C3230 C3228 1.561 . S
C3231 C3228 1.526 . S
C3231 C3232 1.396 . S
C3231 C3236 1.390 . S
C3232 C3226 1.465 . S
C3232 C3231 1.396 . S
C3232 C3233 1.399 . S
C3233 H3219 0.929 . S
C3233 C3232 1.399 . S
C3233 C3234 1.385 . S
C3234 H3220 0.931 . S
C3234 C3233 1.385 . S
C3234 C3235 1.389 . S
C3235 C3234 1.389 . S
C3235 C3236 1.387 . S
C3236 H3221 0.930 . S
C3236 C3231 1.390 . S
C3236 C3235 1.387 . S
H3237 C3249 0.930 . S
H3238 C3251 0.930 . S
H3239 C3252 0.930 . S
H3240 C3256 0.959 . S
H3241 C3256 0.959 . S
H3242 C3256 0.961 . S
H3243 C3257 0.960 . S
H3244 C3257 0.961 . S
H3245 C3257 0.959 . S
H3246 C3260 0.929 . S
H3247 C3261 0.931 . S
H3248 C3263 0.930 . S
C3249 H3237 0.930 . S
C3249 C3250 1.399 . S
C3249 C3254 1.399 . S
C3250 C3249 1.399 . S
C3250 C3251 1.376 . S
C3251 H3238 0.930 . S
C3251 C3250 1.376 . S
C3251 C3252 1.388 . S
C3252 H3239 0.930 . S
C3252 C3251 1.388 . S
C3252 C3253 1.390 . S
C3253 C3252 1.390 . S
C3253 C3254 1.394 . S
C3253 C3259 1.465 . S
C3254 C3249 1.399 . S
C3254 C3253 1.394 . S
C3254 C3255 1.516 . S
C3255 C3254 1.516 . S
C3255 C3256 1.502 . S
C3255 C3257 1.561 . S
C3255 C3258 1.526 1_565 S
C3256 H3240 0.959 . S
C3256 H3241 0.959 . S
C3256 H3242 0.961 . S
C3256 C3255 1.502 . S
C3257 H3243 0.960 . S
C3257 H3244 0.961 . S
C3257 H3245 0.959 . S
C3257 C3255 1.561 . S
C3258 C3255 1.526 1_545 S
C3258 C3259 1.396 1_545 S
C3258 C3263 1.390 . S
C3259 C3253 1.465 . S
C3259 C3258 1.396 1_565 S
C3259 C3260 1.399 1_565 S
C3260 H3246 0.929 . S
C3260 C3259 1.399 1_545 S
C3260 C3261 1.385 . S
C3261 H3247 0.931 . S
C3261 C3260 1.385 . S
C3261 C3262 1.389 . S
C3262 C3261 1.389 . S
C3262 C3263 1.387 . S
C3263 H3248 0.930 . S
C3263 C3258 1.390 . S
C3263 C3262 1.387 . S
C685 C599 1.256 . S
C697 C8 1.233 . S
C712 C21 1.315 . S
C724 C218 1.300 . S
C739 C36 1.244 . S
C751 C571 1.214 . S
C766 C49 1.267 . S
C778 C246 1.210 . S
C793 C624 0.995 . S
C805 C67 1.110 . S
C820 C77 1.276 . S
C832 C305 1.269 . S
C847 C95 1.152 . S
C859 C652 1.108 . S
C874 C105 1.284 . S
C886 C277 1.266 . S
C901 C55 1.215 . S
C913 C669 1.341 . S
C928 C11 0.995 . S
C940 C358 0.942 . S
C955 C372 1.375 . S
C967 C27 1.386 . S
C982 C39 1.136 . S
C994 C344 1.103 . S
C1009 C83 1.258 . S
C1021 C347 1.207 . S
C1036 C92 1.239 . S
C1048 C666 1.202 . S
C1063 C111 1.125 . S
C1075 C361 1.078 . S
C1090 C64 1.235 . S
C1102 C375 1.205 . S
C1117 C557 1.182 . S
C1129 C119 1.170 . S
C1144 C133 1.428 . S
C1156 C274 1.415 . S
C1171 C125 1.132 . S
C1183 C627 1.064 . S
C1198 C302 1.353 . S
C1210 C147 1.450 . S
C1225 C319 1.111 . S
C1237 C167 1.124 . S
C1252 C585 1.162 . S
C1264 C175 1.163 . S
C1279 C596 1.382 . S
C1291 C195 1.384 . S
C1306 C568 1.400 . S
C1318 C209 1.418 . S
C1333 C470 1.194 . S
C1345 C217 1.220 . S
C1360 C237 1.197 . S
C1372 C7 1.286 . S
C1387 C245 1.280 . S
C1399 C442 1.188 . S
C1414 C35 1.229 . S
C1426 C265 1.239 . S
C1441 C279 1.265 . S
C1453 C498 1.144 . S
C1468 C97 1.241 . S
C1480 C287 1.233 . S
C1495 C307 1.219 . S
C1507 C526 1.302 . S
C1522 C69 1.210 . S
C1534 C315 1.181 . S
C1549 C543 1.323 . S
C1561 C259 1.309 . S
C1576 C223 1.242 . S
C1588 C148 1.132 . S
C1603 C165 1.261 . S
C1615 C231 1.324 . S
C1630 C134 1.222 . S
C1642 C251 1.140 . S
C1657 C137 1.187 . S
C1669 C293 1.217 . S
C1684 C301 1.292 . S
C1696 C540 1.271 . S
C1711 C151 1.239 . S
C1723 C321 1.103 . S
C1738 C273 1.322 . S
C1750 C162 1.198 . S
C1765 C329 1.296 . S
C1777 C433 1.235 . S
C1792 C343 1.293 . S
C1804 C63 1.296 . S
C1819 C335 1.227 . S
C1831 C501 1.284 . S
C1846 C357 1.220 . S
C1858 C91 1.235 . S
C1873 C371 1.323 . S
C1885 C109 1.324 . S
C1900 C461 1.092 . S
C1912 C391 1.063 . S
C1927 C405 1.159 . S
C1939 C473 1.226 . S
C1954 C413 1.200 . S
C1966 C445 1.196 . S
C1981 C428 1.215 . S
C1993 C263 1.187 . S
C2008 C441 1.316 . S
C2020 C554 1.237 . S
C2035 C235 1.230 . S
C2047 C456 1.200 . S
C2062 C469 1.281 . S
C2074 C582 1.270 . S
C2089 C487 1.123 . S
C2101 C288 1.077 . S
C2116 C641 1.244 . S
C2128 C497 1.306 . S
C2143 C515 1.156 . S
C2155 C316 1.072 . S
C2170 C613 1.289 . S
C2182 C525 1.342 . S
C2197 C333 1.320 . S
C2209 C475 1.303 . S
C2224 C417 0.957 . S
C2236 C431 0.913 . S
C2251 C447 1.309 . S
C2263 C386 1.211 . S
C2278 C400 1.004 . S
C2290 C459 1.134 . S
C2305 C503 1.132 . S
C2317 C403 1.268 . S
C2332 C330 1.279 . S
C2344 C512 1.378 . S
C2359 C531 1.235 . S
C2371 C414 1.132 . S
C2386 C484 1.223 . S
C2398 C389 1.187 . S
C2413 C539 1.165 . S
C2425 C221 1.163 . S
C2440 C189 1.422 . S
C2452 C610 1.402 . S
C2467 C291 1.113 . S
C2479 C545 1.065 . S
C2494 C638 1.396 . S
C2506 C203 1.433 . S
C2521 C655 1.075 . S
C2533 C181 1.136 . S
C2548 C161 1.189 . S
C2560 C249 1.145 . S
C2575 C139 1.426 . S
C2587 C260 1.332 . S
C2602 C232 1.395 . S
C2614 C153 1.395 . S
C2629 C553 1.227 . S
C2641 C50 1.107 . S
C2656 C427 1.225 . S
C2668 C573 1.087 . S
C2683 C581 1.249 . S
C2695 C22 1.139 . S
C2710 C601 1.141 . S
C2722 C455 1.271 . S
C2737 C78 1.225 . S
C2749 C615 1.183 . S
C2764 C623 1.206 . S
C2776 C517 1.172 . S
C2791 C643 1.253 . S
C2803 C106 1.147 . S
C2818 C489 1.212 . S
C2830 C651 1.171 . S
C2845 C595 1.328 . S
C2857 C123 1.296 . S
C2872 C204 1.244 . S
C2884 C559 1.205 . S
C2899 C179 1.237 . S
C2911 C567 1.305 . S
C2926 C587 1.206 . S
C2938 C190 1.111 . S
C2953 C629 1.160 . S
C2965 C193 1.194 . S
C2980 C120 1.173 . S
C2992 C637 1.281 . S
C3007 C207 1.270 . S
C3019 C657 1.136 . S
C3034 C609 1.304 . S
C3046 C176 1.296 . S
C3061 C13 1.212 . S
C3073 C665 1.232 . S
C3088 C399 1.285 . S
C3100 C483 1.285 . S
C3115 C81 1.295 . S
C3127 C671 1.169 . S
C3142 C511 1.189 . S
C3154 C419 1.102 . S
C3169 C529 1.238 . S
C3181 C385 1.299 . S
C3196 C377 1.102 . S
C3208 C41 1.103 . S
C3223 C349 1.111 . S
C3235 C53 1.239 . S
C3250 C25 1.106 . S
C3262 C363 1.162 . S
