# Generated by pormake.
# Topology crs, (6)-cn, num edge types: 1
# Building blocks:
#     Node 0, Type 0, BuildingBlock: BETDAH_clean_sbu_0, # of connection points: 6
#     Node 1, Type 0, BuildingBlock: BETDAH_clean_sbu_0, # of connection points: 6
#     Node 2, Type 0, BuildingBlock: BETDAH_clean_sbu_0, # of connection points: 6
#     Node 3, Type 0, BuildingBlock: BETDAH_clean_sbu_0, # of connection points: 6
#     Node 4, Type 0, BuildingBlock: BETDAH_clean_sbu_0, # of connection points: 6
#     Node 5, Type 0, BuildingBlock: BETDAH_clean_sbu_0, # of connection points: 6
#     Node 6, Type 0, BuildingBlock: BETDAH_clean_sbu_0, # of connection points: 6
#     Node 7, Type 0, BuildingBlock: BETDAH_clean_sbu_0, # of connection points: 6
#     Node 8, Type 0, BuildingBlock: BETDAH_clean_sbu_0, # of connection points: 6
#     Node 9, Type 0, BuildingBlock: BETDAH_clean_sbu_0, # of connection points: 6
#     Node 10, Type 0, BuildingBlock: BETDAH_clean_sbu_0, # of connection points: 6
#     Node 11, Type 0, BuildingBlock: BETDAH_clean_sbu_0, # of connection points: 6
#     Node 12, Type 0, BuildingBlock: BETDAH_clean_sbu_0, # of connection points: 6
#     Node 13, Type 0, BuildingBlock: BETDAH_clean_sbu_0, # of connection points: 6
#     Node 14, Type 0, BuildingBlock: BETDAH_clean_sbu_0, # of connection points: 6
#     Node 15, Type 0, BuildingBlock: BETDAH_clean_sbu_0, # of connection points: 6
#     Edge 16, Type (0, 0), BuildingBlock: OJICUG_clean_linker_0, # of connection points: 2
#     Edge 17, Type (0, 0), BuildingBlock: OJICUG_clean_linker_0, # of connection points: 2
#     Edge 18, Type (0, 0), BuildingBlock: OJICUG_clean_linker_0, # of connection points: 2
#     Edge 19, Type (0, 0), BuildingBlock: OJICUG_clean_linker_0, # of connection points: 2
#     Edge 20, Type (0, 0), BuildingBlock: OJICUG_clean_linker_0, # of connection points: 2
#     Edge 21, Type (0, 0), BuildingBlock: OJICUG_clean_linker_0, # of connection points: 2
#     Edge 22, Type (0, 0), BuildingBlock: OJICUG_clean_linker_0, # of connection points: 2
#     Edge 23, Type (0, 0), BuildingBlock: OJICUG_clean_linker_0, # of connection points: 2
#     Edge 24, Type (0, 0), BuildingBlock: OJICUG_clean_linker_0, # of connection points: 2
#     Edge 25, Type (0, 0), BuildingBlock: OJICUG_clean_linker_0, # of connection points: 2
#     Edge 26, Type (0, 0), BuildingBlock: OJICUG_clean_linker_0, # of connection points: 2
#     Edge 27, Type (0, 0), BuildingBlock: OJICUG_clean_linker_0, # of connection points: 2
#     Edge 28, Type (0, 0), BuildingBlock: OJICUG_clean_linker_0, # of connection points: 2
#     Edge 29, Type (0, 0), BuildingBlock: OJICUG_clean_linker_0, # of connection points: 2
#     Edge 30, Type (0, 0), BuildingBlock: OJICUG_clean_linker_0, # of connection points: 2
#     Edge 31, Type (0, 0), BuildingBlock: OJICUG_clean_linker_0, # of connection points: 2
#     Edge 32, Type (0, 0), BuildingBlock: OJICUG_clean_linker_0, # of connection points: 2
#     Edge 33, Type (0, 0), BuildingBlock: OJICUG_clean_linker_0, # of connection points: 2
#     Edge 34, Type (0, 0), BuildingBlock: OJICUG_clean_linker_0, # of connection points: 2
#     Edge 35, Type (0, 0), BuildingBlock: OJICUG_clean_linker_0, # of connection points: 2
#     Edge 36, Type (0, 0), BuildingBlock: OJICUG_clean_linker_0, # of connection points: 2
#     Edge 37, Type (0, 0), BuildingBlock: OJICUG_clean_linker_0, # of connection points: 2
#     Edge 38, Type (0, 0), BuildingBlock: OJICUG_clean_linker_0, # of connection points: 2
#     Edge 39, Type (0, 0), BuildingBlock: OJICUG_clean_linker_0, # of connection points: 2
#     Edge 40, Type (0, 0), BuildingBlock: OJICUG_clean_linker_0, # of connection points: 2
#     Edge 41, Type (0, 0), BuildingBlock: OJICUG_clean_linker_0, # of connection points: 2
#     Edge 42, Type (0, 0), BuildingBlock: OJICUG_clean_linker_0, # of connection points: 2
#     Edge 43, Type (0, 0), BuildingBlock: OJICUG_clean_linker_0, # of connection points: 2
#     Edge 44, Type (0, 0), BuildingBlock: OJICUG_clean_linker_0, # of connection points: 2
#     Edge 45, Type (0, 0), BuildingBlock: OJICUG_clean_linker_0, # of connection points: 2
#     Edge 46, Type (0, 0), BuildingBlock: OJICUG_clean_linker_0, # of connection points: 2
#     Edge 47, Type (0, 0), BuildingBlock: OJICUG_clean_linker_0, # of connection points: 2
#     Edge 48, Type (0, 0), BuildingBlock: OJICUG_clean_linker_0, # of connection points: 2
#     Edge 49, Type (0, 0), BuildingBlock: OJICUG_clean_linker_0, # of connection points: 2
#     Edge 50, Type (0, 0), BuildingBlock: OJICUG_clean_linker_0, # of connection points: 2
#     Edge 51, Type (0, 0), BuildingBlock: OJICUG_clean_linker_0, # of connection points: 2
#     Edge 52, Type (0, 0), BuildingBlock: OJICUG_clean_linker_0, # of connection points: 2
#     Edge 53, Type (0, 0), BuildingBlock: OJICUG_clean_linker_0, # of connection points: 2
#     Edge 54, Type (0, 0), BuildingBlock: OJICUG_clean_linker_0, # of connection points: 2
#     Edge 55, Type (0, 0), BuildingBlock: OJICUG_clean_linker_0, # of connection points: 2
#     Edge 56, Type (0, 0), BuildingBlock: OJICUG_clean_linker_0, # of connection points: 2
#     Edge 57, Type (0, 0), BuildingBlock: OJICUG_clean_linker_0, # of connection points: 2
#     Edge 58, Type (0, 0), BuildingBlock: OJICUG_clean_linker_0, # of connection points: 2
#     Edge 59, Type (0, 0), BuildingBlock: OJICUG_clean_linker_0, # of connection points: 2
#     Edge 60, Type (0, 0), BuildingBlock: OJICUG_clean_linker_0, # of connection points: 2
#     Edge 61, Type (0, 0), BuildingBlock: OJICUG_clean_linker_0, # of connection points: 2
#     Edge 62, Type (0, 0), BuildingBlock: OJICUG_clean_linker_0, # of connection points: 2
#     Edge 63, Type (0, 0), BuildingBlock: OJICUG_clean_linker_0, # of connection points: 2
# Relax obj value: 0.571
# Max RMSD: 0.392
# Mean RMSD: 0.326
data_MOF--net-crs--node1-BETDAH_clean_sbu_0--edge1-OJICUG_clean_linker_0
_symmetry_space_group_name_H-M    P1
_symmetry_Int_Tables_number       1
_symmetry_cell_setting            triclinic
loop_
_symmetry_equiv_pos_as_xyz
'x, y, z'
_cell_length_a     43.225853
_cell_length_b     44.144121
_cell_length_c     33.722206
_cell_angle_alpha  66.984599
_cell_angle_beta   69.875551
_cell_angle_gamma 56.143588
loop_
_atom_site_label
_atom_site_type_symbol
_atom_site_fract_x
_atom_site_fract_y
_atom_site_fract_z
_atom_type_partial_charge
Ho0 Ho 0.93409 0.04418 0.05996 0.0
Ho1 Ho 0.0175 1.01739 1.01431 0.0
C2 C -0.01445 0.9628 0.03496 0.0
C3 C 0.86352 0.0633 0.08207 0.0
C4 C 0.8408 0.05122 0.07535 0.0
C5 C 0.8562 1.02836 0.04674 0.0
C6 C 0.83694 1.01207 0.0452 0.0
C7 C 0.80199 1.01851 0.07222 0.0
C8 C 0.78575 0.04306 0.09919 0.0
C9 C 0.80515 0.05926 0.1008 0.0
C10 C -0.01662 1.01948 0.11223 0.0
C11 C 0.96629 0.09917 0.03844 0.0
C12 C 0.08722 1.00085 0.99191 0.0
C13 C 0.10549 1.02103 0.99065 0.0
C14 C 0.13869 1.00162 1.00831 0.0
C15 C 0.1555 1.02124 1.00775 0.0
C16 C 0.13931 0.06035 0.98921 0.0
C17 C 0.10562 0.07973 0.97262 0.0
C18 C 0.08879 0.06031 0.97346 0.0
C19 C 0.96818 0.04231 0.96199 0.0
O20 O 0.95157 0.99122 0.04362 0.0
O21 O 0.01681 0.96368 1.02987 0.0
O22 O 0.88862 0.03728 0.10752 0.0
O23 O 0.87697 0.08186 0.04685 0.0
O24 O 0.94798 0.04453 0.1179 0.0
O25 O -0.0104 1.00582 0.08179 0.0
O26 O 0.00013 0.07155 1.02759 0.0
O27 O 0.93508 0.09747 0.04622 0.0
O28 O 0.06421 1.01785 0.96377 0.0
O29 O 0.0735 0.98651 1.03089 0.0
O30 O 0.0035 1.01694 0.95658 0.0
O31 O 0.96197 0.05593 0.99249 0.0
H32 H 0.88383 1.02171 1.02705 0.0
H33 H 0.85047 0.99266 1.02491 0.0
H34 H 0.7587 0.04864 0.12012 0.0
H35 H 0.79301 0.07683 0.12311 0.0
H36 H 0.15159 0.9714 1.02236 0.0
H37 H 0.18148 1.00583 1.02083 0.0
H38 H 0.09224 0.11002 0.95897 0.0
H39 H 0.06264 0.07618 0.96059 0.0
Ho40 Ho -0.01931 0.3087 0.3046 0.0
Ho41 Ho 0.97118 0.2613 0.25912 0.0
C42 C 0.93003 0.26752 0.35886 0.0
C43 C 0.96894 0.36228 0.33147 0.0
C44 C 0.97141 0.36983 0.36886 0.0
C45 C 0.94233 0.40295 0.38135 0.0
C46 C 0.94447 0.41246 0.41485 0.0
C47 C 0.97591 0.38908 0.43662 0.0
C48 C 0.00468 0.35536 0.42471 0.0
C49 C 0.00241 0.34575 0.39117 0.0
C50 C 0.03571 0.23355 0.31907 0.0
C51 C 0.0216 0.30279 0.20477 0.0
C52 C -0.01766 0.20816 0.23195 0.0
C53 C -0.021 0.20105 0.19472 0.0
C54 C 0.00906 0.16966 0.1795 0.0
C55 C 0.00601 0.1599 0.14687 0.0
C56 C 0.97273 0.18126 0.12862 0.0
C57 C 0.94298 0.21351 0.143 0.0
C58 C 0.9461 0.22336 0.17573 0.0
C59 C 0.91618 0.33639 0.24485 0.0
O60 O 0.93803 0.29373 0.35453 0.0
O61 O 0.94466 0.24752 0.32975 0.0
O62 O 0.00058 0.343 0.30771 0.0
O63 O 0.94319 0.35319 0.33789 0.0
O64 O 0.03245 0.25812 0.33462 0.0
O65 O 0.00782 0.25083 0.29965 0.0
O66 O 0.01369 0.27652 0.2091 0.0
O67 O 0.0071 0.32263 0.23402 0.0
O68 O 0.95113 0.22695 0.25658 0.0
O69 O 0.00822 0.21721 0.22511 0.0
O70 O 0.91936 0.31193 0.22917 0.0
O71 O 0.94406 0.31901 0.26425 0.0
H72 H 0.9182 0.42197 0.36447 0.0
H73 H 0.92204 0.43891 0.42253 0.0
H74 H 0.02909 0.33656 0.44106 0.0
H75 H 0.02509 0.31988 0.38228 0.0
H76 H 0.03465 0.15195 0.19377 0.0
H77 H 0.02928 0.13463 0.1373 0.0
H78 H 0.91711 0.23085 0.12938 0.0
H79 H 0.92256 0.2479 0.18673 0.0
Ho80 Ho 0.72619 0.26436 0.50431 0.0
Ho81 Ho 0.72887 0.29795 0.56191 0.0
C82 C 0.65352 0.29719 0.57644 0.0
C83 C 0.72274 0.22541 0.46709 0.0
C84 C 0.71536 0.19406 0.47947 0.0
C85 C 0.68448 0.19291 0.51093 0.0
C86 C 0.67808 0.1628 0.52099 0.0
C87 C 0.70266 0.13337 0.49999 0.0
C88 C 0.73428 0.13411 0.46977 0.0
C89 C 0.74041 0.16431 0.45945 0.0
C90 C 0.71724 0.33488 0.4635 0.0
C91 C 0.8012 0.26597 0.48889 0.0
C92 C 0.73252 0.33639 0.59971 0.0
C93 C 0.73985 0.36769 0.58793 0.0
C94 C 0.77026 0.36947 0.556 0.0
C95 C 0.77671 0.39942 0.54669 0.0
C96 C 0.75266 0.42805 0.56895 0.0
C97 C 0.72145 0.42673 0.59961 0.0
C98 C 0.71526 0.3967 0.60916 0.0
C99 C 0.73751 0.22751 0.6027 0.0
O100 O 0.67414 0.27042 0.55533 0.0
O101 O 0.66696 0.31756 0.57656 0.0
O102 O 0.69435 0.25786 0.47381 0.0
O103 O 0.75368 0.2166 0.47751 0.0
O104 O 0.73249 0.30826 0.44452 0.0
O105 O 0.70338 0.32447 0.50257 0.0
O106 O 0.78064 0.29239 0.51051 0.0
O107 O 0.78795 0.24546 0.48873 0.0
O108 O 0.76092 0.30412 0.59248 0.0
O109 O 0.70151 0.34536 0.5893 0.0
O110 O 0.72202 0.25424 0.62156 0.0
O111 O 0.75169 0.23781 0.56376 0.0
H112 H 0.66507 0.21541 0.52722 0.0
H113 H 0.65327 0.16322 0.54412 0.0
H114 H 0.75411 0.11154 0.45367 0.0
H115 H 0.76467 0.16456 0.43552 0.0
H116 H 0.78927 0.34755 0.53879 0.0
H117 H 0.80119 0.39948 0.52316 0.0
H118 H 0.70201 0.44871 0.61665 0.0
H119 H 0.69135 0.39596 0.63346 0.0
Ho120 Ho 0.70131 0.03502 0.75301 0.0
Ho121 Ho 0.75163 1.02919 0.81287 0.0
C122 C 0.74116 0.08826 0.71678 0.0
C123 C 0.64485 0.05555 0.7195 0.0
C124 C 0.62407 0.04211 0.70993 0.0
C125 C 0.63943 1.0222 0.67788 0.0
C126 C 0.61684 1.01529 0.66478 0.0
C127 C 0.57845 1.02815 0.68348 0.0
C128 C 0.56397 0.04607 0.71735 0.0
C129 C 0.58636 0.05321 0.73008 0.0
C130 C 0.77441 0.9756 0.74711 0.0
C131 C 0.71314 0.97485 0.84788 0.0
C132 C 0.80574 1.00786 0.85092 0.0
C133 C 0.82149 1.02014 0.87034 0.0
C134 C 0.83721 0.99588 0.90833 0.0
C135 C 0.85653 1.00374 0.9252 0.0
C136 C 0.8605 0.03611 0.90457 0.0
C137 C 0.84303 0.06161 0.86785 0.0
C138 C 0.82371 0.05362 0.85068 0.0
C139 C 0.67843 0.08794 0.81969 0.0
O140 O 0.71554 0.08188 0.71355 0.0
O141 O 0.76101 0.06901 0.74939 0.0
O142 O 0.64228 0.05268 0.76061 0.0
O143 O 0.67834 0.04935 0.69645 0.0
O144 O 0.74888 0.984 0.72667 0.0
O145 O 0.75875 1.00016 0.7682 0.0
O146 O 0.73942 0.98088 0.8498 0.0
O147 O 0.69231 0.99472 0.81624 0.0
O148 O 0.80794 1.01838 0.80825 0.0
O149 O 0.77414 1.00756 0.87219 0.0
O150 O 0.70373 0.07926 0.84061 0.0
O151 O 0.69433 0.06387 0.79789 0.0
H152 H 0.66846 1.01321 0.66171 0.0
H153 H 0.62903 1.00147 0.6386 0.0
H154 H 0.53487 0.05558 0.7334 0.0
H155 H 0.57367 0.06867 0.75479 0.0
H156 H 0.8358 0.96996 0.92411 0.0
H157 H 0.8697 0.98371 0.95352 0.0
H158 H 0.846 0.08661 0.85117 0.0
H159 H 0.81169 0.07284 0.82137 0.0
Ho160 Ho 0.48122 0.80798 0.30515 0.0
Ho161 Ho 0.47044 0.76056 0.26114 0.0
C162 C 0.42953 0.76819 0.36058 0.0
C163 C 0.47075 0.86161 0.33076 0.0
C164 C 0.47239 0.86935 0.36853 0.0
C165 C 0.44341 0.90291 0.38007 0.0
C166 C 0.44478 0.9125 0.41402 0.0
C167 C 0.47536 0.88876 0.43718 0.0
C168 C 0.50399 0.85458 0.42624 0.0
C169 C 0.50248 0.84489 0.39226 0.0
C170 C 0.53536 0.73252 0.32061 0.0
C171 C 0.52192 0.80064 0.20564 0.0
C172 C 0.47966 0.70739 0.23579 0.0
C173 C 0.47407 0.70057 0.1998 0.0
C174 C 0.45063 0.68514 0.20927 0.0
C175 C 0.44779 0.67459 0.17717 0.0
C176 C 0.46854 0.67903 0.13482 0.0
C177 C 0.49144 0.69522 0.12502 0.0
C178 C 0.49414 0.70596 0.15715 0.0
C179 C 0.41627 0.83597 0.24584 0.0
O180 O 0.43815 0.79406 0.35574 0.0
O181 O 0.44384 0.74784 0.33193 0.0
O182 O 0.5027 0.84077 0.30871 0.0
O183 O 0.44407 0.85416 0.33586 0.0
O184 O 0.53255 0.75709 0.33573 0.0
O185 O 0.50751 0.74999 0.30109 0.0
O186 O 0.51368 0.7744 0.21076 0.0
O187 O 0.5077 0.82092 0.23434 0.0
O188 O 0.44935 0.72595 0.26151 0.0
O189 O 0.5059 0.71636 0.22741 0.0
O190 O 0.419 0.81149 0.23064 0.0
O191 O 0.4441 0.8184 0.26539 0.0
H192 H 0.41996 0.92219 0.36215 0.0
H193 H 0.42247 0.93928 0.42096 0.0
H194 H 0.52772 0.83547 0.44368 0.0
H195 H 0.52504 0.81865 0.38415 0.0
H196 H 0.4353 0.68016 0.24199 0.0
H197 H 0.4305 0.66151 0.18611 0.0
H198 H 0.50767 0.69912 0.09266 0.0
H199 H 0.51261 0.71764 0.14881 0.0
Ho200 Ho 0.22346 0.76933 0.50382 0.0
Ho201 Ho 0.22642 0.80256 0.56142 0.0
C202 C 0.15123 0.80138 0.57679 0.0
C203 C 0.2195 0.73114 0.46598 0.0
C204 C 0.21234 0.69973 0.4778 0.0
C205 C 0.18206 0.69778 0.50985 0.0
C206 C 0.17578 0.6677 0.51923 0.0
C207 C 0.19989 0.63912 0.49693 0.0
C208 C 0.23098 0.6406 0.46614 0.0
C209 C 0.23698 0.67076 0.45651 0.0
C210 C 0.21481 0.83973 0.46296 0.0
C211 C 0.29889 0.76989 0.48906 0.0
C212 C 0.23021 0.84108 0.59895 0.0
C213 C 0.23744 0.87252 0.58666 0.0
C214 C 0.26814 0.87392 0.55503 0.0
C215 C 0.27437 0.90412 0.54502 0.0
C216 C 0.24981 0.93342 0.56623 0.0
C217 C 0.21836 0.93243 0.59664 0.0
C218 C 0.2124 0.90213 0.60692 0.0
C219 C 0.23523 0.73201 0.60205 0.0
O220 O 0.17175 0.77489 0.55527 0.0
O221 O 0.16457 0.82183 0.57685 0.0
O222 O 0.19108 0.76325 0.47364 0.0
O223 O 0.25066 0.72224 0.47594 0.0
O224 O 0.23018 0.81302 0.44412 0.0
O225 O 0.20081 0.82945 0.50202 0.0
O226 O 0.27834 0.79665 0.5102 0.0
O227 O 0.28539 0.74955 0.48904 0.0
O228 O 0.2586 0.80881 0.5917 0.0
O229 O 0.19911 0.84988 0.58892 0.0
O230 O 0.21989 0.75862 0.62106 0.0
O231 O 0.24922 0.74245 0.56308 0.0
H232 H 0.163 0.71967 0.5271 0.0
H233 H 0.15139 0.66752 0.54286 0.0
H234 H 0.25046 0.61866 0.44905 0.0
H235 H 0.2608 0.67163 0.43211 0.0
H236 H 0.28753 0.85154 0.53855 0.0
H237 H 0.29906 0.90388 0.52175 0.0
H238 H 0.19854 0.95488 0.6129 0.0
H239 H 0.18826 0.90169 0.63099 0.0
Ho240 Ho 0.20239 0.53692 0.75139 0.0
Ho241 Ho 0.25408 0.53091 0.80987 0.0
C242 C 0.24106 0.59139 0.71475 0.0
C243 C 0.14564 0.55713 0.71862 0.0
C244 C 0.12527 0.54357 0.70844 0.0
C245 C 0.14045 0.52514 0.67494 0.0
C246 C 0.11813 0.51807 0.66158 0.0
C247 C 0.08014 0.52938 0.68137 0.0
C248 C 0.06585 0.54595 0.71643 0.0
C249 C 0.08798 0.55318 0.7295 0.0
C250 C 0.27531 0.4773 0.74506 0.0
C251 C 0.21434 0.47764 0.84729 0.0
C252 C 0.31066 0.51014 0.84325 0.0
C253 C 0.3305 0.52331 0.85508 0.0
C254 C 0.31584 0.53855 0.89135 0.0
C255 C 0.33791 0.54508 0.90589 0.0
C256 C 0.37515 0.5362 0.88469 0.0
C257 C 0.38897 0.52264 0.84727 0.0
C258 C 0.36702 0.51614 0.83282 0.0
C259 C 0.18095 0.58971 0.8174 0.0
O260 O 0.21587 0.58433 0.71169 0.0
O261 O 0.26127 0.5723 0.74698 0.0
O262 O 0.14358 0.55327 0.75993 0.0
O263 O 0.17872 0.55205 0.6951 0.0
O264 O 0.24956 0.48581 0.72493 0.0
O265 O 0.25993 0.50193 0.76596 0.0
O266 O 0.2408 0.48358 0.84891 0.0
O267 O 0.1936 0.49716 0.81551 0.0
O268 O 0.31264 0.5153 0.80153 0.0
O269 O 0.2778 0.51428 0.86663 0.0
O270 O 0.20662 0.58105 0.83777 0.0
O271 O 0.19652 0.56569 0.79557 0.0
H272 H 0.16911 0.51741 0.65794 0.0
H273 H 0.13014 0.50537 0.63444 0.0
H274 H 0.03707 0.55428 0.73324 0.0
H275 H 0.0754 0.56756 0.75526 0.0
H276 H 0.28788 0.54415 0.90948 0.0
H277 H 0.32644 0.5554 0.93488 0.0
H278 H 0.41729 0.51607 0.8297 0.0
H279 H 0.37924 0.50411 0.80504 0.0
Ho280 Ho 0.93325 0.55049 0.55161 0.0
Ho281 Ho 0.01917 0.51697 0.51464 0.0
C282 C -0.0177 0.46699 0.53228 0.0
C283 C 0.86177 0.57442 0.56581 0.0
C284 C 0.83945 0.56338 0.55625 0.0
C285 C 0.85657 0.53878 0.52933 0.0
C286 C 0.83754 0.52305 0.52593 0.0
C287 C 0.80109 0.53157 0.54968 0.0
C288 C 0.78313 0.55808 0.57452 0.0
C289 C 0.80229 0.57382 0.57787 0.0
C290 C -0.02235 0.5258 0.60997 0.0
C291 C 0.97015 0.60044 0.53405 0.0
C292 C 0.09067 0.49297 0.50029 0.0
C293 C 0.11309 0.50387 0.50986 0.0
C294 C 0.09604 0.52846 0.53678 0.0
C295 C 0.11518 0.54407 0.5402 0.0
C296 C 0.15166 0.53543 0.51646 0.0
C297 C 0.16954 0.50894 0.49163 0.0
C298 C 0.15027 0.49332 0.48827 0.0
C299 C 0.97463 0.54175 0.45634 0.0
O300 O 0.94901 0.49695 0.53841 0.0
O301 O 0.01435 0.46569 0.52911 0.0
O302 O 0.88388 0.54848 0.59457 0.0
O303 O 0.87858 0.59058 0.53184 0.0
O304 O 0.94269 0.55233 0.61172 0.0
O305 O -0.0142 0.51073 0.58002 0.0
O306 O 0.00343 0.57047 0.52792 0.0
O307 O 0.93808 0.60177 0.53719 0.0
O308 O 0.06851 0.51901 0.47162 0.0
O309 O 0.07388 0.47678 0.53426 0.0
O310 O 0.00958 0.51519 0.45454 0.0
O311 O 0.96667 0.55672 0.4863 0.0
H312 H 0.88535 0.53021 0.5127 0.0
H313 H 0.85233 0.50241 0.50694 0.0
H314 H 0.75488 0.56541 0.59279 0.0
H315 H 0.78876 0.59275 0.59884 0.0
H316 H 0.06725 0.53712 0.55339 0.0
H317 H 0.10046 0.56472 0.55916 0.0
H318 H 0.1978 0.50154 0.47336 0.0
H319 H 0.16373 0.47439 0.46729 0.0
Ho320 Ho 0.22222 0.27304 1.00332 0.0
Ho321 Ho 0.231 0.29787 0.06391 0.0
C322 C 0.15109 0.30245 0.07522 0.0
C323 C 0.22982 0.23462 0.95604 0.0
C324 C 0.21942 0.20656 0.96266 0.0
C325 C 0.19498 0.19933 1.00031 0.0
C326 C 0.18533 0.17234 1.00616 0.0
C327 C 0.20007 0.15232 0.97441 0.0
C328 C 0.22534 0.15909 0.93734 0.0
C329 C 0.23491 0.18608 0.93152 0.0
C330 C 0.20387 0.34734 0.97367 0.0
C331 C 0.30211 0.26794 0.99205 0.0
C332 C 0.22372 0.33738 0.10947 0.0
C333 C 0.23353 0.3665 0.1003 0.0
C334 C 0.26331 0.36812 0.06704 0.0
C335 C 0.27136 0.39697 0.05761 0.0
C336 C 0.24944 0.42486 0.08098 0.0
C337 C 0.21908 0.42347 0.1136 0.0
C338 C 0.2113 0.39442 0.12324 0.0
C339 C 0.24938 0.22354 0.09358 0.0
O340 O 0.1695 0.27791 0.05126 0.0
O341 O 0.16796 0.31821 0.07931 0.0
O342 O 0.2019 0.26877 0.95654 0.0
O343 O 0.25524 0.22357 0.97846 0.0
O344 O 0.18626 0.33356 0.96846 0.0
O345 O 0.2311 0.32071 0.99309 0.0
O346 O 0.28366 0.29287 1.0155 0.0
O347 O 0.28526 0.25193 0.98864 0.0
O348 O 0.25188 0.30326 0.10917 0.0
O349 O 0.19754 0.3473 0.08893 0.0
O350 O 0.26683 0.23735 0.09911 0.0
O351 O 0.22214 0.25021 0.0742 0.0
H352 H 0.18309 0.21485 1.0248 0.0
H353 H 0.1655 0.16796 0.0348 0.0
H354 H 0.23749 0.14369 0.91267 0.0
H355 H 0.25423 0.19111 0.9026 0.0
H356 H 0.28037 0.34706 0.04846 0.0
H357 H 0.29521 0.39695 1.03267 0.0
H358 H 0.20125 0.44488 0.13164 0.0
H359 H 0.18774 0.39389 0.14842 0.0
Ho360 Ho 0.20121 0.03777 0.25242 0.0
Ho361 Ho 0.25163 1.0317 0.31242 0.0
C362 C 0.23993 0.09191 0.21756 0.0
C363 C 0.14714 0.0589 0.21435 0.0
C364 C 0.1312 0.04587 0.19618 0.0
C365 C 0.11696 0.06836 0.15692 0.0
C366 C 0.09742 0.05989 0.14116 0.0
C367 C 0.09173 1.0287 0.16434 0.0
C368 C 0.10772 1.0049 0.20241 0.0
C369 C 0.12728 1.01348 0.21835 0.0
C370 C 0.27433 0.97872 0.2459 0.0
C371 C 0.21151 0.97872 0.34857 0.0
C372 C 0.30808 1.01104 0.34605 0.0
C373 C 0.3288 1.02442 0.35583 0.0
C374 C 0.31339 0.0442 0.38804 0.0
C375 C 0.33593 0.05106 0.40131 0.0
C376 C 0.37432 0.03826 0.38265 0.0
C377 C 0.38885 1.02047 0.34866 0.0
C378 C 0.36652 1.0134 0.33573 0.0
C379 C 0.17863 0.09123 0.31833 0.0
O380 O 0.21365 0.08594 0.21548 0.0
O381 O 0.26072 0.07197 0.24924 0.0
O382 O 0.14449 0.04972 0.25699 0.0
O383 O 0.17915 0.05824 0.193 0.0
O384 O 0.249 0.98748 0.22497 0.0
O385 O 0.2585 1.00288 0.26756 0.0
O386 O 0.23719 0.985 0.35184 0.0
O387 O 0.19174 0.99796 0.31588 0.0
O388 O 0.31065 1.01406 0.30488 0.0
O389 O 0.2746 1.01715 0.36906 0.0
O390 O 0.20417 0.08264 0.33887 0.0
O391 O 0.19422 0.06681 0.29705 0.0
H392 H 0.11971 0.09341 0.1392 0.0
H393 H 0.08549 0.07852 0.11163 0.0
H394 H 0.10341 0.98086 0.22098 0.0
H395 H 0.13811 0.99561 0.24865 0.0
H396 H 0.28437 0.05313 0.40417 0.0
H397 H 0.3237 0.06477 0.42759 0.0
H398 H 0.41796 1.01101 0.33264 0.0
H399 H 0.37924 0.99804 0.31091 0.0
Ho400 Ho 0.48261 0.30604 0.80434 0.0
Ho401 Ho 0.47136 0.25883 0.76063 0.0
C402 C 0.4308 0.26646 0.86013 0.0
C403 C 0.47436 0.3584 0.83026 0.0
C404 C 0.48101 0.36357 0.86678 0.0
C405 C 0.50437 0.37898 0.85774 0.0
C406 C 0.50847 0.38758 0.89069 0.0
C407 C 0.48908 0.38116 0.93349 0.0
C408 C 0.46634 0.36489 0.94282 0.0
C409 C 0.46239 0.35609 0.90981 0.0
C410 C 0.5366 0.23059 0.81965 0.0
C411 C 0.52293 0.29872 0.70481 0.0
C412 C 0.48153 0.20519 0.73532 0.0
C413 C 0.48003 0.19736 0.69754 0.0
C414 C 0.50904 0.16373 0.68616 0.0
C415 C 0.50778 0.15402 0.65223 0.0
C416 C 0.47729 0.17772 0.62893 0.0
C417 C 0.44865 0.21197 0.6397 0.0
C418 C 0.45005 0.22177 0.67366 0.0
C419 C 0.41734 0.33432 0.74518 0.0
O420 O 0.43921 0.2926 0.85481 0.0
O421 O 0.44483 0.24614 0.83151 0.0
O422 O 0.50424 0.34021 0.80386 0.0
O423 O 0.44773 0.34997 0.83849 0.0
O424 O 0.53408 0.25504 0.83466 0.0
O425 O 0.50865 0.2482 0.80031 0.0
O426 O 0.51435 0.27278 0.70978 0.0
O427 O 0.50869 0.31906 0.73343 0.0
O428 O 0.44954 0.22635 0.75702 0.0
O429 O 0.50839 0.21232 0.73045 0.0
O430 O 0.42008 0.30978 0.73005 0.0
O431 O 0.44516 0.31681 0.76476 0.0
H432 H 0.51869 0.38541 0.82478 0.0
H433 H 0.5256 0.40077 0.88217 0.0
H434 H 0.45115 0.35951 0.97549 0.0
H435 H 0.44411 0.34424 0.91786 0.0
H436 H 0.53241 0.14447 0.7042 0.0
H437 H 0.5301 0.1272 0.64542 0.0
H438 H 0.42499 0.23104 0.62214 0.0
H439 H 0.42746 0.24806 0.68163 0.0
Ho440 Ho -0.01796 0.80549 0.80714 0.0
Ho441 Ho 0.97242 0.75812 0.76184 0.0
C442 C 0.93161 0.76405 0.8617 0.0
C443 C 0.97125 0.85825 0.83468 0.0
C444 C 0.97462 0.86475 0.8724 0.0
C445 C 0.94441 0.89563 0.88841 0.0
C446 C 0.94736 0.9047 0.92173 0.0
C447 C -0.01934 0.88319 0.93993 0.0
C448 C 0.01064 0.85149 0.92466 0.0
C449 C 0.00763 0.8423 0.89122 0.0
C450 C 0.03715 0.73043 0.82131 0.0
C451 C 0.0228 0.79954 0.70731 0.0
C452 C -0.01595 0.70456 0.73506 0.0
C453 C -0.01853 0.6971 0.69767 0.0
C454 C 0.01052 0.66405 0.68503 0.0
C455 C 0.00828 0.65464 0.6515 0.0
C456 C -0.02323 0.67808 0.62984 0.0
C457 C 0.94802 0.71174 0.6419 0.0
C458 C 0.95039 0.72124 0.67547 0.0
C459 C 0.91739 0.83326 0.74725 0.0
O460 O 0.93964 0.79025 0.85737 0.0
O461 O 0.94598 0.74427 0.83243 0.0
O462 O 0.00247 0.83937 0.81013 0.0
O463 O 0.94509 0.84972 0.84096 0.0
O464 O 0.03401 0.75494 0.83682 0.0
O465 O 0.00911 0.74773 0.80218 0.0
O466 O 0.01495 0.77321 0.71178 0.0
O467 O 0.0082 0.81954 0.73642 0.0
O468 O 0.95246 0.72383 0.75888 0.0
O469 O 0.00985 0.71359 0.72861 0.0
O470 O 0.92075 0.80865 0.73168 0.0
O471 O 0.94515 0.81601 0.7669 0.0
H472 H 0.91873 0.91345 0.87429 0.0
H473 H 0.92396 0.92956 0.93196 0.0
H474 H 0.03656 0.83403 0.93818 0.0
H475 H 0.03131 0.81814 0.87962 0.0
H476 H 0.0347 0.645 0.7018 0.0
H477 H 0.0307 0.62823 0.6437 0.0
H478 H 0.92356 0.73058 0.62565 0.0
H479 H 0.92774 0.74707 0.68448 0.0
Ho480 Ho 0.69923 0.53578 0.25603 0.0
Ho481 Ho 0.75042 0.53003 0.31485 0.0
C482 C 0.73841 0.58947 0.21891 0.0
C483 C 0.64298 0.55514 0.22313 0.0
C484 C 0.62417 0.54016 0.2126 0.0
C485 C 0.63915 0.52443 0.17668 0.0
C486 C 0.61798 0.51586 0.16356 0.0
C487 C 0.58125 0.52334 0.18568 0.0
C488 C 0.56723 0.53728 0.22283 0.0
C489 C 0.58832 0.5457 0.23598 0.0
C490 C 0.77244 0.4771 0.24869 0.0
C491 C 0.71209 0.47534 0.35125 0.0
C492 C 0.80699 0.51016 0.34768 0.0
C493 C 0.82719 0.52394 0.35779 0.0
C494 C 0.81191 0.54239 0.39129 0.0
C495 C 0.83414 0.54958 0.40464 0.0
C496 C 0.8721 0.53838 0.38485 0.0
C497 C 0.88646 0.52185 0.34974 0.0
C498 C 0.86443 0.51449 0.33667 0.0
C499 C 0.67742 0.58953 0.32103 0.0
O500 O 0.71212 0.58338 0.21707 0.0
O501 O 0.75906 0.56997 0.25078 0.0
O502 O 0.64079 0.55102 0.26459 0.0
O503 O 0.67567 0.55136 0.19954 0.0
O504 O 0.74694 0.4858 0.22805 0.0
O505 O 0.75669 0.50104 0.27066 0.0
O506 O 0.73711 0.48251 0.35454 0.0
O507 O 0.69206 0.49437 0.31887 0.0
O508 O 0.80916 0.51386 0.30638 0.0
O509 O 0.77391 0.51519 0.37116 0.0
O510 O 0.70304 0.58102 0.34138 0.0
O511 O 0.69296 0.56497 0.29998 0.0
H512 H 0.6666 0.52001 0.15771 0.0
H513 H 0.62962 0.50517 0.13482 0.0
H514 H 0.5393 0.54282 0.24108 0.0
H515 H 0.57588 0.55798 0.26357 0.0
H516 H 0.78328 0.55 0.40832 0.0
H517 H 0.82209 0.56226 0.43182 0.0
H518 H 0.91523 0.5136 0.33293 0.0
H519 H 0.87708 0.50012 0.31091 0.0
Ho520 Ho 0.72211 0.76922 1.00268 0.0
Ho521 Ho 0.73092 0.79424 0.06323 0.0
C522 C 0.65087 0.79953 0.07443 0.0
C523 C 0.72873 0.7296 0.95774 0.0
C524 C 0.7169 0.70182 0.96805 0.0
C525 C 0.69051 0.69871 1.00556 0.0
C526 C 0.68046 0.6711 1.01645 0.0
C527 C 0.69684 0.64611 0.99008 0.0
C528 C 0.7236 0.64907 0.95278 0.0
C529 C 0.73356 0.67683 0.94184 0.0
C530 C 0.70372 0.84349 0.97276 0.0
C531 C 0.80199 0.76472 0.99113 0.0
C532 C 0.72357 0.83286 0.11009 0.0
C533 C 0.73341 0.86147 0.10312 0.0
C534 C 0.76226 0.86478 0.06943 0.0
C535 C 0.77069 0.89284 0.0628 0.0
C536 C 0.75009 0.91816 0.08952 0.0
C537 C 0.72062 0.91513 0.12254 0.0
C538 C 0.71244 0.88691 0.12933 0.0
C539 C 0.74899 0.71995 0.09297 0.0
O540 O 0.66924 0.77474 0.05083 0.0
O541 O 0.66783 0.81533 0.07814 0.0
O542 O 0.70156 0.76432 0.95666 0.0
O543 O 0.75467 0.71908 0.97908 0.0
O544 O 0.68634 0.82958 0.96728 0.0
O545 O 0.73089 0.81697 0.99237 0.0
O546 O 0.78362 0.78924 1.01513 0.0
O547 O 0.7851 0.74901 0.98699 0.0
O548 O 0.75168 0.79882 0.10932 0.0
O549 O 0.69779 0.84357 0.0884 0.0
O550 O 0.7667 0.73362 0.09823 0.0
O551 O 0.7218 0.74673 0.0736 0.0
H552 H 0.67781 0.71754 1.02647 0.0
H553 H 0.66003 0.66916 0.04558 0.0
H554 H 0.73628 0.63041 0.93166 0.0
H555 H 0.75427 0.67875 0.91302 0.0
H556 H 0.77835 0.84558 0.04848 0.0
H557 H 0.79381 0.89417 0.03741 0.0
H558 H 0.70381 0.93461 0.14313 0.0
H559 H 0.68965 0.88502 0.15497 0.0
Ho560 Ho 0.43315 0.05122 0.55 0.0
Ho561 Ho 0.51976 1.01494 0.5163 0.0
C562 C 0.48092 0.96691 0.53317 0.0
C563 C 0.36139 0.07743 0.5616 0.0
C564 C 0.33866 0.06714 0.55155 0.0
C565 C 0.35576 0.04175 0.52565 0.0
C566 C 0.33615 1.02667 0.52212 0.0
C567 C 0.29914 0.03666 0.54472 0.0
C568 C 0.28127 0.06397 0.56842 0.0
C569 C 0.30101 0.07906 0.5719 0.0
C570 C 0.47599 1.02615 0.6103 0.0
C571 C 0.47197 0.09927 0.53313 0.0
C572 C 0.59151 0.98882 0.50471 0.0
C573 C 0.61413 0.99922 0.51477 0.0
C574 C 0.59694 1.02459 0.54071 0.0
C575 C 0.6164 0.03984 0.54421 0.0
C576 C 0.65337 1.03002 0.52156 0.0
C577 C 0.67136 1.0027 0.49785 0.0
C578 C 0.65175 0.98746 0.49438 0.0
C579 C 0.4768 0.04006 0.45605 0.0
O580 O 0.44799 0.99764 0.53773 0.0
O581 O 0.51322 0.96461 0.53126 0.0
O582 O 0.38236 0.05152 0.59144 0.0
O583 O 0.37955 0.09227 0.52787 0.0
O584 O 0.44142 0.0535 0.6106 0.0
O585 O 0.48444 1.01067 0.58065 0.0
O586 O 0.5049 0.06853 0.52859 0.0
O587 O 0.43968 0.10157 0.53501 0.0
O588 O 0.57054 1.01467 0.47485 0.0
O589 O 0.57337 0.97395 0.53844 0.0
O590 O 0.51137 1.0127 0.4557 0.0
O591 O 0.46852 0.05545 0.48571 0.0
H592 H 0.38491 1.03205 0.51002 0.0
H593 H 0.35088 1.00538 0.50406 0.0
H594 H 0.25262 0.0724 0.5858 0.0
H595 H 0.2875 0.09862 0.59208 0.0
H596 H 0.56782 0.03417 0.55641 0.0
H597 H 0.60158 0.06113 0.5623 0.0
H598 H 0.69999 0.99437 0.48045 0.0
H599 H 0.66535 0.96791 0.47418 0.0
Ho600 Ho 0.4366 0.54491 0.05275 0.0
Ho601 Ho 0.52231 0.5132 1.01572 0.0
C602 C 0.48726 0.46191 1.03229 0.0
C603 C 0.36515 0.56846 0.06723 0.0
C604 C 0.34201 0.55806 0.05829 0.0
C605 C 0.35814 0.53329 1.03181 0.0
C606 C 0.33814 0.51797 1.02967 0.0
C607 C 0.30182 0.52713 0.05426 0.0
C608 C 0.28484 0.55399 0.07835 0.0
C609 C 0.3049 0.56929 0.08042 0.0
C610 C 0.48057 0.51989 0.11169 0.0
C611 C 0.47198 0.59566 0.03752 0.0
C612 C 0.59329 0.49191 0.99964 0.0
C613 C 0.61424 0.50482 1.00862 0.0
C614 C 0.59756 0.52542 0.03998 0.0
C615 C 0.61408 0.54348 0.04364 0.0
C616 C 0.64717 0.54203 1.01517 0.0
C617 C 0.66488 0.51975 0.98516 0.0
C618 C 0.64847 0.50122 0.98198 0.0
C619 C 0.47784 0.538 0.95735 0.0
O620 O 0.45355 0.49158 0.03797 0.0
O621 O 0.51879 0.46119 1.03018 0.0
O622 O 0.38751 0.54225 0.09563 0.0
O623 O 0.38183 0.58461 0.03309 0.0
O624 O 0.4455 0.54611 0.11357 0.0
O625 O 0.48925 0.50533 0.08106 0.0
O626 O 0.5056 0.56602 1.03156 0.0
O627 O 0.44044 0.59658 0.03929 0.0
O628 O 0.57042 0.51713 0.97145 0.0
O629 O 0.57776 0.47455 0.03387 0.0
O630 O 0.5128 0.51151 0.95549 0.0
O631 O 0.46971 0.55269 0.98762 0.0
H632 H 0.38686 0.52425 1.01466 0.0
H633 H 0.35207 0.4971 1.01115 0.0
H634 H 0.25671 0.56179 0.09721 0.0
H635 H 0.29215 0.58842 0.10099 0.0
H636 H 0.5707 0.52925 0.06008 0.0
H637 H 0.59996 0.55998 0.06747 0.0
H638 H 0.6901 0.51846 0.96233 0.0
H639 H 0.6614 0.48582 0.95717 0.0
C640 C -0.00231 0.13025 0.04477 0.0
C641 C 0.96464 0.12858 0.05151 0.0
H642 H 0.02598 0.14888 0.06289 0.0
C643 C 0.93239 0.14975 0.07837 0.0
H644 H 0.02301 0.11458 1.02409 0.0
C645 C 0.93429 0.16898 0.10133 0.0
C646 C 0.96839 0.16774 0.09764 0.0
H647 H 0.90647 0.14905 0.08452 0.0
H648 H 0.90975 0.18246 0.12432 0.0
C649 C -0.00048 0.14964 0.06746 0.0
C650 C 0.85716 0.23772 0.43254 0.0
C651 C 0.83739 0.26245 0.45997 0.0
H652 H 0.90191 0.21956 0.37951 0.0
C653 C 0.85084 0.28606 0.45666 0.0
H654 H 0.84772 0.21905 0.43416 0.0
C655 C 0.8821 0.28623 0.42534 0.0
C656 C 0.90072 0.2629 0.39633 0.0
H657 H 0.83646 0.30542 0.47723 0.0
H658 H 0.89069 0.30582 0.42289 0.0
C659 C 0.88838 0.23797 0.4011 0.0
C660 C 0.73507 0.13549 0.64262 0.0
C661 C 0.74538 0.12092 0.68431 0.0
H662 H 0.72588 0.18015 0.58311 0.0
C663 C 0.75695 0.13985 0.69624 0.0
H664 H 0.72598 0.12166 0.63234 0.0
C665 C 0.7561 0.17353 0.66851 0.0
C666 C 0.74487 0.1886 0.62749 0.0
H667 H 0.76479 0.12975 0.72807 0.0
H668 H 0.76322 0.18846 0.67974 0.0
C669 C 0.73529 0.16878 0.61424 0.0
C670 C 0.90207 0.0725 0.94672 0.0
C671 C 0.93971 0.04308 0.94604 0.0
H672 H 0.84703 0.09376 0.9334 0.0
C673 C 0.95081 1.01268 0.93031 0.0
H674 H 0.89289 0.09645 0.95819 0.0
C675 C 0.92489 1.01088 0.91701 0.0
C676 C 0.88723 0.03985 0.91804 0.0
H677 H -0.02039 0.98962 0.929 0.0
H678 H 0.93439 0.98673 0.90569 0.0
C679 C 0.876 0.07106 0.93238 0.0
C680 C 0.00102 0.051 0.14076 0.0
C681 C 0.01189 1.01969 0.12695 0.0
H682 H 0.01794 0.07839 0.1624 0.0
C683 C 0.04946 0.99018 0.12684 0.0
H684 H 0.97225 0.07409 0.14173 0.0
C685 C 0.07576 0.99247 0.13955 0.0
C686 C 0.06481 1.02454 0.1519 0.0
H687 H 0.05838 0.9654 0.11723 0.0
H688 H 0.10464 0.9696 0.13909 0.0
C689 C 0.0272 0.0536 0.1525 0.0
C690 C 0.94942 0.43934 0.52179 0.0
C691 C -0.01673 0.43848 0.51827 0.0
H692 H 0.92062 0.42393 0.4994 0.0
C693 C 0.01609 0.41591 0.49322 0.0
H694 H 0.92367 0.45606 0.54119 0.0
C695 C 0.01423 0.39778 0.46876 0.0
C696 C -0.02043 0.40163 0.4691 0.0
H697 H 0.04262 0.41473 0.48953 0.0
H698 H 0.03942 0.38308 0.4472 0.0
C699 C 0.94758 0.42116 0.49748 0.0
C700 C 0.60342 0.27768 0.60861 0.0
C701 C 0.61691 0.30142 0.60472 0.0
H702 H 0.56309 0.25853 0.64254 0.0
C703 C 0.59667 0.32712 0.63099 0.0
H704 H 0.61816 0.2576 0.5889 0.0
C705 C 0.56499 0.32765 0.66195 0.0
C706 C 0.55262 0.30256 0.66742 0.0
H707 H 0.60609 0.34596 0.62886 0.0
H708 H 0.5511 0.34681 0.6827 0.0
C709 C 0.57168 0.27828 0.63947 0.0
C710 C 0.7312 0.92032 0.91482 0.0
C711 C 0.70839 0.94297 0.88194 0.0
H712 H 0.74732 0.87165 0.96932 0.0
C713 C 0.68208 0.93389 0.88131 0.0
H714 H 0.75168 0.92634 0.91671 0.0
C715 C 0.67953 0.90243 0.9118 0.0
C716 C 0.70328 0.87918 0.94361 0.0
H717 H 0.66391 0.95064 0.85673 0.0
H718 H 0.65963 0.89576 0.9097 0.0
C719 C 0.72868 0.88888 0.94519 0.0
C720 C 0.09879 0.28613 0.10499 0.0
C721 C 0.11435 0.30732 0.10363 0.0
H722 H 0.05726 0.26841 0.13732 0.0
C723 C 0.0964 0.33035 0.13284 0.0
H724 H 0.11174 0.26814 0.08301 0.0
C725 C 0.06499 0.33052 0.1642 0.0
C726 C 0.05074 0.30764 0.1672 0.0
H727 H 0.10748 0.34716 0.1327 0.0
H728 H 0.05295 0.3474 0.18726 0.0
C729 C 0.06743 0.28628 0.13632 0.0
C730 C 0.69781 0.42293 0.37059 0.0
C731 C 0.70879 0.44203 0.38316 0.0
H732 H 0.69222 0.37407 0.38614 0.0
C733 C 0.71904 0.42722 0.42489 0.0
H734 H 0.69003 0.43319 0.3387 0.0
C735 C 0.71917 0.39364 0.45279 0.0
C736 C 0.71004 0.37377 0.43895 0.0
H737 H 0.72769 0.44116 0.43563 0.0
H738 H 0.72839 0.38217 0.48406 0.0
C739 C 0.69903 0.389 0.39781 0.0
C740 C 0.53951 0.99381 0.6337 0.0
C741 C 0.50274 1.02437 0.63046 0.0
H742 H 0.59249 0.97063 0.65332 0.0
C743 C 0.49106 0.05512 0.64585 0.0
H744 H 0.54906 0.96948 0.62278 0.0
C745 C 0.51561 0.05603 0.66281 0.0
C746 C 0.55262 1.02585 0.66584 0.0
H747 H 0.46295 0.07923 0.6439 0.0
H748 H 0.50556 0.08097 0.67279 0.0
C749 C 0.5643 0.99455 0.65118 0.0
C750 C 0.02009 0.91346 0.99317 0.0
C751 C -0.01232 0.93385 1.02051 0.0
H752 H 0.04319 0.882 0.94574 0.0
C753 C 0.95485 0.93206 1.02642 0.0
H754 H 0.04581 0.91437 0.98759 0.0
C755 C 0.95339 0.91329 1.00254 0.0
C756 C -0.01532 0.89597 0.97196 0.0
H757 H 0.92944 0.94712 0.04752 0.0
H758 H 0.9271 0.91392 1.00656 0.0
C759 C 0.01856 0.89486 0.96902 0.0
C760 C 0.1685 0.07869 1.02195 0.0
C761 C 0.15771 0.08131 0.98546 0.0
H762 H 0.19063 0.09935 0.04707 0.0
C763 C 0.16267 0.1058 0.94522 0.0
H764 H 0.16467 0.06008 0.05335 0.0
C765 C 0.1772 0.12816 0.94165 0.0
C766 C 0.18711 0.12648 0.97826 0.0
H767 H 0.15474 0.10805 0.91659 0.0
H768 H 0.17959 0.14763 0.91045 0.0
C769 C 0.18297 0.10131 1.01842 0.0
C770 C 0.6139 0.63753 0.29322 0.0
C771 C 0.63882 0.62389 0.32185 0.0
H772 H 0.56138 0.6824 0.27015 0.0
C773 C 0.62761 0.64503 0.35127 0.0
H774 H 0.62163 0.62224 0.26984 0.0
C775 C 0.59351 0.67907 0.35142 0.0
C776 C 0.56892 0.69355 0.32226 0.0
H777 H 0.64575 0.63565 0.37394 0.0
H778 H 0.5868 0.69461 0.37407 0.0
C779 C 0.57926 0.67201 0.29347 0.0
C780 C 0.25355 0.97529 0.595 0.0
C781 C 0.2584 0.9634 0.5592 0.0
H782 H 0.2625 1.00785 0.61831 0.0
C783 C 0.2736 0.97866 0.51757 0.0
H784 H 0.24263 0.96355 0.62766 0.0
C785 C 0.28524 1.00401 0.51231 0.0
C786 C 0.2816 1.01477 0.54844 0.0
H787 H 0.27717 0.97047 0.48925 0.0
H788 H 0.298 1.01441 0.48026 0.0
C789 C 0.26489 1.00078 0.58964 0.0
C790 C 0.09608 0.6774 0.85081 0.0
C791 C 0.07127 0.69195 0.82189 0.0
H792 H 0.14893 0.63441 0.87215 0.0
C793 C 0.08189 0.67105 0.79226 0.0
H794 H 0.08918 0.6925 0.87406 0.0
C795 C 0.11693 0.63713 0.79096 0.0
C796 C 0.14202 0.62342 0.81938 0.0
H797 H 0.06393 0.68153 0.76905 0.0
H798 H 0.12483 0.62241 0.76691 0.0
C799 C 0.13062 0.64389 0.84964 0.0
C800 C 0.75745 0.46842 0.59907 0.0
C801 C 0.76152 0.45768 0.56269 0.0
H802 H 0.76669 0.50023 0.62331 0.0
C803 C 0.77593 0.47389 0.52116 0.0
H804 H 0.7472 0.45588 0.63165 0.0
C805 C 0.78733 0.4993 0.51646 0.0
C806 C 0.78426 0.50911 0.55309 0.0
H807 H 0.77893 0.46653 0.49244 0.0
H808 H 0.7993 0.51062 0.48439 0.0
C809 C 0.76858 0.49394 0.5943 0.0
C810 C 0.32504 0.92448 0.21391 0.0
C811 C 0.31301 0.94458 0.24483 0.0
H812 H 0.36654 0.87563 0.18988 0.0
C813 C 0.33705 0.92994 0.2749 0.0
H814 H 0.30752 0.93467 0.19016 0.0
C815 C 0.37161 0.89548 0.27459 0.0
C816 C 0.38285 0.87498 0.24424 0.0
H817 H 0.32857 0.94431 0.29956 0.0
H818 H 0.38856 0.88419 0.29921 0.0
C819 C 0.35914 0.89044 0.21368 0.0
C820 C 0.339 0.42937 0.77254 0.0
C821 C 0.31389 0.44291 0.74417 0.0
H822 H 0.39169 0.38458 0.79529 0.0
C823 C 0.32491 0.42169 0.71492 0.0
H824 H 0.33141 0.44471 0.79577 0.0
C825 C 0.35901 0.38768 0.71467 0.0
C826 C 0.38379 0.37329 0.74356 0.0
H827 H 0.30662 0.43101 0.69246 0.0
H828 H 0.36557 0.37207 0.69217 0.0
C829 C 0.37364 0.39489 0.77219 0.0
C830 C 0.10152 0.78141 0.60907 0.0
C831 C 0.11506 0.80492 0.60578 0.0
H832 H 0.0617 0.76163 0.64296 0.0
C833 C 0.09545 0.82954 0.63334 0.0
H834 H 0.11577 0.76215 0.58839 0.0
C835 C 0.06433 0.82921 0.66492 0.0
C836 C 0.05193 0.80432 0.66969 0.0
H837 H 0.10496 0.84815 0.63174 0.0
H838 H 0.05092 0.84751 0.68663 0.0
C839 C 0.07036 0.78115 0.64052 0.0
C840 C 0.19547 0.92727 0.36929 0.0
C841 C 0.20714 0.94617 0.38113 0.0
H842 H 0.18906 0.87873 0.38594 0.0
C843 C 0.21742 0.93165 0.42282 0.0
H844 H 0.18763 0.93734 0.33747 0.0
C845 C 0.21713 0.89842 0.45128 0.0
C846 C 0.20749 0.87861 0.43811 0.0
H847 H 0.22657 0.94547 0.43304 0.0
H848 H 0.22654 0.88708 0.48241 0.0
C849 C 0.19624 0.89365 0.3971 0.0
C850 C 0.93834 0.66949 0.59773 0.0
C851 C 0.97302 0.66564 0.59733 0.0
H852 H 0.90989 0.65259 0.57699 0.0
C853 C 0.00495 0.64618 0.56883 0.0
H854 H 0.91319 0.68413 0.61938 0.0
C855 C 0.00306 0.62807 0.5445 0.0
C856 C 0.96919 0.62892 0.54808 0.0
H857 H 0.03192 0.64342 0.56686 0.0
H858 H 0.02878 0.6114 0.52503 0.0
C859 C 0.93641 0.65143 0.57324 0.0
C860 C 0.35555 0.74006 0.43428 0.0
C861 C 0.33547 0.76565 0.46067 0.0
H862 H 0.40102 0.7204 0.38245 0.0
C863 C 0.34908 0.78927 0.45682 0.0
H864 H 0.34602 0.72132 0.43637 0.0
C865 C 0.38082 0.78863 0.42593 0.0
C866 C 0.39977 0.76442 0.3979 0.0
H867 H 0.33446 0.80928 0.47661 0.0
H868 H 0.38953 0.80827 0.42294 0.0
C869 C 0.38724 0.73948 0.40328 0.0
C870 C 0.2216 0.14692 0.15112 0.0
C871 C 0.2447 0.12386 0.1837 0.0
H872 H 0.2052 0.19601 0.09719 0.0
C873 C 0.27125 0.13264 0.18429 0.0
H874 H 0.20089 0.14117 0.1493 0.0
C875 C 0.27379 0.16418 0.15403 0.0
C876 C 0.24979 0.18782 0.12252 0.0
H877 H 0.28964 0.11558 0.20866 0.0
H878 H 0.29391 0.17061 0.15607 0.0
C879 C 0.2241 0.17843 0.12102 0.0
C880 C 0.85437 0.78093 0.96139 0.0
C881 C 0.83875 0.75979 0.96276 0.0
H882 H 0.89599 0.79854 0.92907 0.0
C883 C 0.8567 0.7367 0.93362 0.0
H884 H 0.84142 0.79896 0.98333 0.0
C885 C 0.88815 0.73643 0.9023 0.0
C886 C 0.90246 0.75927 0.89928 0.0
H887 H 0.84558 0.71991 0.93378 0.0
H888 H 0.90018 0.71952 0.87929 0.0
C889 C 0.88577 0.78068 0.93009 0.0
C890 C 0.25544 0.64383 0.69493 0.0
C891 C 0.24433 0.62468 0.68268 0.0
H892 H 0.26095 0.6928 0.67904 0.0
C893 C 0.23378 0.63947 0.6411 0.0
H894 H 0.26344 0.63359 0.7267 0.0
C895 C 0.23348 0.6731 0.61308 0.0
C896 C 0.24273 0.69303 0.62663 0.0
H897 H 0.22502 0.6255 0.63059 0.0
H898 H 0.22401 0.68457 0.58197 0.0
C899 C 0.25406 0.67781 0.66759 0.0
C900 C 0.38842 0.07175 0.4152 0.0
C901 C 0.40011 0.04049 0.40046 0.0
H902 H 0.40368 0.09677 0.44367 0.0
C903 C 0.4371 1.01029 0.40352 0.0
H904 H 0.36025 0.09568 0.41306 0.0
C905 C 0.46164 1.01115 0.42054 0.0
C906 C 0.44998 0.04187 0.43597 0.0
H907 H 0.44716 0.98538 0.39346 0.0
H908 H 0.48975 0.98703 0.42247 0.0
C909 C 0.41321 0.07245 0.43274 0.0
C910 C 0.76072 0.95328 0.12161 0.0
C911 C 0.76045 0.94644 0.08443 0.0
H912 H 0.77402 0.98148 0.14672 0.0
C913 C 0.77159 0.96559 0.0428 0.0
H914 H 0.75302 0.93846 0.15416 0.0
C915 C 0.78383 0.99021 0.03857 0.0
C916 C 0.78492 0.99623 0.07589 0.0
H917 H 0.77116 0.96131 1.01352 0.0
H918 H 0.79291 1.00416 1.0062 0.0
C919 C 0.77271 0.97799 0.11738 0.0
C920 C 0.67857 0.08835 0.54863 0.0
C921 C 0.69393 0.10347 0.50704 0.0
H922 H 0.65411 0.05266 0.58594 0.0
C923 C 0.69889 0.09148 0.47127 0.0
H924 H 0.67489 0.09665 0.57693 0.0
C925 C 0.68756 0.06597 0.47664 0.0
C926 C 0.67077 0.05206 0.51783 0.0
H927 H 0.70993 0.10313 0.43863 0.0
H928 H 0.69008 0.0588 0.448 0.0
C929 C 0.66695 0.06298 0.55391 0.0
C930 C 0.82306 0.42328 0.21601 0.0
C931 C 0.81143 0.44348 0.24667 0.0
H932 H 0.86466 0.37484 0.19131 0.0
C933 C 0.83628 0.4295 0.2755 0.0
H934 H 0.80493 0.43297 0.19319 0.0
C935 C 0.8713 0.39557 0.27422 0.0
C936 C 0.88213 0.37492 0.2442 0.0
H937 H 0.82819 0.44401 0.29986 0.0
H938 H 0.88904 0.38483 0.29777 0.0
C939 C 0.85758 0.38975 0.21486 0.0
C940 C 0.18413 0.57306 0.47174 0.0
C941 C 0.16856 0.55783 0.51299 0.0
H942 H 0.20534 0.61124 0.43428 0.0
C943 C 0.16559 0.5676 0.5496 0.0
H944 H 0.18594 0.5668 0.44274 0.0
C945 C 0.17694 0.59306 0.54483 0.0
C946 C 0.1912 0.60937 0.50326 0.0
H947 H 0.15371 0.55623 0.5817 0.0
H948 H 0.17399 0.60041 0.57354 0.0
C949 C 0.1952 0.59863 0.4669 0.0
C950 C 0.61585 0.13673 0.79048 0.0
C951 C 0.63971 0.12197 0.82081 0.0
H952 H 0.56452 0.18263 0.76589 0.0
C953 C 0.6275 0.1419 0.85196 0.0
H954 H 0.62449 0.12249 0.76563 0.0
C955 C 0.59341 0.17594 0.85216 0.0
C956 C 0.5699 0.19154 0.82132 0.0
H957 H 0.64489 0.13161 0.8759 0.0
H958 H 0.58587 0.19064 0.87612 0.0
C959 C 0.58129 0.17119 0.79075 0.0
C960 C 0.72031 0.64401 0.15193 0.0
C961 C 0.74348 0.62104 0.18445 0.0
H962 H 0.70409 0.69282 0.09763 0.0
C963 C 0.77039 0.62959 0.18446 0.0
H964 H 0.69932 0.63844 0.15055 0.0
C965 C 0.7732 0.66085 0.15373 0.0
C966 C 0.74911 0.68444 0.12231 0.0
H967 H 0.78886 0.61259 0.20874 0.0
H968 H 0.7936 0.6671 0.15536 0.0
C969 C 0.72306 0.67527 0.12137 0.0
C970 C 0.95968 0.51265 0.42085 0.0
C971 C 0.94761 0.54309 0.43707 0.0
H972 H 0.94557 0.48674 0.39347 0.0
C973 C 0.91036 0.57294 0.43525 0.0
H974 H -0.01183 0.48908 0.42172 0.0
C975 C 0.88557 0.57184 0.41819 0.0
C976 C 0.89774 0.54092 0.40249 0.0
H977 H 0.90047 0.59702 0.44688 0.0
H978 H 0.85702 0.59523 0.41708 0.0
C979 C 0.93515 0.5114 0.40427 0.0
C980 C 0.06669 0.49591 0.64802 0.0
C981 C 0.05446 0.52679 0.66382 0.0
H982 H 0.05188 0.47072 0.61923 0.0
C983 C 0.01698 0.5562 0.66224 0.0
H984 H 0.09528 0.47259 0.64898 0.0
C985 C -0.00755 0.55489 0.6457 0.0
C986 C 0.0046 0.52451 0.62934 0.0
H987 H 0.0065 0.58084 0.67312 0.0
H988 H 0.96392 0.57839 0.64495 0.0
C989 C 0.04191 0.49476 0.63099 0.0
C990 C 0.56499 0.82851 0.16339 0.0
C991 C 0.55098 0.80508 0.16765 0.0
H992 H 0.60711 0.84551 0.13046 0.0
C993 C 0.56771 0.78299 0.13756 0.0
H994 H 0.55289 0.84598 0.18579 0.0
C995 C 0.59889 0.78271 0.10575 0.0
C996 C 0.61422 0.80451 0.10315 0.0
H997 H 0.5577 0.76467 0.13954 0.0
H998 H 0.61192 0.76415 0.08443 0.0
C999 C 0.59621 0.82821 0.13157 0.0
C1000 C 0.51843 0.54964 0.16665 0.0
C1001 C 0.55599 0.52047 0.16799 0.0
H1002 H 0.46572 0.57185 0.14853 0.0
C1003 C 0.56876 0.48984 0.15146 0.0
H1004 H 0.50775 0.57406 0.17813 0.0
C1005 C 0.54435 0.48872 0.13378 0.0
C1006 C 0.50698 0.51834 0.13212 0.0
H1007 H 0.59754 0.46686 0.15213 0.0
H1008 H 0.55473 0.46502 0.12115 0.0
C1009 C 0.49429 0.54843 0.14936 0.0
C1010 C 0.28504 0.49539 1.024 0.0
C1011 C 0.28421 0.50484 0.05971 0.0
H1012 H 0.27372 0.46335 1.00251 0.0
C1013 C 0.26979 0.48965 0.10188 0.0
H1014 H 0.29594 0.50684 0.99117 0.0
C1015 C 0.25766 0.46447 0.10849 0.0
C1016 C 0.25942 0.45408 0.07304 0.0
H1017 H 0.2696 0.49575 0.13014 0.0
H1018 H 0.2484 0.45195 0.14168 0.0
C1019 C 0.27257 0.47035 1.03058 0.0
C1020 C 0.0798 0.17294 0.29199 0.0
C1021 C 0.06974 0.19487 0.3202 0.0
H1022 H 0.12204 0.12297 0.26864 0.0
C1023 C 0.09486 0.18097 0.34846 0.0
H1024 H 0.06148 0.1828 0.26946 0.0
C1025 C 0.12914 0.14713 0.34802 0.0
C1026 C 0.14002 0.12558 0.31921 0.0
H1027 H 0.08839 0.19678 0.37067 0.0
H1028 H 0.14763 0.13819 0.37004 0.0
C1029 C 0.11462 0.13865 0.29144 0.0
C1030 C 0.22924 0.39245 0.94553 0.0
C1031 C 0.20359 0.3829 0.94431 0.0
H1032 H 0.25269 0.42953 0.9164 0.0
C1033 C 0.17979 0.40612 0.91256 0.0
H1034 H 0.24791 0.37524 0.96963 0.0
C1035 C 0.18258 0.43734 0.88172 0.0
C1036 C 0.20918 0.4462 0.88193 0.0
H1037 H 0.15969 0.39957 0.91074 0.0
H1038 H 0.16439 0.45402 0.85716 0.0
C1039 C 0.23199 0.42366 0.91482 0.0
C1040 C 0.354 0.28489 0.96009 0.0
C1041 C 0.3387 0.26294 0.96318 0.0
H1042 H 0.39512 0.30295 0.92575 0.0
C1043 C 0.35666 0.239 0.93503 0.0
H1044 H 0.341 0.30363 0.9812 0.0
C1045 C 0.38779 0.23861 0.90301 0.0
C1046 C 0.40179 0.26218 0.89827 0.0
H1047 H 0.34577 0.22157 0.93652 0.0
H1048 H 0.39985 0.22095 0.88085 0.0
C1049 C 0.38512 0.28451 0.9281 0.0
C1050 C 0.46286 0.50932 0.92119 0.0
C1051 C 0.45083 0.53943 0.93802 0.0
H1052 H 0.44844 0.48417 0.89284 0.0
C1053 C 0.41349 0.56918 0.93684 0.0
H1054 H 0.49137 0.48576 0.92177 0.0
C1055 C 0.38857 0.56842 0.91966 0.0
C1056 C 0.40078 0.53801 0.90306 0.0
H1057 H 0.40366 0.59302 0.94889 0.0
H1058 H 0.35995 0.59171 0.91899 0.0
C1059 C 0.43821 0.50847 0.90432 0.0
C1060 C 0.64606 0.62946 1.01057 0.0
C1061 C 0.68467 0.61824 1.00025 0.0
H1062 H 0.60399 0.61447 1.02258 0.0
C1063 C 0.71121 0.58092 0.99782 0.0
H1064 H 0.625 0.65822 1.01207 0.0
C1065 C 0.69922 0.55551 1.00442 0.0
C1066 C 0.66048 0.56713 1.01323 0.0
H1067 H 0.7412 0.57151 0.99044 0.0
H1068 H 0.72024 0.52697 1.00203 0.0
C1069 C 0.63407 0.60425 1.01681 0.0
C1070 C 0.85838 0.88574 0.71749 0.0
C1071 C 0.88338 0.87198 0.74586 0.0
H1072 H 0.80569 0.92839 0.69565 0.0
C1073 C 0.87315 0.89405 0.77398 0.0
H1074 H 0.86498 0.86981 0.69535 0.0
C1075 C 0.8383 0.92835 0.7743 0.0
C1076 C 0.81304 0.94126 0.74644 0.0
H1077 H 0.89136 0.8843 0.7966 0.0
H1078 H 0.83077 0.94415 0.79702 0.0
C1079 C 0.82408 0.91957 0.71773 0.0
C1080 C 0.43959 0.16982 0.59486 0.0
C1081 C 0.47432 0.16496 0.59613 0.0
H1082 H 0.41131 0.15357 0.57285 0.0
C1083 C 0.50685 0.14421 0.56919 0.0
H1084 H 0.41397 0.18547 0.61528 0.0
C1085 C 0.50533 0.12585 0.54485 0.0
C1086 C 0.47124 0.12777 0.54687 0.0
H1087 H 0.53392 0.14064 0.5685 0.0
H1088 H 0.53139 0.10819 0.52667 0.0
C1089 C 0.43804 0.15154 0.57035 0.0
C1090 C 0.45656 0.41535 0.9926 0.0
C1091 C 0.49018 0.39461 0.96686 0.0
H1092 H 0.42946 0.45199 0.03487 0.0
C1093 C 0.52405 0.39052 0.96983 0.0
H1094 H 0.42995 0.41921 0.99097 0.0
C1095 C 0.5238 0.40941 0.99504 0.0
C1096 C 0.4896 0.43303 1.01753 0.0
H1097 H 0.55051 0.37415 0.95096 0.0
H1098 H 0.55001 0.40769 0.99414 0.0
C1099 C 0.4563 0.43428 1.01773 0.0
C1100 C 0.51318 0.89654 0.47123 0.0
C1101 C 0.47843 0.9014 0.47003 0.0
H1102 H 0.54152 0.91272 0.49324 0.0
C1103 C 0.44595 0.92206 0.4971 0.0
H1104 H 0.53876 0.88097 0.45071 0.0
C1105 C 0.44753 0.94034 0.52149 0.0
C1106 C 0.48163 0.93844 0.51939 0.0
H1107 H 0.41886 0.92563 0.49786 0.0
H1108 H 0.4215 0.95795 0.53975 0.0
C1109 C 0.51479 0.91474 0.4958 0.0
C1110 C 0.43524 0.64863 0.0741 0.0
C1111 C 0.46968 0.62436 0.05261 0.0
H1112 H 0.40782 0.68524 0.1167 0.0
C1113 C 0.50296 0.62275 0.05326 0.0
H1114 H 0.40903 0.65064 0.07436 0.0
C1115 C 0.50229 0.64229 0.07794 0.0
C1116 C 0.46827 0.66403 0.10241 0.0
H1117 H 0.52999 0.60452 0.03693 0.0
H1118 H 0.5288 0.63835 0.08007 0.0
C1119 C 0.43457 0.66815 0.09883 0.0
loop_
_geom_bond_atom_site_label_1
_geom_bond_atom_site_label_2
_geom_bond_distance
_geom_bond_site_symmetry_2
_ccdc_geom_bond_type
Ho0 C3 2.811 . S
Ho0 O20 2.322 1_655 S
Ho0 O22 2.378 . S
Ho0 O23 2.524 . S
Ho0 O24 2.381 1_655 S
Ho0 O25 2.669 1_655 S
Ho0 O27 2.346 1_565 S
Ho0 O31 2.305 1_564 S
Ho1 C12 2.811 . S
Ho1 O21 2.346 1_545 S
Ho1 O25 2.305 1_546 S
Ho1 O26 2.322 1_455 S
Ho1 O28 2.378 . S
Ho1 O29 2.524 . S
Ho1 O30 2.381 1_455 S
Ho1 O31 2.669 1_455 S
C2 O20 1.259 1_556 S
C2 O21 1.268 . S
C3 Ho0 2.811 . S
C3 C4 1.488 . S
C3 O22 1.215 . S
C3 O23 1.289 . S
C4 C3 1.488 . S
C4 C5 1.348 . S
C4 C9 1.413 . S
C5 C4 1.348 . S
C5 C6 1.442 . S
C5 H32 0.930 . S
C6 C5 1.442 . S
C6 C7 1.381 . S
C6 H33 0.931 . S
C7 C6 1.381 . S
C7 C8 1.321 . S
C8 C7 1.321 . S
C8 C9 1.403 . S
C8 H34 0.934 . S
C9 C4 1.413 . S
C9 C8 1.403 . S
C9 H35 0.930 . S
C10 O24 1.275 . S
C10 O25 1.256 . S
C11 O26 1.259 1_554 S
C11 O27 1.268 . S
C12 Ho1 2.811 . S
C12 C13 1.488 . S
C12 O28 1.215 . S
C12 O29 1.289 . S
C13 C12 1.488 . S
C13 C14 1.348 . S
C13 C18 1.413 . S
C14 C13 1.348 . S
C14 C15 1.442 . S
C14 H36 0.930 . S
C15 C14 1.442 . S
C15 C16 1.381 . S
C15 H37 0.931 . S
C16 C15 1.381 . S
C16 C17 1.321 . S
C17 C16 1.321 . S
C17 C18 1.403 . S
C17 H38 0.934 . S
C18 C13 1.413 . S
C18 C17 1.403 . S
C18 H39 0.930 . S
C19 O30 1.275 . S
C19 O31 1.256 . S
O20 Ho0 2.322 1_455 S
O20 C2 1.259 1_554 S
O21 Ho1 2.346 1_565 S
O21 C2 1.268 . S
O22 Ho0 2.378 . S
O22 C3 1.215 . S
O23 Ho0 2.524 . S
O23 C3 1.289 . S
O24 Ho0 2.381 1_455 S
O24 C10 1.275 . S
O25 Ho0 2.669 1_455 S
O25 Ho1 2.305 1_564 S
O25 C10 1.256 . S
O26 Ho1 2.322 1_655 S
O26 C11 1.259 1_556 S
O27 Ho0 2.346 1_545 S
O27 C11 1.268 . S
O28 Ho1 2.378 . S
O28 C12 1.215 . S
O29 Ho1 2.524 . S
O29 C12 1.289 . S
O30 Ho1 2.381 1_655 S
O30 C19 1.275 . S
O31 Ho0 2.305 1_546 S
O31 Ho1 2.669 1_655 S
O31 C19 1.256 . S
H32 C5 0.930 . S
H33 C6 0.931 . S
H34 C8 0.934 . S
H35 C9 0.930 . S
H36 C14 0.930 . S
H37 C15 0.931 . S
H38 C17 0.934 . S
H39 C18 0.930 . S
Ho40 C43 2.811 . S
Ho40 O60 2.322 1_455 S
Ho40 O62 2.378 . S
Ho40 O63 2.524 1_455 S
Ho40 O64 2.381 . S
Ho40 O65 2.669 . S
Ho40 O67 2.346 . S
Ho40 O71 2.305 1_455 S
Ho41 C52 2.811 . S
Ho41 O61 2.346 . S
Ho41 O65 2.305 1_655 S
Ho41 O66 2.322 1_655 S
Ho41 O68 2.378 . S
Ho41 O69 2.524 1_655 S
Ho41 O70 2.381 . S
Ho41 O71 2.669 . S
C42 O60 1.259 . S
C42 O61 1.268 . S
C43 Ho40 2.811 . S
C43 C44 1.488 1_455 S
C43 O62 1.215 . S
C43 O63 1.289 1_455 S
C44 C43 1.488 1_655 S
C44 C45 1.348 . S
C44 C49 1.413 1_655 S
C45 C44 1.348 . S
C45 C46 1.442 . S
C45 H72 0.930 . S
C46 C45 1.442 . S
C46 C47 1.381 . S
C46 H73 0.931 . S
C47 C46 1.381 . S
C47 C48 1.321 1_655 S
C48 C47 1.321 1_455 S
C48 C49 1.403 . S
C48 H74 0.934 . S
C49 C44 1.413 1_455 S
C49 C48 1.403 . S
C49 H75 0.930 . S
C50 O64 1.275 . S
C50 O65 1.256 . S
C51 O66 1.259 . S
C51 O67 1.268 . S
C52 Ho41 2.811 . S
C52 C53 1.488 1_655 S
C52 O68 1.215 . S
C52 O69 1.289 1_655 S
C53 C52 1.488 1_455 S
C53 C54 1.348 . S
C53 C58 1.413 1_455 S
C54 C53 1.348 . S
C54 C55 1.442 . S
C54 H76 0.930 . S
C55 C54 1.442 . S
C55 C56 1.381 . S
C55 H77 0.931 . S
C56 C55 1.381 . S
C56 C57 1.321 1_455 S
C57 C56 1.321 1_655 S
C57 C58 1.403 . S
C57 H78 0.934 . S
C58 C53 1.413 1_655 S
C58 C57 1.403 . S
C58 H79 0.930 . S
C59 O70 1.275 . S
C59 O71 1.256 . S
O60 Ho40 2.322 1_655 S
O60 C42 1.259 . S
O61 Ho41 2.346 . S
O61 C42 1.268 . S
O62 Ho40 2.378 . S
O62 C43 1.215 . S
O63 Ho40 2.524 1_655 S
O63 C43 1.289 1_655 S
O64 Ho40 2.381 . S
O64 C50 1.275 . S
O65 Ho40 2.669 . S
O65 Ho41 2.305 1_455 S
O65 C50 1.256 . S
O66 Ho41 2.322 1_455 S
O66 C51 1.259 . S
O67 Ho40 2.346 . S
O67 C51 1.268 . S
O68 Ho41 2.378 . S
O68 C52 1.215 . S
O69 Ho41 2.524 1_455 S
O69 C52 1.289 1_455 S
O70 Ho41 2.381 . S
O70 C59 1.275 . S
O71 Ho40 2.305 1_655 S
O71 Ho41 2.669 . S
O71 C59 1.256 . S
H72 C45 0.930 . S
H73 C46 0.931 . S
H74 C48 0.934 . S
H75 C49 0.930 . S
H76 C54 0.930 . S
H77 C55 0.931 . S
H78 C57 0.934 . S
H79 C58 0.930 . S
Ho80 C83 2.811 . S
Ho80 O100 2.322 . S
Ho80 O102 2.378 . S
Ho80 O103 2.524 . S
Ho80 O104 2.381 . S
Ho80 O105 2.669 . S
Ho80 O107 2.346 . S
Ho80 O111 2.305 . S
Ho81 C92 2.811 . S
Ho81 O101 2.346 . S
Ho81 O105 2.305 . S
Ho81 O106 2.322 . S
Ho81 O108 2.378 . S
Ho81 O109 2.524 . S
Ho81 O110 2.381 . S
Ho81 O111 2.669 . S
C82 O100 1.259 . S
C82 O101 1.268 . S
C83 Ho80 2.811 . S
C83 C84 1.488 . S
C83 O102 1.215 . S
C83 O103 1.289 . S
C84 C83 1.488 . S
C84 C85 1.348 . S
C84 C89 1.413 . S
C85 C84 1.348 . S
C85 C86 1.442 . S
C85 H112 0.930 . S
C86 C85 1.442 . S
C86 C87 1.381 . S
C86 H113 0.931 . S
C87 C86 1.381 . S
C87 C88 1.321 . S
C88 C87 1.321 . S
C88 C89 1.403 . S
C88 H114 0.934 . S
C89 C84 1.413 . S
C89 C88 1.403 . S
C89 H115 0.930 . S
C90 O104 1.275 . S
C90 O105 1.256 . S
C91 O106 1.259 . S
C91 O107 1.268 . S
C92 Ho81 2.811 . S
C92 C93 1.488 . S
C92 O108 1.215 . S
C92 O109 1.289 . S
C93 C92 1.488 . S
C93 C94 1.348 . S
C93 C98 1.413 . S
C94 C93 1.348 . S
C94 C95 1.442 . S
C94 H116 0.930 . S
C95 C94 1.442 . S
C95 C96 1.381 . S
C95 H117 0.931 . S
C96 C95 1.381 . S
C96 C97 1.321 . S
C97 C96 1.321 . S
C97 C98 1.403 . S
C97 H118 0.934 . S
C98 C93 1.413 . S
C98 C97 1.403 . S
C98 H119 0.930 . S
C99 O110 1.275 . S
C99 O111 1.256 . S
O100 Ho80 2.322 . S
O100 C82 1.259 . S
O101 Ho81 2.346 . S
O101 C82 1.268 . S
O102 Ho80 2.378 . S
O102 C83 1.215 . S
O103 Ho80 2.524 . S
O103 C83 1.289 . S
O104 Ho80 2.381 . S
O104 C90 1.275 . S
O105 Ho80 2.669 . S
O105 Ho81 2.305 . S
O105 C90 1.256 . S
O106 Ho81 2.322 . S
O106 C91 1.259 . S
O107 Ho80 2.346 . S
O107 C91 1.268 . S
O108 Ho81 2.378 . S
O108 C92 1.215 . S
O109 Ho81 2.524 . S
O109 C92 1.289 . S
O110 Ho81 2.381 . S
O110 C99 1.275 . S
O111 Ho80 2.305 . S
O111 Ho81 2.669 . S
O111 C99 1.256 . S
H112 C85 0.930 . S
H113 C86 0.931 . S
H114 C88 0.934 . S
H115 C89 0.930 . S
H116 C94 0.930 . S
H117 C95 0.931 . S
H118 C97 0.934 . S
H119 C98 0.930 . S
Ho120 C123 2.811 1_565 S
Ho120 O140 2.322 1_565 S
Ho120 O142 2.378 . S
Ho120 O143 2.524 1_565 S
Ho120 O144 2.381 . S
Ho120 O145 2.669 . S
Ho120 O147 2.346 . S
Ho120 O151 2.305 1_565 S
Ho121 C132 2.811 1_545 S
Ho121 O141 2.346 . S
Ho121 O145 2.305 1_545 S
Ho121 O146 2.322 1_545 S
Ho121 O148 2.378 . S
Ho121 O149 2.524 1_545 S
Ho121 O150 2.381 . S
Ho121 O151 2.669 . S
C122 O140 1.259 . S
C122 O141 1.268 . S
C123 Ho120 2.811 1_545 S
C123 C124 1.488 . S
C123 O142 1.215 1_545 S
C123 O143 1.289 . S
C124 C123 1.488 . S
C124 C125 1.348 . S
C124 C129 1.413 1_545 S
C125 C124 1.348 . S
C125 C126 1.442 . S
C125 H152 0.930 . S
C126 C125 1.442 . S
C126 C127 1.381 . S
C126 H153 0.931 . S
C127 C126 1.381 . S
C127 C128 1.321 1_545 S
C128 C127 1.321 1_565 S
C128 C129 1.403 . S
C128 H154 0.934 . S
C129 C124 1.413 1_565 S
C129 C128 1.403 . S
C129 H155 0.930 . S
C130 O144 1.275 . S
C130 O145 1.256 . S
C131 O146 1.259 . S
C131 O147 1.268 . S
C132 Ho121 2.811 1_565 S
C132 C133 1.488 . S
C132 O148 1.215 1_565 S
C132 O149 1.289 . S
C133 C132 1.488 . S
C133 C134 1.348 . S
C133 C138 1.413 1_565 S
C134 C133 1.348 . S
C134 C135 1.442 . S
C134 H156 0.930 . S
C135 C134 1.442 . S
C135 C136 1.381 . S
C135 H157 0.931 . S
C136 C135 1.381 . S
C136 C137 1.321 1_565 S
C137 C136 1.321 1_545 S
C137 C138 1.403 . S
C137 H158 0.934 . S
C138 C133 1.413 1_545 S
C138 C137 1.403 . S
C138 H159 0.930 . S
C139 O150 1.275 . S
C139 O151 1.256 . S
O140 Ho120 2.322 1_545 S
O140 C122 1.259 . S
O141 Ho121 2.346 . S
O141 C122 1.268 . S
O142 Ho120 2.378 . S
O142 C123 1.215 1_565 S
O143 Ho120 2.524 1_545 S
O143 C123 1.289 . S
O144 Ho120 2.381 . S
O144 C130 1.275 . S
O145 Ho120 2.669 . S
O145 Ho121 2.305 1_565 S
O145 C130 1.256 . S
O146 Ho121 2.322 1_565 S
O146 C131 1.259 . S
O147 Ho120 2.346 . S
O147 C131 1.268 . S
O148 Ho121 2.378 . S
O148 C132 1.215 1_545 S
O149 Ho121 2.524 1_565 S
O149 C132 1.289 . S
O150 Ho121 2.381 . S
O150 C139 1.275 . S
O151 Ho120 2.305 1_545 S
O151 Ho121 2.669 . S
O151 C139 1.256 . S
H152 C125 0.930 . S
H153 C126 0.931 . S
H154 C128 0.934 . S
H155 C129 0.930 . S
H156 C134 0.930 . S
H157 C135 0.931 . S
H158 C137 0.934 . S
H159 C138 0.930 . S
Ho160 C163 2.811 . S
Ho160 O180 2.322 . S
Ho160 O182 2.378 . S
Ho160 O183 2.524 . S
Ho160 O184 2.381 . S
Ho160 O185 2.669 . S
Ho160 O187 2.346 . S
Ho160 O191 2.305 . S
Ho161 C172 2.811 . S
Ho161 O181 2.346 . S
Ho161 O185 2.305 . S
Ho161 O186 2.322 . S
Ho161 O188 2.378 . S
Ho161 O189 2.524 . S
Ho161 O190 2.381 . S
Ho161 O191 2.669 . S
C162 O180 1.259 . S
C162 O181 1.268 . S
C163 Ho160 2.811 . S
C163 C164 1.488 . S
C163 O182 1.215 . S
C163 O183 1.289 . S
C164 C163 1.488 . S
C164 C165 1.348 . S
C164 C169 1.413 . S
C165 C164 1.348 . S
C165 C166 1.442 . S
C165 H192 0.930 . S
C166 C165 1.442 . S
C166 C167 1.381 . S
C166 H193 0.931 . S
C167 C166 1.381 . S
C167 C168 1.321 . S
C168 C167 1.321 . S
C168 C169 1.403 . S
C168 H194 0.934 . S
C169 C164 1.413 . S
C169 C168 1.403 . S
C169 H195 0.930 . S
C170 O184 1.275 . S
C170 O185 1.256 . S
C171 O186 1.259 . S
C171 O187 1.268 . S
C172 Ho161 2.811 . S
C172 C173 1.488 . S
C172 O188 1.215 . S
C172 O189 1.289 . S
C173 C172 1.488 . S
C173 C174 1.348 . S
C173 C178 1.413 . S
C174 C173 1.348 . S
C174 C175 1.442 . S
C174 H196 0.930 . S
C175 C174 1.442 . S
C175 C176 1.381 . S
C175 H197 0.931 . S
C176 C175 1.381 . S
C176 C177 1.321 . S
C177 C176 1.321 . S
C177 C178 1.403 . S
C177 H198 0.934 . S
C178 C173 1.413 . S
C178 C177 1.403 . S
C178 H199 0.930 . S
C179 O190 1.275 . S
C179 O191 1.256 . S
O180 Ho160 2.322 . S
O180 C162 1.259 . S
O181 Ho161 2.346 . S
O181 C162 1.268 . S
O182 Ho160 2.378 . S
O182 C163 1.215 . S
O183 Ho160 2.524 . S
O183 C163 1.289 . S
O184 Ho160 2.381 . S
O184 C170 1.275 . S
O185 Ho160 2.669 . S
O185 Ho161 2.305 . S
O185 C170 1.256 . S
O186 Ho161 2.322 . S
O186 C171 1.259 . S
O187 Ho160 2.346 . S
O187 C171 1.268 . S
O188 Ho161 2.378 . S
O188 C172 1.215 . S
O189 Ho161 2.524 . S
O189 C172 1.289 . S
O190 Ho161 2.381 . S
O190 C179 1.275 . S
O191 Ho160 2.305 . S
O191 Ho161 2.669 . S
O191 C179 1.256 . S
H192 C165 0.930 . S
H193 C166 0.931 . S
H194 C168 0.934 . S
H195 C169 0.930 . S
H196 C174 0.930 . S
H197 C175 0.931 . S
H198 C177 0.934 . S
H199 C178 0.930 . S
Ho200 C203 2.811 . S
Ho200 O220 2.322 . S
Ho200 O222 2.378 . S
Ho200 O223 2.524 . S
Ho200 O224 2.381 . S
Ho200 O225 2.669 . S
Ho200 O227 2.346 . S
Ho200 O231 2.305 . S
Ho201 C212 2.811 . S
Ho201 O221 2.346 . S
Ho201 O225 2.305 . S
Ho201 O226 2.322 . S
Ho201 O228 2.378 . S
Ho201 O229 2.524 . S
Ho201 O230 2.381 . S
Ho201 O231 2.669 . S
C202 O220 1.259 . S
C202 O221 1.268 . S
C203 Ho200 2.811 . S
C203 C204 1.488 . S
C203 O222 1.215 . S
C203 O223 1.289 . S
C204 C203 1.488 . S
C204 C205 1.348 . S
C204 C209 1.413 . S
C205 C204 1.348 . S
C205 C206 1.442 . S
C205 H232 0.930 . S
C206 C205 1.442 . S
C206 C207 1.381 . S
C206 H233 0.931 . S
C207 C206 1.381 . S
C207 C208 1.321 . S
C208 C207 1.321 . S
C208 C209 1.403 . S
C208 H234 0.934 . S
C209 C204 1.413 . S
C209 C208 1.403 . S
C209 H235 0.930 . S
C210 O224 1.275 . S
C210 O225 1.256 . S
C211 O226 1.259 . S
C211 O227 1.268 . S
C212 Ho201 2.811 . S
C212 C213 1.488 . S
C212 O228 1.215 . S
C212 O229 1.289 . S
C213 C212 1.488 . S
C213 C214 1.348 . S
C213 C218 1.413 . S
C214 C213 1.348 . S
C214 C215 1.442 . S
C214 H236 0.930 . S
C215 C214 1.442 . S
C215 C216 1.381 . S
C215 H237 0.931 . S
C216 C215 1.381 . S
C216 C217 1.321 . S
C217 C216 1.321 . S
C217 C218 1.403 . S
C217 H238 0.934 . S
C218 C213 1.413 . S
C218 C217 1.403 . S
C218 H239 0.930 . S
C219 O230 1.275 . S
C219 O231 1.256 . S
O220 Ho200 2.322 . S
O220 C202 1.259 . S
O221 Ho201 2.346 . S
O221 C202 1.268 . S
O222 Ho200 2.378 . S
O222 C203 1.215 . S
O223 Ho200 2.524 . S
O223 C203 1.289 . S
O224 Ho200 2.381 . S
O224 C210 1.275 . S
O225 Ho200 2.669 . S
O225 Ho201 2.305 . S
O225 C210 1.256 . S
O226 Ho201 2.322 . S
O226 C211 1.259 . S
O227 Ho200 2.346 . S
O227 C211 1.268 . S
O228 Ho201 2.378 . S
O228 C212 1.215 . S
O229 Ho201 2.524 . S
O229 C212 1.289 . S
O230 Ho201 2.381 . S
O230 C219 1.275 . S
O231 Ho200 2.305 . S
O231 Ho201 2.669 . S
O231 C219 1.256 . S
H232 C205 0.930 . S
H233 C206 0.931 . S
H234 C208 0.934 . S
H235 C209 0.930 . S
H236 C214 0.930 . S
H237 C215 0.931 . S
H238 C217 0.934 . S
H239 C218 0.930 . S
Ho240 C243 2.811 . S
Ho240 O260 2.322 . S
Ho240 O262 2.378 . S
Ho240 O263 2.524 . S
Ho240 O264 2.381 . S
Ho240 O265 2.669 . S
Ho240 O267 2.346 . S
Ho240 O271 2.305 . S
Ho241 C252 2.811 . S
Ho241 O261 2.346 . S
Ho241 O265 2.305 . S
Ho241 O266 2.322 . S
Ho241 O268 2.378 . S
Ho241 O269 2.524 . S
Ho241 O270 2.381 . S
Ho241 O271 2.669 . S
C242 O260 1.259 . S
C242 O261 1.268 . S
C243 Ho240 2.811 . S
C243 C244 1.488 . S
C243 O262 1.215 . S
C243 O263 1.289 . S
C244 C243 1.488 . S
C244 C245 1.348 . S
C244 C249 1.413 . S
C245 C244 1.348 . S
C245 C246 1.442 . S
C245 H272 0.930 . S
C246 C245 1.442 . S
C246 C247 1.381 . S
C246 H273 0.931 . S
C247 C246 1.381 . S
C247 C248 1.321 . S
C248 C247 1.321 . S
C248 C249 1.403 . S
C248 H274 0.934 . S
C249 C244 1.413 . S
C249 C248 1.403 . S
C249 H275 0.930 . S
C250 O264 1.275 . S
C250 O265 1.256 . S
C251 O266 1.259 . S
C251 O267 1.268 . S
C252 Ho241 2.811 . S
C252 C253 1.488 . S
C252 O268 1.215 . S
C252 O269 1.289 . S
C253 C252 1.488 . S
C253 C254 1.348 . S
C253 C258 1.413 . S
C254 C253 1.348 . S
C254 C255 1.442 . S
C254 H276 0.930 . S
C255 C254 1.442 . S
C255 C256 1.381 . S
C255 H277 0.931 . S
C256 C255 1.381 . S
C256 C257 1.321 . S
C257 C256 1.321 . S
C257 C258 1.403 . S
C257 H278 0.934 . S
C258 C253 1.413 . S
C258 C257 1.403 . S
C258 H279 0.930 . S
C259 O270 1.275 . S
C259 O271 1.256 . S
O260 Ho240 2.322 . S
O260 C242 1.259 . S
O261 Ho241 2.346 . S
O261 C242 1.268 . S
O262 Ho240 2.378 . S
O262 C243 1.215 . S
O263 Ho240 2.524 . S
O263 C243 1.289 . S
O264 Ho240 2.381 . S
O264 C250 1.275 . S
O265 Ho240 2.669 . S
O265 Ho241 2.305 . S
O265 C250 1.256 . S
O266 Ho241 2.322 . S
O266 C251 1.259 . S
O267 Ho240 2.346 . S
O267 C251 1.268 . S
O268 Ho241 2.378 . S
O268 C252 1.215 . S
O269 Ho241 2.524 . S
O269 C252 1.289 . S
O270 Ho241 2.381 . S
O270 C259 1.275 . S
O271 Ho240 2.305 . S
O271 Ho241 2.669 . S
O271 C259 1.256 . S
H272 C245 0.930 . S
H273 C246 0.931 . S
H274 C248 0.934 . S
H275 C249 0.930 . S
H276 C254 0.930 . S
H277 C255 0.931 . S
H278 C257 0.934 . S
H279 C258 0.930 . S
Ho280 C283 2.811 . S
Ho280 O300 2.322 1_655 S
Ho280 O302 2.378 . S
Ho280 O303 2.524 . S
Ho280 O304 2.381 1_655 S
Ho280 O305 2.669 1_655 S
Ho280 O307 2.346 . S
Ho280 O311 2.305 . S
Ho281 C292 2.811 . S
Ho281 O301 2.346 . S
Ho281 O305 2.305 . S
Ho281 O306 2.322 1_455 S
Ho281 O308 2.378 . S
Ho281 O309 2.524 . S
Ho281 O310 2.381 1_455 S
Ho281 O311 2.669 1_455 S
C282 O300 1.259 . S
C282 O301 1.268 . S
C283 Ho280 2.811 . S
C283 C284 1.488 . S
C283 O302 1.215 . S
C283 O303 1.289 . S
C284 C283 1.488 . S
C284 C285 1.348 . S
C284 C289 1.413 . S
C285 C284 1.348 . S
C285 C286 1.442 . S
C285 H312 0.930 . S
C286 C285 1.442 . S
C286 C287 1.381 . S
C286 H313 0.931 . S
C287 C286 1.381 . S
C287 C288 1.321 . S
C288 C287 1.321 . S
C288 C289 1.403 . S
C288 H314 0.934 . S
C289 C284 1.413 . S
C289 C288 1.403 . S
C289 H315 0.930 . S
C290 O304 1.275 . S
C290 O305 1.256 . S
C291 O306 1.259 . S
C291 O307 1.268 . S
C292 Ho281 2.811 . S
C292 C293 1.488 . S
C292 O308 1.215 . S
C292 O309 1.289 . S
C293 C292 1.488 . S
C293 C294 1.348 . S
C293 C298 1.413 . S
C294 C293 1.348 . S
C294 C295 1.442 . S
C294 H316 0.930 . S
C295 C294 1.442 . S
C295 C296 1.381 . S
C295 H317 0.931 . S
C296 C295 1.381 . S
C296 C297 1.321 . S
C297 C296 1.321 . S
C297 C298 1.403 . S
C297 H318 0.934 . S
C298 C293 1.413 . S
C298 C297 1.403 . S
C298 H319 0.930 . S
C299 O310 1.275 . S
C299 O311 1.256 . S
O300 Ho280 2.322 1_455 S
O300 C282 1.259 . S
O301 Ho281 2.346 . S
O301 C282 1.268 . S
O302 Ho280 2.378 . S
O302 C283 1.215 . S
O303 Ho280 2.524 . S
O303 C283 1.289 . S
O304 Ho280 2.381 1_455 S
O304 C290 1.275 . S
O305 Ho280 2.669 1_455 S
O305 Ho281 2.305 . S
O305 C290 1.256 . S
O306 Ho281 2.322 1_655 S
O306 C291 1.259 . S
O307 Ho280 2.346 . S
O307 C291 1.268 . S
O308 Ho281 2.378 . S
O308 C292 1.215 . S
O309 Ho281 2.524 . S
O309 C292 1.289 . S
O310 Ho281 2.381 1_655 S
O310 C299 1.275 . S
O311 Ho280 2.305 . S
O311 Ho281 2.669 1_655 S
O311 C299 1.256 . S
H312 C285 0.930 . S
H313 C286 0.931 . S
H314 C288 0.934 . S
H315 C289 0.930 . S
H316 C294 0.930 . S
H317 C295 0.931 . S
H318 C297 0.934 . S
H319 C298 0.930 . S
Ho320 C323 2.811 . S
Ho320 O340 2.322 1_556 S
Ho320 O342 2.378 . S
Ho320 O343 2.524 . S
Ho320 O344 2.381 . S
Ho320 O345 2.669 . S
Ho320 O347 2.346 . S
Ho320 O351 2.305 1_556 S
Ho321 C332 2.811 . S
Ho321 O341 2.346 . S
Ho321 O345 2.305 1_554 S
Ho321 O346 2.322 1_554 S
Ho321 O348 2.378 . S
Ho321 O349 2.524 . S
Ho321 O350 2.381 . S
Ho321 O351 2.669 . S
C322 O340 1.259 . S
C322 O341 1.268 . S
C323 Ho320 2.811 . S
C323 C324 1.488 . S
C323 O342 1.215 . S
C323 O343 1.289 . S
C324 C323 1.488 . S
C324 C325 1.348 1_556 S
C324 C329 1.413 . S
C325 C324 1.348 1_554 S
C325 C326 1.442 . S
C325 H352 0.930 . S
C326 C325 1.442 . S
C326 C327 1.381 1_554 S
C326 H353 0.931 . S
C327 C326 1.381 1_556 S
C327 C328 1.321 . S
C328 C327 1.321 . S
C328 C329 1.403 . S
C328 H354 0.934 . S
C329 C324 1.413 . S
C329 C328 1.403 . S
C329 H355 0.930 . S
C330 O344 1.275 . S
C330 O345 1.256 . S
C331 O346 1.259 . S
C331 O347 1.268 . S
C332 Ho321 2.811 . S
C332 C333 1.488 . S
C332 O348 1.215 . S
C332 O349 1.289 . S
C333 C332 1.488 . S
C333 C334 1.348 1_554 S
C333 C338 1.413 . S
C334 C333 1.348 1_556 S
C334 C335 1.442 . S
C334 H356 0.930 . S
C335 C334 1.442 . S
C335 C336 1.381 1_556 S
C335 H357 0.931 . S
C336 C335 1.381 1_554 S
C336 C337 1.321 . S
C337 C336 1.321 . S
C337 C338 1.403 . S
C337 H358 0.934 . S
C338 C333 1.413 . S
C338 C337 1.403 . S
C338 H359 0.930 . S
C339 O350 1.275 . S
C339 O351 1.256 . S
O340 Ho320 2.322 1_554 S
O340 C322 1.259 . S
O341 Ho321 2.346 . S
O341 C322 1.268 . S
O342 Ho320 2.378 . S
O342 C323 1.215 . S
O343 Ho320 2.524 . S
O343 C323 1.289 . S
O344 Ho320 2.381 . S
O344 C330 1.275 . S
O345 Ho320 2.669 . S
O345 Ho321 2.305 1_556 S
O345 C330 1.256 . S
O346 Ho321 2.322 1_556 S
O346 C331 1.259 . S
O347 Ho320 2.346 . S
O347 C331 1.268 . S
O348 Ho321 2.378 . S
O348 C332 1.215 . S
O349 Ho321 2.524 . S
O349 C332 1.289 . S
O350 Ho321 2.381 . S
O350 C339 1.275 . S
O351 Ho320 2.305 1_554 S
O351 Ho321 2.669 . S
O351 C339 1.256 . S
H352 C325 0.930 . S
H353 C326 0.931 . S
H354 C328 0.934 . S
H355 C329 0.930 . S
H356 C334 0.930 . S
H357 C335 0.931 . S
H358 C337 0.934 . S
H359 C338 0.930 . S
Ho360 C363 2.811 1_565 S
Ho360 O380 2.322 1_565 S
Ho360 O382 2.378 . S
Ho360 O383 2.524 1_565 S
Ho360 O384 2.381 . S
Ho360 O385 2.669 . S
Ho360 O387 2.346 . S
Ho360 O391 2.305 1_565 S
Ho361 C372 2.811 1_545 S
Ho361 O381 2.346 . S
Ho361 O385 2.305 1_545 S
Ho361 O386 2.322 1_545 S
Ho361 O388 2.378 . S
Ho361 O389 2.524 1_545 S
Ho361 O390 2.381 . S
Ho361 O391 2.669 . S
C362 O380 1.259 . S
C362 O381 1.268 . S
C363 Ho360 2.811 1_545 S
C363 C364 1.488 . S
C363 O382 1.215 1_545 S
C363 O383 1.289 . S
C364 C363 1.488 . S
C364 C365 1.348 . S
C364 C369 1.413 1_545 S
C365 C364 1.348 . S
C365 C366 1.442 . S
C365 H392 0.930 . S
C366 C365 1.442 . S
C366 C367 1.381 . S
C366 H393 0.931 . S
C367 C366 1.381 . S
C367 C368 1.321 1_545 S
C368 C367 1.321 1_565 S
C368 C369 1.403 . S
C368 H394 0.934 . S
C369 C364 1.413 1_565 S
C369 C368 1.403 . S
C369 H395 0.930 . S
C370 O384 1.275 . S
C370 O385 1.256 . S
C371 O386 1.259 . S
C371 O387 1.268 . S
C372 Ho361 2.811 1_565 S
C372 C373 1.488 . S
C372 O388 1.215 1_565 S
C372 O389 1.289 . S
C373 C372 1.488 . S
C373 C374 1.348 . S
C373 C378 1.413 1_565 S
C374 C373 1.348 . S
C374 C375 1.442 . S
C374 H396 0.930 . S
C375 C374 1.442 . S
C375 C376 1.381 . S
C375 H397 0.931 . S
C376 C375 1.381 . S
C376 C377 1.321 1_565 S
C377 C376 1.321 1_545 S
C377 C378 1.403 . S
C377 H398 0.934 . S
C378 C373 1.413 1_545 S
C378 C377 1.403 . S
C378 H399 0.930 . S
C379 O390 1.275 . S
C379 O391 1.256 . S
O380 Ho360 2.322 1_545 S
O380 C362 1.259 . S
O381 Ho361 2.346 . S
O381 C362 1.268 . S
O382 Ho360 2.378 . S
O382 C363 1.215 1_565 S
O383 Ho360 2.524 1_545 S
O383 C363 1.289 . S
O384 Ho360 2.381 . S
O384 C370 1.275 . S
O385 Ho360 2.669 . S
O385 Ho361 2.305 1_565 S
O385 C370 1.256 . S
O386 Ho361 2.322 1_565 S
O386 C371 1.259 . S
O387 Ho360 2.346 . S
O387 C371 1.268 . S
O388 Ho361 2.378 . S
O388 C372 1.215 1_545 S
O389 Ho361 2.524 1_565 S
O389 C372 1.289 . S
O390 Ho361 2.381 . S
O390 C379 1.275 . S
O391 Ho360 2.305 1_545 S
O391 Ho361 2.669 . S
O391 C379 1.256 . S
H392 C365 0.930 . S
H393 C366 0.931 . S
H394 C368 0.934 . S
H395 C369 0.930 . S
H396 C374 0.930 . S
H397 C375 0.931 . S
H398 C377 0.934 . S
H399 C378 0.930 . S
Ho400 C403 2.811 . S
Ho400 O420 2.322 . S
Ho400 O422 2.378 . S
Ho400 O423 2.524 . S
Ho400 O424 2.381 . S
Ho400 O425 2.669 . S
Ho400 O427 2.346 . S
Ho400 O431 2.305 . S
Ho401 C412 2.811 . S
Ho401 O421 2.346 . S
Ho401 O425 2.305 . S
Ho401 O426 2.322 . S
Ho401 O428 2.378 . S
Ho401 O429 2.524 . S
Ho401 O430 2.381 . S
Ho401 O431 2.669 . S
C402 O420 1.259 . S
C402 O421 1.268 . S
C403 Ho400 2.811 . S
C403 C404 1.488 . S
C403 O422 1.215 . S
C403 O423 1.289 . S
C404 C403 1.488 . S
C404 C405 1.348 . S
C404 C409 1.413 . S
C405 C404 1.348 . S
C405 C406 1.442 . S
C405 H432 0.930 . S
C406 C405 1.442 . S
C406 C407 1.381 . S
C406 H433 0.931 . S
C407 C406 1.381 . S
C407 C408 1.321 . S
C408 C407 1.321 . S
C408 C409 1.403 . S
C408 H434 0.934 . S
C409 C404 1.413 . S
C409 C408 1.403 . S
C409 H435 0.930 . S
C410 O424 1.275 . S
C410 O425 1.256 . S
C411 O426 1.259 . S
C411 O427 1.268 . S
C412 Ho401 2.811 . S
C412 C413 1.488 . S
C412 O428 1.215 . S
C412 O429 1.289 . S
C413 C412 1.488 . S
C413 C414 1.348 . S
C413 C418 1.413 . S
C414 C413 1.348 . S
C414 C415 1.442 . S
C414 H436 0.930 . S
C415 C414 1.442 . S
C415 C416 1.381 . S
C415 H437 0.931 . S
C416 C415 1.381 . S
C416 C417 1.321 . S
C417 C416 1.321 . S
C417 C418 1.403 . S
C417 H438 0.934 . S
C418 C413 1.413 . S
C418 C417 1.403 . S
C418 H439 0.930 . S
C419 O430 1.275 . S
C419 O431 1.256 . S
O420 Ho400 2.322 . S
O420 C402 1.259 . S
O421 Ho401 2.346 . S
O421 C402 1.268 . S
O422 Ho400 2.378 . S
O422 C403 1.215 . S
O423 Ho400 2.524 . S
O423 C403 1.289 . S
O424 Ho400 2.381 . S
O424 C410 1.275 . S
O425 Ho400 2.669 . S
O425 Ho401 2.305 . S
O425 C410 1.256 . S
O426 Ho401 2.322 . S
O426 C411 1.259 . S
O427 Ho400 2.346 . S
O427 C411 1.268 . S
O428 Ho401 2.378 . S
O428 C412 1.215 . S
O429 Ho401 2.524 . S
O429 C412 1.289 . S
O430 Ho401 2.381 . S
O430 C419 1.275 . S
O431 Ho400 2.305 . S
O431 Ho401 2.669 . S
O431 C419 1.256 . S
H432 C405 0.930 . S
H433 C406 0.931 . S
H434 C408 0.934 . S
H435 C409 0.930 . S
H436 C414 0.930 . S
H437 C415 0.931 . S
H438 C417 0.934 . S
H439 C418 0.930 . S
Ho440 C443 2.811 . S
Ho440 O460 2.322 1_455 S
Ho440 O462 2.378 . S
Ho440 O463 2.524 1_455 S
Ho440 O464 2.381 . S
Ho440 O465 2.669 . S
Ho440 O467 2.346 . S
Ho440 O471 2.305 1_455 S
Ho441 C452 2.811 . S
Ho441 O461 2.346 . S
Ho441 O465 2.305 1_655 S
Ho441 O466 2.322 1_655 S
Ho441 O468 2.378 . S
Ho441 O469 2.524 1_655 S
Ho441 O470 2.381 . S
Ho441 O471 2.669 . S
C442 O460 1.259 . S
C442 O461 1.268 . S
C443 Ho440 2.811 . S
C443 C444 1.488 1_455 S
C443 O462 1.215 . S
C443 O463 1.289 1_455 S
C444 C443 1.488 1_655 S
C444 C445 1.348 . S
C444 C449 1.413 1_655 S
C445 C444 1.348 . S
C445 C446 1.442 . S
C445 H472 0.930 . S
C446 C445 1.442 . S
C446 C447 1.381 . S
C446 H473 0.931 . S
C447 C446 1.381 . S
C447 C448 1.321 1_655 S
C448 C447 1.321 1_455 S
C448 C449 1.403 . S
C448 H474 0.934 . S
C449 C444 1.413 1_455 S
C449 C448 1.403 . S
C449 H475 0.930 . S
C450 O464 1.275 . S
C450 O465 1.256 . S
C451 O466 1.259 . S
C451 O467 1.268 . S
C452 Ho441 2.811 . S
C452 C453 1.488 1_655 S
C452 O468 1.215 . S
C452 O469 1.289 1_655 S
C453 C452 1.488 1_455 S
C453 C454 1.348 . S
C453 C458 1.413 1_455 S
C454 C453 1.348 . S
C454 C455 1.442 . S
C454 H476 0.930 . S
C455 C454 1.442 . S
C455 C456 1.381 . S
C455 H477 0.931 . S
C456 C455 1.381 . S
C456 C457 1.321 1_455 S
C457 C456 1.321 1_655 S
C457 C458 1.403 . S
C457 H478 0.934 . S
C458 C453 1.413 1_655 S
C458 C457 1.403 . S
C458 H479 0.930 . S
C459 O470 1.275 . S
C459 O471 1.256 . S
O460 Ho440 2.322 1_655 S
O460 C442 1.259 . S
O461 Ho441 2.346 . S
O461 C442 1.268 . S
O462 Ho440 2.378 . S
O462 C443 1.215 . S
O463 Ho440 2.524 1_655 S
O463 C443 1.289 1_655 S
O464 Ho440 2.381 . S
O464 C450 1.275 . S
O465 Ho440 2.669 . S
O465 Ho441 2.305 1_455 S
O465 C450 1.256 . S
O466 Ho441 2.322 1_455 S
O466 C451 1.259 . S
O467 Ho440 2.346 . S
O467 C451 1.268 . S
O468 Ho441 2.378 . S
O468 C452 1.215 . S
O469 Ho441 2.524 1_455 S
O469 C452 1.289 1_455 S
O470 Ho441 2.381 . S
O470 C459 1.275 . S
O471 Ho440 2.305 1_655 S
O471 Ho441 2.669 . S
O471 C459 1.256 . S
H472 C445 0.930 . S
H473 C446 0.931 . S
H474 C448 0.934 . S
H475 C449 0.930 . S
H476 C454 0.930 . S
H477 C455 0.931 . S
H478 C457 0.934 . S
H479 C458 0.930 . S
Ho480 C483 2.811 . S
Ho480 O500 2.322 . S
Ho480 O502 2.378 . S
Ho480 O503 2.524 . S
Ho480 O504 2.381 . S
Ho480 O505 2.669 . S
Ho480 O507 2.346 . S
Ho480 O511 2.305 . S
Ho481 C492 2.811 . S
Ho481 O501 2.346 . S
Ho481 O505 2.305 . S
Ho481 O506 2.322 . S
Ho481 O508 2.378 . S
Ho481 O509 2.524 . S
Ho481 O510 2.381 . S
Ho481 O511 2.669 . S
C482 O500 1.259 . S
C482 O501 1.268 . S
C483 Ho480 2.811 . S
C483 C484 1.488 . S
C483 O502 1.215 . S
C483 O503 1.289 . S
C484 C483 1.488 . S
C484 C485 1.348 . S
C484 C489 1.413 . S
C485 C484 1.348 . S
C485 C486 1.442 . S
C485 H512 0.930 . S
C486 C485 1.442 . S
C486 C487 1.381 . S
C486 H513 0.931 . S
C487 C486 1.381 . S
C487 C488 1.321 . S
C488 C487 1.321 . S
C488 C489 1.403 . S
C488 H514 0.934 . S
C489 C484 1.413 . S
C489 C488 1.403 . S
C489 H515 0.930 . S
C490 O504 1.275 . S
C490 O505 1.256 . S
C491 O506 1.259 . S
C491 O507 1.268 . S
C492 Ho481 2.811 . S
C492 C493 1.488 . S
C492 O508 1.215 . S
C492 O509 1.289 . S
C493 C492 1.488 . S
C493 C494 1.348 . S
C493 C498 1.413 . S
C494 C493 1.348 . S
C494 C495 1.442 . S
C494 H516 0.930 . S
C495 C494 1.442 . S
C495 C496 1.381 . S
C495 H517 0.931 . S
C496 C495 1.381 . S
C496 C497 1.321 . S
C497 C496 1.321 . S
C497 C498 1.403 . S
C497 H518 0.934 . S
C498 C493 1.413 . S
C498 C497 1.403 . S
C498 H519 0.930 . S
C499 O510 1.275 . S
C499 O511 1.256 . S
O500 Ho480 2.322 . S
O500 C482 1.259 . S
O501 Ho481 2.346 . S
O501 C482 1.268 . S
O502 Ho480 2.378 . S
O502 C483 1.215 . S
O503 Ho480 2.524 . S
O503 C483 1.289 . S
O504 Ho480 2.381 . S
O504 C490 1.275 . S
O505 Ho480 2.669 . S
O505 Ho481 2.305 . S
O505 C490 1.256 . S
O506 Ho481 2.322 . S
O506 C491 1.259 . S
O507 Ho480 2.346 . S
O507 C491 1.268 . S
O508 Ho481 2.378 . S
O508 C492 1.215 . S
O509 Ho481 2.524 . S
O509 C492 1.289 . S
O510 Ho481 2.381 . S
O510 C499 1.275 . S
O511 Ho480 2.305 . S
O511 Ho481 2.669 . S
O511 C499 1.256 . S
H512 C485 0.930 . S
H513 C486 0.931 . S
H514 C488 0.934 . S
H515 C489 0.930 . S
H516 C494 0.930 . S
H517 C495 0.931 . S
H518 C497 0.934 . S
H519 C498 0.930 . S
Ho520 C523 2.811 . S
Ho520 O540 2.322 1_556 S
Ho520 O542 2.378 . S
Ho520 O543 2.524 . S
Ho520 O544 2.381 . S
Ho520 O545 2.669 . S
Ho520 O547 2.346 . S
Ho520 O551 2.305 1_556 S
Ho521 C532 2.811 . S
Ho521 O541 2.346 . S
Ho521 O545 2.305 1_554 S
Ho521 O546 2.322 1_554 S
Ho521 O548 2.378 . S
Ho521 O549 2.524 . S
Ho521 O550 2.381 . S
Ho521 O551 2.669 . S
C522 O540 1.259 . S
C522 O541 1.268 . S
C523 Ho520 2.811 . S
C523 C524 1.488 . S
C523 O542 1.215 . S
C523 O543 1.289 . S
C524 C523 1.488 . S
C524 C525 1.348 1_556 S
C524 C529 1.413 . S
C525 C524 1.348 1_554 S
C525 C526 1.442 . S
C525 H552 0.930 . S
C526 C525 1.442 . S
C526 C527 1.381 1_554 S
C526 H553 0.931 . S
C527 C526 1.381 1_556 S
C527 C528 1.321 . S
C528 C527 1.321 . S
C528 C529 1.403 . S
C528 H554 0.934 . S
C529 C524 1.413 . S
C529 C528 1.403 . S
C529 H555 0.930 . S
C530 O544 1.275 . S
C530 O545 1.256 . S
C531 O546 1.259 . S
C531 O547 1.268 . S
C532 Ho521 2.811 . S
C532 C533 1.488 . S
C532 O548 1.215 . S
C532 O549 1.289 . S
C533 C532 1.488 . S
C533 C534 1.348 1_554 S
C533 C538 1.413 . S
C534 C533 1.348 1_556 S
C534 C535 1.442 . S
C534 H556 0.930 . S
C535 C534 1.442 . S
C535 C536 1.381 1_556 S
C535 H557 0.931 . S
C536 C535 1.381 1_554 S
C536 C537 1.321 . S
C537 C536 1.321 . S
C537 C538 1.403 . S
C537 H558 0.934 . S
C538 C533 1.413 . S
C538 C537 1.403 . S
C538 H559 0.930 . S
C539 O550 1.275 . S
C539 O551 1.256 . S
O540 Ho520 2.322 1_554 S
O540 C522 1.259 . S
O541 Ho521 2.346 . S
O541 C522 1.268 . S
O542 Ho520 2.378 . S
O542 C523 1.215 . S
O543 Ho520 2.524 . S
O543 C523 1.289 . S
O544 Ho520 2.381 . S
O544 C530 1.275 . S
O545 Ho520 2.669 . S
O545 Ho521 2.305 1_556 S
O545 C530 1.256 . S
O546 Ho521 2.322 1_556 S
O546 C531 1.259 . S
O547 Ho520 2.346 . S
O547 C531 1.268 . S
O548 Ho521 2.378 . S
O548 C532 1.215 . S
O549 Ho521 2.524 . S
O549 C532 1.289 . S
O550 Ho521 2.381 . S
O550 C539 1.275 . S
O551 Ho520 2.305 1_554 S
O551 Ho521 2.669 . S
O551 C539 1.256 . S
H552 C525 0.930 . S
H553 C526 0.931 . S
H554 C528 0.934 . S
H555 C529 0.930 . S
H556 C534 0.930 . S
H557 C535 0.931 . S
H558 C537 0.934 . S
H559 C538 0.930 . S
Ho560 C563 2.811 . S
Ho560 O580 2.322 . S
Ho560 O582 2.378 . S
Ho560 O583 2.524 . S
Ho560 O584 2.381 . S
Ho560 O585 2.669 . S
Ho560 O587 2.346 1_565 S
Ho560 O591 2.305 1_565 S
Ho561 C572 2.811 . S
Ho561 O581 2.346 1_545 S
Ho561 O585 2.305 1_545 S
Ho561 O586 2.322 . S
Ho561 O588 2.378 . S
Ho561 O589 2.524 . S
Ho561 O590 2.381 . S
Ho561 O591 2.669 . S
C562 O580 1.259 . S
C562 O581 1.268 . S
C563 Ho560 2.811 . S
C563 C564 1.488 . S
C563 O582 1.215 . S
C563 O583 1.289 . S
C564 C563 1.488 . S
C564 C565 1.348 . S
C564 C569 1.413 . S
C565 C564 1.348 . S
C565 C566 1.442 . S
C565 H592 0.930 . S
C566 C565 1.442 . S
C566 C567 1.381 . S
C566 H593 0.931 . S
C567 C566 1.381 . S
C567 C568 1.321 . S
C568 C567 1.321 . S
C568 C569 1.403 . S
C568 H594 0.934 . S
C569 C564 1.413 . S
C569 C568 1.403 . S
C569 H595 0.930 . S
C570 O584 1.275 . S
C570 O585 1.256 . S
C571 O586 1.259 . S
C571 O587 1.268 . S
C572 Ho561 2.811 . S
C572 C573 1.488 . S
C572 O588 1.215 . S
C572 O589 1.289 . S
C573 C572 1.488 . S
C573 C574 1.348 . S
C573 C578 1.413 . S
C574 C573 1.348 . S
C574 C575 1.442 . S
C574 H596 0.930 . S
C575 C574 1.442 . S
C575 C576 1.381 . S
C575 H597 0.931 . S
C576 C575 1.381 . S
C576 C577 1.321 . S
C577 C576 1.321 . S
C577 C578 1.403 . S
C577 H598 0.934 . S
C578 C573 1.413 . S
C578 C577 1.403 . S
C578 H599 0.930 . S
C579 O590 1.275 . S
C579 O591 1.256 . S
O580 Ho560 2.322 . S
O580 C562 1.259 . S
O581 Ho561 2.346 1_565 S
O581 C562 1.268 . S
O582 Ho560 2.378 . S
O582 C563 1.215 . S
O583 Ho560 2.524 . S
O583 C563 1.289 . S
O584 Ho560 2.381 . S
O584 C570 1.275 . S
O585 Ho560 2.669 . S
O585 Ho561 2.305 1_565 S
O585 C570 1.256 . S
O586 Ho561 2.322 . S
O586 C571 1.259 . S
O587 Ho560 2.346 1_545 S
O587 C571 1.268 . S
O588 Ho561 2.378 . S
O588 C572 1.215 . S
O589 Ho561 2.524 . S
O589 C572 1.289 . S
O590 Ho561 2.381 . S
O590 C579 1.275 . S
O591 Ho560 2.305 1_545 S
O591 Ho561 2.669 . S
O591 C579 1.256 . S
H592 C565 0.930 . S
H593 C566 0.931 . S
H594 C568 0.934 . S
H595 C569 0.930 . S
H596 C574 0.930 . S
H597 C575 0.931 . S
H598 C577 0.934 . S
H599 C578 0.930 . S
Ho600 C603 2.811 . S
Ho600 O620 2.322 . S
Ho600 O622 2.378 . S
Ho600 O623 2.524 . S
Ho600 O624 2.381 . S
Ho600 O625 2.669 . S
Ho600 O627 2.346 . S
Ho600 O631 2.305 1_554 S
Ho601 C612 2.811 . S
Ho601 O621 2.346 . S
Ho601 O625 2.305 1_556 S
Ho601 O626 2.322 . S
Ho601 O628 2.378 . S
Ho601 O629 2.524 . S
Ho601 O630 2.381 . S
Ho601 O631 2.669 . S
C602 O620 1.259 1_556 S
C602 O621 1.268 . S
C603 Ho600 2.811 . S
C603 C604 1.488 . S
C603 O622 1.215 . S
C603 O623 1.289 . S
C604 C603 1.488 . S
C604 C605 1.348 . S
C604 C609 1.413 . S
C605 C604 1.348 . S
C605 C606 1.442 . S
C605 H632 0.930 . S
C606 C605 1.442 . S
C606 C607 1.381 . S
C606 H633 0.931 . S
C607 C606 1.381 . S
C607 C608 1.321 . S
C608 C607 1.321 . S
C608 C609 1.403 . S
C608 H634 0.934 . S
C609 C604 1.413 . S
C609 C608 1.403 . S
C609 H635 0.930 . S
C610 O624 1.275 . S
C610 O625 1.256 . S
C611 O626 1.259 1_554 S
C611 O627 1.268 . S
C612 Ho601 2.811 . S
C612 C613 1.488 . S
C612 O628 1.215 . S
C612 O629 1.289 . S
C613 C612 1.488 . S
C613 C614 1.348 . S
C613 C618 1.413 . S
C614 C613 1.348 . S
C614 C615 1.442 . S
C614 H636 0.930 . S
C615 C614 1.442 . S
C615 C616 1.381 . S
C615 H637 0.931 . S
C616 C615 1.381 . S
C616 C617 1.321 . S
C617 C616 1.321 . S
C617 C618 1.403 . S
C617 H638 0.934 . S
C618 C613 1.413 . S
C618 C617 1.403 . S
C618 H639 0.930 . S
C619 O630 1.275 . S
C619 O631 1.256 . S
O620 Ho600 2.322 . S
O620 C602 1.259 1_554 S
O621 Ho601 2.346 . S
O621 C602 1.268 . S
O622 Ho600 2.378 . S
O622 C603 1.215 . S
O623 Ho600 2.524 . S
O623 C603 1.289 . S
O624 Ho600 2.381 . S
O624 C610 1.275 . S
O625 Ho600 2.669 . S
O625 Ho601 2.305 1_554 S
O625 C610 1.256 . S
O626 Ho601 2.322 . S
O626 C611 1.259 1_556 S
O627 Ho600 2.346 . S
O627 C611 1.268 . S
O628 Ho601 2.378 . S
O628 C612 1.215 . S
O629 Ho601 2.524 . S
O629 C612 1.289 . S
O630 Ho601 2.381 . S
O630 C619 1.275 . S
O631 Ho600 2.305 1_556 S
O631 Ho601 2.669 . S
O631 C619 1.256 . S
H632 C605 0.930 . S
H633 C606 0.931 . S
H634 C608 0.934 . S
H635 C609 0.930 . S
H636 C614 0.930 . S
H637 C615 0.931 . S
H638 C617 0.934 . S
H639 C618 0.930 . S
C640 C641 1.387 1_455 S
C640 H644 0.950 1_554 S
C640 C649 1.390 . S
C641 C640 1.387 1_655 S
C641 C643 1.387 . S
H642 C649 0.950 1_556 S
C643 C641 1.387 . S
C643 C645 1.390 . S
C643 H647 0.950 . S
H644 C640 0.950 1_556 S
C645 C643 1.390 . S
C645 C646 1.387 1_655 S
C645 H648 0.950 . S
C646 C645 1.387 1_455 S
C646 C649 1.387 . S
H647 C643 0.950 . S
H648 C645 0.950 . S
C649 C640 1.390 . S
C649 H642 0.950 1_554 S
C649 C646 1.387 . S
C650 C651 1.387 . S
C650 H654 0.950 . S
C650 C659 1.390 . S
C651 C650 1.387 . S
C651 C653 1.387 . S
H652 C659 0.950 . S
C653 C651 1.387 . S
C653 C655 1.390 . S
C653 H657 0.950 . S
H654 C650 0.950 . S
C655 C653 1.390 . S
C655 C656 1.387 . S
C655 H658 0.950 . S
C656 C655 1.387 . S
C656 C659 1.387 . S
H657 C653 0.950 . S
H658 C655 0.950 . S
C659 C650 1.390 . S
C659 H652 0.950 . S
C659 C656 1.387 . S
C660 C661 1.387 . S
C660 H664 0.950 . S
C660 C669 1.390 . S
C661 C660 1.387 . S
C661 C663 1.387 . S
H662 C669 0.950 . S
C663 C661 1.387 . S
C663 C665 1.390 . S
C663 H667 0.950 . S
H664 C660 0.950 . S
C665 C663 1.390 . S
C665 C666 1.387 . S
C665 H668 0.950 . S
C666 C665 1.387 . S
C666 C669 1.387 . S
H667 C663 0.950 . S
H668 C665 0.950 . S
C669 C660 1.390 . S
C669 H662 0.950 . S
C669 C666 1.387 . S
C670 C671 1.387 . S
C670 H674 0.950 1_556 S
C670 C679 1.390 1_545 S
C671 C670 1.387 . S
C671 C673 1.387 . S
H672 C679 0.950 1_554 S
C673 C671 1.387 . S
C673 C675 1.390 1_545 S
C673 H677 0.950 . S
H674 C670 0.950 1_554 S
C675 C673 1.390 1_565 S
C675 C676 1.387 . S
C675 H678 0.950 . S
C676 C675 1.387 . S
C676 C679 1.387 . S
H677 C673 0.950 . S
H678 C675 0.950 . S
C679 C670 1.390 1_565 S
C679 H672 0.950 1_556 S
C679 C676 1.387 . S
C680 C681 1.387 . S
C680 H684 0.950 . S
C680 C689 1.390 . S
C681 C680 1.387 . S
C681 C683 1.387 . S
H682 C689 0.950 . S
C683 C681 1.387 . S
C683 C685 1.390 1_565 S
C683 H687 0.950 1_554 S
H684 C680 0.950 . S
C685 C683 1.390 1_545 S
C685 C686 1.387 . S
C685 H688 0.950 1_554 S
C686 C685 1.387 . S
C686 C689 1.387 1_545 S
H687 C683 0.950 1_556 S
H688 C685 0.950 1_556 S
C689 C680 1.390 . S
C689 H682 0.950 . S
C689 C686 1.387 1_565 S
C690 C691 1.387 . S
C690 H694 0.950 . S
C690 C699 1.390 1_455 S
C691 C690 1.387 . S
C691 C693 1.387 . S
H692 C699 0.950 . S
C693 C691 1.387 . S
C693 C695 1.390 1_455 S
C693 H697 0.950 . S
H694 C690 0.950 . S
C695 C693 1.390 1_655 S
C695 C696 1.387 . S
C695 H698 0.950 . S
C696 C695 1.387 . S
C696 C699 1.387 . S
H697 C693 0.950 . S
H698 C695 0.950 . S
C699 C690 1.390 1_655 S
C699 H692 0.950 . S
C699 C696 1.387 . S
C700 C701 1.387 . S
C700 H704 0.950 . S
C700 C709 1.390 . S
C701 C700 1.387 . S
C701 C703 1.387 . S
H702 C709 0.950 . S
C703 C701 1.387 . S
C703 C705 1.390 . S
C703 H707 0.950 . S
H704 C700 0.950 . S
C705 C703 1.390 . S
C705 C706 1.387 . S
C705 H708 0.950 . S
C706 C705 1.387 . S
C706 C709 1.387 . S
H707 C703 0.950 . S
H708 C705 0.950 . S
C709 C700 1.390 . S
C709 H702 0.950 . S
C709 C706 1.387 . S
C710 C711 1.387 . S
C710 H714 0.950 . S
C710 C719 1.390 . S
C711 C710 1.387 . S
C711 C713 1.387 . S
H712 C719 0.950 . S
C713 C711 1.387 . S
C713 C715 1.390 . S
C713 H717 0.950 . S
H714 C710 0.950 . S
C715 C713 1.390 . S
C715 C716 1.387 . S
C715 H718 0.950 . S
C716 C715 1.387 . S
C716 C719 1.387 . S
H717 C713 0.950 . S
H718 C715 0.950 . S
C719 C710 1.390 . S
C719 H712 0.950 . S
C719 C716 1.387 . S
C720 C721 1.387 . S
C720 H724 0.950 . S
C720 C729 1.390 . S
C721 C720 1.387 . S
C721 C723 1.387 . S
H722 C729 0.950 . S
C723 C721 1.387 . S
C723 C725 1.390 . S
C723 H727 0.950 . S
H724 C720 0.950 . S
C725 C723 1.390 . S
C725 C726 1.387 . S
C725 H728 0.950 . S
C726 C725 1.387 . S
C726 C729 1.387 . S
H727 C723 0.950 . S
H728 C725 0.950 . S
C729 C720 1.390 . S
C729 H722 0.950 . S
C729 C726 1.387 . S
C730 C731 1.387 . S
C730 H734 0.950 . S
C730 C739 1.390 . S
C731 C730 1.387 . S
C731 C733 1.387 . S
H732 C739 0.950 . S
C733 C731 1.387 . S
C733 C735 1.390 . S
C733 H737 0.950 . S
H734 C730 0.950 . S
C735 C733 1.390 . S
C735 C736 1.387 . S
C735 H738 0.950 . S
C736 C735 1.387 . S
C736 C739 1.387 . S
H737 C733 0.950 . S
H738 C735 0.950 . S
C739 C730 1.390 . S
C739 H732 0.950 . S
C739 C736 1.387 . S
C740 C741 1.387 . S
C740 H744 0.950 . S
C740 C749 1.390 1_565 S
C741 C740 1.387 . S
C741 C743 1.387 . S
H742 C749 0.950 . S
C743 C741 1.387 . S
C743 C745 1.390 1_565 S
C743 H747 0.950 . S
H744 C740 0.950 . S
C745 C743 1.390 1_545 S
C745 C746 1.387 . S
C745 H748 0.950 . S
C746 C745 1.387 . S
C746 C749 1.387 . S
H747 C743 0.950 . S
H748 C745 0.950 . S
C749 C740 1.390 1_545 S
C749 H742 0.950 . S
C749 C746 1.387 . S
C750 C751 1.387 . S
C750 H754 0.950 . S
C750 C759 1.390 1_455 S
C751 C750 1.387 . S
C751 C753 1.387 . S
H752 C759 0.950 . S
C753 C751 1.387 . S
C753 C755 1.390 1_455 S
C753 H757 0.950 1_556 S
H754 C750 0.950 . S
C755 C753 1.390 1_655 S
C755 C756 1.387 . S
C755 H758 0.950 1_556 S
C756 C755 1.387 . S
C756 C759 1.387 . S
H757 C753 0.950 1_554 S
H758 C755 0.950 1_554 S
C759 C750 1.390 1_655 S
C759 H752 0.950 . S
C759 C756 1.387 . S
C760 C761 1.387 . S
C760 H764 0.950 . S
C760 C769 1.390 . S
C761 C760 1.387 . S
C761 C763 1.387 . S
H762 C769 0.950 1_554 S
C763 C761 1.387 . S
C763 C765 1.390 . S
C763 H767 0.950 . S
H764 C760 0.950 . S
C765 C763 1.390 . S
C765 C766 1.387 . S
C765 H768 0.950 . S
C766 C765 1.387 . S
C766 C769 1.387 . S
H767 C763 0.950 . S
H768 C765 0.950 . S
C769 C760 1.390 . S
C769 H762 0.950 1_556 S
C769 C766 1.387 . S
C770 C771 1.387 . S
C770 H774 0.950 . S
C770 C779 1.390 . S
C771 C770 1.387 . S
C771 C773 1.387 . S
H772 C779 0.950 . S
C773 C771 1.387 . S
C773 C775 1.390 . S
C773 H777 0.950 . S
H774 C770 0.950 . S
C775 C773 1.390 . S
C775 C776 1.387 . S
C775 H778 0.950 . S
C776 C775 1.387 . S
C776 C779 1.387 . S
H777 C773 0.950 . S
H778 C775 0.950 . S
C779 C770 1.390 . S
C779 H772 0.950 . S
C779 C776 1.387 . S
C780 C781 1.387 . S
C780 H784 0.950 . S
C780 C789 1.390 . S
C781 C780 1.387 . S
C781 C783 1.387 . S
H782 C789 0.950 . S
C783 C781 1.387 . S
C783 C785 1.390 . S
C783 H787 0.950 . S
H784 C780 0.950 . S
C785 C783 1.390 . S
C785 C786 1.387 . S
C785 H788 0.950 . S
C786 C785 1.387 . S
C786 C789 1.387 . S
H787 C783 0.950 . S
H788 C785 0.950 . S
C789 C780 1.390 . S
C789 H782 0.950 . S
C789 C786 1.387 . S
C790 C791 1.387 . S
C790 H794 0.950 . S
C790 C799 1.390 . S
C791 C790 1.387 . S
C791 C793 1.387 . S
H792 C799 0.950 . S
C793 C791 1.387 . S
C793 C795 1.390 . S
C793 H797 0.950 . S
H794 C790 0.950 . S
C795 C793 1.390 . S
C795 C796 1.387 . S
C795 H798 0.950 . S
C796 C795 1.387 . S
C796 C799 1.387 . S
H797 C793 0.950 . S
H798 C795 0.950 . S
C799 C790 1.390 . S
C799 H792 0.950 . S
C799 C796 1.387 . S
C800 C801 1.387 . S
C800 H804 0.950 . S
C800 C809 1.390 . S
C801 C800 1.387 . S
C801 C803 1.387 . S
H802 C809 0.950 . S
C803 C801 1.387 . S
C803 C805 1.390 . S
C803 H807 0.950 . S
H804 C800 0.950 . S
C805 C803 1.390 . S
C805 C806 1.387 . S
C805 H808 0.950 . S
C806 C805 1.387 . S
C806 C809 1.387 . S
H807 C803 0.950 . S
H808 C805 0.950 . S
C809 C800 1.390 . S
C809 H802 0.950 . S
C809 C806 1.387 . S
C810 C811 1.387 . S
C810 H814 0.950 . S
C810 C819 1.390 . S
C811 C810 1.387 . S
C811 C813 1.387 . S
H812 C819 0.950 . S
C813 C811 1.387 . S
C813 C815 1.390 . S
C813 H817 0.950 . S
H814 C810 0.950 . S
C815 C813 1.390 . S
C815 C816 1.387 . S
C815 H818 0.950 . S
C816 C815 1.387 . S
C816 C819 1.387 . S
H817 C813 0.950 . S
H818 C815 0.950 . S
C819 C810 1.390 . S
C819 H812 0.950 . S
C819 C816 1.387 . S
C820 C821 1.387 . S
C820 H824 0.950 . S
C820 C829 1.390 . S
C821 C820 1.387 . S
C821 C823 1.387 . S
H822 C829 0.950 . S
C823 C821 1.387 . S
C823 C825 1.390 . S
C823 H827 0.950 . S
H824 C820 0.950 . S
C825 C823 1.390 . S
C825 C826 1.387 . S
C825 H828 0.950 . S
C826 C825 1.387 . S
C826 C829 1.387 . S
H827 C823 0.950 . S
H828 C825 0.950 . S
C829 C820 1.390 . S
C829 H822 0.950 . S
C829 C826 1.387 . S
C830 C831 1.387 . S
C830 H834 0.950 . S
C830 C839 1.390 . S
C831 C830 1.387 . S
C831 C833 1.387 . S
H832 C839 0.950 . S
C833 C831 1.387 . S
C833 C835 1.390 . S
C833 H837 0.950 . S
H834 C830 0.950 . S
C835 C833 1.390 . S
C835 C836 1.387 . S
C835 H838 0.950 . S
C836 C835 1.387 . S
C836 C839 1.387 . S
H837 C833 0.950 . S
H838 C835 0.950 . S
C839 C830 1.390 . S
C839 H832 0.950 . S
C839 C836 1.387 . S
C840 C841 1.387 . S
C840 H844 0.950 . S
C840 C849 1.390 . S
C841 C840 1.387 . S
C841 C843 1.387 . S
H842 C849 0.950 . S
C843 C841 1.387 . S
C843 C845 1.390 . S
C843 H847 0.950 . S
H844 C840 0.950 . S
C845 C843 1.390 . S
C845 C846 1.387 . S
C845 H848 0.950 . S
C846 C845 1.387 . S
C846 C849 1.387 . S
H847 C843 0.950 . S
H848 C845 0.950 . S
C849 C840 1.390 . S
C849 H842 0.950 . S
C849 C846 1.387 . S
C850 C851 1.387 . S
C850 H854 0.950 . S
C850 C859 1.390 1_455 S
C851 C850 1.387 . S
C851 C853 1.387 . S
H852 C859 0.950 . S
C853 C851 1.387 . S
C853 C855 1.390 1_455 S
C853 H857 0.950 . S
H854 C850 0.950 . S
C855 C853 1.390 1_655 S
C855 C856 1.387 . S
C855 H858 0.950 . S
C856 C855 1.387 . S
C856 C859 1.387 . S
H857 C853 0.950 . S
H858 C855 0.950 . S
C859 C850 1.390 1_655 S
C859 H852 0.950 . S
C859 C856 1.387 . S
C860 C861 1.387 . S
C860 H864 0.950 . S
C860 C869 1.390 . S
C861 C860 1.387 . S
C861 C863 1.387 . S
H862 C869 0.950 . S
C863 C861 1.387 . S
C863 C865 1.390 . S
C863 H867 0.950 . S
H864 C860 0.950 . S
C865 C863 1.390 . S
C865 C866 1.387 . S
C865 H868 0.950 . S
C866 C865 1.387 . S
C866 C869 1.387 . S
H867 C863 0.950 . S
H868 C865 0.950 . S
C869 C860 1.390 . S
C869 H862 0.950 . S
C869 C866 1.387 . S
C870 C871 1.387 . S
C870 H874 0.950 . S
C870 C879 1.390 . S
C871 C870 1.387 . S
C871 C873 1.387 . S
H872 C879 0.950 . S
C873 C871 1.387 . S
C873 C875 1.390 . S
C873 H877 0.950 . S
H874 C870 0.950 . S
C875 C873 1.390 . S
C875 C876 1.387 . S
C875 H878 0.950 . S
C876 C875 1.387 . S
C876 C879 1.387 . S
H877 C873 0.950 . S
H878 C875 0.950 . S
C879 C870 1.390 . S
C879 H872 0.950 . S
C879 C876 1.387 . S
C880 C881 1.387 . S
C880 H884 0.950 . S
C880 C889 1.390 . S
C881 C880 1.387 . S
C881 C883 1.387 . S
H882 C889 0.950 . S
C883 C881 1.387 . S
C883 C885 1.390 . S
C883 H887 0.950 . S
H884 C880 0.950 . S
C885 C883 1.390 . S
C885 C886 1.387 . S
C885 H888 0.950 . S
C886 C885 1.387 . S
C886 C889 1.387 . S
H887 C883 0.950 . S
H888 C885 0.950 . S
C889 C880 1.390 . S
C889 H882 0.950 . S
C889 C886 1.387 . S
C890 C891 1.387 . S
C890 H894 0.950 . S
C890 C899 1.390 . S
C891 C890 1.387 . S
C891 C893 1.387 . S
H892 C899 0.950 . S
C893 C891 1.387 . S
C893 C895 1.390 . S
C893 H897 0.950 . S
H894 C890 0.950 . S
C895 C893 1.390 . S
C895 C896 1.387 . S
C895 H898 0.950 . S
C896 C895 1.387 . S
C896 C899 1.387 . S
H897 C893 0.950 . S
H898 C895 0.950 . S
C899 C890 1.390 . S
C899 H892 0.950 . S
C899 C896 1.387 . S
C900 C901 1.387 . S
C900 H904 0.950 . S
C900 C909 1.390 1_565 S
C901 C900 1.387 . S
C901 C903 1.387 . S
H902 C909 0.950 . S
C903 C901 1.387 . S
C903 C905 1.390 1_565 S
C903 H907 0.950 . S
H904 C900 0.950 . S
C905 C903 1.390 1_545 S
C905 C906 1.387 . S
C905 H908 0.950 . S
C906 C905 1.387 . S
C906 C909 1.387 . S
H907 C903 0.950 . S
H908 C905 0.950 . S
C909 C900 1.390 1_545 S
C909 H902 0.950 . S
C909 C906 1.387 . S
C910 C911 1.387 . S
C910 H914 0.950 . S
C910 C919 1.390 . S
C911 C910 1.387 . S
C911 C913 1.387 . S
H912 C919 0.950 . S
C913 C911 1.387 . S
C913 C915 1.390 . S
C913 H917 0.950 . S
H914 C910 0.950 . S
C915 C913 1.390 . S
C915 C916 1.387 . S
C915 H918 0.950 . S
C916 C915 1.387 . S
C916 C919 1.387 . S
H917 C913 0.950 . S
H918 C915 0.950 . S
C919 C910 1.390 . S
C919 H912 0.950 . S
C919 C916 1.387 . S
C920 C921 1.387 . S
C920 H924 0.950 . S
C920 C929 1.390 . S
C921 C920 1.387 . S
C921 C923 1.387 . S
H922 C929 0.950 . S
C923 C921 1.387 . S
C923 C925 1.390 . S
C923 H927 0.950 . S
H924 C920 0.950 . S
C925 C923 1.390 . S
C925 C926 1.387 . S
C925 H928 0.950 . S
C926 C925 1.387 . S
C926 C929 1.387 . S
H927 C923 0.950 . S
H928 C925 0.950 . S
C929 C920 1.390 . S
C929 H922 0.950 . S
C929 C926 1.387 . S
C930 C931 1.387 . S
C930 H934 0.950 . S
C930 C939 1.390 . S
C931 C930 1.387 . S
C931 C933 1.387 . S
H932 C939 0.950 . S
C933 C931 1.387 . S
C933 C935 1.390 . S
C933 H937 0.950 . S
H934 C930 0.950 . S
C935 C933 1.390 . S
C935 C936 1.387 . S
C935 H938 0.950 . S
C936 C935 1.387 . S
C936 C939 1.387 . S
H937 C933 0.950 . S
H938 C935 0.950 . S
C939 C930 1.390 . S
C939 H932 0.950 . S
C939 C936 1.387 . S
C940 C941 1.387 . S
C940 H944 0.950 . S
C940 C949 1.390 . S
C941 C940 1.387 . S
C941 C943 1.387 . S
H942 C949 0.950 . S
C943 C941 1.387 . S
C943 C945 1.390 . S
C943 H947 0.950 . S
H944 C940 0.950 . S
C945 C943 1.390 . S
C945 C946 1.387 . S
C945 H948 0.950 . S
C946 C945 1.387 . S
C946 C949 1.387 . S
H947 C943 0.950 . S
H948 C945 0.950 . S
C949 C940 1.390 . S
C949 H942 0.950 . S
C949 C946 1.387 . S
C950 C951 1.387 . S
C950 H954 0.950 . S
C950 C959 1.390 . S
C951 C950 1.387 . S
C951 C953 1.387 . S
H952 C959 0.950 . S
C953 C951 1.387 . S
C953 C955 1.390 . S
C953 H957 0.950 . S
H954 C950 0.950 . S
C955 C953 1.390 . S
C955 C956 1.387 . S
C955 H958 0.950 . S
C956 C955 1.387 . S
C956 C959 1.387 . S
H957 C953 0.950 . S
H958 C955 0.950 . S
C959 C950 1.390 . S
C959 H952 0.950 . S
C959 C956 1.387 . S
C960 C961 1.387 . S
C960 H964 0.950 . S
C960 C969 1.390 . S
C961 C960 1.387 . S
C961 C963 1.387 . S
H962 C969 0.950 . S
C963 C961 1.387 . S
C963 C965 1.390 . S
C963 H967 0.950 . S
H964 C960 0.950 . S
C965 C963 1.390 . S
C965 C966 1.387 . S
C965 H968 0.950 . S
C966 C965 1.387 . S
C966 C969 1.387 . S
H967 C963 0.950 . S
H968 C965 0.950 . S
C969 C960 1.390 . S
C969 H962 0.950 . S
C969 C966 1.387 . S
C970 C971 1.387 . S
C970 H974 0.950 . S
C970 C979 1.390 . S
C971 C970 1.387 . S
C971 C973 1.387 . S
H972 C979 0.950 . S
C973 C971 1.387 . S
C973 C975 1.390 . S
C973 H977 0.950 . S
H974 C970 0.950 . S
C975 C973 1.390 . S
C975 C976 1.387 . S
C975 H978 0.950 . S
C976 C975 1.387 . S
C976 C979 1.387 . S
H977 C973 0.950 . S
H978 C975 0.950 . S
C979 C970 1.390 . S
C979 H972 0.950 . S
C979 C976 1.387 . S
C980 C981 1.387 . S
C980 H984 0.950 . S
C980 C989 1.390 . S
C981 C980 1.387 . S
C981 C983 1.387 . S
H982 C989 0.950 . S
C983 C981 1.387 . S
C983 C985 1.390 . S
C983 H987 0.950 . S
H984 C980 0.950 . S
C985 C983 1.390 . S
C985 C986 1.387 . S
C985 H988 0.950 . S
C986 C985 1.387 . S
C986 C989 1.387 . S
H987 C983 0.950 . S
H988 C985 0.950 . S
C989 C980 1.390 . S
C989 H982 0.950 . S
C989 C986 1.387 . S
C990 C991 1.387 . S
C990 H994 0.950 . S
C990 C999 1.390 . S
C991 C990 1.387 . S
C991 C993 1.387 . S
H992 C999 0.950 . S
C993 C991 1.387 . S
C993 C995 1.390 . S
C993 H997 0.950 . S
H994 C990 0.950 . S
C995 C993 1.390 . S
C995 C996 1.387 . S
C995 H998 0.950 . S
C996 C995 1.387 . S
C996 C999 1.387 . S
H997 C993 0.950 . S
H998 C995 0.950 . S
C999 C990 1.390 . S
C999 H992 0.950 . S
C999 C996 1.387 . S
C1000 C1001 1.387 . S
C1000 H1004 0.950 . S
C1000 C1009 1.390 . S
C1001 C1000 1.387 . S
C1001 C1003 1.387 . S
H1002 C1009 0.950 . S
C1003 C1001 1.387 . S
C1003 C1005 1.390 . S
C1003 H1007 0.950 1_554 S
H1004 C1000 0.950 . S
C1005 C1003 1.390 . S
C1005 C1006 1.387 . S
C1005 H1008 0.950 1_554 S
C1006 C1005 1.387 . S
C1006 C1009 1.387 . S
H1007 C1003 0.950 1_556 S
H1008 C1005 0.950 1_556 S
C1009 C1000 1.390 . S
C1009 H1002 0.950 . S
C1009 C1006 1.387 . S
C1010 C1011 1.387 . S
C1010 H1014 0.950 . S
C1010 C1019 1.390 . S
C1011 C1010 1.387 . S
C1011 C1013 1.387 . S
H1012 C1019 0.950 . S
C1013 C1011 1.387 . S
C1013 C1015 1.390 . S
C1013 H1017 0.950 . S
H1014 C1010 0.950 . S
C1015 C1013 1.390 . S
C1015 C1016 1.387 . S
C1015 H1018 0.950 1_554 S
C1016 C1015 1.387 . S
C1016 C1019 1.387 . S
H1017 C1013 0.950 . S
H1018 C1015 0.950 1_556 S
C1019 C1010 1.390 . S
C1019 H1012 0.950 . S
C1019 C1016 1.387 . S
C1020 C1021 1.387 . S
C1020 H1024 0.950 . S
C1020 C1029 1.390 . S
C1021 C1020 1.387 . S
C1021 C1023 1.387 . S
H1022 C1029 0.950 . S
C1023 C1021 1.387 . S
C1023 C1025 1.390 . S
C1023 H1027 0.950 . S
H1024 C1020 0.950 . S
C1025 C1023 1.390 . S
C1025 C1026 1.387 . S
C1025 H1028 0.950 . S
C1026 C1025 1.387 . S
C1026 C1029 1.387 . S
H1027 C1023 0.950 . S
H1028 C1025 0.950 . S
C1029 C1020 1.390 . S
C1029 H1022 0.950 . S
C1029 C1026 1.387 . S
C1030 C1031 1.387 . S
C1030 H1034 0.950 . S
C1030 C1039 1.390 . S
C1031 C1030 1.387 . S
C1031 C1033 1.387 . S
H1032 C1039 0.950 . S
C1033 C1031 1.387 . S
C1033 C1035 1.390 . S
C1033 H1037 0.950 . S
H1034 C1030 0.950 . S
C1035 C1033 1.390 . S
C1035 C1036 1.387 . S
C1035 H1038 0.950 . S
C1036 C1035 1.387 . S
C1036 C1039 1.387 . S
H1037 C1033 0.950 . S
H1038 C1035 0.950 . S
C1039 C1030 1.390 . S
C1039 H1032 0.950 . S
C1039 C1036 1.387 . S
C1040 C1041 1.387 . S
C1040 H1044 0.950 . S
C1040 C1049 1.390 . S
C1041 C1040 1.387 . S
C1041 C1043 1.387 . S
H1042 C1049 0.950 . S
C1043 C1041 1.387 . S
C1043 C1045 1.390 . S
C1043 H1047 0.950 . S
H1044 C1040 0.950 . S
C1045 C1043 1.390 . S
C1045 C1046 1.387 . S
C1045 H1048 0.950 . S
C1046 C1045 1.387 . S
C1046 C1049 1.387 . S
H1047 C1043 0.950 . S
H1048 C1045 0.950 . S
C1049 C1040 1.390 . S
C1049 H1042 0.950 . S
C1049 C1046 1.387 . S
C1050 C1051 1.387 . S
C1050 H1054 0.950 . S
C1050 C1059 1.390 . S
C1051 C1050 1.387 . S
C1051 C1053 1.387 . S
H1052 C1059 0.950 . S
C1053 C1051 1.387 . S
C1053 C1055 1.390 . S
C1053 H1057 0.950 1_556 S
H1054 C1050 0.950 . S
C1055 C1053 1.390 . S
C1055 C1056 1.387 . S
C1055 H1058 0.950 1_556 S
C1056 C1055 1.387 . S
C1056 C1059 1.387 . S
H1057 C1053 0.950 1_554 S
H1058 C1055 0.950 1_554 S
C1059 C1050 1.390 . S
C1059 H1052 0.950 . S
C1059 C1056 1.387 . S
C1060 C1061 1.387 . S
C1060 H1064 0.950 1_556 S
C1060 C1069 1.390 . S
C1061 C1060 1.387 . S
C1061 C1063 1.387 . S
H1062 C1069 0.950 . S
C1063 C1061 1.387 . S
C1063 C1065 1.390 . S
C1063 H1067 0.950 . S
H1064 C1060 0.950 1_554 S
C1065 C1063 1.390 . S
C1065 C1066 1.387 . S
C1065 H1068 0.950 . S
C1066 C1065 1.387 . S
C1066 C1069 1.387 . S
H1067 C1063 0.950 . S
H1068 C1065 0.950 . S
C1069 C1060 1.390 . S
C1069 H1062 0.950 . S
C1069 C1066 1.387 . S
C1070 C1071 1.387 . S
C1070 H1074 0.950 . S
C1070 C1079 1.390 . S
C1071 C1070 1.387 . S
C1071 C1073 1.387 . S
H1072 C1079 0.950 . S
C1073 C1071 1.387 . S
C1073 C1075 1.390 . S
C1073 H1077 0.950 . S
H1074 C1070 0.950 . S
C1075 C1073 1.390 . S
C1075 C1076 1.387 . S
C1075 H1078 0.950 . S
C1076 C1075 1.387 . S
C1076 C1079 1.387 . S
H1077 C1073 0.950 . S
H1078 C1075 0.950 . S
C1079 C1070 1.390 . S
C1079 H1072 0.950 . S
C1079 C1076 1.387 . S
C1080 C1081 1.387 . S
C1080 H1084 0.950 . S
C1080 C1089 1.390 . S
C1081 C1080 1.387 . S
C1081 C1083 1.387 . S
H1082 C1089 0.950 . S
C1083 C1081 1.387 . S
C1083 C1085 1.390 . S
C1083 H1087 0.950 . S
H1084 C1080 0.950 . S
C1085 C1083 1.390 . S
C1085 C1086 1.387 . S
C1085 H1088 0.950 . S
C1086 C1085 1.387 . S
C1086 C1089 1.387 . S
H1087 C1083 0.950 . S
H1088 C1085 0.950 . S
C1089 C1080 1.390 . S
C1089 H1082 0.950 . S
C1089 C1086 1.387 . S
C1090 C1091 1.387 . S
C1090 H1094 0.950 1_556 S
C1090 C1099 1.390 . S
C1091 C1090 1.387 . S
C1091 C1093 1.387 . S
H1092 C1099 0.950 1_554 S
C1093 C1091 1.387 . S
C1093 C1095 1.390 . S
C1093 H1097 0.950 . S
H1094 C1090 0.950 1_554 S
C1095 C1093 1.390 . S
C1095 C1096 1.387 . S
C1095 H1098 0.950 . S
C1096 C1095 1.387 . S
C1096 C1099 1.387 . S
H1097 C1093 0.950 . S
H1098 C1095 0.950 . S
C1099 C1090 1.390 . S
C1099 H1092 0.950 1_556 S
C1099 C1096 1.387 . S
C1100 C1101 1.387 . S
C1100 H1104 0.950 . S
C1100 C1109 1.390 . S
C1101 C1100 1.387 . S
C1101 C1103 1.387 . S
H1102 C1109 0.950 . S
C1103 C1101 1.387 . S
C1103 C1105 1.390 . S
C1103 H1107 0.950 . S
H1104 C1100 0.950 . S
C1105 C1103 1.390 . S
C1105 C1106 1.387 . S
C1105 H1108 0.950 . S
C1106 C1105 1.387 . S
C1106 C1109 1.387 . S
H1107 C1103 0.950 . S
H1108 C1105 0.950 . S
C1109 C1100 1.390 . S
C1109 H1102 0.950 . S
C1109 C1106 1.387 . S
C1110 C1111 1.387 . S
C1110 H1114 0.950 . S
C1110 C1119 1.390 . S
C1111 C1110 1.387 . S
C1111 C1113 1.387 . S
H1112 C1119 0.950 . S
C1113 C1111 1.387 . S
C1113 C1115 1.390 . S
C1113 H1117 0.950 1_554 S
H1114 C1110 0.950 . S
C1115 C1113 1.390 . S
C1115 C1116 1.387 . S
C1115 H1118 0.950 1_554 S
C1116 C1115 1.387 . S
C1116 C1119 1.387 . S
H1117 C1113 0.950 1_556 S
H1118 C1115 0.950 1_556 S
C1119 C1110 1.390 . S
C1119 H1112 0.950 . S
C1119 C1116 1.387 . S
C641 C11 1.707 . S
C646 C56 1.583 . S
C651 C91 2.102 . S
C656 C42 2.034 . S
C661 C122 2.418 . S
C666 C99 2.496 . S
C671 C19 1.944 . S
C676 C136 1.815 . S
C681 C10 1.945 . S
C686 C367 1.816 . S
C691 C282 1.709 . S
C696 C47 1.584 . S
C701 C82 2.103 . S
C706 C411 2.034 . S
C711 C131 2.419 . S
C716 C530 2.497 . S
C721 C322 2.102 . S
C726 C51 2.033 . S
C731 C491 2.418 . S
C736 C90 2.496 . S
C741 C570 1.948 . S
C746 C127 1.817 . S
C751 C2 1.707 . S
C756 C447 1.582 . S
C761 C16 0.683 . S
C766 C327 0.599 . S
C771 C499 1.864 . S
C776 C170 1.879 . S
C781 C216 0.598 . S
C786 C567 0.679 . S
C791 C450 1.877 . S
C796 C259 1.866 . S
C801 C96 0.596 . S
C806 C287 0.680 . S
C811 C370 1.864 . S
C816 C179 1.879 . S
C821 C250 1.866 . S
C826 C419 1.877 . S
C831 C202 2.103 . S
C836 C451 2.034 . S
C841 C371 2.418 . S
C846 C210 2.496 . S
C851 C456 1.584 . S
C856 C291 1.709 . S
C861 C211 2.102 . S
C866 C162 2.035 . S
C871 C362 2.419 . S
C876 C339 2.496 . S
C881 C531 2.103 . S
C886 C442 2.035 . S
C891 C242 2.419 . S
C896 C219 2.497 . S
C901 C376 1.815 . S
C906 C579 1.944 . S
C911 C536 0.596 . S
C916 C7 0.678 . S
C921 C87 0.596 . S
C926 C576 0.678 . S
C931 C490 1.864 . S
C936 C59 1.879 . S
C941 C296 0.689 . S
C946 C207 0.605 . S
C951 C139 1.864 . S
C956 C410 1.879 . S
C961 C482 2.418 . S
C966 C539 2.496 . S
C971 C299 1.948 . S
C976 C496 1.817 . S
C981 C247 1.816 . S
C986 C290 1.948 . S
C991 C171 2.034 . S
C996 C522 2.102 . S
C1001 C487 1.815 . S
C1006 C610 1.945 . S
C1011 C607 0.687 . S
C1016 C336 0.603 . S
C1021 C50 1.879 . S
C1026 C379 1.864 . S
C1031 C330 2.497 . S
C1036 C251 2.419 . S
C1041 C331 2.103 . S
C1046 C402 2.035 . S
C1051 C619 1.948 . S
C1056 C256 1.817 . S
C1061 C527 0.601 . S
C1066 C616 0.686 . S
C1071 C459 1.879 . S
C1076 C130 1.864 . S
C1081 C416 1.584 . S
C1086 C571 1.709 . S
C1091 C407 1.584 . S
C1096 C602 1.709 . S
C1101 C167 1.582 . S
C1106 C562 1.707 . S
C1111 C611 1.709 . S
C1116 C176 1.584 . S
