# Generated by pormake.
# Topology wft, (7)-cn, num edge types: 1
# Building blocks:
#     Node 0, Type 0, BuildingBlock: NUHQUE_clean_sbu_2, # of connection points: 7
#     Node 1, Type 0, BuildingBlock: NUHQUE_clean_sbu_2, # of connection points: 7
#     Node 2, Type 0, BuildingBlock: NUHQUE_clean_sbu_2, # of connection points: 7
#     Node 3, Type 0, BuildingBlock: NUHQUE_clean_sbu_2, # of connection points: 7
#     Node 4, Type 0, BuildingBlock: NUHQUE_clean_sbu_2, # of connection points: 7
#     Node 5, Type 0, BuildingBlock: NUHQUE_clean_sbu_2, # of connection points: 7
#     Node 6, Type 0, BuildingBlock: NUHQUE_clean_sbu_2, # of connection points: 7
#     Node 7, Type 0, BuildingBlock: NUHQUE_clean_sbu_2, # of connection points: 7
#     Edge 8, Type (0, 0), BuildingBlock: ZUJKAS_clean_linker_0, # of connection points: 2
#     Edge 9, Type (0, 0), BuildingBlock: ZUJKAS_clean_linker_0, # of connection points: 2
#     Edge 10, Type (0, 0), BuildingBlock: ZUJKAS_clean_linker_0, # of connection points: 2
#     Edge 11, Type (0, 0), BuildingBlock: ZUJKAS_clean_linker_0, # of connection points: 2
#     Edge 12, Type (0, 0), BuildingBlock: ZUJKAS_clean_linker_0, # of connection points: 2
#     Edge 13, Type (0, 0), BuildingBlock: ZUJKAS_clean_linker_0, # of connection points: 2
#     Edge 14, Type (0, 0), BuildingBlock: ZUJKAS_clean_linker_0, # of connection points: 2
#     Edge 15, Type (0, 0), BuildingBlock: ZUJKAS_clean_linker_0, # of connection points: 2
#     Edge 16, Type (0, 0), BuildingBlock: ZUJKAS_clean_linker_0, # of connection points: 2
#     Edge 17, Type (0, 0), BuildingBlock: ZUJKAS_clean_linker_0, # of connection points: 2
#     Edge 18, Type (0, 0), BuildingBlock: ZUJKAS_clean_linker_0, # of connection points: 2
#     Edge 19, Type (0, 0), BuildingBlock: ZUJKAS_clean_linker_0, # of connection points: 2
#     Edge 20, Type (0, 0), BuildingBlock: ZUJKAS_clean_linker_0, # of connection points: 2
#     Edge 21, Type (0, 0), BuildingBlock: ZUJKAS_clean_linker_0, # of connection points: 2
#     Edge 22, Type (0, 0), BuildingBlock: ZUJKAS_clean_linker_0, # of connection points: 2
#     Edge 23, Type (0, 0), BuildingBlock: ZUJKAS_clean_linker_0, # of connection points: 2
#     Edge 24, Type (0, 0), BuildingBlock: ZUJKAS_clean_linker_0, # of connection points: 2
#     Edge 25, Type (0, 0), BuildingBlock: ZUJKAS_clean_linker_0, # of connection points: 2
#     Edge 26, Type (0, 0), BuildingBlock: ZUJKAS_clean_linker_0, # of connection points: 2
#     Edge 27, Type (0, 0), BuildingBlock: ZUJKAS_clean_linker_0, # of connection points: 2
#     Edge 28, Type (0, 0), BuildingBlock: ZUJKAS_clean_linker_0, # of connection points: 2
#     Edge 29, Type (0, 0), BuildingBlock: ZUJKAS_clean_linker_0, # of connection points: 2
#     Edge 30, Type (0, 0), BuildingBlock: ZUJKAS_clean_linker_0, # of connection points: 2
#     Edge 31, Type (0, 0), BuildingBlock: ZUJKAS_clean_linker_0, # of connection points: 2
#     Edge 32, Type (0, 0), BuildingBlock: ZUJKAS_clean_linker_0, # of connection points: 2
#     Edge 33, Type (0, 0), BuildingBlock: ZUJKAS_clean_linker_0, # of connection points: 2
#     Edge 34, Type (0, 0), BuildingBlock: ZUJKAS_clean_linker_0, # of connection points: 2
#     Edge 35, Type (0, 0), BuildingBlock: ZUJKAS_clean_linker_0, # of connection points: 2
# Relax obj value: 0.095
# Max RMSD: 0.180
# Mean RMSD: 0.180
data_MOF--net-wft--node1-NUHQUE_clean_sbu_2--edge1-ZUJKAS_clean_linker_0
_symmetry_space_group_name_H-M    P1
_symmetry_Int_Tables_number       1
_symmetry_cell_setting            triclinic
loop_
_symmetry_equiv_pos_as_xyz
'x, y, z'
_cell_length_a     40.748429
_cell_length_b     40.778249
_cell_length_c     44.255553
_cell_angle_alpha  89.936302
_cell_angle_beta   90.131955
_cell_angle_gamma 89.995022
loop_
_atom_site_label
_atom_site_type_symbol
_atom_site_fract_x
_atom_site_fract_y
_atom_site_fract_z
_atom_type_partial_charge
O0 O 0.32852 0.31046 0.4232 0.0
Tb1 Tb 0.34764 0.26155 0.41479 0.0
Eu2 Eu 0.33624 0.18573 0.38075 0.0
C3 C 0.29737 0.31626 0.42888 0.0
O4 O 0.27583 0.29254 0.42584 0.0
C5 C 0.31261 0.20532 0.44624 0.0
O6 O 0.36275 0.13805 0.37399 0.0
C7 C 0.28211 0.19073 0.34995 0.0
C8 C 0.38752 0.13217 0.39227 0.0
O9 O 0.3943 0.15372 0.41344 0.0
C10 C 0.38219 0.24369 0.35472 0.0
C11 C 0.26628 0.19568 0.32019 0.0
C12 C 0.23185 0.19842 0.31942 0.0
C13 C 0.21511 0.20302 0.29197 0.0
C14 C 0.23331 0.205 0.26519 0.0
C15 C 0.2676 0.20202 0.26531 0.0
C16 C 0.28421 0.19707 0.29295 0.0
O17 O 0.30695 0.23384 0.4335 0.0
O18 O 0.32888 0.1829 0.43121 0.0
O19 O 0.38238 0.28136 0.44742 0.0
O20 O 0.38769 0.23172 0.43374 0.0
C21 C 0.39956 0.25481 0.45093 0.0
O22 O 0.37922 0.21219 0.36044 0.0
O23 O 0.36324 0.26562 0.36787 0.0
O24 O 0.29722 0.16267 0.35474 0.0
O25 O 0.29664 0.21606 0.36275 0.0
H26 H 0.21808 0.19709 0.34033 0.0
H27 H 0.2206 0.20777 0.24377 0.0
H28 H 0.31068 0.19451 0.29328 0.0
O29 O 0.31396 0.67073 0.64436 0.0
Tb30 Tb 0.26542 0.65019 0.65222 0.0
Eu31 Eu 0.18821 0.65998 0.68436 0.0
C32 C 0.31881 0.70191 0.63804 0.0
O33 O 0.29418 0.72258 0.63976 0.0
C34 C 0.20873 0.68278 0.61855 0.0
O35 O 0.14129 0.63194 0.69096 0.0
C36 C 0.1907 0.71466 0.71442 0.0
C37 C 0.13976 0.60273 0.67848 0.0
O38 O 0.16519 0.59229 0.66301 0.0
C39 C 0.24681 0.61612 0.7124 0.0
C40 C 0.1926 0.73136 0.74406 0.0
C41 C 0.19462 0.76582 0.74406 0.0
C42 C 0.19357 0.78356 0.77122 0.0
C43 C 0.191 0.76637 0.79853 0.0
C44 C 0.1892 0.73199 0.79925 0.0
C45 C 0.19024 0.71435 0.77181 0.0
O46 O 0.23713 0.68932 0.63125 0.0
O47 O 0.18657 0.66622 0.63369 0.0
O48 O 0.28725 0.61453 0.62176 0.0
O49 O 0.23695 0.60923 0.63335 0.0
C50 C 0.26104 0.59698 0.61767 0.0
O51 O 0.21536 0.61818 0.70603 0.0
O52 O 0.26849 0.63566 0.69958 0.0
O53 O 0.16312 0.69955 0.70767 0.0
O54 O 0.21711 0.69981 0.70402 0.0
H55 H 0.19604 0.77893 0.72276 0.0
H56 H 0.19093 0.77991 0.81961 0.0
H57 H 0.18837 0.68785 0.77199 0.0
O58 O 0.66935 0.68028 0.42167 0.0
Tb59 Tb 0.64951 0.72892 0.41303 0.0
Eu60 Eu 0.65891 0.80533 0.37843 0.0
C61 C 0.7003 0.67513 0.42883 0.0
O62 O 0.72136 0.69943 0.42722 0.0
C63 C 0.68311 0.78597 0.44388 0.0
O64 O 0.63024 0.85171 0.37132 0.0
C65 C 0.71336 0.80318 0.34808 0.0
C66 C 0.60473 0.85605 0.38898 0.0
O67 O 0.59836 0.83371 0.40958 0.0
C68 C 0.61443 0.74578 0.35254 0.0
C69 C 0.73033 0.80125 0.31862 0.0
C70 C 0.76477 0.7988 0.31901 0.0
C71 C 0.78284 0.80008 0.29208 0.0
C72 C 0.76604 0.80317 0.2646 0.0
C73 C 0.73166 0.80545 0.26346 0.0
C74 C 0.71367 0.80426 0.29071 0.0
O75 O 0.68978 0.75789 0.43084 0.0
O76 O 0.66593 0.80787 0.42896 0.0
O77 O 0.61584 0.70929 0.44661 0.0
O78 O 0.60906 0.75832 0.43158 0.0
C79 C 0.5981 0.73553 0.44959 0.0
O80 O 0.61699 0.77745 0.35766 0.0
O81 O 0.63347 0.7242 0.36622 0.0
O82 O 0.6979 0.83063 0.3545 0.0
O83 O 0.6989 0.7767 0.3588 0.0
H84 H 0.77764 0.79695 0.34043 0.0
H85 H 0.77994 0.80335 0.24373 0.0
H86 H 0.68718 0.80652 0.29026 0.0
O87 O 0.68487 0.32049 0.64587 0.0
Tb88 Tb 0.733 0.34194 0.65405 0.0
Eu89 Eu 0.81018 0.33429 0.68837 0.0
C90 C 0.68077 0.28962 0.63801 0.0
O91 O 0.70602 0.26963 0.63833 0.0
C92 C 0.7913 0.31076 0.62268 0.0
O93 O 0.85617 0.36391 0.69486 0.0
C94 C 0.80956 0.27918 0.71791 0.0
C95 C 0.85631 0.39338 0.68276 0.0
O96 O 0.83015 0.40311 0.66781 0.0
C97 C 0.74942 0.37713 0.71455 0.0
C98 C 0.80713 0.26171 0.74714 0.0
C99 C 0.804 0.22733 0.74642 0.0
C100 C 0.80461 0.20886 0.77321 0.0
C101 C 0.8077 0.22525 0.80085 0.0
C102 C 0.81081 0.25952 0.8023 0.0
C103 C 0.81024 0.27788 0.77523 0.0
O104 O 0.76332 0.3031 0.6355 0.0
O105 O 0.81273 0.3283 0.6378 0.0
O106 O 0.71176 0.37533 0.62099 0.0
O107 O 0.7607 0.38371 0.63575 0.0
C108 C 0.73728 0.39411 0.61808 0.0
O109 O 0.78119 0.37495 0.70976 0.0
O110 O 0.72819 0.3577 0.70089 0.0
O111 O 0.83645 0.29613 0.71271 0.0
O112 O 0.78284 0.29251 0.70637 0.0
H113 H 0.80214 0.21485 0.72486 0.0
H114 H 0.80726 0.21113 0.82163 0.0
H115 H 0.81307 0.30429 0.77593 0.0
O116 O 0.82511 0.18212 0.14293 0.0
Tb117 Tb 0.8455 0.23068 0.15073 0.0
Eu118 Eu 0.83826 0.30638 0.18795 0.0
C119 C 0.79477 0.17763 0.13353 0.0
O120 O 0.77477 0.2028 0.13181 0.0
C121 C 0.81322 0.28968 0.12259 0.0
O122 O 0.86775 0.35238 0.19435 0.0
C123 C 0.78372 0.30513 0.21821 0.0
C124 C 0.89739 0.35252 0.18268 0.0
O125 O 0.90745 0.3263 0.16814 0.0
C126 C 0.88201 0.24447 0.21164 0.0
C127 C 0.76706 0.3003 0.24754 0.0
C128 C 0.73298 0.29466 0.24713 0.0
C129 C 0.71527 0.29165 0.27415 0.0
C130 C 0.73196 0.29477 0.30169 0.0
C131 C 0.76583 0.30092 0.30278 0.0
C132 C 0.7836 0.30321 0.27552 0.0
O133 O 0.8056 0.26186 0.13572 0.0
O134 O 0.83123 0.31077 0.13758 0.0
O135 O 0.87537 0.21337 0.11325 0.0
O136 O 0.88743 0.25898 0.13363 0.0
C137 C 0.89527 0.23823 0.11248 0.0
O138 O 0.87898 0.27643 0.20846 0.0
O139 O 0.86352 0.22343 0.19667 0.0
O140 O 0.80162 0.33173 0.2148 0.0
O141 O 0.79565 0.27918 0.2043 0.0
H142 H 0.72019 0.29272 0.22568 0.0
H143 H 0.71829 0.29306 0.32264 0.0
H144 H 0.80971 0.30819 0.27605 0.0
O145 O 0.18137 0.17125 0.92226 0.0
Tb146 Tb 0.22976 0.15041 0.9143 0.0
Eu147 Eu 0.30615 0.1596 0.88017 0.0
C148 C 0.1768 0.20256 0.92814 0.0
O149 O 0.20161 0.22297 0.92607 0.0
C150 C 0.28727 0.18318 0.94568 0.0
O151 O 0.3529 0.13171 0.87229 0.0
C152 C 0.30251 0.21448 0.85043 0.0
C153 C 0.35806 0.10602 0.88962 0.0
O154 O 0.33638 0.09909 0.91062 0.0
C155 C 0.2467 0.11519 0.85394 0.0
C156 C 0.29901 0.23114 0.82089 0.0
C157 C 0.29468 0.2654 0.82092 0.0
C158 C 0.29267 0.283 0.79369 0.0
C159 C 0.29556 0.26598 0.76636 0.0
C160 C 0.30037 0.23191 0.76567 0.0
C161 C 0.30161 0.21429 0.79312 0.0
O162 O 0.25915 0.19013 0.93267 0.0
O163 O 0.309 0.16589 0.93076 0.0
O164 O 0.20962 0.11665 0.94756 0.0
O165 O 0.2588 0.10976 0.93301 0.0
C166 C 0.23577 0.09877 0.9507 0.0
O167 O 0.27839 0.11785 0.85906 0.0
O168 O 0.22499 0.13397 0.86764 0.0
O169 O 0.33031 0.19913 0.8559 0.0
O170 O 0.27659 0.19975 0.86196 0.0
H171 H 0.29286 0.2784 0.84222 0.0
H172 H 0.2946 0.27951 0.74525 0.0
H173 H 0.3055 0.188 0.79291 0.0
O174 O 0.16862 0.81191 0.14088 0.0
Tb175 Tb 0.1489 0.76308 0.14858 0.0
Eu176 Eu 0.15953 0.68741 0.18406 0.0
C177 C 0.19998 0.8172 0.13576 0.0
O178 O 0.2209 0.79286 0.13831 0.0
C179 C 0.18309 0.70597 0.11833 0.0
O180 O 0.13193 0.64032 0.19071 0.0
C181 C 0.21403 0.69042 0.21454 0.0
C182 C 0.1028 0.6384 0.17801 0.0
O183 O 0.09208 0.66363 0.16234 0.0
C184 C 0.11433 0.74671 0.20953 0.0
C185 C 0.23028 0.69429 0.24426 0.0
C186 C 0.2646 0.69822 0.24457 0.0
C187 C 0.28194 0.70016 0.27197 0.0
C188 C 0.26457 0.69774 0.29916 0.0
C189 C 0.2304 0.69351 0.29952 0.0
C190 C 0.21307 0.69219 0.27189 0.0
O191 O 0.1894 0.73436 0.13097 0.0
O192 O 0.16627 0.68408 0.13353 0.0
O193 O 0.11609 0.78173 0.11369 0.0
O194 O 0.10786 0.73379 0.13097 0.0
C195 C 0.09764 0.75585 0.11181 0.0
O196 O 0.11774 0.71498 0.20525 0.0
O197 O 0.13231 0.76854 0.19508 0.0
O198 O 0.19804 0.66292 0.20954 0.0
O199 O 0.20025 0.71636 0.20202 0.0
H200 H 0.27786 0.69966 0.22339 0.0
H201 H 0.27786 0.69853 0.32041 0.0
H202 H 0.18672 0.68861 0.27186 0.0
O203 O 0.8081 0.81928 0.92165 0.0
Tb204 Tb 0.75993 0.84099 0.91438 0.0
Eu205 Eu 0.68366 0.83363 0.87766 0.0
C206 C 0.81199 0.78864 0.93036 0.0
O207 O 0.78642 0.7691 0.93144 0.0
C208 C 0.70069 0.80945 0.9433 0.0
O209 O 0.6371 0.86201 0.87011 0.0
C210 C 0.68699 0.77897 0.84764 0.0
C211 C 0.63259 0.88784 0.88736 0.0
O212 O 0.65479 0.89462 0.90803 0.0
C213 C 0.74484 0.87785 0.85388 0.0
C214 C 0.69309 0.76281 0.81828 0.0
C215 C 0.69721 0.72853 0.81814 0.0
C216 C 0.70296 0.71158 0.79104 0.0
C217 C 0.70467 0.72942 0.76399 0.0
C218 C 0.70027 0.76355 0.76349 0.0
C219 C 0.69419 0.78032 0.79077 0.0
O220 O 0.72849 0.8017 0.93026 0.0
O221 O 0.6793 0.82696 0.92809 0.0
O222 O 0.77979 0.87093 0.95073 0.0
O223 O 0.733 0.8832 0.93267 0.0
C224 C 0.7552 0.89105 0.95263 0.0
O225 O 0.71292 0.87495 0.85757 0.0
O226 O 0.76618 0.85922 0.8684 0.0
O227 O 0.65978 0.79606 0.85055 0.0
O228 O 0.7123 0.79179 0.86198 0.0
H229 H 0.69605 0.71504 0.83924 0.0
H230 H 0.70832 0.71651 0.74284 0.0
H231 H 0.69057 0.80665 0.79061 0.0
H232 H 0.2702 0.25305 0.22608 0.0
H233 H 0.28331 0.25034 0.17215 0.0
H234 H 0.31367 0.14971 0.18284 0.0
H235 H 0.30053 0.15244 0.23703 0.0
H236 H 0.33993 0.23112 0.13562 0.0
H237 H 0.2325 0.14762 0.12476 0.0
H238 H 0.23998 0.17163 0.1583 0.0
H239 H 0.26381 0.13543 0.15119 0.0
C240 C 0.28083 0.23075 0.2171 0.0
C241 C 0.28458 0.20302 0.2357 0.0
C242 C 0.28816 0.22917 0.18627 0.0
C243 C 0.29899 0.1997 0.17335 0.0
C244 C 0.30506 0.17262 0.1923 0.0
H245 H 0.34134 0.16982 0.98066 0.0
H246 H 0.34648 0.1746 0.03562 0.0
C247 C 0.29792 0.17428 0.22328 0.0
C248 C 0.30029 0.19657 0.13985 0.0
H249 H 0.26018 0.16162 0.08006 0.0
C250 C 0.32274 0.21569 0.12343 0.0
C251 C 0.27742 0.17689 0.12396 0.0
C252 C 0.25184 0.15686 0.1403 0.0
C253 C 0.32289 0.21562 0.09158 0.0
C254 C 0.30005 0.19587 0.07575 0.0
C255 C 0.27773 0.17669 0.0922 0.0
C256 C 0.29812 0.19528 0.04212 0.0
C257 C 0.34683 0.2374 0.07509 0.0
C258 C 0.26923 0.20528 1.02739 0.0
C259 C 0.2662 0.20261 0.99595 0.0
C260 C 0.29192 0.18955 0.97853 0.0
C261 C 0.3211 0.18016 0.9933 0.0
C262 C 0.32415 0.18297 1.02476 0.0
H263 H 0.35786 0.25612 0.09025 0.0
H264 H 0.36696 0.22214 0.06579 0.0
H265 H 0.3346 0.25007 0.0559 0.0
H266 H 0.24877 0.21475 0.04031 0.0
H267 H 0.2433 0.20993 0.98545 0.0
H268 H 0.17475 0.65002 0.08483 0.0
H269 H 0.17961 0.64383 1.03 0.0
H270 H 0.20827 0.7453 1.02239 0.0
H271 H 0.20439 0.7514 0.07711 0.0
H272 H 0.14522 0.6728 0.98706 0.0
H273 H 0.27549 0.70403 0.96883 0.0
H274 H 0.25915 0.69575 1.00593 0.0
H275 H 0.2549 0.73587 0.98925 0.0
C276 C 0.18271 0.67086 0.07155 0.0
C277 C 0.18938 0.70116 0.0855 0.0
C278 C 0.18538 0.66731 0.04014 0.0
C279 C 0.1948 0.69392 1.0219 0.0
C280 C 0.20188 0.72407 0.03586 0.0
H281 H 0.14341 0.74453 0.84203 0.0
H282 H 0.14476 0.72866 0.89513 0.0
C283 C 0.19946 0.72759 0.06727 0.0
C284 C 0.19488 0.69096 0.98823 0.0
H285 H 0.24004 0.70867 0.92526 0.0
C286 C 0.16618 0.68018 0.9736 0.0
C287 C 0.22234 0.69987 0.97042 0.0
C288 C 0.2548 0.70916 0.98445 0.0
C289 C 0.16361 0.67978 0.94189 0.0
C290 C 0.19016 0.6912 0.92414 0.0
C291 C 0.21948 0.70024 0.93871 0.0
C292 C 0.18707 0.6969 0.8909 0.0
C293 C 0.13227 0.66731 0.92778 0.0
C294 C 0.21031 0.6843 0.87045 0.0
C295 C 0.20962 0.69355 0.83982 0.0
C296 C 0.18591 0.71585 0.82928 0.0
C297 C 0.16184 0.72713 0.84949 0.0
C298 C 0.1625 0.71792 0.87989 0.0
H299 H 0.12028 0.64877 0.9425 0.0
H300 H 0.11488 0.68804 0.925 0.0
H301 H 0.13677 0.65617 0.90529 0.0
H302 H 0.22964 0.6682 0.87838 0.0
H303 H 0.22872 0.68485 0.82486 0.0
H304 H 0.64579 0.82043 0.97758 0.0
H305 H 0.64098 0.8179 1.03268 0.0
H306 H 0.74187 0.78675 0.03926 0.0
H307 H 0.7466 0.78833 0.98427 0.0
H308 H 0.70381 0.7533 0.07826 0.0
H309 H 0.67789 0.88642 0.08887 0.0
H310 H 0.64906 0.86464 0.06567 0.0
H311 H 0.69114 0.86811 0.05391 0.0
C312 C 0.66687 0.81272 0.99074 0.0
C313 C 0.69663 0.80472 0.97643 0.0
C314 C 0.66416 0.81156 1.0223 0.0
C315 C 0.69127 0.80286 0.04029 0.0
C316 C 0.72062 0.7937 1.02597 0.0
H317 H 0.74738 0.84958 0.21986 0.0
H318 H 0.73171 0.8483 0.16671 0.0
C319 C 0.72328 0.79458 0.99443 0.0
C320 C 0.68957 0.80389 0.07398 0.0
H321 H 0.67763 0.85546 0.13387 0.0
C322 C 0.69785 0.77557 0.09044 0.0
C323 C 0.68211 0.83306 0.08994 0.0
C324 C 0.67484 0.86488 0.07377 0.0
C325 C 0.69968 0.77577 0.12221 0.0
C326 C 0.6921 0.80492 0.1382 0.0
C327 C 0.683 0.833 0.12174 0.0
C328 C 0.69756 0.80797 0.17148 0.0
C329 C 0.71141 0.7452 0.13819 0.0
C330 C 0.68247 0.78679 0.19244 0.0
C331 C 0.69165 0.78737 0.22309 0.0
C332 C 0.7159 0.80929 0.23325 0.0
C333 C 0.7289 0.83214 0.21265 0.0
C334 C 0.7199 0.83145 0.1822 0.0
H335 H 0.72298 0.72753 0.12236 0.0
H336 H 0.72947 0.75135 0.15613 0.0
H337 H 0.69019 0.73281 0.14894 0.0
H338 H 0.66447 0.76904 0.18493 0.0
H339 H 0.68121 0.76949 0.23843 0.0
H340 H 0.85396 0.24181 0.8462 0.0
H341 H 0.85277 0.25702 0.8994 0.0
H342 H 0.77611 0.32724 0.88085 0.0
H343 H 0.77637 0.31093 0.8273 0.0
H344 H 0.86174 0.31021 0.9325 0.0
H345 H 0.73189 0.27006 0.94284 0.0
H346 H 0.75569 0.26298 0.90919 0.0
H347 H 0.7386 0.30285 0.91648 0.0
C348 C 0.83709 0.26081 0.85336 0.0
C349 C 0.81486 0.27478 0.83265 0.0
C350 C 0.83648 0.26955 0.88383 0.0
C351 C 0.81372 0.29263 0.89445 0.0
C352 C 0.79325 0.30866 0.87341 0.0
H353 H 0.82574 0.34403 0.08801 0.0
H354 H 0.82398 0.34854 1.03287 0.0
C355 C 0.79373 0.29971 0.84273 0.0
C356 C 0.81061 0.29794 0.92772 0.0
H357 H 0.75798 0.2881 0.98719 0.0
C358 C 0.83894 0.30573 0.94443 0.0
C359 C 0.78102 0.29147 0.94344 0.0
C360 C 0.75011 0.28108 0.92719 0.0
C361 C 0.83875 0.30644 0.97622 0.0
C362 C 0.80911 0.3002 0.99188 0.0
C363 C 0.78061 0.29316 0.9752 0.0
C364 C 0.80767 0.29866 1.02554 0.0
C365 C 0.87071 0.31222 0.99271 0.0
C366 C 0.79761 0.26966 0.03997 0.0
C367 C 0.79812 0.26715 0.07153 0.0
C368 C 0.80875 0.29362 0.08942 0.0
C369 C 0.81762 0.32308 0.07496 0.0
C370 C 0.81689 0.32562 0.04337 0.0
H371 H 0.89227 0.30839 0.9778 0.0
H372 H 0.87146 0.3379 1.00093 0.0
H373 H 0.87305 0.29565 1.01253 0.0
H374 H 0.79024 0.24854 1.02676 0.0
H375 H 0.7912 0.24406 0.08181 0.0
H376 H 0.81754 0.26751 0.32851 0.0
H377 H 0.83342 0.26807 0.38227 0.0
H378 H 0.7625 0.34445 0.39897 0.0
H379 H 0.74745 0.34453 0.3456 0.0
H380 H 0.81682 0.35395 0.43222 0.0
H381 H 0.77449 0.22499 0.44435 0.0
H382 H 0.80732 0.23118 0.41795 0.0
H383 H 0.76756 0.24851 0.41042 0.0
C384 C 0.80613 0.28501 0.34359 0.0
C385 C 0.78111 0.3058 0.33299 0.0
C386 C 0.81483 0.28502 0.37436 0.0
C387 C 0.79851 0.30569 0.39492 0.0
C388 C 0.7753 0.32808 0.38375 0.0
H389 H 0.74628 0.28827 0.58149 0.0
H390 H 0.75207 0.28563 0.52659 0.0
C391 C 0.76671 0.32813 0.3532 0.0
C392 C 0.80354 0.30306 0.42825 0.0
H393 H 0.79174 0.25181 0.48854 0.0
C394 C 0.81174 0.3315 0.44452 0.0
C395 C 0.79631 0.27391 0.44441 0.0
C396 C 0.78565 0.24295 0.42852 0.0
C397 C 0.81207 0.33188 0.47631 0.0
C398 C 0.80487 0.30272 0.49245 0.0
C399 C 0.79749 0.27407 0.4762 0.0
C400 C 0.80259 0.30203 0.52609 0.0
C401 C 0.81848 0.36397 0.49227 0.0
C402 C 0.82933 0.31119 0.54432 0.0
C403 C 0.82602 0.31293 0.57579 0.0
C404 C 0.79602 0.30512 0.58977 0.0
C405 C 0.76977 0.29443 0.57157 0.0
C406 C 0.77303 0.29294 0.5401 0.0
H407 H 0.81547 0.38531 0.47688 0.0
H408 H 0.80167 0.36714 0.51176 0.0
H409 H 0.84406 0.36419 0.50089 0.0
H410 H 0.85265 0.3175 0.53418 0.0
H411 H 0.84682 0.32102 0.58911 0.0
H412 H 0.34528 0.24773 0.7231 0.0
H413 H 0.34489 0.23236 0.66984 0.0
H414 H 0.26473 0.16567 0.68644 0.0
H415 H 0.26457 0.18185 0.74008 0.0
H416 H 0.35171 0.17706 0.63714 0.0
H417 H 0.22543 0.22672 0.62353 0.0
H418 H 0.2491 0.23262 0.65756 0.0
H419 H 0.2296 0.19387 0.65033 0.0
C420 C 0.32798 0.22929 0.71551 0.0
C421 C 0.30478 0.21618 0.73565 0.0
C422 C 0.32774 0.22053 0.68503 0.0
C423 C 0.30427 0.19845 0.67385 0.0
C424 C 0.28258 0.18337 0.69436 0.0
H425 H 0.31907 0.14911 0.47986 0.0
H426 H 0.31435 0.14329 0.53474 0.0
C427 C 0.28279 0.19223 0.72506 0.0
C428 C 0.30164 0.19337 0.64053 0.0
H429 H 0.2517 0.20789 0.5797 0.0
C430 C 0.3297 0.18339 0.62459 0.0
C431 C 0.27309 0.2022 0.62406 0.0
C432 C 0.24264 0.21473 0.63961 0.0
C433 C 0.33034 0.18285 0.5928 0.0
C434 C 0.3018 0.19172 0.57634 0.0
C435 C 0.27347 0.20087 0.59228 0.0
C436 C 0.30163 0.19408 0.54267 0.0
C437 C 0.36215 0.17442 0.5772 0.0
C438 C 0.29442 0.22413 0.52856 0.0
C439 C 0.29656 0.22741 0.49712 0.0
C440 C 0.30606 0.2007 0.47903 0.0
C441 C 0.31193 0.17026 0.49309 0.0
C442 C 0.30951 0.16695 0.52454 0.0
H443 H 0.38349 0.1761 0.59279 0.0
H444 H 0.36085 0.14888 0.56867 0.0
H445 H 0.36657 0.19096 0.55767 0.0
H446 H 0.28812 0.24542 0.54198 0.0
H447 H 0.2919 0.25124 0.48714 0.0
H448 H 0.24317 0.6469 0.34144 0.0
H449 H 0.22806 0.64743 0.39472 0.0
H450 H 0.16774 0.73282 0.37943 0.0
H451 H 0.18357 0.73262 0.32572 0.0
H452 H 0.20939 0.74227 0.42585 0.0
H453 H 0.14866 0.62289 0.44289 0.0
H454 H 0.18753 0.61749 0.42473 0.0
H455 H 0.15539 0.6399 0.40573 0.0
C456 C 0.22585 0.66517 0.34925 0.0
C457 C 0.21432 0.68955 0.32942 0.0
C458 C 0.21712 0.66541 0.37976 0.0
C459 C 0.19641 0.68992 0.39123 0.0
C460 C 0.18358 0.71351 0.37113 0.0
H461 H 0.15226 0.67559 0.58538 0.0
H462 H 0.14546 0.68127 0.53066 0.0
C463 C 0.19233 0.71322 0.34041 0.0
C464 C 0.19136 0.69262 0.42456 0.0
H465 H 0.17356 0.6471 0.48733 0.0
C466 C 0.20098 0.72164 0.43925 0.0
C467 C 0.17999 0.66597 0.44223 0.0
C468 C 0.16698 0.63497 0.42801 0.0
C469 C 0.20118 0.72409 0.47098 0.0
C470 C 0.19226 0.69652 0.48868 0.0
C471 C 0.18095 0.66814 0.47395 0.0
C472 C 0.19566 0.69602 0.52232 0.0
C473 C 0.21106 0.75625 0.48515 0.0
C474 C 0.22607 0.70261 0.53613 0.0
C475 C 0.22994 0.69973 0.5675 0.0
C476 C 0.20361 0.68965 0.58582 0.0
C477 C 0.17305 0.68351 0.57203 0.0
C478 C 0.16914 0.68665 0.54067 0.0
H479 H 0.20595 0.77717 0.46972 0.0
H480 H 0.19797 0.76049 0.50678 0.0
H481 H 0.23784 0.75597 0.48972 0.0
H482 H 0.2472 0.70897 0.52255 0.0
H483 H 0.25393 0.70426 0.57721 0.0
H484 H 0.7508 0.76541 0.72376 0.0
H485 H 0.74803 0.77967 0.67011 0.0
H486 H 0.6477 0.81095 0.68128 0.0
H487 H 0.65051 0.79659 0.73525 0.0
H488 H 0.65597 0.76345 0.6366 0.0
H489 H 0.74531 0.86414 0.62 0.0
H490 H 0.76184 0.83028 0.64106 0.0
H491 H 0.72863 0.85387 0.65661 0.0
C492 C 0.72856 0.77648 0.71496 0.0
C493 C 0.70098 0.78024 0.73366 0.0
C494 C 0.72698 0.78463 0.68429 0.0
C495 C 0.69774 0.79663 0.67161 0.0
C496 C 0.6706 0.80196 0.69059 0.0
H497 H 0.67198 0.84057 0.4785 0.0
H498 H 0.67523 0.84515 0.53364 0.0
C499 C 0.67228 0.79405 0.72145 0.0
C500 C 0.69452 0.79954 0.63816 0.0
H501 H 0.72973 0.834 0.5756 0.0
C502 C 0.67182 0.77921 0.62331 0.0
C503 C 0.71508 0.82016 0.62074 0.0
C504 C 0.73888 0.8436 0.6354 0.0
C505 C 0.66999 0.77803 0.5916 0.0
C506 C 0.69167 0.79742 0.57418 0.0
C507 C 0.71346 0.81877 0.58897 0.0
C508 C 0.69215 0.79546 0.54061 0.0
C509 C 0.64494 0.75587 0.57694 0.0
C510 C 0.70149 0.76629 0.52613 0.0
C511 C 0.69988 0.76363 0.49461 0.0
C512 C 0.6888 0.7901 0.47688 0.0
C513 C 0.68058 0.81969 0.49141 0.0
C514 C 0.6824 0.82237 0.52295 0.0
H515 H 0.62526 0.74868 0.59297 0.0
H516 H 0.63352 0.76799 0.55704 0.0
H517 H 0.65727 0.7332 0.56902 0.0
H518 H 0.70952 0.74535 0.53929 0.0
H519 H 0.70639 0.74048 0.48427 0.0
H520 H 0.38735 0.08754 0.3459 0.0
H521 H 0.42415 0.04046 0.33954 0.0
H522 H 0.47142 0.06355 0.4242 0.0
H523 H 0.43545 0.11082 0.43036 0.0
H524 H 0.51553 0.0511 0.37936 0.0
H525 H 0.42066 0.95326 0.38413 0.0
H526 H 0.4141 0.98397 0.35562 0.0
H527 H 0.41226 0.99509 0.39486 0.0
C528 C 0.40546 0.08242 0.36322 0.0
C529 C 0.40844 0.10283 0.38867 0.0
C530 C 0.42638 0.05547 0.35961 0.0
C531 C 0.45029 0.04832 0.38156 0.0
C532 C 0.45316 0.06864 0.40698 0.0
H533 H 0.55485 0.87413 0.42614 0.0
H534 H 0.5183 0.92112 0.42101 0.0
C535 C 0.4325 0.09561 0.4105 0.0
C536 C 0.47282 0.02003 0.37822 0.0
H537 H 0.47525 0.93642 0.37583 0.0
C538 C 0.50677 0.026 0.37839 0.0
C539 C 0.46126 0.98736 0.37717 0.0
C540 C 0.42511 0.97936 0.37818 0.0
C541 C 0.52951 0.00016 0.37831 0.0
C542 C 0.51795 0.96748 0.37733 0.0
C543 C 0.48401 0.96153 0.3764 0.0
C544 C 0.54045 0.93904 0.37977 0.0
C545 C 0.56561 0.00808 0.38063 0.0
C546 C 0.56505 0.93341 0.3582 0.0
C547 C 0.58631 0.90663 0.36124 0.0
C548 C 0.58299 0.88486 0.38571 0.0
C549 C 0.5581 0.89043 0.40704 0.0
C550 C 0.5371 0.91724 0.4041 0.0
H551 H 0.56989 0.03375 0.38805 0.0
H552 H 0.57809 0.9913 0.39676 0.0
H553 H 0.57716 0.00494 0.35814 0.0
H554 H 0.56766 0.94959 0.33894 0.0
H555 H 0.60506 0.90279 0.34431 0.0
H556 H 0.91638 0.38027 0.70833 0.0
H557 H 0.96415 0.4168 0.71057 0.0
H558 H 0.90863 0.49267 0.66567 0.0
H559 H 0.8612 0.45638 0.66289 0.0
H560 H 0.96862 0.48262 0.63994 0.0
H561 H 0.98089 0.49678 0.76419 0.0
H562 H 0.98013 0.45498 0.75145 0.0
H563 H 0.94442 0.48033 0.74658 0.0
C564 C 0.91432 0.40482 0.69914 0.0
C565 C 0.88503 0.4154 0.6854 0.0
C566 C 0.94155 0.42572 0.70062 0.0
C567 C 0.93979 0.45759 0.68863 0.0
C568 C 0.91048 0.46822 0.67515 0.0
H569 H 0.08147 0.61708 0.70654 0.0
H570 H 0.03246 0.58223 0.70955 0.0
C571 C 0.88339 0.44739 0.67358 0.0
C572 C 0.96887 0.47943 0.68851 0.0
H573 H 0.02423 0.51832 0.73417 0.0
C574 C 0.98072 0.4905 0.66055 0.0
C575 C 0.98433 0.49002 0.71545 0.0
C576 C 0.97167 0.48021 0.74616 0.0
C577 C 0.0079 0.51147 0.65873 0.0
C578 C 0.02406 0.52117 0.68559 0.0
C579 C 0.01192 0.51061 0.71362 0.0
C580 C 0.05393 0.54183 0.68484 0.0
C581 C 0.01882 0.52339 0.62805 0.0
C582 C 0.08231 0.53039 0.67045 0.0
C583 C 0.11015 0.55018 0.6686 0.0
C584 C 0.11028 0.58178 0.68132 0.0
C585 C 0.08208 0.59293 0.6964 0.0
C586 C 0.05412 0.57305 0.6982 0.0
H587 H -0.00104 0.52111 0.61094 0.0
H588 H 0.02682 0.54941 0.62901 0.0
H589 H 0.0399 0.50837 0.62035 0.0
H590 H 0.08288 0.50613 0.66052 0.0
H591 H 0.13155 0.54069 0.65706 0.0
H592 H 0.96086 0.35747 0.16418 0.0
H593 H 0.99674 0.40522 0.16692 0.0
H594 H 0.91934 0.46086 0.20903 0.0
H595 H 0.88326 0.41281 0.20687 0.0
H596 H 0.98677 0.46451 0.13982 0.0
H597 H -0.00216 0.47939 0.26408 0.0
H598 H 0.98208 0.44247 0.24684 0.0
H599 H 0.95629 0.47801 0.25049 0.0
C600 C 0.95146 0.37976 0.17426 0.0
C601 C 0.91918 0.38136 0.18532 0.0
C602 C 0.97205 0.40703 0.17581 0.0
C603 C 0.96086 0.43645 0.18849 0.0
C604 C 0.92869 0.43817 0.19972 0.0
H605 H 0.04135 0.62878 0.15537 0.0
H606 H 0.00762 0.57953 0.15883 0.0
C607 C 0.90804 0.41077 0.19829 0.0
C608 C 0.9824 0.46571 0.1883 0.0
H609 H 0.01923 0.52259 0.2337 0.0
C610 C 0.99396 0.47714 0.16036 0.0
C611 C 0.99208 0.48186 0.21515 0.0
C612 C 0.98172 0.46968 0.24589 0.0
C613 C 0.01452 0.50461 0.15847 0.0
C614 C 0.02324 0.52147 0.18521 0.0
C615 C 0.01223 0.50973 0.21323 0.0
C616 C 0.04338 0.55165 0.18434 0.0
C617 C 0.02701 0.51514 0.12787 0.0
C618 C 0.07432 0.55259 0.19832 0.0
C619 C 0.09371 0.58086 0.19651 0.0
C620 C 0.08232 0.60862 0.1808 0.0
C621 C 0.051 0.60774 0.16742 0.0
C622 C 0.03169 0.57957 0.16927 0.0
H623 H 0.02541 0.49495 0.11109 0.0
H624 H 0.01187 0.53585 0.11944 0.0
H625 H 0.05289 0.52353 0.12928 0.0
H626 H 0.08366 0.53129 0.21019 0.0
H627 H 0.11767 0.58084 0.20716 0.0
H628 H 0.40355 0.10771 0.84397 0.0
H629 H 0.44968 0.06996 0.83626 0.0
H630 H 0.42368 0.01825 0.91784 0.0
H631 H 0.37742 0.05517 0.92533 0.0
H632 H 0.50283 0.05756 0.87138 0.0
H633 H 0.43067 0.94372 0.85818 0.0
H634 H 0.41213 0.9839 0.85665 0.0
H635 H 0.42048 0.96465 0.89251 0.0
C636 C 0.40765 0.08823 0.86019 0.0
C637 C 0.38671 0.08429 0.88514 0.0
C638 C 0.43395 0.06666 0.85573 0.0
C639 C 0.43964 0.04081 0.87609 0.0
C640 C 0.41918 0.03738 0.90134 0.0
H641 H 0.61422 0.9386 0.92343 0.0
H642 H 0.56794 0.97571 0.91669 0.0
C643 C 0.39288 0.05872 0.90572 0.0
C644 C 0.4677 0.0181 0.87188 0.0
H645 H 0.48776 0.93681 0.87104 0.0
C646 C 0.49953 0.03117 0.87085 0.0
C647 C 0.46338 0.98368 0.87054 0.0
C648 C 0.42978 0.96818 0.86919 0.0
C649 C 0.52721 0.0107 0.87023 0.0
C650 C 0.52291 0.97626 0.87137 0.0
C651 C 0.49106 0.9632 0.87066 0.0
C652 C 0.55104 0.95349 0.87507 0.0
C653 C 0.56077 0.02622 0.86856 0.0
C654 C 0.55622 0.92776 0.85455 0.0
C655 C 0.58253 0.90606 0.85859 0.0
C656 C 0.60399 0.90976 0.88328 0.0
C657 C 0.59836 0.93523 0.904 0.0
C658 C 0.57204 0.9567 0.90005 0.0
H659 H 0.55966 0.05077 0.85768 0.0
H660 H 0.5705 0.02957 0.89179 0.0
H661 H 0.57819 0.01061 0.85574 0.0
H662 H 0.54008 0.92463 0.83528 0.0
H663 H 0.58622 0.88666 0.84226 0.0
H664 H 0.42155 0.20564 0.31944 0.0
H665 H 0.47485 0.22002 0.29846 0.0
H666 H 0.46188 0.32002 0.32761 0.0
H667 H 0.40848 0.30566 0.3494 0.0
H668 H 0.49936 0.26511 0.25694 0.0
H669 H 0.54406 0.29046 0.3735 0.0
H670 H 0.50504 0.27117 0.36618 0.0
H671 H 0.50967 0.31467 0.36125 0.0
C672 C 0.42968 0.23087 0.32103 0.0
C673 C 0.41089 0.25438 0.33657 0.0
C674 C 0.4602 0.23906 0.30889 0.0
C675 C 0.47269 0.27091 0.31202 0.0
C676 C 0.45298 0.29511 0.32547 0.0
H677 H 0.66829 0.3249 0.24183 0.0
H678 H 0.6085 0.32152 0.24805 0.0
C679 C 0.42233 0.28692 0.3377 0.0
C680 C 0.50739 0.27755 0.30363 0.0
H681 H 0.58243 0.29473 0.33429 0.0
C682 C 0.51752 0.27195 0.27374 0.0
C683 C 0.53113 0.28593 0.32572 0.0
C684 C 0.52213 0.29067 0.35852 0.0
C685 C 0.5508 0.27399 0.26547 0.0
C686 C 0.57448 0.28222 0.28762 0.0
C687 C 0.56422 0.28851 0.31732 0.0
C688 C 0.6103 0.28251 0.28124 0.0
C689 C 0.56051 0.26601 0.23344 0.0
C690 C 0.63116 0.26162 0.29762 0.0
C691 C 0.66515 0.2636 0.29419 0.0
C692 C 0.67912 0.2866 0.27433 0.0
C693 C 0.65821 0.30668 0.25702 0.0
C694 C 0.62405 0.30478 0.26058 0.0
H695 H 0.54047 0.25343 0.22095 0.0
H696 H 0.56643 0.28907 0.22131 0.0
H697 H 0.58268 0.25017 0.2331 0.0
H698 H 0.62112 0.24417 0.31361 0.0
H699 H 0.68062 0.24762 0.30765 0.0
H700 H 0.32652 0.32938 0.82618 0.0
H701 H 0.32432 0.3892 0.81975 0.0
H702 H 0.24783 0.37801 0.75304 0.0
H703 H 0.25011 0.31852 0.75919 0.0
H704 H 0.29888 0.41636 0.73314 0.0
H705 H 0.25677 0.45772 0.84625 0.0
H706 H 0.29228 0.43156 0.84611 0.0
H707 H 0.25334 0.41565 0.83396 0.0
C708 C 0.30877 0.3398 0.81064 0.0
C709 C 0.28857 0.31927 0.7931 0.0
C710 C 0.30754 0.37397 0.80697 0.0
C711 C 0.28582 0.38815 0.78597 0.0
C712 C 0.26488 0.36767 0.76928 0.0
H713 H 0.20916 0.57669 0.74798 0.0
H714 H 0.2239 0.52348 0.76903 0.0
C715 C 0.2662 0.33366 0.77282 0.0
C716 C 0.28597 0.42401 0.77972 0.0
H717 H 0.26881 0.49894 0.81045 0.0
C718 C 0.29258 0.43447 0.75011 0.0
C719 C 0.27765 0.44757 0.80187 0.0
C720 C 0.26933 0.4377 0.8338 0.0
C721 C 0.29015 0.46762 0.74177 0.0
C722 C 0.28158 0.49122 0.76383 0.0
C723 C 0.27577 0.4809 0.79366 0.0
C724 C 0.27479 0.52592 0.75544 0.0
C725 C 0.29514 0.47678 0.70902 0.0
C726 C 0.29887 0.54582 0.74197 0.0
C727 C 0.29046 0.57645 0.7297 0.0
C728 C 0.25783 0.58767 0.73082 0.0
C729 C 0.23446 0.56873 0.74642 0.0
C730 C 0.24286 0.53825 0.75859 0.0
H731 H 0.29512 0.45496 0.69401 0.0
H732 H 0.27566 0.49387 0.70122 0.0
H733 H 0.31916 0.4893 0.70651 0.0
H734 H 0.32385 0.53708 0.73983 0.0
H735 H 0.30909 0.5904 0.71792 0.0
H736 H 0.58863 0.68359 0.34828 0.0
H737 H 0.53594 0.66815 0.32557 0.0
H738 H 0.52274 0.76733 0.29388 0.0
H739 H 0.57531 0.78271 0.31578 0.0
H740 H 0.47849 0.69323 0.34376 0.0
H741 H 0.4909 0.71684 0.22149 0.0
H742 H 0.526 0.71357 0.24631 0.0
H743 H 0.50382 0.75166 0.24316 0.0
C744 C 0.575 0.70185 0.33565 0.0
C745 C 0.5862 0.73443 0.33399 0.0
C746 C 0.54479 0.69301 0.32278 0.0
C747 C 0.52542 0.71648 0.30774 0.0
C748 C 0.53744 0.74855 0.30472 0.0
H749 H 0.31821 0.74138 0.30721 0.0
H750 H 0.37777 0.74236 0.31359 0.0
C751 C 0.56751 0.75739 0.31755 0.0
C752 C 0.49102 0.70894 0.29874 0.0
H753 H 0.43544 0.71828 0.24135 0.0
C754 C 0.46926 0.69813 0.3212 0.0
C755 C 0.47886 0.71501 0.26925 0.0
C756 C 0.50123 0.72457 0.24362 0.0
C757 C 0.43552 0.69495 0.31544 0.0
C758 C 0.42303 0.70339 0.28659 0.0
C759 C 0.44495 0.71238 0.26361 0.0
C760 C 0.38716 0.70445 0.28055 0.0
C761 C 0.41347 0.683 0.3405 0.0
C762 C 0.37273 0.68392 0.25879 0.0
C763 C 0.33855 0.68342 0.25498 0.0
C764 C 0.31831 0.70351 0.27285 0.0
C765 C 0.33308 0.72518 0.2935 0.0
C766 C 0.3671 0.72572 0.29723 0.0
H767 H 0.42738 0.6686 0.35759 0.0
H768 H 0.40248 0.70444 0.35213 0.0
H769 H 0.39326 0.66756 0.3315 0.0
H770 H 0.38781 0.66751 0.24551 0.0
H771 H 0.32789 0.66637 0.23898 0.0
H772 H 0.6649 0.66553 0.81972 0.0
H773 H 0.66688 0.60575 0.81353 0.0
H774 H 0.74991 0.61584 0.754 0.0
H775 H 0.74805 0.67534 0.76005 0.0
H776 H 0.70009 0.57773 0.72992 0.0
H777 H 0.73141 0.53695 0.84638 0.0
H778 H 0.69649 0.56368 0.84312 0.0
H779 H 0.73664 0.57881 0.83396 0.0
C780 C 0.68399 0.65492 0.80583 0.0
C781 C 0.70625 0.6752 0.79029 0.0
C782 C 0.68508 0.62075 0.80229 0.0
C783 C 0.70864 0.60626 0.78339 0.0
C784 C 0.73144 0.62644 0.76861 0.0
H785 H 0.78521 0.41602 0.75235 0.0
H786 H 0.76999 0.4697 0.77195 0.0
C787 C 0.73032 0.66047 0.77206 0.0
C788 C 0.70872 0.57036 0.77743 0.0
H789 H 0.72203 0.49552 0.81013 0.0
C790 C 0.70461 0.55971 0.7475 0.0
C791 C 0.71474 0.54692 0.80038 0.0
C792 C 0.72034 0.55702 0.83276 0.0
C793 C 0.70719 0.52643 0.73972 0.0
C794 C 0.71342 0.50294 0.76261 0.0
C795 C 0.71684 0.51349 0.79268 0.0
C796 C 0.72014 0.46802 0.75514 0.0
C797 C 0.70482 0.51695 0.70681 0.0
C798 C 0.69669 0.44841 0.74038 0.0
C799 C 0.70536 0.41751 0.729 0.0
C800 C 0.73764 0.40572 0.73226 0.0
C801 C 0.76021 0.4244 0.74915 0.0
C802 C 0.75154 0.45515 0.76047 0.0
H803 H 0.70641 0.53859 0.6916 0.0
H804 H 0.72464 0.4995 0.7007 0.0
H805 H 0.68091 0.50471 0.70264 0.0
H806 H 0.6721 0.45761 0.73651 0.0
H807 H 0.68735 0.4038 0.71615 0.0
H808 H 0.90934 0.18277 0.21214 0.0
H809 H 0.96231 0.16698 0.2341 0.0
H810 H 0.97254 0.26363 0.27243 0.0
H811 H 0.9197 0.27932 0.25125 0.0
H812 H 0.01912 0.19532 0.21786 0.0
H813 H 0.00557 0.20811 0.34137 0.0
H814 H 0.97068 0.20582 0.31621 0.0
H815 H 0.99162 0.24421 0.32208 0.0
C816 C 0.92235 0.20031 0.22607 0.0
C817 C 0.91025 0.23237 0.2298 0.0
C818 C 0.95274 0.19129 0.23851 0.0
C819 C 0.97137 0.21401 0.25517 0.0
C820 C 0.95843 0.24539 0.26027 0.0
H821 H 0.17757 0.24581 0.25928 0.0
H822 H 0.11811 0.24505 0.25223 0.0
C823 C 0.92819 0.25442 0.24788 0.0
C824 C 0.00595 0.20675 0.26378 0.0
H825 H 0.06102 0.21283 0.32195 0.0
C826 C 0.02812 0.19856 0.24075 0.0
C827 C 0.01782 0.21064 0.29368 0.0
C828 C 0.99507 0.21734 0.31978 0.0
C829 C 0.06193 0.19594 0.24644 0.0
C830 C 0.07404 0.20225 0.27586 0.0
C831 C 0.05177 0.20857 0.29929 0.0
C832 C 0.10984 0.2039 0.28215 0.0
C833 C 0.08445 0.1869 0.22073 0.0
C834 C 0.12483 0.18193 0.30238 0.0
C835 C 0.15896 0.18235 0.30653 0.0
C836 C 0.17862 0.20483 0.29057 0.0
C837 C 0.16323 0.22776 0.27145 0.0
C838 C 0.12924 0.22734 0.26736 0.0
H839 H 0.07106 0.17372 0.20253 0.0
H840 H 0.09493 0.20961 0.21083 0.0
H841 H 0.10503 0.17125 0.22871 0.0
H842 H 0.11025 0.16381 0.3142 0.0
H843 H 0.17007 0.16427 0.3213 0.0
H844 H 0.28098 0.08338 0.8101 0.0
H845 H 0.26787 0.0306 0.78707 0.0
H846 H 0.17547 0.02898 0.8344 0.0
H847 H 0.18808 0.08234 0.85687 0.0
H848 H 0.26159 0.97604 0.8189 0.0
H849 H 0.14709 0.99441 0.75349 0.0
H850 H 0.17179 0.02826 0.7667 0.0
H851 H 0.14356 0.0081 0.79184 0.0
C852 C 0.25743 0.07224 0.81494 0.0
C853 C 0.23556 0.08708 0.83532 0.0
C854 C 0.25 0.04199 0.8018 0.0
C855 C 0.22061 0.02573 0.80882 0.0
C856 C 0.19797 0.04125 0.82802 0.0
H857 H 0.15481 0.82555 0.80329 0.0
H858 H 0.16111 0.88491 0.80893 0.0
C859 C 0.20524 0.07181 0.84093 0.0
C860 C 0.21568 0.99112 0.79901 0.0
H861 H 0.16171 0.93866 0.76476 0.0
C862 C 0.23995 0.96802 0.80665 0.0
C863 C 0.18736 0.98049 0.78321 0.0
C864 C 0.16112 0.00418 0.77307 0.0
C865 C 0.23633 0.93464 0.79969 0.0
C866 C 0.2078 0.92395 0.78436 0.0
C867 C 0.18363 0.94696 0.77641 0.0
C868 C 0.20202 0.88864 0.77809 0.0
C869 C 0.26255 0.91083 0.80975 0.0
C870 C 0.22238 0.87115 0.75822 0.0
C871 C 0.21885 0.83714 0.75495 0.0
C872 C 0.195 0.82005 0.77164 0.0
C873 C 0.17374 0.83794 0.79047 0.0
C874 C 0.17716 0.87188 0.79358 0.0
H875 H 0.27997 0.92208 0.82608 0.0
H876 H 0.25135 0.88886 0.8204 0.0
H877 H 0.27671 0.90256 0.78978 0.0
H878 H 0.24154 0.8837 0.74583 0.0
H879 H 0.23562 0.82404 0.74033 0.0
H880 H 0.82276 0.75621 0.32145 0.0
H881 H 0.88255 0.75045 0.31638 0.0
H882 H 0.88463 0.83436 0.25705 0.0
H883 H 0.82518 0.84031 0.26214 0.0
H884 H 0.91345 0.74037 0.25882 0.0
H885 H 0.96192 0.85131 0.31607 0.0
H886 H 0.92128 0.83536 0.32316 0.0
H887 H 0.92925 0.85887 0.28962 0.0
C888 C 0.83612 0.77382 0.30788 0.0
C889 C 0.81931 0.79862 0.2921 0.0
C890 C 0.87021 0.77046 0.30492 0.0
C891 C 0.88808 0.79219 0.28659 0.0
C892 C 0.87146 0.81765 0.2717 0.0
H893 H 0.0799 0.8043 0.2052 0.0
H894 H 0.02616 0.816 0.22753 0.0
C895 C 0.83745 0.82084 0.27442 0.0
C896 C 0.92345 0.78648 0.28049 0.0
H897 H -0.00064 0.8219 0.28482 0.0
C898 C 0.93233 0.75794 0.26487 0.0
C899 C 0.94791 0.80971 0.28802 0.0
C900 C 0.93977 0.84044 0.30537 0.0
C901 C 0.96484 0.75241 0.25573 0.0
C902 C 0.98943 0.77564 0.26324 0.0
C903 C 0.98059 0.80404 0.27921 0.0
C904 C 0.02412 0.77114 0.25366 0.0
C905 C 0.97218 0.72239 0.23697 0.0
C906 C 0.0416 0.74293 0.26214 0.0
C907 C 0.0721 0.73607 0.24923 0.0
C908 C 0.08608 0.75762 0.22802 0.0
C909 C 0.06988 0.78727 0.22155 0.0
C910 C 0.03908 0.79391 0.23421 0.0
H911 H 0.94963 0.7121 0.22648 0.0
H912 H 0.98998 0.72811 0.21875 0.0
H913 H 0.98301 0.70315 0.25167 0.0
H914 H 0.031 0.72546 0.27777 0.0
H915 H 0.08413 0.71318 0.25494 0.0
H916 H 0.76152 0.16995 0.74165 0.0
H917 H 0.75426 0.11033 0.74636 0.0
H918 H 0.83501 0.10615 0.80937 0.0
H919 H 0.84269 0.16539 0.80443 0.0
H920 H 0.83339 0.05324 0.76577 0.0
H921 H 0.7146 0.07153 0.82521 0.0
H922 H 0.71837 0.0909 0.78887 0.0
H923 H 0.74366 0.10439 0.81972 0.0
C924 C 0.77806 0.1562 0.75606 0.0
C925 C 0.80239 0.17241 0.77296 0.0
C926 C 0.77376 0.12221 0.7589 0.0
C927 C 0.7938 0.1039 0.77857 0.0
C928 C 0.81917 0.1198 0.79419 0.0
H929 H 0.80359 0.91036 0.85813 0.0
H930 H 0.81718 0.96353 0.83569 0.0
C931 C 0.82338 0.15368 0.79148 0.0
C932 C 0.78721 0.06864 0.78453 0.0
H933 H 0.73213 0.0173 0.81818 0.0
C934 C 0.81116 0.04526 0.77702 0.0
C935 C 0.75828 0.05835 0.79937 0.0
C936 C 0.73228 0.08252 0.80903 0.0
C937 C 0.80684 0.0118 0.78384 0.0
C938 C 0.77814 0.00159 0.79917 0.0
C939 C 0.75407 0.02501 0.8063 0.0
C940 C 0.77264 0.96708 0.80907 0.0
C941 C 0.83292 0.98773 0.77427 0.0
C942 C 0.74327 0.95107 0.80145 0.0
C943 C 0.73529 0.92091 0.81455 0.0
C944 C 0.75656 0.90595 0.83551 0.0
C945 C 0.78688 0.92099 0.84177 0.0
C946 C 0.79471 0.95143 0.82888 0.0
H947 H 0.84744 -0.00271 0.75495 0.0
H948 H 0.85006 0.98356 0.7934 0.0
H949 H 0.82201 0.9638 0.76775 0.0
H950 H 0.72584 0.96257 0.78625 0.0
H951 H 0.71177 0.90996 0.80916 0.0
H952 H 0.33643 0.36923 0.44035 0.0
H953 H 0.32317 0.4171 0.47108 0.0
H954 H 0.22397 0.38228 0.4815 0.0
H955 H 0.23692 0.33411 0.45062 0.0
H956 H 0.23307 0.45463 0.47081 0.0
H957 H 0.30804 0.40296 0.56442 0.0
H958 H 0.32835 0.40453 0.52843 0.0
H959 H 0.29328 0.37836 0.53331 0.0
C960 C 0.31162 0.3719 0.44874 0.0
C961 C 0.28783 0.34762 0.44329 0.0
C962 C 0.30414 0.39926 0.46637 0.0
C963 C 0.27278 0.40287 0.47891 0.0
C964 C 0.24837 0.37978 0.47211 0.0
H965 H 0.20781 0.55808 0.60486 0.0
H966 H 0.20655 0.50991 0.57134 0.0
C967 C 0.25584 0.3523 0.45446 0.0
C968 C 0.26644 0.42961 0.50072 0.0
H969 H 0.29111 0.45841 0.56946 0.0
C970 C 0.24538 0.45538 0.49255 0.0
C971 C 0.28236 0.43023 0.52913 0.0
C972 C 0.30406 0.40243 0.53957 0.0
C973 C 0.24117 0.48271 0.51155 0.0
C974 C 0.25816 0.48387 0.53945 0.0
C975 C 0.2782 0.45747 0.54801 0.0
C976 C 0.25784 0.51328 0.55905 0.0
C977 C 0.21983 0.51077 0.50115 0.0
C978 C 0.2871 0.53072 0.56348 0.0
C979 C 0.28788 0.5579 0.58254 0.0
C980 C 0.25944 0.5681 0.59771 0.0
C981 C 0.23005 0.55068 0.59336 0.0
C982 C 0.22927 0.52337 0.57414 0.0
H983 H 0.21242 0.50825 0.47708 0.0
H984 H 0.19729 0.5116 0.51514 0.0
H985 H 0.23289 0.53447 0.50407 0.0
H986 H 0.30942 0.52327 0.55213 0.0
H987 H 0.31086 0.57088 0.58545 0.0
H988 H 0.57564 0.68891 0.48785 0.0
H989 H 0.52986 0.69268 0.52313 0.0
H990 H 0.51264 0.7927 0.49548 0.0
H991 H 0.55855 0.78889 0.4596 0.0
H992 H 0.52037 0.7361 0.5717 0.0
H993 H 0.42254 0.74854 0.48434 0.0
H994 H 0.46361 0.73533 0.47519 0.0
H995 H 0.45549 0.7778 0.48277 0.0
C996 C 0.56207 0.71171 0.48919 0.0
C997 C 0.57043 0.73854 0.47085 0.0
C998 C 0.536 0.71386 0.50946 0.0
C999 C 0.51764 0.74283 0.51174 0.0
C1000 C 0.52618 0.76993 0.49373 0.0
H1001 H 0.33465 0.76209 0.61458 0.0
H1002 H 0.38454 0.777 0.58706 0.0
C1003 C 0.5524 0.76778 0.47335 0.0
C1004 C 0.48943 0.74399 0.53284 0.0
H1005 H 0.4057 0.74589 0.53497 0.0
C1006 C 0.4953 0.73859 0.56374 0.0
C1007 C 0.45677 0.74738 0.52241 0.0
C1008 C 0.44899 0.75236 0.48937 0.0
C1009 C 0.46933 0.7356 0.58436 0.0
C1010 C 0.43664 0.73755 0.57372 0.0
C1011 C 0.4308 0.74438 0.54307 0.0
C1012 C 0.40815 0.72997 0.59337 0.0
C1013 C 0.47714 0.73004 0.61731 0.0
C1014 C 0.40499 0.69869 0.6063 0.0
C1015 C 0.37655 0.69007 0.62201 0.0
C1016 C 0.35056 0.71252 0.62497 0.0
C1017 C 0.35423 0.74423 0.61283 0.0
C1018 C 0.38269 0.75279 0.59703 0.0
H1019 H 0.50194 0.73942 0.62319 0.0
H1020 H 0.45878 0.74211 0.6321 0.0
H1021 H 0.47678 0.70332 0.62209 0.0
H1022 H 0.42401 0.68044 0.60324 0.0
H1023 H 0.37453 0.66541 0.63095 0.0
H1024 H 0.68872 0.41649 0.58182 0.0
H1025 H 0.68974 0.46395 0.54819 0.0
H1026 H 0.78983 0.48382 0.57427 0.0
H1027 H 0.789 0.43587 0.60815 0.0
H1028 H 0.70303 0.52996 0.5673 0.0
H1029 H 0.79017 0.48576 0.47947 0.0
H1030 H 0.7692 0.45805 0.50479 0.0
H1031 H 0.80272 0.48244 0.51839 0.0
C1032 C 0.71103 0.43085 0.58033 0.0
C1033 C 0.73878 0.4226 0.59759 0.0
C1034 C 0.71157 0.45792 0.56108 0.0
C1035 C 0.73992 0.47719 0.55856 0.0
C1036 C 0.76786 0.46895 0.57561 0.0
H1037 H 0.75995 0.65847 0.45331 0.0
H1038 H 0.77261 0.61005 0.48407 0.0
C1039 C 0.76731 0.44175 0.59503 0.0
C1040 C 0.73913 0.50673 0.53908 0.0
H1041 H 0.7671 0.53833 0.47237 0.0
C1042 C 0.7172 0.5319 0.54666 0.0
C1043 C 0.75778 0.50918 0.51226 0.0
C1044 C 0.78121 0.48242 0.50296 0.0
C1045 C 0.71291 0.55923 0.52784 0.0
C1046 C 0.73061 0.56116 0.50045 0.0
C1047 C 0.75342 0.53658 0.4933 0.0
C1048 C 0.72464 0.58814 0.47871 0.0
C1049 C 0.68929 0.58579 0.53733 0.0
C1050 C 0.6939 0.59114 0.46465 0.0
C1051 C 0.68657 0.61867 0.4471 0.0
C1052 C 0.70991 0.64373 0.44323 0.0
C1053 C 0.74138 0.63969 0.45591 0.0
C1054 C 0.74869 0.61206 0.47349 0.0
H1055 H 0.68389 0.58466 0.56191 0.0
H1056 H 0.69921 0.61046 0.53191 0.0
H1057 H 0.66583 0.58269 0.52488 0.0
H1058 H 0.67518 0.57266 0.4681 0.0
H1059 H 0.66218 0.62084 0.43752 0.0
H1060 H 0.42345 0.30197 0.48784 0.0
H1061 H 0.46974 0.29831 0.52277 0.0
H1062 H 0.48512 0.19749 0.49706 0.0
H1063 H 0.4386 0.20112 0.4616 0.0
H1064 H 0.47888 0.25449 0.57228 0.0
H1065 H 0.5758 0.24149 0.48451 0.0
H1066 H 0.53489 0.2555 0.47555 0.0
H1067 H 0.54223 0.21289 0.48314 0.0
C1068 C 0.4367 0.27901 0.48954 0.0
C1069 C 0.42761 0.25187 0.4719 0.0
C1070 C 0.46307 0.27693 0.5096 0.0
C1071 C 0.48102 0.24775 0.51234 0.0
C1072 C 0.47184 0.22039 0.49497 0.0
H1073 H 0.66549 0.22967 0.61383 0.0
H1074 H 0.61549 0.21451 0.58644 0.0
C1075 C 0.44528 0.22244 0.47483 0.0
C1076 C 0.50943 0.24663 0.53332 0.0
H1077 H 0.59318 0.24512 0.53499 0.0
C1078 C 0.50388 0.25206 0.56421 0.0
C1079 C 0.54197 0.24332 0.52273 0.0
C1080 C 0.54933 0.23818 0.48967 0.0
C1081 C 0.53005 0.25517 0.5847 0.0
C1082 C 0.56264 0.25339 0.5739 0.0
C1083 C 0.56817 0.24652 0.54323 0.0
C1084 C 0.59133 0.26112 0.59338 0.0
C1085 C 0.52254 0.26064 0.61767 0.0
C1086 C 0.59423 0.29225 0.60664 0.0
C1087 C 0.62272 0.30099 0.62233 0.0
C1088 C 0.64904 0.27884 0.62489 0.0
C1089 C 0.64568 0.2473 0.61237 0.0
C1090 C 0.61714 0.2386 0.59664 0.0
H1091 H 0.49797 0.25083 0.62371 0.0
H1092 H 0.54126 0.2489 0.63241 0.0
H1093 H 0.52245 0.28736 0.62237 0.0
H1094 H 0.57496 0.3103 0.60387 0.0
H1095 H 0.62451 0.32552 0.63154 0.0
H1096 H 0.80081 0.90757 0.99439 0.0
H1097 H 0.80092 0.95504 1.02794 0.0
H1098 H 0.70702 0.98517 0.99233 0.0
H1099 H 0.70667 0.93724 0.95856 0.0
H1100 H 0.79747 0.02117 1.00613 0.0
H1101 H 0.6968 0.99117 0.08642 0.0
H1102 H 0.71702 0.96021 0.06398 0.0
H1103 H 0.68792 0.98744 0.0467 0.0
C1104 C 0.78002 0.92412 0.99387 0.0
C1105 C 0.75379 0.91887 0.97382 0.0
C1106 C 0.78011 0.95118 1.01308 0.0
C1107 C 0.7539 0.97344 1.01277 0.0
C1108 C 0.72726 0.96798 0.9932 0.0
H1109 H 0.73709 0.16181 0.1051 0.0
H1110 H 0.72485 0.11156 0.07698 0.0
C1111 C 0.72717 0.94078 0.97384 0.0
C1112 C 0.75603 0.00348 1.03142 0.0
H1113 H 0.72362 0.04211 0.093 0.0
C1114 C 0.78128 0.0258 1.02508 0.0
C1115 C 0.73473 0.00946 0.05598 0.0
C1116 C 0.70765 0.9858 0.06396 0.0
C1117 C 0.78604 0.05386 0.04279 0.0
C1118 C 0.76538 0.05943 0.0679 0.0
C1119 C 0.73956 0.03757 0.07387 0.0
C1120 C 0.77074 0.0878 0.08818 0.0
C1121 C 0.81308 0.07745 0.03434 0.0
C1122 C 0.80004 0.09049 0.10471 0.0
C1123 C 0.80717 0.11913 0.12072 0.0
C1124 C 0.78501 0.14556 0.12062 0.0
C1125 C 0.75476 0.14197 0.10555 0.0
C1126 C 0.74768 0.11328 0.08948 0.0
H1127 H 0.82114 0.07404 1.01058 0.0
H1128 H 0.80501 0.10325 0.03733 0.0
H1129 H 0.83459 0.07318 0.04926 0.0
H1130 H 0.81791 0.07082 0.10437 0.0
H1131 H 0.83056 0.12094 0.13227 0.0
H1132 H 0.94068 0.28765 0.10873 0.0
H1133 H 0.98655 0.29175 0.07285 0.0
H1134 H 0.95665 0.20054 1.03188 0.0
H1135 H 0.91093 0.19657 0.06717 0.0
H1136 H 0.03742 0.24778 0.06632 0.0
H1137 H 0.96975 0.25869 0.95837 0.0
H1138 H 0.95051 0.26554 0.99454 0.0
H1139 H 0.9558 0.2245 0.98038 0.0
C1140 C 0.94382 0.26871 0.09183 0.0
C1141 C 0.92235 0.2418 0.09067 0.0
C1142 C 0.96992 0.27109 0.07137 0.0
C1143 C 0.97465 0.24676 0.04931 0.0
C1144 C 0.95302 0.22003 0.04814 0.0
H1145 H 0.12023 0.16717 0.93458 0.0
H1146 H 0.07075 0.18312 0.96206 0.0
C1147 C 0.92707 0.21763 0.06853 0.0
C1148 C 0.00351 0.24761 1.02895 0.0
H1149 H 0.02581 0.23978 0.95492 0.0
C1150 C 0.03496 0.24673 0.04193 0.0
C1151 C 0.00022 0.24626 0.99712 0.0
C1152 C 0.96724 0.24914 0.98177 0.0
C1153 C 0.06308 0.24261 1.02405 0.0
C1154 C 0.05963 0.23966 0.99235 0.0
C1155 C 0.02833 0.24188 0.97925 0.0
C1156 C 0.08806 0.23186 0.97285 0.0
C1157 C 0.09613 0.23978 0.03929 0.0
C1158 C 0.11374 0.25439 0.96903 0.0
C1159 C 0.14206 0.2454 0.95324 0.0
C1160 C 0.14519 0.21367 0.94108 0.0
C1161 C 0.11871 0.19174 0.94376 0.0
C1162 C 0.09038 0.20081 0.95943 0.0
H1163 H 0.09399 0.23749 0.06423 0.0
H1164 H 0.10972 0.21818 1.03055 0.0
H1165 H 0.11088 0.26197 0.03421 0.0
H1166 H 0.11221 0.27861 0.97895 0.0
H1167 H 0.16193 0.26293 0.95154 0.0
H1168 H 0.26079 0.83379 0.11432 0.0
H1169 H 0.27616 0.88412 0.08765 0.0
H1170 H 0.17869 0.92252 0.10111 0.0
H1171 H 0.16319 0.87259 0.12794 0.0
H1172 H 0.24611 0.90551 0.03472 0.0
H1173 H 0.23668 0.00058 0.12342 0.0
H1174 H 0.23963 0.95737 0.13208 0.0
H1175 H 0.20087 0.97506 0.12131 0.0
C1176 C 0.24281 0.85322 0.11215 0.0
C1177 C 0.21072 0.84914 0.12323 0.0
C1178 C 0.25164 0.88192 0.09685 0.0
C1179 C 0.2287 0.90719 0.09268 0.0
C1180 C 0.19701 0.90362 0.10459 0.0
H1181 H 0.18843 0.07536 0.98767 0.0
H1182 H 0.19186 0.02912 1.02261 0.0
C1183 C 0.18812 0.87493 0.11979 0.0
C1184 C 0.23662 0.93592 0.07346 0.0
H1185 H 0.2344 0.01957 0.07199 0.0
C1186 C 0.24419 0.93049 0.04294 0.0
C1187 C 0.23412 0.96842 0.08429 0.0
C1188 C 0.2277 0.97577 0.11715 0.0
C1189 C 0.24739 0.95669 1.02253 0.0
C1190 C 0.24342 0.98917 0.03311 0.0
C1191 C 0.23732 0.99463 0.06391 0.0
C1192 C 0.24241 0.01756 1.01219 0.0
C1193 C 0.25317 0.94935 0.98955 0.0
C1194 C 0.26982 0.02657 0.99483 0.0
C1195 C 0.26785 0.05301 0.97465 0.0
C1196 C 0.2385 0.07082 0.97172 0.0
C1197 C 0.21132 0.06198 0.98939 0.0
C1198 C 0.21328 0.03565 1.00944 0.0
H1199 H 0.2497 0.92295 0.98427 0.0
H1200 H 0.2363 0.96396 0.9751 0.0
H1201 H 0.2787 0.95616 0.98355 0.0
H1202 H 0.29268 0.01322 0.99696 0.0
H1203 H 0.28921 0.05953 0.96141 0.0
H1204 H 0.82726 0.72896 0.95522 0.0
H1205 H 0.87751 0.71401 0.98235 0.0
H1206 H 0.9187 0.80894 0.96234 0.0
H1207 H 0.86881 0.82402 0.93491 0.0
H1208 H 0.96382 0.75567 0.95654 0.0
H1209 H 0.89719 0.75357 0.06625 0.0
H1210 H 0.88107 0.72763 0.03695 0.0
H1211 H 0.8797 0.77138 1.03252 0.0
C1212 C 0.84717 0.74652 0.95621 0.0
C1213 C 0.84387 0.77783 0.94313 0.0
C1214 C 0.87579 0.73797 0.97188 0.0
C1215 C 0.90154 0.7606 0.97483 0.0
C1216 C 0.89902 0.79119 0.96046 0.0
H1217 H 0.07792 0.79985 0.06971 0.0
H1218 H 0.03134 0.79581 0.03519 0.0
C1219 C 0.87045 0.79976 0.9448 0.0
C1220 C 0.93044 0.75333 0.99411 0.0
H1221 H 0.95393 0.7437 0.06775 0.0
C1222 C 0.96166 0.75273 0.98082 0.0
C1223 C 0.92752 0.74936 1.02578 0.0
C1224 C 0.89465 0.75072 0.04139 0.0
C1225 C 0.99013 0.74899 0.99843 0.0
C1226 C 0.98728 0.74639 1.03021 0.0
C1227 C 0.95601 0.74566 0.04338 0.0
C1228 C 0.01638 0.74761 0.05036 0.0
C1229 C 0.02303 0.74818 0.98289 0.0
C1230 C 0.02304 0.72214 0.0709 0.0
C1231 C 0.04971 0.72448 0.09085 0.0
C1232 C 0.06976 0.7525 0.09073 0.0
C1233 C 0.06294 0.77792 0.07023 0.0
C1234 C 0.03648 0.77553 0.0503 0.0
H1235 H 0.02069 0.73996 0.95906 0.0
H1236 H 0.03362 0.77325 0.98274 0.0
H1237 H 0.04041 0.73165 0.99485 0.0
H1238 H 0.00759 0.70054 0.0715 0.0
H1239 H 0.05445 0.70458 0.10651 0.0
loop_
_geom_bond_atom_site_label_1
_geom_bond_atom_site_label_2
_geom_bond_distance
_geom_bond_site_symmetry_2
_ccdc_geom_bond_type
O0 Tb1 2.292 . S
O0 C3 1.255 . S
Tb1 O0 2.292 . S
Tb1 O17 2.326 . S
Tb1 O19 2.500 . S
Tb1 O20 2.473 . S
Tb1 O23 2.324 . S
Eu2 O6 2.292 . S
Eu2 C7 2.852 . S
Eu2 O18 2.324 . S
Eu2 O22 2.326 . S
Eu2 O24 2.500 . S
Eu2 O25 2.473 . S
C3 O0 1.255 . S
C3 O4 1.247 . S
O4 C3 1.247 . S
C5 O17 1.242 . S
C5 O18 1.258 . S
O6 Eu2 2.292 . S
O6 C8 1.255 . S
C7 Eu2 2.852 . S
C7 C11 1.503 . S
C7 O24 1.273 . S
C7 O25 1.257 . S
C8 O6 1.255 . S
C8 O9 1.247 . S
O9 C8 1.247 . S
C10 O22 1.242 . S
C10 O23 1.258 . S
C11 C7 1.503 . S
C11 C12 1.379 . S
C11 C16 1.392 . S
C12 C11 1.379 . S
C12 C13 1.404 . S
C12 H26 0.929 . S
C13 C12 1.404 . S
C13 C14 1.389 . S
C14 C13 1.389 . S
C14 C15 1.399 . S
C14 H27 0.931 . S
C15 C14 1.399 . S
C15 C16 1.390 . S
C16 C11 1.392 . S
C16 C15 1.390 . S
C16 H28 0.929 . S
O17 Tb1 2.326 . S
O17 C5 1.242 . S
O18 Eu2 2.324 . S
O18 C5 1.258 . S
O19 Tb1 2.500 . S
O19 C21 1.273 . S
O20 Tb1 2.473 . S
O20 C21 1.257 . S
C21 O19 1.273 . S
C21 O20 1.257 . S
O22 Eu2 2.326 . S
O22 C10 1.242 . S
O23 Tb1 2.324 . S
O23 C10 1.258 . S
O24 Eu2 2.500 . S
O24 C7 1.273 . S
O25 Eu2 2.473 . S
O25 C7 1.257 . S
H26 C12 0.929 . S
H27 C14 0.931 . S
H28 C16 0.929 . S
O29 Tb30 2.292 . S
O29 C32 1.255 . S
Tb30 O29 2.292 . S
Tb30 O46 2.326 . S
Tb30 O48 2.500 . S
Tb30 O49 2.473 . S
Tb30 O52 2.324 . S
Eu31 O35 2.292 . S
Eu31 C36 2.852 . S
Eu31 O47 2.324 . S
Eu31 O51 2.326 . S
Eu31 O53 2.500 . S
Eu31 O54 2.473 . S
C32 O29 1.255 . S
C32 O33 1.247 . S
O33 C32 1.247 . S
C34 O46 1.242 . S
C34 O47 1.258 . S
O35 Eu31 2.292 . S
O35 C37 1.255 . S
C36 Eu31 2.852 . S
C36 C40 1.503 . S
C36 O53 1.273 . S
C36 O54 1.257 . S
C37 O35 1.255 . S
C37 O38 1.247 . S
O38 C37 1.247 . S
C39 O51 1.242 . S
C39 O52 1.258 . S
C40 C36 1.503 . S
C40 C41 1.379 . S
C40 C45 1.392 . S
C41 C40 1.379 . S
C41 C42 1.404 . S
C41 H55 0.929 . S
C42 C41 1.404 . S
C42 C43 1.389 . S
C43 C42 1.389 . S
C43 C44 1.399 . S
C43 H56 0.931 . S
C44 C43 1.399 . S
C44 C45 1.390 . S
C45 C40 1.392 . S
C45 C44 1.390 . S
C45 H57 0.929 . S
O46 Tb30 2.326 . S
O46 C34 1.242 . S
O47 Eu31 2.324 . S
O47 C34 1.258 . S
O48 Tb30 2.500 . S
O48 C50 1.273 . S
O49 Tb30 2.473 . S
O49 C50 1.257 . S
C50 O48 1.273 . S
C50 O49 1.257 . S
O51 Eu31 2.326 . S
O51 C39 1.242 . S
O52 Tb30 2.324 . S
O52 C39 1.258 . S
O53 Eu31 2.500 . S
O53 C36 1.273 . S
O54 Eu31 2.473 . S
O54 C36 1.257 . S
H55 C41 0.929 . S
H56 C43 0.931 . S
H57 C45 0.929 . S
O58 Tb59 2.292 . S
O58 C61 1.255 . S
Tb59 O58 2.292 . S
Tb59 O75 2.326 . S
Tb59 O77 2.500 . S
Tb59 O78 2.473 . S
Tb59 O81 2.324 . S
Eu60 O64 2.292 . S
Eu60 C65 2.852 . S
Eu60 O76 2.324 . S
Eu60 O80 2.326 . S
Eu60 O82 2.500 . S
Eu60 O83 2.473 . S
C61 O58 1.255 . S
C61 O62 1.247 . S
O62 C61 1.247 . S
C63 O75 1.242 . S
C63 O76 1.258 . S
O64 Eu60 2.292 . S
O64 C66 1.255 . S
C65 Eu60 2.852 . S
C65 C69 1.503 . S
C65 O82 1.273 . S
C65 O83 1.257 . S
C66 O64 1.255 . S
C66 O67 1.247 . S
O67 C66 1.247 . S
C68 O80 1.242 . S
C68 O81 1.258 . S
C69 C65 1.503 . S
C69 C70 1.379 . S
C69 C74 1.392 . S
C70 C69 1.379 . S
C70 C71 1.404 . S
C70 H84 0.929 . S
C71 C70 1.404 . S
C71 C72 1.389 . S
C72 C71 1.389 . S
C72 C73 1.399 . S
C72 H85 0.931 . S
C73 C72 1.399 . S
C73 C74 1.390 . S
C74 C69 1.392 . S
C74 C73 1.390 . S
C74 H86 0.929 . S
O75 Tb59 2.326 . S
O75 C63 1.242 . S
O76 Eu60 2.324 . S
O76 C63 1.258 . S
O77 Tb59 2.500 . S
O77 C79 1.273 . S
O78 Tb59 2.473 . S
O78 C79 1.257 . S
C79 O77 1.273 . S
C79 O78 1.257 . S
O80 Eu60 2.326 . S
O80 C68 1.242 . S
O81 Tb59 2.324 . S
O81 C68 1.258 . S
O82 Eu60 2.500 . S
O82 C65 1.273 . S
O83 Eu60 2.473 . S
O83 C65 1.257 . S
H84 C70 0.929 . S
H85 C72 0.931 . S
H86 C74 0.929 . S
O87 Tb88 2.292 . S
O87 C90 1.255 . S
Tb88 O87 2.292 . S
Tb88 O104 2.326 . S
Tb88 O106 2.500 . S
Tb88 O107 2.473 . S
Tb88 O110 2.324 . S
Eu89 O93 2.292 . S
Eu89 C94 2.852 . S
Eu89 O105 2.324 . S
Eu89 O109 2.326 . S
Eu89 O111 2.500 . S
Eu89 O112 2.473 . S
C90 O87 1.255 . S
C90 O91 1.247 . S
O91 C90 1.247 . S
C92 O104 1.242 . S
C92 O105 1.258 . S
O93 Eu89 2.292 . S
O93 C95 1.255 . S
C94 Eu89 2.852 . S
C94 C98 1.503 . S
C94 O111 1.273 . S
C94 O112 1.257 . S
C95 O93 1.255 . S
C95 O96 1.247 . S
O96 C95 1.247 . S
C97 O109 1.242 . S
C97 O110 1.258 . S
C98 C94 1.503 . S
C98 C99 1.379 . S
C98 C103 1.392 . S
C99 C98 1.379 . S
C99 C100 1.404 . S
C99 H113 0.929 . S
C100 C99 1.404 . S
C100 C101 1.389 . S
C101 C100 1.389 . S
C101 C102 1.399 . S
C101 H114 0.931 . S
C102 C101 1.399 . S
C102 C103 1.390 . S
C103 C98 1.392 . S
C103 C102 1.390 . S
C103 H115 0.929 . S
O104 Tb88 2.326 . S
O104 C92 1.242 . S
O105 Eu89 2.324 . S
O105 C92 1.258 . S
O106 Tb88 2.500 . S
O106 C108 1.273 . S
O107 Tb88 2.473 . S
O107 C108 1.257 . S
C108 O106 1.273 . S
C108 O107 1.257 . S
O109 Eu89 2.326 . S
O109 C97 1.242 . S
O110 Tb88 2.324 . S
O110 C97 1.258 . S
O111 Eu89 2.500 . S
O111 C94 1.273 . S
O112 Eu89 2.473 . S
O112 C94 1.257 . S
H113 C99 0.929 . S
H114 C101 0.931 . S
H115 C103 0.929 . S
O116 Tb117 2.292 . S
O116 C119 1.255 . S
Tb117 O116 2.292 . S
Tb117 O133 2.326 . S
Tb117 O135 2.500 . S
Tb117 O136 2.473 . S
Tb117 O139 2.324 . S
Eu118 O122 2.292 . S
Eu118 C123 2.852 . S
Eu118 O134 2.324 . S
Eu118 O138 2.326 . S
Eu118 O140 2.500 . S
Eu118 O141 2.473 . S
C119 O116 1.255 . S
C119 O120 1.247 . S
O120 C119 1.247 . S
C121 O133 1.242 . S
C121 O134 1.258 . S
O122 Eu118 2.292 . S
O122 C124 1.255 . S
C123 Eu118 2.852 . S
C123 C127 1.503 . S
C123 O140 1.273 . S
C123 O141 1.257 . S
C124 O122 1.255 . S
C124 O125 1.247 . S
O125 C124 1.247 . S
C126 O138 1.242 . S
C126 O139 1.258 . S
C127 C123 1.503 . S
C127 C128 1.379 . S
C127 C132 1.392 . S
C128 C127 1.379 . S
C128 C129 1.404 . S
C128 H142 0.929 . S
C129 C128 1.404 . S
C129 C130 1.389 . S
C130 C129 1.389 . S
C130 C131 1.399 . S
C130 H143 0.931 . S
C131 C130 1.399 . S
C131 C132 1.390 . S
C132 C127 1.392 . S
C132 C131 1.390 . S
C132 H144 0.929 . S
O133 Tb117 2.326 . S
O133 C121 1.242 . S
O134 Eu118 2.324 . S
O134 C121 1.258 . S
O135 Tb117 2.500 . S
O135 C137 1.273 . S
O136 Tb117 2.473 . S
O136 C137 1.257 . S
C137 O135 1.273 . S
C137 O136 1.257 . S
O138 Eu118 2.326 . S
O138 C126 1.242 . S
O139 Tb117 2.324 . S
O139 C126 1.258 . S
O140 Eu118 2.500 . S
O140 C123 1.273 . S
O141 Eu118 2.473 . S
O141 C123 1.257 . S
H142 C128 0.929 . S
H143 C130 0.931 . S
H144 C132 0.929 . S
O145 Tb146 2.292 . S
O145 C148 1.255 . S
Tb146 O145 2.292 . S
Tb146 O162 2.326 . S
Tb146 O164 2.500 . S
Tb146 O165 2.473 . S
Tb146 O168 2.324 . S
Eu147 O151 2.292 . S
Eu147 C152 2.852 . S
Eu147 O163 2.324 . S
Eu147 O167 2.326 . S
Eu147 O169 2.500 . S
Eu147 O170 2.473 . S
C148 O145 1.255 . S
C148 O149 1.247 . S
O149 C148 1.247 . S
C150 O162 1.242 . S
C150 O163 1.258 . S
O151 Eu147 2.292 . S
O151 C153 1.255 . S
C152 Eu147 2.852 . S
C152 C156 1.503 . S
C152 O169 1.273 . S
C152 O170 1.257 . S
C153 O151 1.255 . S
C153 O154 1.247 . S
O154 C153 1.247 . S
C155 O167 1.242 . S
C155 O168 1.258 . S
C156 C152 1.503 . S
C156 C157 1.379 . S
C156 C161 1.392 . S
C157 C156 1.379 . S
C157 C158 1.404 . S
C157 H171 0.929 . S
C158 C157 1.404 . S
C158 C159 1.389 . S
C159 C158 1.389 . S
C159 C160 1.399 . S
C159 H172 0.931 . S
C160 C159 1.399 . S
C160 C161 1.390 . S
C161 C156 1.392 . S
C161 C160 1.390 . S
C161 H173 0.929 . S
O162 Tb146 2.326 . S
O162 C150 1.242 . S
O163 Eu147 2.324 . S
O163 C150 1.258 . S
O164 Tb146 2.500 . S
O164 C166 1.273 . S
O165 Tb146 2.473 . S
O165 C166 1.257 . S
C166 O164 1.273 . S
C166 O165 1.257 . S
O167 Eu147 2.326 . S
O167 C155 1.242 . S
O168 Tb146 2.324 . S
O168 C155 1.258 . S
O169 Eu147 2.500 . S
O169 C152 1.273 . S
O170 Eu147 2.473 . S
O170 C152 1.257 . S
H171 C157 0.929 . S
H172 C159 0.931 . S
H173 C161 0.929 . S
O174 Tb175 2.292 . S
O174 C177 1.255 . S
Tb175 O174 2.292 . S
Tb175 O191 2.326 . S
Tb175 O193 2.500 . S
Tb175 O194 2.473 . S
Tb175 O197 2.324 . S
Eu176 O180 2.292 . S
Eu176 C181 2.852 . S
Eu176 O192 2.324 . S
Eu176 O196 2.326 . S
Eu176 O198 2.500 . S
Eu176 O199 2.473 . S
C177 O174 1.255 . S
C177 O178 1.247 . S
O178 C177 1.247 . S
C179 O191 1.242 . S
C179 O192 1.258 . S
O180 Eu176 2.292 . S
O180 C182 1.255 . S
C181 Eu176 2.852 . S
C181 C185 1.503 . S
C181 O198 1.273 . S
C181 O199 1.257 . S
C182 O180 1.255 . S
C182 O183 1.247 . S
O183 C182 1.247 . S
C184 O196 1.242 . S
C184 O197 1.258 . S
C185 C181 1.503 . S
C185 C186 1.379 . S
C185 C190 1.392 . S
C186 C185 1.379 . S
C186 C187 1.404 . S
C186 H200 0.929 . S
C187 C186 1.404 . S
C187 C188 1.389 . S
C188 C187 1.389 . S
C188 C189 1.399 . S
C188 H201 0.931 . S
C189 C188 1.399 . S
C189 C190 1.390 . S
C190 C185 1.392 . S
C190 C189 1.390 . S
C190 H202 0.929 . S
O191 Tb175 2.326 . S
O191 C179 1.242 . S
O192 Eu176 2.324 . S
O192 C179 1.258 . S
O193 Tb175 2.500 . S
O193 C195 1.273 . S
O194 Tb175 2.473 . S
O194 C195 1.257 . S
C195 O193 1.273 . S
C195 O194 1.257 . S
O196 Eu176 2.326 . S
O196 C184 1.242 . S
O197 Tb175 2.324 . S
O197 C184 1.258 . S
O198 Eu176 2.500 . S
O198 C181 1.273 . S
O199 Eu176 2.473 . S
O199 C181 1.257 . S
H200 C186 0.929 . S
H201 C188 0.931 . S
H202 C190 0.929 . S
O203 Tb204 2.292 . S
O203 C206 1.255 . S
Tb204 O203 2.292 . S
Tb204 O220 2.326 . S
Tb204 O222 2.500 . S
Tb204 O223 2.473 . S
Tb204 O226 2.324 . S
Eu205 O209 2.292 . S
Eu205 C210 2.852 . S
Eu205 O221 2.324 . S
Eu205 O225 2.326 . S
Eu205 O227 2.500 . S
Eu205 O228 2.473 . S
C206 O203 1.255 . S
C206 O207 1.247 . S
O207 C206 1.247 . S
C208 O220 1.242 . S
C208 O221 1.258 . S
O209 Eu205 2.292 . S
O209 C211 1.255 . S
C210 Eu205 2.852 . S
C210 C214 1.503 . S
C210 O227 1.273 . S
C210 O228 1.257 . S
C211 O209 1.255 . S
C211 O212 1.247 . S
O212 C211 1.247 . S
C213 O225 1.242 . S
C213 O226 1.258 . S
C214 C210 1.503 . S
C214 C215 1.379 . S
C214 C219 1.392 . S
C215 C214 1.379 . S
C215 C216 1.404 . S
C215 H229 0.929 . S
C216 C215 1.404 . S
C216 C217 1.389 . S
C217 C216 1.389 . S
C217 C218 1.399 . S
C217 H230 0.931 . S
C218 C217 1.399 . S
C218 C219 1.390 . S
C219 C214 1.392 . S
C219 C218 1.390 . S
C219 H231 0.929 . S
O220 Tb204 2.326 . S
O220 C208 1.242 . S
O221 Eu205 2.324 . S
O221 C208 1.258 . S
O222 Tb204 2.500 . S
O222 C224 1.273 . S
O223 Tb204 2.473 . S
O223 C224 1.257 . S
C224 O222 1.273 . S
C224 O223 1.257 . S
O225 Eu205 2.326 . S
O225 C213 1.242 . S
O226 Tb204 2.324 . S
O226 C213 1.258 . S
O227 Eu205 2.500 . S
O227 C210 1.273 . S
O228 Eu205 2.473 . S
O228 C210 1.257 . S
H229 C215 0.929 . S
H230 C217 0.931 . S
H231 C219 0.929 . S
H232 C240 0.929 . S
H233 C242 0.930 . S
H234 C244 0.930 . S
H235 C247 0.929 . S
H236 C250 0.930 . S
H237 C252 0.960 . S
H238 C252 0.960 . S
H239 C252 0.960 . S
C240 H232 0.929 . S
C240 C241 1.377 . S
C240 C242 1.384 . S
C241 C240 1.377 . S
C241 C247 1.390 . S
C242 H233 0.930 . S
C242 C240 1.384 . S
C242 C243 1.372 . S
C243 C242 1.372 . S
C243 C244 1.400 . S
C243 C248 1.490 . S
C244 H234 0.930 . S
C244 C243 1.400 . S
C244 C247 1.386 . S
H245 C261 0.930 . S
H246 C262 0.931 1_554 S
C247 H235 0.929 . S
C247 C241 1.390 . S
C247 C244 1.386 . S
C248 C243 1.490 . S
C248 C250 1.395 . S
C248 C251 1.403 . S
H249 C255 0.930 . S
C250 H236 0.930 . S
C250 C248 1.395 . S
C250 C253 1.403 . S
C251 C248 1.403 . S
C251 C252 1.524 . S
C251 C255 1.400 . S
C252 H237 0.960 . S
C252 H238 0.960 . S
C252 H239 0.960 . S
C252 C251 1.524 . S
C253 C250 1.403 . S
C253 C254 1.392 . S
C253 C257 1.495 . S
C254 C253 1.392 . S
C254 C255 1.385 . S
C254 C256 1.478 . S
C255 H249 0.930 . S
C255 C251 1.400 . S
C255 C254 1.385 . S
C256 C254 1.478 . S
C256 C258 1.381 1_554 S
C256 C262 1.383 1_554 S
C257 C253 1.495 . S
C257 H263 0.959 . S
C257 H264 0.961 . S
C257 H265 0.960 . S
C258 C256 1.381 1_556 S
C258 C259 1.394 . S
C258 H266 0.925 1_556 S
C259 C258 1.394 . S
C259 C260 1.383 . S
C259 H267 0.929 . S
C260 C259 1.383 . S
C260 C261 1.377 . S
C261 H245 0.930 . S
C261 C260 1.377 . S
C261 C262 1.379 . S
C262 H246 0.931 1_556 S
C262 C256 1.383 1_556 S
C262 C261 1.379 . S
H263 C257 0.959 . S
H264 C257 0.961 . S
H265 C257 0.960 . S
H266 C258 0.925 1_554 S
H267 C259 0.929 . S
H268 C276 0.929 . S
H269 C278 0.930 1_556 S
H270 C280 0.930 1_556 S
H271 C283 0.929 . S
H272 C286 0.930 . S
H273 C288 0.960 . S
H274 C288 0.960 . S
H275 C288 0.960 . S
C276 H268 0.929 . S
C276 C277 1.377 . S
C276 C278 1.384 . S
C277 C276 1.377 . S
C277 C283 1.390 . S
C278 H269 0.930 1_554 S
C278 C276 1.384 . S
C278 C279 1.372 1_554 S
C279 C278 1.372 1_556 S
C279 C280 1.400 1_556 S
C279 C284 1.490 . S
C280 H270 0.930 1_554 S
C280 C279 1.400 1_554 S
C280 C283 1.386 . S
H281 C297 0.930 . S
H282 C298 0.931 . S
C283 H271 0.929 . S
C283 C277 1.390 . S
C283 C280 1.386 . S
C284 C279 1.490 . S
C284 C286 1.395 . S
C284 C287 1.403 . S
H285 C291 0.930 . S
C286 H272 0.930 . S
C286 C284 1.395 . S
C286 C289 1.403 . S
C287 C284 1.403 . S
C287 C288 1.524 . S
C287 C291 1.400 . S
C288 H273 0.960 . S
C288 H274 0.960 . S
C288 H275 0.960 . S
C288 C287 1.524 . S
C289 C286 1.403 . S
C289 C290 1.392 . S
C289 C293 1.495 . S
C290 C289 1.392 . S
C290 C291 1.385 . S
C290 C292 1.478 . S
C291 H285 0.930 . S
C291 C287 1.400 . S
C291 C290 1.385 . S
C292 C290 1.478 . S
C292 C294 1.381 . S
C292 C298 1.383 . S
C293 C289 1.495 . S
C293 H299 0.959 . S
C293 H300 0.961 . S
C293 H301 0.960 . S
C294 C292 1.381 . S
C294 C295 1.394 . S
C294 H302 0.930 . S
C295 C294 1.394 . S
C295 C296 1.383 . S
C295 H303 0.929 . S
C296 C295 1.383 . S
C296 C297 1.377 . S
C297 H281 0.930 . S
C297 C296 1.377 . S
C297 C298 1.379 . S
C298 H282 0.931 . S
C298 C292 1.383 . S
C298 C297 1.379 . S
H299 C293 0.959 . S
H300 C293 0.961 . S
H301 C293 0.960 . S
H302 C294 0.930 . S
H303 C295 0.929 . S
H304 C312 0.929 . S
H305 C314 0.930 1_554 S
H306 C316 0.906 1_554 S
H307 C319 0.929 . S
H308 C322 0.930 . S
H309 C324 0.960 . S
H310 C324 0.960 . S
H311 C324 0.960 . S
C312 H304 0.929 . S
C312 C313 1.377 . S
C312 C314 1.384 . S
C313 C312 1.377 . S
C313 C319 1.390 . S
C314 H305 0.930 1_556 S
C314 C312 1.384 . S
C314 C315 1.372 1_556 S
C315 C314 1.372 1_554 S
C315 C316 1.383 1_554 S
C315 C320 1.490 . S
C316 H306 0.906 1_556 S
C316 C315 1.383 1_556 S
C316 C319 1.427 . S
H317 C333 0.930 . S
H318 C334 0.931 . S
C319 H307 0.929 . S
C319 C313 1.390 . S
C319 C316 1.427 . S
C320 C315 1.490 . S
C320 C322 1.395 . S
C320 C323 1.403 . S
H321 C327 0.930 . S
C322 H308 0.930 . S
C322 C320 1.395 . S
C322 C325 1.403 . S
C323 C320 1.403 . S
C323 C324 1.524 . S
C323 C327 1.400 . S
C324 H309 0.960 . S
C324 H310 0.960 . S
C324 H311 0.960 . S
C324 C323 1.524 . S
C325 C322 1.403 . S
C325 C326 1.392 . S
C325 C329 1.495 . S
C326 C325 1.392 . S
C326 C327 1.385 . S
C326 C328 1.478 . S
C327 H321 0.930 . S
C327 C323 1.400 . S
C327 C326 1.385 . S
C328 C326 1.478 . S
C328 C330 1.381 . S
C328 C334 1.383 . S
C329 C325 1.495 . S
C329 H335 0.959 . S
C329 H336 0.961 . S
C329 H337 0.960 . S
C330 C328 1.381 . S
C330 C331 1.394 . S
C330 H338 0.930 . S
C331 C330 1.394 . S
C331 C332 1.383 . S
C331 H339 0.929 . S
C332 C331 1.383 . S
C332 C333 1.377 . S
C333 H317 0.930 . S
C333 C332 1.377 . S
C333 C334 1.379 . S
C334 H318 0.931 . S
C334 C328 1.383 . S
C334 C333 1.379 . S
H335 C329 0.959 . S
H336 C329 0.961 . S
H337 C329 0.960 . S
H338 C330 0.930 . S
H339 C331 0.929 . S
H340 C348 0.929 . S
H341 C350 0.930 . S
H342 C352 0.930 . S
H343 C355 0.929 . S
H344 C358 0.930 . S
H345 C360 0.960 . S
H346 C360 0.960 . S
H347 C360 0.960 . S
C348 H340 0.929 . S
C348 C349 1.377 . S
C348 C350 1.384 . S
C349 C348 1.377 . S
C349 C355 1.390 . S
C350 H341 0.930 . S
C350 C348 1.384 . S
C350 C351 1.372 . S
C351 C350 1.372 . S
C351 C352 1.400 . S
C351 C356 1.490 . S
C352 H342 0.930 . S
C352 C351 1.400 . S
C352 C355 1.386 . S
H353 C369 0.930 . S
H354 C370 0.931 1_556 S
C355 H343 0.929 . S
C355 C349 1.390 . S
C355 C352 1.386 . S
C356 C351 1.490 . S
C356 C358 1.395 . S
C356 C359 1.403 . S
H357 C363 0.930 . S
C358 H344 0.930 . S
C358 C356 1.395 . S
C358 C361 1.403 . S
C359 C356 1.403 . S
C359 C360 1.524 . S
C359 C363 1.400 . S
C360 H345 0.960 . S
C360 H346 0.960 . S
C360 H347 0.960 . S
C360 C359 1.524 . S
C361 C358 1.403 . S
C361 C362 1.392 . S
C361 C365 1.495 . S
C362 C361 1.392 . S
C362 C363 1.385 . S
C362 C364 1.478 . S
C363 H357 0.930 . S
C363 C359 1.400 . S
C363 C362 1.385 . S
C364 C362 1.478 . S
C364 C366 1.381 1_556 S
C364 C370 1.383 1_556 S
C365 C361 1.495 . S
C365 H371 0.959 . S
C365 H372 0.961 . S
C365 H373 0.960 . S
C366 C364 1.381 1_554 S
C366 C367 1.394 . S
C366 H374 0.930 1_554 S
C367 C366 1.394 . S
C367 C368 1.383 . S
C367 H375 0.929 . S
C368 C367 1.383 . S
C368 C369 1.377 . S
C369 H353 0.930 . S
C369 C368 1.377 . S
C369 C370 1.379 . S
C370 H354 0.931 1_554 S
C370 C364 1.383 1_554 S
C370 C369 1.379 . S
H371 C365 0.959 . S
H372 C365 0.961 . S
H373 C365 0.960 . S
H374 C366 0.930 1_556 S
H375 C367 0.929 . S
H376 C384 0.929 . S
H377 C386 0.930 . S
H378 C388 0.930 . S
H379 C391 0.929 . S
H380 C394 0.930 . S
H381 C396 0.960 . S
H382 C396 0.960 . S
H383 C396 0.960 . S
C384 H376 0.929 . S
C384 C385 1.377 . S
C384 C386 1.384 . S
C385 C384 1.377 . S
C385 C391 1.390 . S
C386 H377 0.930 . S
C386 C384 1.384 . S
C386 C387 1.372 . S
C387 C386 1.372 . S
C387 C388 1.400 . S
C387 C392 1.490 . S
C388 H378 0.930 . S
C388 C387 1.400 . S
C388 C391 1.386 . S
H389 C405 0.930 . S
H390 C406 0.931 . S
C391 H379 0.929 . S
C391 C385 1.390 . S
C391 C388 1.386 . S
C392 C387 1.490 . S
C392 C394 1.395 . S
C392 C395 1.403 . S
H393 C399 0.930 . S
C394 H380 0.930 . S
C394 C392 1.395 . S
C394 C397 1.403 . S
C395 C392 1.403 . S
C395 C396 1.524 . S
C395 C399 1.400 . S
C396 H381 0.960 . S
C396 H382 0.960 . S
C396 H383 0.960 . S
C396 C395 1.524 . S
C397 C394 1.403 . S
C397 C398 1.392 . S
C397 C401 1.495 . S
C398 C397 1.392 . S
C398 C399 1.385 . S
C398 C400 1.478 . S
C399 H393 0.930 . S
C399 C395 1.400 . S
C399 C398 1.385 . S
C400 C398 1.478 . S
C400 C402 1.381 . S
C400 C406 1.383 . S
C401 C397 1.495 . S
C401 H407 0.959 . S
C401 H408 0.961 . S
C401 H409 0.960 . S
C402 C400 1.381 . S
C402 C403 1.394 . S
C402 H410 0.930 . S
C403 C402 1.394 . S
C403 C404 1.383 . S
C403 H411 0.929 . S
C404 C403 1.383 . S
C404 C405 1.377 . S
C405 H389 0.930 . S
C405 C404 1.377 . S
C405 C406 1.379 . S
C406 H390 0.931 . S
C406 C400 1.383 . S
C406 C405 1.379 . S
H407 C401 0.959 . S
H408 C401 0.961 . S
H409 C401 0.960 . S
H410 C402 0.930 . S
H411 C403 0.929 . S
H412 C420 0.929 . S
H413 C422 0.930 . S
H414 C424 0.930 . S
H415 C427 0.929 . S
H416 C430 0.930 . S
H417 C432 0.960 . S
H418 C432 0.960 . S
H419 C432 0.960 . S
C420 H412 0.929 . S
C420 C421 1.377 . S
C420 C422 1.384 . S
C421 C420 1.377 . S
C421 C427 1.390 . S
C422 H413 0.930 . S
C422 C420 1.384 . S
C422 C423 1.372 . S
C423 C422 1.372 . S
C423 C424 1.400 . S
C423 C428 1.490 . S
C424 H414 0.930 . S
C424 C423 1.400 . S
C424 C427 1.386 . S
H425 C441 0.930 . S
H426 C442 0.931 . S
C427 H415 0.929 . S
C427 C421 1.390 . S
C427 C424 1.386 . S
C428 C423 1.490 . S
C428 C430 1.395 . S
C428 C431 1.403 . S
H429 C435 0.930 . S
C430 H416 0.930 . S
C430 C428 1.395 . S
C430 C433 1.403 . S
C431 C428 1.403 . S
C431 C432 1.524 . S
C431 C435 1.400 . S
C432 H417 0.960 . S
C432 H418 0.960 . S
C432 H419 0.960 . S
C432 C431 1.524 . S
C433 C430 1.403 . S
C433 C434 1.392 . S
C433 C437 1.495 . S
C434 C433 1.392 . S
C434 C435 1.385 . S
C434 C436 1.478 . S
C435 H429 0.930 . S
C435 C431 1.400 . S
C435 C434 1.385 . S
C436 C434 1.478 . S
C436 C438 1.381 . S
C436 C442 1.383 . S
C437 C433 1.495 . S
C437 H443 0.959 . S
C437 H444 0.961 . S
C437 H445 0.960 . S
C438 C436 1.381 . S
C438 C439 1.394 . S
C438 H446 0.930 . S
C439 C438 1.394 . S
C439 C440 1.383 . S
C439 H447 0.929 . S
C440 C439 1.383 . S
C440 C441 1.377 . S
C441 H425 0.930 . S
C441 C440 1.377 . S
C441 C442 1.379 . S
C442 H426 0.931 . S
C442 C436 1.383 . S
C442 C441 1.379 . S
H443 C437 0.959 . S
H444 C437 0.961 . S
H445 C437 0.960 . S
H446 C438 0.930 . S
H447 C439 0.929 . S
H448 C456 0.929 . S
H449 C458 0.930 . S
H450 C460 0.930 . S
H451 C463 0.929 . S
H452 C466 0.930 . S
H453 C468 0.960 . S
H454 C468 0.960 . S
H455 C468 0.960 . S
C456 H448 0.929 . S
C456 C457 1.377 . S
C456 C458 1.384 . S
C457 C456 1.377 . S
C457 C463 1.390 . S
C458 H449 0.930 . S
C458 C456 1.384 . S
C458 C459 1.372 . S
C459 C458 1.372 . S
C459 C460 1.400 . S
C459 C464 1.490 . S
C460 H450 0.930 . S
C460 C459 1.400 . S
C460 C463 1.386 . S
H461 C477 0.930 . S
H462 C478 0.931 . S
C463 H451 0.929 . S
C463 C457 1.390 . S
C463 C460 1.386 . S
C464 C459 1.490 . S
C464 C466 1.395 . S
C464 C467 1.403 . S
H465 C471 0.930 . S
C466 H452 0.930 . S
C466 C464 1.395 . S
C466 C469 1.403 . S
C467 C464 1.403 . S
C467 C468 1.524 . S
C467 C471 1.400 . S
C468 H453 0.960 . S
C468 H454 0.960 . S
C468 H455 0.960 . S
C468 C467 1.524 . S
C469 C466 1.403 . S
C469 C470 1.392 . S
C469 C473 1.495 . S
C470 C469 1.392 . S
C470 C471 1.385 . S
C470 C472 1.478 . S
C471 H465 0.930 . S
C471 C467 1.400 . S
C471 C470 1.385 . S
C472 C470 1.478 . S
C472 C474 1.381 . S
C472 C478 1.383 . S
C473 C469 1.495 . S
C473 H479 0.959 . S
C473 H480 0.961 . S
C473 H481 0.960 . S
C474 C472 1.381 . S
C474 C475 1.394 . S
C474 H482 0.930 . S
C475 C474 1.394 . S
C475 C476 1.383 . S
C475 H483 0.929 . S
C476 C475 1.383 . S
C476 C477 1.377 . S
C477 H461 0.930 . S
C477 C476 1.377 . S
C477 C478 1.379 . S
C478 H462 0.931 . S
C478 C472 1.383 . S
C478 C477 1.379 . S
H479 C473 0.959 . S
H480 C473 0.961 . S
H481 C473 0.960 . S
H482 C474 0.930 . S
H483 C475 0.929 . S
H484 C492 0.929 . S
H485 C494 0.930 . S
H486 C496 0.930 . S
H487 C499 0.929 . S
H488 C502 0.930 . S
H489 C504 0.960 . S
H490 C504 0.960 . S
H491 C504 0.960 . S
C492 H484 0.929 . S
C492 C493 1.377 . S
C492 C494 1.384 . S
C493 C492 1.377 . S
C493 C499 1.390 . S
C494 H485 0.930 . S
C494 C492 1.384 . S
C494 C495 1.372 . S
C495 C494 1.372 . S
C495 C496 1.400 . S
C495 C500 1.490 . S
C496 H486 0.930 . S
C496 C495 1.400 . S
C496 C499 1.386 . S
H497 C513 0.930 . S
H498 C514 0.931 . S
C499 H487 0.929 . S
C499 C493 1.390 . S
C499 C496 1.386 . S
C500 C495 1.490 . S
C500 C502 1.395 . S
C500 C503 1.403 . S
H501 C507 0.930 . S
C502 H488 0.930 . S
C502 C500 1.395 . S
C502 C505 1.403 . S
C503 C500 1.403 . S
C503 C504 1.524 . S
C503 C507 1.400 . S
C504 H489 0.960 . S
C504 H490 0.960 . S
C504 H491 0.960 . S
C504 C503 1.524 . S
C505 C502 1.403 . S
C505 C506 1.392 . S
C505 C509 1.495 . S
C506 C505 1.392 . S
C506 C507 1.385 . S
C506 C508 1.478 . S
C507 H501 0.930 . S
C507 C503 1.400 . S
C507 C506 1.385 . S
C508 C506 1.478 . S
C508 C510 1.381 . S
C508 C514 1.383 . S
C509 C505 1.495 . S
C509 H515 0.959 . S
C509 H516 0.961 . S
C509 H517 0.960 . S
C510 C508 1.381 . S
C510 C511 1.394 . S
C510 H518 0.930 . S
C511 C510 1.394 . S
C511 C512 1.383 . S
C511 H519 0.929 . S
C512 C511 1.383 . S
C512 C513 1.377 . S
C513 H497 0.930 . S
C513 C512 1.377 . S
C513 C514 1.379 . S
C514 H498 0.931 . S
C514 C508 1.383 . S
C514 C513 1.379 . S
H515 C509 0.959 . S
H516 C509 0.961 . S
H517 C509 0.960 . S
H518 C510 0.930 . S
H519 C511 0.929 . S
H520 C528 0.929 . S
H521 C530 0.930 . S
H522 C532 0.930 . S
H523 C535 0.929 . S
H524 C538 0.930 . S
H525 C540 0.960 1_565 S
H526 C540 0.960 . S
H527 C540 0.960 . S
C528 H520 0.929 . S
C528 C529 1.377 . S
C528 C530 1.384 . S
C529 C528 1.377 . S
C529 C535 1.390 . S
C530 H521 0.930 . S
C530 C528 1.384 . S
C530 C531 1.372 . S
C531 C530 1.372 . S
C531 C532 1.400 . S
C531 C536 1.490 . S
C532 H522 0.930 . S
C532 C531 1.400 . S
C532 C535 1.386 . S
H533 C549 0.930 . S
H534 C550 0.931 . S
C535 H523 0.929 . S
C535 C529 1.390 . S
C535 C532 1.386 . S
C536 C531 1.490 . S
C536 C538 1.395 . S
C536 C539 1.403 . S
H537 C543 0.930 . S
C538 H524 0.930 . S
C538 C536 1.395 . S
C538 C541 1.400 1_545 S
C539 C536 1.403 . S
C539 C540 1.524 . S
C539 C543 1.400 1_545 S
C540 H525 0.960 1_545 S
C540 H526 0.960 . S
C540 H527 0.960 . S
C540 C539 1.524 . S
C541 C538 1.400 1_565 S
C541 C542 1.395 . S
C541 C545 1.495 . S
C542 C541 1.395 . S
C542 C543 1.385 . S
C542 C544 1.478 . S
C543 H537 0.930 . S
C543 C539 1.400 1_565 S
C543 C542 1.385 . S
C544 C542 1.478 . S
C544 C546 1.381 . S
C544 C550 1.383 . S
C545 C541 1.495 . S
C545 H551 0.953 1_565 S
C545 H552 0.963 . S
C545 H553 0.963 . S
C546 C544 1.381 . S
C546 C547 1.394 . S
C546 H554 0.930 . S
C547 C546 1.394 . S
C547 C548 1.383 . S
C547 H555 0.929 . S
C548 C547 1.383 . S
C548 C549 1.377 . S
C549 H533 0.930 . S
C549 C548 1.377 . S
C549 C550 1.379 . S
C550 H534 0.931 . S
C550 C544 1.383 . S
C550 C549 1.379 . S
H551 C545 0.953 1_545 S
H552 C545 0.963 . S
H553 C545 0.963 . S
H554 C546 0.930 . S
H555 C547 0.929 . S
H556 C564 0.929 . S
H557 C566 0.930 . S
H558 C568 0.930 . S
H559 C571 0.929 . S
H560 C574 0.930 . S
H561 C576 0.960 . S
H562 C576 0.960 . S
H563 C576 0.960 . S
C564 H556 0.929 . S
C564 C565 1.377 . S
C564 C566 1.384 . S
C565 C564 1.377 . S
C565 C571 1.390 . S
C566 H557 0.930 . S
C566 C564 1.384 . S
C566 C567 1.372 . S
C567 C566 1.372 . S
C567 C568 1.400 . S
C567 C572 1.490 . S
C568 H558 0.930 . S
C568 C567 1.400 . S
C568 C571 1.386 . S
H569 C585 0.930 . S
H570 C586 0.931 . S
C571 H559 0.929 . S
C571 C565 1.390 . S
C571 C568 1.386 . S
C572 C567 1.490 . S
C572 C574 1.395 . S
C572 C575 1.403 . S
H573 C579 0.930 . S
C574 H560 0.930 . S
C574 C572 1.395 . S
C574 C577 1.403 1_655 S
C575 C572 1.403 . S
C575 C576 1.524 . S
C575 C579 1.400 1_655 S
C576 H561 0.960 . S
C576 H562 0.960 . S
C576 H563 0.960 . S
C576 C575 1.524 . S
C577 C574 1.403 1_455 S
C577 C578 1.392 . S
C577 C581 1.495 . S
C578 C577 1.392 . S
C578 C579 1.385 . S
C578 C580 1.478 . S
C579 H573 0.930 . S
C579 C575 1.400 1_455 S
C579 C578 1.385 . S
C580 C578 1.478 . S
C580 C582 1.381 . S
C580 C586 1.383 . S
C581 C577 1.495 . S
C581 H587 0.959 . S
C581 H588 0.961 . S
C581 H589 0.960 . S
C582 C580 1.381 . S
C582 C583 1.394 . S
C582 H590 0.930 . S
C583 C582 1.394 . S
C583 C584 1.383 . S
C583 H591 0.929 . S
C584 C583 1.383 . S
C584 C585 1.377 . S
C585 H569 0.930 . S
C585 C584 1.377 . S
C585 C586 1.379 . S
C586 H570 0.931 . S
C586 C580 1.383 . S
C586 C585 1.379 . S
H587 C581 0.959 . S
H588 C581 0.961 . S
H589 C581 0.960 . S
H590 C582 0.930 . S
H591 C583 0.929 . S
H592 C600 0.929 . S
H593 C602 0.930 . S
H594 C604 0.930 . S
H595 C607 0.929 . S
H596 C610 0.930 . S
H597 C612 0.960 . S
H598 C612 0.960 . S
H599 C612 0.960 . S
C600 H592 0.929 . S
C600 C601 1.377 . S
C600 C602 1.384 . S
C601 C600 1.377 . S
C601 C607 1.390 . S
C602 H593 0.930 . S
C602 C600 1.384 . S
C602 C603 1.372 . S
C603 C602 1.372 . S
C603 C604 1.400 . S
C603 C608 1.490 . S
C604 H594 0.930 . S
C604 C603 1.400 . S
C604 C607 1.386 . S
H605 C621 0.930 . S
H606 C622 0.931 . S
C607 H595 0.929 . S
C607 C601 1.390 . S
C607 C604 1.386 . S
C608 C603 1.490 . S
C608 C610 1.395 1_655 S
C608 C611 1.403 . S
H609 C615 0.930 . S
C610 H596 0.930 . S
C610 C608 1.395 1_455 S
C610 C613 1.403 . S
C611 C608 1.403 . S
C611 C612 1.524 . S
C611 C615 1.400 . S
C612 H597 0.960 . S
C612 H598 0.960 . S
C612 H599 0.960 . S
C612 C611 1.524 . S
C613 C610 1.403 . S
C613 C614 1.392 . S
C613 C617 1.495 . S
C614 C613 1.392 . S
C614 C615 1.385 1_455 S
C614 C616 1.478 . S
C615 H609 0.930 . S
C615 C611 1.400 . S
C615 C614 1.385 1_655 S
C616 C614 1.478 . S
C616 C618 1.381 . S
C616 C622 1.383 . S
C617 C613 1.495 . S
C617 H623 0.959 . S
C617 H624 0.961 . S
C617 H625 0.960 . S
C618 C616 1.381 . S
C618 C619 1.394 . S
C618 H626 0.930 . S
C619 C618 1.394 . S
C619 C620 1.383 . S
C619 H627 0.929 . S
C620 C619 1.383 . S
C620 C621 1.377 . S
C621 H605 0.930 . S
C621 C620 1.377 . S
C621 C622 1.379 . S
C622 H606 0.931 . S
C622 C616 1.383 . S
C622 C621 1.379 . S
H623 C617 0.959 . S
H624 C617 0.961 . S
H625 C617 0.960 . S
H626 C618 0.930 . S
H627 C619 0.929 . S
H628 C636 0.929 . S
H629 C638 0.930 . S
H630 C640 0.930 . S
H631 C643 0.929 . S
H632 C646 0.930 . S
H633 C648 0.960 . S
H634 C648 0.960 . S
H635 C648 0.960 . S
C636 H628 0.929 . S
C636 C637 1.377 . S
C636 C638 1.384 . S
C637 C636 1.377 . S
C637 C643 1.390 . S
C638 H629 0.930 . S
C638 C636 1.384 . S
C638 C639 1.372 . S
C639 C638 1.372 . S
C639 C640 1.400 . S
C639 C644 1.490 . S
C640 H630 0.930 . S
C640 C639 1.400 . S
C640 C643 1.386 . S
H641 C657 0.930 . S
H642 C658 0.931 . S
C643 H631 0.929 . S
C643 C637 1.390 . S
C643 C640 1.386 . S
C644 C639 1.490 . S
C644 C646 1.395 . S
C644 C647 1.403 1_545 S
H645 C651 0.930 . S
C646 H632 0.930 . S
C646 C644 1.395 . S
C646 C649 1.403 . S
C647 C644 1.403 1_565 S
C647 C648 1.524 . S
C647 C651 1.400 . S
C648 H633 0.960 . S
C648 H634 0.960 . S
C648 H635 0.960 . S
C648 C647 1.524 . S
C649 C646 1.403 . S
C649 C650 1.392 1_545 S
C649 C653 1.495 . S
C650 C649 1.392 1_565 S
C650 C651 1.385 . S
C650 C652 1.478 . S
C651 H645 0.930 . S
C651 C647 1.400 . S
C651 C650 1.385 . S
C652 C650 1.478 . S
C652 C654 1.381 . S
C652 C658 1.383 . S
C653 C649 1.495 . S
C653 H659 0.959 . S
C653 H660 0.961 . S
C653 H661 0.960 . S
C654 C652 1.381 . S
C654 C655 1.394 . S
C654 H662 0.930 . S
C655 C654 1.394 . S
C655 C656 1.383 . S
C655 H663 0.929 . S
C656 C655 1.383 . S
C656 C657 1.377 . S
C657 H641 0.930 . S
C657 C656 1.377 . S
C657 C658 1.379 . S
C658 H642 0.931 . S
C658 C652 1.383 . S
C658 C657 1.379 . S
H659 C653 0.959 . S
H660 C653 0.961 . S
H661 C653 0.960 . S
H662 C654 0.930 . S
H663 C655 0.929 . S
H664 C672 0.929 . S
H665 C674 0.930 . S
H666 C676 0.930 . S
H667 C679 0.929 . S
H668 C682 0.930 . S
H669 C684 0.960 . S
H670 C684 0.960 . S
H671 C684 0.960 . S
C672 H664 0.929 . S
C672 C673 1.377 . S
C672 C674 1.384 . S
C673 C672 1.377 . S
C673 C679 1.390 . S
C674 H665 0.930 . S
C674 C672 1.384 . S
C674 C675 1.372 . S
C675 C674 1.372 . S
C675 C676 1.400 . S
C675 C680 1.490 . S
C676 H666 0.930 . S
C676 C675 1.400 . S
C676 C679 1.386 . S
H677 C693 0.930 . S
H678 C694 0.931 . S
C679 H667 0.929 . S
C679 C673 1.390 . S
C679 C676 1.386 . S
C680 C675 1.490 . S
C680 C682 1.395 . S
C680 C683 1.403 . S
H681 C687 0.930 . S
C682 H668 0.930 . S
C682 C680 1.395 . S
C682 C685 1.403 . S
C683 C680 1.403 . S
C683 C684 1.524 . S
C683 C687 1.400 . S
C684 H669 0.960 . S
C684 H670 0.960 . S
C684 H671 0.960 . S
C684 C683 1.524 . S
C685 C682 1.403 . S
C685 C686 1.392 . S
C685 C689 1.495 . S
C686 C685 1.392 . S
C686 C687 1.385 . S
C686 C688 1.478 . S
C687 H681 0.930 . S
C687 C683 1.400 . S
C687 C686 1.385 . S
C688 C686 1.478 . S
C688 C690 1.381 . S
C688 C694 1.383 . S
C689 C685 1.495 . S
C689 H695 0.959 . S
C689 H696 0.961 . S
C689 H697 0.960 . S
C690 C688 1.381 . S
C690 C691 1.394 . S
C690 H698 0.930 . S
C691 C690 1.394 . S
C691 C692 1.383 . S
C691 H699 0.929 . S
C692 C691 1.383 . S
C692 C693 1.377 . S
C693 H677 0.930 . S
C693 C692 1.377 . S
C693 C694 1.379 . S
C694 H678 0.931 . S
C694 C688 1.383 . S
C694 C693 1.379 . S
H695 C689 0.959 . S
H696 C689 0.961 . S
H697 C689 0.960 . S
H698 C690 0.930 . S
H699 C691 0.929 . S
H700 C708 0.929 . S
H701 C710 0.930 . S
H702 C712 0.930 . S
H703 C715 0.929 . S
H704 C718 0.930 . S
H705 C720 0.960 . S
H706 C720 0.960 . S
H707 C720 0.960 . S
C708 H700 0.929 . S
C708 C709 1.377 . S
C708 C710 1.384 . S
C709 C708 1.377 . S
C709 C715 1.390 . S
C710 H701 0.930 . S
C710 C708 1.384 . S
C710 C711 1.372 . S
C711 C710 1.372 . S
C711 C712 1.400 . S
C711 C716 1.490 . S
C712 H702 0.930 . S
C712 C711 1.400 . S
C712 C715 1.386 . S
H713 C729 0.930 . S
H714 C730 0.931 . S
C715 H703 0.929 . S
C715 C709 1.390 . S
C715 C712 1.386 . S
C716 C711 1.490 . S
C716 C718 1.395 . S
C716 C719 1.403 . S
H717 C723 0.930 . S
C718 H704 0.930 . S
C718 C716 1.395 . S
C718 C721 1.403 . S
C719 C716 1.403 . S
C719 C720 1.524 . S
C719 C723 1.400 . S
C720 H705 0.960 . S
C720 H706 0.960 . S
C720 H707 0.960 . S
C720 C719 1.524 . S
C721 C718 1.403 . S
C721 C722 1.392 . S
C721 C725 1.495 . S
C722 C721 1.392 . S
C722 C723 1.385 . S
C722 C724 1.478 . S
C723 H717 0.930 . S
C723 C719 1.400 . S
C723 C722 1.385 . S
C724 C722 1.478 . S
C724 C726 1.381 . S
C724 C730 1.383 . S
C725 C721 1.495 . S
C725 H731 0.959 . S
C725 H732 0.961 . S
C725 H733 0.960 . S
C726 C724 1.381 . S
C726 C727 1.394 . S
C726 H734 0.930 . S
C727 C726 1.394 . S
C727 C728 1.383 . S
C727 H735 0.929 . S
C728 C727 1.383 . S
C728 C729 1.377 . S
C729 H713 0.930 . S
C729 C728 1.377 . S
C729 C730 1.379 . S
C730 H714 0.931 . S
C730 C724 1.383 . S
C730 C729 1.379 . S
H731 C725 0.959 . S
H732 C725 0.961 . S
H733 C725 0.960 . S
H734 C726 0.930 . S
H735 C727 0.929 . S
H736 C744 0.929 . S
H737 C746 0.930 . S
H738 C748 0.930 . S
H739 C751 0.929 . S
H740 C754 0.930 . S
H741 C756 0.960 . S
H742 C756 0.960 . S
H743 C756 0.960 . S
C744 H736 0.929 . S
C744 C745 1.377 . S
C744 C746 1.384 . S
C745 C744 1.377 . S
C745 C751 1.390 . S
C746 H737 0.930 . S
C746 C744 1.384 . S
C746 C747 1.372 . S
C747 C746 1.372 . S
C747 C748 1.400 . S
C747 C752 1.490 . S
C748 H738 0.930 . S
C748 C747 1.400 . S
C748 C751 1.386 . S
H749 C765 0.930 . S
H750 C766 0.931 . S
C751 H739 0.929 . S
C751 C745 1.390 . S
C751 C748 1.386 . S
C752 C747 1.490 . S
C752 C754 1.395 . S
C752 C755 1.403 . S
H753 C759 0.930 . S
C754 H740 0.930 . S
C754 C752 1.395 . S
C754 C757 1.403 . S
C755 C752 1.403 . S
C755 C756 1.524 . S
C755 C759 1.400 . S
C756 H741 0.960 . S
C756 H742 0.960 . S
C756 H743 0.960 . S
C756 C755 1.524 . S
C757 C754 1.403 . S
C757 C758 1.392 . S
C757 C761 1.495 . S
C758 C757 1.392 . S
C758 C759 1.385 . S
C758 C760 1.478 . S
C759 H753 0.930 . S
C759 C755 1.400 . S
C759 C758 1.385 . S
C760 C758 1.478 . S
C760 C762 1.381 . S
C760 C766 1.383 . S
C761 C757 1.495 . S
C761 H767 0.959 . S
C761 H768 0.961 . S
C761 H769 0.960 . S
C762 C760 1.381 . S
C762 C763 1.394 . S
C762 H770 0.930 . S
C763 C762 1.394 . S
C763 C764 1.383 . S
C763 H771 0.929 . S
C764 C763 1.383 . S
C764 C765 1.377 . S
C765 H749 0.930 . S
C765 C764 1.377 . S
C765 C766 1.379 . S
C766 H750 0.931 . S
C766 C760 1.383 . S
C766 C765 1.379 . S
H767 C761 0.959 . S
H768 C761 0.961 . S
H769 C761 0.960 . S
H770 C762 0.930 . S
H771 C763 0.929 . S
H772 C780 0.929 . S
H773 C782 0.930 . S
H774 C784 0.930 . S
H775 C787 0.929 . S
H776 C790 0.930 . S
H777 C792 0.960 . S
H778 C792 0.960 . S
H779 C792 0.960 . S
C780 H772 0.929 . S
C780 C781 1.377 . S
C780 C782 1.384 . S
C781 C780 1.377 . S
C781 C787 1.390 . S
C782 H773 0.930 . S
C782 C780 1.384 . S
C782 C783 1.372 . S
C783 C782 1.372 . S
C783 C784 1.400 . S
C783 C788 1.490 . S
C784 H774 0.930 . S
C784 C783 1.400 . S
C784 C787 1.386 . S
H785 C801 0.930 . S
H786 C802 0.931 . S
C787 H775 0.929 . S
C787 C781 1.390 . S
C787 C784 1.386 . S
C788 C783 1.490 . S
C788 C790 1.395 . S
C788 C791 1.403 . S
H789 C795 0.930 . S
C790 H776 0.930 . S
C790 C788 1.395 . S
C790 C793 1.403 . S
C791 C788 1.403 . S
C791 C792 1.524 . S
C791 C795 1.400 . S
C792 H777 0.960 . S
C792 H778 0.960 . S
C792 H779 0.960 . S
C792 C791 1.524 . S
C793 C790 1.403 . S
C793 C794 1.392 . S
C793 C797 1.495 . S
C794 C793 1.392 . S
C794 C795 1.385 . S
C794 C796 1.478 . S
C795 H789 0.930 . S
C795 C791 1.400 . S
C795 C794 1.385 . S
C796 C794 1.478 . S
C796 C798 1.381 . S
C796 C802 1.383 . S
C797 C793 1.495 . S
C797 H803 0.959 . S
C797 H804 0.961 . S
C797 H805 0.960 . S
C798 C796 1.381 . S
C798 C799 1.394 . S
C798 H806 0.930 . S
C799 C798 1.394 . S
C799 C800 1.383 . S
C799 H807 0.929 . S
C800 C799 1.383 . S
C800 C801 1.377 . S
C801 H785 0.930 . S
C801 C800 1.377 . S
C801 C802 1.379 . S
C802 H786 0.931 . S
C802 C796 1.383 . S
C802 C801 1.379 . S
H803 C797 0.959 . S
H804 C797 0.961 . S
H805 C797 0.960 . S
H806 C798 0.930 . S
H807 C799 0.929 . S
H808 C816 0.929 . S
H809 C818 0.928 . S
H810 C820 0.924 1_455 S
H811 C823 0.929 . S
H812 C826 0.930 . S
H813 C828 0.960 . S
H814 C828 0.960 . S
H815 C828 0.960 . S
C816 H808 0.929 . S
C816 C817 1.377 . S
C816 C818 1.386 1_655 S
C817 C816 1.377 . S
C817 C823 1.390 . S
C818 H809 0.928 . S
C818 C816 1.386 1_455 S
C818 C819 1.371 . S
C819 C818 1.371 . S
C819 C820 1.400 1_455 S
C819 C824 1.490 . S
C820 H810 0.924 1_655 S
C820 C819 1.400 1_655 S
C820 C823 1.386 . S
H821 C837 0.930 . S
H822 C838 0.931 . S
C823 H811 0.929 . S
C823 C817 1.390 . S
C823 C820 1.386 . S
C824 C819 1.490 . S
C824 C826 1.395 . S
C824 C827 1.403 . S
H825 C831 0.930 . S
C826 H812 0.930 . S
C826 C824 1.395 . S
C826 C829 1.403 . S
C827 C824 1.403 . S
C827 C828 1.524 . S
C827 C831 1.400 . S
C828 H813 0.960 . S
C828 H814 0.960 . S
C828 H815 0.960 . S
C828 C827 1.524 . S
C829 C826 1.403 . S
C829 C830 1.392 . S
C829 C833 1.495 . S
C830 C829 1.392 . S
C830 C831 1.385 . S
C830 C832 1.478 . S
C831 H825 0.930 . S
C831 C827 1.400 . S
C831 C830 1.385 . S
C832 C830 1.478 . S
C832 C834 1.381 . S
C832 C838 1.383 . S
C833 C829 1.495 . S
C833 H839 0.959 . S
C833 H840 0.961 . S
C833 H841 0.960 . S
C834 C832 1.381 . S
C834 C835 1.394 . S
C834 H842 0.930 . S
C835 C834 1.394 . S
C835 C836 1.383 . S
C835 H843 0.929 . S
C836 C835 1.383 . S
C836 C837 1.377 . S
C837 H821 0.930 . S
C837 C836 1.377 . S
C837 C838 1.379 . S
C838 H822 0.931 . S
C838 C832 1.383 . S
C838 C837 1.379 . S
H839 C833 0.959 . S
H840 C833 0.961 . S
H841 C833 0.960 . S
H842 C834 0.930 . S
H843 C835 0.929 . S
H844 C852 0.929 . S
H845 C854 0.930 . S
H846 C856 0.930 . S
H847 C859 0.929 . S
H848 C862 0.930 . S
H849 C864 0.960 . S
H850 C864 0.960 . S
H851 C864 0.960 . S
C852 H844 0.929 . S
C852 C853 1.377 . S
C852 C854 1.384 . S
C853 C852 1.377 . S
C853 C859 1.390 . S
C854 H845 0.930 . S
C854 C852 1.384 . S
C854 C855 1.372 1_545 S
C855 C854 1.372 1_565 S
C855 C856 1.400 . S
C855 C860 1.490 . S
C856 H846 0.930 . S
C856 C855 1.400 . S
C856 C859 1.386 1_565 S
H857 C873 0.930 . S
H858 C874 0.931 . S
C859 H847 0.929 . S
C859 C853 1.390 . S
C859 C856 1.386 1_545 S
C860 C855 1.490 . S
C860 C862 1.395 . S
C860 C863 1.403 . S
H861 C867 0.930 . S
C862 H848 0.930 . S
C862 C860 1.395 . S
C862 C865 1.403 . S
C863 C860 1.403 . S
C863 C864 1.524 . S
C863 C867 1.400 . S
C864 H849 0.960 . S
C864 H850 0.960 . S
C864 H851 0.960 . S
C864 C863 1.524 . S
C865 C862 1.403 . S
C865 C866 1.392 . S
C865 C869 1.495 . S
C866 C865 1.392 . S
C866 C867 1.385 . S
C866 C868 1.478 . S
C867 H861 0.930 . S
C867 C863 1.400 . S
C867 C866 1.385 . S
C868 C866 1.478 . S
C868 C870 1.381 . S
C868 C874 1.383 . S
C869 C865 1.495 . S
C869 H875 0.959 . S
C869 H876 0.961 . S
C869 H877 0.960 . S
C870 C868 1.381 . S
C870 C871 1.394 . S
C870 H878 0.930 . S
C871 C870 1.394 . S
C871 C872 1.383 . S
C871 H879 0.929 . S
C872 C871 1.383 . S
C872 C873 1.377 . S
C873 H857 0.930 . S
C873 C872 1.377 . S
C873 C874 1.379 . S
C874 H858 0.931 . S
C874 C868 1.383 . S
C874 C873 1.379 . S
H875 C869 0.959 . S
H876 C869 0.961 . S
H877 C869 0.960 . S
H878 C870 0.930 . S
H879 C871 0.929 . S
H880 C888 0.929 . S
H881 C890 0.930 . S
H882 C892 0.930 . S
H883 C895 0.929 . S
H884 C898 0.930 . S
H885 C900 0.960 . S
H886 C900 0.960 . S
H887 C900 0.960 . S
C888 H880 0.929 . S
C888 C889 1.377 . S
C888 C890 1.384 . S
C889 C888 1.377 . S
C889 C895 1.390 . S
C890 H881 0.930 . S
C890 C888 1.384 . S
C890 C891 1.372 . S
C891 C890 1.372 . S
C891 C892 1.400 . S
C891 C896 1.490 . S
C892 H882 0.930 . S
C892 C891 1.400 . S
C892 C895 1.386 . S
H893 C909 0.930 . S
H894 C910 0.931 . S
C895 H883 0.929 . S
C895 C889 1.390 . S
C895 C892 1.386 . S
C896 C891 1.490 . S
C896 C898 1.395 . S
C896 C899 1.403 . S
H897 C903 0.930 . S
C898 H884 0.930 . S
C898 C896 1.395 . S
C898 C901 1.403 . S
C899 C896 1.403 . S
C899 C900 1.524 . S
C899 C903 1.400 . S
C900 H885 0.960 . S
C900 H886 0.960 . S
C900 H887 0.960 . S
C900 C899 1.524 . S
C901 C898 1.403 . S
C901 C902 1.392 . S
C901 C905 1.495 . S
C902 C901 1.392 . S
C902 C903 1.385 . S
C902 C904 1.478 . S
C903 H897 0.930 . S
C903 C899 1.400 . S
C903 C902 1.385 . S
C904 C902 1.478 . S
C904 C906 1.381 1_655 S
C904 C910 1.383 . S
C905 C901 1.495 . S
C905 H911 0.959 . S
C905 H912 0.961 . S
C905 H913 0.960 . S
C906 C904 1.381 1_455 S
C906 C907 1.394 . S
C906 H914 0.930 . S
C907 C906 1.394 . S
C907 C908 1.383 . S
C907 H915 0.929 . S
C908 C907 1.383 . S
C908 C909 1.377 . S
C909 H893 0.930 . S
C909 C908 1.377 . S
C909 C910 1.379 1_455 S
C910 H894 0.931 . S
C910 C904 1.383 . S
C910 C909 1.379 1_655 S
H911 C905 0.959 . S
H912 C905 0.961 . S
H913 C905 0.960 . S
H914 C906 0.930 . S
H915 C907 0.929 . S
H916 C924 0.929 . S
H917 C926 0.930 . S
H918 C928 0.930 . S
H919 C931 0.929 . S
H920 C934 0.930 . S
H921 C936 0.960 . S
H922 C936 0.960 . S
H923 C936 0.960 . S
C924 H916 0.929 . S
C924 C925 1.377 . S
C924 C926 1.384 . S
C925 C924 1.377 . S
C925 C931 1.390 . S
C926 H917 0.930 . S
C926 C924 1.384 . S
C926 C927 1.372 . S
C927 C926 1.372 . S
C927 C928 1.400 . S
C927 C932 1.490 . S
C928 H918 0.930 . S
C928 C927 1.400 . S
C928 C931 1.386 . S
H929 C945 0.930 . S
H930 C946 0.931 . S
C931 H919 0.929 . S
C931 C925 1.390 . S
C931 C928 1.386 . S
C932 C927 1.490 . S
C932 C934 1.395 . S
C932 C935 1.403 . S
H933 C939 0.930 . S
C934 H920 0.930 . S
C934 C932 1.395 . S
C934 C937 1.403 . S
C935 C932 1.403 . S
C935 C936 1.524 . S
C935 C939 1.400 . S
C936 H921 0.960 . S
C936 H922 0.960 . S
C936 H923 0.960 . S
C936 C935 1.524 . S
C937 C934 1.403 . S
C937 C938 1.392 . S
C937 C941 1.495 . S
C938 C937 1.392 . S
C938 C939 1.385 . S
C938 C940 1.478 . S
C939 H933 0.930 . S
C939 C935 1.400 . S
C939 C938 1.385 . S
C940 C938 1.478 . S
C940 C942 1.381 1_545 S
C940 C946 1.383 . S
C941 C937 1.495 . S
C941 H947 0.959 . S
C941 H948 0.961 . S
C941 H949 0.960 . S
C942 C940 1.381 1_565 S
C942 C943 1.394 . S
C942 H950 0.930 . S
C943 C942 1.394 . S
C943 C944 1.383 . S
C943 H951 0.929 . S
C944 C943 1.383 . S
C944 C945 1.377 . S
C945 H929 0.930 . S
C945 C944 1.377 . S
C945 C946 1.379 1_565 S
C946 H930 0.931 . S
C946 C940 1.383 . S
C946 C945 1.379 1_545 S
H947 C941 0.959 . S
H948 C941 0.961 . S
H949 C941 0.960 . S
H950 C942 0.930 . S
H951 C943 0.929 . S
H952 C960 0.929 . S
H953 C962 0.930 . S
H954 C964 0.930 . S
H955 C967 0.929 . S
H956 C970 0.930 . S
H957 C972 0.960 . S
H958 C972 0.960 . S
H959 C972 0.960 . S
C960 H952 0.929 . S
C960 C961 1.377 . S
C960 C962 1.384 . S
C961 C960 1.377 . S
C961 C967 1.390 . S
C962 H953 0.930 . S
C962 C960 1.384 . S
C962 C963 1.372 . S
C963 C962 1.372 . S
C963 C964 1.400 . S
C963 C968 1.490 . S
C964 H954 0.930 . S
C964 C963 1.400 . S
C964 C967 1.386 . S
H965 C981 0.930 . S
H966 C982 0.931 . S
C967 H955 0.929 . S
C967 C961 1.390 . S
C967 C964 1.386 . S
C968 C963 1.490 . S
C968 C970 1.395 . S
C968 C971 1.403 . S
H969 C975 0.930 . S
C970 H956 0.930 . S
C970 C968 1.395 . S
C970 C973 1.403 . S
C971 C968 1.403 . S
C971 C972 1.524 . S
C971 C975 1.400 . S
C972 H957 0.960 . S
C972 H958 0.960 . S
C972 H959 0.960 . S
C972 C971 1.524 . S
C973 C970 1.403 . S
C973 C974 1.392 . S
C973 C977 1.495 . S
C974 C973 1.392 . S
C974 C975 1.385 . S
C974 C976 1.478 . S
C975 H969 0.930 . S
C975 C971 1.400 . S
C975 C974 1.385 . S
C976 C974 1.478 . S
C976 C978 1.381 . S
C976 C982 1.383 . S
C977 C973 1.495 . S
C977 H983 0.959 . S
C977 H984 0.961 . S
C977 H985 0.960 . S
C978 C976 1.381 . S
C978 C979 1.394 . S
C978 H986 0.930 . S
C979 C978 1.394 . S
C979 C980 1.383 . S
C979 H987 0.929 . S
C980 C979 1.383 . S
C980 C981 1.377 . S
C981 H965 0.930 . S
C981 C980 1.377 . S
C981 C982 1.379 . S
C982 H966 0.931 . S
C982 C976 1.383 . S
C982 C981 1.379 . S
H983 C977 0.959 . S
H984 C977 0.961 . S
H985 C977 0.960 . S
H986 C978 0.930 . S
H987 C979 0.929 . S
H988 C996 0.929 . S
H989 C998 0.930 . S
H990 C1000 0.930 . S
H991 C1003 0.929 . S
H992 C1006 0.930 . S
H993 C1008 0.960 . S
H994 C1008 0.960 . S
H995 C1008 0.960 . S
C996 H988 0.929 . S
C996 C997 1.377 . S
C996 C998 1.384 . S
C997 C996 1.377 . S
C997 C1003 1.390 . S
C998 H989 0.930 . S
C998 C996 1.384 . S
C998 C999 1.372 . S
C999 C998 1.372 . S
C999 C1000 1.400 . S
C999 C1004 1.490 . S
C1000 H990 0.930 . S
C1000 C999 1.400 . S
C1000 C1003 1.386 . S
H1001 C1017 0.930 . S
H1002 C1018 0.931 . S
C1003 H991 0.929 . S
C1003 C997 1.390 . S
C1003 C1000 1.386 . S
C1004 C999 1.490 . S
C1004 C1006 1.395 . S
C1004 C1007 1.403 . S
H1005 C1011 0.930 . S
C1006 H992 0.930 . S
C1006 C1004 1.395 . S
C1006 C1009 1.403 . S
C1007 C1004 1.403 . S
C1007 C1008 1.524 . S
C1007 C1011 1.400 . S
C1008 H993 0.960 . S
C1008 H994 0.960 . S
C1008 H995 0.960 . S
C1008 C1007 1.524 . S
C1009 C1006 1.403 . S
C1009 C1010 1.392 . S
C1009 C1013 1.495 . S
C1010 C1009 1.392 . S
C1010 C1011 1.385 . S
C1010 C1012 1.478 . S
C1011 H1005 0.930 . S
C1011 C1007 1.400 . S
C1011 C1010 1.385 . S
C1012 C1010 1.478 . S
C1012 C1014 1.381 . S
C1012 C1018 1.383 . S
C1013 C1009 1.495 . S
C1013 H1019 0.959 . S
C1013 H1020 0.961 . S
C1013 H1021 0.960 . S
C1014 C1012 1.381 . S
C1014 C1015 1.394 . S
C1014 H1022 0.930 . S
C1015 C1014 1.394 . S
C1015 C1016 1.383 . S
C1015 H1023 0.929 . S
C1016 C1015 1.383 . S
C1016 C1017 1.377 . S
C1017 H1001 0.930 . S
C1017 C1016 1.377 . S
C1017 C1018 1.379 . S
C1018 H1002 0.931 . S
C1018 C1012 1.383 . S
C1018 C1017 1.379 . S
H1019 C1013 0.959 . S
H1020 C1013 0.961 . S
H1021 C1013 0.960 . S
H1022 C1014 0.930 . S
H1023 C1015 0.929 . S
H1024 C1032 0.929 . S
H1025 C1034 0.930 . S
H1026 C1036 0.930 . S
H1027 C1039 0.929 . S
H1028 C1042 0.930 . S
H1029 C1044 0.960 . S
H1030 C1044 0.960 . S
H1031 C1044 0.960 . S
C1032 H1024 0.929 . S
C1032 C1033 1.377 . S
C1032 C1034 1.384 . S
C1033 C1032 1.377 . S
C1033 C1039 1.390 . S
C1034 H1025 0.930 . S
C1034 C1032 1.384 . S
C1034 C1035 1.372 . S
C1035 C1034 1.372 . S
C1035 C1036 1.400 . S
C1035 C1040 1.490 . S
C1036 H1026 0.930 . S
C1036 C1035 1.400 . S
C1036 C1039 1.386 . S
H1037 C1053 0.930 . S
H1038 C1054 0.931 . S
C1039 H1027 0.929 . S
C1039 C1033 1.390 . S
C1039 C1036 1.386 . S
C1040 C1035 1.490 . S
C1040 C1042 1.395 . S
C1040 C1043 1.403 . S
H1041 C1047 0.930 . S
C1042 H1028 0.930 . S
C1042 C1040 1.395 . S
C1042 C1045 1.403 . S
C1043 C1040 1.403 . S
C1043 C1044 1.524 . S
C1043 C1047 1.400 . S
C1044 H1029 0.960 . S
C1044 H1030 0.960 . S
C1044 H1031 0.960 . S
C1044 C1043 1.524 . S
C1045 C1042 1.403 . S
C1045 C1046 1.392 . S
C1045 C1049 1.495 . S
C1046 C1045 1.392 . S
C1046 C1047 1.385 . S
C1046 C1048 1.478 . S
C1047 H1041 0.930 . S
C1047 C1043 1.400 . S
C1047 C1046 1.385 . S
C1048 C1046 1.478 . S
C1048 C1050 1.381 . S
C1048 C1054 1.383 . S
C1049 C1045 1.495 . S
C1049 H1055 0.959 . S
C1049 H1056 0.961 . S
C1049 H1057 0.960 . S
C1050 C1048 1.381 . S
C1050 C1051 1.394 . S
C1050 H1058 0.930 . S
C1051 C1050 1.394 . S
C1051 C1052 1.383 . S
C1051 H1059 0.929 . S
C1052 C1051 1.383 . S
C1052 C1053 1.377 . S
C1053 H1037 0.930 . S
C1053 C1052 1.377 . S
C1053 C1054 1.379 . S
C1054 H1038 0.931 . S
C1054 C1048 1.383 . S
C1054 C1053 1.379 . S
H1055 C1049 0.959 . S
H1056 C1049 0.961 . S
H1057 C1049 0.960 . S
H1058 C1050 0.930 . S
H1059 C1051 0.929 . S
H1060 C1068 0.929 . S
H1061 C1070 0.930 . S
H1062 C1072 0.930 . S
H1063 C1075 0.929 . S
H1064 C1078 0.930 . S
H1065 C1080 0.960 . S
H1066 C1080 0.960 . S
H1067 C1080 0.960 . S
C1068 H1060 0.929 . S
C1068 C1069 1.377 . S
C1068 C1070 1.384 . S
C1069 C1068 1.377 . S
C1069 C1075 1.390 . S
C1070 H1061 0.930 . S
C1070 C1068 1.384 . S
C1070 C1071 1.372 . S
C1071 C1070 1.372 . S
C1071 C1072 1.400 . S
C1071 C1076 1.490 . S
C1072 H1062 0.930 . S
C1072 C1071 1.400 . S
C1072 C1075 1.386 . S
H1073 C1089 0.930 . S
H1074 C1090 0.931 . S
C1075 H1063 0.929 . S
C1075 C1069 1.390 . S
C1075 C1072 1.386 . S
C1076 C1071 1.490 . S
C1076 C1078 1.395 . S
C1076 C1079 1.403 . S
H1077 C1083 0.930 . S
C1078 H1064 0.930 . S
C1078 C1076 1.395 . S
C1078 C1081 1.403 . S
C1079 C1076 1.403 . S
C1079 C1080 1.524 . S
C1079 C1083 1.400 . S
C1080 H1065 0.960 . S
C1080 H1066 0.960 . S
C1080 H1067 0.960 . S
C1080 C1079 1.524 . S
C1081 C1078 1.403 . S
C1081 C1082 1.392 . S
C1081 C1085 1.495 . S
C1082 C1081 1.392 . S
C1082 C1083 1.385 . S
C1082 C1084 1.478 . S
C1083 H1077 0.930 . S
C1083 C1079 1.400 . S
C1083 C1082 1.385 . S
C1084 C1082 1.478 . S
C1084 C1086 1.381 . S
C1084 C1090 1.383 . S
C1085 C1081 1.495 . S
C1085 H1091 0.959 . S
C1085 H1092 0.961 . S
C1085 H1093 0.960 . S
C1086 C1084 1.381 . S
C1086 C1087 1.394 . S
C1086 H1094 0.930 . S
C1087 C1086 1.394 . S
C1087 C1088 1.383 . S
C1087 H1095 0.929 . S
C1088 C1087 1.383 . S
C1088 C1089 1.377 . S
C1089 H1073 0.930 . S
C1089 C1088 1.377 . S
C1089 C1090 1.379 . S
C1090 H1074 0.931 . S
C1090 C1084 1.383 . S
C1090 C1089 1.379 . S
H1091 C1085 0.959 . S
H1092 C1085 0.961 . S
H1093 C1085 0.960 . S
H1094 C1086 0.930 . S
H1095 C1087 0.929 . S
H1096 C1104 0.929 . S
H1097 C1106 0.930 . S
H1098 C1108 0.930 1_545 S
H1099 C1111 0.929 . S
H1100 C1114 0.930 . S
H1101 C1116 0.953 1_545 S
H1102 C1116 0.979 . S
H1103 C1116 0.961 . S
C1104 H1096 0.929 . S
C1104 C1105 1.377 . S
C1104 C1106 1.384 . S
C1105 C1104 1.377 . S
C1105 C1111 1.390 . S
C1106 H1097 0.930 . S
C1106 C1104 1.384 . S
C1106 C1107 1.372 . S
C1107 C1106 1.372 . S
C1107 C1108 1.400 . S
C1107 C1112 1.490 1_565 S
C1108 H1098 0.930 1_565 S
C1108 C1107 1.400 . S
C1108 C1111 1.386 . S
H1109 C1125 0.930 . S
H1110 C1126 0.931 . S
C1111 H1099 0.929 . S
C1111 C1105 1.390 . S
C1111 C1108 1.386 . S
C1112 C1107 1.490 1_545 S
C1112 C1114 1.395 . S
C1112 C1115 1.403 1_556 S
H1113 C1119 0.930 . S
C1114 H1100 0.930 . S
C1114 C1112 1.395 . S
C1114 C1117 1.403 1_556 S
C1115 C1112 1.403 1_554 S
C1115 C1116 1.511 1_545 S
C1115 C1119 1.400 . S
C1116 H1101 0.953 1_565 S
C1116 H1102 0.979 . S
C1116 H1103 0.961 . S
C1116 C1115 1.511 1_565 S
C1117 C1114 1.403 1_554 S
C1117 C1118 1.392 . S
C1117 C1121 1.495 1_554 S
C1118 C1117 1.392 . S
C1118 C1119 1.385 . S
C1118 C1120 1.478 . S
C1119 H1113 0.930 . S
C1119 C1115 1.400 . S
C1119 C1118 1.385 . S
C1120 C1118 1.478 . S
C1120 C1122 1.381 . S
C1120 C1126 1.383 . S
C1121 C1117 1.495 1_556 S
C1121 H1127 0.959 . S
C1121 H1128 0.961 . S
C1121 H1129 0.960 1_556 S
C1122 C1120 1.381 . S
C1122 C1123 1.394 . S
C1122 H1130 0.930 . S
C1123 C1122 1.394 . S
C1123 C1124 1.383 . S
C1123 H1131 0.929 . S
C1124 C1123 1.383 . S
C1124 C1125 1.377 . S
C1125 H1109 0.930 . S
C1125 C1124 1.377 . S
C1125 C1126 1.379 . S
C1126 H1110 0.931 . S
C1126 C1120 1.383 . S
C1126 C1125 1.379 . S
H1127 C1121 0.959 . S
H1128 C1121 0.961 . S
H1129 C1121 0.960 1_554 S
H1130 C1122 0.930 . S
H1131 C1123 0.929 . S
H1132 C1140 0.929 . S
H1133 C1142 0.930 . S
H1134 C1144 0.930 . S
H1135 C1147 0.929 . S
H1136 C1150 0.930 . S
H1137 C1152 0.960 . S
H1138 C1152 0.960 . S
H1139 C1152 0.960 . S
C1140 H1132 0.929 . S
C1140 C1141 1.377 . S
C1140 C1142 1.384 . S
C1141 C1140 1.377 . S
C1141 C1147 1.390 . S
C1142 H1133 0.930 . S
C1142 C1140 1.384 . S
C1142 C1143 1.372 . S
C1143 C1142 1.372 . S
C1143 C1144 1.400 . S
C1143 C1148 1.490 1_655 S
C1144 H1134 0.930 . S
C1144 C1143 1.400 . S
C1144 C1147 1.386 . S
H1145 C1161 0.930 . S
H1146 C1162 0.931 . S
C1147 H1135 0.929 . S
C1147 C1141 1.390 . S
C1147 C1144 1.386 . S
C1148 C1143 1.490 1_455 S
C1148 C1150 1.395 . S
C1148 C1151 1.403 1_554 S
H1149 C1155 0.930 . S
C1150 H1136 0.930 . S
C1150 C1148 1.395 . S
C1150 C1153 1.403 . S
C1151 C1148 1.403 1_556 S
C1151 C1152 1.524 1_455 S
C1151 C1155 1.400 . S
C1152 H1137 0.960 . S
C1152 H1138 0.960 . S
C1152 H1139 0.960 . S
C1152 C1151 1.524 1_655 S
C1153 C1150 1.403 . S
C1153 C1154 1.392 1_554 S
C1153 C1157 1.495 . S
C1154 C1153 1.392 1_556 S
C1154 C1155 1.385 . S
C1154 C1156 1.478 . S
C1155 H1149 0.930 . S
C1155 C1151 1.400 . S
C1155 C1154 1.385 . S
C1156 C1154 1.478 . S
C1156 C1158 1.381 . S
C1156 C1162 1.383 . S
C1157 C1153 1.495 . S
C1157 H1163 0.959 . S
C1157 H1164 0.961 . S
C1157 H1165 0.960 . S
C1158 C1156 1.381 . S
C1158 C1159 1.394 . S
C1158 H1166 0.930 . S
C1159 C1158 1.394 . S
C1159 C1160 1.383 . S
C1159 H1167 0.929 . S
C1160 C1159 1.383 . S
C1160 C1161 1.377 . S
C1161 H1145 0.930 . S
C1161 C1160 1.377 . S
C1161 C1162 1.379 . S
C1162 H1146 0.931 . S
C1162 C1156 1.383 . S
C1162 C1161 1.379 . S
H1163 C1157 0.959 . S
H1164 C1157 0.961 . S
H1165 C1157 0.960 . S
H1166 C1158 0.930 . S
H1167 C1159 0.929 . S
H1168 C1176 0.929 . S
H1169 C1178 0.930 . S
H1170 C1180 0.930 . S
H1171 C1183 0.929 . S
H1172 C1186 0.930 . S
H1173 C1188 0.960 . S
H1174 C1188 0.960 . S
H1175 C1188 0.960 . S
C1176 H1168 0.929 . S
C1176 C1177 1.377 . S
C1176 C1178 1.384 . S
C1177 C1176 1.377 . S
C1177 C1183 1.390 . S
C1178 H1169 0.930 . S
C1178 C1176 1.384 . S
C1178 C1179 1.372 . S
C1179 C1178 1.372 . S
C1179 C1180 1.400 . S
C1179 C1184 1.490 . S
C1180 H1170 0.930 . S
C1180 C1179 1.400 . S
C1180 C1183 1.386 . S
H1181 C1197 0.930 . S
H1182 C1198 0.931 1_565 S
C1183 H1171 0.929 . S
C1183 C1177 1.390 . S
C1183 C1180 1.386 . S
C1184 C1179 1.490 . S
C1184 C1186 1.395 . S
C1184 C1187 1.403 . S
H1185 C1191 0.930 1_556 S
C1186 H1172 0.930 . S
C1186 C1184 1.395 . S
C1186 C1189 1.403 1_554 S
C1187 C1184 1.403 . S
C1187 C1188 1.524 . S
C1187 C1191 1.400 . S
C1188 H1173 0.960 . S
C1188 H1174 0.960 . S
C1188 H1175 0.960 . S
C1188 C1187 1.524 . S
C1189 C1186 1.403 1_556 S
C1189 C1190 1.392 . S
C1189 C1193 1.495 . S
C1190 C1189 1.392 . S
C1190 C1191 1.385 1_556 S
C1190 C1192 1.478 1_565 S
C1191 H1185 0.930 1_554 S
C1191 C1187 1.400 . S
C1191 C1190 1.385 1_554 S
C1192 C1190 1.478 1_545 S
C1192 C1194 1.381 . S
C1192 C1198 1.383 . S
C1193 C1189 1.495 . S
C1193 H1199 0.959 . S
C1193 H1200 0.961 . S
C1193 H1201 0.960 . S
C1194 C1192 1.381 . S
C1194 C1195 1.394 . S
C1194 H1202 0.930 . S
C1195 C1194 1.394 . S
C1195 C1196 1.383 . S
C1195 H1203 0.929 . S
C1196 C1195 1.383 . S
C1196 C1197 1.377 . S
C1197 H1181 0.930 . S
C1197 C1196 1.377 . S
C1197 C1198 1.379 . S
C1198 H1182 0.931 1_545 S
C1198 C1192 1.383 . S
C1198 C1197 1.379 . S
H1199 C1193 0.959 . S
H1200 C1193 0.961 . S
H1201 C1193 0.960 . S
H1202 C1194 0.930 . S
H1203 C1195 0.929 . S
H1204 C1212 0.929 . S
H1205 C1214 0.930 . S
H1206 C1216 0.930 . S
H1207 C1219 0.929 . S
H1208 C1222 0.930 . S
H1209 C1224 0.960 . S
H1210 C1224 0.960 . S
H1211 C1224 0.960 . S
C1212 H1204 0.929 . S
C1212 C1213 1.377 . S
C1212 C1214 1.384 . S
C1213 C1212 1.377 . S
C1213 C1219 1.390 . S
C1214 H1205 0.930 . S
C1214 C1212 1.384 . S
C1214 C1215 1.372 . S
C1215 C1214 1.372 . S
C1215 C1216 1.400 . S
C1215 C1220 1.490 . S
C1216 H1206 0.930 . S
C1216 C1215 1.400 . S
C1216 C1219 1.386 . S
H1217 C1233 0.930 . S
H1218 C1234 0.931 . S
C1219 H1207 0.929 . S
C1219 C1213 1.390 . S
C1219 C1216 1.386 . S
C1220 C1215 1.490 . S
C1220 C1222 1.395 . S
C1220 C1223 1.403 . S
H1221 C1227 0.930 . S
C1222 H1208 0.930 . S
C1222 C1220 1.395 . S
C1222 C1225 1.403 . S
C1223 C1220 1.403 . S
C1223 C1224 1.524 1_556 S
C1223 C1227 1.400 1_556 S
C1224 H1209 0.960 . S
C1224 H1210 0.960 . S
C1224 H1211 0.960 . S
C1224 C1223 1.524 1_554 S
C1225 C1222 1.403 . S
C1225 C1226 1.392 1_556 S
C1225 C1229 1.495 1_655 S
C1226 C1225 1.392 1_554 S
C1226 C1227 1.385 . S
C1226 C1228 1.478 1_655 S
C1227 H1221 0.930 . S
C1227 C1223 1.400 1_554 S
C1227 C1226 1.385 . S
C1228 C1226 1.478 1_455 S
C1228 C1230 1.381 . S
C1228 C1234 1.383 . S
C1229 C1225 1.495 1_455 S
C1229 H1235 0.959 . S
C1229 H1236 0.961 . S
C1229 H1237 0.960 . S
C1230 C1228 1.381 . S
C1230 C1231 1.394 . S
C1230 H1238 0.930 . S
C1231 C1230 1.394 . S
C1231 C1232 1.383 . S
C1231 H1239 0.929 . S
C1232 C1231 1.383 . S
C1232 C1233 1.377 . S
C1233 H1217 0.930 . S
C1233 C1232 1.377 . S
C1233 C1234 1.379 . S
C1234 H1218 0.931 . S
C1234 C1228 1.383 . S
C1234 C1233 1.379 . S
H1235 C1229 0.959 . S
H1236 C1229 0.961 . S
H1237 C1229 0.960 . S
H1238 C1230 0.930 . S
H1239 C1231 0.929 . S
C241 C15 2.245 . S
C260 C150 2.216 . S
C277 C179 2.220 . S
C296 C44 2.253 . S
C313 C208 2.215 . S
C332 C73 2.232 . S
C349 C102 2.244 . S
C368 C121 2.206 . S
C385 C131 2.244 . S
C404 C92 2.208 . S
C421 C160 2.244 . S
C440 C5 2.201 . S
C457 C189 2.247 . S
C476 C34 2.228 . S
C493 C218 2.245 . S
C512 C63 2.224 . S
C529 C8 1.186 . S
C548 C66 1.184 . S
C565 C95 1.184 . S
C584 C37 1.133 . S
C601 C124 1.187 . S
C620 C182 1.165 . S
C637 C153 1.187 . S
C656 C211 1.164 . S
C673 C10 1.988 . S
C692 C129 1.859 . S
C709 C158 1.826 . S
C728 C39 1.966 . S
C745 C68 1.994 . S
C764 C187 1.824 . S
C781 C216 1.821 . S
C800 C97 1.964 . S
C817 C126 1.996 . S
C836 C13 1.810 . S
C853 C155 1.999 . S
C872 C42 1.848 . S
C889 C71 1.826 . S
C908 C184 1.992 . S
C925 C100 1.835 . S
C944 C213 2.009 . S
C961 C3 0.752 . S
C980 C50 0.800 . S
C997 C79 0.758 . S
C1016 C32 0.738 . S
C1033 C108 0.754 . S
C1052 C61 0.754 . S
C1069 C21 0.746 . S
C1088 C90 0.746 . S
C1105 C224 0.758 . S
C1124 C119 0.747 . S
C1141 C137 0.766 . S
C1160 C148 0.767 . S
C1177 C177 0.755 . S
C1196 C166 0.789 . S
C1213 C206 0.761 . S
C1232 C195 0.779 . S
