# Generated by pormake.
# Topology ukf, (4)-cn, num edge types: 1
# Building blocks:
#     Node 0, Type 0, BuildingBlock: ICAMEG_clean_sbu_1, # of connection points: 4
#     Node 1, Type 0, BuildingBlock: ICAMEG_clean_sbu_1, # of connection points: 4
#     Node 2, Type 0, BuildingBlock: ICAMEG_clean_sbu_1, # of connection points: 4
#     Node 3, Type 0, BuildingBlock: ICAMEG_clean_sbu_1, # of connection points: 4
#     Node 4, Type 0, BuildingBlock: ICAMEG_clean_sbu_1, # of connection points: 4
#     Node 5, Type 0, BuildingBlock: ICAMEG_clean_sbu_1, # of connection points: 4
#     Node 6, Type 0, BuildingBlock: ICAMEG_clean_sbu_1, # of connection points: 4
#     Node 7, Type 0, BuildingBlock: ICAMEG_clean_sbu_1, # of connection points: 4
#     Node 8, Type 0, BuildingBlock: ICAMEG_clean_sbu_1, # of connection points: 4
#     Node 9, Type 0, BuildingBlock: ICAMEG_clean_sbu_1, # of connection points: 4
#     Node 10, Type 0, BuildingBlock: ICAMEG_clean_sbu_1, # of connection points: 4
#     Node 11, Type 0, BuildingBlock: ICAMEG_clean_sbu_1, # of connection points: 4
#     Edge 12, Type (0, 0), BuildingBlock: OJICUG_clean_linker_0, # of connection points: 2
#     Edge 13, Type (0, 0), BuildingBlock: OJICUG_clean_linker_0, # of connection points: 2
#     Edge 14, Type (0, 0), BuildingBlock: OJICUG_clean_linker_0, # of connection points: 2
#     Edge 15, Type (0, 0), BuildingBlock: OJICUG_clean_linker_0, # of connection points: 2
#     Edge 16, Type (0, 0), BuildingBlock: OJICUG_clean_linker_0, # of connection points: 2
#     Edge 17, Type (0, 0), BuildingBlock: OJICUG_clean_linker_0, # of connection points: 2
#     Edge 18, Type (0, 0), BuildingBlock: OJICUG_clean_linker_0, # of connection points: 2
#     Edge 19, Type (0, 0), BuildingBlock: OJICUG_clean_linker_0, # of connection points: 2
#     Edge 20, Type (0, 0), BuildingBlock: OJICUG_clean_linker_0, # of connection points: 2
#     Edge 21, Type (0, 0), BuildingBlock: OJICUG_clean_linker_0, # of connection points: 2
#     Edge 22, Type (0, 0), BuildingBlock: OJICUG_clean_linker_0, # of connection points: 2
#     Edge 23, Type (0, 0), BuildingBlock: OJICUG_clean_linker_0, # of connection points: 2
#     Edge 24, Type (0, 0), BuildingBlock: OJICUG_clean_linker_0, # of connection points: 2
#     Edge 25, Type (0, 0), BuildingBlock: OJICUG_clean_linker_0, # of connection points: 2
#     Edge 26, Type (0, 0), BuildingBlock: OJICUG_clean_linker_0, # of connection points: 2
#     Edge 27, Type (0, 0), BuildingBlock: OJICUG_clean_linker_0, # of connection points: 2
#     Edge 28, Type (0, 0), BuildingBlock: OJICUG_clean_linker_0, # of connection points: 2
#     Edge 29, Type (0, 0), BuildingBlock: OJICUG_clean_linker_0, # of connection points: 2
#     Edge 30, Type (0, 0), BuildingBlock: OJICUG_clean_linker_0, # of connection points: 2
#     Edge 31, Type (0, 0), BuildingBlock: OJICUG_clean_linker_0, # of connection points: 2
#     Edge 32, Type (0, 0), BuildingBlock: OJICUG_clean_linker_0, # of connection points: 2
#     Edge 33, Type (0, 0), BuildingBlock: OJICUG_clean_linker_0, # of connection points: 2
#     Edge 34, Type (0, 0), BuildingBlock: OJICUG_clean_linker_0, # of connection points: 2
#     Edge 35, Type (0, 0), BuildingBlock: OJICUG_clean_linker_0, # of connection points: 2
# Relax obj value: 0.110
# Max RMSD: 0.106
# Mean RMSD: 0.106
data_MOF--net-ukf--node1-ICAMEG_clean_sbu_1--edge1-OJICUG_clean_linker_0
_symmetry_space_group_name_H-M    P1
_symmetry_Int_Tables_number       1
_symmetry_cell_setting            triclinic
loop_
_symmetry_equiv_pos_as_xyz
'x, y, z'
_cell_length_a     25.132081
_cell_length_b     25.205207
_cell_length_c     52.020792
_cell_angle_alpha  89.981081
_cell_angle_beta   90.019898
_cell_angle_gamma 119.9113
loop_
_atom_site_label
_atom_site_type_symbol
_atom_site_fract_x
_atom_site_fract_y
_atom_site_fract_z
_atom_type_partial_charge
Co0 Co 0.41811 0.25217 0.03907 0.0
Co1 Co 0.44924 0.18514 0.09014 0.0
O2 O 0.41971 0.23822 0.07619 0.0
C3 C 0.48068 0.37672 0.06155 0.0
O4 O 0.50921 0.35861 0.07729 0.0
C5 C 0.34722 0.16996 0.12621 0.0
O6 O 0.33166 0.20109 0.11076 0.0
O7 O 0.38842 0.11534 0.06838 0.0
O8 O 0.39407 0.16481 0.03156 0.0
H9 H 0.54676 0.05422 0.08331 0.0
H10 H 0.34758 0.28853 0.07338 0.0
O11 O 0.44232 0.33987 0.04523 0.0
H12 H 0.19415 0.13277 0.01529 0.0
H13 H 0.37052 0.33762 0.96043 0.0
H14 H 0.46157 0.21659 0.99271 0.0
H15 H 0.30372 0.1643 1.01122 0.0
H16 H 0.37207 0.31891 1.00689 0.0
O17 O 0.38903 0.15792 0.11971 0.0
H18 H 0.48873 0.10229 0.06717 0.0
H19 H 0.4743 0.15638 0.143 0.0
H20 H 0.46055 0.23378 0.94608 0.0
H21 H 0.23852 0.2589 0.07792 0.0
H22 H 0.41477 0.2947 0.92967 0.0
H23 H 0.16092 0.18033 0.04878 0.0
O24 O 0.50646 0.27724 0.03563 0.0
H25 H 0.52037 0.36208 0.152 0.0
H26 H 0.5839 0.24112 0.09903 0.0
H27 H 0.66064 0.3255 0.12557 0.0
H28 H 0.62895 0.38617 0.15261 0.0
H29 H 0.44567 0.27886 0.12462 0.0
H30 H 0.52713 0.10394 0.16019 0.0
H31 H 0.56629 0.05474 0.13017 0.0
O32 O 0.51059 0.20904 0.06182 0.0
C33 C 0.37868 0.11569 0.04418 0.0
C34 C 0.52982 0.07536 0.09661 0.0
C35 C 0.51898 0.10345 0.13973 0.0
N36 N 0.47923 0.1333 0.10398 0.0
C37 C 0.49735 0.10312 0.08754 0.0
C38 C 0.4882 0.13228 0.12989 0.0
C39 C 0.54096 0.07589 0.12288 0.0
C40 C 0.31413 0.25458 0.06054 0.0
N41 N 0.33201 0.22806 0.04214 0.0
C42 C 0.25242 0.23785 0.06324 0.0
C43 C 0.2089 0.19372 0.04691 0.0
C44 C 0.2275 0.16696 0.02814 0.0
C45 C 0.28961 0.18479 0.02602 0.0
C46 C 0.39048 0.3109 0.96734 0.0
C47 C 0.44123 0.24283 0.9857 0.0
C48 C 0.39158 0.30023 0.99363 0.0
N49 N 0.41643 0.26625 1.00249 0.0
C50 C 0.44094 0.25256 0.95929 0.0
C51 C 0.4153 0.28679 0.95009 0.0
C52 C 0.53243 0.24825 0.04377 0.0
C53 C 0.53462 0.33553 0.14052 0.0
C54 C 0.56961 0.26754 0.11051 0.0
C55 C 0.61336 0.3152 0.12561 0.0
C56 C 0.59557 0.34917 0.14079 0.0
N57 N 0.50956 0.25362 0.11064 0.0
C58 C 0.49215 0.28759 0.12517 0.0
Co59 Co 0.1653 0.40898 0.37227 0.0
Co60 Co 0.27706 0.46154 0.41951 0.0
O61 O 0.19098 0.42385 0.40856 0.0
C62 C 0.10784 0.47855 0.39214 0.0
O63 O 0.15951 0.51447 0.40406 0.0
C64 C 0.2052 0.36296 0.45993 0.0
O65 O 0.1601 0.32878 0.44422 0.0
O66 O 0.28768 0.39944 0.39918 0.0
O67 O 0.22847 0.38501 0.36449 0.0
H68 H 0.50359 0.5552 0.40392 0.0
H69 H 0.06994 0.3504 0.41255 0.0
O70 O 0.10188 0.43362 0.37877 0.0
H71 H 0.06133 0.18001 0.36261 0.0
H72 H 0.00974 0.33267 0.30064 0.0
H73 H 0.22985 0.43402 0.32219 0.0
H74 H 0.13519 0.28706 0.35122 0.0
H75 H 0.04375 0.35122 0.34585 0.0
O76 O 0.25369 0.40972 0.4516 0.0
H77 H 0.39422 0.50202 0.39187 0.0
H78 H 0.34396 0.50072 0.46995 0.0
H79 H 0.19799 0.41611 0.27672 0.0
H80 H 0.99477 0.24401 0.42442 0.0
H81 H 0.08712 0.36507 0.26569 0.0
H82 H 0.99028 0.15794 0.3994 0.0
O83 O 0.22532 0.49506 0.36269 0.0
H84 H 0.16465 0.53298 0.47733 0.0
H85 H 0.35329 0.59681 0.4271 0.0
H86 H 0.34073 0.67423 0.45098 0.0
H87 H 0.246 0.64245 0.4765 0.0
H88 H 0.17871 0.4573 0.45288 0.0
H89 H 0.45254 0.55087 0.48294 0.0
H90 H 0.5334 0.57947 0.44976 0.0
O91 O 0.30415 0.51789 0.38934 0.0
C92 C 0.27036 0.37992 0.3762 0.0
C93 C 0.46877 0.54288 0.41856 0.0
C94 C 0.44013 0.54044 0.4629 0.0
N95 N 0.3625 0.49858 0.43012 0.0
C96 C 0.40672 0.51298 0.41184 0.0
C97 C 0.37855 0.5114 0.45543 0.0
C98 C 0.48547 0.5566 0.44428 0.0
C99 C 0.06788 0.31318 0.40145 0.0
N100 N 0.10681 0.32492 0.38121 0.0
C101 C 0.0254 0.25304 0.40832 0.0
C102 C 0.02297 0.20477 0.3943 0.0
C103 C 0.06288 0.21712 0.37368 0.0
C104 C 0.10478 0.27783 0.36738 0.0
C105 C 0.05817 0.35496 0.30519 0.0
C106 C 0.18162 0.41172 0.31754 0.0
C107 C 0.07774 0.36573 0.33076 0.0
N108 N 0.13883 0.39365 0.33665 0.0
C109 C 0.1638 0.40172 0.29176 0.0
C110 C 0.10161 0.37312 0.28559 0.0
C111 C 0.28018 0.53 0.37029 0.0
C112 C 0.20626 0.54742 0.46638 0.0
C113 C 0.31176 0.58259 0.43798 0.0
C114 C 0.30498 0.62666 0.45156 0.0
C115 C 0.25186 0.60881 0.46587 0.0
N116 N 0.26709 0.52231 0.4387 0.0
C117 C 0.21464 0.50466 0.45254 0.0
Co118 Co 0.75607 0.16834 0.70787 0.0
Co119 Co 0.82224 0.26495 0.75975 0.0
O120 O 0.77095 0.18287 0.74508 0.0
C121 C 0.63149 0.10359 0.73092 0.0
O122 O 0.64906 0.14942 0.74698 0.0
C123 C 0.8432 0.17931 0.79402 0.0
O124 O 0.81125 0.13273 0.77867 0.0
O125 O 0.89199 0.27887 0.73652 0.0
O126 O 0.84272 0.23275 0.69999 0.0
H127 H 0.9507 0.49373 0.75452 0.0
H128 H 0.72248 0.06119 0.74149 0.0
O129 O 0.66864 0.1036 0.7143 0.0
H130 H 0.87845 0.0684 0.68186 0.0
H131 H 0.66952 0.03746 0.62882 0.0
H132 H 0.78905 0.24831 0.66192 0.0
H133 H 0.84481 0.14485 0.67889 0.0
H134 H 0.68971 0.05655 0.67527 0.0
O135 O 0.85469 0.23292 0.78772 0.0
H136 H 0.89884 0.3887 0.73725 0.0
H137 H 0.85425 0.31636 0.81299 0.0
H138 H 0.77031 0.2313 0.61533 0.0
H139 H 0.75424 0.9833 0.74493 0.0
H140 H 0.71014 0.12521 0.59849 0.0
H141 H 0.83293 0.98674 0.71502 0.0
O142 O 0.72954 0.23036 0.7053 0.0
H143 H 0.64831 0.14622 0.82206 0.0
H144 H 0.764 0.33912 0.7739 0.0
H145 H 0.68007 0.3251 0.80252 0.0
H146 H 0.62206 0.22842 0.82721 0.0
H147 H 0.73092 0.16125 0.79265 0.0
H148 H 0.90806 0.42052 0.83105 0.0
H149 H 0.95456 0.51016 0.80172 0.0
O150 O 0.79208 0.30133 0.73342 0.0
C151 C 0.89158 0.26831 0.71238 0.0
C152 C 0.9302 0.45501 0.76749 0.0
C153 C 0.90631 0.41393 0.81044 0.0
N154 N 0.87276 0.34635 0.77403 0.0
C155 C 0.90074 0.39541 0.75782 0.0
C156 C 0.87655 0.35498 0.80008 0.0
C157 C 0.93238 0.46419 0.79397 0.0
C158 C 0.75646 0.06275 0.72831 0.0
N159 N 0.78185 0.10762 0.71008 0.0
C160 C 0.7744 0.01863 0.73039 0.0
C161 C 0.8186 0.02063 0.71363 0.0
C162 C 0.84422 0.06648 0.69504 0.0
C163 C 0.82519 0.10985 0.69354 0.0
C164 C 0.69591 0.08388 0.63592 0.0
C165 C 0.76317 0.20201 0.65473 0.0
C166 C 0.70741 0.09499 0.6622 0.0
N167 N 0.74095 0.15349 0.67128 0.0
C168 C 0.75255 0.19266 0.62833 0.0
C169 C 0.71873 0.13314 0.61891 0.0
C170 C 0.75337 0.28363 0.71511 0.0
C171 C 0.67374 0.18889 0.81167 0.0
C172 C 0.7388 0.29665 0.78431 0.0
C173 C 0.69135 0.28908 0.80061 0.0
C174 C 0.65887 0.2349 0.81447 0.0
N175 N 0.75409 0.25182 0.78198 0.0
C176 C 0.72144 0.19807 0.79516 0.0
Co177 Co 0.59616 0.75155 0.03908 0.0
Co178 Co 0.56289 0.81751 0.08989 0.0
O179 O 0.59347 0.76514 0.07616 0.0
C180 C 0.53358 0.62687 0.06139 0.0
O181 O 0.50426 0.64464 0.07683 0.0
C182 C 0.66462 0.83353 0.12634 0.0
O183 O 0.68071 0.80264 0.11102 0.0
O184 O 0.62374 0.88776 0.06833 0.0
O185 O 0.61974 0.83882 0.03157 0.0
H186 H 0.46273 0.94599 0.08243 0.0
H187 H 0.66635 0.71555 0.07381 0.0
O188 O 0.57239 0.66396 0.04526 0.0
H189 H 0.82067 0.87257 0.0164 0.0
H190 H 0.64677 0.66744 0.96086 0.0
H191 H 0.55352 0.78702 0.99241 0.0
H192 H 0.71103 0.84032 1.01177 0.0
H193 H 0.64378 0.68569 1.00728 0.0
O194 O 0.62253 0.84506 0.1197 0.0
H195 H 0.52182 0.89887 0.06655 0.0
H196 H 0.53663 0.84587 0.14258 0.0
H197 H 0.55598 0.7703 0.94582 0.0
H198 H 0.77547 0.74589 0.0789 0.0
H199 H 0.60287 0.71012 0.92977 0.0
H200 H 0.85352 0.8251 0.05011 0.0
O201 O 0.50775 0.72585 0.03515 0.0
H202 H 0.49183 0.63999 0.15146 0.0
H203 H 0.42793 0.76028 0.09819 0.0
H204 H 0.35099 0.675 0.12429 0.0
H205 H 0.38283 0.61461 0.15147 0.0
H206 H 0.56675 0.72413 0.12452 0.0
H207 H 0.48248 0.8972 0.15948 0.0
H208 H 0.4426 0.94535 0.12922 0.0
O209 O 0.50218 0.79327 0.06131 0.0
C210 C 0.63424 0.88773 0.04419 0.0
C211 C 0.47994 0.92526 0.09582 0.0
C212 C 0.49088 0.89774 0.13905 0.0
N213 N 0.53177 0.8686 0.10349 0.0
C214 C 0.51312 0.89814 0.08691 0.0
C215 C 0.52244 0.86955 0.12937 0.0
C216 C 0.46849 0.92469 0.12206 0.0
C217 C 0.69999 0.74977 0.06111 0.0
N218 N 0.68232 0.77625 0.0426 0.0
C219 C 0.76174 0.7669 0.06413 0.0
C220 C 0.80551 0.8114 0.048 0.0
C221 C 0.78712 0.83811 0.0291 0.0
C222 C 0.72498 0.81987 0.02666 0.0
C223 C 0.62633 0.69385 0.96761 0.0
C224 C 0.57434 0.7611 0.98557 0.0
C225 C 0.62441 0.70425 0.99388 0.0
N226 N 0.59896 0.73783 1.00253 0.0
C227 C 0.57545 0.75164 0.95917 0.0
C228 C 0.60171 0.71782 0.95018 0.0
C229 C 0.48109 0.75423 0.0432 0.0
C230 C 0.47749 0.66639 0.13992 0.0
C231 C 0.4423 0.73403 0.10975 0.0
C232 C 0.39844 0.68585 0.12459 0.0
C233 C 0.41632 0.65203 0.13985 0.0
N234 N 0.50255 0.7486 0.11019 0.0
C235 C 0.52007 0.71486 0.12481 0.0
Co236 Co 0.85368 0.60302 0.37242 0.0
Co237 Co 0.73845 0.54577 0.41795 0.0
O238 O 0.82531 0.58432 0.40826 0.0
C239 C 0.9113 0.53327 0.39193 0.0
O240 O 0.85902 0.496 0.40313 0.0
C241 C 0.80621 0.64159 0.45973 0.0
O242 O 0.84901 0.67994 0.44404 0.0
O243 O 0.73023 0.61089 0.39898 0.0
O244 O 0.79004 0.62642 0.3644 0.0
H245 H 0.5134 0.45585 0.39968 0.0
H246 H 0.9453 0.65875 0.41425 0.0
O247 O 0.91754 0.57903 0.37909 0.0
H248 H 0.95506 0.83254 0.36658 0.0
H249 H 0.01495 0.68868 0.30312 0.0
H250 H 0.79309 0.58119 0.32151 0.0
H251 H 0.88366 0.72635 0.35314 0.0
H252 H 0.9773 0.66526 0.34777 0.0
O253 O 0.7599 0.59311 0.45117 0.0
H254 H 0.62367 0.51024 0.38914 0.0
H255 H 0.66774 0.49986 0.46717 0.0
H256 H 0.82855 0.60397 0.27657 0.0
H257 H 0.01798 0.76426 0.42817 0.0
H258 H 0.94034 0.65814 0.26715 0.0
H259 H 0.02303 0.85202 0.4043 0.0
O260 O 0.7953 0.51762 0.36141 0.0
H261 H 0.84292 0.46527 0.47567 0.0
H262 H 0.66205 0.40955 0.42116 0.0
H263 H 0.67167 0.32842 0.44342 0.0
H264 H 0.76247 0.35609 0.47106 0.0
H265 H 0.83194 0.54478 0.45274 0.0
H266 H 0.55814 0.44803 0.47872 0.0
H267 H 0.47997 0.42462 0.44476 0.0
O268 O 0.71357 0.49383 0.38642 0.0
C269 C 0.74797 0.6312 0.37613 0.0
C270 C 0.54703 0.46576 0.41464 0.0
C271 C 0.57214 0.46143 0.459 0.0
N272 N 0.6523 0.50791 0.42744 0.0
C273 C 0.60958 0.4964 0.40878 0.0
C274 C 0.63427 0.4914 0.45237 0.0
C275 C 0.5283 0.44818 0.43994 0.0
C276 C 0.94766 0.69674 0.40364 0.0
N277 N 0.91043 0.68643 0.38289 0.0
C278 C 0.9887 0.75636 0.41167 0.0
C279 C 0.99145 0.80558 0.39829 0.0
C280 C 0.95327 0.79468 0.37715 0.0
C281 C 0.91275 0.73444 0.36969 0.0
C282 C 0.96613 0.66509 0.30698 0.0
C283 C 0.84166 0.60488 0.31756 0.0
C284 C 0.94452 0.65157 0.33222 0.0
N285 N 0.88293 0.62202 0.33724 0.0
C286 C 0.86154 0.61762 0.29207 0.0
C287 C 0.92425 0.64797 0.2868 0.0
C288 C 0.73945 0.48284 0.36779 0.0
C289 C 0.80301 0.45261 0.46377 0.0
C290 C 0.70189 0.422 0.43301 0.0
C291 C 0.70699 0.37583 0.44564 0.0
C292 C 0.75791 0.39138 0.46115 0.0
N293 N 0.74611 0.48204 0.43578 0.0
C294 C 0.79637 0.49751 0.45082 0.0
Co295 Co 0.25712 0.83955 0.70774 0.0
Co296 Co 0.1917 0.74168 0.75941 0.0
O297 O 0.24237 0.82406 0.74491 0.0
C298 C 0.38181 0.9035 0.73072 0.0
O299 O 0.36424 0.85722 0.74653 0.0
C300 C 0.16914 0.82595 0.79384 0.0
O301 O 0.20075 0.87286 0.7786 0.0
O302 O 0.12176 0.72712 0.73613 0.0
O303 O 0.17046 0.77543 0.69981 0.0
H304 H 0.0657 0.5128 0.75367 0.0
H305 H 0.29113 0.94588 0.74191 0.0
O306 O 0.34462 0.90402 0.71424 0.0
H307 H 0.13477 0.9404 0.68296 0.0
H308 H 0.34333 0.97269 0.62926 0.0
H309 H 0.22366 0.76091 0.66135 0.0
H310 H 0.16822 0.86389 0.67934 0.0
H311 H 0.32348 0.95225 0.67566 0.0
O312 O 0.15836 0.77265 0.78741 0.0
H313 H 0.11652 0.61805 0.73664 0.0
H314 H 0.15977 0.68947 0.81255 0.0
H315 H 0.24204 0.77928 0.6148 0.0
H316 H 0.2596 0.02381 0.746 0.0
H317 H 0.30228 0.88585 0.59847 0.0
H318 H 0.18071 0.02124 0.71643 0.0
O319 O 0.28352 0.77748 0.70458 0.0
H320 H 0.36501 0.86167 0.82185 0.0
H321 H 0.25112 0.6686 0.77366 0.0
H322 H 0.33533 0.68353 0.80234 0.0
H323 H 0.39244 0.7803 0.82704 0.0
H324 H 0.28214 0.84573 0.79238 0.0
H325 H 0.10705 0.58504 0.83037 0.0
H326 H 0.06181 0.49579 0.80083 0.0
O327 O 0.22282 0.70635 0.73306 0.0
C328 C 0.12189 0.73875 0.71211 0.0
C329 C 0.08572 0.55135 0.76672 0.0
C330 C 0.10886 0.59189 0.80977 0.0
N331 N 0.14189 0.65996 0.77352 0.0
C332 C 0.11457 0.61108 0.7572 0.0
C333 C 0.13799 0.65098 0.79955 0.0
C334 C 0.0835 0.54184 0.79319 0.0
C335 C 0.25708 0.94471 0.72887 0.0
N336 N 0.23147 0.90029 0.71048 0.0
C337 C 0.23926 0.98884 0.73132 0.0
C338 C 0.19495 0.98732 0.71475 0.0
C339 C 0.1691 0.94193 0.69599 0.0
C340 C 0.18801 0.89853 0.69413 0.0
C341 C 0.31691 0.92607 0.63613 0.0
C342 C 0.24958 0.80742 0.65439 0.0
C343 C 0.30562 0.9142 0.66239 0.0
N344 N 0.27204 0.85544 0.67119 0.0
C345 C 0.26 0.81753 0.62801 0.0
C346 C 0.29385 0.87732 0.61886 0.0
C347 C 0.26077 0.72437 0.71447 0.0
C348 C 0.33998 0.81896 0.81145 0.0
C349 C 0.27594 0.71111 0.78407 0.0
C350 C 0.32353 0.71919 0.80041 0.0
C351 C 0.35551 0.77342 0.81428 0.0
N352 N 0.25999 0.75546 0.78171 0.0
C353 C 0.29214 0.80926 0.79491 0.0
Co354 Co 0.75967 0.60112 0.65707 0.0
Co355 Co 0.81802 0.54452 0.61138 0.0
O356 O 0.76961 0.58289 0.62119 0.0
C357 C 0.63228 0.53121 0.63749 0.0
O358 O 0.64748 0.4943 0.62611 0.0
C359 C 0.84625 0.64101 0.56988 0.0
O360 O 0.84093 0.67874 0.58563 0.0
O361 O 0.89118 0.60911 0.63063 0.0
O362 O 0.84674 0.62477 0.66511 0.0
H363 H 0.95268 0.45399 0.62945 0.0
H364 H 0.72352 0.65697 0.61538 0.0
O365 O 0.67172 0.57685 0.65041 0.0
H366 H 0.88711 0.83064 0.66327 0.0
H367 H 0.68328 0.68552 0.72657 0.0
H368 H 0.79853 0.57907 0.70792 0.0
H369 H 0.85267 0.7244 0.67653 0.0
H370 H 0.69776 0.66266 0.68187 0.0
O371 O 0.8445 0.59265 0.57835 0.0
H372 H 0.89659 0.50806 0.64015 0.0
H373 H 0.84368 0.49986 0.562 0.0
H374 H 0.78559 0.6013 0.75291 0.0
H375 H 0.75599 0.76253 0.60165 0.0
H376 H 0.72753 0.65494 0.76247 0.0
H377 H 0.83849 0.85023 0.62563 0.0
O378 O 0.73288 0.51567 0.66795 0.0
H379 H 0.63371 0.46555 0.55334 0.0
H380 H 0.75827 0.40841 0.60751 0.0
H381 H 0.66777 0.32787 0.5849 0.0
H382 H 0.60495 0.35626 0.55743 0.0
H383 H 0.72393 0.54445 0.57662 0.0
H384 H 0.90183 0.44854 0.55031 0.0
H385 H 0.956 0.42426 0.58423 0.0
O386 O 0.79039 0.49182 0.64269 0.0
C387 C 0.89364 0.62945 0.65347 0.0
C388 C 0.9293 0.46436 0.6145 0.0
C389 C 0.90079 0.46133 0.57009 0.0
N390 N 0.86639 0.50681 0.60179 0.0
C391 C 0.89724 0.49478 0.62045 0.0
C392 C 0.86841 0.49101 0.5768 0.0
C393 C 0.93105 0.44759 0.58913 0.0
C394 C 0.75905 0.69493 0.62604 0.0
N395 N 0.78605 0.68456 0.64675 0.0
C396 C 0.77742 0.75458 0.61812 0.0
C397 C 0.82378 0.80377 0.63156 0.0
C398 C 0.85113 0.7928 0.65266 0.0
C399 C 0.83161 0.73254 0.66001 0.0
C400 C 0.70869 0.66215 0.72266 0.0
C401 C 0.77344 0.60252 0.71193 0.0
C402 C 0.71693 0.64894 0.69739 0.0
N403 N 0.7492 0.61967 0.69229 0.0
C404 C 0.76615 0.61495 0.73744 0.0
C405 C 0.73355 0.645 0.74279 0.0
C406 C 0.75367 0.48077 0.6614 0.0
C407 C 0.66083 0.45258 0.56517 0.0
C408 C 0.731 0.42117 0.59575 0.0
C409 C 0.67988 0.37533 0.58291 0.0
C410 C 0.64468 0.39129 0.5675 0.0
N411 N 0.74685 0.48128 0.59327 0.0
C412 C 0.71222 0.49714 0.57832 0.0
Co413 Co 0.16759 0.75151 0.99052 0.0
Co414 Co 0.26618 0.8185 0.93957 0.0
O415 O 0.18345 0.76548 0.95341 0.0
C416 C 0.10579 0.62694 0.96805 0.0
O417 O 0.15253 0.64506 0.95238 0.0
C418 C 0.17969 0.83412 0.90343 0.0
O419 O 0.13288 0.80292 0.9188 0.0
O420 O 0.27521 0.88831 0.96132 0.0
O421 O 0.23087 0.83886 0.99807 0.0
H422 H 0.49468 0.94907 0.94666 0.0
H423 H 0.06095 0.7151 0.95602 0.0
O424 O 0.10414 0.6638 0.98431 0.0
H425 H 0.06288 0.87095 1.01389 0.0
H426 H 0.03386 0.66608 0.06894 0.0
H427 H 0.24624 0.78707 0.03702 0.0
H428 H 0.14089 0.83942 0.01818 0.0
H429 H 0.05452 0.68478 0.0225 0.0
O430 O 0.23346 0.84592 0.90996 0.0
H431 H 0.38851 0.90097 0.9627 0.0
H432 H 0.32029 0.84736 0.88678 0.0
H433 H 0.22763 0.76991 0.08362 0.0
H434 H 0.98156 0.74472 0.95126 0.0
H435 H 0.12077 0.70901 0.09986 0.0
H436 H 0.98234 0.82334 0.98028 0.0
O437 O 0.23083 0.72643 0.99413 0.0
H438 H 0.16028 0.64162 0.87769 0.0
H439 H 0.34464 0.76225 0.93082 0.0
H440 H 0.33682 0.67768 0.90438 0.0
H441 H 0.24451 0.61715 0.87726 0.0
H442 H 0.16899 0.72505 0.90496 0.0
H443 H 0.42565 0.89973 0.8697 0.0
H444 H 0.5139 0.94874 0.89982 0.0
O445 O 0.30335 0.79442 0.96795 0.0
C446 C 0.26486 0.88797 0.98549 0.0
C447 C 0.45666 0.928 0.93332 0.0
C448 C 0.41791 0.90015 0.89015 0.0
N449 N 0.34813 0.87024 0.92583 0.0
C450 C 0.39638 0.90026 0.94233 0.0
C451 C 0.35824 0.87135 0.89994 0.0
C452 C 0.46738 0.92759 0.90706 0.0
C453 C 0.06136 0.74906 0.96881 0.0
N454 N 0.10563 0.77561 0.98728 0.0
C455 C 0.0164 0.76578 0.96598 0.0
C456 C 0.01691 0.80995 0.98225 0.0
C457 C 0.06214 0.83674 1.00109 0.0
C458 C 0.10639 0.81891 1.00334 0.0
C459 C 0.08061 0.6928 0.06211 0.0
C460 C 0.1996 0.76084 0.04394 0.0
C461 C 0.0926 0.70345 0.03583 0.0
N462 N 0.15152 0.73742 0.02708 0.0
C463 C 0.18935 0.75113 0.07035 0.0
C464 C 0.1294 0.71691 0.07945 0.0
C465 C 0.28582 0.75527 0.98602 0.0
C466 C 0.20105 0.6681 0.8892 0.0
C467 C 0.30397 0.73591 0.91929 0.0
C468 C 0.29995 0.68814 0.90426 0.0
C469 C 0.24821 0.65424 0.88904 0.0
N470 N 0.25796 0.75001 0.91908 0.0
C471 C 0.20664 0.71615 0.9045 0.0
Co472 Co 0.42451 0.17067 0.32172 0.0
Co473 Co 0.45396 0.2669 0.26979 0.0
O474 O 0.42358 0.18489 0.2845 0.0
C475 C 0.48371 0.10541 0.29853 0.0
O476 O 0.51146 0.15078 0.28221 0.0
C477 C 0.347 0.18089 0.23575 0.0
O478 O 0.33258 0.13444 0.25115 0.0
O479 O 0.39821 0.2806 0.29312 0.0
O480 O 0.40242 0.23515 0.32967 0.0
H481 H 0.55276 0.49559 0.27488 0.0
H482 H 0.35034 0.06325 0.28834 0.0
O483 O 0.44705 0.10584 0.31529 0.0
H484 H 0.20261 0.07095 0.34842 0.0
H485 H 0.38145 0.04057 0.40097 0.0
H486 H 0.47245 0.2511 0.36749 0.0
H487 H 0.31277 0.14742 0.35105 0.0
H488 H 0.37951 0.05919 0.35452 0.0
O489 O 0.3892 0.23456 0.24194 0.0
H490 H 0.50073 0.39062 0.29223 0.0
H491 H 0.47273 0.31811 0.21652 0.0
H492 H 0.47503 0.23456 0.41408 0.0
H493 H 0.24063 0.98534 0.28524 0.0
H494 H 0.42927 0.12864 0.43111 0.0
H495 H 0.16589 0.98902 0.31538 0.0
O496 O 0.51311 0.23268 0.32399 0.0
H497 H 0.50902 0.14871 0.20716 0.0
H498 H 0.58626 0.34139 0.25547 0.0
H499 H 0.65602 0.32774 0.2266 0.0
H500 H 0.61732 0.23118 0.20184 0.0
H501 H 0.44159 0.16338 0.2368 0.0
H502 H 0.52198 0.42218 0.19839 0.0
H503 H 0.56458 0.5119 0.22765 0.0
O504 O 0.52078 0.30359 0.29601 0.0
C505 C 0.38864 0.27038 0.3173 0.0
C506 C 0.53475 0.45684 0.26194 0.0
C507 C 0.51744 0.41565 0.21901 0.0
N508 N 0.48439 0.3482 0.25547 0.0
C509 C 0.50526 0.39728 0.27165 0.0
C510 C 0.48889 0.35674 0.22941 0.0
C511 C 0.54134 0.46596 0.23544 0.0
C512 C 0.31815 0.06492 0.30162 0.0
N513 N 0.33795 0.10994 0.31979 0.0
C514 C 0.25606 0.02079 0.29973 0.0
C515 C 0.21414 0.02293 0.31662 0.0
C516 C 0.2347 0.06893 0.33514 0.0
C517 C 0.29713 0.11231 0.33645 0.0
C518 C 0.40141 0.08693 0.39379 0.0
C519 C 0.45209 0.20487 0.37476 0.0
C520 C 0.40054 0.09776 0.3675 0.0
N521 N 0.42541 0.15618 0.35832 0.0
C522 C 0.45385 0.19579 0.40116 0.0
C523 C 0.42824 0.13636 0.41069 0.0
C524 C 0.54224 0.28598 0.31418 0.0
C525 C 0.52625 0.19132 0.21759 0.0
C526 C 0.56899 0.29896 0.24503 0.0
C527 C 0.60877 0.29161 0.22859 0.0
C528 C 0.58705 0.23749 0.21469 0.0
N529 N 0.50893 0.25398 0.24745 0.0
C530 C 0.48783 0.2003 0.23423 0.0
Co531 Co 0.25368 0.4061 0.65735 0.0
Co532 Co 0.19514 0.46147 0.61111 0.0
O533 O 0.24337 0.42316 0.62134 0.0
C534 C 0.38087 0.47614 0.63768 0.0
O535 O 0.36546 0.51297 0.62635 0.0
C536 C 0.16622 0.36358 0.57011 0.0
O537 O 0.17246 0.3265 0.58593 0.0
O538 O 0.12208 0.39791 0.63079 0.0
O539 O 0.16658 0.38229 0.6653 0.0
H540 H 0.06163 0.55376 0.62816 0.0
H541 H 0.28987 0.34937 0.61607 0.0
O542 O 0.34167 0.43055 0.65069 0.0
H543 H 0.12723 0.17673 0.66476 0.0
H544 H 0.33133 0.32459 0.72757 0.0
H545 H 0.21453 0.429 0.70795 0.0
H546 H 0.16125 0.28325 0.6774 0.0
H547 H 0.31641 0.34597 0.6827 0.0
O548 O 0.16786 0.41199 0.57844 0.0
H549 H 0.11755 0.49981 0.63943 0.0
H550 H 0.16881 0.50407 0.56129 0.0
H551 H 0.22793 0.40826 0.7531 0.0
H552 H 0.25781 0.24353 0.60295 0.0
H553 H 0.28676 0.35565 0.76316 0.0
H554 H 0.1758 0.15633 0.62735 0.0
O555 O 0.2802 0.49177 0.6678 0.0
H556 H 0.37941 0.53713 0.55327 0.0
H557 H 0.25484 0.59734 0.60573 0.0
H558 H 0.34529 0.67656 0.58263 0.0
H559 H 0.40811 0.6466 0.55601 0.0
H560 H 0.28917 0.45959 0.57698 0.0
H561 H 0.11072 0.55512 0.54905 0.0
H562 H 0.05745 0.5813 0.58267 0.0
O563 O 0.22353 0.51556 0.64198 0.0
C564 C 0.11969 0.37766 0.65365 0.0
C565 C 0.08459 0.54252 0.61334 0.0
C566 C 0.11211 0.54326 0.56894 0.0
N567 N 0.14692 0.4991 0.60111 0.0
C568 C 0.11657 0.51218 0.61961 0.0
C569 C 0.14446 0.51373 0.57597 0.0
C570 C 0.08237 0.55807 0.58781 0.0
C571 C 0.25454 0.31165 0.6269 0.0
N572 N 0.22758 0.32245 0.64749 0.0
C573 C 0.2364 0.25183 0.61933 0.0
C574 C 0.19031 0.20292 0.633 0.0
C575 C 0.163 0.21433 0.65397 0.0
C576 C 0.18228 0.27475 0.66097 0.0
C577 C 0.30559 0.34753 0.72345 0.0
C578 C 0.24 0.40602 0.71217 0.0
C579 C 0.29712 0.35991 0.69807 0.0
N580 N 0.26445 0.38864 0.69271 0.0
C581 C 0.24752 0.39442 0.73778 0.0
C582 C 0.28056 0.36494 0.7434 0.0
C583 C 0.25993 0.52685 0.66083 0.0
C584 C 0.35229 0.55078 0.56472 0.0
C585 C 0.2821 0.58392 0.59434 0.0
C586 C 0.3332 0.629 0.58122 0.0
C587 C 0.36841 0.61217 0.56629 0.0
N588 N 0.26623 0.52368 0.59258 0.0
C589 C 0.30092 0.50699 0.57813 0.0
Co590 Co 0.84658 0.25211 0.99076 0.0
Co591 Co 0.74697 0.18594 0.94005 0.0
O592 O 0.83006 0.23831 0.95368 0.0
C593 C 0.90876 0.37665 0.96829 0.0
O594 O 0.86165 0.35882 0.95285 0.0
C595 C 0.83229 0.16937 0.90362 0.0
O596 O 0.87925 0.19979 0.91902 0.0
O597 O 0.73766 0.11581 0.96165 0.0
O598 O 0.78282 0.16489 0.99837 0.0
H599 H 0.51835 0.05748 0.94781 0.0
H600 H 0.95254 0.28774 0.95596 0.0
O601 O 0.91048 0.33964 0.98447 0.0
H602 H 0.94993 0.13102 1.01354 0.0
H603 H 0.98177 0.33661 0.06886 0.0
H604 H 0.76874 0.21698 0.03748 0.0
H605 H 0.87266 0.16341 0.01814 0.0
H606 H 0.96027 0.31806 0.02246 0.0
O607 O 0.77877 0.15819 0.91022 0.0
H608 H 0.62471 0.10485 0.96356 0.0
H609 H 0.69188 0.15731 0.88742 0.0
H610 H 0.78818 0.234 0.08404 0.0
H611 H 0.03121 0.25726 0.9509 0.0
H612 H 0.89537 0.29422 0.10001 0.0
H613 H 0.0301 0.1782 0.97977 0.0
O614 O 0.78401 0.27797 0.99468 0.0
H615 H 0.85309 0.36274 0.87814 0.0
H616 H 0.66937 0.24335 0.93175 0.0
H617 H 0.67761 0.32835 0.90547 0.0
H618 H 0.76959 0.38827 0.87812 0.0
H619 H 0.84399 0.27889 0.90525 0.0
H620 H 0.58624 0.10587 0.87066 0.0
H621 H 0.49846 0.05786 0.90103 0.0
O622 O 0.71079 0.21042 0.96863 0.0
C623 C 0.74831 0.11594 0.98579 0.0
C624 C 0.55618 0.07819 0.93436 0.0
C625 C 0.59429 0.10546 0.89108 0.0
N626 N 0.66463 0.13484 0.92655 0.0
C627 C 0.61658 0.10542 0.9432 0.0
C628 C 0.65411 0.13372 0.90069 0.0
C629 C 0.54508 0.07859 0.90813 0.0
C630 C 0.95198 0.25358 0.96869 0.0
N631 N 0.90792 0.22727 0.98724 0.0
C632 C 0.99654 0.23637 0.96569 0.0
C633 C 0.99584 0.19196 0.98188 0.0
C634 C 0.95083 0.16541 1.0008 0.0
C635 C 0.90698 0.18373 1.00322 0.0
C636 C 0.93488 0.31019 0.06214 0.0
C637 C 0.81552 0.2429 0.04428 0.0
C638 C 0.92241 0.29962 0.03589 0.0
N639 N 0.86332 0.26603 0.02728 0.0
C640 C 0.82624 0.25254 0.07067 0.0
C641 C 0.88638 0.28638 0.07961 0.0
C642 C 0.72893 0.24962 0.98668 0.0
C643 C 0.81246 0.33655 0.88976 0.0
C644 C 0.7099 0.26942 0.92012 0.0
C645 C 0.71415 0.31744 0.90518 0.0
C646 C 0.76571 0.35099 0.88982 0.0
N647 N 0.7555 0.25475 0.91968 0.0
C648 C 0.80665 0.28826 0.90497 0.0
Co649 Co 0.59639 0.8433 0.32215 0.0
Co650 Co 0.56079 0.7435 0.27087 0.0
O651 O 0.59361 0.8263 0.28505 0.0
C652 C 0.53387 0.90574 0.29944 0.0
O653 O 0.50445 0.85873 0.28404 0.0
C654 C 0.66732 0.82623 0.23601 0.0
O655 O 0.68347 0.87346 0.25114 0.0
O656 O 0.6161 0.72853 0.29407 0.0
O657 O 0.61967 0.77977 0.33005 0.0
H658 H 0.45638 0.51464 0.27761 0.0
H659 H 0.66624 0.94844 0.28706 0.0
O660 O 0.57256 0.90717 0.31563 0.0
H661 H 0.82112 0.94592 0.34448 0.0
H662 H 0.64773 0.97998 0.39967 0.0
H663 H 0.55473 0.76682 0.36926 0.0
H664 H 0.71154 0.86919 0.34933 0.0
H665 H 0.6441 0.95738 0.35337 0.0
O666 O 0.6245 0.77323 0.24263 0.0
H667 H 0.5116 0.62031 0.29417 0.0
H668 H 0.53888 0.68992 0.21795 0.0
H669 H 0.5578 0.78734 0.41573 0.0
H670 H 0.7753 0.02659 0.28177 0.0
H671 H 0.60458 0.89462 0.43121 0.0
H672 H 0.85363 0.0255 0.31055 0.0
O673 O 0.50822 0.78101 0.32637 0.0
H674 H 0.50811 0.86414 0.20853 0.0
H675 H 0.42811 0.67115 0.25685 0.0
H676 H 0.35887 0.68671 0.2284 0.0
H677 H 0.39894 0.78347 0.20364 0.0
H678 H 0.57501 0.84759 0.23777 0.0
H679 H 0.48617 0.58504 0.2006 0.0
H680 H 0.44226 0.49651 0.23054 0.0
O681 O 0.49488 0.70952 0.29748 0.0
C682 C 0.62961 0.74162 0.31787 0.0
C683 C 0.47482 0.55288 0.26438 0.0
C684 C 0.49162 0.59239 0.22116 0.0
N685 N 0.52775 0.66134 0.25711 0.0
C686 C 0.50615 0.61283 0.27364 0.0
C687 C 0.52213 0.65173 0.23112 0.0
C688 C 0.46698 0.54274 0.23797 0.0
C689 C 0.7 0.94794 0.29978 0.0
N690 N 0.68251 0.9042 0.31843 0.0
C691 C 0.76171 0.99218 0.29663 0.0
C692 C 0.80564 0.99149 0.31277 0.0
C693 C 0.78745 0.9468 0.33178 0.0
C694 C 0.72533 0.90326 0.33435 0.0
C695 C 0.62732 0.93306 0.39316 0.0
C696 C 0.57548 0.81361 0.37585 0.0
C697 C 0.62502 0.91996 0.36696 0.0
N698 N 0.59958 0.86082 0.35862 0.0
C699 C 0.57693 0.82496 0.40219 0.0
C700 C 0.60312 0.88514 0.41085 0.0
C701 C 0.47659 0.72802 0.31647 0.0
C702 C 0.49024 0.82146 0.21897 0.0
C703 C 0.44595 0.71365 0.24642 0.0
C704 C 0.40647 0.72209 0.23021 0.0
C705 C 0.42896 0.77631 0.21631 0.0
N706 N 0.50643 0.75764 0.24864 0.0
C707 C 0.52834 0.81141 0.23538 0.0
C708 C 0.29374 0.94564 0.0275 0.0
C709 C 0.29436 0.9465 1.00035 0.0
H710 H 0.31996 0.99746 0.06256 0.0
C711 C 0.32341 1.00353 0.9879 0.0
H712 H 0.27215 0.90269 0.03789 0.0
C713 C 0.35029 0.05801 1.00217 0.0
C714 C 0.34967 0.05714 0.02933 0.0
H715 H 0.325 0.00619 0.96711 0.0
H716 H 0.37194 0.10095 0.99178 0.0
C717 C 0.32133 1.00012 0.04177 0.0
C718 C 0.29476 0.34607 0.33443 0.0
C719 C 0.30138 0.35212 0.36142 0.0
H720 H 0.31757 0.317 0.29941 0.0
C721 C 0.33834 0.33234 0.37358 0.0
H722 H 0.26709 0.36105 0.32422 0.0
C723 C 0.36666 0.30608 0.35922 0.0
C724 C 0.35986 0.30004 0.33225 0.0
H725 H 0.34486 0.33647 0.39422 0.0
H726 H 0.39423 0.29074 0.36932 0.0
C727 C 0.32403 0.32101 0.32005 0.0
C728 C 1.00684 0.31864 0.70973 0.0
C729 C 0.95013 0.29793 0.6975 0.0
H730 H 0.10384 0.35842 0.70562 0.0
C731 C 0.94951 0.3041 0.67053 0.0
H732 H 0.00916 0.31451 0.73038 0.0
C733 C 1.00415 0.33027 0.65621 0.0
C734 C 0.06081 0.34979 0.6684 0.0
H735 H 0.90666 0.28896 0.66041 0.0
H736 H 1.00188 0.33454 0.63557 0.0
C737 C 0.06125 0.3436 0.69538 0.0
C738 C 0.66283 0.94577 1.00226 0.0
C739 C 0.66318 0.94641 0.02942 0.0
H740 H 0.68842 0.99788 0.96727 0.0
C741 C 0.69125 1.00334 0.04194 0.0
H742 H 0.64138 0.9029 0.99182 0.0
C743 C 0.71892 0.05794 0.02774 0.0
C744 C 0.71861 0.0573 1.00058 0.0
H745 H 0.6924 0.00582 0.06273 0.0
H746 H 0.74032 0.10082 0.03817 0.0
C747 C 0.68976 1.00037 0.98807 0.0
C748 C 0.69136 0.68781 0.32017 0.0
C749 C 0.65846 0.71175 0.33265 0.0
H750 H 0.74599 0.64506 0.32399 0.0
C751 C 0.65454 0.70835 0.35975 0.0
H752 H 0.69548 0.68967 0.29942 0.0
C753 C 0.68281 0.6818 0.37395 0.0
C754 C 0.71694 0.65916 0.36149 0.0
H755 H 0.62925 0.72598 0.37007 0.0
H756 H 0.67859 0.67979 0.3947 0.0
C757 C 0.72068 0.6625 0.33439 0.0
C758 C 0.95205 0.66241 0.69523 0.0
C759 C 0.95253 0.65729 0.6682 0.0
H760 H 1.00418 0.69064 0.73024 0.0
C761 C 0.00925 0.67782 0.65593 0.0
H762 H 0.90939 0.64672 0.70551 0.0
C763 C 0.06393 0.70397 0.67023 0.0
C764 C 0.06329 0.7091 0.69725 0.0
H765 H 0.01154 0.67437 0.63525 0.0
H766 H 0.10682 0.71994 0.66004 0.0
C767 C 1.00651 0.68734 0.70956 0.0
C768 C 0.63054 0.19702 1.00974 0.0
C769 C 0.68096 0.25238 1.00174 0.0
H770 H 0.54452 0.15298 0.02913 0.0
C771 C 0.68321 0.30782 1.00772 0.0
H772 H 0.62805 0.15374 1.00552 0.0
C773 C 0.63439 0.30737 0.02113 0.0
C774 C 0.58426 0.25157 0.02926 0.0
H775 H 0.72178 0.35098 1.00159 0.0
H776 H 0.63613 0.35024 0.02543 0.0
C777 C 0.58302 0.19664 0.02346 0.0
C778 C 0.32773 0.58125 0.32889 0.0
C779 C 0.32086 0.5853 0.35541 0.0
H780 H 0.38297 0.62311 0.29576 0.0
C781 C 0.36007 0.64029 0.3682 0.0
H782 H 0.29823 0.53945 0.31857 0.0
C783 C 0.40809 0.68897 0.35507 0.0
C784 C 0.41858 0.68286 0.32901 0.0
H785 H 0.35503 0.6449 0.38857 0.0
H786 H 0.43913 0.72969 0.36575 0.0
C787 C 0.37656 0.6293 0.31586 0.0
C788 C 0.7162 0.32098 0.67834 0.0
C789 C 0.74098 0.3298 0.70323 0.0
H790 H 0.69984 0.3625 0.64565 0.0
C791 C 0.76036 0.3863 0.71556 0.0
H792 H 0.70049 0.27805 0.66832 0.0
C793 C 0.75914 0.43423 0.70264 0.0
C794 C 0.73928 0.42681 0.67708 0.0
H795 H 0.77954 0.39476 0.73474 0.0
H796 H 0.778 0.47825 0.71201 0.0
C797 C 0.71595 0.36934 0.66531 0.0
C798 C 0.38731 0.80708 1.00691 0.0
C799 C 0.33421 0.75203 1.00065 0.0
H800 H 0.47488 0.85017 0.02519 0.0
C801 C 0.32915 0.69622 1.00835 0.0
H802 H 0.39198 0.85072 1.00154 0.0
C803 C 0.37757 0.69589 0.02178 0.0
C804 C 0.43021 0.75144 0.02821 0.0
H805 H 0.28847 0.65326 1.00367 0.0
H806 H 0.37348 0.65272 0.02754 0.0
C807 C 0.4345 0.8068 0.02065 0.0
C808 C 0.6373 0.38914 0.31375 0.0
C809 C 0.60093 0.33226 0.32593 0.0
H810 H 0.71105 0.48134 0.31743 0.0
C811 C 0.61782 0.32305 0.35057 0.0
H812 H 0.62586 0.39792 0.29475 0.0
C813 C 0.66662 0.37133 0.36356 0.0
C814 C 0.69997 0.42913 0.35198 0.0
H815 H 0.59119 0.27982 0.36047 0.0
H816 H 0.6766 0.36416 0.38306 0.0
C817 C 0.68657 0.43703 0.32663 0.0
C818 C 0.29517 0.63799 0.66398 0.0
C819 C 0.27457 0.58137 0.6762 0.0
H820 H 0.30874 0.72862 0.6667 0.0
C821 C 0.25802 0.57516 0.70218 0.0
H822 H 0.30892 0.64402 0.64402 0.0
C823 C 0.25696 0.62316 0.71512 0.0
C824 C 0.27344 0.67861 0.7024 0.0
H825 H 0.24154 0.53191 0.71198 0.0
H826 H 0.24016 0.61548 0.73468 0.0
C827 C 0.29525 0.68647 0.67703 0.0
C828 C 0.32751 0.21211 0.16634 0.0
C829 C 0.33081 0.16438 0.15384 0.0
H830 H 0.33046 0.25501 0.20236 0.0
C831 C 0.32931 0.11714 0.16875 0.0
H832 H 0.32956 0.24967 0.1554 0.0
C833 C 0.32807 0.11936 0.19565 0.0
C834 C 0.33021 0.16983 0.20816 0.0
H835 H 0.3324 0.08012 0.15964 0.0
H836 H 0.3307 0.08415 0.20658 0.0
C837 C 0.32814 0.21527 0.19324 0.0
C838 C 0.21856 0.41424 0.50206 0.0
C839 C 0.19465 0.35927 0.48822 0.0
H840 H 0.22466 0.45838 0.53744 0.0
C841 C 0.15966 0.30375 0.50159 0.0
H842 H 0.24583 0.45797 0.49272 0.0
C843 C 0.15044 0.30389 0.52842 0.0
C844 C 0.17333 0.35964 0.54186 0.0
H845 H 0.14043 0.26057 0.49144 0.0
H846 H 0.12467 0.2608 0.5385 0.0
C847 C 0.20656 0.41447 0.52808 0.0
C848 C 0.89404 0.21083 0.86341 0.0
C849 C 0.84276 0.16354 0.87598 0.0
H850 H 0.93421 0.25317 0.82732 0.0
C851 C 0.79664 0.11648 0.86113 0.0
H852 H 0.92984 0.24825 0.8743 0.0
C853 C 0.80006 0.11841 0.83423 0.0
C854 C 0.84874 0.16845 0.82164 0.0
H855 H 0.75634 0.07981 0.8703 0.0
H856 H 0.762 0.08335 0.82334 0.0
C857 C 0.89654 0.21375 0.8365 0.0
C858 C 0.68422 0.79206 0.16671 0.0
C859 C 0.68116 0.83966 0.15396 0.0
H860 H 0.68175 0.7502 0.20298 0.0
C861 C 0.68334 0.88755 0.16861 0.0
H862 H 0.68159 0.75401 0.15597 0.0
C863 C 0.68526 0.88624 0.19552 0.0
C864 C 0.68307 0.83603 0.20831 0.0
H865 H 0.68041 0.92446 0.1593 0.0
H866 H 0.6833 0.92202 0.20627 0.0
C867 C 0.6842 0.78978 0.19363 0.0
C868 C 0.86045 0.70046 0.52827 0.0
C869 C 0.839 0.64476 0.54162 0.0
H870 H 0.86891 0.74382 0.49144 0.0
C871 C 0.8069 0.58988 0.52776 0.0
H872 H 0.88525 0.74357 0.53841 0.0
C873 C 0.79478 0.59 0.50172 0.0
C874 C 0.81718 0.64504 0.488 0.0
H875 H 0.78968 0.54601 0.53709 0.0
H876 H 0.76849 0.54622 0.49228 0.0
C877 C 0.85092 0.7006 0.50147 0.0
C878 C 0.11813 0.79278 0.86316 0.0
C879 C 0.16904 0.84028 0.87583 0.0
H880 H 0.07843 0.75075 0.82696 0.0
C881 C 0.2148 0.88796 0.8611 0.0
H882 H 0.08263 0.7549 0.87396 0.0
C883 C 0.21146 0.88644 0.8342 0.0
C884 C 0.16324 0.83624 0.82149 0.0
H885 H 0.25482 0.9248 0.87035 0.0
H886 H 0.2493 0.92199 0.82339 0.0
C887 C 0.11574 0.79031 0.83624 0.0
C888 C 0.51473 0.53244 0.03851 0.0
C889 C 0.51993 0.5629 0.06176 0.0
H890 H 0.4964 0.44867 0.02035 0.0
C891 C 0.51241 0.53191 0.0851 0.0
H892 H 0.52021 0.55546 0.02028 0.0
C893 C 0.501 0.47152 0.08514 0.0
C894 C 0.49462 0.44078 0.06184 0.0
H895 H 0.51649 0.55474 0.10324 0.0
H896 H 0.49597 0.44847 0.10332 0.0
C897 C 0.50102 0.47151 0.03854 0.0
C898 C 0.9844 0.51087 0.41565 0.0
C899 C 0.96168 0.51953 0.39232 0.0
H900 H 0.0508 0.49304 0.43388 0.0
C901 C 0.98733 0.51482 0.36908 0.0
H902 H 0.96515 0.51446 0.43377 0.0
C903 C 0.03426 0.50036 0.36912 0.0
C904 C 0.05785 0.49286 0.39242 0.0
H905 H 0.97025 0.52119 0.35088 0.0
H906 H 0.05284 0.49601 0.35095 0.0
C907 C 0.03317 0.49884 0.41572 0.0
C908 C 0.53681 0.02796 0.7545 0.0
C909 C 0.56759 0.0526 0.73121 0.0
H910 H 0.4538 0.95951 0.77259 0.0
C911 C 0.537 0.02782 0.70791 0.0
H912 H 0.5597 0.04629 0.77268 0.0
C913 C 0.47623 0.97993 0.70786 0.0
C914 C 0.44573 0.95444 0.7311 0.0
H915 H 0.55979 0.0462 0.68971 0.0
H916 H 0.45336 0.9621 0.68963 0.0
C917 C 0.47661 0.97837 0.75444 0.0
C918 C 0.53809 0.51331 0.66048 0.0
C919 C 0.56805 0.51723 0.63721 0.0
H920 H 0.45406 0.49506 0.67874 0.0
C921 C 0.53619 0.50761 0.61394 0.0
H922 H 0.56189 0.52041 0.67863 0.0
C923 C 0.47534 0.49546 0.61396 0.0
C924 C 0.44512 0.49033 0.6373 0.0
H925 H 0.55869 0.51058 0.5958 0.0
H926 H 0.45156 0.48898 0.59585 0.0
C927 C 0.47667 0.49876 0.66054 0.0
C928 C 0.03147 0.53198 0.94448 0.0
C929 C 0.05574 0.56283 0.96778 0.0
H930 H 0.96386 0.44863 0.92641 0.0
C931 C 0.0314 0.53217 0.99108 0.0
H932 H 0.0495 0.55497 0.9263 0.0
C933 C 0.98425 0.47121 0.99114 0.0
C934 C 0.95907 0.44064 0.9679 0.0
H935 H 0.04956 0.5551 1.00927 0.0
H936 H 0.9667 0.44825 1.00937 0.0
C937 C 0.98256 0.47155 0.94455 0.0
C938 C 0.51669 0.98299 0.32201 0.0
C939 C 0.52072 0.95655 0.29888 0.0
H940 H 0.50004 0.04991 0.33992 0.0
C941 C 0.51266 0.97943 0.27546 0.0
H942 H 0.52261 0.96598 0.3403 0.0
C943 C 0.50193 0.02894 0.27521 0.0
C944 C 0.49677 0.05452 0.29841 0.0
H945 H 0.51584 0.95982 0.25739 0.0
H946 H 0.49651 0.04645 0.25697 0.0
C947 C 0.50368 0.03078 0.32179 0.0
loop_
_geom_bond_atom_site_label_1
_geom_bond_atom_site_label_2
_geom_bond_distance
_geom_bond_site_symmetry_2
_ccdc_geom_bond_type
Co0 O2 2.143 . S
Co0 O8 2.074 . S
Co0 O11 2.093 . S
Co0 O24 2.097 . S
Co0 N41 2.151 . S
Co0 N49 2.214 1_554 S
Co1 O2 2.160 . S
Co1 O7 2.058 . S
Co1 O17 2.057 . S
Co1 O32 2.037 . S
Co1 N36 2.145 . S
Co1 N57 2.257 . S
O2 Co0 2.143 . S
O2 Co1 2.160 . S
C3 O4 1.278 . S
C3 O11 1.224 . S
O4 C3 1.278 . S
C5 O6 1.245 . S
C5 O17 1.232 . S
O6 C5 1.245 . S
O7 Co1 2.058 . S
O7 C33 1.269 . S
O8 Co0 2.074 . S
O8 C33 1.257 . S
H9 C34 0.930 . S
H10 C40 0.930 . S
O11 Co0 2.093 . S
O11 C3 1.224 . S
H12 C44 0.943 . S
H13 C46 0.930 . S
H14 C47 0.930 . S
H15 C45 0.929 1_556 S
H16 C48 0.928 . S
O17 Co1 2.057 . S
O17 C5 1.232 . S
H18 C37 0.929 . S
H19 C38 0.929 . S
H20 C50 0.931 . S
H21 C42 0.929 . S
H22 C51 0.930 . S
H23 C43 0.931 . S
O24 Co0 2.097 . S
O24 C52 1.214 . S
H25 C53 0.929 . S
H26 C54 0.929 . S
H27 C55 0.930 . S
H28 C56 0.929 . S
H29 C58 0.930 . S
H30 C35 0.930 . S
H31 C39 0.930 . S
O32 Co1 2.037 . S
O32 C52 1.234 . S
C33 O7 1.269 . S
C33 O8 1.257 . S
C34 H9 0.930 . S
C34 C37 1.388 . S
C34 C39 1.418 . S
C35 H30 0.930 . S
C35 C38 1.404 . S
C35 C39 1.353 . S
N36 Co1 2.145 . S
N36 C37 1.397 . S
N36 C38 1.334 . S
C37 H18 0.929 . S
C37 C34 1.388 . S
C37 N36 1.397 . S
C38 H19 0.929 . S
C38 C35 1.404 . S
C38 N36 1.334 . S
C39 H31 0.930 . S
C39 C34 1.418 . S
C39 C35 1.353 . S
C40 H10 0.930 . S
C40 N41 1.330 . S
C40 C42 1.446 . S
N41 Co0 2.151 . S
N41 C40 1.330 . S
N41 C45 1.418 . S
C42 H21 0.929 . S
C42 C40 1.446 . S
C42 C43 1.332 . S
C43 H23 0.931 . S
C43 C42 1.332 . S
C43 C44 1.267 . S
C44 H12 0.943 . S
C44 C43 1.267 . S
C44 C45 1.251 . S
C45 H15 0.929 1_554 S
C45 N41 1.418 . S
C45 C44 1.251 . S
C46 H13 0.930 . S
C46 C48 1.406 . S
C46 C51 1.261 . S
C47 H14 0.930 . S
C47 N49 1.325 . S
C47 C50 1.357 . S
C48 H16 0.928 . S
C48 C46 1.406 . S
C48 N49 1.261 . S
N49 Co0 2.214 1_556 S
N49 C47 1.325 . S
N49 C48 1.261 . S
C50 H20 0.931 . S
C50 C47 1.357 . S
C50 C51 1.312 . S
C51 H22 0.930 . S
C51 C46 1.261 . S
C51 C50 1.312 . S
C52 O24 1.214 . S
C52 O32 1.234 . S
C53 H25 0.929 . S
C53 C56 1.391 . S
C53 C58 1.391 . S
C54 H26 0.929 . S
C54 C55 1.390 . S
C54 N57 1.391 . S
C55 H27 0.930 . S
C55 C54 1.390 . S
C55 C56 1.392 . S
C56 H28 0.929 . S
C56 C53 1.391 . S
C56 C55 1.392 . S
N57 Co1 2.257 . S
N57 C54 1.391 . S
N57 C58 1.388 . S
C58 H29 0.930 . S
C58 C53 1.391 . S
C58 N57 1.388 . S
Co59 O61 2.143 . S
Co59 O67 2.074 . S
Co59 O70 2.093 . S
Co59 O83 2.097 . S
Co59 N100 2.151 . S
Co59 N108 2.214 . S
Co60 O61 2.160 . S
Co60 O66 2.058 . S
Co60 O76 2.057 . S
Co60 O91 2.037 . S
Co60 N95 2.145 . S
Co60 N116 2.257 . S
O61 Co59 2.143 . S
O61 Co60 2.160 . S
C62 O63 1.278 . S
C62 O70 1.224 . S
O63 C62 1.278 . S
C64 O65 1.245 . S
C64 O76 1.232 . S
O65 C64 1.245 . S
O66 Co60 2.058 . S
O66 C92 1.269 . S
O67 Co59 2.074 . S
O67 C92 1.257 . S
H68 C93 0.930 . S
H69 C99 0.930 . S
O70 Co59 2.093 . S
O70 C62 1.224 . S
H71 C103 0.929 . S
H72 C105 0.930 . S
H73 C106 0.930 . S
H74 C104 0.929 . S
H75 C107 0.928 . S
O76 Co60 2.057 . S
O76 C64 1.232 . S
H77 C96 0.929 . S
H78 C97 0.929 . S
H79 C109 0.931 . S
H80 C101 0.929 . S
H81 C110 0.930 . S
H82 C102 0.931 . S
O83 Co59 2.097 . S
O83 C111 1.214 . S
H84 C112 0.929 . S
H85 C113 0.929 . S
H86 C114 0.930 . S
H87 C115 0.929 . S
H88 C117 0.930 . S
H89 C94 0.930 . S
H90 C98 0.930 . S
O91 Co60 2.037 . S
O91 C111 1.234 . S
C92 O66 1.269 . S
C92 O67 1.257 . S
C93 H68 0.930 . S
C93 C96 1.388 . S
C93 C98 1.418 . S
C94 H89 0.930 . S
C94 C97 1.404 . S
C94 C98 1.353 . S
N95 Co60 2.145 . S
N95 C96 1.397 . S
N95 C97 1.334 . S
C96 H77 0.929 . S
C96 C93 1.388 . S
C96 N95 1.397 . S
C97 H78 0.929 . S
C97 C94 1.404 . S
C97 N95 1.334 . S
C98 H90 0.930 . S
C98 C93 1.418 . S
C98 C94 1.353 . S
C99 H69 0.930 . S
C99 N100 1.330 . S
C99 C101 1.446 1_455 S
N100 Co59 2.151 . S
N100 C99 1.330 . S
N100 C104 1.418 . S
C101 H80 0.929 . S
C101 C99 1.446 1_655 S
C101 C102 1.332 . S
C102 H82 0.931 . S
C102 C101 1.332 . S
C102 C103 1.267 . S
C103 H71 0.929 . S
C103 C102 1.267 . S
C103 C104 1.251 1_655 S
C104 H74 0.929 . S
C104 N100 1.418 . S
C104 C103 1.251 1_455 S
C105 H72 0.930 . S
C105 C107 1.406 . S
C105 C110 1.261 . S
C106 H73 0.930 . S
C106 N108 1.325 . S
C106 C109 1.357 . S
C107 H75 0.928 . S
C107 C105 1.406 . S
C107 N108 1.261 . S
N108 Co59 2.214 . S
N108 C106 1.325 . S
N108 C107 1.261 . S
C109 H79 0.931 . S
C109 C106 1.357 . S
C109 C110 1.312 . S
C110 H81 0.930 . S
C110 C105 1.261 . S
C110 C109 1.312 . S
C111 O83 1.214 . S
C111 O91 1.234 . S
C112 H84 0.929 . S
C112 C115 1.391 . S
C112 C117 1.391 . S
C113 H85 0.929 . S
C113 C114 1.390 . S
C113 N116 1.391 . S
C114 H86 0.930 . S
C114 C113 1.390 . S
C114 C115 1.392 . S
C115 H87 0.929 . S
C115 C112 1.391 . S
C115 C114 1.392 . S
N116 Co60 2.257 . S
N116 C113 1.391 . S
N116 C117 1.388 . S
C117 H88 0.930 . S
C117 C112 1.391 . S
C117 N116 1.388 . S
Co118 O120 2.143 . S
Co118 O126 2.074 . S
Co118 O129 2.093 . S
Co118 O142 2.097 . S
Co118 N159 2.151 . S
Co118 N167 2.214 . S
Co119 O120 2.160 . S
Co119 O125 2.058 . S
Co119 O135 2.057 . S
Co119 O150 2.037 . S
Co119 N154 2.145 . S
Co119 N175 2.257 . S
O120 Co118 2.143 . S
O120 Co119 2.160 . S
C121 O122 1.278 . S
C121 O129 1.224 . S
O122 C121 1.278 . S
C123 O124 1.245 . S
C123 O135 1.232 . S
O124 C123 1.245 . S
O125 Co119 2.058 . S
O125 C151 1.269 . S
O126 Co118 2.074 . S
O126 C151 1.257 . S
H127 C152 0.930 . S
H128 C158 0.930 . S
O129 Co118 2.093 . S
O129 C121 1.224 . S
H130 C162 0.929 . S
H131 C164 0.930 . S
H132 C165 0.930 . S
H133 C163 0.929 . S
H134 C166 0.928 . S
O135 Co119 2.057 . S
O135 C123 1.232 . S
H136 C155 0.929 . S
H137 C156 0.929 . S
H138 C168 0.931 . S
H139 C160 0.929 . S
H140 C169 0.930 . S
H141 C161 0.931 . S
O142 Co118 2.097 . S
O142 C170 1.214 . S
H143 C171 0.929 . S
H144 C172 0.929 . S
H145 C173 0.930 . S
H146 C174 0.929 . S
H147 C176 0.930 . S
H148 C153 0.930 . S
H149 C157 0.930 . S
O150 Co119 2.037 . S
O150 C170 1.234 . S
C151 O125 1.269 . S
C151 O126 1.257 . S
C152 H127 0.930 . S
C152 C155 1.388 . S
C152 C157 1.418 . S
C153 H148 0.930 . S
C153 C156 1.404 . S
C153 C157 1.353 . S
N154 Co119 2.145 . S
N154 C155 1.397 . S
N154 C156 1.334 . S
C155 H136 0.929 . S
C155 C152 1.388 . S
C155 N154 1.397 . S
C156 H137 0.929 . S
C156 C153 1.404 . S
C156 N154 1.334 . S
C157 H149 0.930 . S
C157 C152 1.418 . S
C157 C153 1.353 . S
C158 H128 0.930 . S
C158 N159 1.330 . S
C158 C160 1.446 1_545 S
N159 Co118 2.151 . S
N159 C158 1.330 . S
N159 C163 1.418 . S
C160 H139 0.929 . S
C160 C158 1.446 1_565 S
C160 C161 1.332 . S
C161 H141 0.931 . S
C161 C160 1.332 . S
C161 C162 1.267 . S
C162 H130 0.929 . S
C162 C161 1.267 . S
C162 C163 1.251 1_565 S
C163 H133 0.929 . S
C163 N159 1.418 . S
C163 C162 1.251 1_545 S
C164 H131 0.930 . S
C164 C166 1.406 . S
C164 C169 1.261 . S
C165 H132 0.930 . S
C165 N167 1.325 . S
C165 C168 1.357 . S
C166 H134 0.928 . S
C166 C164 1.406 . S
C166 N167 1.261 . S
N167 Co118 2.214 . S
N167 C165 1.325 . S
N167 C166 1.261 . S
C168 H138 0.931 . S
C168 C165 1.357 . S
C168 C169 1.312 . S
C169 H140 0.930 . S
C169 C164 1.261 . S
C169 C168 1.312 . S
C170 O142 1.214 . S
C170 O150 1.234 . S
C171 H143 0.929 . S
C171 C174 1.391 . S
C171 C176 1.391 . S
C172 H144 0.929 . S
C172 C173 1.390 . S
C172 N175 1.391 . S
C173 H145 0.930 . S
C173 C172 1.390 . S
C173 C174 1.392 . S
C174 H146 0.929 . S
C174 C171 1.391 . S
C174 C173 1.392 . S
N175 Co119 2.257 . S
N175 C172 1.391 . S
N175 C176 1.388 . S
C176 H147 0.930 . S
C176 C171 1.391 . S
C176 N175 1.388 . S
Co177 O179 2.143 . S
Co177 O185 2.074 . S
Co177 O188 2.093 . S
Co177 O201 2.097 . S
Co177 N218 2.151 . S
Co177 N226 2.214 1_554 S
Co178 O179 2.160 . S
Co178 O184 2.058 . S
Co178 O194 2.057 . S
Co178 O209 2.037 . S
Co178 N213 2.145 . S
Co178 N234 2.257 . S
O179 Co177 2.143 . S
O179 Co178 2.160 . S
C180 O181 1.278 . S
C180 O188 1.224 . S
O181 C180 1.278 . S
C182 O183 1.245 . S
C182 O194 1.232 . S
O183 C182 1.245 . S
O184 Co178 2.058 . S
O184 C210 1.269 . S
O185 Co177 2.074 . S
O185 C210 1.257 . S
H186 C211 0.930 . S
H187 C217 0.930 . S
O188 Co177 2.093 . S
O188 C180 1.224 . S
H189 C221 0.943 . S
H190 C223 0.930 . S
H191 C224 0.930 . S
H192 C222 0.929 1_556 S
H193 C225 0.928 . S
O194 Co178 2.057 . S
O194 C182 1.232 . S
H195 C214 0.929 . S
H196 C215 0.929 . S
H197 C227 0.931 . S
H198 C219 0.929 . S
H199 C228 0.930 . S
H200 C220 0.931 . S
O201 Co177 2.097 . S
O201 C229 1.214 . S
H202 C230 0.929 . S
H203 C231 0.929 . S
H204 C232 0.930 . S
H205 C233 0.929 . S
H206 C235 0.930 . S
H207 C212 0.930 . S
H208 C216 0.930 . S
O209 Co178 2.037 . S
O209 C229 1.234 . S
C210 O184 1.269 . S
C210 O185 1.257 . S
C211 H186 0.930 . S
C211 C214 1.388 . S
C211 C216 1.418 . S
C212 H207 0.930 . S
C212 C215 1.404 . S
C212 C216 1.353 . S
N213 Co178 2.145 . S
N213 C214 1.397 . S
N213 C215 1.334 . S
C214 H195 0.929 . S
C214 C211 1.388 . S
C214 N213 1.397 . S
C215 H196 0.929 . S
C215 C212 1.404 . S
C215 N213 1.334 . S
C216 H208 0.930 . S
C216 C211 1.418 . S
C216 C212 1.353 . S
C217 H187 0.930 . S
C217 N218 1.330 . S
C217 C219 1.446 . S
N218 Co177 2.151 . S
N218 C217 1.330 . S
N218 C222 1.418 . S
C219 H198 0.929 . S
C219 C217 1.446 . S
C219 C220 1.332 . S
C220 H200 0.931 . S
C220 C219 1.332 . S
C220 C221 1.267 . S
C221 H189 0.943 . S
C221 C220 1.267 . S
C221 C222 1.251 . S
C222 H192 0.929 1_554 S
C222 N218 1.418 . S
C222 C221 1.251 . S
C223 H190 0.930 . S
C223 C225 1.406 . S
C223 C228 1.261 . S
C224 H191 0.930 . S
C224 N226 1.325 . S
C224 C227 1.357 . S
C225 H193 0.928 . S
C225 C223 1.406 . S
C225 N226 1.261 . S
N226 Co177 2.214 1_556 S
N226 C224 1.325 . S
N226 C225 1.261 . S
C227 H197 0.931 . S
C227 C224 1.357 . S
C227 C228 1.312 . S
C228 H199 0.930 . S
C228 C223 1.261 . S
C228 C227 1.312 . S
C229 O201 1.214 . S
C229 O209 1.234 . S
C230 H202 0.929 . S
C230 C233 1.391 . S
C230 C235 1.391 . S
C231 H203 0.929 . S
C231 C232 1.390 . S
C231 N234 1.391 . S
C232 H204 0.930 . S
C232 C231 1.390 . S
C232 C233 1.392 . S
C233 H205 0.929 . S
C233 C230 1.391 . S
C233 C232 1.392 . S
N234 Co178 2.257 . S
N234 C231 1.391 . S
N234 C235 1.388 . S
C235 H206 0.930 . S
C235 C230 1.391 . S
C235 N234 1.388 . S
Co236 O238 2.143 . S
Co236 O244 2.074 . S
Co236 O247 2.093 . S
Co236 O260 2.097 . S
Co236 N277 2.151 . S
Co236 N285 2.214 . S
Co237 O238 2.160 . S
Co237 O243 2.058 . S
Co237 O253 2.057 . S
Co237 O268 2.037 . S
Co237 N272 2.145 . S
Co237 N293 2.257 . S
O238 Co236 2.143 . S
O238 Co237 2.160 . S
C239 O240 1.278 . S
C239 O247 1.224 . S
O240 C239 1.278 . S
C241 O242 1.245 . S
C241 O253 1.232 . S
O242 C241 1.245 . S
O243 Co237 2.058 . S
O243 C269 1.269 . S
O244 Co236 2.074 . S
O244 C269 1.257 . S
H245 C270 0.930 . S
H246 C276 0.930 . S
O247 Co236 2.093 . S
O247 C239 1.224 . S
H248 C280 0.929 . S
H249 C282 0.930 . S
H250 C283 0.930 . S
H251 C281 0.929 . S
H252 C284 0.928 . S
O253 Co237 2.057 . S
O253 C241 1.232 . S
H254 C273 0.929 . S
H255 C274 0.929 . S
H256 C286 0.931 . S
H257 C278 0.929 . S
H258 C287 0.930 . S
H259 C279 0.931 . S
O260 Co236 2.097 . S
O260 C288 1.214 . S
H261 C289 0.929 . S
H262 C290 0.929 . S
H263 C291 0.930 . S
H264 C292 0.929 . S
H265 C294 0.930 . S
H266 C271 0.930 . S
H267 C275 0.930 . S
O268 Co237 2.037 . S
O268 C288 1.234 . S
C269 O243 1.269 . S
C269 O244 1.257 . S
C270 H245 0.930 . S
C270 C273 1.388 . S
C270 C275 1.418 . S
C271 H266 0.930 . S
C271 C274 1.404 . S
C271 C275 1.353 . S
N272 Co237 2.145 . S
N272 C273 1.397 . S
N272 C274 1.334 . S
C273 H254 0.929 . S
C273 C270 1.388 . S
C273 N272 1.397 . S
C274 H255 0.929 . S
C274 C271 1.404 . S
C274 N272 1.334 . S
C275 H267 0.930 . S
C275 C270 1.418 . S
C275 C271 1.353 . S
C276 H246 0.930 . S
C276 N277 1.330 . S
C276 C278 1.446 1_655 S
N277 Co236 2.151 . S
N277 C276 1.330 . S
N277 C281 1.418 . S
C278 H257 0.929 . S
C278 C276 1.446 1_455 S
C278 C279 1.332 . S
C279 H259 0.931 . S
C279 C278 1.332 . S
C279 C280 1.267 . S
C280 H248 0.929 . S
C280 C279 1.267 . S
C280 C281 1.251 1_455 S
C281 H251 0.929 . S
C281 N277 1.418 . S
C281 C280 1.251 1_655 S
C282 H249 0.930 . S
C282 C284 1.406 . S
C282 C287 1.261 . S
C283 H250 0.930 . S
C283 N285 1.325 . S
C283 C286 1.357 . S
C284 H252 0.928 . S
C284 C282 1.406 . S
C284 N285 1.261 . S
N285 Co236 2.214 . S
N285 C283 1.325 . S
N285 C284 1.261 . S
C286 H256 0.931 . S
C286 C283 1.357 . S
C286 C287 1.312 . S
C287 H258 0.930 . S
C287 C282 1.261 . S
C287 C286 1.312 . S
C288 O260 1.214 . S
C288 O268 1.234 . S
C289 H261 0.929 . S
C289 C292 1.391 . S
C289 C294 1.391 . S
C290 H262 0.929 . S
C290 C291 1.390 . S
C290 N293 1.391 . S
C291 H263 0.930 . S
C291 C290 1.390 . S
C291 C292 1.392 . S
C292 H264 0.929 . S
C292 C289 1.391 . S
C292 C291 1.392 . S
N293 Co237 2.257 . S
N293 C290 1.391 . S
N293 C294 1.388 . S
C294 H265 0.930 . S
C294 C289 1.391 . S
C294 N293 1.388 . S
Co295 O297 2.143 . S
Co295 O303 2.074 . S
Co295 O306 2.093 . S
Co295 O319 2.097 . S
Co295 N336 2.151 . S
Co295 N344 2.214 . S
Co296 O297 2.160 . S
Co296 O302 2.058 . S
Co296 O312 2.057 . S
Co296 O327 2.037 . S
Co296 N331 2.145 . S
Co296 N352 2.257 . S
O297 Co295 2.143 . S
O297 Co296 2.160 . S
C298 O299 1.278 . S
C298 O306 1.224 . S
O299 C298 1.278 . S
C300 O301 1.245 . S
C300 O312 1.232 . S
O301 C300 1.245 . S
O302 Co296 2.058 . S
O302 C328 1.269 . S
O303 Co295 2.074 . S
O303 C328 1.257 . S
H304 C329 0.930 . S
H305 C335 0.930 . S
O306 Co295 2.093 . S
O306 C298 1.224 . S
H307 C339 0.929 . S
H308 C341 0.930 . S
H309 C342 0.930 . S
H310 C340 0.929 . S
H311 C343 0.928 . S
O312 Co296 2.057 . S
O312 C300 1.232 . S
H313 C332 0.929 . S
H314 C333 0.929 . S
H315 C345 0.931 . S
H316 C337 0.929 . S
H317 C346 0.930 . S
H318 C338 0.931 . S
O319 Co295 2.097 . S
O319 C347 1.214 . S
H320 C348 0.929 . S
H321 C349 0.929 . S
H322 C350 0.930 . S
H323 C351 0.929 . S
H324 C353 0.930 . S
H325 C330 0.930 . S
H326 C334 0.930 . S
O327 Co296 2.037 . S
O327 C347 1.234 . S
C328 O302 1.269 . S
C328 O303 1.257 . S
C329 H304 0.930 . S
C329 C332 1.388 . S
C329 C334 1.418 . S
C330 H325 0.930 . S
C330 C333 1.404 . S
C330 C334 1.353 . S
N331 Co296 2.145 . S
N331 C332 1.397 . S
N331 C333 1.334 . S
C332 H313 0.929 . S
C332 C329 1.388 . S
C332 N331 1.397 . S
C333 H314 0.929 . S
C333 C330 1.404 . S
C333 N331 1.334 . S
C334 H326 0.930 . S
C334 C329 1.418 . S
C334 C330 1.353 . S
C335 H305 0.930 . S
C335 N336 1.330 . S
C335 C337 1.446 1_565 S
N336 Co295 2.151 . S
N336 C335 1.330 . S
N336 C340 1.418 . S
C337 H316 0.929 . S
C337 C335 1.446 1_545 S
C337 C338 1.332 . S
C338 H318 0.931 . S
C338 C337 1.332 . S
C338 C339 1.267 . S
C339 H307 0.929 . S
C339 C338 1.267 . S
C339 C340 1.251 1_545 S
C340 H310 0.929 . S
C340 N336 1.418 . S
C340 C339 1.251 1_565 S
C341 H308 0.930 . S
C341 C343 1.406 . S
C341 C346 1.261 . S
C342 H309 0.930 . S
C342 N344 1.325 . S
C342 C345 1.357 . S
C343 H311 0.928 . S
C343 C341 1.406 . S
C343 N344 1.261 . S
N344 Co295 2.214 . S
N344 C342 1.325 . S
N344 C343 1.261 . S
C345 H315 0.931 . S
C345 C342 1.357 . S
C345 C346 1.312 . S
C346 H317 0.930 . S
C346 C341 1.261 . S
C346 C345 1.312 . S
C347 O319 1.214 . S
C347 O327 1.234 . S
C348 H320 0.929 . S
C348 C351 1.391 . S
C348 C353 1.391 . S
C349 H321 0.929 . S
C349 C350 1.390 . S
C349 N352 1.391 . S
C350 H322 0.930 . S
C350 C349 1.390 . S
C350 C351 1.392 . S
C351 H323 0.929 . S
C351 C348 1.391 . S
C351 C350 1.392 . S
N352 Co296 2.257 . S
N352 C349 1.391 . S
N352 C353 1.388 . S
C353 H324 0.930 . S
C353 C348 1.391 . S
C353 N352 1.388 . S
Co354 O356 2.143 . S
Co354 O362 2.074 . S
Co354 O365 2.093 . S
Co354 O378 2.097 . S
Co354 N395 2.151 . S
Co354 N403 2.214 . S
Co355 O356 2.160 . S
Co355 O361 2.058 . S
Co355 O371 2.057 . S
Co355 O386 2.037 . S
Co355 N390 2.145 . S
Co355 N411 2.257 . S
O356 Co354 2.143 . S
O356 Co355 2.160 . S
C357 O358 1.278 . S
C357 O365 1.224 . S
O358 C357 1.278 . S
C359 O360 1.245 . S
C359 O371 1.232 . S
O360 C359 1.245 . S
O361 Co355 2.058 . S
O361 C387 1.269 . S
O362 Co354 2.074 . S
O362 C387 1.257 . S
H363 C388 0.930 . S
H364 C394 0.930 . S
O365 Co354 2.093 . S
O365 C357 1.224 . S
H366 C398 0.929 . S
H367 C400 0.930 . S
H368 C401 0.930 . S
H369 C399 0.929 . S
H370 C402 0.928 . S
O371 Co355 2.057 . S
O371 C359 1.232 . S
H372 C391 0.929 . S
H373 C392 0.929 . S
H374 C404 0.931 . S
H375 C396 0.929 . S
H376 C405 0.930 . S
H377 C397 0.931 . S
O378 Co354 2.097 . S
O378 C406 1.214 . S
H379 C407 0.929 . S
H380 C408 0.929 . S
H381 C409 0.930 . S
H382 C410 0.929 . S
H383 C412 0.930 . S
H384 C389 0.930 . S
H385 C393 0.930 . S
O386 Co355 2.037 . S
O386 C406 1.234 . S
C387 O361 1.269 . S
C387 O362 1.257 . S
C388 H363 0.930 . S
C388 C391 1.388 . S
C388 C393 1.418 . S
C389 H384 0.930 . S
C389 C392 1.404 . S
C389 C393 1.353 . S
N390 Co355 2.145 . S
N390 C391 1.397 . S
N390 C392 1.334 . S
C391 H372 0.929 . S
C391 C388 1.388 . S
C391 N390 1.397 . S
C392 H373 0.929 . S
C392 C389 1.404 . S
C392 N390 1.334 . S
C393 H385 0.930 . S
C393 C388 1.418 . S
C393 C389 1.353 . S
C394 H364 0.930 . S
C394 N395 1.330 . S
C394 C396 1.446 . S
N395 Co354 2.151 . S
N395 C394 1.330 . S
N395 C399 1.418 . S
C396 H375 0.929 . S
C396 C394 1.446 . S
C396 C397 1.332 . S
C397 H377 0.931 . S
C397 C396 1.332 . S
C397 C398 1.267 . S
C398 H366 0.929 . S
C398 C397 1.267 . S
C398 C399 1.251 . S
C399 H369 0.929 . S
C399 N395 1.418 . S
C399 C398 1.251 . S
C400 H367 0.930 . S
C400 C402 1.406 . S
C400 C405 1.261 . S
C401 H368 0.930 . S
C401 N403 1.325 . S
C401 C404 1.357 . S
C402 H370 0.928 . S
C402 C400 1.406 . S
C402 N403 1.261 . S
N403 Co354 2.214 . S
N403 C401 1.325 . S
N403 C402 1.261 . S
C404 H374 0.931 . S
C404 C401 1.357 . S
C404 C405 1.312 . S
C405 H376 0.930 . S
C405 C400 1.261 . S
C405 C404 1.312 . S
C406 O378 1.214 . S
C406 O386 1.234 . S
C407 H379 0.929 . S
C407 C410 1.391 . S
C407 C412 1.391 . S
C408 H380 0.929 . S
C408 C409 1.390 . S
C408 N411 1.391 . S
C409 H381 0.930 . S
C409 C408 1.390 . S
C409 C410 1.392 . S
C410 H382 0.929 . S
C410 C407 1.391 . S
C410 C409 1.392 . S
N411 Co355 2.257 . S
N411 C408 1.391 . S
N411 C412 1.388 . S
C412 H383 0.930 . S
C412 C407 1.391 . S
C412 N411 1.388 . S
Co413 O415 2.143 . S
Co413 O421 2.074 . S
Co413 O424 2.093 . S
Co413 O437 2.097 . S
Co413 N454 2.151 . S
Co413 N462 2.214 1_556 S
Co414 O415 2.160 . S
Co414 O420 2.058 . S
Co414 O430 2.057 . S
Co414 O445 2.037 . S
Co414 N449 2.145 . S
Co414 N470 2.257 . S
O415 Co413 2.143 . S
O415 Co414 2.160 . S
C416 O417 1.278 . S
C416 O424 1.224 . S
O417 C416 1.278 . S
C418 O419 1.245 . S
C418 O430 1.232 . S
O419 C418 1.245 . S
O420 Co414 2.058 . S
O420 C446 1.269 . S
O421 Co413 2.074 . S
O421 C446 1.257 . S
H422 C447 0.930 . S
H423 C453 0.930 . S
O424 Co413 2.093 . S
O424 C416 1.224 . S
H425 C457 0.943 . S
H426 C459 0.930 . S
H427 C460 0.930 . S
H428 C458 0.929 1_554 S
H429 C461 0.928 . S
O430 Co414 2.057 . S
O430 C418 1.232 . S
H431 C450 0.929 . S
H432 C451 0.929 . S
H433 C463 0.931 . S
H434 C455 0.929 . S
H435 C464 0.930 . S
H436 C456 0.931 . S
O437 Co413 2.097 . S
O437 C465 1.214 . S
H438 C466 0.929 . S
H439 C467 0.929 . S
H440 C468 0.930 . S
H441 C469 0.929 . S
H442 C471 0.930 . S
H443 C448 0.930 . S
H444 C452 0.930 . S
O445 Co414 2.037 . S
O445 C465 1.234 . S
C446 O420 1.269 . S
C446 O421 1.257 . S
C447 H422 0.930 . S
C447 C450 1.388 . S
C447 C452 1.418 . S
C448 H443 0.930 . S
C448 C451 1.404 . S
C448 C452 1.353 . S
N449 Co414 2.145 . S
N449 C450 1.397 . S
N449 C451 1.334 . S
C450 H431 0.929 . S
C450 C447 1.388 . S
C450 N449 1.397 . S
C451 H432 0.929 . S
C451 C448 1.404 . S
C451 N449 1.334 . S
C452 H444 0.930 . S
C452 C447 1.418 . S
C452 C448 1.353 . S
C453 H423 0.930 . S
C453 N454 1.330 . S
C453 C455 1.446 1_455 S
N454 Co413 2.151 . S
N454 C453 1.330 . S
N454 C458 1.418 . S
C455 H434 0.929 . S
C455 C453 1.446 1_655 S
C455 C456 1.332 . S
C456 H436 0.931 . S
C456 C455 1.332 . S
C456 C457 1.267 . S
C457 H425 0.943 . S
C457 C456 1.267 . S
C457 C458 1.251 1_655 S
C458 H428 0.929 1_556 S
C458 N454 1.418 . S
C458 C457 1.251 1_455 S
C459 H426 0.930 . S
C459 C461 1.406 . S
C459 C464 1.261 . S
C460 H427 0.930 . S
C460 N462 1.325 . S
C460 C463 1.357 . S
C461 H429 0.928 . S
C461 C459 1.406 . S
C461 N462 1.261 . S
N462 Co413 2.214 1_554 S
N462 C460 1.325 . S
N462 C461 1.261 . S
C463 H433 0.931 . S
C463 C460 1.357 . S
C463 C464 1.312 . S
C464 H435 0.930 . S
C464 C459 1.261 . S
C464 C463 1.312 . S
C465 O437 1.214 . S
C465 O445 1.234 . S
C466 H438 0.929 . S
C466 C469 1.391 . S
C466 C471 1.391 . S
C467 H439 0.929 . S
C467 C468 1.390 . S
C467 N470 1.391 . S
C468 H440 0.930 . S
C468 C467 1.390 . S
C468 C469 1.392 . S
C469 H441 0.929 . S
C469 C466 1.391 . S
C469 C468 1.392 . S
N470 Co414 2.257 . S
N470 C467 1.391 . S
N470 C471 1.388 . S
C471 H442 0.930 . S
C471 C466 1.391 . S
C471 N470 1.388 . S
Co472 O474 2.143 . S
Co472 O480 2.074 . S
Co472 O483 2.093 . S
Co472 O496 2.097 . S
Co472 N513 2.151 . S
Co472 N521 2.214 . S
Co473 O474 2.160 . S
Co473 O479 2.058 . S
Co473 O489 2.057 . S
Co473 O504 2.037 . S
Co473 N508 2.145 . S
Co473 N529 2.257 . S
O474 Co472 2.143 . S
O474 Co473 2.160 . S
C475 O476 1.278 . S
C475 O483 1.224 . S
O476 C475 1.278 . S
C477 O478 1.245 . S
C477 O489 1.232 . S
O478 C477 1.245 . S
O479 Co473 2.058 . S
O479 C505 1.269 . S
O480 Co472 2.074 . S
O480 C505 1.257 . S
H481 C506 0.930 . S
H482 C512 0.930 . S
O483 Co472 2.093 . S
O483 C475 1.224 . S
H484 C516 0.929 . S
H485 C518 0.930 . S
H486 C519 0.930 . S
H487 C517 0.929 . S
H488 C520 0.928 . S
O489 Co473 2.057 . S
O489 C477 1.232 . S
H490 C509 0.929 . S
H491 C510 0.929 . S
H492 C522 0.931 . S
H493 C514 0.929 . S
H494 C523 0.930 . S
H495 C515 0.931 . S
O496 Co472 2.097 . S
O496 C524 1.214 . S
H497 C525 0.929 . S
H498 C526 0.929 . S
H499 C527 0.930 . S
H500 C528 0.929 . S
H501 C530 0.930 . S
H502 C507 0.930 . S
H503 C511 0.930 . S
O504 Co473 2.037 . S
O504 C524 1.234 . S
C505 O479 1.269 . S
C505 O480 1.257 . S
C506 H481 0.930 . S
C506 C509 1.388 . S
C506 C511 1.418 . S
C507 H502 0.930 . S
C507 C510 1.404 . S
C507 C511 1.353 . S
N508 Co473 2.145 . S
N508 C509 1.397 . S
N508 C510 1.334 . S
C509 H490 0.929 . S
C509 C506 1.388 . S
C509 N508 1.397 . S
C510 H491 0.929 . S
C510 C507 1.404 . S
C510 N508 1.334 . S
C511 H503 0.930 . S
C511 C506 1.418 . S
C511 C507 1.353 . S
C512 H482 0.930 . S
C512 N513 1.330 . S
C512 C514 1.446 1_545 S
N513 Co472 2.151 . S
N513 C512 1.330 . S
N513 C517 1.418 . S
C514 H493 0.929 . S
C514 C512 1.446 1_565 S
C514 C515 1.332 . S
C515 H495 0.931 . S
C515 C514 1.332 . S
C515 C516 1.267 . S
C516 H484 0.929 . S
C516 C515 1.267 . S
C516 C517 1.251 1_565 S
C517 H487 0.929 . S
C517 N513 1.418 . S
C517 C516 1.251 1_545 S
C518 H485 0.930 . S
C518 C520 1.406 . S
C518 C523 1.261 . S
C519 H486 0.930 . S
C519 N521 1.325 . S
C519 C522 1.357 . S
C520 H488 0.928 . S
C520 C518 1.406 . S
C520 N521 1.261 . S
N521 Co472 2.214 . S
N521 C519 1.325 . S
N521 C520 1.261 . S
C522 H492 0.931 . S
C522 C519 1.357 . S
C522 C523 1.312 . S
C523 H494 0.930 . S
C523 C518 1.261 . S
C523 C522 1.312 . S
C524 O496 1.214 . S
C524 O504 1.234 . S
C525 H497 0.929 . S
C525 C528 1.391 . S
C525 C530 1.391 . S
C526 H498 0.929 . S
C526 C527 1.390 . S
C526 N529 1.391 . S
C527 H499 0.930 . S
C527 C526 1.390 . S
C527 C528 1.392 . S
C528 H500 0.929 . S
C528 C525 1.391 . S
C528 C527 1.392 . S
N529 Co473 2.257 . S
N529 C526 1.391 . S
N529 C530 1.388 . S
C530 H501 0.930 . S
C530 C525 1.391 . S
C530 N529 1.388 . S
Co531 O533 2.143 . S
Co531 O539 2.074 . S
Co531 O542 2.093 . S
Co531 O555 2.097 . S
Co531 N572 2.151 . S
Co531 N580 2.214 . S
Co532 O533 2.160 . S
Co532 O538 2.058 . S
Co532 O548 2.057 . S
Co532 O563 2.037 . S
Co532 N567 2.145 . S
Co532 N588 2.257 . S
O533 Co531 2.143 . S
O533 Co532 2.160 . S
C534 O535 1.278 . S
C534 O542 1.224 . S
O535 C534 1.278 . S
C536 O537 1.245 . S
C536 O548 1.232 . S
O537 C536 1.245 . S
O538 Co532 2.058 . S
O538 C564 1.269 . S
O539 Co531 2.074 . S
O539 C564 1.257 . S
H540 C565 0.930 . S
H541 C571 0.930 . S
O542 Co531 2.093 . S
O542 C534 1.224 . S
H543 C575 0.929 . S
H544 C577 0.930 . S
H545 C578 0.930 . S
H546 C576 0.929 . S
H547 C579 0.928 . S
O548 Co532 2.057 . S
O548 C536 1.232 . S
H549 C568 0.929 . S
H550 C569 0.929 . S
H551 C581 0.931 . S
H552 C573 0.929 . S
H553 C582 0.930 . S
H554 C574 0.931 . S
O555 Co531 2.097 . S
O555 C583 1.214 . S
H556 C584 0.929 . S
H557 C585 0.929 . S
H558 C586 0.930 . S
H559 C587 0.929 . S
H560 C589 0.930 . S
H561 C566 0.930 . S
H562 C570 0.930 . S
O563 Co532 2.037 . S
O563 C583 1.234 . S
C564 O538 1.269 . S
C564 O539 1.257 . S
C565 H540 0.930 . S
C565 C568 1.388 . S
C565 C570 1.418 . S
C566 H561 0.930 . S
C566 C569 1.404 . S
C566 C570 1.353 . S
N567 Co532 2.145 . S
N567 C568 1.397 . S
N567 C569 1.334 . S
C568 H549 0.929 . S
C568 C565 1.388 . S
C568 N567 1.397 . S
C569 H550 0.929 . S
C569 C566 1.404 . S
C569 N567 1.334 . S
C570 H562 0.930 . S
C570 C565 1.418 . S
C570 C566 1.353 . S
C571 H541 0.930 . S
C571 N572 1.330 . S
C571 C573 1.446 . S
N572 Co531 2.151 . S
N572 C571 1.330 . S
N572 C576 1.418 . S
C573 H552 0.929 . S
C573 C571 1.446 . S
C573 C574 1.332 . S
C574 H554 0.931 . S
C574 C573 1.332 . S
C574 C575 1.267 . S
C575 H543 0.929 . S
C575 C574 1.267 . S
C575 C576 1.251 . S
C576 H546 0.929 . S
C576 N572 1.418 . S
C576 C575 1.251 . S
C577 H544 0.930 . S
C577 C579 1.406 . S
C577 C582 1.261 . S
C578 H545 0.930 . S
C578 N580 1.325 . S
C578 C581 1.357 . S
C579 H547 0.928 . S
C579 C577 1.406 . S
C579 N580 1.261 . S
N580 Co531 2.214 . S
N580 C578 1.325 . S
N580 C579 1.261 . S
C581 H551 0.931 . S
C581 C578 1.357 . S
C581 C582 1.312 . S
C582 H553 0.930 . S
C582 C577 1.261 . S
C582 C581 1.312 . S
C583 O555 1.214 . S
C583 O563 1.234 . S
C584 H556 0.929 . S
C584 C587 1.391 . S
C584 C589 1.391 . S
C585 H557 0.929 . S
C585 C586 1.390 . S
C585 N588 1.391 . S
C586 H558 0.930 . S
C586 C585 1.390 . S
C586 C587 1.392 . S
C587 H559 0.929 . S
C587 C584 1.391 . S
C587 C586 1.392 . S
N588 Co532 2.257 . S
N588 C585 1.391 . S
N588 C589 1.388 . S
C589 H560 0.930 . S
C589 C584 1.391 . S
C589 N588 1.388 . S
Co590 O592 2.143 . S
Co590 O598 2.074 . S
Co590 O601 2.093 . S
Co590 O614 2.097 . S
Co590 N631 2.151 . S
Co590 N639 2.214 1_556 S
Co591 O592 2.160 . S
Co591 O597 2.058 . S
Co591 O607 2.057 . S
Co591 O622 2.037 . S
Co591 N626 2.145 . S
Co591 N647 2.257 . S
O592 Co590 2.143 . S
O592 Co591 2.160 . S
C593 O594 1.278 . S
C593 O601 1.224 . S
O594 C593 1.278 . S
C595 O596 1.245 . S
C595 O607 1.232 . S
O596 C595 1.245 . S
O597 Co591 2.058 . S
O597 C623 1.269 . S
O598 Co590 2.074 . S
O598 C623 1.257 . S
H599 C624 0.930 . S
H600 C630 0.930 . S
O601 Co590 2.093 . S
O601 C593 1.224 . S
H602 C634 0.943 . S
H603 C636 0.930 . S
H604 C637 0.930 . S
H605 C635 0.929 1_554 S
H606 C638 0.928 . S
O607 Co591 2.057 . S
O607 C595 1.232 . S
H608 C627 0.929 . S
H609 C628 0.929 . S
H610 C640 0.931 . S
H611 C632 0.929 . S
H612 C641 0.930 . S
H613 C633 0.931 . S
O614 Co590 2.097 . S
O614 C642 1.214 . S
H615 C643 0.929 . S
H616 C644 0.929 . S
H617 C645 0.930 . S
H618 C646 0.929 . S
H619 C648 0.930 . S
H620 C625 0.930 . S
H621 C629 0.930 . S
O622 Co591 2.037 . S
O622 C642 1.234 . S
C623 O597 1.269 . S
C623 O598 1.257 . S
C624 H599 0.930 . S
C624 C627 1.388 . S
C624 C629 1.418 . S
C625 H620 0.930 . S
C625 C628 1.404 . S
C625 C629 1.353 . S
N626 Co591 2.145 . S
N626 C627 1.397 . S
N626 C628 1.334 . S
C627 H608 0.929 . S
C627 C624 1.388 . S
C627 N626 1.397 . S
C628 H609 0.929 . S
C628 C625 1.404 . S
C628 N626 1.334 . S
C629 H621 0.930 . S
C629 C624 1.418 . S
C629 C625 1.353 . S
C630 H600 0.930 . S
C630 N631 1.330 . S
C630 C632 1.446 1_655 S
N631 Co590 2.151 . S
N631 C630 1.330 . S
N631 C635 1.418 . S
C632 H611 0.929 . S
C632 C630 1.446 1_455 S
C632 C633 1.332 . S
C633 H613 0.931 . S
C633 C632 1.332 . S
C633 C634 1.267 . S
C634 H602 0.943 . S
C634 C633 1.267 . S
C634 C635 1.251 1_455 S
C635 H605 0.929 1_556 S
C635 N631 1.418 . S
C635 C634 1.251 1_655 S
C636 H603 0.930 . S
C636 C638 1.406 . S
C636 C641 1.261 . S
C637 H604 0.930 . S
C637 N639 1.325 . S
C637 C640 1.357 . S
C638 H606 0.928 . S
C638 C636 1.406 . S
C638 N639 1.261 . S
N639 Co590 2.214 1_554 S
N639 C637 1.325 . S
N639 C638 1.261 . S
C640 H610 0.931 . S
C640 C637 1.357 . S
C640 C641 1.312 . S
C641 H612 0.930 . S
C641 C636 1.261 . S
C641 C640 1.312 . S
C642 O614 1.214 . S
C642 O622 1.234 . S
C643 H615 0.929 . S
C643 C646 1.391 . S
C643 C648 1.391 . S
C644 H616 0.929 . S
C644 C645 1.390 . S
C644 N647 1.391 . S
C645 H617 0.930 . S
C645 C644 1.390 . S
C645 C646 1.392 . S
C646 H618 0.929 . S
C646 C643 1.391 . S
C646 C645 1.392 . S
N647 Co591 2.257 . S
N647 C644 1.391 . S
N647 C648 1.388 . S
C648 H619 0.930 . S
C648 C643 1.391 . S
C648 N647 1.388 . S
Co649 O651 2.143 . S
Co649 O657 2.074 . S
Co649 O660 2.093 . S
Co649 O673 2.097 . S
Co649 N690 2.151 . S
Co649 N698 2.214 . S
Co650 O651 2.160 . S
Co650 O656 2.058 . S
Co650 O666 2.057 . S
Co650 O681 2.037 . S
Co650 N685 2.145 . S
Co650 N706 2.257 . S
O651 Co649 2.143 . S
O651 Co650 2.160 . S
C652 O653 1.278 . S
C652 O660 1.224 . S
O653 C652 1.278 . S
C654 O655 1.245 . S
C654 O666 1.232 . S
O655 C654 1.245 . S
O656 Co650 2.058 . S
O656 C682 1.269 . S
O657 Co649 2.074 . S
O657 C682 1.257 . S
H658 C683 0.930 . S
H659 C689 0.930 . S
O660 Co649 2.093 . S
O660 C652 1.224 . S
H661 C693 0.929 . S
H662 C695 0.930 . S
H663 C696 0.930 . S
H664 C694 0.929 . S
H665 C697 0.928 . S
O666 Co650 2.057 . S
O666 C654 1.232 . S
H667 C686 0.929 . S
H668 C687 0.929 . S
H669 C699 0.931 . S
H670 C691 0.929 . S
H671 C700 0.930 . S
H672 C692 0.931 . S
O673 Co649 2.097 . S
O673 C701 1.214 . S
H674 C702 0.929 . S
H675 C703 0.929 . S
H676 C704 0.930 . S
H677 C705 0.929 . S
H678 C707 0.930 . S
H679 C684 0.930 . S
H680 C688 0.930 . S
O681 Co650 2.037 . S
O681 C701 1.234 . S
C682 O656 1.269 . S
C682 O657 1.257 . S
C683 H658 0.930 . S
C683 C686 1.388 . S
C683 C688 1.418 . S
C684 H679 0.930 . S
C684 C687 1.404 . S
C684 C688 1.353 . S
N685 Co650 2.145 . S
N685 C686 1.397 . S
N685 C687 1.334 . S
C686 H667 0.929 . S
C686 C683 1.388 . S
C686 N685 1.397 . S
C687 H668 0.929 . S
C687 C684 1.404 . S
C687 N685 1.334 . S
C688 H680 0.930 . S
C688 C683 1.418 . S
C688 C684 1.353 . S
C689 H659 0.930 . S
C689 N690 1.330 . S
C689 C691 1.446 1_565 S
N690 Co649 2.151 . S
N690 C689 1.330 . S
N690 C694 1.418 . S
C691 H670 0.929 . S
C691 C689 1.446 1_545 S
C691 C692 1.332 . S
C692 H672 0.931 . S
C692 C691 1.332 . S
C692 C693 1.267 . S
C693 H661 0.929 . S
C693 C692 1.267 . S
C693 C694 1.251 1_545 S
C694 H664 0.929 . S
C694 N690 1.418 . S
C694 C693 1.251 1_565 S
C695 H662 0.930 . S
C695 C697 1.406 . S
C695 C700 1.261 . S
C696 H663 0.930 . S
C696 N698 1.325 . S
C696 C699 1.357 . S
C697 H665 0.928 . S
C697 C695 1.406 . S
C697 N698 1.261 . S
N698 Co649 2.214 . S
N698 C696 1.325 . S
N698 C697 1.261 . S
C699 H669 0.931 . S
C699 C696 1.357 . S
C699 C700 1.312 . S
C700 H671 0.930 . S
C700 C695 1.261 . S
C700 C699 1.312 . S
C701 O673 1.214 . S
C701 O681 1.234 . S
C702 H674 0.929 . S
C702 C705 1.391 . S
C702 C707 1.391 . S
C703 H675 0.929 . S
C703 C704 1.390 . S
C703 N706 1.391 . S
C704 H676 0.930 . S
C704 C703 1.390 . S
C704 C705 1.392 . S
C705 H677 0.929 . S
C705 C702 1.391 . S
C705 C704 1.392 . S
N706 Co650 2.257 . S
N706 C703 1.391 . S
N706 C707 1.388 . S
C707 H678 0.930 . S
C707 C702 1.391 . S
C707 N706 1.388 . S
C708 C709 1.387 . S
C708 H712 0.950 . S
C708 C717 1.390 1_566 S
C709 C708 1.387 . S
C709 C711 1.387 . S
H710 C717 0.950 . S
C711 C709 1.387 . S
C711 C713 1.390 1_566 S
C711 H715 0.950 . S
H712 C708 0.950 . S
C713 C711 1.390 1_544 S
C713 C714 1.387 . S
C713 H716 0.950 . S
C714 C713 1.387 . S
C714 C717 1.387 . S
H715 C711 0.950 . S
H716 C713 0.950 . S
C717 C708 1.390 1_544 S
C717 H710 0.950 . S
C717 C714 1.387 . S
C718 C719 1.387 . S
C718 H722 0.950 . S
C718 C727 1.390 . S
C719 C718 1.387 . S
C719 C721 1.387 . S
H720 C727 0.950 . S
C721 C719 1.387 . S
C721 C723 1.390 . S
C721 H725 0.950 . S
H722 C718 0.950 . S
C723 C721 1.390 . S
C723 C724 1.387 . S
C723 H726 0.950 . S
C724 C723 1.387 . S
C724 C727 1.387 . S
H725 C721 0.950 . S
H726 C723 0.950 . S
C727 C718 1.390 . S
C727 H720 0.950 . S
C727 C724 1.387 . S
C728 C729 1.387 . S
C728 H732 0.950 . S
C728 C737 1.390 1_655 S
C729 C728 1.387 . S
C729 C731 1.387 . S
H730 C737 0.950 . S
C731 C729 1.387 . S
C731 C733 1.390 1_655 S
C731 H735 0.950 . S
H732 C728 0.950 . S
C733 C731 1.390 1_455 S
C733 C734 1.387 . S
C733 H736 0.950 . S
C734 C733 1.387 . S
C734 C737 1.387 . S
H735 C731 0.950 . S
H736 C733 0.950 . S
C737 C728 1.390 1_455 S
C737 H730 0.950 . S
C737 C734 1.387 . S
C738 C739 1.387 . S
C738 H742 0.950 . S
C738 C747 1.390 1_564 S
C739 C738 1.387 . S
C739 C741 1.387 . S
H740 C747 0.950 . S
C741 C739 1.387 . S
C741 C743 1.390 1_564 S
C741 H745 0.950 . S
H742 C738 0.950 . S
C743 C741 1.390 1_546 S
C743 C744 1.387 . S
C743 H746 0.950 . S
C744 C743 1.387 . S
C744 C747 1.387 . S
H745 C741 0.950 . S
H746 C743 0.950 . S
C747 C738 1.390 1_546 S
C747 H740 0.950 . S
C747 C744 1.387 . S
C748 C749 1.387 . S
C748 H752 0.950 . S
C748 C757 1.390 . S
C749 C748 1.387 . S
C749 C751 1.387 . S
H750 C757 0.950 . S
C751 C749 1.387 . S
C751 C753 1.390 . S
C751 H755 0.950 . S
H752 C748 0.950 . S
C753 C751 1.390 . S
C753 C754 1.387 . S
C753 H756 0.950 . S
C754 C753 1.387 . S
C754 C757 1.387 . S
H755 C751 0.950 . S
H756 C753 0.950 . S
C757 C748 1.390 . S
C757 H750 0.950 . S
C757 C754 1.387 . S
C758 C759 1.387 . S
C758 H762 0.950 . S
C758 C767 1.390 1_655 S
C759 C758 1.387 . S
C759 C761 1.387 . S
H760 C767 0.950 . S
C761 C759 1.387 . S
C761 C763 1.390 1_655 S
C761 H765 0.950 . S
H762 C758 0.950 . S
C763 C761 1.390 1_455 S
C763 C764 1.387 . S
C763 H766 0.950 . S
C764 C763 1.387 . S
C764 C767 1.387 . S
H765 C761 0.950 . S
H766 C763 0.950 . S
C767 C758 1.390 1_455 S
C767 H760 0.950 . S
C767 C764 1.387 . S
C768 C769 1.387 . S
C768 H772 0.950 . S
C768 C777 1.390 1_556 S
C769 C768 1.387 . S
C769 C771 1.387 . S
H770 C777 0.950 . S
C771 C769 1.387 . S
C771 C773 1.390 1_556 S
C771 H775 0.950 . S
H772 C768 0.950 . S
C773 C771 1.390 1_554 S
C773 C774 1.387 . S
C773 H776 0.950 . S
C774 C773 1.387 . S
C774 C777 1.387 . S
H775 C771 0.950 . S
H776 C773 0.950 . S
C777 C768 1.390 1_554 S
C777 H770 0.950 . S
C777 C774 1.387 . S
C778 C779 1.387 . S
C778 H782 0.950 . S
C778 C787 1.390 . S
C779 C778 1.387 . S
C779 C781 1.387 . S
H780 C787 0.950 . S
C781 C779 1.387 . S
C781 C783 1.390 . S
C781 H785 0.950 . S
H782 C778 0.950 . S
C783 C781 1.390 . S
C783 C784 1.387 . S
C783 H786 0.950 . S
C784 C783 1.387 . S
C784 C787 1.387 . S
H785 C781 0.950 . S
H786 C783 0.950 . S
C787 C778 1.390 . S
C787 H780 0.950 . S
C787 C784 1.387 . S
C788 C789 1.387 . S
C788 H792 0.950 . S
C788 C797 1.390 . S
C789 C788 1.387 . S
C789 C791 1.387 . S
H790 C797 0.950 . S
C791 C789 1.387 . S
C791 C793 1.390 . S
C791 H795 0.950 . S
H792 C788 0.950 . S
C793 C791 1.390 . S
C793 C794 1.387 . S
C793 H796 0.950 . S
C794 C793 1.387 . S
C794 C797 1.387 . S
H795 C791 0.950 . S
H796 C793 0.950 . S
C797 C788 1.390 . S
C797 H790 0.950 . S
C797 C794 1.387 . S
C798 C799 1.387 . S
C798 H802 0.950 . S
C798 C807 1.390 1_556 S
C799 C798 1.387 . S
C799 C801 1.387 . S
H800 C807 0.950 . S
C801 C799 1.387 . S
C801 C803 1.390 1_556 S
C801 H805 0.950 . S
H802 C798 0.950 . S
C803 C801 1.390 1_554 S
C803 C804 1.387 . S
C803 H806 0.950 . S
C804 C803 1.387 . S
C804 C807 1.387 . S
H805 C801 0.950 . S
H806 C803 0.950 . S
C807 C798 1.390 1_554 S
C807 H800 0.950 . S
C807 C804 1.387 . S
C808 C809 1.387 . S
C808 H812 0.950 . S
C808 C817 1.390 . S
C809 C808 1.387 . S
C809 C811 1.387 . S
H810 C817 0.950 . S
C811 C809 1.387 . S
C811 C813 1.390 . S
C811 H815 0.950 . S
H812 C808 0.950 . S
C813 C811 1.390 . S
C813 C814 1.387 . S
C813 H816 0.950 . S
C814 C813 1.387 . S
C814 C817 1.387 . S
H815 C811 0.950 . S
H816 C813 0.950 . S
C817 C808 1.390 . S
C817 H810 0.950 . S
C817 C814 1.387 . S
C818 C819 1.387 . S
C818 H822 0.950 . S
C818 C827 1.390 . S
C819 C818 1.387 . S
C819 C821 1.387 . S
H820 C827 0.950 . S
C821 C819 1.387 . S
C821 C823 1.390 . S
C821 H825 0.950 . S
H822 C818 0.950 . S
C823 C821 1.390 . S
C823 C824 1.387 . S
C823 H826 0.950 . S
C824 C823 1.387 . S
C824 C827 1.387 . S
H825 C821 0.950 . S
H826 C823 0.950 . S
C827 C818 1.390 . S
C827 H820 0.950 . S
C827 C824 1.387 . S
C828 C829 1.387 . S
C828 H832 0.950 . S
C828 C837 1.390 . S
C829 C828 1.387 . S
C829 C831 1.387 . S
H830 C837 0.950 . S
C831 C829 1.387 . S
C831 C833 1.390 . S
C831 H835 0.950 . S
H832 C828 0.950 . S
C833 C831 1.390 . S
C833 C834 1.387 . S
C833 H836 0.950 . S
C834 C833 1.387 . S
C834 C837 1.387 . S
H835 C831 0.950 . S
H836 C833 0.950 . S
C837 C828 1.390 . S
C837 H830 0.950 . S
C837 C834 1.387 . S
C838 C839 1.387 . S
C838 H842 0.950 . S
C838 C847 1.390 . S
C839 C838 1.387 . S
C839 C841 1.387 . S
H840 C847 0.950 . S
C841 C839 1.387 . S
C841 C843 1.390 . S
C841 H845 0.950 . S
H842 C838 0.950 . S
C843 C841 1.390 . S
C843 C844 1.387 . S
C843 H846 0.950 . S
C844 C843 1.387 . S
C844 C847 1.387 . S
H845 C841 0.950 . S
H846 C843 0.950 . S
C847 C838 1.390 . S
C847 H840 0.950 . S
C847 C844 1.387 . S
C848 C849 1.387 . S
C848 H852 0.950 . S
C848 C857 1.390 . S
C849 C848 1.387 . S
C849 C851 1.387 . S
H850 C857 0.950 . S
C851 C849 1.387 . S
C851 C853 1.390 . S
C851 H855 0.950 . S
H852 C848 0.950 . S
C853 C851 1.390 . S
C853 C854 1.387 . S
C853 H856 0.950 . S
C854 C853 1.387 . S
C854 C857 1.387 . S
H855 C851 0.950 . S
H856 C853 0.950 . S
C857 C848 1.390 . S
C857 H850 0.950 . S
C857 C854 1.387 . S
C858 C859 1.387 . S
C858 H862 0.950 . S
C858 C867 1.390 . S
C859 C858 1.387 . S
C859 C861 1.387 . S
H860 C867 0.950 . S
C861 C859 1.387 . S
C861 C863 1.390 . S
C861 H865 0.950 . S
H862 C858 0.950 . S
C863 C861 1.390 . S
C863 C864 1.387 . S
C863 H866 0.950 . S
C864 C863 1.387 . S
C864 C867 1.387 . S
H865 C861 0.950 . S
H866 C863 0.950 . S
C867 C858 1.390 . S
C867 H860 0.950 . S
C867 C864 1.387 . S
C868 C869 1.387 . S
C868 H872 0.950 . S
C868 C877 1.390 . S
C869 C868 1.387 . S
C869 C871 1.387 . S
H870 C877 0.950 . S
C871 C869 1.387 . S
C871 C873 1.390 . S
C871 H875 0.950 . S
H872 C868 0.950 . S
C873 C871 1.390 . S
C873 C874 1.387 . S
C873 H876 0.950 . S
C874 C873 1.387 . S
C874 C877 1.387 . S
H875 C871 0.950 . S
H876 C873 0.950 . S
C877 C868 1.390 . S
C877 H870 0.950 . S
C877 C874 1.387 . S
C878 C879 1.387 . S
C878 H882 0.950 . S
C878 C887 1.390 . S
C879 C878 1.387 . S
C879 C881 1.387 . S
H880 C887 0.950 . S
C881 C879 1.387 . S
C881 C883 1.390 . S
C881 H885 0.950 . S
H882 C878 0.950 . S
C883 C881 1.390 . S
C883 C884 1.387 . S
C883 H886 0.950 . S
C884 C883 1.387 . S
C884 C887 1.387 . S
H885 C881 0.950 . S
H886 C883 0.950 . S
C887 C878 1.390 . S
C887 H880 0.950 . S
C887 C884 1.387 . S
C888 C889 1.387 . S
C888 H892 0.950 . S
C888 C897 1.390 . S
C889 C888 1.387 . S
C889 C891 1.387 . S
H890 C897 0.950 . S
C891 C889 1.387 . S
C891 C893 1.390 . S
C891 H895 0.950 . S
H892 C888 0.950 . S
C893 C891 1.390 . S
C893 C894 1.387 . S
C893 H896 0.950 . S
C894 C893 1.387 . S
C894 C897 1.387 . S
H895 C891 0.950 . S
H896 C893 0.950 . S
C897 C888 1.390 . S
C897 H890 0.950 . S
C897 C894 1.387 . S
C898 C899 1.387 . S
C898 H902 0.950 . S
C898 C907 1.390 1_655 S
C899 C898 1.387 . S
C899 C901 1.387 . S
H900 C907 0.950 . S
C901 C899 1.387 . S
C901 C903 1.390 1_655 S
C901 H905 0.950 . S
H902 C898 0.950 . S
C903 C901 1.390 1_455 S
C903 C904 1.387 . S
C903 H906 0.950 . S
C904 C903 1.387 . S
C904 C907 1.387 . S
H905 C901 0.950 . S
H906 C903 0.950 . S
C907 C898 1.390 1_455 S
C907 H900 0.950 . S
C907 C904 1.387 . S
C908 C909 1.387 . S
C908 H912 0.950 . S
C908 C917 1.390 1_545 S
C909 C908 1.387 . S
C909 C911 1.387 . S
H910 C917 0.950 . S
C911 C909 1.387 . S
C911 C913 1.390 1_545 S
C911 H915 0.950 . S
H912 C908 0.950 . S
C913 C911 1.390 1_565 S
C913 C914 1.387 . S
C913 H916 0.950 . S
C914 C913 1.387 . S
C914 C917 1.387 . S
H915 C911 0.950 . S
H916 C913 0.950 . S
C917 C908 1.390 1_565 S
C917 H910 0.950 . S
C917 C914 1.387 . S
C918 C919 1.387 . S
C918 H922 0.950 . S
C918 C927 1.390 . S
C919 C918 1.387 . S
C919 C921 1.387 . S
H920 C927 0.950 . S
C921 C919 1.387 . S
C921 C923 1.390 . S
C921 H925 0.950 . S
H922 C918 0.950 . S
C923 C921 1.390 . S
C923 C924 1.387 . S
C923 H926 0.950 . S
C924 C923 1.387 . S
C924 C927 1.387 . S
H925 C921 0.950 . S
H926 C923 0.950 . S
C927 C918 1.390 . S
C927 H920 0.950 . S
C927 C924 1.387 . S
C928 C929 1.387 . S
C928 H932 0.950 . S
C928 C937 1.390 1_455 S
C929 C928 1.387 . S
C929 C931 1.387 . S
H930 C937 0.950 . S
C931 C929 1.387 . S
C931 C933 1.390 1_455 S
C931 H935 0.950 . S
H932 C928 0.950 . S
C933 C931 1.390 1_655 S
C933 C934 1.387 . S
C933 H936 0.950 . S
C934 C933 1.387 . S
C934 C937 1.387 . S
H935 C931 0.950 . S
H936 C933 0.950 . S
C937 C928 1.390 1_655 S
C937 H930 0.950 . S
C937 C934 1.387 . S
C938 C939 1.387 . S
C938 H942 0.950 . S
C938 C947 1.390 1_565 S
C939 C938 1.387 . S
C939 C941 1.387 . S
H940 C947 0.950 . S
C941 C939 1.387 . S
C941 C943 1.390 1_565 S
C941 H945 0.950 . S
H942 C938 0.950 . S
C943 C941 1.390 1_545 S
C943 C944 1.387 . S
C943 H946 0.950 . S
C944 C943 1.387 . S
C944 C947 1.387 . S
H945 C941 0.950 . S
H946 C943 0.950 . S
C947 C938 1.390 1_545 S
C947 H940 0.950 . S
C947 C944 1.387 . S
C709 C446 1.560 . S
C714 C33 1.560 . S
C719 C92 1.561 . S
C724 C505 1.559 . S
C729 C151 1.559 . S
C734 C564 1.560 . S
C739 C210 1.560 . S
C744 C623 1.560 . S
C749 C682 1.559 . S
C754 C269 1.560 . S
C759 C387 1.560 . S
C764 C328 1.559 . S
C769 C642 1.764 . S
C774 C52 1.764 . S
C779 C111 1.765 . S
C784 C701 1.765 . S
C789 C170 1.765 . S
C794 C406 1.765 . S
C799 C465 1.764 . S
C804 C229 1.764 . S
C809 C524 1.765 . S
C814 C288 1.765 . S
C819 C583 1.765 . S
C824 C347 1.765 . S
C829 C5 1.718 . S
C834 C477 1.719 . S
C839 C64 1.718 . S
C844 C536 1.718 . S
C849 C595 1.718 . S
C854 C123 1.719 . S
C859 C182 1.718 . S
C864 C654 1.719 . S
C869 C359 1.719 . S
C874 C241 1.719 . S
C879 C418 1.718 . S
C884 C300 1.719 . S
C889 C180 1.338 . S
C894 C3 1.338 . S
C899 C239 1.341 . S
C904 C62 1.341 . S
C909 C121 1.341 . S
C914 C298 1.341 . S
C919 C357 1.338 . S
C924 C534 1.338 . S
C929 C416 1.341 . S
C934 C593 1.341 . S
C939 C652 1.338 . S
C944 C475 1.338 . S
