# Generated by pormake.
# Topology uox, (4)-cn, num edge types: 1
# Building blocks:
#     Node 0, Type 0, BuildingBlock: AZAVOO_clean_sbu_0, # of connection points: 4
#     Node 1, Type 0, BuildingBlock: AZAVOO_clean_sbu_0, # of connection points: 4
#     Node 2, Type 0, BuildingBlock: AZAVOO_clean_sbu_0, # of connection points: 4
#     Node 3, Type 0, BuildingBlock: AZAVOO_clean_sbu_0, # of connection points: 4
#     Node 4, Type 0, BuildingBlock: AZAVOO_clean_sbu_0, # of connection points: 4
#     Node 5, Type 0, BuildingBlock: AZAVOO_clean_sbu_0, # of connection points: 4
#     Node 6, Type 0, BuildingBlock: AZAVOO_clean_sbu_0, # of connection points: 4
#     Node 7, Type 0, BuildingBlock: AZAVOO_clean_sbu_0, # of connection points: 4
#     Node 8, Type 0, BuildingBlock: AZAVOO_clean_sbu_0, # of connection points: 4
#     Node 9, Type 0, BuildingBlock: AZAVOO_clean_sbu_0, # of connection points: 4
#     Node 10, Type 0, BuildingBlock: AZAVOO_clean_sbu_0, # of connection points: 4
#     Node 11, Type 0, BuildingBlock: AZAVOO_clean_sbu_0, # of connection points: 4
#     Node 12, Type 0, BuildingBlock: AZAVOO_clean_sbu_0, # of connection points: 4
#     Node 13, Type 0, BuildingBlock: AZAVOO_clean_sbu_0, # of connection points: 4
#     Node 14, Type 0, BuildingBlock: AZAVOO_clean_sbu_0, # of connection points: 4
#     Node 15, Type 0, BuildingBlock: AZAVOO_clean_sbu_0, # of connection points: 4
#     Node 16, Type 0, BuildingBlock: AZAVOO_clean_sbu_0, # of connection points: 4
#     Node 17, Type 0, BuildingBlock: AZAVOO_clean_sbu_0, # of connection points: 4
#     Node 18, Type 0, BuildingBlock: AZAVOO_clean_sbu_0, # of connection points: 4
#     Node 19, Type 0, BuildingBlock: AZAVOO_clean_sbu_0, # of connection points: 4
#     Node 20, Type 0, BuildingBlock: AZAVOO_clean_sbu_0, # of connection points: 4
#     Node 21, Type 0, BuildingBlock: AZAVOO_clean_sbu_0, # of connection points: 4
#     Node 22, Type 0, BuildingBlock: AZAVOO_clean_sbu_0, # of connection points: 4
#     Node 23, Type 0, BuildingBlock: AZAVOO_clean_sbu_0, # of connection points: 4
#     Node 24, Type 0, BuildingBlock: AZAVOO_clean_sbu_0, # of connection points: 4
#     Node 25, Type 0, BuildingBlock: AZAVOO_clean_sbu_0, # of connection points: 4
#     Node 26, Type 0, BuildingBlock: AZAVOO_clean_sbu_0, # of connection points: 4
#     Node 27, Type 0, BuildingBlock: AZAVOO_clean_sbu_0, # of connection points: 4
#     Node 28, Type 0, BuildingBlock: AZAVOO_clean_sbu_0, # of connection points: 4
#     Node 29, Type 0, BuildingBlock: AZAVOO_clean_sbu_0, # of connection points: 4
#     Node 30, Type 0, BuildingBlock: AZAVOO_clean_sbu_0, # of connection points: 4
#     Node 31, Type 0, BuildingBlock: AZAVOO_clean_sbu_0, # of connection points: 4
#     Edge 32, Type (0, 0), BuildingBlock: TEMPAE_clean_linker_10, # of connection points: 2
#     Edge 33, Type (0, 0), BuildingBlock: TEMPAE_clean_linker_10, # of connection points: 2
#     Edge 34, Type (0, 0), BuildingBlock: TEMPAE_clean_linker_10, # of connection points: 2
#     Edge 35, Type (0, 0), BuildingBlock: TEMPAE_clean_linker_10, # of connection points: 2
#     Edge 36, Type (0, 0), BuildingBlock: TEMPAE_clean_linker_10, # of connection points: 2
#     Edge 37, Type (0, 0), BuildingBlock: TEMPAE_clean_linker_10, # of connection points: 2
#     Edge 38, Type (0, 0), BuildingBlock: TEMPAE_clean_linker_10, # of connection points: 2
#     Edge 39, Type (0, 0), BuildingBlock: TEMPAE_clean_linker_10, # of connection points: 2
#     Edge 40, Type (0, 0), BuildingBlock: TEMPAE_clean_linker_10, # of connection points: 2
#     Edge 41, Type (0, 0), BuildingBlock: TEMPAE_clean_linker_10, # of connection points: 2
#     Edge 42, Type (0, 0), BuildingBlock: TEMPAE_clean_linker_10, # of connection points: 2
#     Edge 43, Type (0, 0), BuildingBlock: TEMPAE_clean_linker_10, # of connection points: 2
#     Edge 44, Type (0, 0), BuildingBlock: TEMPAE_clean_linker_10, # of connection points: 2
#     Edge 45, Type (0, 0), BuildingBlock: TEMPAE_clean_linker_10, # of connection points: 2
#     Edge 46, Type (0, 0), BuildingBlock: TEMPAE_clean_linker_10, # of connection points: 2
#     Edge 47, Type (0, 0), BuildingBlock: TEMPAE_clean_linker_10, # of connection points: 2
#     Edge 48, Type (0, 0), BuildingBlock: TEMPAE_clean_linker_10, # of connection points: 2
#     Edge 49, Type (0, 0), BuildingBlock: TEMPAE_clean_linker_10, # of connection points: 2
#     Edge 50, Type (0, 0), BuildingBlock: TEMPAE_clean_linker_10, # of connection points: 2
#     Edge 51, Type (0, 0), BuildingBlock: TEMPAE_clean_linker_10, # of connection points: 2
#     Edge 52, Type (0, 0), BuildingBlock: TEMPAE_clean_linker_10, # of connection points: 2
#     Edge 53, Type (0, 0), BuildingBlock: TEMPAE_clean_linker_10, # of connection points: 2
#     Edge 54, Type (0, 0), BuildingBlock: TEMPAE_clean_linker_10, # of connection points: 2
#     Edge 55, Type (0, 0), BuildingBlock: TEMPAE_clean_linker_10, # of connection points: 2
#     Edge 56, Type (0, 0), BuildingBlock: TEMPAE_clean_linker_10, # of connection points: 2
#     Edge 57, Type (0, 0), BuildingBlock: TEMPAE_clean_linker_10, # of connection points: 2
#     Edge 58, Type (0, 0), BuildingBlock: TEMPAE_clean_linker_10, # of connection points: 2
#     Edge 59, Type (0, 0), BuildingBlock: TEMPAE_clean_linker_10, # of connection points: 2
#     Edge 60, Type (0, 0), BuildingBlock: TEMPAE_clean_linker_10, # of connection points: 2
#     Edge 61, Type (0, 0), BuildingBlock: TEMPAE_clean_linker_10, # of connection points: 2
#     Edge 62, Type (0, 0), BuildingBlock: TEMPAE_clean_linker_10, # of connection points: 2
#     Edge 63, Type (0, 0), BuildingBlock: TEMPAE_clean_linker_10, # of connection points: 2
#     Edge 64, Type (0, 0), BuildingBlock: TEMPAE_clean_linker_10, # of connection points: 2
#     Edge 65, Type (0, 0), BuildingBlock: TEMPAE_clean_linker_10, # of connection points: 2
#     Edge 66, Type (0, 0), BuildingBlock: TEMPAE_clean_linker_10, # of connection points: 2
#     Edge 67, Type (0, 0), BuildingBlock: TEMPAE_clean_linker_10, # of connection points: 2
#     Edge 68, Type (0, 0), BuildingBlock: TEMPAE_clean_linker_10, # of connection points: 2
#     Edge 69, Type (0, 0), BuildingBlock: TEMPAE_clean_linker_10, # of connection points: 2
#     Edge 70, Type (0, 0), BuildingBlock: TEMPAE_clean_linker_10, # of connection points: 2
#     Edge 71, Type (0, 0), BuildingBlock: TEMPAE_clean_linker_10, # of connection points: 2
#     Edge 72, Type (0, 0), BuildingBlock: TEMPAE_clean_linker_10, # of connection points: 2
#     Edge 73, Type (0, 0), BuildingBlock: TEMPAE_clean_linker_10, # of connection points: 2
#     Edge 74, Type (0, 0), BuildingBlock: TEMPAE_clean_linker_10, # of connection points: 2
#     Edge 75, Type (0, 0), BuildingBlock: TEMPAE_clean_linker_10, # of connection points: 2
#     Edge 76, Type (0, 0), BuildingBlock: TEMPAE_clean_linker_10, # of connection points: 2
#     Edge 77, Type (0, 0), BuildingBlock: TEMPAE_clean_linker_10, # of connection points: 2
#     Edge 78, Type (0, 0), BuildingBlock: TEMPAE_clean_linker_10, # of connection points: 2
#     Edge 79, Type (0, 0), BuildingBlock: TEMPAE_clean_linker_10, # of connection points: 2
#     Edge 80, Type (0, 0), BuildingBlock: TEMPAE_clean_linker_10, # of connection points: 2
#     Edge 81, Type (0, 0), BuildingBlock: TEMPAE_clean_linker_10, # of connection points: 2
#     Edge 82, Type (0, 0), BuildingBlock: TEMPAE_clean_linker_10, # of connection points: 2
#     Edge 83, Type (0, 0), BuildingBlock: TEMPAE_clean_linker_10, # of connection points: 2
#     Edge 84, Type (0, 0), BuildingBlock: TEMPAE_clean_linker_10, # of connection points: 2
#     Edge 85, Type (0, 0), BuildingBlock: TEMPAE_clean_linker_10, # of connection points: 2
#     Edge 86, Type (0, 0), BuildingBlock: TEMPAE_clean_linker_10, # of connection points: 2
#     Edge 87, Type (0, 0), BuildingBlock: TEMPAE_clean_linker_10, # of connection points: 2
#     Edge 88, Type (0, 0), BuildingBlock: TEMPAE_clean_linker_10, # of connection points: 2
#     Edge 89, Type (0, 0), BuildingBlock: TEMPAE_clean_linker_10, # of connection points: 2
#     Edge 90, Type (0, 0), BuildingBlock: TEMPAE_clean_linker_10, # of connection points: 2
#     Edge 91, Type (0, 0), BuildingBlock: TEMPAE_clean_linker_10, # of connection points: 2
#     Edge 92, Type (0, 0), BuildingBlock: TEMPAE_clean_linker_10, # of connection points: 2
#     Edge 93, Type (0, 0), BuildingBlock: TEMPAE_clean_linker_10, # of connection points: 2
#     Edge 94, Type (0, 0), BuildingBlock: TEMPAE_clean_linker_10, # of connection points: 2
#     Edge 95, Type (0, 0), BuildingBlock: TEMPAE_clean_linker_10, # of connection points: 2
# Relax obj value: 0.135
# Max RMSD: 0.161
# Mean RMSD: 0.161
data_MOF--net-uox--node1-AZAVOO_clean_sbu_0--edge1-TEMPAE_clean_linker_10
_symmetry_space_group_name_H-M    P1
_symmetry_Int_Tables_number       1
_symmetry_cell_setting            triclinic
loop_
_symmetry_equiv_pos_as_xyz
'x, y, z'
_cell_length_a     43.37953
_cell_length_b     43.378364
_cell_length_c     81.719737
_cell_angle_alpha  90.00268
_cell_angle_beta   90.032493
_cell_angle_gamma 90.022429
loop_
_atom_site_label
_atom_site_type_symbol
_atom_site_fract_x
_atom_site_fract_y
_atom_site_fract_z
_atom_type_partial_charge
Mg0 Mg 0.49633 0.99174 0.14173 0.0
O1 O 0.45394 0.02279 0.14195 0.0
O2 O 0.41321 0.99622 0.15082 0.0
Mg3 Mg 0.43038 0.94755 0.15735 0.0
C4 C 0.42527 0.02095 0.14523 0.0
C5 C 0.55259 0.03809 0.14251 0.0
O6 O 0.56364 0.01737 0.15267 0.0
O7 O 0.50185 0.99582 0.16969 0.0
O8 O 0.46241 0.96572 0.17728 0.0
O9 O 0.48086 0.97596 0.11686 0.0
O10 O 0.46847 0.95277 0.14005 0.0
C11 C 0.48609 0.98199 0.18071 0.0
C12 C 0.46518 0.95508 0.12452 0.0
O13 O 0.5258 0.03424 0.13656 0.0
Mg14 Mg 0.25554 0.24103 0.40278 0.0
O15 O 0.21452 0.20742 0.4012 0.0
O16 O 0.22575 0.16541 0.41579 0.0
Mg17 Mg 0.27329 0.17216 0.42712 0.0
C18 C 0.20754 0.18067 0.40658 0.0
C19 C 0.20813 0.27523 0.37985 0.0
O20 O 0.2083 0.24831 0.37247 0.0
O21 O 0.24295 0.25517 0.42885 0.0
O22 O 0.25526 0.2122 0.44252 0.0
O23 O 0.27815 0.21791 0.38139 0.0
O24 O 0.28534 0.20402 0.40709 0.0
C25 C 0.24528 0.23985 0.44212 0.0
C26 C 0.29061 0.19918 0.39182 0.0
O27 O 0.22528 0.27931 0.39229 0.0
Mg28 Mg 0.01885 0.00804 0.65241 0.0
O29 O 0.05732 0.97216 0.65267 0.0
O30 O 0.0999 0.99304 0.66319 0.0
Mg31 Mg 0.08832 0.04324 0.67008 0.0
C32 C 0.08558 0.97025 0.65684 0.0
C33 C 0.95686 0.97006 0.64988 0.0
O34 O 0.94697 0.99212 0.65957 0.0
O35 O 0.01112 0.00248 0.68015 0.0
O36 O 0.05262 0.02842 0.68906 0.0
O37 O 0.03652 0.02547 0.6282 0.0
O38 O 0.05076 0.04383 0.65228 0.0
C39 C 0.02717 0.01444 0.69166 0.0
C40 C 0.05353 0.04403 0.63669 0.0
O41 O 0.98496 0.96995 0.64551 0.0
Mg42 Mg 0.25061 0.76022 0.90686 0.0
O43 O 0.29111 0.7945 0.90474 0.0
O44 O 0.27993 0.83619 0.91956 0.0
Mg45 Mg 0.23296 0.82884 0.93141 0.0
C46 C 0.29795 0.82131 0.91009 0.0
C47 C 0.29728 0.72645 0.88324 0.0
O48 O 0.29698 0.75337 0.87587 0.0
O49 O 0.26442 0.74602 0.93276 0.0
O50 O 0.25171 0.78875 0.94656 0.0
O51 O 0.22604 0.7835 0.88601 0.0
O52 O 0.2203 0.79612 0.91196 0.0
C53 C 0.26206 0.76122 0.94607 0.0
C54 C 0.21349 0.80119 0.89691 0.0
O55 O 0.28065 0.72244 0.89586 0.0
Mg56 Mg 0.47996 0.0053 0.33984 0.0
O57 O 0.44457 0.96604 0.34295 0.0
O58 O 0.39979 0.98178 0.33232 0.0
Mg59 Mg 0.40573 0.03101 0.32275 0.0
C60 C 0.4162 0.96138 0.33948 0.0
C61 C 0.51743 0.95741 0.36005 0.0
O62 O 0.49251 0.96025 0.36906 0.0
O63 O 0.48463 0.99517 0.31231 0.0
O64 O 0.43982 0.01434 0.30344 0.0
O65 O 0.46511 0.02672 0.36371 0.0
O66 O 0.44416 0.03704 0.3397 0.0
C67 C 0.46613 0.00219 0.30069 0.0
C68 C 0.44411 0.04072 0.35527 0.0
O69 O 0.5193 0.97258 0.34675 0.0
Mg70 Mg 0.2519 0.23977 0.59633 0.0
O71 O 0.29192 0.20489 0.59742 0.0
O72 O 0.27889 0.16396 0.58236 0.0
Mg73 Mg 0.23171 0.17282 0.57096 0.0
C74 C 0.29776 0.17809 0.59172 0.0
C75 C 0.29965 0.27363 0.62 0.0
O76 O 0.30001 0.24691 0.62757 0.0
O77 O 0.26501 0.25499 0.57048 0.0
O78 O 0.25139 0.21302 0.55621 0.0
O79 O 0.22824 0.21491 0.61709 0.0
O80 O 0.22099 0.20472 0.59095 0.0
C81 C 0.26229 0.24032 0.55701 0.0
C82 C 0.2151 0.19823 0.60593 0.0
O83 O 0.28267 0.27703 0.60744 0.0
Mg84 Mg 0.02224 0.99711 0.85039 0.0
O85 O 0.06104 0.03189 0.85553 0.0
O86 O 0.1051 0.01347 0.8454 0.0
Mg87 Mg 0.09492 0.96647 0.83386 0.0
C88 C 0.08998 0.03429 0.85298 0.0
C89 C 0.96039 0.03609 0.85207 0.0
O90 O 0.95195 0.01715 0.84035 0.0
O91 O 0.02025 0.01052 0.82319 0.0
O92 O 0.06405 0.9887 0.81457 0.0
O93 O 0.03398 0.97222 0.87372 0.0
O94 O 0.05438 0.96172 0.84955 0.0
C95 C 0.03909 0.00339 0.81175 0.0
C96 C 0.05363 0.9569 0.86502 0.0
O97 O 0.98732 0.03373 0.85807 0.0
Mg98 Mg 0.24412 0.7801 0.0965 0.0
O99 O 0.20359 0.81422 0.09733 0.0
O100 O 0.21322 0.85276 0.08 0.0
Mg101 Mg 0.2597 0.84347 0.06783 0.0
C102 C 0.19599 0.83965 0.09056 0.0
C103 C 0.21733 0.71661 0.10644 0.0
O104 O 0.23705 0.70879 0.09497 0.0
O105 O 0.22866 0.76075 0.07182 0.0
O106 O 0.24034 0.8004 0.05538 0.0
O107 O 0.27034 0.80817 0.1152 0.0
O108 O 0.2738 0.8145 0.08853 0.0
C109 C 0.23016 0.7731 0.05766 0.0
C110 C 0.28211 0.82291 0.1029 0.0
O111 O 0.21493 0.74488 0.11034 0.0
Mg112 Mg 0.51743 0.99033 0.84806 0.0
O113 O 0.55255 0.95037 0.84871 0.0
O114 O 0.59451 0.96531 0.835 0.0
Mg115 Mg 0.58673 0.01408 0.82539 0.0
C116 C 0.57979 0.94529 0.84337 0.0
C117 C 0.48285 0.93994 0.86909 0.0
O118 O 0.50945 0.93963 0.87679 0.0
O119 O 0.5051 0.9808 0.8213 0.0
O120 O 0.54799 0.99708 0.80873 0.0
O121 O 0.53877 0.01132 0.87057 0.0
O122 O 0.55357 0.02145 0.84528 0.0
C123 C 0.52079 0.98591 0.80837 0.0
C124 C 0.55765 0.02513 0.86073 0.0
O125 O 0.47924 0.95808 0.85701 0.0
Mg126 Mg 0.75141 0.77527 0.59502 0.0
O127 O 0.78936 0.81142 0.59925 0.0
O128 O 0.77724 0.85413 0.58546 0.0
Mg129 Mg 0.73149 0.84564 0.57236 0.0
C130 C 0.79513 0.83914 0.59497 0.0
C131 C 0.78706 0.7122 0.59966 0.0
O132 O 0.77104 0.7046 0.58662 0.0
O133 O 0.76727 0.76507 0.56883 0.0
O134 O 0.7527 0.80841 0.55615 0.0
O135 O 0.72508 0.7942 0.61633 0.0
O136 O 0.71957 0.81062 0.5909 0.0
C137 C 0.76448 0.78147 0.55594 0.0
C138 C 0.71266 0.81339 0.60613 0.0
O139 O 0.78366 0.73891 0.60579 0.0
Mg140 Mg 0.99255 0.00705 0.34594 0.0
O141 O 0.95535 0.04462 0.34567 0.0
O142 O 0.91283 0.02582 0.33399 0.0
Mg143 Mg 0.92362 0.97667 0.32552 0.0
C144 C 0.92735 0.0476 0.34114 0.0
C145 C 0.02402 0.06088 0.36567 0.0
O146 O 0.99794 0.05933 0.3738 0.0
O147 O 0.00313 0.01428 0.31878 0.0
O148 O 0.96012 0.99455 0.3077 0.0
O149 O 0.9719 0.98874 0.36922 0.0
O150 O 0.95936 0.97273 0.34437 0.0
C151 C 0.98663 0.00709 0.30641 0.0
C152 C 0.95503 0.9715 0.35987 0.0
O153 O 0.02832 0.04281 0.35363 0.0
Mg154 Mg 0.74984 0.24981 0.09795 0.0
O155 O 0.71127 0.21331 0.10004 0.0
O156 O 0.72691 0.17131 0.08655 0.0
Mg157 Mg 0.77469 0.18007 0.07589 0.0
C158 C 0.707 0.1856 0.0952 0.0
C159 C 0.70126 0.28459 0.12007 0.0
O160 O 0.70432 0.2594 0.12886 0.0
O161 O 0.73813 0.26024 0.0711 0.0
O162 O 0.75544 0.21723 0.05903 0.0
O163 O 0.77247 0.22991 0.12043 0.0
O164 O 0.7818 0.21447 0.09515 0.0
C165 C 0.7432 0.24392 0.05838 0.0
C166 C 0.78584 0.21073 0.11059 0.0
O167 O 0.71674 0.28733 0.10693 0.0
Mg168 Mg 0.51342 0.00351 0.6529 0.0
O169 O 0.54955 0.04226 0.65028 0.0
O170 O 0.59233 0.02769 0.66338 0.0
Mg171 Mg 0.58387 0.98036 0.67469 0.0
C172 C 0.57739 0.04711 0.65473 0.0
C173 C 0.4792 0.05293 0.63131 0.0
O174 O 0.50526 0.05143 0.62316 0.0
O175 O 0.50343 0.01586 0.67957 0.0
O176 O 0.54694 1.00001 0.69166 0.0
O177 O 0.53236 0.98029 0.63052 0.0
O178 O 0.549 0.9718 0.65569 0.0
C179 C 0.52001 0.01177 0.69229 0.0
C180 C 0.55185 0.96702 0.64024 0.0
O181 O 0.47563 0.03606 0.64389 0.0
Mg182 Mg 0.75036 0.78294 0.40101 0.0
O183 O 0.71043 0.81739 0.3989 0.0
O184 O 0.72196 0.85962 0.41319 0.0
Mg185 Mg 0.76894 0.85168 0.42526 0.0
C186 C 0.70382 0.84448 0.40388 0.0
C187 C 0.71945 0.71864 0.39442 0.0
O188 O 0.73765 0.711 0.40662 0.0
O189 O 0.73686 0.76898 0.4271 0.0
O190 O 0.74998 0.81192 0.44069 0.0
O191 O 0.77442 0.8069 0.38018 0.0
O192 O 0.78133 0.81809 0.40628 0.0
C193 C 0.73954 0.7844 0.44035 0.0
C194 C 0.78762 0.82374 0.39125 0.0
O195 O 0.71944 0.74636 0.38938 0.0
Mg196 Mg 0.96851 1.00002 0.15118 0.0
O197 O 0.93441 0.95954 0.14774 0.0
O198 O 0.89211 0.97032 0.1622 0.0
Mg199 Mg 0.89831 0.01705 0.17456 0.0
C200 C 0.90733 0.9526 0.15271 0.0
C201 C 0.00584 0.95393 0.12835 0.0
O202 O 0.97957 0.95274 0.12036 0.0
O203 O 0.98039 0.98529 0.17723 0.0
O204 O 0.9372 0.99811 0.19055 0.0
O205 O 0.94765 0.02552 0.12996 0.0
O206 O 0.93178 0.02993 0.1555 0.0
C207 C 0.96468 0.98759 0.19037 0.0
C208 C 0.92851 0.03738 0.14037 0.0
O209 O 0.00799 0.97093 0.14097 0.0
Mg210 Mg 0.7487 0.22736 0.90275 0.0
O211 O 0.78857 0.19265 0.89995 0.0
O212 O 0.77686 0.15024 0.91412 0.0
Mg213 Mg 0.73015 0.15766 0.92637 0.0
C214 C 0.79492 0.16534 0.90475 0.0
C215 C 0.79621 0.26187 0.8799 0.0
O216 O 0.7954 0.23526 0.87223 0.0
O217 O 0.76241 0.23974 0.92897 0.0
O218 O 0.74925 0.19662 0.94227 0.0
O219 O 0.72455 0.20585 0.88127 0.0
O220 O 0.71852 0.19074 0.90688 0.0
C221 C 0.7598 0.22409 0.94213 0.0
C222 C 0.71267 0.18661 0.89162 0.0
O223 O 0.77943 0.26571 0.8925 0.0
Mg224 Mg 0.98362 0.50305 0.64684 0.0
O225 O 0.9479 0.54239 0.64513 0.0
O226 O 0.90561 0.5275 0.65859 0.0
Mg227 Mg 0.91386 0.47962 0.66925 0.0
C228 C 0.9203 0.5472 0.64999 0.0
C229 C 0.01869 0.55302 0.62553 0.0
O230 O 0.99265 0.55257 0.6173 0.0
O231 O 0.99494 0.51408 0.67358 0.0
O232 O 0.95175 0.49817 0.68597 0.0
O233 O 0.963 0.48097 0.62442 0.0
O234 O 0.9477 0.47178 0.64974 0.0
C235 C 0.97884 0.50962 0.68643 0.0
C236 C 0.9438 0.46773 0.63431 0.0
O237 O 0.02173 0.53546 0.6379 0.0
Mg238 Mg 0.7564 0.72848 0.90153 0.0
O239 O 0.71738 0.69256 0.8995 0.0
O240 O 0.73236 0.6497 0.9124 0.0
Mg241 Mg 0.78029 0.65792 0.92307 0.0
C242 C 0.71259 0.66476 0.90403 0.0
C243 C 0.70609 0.76286 0.88051 0.0
O244 O 0.70729 0.73686 0.87229 0.0
O245 O 0.74525 0.73856 0.92836 0.0
O246 O 0.76137 0.69491 0.94024 0.0
O247 O 0.77842 0.70908 0.87887 0.0
O248 O 0.78797 0.69271 0.90398 0.0
C249 C 0.74976 0.72189 0.94101 0.0
C250 C 0.79188 0.68955 0.88849 0.0
O251 O 0.7235 0.76636 0.89291 0.0
Mg252 Mg 0.49909 0.50038 0.14808 0.0
O253 O 0.53778 0.46426 0.1492 0.0
O254 O 0.57912 0.48639 0.16048 0.0
Mg255 Mg 0.56686 0.53625 0.16725 0.0
C256 C 0.56584 0.46318 0.15392 0.0
C257 C 0.46385 0.44928 0.12783 0.0
O258 O 0.48544 0.45606 0.11715 0.0
O259 O 0.48937 0.4956 0.17562 0.0
O260 O 0.5307 0.52026 0.1857 0.0
O261 O 0.51901 0.51713 0.12414 0.0
O262 O 0.53112 0.53605 0.14841 0.0
C263 C 0.50502 0.50635 0.18759 0.0
C264 C 0.53546 0.53576 0.13292 0.0
O265 O 0.4639 0.46285 0.14164 0.0
Mg266 Mg 0.75683 0.2675 0.40129 0.0
O267 O 0.7977 0.30159 0.4004 0.0
O268 O 0.78406 0.34397 0.41413 0.0
Mg269 Mg 0.73524 0.3375 0.4239 0.0
C270 C 0.80357 0.3287 0.40571 0.0
C271 C 0.80358 0.2314 0.37906 0.0
O272 O 0.80171 0.25717 0.37066 0.0
O273 O 0.76647 0.25503 0.42804 0.0
O274 O 0.75154 0.29846 0.44054 0.0
O275 O 0.73625 0.28911 0.37881 0.0
O276 O 0.72664 0.30443 0.40407 0.0
C277 C 0.762 0.27098 0.44095 0.0
C278 C 0.72299 0.30844 0.38861 0.0
O279 O 0.78801 0.2287 0.39217 0.0
Mg280 Mg 0.98123 0.48981 0.84179 0.0
O281 O 0.94685 0.44923 0.84371 0.0
O282 O 0.90449 0.46239 0.82981 0.0
Mg283 Mg 0.91108 0.51044 0.81907 0.0
C284 C 0.91961 0.44331 0.83859 0.0
C285 C 0.01831 0.44426 0.86457 0.0
O286 O 0.99278 0.4461 0.87317 0.0
O287 O 0.99314 0.47841 0.81519 0.0
O288 O 0.94977 0.49304 0.80253 0.0
O289 O 0.96034 0.51226 0.86393 0.0
O290 O 0.94452 0.52027 0.83861 0.0
C291 C 0.97715 0.48233 0.80224 0.0
C292 C 0.94104 0.52528 0.85401 0.0
O293 O 0.02031 0.45921 0.85123 0.0
Mg294 Mg 0.75046 0.7167 0.09636 0.0
O295 O 0.78834 0.68006 0.09893 0.0
O296 O 0.77561 0.63906 0.08389 0.0
Mg297 Mg 0.72979 0.64955 0.0712 0.0
C298 C 0.79391 0.65291 0.09368 0.0
C299 C 0.78323 0.77954 0.10297 0.0
O300 O 0.76499 0.78698 0.09075 0.0
O301 O 0.76659 0.73015 0.07067 0.0
O302 O 0.75213 0.68839 0.05645 0.0
O303 O 0.72339 0.69364 0.11657 0.0
O304 O 0.71816 0.68314 0.09032 0.0
C305 C 0.76416 0.71521 0.05726 0.0
C306 C 0.71031 0.67755 0.10515 0.0
O307 O 0.7826 0.75205 0.10838 0.0
Mg308 Mg 0.52959 0.50631 0.34383 0.0
O309 O 0.56631 0.54411 0.34676 0.0
O310 O 0.60847 0.53033 0.33292 0.0
Mg311 Mg 0.59896 0.48364 0.32095 0.0
C312 C 0.59395 0.54922 0.34209 0.0
C313 C 0.46673 0.54248 0.34877 0.0
O314 O 0.45833 0.52565 0.33616 0.0
O315 O 0.51884 0.5208 0.31745 0.0
O316 O 0.56149 0.50452 0.30474 0.0
O317 O 0.54912 0.48128 0.3655 0.0
O318 O 0.56451 0.47398 0.34002 0.0
C319 C 0.53476 0.5168 0.30447 0.0
C320 C 0.56791 0.46819 0.35534 0.0
O321 O 0.49386 0.53954 0.35445 0.0
Mg322 Mg 0.74159 0.27475 0.59509 0.0
O323 O 0.70187 0.30983 0.59608 0.0
O324 O 0.71443 0.35062 0.58083 0.0
Mg325 Mg 0.76211 0.34198 0.56994 0.0
C326 C 0.69569 0.33641 0.59021 0.0
C327 C 0.70777 0.2113 0.60147 0.0
O328 O 0.72497 0.20273 0.58905 0.0
O329 O 0.72877 0.25987 0.56906 0.0
O330 O 0.74342 0.30165 0.55497 0.0
O331 O 0.76516 0.29809 0.61618 0.0
O332 O 0.77268 0.31042 0.59027 0.0
C333 C 0.73232 0.27443 0.55561 0.0
C334 C 0.77818 0.31581 0.60546 0.0
O335 O 0.70967 0.23888 0.60663 0.0
Mg336 Mg 0.02118 0.50235 0.34634 0.0
O337 O 0.05623 0.46238 0.34651 0.0
O338 O 0.09779 0.47709 0.33239 0.0
Mg339 Mg 0.08957 0.52584 0.32285 0.0
C340 C 0.08323 0.45716 0.3409 0.0
C341 C 0.9876 0.45142 0.36752 0.0
O342 O 0.01445 0.45098 0.37497 0.0
O343 O 0.00766 0.49271 0.31978 0.0
O344 O 0.05018 0.50855 0.30673 0.0
O345 O 0.04361 0.52306 0.36861 0.0
O346 O 0.05732 0.53337 0.34317 0.0
C347 C 0.02292 0.4975 0.30668 0.0
C348 C 0.06216 0.53682 0.35857 0.0
O349 O 0.98348 0.46994 0.35565 0.0
Mg350 Mg 0.24373 0.24909 0.10402 0.0
O351 O 0.27948 0.28809 0.10301 0.0
O352 O 0.25653 0.32995 0.09281 0.0
Mg353 Mg 0.20612 0.31784 0.08694 0.0
C354 C 0.2802 0.3164 0.09872 0.0
C355 C 0.2823 0.18752 0.10413 0.0
O356 O 0.26154 0.17976 0.09316 0.0
O357 O 0.24748 0.24144 0.07615 0.0
O358 O 0.22044 0.28251 0.06768 0.0
O359 O 0.22847 0.26685 0.1286 0.0
O360 O 0.20804 0.28091 0.10496 0.0
C361 C 0.23467 0.25731 0.06483 0.0
C362 C 0.20947 0.28408 0.12052 0.0
O363 O 0.28172 0.21452 0.11016 0.0
Mg364 Mg 0.48341 0.50052 0.84634 0.0
O365 O 0.44725 0.53921 0.84794 0.0
O366 O 0.4065 0.5259 0.83281 0.0
Mg367 Mg 0.41646 0.47911 0.82127 0.0
C368 C 0.42034 0.54475 0.8423 0.0
C369 C 0.54621 0.53482 0.85258 0.0
O370 O 0.5545 0.51754 0.84013 0.0
O371 O 0.49732 0.51516 0.8205 0.0
O372 O 0.45564 0.50026 0.8064 0.0
O373 O 0.46122 0.47591 0.86733 0.0
O374 O 0.44845 0.46852 0.84146 0.0
C375 C 0.48249 0.51218 0.80711 0.0
C376 C 0.44351 0.46265 0.85668 0.0
O377 O 0.51877 0.53288 0.85793 0.0
Mg378 Mg 0.24653 0.74304 0.59674 0.0
O379 O 0.20707 0.70742 0.59649 0.0
O380 O 0.2237 0.6658 0.58307 0.0
Mg381 Mg 0.27271 0.67489 0.57398 0.0
C382 C 0.20288 0.68008 0.59109 0.0
C383 C 0.2043 0.78159 0.62072 0.0
O384 O 0.21282 0.75983 0.63095 0.0
O385 O 0.23802 0.75627 0.56991 0.0
O386 O 0.2554 0.71365 0.55743 0.0
O387 O 0.26628 0.7196 0.61907 0.0
O388 O 0.27921 0.70858 0.59361 0.0
C389 C 0.24384 0.74069 0.55701 0.0
C390 C 0.28203 0.70296 0.60893 0.0
O391 O 0.21355 0.78043 0.60596 0.0
Mg392 Mg 0.02896 0.49965 0.15338 0.0
O393 O 0.06468 0.53857 0.15067 0.0
O394 O 0.10483 0.52794 0.16679 0.0
Mg395 Mg 0.09506 0.48266 0.18003 0.0
C396 C 0.09126 0.54523 0.15642 0.0
C397 C 0.96531 0.52824 0.14475 0.0
O398 O 0.95779 0.50969 0.15682 0.0
O399 O 0.01346 0.51723 0.17845 0.0
O400 O 0.05466 0.50476 0.1936 0.0
O401 O 0.05342 0.47196 0.13402 0.0
O402 O 0.06325 0.46892 0.16043 0.0
C403 C 0.02762 0.51605 0.19213 0.0
C404 C 0.0696 0.46025 0.14581 0.0
O405 O 0.9933 0.52943 0.14019 0.0
Mg406 Mg 0.25091 0.26897 0.90633 0.0
O407 O 0.21214 0.30462 0.90289 0.0
O408 O 0.22706 0.34902 0.91424 0.0
Mg409 Mg 0.27556 0.34238 0.92474 0.0
C410 C 0.2072 0.33285 0.90651 0.0
C411 C 0.21509 0.20486 0.90491 0.0
O412 O 0.2316 0.19873 0.918 0.0
O413 O 0.23901 0.26307 0.93357 0.0
O414 O 0.25745 0.30754 0.94334 0.0
O415 O 0.27367 0.28474 0.88307 0.0
O416 O 0.28297 0.30455 0.90749 0.0
C417 C 0.24513 0.28111 0.94553 0.0
C418 C 0.28738 0.30527 0.89196 0.0
O419 O 0.21782 0.23102 0.89807 0.0
Mg420 Mg 0.4785 0.50705 0.65215 0.0
O421 O 0.44389 0.46699 0.65245 0.0
O422 O 0.40238 0.48117 0.66667 0.0
Mg423 Mg 0.41129 0.52973 0.67652 0.0
C424 C 0.41704 0.46141 0.6581 0.0
C425 C 0.51128 0.45702 0.62981 0.0
O426 O 0.48439 0.45679 0.6224 0.0
O427 O 0.49363 0.49699 0.67839 0.0
O428 O 0.45128 0.51158 0.69205 0.0
O429 O 0.45342 0.52761 0.6306 0.0
O430 O 0.44365 0.53877 0.65646 0.0
C431 C 0.47869 0.50088 0.69169 0.0
C432 C 0.43715 0.54249 0.64128 0.0
O433 O 0.51538 0.47482 0.64198 0.0
Mg434 Mg 0.25706 0.73432 0.40159 0.0
O435 O 0.297 0.69962 0.39833 0.0
O436 O 0.28459 0.6568 0.41202 0.0
Mg437 Mg 0.23772 0.66358 0.42414 0.0
C438 C 0.30298 0.67206 0.4029 0.0
C439 C 0.30294 0.77165 0.37885 0.0
O440 O 0.30162 0.74615 0.37021 0.0
O441 O 0.27054 0.74527 0.42804 0.0
O442 O 0.25671 0.70164 0.44066 0.0
O443 O 0.23292 0.71409 0.37972 0.0
O444 O 0.22679 0.69761 0.40508 0.0
C445 C 0.26752 0.729 0.44096 0.0
C446 C 0.22093 0.69435 0.38977 0.0
O447 O 0.28744 0.77354 0.39203 0.0
C448 C 0.45379 0.00401 0.27094 0.0
C449 C 0.47537 0.998 0.28334 0.0
C450 C 0.46174 0.00197 0.25441 0.0
C451 C 0.49212 0.99352 0.25 0.0
C452 C 0.51421 0.9875 0.26237 0.0
C453 C 0.50556 0.98976 0.27895 0.0
C454 C 0.43731 0.00837 0.24164 0.0
C455 C 0.54679 0.97843 0.25808 0.0
C456 C 0.48959 0.95802 0.20812 0.0
C457 C 0.495 0.98372 0.19811 0.0
C458 C 0.49181 0.9601 0.22515 0.0
C459 C 0.4993 0.98874 0.23239 0.0
C460 C 0.50759 0.01406 0.22231 0.0
C461 C 0.50547 0.0112 0.20518 0.0
C462 C 0.48307 0.93242 0.23536 0.0
C463 C 0.51594 0.0449 0.22958 0.0
H464 H 0.43039 0.0104 0.27411 0.0
H465 H 0.52247 0.98532 0.28843 0.0
H466 H 0.44537 0.0265 0.23308 0.0
H467 H 0.43292 0.98725 0.23434 0.0
H468 H 0.41517 0.016 0.24712 0.0
H469 H 0.56173 0.97647 0.26908 0.0
H470 H 0.54672 0.95593 0.25163 0.0
H471 H 0.55701 0.99561 0.24962 0.0
H472 H 0.4821 0.93652 0.20263 0.0
H473 H 0.50985 0.03103 0.19744 0.0
H474 H 0.45965 0.93591 0.24051 0.0
H475 H 0.49919 0.92952 0.24578 0.0
H476 H 0.48291 0.91083 0.22805 0.0
H477 H 0.49464 0.05665 0.23377 0.0
H478 H 0.52761 0.06002 0.22053 0.0
H479 H 0.53117 0.04202 0.24038 0.0
C480 C 0.28551 0.24147 0.52952 0.0
C481 C 0.26752 0.25607 0.54138 0.0
C482 C 0.28231 0.24903 0.51296 0.0
C483 C 0.25986 0.27103 0.50822 0.0
C484 C 0.24418 0.28827 0.52034 0.0
C485 C 0.24836 0.28065 0.53691 0.0
C486 C 0.3003 0.23075 0.50047 0.0
C487 C 0.22037 0.31214 0.51584 0.0
C488 C 0.25888 0.2804 0.46225 0.0
C489 C 0.24056 0.25505 0.45795 0.0
C490 C 0.26323 0.28828 0.47878 0.0
C491 C 0.24856 0.27052 0.49105 0.0
C492 C 0.227 0.24748 0.48652 0.0
C493 C 0.22362 0.23972 0.47 0.0
C494 C 0.28609 0.31322 0.48305 0.0
C495 C 0.21008 0.22856 0.49917 0.0
H496 H 0.30027 0.22243 0.53308 0.0
H497 H 0.23422 0.29171 0.54614 0.0
H498 H 0.2849 0.21345 0.49468 0.0
H499 H 0.30917 0.24604 0.49067 0.0
H500 H 0.32006 0.21837 0.5061 0.0
H501 H 0.21667 0.32879 0.52598 0.0
H502 H 0.22713 0.32498 0.50467 0.0
H503 H 0.19812 0.30045 0.5133 0.0
H504 H 0.27219 0.29207 0.45288 0.0
H505 H 0.20945 0.22013 0.46658 0.0
H506 H 0.30891 0.30255 0.48542 0.0
H507 H 0.27911 0.32583 0.49426 0.0
H508 H 0.28877 0.32995 0.47286 0.0
H509 H 0.2264 0.21227 0.50506 0.0
H510 H 0.19096 0.21499 0.49368 0.0
H511 H 0.20048 0.24361 0.50888 0.0
C512 C 0.0544 0.00697 0.78251 0.0
C513 C 0.03122 0.00945 0.79439 0.0
C514 C 0.0475 0.00826 0.76581 0.0
C515 C 0.01657 0.01235 0.76074 0.0
C516 C 0.99306 0.01591 0.77262 0.0
C517 C 1.00067 0.01441 0.78937 0.0
C518 C 0.07343 0.00478 0.75359 0.0
C519 C 0.95989 0.02056 0.76765 0.0
C520 C 0.01724 0.0419 0.71756 0.0
C521 C 0.01596 0.01432 0.70866 0.0
C522 C 0.01388 0.04204 0.73458 0.0
C523 C 0.00977 0.01378 0.74292 0.0
C524 C 0.00557 0.98621 0.73382 0.0
C525 C 0.00858 0.98682 0.71667 0.0
C526 C 0.018 0.07204 0.74371 0.0
C527 C 0.00101 0.95563 0.74227 0.0
H528 H 0.07811 0.00339 0.78625 0.0
H529 H 0.98259 0.01611 0.79848 0.0
H530 H 0.06889 0.9848 0.74546 0.0
H531 H 0.07485 0.02561 0.74575 0.0
H532 H 0.09616 0.00133 0.75958 0.0
H533 H 0.94475 0.0253 0.77831 0.0
H534 H 0.95795 0.03997 0.75886 0.0
H535 H 0.95133 0.9996 0.76133 0.0
H536 H 0.02261 0.06324 0.71126 0.0
H537 H 0.0076 0.96553 0.70974 0.0
H538 H 0.04151 0.07287 0.74905 0.0
H539 H 0.00128 0.07389 0.75393 0.0
H540 H 0.01514 0.09231 0.73554 0.0
H541 H 0.02331 0.94785 0.7475 0.0
H542 H 0.99261 0.93764 0.73368 0.0
H543 H 0.9844 0.95784 0.75251 0.0
C544 C 0.24676 0.72064 0.96573 0.0
C545 C 0.26589 0.74565 0.96188 0.0
C546 C 0.23997 0.71359 0.98213 0.0
C547 C 0.25294 0.73189 0.99471 0.0
C548 C 0.27578 0.75409 0.99079 0.0
C549 C 0.28166 0.76099 0.97436 0.0
C550 C 0.21612 0.68923 0.98575 0.0
C551 C 0.29107 0.77346 0.00384 0.0
C552 C 0.20993 0.76697 0.02968 0.0
C553 C 0.22577 0.75423 0.04295 0.0
C554 C 0.21556 0.75663 0.01375 0.0
C555 C 0.23818 0.73357 0.0111 0.0
C556 C 0.25109 0.71786 0.02464 0.0
C557 C 0.24455 0.72834 0.04054 0.0
C558 C 0.20031 0.77331 -0.00032 0.0
C559 C 0.27467 0.69269 0.0224 0.0
H560 H 0.23442 0.70887 0.95602 0.0
H561 H 0.2965 0.78028 0.9713 0.0
H562 H 0.22047 0.67791 0.9977 0.0
H563 H 0.19302 0.70016 0.98629 0.0
H564 H 0.21561 0.67139 0.976 0.0
H565 H 0.31142 0.78611 -0.00097 0.0
H566 H 0.27432 0.79059 0.0086 0.0
H567 H 0.29859 0.75888 0.01425 0.0
H568 H 0.19533 0.78693 0.03163 0.0
H569 H 0.2569 0.71856 0.05085 0.0
H570 H 0.19268 0.75675 0.99017 0.0
H571 H 0.21713 0.78931 0.99397 0.0
H572 H 0.18005 0.78694 0.00377 0.0
H573 H 0.27004 0.67896 0.01121 0.0
H574 H 0.27517 0.67701 0.03314 0.0
H575 H 0.29786 0.70323 0.02113 0.0
C576 C 0.52102 0.96605 0.78009 0.0
C577 C 0.50632 0.98331 0.79221 0.0
C578 C 0.51433 0.97092 0.76352 0.0
C579 C 0.49323 0.99442 0.75905 0.0
C580 C 0.47628 0.00995 0.77134 0.0
C581 C 0.4829 0.00399 0.78788 0.0
C582 C 0.53223 0.95309 0.75081 0.0
C583 C 0.45368 0.03515 0.76714 0.0
C584 C 0.52378 0.03111 0.72064 0.0
C585 C 0.50665 0.0158 0.70865 0.0
C586 C 0.51722 0.02694 0.73727 0.0
C587 C 0.49362 0.0061 0.74194 0.0
C588 C 0.47443 0.99282 0.72983 0.0
C589 C 0.48105 0.99808 0.71322 0.0
C590 C 0.53763 0.04242 0.7498 0.0
C591 C 0.44912 0.97048 0.73425 0.0
H592 H 0.53928 0.95023 0.78352 0.0
H593 H 0.47191 0.01768 0.79733 0.0
H594 H 0.51681 0.94535 0.74079 0.0
H595 H 0.55011 0.96825 0.74536 0.0
H596 H 0.54386 0.9326 0.75615 0.0
H597 H 0.43747 0.03964 0.77739 0.0
H598 H 0.46655 0.05674 0.7646 0.0
H599 H 0.44022 0.02932 0.75602 0.0
H600 H 0.54364 0.0447 0.71703 0.0
H601 H 0.46808 0.98591 0.70389 0.0
H602 H 0.55371 0.02519 0.75508 0.0
H603 H 0.52363 0.05194 0.75996 0.0
H604 H 0.55147 0.06137 0.74435 0.0
H605 H 0.4594 0.94749 0.73665 0.0
H606 H 0.43209 0.96803 0.72417 0.0
H607 H 0.43691 0.9778 0.74552 0.0
C608 C 0.71915 0.78358 0.46855 0.0
C609 C 0.73615 0.76902 0.45626 0.0
C610 C 0.72407 0.77635 0.48506 0.0
C611 C 0.74733 0.75483 0.48932 0.0
C612 C 0.7624 0.73792 0.47685 0.0
C613 C 0.75638 0.74507 0.46037 0.0
C614 C 0.70665 0.7942 0.49794 0.0
C615 C 0.78731 0.71484 0.4808 0.0
C616 C 0.78477 0.78454 0.52774 0.0
C617 C 0.76921 0.76762 0.53972 0.0
C618 C 0.78051 0.77807 0.5111 0.0
C619 C 0.75933 0.75479 0.50639 0.0
C620 C 0.74594 0.73565 0.51849 0.0
C621 C 0.75131 0.74215 0.5351 0.0
C622 C 0.79616 0.79837 0.4986 0.0
C623 C 0.7233 0.71061 0.51405 0.0
H624 H 0.70366 0.80223 0.46531 0.0
H625 H 0.76987 0.73414 0.45082 0.0
H626 H 0.69887 0.77867 0.5079 0.0
H627 H 0.7221 0.81179 0.50344 0.0
H628 H 0.68623 0.80619 0.49276 0.0
H629 H 0.79117 0.69861 0.47048 0.0
H630 H 0.80921 0.7273 0.48317 0.0
H631 H 0.7816 0.70142 0.49195 0.0
H632 H 0.79849 0.80431 0.53137 0.0
H633 H 0.73893 0.72933 0.54441 0.0
H634 H 0.77913 0.81481 0.49344 0.0
H635 H 0.80533 0.78435 0.48835 0.0
H636 H 0.81539 0.81184 0.50404 0.0
H637 H 0.70033 0.72112 0.51188 0.0
H638 H 0.72098 0.69339 0.52403 0.0
H639 H 0.73023 0.69858 0.50265 0.0
C640 C 0.98543 0.0303 0.2789 0.0
C641 C 0.99913 0.0097 0.28984 0.0
C642 C 0.98853 0.02616 0.26198 0.0
C643 C 0.0049 1.00022 0.25599 0.0
C644 C 0.02127 0.98115 0.26703 0.0
C645 C 0.01823 0.98621 0.28393 0.0
C646 C 0.9714 0.04758 0.25061 0.0
C647 C 0.03905 0.95337 0.26119 0.0
C648 C 0.96263 0.9698 0.21911 0.0
C649 C 0.97964 0.98278 0.20632 0.0
C650 C 0.9724 0.97284 0.23536 0.0
C651 C 0.99941 0.99002 0.23887 0.0
C652 C 0.01807 0.00088 0.22589 0.0
C653 C 0.00804 0.99687 0.20967 0.0
C654 C 0.95225 0.96002 0.24881 0.0
C655 C 0.04698 0.01926 0.22909 0.0
H656 H 0.97038 0.04822 0.28357 0.0
H657 H 0.02838 0.97001 0.29249 0.0
H658 H 0.9859 0.05369 0.23991 0.0
H659 H 0.95043 0.03582 0.24594 0.0
H660 H 0.96419 0.06914 0.25688 0.0
H661 H 0.05591 0.94542 0.27051 0.0
H662 H 0.0227 0.93424 0.25873 0.0
H663 H 0.05147 0.95839 0.24963 0.0
H664 H 0.94071 0.95884 0.21646 0.0
H665 H 0.02105 0.0072 0.19975 0.0
H666 H 0.94033 0.97923 0.25515 0.0
H667 H 0.96641 0.94769 0.25803 0.0
H668 H 0.9345 0.9439 0.24401 0.0
H669 H 0.04055 0.04336 0.23212 0.0
H670 H 0.0623 0.01972 0.21821 0.0
H671 H 0.05999 0.00982 0.23965 0.0
C672 C 0.77802 0.22231 0.97081 0.0
C673 C 0.76434 0.23903 0.95812 0.0
C674 C 0.77495 0.2318 0.98711 0.0
C675 C 0.75696 0.25819 0.99079 0.0
C676 C 0.7452 0.27656 0.9779 0.0
C677 C 0.74929 0.26686 0.96162 0.0
C678 C 0.78873 0.21199 0.00044 0.0
C679 C 0.72587 0.30475 0.98127 0.0
C680 C 0.71857 0.2426 0.03119 0.0
C681 C 0.73904 0.25696 0.04198 0.0
C682 C 0.72196 0.24598 0.01423 0.0
C683 C 0.74709 0.2633 0.00802 0.0
C684 C 0.7659 0.28034 0.01892 0.0
C685 C 0.76152 0.27706 0.03586 0.0
C686 C 0.70077 0.22815 0.00304 0.0
C687 C 0.79285 0.2991 0.01284 0.0
H688 H 0.78964 0.2008 0.96805 0.0
H689 H 0.73836 0.27959 0.95179 0.0
H690 H 0.80079 0.2265 0.00961 0.0
H691 H 0.77006 0.19938 0.00688 0.0
H692 H 0.80532 0.19484 0.99551 0.0
H693 H 0.7246 0.32011 0.97041 0.0
H694 H 0.70211 0.29742 0.98444 0.0
H695 H 0.7351 0.31805 0.99178 0.0
H696 H 0.70144 0.22678 0.036 0.0
H697 H 0.77768 0.28771 0.04427 0.0
H698 H 0.71303 0.20755 0.9983 0.0
H699 H 0.6939 0.24242 0.99238 0.0
H700 H 0.67963 0.22028 0.00948 0.0
H701 H 0.81245 0.28343 0.0102 0.0
H702 H 0.80053 0.31619 0.02212 0.0
H703 H 0.78704 0.31139 0.00135 0.0
C704 C 0.01738 0.49383 0.70715 0.0
C705 C 0.99279 0.513 0.70269 0.0
C706 C 0.0239 0.48807 0.72372 0.0
C707 C 0.00562 0.50227 0.73593 0.0
C708 C 0.98325 0.52449 0.73137 0.0
C709 C 0.97674 0.52918 0.71477 0.0
C710 C 0.04794 0.46429 0.72802 0.0
C711 C 0.96387 0.54095 0.74398 0.0
C712 C 0.97592 0.46308 0.77382 0.0
C713 C 0.99153 0.47926 0.78607 0.0
C714 C 0.98292 0.46789 0.75729 0.0
C715 C 0.00535 0.49024 0.75297 0.0
C716 C 0.02316 0.5045 0.76537 0.0
C717 C 0.01617 0.4986 0.78187 0.0
C718 C 0.96404 0.45137 0.74447 0.0
C719 C 0.04722 0.52843 0.76133 0.0
H720 H 0.02949 0.48099 0.69775 0.0
H721 H 0.95763 0.54388 0.71124 0.0
H722 H 0.06056 0.47071 0.73932 0.0
H723 H 0.03641 0.44185 0.73028 0.0
H724 H 0.06478 0.46112 0.71792 0.0
H725 H 0.95116 0.56077 0.73863 0.0
H726 H 0.94681 0.52463 0.74921 0.0
H727 H 0.97847 0.54948 0.75418 0.0
H728 H 0.95679 0.44824 0.77714 0.0
H729 H 0.02793 0.51144 0.7914 0.0
H730 H 0.97901 0.44292 0.73443 0.0
H731 H 0.94711 0.46764 0.73907 0.0
H732 H 0.9512 0.4315 0.74968 0.0
H733 H 0.06023 0.52213 0.75014 0.0
H734 H 0.06372 0.53164 0.77159 0.0
H735 H 0.03565 0.55081 0.75899 0.0
C736 C 0.78803 0.71541 0.02987 0.0
C737 C 0.77025 0.7306 0.04162 0.0
C738 C 0.78555 0.72314 0.01328 0.0
C739 C 0.76393 0.74583 0.00837 0.0
C740 C 0.74825 0.76334 0.02038 0.0
C741 C 0.75184 0.75565 0.03698 0.0
C742 C 0.80356 0.70459 0.00092 0.0
C743 C 0.72504 0.78769 0.01571 0.0
C744 C 0.76468 0.75914 0.96257 0.0
C745 C 0.74564 0.73491 0.95742 0.0
C746 C 0.76912 0.765 0.97933 0.0
C747 C 0.75373 0.74643 0.991 0.0
C748 C 0.73185 0.72428 0.98569 0.0
C749 C 0.72848 0.71843 0.96894 0.0
C750 C 0.79264 0.78876 0.98443 0.0
C751 C 0.7142 0.70457 0.99771 0.0
H752 H 0.80213 0.69595 0.03353 0.0
H753 H 0.73777 0.7671 0.04611 0.0
H754 H 0.78799 0.6877 0.99492 0.0
H755 H 0.81309 0.71979 0.99125 0.0
H756 H 0.82284 0.69172 0.0067 0.0
H757 H 0.72062 0.80387 0.02598 0.0
H758 H 0.73285 0.80104 0.0049 0.0
H759 H 0.70294 0.77636 0.01244 0.0
H760 H 0.7783 0.77154 0.9536 0.0
H761 H 0.71392 0.69959 0.96487 0.0
H762 H 0.8148 0.77703 0.98712 0.0
H763 H 0.78534 0.80103 0.99568 0.0
H764 H 0.79675 0.80593 0.97458 0.0
H765 H 0.73002 0.68744 0.0033 0.0
H766 H 0.69497 0.69192 0.99173 0.0
H767 H 0.70464 0.71893 0.00772 0.0
C768 C 0.5404 0.53044 0.2752 0.0
C769 C 0.52103 0.52256 0.28824 0.0
C770 C 0.53007 0.5288 0.25901 0.0
C771 C 0.49963 0.51864 0.25573 0.0
C772 C 0.47922 0.51277 0.26889 0.0
C773 C 0.49017 0.51494 0.28507 0.0
C774 C 0.55247 0.53601 0.24537 0.0
C775 C 0.4466 0.50209 0.26593 0.0
C776 C 0.48154 0.53239 0.21126 0.0
C777 C 0.49293 0.50518 0.20432 0.0
C778 C 0.4801 0.536 0.2283 0.0
C779 C 0.49075 0.5119 0.23851 0.0
C780 C 0.49911 0.48318 0.23149 0.0
C781 C 0.5003 0.48022 0.21438 0.0
C782 C 0.47061 0.56679 0.23525 0.0
C783 C 0.51017 0.45673 0.24195 0.0
H784 H 0.56422 0.53652 0.27766 0.0
H785 H 0.47521 0.50856 0.29514 0.0
H786 H 0.55778 0.51464 0.23846 0.0
H787 H 0.54212 0.55266 0.23666 0.0
H788 H 0.57446 0.54583 0.25002 0.0
H789 H 0.43208 0.50464 0.27704 0.0
H790 H 0.43583 0.5151 0.25573 0.0
H791 H 0.44684 0.47738 0.26241 0.0
H792 H 0.47622 0.5518 0.20338 0.0
H793 H 0.50952 0.45937 0.20894 0.0
H794 H 0.49154 0.58025 0.23841 0.0
H795 H 0.45694 0.56384 0.24661 0.0
H796 H 0.45687 0.58036 0.22631 0.0
H797 H 0.53379 0.46179 0.24644 0.0
H798 H 0.51082 0.43472 0.235 0.0
H799 H 0.49508 0.45376 0.25279 0.0
C800 C 0.7478 0.2337 0.53607 0.0
C801 C 0.72841 0.25849 0.53991 0.0
C802 C 0.75373 0.22591 0.51967 0.0
C803 C 0.73952 0.24314 0.50704 0.0
C804 C 0.71683 0.26541 0.51103 0.0
C805 C 0.71191 0.27316 0.52746 0.0
C806 C 0.77781 0.20184 0.51598 0.0
C807 C 0.70035 0.28369 0.49796 0.0
C808 C 0.78012 0.27255 0.46955 0.0
C809 C 0.76458 0.25666 0.45717 0.0
C810 C 0.77469 0.26572 0.48604 0.0
C811 C 0.75244 0.24307 0.49018 0.0
C812 C 0.73898 0.22488 0.47768 0.0
C813 C 0.74541 0.2318 0.46122 0.0
C814 C 0.79034 0.28509 0.49897 0.0
C815 C 0.71534 0.20044 0.48153 0.0
H816 H 0.76082 0.2226 0.54576 0.0
H817 H 0.697 0.29239 0.5305 0.0
H818 H 0.77197 0.18868 0.50476 0.0
H819 H 0.8003 0.21339 0.51389 0.0
H820 H 0.78058 0.18547 0.52634 0.0
H821 H 0.68012 0.29628 0.50294 0.0
H822 H 0.71648 0.30079 0.4926 0.0
H823 H 0.69243 0.26834 0.48794 0.0
H824 H 0.79487 0.29183 0.46634 0.0
H825 H 0.73311 0.21977 0.45159 0.0
H826 H 0.79872 0.27041 0.50915 0.0
H827 H 0.77354 0.30175 0.50412 0.0
H828 H 0.81015 0.29827 0.49393 0.0
H829 H 0.72109 0.18806 0.49301 0.0
H830 H 0.7133 0.18345 0.47142 0.0
H831 H 0.69253 0.21155 0.48323 0.0
C832 C 0.02317 0.47696 0.27859 0.0
C833 C 0.00812 0.49405 0.29066 0.0
C834 C 0.01617 0.48128 0.26203 0.0
C835 C 0.99424 0.50398 0.2575 0.0
C836 C 0.97677 0.51903 0.26975 0.0
C837 C 0.98386 0.51373 0.2863 0.0
C838 C 0.03474 0.46397 0.24938 0.0
C839 C 0.95305 0.54313 0.2655 0.0
C840 C 0.02605 0.54005 0.21945 0.0
C841 C 0.01117 0.52267 0.20741 0.0
C842 C 0.01772 0.53717 0.23592 0.0
C843 C 0.9946 0.51566 0.2404 0.0
C844 C 0.97702 0.50092 0.22807 0.0
C845 C 0.98544 0.50479 0.21159 0.0
C846 C 0.03638 0.55423 0.24864 0.0
C847 C 0.95194 0.47819 0.23227 0.0
H848 H 0.042 0.46185 0.28205 0.0
H849 H 0.9725 0.52721 0.29571 0.0
H850 H 0.01957 0.45525 0.23948 0.0
H851 H 0.05183 0.47979 0.24376 0.0
H852 H 0.04737 0.44417 0.25481 0.0
H853 H 0.93605 0.54611 0.27554 0.0
H854 H 0.9648 0.56556 0.26354 0.0
H855 H 0.94059 0.5372 0.25406 0.0
H856 H 0.04594 0.55386 0.21614 0.0
H857 H 0.9741 0.49115 0.20223 0.0
H858 H 0.05291 0.53808 0.25447 0.0
H859 H 0.0212 0.56352 0.25838 0.0
H860 H 0.04966 0.57358 0.24319 0.0
H861 H 0.9625 0.45542 0.23488 0.0
H862 H 0.93549 0.4753 0.22196 0.0
H863 H 0.93904 0.48547 0.24333 0.0
C864 C 0.26266 0.24018 0.03967 0.0
C865 C 0.23498 0.24674 0.04772 0.0
C866 C 0.26359 0.23856 0.02247 0.0
C867 C 0.23616 0.24337 0.01334 0.0
C868 C 0.20771 0.24643 0.02162 0.0
C869 C 0.20753 0.24837 0.03871 0.0
C870 C 0.29436 0.23503 0.0141 0.0
C871 C 0.17785 0.25116 0.01245 0.0
C872 C 0.2428 0.29261 0.97533 0.0
C873 C 0.24029 0.27092 0.96266 0.0
C874 C 0.24176 0.28371 0.99175 0.0
C875 C 0.2379 0.2522 0.99577 0.0
C876 C 0.2346 0.23012 0.98312 0.0
C877 C 0.23584 0.23974 0.96666 0.0
C878 C 0.24502 0.30818 0.00483 0.0
C879 C 0.23026 0.19638 0.98697 0.0
H880 H 0.28386 0.23894 0.04667 0.0
H881 H 0.18605 0.25312 0.04501 0.0
H882 H 0.29242 0.21973 0.00327 0.0
H883 H 0.30229 0.25792 0.00974 0.0
H884 H 0.31212 0.22557 0.02252 0.0
H885 H 0.15747 0.24718 0.0204 0.0
H886 H 0.17685 0.27521 0.00784 0.0
H887 H 0.17639 0.23557 0.00172 0.0
H888 H 0.24603 0.31678 0.97242 0.0
H889 H 0.2341 0.22279 0.95695 0.0
H890 H 0.26489 0.30276 0.01289 0.0
H891 H 0.22406 0.30863 0.01261 0.0
H892 H 0.24849 0.33157 -0.00039 0.0
H893 H 0.25101 0.18744 0.99333 0.0
H894 H 0.2263 0.18237 0.97578 0.0
H895 H 0.21044 0.19319 0.99537 0.0
C896 C 0.52211 0.50023 0.7863 0.0
C897 C 0.49751 0.51875 0.79143 0.0
C898 C 0.52907 0.49731 0.76957 0.0
C899 C 0.51111 0.51359 0.75797 0.0
C900 C 0.48906 0.53542 0.7634 0.0
C901 C 0.48219 0.53736 0.7801 0.0
C902 C 0.553 0.47412 0.76433 0.0
C903 C 0.47003 0.55402 0.75149 0.0
C904 C 0.51899 0.51502 0.71188 0.0
C905 C 0.49394 0.49635 0.70752 0.0
C906 C 0.52715 0.51888 0.72841 0.0
C907 C 0.50995 0.5034 0.74062 0.0
C908 C 0.48704 0.48175 0.73599 0.0
C909 C 0.479 0.47887 0.71948 0.0
C910 C 0.55184 0.54194 0.73278 0.0
C911 C 0.46867 0.46404 0.74857 0.0
H912 H 0.53374 0.48561 0.79512 0.0
H913 H 0.46312 0.5516 0.78417 0.0
H914 H 0.54142 0.45202 0.76133 0.0
H915 H 0.56546 0.48198 0.75324 0.0
H916 H 0.56997 0.46968 0.77425 0.0
H917 H 0.45777 0.5733 0.75763 0.0
H918 H 0.48476 0.56364 0.74164 0.0
H919 H 0.45259 0.53884 0.74566 0.0
H920 H 0.53029 0.5288 0.70257 0.0
H921 H 0.45959 0.46451 0.71601 0.0
H922 H 0.56493 0.5346 0.74377 0.0
H923 H 0.54088 0.56444 0.73557 0.0
H924 H 0.56819 0.54542 0.72248 0.0
H925 H 0.48412 0.45405 0.75799 0.0
H926 H 0.45504 0.44512 0.74294 0.0
H927 H 0.45248 0.47993 0.75485 0.0
C928 C 0.22156 0.74138 0.52926 0.0
C929 C 0.24118 0.75485 0.54078 0.0
C930 C 0.22625 0.74608 0.51248 0.0
C931 C 0.2518 0.76387 0.50719 0.0
C932 C 0.26978 0.78 0.51885 0.0
C933 C 0.26413 0.77537 0.53561 0.0
C934 C 0.20592 0.72916 0.50046 0.0
C935 C 0.29712 0.79924 0.51378 0.0
C936 C 0.28491 0.72563 0.46973 0.0
C937 C 0.27173 0.74312 0.45718 0.0
C938 C 0.28109 0.73406 0.48614 0.0
C939 C 0.26288 0.76016 0.49007 0.0
C940 C 0.25179 0.77942 0.47738 0.0
C941 C 0.2566 0.77076 0.46099 0.0
C942 C 0.29417 0.71334 0.49928 0.0
C943 C 0.23233 0.8074 0.481 0.0
H944 H 0.20406 0.72526 0.53334 0.0
H945 H 0.27962 0.78535 0.54459 0.0
H946 H 0.19971 0.74432 0.49004 0.0
H947 H 0.21861 0.70904 0.49546 0.0
H948 H 0.18439 0.72067 0.50628 0.0
H949 H 0.30399 0.81565 0.52356 0.0
H950 H 0.31696 0.78382 0.51125 0.0
H951 H 0.29217 0.81235 0.50242 0.0
H952 H 0.29662 0.70427 0.46673 0.0
H953 H 0.24608 0.78411 0.45125 0.0
H954 H 0.27519 0.70018 0.50512 0.0
H955 H 0.3056 0.72719 0.50895 0.0
H956 H 0.31114 0.69663 0.49428 0.0
H957 H 0.20835 0.79992 0.48359 0.0
H958 H 0.23177 0.82356 0.47046 0.0
H959 H 0.24092 0.81986 0.49195 0.0
C960 C 0.41272 0.95448 0.11262 0.0
C961 C 0.4396 0.93852 0.11684 0.0
C962 C 0.38518 0.93847 0.10951 0.0
C963 C 0.38493 0.90585 0.1104 0.0
C964 C 0.41259 0.88971 0.11381 0.0
C965 C 0.4395 0.90633 0.11727 0.0
C966 C 0.35606 0.95649 0.10622 0.0
C967 C 0.41347 0.85493 0.11452 0.0
C968 C 0.31345 0.85888 0.12032 0.0
C969 C 0.30559 0.84739 0.10486 0.0
C970 C 0.33823 0.87949 0.1222 0.0
C971 C 0.35575 0.8883 0.10832 0.0
C972 C 0.34708 0.87777 0.09262 0.0
C973 C 0.32202 0.85761 0.09108 0.0
C974 C 0.3465 0.89077 0.13912 0.0
C975 C 0.36536 0.88629 0.07755 0.0
H976 H 0.41277 0.97948 0.11283 0.0
H977 H 0.46027 0.8942 0.1209 0.0
H978 H 0.34448 0.94782 0.09503 0.0
H979 H 0.33977 0.95327 0.11655 0.0
H980 H 0.3606 0.98155 0.10476 0.0
H981 H 0.43728 0.84595 0.11607 0.0
H982 H 0.39925 0.84668 0.12491 0.0
H983 H 0.40354 0.84499 0.10317 0.0
H984 H 0.30076 0.8512 0.131 0.0
H985 H 0.31625 0.84877 0.07906 0.0
H986 H 0.34965 0.91615 0.13908 0.0
H987 H 0.36869 0.88035 0.14299 0.0
H988 H 0.32863 0.88472 0.14831 0.0
H989 H 0.36878 0.9116 0.07691 0.0
H990 H 0.35395 0.8785 0.0661 0.0
H991 H 0.38854 0.87554 0.07823 0.0
C992 C 0.31557 0.14805 0.39678 0.0
C993 C 0.31061 0.17345 0.3865 0.0
C994 C 0.33626 0.12461 0.39249 0.0
C995 C 0.35283 0.12687 0.37766 0.0
C996 C 0.3476 0.15218 0.36706 0.0
C997 C 0.32629 0.17504 0.37154 0.0
C998 C 0.34063 0.09759 0.40393 0.0
C999 C 0.36508 0.1555 0.35118 0.0
C1000 C 0.42877 0.08401 0.37342 0.0
C1001 C 0.42033 0.05995 0.36295 0.0
C1002 C 0.40688 0.10583 0.37852 0.0
C1003 C 0.37585 0.10291 0.37328 0.0
C1004 C 0.36701 0.07754 0.36346 0.0
C1005 C 0.38948 0.05652 0.35826 0.0
C1006 C 0.41721 0.13275 0.38887 0.0
C1007 C 0.33402 0.07309 0.35804 0.0
H1008 H 0.30334 0.14633 0.40823 0.0
H1009 H 0.32268 0.1947 0.36357 0.0
H1010 H 0.33658 0.07564 0.39729 0.0
H1011 H 0.36473 0.09711 0.40847 0.0
H1012 H 0.32487 0.09856 0.41463 0.0
H1013 H 0.35831 0.17652 0.3443 0.0
H1014 H 0.3902 0.15654 0.3537 0.0
H1015 H 0.36099 0.13509 0.3433 0.0
H1016 H 0.45275 0.08669 0.37688 0.0
H1017 H 0.38298 0.03754 0.35037 0.0
H1018 H 0.40318 0.13413 0.40019 0.0
H1019 H 0.41361 0.15456 0.38203 0.0
H1020 H 0.44192 0.13111 0.39235 0.0
H1021 H 0.31834 0.07378 0.36876 0.0
H1022 H 0.33057 0.05089 0.35151 0.0
H1023 H 0.32717 0.09216 0.34976 0.0
C1024 C 0.07222 0.09602 0.62996 0.0
C1025 C 0.07668 0.06416 0.62927 0.0
C1026 C 0.09589 0.11639 0.62563 0.0
C1027 C 0.12493 0.10446 0.6209 0.0
C1028 C 0.12938 0.07213 0.61998 0.0
C1029 C 0.10502 0.05225 0.62414 0.0
C1030 C 0.09002 0.15068 0.6265 0.0
C1031 C 0.16013 0.05861 0.61518 0.0
C1032 C 0.17565 0.15983 0.59737 0.0
C1033 C 0.19399 0.17249 0.60984 0.0
C1034 C 0.15386 0.13688 0.60071 0.0
C1035 C 0.15041 0.12609 0.61692 0.0
C1036 C 0.16958 0.13793 0.6295 0.0
C1037 C 0.19105 0.16123 0.62582 0.0
C1038 C 0.13359 0.12518 0.58701 0.0
C1039 C 0.16677 0.12665 0.6469 0.0
H1040 H 0.05033 0.10499 0.63426 0.0
H1041 H 0.10849 0.02749 0.6241 0.0
H1042 H 0.10538 0.16128 0.63579 0.0
H1043 H 0.09541 0.16161 0.61456 0.0
H1044 H 0.06576 0.15611 0.62974 0.0
H1045 H 0.15951 0.03303 0.61457 0.0
H1046 H 0.16739 0.06768 0.60309 0.0
H1047 H 0.17794 0.06563 0.62419 0.0
H1048 H 0.17757 0.16856 0.58499 0.0
H1049 H 0.20526 0.17082 0.63548 0.0
H1050 H 0.10934 0.13202 0.58932 0.0
H1051 H 0.13422 0.09964 0.5865 0.0
H1052 H 0.14064 0.13439 0.57489 0.0
H1053 H 0.14411 0.13361 0.65198 0.0
H1054 H 0.18522 0.13605 0.65491 0.0
H1055 H 0.16779 0.1011 0.64726 0.0
C1056 C 0.10785 0.94519 0.87179 0.0
C1057 C 0.07677 0.93674 0.87243 0.0
C1058 C 0.13099 0.92429 0.87625 0.0
C1059 C 0.12268 0.89408 0.88109 0.0
C1060 C 0.09114 0.88572 0.88209 0.0
C1061 C 0.06845 0.90734 0.87783 0.0
C1062 C 0.1643 0.93429 0.87539 0.0
C1063 C 0.08143 0.85362 0.88704 0.0
C1064 C 0.18199 0.83024 0.8763 0.0
C1065 C 0.19175 0.82615 0.89251 0.0
C1066 C 0.15956 0.85241 0.87237 0.0
C1067 C 0.14699 0.87111 0.88492 0.0
C1068 C 0.15729 0.86758 0.90121 0.0
C1069 C 0.17925 0.84494 0.90482 0.0
C1070 C 0.14884 0.85538 0.85486 0.0
C1071 C 0.14477 0.88739 0.91489 0.0
H1072 H 0.11406 0.96798 0.86748 0.0
H1073 H 0.0443 0.90085 0.87799 0.0
H1074 H 0.17591 0.92991 0.88727 0.0
H1075 H 0.17657 0.92057 0.86598 0.0
H1076 H 0.16671 0.95912 0.87233 0.0
H1077 H 0.05597 0.85106 0.88755 0.0
H1078 H 0.09072 0.83662 0.87818 0.0
H1079 H 0.09112 0.8478 0.89922 0.0
H1080 H 0.19135 0.81567 0.86675 0.0
H1081 H 0.18617 0.84174 0.91742 0.0
H1082 H 0.15256 0.87928 0.85046 0.0
H1083 H 0.12373 0.85069 0.85412 0.0
H1084 H 0.16107 0.83926 0.84653 0.0
H1085 H 0.14763 0.91215 0.91183 0.0
H1086 H 0.1564 0.88281 0.92675 0.0
H1087 H 0.11972 0.8831 0.9164 0.0
C1088 C 0.6717 0.1647 0.87366 0.0
C1089 C 0.69314 0.16066 0.88628 0.0
C1090 C 0.6505 0.14132 0.86978 0.0
C1091 C 0.65126 0.11314 0.87856 0.0
C1092 C 0.6738 0.10853 0.89082 0.0
C1093 C 0.69438 0.13243 0.89457 0.0
C1094 C 0.62671 0.1471 0.85665 0.0
C1095 C 0.67587 0.07855 0.90016 0.0
C1096 C 0.57772 0.06553 0.87959 0.0
C1097 C 0.58289 0.04483 0.86675 0.0
C1098 C 0.60002 0.08769 0.88375 0.0
C1099 C 0.62824 0.08865 0.87502 0.0
C1100 C 0.63412 0.06666 0.86263 0.0
C1101 C 0.61127 0.04511 0.85859 0.0
C1102 C 0.5929 0.11083 0.89702 0.0
C1103 C 0.66421 0.06642 0.85334 0.0
H1104 H 0.67071 0.18658 0.86727 0.0
H1105 H 0.71152 0.1289 0.90399 0.0
H1106 H 0.6283 0.12912 0.84703 0.0
H1107 H 0.60324 0.14565 0.862 0.0
H1108 H 0.62949 0.17007 0.85081 0.0
H1109 H 0.69564 0.07818 0.9088 0.0
H1110 H 0.65434 0.07479 0.9072 0.0
H1111 H 0.67826 0.05895 0.89153 0.0
H1112 H 0.55568 0.06535 0.88584 0.0
H1113 H 0.61561 0.02857 0.84897 0.0
H1114 H 0.59251 0.13439 0.89173 0.0
H1115 H 0.61119 0.11044 0.9065 0.0
H1116 H 0.57034 0.10633 0.90299 0.0
H1117 H 0.66651 0.08801 0.84617 0.0
H1118 H 0.66591 0.04655 0.8448 0.0
H1119 H 0.68391 0.06551 0.86198 0.0
C1120 C 0.60603 0.94845 0.64139 0.0
C1121 C 0.57691 0.94742 0.63401 0.0
C1122 C 0.62927 0.92773 0.63686 0.0
C1123 C 0.62305 0.90528 0.62475 0.0
C1124 C 0.59393 0.90475 0.61688 0.0
C1125 C 0.57122 0.9261 0.62152 0.0
C1126 C 0.66027 0.92954 0.64523 0.0
C1127 C 0.58647 0.88105 0.60394 0.0
C1128 C 0.68962 0.86581 0.60327 0.0
C1129 C 0.69132 0.83771 0.61168 0.0
C1130 C 0.66778 0.88819 0.60753 0.0
C1131 C 0.64694 0.88217 0.62044 0.0
C1132 C 0.64896 0.85409 0.62923 0.0
C1133 C 0.67137 0.83226 0.62483 0.0
C1134 C 0.66684 0.91816 0.59813 0.0
C1135 C 0.62702 0.84685 0.64304 0.0
H1136 H 0.61075 0.96554 0.65069 0.0
H1137 H 0.54862 0.92531 0.61586 0.0
H1138 H 0.66468 0.90793 0.6521 0.0
H1139 H 0.67887 0.93189 0.636 0.0
H1140 H 0.66178 0.94924 0.65388 0.0
H1141 H 0.56295 0.88411 0.59881 0.0
H1142 H 0.60341 0.88246 0.59381 0.0
H1143 H 0.58821 0.85757 0.60924 0.0
H1144 H 0.70549 0.87052 0.59342 0.0
H1145 H 0.6726 0.81049 0.63132 0.0
H1146 H 0.66934 0.93792 0.60665 0.0
H1147 H 0.64421 0.92066 0.59194 0.0
H1148 H 0.6853 0.9196 0.58874 0.0
H1149 H 0.6287 0.86481 0.65267 0.0
H1150 H 0.63171 0.82402 0.64868 0.0
H1151 H 0.60295 0.84703 0.63843 0.0
C1152 C 0.83284 0.8558 0.39857 0.0
C1153 C 0.80981 0.84831 0.38719 0.0
C1154 C 0.85566 0.87752 0.39488 0.0
C1155 C 0.85488 0.89285 0.37962 0.0
C1156 C 0.83086 0.8864 0.36834 0.0
C1157 C 0.80884 0.86371 0.37215 0.0
C1158 C 0.88142 0.88292 0.407 0.0
C1159 C 0.82882 0.90298 0.35214 0.0
C1160 C 0.90604 0.96369 0.37526 0.0
C1161 C 0.93061 0.95154 0.36627 0.0
C1162 C 0.88074 0.945 0.37946 0.0
C1163 C 0.88078 0.91344 0.37494 0.0
C1164 C 0.90612 0.90107 0.36623 0.0
C1165 C 0.93046 0.92047 0.36174 0.0
C1166 C 0.8537 0.95913 0.38832 0.0
C1167 C 0.90756 0.86736 0.36164 0.0
H1168 H 0.83374 0.84375 0.41018 0.0
H1169 H 0.79085 0.85812 0.36343 0.0
H1170 H 0.90367 0.87563 0.40153 0.0
H1171 H 0.8834 0.90781 0.40991 0.0
H1172 H 0.87795 0.87 0.41859 0.0
H1173 H 0.80688 0.89799 0.34564 0.0
H1174 H 0.83075 0.92825 0.35401 0.0
H1175 H 0.84826 0.89588 0.34419 0.0
H1176 H 0.90605 0.98798 0.3784 0.0
H1177 H 0.94952 0.91135 0.35465 0.0
H1178 H 0.84999 0.94728 0.40018 0.0
H1179 H 0.83241 0.95598 0.38097 0.0
H1180 H 0.85703 0.98414 0.39067 0.0
H1181 H 0.90498 0.85284 0.37274 0.0
H1182 H 0.92958 0.86121 0.35552 0.0
H1183 H 0.88827 0.86154 0.35329 0.0
C1184 C 0.79789 0.15486 0.10989 0.0
C1185 C 0.80342 0.18405 0.11659 0.0
C1186 C 0.81666 0.12968 0.11387 0.0
C1187 C 0.84183 0.13399 0.12463 0.0
C1188 C 0.84693 0.1633 0.13184 0.0
C1189 C 0.82738 0.18801 0.12784 0.0
C1190 C 0.80994 0.09865 0.10627 0.0
C1191 C 0.87366 0.16878 0.14332 0.0
C1192 C 0.87875 0.06489 0.1452 0.0
C1193 C 0.90475 0.05992 0.13537 0.0
C1194 C 0.85775 0.08852 0.14168 0.0
C1195 C 0.86313 0.10797 0.12809 0.0
C1196 C 0.88892 0.10262 0.11785 0.0
C1197 C 0.90931 0.07844 0.12153 0.0
C1198 C 0.8301 0.093 0.15265 0.0
C1199 C 0.89547 0.123 0.10328 0.0
H1200 H 0.77888 0.15168 0.10149 0.0
H1201 H 0.83164 0.2107 0.13293 0.0
H1202 H 0.82933 0.09175 0.09822 0.0
H1203 H 0.80781 0.08081 0.11593 0.0
H1204 H 0.78841 0.0988 0.09889 0.0
H1205 H 0.87401 0.1927 0.14818 0.0
H1206 H 0.87257 0.15249 0.15376 0.0
H1207 H 0.89568 0.16441 0.13681 0.0
H1208 H 0.87479 0.05046 0.15576 0.0
H1209 H 0.92949 0.07482 0.11395 0.0
H1210 H 0.8086 0.09263 0.14529 0.0
H1211 H 0.8314 0.11586 0.15869 0.0
H1212 H 0.82847 0.07496 0.16226 0.0
H1213 H 0.87553 0.12284 0.09478 0.0
H1214 H 0.91634 0.11561 0.09646 0.0
H1215 H 0.89879 0.14715 0.10741 0.0
C1216 C 0.81905 0.33705 0.6237 0.0
C1217 C 0.79927 0.34089 0.61031 0.0
C1218 C 0.8419 0.35903 0.62722 0.0
C1219 C 0.84452 0.38568 0.61728 0.0
C1220 C 0.82367 0.39027 0.6042 0.0
C1221 C 0.80142 0.36771 0.60082 0.0
C1222 C 0.86383 0.35328 0.64124 0.0
C1223 C 0.8252 0.41876 0.5936 0.0
C1224 C 0.88861 0.45273 0.63566 0.0
C1225 C 0.91761 0.44932 0.62837 0.0
C1226 C 0.86429 0.43275 0.63179 0.0
C1227 C 0.8693 0.40857 0.62049 0.0
C1228 C 0.89829 0.40575 0.61262 0.0
C1229 C 0.92209 0.42644 0.61656 0.0
C1230 C 0.83351 0.43704 0.64011 0.0
C1231 C 0.90451 0.38014 0.60056 0.0
H1232 H 0.8175 0.31625 0.63101 0.0
H1233 H 0.78569 0.37115 0.59073 0.0
H1234 H 0.8878 0.35191 0.63656 0.0
H1235 H 0.86294 0.37275 0.65003 0.0
H1236 H 0.85847 0.33161 0.6479 0.0
H1237 H 0.80632 0.41953 0.58442 0.0
H1238 H 0.82386 0.43977 0.60132 0.0
H1239 H 0.84757 0.41951 0.58705 0.0
H1240 H 0.88493 0.47097 0.64447 0.0
H1241 H 0.94462 0.42381 0.61099 0.0
H1242 H 0.8286 0.41693 0.64809 0.0
H1243 H 0.8148 0.43826 0.63088 0.0
H1244 H 0.8328 0.45825 0.64772 0.0
H1245 H 0.90225 0.35751 0.60678 0.0
H1246 H 0.92792 0.38175 0.59512 0.0
H1247 H 0.88725 0.38068 0.59054 0.0
C1248 C 0.88904 0.54922 0.851 0.0
C1249 C 0.91645 0.54598 0.85992 0.0
C1250 C 0.86697 0.57134 0.85535 0.0
C1251 C 0.87264 0.59091 0.86885 0.0
C1252 C 0.89984 0.58709 0.87825 0.0
C1253 C 0.92134 0.56443 0.87374 0.0
C1254 C 0.8379 0.57418 0.84527 0.0
C1255 C 0.90671 0.60764 0.89271 0.0
C1256 C 0.83281 0.66888 0.87021 0.0
C1257 C 0.81028 0.66373 0.88214 0.0
C1258 C 0.8532 0.64524 0.86566 0.0
C1259 C 0.85039 0.61575 0.87298 0.0
C1260 C 0.82664 0.61015 0.88446 0.0
C1261 C 0.807 0.63432 0.88898 0.0
C1262 C 0.87837 0.6521 0.85344 0.0
C1263 C 0.82235 0.57882 0.89219 0.0
H1264 H 0.88478 0.53455 0.84057 0.0
H1265 H 0.94258 0.56204 0.88062 0.0
H1266 H 0.81733 0.57263 0.85329 0.0
H1267 H 0.83723 0.59705 0.83921 0.0
H1268 H 0.83622 0.55604 0.83571 0.0
H1269 H 0.92856 0.60126 0.89895 0.0
H1270 H 0.9084 0.63196 0.8886 0.0
H1271 H 0.88764 0.60638 0.90173 0.0
H1272 H 0.83533 0.69172 0.865 0.0
H1273 H 0.78903 0.63018 0.89789 0.0
H1274 H 0.87695 0.63585 0.84298 0.0
H1275 H 0.90124 0.64876 0.85927 0.0
H1276 H 0.87705 0.67604 0.84865 0.0
H1277 H 0.82011 0.5609 0.88258 0.0
H1278 H 0.80166 0.57786 0.90019 0.0
H1279 H 0.8429 0.57292 0.89964 0.0
C1280 C 0.66655 0.64477 0.09603 0.0
C1281 C 0.68679 0.65373 0.10857 0.0
C1282 C 0.64257 0.62387 0.09897 0.0
C1283 C 0.63909 0.61102 0.11475 0.0
C1284 C 0.66021 0.61898 0.12732 0.0
C1285 C 0.68363 0.64062 0.12414 0.0
C1286 C 0.62012 0.61665 0.08535 0.0
C1287 C 0.65762 0.60519 0.14422 0.0
C1288 C 0.55939 0.58661 0.12861 0.0
C1289 C 0.56024 0.55475 0.12606 0.0
C1290 C 0.58466 0.60522 0.12459 0.0
C1291 C 0.61183 0.59139 0.11842 0.0
C1292 C 0.6127 0.5591 0.11572 0.0
C1293 C 0.58664 0.54111 0.11944 0.0
C1294 C 0.58245 0.63961 0.12726 0.0
C1295 C 0.64149 0.54349 0.1095 0.0
H1296 H 0.66875 0.65497 0.08398 0.0
H1297 H 0.69936 0.64732 0.13382 0.0
H1298 H 0.61827 0.59138 0.08357 0.0
H1299 H 0.59685 0.62519 0.08871 0.0
H1300 H 0.62695 0.62738 0.07355 0.0
H1301 H 0.67762 0.61124 0.15209 0.0
H1302 H 0.6363 0.61359 0.15023 0.0
H1303 H 0.6559 0.5797 0.14341 0.0
H1304 H 0.53899 0.5969 0.13399 0.0
H1305 H 0.58741 0.51628 0.11794 0.0
H1306 H 0.58821 0.65203 0.11579 0.0
H1307 H 0.59937 0.64691 0.13667 0.0
H1308 H 0.55909 0.64683 0.13129 0.0
H1309 H 0.64867 0.55375 0.09767 0.0
H1310 H 0.63822 0.51829 0.10779 0.0
H1311 H 0.66063 0.54723 0.1183 0.0
C1312 C 0.70389 0.36242 0.3907 0.0
C1313 C 0.70396 0.33408 0.38249 0.0
C1314 C 0.68322 0.38583 0.38633 0.0
C1315 C 0.66188 0.38057 0.37354 0.0
C1316 C 0.66258 0.35235 0.3648 0.0
C1317 C 0.68388 0.32949 0.3693 0.0
C1318 C 0.68373 0.41589 0.39566 0.0
C1319 C 0.64009 0.34588 0.35112 0.0
C1320 C 0.58723 0.42635 0.37352 0.0
C1321 C 0.59277 0.44765 0.36101 0.0
C1322 C 0.60963 0.40441 0.3778 0.0
C1323 C 0.63836 0.4043 0.36955 0.0
C1324 C 0.64447 0.42665 0.35738 0.0
C1325 C 0.62151 0.44797 0.35321 0.0
C1326 C 0.60225 0.38082 0.39081 0.0
C1327 C 0.67509 0.42779 0.34861 0.0
H1328 H 0.71998 0.36633 0.40059 0.0
H1329 H 0.68389 0.3075 0.36299 0.0
H1330 H 0.68589 0.43556 0.38705 0.0
H1331 H 0.66172 0.41888 0.40237 0.0
H1332 H 0.703 0.41699 0.4046 0.0
H1333 H 0.64421 0.32315 0.34526 0.0
H1334 H 0.61619 0.34631 0.35596 0.0
H1335 H 0.6417 0.36408 0.34163 0.0
H1336 H 0.56495 0.4261 0.37953 0.0
H1337 H 0.62619 0.46502 0.34389 0.0
H1338 H 0.61959 0.38194 0.40077 0.0
H1339 H 0.60339 0.35731 0.38549 0.0
H1340 H 0.57898 0.38427 0.39618 0.0
H1341 H 0.69417 0.42971 0.3576 0.0
H1342 H 0.67662 0.44748 0.33995 0.0
H1343 H 0.6787 0.4061 0.34168 0.0
C1344 C 0.11594 0.55615 0.35579 0.0
C1345 C 0.08797 0.55604 0.36435 0.0
C1346 C 0.13939 0.57711 0.35974 0.0
C1347 C 0.13456 0.59865 0.37248 0.0
C1348 C 0.10676 0.59786 0.38158 0.0
C1349 C 0.08384 0.57631 0.37748 0.0
C1350 C 0.169 0.57668 0.35003 0.0
C1351 C 0.10078 0.62053 0.39523 0.0
C1352 C 0.20228 0.64019 0.39188 0.0
C1353 C 0.20113 0.6689 0.38406 0.0
C1354 C 0.18121 0.61681 0.38796 0.0
C1355 C 0.15828 0.62247 0.37603 0.0
C1356 C 0.15767 0.65111 0.36768 0.0
C1357 C 0.17935 0.67395 0.37171 0.0
C1358 C 0.18313 0.58631 0.39682 0.0
C1359 C 0.13348 0.658 0.35491 0.0
H1360 H 0.11953 0.53989 0.34595 0.0
H1361 H 0.06214 0.57625 0.38406 0.0
H1362 H 0.17146 0.59859 0.34315 0.0
H1363 H 0.18909 0.57488 0.35838 0.0
H1364 H 0.16984 0.55724 0.34119 0.0
H1365 H 0.07837 0.6163 0.40141 0.0
H1366 H 0.11945 0.61923 0.40448 0.0
H1367 H 0.10077 0.64434 0.39026 0.0
H1368 H 0.21966 0.63592 0.40108 0.0
H1369 H 0.17844 0.69622 0.3657 0.0
H1370 H 0.18456 0.56712 0.38788 0.0
H1371 H 0.16194 0.58268 0.40416 0.0
H1372 H 0.20338 0.58505 0.40512 0.0
H1373 H 0.13422 0.64039 0.34507 0.0
H1374 H 0.13657 0.68113 0.34931 0.0
H1375 H 0.11022 0.65688 0.36053 0.0
C1376 C 0.16037 0.30649 0.12977 0.0
C1377 C 0.1923 0.30923 0.12815 0.0
C1378 C 0.14222 0.33223 0.13354 0.0
C1379 C 0.15644 0.36143 0.13538 0.0
C1380 C 0.18892 0.36407 0.13421 0.0
C1381 C 0.20655 0.33779 0.1306 0.0
C1382 C 0.1077 0.32838 0.13488 0.0
C1383 C 0.20485 0.39483 0.13597 0.0
C1384 C 0.10306 0.42903 0.12705 0.0
C1385 C 0.0942 0.43725 0.14294 0.0
C1386 C 0.12444 0.4052 0.12441 0.0
C1387 C 0.13698 0.38918 0.13799 0.0
C1388 C 0.12893 0.39813 0.15405 0.0
C1389 C 0.10767 0.42204 0.15633 0.0
C1390 C 0.13274 0.39643 0.10709 0.0
C1391 C 0.14166 0.38153 0.16883 0.0
H1392 H 0.1495 0.28439 0.12746 0.0
H1393 H 0.23125 0.33982 0.12885 0.0
H1394 H 0.09934 0.33806 0.14663 0.0
H1395 H 0.09619 0.34131 0.12489 0.0
H1396 H 0.10053 0.30383 0.13412 0.0
H1397 H 0.23037 0.3926 0.13584 0.0
H1398 H 0.19784 0.41021 0.12578 0.0
H1399 H 0.19781 0.40619 0.14754 0.0
H1400 H 0.09282 0.44073 0.11667 0.0
H1401 H 0.10083 0.42804 0.16867 0.0
H1402 H 0.12378 0.37303 0.10436 0.0
H1403 H 0.15816 0.39564 0.10563 0.0
H1404 H 0.1231 0.41279 0.09796 0.0
H1405 H 0.13285 0.35751 0.16904 0.0
H1406 H 0.13511 0.39296 0.18049 0.0
H1407 H 0.16716 0.38026 0.16816 0.0
C1408 C 0.42075 0.4253 0.87654 0.0
C1409 C 0.41855 0.44147 0.86174 0.0
C1410 C 0.39844 0.40333 0.88091 0.0
C1411 C 0.37306 0.39793 0.87037 0.0
C1412 C 0.37026 0.41486 0.85567 0.0
C1413 C 0.39318 0.43621 0.85148 0.0
C1414 C 0.40234 0.38546 0.89663 0.0
C1415 C 0.34313 0.4103 0.84432 0.0
C1416 C 0.33096 0.32145 0.87421 0.0
C1417 C 0.30689 0.32938 0.88477 0.0
C1418 C 0.3526 0.34366 0.86926 0.0
C1419 C 0.34946 0.37451 0.87473 0.0
C1420 C 0.32416 0.38283 0.88472 0.0
C1421 C 0.30334 0.36004 0.88976 0.0
C1422 C 0.37949 0.33387 0.85875 0.0
C1423 C 0.31948 0.41563 0.89039 0.0
H1424 H 0.4404 0.42916 0.88448 0.0
H1425 H 0.39097 0.44887 0.84018 0.0
H1426 H 0.38211 0.38915 0.90469 0.0
H1427 H 0.40353 0.36041 0.89392 0.0
H1428 H 0.42349 0.39226 0.9034 0.0
H1429 H 0.34381 0.42615 0.83364 0.0
H1430 H 0.34278 0.38623 0.83974 0.0
H1431 H 0.32125 0.41411 0.85104 0.0
H1432 H 0.33371 0.29762 0.87048 0.0
H1433 H 0.28432 0.36617 0.8977 0.0
H1434 H 0.40136 0.33771 0.8655 0.0
H1435 H 0.38046 0.34808 0.84748 0.0
H1436 H 0.37813 0.30919 0.85519 0.0
H1437 H 0.33874 0.42256 0.89854 0.0
H1438 H 0.29746 0.41863 0.89714 0.0
H1439 H 0.31962 0.43155 0.87976 0.0
C1440 C 0.39238 0.55746 0.62358 0.0
C1441 C 0.41227 0.56382 0.63663 0.0
C1442 C 0.36852 0.57807 0.61953 0.0
C1443 C 0.36554 0.60611 0.62833 0.0
C1444 C 0.38576 0.61251 0.64148 0.0
C1445 C 0.40846 0.591 0.64566 0.0
C1446 C 0.34669 0.57001 0.60579 0.0
C1447 C 0.38425 0.64262 0.65075 0.0
C1448 C 0.3312 0.67479 0.60634 0.0
C1449 C 0.30281 0.67816 0.61427 0.0
C1450 C 0.35173 0.65137 0.61078 0.0
C1451 C 0.3431 0.63 0.62303 0.0
C1452 C 0.31399 0.63278 0.6308 0.0
C1453 C 0.29435 0.65733 0.62654 0.0
C1454 C 0.38297 0.65002 0.60263 0.0
C1455 C 0.30362 0.60979 0.64351 0.0
H1456 H 0.39515 0.53622 0.61675 0.0
H1457 H 0.42402 0.59593 0.65572 0.0
H1458 H 0.32246 0.57285 0.60989 0.0
H1459 H 0.35031 0.58593 0.59535 0.0
H1460 H 0.34997 0.546 0.6014 0.0
H1461 H 0.40158 0.64387 0.66074 0.0
H1462 H 0.38828 0.66212 0.64222 0.0
H1463 H 0.36101 0.64582 0.65612 0.0
H1464 H 0.33766 0.69103 0.59685 0.0
H1465 H 0.27213 0.65976 0.63247 0.0
H1466 H 0.386 0.62757 0.59636 0.0
H1467 H 0.4014 0.65188 0.61201 0.0
H1468 H 0.38622 0.66874 0.59352 0.0
H1469 H 0.30565 0.58602 0.63861 0.0
H1470 H 0.27941 0.61373 0.64741 0.0
H1471 H 0.31871 0.61123 0.65444 0.0
C1472 C 0.41658 0.07142 0.13111 0.0
C1473 C 0.40509 0.04737 0.14088 0.0
C1474 C 0.39725 0.09505 0.12544 0.0
C1475 C 0.3657 0.09495 0.1298 0.0
C1476 C 0.35413 0.07137 0.1401 0.0
C1477 C 0.3739 0.04774 0.14543 0.0
C1478 C 0.41043 0.11959 0.11434 0.0
C1479 C 0.3207 0.07076 0.14522 0.0
C1480 C 0.32078 0.16969 0.12494 0.0
C1481 C 0.30454 0.16437 0.11035 0.0
C1482 C 0.34059 0.14723 0.13149 0.0
C1483 C 0.34463 0.11896 0.12311 0.0
C1484 C 0.32871 0.11366 0.10823 0.0
C1485 C 0.30869 0.13633 0.1021 0.0
C1486 C 0.35689 0.1536 0.14747 0.0
C1487 C 0.33281 0.08401 0.0988 0.0
H1488 H 0.44057 0.07134 0.12743 0.0
H1489 H 0.3648 0.02934 0.15299 0.0
H1490 H 0.39892 0.11854 0.10222 0.0
H1491 H 0.40594 0.14281 0.11949 0.0
H1492 H 0.43567 0.11692 0.11251 0.0
H1493 H 0.31573 0.05194 0.15405 0.0
H1494 H 0.31422 0.09308 0.15088 0.0
H1495 H 0.30582 0.06756 0.1343 0.0
H1496 H 0.31756 0.1912 0.13147 0.0
H1497 H 0.29631 0.13209 0.09079 0.0
H1498 H 0.38221 0.15228 0.14572 0.0
H1499 H 0.35056 0.13579 0.15661 0.0
H1500 H 0.3511 0.17665 0.15252 0.0
H1501 H 0.35749 0.08066 0.09573 0.0
H1502 H 0.31919 0.08369 0.08728 0.0
H1503 H 0.32563 0.06414 0.10644 0.0
C1504 C 0.17041 0.13644 0.40689 0.0
C1505 C 0.17815 0.16608 0.40134 0.0
C1506 C 0.14394 0.12128 0.4012 0.0
C1507 C 0.1246 0.13607 0.38967 0.0
C1508 C 0.1317 0.16631 0.38435 0.0
C1509 C 0.15839 0.18097 0.39025 0.0
C1510 C 0.13714 0.08904 0.4072 0.0
C1511 C 0.11155 0.18287 0.37211 0.0
C1512 C 0.07747 0.08207 0.36301 0.0
C1513 C 0.0489 0.08203 0.37106 0.0
C1514 C 0.10198 0.10034 0.36864 0.0
C1515 C 0.09785 0.1191 0.38265 0.0
C1516 C 0.06878 0.11999 0.3905 0.0
C1517 C 0.04465 0.10142 0.38462 0.0
C1518 C 0.13262 0.09876 0.35992 0.0
C1519 C 0.06345 0.13982 0.40542 0.0
H1520 H 0.18537 0.12471 0.4155 0.0
H1521 H 0.16403 0.2039 0.38592 0.0
H1522 H 0.11353 0.0879 0.41236 0.0
H1523 H 0.13809 0.07264 0.39679 0.0
H1524 H 0.15374 0.0813 0.41671 0.0
H1525 H 0.11921 0.20698 0.36997 0.0
H1526 H 0.11192 0.17036 0.36027 0.0
H1527 H 0.0873 0.18319 0.37641 0.0
H1528 H 0.08096 0.0673 0.35248 0.0
H1529 H 0.02261 0.10169 0.39086 0.0
H1530 H 0.15027 0.08881 0.36821 0.0
H1531 H 0.14047 0.12225 0.35654 0.0
H1532 H 0.13154 0.08446 0.34865 0.0
H1533 H 0.0778 0.13128 0.41571 0.0
H1534 H 0.03893 0.13977 0.40933 0.0
H1535 H 0.07059 0.16393 0.40294 0.0
C1536 C 0.08671 0.91538 0.64714 0.0
C1537 C 0.10253 0.94122 0.65324 0.0
C1538 C 0.10254 0.88855 0.64248 0.0
C1539 C 0.13504 0.88744 0.6439 0.0
C1540 C 0.15111 0.91309 0.65043 0.0
C1541 C 0.13467 0.93963 0.65505 0.0
C1542 C 0.08453 0.86165 0.63567 0.0
C1543 C 0.18577 0.9128 0.65213 0.0
C1544 C 0.17542 0.80953 0.64282 0.0
C1545 C 0.18565 0.80814 0.62653 0.0
C1546 C 0.15881 0.8351 0.64863 0.0
C1547 C 0.15231 0.85994 0.63793 0.0
C1548 C 0.16232 0.85855 0.62145 0.0
C1549 C 0.17879 0.83268 0.61595 0.0
C1550 C 0.14838 0.83564 0.66625 0.0
C1551 C 0.15585 0.88455 0.60965 0.0
H1552 H 0.06188 0.91623 0.64574 0.0
H1553 H 0.14716 0.9594 0.65973 0.0
H1554 H 0.0913 0.85753 0.62277 0.0
H1555 H 0.08995 0.84036 0.64262 0.0
H1556 H 0.05924 0.86557 0.63612 0.0
H1557 H 0.19469 0.93403 0.65809 0.0
H1558 H 0.19318 0.89255 0.65943 0.0
H1559 H 0.19652 0.91065 0.63987 0.0
H1560 H 0.18056 0.79069 0.65109 0.0
H1561 H 0.18659 0.83188 0.60336 0.0
H1562 H 0.12297 0.83835 0.66685 0.0
H1563 H 0.15869 0.85572 0.67264 0.0
H1564 H 0.1549 0.81432 0.67294 0.0
H1565 H 0.13063 0.8884 0.60867 0.0
H1566 H 0.16512 0.87989 0.59722 0.0
H1567 H 0.16624 0.90624 0.61428 0.0
C1568 C 0.42832 0.92125 0.86683 0.0
C1569 C 0.45707 0.92007 0.8747 0.0
C1570 C 0.40336 0.90352 0.8724 0.0
C1571 C 0.40717 0.88407 0.88618 0.0
C1572 C 0.43629 0.88222 0.89395 0.0
C1573 C 0.46088 0.90024 0.88813 0.0
C1574 C 0.37268 0.90614 0.86377 0.0
C1575 C 0.44128 0.86173 0.90865 0.0
C1576 C 0.3348 0.86583 0.91045 0.0
C1577 C 0.32699 0.83636 0.90464 0.0
C1578 C 0.36111 0.88128 0.90475 0.0
C1579 C 0.38021 0.86702 0.89294 0.0
C1580 C 0.37292 0.83703 0.88727 0.0
C1581 C 0.34642 0.82205 0.89319 0.0
C1582 C 0.3681 0.91321 0.91115 0.0
C1583 C 0.39277 0.82103 0.8747 0.0
H1584 H 0.42515 0.93639 0.85642 0.0
H1585 H 0.48302 0.89904 0.89424 0.0
H1586 H 0.36449 0.88299 0.85996 0.0
H1587 H 0.35522 0.91574 0.87228 0.0
H1588 H 0.37388 0.92118 0.85279 0.0
H1589 H 0.46571 0.86158 0.91274 0.0
H1590 H 0.42668 0.86974 0.91895 0.0
H1591 H 0.43423 0.83774 0.90578 0.0
H1592 H 0.32009 0.87713 0.91932 0.0
H1593 H 0.3407 0.79929 0.88863 0.0
H1594 H 0.36731 0.93007 0.90095 0.0
H1595 H 0.39171 0.91395 0.91636 0.0
H1596 H 0.35153 0.92066 0.92073 0.0
H1597 H 0.39266 0.83439 0.86312 0.0
H1598 H 0.38471 0.79723 0.87206 0.0
H1599 H 0.417 0.81998 0.87901 0.0
C1600 C 0.32302 0.82545 0.38241 0.0
C1601 C 0.32167 0.79823 0.37315 0.0
C1602 C 0.3398 0.85114 0.37693 0.0
C1603 C 0.35562 0.84967 0.3618 0.0
C1604 C 0.35483 0.82211 0.35252 0.0
C1605 C 0.33788 0.79672 0.35831 0.0
C1606 C 0.34012 0.88008 0.38721 0.0
C1607 C 0.37139 0.81964 0.33633 0.0
C1608 C 0.37049 0.926 0.3404 0.0
C1609 C 0.40138 0.93192 0.34448 0.0
C1610 C 0.35557 0.89909 0.34571 0.0
C1611 C 0.37183 0.87747 0.35539 0.0
C1612 C 0.40316 0.88294 0.35932 0.0
C1613 C 0.41758 0.91006 0.35381 0.0
C1614 C 0.32216 0.89408 0.3412 0.0
C1615 C 0.42129 0.86043 0.36962 0.0
H1616 H 0.31069 0.82684 0.39392 0.0
H1617 H 0.33708 0.77579 0.35108 0.0
H1618 H 0.36422 0.88705 0.38987 0.0
H1619 H 0.32921 0.89925 0.38034 0.0
H1620 H 0.32768 0.87709 0.39898 0.0
H1621 H 0.36962 0.79619 0.33094 0.0
H1622 H 0.36155 0.83645 0.32754 0.0
H1623 H 0.39612 0.82547 0.33789 0.0
H1624 H 0.35773 0.9426 0.33316 0.0
H1625 H 0.44143 0.91434 0.35706 0.0
H1626 H 0.30788 0.89323 0.35245 0.0
H1627 H 0.31939 0.87163 0.33486 0.0
H1628 H 0.31308 0.91259 0.33313 0.0
H1629 H 0.41068 0.8585 0.38193 0.0
H1630 H 0.44576 0.86749 0.3711 0.0
H1631 H 0.4206 0.83717 0.36399 0.0
C1632 C 0.347 0.17568 0.60794 0.0
C1633 C 0.32655 0.16208 0.59673 0.0
C1634 C 0.37315 0.15973 0.61355 0.0
C1635 C 0.379 0.12947 0.60783 0.0
C1636 C 0.35892 0.11594 0.59622 0.0
C1637 C 0.33301 0.13237 0.59081 0.0
C1638 C 0.39413 0.17497 0.62588 0.0
C1639 C 0.36436 0.08374 0.5898 0.0
C1640 C 0.45828 0.09294 0.61214 0.0
C1641 C 0.45404 0.07357 0.62571 0.0
C1642 C 0.43431 0.11186 0.60642 0.0
C1643 C 0.40538 0.11133 0.61442 0.0
C1644 C 0.40114 0.09227 0.6283 0.0
C1645 C 0.42551 0.07367 0.63379 0.0
C1646 C 0.43975 0.13197 0.59161 0.0
C1647 C 0.37061 0.09102 0.63716 0.0
H1648 H 0.34232 0.19861 0.61257 0.0
H1649 H 0.3175 0.12162 0.58212 0.0
H1650 H 0.39372 0.16181 0.63752 0.0
H1651 H 0.41825 0.17482 0.62139 0.0
H1652 H 0.38728 0.19917 0.62847 0.0
H1653 H 0.34723 0.07697 0.58035 0.0
H1654 H 0.38778 0.08199 0.58443 0.0
H1655 H 0.36313 0.06695 0.60003 0.0
H1656 H 0.48029 0.09317 0.60587 0.0
H1657 H 0.42202 0.05886 0.64431 0.0
H1658 H 0.43387 0.15627 0.59446 0.0
H1659 H 0.42448 0.12451 0.58146 0.0
H1660 H 0.46402 0.131 0.58732 0.0
H1661 H 0.3636 0.11451 0.64102 0.0
H1662 H 0.37144 0.07595 0.64815 0.0
H1663 H 0.35249 0.0822 0.62879 0.0
C1664 C 0.09203 0.08215 0.87025 0.0
C1665 C 0.10693 0.06112 0.85986 0.0
C1666 C 0.10832 0.10639 0.87771 0.0
C1667 C 0.14026 0.10982 0.87464 0.0
C1668 C 0.1553 0.0891 0.86391 0.0
C1669 C 0.13851 0.065 0.85668 0.0
C1670 C 0.09148 0.12799 0.8891 0.0
C1671 C 0.18928 0.09212 0.86022 0.0
C1672 C 0.17947 0.18672 0.88275 0.0
C1673 C 0.19469 0.18104 0.89762 0.0
C1674 C 0.16131 0.16392 0.87526 0.0
C1675 C 0.15815 0.13475 0.88284 0.0
C1676 C 0.1729 0.12908 0.89801 0.0
C1677 C 0.19104 0.15226 0.9052 0.0
C1678 C 0.14603 0.17084 0.85906 0.0
C1679 C 0.16991 0.09833 0.90653 0.0
H1680 H 0.06769 0.07938 0.87284 0.0
H1681 H 0.15028 0.04898 0.84866 0.0
H1682 H 0.10156 0.12647 0.90156 0.0
H1683 H 0.09428 0.15216 0.88492 0.0
H1684 H 0.06647 0.12269 0.88988 0.0
H1685 H 0.19735 0.07466 0.85125 0.0
H1686 H 0.1943 0.11542 0.85529 0.0
H1687 H 0.20281 0.08946 0.87166 0.0
H1688 H 0.1821 0.20888 0.87679 0.0
H1689 H 0.2026 0.14769 0.91671 0.0
H1690 H 0.12084 0.16673 0.85993 0.0
H1691 H 0.15511 0.1551 0.84951 0.0
H1692 H 0.14991 0.195 0.85504 0.0
H1693 H 0.14523 0.09268 0.90845 0.0
H1694 H 0.18182 0.09799 0.91856 0.0
H1695 H 0.17983 0.07991 0.89873 0.0
C1696 C 0.15878 0.8838 0.08892 0.0
C1697 C 0.16672 0.85491 0.09544 0.0
C1698 C 0.13191 0.89917 0.0939 0.0
C1699 C 0.11237 0.88536 0.10567 0.0
C1700 C 0.11987 0.85598 0.11208 0.0
C1701 C 0.14695 0.84113 0.10691 0.0
C1702 C 0.12474 0.93051 0.08679 0.0
C1703 C 0.09954 0.84046 0.12462 0.0
C1704 C 0.06137 0.93871 0.13068 0.0
C1705 C 0.03287 0.93588 0.12268 0.0
C1706 C 0.0873 0.9222 0.12535 0.0
C1707 C 0.08472 0.90225 0.11171 0.0
C1708 C 0.05598 0.899 0.10367 0.0
C1709 C 0.0304 0.9159 0.10923 0.0
C1710 C 0.11757 0.92636 0.13423 0.0
C1711 C 0.05231 0.87787 0.08912 0.0
H1712 H 0.17379 0.8947 0.08004 0.0
H1713 H 0.15275 0.8188 0.11201 0.0
H1714 H 0.10144 0.93044 0.0812 0.0
H1715 H 0.12461 0.94804 0.09668 0.0
H1716 H 0.14174 0.93763 0.07736 0.0
H1717 H 0.10789 0.81704 0.12788 0.0
H1718 H 0.09865 0.85463 0.13591 0.0
H1719 H 0.07563 0.83856 0.1199 0.0
H1720 H 0.06353 0.95406 0.14108 0.0
H1721 H 0.00847 0.91346 0.103 0.0
H1722 H 0.1352 0.9355 0.12568 0.0
H1723 H 0.12603 0.90378 0.13875 0.0
H1724 H 0.11561 0.94237 0.14479 0.0
H1725 H 0.06768 0.88551 0.07906 0.0
H1726 H 0.02824 0.87731 0.08448 0.0
H1727 H 0.05929 0.85408 0.09246 0.0
C1728 C 0.66581 0.78414 0.8616 0.0
C1729 C 0.68514 0.78802 0.87523 0.0
C1730 C 0.64663 0.80814 0.85615 0.0
C1731 C 0.64679 0.83672 0.86452 0.0
C1732 C 0.66575 0.84056 0.87848 0.0
C1733 C 0.68467 0.81618 0.88367 0.0
C1734 C 0.62668 0.80314 0.84124 0.0
C1735 C 0.66658 0.87068 0.88775 0.0
C1736 C 0.62549 0.91011 0.84188 0.0
C1737 C 0.5957 0.91612 0.84781 0.0
C1738 C 0.64199 0.88398 0.84693 0.0
C1739 C 0.62847 0.86323 0.8582 0.0
C1740 C 0.5981 0.86858 0.86388 0.0
C1741 C 0.58206 0.89495 0.85861 0.0
C1742 C 0.67428 0.87906 0.84053 0.0
C1743 C 0.58287 0.84692 0.87586 0.0
H1744 H 0.66587 0.76242 0.85504 0.0
H1745 H 0.69941 0.81938 0.89425 0.0
H1746 H 0.60231 0.80872 0.84409 0.0
H1747 H 0.6341 0.81888 0.83128 0.0
H1748 H 0.62788 0.77905 0.83666 0.0
H1749 H 0.6815 0.86949 0.89878 0.0
H1750 H 0.67534 0.88926 0.87965 0.0
H1751 H 0.64297 0.87729 0.89159 0.0
H1752 H 0.63626 0.92616 0.83348 0.0
H1753 H 0.55908 0.89928 0.86326 0.0
H1754 H 0.67629 0.85586 0.83491 0.0
H1755 H 0.69098 0.88006 0.8508 0.0
H1756 H 0.68096 0.8966 0.83128 0.0
H1757 H 0.58342 0.82298 0.87109 0.0
H1758 H 0.55855 0.85336 0.87837 0.0
H1759 H 0.59579 0.84703 0.88759 0.0
C1760 C 0.90398 0.94714 0.64769 0.0
C1761 C 0.93499 0.94734 0.64283 0.0
C1762 C 0.8825 0.92751 0.64014 0.0
C1763 C 0.89221 0.90769 0.62737 0.0
C1764 C 0.92364 0.90708 0.62275 0.0
C1765 C 0.94466 0.92683 0.63057 0.0
C1766 C 0.84922 0.92863 0.64552 0.0
C1767 C 0.93487 0.88634 0.60917 0.0
C1768 C 0.83821 0.84228 0.61545 0.0
C1769 C 0.82201 0.85532 0.60227 0.0
C1770 C 0.86159 0.85877 0.62354 0.0
C1771 C 0.8691 0.88893 0.61827 0.0
C1772 C 0.85364 0.90178 0.60462 0.0
C1773 C 0.83027 0.88488 0.59682 0.0
C1774 C 0.87753 0.8443 0.63806 0.0
C1775 C 0.8612 0.93376 0.5985 0.0
H1776 H 0.89632 0.96276 0.6572 0.0
H1777 H 0.96858 0.92676 0.62673 0.0
H1778 H 0.83465 0.93719 0.63533 0.0
H1779 H 0.841 0.90514 0.64866 0.0
H1780 H 0.84576 0.94388 0.65629 0.0
H1781 H 0.96033 0.88714 0.60775 0.0
H1782 H 0.92785 0.86215 0.61153 0.0
H1783 H 0.92414 0.89339 0.59742 0.0
H1784 H 0.83202 0.8195 0.6198 0.0
H1785 H 0.81807 0.89514 0.58661 0.0
H1786 H 0.87219 0.85769 0.64928 0.0
H1787 H 0.9029 0.84496 0.63639 0.0
H1788 H 0.87034 0.82 0.64002 0.0
H1789 H 0.85568 0.95098 0.6081 0.0
H1790 H 0.8482 0.93978 0.58723 0.0
H1791 H 0.88623 0.93567 0.59589 0.0
C1792 C 0.83937 0.20809 0.35838 0.0
C1793 C 0.82307 0.20558 0.37316 0.0
C1794 C 0.85733 0.18354 0.35248 0.0
C1795 C 0.85909 0.15583 0.36159 0.0
C1796 C 0.84298 0.15328 0.37659 0.0
C1797 C 0.82517 0.17815 0.38219 0.0
C1798 C 0.87417 0.18713 0.33643 0.0
C1799 C 0.84435 0.12414 0.38669 0.0
C1800 C 0.87975 0.08047 0.34056 0.0
C1801 C 0.91064 0.07649 0.34526 0.0
C1802 C 0.86296 0.10655 0.34546 0.0
C1803 C 0.87731 0.12922 0.35533 0.0
C1804 C 0.90867 0.12579 0.35976 0.0
C1805 C 0.92496 0.09953 0.35465 0.0
C1806 C 0.82959 0.10946 0.3404 0.0
C1807 C 0.9248 0.14945 0.37028 0.0
H1808 H 0.83795 0.2292 0.35133 0.0
H1809 H 0.81273 0.17599 0.39363 0.0
H1810 H 0.8992 0.1831 0.33823 0.0
H1811 H 0.86586 0.16961 0.32757 0.0
H1812 H 0.87093 0.21037 0.33099 0.0
H1813 H 0.83099 0.12607 0.39824 0.0
H1814 H 0.8351 0.1045 0.37951 0.0
H1815 H 0.86864 0.11862 0.38977 0.0
H1816 H 0.86844 0.06293 0.33327 0.0
H1817 H 0.9488 0.09679 0.35835 0.0
H1818 H 0.82568 0.13187 0.3342 0.0
H1819 H 0.81464 0.10899 0.35141 0.0
H1820 H 0.82227 0.09063 0.33205 0.0
H1821 H 0.92275 0.17266 0.36469 0.0
H1822 H 0.94963 0.14411 0.37203 0.0
H1823 H 0.9136 0.15054 0.38247 0.0
C1824 C 0.66153 0.17942 0.11398 0.0
C1825 C 0.67971 0.16815 0.10108 0.0
C1826 C 0.63841 0.16108 0.1211 0.0
C1827 C 0.63329 0.13084 0.11515 0.0
C1828 C 0.65053 0.11995 0.10164 0.0
C1829 C 0.67348 0.13868 0.09479 0.0
C1830 C 0.6204 0.17356 0.13545 0.0
C1831 C 0.64562 0.08794 0.09481 0.0
C1832 C 0.60244 0.06725 0.14253 0.0
C1833 C 0.57213 0.06404 0.1368 0.0
C1834 C 0.62218 0.08983 0.13607 0.0
C1835 C 0.61137 0.1097 0.12356 0.0
C1836 C 0.58041 0.10748 0.11823 0.0
C1837 C 0.56115 0.08469 0.12491 0.0
C1838 C 0.65502 0.09155 0.14215 0.0
C1839 C 0.56799 0.1283 0.10497 0.0
H1840 H 0.66614 0.20213 0.11895 0.0
H1841 H 0.68717 0.1298 0.08475 0.0
H1842 H 0.59531 0.17034 0.13345 0.0
H1843 H 0.62665 0.16061 0.14667 0.0
H1844 H 0.62501 0.19843 0.13759 0.0
H1845 H 0.65956 0.08367 0.08364 0.0
H1846 H 0.65199 0.07053 0.10417 0.0
H1847 H 0.62095 0.08436 0.09179 0.0
H1848 H 0.61109 0.05156 0.15178 0.0
H1849 H 0.53771 0.08253 0.12046 0.0
H1850 H 0.66079 0.11551 0.14578 0.0
H1851 H 0.67102 0.08492 0.13216 0.0
H1852 H 0.65916 0.07609 0.15277 0.0
H1853 H 0.57321 0.15276 0.10782 0.0
H1854 H 0.54268 0.12574 0.10336 0.0
H1855 H 0.57941 0.12278 0.09319 0.0
C1856 C 0.68433 0.15869 0.60369 0.0
C1857 C 0.68666 0.18903 0.6095 0.0
C1858 C 0.66498 0.13714 0.61136 0.0
C1859 C 0.64753 0.1461 0.62521 0.0
C1860 C 0.64941 0.17679 0.63101 0.0
C1861 C 0.66893 0.19789 0.62309 0.0
C1862 C 0.66357 0.10463 0.60478 0.0
C1863 C 0.63118 0.18719 0.64575 0.0
C1864 C 0.58045 0.0938 0.63659 0.0
C1865 C 0.59391 0.07475 0.6485 0.0
C1866 C 0.5973 0.11776 0.62923 0.0
C1867 C 0.6283 0.12289 0.63395 0.0
C1868 C 0.64157 0.10464 0.64646 0.0
C1869 C 0.62426 0.08081 0.65356 0.0
C1870 C 0.58231 0.1368 0.61597 0.0
C1871 C 0.67448 0.10951 0.65194 0.0
H1872 H 0.69782 0.15163 0.59318 0.0
H1873 H 0.6705 0.2213 0.62765 0.0
H1874 H 0.67184 0.08822 0.61423 0.0
H1875 H 0.63938 0.09836 0.60188 0.0
H1876 H 0.67776 0.10163 0.59359 0.0
H1877 H 0.63425 0.21216 0.64832 0.0
H1878 H 0.60629 0.18253 0.64385 0.0
H1879 H 0.63849 0.17393 0.65669 0.0
H1880 H 0.55704 0.08941 0.63259 0.0
H1881 H 0.63488 0.06642 0.66282 0.0
H1882 H 0.59401 0.13242 0.60413 0.0
H1883 H 0.58484 0.16173 0.61869 0.0
H1884 H 0.55741 0.13143 0.61455 0.0
H1885 H 0.6904 0.10426 0.64169 0.0
H1886 H 0.68072 0.09471 0.66252 0.0
H1887 H 0.67821 0.13397 0.65538 0.0
C1888 C 0.54106 0.92141 0.38047 0.0
C1889 C 0.54364 0.93835 0.3659 0.0
C1890 C 0.56617 0.90471 0.38673 0.0
C1891 C 0.59461 0.90499 0.37825 0.0
C1892 C 0.59718 0.92147 0.36335 0.0
C1893 C 0.57166 0.9379 0.35733 0.0
C1894 C 0.56244 0.8873 0.40261 0.0
C1895 C 0.62711 0.9223 0.35393 0.0
C1896 C 0.66827 0.89002 0.4022 0.0
C1897 C 0.67501 0.85938 0.39797 0.0
C1898 C 0.64208 0.905 0.39597 0.0
C1899 C 0.622 0.889 0.38527 0.0
C1900 C 0.62831 0.85793 0.38116 0.0
C1901 C 0.65472 0.84351 0.38754 0.0
C1902 C 0.63615 0.93815 0.40067 0.0
C1903 C 0.60737 0.84004 0.36985 0.0
H1904 H 0.51948 0.92147 0.38715 0.0
H1905 H 0.57388 0.95088 0.34606 0.0
H1906 H 0.56905 0.8628 0.40092 0.0
H1907 H 0.57806 0.89713 0.41202 0.0
H1908 H 0.53844 0.88822 0.40731 0.0
H1909 H 0.62501 0.9352 0.34224 0.0
H1910 H 0.64528 0.93335 0.36149 0.0
H1911 H 0.63493 0.89851 0.35119 0.0
H1912 H 0.68372 0.90256 0.41023 0.0
H1913 H 0.65961 0.81984 0.38418 0.0
H1914 H 0.61308 0.94031 0.40641 0.0
H1915 H 0.63612 0.95284 0.38956 0.0
H1916 H 0.65371 0.9472 0.40932 0.0
H1917 H 0.58351 0.83993 0.37473 0.0
H1918 H 0.61505 0.81581 0.36819 0.0
H1919 H 0.60658 0.85137 0.35769 0.0
C1920 C 0.82336 0.79553 0.1235 0.0
C1921 C 0.80394 0.80302 0.11034 0.0
C1922 C 0.84242 0.81792 0.13076 0.0
C1923 C 0.84204 0.84853 0.12474 0.0
C1924 C 0.82292 0.85607 0.11127 0.0
C1925 C 0.80415 0.83326 0.10425 0.0
C1926 C 0.86253 0.80899 0.14508 0.0
C1927 C 0.8218 0.88843 0.10447 0.0
C1928 C 0.8627 0.91591 0.15228 0.0
C1929 C 0.89213 0.9241 0.14658 0.0
C1930 C 0.84665 0.89075 0.14565 0.0
C1931 C 0.86027 0.87321 0.13298 0.0
C1932 C 0.89041 0.88056 0.12755 0.0
C1933 C 0.90599 0.9059 0.13442 0.0
C1934 C 0.81462 0.88364 0.15184 0.0
C1935 C 0.90576 0.86233 0.1141 0.0
H1936 H 0.82347 0.7722 0.12826 0.0
H1937 H 0.78936 0.83929 0.09405 0.0
H1938 H 0.88684 0.81544 0.14263 0.0
H1939 H 0.85515 0.82177 0.15616 0.0
H1940 H 0.86147 0.78389 0.14773 0.0
H1941 H 0.80667 0.89024 0.09354 0.0
H1942 H 0.81314 0.90452 0.11397 0.0
H1943 H 0.84531 0.89617 0.10106 0.0
H1944 H 0.85178 0.9296 0.16174 0.0
H1945 H 0.92872 0.9119 0.12994 0.0
H1946 H 0.81297 0.85909 0.15554 0.0
H1947 H 0.79761 0.88738 0.14188 0.0
H1948 H 0.80806 0.89828 0.16243 0.0
H1949 H 0.90519 0.83735 0.11699 0.0
H1950 H 0.9301 0.86942 0.11216 0.0
H1951 H 0.89295 0.86561 0.10247 0.0
C1952 C 0.94683 0.07752 0.87223 0.0
C1953 C 0.93817 0.05848 0.8591 0.0
C1954 C 0.92545 0.09721 0.87979 0.0
C1955 C 0.89464 0.09793 0.87409 0.0
C1956 C 0.88599 0.07952 0.86053 0.0
C1957 C 0.90784 0.06003 0.8532 0.0
C1958 C 0.9356 0.11653 0.89419 0.0
C1959 C 0.85338 0.07972 0.85405 0.0
C1960 C 0.82987 0.11946 0.90315 0.0
C1961 C 0.8226 0.14953 0.89809 0.0
C1962 C 0.85379 0.10279 0.89573 0.0
C1963 C 0.87095 0.11643 0.8829 0.0
C1964 C 0.86455 0.14714 0.87812 0.0
C1965 C 0.8405 0.16335 0.88578 0.0
C1966 C 0.86004 0.07016 0.90128 0.0
C1967 C 0.88241 0.16253 0.86453 0.0
H1968 H 0.97024 0.07661 0.87685 0.0
H1969 H 0.90094 0.04554 0.84303 0.0
H1970 H 0.9294 0.14105 0.89219 0.0
H1971 H 0.9234 0.10878 0.90539 0.0
H1972 H 0.96082 0.11498 0.89639 0.0
H1973 H 0.85078 0.06543 0.84285 0.0
H1974 H 0.83744 0.07077 0.86354 0.0
H1975 H 0.84612 0.10364 0.85119 0.0
H1976 H 0.81637 0.10855 0.91268 0.0
H1977 H 0.83519 0.18655 0.88178 0.0
H1978 H 0.88467 0.06749 0.90464 0.0
H1979 H 0.85527 0.0539 0.8911 0.0
H1980 H 0.84567 0.06346 0.91195 0.0
H1981 H 0.90752 0.16112 0.86699 0.0
H1982 H 0.87597 0.18715 0.86299 0.0
H1983 H 0.87806 0.15032 0.85283 0.0
C1984 C 0.82644 0.69831 0.62091 0.0
C1985 C 0.80872 0.68989 0.60724 0.0
C1986 C 0.84654 0.67719 0.6284 0.0
C1987 C 0.84893 0.6469 0.62209 0.0
C1988 C 0.83147 0.63841 0.60815 0.0
C1989 C 0.81161 0.65999 0.60089 0.0
C1990 C 0.86483 0.68713 0.64322 0.0
C1991 C 0.83334 0.6063 0.60107 0.0
C1992 C 0.9167 0.59484 0.63257 0.0
C1993 C 0.90357 0.57508 0.64426 0.0
C1994 C 0.89953 0.619 0.62561 0.0
C1995 C 0.86853 0.62354 0.63047 0.0
C1996 C 0.8556 0.60455 0.64276 0.0
C1997 C 0.87324 0.58062 0.6495 0.0
C1998 C 0.9142 0.63889 0.6126 0.0
C1999 C 0.82267 0.60873 0.64835 0.0
H2000 H 0.82449 0.7214 0.62587 0.0
H2001 H 0.79811 0.65329 0.59031 0.0
H2002 H 0.85778 0.67329 0.654 0.0
H2003 H 0.88975 0.68283 0.6412 0.0
H2004 H 0.86153 0.71193 0.64612 0.0
H2005 H 0.8191 0.60367 0.58985 0.0
H2006 H 0.8576 0.60058 0.59803 0.0
H2007 H 0.8254 0.58925 0.61027 0.0
H2008 H 0.9401 0.59086 0.62844 0.0
H2009 H 0.86285 0.56568 0.65858 0.0
H2010 H 0.91129 0.66364 0.61565 0.0
H2011 H 0.90254 0.63487 0.6007 0.0
H2012 H 0.93917 0.63398 0.61111 0.0
H2013 H 0.81869 0.63294 0.65217 0.0
H2014 H 0.81668 0.59329 0.65872 0.0
H2015 H 0.80674 0.60383 0.63804 0.0
C2016 C 0.66489 0.66206 0.88664 0.0
C2017 C 0.68455 0.64841 0.89821 0.0
C2018 C 0.64049 0.64535 0.87959 0.0
C2019 C 0.63556 0.61431 0.88428 0.0
C2020 C 0.65442 0.60087 0.89648 0.0
C2021 C 0.67866 0.61804 0.90328 0.0
C2022 C 0.62081 0.66053 0.86666 0.0
C2023 C 0.64978 0.56791 0.9019 0.0
C2024 C 0.56027 0.57357 0.87414 0.0
C2025 C 0.56866 0.55601 0.8604 0.0
C2026 C 0.58162 0.5931 0.88188 0.0
C2027 C 0.61204 0.59517 0.87573 0.0
C2028 C 0.62049 0.57792 0.86172 0.0
C2029 C 0.59872 0.55855 0.85424 0.0
C2030 C 0.57177 0.61112 0.8968 0.0
C2031 C 0.6527 0.57955 0.85476 0.0
H2032 H 0.66913 0.6855 0.88265 0.0
H2033 H 0.69352 0.60729 0.91228 0.0
H2034 H 0.62472 0.64908 0.85469 0.0
H2035 H 0.59602 0.65784 0.86966 0.0
H2036 H 0.62603 0.68548 0.86531 0.0
H2037 H 0.66501 0.56157 0.9123 0.0
H2038 H 0.62547 0.56412 0.9056 0.0
H2039 H 0.65465 0.5521 0.89154 0.0
H2040 H 0.53707 0.57183 0.87897 0.0
H2041 H 0.6054 0.5452 0.84361 0.0
H2042 H 0.57635 0.63604 0.89496 0.0
H2043 H 0.58546 0.60366 0.90756 0.0
H2044 H 0.54692 0.60799 0.89962 0.0
H2045 H 0.65877 0.6038 0.8519 0.0
H2046 H 0.65527 0.56553 0.84347 0.0
H2047 H 0.66954 0.57118 0.86397 0.0
C2048 C 0.61511 0.43299 0.15569 0.0
C2049 C 0.58425 0.43493 0.15059 0.0
C2050 C 0.6336 0.40766 0.15141 0.0
C2051 C 0.62103 0.38365 0.14175 0.0
C2052 C 0.58969 0.38499 0.13695 0.0
C2053 C 0.57168 0.41055 0.14144 0.0
C2054 C 0.66687 0.40703 0.15685 0.0
C2055 C 0.57541 0.35985 0.12665 0.0
C2056 C 0.67695 0.33651 0.11609 0.0
C2057 C 0.6803 0.30967 0.12551 0.0
C2058 C 0.65756 0.3606 0.12118 0.0
C2059 C 0.64108 0.35786 0.13607 0.0
C2060 C 0.64417 0.33075 0.14558 0.0
C2061 C 0.66371 0.30699 0.14019 0.0
C2062 C 0.65486 0.38909 0.11066 0.0
C2063 C 0.62701 0.32697 0.16152 0.0
H2064 H 0.6251 0.45157 0.1628 0.0
H2065 H 0.5479 0.41174 0.13741 0.0
H2066 H 0.67189 0.38519 0.16339 0.0
H2067 H 0.68221 0.40792 0.146 0.0
H2068 H 0.6727 0.42665 0.16503 0.0
H2069 H 0.55034 0.3635 0.12465 0.0
H2070 H 0.587 0.35892 0.11456 0.0
H2071 H 0.57878 0.33709 0.13258 0.0
H2072 H 0.6896 0.33881 0.10472 0.0
H2073 H 0.66608 0.28634 0.14755 0.0
H2074 H 0.66258 0.40961 0.11765 0.0
H2075 H 0.63041 0.39296 0.10722 0.0
H2076 H 0.6688 0.38743 0.09929 0.0
H2077 H 0.63387 0.34545 0.17018 0.0
H2078 H 0.6315 0.30428 0.16736 0.0
H2079 H 0.60185 0.32931 0.15943 0.0
C2080 C 0.84045 0.37301 0.40756 0.0
C2081 C 0.83311 0.34384 0.40119 0.0
C2082 C 0.86689 0.38894 0.40244 0.0
C2083 C 0.88657 0.37548 0.39063 0.0
C2084 C 0.8799 0.34565 0.38452 0.0
C2085 C 0.85327 0.33016 0.38988 0.0
C2086 C 0.87324 0.42064 0.40932 0.0
C2087 C 0.90038 0.3305 0.37194 0.0
C2088 C 0.93346 0.43178 0.36518 0.0
C2089 C 0.96222 0.43095 0.37303 0.0
C2090 C 0.90891 0.41328 0.37055 0.0
C2091 C 0.91316 0.39343 0.38412 0.0
C2092 C 0.94229 0.39198 0.3919 0.0
C2093 C 0.96647 0.41076 0.38627 0.0
C2094 C 0.87821 0.41548 0.3619 0.0
C2095 C 0.94772 0.37108 0.40639 0.0
H2096 H 0.82521 0.38378 0.41637 0.0
H2097 H 0.84788 0.30765 0.38488 0.0
H2098 H 0.89686 0.42164 0.41449 0.0
H2099 H 0.87198 0.43802 0.39938 0.0
H2100 H 0.85657 0.42719 0.41903 0.0
H2101 H 0.89315 0.30647 0.36921 0.0
H2102 H 0.89983 0.344 0.36041 0.0
H2103 H 0.92463 0.33023 0.37627 0.0
H2104 H 0.92995 0.44718 0.3549 0.0
H2105 H 0.98864 0.40983 0.39237 0.0
H2106 H 0.86046 0.42425 0.37049 0.0
H2107 H 0.87066 0.3923 0.35779 0.0
H2108 H 0.87906 0.43102 0.3511 0.0
H2109 H 0.93287 0.37834 0.41674 0.0
H2110 H 0.97212 0.37138 0.41052 0.0
H2111 H 0.94127 0.34704 0.40326 0.0
C2112 C 0.8746 0.40714 0.83772 0.0
C2113 C 0.90412 0.41428 0.84371 0.0
C2114 C 0.8584 0.38123 0.84335 0.0
C2115 C 0.87196 0.36184 0.85527 0.0
C2116 C 0.90208 0.36832 0.86104 0.0
C2117 C 0.91781 0.39445 0.85519 0.0
C2118 C 0.82638 0.37509 0.83683 0.0
C2119 C 0.91734 0.34812 0.87371 0.0
C2120 C 0.81608 0.31606 0.88159 0.0
C2121 C 0.81642 0.2871 0.87393 0.0
C2122 C 0.83456 0.34034 0.87585 0.0
C2123 C 0.85394 0.3356 0.86214 0.0
C2124 C 0.85484 0.30628 0.85454 0.0
C2125 C 0.83605 0.2824 0.86051 0.0
C2126 C 0.83288 0.37128 0.88428 0.0
C2127 C 0.87525 0.3003 0.83992 0.0
H2128 H 0.86379 0.42213 0.8288 0.0
H2129 H 0.94058 0.3997 0.8599 0.0
H2130 H 0.82495 0.35138 0.83181 0.0
H2131 H 0.80939 0.37672 0.84694 0.0
H2132 H 0.81964 0.39163 0.82709 0.0
H2133 H 0.94147 0.35526 0.87624 0.0
H2134 H 0.90409 0.3491 0.88531 0.0
H2135 H 0.91735 0.32375 0.86959 0.0
H2136 H 0.80109 0.31991 0.89199 0.0
H2137 H 0.83663 0.26007 0.85456 0.0
H2138 H 0.82408 0.3889 0.87561 0.0
H2139 H 0.85624 0.3787 0.88817 0.0
H2140 H 0.81761 0.37086 0.89518 0.0
H2141 H 0.86788 0.31502 0.82953 0.0
H2142 H 0.87453 0.27582 0.83594 0.0
H2143 H 0.89946 0.30651 0.84282 0.0
C2144 C 0.911 0.54712 0.14244 0.0
C2145 C 0.94147 0.54749 0.13669 0.0
C2146 C 0.88805 0.56509 0.135 0.0
C2147 C 0.89567 0.58386 0.12141 0.0
C2148 C 0.92637 0.58442 0.11554 0.0
C2149 C 0.94893 0.56626 0.12327 0.0
C2150 C 0.8556 0.56393 0.14166 0.0
C2151 C 0.93534 0.60408 0.10106 0.0
C2152 C 0.8286 0.60662 0.09405 0.0
C2153 C 0.82155 0.63628 0.09983 0.0
C2154 C 0.85325 0.58969 0.10062 0.0
C2155 C 0.87129 0.60264 0.11332 0.0
C2156 C 0.86492 0.63288 0.11889 0.0
C2157 C 0.84018 0.64935 0.11206 0.0
C2158 C 0.85943 0.55757 0.09429 0.0
C2159 C 0.88363 0.64748 0.13241 0.0
H2160 H 0.905 0.53277 0.15282 0.0
H2161 H 0.9724 0.5667 0.11874 0.0
H2162 H 0.84807 0.58738 0.14532 0.0
H2163 H 0.83951 0.55581 0.13202 0.0
H2164 H 0.85353 0.5484 0.15241 0.0
H2165 H 0.96024 0.60211 0.09807 0.0
H2166 H 0.92171 0.59721 0.09017 0.0
H2167 H 0.92997 0.62863 0.1036 0.0
H2168 H 0.81451 0.59632 0.08456 0.0
H2169 H 0.83504 0.67224 0.11662 0.0
H2170 H 0.8553 0.54053 0.10418 0.0
H2171 H 0.8839 0.55533 0.09055 0.0
H2172 H 0.84454 0.55157 0.08369 0.0
H2173 H 0.88047 0.63424 0.14391 0.0
H2174 H 0.87691 0.67182 0.13468 0.0
H2175 H 0.90853 0.64675 0.12935 0.0
C2176 C 0.59689 0.59561 0.3604 0.0
C2177 C 0.61046 0.57677 0.34842 0.0
C2178 C 0.61335 0.62002 0.36758 0.0
C2179 C 0.64407 0.62585 0.36262 0.0
C2180 C 0.65753 0.60764 0.35015 0.0
C2181 C 0.6406 0.58333 0.34323 0.0
C2182 C 0.5982 0.63893 0.38083 0.0
C2183 C 0.69016 0.61327 0.34444 0.0
C2184 C 0.68148 0.70283 0.37282 0.0
C2185 C 0.69959 0.69516 0.38647 0.0
C2186 C 0.66308 0.6806 0.365 0.0
C2187 C 0.6627 0.64999 0.371 0.0
C2188 C 0.68063 0.64219 0.38488 0.0
C2189 C 0.69888 0.66484 0.39243 0.0
C2190 C 0.64432 0.68977 0.35021 0.0
C2191 C 0.68075 0.60982 0.39169 0.0
H2192 H 0.57364 0.59082 0.36452 0.0
H2193 H 0.6513 0.56907 0.33394 0.0
H2194 H 0.61061 0.63551 0.39257 0.0
H2195 H 0.59958 0.66383 0.37782 0.0
H2196 H 0.57361 0.63263 0.38263 0.0
H2197 H 0.69664 0.59823 0.334 0.0
H2198 H 0.69305 0.63768 0.3407 0.0
H2199 H 0.70645 0.60895 0.35466 0.0
H2200 H 0.68185 0.7262 0.36813 0.0
H2201 H 0.71269 0.65869 0.40299 0.0
H2202 H 0.61961 0.68453 0.35231 0.0
H2203 H 0.65176 0.67617 0.33942 0.0
H2204 H 0.64664 0.71467 0.34728 0.0
H2205 H 0.65693 0.6027 0.39487 0.0
H2206 H 0.69543 0.60767 0.40278 0.0
H2207 H 0.68932 0.59349 0.38229 0.0
C2208 C 0.64615 0.33802 0.60612 0.0
C2209 C 0.6665 0.35193 0.59498 0.0
C2210 C 0.61952 0.35341 0.61151 0.0
C2211 C 0.61307 0.38343 0.60563 0.0
C2212 C 0.63302 0.39725 0.59406 0.0
C2213 C 0.65945 0.38136 0.58888 0.0
C2214 C 0.59875 0.33789 0.62383 0.0
C2215 C 0.62692 0.4292 0.58748 0.0
C2216 C 0.5329 0.41791 0.6103 0.0
C2217 C 0.53688 0.43727 0.6239 0.0
C2218 C 0.55733 0.39982 0.60436 0.0
C2219 C 0.58642 0.40114 0.6122 0.0
C2220 C 0.59042 0.42025 0.62609 0.0
C2221 C 0.56564 0.43805 0.63176 0.0
C2222 C 0.55218 0.37967 0.58954 0.0
C2223 C 0.62107 0.42227 0.63481 0.0
H2224 H 0.65127 0.31528 0.61089 0.0
H2225 H 0.67488 0.39234 0.58023 0.0
H2226 H 0.59899 0.35107 0.63547 0.0
H2227 H 0.57462 0.33768 0.61933 0.0
H2228 H 0.60594 0.3138 0.62644 0.0
H2229 H 0.6438 0.43606 0.57793 0.0
H2230 H 0.6034 0.43045 0.58218 0.0
H2231 H 0.62802 0.44621 0.5976 0.0
H2232 H 0.51074 0.41706 0.60418 0.0
H2233 H 0.56896 0.45284 0.6423 0.0
H2234 H 0.55837 0.35545 0.5924 0.0
H2235 H 0.56738 0.38731 0.57941 0.0
H2236 H 0.5279 0.38032 0.58522 0.0
H2237 H 0.62857 0.39899 0.63877 0.0
H2238 H 0.62013 0.43753 0.64572 0.0
H2239 H 0.63889 0.43125 0.62633 0.0
C2240 C 0.08575 0.40706 0.3563 0.0
C2241 C 0.0991 0.42791 0.34523 0.0
C2242 C 0.10185 0.38077 0.36158 0.0
C2243 C 0.13197 0.37512 0.35562 0.0
C2244 C 0.14512 0.39545 0.34401 0.0
C2245 C 0.12857 0.42155 0.33897 0.0
C2246 C 0.08703 0.35958 0.37395 0.0
C2247 C 0.17712 0.39016 0.33729 0.0
C2248 C 0.18826 0.32932 0.38161 0.0
C2249 C 0.1881 0.3005 0.37381 0.0
C2250 C 0.16973 0.35359 0.37596 0.0
C2251 C 0.15052 0.349 0.36216 0.0
C2252 C 0.14993 0.31988 0.35434 0.0
C2253 C 0.16873 0.29598 0.36026 0.0
C2254 C 0.171 0.3843 0.38465 0.0
C2255 C 0.12973 0.31412 0.3396 0.0
H2256 H 0.063 0.41165 0.3612 0.0
H2257 H 0.13908 0.43734 0.33034 0.0
H2258 H 0.08754 0.33543 0.36949 0.0
H2259 H 0.10025 0.36029 0.38557 0.0
H2260 H 0.06274 0.36604 0.37656 0.0
H2261 H 0.18332 0.40711 0.32765 0.0
H2262 H 0.19426 0.39189 0.34733 0.0
H2263 H 0.17895 0.36662 0.33208 0.0
H2264 H 0.20305 0.33303 0.39213 0.0
H2265 H 0.16833 0.27376 0.35419 0.0
H2266 H 0.14758 0.39114 0.3887 0.0
H2267 H 0.17933 0.40236 0.37611 0.0
H2268 H 0.18646 0.38384 0.39549 0.0
H2269 H 0.10537 0.31955 0.34255 0.0
H2270 H 0.13107 0.28987 0.33528 0.0
H2271 H 0.13674 0.32955 0.32943 0.0
C2272 C 0.3095 0.36636 0.0984 0.0
C2273 C 0.30879 0.33457 0.10164 0.0
C2274 C 0.33554 0.38425 0.10222 0.0
C2275 C 0.36162 0.37008 0.10944 0.0
C2276 C 0.36139 0.33792 0.11238 0.0
C2277 C 0.33503 0.32057 0.10846 0.0
C2278 C 0.33486 0.41848 0.09886 0.0
C2279 C 0.38877 0.32193 0.12001 0.0
C2280 C 0.43769 0.41383 0.1079 0.0
C2281 C 0.43859 0.42765 0.12343 0.0
C2282 C 0.41304 0.39467 0.10326 0.0
C2283 C 0.38867 0.38916 0.11441 0.0
C2284 C 0.38974 0.40254 0.13021 0.0
C2285 C 0.41465 0.42158 0.13453 0.0
C2286 C 0.4128 0.38077 0.08632 0.0
C2287 C 0.36425 0.39718 0.14247 0.0
H2288 H 0.28944 0.3775 0.09315 0.0
H2289 H 0.33484 0.29606 0.11101 0.0
H2290 H 0.33696 0.43138 0.11053 0.0
H2291 H 0.35477 0.42512 0.0911 0.0
H2292 H 0.3133 0.42579 0.09263 0.0
H2293 H 0.3855 0.29658 0.12085 0.0
H2294 H 0.40988 0.32665 0.11277 0.0
H2295 H 0.39276 0.33111 0.13251 0.0
H2296 H 0.45606 0.4183 0.09924 0.0
H2297 H 0.41512 0.43208 0.14656 0.0
H2298 H 0.39256 0.38939 0.07939 0.0
H2299 H 0.41056 0.35533 0.08712 0.0
H2300 H 0.43402 0.38637 0.07932 0.0
H2301 H 0.34217 0.4062 0.13756 0.0
H2302 H 0.36895 0.40853 0.1544 0.0
H2303 H 0.36114 0.37211 0.14458 0.0
C2304 C 0.31625 0.67206 0.88465 0.0
C2305 C 0.31676 0.70099 0.87697 0.0
C2306 C 0.33425 0.64757 0.87881 0.0
C2307 C 0.35327 0.65206 0.86494 0.0
C2308 C 0.35418 0.68127 0.85723 0.0
C2309 C 0.3359 0.7054 0.86333 0.0
C2310 C 0.33262 0.61675 0.88737 0.0
C2311 C 0.37424 0.68693 0.84243 0.0
C2312 C 0.41756 0.59373 0.85864 0.0
C2313 C 0.40411 0.57335 0.84735 0.0
C2314 C 0.40159 0.61989 0.86418 0.0
C2315 C 0.37147 0.62583 0.8583 0.0
C2316 C 0.35808 0.60583 0.8466 0.0
C2317 C 0.37453 0.57987 0.84128 0.0
C2318 C 0.41664 0.64074 0.87664 0.0
C2319 C 0.32602 0.61142 0.84001 0.0
H2320 H 0.30161 0.66842 0.89522 0.0
H2321 H 0.33654 0.7277 0.85736 0.0
H2322 H 0.32406 0.5989 0.87876 0.0
H2323 H 0.35598 0.60958 0.89139 0.0
H2324 H 0.31721 0.61724 0.89822 0.0
H2325 H 0.37305 0.71121 0.83815 0.0
H2326 H 0.39859 0.68129 0.84532 0.0
H2327 H 0.36699 0.67159 0.83227 0.0
H2328 H 0.44041 0.589 0.86338 0.0
H2329 H 0.36392 0.56442 0.8325 0.0
H2330 H 0.40332 0.64017 0.88822 0.0
H2331 H 0.41654 0.66492 0.87222 0.0
H2332 H 0.4408 0.63389 0.87931 0.0
H2333 H 0.30902 0.60992 0.85012 0.0
H2334 H 0.31949 0.59452 0.8304 0.0
H2335 H 0.32437 0.63497 0.83479 0.0
C2336 C 0.04121 0.59278 0.60668 0.0
C2337 C 0.04438 0.57345 0.62035 0.0
C2338 C 0.06562 0.61171 0.60147 0.0
C2339 C 0.09389 0.61131 0.61013 0.0
C2340 C 0.09709 0.59218 0.62407 0.0
C2341 C 0.07234 0.57351 0.62901 0.0
C2342 C 0.0613 0.6318 0.58656 0.0
C2343 C 0.12686 0.59109 0.63365 0.0
C2344 C 0.16831 0.63392 0.58876 0.0
C2345 C 0.17371 0.66361 0.595 0.0
C2346 C 0.14207 0.61701 0.59328 0.0
C2347 C 0.12059 0.63 0.60433 0.0
C2348 C 0.12539 0.66026 0.61034 0.0
C2349 C 0.15186 0.67671 0.6056 0.0
C2350 C 0.13775 0.58487 0.58653 0.0
C2351 C 0.10299 0.67493 0.62213 0.0
H2352 H 0.01968 0.593 0.59994 0.0
H2353 H 0.07502 0.55875 0.63961 0.0
H2354 H 0.06633 0.6562 0.58964 0.0
H2355 H 0.07779 0.62481 0.57687 0.0
H2356 H 0.03755 0.63033 0.58153 0.0
H2357 H 0.12531 0.57572 0.64449 0.0
H2358 H 0.14579 0.58277 0.62567 0.0
H2359 H 0.1332 0.61458 0.63785 0.0
H2360 H 0.1849 0.62356 0.58051 0.0
H2361 H 0.15573 0.6996 0.6105 0.0
H2362 H 0.11484 0.58281 0.58059 0.0
H2363 H 0.13844 0.56788 0.59668 0.0
H2364 H 0.15578 0.57865 0.57747 0.0
H2365 H 0.07932 0.67438 0.61699 0.0
H2366 H 0.10912 0.69921 0.62498 0.0
H2367 H 0.10256 0.66162 0.63373 0.0
C2368 C 0.09563 0.59025 0.13721 0.0
C2369 C 0.10764 0.57301 0.15029 0.0
C2370 C 0.11216 0.61507 0.1305 0.0
C2371 C 0.14135 0.62294 0.13704 0.0
C2372 C 0.15312 0.60635 0.15058 0.0
C2373 C 0.13618 0.5816 0.15702 0.0
C2374 C 0.09885 0.63222 0.11605 0.0
C2375 C 0.18409 0.61414 0.15797 0.0
C2376 C 0.19972 0.66199 0.10932 0.0
C2377 C 0.19781 0.69284 0.11436 0.0
C2378 C 0.1813 0.63913 0.11652 0.0
C2379 C 0.16047 0.64725 0.12913 0.0
C2380 C 0.15835 0.67834 0.13429 0.0
C2381 C 0.17702 0.70078 0.12683 0.0
C2382 C 0.18422 0.60623 0.11065 0.0
C2383 C 0.13646 0.68784 0.14773 0.0
H2384 H 0.07361 0.58389 0.13192 0.0
H2385 H 0.14564 0.56863 0.16718 0.0
H2386 H 0.0985 0.65735 0.11854 0.0
H2387 H 0.11362 0.62854 0.10515 0.0
H2388 H 0.07505 0.62457 0.11307 0.0
H2389 H 0.18907 0.60034 0.16911 0.0
H2390 H 0.20256 0.60981 0.14887 0.0
H2391 H 0.18506 0.63896 0.16121 0.0
H2392 H 0.21562 0.65561 0.09967 0.0
H2393 H 0.17536 0.72457 0.1308 0.0
H2394 H 0.16153 0.59772 0.10629 0.0
H2395 H 0.19144 0.59116 0.12093 0.0
H2396 H 0.20121 0.60381 0.10056 0.0
H2397 H 0.11251 0.68148 0.14438 0.0
H2398 H 0.13732 0.71301 0.1502 0.0
H2399 H 0.14217 0.67533 0.15918 0.0
C2400 C 0.17221 0.37878 0.90477 0.0
C2401 C 0.17804 0.34771 0.90108 0.0
C2402 C 0.1455 0.39361 0.89909 0.0
C2403 C 0.12401 0.37704 0.88946 0.0
C2404 C 0.12942 0.34556 0.88591 0.0
C2405 C 0.15634 0.33127 0.89175 0.0
C2406 C 0.14054 0.4272 0.90319 0.0
C2407 C 0.10703 0.32711 0.87569 0.0
C2408 C 0.0432 0.41046 0.8857 0.0
C2409 C 0.04487 0.42594 0.87064 0.0
C2410 C 0.0686 0.39403 0.89186 0.0
C2411 C 0.09633 0.39301 0.88275 0.0
C2412 C 0.09798 0.40811 0.86741 0.0
C2413 C 0.07226 0.42438 0.86155 0.0
C2414 C 0.06593 0.37821 0.90826 0.0
C2415 C 0.12711 0.4075 0.8573 0.0
H2416 H 0.18871 0.39175 0.91197 0.0
H2417 H 0.16053 0.30727 0.88882 0.0
H2418 H 0.13985 0.44102 0.89177 0.0
H2419 H 0.11802 0.43027 0.9094 0.0
H2420 H 0.15898 0.43657 0.91121 0.0
H2421 H 0.11405 0.30259 0.87448 0.0
H2422 H 0.08369 0.32801 0.88121 0.0
H2423 H 0.10529 0.33731 0.86327 0.0
H2424 H 0.02214 0.41146 0.8928 0.0
H2425 H 0.07378 0.43616 0.84988 0.0
H2426 H 0.08268 0.38842 0.91698 0.0
H2427 H 0.07173 0.35341 0.90704 0.0
H2428 H 0.04244 0.38025 0.91355 0.0
H2429 H 0.14615 0.41867 0.86416 0.0
H2430 H 0.12432 0.41954 0.84539 0.0
H2431 H 0.13414 0.38333 0.8549 0.0
C2432 C 0.31801 0.32817 0.61779 0.0
C2433 C 0.31851 0.29981 0.62605 0.0
C2434 C 0.3352 0.35342 0.62344 0.0
C2435 C 0.35341 0.35032 0.63773 0.0
C2436 C 0.35432 0.3217 0.64605 0.0
C2437 C 0.33687 0.29677 0.64011 0.0
C2438 C 0.33364 0.38353 0.61419 0.0
C2439 C 0.37348 0.31753 0.66131 0.0
C2440 C 0.41628 0.41045 0.64351 0.0
C2441 C 0.40179 0.43173 0.65393 0.0
C2442 C 0.40117 0.38339 0.63851 0.0
C2443 C 0.37085 0.37738 0.64408 0.0
C2444 C 0.35647 0.39823 0.65499 0.0
C2445 C 0.37208 0.42513 0.65978 0.0
C2446 C 0.4173 0.3617 0.62688 0.0
C2447 C 0.3242 0.39261 0.66124 0.0
H2448 H 0.30399 0.33078 0.60689 0.0
H2449 H 0.33748 0.27494 0.64655 0.0
H2450 H 0.32433 0.40187 0.62225 0.0
H2451 H 0.35712 0.39076 0.61041 0.0
H2452 H 0.31889 0.38196 0.6031 0.0
H2453 H 0.37233 0.2936 0.66612 0.0
H2454 H 0.39792 0.3233 0.65875 0.0
H2455 H 0.3654 0.33356 0.67098 0.0
H2456 H 0.43925 0.4152 0.63895 0.0
H2457 H 0.36068 0.44127 0.66788 0.0
H2458 H 0.40474 0.36107 0.61505 0.0
H2459 H 0.41722 0.33792 0.63187 0.0
H2460 H 0.44153 0.36868 0.62449 0.0
H2461 H 0.30768 0.39319 0.65087 0.0
H2462 H 0.31698 0.41008 0.67041 0.0
H2463 H 0.32258 0.36942 0.66689 0.0
C2464 C 0.4142 0.56619 0.35089 0.0
C2465 C 0.44464 0.5641 0.35658 0.0
C2466 C 0.39272 0.58565 0.35854 0.0
C2467 C 0.40189 0.60356 0.3722 0.0
C2468 C 0.43275 0.60211 0.37778 0.0
C2469 C 0.45374 0.58238 0.36992 0.0
C2470 C 0.36001 0.58651 0.35222 0.0
C2471 C 0.44343 0.6209 0.39227 0.0
C2472 C 0.34874 0.66975 0.38403 0.0
C2473 C 0.33062 0.65608 0.39629 0.0
C2474 C 0.37267 0.65328 0.3764 0.0
C2475 C 0.37865 0.62244 0.38114 0.0
C2476 C 0.36129 0.60898 0.39393 0.0
C2477 C 0.33756 0.62592 0.40134 0.0
C2478 C 0.39081 0.6685 0.36287 0.0
C2479 C 0.36702 0.57621 0.39942 0.0
H2480 H 0.40695 0.55226 0.34057 0.0
H2481 H 0.47725 0.58107 0.37437 0.0
H2482 H 0.34403 0.57799 0.36181 0.0
H2483 H 0.35325 0.61058 0.34935 0.0
H2484 H 0.3569 0.57221 0.34106 0.0
H2485 H 0.46859 0.61855 0.39449 0.0
H2486 H 0.43799 0.64562 0.39034 0.0
H2487 H 0.43095 0.6134 0.40343 0.0
H2488 H 0.34365 0.69301 0.38003 0.0
H2489 H 0.3239 0.61513 0.41085 0.0
H2490 H 0.38608 0.65662 0.35111 0.0
H2491 H 0.41589 0.66645 0.36527 0.0
H2492 H 0.38492 0.69329 0.36147 0.0
H2493 H 0.36181 0.56011 0.38923 0.0
H2494 H 0.35268 0.56971 0.41013 0.0
H2495 H 0.39165 0.57305 0.40267 0.0
loop_
_geom_bond_atom_site_label_1
_geom_bond_atom_site_label_2
_geom_bond_distance
_geom_bond_site_symmetry_2
_ccdc_geom_bond_type
Mg0 O1 2.028 . S
Mg0 O7 1.986 . S
Mg0 O9 2.114 1_545 S
Mg0 O10 2.251 1_545 S
Mg0 O13 2.010 . S
O1 Mg0 2.028 . S
O1 C4 1.250 . S
O2 Mg3 2.028 . S
O2 C4 1.248 . S
Mg3 O2 2.028 . S
Mg3 O8 2.032 . S
Mg3 O10 2.079 1_545 S
C4 O1 1.250 . S
C4 O2 1.248 . S
C5 O6 1.264 . S
C5 O13 1.249 . S
O6 C5 1.264 . S
O7 Mg0 1.986 . S
O7 C11 1.246 . S
O8 Mg3 2.032 . S
O8 C11 1.259 . S
O9 Mg0 2.114 1_565 S
O9 C12 1.252 . S
O10 Mg0 2.251 1_565 S
O10 Mg3 2.079 1_565 S
O10 C12 1.273 . S
C11 O7 1.246 . S
C11 O8 1.259 . S
C12 O9 1.252 . S
C12 O10 1.273 . S
O13 Mg0 2.010 . S
O13 C5 1.249 . S
Mg14 O15 2.028 . S
Mg14 O21 1.986 . S
Mg14 O23 2.114 . S
Mg14 O24 2.251 . S
Mg14 O27 2.010 . S
O15 Mg14 2.028 . S
O15 C18 1.250 . S
O16 Mg17 2.028 . S
O16 C18 1.248 . S
Mg17 O16 2.028 . S
Mg17 O22 2.032 . S
Mg17 O24 2.079 . S
C18 O15 1.250 . S
C18 O16 1.248 . S
C19 O20 1.264 . S
C19 O27 1.249 . S
O20 C19 1.264 . S
O21 Mg14 1.986 . S
O21 C25 1.246 . S
O22 Mg17 2.032 . S
O22 C25 1.259 . S
O23 Mg14 2.114 . S
O23 C26 1.252 . S
O24 Mg14 2.251 . S
O24 Mg17 2.079 . S
O24 C26 1.273 . S
C25 O21 1.246 . S
C25 O22 1.259 . S
C26 O23 1.252 . S
C26 O24 1.273 . S
O27 Mg14 2.010 . S
O27 C19 1.249 . S
Mg28 O29 2.028 . S
Mg28 O35 1.986 . S
Mg28 O37 2.114 1_565 S
Mg28 O38 2.251 1_565 S
Mg28 O41 2.010 . S
O29 Mg28 2.028 . S
O29 C32 1.250 . S
O30 Mg31 2.028 . S
O30 C32 1.248 . S
Mg31 O30 2.028 . S
Mg31 O36 2.032 . S
Mg31 O38 2.079 1_565 S
C32 O29 1.250 . S
C32 O30 1.248 . S
C33 O34 1.264 . S
C33 O41 1.249 1_655 S
O34 C33 1.264 . S
O35 Mg28 1.986 . S
O35 C39 1.246 . S
O36 Mg31 2.032 . S
O36 C39 1.259 . S
O37 Mg28 2.114 1_545 S
O37 C40 1.252 . S
O38 Mg28 2.251 1_545 S
O38 Mg31 2.079 1_545 S
O38 C40 1.273 . S
C39 O35 1.246 . S
C39 O36 1.259 . S
C40 O37 1.252 . S
C40 O38 1.273 . S
O41 Mg28 2.010 . S
O41 C33 1.249 1_455 S
Mg42 O43 2.028 . S
Mg42 O49 1.986 . S
Mg42 O51 2.114 . S
Mg42 O52 2.251 . S
Mg42 O55 2.010 . S
O43 Mg42 2.028 . S
O43 C46 1.250 . S
O44 Mg45 2.028 . S
O44 C46 1.248 . S
Mg45 O44 2.028 . S
Mg45 O50 2.032 . S
Mg45 O52 2.079 . S
C46 O43 1.250 . S
C46 O44 1.248 . S
C47 O48 1.264 . S
C47 O55 1.249 . S
O48 C47 1.264 . S
O49 Mg42 1.986 . S
O49 C53 1.246 . S
O50 Mg45 2.032 . S
O50 C53 1.259 . S
O51 Mg42 2.114 . S
O51 C54 1.252 . S
O52 Mg42 2.251 . S
O52 Mg45 2.079 . S
O52 C54 1.273 . S
C53 O49 1.246 . S
C53 O50 1.259 . S
C54 O51 1.252 . S
C54 O52 1.273 . S
O55 Mg42 2.010 . S
O55 C47 1.249 . S
Mg56 O57 2.028 . S
Mg56 O63 1.986 . S
Mg56 O65 2.114 1_565 S
Mg56 O66 2.251 1_565 S
Mg56 O69 2.010 . S
O57 Mg56 2.028 . S
O57 C60 1.250 . S
O58 Mg59 2.028 . S
O58 C60 1.248 . S
Mg59 O58 2.028 . S
Mg59 O64 2.032 . S
Mg59 O66 2.079 1_565 S
C60 O57 1.250 . S
C60 O58 1.248 . S
C61 O62 1.264 . S
C61 O69 1.249 . S
O62 C61 1.264 . S
O63 Mg56 1.986 . S
O63 C67 1.246 . S
O64 Mg59 2.032 . S
O64 C67 1.259 . S
O65 Mg56 2.114 1_545 S
O65 C68 1.252 . S
O66 Mg56 2.251 1_545 S
O66 Mg59 2.079 1_545 S
O66 C68 1.273 . S
C67 O63 1.246 . S
C67 O64 1.259 . S
C68 O65 1.252 . S
C68 O66 1.273 . S
O69 Mg56 2.010 . S
O69 C61 1.249 . S
Mg70 O71 2.028 . S
Mg70 O77 1.986 . S
Mg70 O79 2.114 . S
Mg70 O80 2.251 . S
Mg70 O83 2.010 . S
O71 Mg70 2.028 . S
O71 C74 1.250 . S
O72 Mg73 2.028 . S
O72 C74 1.248 . S
Mg73 O72 2.028 . S
Mg73 O78 2.032 . S
Mg73 O80 2.079 . S
C74 O71 1.250 . S
C74 O72 1.248 . S
C75 O76 1.264 . S
C75 O83 1.249 . S
O76 C75 1.264 . S
O77 Mg70 1.986 . S
O77 C81 1.246 . S
O78 Mg73 2.032 . S
O78 C81 1.259 . S
O79 Mg70 2.114 . S
O79 C82 1.252 . S
O80 Mg70 2.251 . S
O80 Mg73 2.079 . S
O80 C82 1.273 . S
C81 O77 1.246 . S
C81 O78 1.259 . S
C82 O79 1.252 . S
C82 O80 1.273 . S
O83 Mg70 2.010 . S
O83 C75 1.249 . S
Mg84 O85 2.028 . S
Mg84 O91 1.986 . S
Mg84 O93 2.114 1_545 S
Mg84 O94 2.251 1_545 S
Mg84 O97 2.010 . S
O85 Mg84 2.028 . S
O85 C88 1.250 . S
O86 Mg87 2.028 . S
O86 C88 1.248 . S
Mg87 O86 2.028 . S
Mg87 O92 2.032 . S
Mg87 O94 2.079 1_545 S
C88 O85 1.250 . S
C88 O86 1.248 . S
C89 O90 1.264 . S
C89 O97 1.249 1_655 S
O90 C89 1.264 . S
O91 Mg84 1.986 . S
O91 C95 1.246 . S
O92 Mg87 2.032 . S
O92 C95 1.259 . S
O93 Mg84 2.114 1_565 S
O93 C96 1.252 . S
O94 Mg84 2.251 1_565 S
O94 Mg87 2.079 1_565 S
O94 C96 1.273 . S
C95 O91 1.246 . S
C95 O92 1.259 . S
C96 O93 1.252 . S
C96 O94 1.273 . S
O97 Mg84 2.010 . S
O97 C89 1.249 1_455 S
Mg98 O99 2.028 . S
Mg98 O105 1.986 . S
Mg98 O107 2.114 . S
Mg98 O108 2.251 . S
Mg98 O111 2.010 . S
O99 Mg98 2.028 . S
O99 C102 1.250 . S
O100 Mg101 2.028 . S
O100 C102 1.248 . S
Mg101 O100 2.028 . S
Mg101 O106 2.032 . S
Mg101 O108 2.079 . S
C102 O99 1.250 . S
C102 O100 1.248 . S
C103 O104 1.264 . S
C103 O111 1.249 . S
O104 C103 1.264 . S
O105 Mg98 1.986 . S
O105 C109 1.246 . S
O106 Mg101 2.032 . S
O106 C109 1.259 . S
O107 Mg98 2.114 . S
O107 C110 1.252 . S
O108 Mg98 2.251 . S
O108 Mg101 2.079 . S
O108 C110 1.273 . S
C109 O105 1.246 . S
C109 O106 1.259 . S
C110 O107 1.252 . S
C110 O108 1.273 . S
O111 Mg98 2.010 . S
O111 C103 1.249 . S
Mg112 O113 2.028 . S
Mg112 O119 1.986 . S
Mg112 O121 2.114 1_565 S
Mg112 O122 2.251 1_565 S
Mg112 O125 2.010 . S
O113 Mg112 2.028 . S
O113 C116 1.250 . S
O114 Mg115 2.028 . S
O114 C116 1.248 . S
Mg115 O114 2.028 . S
Mg115 O120 2.032 . S
Mg115 O122 2.079 1_565 S
C116 O113 1.250 . S
C116 O114 1.248 . S
C117 O118 1.264 . S
C117 O125 1.249 . S
O118 C117 1.264 . S
O119 Mg112 1.986 . S
O119 C123 1.246 . S
O120 Mg115 2.032 . S
O120 C123 1.259 . S
O121 Mg112 2.114 1_545 S
O121 C124 1.252 . S
O122 Mg112 2.251 1_545 S
O122 Mg115 2.079 1_545 S
O122 C124 1.273 . S
C123 O119 1.246 . S
C123 O120 1.259 . S
C124 O121 1.252 . S
C124 O122 1.273 . S
O125 Mg112 2.010 . S
O125 C117 1.249 . S
Mg126 O127 2.028 . S
Mg126 O133 1.986 . S
Mg126 O135 2.114 . S
Mg126 O136 2.251 . S
Mg126 O139 2.010 . S
O127 Mg126 2.028 . S
O127 C130 1.250 . S
O128 Mg129 2.028 . S
O128 C130 1.248 . S
Mg129 O128 2.028 . S
Mg129 O134 2.032 . S
Mg129 O136 2.079 . S
C130 O127 1.250 . S
C130 O128 1.248 . S
C131 O132 1.264 . S
C131 O139 1.249 . S
O132 C131 1.264 . S
O133 Mg126 1.986 . S
O133 C137 1.246 . S
O134 Mg129 2.032 . S
O134 C137 1.259 . S
O135 Mg126 2.114 . S
O135 C138 1.252 . S
O136 Mg126 2.251 . S
O136 Mg129 2.079 . S
O136 C138 1.273 . S
C137 O133 1.246 . S
C137 O134 1.259 . S
C138 O135 1.252 . S
C138 O136 1.273 . S
O139 Mg126 2.010 . S
O139 C131 1.249 . S
Mg140 O141 2.028 . S
Mg140 O147 1.986 . S
Mg140 O149 2.114 1_545 S
Mg140 O150 2.251 1_545 S
Mg140 O153 2.010 . S
O141 Mg140 2.028 . S
O141 C144 1.250 . S
O142 Mg143 2.028 . S
O142 C144 1.248 . S
Mg143 O142 2.028 . S
Mg143 O148 2.032 . S
Mg143 O150 2.079 1_545 S
C144 O141 1.250 . S
C144 O142 1.248 . S
C145 O146 1.264 . S
C145 O153 1.249 1_455 S
O146 C145 1.264 . S
O147 Mg140 1.986 . S
O147 C151 1.246 . S
O148 Mg143 2.032 . S
O148 C151 1.259 . S
O149 Mg140 2.114 1_565 S
O149 C152 1.252 . S
O150 Mg140 2.251 1_565 S
O150 Mg143 2.079 1_565 S
O150 C152 1.273 . S
C151 O147 1.246 . S
C151 O148 1.259 . S
C152 O149 1.252 . S
C152 O150 1.273 . S
O153 Mg140 2.010 . S
O153 C145 1.249 1_655 S
Mg154 O155 2.028 . S
Mg154 O161 1.986 . S
Mg154 O163 2.114 . S
Mg154 O164 2.251 . S
Mg154 O167 2.010 . S
O155 Mg154 2.028 . S
O155 C158 1.250 . S
O156 Mg157 2.028 . S
O156 C158 1.248 . S
Mg157 O156 2.028 . S
Mg157 O162 2.032 . S
Mg157 O164 2.079 . S
C158 O155 1.250 . S
C158 O156 1.248 . S
C159 O160 1.264 . S
C159 O167 1.249 . S
O160 C159 1.264 . S
O161 Mg154 1.986 . S
O161 C165 1.246 . S
O162 Mg157 2.032 . S
O162 C165 1.259 . S
O163 Mg154 2.114 . S
O163 C166 1.252 . S
O164 Mg154 2.251 . S
O164 Mg157 2.079 . S
O164 C166 1.273 . S
C165 O161 1.246 . S
C165 O162 1.259 . S
C166 O163 1.252 . S
C166 O164 1.273 . S
O167 Mg154 2.010 . S
O167 C159 1.249 . S
Mg168 O169 2.028 . S
Mg168 O175 1.986 . S
Mg168 O177 2.114 1_545 S
Mg168 O178 2.251 1_545 S
Mg168 O181 2.010 . S
O169 Mg168 2.028 . S
O169 C172 1.250 . S
O170 Mg171 2.028 . S
O170 C172 1.248 . S
Mg171 O170 2.028 . S
Mg171 O176 2.032 . S
Mg171 O178 2.079 1_545 S
C172 O169 1.250 . S
C172 O170 1.248 . S
C173 O174 1.264 . S
C173 O181 1.249 . S
O174 C173 1.264 . S
O175 Mg168 1.986 . S
O175 C179 1.246 . S
O176 Mg171 2.032 . S
O176 C179 1.259 . S
O177 Mg168 2.114 1_565 S
O177 C180 1.252 . S
O178 Mg168 2.251 1_565 S
O178 Mg171 2.079 1_565 S
O178 C180 1.273 . S
C179 O175 1.246 . S
C179 O176 1.259 . S
C180 O177 1.252 . S
C180 O178 1.273 . S
O181 Mg168 2.010 . S
O181 C173 1.249 . S
Mg182 O183 2.028 . S
Mg182 O189 1.986 . S
Mg182 O191 2.114 . S
Mg182 O192 2.251 . S
Mg182 O195 2.010 . S
O183 Mg182 2.028 . S
O183 C186 1.250 . S
O184 Mg185 2.028 . S
O184 C186 1.248 . S
Mg185 O184 2.028 . S
Mg185 O190 2.032 . S
Mg185 O192 2.079 . S
C186 O183 1.250 . S
C186 O184 1.248 . S
C187 O188 1.264 . S
C187 O195 1.249 . S
O188 C187 1.264 . S
O189 Mg182 1.986 . S
O189 C193 1.246 . S
O190 Mg185 2.032 . S
O190 C193 1.259 . S
O191 Mg182 2.114 . S
O191 C194 1.252 . S
O192 Mg182 2.251 . S
O192 Mg185 2.079 . S
O192 C194 1.273 . S
C193 O189 1.246 . S
C193 O190 1.259 . S
C194 O191 1.252 . S
C194 O192 1.273 . S
O195 Mg182 2.010 . S
O195 C187 1.249 . S
Mg196 O197 2.028 . S
Mg196 O203 1.986 . S
Mg196 O205 2.114 1_565 S
Mg196 O206 2.251 1_565 S
Mg196 O209 2.010 . S
O197 Mg196 2.028 . S
O197 C200 1.250 . S
O198 Mg199 2.028 . S
O198 C200 1.248 . S
Mg199 O198 2.028 . S
Mg199 O204 2.032 . S
Mg199 O206 2.079 1_565 S
C200 O197 1.250 . S
C200 O198 1.248 . S
C201 O202 1.264 . S
C201 O209 1.249 1_455 S
O202 C201 1.264 . S
O203 Mg196 1.986 . S
O203 C207 1.246 . S
O204 Mg199 2.032 . S
O204 C207 1.259 . S
O205 Mg196 2.114 1_545 S
O205 C208 1.252 . S
O206 Mg196 2.251 1_545 S
O206 Mg199 2.079 1_545 S
O206 C208 1.273 . S
C207 O203 1.246 . S
C207 O204 1.259 . S
C208 O205 1.252 . S
C208 O206 1.273 . S
O209 Mg196 2.010 . S
O209 C201 1.249 1_655 S
Mg210 O211 2.028 . S
Mg210 O217 1.986 . S
Mg210 O219 2.114 . S
Mg210 O220 2.251 . S
Mg210 O223 2.010 . S
O211 Mg210 2.028 . S
O211 C214 1.250 . S
O212 Mg213 2.028 . S
O212 C214 1.248 . S
Mg213 O212 2.028 . S
Mg213 O218 2.032 . S
Mg213 O220 2.079 . S
C214 O211 1.250 . S
C214 O212 1.248 . S
C215 O216 1.264 . S
C215 O223 1.249 . S
O216 C215 1.264 . S
O217 Mg210 1.986 . S
O217 C221 1.246 . S
O218 Mg213 2.032 . S
O218 C221 1.259 . S
O219 Mg210 2.114 . S
O219 C222 1.252 . S
O220 Mg210 2.251 . S
O220 Mg213 2.079 . S
O220 C222 1.273 . S
C221 O217 1.246 . S
C221 O218 1.259 . S
C222 O219 1.252 . S
C222 O220 1.273 . S
O223 Mg210 2.010 . S
O223 C215 1.249 . S
Mg224 O225 2.028 . S
Mg224 O231 1.986 . S
Mg224 O233 2.114 . S
Mg224 O234 2.251 . S
Mg224 O237 2.010 . S
O225 Mg224 2.028 . S
O225 C228 1.250 . S
O226 Mg227 2.028 . S
O226 C228 1.248 . S
Mg227 O226 2.028 . S
Mg227 O232 2.032 . S
Mg227 O234 2.079 . S
C228 O225 1.250 . S
C228 O226 1.248 . S
C229 O230 1.264 . S
C229 O237 1.249 1_455 S
O230 C229 1.264 . S
O231 Mg224 1.986 . S
O231 C235 1.246 . S
O232 Mg227 2.032 . S
O232 C235 1.259 . S
O233 Mg224 2.114 . S
O233 C236 1.252 . S
O234 Mg224 2.251 . S
O234 Mg227 2.079 . S
O234 C236 1.273 . S
C235 O231 1.246 . S
C235 O232 1.259 . S
C236 O233 1.252 . S
C236 O234 1.273 . S
O237 Mg224 2.010 . S
O237 C229 1.249 1_655 S
Mg238 O239 2.028 . S
Mg238 O245 1.986 . S
Mg238 O247 2.114 . S
Mg238 O248 2.251 . S
Mg238 O251 2.010 . S
O239 Mg238 2.028 . S
O239 C242 1.250 . S
O240 Mg241 2.028 . S
O240 C242 1.248 . S
Mg241 O240 2.028 . S
Mg241 O246 2.032 . S
Mg241 O248 2.079 . S
C242 O239 1.250 . S
C242 O240 1.248 . S
C243 O244 1.264 . S
C243 O251 1.249 . S
O244 C243 1.264 . S
O245 Mg238 1.986 . S
O245 C249 1.246 . S
O246 Mg241 2.032 . S
O246 C249 1.259 . S
O247 Mg238 2.114 . S
O247 C250 1.252 . S
O248 Mg238 2.251 . S
O248 Mg241 2.079 . S
O248 C250 1.273 . S
C249 O245 1.246 . S
C249 O246 1.259 . S
C250 O247 1.252 . S
C250 O248 1.273 . S
O251 Mg238 2.010 . S
O251 C243 1.249 . S
Mg252 O253 2.028 . S
Mg252 O259 1.986 . S
Mg252 O261 2.114 . S
Mg252 O262 2.251 . S
Mg252 O265 2.010 . S
O253 Mg252 2.028 . S
O253 C256 1.250 . S
O254 Mg255 2.028 . S
O254 C256 1.248 . S
Mg255 O254 2.028 . S
Mg255 O260 2.032 . S
Mg255 O262 2.079 . S
C256 O253 1.250 . S
C256 O254 1.248 . S
C257 O258 1.264 . S
C257 O265 1.249 . S
O258 C257 1.264 . S
O259 Mg252 1.986 . S
O259 C263 1.246 . S
O260 Mg255 2.032 . S
O260 C263 1.259 . S
O261 Mg252 2.114 . S
O261 C264 1.252 . S
O262 Mg252 2.251 . S
O262 Mg255 2.079 . S
O262 C264 1.273 . S
C263 O259 1.246 . S
C263 O260 1.259 . S
C264 O261 1.252 . S
C264 O262 1.273 . S
O265 Mg252 2.010 . S
O265 C257 1.249 . S
Mg266 O267 2.028 . S
Mg266 O273 1.986 . S
Mg266 O275 2.114 . S
Mg266 O276 2.251 . S
Mg266 O279 2.010 . S
O267 Mg266 2.028 . S
O267 C270 1.250 . S
O268 Mg269 2.028 . S
O268 C270 1.248 . S
Mg269 O268 2.028 . S
Mg269 O274 2.032 . S
Mg269 O276 2.079 . S
C270 O267 1.250 . S
C270 O268 1.248 . S
C271 O272 1.264 . S
C271 O279 1.249 . S
O272 C271 1.264 . S
O273 Mg266 1.986 . S
O273 C277 1.246 . S
O274 Mg269 2.032 . S
O274 C277 1.259 . S
O275 Mg266 2.114 . S
O275 C278 1.252 . S
O276 Mg266 2.251 . S
O276 Mg269 2.079 . S
O276 C278 1.273 . S
C277 O273 1.246 . S
C277 O274 1.259 . S
C278 O275 1.252 . S
C278 O276 1.273 . S
O279 Mg266 2.010 . S
O279 C271 1.249 . S
Mg280 O281 2.028 . S
Mg280 O287 1.986 . S
Mg280 O289 2.114 . S
Mg280 O290 2.251 . S
Mg280 O293 2.010 . S
O281 Mg280 2.028 . S
O281 C284 1.250 . S
O282 Mg283 2.028 . S
O282 C284 1.248 . S
Mg283 O282 2.028 . S
Mg283 O288 2.032 . S
Mg283 O290 2.079 . S
C284 O281 1.250 . S
C284 O282 1.248 . S
C285 O286 1.264 . S
C285 O293 1.249 1_455 S
O286 C285 1.264 . S
O287 Mg280 1.986 . S
O287 C291 1.246 . S
O288 Mg283 2.032 . S
O288 C291 1.259 . S
O289 Mg280 2.114 . S
O289 C292 1.252 . S
O290 Mg280 2.251 . S
O290 Mg283 2.079 . S
O290 C292 1.273 . S
C291 O287 1.246 . S
C291 O288 1.259 . S
C292 O289 1.252 . S
C292 O290 1.273 . S
O293 Mg280 2.010 . S
O293 C285 1.249 1_655 S
Mg294 O295 2.028 . S
Mg294 O301 1.986 . S
Mg294 O303 2.114 . S
Mg294 O304 2.251 . S
Mg294 O307 2.010 . S
O295 Mg294 2.028 . S
O295 C298 1.250 . S
O296 Mg297 2.028 . S
O296 C298 1.248 . S
Mg297 O296 2.028 . S
Mg297 O302 2.032 . S
Mg297 O304 2.079 . S
C298 O295 1.250 . S
C298 O296 1.248 . S
C299 O300 1.264 . S
C299 O307 1.249 . S
O300 C299 1.264 . S
O301 Mg294 1.986 . S
O301 C305 1.246 . S
O302 Mg297 2.032 . S
O302 C305 1.259 . S
O303 Mg294 2.114 . S
O303 C306 1.252 . S
O304 Mg294 2.251 . S
O304 Mg297 2.079 . S
O304 C306 1.273 . S
C305 O301 1.246 . S
C305 O302 1.259 . S
C306 O303 1.252 . S
C306 O304 1.273 . S
O307 Mg294 2.010 . S
O307 C299 1.249 . S
Mg308 O309 2.028 . S
Mg308 O315 1.986 . S
Mg308 O317 2.114 . S
Mg308 O318 2.251 . S
Mg308 O321 2.010 . S
O309 Mg308 2.028 . S
O309 C312 1.250 . S
O310 Mg311 2.028 . S
O310 C312 1.248 . S
Mg311 O310 2.028 . S
Mg311 O316 2.032 . S
Mg311 O318 2.079 . S
C312 O309 1.250 . S
C312 O310 1.248 . S
C313 O314 1.264 . S
C313 O321 1.249 . S
O314 C313 1.264 . S
O315 Mg308 1.986 . S
O315 C319 1.246 . S
O316 Mg311 2.032 . S
O316 C319 1.259 . S
O317 Mg308 2.114 . S
O317 C320 1.252 . S
O318 Mg308 2.251 . S
O318 Mg311 2.079 . S
O318 C320 1.273 . S
C319 O315 1.246 . S
C319 O316 1.259 . S
C320 O317 1.252 . S
C320 O318 1.273 . S
O321 Mg308 2.010 . S
O321 C313 1.249 . S
Mg322 O323 2.028 . S
Mg322 O329 1.986 . S
Mg322 O331 2.114 . S
Mg322 O332 2.251 . S
Mg322 O335 2.010 . S
O323 Mg322 2.028 . S
O323 C326 1.250 . S
O324 Mg325 2.028 . S
O324 C326 1.248 . S
Mg325 O324 2.028 . S
Mg325 O330 2.032 . S
Mg325 O332 2.079 . S
C326 O323 1.250 . S
C326 O324 1.248 . S
C327 O328 1.264 . S
C327 O335 1.249 . S
O328 C327 1.264 . S
O329 Mg322 1.986 . S
O329 C333 1.246 . S
O330 Mg325 2.032 . S
O330 C333 1.259 . S
O331 Mg322 2.114 . S
O331 C334 1.252 . S
O332 Mg322 2.251 . S
O332 Mg325 2.079 . S
O332 C334 1.273 . S
C333 O329 1.246 . S
C333 O330 1.259 . S
C334 O331 1.252 . S
C334 O332 1.273 . S
O335 Mg322 2.010 . S
O335 C327 1.249 . S
Mg336 O337 2.028 . S
Mg336 O343 1.986 . S
Mg336 O345 2.114 . S
Mg336 O346 2.251 . S
Mg336 O349 2.010 . S
O337 Mg336 2.028 . S
O337 C340 1.250 . S
O338 Mg339 2.028 . S
O338 C340 1.248 . S
Mg339 O338 2.028 . S
Mg339 O344 2.032 . S
Mg339 O346 2.079 . S
C340 O337 1.250 . S
C340 O338 1.248 . S
C341 O342 1.264 . S
C341 O349 1.249 1_655 S
O342 C341 1.264 . S
O343 Mg336 1.986 . S
O343 C347 1.246 . S
O344 Mg339 2.032 . S
O344 C347 1.259 . S
O345 Mg336 2.114 . S
O345 C348 1.252 . S
O346 Mg336 2.251 . S
O346 Mg339 2.079 . S
O346 C348 1.273 . S
C347 O343 1.246 . S
C347 O344 1.259 . S
C348 O345 1.252 . S
C348 O346 1.273 . S
O349 Mg336 2.010 . S
O349 C341 1.249 1_455 S
Mg350 O351 2.028 . S
Mg350 O357 1.986 . S
Mg350 O359 2.114 . S
Mg350 O360 2.251 . S
Mg350 O363 2.010 . S
O351 Mg350 2.028 . S
O351 C354 1.250 . S
O352 Mg353 2.028 . S
O352 C354 1.248 . S
Mg353 O352 2.028 . S
Mg353 O358 2.032 . S
Mg353 O360 2.079 . S
C354 O351 1.250 . S
C354 O352 1.248 . S
C355 O356 1.264 . S
C355 O363 1.249 . S
O356 C355 1.264 . S
O357 Mg350 1.986 . S
O357 C361 1.246 . S
O358 Mg353 2.032 . S
O358 C361 1.259 . S
O359 Mg350 2.114 . S
O359 C362 1.252 . S
O360 Mg350 2.251 . S
O360 Mg353 2.079 . S
O360 C362 1.273 . S
C361 O357 1.246 . S
C361 O358 1.259 . S
C362 O359 1.252 . S
C362 O360 1.273 . S
O363 Mg350 2.010 . S
O363 C355 1.249 . S
Mg364 O365 2.028 . S
Mg364 O371 1.986 . S
Mg364 O373 2.114 . S
Mg364 O374 2.251 . S
Mg364 O377 2.010 . S
O365 Mg364 2.028 . S
O365 C368 1.250 . S
O366 Mg367 2.028 . S
O366 C368 1.248 . S
Mg367 O366 2.028 . S
Mg367 O372 2.032 . S
Mg367 O374 2.079 . S
C368 O365 1.250 . S
C368 O366 1.248 . S
C369 O370 1.264 . S
C369 O377 1.249 . S
O370 C369 1.264 . S
O371 Mg364 1.986 . S
O371 C375 1.246 . S
O372 Mg367 2.032 . S
O372 C375 1.259 . S
O373 Mg364 2.114 . S
O373 C376 1.252 . S
O374 Mg364 2.251 . S
O374 Mg367 2.079 . S
O374 C376 1.273 . S
C375 O371 1.246 . S
C375 O372 1.259 . S
C376 O373 1.252 . S
C376 O374 1.273 . S
O377 Mg364 2.010 . S
O377 C369 1.249 . S
Mg378 O379 2.028 . S
Mg378 O385 1.986 . S
Mg378 O387 2.114 . S
Mg378 O388 2.251 . S
Mg378 O391 2.010 . S
O379 Mg378 2.028 . S
O379 C382 1.250 . S
O380 Mg381 2.028 . S
O380 C382 1.248 . S
Mg381 O380 2.028 . S
Mg381 O386 2.032 . S
Mg381 O388 2.079 . S
C382 O379 1.250 . S
C382 O380 1.248 . S
C383 O384 1.264 . S
C383 O391 1.249 . S
O384 C383 1.264 . S
O385 Mg378 1.986 . S
O385 C389 1.246 . S
O386 Mg381 2.032 . S
O386 C389 1.259 . S
O387 Mg378 2.114 . S
O387 C390 1.252 . S
O388 Mg378 2.251 . S
O388 Mg381 2.079 . S
O388 C390 1.273 . S
C389 O385 1.246 . S
C389 O386 1.259 . S
C390 O387 1.252 . S
C390 O388 1.273 . S
O391 Mg378 2.010 . S
O391 C383 1.249 . S
Mg392 O393 2.028 . S
Mg392 O399 1.986 . S
Mg392 O401 2.114 . S
Mg392 O402 2.251 . S
Mg392 O405 2.010 . S
O393 Mg392 2.028 . S
O393 C396 1.250 . S
O394 Mg395 2.028 . S
O394 C396 1.248 . S
Mg395 O394 2.028 . S
Mg395 O400 2.032 . S
Mg395 O402 2.079 . S
C396 O393 1.250 . S
C396 O394 1.248 . S
C397 O398 1.264 . S
C397 O405 1.249 1_655 S
O398 C397 1.264 . S
O399 Mg392 1.986 . S
O399 C403 1.246 . S
O400 Mg395 2.032 . S
O400 C403 1.259 . S
O401 Mg392 2.114 . S
O401 C404 1.252 . S
O402 Mg392 2.251 . S
O402 Mg395 2.079 . S
O402 C404 1.273 . S
C403 O399 1.246 . S
C403 O400 1.259 . S
C404 O401 1.252 . S
C404 O402 1.273 . S
O405 Mg392 2.010 . S
O405 C397 1.249 1_455 S
Mg406 O407 2.028 . S
Mg406 O413 1.986 . S
Mg406 O415 2.114 . S
Mg406 O416 2.251 . S
Mg406 O419 2.010 . S
O407 Mg406 2.028 . S
O407 C410 1.250 . S
O408 Mg409 2.028 . S
O408 C410 1.248 . S
Mg409 O408 2.028 . S
Mg409 O414 2.032 . S
Mg409 O416 2.079 . S
C410 O407 1.250 . S
C410 O408 1.248 . S
C411 O412 1.264 . S
C411 O419 1.249 . S
O412 C411 1.264 . S
O413 Mg406 1.986 . S
O413 C417 1.246 . S
O414 Mg409 2.032 . S
O414 C417 1.259 . S
O415 Mg406 2.114 . S
O415 C418 1.252 . S
O416 Mg406 2.251 . S
O416 Mg409 2.079 . S
O416 C418 1.273 . S
C417 O413 1.246 . S
C417 O414 1.259 . S
C418 O415 1.252 . S
C418 O416 1.273 . S
O419 Mg406 2.010 . S
O419 C411 1.249 . S
Mg420 O421 2.028 . S
Mg420 O427 1.986 . S
Mg420 O429 2.114 . S
Mg420 O430 2.251 . S
Mg420 O433 2.010 . S
O421 Mg420 2.028 . S
O421 C424 1.250 . S
O422 Mg423 2.028 . S
O422 C424 1.248 . S
Mg423 O422 2.028 . S
Mg423 O428 2.032 . S
Mg423 O430 2.079 . S
C424 O421 1.250 . S
C424 O422 1.248 . S
C425 O426 1.264 . S
C425 O433 1.249 . S
O426 C425 1.264 . S
O427 Mg420 1.986 . S
O427 C431 1.246 . S
O428 Mg423 2.032 . S
O428 C431 1.259 . S
O429 Mg420 2.114 . S
O429 C432 1.252 . S
O430 Mg420 2.251 . S
O430 Mg423 2.079 . S
O430 C432 1.273 . S
C431 O427 1.246 . S
C431 O428 1.259 . S
C432 O429 1.252 . S
C432 O430 1.273 . S
O433 Mg420 2.010 . S
O433 C425 1.249 . S
Mg434 O435 2.028 . S
Mg434 O441 1.986 . S
Mg434 O443 2.114 . S
Mg434 O444 2.251 . S
Mg434 O447 2.010 . S
O435 Mg434 2.028 . S
O435 C438 1.250 . S
O436 Mg437 2.028 . S
O436 C438 1.248 . S
Mg437 O436 2.028 . S
Mg437 O442 2.032 . S
Mg437 O444 2.079 . S
C438 O435 1.250 . S
C438 O436 1.248 . S
C439 O440 1.264 . S
C439 O447 1.249 . S
O440 C439 1.264 . S
O441 Mg434 1.986 . S
O441 C445 1.246 . S
O442 Mg437 2.032 . S
O442 C445 1.259 . S
O443 Mg434 2.114 . S
O443 C446 1.252 . S
O444 Mg434 2.251 . S
O444 Mg437 2.079 . S
O444 C446 1.273 . S
C445 O441 1.246 . S
C445 O442 1.259 . S
C446 O443 1.252 . S
C446 O444 1.273 . S
O447 Mg434 2.010 . S
O447 C439 1.249 . S
C448 C449 1.391 . S
C448 C450 1.394 1_565 S
C448 H464 0.928 1_565 S
C449 C448 1.391 . S
C449 C453 1.376 . S
C450 C448 1.394 1_545 S
C450 C451 1.369 . S
C450 C454 1.531 . S
C451 C450 1.369 . S
C451 C452 1.410 1_545 S
C451 C459 1.503 . S
C452 C451 1.410 1_565 S
C452 C453 1.392 . S
C452 C455 1.511 . S
C453 C449 1.376 . S
C453 C452 1.392 . S
C453 H465 0.929 . S
C454 C450 1.531 . S
C454 H466 0.960 . S
C454 H467 0.977 . S
C454 H468 0.960 . S
C455 C452 1.511 . S
C455 H469 0.961 . S
C455 H470 0.961 . S
C455 H471 0.961 1_565 S
C456 C457 1.370 1_565 S
C456 C458 1.363 . S
C456 H472 0.931 . S
C457 C456 1.370 1_545 S
C457 C461 1.408 . S
C458 C456 1.363 . S
C458 C459 1.370 1_565 S
C458 C462 1.524 . S
C459 C451 1.503 . S
C459 C458 1.370 1_545 S
C459 C460 1.403 . S
C460 C459 1.403 . S
C460 C461 1.404 . S
C460 C463 1.539 . S
C461 C457 1.408 . S
C461 C460 1.404 . S
C461 H473 0.930 . S
C462 C458 1.524 . S
C462 H474 0.956 . S
C462 H475 0.961 . S
C462 H476 0.961 . S
C463 C460 1.539 . S
C463 H477 0.958 . S
C463 H478 0.961 . S
C463 H479 0.960 . S
H464 C448 0.928 1_545 S
H465 C453 0.929 . S
H466 C454 0.960 . S
H467 C454 0.977 . S
H468 C454 0.960 . S
H469 C455 0.961 . S
H470 C455 0.961 . S
H471 C455 0.961 1_545 S
H472 C456 0.931 . S
H473 C461 0.930 . S
H474 C462 0.956 . S
H475 C462 0.961 . S
H476 C462 0.961 . S
H477 C463 0.958 . S
H478 C463 0.961 . S
H479 C463 0.960 . S
C480 C481 1.391 . S
C480 C482 1.394 . S
C480 H496 0.931 . S
C481 C480 1.391 . S
C481 C485 1.376 . S
C482 C480 1.394 . S
C482 C483 1.369 . S
C482 C486 1.531 . S
C483 C482 1.369 . S
C483 C484 1.410 . S
C483 C491 1.503 . S
C484 C483 1.410 . S
C484 C485 1.392 . S
C484 C487 1.511 . S
C485 C481 1.376 . S
C485 C484 1.392 . S
C485 H497 0.929 . S
C486 C482 1.531 . S
C486 H498 0.960 . S
C486 H499 0.962 . S
C486 H500 0.960 . S
C487 C484 1.511 . S
C487 H501 0.961 . S
C487 H502 0.961 . S
C487 H503 0.961 . S
C488 C489 1.370 . S
C488 C490 1.363 . S
C488 H504 0.931 . S
C489 C488 1.370 . S
C489 C493 1.408 . S
C490 C488 1.363 . S
C490 C491 1.370 . S
C490 C494 1.524 . S
C491 C483 1.503 . S
C491 C490 1.370 . S
C491 C492 1.403 . S
C492 C491 1.403 . S
C492 C493 1.404 . S
C492 C495 1.539 . S
C493 C489 1.408 . S
C493 C492 1.404 . S
C493 H505 0.930 . S
C494 C490 1.524 . S
C494 H506 0.956 . S
C494 H507 0.961 . S
C494 H508 0.961 . S
C495 C492 1.539 . S
C495 H509 0.958 . S
C495 H510 0.961 . S
C495 H511 0.960 . S
H496 C480 0.931 . S
H497 C485 0.929 . S
H498 C486 0.960 . S
H499 C486 0.962 . S
H500 C486 0.960 . S
H501 C487 0.961 . S
H502 C487 0.961 . S
H503 C487 0.961 . S
H504 C488 0.931 . S
H505 C493 0.930 . S
H506 C494 0.956 . S
H507 C494 0.961 . S
H508 C494 0.961 . S
H509 C495 0.958 . S
H510 C495 0.961 . S
H511 C495 0.960 . S
C512 C513 1.391 . S
C512 C514 1.394 1_545 S
C512 H528 0.933 . S
C513 C512 1.391 . S
C513 C517 1.376 . S
C514 C512 1.394 1_565 S
C514 C515 1.369 . S
C514 C518 1.531 . S
C515 C514 1.369 . S
C515 C516 1.410 1_565 S
C515 C523 1.503 . S
C516 C515 1.410 1_545 S
C516 C517 1.392 . S
C516 C519 1.511 . S
C517 C513 1.376 . S
C517 C516 1.392 . S
C517 H529 0.929 . S
C518 C514 1.531 . S
C518 H530 0.960 . S
C518 H531 0.962 1_565 S
C518 H532 0.960 . S
C519 C516 1.511 . S
C519 H533 0.961 1_455 S
C519 H534 0.961 . S
C519 H535 0.961 1_445 S
C520 C521 1.370 1_545 S
C520 C522 1.363 . S
C520 H536 0.931 . S
C521 C520 1.370 1_565 S
C521 C525 1.408 . S
C522 C520 1.363 . S
C522 C523 1.370 1_545 S
C522 C526 1.524 . S
C523 C515 1.503 . S
C523 C522 1.370 1_565 S
C523 C524 1.403 . S
C524 C523 1.403 . S
C524 C525 1.404 . S
C524 C527 1.539 . S
C525 C521 1.408 . S
C525 C524 1.404 . S
C525 H537 0.930 . S
C526 C522 1.524 . S
C526 H538 0.956 . S
C526 H539 0.961 . S
C526 H540 0.961 . S
C527 C524 1.539 . S
C527 H541 0.958 . S
C527 H542 0.961 . S
C527 H543 0.960 . S
H528 C512 0.933 . S
H529 C517 0.929 . S
H530 C518 0.960 . S
H531 C518 0.962 1_545 S
H532 C518 0.960 . S
H533 C519 0.961 1_655 S
H534 C519 0.961 . S
H535 C519 0.961 1_665 S
H536 C520 0.931 . S
H537 C525 0.930 . S
H538 C526 0.956 . S
H539 C526 0.961 . S
H540 C526 0.961 . S
H541 C527 0.958 . S
H542 C527 0.961 . S
H543 C527 0.960 . S
C544 C545 1.391 . S
C544 C546 1.394 . S
C544 H560 0.931 . S
C545 C544 1.391 . S
C545 C549 1.376 . S
C546 C544 1.394 . S
C546 C547 1.369 . S
C546 C550 1.531 . S
C547 C546 1.369 . S
C547 C548 1.410 . S
C547 C555 1.503 1_556 S
C548 C547 1.410 . S
C548 C549 1.392 . S
C548 C551 1.511 . S
C549 C545 1.376 . S
C549 C548 1.392 . S
C549 H561 0.929 . S
C550 C546 1.531 . S
C550 H562 0.895 1_556 S
C550 H563 0.962 . S
C550 H564 0.960 . S
C551 C548 1.511 . S
C551 H565 0.961 . S
C551 H566 0.961 1_556 S
C551 H567 0.961 . S
C552 C553 1.370 . S
C552 C554 1.363 . S
C552 H568 0.931 . S
C553 C552 1.370 . S
C553 C557 1.408 . S
C554 C552 1.363 . S
C554 C555 1.370 . S
C554 C558 1.524 . S
C555 C547 1.503 1_554 S
C555 C554 1.370 . S
C555 C556 1.403 . S
C556 C555 1.403 . S
C556 C557 1.404 . S
C556 C559 1.539 . S
C557 C553 1.408 . S
C557 C556 1.404 . S
C557 H569 0.930 . S
C558 C554 1.524 . S
C558 H570 0.956 1_554 S
C558 H571 0.961 1_554 S
C558 H572 0.961 . S
C559 C556 1.539 . S
C559 H573 0.958 . S
C559 H574 0.961 . S
C559 H575 0.960 . S
H560 C544 0.931 . S
H561 C549 0.929 . S
H562 C550 0.895 1_554 S
H563 C550 0.962 . S
H564 C550 0.960 . S
H565 C551 0.961 . S
H566 C551 0.961 1_554 S
H567 C551 0.961 . S
H568 C552 0.931 . S
H569 C557 0.930 . S
H570 C558 0.956 1_556 S
H571 C558 0.961 1_556 S
H572 C558 0.961 . S
H573 C559 0.958 . S
H574 C559 0.961 . S
H575 C559 0.960 . S
C576 C577 1.391 . S
C576 C578 1.394 . S
C576 H592 0.931 . S
C577 C576 1.391 . S
C577 C581 1.366 1_565 S
C578 C576 1.394 . S
C578 C579 1.369 . S
C578 C582 1.531 . S
C579 C578 1.369 . S
C579 C580 1.410 1_565 S
C579 C587 1.503 . S
C580 C579 1.410 1_545 S
C580 C581 1.395 . S
C580 C583 1.511 . S
C581 C577 1.366 1_545 S
C581 C580 1.395 . S
C581 H593 0.936 . S
C582 C578 1.531 . S
C582 H594 0.960 . S
C582 H595 0.962 . S
C582 H596 0.960 . S
C583 C580 1.511 . S
C583 H597 0.961 . S
C583 H598 0.961 . S
C583 H599 0.961 . S
C584 C585 1.370 . S
C584 C586 1.363 . S
C584 H600 0.931 . S
C585 C584 1.370 . S
C585 C589 1.408 1_545 S
C586 C584 1.363 . S
C586 C587 1.370 1_545 S
C586 C590 1.524 . S
C587 C579 1.503 . S
C587 C586 1.370 1_565 S
C587 C588 1.403 . S
C588 C587 1.403 . S
C588 C589 1.404 . S
C588 C591 1.539 . S
C589 C585 1.408 1_565 S
C589 C588 1.404 . S
C589 H601 0.930 . S
C590 C586 1.524 . S
C590 H602 0.956 . S
C590 H603 0.961 . S
C590 H604 0.961 . S
C591 C588 1.539 . S
C591 H605 0.958 . S
C591 H606 0.961 . S
C591 H607 0.960 . S
H592 C576 0.931 . S
H593 C581 0.936 . S
H594 C582 0.960 . S
H595 C582 0.962 . S
H596 C582 0.960 . S
H597 C583 0.961 . S
H598 C583 0.961 . S
H599 C583 0.961 . S
H600 C584 0.931 . S
H601 C589 0.930 . S
H602 C590 0.956 . S
H603 C590 0.961 . S
H604 C590 0.961 . S
H605 C591 0.958 . S
H606 C591 0.961 . S
H607 C591 0.960 . S
C608 C609 1.391 . S
C608 C610 1.394 . S
C608 H624 0.931 . S
C609 C608 1.391 . S
C609 C613 1.376 . S
C610 C608 1.394 . S
C610 C611 1.369 . S
C610 C614 1.531 . S
C611 C610 1.369 . S
C611 C612 1.410 . S
C611 C619 1.503 . S
C612 C611 1.410 . S
C612 C613 1.392 . S
C612 C615 1.511 . S
C613 C609 1.376 . S
C613 C612 1.392 . S
C613 H625 0.929 . S
C614 C610 1.531 . S
C614 H626 0.960 . S
C614 H627 0.962 . S
C614 H628 0.960 . S
C615 C612 1.511 . S
C615 H629 0.961 . S
C615 H630 0.961 . S
C615 H631 0.961 . S
C616 C617 1.370 . S
C616 C618 1.363 . S
C616 H632 0.931 . S
C617 C616 1.370 . S
C617 C621 1.408 . S
C618 C616 1.363 . S
C618 C619 1.370 . S
C618 C622 1.524 . S
C619 C611 1.503 . S
C619 C618 1.370 . S
C619 C620 1.403 . S
C620 C619 1.403 . S
C620 C621 1.404 . S
C620 C623 1.539 . S
C621 C617 1.408 . S
C621 C620 1.404 . S
C621 H633 0.930 . S
C622 C618 1.524 . S
C622 H634 0.956 . S
C622 H635 0.961 . S
C622 H636 0.961 . S
C623 C620 1.539 . S
C623 H637 0.958 . S
C623 H638 0.961 . S
C623 H639 0.960 . S
H624 C608 0.931 . S
H625 C613 0.929 . S
H626 C614 0.960 . S
H627 C614 0.962 . S
H628 C614 0.960 . S
H629 C615 0.961 . S
H630 C615 0.961 . S
H631 C615 0.961 . S
H632 C616 0.931 . S
H633 C621 0.930 . S
H634 C622 0.956 . S
H635 C622 0.961 . S
H636 C622 0.961 . S
H637 C623 0.958 . S
H638 C623 0.961 . S
H639 C623 0.960 . S
C640 C641 1.384 1_565 S
C640 C642 1.395 . S
C640 H656 0.936 . S
C641 C640 1.384 1_545 S
C641 C645 1.376 . S
C642 C640 1.395 . S
C642 C643 1.369 1_565 S
C642 C646 1.531 . S
C643 C642 1.369 1_545 S
C643 C644 1.410 . S
C643 C651 1.503 . S
C644 C643 1.410 . S
C644 C645 1.392 . S
C644 C647 1.511 . S
C645 C641 1.376 . S
C645 C644 1.392 . S
C645 H657 0.929 . S
C646 C642 1.531 . S
C646 H658 0.960 . S
C646 H659 0.962 . S
C646 H660 0.960 . S
C647 C644 1.511 . S
C647 H661 0.961 . S
C647 H662 0.961 . S
C647 H663 0.961 . S
C648 C649 1.370 . S
C648 C650 1.363 . S
C648 H664 0.931 . S
C649 C648 1.370 . S
C649 C653 1.408 1_565 S
C650 C648 1.363 . S
C650 C651 1.370 1_565 S
C650 C654 1.524 . S
C651 C643 1.503 . S
C651 C650 1.370 1_545 S
C651 C652 1.403 . S
C652 C651 1.403 . S
C652 C653 1.404 . S
C652 C655 1.539 . S
C653 C649 1.408 1_545 S
C653 C652 1.404 . S
C653 H665 0.930 . S
C654 C650 1.524 . S
C654 H666 0.956 . S
C654 H667 0.961 . S
C654 H668 0.961 . S
C655 C652 1.539 . S
C655 H669 0.958 . S
C655 H670 0.961 . S
C655 H671 0.960 . S
H656 C640 0.936 . S
H657 C645 0.929 . S
H658 C646 0.960 . S
H659 C646 0.962 . S
H660 C646 0.960 . S
H661 C647 0.961 . S
H662 C647 0.961 . S
H663 C647 0.961 . S
H664 C648 0.931 . S
H665 C653 0.930 . S
H666 C654 0.956 . S
H667 C654 0.961 . S
H668 C654 0.961 . S
H669 C655 0.958 . S
H670 C655 0.961 . S
H671 C655 0.960 . S
C672 C673 1.391 . S
C672 C674 1.394 . S
C672 H688 0.931 . S
C673 C672 1.391 . S
C673 C677 1.376 . S
C674 C672 1.394 . S
C674 C675 1.369 . S
C674 C678 1.531 . S
C675 C674 1.369 . S
C675 C676 1.410 . S
C675 C683 1.503 1_556 S
C676 C675 1.410 . S
C676 C677 1.392 . S
C676 C679 1.511 . S
C677 C673 1.376 . S
C677 C676 1.392 . S
C677 H689 0.929 . S
C678 C674 1.531 . S
C678 H690 0.960 1_556 S
C678 H691 0.961 1_556 S
C678 H692 0.960 . S
C679 C676 1.511 . S
C679 H693 0.961 . S
C679 H694 0.961 . S
C679 H695 0.961 . S
C680 C681 1.370 . S
C680 C682 1.363 . S
C680 H696 0.931 . S
C681 C680 1.370 . S
C681 C685 1.408 . S
C682 C680 1.363 . S
C682 C683 1.370 . S
C682 C686 1.524 . S
C683 C675 1.503 1_554 S
C683 C682 1.370 . S
C683 C684 1.403 . S
C684 C683 1.403 . S
C684 C685 1.404 . S
C684 C687 1.539 . S
C685 C681 1.408 . S
C685 C684 1.404 . S
C685 H697 0.930 . S
C686 C682 1.524 . S
C686 H698 0.956 . S
C686 H699 0.972 . S
C686 H700 0.961 . S
C687 C684 1.539 . S
C687 H701 0.958 . S
C687 H702 0.961 . S
C687 H703 0.960 1_554 S
H688 C672 0.931 . S
H689 C677 0.929 . S
H690 C678 0.960 1_554 S
H691 C678 0.961 1_554 S
H692 C678 0.960 . S
H693 C679 0.961 . S
H694 C679 0.961 . S
H695 C679 0.961 . S
H696 C680 0.931 . S
H697 C685 0.930 . S
H698 C686 0.956 . S
H699 C686 0.972 . S
H700 C686 0.961 . S
H701 C687 0.958 . S
H702 C687 0.961 . S
H703 C687 0.960 1_556 S
C704 C705 1.391 . S
C704 C706 1.394 . S
C704 H720 0.931 . S
C705 C704 1.391 . S
C705 C709 1.376 . S
C706 C704 1.394 . S
C706 C707 1.369 . S
C706 C710 1.531 . S
C707 C706 1.369 . S
C707 C708 1.410 . S
C707 C715 1.503 . S
C708 C707 1.410 . S
C708 C709 1.392 . S
C708 C711 1.511 . S
C709 C705 1.376 . S
C709 C708 1.392 . S
C709 H721 0.929 . S
C710 C706 1.531 . S
C710 H722 0.960 . S
C710 H723 0.962 . S
C710 H724 0.960 1_655 S
C711 C708 1.511 . S
C711 H725 0.961 . S
C711 H726 0.961 . S
C711 H727 0.961 . S
C712 C713 1.370 . S
C712 C714 1.363 . S
C712 H728 0.931 . S
C713 C712 1.370 . S
C713 C717 1.408 . S
C714 C712 1.363 . S
C714 C715 1.370 . S
C714 C718 1.524 . S
C715 C707 1.503 . S
C715 C714 1.370 . S
C715 C716 1.403 . S
C716 C715 1.403 . S
C716 C717 1.404 . S
C716 C719 1.539 . S
C717 C713 1.408 . S
C717 C716 1.404 . S
C717 H729 0.930 . S
C718 C714 1.524 . S
C718 H730 0.956 . S
C718 H731 0.961 . S
C718 H732 0.961 . S
C719 C716 1.539 . S
C719 H733 0.958 . S
C719 H734 0.961 . S
C719 H735 0.960 . S
H720 C704 0.931 . S
H721 C709 0.929 . S
H722 C710 0.960 . S
H723 C710 0.962 . S
H724 C710 0.960 1_455 S
H725 C711 0.961 . S
H726 C711 0.961 . S
H727 C711 0.961 . S
H728 C712 0.931 . S
H729 C717 0.930 . S
H730 C718 0.956 . S
H731 C718 0.961 . S
H732 C718 0.961 . S
H733 C719 0.958 . S
H734 C719 0.961 . S
H735 C719 0.960 . S
C736 C737 1.391 . S
C736 C738 1.394 . S
C736 H752 0.931 . S
C737 C736 1.391 . S
C737 C741 1.376 . S
C738 C736 1.394 . S
C738 C739 1.369 . S
C738 C742 1.531 . S
C739 C738 1.369 . S
C739 C740 1.410 . S
C739 C747 1.503 1_554 S
C740 C739 1.410 . S
C740 C741 1.392 . S
C740 C743 1.511 . S
C741 C737 1.376 . S
C741 C740 1.392 . S
C741 H753 0.929 . S
C742 C738 1.531 . S
C742 H754 0.960 1_554 S
C742 H755 0.976 . S
C742 H756 0.960 . S
C743 C740 1.511 . S
C743 H757 0.961 . S
C743 H758 0.961 . S
C743 H759 0.961 . S
C744 C745 1.370 . S
C744 C746 1.363 . S
C744 H760 0.931 . S
C745 C744 1.370 . S
C745 C749 1.408 . S
C746 C744 1.363 . S
C746 C747 1.370 . S
C746 C750 1.524 . S
C747 C739 1.503 1_556 S
C747 C746 1.370 . S
C747 C748 1.403 . S
C748 C747 1.403 . S
C748 C749 1.404 . S
C748 C751 1.539 . S
C749 C745 1.408 . S
C749 C748 1.404 . S
C749 H761 0.930 . S
C750 C746 1.524 . S
C750 H762 0.956 . S
C750 H763 0.961 . S
C750 H764 0.961 . S
C751 C748 1.539 . S
C751 H765 0.958 . S
C751 H766 0.961 . S
C751 H767 0.960 1_556 S
H752 C736 0.931 . S
H753 C741 0.929 . S
H754 C742 0.960 1_556 S
H755 C742 0.976 . S
H756 C742 0.960 . S
H757 C743 0.961 . S
H758 C743 0.961 . S
H759 C743 0.961 . S
H760 C744 0.931 . S
H761 C749 0.930 . S
H762 C750 0.956 . S
H763 C750 0.961 . S
H764 C750 0.961 . S
H765 C751 0.958 . S
H766 C751 0.961 . S
H767 C751 0.960 1_554 S
C768 C769 1.391 . S
C768 C770 1.394 . S
C768 H784 0.931 . S
C769 C768 1.391 . S
C769 C773 1.376 . S
C770 C768 1.394 . S
C770 C771 1.369 . S
C770 C774 1.531 . S
C771 C770 1.369 . S
C771 C772 1.410 . S
C771 C779 1.503 . S
C772 C771 1.410 . S
C772 C773 1.392 . S
C772 C775 1.511 . S
C773 C769 1.376 . S
C773 C772 1.392 . S
C773 H785 0.929 . S
C774 C770 1.531 . S
C774 H786 0.960 . S
C774 H787 0.962 . S
C774 H788 0.960 . S
C775 C772 1.511 . S
C775 H789 0.961 . S
C775 H790 0.961 . S
C775 H791 0.961 . S
C776 C777 1.370 . S
C776 C778 1.363 . S
C776 H792 0.931 . S
C777 C776 1.370 . S
C777 C781 1.408 . S
C778 C776 1.363 . S
C778 C779 1.370 . S
C778 C782 1.524 . S
C779 C771 1.503 . S
C779 C778 1.370 . S
C779 C780 1.403 . S
C780 C779 1.403 . S
C780 C781 1.404 . S
C780 C783 1.539 . S
C781 C777 1.408 . S
C781 C780 1.404 . S
C781 H793 0.930 . S
C782 C778 1.524 . S
C782 H794 0.956 . S
C782 H795 0.961 . S
C782 H796 0.961 . S
C783 C780 1.539 . S
C783 H797 0.958 . S
C783 H798 0.961 . S
C783 H799 0.960 . S
H784 C768 0.931 . S
H785 C773 0.929 . S
H786 C774 0.960 . S
H787 C774 0.962 . S
H788 C774 0.960 . S
H789 C775 0.961 . S
H790 C775 0.961 . S
H791 C775 0.961 . S
H792 C776 0.931 . S
H793 C781 0.930 . S
H794 C782 0.956 . S
H795 C782 0.961 . S
H796 C782 0.961 . S
H797 C783 0.958 . S
H798 C783 0.961 . S
H799 C783 0.960 . S
C800 C801 1.391 . S
C800 C802 1.394 . S
C800 H816 0.931 . S
C801 C800 1.391 . S
C801 C805 1.376 . S
C802 C800 1.394 . S
C802 C803 1.369 . S
C802 C806 1.531 . S
C803 C802 1.369 . S
C803 C804 1.410 . S
C803 C811 1.503 . S
C804 C803 1.410 . S
C804 C805 1.392 . S
C804 C807 1.511 . S
C805 C801 1.376 . S
C805 C804 1.392 . S
C805 H817 0.929 . S
C806 C802 1.531 . S
C806 H818 0.960 . S
C806 H819 0.962 . S
C806 H820 0.960 . S
C807 C804 1.511 . S
C807 H821 0.961 . S
C807 H822 0.961 . S
C807 H823 0.961 . S
C808 C809 1.370 . S
C808 C810 1.363 . S
C808 H824 0.931 . S
C809 C808 1.370 . S
C809 C813 1.408 . S
C810 C808 1.363 . S
C810 C811 1.370 . S
C810 C814 1.524 . S
C811 C803 1.503 . S
C811 C810 1.370 . S
C811 C812 1.403 . S
C812 C811 1.403 . S
C812 C813 1.404 . S
C812 C815 1.539 . S
C813 C809 1.408 . S
C813 C812 1.404 . S
C813 H825 0.930 . S
C814 C810 1.524 . S
C814 H826 0.956 . S
C814 H827 0.961 . S
C814 H828 0.961 . S
C815 C812 1.539 . S
C815 H829 0.958 . S
C815 H830 0.961 . S
C815 H831 0.960 . S
H816 C800 0.931 . S
H817 C805 0.929 . S
H818 C806 0.960 . S
H819 C806 0.962 . S
H820 C806 0.960 . S
H821 C807 0.961 . S
H822 C807 0.961 . S
H823 C807 0.961 . S
H824 C808 0.931 . S
H825 C813 0.930 . S
H826 C814 0.956 . S
H827 C814 0.961 . S
H828 C814 0.961 . S
H829 C815 0.958 . S
H830 C815 0.961 . S
H831 C815 0.960 . S
C832 C833 1.391 . S
C832 C834 1.394 . S
C832 H848 0.931 . S
C833 C832 1.391 . S
C833 C837 1.376 . S
C834 C832 1.394 . S
C834 C835 1.369 . S
C834 C838 1.531 . S
C835 C834 1.369 . S
C835 C836 1.410 . S
C835 C843 1.503 . S
C836 C835 1.410 . S
C836 C837 1.392 . S
C836 C839 1.511 . S
C837 C833 1.376 . S
C837 C836 1.392 . S
C837 H849 0.929 . S
C838 C834 1.531 . S
C838 H850 0.960 . S
C838 H851 0.962 . S
C838 H852 0.960 . S
C839 C836 1.511 . S
C839 H853 0.961 . S
C839 H854 0.961 . S
C839 H855 0.961 1_455 S
C840 C841 1.370 . S
C840 C842 1.363 . S
C840 H856 0.931 . S
C841 C840 1.370 . S
C841 C845 1.408 . S
C842 C840 1.363 . S
C842 C843 1.370 . S
C842 C846 1.524 . S
C843 C835 1.503 . S
C843 C842 1.370 . S
C843 C844 1.403 . S
C844 C843 1.403 . S
C844 C845 1.404 . S
C844 C847 1.539 . S
C845 C841 1.408 . S
C845 C844 1.404 . S
C845 H857 0.930 . S
C846 C842 1.524 . S
C846 H858 0.956 . S
C846 H859 0.961 . S
C846 H860 0.961 . S
C847 C844 1.539 . S
C847 H861 0.958 . S
C847 H862 0.961 . S
C847 H863 0.960 . S
H848 C832 0.931 . S
H849 C837 0.929 . S
H850 C838 0.960 . S
H851 C838 0.962 . S
H852 C838 0.960 . S
H853 C839 0.961 . S
H854 C839 0.961 . S
H855 C839 0.961 1_655 S
H856 C840 0.931 . S
H857 C845 0.930 . S
H858 C846 0.956 . S
H859 C846 0.961 . S
H860 C846 0.961 . S
H861 C847 0.958 . S
H862 C847 0.961 . S
H863 C847 0.960 . S
C864 C865 1.391 . S
C864 C866 1.394 . S
C864 H880 0.931 . S
C865 C864 1.391 . S
C865 C869 1.376 . S
C866 C864 1.394 . S
C866 C867 1.369 . S
C866 C870 1.531 . S
C867 C866 1.369 . S
C867 C868 1.410 . S
C867 C875 1.503 1_554 S
C868 C867 1.410 . S
C868 C869 1.392 . S
C868 C871 1.511 . S
C869 C865 1.376 . S
C869 C868 1.392 . S
C869 H881 0.929 . S
C870 C866 1.531 . S
C870 H882 0.960 1_554 S
C870 H883 0.952 1_554 S
C870 H884 0.960 . S
C871 C868 1.511 . S
C871 H885 0.961 . S
C871 H886 0.961 . S
C871 H887 0.961 . S
C872 C873 1.370 . S
C872 C874 1.363 . S
C872 H888 0.931 . S
C873 C872 1.370 . S
C873 C877 1.408 . S
C874 C872 1.363 . S
C874 C875 1.370 . S
C874 C878 1.524 . S
C875 C867 1.503 1_556 S
C875 C874 1.370 . S
C875 C876 1.403 . S
C876 C875 1.403 . S
C876 C877 1.404 . S
C876 C879 1.539 . S
C877 C873 1.408 . S
C877 C876 1.404 . S
C877 H889 0.930 . S
C878 C874 1.524 . S
C878 H890 0.956 . S
C878 H891 0.961 1_556 S
C878 H892 0.961 . S
C879 C876 1.539 . S
C879 H893 0.958 . S
C879 H894 0.961 . S
C879 H895 0.960 1_556 S
H880 C864 0.931 . S
H881 C869 0.929 . S
H882 C870 0.960 1_556 S
H883 C870 0.952 1_556 S
H884 C870 0.960 . S
H885 C871 0.961 . S
H886 C871 0.961 . S
H887 C871 0.961 . S
H888 C872 0.931 . S
H889 C877 0.930 . S
H890 C878 0.956 . S
H891 C878 0.961 1_554 S
H892 C878 0.961 . S
H893 C879 0.958 . S
H894 C879 0.961 . S
H895 C879 0.960 1_554 S
C896 C897 1.391 . S
C896 C898 1.394 . S
C896 H912 0.931 . S
C897 C896 1.391 . S
C897 C901 1.376 . S
C898 C896 1.394 . S
C898 C899 1.369 . S
C898 C902 1.531 . S
C899 C898 1.369 . S
C899 C900 1.410 . S
C899 C907 1.503 . S
C900 C899 1.410 . S
C900 C901 1.392 . S
C900 C903 1.511 . S
C901 C897 1.376 . S
C901 C900 1.392 . S
C901 H913 0.929 . S
C902 C898 1.531 . S
C902 H914 0.960 . S
C902 H915 0.962 . S
C902 H916 0.960 . S
C903 C900 1.511 . S
C903 H917 0.961 . S
C903 H918 0.961 . S
C903 H919 0.961 . S
C904 C905 1.370 . S
C904 C906 1.363 . S
C904 H920 0.931 . S
C905 C904 1.370 . S
C905 C909 1.408 . S
C906 C904 1.363 . S
C906 C907 1.370 . S
C906 C910 1.524 . S
C907 C899 1.503 . S
C907 C906 1.370 . S
C907 C908 1.403 . S
C908 C907 1.403 . S
C908 C909 1.404 . S
C908 C911 1.539 . S
C909 C905 1.408 . S
C909 C908 1.404 . S
C909 H921 0.930 . S
C910 C906 1.524 . S
C910 H922 0.956 . S
C910 H923 0.961 . S
C910 H924 0.961 . S
C911 C908 1.539 . S
C911 H925 0.958 . S
C911 H926 0.961 . S
C911 H927 0.960 . S
H912 C896 0.931 . S
H913 C901 0.929 . S
H914 C902 0.960 . S
H915 C902 0.962 . S
H916 C902 0.960 . S
H917 C903 0.961 . S
H918 C903 0.961 . S
H919 C903 0.961 . S
H920 C904 0.931 . S
H921 C909 0.930 . S
H922 C910 0.956 . S
H923 C910 0.961 . S
H924 C910 0.961 . S
H925 C911 0.958 . S
H926 C911 0.961 . S
H927 C911 0.960 . S
C928 C929 1.391 . S
C928 C930 1.394 . S
C928 H944 0.931 . S
C929 C928 1.391 . S
C929 C933 1.376 . S
C930 C928 1.394 . S
C930 C931 1.369 . S
C930 C934 1.531 . S
C931 C930 1.369 . S
C931 C932 1.410 . S
C931 C939 1.503 . S
C932 C931 1.410 . S
C932 C933 1.392 . S
C932 C935 1.511 . S
C933 C929 1.376 . S
C933 C932 1.392 . S
C933 H945 0.929 . S
C934 C930 1.531 . S
C934 H946 0.960 . S
C934 H947 0.962 . S
C934 H948 0.960 . S
C935 C932 1.511 . S
C935 H949 0.961 . S
C935 H950 0.961 . S
C935 H951 0.961 . S
C936 C937 1.370 . S
C936 C938 1.363 . S
C936 H952 0.931 . S
C937 C936 1.370 . S
C937 C941 1.408 . S
C938 C936 1.363 . S
C938 C939 1.370 . S
C938 C942 1.524 . S
C939 C931 1.503 . S
C939 C938 1.370 . S
C939 C940 1.403 . S
C940 C939 1.403 . S
C940 C941 1.404 . S
C940 C943 1.539 . S
C941 C937 1.408 . S
C941 C940 1.404 . S
C941 H953 0.930 . S
C942 C938 1.524 . S
C942 H954 0.956 . S
C942 H955 0.961 . S
C942 H956 0.961 . S
C943 C940 1.539 . S
C943 H957 0.958 . S
C943 H958 0.961 . S
C943 H959 0.960 . S
H944 C928 0.931 . S
H945 C933 0.929 . S
H946 C934 0.960 . S
H947 C934 0.962 . S
H948 C934 0.960 . S
H949 C935 0.961 . S
H950 C935 0.961 . S
H951 C935 0.961 . S
H952 C936 0.931 . S
H953 C941 0.930 . S
H954 C942 0.956 . S
H955 C942 0.961 . S
H956 C942 0.961 . S
H957 C943 0.958 . S
H958 C943 0.961 . S
H959 C943 0.960 . S
C960 C961 1.391 . S
C960 C962 1.394 . S
C960 H976 0.931 . S
C961 C960 1.391 . S
C961 C965 1.376 . S
C962 C960 1.394 . S
C962 C963 1.369 . S
C962 C966 1.531 . S
C963 C962 1.369 . S
C963 C964 1.410 . S
C963 C971 1.503 . S
C964 C963 1.410 . S
C964 C965 1.392 . S
C964 C967 1.511 . S
C965 C961 1.376 . S
C965 C964 1.392 . S
C965 H977 0.929 . S
C966 C962 1.531 . S
C966 H978 0.960 . S
C966 H979 0.962 . S
C966 H980 0.960 . S
C967 C964 1.511 . S
C967 H981 0.961 . S
C967 H982 0.961 . S
C967 H983 0.961 . S
C968 C969 1.370 . S
C968 C970 1.363 . S
C968 H984 0.931 . S
C969 C968 1.370 . S
C969 C973 1.408 . S
C970 C968 1.363 . S
C970 C971 1.370 . S
C970 C974 1.524 . S
C971 C963 1.503 . S
C971 C970 1.370 . S
C971 C972 1.403 . S
C972 C971 1.403 . S
C972 C973 1.404 . S
C972 C975 1.539 . S
C973 C969 1.408 . S
C973 C972 1.404 . S
C973 H985 0.930 . S
C974 C970 1.524 . S
C974 H986 0.956 . S
C974 H987 0.961 . S
C974 H988 0.961 . S
C975 C972 1.539 . S
C975 H989 0.958 . S
C975 H990 0.961 . S
C975 H991 0.960 . S
H976 C960 0.931 . S
H977 C965 0.929 . S
H978 C966 0.960 . S
H979 C966 0.962 . S
H980 C966 0.960 . S
H981 C967 0.961 . S
H982 C967 0.961 . S
H983 C967 0.961 . S
H984 C968 0.931 . S
H985 C973 0.930 . S
H986 C974 0.956 . S
H987 C974 0.961 . S
H988 C974 0.961 . S
H989 C975 0.958 . S
H990 C975 0.961 . S
H991 C975 0.960 . S
C992 C993 1.391 . S
C992 C994 1.394 . S
C992 H1008 0.931 . S
C993 C992 1.391 . S
C993 C997 1.376 . S
C994 C992 1.394 . S
C994 C995 1.369 . S
C994 C998 1.531 . S
C995 C994 1.369 . S
C995 C996 1.410 . S
C995 C1003 1.503 . S
C996 C995 1.410 . S
C996 C997 1.392 . S
C996 C999 1.511 . S
C997 C993 1.376 . S
C997 C996 1.392 . S
C997 H1009 0.929 . S
C998 C994 1.531 . S
C998 H1010 0.960 . S
C998 H1011 0.962 . S
C998 H1012 0.960 . S
C999 C996 1.511 . S
C999 H1013 0.961 . S
C999 H1014 0.961 . S
C999 H1015 0.961 . S
C1000 C1001 1.370 . S
C1000 C1002 1.363 . S
C1000 H1016 0.931 . S
C1001 C1000 1.370 . S
C1001 C1005 1.408 . S
C1002 C1000 1.363 . S
C1002 C1003 1.370 . S
C1002 C1006 1.524 . S
C1003 C995 1.503 . S
C1003 C1002 1.370 . S
C1003 C1004 1.403 . S
C1004 C1003 1.403 . S
C1004 C1005 1.404 . S
C1004 C1007 1.539 . S
C1005 C1001 1.408 . S
C1005 C1004 1.404 . S
C1005 H1017 0.930 . S
C1006 C1002 1.524 . S
C1006 H1018 0.956 . S
C1006 H1019 0.961 . S
C1006 H1020 0.961 . S
C1007 C1004 1.539 . S
C1007 H1021 0.958 . S
C1007 H1022 0.961 . S
C1007 H1023 0.960 . S
H1008 C992 0.931 . S
H1009 C997 0.929 . S
H1010 C998 0.960 . S
H1011 C998 0.962 . S
H1012 C998 0.960 . S
H1013 C999 0.961 . S
H1014 C999 0.961 . S
H1015 C999 0.961 . S
H1016 C1000 0.931 . S
H1017 C1005 0.930 . S
H1018 C1006 0.956 . S
H1019 C1006 0.961 . S
H1020 C1006 0.961 . S
H1021 C1007 0.958 . S
H1022 C1007 0.961 . S
H1023 C1007 0.960 . S
C1024 C1025 1.391 . S
C1024 C1026 1.394 . S
C1024 H1040 0.931 . S
C1025 C1024 1.391 . S
C1025 C1029 1.376 . S
C1026 C1024 1.394 . S
C1026 C1027 1.369 . S
C1026 C1030 1.531 . S
C1027 C1026 1.369 . S
C1027 C1028 1.410 . S
C1027 C1035 1.503 . S
C1028 C1027 1.410 . S
C1028 C1029 1.392 . S
C1028 C1031 1.511 . S
C1029 C1025 1.376 . S
C1029 C1028 1.392 . S
C1029 H1041 0.929 . S
C1030 C1026 1.531 . S
C1030 H1042 0.960 . S
C1030 H1043 0.962 . S
C1030 H1044 0.960 . S
C1031 C1028 1.511 . S
C1031 H1045 0.961 . S
C1031 H1046 0.961 . S
C1031 H1047 0.961 . S
C1032 C1033 1.370 . S
C1032 C1034 1.363 . S
C1032 H1048 0.931 . S
C1033 C1032 1.370 . S
C1033 C1037 1.408 . S
C1034 C1032 1.363 . S
C1034 C1035 1.370 . S
C1034 C1038 1.524 . S
C1035 C1027 1.503 . S
C1035 C1034 1.370 . S
C1035 C1036 1.403 . S
C1036 C1035 1.403 . S
C1036 C1037 1.404 . S
C1036 C1039 1.539 . S
C1037 C1033 1.408 . S
C1037 C1036 1.404 . S
C1037 H1049 0.930 . S
C1038 C1034 1.524 . S
C1038 H1050 0.956 . S
C1038 H1051 0.961 . S
C1038 H1052 0.961 . S
C1039 C1036 1.539 . S
C1039 H1053 0.958 . S
C1039 H1054 0.961 . S
C1039 H1055 0.960 . S
H1040 C1024 0.931 . S
H1041 C1029 0.929 . S
H1042 C1030 0.960 . S
H1043 C1030 0.962 . S
H1044 C1030 0.960 . S
H1045 C1031 0.961 . S
H1046 C1031 0.961 . S
H1047 C1031 0.961 . S
H1048 C1032 0.931 . S
H1049 C1037 0.930 . S
H1050 C1038 0.956 . S
H1051 C1038 0.961 . S
H1052 C1038 0.961 . S
H1053 C1039 0.958 . S
H1054 C1039 0.961 . S
H1055 C1039 0.960 . S
C1056 C1057 1.391 . S
C1056 C1058 1.394 . S
C1056 H1072 0.931 . S
C1057 C1056 1.391 . S
C1057 C1061 1.376 . S
C1058 C1056 1.394 . S
C1058 C1059 1.369 . S
C1058 C1062 1.531 . S
C1059 C1058 1.369 . S
C1059 C1060 1.410 . S
C1059 C1067 1.503 . S
C1060 C1059 1.410 . S
C1060 C1061 1.392 . S
C1060 C1063 1.511 . S
C1061 C1057 1.376 . S
C1061 C1060 1.392 . S
C1061 H1073 0.929 . S
C1062 C1058 1.531 . S
C1062 H1074 0.960 . S
C1062 H1075 0.962 . S
C1062 H1076 0.960 . S
C1063 C1060 1.511 . S
C1063 H1077 0.961 . S
C1063 H1078 0.961 . S
C1063 H1079 0.961 . S
C1064 C1065 1.370 . S
C1064 C1066 1.363 . S
C1064 H1080 0.931 . S
C1065 C1064 1.370 . S
C1065 C1069 1.408 . S
C1066 C1064 1.363 . S
C1066 C1067 1.370 . S
C1066 C1070 1.524 . S
C1067 C1059 1.503 . S
C1067 C1066 1.370 . S
C1067 C1068 1.403 . S
C1068 C1067 1.403 . S
C1068 C1069 1.404 . S
C1068 C1071 1.539 . S
C1069 C1065 1.408 . S
C1069 C1068 1.404 . S
C1069 H1081 0.930 . S
C1070 C1066 1.524 . S
C1070 H1082 0.956 . S
C1070 H1083 0.961 . S
C1070 H1084 0.961 . S
C1071 C1068 1.539 . S
C1071 H1085 0.958 . S
C1071 H1086 0.961 . S
C1071 H1087 0.960 . S
H1072 C1056 0.931 . S
H1073 C1061 0.929 . S
H1074 C1062 0.960 . S
H1075 C1062 0.962 . S
H1076 C1062 0.960 . S
H1077 C1063 0.961 . S
H1078 C1063 0.961 . S
H1079 C1063 0.961 . S
H1080 C1064 0.931 . S
H1081 C1069 0.930 . S
H1082 C1070 0.956 . S
H1083 C1070 0.961 . S
H1084 C1070 0.961 . S
H1085 C1071 0.958 . S
H1086 C1071 0.961 . S
H1087 C1071 0.960 . S
C1088 C1089 1.391 . S
C1088 C1090 1.394 . S
C1088 H1104 0.931 . S
C1089 C1088 1.391 . S
C1089 C1093 1.376 . S
C1090 C1088 1.394 . S
C1090 C1091 1.369 . S
C1090 C1094 1.531 . S
C1091 C1090 1.369 . S
C1091 C1092 1.410 . S
C1091 C1099 1.503 . S
C1092 C1091 1.410 . S
C1092 C1093 1.392 . S
C1092 C1095 1.511 . S
C1093 C1089 1.376 . S
C1093 C1092 1.392 . S
C1093 H1105 0.929 . S
C1094 C1090 1.531 . S
C1094 H1106 0.960 . S
C1094 H1107 0.962 . S
C1094 H1108 0.960 . S
C1095 C1092 1.511 . S
C1095 H1109 0.961 . S
C1095 H1110 0.961 . S
C1095 H1111 0.961 . S
C1096 C1097 1.370 . S
C1096 C1098 1.363 . S
C1096 H1112 0.931 . S
C1097 C1096 1.370 . S
C1097 C1101 1.408 . S
C1098 C1096 1.363 . S
C1098 C1099 1.370 . S
C1098 C1102 1.524 . S
C1099 C1091 1.503 . S
C1099 C1098 1.370 . S
C1099 C1100 1.403 . S
C1100 C1099 1.403 . S
C1100 C1101 1.404 . S
C1100 C1103 1.539 . S
C1101 C1097 1.408 . S
C1101 C1100 1.404 . S
C1101 H1113 0.920 1_545 S
C1102 C1098 1.524 . S
C1102 H1114 0.956 . S
C1102 H1115 0.961 . S
C1102 H1116 0.961 . S
C1103 C1100 1.539 . S
C1103 H1117 0.958 . S
C1103 H1118 0.961 . S
C1103 H1119 0.960 . S
H1104 C1088 0.931 . S
H1105 C1093 0.929 . S
H1106 C1094 0.960 . S
H1107 C1094 0.962 . S
H1108 C1094 0.960 . S
H1109 C1095 0.961 . S
H1110 C1095 0.961 . S
H1111 C1095 0.961 . S
H1112 C1096 0.931 . S
H1113 C1101 0.920 1_565 S
H1114 C1102 0.956 . S
H1115 C1102 0.961 . S
H1116 C1102 0.961 . S
H1117 C1103 0.958 . S
H1118 C1103 0.961 . S
H1119 C1103 0.960 . S
C1120 C1121 1.391 . S
C1120 C1122 1.394 . S
C1120 H1136 0.931 . S
C1121 C1120 1.391 . S
C1121 C1125 1.376 . S
C1122 C1120 1.394 . S
C1122 C1123 1.369 . S
C1122 C1126 1.531 . S
C1123 C1122 1.369 . S
C1123 C1124 1.410 . S
C1123 C1131 1.503 . S
C1124 C1123 1.410 . S
C1124 C1125 1.392 . S
C1124 C1127 1.511 . S
C1125 C1121 1.376 . S
C1125 C1124 1.392 . S
C1125 H1137 0.929 . S
C1126 C1122 1.531 . S
C1126 H1138 0.960 . S
C1126 H1139 0.962 . S
C1126 H1140 0.960 . S
C1127 C1124 1.511 . S
C1127 H1141 0.961 . S
C1127 H1142 0.961 . S
C1127 H1143 0.961 . S
C1128 C1129 1.370 . S
C1128 C1130 1.363 . S
C1128 H1144 0.931 . S
C1129 C1128 1.370 . S
C1129 C1133 1.408 . S
C1130 C1128 1.363 . S
C1130 C1131 1.370 . S
C1130 C1134 1.524 . S
C1131 C1123 1.503 . S
C1131 C1130 1.370 . S
C1131 C1132 1.403 . S
C1132 C1131 1.403 . S
C1132 C1133 1.404 . S
C1132 C1135 1.539 . S
C1133 C1129 1.408 . S
C1133 C1132 1.404 . S
C1133 H1145 0.930 . S
C1134 C1130 1.524 . S
C1134 H1146 0.956 . S
C1134 H1147 0.961 . S
C1134 H1148 0.961 . S
C1135 C1132 1.539 . S
C1135 H1149 0.958 . S
C1135 H1150 0.961 . S
C1135 H1151 0.960 . S
H1136 C1120 0.931 . S
H1137 C1125 0.929 . S
H1138 C1126 0.960 . S
H1139 C1126 0.962 . S
H1140 C1126 0.960 . S
H1141 C1127 0.961 . S
H1142 C1127 0.961 . S
H1143 C1127 0.961 . S
H1144 C1128 0.931 . S
H1145 C1133 0.930 . S
H1146 C1134 0.956 . S
H1147 C1134 0.961 . S
H1148 C1134 0.961 . S
H1149 C1135 0.958 . S
H1150 C1135 0.961 . S
H1151 C1135 0.960 . S
C1152 C1153 1.391 . S
C1152 C1154 1.394 . S
C1152 H1168 0.931 . S
C1153 C1152 1.391 . S
C1153 C1157 1.376 . S
C1154 C1152 1.394 . S
C1154 C1155 1.369 . S
C1154 C1158 1.531 . S
C1155 C1154 1.369 . S
C1155 C1156 1.410 . S
C1155 C1163 1.503 . S
C1156 C1155 1.410 . S
C1156 C1157 1.392 . S
C1156 C1159 1.511 . S
C1157 C1153 1.376 . S
C1157 C1156 1.392 . S
C1157 H1169 0.929 . S
C1158 C1154 1.531 . S
C1158 H1170 0.960 . S
C1158 H1171 0.962 . S
C1158 H1172 0.960 . S
C1159 C1156 1.511 . S
C1159 H1173 0.961 . S
C1159 H1174 0.961 . S
C1159 H1175 0.961 . S
C1160 C1161 1.370 . S
C1160 C1162 1.363 . S
C1160 H1176 0.931 . S
C1161 C1160 1.370 . S
C1161 C1165 1.408 . S
C1162 C1160 1.363 . S
C1162 C1163 1.370 . S
C1162 C1166 1.524 . S
C1163 C1155 1.503 . S
C1163 C1162 1.370 . S
C1163 C1164 1.403 . S
C1164 C1163 1.403 . S
C1164 C1165 1.404 . S
C1164 C1167 1.539 . S
C1165 C1161 1.408 . S
C1165 C1164 1.404 . S
C1165 H1177 0.930 . S
C1166 C1162 1.524 . S
C1166 H1178 0.956 . S
C1166 H1179 0.961 . S
C1166 H1180 0.961 . S
C1167 C1164 1.539 . S
C1167 H1181 0.958 . S
C1167 H1182 0.961 . S
C1167 H1183 0.960 . S
H1168 C1152 0.931 . S
H1169 C1157 0.929 . S
H1170 C1158 0.960 . S
H1171 C1158 0.962 . S
H1172 C1158 0.960 . S
H1173 C1159 0.961 . S
H1174 C1159 0.961 . S
H1175 C1159 0.961 . S
H1176 C1160 0.931 . S
H1177 C1165 0.930 . S
H1178 C1166 0.956 . S
H1179 C1166 0.961 . S
H1180 C1166 0.961 . S
H1181 C1167 0.958 . S
H1182 C1167 0.961 . S
H1183 C1167 0.960 . S
C1184 C1185 1.391 . S
C1184 C1186 1.394 . S
C1184 H1200 0.931 . S
C1185 C1184 1.391 . S
C1185 C1189 1.376 . S
C1186 C1184 1.394 . S
C1186 C1187 1.369 . S
C1186 C1190 1.531 . S
C1187 C1186 1.369 . S
C1187 C1188 1.410 . S
C1187 C1195 1.503 . S
C1188 C1187 1.410 . S
C1188 C1189 1.392 . S
C1188 C1191 1.511 . S
C1189 C1185 1.376 . S
C1189 C1188 1.392 . S
C1189 H1201 0.929 . S
C1190 C1186 1.531 . S
C1190 H1202 0.960 . S
C1190 H1203 0.962 . S
C1190 H1204 0.960 . S
C1191 C1188 1.511 . S
C1191 H1205 0.961 . S
C1191 H1206 0.961 . S
C1191 H1207 0.961 . S
C1192 C1193 1.370 . S
C1192 C1194 1.363 . S
C1192 H1208 0.931 . S
C1193 C1192 1.370 . S
C1193 C1197 1.408 . S
C1194 C1192 1.363 . S
C1194 C1195 1.370 . S
C1194 C1198 1.524 . S
C1195 C1187 1.503 . S
C1195 C1194 1.370 . S
C1195 C1196 1.403 . S
C1196 C1195 1.403 . S
C1196 C1197 1.404 . S
C1196 C1199 1.539 . S
C1197 C1193 1.408 . S
C1197 C1196 1.404 . S
C1197 H1209 0.930 . S
C1198 C1194 1.524 . S
C1198 H1210 0.956 . S
C1198 H1211 0.961 . S
C1198 H1212 0.961 . S
C1199 C1196 1.539 . S
C1199 H1213 0.958 . S
C1199 H1214 0.961 . S
C1199 H1215 0.960 . S
H1200 C1184 0.931 . S
H1201 C1189 0.929 . S
H1202 C1190 0.960 . S
H1203 C1190 0.962 . S
H1204 C1190 0.960 . S
H1205 C1191 0.961 . S
H1206 C1191 0.961 . S
H1207 C1191 0.961 . S
H1208 C1192 0.931 . S
H1209 C1197 0.930 . S
H1210 C1198 0.956 . S
H1211 C1198 0.961 . S
H1212 C1198 0.961 . S
H1213 C1199 0.958 . S
H1214 C1199 0.961 . S
H1215 C1199 0.960 . S
C1216 C1217 1.391 . S
C1216 C1218 1.394 . S
C1216 H1232 0.931 . S
C1217 C1216 1.391 . S
C1217 C1221 1.376 . S
C1218 C1216 1.394 . S
C1218 C1219 1.369 . S
C1218 C1222 1.531 . S
C1219 C1218 1.369 . S
C1219 C1220 1.410 . S
C1219 C1227 1.503 . S
C1220 C1219 1.410 . S
C1220 C1221 1.392 . S
C1220 C1223 1.511 . S
C1221 C1217 1.376 . S
C1221 C1220 1.392 . S
C1221 H1233 0.929 . S
C1222 C1218 1.531 . S
C1222 H1234 0.960 . S
C1222 H1235 0.962 . S
C1222 H1236 0.960 . S
C1223 C1220 1.511 . S
C1223 H1237 0.961 . S
C1223 H1238 0.961 . S
C1223 H1239 0.961 . S
C1224 C1225 1.370 . S
C1224 C1226 1.363 . S
C1224 H1240 0.931 . S
C1225 C1224 1.370 . S
C1225 C1229 1.408 . S
C1226 C1224 1.363 . S
C1226 C1227 1.370 . S
C1226 C1230 1.524 . S
C1227 C1219 1.503 . S
C1227 C1226 1.370 . S
C1227 C1228 1.403 . S
C1228 C1227 1.403 . S
C1228 C1229 1.404 . S
C1228 C1231 1.539 . S
C1229 C1225 1.408 . S
C1229 C1228 1.404 . S
C1229 H1241 0.930 . S
C1230 C1226 1.524 . S
C1230 H1242 0.956 . S
C1230 H1243 0.961 . S
C1230 H1244 0.961 . S
C1231 C1228 1.539 . S
C1231 H1245 0.958 . S
C1231 H1246 0.961 . S
C1231 H1247 0.960 . S
H1232 C1216 0.931 . S
H1233 C1221 0.929 . S
H1234 C1222 0.960 . S
H1235 C1222 0.962 . S
H1236 C1222 0.960 . S
H1237 C1223 0.961 . S
H1238 C1223 0.961 . S
H1239 C1223 0.961 . S
H1240 C1224 0.931 . S
H1241 C1229 0.930 . S
H1242 C1230 0.956 . S
H1243 C1230 0.961 . S
H1244 C1230 0.961 . S
H1245 C1231 0.958 . S
H1246 C1231 0.961 . S
H1247 C1231 0.960 . S
C1248 C1249 1.391 . S
C1248 C1250 1.394 . S
C1248 H1264 0.931 . S
C1249 C1248 1.391 . S
C1249 C1253 1.376 . S
C1250 C1248 1.394 . S
C1250 C1251 1.369 . S
C1250 C1254 1.531 . S
C1251 C1250 1.369 . S
C1251 C1252 1.410 . S
C1251 C1259 1.503 . S
C1252 C1251 1.410 . S
C1252 C1253 1.392 . S
C1252 C1255 1.511 . S
C1253 C1249 1.376 . S
C1253 C1252 1.392 . S
C1253 H1265 0.929 . S
C1254 C1250 1.531 . S
C1254 H1266 0.960 . S
C1254 H1267 0.962 . S
C1254 H1268 0.960 . S
C1255 C1252 1.511 . S
C1255 H1269 0.961 . S
C1255 H1270 0.961 . S
C1255 H1271 0.961 . S
C1256 C1257 1.370 . S
C1256 C1258 1.363 . S
C1256 H1272 0.931 . S
C1257 C1256 1.370 . S
C1257 C1261 1.408 . S
C1258 C1256 1.363 . S
C1258 C1259 1.370 . S
C1258 C1262 1.524 . S
C1259 C1251 1.503 . S
C1259 C1258 1.370 . S
C1259 C1260 1.403 . S
C1260 C1259 1.403 . S
C1260 C1261 1.404 . S
C1260 C1263 1.539 . S
C1261 C1257 1.408 . S
C1261 C1260 1.404 . S
C1261 H1273 0.930 . S
C1262 C1258 1.524 . S
C1262 H1274 0.956 . S
C1262 H1275 0.961 . S
C1262 H1276 0.961 . S
C1263 C1260 1.539 . S
C1263 H1277 0.958 . S
C1263 H1278 0.961 . S
C1263 H1279 0.960 . S
H1264 C1248 0.931 . S
H1265 C1253 0.929 . S
H1266 C1254 0.960 . S
H1267 C1254 0.962 . S
H1268 C1254 0.960 . S
H1269 C1255 0.961 . S
H1270 C1255 0.961 . S
H1271 C1255 0.961 . S
H1272 C1256 0.931 . S
H1273 C1261 0.930 . S
H1274 C1262 0.956 . S
H1275 C1262 0.961 . S
H1276 C1262 0.961 . S
H1277 C1263 0.958 . S
H1278 C1263 0.961 . S
H1279 C1263 0.960 . S
C1280 C1281 1.391 . S
C1280 C1282 1.394 . S
C1280 H1296 0.931 . S
C1281 C1280 1.391 . S
C1281 C1285 1.376 . S
C1282 C1280 1.394 . S
C1282 C1283 1.369 . S
C1282 C1286 1.531 . S
C1283 C1282 1.369 . S
C1283 C1284 1.410 . S
C1283 C1291 1.503 . S
C1284 C1283 1.410 . S
C1284 C1285 1.392 . S
C1284 C1287 1.511 . S
C1285 C1281 1.376 . S
C1285 C1284 1.392 . S
C1285 H1297 0.929 . S
C1286 C1282 1.531 . S
C1286 H1298 0.960 . S
C1286 H1299 0.962 . S
C1286 H1300 0.960 . S
C1287 C1284 1.511 . S
C1287 H1301 0.961 . S
C1287 H1302 0.961 . S
C1287 H1303 0.961 . S
C1288 C1289 1.370 . S
C1288 C1290 1.363 . S
C1288 H1304 0.931 . S
C1289 C1288 1.370 . S
C1289 C1293 1.408 . S
C1290 C1288 1.363 . S
C1290 C1291 1.370 . S
C1290 C1294 1.524 . S
C1291 C1283 1.503 . S
C1291 C1290 1.370 . S
C1291 C1292 1.403 . S
C1292 C1291 1.403 . S
C1292 C1293 1.404 . S
C1292 C1295 1.539 . S
C1293 C1289 1.408 . S
C1293 C1292 1.404 . S
C1293 H1305 0.930 . S
C1294 C1290 1.524 . S
C1294 H1306 0.956 . S
C1294 H1307 0.961 . S
C1294 H1308 0.961 . S
C1295 C1292 1.539 . S
C1295 H1309 0.958 . S
C1295 H1310 0.961 . S
C1295 H1311 0.960 . S
H1296 C1280 0.931 . S
H1297 C1285 0.929 . S
H1298 C1286 0.960 . S
H1299 C1286 0.962 . S
H1300 C1286 0.960 . S
H1301 C1287 0.961 . S
H1302 C1287 0.961 . S
H1303 C1287 0.961 . S
H1304 C1288 0.931 . S
H1305 C1293 0.930 . S
H1306 C1294 0.956 . S
H1307 C1294 0.961 . S
H1308 C1294 0.961 . S
H1309 C1295 0.958 . S
H1310 C1295 0.961 . S
H1311 C1295 0.960 . S
C1312 C1313 1.391 . S
C1312 C1314 1.394 . S
C1312 H1328 0.931 . S
C1313 C1312 1.391 . S
C1313 C1317 1.376 . S
C1314 C1312 1.394 . S
C1314 C1315 1.369 . S
C1314 C1318 1.531 . S
C1315 C1314 1.369 . S
C1315 C1316 1.410 . S
C1315 C1323 1.503 . S
C1316 C1315 1.410 . S
C1316 C1317 1.392 . S
C1316 C1319 1.511 . S
C1317 C1313 1.376 . S
C1317 C1316 1.392 . S
C1317 H1329 0.929 . S
C1318 C1314 1.531 . S
C1318 H1330 0.960 . S
C1318 H1331 0.962 . S
C1318 H1332 0.960 . S
C1319 C1316 1.511 . S
C1319 H1333 0.961 . S
C1319 H1334 0.961 . S
C1319 H1335 0.961 . S
C1320 C1321 1.370 . S
C1320 C1322 1.363 . S
C1320 H1336 0.931 . S
C1321 C1320 1.370 . S
C1321 C1325 1.408 . S
C1322 C1320 1.363 . S
C1322 C1323 1.370 . S
C1322 C1326 1.524 . S
C1323 C1315 1.503 . S
C1323 C1322 1.370 . S
C1323 C1324 1.403 . S
C1324 C1323 1.403 . S
C1324 C1325 1.404 . S
C1324 C1327 1.539 . S
C1325 C1321 1.408 . S
C1325 C1324 1.404 . S
C1325 H1337 0.930 . S
C1326 C1322 1.524 . S
C1326 H1338 0.956 . S
C1326 H1339 0.961 . S
C1326 H1340 0.961 . S
C1327 C1324 1.539 . S
C1327 H1341 0.958 . S
C1327 H1342 0.961 . S
C1327 H1343 0.960 . S
H1328 C1312 0.931 . S
H1329 C1317 0.929 . S
H1330 C1318 0.960 . S
H1331 C1318 0.962 . S
H1332 C1318 0.960 . S
H1333 C1319 0.961 . S
H1334 C1319 0.961 . S
H1335 C1319 0.961 . S
H1336 C1320 0.931 . S
H1337 C1325 0.930 . S
H1338 C1326 0.956 . S
H1339 C1326 0.961 . S
H1340 C1326 0.961 . S
H1341 C1327 0.958 . S
H1342 C1327 0.961 . S
H1343 C1327 0.960 . S
C1344 C1345 1.391 . S
C1344 C1346 1.394 . S
C1344 H1360 0.931 . S
C1345 C1344 1.391 . S
C1345 C1349 1.376 . S
C1346 C1344 1.394 . S
C1346 C1347 1.369 . S
C1346 C1350 1.531 . S
C1347 C1346 1.369 . S
C1347 C1348 1.410 . S
C1347 C1355 1.503 . S
C1348 C1347 1.410 . S
C1348 C1349 1.392 . S
C1348 C1351 1.511 . S
C1349 C1345 1.376 . S
C1349 C1348 1.392 . S
C1349 H1361 0.929 . S
C1350 C1346 1.531 . S
C1350 H1362 0.960 . S
C1350 H1363 0.962 . S
C1350 H1364 0.960 . S
C1351 C1348 1.511 . S
C1351 H1365 0.961 . S
C1351 H1366 0.961 . S
C1351 H1367 0.961 . S
C1352 C1353 1.370 . S
C1352 C1354 1.363 . S
C1352 H1368 0.931 . S
C1353 C1352 1.370 . S
C1353 C1357 1.408 . S
C1354 C1352 1.363 . S
C1354 C1355 1.370 . S
C1354 C1358 1.524 . S
C1355 C1347 1.503 . S
C1355 C1354 1.370 . S
C1355 C1356 1.403 . S
C1356 C1355 1.403 . S
C1356 C1357 1.404 . S
C1356 C1359 1.539 . S
C1357 C1353 1.408 . S
C1357 C1356 1.404 . S
C1357 H1369 0.930 . S
C1358 C1354 1.524 . S
C1358 H1370 0.956 . S
C1358 H1371 0.961 . S
C1358 H1372 0.961 . S
C1359 C1356 1.539 . S
C1359 H1373 0.958 . S
C1359 H1374 0.961 . S
C1359 H1375 0.960 . S
H1360 C1344 0.931 . S
H1361 C1349 0.929 . S
H1362 C1350 0.960 . S
H1363 C1350 0.962 . S
H1364 C1350 0.960 . S
H1365 C1351 0.961 . S
H1366 C1351 0.961 . S
H1367 C1351 0.961 . S
H1368 C1352 0.931 . S
H1369 C1357 0.930 . S
H1370 C1358 0.956 . S
H1371 C1358 0.961 . S
H1372 C1358 0.961 . S
H1373 C1359 0.958 . S
H1374 C1359 0.961 . S
H1375 C1359 0.960 . S
C1376 C1377 1.391 . S
C1376 C1378 1.394 . S
C1376 H1392 0.931 . S
C1377 C1376 1.391 . S
C1377 C1381 1.376 . S
C1378 C1376 1.394 . S
C1378 C1379 1.369 . S
C1378 C1382 1.531 . S
C1379 C1378 1.369 . S
C1379 C1380 1.410 . S
C1379 C1387 1.503 . S
C1380 C1379 1.410 . S
C1380 C1381 1.392 . S
C1380 C1383 1.511 . S
C1381 C1377 1.376 . S
C1381 C1380 1.392 . S
C1381 H1393 0.929 . S
C1382 C1378 1.531 . S
C1382 H1394 0.960 . S
C1382 H1395 0.962 . S
C1382 H1396 0.960 . S
C1383 C1380 1.511 . S
C1383 H1397 0.961 . S
C1383 H1398 0.961 . S
C1383 H1399 0.961 . S
C1384 C1385 1.370 . S
C1384 C1386 1.363 . S
C1384 H1400 0.931 . S
C1385 C1384 1.370 . S
C1385 C1389 1.408 . S
C1386 C1384 1.363 . S
C1386 C1387 1.370 . S
C1386 C1390 1.524 . S
C1387 C1379 1.503 . S
C1387 C1386 1.370 . S
C1387 C1388 1.403 . S
C1388 C1387 1.403 . S
C1388 C1389 1.404 . S
C1388 C1391 1.539 . S
C1389 C1385 1.408 . S
C1389 C1388 1.404 . S
C1389 H1401 0.930 . S
C1390 C1386 1.524 . S
C1390 H1402 0.956 . S
C1390 H1403 0.961 . S
C1390 H1404 0.961 . S
C1391 C1388 1.539 . S
C1391 H1405 0.958 . S
C1391 H1406 0.961 . S
C1391 H1407 0.960 . S
H1392 C1376 0.931 . S
H1393 C1381 0.929 . S
H1394 C1382 0.960 . S
H1395 C1382 0.962 . S
H1396 C1382 0.960 . S
H1397 C1383 0.961 . S
H1398 C1383 0.961 . S
H1399 C1383 0.961 . S
H1400 C1384 0.931 . S
H1401 C1389 0.930 . S
H1402 C1390 0.956 . S
H1403 C1390 0.961 . S
H1404 C1390 0.961 . S
H1405 C1391 0.958 . S
H1406 C1391 0.961 . S
H1407 C1391 0.960 . S
C1408 C1409 1.391 . S
C1408 C1410 1.394 . S
C1408 H1424 0.931 . S
C1409 C1408 1.391 . S
C1409 C1413 1.376 . S
C1410 C1408 1.394 . S
C1410 C1411 1.369 . S
C1410 C1414 1.531 . S
C1411 C1410 1.369 . S
C1411 C1412 1.410 . S
C1411 C1419 1.503 . S
C1412 C1411 1.410 . S
C1412 C1413 1.392 . S
C1412 C1415 1.511 . S
C1413 C1409 1.376 . S
C1413 C1412 1.392 . S
C1413 H1425 0.929 . S
C1414 C1410 1.531 . S
C1414 H1426 0.960 . S
C1414 H1427 0.962 . S
C1414 H1428 0.960 . S
C1415 C1412 1.511 . S
C1415 H1429 0.961 . S
C1415 H1430 0.961 . S
C1415 H1431 0.961 . S
C1416 C1417 1.370 . S
C1416 C1418 1.363 . S
C1416 H1432 0.931 . S
C1417 C1416 1.370 . S
C1417 C1421 1.408 . S
C1418 C1416 1.363 . S
C1418 C1419 1.370 . S
C1418 C1422 1.524 . S
C1419 C1411 1.503 . S
C1419 C1418 1.370 . S
C1419 C1420 1.403 . S
C1420 C1419 1.403 . S
C1420 C1421 1.404 . S
C1420 C1423 1.539 . S
C1421 C1417 1.408 . S
C1421 C1420 1.404 . S
C1421 H1433 0.930 . S
C1422 C1418 1.524 . S
C1422 H1434 0.956 . S
C1422 H1435 0.961 . S
C1422 H1436 0.961 . S
C1423 C1420 1.539 . S
C1423 H1437 0.958 . S
C1423 H1438 0.961 . S
C1423 H1439 0.960 . S
H1424 C1408 0.931 . S
H1425 C1413 0.929 . S
H1426 C1414 0.960 . S
H1427 C1414 0.962 . S
H1428 C1414 0.960 . S
H1429 C1415 0.961 . S
H1430 C1415 0.961 . S
H1431 C1415 0.961 . S
H1432 C1416 0.931 . S
H1433 C1421 0.930 . S
H1434 C1422 0.956 . S
H1435 C1422 0.961 . S
H1436 C1422 0.961 . S
H1437 C1423 0.958 . S
H1438 C1423 0.961 . S
H1439 C1423 0.960 . S
C1440 C1441 1.391 . S
C1440 C1442 1.394 . S
C1440 H1456 0.931 . S
C1441 C1440 1.391 . S
C1441 C1445 1.376 . S
C1442 C1440 1.394 . S
C1442 C1443 1.369 . S
C1442 C1446 1.531 . S
C1443 C1442 1.369 . S
C1443 C1444 1.410 . S
C1443 C1451 1.503 . S
C1444 C1443 1.410 . S
C1444 C1445 1.392 . S
C1444 C1447 1.511 . S
C1445 C1441 1.376 . S
C1445 C1444 1.392 . S
C1445 H1457 0.929 . S
C1446 C1442 1.531 . S
C1446 H1458 0.960 . S
C1446 H1459 0.962 . S
C1446 H1460 0.960 . S
C1447 C1444 1.511 . S
C1447 H1461 0.961 . S
C1447 H1462 0.961 . S
C1447 H1463 0.961 . S
C1448 C1449 1.370 . S
C1448 C1450 1.363 . S
C1448 H1464 0.931 . S
C1449 C1448 1.370 . S
C1449 C1453 1.408 . S
C1450 C1448 1.363 . S
C1450 C1451 1.370 . S
C1450 C1454 1.524 . S
C1451 C1443 1.503 . S
C1451 C1450 1.370 . S
C1451 C1452 1.403 . S
C1452 C1451 1.403 . S
C1452 C1453 1.404 . S
C1452 C1455 1.539 . S
C1453 C1449 1.408 . S
C1453 C1452 1.404 . S
C1453 H1465 0.930 . S
C1454 C1450 1.524 . S
C1454 H1466 0.956 . S
C1454 H1467 0.961 . S
C1454 H1468 0.961 . S
C1455 C1452 1.539 . S
C1455 H1469 0.958 . S
C1455 H1470 0.961 . S
C1455 H1471 0.960 . S
H1456 C1440 0.931 . S
H1457 C1445 0.929 . S
H1458 C1446 0.960 . S
H1459 C1446 0.962 . S
H1460 C1446 0.960 . S
H1461 C1447 0.961 . S
H1462 C1447 0.961 . S
H1463 C1447 0.961 . S
H1464 C1448 0.931 . S
H1465 C1453 0.930 . S
H1466 C1454 0.956 . S
H1467 C1454 0.961 . S
H1468 C1454 0.961 . S
H1469 C1455 0.958 . S
H1470 C1455 0.961 . S
H1471 C1455 0.960 . S
C1472 C1473 1.391 . S
C1472 C1474 1.394 . S
C1472 H1488 0.931 . S
C1473 C1472 1.391 . S
C1473 C1477 1.376 . S
C1474 C1472 1.394 . S
C1474 C1475 1.369 . S
C1474 C1478 1.531 . S
C1475 C1474 1.369 . S
C1475 C1476 1.410 . S
C1475 C1483 1.503 . S
C1476 C1475 1.410 . S
C1476 C1477 1.392 . S
C1476 C1479 1.511 . S
C1477 C1473 1.376 . S
C1477 C1476 1.392 . S
C1477 H1489 0.929 . S
C1478 C1474 1.531 . S
C1478 H1490 0.960 . S
C1478 H1491 0.962 . S
C1478 H1492 0.960 . S
C1479 C1476 1.511 . S
C1479 H1493 0.961 . S
C1479 H1494 0.961 . S
C1479 H1495 0.961 . S
C1480 C1481 1.370 . S
C1480 C1482 1.363 . S
C1480 H1496 0.931 . S
C1481 C1480 1.370 . S
C1481 C1485 1.408 . S
C1482 C1480 1.363 . S
C1482 C1483 1.370 . S
C1482 C1486 1.524 . S
C1483 C1475 1.503 . S
C1483 C1482 1.370 . S
C1483 C1484 1.403 . S
C1484 C1483 1.403 . S
C1484 C1485 1.404 . S
C1484 C1487 1.539 . S
C1485 C1481 1.408 . S
C1485 C1484 1.404 . S
C1485 H1497 0.930 . S
C1486 C1482 1.524 . S
C1486 H1498 0.956 . S
C1486 H1499 0.961 . S
C1486 H1500 0.961 . S
C1487 C1484 1.539 . S
C1487 H1501 0.958 . S
C1487 H1502 0.961 . S
C1487 H1503 0.960 . S
H1488 C1472 0.931 . S
H1489 C1477 0.929 . S
H1490 C1478 0.960 . S
H1491 C1478 0.962 . S
H1492 C1478 0.960 . S
H1493 C1479 0.961 . S
H1494 C1479 0.961 . S
H1495 C1479 0.961 . S
H1496 C1480 0.931 . S
H1497 C1485 0.930 . S
H1498 C1486 0.956 . S
H1499 C1486 0.961 . S
H1500 C1486 0.961 . S
H1501 C1487 0.958 . S
H1502 C1487 0.961 . S
H1503 C1487 0.960 . S
C1504 C1505 1.391 . S
C1504 C1506 1.394 . S
C1504 H1520 0.931 . S
C1505 C1504 1.391 . S
C1505 C1509 1.376 . S
C1506 C1504 1.394 . S
C1506 C1507 1.369 . S
C1506 C1510 1.531 . S
C1507 C1506 1.369 . S
C1507 C1508 1.410 . S
C1507 C1515 1.503 . S
C1508 C1507 1.410 . S
C1508 C1509 1.392 . S
C1508 C1511 1.511 . S
C1509 C1505 1.376 . S
C1509 C1508 1.392 . S
C1509 H1521 0.929 . S
C1510 C1506 1.531 . S
C1510 H1522 0.960 . S
C1510 H1523 0.962 . S
C1510 H1524 0.960 . S
C1511 C1508 1.511 . S
C1511 H1525 0.961 . S
C1511 H1526 0.961 . S
C1511 H1527 0.961 . S
C1512 C1513 1.370 . S
C1512 C1514 1.363 . S
C1512 H1528 0.931 . S
C1513 C1512 1.370 . S
C1513 C1517 1.408 . S
C1514 C1512 1.363 . S
C1514 C1515 1.370 . S
C1514 C1518 1.524 . S
C1515 C1507 1.503 . S
C1515 C1514 1.370 . S
C1515 C1516 1.403 . S
C1516 C1515 1.403 . S
C1516 C1517 1.404 . S
C1516 C1519 1.539 . S
C1517 C1513 1.408 . S
C1517 C1516 1.404 . S
C1517 H1529 0.930 . S
C1518 C1514 1.524 . S
C1518 H1530 0.956 . S
C1518 H1531 0.961 . S
C1518 H1532 0.961 . S
C1519 C1516 1.539 . S
C1519 H1533 0.958 . S
C1519 H1534 0.961 . S
C1519 H1535 0.960 . S
H1520 C1504 0.931 . S
H1521 C1509 0.929 . S
H1522 C1510 0.960 . S
H1523 C1510 0.962 . S
H1524 C1510 0.960 . S
H1525 C1511 0.961 . S
H1526 C1511 0.961 . S
H1527 C1511 0.961 . S
H1528 C1512 0.931 . S
H1529 C1517 0.930 . S
H1530 C1518 0.956 . S
H1531 C1518 0.961 . S
H1532 C1518 0.961 . S
H1533 C1519 0.958 . S
H1534 C1519 0.961 . S
H1535 C1519 0.960 . S
C1536 C1537 1.391 . S
C1536 C1538 1.394 . S
C1536 H1552 0.931 . S
C1537 C1536 1.391 . S
C1537 C1541 1.376 . S
C1538 C1536 1.394 . S
C1538 C1539 1.369 . S
C1538 C1542 1.531 . S
C1539 C1538 1.369 . S
C1539 C1540 1.410 . S
C1539 C1547 1.503 . S
C1540 C1539 1.410 . S
C1540 C1541 1.392 . S
C1540 C1543 1.511 . S
C1541 C1537 1.376 . S
C1541 C1540 1.392 . S
C1541 H1553 0.929 . S
C1542 C1538 1.531 . S
C1542 H1554 0.960 . S
C1542 H1555 0.962 . S
C1542 H1556 0.960 . S
C1543 C1540 1.511 . S
C1543 H1557 0.961 . S
C1543 H1558 0.961 . S
C1543 H1559 0.961 . S
C1544 C1545 1.370 . S
C1544 C1546 1.363 . S
C1544 H1560 0.931 . S
C1545 C1544 1.370 . S
C1545 C1549 1.408 . S
C1546 C1544 1.363 . S
C1546 C1547 1.370 . S
C1546 C1550 1.524 . S
C1547 C1539 1.503 . S
C1547 C1546 1.370 . S
C1547 C1548 1.403 . S
C1548 C1547 1.403 . S
C1548 C1549 1.404 . S
C1548 C1551 1.539 . S
C1549 C1545 1.408 . S
C1549 C1548 1.404 . S
C1549 H1561 0.930 . S
C1550 C1546 1.524 . S
C1550 H1562 0.956 . S
C1550 H1563 0.961 . S
C1550 H1564 0.961 . S
C1551 C1548 1.539 . S
C1551 H1565 0.958 . S
C1551 H1566 0.961 . S
C1551 H1567 0.960 . S
H1552 C1536 0.931 . S
H1553 C1541 0.929 . S
H1554 C1542 0.960 . S
H1555 C1542 0.962 . S
H1556 C1542 0.960 . S
H1557 C1543 0.961 . S
H1558 C1543 0.961 . S
H1559 C1543 0.961 . S
H1560 C1544 0.931 . S
H1561 C1549 0.930 . S
H1562 C1550 0.956 . S
H1563 C1550 0.961 . S
H1564 C1550 0.961 . S
H1565 C1551 0.958 . S
H1566 C1551 0.961 . S
H1567 C1551 0.960 . S
C1568 C1569 1.391 . S
C1568 C1570 1.394 . S
C1568 H1584 0.931 . S
C1569 C1568 1.391 . S
C1569 C1573 1.376 . S
C1570 C1568 1.394 . S
C1570 C1571 1.369 . S
C1570 C1574 1.531 . S
C1571 C1570 1.369 . S
C1571 C1572 1.410 . S
C1571 C1579 1.503 . S
C1572 C1571 1.410 . S
C1572 C1573 1.392 . S
C1572 C1575 1.511 . S
C1573 C1569 1.376 . S
C1573 C1572 1.392 . S
C1573 H1585 0.929 . S
C1574 C1570 1.531 . S
C1574 H1586 0.960 . S
C1574 H1587 0.962 . S
C1574 H1588 0.960 . S
C1575 C1572 1.511 . S
C1575 H1589 0.961 . S
C1575 H1590 0.961 . S
C1575 H1591 0.961 . S
C1576 C1577 1.370 . S
C1576 C1578 1.363 . S
C1576 H1592 0.931 . S
C1577 C1576 1.370 . S
C1577 C1581 1.408 . S
C1578 C1576 1.363 . S
C1578 C1579 1.370 . S
C1578 C1582 1.524 . S
C1579 C1571 1.503 . S
C1579 C1578 1.370 . S
C1579 C1580 1.403 . S
C1580 C1579 1.403 . S
C1580 C1581 1.404 . S
C1580 C1583 1.539 . S
C1581 C1577 1.408 . S
C1581 C1580 1.404 . S
C1581 H1593 0.930 . S
C1582 C1578 1.524 . S
C1582 H1594 0.956 . S
C1582 H1595 0.961 . S
C1582 H1596 0.961 . S
C1583 C1580 1.539 . S
C1583 H1597 0.958 . S
C1583 H1598 0.961 . S
C1583 H1599 0.960 . S
H1584 C1568 0.931 . S
H1585 C1573 0.929 . S
H1586 C1574 0.960 . S
H1587 C1574 0.962 . S
H1588 C1574 0.960 . S
H1589 C1575 0.961 . S
H1590 C1575 0.961 . S
H1591 C1575 0.961 . S
H1592 C1576 0.931 . S
H1593 C1581 0.930 . S
H1594 C1582 0.956 . S
H1595 C1582 0.961 . S
H1596 C1582 0.961 . S
H1597 C1583 0.958 . S
H1598 C1583 0.961 . S
H1599 C1583 0.960 . S
C1600 C1601 1.391 . S
C1600 C1602 1.394 . S
C1600 H1616 0.931 . S
C1601 C1600 1.391 . S
C1601 C1605 1.376 . S
C1602 C1600 1.394 . S
C1602 C1603 1.369 . S
C1602 C1606 1.531 . S
C1603 C1602 1.369 . S
C1603 C1604 1.410 . S
C1603 C1611 1.503 . S
C1604 C1603 1.410 . S
C1604 C1605 1.392 . S
C1604 C1607 1.511 . S
C1605 C1601 1.376 . S
C1605 C1604 1.392 . S
C1605 H1617 0.929 . S
C1606 C1602 1.531 . S
C1606 H1618 0.960 . S
C1606 H1619 0.962 . S
C1606 H1620 0.960 . S
C1607 C1604 1.511 . S
C1607 H1621 0.961 . S
C1607 H1622 0.961 . S
C1607 H1623 0.961 . S
C1608 C1609 1.370 . S
C1608 C1610 1.363 . S
C1608 H1624 0.931 . S
C1609 C1608 1.370 . S
C1609 C1613 1.408 . S
C1610 C1608 1.363 . S
C1610 C1611 1.370 . S
C1610 C1614 1.524 . S
C1611 C1603 1.503 . S
C1611 C1610 1.370 . S
C1611 C1612 1.403 . S
C1612 C1611 1.403 . S
C1612 C1613 1.404 . S
C1612 C1615 1.539 . S
C1613 C1609 1.408 . S
C1613 C1612 1.404 . S
C1613 H1625 0.930 . S
C1614 C1610 1.524 . S
C1614 H1626 0.956 . S
C1614 H1627 0.961 . S
C1614 H1628 0.961 . S
C1615 C1612 1.539 . S
C1615 H1629 0.958 . S
C1615 H1630 0.961 . S
C1615 H1631 0.960 . S
H1616 C1600 0.931 . S
H1617 C1605 0.929 . S
H1618 C1606 0.960 . S
H1619 C1606 0.962 . S
H1620 C1606 0.960 . S
H1621 C1607 0.961 . S
H1622 C1607 0.961 . S
H1623 C1607 0.961 . S
H1624 C1608 0.931 . S
H1625 C1613 0.930 . S
H1626 C1614 0.956 . S
H1627 C1614 0.961 . S
H1628 C1614 0.961 . S
H1629 C1615 0.958 . S
H1630 C1615 0.961 . S
H1631 C1615 0.960 . S
C1632 C1633 1.391 . S
C1632 C1634 1.394 . S
C1632 H1648 0.931 . S
C1633 C1632 1.391 . S
C1633 C1637 1.376 . S
C1634 C1632 1.394 . S
C1634 C1635 1.369 . S
C1634 C1638 1.531 . S
C1635 C1634 1.369 . S
C1635 C1636 1.410 . S
C1635 C1643 1.503 . S
C1636 C1635 1.410 . S
C1636 C1637 1.392 . S
C1636 C1639 1.511 . S
C1637 C1633 1.376 . S
C1637 C1636 1.392 . S
C1637 H1649 0.929 . S
C1638 C1634 1.531 . S
C1638 H1650 0.960 . S
C1638 H1651 0.962 . S
C1638 H1652 0.960 . S
C1639 C1636 1.511 . S
C1639 H1653 0.961 . S
C1639 H1654 0.961 . S
C1639 H1655 0.961 . S
C1640 C1641 1.370 . S
C1640 C1642 1.363 . S
C1640 H1656 0.931 . S
C1641 C1640 1.370 . S
C1641 C1645 1.408 . S
C1642 C1640 1.363 . S
C1642 C1643 1.370 . S
C1642 C1646 1.524 . S
C1643 C1635 1.503 . S
C1643 C1642 1.370 . S
C1643 C1644 1.403 . S
C1644 C1643 1.403 . S
C1644 C1645 1.404 . S
C1644 C1647 1.539 . S
C1645 C1641 1.408 . S
C1645 C1644 1.404 . S
C1645 H1657 0.930 . S
C1646 C1642 1.524 . S
C1646 H1658 0.956 . S
C1646 H1659 0.961 . S
C1646 H1660 0.961 . S
C1647 C1644 1.539 . S
C1647 H1661 0.958 . S
C1647 H1662 0.961 . S
C1647 H1663 0.960 . S
H1648 C1632 0.931 . S
H1649 C1637 0.929 . S
H1650 C1638 0.960 . S
H1651 C1638 0.962 . S
H1652 C1638 0.960 . S
H1653 C1639 0.961 . S
H1654 C1639 0.961 . S
H1655 C1639 0.961 . S
H1656 C1640 0.931 . S
H1657 C1645 0.930 . S
H1658 C1646 0.956 . S
H1659 C1646 0.961 . S
H1660 C1646 0.961 . S
H1661 C1647 0.958 . S
H1662 C1647 0.961 . S
H1663 C1647 0.960 . S
C1664 C1665 1.391 . S
C1664 C1666 1.394 . S
C1664 H1680 0.931 . S
C1665 C1664 1.391 . S
C1665 C1669 1.376 . S
C1666 C1664 1.394 . S
C1666 C1667 1.369 . S
C1666 C1670 1.531 . S
C1667 C1666 1.369 . S
C1667 C1668 1.410 . S
C1667 C1675 1.503 . S
C1668 C1667 1.410 . S
C1668 C1669 1.392 . S
C1668 C1671 1.511 . S
C1669 C1665 1.376 . S
C1669 C1668 1.392 . S
C1669 H1681 0.929 . S
C1670 C1666 1.531 . S
C1670 H1682 0.960 . S
C1670 H1683 0.962 . S
C1670 H1684 0.960 . S
C1671 C1668 1.511 . S
C1671 H1685 0.961 . S
C1671 H1686 0.961 . S
C1671 H1687 0.961 . S
C1672 C1673 1.370 . S
C1672 C1674 1.363 . S
C1672 H1688 0.931 . S
C1673 C1672 1.370 . S
C1673 C1677 1.408 . S
C1674 C1672 1.363 . S
C1674 C1675 1.370 . S
C1674 C1678 1.524 . S
C1675 C1667 1.503 . S
C1675 C1674 1.370 . S
C1675 C1676 1.403 . S
C1676 C1675 1.403 . S
C1676 C1677 1.404 . S
C1676 C1679 1.539 . S
C1677 C1673 1.408 . S
C1677 C1676 1.404 . S
C1677 H1689 0.930 . S
C1678 C1674 1.524 . S
C1678 H1690 0.956 . S
C1678 H1691 0.961 . S
C1678 H1692 0.961 . S
C1679 C1676 1.539 . S
C1679 H1693 0.958 . S
C1679 H1694 0.961 . S
C1679 H1695 0.960 . S
H1680 C1664 0.931 . S
H1681 C1669 0.929 . S
H1682 C1670 0.960 . S
H1683 C1670 0.962 . S
H1684 C1670 0.960 . S
H1685 C1671 0.961 . S
H1686 C1671 0.961 . S
H1687 C1671 0.961 . S
H1688 C1672 0.931 . S
H1689 C1677 0.930 . S
H1690 C1678 0.956 . S
H1691 C1678 0.961 . S
H1692 C1678 0.961 . S
H1693 C1679 0.958 . S
H1694 C1679 0.961 . S
H1695 C1679 0.960 . S
C1696 C1697 1.391 . S
C1696 C1698 1.394 . S
C1696 H1712 0.931 . S
C1697 C1696 1.391 . S
C1697 C1701 1.376 . S
C1698 C1696 1.394 . S
C1698 C1699 1.369 . S
C1698 C1702 1.531 . S
C1699 C1698 1.369 . S
C1699 C1700 1.410 . S
C1699 C1707 1.503 . S
C1700 C1699 1.410 . S
C1700 C1701 1.392 . S
C1700 C1703 1.511 . S
C1701 C1697 1.376 . S
C1701 C1700 1.392 . S
C1701 H1713 0.929 . S
C1702 C1698 1.531 . S
C1702 H1714 0.960 . S
C1702 H1715 0.962 . S
C1702 H1716 0.960 . S
C1703 C1700 1.511 . S
C1703 H1717 0.961 . S
C1703 H1718 0.961 . S
C1703 H1719 0.961 . S
C1704 C1705 1.370 . S
C1704 C1706 1.363 . S
C1704 H1720 0.931 . S
C1705 C1704 1.370 . S
C1705 C1709 1.408 . S
C1706 C1704 1.363 . S
C1706 C1707 1.370 . S
C1706 C1710 1.524 . S
C1707 C1699 1.503 . S
C1707 C1706 1.370 . S
C1707 C1708 1.403 . S
C1708 C1707 1.403 . S
C1708 C1709 1.404 . S
C1708 C1711 1.539 . S
C1709 C1705 1.408 . S
C1709 C1708 1.404 . S
C1709 H1721 0.930 . S
C1710 C1706 1.524 . S
C1710 H1722 0.956 . S
C1710 H1723 0.961 . S
C1710 H1724 0.961 . S
C1711 C1708 1.539 . S
C1711 H1725 0.958 . S
C1711 H1726 0.961 . S
C1711 H1727 0.960 . S
H1712 C1696 0.931 . S
H1713 C1701 0.929 . S
H1714 C1702 0.960 . S
H1715 C1702 0.962 . S
H1716 C1702 0.960 . S
H1717 C1703 0.961 . S
H1718 C1703 0.961 . S
H1719 C1703 0.961 . S
H1720 C1704 0.931 . S
H1721 C1709 0.930 . S
H1722 C1710 0.956 . S
H1723 C1710 0.961 . S
H1724 C1710 0.961 . S
H1725 C1711 0.958 . S
H1726 C1711 0.961 . S
H1727 C1711 0.960 . S
C1728 C1729 1.391 . S
C1728 C1730 1.394 . S
C1728 H1744 0.931 . S
C1729 C1728 1.391 . S
C1729 C1733 1.376 . S
C1730 C1728 1.394 . S
C1730 C1731 1.369 . S
C1730 C1734 1.531 . S
C1731 C1730 1.369 . S
C1731 C1732 1.410 . S
C1731 C1739 1.503 . S
C1732 C1731 1.410 . S
C1732 C1733 1.392 . S
C1732 C1735 1.511 . S
C1733 C1729 1.376 . S
C1733 C1732 1.392 . S
C1733 H1745 0.929 . S
C1734 C1730 1.531 . S
C1734 H1746 0.960 . S
C1734 H1747 0.962 . S
C1734 H1748 0.960 . S
C1735 C1732 1.511 . S
C1735 H1749 0.961 . S
C1735 H1750 0.961 . S
C1735 H1751 0.961 . S
C1736 C1737 1.370 . S
C1736 C1738 1.363 . S
C1736 H1752 0.931 . S
C1737 C1736 1.370 . S
C1737 C1741 1.408 . S
C1738 C1736 1.363 . S
C1738 C1739 1.370 . S
C1738 C1742 1.524 . S
C1739 C1731 1.503 . S
C1739 C1738 1.370 . S
C1739 C1740 1.403 . S
C1740 C1739 1.403 . S
C1740 C1741 1.404 . S
C1740 C1743 1.539 . S
C1741 C1737 1.408 . S
C1741 C1740 1.404 . S
C1741 H1753 0.930 . S
C1742 C1738 1.524 . S
C1742 H1754 0.956 . S
C1742 H1755 0.961 . S
C1742 H1756 0.961 . S
C1743 C1740 1.539 . S
C1743 H1757 0.958 . S
C1743 H1758 0.961 . S
C1743 H1759 0.960 . S
H1744 C1728 0.931 . S
H1745 C1733 0.929 . S
H1746 C1734 0.960 . S
H1747 C1734 0.962 . S
H1748 C1734 0.960 . S
H1749 C1735 0.961 . S
H1750 C1735 0.961 . S
H1751 C1735 0.961 . S
H1752 C1736 0.931 . S
H1753 C1741 0.930 . S
H1754 C1742 0.956 . S
H1755 C1742 0.961 . S
H1756 C1742 0.961 . S
H1757 C1743 0.958 . S
H1758 C1743 0.961 . S
H1759 C1743 0.960 . S
C1760 C1761 1.391 . S
C1760 C1762 1.394 . S
C1760 H1776 0.931 . S
C1761 C1760 1.391 . S
C1761 C1765 1.376 . S
C1762 C1760 1.394 . S
C1762 C1763 1.369 . S
C1762 C1766 1.531 . S
C1763 C1762 1.369 . S
C1763 C1764 1.410 . S
C1763 C1771 1.503 . S
C1764 C1763 1.410 . S
C1764 C1765 1.392 . S
C1764 C1767 1.511 . S
C1765 C1761 1.376 . S
C1765 C1764 1.392 . S
C1765 H1777 0.929 . S
C1766 C1762 1.531 . S
C1766 H1778 0.960 . S
C1766 H1779 0.962 . S
C1766 H1780 0.960 . S
C1767 C1764 1.511 . S
C1767 H1781 0.961 . S
C1767 H1782 0.961 . S
C1767 H1783 0.961 . S
C1768 C1769 1.370 . S
C1768 C1770 1.363 . S
C1768 H1784 0.931 . S
C1769 C1768 1.370 . S
C1769 C1773 1.408 . S
C1770 C1768 1.363 . S
C1770 C1771 1.370 . S
C1770 C1774 1.524 . S
C1771 C1763 1.503 . S
C1771 C1770 1.370 . S
C1771 C1772 1.403 . S
C1772 C1771 1.403 . S
C1772 C1773 1.404 . S
C1772 C1775 1.539 . S
C1773 C1769 1.408 . S
C1773 C1772 1.404 . S
C1773 H1785 0.930 . S
C1774 C1770 1.524 . S
C1774 H1786 0.956 . S
C1774 H1787 0.961 . S
C1774 H1788 0.961 . S
C1775 C1772 1.539 . S
C1775 H1789 0.958 . S
C1775 H1790 0.961 . S
C1775 H1791 0.960 . S
H1776 C1760 0.931 . S
H1777 C1765 0.929 . S
H1778 C1766 0.960 . S
H1779 C1766 0.962 . S
H1780 C1766 0.960 . S
H1781 C1767 0.961 . S
H1782 C1767 0.961 . S
H1783 C1767 0.961 . S
H1784 C1768 0.931 . S
H1785 C1773 0.930 . S
H1786 C1774 0.956 . S
H1787 C1774 0.961 . S
H1788 C1774 0.961 . S
H1789 C1775 0.958 . S
H1790 C1775 0.961 . S
H1791 C1775 0.960 . S
C1792 C1793 1.391 . S
C1792 C1794 1.394 . S
C1792 H1808 0.931 . S
C1793 C1792 1.391 . S
C1793 C1797 1.376 . S
C1794 C1792 1.394 . S
C1794 C1795 1.369 . S
C1794 C1798 1.531 . S
C1795 C1794 1.369 . S
C1795 C1796 1.410 . S
C1795 C1803 1.503 . S
C1796 C1795 1.410 . S
C1796 C1797 1.392 . S
C1796 C1799 1.511 . S
C1797 C1793 1.376 . S
C1797 C1796 1.392 . S
C1797 H1809 0.929 . S
C1798 C1794 1.531 . S
C1798 H1810 0.960 . S
C1798 H1811 0.962 . S
C1798 H1812 0.960 . S
C1799 C1796 1.511 . S
C1799 H1813 0.961 . S
C1799 H1814 0.961 . S
C1799 H1815 0.961 . S
C1800 C1801 1.370 . S
C1800 C1802 1.363 . S
C1800 H1816 0.931 . S
C1801 C1800 1.370 . S
C1801 C1805 1.408 . S
C1802 C1800 1.363 . S
C1802 C1803 1.370 . S
C1802 C1806 1.524 . S
C1803 C1795 1.503 . S
C1803 C1802 1.370 . S
C1803 C1804 1.403 . S
C1804 C1803 1.403 . S
C1804 C1805 1.404 . S
C1804 C1807 1.539 . S
C1805 C1801 1.408 . S
C1805 C1804 1.404 . S
C1805 H1817 0.930 . S
C1806 C1802 1.524 . S
C1806 H1818 0.956 . S
C1806 H1819 0.961 . S
C1806 H1820 0.961 . S
C1807 C1804 1.539 . S
C1807 H1821 0.958 . S
C1807 H1822 0.961 . S
C1807 H1823 0.960 . S
H1808 C1792 0.931 . S
H1809 C1797 0.929 . S
H1810 C1798 0.960 . S
H1811 C1798 0.962 . S
H1812 C1798 0.960 . S
H1813 C1799 0.961 . S
H1814 C1799 0.961 . S
H1815 C1799 0.961 . S
H1816 C1800 0.931 . S
H1817 C1805 0.930 . S
H1818 C1806 0.956 . S
H1819 C1806 0.961 . S
H1820 C1806 0.961 . S
H1821 C1807 0.958 . S
H1822 C1807 0.961 . S
H1823 C1807 0.960 . S
C1824 C1825 1.391 . S
C1824 C1826 1.394 . S
C1824 H1840 0.931 . S
C1825 C1824 1.391 . S
C1825 C1829 1.376 . S
C1826 C1824 1.394 . S
C1826 C1827 1.369 . S
C1826 C1830 1.531 . S
C1827 C1826 1.369 . S
C1827 C1828 1.410 . S
C1827 C1835 1.503 . S
C1828 C1827 1.410 . S
C1828 C1829 1.392 . S
C1828 C1831 1.511 . S
C1829 C1825 1.376 . S
C1829 C1828 1.392 . S
C1829 H1841 0.929 . S
C1830 C1826 1.531 . S
C1830 H1842 0.960 . S
C1830 H1843 0.962 . S
C1830 H1844 0.960 . S
C1831 C1828 1.511 . S
C1831 H1845 0.961 . S
C1831 H1846 0.961 . S
C1831 H1847 0.961 . S
C1832 C1833 1.370 . S
C1832 C1834 1.363 . S
C1832 H1848 0.931 . S
C1833 C1832 1.370 . S
C1833 C1837 1.408 . S
C1834 C1832 1.363 . S
C1834 C1835 1.370 . S
C1834 C1838 1.524 . S
C1835 C1827 1.503 . S
C1835 C1834 1.370 . S
C1835 C1836 1.403 . S
C1836 C1835 1.403 . S
C1836 C1837 1.404 . S
C1836 C1839 1.539 . S
C1837 C1833 1.408 . S
C1837 C1836 1.404 . S
C1837 H1849 0.930 . S
C1838 C1834 1.524 . S
C1838 H1850 0.956 . S
C1838 H1851 0.961 . S
C1838 H1852 0.961 . S
C1839 C1836 1.539 . S
C1839 H1853 0.958 . S
C1839 H1854 0.961 . S
C1839 H1855 0.960 . S
H1840 C1824 0.931 . S
H1841 C1829 0.929 . S
H1842 C1830 0.960 . S
H1843 C1830 0.962 . S
H1844 C1830 0.960 . S
H1845 C1831 0.961 . S
H1846 C1831 0.961 . S
H1847 C1831 0.961 . S
H1848 C1832 0.931 . S
H1849 C1837 0.930 . S
H1850 C1838 0.956 . S
H1851 C1838 0.961 . S
H1852 C1838 0.961 . S
H1853 C1839 0.958 . S
H1854 C1839 0.961 . S
H1855 C1839 0.960 . S
C1856 C1857 1.391 . S
C1856 C1858 1.394 . S
C1856 H1872 0.931 . S
C1857 C1856 1.391 . S
C1857 C1861 1.376 . S
C1858 C1856 1.394 . S
C1858 C1859 1.369 . S
C1858 C1862 1.531 . S
C1859 C1858 1.369 . S
C1859 C1860 1.410 . S
C1859 C1867 1.503 . S
C1860 C1859 1.410 . S
C1860 C1861 1.392 . S
C1860 C1863 1.511 . S
C1861 C1857 1.376 . S
C1861 C1860 1.392 . S
C1861 H1873 0.929 . S
C1862 C1858 1.531 . S
C1862 H1874 0.960 . S
C1862 H1875 0.962 . S
C1862 H1876 0.960 . S
C1863 C1860 1.511 . S
C1863 H1877 0.961 . S
C1863 H1878 0.961 . S
C1863 H1879 0.961 . S
C1864 C1865 1.370 . S
C1864 C1866 1.363 . S
C1864 H1880 0.931 . S
C1865 C1864 1.370 . S
C1865 C1869 1.408 . S
C1866 C1864 1.363 . S
C1866 C1867 1.370 . S
C1866 C1870 1.524 . S
C1867 C1859 1.503 . S
C1867 C1866 1.370 . S
C1867 C1868 1.403 . S
C1868 C1867 1.403 . S
C1868 C1869 1.404 . S
C1868 C1871 1.539 . S
C1869 C1865 1.408 . S
C1869 C1868 1.404 . S
C1869 H1881 0.930 . S
C1870 C1866 1.524 . S
C1870 H1882 0.956 . S
C1870 H1883 0.961 . S
C1870 H1884 0.961 . S
C1871 C1868 1.539 . S
C1871 H1885 0.958 . S
C1871 H1886 0.961 . S
C1871 H1887 0.960 . S
H1872 C1856 0.931 . S
H1873 C1861 0.929 . S
H1874 C1862 0.960 . S
H1875 C1862 0.962 . S
H1876 C1862 0.960 . S
H1877 C1863 0.961 . S
H1878 C1863 0.961 . S
H1879 C1863 0.961 . S
H1880 C1864 0.931 . S
H1881 C1869 0.930 . S
H1882 C1870 0.956 . S
H1883 C1870 0.961 . S
H1884 C1870 0.961 . S
H1885 C1871 0.958 . S
H1886 C1871 0.961 . S
H1887 C1871 0.960 . S
C1888 C1889 1.391 . S
C1888 C1890 1.394 . S
C1888 H1904 0.931 . S
C1889 C1888 1.391 . S
C1889 C1893 1.376 . S
C1890 C1888 1.394 . S
C1890 C1891 1.369 . S
C1890 C1894 1.531 . S
C1891 C1890 1.369 . S
C1891 C1892 1.410 . S
C1891 C1899 1.503 . S
C1892 C1891 1.410 . S
C1892 C1893 1.392 . S
C1892 C1895 1.511 . S
C1893 C1889 1.376 . S
C1893 C1892 1.392 . S
C1893 H1905 0.929 . S
C1894 C1890 1.531 . S
C1894 H1906 0.960 . S
C1894 H1907 0.962 . S
C1894 H1908 0.960 . S
C1895 C1892 1.511 . S
C1895 H1909 0.961 . S
C1895 H1910 0.961 . S
C1895 H1911 0.961 . S
C1896 C1897 1.370 . S
C1896 C1898 1.363 . S
C1896 H1912 0.931 . S
C1897 C1896 1.370 . S
C1897 C1901 1.408 . S
C1898 C1896 1.363 . S
C1898 C1899 1.370 . S
C1898 C1902 1.524 . S
C1899 C1891 1.503 . S
C1899 C1898 1.370 . S
C1899 C1900 1.403 . S
C1900 C1899 1.403 . S
C1900 C1901 1.404 . S
C1900 C1903 1.539 . S
C1901 C1897 1.408 . S
C1901 C1900 1.404 . S
C1901 H1913 0.930 . S
C1902 C1898 1.524 . S
C1902 H1914 0.956 . S
C1902 H1915 0.961 . S
C1902 H1916 0.961 . S
C1903 C1900 1.539 . S
C1903 H1917 0.958 . S
C1903 H1918 0.961 . S
C1903 H1919 0.960 . S
H1904 C1888 0.931 . S
H1905 C1893 0.929 . S
H1906 C1894 0.960 . S
H1907 C1894 0.962 . S
H1908 C1894 0.960 . S
H1909 C1895 0.961 . S
H1910 C1895 0.961 . S
H1911 C1895 0.961 . S
H1912 C1896 0.931 . S
H1913 C1901 0.930 . S
H1914 C1902 0.956 . S
H1915 C1902 0.961 . S
H1916 C1902 0.961 . S
H1917 C1903 0.958 . S
H1918 C1903 0.961 . S
H1919 C1903 0.960 . S
C1920 C1921 1.391 . S
C1920 C1922 1.394 . S
C1920 H1936 0.931 . S
C1921 C1920 1.391 . S
C1921 C1925 1.376 . S
C1922 C1920 1.394 . S
C1922 C1923 1.369 . S
C1922 C1926 1.531 . S
C1923 C1922 1.369 . S
C1923 C1924 1.410 . S
C1923 C1931 1.503 . S
C1924 C1923 1.410 . S
C1924 C1925 1.392 . S
C1924 C1927 1.511 . S
C1925 C1921 1.376 . S
C1925 C1924 1.392 . S
C1925 H1937 0.929 . S
C1926 C1922 1.531 . S
C1926 H1938 0.960 . S
C1926 H1939 0.962 . S
C1926 H1940 0.960 . S
C1927 C1924 1.511 . S
C1927 H1941 0.961 . S
C1927 H1942 0.961 . S
C1927 H1943 0.961 . S
C1928 C1929 1.370 . S
C1928 C1930 1.363 . S
C1928 H1944 0.931 . S
C1929 C1928 1.370 . S
C1929 C1933 1.408 . S
C1930 C1928 1.363 . S
C1930 C1931 1.370 . S
C1930 C1934 1.524 . S
C1931 C1923 1.503 . S
C1931 C1930 1.370 . S
C1931 C1932 1.403 . S
C1932 C1931 1.403 . S
C1932 C1933 1.404 . S
C1932 C1935 1.539 . S
C1933 C1929 1.408 . S
C1933 C1932 1.404 . S
C1933 H1945 0.930 . S
C1934 C1930 1.524 . S
C1934 H1946 0.956 . S
C1934 H1947 0.961 . S
C1934 H1948 0.961 . S
C1935 C1932 1.539 . S
C1935 H1949 0.958 . S
C1935 H1950 0.961 . S
C1935 H1951 0.960 . S
H1936 C1920 0.931 . S
H1937 C1925 0.929 . S
H1938 C1926 0.960 . S
H1939 C1926 0.962 . S
H1940 C1926 0.960 . S
H1941 C1927 0.961 . S
H1942 C1927 0.961 . S
H1943 C1927 0.961 . S
H1944 C1928 0.931 . S
H1945 C1933 0.930 . S
H1946 C1934 0.956 . S
H1947 C1934 0.961 . S
H1948 C1934 0.961 . S
H1949 C1935 0.958 . S
H1950 C1935 0.961 . S
H1951 C1935 0.960 . S
C1952 C1953 1.391 . S
C1952 C1954 1.394 . S
C1952 H1968 0.931 . S
C1953 C1952 1.391 . S
C1953 C1957 1.376 . S
C1954 C1952 1.394 . S
C1954 C1955 1.369 . S
C1954 C1958 1.531 . S
C1955 C1954 1.369 . S
C1955 C1956 1.410 . S
C1955 C1963 1.503 . S
C1956 C1955 1.410 . S
C1956 C1957 1.392 . S
C1956 C1959 1.511 . S
C1957 C1953 1.376 . S
C1957 C1956 1.392 . S
C1957 H1969 0.929 . S
C1958 C1954 1.531 . S
C1958 H1970 0.960 . S
C1958 H1971 0.962 . S
C1958 H1972 0.960 . S
C1959 C1956 1.511 . S
C1959 H1973 0.961 . S
C1959 H1974 0.961 . S
C1959 H1975 0.961 . S
C1960 C1961 1.370 . S
C1960 C1962 1.363 . S
C1960 H1976 0.931 . S
C1961 C1960 1.370 . S
C1961 C1965 1.408 . S
C1962 C1960 1.363 . S
C1962 C1963 1.370 . S
C1962 C1966 1.524 . S
C1963 C1955 1.503 . S
C1963 C1962 1.370 . S
C1963 C1964 1.403 . S
C1964 C1963 1.403 . S
C1964 C1965 1.404 . S
C1964 C1967 1.539 . S
C1965 C1961 1.408 . S
C1965 C1964 1.404 . S
C1965 H1977 0.930 . S
C1966 C1962 1.524 . S
C1966 H1978 0.956 . S
C1966 H1979 0.961 . S
C1966 H1980 0.961 . S
C1967 C1964 1.539 . S
C1967 H1981 0.958 . S
C1967 H1982 0.961 . S
C1967 H1983 0.960 . S
H1968 C1952 0.931 . S
H1969 C1957 0.929 . S
H1970 C1958 0.960 . S
H1971 C1958 0.962 . S
H1972 C1958 0.960 . S
H1973 C1959 0.961 . S
H1974 C1959 0.961 . S
H1975 C1959 0.961 . S
H1976 C1960 0.931 . S
H1977 C1965 0.930 . S
H1978 C1966 0.956 . S
H1979 C1966 0.961 . S
H1980 C1966 0.961 . S
H1981 C1967 0.958 . S
H1982 C1967 0.961 . S
H1983 C1967 0.960 . S
C1984 C1985 1.391 . S
C1984 C1986 1.394 . S
C1984 H2000 0.931 . S
C1985 C1984 1.391 . S
C1985 C1989 1.376 . S
C1986 C1984 1.394 . S
C1986 C1987 1.369 . S
C1986 C1990 1.531 . S
C1987 C1986 1.369 . S
C1987 C1988 1.410 . S
C1987 C1995 1.503 . S
C1988 C1987 1.410 . S
C1988 C1989 1.392 . S
C1988 C1991 1.511 . S
C1989 C1985 1.376 . S
C1989 C1988 1.392 . S
C1989 H2001 0.929 . S
C1990 C1986 1.531 . S
C1990 H2002 0.960 . S
C1990 H2003 0.962 . S
C1990 H2004 0.960 . S
C1991 C1988 1.511 . S
C1991 H2005 0.961 . S
C1991 H2006 0.961 . S
C1991 H2007 0.961 . S
C1992 C1993 1.370 . S
C1992 C1994 1.363 . S
C1992 H2008 0.931 . S
C1993 C1992 1.370 . S
C1993 C1997 1.408 . S
C1994 C1992 1.363 . S
C1994 C1995 1.370 . S
C1994 C1998 1.524 . S
C1995 C1987 1.503 . S
C1995 C1994 1.370 . S
C1995 C1996 1.403 . S
C1996 C1995 1.403 . S
C1996 C1997 1.404 . S
C1996 C1999 1.539 . S
C1997 C1993 1.408 . S
C1997 C1996 1.404 . S
C1997 H2009 0.930 . S
C1998 C1994 1.524 . S
C1998 H2010 0.956 . S
C1998 H2011 0.961 . S
C1998 H2012 0.961 . S
C1999 C1996 1.539 . S
C1999 H2013 0.958 . S
C1999 H2014 0.961 . S
C1999 H2015 0.960 . S
H2000 C1984 0.931 . S
H2001 C1989 0.929 . S
H2002 C1990 0.960 . S
H2003 C1990 0.962 . S
H2004 C1990 0.960 . S
H2005 C1991 0.961 . S
H2006 C1991 0.961 . S
H2007 C1991 0.961 . S
H2008 C1992 0.931 . S
H2009 C1997 0.930 . S
H2010 C1998 0.956 . S
H2011 C1998 0.961 . S
H2012 C1998 0.961 . S
H2013 C1999 0.958 . S
H2014 C1999 0.961 . S
H2015 C1999 0.960 . S
C2016 C2017 1.391 . S
C2016 C2018 1.394 . S
C2016 H2032 0.931 . S
C2017 C2016 1.391 . S
C2017 C2021 1.376 . S
C2018 C2016 1.394 . S
C2018 C2019 1.369 . S
C2018 C2022 1.531 . S
C2019 C2018 1.369 . S
C2019 C2020 1.410 . S
C2019 C2027 1.503 . S
C2020 C2019 1.410 . S
C2020 C2021 1.392 . S
C2020 C2023 1.511 . S
C2021 C2017 1.376 . S
C2021 C2020 1.392 . S
C2021 H2033 0.929 . S
C2022 C2018 1.531 . S
C2022 H2034 0.960 . S
C2022 H2035 0.962 . S
C2022 H2036 0.960 . S
C2023 C2020 1.511 . S
C2023 H2037 0.961 . S
C2023 H2038 0.961 . S
C2023 H2039 0.961 . S
C2024 C2025 1.370 . S
C2024 C2026 1.363 . S
C2024 H2040 0.931 . S
C2025 C2024 1.370 . S
C2025 C2029 1.408 . S
C2026 C2024 1.363 . S
C2026 C2027 1.370 . S
C2026 C2030 1.524 . S
C2027 C2019 1.503 . S
C2027 C2026 1.370 . S
C2027 C2028 1.403 . S
C2028 C2027 1.403 . S
C2028 C2029 1.404 . S
C2028 C2031 1.539 . S
C2029 C2025 1.408 . S
C2029 C2028 1.404 . S
C2029 H2041 0.930 . S
C2030 C2026 1.524 . S
C2030 H2042 0.956 . S
C2030 H2043 0.961 . S
C2030 H2044 0.961 . S
C2031 C2028 1.539 . S
C2031 H2045 0.958 . S
C2031 H2046 0.961 . S
C2031 H2047 0.960 . S
H2032 C2016 0.931 . S
H2033 C2021 0.929 . S
H2034 C2022 0.960 . S
H2035 C2022 0.962 . S
H2036 C2022 0.960 . S
H2037 C2023 0.961 . S
H2038 C2023 0.961 . S
H2039 C2023 0.961 . S
H2040 C2024 0.931 . S
H2041 C2029 0.930 . S
H2042 C2030 0.956 . S
H2043 C2030 0.961 . S
H2044 C2030 0.961 . S
H2045 C2031 0.958 . S
H2046 C2031 0.961 . S
H2047 C2031 0.960 . S
C2048 C2049 1.391 . S
C2048 C2050 1.394 . S
C2048 H2064 0.931 . S
C2049 C2048 1.391 . S
C2049 C2053 1.376 . S
C2050 C2048 1.394 . S
C2050 C2051 1.369 . S
C2050 C2054 1.531 . S
C2051 C2050 1.369 . S
C2051 C2052 1.410 . S
C2051 C2059 1.503 . S
C2052 C2051 1.410 . S
C2052 C2053 1.392 . S
C2052 C2055 1.511 . S
C2053 C2049 1.376 . S
C2053 C2052 1.392 . S
C2053 H2065 0.929 . S
C2054 C2050 1.531 . S
C2054 H2066 0.960 . S
C2054 H2067 0.962 . S
C2054 H2068 0.960 . S
C2055 C2052 1.511 . S
C2055 H2069 0.961 . S
C2055 H2070 0.961 . S
C2055 H2071 0.961 . S
C2056 C2057 1.370 . S
C2056 C2058 1.363 . S
C2056 H2072 0.931 . S
C2057 C2056 1.370 . S
C2057 C2061 1.408 . S
C2058 C2056 1.363 . S
C2058 C2059 1.370 . S
C2058 C2062 1.524 . S
C2059 C2051 1.503 . S
C2059 C2058 1.370 . S
C2059 C2060 1.403 . S
C2060 C2059 1.403 . S
C2060 C2061 1.404 . S
C2060 C2063 1.539 . S
C2061 C2057 1.408 . S
C2061 C2060 1.404 . S
C2061 H2073 0.930 . S
C2062 C2058 1.524 . S
C2062 H2074 0.956 . S
C2062 H2075 0.961 . S
C2062 H2076 0.961 . S
C2063 C2060 1.539 . S
C2063 H2077 0.958 . S
C2063 H2078 0.961 . S
C2063 H2079 0.960 . S
H2064 C2048 0.931 . S
H2065 C2053 0.929 . S
H2066 C2054 0.960 . S
H2067 C2054 0.962 . S
H2068 C2054 0.960 . S
H2069 C2055 0.961 . S
H2070 C2055 0.961 . S
H2071 C2055 0.961 . S
H2072 C2056 0.931 . S
H2073 C2061 0.930 . S
H2074 C2062 0.956 . S
H2075 C2062 0.961 . S
H2076 C2062 0.961 . S
H2077 C2063 0.958 . S
H2078 C2063 0.961 . S
H2079 C2063 0.960 . S
C2080 C2081 1.391 . S
C2080 C2082 1.394 . S
C2080 H2096 0.931 . S
C2081 C2080 1.391 . S
C2081 C2085 1.376 . S
C2082 C2080 1.394 . S
C2082 C2083 1.369 . S
C2082 C2086 1.531 . S
C2083 C2082 1.369 . S
C2083 C2084 1.410 . S
C2083 C2091 1.503 . S
C2084 C2083 1.410 . S
C2084 C2085 1.392 . S
C2084 C2087 1.511 . S
C2085 C2081 1.376 . S
C2085 C2084 1.392 . S
C2085 H2097 0.929 . S
C2086 C2082 1.531 . S
C2086 H2098 0.960 . S
C2086 H2099 0.962 . S
C2086 H2100 0.960 . S
C2087 C2084 1.511 . S
C2087 H2101 0.961 . S
C2087 H2102 0.961 . S
C2087 H2103 0.961 . S
C2088 C2089 1.370 . S
C2088 C2090 1.363 . S
C2088 H2104 0.931 . S
C2089 C2088 1.370 . S
C2089 C2093 1.408 . S
C2090 C2088 1.363 . S
C2090 C2091 1.370 . S
C2090 C2094 1.524 . S
C2091 C2083 1.503 . S
C2091 C2090 1.370 . S
C2091 C2092 1.403 . S
C2092 C2091 1.403 . S
C2092 C2093 1.404 . S
C2092 C2095 1.539 . S
C2093 C2089 1.408 . S
C2093 C2092 1.404 . S
C2093 H2105 0.930 . S
C2094 C2090 1.524 . S
C2094 H2106 0.956 . S
C2094 H2107 0.961 . S
C2094 H2108 0.961 . S
C2095 C2092 1.539 . S
C2095 H2109 0.958 . S
C2095 H2110 0.961 . S
C2095 H2111 0.960 . S
H2096 C2080 0.931 . S
H2097 C2085 0.929 . S
H2098 C2086 0.960 . S
H2099 C2086 0.962 . S
H2100 C2086 0.960 . S
H2101 C2087 0.961 . S
H2102 C2087 0.961 . S
H2103 C2087 0.961 . S
H2104 C2088 0.931 . S
H2105 C2093 0.930 . S
H2106 C2094 0.956 . S
H2107 C2094 0.961 . S
H2108 C2094 0.961 . S
H2109 C2095 0.958 . S
H2110 C2095 0.961 . S
H2111 C2095 0.960 . S
C2112 C2113 1.391 . S
C2112 C2114 1.394 . S
C2112 H2128 0.931 . S
C2113 C2112 1.391 . S
C2113 C2117 1.376 . S
C2114 C2112 1.394 . S
C2114 C2115 1.369 . S
C2114 C2118 1.531 . S
C2115 C2114 1.369 . S
C2115 C2116 1.410 . S
C2115 C2123 1.503 . S
C2116 C2115 1.410 . S
C2116 C2117 1.392 . S
C2116 C2119 1.511 . S
C2117 C2113 1.376 . S
C2117 C2116 1.392 . S
C2117 H2129 0.929 . S
C2118 C2114 1.531 . S
C2118 H2130 0.960 . S
C2118 H2131 0.962 . S
C2118 H2132 0.960 . S
C2119 C2116 1.511 . S
C2119 H2133 0.961 . S
C2119 H2134 0.961 . S
C2119 H2135 0.961 . S
C2120 C2121 1.370 . S
C2120 C2122 1.363 . S
C2120 H2136 0.931 . S
C2121 C2120 1.370 . S
C2121 C2125 1.408 . S
C2122 C2120 1.363 . S
C2122 C2123 1.370 . S
C2122 C2126 1.524 . S
C2123 C2115 1.503 . S
C2123 C2122 1.370 . S
C2123 C2124 1.403 . S
C2124 C2123 1.403 . S
C2124 C2125 1.404 . S
C2124 C2127 1.539 . S
C2125 C2121 1.408 . S
C2125 C2124 1.404 . S
C2125 H2137 0.930 . S
C2126 C2122 1.524 . S
C2126 H2138 0.956 . S
C2126 H2139 0.961 . S
C2126 H2140 0.961 . S
C2127 C2124 1.539 . S
C2127 H2141 0.958 . S
C2127 H2142 0.961 . S
C2127 H2143 0.960 . S
H2128 C2112 0.931 . S
H2129 C2117 0.929 . S
H2130 C2118 0.960 . S
H2131 C2118 0.962 . S
H2132 C2118 0.960 . S
H2133 C2119 0.961 . S
H2134 C2119 0.961 . S
H2135 C2119 0.961 . S
H2136 C2120 0.931 . S
H2137 C2125 0.930 . S
H2138 C2126 0.956 . S
H2139 C2126 0.961 . S
H2140 C2126 0.961 . S
H2141 C2127 0.958 . S
H2142 C2127 0.961 . S
H2143 C2127 0.960 . S
C2144 C2145 1.391 . S
C2144 C2146 1.394 . S
C2144 H2160 0.931 . S
C2145 C2144 1.391 . S
C2145 C2149 1.376 . S
C2146 C2144 1.394 . S
C2146 C2147 1.369 . S
C2146 C2150 1.531 . S
C2147 C2146 1.369 . S
C2147 C2148 1.410 . S
C2147 C2155 1.503 . S
C2148 C2147 1.410 . S
C2148 C2149 1.392 . S
C2148 C2151 1.511 . S
C2149 C2145 1.376 . S
C2149 C2148 1.392 . S
C2149 H2161 0.929 . S
C2150 C2146 1.531 . S
C2150 H2162 0.960 . S
C2150 H2163 0.962 . S
C2150 H2164 0.960 . S
C2151 C2148 1.511 . S
C2151 H2165 0.961 . S
C2151 H2166 0.961 . S
C2151 H2167 0.961 . S
C2152 C2153 1.370 . S
C2152 C2154 1.363 . S
C2152 H2168 0.931 . S
C2153 C2152 1.370 . S
C2153 C2157 1.408 . S
C2154 C2152 1.363 . S
C2154 C2155 1.370 . S
C2154 C2158 1.524 . S
C2155 C2147 1.503 . S
C2155 C2154 1.370 . S
C2155 C2156 1.403 . S
C2156 C2155 1.403 . S
C2156 C2157 1.404 . S
C2156 C2159 1.539 . S
C2157 C2153 1.408 . S
C2157 C2156 1.404 . S
C2157 H2169 0.930 . S
C2158 C2154 1.524 . S
C2158 H2170 0.956 . S
C2158 H2171 0.961 . S
C2158 H2172 0.961 . S
C2159 C2156 1.539 . S
C2159 H2173 0.958 . S
C2159 H2174 0.961 . S
C2159 H2175 0.960 . S
H2160 C2144 0.931 . S
H2161 C2149 0.929 . S
H2162 C2150 0.960 . S
H2163 C2150 0.962 . S
H2164 C2150 0.960 . S
H2165 C2151 0.961 . S
H2166 C2151 0.961 . S
H2167 C2151 0.961 . S
H2168 C2152 0.931 . S
H2169 C2157 0.930 . S
H2170 C2158 0.956 . S
H2171 C2158 0.961 . S
H2172 C2158 0.961 . S
H2173 C2159 0.958 . S
H2174 C2159 0.961 . S
H2175 C2159 0.960 . S
C2176 C2177 1.391 . S
C2176 C2178 1.394 . S
C2176 H2192 0.931 . S
C2177 C2176 1.391 . S
C2177 C2181 1.376 . S
C2178 C2176 1.394 . S
C2178 C2179 1.369 . S
C2178 C2182 1.531 . S
C2179 C2178 1.369 . S
C2179 C2180 1.410 . S
C2179 C2187 1.503 . S
C2180 C2179 1.410 . S
C2180 C2181 1.392 . S
C2180 C2183 1.511 . S
C2181 C2177 1.376 . S
C2181 C2180 1.392 . S
C2181 H2193 0.929 . S
C2182 C2178 1.531 . S
C2182 H2194 0.960 . S
C2182 H2195 0.962 . S
C2182 H2196 0.960 . S
C2183 C2180 1.511 . S
C2183 H2197 0.961 . S
C2183 H2198 0.961 . S
C2183 H2199 0.961 . S
C2184 C2185 1.370 . S
C2184 C2186 1.363 . S
C2184 H2200 0.931 . S
C2185 C2184 1.370 . S
C2185 C2189 1.408 . S
C2186 C2184 1.363 . S
C2186 C2187 1.370 . S
C2186 C2190 1.524 . S
C2187 C2179 1.503 . S
C2187 C2186 1.370 . S
C2187 C2188 1.403 . S
C2188 C2187 1.403 . S
C2188 C2189 1.404 . S
C2188 C2191 1.539 . S
C2189 C2185 1.408 . S
C2189 C2188 1.404 . S
C2189 H2201 0.930 . S
C2190 C2186 1.524 . S
C2190 H2202 0.956 . S
C2190 H2203 0.961 . S
C2190 H2204 0.961 . S
C2191 C2188 1.539 . S
C2191 H2205 0.958 . S
C2191 H2206 0.961 . S
C2191 H2207 0.960 . S
H2192 C2176 0.931 . S
H2193 C2181 0.929 . S
H2194 C2182 0.960 . S
H2195 C2182 0.962 . S
H2196 C2182 0.960 . S
H2197 C2183 0.961 . S
H2198 C2183 0.961 . S
H2199 C2183 0.961 . S
H2200 C2184 0.931 . S
H2201 C2189 0.930 . S
H2202 C2190 0.956 . S
H2203 C2190 0.961 . S
H2204 C2190 0.961 . S
H2205 C2191 0.958 . S
H2206 C2191 0.961 . S
H2207 C2191 0.960 . S
C2208 C2209 1.391 . S
C2208 C2210 1.394 . S
C2208 H2224 0.931 . S
C2209 C2208 1.391 . S
C2209 C2213 1.376 . S
C2210 C2208 1.394 . S
C2210 C2211 1.369 . S
C2210 C2214 1.531 . S
C2211 C2210 1.369 . S
C2211 C2212 1.410 . S
C2211 C2219 1.503 . S
C2212 C2211 1.410 . S
C2212 C2213 1.392 . S
C2212 C2215 1.511 . S
C2213 C2209 1.376 . S
C2213 C2212 1.392 . S
C2213 H2225 0.929 . S
C2214 C2210 1.531 . S
C2214 H2226 0.960 . S
C2214 H2227 0.962 . S
C2214 H2228 0.960 . S
C2215 C2212 1.511 . S
C2215 H2229 0.961 . S
C2215 H2230 0.961 . S
C2215 H2231 0.961 . S
C2216 C2217 1.370 . S
C2216 C2218 1.363 . S
C2216 H2232 0.931 . S
C2217 C2216 1.370 . S
C2217 C2221 1.408 . S
C2218 C2216 1.363 . S
C2218 C2219 1.370 . S
C2218 C2222 1.524 . S
C2219 C2211 1.503 . S
C2219 C2218 1.370 . S
C2219 C2220 1.403 . S
C2220 C2219 1.403 . S
C2220 C2221 1.404 . S
C2220 C2223 1.539 . S
C2221 C2217 1.408 . S
C2221 C2220 1.404 . S
C2221 H2233 0.930 . S
C2222 C2218 1.524 . S
C2222 H2234 0.956 . S
C2222 H2235 0.961 . S
C2222 H2236 0.961 . S
C2223 C2220 1.539 . S
C2223 H2237 0.958 . S
C2223 H2238 0.961 . S
C2223 H2239 0.960 . S
H2224 C2208 0.931 . S
H2225 C2213 0.929 . S
H2226 C2214 0.960 . S
H2227 C2214 0.962 . S
H2228 C2214 0.960 . S
H2229 C2215 0.961 . S
H2230 C2215 0.961 . S
H2231 C2215 0.961 . S
H2232 C2216 0.931 . S
H2233 C2221 0.930 . S
H2234 C2222 0.956 . S
H2235 C2222 0.961 . S
H2236 C2222 0.961 . S
H2237 C2223 0.958 . S
H2238 C2223 0.961 . S
H2239 C2223 0.960 . S
C2240 C2241 1.391 . S
C2240 C2242 1.394 . S
C2240 H2256 0.931 . S
C2241 C2240 1.391 . S
C2241 C2245 1.376 . S
C2242 C2240 1.394 . S
C2242 C2243 1.369 . S
C2242 C2246 1.531 . S
C2243 C2242 1.369 . S
C2243 C2244 1.410 . S
C2243 C2251 1.503 . S
C2244 C2243 1.410 . S
C2244 C2245 1.392 . S
C2244 C2247 1.511 . S
C2245 C2241 1.376 . S
C2245 C2244 1.392 . S
C2245 H2257 0.929 . S
C2246 C2242 1.531 . S
C2246 H2258 0.960 . S
C2246 H2259 0.962 . S
C2246 H2260 0.960 . S
C2247 C2244 1.511 . S
C2247 H2261 0.961 . S
C2247 H2262 0.961 . S
C2247 H2263 0.961 . S
C2248 C2249 1.370 . S
C2248 C2250 1.363 . S
C2248 H2264 0.931 . S
C2249 C2248 1.370 . S
C2249 C2253 1.408 . S
C2250 C2248 1.363 . S
C2250 C2251 1.370 . S
C2250 C2254 1.524 . S
C2251 C2243 1.503 . S
C2251 C2250 1.370 . S
C2251 C2252 1.403 . S
C2252 C2251 1.403 . S
C2252 C2253 1.404 . S
C2252 C2255 1.539 . S
C2253 C2249 1.408 . S
C2253 C2252 1.404 . S
C2253 H2265 0.930 . S
C2254 C2250 1.524 . S
C2254 H2266 0.956 . S
C2254 H2267 0.961 . S
C2254 H2268 0.961 . S
C2255 C2252 1.539 . S
C2255 H2269 0.958 . S
C2255 H2270 0.961 . S
C2255 H2271 0.960 . S
H2256 C2240 0.931 . S
H2257 C2245 0.929 . S
H2258 C2246 0.960 . S
H2259 C2246 0.962 . S
H2260 C2246 0.960 . S
H2261 C2247 0.961 . S
H2262 C2247 0.961 . S
H2263 C2247 0.961 . S
H2264 C2248 0.931 . S
H2265 C2253 0.930 . S
H2266 C2254 0.956 . S
H2267 C2254 0.961 . S
H2268 C2254 0.961 . S
H2269 C2255 0.958 . S
H2270 C2255 0.961 . S
H2271 C2255 0.960 . S
C2272 C2273 1.391 . S
C2272 C2274 1.394 . S
C2272 H2288 0.931 . S
C2273 C2272 1.391 . S
C2273 C2277 1.376 . S
C2274 C2272 1.394 . S
C2274 C2275 1.369 . S
C2274 C2278 1.531 . S
C2275 C2274 1.369 . S
C2275 C2276 1.410 . S
C2275 C2283 1.503 . S
C2276 C2275 1.410 . S
C2276 C2277 1.392 . S
C2276 C2279 1.511 . S
C2277 C2273 1.376 . S
C2277 C2276 1.392 . S
C2277 H2289 0.929 . S
C2278 C2274 1.531 . S
C2278 H2290 0.960 . S
C2278 H2291 0.962 . S
C2278 H2292 0.960 . S
C2279 C2276 1.511 . S
C2279 H2293 0.961 . S
C2279 H2294 0.961 . S
C2279 H2295 0.961 . S
C2280 C2281 1.370 . S
C2280 C2282 1.363 . S
C2280 H2296 0.931 . S
C2281 C2280 1.370 . S
C2281 C2285 1.408 . S
C2282 C2280 1.363 . S
C2282 C2283 1.370 . S
C2282 C2286 1.524 . S
C2283 C2275 1.503 . S
C2283 C2282 1.370 . S
C2283 C2284 1.403 . S
C2284 C2283 1.403 . S
C2284 C2285 1.404 . S
C2284 C2287 1.539 . S
C2285 C2281 1.408 . S
C2285 C2284 1.404 . S
C2285 H2297 0.930 . S
C2286 C2282 1.524 . S
C2286 H2298 0.956 . S
C2286 H2299 0.961 . S
C2286 H2300 0.961 . S
C2287 C2284 1.539 . S
C2287 H2301 0.958 . S
C2287 H2302 0.961 . S
C2287 H2303 0.960 . S
H2288 C2272 0.931 . S
H2289 C2277 0.929 . S
H2290 C2278 0.960 . S
H2291 C2278 0.962 . S
H2292 C2278 0.960 . S
H2293 C2279 0.961 . S
H2294 C2279 0.961 . S
H2295 C2279 0.961 . S
H2296 C2280 0.931 . S
H2297 C2285 0.930 . S
H2298 C2286 0.956 . S
H2299 C2286 0.961 . S
H2300 C2286 0.961 . S
H2301 C2287 0.958 . S
H2302 C2287 0.961 . S
H2303 C2287 0.960 . S
C2304 C2305 1.391 . S
C2304 C2306 1.394 . S
C2304 H2320 0.931 . S
C2305 C2304 1.391 . S
C2305 C2309 1.376 . S
C2306 C2304 1.394 . S
C2306 C2307 1.369 . S
C2306 C2310 1.531 . S
C2307 C2306 1.369 . S
C2307 C2308 1.410 . S
C2307 C2315 1.503 . S
C2308 C2307 1.410 . S
C2308 C2309 1.392 . S
C2308 C2311 1.511 . S
C2309 C2305 1.376 . S
C2309 C2308 1.392 . S
C2309 H2321 0.929 . S
C2310 C2306 1.531 . S
C2310 H2322 0.960 . S
C2310 H2323 0.962 . S
C2310 H2324 0.960 . S
C2311 C2308 1.511 . S
C2311 H2325 0.961 . S
C2311 H2326 0.961 . S
C2311 H2327 0.961 . S
C2312 C2313 1.370 . S
C2312 C2314 1.363 . S
C2312 H2328 0.931 . S
C2313 C2312 1.370 . S
C2313 C2317 1.408 . S
C2314 C2312 1.363 . S
C2314 C2315 1.370 . S
C2314 C2318 1.524 . S
C2315 C2307 1.503 . S
C2315 C2314 1.370 . S
C2315 C2316 1.403 . S
C2316 C2315 1.403 . S
C2316 C2317 1.404 . S
C2316 C2319 1.539 . S
C2317 C2313 1.408 . S
C2317 C2316 1.404 . S
C2317 H2329 0.930 . S
C2318 C2314 1.524 . S
C2318 H2330 0.956 . S
C2318 H2331 0.961 . S
C2318 H2332 0.961 . S
C2319 C2316 1.539 . S
C2319 H2333 0.958 . S
C2319 H2334 0.961 . S
C2319 H2335 0.960 . S
H2320 C2304 0.931 . S
H2321 C2309 0.929 . S
H2322 C2310 0.960 . S
H2323 C2310 0.962 . S
H2324 C2310 0.960 . S
H2325 C2311 0.961 . S
H2326 C2311 0.961 . S
H2327 C2311 0.961 . S
H2328 C2312 0.931 . S
H2329 C2317 0.930 . S
H2330 C2318 0.956 . S
H2331 C2318 0.961 . S
H2332 C2318 0.961 . S
H2333 C2319 0.958 . S
H2334 C2319 0.961 . S
H2335 C2319 0.960 . S
C2336 C2337 1.391 . S
C2336 C2338 1.394 . S
C2336 H2352 0.931 . S
C2337 C2336 1.391 . S
C2337 C2341 1.376 . S
C2338 C2336 1.394 . S
C2338 C2339 1.369 . S
C2338 C2342 1.531 . S
C2339 C2338 1.369 . S
C2339 C2340 1.410 . S
C2339 C2347 1.503 . S
C2340 C2339 1.410 . S
C2340 C2341 1.392 . S
C2340 C2343 1.511 . S
C2341 C2337 1.376 . S
C2341 C2340 1.392 . S
C2341 H2353 0.929 . S
C2342 C2338 1.531 . S
C2342 H2354 0.960 . S
C2342 H2355 0.962 . S
C2342 H2356 0.960 . S
C2343 C2340 1.511 . S
C2343 H2357 0.961 . S
C2343 H2358 0.961 . S
C2343 H2359 0.961 . S
C2344 C2345 1.370 . S
C2344 C2346 1.363 . S
C2344 H2360 0.931 . S
C2345 C2344 1.370 . S
C2345 C2349 1.408 . S
C2346 C2344 1.363 . S
C2346 C2347 1.370 . S
C2346 C2350 1.524 . S
C2347 C2339 1.503 . S
C2347 C2346 1.370 . S
C2347 C2348 1.403 . S
C2348 C2347 1.403 . S
C2348 C2349 1.404 . S
C2348 C2351 1.539 . S
C2349 C2345 1.408 . S
C2349 C2348 1.404 . S
C2349 H2361 0.930 . S
C2350 C2346 1.524 . S
C2350 H2362 0.956 . S
C2350 H2363 0.961 . S
C2350 H2364 0.961 . S
C2351 C2348 1.539 . S
C2351 H2365 0.958 . S
C2351 H2366 0.961 . S
C2351 H2367 0.960 . S
H2352 C2336 0.931 . S
H2353 C2341 0.929 . S
H2354 C2342 0.960 . S
H2355 C2342 0.962 . S
H2356 C2342 0.960 . S
H2357 C2343 0.961 . S
H2358 C2343 0.961 . S
H2359 C2343 0.961 . S
H2360 C2344 0.931 . S
H2361 C2349 0.930 . S
H2362 C2350 0.956 . S
H2363 C2350 0.961 . S
H2364 C2350 0.961 . S
H2365 C2351 0.958 . S
H2366 C2351 0.961 . S
H2367 C2351 0.960 . S
C2368 C2369 1.391 . S
C2368 C2370 1.394 . S
C2368 H2384 0.931 . S
C2369 C2368 1.391 . S
C2369 C2373 1.376 . S
C2370 C2368 1.394 . S
C2370 C2371 1.369 . S
C2370 C2374 1.531 . S
C2371 C2370 1.369 . S
C2371 C2372 1.410 . S
C2371 C2379 1.503 . S
C2372 C2371 1.410 . S
C2372 C2373 1.392 . S
C2372 C2375 1.511 . S
C2373 C2369 1.376 . S
C2373 C2372 1.392 . S
C2373 H2385 0.929 . S
C2374 C2370 1.531 . S
C2374 H2386 0.960 . S
C2374 H2387 0.962 . S
C2374 H2388 0.960 . S
C2375 C2372 1.511 . S
C2375 H2389 0.961 . S
C2375 H2390 0.961 . S
C2375 H2391 0.961 . S
C2376 C2377 1.370 . S
C2376 C2378 1.363 . S
C2376 H2392 0.931 . S
C2377 C2376 1.370 . S
C2377 C2381 1.408 . S
C2378 C2376 1.363 . S
C2378 C2379 1.370 . S
C2378 C2382 1.524 . S
C2379 C2371 1.503 . S
C2379 C2378 1.370 . S
C2379 C2380 1.403 . S
C2380 C2379 1.403 . S
C2380 C2381 1.404 . S
C2380 C2383 1.539 . S
C2381 C2377 1.408 . S
C2381 C2380 1.404 . S
C2381 H2393 0.930 . S
C2382 C2378 1.524 . S
C2382 H2394 0.956 . S
C2382 H2395 0.961 . S
C2382 H2396 0.961 . S
C2383 C2380 1.539 . S
C2383 H2397 0.958 . S
C2383 H2398 0.961 . S
C2383 H2399 0.960 . S
H2384 C2368 0.931 . S
H2385 C2373 0.929 . S
H2386 C2374 0.960 . S
H2387 C2374 0.962 . S
H2388 C2374 0.960 . S
H2389 C2375 0.961 . S
H2390 C2375 0.961 . S
H2391 C2375 0.961 . S
H2392 C2376 0.931 . S
H2393 C2381 0.930 . S
H2394 C2382 0.956 . S
H2395 C2382 0.961 . S
H2396 C2382 0.961 . S
H2397 C2383 0.958 . S
H2398 C2383 0.961 . S
H2399 C2383 0.960 . S
C2400 C2401 1.391 . S
C2400 C2402 1.394 . S
C2400 H2416 0.931 . S
C2401 C2400 1.391 . S
C2401 C2405 1.376 . S
C2402 C2400 1.394 . S
C2402 C2403 1.369 . S
C2402 C2406 1.531 . S
C2403 C2402 1.369 . S
C2403 C2404 1.410 . S
C2403 C2411 1.503 . S
C2404 C2403 1.410 . S
C2404 C2405 1.392 . S
C2404 C2407 1.511 . S
C2405 C2401 1.376 . S
C2405 C2404 1.392 . S
C2405 H2417 0.929 . S
C2406 C2402 1.531 . S
C2406 H2418 0.960 . S
C2406 H2419 0.962 . S
C2406 H2420 0.960 . S
C2407 C2404 1.511 . S
C2407 H2421 0.961 . S
C2407 H2422 0.961 . S
C2407 H2423 0.961 . S
C2408 C2409 1.370 . S
C2408 C2410 1.363 . S
C2408 H2424 0.931 . S
C2409 C2408 1.370 . S
C2409 C2413 1.408 . S
C2410 C2408 1.363 . S
C2410 C2411 1.370 . S
C2410 C2414 1.524 . S
C2411 C2403 1.503 . S
C2411 C2410 1.370 . S
C2411 C2412 1.403 . S
C2412 C2411 1.403 . S
C2412 C2413 1.404 . S
C2412 C2415 1.539 . S
C2413 C2409 1.408 . S
C2413 C2412 1.404 . S
C2413 H2425 0.930 . S
C2414 C2410 1.524 . S
C2414 H2426 0.956 . S
C2414 H2427 0.961 . S
C2414 H2428 0.961 . S
C2415 C2412 1.539 . S
C2415 H2429 0.958 . S
C2415 H2430 0.961 . S
C2415 H2431 0.960 . S
H2416 C2400 0.931 . S
H2417 C2405 0.929 . S
H2418 C2406 0.960 . S
H2419 C2406 0.962 . S
H2420 C2406 0.960 . S
H2421 C2407 0.961 . S
H2422 C2407 0.961 . S
H2423 C2407 0.961 . S
H2424 C2408 0.931 . S
H2425 C2413 0.930 . S
H2426 C2414 0.956 . S
H2427 C2414 0.961 . S
H2428 C2414 0.961 . S
H2429 C2415 0.958 . S
H2430 C2415 0.961 . S
H2431 C2415 0.960 . S
C2432 C2433 1.391 . S
C2432 C2434 1.394 . S
C2432 H2448 0.931 . S
C2433 C2432 1.391 . S
C2433 C2437 1.376 . S
C2434 C2432 1.394 . S
C2434 C2435 1.369 . S
C2434 C2438 1.531 . S
C2435 C2434 1.369 . S
C2435 C2436 1.410 . S
C2435 C2443 1.503 . S
C2436 C2435 1.410 . S
C2436 C2437 1.392 . S
C2436 C2439 1.511 . S
C2437 C2433 1.376 . S
C2437 C2436 1.392 . S
C2437 H2449 0.929 . S
C2438 C2434 1.531 . S
C2438 H2450 0.960 . S
C2438 H2451 0.962 . S
C2438 H2452 0.960 . S
C2439 C2436 1.511 . S
C2439 H2453 0.961 . S
C2439 H2454 0.961 . S
C2439 H2455 0.961 . S
C2440 C2441 1.370 . S
C2440 C2442 1.363 . S
C2440 H2456 0.931 . S
C2441 C2440 1.370 . S
C2441 C2445 1.408 . S
C2442 C2440 1.363 . S
C2442 C2443 1.370 . S
C2442 C2446 1.524 . S
C2443 C2435 1.503 . S
C2443 C2442 1.370 . S
C2443 C2444 1.403 . S
C2444 C2443 1.403 . S
C2444 C2445 1.404 . S
C2444 C2447 1.539 . S
C2445 C2441 1.408 . S
C2445 C2444 1.404 . S
C2445 H2457 0.930 . S
C2446 C2442 1.524 . S
C2446 H2458 0.956 . S
C2446 H2459 0.961 . S
C2446 H2460 0.961 . S
C2447 C2444 1.539 . S
C2447 H2461 0.958 . S
C2447 H2462 0.961 . S
C2447 H2463 0.960 . S
H2448 C2432 0.931 . S
H2449 C2437 0.929 . S
H2450 C2438 0.960 . S
H2451 C2438 0.962 . S
H2452 C2438 0.960 . S
H2453 C2439 0.961 . S
H2454 C2439 0.961 . S
H2455 C2439 0.961 . S
H2456 C2440 0.931 . S
H2457 C2445 0.930 . S
H2458 C2446 0.956 . S
H2459 C2446 0.961 . S
H2460 C2446 0.961 . S
H2461 C2447 0.958 . S
H2462 C2447 0.961 . S
H2463 C2447 0.960 . S
C2464 C2465 1.391 . S
C2464 C2466 1.394 . S
C2464 H2480 0.931 . S
C2465 C2464 1.391 . S
C2465 C2469 1.376 . S
C2466 C2464 1.394 . S
C2466 C2467 1.369 . S
C2466 C2470 1.531 . S
C2467 C2466 1.369 . S
C2467 C2468 1.410 . S
C2467 C2475 1.503 . S
C2468 C2467 1.410 . S
C2468 C2469 1.392 . S
C2468 C2471 1.511 . S
C2469 C2465 1.376 . S
C2469 C2468 1.392 . S
C2469 H2481 0.929 . S
C2470 C2466 1.531 . S
C2470 H2482 0.960 . S
C2470 H2483 0.962 . S
C2470 H2484 0.960 . S
C2471 C2468 1.511 . S
C2471 H2485 0.961 . S
C2471 H2486 0.961 . S
C2471 H2487 0.961 . S
C2472 C2473 1.370 . S
C2472 C2474 1.363 . S
C2472 H2488 0.931 . S
C2473 C2472 1.370 . S
C2473 C2477 1.408 . S
C2474 C2472 1.363 . S
C2474 C2475 1.370 . S
C2474 C2478 1.524 . S
C2475 C2467 1.503 . S
C2475 C2474 1.370 . S
C2475 C2476 1.403 . S
C2476 C2475 1.403 . S
C2476 C2477 1.404 . S
C2476 C2479 1.539 . S
C2477 C2473 1.408 . S
C2477 C2476 1.404 . S
C2477 H2489 0.930 . S
C2478 C2474 1.524 . S
C2478 H2490 0.956 . S
C2478 H2491 0.961 . S
C2478 H2492 0.961 . S
C2479 C2476 1.539 . S
C2479 H2493 0.958 . S
C2479 H2494 0.961 . S
C2479 H2495 0.960 . S
H2480 C2464 0.931 . S
H2481 C2469 0.929 . S
H2482 C2470 0.960 . S
H2483 C2470 0.962 . S
H2484 C2470 0.960 . S
H2485 C2471 0.961 . S
H2486 C2471 0.961 . S
H2487 C2471 0.961 . S
H2488 C2472 0.931 . S
H2489 C2477 0.930 . S
H2490 C2478 0.956 . S
H2491 C2478 0.961 . S
H2492 C2478 0.961 . S
H2493 C2479 0.958 . S
H2494 C2479 0.961 . S
H2495 C2479 0.960 . S
C449 C67 1.478 . S
C457 C11 1.486 . S
C481 C81 1.457 . S
C489 C25 1.475 . S
C513 C95 1.478 . S
C521 C39 1.486 . S
C545 C53 1.490 . S
C553 C109 1.482 . S
C577 C123 1.493 . S
C585 C179 1.486 . S
C609 C193 1.495 . S
C617 C137 1.490 . S
C641 C151 1.470 . S
C649 C207 1.476 . S
C673 C221 1.493 . S
C681 C165 1.489 . S
C705 C235 1.482 . S
C713 C291 1.478 . S
C737 C305 1.460 . S
C745 C249 1.478 . S
C769 C319 1.468 . S
C777 C263 1.482 . S
C801 C333 1.497 . S
C809 C277 1.487 . S
C833 C347 1.493 . S
C841 C403 1.486 . S
C865 C361 1.496 . S
C873 C417 1.490 . S
C897 C375 1.457 . S
C905 C431 1.473 . S
C929 C389 1.498 . S
C937 C445 1.490 . S
C961 C12 0.890 . S
C969 C110 0.865 . S
C993 C26 0.845 . S
C1001 C68 0.872 . S
C1025 C40 0.845 . S
C1033 C82 0.873 . S
C1057 C96 0.893 . S
C1065 C54 0.868 . S
C1089 C222 0.852 . S
C1097 C124 0.868 . S
C1121 C180 0.873 . S
C1129 C138 0.882 . S
C1153 C194 0.896 . S
C1161 C152 0.871 . S
C1185 C166 0.854 . S
C1193 C208 0.882 . S
C1217 C334 0.850 . S
C1225 C236 0.878 . S
C1249 C292 0.855 . S
C1257 C250 0.863 . S
C1281 C306 0.846 . S
C1289 C264 0.874 . S
C1313 C278 0.868 . S
C1321 C320 0.862 . S
C1345 C348 0.869 . S
C1353 C446 0.883 . S
C1377 C362 0.897 . S
C1385 C404 0.870 . S
C1409 C376 0.858 . S
C1417 C418 0.865 . S
C1441 C432 0.845 . S
C1449 C390 0.876 . S
C1473 C4 1.450 . S
C1481 C355 1.356 . S
C1505 C18 1.436 . S
C1513 C145 1.363 . S
C1537 C32 1.455 . S
C1545 C383 1.359 . S
C1569 C117 1.404 . S
C1577 C46 1.472 . S
C1601 C439 1.402 . S
C1609 C60 1.463 . S
C1633 C74 1.457 . S
C1641 C173 1.360 . S
C1665 C88 1.442 . S
C1673 C411 1.353 . S
C1697 C102 1.453 . S
C1705 C201 1.380 . S
C1729 C243 1.415 . S
C1737 C116 1.471 . S
C1761 C33 1.386 . S
C1769 C130 1.462 . S
C1793 C271 1.416 . S
C1801 C144 1.471 . S
C1825 C158 1.479 . S
C1833 C5 1.392 . S
C1857 C327 1.389 . S
C1865 C172 1.463 . S
C1889 C61 1.415 . S
C1897 C186 1.472 . S
C1921 C299 1.358 . S
C1929 C200 1.462 . S
C1953 C89 1.371 . S
C1961 C214 1.465 . S
C1985 C131 1.384 . S
C1993 C228 1.459 . S
C2017 C242 1.447 . S
C2025 C369 1.355 . S
C2049 C256 1.462 . S
C2057 C159 1.387 . S
C2081 C270 1.437 . S
C2089 C341 1.365 . S
C2113 C284 1.446 . S
C2121 C215 1.374 . S
C2145 C397 1.379 . S
C2153 C298 1.469 . S
C2177 C312 1.441 . S
C2185 C187 1.353 . S
C2209 C326 1.468 . S
C2217 C425 1.369 . S
C2241 C340 1.448 . S
C2249 C19 1.370 . S
C2273 C354 1.460 . S
C2281 C257 1.368 . S
C2305 C47 1.323 . S
C2313 C368 1.452 . S
C2337 C229 1.416 . S
C2345 C382 1.472 . S
C2369 C396 1.471 . S
C2377 C103 1.388 . S
C2401 C410 1.473 . S
C2409 C285 1.379 . S
C2433 C75 1.326 . S
C2441 C424 1.454 . S
C2465 C313 1.399 . S
C2473 C438 1.465 . S
