# Generated by pormake.
# Topology sxb, (6)-cn, num edge types: 1
# Building blocks:
#     Node 0, Type 0, BuildingBlock: VOLQOD_clean_sbu_1, # of connection points: 6
#     Node 1, Type 0, BuildingBlock: VOLQOD_clean_sbu_1, # of connection points: 6
#     Node 2, Type 0, BuildingBlock: VOLQOD_clean_sbu_1, # of connection points: 6
#     Node 3, Type 0, BuildingBlock: VOLQOD_clean_sbu_1, # of connection points: 6
#     Edge 4, Type (0, 0), BuildingBlock: EZIPEK_clean_linker_0, # of connection points: 2
#     Edge 5, Type (0, 0), BuildingBlock: EZIPEK_clean_linker_0, # of connection points: 2
#     Edge 6, Type (0, 0), BuildingBlock: EZIPEK_clean_linker_0, # of connection points: 2
#     Edge 7, Type (0, 0), BuildingBlock: EZIPEK_clean_linker_0, # of connection points: 2
#     Edge 8, Type (0, 0), BuildingBlock: EZIPEK_clean_linker_0, # of connection points: 2
#     Edge 9, Type (0, 0), BuildingBlock: EZIPEK_clean_linker_0, # of connection points: 2
#     Edge 10, Type (0, 0), BuildingBlock: EZIPEK_clean_linker_0, # of connection points: 2
#     Edge 11, Type (0, 0), BuildingBlock: EZIPEK_clean_linker_0, # of connection points: 2
#     Edge 12, Type (0, 0), BuildingBlock: EZIPEK_clean_linker_0, # of connection points: 2
#     Edge 13, Type (0, 0), BuildingBlock: EZIPEK_clean_linker_0, # of connection points: 2
#     Edge 14, Type (0, 0), BuildingBlock: EZIPEK_clean_linker_0, # of connection points: 2
#     Edge 15, Type (0, 0), BuildingBlock: EZIPEK_clean_linker_0, # of connection points: 2
# Relax obj value: 0.283
# Max RMSD: 0.223
# Mean RMSD: 0.222
data_MOF--net-sxb--node1-VOLQOD_clean_sbu_1--edge1-EZIPEK_clean_linker_0
_symmetry_space_group_name_H-M    P1
_symmetry_Int_Tables_number       1
_symmetry_cell_setting            triclinic
loop_
_symmetry_equiv_pos_as_xyz
'x, y, z'
_cell_length_a     12.033975
_cell_length_b     22.817589
_cell_length_c     26.182591
_cell_angle_alpha  90.048017
_cell_angle_beta   90.6533
_cell_angle_gamma 90.237994
loop_
_atom_site_label
_atom_site_type_symbol
_atom_site_fract_x
_atom_site_fract_y
_atom_site_fract_z
_atom_type_partial_charge
O0 O -0.0234 0.9595 0.89425 0.0
Zn1 Zn -0.03881 0.9435 0.9692 0.0
O2 O 0.01407 0.01173 0.00791 0.0
Zn3 Zn 0.12823 0.98883 0.0553 0.0
Zn4 Zn 0.07749 0.07116 0.96315 0.0
Zn5 Zn 0.90186 0.04524 0.04888 0.0
O6 O 0.08028 0.9852 0.12811 0.0
O7 O 0.92374 0.03606 0.12447 0.0
O8 O 0.0602 0.87292 0.98389 0.0
O9 O 0.19054 0.91174 0.03498 0.0
O10 O 0.24978 0.0465 0.05251 0.0
O11 O 0.24492 0.06452 0.97065 0.0
O12 O 0.00709 0.15216 0.97455 0.0
O13 O 0.79403 0.93134 0.9791 0.0
O14 O 0.87758 0.1279 0.03077 0.0
O15 O 0.76351 0.0075 0.03015 0.0
C16 C 0.00872 0.00386 0.86895 0.0
C17 C -0.00213 0.0088 0.14976 0.0
C18 C 0.30123 0.05589 0.0114 0.0
C19 C 0.1529 0.86955 0.00806 0.0
C20 C 0.92203 0.16497 0.00114 0.0
C21 C 0.72848 0.96463 0.0037 0.0
O22 O 0.0454 0.05016 0.89035 0.0
O23 O -0.00101 0.9567 0.3933 0.0
Zn24 Zn 0.009 0.93643 0.46795 0.0
O25 O 0.95898 0.00427 0.5074 0.0
Zn26 Zn 0.07291 0.03867 0.54837 0.0
Zn27 Zn 0.89248 0.06546 0.46402 0.0
Zn28 Zn 0.85098 0.97806 0.55518 0.0
O29 O 0.05233 0.03112 0.62408 0.0
O30 O 0.90205 0.97488 0.62772 0.0
O31 O 0.17394 0.92082 0.48277 0.0
O32 O 0.20858 -0.00074 0.53105 0.0
O33 O 0.09831 0.12154 0.53079 0.0
O34 O -0.03882 0.14652 0.47757 0.0
O35 O 0.7247 0.05806 0.47068 0.0
O36 O 0.90504 0.8659 0.47829 0.0
O37 O 0.73211 0.03497 0.55181 0.0
O38 O 0.78615 0.90188 0.53472 0.0
C39 C -0.03428 0.00164 0.36884 0.0
C40 C -0.01795 0.00179 0.64945 0.0
C41 C 0.04903 0.15925 0.50324 0.0
C42 C 0.24141 0.95454 0.50689 0.0
C43 C 0.67652 0.03991 0.51074 0.0
C44 C 0.81654 0.8616 0.50459 0.0
O45 O 0.92556 0.04633 0.391 0.0
O46 O 0.43956 0.44966 0.87536 0.0
Zn47 Zn 0.42619 0.43083 0.95122 0.0
O48 O 0.47202 0.4994 0.99159 0.0
Zn49 Zn 0.58928 0.48214 0.03925 0.0
Zn50 Zn 0.53364 0.55853 0.94712 0.0
Zn51 Zn 0.35648 0.5317 0.03096 0.0
O52 O 0.54408 0.48332 0.11283 0.0
O53 O 0.37432 0.52025 0.10653 0.0
O54 O 0.53378 0.36246 0.96722 0.0
O55 O 0.65228 0.40506 0.02205 0.0
O56 O 0.71188 0.53874 0.03039 0.0
O57 O 0.70059 0.54435 0.94758 0.0
O58 O 0.48302 0.64074 0.96731 0.0
O59 O 0.25732 0.41579 0.96177 0.0
O60 O 0.34154 0.61648 0.01729 0.0
O61 O 0.21927 0.49392 0.00961 0.0
C62 C 0.45168 0.49823 0.85188 0.0
C63 C 0.45446 0.50034 0.13318 0.0
C64 C 0.76056 0.53985 0.98775 0.0
C65 C 0.62329 0.3618 0.99431 0.0
C66 C 0.39749 0.65455 0.99315 0.0
C67 C 0.18804 0.44915 0.98446 0.0
O68 O 0.47849 0.54486 0.87579 0.0
O69 O 0.44603 0.4714 0.38065 0.0
Zn70 Zn 0.46244 0.46344 0.45716 0.0
O71 O 0.38445 0.52704 0.48982 0.0
Zn72 Zn 0.47256 0.56786 0.53706 0.0
Zn73 Zn 0.35182 0.58903 0.44185 0.0
Zn74 Zn 0.26933 0.50215 0.53257 0.0
O75 O 0.47409 0.53402 0.60675 0.0
O76 O 0.29486 0.51455 0.60929 0.0
O77 O 0.62936 0.47484 0.47037 0.0
O78 O 0.61773 0.56119 0.50956 0.0
O79 O 0.44419 0.65448 0.53892 0.0
O80 O 0.45835 0.65703 0.45562 0.0
O81 O 0.18898 0.60833 0.44728 0.0
O82 O 0.38825 0.38528 0.47618 0.0
O83 O 0.14026 0.54383 0.5075 0.0
O84 O 0.24213 0.41776 0.51968 0.0
C85 C 0.41401 0.51341 0.35215 0.0
C86 C 0.38831 0.52089 0.63203 0.0
C87 C 0.48085 0.67933 0.49918 0.0
C88 C 0.67315 0.52267 0.48657 0.0
C89 C 0.1163 0.58305 0.47479 0.0
C90 C 0.29515 0.37656 0.49828 0.0
O91 O 0.37805 0.56132 0.37042 0.0
C92 C 0.33716 0.74062 0.04362 0.0
C93 C 0.35636 0.71555 0.995 0.0
C94 C 0.25786 0.79741 0.95454 0.0
C95 C 0.22246 0.81642 0.0034 0.0
N96 N 0.21745 0.80146 0.09469 0.0
N97 N 0.32416 0.7165 0.90367 0.0
C98 C 0.25996 0.7871 0.04813 0.0
C99 C 0.3149 0.74323 0.95015 0.0
N100 N 0.39353 0.71996 0.08545 0.0
N101 N 0.24047 0.83191 0.91256 0.0
H102 H 0.36572 0.67704 0.89836 0.0
H103 H 0.28339 0.73139 0.87088 0.0
H104 H 0.2012 0.87251 0.91423 0.0
H105 H 0.27478 0.82298 0.87705 0.0
H106 H 0.39087 0.7399 0.12122 0.0
H107 H 0.45209 0.68646 0.08301 0.0
H108 H 0.23341 0.77749 0.12779 0.0
H109 H 0.15746 0.83379 0.09955 0.0
C110 C 0.74154 0.28931 0.04128 0.0
C111 C 0.6998 0.31077 0.99394 0.0
C112 C 0.81596 0.23978 0.94873 0.0
C113 C 0.8642 0.22209 -0.00388 0.0
N114 N 0.89414 0.2419 0.08553 0.0
N115 N 0.72105 0.31684 0.90233 0.0
C116 C 0.83397 0.25104 0.04171 0.0
C117 C 0.74388 0.28914 0.94747 0.0
N118 N 0.68965 0.3032 0.08584 0.0
N119 N 0.83343 0.20798 0.90533 0.0
H120 H 0.67115 0.35395 0.89963 0.0
H121 H 0.76068 0.30634 0.86835 0.0
H122 H 0.88503 0.17151 0.90398 0.0
H123 H 0.78944 0.21521 0.87141 0.0
H124 H 0.71078 0.28436 0.12085 0.0
H125 H 0.61754 0.32837 0.08703 0.0
H126 H 0.88202 0.26582 0.11891 0.0
H127 H -0.036 0.21491 0.08661 0.0
C128 C 0.12924 0.24762 0.54588 0.0
C129 C 0.10223 0.21779 0.49982 0.0
C130 C 0.20446 0.29222 0.45137 0.0
C131 C 0.2413 0.31805 0.49801 0.0
N132 N 0.25755 0.31298 0.58966 0.0
N133 N 0.13293 0.20519 0.4093 0.0
C134 C 0.20906 0.2935 0.54531 0.0
C135 C 0.14466 0.2383 0.45259 0.0
N136 N 0.07643 0.23291 0.59004 0.0
N137 N 0.22223 0.32016 0.40601 0.0
H138 H 0.09049 0.1653 0.4082 0.0
H139 H 0.17347 0.21493 0.37538 0.0
H140 H 0.26584 0.35955 0.40316 0.0
H141 H 0.18583 0.30665 0.37165 0.0
H142 H 0.08504 0.25673 0.62382 0.0
H143 H 0.01511 0.20048 0.59148 0.0
H144 H 0.24488 0.29326 0.625 0.0
H145 H 0.31977 0.34498 0.59021 0.0
C146 C 0.66405 0.80721 0.45989 0.0
C147 C 0.74301 0.80977 0.50024 0.0
C148 C 0.65496 0.72469 0.54037 0.0
C149 C 0.56672 0.72685 0.50312 0.0
N150 N 0.47591 0.78146 0.43559 0.0
N151 N 0.80625 0.77661 0.58275 0.0
C152 C 0.56833 0.77123 0.46504 0.0
C153 C 0.73584 0.77033 0.54171 0.0
N154 N 0.68023 0.83921 0.41657 0.0
N155 N 0.6667 0.67815 0.57284 0.0
H156 H 0.87215 0.80649 0.58344 0.0
H157 H 0.79504 0.7548 0.61727 0.0
H158 H 0.61383 0.64229 0.57424 0.0
H159 H 0.73634 0.67221 0.59618 0.0
H160 H 0.63064 0.83456 0.38391 0.0
H161 H 0.74947 0.86616 0.41162 0.0
H162 H 0.46934 0.81686 0.41064 0.0
H163 H 0.40117 0.75897 0.44058 0.0
C164 C 0.46673 0.0058 0.05131 0.0
C165 C 0.4191 0.03493 0.00827 0.0
C166 C 0.5633 0.99169 0.95419 0.0
C167 C 0.60707 0.96231 -0.00263 0.0
N168 N 0.58045 0.92532 0.08154 0.0
N169 N 0.44791 0.07108 0.92282 0.0
C170 C 0.54935 0.96303 0.04366 0.0
C171 C 0.47359 0.03163 0.96032 0.0
N172 N 0.44304 0.02383 0.09974 0.0
N173 N 0.61001 0.98199 0.9077 0.0
H174 H 0.39619 0.10682 0.92927 0.0
H175 H 0.48857 0.07353 0.88804 0.0
H176 H 0.67502 0.95237 0.90318 0.0
H177 H 0.5782 -0.00165 0.87347 0.0
H178 H 0.48106 0.00633 0.13223 0.0
H179 H 0.39952 0.06235 0.10696 0.0
H180 H 0.53659 0.92067 0.11542 0.0
H181 H 0.64398 0.89491 0.0761 0.0
C182 C 0.42141 0.95532 0.46002 0.0
C183 C 0.36306 0.94737 0.50613 0.0
C184 C 0.50525 0.00091 0.55299 0.0
C185 C 0.56761 0.00841 0.50758 0.0
N186 N 0.60172 0.96879 0.42254 0.0
N187 N 0.37416 0.93906 0.59725 0.0
C188 C 0.53135 0.97844 0.4622 0.0
C189 C 0.41658 0.96039 0.55289 0.0
N190 N 0.37148 0.94284 0.41423 0.0
N191 N 0.5236 0.03558 0.59486 0.0
H192 H 0.3061 0.91045 0.59706 0.0
H193 H 0.41319 0.94528 0.63263 0.0
H194 H 0.57705 0.07165 0.59467 0.0
H195 H 0.47432 0.03343 0.62732 0.0
H196 H 0.40511 0.95538 0.37937 0.0
H197 H 0.29469 0.92181 0.41132 0.0
H198 H 0.57828 0.94533 0.38998 0.0
H199 H 0.68704 0.97586 0.42483 0.0
C200 C 0.92677 0.5033 0.93683 0.0
C201 C 0.87645 0.51517 0.98492 0.0
C202 C 0.01025 0.44908 0.0263 0.0
C203 C 0.06611 0.44222 0.97991 0.0
N204 N 0.05575 0.44259 0.88909 0.0
N205 N 0.90732 0.5175 0.07667 0.0
C206 C 0.01629 0.46257 0.93441 0.0
C207 C 0.92726 0.49248 0.03026 0.0
N208 N 0.89793 0.53548 0.8948 0.0
N209 N 0.04441 0.41722 0.06757 0.0
H210 H 0.86591 0.5573 0.08032 0.0
H211 H 0.9474 0.50453 0.11027 0.0
H212 H 0.10868 0.38676 0.06464 0.0
H213 H 0.00223 0.41701 0.10213 0.0
H214 H 0.93605 0.53122 0.85952 0.0
H215 H 0.84757 0.57242 0.89693 0.0
H216 H 0.01923 0.45184 0.85378 0.0
H217 H 0.11796 0.41088 0.88812 0.0
C218 C 0.94554 0.56444 0.42434 0.0
C219 C -0.00253 0.59227 0.46679 0.0
C220 C 0.84582 0.56491 0.52142 0.0
C221 C 0.7905 0.53787 0.47932 0.0
N222 N 0.77492 0.5259 0.38752 0.0
N223 N -0.02051 0.63857 0.54819 0.0
C224 C 0.83619 0.54173 0.42959 0.0
C225 C 0.93911 0.60045 0.5123 0.0
N226 N 0.00283 0.5569 0.38013 0.0
N227 N 0.81179 0.55456 0.57024 0.0
H228 H 0.05056 0.66378 0.54149 0.0
H229 H 0.93714 0.64877 0.58152 0.0
H230 H 0.74736 0.52546 0.57863 0.0
H231 H 0.8548 0.57 0.60233 0.0
H232 H -0.02487 0.52998 0.3504 0.0
H233 H 0.08012 0.57631 0.37408 0.0
H234 H 0.80063 0.534 0.35031 0.0
H235 H 0.69483 0.50868 0.38949 0.0
C236 C 0.89529 0.97188 0.2825 0.0
C237 C -0.02495 0.00233 0.31285 0.0
C238 C 0.06531 0.03985 0.23618 0.0
C239 C -0.00981 0.00625 0.20582 0.0
N240 N 0.84376 0.93415 0.1988 0.0
N241 N 0.14485 0.05828 0.32025 0.0
C242 C 0.90771 0.97057 0.22861 0.0
C243 C 0.06269 0.03438 0.29016 0.0
N244 N 0.80609 0.94571 0.30518 0.0
N245 N 0.13622 0.07862 0.21341 0.0
H246 H 0.14477 0.05581 0.36004 0.0
H247 H 0.21741 0.07664 0.30591 0.0
H248 H 0.14099 0.08369 0.17389 0.0
H249 H 0.18419 0.10911 0.23352 0.0
H250 H 0.73852 0.9284 0.28501 0.0
H251 H 0.79558 0.94489 0.34466 0.0
H252 H 0.79044 0.90246 0.2134 0.0
H253 H 0.84998 0.93246 0.15911 0.0
C254 C 0.09163 0.97964 0.78463 0.0
C255 C 0.00147 0.00208 0.81292 0.0
C256 C 0.90312 0.02832 0.73408 0.0
C257 C -0.01071 0.00181 0.70567 0.0
N258 N 0.15745 0.94479 0.70285 0.0
N259 N 0.81507 0.04008 0.81627 0.0
C260 C 0.08169 0.97552 0.73063 0.0
C261 C 0.90516 0.02408 0.78812 0.0
N262 N 0.18735 0.96339 0.8094 0.0
N263 N 0.82224 0.05991 0.70952 0.0
H264 H 0.81473 0.03909 0.85611 0.0
H265 H 0.73787 0.05005 0.80025 0.0
H266 H 0.81856 0.06489 0.66994 0.0
H267 H 0.76425 0.08551 0.72842 0.0
H268 H 0.26046 0.95281 0.7907 0.0
H269 H 0.19632 0.96438 0.84908 0.0
H270 H 0.22028 0.91952 0.71916 0.0
H271 H 0.15241 0.94065 0.66321 0.0
C272 C 0.35981 0.4677 0.26824 0.0
C273 C 0.4262 0.50829 0.29627 0.0
C274 C 0.50706 0.54511 0.21702 0.0
C275 C 0.44658 0.50183 0.18934 0.0
N276 N 0.32744 0.41672 0.18794 0.0
N277 N 0.57665 0.5786 0.29915 0.0
C278 C 0.37628 0.46155 0.21478 0.0
C279 C 0.50371 0.54506 0.27116 0.0
N280 N 0.27814 0.43685 0.2924 0.0
N281 N 0.56415 0.58776 0.19146 0.0
H282 H 0.57644 0.58033 0.33895 0.0
H283 H 0.64353 0.60093 0.28329 0.0
H284 H 0.56943 0.58921 0.15174 0.0
H285 H 0.59876 0.62447 0.20926 0.0
H286 H 0.21915 0.41122 0.27333 0.0
H287 H 0.26365 0.4404 0.33149 0.0
H288 H 0.2847 0.38227 0.20497 0.0
H289 H 0.3369 0.41142 0.14864 0.0
C290 C 0.47389 0.55275 0.7156 0.0
C291 C 0.39895 0.51528 0.68864 0.0
C292 C 0.34683 0.47105 0.77029 0.0
C293 C 0.43546 0.50142 0.79535 0.0
N294 N 0.60491 0.55786 0.78565 0.0
N295 N 0.28373 0.42784 0.6909 0.0
C296 C 0.50566 0.53829 0.76619 0.0
C297 C 0.34081 0.47116 0.71603 0.0
N298 N 0.5113 0.60362 0.69418 0.0
N299 N 0.26508 0.44453 0.79773 0.0
H300 H 0.28195 0.42374 0.65132 0.0
H301 H 0.24887 0.39209 0.70975 0.0
H302 H 0.26133 0.44691 0.83733 0.0
H303 H 0.19406 0.42644 0.78071 0.0
H304 H 0.55989 0.63389 0.71438 0.0
H305 H 0.48198 0.61928 0.65915 0.0
H306 H 0.6617 0.58135 0.76379 0.0
H307 H 0.63664 0.54431 0.82092 0.0
loop_
_geom_bond_atom_site_label_1
_geom_bond_atom_site_label_2
_geom_bond_distance
_geom_bond_site_symmetry_2
_ccdc_geom_bond_type
O0 Zn1 1.953 . S
O0 C16 1.225 1_665 S
Zn1 O0 1.953 . S
Zn1 O2 1.949 1_666 S
Zn1 O8 1.919 1_655 S
Zn1 O13 1.924 . S
O2 Zn1 1.949 1_444 S
O2 Zn3 1.923 1_545 S
O2 Zn4 1.950 1_554 S
O2 Zn5 1.945 1_455 S
Zn3 O2 1.923 1_565 S
Zn3 O6 1.933 . S
Zn3 O9 1.941 . S
Zn3 O10 1.965 1_565 S
Zn4 O2 1.950 1_556 S
Zn4 O11 1.938 . S
Zn4 O12 1.906 . S
Zn4 O22 1.953 . S
Zn5 O2 1.945 1_655 S
Zn5 O7 1.932 . S
Zn5 O14 1.977 . S
Zn5 O15 1.910 . S
O6 Zn3 1.933 . S
O6 C17 1.226 1_565 S
O7 Zn5 1.932 . S
O7 C17 1.307 1_655 S
O8 Zn1 1.919 1_455 S
O8 C19 1.253 1_556 S
O9 Zn3 1.941 . S
O9 C19 1.283 . S
O10 Zn3 1.965 1_545 S
O10 C18 1.303 1_554 S
O11 Zn4 1.938 . S
O11 C18 1.247 . S
O12 Zn4 1.906 . S
O12 C20 1.304 1_456 S
O13 Zn1 1.924 . S
O13 C21 1.311 . S
O14 Zn5 1.977 . S
O14 C20 1.272 . S
O15 Zn5 1.910 . S
O15 C21 1.231 1_544 S
C16 O0 1.225 1_445 S
C16 O22 1.298 . S
C17 O6 1.226 1_545 S
C17 O7 1.307 1_455 S
C18 O10 1.303 1_556 S
C18 O11 1.247 . S
C19 O8 1.253 1_554 S
C19 O9 1.283 . S
C20 O12 1.304 1_654 S
C20 O14 1.272 . S
C21 O13 1.311 . S
C21 O15 1.231 1_566 S
O22 Zn4 1.953 . S
O22 C16 1.298 . S
O23 Zn24 1.953 . S
O23 C39 1.225 1_565 S
Zn24 O23 1.953 . S
Zn24 O25 1.954 1_565 S
Zn24 O31 1.919 . S
Zn24 O36 1.924 . S
O25 Zn24 1.954 1_545 S
O25 Zn26 1.928 . S
O25 Zn27 1.945 1_455 S
O25 Zn28 1.939 1_445 S
Zn26 O25 1.928 . S
Zn26 O29 1.933 . S
Zn26 O32 1.941 . S
Zn26 O33 1.965 . S
Zn27 O25 1.945 1_655 S
Zn27 O34 1.938 . S
Zn27 O35 1.906 . S
Zn27 O45 1.953 . S
Zn28 O25 1.939 1_665 S
Zn28 O30 1.932 . S
Zn28 O37 1.977 . S
Zn28 O38 1.910 . S
O29 Zn26 1.933 . S
O29 C40 1.226 . S
O30 Zn28 1.932 . S
O30 C40 1.307 1_665 S
O31 Zn24 1.919 . S
O31 C42 1.253 . S
O32 Zn26 1.941 . S
O32 C42 1.283 1_545 S
O33 Zn26 1.965 . S
O33 C41 1.303 . S
O34 Zn27 1.938 . S
O34 C41 1.247 1_655 S
O35 Zn27 1.906 . S
O35 C43 1.304 . S
O36 Zn24 1.924 . S
O36 C44 1.311 1_455 S
O37 Zn28 1.977 . S
O37 C43 1.272 1_565 S
O38 Zn28 1.910 . S
O38 C44 1.231 . S
C39 O23 1.225 1_545 S
C39 O45 1.298 1_455 S
C40 O29 1.226 . S
C40 O30 1.307 1_445 S
C41 O33 1.303 . S
C41 O34 1.247 1_455 S
C42 O31 1.253 . S
C42 O32 1.283 1_565 S
C43 O35 1.304 . S
C43 O37 1.272 1_545 S
C44 O36 1.311 1_655 S
C44 O38 1.231 . S
O45 Zn27 1.953 . S
O45 C39 1.298 1_655 S
O46 Zn47 1.953 . S
O46 C62 1.225 . S
Zn47 O46 1.953 . S
Zn47 O48 1.949 1_556 S
Zn47 O54 1.919 . S
Zn47 O59 1.924 . S
O48 Zn47 1.949 1_554 S
O48 Zn49 1.923 . S
O48 Zn50 1.950 1_554 S
O48 Zn51 1.945 . S
Zn49 O48 1.923 . S
Zn49 O52 1.933 . S
Zn49 O55 1.941 . S
Zn49 O56 1.965 . S
Zn50 O48 1.950 1_556 S
Zn50 O57 1.938 . S
Zn50 O58 1.906 . S
Zn50 O68 1.953 . S
Zn51 O48 1.945 . S
Zn51 O53 1.932 . S
Zn51 O60 1.977 . S
Zn51 O61 1.910 . S
O52 Zn49 1.933 . S
O52 C63 1.226 . S
O53 Zn51 1.932 . S
O53 C63 1.307 . S
O54 Zn47 1.919 . S
O54 C65 1.253 1_556 S
O55 Zn49 1.941 . S
O55 C65 1.283 . S
O56 Zn49 1.965 . S
O56 C64 1.303 1_554 S
O57 Zn50 1.938 . S
O57 C64 1.247 . S
O58 Zn50 1.906 . S
O58 C66 1.304 1_556 S
O59 Zn47 1.924 . S
O59 C67 1.311 . S
O60 Zn51 1.977 . S
O60 C66 1.272 . S
O61 Zn51 1.910 . S
O61 C67 1.231 1_554 S
C62 O46 1.225 . S
C62 O68 1.298 . S
C63 O52 1.226 . S
C63 O53 1.307 . S
C64 O56 1.303 1_556 S
C64 O57 1.247 . S
C65 O54 1.253 1_554 S
C65 O55 1.283 . S
C66 O58 1.304 1_554 S
C66 O60 1.272 . S
C67 O59 1.311 . S
C67 O61 1.231 1_556 S
O68 Zn50 1.953 . S
O68 C62 1.298 . S
O69 Zn70 1.953 . S
O69 C85 1.225 . S
Zn70 O69 1.953 . S
Zn70 O71 1.949 . S
Zn70 O77 1.919 . S
Zn70 O82 1.924 . S
O71 Zn70 1.949 . S
O71 Zn72 1.923 . S
O71 Zn73 1.950 . S
O71 Zn74 1.945 . S
Zn72 O71 1.923 . S
Zn72 O75 1.933 . S
Zn72 O78 1.941 . S
Zn72 O79 1.965 . S
Zn73 O71 1.950 . S
Zn73 O80 1.938 . S
Zn73 O81 1.906 . S
Zn73 O91 1.953 . S
Zn74 O71 1.945 . S
Zn74 O76 1.932 . S
Zn74 O83 1.977 . S
Zn74 O84 1.910 . S
O75 Zn72 1.933 . S
O75 C86 1.226 . S
O76 Zn74 1.932 . S
O76 C86 1.307 . S
O77 Zn70 1.919 . S
O77 C88 1.253 . S
O78 Zn72 1.941 . S
O78 C88 1.283 . S
O79 Zn72 1.965 . S
O79 C87 1.303 . S
O80 Zn73 1.938 . S
O80 C87 1.247 . S
O81 Zn73 1.906 . S
O81 C89 1.304 . S
O82 Zn70 1.924 . S
O82 C90 1.311 . S
O83 Zn74 1.977 . S
O83 C89 1.272 . S
O84 Zn74 1.910 . S
O84 C90 1.231 . S
C85 O69 1.225 . S
C85 O91 1.298 . S
C86 O75 1.226 . S
C86 O76 1.307 . S
C87 O79 1.303 . S
C87 O80 1.247 . S
C88 O77 1.253 . S
C88 O78 1.283 . S
C89 O81 1.304 . S
C89 O83 1.272 . S
C90 O82 1.311 . S
C90 O84 1.231 . S
O91 Zn73 1.953 . S
O91 C85 1.298 . S
C92 C93 1.363 . S
C92 C98 1.379 . S
C92 N100 1.356 . S
C93 C92 1.363 . S
C93 C99 1.363 1_554 S
C94 C95 1.363 1_556 S
C94 C99 1.379 . S
C94 N101 1.356 . S
C95 C94 1.363 1_554 S
C95 C98 1.363 . S
N96 C98 1.356 . S
N96 H108 0.984 . S
N96 H109 0.985 . S
N97 C99 1.356 . S
N97 H102 0.984 . S
N97 H103 0.985 . S
C98 C92 1.379 . S
C98 C95 1.363 . S
C98 N96 1.356 . S
C99 C93 1.363 1_556 S
C99 C94 1.379 . S
C99 N97 1.356 . S
N100 C92 1.356 . S
N100 H106 0.984 . S
N100 H107 0.984 . S
N101 C94 1.356 . S
N101 H104 0.984 . S
N101 H105 0.985 . S
H102 N97 0.984 . S
H103 N97 0.985 . S
H104 N101 0.984 . S
H105 N101 0.985 . S
H106 N100 0.984 . S
H107 N100 0.984 . S
H108 N96 0.984 . S
H109 N96 0.985 . S
C110 C111 1.363 . S
C110 C116 1.379 . S
C110 N118 1.356 . S
C111 C110 1.363 . S
C111 C117 1.363 1_554 S
C112 C113 1.363 1_556 S
C112 C117 1.379 . S
C112 N119 1.356 . S
C113 C112 1.363 1_554 S
C113 C116 1.363 . S
N114 C116 1.356 . S
N114 H126 0.984 . S
N114 H127 0.985 1_655 S
N115 C117 1.356 . S
N115 H120 0.984 . S
N115 H121 0.985 . S
C116 C110 1.379 . S
C116 C113 1.363 . S
C116 N114 1.356 . S
C117 C111 1.363 1_556 S
C117 C112 1.379 . S
C117 N115 1.356 . S
N118 C110 1.356 . S
N118 H124 0.984 . S
N118 H125 0.984 . S
N119 C112 1.356 . S
N119 H122 0.984 . S
N119 H123 0.985 . S
H120 N115 0.984 . S
H121 N115 0.985 . S
H122 N119 0.984 . S
H123 N119 0.985 . S
H124 N118 0.984 . S
H125 N118 0.984 . S
H126 N114 0.984 . S
H127 N114 0.985 1_455 S
C128 C129 1.363 . S
C128 C134 1.379 . S
C128 N136 1.356 . S
C129 C128 1.363 . S
C129 C135 1.363 . S
C130 C131 1.363 . S
C130 C135 1.379 . S
C130 N137 1.356 . S
C131 C130 1.363 . S
C131 C134 1.363 . S
N132 C134 1.356 . S
N132 H144 0.984 . S
N132 H145 0.985 . S
N133 C135 1.356 . S
N133 H138 0.984 . S
N133 H139 0.985 . S
C134 C128 1.379 . S
C134 C131 1.363 . S
C134 N132 1.356 . S
C135 C129 1.363 . S
C135 C130 1.379 . S
C135 N133 1.356 . S
N136 C128 1.356 . S
N136 H142 0.984 . S
N136 H143 0.984 . S
N137 C130 1.356 . S
N137 H140 0.984 . S
N137 H141 0.985 . S
H138 N133 0.984 . S
H139 N133 0.985 . S
H140 N137 0.984 . S
H141 N137 0.985 . S
H142 N136 0.984 . S
H143 N136 0.984 . S
H144 N132 0.984 . S
H145 N132 0.985 . S
C146 C147 1.363 . S
C146 C152 1.379 . S
C146 N154 1.356 . S
C147 C146 1.363 . S
C147 C153 1.363 . S
C148 C149 1.363 . S
C148 C153 1.379 . S
C148 N155 1.356 . S
C149 C148 1.363 . S
C149 C152 1.363 . S
N150 C152 1.356 . S
N150 H162 0.984 . S
N150 H163 0.985 . S
N151 C153 1.356 . S
N151 H156 0.984 . S
N151 H157 0.985 . S
C152 C146 1.379 . S
C152 C149 1.363 . S
C152 N150 1.356 . S
C153 C147 1.363 . S
C153 C148 1.379 . S
C153 N151 1.356 . S
N154 C146 1.356 . S
N154 H160 0.984 . S
N154 H161 0.984 . S
N155 C148 1.356 . S
N155 H158 0.984 . S
N155 H159 0.985 . S
H156 N151 0.984 . S
H157 N151 0.985 . S
H158 N155 0.984 . S
H159 N155 0.985 . S
H160 N154 0.984 . S
H161 N154 0.984 . S
H162 N150 0.984 . S
H163 N150 0.985 . S
C164 C165 1.363 1_554 S
C164 C170 1.379 . S
C164 N172 1.356 . S
C165 C164 1.363 1_556 S
C165 C171 1.374 . S
C166 C167 1.363 . S
C166 C171 1.370 1_565 S
C166 N173 1.356 . S
C167 C166 1.363 . S
C167 C170 1.363 1_566 S
N168 C170 1.356 . S
N168 H180 0.984 . S
N168 H181 0.985 1_545 S
N169 C171 1.357 . S
N169 H174 0.984 . S
N169 H175 0.985 1_545 S
C170 C164 1.379 . S
C170 C167 1.363 1_544 S
C170 N168 1.356 . S
C171 C165 1.374 . S
C171 C166 1.370 1_545 S
C171 N169 1.357 . S
N172 C164 1.356 . S
N172 H178 0.984 . S
N172 H179 0.984 . S
N173 C166 1.356 . S
N173 H176 0.984 . S
N173 H177 0.985 . S
H174 N169 0.984 . S
H175 N169 0.985 1_565 S
H176 N173 0.984 . S
H177 N173 0.985 . S
H178 N172 0.984 . S
H179 N172 0.984 . S
H180 N168 0.984 . S
H181 N168 0.985 1_565 S
C182 C183 1.363 . S
C182 C188 1.379 1_565 S
C182 N190 1.356 . S
C183 C182 1.363 . S
C183 C189 1.363 1_565 S
C184 C185 1.363 . S
C184 C189 1.379 . S
C184 N191 1.356 . S
C185 C184 1.363 . S
C185 C188 1.363 . S
N186 C188 1.356 . S
N186 H198 0.984 1_545 S
N186 H199 0.985 . S
N187 C189 1.356 . S
N187 H192 0.984 1_545 S
N187 H193 0.985 . S
C188 C182 1.379 1_545 S
C188 C185 1.363 . S
C188 N186 1.356 . S
C189 C183 1.363 1_545 S
C189 C184 1.379 . S
C189 N187 1.356 . S
N190 C182 1.356 . S
N190 H196 0.984 . S
N190 H197 0.984 . S
N191 C184 1.356 . S
N191 H194 0.984 . S
N191 H195 0.985 . S
H192 N187 0.984 1_565 S
H193 N187 0.985 . S
H194 N191 0.984 . S
H195 N191 0.985 . S
H196 N190 0.984 . S
H197 N190 0.984 . S
H198 N186 0.984 1_565 S
H199 N186 0.985 . S
C200 C201 1.363 . S
C200 C206 1.379 1_655 S
C200 N208 1.356 . S
C201 C200 1.363 . S
C201 C207 1.363 1_556 S
C202 C203 1.363 1_554 S
C202 C207 1.379 1_455 S
C202 N209 1.356 . S
C203 C202 1.363 1_556 S
C203 C206 1.363 . S
N204 C206 1.356 . S
N204 H216 0.984 . S
N204 H217 0.985 . S
N205 C207 1.356 . S
N205 H210 0.984 . S
N205 H211 0.985 . S
C206 C200 1.379 1_455 S
C206 C203 1.363 . S
C206 N204 1.356 . S
C207 C201 1.363 1_554 S
C207 C202 1.379 1_655 S
C207 N205 1.356 . S
N208 C200 1.356 . S
N208 H214 0.984 . S
N208 H215 0.984 . S
N209 C202 1.356 . S
N209 H212 0.984 . S
N209 H213 0.985 . S
H210 N205 0.984 . S
H211 N205 0.985 . S
H212 N209 0.984 . S
H213 N209 0.985 . S
H214 N208 0.984 . S
H215 N208 0.984 . S
H216 N204 0.984 . S
H217 N204 0.985 . S
C218 C219 1.363 . S
C218 C224 1.379 1_455 S
C218 N226 1.356 . S
C219 C218 1.363 . S
C219 C225 1.363 . S
C220 C221 1.363 . S
C220 C225 1.379 1_655 S
C220 N227 1.356 . S
C221 C220 1.363 . S
C221 C224 1.363 . S
N222 C224 1.356 . S
N222 H234 0.984 . S
N222 H235 0.985 . S
N223 C225 1.356 . S
N223 H228 0.984 . S
N223 H229 0.985 . S
C224 C218 1.379 1_655 S
C224 C221 1.363 . S
C224 N222 1.356 . S
C225 C219 1.363 . S
C225 C220 1.379 1_455 S
C225 N223 1.356 . S
N226 C218 1.356 . S
N226 H232 0.984 . S
N226 H233 0.984 . S
N227 C220 1.356 . S
N227 H230 0.984 . S
N227 H231 0.985 . S
H228 N223 0.984 . S
H229 N223 0.985 . S
H230 N227 0.984 . S
H231 N227 0.985 . S
H232 N226 0.984 . S
H233 N226 0.984 . S
H234 N222 0.984 . S
H235 N222 0.985 . S
C236 C237 1.363 1_565 S
C236 C242 1.379 . S
C236 N244 1.356 . S
C237 C236 1.363 1_545 S
C237 C243 1.363 1_455 S
C238 C239 1.363 1_655 S
C238 C243 1.379 . S
C238 N245 1.356 . S
C239 C238 1.363 1_455 S
C239 C242 1.363 1_545 S
N240 C242 1.356 . S
N240 H252 0.984 . S
N240 H253 0.985 . S
N241 C243 1.356 . S
N241 H246 0.984 . S
N241 H247 0.985 . S
C242 C236 1.379 . S
C242 C239 1.363 1_565 S
C242 N240 1.356 . S
C243 C237 1.363 1_655 S
C243 C238 1.379 . S
C243 N241 1.356 . S
N244 C236 1.356 . S
N244 H250 0.984 . S
N244 H251 0.984 . S
N245 C238 1.356 . S
N245 H248 0.984 . S
N245 H249 0.985 . S
H246 N241 0.984 . S
H247 N241 0.985 . S
H248 N245 0.984 . S
H249 N245 0.985 . S
H250 N244 0.984 . S
H251 N244 0.984 . S
H252 N240 0.984 . S
H253 N240 0.985 . S
C254 C255 1.363 1_565 S
C254 C260 1.379 . S
C254 N262 1.356 . S
C255 C254 1.363 1_545 S
C255 C261 1.363 1_455 S
C256 C257 1.363 1_655 S
C256 C261 1.379 . S
C256 N263 1.356 . S
C257 C256 1.363 1_455 S
C257 C260 1.363 1_545 S
N258 C260 1.356 . S
N258 H270 0.984 . S
N258 H271 0.985 . S
N259 C261 1.356 . S
N259 H264 0.984 . S
N259 H265 0.985 . S
C260 C254 1.379 . S
C260 C257 1.363 1_565 S
C260 N258 1.356 . S
C261 C255 1.363 1_655 S
C261 C256 1.379 . S
C261 N259 1.356 . S
N262 C254 1.356 . S
N262 H268 0.984 . S
N262 H269 0.984 . S
N263 C256 1.356 . S
N263 H266 0.984 . S
N263 H267 0.985 . S
H264 N259 0.984 . S
H265 N259 0.985 . S
H266 N263 0.984 . S
H267 N263 0.985 . S
H268 N262 0.984 . S
H269 N262 0.984 . S
H270 N258 0.984 . S
H271 N258 0.985 . S
C272 C273 1.363 . S
C272 C278 1.379 . S
C272 N280 1.356 . S
C273 C272 1.363 . S
C273 C279 1.363 . S
C274 C275 1.363 . S
C274 C279 1.379 . S
C274 N281 1.356 . S
C275 C274 1.363 . S
C275 C278 1.363 . S
N276 C278 1.356 . S
N276 H288 0.984 . S
N276 H289 0.985 . S
N277 C279 1.356 . S
N277 H282 0.984 . S
N277 H283 0.985 . S
C278 C272 1.379 . S
C278 C275 1.363 . S
C278 N276 1.356 . S
C279 C273 1.363 . S
C279 C274 1.379 . S
C279 N277 1.356 . S
N280 C272 1.356 . S
N280 H286 0.984 . S
N280 H287 0.984 . S
N281 C274 1.356 . S
N281 H284 0.984 . S
N281 H285 0.985 . S
H282 N277 0.984 . S
H283 N277 0.985 . S
H284 N281 0.984 . S
H285 N281 0.985 . S
H286 N280 0.984 . S
H287 N280 0.984 . S
H288 N276 0.984 . S
H289 N276 0.985 . S
C290 C291 1.363 . S
C290 C296 1.379 . S
C290 N298 1.356 . S
C291 C290 1.363 . S
C291 C297 1.363 . S
C292 C293 1.363 . S
C292 C297 1.379 . S
C292 N299 1.356 . S
C293 C292 1.363 . S
C293 C296 1.363 . S
N294 C296 1.356 . S
N294 H306 0.984 . S
N294 H307 0.985 . S
N295 C297 1.356 . S
N295 H300 0.984 . S
N295 H301 0.985 . S
C296 C290 1.379 . S
C296 C293 1.363 . S
C296 N294 1.356 . S
C297 C291 1.363 . S
C297 C292 1.379 . S
C297 N295 1.356 . S
N298 C290 1.356 . S
N298 H304 0.984 . S
N298 H305 0.984 . S
N299 C292 1.356 . S
N299 H302 0.984 . S
N299 H303 0.985 . S
H300 N295 0.984 . S
H301 N295 0.985 . S
H302 N299 0.984 . S
H303 N299 0.985 . S
H304 N298 0.984 . S
H305 N298 0.984 . S
H306 N294 0.984 . S
H307 N294 0.985 . S
C93 C66 1.593 . S
C95 C19 1.598 . S
C111 C65 1.598 . S
C113 C20 1.593 . S
C129 C41 1.715 . S
C131 C90 1.681 . S
C147 C44 1.681 . S
C149 C87 1.716 . S
C165 C18 1.023 . S
C167 C21 1.000 . S
C183 C42 0.931 . S
C185 C43 0.930 . S
C201 C64 1.023 . S
C203 C67 1.000 . S
C219 C89 0.930 . S
C221 C88 0.931 . S
C237 C39 1.500 . S
C239 C17 1.499 . S
C255 C16 1.500 . S
C257 C40 1.499 . S
C273 C85 1.500 . S
C275 C63 1.499 . S
C291 C86 1.499 . S
C293 C62 1.500 . S
