# Generated by pormake.
# Topology ukt, (4)-cn, num edge types: 1
# Building blocks:
#     Node 0, Type 0, BuildingBlock: GALJAG_clean_sbu_0, # of connection points: 4
#     Node 1, Type 0, BuildingBlock: GALJAG_clean_sbu_0, # of connection points: 4
#     Node 2, Type 0, BuildingBlock: GALJAG_clean_sbu_0, # of connection points: 4
#     Node 3, Type 0, BuildingBlock: GALJAG_clean_sbu_0, # of connection points: 4
#     Node 4, Type 0, BuildingBlock: GALJAG_clean_sbu_0, # of connection points: 4
#     Node 5, Type 0, BuildingBlock: GALJAG_clean_sbu_0, # of connection points: 4
#     Node 6, Type 0, BuildingBlock: GALJAG_clean_sbu_0, # of connection points: 4
#     Node 7, Type 0, BuildingBlock: GALJAG_clean_sbu_0, # of connection points: 4
#     Node 8, Type 0, BuildingBlock: GALJAG_clean_sbu_0, # of connection points: 4
#     Node 9, Type 0, BuildingBlock: GALJAG_clean_sbu_0, # of connection points: 4
#     Node 10, Type 0, BuildingBlock: GALJAG_clean_sbu_0, # of connection points: 4
#     Node 11, Type 0, BuildingBlock: GALJAG_clean_sbu_0, # of connection points: 4
#     Node 12, Type 0, BuildingBlock: GALJAG_clean_sbu_0, # of connection points: 4
#     Node 13, Type 0, BuildingBlock: GALJAG_clean_sbu_0, # of connection points: 4
#     Node 14, Type 0, BuildingBlock: GALJAG_clean_sbu_0, # of connection points: 4
#     Node 15, Type 0, BuildingBlock: GALJAG_clean_sbu_0, # of connection points: 4
#     Edge 16, Type (0, 0), BuildingBlock: EZIPEK_clean_linker_0, # of connection points: 2
#     Edge 17, Type (0, 0), BuildingBlock: EZIPEK_clean_linker_0, # of connection points: 2
#     Edge 18, Type (0, 0), BuildingBlock: EZIPEK_clean_linker_0, # of connection points: 2
#     Edge 19, Type (0, 0), BuildingBlock: EZIPEK_clean_linker_0, # of connection points: 2
#     Edge 20, Type (0, 0), BuildingBlock: EZIPEK_clean_linker_0, # of connection points: 2
#     Edge 21, Type (0, 0), BuildingBlock: EZIPEK_clean_linker_0, # of connection points: 2
#     Edge 22, Type (0, 0), BuildingBlock: EZIPEK_clean_linker_0, # of connection points: 2
#     Edge 23, Type (0, 0), BuildingBlock: EZIPEK_clean_linker_0, # of connection points: 2
#     Edge 24, Type (0, 0), BuildingBlock: EZIPEK_clean_linker_0, # of connection points: 2
#     Edge 25, Type (0, 0), BuildingBlock: EZIPEK_clean_linker_0, # of connection points: 2
#     Edge 26, Type (0, 0), BuildingBlock: EZIPEK_clean_linker_0, # of connection points: 2
#     Edge 27, Type (0, 0), BuildingBlock: EZIPEK_clean_linker_0, # of connection points: 2
#     Edge 28, Type (0, 0), BuildingBlock: EZIPEK_clean_linker_0, # of connection points: 2
#     Edge 29, Type (0, 0), BuildingBlock: EZIPEK_clean_linker_0, # of connection points: 2
#     Edge 30, Type (0, 0), BuildingBlock: EZIPEK_clean_linker_0, # of connection points: 2
#     Edge 31, Type (0, 0), BuildingBlock: EZIPEK_clean_linker_0, # of connection points: 2
#     Edge 32, Type (0, 0), BuildingBlock: EZIPEK_clean_linker_0, # of connection points: 2
#     Edge 33, Type (0, 0), BuildingBlock: EZIPEK_clean_linker_0, # of connection points: 2
#     Edge 34, Type (0, 0), BuildingBlock: EZIPEK_clean_linker_0, # of connection points: 2
#     Edge 35, Type (0, 0), BuildingBlock: EZIPEK_clean_linker_0, # of connection points: 2
#     Edge 36, Type (0, 0), BuildingBlock: EZIPEK_clean_linker_0, # of connection points: 2
#     Edge 37, Type (0, 0), BuildingBlock: EZIPEK_clean_linker_0, # of connection points: 2
#     Edge 38, Type (0, 0), BuildingBlock: EZIPEK_clean_linker_0, # of connection points: 2
#     Edge 39, Type (0, 0), BuildingBlock: EZIPEK_clean_linker_0, # of connection points: 2
#     Edge 40, Type (0, 0), BuildingBlock: EZIPEK_clean_linker_0, # of connection points: 2
#     Edge 41, Type (0, 0), BuildingBlock: EZIPEK_clean_linker_0, # of connection points: 2
#     Edge 42, Type (0, 0), BuildingBlock: EZIPEK_clean_linker_0, # of connection points: 2
#     Edge 43, Type (0, 0), BuildingBlock: EZIPEK_clean_linker_0, # of connection points: 2
#     Edge 44, Type (0, 0), BuildingBlock: EZIPEK_clean_linker_0, # of connection points: 2
#     Edge 45, Type (0, 0), BuildingBlock: EZIPEK_clean_linker_0, # of connection points: 2
#     Edge 46, Type (0, 0), BuildingBlock: EZIPEK_clean_linker_0, # of connection points: 2
#     Edge 47, Type (0, 0), BuildingBlock: EZIPEK_clean_linker_0, # of connection points: 2
# Relax obj value: 0.210
# Max RMSD: 0.110
# Mean RMSD: 0.110
data_MOF--net-ukt--node1-GALJAG_clean_sbu_0--edge1-EZIPEK_clean_linker_0
_symmetry_space_group_name_H-M    P1
_symmetry_Int_Tables_number       1
_symmetry_cell_setting            triclinic
loop_
_symmetry_equiv_pos_as_xyz
'x, y, z'
_cell_length_a     31.007247
_cell_length_b     31.021453
_cell_length_c     25.238255
_cell_angle_alpha  89.843597
_cell_angle_beta   90.120747
_cell_angle_gamma 90.310273
loop_
_atom_site_label
_atom_site_type_symbol
_atom_site_fract_x
_atom_site_fract_y
_atom_site_fract_z
_atom_type_partial_charge
In0 In 0.54389 0.11873 0.12395 0.0
O1 O 0.59874 0.07803 0.15814 0.0
O2 O 0.60103 0.09635 0.07664 0.0
C3 C 0.525 0.15972 0.21546 0.0
C4 C 0.4916 0.05344 0.09071 0.0
C5 C 0.55346 0.18889 0.06165 0.0
O6 O 0.56113 0.14317 0.20631 0.0
O7 O 0.49718 0.15417 0.17953 0.0
O8 O 0.51825 0.16837 0.06437 0.0
O9 O 0.5835 0.17394 0.08986 0.0
C10 C 0.61893 0.07715 0.11477 0.0
O11 O 0.49966 0.08693 0.06418 0.0
O12 O 0.50917 0.05354 0.13583 0.0
In13 In 0.31336 0.53281 0.03923 0.0
O14 O 0.33705 0.58555 0.98412 0.0
O15 O 0.34006 0.59802 0.06699 0.0
C16 C 0.26536 0.51736 0.12636 0.0
C17 C 0.38989 0.49215 0.03558 0.0
C18 C 0.25793 0.51779 0.95989 0.0
O19 O 0.26884 0.55409 0.10544 0.0
O20 O 0.28576 0.48786 0.10323 0.0
O21 O 0.26158 0.55393 0.98225 0.0
O22 O 0.28162 0.48833 0.97816 0.0
C23 C 0.34737 0.61136 0.02053 0.0
O24 O 0.35991 0.48573 0.00271 0.0
O25 O 0.3801 0.51811 0.07185 0.0
In26 In 0.93715 0.37571 0.14497 0.0
O27 O 0.8643 0.36895 0.14217 0.0
O28 O 0.89029 0.4319 0.13439 0.0
C29 C 0.96106 0.34907 0.2429 0.0
C30 C 0.98111 0.4353 0.08765 0.0
C31 C 0.92539 0.30166 0.09166 0.0
O32 O 0.9325 0.37722 0.2356 0.0
O33 O 0.98083 0.3382 0.20161 0.0
O34 O 0.962 0.31997 0.09309 0.0
O35 O 0.89594 0.32071 0.11642 0.0
C36 C 0.85728 0.40813 0.13285 0.0
O37 O 0.96885 0.39972 0.06866 0.0
O38 O 0.97439 0.43966 0.13672 0.0
In39 In 0.17638 0.94878 0.00238 0.0
O40 O 0.1262 0.98869 0.95879 0.0
O41 O 0.11046 0.96678 0.03621 0.0
C42 C 0.2365 0.95534 0.92694 0.0
C43 C 0.15184 0.86663 0.98535 0.0
C44 C 0.22194 0.97228 0.08912 0.0
O45 O 0.21098 0.986 0.93606 0.0
O46 O 0.23232 0.92279 0.95646 0.0
O47 O 0.20036 0.93784 0.08652 0.0
O48 O 0.21892 0.99652 0.04906 0.0
C49 C 0.09816 0.98556 0.99453 0.0
O50 O 0.16821 0.87841 0.02882 0.0
O51 O 0.14817 0.89592 0.95104 0.0
In52 In 0.55281 0.3257 0.47621 0.0
O53 O 0.61648 0.34675 0.438 0.0
O54 O 0.61684 0.32844 0.51939 0.0
C55 C 0.53366 0.27548 0.39227 0.0
C56 C 0.52697 0.40772 0.48902 0.0
C57 C 0.52146 0.27462 0.55313 0.0
O58 O 0.56753 0.27098 0.41939 0.0
O59 O 0.50921 0.30556 0.40702 0.0
O60 O 0.49694 0.29242 0.5197 0.0
O61 O 0.56104 0.28299 0.54749 0.0
C62 C 0.63782 0.34262 0.48032 0.0
O63 O 0.52819 0.38102 0.52658 0.0
O64 O 0.53631 0.39264 0.44419 0.0
In65 In 0.13697 0.56914 0.40519 0.0
O66 O 0.079 0.59684 0.36084 0.0
O67 O 0.12055 0.63956 0.40352 0.0
C68 C 0.16928 0.53363 0.31644 0.0
C69 C 0.07513 0.53465 0.46701 0.0
C70 C 0.20972 0.58564 0.46103 0.0
O71 O 0.15863 0.57258 0.31968 0.0
O72 O 0.16212 0.51137 0.35748 0.0
O73 O 0.18723 0.55227 0.46905 0.0
O74 O 0.19508 0.61071 0.42617 0.0
C75 C 0.08684 0.63487 0.37593 0.0
O76 O 0.09128 0.57139 0.47514 0.0
O77 O 0.09173 0.51392 0.42916 0.0
In78 In 0.95187 0.17569 0.50229 0.0
O79 O 0.00169 0.12501 0.52557 0.0
O80 O 0.95732 0.10887 0.46589 0.0
C81 C 0.97577 0.21944 0.59019 0.0
C82 C 0.86744 0.15674 0.51072 0.0
C83 C 0.96245 0.23368 0.42341 0.0
O84 O 0.99657 0.22187 0.5473 0.0
O85 O 0.9435 0.19469 0.58805 0.0
O86 O 0.93209 0.23547 0.45644 0.0
O87 O 0.98804 0.20249 0.42976 0.0
C88 C 0.98826 0.09639 0.49425 0.0
O89 O 0.88408 0.16773 0.46712 0.0
O90 O 0.89309 0.15585 0.54949 0.0
In91 In 0.36545 0.93966 0.36456 0.0
O92 O 0.42315 0.90261 0.33097 0.0
O93 O 0.38245 0.87218 0.38824 0.0
C94 C 0.3307 0.96767 0.2724 0.0
C95 C 0.42264 0.9854 0.42446 0.0
C96 C 0.29075 0.91975 0.41281 0.0
O97 O 0.34659 0.93064 0.27789 0.0
O98 O 0.33478 0.99192 0.31218 0.0
O99 O 0.30536 0.95791 0.41208 0.0
O100 O 0.31408 0.8922 0.39022 0.0
C101 C 0.41565 0.87005 0.35977 0.0
O102 O 0.39166 0.96402 0.4435 0.0
O103 O 0.42317 0.98516 0.3745 0.0
In104 In 0.43691 0.84442 0.89038 0.0
O105 O 0.41466 0.90541 0.84756 0.0
O106 O 0.36867 0.85603 0.86284 0.0
C107 C 0.47936 0.81097 0.80686 0.0
C108 C 0.45987 0.90372 0.96368 0.0
C109 C 0.41571 0.77239 0.94437 0.0
O110 O 0.43933 0.81701 0.80778 0.0
O111 O 0.4994 0.82322 0.84787 0.0
O112 O 0.45426 0.78548 0.94095 0.0
O113 O 0.38825 0.79597 0.92185 0.0
C114 C 0.37587 0.89321 0.84423 0.0
O115 O 0.42675 0.88031 0.96775 0.0
O116 O 0.48332 0.89576 0.92395 0.0
In117 In 0.6362 0.42649 0.94557 0.0
O118 O 0.61374 0.3595 0.91839 0.0
O119 O 0.6104 0.37523 0.00063 0.0
C120 C 0.67993 0.45274 0.85894 0.0
C121 C 0.56035 0.46661 0.95737 0.0
C122 C 0.70254 0.43059 0.01305 0.0
O123 O 0.67113 0.41365 0.868 0.0
O124 O 0.66398 0.47902 0.89138 0.0
O125 O 0.6781 0.46252 0.00583 0.0
O126 O 0.69305 0.3973 0.98697 0.0
C127 C 0.60399 0.34761 0.96489 0.0
O128 O 0.59036 0.46887 0.99115 0.0
O129 O 0.57 0.44563 0.91641 0.0
In130 In 0.06924 0.62579 0.87232 0.0
O131 O 0.09026 0.56014 0.84122 0.0
O132 O 0.13822 0.60739 0.85782 0.0
C133 C 0.03628 0.66516 0.78572 0.0
C134 C 0.03387 0.57333 0.94584 0.0
C135 C 0.09558 0.69701 0.92258 0.0
O136 O 0.07458 0.65225 0.78874 0.0
O137 O 0.01279 0.65495 0.8247 0.0
O138 O 0.05604 0.68844 0.91608 0.0
O139 O 0.12142 0.66872 0.90624 0.0
C140 C 0.12992 0.5692 0.84381 0.0
O141 O 0.06059 0.60261 0.95736 0.0
O142 O 0.02191 0.57291 0.89787 0.0
In143 In 0.84173 0.06592 0.95824 0.0
O144 O 0.89279 0.01999 0.98906 0.0
O145 O 0.90737 0.05615 0.91943 0.0
C146 C 0.77884 0.04868 0.02784 0.0
C147 C 0.86939 0.14229 0.99575 0.0
C148 C 0.79584 0.05095 0.86904 0.0
O149 O 0.80593 0.02034 0.01495 0.0
O150 O 0.78413 0.08515 0.00667 0.0
O151 O 0.81255 0.08721 0.87912 0.0
O152 O 0.80415 0.02165 0.90218 0.0
C153 C 0.92053 0.03067 0.95495 0.0
O154 O 0.85108 0.13915 0.95107 0.0
O155 O 0.87293 0.10738 0.02101 0.0
In156 In 0.45933 0.66679 0.53828 0.0
O157 O 0.4985 0.6173 0.49295 0.0
O158 O 0.47244 0.59863 0.56766 0.0
C159 C 0.46898 0.72722 0.46288 0.0
C160 C 0.3771 0.63983 0.5295 0.0
C161 C 0.48665 0.71095 0.62441 0.0
O162 O 0.43473 0.72209 0.48889 0.0
O163 O 0.49917 0.70176 0.47449 0.0
O164 O 0.44787 0.70946 0.60969 0.0
O165 O 0.51235 0.68962 0.59616 0.0
C166 C 0.49251 0.58767 0.52646 0.0
O167 O 0.40187 0.64387 0.49024 0.0
O168 O 0.39343 0.64962 0.57379 0.0
In169 In 0.86271 0.42562 0.62638 0.0
O170 O 0.9096 0.43763 0.55967 0.0
O171 O 0.90738 0.4848 0.6208 0.0
C172 C 0.80053 0.39855 0.55981 0.0
C173 C 0.91446 0.36222 0.65936 0.0
C174 C 0.80942 0.45799 0.70034 0.0
O175 O 0.82345 0.43137 0.55002 0.0
O176 O 0.81034 0.37856 0.60167 0.0
O177 O 0.83355 0.42618 0.70892 0.0
O178 O 0.81425 0.4758 0.65574 0.0
C179 C 0.92504 0.47192 0.5786 0.0
O180 O 0.88497 0.35683 0.62555 0.0
O181 O 0.91711 0.39954 0.67896 0.0
In182 In 0.04821 0.83801 0.53123 0.0
O183 O 0.0006 0.88932 0.50547 0.0
O184 O 0.03957 0.90281 0.5719 0.0
C185 C 0.03361 0.78037 0.45457 0.0
C186 C 0.12623 0.86595 0.49904 0.0
C187 C 0.03095 0.78784 0.61645 0.0
O188 O 0.00555 0.80806 0.46633 0.0
O189 O 0.06789 0.78181 0.48134 0.0
O190 O 0.06809 0.80248 0.60667 0.0
O191 O 0.00182 0.80007 0.58497 0.0
C192 C 0.01116 0.91647 0.54032 0.0
O193 O 0.12052 0.8496 0.54445 0.0
O194 O 0.09288 0.86817 0.47052 0.0
In195 In 0.62579 0.06883 0.61168 0.0
O196 O 0.56921 0.09707 0.65842 0.0
O197 O 0.5936 0.13074 0.59058 0.0
C198 C 0.6713 0.04709 0.69907 0.0
C199 C 0.57365 0.01693 0.5527 0.0
C200 C 0.69537 0.10094 0.56229 0.0
O201 O 0.65028 0.08159 0.69527 0.0
O202 O 0.66669 0.02146 0.66061 0.0
O203 O 0.68836 0.06086 0.56577 0.0
O204 O 0.66593 0.12454 0.58047 0.0
C205 C 0.56631 0.12904 0.62747 0.0
O206 O 0.60177 0.04181 0.53335 0.0
O207 O 0.574 0.01627 0.6027 0.0
C208 C 0.53459 0.26455 0.03316 0.0
C209 C 0.56024 0.22707 0.02715 0.0
C210 C 0.6112 0.26712 0.97124 0.0
C211 C 0.586 0.30469 0.97802 0.0
N212 N 0.51817 0.33665 0.00161 0.0
N213 N 0.6145 0.18922 0.97767 0.0
C214 C 0.54577 0.30248 0.00447 0.0
C215 C 0.59586 0.22729 0.99195 0.0
N216 N 0.50125 0.26492 0.0685 0.0
N217 N 0.6509 0.26985 0.94796 0.0
H218 H 0.60317 0.1594 0.99109 0.0
H219 H 0.63799 0.18685 0.94841 0.0
H220 H 0.66323 0.29828 0.93179 0.0
H221 H 0.67288 0.24458 0.94788 0.0
H222 H 0.48515 0.29286 0.07948 0.0
H223 H 0.4913 0.23785 0.08975 0.0
H224 H 0.48666 0.33568 0.01578 0.0
H225 H 0.52539 0.36462 0.98023 0.0
C226 C 0.1583 0.50019 0.87819 0.0
C227 C 0.16436 0.53642 0.84492 0.0
C228 C 0.24067 0.53833 0.86755 0.0
C229 C 0.23078 0.51267 0.91244 0.0
N230 N 0.18393 0.46169 0.95605 0.0
N231 N 0.21235 0.57943 0.79281 0.0
C232 C 0.19105 0.49013 0.9156 0.0
C233 C 0.20651 0.55098 0.83353 0.0
N234 N 0.12099 0.47689 0.8748 0.0
N235 N 0.28221 0.55163 0.85945 0.0
H236 H 0.18681 0.58771 0.76773 0.0
H237 H 0.24154 0.59428 0.78359 0.0
H238 H 0.30739 0.54169 0.88409 0.0
H239 H 0.29224 0.57011 0.82728 0.0
H240 H 0.11487 0.44911 0.8968 0.0
H241 H 0.09815 0.4831 0.84537 0.0
H242 H 0.15424 0.44711 0.96349 0.0
H243 H 0.20794 0.45341 0.98317 0.0
C244 C 0.91139 0.21226 0.98925 0.0
C245 C 0.88451 0.18366 0.01865 0.0
C246 C 0.89562 0.22752 0.09776 0.0
C247 C 0.9168 0.25933 0.06685 0.0
N248 N 0.93959 0.28503 0.98094 0.0
N249 N 0.84269 0.17036 0.09786 0.0
C250 C 0.92349 0.25257 0.01192 0.0
C251 C 0.87434 0.19297 0.07216 0.0
N252 N 0.92679 0.20044 0.94076 0.0
N253 N 0.89666 0.2298 0.15183 0.0
H254 H 0.82394 0.1468 0.07934 0.0
H255 H 0.83157 0.17859 0.13542 0.0
H256 H 0.91393 0.25363 0.17199 0.0
H257 H 0.88479 0.20538 0.17631 0.0
H258 H 0.94994 0.21828 0.92024 0.0
H259 H 0.91965 0.17087 0.92322 0.0
H260 H 0.94053 0.28339 0.93973 0.0
H261 H 0.94882 0.31494 0.99603 0.0
C262 C 0.34128 0.96455 0.85428 0.0
C263 C 0.33963 0.92272 0.83253 0.0
C264 C 0.26177 0.92151 0.84439 0.0
C265 C 0.26695 0.95463 0.8824 0.0
N266 N 0.30964 0.01267 0.91868 0.0
N267 N 0.29763 0.86806 0.78963 0.0
C268 C 0.30575 0.97872 0.88473 0.0
C269 C 0.29917 0.90404 0.82054 0.0
N270 N 0.37663 0.98991 0.84618 0.0
N271 N 0.2214 0.9062 0.83327 0.0
H272 H 0.32528 0.85654 0.77089 0.0
H273 H 0.26987 0.84989 0.78287 0.0
H274 H 0.19397 0.9194 0.85071 0.0
H275 H 0.21482 0.88295 0.80471 0.0
H276 H 0.37853 0.02185 0.85869 0.0
H277 H 0.40162 0.98013 0.82137 0.0
H278 H 0.33892 0.02809 0.92642 0.0
H279 H 0.28364 0.02414 0.94059 0.0
C280 C 0.52987 0.2401 0.64057 0.0
C281 C 0.50746 0.24151 0.59174 0.0
C282 C 0.50156 0.1634 0.59049 0.0
C283 C 0.53294 0.16222 0.6312 0.0
N284 N 0.56632 0.19548 0.70641 0.0
N285 N 0.45462 0.20767 0.53567 0.0
C286 C 0.54253 0.19941 0.66112 0.0
C287 C 0.48675 0.20406 0.57235 0.0
N288 N 0.54125 0.27798 0.66429 0.0
N289 N 0.48909 0.12579 0.56681 0.0
H290 H 0.44251 0.23758 0.52422 0.0
H291 H 0.43723 0.18158 0.52082 0.0
H292 H 0.49912 0.09586 0.58124 0.0
H293 H 0.46989 0.12416 0.53301 0.0
H294 H 0.55929 0.28032 0.69895 0.0
H295 H 0.53113 0.30757 0.64889 0.0
H296 H 0.5755 0.22117 0.73037 0.0
H297 H 0.57534 0.16532 0.72106 0.0
C298 C 0.29722 0.65173 0.52696 0.0
C299 C 0.33266 0.6233 0.5233 0.0
C300 C 0.28599 0.56673 0.48681 0.0
C301 C 0.25047 0.59543 0.48955 0.0
N302 N 0.21945 0.65994 0.52584 0.0
N303 N 0.35934 0.55103 0.51428 0.0
C304 C 0.25524 0.63632 0.51404 0.0
C305 C 0.32649 0.57983 0.50794 0.0
N306 N 0.30394 0.69393 0.54026 0.0
N307 N 0.2819 0.52811 0.46132 0.0
H308 H 0.38914 0.55973 0.53044 0.0
H309 H 0.35585 0.51798 0.50848 0.0
H310 H 0.25274 0.51646 0.44659 0.0
H311 H 0.30799 0.50863 0.4518 0.0
H312 H 0.28026 0.7175 0.53736 0.0
H313 H 0.33411 0.70607 0.55119 0.0
H314 H 0.22036 0.68822 0.54795 0.0
H315 H 0.18821 0.64893 0.51804 0.0
C316 C 0.98529 0.32913 0.6399 0.0
C317 C 0.94619 0.328 0.66897 0.0
C318 C 0.95055 0.24984 0.67565 0.0
C319 C 0.98081 0.25108 0.63392 0.0
N320 N 0.04328 0.28757 0.60021 0.0
N321 N 0.89703 0.28978 0.72563 0.0
C322 C 0.00408 0.28949 0.62442 0.0
C323 C 0.93137 0.28904 0.6919 0.0
N324 N 0.00185 0.3677 0.62334 0.0
N325 N 0.93983 0.21112 0.69785 0.0
H326 H 0.88379 0.31879 0.73859 0.0
H327 H 0.88161 0.26231 0.74005 0.0
H328 H 0.95529 0.1828 0.6864 0.0
H329 H 0.91897 0.20757 0.72983 0.0
H330 H 0.02739 0.37074 0.59689 0.0
H331 H 0.9891 0.39698 0.63579 0.0
H332 H 0.06313 0.31425 0.59391 0.0
H333 H 0.05758 0.25802 0.59149 0.0
C334 C 0.19506 0.9092 0.5072 0.0
C335 C 0.16908 0.87931 0.47879 0.0
C336 C 0.2195 0.88237 0.40453 0.0
C337 C 0.24819 0.90787 0.43532 0.0
N338 N 0.26666 0.93905 0.52009 0.0
N339 N 0.16242 0.82922 0.40607 0.0
C340 C 0.23694 0.91964 0.48785 0.0
C341 C 0.18294 0.86354 0.42903 0.0
N342 N 0.17926 0.92894 0.55137 0.0
N343 N 0.22605 0.87745 0.35133 0.0
H344 H 0.13696 0.81282 0.42415 0.0
H345 H 0.17386 0.81398 0.37217 0.0
H346 H 0.25136 0.89227 0.33099 0.0
H347 H 0.20361 0.86267 0.32641 0.0
H348 H 0.19512 0.95429 0.5703 0.0
H349 H 0.14847 0.92284 0.56627 0.0
H350 H 0.2615 0.9442 0.56035 0.0
H351 H 0.298 0.94631 0.50802 0.0
C352 C 0.42061 0.69182 0.953 0.0
C353 C 0.4031 0.73147 0.97054 0.0
C354 C 0.35027 0.69244 0.02493 0.0
C355 C 0.36888 0.65294 0.00876 0.0
N356 N 0.42923 0.61556 0.97044 0.0
N357 N 0.35906 0.76988 0.03305 0.0
C358 C 0.40651 0.65283 0.97697 0.0
C359 C 0.37036 0.73187 0.00973 0.0
N360 N 0.44845 0.69091 0.91112 0.0
N361 N 0.31223 0.69249 0.05221 0.0
H362 H 0.37379 0.79921 0.02349 0.0
H363 H 0.33836 0.77172 0.0654 0.0
H364 H 0.2963 0.66438 0.06389 0.0
H365 H 0.29471 0.72037 0.05965 0.0
H366 H 0.45835 0.66247 0.8931 0.0
H367 H 0.45851 0.71851 0.89102 0.0
H368 H 0.45917 0.61449 0.95185 0.0
H369 H 0.4204 0.58656 0.98856 0.0
C370 C 0.78142 0.42114 0.01694 0.0
C371 C 0.74307 0.4329 0.04335 0.0
C372 C 0.78282 0.43898 0.12709 0.0
C373 C 0.81905 0.42053 0.10199 0.0
N374 N 0.85171 0.38929 0.02385 0.0
N375 N 0.70557 0.45122 0.12381 0.0
C376 C 0.8182 0.4106 0.04708 0.0
C377 C 0.7433 0.44207 0.09845 0.0
N378 N 0.78297 0.42081 0.96276 0.0
N379 N 0.78624 0.45312 0.17814 0.0
H380 H 0.67612 0.45373 0.10406 0.0
H381 H 0.70285 0.4536 0.1648 0.0
H382 H 0.81471 0.45037 0.20002 0.0
H383 H 0.76223 0.47044 0.19728 0.0
H384 H 0.81149 0.41752 0.94143 0.0
H385 H 0.75652 0.42813 0.93892 0.0
H386 H 0.8499 0.37589 0.98609 0.0
H387 H 0.88047 0.38227 0.04315 0.0
C388 C 0.13871 0.76394 0.90767 0.0
C389 C 0.11086 0.73957 0.94086 0.0
C390 C 0.10906 0.79909 0.00444 0.0
C391 C 0.1401 0.82149 0.97339 0.0
N392 N 0.19301 0.81983 0.90343 0.0
N393 N 0.07538 0.73031 0.02511 0.0
C394 C 0.15754 0.80225 0.92741 0.0
C395 C 0.09769 0.75606 0.9906 0.0
N396 N 0.14541 0.75195 0.85623 0.0
N397 N 0.089 0.81941 0.04548 0.0
H398 H 0.06684 0.69854 0.01637 0.0
H399 H 0.06875 0.73914 0.06402 0.0
H400 H 0.09624 0.85094 0.05674 0.0
H401 H 0.06275 0.80625 0.06562 0.0
H402 H 0.16192 0.77125 0.82907 0.0
H403 H 0.13053 0.72527 0.83886 0.0
H404 H 0.20935 0.8048 0.87259 0.0
H405 H 0.209 0.84686 0.91828 0.0
C406 C 0.69853 0.07649 0.13061 0.0
C407 C 0.6614 0.0569 0.10806 0.0
C408 C 0.70579 0.01738 0.04496 0.0
C409 C 0.74215 0.04072 0.06357 0.0
N410 N 0.77686 0.0796 0.13383 0.0
N411 N 0.62995 -0.00049 0.05705 0.0
C412 C 0.73967 0.06575 0.11013 0.0
C413 C 0.6653 0.02389 0.0698 0.0
N414 N 0.69427 0.10757 0.16847 0.0
N415 N 0.70947 0.99148 0.00153 0.0
H416 H 0.60013 0.00393 0.07538 0.0
H417 H 0.63087 0.97283 0.0322 0.0
H418 H 0.73905 0.98485 0.98385 0.0
H419 H 0.6833 0.97776 0.98182 0.0
H420 H 0.71967 0.12683 0.18169 0.0
H421 H 0.66472 0.1155 0.18533 0.0
H422 H 0.77785 0.09548 0.17009 0.0
H423 H 0.80719 0.07142 0.11911 0.0
C424 C 0.4443 0.75566 0.37615 0.0
C425 C 0.47167 0.76013 0.42084 0.0
C426 C 0.47844 0.83754 0.40519 0.0
C427 C 0.44556 0.83383 0.36636 0.0
N428 N 0.40669 0.79114 0.30333 0.0
N429 N 0.52488 0.80102 0.46879 0.0
C430 C 0.43218 0.79314 0.34747 0.0
C431 C 0.49273 0.79971 0.43173 0.0
N432 N 0.42847 0.7158 0.3634 0.0
N433 N 0.4932 0.87755 0.41914 0.0
H434 H 0.53536 0.77348 0.48869 0.0
H435 H 0.54319 0.82833 0.47734 0.0
H436 H 0.48417 0.90532 0.3986 0.0
H437 H 0.51373 0.88361 0.45092 0.0
H438 H 0.40544 0.71011 0.33421 0.0
H439 H 0.43871 0.68789 0.38283 0.0
H440 H 0.3964 0.76265 0.28562 0.0
H441 H 0.39817 0.81888 0.28228 0.0
C442 C 0.75696 0.34176 0.51401 0.0
C443 C 0.76254 0.38581 0.52766 0.0
C444 C 0.69146 0.40203 0.49017 0.0
C445 C 0.68292 0.35725 0.48635 0.0
N446 N 0.70666 0.28374 0.4944 0.0
N447 N 0.73236 0.45754 0.53473 0.0
C448 C 0.71558 0.32685 0.49781 0.0
C449 C 0.7295 0.41616 0.51638 0.0
N450 N 0.79143 0.31449 0.51569 0.0
N451 N 0.66276 0.43114 0.47011 0.0
H452 H 0.75859 0.46958 0.55588 0.0
H453 H 0.70673 0.47908 0.53346 0.0
H454 H 0.63385 0.4222 0.45203 0.0
H455 H 0.66947 0.464 0.467 0.0
H456 H 0.79032 0.28283 0.5021 0.0
H457 H 0.82243 0.32485 0.52585 0.0
H458 H 0.72727 0.25989 0.50848 0.0
H459 H 0.67747 0.27191 0.47957 0.0
C460 C 0.0739 0.71037 0.34974 0.0
C461 C 0.05679 0.6711 0.36909 0.0
C462 C 0.00546 0.7095 0.42438 0.0
C463 C 0.02831 0.74791 0.41276 0.0
N464 N 0.07133 0.78877 0.35179 0.0
N465 N 0.99593 0.63317 0.40573 0.0
C466 C 0.05776 0.74959 0.37022 0.0
C467 C 0.01842 0.67074 0.39935 0.0
N468 N 0.10751 0.70947 0.31494 0.0
N469 N 0.97406 0.70978 0.46221 0.0
H470 H 0.00468 0.60501 0.38621 0.0
H471 H 0.96666 0.63083 0.42565 0.0
H472 H 0.96338 0.73833 0.47943 0.0
H473 H 0.95946 0.68211 0.47736 0.0
H474 H 0.12475 0.73662 0.30284 0.0
H475 H 0.11833 0.68054 0.29868 0.0
H476 H 0.09164 0.79288 0.31938 0.0
H477 H 0.05933 0.81748 0.36735 0.0
C478 C 0.75951 0.14906 0.57729 0.0
C479 C 0.73741 0.11872 0.54484 0.0
C480 C 0.80057 0.11421 0.48698 0.0
C481 C 0.8211 0.14687 0.51741 0.0
N482 N 0.81447 0.20448 0.58083 0.0
N483 N 0.73289 0.08046 0.46188 0.0
C484 C 0.79865 0.16731 0.55903 0.0
C485 C 0.75668 0.10379 0.49742 0.0
N486 N 0.74523 0.1582 0.62723 0.0
N487 N 0.82337 0.09146 0.45028 0.0
H488 H 0.70035 0.07317 0.46768 0.0
H489 H 0.74418 0.07222 0.42442 0.0
H490 H 0.85575 0.09744 0.44188 0.0
H491 H 0.81114 0.06418 0.43138 0.0
H492 H 0.76293 0.17689 0.65387 0.0
H493 H 0.71861 0.14327 0.64461 0.0
H494 H 0.79713 0.22277 0.60796 0.0
H495 H 0.84257 0.21952 0.5673 0.0
C496 C 0.45799 0.98347 0.97802 0.0
C497 C 0.46622 0.94169 0.99859 0.0
C498 C 0.47538 0.97268 0.08774 0.0
C499 C 0.47139 0.01456 0.06536 0.0
N500 N 0.43538 0.05598 0.99812 0.0
N501 N 0.48302 0.89553 0.07257 0.0
C502 C 0.45551 0.01882 0.0131 0.0
C503 C 0.47438 0.93591 0.05363 0.0
N504 N 0.4538 0.98997 0.92475 0.0
N505 N 0.47674 0.96805 0.14155 0.0
H506 H 0.48275 0.86824 0.04849 0.0
H507 H 0.49334 0.88912 0.11101 0.0
H508 H 0.47128 0.99377 0.1671 0.0
H509 H 0.47736 0.93853 0.16112 0.0
H510 H 0.45297 0.02059 0.90769 0.0
H511 H 0.45533 0.96527 0.89708 0.0
H512 H 0.41968 0.05965 0.96184 0.0
H513 H 0.42917 0.0807 0.02498 0.0
C514 C 0.44196 0.45082 0.98073 0.0
C515 C 0.43503 0.47897 0.02383 0.0
C516 C 0.50889 0.50615 0.01546 0.0
C517 C 0.51534 0.47885 0.97125 0.0
N518 N 0.48129 0.4391 0.89996 0.0
N519 N 0.46802 0.51897 0.09521 0.0
C520 C 0.48006 0.45497 0.95034 0.0
C521 C 0.4702 0.5027 0.04508 0.0
N522 N 0.41298 0.41858 0.97056 0.0
N523 N 0.53882 0.5372 0.02711 0.0
H524 H 0.44281 0.51145 0.12091 0.0
H525 H 0.49398 0.53394 0.11405 0.0
H526 H 0.5657 0.54277 0.00317 0.0
H527 H 0.53416 0.56072 0.05589 0.0
H528 H 0.41828 0.3946 0.94251 0.0
H529 H 0.38664 0.4126 0.99527 0.0
H530 H 0.45502 0.42387 0.88207 0.0
H531 H 0.50536 0.44742 0.87307 0.0
C532 C 0.05208 0.51631 0.01391 0.0
C533 C 0.02046 0.53962 0.98454 0.0
C534 C 0.9638 0.49289 0.02073 0.0
C535 C 0.99485 0.47177 0.05318 0.0
N536 N 0.06726 0.46767 0.08725 0.0
N537 N 0.94564 0.55633 0.96937 0.0
C538 C 0.03858 0.48514 0.05215 0.0
C539 C 0.97615 0.52959 0.9905 0.0
N540 N 0.09496 0.52186 0.00303 0.0
N541 N 0.92242 0.47773 0.01826 0.0
H542 H 0.95334 0.58436 0.94844 0.0
H543 H 0.91279 0.55329 0.97715 0.0
H544 H 0.91128 0.45244 0.04157 0.0
H545 H 0.89997 0.48817 0.99034 0.0
H546 H 0.11922 0.50335 0.02005 0.0
H547 H 0.10645 0.54213 0.97321 0.0
H548 H 0.09862 0.47906 0.09227 0.0
H549 H 0.05874 0.44363 0.11432 0.0
C550 C 0.02124 0.96423 0.97848 0.0
C551 C 0.05273 -0.00263 0.98477 0.0
C552 C -0.00246 0.05241 0.97093 0.0
C553 C 0.96653 0.01931 0.96145 0.0
N554 N 0.94963 0.9444 0.9475 0.0
N555 N 0.07294 0.07238 0.97924 0.0
C556 C 0.97857 0.97536 0.96303 0.0
C557 C 0.04152 0.04127 0.9783 0.0
N558 N 0.03212 0.9221 0.98704 0.0
N559 N 0.98468 0.0943 0.97619 0.0
H560 H 0.10515 0.06586 0.98798 0.0
H561 H 0.06765 0.10425 0.96802 0.0
H562 H 0.95287 0.10419 0.97172 0.0
H563 H 0.00485 0.11897 0.98942 0.0
H564 H 0.00967 0.89712 0.98965 0.0
H565 H 0.06352 0.91203 0.99465 0.0
H566 H 0.95747 0.91212 0.94227 0.0
H567 H 0.91833 0.95159 0.93521 0.0
C568 C 0.53535 0.52112 0.54501 0.0
C569 C 0.5029 0.54222 0.51527 0.0
C570 C 0.48423 0.47438 0.47082 0.0
C571 C 0.5187 0.454 0.49776 0.0
N572 N 0.58246 0.45937 0.55265 0.0
N573 N 0.45012 0.54108 0.44452 0.0
C574 C 0.54571 0.47768 0.5329 0.0
C575 C 0.47864 0.51956 0.47629 0.0
N576 N 0.55619 0.54253 0.58494 0.0
N577 N 0.45541 0.45018 0.44234 0.0
H578 H 0.44291 0.57361 0.44896 0.0
H579 H 0.43556 0.52739 0.41134 0.0
H580 H 0.45805 0.41687 0.438 0.0
H581 H 0.42674 0.4623 0.42693 0.0
H582 H 0.57635 0.52741 0.61221 0.0
H583 H 0.55124 0.57509 0.59298 0.0
H584 H 0.60591 0.47648 0.57354 0.0
H585 H 0.59175 0.4279 0.54417 0.0
C586 C 0.03858 0.51483 0.55251 0.0
C587 C 0.03665 0.51945 0.49652 0.0
C588 C 0.95903 0.50372 0.49819 0.0
C589 C 0.96208 0.49383 0.55288 0.0
N590 N 0.0053 0.48631 0.63211 0.0
N591 N 0.99564 0.51589 0.41493 0.0
C592 C 0.00183 0.49899 0.58034 0.0
C593 C -0.00292 0.51305 0.469 0.0
N594 N 0.07567 0.52516 0.57914 0.0
N595 N 0.91929 0.50603 0.47472 0.0
H596 H 0.02159 0.5259 0.39177 0.0
H597 H 0.96925 0.50591 0.39243 0.0
H598 H 0.89066 0.50074 0.49548 0.0
H599 H 0.91423 0.51746 0.4364 0.0
H600 H 0.07734 0.52826 0.62016 0.0
H601 H 0.10451 0.53302 0.56016 0.0
H602 H 0.03454 0.4839 0.65221 0.0
H603 H 0.97931 0.47519 0.65445 0.0
C604 C 0.97128 0.9762 0.49433 0.0
C605 C -0.00065 0.9631 0.53569 0.0
C606 C 0.02807 0.03671 0.54123 0.0
C607 C -0.0 0.04979 0.49981 0.0
N608 N 0.95942 0.02684 0.42311 0.0
N609 N 0.03983 0.98604 0.61249 0.0
C610 C 0.97562 0.01809 0.47231 0.0
C611 C 0.02367 0.99478 0.56329 0.0
N612 N 0.93843 0.94967 0.47854 0.0
N613 N 0.0611 0.06306 0.55687 0.0
H614 H 0.03189 0.95797 0.63318 0.0
H615 H 0.05508 0.00917 0.63592 0.0
H616 H 0.06876 0.09149 0.53675 0.0
H617 H 0.08462 0.05363 0.58402 0.0
H618 H 0.9148 0.95905 0.45152 0.0
H619 H 0.93128 0.9209 0.49824 0.0
H620 H 0.94417 0.00371 0.39968 0.0
H621 H 0.96716 0.05503 0.40255 0.0
C622 C 0.49694 0.98941 0.54335 0.0
C623 C 0.53705 -6e-05 0.51956 0.0
C624 C 0.50045 0.01003 0.43405 0.0
C625 C 0.46015 1e-05 0.45794 0.0
N626 N 0.41965 -0.00179 0.53942 0.0
N627 N 0.57792 0.002 0.43866 0.0
C628 C 0.45824 0.99474 0.51384 0.0
C629 C 0.53907 0.00488 0.46374 0.0
N630 N 0.49579 0.97129 0.59268 0.0
N631 N 0.50189 0.02805 0.38466 0.0
H632 H 0.60615 0.99393 0.45889 0.0
H633 H 0.58105 0.00155 0.39756 0.0
H634 H 0.47436 0.03861 0.36493 0.0
H635 H 0.53035 0.03897 0.36716 0.0
H636 H 0.46747 0.95997 0.61013 0.0
H637 H 0.52358 0.96125 0.61235 0.0
H638 H 0.4169 -0.00178 0.58057 0.0
H639 H 0.39152 0.0076 0.51993 0.0
C640 C 0.51603 0.20237 0.35569 0.0
C641 C 0.52375 0.24702 0.34677 0.0
C642 C 0.52655 0.23487 0.25094 0.0
C643 C 0.51917 0.1902 0.25983 0.0
N644 N 0.4987 0.13223 0.31803 0.0
N645 N 0.52784 0.30743 0.28655 0.0
C646 C 0.5113 0.17421 0.31152 0.0
C647 C 0.52586 0.26383 0.29452 0.0
N648 N 0.51397 0.18693 0.40647 0.0
N649 N 0.53678 0.24922 0.20119 0.0
H650 H 0.52973 0.32965 0.31737 0.0
H651 H 0.52445 0.32194 0.24955 0.0
H652 H 0.53711 0.22918 0.16814 0.0
H653 H 0.54774 0.28027 0.19289 0.0
H654 H 0.51353 0.15431 0.41615 0.0
H655 H 0.51433 0.20697 0.4396 0.0
H656 H 0.48838 0.11931 0.35392 0.0
H657 H 0.49525 0.111 0.28627 0.0
C658 C 0.16945 0.52065 0.21925 0.0
C659 C 0.19102 0.51709 0.26855 0.0
C660 C 0.25827 0.49896 0.22281 0.0
C661 C 0.23846 0.51014 0.17396 0.0
N662 N 0.17508 0.52946 0.12397 0.0
N663 N 0.25601 0.50371 0.31858 0.0
C664 C 0.19382 0.5199 0.17165 0.0
C665 C 0.23521 0.50538 0.2708 0.0
N666 N 0.12551 0.52415 0.21832 0.0
N667 N 0.29939 0.48327 0.2235 0.0
H668 H 0.24024 0.50733 0.35462 0.0
H669 H 0.28931 0.50125 0.3227 0.0
H670 H 0.3182 0.48017 0.1896 0.0
H671 H 0.31383 0.47012 0.25708 0.0
H672 H 0.10709 0.52329 0.18381 0.0
H673 H 0.10701 0.52402 0.25284 0.0
H674 H 0.14446 0.54271 0.12013 0.0
H675 H 0.19096 0.52561 0.08788 0.0
C676 C 0.92685 0.29174 0.29876 0.0
C677 C 0.96154 0.32129 0.29082 0.0
C678 C -0.00281 0.29392 0.37112 0.0
C679 C 0.96387 0.26268 0.37674 0.0
N680 N 0.90224 0.22557 0.3401 0.0
N681 N 0.03213 0.34745 0.31488 0.0
C682 C 0.93006 0.25998 0.33907 0.0
C683 C -0.00245 0.32138 0.32562 0.0
N684 N 0.89062 0.29381 0.2678 0.0
N685 N 0.02748 0.29832 0.41018 0.0
H686 H 0.03248 0.36921 0.28327 0.0
H687 H 0.0613 0.34584 0.33525 0.0
H688 H 0.02832 0.27842 0.44357 0.0
H689 H 0.04995 0.32334 0.41145 0.0
H690 H 0.86222 0.27721 0.27652 0.0
H691 H 0.88749 0.31405 0.23509 0.0
H692 H 0.88011 0.21892 0.31009 0.0
H693 H 0.90406 0.20098 0.36826 0.0
C694 C 0.32292 0.98048 0.17482 0.0
C695 C 0.30377 0.97879 0.22573 0.0
C696 C 0.23209 0.98679 0.18549 0.0
C697 C 0.25066 0.98139 0.13478 0.0
N698 N 0.31358 0.97165 0.07997 0.0
N699 N 0.23978 0.97784 0.28033 0.0
C700 C 0.29615 0.9786 0.12893 0.0
C701 C 0.25828 0.98203 0.23142 0.0
N702 N 0.36671 0.98429 0.17057 0.0
N703 N 0.18935 -0.00314 0.18951 0.0
H704 H 0.25749 0.97497 0.31525 0.0
H705 H 0.20673 0.9742 0.28616 0.0
H706 H 0.1695 0.00069 0.15638 0.0
H707 H 0.17459 0.00543 0.22494 0.0
H708 H 0.38258 0.98996 0.1349 0.0
H709 H 0.38696 0.98576 0.20363 0.0
H710 H 0.34587 0.96418 0.07382 0.0
H711 H 0.29523 0.97079 0.04532 0.0
C712 C 0.49431 0.81007 0.71051 0.0
C713 C 0.49951 0.79001 0.76048 0.0
C714 C 0.51433 0.72088 0.7173 0.0
C715 C 0.50043 0.73918 0.66865 0.0
N716 N 0.48465 0.80165 0.6154 0.0
N717 N 0.52167 0.7292 0.81287 0.0
C718 C 0.49341 0.78422 0.66408 0.0
C719 C 0.5129 0.74645 0.76419 0.0
N720 N 0.48987 0.85387 0.70827 0.0
N721 N 0.52765 0.67895 0.7186 0.0
H722 H 0.52321 0.74794 0.84704 0.0
H723 H 0.52715 0.69667 0.82001 0.0
H724 H 0.5282 0.65951 0.68499 0.0
H725 H 0.54059 0.66389 0.75181 0.0
H726 H 0.48776 0.87167 0.6734 0.0
H727 H 0.49141 0.87299 0.74224 0.0
H728 H 0.47525 0.83337 0.6091 0.0
H729 H 0.48655 0.78379 0.58049 0.0
C730 C 0.78092 0.48844 0.78476 0.0
C731 C 0.7729 0.46764 0.73592 0.0
C732 C 0.69846 0.45232 0.76297 0.0
C733 C 0.70896 0.46575 0.81499 0.0
N734 N 0.75921 0.49918 0.87597 0.0
N735 N 0.72424 0.4304 0.67668 0.0
C736 C 0.7496 0.4855 0.82585 0.0
C737 C 0.73142 0.4505 0.72406 0.0
N738 N 0.8185 0.51104 0.79144 0.0
N739 N 0.65668 0.44193 0.75089 0.0
H740 H 0.74697 0.42981 0.6464 0.0
H741 H 0.69664 0.41244 0.66815 0.0
H742 H 0.63187 0.44375 0.77869 0.0
H743 H 0.6458 0.43566 0.71262 0.0
H744 H 0.82512 0.53035 0.82414 0.0
H745 H 0.84176 0.51343 0.76172 0.0
H746 H 0.78995 0.50846 0.88815 0.0
H747 H 0.7369 0.4994 0.90672 0.0
C748 C 0.02271 0.77091 0.71304 0.0
C749 C 0.02311 0.75648 0.65983 0.0
C750 C 0.02229 0.68106 0.68985 0.0
C751 C 0.02311 0.69548 0.74312 0.0
N752 N 0.0151 0.75319 0.80629 0.0
N753 N 0.01527 0.69899 0.59638 0.0
C754 C 0.02006 0.74016 0.75495 0.0
C755 C 0.01997 0.71183 0.64789 0.0
N756 N 0.02644 0.81405 0.72338 0.0
N757 N 0.02525 0.6379 0.67961 0.0
H758 H 0.01512 0.72056 0.56463 0.0
H759 H 0.00876 0.66741 0.58499 0.0
H760 H 0.0243 0.61461 0.70953 0.0
H761 H 0.03009 0.62503 0.64208 0.0
H762 H 0.03193 0.82675 0.76092 0.0
H763 H 0.02613 0.8375 0.69365 0.0
H764 H 0.00869 0.78478 0.81735 0.0
H765 H 0.0139 0.73186 0.83815 0.0
C766 C 0.68938 0.03716 0.79501 0.0
C767 C 0.70358 0.04083 0.74189 0.0
C768 C 0.77896 0.04318 0.77235 0.0
C769 C 0.76437 0.04483 0.8254 0.0
N770 N 0.70577 0.04808 0.88803 0.0
N771 N 0.7616 0.05194 0.67941 0.0
C772 C 0.71958 0.04267 0.83705 0.0
C773 C 0.74836 0.04459 0.73028 0.0
N774 N 0.64705 0.02781 0.80511 0.0
N775 N 0.8221 0.03962 0.76226 0.0
H776 H 0.74059 0.05229 0.64722 0.0
H777 H 0.79301 0.06067 0.66938 0.0
H778 H 0.84533 0.03903 0.79224 0.0
H779 H 0.83461 0.03362 0.72476 0.0
H780 H 0.63527 0.02045 0.84267 0.0
H781 H 0.62429 0.02356 0.77501 0.0
H782 H 0.67351 0.05154 0.89843 0.0
H783 H 0.72681 0.05251 0.91984 0.0
loop_
_geom_bond_atom_site_label_1
_geom_bond_atom_site_label_2
_geom_bond_distance
_geom_bond_site_symmetry_2
_ccdc_geom_bond_type
In0 O1 2.294 . S
In0 O2 2.326 1_554 S
In0 O6 2.266 . S
In0 O7 2.326 . S
In0 O8 2.266 . S
In0 O9 2.326 . S
In0 O11 2.294 . S
In0 O12 2.326 . S
O1 In0 2.294 . S
O1 C10 1.240 . S
O2 In0 2.326 1_556 S
O2 C10 1.252 1_556 S
C3 O6 1.252 . S
C3 O7 1.260 . S
C4 O11 1.240 . S
C4 O12 1.252 . S
C5 O8 1.252 . S
C5 O9 1.260 . S
O6 In0 2.266 . S
O6 C3 1.252 . S
O7 In0 2.326 . S
O7 C3 1.260 . S
O8 In0 2.266 . S
O8 C5 1.252 . S
O9 In0 2.326 . S
O9 C5 1.260 . S
C10 O1 1.240 . S
C10 O2 1.252 1_554 S
O11 In0 2.294 . S
O11 C4 1.240 . S
O12 In0 2.326 . S
O12 C4 1.252 . S
In13 O14 2.294 . S
In13 O15 2.326 1_554 S
In13 O19 2.266 . S
In13 O20 2.326 . S
In13 O21 2.266 . S
In13 O22 2.326 . S
In13 O24 2.294 . S
In13 O25 2.326 . S
O14 In13 2.294 . S
O14 C23 1.240 . S
O15 In13 2.326 1_556 S
O15 C23 1.252 1_556 S
C16 O19 1.252 . S
C16 O20 1.260 . S
C17 O24 1.240 . S
C17 O25 1.252 . S
C18 O21 1.252 . S
C18 O22 1.260 . S
O19 In13 2.266 . S
O19 C16 1.252 . S
O20 In13 2.326 . S
O20 C16 1.260 . S
O21 In13 2.266 . S
O21 C18 1.252 . S
O22 In13 2.326 . S
O22 C18 1.260 . S
C23 O14 1.240 . S
C23 O15 1.252 1_554 S
O24 In13 2.294 . S
O24 C17 1.240 . S
O25 In13 2.326 . S
O25 C17 1.252 . S
In26 O27 2.294 . S
In26 O28 2.326 1_554 S
In26 O32 2.266 . S
In26 O33 2.326 1_655 S
In26 O34 2.266 . S
In26 O35 2.326 . S
In26 O37 2.294 1_655 S
In26 O38 2.326 . S
O27 In26 2.294 . S
O27 C36 1.240 . S
O28 In26 2.326 1_556 S
O28 C36 1.252 1_556 S
C29 O32 1.252 . S
C29 O33 1.260 1_655 S
C30 O37 1.240 . S
C30 O38 1.252 1_455 S
C31 O34 1.252 . S
C31 O35 1.260 . S
O32 In26 2.266 . S
O32 C29 1.252 . S
O33 In26 2.326 1_455 S
O33 C29 1.260 1_455 S
O34 In26 2.266 . S
O34 C31 1.252 . S
O35 In26 2.326 . S
O35 C31 1.260 . S
C36 O27 1.240 . S
C36 O28 1.252 1_554 S
O37 In26 2.294 1_455 S
O37 C30 1.240 . S
O38 In26 2.326 . S
O38 C30 1.252 1_655 S
In39 O40 2.294 1_565 S
In39 O41 2.326 . S
In39 O45 2.266 . S
In39 O46 2.326 . S
In39 O47 2.266 . S
In39 O48 2.326 1_565 S
In39 O50 2.294 . S
In39 O51 2.326 1_554 S
O40 In39 2.294 1_545 S
O40 C49 1.240 . S
O41 In39 2.326 . S
O41 C49 1.252 1_565 S
C42 O45 1.252 . S
C42 O46 1.260 . S
C43 O50 1.240 . S
C43 O51 1.252 1_554 S
C44 O47 1.252 . S
C44 O48 1.260 1_565 S
O45 In39 2.266 . S
O45 C42 1.252 . S
O46 In39 2.326 . S
O46 C42 1.260 . S
O47 In39 2.266 . S
O47 C44 1.252 . S
O48 In39 2.326 1_545 S
O48 C44 1.260 1_545 S
C49 O40 1.240 . S
C49 O41 1.252 1_545 S
O50 In39 2.294 . S
O50 C43 1.240 . S
O51 In39 2.326 1_556 S
O51 C43 1.252 1_556 S
In52 O53 2.294 . S
In52 O54 2.326 . S
In52 O58 2.266 . S
In52 O59 2.326 . S
In52 O60 2.266 . S
In52 O61 2.326 . S
In52 O63 2.294 . S
In52 O64 2.326 . S
O53 In52 2.294 . S
O53 C62 1.240 . S
O54 In52 2.326 . S
O54 C62 1.252 . S
C55 O58 1.252 . S
C55 O59 1.260 . S
C56 O63 1.240 . S
C56 O64 1.252 . S
C57 O60 1.252 . S
C57 O61 1.260 . S
O58 In52 2.266 . S
O58 C55 1.252 . S
O59 In52 2.326 . S
O59 C55 1.260 . S
O60 In52 2.266 . S
O60 C57 1.252 . S
O61 In52 2.326 . S
O61 C57 1.260 . S
C62 O53 1.240 . S
C62 O54 1.252 . S
O63 In52 2.294 . S
O63 C56 1.240 . S
O64 In52 2.326 . S
O64 C56 1.252 . S
In65 O66 2.294 . S
In65 O67 2.326 . S
In65 O71 2.266 . S
In65 O72 2.326 . S
In65 O73 2.266 . S
In65 O74 2.326 . S
In65 O76 2.294 . S
In65 O77 2.326 . S
O66 In65 2.294 . S
O66 C75 1.240 . S
O67 In65 2.326 . S
O67 C75 1.252 . S
C68 O71 1.252 . S
C68 O72 1.260 . S
C69 O76 1.240 . S
C69 O77 1.252 . S
C70 O73 1.252 . S
C70 O74 1.260 . S
O71 In65 2.266 . S
O71 C68 1.252 . S
O72 In65 2.326 . S
O72 C68 1.260 . S
O73 In65 2.266 . S
O73 C70 1.252 . S
O74 In65 2.326 . S
O74 C70 1.260 . S
C75 O66 1.240 . S
C75 O67 1.252 . S
O76 In65 2.294 . S
O76 C69 1.240 . S
O77 In65 2.326 . S
O77 C69 1.252 . S
In78 O79 2.294 1_655 S
In78 O80 2.326 . S
In78 O84 2.266 . S
In78 O85 2.326 . S
In78 O86 2.266 . S
In78 O87 2.326 1_655 S
In78 O89 2.294 . S
In78 O90 2.326 . S
O79 In78 2.294 1_455 S
O79 C88 1.240 . S
O80 In78 2.326 . S
O80 C88 1.252 1_655 S
C81 O84 1.252 . S
C81 O85 1.260 . S
C82 O89 1.240 . S
C82 O90 1.252 . S
C83 O86 1.252 . S
C83 O87 1.260 1_655 S
O84 In78 2.266 . S
O84 C81 1.252 . S
O85 In78 2.326 . S
O85 C81 1.260 . S
O86 In78 2.266 . S
O86 C83 1.252 . S
O87 In78 2.326 1_455 S
O87 C83 1.260 1_455 S
C88 O79 1.240 . S
C88 O80 1.252 1_455 S
O89 In78 2.294 . S
O89 C82 1.240 . S
O90 In78 2.326 . S
O90 C82 1.252 . S
In91 O92 2.294 . S
In91 O93 2.326 . S
In91 O97 2.266 . S
In91 O98 2.326 1_565 S
In91 O99 2.266 . S
In91 O100 2.326 . S
In91 O102 2.294 1_565 S
In91 O103 2.326 . S
O92 In91 2.294 . S
O92 C101 1.240 . S
O93 In91 2.326 . S
O93 C101 1.252 . S
C94 O97 1.252 . S
C94 O98 1.260 1_565 S
C95 O102 1.240 . S
C95 O103 1.252 1_545 S
C96 O99 1.252 . S
C96 O100 1.260 . S
O97 In91 2.266 . S
O97 C94 1.252 . S
O98 In91 2.326 1_545 S
O98 C94 1.260 1_545 S
O99 In91 2.266 . S
O99 C96 1.252 . S
O100 In91 2.326 . S
O100 C96 1.260 . S
C101 O92 1.240 . S
C101 O93 1.252 . S
O102 In91 2.294 1_545 S
O102 C95 1.240 . S
O103 In91 2.326 . S
O103 C95 1.252 1_565 S
In104 O105 2.294 . S
In104 O106 2.326 1_556 S
In104 O110 2.266 . S
In104 O111 2.326 . S
In104 O112 2.266 . S
In104 O113 2.326 . S
In104 O115 2.294 . S
In104 O116 2.326 . S
O105 In104 2.294 . S
O105 C114 1.240 . S
O106 In104 2.326 1_554 S
O106 C114 1.252 1_554 S
C107 O110 1.252 . S
C107 O111 1.260 . S
C108 O115 1.240 . S
C108 O116 1.252 . S
C109 O112 1.252 . S
C109 O113 1.260 . S
O110 In104 2.266 . S
O110 C107 1.252 . S
O111 In104 2.326 . S
O111 C107 1.260 . S
O112 In104 2.266 . S
O112 C109 1.252 . S
O113 In104 2.326 . S
O113 C109 1.260 . S
C114 O105 1.240 . S
C114 O106 1.252 1_556 S
O115 In104 2.294 . S
O115 C108 1.240 . S
O116 In104 2.326 . S
O116 C108 1.252 . S
In117 O118 2.294 . S
In117 O119 2.326 1_556 S
In117 O123 2.266 . S
In117 O124 2.326 . S
In117 O125 2.266 . S
In117 O126 2.326 . S
In117 O128 2.294 . S
In117 O129 2.326 . S
O118 In117 2.294 . S
O118 C127 1.240 . S
O119 In117 2.326 1_554 S
O119 C127 1.252 1_554 S
C120 O123 1.252 . S
C120 O124 1.260 . S
C121 O128 1.240 . S
C121 O129 1.252 . S
C122 O125 1.252 . S
C122 O126 1.260 . S
O123 In117 2.266 . S
O123 C120 1.252 . S
O124 In117 2.326 . S
O124 C120 1.260 . S
O125 In117 2.266 . S
O125 C122 1.252 . S
O126 In117 2.326 . S
O126 C122 1.260 . S
C127 O118 1.240 . S
C127 O119 1.252 1_556 S
O128 In117 2.294 . S
O128 C121 1.240 . S
O129 In117 2.326 . S
O129 C121 1.252 . S
In130 O131 2.294 . S
In130 O132 2.326 1_556 S
In130 O136 2.266 . S
In130 O137 2.326 1_455 S
In130 O138 2.266 . S
In130 O139 2.326 . S
In130 O141 2.294 1_455 S
In130 O142 2.326 . S
O131 In130 2.294 . S
O131 C140 1.240 . S
O132 In130 2.326 1_554 S
O132 C140 1.252 1_554 S
C133 O136 1.252 . S
C133 O137 1.260 1_455 S
C134 O141 1.240 . S
C134 O142 1.252 1_655 S
C135 O138 1.252 . S
C135 O139 1.260 . S
O136 In130 2.266 . S
O136 C133 1.252 . S
O137 In130 2.326 1_655 S
O137 C133 1.260 1_655 S
O138 In130 2.266 . S
O138 C135 1.252 . S
O139 In130 2.326 . S
O139 C135 1.260 . S
C140 O131 1.240 . S
C140 O132 1.252 1_556 S
O141 In130 2.294 1_655 S
O141 C134 1.240 . S
O142 In130 2.326 . S
O142 C134 1.252 1_455 S
In143 O144 2.294 1_545 S
In143 O145 2.326 . S
In143 O149 2.266 . S
In143 O150 2.326 . S
In143 O151 2.266 . S
In143 O152 2.326 1_545 S
In143 O154 2.294 . S
In143 O155 2.326 1_556 S
O144 In143 2.294 1_565 S
O144 C153 1.240 . S
O145 In143 2.326 . S
O145 C153 1.252 1_545 S
C146 O149 1.252 . S
C146 O150 1.260 . S
C147 O154 1.240 . S
C147 O155 1.252 1_556 S
C148 O151 1.252 . S
C148 O152 1.260 1_545 S
O149 In143 2.266 . S
O149 C146 1.252 . S
O150 In143 2.326 . S
O150 C146 1.260 . S
O151 In143 2.266 . S
O151 C148 1.252 . S
O152 In143 2.326 1_565 S
O152 C148 1.260 1_565 S
C153 O144 1.240 . S
C153 O145 1.252 1_565 S
O154 In143 2.294 . S
O154 C147 1.240 . S
O155 In143 2.326 1_554 S
O155 C147 1.252 1_554 S
In156 O157 2.294 . S
In156 O158 2.326 . S
In156 O162 2.266 . S
In156 O163 2.326 . S
In156 O164 2.266 . S
In156 O165 2.326 . S
In156 O167 2.294 . S
In156 O168 2.326 . S
O157 In156 2.294 . S
O157 C166 1.240 . S
O158 In156 2.326 . S
O158 C166 1.252 . S
C159 O162 1.252 . S
C159 O163 1.260 . S
C160 O167 1.240 . S
C160 O168 1.252 . S
C161 O164 1.252 . S
C161 O165 1.260 . S
O162 In156 2.266 . S
O162 C159 1.252 . S
O163 In156 2.326 . S
O163 C159 1.260 . S
O164 In156 2.266 . S
O164 C161 1.252 . S
O165 In156 2.326 . S
O165 C161 1.260 . S
C166 O157 1.240 . S
C166 O158 1.252 . S
O167 In156 2.294 . S
O167 C160 1.240 . S
O168 In156 2.326 . S
O168 C160 1.252 . S
In169 O170 2.294 . S
In169 O171 2.326 . S
In169 O175 2.266 . S
In169 O176 2.326 . S
In169 O177 2.266 . S
In169 O178 2.326 . S
In169 O180 2.294 . S
In169 O181 2.326 . S
O170 In169 2.294 . S
O170 C179 1.240 . S
O171 In169 2.326 . S
O171 C179 1.252 . S
C172 O175 1.252 . S
C172 O176 1.260 . S
C173 O180 1.240 . S
C173 O181 1.252 . S
C174 O177 1.252 . S
C174 O178 1.260 . S
O175 In169 2.266 . S
O175 C172 1.252 . S
O176 In169 2.326 . S
O176 C172 1.260 . S
O177 In169 2.266 . S
O177 C174 1.252 . S
O178 In169 2.326 . S
O178 C174 1.260 . S
C179 O170 1.240 . S
C179 O171 1.252 . S
O180 In169 2.294 . S
O180 C173 1.240 . S
O181 In169 2.326 . S
O181 C173 1.252 . S
In182 O183 2.294 1_455 S
In182 O184 2.326 . S
In182 O188 2.266 . S
In182 O189 2.326 . S
In182 O190 2.266 . S
In182 O191 2.326 1_455 S
In182 O193 2.294 . S
In182 O194 2.326 . S
O183 In182 2.294 1_655 S
O183 C192 1.240 . S
O184 In182 2.326 . S
O184 C192 1.252 1_455 S
C185 O188 1.252 . S
C185 O189 1.260 . S
C186 O193 1.240 . S
C186 O194 1.252 . S
C187 O190 1.252 . S
C187 O191 1.260 1_455 S
O188 In182 2.266 . S
O188 C185 1.252 . S
O189 In182 2.326 . S
O189 C185 1.260 . S
O190 In182 2.266 . S
O190 C187 1.252 . S
O191 In182 2.326 1_655 S
O191 C187 1.260 1_655 S
C192 O183 1.240 . S
C192 O184 1.252 1_655 S
O193 In182 2.294 . S
O193 C186 1.240 . S
O194 In182 2.326 . S
O194 C186 1.252 . S
In195 O196 2.294 . S
In195 O197 2.326 . S
In195 O201 2.266 . S
In195 O202 2.326 1_545 S
In195 O203 2.266 . S
In195 O204 2.326 . S
In195 O206 2.294 1_545 S
In195 O207 2.326 . S
O196 In195 2.294 . S
O196 C205 1.240 . S
O197 In195 2.326 . S
O197 C205 1.252 . S
C198 O201 1.252 . S
C198 O202 1.260 1_545 S
C199 O206 1.240 . S
C199 O207 1.252 1_565 S
C200 O203 1.252 . S
C200 O204 1.260 . S
O201 In195 2.266 . S
O201 C198 1.252 . S
O202 In195 2.326 1_565 S
O202 C198 1.260 1_565 S
O203 In195 2.266 . S
O203 C200 1.252 . S
O204 In195 2.326 . S
O204 C200 1.260 . S
C205 O196 1.240 . S
C205 O197 1.252 . S
O206 In195 2.294 1_565 S
O206 C199 1.240 . S
O207 In195 2.326 . S
O207 C199 1.252 1_545 S
C208 C209 1.363 . S
C208 C214 1.379 . S
C208 N216 1.356 . S
C209 C208 1.363 . S
C209 C215 1.363 1_554 S
C210 C211 1.363 . S
C210 C215 1.379 . S
C210 N217 1.356 . S
C211 C210 1.363 . S
C211 C214 1.363 1_556 S
N212 C214 1.356 . S
N212 H224 0.984 . S
N212 H225 0.985 . S
N213 C215 1.356 . S
N213 H218 0.984 . S
N213 H219 0.985 . S
C214 C208 1.379 . S
C214 C211 1.363 1_554 S
C214 N212 1.356 . S
C215 C209 1.363 1_556 S
C215 C210 1.379 . S
C215 N213 1.356 . S
N216 C208 1.356 . S
N216 H222 0.984 . S
N216 H223 0.984 . S
N217 C210 1.356 . S
N217 H220 0.984 . S
N217 H221 0.985 . S
H218 N213 0.984 . S
H219 N213 0.985 . S
H220 N217 0.984 . S
H221 N217 0.985 . S
H222 N216 0.984 . S
H223 N216 0.984 . S
H224 N212 0.984 . S
H225 N212 0.985 . S
C226 C227 1.363 . S
C226 C232 1.379 . S
C226 N234 1.356 . S
C227 C226 1.363 . S
C227 C233 1.363 1_556 S
C228 C229 1.363 . S
C228 C233 1.379 . S
C228 N235 1.356 . S
C229 C228 1.363 . S
C229 C232 1.363 1_554 S
N230 C232 1.356 . S
N230 H242 0.984 . S
N230 H243 0.985 . S
N231 C233 1.356 . S
N231 H236 0.984 . S
N231 H237 0.985 . S
C232 C226 1.379 . S
C232 C229 1.363 1_556 S
C232 N230 1.356 . S
C233 C227 1.363 1_554 S
C233 C228 1.379 . S
C233 N231 1.356 . S
N234 C226 1.356 . S
N234 H240 0.984 . S
N234 H241 0.984 . S
N235 C228 1.356 . S
N235 H238 0.984 . S
N235 H239 0.985 . S
H236 N231 0.984 . S
H237 N231 0.985 . S
H238 N235 0.984 . S
H239 N235 0.985 . S
H240 N234 0.984 . S
H241 N234 0.984 . S
H242 N230 0.984 . S
H243 N230 0.985 . S
C244 C245 1.363 . S
C244 C250 1.379 . S
C244 N252 1.356 . S
C245 C244 1.363 . S
C245 C251 1.363 1_556 S
C246 C247 1.363 . S
C246 C251 1.379 . S
C246 N253 1.356 . S
C247 C246 1.363 . S
C247 C250 1.363 1_554 S
N248 C250 1.356 . S
N248 H260 0.984 . S
N248 H261 0.985 . S
N249 C251 1.356 . S
N249 H254 0.984 . S
N249 H255 0.985 . S
C250 C244 1.379 . S
C250 C247 1.363 1_556 S
C250 N248 1.356 . S
C251 C245 1.363 1_554 S
C251 C246 1.379 . S
C251 N249 1.356 . S
N252 C244 1.356 . S
N252 H258 0.984 . S
N252 H259 0.984 . S
N253 C246 1.356 . S
N253 H256 0.984 . S
N253 H257 0.985 . S
H254 N249 0.984 . S
H255 N249 0.985 . S
H256 N253 0.984 . S
H257 N253 0.985 . S
H258 N252 0.984 . S
H259 N252 0.984 . S
H260 N248 0.984 . S
H261 N248 0.985 . S
C262 C263 1.365 . S
C262 C268 1.377 1_556 S
C262 N270 1.357 . S
C263 C262 1.365 . S
C263 C269 1.363 . S
C264 C265 1.363 1_556 S
C264 C269 1.379 . S
C264 N271 1.356 1_556 S
C265 C264 1.363 1_554 S
C265 C268 1.363 . S
N266 C268 1.356 1_545 S
N266 H278 0.984 . S
N266 H279 0.985 . S
N267 C269 1.356 . S
N267 H272 0.984 . S
N267 H273 0.985 . S
C268 C262 1.377 1_554 S
C268 C265 1.363 . S
C268 N266 1.356 1_565 S
C269 C263 1.363 . S
C269 C264 1.379 . S
C269 N267 1.356 . S
N270 C262 1.357 . S
N270 H276 0.985 . S
N270 H277 0.984 . S
N271 C264 1.356 1_554 S
N271 H274 0.984 . S
N271 H275 0.985 1_554 S
H272 N267 0.984 . S
H273 N267 0.985 . S
H274 N271 0.984 . S
H275 N271 0.985 1_556 S
H276 N270 0.985 . S
H277 N270 0.984 . S
H278 N266 0.984 . S
H279 N266 0.985 . S
C280 C281 1.363 . S
C280 C286 1.379 . S
C280 N288 1.356 . S
C281 C280 1.363 . S
C281 C287 1.363 . S
C282 C283 1.363 . S
C282 C287 1.379 . S
C282 N289 1.356 . S
C283 C282 1.363 . S
C283 C286 1.363 . S
N284 C286 1.356 . S
N284 H296 0.984 . S
N284 H297 0.985 . S
N285 C287 1.356 . S
N285 H290 0.984 . S
N285 H291 0.985 . S
C286 C280 1.379 . S
C286 C283 1.363 . S
C286 N284 1.356 . S
C287 C281 1.363 . S
C287 C282 1.379 . S
C287 N285 1.356 . S
N288 C280 1.356 . S
N288 H294 0.984 . S
N288 H295 0.984 . S
N289 C282 1.356 . S
N289 H292 0.984 . S
N289 H293 0.985 . S
H290 N285 0.984 . S
H291 N285 0.985 . S
H292 N289 0.984 . S
H293 N289 0.985 . S
H294 N288 0.984 . S
H295 N288 0.984 . S
H296 N284 0.984 . S
H297 N284 0.985 . S
C298 C299 1.363 . S
C298 C304 1.379 . S
C298 N306 1.356 . S
C299 C298 1.363 . S
C299 C305 1.363 . S
C300 C301 1.363 . S
C300 C305 1.379 . S
C300 N307 1.356 . S
C301 C300 1.363 . S
C301 C304 1.363 . S
N302 C304 1.356 . S
N302 H314 0.984 . S
N302 H315 0.985 . S
N303 C305 1.356 . S
N303 H308 0.984 . S
N303 H309 0.985 . S
C304 C298 1.379 . S
C304 C301 1.363 . S
C304 N302 1.356 . S
C305 C299 1.363 . S
C305 C300 1.379 . S
C305 N303 1.356 . S
N306 C298 1.356 . S
N306 H312 0.984 . S
N306 H313 0.984 . S
N307 C300 1.356 . S
N307 H310 0.984 . S
N307 H311 0.985 . S
H308 N303 0.984 . S
H309 N303 0.985 . S
H310 N307 0.984 . S
H311 N307 0.985 . S
H312 N306 0.984 . S
H313 N306 0.984 . S
H314 N302 0.984 . S
H315 N302 0.985 . S
C316 C317 1.363 . S
C316 C322 1.379 . S
C316 N324 1.356 . S
C317 C316 1.363 . S
C317 C323 1.363 . S
C318 C319 1.363 . S
C318 C323 1.379 . S
C318 N325 1.356 . S
C319 C318 1.363 . S
C319 C322 1.363 . S
N320 C322 1.356 . S
N320 H332 0.984 . S
N320 H333 0.985 . S
N321 C323 1.356 . S
N321 H326 0.984 . S
N321 H327 0.985 . S
C322 C316 1.379 . S
C322 C319 1.363 . S
C322 N320 1.356 . S
C323 C317 1.363 . S
C323 C318 1.379 . S
C323 N321 1.356 . S
N324 C316 1.356 . S
N324 H330 0.984 . S
N324 H331 0.984 . S
N325 C318 1.356 . S
N325 H328 0.984 1_655 S
N325 H329 0.985 1_655 S
H326 N321 0.984 . S
H327 N321 0.985 . S
H328 N325 0.984 1_455 S
H329 N325 0.985 1_455 S
H330 N324 0.984 . S
H331 N324 0.984 . S
H332 N320 0.984 . S
H333 N320 0.985 . S
C334 C335 1.363 . S
C334 C340 1.379 . S
C334 N342 1.356 . S
C335 C334 1.363 . S
C335 C341 1.363 . S
C336 C337 1.363 . S
C336 C341 1.379 . S
C336 N343 1.356 . S
C337 C336 1.363 . S
C337 C340 1.363 . S
N338 C340 1.356 . S
N338 H350 0.984 1_565 S
N338 H351 0.985 1_565 S
N339 C341 1.356 . S
N339 H344 0.984 . S
N339 H345 0.985 . S
C340 C334 1.379 . S
C340 C337 1.363 . S
C340 N338 1.356 . S
C341 C335 1.363 . S
C341 C336 1.379 . S
C341 N339 1.356 . S
N342 C334 1.356 . S
N342 H348 0.984 . S
N342 H349 0.984 . S
N343 C336 1.356 . S
N343 H346 0.984 . S
N343 H347 0.985 . S
H344 N339 0.984 . S
H345 N339 0.985 . S
H346 N343 0.984 . S
H347 N343 0.985 . S
H348 N342 0.984 . S
H349 N342 0.984 . S
H350 N338 0.984 1_545 S
H351 N338 0.985 1_545 S
C352 C353 1.363 . S
C352 C358 1.379 . S
C352 N360 1.356 . S
C353 C352 1.363 . S
C353 C359 1.363 1_556 S
C354 C355 1.363 . S
C354 C359 1.379 . S
C354 N361 1.356 . S
C355 C354 1.363 . S
C355 C358 1.363 1_554 S
N356 C358 1.356 . S
N356 H368 0.984 . S
N356 H369 0.985 . S
N357 C359 1.356 . S
N357 H362 0.984 . S
N357 H363 0.985 . S
C358 C352 1.379 . S
C358 C355 1.363 1_556 S
C358 N356 1.356 . S
C359 C353 1.363 1_554 S
C359 C354 1.379 . S
C359 N357 1.356 . S
N360 C352 1.356 . S
N360 H366 0.984 . S
N360 H367 0.984 . S
N361 C354 1.356 . S
N361 H364 0.984 . S
N361 H365 0.985 . S
H362 N357 0.984 . S
H363 N357 0.985 . S
H364 N361 0.984 . S
H365 N361 0.985 . S
H366 N360 0.984 . S
H367 N360 0.984 . S
H368 N356 0.984 . S
H369 N356 0.985 . S
C370 C371 1.363 . S
C370 C376 1.379 . S
C370 N378 1.356 . S
C371 C370 1.363 . S
C371 C377 1.363 1_556 S
C372 C373 1.363 . S
C372 C377 1.379 . S
C372 N379 1.356 . S
C373 C372 1.363 . S
C373 C376 1.363 1_554 S
N374 C376 1.356 . S
N374 H386 0.984 . S
N374 H387 0.985 . S
N375 C377 1.356 . S
N375 H380 0.984 . S
N375 H381 0.985 . S
C376 C370 1.379 . S
C376 C373 1.363 1_556 S
C376 N374 1.356 . S
C377 C371 1.363 1_554 S
C377 C372 1.379 . S
C377 N375 1.356 . S
N378 C370 1.356 . S
N378 H384 0.984 . S
N378 H385 0.984 . S
N379 C372 1.356 . S
N379 H382 0.984 . S
N379 H383 0.985 . S
H380 N375 0.984 . S
H381 N375 0.985 . S
H382 N379 0.984 . S
H383 N379 0.985 . S
H384 N378 0.984 . S
H385 N378 0.984 . S
H386 N374 0.984 . S
H387 N374 0.985 . S
C388 C389 1.363 . S
C388 C394 1.379 . S
C388 N396 1.356 . S
C389 C388 1.363 . S
C389 C395 1.363 1_556 S
C390 C391 1.363 . S
C390 C395 1.379 . S
C390 N397 1.356 . S
C391 C390 1.363 . S
C391 C394 1.363 1_554 S
N392 C394 1.356 . S
N392 H404 0.984 . S
N392 H405 0.985 . S
N393 C395 1.356 . S
N393 H398 0.984 1_455 S
N393 H399 0.985 1_455 S
C394 C388 1.379 . S
C394 C391 1.363 1_556 S
C394 N392 1.356 . S
C395 C389 1.363 1_554 S
C395 C390 1.379 . S
C395 N393 1.356 . S
N396 C388 1.356 . S
N396 H402 0.984 . S
N396 H403 0.984 . S
N397 C390 1.356 . S
N397 H400 0.984 . S
N397 H401 0.985 . S
H398 N393 0.984 1_655 S
H399 N393 0.985 1_655 S
H400 N397 0.984 . S
H401 N397 0.985 . S
H402 N396 0.984 . S
H403 N396 0.984 . S
H404 N392 0.984 . S
H405 N392 0.985 . S
C406 C407 1.363 . S
C406 C412 1.379 . S
C406 N414 1.356 . S
C407 C406 1.363 . S
C407 C413 1.363 1_554 S
C408 C409 1.363 . S
C408 C413 1.379 . S
C408 N415 1.356 . S
C409 C408 1.363 . S
C409 C412 1.363 1_556 S
N410 C412 1.356 . S
N410 H422 0.984 . S
N410 H423 0.985 . S
N411 C413 1.356 . S
N411 H416 0.984 . S
N411 H417 0.985 . S
C412 C406 1.379 . S
C412 C409 1.363 1_554 S
C412 N410 1.356 . S
C413 C407 1.363 1_556 S
C413 C408 1.379 . S
C413 N411 1.356 . S
N414 C406 1.356 . S
N414 H420 0.984 . S
N414 H421 0.984 . S
N415 C408 1.356 . S
N415 H418 0.984 . S
N415 H419 0.985 . S
H416 N411 0.984 . S
H417 N411 0.985 . S
H418 N415 0.984 . S
H419 N415 0.985 . S
H420 N414 0.984 . S
H421 N414 0.984 . S
H422 N410 0.984 . S
H423 N410 0.985 . S
C424 C425 1.363 . S
C424 C430 1.379 . S
C424 N432 1.356 . S
C425 C424 1.363 . S
C425 C431 1.363 . S
C426 C427 1.363 . S
C426 C431 1.379 . S
C426 N433 1.356 . S
C427 C426 1.363 . S
C427 C430 1.363 . S
N428 C430 1.356 . S
N428 H440 0.984 . S
N428 H441 0.985 . S
N429 C431 1.356 . S
N429 H434 0.984 . S
N429 H435 0.985 . S
C430 C424 1.379 . S
C430 C427 1.363 . S
C430 N428 1.356 . S
C431 C425 1.363 . S
C431 C426 1.379 . S
C431 N429 1.356 . S
N432 C424 1.356 . S
N432 H438 0.984 . S
N432 H439 0.984 . S
N433 C426 1.356 . S
N433 H436 0.984 . S
N433 H437 0.985 . S
H434 N429 0.984 . S
H435 N429 0.985 . S
H436 N433 0.984 . S
H437 N433 0.985 . S
H438 N432 0.984 . S
H439 N432 0.984 . S
H440 N428 0.984 . S
H441 N428 0.985 . S
C442 C443 1.363 . S
C442 C448 1.379 . S
C442 N450 1.356 . S
C443 C442 1.363 . S
C443 C449 1.363 . S
C444 C445 1.363 . S
C444 C449 1.379 . S
C444 N451 1.356 . S
C445 C444 1.363 . S
C445 C448 1.363 . S
N446 C448 1.356 . S
N446 H458 0.984 . S
N446 H459 0.985 . S
N447 C449 1.356 . S
N447 H452 0.984 . S
N447 H453 0.985 . S
C448 C442 1.379 . S
C448 C445 1.363 . S
C448 N446 1.356 . S
C449 C443 1.363 . S
C449 C444 1.379 . S
C449 N447 1.356 . S
N450 C442 1.356 . S
N450 H456 0.984 . S
N450 H457 0.984 . S
N451 C444 1.356 . S
N451 H454 0.984 . S
N451 H455 0.985 . S
H452 N447 0.984 . S
H453 N447 0.985 . S
H454 N451 0.984 . S
H455 N451 0.985 . S
H456 N450 0.984 . S
H457 N450 0.984 . S
H458 N446 0.984 . S
H459 N446 0.985 . S
C460 C461 1.363 . S
C460 C466 1.379 . S
C460 N468 1.356 . S
C461 C460 1.363 . S
C461 C467 1.363 . S
C462 C463 1.363 . S
C462 C467 1.379 . S
C462 N469 1.356 . S
C463 C462 1.363 . S
C463 C466 1.363 . S
N464 C466 1.356 . S
N464 H476 0.984 . S
N464 H477 0.985 . S
N465 C467 1.356 . S
N465 H470 0.984 . S
N465 H471 0.985 . S
C466 C460 1.379 . S
C466 C463 1.363 . S
C466 N464 1.356 . S
C467 C461 1.363 . S
C467 C462 1.379 . S
C467 N465 1.356 . S
N468 C460 1.356 . S
N468 H474 0.984 . S
N468 H475 0.984 . S
N469 C462 1.356 . S
N469 H472 0.984 1_455 S
N469 H473 0.985 . S
H470 N465 0.984 . S
H471 N465 0.985 . S
H472 N469 0.984 1_655 S
H473 N469 0.985 . S
H474 N468 0.984 . S
H475 N468 0.984 . S
H476 N464 0.984 . S
H477 N464 0.985 . S
C478 C479 1.363 . S
C478 C484 1.379 . S
C478 N486 1.356 . S
C479 C478 1.363 . S
C479 C485 1.363 . S
C480 C481 1.363 . S
C480 C485 1.379 . S
C480 N487 1.356 . S
C481 C480 1.363 . S
C481 C484 1.363 . S
N482 C484 1.356 . S
N482 H494 0.984 . S
N482 H495 0.985 . S
N483 C485 1.354 . S
N483 H488 0.985 1_545 S
N483 H489 0.986 1_545 S
C484 C478 1.379 . S
C484 C481 1.363 . S
C484 N482 1.356 . S
C485 C479 1.363 . S
C485 C480 1.379 . S
C485 N483 1.354 . S
N486 C478 1.356 . S
N486 H492 0.984 . S
N486 H493 0.984 . S
N487 C480 1.356 . S
N487 H490 0.984 . S
N487 H491 0.985 . S
H488 N483 0.985 1_565 S
H489 N483 0.986 1_565 S
H490 N487 0.984 . S
H491 N487 0.985 . S
H492 N486 0.984 . S
H493 N486 0.984 . S
H494 N482 0.984 . S
H495 N482 0.985 . S
C496 C497 1.363 . S
C496 C502 1.379 1_565 S
C496 N504 1.356 . S
C497 C496 1.363 . S
C497 C503 1.363 1_556 S
C498 C499 1.363 . S
C498 C503 1.379 1_545 S
C498 N505 1.356 . S
C499 C498 1.363 . S
C499 C502 1.363 1_554 S
N500 C502 1.356 . S
N500 H512 0.984 . S
N500 H513 0.985 . S
N501 C503 1.356 . S
N501 H506 0.984 . S
N501 H507 0.985 . S
C502 C496 1.379 1_545 S
C502 C499 1.363 1_556 S
C502 N500 1.356 . S
C503 C497 1.363 1_554 S
C503 C498 1.379 1_565 S
C503 N501 1.356 . S
N504 C496 1.356 . S
N504 H510 0.984 . S
N504 H511 0.984 . S
N505 C498 1.356 . S
N505 H508 0.984 . S
N505 H509 0.985 . S
H506 N501 0.984 . S
H507 N501 0.985 . S
H508 N505 0.984 . S
H509 N505 0.985 . S
H510 N504 0.984 . S
H511 N504 0.984 . S
H512 N500 0.984 . S
H513 N500 0.985 . S
C514 C515 1.363 1_556 S
C514 C520 1.379 . S
C514 N522 1.356 . S
C515 C514 1.363 1_554 S
C515 C521 1.363 . S
C516 C517 1.363 1_554 S
C516 C521 1.379 . S
C516 N523 1.356 . S
C517 C516 1.363 1_556 S
C517 C520 1.363 . S
N518 C520 1.356 . S
N518 H530 0.984 . S
N518 H531 0.985 . S
N519 C521 1.356 . S
N519 H524 0.984 . S
N519 H525 0.985 . S
C520 C514 1.379 . S
C520 C517 1.363 . S
C520 N518 1.356 . S
C521 C515 1.363 . S
C521 C516 1.379 . S
C521 N519 1.356 . S
N522 C514 1.356 . S
N522 H528 0.984 . S
N522 H529 0.984 . S
N523 C516 1.356 . S
N523 H526 0.984 . S
N523 H527 0.985 . S
H524 N519 0.984 . S
H525 N519 0.985 . S
H526 N523 0.984 . S
H527 N523 0.985 . S
H528 N522 0.984 . S
H529 N522 0.984 . S
H530 N518 0.984 . S
H531 N518 0.985 . S
C532 C533 1.363 1_454 S
C532 C538 1.379 . S
C532 N540 1.356 . S
C533 C532 1.363 1_656 S
C533 C539 1.363 . S
C534 C535 1.363 1_656 S
C534 C539 1.379 . S
C534 N541 1.356 . S
C535 C534 1.363 1_454 S
C535 C538 1.363 . S
N536 C538 1.356 . S
N536 H548 0.984 . S
N536 H549 0.985 . S
N537 C539 1.356 . S
N537 H542 0.984 . S
N537 H543 0.985 . S
C538 C532 1.379 . S
C538 C535 1.363 . S
C538 N536 1.356 . S
C539 C533 1.363 . S
C539 C534 1.379 . S
C539 N537 1.356 . S
N540 C532 1.356 . S
N540 H546 0.984 . S
N540 H547 0.984 . S
N541 C534 1.356 . S
N541 H544 0.984 . S
N541 H545 0.985 . S
H542 N537 0.984 . S
H543 N537 0.985 . S
H544 N541 0.984 . S
H545 N541 0.985 . S
H546 N540 0.984 . S
H547 N540 0.984 . S
H548 N536 0.984 . S
H549 N536 0.985 . S
C550 C551 1.363 1_565 S
C550 C556 1.379 1_455 S
C550 N558 1.356 . S
C551 C550 1.363 1_545 S
C551 C557 1.363 1_554 S
C552 C553 1.363 1_545 S
C552 C557 1.379 1_655 S
C552 N559 1.356 . S
C553 C552 1.363 1_565 S
C553 C556 1.363 1_556 S
N554 C556 1.356 . S
N554 H566 0.984 . S
N554 H567 0.985 . S
N555 C557 1.356 . S
N555 H560 0.984 . S
N555 H561 0.985 . S
C556 C550 1.379 1_655 S
C556 C553 1.363 1_554 S
C556 N554 1.356 . S
C557 C551 1.363 1_556 S
C557 C552 1.379 1_455 S
C557 N555 1.356 . S
N558 C550 1.356 . S
N558 H564 0.984 . S
N558 H565 0.984 . S
N559 C552 1.356 . S
N559 H562 0.984 . S
N559 H563 0.985 . S
H560 N555 0.984 . S
H561 N555 0.985 . S
H562 N559 0.984 . S
H563 N559 0.985 . S
H564 N558 0.984 . S
H565 N558 0.984 . S
H566 N554 0.984 . S
H567 N554 0.985 . S
C568 C569 1.363 . S
C568 C574 1.379 . S
C568 N576 1.356 . S
C569 C568 1.363 . S
C569 C575 1.363 . S
C570 C571 1.363 . S
C570 C575 1.379 . S
C570 N577 1.356 . S
C571 C570 1.363 . S
C571 C574 1.363 . S
N572 C574 1.356 . S
N572 H584 0.984 . S
N572 H585 0.985 . S
N573 C575 1.356 . S
N573 H578 0.984 . S
N573 H579 0.985 . S
C574 C568 1.379 . S
C574 C571 1.363 . S
C574 N572 1.356 . S
C575 C569 1.363 . S
C575 C570 1.379 . S
C575 N573 1.356 . S
N576 C568 1.356 . S
N576 H582 0.984 . S
N576 H583 0.984 . S
N577 C570 1.356 . S
N577 H580 0.984 . S
N577 H581 0.985 . S
H578 N573 0.984 . S
H579 N573 0.985 . S
H580 N577 0.984 . S
H581 N577 0.985 . S
H582 N576 0.984 . S
H583 N576 0.984 . S
H584 N572 0.984 . S
H585 N572 0.985 . S
C586 C587 1.363 . S
C586 C592 1.379 1_455 S
C586 N594 1.356 . S
C587 C586 1.363 . S
C587 C593 1.363 . S
C588 C589 1.363 . S
C588 C593 1.379 1_655 S
C588 N595 1.356 . S
C589 C588 1.363 . S
C589 C592 1.363 . S
N590 C592 1.356 . S
N590 H602 0.984 . S
N590 H603 0.985 . S
N591 C593 1.356 . S
N591 H596 0.984 . S
N591 H597 0.985 . S
C592 C586 1.379 1_655 S
C592 C589 1.363 . S
C592 N590 1.356 . S
C593 C587 1.363 . S
C593 C588 1.379 1_455 S
C593 N591 1.356 . S
N594 C586 1.356 . S
N594 H600 0.984 . S
N594 H601 0.984 . S
N595 C588 1.356 . S
N595 H598 0.984 . S
N595 H599 0.985 . S
H596 N591 0.984 . S
H597 N591 0.985 . S
H598 N595 0.984 . S
H599 N595 0.985 . S
H600 N594 0.984 . S
H601 N594 0.984 . S
H602 N590 0.984 . S
H603 N590 0.985 . S
C604 C605 1.360 1_455 S
C604 C610 1.381 1_565 S
C604 N612 1.355 1_455 S
C605 C604 1.360 1_655 S
C605 C611 1.363 . S
C606 C607 1.360 1_655 S
C606 C611 1.381 1_545 S
C606 N613 1.355 1_655 S
C607 C606 1.360 1_455 S
C607 C610 1.363 . S
N608 C610 1.356 . S
N608 H620 0.984 . S
N608 H621 0.985 . S
N609 C611 1.356 . S
N609 H614 0.984 . S
N609 H615 0.985 . S
C610 C604 1.381 1_545 S
C610 C607 1.363 . S
C610 N608 1.356 . S
C611 C605 1.363 . S
C611 C606 1.381 1_565 S
C611 N609 1.356 . S
N612 C604 1.355 1_655 S
N612 H618 0.984 1_655 S
N612 H619 0.984 . S
N613 C606 1.355 1_455 S
N613 H616 0.984 . S
N613 H617 0.985 1_455 S
H614 N609 0.984 . S
H615 N609 0.985 . S
H616 N613 0.984 . S
H617 N613 0.985 1_655 S
H618 N612 0.984 1_455 S
H619 N612 0.984 . S
H620 N608 0.984 . S
H621 N608 0.985 . S
C622 C623 1.363 1_545 S
C622 C628 1.379 . S
C622 N630 1.356 . S
C623 C622 1.363 1_565 S
C623 C629 1.363 . S
C624 C625 1.363 1_565 S
C624 C629 1.379 . S
C624 N631 1.356 . S
C625 C624 1.363 1_545 S
C625 C628 1.363 . S
N626 C628 1.356 . S
N626 H638 0.984 . S
N626 H639 0.985 . S
N627 C629 1.356 . S
N627 H632 0.984 . S
N627 H633 0.985 . S
C628 C622 1.379 . S
C628 C625 1.363 . S
C628 N626 1.356 . S
C629 C623 1.363 . S
C629 C624 1.379 . S
C629 N627 1.356 . S
N630 C622 1.356 . S
N630 H636 0.984 . S
N630 H637 0.984 1_545 S
N631 C624 1.356 . S
N631 H634 0.984 1_565 S
N631 H635 0.985 . S
H632 N627 0.984 . S
H633 N627 0.985 . S
H634 N631 0.984 1_545 S
H635 N631 0.985 . S
H636 N630 0.984 . S
H637 N630 0.984 1_565 S
H638 N626 0.984 . S
H639 N626 0.985 . S
C640 C641 1.363 . S
C640 C646 1.379 . S
C640 N648 1.356 . S
C641 C640 1.363 . S
C641 C647 1.363 . S
C642 C643 1.363 . S
C642 C647 1.379 . S
C642 N649 1.356 . S
C643 C642 1.363 . S
C643 C646 1.363 . S
N644 C646 1.356 . S
N644 H656 0.984 . S
N644 H657 0.985 . S
N645 C647 1.356 . S
N645 H650 0.984 . S
N645 H651 0.985 . S
C646 C640 1.379 . S
C646 C643 1.363 . S
C646 N644 1.356 . S
C647 C641 1.363 . S
C647 C642 1.379 . S
C647 N645 1.356 . S
N648 C640 1.356 . S
N648 H654 0.984 . S
N648 H655 0.984 . S
N649 C642 1.356 . S
N649 H652 0.984 . S
N649 H653 0.985 . S
H650 N645 0.984 . S
H651 N645 0.985 . S
H652 N649 0.984 . S
H653 N649 0.985 . S
H654 N648 0.984 . S
H655 N648 0.984 . S
H656 N644 0.984 . S
H657 N644 0.985 . S
C658 C659 1.363 . S
C658 C664 1.379 . S
C658 N666 1.356 . S
C659 C658 1.363 . S
C659 C665 1.363 . S
C660 C661 1.363 . S
C660 C665 1.379 . S
C660 N667 1.356 . S
C661 C660 1.363 . S
C661 C664 1.363 . S
N662 C664 1.356 . S
N662 H674 0.984 . S
N662 H675 0.985 . S
N663 C665 1.356 . S
N663 H668 0.984 . S
N663 H669 0.985 . S
C664 C658 1.379 . S
C664 C661 1.363 . S
C664 N662 1.356 . S
C665 C659 1.363 . S
C665 C660 1.379 . S
C665 N663 1.356 . S
N666 C658 1.356 . S
N666 H672 0.984 . S
N666 H673 0.984 . S
N667 C660 1.356 . S
N667 H670 0.984 . S
N667 H671 0.985 . S
H668 N663 0.984 . S
H669 N663 0.985 . S
H670 N667 0.984 . S
H671 N667 0.985 . S
H672 N666 0.984 . S
H673 N666 0.984 . S
H674 N662 0.984 . S
H675 N662 0.985 . S
C676 C677 1.363 1_655 S
C676 C682 1.379 . S
C676 N684 1.356 . S
C677 C676 1.363 1_455 S
C677 C683 1.363 . S
C678 C679 1.363 . S
C678 C683 1.379 . S
C678 N685 1.356 . S
C679 C678 1.363 . S
C679 C682 1.363 1_455 S
N680 C682 1.356 . S
N680 H692 0.984 . S
N680 H693 0.985 . S
N681 C683 1.356 . S
N681 H686 0.984 . S
N681 H687 0.985 . S
C682 C676 1.379 . S
C682 C679 1.363 1_655 S
C682 N680 1.356 . S
C683 C677 1.363 . S
C683 C678 1.379 . S
C683 N681 1.356 . S
N684 C676 1.356 . S
N684 H690 0.984 . S
N684 H691 0.984 . S
N685 C678 1.356 . S
N685 H688 0.984 . S
N685 H689 0.985 . S
H686 N681 0.984 . S
H687 N681 0.985 . S
H688 N685 0.984 . S
H689 N685 0.985 . S
H690 N684 0.984 . S
H691 N684 0.984 . S
H692 N680 0.984 . S
H693 N680 0.985 . S
C694 C695 1.363 1_565 S
C694 C700 1.379 . S
C694 N702 1.356 . S
C695 C694 1.363 1_545 S
C695 C701 1.363 . S
C696 C697 1.363 . S
C696 C701 1.379 . S
C696 N703 1.356 . S
C697 C696 1.363 . S
C697 C700 1.363 1_545 S
N698 C700 1.356 . S
N698 H710 0.984 . S
N698 H711 0.985 . S
N699 C701 1.356 . S
N699 H704 0.984 . S
N699 H705 0.985 . S
C700 C694 1.379 . S
C700 C697 1.363 1_565 S
C700 N698 1.356 . S
C701 C695 1.363 . S
C701 C696 1.379 . S
C701 N699 1.356 . S
N702 C694 1.356 . S
N702 H708 0.984 . S
N702 H709 0.984 . S
N703 C696 1.356 . S
N703 H706 0.984 . S
N703 H707 0.985 . S
H704 N699 0.984 . S
H705 N699 0.985 . S
H706 N703 0.984 . S
H707 N703 0.985 . S
H708 N702 0.984 . S
H709 N702 0.984 . S
H710 N698 0.984 . S
H711 N698 0.985 . S
C712 C713 1.363 . S
C712 C718 1.379 . S
C712 N720 1.356 . S
C713 C712 1.363 . S
C713 C719 1.363 . S
C714 C715 1.363 . S
C714 C719 1.379 . S
C714 N721 1.356 . S
C715 C714 1.363 . S
C715 C718 1.363 . S
N716 C718 1.356 . S
N716 H728 0.984 . S
N716 H729 0.985 . S
N717 C719 1.356 . S
N717 H722 0.984 . S
N717 H723 0.985 . S
C718 C712 1.379 . S
C718 C715 1.363 . S
C718 N716 1.356 . S
C719 C713 1.363 . S
C719 C714 1.379 . S
C719 N717 1.356 . S
N720 C712 1.356 . S
N720 H726 0.984 . S
N720 H727 0.984 . S
N721 C714 1.356 . S
N721 H724 0.984 . S
N721 H725 0.985 . S
H722 N717 0.984 . S
H723 N717 0.985 . S
H724 N721 0.984 . S
H725 N721 0.985 . S
H726 N720 0.984 . S
H727 N720 0.984 . S
H728 N716 0.984 . S
H729 N716 0.985 . S
C730 C731 1.363 . S
C730 C736 1.379 . S
C730 N738 1.356 . S
C731 C730 1.363 . S
C731 C737 1.363 . S
C732 C733 1.363 . S
C732 C737 1.379 . S
C732 N739 1.356 . S
C733 C732 1.363 . S
C733 C736 1.363 . S
N734 C736 1.356 . S
N734 H746 0.984 . S
N734 H747 0.985 . S
N735 C737 1.356 . S
N735 H740 0.984 . S
N735 H741 0.985 . S
C736 C730 1.379 . S
C736 C733 1.363 . S
C736 N734 1.356 . S
C737 C731 1.363 . S
C737 C732 1.379 . S
C737 N735 1.356 . S
N738 C730 1.356 . S
N738 H744 0.984 . S
N738 H745 0.984 . S
N739 C732 1.356 . S
N739 H742 0.984 . S
N739 H743 0.985 . S
H740 N735 0.984 . S
H741 N735 0.985 . S
H742 N739 0.984 . S
H743 N739 0.985 . S
H744 N738 0.984 . S
H745 N738 0.984 . S
H746 N734 0.984 . S
H747 N734 0.985 . S
C748 C749 1.363 1_455 S
C748 C754 1.379 . S
C748 N756 1.356 . S
C749 C748 1.363 1_655 S
C749 C755 1.363 . S
C750 C751 1.363 . S
C750 C755 1.379 . S
C750 N757 1.356 . S
C751 C750 1.363 . S
C751 C754 1.363 1_655 S
N752 C754 1.356 . S
N752 H764 0.984 . S
N752 H765 0.985 . S
N753 C755 1.356 . S
N753 H758 0.984 . S
N753 H759 0.985 . S
C754 C748 1.379 . S
C754 C751 1.363 1_455 S
C754 N752 1.356 . S
C755 C749 1.363 . S
C755 C750 1.379 . S
C755 N753 1.356 . S
N756 C748 1.356 . S
N756 H762 0.984 . S
N756 H763 0.984 . S
N757 C750 1.356 . S
N757 H760 0.984 . S
N757 H761 0.985 . S
H758 N753 0.984 . S
H759 N753 0.985 . S
H760 N757 0.984 . S
H761 N757 0.985 . S
H762 N756 0.984 . S
H763 N756 0.984 . S
H764 N752 0.984 . S
H765 N752 0.985 . S
C766 C767 1.363 . S
C766 C772 1.379 . S
C766 N774 1.356 . S
C767 C766 1.363 . S
C767 C773 1.363 1_565 S
C768 C769 1.363 1_545 S
C768 C773 1.379 . S
C768 N775 1.356 . S
C769 C768 1.363 1_565 S
C769 C772 1.363 . S
N770 C772 1.356 . S
N770 H782 0.984 . S
N770 H783 0.985 . S
N771 C773 1.356 . S
N771 H776 0.984 . S
N771 H777 0.985 . S
C772 C766 1.379 . S
C772 C769 1.363 . S
C772 N770 1.356 . S
C773 C767 1.363 1_545 S
C773 C768 1.379 . S
C773 N771 1.356 . S
N774 C766 1.356 . S
N774 H780 0.984 . S
N774 H781 0.984 . S
N775 C768 1.356 . S
N775 H778 0.984 . S
N775 H779 0.985 . S
H776 N771 0.984 . S
H777 N771 0.985 . S
H778 N775 0.984 . S
H779 N775 0.985 . S
H780 N774 0.984 . S
H781 N774 0.984 . S
H782 N770 0.984 . S
H783 N770 0.985 . S
C209 C5 1.315 . S
C211 C127 1.372 . S
C227 C140 1.372 . S
C229 C18 1.315 . S
C245 C147 1.372 . S
C247 C31 1.315 . S
C263 C114 1.372 . S
C265 C42 1.315 . S
C281 C57 1.315 . S
C283 C205 1.372 . S
C299 C160 1.372 . S
C301 C70 1.315 . S
C317 C173 1.372 . S
C319 C81 1.315 . S
C335 C186 1.372 . S
C337 C96 1.315 . S
C353 C109 1.315 . S
C355 C23 1.372 . S
C371 C122 1.315 . S
C373 C36 1.372 . S
C389 C135 1.315 . S
C391 C43 1.372 . S
C407 C10 1.372 . S
C409 C146 1.315 . S
C425 C159 1.315 . S
C427 C101 1.372 . S
C443 C172 1.315 . S
C445 C62 1.372 . S
C461 C75 1.372 . S
C463 C185 1.315 . S
C479 C200 1.315 . S
C481 C82 1.372 . S
C497 C108 1.762 . S
C499 C4 1.762 . S
C515 C17 1.762 . S
C517 C121 1.762 . S
C533 C134 1.762 . S
C535 C30 1.762 . S
C551 C49 1.762 . S
C553 C153 1.762 . S
C569 C166 1.762 . S
C571 C56 1.762 . S
C587 C69 1.762 . S
C589 C179 1.762 . S
C605 C192 1.762 . S
C607 C88 1.762 . S
C623 C199 1.762 . S
C625 C95 1.762 . S
C641 C55 1.708 . S
C643 C3 1.708 . S
C659 C68 1.708 . S
C661 C16 1.708 . S
C677 C29 1.708 1_455 S
C679 C83 1.708 1_455 S
C695 C94 1.708 1_545 S
C697 C44 1.708 1_545 S
C713 C107 1.708 . S
C715 C161 1.708 . S
C731 C174 1.708 . S
C733 C120 1.708 . S
C749 C187 1.708 1_655 S
C751 C133 1.708 1_655 S
C767 C198 1.708 1_565 S
C769 C148 1.708 1_565 S
