# Generated by pormake.
# Topology wir, (6)-cn, num edge types: 1
# Building blocks:
#     Node 0, Type 0, BuildingBlock: KUMBOL_clean_sbu_1, # of connection points: 6
#     Node 1, Type 0, BuildingBlock: KUMBOL_clean_sbu_1, # of connection points: 6
#     Node 2, Type 0, BuildingBlock: KUMBOL_clean_sbu_1, # of connection points: 6
#     Node 3, Type 0, BuildingBlock: KUMBOL_clean_sbu_1, # of connection points: 6
#     Node 4, Type 0, BuildingBlock: KUMBOL_clean_sbu_1, # of connection points: 6
#     Node 5, Type 0, BuildingBlock: KUMBOL_clean_sbu_1, # of connection points: 6
#     Node 6, Type 0, BuildingBlock: KUMBOL_clean_sbu_1, # of connection points: 6
#     Node 7, Type 0, BuildingBlock: KUMBOL_clean_sbu_1, # of connection points: 6
#     Node 8, Type 0, BuildingBlock: KUMBOL_clean_sbu_1, # of connection points: 6
#     Node 9, Type 0, BuildingBlock: KUMBOL_clean_sbu_1, # of connection points: 6
#     Node 10, Type 0, BuildingBlock: KUMBOL_clean_sbu_1, # of connection points: 6
#     Node 11, Type 0, BuildingBlock: KUMBOL_clean_sbu_1, # of connection points: 6
#     Node 12, Type 0, BuildingBlock: KUMBOL_clean_sbu_1, # of connection points: 6
#     Node 13, Type 0, BuildingBlock: KUMBOL_clean_sbu_1, # of connection points: 6
#     Node 14, Type 0, BuildingBlock: KUMBOL_clean_sbu_1, # of connection points: 6
#     Node 15, Type 0, BuildingBlock: KUMBOL_clean_sbu_1, # of connection points: 6
#     Node 16, Type 0, BuildingBlock: KUMBOL_clean_sbu_1, # of connection points: 6
#     Node 17, Type 0, BuildingBlock: KUMBOL_clean_sbu_1, # of connection points: 6
#     Node 18, Type 0, BuildingBlock: KUMBOL_clean_sbu_1, # of connection points: 6
#     Node 19, Type 0, BuildingBlock: KUMBOL_clean_sbu_1, # of connection points: 6
#     Node 20, Type 0, BuildingBlock: KUMBOL_clean_sbu_1, # of connection points: 6
#     Node 21, Type 0, BuildingBlock: KUMBOL_clean_sbu_1, # of connection points: 6
#     Node 22, Type 0, BuildingBlock: KUMBOL_clean_sbu_1, # of connection points: 6
#     Node 23, Type 0, BuildingBlock: KUMBOL_clean_sbu_1, # of connection points: 6
#     Node 24, Type 0, BuildingBlock: KUMBOL_clean_sbu_1, # of connection points: 6
#     Node 25, Type 0, BuildingBlock: KUMBOL_clean_sbu_1, # of connection points: 6
#     Node 26, Type 0, BuildingBlock: KUMBOL_clean_sbu_1, # of connection points: 6
#     Node 27, Type 0, BuildingBlock: KUMBOL_clean_sbu_1, # of connection points: 6
#     Node 28, Type 0, BuildingBlock: KUMBOL_clean_sbu_1, # of connection points: 6
#     Node 29, Type 0, BuildingBlock: KUMBOL_clean_sbu_1, # of connection points: 6
#     Node 30, Type 0, BuildingBlock: KUMBOL_clean_sbu_1, # of connection points: 6
#     Node 31, Type 0, BuildingBlock: KUMBOL_clean_sbu_1, # of connection points: 6
#     Edge 32, Type (0, 0), BuildingBlock: XIVTED_clean_linker_0, # of connection points: 2
#     Edge 33, Type (0, 0), BuildingBlock: XIVTED_clean_linker_0, # of connection points: 2
#     Edge 34, Type (0, 0), BuildingBlock: XIVTED_clean_linker_0, # of connection points: 2
#     Edge 35, Type (0, 0), BuildingBlock: XIVTED_clean_linker_0, # of connection points: 2
#     Edge 36, Type (0, 0), BuildingBlock: XIVTED_clean_linker_0, # of connection points: 2
#     Edge 37, Type (0, 0), BuildingBlock: XIVTED_clean_linker_0, # of connection points: 2
#     Edge 38, Type (0, 0), BuildingBlock: XIVTED_clean_linker_0, # of connection points: 2
#     Edge 39, Type (0, 0), BuildingBlock: XIVTED_clean_linker_0, # of connection points: 2
#     Edge 40, Type (0, 0), BuildingBlock: XIVTED_clean_linker_0, # of connection points: 2
#     Edge 41, Type (0, 0), BuildingBlock: XIVTED_clean_linker_0, # of connection points: 2
#     Edge 42, Type (0, 0), BuildingBlock: XIVTED_clean_linker_0, # of connection points: 2
#     Edge 43, Type (0, 0), BuildingBlock: XIVTED_clean_linker_0, # of connection points: 2
#     Edge 44, Type (0, 0), BuildingBlock: XIVTED_clean_linker_0, # of connection points: 2
#     Edge 45, Type (0, 0), BuildingBlock: XIVTED_clean_linker_0, # of connection points: 2
#     Edge 46, Type (0, 0), BuildingBlock: XIVTED_clean_linker_0, # of connection points: 2
#     Edge 47, Type (0, 0), BuildingBlock: XIVTED_clean_linker_0, # of connection points: 2
#     Edge 48, Type (0, 0), BuildingBlock: XIVTED_clean_linker_0, # of connection points: 2
#     Edge 49, Type (0, 0), BuildingBlock: XIVTED_clean_linker_0, # of connection points: 2
#     Edge 50, Type (0, 0), BuildingBlock: XIVTED_clean_linker_0, # of connection points: 2
#     Edge 51, Type (0, 0), BuildingBlock: XIVTED_clean_linker_0, # of connection points: 2
#     Edge 52, Type (0, 0), BuildingBlock: XIVTED_clean_linker_0, # of connection points: 2
#     Edge 53, Type (0, 0), BuildingBlock: XIVTED_clean_linker_0, # of connection points: 2
#     Edge 54, Type (0, 0), BuildingBlock: XIVTED_clean_linker_0, # of connection points: 2
#     Edge 55, Type (0, 0), BuildingBlock: XIVTED_clean_linker_0, # of connection points: 2
#     Edge 56, Type (0, 0), BuildingBlock: XIVTED_clean_linker_0, # of connection points: 2
#     Edge 57, Type (0, 0), BuildingBlock: XIVTED_clean_linker_0, # of connection points: 2
#     Edge 58, Type (0, 0), BuildingBlock: XIVTED_clean_linker_0, # of connection points: 2
#     Edge 59, Type (0, 0), BuildingBlock: XIVTED_clean_linker_0, # of connection points: 2
#     Edge 60, Type (0, 0), BuildingBlock: XIVTED_clean_linker_0, # of connection points: 2
#     Edge 61, Type (0, 0), BuildingBlock: XIVTED_clean_linker_0, # of connection points: 2
#     Edge 62, Type (0, 0), BuildingBlock: XIVTED_clean_linker_0, # of connection points: 2
#     Edge 63, Type (0, 0), BuildingBlock: XIVTED_clean_linker_0, # of connection points: 2
#     Edge 64, Type (0, 0), BuildingBlock: XIVTED_clean_linker_0, # of connection points: 2
#     Edge 65, Type (0, 0), BuildingBlock: XIVTED_clean_linker_0, # of connection points: 2
#     Edge 66, Type (0, 0), BuildingBlock: XIVTED_clean_linker_0, # of connection points: 2
#     Edge 67, Type (0, 0), BuildingBlock: XIVTED_clean_linker_0, # of connection points: 2
#     Edge 68, Type (0, 0), BuildingBlock: XIVTED_clean_linker_0, # of connection points: 2
#     Edge 69, Type (0, 0), BuildingBlock: XIVTED_clean_linker_0, # of connection points: 2
#     Edge 70, Type (0, 0), BuildingBlock: XIVTED_clean_linker_0, # of connection points: 2
#     Edge 71, Type (0, 0), BuildingBlock: XIVTED_clean_linker_0, # of connection points: 2
#     Edge 72, Type (0, 0), BuildingBlock: XIVTED_clean_linker_0, # of connection points: 2
#     Edge 73, Type (0, 0), BuildingBlock: XIVTED_clean_linker_0, # of connection points: 2
#     Edge 74, Type (0, 0), BuildingBlock: XIVTED_clean_linker_0, # of connection points: 2
#     Edge 75, Type (0, 0), BuildingBlock: XIVTED_clean_linker_0, # of connection points: 2
#     Edge 76, Type (0, 0), BuildingBlock: XIVTED_clean_linker_0, # of connection points: 2
#     Edge 77, Type (0, 0), BuildingBlock: XIVTED_clean_linker_0, # of connection points: 2
#     Edge 78, Type (0, 0), BuildingBlock: XIVTED_clean_linker_0, # of connection points: 2
#     Edge 79, Type (0, 0), BuildingBlock: XIVTED_clean_linker_0, # of connection points: 2
#     Edge 80, Type (0, 0), BuildingBlock: XIVTED_clean_linker_0, # of connection points: 2
#     Edge 81, Type (0, 0), BuildingBlock: XIVTED_clean_linker_0, # of connection points: 2
#     Edge 82, Type (0, 0), BuildingBlock: XIVTED_clean_linker_0, # of connection points: 2
#     Edge 83, Type (0, 0), BuildingBlock: XIVTED_clean_linker_0, # of connection points: 2
#     Edge 84, Type (0, 0), BuildingBlock: XIVTED_clean_linker_0, # of connection points: 2
#     Edge 85, Type (0, 0), BuildingBlock: XIVTED_clean_linker_0, # of connection points: 2
#     Edge 86, Type (0, 0), BuildingBlock: XIVTED_clean_linker_0, # of connection points: 2
#     Edge 87, Type (0, 0), BuildingBlock: XIVTED_clean_linker_0, # of connection points: 2
#     Edge 88, Type (0, 0), BuildingBlock: XIVTED_clean_linker_0, # of connection points: 2
#     Edge 89, Type (0, 0), BuildingBlock: XIVTED_clean_linker_0, # of connection points: 2
#     Edge 90, Type (0, 0), BuildingBlock: XIVTED_clean_linker_0, # of connection points: 2
#     Edge 91, Type (0, 0), BuildingBlock: XIVTED_clean_linker_0, # of connection points: 2
#     Edge 92, Type (0, 0), BuildingBlock: XIVTED_clean_linker_0, # of connection points: 2
#     Edge 93, Type (0, 0), BuildingBlock: XIVTED_clean_linker_0, # of connection points: 2
#     Edge 94, Type (0, 0), BuildingBlock: XIVTED_clean_linker_0, # of connection points: 2
#     Edge 95, Type (0, 0), BuildingBlock: XIVTED_clean_linker_0, # of connection points: 2
#     Edge 96, Type (0, 0), BuildingBlock: XIVTED_clean_linker_0, # of connection points: 2
#     Edge 97, Type (0, 0), BuildingBlock: XIVTED_clean_linker_0, # of connection points: 2
#     Edge 98, Type (0, 0), BuildingBlock: XIVTED_clean_linker_0, # of connection points: 2
#     Edge 99, Type (0, 0), BuildingBlock: XIVTED_clean_linker_0, # of connection points: 2
#     Edge 100, Type (0, 0), BuildingBlock: XIVTED_clean_linker_0, # of connection points: 2
#     Edge 101, Type (0, 0), BuildingBlock: XIVTED_clean_linker_0, # of connection points: 2
#     Edge 102, Type (0, 0), BuildingBlock: XIVTED_clean_linker_0, # of connection points: 2
#     Edge 103, Type (0, 0), BuildingBlock: XIVTED_clean_linker_0, # of connection points: 2
#     Edge 104, Type (0, 0), BuildingBlock: XIVTED_clean_linker_0, # of connection points: 2
#     Edge 105, Type (0, 0), BuildingBlock: XIVTED_clean_linker_0, # of connection points: 2
#     Edge 106, Type (0, 0), BuildingBlock: XIVTED_clean_linker_0, # of connection points: 2
#     Edge 107, Type (0, 0), BuildingBlock: XIVTED_clean_linker_0, # of connection points: 2
#     Edge 108, Type (0, 0), BuildingBlock: XIVTED_clean_linker_0, # of connection points: 2
#     Edge 109, Type (0, 0), BuildingBlock: XIVTED_clean_linker_0, # of connection points: 2
#     Edge 110, Type (0, 0), BuildingBlock: XIVTED_clean_linker_0, # of connection points: 2
#     Edge 111, Type (0, 0), BuildingBlock: XIVTED_clean_linker_0, # of connection points: 2
#     Edge 112, Type (0, 0), BuildingBlock: XIVTED_clean_linker_0, # of connection points: 2
#     Edge 113, Type (0, 0), BuildingBlock: XIVTED_clean_linker_0, # of connection points: 2
#     Edge 114, Type (0, 0), BuildingBlock: XIVTED_clean_linker_0, # of connection points: 2
#     Edge 115, Type (0, 0), BuildingBlock: XIVTED_clean_linker_0, # of connection points: 2
#     Edge 116, Type (0, 0), BuildingBlock: XIVTED_clean_linker_0, # of connection points: 2
#     Edge 117, Type (0, 0), BuildingBlock: XIVTED_clean_linker_0, # of connection points: 2
#     Edge 118, Type (0, 0), BuildingBlock: XIVTED_clean_linker_0, # of connection points: 2
#     Edge 119, Type (0, 0), BuildingBlock: XIVTED_clean_linker_0, # of connection points: 2
#     Edge 120, Type (0, 0), BuildingBlock: XIVTED_clean_linker_0, # of connection points: 2
#     Edge 121, Type (0, 0), BuildingBlock: XIVTED_clean_linker_0, # of connection points: 2
#     Edge 122, Type (0, 0), BuildingBlock: XIVTED_clean_linker_0, # of connection points: 2
#     Edge 123, Type (0, 0), BuildingBlock: XIVTED_clean_linker_0, # of connection points: 2
#     Edge 124, Type (0, 0), BuildingBlock: XIVTED_clean_linker_0, # of connection points: 2
#     Edge 125, Type (0, 0), BuildingBlock: XIVTED_clean_linker_0, # of connection points: 2
#     Edge 126, Type (0, 0), BuildingBlock: XIVTED_clean_linker_0, # of connection points: 2
#     Edge 127, Type (0, 0), BuildingBlock: XIVTED_clean_linker_0, # of connection points: 2
# Relax obj value: 0.344
# Max RMSD: 0.188
# Mean RMSD: 0.188
data_MOF--net-wir--node1-KUMBOL_clean_sbu_1--edge1-XIVTED_clean_linker_0
_symmetry_space_group_name_H-M    P1
_symmetry_Int_Tables_number       1
_symmetry_cell_setting            triclinic
loop_
_symmetry_equiv_pos_as_xyz
'x, y, z'
_cell_length_a     42.350263
_cell_length_b     42.289523
_cell_length_c     99.10481
_cell_angle_alpha  89.895779
_cell_angle_beta   90.047015
_cell_angle_gamma 90.106545
loop_
_atom_site_label
_atom_site_type_symbol
_atom_site_fract_x
_atom_site_fract_y
_atom_site_fract_z
_atom_type_partial_charge
C0 C 0.25421 0.24572 0.36399 0.0
C1 C 0.25019 0.30086 0.35698 0.0
C2 C 0.23822 0.27459 0.36414 0.0
C3 C 0.27944 0.29862 0.35045 0.0
C4 C 0.28297 0.24324 0.35684 0.0
C5 C 0.2958 0.26993 0.3504 0.0
N6 N 0.2406 0.21977 0.36993 0.0
C7 C 0.25508 0.19103 0.36896 0.0
C8 C 0.29768 0.21379 0.35601 0.0
C9 C 0.28352 0.18758 0.36199 0.0
Gd10 Gd 0.16282 0.16226 0.36924 0.0
Gd11 Gd 0.19523 0.23162 0.38314 0.0
N12 N 0.20933 0.27594 0.37013 0.0
C13 C 0.23164 0.32814 0.35598 0.0
C14 C 0.19081 0.30227 0.36896 0.0
C15 C 0.20152 0.3285 0.3617 0.0
H16 H 0.1677 0.30277 0.3736 0.0
H17 H 0.18662 0.3491 0.36058 0.0
H18 H 0.1554 0.10006 0.38978 0.0
H19 H 0.24523 0.17037 0.37341 0.0
H20 H 0.11467 0.06067 0.39595 0.0
H21 H 0.2399 0.34864 0.35044 0.0
H22 H 0.28915 0.31866 0.34502 0.0
H23 H 0.13489 0.20103 0.3419 0.0
H24 H 0.31969 0.21093 0.35059 0.0
H25 H 0.29458 0.16458 0.36128 0.0
H26 H 1.02779 0.08421 0.36643 0.0
H27 H 0.31797 0.26837 0.34499 0.0
H28 H 0.04198 0.1664 0.33361 0.0
H29 H 0.08649 0.20211 0.32811 0.0
N30 N 0.11792 0.16543 0.35527 0.0
C31 C 0.09427 0.14463 0.35807 0.0
C32 C 0.1158 0.18521 0.34437 0.0
C33 C 0.06323 0.16577 0.3397 0.0
C34 C 0.08832 0.18595 0.33655 0.0
C35 C 0.06612 0.14452 0.35047 0.0
H36 H 1.02016 0.1226 0.34803 0.0
N37 N 0.12668 0.12258 0.37503 0.0
C38 C 0.09865 0.12284 0.36838 0.0
C39 C 0.08068 0.07823 0.38159 0.0
C40 C 0.07488 0.10058 0.37145 0.0
C41 C 0.13281 0.10042 0.38471 0.0
C42 C 0.10985 0.07806 0.3882 0.0
O43 O 0.18574 0.24092 0.36002 0.0
O44 O 0.18889 0.19149 0.35212 0.0
O45 O 0.2054 0.14795 0.35937 0.0
O46 O 0.16336 0.11813 0.35796 0.0
O47 O 0.13908 0.24362 0.38167 0.0
O48 O 0.11941 0.1993 0.37119 0.0
O49 O 0.1596 0.1616 0.3916 0.0
O50 O 0.15657 0.21382 0.39655 0.0
O51 O 0.19509 0.27577 0.39455 0.0
O52 O 0.23 0.24048 0.39878 0.0
O53 O 0.19907 0.14274 0.38678 0.0
O54 O 0.22236 0.18792 0.39482 0.0
C55 C 0.19217 0.22215 0.3497 0.0
C56 C 0.11368 0.22827 0.37638 0.0
C57 C 0.19682 0.12352 0.33876 0.0
C58 C 0.2345 0.12532 0.32018 0.0
C59 C 0.17807 0.12981 0.3158 0.0
C60 C 0.17181 0.12704 0.32958 0.0
C61 C 0.20915 0.12887 0.31109 0.0
C62 C 0.22794 0.12306 0.33402 0.0
C63 C 0.19179 0.12402 0.3534 0.0
C64 C 0.04639 0.10102 0.36418 0.0
C65 C 0.04205 0.12289 0.3537 0.0
H66 H 0.063 0.06077 0.38427 0.0
C67 C 0.15349 0.18432 0.4001 0.0
C68 C 0.22095 0.15574 0.39524 0.0
C69 C 0.24826 0.29279 0.39624 0.0
C70 C 0.26285 0.34579 0.38862 0.0
C71 C 0.30093 0.30315 0.38737 0.0
C72 C 0.27883 0.28225 0.39291 0.0
C73 C 0.29301 0.33478 0.38517 0.0
C74 C 0.24086 0.32468 0.39433 0.0
C75 C 0.22275 0.27017 0.3997 0.0
H76 H 0.15875 0.13249 0.30874 0.0
H77 H 0.14759 0.1281 0.33304 0.0
H78 H 0.21316 0.12999 0.30031 0.0
H79 H 0.24711 0.12142 0.34125 0.0
H80 H 0.32418 0.29471 0.38466 0.0
H81 H 0.28538 0.25766 0.3941 0.0
H82 H 0.31046 0.35065 0.38091 0.0
H83 H 0.21765 0.33296 0.39727 0.0
C84 C 0.0864 0.05585 0.62937 0.0
C85 C 1.03683 1.03705 0.61979 0.0
C86 C 0.06722 1.03105 0.62506 0.0
C87 C 1.02578 0.06823 0.61899 0.0
C88 C 0.07541 0.0873 0.62824 0.0
C89 C 0.04503 0.09327 0.62317 0.0
N90 N 0.11611 0.04942 0.63404 0.0
C91 C 0.13573 0.07388 0.63757 0.0
C92 C 0.09543 0.11202 0.63201 0.0
C93 C 0.12573 0.10527 0.6366 0.0
Gd94 Gd 0.19413 0.97916 0.61696 0.0
Gd95 Gd 0.12734 0.99442 0.63641 0.0
N96 N 0.07888 1.00112 0.62539 0.0
C97 C 1.01856 1.01152 0.6153 0.0
C98 C 0.06094 0.97604 0.62126 0.0
C99 C 1.03067 0.9809 0.61604 0.0
H100 H 0.07001 0.95226 0.62199 0.0
H101 H 1.01664 0.96101 0.61266 0.0
H102 H 0.25412 0.96835 0.6394 0.0
H103 H 0.15954 0.07024 0.64084 0.0
H104 H 0.31195 0.96632 0.63909 0.0
H105 H 0.99512 1.01522 0.6112 0.0
H106 H 1.0025 0.07327 0.61498 0.0
H107 H 0.17178 0.94133 0.58782 0.0
H108 H 0.0879 0.13643 0.63123 0.0
H109 H 0.14158 0.12432 0.63934 0.0
H110 H 0.33799 0.95801 0.5921 0.0
H111 H 1.0363 0.11726 0.6223 0.0
H112 H 0.25216 0.93706 0.56193 0.0
H113 H 0.19491 0.92961 0.56573 0.0
N114 N 0.21478 0.959 0.59633 0.0
C115 C 0.24651 0.96027 0.59476 0.0
C116 C 0.19657 0.94615 0.5863 0.0
C117 C 0.24198 0.94307 0.57161 0.0
C118 C 0.20968 0.93883 0.57373 0.0
C119 C 0.26103 0.95281 0.58236 0.0
H120 H 0.30569 0.94841 0.57184 0.0
N121 N 0.24918 0.96859 0.61797 0.0
C122 C 0.26447 0.96527 0.60607 0.0
C123 C 0.31498 0.96493 0.61742 0.0
C124 C 0.29772 0.9635 0.6054 0.0
C125 C 0.26591 0.96767 0.62978 0.0
C126 C 0.29893 0.96632 0.62969 0.0
O127 O 0.11691 1.0035 0.61248 0.0
O128 O 0.15862 0.98681 0.59972 0.0
O129 O 0.16796 1.02204 0.62145 0.0
O130 O 0.21199 1.02381 0.60986 0.0
O131 O 0.12381 0.93901 0.63169 0.0
O132 O 0.16248 0.93065 0.61594 0.0
O133 O 0.19372 0.94471 0.63383 0.0
O134 O 0.16682 0.97443 0.64895 0.0
O135 O 0.09425 0.96496 0.64733 0.0
O136 O 0.10244 1.01283 0.65397 0.0
O137 O 0.21699 1.00878 0.63562 0.0
O138 O 0.17241 1.02108 0.64789 0.0
C139 C 0.13015 0.99948 0.60021 0.0
C140 C 0.13759 0.91884 0.62306 0.0
C141 C 0.1771 0.06705 0.60652 0.0
C142 C 0.19166 0.11221 0.59234 0.0
C143 C 0.13653 0.10091 0.59678 0.0
C144 C 0.14517 0.07473 0.60457 0.0
C145 C 0.15963 0.11944 0.59054 0.0
C146 C 0.20008 0.08645 0.60057 0.0
C147 C 0.18808 0.03981 0.61477 0.0
C148 C 0.31248 0.9589 0.59287 0.0
C149 C 0.29411 0.9535 0.58133 0.0
H150 H 0.34054 0.96368 0.61737 0.0
C151 C 0.18696 0.95198 0.64622 0.0
C152 C 0.2044 1.02489 0.64617 0.0
C153 C 0.08408 0.97535 0.67006 0.0
C154 C 0.05009 0.95109 0.68702 0.0
C155 C 0.10588 0.95981 0.69168 0.0
C156 C 0.10993 0.97301 0.67884 0.0
C157 C 0.07619 0.94869 0.69575 0.0
C158 C 0.05435 0.9646 0.67421 0.0
C159 C 0.08737 0.9865 0.65614 0.0
H160 H 0.1118 0.10635 0.59531 0.0
H161 H 0.12672 0.0606 0.60884 0.0
H162 H 0.15253 0.13881 0.58406 0.0
H163 H 0.22479 0.08037 0.60177 0.0
H164 H 0.12586 0.9579 0.69845 0.0
H165 H 0.13311 0.98097 0.67571 0.0
H166 H 0.07359 0.93841 0.7057 0.0
H167 H 1.03465 0.96582 0.66722 0.0
C168 C 0.22404 0.78547 0.87864 0.0
C169 C 0.23316 0.72886 0.87643 0.0
C170 C 0.24395 0.75928 0.87998 0.0
C171 C 0.20155 0.72458 0.87256 0.0
C172 C 0.19289 0.78132 0.87389 0.0
C173 C 0.18146 0.75071 0.87132 0.0
N174 N 0.23643 0.8151 0.88037 0.0
C175 C 0.21902 0.84122 0.87716 0.0
C176 C 0.17463 0.80812 0.87117 0.0
C177 C 0.1879 0.83813 0.87264 0.0
Gd178 Gd 0.31532 0.88442 0.87348 0.0
Gd179 Gd 0.28705 0.81555 0.8904 0.0
N180 N 0.27482 0.76417 0.8833 0.0
C181 C 0.25485 0.70389 0.87624 0.0
C182 C 0.29648 0.74037 0.88232 0.0
C183 C 0.28671 0.70978 0.87897 0.0
H184 H 0.32103 0.74488 0.88466 0.0
H185 H 0.30372 0.69074 0.87853 0.0
H186 H 0.3186 0.94532 0.89535 0.0
H187 H 0.22874 0.86458 0.87811 0.0
H188 H 0.35697 0.98478 0.90315 0.0
H189 H 0.24744 0.68018 0.87354 0.0
H190 H 0.19272 0.7013 0.86997 0.0
H191 H 0.34482 0.85593 0.84408 0.0
H192 H 0.15062 0.80589 0.8675 0.0
H193 H 0.17417 0.85897 0.87025 0.0
H194 H 0.44542 0.97205 0.87345 0.0
H195 H 0.15748 0.74711 0.86781 0.0
H196 H 0.43536 0.89731 0.83741 0.0
H197 H 0.39278 0.86071 0.83049 0.0
N198 N 0.35926 0.88975 0.85883 0.0
C199 C 0.38194 0.91078 0.86247 0.0
C200 C 0.36266 0.87243 0.84727 0.0
C201 C 0.41409 0.89552 0.84344 0.0
C202 C 0.39009 0.8749 0.83949 0.0
C203 C 0.4101 0.91402 0.85498 0.0
H204 H 0.45501 0.9385 0.8536 0.0
N205 N 0.34849 0.92675 0.88 0.0
C206 C 0.37647 0.92971 0.8735 0.0
C207 C 0.39212 0.97199 0.88848 0.0
C208 C 0.39909 0.95236 0.87754 0.0
C209 C 0.34107 0.94681 0.89033 0.0
C210 C 0.36283 0.96941 0.8948 0.0
O211 O 0.27809 0.80583 0.86732 0.0
O212 O 0.29858 0.8487 0.85656 0.0
O213 O 0.30391 0.92804 0.86316 0.0
O214 O 0.26973 0.88894 0.86398 0.0
O215 O 0.34238 0.80407 0.88485 0.0
O216 O 0.3603 0.84869 0.87381 0.0
O217 O 0.31779 0.88422 0.89589 0.0
O218 O 0.33258 0.83441 0.89888 0.0
O219 O 0.28448 0.77568 0.90415 0.0
O220 O 0.26814 0.82133 0.91065 0.0
O221 O 0.28069 0.90389 0.8914 0.0
O222 O 0.25609 0.85955 0.89936 0.0
C223 C 0.28354 0.82104 0.85585 0.0
C224 C 0.36678 0.8193 0.87854 0.0
C225 C 0.26579 0.9255 0.84579 0.0
C226 C 0.25308 0.9671 0.82959 0.0
C227 C 0.25514 0.91192 0.8225 0.0
C228 C 0.26299 0.90275 0.83561 0.0
C229 C 0.2507 0.94388 0.81943 0.0
C230 C 0.25952 0.95721 0.84286 0.0
C231 C 0.27604 0.9175 0.85951 0.0
C232 C 0.42766 0.95497 0.87044 0.0
C233 C 0.43312 0.93588 0.85915 0.0
H234 H 0.40893 0.98954 0.89195 0.0
C235 C 0.33448 0.86382 0.90242 0.0
C236 C 0.25783 0.89156 0.89947 0.0
C237 C 0.29624 0.79096 0.92626 0.0
C238 C 0.34846 0.7812 0.93568 0.0
C239 C 0.30385 0.79188 0.95047 0.0
C240 C 0.28391 0.79449 0.93927 0.0
C241 C 0.33589 0.78486 0.94874 0.0
C242 C 0.3286 0.78575 0.92456 0.0
C243 C 0.27588 0.79287 0.91433 0.0
H244 H 0.25339 0.89431 0.81462 0.0
H245 H 0.26702 0.87809 0.83774 0.0
H246 H 0.24658 0.95024 0.809 0.0
H247 H 0.26062 0.97423 0.85101 0.0
H248 H 0.29429 0.79438 0.96054 0.0
H249 H 0.25899 0.79907 0.94075 0.0
H250 H 0.35035 0.78107 0.9576 0.0
H251 H 0.33815 0.78405 0.91445 0.0
C252 C 0.55842 1.03563 0.10725 0.0
C253 C 0.61395 0.03968 0.10096 0.0
C254 C 0.58719 0.05182 0.10762 0.0
C255 C 0.61195 1.01046 0.09434 0.0
C256 C 0.55626 1.00682 0.10011 0.0
C257 C 0.5832 0.99413 0.0939 0.0
N258 N 0.53233 0.04899 0.11307 0.0
C259 C 0.50371 1.03429 0.11199 0.0
C260 C 0.52692 0.99186 0.09913 0.0
C261 C 0.50055 1.00578 0.10501 0.0
Gd262 Gd 0.47339 0.12475 0.11237 0.0
Gd263 Gd 0.54362 0.09468 0.12616 0.0
N264 N 0.58822 0.08079 0.11358 0.0
C265 C 0.64173 0.05772 0.10081 0.0
C266 C 0.615 0.09883 0.11323 0.0
C267 C 0.64217 0.08752 0.10687 0.0
H268 H 0.61544 0.12173 0.11809 0.0
H269 H 0.66348 0.10166 0.10673 0.0
H270 H 0.4135 0.132 0.13411 0.0
H271 H 0.48297 0.04412 0.11634 0.0
H272 H 0.37534 0.17267 0.14123 0.0
H273 H 0.6628 0.0491 0.09585 0.0
H274 H 0.63231 1.00066 0.08925 0.0
H275 H 0.50942 0.15365 0.08454 0.0
H276 H 0.52429 0.96978 0.09371 0.0
H277 H 0.47766 0.99449 0.10421 0.0
H278 H 0.39513 0.2599 0.1113 0.0
H279 H 0.5819 0.97192 0.08848 0.0
H280 H 0.4734 0.24634 0.07687 0.0
H281 H 0.50894 0.20225 0.07081 0.0
N282 N 0.47444 0.16981 0.09828 0.0
C283 C 0.45382 0.19328 0.10142 0.0
C284 C 0.49351 0.17245 0.0872 0.0
C285 C 0.47331 0.22491 0.08288 0.0
C286 C 0.4934 0.20007 0.07943 0.0
C287 C 0.45303 0.22166 0.09394 0.0
H288 H 0.43115 0.26777 0.0921 0.0
N289 N 0.434 0.16067 0.11878 0.0
C290 C 0.43335 0.18875 0.11214 0.0
C291 C 0.39098 0.20681 0.12651 0.0
C292 C 0.41177 0.2126 0.1158 0.0
C293 C 0.41326 0.15457 0.129 0.0
C294 C 0.39157 0.17755 0.13305 0.0
O295 O 0.55322 0.1038 0.10304 0.0
O296 O 0.50352 0.09997 0.09524 0.0
O297 O 0.46144 0.08283 0.10126 0.0
O298 O 0.42734 0.12135 0.10285 0.0
O299 O 0.55477 0.15107 0.12344 0.0
O300 O 0.50897 0.1697 0.11389 0.0
O301 O 0.4742 0.12665 0.13472 0.0
O302 O 0.52594 0.13515 0.13864 0.0
O303 O 0.58402 0.10199 0.1393 0.0
O304 O 0.55933 0.05778 0.14001 0.0
O305 O 0.45508 0.08932 0.13034 0.0
O306 O 0.50047 0.06602 0.138 0.0
C307 C 0.53422 0.09739 0.09275 0.0
C308 C 0.53838 0.17619 0.11844 0.0
C309 C 0.42613 0.08933 0.08338 0.0
C310 C 0.39336 0.06308 0.06661 0.0
C311 C 0.43342 0.1013 0.05971 0.0
C312 C 0.44169 0.10615 0.07318 0.0
C313 C 0.40917 0.08021 0.05642 0.0
C314 C 0.40288 0.06727 0.08007 0.0
C315 C 0.43393 0.09379 0.09759 0.0
C316 C 0.41143 0.24123 0.1086 0.0
C317 C 0.43194 0.24571 0.09767 0.0
H318 H 0.37417 0.22458 0.12969 0.0
C319 C 0.49658 0.13897 0.14194 0.0
C320 C 0.46822 0.06715 0.13859 0.0
C321 C 0.61534 0.05619 0.14078 0.0
C322 C 0.67256 0.06089 0.13854 0.0
C323 C 0.64624 1.01237 0.13194 0.0
C324 C 0.61701 1.02525 0.13562 0.0
C325 C 0.67403 1.03007 0.13341 0.0
C326 C 0.64321 0.07329 0.14244 0.0
C327 C 0.58505 0.07268 0.14315 0.0
H328 H 0.44533 0.11443 1.05183 0.0
H329 H 0.46013 0.12289 0.0756 0.0
H330 H 0.40221 0.07826 1.04594 0.0
H331 H 0.39189 0.05378 0.08811 0.0
H332 H 0.64734 0.98862 0.12792 0.0
H333 H 0.5958 1.01136 0.13409 0.0
H334 H 0.69654 1.01962 0.13081 0.0
H335 H 0.64193 0.09666 0.14691 0.0
C336 C 0.34614 0.81606 0.2321 0.0
C337 C 0.33885 0.75948 0.23587 0.0
C338 C 0.32774 0.7887 0.23093 0.0
C339 C 0.36905 0.75771 0.24164 0.0
C340 C 0.3761 0.81429 0.23832 0.0
C341 C 0.38757 0.78501 0.24288 0.0
N342 N 0.33405 0.84446 0.2279 0.0
C343 C 0.35102 0.87158 0.22975 0.0
C344 C 0.39346 0.84212 0.24007 0.0
C345 C 0.38078 0.87085 0.23584 0.0
Gd346 Gd 0.26256 0.90967 0.2339 0.0
Gd347 Gd 0.28465 0.84006 0.21678 0.0
N348 N 0.29797 0.79118 0.22589 0.0
C349 C 0.31891 0.73304 0.23517 0.0
C350 C 0.2782 0.76575 0.22534 0.0
C351 C 0.28842 0.73623 0.22994 0.0
H352 H 0.25478 0.76828 0.22112 0.0
H353 H 0.27286 0.71594 0.22939 0.0
H354 H 0.25727 0.97735 0.21683 0.0
H355 H 0.34203 0.89406 0.2267 0.0
H356 H 0.21909 1.02102 0.21373 0.0
H357 H 0.32668 0.71017 0.23881 0.0
H358 H 0.37805 0.73543 0.24544 0.0
H359 H 0.23767 0.86862 0.26133 0.0
H360 H 0.4165 0.84173 0.24483 0.0
H361 H 0.39394 0.89255 0.23728 0.0
H362 H 0.13549 0.99655 0.24478 0.0
H363 H 0.41059 0.78331 0.24761 0.0
H364 H 0.14959 0.90741 0.27412 0.0
H365 H 0.19231 0.86808 0.2768 0.0
N366 N 0.2211 0.90782 0.24985 0.0
C367 C 0.1986 0.93054 0.24866 0.0
C368 C 0.21959 0.8862 0.26012 0.0
C369 C 0.16963 0.90791 0.26733 0.0
C370 C 0.19372 0.88571 0.26888 0.0
C371 C 0.17203 0.93094 0.25723 0.0
H372 H 0.12832 0.95509 0.26198 0.0
N373 N 0.22927 0.95356 0.23145 0.0
C374 C 0.20266 0.95392 0.23905 0.0
C375 C 0.1861 1.00245 0.22828 0.0
C376 C 0.18024 0.97832 0.23764 0.0
C377 C 0.23568 0.97756 0.22264 0.0
C378 C 0.21414 1.00226 0.22086 0.0
O379 O 0.2806 0.8259 0.23981 0.0
O380 O 0.28822 0.87428 0.24884 0.0
O381 O 0.30765 0.91547 0.24366 0.0
O382 O 0.2728 0.95342 0.24442 0.0
O383 O 0.23002 0.82976 0.22307 0.0
O384 O 0.21517 0.87656 0.23299 0.0
O385 O 0.25454 0.91423 0.21175 0.0
O386 O 0.24257 0.86372 0.20766 0.0
O387 O 0.26533 0.8127 0.20036 0.0
O388 O 0.31546 0.81681 0.20211 0.0
O389 O 0.29506 0.92856 0.21507 0.0
O390 O 0.31423 0.88307 0.20564 0.0
C391 C 0.28964 0.84304 0.25038 0.0
C392 C 0.20666 0.8472 0.22878 0.0
C393 C 0.30877 0.94938 0.26239 0.0
C394 C 0.33326 0.9841 0.27896 0.0
C395 C 0.30461 0.93689 0.28614 0.0
C396 C 0.29697 0.93023 0.27277 0.0
C397 C 0.32238 0.96374 0.28927 0.0
C398 C 0.32748 0.97567 0.26547 0.0
C399 C 0.30057 0.94351 0.24831 0.0
C400 C 0.15312 0.97818 0.24579 0.0
C401 C 0.14906 0.95456 0.25558 0.0
H402 H 0.16943 1.02158 0.22687 0.0
C403 C 0.23748 0.89353 0.20541 0.0
C404 C 0.31493 0.91531 0.2059 0.0
C405 C 0.29435 0.76844 0.19364 0.0
C406 C 0.26663 0.71994 0.18755 0.0
C407 C 0.32068 0.7177 0.19575 0.0
C408 C 0.32124 0.75066 0.197 0.0
C409 C 0.29342 0.7023 0.19118 0.0
C410 C 0.26755 0.7529 0.18868 0.0
C411 C 0.29232 0.80279 0.196 0.0
H412 H 0.29562 0.92194 0.29415 0.0
H413 H 0.28175 0.91034 0.27055 0.0
H414 H 0.32574 0.96947 0.29981 0.0
H415 H 0.3361 0.99046 0.25731 0.0
H416 H 0.34129 0.70403 0.19851 0.0
H417 H 0.34229 0.76203 0.20089 0.0
H418 H 0.29333 0.67676 0.1904 0.0
H419 H 0.24667 0.76657 0.18622 0.0
C420 C 0.46901 0.04202 0.48989 0.0
C421 C 0.5255 1.03853 0.49426 0.0
C422 C 0.49735 1.0254 0.48907 0.0
C423 C 0.52531 0.06928 0.49953 0.0
C424 C 0.46866 0.07231 0.4959 0.0
C425 C 0.49698 0.08612 0.50035 0.0
N426 N 0.4416 1.02752 0.48595 0.0
C427 C 0.41335 0.04193 0.48834 0.0
C428 C 0.4397 0.08742 0.49778 0.0
C429 C 0.41194 0.07195 0.49416 0.0
Gd430 Gd 0.38033 0.9531 0.49208 0.0
Gd431 Gd 0.44919 0.97896 0.47432 0.0
N432 N 0.49664 0.99505 0.48455 0.0
C433 C 0.55276 1.01985 0.49456 0.0
C434 C 0.52284 0.97627 0.48536 0.0
C435 C 0.5513 0.98847 0.49026 0.0
H436 H 0.52177 0.9519 0.48208 0.0
H437 H 0.57208 0.97365 0.49074 0.0
H438 H 0.31442 0.94403 0.47391 0.0
H439 H 0.39162 1.03061 0.48601 0.0
H440 H 0.2738 0.90304 0.46991 0.0
H441 H 0.57478 1.02913 0.49849 0.0
H442 H 0.54677 0.07985 0.50345 0.0
H443 H 0.42173 0.92888 0.51939 0.0
H444 H 0.43846 0.1106 0.50239 0.0
H445 H 0.38932 0.08307 0.49592 0.0
H446 H 0.30094 0.81987 0.50082 0.0
H447 H 0.49707 0.10944 0.50486 0.0
H448 H 0.38705 0.83804 0.53124 0.0
H449 H 0.42363 0.88297 0.53466 0.0
N450 N 0.38483 0.9101 0.50718 0.0
C451 C 0.36342 0.88638 0.50559 0.0
C452 C 0.40558 0.90959 0.51778 0.0
C453 C 0.38606 0.8582 0.52449 0.0
C454 C 0.40674 0.88353 0.52646 0.0
C455 C 0.36379 0.85956 0.51407 0.0
H456 H 0.34155 0.81449 0.51844 0.0
N457 N 0.33947 0.9166 0.48837 0.0
C458 C 0.34035 0.88954 0.49575 0.0
C459 C 0.29345 0.87057 0.48442 0.0
C460 C 0.3173 0.86579 0.494 0.0
C461 C 0.31565 0.9219 0.47935 0.0
C462 C 0.29249 0.89887 0.47715 0.0
O463 O 0.46214 0.9757 0.49762 0.0
O464 O 0.4138 0.9799 0.50708 0.0
O465 O 0.33686 0.95674 0.5036 0.0
O466 O 0.37022 0.99603 0.50289 0.0
O467 O 0.45829 0.92304 0.47738 0.0
O468 O 0.41674 0.90842 0.49094 0.0
O469 O 0.37344 0.94845 0.47007 0.0
O470 O 0.42378 0.93864 0.46433 0.0
O471 O 0.48988 0.96875 0.46185 0.0
O472 O 0.46083 1.0087 0.45703 0.0
O473 O 0.36104 0.98936 0.47421 0.0
O474 O 0.40551 1.00708 0.46317 0.0
C475 C 0.44477 0.98289 0.50839 0.0
C476 C 0.44384 0.90002 0.48461 0.0
C477 C 0.34278 0.98887 0.52305 0.0
C478 C 0.33586 1.02507 0.54191 0.0
C479 C 0.34728 0.96943 0.54598 0.0
C480 C 0.34778 0.96386 0.53211 0.0
C481 C 0.3412 0.99975 0.55089 0.0
C482 C 0.33735 1.01936 0.52797 0.0
C483 C 0.34474 0.9844 0.50841 0.0
C484 C 0.31834 0.83845 0.50207 0.0
C485 C 0.34148 0.83538 0.5121 0.0
H486 H 0.27533 0.85287 0.48277 0.0
C487 C 0.39399 0.93945 0.46115 0.0
C488 C 0.37346 1.00839 0.46432 0.0
C489 C 0.48853 0.98356 0.43914 0.0
C490 C 0.52296 0.96321 0.4215 0.0
C491 C 0.46808 0.97533 0.41654 0.0
C492 C 0.4635 0.98513 0.42987 0.0
C493 C 0.49759 0.96413 0.41237 0.0
C494 C 0.51815 0.97301 0.43484 0.0
C495 C 0.48484 0.99163 0.45347 0.0
H496 H 0.35107 0.95007 0.55296 0.0
H497 H 0.35204 0.94013 0.52852 0.0
H498 H 0.33956 1.00304 0.5617 0.0
H499 H 0.33407 1.03862 0.52087 0.0
H500 H 0.44866 0.97622 0.40944 0.0
H501 H 0.44043 0.99342 0.43296 0.0
H502 H 0.50071 0.95659 0.40201 0.0
H503 H 0.53741 0.97167 0.44205 0.0
C504 C 0.32553 0.26351 0.7453 0.0
C505 C 0.32895 0.31823 0.75288 0.0
C506 C 0.34087 0.29279 0.74524 0.0
C507 C 0.30035 0.31474 0.75984 0.0
C508 C 0.29751 0.25975 0.75288 0.0
C509 C 0.28465 0.28563 0.75982 0.0
N510 N 0.33923 0.23834 0.73889 0.0
C511 C 0.32577 0.20907 0.73994 0.0
C512 C 0.28364 0.22983 0.75366 0.0
C513 C 0.29802 0.20437 0.74729 0.0
Gd514 Gd 0.4175 0.18293 0.73802 0.0
Gd515 Gd 0.38302 0.25237 0.72504 0.0
N516 N 0.36915 0.29536 0.7388 0.0
C517 C 0.34694 0.34594 0.75388 0.0
C518 C 0.38709 0.32217 0.73992 0.0
C519 C 0.37647 0.34756 0.74767 0.0
H520 H 0.40972 0.32365 0.7349 0.0
H521 H 0.39102 0.36844 0.74881 0.0
H522 H 0.42538 0.12239 0.71673 0.0
H523 H 0.33607 0.18888 0.73535 0.0
H524 H 0.46673 0.08468 0.70971 0.0
H525 H 0.33873 0.3658 0.7598 0.0
H526 H 0.29069 0.33413 0.76565 0.0
H527 H 0.44657 0.22149 0.7652 0.0
H528 H 0.2622 0.226 0.75941 0.0
H529 H 0.28774 0.18098 0.74803 0.0
H530 H 0.55481 0.1091 0.73844 0.0
H531 H 0.26304 0.28309 0.76557 0.0
H532 H 0.54085 0.18924 0.77204 0.0
H533 H 0.49591 0.22342 0.77835 0.0
N534 N 0.46344 0.18703 0.75136 0.0
C535 C 0.48737 0.16701 0.74813 0.0
C536 C 0.46587 0.2064 0.76235 0.0
C537 C 0.51919 0.18826 0.76623 0.0
C538 C 0.49387 0.20759 0.76982 0.0
C539 C 0.51605 0.16739 0.75536 0.0
H540 H 0.5627 0.14675 0.75705 0.0
N541 N 0.4544 0.14485 0.73138 0.0
C542 C 0.48285 0.14561 0.7377 0.0
C543 C 0.50113 0.10237 0.72386 0.0
C544 C 0.50699 0.12429 0.73415 0.0
C545 C 0.44827 0.12315 0.72155 0.0
C546 C 0.47158 0.10172 0.71758 0.0
O547 O 0.39531 0.26085 0.7479 0.0
O548 O 0.39173 0.21114 0.75545 0.0
O549 O 0.37712 0.16765 0.74941 0.0
O550 O 0.41888 0.13752 0.74832 0.0
O551 O 0.43907 0.26533 0.72579 0.0
O552 O 0.45994 0.22089 0.73576 0.0
O553 O 0.41891 0.18348 0.71556 0.0
O554 O 0.42041 0.236 0.71075 0.0
O555 O 0.3817 0.29718 0.71404 0.0
O556 O 0.34624 0.26207 0.71034 0.0
O557 O 0.38019 0.16331 0.72102 0.0
O558 O 0.35588 0.20844 0.71349 0.0
C559 C 0.38916 0.24172 0.75814 0.0
C560 C 0.46495 0.25013 0.7307 0.0
C561 C 0.39003 0.13965 0.76884 0.0
C562 C 0.35739 0.13209 0.78882 0.0
C563 C 0.41352 0.14363 0.79107 0.0
C564 C 0.41657 0.1445 0.77706 0.0
C565 C 0.38421 0.13729 0.79695 0.0
C566 C 0.36056 0.13412 0.77475 0.0
C567 C 0.39166 0.14276 0.75413 0.0
C568 C 0.53593 0.1252 0.74107 0.0
C569 C 0.54042 0.14666 0.75167 0.0
H570 H 0.51909 0.08564 0.72081 0.0
C571 C 0.42418 0.20666 0.70711 0.0
C572 C 0.35762 0.17627 0.71293 0.0
C573 C 0.32836 0.31418 0.71385 0.0
C574 C 0.31477 0.36661 0.72243 0.0
C575 C 0.27674 0.3238 0.72389 0.0
C576 C 0.29814 0.30337 0.71765 0.0
C577 C 0.28499 0.35528 0.72632 0.0
C578 C 0.33607 0.34592 0.71603 0.0
C579 C 0.35337 0.29183 0.70955 0.0
H580 H 0.43405 0.14732 0.7974 0.0
H581 H 0.43954 0.14908 0.77271 0.0
H582 H 0.38293 0.1353 0.80783 0.0
H583 H 0.34008 0.13125 0.76829 0.0
H584 H 0.25376 0.31513 0.72693 0.0
H585 H 0.29136 0.27889 0.71626 0.0
H586 H 0.268 0.37087 0.73102 0.0
H587 H 0.35893 0.35446 0.71271 0.0
C588 C 1.01368 1.01067 0.99398 0.0
C589 C 0.95682 1.01301 0.9977 0.0
C590 C 0.98475 1.02613 0.99232 0.0
C591 C 0.95789 0.98357 1.00422 0.0
C592 C 1.01478 0.98163 1.00102 0.0
C593 C 0.98675 0.96795 1.00588 0.0
N594 N 0.0408 1.02511 0.98962 0.0
C595 C 0.06939 1.01136 0.99201 0.0
C596 C 0.04411 0.96753 1.00333 0.0
C597 C 0.0715 0.98256 0.99888 0.0
Gd598 Gd 0.10064 0.10091 0.9927 0.0
Gd599 Gd 1.03189 0.07154 0.97677 0.0
N600 N 0.98451 0.05543 0.9866 0.0
C601 C 0.9288 1.03047 0.9968 0.0
C602 C 0.95751 0.07287 0.98594 0.0
C603 C 0.92921 0.0606 0.99099 0.0
H604 H 0.95786 0.09616 0.98141 0.0
H605 H 0.90774 0.07438 0.99042 0.0
H606 H 0.16303 0.11109 0.97241 0.0
H607 H 0.0908 1.02228 0.98877 0.0
H608 H 0.20044 0.15356 0.96627 0.0
H609 H 0.90688 1.02118 1.00082 0.0
H610 H 0.93662 0.97305 1.00835 0.0
H611 H 0.0603 0.12745 1.01982 0.0
H612 H 0.04592 0.94529 1.00872 0.0
H613 H 0.09434 0.97196 1.00074 0.0
H614 H 0.17506 0.23827 0.99656 0.0
H615 H 0.98724 0.94559 1.01124 0.0
H616 H 0.09311 0.22057 1.02906 0.0
H617 H 0.05791 0.17523 1.03392 0.0
N618 N 0.09659 0.14527 1.00703 0.0
C619 C 0.11703 0.16945 1.00457 0.0
C620 C 0.07609 0.14679 1.01767 0.0
C621 C 0.09447 0.1995 1.02289 0.0
C622 C 0.07456 0.17396 1.02566 0.0
C623 C 0.11617 0.19741 1.01229 0.0
H624 H 0.13664 0.244 1.015 0.0
N625 N 0.1398 0.13837 0.98744 0.0
C626 C 0.13889 0.16609 0.9943 0.0
C627 C 0.1823 0.18627 0.98098 0.0
C628 C 0.16021 0.19078 0.9913 0.0
C629 C 0.16192 0.13346 0.97764 0.0
C630 C 0.18325 0.1574 0.97418 0.0
O631 O 1.01923 0.07631 0.99994 0.0
O632 O 0.06847 0.07512 1.00876 0.0
O633 O 0.1461 0.09816 1.00273 0.0
O634 O 0.11194 0.05969 1.00452 0.0
O635 O 1.01941 0.12698 0.9803 0.0
O636 O 0.0645 0.14552 0.99061 0.0
O637 O 0.10413 0.10306 0.97052 0.0
O638 O 0.0534 0.11384 0.96599 0.0
O639 O 0.99492 0.07921 0.96179 0.0
O640 O 1.0193 1.03493 0.96247 0.0
O641 O 0.12023 0.06546 0.97492 0.0
O642 O 0.0756 0.04307 0.96604 0.0
C643 C 1.03767 0.07083 1.01057 0.0
C644 C 1.03525 0.15187 0.98575 0.0
C645 C 0.14659 0.06761 1.0226 0.0
C646 C 0.18179 0.04664 1.03983 0.0
C647 C 0.13736 0.08015 1.04607 0.0
C648 C 0.129 0.08318 1.03252 0.0
C649 C 0.16381 0.06237 1.04973 0.0
C650 C 0.1721 0.04865 1.0263 0.0
C651 C 0.13928 0.07096 1.00828 0.0
C652 C 0.15897 0.21899 0.99874 0.0
C653 C 0.13708 0.22225 1.00924 0.0
H654 H 0.19893 0.20475 0.9783 0.0
C655 C 0.08326 0.11712 0.96318 0.0
C656 C 0.10766 0.04383 0.96623 0.0
C657 C 1.00718 0.0543 0.9413 0.0
C658 C 1.03671 0.07985 0.92323 0.0
C659 C 0.9976 1.03912 0.91815 0.0
C660 C 0.99059 1.03614 0.93188 0.0
C661 C 1.02006 0.06123 0.91379 0.0
C662 C 1.03144 0.07432 0.93698 0.0
C663 C 0.99997 0.05248 0.95572 0.0
H664 H 0.12384 0.09232 0.05373 0.0
H665 H 0.10894 0.0976 1.02979 0.0
H666 H 0.17073 0.06206 0.06025 0.0
H667 H 0.1848 1.03613 1.01848 0.0
H668 H 0.98463 1.02527 0.91082 0.0
H669 H 0.97227 1.01991 0.93511 0.0
H670 H 1.02288 0.06489 0.90305 0.0
H671 H 0.04499 0.08709 0.94436 0.0
C672 C 0.87964 0.9042 0.75534 0.0
C673 C 0.89977 0.95033 0.74358 0.0
C674 C 0.87629 0.92705 0.74544 0.0
C675 C 0.92701 0.94981 0.75167 0.0
C676 C 0.90649 0.90412 0.76376 0.0
C677 C 0.93032 0.9268 0.76176 0.0
N678 N 0.85637 0.88229 0.75684 0.0
C679 C 0.8575 0.86102 0.76727 0.0
C680 C 0.90837 0.88153 0.77407 0.0
C681 C 0.8836 0.86013 0.77591 0.0
Gd682 Gd 0.78882 0.81669 0.72395 0.0
Gd683 Gd 0.81383 0.88543 0.74142 0.0
N684 N 0.84948 0.92718 0.73794 0.0
C685 C 0.89491 0.97373 0.73379 0.0
C686 C 0.84413 0.95049 0.72868 0.0
C687 C 0.86683 0.97395 0.72638 0.0
H688 H 0.82237 0.95084 0.72297 0.0
H689 H 0.86266 0.99215 0.71891 0.0
H690 H 0.81437 0.74268 0.72994 0.0
H691 H 0.83882 0.84405 0.76869 0.0
H692 H 0.79184 0.6916 0.73745 0.0
H693 H 0.91242 0.99197 0.73201 0.0
H694 H 0.94539 0.96739 0.75035 0.0
H695 H 0.73688 0.87337 0.7358 0.0
H696 H 0.92859 0.88071 0.78076 0.0
H697 H 0.88466 0.84282 0.78395 0.0
H698 H 0.68566 0.71668 0.75009 0.0
H699 H 0.95123 0.92698 0.76808 0.0
H700 H 0.65616 0.82551 0.75108 0.0
H701 H 0.68418 0.87509 0.74557 0.0
N702 N 0.73972 0.82327 0.73518 0.0
C703 C 0.72476 0.79557 0.7384 0.0
C704 C 0.72543 0.85146 0.7379 0.0
C705 C 0.67947 0.82452 0.7466 0.0
C706 C 0.69524 0.85254 0.74355 0.0
C707 C 0.69433 0.79559 0.74424 0.0
H708 H 0.65664 0.76658 0.7524 0.0
N709 N 0.77137 0.7679 0.73253 0.0
C710 C 0.74099 0.76709 0.73697 0.0
C711 C 0.74576 0.71099 0.74137 0.0
C712 C 0.72741 0.7385 0.74153 0.0
C713 C 0.78989 0.74146 0.73301 0.0
C714 C 0.77725 0.71259 0.73727 0.0
O715 O 0.81998 0.8894 0.71911 0.0
O716 O 0.83239 0.83897 0.7151 0.0
O717 O 0.79746 0.77742 0.71044 0.0
O718 O 0.76133 0.8109 0.70556 0.0
O719 O 0.7801 0.9053 0.72305 0.0
O720 O 0.7596 0.86044 0.71354 0.0
O721 O 0.78969 0.80178 0.74686 0.0
O722 O 0.78818 0.85028 0.75655 0.0
O723 O 0.771 0.89349 0.75268 0.0
O724 O 0.80706 0.93019 0.75172 0.0
O725 O 0.84399 0.80609 0.72916 0.0
O726 O 0.85998 0.85094 0.74038 0.0
C727 C 0.83677 0.86886 0.71259 0.0
C728 C 0.75959 0.89256 0.71393 0.0
C729 C 0.79252 0.79192 0.68758 0.0
C730 C 0.83481 0.77956 0.67176 0.0
C731 C 0.79537 0.81884 0.66591 0.0
C732 C 0.78027 0.81388 0.67828 0.0
C733 C 0.82266 0.80193 0.66266 0.0
C734 C 0.81958 0.77477 0.68414 0.0
C735 C 0.77862 0.78786 0.70115 0.0
C736 C 0.69657 0.73846 0.74668 0.0
C737 C 0.68007 0.76691 0.74801 0.0
H738 H 0.73615 0.68862 0.7448 0.0
C739 C 0.78379 0.81917 0.75772 0.0
C740 C 0.86763 0.82198 0.73553 0.0
C741 C 0.7755 0.92769 0.77123 0.0
C742 C 0.75478 0.96219 0.78882 0.0
C743 C 0.7854 0.91532 0.7947 0.0
C744 C 0.78926 0.90832 0.78107 0.0
C745 C 0.76861 0.9422 0.79859 0.0
C746 C 0.75776 0.95403 0.77511 0.0
C747 C 0.78003 0.92138 0.75684 0.0
H748 H 0.78594 0.83591 0.65883 0.0
H749 H 0.75937 0.82751 0.68063 0.0
H750 H 0.83392 0.80593 0.65299 0.0
H751 H 0.82936 0.75803 0.69131 0.0
H752 H 0.79616 0.90034 0.80228 0.0
H753 H 0.803 0.88789 0.77823 0.0
H754 H 0.76767 0.94782 0.80922 0.0
H755 H 0.7469 0.96845 0.76735 0.0
C756 C 0.95885 0.18889 0.49676 0.0
C757 C 0.91738 0.20814 0.482 0.0
C758 C 0.93823 0.184 0.48611 0.0
C759 C 0.9179 0.2374 0.48867 0.0
C760 C 0.95893 0.21796 0.50371 0.0
C761 C 0.93855 0.24226 0.49953 0.0
N762 N 0.97887 0.16516 0.50032 0.0
C763 C 0.99813 0.16833 0.51134 0.0
C764 C 0.97939 0.22167 0.5147 0.0
C765 C 0.99885 0.19665 0.51859 0.0
Gd766 Gd 0.04603 0.08564 0.4738 0.0
Gd767 Gd 0.97599 0.11863 0.4872 0.0
N768 N 0.93804 0.15534 0.47997 0.0
C769 C 0.89641 0.20203 0.47138 0.0
C770 C 0.91721 0.149 0.4698 0.0
C771 C 0.89621 0.17225 0.46532 0.0
H772 H 0.91681 0.126 0.46508 0.0
H773 H 0.87993 0.1672 0.45718 0.0
H774 H 0.11884 0.10921 0.48245 0.0
H775 H 1.01365 0.14937 0.5143 0.0
H776 H 0.16514 0.08699 0.4945 0.0
H777 H 0.88011 0.21999 0.46789 0.0
H778 H 0.90218 0.25629 0.48561 0.0
H779 H 0.98218 0.04027 0.48475 0.0
H780 H 0.98014 0.24364 0.5203 0.0
H781 H 1.01455 0.19922 0.52714 0.0
H782 H 0.12896 0.98695 0.51114 0.0
H783 H 0.93844 0.26483 0.50469 0.0
H784 H 1.01923 0.96287 0.50697 0.0
H785 H 0.97395 0.99099 0.49691 0.0
N786 N 1.03196 0.04118 0.48728 0.0
C787 C 0.05725 1.0262 0.49305 0.0
C788 C 1.0024 1.02874 0.48878 0.0
C789 C 1.02316 0.98469 0.50147 0.0
C790 C 0.99755 1.00052 0.49583 0.0
C791 C 0.05339 0.99763 0.50028 0.0
H792 H 0.07698 0.96121 0.51192 0.0
N793 N 0.08956 0.06953 0.48666 0.0
C794 C 0.08688 0.04065 0.49264 0.0
C795 C 0.14143 0.04369 0.49978 0.0
C796 C 0.11285 1.02702 0.49939 0.0
C797 C 0.11716 0.08626 0.48724 0.0
C798 C 0.14341 0.07365 0.49389 0.0
O799 O 0.97728 0.11863 0.46479 0.0
O800 O 1.02919 0.12611 0.46105 0.0
O801 O 0.08689 0.09177 0.46083 0.0
O802 O 0.06124 0.04815 0.46018 0.0
O803 O 0.95732 0.08197 0.46978 0.0
O804 O 1.0023 0.05756 0.46225 0.0
O805 O 0.05592 0.09557 0.49671 0.0
O806 O 1.00598 0.09416 0.50449 0.0
O807 O 0.96231 0.07942 0.49982 0.0
O808 O 0.92944 0.11817 0.49641 0.0
O809 O 0.05864 0.14178 0.47637 0.0
O810 O 1.01279 0.16217 0.48515 0.0
C811 C 0.99999 0.13032 0.45754 0.0
C812 C 0.97009 0.05925 0.46173 0.0
C813 C 0.11726 0.04521 0.45945 0.0
C814 C 0.1744 0.04878 0.46238 0.0
C815 C 0.14712 1.00016 0.46796 0.0
C816 C 0.11822 1.01385 0.46423 0.0
C817 C 0.17525 1.01756 0.46706 0.0
C818 C 0.14552 0.06193 0.45827 0.0
C819 C 0.08731 0.06243 0.45704 0.0
C820 C 0.10921 0.99789 0.506 0.0
C821 C 0.07958 0.98327 0.50645 0.0
H822 H 0.16184 1.03405 0.50493 0.0
C823 C 1.03662 0.09075 0.50702 0.0
C824 C 0.04261 0.16754 0.48093 0.0
C825 C 0.9279 0.09208 0.51741 0.0
C826 C 0.89321 0.07589 0.53574 0.0
C827 C 0.94011 0.10746 0.54037 0.0
C828 C 0.94744 0.10772 0.52667 0.0
C829 C 0.91304 0.09191 0.54491 0.0
C830 C 0.90127 0.07577 0.52198 0.0
C831 C 0.9352 0.09203 0.50299 0.0
H832 H 0.14764 0.97609 0.47169 0.0
H833 H 0.09673 1.00021 0.4654 0.0
H834 H 0.19745 1.00673 0.46989 0.0
H835 H 0.14497 0.08584 0.45429 0.0
H836 H 0.95522 0.1197 0.54747 0.0
H837 H 0.96842 0.11987 0.52335 0.0
H838 H 0.9073 0.09322 0.55553 0.0
H839 H 0.88684 0.0631 0.51474 0.0
C840 C 0.60341 0.13754 0.25624 0.0
C841 C 0.58737 0.08898 0.24519 0.0
C842 C 0.60947 0.11352 0.24714 0.0
C843 C 0.55869 0.08945 0.2523 0.0
C844 C 0.57515 0.13754 0.26376 0.0
C845 C 0.55262 0.11366 0.26158 0.0
N846 N 0.62569 0.16027 0.25809 0.0
C847 C 0.62212 0.18244 0.268 0.0
C848 C 0.57069 0.16115 0.27344 0.0
C849 C 0.59444 0.18347 0.27567 0.0
Gd850 Gd 0.70154 0.22417 0.22778 0.0
Gd851 Gd 0.67084 0.15697 0.24424 0.0
N852 N 0.63764 0.11342 0.24063 0.0
C853 C 0.59502 0.06439 0.23634 0.0
C854 C 0.64563 0.08912 0.23228 0.0
C855 C 0.62439 0.06437 0.22993 0.0
H856 H 0.66841 0.08883 0.22738 0.0
H857 H 0.63071 0.04526 0.22321 0.0
H858 H 0.67734 0.29847 0.22889 0.0
H859 H 0.64006 0.20002 0.26974 0.0
H860 H 0.6959 0.34955 0.23838 0.0
H861 H 0.57868 0.0451 0.23456 0.0
H862 H 0.54133 0.0709 0.25089 0.0
H863 H 0.75513 0.16728 0.23886 0.0
H864 H 0.5493 0.16198 0.27942 0.0
H865 H 0.59144 0.20152 0.28329 0.0
H866 H 0.7905 0.3225 0.26242 0.0
H867 H 0.53066 0.1134 0.26719 0.0
H868 H 0.82262 0.21432 0.26341 0.0
H869 H 0.80199 0.16551 0.25302 0.0
N870 N 0.74683 0.2165 0.24148 0.0
C871 C 0.75869 0.24411 0.24674 0.0
C872 C 0.76281 0.18884 0.24337 0.0
C873 C 0.80156 0.21535 0.25721 0.0
C874 C 0.78993 0.18774 0.2514 0.0
C875 C 0.78616 0.24402 0.25484 0.0
H876 H 0.81847 0.27265 0.26662 0.0
N877 N 0.71543 0.27243 0.23719 0.0
C878 C 0.74287 0.27274 0.24439 0.0
C879 C 0.73701 0.32905 0.24778 0.0
C880 C 0.75412 0.30118 0.25003 0.0
C881 C 0.6987 0.29935 0.23487 0.0
C882 C 0.70921 0.32812 0.24017 0.0
O883 O 0.66688 0.15045 0.22216 0.0
O884 O 0.66276 0.20144 0.21567 0.0
O885 O 0.69327 0.25189 0.20937 0.0
O886 O 0.74011 0.24655 0.21718 0.0
O887 O 0.70709 0.13513 0.22711 0.0
O888 O 0.72883 0.17929 0.21745 0.0
O889 O 0.69103 0.23946 0.25029 0.0
O890 O 0.69386 0.19154 0.26017 0.0
O891 O 0.67575 0.11651 0.25768 0.0
O892 O 0.71512 0.14899 0.25396 0.0
O893 O 0.64644 0.23816 0.23104 0.0
O894 O 0.62693 0.1928 0.2409 0.0
C895 C 0.66105 0.17142 0.21284 0.0
C896 C 0.72815 0.1472 0.21801 0.0
C897 C 0.73513 0.24327 0.19377 0.0
C898 C 0.73603 0.24825 0.16931 0.0
C899 C 0.77123 0.21138 0.18033 0.0
C900 C 0.7592 0.22037 0.19288 0.0
C901 C 0.75983 0.22538 0.16855 0.0
C902 C 0.7235 0.25673 0.18194 0.0
C903 C 0.72328 0.25461 0.20691 0.0
C904 C 0.78155 0.30088 0.25797 0.0
C905 C 0.79745 0.27244 0.26038 0.0
H906 H 0.74493 0.35135 0.25196 0.0
C907 C 0.69667 0.22266 0.2614 0.0
C908 C 0.62113 0.22213 0.23602 0.0
C909 C 0.71179 0.12781 0.27559 0.0
C910 C 0.75269 0.13195 0.29293 0.0
C911 C 0.69681 0.13163 0.29908 0.0
C912 C 0.6883 0.12883 0.28553 0.0
C913 C 0.72865 0.13275 0.3028 0.0
C914 C 0.7436 0.13053 0.2793 0.0
C915 C 0.70427 0.12548 0.26118 0.0
H916 H 0.78992 0.19401 0.17976 0.0
H917 H 0.76916 0.20969 0.20185 0.0
H918 H 0.77022 0.21919 0.15893 0.0
H919 H 0.706 0.27535 0.18267 0.0
H920 H 0.67867 0.1322 0.30677 0.0
H921 H 0.66352 0.12763 0.28286 0.0
H922 H 0.73412 0.13301 0.31346 0.0
H923 H 0.76118 0.13119 0.27138 0.0
C924 C 0.71514 0.91142 0.99897 0.0
C925 C 0.76483 0.89443 0.98925 0.0
C926 C 0.73957 0.91604 0.9899 0.0
C927 C 0.76482 0.86777 0.99773 0.0
C928 C 0.7154 0.8851 1.00774 0.0
C929 C 0.74018 0.86314 1.00696 0.0
N930 N 0.69143 0.93302 0.99941 0.0
C931 C 0.66814 0.93054 1.00892 0.0
C932 C 0.69099 0.88187 1.01715 0.0
C933 C 0.66742 0.90483 1.0178 0.0
Gd934 Gd 0.62597 0.998 0.96589 0.0
Gd935 Gd 0.69479 0.97499 0.98373 0.0
N936 N 0.73916 0.94228 0.98201 0.0
C937 C 0.78955 0.90051 0.98023 0.0
C938 C 0.76345 0.9487 0.97338 0.0
C939 C 0.78892 0.92786 0.97231 0.0
H940 H 0.76323 0.97002 0.96735 0.0
H941 H 0.80807 0.93295 0.96541 0.0
H942 H 0.55443 0.96725 0.97086 0.0
H943 H 0.64949 0.94773 1.00941 0.0
H944 H 0.50166 0.98573 0.9781 0.0
H945 H 0.80938 0.88447 0.97943 0.0
H946 H 0.78395 0.85082 0.99734 0.0
H947 H 0.67884 0.05637 0.97597 0.0
H948 H 0.69035 0.86198 1.02405 0.0
H949 H 0.64859 0.90269 1.02513 0.0
H950 H 0.51922 0.09282 0.99214 0.0
H951 H 0.7407 0.84268 1.01356 0.0
H952 H 0.62516 0.13181 0.99237 0.0
H953 H 0.67647 0.10889 0.98585 0.0
N954 N 0.62933 0.04795 0.97674 0.0
C955 C 0.60071 0.06025 0.98039 0.0
C956 C 0.65619 0.06527 0.9787 0.0
C957 C 0.62596 0.10838 0.98798 0.0
C958 C 0.65495 0.09549 0.98435 0.0
C959 C 0.59839 0.09073 0.98611 0.0
H960 H 0.56668 0.12589 0.99438 0.0
N961 N 0.57672 1.01135 0.97474 0.0
C962 C 0.57364 0.04157 0.97921 0.0
C963 C 0.51793 1.03264 0.98301 0.0
C964 C 0.54411 0.05289 0.98361 0.0
C965 C 0.55154 0.99119 0.97446 0.0
C966 C 0.52172 1.0016 0.9785 0.0
O967 O 0.70317 0.96855 0.96198 0.0
O968 O 0.65288 0.95909 0.95556 0.0
O969 O 0.59275 0.98024 0.95104 0.0
O970 O 0.60893 1.0282 0.9496 0.0
O971 O 0.71448 1.00882 0.96532 0.0
O972 O 0.66949 1.0276 0.95513 0.0
O973 O 0.61173 0.99612 0.98904 0.0
O974 O 0.65986 0.99996 0.99875 0.0
O975 O 0.70025 1.0212 0.9923 0.0
O976 O 0.73606 0.98497 0.99605 0.0
O977 O 0.61583 0.94316 0.97115 0.0
O978 O 0.66188 0.9278 0.9815 0.0
C979 C 0.68298 0.95936 0.95293 0.0
C980 C 0.70167 1.02845 0.95584 0.0
C981 C 0.55574 1.0175 0.9433 0.0
C982 C 0.50103 1.00292 0.93849 0.0
C983 C 0.51439 0.05708 0.9445 0.0
C984 C 0.54617 0.04881 0.94567 0.0
C985 C 0.4919 1.03435 0.94097 0.0
C986 C 0.53307 0.99485 0.93961 0.0
C987 C 0.5888 1.00742 0.94524 0.0
C988 C 0.54175 0.08363 0.98879 0.0
C989 C 0.5688 0.10246 0.99007 0.0
H990 H 0.49482 0.04056 0.98623 0.0
C991 C 0.62888 1.00361 0.99984 0.0
C992 C 0.6329 0.91959 0.97679 0.0
C993 C 0.72656 1.02354 1.01287 0.0
C994 C 0.73665 0.06526 1.02925 0.0
C995 C 0.71527 1.01431 1.03647 0.0
C996 C 0.71618 1.00342 1.02321 0.0
C997 C 0.7255 0.0449 1.03951 0.0
C998 C 0.73612 0.05445 1.01586 0.0
C999 C 0.72604 1.01356 0.99878 0.0
H1000 H 0.50713 0.0812 0.9464 0.0
H1001 H 0.56308 0.06677 0.9486 0.0
H1002 H 0.46745 0.04147 0.94003 0.0
H1003 H 0.54037 0.97059 0.93802 0.0
H1004 H 0.70716 0.99881 1.04446 0.0
H1005 H 0.70834 0.97961 1.021 0.0
H1006 H 0.72613 0.05186 1.05002 0.0
H1007 H 0.74387 0.06979 1.00773 0.0
C1008 C 0.9684 0.14691 0.84727 0.0
C1009 C 0.97003 0.09474 0.85726 0.0
C1010 C 0.95574 0.12473 0.85583 0.0
C1011 C 0.99793 0.088 0.8502 0.0
C1012 C 0.99584 0.13989 0.83975 0.0
C1013 C 1.0108 0.11054 0.84143 0.0
N1014 N 0.9532 0.17493 0.84591 0.0
C1015 C 0.96397 0.19658 0.83665 0.0
C1016 C 1.00718 0.16233 0.8306 0.0
C1017 C 0.991 0.19069 0.82897 0.0
Gd1018 Gd 0.8793 0.25299 0.87674 0.0
Gd1019 Gd 0.90918 0.18442 0.86042 0.0
N1020 N 0.92862 0.13199 0.86235 0.0
C1021 C 0.95547 0.07217 0.86548 0.0
C1022 C 0.91349 0.10929 0.86982 0.0
C1023 C 0.92682 0.07936 0.87163 0.0
H1024 H 0.89074 0.11355 0.87424 0.0
H1025 H 0.91478 0.06175 0.87768 0.0
H1026 H 0.9208 0.31914 0.86928 0.0
H1027 H 0.95291 0.2193 0.83544 0.0
H1028 H 0.91036 0.37225 0.86005 0.0
H1029 H 0.96568 0.0489 0.86684 0.0
H1030 H 1.00935 0.06521 0.85124 0.0
H1031 H 0.81325 0.20945 0.86875 0.0
H1032 H 1.02815 0.15785 0.82465 0.0
H1033 H 0.99951 0.20826 0.82189 0.0
H1034 H 0.79938 0.37188 0.85041 0.0
H1035 H 1.03201 0.10486 0.83583 0.0
H1036 H 0.74357 0.27391 0.85442 0.0
H1037 H 0.75952 0.21985 0.86092 0.0
N1038 N 0.82884 0.25724 0.8666 0.0
C1039 C 0.82018 0.28748 0.86331 0.0
C1040 C 0.80725 0.23322 0.86589 0.0
C1041 C 0.76743 0.26963 0.85791 0.0
C1042 C 0.77642 0.23903 0.86149 0.0
C1043 C 0.78946 0.29424 0.85863 0.0
H1044 H 0.75839 0.33069 0.8509 0.0
N1045 N 0.87325 0.30354 0.86719 0.0
C1046 C 0.84328 0.31112 0.86331 0.0
C1047 C 0.86073 0.36356 0.85705 0.0
C1048 C 0.83624 0.34147 0.85824 0.0
C1049 C 0.89724 0.32498 0.86599 0.0
C1050 C 0.89134 0.35524 0.8609 0.0
O1051 O 0.91673 0.18528 0.88267 0.0
O1052 O 0.92375 0.2368 0.88698 0.0
O1053 O 0.87937 0.29408 0.88989 0.0
O1054 O 0.85249 0.25275 0.89543 0.0
O1055 O 0.87971 0.16494 0.88006 0.0
O1056 O 0.85111 0.20802 0.88636 0.0
O1057 O 0.86879 0.25707 0.85347 0.0
O1058 O 0.90142 0.22263 0.84306 0.0
O1059 O 0.88386 0.15091 0.84813 0.0
O1060 O 0.86039 0.19381 0.85545 0.0
O1061 O 0.93547 0.26386 0.87232 0.0
O1062 O 0.95474 0.21896 0.86206 0.0
C1063 C 0.93254 0.20754 0.88866 0.0
C1064 C 0.85526 0.17645 0.88746 0.0
C1065 C 0.82653 0.30213 0.89639 0.0
C1066 C 0.80279 0.35351 0.89142 0.0
C1067 C 0.77022 0.30622 0.89174 0.0
C1068 C 0.79662 0.28789 0.89502 0.0
C1069 C 0.77326 0.33885 0.88983 0.0
C1070 C 0.82906 0.33489 0.89494 0.0
C1071 C 0.85583 0.28314 0.89693 0.0
C1072 C 0.80531 0.34852 0.85413 0.0
C1073 C 0.78196 0.32504 0.8544 0.0
H1074 H 0.85628 0.38707 0.85312 0.0
C1075 C 0.88102 0.24658 0.84205 0.0
C1076 C 0.96061 0.24845 0.86671 0.0
C1077 C 0.84283 0.17149 0.83477 0.0
C1078 C 0.79803 0.15742 0.82046 0.0
C1079 C 0.84585 0.17996 0.81065 0.0
C1080 C 0.86009 0.18029 0.82332 0.0
C1081 C 0.81522 0.16831 0.80916 0.0
C1082 C 0.81156 0.16119 0.83337 0.0
C1083 C 0.85826 0.16835 0.84795 0.0
H1084 H 0.74741 0.29502 0.89051 0.0
H1085 H 0.79377 0.26252 0.89592 0.0
H1086 H 0.75252 0.35266 0.88738 0.0
H1087 H 0.85195 0.34578 0.89653 0.0
H1088 H 0.85926 0.18696 0.80183 0.0
H1089 H 0.8848 0.18647 0.82409 0.0
H1090 H 0.80624 0.16573 0.79901 0.0
H1091 H 0.79877 0.1539 0.84231 0.0
C1092 C 0.61598 0.17098 0.61035 0.0
C1093 C 0.65833 0.19125 0.62441 0.0
C1094 C 0.63724 0.1668 0.62084 0.0
C1095 C 0.65759 0.21999 0.61729 0.0
C1096 C 0.6156 0.19955 0.60299 0.0
C1097 C 0.63637 0.22409 0.60658 0.0
N1098 N 0.59555 0.1471 0.60738 0.0
C1099 C 0.57556 0.14959 0.59658 0.0
C1100 C 0.59445 0.20257 0.59221 0.0
C1101 C 0.57455 0.17738 0.58893 0.0
Gd1102 Gd 0.52929 0.07045 0.63542 0.0
Gd1103 Gd 0.5991 0.10145 0.62107 0.0
N1104 N 0.63772 0.13857 0.62737 0.0
C1105 C 0.67966 0.186 0.63498 0.0
C1106 C 0.65908 0.13299 0.63744 0.0
C1107 C 0.68011 0.15669 0.64148 0.0
H1108 H 0.65981 0.11028 0.64244 0.0
H1109 H 0.69667 0.15233 0.6496 0.0
H1110 H 0.45689 0.09528 0.62731 0.0
H1111 H 0.55974 0.13053 0.59407 0.0
H1112 H 0.4096 0.07405 0.61555 0.0
H1113 H 0.69606 0.20428 0.6381 0.0
H1114 H 0.67354 0.23909 0.61991 0.0
H1115 H 0.5917 1.0234 0.62446 0.0
H1116 H 0.59347 0.22413 0.58631 0.0
H1117 H 0.55829 0.1794 0.58054 0.0
H1118 H 0.4431 0.97366 0.59854 0.0
H1119 H 0.63629 0.24628 0.60109 0.0
H1120 H 0.55209 0.94671 0.60261 0.0
H1121 H 0.59832 0.97376 0.61247 0.0
N1122 N 0.54184 1.02516 0.6223 0.0
C1123 C 0.51605 1.01088 0.61658 0.0
C1124 C 0.57105 1.01213 0.62067 0.0
C1125 C 0.54886 0.96858 0.60811 0.0
C1126 C 0.57499 0.98379 0.61365 0.0
C1127 C 0.51901 0.98227 0.60935 0.0
H1128 H 0.49431 0.9466 0.59771 0.0
N1129 N 0.48503 0.05508 0.62292 0.0
C1130 C 0.48684 1.02613 0.617 0.0
C1131 C 0.4323 1.03054 0.60997 0.0
C1132 C 0.46043 1.0132 0.61029 0.0
C1133 C 0.45787 0.0724 0.62246 0.0
C1134 C 0.43114 0.06041 0.61594 0.0
O1135 O 0.60062 0.10266 0.64337 0.0
O1136 O 0.54896 0.10978 0.64819 0.0
O1137 O 0.49224 0.08041 0.64982 0.0
O1138 O 0.50905 1.03302 0.64804 0.0
O1139 O 0.6178 0.06522 0.63878 0.0
O1140 O 0.57269 0.04194 0.64698 0.0
O1141 O 0.51872 0.08074 0.61249 0.0
O1142 O 0.56806 0.07575 0.60448 0.0
O1143 O 0.61192 0.06181 0.6086 0.0
O1144 O 0.64527 0.10043 0.61155 0.0
O1145 O 0.51705 0.12614 0.63217 0.0
O1146 O 0.56321 0.14582 0.62334 0.0
C1147 C 0.57859 0.11319 0.65123 0.0
C1148 C 0.60495 0.04318 0.64724 0.0
C1149 C 0.45379 0.04031 0.65117 0.0
C1150 C 0.39883 0.05649 0.64894 0.0
C1151 C 0.41409 1.00328 0.6429 0.0
C1152 C 0.4456 1.01015 0.64628 0.0
C1153 C 0.39066 1.02652 0.64409 0.0
C1154 C 0.42993 0.06259 0.65298 0.0
C1155 C 0.48695 0.05098 0.65275 0.0
C1156 C 0.46319 0.98406 0.60367 0.0
C1157 C 0.49238 0.96866 0.6032 0.0
H1158 H 0.41154 1.02139 0.6049 0.0
C1159 C 0.53725 0.07394 0.6021 0.0
C1160 C 0.53348 0.15162 0.6276 0.0
C1161 C 0.64554 0.07432 0.59061 0.0
C1162 C 0.68146 0.06197 0.57221 0.0
C1163 C 0.63135 0.08803 0.56765 0.0
C1164 C 0.62431 0.0877 0.58138 0.0
C1165 C 0.65985 0.07554 0.56306 0.0
C1166 C 0.67365 0.06097 0.586 0.0
C1167 C 0.63893 0.07428 0.6051 0.0
H1168 H 0.408 0.98015 0.63902 0.0
H1169 H 0.46351 0.99232 0.64467 0.0
H1170 H 0.36657 1.02126 0.64118 0.0
H1171 H 0.43586 0.08575 0.65698 0.0
H1172 H 0.61494 0.09852 0.56056 0.0
H1173 H 0.60234 0.09781 0.58473 0.0
H1174 H 0.66525 0.07746 0.55242 0.0
H1175 H 0.68951 0.05014 0.59323 0.0
C1176 C 0.69691 0.92294 0.35447 0.0
C1177 C 0.677 0.96834 0.36667 0.0
C1178 C 0.70004 0.94475 0.36476 0.0
C1179 C 0.65034 0.96912 0.35823 0.0
C1180 C 0.6707 0.92419 0.3457 0.0
C1181 C 0.64724 0.94712 0.34775 0.0
N1182 N 0.71988 0.90087 0.35289 0.0
C1183 C 0.71903 0.8806 0.34215 0.0
C1184 C 0.66911 0.90265 0.33502 0.0
C1185 C 0.69355 0.88099 0.33316 0.0
Gd1186 Gd 0.78502 0.83122 0.38596 0.0
Gd1187 Gd 0.76101 0.90132 0.36902 0.0
N1188 N 0.72627 0.94361 0.37259 0.0
C1189 C 0.68171 0.99073 0.37687 0.0
C1190 C 0.73154 0.96595 0.38225 0.0
C1191 C 0.70926 0.98968 0.38461 0.0
H1192 H 0.75286 0.96531 0.38825 0.0
H1193 H 0.71333 1.0071 0.39241 0.0
H1194 H 0.75581 0.75931 0.37836 0.0
H1195 H 0.73739 0.8634 0.34068 0.0
H1196 H 0.77592 0.70781 0.37031 0.0
H1197 H 0.66453 1.00917 0.37869 0.0
H1198 H 0.63228 0.98693 0.35959 0.0
H1199 H 0.84093 0.88602 0.37535 0.0
H1200 H 0.64938 0.90285 0.32805 0.0
H1201 H 0.69272 0.86447 0.32484 0.0
H1202 H 0.88443 0.72799 0.35971 0.0
H1203 H 0.62681 0.94831 0.34117 0.0
H1204 H 0.91992 0.83509 0.36054 0.0
H1205 H 0.89421 0.88563 0.36625 0.0
N1206 N 0.83523 0.83602 0.37538 0.0
C1207 C 0.84892 0.80784 0.37202 0.0
C1208 C 0.85122 0.86363 0.37313 0.0
C1209 C 0.89628 0.83499 0.36472 0.0
C1210 C 0.88181 0.86355 0.36788 0.0
C1211 C 0.87972 0.80672 0.36655 0.0
H1212 H 0.91636 0.77642 0.35851 0.0
N1213 N 0.80047 0.78224 0.37691 0.0
C1214 C 0.83107 0.78016 0.37286 0.0
C1215 C 0.8234 0.72488 0.36747 0.0
C1216 C 0.84333 0.7513 0.36803 0.0
C1217 C 0.78043 0.757 0.37562 0.0
C1218 C 0.7917 0.72788 0.37107 0.0
O1219 O 0.75405 0.90315 0.39133 0.0
O1220 O 0.741 0.85256 0.39458 0.0
O1221 O 0.77713 0.79017 0.39864 0.0
O1222 O 0.80914 0.82607 0.40527 0.0
O1223 O 0.79369 0.92014 0.38768 0.0
O1224 O 0.81488 0.87475 0.39643 0.0
O1225 O 0.7854 0.81834 0.36285 0.0
O1226 O 0.78636 0.86735 0.35355 0.0
O1227 O 0.77056 0.94612 0.35912 0.0
O1228 O 0.80597 0.90857 0.35943 0.0
O1229 O 0.72992 0.82168 0.38028 0.0
O1230 O 0.71467 0.86694 0.36911 0.0
C1231 C 0.73676 0.88223 0.39743 0.0
C1232 C 0.81469 0.90696 0.39638 0.0
C1233 C 0.77649 0.80189 0.42178 0.0
C1234 C 0.73454 0.78113 0.43623 0.0
C1235 C 0.76525 0.82672 0.44335 0.0
C1236 C 0.78294 0.8253 0.43147 0.0
C1237 C 0.74102 0.80492 0.44572 0.0
C1238 C 0.75251 0.77976 0.42435 0.0
C1239 C 0.79321 0.80107 0.40869 0.0
C1240 C 0.87451 0.75002 0.36331 0.0
C1241 C 0.89267 0.77763 0.36259 0.0
H1242 H 0.83198 0.70235 0.3638 0.0
C1243 C 0.79118 0.83644 0.35218 0.0
C1244 C 0.7067 0.83783 0.37376 0.0
C1245 C 0.8078 0.94468 0.34148 0.0
C1246 C 0.83644 0.97972 0.32625 0.0
C1247 C 0.80406 0.93662 0.3174 0.0
C1248 C 0.79521 0.92825 0.33047 0.0
C1249 C 0.82422 0.96235 0.31525 0.0
C1250 C 0.82901 0.96957 0.33938 0.0
C1251 C 0.79866 0.93701 0.35529 0.0
H1252 H 0.77024 0.84489 0.45074 0.0
H1253 H 0.80132 0.84271 0.4298 0.0
H1254 H 0.72769 0.80638 0.45502 0.0
H1255 H 0.7472 0.76183 0.41688 0.0
H1256 H 0.79437 0.92389 0.30888 0.0
H1257 H 0.77858 0.90911 0.33198 0.0
H1258 H 0.82867 0.9695 0.30494 0.0
H1259 H 0.83864 0.98178 0.34807 0.0
C1260 C 0.86342 0.8777 0.10755 0.0
C1261 C 0.81578 0.85993 0.11884 0.0
C1262 C 0.84011 0.88237 0.11713 0.0
C1263 C 0.81576 0.8323 0.11099 0.0
C1264 C 0.86291 0.85052 0.09932 0.0
C1265 C 0.83926 0.82762 0.10125 0.0
N1266 N 0.88601 0.90028 0.10597 0.0
C1267 C 0.9075 0.89814 0.09571 0.0
C1268 C 0.88581 0.84749 0.08924 0.0
C1269 C 0.90797 0.87158 0.08734 0.0
Gd1270 Gd 0.9528 0.97053 0.13763 0.0
Gd1271 Gd 0.88347 0.94349 0.12093 0.0
N1272 N 0.84043 0.9096 0.12435 0.0
C1273 C 0.79185 0.86626 0.12819 0.0
C1274 C 0.81672 0.91638 0.13319 0.0
C1275 C 0.79222 0.89473 0.13533 0.0
H1276 H 0.8167 0.93856 0.13858 0.0
H1277 H 0.77357 0.90006 0.14242 0.0
H1278 H 1.02557 0.94334 0.13164 0.0
H1279 H 0.92497 0.91634 0.09423 0.0
H1280 H 0.07626 0.964 0.12285 0.0
H1281 H 0.77275 0.84961 0.12981 0.0
H1282 H 0.79737 0.81468 0.11221 0.0
H1283 H 0.8961 1.02507 0.12765 0.0
H1284 H 0.88622 0.82696 0.08271 0.0
H1285 H 0.92547 0.86967 0.07943 0.0
H1286 H 0.05147 0.06857 0.10746 0.0
H1287 H 0.83861 0.80648 0.09509 0.0
H1288 H 0.94368 0.10131 0.10853 0.0
H1289 H 0.89448 0.07635 0.11661 0.0
N1290 N 0.94571 1.01905 0.12587 0.0
C1291 C 0.97327 1.0327 0.12154 0.0
C1292 C 0.91784 1.03476 0.12421 0.0
C1293 C 0.94463 0.07839 0.11343 0.0
C1294 C 0.91682 0.06433 0.11792 0.0
C1295 C 0.97329 0.0626 0.11515 0.0
H1296 H 1.00209 0.09857 0.10553 0.0
N1297 N 1.00057 0.98594 0.12775 0.0
C1298 C 1.0015 1.01585 0.12267 0.0
C1299 C 0.05705 1.00959 0.11769 0.0
C1300 C 1.02982 1.02834 0.11738 0.0
C1301 C 1.02679 0.9672 0.12773 0.0
C1302 C 0.05544 0.97881 0.12277 0.0
O1303 O 0.8776 0.9378 0.14293 0.0
O1304 O 0.92865 0.93032 0.14831 0.0
O1305 O 0.99087 0.95928 0.15157 0.0
O1306 O 0.9668 1.00389 0.15309 0.0
O1307 O 0.86413 0.97903 0.13886 0.0
O1308 O 0.90915 0.99767 0.14911 0.0
O1309 O 0.9655 0.96761 0.11439 0.0
O1310 O 0.91673 0.96843 0.10513 0.0
O1311 O 0.87461 0.98873 0.11203 0.0
O1312 O 0.84165 0.94981 0.10842 0.0
O1313 O 0.96401 0.91512 0.13348 0.0
O1314 O 0.91883 0.89825 0.12276 0.0
C1315 C 0.89902 0.93036 0.15179 0.0
C1316 C 0.87703 0.99843 0.14844 0.0
C1317 C 0.98857 0.98268 0.17314 0.0
C1318 C 1.01851 0.96714 0.19296 0.0
C1319 C 0.9693 0.99558 0.19557 0.0
C1320 C 0.96566 0.99652 0.18152 0.0
C1321 C 0.99589 0.98124 0.20131 0.0
C1322 C 1.01461 0.96782 0.17896 0.0
C1323 C 0.98771 0.98526 0.15836 0.0
C1324 C 1.02989 0.05853 0.1115 0.0
C1325 C 1.00173 0.07558 0.11038 0.0
H1326 H 0.07923 1.01838 0.11372 0.0
C1327 C 0.94747 0.97338 0.10368 0.0
C1328 C 0.94783 0.89097 0.12767 0.0
C1329 C 0.8513 0.98722 0.09087 0.0
C1330 C 0.85627 1.02907 0.07405 0.0
C1331 C 0.85797 0.97368 0.0673 0.0
C1332 C 0.85408 0.96431 0.08071 0.0
C1333 C 0.85901 1.00578 0.06395 0.0
C1334 C 0.85264 1.0194 0.0875 0.0
C1335 C 0.85023 0.97863 0.10519 0.0
H1336 H 0.9517 1.00636 0.20199 0.0
H1337 H 0.94522 1.00824 0.17727 0.0
H1338 H 0.99889 0.98127 0.21217 0.0
H1339 H 1.03272 0.9578 0.17251 0.0
H1340 H 0.86006 0.95601 0.05946 0.0
H1341 H 0.85379 0.93933 0.08313 0.0
H1342 H 0.86099 1.01227 0.05341 0.0
H1343 H 0.8511 1.03692 0.09544 0.0
C1344 C 0.75335 0.7393 0.86368 0.0
C1345 C 0.7513 0.79493 0.85726 0.0
C1346 C 0.73833 0.76866 0.86409 0.0
C1347 C 0.7806 0.79208 0.8508 0.0
C1348 C 0.78207 0.73622 0.85656 0.0
C1349 C 0.79596 0.76284 0.85048 0.0
N1350 N 0.73876 0.71351 0.86929 0.0
C1351 C 0.7518 0.68423 0.86778 0.0
C1352 C 0.79562 0.70628 0.85536 0.0
C1353 C 0.78022 0.68017 0.86086 0.0
Gd1354 Gd 0.66078 0.6569 0.8688 0.0
Gd1355 Gd 0.6941 0.72628 0.88275 0.0
N1356 N 0.70945 0.77065 0.87005 0.0
C1357 C 0.73371 0.82288 0.85653 0.0
C1358 C 0.69178 0.79761 0.86907 0.0
C1359 C 0.70352 0.82392 0.86215 0.0
H1360 H 0.66861 0.7986 0.87363 0.0
H1361 H 0.68934 0.84507 0.86122 0.0
H1362 H 0.65012 0.59653 0.89002 0.0
H1363 H 0.7407 0.66364 0.87176 0.0
H1364 H 0.60776 0.55908 0.89638 0.0
H1365 H 0.74278 0.84344 0.85125 0.0
H1366 H 0.79109 0.81211 0.84564 0.0
H1367 H 0.63366 0.69705 0.84152 0.0
H1368 H 0.81759 0.70296 0.84995 0.0
H1369 H 0.79025 0.65679 0.85978 0.0
H1370 H 0.52272 0.58399 0.86612 0.0
H1371 H 0.81813 0.76084 0.8451 0.0
H1372 H 0.54007 0.66493 0.83303 0.0
H1373 H 0.58553 0.69953 0.82769 0.0
N1374 N 0.61594 0.66151 0.85475 0.0
C1375 C 0.59158 0.64151 0.85753 0.0
C1376 C 0.61427 0.68164 0.84395 0.0
C1377 C 0.56128 0.66362 0.83914 0.0
C1378 C 0.58688 0.68318 0.83609 0.0
C1379 C 0.56346 0.64229 0.8499 0.0
H1380 H 0.51677 0.62198 0.84746 0.0
N1381 N 0.6227 0.61922 0.87486 0.0
C1382 C 0.59492 0.62004 0.86802 0.0
C1383 C 0.57492 0.57694 0.88161 0.0
C1384 C 0.57026 0.59886 0.8712 0.0
C1385 C 0.62766 0.59748 0.88484 0.0
C1386 C 0.60382 0.57616 0.88842 0.0
O1387 O 0.68431 0.7364 0.85981 0.0
O1388 O 0.68672 0.68685 0.85172 0.0
O1389 O 0.70119 0.64142 0.85745 0.0
O1390 O 0.66025 0.61054 0.8593 0.0
O1391 O 0.63789 0.73842 0.88124 0.0
O1392 O 0.61752 0.69397 0.87105 0.0
O1393 O 0.65896 0.65665 0.89126 0.0
O1394 O 0.6551 0.70876 0.89593 0.0
O1395 O 0.69446 0.77016 0.89434 0.0
O1396 O 0.7285 0.73405 0.89864 0.0
O1397 O 0.69706 0.63763 0.8864 0.0
O1398 O 0.72205 0.68241 0.89388 0.0
C1399 C 0.69007 0.71769 0.84941 0.0
C1400 C 0.6122 0.72313 0.87613 0.0
C1401 C 0.69181 0.60633 0.83973 0.0
C1402 C 0.72074 0.57702 0.82266 0.0
C1403 C 0.68165 0.61616 0.81602 0.0
C1404 C 0.67548 0.62266 0.82957 0.0
C1405 C 0.70429 0.59359 0.81255 0.0
C1406 C 0.71416 0.58342 0.83625 0.0
C1407 C 0.68809 0.61469 0.85394 0.0
C1408 C 0.54198 0.59998 0.8638 0.0
C1409 C 0.53861 0.62162 0.85317 0.0
H1410 H 0.55654 0.5603 0.88437 0.0
C1411 C 0.65295 0.67942 0.89975 0.0
C1412 C 0.71989 0.65031 0.89449 0.0
C1413 C 0.74783 0.78608 0.89655 0.0
C1414 C 0.76386 0.83936 0.88995 0.0
C1415 C 0.80098 0.79601 0.88814 0.0
C1416 C 0.77822 0.77512 0.89317 0.0
C1417 C 0.79388 0.82802 0.88648 0.0
C1418 C 0.7412 0.81827 0.89515 0.0
C1419 C 0.72177 0.76384 0.89966 0.0
H1420 H 0.66912 0.62888 0.80819 0.0
H1421 H 0.65847 0.64072 0.83212 0.0
H1422 H 0.70884 0.58896 0.80198 0.0
H1423 H 0.72723 0.57135 0.84414 0.0
H1424 H 0.82411 0.78729 0.8854 0.0
H1425 H 0.78415 0.75029 0.89396 0.0
H1426 H 0.81182 0.8439 0.88262 0.0
H1427 H 0.7181 0.82684 0.89809 0.0
C1428 C 0.59552 0.56619 0.1205 0.0
C1429 C 0.53873 0.56028 0.11744 0.0
C1430 C 0.56812 0.54805 0.1216 0.0
C1431 C 0.53689 0.59146 0.11266 0.0
C1432 C 0.59376 0.59709 0.11512 0.0
C1433 C 0.56432 0.60978 0.11148 0.0
N1434 N 0.62394 0.55291 0.1238 0.0
C1435 C 0.65118 0.56942 0.12164 0.0
C1436 C 0.62171 0.6141 0.1132 0.0
C1437 C 0.65052 0.60007 0.11635 0.0
Gd1438 Gd 0.68998 0.48152 0.11607 0.0
Gd1439 Gd 0.61986 0.5025 0.13425 0.0
N1440 N 0.57072 0.51747 0.12569 0.0
C1441 C 0.51219 0.54049 0.11785 0.0
C1442 C 0.54519 0.49774 0.12575 0.0
C1443 C 0.51549 0.50902 0.12192 0.0
H1444 H 0.54771 0.47345 0.12899 0.0
H1445 H 0.49517 0.49348 0.12215 0.0
H1446 H 0.75912 0.48298 0.13202 0.0
H1447 H 0.67364 0.55941 0.12383 0.0
H1448 H 0.8052 0.4479 0.13542 0.0
H1449 H 0.48918 0.54909 0.1148 0.0
H1450 H 0.51448 0.60137 0.10951 0.0
H1451 H 0.64948 0.45139 0.08952 0.0
H1452 H 0.62135 0.63783 0.10906 0.0
H1453 H 0.67235 0.61287 0.11471 0.0
H1454 H 0.78297 0.35796 0.1074 0.0
H1455 H 0.5626 0.63355 0.10744 0.0
H1456 H 0.69172 0.36312 0.07881 0.0
H1457 H 0.65053 0.4037 0.07525 0.0
N1458 N 0.68944 0.43783 0.10123 0.0
C1459 C 0.71328 0.41668 0.10279 0.0
C1460 C 0.6678 0.43408 0.09107 0.0
C1461 C 0.69146 0.38409 0.08508 0.0
C1462 C 0.66821 0.40697 0.08301 0.0
C1463 C 0.71468 0.38899 0.09491 0.0
H1464 H 0.74088 0.34597 0.09103 0.0
N1465 N 0.73583 0.45129 0.1187 0.0
C1466 C 0.73706 0.4235 0.11192 0.0
C1467 C 0.78733 0.41151 0.12225 0.0
C1468 C 0.76279 0.40275 0.11354 0.0
C1469 C 0.76012 0.46053 0.12685 0.0
C1470 C 0.78616 0.44072 0.1288 0.0
O1471 O 0.60549 0.50262 0.11111 0.0
O1472 O 0.6536 0.50386 0.10101 0.0
O1473 O 0.6929 0.52667 0.106 0.0
O1474 O 0.7312 0.49252 0.10393 0.0
O1475 O 0.61009 0.44827 0.12752 0.0
O1476 O 0.65681 0.43396 0.11742 0.0
O1477 O 0.69525 0.47468 0.13816 0.0
O1478 O 0.6455 0.4607 0.14257 0.0
O1479 O 0.58706 0.48198 0.14866 0.0
O1480 O 0.60201 0.53001 0.15121 0.0
O1481 O 0.70838 0.51673 0.13426 0.0
O1482 O 0.66344 0.53076 0.14579 0.0
C1483 C 0.62268 0.50835 0.10011 0.0
C1484 C 0.62748 0.42524 0.12161 0.0
C1485 C 0.71952 0.52572 0.08534 0.0
C1486 C 0.72649 0.56285 0.06667 0.0
C1487 C 0.71006 0.5085 0.06238 0.0
C1488 C 0.71145 0.50188 0.07614 0.0
C1489 C 0.71758 0.53866 0.05765 0.0
C1490 C 0.72664 0.55619 0.08061 0.0
C1491 C 0.71933 0.51952 0.09991 0.0
C1492 C 0.76356 0.37439 0.10619 0.0
C1493 C 0.73958 0.36755 0.09688 0.0
H1494 H 0.8075 0.3962 0.12379 0.0
C1495 C 0.67556 0.4565 0.1445 0.0
C1496 C 0.69544 0.5341 0.14447 0.0
C1497 C 0.54928 0.51679 0.15763 0.0
C1498 C 0.49564 0.50042 0.16379 0.0
C1499 C 0.50668 0.5551 0.15756 0.0
C1500 C 0.53845 0.5478 0.15557 0.0
C1501 C 0.48542 0.53171 0.16166 0.0
C1502 C 0.52775 0.4933 0.16176 0.0
C1503 C 0.58258 0.50809 0.15515 0.0
H1504 H 0.70373 0.49002 0.05533 0.0
H1505 H 0.70604 0.47826 0.07959 0.0
H1506 H 0.71784 0.54246 1.04684 0.0
H1507 H 0.73279 0.5745 0.08779 0.0
H1508 H 0.4985 0.57905 0.15594 0.0
H1509 H 0.55438 0.56635 0.15231 0.0
H1510 H 0.46107 0.53832 0.16336 0.0
H1511 H 0.53603 0.46927 0.16312 0.0
C1512 C 0.72459 0.29703 0.37346 0.0
C1513 C 0.72779 0.24016 0.36987 0.0
C1514 C 0.74089 0.26854 0.37486 0.0
C1515 C 0.69723 0.24021 0.36441 0.0
C1516 C 0.69451 0.29718 0.36727 0.0
C1517 C 0.68061 0.26861 0.36314 0.0
N1518 N 0.73926 0.32468 0.37697 0.0
C1519 C 0.72509 0.35293 0.37417 0.0
C1520 C 0.67969 0.32615 0.36489 0.0
C1521 C 0.69522 0.35412 0.36821 0.0
Gd1522 Gd 0.81433 0.38637 0.37206 0.0
Gd1523 Gd 0.78771 0.31784 0.38869 0.0
N1524 N 0.77104 0.26926 0.37962 0.0
C1525 C 0.74641 0.21282 0.36986 0.0
C1526 C 0.78995 0.24311 0.37885 0.0
C1527 C 0.77777 0.21444 0.37416 0.0
H1528 H 0.81428 0.24439 0.38215 0.0
H1529 H 0.79259 0.19364 0.37381 0.0
H1530 H 0.82566 0.44798 0.39265 0.0
H1531 H 0.73639 0.37483 0.37649 0.0
H1532 H 0.8677 0.4864 0.39807 0.0
H1533 H 0.73716 0.19063 0.36608 0.0
H1534 H 0.68666 0.21856 0.36068 0.0
H1535 H 0.83849 0.34808 0.34399 0.0
H1536 H 0.65665 0.32722 0.36015 0.0
H1537 H 0.68422 0.3767 0.36615 0.0
H1538 H 0.94914 0.46444 0.36576 0.0
H1539 H 0.65744 0.26838 0.3585 0.0
H1540 H 0.92943 0.38353 0.33299 0.0
H1541 H 0.88437 0.34756 0.32881 0.0
N1542 N 0.85705 0.38403 0.35677 0.0
C1543 C 0.88105 0.40485 0.35889 0.0
C1544 C 0.85766 0.36419 0.34588 0.0
C1545 C 0.90918 0.38404 0.33966 0.0
C1546 C 0.88379 0.36371 0.33727 0.0
C1547 C 0.90796 0.40511 0.35052 0.0
H1548 H 0.95353 0.42696 0.34689 0.0
N1549 N 0.8517 0.42591 0.37693 0.0
C1550 C 0.87849 0.42608 0.36943 0.0
C1551 C 0.89904 0.46963 0.38255 0.0
C1552 C 0.90289 0.448 0.37201 0.0
C1553 C 0.84739 0.44759 0.38695 0.0
C1554 C 0.87107 0.46953 0.39 0.0
O1555 O 0.78973 0.30411 0.36564 0.0
O1556 O 0.78856 0.3529 0.35627 0.0
O1557 O 0.77222 0.39721 0.36079 0.0
O1558 O 0.80976 0.43233 0.36246 0.0
O1559 O 0.84333 0.30684 0.38451 0.0
O1560 O 0.85996 0.35111 0.37302 0.0
O1561 O 0.81793 0.38888 0.39442 0.0
O1562 O 0.8313 0.3386 0.39828 0.0
O1563 O 0.78967 0.27662 0.40164 0.0
O1564 O 0.76216 0.31649 0.40776 0.0
O1565 O 0.78012 0.40618 0.39022 0.0
O1566 O 0.75739 0.36137 0.39875 0.0
C1567 C 0.78428 0.32186 0.35482 0.0
C1568 C 0.86731 0.32228 0.37814 0.0
C1569 C 0.77807 0.43321 0.34296 0.0
C1570 C 0.76131 0.47173 0.32618 0.0
C1571 C 0.78347 0.4212 0.31921 0.0
C1572 C 0.78792 0.4128 0.33268 0.0
C1573 C 0.77044 0.45054 0.31593 0.0
C1574 C 0.76432 0.46225 0.33971 0.0
C1575 C 0.78244 0.42512 0.35716 0.0
C1576 C 0.93009 0.44787 0.36391 0.0
C1577 C 0.93258 0.42653 0.35316 0.0
H1578 H 0.91729 0.48676 0.38489 0.0
C1579 C 0.83345 0.36831 0.40145 0.0
C1580 C 0.75834 0.3935 0.39879 0.0
C1581 C 0.79204 0.29095 0.42456 0.0
C1582 C 0.83843 0.27645 0.43773 0.0
C1583 C 0.79946 0.31209 0.44715 0.0
C1584 C 0.78144 0.3097 0.43533 0.0
C1585 C 0.82799 0.29565 0.44835 0.0
C1586 C 0.82048 0.27451 0.42591 0.0
C1587 C 0.77511 0.29016 0.41154 0.0
H1588 H 0.79106 0.40538 0.31128 0.0
H1589 H 0.79919 0.39057 0.33506 0.0
H1590 H 0.76912 0.45718 0.30539 0.0
H1591 H 0.75699 0.4779 0.34777 0.0
H1592 H 0.79131 0.32675 0.45538 0.0
H1593 H 0.7596 0.32287 0.43453 0.0
H1594 H 0.84151 0.29747 0.4576 0.0
H1595 H 0.82923 0.26045 0.41758 0.0
C1596 C 0.06408 0.53202 0.60893 0.0
C1597 C 0.12085 0.53436 0.60485 0.0
C1598 C 0.09327 0.54715 0.6106 0.0
C1599 C 0.11918 0.50567 0.5978 0.0
C1600 C 0.06242 0.50368 0.60144 0.0
C1601 C 0.09009 0.49042 0.59609 0.0
N1602 N 1.03728 0.54599 0.61384 0.0
C1603 C 1.00854 0.53221 0.61173 0.0
C1604 C 1.0329 0.48975 0.59928 0.0
C1605 C 1.00589 0.50414 0.6044 0.0
Gd1606 Gd 0.97931 0.62235 0.6114 0.0
Gd1607 Gd 0.04739 0.59106 0.62731 0.0
N1608 N 0.09413 0.57581 0.61685 0.0
C1609 C 0.14918 0.55135 0.60597 0.0
C1610 C 0.12147 0.5927 0.61786 0.0
C1611 C 0.14944 0.5807 0.61243 0.0
H1612 H 0.12162 0.6153 0.62295 0.0
H1613 H 0.17118 0.59405 0.61324 0.0
H1614 H 0.91799 0.63235 0.63236 0.0
H1615 H 0.9874 0.54252 0.61556 0.0
H1616 H 0.88205 0.67515 0.63932 0.0
H1617 H 0.17086 0.54227 0.60167 0.0
H1618 H 0.14016 0.49543 0.59334 0.0
H1619 H 1.01696 0.6488 0.58358 0.0
H1620 H 1.03066 0.46804 0.59356 0.0
H1621 H 0.98292 0.49357 0.60273 0.0
H1622 H 0.90728 0.76099 0.60942 0.0
H1623 H 0.08915 0.46861 0.59037 0.0
H1624 H 0.98546 0.74289 0.57534 0.0
H1625 H 1.01887 0.69695 0.56957 0.0
N1626 N 0.98271 0.66707 0.59719 0.0
C1627 C 0.96317 0.69155 0.60014 0.0
C1628 C 1.00197 0.66846 0.58613 0.0
C1629 C 0.98431 0.72168 0.58148 0.0
C1630 C 1.0032 0.6958 0.57818 0.0
C1631 C 0.96382 0.71973 0.59252 0.0
H1632 H 0.94412 0.76675 0.59037 0.0
N1633 N 0.9411 0.66009 0.61737 0.0
C1634 C 0.94213 0.68814 0.61072 0.0
C1635 C 0.90007 0.70838 0.62473 0.0
C1636 C 0.92155 0.71304 0.61417 0.0
C1637 C 0.91935 0.65498 0.62732 0.0
C1638 C 0.89882 0.67912 0.63126 0.0
O1639 O 0.06009 0.59887 0.60425 0.0
O1640 O 1.01102 0.59654 0.59537 0.0
O1641 O 0.96696 0.58095 0.59995 0.0
O1642 O 0.93407 0.62053 0.60114 0.0
O1643 O 0.05942 0.64712 0.62523 0.0
O1644 O 1.01735 0.66552 0.61276 0.0
O1645 O 0.97697 0.62413 0.63357 0.0
O1646 O 1.02791 0.63269 0.63887 0.0
O1647 O 0.08394 0.59684 0.64268 0.0
O1648 O 0.0614 0.55193 0.64002 0.0
O1649 O 0.95877 0.58722 0.62923 0.0
O1650 O 1.00283 0.56355 0.638 0.0
C1651 C 0.04186 0.59321 0.59356 0.0
C1652 C 0.04529 0.67188 0.61886 0.0
C1653 C 0.93286 0.58853 0.58167 0.0
C1654 C 0.89944 0.56387 0.56469 0.0
C1655 C 0.94108 0.60065 0.55807 0.0
C1656 C 0.94926 0.60492 0.57158 0.0
C1657 C 0.91607 0.58061 0.55461 0.0
C1658 C 0.90892 0.56739 0.57819 0.0
C1659 C 0.94009 0.5928 0.59595 0.0
C1660 C 0.92279 0.74154 0.60689 0.0
C1661 C 0.94378 0.74482 0.59605 0.0
H1662 H 0.88407 0.72701 0.62777 0.0
C1663 C 0.99805 0.63735 0.6411 0.0
C1664 C 0.97078 0.56517 0.63789 0.0
C1665 C 0.07269 0.56604 0.66188 0.0
C1666 C 0.03945 0.58159 0.68079 0.0
C1667 C 0.0827 0.54426 0.68404 0.0
C1668 C 0.09064 0.54676 0.67041 0.0
C1669 C 0.05762 0.56186 0.68928 0.0
C1670 C 0.04628 0.58189 0.66695 0.0
C1671 C 0.08002 0.56852 0.64752 0.0
H1672 H 0.95363 0.61348 0.55028 0.0
H1673 H 0.96825 0.62089 0.57414 0.0
H1674 H 0.90923 0.57919 0.54411 0.0
H1675 H 0.89734 0.55414 0.58615 0.0
H1676 H 0.09671 0.52951 0.69067 0.0
H1677 H 0.11062 0.53367 0.66652 0.0
H1678 H 0.05376 0.56122 0.70007 0.0
H1679 H 1.03188 0.59561 0.6601 0.0
C1680 C 0.84623 0.29957 0.72293 0.0
C1681 C 0.82776 0.24559 0.72619 0.0
C1682 C 0.82171 0.27758 0.72313 0.0
C1683 C 0.85876 0.23593 0.72903 0.0
C1684 C 0.87728 0.28996 0.72603 0.0
C1685 C 0.88341 0.25805 0.72899 0.0
N1686 N 0.83946 0.33047 0.72023 0.0
C1687 C 0.86284 0.35277 0.7205 0.0
C1688 C 0.90124 0.31274 0.72623 0.0
C1689 C 0.89396 0.34425 0.72349 0.0
Gd1690 Gd 0.764 0.41241 0.73389 0.0
Gd1691 Gd 0.78665 0.34026 0.71391 0.0
N1692 N 0.79179 0.28769 0.72071 0.0
C1693 C 0.80243 0.22426 0.72633 0.0
C1694 C 0.76704 0.26703 0.72068 0.0
C1695 C 0.77196 0.23503 0.72353 0.0
H1696 H 0.7436 0.27496 0.7181 0.0
H1697 H 0.75231 0.21863 0.72343 0.0
H1698 H 0.77128 0.48134 0.71774 0.0
H1699 H 0.85793 0.37733 0.71867 0.0
H1700 H 0.7605 0.53772 0.72149 0.0
H1701 H 0.80616 0.19945 0.72855 0.0
H1702 H 0.86387 0.21144 0.73139 0.0
H1703 H 0.72285 0.37339 0.75829 0.0
H1704 H 0.92538 0.30631 0.7286 0.0
H1705 H 0.91231 0.36209 0.72375 0.0
H1706 H 0.7081 0.54029 0.76443 0.0
H1707 H 0.90715 0.25027 0.73136 0.0
H1708 H 0.68527 0.44107 0.78576 0.0
H1709 H 0.69427 0.38552 0.77908 0.0
N1710 N 0.73238 0.42171 0.7533 0.0
C1711 C 0.72629 0.45221 0.75654 0.0
C1712 C 0.72019 0.39786 0.7611 0.0
C1713 C 0.69837 0.43592 0.77664 0.0
C1714 C 0.70344 0.40458 0.77291 0.0
C1715 C 0.70937 0.46024 0.76831 0.0
H1716 H 0.69066 0.49883 0.78025 0.0
N1717 N 0.75086 0.46629 0.7363 0.0
C1718 C 0.7358 0.47533 0.74769 0.0
C1719 C 0.73835 0.53009 0.74078 0.0
C1720 C 0.72914 0.50742 0.75029 0.0
C1721 C 0.75954 0.4883 0.7269 0.0
C1722 C 0.75345 0.52043 0.72898 0.0
O1723 O 0.79776 0.33015 0.73698 0.0
O1724 O 0.77392 0.37028 0.74923 0.0
O1725 O 0.80011 0.43934 0.74369 0.0
O1726 O 0.81186 0.39377 0.73431 0.0
O1727 O 0.73241 0.33191 0.72075 0.0
O1728 O 0.71741 0.37738 0.7324 0.0
O1729 O 0.73688 0.42535 0.71499 0.0
O1730 O 0.76102 0.38268 0.71502 0.0
O1731 O 0.75734 0.32038 0.69823 0.0
O1732 O 0.80733 0.32613 0.69476 0.0
O1733 O 0.79582 0.43106 0.71449 0.0
O1734 O 0.81485 0.38547 0.70407 0.0
C1735 C 0.79031 0.34301 0.74894 0.0
C1736 C 0.70942 0.3485 0.72719 0.0
C1737 C 0.83838 0.40832 0.75493 0.0
C1738 C 0.84955 0.41982 0.7786 0.0
C1739 C 0.87116 0.37278 0.76828 0.0
C1740 C 0.85698 0.38093 0.75597 0.0
C1741 C 0.86708 0.3919 0.77967 0.0
C1742 C 0.83557 0.4279 0.76628 0.0
C1743 C 0.82121 0.41677 0.74236 0.0
C1744 C 0.71325 0.51576 0.7622 0.0
C1745 C 0.70337 0.49218 0.7712 0.0
H1746 H 0.73366 0.55498 0.74238 0.0
C1747 C 0.74242 0.40062 0.70801 0.0
C1748 C 0.81513 0.41777 0.705 0.0
C1749 C 0.7828 0.27917 0.68686 0.0
C1750 C 0.754 0.2302 0.6828 0.0
C1751 C 0.8111 0.22942 0.68512 0.0
C1752 C 0.8113 0.26215 0.68705 0.0
C1753 C 0.78258 0.2134 0.68312 0.0
C1754 C 0.75447 0.26306 0.68446 0.0
C1755 C 0.7813 0.31279 0.6907 0.0
H1756 H 0.88487 0.35127 0.76905 0.0
H1757 H 0.85981 0.36534 0.74745 0.0
H1758 H 0.8776 0.38507 0.7892 0.0
H1759 H 0.82162 0.44935 0.76574 0.0
H1760 H 0.83305 0.21637 0.68539 0.0
H1761 H 0.83357 0.27389 0.68904 0.0
H1762 H 0.78289 0.18799 0.68177 0.0
H1763 H 0.73241 0.27604 0.68461 0.0
C1764 C 0.9832 0.54026 0.98498 0.0
C1765 C 1.03704 0.52538 0.99093 0.0
C1766 C 1.00679 0.51727 0.98605 0.0
C1767 C 0.044 0.557 0.994 0.0
C1768 C 0.99001 0.57184 0.98861 0.0
C1769 C 1.02058 0.58014 0.99284 0.0
N1770 N 0.95329 0.53133 0.98131 0.0
C1771 C 0.92965 0.5534 0.98094 0.0
C1772 C 0.96575 0.59416 0.98823 0.0
C1773 C 0.93547 0.58484 0.98447 0.0
Gd1774 Gd 0.88221 0.45267 0.99169 0.0
Gd1775 Gd 0.94969 0.47825 0.97351 0.0
N1776 N 0.99909 0.48649 0.98363 0.0
C1777 C 0.05909 0.50126 0.9931 0.0
C1778 C 1.02026 0.46279 0.98604 0.0
C1779 C 0.05055 0.46985 0.99077 0.0
H1780 H 1.01409 0.4385 0.98401 0.0
H1781 H 0.06737 0.45105 0.99255 0.0
H1782 H 0.81026 0.47373 0.98023 0.0
H1783 H 0.90591 0.54745 0.97808 0.0
H1784 H 0.75503 0.45869 0.98293 0.0
H1785 H 0.08254 0.50659 0.99686 0.0
H1786 H 0.06719 0.56368 0.99765 0.0
H1787 H 0.92257 0.40376 1.01307 0.0
H1788 H 0.97006 0.61858 0.99099 0.0
H1789 H 0.91649 0.60194 0.98424 0.0
H1790 H 0.75679 0.37695 1.01643 0.0
H1791 H 1.02617 0.60432 0.99556 0.0
H1792 H 0.85689 0.34663 1.03466 0.0
H1793 H 0.91171 0.36333 1.03 0.0
N1794 N 0.87397 0.41234 1.00825 0.0
C1795 C 0.84385 0.40282 1.01053 0.0
C1796 C 0.89822 0.39797 1.01511 0.0
C1797 C 0.8614 0.36498 1.02726 0.0
C1798 C 0.89231 0.37441 1.02469 0.0
C1799 C 0.8367 0.37902 1.0201 0.0
H1800 H 0.79929 0.35164 1.02945 0.0
N1801 N 0.82806 0.43942 0.99413 0.0
C1802 C 0.82012 0.41675 1.00319 0.0
C1803 C 0.76477 0.42279 0.99774 0.0
C1804 C 0.78833 0.40773 1.00523 0.0
C1805 C 0.80487 0.45466 0.98702 0.0
C1806 C 0.7731 0.44648 0.98864 0.0
O1807 O 0.95839 0.48641 0.99694 0.0
O1808 O 0.9215 0.45788 1.00835 0.0
O1809 O 0.8995 0.50043 0.99291 0.0
O1810 O 0.8561 0.48653 1.0035 0.0
O1811 O 0.95918 0.42288 0.97824 0.0
O1812 O 0.91301 0.40534 0.98784 0.0
O1813 O 0.87397 0.43795 0.97076 0.0
O1814 O 0.92328 0.44139 0.96134 0.0
O1815 O 0.98989 0.46588 0.96104 0.0
O1816 O 0.96216 0.50683 0.95604 0.0
O1817 O 0.86064 0.482 0.97238 0.0
O1818 O 0.90473 0.50515 0.96317 0.0
C1819 C 0.94743 0.47574 1.00868 0.0
C1820 C 0.94228 0.39838 0.98329 0.0
C1821 C 0.88405 0.53028 1.01221 0.0
C1822 C 0.87782 0.58212 1.02271 0.0
C1823 C 0.89944 0.53789 1.0355 0.0
C1824 C 0.89398 0.51792 1.0246 0.0
C1825 C 0.89145 0.56977 1.03462 0.0
C1826 C 0.87666 0.56254 1.01121 0.0
C1827 C 0.87638 0.50928 1.00089 0.0
C1828 C 0.78103 0.38418 1.01474 0.0
C1829 C 0.8052 0.36983 1.02216 0.0
H1830 H 0.74012 0.41657 0.99903 0.0
C1831 C 0.89314 0.43445 0.96058 0.0
C1832 C 0.87272 0.50325 0.9634 0.0
C1833 C 0.98832 0.48026 0.93824 0.0
C1834 C 1.02232 0.46193 0.92009 0.0
C1835 C 0.96616 0.46925 0.91615 0.0
C1836 C 0.96225 0.47926 0.9295 0.0
C1837 C 0.99603 0.46033 0.91147 0.0
C1838 C 1.0182 0.47197 0.93344 0.0
C1839 C 0.98544 0.48871 0.95253 0.0
H1840 H 0.90771 0.52822 1.04498 0.0
H1841 H 0.89649 0.49275 1.02599 0.0
H1842 H 0.89298 0.58362 1.04376 0.0
H1843 H 0.86711 0.57153 1.00181 0.0
H1844 H 0.94597 0.46816 0.90946 0.0
H1845 H 0.93894 0.48577 0.93301 0.0
H1846 H 0.99864 0.45248 0.90113 0.0
H1847 H 1.03824 0.47252 0.94027 0.0
C1848 C 0.81718 0.76679 0.24824 0.0
C1849 C 0.81849 0.82026 0.25737 0.0
C1850 C 0.83106 0.79671 0.24886 0.0
C1851 C 0.79102 0.814 0.2648 0.0
C1852 C 0.79011 0.7603 0.25612 0.0
C1853 C 0.7769 0.78413 0.26418 0.0
N1854 N 0.8311 0.74367 0.24063 0.0
C1855 C 0.81826 0.71403 0.24045 0.0
C1856 C 0.77737 0.72985 0.25594 0.0
C1857 C 0.7916 0.70662 0.24813 0.0
Gd1858 Gd 0.91001 0.69073 0.2357 0.0
Gd1859 Gd 0.87344 0.76199 0.22684 0.0
N1860 N 0.85841 0.8019 0.24199 0.0
C1861 C 0.83458 0.84906 0.25858 0.0
C1862 C 0.87458 0.82976 0.24335 0.0
C1863 C 0.86297 0.85363 0.25171 0.0
H1864 H 0.89647 0.83343 0.23794 0.0
H1865 H 0.87594 0.8755 0.25289 0.0
H1866 H 0.91627 0.63879 0.21043 0.0
H1867 H 0.8282 0.69557 0.23459 0.0
H1868 H 0.95583 0.60185 0.20125 0.0
H1869 H 0.82571 0.86761 0.26507 0.0
H1870 H 0.78096 0.83186 0.27132 0.0
H1871 H 0.94117 0.71944 0.26451 0.0
H1872 H 0.75672 0.72394 0.2619 0.0
H1873 H 0.78196 0.6829 0.24796 0.0
H1874 H 0.04455 0.61244 0.23108 0.0
H1875 H 0.75607 0.77948 0.27021 0.0
H1876 H 1.03416 0.68167 0.26906 0.0
H1877 H 0.99068 0.71526 0.27746 0.0
N1878 N 0.9566 0.68917 0.24871 0.0
C1879 C 0.97972 0.66955 0.24423 0.0
C1880 C 0.95989 0.70472 0.26072 0.0
C1881 C 1.01246 0.68345 0.26331 0.0
C1882 C 0.98797 0.70243 0.26808 0.0
C1883 C 1.00842 0.66643 0.25133 0.0
H1884 H 0.05414 0.64346 0.25168 0.0
N1885 N 0.94584 0.65458 0.22643 0.0
C1886 C 0.97429 0.65199 0.23266 0.0
C1887 C 0.99062 0.61278 0.21641 0.0
C1888 C 0.99746 0.63096 0.22784 0.0
C1889 C 0.939 0.63688 0.21529 0.0
C1890 C 0.96131 0.61584 0.21009 0.0
O1891 O 0.8881 0.76774 0.24923 0.0
O1892 O 0.88661 0.71641 0.25483 0.0
O1893 O 0.91063 0.64278 0.24367 0.0
O1894 O 0.87073 0.67426 0.2474 0.0
O1895 O 0.93068 0.77435 0.2283 0.0
O1896 O 0.95325 0.72761 0.23517 0.0
O1897 O 0.90899 0.69974 0.21308 0.0
O1898 O 0.91333 0.75271 0.21359 0.0
O1899 O 0.8737 0.80749 0.21648 0.0
O1900 O 0.83496 0.7757 0.21348 0.0
O1901 O 0.87202 0.67315 0.2189 0.0
O1902 O 0.84685 0.71935 0.21344 0.0
C1903 C 0.88387 0.74648 0.25875 0.0
C1904 C 0.95755 0.7582 0.23191 0.0
C1905 C 0.8848 0.64064 0.26495 0.0
C1906 C 0.85432 0.63205 0.28548 0.0
C1907 C 0.91178 0.63444 0.28636 0.0
C1908 C 0.91291 0.63907 0.27242 0.0
C1909 C 0.88275 0.63075 0.29287 0.0
C1910 C 0.85574 0.63775 0.27155 0.0
C1911 C 0.88461 0.64763 0.25047 0.0
C1912 C 1.0264 0.62836 0.23468 0.0
C1913 C 1.03187 0.64604 0.2464 0.0
H1914 H 1.00765 0.59608 0.2125 0.0
C1915 C 0.91494 0.72664 0.20702 0.0
C1916 C 0.84878 0.68717 0.21164 0.0
C1917 C 0.82255 0.82946 0.21746 0.0
C1918 C 0.81606 0.88364 0.22554 0.0
C1919 C 0.77437 0.84514 0.22906 0.0
C1920 C 0.79239 0.82201 0.22255 0.0
C1921 C 0.78613 0.87587 0.2306 0.0
C1922 C 0.83362 0.86043 0.21871 0.0
C1923 C 0.84456 0.80474 0.21261 0.0
H1924 H 0.93349 0.63315 0.2921 0.0
H1925 H 0.93565 0.64156 0.26756 0.0
H1926 H 0.88275 0.6257 0.30358 0.0
H1927 H 0.83417 0.63985 0.26572 0.0
H1928 H 0.75134 0.83912 0.23305 0.0
H1929 H 0.78313 0.79818 0.2219 0.0
H1930 H 0.77181 0.89357 0.23555 0.0
H1931 H 0.85641 0.86632 0.21439 0.0
C1932 C 0.51388 0.51405 0.49506 0.0
C1933 C 0.45774 0.5187 0.50014 0.0
C1934 C 0.48552 0.53078 0.49422 0.0
C1935 C 0.45836 0.48905 0.50649 0.0
C1936 C 0.51464 0.48484 0.50198 0.0
C1937 C 0.48671 0.47222 0.50743 0.0
N1938 N 0.54092 0.52733 0.48999 0.0
C1939 C 0.5692 0.51248 0.49178 0.0
C1940 C 0.5436 0.4695 0.50356 0.0
C1941 C 0.57098 0.48353 0.49856 0.0
Gd1942 Gd 0.60127 0.60157 0.4929 0.0
Gd1943 Gd 0.53204 0.57389 0.47715 0.0
N1944 N 0.48584 0.56019 0.48861 0.0
C1945 C 0.43036 0.53725 0.49986 0.0
C1946 C 0.45946 0.57868 0.48852 0.0
C1947 C 0.43129 0.56744 0.49411 0.0
H1948 H 0.46012 0.60184 0.48387 0.0
H1949 H 0.41027 0.58194 0.49389 0.0
H1950 H 0.6629 0.61063 0.47201 0.0
H1951 H 0.59066 0.52265 0.48821 0.0
H1952 H 0.70017 0.65269 0.46525 0.0
H1953 H 0.40853 0.52869 0.50425 0.0
H1954 H 0.4372 0.47929 0.51103 0.0
H1955 H 0.56533 0.6276 0.52117 0.0
H1956 H 0.54516 0.4471 0.50885 0.0
H1957 H 0.59359 0.47205 0.49992 0.0
H1958 H 0.67781 0.73799 0.49566 0.0
H1959 H 0.48693 0.44971 0.51268 0.0
H1960 H 0.5998 0.72041 0.52991 0.0
H1961 H 0.56524 0.67505 0.53553 0.0
N1962 N 0.59968 0.64563 0.5075 0.0
C1963 C 0.6199 0.66972 0.50464 0.0
C1964 C 0.58085 0.64694 0.51869 0.0
C1965 C 0.60015 0.69948 0.52362 0.0
C1966 C 0.58062 0.67392 0.52683 0.0
C1967 C 0.6203 0.69753 0.51247 0.0
H1968 H 0.6415 0.74388 0.51487 0.0
N1969 N 0.64067 0.63847 0.48713 0.0
C1970 C 0.64063 0.66624 0.49396 0.0
C1971 C 0.68321 0.68586 0.48002 0.0
C1972 C 0.66196 0.69068 0.49063 0.0
C1973 C 0.66225 0.63312 0.47716 0.0
C1974 C 0.68353 0.65683 0.47334 0.0
O1975 O 0.52056 0.58149 0.50036 0.0
O1976 O 0.56937 0.5756 0.50898 0.0
O1977 O 0.61231 0.55971 0.50437 0.0
O1978 O 0.64698 0.59775 0.50265 0.0
O1979 O 0.52189 0.6298 0.47973 0.0
O1980 O 0.56471 0.6462 0.49213 0.0
O1981 O 0.60379 0.60425 0.47063 0.0
O1982 O 0.55324 0.61512 0.46577 0.0
O1983 O 0.4952 0.58493 0.46277 0.0
O1984 O 0.51429 0.5381 0.46317 0.0
O1985 O 0.61993 0.56627 0.47485 0.0
O1986 O 0.57491 0.54485 0.46582 0.0
C1987 C 0.53845 0.57396 0.51094 0.0
C1988 C 0.53678 0.65368 0.48625 0.0
C1989 C 0.64784 0.56637 0.52228 0.0
C1990 C 0.68488 0.54642 0.53902 0.0
C1991 C 0.63871 0.57665 0.54596 0.0
C1992 C 0.62967 0.58008 0.5325 0.0
C1993 C 0.66633 0.5603 0.54923 0.0
C1994 C 0.67463 0.54883 0.52557 0.0
C1995 C 0.63995 0.57042 0.50804 0.0
C1996 C 0.66172 0.71887 0.4981 0.0
C1997 C 0.64103 0.72223 0.50904 0.0
H1998 H 0.69979 0.70415 0.47707 0.0
C1999 C 0.58313 0.61848 0.4632 0.0
C2000 C 0.60708 0.54513 0.46599 0.0
C2001 C 0.4589 0.54355 0.45981 0.0
C2002 C 0.40272 0.55566 0.4589 0.0
C2003 C 0.41998 0.504 0.46642 0.0
C2004 C 0.4516 0.51304 0.46458 0.0
C2005 C 0.39546 0.52521 0.46352 0.0
C2006 C 0.43429 0.56426 0.45685 0.0
C2007 C 0.4915 0.55591 0.45891 0.0
H2008 H 0.62474 0.5874 0.55385 0.0
H2009 H 0.60868 0.59342 0.5301 0.0
H2010 H 0.67361 0.55965 0.55969 0.0
H2011 H 0.68783 0.53771 0.51752 0.0
H2012 H 0.41449 0.48052 0.4701 0.0
H2013 H 0.47016 0.49646 0.4671 0.0
H2014 H 0.37111 0.51782 0.4647 0.0
H2015 H 0.43976 0.58753 0.45282 0.0
C2016 C 0.38619 0.39806 0.25486 0.0
C2017 C 0.40727 0.44389 0.24318 0.0
C2018 C 0.38357 0.42073 0.24483 0.0
C2019 C 0.43383 0.4436 0.25167 0.0
C2020 C 0.41248 0.39807 0.26361 0.0
C2021 C 0.4364 0.42078 0.26188 0.0
N2022 N 0.36285 0.37614 0.25612 0.0
C2023 C 0.36355 0.35468 0.26646 0.0
C2024 C 0.41379 0.37546 0.27391 0.0
C2025 C 0.38909 0.35385 0.27541 0.0
Gd2026 Gd 0.29651 0.31062 0.22339 0.0
Gd2027 Gd 0.32121 0.37928 0.2403 0.0
N2028 N 0.35741 0.42065 0.23693 0.0
C2029 C 0.40339 0.46684 0.23311 0.0
C2030 C 0.35315 0.44337 0.22729 0.0
C2031 C 0.37613 0.46664 0.22517 0.0
H2032 H 0.33196 0.44361 0.22121 0.0
H2033 H 0.37276 0.48446 0.21746 0.0
H2034 H 0.32468 0.23771 0.22881 0.0
H2035 H 0.34496 0.33756 0.26766 0.0
H2036 H 0.30458 0.18607 0.23693 0.0
H2037 H 0.42109 0.48498 0.2315 0.0
H2038 H 0.45234 0.46112 0.25052 0.0
H2039 H 0.24209 0.36584 0.23435 0.0
H2040 H 0.43358 0.3747 0.28084 0.0
H2041 H 0.38975 0.33645 0.28342 0.0
H2042 H 0.19882 0.20798 0.25128 0.0
H2043 H 0.45685 0.42105 0.26846 0.0
H2044 H 0.1648 0.31556 0.25143 0.0
H2045 H 0.18997 0.36588 0.24474 0.0
N2046 N 0.24759 0.3159 0.23481 0.0
C2047 C 0.23401 0.28778 0.23848 0.0
C2048 C 0.23196 0.3436 0.23706 0.0
C2049 C 0.18789 0.31529 0.24673 0.0
C2050 C 0.20207 0.34374 0.24302 0.0
C2051 C 0.20393 0.28688 0.24462 0.0
H2052 H 0.16802 0.25682 0.25352 0.0
N2053 N 0.2813 0.26157 0.23226 0.0
C2054 C 0.25127 0.25985 0.23709 0.0
C2055 C 0.25834 0.20409 0.24165 0.0
C2056 C 0.23907 0.23096 0.24198 0.0
C2057 C 0.30062 0.23576 0.23238 0.0
C2058 C 0.28934 0.20658 0.23697 0.0
O2059 O 0.32714 0.38432 0.21815 0.0
O2060 O 0.33879 0.3337 0.21338 0.0
O2061 O 0.30578 0.27266 0.20924 0.0
O2062 O 0.26508 0.30212 0.20647 0.0
O2063 O 0.28809 0.39888 0.22181 0.0
O2064 O 0.26725 0.35381 0.21273 0.0
O2065 O 0.29815 0.29691 0.24653 0.0
O2066 O 0.29458 0.34568 0.25566 0.0
O2067 O 0.3142 0.42409 0.25047 0.0
O2068 O 0.27732 0.38793 0.25056 0.0
O2069 O 0.35172 0.29996 0.2279 0.0
O2070 O 0.36744 0.34495 0.23905 0.0
C2071 C 0.34129 0.36373 0.21064 0.0
C2072 C 0.26744 0.38587 0.21288 0.0
C2073 C 0.2943 0.28892 0.18709 0.0
C2074 C 0.33341 0.2801 0.16955 0.0
C2075 C 0.29709 0.32408 0.16764 0.0
C2076 C 0.28308 0.31538 0.17989 0.0
C2077 C 0.32255 0.3068 0.16255 0.0
C2078 C 0.31884 0.27112 0.18164 0.0
C2079 C 0.28382 0.28171 0.20095 0.0
C2080 C 0.20866 0.23001 0.24757 0.0
C2081 C 0.19114 0.25786 0.24887 0.0
H2082 H 0.2498 0.1815 0.24534 0.0
C2083 C 0.29093 0.31463 0.25716 0.0
C2084 C 0.37532 0.31617 0.23406 0.0
C2085 C 0.27894 0.42303 0.26882 0.0
C2086 C 0.25448 0.45891 0.28489 0.0
C2087 C 0.28481 0.41342 0.29275 0.0
C2088 C 0.2915 0.40515 0.27944 0.0
C2089 C 0.26679 0.44031 0.2955 0.0
C2090 C 0.25971 0.44903 0.27155 0.0
C2091 C 0.2862 0.41583 0.25478 0.0
H2092 H 0.28864 0.34467 0.16224 0.0
H2093 H 0.26417 0.32984 0.18386 0.0
H2094 H 0.33366 0.31417 0.15322 0.0
H2095 H 0.32791 0.25107 0.18728 0.0
H2096 H 0.29456 0.39964 0.30096 0.0
H2097 H 0.30651 0.38501 0.27744 0.0
H2098 H 0.26401 0.44723 0.30593 0.0
H2099 H 0.24988 0.46223 0.26316 0.0
C2100 C 0.45377 0.69509 0.99332 0.0
C2101 C 0.41455 0.71363 0.9773 0.0
C2102 C 0.43447 0.68956 0.98227 0.0
C2103 C 0.41466 0.74344 0.98353 0.0
C2104 C 0.45334 0.7247 0.99983 0.0
C2105 C 0.43391 0.74891 0.9948 0.0
N2106 N 0.47304 0.67145 0.99768 0.0
C2107 C 0.49094 0.6753 1.00906 0.0
C2108 C 0.47241 0.72907 1.01122 0.0
C2109 C 0.49105 0.70417 1.01592 0.0
Gd2110 Gd 0.54284 0.59033 0.97326 0.0
Gd2111 Gd 0.47174 0.62418 0.985 0.0
N2112 N 0.43464 0.6604 0.97656 0.0
C2113 C 0.39494 0.70695 0.96629 0.0
C2114 C 0.41494 0.65348 0.96605 0.0
C2115 C 0.39504 0.67669 0.96069 0.0
H2116 H 0.41473 0.63013 0.96167 0.0
H2117 H 0.37981 0.67123 0.95223 0.0
H2118 H 0.61448 0.61501 0.98299 0.0
H2119 H 0.50595 0.65646 1.0126 0.0
H2120 H 0.65913 0.59469 0.99669 0.0
H2121 H 0.3794 0.72483 0.96215 0.0
H2122 H 0.39968 0.76228 0.9798 0.0
H2123 H 0.47835 0.54416 0.98289 0.0
H2124 H 0.47273 0.75147 1.01651 0.0
H2125 H 0.50571 0.70727 1.02477 0.0
H2126 H 0.62141 0.49638 1.01448 0.0
H2127 H 0.43347 0.7719 0.99961 0.0
H2128 H 0.51293 0.47013 1.00773 0.0
H2129 H 0.46899 0.49616 0.99574 0.0
N2130 N 0.52753 0.54665 0.987 0.0
C2131 C 0.5521 0.53265 0.99371 0.0
C2132 C 0.49806 0.53364 0.98778 0.0
C2133 C 0.51738 0.49143 1.00194 0.0
C2134 C 0.49254 0.50609 0.99522 0.0
C2135 C 0.54753 0.50478 1.00137 0.0
H2136 H 0.56972 0.47001 1.01436 0.0
N2137 N 0.58489 0.57562 0.98731 0.0
C2138 C 0.5816 0.5474 0.99379 0.0
C2139 C 0.635 0.55187 1.00228 0.0
C2140 C 0.60667 0.53485 1.00149 0.0
C2141 C 0.61228 0.59262 0.98821 0.0
C2142 C 0.63761 0.58109 0.9958 0.0
O2143 O 0.47537 0.62397 0.96255 0.0
O2144 O 0.52789 0.63005 0.95977 0.0
O2145 O 0.58477 0.59551 0.96085 0.0
O2146 O 0.55982 0.55151 0.96074 0.0
O2147 O 0.45417 0.58719 0.96755 0.0
O2148 O 0.49979 0.56225 0.96112 0.0
O2149 O 0.5506 0.60283 0.99605 0.0
O2150 O 0.50018 0.6002 1.003 0.0
O2151 O 0.4559 0.58434 0.99671 0.0
O2152 O 0.42513 0.6251 0.99423 0.0
O2153 O 0.55553 0.64658 0.9755 0.0
O2154 O 0.50906 0.66737 0.98343 0.0
C2155 C 0.49919 0.6348 0.95567 0.0
C2156 C 0.46763 0.56409 0.95994 0.0
C2157 C 0.61587 0.54933 0.96129 0.0
C2158 C 0.67226 0.5545 0.96601 0.0
C2159 C 0.64502 0.50578 0.97152 0.0
C2160 C 0.6166 0.51846 0.96663 0.0
C2161 C 0.67288 0.52373 0.97123 0.0
C2162 C 0.64394 0.56654 0.96071 0.0
C2163 C 0.58603 0.56573 0.9578 0.0
C2164 C 0.60235 0.50647 1.00859 0.0
C2165 C 0.57289 0.4915 1.00853 0.0
H2166 H 0.65469 0.54307 1.00817 0.0
C2167 C 0.53066 0.5977 1.00608 0.0
C2168 C 0.53923 0.67255 0.97965 0.0
C2169 C 0.42269 0.59634 1.01469 0.0
C2170 C 0.39231 0.57356 1.03315 0.0
C2171 C 0.43591 0.60946 1.03782 0.0
C2172 C 0.44148 0.61262 1.02403 0.0
C2173 C 0.41141 0.59016 1.04239 0.0
C2174 C 0.3984 0.57663 1.01926 0.0
C2175 C 0.42953 0.5979 1.00023 0.0
H2176 H 0.64536 0.48209 0.97566 0.0
H2177 H 0.59523 0.50448 0.96737 0.0
H2178 H 0.69473 0.51364 0.97493 0.0
H2179 H 0.64363 0.59 0.95627 0.0
H2180 H 0.4505 0.62213 1.04498 0.0
H2181 H 0.46071 0.62736 1.0207 0.0
H2182 H 0.40698 0.5889 1.05314 0.0
H2183 H 0.38444 0.56356 1.01199 0.0
C2184 C 0.10511 0.62854 0.75538 0.0
C2185 C 0.10328 0.57739 0.74459 0.0
C2186 C 0.11805 0.60693 0.74671 0.0
C2187 C 0.07428 0.57082 0.75085 0.0
C2188 C 0.07686 0.62143 0.76233 0.0
C2189 C 0.06109 0.59283 0.75974 0.0
N2190 N 0.12128 0.65569 0.75767 0.0
C2191 C 0.11115 0.67594 0.76756 0.0
C2192 C 0.06578 0.64283 0.77193 0.0
C2193 C 0.08327 0.66999 0.77469 0.0
Gd2194 Gd 0.19569 0.7343 0.72718 0.0
Gd2195 Gd 0.16546 0.66642 0.74341 0.0
N2196 N 0.14631 0.61396 0.74108 0.0
C2197 C 0.11863 0.55497 0.73661 0.0
C2198 C 0.16236 0.59121 0.73409 0.0
C2199 C 0.14861 0.56171 0.73157 0.0
H2200 H 0.18608 0.59517 0.73058 0.0
H2201 H 0.16132 0.54408 0.72583 0.0
H2202 H 0.15165 0.80101 0.72898 0.0
H2203 H 0.12344 0.69764 0.76969 0.0
H2204 H 0.15965 0.85709 0.73468 0.0
H2205 H 0.1081 0.53202 0.73473 0.0
H2206 H 0.06239 0.54844 0.74923 0.0
H2207 H 0.26332 0.6971 0.7369 0.0
H2208 H 0.0442 0.63827 0.77748 0.0
H2209 H 0.07517 0.68656 0.78223 0.0
H2210 H 0.2689 0.86391 0.74705 0.0
H2211 H 0.03918 0.58713 0.76485 0.0
H2212 H 0.32908 0.76833 0.74886 0.0
H2213 H 0.31629 0.71221 0.74458 0.0
N2214 N 0.2452 0.74412 0.7373 0.0
C2215 C 0.25206 0.77535 0.73929 0.0
C2216 C 0.26807 0.72164 0.73894 0.0
C2217 C 0.30555 0.76189 0.74554 0.0
C2218 C 0.29837 0.73015 0.74321 0.0
C2219 C 0.2823 0.78493 0.74366 0.0
H2220 H 0.3114 0.82481 0.74951 0.0
N2221 N 0.19896 0.78773 0.73359 0.0
C2222 C 0.22803 0.79759 0.73776 0.0
C2223 C 0.20881 0.85119 0.73962 0.0
C2224 C 0.23375 0.82967 0.74076 0.0
C2225 C 0.17443 0.8086 0.73263 0.0
C2226 C 0.17901 0.84056 0.73564 0.0
O2227 O 0.15802 0.66877 0.72113 0.0
O2228 O 0.15002 0.72016 0.71758 0.0
O2229 O 0.20103 0.77228 0.71252 0.0
O2230 O 0.21855 0.72551 0.70797 0.0
O2231 O 0.19348 0.64672 0.72353 0.0
O2232 O 0.22549 0.68851 0.7191 0.0
O2233 O 0.20855 0.73822 0.75024 0.0
O2234 O 0.17293 0.7059 0.7603 0.0
O2235 O 0.19079 0.63402 0.75627 0.0
O2236 O 0.21454 0.67577 0.7479 0.0
O2237 O 0.13967 0.74572 0.73232 0.0
O2238 O 0.12002 0.70089 0.74255 0.0
C2239 C 0.14126 0.691 0.71562 0.0
C2240 C 0.21968 0.6574 0.71704 0.0
C2241 C 0.25301 0.76869 0.7042 0.0
C2242 C 0.28717 0.81515 0.70382 0.0
C2243 C 0.31006 0.76304 0.70636 0.0
C2244 C 0.27993 0.74948 0.70578 0.0
C2245 C 0.31377 0.7958 0.70532 0.0
C2246 C 0.257 0.80139 0.70318 0.0
C2247 C 0.22069 0.75566 0.70537 0.0
C2248 C 0.26403 0.83929 0.74484 0.0
C2249 C 0.28825 0.81703 0.74622 0.0
H2250 H 0.2123 0.87604 0.74183 0.0
C2251 C 0.1948 0.72865 0.76153 0.0
C2252 C 0.11443 0.73059 0.73813 0.0
C2253 C 0.23133 0.65708 0.76925 0.0
C2254 C 0.27825 0.65268 0.78346 0.0
C2255 C 0.2273 0.66651 0.79327 0.0
C2256 C 0.21302 0.66364 0.78067 0.0
C2257 C 0.25955 0.66088 0.79471 0.0
C2258 C 0.26396 0.65266 0.7706 0.0
C2259 C 0.21641 0.65152 0.75611 0.0
H2260 H 0.33058 0.7481 0.70761 0.0
H2261 H 0.27776 0.7241 0.70684 0.0
H2262 H 0.33725 0.80597 0.70551 0.0
H2263 H 0.23639 0.81623 0.70175 0.0
H2264 H 0.21307 0.67168 0.80206 0.0
H2265 H 0.18765 0.66618 0.77988 0.0
H2266 H 0.26907 0.6608 0.80484 0.0
H2267 H 0.27769 0.64721 0.76169 0.0
C2268 C 0.21913 0.40484 0.49836 0.0
C2269 C 0.26812 0.38808 0.48794 0.0
C2270 C 0.24303 0.40978 0.48905 0.0
C2271 C 0.26844 0.36098 0.49616 0.0
C2272 C 0.2198 0.37813 0.5069 0.0
C2273 C 0.24435 0.35605 0.50563 0.0
N2274 N 0.19563 0.42658 0.49928 0.0
C2275 C 0.17312 0.42397 0.50912 0.0
C2276 C 0.19606 0.37469 0.51661 0.0
C2277 C 0.1728 0.39787 0.5178 0.0
Gd2278 Gd 0.12834 0.49302 0.46667 0.0
Gd2279 Gd 0.19824 0.46922 0.48394 0.0
N2280 N 0.24234 0.43645 0.48143 0.0
C2281 C 0.29238 0.39453 0.47874 0.0
C2282 C 0.26623 0.44327 0.47266 0.0
C2283 C 0.29151 0.42235 0.47112 0.0
H2284 H 0.26584 0.46495 0.46687 0.0
H2285 H 0.31035 0.42775 0.46411 0.0
H2286 H 0.05695 0.4623 0.47229 0.0
H2287 H 0.15476 0.44141 0.51004 0.0
H2288 H 1.00441 0.48104 0.4797 0.0
H2289 H 0.31207 0.37844 0.47758 0.0
H2290 H 0.28743 0.34395 0.49541 0.0
H2291 H 0.18177 0.55055 0.47704 0.0
H2292 H 0.19574 0.3545 0.52335 0.0
H2293 H 0.15455 0.3956 0.52538 0.0
H2294 H 1.02256 0.58835 0.4933 0.0
H2295 H 0.24516 0.33528 0.51205 0.0
H2296 H 0.12879 0.62659 0.49337 0.0
H2297 H 0.17991 0.60311 0.48693 0.0
N2298 N 0.13216 0.5428 0.47764 0.0
C2299 C 0.10367 0.55531 0.48134 0.0
C2300 C 0.15921 0.55976 0.47971 0.0
C2301 C 0.12937 0.60317 0.48896 0.0
C2302 C 0.15826 0.58997 0.48537 0.0
C2303 C 0.10164 0.58579 0.48708 0.0
H2304 H 0.07024 0.62117 0.49539 0.0
N2305 N 0.07942 0.50647 0.47586 0.0
C2306 C 0.07652 0.53675 0.48027 0.0
C2307 C 1.02088 0.52804 0.48434 0.0
C2308 C 0.04712 0.54823 0.48476 0.0
C2309 C 0.05421 0.48633 0.47581 0.0
C2310 C 1.0245 0.49689 0.47994 0.0
O2311 O 0.20552 0.4638 0.46207 0.0
O2312 O 0.15497 0.45414 0.45621 0.0
O2313 O 0.09395 0.47554 0.45222 0.0
O2314 O 0.11128 0.523 0.45033 0.0
O2315 O 0.21681 0.50397 0.46566 0.0
O2316 O 0.17143 0.52309 0.45585 0.0
O2317 O 0.11531 0.49146 0.4899 0.0
O2318 O 0.16397 0.49371 0.4993 0.0
O2319 O 0.20456 0.51498 0.49282 0.0
O2320 O 0.23997 0.47816 0.49613 0.0
O2321 O 0.11841 0.43813 0.47198 0.0
O2322 O 0.16496 0.4224 0.48184 0.0
C2323 C 0.18483 0.45505 0.45315 0.0
C2324 C 0.20362 0.52395 0.4564 0.0
C2325 C 0.05743 0.51362 0.44468 0.0
C2326 C 1.00193 0.50082 0.44046 0.0
C2327 C 1.01767 0.55483 0.44569 0.0
C2328 C 0.04914 0.54541 0.44673 0.0
C2329 C 0.99419 0.53278 0.44257 0.0
C2330 C 1.03372 0.49157 0.4415 0.0
C2331 C 0.09033 0.50264 0.44632 0.0
C2332 C 0.04499 0.57904 0.48989 0.0
C2333 C 0.07216 0.59772 0.49108 0.0
H2334 H 0.99787 0.53607 0.48763 0.0
C2335 C 0.13313 0.49807 0.5006 0.0
C2336 C 0.13571 0.41443 0.47741 0.0
C2337 C 0.22993 0.51517 0.51359 0.0
C2338 C 0.23247 0.5568 0.53053 0.0
C2339 C 0.22143 0.50223 0.53711 0.0
C2340 C 0.22372 0.49273 0.52368 0.0
C2341 C 0.22583 0.53395 0.54055 0.0
C2342 C 0.23379 0.54707 0.51701 0.0
C2343 C 0.23005 0.50652 0.49932 0.0
H2344 H 1.01143 0.57934 0.44731 0.0
H2345 H 0.06683 0.56294 0.44927 0.0
H2346 H 0.97007 0.54092 0.44162 0.0
H2347 H 0.04005 0.46695 0.44018 0.0
H2348 H 0.21662 0.48491 0.5449 0.0
H2349 H 0.22016 0.46807 0.52118 0.0
H2350 H 0.2254 0.54018 0.55113 0.0
H2351 H 0.23821 0.56424 0.50909 0.0
C2352 C 0.47782 0.66182 0.34975 0.0
C2353 C 0.4953 0.61538 0.36204 0.0
C2354 C 0.47267 0.63912 0.3596 0.0
C2355 C 0.52343 0.61514 0.35454 0.0
C2356 C 0.50565 0.6612 0.34196 0.0
C2357 C 0.52857 0.63797 0.34451 0.0
N2358 N 0.45524 0.68407 0.34759 0.0
C2359 C 0.45829 0.7053 0.33724 0.0
C2360 C 0.5094 0.68365 0.33169 0.0
C2361 C 0.48549 0.70561 0.32926 0.0
Gd2362 Gd 0.37856 0.7505 0.37614 0.0
Gd2363 Gd 0.4107 0.68163 0.36182 0.0
N2364 N 0.44502 0.63965 0.3665 0.0
C2365 C 0.48879 0.59235 0.37183 0.0
C2366 C 0.43825 0.617 0.3759 0.0
C2367 C 0.46007 0.59312 0.37875 0.0
H2368 H 0.41604 0.61735 0.38123 0.0
H2369 H 0.4547 0.57529 0.38626 0.0
H2370 H 0.40717 0.82245 0.36856 0.0
H2371 H 0.44025 0.72263 0.33535 0.0
H2372 H 0.38883 0.87088 0.35688 0.0
H2373 H 0.50559 0.57374 0.37401 0.0
H2374 H 0.54117 0.59716 0.3563 0.0
H2375 H 0.32556 0.69143 0.36654 0.0
H2376 H 0.53044 0.68396 0.32548 0.0
H2377 H 0.48801 0.72285 0.32124 0.0
H2378 H 0.28858 0.84178 0.3382 0.0
H2379 H 0.55019 0.63723 0.33868 0.0
H2380 H 0.25499 0.73446 0.34234 0.0
H2381 H 0.27715 0.6874 0.3536 0.0
N2382 N 0.33329 0.74037 0.36254 0.0
C2383 C 0.32097 0.76686 0.35653 0.0
C2384 C 0.31732 0.71233 0.36167 0.0
C2385 C 0.27678 0.73651 0.34802 0.0
C2386 C 0.28928 0.70989 0.35431 0.0
C2387 C 0.29253 0.76543 0.34907 0.0
H2388 H 0.25896 0.79192 0.33703 0.0
N2389 N 0.36601 0.79598 0.36364 0.0
C2390 C 0.33756 0.79544 0.35721 0.0
C2391 C 0.34484 0.85003 0.35052 0.0
C2392 C 0.32636 0.82254 0.35042 0.0
C2393 C 0.38456 0.82248 0.36347 0.0
C2394 C 0.37421 0.84987 0.35693 0.0
O2395 O 0.41499 0.67966 0.3841 0.0
O2396 O 0.41536 0.7315 0.39029 0.0
O2397 O 0.38005 0.79301 0.38857 0.0
O2398 O 0.34174 0.76014 0.39077 0.0
O2399 O 0.37588 0.66166 0.37969 0.0
O2400 O 0.35096 0.70639 0.38713 0.0
O2401 O 0.38908 0.76117 0.35318 0.0
O2402 O 0.38616 0.71216 0.34475 0.0
O2403 O 0.36639 0.6714 0.35245 0.0
O2404 O 0.40587 0.63837 0.35018 0.0
O2405 O 0.4348 0.7618 0.37505 0.0
O2406 O 0.45446 0.71781 0.36433 0.0
C2407 C 0.41996 0.70169 0.39307 0.0
C2408 C 0.35324 0.67435 0.38777 0.0
C2409 C 0.3284 0.81413 0.38943 0.0
C2410 C 0.31949 0.86985 0.38422 0.0
C2411 C 0.27865 0.83115 0.37946 0.0
C2412 C 0.29786 0.80713 0.38462 0.0
C2413 C 0.28939 0.8624 0.3792 0.0
C2414 C 0.33861 0.84552 0.38941 0.0
C2415 C 0.35128 0.78889 0.39278 0.0
C2416 C 0.29765 0.82115 0.34339 0.0
C2417 C 0.28083 0.79271 0.34271 0.0
H2418 H 0.33696 0.8713 0.34543 0.0
C2419 C 0.38293 0.74294 0.34264 0.0
C2420 C 0.46017 0.74643 0.36983 0.0
C2421 C 0.36946 0.64451 0.33207 0.0
C2422 C 0.32915 0.63573 0.31489 0.0
C2423 C 0.38318 0.64917 0.30846 0.0
C2424 C 0.39201 0.65031 0.32202 0.0
C2425 C 0.35215 0.64153 0.30488 0.0
C2426 C 0.33809 0.63856 0.32849 0.0
C2427 C 0.3772 0.64615 0.34644 0.0
H2428 H 0.25541 0.82548 0.3756 0.0
H2429 H 0.2892 0.78303 0.38437 0.0
H2430 H 0.27401 0.8808 0.37538 0.0
H2431 H 0.36165 0.8509 0.39361 0.0
H2432 H 0.40062 0.65345 0.30069 0.0
H2433 H 0.41623 0.65577 0.32464 0.0
H2434 H 0.34673 0.63899 0.29427 0.0
H2435 H 0.32082 0.63563 0.33645 0.0
C2436 C 0.12918 0.66308 0.1089 0.0
C2437 C 0.17197 0.68133 0.12317 0.0
C2438 C 0.14991 0.65787 0.11945 0.0
C2439 C 0.17253 0.71025 0.11618 0.0
C2440 C 0.13016 0.69175 0.10162 0.0
C2441 C 0.15175 0.71541 0.10539 0.0
N2442 N 0.10817 0.63995 0.10569 0.0
C2443 C 0.08872 0.64334 0.09474 0.0
C2444 C 0.10961 0.69569 0.09068 0.0
C2445 C 0.089 0.67126 0.08717 0.0
Gd2446 Gd 0.04094 0.56388 0.13606 0.0
Gd2447 Gd 0.10883 0.59412 0.11942 0.0
N2448 N 0.14903 0.62952 0.12586 0.0
C2449 C 0.193 0.6749 0.13372 0.0
C2450 C 0.17015 0.62276 0.13588 0.0
C2451 C 0.19219 0.6454 0.14005 0.0
H2452 H 0.16995 0.59997 0.1408 0.0
H2453 H 0.20852 0.64008 0.14814 0.0
H2454 H 0.96714 0.59094 0.1305 0.0
H2455 H 0.07211 0.62502 0.0921 0.0
H2456 H 0.91509 0.56839 0.12421 0.0
H2457 H 0.21016 0.69237 0.13694 0.0
H2458 H 0.18921 0.7286 0.11893 0.0
H2459 H 0.09563 0.513 0.12201 0.0
H2460 H 0.10966 0.71736 0.08483 0.0
H2461 H 0.07315 0.674 0.07868 0.0
H2462 H 0.9373 0.45995 0.11405 0.0
H2463 H 0.15271 0.73767 0.09998 0.0
H2464 H 0.0455 0.43019 0.11005 0.0
H2465 H 0.09568 0.45927 0.11284 0.0
N2466 N 0.046 0.51447 0.1252 0.0
C2467 C 1.01779 0.49936 0.12313 0.0
C2468 C 0.07354 0.50076 0.1211 0.0
C2469 C 0.04528 0.45378 0.1143 0.0
C2470 C 0.07366 0.47016 0.11581 0.0
C2471 C 1.01685 0.46859 0.11764 0.0
H2472 H 0.98656 0.43036 0.11092 0.0
N2473 N 0.99102 0.54691 0.12891 0.0
C2474 C 0.98956 0.51605 0.12501 0.0
C2475 C 0.93329 0.52129 0.12142 0.0
C2476 C 0.96043 0.50239 0.12128 0.0
C2477 C 0.96514 0.56613 0.12801 0.0
C2478 C 0.93577 0.55342 0.12452 0.0
O2479 O 0.11008 0.59446 0.14178 0.0
O2480 O 0.06013 0.60884 0.14477 0.0
O2481 O 1.00086 0.5551 0.14939 0.0
O2482 O 0.04786 0.55168 0.15725 0.0
O2483 O 0.1285 0.55814 0.13703 0.0
O2484 O 0.08464 0.53223 0.14483 0.0
O2485 O 1.02756 0.561 0.11316 0.0
O2486 O 0.0741 0.5732 0.10293 0.0
O2487 O 0.11837 0.55266 0.10744 0.0
O2488 O 0.15394 0.5898 0.10929 0.0
O2489 O 1.02785 0.61933 0.13065 0.0
O2490 O 0.07335 0.639 0.1211 0.0
C2491 C 0.08918 0.60929 0.14879 0.0
C2492 C 0.11655 0.53476 0.14504 0.0
C2493 C 1.01368 0.58585 0.16818 0.0
C2494 C 1.00515 0.64276 0.16663 0.0
C2495 C 1.03182 0.62015 0.18616 0.0
C2496 C 1.02878 0.58983 0.18065 0.0
C2497 C 1.02023 0.64654 0.17919 0.0
C2498 C 1.00147 0.61237 0.1615 0.0
C2499 C 1.01845 0.55731 0.16005 0.0
C2500 C 0.95953 0.47097 0.11677 0.0
C2501 C 0.98762 0.45412 0.11497 0.0
H2502 H 0.91052 0.51161 0.11859 0.0
C2503 C 0.04457 0.56244 0.10196 0.0
C2504 C 0.04348 0.64473 0.12524 0.0
C2505 C 0.15205 0.5614 0.08897 0.0
C2506 C 0.18699 0.54573 0.07067 0.0
C2507 C 0.13911 0.57561 0.06594 0.0
C2508 C 0.13226 0.57652 0.07968 0.0
C2509 C 0.16644 0.5606 0.06143 0.0
C2510 C 0.1789 0.54548 0.08444 0.0
C2511 C 0.1459 0.56327 0.10348 0.0
H2512 H 0.04389 0.62332 0.19569 0.0
H2513 H 0.03957 0.56989 0.18574 0.0
H2514 H 1.02282 0.66969 0.1837 0.0
H2515 H 0.9913 0.60964 0.15159 0.0
H2516 H 0.12375 0.58744 0.05882 0.0
H2517 H 0.11182 0.58935 0.08307 0.0
H2518 H 0.17204 0.56198 1.0508 0.0
H2519 H 0.19391 0.53375 0.09175 0.0
C2520 C 0.19662 0.42254 0.8515 0.0
C2521 C 0.17648 0.46881 0.86304 0.0
C2522 C 0.19974 0.44531 0.86142 0.0
C2523 C 0.14967 0.46858 0.85468 0.0
C2524 C 0.17024 0.42276 0.84281 0.0
C2525 C 0.1466 0.44565 0.84457 0.0
N2526 N 0.21971 0.40046 0.85021 0.0
C2527 C 0.21885 0.37924 0.8398 0.0
C2528 C 0.16862 0.40025 0.8325 0.0
C2529 C 0.19319 0.37862 0.83091 0.0
Gd2530 Gd 0.28542 0.33367 0.88375 0.0
Gd2531 Gd 0.26138 0.40317 0.86607 0.0
N2532 N 0.22612 0.44517 0.86919 0.0
C2533 C 0.18111 0.49211 0.87286 0.0
C2534 C 0.23126 0.46832 0.87851 0.0
C2535 C 0.20877 0.492 0.88056 0.0
H2536 H 0.25268 0.46837 0.88445 0.0
H2537 H 0.21275 0.51011 0.88807 0.0
H2538 H 0.25893 0.26086 0.87538 0.0
H2539 H 0.23738 0.36208 0.83858 0.0
H2540 H 0.28138 0.2101 0.86762 0.0
H2541 H 0.16376 0.51052 0.87445 0.0
H2542 H 0.13145 0.48633 0.85581 0.0
H2543 H 0.33908 0.39029 0.87266 0.0
H2544 H 0.14874 0.39965 0.82561 0.0
H2545 H 0.19234 0.36136 0.82287 0.0
H2546 H 0.38999 0.23382 0.85875 0.0
H2547 H 0.12603 0.44606 0.83805 0.0
H2548 H 0.42131 0.34216 0.85948 0.0
H2549 H 0.39299 0.39181 0.86426 0.0
N2550 N 0.33588 0.34017 0.87352 0.0
C2551 C 0.35083 0.31246 0.87044 0.0
C2552 C 0.35064 0.36831 0.87098 0.0
C2553 C 0.39746 0.34124 0.86341 0.0
C2554 C 0.38153 0.3693 0.86606 0.0
C2555 C 0.38197 0.31239 0.8653 0.0
H2556 H 0.42023 0.28334 0.85781 0.0
N2557 N 0.30296 0.28524 0.87472 0.0
C2558 C 0.33391 0.28418 0.8711 0.0
C2559 C 0.32852 0.22869 0.86558 0.0
C2560 C 0.3475 0.25575 0.86646 0.0
C2561 C 0.28384 0.25936 0.87304 0.0
C2562 C 0.29644 0.23066 0.86866 0.0
O2563 O 0.2539 0.40623 0.88834 0.0
O2564 O 0.24136 0.35553 0.89193 0.0
O2565 O 0.27834 0.29166 0.89586 0.0
O2566 O 0.30659 0.32913 0.9038 0.0
O2567 O 0.294 0.42258 0.88476 0.0
O2568 O 0.31462 0.37768 0.89432 0.0
O2569 O 0.28649 0.32006 0.8607 0.0
O2570 O 0.28772 0.36872 0.85109 0.0
O2571 O 0.30554 0.41124 0.85582 0.0
O2572 O 0.26922 0.44765 0.85557 0.0
O2573 O 0.23049 0.32359 0.87788 0.0
O2574 O 0.21521 0.36853 0.86652 0.0
C2575 C 0.23679 0.38528 0.89455 0.0
C2576 C 0.31439 0.40992 0.89392 0.0
C2577 C 0.27485 0.30014 0.91929 0.0
C2578 C 0.2311 0.2778 0.93245 0.0
C2579 C 0.27067 0.31112 0.94325 0.0
C2580 C 0.28658 0.31459 0.931 0.0
C2581 C 0.2433 0.2927 0.94403 0.0
C2582 C 0.24681 0.28226 0.92008 0.0
C2583 C 0.29239 0.3026 0.90641 0.0
C2584 C 0.37905 0.25552 0.86217 0.0
C2585 C 0.39625 0.28375 0.86162 0.0
H2586 H 0.33813 0.20648 0.86204 0.0
C2587 C 0.29269 0.33778 0.84995 0.0
C2588 C 0.20727 0.3395 0.87126 0.0
C2589 C 0.30323 0.44422 0.83682 0.0
C2590 C 0.32914 0.47536 0.81925 0.0
C2591 C 0.29512 0.43088 0.81333 0.0
C2592 C 0.28894 0.42538 0.82694 0.0
C2593 C 0.31479 0.45581 0.80947 0.0
C2594 C 0.32374 0.46864 0.83299 0.0
C2595 C 0.29691 0.43884 0.85116 0.0
H2596 H 0.27997 0.32222 0.95226 0.0
H2597 H 0.30817 0.32836 0.93071 0.0
H2598 H 0.23231 0.28944 0.95379 0.0
H2599 H 0.23733 0.27152 0.91103 0.0
H2600 H 0.28401 0.41625 0.80573 0.0
H2601 H 0.27319 0.40638 0.82972 0.0
H2602 H 0.31753 0.46044 0.7988 0.0
H2603 H 0.33488 0.48275 0.84078 0.0
C2604 C 0.3572 0.38948 0.60667 0.0
C2605 C 0.30726 0.37381 0.61663 0.0
C2606 C 0.33297 0.39493 0.61573 0.0
C2607 C 0.30664 0.34676 0.60843 0.0
C2608 C 0.35627 0.36281 0.59815 0.0
C2609 C 0.33107 0.34129 0.5992 0.0
N2610 N 0.38126 0.41071 0.60594 0.0
C2611 C 0.40428 0.40754 0.59636 0.0
C2612 C 0.38043 0.35884 0.58868 0.0
C2613 C 0.40438 0.38145 0.58771 0.0
Gd2614 Gd 0.44828 0.47807 0.63853 0.0
Gd2615 Gd 0.37899 0.4534 0.6212 0.0
N2616 N 0.33397 0.42157 0.62333 0.0
C2617 C 0.2827 0.38081 0.62559 0.0
C2618 C 0.30982 0.42893 0.63186 0.0
C2619 C 0.28392 0.40859 0.63318 0.0
H2620 H 0.31048 0.4506 0.6376 0.0
H2621 H 0.26488 0.41442 0.64001 0.0
H2622 H 0.51904 0.44675 0.63246 0.0
H2623 H 0.42321 0.42446 0.59564 0.0
H2624 H 0.57138 0.46487 0.6244 0.0
H2625 H 0.26254 0.36517 0.62658 0.0
H2626 H 0.28716 0.33017 0.60901 0.0
H2627 H 0.39499 0.53628 0.62851 0.0
H2628 H 0.38057 0.33866 0.58196 0.0
H2629 H 0.423 0.37876 0.58033 0.0
H2630 H 0.55373 0.57192 0.61029 0.0
H2631 H 0.33005 0.32057 0.59279 0.0
H2632 H 0.44806 0.61113 0.61107 0.0
H2633 H 0.39705 0.58845 0.61827 0.0
N2634 N 0.44441 0.52764 0.62726 0.0
C2635 C 0.47285 0.53981 0.6232 0.0
C2636 C 0.41753 0.54499 0.62549 0.0
C2637 C 0.44741 0.58781 0.61561 0.0
C2638 C 0.41858 0.57505 0.61963 0.0
C2639 C 0.47498 0.57017 0.61729 0.0
H2640 H 0.50635 0.60508 0.60847 0.0
N2641 N 0.49685 0.49095 0.62876 0.0
C2642 C 0.49987 0.52111 0.62416 0.0
C2643 C 0.55519 0.51185 0.61962 0.0
C2644 C 0.52916 0.53224 0.61932 0.0
C2645 C 0.52186 0.47063 0.62872 0.0
C2646 C 0.55145 0.48084 0.62423 0.0
O2647 O 0.37113 0.44773 0.64302 0.0
O2648 O 0.42154 0.43968 0.64943 0.0
O2649 O 0.48284 0.46119 0.65303 0.0
O2650 O 0.46642 0.50894 0.65434 0.0
O2651 O 0.35966 0.48828 0.63934 0.0
O2652 O 0.4048 0.50765 0.6493 0.0
O2653 O 0.46159 0.47506 0.61533 0.0
O2654 O 0.41345 0.47728 0.60557 0.0
O2655 O 0.37414 0.49965 0.61268 0.0
O2656 O 0.3382 0.46354 0.60861 0.0
O2657 O 0.45815 0.42296 0.63386 0.0
O2658 O 0.4121 0.40656 0.62377 0.0
C2659 C 0.39153 0.44024 0.65228 0.0
C2660 C 0.37256 0.50833 0.64866 0.0
C2661 C 0.52073 0.49954 0.65904 0.0
C2662 C 0.57693 0.48635 0.66056 0.0
C2663 C 0.56037 0.54075 0.65674 0.0
C2664 C 0.52875 0.53147 0.65705 0.0
C2665 C 0.58432 0.51846 0.65847 0.0
C2666 C 0.54496 0.47723 0.66088 0.0
C2667 C 0.48748 0.48875 0.65836 0.0
C2668 C 0.53138 0.56288 0.61397 0.0
C2669 C 0.50437 0.58175 0.61293 0.0
H2670 H 0.57811 0.51962 0.61606 0.0
C2671 C 0.44435 0.48156 0.60445 0.0
C2672 C 0.44117 0.39893 0.62851 0.0
C2673 C 0.34978 0.50181 0.59169 0.0
C2674 C 0.35082 0.5451 0.57542 0.0
C2675 C 0.35674 0.49046 0.56795 0.0
C2676 C 0.35392 0.4799 0.58124 0.0
C2677 C 0.35512 0.52275 0.56503 0.0
C2678 C 0.34874 0.53422 0.58878 0.0
C2679 C 0.34884 0.49197 0.60584 0.0
H2680 H 0.56636 0.56537 0.65515 0.0
H2681 H 0.51068 0.5492 0.65551 0.0
H2682 H 0.60857 0.52657 0.65845 0.0
H2683 H 0.53883 0.45253 0.66219 0.0
H2684 H 0.35987 0.47356 0.55988 0.0
H2685 H 0.35543 0.4548 0.58335 0.0
H2686 H 0.35597 0.52996 0.55455 0.0
H2687 H 0.34604 0.55094 0.59698 0.0
H2688 H 0.2075 0.37378 0.38045 0.0
H2689 H 0.24263 0.47044 0.4433 0.0
H2690 H 0.29982 0.39578 0.39617 0.0
H2691 H 0.15074 0.43731 0.43069 0.0
H2692 H 0.26118 0.46642 0.42035 0.0
H2693 H 0.18679 0.42105 0.3909 0.0
C2694 C 0.22384 0.38933 0.38551 0.0
C2695 C 0.25498 0.3798 0.38816 0.0
C2696 C 0.23681 0.46044 0.4225 0.0
C2697 C 0.23119 0.43311 0.40056 0.0
C2698 C 0.2262 0.46235 0.43569 0.0
C2699 C 0.19532 0.45307 0.43903 0.0
C2700 C 0.21697 0.44761 0.41262 0.0
C2701 C 0.17505 0.44363 0.42863 0.0
C2702 C 0.21187 0.41634 0.3916 0.0
C2703 C 0.27524 0.40144 0.39442 0.0
N2704 N 0.18651 0.4403 0.41591 0.0
N2705 N 0.26271 0.42664 0.40091 0.0
H2706 H 1.03571 0.89427 0.69892 0.0
H2707 H 0.85004 0.92703 0.70193 0.0
H2708 H 0.99273 0.97964 0.68374 0.0
H2709 H 0.891 0.83496 0.70844 0.0
H2710 H 0.90214 0.9473 0.69568 0.0
H2711 H 0.98301 0.87305 0.70375 0.0
C2712 C 1.01519 0.90864 0.69673 0.0
C2713 C 1.01856 0.93873 0.69091 0.0
C2714 C 0.89971 0.92261 0.6984 0.0
C2715 C 0.95829 0.91453 0.69623 0.0
C2716 C 0.86999 0.91106 0.70199 0.0
C2717 C 0.86635 0.87955 0.70611 0.0
C2718 C 0.926 0.90243 0.69892 0.0
C2719 C 0.89279 0.85959 0.70558 0.0
C2720 C 0.98513 0.89641 0.69934 0.0
C2721 C 0.99116 0.95621 0.68811 0.0
N2722 N 0.92159 0.87147 0.70225 0.0
N2723 N 0.96221 0.94389 0.69082 0.0
H2724 H 0.40285 0.79253 0.95036 0.0
H2725 H 0.45899 0.62855 0.93476 0.0
H2726 H 0.36767 0.74 0.91608 0.0
H2727 H 0.52209 0.69475 0.95385 0.0
H2728 H 0.43156 0.67238 0.92405 0.0
H2729 H 0.45169 0.76189 0.94926 0.0
C2730 C 0.40559 0.77517 0.94243 0.0
C2731 C 0.38068 0.76841 0.93354 0.0
C2732 C 0.4521 0.67748 0.93019 0.0
C2733 C 0.43652 0.73379 0.93207 0.0
C2734 C 0.46783 0.65237 0.93622 0.0
C2735 C 0.49228 0.65832 0.94532 0.0
C2736 C 0.4601 0.70858 0.93386 0.0
C2737 C 0.5029 0.68945 0.94703 0.0
C2738 C 0.43367 0.75802 0.94167 0.0
C2739 C 0.38595 0.74622 0.92322 0.0
N2740 N 0.48591 0.71371 0.94177 0.0
N2741 N 0.413 0.72933 0.92295 0.0
H2742 H 0.67706 0.20606 0.19009 0.0
H2743 H 0.71824 0.04283 0.15606 0.0
H2744 H 0.65549 0.11147 0.20373 0.0
H2745 H 0.69142 0.12115 0.13094 0.0
H2746 H 0.72299 0.07849 0.17509 0.0
H2747 H 0.69975 0.1835 0.16929 0.0
C2748 C 0.67665 0.18073 0.18866 0.0
C2749 C 0.665 0.16055 0.19881 0.0
C2750 C 0.71743 0.08828 0.16526 0.0
C2751 C 0.69233 0.13501 0.1757 0.0
C2752 C 0.71545 0.06796 0.15427 0.0
C2753 C 0.70102 0.07883 0.14246 0.0
C2754 C 0.70641 0.11947 0.16389 0.0
C2755 C 0.70017 0.11177 0.1404 0.0
C2756 C 0.69007 0.16796 0.17694 0.0
C2757 C 0.66474 0.12794 0.19635 0.0
N2758 N 0.70038 0.1311 0.15135 0.0
N2759 N 0.67875 0.11622 0.1852 0.0
H2760 H 0.22817 0.73775 0.1668 0.0
H2761 H 0.1141 0.59143 0.1725 0.0
H2762 H 0.2372 0.66793 0.19838 0.0
H2763 H 0.09406 0.67295 0.14792 0.0
H2764 H 0.15492 0.62146 0.18432 0.0
H2765 H 0.1769 0.7157 0.16086 0.0
C2766 C 0.21928 0.71776 0.17251 0.0
C2767 C 0.23695 0.70464 0.18311 0.0
C2768 C 0.14091 0.63323 0.17667 0.0
C2769 C 0.17814 0.67925 0.17637 0.0
C2770 C 0.11729 0.61625 0.17011 0.0
C2771 C 0.10078 0.63003 0.15938 0.0
C2772 C 0.14837 0.66383 0.17218 0.0
C2773 C 0.10614 0.66184 0.1563 0.0
C2774 C 0.1899 0.70532 0.16917 0.0
C2775 C 0.22452 0.67848 0.19003 0.0
N2776 N 0.13011 0.67754 0.16247 0.0
N2777 N 0.19587 0.66653 0.18649 0.0
H2778 H 0.7233 0.93976 0.40844 0.0
H2779 H 0.53732 0.90863 0.408 0.0
H2780 H 0.68216 0.84819 0.4007 0.0
H2781 H 0.58007 0.99089 0.42614 0.0
H2782 H 0.5902 0.88756 0.40344 0.0
H2783 H 0.67092 0.95996 0.41409 0.0
C2784 C 0.70324 0.9239 0.40799 0.0
C2785 C 0.70691 0.89259 0.40367 0.0
C2786 C 0.58796 0.91022 0.40842 0.0
C2787 C 0.647 0.91537 0.41015 0.0
C2788 C 0.55785 0.92237 0.41088 0.0
C2789 C 0.55444 0.95146 0.41748 0.0
C2790 C 0.61471 0.92749 0.41248 0.0
C2791 C 0.58175 0.96822 0.42113 0.0
C2792 C 0.67338 0.93539 0.41123 0.0
C2793 C 0.68033 0.8727 0.40369 0.0
N2794 N 0.61074 0.95602 0.41858 0.0
N2795 N 0.65137 0.88456 0.40667 0.0
H2796 H 0.33205 0.45295 0.66084 0.0
H2797 H 0.37026 0.3959 0.73009 0.0
H2798 H 0.42646 0.43643 0.67581 0.0
H2799 H 0.27719 0.41628 0.71503 0.0
H2800 H 0.39167 0.43737 0.716 0.0
H2801 H 0.31431 0.46277 0.68346 0.0
C2802 C 0.34916 0.45101 0.66891 0.0
C2803 C 0.38075 0.44289 0.66638 0.0
C2804 C 0.36633 0.43389 0.71619 0.0
C2805 C 0.35988 0.45312 0.69272 0.0
C2806 C 0.35394 0.41026 0.72442 0.0
C2807 C 0.32239 0.40074 0.72273 0.0
C2808 C 0.34676 0.44721 0.7063 0.0
C2809 C 0.30219 0.42133 0.71585 0.0
C2810 C 0.33899 0.45717 0.6819 0.0
C2811 C 0.40169 0.44159 0.67732 0.0
N2812 N 0.31492 0.44292 0.70732 0.0
N2813 N 0.39068 0.44582 0.69008 0.0
H2814 H 0.0405 0.13655 0.93682 0.0
H2815 H 0.97177 0.24131 0.9056 0.0
H2816 H 0.07133 0.09226 0.89989 0.0
H2817 H 0.96968 0.16129 0.87878 0.0
H2818 H 1.02615 0.22702 0.91201 0.0
H2819 H 0.04321 0.18691 0.92613 0.0
C2820 C 0.04921 0.13715 0.92657 0.0
C2821 C 0.05317 0.10937 0.91895 0.0
C2822 C 1.01382 0.21292 0.90457 0.0
C2823 C 0.05257 0.16757 0.90623 0.0
C2824 C 0.98273 0.22077 0.90109 0.0
C2825 C 0.96556 0.20108 0.89238 0.0
C2826 C 1.02742 0.18526 0.89922 0.0
C2827 C 0.98127 0.17592 0.88618 0.0
C2828 C 0.05062 0.16656 0.92034 0.0
C2829 C 0.0652 0.11277 0.90585 0.0
N2830 N 1.01107 0.16858 0.88982 0.0
N2831 N 0.06342 0.14141 0.89967 0.0
H2832 H 0.8908 0.79934 0.66036 0.0
H2833 H 0.95971 0.62443 0.66179 0.0
H2834 H 0.84325 0.71672 0.67605 0.0
H2835 H 1.00698 0.701 0.64138 0.0
H2836 H 0.92357 0.66207 0.67196 0.0
H2837 H 0.93812 0.76699 0.65648 0.0
C2838 C 0.89031 0.77445 0.66294 0.0
C2839 C 0.86316 0.76067 0.66858 0.0
C2840 C 0.94227 0.67094 0.66553 0.0
C2841 C 0.91705 0.72405 0.66456 0.0
C2842 C 0.96316 0.64948 0.65992 0.0
C2843 C 0.98639 0.65989 0.65095 0.0
C2844 C 0.94383 0.70285 0.66165 0.0
C2845 C 0.98961 0.69235 0.6485 0.0
C2846 C 0.91736 0.75616 0.6609 0.0
C2847 C 0.86381 0.72845 0.67189 0.0
N2848 N 0.96795 0.7128 0.65358 0.0
N2849 N 0.89027 0.71132 0.66983 0.0
H2850 H 0.21613 0.04227 0.44199 0.0
H2851 H 0.18779 0.2137 0.41996 0.0
H2852 H 0.19731 0.10103 0.47626 0.0
H2853 H 0.12797 0.13315 0.4121 0.0
H2854 H 0.21216 0.18449 0.43884 0.0
H2855 H 0.21446 0.08868 0.4276 0.0
C2856 C 0.21414 0.06528 0.44671 0.0
C2857 C 0.20301 0.0678 0.45994 0.0
C2858 C 0.19312 0.17379 0.43314 0.0
C2859 C 0.20288 0.12077 0.44387 0.0
C2860 C 0.17873 0.19053 0.4226 0.0
C2861 C 0.15618 0.17546 0.41437 0.0
C2862 C 0.18495 0.14205 0.4351 0.0
C2863 C 0.14555 0.14537 0.41809 0.0
C2864 C 0.2127 0.0918 0.43841 0.0
C2865 C 0.20299 0.09819 0.46571 0.0
N2866 N 0.1607 0.12926 0.42794 0.0
N2867 N 0.20033 0.12382 0.45747 0.0
H2868 H 0.73572 0.43598 0.14946 0.0
H2869 H 0.77701 0.28077 0.15345 0.0
H2870 H 0.63911 0.40391 0.14856 0.0
H2871 H 0.6778 0.26293 0.1594 0.0
H2872 H 0.76439 0.33223 0.14394 0.0
H2873 H 0.75327 0.38135 0.14893 0.0
C2874 C 0.71828 0.41735 0.14888 0.0
C2875 C 0.6861 0.42453 0.14818 0.0
C2876 C 0.74524 0.31717 0.14723 0.0
C2877 C 0.7056 0.36172 0.14753 0.0
C2878 C 0.75243 0.28727 0.15225 0.0
C2879 C 0.72838 0.26844 0.15773 0.0
C2880 C 0.71392 0.32796 0.14802 0.0
C2881 C 0.69699 0.27748 0.15567 0.0
C2882 C 0.72824 0.38602 0.14842 0.0
C2883 C 0.66428 0.39957 0.14856 0.0
N2884 N 0.69063 0.30721 0.15141 0.0
N2885 N 0.67446 0.3693 0.14806 0.0
H2886 H 0.32667 0.909 0.92115 0.0
H2887 H 0.50687 0.95459 0.92018 0.0
H2888 H 0.39701 0.84784 0.90382 0.0
H2889 H 0.44119 0.99508 0.94861 0.0
H2890 H 0.46743 0.91478 0.91428 0.0
H2891 H 0.36838 0.93959 0.93203 0.0
C2892 C 0.35098 0.90151 0.92 0.0
C2893 C 0.35859 0.87595 0.91166 0.0
C2894 C 0.4618 0.93217 0.92192 0.0
C2895 C 0.40644 0.9114 0.92363 0.0
C2896 C 0.48429 0.95495 0.9253 0.0
C2897 C 0.47732 0.9784 0.93488 0.0
C2898 C 0.43196 0.933 0.92803 0.0
C2899 C 0.44743 0.97791 0.94098 0.0
C2900 C 0.37478 0.91906 0.92613 0.0
C2901 C 0.39032 0.8673 0.91029 0.0
N2902 N 0.42578 0.95574 0.93737 0.0
N2903 N 0.41326 0.88545 0.916 0.0
H2904 H 0.85073 0.39141 0.88146 0.0
H2905 H 0.83041 0.43914 0.9553 0.0
H2906 H 0.76288 0.39642 0.90309 0.0
H2907 H 0.92037 0.42703 0.9354 0.0
H2908 H 0.80515 0.44469 0.93376 0.0
H2909 H 0.87341 0.43003 0.89676 0.0
C2910 C 0.8355 0.40203 0.88892 0.0
C2911 C 0.80607 0.38834 0.89199 0.0
C2912 C 0.83045 0.44098 0.93401 0.0
C2913 C 0.83153 0.43218 0.90934 0.0
C2914 C 0.84504 0.43721 0.94638 0.0
C2915 C 0.87779 0.4322 0.94724 0.0
C2916 C 0.84818 0.43802 0.92218 0.0
C2917 C 0.89507 0.43054 0.93521 0.0
C2918 C 0.8487 0.42383 0.89781 0.0
C2919 C 0.78669 0.40445 0.90108 0.0
N2920 N 0.87993 0.43283 0.92312 0.0
N2921 N 0.80026 0.42464 0.90995 0.0
H2922 H 0.35839 0.06496 0.66954 0.0
H2923 H 0.38567 0.23253 0.68798 0.0
H2924 H 0.39136 0.10877 0.63298 0.0
H2925 H 0.45514 0.15963 0.6944 0.0
H2926 H 0.36434 0.2021 0.66885 0.0
H2927 H 0.36305 0.11553 0.68091 0.0
C2928 C 0.36392 0.08575 0.66357 0.0
C2929 C 0.37622 0.08252 0.65056 0.0
C2930 C 0.38507 0.19364 0.67414 0.0
C2931 C 0.38041 0.1404 0.66333 0.0
C2932 C 0.39758 0.21108 0.68489 0.0
C2933 C 0.42204 0.19827 0.69279 0.0
C2934 C 0.39744 0.16369 0.67145 0.0
C2935 C 0.43619 0.17013 0.68858 0.0
C2936 C 0.36689 0.11464 0.67013 0.0
C2937 C 0.38281 0.11032 0.64324 0.0
N2938 N 0.42314 0.15331 0.67839 0.0
N2939 N 0.38674 0.13808 0.64994 0.0
H2940 H 0.73656 0.71775 0.43136 0.0
H2941 H 0.56722 0.68086 0.46217 0.0
H2942 H 0.67469 0.79087 0.44617 0.0
H2943 H 0.62871 0.61117 0.44461 0.0
H2944 H 0.60198 0.72273 0.4536 0.0
H2945 H 0.69433 0.67939 0.43414 0.0
C2946 C 0.71395 0.72579 0.43512 0.0
C2947 C 0.70912 0.75759 0.4385 0.0
C2948 C 0.60735 0.69832 0.45127 0.0
C2949 C 0.66048 0.71357 0.44183 0.0
C2950 C 0.58724 0.6745 0.45598 0.0
C2951 C 0.59524 0.64272 0.45403 0.0
C2952 C 0.63544 0.69 0.44462 0.0
C2953 C 0.62178 0.63552 0.44623 0.0
C2954 C 0.68978 0.70384 0.43671 0.0
C2955 C 0.67951 0.7665 0.44358 0.0
N2956 N 0.6412 0.65897 0.44198 0.0
N2957 N 0.65627 0.74454 0.44515 0.0
H2958 H 0.18667 0.85522 0.2003 0.0
H2959 H 0.06613 0.99902 0.20522 0.0
H2960 H 0.21579 0.95297 0.19933 0.0
H2961 H 1.03843 0.90641 0.19148 0.0
H2962 H 0.12073 0.98031 0.20745 0.0
H2963 H 0.13177 0.87198 0.19937 0.0
C2964 C 0.1816 0.88029 0.19978 0.0
C2965 C 0.20582 0.90293 0.20068 0.0
C2966 C 0.10258 0.96398 0.20414 0.0
C2967 C 0.14302 0.92212 0.19973 0.0
C2968 C 0.07147 0.97446 0.20313 0.0
C2969 C 0.04807 0.95405 0.19826 0.0
C2970 C 0.11001 0.93295 0.20025 0.0
C2971 C 0.05601 0.92265 0.19537 0.0
C2972 C 0.15018 0.88979 0.19936 0.0
C2973 C 0.19774 0.93491 0.19952 0.0
N2974 N 0.08646 0.91305 0.19632 0.0
N2975 N 0.16693 0.94367 0.19937 0.0
H2976 H 0.74138 0.97373 0.94336 0.0
H2977 H 0.70986 0.86888 0.88135 0.0
H2978 H 0.65072 0.93727 0.93074 0.0
H2979 H 0.80095 0.88775 0.89901 0.0
H2980 H 0.68946 0.91673 0.89152 0.0
H2981 H 0.762 0.96425 0.92097 0.0
C2982 C 0.72568 0.96375 0.93587 0.0
C2983 C 0.69456 0.95499 0.93909 0.0
C2984 C 0.71427 0.91116 0.89272 0.0
C2985 C 0.71835 0.94399 0.91336 0.0
C2986 C 0.72604 0.88385 0.88681 0.0
C2987 C 0.75666 0.87349 0.88993 0.0
C2988 C 0.73323 0.92753 0.90195 0.0
C2989 C 0.77679 0.89426 0.89678 0.0
C2990 C 0.73745 0.95878 0.923 0.0
C2991 C 0.67516 0.94329 0.9288 0.0
N2992 N 0.76438 0.91987 0.90302 0.0
N2993 N 0.68763 0.93737 0.91644 0.0
H2994 H 0.4016 0.34456 0.20499 0.0
H2995 H 0.43344 0.49279 0.15642 0.0
H2996 H 0.33016 0.41173 0.19331 0.0
H2997 H 0.50591 0.4507 0.18131 0.0
H2998 H 0.39563 0.45431 0.16524 0.0
H2999 H 0.44032 0.37402 0.19129 0.0
C3000 C 0.39391 0.36489 0.19919 0.0
C3001 C 0.3628 0.37585 0.20021 0.0
C3002 C 0.41991 0.45339 0.16866 0.0
C3003 C 0.40657 0.40952 0.18475 0.0
C3004 C 0.4415 0.47553 0.16373 0.0
C3005 C 0.47295 0.47547 0.16827 0.0
C3006 C 0.42978 0.43071 0.17811 0.0
C3007 C 0.48205 0.4517 0.17743 0.0
C3008 C 0.416 0.38185 0.19153 0.0
C3009 C 0.35401 0.40262 0.19275 0.0
N3010 N 0.46054 0.43041 0.18211 0.0
N3011 N 0.3758 0.41864 0.18538 0.0
H3012 H 0.96273 0.12143 0.43593 0.0
H3013 H 0.89715 0.29474 0.44686 0.0
H3014 H 1.01441 0.19288 0.45761 0.0
H3015 H 0.84595 0.21536 0.43034 0.0
H3016 H 0.94567 0.26278 0.44645 0.0
H3017 H 0.92765 0.16207 0.42715 0.0
C3018 C 0.96752 0.14599 0.43831 0.0
C3019 C 0.991 0.15399 0.4476 0.0
C3020 C 0.92382 0.25268 0.44274 0.0
C3021 C 0.94987 0.20014 0.43852 0.0
C3022 C 0.89616 0.27065 0.44319 0.0
C3023 C 0.86762 0.25761 0.43862 0.0
C3024 C 0.92266 0.22169 0.43763 0.0
C3025 C 0.86753 0.22649 0.4338 0.0
C3026 C 0.94718 0.16915 0.43354 0.0
C3027 C 0.99623 0.18594 0.45056 0.0
N3028 N 0.89458 0.20968 0.43342 0.0
N3029 N 0.97503 0.20794 0.4464 0.0
H3030 H 1.02778 0.64133 0.67075 0.0
H3031 H 0.09683 0.73123 0.70485 0.0
H3032 H 1.00263 0.58106 0.70429 0.0
H3033 H 0.10863 0.63714 0.72098 0.0
H3034 H 0.04048 0.71977 0.70127 0.0
H3035 H 1.01808 0.68653 0.6844 0.0
C3036 C 1.01911 0.63711 0.68083 0.0
C3037 C 1.01898 0.60669 0.68663 0.0
C3038 C 0.05544 0.70198 0.70583 0.0
C3039 C 1.01457 0.65905 0.70284 0.0
C3040 C 0.08763 0.70819 0.70759 0.0
C3041 C 0.10771 0.6846 0.7127 0.0
C3042 C 0.04354 0.67184 0.70908 0.0
C3043 C 0.0944 0.65572 0.71663 0.0
C3044 C 1.01374 0.66349 0.68884 0.0
C3045 C 1.00668 0.60399 0.69975 0.0
N3046 N 0.06335 0.65014 0.71464 0.0
N3047 N 1.00551 0.63019 0.70768 0.0
H3048 H 0.57208 0.1762 0.65429 0.0
H3049 H 0.73423 0.17521 0.69483 0.0
H3050 H 0.61206 0.09303 0.67265 0.0
H3051 H 0.70367 0.24863 0.66747 0.0
H3052 H 0.68265 0.14953 0.69232 0.0
H3053 H 0.61142 0.20863 0.66595 0.0
C3054 C 0.588 0.16505 0.66142 0.0
C3055 C 0.58906 0.13214 0.66262 0.0
C3056 C 0.68721 0.17146 0.687 0.0
C3057 C 0.6347 0.16845 0.67538 0.0
C3058 C 0.71673 0.18584 0.68827 0.0
C3059 C 0.72332 0.21387 0.68123 0.0
C3060 C 0.66422 0.18529 0.67866 0.0
C3061 C 0.69954 0.22711 0.67314 0.0
C3062 C 0.61084 0.18341 0.66785 0.0
C3063 C 0.61062 0.11849 0.67161 0.0
N3064 N 0.67112 0.2126 0.67202 0.0
N3065 N 0.63316 0.13668 0.67745 0.0
H3066 H 0.18378 0.34943 0.89855 0.0
H3067 H 0.07769 0.49411 0.92302 0.0
H3068 H 0.22088 0.44348 0.90449 0.0
H3069 H 0.03903 0.40717 0.90737 0.0
H3070 H 0.13085 0.47499 0.91796 0.0
H3071 H 0.13127 0.36861 0.90429 0.0
C3072 C 0.18096 0.37412 0.90114 0.0
C3073 C 0.20658 0.3952 0.9006 0.0
C3074 C 0.11076 0.46016 0.91556 0.0
C3075 C 0.14652 0.4172 0.90729 0.0
C3076 C 0.08048 0.47106 0.91841 0.0
C3077 C 0.05407 0.45212 0.91559 0.0
C3078 C 0.11465 0.42994 0.90999 0.0
C3079 C 0.05882 0.42255 0.90959 0.0
C3080 C 0.15089 0.38507 0.90434 0.0
C3081 C 0.20157 0.42671 0.90436 0.0
N3082 N 0.08861 0.41222 0.90708 0.0
N3083 N 0.17204 0.43685 0.90747 0.0
H3084 H 0.93735 0.93191 0.17439 0.0
H3085 H 0.78489 0.9363 0.21684 0.0
H3086 H 0.83993 0.93813 0.1617 0.0
H3087 H 0.87463 0.90713 0.23283 0.0
H3088 H 0.8122 0.96893 0.20038 0.0
H3089 H 0.92061 0.94485 0.19752 0.0
C3090 C 0.91257 0.93595 0.17643 0.0
C3091 C 0.89 0.93359 0.1661 0.0
C3092 C 0.82608 0.95628 0.20782 0.0
C3093 C 0.87116 0.95018 0.19216 0.0
C3094 C 0.81038 0.93805 0.21743 0.0
C3095 C 0.82777 0.91658 0.2252 0.0
C3096 C 0.85874 0.9517 0.20604 0.0
C3097 C 0.86051 0.92155 0.22615 0.0
C3098 C 0.90319 0.94406 0.18952 0.0
C3099 C 0.85826 0.9394 0.16928 0.0
N3100 N 0.87538 0.93697 0.21595 0.0
N3101 N 0.84991 0.94744 0.18196 0.0
H3102 H 0.36989 0.5505 0.43594 0.0
H3103 H 0.3845 0.72521 0.41385 0.0
H3104 H 0.38507 0.61274 0.46961 0.0
H3105 H 0.44987 0.65106 0.40347 0.0
H3106 H 0.36464 0.69217 0.43256 0.0
H3107 H 0.37281 0.59557 0.42087 0.0
C3108 C 0.371 0.57398 0.44029 0.0
C3109 C 0.37888 0.57794 0.45387 0.0
C3110 C 0.38393 0.68376 0.42637 0.0
C3111 C 0.38064 0.62963 0.43681 0.0
C3112 C 0.39576 0.70273 0.41592 0.0
C3113 C 0.41884 0.69068 0.40712 0.0
C3114 C 0.39522 0.65283 0.42774 0.0
C3115 C 0.43206 0.66113 0.41001 0.0
C3116 C 0.37305 0.59975 0.43162 0.0
C3117 C 0.37987 0.60892 0.45903 0.0
N3118 N 0.4195 0.64286 0.41986 0.0
N3119 N 0.38232 0.63383 0.45039 0.0
H3120 H 0.39164 0.30266 0.16206 0.0
H3121 H 0.46027 0.12771 0.16356 0.0
H3122 H 0.33835 0.21655 0.16762 0.0
H3123 H 0.50794 0.20214 0.14191 0.0
H3124 H 0.42307 0.16634 0.17237 0.0
H3125 H 0.43989 0.2708 0.15924 0.0
C3126 C 0.39007 0.27711 0.16244 0.0
C3127 C 0.36118 0.26206 0.16511 0.0
C3128 C 0.44223 0.17445 0.16601 0.0
C3129 C 0.41578 0.22616 0.16266 0.0
C3130 C 0.4638 0.15253 0.16124 0.0
C3131 C 0.48682 0.16195 0.15198 0.0
C3132 C 0.44353 0.20569 0.16123 0.0
C3133 C 0.49031 0.19418 0.14903 0.0
C3134 C 0.41753 0.2591 0.16109 0.0
C3135 C 0.36028 0.22901 0.16573 0.0
N3136 N 0.46815 0.21502 0.15334 0.0
N3137 N 0.38723 0.21222 0.16467 0.0
H3138 H 0.71781 0.54517 0.94752 0.0
H3139 H 0.68694 0.71152 0.91898 0.0
H3140 H 0.69168 0.60985 0.97883 0.0
H3141 H 0.63122 0.62742 0.91247 0.0
H3142 H 0.71128 0.68602 0.93884 0.0
H3143 H 0.71655 0.58833 0.93153 0.0
C3144 C 0.71464 0.56896 0.95134 0.0
C3145 C 0.70095 0.57369 0.96399 0.0
C3146 C 0.69317 0.67371 0.93318 0.0
C3147 C 0.70267 0.62337 0.94612 0.0
C3148 C 0.67886 0.68829 0.92204 0.0
C3149 C 0.65723 0.67129 0.91404 0.0
C3150 C 0.68567 0.64219 0.93606 0.0
C3151 C 0.64794 0.64116 0.91831 0.0
C3152 C 0.71384 0.59368 0.94208 0.0
C3153 C 0.69933 0.60511 0.96864 0.0
N3154 N 0.6627 0.62731 0.92886 0.0
N3155 N 0.69769 0.62901 0.95945 0.0
H3156 H 0.25706 0.86426 0.71612 0.0
H3157 H 0.19133 0.97161 0.67257 0.0
H3158 H 0.32187 0.84254 0.68401 0.0
H3159 H 0.23078 0.90537 0.64408 0.0
H3160 H 0.22845 0.95242 0.68966 0.0
H3161 H 0.23928 0.91043 0.70367 0.0
C3162 C 0.26884 0.87035 0.70678 0.0
C3163 C 0.28997 0.84909 0.70078 0.0
C3164 C 0.22885 0.94209 0.67968 0.0
C3165 C 0.26963 0.90137 0.68638 0.0
C3166 C 0.20748 0.95278 0.66996 0.0
C3167 C 0.20743 0.93949 0.65698 0.0
C3168 C 0.25017 0.91796 0.67632 0.0
C3169 C 0.22954 0.91592 0.65401 0.0
C3170 C 0.25858 0.89673 0.6996 0.0
C3171 C 0.3049 0.85802 0.68879 0.0
N3172 N 0.24992 0.90592 0.66361 0.0
N3173 N 0.29353 0.88294 0.68168 0.0
H3174 H 0.94111 0.49728 0.45008 0.0
H3175 H 0.89374 0.34705 0.40542 0.0
H3176 H 1.00592 0.4501 0.42317 0.0
H3177 H 0.82722 0.41771 0.41846 0.0
H3178 H 0.93594 0.37588 0.41724 0.0
H3179 H 0.89987 0.46 0.44334 0.0
C3180 C 0.94675 0.47916 0.44276 0.0
C3181 C 0.97705 0.47719 0.43707 0.0
C3182 C 0.91196 0.38465 0.41772 0.0
C3183 C 0.93011 0.43389 0.42965 0.0
C3184 C 0.88791 0.36806 0.41112 0.0
C3185 C 0.85717 0.38022 0.41098 0.0
C3186 C 0.90489 0.41316 0.42434 0.0
C3187 C 0.85076 0.40774 0.41834 0.0
C3188 C 0.92325 0.45772 0.43903 0.0
C3189 C 0.98307 0.4525 0.42794 0.0
N3190 N 0.87447 0.42343 0.42466 0.0
N3191 N 0.95979 0.43191 0.42447 0.0
H3192 H 0.33671 0.95688 0.45122 0.0
H3193 H 0.37767 0.89725 0.37979 0.0
H3194 H 0.42911 0.92568 0.43852 0.0
H3195 H 0.28436 0.91811 0.39451 0.0
H3196 H 0.3999 0.93184 0.397 0.0
H3197 H 0.32145 0.9631 0.42792 0.0
C3198 C 0.35388 0.9511 0.44353 0.0
C3199 C 0.38423 0.9403 0.44688 0.0
C3200 C 0.37447 0.92994 0.3961 0.0
C3201 C 0.36638 0.94694 0.41992 0.0
C3202 C 0.3617 0.91049 0.38616 0.0
C3203 C 0.3294 0.90288 0.38656 0.0
C3204 C 0.3544 0.9419 0.40611 0.0
C3205 C 0.30965 0.92186 0.39442 0.0
C3206 C 0.34518 0.95513 0.43017 0.0
C3207 C 0.40533 0.93363 0.43639 0.0
N3208 N 0.32257 0.9396 0.40436 0.0
N3209 N 0.3958 0.93653 0.42334 0.0
H3210 H 0.94237 0.77487 0.19322 0.0
H3211 H 0.95289 0.64368 0.14962 0.0
H3212 H 0.89286 0.68666 0.18759 0.0
H3213 H 1.02766 0.7043 0.1643 0.0
H3214 H 0.92248 0.6898 0.14409 0.0
H3215 H 0.95453 0.77618 0.16915 0.0
C3216 C 0.93369 0.75595 0.18685 0.0
C3217 C 0.9188 0.72923 0.19243 0.0
C3218 C 0.94606 0.69316 0.1481 0.0
C3219 C 0.93197 0.73118 0.16506 0.0
C3220 C 0.96349 0.6665 0.15156 0.0
C3221 C 0.99165 0.66988 0.15905 0.0
C3222 C 0.95428 0.72158 0.15443 0.0
C3223 C 1.00423 0.70043 0.16024 0.0
C3224 C 0.9399 0.75724 0.17308 0.0
C3225 C 0.90644 0.70645 0.18377 0.0
N3226 N 0.98518 0.72566 0.15795 0.0
N3227 N 0.91368 0.70773 0.17049 0.0
H3228 H 0.21999 0.2234 0.91798 0.0
H3229 H 0.12662 0.10693 0.94397 0.0
H3230 H 0.17861 0.28199 0.94895 0.0
H3231 H 0.06905 0.18001 0.96141 0.0
H3232 H 0.15866 0.1469 0.93301 0.0
H3233 H 0.17704 0.18624 0.92059 0.0
C3234 C 0.20182 0.22871 0.9253 0.0
C3235 C 0.20345 0.25595 0.93338 0.0
C3236 C 0.13832 0.15458 0.93869 0.0
C3237 C 0.15484 0.2117 0.93713 0.0
C3238 C 0.12 0.13157 0.94498 0.0
C3239 C 0.09512 0.14032 0.95344 0.0
C3240 C 0.13197 0.18674 0.94106 0.0
C3241 C 0.08785 0.17245 0.95477 0.0
C3242 C 0.17744 0.20692 0.92698 0.0
C3243 C 0.17905 0.26095 0.94276 0.0
N3244 N 0.10666 0.19463 0.94886 0.0
N3245 N 0.15601 0.23885 0.94449 0.0
H3246 H 0.57595 0.43487 0.67752 0.0
H3247 H 0.70146 0.3546 0.69947 0.0
H3248 H 0.63632 0.48365 0.64915 0.0
H3249 H 0.75083 0.43835 0.68645 0.0
H3250 H 0.66054 0.36506 0.68273 0.0
H3251 H 0.61954 0.4007 0.68349 0.0
C3252 C 0.5981 0.43791 0.67222 0.0
C3253 C 0.6024 0.46268 0.66294 0.0
C3254 C 0.68071 0.38076 0.68329 0.0
C3255 C 0.65301 0.42324 0.66984 0.0
C3256 C 0.70452 0.37436 0.69267 0.0
C3257 C 0.72922 0.39602 0.69449 0.0
C3258 C 0.68167 0.40921 0.67593 0.0
C3259 C 0.73187 0.42129 0.6854 0.0
C3260 C 0.62315 0.41809 0.67561 0.0
C3261 C 0.63206 0.46556 0.65667 0.0
N3262 N 0.70791 0.42771 0.67673 0.0
N3263 N 0.65641 0.4466 0.66048 0.0
H3264 H 0.08847 0.29246 0.38013 0.0
H3265 H 0.89342 0.25885 0.38217 0.0
H3266 H 0.05084 0.19969 0.37321 0.0
H3267 H 0.92967 0.35132 0.37334 0.0
H3268 H 0.94817 0.23788 0.38154 0.0
H3269 H 1.03374 0.31369 0.38023 0.0
C3270 C 0.06926 0.2759 0.37865 0.0
C3271 C 0.07722 0.24309 0.37662 0.0
C3272 C 0.94475 0.26288 0.37971 0.0
C3273 C 1.00922 0.26917 0.37704 0.0
C3274 C 0.91234 0.27538 0.38008 0.0
C3275 C 0.90395 0.30798 0.37773 0.0
C3276 C 0.97206 0.28226 0.37729 0.0
C3277 C 0.9324 0.32626 0.3752 0.0
C3278 C 1.03687 0.28856 0.3787 0.0
C3279 C 0.04845 0.22487 0.37482 0.0
N3280 N 0.96346 0.31367 0.3752 0.0
N3281 N 1.01748 0.23761 0.37521 0.0
H3282 H 0.08049 0.7067 0.63942 0.0
H3283 H 0.13336 0.87312 0.60069 0.0
H3284 H 0.0448 0.72529 0.59971 0.0
H3285 H 0.11061 0.87514 0.64283 0.0
H3286 H 0.11213 0.81825 0.5995 0.0
H3287 H 0.10067 0.76188 0.64043 0.0
C3288 C 0.07679 0.72167 0.63069 0.0
C3289 C 0.05991 0.7084 0.61939 0.0
C3290 C 0.11169 0.83021 0.60914 0.0
C3291 C 0.08567 0.77651 0.62043 0.0
C3292 C 0.12434 0.86265 0.60989 0.0
C3293 C 0.12484 0.88168 0.62195 0.0
C3294 C 0.09942 0.81344 0.62064 0.0
C3295 C 0.11167 0.86369 0.63309 0.0
C3296 C 0.08866 0.75434 0.63134 0.0
C3297 C 0.05705 0.73204 0.60884 0.0
N3298 N 0.1006 0.83211 0.63217 0.0
N3299 N 0.06964 0.76311 0.60957 0.0
H3300 H 0.39227 0.75558 0.88287 0.0
H3301 H 0.58753 0.78759 0.87968 0.0
H3302 H 0.4292 0.8474 0.87332 0.0
H3303 H 0.54912 0.69486 0.87347 0.0
H3304 H 0.53294 0.80917 0.87995 0.0
H3305 H 0.44683 0.73407 0.88213 0.0
C3306 C 0.4113 0.77184 0.88058 0.0
C3307 C 0.40318 0.80444 0.87805 0.0
C3308 C 0.53587 0.78398 0.87855 0.0
C3309 C 0.47102 0.77808 0.87749 0.0
C3310 C 0.56818 0.77111 0.8784 0.0
C3311 C 0.57587 0.7382 0.8765 0.0
C3312 C 0.50807 0.76471 0.87714 0.0
C3313 C 0.54693 0.7201 0.87496 0.0
C3314 C 0.44359 0.75903 0.88015 0.0
C3315 C 0.43173 0.82236 0.87531 0.0
N3316 N 0.51606 0.73305 0.87544 0.0
N3317 N 0.46266 0.8095 0.87524 0.0
H3318 H 0.50737 0.23737 0.11564 0.0
H3319 H 0.65949 0.36477 0.11691 0.0
H3320 H 0.60198 0.20465 0.12201 0.0
H3321 H 0.56478 0.39556 0.12449 0.0
H3322 H 0.64033 0.30918 0.11644 0.0
H3323 H 0.52696 0.29268 0.11645 0.0
C3324 C 0.53244 0.24097 0.11715 0.0
C3325 C 0.55198 0.21326 0.11872 0.0
C3326 C 0.62323 0.32771 0.11816 0.0
C3327 C 0.57659 0.28203 0.11949 0.0
C3328 C 0.6345 0.3607 0.11841 0.0
C3329 C 0.61473 0.38793 0.12075 0.0
C3330 C 0.59067 0.31896 0.11992 0.0
C3331 C 0.58233 0.37756 0.12261 0.0
C3332 C 0.54395 0.2738 0.11766 0.0
C3333 C 0.58454 0.22305 0.12069 0.0
N3334 N 0.57204 0.34562 0.12204 0.0
N3335 N 0.59509 0.25497 0.12087 0.0
H3336 H 0.98325 0.82302 0.22925 0.0
H3337 H 0.147 0.87964 0.23391 0.0
H3338 H 1.02027 0.7292 0.23335 0.0
H3339 H 0.17589 0.78475 0.22521 0.0
H3340 H 0.09136 0.86155 0.23442 0.0
H3341 H 1.0381 0.84375 0.22875 0.0
C3342 C 1.00233 0.80613 0.23005 0.0
C3343 C 0.99407 0.77318 0.23143 0.0
C3344 C 0.10938 0.8441 0.23241 0.0
C3345 C 0.06254 0.79873 0.23062 0.0
C3346 C 0.14248 0.85478 0.23216 0.0
C3347 C 0.16926 0.83469 0.22953 0.0
C3348 C 0.0999 0.81179 0.2303 0.0
C3349 C 0.15826 0.80253 0.22734 0.0
C3350 C 1.03491 0.81848 0.22978 0.0
C3351 C 1.02285 0.75455 0.23232 0.0
N3352 N 0.12613 0.79276 0.22788 0.0
N3353 N 0.05398 0.76705 0.23182 0.0
H3354 H 0.44567 0.8518 0.50585 0.0
H3355 H 0.50165 0.68961 0.46613 0.0
H3356 H 0.47522 0.85961 0.46462 0.0
H3357 H 0.53821 0.70621 0.50585 0.0
H3358 H 0.48175 0.74482 0.46558 0.0
H3359 H 0.46719 0.79718 0.50652 0.0
C3360 C 0.45638 0.84269 0.49676 0.0
C3361 C 0.45773 0.86329 0.48516 0.0
C3362 C 0.49393 0.73685 0.47456 0.0
C3363 C 0.48338 0.79525 0.48576 0.0
C3364 C 0.50565 0.70417 0.47494 0.0
C3365 C 0.52273 0.69037 0.48607 0.0
C3366 C 0.49717 0.75843 0.48563 0.0
C3367 C 0.52587 0.71344 0.4968 0.0
C3368 C 0.46916 0.81039 0.49719 0.0
C3369 C 0.47281 0.84693 0.47406 0.0
N3370 N 0.51333 0.74451 0.49634 0.0
N3371 N 0.48394 0.81535 0.47462 0.0
H3372 H 0.64811 0.37815 0.73241 0.0
H3373 H 0.52701 0.22141 0.73327 0.0
H3374 H 0.68221 0.28499 0.72374 0.0
H3375 H 0.49064 0.31486 0.72701 0.0
H3376 H 0.58142 0.24311 0.73235 0.0
H3377 H 0.59337 0.35684 0.73294 0.0
C3378 C 0.64494 0.35309 0.73067 0.0
C3379 C 0.67273 0.33444 0.72803 0.0
C3380 C 0.56191 0.25938 0.73117 0.0
C3381 C 0.605 0.30778 0.7289 0.0
C3382 C 0.52964 0.24662 0.73173 0.0
C3383 C 0.50129 0.26515 0.73019 0.0
C3384 C 0.56879 0.29234 0.72935 0.0
C3385 C 0.5097 0.29811 0.72825 0.0
C3386 C 0.61249 0.34057 0.73095 0.0
C3387 C 0.66362 0.30176 0.72587 0.0
N3388 N 0.54112 0.30988 0.72804 0.0
N3389 N 0.63219 0.29023 0.72648 0.0
H3390 H 0.97163 0.17734 0.98173 0.0
H3391 H 1.00601 0.37253 0.98049 0.0
H3392 H 0.06429 0.21458 0.9891 0.0
H3393 H 0.91281 0.33585 0.98707 0.0
H3394 H 1.02692 0.3177 0.98132 0.0
H3395 H 0.95069 0.2322 0.98142 0.0
C3396 C 0.9882 0.19651 0.9833 0.0
C3397 C 1.02084 0.18844 0.98556 0.0
C3398 C 1.00177 0.32106 0.98258 0.0
C3399 C 0.99517 0.2565 0.98485 0.0
C3400 C 0.9893 0.35348 0.98207 0.0
C3401 C 0.95649 0.36172 0.98369 0.0
C3402 C 0.98219 0.29365 0.98445 0.0
C3403 C 0.93801 0.33319 0.98571 0.0
C3404 C 0.97572 0.22895 0.98311 0.0
C3405 C 0.03918 0.21711 0.98739 0.0
N3406 N 0.95061 0.30213 0.98589 0.0
N3407 N 1.02661 0.24816 0.98688 0.0
H3408 H 0.08885 0.7946 0.73422 0.0
H3409 H 0.89431 0.75875 0.73208 0.0
H3410 H 0.05204 0.70153 0.7413 0.0
H3411 H 0.92953 0.85195 0.74014 0.0
H3412 H 0.94928 0.73843 0.73291 0.0
H3413 H 1.03392 0.81531 0.73391 0.0
C3414 C 0.06978 0.77791 0.73574 0.0
C3415 C 0.07798 0.74522 0.73794 0.0
C3416 C 0.94557 0.76345 0.73453 0.0
C3417 C 1.00986 0.77057 0.7372 0.0
C3418 C 0.91306 0.77556 0.73404 0.0
C3419 C 0.90436 0.80813 0.73613 0.0
C3420 C 0.97264 0.78324 0.73681 0.0
C3421 C 0.93255 0.82685 0.73851 0.0
C3422 C 1.0373 0.79024 0.73555 0.0
C3423 C 0.0494 0.72669 0.73968 0.0
N3424 N 0.96373 0.81463 0.73864 0.0
N3425 N 1.01835 0.7391 0.73915 0.0
H3426 H 1.01251 0.22906 0.48282 0.0
H3427 H 0.16656 0.3537 0.48259 0.0
H3428 H 0.10698 0.19462 0.47798 0.0
H3429 H 0.0727 0.38587 0.47399 0.0
H3430 H 0.14648 0.29845 0.48318 0.0
H3431 H 1.033 0.28399 0.48191 0.0
C3432 C 1.03772 0.23222 0.48164 0.0
C3433 C 0.05695 0.20422 0.48052 0.0
C3434 C 0.1298 0.31723 0.48116 0.0
C3435 C 0.08261 0.2724 0.47962 0.0
C3436 C 0.1416 0.34998 0.48083 0.0
C3437 C 0.12236 0.37741 0.47815 0.0
C3438 C 0.09722 0.30902 0.47913 0.0
C3439 C 0.08988 0.36761 0.47608 0.0
C3440 C 0.04976 0.26481 0.48107 0.0
C3441 C 0.08977 0.21334 0.47893 0.0
N3442 N 0.07907 0.33587 0.47671 0.0
N3443 N 0.10081 0.24507 0.47867 0.0
H3444 H 0.55963 0.1923 0.23927 0.0
H3445 H 0.4363 0.34677 0.23889 0.0
H3446 H 0.59434 0.28626 0.23237 0.0
H3447 H 0.40316 0.25303 0.23038 0.0
H3448 H 0.49133 0.32642 0.23911 0.0
H3449 H 0.50486 0.213 0.23865 0.0
C3450 C 0.55656 0.21742 0.23764 0.0
C3451 C 0.58455 0.23644 0.23582 0.0
C3452 C 0.47238 0.30982 0.2372 0.0
C3453 C 0.51666 0.26239 0.23537 0.0
C3454 C 0.43977 0.32177 0.2371 0.0
C3455 C 0.41216 0.30264 0.23458 0.0
C3456 C 0.48023 0.27717 0.23511 0.0
C3457 C 0.4216 0.27011 0.23239 0.0
C3458 C 0.52408 0.22958 0.23727 0.0
C3459 C 0.57558 0.2692 0.23382 0.0
N3460 N 0.45321 0.25913 0.23283 0.0
N3461 N 0.544 0.28039 0.23379 0.0
H3462 H 0.6633 0.85884 0.98267 0.0
H3463 H 0.5091 0.73422 0.98044 0.0
H3464 H 0.57027 0.89088 0.97248 0.0
H3465 H 0.60398 0.69955 0.97795 0.0
H3466 H 0.52974 0.78909 0.97971 0.0
H3467 H 0.64316 0.80359 0.98311 0.0
C3468 C 0.63851 0.8551 0.98052 0.0
C3469 C 0.61954 0.88252 0.97746 0.0
C3470 C 0.54656 0.76988 0.97935 0.0
C3471 C 0.59427 0.81407 0.97824 0.0
C3472 C 0.53443 0.73731 0.97982 0.0
C3473 C 0.5537 0.70923 0.97931 0.0
C3474 C 0.57957 0.77744 0.9786 0.0
C3475 C 0.58669 0.71831 0.9784 0.0
C3476 C 0.62667 0.82234 0.98078 0.0
C3477 C 0.58726 0.87265 0.9749 0.0
N3478 N 0.5978 0.75004 0.97821 0.0
N3479 N 0.57639 0.84091 0.97545 0.0
H3480 H 0.18032 0.27639 0.87481 0.0
H3481 H 0.98626 0.3124 0.87023 0.0
H3482 H 0.14585 0.36937 0.86585 0.0
H3483 H 1.02294 0.21887 0.86471 0.0
H3484 H 0.04126 0.33302 0.87096 0.0
H3485 H 0.12534 0.25601 0.87357 0.0
C3486 C 0.16173 0.29312 0.87256 0.0
C3487 C 0.17061 0.32564 0.87036 0.0
C3488 C 1.03784 0.30787 0.86958 0.0
C3489 C 0.1024 0.30072 0.86917 0.0
C3490 C 1.00533 0.2956 0.86915 0.0
C3491 C 0.99712 0.26281 0.86724 0.0
C3492 C 0.06522 0.28806 0.86849 0.0
C3493 C 1.02564 0.24411 0.86608 0.0
C3494 C 0.12923 0.28099 0.87183 0.0
C3495 C 0.14265 0.34431 0.86759 0.0
N3496 N 0.05671 0.2565 0.86682 0.0
N3497 N 0.11146 0.33207 0.86723 0.0
H3498 H 0.50428 0.37239 0.63235 0.0
H3499 H 0.46925 0.17716 0.63034 0.0
H3500 H 0.41157 0.3365 0.62397 0.0
H3501 H 0.56268 0.21441 0.62509 0.0
H3502 H 0.44836 0.23208 0.63024 0.0
H3503 H 0.52485 0.31745 0.63192 0.0
C3504 C 0.4876 0.35351 0.63042 0.0
C3505 C 0.45505 0.36207 0.62817 0.0
C3506 C 0.47355 0.22883 0.62911 0.0
C3507 C 0.48034 0.2937 0.62793 0.0
C3508 C 0.48601 0.19632 0.62917 0.0
C3509 C 0.51889 0.1882 0.62765 0.0
C3510 C 0.49321 0.25642 0.62781 0.0
C3511 C 0.53741 0.21693 0.62626 0.0
C3512 C 0.49988 0.32098 0.63017 0.0
C3513 C 0.4366 0.33365 0.6258 0.0
N3514 N 0.52483 0.248 0.62649 0.0
N3515 N 0.44899 0.30247 0.62588 0.0
H3516 H 0.68 0.77446 0.37651 0.0
H3517 H 0.48574 0.81005 0.37462 0.0
H3518 H 0.64503 0.86808 0.36929 0.0
H3519 H 0.52244 0.71763 0.36639 0.0
H3520 H 0.5407 0.83085 0.37519 0.0
H3521 H 0.62501 0.75409 0.37539 0.0
C3522 C 0.66129 0.79133 0.37467 0.0
C3523 C 0.67002 0.82403 0.3729 0.0
C3524 C 0.53728 0.8059 0.37327 0.0
C3525 C 0.60182 0.79911 0.37191 0.0
C3526 C 0.50481 0.79351 0.37295 0.0
C3527 C 0.49661 0.76096 0.3704 0.0
C3528 C 0.56465 0.78641 0.37138 0.0
C3529 C 0.52512 0.74264 0.3684 0.0
C3530 C 0.62879 0.77921 0.37403 0.0
C3531 C 0.64193 0.84287 0.37066 0.0
N3532 N 0.55617 0.75509 0.36905 0.0
N3533 N 0.61074 0.83062 0.37039 0.0
H3534 H 0.91963 0.83037 0.11991 0.0
H3535 H 0.07332 0.70637 0.12857 0.0
H3536 H 1.00988 0.86253 0.13399 0.0
H3537 H 0.97951 0.67186 0.12167 0.0
H3538 H 0.05232 0.76109 0.12932 0.0
H3539 H 0.94042 0.77549 0.11932 0.0
C3540 C 0.94395 0.82675 0.1229 0.0
C3541 C 0.9619 0.85413 0.12705 0.0
C3542 C 1.03581 0.74195 0.12763 0.0
C3543 C 0.988 0.78601 0.12617 0.0
C3544 C 0.04816 0.70947 0.12719 0.0
C3545 C 1.02918 0.68143 0.12529 0.0
C3546 C 1.00304 0.74952 0.1258 0.0
C3547 C 0.99648 0.69056 0.12342 0.0
C3548 C 0.95618 0.79418 0.12255 0.0
C3549 C 0.99365 0.84436 0.13066 0.0
N3550 N 0.98528 0.72221 0.12364 0.0
N3551 N 1.00491 0.81278 0.13007 0.0
H3552 H 0.19432 0.2849 0.33896 0.0
H3553 H 0.28379 0.25032 0.2662 0.0
H3554 H 0.22201 0.19147 0.32718 0.0
H3555 H 0.26313 0.34395 0.28029 0.0
H3556 H 0.26087 0.22855 0.2873 0.0
H3557 H 0.21779 0.30595 0.31795 0.0
C3558 C 0.20534 0.26841 0.33212 0.0
C3559 C 0.20565 0.23568 0.33566 0.0
C3560 C 0.26133 0.25395 0.28593 0.0
C3561 C 0.23342 0.26079 0.31005 0.0
C3562 C 0.27473 0.26673 0.27361 0.0
C3563 C 0.27661 0.29985 0.27081 0.0
C3564 C 0.24866 0.27375 0.29622 0.0
C3565 C 0.26345 0.31856 0.28146 0.0
C3566 C 0.2189 0.28074 0.31979 0.0
C3567 C 0.22039 0.21665 0.32549 0.0
N3568 N 0.25052 0.30561 0.29323 0.0
N3569 N 0.23318 0.22914 0.31358 0.0
H3570 H 1.00406 0.06981 0.53074 0.0
H3571 H 0.15766 1.00906 0.57461 0.0
H3572 H 0.09942 0.08213 0.51705 0.0
H3573 H 0.06726 1.02178 0.59343 0.0
H3574 H 0.13604 1.03085 0.55346 0.0
H3575 H 1.02455 0.04917 0.55246 0.0
C3576 C 1.02936 0.06845 0.53209 0.0
C3577 C 0.0494 0.07835 0.5213 0.0
C3578 C 0.12058 1.02889 0.56211 0.0
C3579 C 0.07418 0.05277 0.54726 0.0
C3580 C 0.13308 1.01602 0.57448 0.0
C3581 C 0.11489 1.01257 0.58651 0.0
C3582 C 0.08864 1.03871 0.56095 0.0
C3583 C 0.08301 1.02317 0.58489 0.0
C3584 C 0.04126 0.05626 0.54476 0.0
C3585 C 0.08219 0.07486 0.52446 0.0
N3586 N 0.0713 1.03512 0.57268 0.0
N3587 N 0.09306 0.06253 0.53669 0.0
H3588 H 0.30023 0.83533 0.82838 0.0
H3589 H 0.17147 0.72069 0.78875 0.0
H3590 H 0.23728 0.7734 0.84983 0.0
H3591 H 0.24615 0.7696 0.7681 0.0
H3592 H 0.1923 0.74111 0.81047 0.0
H3593 H 0.27936 0.81432 0.80685 0.0
C3594 C 0.28199 0.8174 0.82881 0.0
C3595 C 0.27115 0.80696 0.84172 0.0
C3596 C 0.20433 0.74761 0.80124 0.0
C3597 C 0.24572 0.78162 0.81574 0.0
C3598 C 0.1922 0.73569 0.78853 0.0
C3599 C 0.20652 0.74249 0.7758 0.0
C3600 C 0.2314 0.76766 0.80192 0.0
C3601 C 0.23348 0.76286 0.77711 0.0
C3602 C 0.26986 0.80511 0.8162 0.0
C3603 C 0.24721 0.78302 0.84066 0.0
N3604 N 0.24451 0.77428 0.78948 0.0
N3605 N 0.23565 0.77179 0.82832 0.0
H3606 H 0.50246 0.07002 0.07006 0.0
H3607 H 0.65815 1.03222 1.02245 0.0
H3608 H 0.59714 0.09336 0.08198 0.0
H3609 H 0.56426 1.00933 1.00943 0.0
H3610 H 0.63656 0.05343 1.04367 0.0
H3611 H 0.52328 0.04841 1.04862 0.0
C3612 C 0.52767 0.07098 0.06835 0.0
C3613 C 0.54737 0.08433 0.07859 0.0
C3614 C 0.62033 0.04369 1.03632 0.0
C3615 C 0.57267 0.05799 1.05279 0.0
C3616 C 0.63296 1.03095 1.02395 0.0
C3617 C 0.61395 1.01747 1.01353 0.0
C3618 C 0.58738 0.04395 1.03907 0.0
C3619 C 0.58092 1.01863 1.0167 0.0
C3620 C 0.53979 0.05819 0.05583 0.0
C3621 C 0.58012 0.08365 0.07498 0.0
N3622 N 0.56921 1.03114 1.02881 0.0
N3623 N 0.59121 0.07111 0.06282 0.0
H3624 H 0.35324 0.71283 0.32008 0.0
H3625 H 0.32276 0.8707 0.27241 0.0
H3626 H 0.38141 0.80628 0.33197 0.0
H3627 H 0.29105 0.77856 0.26038 0.0
H3628 H 0.34368 0.84788 0.2935 0.0
H3629 H 0.33166 0.73498 0.29883 0.0
C3630 C 0.35531 0.73804 0.3184 0.0
C3631 C 0.36998 0.75696 0.32858 0.0
C3632 C 0.33202 0.83233 0.2864 0.0
C3633 C 0.34374 0.7839 0.30299 0.0
C3634 C 0.3194 0.84572 0.2741 0.0
C3635 C 0.3035 0.82759 0.26402 0.0
C3636 C 0.32984 0.79947 0.28937 0.0
C3637 C 0.30226 0.7946 0.2674 0.0
C3638 C 0.34252 0.75095 0.30599 0.0
C3639 C 0.37064 0.78982 0.32502 0.0
N3640 N 0.31479 0.78217 0.2794 0.0
N3641 N 0.35814 0.80168 0.31295 0.0
H3642 H 0.47402 0.07043 0.59198 0.0
H3643 H 0.5091 0.99123 0.51715 0.0
H3644 H 0.56774 0.04713 0.57891 0.0
H3645 H 0.41529 1.00591 0.53232 0.0
H3646 H 0.53063 1.01249 0.53857 0.0
H3647 H 0.45295 0.04884 0.57061 0.0
C3648 C 0.49058 0.06089 0.58477 0.0
C3649 C 0.52342 0.0613 0.58801 0.0
C3650 C 0.50527 1.01116 0.53735 0.0
C3651 C 0.49822 1.0357 0.56207 0.0
C3652 C 0.49264 0.99879 0.52483 0.0
C3653 C 0.4596 0.99601 0.52221 0.0
C3654 C 0.48536 1.0217 0.54803 0.0
C3655 C 0.44073 1.00686 0.53327 0.0
C3656 C 0.47821 0.04838 0.57225 0.0
C3657 C 0.54247 0.04825 0.57745 0.0
N3658 N 0.45353 1.01884 0.54523 0.0
N3659 N 0.52992 1.03648 0.56538 0.0
H3660 H 0.35833 0.21035 0.78017 0.0
H3661 H 0.32033 0.36739 0.82699 0.0
H3662 H 0.38898 0.3039 0.76951 0.0
H3663 H 0.29994 0.27337 0.84091 0.0
H3664 H 0.34266 0.34506 0.80608 0.0
H3665 H 0.33599 0.23175 0.8014 0.0
C3666 C 0.36065 0.23544 0.7821 0.0
C3667 C 0.37605 0.25475 0.77226 0.0
C3668 C 0.33326 0.32899 0.81359 0.0
C3669 C 0.3489 0.2807 0.79771 0.0
C3670 C 0.31995 0.34202 0.82579 0.0
C3671 C 0.30697 0.32307 0.83635 0.0
C3672 C 0.33434 0.29585 0.81119 0.0
C3673 C 0.30893 0.2899 0.83351 0.0
C3674 C 0.34747 0.2479 0.79448 0.0
C3675 C 0.37728 0.28733 0.77613 0.0
N3676 N 0.32179 0.27787 0.82155 0.0
N3677 N 0.36418 0.29879 0.7881 0.0
H3678 H 0.06966 0.04928 1.03414 0.0
H3679 H 0.9162 0.99439 0.08004 0.0
H3680 H 0.97425 0.05877 1.02003 0.0
H3681 H 1.01124 0.98584 0.09445 0.0
H3682 H 0.93629 1.01704 0.05871 0.0
H3683 H 0.04954 1.02692 0.05553 0.0
C3684 C 0.04439 0.04708 1.03536 0.0
C3685 C 1.02433 0.05697 1.02456 0.0
C3686 C 0.9531 1.01028 0.06642 0.0
C3687 C 0.99986 1.02954 1.05032 0.0
C3688 C 0.94137 0.99695 0.07889 0.0
C3689 C 0.96124 0.98727 0.08976 0.0
C3690 C 0.98592 1.0148 0.06406 0.0
C3691 C 0.99403 0.99236 0.08688 0.0
C3692 C 1.03269 1.03384 1.04786 0.0
C3693 C 0.99156 0.05212 1.02754 0.0
N3694 N 1.00484 1.00531 0.0747 0.0
N3695 N 0.98085 1.03919 1.03974 0.0
H3696 H 0.71702 0.6874 0.8262 0.0
H3697 H 0.75917 0.84769 0.78156 0.0
H3698 H 0.69379 0.78113 0.83939 0.0
H3699 H 0.77497 0.75435 0.76603 0.0
H3700 H 0.73751 0.82419 0.80244 0.0
H3701 H 0.73873 0.71017 0.80504 0.0
C3702 C 0.71621 0.7128 0.82485 0.0
C3703 C 0.703 0.73167 0.83537 0.0
C3704 C 0.74573 0.80851 0.79458 0.0
C3705 C 0.7294 0.75926 0.80997 0.0
C3706 C 0.7586 0.82222 0.78238 0.0
C3707 C 0.77008 0.80383 0.77136 0.0
C3708 C 0.74355 0.77522 0.79652 0.0
C3709 C 0.76713 0.7705 0.77378 0.0
C3710 C 0.72901 0.72605 0.81251 0.0
C3711 C 0.70366 0.76474 0.8322 0.0
N3712 N 0.75467 0.75782 0.78573 0.0
N3713 N 0.7163 0.77693 0.82024 0.0
H3714 H 0.77604 0.25744 0.34648 0.0
H3715 H 0.70356 0.28757 0.26976 0.0
H3716 H 0.76105 0.35049 0.33037 0.0
H3717 H 0.7186 0.19467 0.28597 0.0
H3718 H 0.72411 0.31042 0.29105 0.0
H3719 H 0.75564 0.23476 0.32515 0.0
C3720 C 0.76877 0.27356 0.33858 0.0
C3721 C 0.77146 0.30679 0.34093 0.0
C3722 C 0.723 0.28495 0.2901 0.0
C3723 C 0.74667 0.27954 0.31513 0.0
C3724 C 0.71106 0.27153 0.27764 0.0
C3725 C 0.70867 0.23829 0.2753 0.0
C3726 C 0.73326 0.2657 0.30109 0.0
C3727 C 0.71926 0.22013 0.28668 0.0
C3728 C 0.75684 0.26023 0.32611 0.0
C3729 C 0.76071 0.32505 0.32961 0.0
N3730 N 0.73065 0.23367 0.29861 0.0
N3731 N 0.74927 0.31156 0.31766 0.0
H3732 H 0.83271 0.29157 0.75342 0.0
H3733 H 0.83286 0.29125 0.8365 0.0
H3734 H 0.77976 0.35847 0.77682 0.0
H3735 H 0.90001 0.23673 0.81406 0.0
H3736 H 0.81222 0.31317 0.81536 0.0
H3737 H 0.85479 0.2695 0.77455 0.0
C3738 C 0.82513 0.30174 0.76289 0.0
C3739 C 0.80325 0.32742 0.76263 0.0
C3740 C 0.83142 0.29635 0.81486 0.0
C3741 C 0.82989 0.30093 0.78813 0.0
C3742 C 0.84367 0.28348 0.82728 0.0
C3743 C 0.86883 0.26108 0.82794 0.0
C3744 C 0.84351 0.28731 0.8021 0.0
C3745 C 0.8806 0.25321 0.8148 0.0
C3746 C 0.83823 0.28889 0.77522 0.0
C3747 C 0.79585 0.33875 0.77586 0.0
N3748 N 0.86802 0.26577 0.80284 0.0
N3749 N 0.80864 0.32569 0.78763 0.0
H3750 H 0.81866 0.86675 0.32942 0.0
H3751 H 0.85313 0.71261 0.28042 0.0
H3752 H 0.7973 0.77234 0.34257 0.0
H3753 H 0.8853 0.80661 0.27136 0.0
H3754 H 0.83152 0.73243 0.30213 0.0
H3755 H 0.84016 0.84523 0.30823 0.0
C3756 C 0.81788 0.84147 0.32798 0.0
C3757 C 0.8049 0.82217 0.33841 0.0
C3758 C 0.84328 0.74896 0.29546 0.0
C3759 C 0.83126 0.79589 0.31291 0.0
C3760 C 0.85606 0.7374 0.28282 0.0
C3761 C 0.87169 0.75742 0.27331 0.0
C3762 C 0.84536 0.78146 0.29923 0.0
C3763 C 0.87357 0.78955 0.27776 0.0
C3764 C 0.83071 0.8289 0.31562 0.0
C3765 C 0.80633 0.78912 0.33527 0.0
N3766 N 0.86084 0.80011 0.28991 0.0
N3767 N 0.81873 0.77751 0.32315 0.0
H3768 H 0.6525 0.53239 0.07671 0.0
H3769 H 0.49775 0.57038 1.02859 0.0
H3770 H 0.55807 0.51647 0.09091 0.0
H3771 H 0.5925 0.59586 1.01765 0.0
H3772 H 0.51788 0.5498 1.05042 0.0
H3773 H 0.63107 0.55302 0.05534 0.0
C3774 C 0.62718 0.53267 0.07548 0.0
C3775 C 0.60789 0.52145 0.08628 0.0
C3776 C 0.53454 0.55982 1.04332 0.0
C3777 C 0.58169 0.5468 0.0605 0.0
C3778 C 0.52282 0.57201 1.03059 0.0
C3779 C 0.54283 0.58554 1.02052 0.0
C3780 C 0.56727 0.56033 1.04665 0.0
C3781 C 0.57535 0.58578 1.02448 0.0
C3782 C 0.61468 0.54498 0.06299 0.0
C3783 C 0.57485 0.52409 0.08334 0.0
N3784 N 0.58607 0.57365 1.03678 0.0
N3785 N 0.56328 0.53598 0.07108 0.0
H3786 H 1.01001 0.57051 0.57023 0.0
H3787 H 0.1641 0.52167 0.52381 0.0
H3788 H 0.10543 0.58354 0.58386 0.0
H3789 H 0.06909 0.50834 0.50991 0.0
H3790 H 0.14365 0.54343 0.54515 0.0
H3791 H 1.03029 0.5486 0.54883 0.0
C3792 C 1.03532 0.56913 0.56891 0.0
C3793 C 0.05535 0.57979 0.57958 0.0
C3794 C 0.12693 0.53572 0.53757 0.0
C3795 C 0.07997 0.55306 0.55382 0.0
C3796 C 0.13886 0.52277 0.52512 0.0
C3797 C 0.11909 0.51188 0.51442 0.0
C3798 C 0.09404 0.53874 0.54008 0.0
C3799 C 0.08621 0.51564 0.51739 0.0
C3800 C 0.0471 0.55618 0.5564 0.0
C3801 C 0.08816 0.57614 0.57646 0.0
N3802 N 0.0752 0.52829 0.52957 0.0
N3803 N 0.09895 0.5635 0.56426 0.0
H3804 H 0.06359 0.5734 0.07456 0.0
H3805 H 0.93729 0.45538 1.03596 0.0
H3806 H 0.99171 0.52246 0.09608 0.0
H3807 H 0.994 0.52297 1.01445 0.0
H3808 H 0.95914 0.47578 0.05744 0.0
H3809 H 0.04201 0.55283 1.05313 0.0
C3810 C 0.04347 0.55775 0.07504 0.0
C3811 C 1.03036 0.55019 0.08791 0.0
C3812 C 0.96713 0.48624 1.04807 0.0
C3813 C 1.00426 0.52518 0.06211 0.0
C3814 C 0.95449 0.47431 1.03551 0.0
C3815 C 0.96311 0.48679 1.02263 0.0
C3816 C 0.98972 0.51119 1.04844 0.0
C3817 C 0.98602 0.51165 1.0236 0.0
C3818 C 1.03078 0.54588 0.06249 0.0
C3819 C 1.00348 0.5297 0.08692 0.0
N3820 N 0.9981 0.52253 1.03587 0.0
N3821 N 0.99194 0.51817 0.07466 0.0
H3822 H 0.50887 0.48897 0.59562 0.0
H3823 H 0.47457 0.56902 0.52055 0.0
H3824 H 0.41543 0.50653 0.58073 0.0
H3825 H 0.56823 0.54763 0.53438 0.0
H3826 H 0.45321 0.54734 0.54192 0.0
H3827 H 0.53061 0.51046 0.57423 0.0
C3828 C 0.49248 0.49706 0.58798 0.0
C3829 C 0.4594 0.49479 0.59064 0.0
C3830 C 0.47852 0.54732 0.54044 0.0
C3831 C 0.48545 0.52088 0.56485 0.0
C3832 C 0.49106 0.55992 0.52793 0.0
C3833 C 0.52402 0.56098 0.52491 0.0
C3834 C 0.49843 0.53504 0.5508 0.0
C3835 C 0.5429 0.54828 0.53566 0.0
C3836 C 0.50524 0.50961 0.57548 0.0
C3837 C 0.44074 0.50659 0.57967 0.0
N3838 N 0.53019 0.53634 0.54767 0.0
N3839 N 0.45363 0.51865 0.56772 0.0
H3840 H 0.24247 0.08955 0.39427 0.0
H3841 H 0.31581 0.046 0.46867 0.0
H3842 H 0.25586 0.16835 0.42077 0.0
H3843 H 0.37569 1.02447 0.43511 0.0
H3844 H 0.28287 0.07947 0.45357 0.0
H3845 H 0.27699 0.05719 0.40917 0.0
C3846 C 0.25206 0.1008 0.40317 0.0
C3847 C 0.24406 0.13365 0.4054 0.0
C3848 C 0.30303 0.06757 0.44923 0.0
C3849 C 0.28646 0.09296 0.42434 0.0
C3850 C 0.32267 0.04762 0.45818 0.0
C3851 C 0.35071 1.03064 0.45409 0.0
C3852 C 0.30882 0.07143 0.435 0.0
C3853 C 0.3556 1.03595 0.43971 0.0
C3854 C 0.27265 0.0815 0.41199 0.0
C3855 C 0.25945 0.14405 0.41778 0.0
N3856 N 0.33561 0.0544 0.43122 0.0
N3857 N 0.27828 0.12458 0.42634 0.0
H3858 H 0.32236 0.18931 0.68783 0.0
H3859 H 0.20722 1.03312 0.67576 0.0
H3860 H 0.33569 0.10974 0.71402 0.0
H3861 H 0.25591 0.07079 0.64141 0.0
H3862 H 0.24139 0.06589 0.69067 0.0
H3863 H 0.28921 0.1557 0.67286 0.0
C3864 C 0.31878 0.16493 0.69077 0.0
C3865 C 0.33422 0.15417 0.70297 0.0
C3866 C 0.245 0.06752 0.67989 0.0
C3867 C 0.29161 0.11242 0.68464 0.0
C3868 C 0.22469 0.04812 0.671 0.0
C3869 C 0.22684 0.04716 0.65644 0.0
C3870 C 0.26875 0.08907 0.67497 0.0
C3871 C 0.25162 0.06883 0.65214 0.0
C3872 C 0.29901 0.14504 0.68187 0.0
C3873 C 0.32604 0.1211 0.70515 0.0
N3874 N 0.27006 0.08808 0.66091 0.0
N3875 N 0.30609 0.10277 0.69661 0.0
H3876 H 0.17367 0.04831 0.95744 0.0
H3877 H 0.19792 0.88001 0.91366 0.0
H3878 H 0.09612 0.98498 0.95076 0.0
H3879 H 0.26269 0.95736 0.90937 0.0
H3880 H 0.16416 0.91375 0.92822 0.0
H3881 H 0.2069 1.01503 0.94248 0.0
C3882 C 0.16289 1.02752 0.95303 0.0
C3883 C 0.13013 1.02138 0.95618 0.0
C3884 C 0.18569 0.92391 0.92423 0.0
C3885 C 0.17163 0.97939 0.93775 0.0
C3886 C 0.20581 0.90393 0.91559 0.0
C3887 C 0.23504 0.91399 0.9094 0.0
C3888 C 0.19341 0.95597 0.92778 0.0
C3889 C 0.24135 0.94657 0.91323 0.0
C3890 C 0.18268 1.00784 0.94415 0.0
C3891 C 0.12026 0.99267 0.94931 0.0
N3892 N 0.22182 0.96507 0.9218 0.0
N3893 N 0.14006 0.97379 0.941 0.0
H3894 H 0.37222 0.90165 0.18987 0.0
H3895 H 0.40366 0.07367 0.14896 0.0
H3896 H 0.31415 0.9826 0.19732 0.0
H3897 H 0.47785 1.00554 0.15291 0.0
H3898 H 0.37002 0.04059 0.1639 0.0
H3899 H 0.40673 0.93493 0.1753 0.0
C3900 C 0.36587 0.92626 0.18862 0.0
C3901 C 0.33814 0.93733 0.19572 0.0
C3902 C 0.39358 1.03225 0.16165 0.0
C3903 C 0.38096 0.97904 0.17728 0.0
C3904 C 0.41368 0.05187 0.15276 0.0
C3905 C 0.44576 0.04451 0.14883 0.0
C3906 C 0.40337 1.00246 0.16731 0.0
C3907 C 0.45442 1.01442 0.15499 0.0
C3908 C 0.38651 0.94601 0.17997 0.0
C3909 C 0.33407 0.97083 0.19272 0.0
N3910 N 0.43426 0.99564 0.16331 0.0
N3911 N 0.35398 0.98911 0.18412 0.0
H3912 H 0.70212 0.87885 0.6982 0.0
H3913 H 0.66975 0.05026 0.65725 0.0
H3914 H 0.76042 0.95999 0.70544 0.0
H3915 H 0.59573 0.98183 0.66167 0.0
H3916 H 0.70383 1.01751 0.67212 0.0
H3917 H 0.66731 0.91195 0.68375 0.0
C3918 C 0.70842 0.90349 0.69694 0.0
C3919 C 0.73626 0.91471 0.70394 0.0
C3920 C 0.68022 1.00905 0.66999 0.0
C3921 C 0.69317 0.95612 0.68564 0.0
C3922 C 0.65988 1.02845 0.66114 0.0
C3923 C 0.62773 1.02083 0.65738 0.0
C3924 C 0.67056 0.9793 0.67574 0.0
C3925 C 0.61921 0.99082 0.66363 0.0
C3926 C 0.68763 0.92311 0.68836 0.0
C3927 C 0.74037 0.94818 0.70092 0.0
N3928 N 0.63959 0.97225 0.6719 0.0
N3929 N 0.72029 0.96635 0.69237 0.0
H3930 H 0.90524 0.06574 0.45187 0.0
H3931 H 0.873 0.89356 0.41167 0.0
H3932 H 0.97932 0.99758 0.44771 0.0
H3933 H 0.81349 0.97392 0.40497 0.0
H3934 H 0.90807 0.92705 0.42588 0.0
H3935 H 0.871 1.03239 0.43733 0.0
C3936 C 0.91508 0.04388 0.4481 0.0
C3937 C 0.94728 1.03652 0.45181 0.0
C3938 C 0.88741 0.93793 0.42144 0.0
C3939 C 0.90432 0.99431 0.43387 0.0
C3940 C 0.86648 0.91808 0.41302 0.0
C3941 C 0.83821 0.929 0.40628 0.0
C3942 C 0.8816 0.97083 0.4242 0.0
C3943 C 0.83386 0.96236 0.40933 0.0
C3944 C 0.89466 1.02413 0.43945 0.0
C3945 C 0.9558 1.00639 0.44575 0.0
N3946 N 0.8541 0.98075 0.4177 0.0
N3947 N 0.93535 0.98749 0.43766 0.0
H3948 H 0.88246 1.01403 0.17733 0.0
H3949 H 0.74952 0.15482 0.19011 0.0
H3950 H 0.81824 1.03596 0.14525 0.0
H3951 H 0.7603 0.08466 0.22085 0.0
H3952 H 0.78203 0.12219 0.17469 0.0
H3953 H 0.84919 0.04553 0.19299 0.0
C3954 C 0.86165 1.02528 0.1732 0.0
C3955 C 0.85499 1.02027 0.15904 0.0
C3956 C 0.77784 0.11339 0.1848 0.0
C3957 C 0.814 0.06087 0.17844 0.0
C3958 C 0.75869 0.13291 0.19402 0.0
C3959 C 0.7503 0.12465 0.2077 0.0
C3960 C 0.79149 0.08354 0.18855 0.0
C3961 C 0.76436 0.09409 0.21085 0.0
C3962 C 0.8419 0.04396 0.18255 0.0
C3963 C 0.82623 1.03731 0.1556 0.0
N3964 N 0.78351 0.07608 0.20187 0.0
N3965 N 0.80832 0.05614 0.16471 0.0
H3966 H 0.68859 0.08355 0.93835 0.0
H3967 H 0.86287 0.11256 0.89921 0.0
H3968 H 0.76943 1.02736 0.94832 0.0
H3969 H 0.79296 0.18563 0.90042 0.0
H3970 H 0.8293 0.07998 0.91445 0.0
H3971 H 0.72249 0.11656 0.92342 0.0
C3972 C 0.71331 0.07735 0.93761 0.0
C3973 C 0.72417 0.0507 0.94551 0.0
C3974 C 0.82071 0.10307 0.91151 0.0
C3975 C 0.7666 0.0915 0.92664 0.0
C3976 C 0.84059 0.1225 0.90244 0.0
C3977 C 0.83279 0.1539 0.89768 0.0
C3978 C 0.79034 0.11296 0.91649 0.0
C3979 C 0.80213 0.16263 0.90316 0.0
C3980 C 0.73341 0.09706 0.92874 0.0
C3981 C 0.75782 0.04655 0.94308 0.0
N3982 N 0.78318 0.14314 0.91167 0.0
N3983 N 0.77647 0.06554 0.93426 0.0
H3984 H 0.72424 0.58173 0.89943 0.0
H3985 H 0.88333 0.56319 0.94907 0.0
H3986 H 0.77149 0.66468 0.91391 0.0
H3987 H 0.80722 0.49681 0.95261 0.0
H3988 H 0.84987 0.59614 0.93399 0.0
H3989 H 0.75804 0.54894 0.91446 0.0
C3990 C 0.74148 0.59388 0.90561 0.0
C3991 C 0.74287 0.628 0.90457 0.0
C3992 C 0.83995 0.57436 0.93788 0.0
C3993 C 0.78531 0.58711 0.92337 0.0
C3994 C 0.8598 0.55466 0.94682 0.0
C3995 C 0.85011 0.52518 0.95301 0.0
C3996 C 0.80844 0.56584 0.93381 0.0
C3997 C 0.81791 0.51822 0.94875 0.0
C3998 C 0.76154 0.57429 0.91453 0.0
C3999 C 0.76748 0.63943 0.91361 0.0
N4000 N 0.79965 0.5372 0.93977 0.0
N4001 N 0.78658 0.61996 0.92206 0.0
H4002 H 0.69263 0.55052 0.17354 0.0
H4003 H 0.82629 0.69466 0.18332 0.0
H4004 H 0.75244 0.57398 0.14015 0.0
H4005 H 0.81441 0.62672 0.21503 0.0
H4006 H 0.79323 0.66078 0.16837 0.0
H4007 H 0.7265 0.58376 0.18838 0.0
C4008 C 0.71253 0.56243 0.16894 0.0
C4009 C 0.71769 0.55723 0.15466 0.0
C4010 C 0.79731 0.6528 0.1786 0.0
C4011 C 0.75967 0.59996 0.17314 0.0
C4012 C 0.81688 0.673 0.18755 0.0
C4013 C 0.82512 0.66564 0.2014 0.0
C4014 C 0.78287 0.62345 0.18281 0.0
C4015 C 0.81039 0.63552 0.20492 0.0
C4016 C 0.7327 0.58217 0.17781 0.0
C4017 C 0.74553 0.57531 0.15064 0.0
N4018 N 0.7908 0.61711 0.19623 0.0
N4019 N 0.76389 0.59498 0.15932 0.0
H4020 H 0.69917 0.38115 0.41357 0.0
H4021 H 0.67294 0.54997 0.45694 0.0
H4022 H 0.76201 0.45976 0.40841 0.0
H4023 H 0.59597 0.48579 0.45056 0.0
H4024 H 0.7063 0.51692 0.44195 0.0
H4025 H 0.66518 0.41459 0.42817 0.0
C4026 C 0.70662 0.40528 0.41532 0.0
C4027 C 0.73542 0.41574 0.40884 0.0
C4028 C 0.68218 0.50948 0.44367 0.0
C4029 C 0.69341 0.45748 0.42733 0.0
C4030 C 0.66228 0.52905 0.45259 0.0
C4031 C 0.62957 0.52269 0.45585 0.0
C4032 C 0.67141 0.48082 0.43734 0.0
C4033 C 0.61998 0.49375 0.44903 0.0
C4034 C 0.68633 0.42511 0.42399 0.0
C4035 C 0.74107 0.4486 0.41248 0.0
N4036 N 0.63992 0.47497 0.44071 0.0
N4037 N 0.72143 0.46695 0.42109 0.0
H4038 H 0.81291 0.48458 0.69665 0.0
H4039 H 0.98121 0.50564 0.65264 0.0
H4040 H 0.87285 0.40503 0.68908 0.0
H4041 H 0.90498 0.57112 0.64761 0.0
H4042 H 0.94667 0.47257 0.66727 0.0
H4043 H 0.84692 0.51724 0.68165 0.0
C4044 C 0.83306 0.47322 0.69204 0.0
C4045 C 0.83796 0.44006 0.69493 0.0
C4046 C 0.93693 0.49412 0.6631 0.0
C4047 C 0.88096 0.4809 0.67647 0.0
C4048 C 0.95739 0.51384 0.65443 0.0
C4049 C 0.9479 0.54301 0.64799 0.0
C4050 C 0.90492 0.50226 0.66648 0.0
C4051 C 0.91536 0.54976 0.65166 0.0
C4052 C 0.85319 0.49268 0.68312 0.0
C4053 C 0.86604 0.4295 0.68781 0.0
N4054 N 0.8964 0.53065 0.66029 0.0
N4055 N 0.88541 0.449 0.67952 0.0
H4056 H 0.21079 0.37176 0.19688 0.0
H4057 H 0.18107 0.54243 0.1553 0.0
H4058 H 0.26945 0.45267 0.20411 0.0
H4059 H 0.10715 0.47362 0.15907 0.0
H4060 H 0.21454 0.5098 0.17049 0.0
H4061 H 0.17686 0.40469 0.18198 0.0
C4062 C 0.21728 0.39632 0.19552 0.0
C4063 C 0.24482 0.40767 0.20264 0.0
C4064 C 0.19109 0.50126 0.16811 0.0
C4065 C 0.20308 0.44863 0.18388 0.0
C4066 C 0.17119 0.52052 0.15908 0.0
C4067 C 0.13936 0.51258 0.15506 0.0
C4068 C 0.18113 0.47155 0.17377 0.0
C4069 C 0.13053 0.48264 0.16121 0.0
C4070 C 0.19708 0.4158 0.18669 0.0
C4071 C 0.24946 0.44093 0.1995 0.0
N4072 N 0.15047 0.46424 0.16968 0.0
N4073 N 0.22994 0.45898 0.19073 0.0
H4074 H 0.47875 0.50214 0.94678 0.0
H4075 H 0.31183 0.47702 0.90161 0.0
H4076 H 0.40299 0.56896 0.94886 0.0
H4077 H 0.37248 0.39855 0.91024 0.0
H4078 H 0.34541 0.51089 0.91624 0.0
H4079 H 0.44498 0.46756 0.93246 0.0
C4080 C 0.45524 0.51042 0.94438 0.0
C4081 C 0.4457 0.54059 0.9499 0.0
C4082 C 0.35196 0.48632 0.9151 0.0
C4083 C 0.40349 0.49768 0.93179 0.0
C4084 C 0.33204 0.46609 0.90639 0.0
C4085 C 0.33719 0.43279 0.90388 0.0
C4086 C 0.37983 0.4753 0.92197 0.0
C4087 C 0.3654 0.42301 0.91119 0.0
C4088 C 0.43518 0.48975 0.93588 0.0
C4089 C 0.41349 0.54704 0.94552 0.0
N4090 N 0.38453 0.44322 0.91931 0.0
N4091 N 0.39495 0.52696 0.93713 0.0
H4092 H 0.38629 0.56239 0.66669 0.0
H4093 H 0.21019 0.5951 0.70404 0.0
H4094 H 0.30434 0.50874 0.65571 0.0
H4095 H 0.28394 0.66451 0.70536 0.0
H4096 H 0.24351 0.56238 0.68886 0.0
H4097 H 0.35273 0.5955 0.68161 0.0
C4098 C 0.36137 0.55679 0.66718 0.0
C4099 C 0.35016 0.53078 0.65897 0.0
C4100 C 0.25303 0.58469 0.69233 0.0
C4101 C 0.308 0.57184 0.67788 0.0
C4102 C 0.23327 0.60423 0.70139 0.0
C4103 C 0.24216 0.63472 0.70686 0.0
C4104 C 0.28436 0.59349 0.68803 0.0
C4105 C 0.27381 0.64234 0.70205 0.0
C4106 C 0.34145 0.57658 0.67607 0.0
C4107 C 0.31627 0.52742 0.66116 0.0
N4108 N 0.29254 0.62278 0.69352 0.0
N4109 N 0.29777 0.54649 0.66998 0.0
H4110 H 0.27006 0.52072 0.44793 0.0
H4111 H 0.29755 0.68844 0.40449 0.0
H4112 H 0.19148 0.58176 0.44006 0.0
H4113 H 0.35364 0.60683 0.39575 0.0
H4114 H 0.26378 0.65535 0.41944 0.0
H4115 H 0.30279 0.55323 0.43244 0.0
C4116 C 0.25887 0.54077 0.44313 0.0
C4117 C 0.22589 0.54634 0.44609 0.0
C4118 C 0.28339 0.64408 0.41438 0.0
C4119 C 0.26711 0.58787 0.42711 0.0
C4120 C 0.30353 0.66368 0.4055 0.0
C4121 C 0.33046 0.65231 0.39798 0.0
C4122 C 0.28878 0.61099 0.41685 0.0
C4123 C 0.33428 0.61874 0.4007 0.0
C4124 C 0.27844 0.56008 0.43394 0.0
C4125 C 0.21574 0.57441 0.43877 0.0
N4126 N 0.31487 0.60058 0.40953 0.0
N4127 N 0.23543 0.59313 0.43026 0.0
H4128 H 0.26414 0.15353 0.29837 0.0
H4129 H 0.32307 1.03926 0.26483 0.0
H4130 H 0.28055 0.08722 0.33083 0.0
H4131 H 0.36887 1.00425 0.30082 0.0
H4132 H 0.32017 0.09071 0.27472 0.0
H4133 H 0.31185 0.1342 0.28725 0.0
C4134 C 0.27788 0.13517 0.30324 0.0
C4135 C 0.26724 0.12076 0.31519 0.0
C4136 C 0.33206 0.07238 0.2804 0.0
C4137 C 0.3214 0.09826 0.30247 0.0
C4138 C 0.3338 0.04245 0.27465 0.0
C4139 C 0.34433 1.01657 0.28235 0.0
C4140 C 0.33984 0.07611 0.29408 0.0
C4141 C 0.3585 1.02302 0.29486 0.0
C4142 C 0.3052 0.12422 0.2969 0.0
C4143 C 0.28707 0.09856 0.32145 0.0
N4144 N 0.35468 0.0519 0.30058 0.0
N4145 N 0.31272 0.08749 0.31485 0.0
H4146 H 0.24985 0.13486 0.59996 0.0
H4147 H 0.35538 0.05674 0.56473 0.0
H4148 H 0.19016 0.12175 0.56519 0.0
H4149 H 0.2922 0.06507 0.5307 0.0
H4150 H 0.328 0.09997 0.57562 0.0
H4151 H 0.29606 0.13344 0.58537 0.0
C4152 C 0.2465 0.1327 0.58916 0.0
C4153 C 0.21637 0.12674 0.58382 0.0
C4154 C 0.32052 0.09326 0.56561 0.0
C4155 C 0.26896 0.1231 0.56717 0.0
C4156 C 0.3361 0.0681 0.55943 0.0
C4157 C 0.32531 0.0563 0.54703 0.0
C4158 C 0.29371 0.10649 0.55936 0.0
C4159 C 0.30115 0.07284 0.54037 0.0
C4160 C 0.27297 0.13129 0.58081 0.0
C4161 C 0.21308 0.12537 0.56978 0.0
N4162 N 0.28575 0.09655 0.54676 0.0
N4163 N 0.23917 0.12242 0.56197 0.0
H4164 H 0.33033 0.14902 0.81312 0.0
H4165 H 0.28464 1.0157 0.8424 0.0
H4166 H 0.3152 0.08946 0.7783 0.0
H4167 H 0.22178 0.99797 0.80878 0.0
H4168 H 0.29385 0.06804 0.83401 0.0
H4169 H 0.28904 0.11954 0.82504 0.0
C4170 C 0.31811 0.13014 0.8079 0.0
C4171 C 0.32731 0.12086 0.79488 0.0
C4172 C 0.27706 0.05327 0.8287 0.0
C4173 C 0.28018 0.08741 0.80838 0.0
C4174 C 0.27168 1.02288 0.83351 0.0
C4175 C 0.25293 1.00147 0.82614 0.0
C4176 C 0.26458 0.0622 0.81616 0.0
C4177 C 0.2376 1.01289 0.81452 0.0
C4178 C 0.29444 0.11351 0.81468 0.0
C4179 C 0.30949 0.09729 0.78838 0.0
N4180 N 0.24468 0.04209 0.80962 0.0
N4181 N 0.28723 0.08096 0.79531 0.0
H4182 H 0.19917 1.01622 0.06344 0.0
H4183 H 0.38039 1.02835 1.04364 0.0
H4184 H 0.23523 0.04261 1.02415 0.0
H4185 H 0.34082 0.05343 0.0824 0.0
H4186 H 0.32876 1.00752 1.03698 0.0
H4187 H 0.25314 1.00379 0.07047 0.0
C4188 C 0.21811 1.01889 0.0562 0.0
C4189 C 0.21248 1.03158 1.04331 0.0
C4190 C 0.33193 1.01674 1.04708 0.0
C4191 C 0.27382 1.01613 1.05115 0.0
C4192 C 0.36122 1.02904 1.05084 0.0
C4193 C 0.36495 0.04373 0.06346 0.0
C4194 C 0.30644 1.0188 0.05606 0.0
C4195 C 0.33946 0.04257 0.07255 0.0
C4196 C 0.2488 1.01135 0.06019 0.0
C4197 C 0.23796 1.03309 1.03421 0.0
N4198 N 0.31119 1.03083 0.06859 0.0
N4199 N 0.26755 1.02597 1.03838 0.0
H4200 H 0.75435 1.01818 0.7745 0.0
H4201 H 0.77788 0.10776 0.83652 0.0
H4202 H 0.7232 0.97782 0.81236 0.0
H4203 H 0.75339 0.15773 0.79985 0.0
H4204 H 0.74664 0.06356 0.82914 0.0
H4205 H 0.74329 0.07025 0.78315 0.0
C4206 C 0.74428 1.0199 0.7845 0.0
C4207 C 0.74085 0.99317 0.79285 0.0
C4208 C 0.74728 0.08453 0.82285 0.0
C4209 C 0.72929 0.05364 0.80301 0.0
C4210 C 0.7652 0.11025 0.8271 0.0
C4211 C 0.77003 0.13633 0.81848 0.0
C4212 C 0.73499 0.08433 0.80972 0.0
C4213 C 0.75224 0.13743 0.80649 0.0
C4214 C 0.73798 0.05 0.78946 0.0
C4215 C 0.72781 0.99768 0.80575 0.0
N4216 N 0.73657 0.11124 0.80218 0.0
N4217 N 0.7235 1.02739 0.81061 0.0
H4218 H 0.73789 0.0657 0.58582 0.0
H4219 H 0.83677 0.07278 0.52212 0.0
H4220 H 0.69773 1.03455 0.54796 0.0
H4221 H 0.88043 0.04629 0.55995 0.0
H4222 H 0.78604 0.05623 0.53099 0.0
H4223 H 0.7902 0.05597 0.57691 0.0
C4224 C 0.73983 0.05605 0.57575 0.0
C4225 C 0.71309 0.05148 0.56757 0.0
C4226 C 0.80685 0.05339 0.53724 0.0
C4227 C 0.77338 0.04141 0.55718 0.0
C4228 C 0.836 0.06277 0.53217 0.0
C4229 C 0.86309 0.06151 0.54037 0.0
C4230 C 0.80454 0.04351 0.5507 0.0
C4231 C 0.86011 0.04877 0.55341 0.0
C4232 C 0.7699 0.05059 0.57066 0.0
C4233 C 0.7176 0.03949 0.5545 0.0
N4234 N 0.83119 0.04095 0.5583 0.0
N4235 N 0.74724 1.03558 0.54958 0.0
H4236 H 0.83437 1.03271 0.34255 0.0
H4237 H 0.80144 0.10429 0.27832 0.0
H4238 H 0.87411 0.99985 0.30496 0.0
H4239 H 0.7837 0.15112 0.31635 0.0
H4240 H 0.84867 0.08219 0.28754 0.0
H4241 H 0.83967 0.08629 0.33481 0.0
C4242 C 0.8452 1.03646 0.3328 0.0
C4243 C 0.85158 1.01118 0.32399 0.0
C4244 C 0.8349 0.09782 0.29387 0.0
C4245 C 0.85581 0.07323 0.31477 0.0
C4246 C 0.80746 0.11084 0.28854 0.0
C4247 C 0.78659 0.1279 0.29685 0.0
C4248 C 0.84062 0.10025 0.30776 0.0
C4249 C 0.79732 0.13583 0.30985 0.0
C4250 C 0.84811 0.06753 0.32833 0.0
C4251 C 0.86646 1.0184 0.31171 0.0
N4252 N 0.82289 0.12086 0.31511 0.0
N4253 N 0.86688 0.04875 0.3072 0.0
H4254 H 0.88792 0.06295 0.05436 0.0
H4255 H 0.78858 0.09186 1.01664 0.0
H4256 H 0.81795 0.074 0.08557 0.0
H4257 H 0.72496 0.10816 1.04985 0.0
H4258 H 0.82927 0.11996 1.02854 0.0
H4259 H 0.86665 0.10922 1.043 0.0
C4260 C 0.86828 0.07535 0.05891 0.0
C4261 C 0.85291 0.06292 0.07028 0.0
C4262 C 0.80644 0.11784 1.03333 0.0
C4263 C 0.8271 0.11462 0.05694 0.0
C4264 C 0.78268 0.10194 1.02634 0.0
C4265 C 0.75412 0.09464 1.03288 0.0
C4266 C 0.8021 0.124 1.04716 0.0
C4267 C 0.74774 0.11046 1.04499 0.0
C4268 C 0.85596 0.10191 1.0524 0.0
C4269 C 0.82943 0.08145 0.07635 0.0
N4270 N 0.77199 0.12348 1.05204 0.0
N4271 N 0.81658 0.10584 0.06938 0.0
H4272 H 0.72856 0.51722 0.83273 0.0
H4273 H 0.86975 0.47998 0.78199 0.0
H4274 H 0.76891 0.58399 0.80464 0.0
H4275 H 0.81295 0.40738 0.80053 0.0
H4276 H 0.8436 0.51962 0.79598 0.0
H4277 H 0.76836 0.47826 0.82593 0.0
C4278 C 0.746 0.52373 0.82523 0.0
C4279 C 0.74527 0.55365 0.81908 0.0
C4280 C 0.83743 0.49494 0.79728 0.0
C4281 C 0.79088 0.50956 0.81144 0.0
C4282 C 0.85266 0.47234 0.78945 0.0
C4283 C 0.84338 0.44057 0.79018 0.0
C4284 C 0.81255 0.48565 0.80577 0.0
C4285 C 0.82081 0.43171 0.7998 0.0
C4286 C 0.76865 0.50155 0.82138 0.0
C4287 C 0.76833 0.56097 0.80943 0.0
N4288 N 0.80563 0.45429 0.80708 0.0
N4289 N 0.79012 0.53903 0.80587 0.0
H4290 H 0.88489 0.63642 1.03841 0.0
H4291 H 0.77564 0.59779 0.077 0.0
H4292 H 0.82195 0.59446 1.00921 0.0
H4293 H 0.70879 0.59718 1.04411 0.0
H4294 H 0.809 0.63295 0.06432 0.0
H4295 H 0.83938 0.66029 1.0495 0.0
C4296 C 0.86169 0.63282 1.03408 0.0
C4297 C 0.85702 0.61054 1.02373 0.0
C4298 C 0.78655 0.62637 0.05993 0.0
C4299 C 0.80512 0.63716 1.03645 0.0
C4300 C 0.76723 0.60596 0.06729 0.0
C4301 C 0.7401 0.59289 0.06133 0.0
C4302 C 0.77923 0.63288 1.04635 0.0
C4303 C 0.73051 0.60509 1.04878 0.0
C4304 C 0.83562 0.64634 1.04049 0.0
C4305 C 0.82684 0.6094 1.01781 0.0
N4306 N 0.75062 0.62344 1.04149 0.0
N4307 N 0.8018 0.62134 1.02459 0.0
H4308 H 0.72775 0.49511 0.30447 0.0
H4309 H 0.83378 0.64508 0.31133 0.0
H4310 H 0.77795 0.52507 0.34022 0.0
H4311 H 0.80451 0.59971 0.27432 0.0
H4312 H 0.79127 0.6174 0.32316 0.0
H4313 H 0.73262 0.54873 0.29548 0.0
C4314 C 0.73906 0.51307 0.31059 0.0
C4315 C 0.75386 0.50512 0.32281 0.0
C4316 C 0.79362 0.6144 0.31235 0.0
C4317 C 0.75934 0.56628 0.31264 0.0
C4318 C 0.81811 0.62988 0.30562 0.0
C4319 C 0.82379 0.62359 0.29193 0.0
C4320 C 0.77496 0.59239 0.30533 0.0
C4321 C 0.8017 0.60494 0.28493 0.0
C4322 C 0.74159 0.54373 0.3055 0.0
C4323 C 0.76683 0.5297 0.33059 0.0
N4324 N 0.77876 0.58941 0.29178 0.0
N4325 N 0.77006 0.55898 0.3252 0.0
H4326 H 0.70446 0.51511 0.56209 0.0
H4327 H 0.88517 0.53076 0.54139 0.0
H4328 H 0.73804 0.54662 0.52307 0.0
H4329 H 0.84662 0.55517 0.58044 0.0
H4330 H 0.83304 0.5111 0.53476 0.0
H4331 H 0.75913 0.50421 0.56857 0.0
C4332 C 0.72303 0.51925 0.55479 0.0
C4333 C 0.71642 0.53279 0.54214 0.0
C4334 C 0.83657 0.51993 0.5449 0.0
C4335 C 0.77859 0.51902 0.54933 0.0
C4336 C 0.86613 0.53158 0.54866 0.0
C4337 C 0.87038 0.54561 0.56138 0.0
C4338 C 0.81134 0.52184 0.55402 0.0
C4339 C 0.84496 0.54467 0.57053 0.0
C4340 C 0.75411 0.51259 0.55846 0.0
C4341 C 0.74152 0.53628 0.53294 0.0
N4342 N 0.81647 0.53342 0.56659 0.0
N4343 N 0.7715 0.52988 0.5368 0.0
H4344 H 0.29353 0.64516 0.29169 0.0
H4345 H 0.22023 0.4795 0.30702 0.0
H4346 H 0.29134 0.59573 0.32995 0.0
H4347 H 0.258 0.51236 0.26895 0.0
H4348 H 0.21704 0.5344 0.3145 0.0
H4349 H 0.25221 0.60969 0.28348 0.0
C4350 C 0.28412 0.62746 0.29849 0.0
C4351 C 0.29757 0.62244 0.31129 0.0
C4352 C 0.22486 0.52945 0.30431 0.0
C4353 C 0.24948 0.58275 0.30209 0.0
C4354 C 0.22714 0.49807 0.30009 0.0
C4355 C 0.24125 0.4909 0.28763 0.0
C4356 C 0.23677 0.55361 0.29601 0.0
C4357 C 0.24785 0.5162 0.27881 0.0
C4358 C 0.26011 0.60758 0.29384 0.0
C4359 C 0.28274 0.60039 0.31988 0.0
N4360 N 0.24635 0.54637 0.28331 0.0
N4361 N 0.26006 0.58091 0.31501 0.0
H4362 H 0.38777 0.53621 0.05584 0.0
H4363 H 0.243 0.54736 0.08464 0.0
H4364 H 0.33396 0.56842 1.02141 0.0
H4365 H 0.20344 0.5185 1.04634 0.0
H4366 H 0.2953 0.53921 0.0757 0.0
H4367 H 0.33924 0.51458 0.0656 0.0
C4368 C 0.36587 0.53852 1.05028 0.0
C4369 C 0.36478 0.55506 1.03798 0.0
C4370 C 0.27523 0.53353 0.06938 0.0
C4371 C 0.30952 0.53031 1.04904 0.0
C4372 C 0.24506 0.53821 0.07449 0.0
C4373 C 0.21843 0.53421 0.06618 0.0
C4374 C 0.27896 0.52545 0.05576 0.0
C4375 C 0.22319 0.52299 1.053 0.0
C4376 C 0.33828 0.52607 0.05584 0.0
C4377 C 0.33599 0.55614 1.03096 0.0
N4378 N 0.25293 0.51992 1.04806 0.0
N4379 N 0.30939 0.54436 1.03669 0.0
H4380 H 0.30722 0.60637 0.76818 0.0
H4381 H 0.33198 0.53243 0.83265 0.0
H4382 H 0.32268 0.66394 0.80359 0.0
H4383 H 0.36483 0.4867 0.79631 0.0
H4384 H 0.34455 0.58306 0.82284 0.0
H4385 H 0.34434 0.56843 0.77673 0.0
C4386 C 0.31905 0.6119 0.77756 0.0
C4387 C 0.30979 0.63767 0.7856 0.0
C4388 C 0.34995 0.56198 0.81711 0.0
C4389 C 0.35163 0.5928 0.79577 0.0
C4390 C 0.34277 0.53268 0.82276 0.0
C4391 C 0.34576 0.50494 0.81507 0.0
C4392 C 0.35896 0.56372 0.8035 0.0
C4393 C 0.36022 0.50748 0.80234 0.0
C4394 C 0.34044 0.58979 0.78251 0.0
C4395 C 0.32712 0.64324 0.79748 0.0
N4396 N 0.36518 0.53642 0.79674 0.0
N4397 N 0.34615 0.62026 0.80253 0.0
H4398 H 0.27824 0.59398 0.51855 0.0
H4399 H 0.30938 0.58551 0.58818 0.0
H4400 H 0.21138 0.59499 0.55136 0.0
H4401 H 0.37589 0.58295 0.55525 0.0
H4402 H 0.28123 0.62753 0.57688 0.0
H4403 H 0.3116 0.63001 0.53098 0.0
C4404 C 0.26981 0.60251 0.52818 0.0
C4405 C 0.2433 0.58897 0.5345 0.0
C4406 C 0.30261 0.61862 0.57227 0.0
C4407 C 0.28286 0.62831 0.5491 0.0
C4408 C 0.3189 0.59436 0.57877 0.0
C4409 C 0.34349 0.57861 0.57205 0.0
C4410 C 0.3097 0.62523 0.5587 0.0
C4411 C 0.35528 0.59252 0.56022 0.0
C4412 C 0.28911 0.6233 0.53535 0.0
C4413 C 0.23318 0.60255 0.54665 0.0
N4414 N 0.33757 0.61435 0.55362 0.0
N4415 N 0.25359 0.62065 0.55386 0.0
loop_
_geom_bond_atom_site_label_1
_geom_bond_atom_site_label_2
_geom_bond_distance
_geom_bond_site_symmetry_2
_ccdc_geom_bond_type
C0 C2 1.422 . S
C0 C4 1.415 . S
C0 N6 1.369 . S
C1 C2 1.421 . S
C1 C3 1.417 . S
C1 C13 1.422 . S
C2 C0 1.422 . S
C2 C1 1.421 . S
C2 N12 1.359 . S
C3 C1 1.417 . S
C3 C5 1.329 . S
C3 H22 0.930 . S
C4 C0 1.415 . S
C4 C5 1.437 . S
C4 C8 1.413 . S
C5 C3 1.329 . S
C5 C4 1.437 . S
C5 H27 0.929 . S
N6 C0 1.369 . S
N6 C7 1.338 . S
N6 Gd11 2.622 . S
C7 N6 1.338 . S
C7 C9 1.378 . S
C7 H19 0.929 . S
C8 C4 1.413 . S
C8 C9 1.348 . S
C8 H24 0.931 . S
C9 C7 1.378 . S
C9 C8 1.348 . S
C9 H25 0.930 . S
Gd10 N30 2.622 . S
Gd10 N37 2.570 . S
Gd10 O44 2.353 . S
Gd10 O45 2.468 . S
Gd10 O46 2.427 . S
Gd10 O48 2.388 . S
Gd10 O49 2.386 . S
Gd10 O53 2.307 . S
Gd10 C63 2.805 . S
Gd11 N6 2.622 . S
Gd11 N12 2.570 . S
Gd11 O43 2.386 . S
Gd11 O47 2.307 . S
Gd11 O50 2.353 . S
Gd11 O51 2.468 . S
Gd11 O52 2.427 . S
Gd11 O54 2.388 . S
Gd11 C75 2.805 . S
N12 C2 1.359 . S
N12 Gd11 2.570 . S
N12 C14 1.343 . S
C13 C1 1.422 . S
C13 C15 1.321 . S
C13 H21 0.931 . S
C14 N12 1.343 . S
C14 C15 1.390 . S
C14 H16 0.931 . S
C15 C13 1.321 . S
C15 C14 1.390 . S
C15 H17 0.930 . S
H16 C14 0.931 . S
H17 C15 0.930 . S
H18 C41 0.931 . S
H19 C7 0.929 . S
H20 C42 0.930 . S
H21 C13 0.931 . S
H22 C3 0.930 . S
H23 C32 0.929 . S
H24 C8 0.931 . S
H25 C9 0.930 . S
H26 C64 0.930 . S
H27 C5 0.929 . S
H28 C33 0.931 . S
H29 C34 0.930 . S
N30 Gd10 2.622 . S
N30 C31 1.369 . S
N30 C32 1.338 . S
C31 N30 1.369 . S
C31 C35 1.415 . S
C31 C38 1.422 . S
C32 H23 0.929 . S
C32 N30 1.338 . S
C32 C34 1.378 . S
C33 H28 0.931 . S
C33 C34 1.348 . S
C33 C35 1.413 . S
C34 H29 0.930 . S
C34 C32 1.378 . S
C34 C33 1.348 . S
C35 C31 1.415 . S
C35 C33 1.413 . S
C35 C65 1.437 . S
H36 C65 0.929 . S
N37 Gd10 2.570 . S
N37 C38 1.359 . S
N37 C41 1.343 . S
C38 C31 1.422 . S
C38 N37 1.359 . S
C38 C40 1.421 . S
C39 C40 1.422 . S
C39 C42 1.321 . S
C39 H66 0.931 . S
C40 C38 1.421 . S
C40 C39 1.422 . S
C40 C64 1.417 . S
C41 H18 0.931 . S
C41 N37 1.343 . S
C41 C42 1.390 . S
C42 H20 0.930 . S
C42 C39 1.321 . S
C42 C41 1.390 . S
O43 Gd11 2.386 . S
O43 C55 1.265 . S
O44 Gd10 2.353 . S
O44 C55 1.242 . S
O45 Gd10 2.468 . S
O45 C63 1.263 . S
O46 Gd10 2.427 . S
O46 C63 1.252 . S
O47 Gd11 2.307 . S
O47 C56 1.261 . S
O48 Gd10 2.388 . S
O48 C56 1.252 . S
O49 Gd10 2.386 . S
O49 C67 1.265 . S
O50 Gd11 2.353 . S
O50 C67 1.242 . S
O51 Gd11 2.468 . S
O51 C75 1.263 . S
O52 Gd11 2.427 . S
O52 C75 1.252 . S
O53 Gd10 2.307 . S
O53 C68 1.261 . S
O54 Gd11 2.388 . S
O54 C68 1.252 . S
C55 O43 1.265 . S
C55 O44 1.242 . S
C56 O47 1.261 . S
C56 O48 1.252 . S
C57 C60 1.394 . S
C57 C62 1.370 . S
C57 C63 1.500 . S
C58 C61 1.383 . S
C58 C62 1.395 . S
C59 C60 1.396 . S
C59 C61 1.365 . S
C59 H76 0.929 . S
C60 C57 1.394 . S
C60 C59 1.396 . S
C60 H77 0.930 . S
C61 C58 1.383 . S
C61 C59 1.365 . S
C61 H78 0.931 . S
C62 C57 1.370 . S
C62 C58 1.395 . S
C62 H79 0.930 . S
C63 Gd10 2.805 . S
C63 O45 1.263 . S
C63 O46 1.252 . S
C63 C57 1.500 . S
C64 H26 0.930 . S
C64 C40 1.417 . S
C64 C65 1.329 . S
C65 C35 1.437 . S
C65 H36 0.929 . S
C65 C64 1.329 . S
H66 C39 0.931 . S
C67 O49 1.265 . S
C67 O50 1.242 . S
C68 O53 1.261 . S
C68 O54 1.252 . S
C69 C72 1.394 . S
C69 C74 1.370 . S
C69 C75 1.500 . S
C70 C73 1.383 . S
C70 C74 1.395 . S
C71 C72 1.396 . S
C71 C73 1.365 . S
C71 H80 0.929 . S
C72 C69 1.394 . S
C72 C71 1.396 . S
C72 H81 0.930 . S
C73 C70 1.383 . S
C73 C71 1.365 . S
C73 H82 0.931 . S
C74 C69 1.370 . S
C74 C70 1.395 . S
C74 H83 0.930 . S
C75 Gd11 2.805 . S
C75 O51 1.263 . S
C75 O52 1.252 . S
C75 C69 1.500 . S
H76 C59 0.929 . S
H77 C60 0.930 . S
H78 C61 0.931 . S
H79 C62 0.930 . S
H80 C71 0.929 . S
H81 C72 0.930 . S
H82 C73 0.931 . S
H83 C74 0.930 . S
C84 C86 1.422 1_545 S
C84 C88 1.415 . S
C84 N90 1.369 . S
C85 C86 1.421 1_545 S
C85 C87 1.417 . S
C85 C97 1.422 1_545 S
C86 C84 1.422 1_565 S
C86 C85 1.421 1_565 S
C86 N96 1.359 . S
C87 C85 1.417 . S
C87 C89 1.329 . S
C87 H106 0.930 . S
C88 C84 1.415 . S
C88 C89 1.437 . S
C88 C92 1.413 . S
C89 C87 1.329 . S
C89 C88 1.437 . S
C89 H111 0.929 . S
N90 C84 1.369 . S
N90 C91 1.338 1_655 S
N90 Gd95 2.622 1_645 S
C91 N90 1.338 1_455 S
C91 C93 1.378 . S
C91 H103 0.929 . S
C92 C88 1.413 . S
C92 C93 1.348 1_655 S
C92 H108 0.931 . S
C93 C91 1.378 . S
C93 C92 1.348 1_455 S
C93 H109 0.930 . S
Gd94 N114 2.622 . S
Gd94 N121 2.570 . S
Gd94 O128 2.353 . S
Gd94 O129 2.468 . S
Gd94 O130 2.427 . S
Gd94 O132 2.388 . S
Gd94 O133 2.386 . S
Gd94 O137 2.307 . S
Gd94 C147 2.805 . S
Gd95 N90 2.622 1_465 S
Gd95 N96 2.570 1_455 S
Gd95 O127 2.386 . S
Gd95 O131 2.307 . S
Gd95 O134 2.353 . S
Gd95 O135 2.468 1_455 S
Gd95 O136 2.427 1_455 S
Gd95 O138 2.388 . S
Gd95 C159 2.805 1_455 S
N96 C86 1.359 . S
N96 Gd95 2.570 1_655 S
N96 C98 1.343 . S
C97 C85 1.422 1_565 S
C97 C99 1.321 . S
C97 H105 0.931 . S
C98 N96 1.343 . S
C98 C99 1.390 . S
C98 H100 0.931 . S
C99 C97 1.321 . S
C99 C98 1.390 . S
C99 H101 0.930 . S
H100 C98 0.931 . S
H101 C99 0.930 . S
H102 C125 0.931 . S
H103 C91 0.929 . S
H104 C126 0.930 . S
H105 C97 0.931 . S
H106 C87 0.930 . S
H107 C116 0.929 . S
H108 C92 0.931 . S
H109 C93 0.930 . S
H110 C148 0.930 . S
H111 C89 0.929 . S
H112 C117 0.931 . S
H113 C118 0.930 . S
N114 Gd94 2.622 . S
N114 C115 1.369 . S
N114 C116 1.338 . S
C115 N114 1.369 . S
C115 C119 1.415 . S
C115 C122 1.422 . S
C116 H107 0.929 . S
C116 N114 1.338 . S
C116 C118 1.378 . S
C117 H112 0.931 . S
C117 C118 1.348 . S
C117 C119 1.413 . S
C118 H113 0.930 . S
C118 C116 1.378 . S
C118 C117 1.348 . S
C119 C115 1.415 . S
C119 C117 1.413 . S
C119 C149 1.437 . S
H120 C149 0.929 . S
N121 Gd94 2.570 . S
N121 C122 1.359 . S
N121 C125 1.343 . S
C122 C115 1.422 . S
C122 N121 1.359 . S
C122 C124 1.421 . S
C123 C124 1.422 . S
C123 C126 1.321 . S
C123 H150 0.931 . S
C124 C122 1.421 . S
C124 C123 1.422 . S
C124 C148 1.417 . S
C125 H102 0.931 . S
C125 N121 1.343 . S
C125 C126 1.390 . S
C126 H104 0.930 . S
C126 C123 1.321 . S
C126 C125 1.390 . S
O127 Gd95 2.386 . S
O127 C139 1.265 . S
O128 Gd94 2.353 . S
O128 C139 1.242 . S
O129 Gd94 2.468 . S
O129 C147 1.263 . S
O130 Gd94 2.427 . S
O130 C147 1.252 . S
O131 Gd95 2.307 . S
O131 C140 1.261 . S
O132 Gd94 2.388 . S
O132 C140 1.252 . S
O133 Gd94 2.386 . S
O133 C151 1.265 . S
O134 Gd95 2.353 . S
O134 C151 1.242 . S
O135 Gd95 2.468 1_655 S
O135 C159 1.263 . S
O136 Gd95 2.427 1_655 S
O136 C159 1.252 . S
O137 Gd94 2.307 . S
O137 C152 1.261 . S
O138 Gd95 2.388 . S
O138 C152 1.252 . S
C139 O127 1.265 . S
C139 O128 1.242 . S
C140 O131 1.261 . S
C140 O132 1.252 . S
C141 C144 1.394 . S
C141 C146 1.370 . S
C141 C147 1.500 . S
C142 C145 1.383 . S
C142 C146 1.395 . S
C143 C144 1.396 . S
C143 C145 1.365 . S
C143 H160 0.929 . S
C144 C141 1.394 . S
C144 C143 1.396 . S
C144 H161 0.930 . S
C145 C142 1.383 . S
C145 C143 1.365 . S
C145 H162 0.931 . S
C146 C141 1.370 . S
C146 C142 1.395 . S
C146 H163 0.930 . S
C147 Gd94 2.805 . S
C147 O129 1.263 . S
C147 O130 1.252 . S
C147 C141 1.500 . S
C148 H110 0.930 . S
C148 C124 1.417 . S
C148 C149 1.329 . S
C149 C119 1.437 . S
C149 H120 0.929 . S
C149 C148 1.329 . S
H150 C123 0.931 . S
C151 O133 1.265 . S
C151 O134 1.242 . S
C152 O137 1.261 . S
C152 O138 1.252 . S
C153 C156 1.394 . S
C153 C158 1.370 . S
C153 C159 1.500 . S
C154 C157 1.383 . S
C154 C158 1.395 . S
C155 C156 1.396 . S
C155 C157 1.365 . S
C155 H164 0.929 . S
C156 C153 1.394 . S
C156 C155 1.396 . S
C156 H165 0.930 . S
C157 C154 1.383 . S
C157 C155 1.365 . S
C157 H166 0.931 . S
C158 C153 1.370 . S
C158 C154 1.395 . S
C158 H167 0.930 . S
C159 Gd95 2.805 1_655 S
C159 O135 1.263 . S
C159 O136 1.252 . S
C159 C153 1.500 . S
H160 C143 0.929 . S
H161 C144 0.930 . S
H162 C145 0.931 . S
H163 C146 0.930 . S
H164 C155 0.929 . S
H165 C156 0.930 . S
H166 C157 0.931 . S
H167 C158 0.930 . S
C168 C170 1.422 . S
C168 C172 1.415 . S
C168 N174 1.369 . S
C169 C170 1.421 . S
C169 C171 1.417 . S
C169 C181 1.422 . S
C170 C168 1.422 . S
C170 C169 1.421 . S
C170 N180 1.359 . S
C171 C169 1.417 . S
C171 C173 1.329 . S
C171 H190 0.930 . S
C172 C168 1.415 . S
C172 C173 1.437 . S
C172 C176 1.413 . S
C173 C171 1.329 . S
C173 C172 1.437 . S
C173 H195 0.929 . S
N174 C168 1.369 . S
N174 C175 1.338 . S
N174 Gd179 2.622 . S
C175 N174 1.338 . S
C175 C177 1.378 . S
C175 H187 0.929 . S
C176 C172 1.413 . S
C176 C177 1.348 . S
C176 H192 0.931 . S
C177 C175 1.378 . S
C177 C176 1.348 . S
C177 H193 0.930 . S
Gd178 N198 2.622 . S
Gd178 N205 2.570 . S
Gd178 O212 2.353 . S
Gd178 O213 2.468 . S
Gd178 O214 2.427 . S
Gd178 O216 2.388 . S
Gd178 O217 2.386 . S
Gd178 O221 2.307 . S
Gd178 C231 2.805 . S
Gd179 N174 2.622 . S
Gd179 N180 2.570 . S
Gd179 O211 2.386 . S
Gd179 O215 2.307 . S
Gd179 O218 2.353 . S
Gd179 O219 2.468 . S
Gd179 O220 2.427 . S
Gd179 O222 2.388 . S
Gd179 C243 2.805 . S
N180 C170 1.359 . S
N180 Gd179 2.570 . S
N180 C182 1.343 . S
C181 C169 1.422 . S
C181 C183 1.321 . S
C181 H189 0.931 . S
C182 N180 1.343 . S
C182 C183 1.390 . S
C182 H184 0.931 . S
C183 C181 1.321 . S
C183 C182 1.390 . S
C183 H185 0.930 . S
H184 C182 0.931 . S
H185 C183 0.930 . S
H186 C209 0.931 . S
H187 C175 0.929 . S
H188 C210 0.930 . S
H189 C181 0.931 . S
H190 C171 0.930 . S
H191 C200 0.929 . S
H192 C176 0.931 . S
H193 C177 0.930 . S
H194 C232 0.930 . S
H195 C173 0.929 . S
H196 C201 0.931 . S
H197 C202 0.930 . S
N198 Gd178 2.622 . S
N198 C199 1.369 . S
N198 C200 1.338 . S
C199 N198 1.369 . S
C199 C203 1.415 . S
C199 C206 1.422 . S
C200 H191 0.929 . S
C200 N198 1.338 . S
C200 C202 1.378 . S
C201 H196 0.931 . S
C201 C202 1.348 . S
C201 C203 1.413 . S
C202 H197 0.930 . S
C202 C200 1.378 . S
C202 C201 1.348 . S
C203 C199 1.415 . S
C203 C201 1.413 . S
C203 C233 1.437 . S
H204 C233 0.929 . S
N205 Gd178 2.570 . S
N205 C206 1.359 . S
N205 C209 1.343 . S
C206 C199 1.422 . S
C206 N205 1.359 . S
C206 C208 1.421 . S
C207 C208 1.422 . S
C207 C210 1.321 . S
C207 H234 0.931 . S
C208 C206 1.421 . S
C208 C207 1.422 . S
C208 C232 1.417 . S
C209 H186 0.931 . S
C209 N205 1.343 . S
C209 C210 1.390 . S
C210 H188 0.930 . S
C210 C207 1.321 . S
C210 C209 1.390 . S
O211 Gd179 2.386 . S
O211 C223 1.265 . S
O212 Gd178 2.353 . S
O212 C223 1.242 . S
O213 Gd178 2.468 . S
O213 C231 1.263 . S
O214 Gd178 2.427 . S
O214 C231 1.252 . S
O215 Gd179 2.307 . S
O215 C224 1.261 . S
O216 Gd178 2.388 . S
O216 C224 1.252 . S
O217 Gd178 2.386 . S
O217 C235 1.265 . S
O218 Gd179 2.353 . S
O218 C235 1.242 . S
O219 Gd179 2.468 . S
O219 C243 1.263 . S
O220 Gd179 2.427 . S
O220 C243 1.252 . S
O221 Gd178 2.307 . S
O221 C236 1.261 . S
O222 Gd179 2.388 . S
O222 C236 1.252 . S
C223 O211 1.265 . S
C223 O212 1.242 . S
C224 O215 1.261 . S
C224 O216 1.252 . S
C225 C228 1.394 . S
C225 C230 1.370 . S
C225 C231 1.500 . S
C226 C229 1.383 . S
C226 C230 1.395 . S
C227 C228 1.396 . S
C227 C229 1.365 . S
C227 H244 0.929 . S
C228 C225 1.394 . S
C228 C227 1.396 . S
C228 H245 0.930 . S
C229 C226 1.383 . S
C229 C227 1.365 . S
C229 H246 0.931 . S
C230 C225 1.370 . S
C230 C226 1.395 . S
C230 H247 0.930 . S
C231 Gd178 2.805 . S
C231 O213 1.263 . S
C231 O214 1.252 . S
C231 C225 1.500 . S
C232 H194 0.930 . S
C232 C208 1.417 . S
C232 C233 1.329 . S
C233 C203 1.437 . S
C233 H204 0.929 . S
C233 C232 1.329 . S
H234 C207 0.931 . S
C235 O217 1.265 . S
C235 O218 1.242 . S
C236 O221 1.261 . S
C236 O222 1.252 . S
C237 C240 1.394 . S
C237 C242 1.370 . S
C237 C243 1.500 . S
C238 C241 1.383 . S
C238 C242 1.395 . S
C239 C240 1.396 . S
C239 C241 1.365 . S
C239 H248 0.929 . S
C240 C237 1.394 . S
C240 C239 1.396 . S
C240 H249 0.930 . S
C241 C238 1.383 . S
C241 C239 1.365 . S
C241 H250 0.931 . S
C242 C237 1.370 . S
C242 C238 1.395 . S
C242 H251 0.930 . S
C243 Gd179 2.805 . S
C243 O219 1.263 . S
C243 O220 1.252 . S
C243 C237 1.500 . S
H244 C227 0.929 . S
H245 C228 0.930 . S
H246 C229 0.931 . S
H247 C230 0.930 . S
H248 C239 0.929 . S
H249 C240 0.930 . S
H250 C241 0.931 . S
H251 C242 0.930 . S
C252 C254 1.422 1_565 S
C252 C256 1.415 . S
C252 N258 1.369 . S
C253 C254 1.421 1_565 S
C253 C255 1.417 . S
C253 C265 1.422 1_565 S
C254 C252 1.422 1_545 S
C254 C253 1.421 1_545 S
C254 N264 1.359 . S
C255 C253 1.417 . S
C255 C257 1.329 . S
C255 H274 0.930 . S
C256 C252 1.415 . S
C256 C257 1.437 . S
C256 C260 1.413 . S
C257 C255 1.329 . S
C257 C256 1.437 . S
C257 H279 0.929 . S
N258 C252 1.369 . S
N258 C259 1.338 . S
N258 Gd263 2.622 1_565 S
C259 N258 1.338 . S
C259 C261 1.378 . S
C259 H271 0.929 . S
C260 C256 1.413 . S
C260 C261 1.348 . S
C260 H276 0.931 . S
C261 C259 1.378 . S
C261 C260 1.348 . S
C261 H277 0.930 . S
Gd262 N282 2.622 . S
Gd262 N289 2.570 . S
Gd262 O296 2.353 . S
Gd262 O297 2.468 . S
Gd262 O298 2.427 . S
Gd262 O300 2.388 . S
Gd262 O301 2.386 . S
Gd262 O305 2.307 . S
Gd262 C315 2.805 . S
Gd263 N258 2.622 1_545 S
Gd263 N264 2.570 . S
Gd263 O295 2.386 . S
Gd263 O299 2.307 . S
Gd263 O302 2.353 . S
Gd263 O303 2.468 . S
Gd263 O304 2.427 . S
Gd263 O306 2.388 . S
Gd263 C327 2.805 . S
N264 C254 1.359 . S
N264 Gd263 2.570 . S
N264 C266 1.343 . S
C265 C253 1.422 1_545 S
C265 C267 1.321 . S
C265 H273 0.931 . S
C266 N264 1.343 . S
C266 C267 1.390 . S
C266 H268 0.931 . S
C267 C265 1.321 . S
C267 C266 1.390 . S
C267 H269 0.930 . S
H268 C266 0.931 . S
H269 C267 0.930 . S
H270 C293 0.931 . S
H271 C259 0.929 . S
H272 C294 0.930 . S
H273 C265 0.931 . S
H274 C255 0.930 . S
H275 C284 0.929 . S
H276 C260 0.931 . S
H277 C261 0.930 . S
H278 C316 0.930 . S
H279 C257 0.929 . S
H280 C285 0.931 . S
H281 C286 0.930 . S
N282 Gd262 2.622 . S
N282 C283 1.369 . S
N282 C284 1.338 . S
C283 N282 1.369 . S
C283 C287 1.415 . S
C283 C290 1.422 . S
C284 H275 0.929 . S
C284 N282 1.338 . S
C284 C286 1.378 . S
C285 H280 0.931 . S
C285 C286 1.348 . S
C285 C287 1.413 . S
C286 H281 0.930 . S
C286 C284 1.378 . S
C286 C285 1.348 . S
C287 C283 1.415 . S
C287 C285 1.413 . S
C287 C317 1.437 . S
H288 C317 0.929 . S
N289 Gd262 2.570 . S
N289 C290 1.359 . S
N289 C293 1.343 . S
C290 C283 1.422 . S
C290 N289 1.359 . S
C290 C292 1.421 . S
C291 C292 1.422 . S
C291 C294 1.321 . S
C291 H318 0.931 . S
C292 C290 1.421 . S
C292 C291 1.422 . S
C292 C316 1.417 . S
C293 H270 0.931 . S
C293 N289 1.343 . S
C293 C294 1.390 . S
C294 H272 0.930 . S
C294 C291 1.321 . S
C294 C293 1.390 . S
O295 Gd263 2.386 . S
O295 C307 1.265 . S
O296 Gd262 2.353 . S
O296 C307 1.242 . S
O297 Gd262 2.468 . S
O297 C315 1.263 . S
O298 Gd262 2.427 . S
O298 C315 1.252 . S
O299 Gd263 2.307 . S
O299 C308 1.261 . S
O300 Gd262 2.388 . S
O300 C308 1.252 . S
O301 Gd262 2.386 . S
O301 C319 1.265 . S
O302 Gd263 2.353 . S
O302 C319 1.242 . S
O303 Gd263 2.468 . S
O303 C327 1.263 . S
O304 Gd263 2.427 . S
O304 C327 1.252 . S
O305 Gd262 2.307 . S
O305 C320 1.261 . S
O306 Gd263 2.388 . S
O306 C320 1.252 . S
C307 O295 1.265 . S
C307 O296 1.242 . S
C308 O299 1.261 . S
C308 O300 1.252 . S
C309 C312 1.394 . S
C309 C314 1.370 . S
C309 C315 1.500 . S
C310 C313 1.383 . S
C310 C314 1.395 . S
C311 C312 1.396 . S
C311 C313 1.365 . S
C311 H328 0.929 . S
C312 C309 1.394 . S
C312 C311 1.396 . S
C312 H329 0.930 . S
C313 C310 1.383 . S
C313 C311 1.365 . S
C313 H330 0.931 . S
C314 C309 1.370 . S
C314 C310 1.395 . S
C314 H331 0.930 . S
C315 Gd262 2.805 . S
C315 O297 1.263 . S
C315 O298 1.252 . S
C315 C309 1.500 . S
C316 H278 0.930 . S
C316 C292 1.417 . S
C316 C317 1.329 . S
C317 C287 1.437 . S
C317 H288 0.929 . S
C317 C316 1.329 . S
H318 C291 0.931 . S
C319 O301 1.265 . S
C319 O302 1.242 . S
C320 O305 1.261 . S
C320 O306 1.252 . S
C321 C324 1.394 . S
C321 C326 1.370 . S
C321 C327 1.500 . S
C322 C325 1.383 . S
C322 C326 1.395 . S
C323 C324 1.396 . S
C323 C325 1.365 . S
C323 H332 0.929 . S
C324 C321 1.394 . S
C324 C323 1.396 . S
C324 H333 0.930 . S
C325 C322 1.383 . S
C325 C323 1.365 . S
C325 H334 0.931 . S
C326 C321 1.370 . S
C326 C322 1.395 . S
C326 H335 0.930 . S
C327 Gd263 2.805 . S
C327 O303 1.263 . S
C327 O304 1.252 . S
C327 C321 1.500 . S
H328 C311 0.929 . S
H329 C312 0.930 . S
H330 C313 0.931 . S
H331 C314 0.930 . S
H332 C323 0.929 . S
H333 C324 0.930 . S
H334 C325 0.931 . S
H335 C326 0.930 . S
C336 C338 1.422 . S
C336 C340 1.415 . S
C336 N342 1.369 . S
C337 C338 1.421 . S
C337 C339 1.417 . S
C337 C349 1.422 . S
C338 C336 1.422 . S
C338 C337 1.421 . S
C338 N348 1.359 . S
C339 C337 1.417 . S
C339 C341 1.329 . S
C339 H358 0.930 . S
C340 C336 1.415 . S
C340 C341 1.437 . S
C340 C344 1.413 . S
C341 C339 1.329 . S
C341 C340 1.437 . S
C341 H363 0.929 . S
N342 C336 1.369 . S
N342 C343 1.338 . S
N342 Gd347 2.622 . S
C343 N342 1.338 . S
C343 C345 1.378 . S
C343 H355 0.929 . S
C344 C340 1.413 . S
C344 C345 1.348 . S
C344 H360 0.931 . S
C345 C343 1.378 . S
C345 C344 1.348 . S
C345 H361 0.930 . S
Gd346 N366 2.622 . S
Gd346 N373 2.570 . S
Gd346 O380 2.353 . S
Gd346 O381 2.468 . S
Gd346 O382 2.427 . S
Gd346 O384 2.388 . S
Gd346 O385 2.386 . S
Gd346 O389 2.307 . S
Gd346 C399 2.805 . S
Gd347 N342 2.622 . S
Gd347 N348 2.570 . S
Gd347 O379 2.386 . S
Gd347 O383 2.307 . S
Gd347 O386 2.353 . S
Gd347 O387 2.468 . S
Gd347 O388 2.427 . S
Gd347 O390 2.388 . S
Gd347 C411 2.805 . S
N348 C338 1.359 . S
N348 Gd347 2.570 . S
N348 C350 1.343 . S
C349 C337 1.422 . S
C349 C351 1.321 . S
C349 H357 0.931 . S
C350 N348 1.343 . S
C350 C351 1.390 . S
C350 H352 0.931 . S
C351 C349 1.321 . S
C351 C350 1.390 . S
C351 H353 0.930 . S
H352 C350 0.931 . S
H353 C351 0.930 . S
H354 C377 0.931 . S
H355 C343 0.929 . S
H356 C378 0.930 . S
H357 C349 0.931 . S
H358 C339 0.930 . S
H359 C368 0.929 . S
H360 C344 0.931 . S
H361 C345 0.930 . S
H362 C400 0.930 . S
H363 C341 0.929 . S
H364 C369 0.931 . S
H365 C370 0.930 . S
N366 Gd346 2.622 . S
N366 C367 1.369 . S
N366 C368 1.338 . S
C367 N366 1.369 . S
C367 C371 1.415 . S
C367 C374 1.422 . S
C368 H359 0.929 . S
C368 N366 1.338 . S
C368 C370 1.378 . S
C369 H364 0.931 . S
C369 C370 1.348 . S
C369 C371 1.413 . S
C370 H365 0.930 . S
C370 C368 1.378 . S
C370 C369 1.348 . S
C371 C367 1.415 . S
C371 C369 1.413 . S
C371 C401 1.437 . S
H372 C401 0.929 . S
N373 Gd346 2.570 . S
N373 C374 1.359 . S
N373 C377 1.343 . S
C374 C367 1.422 . S
C374 N373 1.359 . S
C374 C376 1.421 . S
C375 C376 1.422 . S
C375 C378 1.321 . S
C375 H402 0.931 . S
C376 C374 1.421 . S
C376 C375 1.422 . S
C376 C400 1.417 . S
C377 H354 0.931 . S
C377 N373 1.343 . S
C377 C378 1.390 . S
C378 H356 0.930 . S
C378 C375 1.321 . S
C378 C377 1.390 . S
O379 Gd347 2.386 . S
O379 C391 1.265 . S
O380 Gd346 2.353 . S
O380 C391 1.242 . S
O381 Gd346 2.468 . S
O381 C399 1.263 . S
O382 Gd346 2.427 . S
O382 C399 1.252 . S
O383 Gd347 2.307 . S
O383 C392 1.261 . S
O384 Gd346 2.388 . S
O384 C392 1.252 . S
O385 Gd346 2.386 . S
O385 C403 1.265 . S
O386 Gd347 2.353 . S
O386 C403 1.242 . S
O387 Gd347 2.468 . S
O387 C411 1.263 . S
O388 Gd347 2.427 . S
O388 C411 1.252 . S
O389 Gd346 2.307 . S
O389 C404 1.261 . S
O390 Gd347 2.388 . S
O390 C404 1.252 . S
C391 O379 1.265 . S
C391 O380 1.242 . S
C392 O383 1.261 . S
C392 O384 1.252 . S
C393 C396 1.394 . S
C393 C398 1.370 . S
C393 C399 1.500 . S
C394 C397 1.383 . S
C394 C398 1.395 . S
C395 C396 1.396 . S
C395 C397 1.365 . S
C395 H412 0.929 . S
C396 C393 1.394 . S
C396 C395 1.396 . S
C396 H413 0.930 . S
C397 C394 1.383 . S
C397 C395 1.365 . S
C397 H414 0.931 . S
C398 C393 1.370 . S
C398 C394 1.395 . S
C398 H415 0.930 . S
C399 Gd346 2.805 . S
C399 O381 1.263 . S
C399 O382 1.252 . S
C399 C393 1.500 . S
C400 H362 0.930 . S
C400 C376 1.417 . S
C400 C401 1.329 . S
C401 C371 1.437 . S
C401 H372 0.929 . S
C401 C400 1.329 . S
H402 C375 0.931 . S
C403 O385 1.265 . S
C403 O386 1.242 . S
C404 O389 1.261 . S
C404 O390 1.252 . S
C405 C408 1.394 . S
C405 C410 1.370 . S
C405 C411 1.500 . S
C406 C409 1.383 . S
C406 C410 1.395 . S
C407 C408 1.396 . S
C407 C409 1.365 . S
C407 H416 0.929 . S
C408 C405 1.394 . S
C408 C407 1.396 . S
C408 H417 0.930 . S
C409 C406 1.383 . S
C409 C407 1.365 . S
C409 H418 0.931 . S
C410 C405 1.370 . S
C410 C406 1.395 . S
C410 H419 0.930 . S
C411 Gd347 2.805 . S
C411 O387 1.263 . S
C411 O388 1.252 . S
C411 C405 1.500 . S
H412 C395 0.929 . S
H413 C396 0.930 . S
H414 C397 0.931 . S
H415 C398 0.930 . S
H416 C407 0.929 . S
H417 C408 0.930 . S
H418 C409 0.931 . S
H419 C410 0.930 . S
C420 C422 1.422 1_545 S
C420 C424 1.415 . S
C420 N426 1.369 . S
C421 C422 1.421 1_545 S
C421 C423 1.417 . S
C421 C433 1.422 1_545 S
C422 C420 1.422 1_565 S
C422 C421 1.421 1_565 S
C422 N432 1.359 . S
C423 C421 1.417 . S
C423 C425 1.329 . S
C423 H442 0.930 . S
C424 C420 1.415 . S
C424 C425 1.437 . S
C424 C428 1.413 . S
C425 C423 1.329 . S
C425 C424 1.437 . S
C425 H447 0.929 . S
N426 C420 1.369 . S
N426 C427 1.338 . S
N426 Gd431 2.622 1_545 S
C427 N426 1.338 . S
C427 C429 1.378 . S
C427 H439 0.929 . S
C428 C424 1.413 . S
C428 C429 1.348 . S
C428 H444 0.931 . S
C429 C427 1.378 . S
C429 C428 1.348 . S
C429 H445 0.930 . S
Gd430 N450 2.622 . S
Gd430 N457 2.570 . S
Gd430 O464 2.353 . S
Gd430 O465 2.468 . S
Gd430 O466 2.427 . S
Gd430 O468 2.388 . S
Gd430 O469 2.386 . S
Gd430 O473 2.307 . S
Gd430 C483 2.805 . S
Gd431 N426 2.622 1_565 S
Gd431 N432 2.570 . S
Gd431 O463 2.386 . S
Gd431 O467 2.307 . S
Gd431 O470 2.353 . S
Gd431 O471 2.468 . S
Gd431 O472 2.427 . S
Gd431 O474 2.388 . S
Gd431 C495 2.805 . S
N432 C422 1.359 . S
N432 Gd431 2.570 . S
N432 C434 1.343 . S
C433 C421 1.422 1_565 S
C433 C435 1.321 . S
C433 H441 0.931 . S
C434 N432 1.343 . S
C434 C435 1.390 . S
C434 H436 0.931 . S
C435 C433 1.321 . S
C435 C434 1.390 . S
C435 H437 0.930 . S
H436 C434 0.931 . S
H437 C435 0.930 . S
H438 C461 0.931 . S
H439 C427 0.929 . S
H440 C462 0.930 . S
H441 C433 0.931 . S
H442 C423 0.930 . S
H443 C452 0.929 . S
H444 C428 0.931 . S
H445 C429 0.930 . S
H446 C484 0.930 . S
H447 C425 0.929 . S
H448 C453 0.931 . S
H449 C454 0.930 . S
N450 Gd430 2.622 . S
N450 C451 1.369 . S
N450 C452 1.338 . S
C451 N450 1.369 . S
C451 C455 1.415 . S
C451 C458 1.422 . S
C452 H443 0.929 . S
C452 N450 1.338 . S
C452 C454 1.378 . S
C453 H448 0.931 . S
C453 C454 1.348 . S
C453 C455 1.413 . S
C454 H449 0.930 . S
C454 C452 1.378 . S
C454 C453 1.348 . S
C455 C451 1.415 . S
C455 C453 1.413 . S
C455 C485 1.437 . S
H456 C485 0.929 . S
N457 Gd430 2.570 . S
N457 C458 1.359 . S
N457 C461 1.343 . S
C458 C451 1.422 . S
C458 N457 1.359 . S
C458 C460 1.421 . S
C459 C460 1.422 . S
C459 C462 1.321 . S
C459 H486 0.931 . S
C460 C458 1.421 . S
C460 C459 1.422 . S
C460 C484 1.417 . S
C461 H438 0.931 . S
C461 N457 1.343 . S
C461 C462 1.390 . S
C462 H440 0.930 . S
C462 C459 1.321 . S
C462 C461 1.390 . S
O463 Gd431 2.386 . S
O463 C475 1.265 . S
O464 Gd430 2.353 . S
O464 C475 1.242 . S
O465 Gd430 2.468 . S
O465 C483 1.263 . S
O466 Gd430 2.427 . S
O466 C483 1.252 . S
O467 Gd431 2.307 . S
O467 C476 1.261 . S
O468 Gd430 2.388 . S
O468 C476 1.252 . S
O469 Gd430 2.386 . S
O469 C487 1.265 . S
O470 Gd431 2.353 . S
O470 C487 1.242 . S
O471 Gd431 2.468 . S
O471 C495 1.263 . S
O472 Gd431 2.427 . S
O472 C495 1.252 . S
O473 Gd430 2.307 . S
O473 C488 1.261 . S
O474 Gd431 2.388 . S
O474 C488 1.252 . S
C475 O463 1.265 . S
C475 O464 1.242 . S
C476 O467 1.261 . S
C476 O468 1.252 . S
C477 C480 1.394 . S
C477 C482 1.370 . S
C477 C483 1.500 . S
C478 C481 1.383 . S
C478 C482 1.395 . S
C479 C480 1.396 . S
C479 C481 1.365 . S
C479 H496 0.929 . S
C480 C477 1.394 . S
C480 C479 1.396 . S
C480 H497 0.930 . S
C481 C478 1.383 . S
C481 C479 1.365 . S
C481 H498 0.931 . S
C482 C477 1.370 . S
C482 C478 1.395 . S
C482 H499 0.930 . S
C483 Gd430 2.805 . S
C483 O465 1.263 . S
C483 O466 1.252 . S
C483 C477 1.500 . S
C484 H446 0.930 . S
C484 C460 1.417 . S
C484 C485 1.329 . S
C485 C455 1.437 . S
C485 H456 0.929 . S
C485 C484 1.329 . S
H486 C459 0.931 . S
C487 O469 1.265 . S
C487 O470 1.242 . S
C488 O473 1.261 . S
C488 O474 1.252 . S
C489 C492 1.394 . S
C489 C494 1.370 . S
C489 C495 1.500 . S
C490 C493 1.383 . S
C490 C494 1.395 . S
C491 C492 1.396 . S
C491 C493 1.365 . S
C491 H500 0.929 . S
C492 C489 1.394 . S
C492 C491 1.396 . S
C492 H501 0.930 . S
C493 C490 1.383 . S
C493 C491 1.365 . S
C493 H502 0.931 . S
C494 C489 1.370 . S
C494 C490 1.395 . S
C494 H503 0.930 . S
C495 Gd431 2.805 . S
C495 O471 1.263 . S
C495 O472 1.252 . S
C495 C489 1.500 . S
H496 C479 0.929 . S
H497 C480 0.930 . S
H498 C481 0.931 . S
H499 C482 0.930 . S
H500 C491 0.929 . S
H501 C492 0.930 . S
H502 C493 0.931 . S
H503 C494 0.930 . S
C504 C506 1.422 . S
C504 C508 1.415 . S
C504 N510 1.369 . S
C505 C506 1.421 . S
C505 C507 1.417 . S
C505 C517 1.422 . S
C506 C504 1.422 . S
C506 C505 1.421 . S
C506 N516 1.359 . S
C507 C505 1.417 . S
C507 C509 1.329 . S
C507 H526 0.930 . S
C508 C504 1.415 . S
C508 C509 1.437 . S
C508 C512 1.413 . S
C509 C507 1.329 . S
C509 C508 1.437 . S
C509 H531 0.929 . S
N510 C504 1.369 . S
N510 C511 1.338 . S
N510 Gd515 2.622 . S
C511 N510 1.338 . S
C511 C513 1.378 . S
C511 H523 0.929 . S
C512 C508 1.413 . S
C512 C513 1.348 . S
C512 H528 0.931 . S
C513 C511 1.378 . S
C513 C512 1.348 . S
C513 H529 0.930 . S
Gd514 N534 2.622 . S
Gd514 N541 2.570 . S
Gd514 O548 2.353 . S
Gd514 O549 2.468 . S
Gd514 O550 2.427 . S
Gd514 O552 2.388 . S
Gd514 O553 2.386 . S
Gd514 O557 2.307 . S
Gd514 C567 2.805 . S
Gd515 N510 2.622 . S
Gd515 N516 2.570 . S
Gd515 O547 2.386 . S
Gd515 O551 2.307 . S
Gd515 O554 2.353 . S
Gd515 O555 2.468 . S
Gd515 O556 2.427 . S
Gd515 O558 2.388 . S
Gd515 C579 2.805 . S
N516 C506 1.359 . S
N516 Gd515 2.570 . S
N516 C518 1.343 . S
C517 C505 1.422 . S
C517 C519 1.321 . S
C517 H525 0.931 . S
C518 N516 1.343 . S
C518 C519 1.390 . S
C518 H520 0.931 . S
C519 C517 1.321 . S
C519 C518 1.390 . S
C519 H521 0.930 . S
H520 C518 0.931 . S
H521 C519 0.930 . S
H522 C545 0.931 . S
H523 C511 0.929 . S
H524 C546 0.930 . S
H525 C517 0.931 . S
H526 C507 0.930 . S
H527 C536 0.929 . S
H528 C512 0.931 . S
H529 C513 0.930 . S
H530 C568 0.930 . S
H531 C509 0.929 . S
H532 C537 0.931 . S
H533 C538 0.930 . S
N534 Gd514 2.622 . S
N534 C535 1.369 . S
N534 C536 1.338 . S
C535 N534 1.369 . S
C535 C539 1.415 . S
C535 C542 1.422 . S
C536 H527 0.929 . S
C536 N534 1.338 . S
C536 C538 1.378 . S
C537 H532 0.931 . S
C537 C538 1.348 . S
C537 C539 1.413 . S
C538 H533 0.930 . S
C538 C536 1.378 . S
C538 C537 1.348 . S
C539 C535 1.415 . S
C539 C537 1.413 . S
C539 C569 1.437 . S
H540 C569 0.929 . S
N541 Gd514 2.570 . S
N541 C542 1.359 . S
N541 C545 1.343 . S
C542 C535 1.422 . S
C542 N541 1.359 . S
C542 C544 1.421 . S
C543 C544 1.422 . S
C543 C546 1.321 . S
C543 H570 0.931 . S
C544 C542 1.421 . S
C544 C543 1.422 . S
C544 C568 1.417 . S
C545 H522 0.931 . S
C545 N541 1.343 . S
C545 C546 1.390 . S
C546 H524 0.930 . S
C546 C543 1.321 . S
C546 C545 1.390 . S
O547 Gd515 2.386 . S
O547 C559 1.265 . S
O548 Gd514 2.353 . S
O548 C559 1.242 . S
O549 Gd514 2.468 . S
O549 C567 1.263 . S
O550 Gd514 2.427 . S
O550 C567 1.252 . S
O551 Gd515 2.307 . S
O551 C560 1.261 . S
O552 Gd514 2.388 . S
O552 C560 1.252 . S
O553 Gd514 2.386 . S
O553 C571 1.265 . S
O554 Gd515 2.353 . S
O554 C571 1.242 . S
O555 Gd515 2.468 . S
O555 C579 1.263 . S
O556 Gd515 2.427 . S
O556 C579 1.252 . S
O557 Gd514 2.307 . S
O557 C572 1.261 . S
O558 Gd515 2.388 . S
O558 C572 1.252 . S
C559 O547 1.265 . S
C559 O548 1.242 . S
C560 O551 1.261 . S
C560 O552 1.252 . S
C561 C564 1.394 . S
C561 C566 1.370 . S
C561 C567 1.500 . S
C562 C565 1.383 . S
C562 C566 1.395 . S
C563 C564 1.396 . S
C563 C565 1.365 . S
C563 H580 0.929 . S
C564 C561 1.394 . S
C564 C563 1.396 . S
C564 H581 0.930 . S
C565 C562 1.383 . S
C565 C563 1.365 . S
C565 H582 0.931 . S
C566 C561 1.370 . S
C566 C562 1.395 . S
C566 H583 0.930 . S
C567 Gd514 2.805 . S
C567 O549 1.263 . S
C567 O550 1.252 . S
C567 C561 1.500 . S
C568 H530 0.930 . S
C568 C544 1.417 . S
C568 C569 1.329 . S
C569 C539 1.437 . S
C569 H540 0.929 . S
C569 C568 1.329 . S
H570 C543 0.931 . S
C571 O553 1.265 . S
C571 O554 1.242 . S
C572 O557 1.261 . S
C572 O558 1.252 . S
C573 C576 1.394 . S
C573 C578 1.370 . S
C573 C579 1.500 . S
C574 C577 1.383 . S
C574 C578 1.395 . S
C575 C576 1.396 . S
C575 C577 1.365 . S
C575 H584 0.929 . S
C576 C573 1.394 . S
C576 C575 1.396 . S
C576 H585 0.930 . S
C577 C574 1.383 . S
C577 C575 1.365 . S
C577 H586 0.931 . S
C578 C573 1.370 . S
C578 C574 1.395 . S
C578 H587 0.930 . S
C579 Gd515 2.805 . S
C579 O555 1.263 . S
C579 O556 1.252 . S
C579 C573 1.500 . S
H580 C563 0.929 . S
H581 C564 0.930 . S
H582 C565 0.931 . S
H583 C566 0.930 . S
H584 C575 0.929 . S
H585 C576 0.930 . S
H586 C577 0.931 . S
H587 C578 0.930 . S
C588 C590 1.422 1_565 S
C588 C592 1.415 . S
C588 N594 1.369 . S
C589 C590 1.421 1_565 S
C589 C591 1.417 . S
C589 C601 1.422 1_565 S
C590 C588 1.422 1_545 S
C590 C589 1.421 1_545 S
C590 N600 1.359 . S
C591 C589 1.417 . S
C591 C593 1.329 . S
C591 H610 0.930 . S
C592 C588 1.415 . S
C592 C593 1.437 . S
C592 C596 1.413 . S
C593 C591 1.329 . S
C593 C592 1.437 . S
C593 H615 0.929 . S
N594 C588 1.369 . S
N594 C595 1.338 1_655 S
N594 Gd599 2.622 1_665 S
C595 N594 1.338 1_455 S
C595 C597 1.378 . S
C595 H607 0.929 . S
C596 C592 1.413 . S
C596 C597 1.348 1_655 S
C596 H612 0.931 . S
C597 C595 1.378 . S
C597 C596 1.348 1_455 S
C597 H613 0.930 . S
Gd598 N618 2.622 . S
Gd598 N625 2.570 . S
Gd598 O632 2.353 . S
Gd598 O633 2.468 . S
Gd598 O634 2.427 . S
Gd598 O636 2.388 . S
Gd598 O637 2.386 . S
Gd598 O641 2.307 . S
Gd598 C651 2.805 . S
Gd599 N594 2.622 1_445 S
Gd599 N600 2.570 1_455 S
Gd599 O631 2.386 . S
Gd599 O635 2.307 . S
Gd599 O638 2.353 . S
Gd599 O639 2.468 1_455 S
Gd599 O640 2.427 1_455 S
Gd599 O642 2.388 . S
Gd599 C663 2.805 1_455 S
N600 C590 1.359 . S
N600 Gd599 2.570 1_655 S
N600 C602 1.343 . S
C601 C589 1.422 1_545 S
C601 C603 1.321 . S
C601 H609 0.931 . S
C602 N600 1.343 . S
C602 C603 1.390 . S
C602 H604 0.931 . S
C603 C601 1.321 . S
C603 C602 1.390 . S
C603 H605 0.930 . S
H604 C602 0.931 . S
H605 C603 0.930 . S
H606 C629 0.931 . S
H607 C595 0.929 . S
H608 C630 0.930 . S
H609 C601 0.931 . S
H610 C591 0.930 . S
H611 C620 0.929 . S
H612 C596 0.931 . S
H613 C597 0.930 . S
H614 C652 0.930 . S
H615 C593 0.929 . S
H616 C621 0.931 . S
H617 C622 0.930 . S
N618 Gd598 2.622 . S
N618 C619 1.369 . S
N618 C620 1.338 . S
C619 N618 1.369 . S
C619 C623 1.415 . S
C619 C626 1.422 . S
C620 H611 0.929 . S
C620 N618 1.338 . S
C620 C622 1.378 . S
C621 H616 0.931 . S
C621 C622 1.348 . S
C621 C623 1.413 . S
C622 H617 0.930 . S
C622 C620 1.378 . S
C622 C621 1.348 . S
C623 C619 1.415 . S
C623 C621 1.413 . S
C623 C653 1.437 . S
H624 C653 0.929 . S
N625 Gd598 2.570 . S
N625 C626 1.359 . S
N625 C629 1.343 . S
C626 C619 1.422 . S
C626 N625 1.359 . S
C626 C628 1.421 . S
C627 C628 1.422 . S
C627 C630 1.321 . S
C627 H654 0.931 . S
C628 C626 1.421 . S
C628 C627 1.422 . S
C628 C652 1.417 . S
C629 H606 0.931 . S
C629 N625 1.343 . S
C629 C630 1.390 . S
C630 H608 0.930 . S
C630 C627 1.321 . S
C630 C629 1.390 . S
O631 Gd599 2.386 . S
O631 C643 1.265 . S
O632 Gd598 2.353 . S
O632 C643 1.242 . S
O633 Gd598 2.468 . S
O633 C651 1.263 . S
O634 Gd598 2.427 . S
O634 C651 1.252 . S
O635 Gd599 2.307 . S
O635 C644 1.261 . S
O636 Gd598 2.388 . S
O636 C644 1.252 . S
O637 Gd598 2.386 . S
O637 C655 1.265 . S
O638 Gd599 2.353 . S
O638 C655 1.242 . S
O639 Gd599 2.468 1_655 S
O639 C663 1.263 . S
O640 Gd599 2.427 1_655 S
O640 C663 1.252 . S
O641 Gd598 2.307 . S
O641 C656 1.261 . S
O642 Gd599 2.388 . S
O642 C656 1.252 . S
C643 O631 1.265 . S
C643 O632 1.242 . S
C644 O635 1.261 . S
C644 O636 1.252 . S
C645 C648 1.394 . S
C645 C650 1.370 . S
C645 C651 1.500 . S
C646 C649 1.383 . S
C646 C650 1.395 . S
C647 C648 1.396 . S
C647 C649 1.365 . S
C647 H664 0.929 . S
C648 C645 1.394 . S
C648 C647 1.396 . S
C648 H665 0.930 . S
C649 C646 1.383 . S
C649 C647 1.365 . S
C649 H666 0.931 . S
C650 C645 1.370 . S
C650 C646 1.395 . S
C650 H667 0.930 . S
C651 Gd598 2.805 . S
C651 O633 1.263 . S
C651 O634 1.252 . S
C651 C645 1.500 . S
C652 H614 0.930 . S
C652 C628 1.417 . S
C652 C653 1.329 . S
C653 C623 1.437 . S
C653 H624 0.929 . S
C653 C652 1.329 . S
H654 C627 0.931 . S
C655 O637 1.265 . S
C655 O638 1.242 . S
C656 O641 1.261 . S
C656 O642 1.252 . S
C657 C660 1.394 . S
C657 C662 1.370 . S
C657 C663 1.500 . S
C658 C661 1.383 . S
C658 C662 1.395 . S
C659 C660 1.396 . S
C659 C661 1.365 . S
C659 H668 0.929 . S
C660 C657 1.394 . S
C660 C659 1.396 . S
C660 H669 0.930 . S
C661 C658 1.383 . S
C661 C659 1.365 . S
C661 H670 0.931 . S
C662 C657 1.370 . S
C662 C658 1.395 . S
C662 H671 0.930 . S
C663 Gd599 2.805 1_655 S
C663 O639 1.263 . S
C663 O640 1.252 . S
C663 C657 1.500 . S
H664 C647 0.929 . S
H665 C648 0.930 . S
H666 C649 0.931 . S
H667 C650 0.930 . S
H668 C659 0.929 . S
H669 C660 0.930 . S
H670 C661 0.931 . S
H671 C662 0.930 . S
C672 C674 1.422 . S
C672 C676 1.415 . S
C672 N678 1.369 . S
C673 C674 1.421 . S
C673 C675 1.417 . S
C673 C685 1.422 . S
C674 C672 1.422 . S
C674 C673 1.421 . S
C674 N684 1.359 . S
C675 C673 1.417 . S
C675 C677 1.329 . S
C675 H694 0.930 . S
C676 C672 1.415 . S
C676 C677 1.437 . S
C676 C680 1.413 . S
C677 C675 1.329 . S
C677 C676 1.437 . S
C677 H699 0.929 . S
N678 C672 1.369 . S
N678 C679 1.338 . S
N678 Gd683 2.622 . S
C679 N678 1.338 . S
C679 C681 1.378 . S
C679 H691 0.929 . S
C680 C676 1.413 . S
C680 C681 1.348 . S
C680 H696 0.931 . S
C681 C679 1.378 . S
C681 C680 1.348 . S
C681 H697 0.930 . S
Gd682 N702 2.622 . S
Gd682 N709 2.570 . S
Gd682 O716 2.353 . S
Gd682 O717 2.468 . S
Gd682 O718 2.427 . S
Gd682 O720 2.388 . S
Gd682 O721 2.386 . S
Gd682 O725 2.307 . S
Gd682 C735 2.805 . S
Gd683 N678 2.622 . S
Gd683 N684 2.570 . S
Gd683 O715 2.386 . S
Gd683 O719 2.307 . S
Gd683 O722 2.353 . S
Gd683 O723 2.468 . S
Gd683 O724 2.427 . S
Gd683 O726 2.388 . S
Gd683 C747 2.805 . S
N684 C674 1.359 . S
N684 Gd683 2.570 . S
N684 C686 1.343 . S
C685 C673 1.422 . S
C685 C687 1.321 . S
C685 H693 0.931 . S
C686 N684 1.343 . S
C686 C687 1.390 . S
C686 H688 0.931 . S
C687 C685 1.321 . S
C687 C686 1.390 . S
C687 H689 0.930 . S
H688 C686 0.931 . S
H689 C687 0.930 . S
H690 C713 0.931 . S
H691 C679 0.929 . S
H692 C714 0.930 . S
H693 C685 0.931 . S
H694 C675 0.930 . S
H695 C704 0.929 . S
H696 C680 0.931 . S
H697 C681 0.930 . S
H698 C736 0.930 . S
H699 C677 0.929 . S
H700 C705 0.931 . S
H701 C706 0.930 . S
N702 Gd682 2.622 . S
N702 C703 1.369 . S
N702 C704 1.338 . S
C703 N702 1.369 . S
C703 C707 1.415 . S
C703 C710 1.422 . S
C704 H695 0.929 . S
C704 N702 1.338 . S
C704 C706 1.378 . S
C705 H700 0.931 . S
C705 C706 1.348 . S
C705 C707 1.413 . S
C706 H701 0.930 . S
C706 C704 1.378 . S
C706 C705 1.348 . S
C707 C703 1.415 . S
C707 C705 1.413 . S
C707 C737 1.437 . S
H708 C737 0.929 . S
N709 Gd682 2.570 . S
N709 C710 1.359 . S
N709 C713 1.343 . S
C710 C703 1.422 . S
C710 N709 1.359 . S
C710 C712 1.421 . S
C711 C712 1.422 . S
C711 C714 1.321 . S
C711 H738 0.931 . S
C712 C710 1.421 . S
C712 C711 1.422 . S
C712 C736 1.417 . S
C713 H690 0.931 . S
C713 N709 1.343 . S
C713 C714 1.390 . S
C714 H692 0.930 . S
C714 C711 1.321 . S
C714 C713 1.390 . S
O715 Gd683 2.386 . S
O715 C727 1.265 . S
O716 Gd682 2.353 . S
O716 C727 1.242 . S
O717 Gd682 2.468 . S
O717 C735 1.263 . S
O718 Gd682 2.427 . S
O718 C735 1.252 . S
O719 Gd683 2.307 . S
O719 C728 1.261 . S
O720 Gd682 2.388 . S
O720 C728 1.252 . S
O721 Gd682 2.386 . S
O721 C739 1.265 . S
O722 Gd683 2.353 . S
O722 C739 1.242 . S
O723 Gd683 2.468 . S
O723 C747 1.263 . S
O724 Gd683 2.427 . S
O724 C747 1.252 . S
O725 Gd682 2.307 . S
O725 C740 1.261 . S
O726 Gd683 2.388 . S
O726 C740 1.252 . S
C727 O715 1.265 . S
C727 O716 1.242 . S
C728 O719 1.261 . S
C728 O720 1.252 . S
C729 C732 1.394 . S
C729 C734 1.370 . S
C729 C735 1.500 . S
C730 C733 1.383 . S
C730 C734 1.395 . S
C731 C732 1.396 . S
C731 C733 1.365 . S
C731 H748 0.929 . S
C732 C729 1.394 . S
C732 C731 1.396 . S
C732 H749 0.930 . S
C733 C730 1.383 . S
C733 C731 1.365 . S
C733 H750 0.931 . S
C734 C729 1.370 . S
C734 C730 1.395 . S
C734 H751 0.930 . S
C735 Gd682 2.805 . S
C735 O717 1.263 . S
C735 O718 1.252 . S
C735 C729 1.500 . S
C736 H698 0.930 . S
C736 C712 1.417 . S
C736 C737 1.329 . S
C737 C707 1.437 . S
C737 H708 0.929 . S
C737 C736 1.329 . S
H738 C711 0.931 . S
C739 O721 1.265 . S
C739 O722 1.242 . S
C740 O725 1.261 . S
C740 O726 1.252 . S
C741 C744 1.394 . S
C741 C746 1.370 . S
C741 C747 1.500 . S
C742 C745 1.383 . S
C742 C746 1.395 . S
C743 C744 1.396 . S
C743 C745 1.365 . S
C743 H752 0.929 . S
C744 C741 1.394 . S
C744 C743 1.396 . S
C744 H753 0.930 . S
C745 C742 1.383 . S
C745 C743 1.365 . S
C745 H754 0.931 . S
C746 C741 1.370 . S
C746 C742 1.395 . S
C746 H755 0.930 . S
C747 Gd683 2.805 . S
C747 O723 1.263 . S
C747 O724 1.252 . S
C747 C741 1.500 . S
H748 C731 0.929 . S
H749 C732 0.930 . S
H750 C733 0.931 . S
H751 C734 0.930 . S
H752 C743 0.929 . S
H753 C744 0.930 . S
H754 C745 0.931 . S
H755 C746 0.930 . S
C756 C758 1.422 . S
C756 C760 1.415 . S
C756 N762 1.369 . S
C757 C758 1.421 . S
C757 C759 1.417 . S
C757 C769 1.422 . S
C758 C756 1.422 . S
C758 C757 1.421 . S
C758 N768 1.359 . S
C759 C757 1.417 . S
C759 C761 1.329 . S
C759 H778 0.930 . S
C760 C756 1.415 . S
C760 C761 1.437 . S
C760 C764 1.413 . S
C761 C759 1.329 . S
C761 C760 1.437 . S
C761 H783 0.929 . S
N762 C756 1.369 . S
N762 C763 1.338 . S
N762 Gd767 2.622 . S
C763 N762 1.338 . S
C763 C765 1.378 . S
C763 H775 0.929 . S
C764 C760 1.413 . S
C764 C765 1.348 . S
C764 H780 0.931 . S
C765 C763 1.378 . S
C765 C764 1.348 . S
C765 H781 0.930 . S
Gd766 N786 2.622 1_645 S
Gd766 N793 2.570 1_655 S
Gd766 O800 2.353 . S
Gd766 O801 2.468 1_655 S
Gd766 O802 2.427 1_655 S
Gd766 O804 2.388 . S
Gd766 O805 2.386 . S
Gd766 O809 2.307 . S
Gd766 C819 2.805 1_655 S
Gd767 N762 2.622 . S
Gd767 N768 2.570 . S
Gd767 O799 2.386 . S
Gd767 O803 2.307 . S
Gd767 O806 2.353 . S
Gd767 O807 2.468 . S
Gd767 O808 2.427 . S
Gd767 O810 2.388 . S
Gd767 C831 2.805 . S
N768 C758 1.359 . S
N768 Gd767 2.570 . S
N768 C770 1.343 . S
C769 C757 1.422 . S
C769 C771 1.321 . S
C769 H777 0.931 . S
C770 N768 1.343 . S
C770 C771 1.390 . S
C770 H772 0.931 . S
C771 C769 1.321 . S
C771 C770 1.390 . S
C771 H773 0.930 . S
H772 C770 0.931 . S
H773 C771 0.930 . S
H774 C797 0.931 . S
H775 C763 0.929 . S
H776 C798 0.930 . S
H777 C769 0.931 . S
H778 C759 0.930 . S
H779 C788 0.929 . S
H780 C764 0.931 . S
H781 C765 0.930 . S
H782 C820 0.930 . S
H783 C761 0.929 . S
H784 C789 0.931 . S
H785 C790 0.930 . S
N786 Gd766 2.622 1_465 S
N786 C787 1.369 . S
N786 C788 1.338 1_455 S
C787 N786 1.369 . S
C787 C791 1.415 . S
C787 C794 1.422 1_565 S
C788 H779 0.929 . S
C788 N786 1.338 1_655 S
C788 C790 1.378 . S
C789 H784 0.931 . S
C789 C790 1.348 1_455 S
C789 C791 1.413 . S
C790 H785 0.930 . S
C790 C788 1.378 . S
C790 C789 1.348 1_655 S
C791 C787 1.415 . S
C791 C789 1.413 . S
C791 C821 1.437 . S
H792 C821 0.929 . S
N793 Gd766 2.570 1_455 S
N793 C794 1.359 . S
N793 C797 1.343 . S
C794 C787 1.422 1_545 S
C794 N793 1.359 . S
C794 C796 1.421 1_545 S
C795 C796 1.422 1_545 S
C795 C798 1.321 . S
C795 H822 0.931 . S
C796 C794 1.421 1_565 S
C796 C795 1.422 1_565 S
C796 C820 1.417 . S
C797 H774 0.931 . S
C797 N793 1.343 . S
C797 C798 1.390 . S
C798 H776 0.930 . S
C798 C795 1.321 . S
C798 C797 1.390 . S
O799 Gd767 2.386 . S
O799 C811 1.265 . S
O800 Gd766 2.353 . S
O800 C811 1.242 . S
O801 Gd766 2.468 1_455 S
O801 C819 1.263 . S
O802 Gd766 2.427 1_455 S
O802 C819 1.252 . S
O803 Gd767 2.307 . S
O803 C812 1.261 . S
O804 Gd766 2.388 . S
O804 C812 1.252 . S
O805 Gd766 2.386 . S
O805 C823 1.265 . S
O806 Gd767 2.353 . S
O806 C823 1.242 . S
O807 Gd767 2.468 . S
O807 C831 1.263 . S
O808 Gd767 2.427 . S
O808 C831 1.252 . S
O809 Gd766 2.307 . S
O809 C824 1.261 . S
O810 Gd767 2.388 . S
O810 C824 1.252 . S
C811 O799 1.265 . S
C811 O800 1.242 . S
C812 O803 1.261 . S
C812 O804 1.252 . S
C813 C816 1.394 . S
C813 C818 1.370 . S
C813 C819 1.500 . S
C814 C817 1.383 . S
C814 C818 1.395 . S
C815 C816 1.396 . S
C815 C817 1.365 . S
C815 H832 0.929 . S
C816 C813 1.394 . S
C816 C815 1.396 . S
C816 H833 0.930 . S
C817 C814 1.383 . S
C817 C815 1.365 . S
C817 H834 0.931 . S
C818 C813 1.370 . S
C818 C814 1.395 . S
C818 H835 0.930 . S
C819 Gd766 2.805 1_455 S
C819 O801 1.263 . S
C819 O802 1.252 . S
C819 C813 1.500 . S
C820 H782 0.930 . S
C820 C796 1.417 . S
C820 C821 1.329 . S
C821 C791 1.437 . S
C821 H792 0.929 . S
C821 C820 1.329 . S
H822 C795 0.931 . S
C823 O805 1.265 . S
C823 O806 1.242 . S
C824 O809 1.261 . S
C824 O810 1.252 . S
C825 C828 1.394 . S
C825 C830 1.370 . S
C825 C831 1.500 . S
C826 C829 1.383 . S
C826 C830 1.395 . S
C827 C828 1.396 . S
C827 C829 1.365 . S
C827 H836 0.929 . S
C828 C825 1.394 . S
C828 C827 1.396 . S
C828 H837 0.930 . S
C829 C826 1.383 . S
C829 C827 1.365 . S
C829 H838 0.931 . S
C830 C825 1.370 . S
C830 C826 1.395 . S
C830 H839 0.930 . S
C831 Gd767 2.805 . S
C831 O807 1.263 . S
C831 O808 1.252 . S
C831 C825 1.500 . S
H832 C815 0.929 . S
H833 C816 0.930 . S
H834 C817 0.931 . S
H835 C818 0.930 . S
H836 C827 0.929 . S
H837 C828 0.930 . S
H838 C829 0.931 . S
H839 C830 0.930 . S
C840 C842 1.422 . S
C840 C844 1.415 . S
C840 N846 1.369 . S
C841 C842 1.421 . S
C841 C843 1.417 . S
C841 C853 1.422 . S
C842 C840 1.422 . S
C842 C841 1.421 . S
C842 N852 1.359 . S
C843 C841 1.417 . S
C843 C845 1.329 . S
C843 H862 0.930 . S
C844 C840 1.415 . S
C844 C845 1.437 . S
C844 C848 1.413 . S
C845 C843 1.329 . S
C845 C844 1.437 . S
C845 H867 0.929 . S
N846 C840 1.369 . S
N846 C847 1.338 . S
N846 Gd851 2.622 . S
C847 N846 1.338 . S
C847 C849 1.378 . S
C847 H859 0.929 . S
C848 C844 1.413 . S
C848 C849 1.348 . S
C848 H864 0.931 . S
C849 C847 1.378 . S
C849 C848 1.348 . S
C849 H865 0.930 . S
Gd850 N870 2.622 . S
Gd850 N877 2.570 . S
Gd850 O884 2.353 . S
Gd850 O885 2.468 . S
Gd850 O886 2.427 . S
Gd850 O888 2.388 . S
Gd850 O889 2.386 . S
Gd850 O893 2.307 . S
Gd850 C903 2.805 . S
Gd851 N846 2.622 . S
Gd851 N852 2.570 . S
Gd851 O883 2.386 . S
Gd851 O887 2.307 . S
Gd851 O890 2.353 . S
Gd851 O891 2.468 . S
Gd851 O892 2.427 . S
Gd851 O894 2.388 . S
Gd851 C915 2.805 . S
N852 C842 1.359 . S
N852 Gd851 2.570 . S
N852 C854 1.343 . S
C853 C841 1.422 . S
C853 C855 1.321 . S
C853 H861 0.931 . S
C854 N852 1.343 . S
C854 C855 1.390 . S
C854 H856 0.931 . S
C855 C853 1.321 . S
C855 C854 1.390 . S
C855 H857 0.930 . S
H856 C854 0.931 . S
H857 C855 0.930 . S
H858 C881 0.931 . S
H859 C847 0.929 . S
H860 C882 0.930 . S
H861 C853 0.931 . S
H862 C843 0.930 . S
H863 C872 0.929 . S
H864 C848 0.931 . S
H865 C849 0.930 . S
H866 C904 0.930 . S
H867 C845 0.929 . S
H868 C873 0.931 . S
H869 C874 0.930 . S
N870 Gd850 2.622 . S
N870 C871 1.369 . S
N870 C872 1.338 . S
C871 N870 1.369 . S
C871 C875 1.415 . S
C871 C878 1.422 . S
C872 H863 0.929 . S
C872 N870 1.338 . S
C872 C874 1.378 . S
C873 H868 0.931 . S
C873 C874 1.348 . S
C873 C875 1.413 . S
C874 H869 0.930 . S
C874 C872 1.378 . S
C874 C873 1.348 . S
C875 C871 1.415 . S
C875 C873 1.413 . S
C875 C905 1.437 . S
H876 C905 0.929 . S
N877 Gd850 2.570 . S
N877 C878 1.359 . S
N877 C881 1.343 . S
C878 C871 1.422 . S
C878 N877 1.359 . S
C878 C880 1.421 . S
C879 C880 1.422 . S
C879 C882 1.321 . S
C879 H906 0.931 . S
C880 C878 1.421 . S
C880 C879 1.422 . S
C880 C904 1.417 . S
C881 H858 0.931 . S
C881 N877 1.343 . S
C881 C882 1.390 . S
C882 H860 0.930 . S
C882 C879 1.321 . S
C882 C881 1.390 . S
O883 Gd851 2.386 . S
O883 C895 1.265 . S
O884 Gd850 2.353 . S
O884 C895 1.242 . S
O885 Gd850 2.468 . S
O885 C903 1.263 . S
O886 Gd850 2.427 . S
O886 C903 1.252 . S
O887 Gd851 2.307 . S
O887 C896 1.261 . S
O888 Gd850 2.388 . S
O888 C896 1.252 . S
O889 Gd850 2.386 . S
O889 C907 1.265 . S
O890 Gd851 2.353 . S
O890 C907 1.242 . S
O891 Gd851 2.468 . S
O891 C915 1.263 . S
O892 Gd851 2.427 . S
O892 C915 1.252 . S
O893 Gd850 2.307 . S
O893 C908 1.261 . S
O894 Gd851 2.388 . S
O894 C908 1.252 . S
C895 O883 1.265 . S
C895 O884 1.242 . S
C896 O887 1.261 . S
C896 O888 1.252 . S
C897 C900 1.394 . S
C897 C902 1.370 . S
C897 C903 1.500 . S
C898 C901 1.383 . S
C898 C902 1.395 . S
C899 C900 1.396 . S
C899 C901 1.365 . S
C899 H916 0.929 . S
C900 C897 1.394 . S
C900 C899 1.396 . S
C900 H917 0.930 . S
C901 C898 1.383 . S
C901 C899 1.365 . S
C901 H918 0.931 . S
C902 C897 1.370 . S
C902 C898 1.395 . S
C902 H919 0.930 . S
C903 Gd850 2.805 . S
C903 O885 1.263 . S
C903 O886 1.252 . S
C903 C897 1.500 . S
C904 H866 0.930 . S
C904 C880 1.417 . S
C904 C905 1.329 . S
C905 C875 1.437 . S
C905 H876 0.929 . S
C905 C904 1.329 . S
H906 C879 0.931 . S
C907 O889 1.265 . S
C907 O890 1.242 . S
C908 O893 1.261 . S
C908 O894 1.252 . S
C909 C912 1.394 . S
C909 C914 1.370 . S
C909 C915 1.500 . S
C910 C913 1.383 . S
C910 C914 1.395 . S
C911 C912 1.396 . S
C911 C913 1.365 . S
C911 H920 0.929 . S
C912 C909 1.394 . S
C912 C911 1.396 . S
C912 H921 0.930 . S
C913 C910 1.383 . S
C913 C911 1.365 . S
C913 H922 0.931 . S
C914 C909 1.370 . S
C914 C910 1.395 . S
C914 H923 0.930 . S
C915 Gd851 2.805 . S
C915 O891 1.263 . S
C915 O892 1.252 . S
C915 C909 1.500 . S
H916 C899 0.929 . S
H917 C900 0.930 . S
H918 C901 0.931 . S
H919 C902 0.930 . S
H920 C911 0.929 . S
H921 C912 0.930 . S
H922 C913 0.931 . S
H923 C914 0.930 . S
C924 C926 1.422 . S
C924 C928 1.415 . S
C924 N930 1.369 . S
C925 C926 1.421 . S
C925 C927 1.417 . S
C925 C937 1.422 . S
C926 C924 1.422 . S
C926 C925 1.421 . S
C926 N936 1.359 . S
C927 C925 1.417 . S
C927 C929 1.329 . S
C927 H946 0.930 . S
C928 C924 1.415 . S
C928 C929 1.437 . S
C928 C932 1.413 . S
C929 C927 1.329 . S
C929 C928 1.437 . S
C929 H951 0.929 . S
N930 C924 1.369 . S
N930 C931 1.338 . S
N930 Gd935 2.622 . S
C931 N930 1.338 . S
C931 C933 1.378 . S
C931 H943 0.929 . S
C932 C928 1.413 . S
C932 C933 1.348 . S
C932 H948 0.931 . S
C933 C931 1.378 . S
C933 C932 1.348 . S
C933 H949 0.930 . S
Gd934 N954 2.622 1_565 S
Gd934 N961 2.570 . S
Gd934 O968 2.353 . S
Gd934 O969 2.468 . S
Gd934 O970 2.427 . S
Gd934 O972 2.388 . S
Gd934 O973 2.386 . S
Gd934 O977 2.307 . S
Gd934 C987 2.805 . S
Gd935 N930 2.622 . S
Gd935 N936 2.570 . S
Gd935 O967 2.386 . S
Gd935 O971 2.307 . S
Gd935 O974 2.353 . S
Gd935 O975 2.468 . S
Gd935 O976 2.427 . S
Gd935 O978 2.388 . S
Gd935 C999 2.805 . S
N936 C926 1.359 . S
N936 Gd935 2.570 . S
N936 C938 1.343 . S
C937 C925 1.422 . S
C937 C939 1.321 . S
C937 H945 0.931 . S
C938 N936 1.343 . S
C938 C939 1.390 . S
C938 H940 0.931 . S
C939 C937 1.321 . S
C939 C938 1.390 . S
C939 H941 0.930 . S
H940 C938 0.931 . S
H941 C939 0.930 . S
H942 C965 0.931 . S
H943 C931 0.929 . S
H944 C966 0.930 . S
H945 C937 0.931 . S
H946 C927 0.930 . S
H947 C956 0.929 . S
H948 C932 0.931 . S
H949 C933 0.930 . S
H950 C988 0.930 . S
H951 C929 0.929 . S
H952 C957 0.931 . S
H953 C958 0.930 . S
N954 Gd934 2.622 1_545 S
N954 C955 1.369 . S
N954 C956 1.338 . S
C955 N954 1.369 . S
C955 C959 1.415 . S
C955 C962 1.422 1_545 S
C956 H947 0.929 . S
C956 N954 1.338 . S
C956 C958 1.378 . S
C957 H952 0.931 . S
C957 C958 1.348 . S
C957 C959 1.413 . S
C958 H953 0.930 . S
C958 C956 1.378 . S
C958 C957 1.348 . S
C959 C955 1.415 . S
C959 C957 1.413 . S
C959 C989 1.437 . S
H960 C989 0.929 . S
N961 Gd934 2.570 . S
N961 C962 1.359 . S
N961 C965 1.343 . S
C962 C955 1.422 1_565 S
C962 N961 1.359 . S
C962 C964 1.421 1_565 S
C963 C964 1.422 1_565 S
C963 C966 1.321 . S
C963 H990 0.931 . S
C964 C962 1.421 1_545 S
C964 C963 1.422 1_545 S
C964 C988 1.417 . S
C965 H942 0.931 . S
C965 N961 1.343 . S
C965 C966 1.390 . S
C966 H944 0.930 . S
C966 C963 1.321 . S
C966 C965 1.390 . S
O967 Gd935 2.386 . S
O967 C979 1.265 . S
O968 Gd934 2.353 . S
O968 C979 1.242 . S
O969 Gd934 2.468 . S
O969 C987 1.263 . S
O970 Gd934 2.427 . S
O970 C987 1.252 . S
O971 Gd935 2.307 . S
O971 C980 1.261 . S
O972 Gd934 2.388 . S
O972 C980 1.252 . S
O973 Gd934 2.386 . S
O973 C991 1.265 . S
O974 Gd935 2.353 . S
O974 C991 1.242 . S
O975 Gd935 2.468 . S
O975 C999 1.263 . S
O976 Gd935 2.427 . S
O976 C999 1.252 . S
O977 Gd934 2.307 . S
O977 C992 1.261 . S
O978 Gd935 2.388 . S
O978 C992 1.252 . S
C979 O967 1.265 . S
C979 O968 1.242 . S
C980 O971 1.261 . S
C980 O972 1.252 . S
C981 C984 1.394 . S
C981 C986 1.370 . S
C981 C987 1.500 . S
C982 C985 1.383 . S
C982 C986 1.395 . S
C983 C984 1.396 . S
C983 C985 1.365 . S
C983 H1000 0.929 . S
C984 C981 1.394 . S
C984 C983 1.396 . S
C984 H1001 0.930 . S
C985 C982 1.383 . S
C985 C983 1.365 . S
C985 H1002 0.931 . S
C986 C981 1.370 . S
C986 C982 1.395 . S
C986 H1003 0.930 . S
C987 Gd934 2.805 . S
C987 O969 1.263 . S
C987 O970 1.252 . S
C987 C981 1.500 . S
C988 H950 0.930 . S
C988 C964 1.417 . S
C988 C989 1.329 . S
C989 C959 1.437 . S
C989 H960 0.929 . S
C989 C988 1.329 . S
H990 C963 0.931 . S
C991 O973 1.265 . S
C991 O974 1.242 . S
C992 O977 1.261 . S
C992 O978 1.252 . S
C993 C996 1.394 . S
C993 C998 1.370 . S
C993 C999 1.500 . S
C994 C997 1.383 . S
C994 C998 1.395 . S
C995 C996 1.396 . S
C995 C997 1.365 . S
C995 H1004 0.929 . S
C996 C993 1.394 . S
C996 C995 1.396 . S
C996 H1005 0.930 . S
C997 C994 1.383 . S
C997 C995 1.365 . S
C997 H1006 0.931 . S
C998 C993 1.370 . S
C998 C994 1.395 . S
C998 H1007 0.930 . S
C999 Gd935 2.805 . S
C999 O975 1.263 . S
C999 O976 1.252 . S
C999 C993 1.500 . S
H1000 C983 0.929 . S
H1001 C984 0.930 . S
H1002 C985 0.931 . S
H1003 C986 0.930 . S
H1004 C995 0.929 . S
H1005 C996 0.930 . S
H1006 C997 0.931 . S
H1007 C998 0.930 . S
C1008 C1010 1.422 . S
C1008 C1012 1.415 . S
C1008 N1014 1.369 . S
C1009 C1010 1.421 . S
C1009 C1011 1.417 . S
C1009 C1021 1.422 . S
C1010 C1008 1.422 . S
C1010 C1009 1.421 . S
C1010 N1020 1.359 . S
C1011 C1009 1.417 . S
C1011 C1013 1.329 . S
C1011 H1030 0.930 . S
C1012 C1008 1.415 . S
C1012 C1013 1.437 . S
C1012 C1016 1.413 . S
C1013 C1011 1.329 . S
C1013 C1012 1.437 . S
C1013 H1035 0.929 . S
N1014 C1008 1.369 . S
N1014 C1015 1.338 . S
N1014 Gd1019 2.622 . S
C1015 N1014 1.338 . S
C1015 C1017 1.378 . S
C1015 H1027 0.929 . S
C1016 C1012 1.413 . S
C1016 C1017 1.348 . S
C1016 H1032 0.931 . S
C1017 C1015 1.378 . S
C1017 C1016 1.348 . S
C1017 H1033 0.930 . S
Gd1018 N1038 2.622 . S
Gd1018 N1045 2.570 . S
Gd1018 O1052 2.353 . S
Gd1018 O1053 2.468 . S
Gd1018 O1054 2.427 . S
Gd1018 O1056 2.388 . S
Gd1018 O1057 2.386 . S
Gd1018 O1061 2.307 . S
Gd1018 C1071 2.805 . S
Gd1019 N1014 2.622 . S
Gd1019 N1020 2.570 . S
Gd1019 O1051 2.386 . S
Gd1019 O1055 2.307 . S
Gd1019 O1058 2.353 . S
Gd1019 O1059 2.468 . S
Gd1019 O1060 2.427 . S
Gd1019 O1062 2.388 . S
Gd1019 C1083 2.805 . S
N1020 C1010 1.359 . S
N1020 Gd1019 2.570 . S
N1020 C1022 1.343 . S
C1021 C1009 1.422 . S
C1021 C1023 1.321 . S
C1021 H1029 0.931 . S
C1022 N1020 1.343 . S
C1022 C1023 1.390 . S
C1022 H1024 0.931 . S
C1023 C1021 1.321 . S
C1023 C1022 1.390 . S
C1023 H1025 0.930 . S
H1024 C1022 0.931 . S
H1025 C1023 0.930 . S
H1026 C1049 0.931 . S
H1027 C1015 0.929 . S
H1028 C1050 0.930 . S
H1029 C1021 0.931 . S
H1030 C1011 0.930 . S
H1031 C1040 0.929 . S
H1032 C1016 0.931 . S
H1033 C1017 0.930 . S
H1034 C1072 0.930 . S
H1035 C1013 0.929 . S
H1036 C1041 0.931 . S
H1037 C1042 0.930 . S
N1038 Gd1018 2.622 . S
N1038 C1039 1.369 . S
N1038 C1040 1.338 . S
C1039 N1038 1.369 . S
C1039 C1043 1.415 . S
C1039 C1046 1.422 . S
C1040 H1031 0.929 . S
C1040 N1038 1.338 . S
C1040 C1042 1.378 . S
C1041 H1036 0.931 . S
C1041 C1042 1.348 . S
C1041 C1043 1.413 . S
C1042 H1037 0.930 . S
C1042 C1040 1.378 . S
C1042 C1041 1.348 . S
C1043 C1039 1.415 . S
C1043 C1041 1.413 . S
C1043 C1073 1.437 . S
H1044 C1073 0.929 . S
N1045 Gd1018 2.570 . S
N1045 C1046 1.359 . S
N1045 C1049 1.343 . S
C1046 C1039 1.422 . S
C1046 N1045 1.359 . S
C1046 C1048 1.421 . S
C1047 C1048 1.422 . S
C1047 C1050 1.321 . S
C1047 H1074 0.931 . S
C1048 C1046 1.421 . S
C1048 C1047 1.422 . S
C1048 C1072 1.417 . S
C1049 H1026 0.931 . S
C1049 N1045 1.343 . S
C1049 C1050 1.390 . S
C1050 H1028 0.930 . S
C1050 C1047 1.321 . S
C1050 C1049 1.390 . S
O1051 Gd1019 2.386 . S
O1051 C1063 1.265 . S
O1052 Gd1018 2.353 . S
O1052 C1063 1.242 . S
O1053 Gd1018 2.468 . S
O1053 C1071 1.263 . S
O1054 Gd1018 2.427 . S
O1054 C1071 1.252 . S
O1055 Gd1019 2.307 . S
O1055 C1064 1.261 . S
O1056 Gd1018 2.388 . S
O1056 C1064 1.252 . S
O1057 Gd1018 2.386 . S
O1057 C1075 1.265 . S
O1058 Gd1019 2.353 . S
O1058 C1075 1.242 . S
O1059 Gd1019 2.468 . S
O1059 C1083 1.263 . S
O1060 Gd1019 2.427 . S
O1060 C1083 1.252 . S
O1061 Gd1018 2.307 . S
O1061 C1076 1.261 . S
O1062 Gd1019 2.388 . S
O1062 C1076 1.252 . S
C1063 O1051 1.265 . S
C1063 O1052 1.242 . S
C1064 O1055 1.261 . S
C1064 O1056 1.252 . S
C1065 C1068 1.394 . S
C1065 C1070 1.370 . S
C1065 C1071 1.500 . S
C1066 C1069 1.383 . S
C1066 C1070 1.395 . S
C1067 C1068 1.396 . S
C1067 C1069 1.365 . S
C1067 H1084 0.929 . S
C1068 C1065 1.394 . S
C1068 C1067 1.396 . S
C1068 H1085 0.930 . S
C1069 C1066 1.383 . S
C1069 C1067 1.365 . S
C1069 H1086 0.931 . S
C1070 C1065 1.370 . S
C1070 C1066 1.395 . S
C1070 H1087 0.930 . S
C1071 Gd1018 2.805 . S
C1071 O1053 1.263 . S
C1071 O1054 1.252 . S
C1071 C1065 1.500 . S
C1072 H1034 0.930 . S
C1072 C1048 1.417 . S
C1072 C1073 1.329 . S
C1073 C1043 1.437 . S
C1073 H1044 0.929 . S
C1073 C1072 1.329 . S
H1074 C1047 0.931 . S
C1075 O1057 1.265 . S
C1075 O1058 1.242 . S
C1076 O1061 1.261 . S
C1076 O1062 1.252 . S
C1077 C1080 1.394 . S
C1077 C1082 1.370 . S
C1077 C1083 1.500 . S
C1078 C1081 1.383 . S
C1078 C1082 1.395 . S
C1079 C1080 1.396 . S
C1079 C1081 1.365 . S
C1079 H1088 0.929 . S
C1080 C1077 1.394 . S
C1080 C1079 1.396 . S
C1080 H1089 0.930 . S
C1081 C1078 1.383 . S
C1081 C1079 1.365 . S
C1081 H1090 0.931 . S
C1082 C1077 1.370 . S
C1082 C1078 1.395 . S
C1082 H1091 0.930 . S
C1083 Gd1019 2.805 . S
C1083 O1059 1.263 . S
C1083 O1060 1.252 . S
C1083 C1077 1.500 . S
H1084 C1067 0.929 . S
H1085 C1068 0.930 . S
H1086 C1069 0.931 . S
H1087 C1070 0.930 . S
H1088 C1079 0.929 . S
H1089 C1080 0.930 . S
H1090 C1081 0.931 . S
H1091 C1082 0.930 . S
C1092 C1094 1.422 . S
C1092 C1096 1.415 . S
C1092 N1098 1.369 . S
C1093 C1094 1.421 . S
C1093 C1095 1.417 . S
C1093 C1105 1.422 . S
C1094 C1092 1.422 . S
C1094 C1093 1.421 . S
C1094 N1104 1.359 . S
C1095 C1093 1.417 . S
C1095 C1097 1.329 . S
C1095 H1114 0.930 . S
C1096 C1092 1.415 . S
C1096 C1097 1.437 . S
C1096 C1100 1.413 . S
C1097 C1095 1.329 . S
C1097 C1096 1.437 . S
C1097 H1119 0.929 . S
N1098 C1092 1.369 . S
N1098 C1099 1.338 . S
N1098 Gd1103 2.622 . S
C1099 N1098 1.338 . S
C1099 C1101 1.378 . S
C1099 H1111 0.929 . S
C1100 C1096 1.413 . S
C1100 C1101 1.348 . S
C1100 H1116 0.931 . S
C1101 C1099 1.378 . S
C1101 C1100 1.348 . S
C1101 H1117 0.930 . S
Gd1102 N1122 2.622 1_545 S
Gd1102 N1129 2.570 . S
Gd1102 O1136 2.353 . S
Gd1102 O1137 2.468 . S
Gd1102 O1138 2.427 . S
Gd1102 O1140 2.388 . S
Gd1102 O1141 2.386 . S
Gd1102 O1145 2.307 . S
Gd1102 C1155 2.805 . S
Gd1103 N1098 2.622 . S
Gd1103 N1104 2.570 . S
Gd1103 O1135 2.386 . S
Gd1103 O1139 2.307 . S
Gd1103 O1142 2.353 . S
Gd1103 O1143 2.468 . S
Gd1103 O1144 2.427 . S
Gd1103 O1146 2.388 . S
Gd1103 C1167 2.805 . S
N1104 C1094 1.359 . S
N1104 Gd1103 2.570 . S
N1104 C1106 1.343 . S
C1105 C1093 1.422 . S
C1105 C1107 1.321 . S
C1105 H1113 0.931 . S
C1106 N1104 1.343 . S
C1106 C1107 1.390 . S
C1106 H1108 0.931 . S
C1107 C1105 1.321 . S
C1107 C1106 1.390 . S
C1107 H1109 0.930 . S
H1108 C1106 0.931 . S
H1109 C1107 0.930 . S
H1110 C1133 0.931 . S
H1111 C1099 0.929 . S
H1112 C1134 0.930 . S
H1113 C1105 0.931 . S
H1114 C1095 0.930 . S
H1115 C1124 0.929 . S
H1116 C1100 0.931 . S
H1117 C1101 0.930 . S
H1118 C1156 0.930 . S
H1119 C1097 0.929 . S
H1120 C1125 0.931 . S
H1121 C1126 0.930 . S
N1122 Gd1102 2.622 1_565 S
N1122 C1123 1.369 . S
N1122 C1124 1.338 . S
C1123 N1122 1.369 . S
C1123 C1127 1.415 . S
C1123 C1130 1.422 1_565 S
C1124 H1115 0.929 . S
C1124 N1122 1.338 . S
C1124 C1126 1.378 . S
C1125 H1120 0.931 . S
C1125 C1126 1.348 . S
C1125 C1127 1.413 . S
C1126 H1121 0.930 . S
C1126 C1124 1.378 . S
C1126 C1125 1.348 . S
C1127 C1123 1.415 . S
C1127 C1125 1.413 . S
C1127 C1157 1.437 . S
H1128 C1157 0.929 . S
N1129 Gd1102 2.570 . S
N1129 C1130 1.359 . S
N1129 C1133 1.343 . S
C1130 C1123 1.422 1_545 S
C1130 N1129 1.359 . S
C1130 C1132 1.421 1_545 S
C1131 C1132 1.422 1_545 S
C1131 C1134 1.321 . S
C1131 H1158 0.931 . S
C1132 C1130 1.421 1_565 S
C1132 C1131 1.422 1_565 S
C1132 C1156 1.417 . S
C1133 H1110 0.931 . S
C1133 N1129 1.343 . S
C1133 C1134 1.390 . S
C1134 H1112 0.930 . S
C1134 C1131 1.321 . S
C1134 C1133 1.390 . S
O1135 Gd1103 2.386 . S
O1135 C1147 1.265 . S
O1136 Gd1102 2.353 . S
O1136 C1147 1.242 . S
O1137 Gd1102 2.468 . S
O1137 C1155 1.263 . S
O1138 Gd1102 2.427 . S
O1138 C1155 1.252 . S
O1139 Gd1103 2.307 . S
O1139 C1148 1.261 . S
O1140 Gd1102 2.388 . S
O1140 C1148 1.252 . S
O1141 Gd1102 2.386 . S
O1141 C1159 1.265 . S
O1142 Gd1103 2.353 . S
O1142 C1159 1.242 . S
O1143 Gd1103 2.468 . S
O1143 C1167 1.263 . S
O1144 Gd1103 2.427 . S
O1144 C1167 1.252 . S
O1145 Gd1102 2.307 . S
O1145 C1160 1.261 . S
O1146 Gd1103 2.388 . S
O1146 C1160 1.252 . S
C1147 O1135 1.265 . S
C1147 O1136 1.242 . S
C1148 O1139 1.261 . S
C1148 O1140 1.252 . S
C1149 C1152 1.394 . S
C1149 C1154 1.370 . S
C1149 C1155 1.500 . S
C1150 C1153 1.383 . S
C1150 C1154 1.395 . S
C1151 C1152 1.396 . S
C1151 C1153 1.365 . S
C1151 H1168 0.929 . S
C1152 C1149 1.394 . S
C1152 C1151 1.396 . S
C1152 H1169 0.930 . S
C1153 C1150 1.383 . S
C1153 C1151 1.365 . S
C1153 H1170 0.931 . S
C1154 C1149 1.370 . S
C1154 C1150 1.395 . S
C1154 H1171 0.930 . S
C1155 Gd1102 2.805 . S
C1155 O1137 1.263 . S
C1155 O1138 1.252 . S
C1155 C1149 1.500 . S
C1156 H1118 0.930 . S
C1156 C1132 1.417 . S
C1156 C1157 1.329 . S
C1157 C1127 1.437 . S
C1157 H1128 0.929 . S
C1157 C1156 1.329 . S
H1158 C1131 0.931 . S
C1159 O1141 1.265 . S
C1159 O1142 1.242 . S
C1160 O1145 1.261 . S
C1160 O1146 1.252 . S
C1161 C1164 1.394 . S
C1161 C1166 1.370 . S
C1161 C1167 1.500 . S
C1162 C1165 1.383 . S
C1162 C1166 1.395 . S
C1163 C1164 1.396 . S
C1163 C1165 1.365 . S
C1163 H1172 0.929 . S
C1164 C1161 1.394 . S
C1164 C1163 1.396 . S
C1164 H1173 0.930 . S
C1165 C1162 1.383 . S
C1165 C1163 1.365 . S
C1165 H1174 0.931 . S
C1166 C1161 1.370 . S
C1166 C1162 1.395 . S
C1166 H1175 0.930 . S
C1167 Gd1103 2.805 . S
C1167 O1143 1.263 . S
C1167 O1144 1.252 . S
C1167 C1161 1.500 . S
H1168 C1151 0.929 . S
H1169 C1152 0.930 . S
H1170 C1153 0.931 . S
H1171 C1154 0.930 . S
H1172 C1163 0.929 . S
H1173 C1164 0.930 . S
H1174 C1165 0.931 . S
H1175 C1166 0.930 . S
C1176 C1178 1.422 . S
C1176 C1180 1.415 . S
C1176 N1182 1.369 . S
C1177 C1178 1.421 . S
C1177 C1179 1.417 . S
C1177 C1189 1.422 . S
C1178 C1176 1.422 . S
C1178 C1177 1.421 . S
C1178 N1188 1.359 . S
C1179 C1177 1.417 . S
C1179 C1181 1.329 . S
C1179 H1198 0.930 . S
C1180 C1176 1.415 . S
C1180 C1181 1.437 . S
C1180 C1184 1.413 . S
C1181 C1179 1.329 . S
C1181 C1180 1.437 . S
C1181 H1203 0.929 . S
N1182 C1176 1.369 . S
N1182 C1183 1.338 . S
N1182 Gd1187 2.622 . S
C1183 N1182 1.338 . S
C1183 C1185 1.378 . S
C1183 H1195 0.929 . S
C1184 C1180 1.413 . S
C1184 C1185 1.348 . S
C1184 H1200 0.931 . S
C1185 C1183 1.378 . S
C1185 C1184 1.348 . S
C1185 H1201 0.930 . S
Gd1186 N1206 2.622 . S
Gd1186 N1213 2.570 . S
Gd1186 O1220 2.353 . S
Gd1186 O1221 2.468 . S
Gd1186 O1222 2.427 . S
Gd1186 O1224 2.388 . S
Gd1186 O1225 2.386 . S
Gd1186 O1229 2.307 . S
Gd1186 C1239 2.805 . S
Gd1187 N1182 2.622 . S
Gd1187 N1188 2.570 . S
Gd1187 O1219 2.386 . S
Gd1187 O1223 2.307 . S
Gd1187 O1226 2.353 . S
Gd1187 O1227 2.468 . S
Gd1187 O1228 2.427 . S
Gd1187 O1230 2.388 . S
Gd1187 C1251 2.805 . S
N1188 C1178 1.359 . S
N1188 Gd1187 2.570 . S
N1188 C1190 1.343 . S
C1189 C1177 1.422 . S
C1189 C1191 1.321 . S
C1189 H1197 0.931 . S
C1190 N1188 1.343 . S
C1190 C1191 1.390 . S
C1190 H1192 0.931 . S
C1191 C1189 1.321 . S
C1191 C1190 1.390 . S
C1191 H1193 0.930 . S
H1192 C1190 0.931 . S
H1193 C1191 0.930 . S
H1194 C1217 0.931 . S
H1195 C1183 0.929 . S
H1196 C1218 0.930 . S
H1197 C1189 0.931 . S
H1198 C1179 0.930 . S
H1199 C1208 0.929 . S
H1200 C1184 0.931 . S
H1201 C1185 0.930 . S
H1202 C1240 0.930 . S
H1203 C1181 0.929 . S
H1204 C1209 0.931 . S
H1205 C1210 0.930 . S
N1206 Gd1186 2.622 . S
N1206 C1207 1.369 . S
N1206 C1208 1.338 . S
C1207 N1206 1.369 . S
C1207 C1211 1.415 . S
C1207 C1214 1.422 . S
C1208 H1199 0.929 . S
C1208 N1206 1.338 . S
C1208 C1210 1.378 . S
C1209 H1204 0.931 . S
C1209 C1210 1.348 . S
C1209 C1211 1.413 . S
C1210 H1205 0.930 . S
C1210 C1208 1.378 . S
C1210 C1209 1.348 . S
C1211 C1207 1.415 . S
C1211 C1209 1.413 . S
C1211 C1241 1.437 . S
H1212 C1241 0.929 . S
N1213 Gd1186 2.570 . S
N1213 C1214 1.359 . S
N1213 C1217 1.343 . S
C1214 C1207 1.422 . S
C1214 N1213 1.359 . S
C1214 C1216 1.421 . S
C1215 C1216 1.422 . S
C1215 C1218 1.321 . S
C1215 H1242 0.931 . S
C1216 C1214 1.421 . S
C1216 C1215 1.422 . S
C1216 C1240 1.417 . S
C1217 H1194 0.931 . S
C1217 N1213 1.343 . S
C1217 C1218 1.390 . S
C1218 H1196 0.930 . S
C1218 C1215 1.321 . S
C1218 C1217 1.390 . S
O1219 Gd1187 2.386 . S
O1219 C1231 1.265 . S
O1220 Gd1186 2.353 . S
O1220 C1231 1.242 . S
O1221 Gd1186 2.468 . S
O1221 C1239 1.263 . S
O1222 Gd1186 2.427 . S
O1222 C1239 1.252 . S
O1223 Gd1187 2.307 . S
O1223 C1232 1.261 . S
O1224 Gd1186 2.388 . S
O1224 C1232 1.252 . S
O1225 Gd1186 2.386 . S
O1225 C1243 1.265 . S
O1226 Gd1187 2.353 . S
O1226 C1243 1.242 . S
O1227 Gd1187 2.468 . S
O1227 C1251 1.263 . S
O1228 Gd1187 2.427 . S
O1228 C1251 1.252 . S
O1229 Gd1186 2.307 . S
O1229 C1244 1.261 . S
O1230 Gd1187 2.388 . S
O1230 C1244 1.252 . S
C1231 O1219 1.265 . S
C1231 O1220 1.242 . S
C1232 O1223 1.261 . S
C1232 O1224 1.252 . S
C1233 C1236 1.394 . S
C1233 C1238 1.370 . S
C1233 C1239 1.500 . S
C1234 C1237 1.383 . S
C1234 C1238 1.395 . S
C1235 C1236 1.396 . S
C1235 C1237 1.365 . S
C1235 H1252 0.929 . S
C1236 C1233 1.394 . S
C1236 C1235 1.396 . S
C1236 H1253 0.930 . S
C1237 C1234 1.383 . S
C1237 C1235 1.365 . S
C1237 H1254 0.931 . S
C1238 C1233 1.370 . S
C1238 C1234 1.395 . S
C1238 H1255 0.930 . S
C1239 Gd1186 2.805 . S
C1239 O1221 1.263 . S
C1239 O1222 1.252 . S
C1239 C1233 1.500 . S
C1240 H1202 0.930 . S
C1240 C1216 1.417 . S
C1240 C1241 1.329 . S
C1241 C1211 1.437 . S
C1241 H1212 0.929 . S
C1241 C1240 1.329 . S
H1242 C1215 0.931 . S
C1243 O1225 1.265 . S
C1243 O1226 1.242 . S
C1244 O1229 1.261 . S
C1244 O1230 1.252 . S
C1245 C1248 1.394 . S
C1245 C1250 1.370 . S
C1245 C1251 1.500 . S
C1246 C1249 1.383 . S
C1246 C1250 1.395 . S
C1247 C1248 1.396 . S
C1247 C1249 1.365 . S
C1247 H1256 0.929 . S
C1248 C1245 1.394 . S
C1248 C1247 1.396 . S
C1248 H1257 0.930 . S
C1249 C1246 1.383 . S
C1249 C1247 1.365 . S
C1249 H1258 0.931 . S
C1250 C1245 1.370 . S
C1250 C1246 1.395 . S
C1250 H1259 0.930 . S
C1251 Gd1187 2.805 . S
C1251 O1227 1.263 . S
C1251 O1228 1.252 . S
C1251 C1245 1.500 . S
H1252 C1235 0.929 . S
H1253 C1236 0.930 . S
H1254 C1237 0.931 . S
H1255 C1238 0.930 . S
H1256 C1247 0.929 . S
H1257 C1248 0.930 . S
H1258 C1249 0.931 . S
H1259 C1250 0.930 . S
C1260 C1262 1.422 . S
C1260 C1264 1.415 . S
C1260 N1266 1.369 . S
C1261 C1262 1.421 . S
C1261 C1263 1.417 . S
C1261 C1273 1.422 . S
C1262 C1260 1.422 . S
C1262 C1261 1.421 . S
C1262 N1272 1.359 . S
C1263 C1261 1.417 . S
C1263 C1265 1.329 . S
C1263 H1282 0.930 . S
C1264 C1260 1.415 . S
C1264 C1265 1.437 . S
C1264 C1268 1.413 . S
C1265 C1263 1.329 . S
C1265 C1264 1.437 . S
C1265 H1287 0.929 . S
N1266 C1260 1.369 . S
N1266 C1267 1.338 . S
N1266 Gd1271 2.622 . S
C1267 N1266 1.338 . S
C1267 C1269 1.378 . S
C1267 H1279 0.929 . S
C1268 C1264 1.413 . S
C1268 C1269 1.348 . S
C1268 H1284 0.931 . S
C1269 C1267 1.378 . S
C1269 C1268 1.348 . S
C1269 H1285 0.930 . S
Gd1270 N1290 2.622 1_665 S
Gd1270 N1297 2.570 1_655 S
Gd1270 O1304 2.353 . S
Gd1270 O1305 2.468 1_655 S
Gd1270 O1306 2.427 1_655 S
Gd1270 O1308 2.388 . S
Gd1270 O1309 2.386 . S
Gd1270 O1313 2.307 . S
Gd1270 C1323 2.805 1_655 S
Gd1271 N1266 2.622 . S
Gd1271 N1272 2.570 . S
Gd1271 O1303 2.386 . S
Gd1271 O1307 2.307 . S
Gd1271 O1310 2.353 . S
Gd1271 O1311 2.468 . S
Gd1271 O1312 2.427 . S
Gd1271 O1314 2.388 . S
Gd1271 C1335 2.805 . S
N1272 C1262 1.359 . S
N1272 Gd1271 2.570 . S
N1272 C1274 1.343 . S
C1273 C1261 1.422 . S
C1273 C1275 1.321 . S
C1273 H1281 0.931 . S
C1274 N1272 1.343 . S
C1274 C1275 1.390 . S
C1274 H1276 0.931 . S
C1275 C1273 1.321 . S
C1275 C1274 1.390 . S
C1275 H1277 0.930 . S
H1276 C1274 0.931 . S
H1277 C1275 0.930 . S
H1278 C1301 0.931 . S
H1279 C1267 0.929 . S
H1280 C1302 0.930 . S
H1281 C1273 0.931 . S
H1282 C1263 0.930 . S
H1283 C1292 0.929 . S
H1284 C1268 0.931 . S
H1285 C1269 0.930 . S
H1286 C1324 0.930 . S
H1287 C1265 0.929 . S
H1288 C1293 0.931 . S
H1289 C1294 0.930 . S
N1290 Gd1270 2.622 1_445 S
N1290 C1291 1.369 . S
N1290 C1292 1.338 1_455 S
C1291 N1290 1.369 . S
C1291 C1295 1.415 . S
C1291 C1298 1.422 1_545 S
C1292 H1283 0.929 . S
C1292 N1290 1.338 1_655 S
C1292 C1294 1.378 . S
C1293 H1288 0.931 . S
C1293 C1294 1.348 1_455 S
C1293 C1295 1.413 . S
C1294 H1289 0.930 . S
C1294 C1292 1.378 . S
C1294 C1293 1.348 1_655 S
C1295 C1291 1.415 . S
C1295 C1293 1.413 . S
C1295 C1325 1.437 . S
H1296 C1325 0.929 . S
N1297 Gd1270 2.570 1_455 S
N1297 C1298 1.359 . S
N1297 C1301 1.343 . S
C1298 C1291 1.422 1_565 S
C1298 N1297 1.359 . S
C1298 C1300 1.421 1_565 S
C1299 C1300 1.422 1_565 S
C1299 C1302 1.321 . S
C1299 H1326 0.931 . S
C1300 C1298 1.421 1_545 S
C1300 C1299 1.422 1_545 S
C1300 C1324 1.417 . S
C1301 H1278 0.931 . S
C1301 N1297 1.343 . S
C1301 C1302 1.390 . S
C1302 H1280 0.930 . S
C1302 C1299 1.321 . S
C1302 C1301 1.390 . S
O1303 Gd1271 2.386 . S
O1303 C1315 1.265 . S
O1304 Gd1270 2.353 . S
O1304 C1315 1.242 . S
O1305 Gd1270 2.468 1_455 S
O1305 C1323 1.263 . S
O1306 Gd1270 2.427 1_455 S
O1306 C1323 1.252 . S
O1307 Gd1271 2.307 . S
O1307 C1316 1.261 . S
O1308 Gd1270 2.388 . S
O1308 C1316 1.252 . S
O1309 Gd1270 2.386 . S
O1309 C1327 1.265 . S
O1310 Gd1271 2.353 . S
O1310 C1327 1.242 . S
O1311 Gd1271 2.468 . S
O1311 C1335 1.263 . S
O1312 Gd1271 2.427 . S
O1312 C1335 1.252 . S
O1313 Gd1270 2.307 . S
O1313 C1328 1.261 . S
O1314 Gd1271 2.388 . S
O1314 C1328 1.252 . S
C1315 O1303 1.265 . S
C1315 O1304 1.242 . S
C1316 O1307 1.261 . S
C1316 O1308 1.252 . S
C1317 C1320 1.394 . S
C1317 C1322 1.370 . S
C1317 C1323 1.500 . S
C1318 C1321 1.383 . S
C1318 C1322 1.395 . S
C1319 C1320 1.396 . S
C1319 C1321 1.365 . S
C1319 H1336 0.929 . S
C1320 C1317 1.394 . S
C1320 C1319 1.396 . S
C1320 H1337 0.930 . S
C1321 C1318 1.383 . S
C1321 C1319 1.365 . S
C1321 H1338 0.931 . S
C1322 C1317 1.370 . S
C1322 C1318 1.395 . S
C1322 H1339 0.930 . S
C1323 Gd1270 2.805 1_455 S
C1323 O1305 1.263 . S
C1323 O1306 1.252 . S
C1323 C1317 1.500 . S
C1324 H1286 0.930 . S
C1324 C1300 1.417 . S
C1324 C1325 1.329 . S
C1325 C1295 1.437 . S
C1325 H1296 0.929 . S
C1325 C1324 1.329 . S
H1326 C1299 0.931 . S
C1327 O1309 1.265 . S
C1327 O1310 1.242 . S
C1328 O1313 1.261 . S
C1328 O1314 1.252 . S
C1329 C1332 1.394 . S
C1329 C1334 1.370 . S
C1329 C1335 1.500 . S
C1330 C1333 1.383 . S
C1330 C1334 1.395 . S
C1331 C1332 1.396 . S
C1331 C1333 1.365 . S
C1331 H1340 0.929 . S
C1332 C1329 1.394 . S
C1332 C1331 1.396 . S
C1332 H1341 0.930 . S
C1333 C1330 1.383 . S
C1333 C1331 1.365 . S
C1333 H1342 0.931 . S
C1334 C1329 1.370 . S
C1334 C1330 1.395 . S
C1334 H1343 0.930 . S
C1335 Gd1271 2.805 . S
C1335 O1311 1.263 . S
C1335 O1312 1.252 . S
C1335 C1329 1.500 . S
H1336 C1319 0.929 . S
H1337 C1320 0.930 . S
H1338 C1321 0.931 . S
H1339 C1322 0.930 . S
H1340 C1331 0.929 . S
H1341 C1332 0.930 . S
H1342 C1333 0.931 . S
H1343 C1334 0.930 . S
C1344 C1346 1.422 . S
C1344 C1348 1.415 . S
C1344 N1350 1.369 . S
C1345 C1346 1.421 . S
C1345 C1347 1.417 . S
C1345 C1357 1.422 . S
C1346 C1344 1.422 . S
C1346 C1345 1.421 . S
C1346 N1356 1.359 . S
C1347 C1345 1.417 . S
C1347 C1349 1.329 . S
C1347 H1366 0.930 . S
C1348 C1344 1.415 . S
C1348 C1349 1.437 . S
C1348 C1352 1.413 . S
C1349 C1347 1.329 . S
C1349 C1348 1.437 . S
C1349 H1371 0.929 . S
N1350 C1344 1.369 . S
N1350 C1351 1.338 . S
N1350 Gd1355 2.622 . S
C1351 N1350 1.338 . S
C1351 C1353 1.378 . S
C1351 H1363 0.929 . S
C1352 C1348 1.413 . S
C1352 C1353 1.348 . S
C1352 H1368 0.931 . S
C1353 C1351 1.378 . S
C1353 C1352 1.348 . S
C1353 H1369 0.930 . S
Gd1354 N1374 2.622 . S
Gd1354 N1381 2.570 . S
Gd1354 O1388 2.353 . S
Gd1354 O1389 2.468 . S
Gd1354 O1390 2.427 . S
Gd1354 O1392 2.388 . S
Gd1354 O1393 2.386 . S
Gd1354 O1397 2.307 . S
Gd1354 C1407 2.805 . S
Gd1355 N1350 2.622 . S
Gd1355 N1356 2.570 . S
Gd1355 O1387 2.386 . S
Gd1355 O1391 2.307 . S
Gd1355 O1394 2.353 . S
Gd1355 O1395 2.468 . S
Gd1355 O1396 2.427 . S
Gd1355 O1398 2.388 . S
Gd1355 C1419 2.805 . S
N1356 C1346 1.359 . S
N1356 Gd1355 2.570 . S
N1356 C1358 1.343 . S
C1357 C1345 1.422 . S
C1357 C1359 1.321 . S
C1357 H1365 0.931 . S
C1358 N1356 1.343 . S
C1358 C1359 1.390 . S
C1358 H1360 0.931 . S
C1359 C1357 1.321 . S
C1359 C1358 1.390 . S
C1359 H1361 0.930 . S
H1360 C1358 0.931 . S
H1361 C1359 0.930 . S
H1362 C1385 0.931 . S
H1363 C1351 0.929 . S
H1364 C1386 0.930 . S
H1365 C1357 0.931 . S
H1366 C1347 0.930 . S
H1367 C1376 0.929 . S
H1368 C1352 0.931 . S
H1369 C1353 0.930 . S
H1370 C1408 0.930 . S
H1371 C1349 0.929 . S
H1372 C1377 0.931 . S
H1373 C1378 0.930 . S
N1374 Gd1354 2.622 . S
N1374 C1375 1.369 . S
N1374 C1376 1.338 . S
C1375 N1374 1.369 . S
C1375 C1379 1.415 . S
C1375 C1382 1.422 . S
C1376 H1367 0.929 . S
C1376 N1374 1.338 . S
C1376 C1378 1.378 . S
C1377 H1372 0.931 . S
C1377 C1378 1.348 . S
C1377 C1379 1.413 . S
C1378 H1373 0.930 . S
C1378 C1376 1.378 . S
C1378 C1377 1.348 . S
C1379 C1375 1.415 . S
C1379 C1377 1.413 . S
C1379 C1409 1.437 . S
H1380 C1409 0.929 . S
N1381 Gd1354 2.570 . S
N1381 C1382 1.359 . S
N1381 C1385 1.343 . S
C1382 C1375 1.422 . S
C1382 N1381 1.359 . S
C1382 C1384 1.421 . S
C1383 C1384 1.422 . S
C1383 C1386 1.321 . S
C1383 H1410 0.931 . S
C1384 C1382 1.421 . S
C1384 C1383 1.422 . S
C1384 C1408 1.417 . S
C1385 H1362 0.931 . S
C1385 N1381 1.343 . S
C1385 C1386 1.390 . S
C1386 H1364 0.930 . S
C1386 C1383 1.321 . S
C1386 C1385 1.390 . S
O1387 Gd1355 2.386 . S
O1387 C1399 1.265 . S
O1388 Gd1354 2.353 . S
O1388 C1399 1.242 . S
O1389 Gd1354 2.468 . S
O1389 C1407 1.263 . S
O1390 Gd1354 2.427 . S
O1390 C1407 1.252 . S
O1391 Gd1355 2.307 . S
O1391 C1400 1.261 . S
O1392 Gd1354 2.388 . S
O1392 C1400 1.252 . S
O1393 Gd1354 2.386 . S
O1393 C1411 1.265 . S
O1394 Gd1355 2.353 . S
O1394 C1411 1.242 . S
O1395 Gd1355 2.468 . S
O1395 C1419 1.263 . S
O1396 Gd1355 2.427 . S
O1396 C1419 1.252 . S
O1397 Gd1354 2.307 . S
O1397 C1412 1.261 . S
O1398 Gd1355 2.388 . S
O1398 C1412 1.252 . S
C1399 O1387 1.265 . S
C1399 O1388 1.242 . S
C1400 O1391 1.261 . S
C1400 O1392 1.252 . S
C1401 C1404 1.394 . S
C1401 C1406 1.370 . S
C1401 C1407 1.500 . S
C1402 C1405 1.383 . S
C1402 C1406 1.395 . S
C1403 C1404 1.396 . S
C1403 C1405 1.365 . S
C1403 H1420 0.929 . S
C1404 C1401 1.394 . S
C1404 C1403 1.396 . S
C1404 H1421 0.930 . S
C1405 C1402 1.383 . S
C1405 C1403 1.365 . S
C1405 H1422 0.931 . S
C1406 C1401 1.370 . S
C1406 C1402 1.395 . S
C1406 H1423 0.930 . S
C1407 Gd1354 2.805 . S
C1407 O1389 1.263 . S
C1407 O1390 1.252 . S
C1407 C1401 1.500 . S
C1408 H1370 0.930 . S
C1408 C1384 1.417 . S
C1408 C1409 1.329 . S
C1409 C1379 1.437 . S
C1409 H1380 0.929 . S
C1409 C1408 1.329 . S
H1410 C1383 0.931 . S
C1411 O1393 1.265 . S
C1411 O1394 1.242 . S
C1412 O1397 1.261 . S
C1412 O1398 1.252 . S
C1413 C1416 1.394 . S
C1413 C1418 1.370 . S
C1413 C1419 1.500 . S
C1414 C1417 1.383 . S
C1414 C1418 1.395 . S
C1415 C1416 1.396 . S
C1415 C1417 1.365 . S
C1415 H1424 0.929 . S
C1416 C1413 1.394 . S
C1416 C1415 1.396 . S
C1416 H1425 0.930 . S
C1417 C1414 1.383 . S
C1417 C1415 1.365 . S
C1417 H1426 0.931 . S
C1418 C1413 1.370 . S
C1418 C1414 1.395 . S
C1418 H1427 0.930 . S
C1419 Gd1355 2.805 . S
C1419 O1395 1.263 . S
C1419 O1396 1.252 . S
C1419 C1413 1.500 . S
H1420 C1403 0.929 . S
H1421 C1404 0.930 . S
H1422 C1405 0.931 . S
H1423 C1406 0.930 . S
H1424 C1415 0.929 . S
H1425 C1416 0.930 . S
H1426 C1417 0.931 . S
H1427 C1418 0.930 . S
C1428 C1430 1.422 . S
C1428 C1432 1.415 . S
C1428 N1434 1.369 . S
C1429 C1430 1.421 . S
C1429 C1431 1.417 . S
C1429 C1441 1.422 . S
C1430 C1428 1.422 . S
C1430 C1429 1.421 . S
C1430 N1440 1.359 . S
C1431 C1429 1.417 . S
C1431 C1433 1.329 . S
C1431 H1450 0.930 . S
C1432 C1428 1.415 . S
C1432 C1433 1.437 . S
C1432 C1436 1.413 . S
C1433 C1431 1.329 . S
C1433 C1432 1.437 . S
C1433 H1455 0.929 . S
N1434 C1428 1.369 . S
N1434 C1435 1.338 . S
N1434 Gd1439 2.622 . S
C1435 N1434 1.338 . S
C1435 C1437 1.378 . S
C1435 H1447 0.929 . S
C1436 C1432 1.413 . S
C1436 C1437 1.348 . S
C1436 H1452 0.931 . S
C1437 C1435 1.378 . S
C1437 C1436 1.348 . S
C1437 H1453 0.930 . S
Gd1438 N1458 2.622 . S
Gd1438 N1465 2.570 . S
Gd1438 O1472 2.353 . S
Gd1438 O1473 2.468 . S
Gd1438 O1474 2.427 . S
Gd1438 O1476 2.388 . S
Gd1438 O1477 2.386 . S
Gd1438 O1481 2.307 . S
Gd1438 C1491 2.805 . S
Gd1439 N1434 2.622 . S
Gd1439 N1440 2.570 . S
Gd1439 O1471 2.386 . S
Gd1439 O1475 2.307 . S
Gd1439 O1478 2.353 . S
Gd1439 O1479 2.468 . S
Gd1439 O1480 2.427 . S
Gd1439 O1482 2.388 . S
Gd1439 C1503 2.805 . S
N1440 C1430 1.359 . S
N1440 Gd1439 2.570 . S
N1440 C1442 1.343 . S
C1441 C1429 1.422 . S
C1441 C1443 1.321 . S
C1441 H1449 0.931 . S
C1442 N1440 1.343 . S
C1442 C1443 1.390 . S
C1442 H1444 0.931 . S
C1443 C1441 1.321 . S
C1443 C1442 1.390 . S
C1443 H1445 0.930 . S
H1444 C1442 0.931 . S
H1445 C1443 0.930 . S
H1446 C1469 0.931 . S
H1447 C1435 0.929 . S
H1448 C1470 0.930 . S
H1449 C1441 0.931 . S
H1450 C1431 0.930 . S
H1451 C1460 0.929 . S
H1452 C1436 0.931 . S
H1453 C1437 0.930 . S
H1454 C1492 0.930 . S
H1455 C1433 0.929 . S
H1456 C1461 0.931 . S
H1457 C1462 0.930 . S
N1458 Gd1438 2.622 . S
N1458 C1459 1.369 . S
N1458 C1460 1.338 . S
C1459 N1458 1.369 . S
C1459 C1463 1.415 . S
C1459 C1466 1.422 . S
C1460 H1451 0.929 . S
C1460 N1458 1.338 . S
C1460 C1462 1.378 . S
C1461 H1456 0.931 . S
C1461 C1462 1.348 . S
C1461 C1463 1.413 . S
C1462 H1457 0.930 . S
C1462 C1460 1.378 . S
C1462 C1461 1.348 . S
C1463 C1459 1.415 . S
C1463 C1461 1.413 . S
C1463 C1493 1.437 . S
H1464 C1493 0.929 . S
N1465 Gd1438 2.570 . S
N1465 C1466 1.359 . S
N1465 C1469 1.343 . S
C1466 C1459 1.422 . S
C1466 N1465 1.359 . S
C1466 C1468 1.421 . S
C1467 C1468 1.422 . S
C1467 C1470 1.321 . S
C1467 H1494 0.931 . S
C1468 C1466 1.421 . S
C1468 C1467 1.422 . S
C1468 C1492 1.417 . S
C1469 H1446 0.931 . S
C1469 N1465 1.343 . S
C1469 C1470 1.390 . S
C1470 H1448 0.930 . S
C1470 C1467 1.321 . S
C1470 C1469 1.390 . S
O1471 Gd1439 2.386 . S
O1471 C1483 1.265 . S
O1472 Gd1438 2.353 . S
O1472 C1483 1.242 . S
O1473 Gd1438 2.468 . S
O1473 C1491 1.263 . S
O1474 Gd1438 2.427 . S
O1474 C1491 1.252 . S
O1475 Gd1439 2.307 . S
O1475 C1484 1.261 . S
O1476 Gd1438 2.388 . S
O1476 C1484 1.252 . S
O1477 Gd1438 2.386 . S
O1477 C1495 1.265 . S
O1478 Gd1439 2.353 . S
O1478 C1495 1.242 . S
O1479 Gd1439 2.468 . S
O1479 C1503 1.263 . S
O1480 Gd1439 2.427 . S
O1480 C1503 1.252 . S
O1481 Gd1438 2.307 . S
O1481 C1496 1.261 . S
O1482 Gd1439 2.388 . S
O1482 C1496 1.252 . S
C1483 O1471 1.265 . S
C1483 O1472 1.242 . S
C1484 O1475 1.261 . S
C1484 O1476 1.252 . S
C1485 C1488 1.394 . S
C1485 C1490 1.370 . S
C1485 C1491 1.500 . S
C1486 C1489 1.383 . S
C1486 C1490 1.395 . S
C1487 C1488 1.396 . S
C1487 C1489 1.365 . S
C1487 H1504 0.929 . S
C1488 C1485 1.394 . S
C1488 C1487 1.396 . S
C1488 H1505 0.930 . S
C1489 C1486 1.383 . S
C1489 C1487 1.365 . S
C1489 H1506 0.931 . S
C1490 C1485 1.370 . S
C1490 C1486 1.395 . S
C1490 H1507 0.930 . S
C1491 Gd1438 2.805 . S
C1491 O1473 1.263 . S
C1491 O1474 1.252 . S
C1491 C1485 1.500 . S
C1492 H1454 0.930 . S
C1492 C1468 1.417 . S
C1492 C1493 1.329 . S
C1493 C1463 1.437 . S
C1493 H1464 0.929 . S
C1493 C1492 1.329 . S
H1494 C1467 0.931 . S
C1495 O1477 1.265 . S
C1495 O1478 1.242 . S
C1496 O1481 1.261 . S
C1496 O1482 1.252 . S
C1497 C1500 1.394 . S
C1497 C1502 1.370 . S
C1497 C1503 1.500 . S
C1498 C1501 1.383 . S
C1498 C1502 1.395 . S
C1499 C1500 1.396 . S
C1499 C1501 1.365 . S
C1499 H1508 0.929 . S
C1500 C1497 1.394 . S
C1500 C1499 1.396 . S
C1500 H1509 0.930 . S
C1501 C1498 1.383 . S
C1501 C1499 1.365 . S
C1501 H1510 0.931 . S
C1502 C1497 1.370 . S
C1502 C1498 1.395 . S
C1502 H1511 0.930 . S
C1503 Gd1439 2.805 . S
C1503 O1479 1.263 . S
C1503 O1480 1.252 . S
C1503 C1497 1.500 . S
H1504 C1487 0.929 . S
H1505 C1488 0.930 . S
H1506 C1489 0.931 . S
H1507 C1490 0.930 . S
H1508 C1499 0.929 . S
H1509 C1500 0.930 . S
H1510 C1501 0.931 . S
H1511 C1502 0.930 . S
C1512 C1514 1.422 . S
C1512 C1516 1.415 . S
C1512 N1518 1.369 . S
C1513 C1514 1.421 . S
C1513 C1515 1.417 . S
C1513 C1525 1.422 . S
C1514 C1512 1.422 . S
C1514 C1513 1.421 . S
C1514 N1524 1.359 . S
C1515 C1513 1.417 . S
C1515 C1517 1.329 . S
C1515 H1534 0.930 . S
C1516 C1512 1.415 . S
C1516 C1517 1.437 . S
C1516 C1520 1.413 . S
C1517 C1515 1.329 . S
C1517 C1516 1.437 . S
C1517 H1539 0.929 . S
N1518 C1512 1.369 . S
N1518 C1519 1.338 . S
N1518 Gd1523 2.622 . S
C1519 N1518 1.338 . S
C1519 C1521 1.378 . S
C1519 H1531 0.929 . S
C1520 C1516 1.413 . S
C1520 C1521 1.348 . S
C1520 H1536 0.931 . S
C1521 C1519 1.378 . S
C1521 C1520 1.348 . S
C1521 H1537 0.930 . S
Gd1522 N1542 2.622 . S
Gd1522 N1549 2.570 . S
Gd1522 O1556 2.353 . S
Gd1522 O1557 2.468 . S
Gd1522 O1558 2.427 . S
Gd1522 O1560 2.388 . S
Gd1522 O1561 2.386 . S
Gd1522 O1565 2.307 . S
Gd1522 C1575 2.805 . S
Gd1523 N1518 2.622 . S
Gd1523 N1524 2.570 . S
Gd1523 O1555 2.386 . S
Gd1523 O1559 2.307 . S
Gd1523 O1562 2.353 . S
Gd1523 O1563 2.468 . S
Gd1523 O1564 2.427 . S
Gd1523 O1566 2.388 . S
Gd1523 C1587 2.805 . S
N1524 C1514 1.359 . S
N1524 Gd1523 2.570 . S
N1524 C1526 1.343 . S
C1525 C1513 1.422 . S
C1525 C1527 1.321 . S
C1525 H1533 0.931 . S
C1526 N1524 1.343 . S
C1526 C1527 1.390 . S
C1526 H1528 0.931 . S
C1527 C1525 1.321 . S
C1527 C1526 1.390 . S
C1527 H1529 0.930 . S
H1528 C1526 0.931 . S
H1529 C1527 0.930 . S
H1530 C1553 0.931 . S
H1531 C1519 0.929 . S
H1532 C1554 0.930 . S
H1533 C1525 0.931 . S
H1534 C1515 0.930 . S
H1535 C1544 0.929 . S
H1536 C1520 0.931 . S
H1537 C1521 0.930 . S
H1538 C1576 0.930 . S
H1539 C1517 0.929 . S
H1540 C1545 0.931 . S
H1541 C1546 0.930 . S
N1542 Gd1522 2.622 . S
N1542 C1543 1.369 . S
N1542 C1544 1.338 . S
C1543 N1542 1.369 . S
C1543 C1547 1.415 . S
C1543 C1550 1.422 . S
C1544 H1535 0.929 . S
C1544 N1542 1.338 . S
C1544 C1546 1.378 . S
C1545 H1540 0.931 . S
C1545 C1546 1.348 . S
C1545 C1547 1.413 . S
C1546 H1541 0.930 . S
C1546 C1544 1.378 . S
C1546 C1545 1.348 . S
C1547 C1543 1.415 . S
C1547 C1545 1.413 . S
C1547 C1577 1.437 . S
H1548 C1577 0.929 . S
N1549 Gd1522 2.570 . S
N1549 C1550 1.359 . S
N1549 C1553 1.343 . S
C1550 C1543 1.422 . S
C1550 N1549 1.359 . S
C1550 C1552 1.421 . S
C1551 C1552 1.422 . S
C1551 C1554 1.321 . S
C1551 H1578 0.931 . S
C1552 C1550 1.421 . S
C1552 C1551 1.422 . S
C1552 C1576 1.417 . S
C1553 H1530 0.931 . S
C1553 N1549 1.343 . S
C1553 C1554 1.390 . S
C1554 H1532 0.930 . S
C1554 C1551 1.321 . S
C1554 C1553 1.390 . S
O1555 Gd1523 2.386 . S
O1555 C1567 1.265 . S
O1556 Gd1522 2.353 . S
O1556 C1567 1.242 . S
O1557 Gd1522 2.468 . S
O1557 C1575 1.263 . S
O1558 Gd1522 2.427 . S
O1558 C1575 1.252 . S
O1559 Gd1523 2.307 . S
O1559 C1568 1.261 . S
O1560 Gd1522 2.388 . S
O1560 C1568 1.252 . S
O1561 Gd1522 2.386 . S
O1561 C1579 1.265 . S
O1562 Gd1523 2.353 . S
O1562 C1579 1.242 . S
O1563 Gd1523 2.468 . S
O1563 C1587 1.263 . S
O1564 Gd1523 2.427 . S
O1564 C1587 1.252 . S
O1565 Gd1522 2.307 . S
O1565 C1580 1.261 . S
O1566 Gd1523 2.388 . S
O1566 C1580 1.252 . S
C1567 O1555 1.265 . S
C1567 O1556 1.242 . S
C1568 O1559 1.261 . S
C1568 O1560 1.252 . S
C1569 C1572 1.394 . S
C1569 C1574 1.370 . S
C1569 C1575 1.500 . S
C1570 C1573 1.383 . S
C1570 C1574 1.395 . S
C1571 C1572 1.396 . S
C1571 C1573 1.365 . S
C1571 H1588 0.929 . S
C1572 C1569 1.394 . S
C1572 C1571 1.396 . S
C1572 H1589 0.930 . S
C1573 C1570 1.383 . S
C1573 C1571 1.365 . S
C1573 H1590 0.931 . S
C1574 C1569 1.370 . S
C1574 C1570 1.395 . S
C1574 H1591 0.930 . S
C1575 Gd1522 2.805 . S
C1575 O1557 1.263 . S
C1575 O1558 1.252 . S
C1575 C1569 1.500 . S
C1576 H1538 0.930 . S
C1576 C1552 1.417 . S
C1576 C1577 1.329 . S
C1577 C1547 1.437 . S
C1577 H1548 0.929 . S
C1577 C1576 1.329 . S
H1578 C1551 0.931 . S
C1579 O1561 1.265 . S
C1579 O1562 1.242 . S
C1580 O1565 1.261 . S
C1580 O1566 1.252 . S
C1581 C1584 1.394 . S
C1581 C1586 1.370 . S
C1581 C1587 1.500 . S
C1582 C1585 1.383 . S
C1582 C1586 1.395 . S
C1583 C1584 1.396 . S
C1583 C1585 1.365 . S
C1583 H1592 0.929 . S
C1584 C1581 1.394 . S
C1584 C1583 1.396 . S
C1584 H1593 0.930 . S
C1585 C1582 1.383 . S
C1585 C1583 1.365 . S
C1585 H1594 0.931 . S
C1586 C1581 1.370 . S
C1586 C1582 1.395 . S
C1586 H1595 0.930 . S
C1587 Gd1523 2.805 . S
C1587 O1563 1.263 . S
C1587 O1564 1.252 . S
C1587 C1581 1.500 . S
H1588 C1571 0.929 . S
H1589 C1572 0.930 . S
H1590 C1573 0.931 . S
H1591 C1574 0.930 . S
H1592 C1583 0.929 . S
H1593 C1584 0.930 . S
H1594 C1585 0.931 . S
H1595 C1586 0.930 . S
C1596 C1598 1.422 . S
C1596 C1600 1.415 . S
C1596 N1602 1.369 . S
C1597 C1598 1.421 . S
C1597 C1599 1.417 . S
C1597 C1609 1.422 . S
C1598 C1596 1.422 . S
C1598 C1597 1.421 . S
C1598 N1608 1.359 . S
C1599 C1597 1.417 . S
C1599 C1601 1.329 . S
C1599 H1618 0.930 . S
C1600 C1596 1.415 . S
C1600 C1601 1.437 . S
C1600 C1604 1.413 . S
C1601 C1599 1.329 . S
C1601 C1600 1.437 . S
C1601 H1623 0.929 . S
N1602 C1596 1.369 . S
N1602 C1603 1.338 1_455 S
N1602 Gd1607 2.622 1_455 S
C1603 N1602 1.338 1_655 S
C1603 C1605 1.378 . S
C1603 H1615 0.929 . S
C1604 C1600 1.413 . S
C1604 C1605 1.348 1_455 S
C1604 H1620 0.931 . S
C1605 C1603 1.378 . S
C1605 C1604 1.348 1_655 S
C1605 H1621 0.930 . S
Gd1606 N1626 2.622 . S
Gd1606 N1633 2.570 . S
Gd1606 O1640 2.353 . S
Gd1606 O1641 2.468 . S
Gd1606 O1642 2.427 . S
Gd1606 O1644 2.388 . S
Gd1606 O1645 2.386 . S
Gd1606 O1649 2.307 . S
Gd1606 C1659 2.805 . S
Gd1607 N1602 2.622 1_655 S
Gd1607 N1608 2.570 1_655 S
Gd1607 O1639 2.386 . S
Gd1607 O1643 2.307 . S
Gd1607 O1646 2.353 . S
Gd1607 O1647 2.468 1_655 S
Gd1607 O1648 2.427 1_655 S
Gd1607 O1650 2.388 . S
Gd1607 C1671 2.805 1_655 S
N1608 C1598 1.359 . S
N1608 Gd1607 2.570 1_455 S
N1608 C1610 1.343 . S
C1609 C1597 1.422 . S
C1609 C1611 1.321 . S
C1609 H1617 0.931 . S
C1610 N1608 1.343 . S
C1610 C1611 1.390 . S
C1610 H1612 0.931 . S
C1611 C1609 1.321 . S
C1611 C1610 1.390 . S
C1611 H1613 0.930 . S
H1612 C1610 0.931 . S
H1613 C1611 0.930 . S
H1614 C1637 0.931 . S
H1615 C1603 0.929 . S
H1616 C1638 0.930 . S
H1617 C1609 0.931 . S
H1618 C1599 0.930 . S
H1619 C1628 0.929 . S
H1620 C1604 0.931 . S
H1621 C1605 0.930 . S
H1622 C1660 0.930 . S
H1623 C1601 0.929 . S
H1624 C1629 0.931 . S
H1625 C1630 0.930 . S
N1626 Gd1606 2.622 . S
N1626 C1627 1.369 . S
N1626 C1628 1.338 . S
C1627 N1626 1.369 . S
C1627 C1631 1.415 . S
C1627 C1634 1.422 . S
C1628 H1619 0.929 . S
C1628 N1626 1.338 . S
C1628 C1630 1.378 . S
C1629 H1624 0.931 . S
C1629 C1630 1.348 . S
C1629 C1631 1.413 . S
C1630 H1625 0.930 . S
C1630 C1628 1.378 . S
C1630 C1629 1.348 . S
C1631 C1627 1.415 . S
C1631 C1629 1.413 . S
C1631 C1661 1.437 . S
H1632 C1661 0.929 . S
N1633 Gd1606 2.570 . S
N1633 C1634 1.359 . S
N1633 C1637 1.343 . S
C1634 C1627 1.422 . S
C1634 N1633 1.359 . S
C1634 C1636 1.421 . S
C1635 C1636 1.422 . S
C1635 C1638 1.321 . S
C1635 H1662 0.931 . S
C1636 C1634 1.421 . S
C1636 C1635 1.422 . S
C1636 C1660 1.417 . S
C1637 H1614 0.931 . S
C1637 N1633 1.343 . S
C1637 C1638 1.390 . S
C1638 H1616 0.930 . S
C1638 C1635 1.321 . S
C1638 C1637 1.390 . S
O1639 Gd1607 2.386 . S
O1639 C1651 1.265 . S
O1640 Gd1606 2.353 . S
O1640 C1651 1.242 . S
O1641 Gd1606 2.468 . S
O1641 C1659 1.263 . S
O1642 Gd1606 2.427 . S
O1642 C1659 1.252 . S
O1643 Gd1607 2.307 . S
O1643 C1652 1.261 . S
O1644 Gd1606 2.388 . S
O1644 C1652 1.252 . S
O1645 Gd1606 2.386 . S
O1645 C1663 1.265 . S
O1646 Gd1607 2.353 . S
O1646 C1663 1.242 . S
O1647 Gd1607 2.468 1_455 S
O1647 C1671 1.263 . S
O1648 Gd1607 2.427 1_455 S
O1648 C1671 1.252 . S
O1649 Gd1606 2.307 . S
O1649 C1664 1.261 . S
O1650 Gd1607 2.388 . S
O1650 C1664 1.252 . S
C1651 O1639 1.265 . S
C1651 O1640 1.242 . S
C1652 O1643 1.261 . S
C1652 O1644 1.252 . S
C1653 C1656 1.394 . S
C1653 C1658 1.370 . S
C1653 C1659 1.500 . S
C1654 C1657 1.383 . S
C1654 C1658 1.395 . S
C1655 C1656 1.396 . S
C1655 C1657 1.365 . S
C1655 H1672 0.929 . S
C1656 C1653 1.394 . S
C1656 C1655 1.396 . S
C1656 H1673 0.930 . S
C1657 C1654 1.383 . S
C1657 C1655 1.365 . S
C1657 H1674 0.931 . S
C1658 C1653 1.370 . S
C1658 C1654 1.395 . S
C1658 H1675 0.930 . S
C1659 Gd1606 2.805 . S
C1659 O1641 1.263 . S
C1659 O1642 1.252 . S
C1659 C1653 1.500 . S
C1660 H1622 0.930 . S
C1660 C1636 1.417 . S
C1660 C1661 1.329 . S
C1661 C1631 1.437 . S
C1661 H1632 0.929 . S
C1661 C1660 1.329 . S
H1662 C1635 0.931 . S
C1663 O1645 1.265 . S
C1663 O1646 1.242 . S
C1664 O1649 1.261 . S
C1664 O1650 1.252 . S
C1665 C1668 1.394 . S
C1665 C1670 1.370 . S
C1665 C1671 1.500 . S
C1666 C1669 1.383 . S
C1666 C1670 1.395 . S
C1667 C1668 1.396 . S
C1667 C1669 1.365 . S
C1667 H1676 0.929 . S
C1668 C1665 1.394 . S
C1668 C1667 1.396 . S
C1668 H1677 0.930 . S
C1669 C1666 1.383 . S
C1669 C1667 1.365 . S
C1669 H1678 0.931 . S
C1670 C1665 1.370 . S
C1670 C1666 1.395 . S
C1670 H1679 0.930 . S
C1671 Gd1607 2.805 1_455 S
C1671 O1647 1.263 . S
C1671 O1648 1.252 . S
C1671 C1665 1.500 . S
H1672 C1655 0.929 . S
H1673 C1656 0.930 . S
H1674 C1657 0.931 . S
H1675 C1658 0.930 . S
H1676 C1667 0.929 . S
H1677 C1668 0.930 . S
H1678 C1669 0.931 . S
H1679 C1670 0.930 . S
C1680 C1682 1.422 . S
C1680 C1684 1.415 . S
C1680 N1686 1.369 . S
C1681 C1682 1.421 . S
C1681 C1683 1.417 . S
C1681 C1693 1.422 . S
C1682 C1680 1.422 . S
C1682 C1681 1.421 . S
C1682 N1692 1.359 . S
C1683 C1681 1.417 . S
C1683 C1685 1.329 . S
C1683 H1702 0.930 . S
C1684 C1680 1.415 . S
C1684 C1685 1.437 . S
C1684 C1688 1.413 . S
C1685 C1683 1.329 . S
C1685 C1684 1.437 . S
C1685 H1707 0.929 . S
N1686 C1680 1.369 . S
N1686 C1687 1.338 . S
N1686 Gd1691 2.622 . S
C1687 N1686 1.338 . S
C1687 C1689 1.378 . S
C1687 H1699 0.929 . S
C1688 C1684 1.413 . S
C1688 C1689 1.348 . S
C1688 H1704 0.931 . S
C1689 C1687 1.378 . S
C1689 C1688 1.348 . S
C1689 H1705 0.930 . S
Gd1690 N1710 2.622 . S
Gd1690 N1717 2.570 . S
Gd1690 O1724 2.353 . S
Gd1690 O1725 2.468 . S
Gd1690 O1726 2.427 . S
Gd1690 O1728 2.388 . S
Gd1690 O1729 2.386 . S
Gd1690 O1733 2.307 . S
Gd1690 C1743 2.805 . S
Gd1691 N1686 2.622 . S
Gd1691 N1692 2.570 . S
Gd1691 O1723 2.386 . S
Gd1691 O1727 2.307 . S
Gd1691 O1730 2.353 . S
Gd1691 O1731 2.468 . S
Gd1691 O1732 2.427 . S
Gd1691 O1734 2.388 . S
Gd1691 C1755 2.805 . S
N1692 C1682 1.359 . S
N1692 Gd1691 2.570 . S
N1692 C1694 1.343 . S
C1693 C1681 1.422 . S
C1693 C1695 1.321 . S
C1693 H1701 0.931 . S
C1694 N1692 1.343 . S
C1694 C1695 1.390 . S
C1694 H1696 0.931 . S
C1695 C1693 1.321 . S
C1695 C1694 1.390 . S
C1695 H1697 0.930 . S
H1696 C1694 0.931 . S
H1697 C1695 0.930 . S
H1698 C1721 0.931 . S
H1699 C1687 0.929 . S
H1700 C1722 0.930 . S
H1701 C1693 0.931 . S
H1702 C1683 0.930 . S
H1703 C1712 0.929 . S
H1704 C1688 0.931 . S
H1705 C1689 0.930 . S
H1706 C1744 0.930 . S
H1707 C1685 0.929 . S
H1708 C1713 0.931 . S
H1709 C1714 0.930 . S
N1710 Gd1690 2.622 . S
N1710 C1711 1.369 . S
N1710 C1712 1.338 . S
C1711 N1710 1.369 . S
C1711 C1715 1.415 . S
C1711 C1718 1.422 . S
C1712 H1703 0.929 . S
C1712 N1710 1.338 . S
C1712 C1714 1.378 . S
C1713 H1708 0.931 . S
C1713 C1714 1.348 . S
C1713 C1715 1.413 . S
C1714 H1709 0.930 . S
C1714 C1712 1.378 . S
C1714 C1713 1.348 . S
C1715 C1711 1.415 . S
C1715 C1713 1.413 . S
C1715 C1745 1.437 . S
H1716 C1745 0.929 . S
N1717 Gd1690 2.570 . S
N1717 C1718 1.359 . S
N1717 C1721 1.343 . S
C1718 C1711 1.422 . S
C1718 N1717 1.359 . S
C1718 C1720 1.421 . S
C1719 C1720 1.422 . S
C1719 C1722 1.321 . S
C1719 H1746 0.931 . S
C1720 C1718 1.421 . S
C1720 C1719 1.422 . S
C1720 C1744 1.417 . S
C1721 H1698 0.931 . S
C1721 N1717 1.343 . S
C1721 C1722 1.390 . S
C1722 H1700 0.930 . S
C1722 C1719 1.321 . S
C1722 C1721 1.390 . S
O1723 Gd1691 2.386 . S
O1723 C1735 1.265 . S
O1724 Gd1690 2.353 . S
O1724 C1735 1.242 . S
O1725 Gd1690 2.468 . S
O1725 C1743 1.263 . S
O1726 Gd1690 2.427 . S
O1726 C1743 1.252 . S
O1727 Gd1691 2.307 . S
O1727 C1736 1.261 . S
O1728 Gd1690 2.388 . S
O1728 C1736 1.252 . S
O1729 Gd1690 2.386 . S
O1729 C1747 1.265 . S
O1730 Gd1691 2.353 . S
O1730 C1747 1.242 . S
O1731 Gd1691 2.468 . S
O1731 C1755 1.263 . S
O1732 Gd1691 2.427 . S
O1732 C1755 1.252 . S
O1733 Gd1690 2.307 . S
O1733 C1748 1.261 . S
O1734 Gd1691 2.388 . S
O1734 C1748 1.252 . S
C1735 O1723 1.265 . S
C1735 O1724 1.242 . S
C1736 O1727 1.261 . S
C1736 O1728 1.252 . S
C1737 C1740 1.394 . S
C1737 C1742 1.370 . S
C1737 C1743 1.500 . S
C1738 C1741 1.383 . S
C1738 C1742 1.395 . S
C1739 C1740 1.396 . S
C1739 C1741 1.365 . S
C1739 H1756 0.929 . S
C1740 C1737 1.394 . S
C1740 C1739 1.396 . S
C1740 H1757 0.930 . S
C1741 C1738 1.383 . S
C1741 C1739 1.365 . S
C1741 H1758 0.931 . S
C1742 C1737 1.370 . S
C1742 C1738 1.395 . S
C1742 H1759 0.930 . S
C1743 Gd1690 2.805 . S
C1743 O1725 1.263 . S
C1743 O1726 1.252 . S
C1743 C1737 1.500 . S
C1744 H1706 0.930 . S
C1744 C1720 1.417 . S
C1744 C1745 1.329 . S
C1745 C1715 1.437 . S
C1745 H1716 0.929 . S
C1745 C1744 1.329 . S
H1746 C1719 0.931 . S
C1747 O1729 1.265 . S
C1747 O1730 1.242 . S
C1748 O1733 1.261 . S
C1748 O1734 1.252 . S
C1749 C1752 1.394 . S
C1749 C1754 1.370 . S
C1749 C1755 1.500 . S
C1750 C1753 1.383 . S
C1750 C1754 1.395 . S
C1751 C1752 1.396 . S
C1751 C1753 1.365 . S
C1751 H1760 0.929 . S
C1752 C1749 1.394 . S
C1752 C1751 1.396 . S
C1752 H1761 0.930 . S
C1753 C1750 1.383 . S
C1753 C1751 1.365 . S
C1753 H1762 0.931 . S
C1754 C1749 1.370 . S
C1754 C1750 1.395 . S
C1754 H1763 0.930 . S
C1755 Gd1691 2.805 . S
C1755 O1731 1.263 . S
C1755 O1732 1.252 . S
C1755 C1749 1.500 . S
H1756 C1739 0.929 . S
H1757 C1740 0.930 . S
H1758 C1741 0.931 . S
H1759 C1742 0.930 . S
H1760 C1751 0.929 . S
H1761 C1752 0.930 . S
H1762 C1753 0.931 . S
H1763 C1754 0.930 . S
C1764 C1766 1.422 . S
C1764 C1768 1.415 . S
C1764 N1770 1.369 . S
C1765 C1766 1.421 . S
C1765 C1767 1.417 . S
C1765 C1777 1.422 . S
C1766 C1764 1.422 . S
C1766 C1765 1.421 . S
C1766 N1776 1.359 . S
C1767 C1765 1.417 . S
C1767 C1769 1.329 . S
C1767 H1786 0.930 . S
C1768 C1764 1.415 . S
C1768 C1769 1.437 . S
C1768 C1772 1.413 . S
C1769 C1767 1.329 . S
C1769 C1768 1.437 . S
C1769 H1791 0.929 . S
N1770 C1764 1.369 . S
N1770 C1771 1.338 1_455 S
N1770 Gd1775 2.622 1_455 S
C1771 N1770 1.338 1_655 S
C1771 C1773 1.378 . S
C1771 H1783 0.929 . S
C1772 C1768 1.413 . S
C1772 C1773 1.348 1_455 S
C1772 H1788 0.931 . S
C1773 C1771 1.378 . S
C1773 C1772 1.348 1_655 S
C1773 H1789 0.930 . S
Gd1774 N1794 2.622 . S
Gd1774 N1801 2.570 . S
Gd1774 O1808 2.353 . S
Gd1774 O1809 2.468 . S
Gd1774 O1810 2.427 . S
Gd1774 O1812 2.388 . S
Gd1774 O1813 2.386 . S
Gd1774 O1817 2.307 . S
Gd1774 C1827 2.805 . S
Gd1775 N1770 2.622 1_655 S
Gd1775 N1776 2.570 1_655 S
Gd1775 O1807 2.386 . S
Gd1775 O1811 2.307 . S
Gd1775 O1814 2.353 . S
Gd1775 O1815 2.468 1_655 S
Gd1775 O1816 2.427 1_655 S
Gd1775 O1818 2.388 . S
Gd1775 C1839 2.805 1_655 S
N1776 C1766 1.359 . S
N1776 Gd1775 2.570 1_455 S
N1776 C1778 1.343 . S
C1777 C1765 1.422 . S
C1777 C1779 1.321 . S
C1777 H1785 0.931 . S
C1778 N1776 1.343 . S
C1778 C1779 1.390 . S
C1778 H1780 0.931 . S
C1779 C1777 1.321 . S
C1779 C1778 1.390 . S
C1779 H1781 0.930 . S
H1780 C1778 0.931 . S
H1781 C1779 0.930 . S
H1782 C1805 0.931 . S
H1783 C1771 0.929 . S
H1784 C1806 0.930 . S
H1785 C1777 0.931 . S
H1786 C1767 0.930 . S
H1787 C1796 0.929 . S
H1788 C1772 0.931 . S
H1789 C1773 0.930 . S
H1790 C1828 0.930 . S
H1791 C1769 0.929 . S
H1792 C1797 0.931 . S
H1793 C1798 0.930 . S
N1794 Gd1774 2.622 . S
N1794 C1795 1.369 . S
N1794 C1796 1.338 . S
C1795 N1794 1.369 . S
C1795 C1799 1.415 . S
C1795 C1802 1.422 . S
C1796 H1787 0.929 . S
C1796 N1794 1.338 . S
C1796 C1798 1.378 . S
C1797 H1792 0.931 . S
C1797 C1798 1.348 . S
C1797 C1799 1.413 . S
C1798 H1793 0.930 . S
C1798 C1796 1.378 . S
C1798 C1797 1.348 . S
C1799 C1795 1.415 . S
C1799 C1797 1.413 . S
C1799 C1829 1.437 . S
H1800 C1829 0.929 . S
N1801 Gd1774 2.570 . S
N1801 C1802 1.359 . S
N1801 C1805 1.343 . S
C1802 C1795 1.422 . S
C1802 N1801 1.359 . S
C1802 C1804 1.421 . S
C1803 C1804 1.422 . S
C1803 C1806 1.321 . S
C1803 H1830 0.931 . S
C1804 C1802 1.421 . S
C1804 C1803 1.422 . S
C1804 C1828 1.417 . S
C1805 H1782 0.931 . S
C1805 N1801 1.343 . S
C1805 C1806 1.390 . S
C1806 H1784 0.930 . S
C1806 C1803 1.321 . S
C1806 C1805 1.390 . S
O1807 Gd1775 2.386 . S
O1807 C1819 1.265 . S
O1808 Gd1774 2.353 . S
O1808 C1819 1.242 . S
O1809 Gd1774 2.468 . S
O1809 C1827 1.263 . S
O1810 Gd1774 2.427 . S
O1810 C1827 1.252 . S
O1811 Gd1775 2.307 . S
O1811 C1820 1.261 . S
O1812 Gd1774 2.388 . S
O1812 C1820 1.252 . S
O1813 Gd1774 2.386 . S
O1813 C1831 1.265 . S
O1814 Gd1775 2.353 . S
O1814 C1831 1.242 . S
O1815 Gd1775 2.468 1_455 S
O1815 C1839 1.263 . S
O1816 Gd1775 2.427 1_455 S
O1816 C1839 1.252 . S
O1817 Gd1774 2.307 . S
O1817 C1832 1.261 . S
O1818 Gd1775 2.388 . S
O1818 C1832 1.252 . S
C1819 O1807 1.265 . S
C1819 O1808 1.242 . S
C1820 O1811 1.261 . S
C1820 O1812 1.252 . S
C1821 C1824 1.394 . S
C1821 C1826 1.370 . S
C1821 C1827 1.500 . S
C1822 C1825 1.383 . S
C1822 C1826 1.395 . S
C1823 C1824 1.396 . S
C1823 C1825 1.365 . S
C1823 H1840 0.929 . S
C1824 C1821 1.394 . S
C1824 C1823 1.396 . S
C1824 H1841 0.930 . S
C1825 C1822 1.383 . S
C1825 C1823 1.365 . S
C1825 H1842 0.931 . S
C1826 C1821 1.370 . S
C1826 C1822 1.395 . S
C1826 H1843 0.930 . S
C1827 Gd1774 2.805 . S
C1827 O1809 1.263 . S
C1827 O1810 1.252 . S
C1827 C1821 1.500 . S
C1828 H1790 0.930 . S
C1828 C1804 1.417 . S
C1828 C1829 1.329 . S
C1829 C1799 1.437 . S
C1829 H1800 0.929 . S
C1829 C1828 1.329 . S
H1830 C1803 0.931 . S
C1831 O1813 1.265 . S
C1831 O1814 1.242 . S
C1832 O1817 1.261 . S
C1832 O1818 1.252 . S
C1833 C1836 1.394 . S
C1833 C1838 1.370 . S
C1833 C1839 1.500 . S
C1834 C1837 1.383 . S
C1834 C1838 1.395 . S
C1835 C1836 1.396 . S
C1835 C1837 1.365 . S
C1835 H1844 0.929 . S
C1836 C1833 1.394 . S
C1836 C1835 1.396 . S
C1836 H1845 0.930 . S
C1837 C1834 1.383 . S
C1837 C1835 1.365 . S
C1837 H1846 0.931 . S
C1838 C1833 1.370 . S
C1838 C1834 1.395 . S
C1838 H1847 0.930 . S
C1839 Gd1775 2.805 1_455 S
C1839 O1815 1.263 . S
C1839 O1816 1.252 . S
C1839 C1833 1.500 . S
H1840 C1823 0.929 . S
H1841 C1824 0.930 . S
H1842 C1825 0.931 . S
H1843 C1826 0.930 . S
H1844 C1835 0.929 . S
H1845 C1836 0.930 . S
H1846 C1837 0.931 . S
H1847 C1838 0.930 . S
C1848 C1850 1.422 . S
C1848 C1852 1.415 . S
C1848 N1854 1.369 . S
C1849 C1850 1.421 . S
C1849 C1851 1.417 . S
C1849 C1861 1.422 . S
C1850 C1848 1.422 . S
C1850 C1849 1.421 . S
C1850 N1860 1.359 . S
C1851 C1849 1.417 . S
C1851 C1853 1.329 . S
C1851 H1870 0.930 . S
C1852 C1848 1.415 . S
C1852 C1853 1.437 . S
C1852 C1856 1.413 . S
C1853 C1851 1.329 . S
C1853 C1852 1.437 . S
C1853 H1875 0.929 . S
N1854 C1848 1.369 . S
N1854 C1855 1.338 . S
N1854 Gd1859 2.622 . S
C1855 N1854 1.338 . S
C1855 C1857 1.378 . S
C1855 H1867 0.929 . S
C1856 C1852 1.413 . S
C1856 C1857 1.348 . S
C1856 H1872 0.931 . S
C1857 C1855 1.378 . S
C1857 C1856 1.348 . S
C1857 H1873 0.930 . S
Gd1858 N1878 2.622 . S
Gd1858 N1885 2.570 . S
Gd1858 O1892 2.353 . S
Gd1858 O1893 2.468 . S
Gd1858 O1894 2.427 . S
Gd1858 O1896 2.388 . S
Gd1858 O1897 2.386 . S
Gd1858 O1901 2.307 . S
Gd1858 C1911 2.805 . S
Gd1859 N1854 2.622 . S
Gd1859 N1860 2.570 . S
Gd1859 O1891 2.386 . S
Gd1859 O1895 2.307 . S
Gd1859 O1898 2.353 . S
Gd1859 O1899 2.468 . S
Gd1859 O1900 2.427 . S
Gd1859 O1902 2.388 . S
Gd1859 C1923 2.805 . S
N1860 C1850 1.359 . S
N1860 Gd1859 2.570 . S
N1860 C1862 1.343 . S
C1861 C1849 1.422 . S
C1861 C1863 1.321 . S
C1861 H1869 0.931 . S
C1862 N1860 1.343 . S
C1862 C1863 1.390 . S
C1862 H1864 0.931 . S
C1863 C1861 1.321 . S
C1863 C1862 1.390 . S
C1863 H1865 0.930 . S
H1864 C1862 0.931 . S
H1865 C1863 0.930 . S
H1866 C1889 0.931 . S
H1867 C1855 0.929 . S
H1868 C1890 0.930 . S
H1869 C1861 0.931 . S
H1870 C1851 0.930 . S
H1871 C1880 0.929 . S
H1872 C1856 0.931 . S
H1873 C1857 0.930 . S
H1874 C1912 0.930 . S
H1875 C1853 0.929 . S
H1876 C1881 0.931 . S
H1877 C1882 0.930 . S
N1878 Gd1858 2.622 . S
N1878 C1879 1.369 . S
N1878 C1880 1.338 . S
C1879 N1878 1.369 . S
C1879 C1883 1.415 . S
C1879 C1886 1.422 . S
C1880 H1871 0.929 . S
C1880 N1878 1.338 . S
C1880 C1882 1.378 . S
C1881 H1876 0.931 . S
C1881 C1882 1.348 . S
C1881 C1883 1.413 . S
C1882 H1877 0.930 . S
C1882 C1880 1.378 . S
C1882 C1881 1.348 . S
C1883 C1879 1.415 . S
C1883 C1881 1.413 . S
C1883 C1913 1.437 . S
H1884 C1913 0.929 . S
N1885 Gd1858 2.570 . S
N1885 C1886 1.359 . S
N1885 C1889 1.343 . S
C1886 C1879 1.422 . S
C1886 N1885 1.359 . S
C1886 C1888 1.421 . S
C1887 C1888 1.422 . S
C1887 C1890 1.321 . S
C1887 H1914 0.931 . S
C1888 C1886 1.421 . S
C1888 C1887 1.422 . S
C1888 C1912 1.417 . S
C1889 H1866 0.931 . S
C1889 N1885 1.343 . S
C1889 C1890 1.390 . S
C1890 H1868 0.930 . S
C1890 C1887 1.321 . S
C1890 C1889 1.390 . S
O1891 Gd1859 2.386 . S
O1891 C1903 1.265 . S
O1892 Gd1858 2.353 . S
O1892 C1903 1.242 . S
O1893 Gd1858 2.468 . S
O1893 C1911 1.263 . S
O1894 Gd1858 2.427 . S
O1894 C1911 1.252 . S
O1895 Gd1859 2.307 . S
O1895 C1904 1.261 . S
O1896 Gd1858 2.388 . S
O1896 C1904 1.252 . S
O1897 Gd1858 2.386 . S
O1897 C1915 1.265 . S
O1898 Gd1859 2.353 . S
O1898 C1915 1.242 . S
O1899 Gd1859 2.468 . S
O1899 C1923 1.263 . S
O1900 Gd1859 2.427 . S
O1900 C1923 1.252 . S
O1901 Gd1858 2.307 . S
O1901 C1916 1.261 . S
O1902 Gd1859 2.388 . S
O1902 C1916 1.252 . S
C1903 O1891 1.265 . S
C1903 O1892 1.242 . S
C1904 O1895 1.261 . S
C1904 O1896 1.252 . S
C1905 C1908 1.394 . S
C1905 C1910 1.370 . S
C1905 C1911 1.500 . S
C1906 C1909 1.383 . S
C1906 C1910 1.395 . S
C1907 C1908 1.396 . S
C1907 C1909 1.365 . S
C1907 H1924 0.929 . S
C1908 C1905 1.394 . S
C1908 C1907 1.396 . S
C1908 H1925 0.930 . S
C1909 C1906 1.383 . S
C1909 C1907 1.365 . S
C1909 H1926 0.931 . S
C1910 C1905 1.370 . S
C1910 C1906 1.395 . S
C1910 H1927 0.930 . S
C1911 Gd1858 2.805 . S
C1911 O1893 1.263 . S
C1911 O1894 1.252 . S
C1911 C1905 1.500 . S
C1912 H1874 0.930 . S
C1912 C1888 1.417 . S
C1912 C1913 1.329 . S
C1913 C1883 1.437 . S
C1913 H1884 0.929 . S
C1913 C1912 1.329 . S
H1914 C1887 0.931 . S
C1915 O1897 1.265 . S
C1915 O1898 1.242 . S
C1916 O1901 1.261 . S
C1916 O1902 1.252 . S
C1917 C1920 1.394 . S
C1917 C1922 1.370 . S
C1917 C1923 1.500 . S
C1918 C1921 1.383 . S
C1918 C1922 1.395 . S
C1919 C1920 1.396 . S
C1919 C1921 1.365 . S
C1919 H1928 0.929 . S
C1920 C1917 1.394 . S
C1920 C1919 1.396 . S
C1920 H1929 0.930 . S
C1921 C1918 1.383 . S
C1921 C1919 1.365 . S
C1921 H1930 0.931 . S
C1922 C1917 1.370 . S
C1922 C1918 1.395 . S
C1922 H1931 0.930 . S
C1923 Gd1859 2.805 . S
C1923 O1899 1.263 . S
C1923 O1900 1.252 . S
C1923 C1917 1.500 . S
H1924 C1907 0.929 . S
H1925 C1908 0.930 . S
H1926 C1909 0.931 . S
H1927 C1910 0.930 . S
H1928 C1919 0.929 . S
H1929 C1920 0.930 . S
H1930 C1921 0.931 . S
H1931 C1922 0.930 . S
C1932 C1934 1.422 . S
C1932 C1936 1.415 . S
C1932 N1938 1.369 . S
C1933 C1934 1.421 . S
C1933 C1935 1.417 . S
C1933 C1945 1.422 . S
C1934 C1932 1.422 . S
C1934 C1933 1.421 . S
C1934 N1944 1.359 . S
C1935 C1933 1.417 . S
C1935 C1937 1.329 . S
C1935 H1954 0.930 . S
C1936 C1932 1.415 . S
C1936 C1937 1.437 . S
C1936 C1940 1.413 . S
C1937 C1935 1.329 . S
C1937 C1936 1.437 . S
C1937 H1959 0.929 . S
N1938 C1932 1.369 . S
N1938 C1939 1.338 . S
N1938 Gd1943 2.622 . S
C1939 N1938 1.338 . S
C1939 C1941 1.378 . S
C1939 H1951 0.929 . S
C1940 C1936 1.413 . S
C1940 C1941 1.348 . S
C1940 H1956 0.931 . S
C1941 C1939 1.378 . S
C1941 C1940 1.348 . S
C1941 H1957 0.930 . S
Gd1942 N1962 2.622 . S
Gd1942 N1969 2.570 . S
Gd1942 O1976 2.353 . S
Gd1942 O1977 2.468 . S
Gd1942 O1978 2.427 . S
Gd1942 O1980 2.388 . S
Gd1942 O1981 2.386 . S
Gd1942 O1985 2.307 . S
Gd1942 C1995 2.805 . S
Gd1943 N1938 2.622 . S
Gd1943 N1944 2.570 . S
Gd1943 O1975 2.386 . S
Gd1943 O1979 2.307 . S
Gd1943 O1982 2.353 . S
Gd1943 O1983 2.468 . S
Gd1943 O1984 2.427 . S
Gd1943 O1986 2.388 . S
Gd1943 C2007 2.805 . S
N1944 C1934 1.359 . S
N1944 Gd1943 2.570 . S
N1944 C1946 1.343 . S
C1945 C1933 1.422 . S
C1945 C1947 1.321 . S
C1945 H1953 0.931 . S
C1946 N1944 1.343 . S
C1946 C1947 1.390 . S
C1946 H1948 0.931 . S
C1947 C1945 1.321 . S
C1947 C1946 1.390 . S
C1947 H1949 0.930 . S
H1948 C1946 0.931 . S
H1949 C1947 0.930 . S
H1950 C1973 0.931 . S
H1951 C1939 0.929 . S
H1952 C1974 0.930 . S
H1953 C1945 0.931 . S
H1954 C1935 0.930 . S
H1955 C1964 0.929 . S
H1956 C1940 0.931 . S
H1957 C1941 0.930 . S
H1958 C1996 0.930 . S
H1959 C1937 0.929 . S
H1960 C1965 0.931 . S
H1961 C1966 0.930 . S
N1962 Gd1942 2.622 . S
N1962 C1963 1.369 . S
N1962 C1964 1.338 . S
C1963 N1962 1.369 . S
C1963 C1967 1.415 . S
C1963 C1970 1.422 . S
C1964 H1955 0.929 . S
C1964 N1962 1.338 . S
C1964 C1966 1.378 . S
C1965 H1960 0.931 . S
C1965 C1966 1.348 . S
C1965 C1967 1.413 . S
C1966 H1961 0.930 . S
C1966 C1964 1.378 . S
C1966 C1965 1.348 . S
C1967 C1963 1.415 . S
C1967 C1965 1.413 . S
C1967 C1997 1.437 . S
H1968 C1997 0.929 . S
N1969 Gd1942 2.570 . S
N1969 C1970 1.359 . S
N1969 C1973 1.343 . S
C1970 C1963 1.422 . S
C1970 N1969 1.359 . S
C1970 C1972 1.421 . S
C1971 C1972 1.422 . S
C1971 C1974 1.321 . S
C1971 H1998 0.931 . S
C1972 C1970 1.421 . S
C1972 C1971 1.422 . S
C1972 C1996 1.417 . S
C1973 H1950 0.931 . S
C1973 N1969 1.343 . S
C1973 C1974 1.390 . S
C1974 H1952 0.930 . S
C1974 C1971 1.321 . S
C1974 C1973 1.390 . S
O1975 Gd1943 2.386 . S
O1975 C1987 1.265 . S
O1976 Gd1942 2.353 . S
O1976 C1987 1.242 . S
O1977 Gd1942 2.468 . S
O1977 C1995 1.263 . S
O1978 Gd1942 2.427 . S
O1978 C1995 1.252 . S
O1979 Gd1943 2.307 . S
O1979 C1988 1.261 . S
O1980 Gd1942 2.388 . S
O1980 C1988 1.252 . S
O1981 Gd1942 2.386 . S
O1981 C1999 1.265 . S
O1982 Gd1943 2.353 . S
O1982 C1999 1.242 . S
O1983 Gd1943 2.468 . S
O1983 C2007 1.263 . S
O1984 Gd1943 2.427 . S
O1984 C2007 1.252 . S
O1985 Gd1942 2.307 . S
O1985 C2000 1.261 . S
O1986 Gd1943 2.388 . S
O1986 C2000 1.252 . S
C1987 O1975 1.265 . S
C1987 O1976 1.242 . S
C1988 O1979 1.261 . S
C1988 O1980 1.252 . S
C1989 C1992 1.394 . S
C1989 C1994 1.370 . S
C1989 C1995 1.500 . S
C1990 C1993 1.383 . S
C1990 C1994 1.395 . S
C1991 C1992 1.396 . S
C1991 C1993 1.365 . S
C1991 H2008 0.929 . S
C1992 C1989 1.394 . S
C1992 C1991 1.396 . S
C1992 H2009 0.930 . S
C1993 C1990 1.383 . S
C1993 C1991 1.365 . S
C1993 H2010 0.931 . S
C1994 C1989 1.370 . S
C1994 C1990 1.395 . S
C1994 H2011 0.930 . S
C1995 Gd1942 2.805 . S
C1995 O1977 1.263 . S
C1995 O1978 1.252 . S
C1995 C1989 1.500 . S
C1996 H1958 0.930 . S
C1996 C1972 1.417 . S
C1996 C1997 1.329 . S
C1997 C1967 1.437 . S
C1997 H1968 0.929 . S
C1997 C1996 1.329 . S
H1998 C1971 0.931 . S
C1999 O1981 1.265 . S
C1999 O1982 1.242 . S
C2000 O1985 1.261 . S
C2000 O1986 1.252 . S
C2001 C2004 1.394 . S
C2001 C2006 1.370 . S
C2001 C2007 1.500 . S
C2002 C2005 1.383 . S
C2002 C2006 1.395 . S
C2003 C2004 1.396 . S
C2003 C2005 1.365 . S
C2003 H2012 0.929 . S
C2004 C2001 1.394 . S
C2004 C2003 1.396 . S
C2004 H2013 0.930 . S
C2005 C2002 1.383 . S
C2005 C2003 1.365 . S
C2005 H2014 0.931 . S
C2006 C2001 1.370 . S
C2006 C2002 1.395 . S
C2006 H2015 0.930 . S
C2007 Gd1943 2.805 . S
C2007 O1983 1.263 . S
C2007 O1984 1.252 . S
C2007 C2001 1.500 . S
H2008 C1991 0.929 . S
H2009 C1992 0.930 . S
H2010 C1993 0.931 . S
H2011 C1994 0.930 . S
H2012 C2003 0.929 . S
H2013 C2004 0.930 . S
H2014 C2005 0.931 . S
H2015 C2006 0.930 . S
C2016 C2018 1.422 . S
C2016 C2020 1.415 . S
C2016 N2022 1.369 . S
C2017 C2018 1.421 . S
C2017 C2019 1.417 . S
C2017 C2029 1.422 . S
C2018 C2016 1.422 . S
C2018 C2017 1.421 . S
C2018 N2028 1.359 . S
C2019 C2017 1.417 . S
C2019 C2021 1.329 . S
C2019 H2038 0.930 . S
C2020 C2016 1.415 . S
C2020 C2021 1.437 . S
C2020 C2024 1.413 . S
C2021 C2019 1.329 . S
C2021 C2020 1.437 . S
C2021 H2043 0.929 . S
N2022 C2016 1.369 . S
N2022 C2023 1.338 . S
N2022 Gd2027 2.622 . S
C2023 N2022 1.338 . S
C2023 C2025 1.378 . S
C2023 H2035 0.929 . S
C2024 C2020 1.413 . S
C2024 C2025 1.348 . S
C2024 H2040 0.931 . S
C2025 C2023 1.378 . S
C2025 C2024 1.348 . S
C2025 H2041 0.930 . S
Gd2026 N2046 2.622 . S
Gd2026 N2053 2.570 . S
Gd2026 O2060 2.353 . S
Gd2026 O2061 2.468 . S
Gd2026 O2062 2.427 . S
Gd2026 O2064 2.388 . S
Gd2026 O2065 2.386 . S
Gd2026 O2069 2.307 . S
Gd2026 C2079 2.805 . S
Gd2027 N2022 2.622 . S
Gd2027 N2028 2.570 . S
Gd2027 O2059 2.386 . S
Gd2027 O2063 2.307 . S
Gd2027 O2066 2.353 . S
Gd2027 O2067 2.468 . S
Gd2027 O2068 2.427 . S
Gd2027 O2070 2.388 . S
Gd2027 C2091 2.805 . S
N2028 C2018 1.359 . S
N2028 Gd2027 2.570 . S
N2028 C2030 1.343 . S
C2029 C2017 1.422 . S
C2029 C2031 1.321 . S
C2029 H2037 0.931 . S
C2030 N2028 1.343 . S
C2030 C2031 1.390 . S
C2030 H2032 0.931 . S
C2031 C2029 1.321 . S
C2031 C2030 1.390 . S
C2031 H2033 0.930 . S
H2032 C2030 0.931 . S
H2033 C2031 0.930 . S
H2034 C2057 0.931 . S
H2035 C2023 0.929 . S
H2036 C2058 0.930 . S
H2037 C2029 0.931 . S
H2038 C2019 0.930 . S
H2039 C2048 0.929 . S
H2040 C2024 0.931 . S
H2041 C2025 0.930 . S
H2042 C2080 0.930 . S
H2043 C2021 0.929 . S
H2044 C2049 0.931 . S
H2045 C2050 0.930 . S
N2046 Gd2026 2.622 . S
N2046 C2047 1.369 . S
N2046 C2048 1.338 . S
C2047 N2046 1.369 . S
C2047 C2051 1.415 . S
C2047 C2054 1.422 . S
C2048 H2039 0.929 . S
C2048 N2046 1.338 . S
C2048 C2050 1.378 . S
C2049 H2044 0.931 . S
C2049 C2050 1.348 . S
C2049 C2051 1.413 . S
C2050 H2045 0.930 . S
C2050 C2048 1.378 . S
C2050 C2049 1.348 . S
C2051 C2047 1.415 . S
C2051 C2049 1.413 . S
C2051 C2081 1.437 . S
H2052 C2081 0.929 . S
N2053 Gd2026 2.570 . S
N2053 C2054 1.359 . S
N2053 C2057 1.343 . S
C2054 C2047 1.422 . S
C2054 N2053 1.359 . S
C2054 C2056 1.421 . S
C2055 C2056 1.422 . S
C2055 C2058 1.321 . S
C2055 H2082 0.931 . S
C2056 C2054 1.421 . S
C2056 C2055 1.422 . S
C2056 C2080 1.417 . S
C2057 H2034 0.931 . S
C2057 N2053 1.343 . S
C2057 C2058 1.390 . S
C2058 H2036 0.930 . S
C2058 C2055 1.321 . S
C2058 C2057 1.390 . S
O2059 Gd2027 2.386 . S
O2059 C2071 1.265 . S
O2060 Gd2026 2.353 . S
O2060 C2071 1.242 . S
O2061 Gd2026 2.468 . S
O2061 C2079 1.263 . S
O2062 Gd2026 2.427 . S
O2062 C2079 1.252 . S
O2063 Gd2027 2.307 . S
O2063 C2072 1.261 . S
O2064 Gd2026 2.388 . S
O2064 C2072 1.252 . S
O2065 Gd2026 2.386 . S
O2065 C2083 1.265 . S
O2066 Gd2027 2.353 . S
O2066 C2083 1.242 . S
O2067 Gd2027 2.468 . S
O2067 C2091 1.263 . S
O2068 Gd2027 2.427 . S
O2068 C2091 1.252 . S
O2069 Gd2026 2.307 . S
O2069 C2084 1.261 . S
O2070 Gd2027 2.388 . S
O2070 C2084 1.252 . S
C2071 O2059 1.265 . S
C2071 O2060 1.242 . S
C2072 O2063 1.261 . S
C2072 O2064 1.252 . S
C2073 C2076 1.394 . S
C2073 C2078 1.370 . S
C2073 C2079 1.500 . S
C2074 C2077 1.383 . S
C2074 C2078 1.395 . S
C2075 C2076 1.396 . S
C2075 C2077 1.365 . S
C2075 H2092 0.929 . S
C2076 C2073 1.394 . S
C2076 C2075 1.396 . S
C2076 H2093 0.930 . S
C2077 C2074 1.383 . S
C2077 C2075 1.365 . S
C2077 H2094 0.931 . S
C2078 C2073 1.370 . S
C2078 C2074 1.395 . S
C2078 H2095 0.930 . S
C2079 Gd2026 2.805 . S
C2079 O2061 1.263 . S
C2079 O2062 1.252 . S
C2079 C2073 1.500 . S
C2080 H2042 0.930 . S
C2080 C2056 1.417 . S
C2080 C2081 1.329 . S
C2081 C2051 1.437 . S
C2081 H2052 0.929 . S
C2081 C2080 1.329 . S
H2082 C2055 0.931 . S
C2083 O2065 1.265 . S
C2083 O2066 1.242 . S
C2084 O2069 1.261 . S
C2084 O2070 1.252 . S
C2085 C2088 1.394 . S
C2085 C2090 1.370 . S
C2085 C2091 1.500 . S
C2086 C2089 1.383 . S
C2086 C2090 1.395 . S
C2087 C2088 1.396 . S
C2087 C2089 1.365 . S
C2087 H2096 0.929 . S
C2088 C2085 1.394 . S
C2088 C2087 1.396 . S
C2088 H2097 0.930 . S
C2089 C2086 1.383 . S
C2089 C2087 1.365 . S
C2089 H2098 0.931 . S
C2090 C2085 1.370 . S
C2090 C2086 1.395 . S
C2090 H2099 0.930 . S
C2091 Gd2027 2.805 . S
C2091 O2067 1.263 . S
C2091 O2068 1.252 . S
C2091 C2085 1.500 . S
H2092 C2075 0.929 . S
H2093 C2076 0.930 . S
H2094 C2077 0.931 . S
H2095 C2078 0.930 . S
H2096 C2087 0.929 . S
H2097 C2088 0.930 . S
H2098 C2089 0.931 . S
H2099 C2090 0.930 . S
C2100 C2102 1.422 . S
C2100 C2104 1.415 . S
C2100 N2106 1.369 . S
C2101 C2102 1.421 . S
C2101 C2103 1.417 . S
C2101 C2113 1.422 . S
C2102 C2100 1.422 . S
C2102 C2101 1.421 . S
C2102 N2112 1.359 . S
C2103 C2101 1.417 . S
C2103 C2105 1.329 . S
C2103 H2122 0.930 . S
C2104 C2100 1.415 . S
C2104 C2105 1.437 . S
C2104 C2108 1.413 . S
C2105 C2103 1.329 . S
C2105 C2104 1.437 . S
C2105 H2127 0.929 . S
N2106 C2100 1.369 . S
N2106 C2107 1.338 . S
N2106 Gd2111 2.622 . S
C2107 N2106 1.338 . S
C2107 C2109 1.378 . S
C2107 H2119 0.929 . S
C2108 C2104 1.413 . S
C2108 C2109 1.348 . S
C2108 H2124 0.931 . S
C2109 C2107 1.378 . S
C2109 C2108 1.348 . S
C2109 H2125 0.930 . S
Gd2110 N2130 2.622 . S
Gd2110 N2137 2.570 . S
Gd2110 O2144 2.353 . S
Gd2110 O2145 2.468 . S
Gd2110 O2146 2.427 . S
Gd2110 O2148 2.388 . S
Gd2110 O2149 2.386 . S
Gd2110 O2153 2.307 . S
Gd2110 C2163 2.805 . S
Gd2111 N2106 2.622 . S
Gd2111 N2112 2.570 . S
Gd2111 O2143 2.386 . S
Gd2111 O2147 2.307 . S
Gd2111 O2150 2.353 . S
Gd2111 O2151 2.468 . S
Gd2111 O2152 2.427 . S
Gd2111 O2154 2.388 . S
Gd2111 C2175 2.805 . S
N2112 C2102 1.359 . S
N2112 Gd2111 2.570 . S
N2112 C2114 1.343 . S
C2113 C2101 1.422 . S
C2113 C2115 1.321 . S
C2113 H2121 0.931 . S
C2114 N2112 1.343 . S
C2114 C2115 1.390 . S
C2114 H2116 0.931 . S
C2115 C2113 1.321 . S
C2115 C2114 1.390 . S
C2115 H2117 0.930 . S
H2116 C2114 0.931 . S
H2117 C2115 0.930 . S
H2118 C2141 0.931 . S
H2119 C2107 0.929 . S
H2120 C2142 0.930 . S
H2121 C2113 0.931 . S
H2122 C2103 0.930 . S
H2123 C2132 0.929 . S
H2124 C2108 0.931 . S
H2125 C2109 0.930 . S
H2126 C2164 0.930 . S
H2127 C2105 0.929 . S
H2128 C2133 0.931 . S
H2129 C2134 0.930 . S
N2130 Gd2110 2.622 . S
N2130 C2131 1.369 . S
N2130 C2132 1.338 . S
C2131 N2130 1.369 . S
C2131 C2135 1.415 . S
C2131 C2138 1.422 . S
C2132 H2123 0.929 . S
C2132 N2130 1.338 . S
C2132 C2134 1.378 . S
C2133 H2128 0.931 . S
C2133 C2134 1.348 . S
C2133 C2135 1.413 . S
C2134 H2129 0.930 . S
C2134 C2132 1.378 . S
C2134 C2133 1.348 . S
C2135 C2131 1.415 . S
C2135 C2133 1.413 . S
C2135 C2165 1.437 . S
H2136 C2165 0.929 . S
N2137 Gd2110 2.570 . S
N2137 C2138 1.359 . S
N2137 C2141 1.343 . S
C2138 C2131 1.422 . S
C2138 N2137 1.359 . S
C2138 C2140 1.421 . S
C2139 C2140 1.422 . S
C2139 C2142 1.321 . S
C2139 H2166 0.931 . S
C2140 C2138 1.421 . S
C2140 C2139 1.422 . S
C2140 C2164 1.417 . S
C2141 H2118 0.931 . S
C2141 N2137 1.343 . S
C2141 C2142 1.390 . S
C2142 H2120 0.930 . S
C2142 C2139 1.321 . S
C2142 C2141 1.390 . S
O2143 Gd2111 2.386 . S
O2143 C2155 1.265 . S
O2144 Gd2110 2.353 . S
O2144 C2155 1.242 . S
O2145 Gd2110 2.468 . S
O2145 C2163 1.263 . S
O2146 Gd2110 2.427 . S
O2146 C2163 1.252 . S
O2147 Gd2111 2.307 . S
O2147 C2156 1.261 . S
O2148 Gd2110 2.388 . S
O2148 C2156 1.252 . S
O2149 Gd2110 2.386 . S
O2149 C2167 1.265 . S
O2150 Gd2111 2.353 . S
O2150 C2167 1.242 . S
O2151 Gd2111 2.468 . S
O2151 C2175 1.263 . S
O2152 Gd2111 2.427 . S
O2152 C2175 1.252 . S
O2153 Gd2110 2.307 . S
O2153 C2168 1.261 . S
O2154 Gd2111 2.388 . S
O2154 C2168 1.252 . S
C2155 O2143 1.265 . S
C2155 O2144 1.242 . S
C2156 O2147 1.261 . S
C2156 O2148 1.252 . S
C2157 C2160 1.394 . S
C2157 C2162 1.370 . S
C2157 C2163 1.500 . S
C2158 C2161 1.383 . S
C2158 C2162 1.395 . S
C2159 C2160 1.396 . S
C2159 C2161 1.365 . S
C2159 H2176 0.929 . S
C2160 C2157 1.394 . S
C2160 C2159 1.396 . S
C2160 H2177 0.930 . S
C2161 C2158 1.383 . S
C2161 C2159 1.365 . S
C2161 H2178 0.931 . S
C2162 C2157 1.370 . S
C2162 C2158 1.395 . S
C2162 H2179 0.930 . S
C2163 Gd2110 2.805 . S
C2163 O2145 1.263 . S
C2163 O2146 1.252 . S
C2163 C2157 1.500 . S
C2164 H2126 0.930 . S
C2164 C2140 1.417 . S
C2164 C2165 1.329 . S
C2165 C2135 1.437 . S
C2165 H2136 0.929 . S
C2165 C2164 1.329 . S
H2166 C2139 0.931 . S
C2167 O2149 1.265 . S
C2167 O2150 1.242 . S
C2168 O2153 1.261 . S
C2168 O2154 1.252 . S
C2169 C2172 1.394 . S
C2169 C2174 1.370 . S
C2169 C2175 1.500 . S
C2170 C2173 1.383 . S
C2170 C2174 1.395 . S
C2171 C2172 1.396 . S
C2171 C2173 1.365 . S
C2171 H2180 0.929 . S
C2172 C2169 1.394 . S
C2172 C2171 1.396 . S
C2172 H2181 0.930 . S
C2173 C2170 1.383 . S
C2173 C2171 1.365 . S
C2173 H2182 0.931 . S
C2174 C2169 1.370 . S
C2174 C2170 1.395 . S
C2174 H2183 0.930 . S
C2175 Gd2111 2.805 . S
C2175 O2151 1.263 . S
C2175 O2152 1.252 . S
C2175 C2169 1.500 . S
H2176 C2159 0.929 . S
H2177 C2160 0.930 . S
H2178 C2161 0.931 . S
H2179 C2162 0.930 . S
H2180 C2171 0.929 . S
H2181 C2172 0.930 . S
H2182 C2173 0.931 . S
H2183 C2174 0.930 . S
C2184 C2186 1.422 . S
C2184 C2188 1.415 . S
C2184 N2190 1.369 . S
C2185 C2186 1.421 . S
C2185 C2187 1.417 . S
C2185 C2197 1.422 . S
C2186 C2184 1.422 . S
C2186 C2185 1.421 . S
C2186 N2196 1.359 . S
C2187 C2185 1.417 . S
C2187 C2189 1.329 . S
C2187 H2206 0.930 . S
C2188 C2184 1.415 . S
C2188 C2189 1.437 . S
C2188 C2192 1.413 . S
C2189 C2187 1.329 . S
C2189 C2188 1.437 . S
C2189 H2211 0.929 . S
N2190 C2184 1.369 . S
N2190 C2191 1.338 . S
N2190 Gd2195 2.622 . S
C2191 N2190 1.338 . S
C2191 C2193 1.378 . S
C2191 H2203 0.929 . S
C2192 C2188 1.413 . S
C2192 C2193 1.348 . S
C2192 H2208 0.931 . S
C2193 C2191 1.378 . S
C2193 C2192 1.348 . S
C2193 H2209 0.930 . S
Gd2194 N2214 2.622 . S
Gd2194 N2221 2.570 . S
Gd2194 O2228 2.353 . S
Gd2194 O2229 2.468 . S
Gd2194 O2230 2.427 . S
Gd2194 O2232 2.388 . S
Gd2194 O2233 2.386 . S
Gd2194 O2237 2.307 . S
Gd2194 C2247 2.805 . S
Gd2195 N2190 2.622 . S
Gd2195 N2196 2.570 . S
Gd2195 O2227 2.386 . S
Gd2195 O2231 2.307 . S
Gd2195 O2234 2.353 . S
Gd2195 O2235 2.468 . S
Gd2195 O2236 2.427 . S
Gd2195 O2238 2.388 . S
Gd2195 C2259 2.805 . S
N2196 C2186 1.359 . S
N2196 Gd2195 2.570 . S
N2196 C2198 1.343 . S
C2197 C2185 1.422 . S
C2197 C2199 1.321 . S
C2197 H2205 0.931 . S
C2198 N2196 1.343 . S
C2198 C2199 1.390 . S
C2198 H2200 0.931 . S
C2199 C2197 1.321 . S
C2199 C2198 1.390 . S
C2199 H2201 0.930 . S
H2200 C2198 0.931 . S
H2201 C2199 0.930 . S
H2202 C2225 0.931 . S
H2203 C2191 0.929 . S
H2204 C2226 0.930 . S
H2205 C2197 0.931 . S
H2206 C2187 0.930 . S
H2207 C2216 0.929 . S
H2208 C2192 0.931 . S
H2209 C2193 0.930 . S
H2210 C2248 0.930 . S
H2211 C2189 0.929 . S
H2212 C2217 0.931 . S
H2213 C2218 0.930 . S
N2214 Gd2194 2.622 . S
N2214 C2215 1.369 . S
N2214 C2216 1.338 . S
C2215 N2214 1.369 . S
C2215 C2219 1.415 . S
C2215 C2222 1.422 . S
C2216 H2207 0.929 . S
C2216 N2214 1.338 . S
C2216 C2218 1.378 . S
C2217 H2212 0.931 . S
C2217 C2218 1.348 . S
C2217 C2219 1.413 . S
C2218 H2213 0.930 . S
C2218 C2216 1.378 . S
C2218 C2217 1.348 . S
C2219 C2215 1.415 . S
C2219 C2217 1.413 . S
C2219 C2249 1.437 . S
H2220 C2249 0.929 . S
N2221 Gd2194 2.570 . S
N2221 C2222 1.359 . S
N2221 C2225 1.343 . S
C2222 C2215 1.422 . S
C2222 N2221 1.359 . S
C2222 C2224 1.421 . S
C2223 C2224 1.422 . S
C2223 C2226 1.321 . S
C2223 H2250 0.931 . S
C2224 C2222 1.421 . S
C2224 C2223 1.422 . S
C2224 C2248 1.417 . S
C2225 H2202 0.931 . S
C2225 N2221 1.343 . S
C2225 C2226 1.390 . S
C2226 H2204 0.930 . S
C2226 C2223 1.321 . S
C2226 C2225 1.390 . S
O2227 Gd2195 2.386 . S
O2227 C2239 1.265 . S
O2228 Gd2194 2.353 . S
O2228 C2239 1.242 . S
O2229 Gd2194 2.468 . S
O2229 C2247 1.263 . S
O2230 Gd2194 2.427 . S
O2230 C2247 1.252 . S
O2231 Gd2195 2.307 . S
O2231 C2240 1.261 . S
O2232 Gd2194 2.388 . S
O2232 C2240 1.252 . S
O2233 Gd2194 2.386 . S
O2233 C2251 1.265 . S
O2234 Gd2195 2.353 . S
O2234 C2251 1.242 . S
O2235 Gd2195 2.468 . S
O2235 C2259 1.263 . S
O2236 Gd2195 2.427 . S
O2236 C2259 1.252 . S
O2237 Gd2194 2.307 . S
O2237 C2252 1.261 . S
O2238 Gd2195 2.388 . S
O2238 C2252 1.252 . S
C2239 O2227 1.265 . S
C2239 O2228 1.242 . S
C2240 O2231 1.261 . S
C2240 O2232 1.252 . S
C2241 C2244 1.394 . S
C2241 C2246 1.370 . S
C2241 C2247 1.500 . S
C2242 C2245 1.383 . S
C2242 C2246 1.395 . S
C2243 C2244 1.396 . S
C2243 C2245 1.365 . S
C2243 H2260 0.929 . S
C2244 C2241 1.394 . S
C2244 C2243 1.396 . S
C2244 H2261 0.930 . S
C2245 C2242 1.383 . S
C2245 C2243 1.365 . S
C2245 H2262 0.931 . S
C2246 C2241 1.370 . S
C2246 C2242 1.395 . S
C2246 H2263 0.930 . S
C2247 Gd2194 2.805 . S
C2247 O2229 1.263 . S
C2247 O2230 1.252 . S
C2247 C2241 1.500 . S
C2248 H2210 0.930 . S
C2248 C2224 1.417 . S
C2248 C2249 1.329 . S
C2249 C2219 1.437 . S
C2249 H2220 0.929 . S
C2249 C2248 1.329 . S
H2250 C2223 0.931 . S
C2251 O2233 1.265 . S
C2251 O2234 1.242 . S
C2252 O2237 1.261 . S
C2252 O2238 1.252 . S
C2253 C2256 1.394 . S
C2253 C2258 1.370 . S
C2253 C2259 1.500 . S
C2254 C2257 1.383 . S
C2254 C2258 1.395 . S
C2255 C2256 1.396 . S
C2255 C2257 1.365 . S
C2255 H2264 0.929 . S
C2256 C2253 1.394 . S
C2256 C2255 1.396 . S
C2256 H2265 0.930 . S
C2257 C2254 1.383 . S
C2257 C2255 1.365 . S
C2257 H2266 0.931 . S
C2258 C2253 1.370 . S
C2258 C2254 1.395 . S
C2258 H2267 0.930 . S
C2259 Gd2195 2.805 . S
C2259 O2235 1.263 . S
C2259 O2236 1.252 . S
C2259 C2253 1.500 . S
H2260 C2243 0.929 . S
H2261 C2244 0.930 . S
H2262 C2245 0.931 . S
H2263 C2246 0.930 . S
H2264 C2255 0.929 . S
H2265 C2256 0.930 . S
H2266 C2257 0.931 . S
H2267 C2258 0.930 . S
C2268 C2270 1.422 . S
C2268 C2272 1.415 . S
C2268 N2274 1.369 . S
C2269 C2270 1.421 . S
C2269 C2271 1.417 . S
C2269 C2281 1.422 . S
C2270 C2268 1.422 . S
C2270 C2269 1.421 . S
C2270 N2280 1.359 . S
C2271 C2269 1.417 . S
C2271 C2273 1.329 . S
C2271 H2290 0.930 . S
C2272 C2268 1.415 . S
C2272 C2273 1.437 . S
C2272 C2276 1.413 . S
C2273 C2271 1.329 . S
C2273 C2272 1.437 . S
C2273 H2295 0.929 . S
N2274 C2268 1.369 . S
N2274 C2275 1.338 . S
N2274 Gd2279 2.622 . S
C2275 N2274 1.338 . S
C2275 C2277 1.378 . S
C2275 H2287 0.929 . S
C2276 C2272 1.413 . S
C2276 C2277 1.348 . S
C2276 H2292 0.931 . S
C2277 C2275 1.378 . S
C2277 C2276 1.348 . S
C2277 H2293 0.930 . S
Gd2278 N2298 2.622 1_455 S
Gd2278 N2305 2.570 1_455 S
Gd2278 O2312 2.353 . S
Gd2278 O2313 2.468 1_455 S
Gd2278 O2314 2.427 1_455 S
Gd2278 O2316 2.388 . S
Gd2278 O2317 2.386 . S
Gd2278 O2321 2.307 . S
Gd2278 C2331 2.805 1_455 S
Gd2279 N2274 2.622 . S
Gd2279 N2280 2.570 . S
Gd2279 O2311 2.386 . S
Gd2279 O2315 2.307 . S
Gd2279 O2318 2.353 . S
Gd2279 O2319 2.468 . S
Gd2279 O2320 2.427 . S
Gd2279 O2322 2.388 . S
Gd2279 C2343 2.805 . S
N2280 C2270 1.359 . S
N2280 Gd2279 2.570 . S
N2280 C2282 1.343 . S
C2281 C2269 1.422 . S
C2281 C2283 1.321 . S
C2281 H2289 0.931 . S
C2282 N2280 1.343 . S
C2282 C2283 1.390 . S
C2282 H2284 0.931 . S
C2283 C2281 1.321 . S
C2283 C2282 1.390 . S
C2283 H2285 0.930 . S
H2284 C2282 0.931 . S
H2285 C2283 0.930 . S
H2286 C2309 0.931 . S
H2287 C2275 0.929 . S
H2288 C2310 0.930 . S
H2289 C2281 0.931 . S
H2290 C2271 0.930 . S
H2291 C2300 0.929 . S
H2292 C2276 0.931 . S
H2293 C2277 0.930 . S
H2294 C2332 0.930 . S
H2295 C2273 0.929 . S
H2296 C2301 0.931 . S
H2297 C2302 0.930 . S
N2298 Gd2278 2.622 1_655 S
N2298 C2299 1.369 . S
N2298 C2300 1.338 1_655 S
C2299 N2298 1.369 . S
C2299 C2303 1.415 . S
C2299 C2306 1.422 . S
C2300 H2291 0.929 . S
C2300 N2298 1.338 1_455 S
C2300 C2302 1.378 . S
C2301 H2296 0.931 . S
C2301 C2302 1.348 1_655 S
C2301 C2303 1.413 . S
C2302 H2297 0.930 . S
C2302 C2300 1.378 . S
C2302 C2301 1.348 1_455 S
C2303 C2299 1.415 . S
C2303 C2301 1.413 . S
C2303 C2333 1.437 . S
H2304 C2333 0.929 . S
N2305 Gd2278 2.570 1_655 S
N2305 C2306 1.359 . S
N2305 C2309 1.343 . S
C2306 C2299 1.422 . S
C2306 N2305 1.359 . S
C2306 C2308 1.421 . S
C2307 C2308 1.422 . S
C2307 C2310 1.321 . S
C2307 H2334 0.931 . S
C2308 C2306 1.421 . S
C2308 C2307 1.422 . S
C2308 C2332 1.417 . S
C2309 H2286 0.931 . S
C2309 N2305 1.343 . S
C2309 C2310 1.390 . S
C2310 H2288 0.930 . S
C2310 C2307 1.321 . S
C2310 C2309 1.390 . S
O2311 Gd2279 2.386 . S
O2311 C2323 1.265 . S
O2312 Gd2278 2.353 . S
O2312 C2323 1.242 . S
O2313 Gd2278 2.468 1_655 S
O2313 C2331 1.263 . S
O2314 Gd2278 2.427 1_655 S
O2314 C2331 1.252 . S
O2315 Gd2279 2.307 . S
O2315 C2324 1.261 . S
O2316 Gd2278 2.388 . S
O2316 C2324 1.252 . S
O2317 Gd2278 2.386 . S
O2317 C2335 1.265 . S
O2318 Gd2279 2.353 . S
O2318 C2335 1.242 . S
O2319 Gd2279 2.468 . S
O2319 C2343 1.263 . S
O2320 Gd2279 2.427 . S
O2320 C2343 1.252 . S
O2321 Gd2278 2.307 . S
O2321 C2336 1.261 . S
O2322 Gd2279 2.388 . S
O2322 C2336 1.252 . S
C2323 O2311 1.265 . S
C2323 O2312 1.242 . S
C2324 O2315 1.261 . S
C2324 O2316 1.252 . S
C2325 C2328 1.394 . S
C2325 C2330 1.370 . S
C2325 C2331 1.500 . S
C2326 C2329 1.383 . S
C2326 C2330 1.395 . S
C2327 C2328 1.396 . S
C2327 C2329 1.365 . S
C2327 H2344 0.929 . S
C2328 C2325 1.394 . S
C2328 C2327 1.396 . S
C2328 H2345 0.930 . S
C2329 C2326 1.383 . S
C2329 C2327 1.365 . S
C2329 H2346 0.931 . S
C2330 C2325 1.370 . S
C2330 C2326 1.395 . S
C2330 H2347 0.930 . S
C2331 Gd2278 2.805 1_655 S
C2331 O2313 1.263 . S
C2331 O2314 1.252 . S
C2331 C2325 1.500 . S
C2332 H2294 0.930 . S
C2332 C2308 1.417 . S
C2332 C2333 1.329 . S
C2333 C2303 1.437 . S
C2333 H2304 0.929 . S
C2333 C2332 1.329 . S
H2334 C2307 0.931 . S
C2335 O2317 1.265 . S
C2335 O2318 1.242 . S
C2336 O2321 1.261 . S
C2336 O2322 1.252 . S
C2337 C2340 1.394 . S
C2337 C2342 1.370 . S
C2337 C2343 1.500 . S
C2338 C2341 1.383 . S
C2338 C2342 1.395 . S
C2339 C2340 1.396 . S
C2339 C2341 1.365 . S
C2339 H2348 0.929 . S
C2340 C2337 1.394 . S
C2340 C2339 1.396 . S
C2340 H2349 0.930 . S
C2341 C2338 1.383 . S
C2341 C2339 1.365 . S
C2341 H2350 0.931 . S
C2342 C2337 1.370 . S
C2342 C2338 1.395 . S
C2342 H2351 0.930 . S
C2343 Gd2279 2.805 . S
C2343 O2319 1.263 . S
C2343 O2320 1.252 . S
C2343 C2337 1.500 . S
H2344 C2327 0.929 . S
H2345 C2328 0.930 . S
H2346 C2329 0.931 . S
H2347 C2330 0.930 . S
H2348 C2339 0.929 . S
H2349 C2340 0.930 . S
H2350 C2341 0.931 . S
H2351 C2342 0.930 . S
C2352 C2354 1.422 . S
C2352 C2356 1.415 . S
C2352 N2358 1.369 . S
C2353 C2354 1.421 . S
C2353 C2355 1.417 . S
C2353 C2365 1.422 . S
C2354 C2352 1.422 . S
C2354 C2353 1.421 . S
C2354 N2364 1.359 . S
C2355 C2353 1.417 . S
C2355 C2357 1.329 . S
C2355 H2374 0.930 . S
C2356 C2352 1.415 . S
C2356 C2357 1.437 . S
C2356 C2360 1.413 . S
C2357 C2355 1.329 . S
C2357 C2356 1.437 . S
C2357 H2379 0.929 . S
N2358 C2352 1.369 . S
N2358 C2359 1.338 . S
N2358 Gd2363 2.622 . S
C2359 N2358 1.338 . S
C2359 C2361 1.378 . S
C2359 H2371 0.929 . S
C2360 C2356 1.413 . S
C2360 C2361 1.348 . S
C2360 H2376 0.931 . S
C2361 C2359 1.378 . S
C2361 C2360 1.348 . S
C2361 H2377 0.930 . S
Gd2362 N2382 2.622 . S
Gd2362 N2389 2.570 . S
Gd2362 O2396 2.353 . S
Gd2362 O2397 2.468 . S
Gd2362 O2398 2.427 . S
Gd2362 O2400 2.388 . S
Gd2362 O2401 2.386 . S
Gd2362 O2405 2.307 . S
Gd2362 C2415 2.805 . S
Gd2363 N2358 2.622 . S
Gd2363 N2364 2.570 . S
Gd2363 O2395 2.386 . S
Gd2363 O2399 2.307 . S
Gd2363 O2402 2.353 . S
Gd2363 O2403 2.468 . S
Gd2363 O2404 2.427 . S
Gd2363 O2406 2.388 . S
Gd2363 C2427 2.805 . S
N2364 C2354 1.359 . S
N2364 Gd2363 2.570 . S
N2364 C2366 1.343 . S
C2365 C2353 1.422 . S
C2365 C2367 1.321 . S
C2365 H2373 0.931 . S
C2366 N2364 1.343 . S
C2366 C2367 1.390 . S
C2366 H2368 0.931 . S
C2367 C2365 1.321 . S
C2367 C2366 1.390 . S
C2367 H2369 0.930 . S
H2368 C2366 0.931 . S
H2369 C2367 0.930 . S
H2370 C2393 0.931 . S
H2371 C2359 0.929 . S
H2372 C2394 0.930 . S
H2373 C2365 0.931 . S
H2374 C2355 0.930 . S
H2375 C2384 0.929 . S
H2376 C2360 0.931 . S
H2377 C2361 0.930 . S
H2378 C2416 0.930 . S
H2379 C2357 0.929 . S
H2380 C2385 0.931 . S
H2381 C2386 0.930 . S
N2382 Gd2362 2.622 . S
N2382 C2383 1.369 . S
N2382 C2384 1.338 . S
C2383 N2382 1.369 . S
C2383 C2387 1.415 . S
C2383 C2390 1.422 . S
C2384 H2375 0.929 . S
C2384 N2382 1.338 . S
C2384 C2386 1.378 . S
C2385 H2380 0.931 . S
C2385 C2386 1.348 . S
C2385 C2387 1.413 . S
C2386 H2381 0.930 . S
C2386 C2384 1.378 . S
C2386 C2385 1.348 . S
C2387 C2383 1.415 . S
C2387 C2385 1.413 . S
C2387 C2417 1.437 . S
H2388 C2417 0.929 . S
N2389 Gd2362 2.570 . S
N2389 C2390 1.359 . S
N2389 C2393 1.343 . S
C2390 C2383 1.422 . S
C2390 N2389 1.359 . S
C2390 C2392 1.421 . S
C2391 C2392 1.422 . S
C2391 C2394 1.321 . S
C2391 H2418 0.931 . S
C2392 C2390 1.421 . S
C2392 C2391 1.422 . S
C2392 C2416 1.417 . S
C2393 H2370 0.931 . S
C2393 N2389 1.343 . S
C2393 C2394 1.390 . S
C2394 H2372 0.930 . S
C2394 C2391 1.321 . S
C2394 C2393 1.390 . S
O2395 Gd2363 2.386 . S
O2395 C2407 1.265 . S
O2396 Gd2362 2.353 . S
O2396 C2407 1.242 . S
O2397 Gd2362 2.468 . S
O2397 C2415 1.263 . S
O2398 Gd2362 2.427 . S
O2398 C2415 1.252 . S
O2399 Gd2363 2.307 . S
O2399 C2408 1.261 . S
O2400 Gd2362 2.388 . S
O2400 C2408 1.252 . S
O2401 Gd2362 2.386 . S
O2401 C2419 1.265 . S
O2402 Gd2363 2.353 . S
O2402 C2419 1.242 . S
O2403 Gd2363 2.468 . S
O2403 C2427 1.263 . S
O2404 Gd2363 2.427 . S
O2404 C2427 1.252 . S
O2405 Gd2362 2.307 . S
O2405 C2420 1.261 . S
O2406 Gd2363 2.388 . S
O2406 C2420 1.252 . S
C2407 O2395 1.265 . S
C2407 O2396 1.242 . S
C2408 O2399 1.261 . S
C2408 O2400 1.252 . S
C2409 C2412 1.394 . S
C2409 C2414 1.370 . S
C2409 C2415 1.500 . S
C2410 C2413 1.383 . S
C2410 C2414 1.395 . S
C2411 C2412 1.396 . S
C2411 C2413 1.365 . S
C2411 H2428 0.929 . S
C2412 C2409 1.394 . S
C2412 C2411 1.396 . S
C2412 H2429 0.930 . S
C2413 C2410 1.383 . S
C2413 C2411 1.365 . S
C2413 H2430 0.931 . S
C2414 C2409 1.370 . S
C2414 C2410 1.395 . S
C2414 H2431 0.930 . S
C2415 Gd2362 2.805 . S
C2415 O2397 1.263 . S
C2415 O2398 1.252 . S
C2415 C2409 1.500 . S
C2416 H2378 0.930 . S
C2416 C2392 1.417 . S
C2416 C2417 1.329 . S
C2417 C2387 1.437 . S
C2417 H2388 0.929 . S
C2417 C2416 1.329 . S
H2418 C2391 0.931 . S
C2419 O2401 1.265 . S
C2419 O2402 1.242 . S
C2420 O2405 1.261 . S
C2420 O2406 1.252 . S
C2421 C2424 1.394 . S
C2421 C2426 1.370 . S
C2421 C2427 1.500 . S
C2422 C2425 1.383 . S
C2422 C2426 1.395 . S
C2423 C2424 1.396 . S
C2423 C2425 1.365 . S
C2423 H2432 0.929 . S
C2424 C2421 1.394 . S
C2424 C2423 1.396 . S
C2424 H2433 0.930 . S
C2425 C2422 1.383 . S
C2425 C2423 1.365 . S
C2425 H2434 0.931 . S
C2426 C2421 1.370 . S
C2426 C2422 1.395 . S
C2426 H2435 0.930 . S
C2427 Gd2363 2.805 . S
C2427 O2403 1.263 . S
C2427 O2404 1.252 . S
C2427 C2421 1.500 . S
H2428 C2411 0.929 . S
H2429 C2412 0.930 . S
H2430 C2413 0.931 . S
H2431 C2414 0.930 . S
H2432 C2423 0.929 . S
H2433 C2424 0.930 . S
H2434 C2425 0.931 . S
H2435 C2426 0.930 . S
C2436 C2438 1.422 . S
C2436 C2440 1.415 . S
C2436 N2442 1.369 . S
C2437 C2438 1.421 . S
C2437 C2439 1.417 . S
C2437 C2449 1.422 . S
C2438 C2436 1.422 . S
C2438 C2437 1.421 . S
C2438 N2448 1.359 . S
C2439 C2437 1.417 . S
C2439 C2441 1.329 . S
C2439 H2458 0.930 . S
C2440 C2436 1.415 . S
C2440 C2441 1.437 . S
C2440 C2444 1.413 . S
C2441 C2439 1.329 . S
C2441 C2440 1.437 . S
C2441 H2463 0.929 . S
N2442 C2436 1.369 . S
N2442 C2443 1.338 . S
N2442 Gd2447 2.622 . S
C2443 N2442 1.338 . S
C2443 C2445 1.378 . S
C2443 H2455 0.929 . S
C2444 C2440 1.413 . S
C2444 C2445 1.348 . S
C2444 H2460 0.931 . S
C2445 C2443 1.378 . S
C2445 C2444 1.348 . S
C2445 H2461 0.930 . S
Gd2446 N2466 2.622 1_455 S
Gd2446 N2473 2.570 1_455 S
Gd2446 O2480 2.353 . S
Gd2446 O2481 2.468 1_455 S
Gd2446 O2482 2.427 1_455 S
Gd2446 O2484 2.388 . S
Gd2446 O2485 2.386 . S
Gd2446 O2489 2.307 . S
Gd2446 C2499 2.805 1_455 S
Gd2447 N2442 2.622 . S
Gd2447 N2448 2.570 . S
Gd2447 O2479 2.386 . S
Gd2447 O2483 2.307 . S
Gd2447 O2486 2.353 . S
Gd2447 O2487 2.468 . S
Gd2447 O2488 2.427 . S
Gd2447 O2490 2.388 . S
Gd2447 C2511 2.805 . S
N2448 C2438 1.359 . S
N2448 Gd2447 2.570 . S
N2448 C2450 1.343 . S
C2449 C2437 1.422 . S
C2449 C2451 1.321 . S
C2449 H2457 0.931 . S
C2450 N2448 1.343 . S
C2450 C2451 1.390 . S
C2450 H2452 0.931 . S
C2451 C2449 1.321 . S
C2451 C2450 1.390 . S
C2451 H2453 0.930 . S
H2452 C2450 0.931 . S
H2453 C2451 0.930 . S
H2454 C2477 0.931 . S
H2455 C2443 0.929 . S
H2456 C2478 0.930 . S
H2457 C2449 0.931 . S
H2458 C2439 0.930 . S
H2459 C2468 0.929 . S
H2460 C2444 0.931 . S
H2461 C2445 0.930 . S
H2462 C2500 0.930 . S
H2463 C2441 0.929 . S
H2464 C2469 0.931 . S
H2465 C2470 0.930 . S
N2466 Gd2446 2.622 1_655 S
N2466 C2467 1.369 . S
N2466 C2468 1.338 1_655 S
C2467 N2466 1.369 . S
C2467 C2471 1.415 . S
C2467 C2474 1.422 . S
C2468 H2459 0.929 . S
C2468 N2466 1.338 1_455 S
C2468 C2470 1.378 . S
C2469 H2464 0.931 . S
C2469 C2470 1.348 1_655 S
C2469 C2471 1.413 . S
C2470 H2465 0.930 . S
C2470 C2468 1.378 . S
C2470 C2469 1.348 1_455 S
C2471 C2467 1.415 . S
C2471 C2469 1.413 . S
C2471 C2501 1.437 . S
H2472 C2501 0.929 . S
N2473 Gd2446 2.570 1_655 S
N2473 C2474 1.359 . S
N2473 C2477 1.343 . S
C2474 C2467 1.422 . S
C2474 N2473 1.359 . S
C2474 C2476 1.421 . S
C2475 C2476 1.422 . S
C2475 C2478 1.321 . S
C2475 H2502 0.931 . S
C2476 C2474 1.421 . S
C2476 C2475 1.422 . S
C2476 C2500 1.417 . S
C2477 H2454 0.931 . S
C2477 N2473 1.343 . S
C2477 C2478 1.390 . S
C2478 H2456 0.930 . S
C2478 C2475 1.321 . S
C2478 C2477 1.390 . S
O2479 Gd2447 2.386 . S
O2479 C2491 1.265 . S
O2480 Gd2446 2.353 . S
O2480 C2491 1.242 . S
O2481 Gd2446 2.468 1_655 S
O2481 C2499 1.263 . S
O2482 Gd2446 2.427 1_655 S
O2482 C2499 1.252 . S
O2483 Gd2447 2.307 . S
O2483 C2492 1.261 . S
O2484 Gd2446 2.388 . S
O2484 C2492 1.252 . S
O2485 Gd2446 2.386 . S
O2485 C2503 1.265 . S
O2486 Gd2447 2.353 . S
O2486 C2503 1.242 . S
O2487 Gd2447 2.468 . S
O2487 C2511 1.263 . S
O2488 Gd2447 2.427 . S
O2488 C2511 1.252 . S
O2489 Gd2446 2.307 . S
O2489 C2504 1.261 . S
O2490 Gd2447 2.388 . S
O2490 C2504 1.252 . S
C2491 O2479 1.265 . S
C2491 O2480 1.242 . S
C2492 O2483 1.261 . S
C2492 O2484 1.252 . S
C2493 C2496 1.394 . S
C2493 C2498 1.370 . S
C2493 C2499 1.500 . S
C2494 C2497 1.383 . S
C2494 C2498 1.395 . S
C2495 C2496 1.396 . S
C2495 C2497 1.365 . S
C2495 H2512 0.929 . S
C2496 C2493 1.394 . S
C2496 C2495 1.396 . S
C2496 H2513 0.930 . S
C2497 C2494 1.383 . S
C2497 C2495 1.365 . S
C2497 H2514 0.931 . S
C2498 C2493 1.370 . S
C2498 C2494 1.395 . S
C2498 H2515 0.930 . S
C2499 Gd2446 2.805 1_655 S
C2499 O2481 1.263 . S
C2499 O2482 1.252 . S
C2499 C2493 1.500 . S
C2500 H2462 0.930 . S
C2500 C2476 1.417 . S
C2500 C2501 1.329 . S
C2501 C2471 1.437 . S
C2501 H2472 0.929 . S
C2501 C2500 1.329 . S
H2502 C2475 0.931 . S
C2503 O2485 1.265 . S
C2503 O2486 1.242 . S
C2504 O2489 1.261 . S
C2504 O2490 1.252 . S
C2505 C2508 1.394 . S
C2505 C2510 1.370 . S
C2505 C2511 1.500 . S
C2506 C2509 1.383 . S
C2506 C2510 1.395 . S
C2507 C2508 1.396 . S
C2507 C2509 1.365 . S
C2507 H2516 0.929 . S
C2508 C2505 1.394 . S
C2508 C2507 1.396 . S
C2508 H2517 0.930 . S
C2509 C2506 1.383 . S
C2509 C2507 1.365 . S
C2509 H2518 0.931 . S
C2510 C2505 1.370 . S
C2510 C2506 1.395 . S
C2510 H2519 0.930 . S
C2511 Gd2447 2.805 . S
C2511 O2487 1.263 . S
C2511 O2488 1.252 . S
C2511 C2505 1.500 . S
H2512 C2495 0.929 . S
H2513 C2496 0.930 . S
H2514 C2497 0.931 . S
H2515 C2498 0.930 . S
H2516 C2507 0.929 . S
H2517 C2508 0.930 . S
H2518 C2509 0.931 . S
H2519 C2510 0.930 . S
C2520 C2522 1.422 . S
C2520 C2524 1.415 . S
C2520 N2526 1.369 . S
C2521 C2522 1.421 . S
C2521 C2523 1.417 . S
C2521 C2533 1.422 . S
C2522 C2520 1.422 . S
C2522 C2521 1.421 . S
C2522 N2532 1.359 . S
C2523 C2521 1.417 . S
C2523 C2525 1.329 . S
C2523 H2542 0.930 . S
C2524 C2520 1.415 . S
C2524 C2525 1.437 . S
C2524 C2528 1.413 . S
C2525 C2523 1.329 . S
C2525 C2524 1.437 . S
C2525 H2547 0.929 . S
N2526 C2520 1.369 . S
N2526 C2527 1.338 . S
N2526 Gd2531 2.622 . S
C2527 N2526 1.338 . S
C2527 C2529 1.378 . S
C2527 H2539 0.929 . S
C2528 C2524 1.413 . S
C2528 C2529 1.348 . S
C2528 H2544 0.931 . S
C2529 C2527 1.378 . S
C2529 C2528 1.348 . S
C2529 H2545 0.930 . S
Gd2530 N2550 2.622 . S
Gd2530 N2557 2.570 . S
Gd2530 O2564 2.353 . S
Gd2530 O2565 2.468 . S
Gd2530 O2566 2.427 . S
Gd2530 O2568 2.388 . S
Gd2530 O2569 2.386 . S
Gd2530 O2573 2.307 . S
Gd2530 C2583 2.805 . S
Gd2531 N2526 2.622 . S
Gd2531 N2532 2.570 . S
Gd2531 O2563 2.386 . S
Gd2531 O2567 2.307 . S
Gd2531 O2570 2.353 . S
Gd2531 O2571 2.468 . S
Gd2531 O2572 2.427 . S
Gd2531 O2574 2.388 . S
Gd2531 C2595 2.805 . S
N2532 C2522 1.359 . S
N2532 Gd2531 2.570 . S
N2532 C2534 1.343 . S
C2533 C2521 1.422 . S
C2533 C2535 1.321 . S
C2533 H2541 0.931 . S
C2534 N2532 1.343 . S
C2534 C2535 1.390 . S
C2534 H2536 0.931 . S
C2535 C2533 1.321 . S
C2535 C2534 1.390 . S
C2535 H2537 0.930 . S
H2536 C2534 0.931 . S
H2537 C2535 0.930 . S
H2538 C2561 0.931 . S
H2539 C2527 0.929 . S
H2540 C2562 0.930 . S
H2541 C2533 0.931 . S
H2542 C2523 0.930 . S
H2543 C2552 0.929 . S
H2544 C2528 0.931 . S
H2545 C2529 0.930 . S
H2546 C2584 0.930 . S
H2547 C2525 0.929 . S
H2548 C2553 0.931 . S
H2549 C2554 0.930 . S
N2550 Gd2530 2.622 . S
N2550 C2551 1.369 . S
N2550 C2552 1.338 . S
C2551 N2550 1.369 . S
C2551 C2555 1.415 . S
C2551 C2558 1.422 . S
C2552 H2543 0.929 . S
C2552 N2550 1.338 . S
C2552 C2554 1.378 . S
C2553 H2548 0.931 . S
C2553 C2554 1.348 . S
C2553 C2555 1.413 . S
C2554 H2549 0.930 . S
C2554 C2552 1.378 . S
C2554 C2553 1.348 . S
C2555 C2551 1.415 . S
C2555 C2553 1.413 . S
C2555 C2585 1.437 . S
H2556 C2585 0.929 . S
N2557 Gd2530 2.570 . S
N2557 C2558 1.359 . S
N2557 C2561 1.343 . S
C2558 C2551 1.422 . S
C2558 N2557 1.359 . S
C2558 C2560 1.421 . S
C2559 C2560 1.422 . S
C2559 C2562 1.321 . S
C2559 H2586 0.931 . S
C2560 C2558 1.421 . S
C2560 C2559 1.422 . S
C2560 C2584 1.417 . S
C2561 H2538 0.931 . S
C2561 N2557 1.343 . S
C2561 C2562 1.390 . S
C2562 H2540 0.930 . S
C2562 C2559 1.321 . S
C2562 C2561 1.390 . S
O2563 Gd2531 2.386 . S
O2563 C2575 1.265 . S
O2564 Gd2530 2.353 . S
O2564 C2575 1.242 . S
O2565 Gd2530 2.468 . S
O2565 C2583 1.263 . S
O2566 Gd2530 2.427 . S
O2566 C2583 1.252 . S
O2567 Gd2531 2.307 . S
O2567 C2576 1.261 . S
O2568 Gd2530 2.388 . S
O2568 C2576 1.252 . S
O2569 Gd2530 2.386 . S
O2569 C2587 1.265 . S
O2570 Gd2531 2.353 . S
O2570 C2587 1.242 . S
O2571 Gd2531 2.468 . S
O2571 C2595 1.263 . S
O2572 Gd2531 2.427 . S
O2572 C2595 1.252 . S
O2573 Gd2530 2.307 . S
O2573 C2588 1.261 . S
O2574 Gd2531 2.388 . S
O2574 C2588 1.252 . S
C2575 O2563 1.265 . S
C2575 O2564 1.242 . S
C2576 O2567 1.261 . S
C2576 O2568 1.252 . S
C2577 C2580 1.394 . S
C2577 C2582 1.370 . S
C2577 C2583 1.500 . S
C2578 C2581 1.383 . S
C2578 C2582 1.395 . S
C2579 C2580 1.396 . S
C2579 C2581 1.365 . S
C2579 H2596 0.929 . S
C2580 C2577 1.394 . S
C2580 C2579 1.396 . S
C2580 H2597 0.930 . S
C2581 C2578 1.383 . S
C2581 C2579 1.365 . S
C2581 H2598 0.931 . S
C2582 C2577 1.370 . S
C2582 C2578 1.395 . S
C2582 H2599 0.930 . S
C2583 Gd2530 2.805 . S
C2583 O2565 1.263 . S
C2583 O2566 1.252 . S
C2583 C2577 1.500 . S
C2584 H2546 0.930 . S
C2584 C2560 1.417 . S
C2584 C2585 1.329 . S
C2585 C2555 1.437 . S
C2585 H2556 0.929 . S
C2585 C2584 1.329 . S
H2586 C2559 0.931 . S
C2587 O2569 1.265 . S
C2587 O2570 1.242 . S
C2588 O2573 1.261 . S
C2588 O2574 1.252 . S
C2589 C2592 1.394 . S
C2589 C2594 1.370 . S
C2589 C2595 1.500 . S
C2590 C2593 1.383 . S
C2590 C2594 1.395 . S
C2591 C2592 1.396 . S
C2591 C2593 1.365 . S
C2591 H2600 0.929 . S
C2592 C2589 1.394 . S
C2592 C2591 1.396 . S
C2592 H2601 0.930 . S
C2593 C2590 1.383 . S
C2593 C2591 1.365 . S
C2593 H2602 0.931 . S
C2594 C2589 1.370 . S
C2594 C2590 1.395 . S
C2594 H2603 0.930 . S
C2595 Gd2531 2.805 . S
C2595 O2571 1.263 . S
C2595 O2572 1.252 . S
C2595 C2589 1.500 . S
H2596 C2579 0.929 . S
H2597 C2580 0.930 . S
H2598 C2581 0.931 . S
H2599 C2582 0.930 . S
H2600 C2591 0.929 . S
H2601 C2592 0.930 . S
H2602 C2593 0.931 . S
H2603 C2594 0.930 . S
C2604 C2606 1.422 . S
C2604 C2608 1.415 . S
C2604 N2610 1.369 . S
C2605 C2606 1.421 . S
C2605 C2607 1.417 . S
C2605 C2617 1.422 . S
C2606 C2604 1.422 . S
C2606 C2605 1.421 . S
C2606 N2616 1.359 . S
C2607 C2605 1.417 . S
C2607 C2609 1.329 . S
C2607 H2626 0.930 . S
C2608 C2604 1.415 . S
C2608 C2609 1.437 . S
C2608 C2612 1.413 . S
C2609 C2607 1.329 . S
C2609 C2608 1.437 . S
C2609 H2631 0.929 . S
N2610 C2604 1.369 . S
N2610 C2611 1.338 . S
N2610 Gd2615 2.622 . S
C2611 N2610 1.338 . S
C2611 C2613 1.378 . S
C2611 H2623 0.929 . S
C2612 C2608 1.413 . S
C2612 C2613 1.348 . S
C2612 H2628 0.931 . S
C2613 C2611 1.378 . S
C2613 C2612 1.348 . S
C2613 H2629 0.930 . S
Gd2614 N2634 2.622 . S
Gd2614 N2641 2.570 . S
Gd2614 O2648 2.353 . S
Gd2614 O2649 2.468 . S
Gd2614 O2650 2.427 . S
Gd2614 O2652 2.388 . S
Gd2614 O2653 2.386 . S
Gd2614 O2657 2.307 . S
Gd2614 C2667 2.805 . S
Gd2615 N2610 2.622 . S
Gd2615 N2616 2.570 . S
Gd2615 O2647 2.386 . S
Gd2615 O2651 2.307 . S
Gd2615 O2654 2.353 . S
Gd2615 O2655 2.468 . S
Gd2615 O2656 2.427 . S
Gd2615 O2658 2.388 . S
Gd2615 C2679 2.805 . S
N2616 C2606 1.359 . S
N2616 Gd2615 2.570 . S
N2616 C2618 1.343 . S
C2617 C2605 1.422 . S
C2617 C2619 1.321 . S
C2617 H2625 0.931 . S
C2618 N2616 1.343 . S
C2618 C2619 1.390 . S
C2618 H2620 0.931 . S
C2619 C2617 1.321 . S
C2619 C2618 1.390 . S
C2619 H2621 0.930 . S
H2620 C2618 0.931 . S
H2621 C2619 0.930 . S
H2622 C2645 0.931 . S
H2623 C2611 0.929 . S
H2624 C2646 0.930 . S
H2625 C2617 0.931 . S
H2626 C2607 0.930 . S
H2627 C2636 0.929 . S
H2628 C2612 0.931 . S
H2629 C2613 0.930 . S
H2630 C2668 0.930 . S
H2631 C2609 0.929 . S
H2632 C2637 0.931 . S
H2633 C2638 0.930 . S
N2634 Gd2614 2.622 . S
N2634 C2635 1.369 . S
N2634 C2636 1.338 . S
C2635 N2634 1.369 . S
C2635 C2639 1.415 . S
C2635 C2642 1.422 . S
C2636 H2627 0.929 . S
C2636 N2634 1.338 . S
C2636 C2638 1.378 . S
C2637 H2632 0.931 . S
C2637 C2638 1.348 . S
C2637 C2639 1.413 . S
C2638 H2633 0.930 . S
C2638 C2636 1.378 . S
C2638 C2637 1.348 . S
C2639 C2635 1.415 . S
C2639 C2637 1.413 . S
C2639 C2669 1.437 . S
H2640 C2669 0.929 . S
N2641 Gd2614 2.570 . S
N2641 C2642 1.359 . S
N2641 C2645 1.343 . S
C2642 C2635 1.422 . S
C2642 N2641 1.359 . S
C2642 C2644 1.421 . S
C2643 C2644 1.422 . S
C2643 C2646 1.321 . S
C2643 H2670 0.931 . S
C2644 C2642 1.421 . S
C2644 C2643 1.422 . S
C2644 C2668 1.417 . S
C2645 H2622 0.931 . S
C2645 N2641 1.343 . S
C2645 C2646 1.390 . S
C2646 H2624 0.930 . S
C2646 C2643 1.321 . S
C2646 C2645 1.390 . S
O2647 Gd2615 2.386 . S
O2647 C2659 1.265 . S
O2648 Gd2614 2.353 . S
O2648 C2659 1.242 . S
O2649 Gd2614 2.468 . S
O2649 C2667 1.263 . S
O2650 Gd2614 2.427 . S
O2650 C2667 1.252 . S
O2651 Gd2615 2.307 . S
O2651 C2660 1.261 . S
O2652 Gd2614 2.388 . S
O2652 C2660 1.252 . S
O2653 Gd2614 2.386 . S
O2653 C2671 1.265 . S
O2654 Gd2615 2.353 . S
O2654 C2671 1.242 . S
O2655 Gd2615 2.468 . S
O2655 C2679 1.263 . S
O2656 Gd2615 2.427 . S
O2656 C2679 1.252 . S
O2657 Gd2614 2.307 . S
O2657 C2672 1.261 . S
O2658 Gd2615 2.388 . S
O2658 C2672 1.252 . S
C2659 O2647 1.265 . S
C2659 O2648 1.242 . S
C2660 O2651 1.261 . S
C2660 O2652 1.252 . S
C2661 C2664 1.394 . S
C2661 C2666 1.370 . S
C2661 C2667 1.500 . S
C2662 C2665 1.383 . S
C2662 C2666 1.395 . S
C2663 C2664 1.396 . S
C2663 C2665 1.365 . S
C2663 H2680 0.929 . S
C2664 C2661 1.394 . S
C2664 C2663 1.396 . S
C2664 H2681 0.930 . S
C2665 C2662 1.383 . S
C2665 C2663 1.365 . S
C2665 H2682 0.931 . S
C2666 C2661 1.370 . S
C2666 C2662 1.395 . S
C2666 H2683 0.930 . S
C2667 Gd2614 2.805 . S
C2667 O2649 1.263 . S
C2667 O2650 1.252 . S
C2667 C2661 1.500 . S
C2668 H2630 0.930 . S
C2668 C2644 1.417 . S
C2668 C2669 1.329 . S
C2669 C2639 1.437 . S
C2669 H2640 0.929 . S
C2669 C2668 1.329 . S
H2670 C2643 0.931 . S
C2671 O2653 1.265 . S
C2671 O2654 1.242 . S
C2672 O2657 1.261 . S
C2672 O2658 1.252 . S
C2673 C2676 1.394 . S
C2673 C2678 1.370 . S
C2673 C2679 1.500 . S
C2674 C2677 1.383 . S
C2674 C2678 1.395 . S
C2675 C2676 1.396 . S
C2675 C2677 1.365 . S
C2675 H2684 0.929 . S
C2676 C2673 1.394 . S
C2676 C2675 1.396 . S
C2676 H2685 0.930 . S
C2677 C2674 1.383 . S
C2677 C2675 1.365 . S
C2677 H2686 0.931 . S
C2678 C2673 1.370 . S
C2678 C2674 1.395 . S
C2678 H2687 0.930 . S
C2679 Gd2615 2.805 . S
C2679 O2655 1.263 . S
C2679 O2656 1.252 . S
C2679 C2673 1.500 . S
H2680 C2663 0.929 . S
H2681 C2664 0.930 . S
H2682 C2665 0.931 . S
H2683 C2666 0.930 . S
H2684 C2675 0.929 . S
H2685 C2676 0.930 . S
H2686 C2677 0.931 . S
H2687 C2678 0.930 . S
H2688 C2694 0.930 . S
H2689 C2698 0.930 . S
H2690 C2703 0.929 . S
H2691 C2701 0.929 . S
H2692 C2696 0.929 . S
H2693 C2702 0.929 . S
C2694 H2688 0.930 . S
C2694 C2695 1.367 . S
C2694 C2702 1.378 . S
C2695 C2694 1.367 . S
C2695 C2703 1.433 . S
C2696 H2692 0.929 . S
C2696 C2698 1.378 . S
C2696 C2700 1.350 . S
C2697 C2700 1.463 . S
C2697 C2702 1.350 . S
C2697 N2705 1.427 . S
C2698 H2689 0.930 . S
C2698 C2696 1.378 . S
C2698 C2699 1.367 . S
C2699 C2698 1.367 . S
C2699 C2701 1.433 . S
C2700 C2696 1.350 . S
C2700 C2697 1.463 . S
C2700 N2704 1.427 . S
C2701 H2691 0.929 . S
C2701 C2699 1.433 . S
C2701 N2704 1.384 . S
C2702 H2693 0.929 . S
C2702 C2694 1.378 . S
C2702 C2697 1.350 . S
C2703 H2690 0.929 . S
C2703 C2695 1.433 . S
C2703 N2705 1.384 . S
N2704 C2700 1.427 . S
N2704 C2701 1.384 . S
N2705 C2697 1.427 . S
N2705 C2703 1.384 . S
H2706 C2712 0.930 . S
H2707 C2716 0.930 . S
H2708 C2721 0.929 . S
H2709 C2719 0.929 . S
H2710 C2714 0.929 . S
H2711 C2720 0.929 . S
C2712 H2706 0.930 . S
C2712 C2713 1.367 . S
C2712 C2720 1.378 . S
C2713 C2712 1.367 . S
C2713 C2721 1.433 . S
C2714 H2710 0.929 . S
C2714 C2716 1.378 . S
C2714 C2718 1.350 . S
C2715 C2718 1.463 . S
C2715 C2720 1.350 . S
C2715 N2723 1.427 . S
C2716 H2707 0.930 . S
C2716 C2714 1.378 . S
C2716 C2717 1.367 . S
C2717 C2716 1.367 . S
C2717 C2719 1.433 . S
C2718 C2714 1.350 . S
C2718 C2715 1.463 . S
C2718 N2722 1.427 . S
C2719 H2709 0.929 . S
C2719 C2717 1.433 . S
C2719 N2722 1.384 . S
C2720 H2711 0.929 . S
C2720 C2712 1.378 . S
C2720 C2715 1.350 . S
C2721 H2708 0.929 . S
C2721 C2713 1.433 . S
C2721 N2723 1.384 . S
N2722 C2718 1.427 . S
N2722 C2719 1.384 . S
N2723 C2715 1.427 . S
N2723 C2721 1.384 . S
H2724 C2730 0.930 . S
H2725 C2734 0.930 . S
H2726 C2739 0.929 . S
H2727 C2737 0.929 . S
H2728 C2732 0.929 . S
H2729 C2738 0.929 . S
C2730 H2724 0.930 . S
C2730 C2731 1.367 . S
C2730 C2738 1.378 . S
C2731 C2730 1.367 . S
C2731 C2739 1.433 . S
C2732 H2728 0.929 . S
C2732 C2734 1.378 . S
C2732 C2736 1.350 . S
C2733 C2736 1.463 . S
C2733 C2738 1.350 . S
C2733 N2741 1.427 . S
C2734 H2725 0.930 . S
C2734 C2732 1.378 . S
C2734 C2735 1.367 . S
C2735 C2734 1.367 . S
C2735 C2737 1.433 . S
C2736 C2732 1.350 . S
C2736 C2733 1.463 . S
C2736 N2740 1.427 . S
C2737 H2727 0.929 . S
C2737 C2735 1.433 . S
C2737 N2740 1.384 . S
C2738 H2729 0.929 . S
C2738 C2730 1.378 . S
C2738 C2733 1.350 . S
C2739 H2726 0.929 . S
C2739 C2731 1.433 . S
C2739 N2741 1.384 . S
N2740 C2736 1.427 . S
N2740 C2737 1.384 . S
N2741 C2733 1.427 . S
N2741 C2739 1.384 . S
H2742 C2748 0.930 . S
H2743 C2752 0.930 . S
H2744 C2757 0.929 . S
H2745 C2755 0.929 . S
H2746 C2750 0.929 . S
H2747 C2756 0.929 . S
C2748 H2742 0.930 . S
C2748 C2749 1.367 . S
C2748 C2756 1.378 . S
C2749 C2748 1.367 . S
C2749 C2757 1.433 . S
C2750 H2746 0.929 . S
C2750 C2752 1.378 . S
C2750 C2754 1.350 . S
C2751 C2754 1.463 . S
C2751 C2756 1.350 . S
C2751 N2759 1.427 . S
C2752 H2743 0.930 . S
C2752 C2750 1.378 . S
C2752 C2753 1.367 . S
C2753 C2752 1.367 . S
C2753 C2755 1.433 . S
C2754 C2750 1.350 . S
C2754 C2751 1.463 . S
C2754 N2758 1.427 . S
C2755 H2745 0.929 . S
C2755 C2753 1.433 . S
C2755 N2758 1.384 . S
C2756 H2747 0.929 . S
C2756 C2748 1.378 . S
C2756 C2751 1.350 . S
C2757 H2744 0.929 . S
C2757 C2749 1.433 . S
C2757 N2759 1.384 . S
N2758 C2754 1.427 . S
N2758 C2755 1.384 . S
N2759 C2751 1.427 . S
N2759 C2757 1.384 . S
H2760 C2766 0.930 . S
H2761 C2770 0.930 . S
H2762 C2775 0.929 . S
H2763 C2773 0.929 . S
H2764 C2768 0.929 . S
H2765 C2774 0.929 . S
C2766 H2760 0.930 . S
C2766 C2767 1.367 . S
C2766 C2774 1.378 . S
C2767 C2766 1.367 . S
C2767 C2775 1.433 . S
C2768 H2764 0.929 . S
C2768 C2770 1.378 . S
C2768 C2772 1.350 . S
C2769 C2772 1.463 . S
C2769 C2774 1.350 . S
C2769 N2777 1.427 . S
C2770 H2761 0.930 . S
C2770 C2768 1.378 . S
C2770 C2771 1.367 . S
C2771 C2770 1.367 . S
C2771 C2773 1.433 . S
C2772 C2768 1.350 . S
C2772 C2769 1.463 . S
C2772 N2776 1.427 . S
C2773 H2763 0.929 . S
C2773 C2771 1.433 . S
C2773 N2776 1.384 . S
C2774 H2765 0.929 . S
C2774 C2766 1.378 . S
C2774 C2769 1.350 . S
C2775 H2762 0.929 . S
C2775 C2767 1.433 . S
C2775 N2777 1.384 . S
N2776 C2772 1.427 . S
N2776 C2773 1.384 . S
N2777 C2769 1.427 . S
N2777 C2775 1.384 . S
H2778 C2784 0.930 . S
H2779 C2788 0.930 . S
H2780 C2793 0.929 . S
H2781 C2791 0.929 . S
H2782 C2786 0.929 . S
H2783 C2792 0.929 . S
C2784 H2778 0.930 . S
C2784 C2785 1.367 . S
C2784 C2792 1.378 . S
C2785 C2784 1.367 . S
C2785 C2793 1.433 . S
C2786 H2782 0.929 . S
C2786 C2788 1.378 . S
C2786 C2790 1.350 . S
C2787 C2790 1.463 . S
C2787 C2792 1.350 . S
C2787 N2795 1.427 . S
C2788 H2779 0.930 . S
C2788 C2786 1.378 . S
C2788 C2789 1.367 . S
C2789 C2788 1.367 . S
C2789 C2791 1.433 . S
C2790 C2786 1.350 . S
C2790 C2787 1.463 . S
C2790 N2794 1.427 . S
C2791 H2781 0.929 . S
C2791 C2789 1.433 . S
C2791 N2794 1.384 . S
C2792 H2783 0.929 . S
C2792 C2784 1.378 . S
C2792 C2787 1.350 . S
C2793 H2780 0.929 . S
C2793 C2785 1.433 . S
C2793 N2795 1.384 . S
N2794 C2790 1.427 . S
N2794 C2791 1.384 . S
N2795 C2787 1.427 . S
N2795 C2793 1.384 . S
H2796 C2802 0.930 . S
H2797 C2806 0.930 . S
H2798 C2811 0.929 . S
H2799 C2809 0.929 . S
H2800 C2804 0.929 . S
H2801 C2810 0.929 . S
C2802 H2796 0.930 . S
C2802 C2803 1.367 . S
C2802 C2810 1.378 . S
C2803 C2802 1.367 . S
C2803 C2811 1.433 . S
C2804 H2800 0.929 . S
C2804 C2806 1.378 . S
C2804 C2808 1.350 . S
C2805 C2808 1.463 . S
C2805 C2810 1.350 . S
C2805 N2813 1.427 . S
C2806 H2797 0.930 . S
C2806 C2804 1.378 . S
C2806 C2807 1.367 . S
C2807 C2806 1.367 . S
C2807 C2809 1.433 . S
C2808 C2804 1.350 . S
C2808 C2805 1.463 . S
C2808 N2812 1.427 . S
C2809 H2799 0.929 . S
C2809 C2807 1.433 . S
C2809 N2812 1.384 . S
C2810 H2801 0.929 . S
C2810 C2802 1.378 . S
C2810 C2805 1.350 . S
C2811 H2798 0.929 . S
C2811 C2803 1.433 . S
C2811 N2813 1.384 . S
N2812 C2808 1.427 . S
N2812 C2809 1.384 . S
N2813 C2805 1.427 . S
N2813 C2811 1.384 . S
H2814 C2820 0.930 . S
H2815 C2824 0.930 . S
H2816 C2829 0.929 . S
H2817 C2827 0.929 . S
H2818 C2822 0.929 . S
H2819 C2828 0.929 . S
C2820 H2814 0.930 . S
C2820 C2821 1.367 . S
C2820 C2828 1.378 . S
C2821 C2820 1.367 . S
C2821 C2829 1.433 . S
C2822 H2818 0.929 . S
C2822 C2824 1.378 . S
C2822 C2826 1.350 . S
C2823 C2826 1.463 . S
C2823 C2828 1.350 . S
C2823 N2831 1.427 . S
C2824 H2815 0.930 . S
C2824 C2822 1.378 . S
C2824 C2825 1.367 . S
C2825 C2824 1.367 . S
C2825 C2827 1.433 . S
C2826 C2822 1.350 . S
C2826 C2823 1.463 . S
C2826 N2830 1.427 . S
C2827 H2817 0.929 . S
C2827 C2825 1.433 . S
C2827 N2830 1.384 . S
C2828 H2819 0.929 . S
C2828 C2820 1.378 . S
C2828 C2823 1.350 . S
C2829 H2816 0.929 . S
C2829 C2821 1.433 . S
C2829 N2831 1.384 . S
N2830 C2826 1.427 . S
N2830 C2827 1.384 . S
N2831 C2823 1.427 . S
N2831 C2829 1.384 . S
H2832 C2838 0.930 . S
H2833 C2842 0.930 . S
H2834 C2847 0.929 . S
H2835 C2845 0.929 . S
H2836 C2840 0.929 . S
H2837 C2846 0.929 . S
C2838 H2832 0.930 . S
C2838 C2839 1.367 . S
C2838 C2846 1.378 . S
C2839 C2838 1.367 . S
C2839 C2847 1.433 . S
C2840 H2836 0.929 . S
C2840 C2842 1.378 . S
C2840 C2844 1.350 . S
C2841 C2844 1.463 . S
C2841 C2846 1.350 . S
C2841 N2849 1.427 . S
C2842 H2833 0.930 . S
C2842 C2840 1.378 . S
C2842 C2843 1.367 . S
C2843 C2842 1.367 . S
C2843 C2845 1.433 . S
C2844 C2840 1.350 . S
C2844 C2841 1.463 . S
C2844 N2848 1.427 . S
C2845 H2835 0.929 . S
C2845 C2843 1.433 . S
C2845 N2848 1.384 . S
C2846 H2837 0.929 . S
C2846 C2838 1.378 . S
C2846 C2841 1.350 . S
C2847 H2834 0.929 . S
C2847 C2839 1.433 . S
C2847 N2849 1.384 . S
N2848 C2844 1.427 . S
N2848 C2845 1.384 . S
N2849 C2841 1.427 . S
N2849 C2847 1.384 . S
H2850 C2856 0.930 . S
H2851 C2860 0.930 . S
H2852 C2865 0.929 . S
H2853 C2863 0.929 . S
H2854 C2858 0.929 . S
H2855 C2864 0.929 . S
C2856 H2850 0.930 . S
C2856 C2857 1.367 . S
C2856 C2864 1.378 . S
C2857 C2856 1.367 . S
C2857 C2865 1.433 . S
C2858 H2854 0.929 . S
C2858 C2860 1.378 . S
C2858 C2862 1.350 . S
C2859 C2862 1.463 . S
C2859 C2864 1.350 . S
C2859 N2867 1.427 . S
C2860 H2851 0.930 . S
C2860 C2858 1.378 . S
C2860 C2861 1.367 . S
C2861 C2860 1.367 . S
C2861 C2863 1.433 . S
C2862 C2858 1.350 . S
C2862 C2859 1.463 . S
C2862 N2866 1.427 . S
C2863 H2853 0.929 . S
C2863 C2861 1.433 . S
C2863 N2866 1.384 . S
C2864 H2855 0.929 . S
C2864 C2856 1.378 . S
C2864 C2859 1.350 . S
C2865 H2852 0.929 . S
C2865 C2857 1.433 . S
C2865 N2867 1.384 . S
N2866 C2862 1.427 . S
N2866 C2863 1.384 . S
N2867 C2859 1.427 . S
N2867 C2865 1.384 . S
H2868 C2874 0.930 . S
H2869 C2878 0.930 . S
H2870 C2883 0.929 . S
H2871 C2881 0.929 . S
H2872 C2876 0.929 . S
H2873 C2882 0.929 . S
C2874 H2868 0.930 . S
C2874 C2875 1.367 . S
C2874 C2882 1.378 . S
C2875 C2874 1.367 . S
C2875 C2883 1.433 . S
C2876 H2872 0.929 . S
C2876 C2878 1.378 . S
C2876 C2880 1.350 . S
C2877 C2880 1.463 . S
C2877 C2882 1.350 . S
C2877 N2885 1.427 . S
C2878 H2869 0.930 . S
C2878 C2876 1.378 . S
C2878 C2879 1.367 . S
C2879 C2878 1.367 . S
C2879 C2881 1.433 . S
C2880 C2876 1.350 . S
C2880 C2877 1.463 . S
C2880 N2884 1.427 . S
C2881 H2871 0.929 . S
C2881 C2879 1.433 . S
C2881 N2884 1.384 . S
C2882 H2873 0.929 . S
C2882 C2874 1.378 . S
C2882 C2877 1.350 . S
C2883 H2870 0.929 . S
C2883 C2875 1.433 . S
C2883 N2885 1.384 . S
N2884 C2880 1.427 . S
N2884 C2881 1.384 . S
N2885 C2877 1.427 . S
N2885 C2883 1.384 . S
H2886 C2892 0.930 . S
H2887 C2896 0.930 . S
H2888 C2901 0.929 . S
H2889 C2899 0.929 . S
H2890 C2894 0.929 . S
H2891 C2900 0.929 . S
C2892 H2886 0.930 . S
C2892 C2893 1.367 . S
C2892 C2900 1.378 . S
C2893 C2892 1.367 . S
C2893 C2901 1.433 . S
C2894 H2890 0.929 . S
C2894 C2896 1.378 . S
C2894 C2898 1.350 . S
C2895 C2898 1.463 . S
C2895 C2900 1.350 . S
C2895 N2903 1.427 . S
C2896 H2887 0.930 . S
C2896 C2894 1.378 . S
C2896 C2897 1.367 . S
C2897 C2896 1.367 . S
C2897 C2899 1.433 . S
C2898 C2894 1.350 . S
C2898 C2895 1.463 . S
C2898 N2902 1.427 . S
C2899 H2889 0.929 . S
C2899 C2897 1.433 . S
C2899 N2902 1.384 . S
C2900 H2891 0.929 . S
C2900 C2892 1.378 . S
C2900 C2895 1.350 . S
C2901 H2888 0.929 . S
C2901 C2893 1.433 . S
C2901 N2903 1.384 . S
N2902 C2898 1.427 . S
N2902 C2899 1.384 . S
N2903 C2895 1.427 . S
N2903 C2901 1.384 . S
H2904 C2910 0.930 . S
H2905 C2914 0.930 . S
H2906 C2919 0.929 . S
H2907 C2917 0.929 . S
H2908 C2912 0.929 . S
H2909 C2918 0.929 . S
C2910 H2904 0.930 . S
C2910 C2911 1.367 . S
C2910 C2918 1.378 . S
C2911 C2910 1.367 . S
C2911 C2919 1.433 . S
C2912 H2908 0.929 . S
C2912 C2914 1.378 . S
C2912 C2916 1.350 . S
C2913 C2916 1.463 . S
C2913 C2918 1.350 . S
C2913 N2921 1.427 . S
C2914 H2905 0.930 . S
C2914 C2912 1.378 . S
C2914 C2915 1.367 . S
C2915 C2914 1.367 . S
C2915 C2917 1.433 . S
C2916 C2912 1.350 . S
C2916 C2913 1.463 . S
C2916 N2920 1.427 . S
C2917 H2907 0.929 . S
C2917 C2915 1.433 . S
C2917 N2920 1.384 . S
C2918 H2909 0.929 . S
C2918 C2910 1.378 . S
C2918 C2913 1.350 . S
C2919 H2906 0.929 . S
C2919 C2911 1.433 . S
C2919 N2921 1.384 . S
N2920 C2916 1.427 . S
N2920 C2917 1.384 . S
N2921 C2913 1.427 . S
N2921 C2919 1.384 . S
H2922 C2928 0.930 . S
H2923 C2932 0.930 . S
H2924 C2937 0.929 . S
H2925 C2935 0.929 . S
H2926 C2930 0.929 . S
H2927 C2936 0.929 . S
C2928 H2922 0.930 . S
C2928 C2929 1.367 . S
C2928 C2936 1.378 . S
C2929 C2928 1.367 . S
C2929 C2937 1.433 . S
C2930 H2926 0.929 . S
C2930 C2932 1.378 . S
C2930 C2934 1.350 . S
C2931 C2934 1.463 . S
C2931 C2936 1.350 . S
C2931 N2939 1.427 . S
C2932 H2923 0.930 . S
C2932 C2930 1.378 . S
C2932 C2933 1.367 . S
C2933 C2932 1.367 . S
C2933 C2935 1.433 . S
C2934 C2930 1.350 . S
C2934 C2931 1.463 . S
C2934 N2938 1.427 . S
C2935 H2925 0.929 . S
C2935 C2933 1.433 . S
C2935 N2938 1.384 . S
C2936 H2927 0.929 . S
C2936 C2928 1.378 . S
C2936 C2931 1.350 . S
C2937 H2924 0.929 . S
C2937 C2929 1.433 . S
C2937 N2939 1.384 . S
N2938 C2934 1.427 . S
N2938 C2935 1.384 . S
N2939 C2931 1.427 . S
N2939 C2937 1.384 . S
H2940 C2946 0.930 . S
H2941 C2950 0.930 . S
H2942 C2955 0.929 . S
H2943 C2953 0.929 . S
H2944 C2948 0.929 . S
H2945 C2954 0.929 . S
C2946 H2940 0.930 . S
C2946 C2947 1.367 . S
C2946 C2954 1.378 . S
C2947 C2946 1.367 . S
C2947 C2955 1.433 . S
C2948 H2944 0.929 . S
C2948 C2950 1.378 . S
C2948 C2952 1.350 . S
C2949 C2952 1.463 . S
C2949 C2954 1.350 . S
C2949 N2957 1.427 . S
C2950 H2941 0.930 . S
C2950 C2948 1.378 . S
C2950 C2951 1.367 . S
C2951 C2950 1.367 . S
C2951 C2953 1.433 . S
C2952 C2948 1.350 . S
C2952 C2949 1.463 . S
C2952 N2956 1.427 . S
C2953 H2943 0.929 . S
C2953 C2951 1.433 . S
C2953 N2956 1.384 . S
C2954 H2945 0.929 . S
C2954 C2946 1.378 . S
C2954 C2949 1.350 . S
C2955 H2942 0.929 . S
C2955 C2947 1.433 . S
C2955 N2957 1.384 . S
N2956 C2952 1.427 . S
N2956 C2953 1.384 . S
N2957 C2949 1.427 . S
N2957 C2955 1.384 . S
H2958 C2964 0.930 . S
H2959 C2968 0.930 . S
H2960 C2973 0.929 . S
H2961 C2971 0.929 . S
H2962 C2966 0.929 . S
H2963 C2972 0.929 . S
C2964 H2958 0.930 . S
C2964 C2965 1.367 . S
C2964 C2972 1.378 . S
C2965 C2964 1.367 . S
C2965 C2973 1.433 . S
C2966 H2962 0.929 . S
C2966 C2968 1.378 . S
C2966 C2970 1.350 . S
C2967 C2970 1.463 . S
C2967 C2972 1.350 . S
C2967 N2975 1.427 . S
C2968 H2959 0.930 . S
C2968 C2966 1.378 . S
C2968 C2969 1.367 . S
C2969 C2968 1.367 . S
C2969 C2971 1.433 . S
C2970 C2966 1.350 . S
C2970 C2967 1.463 . S
C2970 N2974 1.427 . S
C2971 H2961 0.929 . S
C2971 C2969 1.433 . S
C2971 N2974 1.384 . S
C2972 H2963 0.929 . S
C2972 C2964 1.378 . S
C2972 C2967 1.350 . S
C2973 H2960 0.929 . S
C2973 C2965 1.433 . S
C2973 N2975 1.384 . S
N2974 C2970 1.427 . S
N2974 C2971 1.384 . S
N2975 C2967 1.427 . S
N2975 C2973 1.384 . S
H2976 C2982 0.930 . S
H2977 C2986 0.930 . S
H2978 C2991 0.929 . S
H2979 C2989 0.929 . S
H2980 C2984 0.929 . S
H2981 C2990 0.929 . S
C2982 H2976 0.930 . S
C2982 C2983 1.367 . S
C2982 C2990 1.378 . S
C2983 C2982 1.367 . S
C2983 C2991 1.433 . S
C2984 H2980 0.929 . S
C2984 C2986 1.378 . S
C2984 C2988 1.350 . S
C2985 C2988 1.463 . S
C2985 C2990 1.350 . S
C2985 N2993 1.427 . S
C2986 H2977 0.930 . S
C2986 C2984 1.378 . S
C2986 C2987 1.367 . S
C2987 C2986 1.367 . S
C2987 C2989 1.433 . S
C2988 C2984 1.350 . S
C2988 C2985 1.463 . S
C2988 N2992 1.427 . S
C2989 H2979 0.929 . S
C2989 C2987 1.433 . S
C2989 N2992 1.384 . S
C2990 H2981 0.929 . S
C2990 C2982 1.378 . S
C2990 C2985 1.350 . S
C2991 H2978 0.929 . S
C2991 C2983 1.433 . S
C2991 N2993 1.384 . S
N2992 C2988 1.427 . S
N2992 C2989 1.384 . S
N2993 C2985 1.427 . S
N2993 C2991 1.384 . S
H2994 C3000 0.930 . S
H2995 C3004 0.930 . S
H2996 C3009 0.929 . S
H2997 C3007 0.929 . S
H2998 C3002 0.929 . S
H2999 C3008 0.929 . S
C3000 H2994 0.930 . S
C3000 C3001 1.367 . S
C3000 C3008 1.378 . S
C3001 C3000 1.367 . S
C3001 C3009 1.433 . S
C3002 H2998 0.929 . S
C3002 C3004 1.378 . S
C3002 C3006 1.350 . S
C3003 C3006 1.463 . S
C3003 C3008 1.350 . S
C3003 N3011 1.427 . S
C3004 H2995 0.930 . S
C3004 C3002 1.378 . S
C3004 C3005 1.367 . S
C3005 C3004 1.367 . S
C3005 C3007 1.433 . S
C3006 C3002 1.350 . S
C3006 C3003 1.463 . S
C3006 N3010 1.427 . S
C3007 H2997 0.929 . S
C3007 C3005 1.433 . S
C3007 N3010 1.384 . S
C3008 H2999 0.929 . S
C3008 C3000 1.378 . S
C3008 C3003 1.350 . S
C3009 H2996 0.929 . S
C3009 C3001 1.433 . S
C3009 N3011 1.384 . S
N3010 C3006 1.427 . S
N3010 C3007 1.384 . S
N3011 C3003 1.427 . S
N3011 C3009 1.384 . S
H3012 C3018 0.930 . S
H3013 C3022 0.930 . S
H3014 C3027 0.929 . S
H3015 C3025 0.929 . S
H3016 C3020 0.929 . S
H3017 C3026 0.929 . S
C3018 H3012 0.930 . S
C3018 C3019 1.367 . S
C3018 C3026 1.378 . S
C3019 C3018 1.367 . S
C3019 C3027 1.433 . S
C3020 H3016 0.929 . S
C3020 C3022 1.378 . S
C3020 C3024 1.350 . S
C3021 C3024 1.463 . S
C3021 C3026 1.350 . S
C3021 N3029 1.427 . S
C3022 H3013 0.930 . S
C3022 C3020 1.378 . S
C3022 C3023 1.367 . S
C3023 C3022 1.367 . S
C3023 C3025 1.433 . S
C3024 C3020 1.350 . S
C3024 C3021 1.463 . S
C3024 N3028 1.427 . S
C3025 H3015 0.929 . S
C3025 C3023 1.433 . S
C3025 N3028 1.384 . S
C3026 H3017 0.929 . S
C3026 C3018 1.378 . S
C3026 C3021 1.350 . S
C3027 H3014 0.929 . S
C3027 C3019 1.433 . S
C3027 N3029 1.384 . S
N3028 C3024 1.427 . S
N3028 C3025 1.384 . S
N3029 C3021 1.427 . S
N3029 C3027 1.384 . S
H3030 C3036 0.930 . S
H3031 C3040 0.930 . S
H3032 C3045 0.929 . S
H3033 C3043 0.929 . S
H3034 C3038 0.929 . S
H3035 C3044 0.929 . S
C3036 H3030 0.930 . S
C3036 C3037 1.367 . S
C3036 C3044 1.378 . S
C3037 C3036 1.367 . S
C3037 C3045 1.433 . S
C3038 H3034 0.929 . S
C3038 C3040 1.378 . S
C3038 C3042 1.350 . S
C3039 C3042 1.463 . S
C3039 C3044 1.350 . S
C3039 N3047 1.427 . S
C3040 H3031 0.930 . S
C3040 C3038 1.378 . S
C3040 C3041 1.367 . S
C3041 C3040 1.367 . S
C3041 C3043 1.433 . S
C3042 C3038 1.350 . S
C3042 C3039 1.463 . S
C3042 N3046 1.427 . S
C3043 H3033 0.929 . S
C3043 C3041 1.433 . S
C3043 N3046 1.384 . S
C3044 H3035 0.929 . S
C3044 C3036 1.378 . S
C3044 C3039 1.350 . S
C3045 H3032 0.929 . S
C3045 C3037 1.433 . S
C3045 N3047 1.384 . S
N3046 C3042 1.427 . S
N3046 C3043 1.384 . S
N3047 C3039 1.427 . S
N3047 C3045 1.384 . S
H3048 C3054 0.930 . S
H3049 C3058 0.930 . S
H3050 C3063 0.929 . S
H3051 C3061 0.929 . S
H3052 C3056 0.929 . S
H3053 C3062 0.929 . S
C3054 H3048 0.930 . S
C3054 C3055 1.367 . S
C3054 C3062 1.378 . S
C3055 C3054 1.367 . S
C3055 C3063 1.433 . S
C3056 H3052 0.929 . S
C3056 C3058 1.378 . S
C3056 C3060 1.350 . S
C3057 C3060 1.463 . S
C3057 C3062 1.350 . S
C3057 N3065 1.427 . S
C3058 H3049 0.930 . S
C3058 C3056 1.378 . S
C3058 C3059 1.367 . S
C3059 C3058 1.367 . S
C3059 C3061 1.433 . S
C3060 C3056 1.350 . S
C3060 C3057 1.463 . S
C3060 N3064 1.427 . S
C3061 H3051 0.929 . S
C3061 C3059 1.433 . S
C3061 N3064 1.384 . S
C3062 H3053 0.929 . S
C3062 C3054 1.378 . S
C3062 C3057 1.350 . S
C3063 H3050 0.929 . S
C3063 C3055 1.433 . S
C3063 N3065 1.384 . S
N3064 C3060 1.427 . S
N3064 C3061 1.384 . S
N3065 C3057 1.427 . S
N3065 C3063 1.384 . S
H3066 C3072 0.930 . S
H3067 C3076 0.930 . S
H3068 C3081 0.929 . S
H3069 C3079 0.929 . S
H3070 C3074 0.929 . S
H3071 C3080 0.929 . S
C3072 H3066 0.930 . S
C3072 C3073 1.367 . S
C3072 C3080 1.378 . S
C3073 C3072 1.367 . S
C3073 C3081 1.433 . S
C3074 H3070 0.929 . S
C3074 C3076 1.378 . S
C3074 C3078 1.350 . S
C3075 C3078 1.463 . S
C3075 C3080 1.350 . S
C3075 N3083 1.427 . S
C3076 H3067 0.930 . S
C3076 C3074 1.378 . S
C3076 C3077 1.367 . S
C3077 C3076 1.367 . S
C3077 C3079 1.433 . S
C3078 C3074 1.350 . S
C3078 C3075 1.463 . S
C3078 N3082 1.427 . S
C3079 H3069 0.929 . S
C3079 C3077 1.433 . S
C3079 N3082 1.384 . S
C3080 H3071 0.929 . S
C3080 C3072 1.378 . S
C3080 C3075 1.350 . S
C3081 H3068 0.929 . S
C3081 C3073 1.433 . S
C3081 N3083 1.384 . S
N3082 C3078 1.427 . S
N3082 C3079 1.384 . S
N3083 C3075 1.427 . S
N3083 C3081 1.384 . S
H3084 C3090 0.930 . S
H3085 C3094 0.930 . S
H3086 C3099 0.929 . S
H3087 C3097 0.929 . S
H3088 C3092 0.929 . S
H3089 C3098 0.929 . S
C3090 H3084 0.930 . S
C3090 C3091 1.367 . S
C3090 C3098 1.378 . S
C3091 C3090 1.367 . S
C3091 C3099 1.433 . S
C3092 H3088 0.929 . S
C3092 C3094 1.378 . S
C3092 C3096 1.350 . S
C3093 C3096 1.463 . S
C3093 C3098 1.350 . S
C3093 N3101 1.427 . S
C3094 H3085 0.930 . S
C3094 C3092 1.378 . S
C3094 C3095 1.367 . S
C3095 C3094 1.367 . S
C3095 C3097 1.433 . S
C3096 C3092 1.350 . S
C3096 C3093 1.463 . S
C3096 N3100 1.427 . S
C3097 H3087 0.929 . S
C3097 C3095 1.433 . S
C3097 N3100 1.384 . S
C3098 H3089 0.929 . S
C3098 C3090 1.378 . S
C3098 C3093 1.350 . S
C3099 H3086 0.929 . S
C3099 C3091 1.433 . S
C3099 N3101 1.384 . S
N3100 C3096 1.427 . S
N3100 C3097 1.384 . S
N3101 C3093 1.427 . S
N3101 C3099 1.384 . S
H3102 C3108 0.930 . S
H3103 C3112 0.930 . S
H3104 C3117 0.929 . S
H3105 C3115 0.929 . S
H3106 C3110 0.929 . S
H3107 C3116 0.929 . S
C3108 H3102 0.930 . S
C3108 C3109 1.367 . S
C3108 C3116 1.378 . S
C3109 C3108 1.367 . S
C3109 C3117 1.433 . S
C3110 H3106 0.929 . S
C3110 C3112 1.378 . S
C3110 C3114 1.350 . S
C3111 C3114 1.463 . S
C3111 C3116 1.350 . S
C3111 N3119 1.427 . S
C3112 H3103 0.930 . S
C3112 C3110 1.378 . S
C3112 C3113 1.367 . S
C3113 C3112 1.367 . S
C3113 C3115 1.433 . S
C3114 C3110 1.350 . S
C3114 C3111 1.463 . S
C3114 N3118 1.427 . S
C3115 H3105 0.929 . S
C3115 C3113 1.433 . S
C3115 N3118 1.384 . S
C3116 H3107 0.929 . S
C3116 C3108 1.378 . S
C3116 C3111 1.350 . S
C3117 H3104 0.929 . S
C3117 C3109 1.433 . S
C3117 N3119 1.384 . S
N3118 C3114 1.427 . S
N3118 C3115 1.384 . S
N3119 C3111 1.427 . S
N3119 C3117 1.384 . S
H3120 C3126 0.930 . S
H3121 C3130 0.930 . S
H3122 C3135 0.929 . S
H3123 C3133 0.929 . S
H3124 C3128 0.929 . S
H3125 C3134 0.929 . S
C3126 H3120 0.930 . S
C3126 C3127 1.367 . S
C3126 C3134 1.378 . S
C3127 C3126 1.367 . S
C3127 C3135 1.433 . S
C3128 H3124 0.929 . S
C3128 C3130 1.378 . S
C3128 C3132 1.350 . S
C3129 C3132 1.463 . S
C3129 C3134 1.350 . S
C3129 N3137 1.427 . S
C3130 H3121 0.930 . S
C3130 C3128 1.378 . S
C3130 C3131 1.367 . S
C3131 C3130 1.367 . S
C3131 C3133 1.433 . S
C3132 C3128 1.350 . S
C3132 C3129 1.463 . S
C3132 N3136 1.427 . S
C3133 H3123 0.929 . S
C3133 C3131 1.433 . S
C3133 N3136 1.384 . S
C3134 H3125 0.929 . S
C3134 C3126 1.378 . S
C3134 C3129 1.350 . S
C3135 H3122 0.929 . S
C3135 C3127 1.433 . S
C3135 N3137 1.384 . S
N3136 C3132 1.427 . S
N3136 C3133 1.384 . S
N3137 C3129 1.427 . S
N3137 C3135 1.384 . S
H3138 C3144 0.930 . S
H3139 C3148 0.930 . S
H3140 C3153 0.929 . S
H3141 C3151 0.929 . S
H3142 C3146 0.929 . S
H3143 C3152 0.929 . S
C3144 H3138 0.930 . S
C3144 C3145 1.367 . S
C3144 C3152 1.378 . S
C3145 C3144 1.367 . S
C3145 C3153 1.433 . S
C3146 H3142 0.929 . S
C3146 C3148 1.378 . S
C3146 C3150 1.350 . S
C3147 C3150 1.463 . S
C3147 C3152 1.350 . S
C3147 N3155 1.427 . S
C3148 H3139 0.930 . S
C3148 C3146 1.378 . S
C3148 C3149 1.367 . S
C3149 C3148 1.367 . S
C3149 C3151 1.433 . S
C3150 C3146 1.350 . S
C3150 C3147 1.463 . S
C3150 N3154 1.427 . S
C3151 H3141 0.929 . S
C3151 C3149 1.433 . S
C3151 N3154 1.384 . S
C3152 H3143 0.929 . S
C3152 C3144 1.378 . S
C3152 C3147 1.350 . S
C3153 H3140 0.929 . S
C3153 C3145 1.433 . S
C3153 N3155 1.384 . S
N3154 C3150 1.427 . S
N3154 C3151 1.384 . S
N3155 C3147 1.427 . S
N3155 C3153 1.384 . S
H3156 C3162 0.930 . S
H3157 C3166 0.930 . S
H3158 C3171 0.929 . S
H3159 C3169 0.929 . S
H3160 C3164 0.929 . S
H3161 C3170 0.929 . S
C3162 H3156 0.930 . S
C3162 C3163 1.367 . S
C3162 C3170 1.378 . S
C3163 C3162 1.367 . S
C3163 C3171 1.433 . S
C3164 H3160 0.929 . S
C3164 C3166 1.378 . S
C3164 C3168 1.350 . S
C3165 C3168 1.463 . S
C3165 C3170 1.350 . S
C3165 N3173 1.427 . S
C3166 H3157 0.930 . S
C3166 C3164 1.378 . S
C3166 C3167 1.367 . S
C3167 C3166 1.367 . S
C3167 C3169 1.433 . S
C3168 C3164 1.350 . S
C3168 C3165 1.463 . S
C3168 N3172 1.427 . S
C3169 H3159 0.929 . S
C3169 C3167 1.433 . S
C3169 N3172 1.384 . S
C3170 H3161 0.929 . S
C3170 C3162 1.378 . S
C3170 C3165 1.350 . S
C3171 H3158 0.929 . S
C3171 C3163 1.433 . S
C3171 N3173 1.384 . S
N3172 C3168 1.427 . S
N3172 C3169 1.384 . S
N3173 C3165 1.427 . S
N3173 C3171 1.384 . S
H3174 C3180 0.930 . S
H3175 C3184 0.930 . S
H3176 C3189 0.929 . S
H3177 C3187 0.929 . S
H3178 C3182 0.929 . S
H3179 C3188 0.929 . S
C3180 H3174 0.930 . S
C3180 C3181 1.367 . S
C3180 C3188 1.378 . S
C3181 C3180 1.367 . S
C3181 C3189 1.433 . S
C3182 H3178 0.929 . S
C3182 C3184 1.378 . S
C3182 C3186 1.350 . S
C3183 C3186 1.463 . S
C3183 C3188 1.350 . S
C3183 N3191 1.427 . S
C3184 H3175 0.930 . S
C3184 C3182 1.378 . S
C3184 C3185 1.367 . S
C3185 C3184 1.367 . S
C3185 C3187 1.433 . S
C3186 C3182 1.350 . S
C3186 C3183 1.463 . S
C3186 N3190 1.427 . S
C3187 H3177 0.929 . S
C3187 C3185 1.433 . S
C3187 N3190 1.384 . S
C3188 H3179 0.929 . S
C3188 C3180 1.378 . S
C3188 C3183 1.350 . S
C3189 H3176 0.929 . S
C3189 C3181 1.433 . S
C3189 N3191 1.384 . S
N3190 C3186 1.427 . S
N3190 C3187 1.384 . S
N3191 C3183 1.427 . S
N3191 C3189 1.384 . S
H3192 C3198 0.930 . S
H3193 C3202 0.930 . S
H3194 C3207 0.929 . S
H3195 C3205 0.929 . S
H3196 C3200 0.929 . S
H3197 C3206 0.929 . S
C3198 H3192 0.930 . S
C3198 C3199 1.367 . S
C3198 C3206 1.378 . S
C3199 C3198 1.367 . S
C3199 C3207 1.433 . S
C3200 H3196 0.929 . S
C3200 C3202 1.378 . S
C3200 C3204 1.350 . S
C3201 C3204 1.463 . S
C3201 C3206 1.350 . S
C3201 N3209 1.427 . S
C3202 H3193 0.930 . S
C3202 C3200 1.378 . S
C3202 C3203 1.367 . S
C3203 C3202 1.367 . S
C3203 C3205 1.433 . S
C3204 C3200 1.350 . S
C3204 C3201 1.463 . S
C3204 N3208 1.427 . S
C3205 H3195 0.929 . S
C3205 C3203 1.433 . S
C3205 N3208 1.384 . S
C3206 H3197 0.929 . S
C3206 C3198 1.378 . S
C3206 C3201 1.350 . S
C3207 H3194 0.929 . S
C3207 C3199 1.433 . S
C3207 N3209 1.384 . S
N3208 C3204 1.427 . S
N3208 C3205 1.384 . S
N3209 C3201 1.427 . S
N3209 C3207 1.384 . S
H3210 C3216 0.930 . S
H3211 C3220 0.930 . S
H3212 C3225 0.929 . S
H3213 C3223 0.929 . S
H3214 C3218 0.929 . S
H3215 C3224 0.929 . S
C3216 H3210 0.930 . S
C3216 C3217 1.367 . S
C3216 C3224 1.378 . S
C3217 C3216 1.367 . S
C3217 C3225 1.433 . S
C3218 H3214 0.929 . S
C3218 C3220 1.378 . S
C3218 C3222 1.350 . S
C3219 C3222 1.463 . S
C3219 C3224 1.350 . S
C3219 N3227 1.427 . S
C3220 H3211 0.930 . S
C3220 C3218 1.378 . S
C3220 C3221 1.367 . S
C3221 C3220 1.367 . S
C3221 C3223 1.433 . S
C3222 C3218 1.350 . S
C3222 C3219 1.463 . S
C3222 N3226 1.427 . S
C3223 H3213 0.929 . S
C3223 C3221 1.433 . S
C3223 N3226 1.384 . S
C3224 H3215 0.929 . S
C3224 C3216 1.378 . S
C3224 C3219 1.350 . S
C3225 H3212 0.929 . S
C3225 C3217 1.433 . S
C3225 N3227 1.384 . S
N3226 C3222 1.427 . S
N3226 C3223 1.384 . S
N3227 C3219 1.427 . S
N3227 C3225 1.384 . S
H3228 C3234 0.930 . S
H3229 C3238 0.930 . S
H3230 C3243 0.929 . S
H3231 C3241 0.929 . S
H3232 C3236 0.929 . S
H3233 C3242 0.929 . S
C3234 H3228 0.930 . S
C3234 C3235 1.367 . S
C3234 C3242 1.378 . S
C3235 C3234 1.367 . S
C3235 C3243 1.433 . S
C3236 H3232 0.929 . S
C3236 C3238 1.378 . S
C3236 C3240 1.350 . S
C3237 C3240 1.463 . S
C3237 C3242 1.350 . S
C3237 N3245 1.427 . S
C3238 H3229 0.930 . S
C3238 C3236 1.378 . S
C3238 C3239 1.367 . S
C3239 C3238 1.367 . S
C3239 C3241 1.433 . S
C3240 C3236 1.350 . S
C3240 C3237 1.463 . S
C3240 N3244 1.427 . S
C3241 H3231 0.929 . S
C3241 C3239 1.433 . S
C3241 N3244 1.384 . S
C3242 H3233 0.929 . S
C3242 C3234 1.378 . S
C3242 C3237 1.350 . S
C3243 H3230 0.929 . S
C3243 C3235 1.433 . S
C3243 N3245 1.384 . S
N3244 C3240 1.427 . S
N3244 C3241 1.384 . S
N3245 C3237 1.427 . S
N3245 C3243 1.384 . S
H3246 C3252 0.930 . S
H3247 C3256 0.930 . S
H3248 C3261 0.929 . S
H3249 C3259 0.929 . S
H3250 C3254 0.929 . S
H3251 C3260 0.929 . S
C3252 H3246 0.930 . S
C3252 C3253 1.367 . S
C3252 C3260 1.378 . S
C3253 C3252 1.367 . S
C3253 C3261 1.433 . S
C3254 H3250 0.929 . S
C3254 C3256 1.378 . S
C3254 C3258 1.350 . S
C3255 C3258 1.463 . S
C3255 C3260 1.350 . S
C3255 N3263 1.427 . S
C3256 H3247 0.930 . S
C3256 C3254 1.378 . S
C3256 C3257 1.367 . S
C3257 C3256 1.367 . S
C3257 C3259 1.433 . S
C3258 C3254 1.350 . S
C3258 C3255 1.463 . S
C3258 N3262 1.427 . S
C3259 H3249 0.929 . S
C3259 C3257 1.433 . S
C3259 N3262 1.384 . S
C3260 H3251 0.929 . S
C3260 C3252 1.378 . S
C3260 C3255 1.350 . S
C3261 H3248 0.929 . S
C3261 C3253 1.433 . S
C3261 N3263 1.384 . S
N3262 C3258 1.427 . S
N3262 C3259 1.384 . S
N3263 C3255 1.427 . S
N3263 C3261 1.384 . S
H3264 C3270 0.930 . S
H3265 C3274 0.930 . S
H3266 C3279 0.929 . S
H3267 C3277 0.929 . S
H3268 C3272 0.929 . S
H3269 C3278 0.929 . S
C3270 H3264 0.930 . S
C3270 C3271 1.367 . S
C3270 C3278 1.378 . S
C3271 C3270 1.367 . S
C3271 C3279 1.433 . S
C3272 H3268 0.929 . S
C3272 C3274 1.378 . S
C3272 C3276 1.350 . S
C3273 C3276 1.463 1_455 S
C3273 C3278 1.350 . S
C3273 N3281 1.427 . S
C3274 H3265 0.930 . S
C3274 C3272 1.378 . S
C3274 C3275 1.367 . S
C3275 C3274 1.367 . S
C3275 C3277 1.433 . S
C3276 C3272 1.350 . S
C3276 C3273 1.463 1_655 S
C3276 N3280 1.427 . S
C3277 H3267 0.929 . S
C3277 C3275 1.433 . S
C3277 N3280 1.384 . S
C3278 H3269 0.929 . S
C3278 C3270 1.378 . S
C3278 C3273 1.350 . S
C3279 H3266 0.929 . S
C3279 C3271 1.433 . S
C3279 N3281 1.384 . S
N3280 C3276 1.427 . S
N3280 C3277 1.384 . S
N3281 C3273 1.427 . S
N3281 C3279 1.384 . S
H3282 C3288 0.930 . S
H3283 C3292 0.930 . S
H3284 C3297 0.929 . S
H3285 C3295 0.929 . S
H3286 C3290 0.929 . S
H3287 C3296 0.929 . S
C3288 H3282 0.930 . S
C3288 C3289 1.367 . S
C3288 C3296 1.378 . S
C3289 C3288 1.367 . S
C3289 C3297 1.433 . S
C3290 H3286 0.929 . S
C3290 C3292 1.378 . S
C3290 C3294 1.350 . S
C3291 C3294 1.463 1_655 S
C3291 C3296 1.350 . S
C3291 N3299 1.427 . S
C3292 H3283 0.930 . S
C3292 C3290 1.378 . S
C3292 C3293 1.367 . S
C3293 C3292 1.367 . S
C3293 C3295 1.433 . S
C3294 C3290 1.350 . S
C3294 C3291 1.463 1_455 S
C3294 N3298 1.427 . S
C3295 H3285 0.929 . S
C3295 C3293 1.433 . S
C3295 N3298 1.384 . S
C3296 H3287 0.929 . S
C3296 C3288 1.378 . S
C3296 C3291 1.350 . S
C3297 H3284 0.929 . S
C3297 C3289 1.433 . S
C3297 N3299 1.384 . S
N3298 C3294 1.427 . S
N3298 C3295 1.384 . S
N3299 C3291 1.427 . S
N3299 C3297 1.384 . S
H3300 C3306 0.930 . S
H3301 C3310 0.930 . S
H3302 C3315 0.929 . S
H3303 C3313 0.929 . S
H3304 C3308 0.929 . S
H3305 C3314 0.929 . S
C3306 H3300 0.930 . S
C3306 C3307 1.367 . S
C3306 C3314 1.378 . S
C3307 C3306 1.367 . S
C3307 C3315 1.433 . S
C3308 H3304 0.929 . S
C3308 C3310 1.378 . S
C3308 C3312 1.350 . S
C3309 C3312 1.463 . S
C3309 C3314 1.350 . S
C3309 N3317 1.427 . S
C3310 H3301 0.930 . S
C3310 C3308 1.378 . S
C3310 C3311 1.367 . S
C3311 C3310 1.367 . S
C3311 C3313 1.433 . S
C3312 C3308 1.350 . S
C3312 C3309 1.463 . S
C3312 N3316 1.427 . S
C3313 H3303 0.929 . S
C3313 C3311 1.433 . S
C3313 N3316 1.384 . S
C3314 H3305 0.929 . S
C3314 C3306 1.378 . S
C3314 C3309 1.350 . S
C3315 H3302 0.929 . S
C3315 C3307 1.433 . S
C3315 N3317 1.384 . S
N3316 C3312 1.427 . S
N3316 C3313 1.384 . S
N3317 C3309 1.427 . S
N3317 C3315 1.384 . S
H3318 C3324 0.930 . S
H3319 C3328 0.930 . S
H3320 C3333 0.929 . S
H3321 C3331 0.929 . S
H3322 C3326 0.929 . S
H3323 C3332 0.929 . S
C3324 H3318 0.930 . S
C3324 C3325 1.367 . S
C3324 C3332 1.378 . S
C3325 C3324 1.367 . S
C3325 C3333 1.433 . S
C3326 H3322 0.929 . S
C3326 C3328 1.378 . S
C3326 C3330 1.350 . S
C3327 C3330 1.463 . S
C3327 C3332 1.350 . S
C3327 N3335 1.427 . S
C3328 H3319 0.930 . S
C3328 C3326 1.378 . S
C3328 C3329 1.367 . S
C3329 C3328 1.367 . S
C3329 C3331 1.433 . S
C3330 C3326 1.350 . S
C3330 C3327 1.463 . S
C3330 N3334 1.427 . S
C3331 H3321 0.929 . S
C3331 C3329 1.433 . S
C3331 N3334 1.384 . S
C3332 H3323 0.929 . S
C3332 C3324 1.378 . S
C3332 C3327 1.350 . S
C3333 H3320 0.929 . S
C3333 C3325 1.433 . S
C3333 N3335 1.384 . S
N3334 C3330 1.427 . S
N3334 C3331 1.384 . S
N3335 C3327 1.427 . S
N3335 C3333 1.384 . S
H3336 C3342 0.930 . S
H3337 C3346 0.930 . S
H3338 C3351 0.929 . S
H3339 C3349 0.929 . S
H3340 C3344 0.929 . S
H3341 C3350 0.929 . S
C3342 H3336 0.930 . S
C3342 C3343 1.367 . S
C3342 C3350 1.378 . S
C3343 C3342 1.367 . S
C3343 C3351 1.433 . S
C3344 H3340 0.929 . S
C3344 C3346 1.378 . S
C3344 C3348 1.350 . S
C3345 C3348 1.463 1_655 S
C3345 C3350 1.350 . S
C3345 N3353 1.427 . S
C3346 H3337 0.930 . S
C3346 C3344 1.378 . S
C3346 C3347 1.367 . S
C3347 C3346 1.367 . S
C3347 C3349 1.433 . S
C3348 C3344 1.350 . S
C3348 C3345 1.463 1_455 S
C3348 N3352 1.427 . S
C3349 H3339 0.929 . S
C3349 C3347 1.433 . S
C3349 N3352 1.384 . S
C3350 H3341 0.929 . S
C3350 C3342 1.378 . S
C3350 C3345 1.350 . S
C3351 H3338 0.929 . S
C3351 C3343 1.433 . S
C3351 N3353 1.384 . S
N3352 C3348 1.427 . S
N3352 C3349 1.384 . S
N3353 C3345 1.427 . S
N3353 C3351 1.384 . S
H3354 C3360 0.930 . S
H3355 C3364 0.930 . S
H3356 C3369 0.929 . S
H3357 C3367 0.929 . S
H3358 C3362 0.929 . S
H3359 C3368 0.929 . S
C3360 H3354 0.930 . S
C3360 C3361 1.367 . S
C3360 C3368 1.378 . S
C3361 C3360 1.367 . S
C3361 C3369 1.433 . S
C3362 H3358 0.929 . S
C3362 C3364 1.378 . S
C3362 C3366 1.350 . S
C3363 C3366 1.463 . S
C3363 C3368 1.350 . S
C3363 N3371 1.427 . S
C3364 H3355 0.930 . S
C3364 C3362 1.378 . S
C3364 C3365 1.367 . S
C3365 C3364 1.367 . S
C3365 C3367 1.433 . S
C3366 C3362 1.350 . S
C3366 C3363 1.463 . S
C3366 N3370 1.427 . S
C3367 H3357 0.929 . S
C3367 C3365 1.433 . S
C3367 N3370 1.384 . S
C3368 H3359 0.929 . S
C3368 C3360 1.378 . S
C3368 C3363 1.350 . S
C3369 H3356 0.929 . S
C3369 C3361 1.433 . S
C3369 N3371 1.384 . S
N3370 C3366 1.427 . S
N3370 C3367 1.384 . S
N3371 C3363 1.427 . S
N3371 C3369 1.384 . S
H3372 C3378 0.930 . S
H3373 C3382 0.930 . S
H3374 C3387 0.929 . S
H3375 C3385 0.929 . S
H3376 C3380 0.929 . S
H3377 C3386 0.929 . S
C3378 H3372 0.930 . S
C3378 C3379 1.367 . S
C3378 C3386 1.378 . S
C3379 C3378 1.367 . S
C3379 C3387 1.433 . S
C3380 H3376 0.929 . S
C3380 C3382 1.378 . S
C3380 C3384 1.350 . S
C3381 C3384 1.463 . S
C3381 C3386 1.350 . S
C3381 N3389 1.427 . S
C3382 H3373 0.930 . S
C3382 C3380 1.378 . S
C3382 C3383 1.367 . S
C3383 C3382 1.367 . S
C3383 C3385 1.433 . S
C3384 C3380 1.350 . S
C3384 C3381 1.463 . S
C3384 N3388 1.427 . S
C3385 H3375 0.929 . S
C3385 C3383 1.433 . S
C3385 N3388 1.384 . S
C3386 H3377 0.929 . S
C3386 C3378 1.378 . S
C3386 C3381 1.350 . S
C3387 H3374 0.929 . S
C3387 C3379 1.433 . S
C3387 N3389 1.384 . S
N3388 C3384 1.427 . S
N3388 C3385 1.384 . S
N3389 C3381 1.427 . S
N3389 C3387 1.384 . S
H3390 C3396 0.930 . S
H3391 C3400 0.930 . S
H3392 C3405 0.929 . S
H3393 C3403 0.929 . S
H3394 C3398 0.929 . S
H3395 C3404 0.929 . S
C3396 H3390 0.930 . S
C3396 C3397 1.367 1_655 S
C3396 C3404 1.378 . S
C3397 C3396 1.367 1_455 S
C3397 C3405 1.433 . S
C3398 H3394 0.929 . S
C3398 C3400 1.378 . S
C3398 C3402 1.350 1_455 S
C3399 C3402 1.463 1_455 S
C3399 C3404 1.350 1_455 S
C3399 N3407 1.427 . S
C3400 H3391 0.930 . S
C3400 C3398 1.378 . S
C3400 C3401 1.367 1_455 S
C3401 C3400 1.367 1_655 S
C3401 C3403 1.433 . S
C3402 C3398 1.350 1_655 S
C3402 C3399 1.463 1_655 S
C3402 N3406 1.427 . S
C3403 H3393 0.929 . S
C3403 C3401 1.433 . S
C3403 N3406 1.384 . S
C3404 H3395 0.929 . S
C3404 C3396 1.378 . S
C3404 C3399 1.350 1_655 S
C3405 H3392 0.929 . S
C3405 C3397 1.433 . S
C3405 N3407 1.384 . S
N3406 C3402 1.427 . S
N3406 C3403 1.384 . S
N3407 C3399 1.427 . S
N3407 C3405 1.384 . S
H3408 C3414 0.930 . S
H3409 C3418 0.930 . S
H3410 C3423 0.929 . S
H3411 C3421 0.929 . S
H3412 C3416 0.929 . S
H3413 C3422 0.929 . S
C3414 H3408 0.930 . S
C3414 C3415 1.367 . S
C3414 C3422 1.378 . S
C3415 C3414 1.367 . S
C3415 C3423 1.433 . S
C3416 H3412 0.929 . S
C3416 C3418 1.378 . S
C3416 C3420 1.350 . S
C3417 C3420 1.463 1_455 S
C3417 C3422 1.350 . S
C3417 N3425 1.427 . S
C3418 H3409 0.930 . S
C3418 C3416 1.378 . S
C3418 C3419 1.367 . S
C3419 C3418 1.367 . S
C3419 C3421 1.433 . S
C3420 C3416 1.350 . S
C3420 C3417 1.463 1_655 S
C3420 N3424 1.427 . S
C3421 H3411 0.929 . S
C3421 C3419 1.433 . S
C3421 N3424 1.384 . S
C3422 H3413 0.929 . S
C3422 C3414 1.378 . S
C3422 C3417 1.350 . S
C3423 H3410 0.929 . S
C3423 C3415 1.433 . S
C3423 N3425 1.384 . S
N3424 C3420 1.427 . S
N3424 C3421 1.384 . S
N3425 C3417 1.427 . S
N3425 C3423 1.384 . S
H3426 C3432 0.930 . S
H3427 C3436 0.930 . S
H3428 C3441 0.933 . S
H3429 C3439 0.933 . S
H3430 C3434 0.929 . S
H3431 C3440 0.929 . S
C3432 H3426 0.930 . S
C3432 C3433 1.367 . S
C3432 C3440 1.378 . S
C3433 C3432 1.367 . S
C3433 C3441 1.427 1_655 S
C3434 H3430 0.929 . S
C3434 C3436 1.378 . S
C3434 C3438 1.350 . S
C3435 C3438 1.463 1_655 S
C3435 C3440 1.350 . S
C3435 N3443 1.427 1_655 S
C3436 H3427 0.930 . S
C3436 C3434 1.378 . S
C3436 C3437 1.367 . S
C3437 C3436 1.367 . S
C3437 C3439 1.427 1_455 S
C3438 C3434 1.350 . S
C3438 C3435 1.463 1_455 S
C3438 N3442 1.427 1_455 S
C3439 H3429 0.933 . S
C3439 C3437 1.427 1_655 S
C3439 N3442 1.386 . S
C3440 H3431 0.929 . S
C3440 C3432 1.378 . S
C3440 C3435 1.350 . S
C3441 H3428 0.933 . S
C3441 C3433 1.427 1_455 S
C3441 N3443 1.386 . S
N3442 C3438 1.427 1_655 S
N3442 C3439 1.386 . S
N3443 C3435 1.427 1_455 S
N3443 C3441 1.386 . S
H3444 C3450 0.930 . S
H3445 C3454 0.930 . S
H3446 C3459 0.929 . S
H3447 C3457 0.929 . S
H3448 C3452 0.929 . S
H3449 C3458 0.929 . S
C3450 H3444 0.930 . S
C3450 C3451 1.367 . S
C3450 C3458 1.378 . S
C3451 C3450 1.367 . S
C3451 C3459 1.433 . S
C3452 H3448 0.929 . S
C3452 C3454 1.378 . S
C3452 C3456 1.350 . S
C3453 C3456 1.463 . S
C3453 C3458 1.350 . S
C3453 N3461 1.427 . S
C3454 H3445 0.930 . S
C3454 C3452 1.378 . S
C3454 C3455 1.367 . S
C3455 C3454 1.367 . S
C3455 C3457 1.433 . S
C3456 C3452 1.350 . S
C3456 C3453 1.463 . S
C3456 N3460 1.427 . S
C3457 H3447 0.929 . S
C3457 C3455 1.433 . S
C3457 N3460 1.384 . S
C3458 H3449 0.929 . S
C3458 C3450 1.378 . S
C3458 C3453 1.350 . S
C3459 H3446 0.929 . S
C3459 C3451 1.433 . S
C3459 N3461 1.384 . S
N3460 C3456 1.427 . S
N3460 C3457 1.384 . S
N3461 C3453 1.427 . S
N3461 C3459 1.384 . S
H3462 C3468 0.930 . S
H3463 C3472 0.930 . S
H3464 C3477 0.929 . S
H3465 C3475 0.929 . S
H3466 C3470 0.929 . S
H3467 C3476 0.929 . S
C3468 H3462 0.930 . S
C3468 C3469 1.367 . S
C3468 C3476 1.378 . S
C3469 C3468 1.367 . S
C3469 C3477 1.433 . S
C3470 H3466 0.929 . S
C3470 C3472 1.378 . S
C3470 C3474 1.350 . S
C3471 C3474 1.463 . S
C3471 C3476 1.350 . S
C3471 N3479 1.427 . S
C3472 H3463 0.930 . S
C3472 C3470 1.378 . S
C3472 C3473 1.367 . S
C3473 C3472 1.367 . S
C3473 C3475 1.433 . S
C3474 C3470 1.350 . S
C3474 C3471 1.463 . S
C3474 N3478 1.427 . S
C3475 H3465 0.929 . S
C3475 C3473 1.433 . S
C3475 N3478 1.384 . S
C3476 H3467 0.929 . S
C3476 C3468 1.378 . S
C3476 C3471 1.350 . S
C3477 H3464 0.929 . S
C3477 C3469 1.433 . S
C3477 N3479 1.384 . S
N3478 C3474 1.427 . S
N3478 C3475 1.384 . S
N3479 C3471 1.427 . S
N3479 C3477 1.384 . S
H3480 C3486 0.930 . S
H3481 C3490 0.930 . S
H3482 C3495 0.929 . S
H3483 C3493 0.929 . S
H3484 C3488 0.929 . S
H3485 C3494 0.929 . S
C3486 H3480 0.930 . S
C3486 C3487 1.367 . S
C3486 C3494 1.378 . S
C3487 C3486 1.367 . S
C3487 C3495 1.433 . S
C3488 H3484 0.929 . S
C3488 C3490 1.378 . S
C3488 C3492 1.350 . S
C3489 C3492 1.463 1_455 S
C3489 C3494 1.350 . S
C3489 N3497 1.427 . S
C3490 H3481 0.930 . S
C3490 C3488 1.378 . S
C3490 C3491 1.367 . S
C3491 C3490 1.367 . S
C3491 C3493 1.433 . S
C3492 C3488 1.350 . S
C3492 C3489 1.463 1_655 S
C3492 N3496 1.427 . S
C3493 H3483 0.929 . S
C3493 C3491 1.433 . S
C3493 N3496 1.384 . S
C3494 H3485 0.929 . S
C3494 C3486 1.378 . S
C3494 C3489 1.350 . S
C3495 H3482 0.929 . S
C3495 C3487 1.433 . S
C3495 N3497 1.384 . S
N3496 C3492 1.427 . S
N3496 C3493 1.384 . S
N3497 C3489 1.427 . S
N3497 C3495 1.384 . S
H3498 C3504 0.930 . S
H3499 C3508 0.930 . S
H3500 C3513 0.929 . S
H3501 C3511 0.929 . S
H3502 C3506 0.929 . S
H3503 C3512 0.929 . S
C3504 H3498 0.930 . S
C3504 C3505 1.367 . S
C3504 C3512 1.378 . S
C3505 C3504 1.367 . S
C3505 C3513 1.433 . S
C3506 H3502 0.929 . S
C3506 C3508 1.378 . S
C3506 C3510 1.350 . S
C3507 C3510 1.463 . S
C3507 C3512 1.350 . S
C3507 N3515 1.427 . S
C3508 H3499 0.930 . S
C3508 C3506 1.378 . S
C3508 C3509 1.367 . S
C3509 C3508 1.367 . S
C3509 C3511 1.433 . S
C3510 C3506 1.350 . S
C3510 C3507 1.463 . S
C3510 N3514 1.427 . S
C3511 H3501 0.929 . S
C3511 C3509 1.433 . S
C3511 N3514 1.384 . S
C3512 H3503 0.929 . S
C3512 C3504 1.378 . S
C3512 C3507 1.350 . S
C3513 H3500 0.929 . S
C3513 C3505 1.433 . S
C3513 N3515 1.384 . S
N3514 C3510 1.427 . S
N3514 C3511 1.384 . S
N3515 C3507 1.427 . S
N3515 C3513 1.384 . S
H3516 C3522 0.930 . S
H3517 C3526 0.930 . S
H3518 C3531 0.929 . S
H3519 C3529 0.929 . S
H3520 C3524 0.929 . S
H3521 C3530 0.929 . S
C3522 H3516 0.930 . S
C3522 C3523 1.367 . S
C3522 C3530 1.378 . S
C3523 C3522 1.367 . S
C3523 C3531 1.433 . S
C3524 H3520 0.929 . S
C3524 C3526 1.378 . S
C3524 C3528 1.350 . S
C3525 C3528 1.463 . S
C3525 C3530 1.350 . S
C3525 N3533 1.427 . S
C3526 H3517 0.930 . S
C3526 C3524 1.378 . S
C3526 C3527 1.367 . S
C3527 C3526 1.367 . S
C3527 C3529 1.433 . S
C3528 C3524 1.350 . S
C3528 C3525 1.463 . S
C3528 N3532 1.427 . S
C3529 H3519 0.929 . S
C3529 C3527 1.433 . S
C3529 N3532 1.384 . S
C3530 H3521 0.929 . S
C3530 C3522 1.378 . S
C3530 C3525 1.350 . S
C3531 H3518 0.929 . S
C3531 C3523 1.433 . S
C3531 N3533 1.384 . S
N3532 C3528 1.427 . S
N3532 C3529 1.384 . S
N3533 C3525 1.427 . S
N3533 C3531 1.384 . S
H3534 C3540 0.930 . S
H3535 C3544 0.930 . S
H3536 C3549 0.929 . S
H3537 C3547 0.929 . S
H3538 C3542 0.929 . S
H3539 C3548 0.929 . S
C3540 H3534 0.930 . S
C3540 C3541 1.367 . S
C3540 C3548 1.378 . S
C3541 C3540 1.367 . S
C3541 C3549 1.433 . S
C3542 H3538 0.929 . S
C3542 C3544 1.378 . S
C3542 C3546 1.350 . S
C3543 C3546 1.463 1_655 S
C3543 C3548 1.350 . S
C3543 N3551 1.427 . S
C3544 H3535 0.930 . S
C3544 C3542 1.378 . S
C3544 C3545 1.367 . S
C3545 C3544 1.367 . S
C3545 C3547 1.433 . S
C3546 C3542 1.350 . S
C3546 C3543 1.463 1_455 S
C3546 N3550 1.427 . S
C3547 H3537 0.929 . S
C3547 C3545 1.433 . S
C3547 N3550 1.384 . S
C3548 H3539 0.929 . S
C3548 C3540 1.378 . S
C3548 C3543 1.350 . S
C3549 H3536 0.929 . S
C3549 C3541 1.433 . S
C3549 N3551 1.384 . S
N3550 C3546 1.427 . S
N3550 C3547 1.384 . S
N3551 C3543 1.427 . S
N3551 C3549 1.384 . S
H3552 C3558 0.930 . S
H3553 C3562 0.930 . S
H3554 C3567 0.929 . S
H3555 C3565 0.929 . S
H3556 C3560 0.929 . S
H3557 C3566 0.929 . S
C3558 H3552 0.930 . S
C3558 C3559 1.367 . S
C3558 C3566 1.378 . S
C3559 C3558 1.367 . S
C3559 C3567 1.433 . S
C3560 H3556 0.929 . S
C3560 C3562 1.378 . S
C3560 C3564 1.350 . S
C3561 C3564 1.463 . S
C3561 C3566 1.350 . S
C3561 N3569 1.427 . S
C3562 H3553 0.930 . S
C3562 C3560 1.378 . S
C3562 C3563 1.367 . S
C3563 C3562 1.367 . S
C3563 C3565 1.433 . S
C3564 C3560 1.350 . S
C3564 C3561 1.463 . S
C3564 N3568 1.427 . S
C3565 H3555 0.929 . S
C3565 C3563 1.433 . S
C3565 N3568 1.384 . S
C3566 H3557 0.929 . S
C3566 C3558 1.378 . S
C3566 C3561 1.350 . S
C3567 H3554 0.929 . S
C3567 C3559 1.433 . S
C3567 N3569 1.384 . S
N3568 C3564 1.427 . S
N3568 C3565 1.384 . S
N3569 C3561 1.427 . S
N3569 C3567 1.384 . S
H3570 C3576 0.930 . S
H3571 C3580 0.930 . S
H3572 C3585 0.929 . S
H3573 C3583 0.929 . S
H3574 C3578 0.929 . S
H3575 C3584 0.929 . S
C3576 H3570 0.930 . S
C3576 C3577 1.367 . S
C3576 C3584 1.378 . S
C3577 C3576 1.367 . S
C3577 C3585 1.433 1_545 S
C3578 H3574 0.929 . S
C3578 C3580 1.378 . S
C3578 C3582 1.350 . S
C3579 C3582 1.463 1_645 S
C3579 C3584 1.350 . S
C3579 N3587 1.427 1_545 S
C3580 H3571 0.930 . S
C3580 C3578 1.378 . S
C3580 C3581 1.367 . S
C3581 C3580 1.367 . S
C3581 C3583 1.433 1_565 S
C3582 C3578 1.350 . S
C3582 C3579 1.463 1_465 S
C3582 N3586 1.427 1_565 S
C3583 H3573 0.929 . S
C3583 C3581 1.433 1_545 S
C3583 N3586 1.384 . S
C3584 H3575 0.929 . S
C3584 C3576 1.378 . S
C3584 C3579 1.350 . S
C3585 H3572 0.929 . S
C3585 C3577 1.433 1_565 S
C3585 N3587 1.384 . S
N3586 C3582 1.427 1_545 S
N3586 C3583 1.384 . S
N3587 C3579 1.427 1_565 S
N3587 C3585 1.384 . S
H3588 C3594 0.930 . S
H3589 C3598 0.930 . S
H3590 C3603 0.929 . S
H3591 C3601 0.929 . S
H3592 C3596 0.929 . S
H3593 C3602 0.929 . S
C3594 H3588 0.930 . S
C3594 C3595 1.367 . S
C3594 C3602 1.378 . S
C3595 C3594 1.367 . S
C3595 C3603 1.433 . S
C3596 H3592 0.929 . S
C3596 C3598 1.378 . S
C3596 C3600 1.350 . S
C3597 C3600 1.463 . S
C3597 C3602 1.350 . S
C3597 N3605 1.427 . S
C3598 H3589 0.930 . S
C3598 C3596 1.378 . S
C3598 C3599 1.367 . S
C3599 C3598 1.367 . S
C3599 C3601 1.433 . S
C3600 C3596 1.350 . S
C3600 C3597 1.463 . S
C3600 N3604 1.427 . S
C3601 H3591 0.929 . S
C3601 C3599 1.433 . S
C3601 N3604 1.384 . S
C3602 H3593 0.929 . S
C3602 C3594 1.378 . S
C3602 C3597 1.350 . S
C3603 H3590 0.929 . S
C3603 C3595 1.433 . S
C3603 N3605 1.384 . S
N3604 C3600 1.427 . S
N3604 C3601 1.384 . S
N3605 C3597 1.427 . S
N3605 C3603 1.384 . S
H3606 C3612 0.933 . S
H3607 C3616 0.933 . S
H3608 C3621 0.929 . S
H3609 C3619 0.929 . S
H3610 C3614 0.929 . S
H3611 C3620 0.929 . S
C3612 H3606 0.933 . S
C3612 C3613 1.362 1_565 S
C3612 C3620 1.380 . S
C3613 C3612 1.362 1_545 S
C3613 C3621 1.433 . S
C3614 H3610 0.929 . S
C3614 C3616 1.380 . S
C3614 C3618 1.350 1_545 S
C3615 C3618 1.463 1_544 S
C3615 C3620 1.350 1_545 S
C3615 N3623 1.427 . S
C3616 H3607 0.933 . S
C3616 C3614 1.380 . S
C3616 C3617 1.362 1_545 S
C3617 C3616 1.362 1_565 S
C3617 C3619 1.433 . S
C3618 C3614 1.350 1_565 S
C3618 C3615 1.463 1_566 S
C3618 N3622 1.427 . S
C3619 H3609 0.929 . S
C3619 C3617 1.433 . S
C3619 N3622 1.384 . S
C3620 H3611 0.929 . S
C3620 C3612 1.380 . S
C3620 C3615 1.350 1_565 S
C3621 H3608 0.929 . S
C3621 C3613 1.433 . S
C3621 N3623 1.384 . S
N3622 C3618 1.427 . S
N3622 C3619 1.384 . S
N3623 C3615 1.427 . S
N3623 C3621 1.384 . S
H3624 C3630 0.930 . S
H3625 C3634 0.930 . S
H3626 C3639 0.929 . S
H3627 C3637 0.929 . S
H3628 C3632 0.929 . S
H3629 C3638 0.929 . S
C3630 H3624 0.930 . S
C3630 C3631 1.367 . S
C3630 C3638 1.378 . S
C3631 C3630 1.367 . S
C3631 C3639 1.433 . S
C3632 H3628 0.929 . S
C3632 C3634 1.378 . S
C3632 C3636 1.350 . S
C3633 C3636 1.463 . S
C3633 C3638 1.350 . S
C3633 N3641 1.427 . S
C3634 H3625 0.930 . S
C3634 C3632 1.378 . S
C3634 C3635 1.367 . S
C3635 C3634 1.367 . S
C3635 C3637 1.433 . S
C3636 C3632 1.350 . S
C3636 C3633 1.463 . S
C3636 N3640 1.427 . S
C3637 H3627 0.929 . S
C3637 C3635 1.433 . S
C3637 N3640 1.384 . S
C3638 H3629 0.929 . S
C3638 C3630 1.378 . S
C3638 C3633 1.350 . S
C3639 H3626 0.929 . S
C3639 C3631 1.433 . S
C3639 N3641 1.384 . S
N3640 C3636 1.427 . S
N3640 C3637 1.384 . S
N3641 C3633 1.427 . S
N3641 C3639 1.384 . S
H3642 C3648 0.930 . S
H3643 C3652 0.930 . S
H3644 C3657 0.929 . S
H3645 C3655 0.929 . S
H3646 C3650 0.929 . S
H3647 C3656 0.929 . S
C3648 H3642 0.930 . S
C3648 C3649 1.367 1_565 S
C3648 C3656 1.378 . S
C3649 C3648 1.367 1_545 S
C3649 C3657 1.433 . S
C3650 H3646 0.929 . S
C3650 C3652 1.378 . S
C3650 C3654 1.350 1_545 S
C3651 C3654 1.463 1_545 S
C3651 C3656 1.350 1_545 S
C3651 N3659 1.427 . S
C3652 H3643 0.930 . S
C3652 C3650 1.378 . S
C3652 C3653 1.367 1_545 S
C3653 C3652 1.367 1_565 S
C3653 C3655 1.433 . S
C3654 C3650 1.350 1_565 S
C3654 C3651 1.463 1_565 S
C3654 N3658 1.427 . S
C3655 H3645 0.929 . S
C3655 C3653 1.433 . S
C3655 N3658 1.384 . S
C3656 H3647 0.929 . S
C3656 C3648 1.378 . S
C3656 C3651 1.350 1_565 S
C3657 H3644 0.929 . S
C3657 C3649 1.433 . S
C3657 N3659 1.384 . S
N3658 C3654 1.427 . S
N3658 C3655 1.384 . S
N3659 C3651 1.427 . S
N3659 C3657 1.384 . S
H3660 C3666 0.930 . S
H3661 C3670 0.930 . S
H3662 C3675 0.929 . S
H3663 C3673 0.929 . S
H3664 C3668 0.929 . S
H3665 C3674 0.929 . S
C3666 H3660 0.930 . S
C3666 C3667 1.367 . S
C3666 C3674 1.378 . S
C3667 C3666 1.367 . S
C3667 C3675 1.433 . S
C3668 H3664 0.929 . S
C3668 C3670 1.378 . S
C3668 C3672 1.350 . S
C3669 C3672 1.463 . S
C3669 C3674 1.350 . S
C3669 N3677 1.427 . S
C3670 H3661 0.930 . S
C3670 C3668 1.378 . S
C3670 C3671 1.367 . S
C3671 C3670 1.367 . S
C3671 C3673 1.433 . S
C3672 C3668 1.350 . S
C3672 C3669 1.463 . S
C3672 N3676 1.427 . S
C3673 H3663 0.929 . S
C3673 C3671 1.433 . S
C3673 N3676 1.384 . S
C3674 H3665 0.929 . S
C3674 C3666 1.378 . S
C3674 C3669 1.350 . S
C3675 H3662 0.929 . S
C3675 C3667 1.433 . S
C3675 N3677 1.384 . S
N3676 C3672 1.427 . S
N3676 C3673 1.384 . S
N3677 C3669 1.427 . S
N3677 C3675 1.384 . S
H3678 C3684 0.930 . S
H3679 C3688 0.930 . S
H3680 C3693 0.929 . S
H3681 C3691 0.929 . S
H3682 C3686 0.929 . S
H3683 C3692 0.929 . S
C3684 H3678 0.930 . S
C3684 C3685 1.367 1_565 S
C3684 C3692 1.378 . S
C3685 C3684 1.367 1_545 S
C3685 C3693 1.433 1_455 S
C3686 H3682 0.929 . S
C3686 C3688 1.378 . S
C3686 C3690 1.350 1_545 S
C3687 C3690 1.463 1_446 S
C3687 C3692 1.350 1_545 S
C3687 N3695 1.427 1_455 S
C3688 H3679 0.930 . S
C3688 C3686 1.378 . S
C3688 C3689 1.367 1_545 S
C3689 C3688 1.367 1_565 S
C3689 C3691 1.433 1_655 S
C3690 C3686 1.350 1_565 S
C3690 C3687 1.463 1_664 S
C3690 N3694 1.427 1_655 S
C3691 H3681 0.929 . S
C3691 C3689 1.433 1_455 S
C3691 N3694 1.384 . S
C3692 H3683 0.929 . S
C3692 C3684 1.378 . S
C3692 C3687 1.350 1_565 S
C3693 H3680 0.929 . S
C3693 C3685 1.433 1_655 S
C3693 N3695 1.384 . S
N3694 C3690 1.427 1_455 S
N3694 C3691 1.384 . S
N3695 C3687 1.427 1_655 S
N3695 C3693 1.384 . S
H3696 C3702 0.930 . S
H3697 C3706 0.930 . S
H3698 C3711 0.929 . S
H3699 C3709 0.929 . S
H3700 C3704 0.929 . S
H3701 C3710 0.929 . S
C3702 H3696 0.930 . S
C3702 C3703 1.367 . S
C3702 C3710 1.378 . S
C3703 C3702 1.367 . S
C3703 C3711 1.433 . S
C3704 H3700 0.929 . S
C3704 C3706 1.378 . S
C3704 C3708 1.350 . S
C3705 C3708 1.463 . S
C3705 C3710 1.350 . S
C3705 N3713 1.427 . S
C3706 H3697 0.930 . S
C3706 C3704 1.378 . S
C3706 C3707 1.367 . S
C3707 C3706 1.367 . S
C3707 C3709 1.433 . S
C3708 C3704 1.350 . S
C3708 C3705 1.463 . S
C3708 N3712 1.427 . S
C3709 H3699 0.929 . S
C3709 C3707 1.433 . S
C3709 N3712 1.384 . S
C3710 H3701 0.929 . S
C3710 C3702 1.378 . S
C3710 C3705 1.350 . S
C3711 H3698 0.929 . S
C3711 C3703 1.433 . S
C3711 N3713 1.384 . S
N3712 C3708 1.427 . S
N3712 C3709 1.384 . S
N3713 C3705 1.427 . S
N3713 C3711 1.384 . S
H3714 C3720 0.930 . S
H3715 C3724 0.930 . S
H3716 C3729 0.929 . S
H3717 C3727 0.929 . S
H3718 C3722 0.929 . S
H3719 C3728 0.929 . S
C3720 H3714 0.930 . S
C3720 C3721 1.367 . S
C3720 C3728 1.378 . S
C3721 C3720 1.367 . S
C3721 C3729 1.433 . S
C3722 H3718 0.929 . S
C3722 C3724 1.378 . S
C3722 C3726 1.350 . S
C3723 C3726 1.463 . S
C3723 C3728 1.350 . S
C3723 N3731 1.427 . S
C3724 H3715 0.930 . S
C3724 C3722 1.378 . S
C3724 C3725 1.367 . S
C3725 C3724 1.367 . S
C3725 C3727 1.433 . S
C3726 C3722 1.350 . S
C3726 C3723 1.463 . S
C3726 N3730 1.427 . S
C3727 H3717 0.929 . S
C3727 C3725 1.433 . S
C3727 N3730 1.384 . S
C3728 H3719 0.929 . S
C3728 C3720 1.378 . S
C3728 C3723 1.350 . S
C3729 H3716 0.929 . S
C3729 C3721 1.433 . S
C3729 N3731 1.384 . S
N3730 C3726 1.427 . S
N3730 C3727 1.384 . S
N3731 C3723 1.427 . S
N3731 C3729 1.384 . S
H3732 C3738 0.930 . S
H3733 C3742 0.930 . S
H3734 C3747 0.929 . S
H3735 C3745 0.929 . S
H3736 C3740 0.929 . S
H3737 C3746 0.929 . S
C3738 H3732 0.930 . S
C3738 C3739 1.367 . S
C3738 C3746 1.378 . S
C3739 C3738 1.367 . S
C3739 C3747 1.433 . S
C3740 H3736 0.929 . S
C3740 C3742 1.378 . S
C3740 C3744 1.350 . S
C3741 C3744 1.463 . S
C3741 C3746 1.350 . S
C3741 N3749 1.427 . S
C3742 H3733 0.930 . S
C3742 C3740 1.378 . S
C3742 C3743 1.367 . S
C3743 C3742 1.367 . S
C3743 C3745 1.433 . S
C3744 C3740 1.350 . S
C3744 C3741 1.463 . S
C3744 N3748 1.427 . S
C3745 H3735 0.929 . S
C3745 C3743 1.433 . S
C3745 N3748 1.384 . S
C3746 H3737 0.929 . S
C3746 C3738 1.378 . S
C3746 C3741 1.350 . S
C3747 H3734 0.929 . S
C3747 C3739 1.433 . S
C3747 N3749 1.384 . S
N3748 C3744 1.427 . S
N3748 C3745 1.384 . S
N3749 C3741 1.427 . S
N3749 C3747 1.384 . S
H3750 C3756 0.930 . S
H3751 C3760 0.930 . S
H3752 C3765 0.929 . S
H3753 C3763 0.929 . S
H3754 C3758 0.929 . S
H3755 C3764 0.929 . S
C3756 H3750 0.930 . S
C3756 C3757 1.367 . S
C3756 C3764 1.378 . S
C3757 C3756 1.367 . S
C3757 C3765 1.433 . S
C3758 H3754 0.929 . S
C3758 C3760 1.378 . S
C3758 C3762 1.350 . S
C3759 C3762 1.463 . S
C3759 C3764 1.350 . S
C3759 N3767 1.427 . S
C3760 H3751 0.930 . S
C3760 C3758 1.378 . S
C3760 C3761 1.367 . S
C3761 C3760 1.367 . S
C3761 C3763 1.433 . S
C3762 C3758 1.350 . S
C3762 C3759 1.463 . S
C3762 N3766 1.427 . S
C3763 H3753 0.929 . S
C3763 C3761 1.433 . S
C3763 N3766 1.384 . S
C3764 H3755 0.929 . S
C3764 C3756 1.378 . S
C3764 C3759 1.350 . S
C3765 H3752 0.929 . S
C3765 C3757 1.433 . S
C3765 N3767 1.384 . S
N3766 C3762 1.427 . S
N3766 C3763 1.384 . S
N3767 C3759 1.427 . S
N3767 C3765 1.384 . S
H3768 C3774 0.930 . S
H3769 C3778 0.930 . S
H3770 C3783 0.929 . S
H3771 C3781 0.929 . S
H3772 C3776 0.929 . S
H3773 C3782 0.929 . S
C3774 H3768 0.930 . S
C3774 C3775 1.367 . S
C3774 C3782 1.378 . S
C3775 C3774 1.367 . S
C3775 C3783 1.433 . S
C3776 H3772 0.929 . S
C3776 C3778 1.378 . S
C3776 C3780 1.350 . S
C3777 C3780 1.463 1_554 S
C3777 C3782 1.350 . S
C3777 N3785 1.427 . S
C3778 H3769 0.930 . S
C3778 C3776 1.378 . S
C3778 C3779 1.367 . S
C3779 C3778 1.367 . S
C3779 C3781 1.433 . S
C3780 C3776 1.350 . S
C3780 C3777 1.463 1_556 S
C3780 N3784 1.427 . S
C3781 H3771 0.929 . S
C3781 C3779 1.433 . S
C3781 N3784 1.384 . S
C3782 H3773 0.929 . S
C3782 C3774 1.378 . S
C3782 C3777 1.350 . S
C3783 H3770 0.929 . S
C3783 C3775 1.433 . S
C3783 N3785 1.384 . S
N3784 C3780 1.427 . S
N3784 C3781 1.384 . S
N3785 C3777 1.427 . S
N3785 C3783 1.384 . S
H3786 C3792 0.930 . S
H3787 C3796 0.930 . S
H3788 C3801 0.929 . S
H3789 C3799 0.929 . S
H3790 C3794 0.929 . S
H3791 C3800 0.929 . S
C3792 H3786 0.930 . S
C3792 C3793 1.367 . S
C3792 C3800 1.378 . S
C3793 C3792 1.367 . S
C3793 C3801 1.433 . S
C3794 H3790 0.929 . S
C3794 C3796 1.378 . S
C3794 C3798 1.350 . S
C3795 C3798 1.463 1_655 S
C3795 C3800 1.350 . S
C3795 N3803 1.427 . S
C3796 H3787 0.930 . S
C3796 C3794 1.378 . S
C3796 C3797 1.367 . S
C3797 C3796 1.367 . S
C3797 C3799 1.433 . S
C3798 C3794 1.350 . S
C3798 C3795 1.463 1_455 S
C3798 N3802 1.427 . S
C3799 H3789 0.929 . S
C3799 C3797 1.433 . S
C3799 N3802 1.384 . S
C3800 H3791 0.929 . S
C3800 C3792 1.378 . S
C3800 C3795 1.350 . S
C3801 H3788 0.929 . S
C3801 C3793 1.433 . S
C3801 N3803 1.384 . S
N3802 C3798 1.427 . S
N3802 C3799 1.384 . S
N3803 C3795 1.427 . S
N3803 C3801 1.384 . S
H3804 C3810 0.930 . S
H3805 C3814 0.930 . S
H3806 C3819 0.929 . S
H3807 C3817 0.929 . S
H3808 C3812 0.929 . S
H3809 C3818 0.929 . S
C3810 H3804 0.930 . S
C3810 C3811 1.367 . S
C3810 C3818 1.378 . S
C3811 C3810 1.367 . S
C3811 C3819 1.433 1_455 S
C3812 H3808 0.929 . S
C3812 C3814 1.378 . S
C3812 C3816 1.350 . S
C3813 C3816 1.463 1_454 S
C3813 C3818 1.350 . S
C3813 N3821 1.427 1_455 S
C3814 H3805 0.930 . S
C3814 C3812 1.378 . S
C3814 C3815 1.367 . S
C3815 C3814 1.367 . S
C3815 C3817 1.433 1_655 S
C3816 C3812 1.350 . S
C3816 C3813 1.463 1_656 S
C3816 N3820 1.427 1_655 S
C3817 H3807 0.929 . S
C3817 C3815 1.433 1_455 S
C3817 N3820 1.384 . S
C3818 H3809 0.929 . S
C3818 C3810 1.378 . S
C3818 C3813 1.350 . S
C3819 H3806 0.929 . S
C3819 C3811 1.433 1_655 S
C3819 N3821 1.384 . S
N3820 C3816 1.427 1_455 S
N3820 C3817 1.384 . S
N3821 C3813 1.427 1_655 S
N3821 C3819 1.384 . S
H3822 C3828 0.930 . S
H3823 C3832 0.930 . S
H3824 C3837 0.929 . S
H3825 C3835 0.929 . S
H3826 C3830 0.929 . S
H3827 C3836 0.929 . S
C3828 H3822 0.930 . S
C3828 C3829 1.367 . S
C3828 C3836 1.378 . S
C3829 C3828 1.367 . S
C3829 C3837 1.433 . S
C3830 H3826 0.929 . S
C3830 C3832 1.378 . S
C3830 C3834 1.350 . S
C3831 C3834 1.463 . S
C3831 C3836 1.350 . S
C3831 N3839 1.427 . S
C3832 H3823 0.930 . S
C3832 C3830 1.378 . S
C3832 C3833 1.367 . S
C3833 C3832 1.367 . S
C3833 C3835 1.433 . S
C3834 C3830 1.350 . S
C3834 C3831 1.463 . S
C3834 N3838 1.427 . S
C3835 H3825 0.929 . S
C3835 C3833 1.433 . S
C3835 N3838 1.384 . S
C3836 H3827 0.929 . S
C3836 C3828 1.378 . S
C3836 C3831 1.350 . S
C3837 H3824 0.929 . S
C3837 C3829 1.433 . S
C3837 N3839 1.384 . S
N3838 C3834 1.427 . S
N3838 C3835 1.384 . S
N3839 C3831 1.427 . S
N3839 C3837 1.384 . S
H3840 C3846 0.930 . S
H3841 C3850 0.930 . S
H3842 C3855 0.929 . S
H3843 C3853 0.929 . S
H3844 C3848 0.929 . S
H3845 C3854 0.929 . S
C3846 H3840 0.930 . S
C3846 C3847 1.367 . S
C3846 C3854 1.378 . S
C3847 C3846 1.367 . S
C3847 C3855 1.433 . S
C3848 H3844 0.929 . S
C3848 C3850 1.378 . S
C3848 C3852 1.350 . S
C3849 C3852 1.463 . S
C3849 C3854 1.350 . S
C3849 N3857 1.427 . S
C3850 H3841 0.930 . S
C3850 C3848 1.378 . S
C3850 C3851 1.367 . S
C3851 C3850 1.367 . S
C3851 C3853 1.433 . S
C3852 C3848 1.350 . S
C3852 C3849 1.463 . S
C3852 N3856 1.427 . S
C3853 H3843 0.929 . S
C3853 C3851 1.433 . S
C3853 N3856 1.384 . S
C3854 H3845 0.929 . S
C3854 C3846 1.378 . S
C3854 C3849 1.350 . S
C3855 H3842 0.929 . S
C3855 C3847 1.433 . S
C3855 N3857 1.384 . S
N3856 C3852 1.427 . S
N3856 C3853 1.384 . S
N3857 C3849 1.427 . S
N3857 C3855 1.384 . S
H3858 C3864 0.930 . S
H3859 C3868 0.930 . S
H3860 C3873 0.929 . S
H3861 C3871 0.929 . S
H3862 C3866 0.929 . S
H3863 C3872 0.929 . S
C3864 H3858 0.930 . S
C3864 C3865 1.367 . S
C3864 C3872 1.378 . S
C3865 C3864 1.367 . S
C3865 C3873 1.433 . S
C3866 H3862 0.929 . S
C3866 C3868 1.378 . S
C3866 C3870 1.350 . S
C3867 C3870 1.463 . S
C3867 C3872 1.350 . S
C3867 N3875 1.427 . S
C3868 H3859 0.930 . S
C3868 C3866 1.378 . S
C3868 C3869 1.367 . S
C3869 C3868 1.367 . S
C3869 C3871 1.433 . S
C3870 C3866 1.350 . S
C3870 C3867 1.463 . S
C3870 N3874 1.427 . S
C3871 H3861 0.929 . S
C3871 C3869 1.433 . S
C3871 N3874 1.384 . S
C3872 H3863 0.929 . S
C3872 C3864 1.378 . S
C3872 C3867 1.350 . S
C3873 H3860 0.929 . S
C3873 C3865 1.433 . S
C3873 N3875 1.384 . S
N3874 C3870 1.427 . S
N3874 C3871 1.384 . S
N3875 C3867 1.427 . S
N3875 C3873 1.384 . S
H3876 C3882 0.930 . S
H3877 C3886 0.930 . S
H3878 C3891 0.929 . S
H3879 C3889 0.929 . S
H3880 C3884 0.929 . S
H3881 C3890 0.929 . S
C3882 H3876 0.930 . S
C3882 C3883 1.367 . S
C3882 C3890 1.378 . S
C3883 C3882 1.367 . S
C3883 C3891 1.433 . S
C3884 H3880 0.929 . S
C3884 C3886 1.378 . S
C3884 C3888 1.350 . S
C3885 C3888 1.463 . S
C3885 C3890 1.350 . S
C3885 N3893 1.427 . S
C3886 H3877 0.930 . S
C3886 C3884 1.378 . S
C3886 C3887 1.367 . S
C3887 C3886 1.367 . S
C3887 C3889 1.433 . S
C3888 C3884 1.350 . S
C3888 C3885 1.463 . S
C3888 N3892 1.427 . S
C3889 H3879 0.929 . S
C3889 C3887 1.433 . S
C3889 N3892 1.384 . S
C3890 H3881 0.929 . S
C3890 C3882 1.378 . S
C3890 C3885 1.350 . S
C3891 H3878 0.929 . S
C3891 C3883 1.433 . S
C3891 N3893 1.384 . S
N3892 C3888 1.427 . S
N3892 C3889 1.384 . S
N3893 C3885 1.427 . S
N3893 C3891 1.384 . S
H3894 C3900 0.930 . S
H3895 C3904 0.930 . S
H3896 C3909 0.929 . S
H3897 C3907 0.929 . S
H3898 C3902 0.929 . S
H3899 C3908 0.929 . S
C3900 H3894 0.930 . S
C3900 C3901 1.367 . S
C3900 C3908 1.378 . S
C3901 C3900 1.367 . S
C3901 C3909 1.433 . S
C3902 H3898 0.929 . S
C3902 C3904 1.378 . S
C3902 C3906 1.350 . S
C3903 C3906 1.463 . S
C3903 C3908 1.350 . S
C3903 N3911 1.427 . S
C3904 H3895 0.930 . S
C3904 C3902 1.378 . S
C3904 C3905 1.367 . S
C3905 C3904 1.367 . S
C3905 C3907 1.433 . S
C3906 C3902 1.350 . S
C3906 C3903 1.463 . S
C3906 N3910 1.427 . S
C3907 H3897 0.929 . S
C3907 C3905 1.433 . S
C3907 N3910 1.384 . S
C3908 H3899 0.929 . S
C3908 C3900 1.378 . S
C3908 C3903 1.350 . S
C3909 H3896 0.929 . S
C3909 C3901 1.433 . S
C3909 N3911 1.384 . S
N3910 C3906 1.427 . S
N3910 C3907 1.384 . S
N3911 C3903 1.427 . S
N3911 C3909 1.384 . S
H3912 C3918 0.930 . S
H3913 C3922 0.930 . S
H3914 C3927 0.929 . S
H3915 C3925 0.929 . S
H3916 C3920 0.929 . S
H3917 C3926 0.929 . S
C3918 H3912 0.930 . S
C3918 C3919 1.367 . S
C3918 C3926 1.378 . S
C3919 C3918 1.367 . S
C3919 C3927 1.433 . S
C3920 H3916 0.929 . S
C3920 C3922 1.378 . S
C3920 C3924 1.350 . S
C3921 C3924 1.463 . S
C3921 C3926 1.350 . S
C3921 N3929 1.427 . S
C3922 H3913 0.930 . S
C3922 C3920 1.378 . S
C3922 C3923 1.367 . S
C3923 C3922 1.367 . S
C3923 C3925 1.433 . S
C3924 C3920 1.350 . S
C3924 C3921 1.463 . S
C3924 N3928 1.427 . S
C3925 H3915 0.929 . S
C3925 C3923 1.433 . S
C3925 N3928 1.384 . S
C3926 H3917 0.929 . S
C3926 C3918 1.378 . S
C3926 C3921 1.350 . S
C3927 H3914 0.929 . S
C3927 C3919 1.433 . S
C3927 N3929 1.384 . S
N3928 C3924 1.427 . S
N3928 C3925 1.384 . S
N3929 C3921 1.427 . S
N3929 C3927 1.384 . S
H3930 C3936 0.930 . S
H3931 C3940 0.930 . S
H3932 C3945 0.929 . S
H3933 C3943 0.929 . S
H3934 C3938 0.929 . S
H3935 C3944 0.929 . S
C3936 H3930 0.930 . S
C3936 C3937 1.367 . S
C3936 C3944 1.378 . S
C3937 C3936 1.367 . S
C3937 C3945 1.433 . S
C3938 H3934 0.929 . S
C3938 C3940 1.378 . S
C3938 C3942 1.350 . S
C3939 C3942 1.463 . S
C3939 C3944 1.350 . S
C3939 N3947 1.427 . S
C3940 H3931 0.930 . S
C3940 C3938 1.378 . S
C3940 C3941 1.367 . S
C3941 C3940 1.367 . S
C3941 C3943 1.433 . S
C3942 C3938 1.350 . S
C3942 C3939 1.463 . S
C3942 N3946 1.427 . S
C3943 H3933 0.929 . S
C3943 C3941 1.433 . S
C3943 N3946 1.384 . S
C3944 H3935 0.929 . S
C3944 C3936 1.378 . S
C3944 C3939 1.350 . S
C3945 H3932 0.929 . S
C3945 C3937 1.433 . S
C3945 N3947 1.384 . S
N3946 C3942 1.427 . S
N3946 C3943 1.384 . S
N3947 C3939 1.427 . S
N3947 C3945 1.384 . S
H3948 C3954 0.930 . S
H3949 C3958 0.930 . S
H3950 C3963 0.929 . S
H3951 C3961 0.929 . S
H3952 C3956 0.929 . S
H3953 C3962 0.929 . S
C3954 H3948 0.930 . S
C3954 C3955 1.367 . S
C3954 C3962 1.378 . S
C3955 C3954 1.367 . S
C3955 C3963 1.433 . S
C3956 H3952 0.929 . S
C3956 C3958 1.378 . S
C3956 C3960 1.350 . S
C3957 C3960 1.463 . S
C3957 C3962 1.350 . S
C3957 N3965 1.427 . S
C3958 H3949 0.930 . S
C3958 C3956 1.378 . S
C3958 C3959 1.367 . S
C3959 C3958 1.367 . S
C3959 C3961 1.433 . S
C3960 C3956 1.350 . S
C3960 C3957 1.463 . S
C3960 N3964 1.427 . S
C3961 H3951 0.929 . S
C3961 C3959 1.433 . S
C3961 N3964 1.384 . S
C3962 H3953 0.929 . S
C3962 C3954 1.378 . S
C3962 C3957 1.350 . S
C3963 H3950 0.929 . S
C3963 C3955 1.433 . S
C3963 N3965 1.384 . S
N3964 C3960 1.427 . S
N3964 C3961 1.384 . S
N3965 C3957 1.427 . S
N3965 C3963 1.384 . S
H3966 C3972 0.930 . S
H3967 C3976 0.930 . S
H3968 C3981 0.929 . S
H3969 C3979 0.929 . S
H3970 C3974 0.929 . S
H3971 C3980 0.929 . S
C3972 H3966 0.930 . S
C3972 C3973 1.367 . S
C3972 C3980 1.378 . S
C3973 C3972 1.367 . S
C3973 C3981 1.433 . S
C3974 H3970 0.929 . S
C3974 C3976 1.378 . S
C3974 C3978 1.350 . S
C3975 C3978 1.463 . S
C3975 C3980 1.350 . S
C3975 N3983 1.427 . S
C3976 H3967 0.930 . S
C3976 C3974 1.378 . S
C3976 C3977 1.367 . S
C3977 C3976 1.367 . S
C3977 C3979 1.433 . S
C3978 C3974 1.350 . S
C3978 C3975 1.463 . S
C3978 N3982 1.427 . S
C3979 H3969 0.929 . S
C3979 C3977 1.433 . S
C3979 N3982 1.384 . S
C3980 H3971 0.929 . S
C3980 C3972 1.378 . S
C3980 C3975 1.350 . S
C3981 H3968 0.929 . S
C3981 C3973 1.433 . S
C3981 N3983 1.384 . S
N3982 C3978 1.427 . S
N3982 C3979 1.384 . S
N3983 C3975 1.427 . S
N3983 C3981 1.384 . S
H3984 C3990 0.930 . S
H3985 C3994 0.930 . S
H3986 C3999 0.929 . S
H3987 C3997 0.929 . S
H3988 C3992 0.929 . S
H3989 C3998 0.929 . S
C3990 H3984 0.930 . S
C3990 C3991 1.367 . S
C3990 C3998 1.378 . S
C3991 C3990 1.367 . S
C3991 C3999 1.433 . S
C3992 H3988 0.929 . S
C3992 C3994 1.378 . S
C3992 C3996 1.350 . S
C3993 C3996 1.463 . S
C3993 C3998 1.350 . S
C3993 N4001 1.427 . S
C3994 H3985 0.930 . S
C3994 C3992 1.378 . S
C3994 C3995 1.367 . S
C3995 C3994 1.367 . S
C3995 C3997 1.433 . S
C3996 C3992 1.350 . S
C3996 C3993 1.463 . S
C3996 N4000 1.427 . S
C3997 H3987 0.929 . S
C3997 C3995 1.433 . S
C3997 N4000 1.384 . S
C3998 H3989 0.929 . S
C3998 C3990 1.378 . S
C3998 C3993 1.350 . S
C3999 H3986 0.929 . S
C3999 C3991 1.433 . S
C3999 N4001 1.384 . S
N4000 C3996 1.427 . S
N4000 C3997 1.384 . S
N4001 C3993 1.427 . S
N4001 C3999 1.384 . S
H4002 C4008 0.930 . S
H4003 C4012 0.930 . S
H4004 C4017 0.929 . S
H4005 C4015 0.929 . S
H4006 C4010 0.929 . S
H4007 C4016 0.929 . S
C4008 H4002 0.930 . S
C4008 C4009 1.367 . S
C4008 C4016 1.378 . S
C4009 C4008 1.367 . S
C4009 C4017 1.433 . S
C4010 H4006 0.929 . S
C4010 C4012 1.378 . S
C4010 C4014 1.350 . S
C4011 C4014 1.463 . S
C4011 C4016 1.350 . S
C4011 N4019 1.427 . S
C4012 H4003 0.930 . S
C4012 C4010 1.378 . S
C4012 C4013 1.367 . S
C4013 C4012 1.367 . S
C4013 C4015 1.433 . S
C4014 C4010 1.350 . S
C4014 C4011 1.463 . S
C4014 N4018 1.427 . S
C4015 H4005 0.929 . S
C4015 C4013 1.433 . S
C4015 N4018 1.384 . S
C4016 H4007 0.929 . S
C4016 C4008 1.378 . S
C4016 C4011 1.350 . S
C4017 H4004 0.929 . S
C4017 C4009 1.433 . S
C4017 N4019 1.384 . S
N4018 C4014 1.427 . S
N4018 C4015 1.384 . S
N4019 C4011 1.427 . S
N4019 C4017 1.384 . S
H4020 C4026 0.930 . S
H4021 C4030 0.930 . S
H4022 C4035 0.929 . S
H4023 C4033 0.929 . S
H4024 C4028 0.929 . S
H4025 C4034 0.929 . S
C4026 H4020 0.930 . S
C4026 C4027 1.367 . S
C4026 C4034 1.378 . S
C4027 C4026 1.367 . S
C4027 C4035 1.433 . S
C4028 H4024 0.929 . S
C4028 C4030 1.378 . S
C4028 C4032 1.350 . S
C4029 C4032 1.463 . S
C4029 C4034 1.350 . S
C4029 N4037 1.427 . S
C4030 H4021 0.930 . S
C4030 C4028 1.378 . S
C4030 C4031 1.367 . S
C4031 C4030 1.367 . S
C4031 C4033 1.433 . S
C4032 C4028 1.350 . S
C4032 C4029 1.463 . S
C4032 N4036 1.427 . S
C4033 H4023 0.929 . S
C4033 C4031 1.433 . S
C4033 N4036 1.384 . S
C4034 H4025 0.929 . S
C4034 C4026 1.378 . S
C4034 C4029 1.350 . S
C4035 H4022 0.929 . S
C4035 C4027 1.433 . S
C4035 N4037 1.384 . S
N4036 C4032 1.427 . S
N4036 C4033 1.384 . S
N4037 C4029 1.427 . S
N4037 C4035 1.384 . S
H4038 C4044 0.930 . S
H4039 C4048 0.930 . S
H4040 C4053 0.929 . S
H4041 C4051 0.929 . S
H4042 C4046 0.929 . S
H4043 C4052 0.929 . S
C4044 H4038 0.930 . S
C4044 C4045 1.367 . S
C4044 C4052 1.378 . S
C4045 C4044 1.367 . S
C4045 C4053 1.433 . S
C4046 H4042 0.929 . S
C4046 C4048 1.378 . S
C4046 C4050 1.350 . S
C4047 C4050 1.463 . S
C4047 C4052 1.350 . S
C4047 N4055 1.427 . S
C4048 H4039 0.930 . S
C4048 C4046 1.378 . S
C4048 C4049 1.367 . S
C4049 C4048 1.367 . S
C4049 C4051 1.433 . S
C4050 C4046 1.350 . S
C4050 C4047 1.463 . S
C4050 N4054 1.427 . S
C4051 H4041 0.929 . S
C4051 C4049 1.433 . S
C4051 N4054 1.384 . S
C4052 H4043 0.929 . S
C4052 C4044 1.378 . S
C4052 C4047 1.350 . S
C4053 H4040 0.929 . S
C4053 C4045 1.433 . S
C4053 N4055 1.384 . S
N4054 C4050 1.427 . S
N4054 C4051 1.384 . S
N4055 C4047 1.427 . S
N4055 C4053 1.384 . S
H4056 C4062 0.930 . S
H4057 C4066 0.930 . S
H4058 C4071 0.929 . S
H4059 C4069 0.929 . S
H4060 C4064 0.929 . S
H4061 C4070 0.929 . S
C4062 H4056 0.930 . S
C4062 C4063 1.367 . S
C4062 C4070 1.378 . S
C4063 C4062 1.367 . S
C4063 C4071 1.433 . S
C4064 H4060 0.929 . S
C4064 C4066 1.378 . S
C4064 C4068 1.350 . S
C4065 C4068 1.463 . S
C4065 C4070 1.350 . S
C4065 N4073 1.427 . S
C4066 H4057 0.930 . S
C4066 C4064 1.378 . S
C4066 C4067 1.367 . S
C4067 C4066 1.367 . S
C4067 C4069 1.433 . S
C4068 C4064 1.350 . S
C4068 C4065 1.463 . S
C4068 N4072 1.427 . S
C4069 H4059 0.929 . S
C4069 C4067 1.433 . S
C4069 N4072 1.384 . S
C4070 H4061 0.929 . S
C4070 C4062 1.378 . S
C4070 C4065 1.350 . S
C4071 H4058 0.929 . S
C4071 C4063 1.433 . S
C4071 N4073 1.384 . S
N4072 C4068 1.427 . S
N4072 C4069 1.384 . S
N4073 C4065 1.427 . S
N4073 C4071 1.384 . S
H4074 C4080 0.930 . S
H4075 C4084 0.930 . S
H4076 C4089 0.929 . S
H4077 C4087 0.929 . S
H4078 C4082 0.929 . S
H4079 C4088 0.929 . S
C4080 H4074 0.930 . S
C4080 C4081 1.367 . S
C4080 C4088 1.378 . S
C4081 C4080 1.367 . S
C4081 C4089 1.433 . S
C4082 H4078 0.929 . S
C4082 C4084 1.378 . S
C4082 C4086 1.350 . S
C4083 C4086 1.463 . S
C4083 C4088 1.350 . S
C4083 N4091 1.427 . S
C4084 H4075 0.930 . S
C4084 C4082 1.378 . S
C4084 C4085 1.367 . S
C4085 C4084 1.367 . S
C4085 C4087 1.433 . S
C4086 C4082 1.350 . S
C4086 C4083 1.463 . S
C4086 N4090 1.427 . S
C4087 H4077 0.929 . S
C4087 C4085 1.433 . S
C4087 N4090 1.384 . S
C4088 H4079 0.929 . S
C4088 C4080 1.378 . S
C4088 C4083 1.350 . S
C4089 H4076 0.929 . S
C4089 C4081 1.433 . S
C4089 N4091 1.384 . S
N4090 C4086 1.427 . S
N4090 C4087 1.384 . S
N4091 C4083 1.427 . S
N4091 C4089 1.384 . S
H4092 C4098 0.930 . S
H4093 C4102 0.930 . S
H4094 C4107 0.929 . S
H4095 C4105 0.929 . S
H4096 C4100 0.929 . S
H4097 C4106 0.929 . S
C4098 H4092 0.930 . S
C4098 C4099 1.367 . S
C4098 C4106 1.378 . S
C4099 C4098 1.367 . S
C4099 C4107 1.433 . S
C4100 H4096 0.929 . S
C4100 C4102 1.378 . S
C4100 C4104 1.350 . S
C4101 C4104 1.463 . S
C4101 C4106 1.350 . S
C4101 N4109 1.427 . S
C4102 H4093 0.930 . S
C4102 C4100 1.378 . S
C4102 C4103 1.367 . S
C4103 C4102 1.367 . S
C4103 C4105 1.433 . S
C4104 C4100 1.350 . S
C4104 C4101 1.463 . S
C4104 N4108 1.427 . S
C4105 H4095 0.929 . S
C4105 C4103 1.433 . S
C4105 N4108 1.384 . S
C4106 H4097 0.929 . S
C4106 C4098 1.378 . S
C4106 C4101 1.350 . S
C4107 H4094 0.929 . S
C4107 C4099 1.433 . S
C4107 N4109 1.384 . S
N4108 C4104 1.427 . S
N4108 C4105 1.384 . S
N4109 C4101 1.427 . S
N4109 C4107 1.384 . S
H4110 C4116 0.930 . S
H4111 C4120 0.930 . S
H4112 C4125 0.929 . S
H4113 C4123 0.929 . S
H4114 C4118 0.929 . S
H4115 C4124 0.929 . S
C4116 H4110 0.930 . S
C4116 C4117 1.367 . S
C4116 C4124 1.378 . S
C4117 C4116 1.367 . S
C4117 C4125 1.433 . S
C4118 H4114 0.929 . S
C4118 C4120 1.378 . S
C4118 C4122 1.350 . S
C4119 C4122 1.463 . S
C4119 C4124 1.350 . S
C4119 N4127 1.427 . S
C4120 H4111 0.930 . S
C4120 C4118 1.378 . S
C4120 C4121 1.367 . S
C4121 C4120 1.367 . S
C4121 C4123 1.433 . S
C4122 C4118 1.350 . S
C4122 C4119 1.463 . S
C4122 N4126 1.427 . S
C4123 H4113 0.929 . S
C4123 C4121 1.433 . S
C4123 N4126 1.384 . S
C4124 H4115 0.929 . S
C4124 C4116 1.378 . S
C4124 C4119 1.350 . S
C4125 H4112 0.929 . S
C4125 C4117 1.433 . S
C4125 N4127 1.384 . S
N4126 C4122 1.427 . S
N4126 C4123 1.384 . S
N4127 C4119 1.427 . S
N4127 C4125 1.384 . S
H4128 C4134 0.930 . S
H4129 C4138 0.930 . S
H4130 C4143 0.929 . S
H4131 C4141 0.929 . S
H4132 C4136 0.929 . S
H4133 C4142 0.929 . S
C4134 H4128 0.930 . S
C4134 C4135 1.367 . S
C4134 C4142 1.378 . S
C4135 C4134 1.367 . S
C4135 C4143 1.433 . S
C4136 H4132 0.929 . S
C4136 C4138 1.378 . S
C4136 C4140 1.350 . S
C4137 C4140 1.463 1_545 S
C4137 C4142 1.350 . S
C4137 N4145 1.427 . S
C4138 H4129 0.930 . S
C4138 C4136 1.378 . S
C4138 C4139 1.367 . S
C4139 C4138 1.367 . S
C4139 C4141 1.433 . S
C4140 C4136 1.350 . S
C4140 C4137 1.463 1_565 S
C4140 N4144 1.427 . S
C4141 H4131 0.929 . S
C4141 C4139 1.433 . S
C4141 N4144 1.384 . S
C4142 H4133 0.929 . S
C4142 C4134 1.378 . S
C4142 C4137 1.350 . S
C4143 H4130 0.929 . S
C4143 C4135 1.433 . S
C4143 N4145 1.384 . S
N4144 C4140 1.427 . S
N4144 C4141 1.384 . S
N4145 C4137 1.427 . S
N4145 C4143 1.384 . S
H4146 C4152 0.930 . S
H4147 C4156 0.930 . S
H4148 C4161 0.929 . S
H4149 C4159 0.929 . S
H4150 C4154 0.929 . S
H4151 C4160 0.929 . S
C4152 H4146 0.930 . S
C4152 C4153 1.367 . S
C4152 C4160 1.378 . S
C4153 C4152 1.367 . S
C4153 C4161 1.433 1_565 S
C4154 H4150 0.929 . S
C4154 C4156 1.378 . S
C4154 C4158 1.350 1_545 S
C4155 C4158 1.463 . S
C4155 C4160 1.350 . S
C4155 N4163 1.427 1_565 S
C4156 H4147 0.930 . S
C4156 C4154 1.378 . S
C4156 C4157 1.367 1_545 S
C4157 C4156 1.367 1_565 S
C4157 C4159 1.433 . S
C4158 C4154 1.350 1_565 S
C4158 C4155 1.463 . S
C4158 N4162 1.427 . S
C4159 H4149 0.929 . S
C4159 C4157 1.433 . S
C4159 N4162 1.384 . S
C4160 H4151 0.929 . S
C4160 C4152 1.378 . S
C4160 C4155 1.350 . S
C4161 H4148 0.929 . S
C4161 C4153 1.433 1_545 S
C4161 N4163 1.384 . S
N4162 C4158 1.427 . S
N4162 C4159 1.384 . S
N4163 C4155 1.427 1_545 S
N4163 C4161 1.384 . S
H4164 C4170 0.930 . S
H4165 C4174 0.930 . S
H4166 C4179 0.929 . S
H4167 C4177 0.929 . S
H4168 C4172 0.929 . S
H4169 C4178 0.929 . S
C4170 H4164 0.930 . S
C4170 C4171 1.367 . S
C4170 C4178 1.378 . S
C4171 C4170 1.367 . S
C4171 C4179 1.433 . S
C4172 H4168 0.929 . S
C4172 C4174 1.378 . S
C4172 C4176 1.350 . S
C4173 C4176 1.463 1_545 S
C4173 C4178 1.350 . S
C4173 N4181 1.427 . S
C4174 H4165 0.930 . S
C4174 C4172 1.378 . S
C4174 C4175 1.367 . S
C4175 C4174 1.367 . S
C4175 C4177 1.433 . S
C4176 C4172 1.350 . S
C4176 C4173 1.463 1_565 S
C4176 N4180 1.427 . S
C4177 H4167 0.929 . S
C4177 C4175 1.433 . S
C4177 N4180 1.384 . S
C4178 H4169 0.929 . S
C4178 C4170 1.378 . S
C4178 C4173 1.350 . S
C4179 H4166 0.929 . S
C4179 C4171 1.433 . S
C4179 N4181 1.384 . S
N4180 C4176 1.427 . S
N4180 C4177 1.384 . S
N4181 C4173 1.427 . S
N4181 C4179 1.384 . S
H4182 C4188 0.930 . S
H4183 C4192 0.930 . S
H4184 C4197 0.929 . S
H4185 C4195 0.929 . S
H4186 C4190 0.929 1_556 S
H4187 C4196 0.929 1_554 S
C4188 H4182 0.930 . S
C4188 C4189 1.367 . S
C4188 C4196 1.378 . S
C4189 C4188 1.367 . S
C4189 C4197 1.433 1_545 S
C4190 H4186 0.929 1_554 S
C4190 C4192 1.378 . S
C4190 C4194 1.350 1_565 S
C4191 C4194 1.463 1_556 S
C4191 C4196 1.350 . S
C4191 N4199 1.427 1_545 S
C4192 H4183 0.930 . S
C4192 C4190 1.378 . S
C4192 C4193 1.367 1_565 S
C4193 C4192 1.367 1_545 S
C4193 C4195 1.433 . S
C4194 C4190 1.350 1_545 S
C4194 C4191 1.463 1_554 S
C4194 N4198 1.427 . S
C4195 H4185 0.929 . S
C4195 C4193 1.433 . S
C4195 N4198 1.384 . S
C4196 H4187 0.929 1_556 S
C4196 C4188 1.378 . S
C4196 C4191 1.350 . S
C4197 H4184 0.929 . S
C4197 C4189 1.433 1_565 S
C4197 N4199 1.384 . S
N4198 C4194 1.427 . S
N4198 C4195 1.384 . S
N4199 C4191 1.427 1_565 S
N4199 C4197 1.384 . S
H4200 C4206 0.930 . S
H4201 C4210 0.930 . S
H4202 C4215 0.929 . S
H4203 C4213 0.929 . S
H4204 C4208 0.929 1_565 S
H4205 C4214 0.929 1_545 S
C4206 H4200 0.930 . S
C4206 C4207 1.367 . S
C4206 C4214 1.378 . S
C4207 C4206 1.367 . S
C4207 C4215 1.433 . S
C4208 H4204 0.929 1_545 S
C4208 C4210 1.378 . S
C4208 C4212 1.350 . S
C4209 C4212 1.463 1_565 S
C4209 C4214 1.350 . S
C4209 N4217 1.427 . S
C4210 H4201 0.930 . S
C4210 C4208 1.378 . S
C4210 C4211 1.367 . S
C4211 C4210 1.367 . S
C4211 C4213 1.433 . S
C4212 C4208 1.350 . S
C4212 C4209 1.463 1_545 S
C4212 N4216 1.427 . S
C4213 H4203 0.929 . S
C4213 C4211 1.433 . S
C4213 N4216 1.384 . S
C4214 H4205 0.929 1_565 S
C4214 C4206 1.378 . S
C4214 C4209 1.350 . S
C4215 H4202 0.929 . S
C4215 C4207 1.433 . S
C4215 N4217 1.384 . S
N4216 C4212 1.427 . S
N4216 C4213 1.384 . S
N4217 C4209 1.427 . S
N4217 C4215 1.384 . S
H4218 C4224 0.930 . S
H4219 C4228 0.930 . S
H4220 C4233 0.929 . S
H4221 C4231 0.929 . S
H4222 C4226 0.929 . S
H4223 C4232 0.929 . S
C4224 H4218 0.930 . S
C4224 C4225 1.367 . S
C4224 C4232 1.378 . S
C4225 C4224 1.367 . S
C4225 C4233 1.433 1_545 S
C4226 H4222 0.929 . S
C4226 C4228 1.378 . S
C4226 C4230 1.350 1_565 S
C4227 C4230 1.463 . S
C4227 C4232 1.350 . S
C4227 N4235 1.427 1_545 S
C4228 H4219 0.930 . S
C4228 C4226 1.378 . S
C4228 C4229 1.367 1_565 S
C4229 C4228 1.367 1_545 S
C4229 C4231 1.433 . S
C4230 C4226 1.350 1_545 S
C4230 C4227 1.463 . S
C4230 N4234 1.427 . S
C4231 H4221 0.929 . S
C4231 C4229 1.433 . S
C4231 N4234 1.384 . S
C4232 H4223 0.929 . S
C4232 C4224 1.378 . S
C4232 C4227 1.350 . S
C4233 H4220 0.929 . S
C4233 C4225 1.433 1_565 S
C4233 N4235 1.384 . S
N4234 C4230 1.427 . S
N4234 C4231 1.384 . S
N4235 C4227 1.427 1_565 S
N4235 C4233 1.384 . S
H4236 C4242 0.930 . S
H4237 C4246 0.930 . S
H4238 C4251 0.929 . S
H4239 C4249 0.929 . S
H4240 C4244 0.929 1_565 S
H4241 C4250 0.929 1_545 S
C4242 H4236 0.930 . S
C4242 C4243 1.367 . S
C4242 C4250 1.378 . S
C4243 C4242 1.367 . S
C4243 C4251 1.433 . S
C4244 H4240 0.929 1_545 S
C4244 C4246 1.378 . S
C4244 C4248 1.350 . S
C4245 C4248 1.463 1_565 S
C4245 C4250 1.350 . S
C4245 N4253 1.427 . S
C4246 H4237 0.930 . S
C4246 C4244 1.378 . S
C4246 C4247 1.367 . S
C4247 C4246 1.367 . S
C4247 C4249 1.433 . S
C4248 C4244 1.350 . S
C4248 C4245 1.463 1_545 S
C4248 N4252 1.427 . S
C4249 H4239 0.929 . S
C4249 C4247 1.433 . S
C4249 N4252 1.384 . S
C4250 H4241 0.929 1_565 S
C4250 C4242 1.378 . S
C4250 C4245 1.350 . S
C4251 H4238 0.929 . S
C4251 C4243 1.433 . S
C4251 N4253 1.384 . S
N4252 C4248 1.427 . S
N4252 C4249 1.384 . S
N4253 C4245 1.427 . S
N4253 C4251 1.384 . S
H4254 C4260 0.930 . S
H4255 C4264 0.930 . S
H4256 C4269 0.929 . S
H4257 C4267 0.929 . S
H4258 C4262 0.929 . S
H4259 C4268 0.929 . S
C4260 H4254 0.930 . S
C4260 C4261 1.367 1_545 S
C4260 C4268 1.378 . S
C4261 C4260 1.367 1_565 S
C4261 C4269 1.433 . S
C4262 H4258 0.929 . S
C4262 C4264 1.378 . S
C4262 C4266 1.350 . S
C4263 C4266 1.463 1_554 S
C4263 C4268 1.350 1_565 S
C4263 N4271 1.427 . S
C4264 H4255 0.930 . S
C4264 C4262 1.378 . S
C4264 C4265 1.367 . S
C4265 C4264 1.367 . S
C4265 C4267 1.433 1_565 S
C4266 C4262 1.350 . S
C4266 C4263 1.463 1_556 S
C4266 N4270 1.427 1_565 S
C4267 H4257 0.929 . S
C4267 C4265 1.433 1_545 S
C4267 N4270 1.384 . S
C4268 H4259 0.929 . S
C4268 C4260 1.378 . S
C4268 C4263 1.350 1_545 S
C4269 H4256 0.929 . S
C4269 C4261 1.433 . S
C4269 N4271 1.384 . S
N4270 C4266 1.427 1_545 S
N4270 C4267 1.384 . S
N4271 C4263 1.427 . S
N4271 C4269 1.384 . S
H4272 C4278 0.930 . S
H4273 C4282 0.930 . S
H4274 C4287 0.929 . S
H4275 C4285 0.929 . S
H4276 C4280 0.929 . S
H4277 C4286 0.929 . S
C4278 H4272 0.930 . S
C4278 C4279 1.367 . S
C4278 C4286 1.378 . S
C4279 C4278 1.367 . S
C4279 C4287 1.433 . S
C4280 H4276 0.929 . S
C4280 C4282 1.378 . S
C4280 C4284 1.350 . S
C4281 C4284 1.463 . S
C4281 C4286 1.350 . S
C4281 N4289 1.427 . S
C4282 H4273 0.930 . S
C4282 C4280 1.378 . S
C4282 C4283 1.367 . S
C4283 C4282 1.367 . S
C4283 C4285 1.433 . S
C4284 C4280 1.350 . S
C4284 C4281 1.463 . S
C4284 N4288 1.427 . S
C4285 H4275 0.929 . S
C4285 C4283 1.433 . S
C4285 N4288 1.384 . S
C4286 H4277 0.929 . S
C4286 C4278 1.378 . S
C4286 C4281 1.350 . S
C4287 H4274 0.929 . S
C4287 C4279 1.433 . S
C4287 N4289 1.384 . S
N4288 C4284 1.427 . S
N4288 C4285 1.384 . S
N4289 C4281 1.427 . S
N4289 C4287 1.384 . S
H4290 C4296 0.930 . S
H4291 C4300 0.930 . S
H4292 C4305 0.929 . S
H4293 C4303 0.929 . S
H4294 C4298 0.915 1_556 S
H4295 C4304 0.915 1_554 S
C4296 H4290 0.930 . S
C4296 C4297 1.367 . S
C4296 C4304 1.378 . S
C4297 C4296 1.367 . S
C4297 C4305 1.433 . S
C4298 H4294 0.915 1_554 S
C4298 C4300 1.378 . S
C4298 C4302 1.350 . S
C4299 C4302 1.463 1_556 S
C4299 C4304 1.350 . S
C4299 N4307 1.427 . S
C4300 H4291 0.930 . S
C4300 C4298 1.378 . S
C4300 C4301 1.367 . S
C4301 C4300 1.367 . S
C4301 C4303 1.433 . S
C4302 C4298 1.350 . S
C4302 C4299 1.463 1_554 S
C4302 N4306 1.427 . S
C4303 H4293 0.929 . S
C4303 C4301 1.433 . S
C4303 N4306 1.384 . S
C4304 H4295 0.915 1_556 S
C4304 C4296 1.378 . S
C4304 C4299 1.350 . S
C4305 H4292 0.929 . S
C4305 C4297 1.433 . S
C4305 N4307 1.384 . S
N4306 C4302 1.427 . S
N4306 C4303 1.384 . S
N4307 C4299 1.427 . S
N4307 C4305 1.384 . S
H4308 C4314 0.930 . S
H4309 C4318 0.930 . S
H4310 C4323 0.929 . S
H4311 C4321 0.929 . S
H4312 C4316 0.929 . S
H4313 C4322 0.929 . S
C4314 H4308 0.930 . S
C4314 C4315 1.367 . S
C4314 C4322 1.378 . S
C4315 C4314 1.367 . S
C4315 C4323 1.433 . S
C4316 H4312 0.929 . S
C4316 C4318 1.378 . S
C4316 C4320 1.350 . S
C4317 C4320 1.463 . S
C4317 C4322 1.350 . S
C4317 N4325 1.427 . S
C4318 H4309 0.930 . S
C4318 C4316 1.378 . S
C4318 C4319 1.367 . S
C4319 C4318 1.367 . S
C4319 C4321 1.433 . S
C4320 C4316 1.350 . S
C4320 C4317 1.463 . S
C4320 N4324 1.427 . S
C4321 H4311 0.929 . S
C4321 C4319 1.433 . S
C4321 N4324 1.384 . S
C4322 H4313 0.929 . S
C4322 C4314 1.378 . S
C4322 C4317 1.350 . S
C4323 H4310 0.929 . S
C4323 C4315 1.433 . S
C4323 N4325 1.384 . S
N4324 C4320 1.427 . S
N4324 C4321 1.384 . S
N4325 C4317 1.427 . S
N4325 C4323 1.384 . S
H4326 C4332 0.930 . S
H4327 C4336 0.930 . S
H4328 C4341 0.929 . S
H4329 C4339 0.929 . S
H4330 C4334 0.929 . S
H4331 C4340 0.929 . S
C4332 H4326 0.930 . S
C4332 C4333 1.367 . S
C4332 C4340 1.378 . S
C4333 C4332 1.367 . S
C4333 C4341 1.433 . S
C4334 H4330 0.929 . S
C4334 C4336 1.378 . S
C4334 C4338 1.350 . S
C4335 C4338 1.463 . S
C4335 C4340 1.350 . S
C4335 N4343 1.427 . S
C4336 H4327 0.930 . S
C4336 C4334 1.378 . S
C4336 C4337 1.367 . S
C4337 C4336 1.367 . S
C4337 C4339 1.433 . S
C4338 C4334 1.350 . S
C4338 C4335 1.463 . S
C4338 N4342 1.427 . S
C4339 H4329 0.929 . S
C4339 C4337 1.433 . S
C4339 N4342 1.384 . S
C4340 H4331 0.929 . S
C4340 C4332 1.378 . S
C4340 C4335 1.350 . S
C4341 H4328 0.929 . S
C4341 C4333 1.433 . S
C4341 N4343 1.384 . S
N4342 C4338 1.427 . S
N4342 C4339 1.384 . S
N4343 C4335 1.427 . S
N4343 C4341 1.384 . S
H4344 C4350 0.930 . S
H4345 C4354 0.930 . S
H4346 C4359 0.929 . S
H4347 C4357 0.929 . S
H4348 C4352 0.929 . S
H4349 C4358 0.929 . S
C4350 H4344 0.930 . S
C4350 C4351 1.367 . S
C4350 C4358 1.378 . S
C4351 C4350 1.367 . S
C4351 C4359 1.433 . S
C4352 H4348 0.929 . S
C4352 C4354 1.378 . S
C4352 C4356 1.350 . S
C4353 C4356 1.463 . S
C4353 C4358 1.350 . S
C4353 N4361 1.427 . S
C4354 H4345 0.930 . S
C4354 C4352 1.378 . S
C4354 C4355 1.367 . S
C4355 C4354 1.367 . S
C4355 C4357 1.433 . S
C4356 C4352 1.350 . S
C4356 C4353 1.463 . S
C4356 N4360 1.427 . S
C4357 H4347 0.929 . S
C4357 C4355 1.433 . S
C4357 N4360 1.384 . S
C4358 H4349 0.929 . S
C4358 C4350 1.378 . S
C4358 C4353 1.350 . S
C4359 H4346 0.929 . S
C4359 C4351 1.433 . S
C4359 N4361 1.384 . S
N4360 C4356 1.427 . S
N4360 C4357 1.384 . S
N4361 C4353 1.427 . S
N4361 C4359 1.384 . S
H4362 C4368 0.930 . S
H4363 C4372 0.930 . S
H4364 C4377 0.929 . S
H4365 C4375 0.929 . S
H4366 C4370 0.929 1_556 S
H4367 C4376 0.929 1_554 S
C4368 H4362 0.930 . S
C4368 C4369 1.367 . S
C4368 C4376 1.378 . S
C4369 C4368 1.367 . S
C4369 C4377 1.433 . S
C4370 H4366 0.929 1_554 S
C4370 C4372 1.378 . S
C4370 C4374 1.350 . S
C4371 C4374 1.463 1_556 S
C4371 C4376 1.350 . S
C4371 N4379 1.427 . S
C4372 H4363 0.930 . S
C4372 C4370 1.378 . S
C4372 C4373 1.367 . S
C4373 C4372 1.367 . S
C4373 C4375 1.433 . S
C4374 C4370 1.350 . S
C4374 C4371 1.463 1_554 S
C4374 N4378 1.427 . S
C4375 H4365 0.929 . S
C4375 C4373 1.433 . S
C4375 N4378 1.384 . S
C4376 H4367 0.929 1_556 S
C4376 C4368 1.378 . S
C4376 C4371 1.350 . S
C4377 H4364 0.929 . S
C4377 C4369 1.433 . S
C4377 N4379 1.384 . S
N4378 C4374 1.427 . S
N4378 C4375 1.384 . S
N4379 C4371 1.427 . S
N4379 C4377 1.384 . S
H4380 C4386 0.930 . S
H4381 C4390 0.930 . S
H4382 C4395 0.929 . S
H4383 C4393 0.929 . S
H4384 C4388 0.929 . S
H4385 C4394 0.929 . S
C4386 H4380 0.930 . S
C4386 C4387 1.367 . S
C4386 C4394 1.378 . S
C4387 C4386 1.367 . S
C4387 C4395 1.433 . S
C4388 H4384 0.929 . S
C4388 C4390 1.378 . S
C4388 C4392 1.350 . S
C4389 C4392 1.463 . S
C4389 C4394 1.350 . S
C4389 N4397 1.427 . S
C4390 H4381 0.930 . S
C4390 C4388 1.378 . S
C4390 C4391 1.367 . S
C4391 C4390 1.367 . S
C4391 C4393 1.433 . S
C4392 C4388 1.350 . S
C4392 C4389 1.463 . S
C4392 N4396 1.427 . S
C4393 H4383 0.929 . S
C4393 C4391 1.433 . S
C4393 N4396 1.384 . S
C4394 H4385 0.929 . S
C4394 C4386 1.378 . S
C4394 C4389 1.350 . S
C4395 H4382 0.929 . S
C4395 C4387 1.433 . S
C4395 N4397 1.384 . S
N4396 C4392 1.427 . S
N4396 C4393 1.384 . S
N4397 C4389 1.427 . S
N4397 C4395 1.384 . S
H4398 C4404 0.930 . S
H4399 C4408 0.930 . S
H4400 C4413 0.929 . S
H4401 C4411 0.929 . S
H4402 C4406 0.929 . S
H4403 C4412 0.929 . S
C4404 H4398 0.930 . S
C4404 C4405 1.367 . S
C4404 C4412 1.378 . S
C4405 C4404 1.367 . S
C4405 C4413 1.433 . S
C4406 H4402 0.929 . S
C4406 C4408 1.378 . S
C4406 C4410 1.350 . S
C4407 C4410 1.463 . S
C4407 C4412 1.350 . S
C4407 N4415 1.427 . S
C4408 H4399 0.930 . S
C4408 C4406 1.378 . S
C4408 C4409 1.367 . S
C4409 C4408 1.367 . S
C4409 C4411 1.433 . S
C4410 C4406 1.350 . S
C4410 C4407 1.463 . S
C4410 N4414 1.427 . S
C4411 H4401 0.929 . S
C4411 C4409 1.433 . S
C4411 N4414 1.384 . S
C4412 H4403 0.929 . S
C4412 C4404 1.378 . S
C4412 C4407 1.350 . S
C4413 H4400 0.929 . S
C4413 C4405 1.433 . S
C4413 N4415 1.384 . S
N4414 C4410 1.427 . S
N4414 C4411 1.384 . S
N4415 C4407 1.427 . S
N4415 C4413 1.384 . S
C2695 C70 0.405 . S
C2699 C2323 0.366 . S
C2713 C154 0.446 . S
C2717 C727 0.319 . S
C2731 C238 0.413 . S
C2735 C2155 0.360 . S
C2749 C895 0.369 . S
C2753 C322 0.395 . S
C2767 C406 0.399 . S
C2771 C2491 0.369 . S
C2785 C1231 0.369 . S
C2789 C490 0.394 . S
C2803 C2659 0.367 . S
C2807 C574 0.402 . S
C2821 C658 0.405 . S
C2825 C1063 0.346 . S
C2839 C730 0.428 . S
C2843 C1663 0.347 . S
C2857 C814 0.429 . S
C2861 C67 0.323 . S
C2875 C1495 0.364 . S
C2879 C898 0.408 . S
C2893 C235 0.369 . S
C2897 C982 0.396 . S
C2911 C1066 0.441 . S
C2915 C1831 0.315 . S
C2929 C1150 0.438 . S
C2933 C571 0.317 . S
C2947 C1234 0.426 . S
C2951 C1999 0.326 . S
C2965 C403 0.362 . S
C2969 C1318 0.393 . S
C2983 C979 0.360 . S
C2987 C1414 0.414 . S
C3001 C2071 0.315 . S
C3005 C1498 0.445 . S
C3019 C811 0.338 . S
C3023 C1582 0.435 . S
C3037 C1666 0.410 . S
C3041 C2239 0.341 . S
C3055 C1147 0.319 . S
C3059 C1750 0.434 . S
C3073 C2575 0.315 . S
C3077 C1834 0.440 . S
C3091 C1315 0.324 . S
C3095 C1918 0.428 . S
C3109 C2002 0.411 . S
C3113 C2407 0.339 . S
C3127 C2074 0.406 . S
C3131 C319 0.365 . S
C3145 C2158 0.434 . S
C3149 C1411 0.319 . S
C3163 C2242 0.446 . S
C3167 C151 0.316 . S
C3181 C2326 0.440 . S
C3185 C1579 0.315 . S
C3199 C487 0.315 . S
C3203 C2410 0.445 . S
C3217 C1915 0.334 . S
C3221 C2494 0.417 . S
C3235 C2578 0.446 . S
C3239 C655 0.317 . S
C3253 C2662 0.392 . S
C3257 C1747 0.367 . S
C3271 C56 3.212 . S
C3275 C1568 3.211 . S
C3289 C1652 3.210 . S
C3293 C140 3.210 . S
C3307 C224 3.213 . S
C3311 C1400 3.213 . S
C3325 C308 3.208 . S
C3329 C1484 3.209 . S
C3343 C1904 3.211 . S
C3347 C392 3.210 . S
C3361 C476 3.209 . S
C3365 C1988 3.210 . S
C3379 C1736 3.207 . S
C3383 C560 3.207 . S
C3397 C644 3.213 . S
C3401 C1820 3.212 . S
C3415 C2252 3.211 . S
C3419 C740 3.212 . S
C3433 C824 3.209 . S
C3437 C2336 3.210 . S
C3451 C908 3.209 . S
C3455 C2084 3.208 . S
C3469 C992 3.207 . S
C3473 C2168 3.208 . S
C3487 C2588 3.213 . S
C3491 C1076 3.212 . S
C3505 C2672 3.212 . S
C3509 C1160 3.213 . S
C3523 C1244 3.211 . S
C3527 C2420 3.211 . S
C3541 C1328 3.210 . S
C3545 C2504 3.211 . S
C3559 C55 2.786 . S
C3563 C2083 2.786 . S
C3577 C823 2.783 . S
C3581 C139 2.783 . S
C3595 C223 2.784 . S
C3599 C2251 2.784 . S
C3613 C307 2.783 . S
C3617 C991 2.783 . S
C3631 C2419 2.783 . S
C3635 C391 2.783 . S
C3649 C1159 2.786 . S
C3653 C475 2.786 . S
C3667 C559 2.783 . S
C3671 C2587 2.783 . S
C3685 C643 2.784 . S
C3689 C1327 2.784 . S
C3703 C1399 2.783 . S
C3707 C739 2.783 . S
C3721 C1567 2.785 . S
C3725 C907 2.785 . S
C3739 C1735 2.785 . S
C3743 C1075 2.785 . S
C3757 C1243 2.784 . S
C3761 C1903 2.784 . S
C3775 C1483 2.784 . S
C3779 C2167 2.784 . S
C3793 C1651 2.783 . S
C3797 C2335 2.783 . S
C3811 C2503 2.783 . S
C3815 C1819 2.783 . S
C3829 C2671 2.784 . S
C3833 C1987 2.784 . S
C3847 C68 4.195 . S
C3851 C488 4.195 1_545 S
C3865 C572 4.188 . S
C3869 C152 4.188 1_545 S
C3883 C656 4.190 1_565 S
C3887 C236 4.191 . S
C3901 C404 4.194 . S
C3905 C320 4.193 1_565 S
C3919 C728 4.193 . S
C3923 C1148 4.192 1_565 S
C3937 C812 4.194 1_565 S
C3941 C1232 4.195 . S
C3955 C1316 4.188 1_545 S
C3959 C896 4.188 . S
C3973 C980 4.194 1_545 S
C3977 C1064 4.193 . S
C3991 C1412 4.193 . S
C3995 C1832 4.194 . S
C4009 C1496 4.188 . S
C4013 C1916 4.188 . S
C4027 C1580 4.194 . S
C4031 C2000 4.193 . S
C4045 C1748 4.193 . S
C4049 C1664 4.194 . S
C4063 C2072 4.194 . S
C4067 C2492 4.194 . S
C4081 C2156 4.189 . S
C4085 C2576 4.188 . S
C4099 C2660 4.195 . S
C4103 C2240 4.194 . S
C4117 C2324 4.188 . S
C4121 C2408 4.189 . S
C4135 C58 0.930 . S
C4139 C394 0.891 . S
C4153 C142 0.890 . S
C4157 C478 0.928 . S
C4171 C562 0.922 . S
C4175 C226 0.890 . S
C4189 C646 0.892 . S
C4193 C310 0.917 . S
C4207 C742 0.899 . S
C4211 C1078 0.930 . S
C4225 C1162 0.905 . S
C4229 C826 0.928 . S
C4243 C1246 0.917 . S
C4247 C910 0.920 . S
C4261 C1330 0.931 . S
C4265 C994 0.895 . S
C4279 C1402 0.918 . S
C4283 C1738 0.919 . S
C4297 C1822 0.925 . S
C4301 C1486 0.890 . S
C4315 C1570 0.915 . S
C4319 C1906 0.893 . S
C4333 C1990 0.907 . S
C4337 C1654 0.899 . S
C4351 C2422 0.896 . S
C4355 C2086 0.910 . S
C4369 C2170 0.923 . S
C4373 C2506 0.890 . S
C4387 C2254 0.927 . S
C4391 C2590 0.907 . S
C4405 C2338 0.921 . S
C4409 C2674 0.915 . S
