# Generated by pormake.
# Topology umb, (4)-cn, num edge types: 1
# Building blocks:
#     Node 0, Type 0, BuildingBlock: QUQFOY_clean_sbu_3, # of connection points: 4
#     Node 1, Type 0, BuildingBlock: QUQFOY_clean_sbu_3, # of connection points: 4
#     Node 2, Type 0, BuildingBlock: QUQFOY_clean_sbu_3, # of connection points: 4
#     Node 3, Type 0, BuildingBlock: QUQFOY_clean_sbu_3, # of connection points: 4
#     Node 4, Type 0, BuildingBlock: QUQFOY_clean_sbu_3, # of connection points: 4
#     Node 5, Type 0, BuildingBlock: QUQFOY_clean_sbu_3, # of connection points: 4
#     Node 6, Type 0, BuildingBlock: QUQFOY_clean_sbu_3, # of connection points: 4
#     Node 7, Type 0, BuildingBlock: QUQFOY_clean_sbu_3, # of connection points: 4
#     Node 8, Type 0, BuildingBlock: QUQFOY_clean_sbu_3, # of connection points: 4
#     Node 9, Type 0, BuildingBlock: QUQFOY_clean_sbu_3, # of connection points: 4
#     Node 10, Type 0, BuildingBlock: QUQFOY_clean_sbu_3, # of connection points: 4
#     Node 11, Type 0, BuildingBlock: QUQFOY_clean_sbu_3, # of connection points: 4
#     Edge 12, Type (0, 0), BuildingBlock: OJICUG_clean_linker_0, # of connection points: 2
#     Edge 13, Type (0, 0), BuildingBlock: OJICUG_clean_linker_0, # of connection points: 2
#     Edge 14, Type (0, 0), BuildingBlock: OJICUG_clean_linker_0, # of connection points: 2
#     Edge 15, Type (0, 0), BuildingBlock: OJICUG_clean_linker_0, # of connection points: 2
#     Edge 16, Type (0, 0), BuildingBlock: OJICUG_clean_linker_0, # of connection points: 2
#     Edge 17, Type (0, 0), BuildingBlock: OJICUG_clean_linker_0, # of connection points: 2
#     Edge 18, Type (0, 0), BuildingBlock: OJICUG_clean_linker_0, # of connection points: 2
#     Edge 19, Type (0, 0), BuildingBlock: OJICUG_clean_linker_0, # of connection points: 2
#     Edge 20, Type (0, 0), BuildingBlock: OJICUG_clean_linker_0, # of connection points: 2
#     Edge 21, Type (0, 0), BuildingBlock: OJICUG_clean_linker_0, # of connection points: 2
#     Edge 22, Type (0, 0), BuildingBlock: OJICUG_clean_linker_0, # of connection points: 2
#     Edge 23, Type (0, 0), BuildingBlock: OJICUG_clean_linker_0, # of connection points: 2
#     Edge 24, Type (0, 0), BuildingBlock: OJICUG_clean_linker_0, # of connection points: 2
#     Edge 25, Type (0, 0), BuildingBlock: OJICUG_clean_linker_0, # of connection points: 2
#     Edge 26, Type (0, 0), BuildingBlock: OJICUG_clean_linker_0, # of connection points: 2
#     Edge 27, Type (0, 0), BuildingBlock: OJICUG_clean_linker_0, # of connection points: 2
#     Edge 28, Type (0, 0), BuildingBlock: OJICUG_clean_linker_0, # of connection points: 2
#     Edge 29, Type (0, 0), BuildingBlock: OJICUG_clean_linker_0, # of connection points: 2
#     Edge 30, Type (0, 0), BuildingBlock: OJICUG_clean_linker_0, # of connection points: 2
#     Edge 31, Type (0, 0), BuildingBlock: OJICUG_clean_linker_0, # of connection points: 2
#     Edge 32, Type (0, 0), BuildingBlock: OJICUG_clean_linker_0, # of connection points: 2
#     Edge 33, Type (0, 0), BuildingBlock: OJICUG_clean_linker_0, # of connection points: 2
#     Edge 34, Type (0, 0), BuildingBlock: OJICUG_clean_linker_0, # of connection points: 2
#     Edge 35, Type (0, 0), BuildingBlock: OJICUG_clean_linker_0, # of connection points: 2
# Relax obj value: 0.254
# Max RMSD: 0.249
# Mean RMSD: 0.249
data_MOF--net-umb--node1-QUQFOY_clean_sbu_3--edge1-OJICUG_clean_linker_0
_symmetry_space_group_name_H-M    P1
_symmetry_Int_Tables_number       1
_symmetry_cell_setting            triclinic
loop_
_symmetry_equiv_pos_as_xyz
'x, y, z'
_cell_length_a     38.867928
_cell_length_b     38.544215
_cell_length_c     27.551477
_cell_angle_alpha  89.770572
_cell_angle_beta   89.683182
_cell_angle_gamma 120.17103
loop_
_atom_site_label
_atom_site_type_symbol
_atom_site_fract_x
_atom_site_fract_y
_atom_site_fract_z
_atom_type_partial_charge
C0 C 0.42042 0.16014 0.26124 0.0
O1 O 0.41237 0.16671 0.30372 0.0
Cd2 Cd 0.44467 0.156 0.37323 0.0
O3 O 0.44043 0.14256 0.25579 0.0
Cd4 Cd 0.46878 0.11095 0.30862 0.0
C5 C 0.53983 0.20369 0.33015 0.0
O6 O 0.44435 0.09467 0.39464 0.0
O7 O 0.50394 0.1068 0.37644 0.0
O8 O 0.42433 0.04513 0.2772 0.0
C9 C 0.47666 0.09625 0.40813 0.0
O10 O 0.51369 0.20353 0.35828 0.0
C11 C 0.45142 0.03992 0.25878 0.0
O12 O 0.53198 0.17372 0.3034 0.0
O13 O 0.48705 0.06898 0.26148 0.0
C14 C 0.22383 0.45547 0.59685 0.0
O15 O 0.20957 0.45029 0.6396 0.0
Cd16 Cd 0.25168 0.47567 0.71217 0.0
O17 O 0.26118 0.47126 0.59087 0.0
Cd18 Cd 0.32025 0.49708 0.64365 0.0
C19 C 0.30586 0.57198 0.67385 0.0
O20 O 0.30992 0.47071 0.72874 0.0
O21 O 0.36042 0.52966 0.71206 0.0
O22 O 0.33952 0.45188 0.60949 0.0
C23 C 0.34154 0.5021 0.74322 0.0
O24 O 0.28171 0.5471 0.70503 0.0
C25 C 0.37234 0.47914 0.59164 0.0
O26 O 0.32171 0.5612 0.64092 0.0
O27 O 0.38011 0.51526 0.59585 0.0
C28 C 0.7279 0.24605 0.92001 0.0
O29 O 0.72312 0.22913 0.96108 0.0
Cd30 Cd 0.73225 0.26824 0.03444 0.0
O31 O 0.7437 0.28399 0.91774 0.0
Cd32 Cd 0.7751 0.34087 0.97542 0.0
C33 C 0.68231 0.31575 1.00038 0.0
O34 O 0.79144 0.32904 0.05942 0.0
O35 O 0.77842 0.37701 0.04615 0.0
O36 O 0.84032 0.36124 0.94372 0.0
C37 C 0.78928 0.35909 0.07561 0.0
O38 O 0.68355 0.2885 0.02519 0.0
C39 C 0.84745 0.39529 0.92809 0.0
O40 O 0.71183 0.34036 0.97419 0.0
O41 O 0.81957 0.40342 0.93208 0.0
C42 C 0.4333 0.74965 0.26844 0.0
O43 O 0.43544 0.73912 0.31155 0.0
Cd44 Cd 0.41015 0.75812 0.38282 0.0
O45 O 0.41989 0.77323 0.26114 0.0
Cd46 Cd 0.39343 0.80742 0.31216 0.0
C47 C 0.31605 0.71922 0.34282 0.0
O48 O 0.41756 0.82316 0.39756 0.0
O49 O 0.35997 0.81593 0.37948 0.0
O50 O 0.43954 0.87263 0.27862 0.0
C51 C 0.38655 0.8244 0.41109 0.0
O52 O 0.33929 0.71904 0.37502 0.0
C53 C 0.41309 0.87844 0.25976 0.0
O54 O 0.32868 0.74573 0.30913 0.0
O55 O 0.37719 0.84987 0.26294 0.0
C56 C 0.63944 0.45821 0.59683 0.0
O57 O 0.65439 0.46939 0.63867 0.0
Cd58 Cd 0.61031 0.44166 0.71045 0.0
O59 O 0.60186 0.4395 0.59233 0.0
Cd60 Cd 0.54263 0.4192 0.64369 0.0
C61 C 0.55676 0.34462 0.67415 0.0
O62 O 0.55146 0.44556 0.72797 0.0
O63 O 0.50176 0.38617 0.71192 0.0
O64 O 0.52573 0.46572 0.60749 0.0
C65 C 0.51978 0.41388 0.74259 0.0
O66 O 0.58154 0.36999 0.70382 0.0
C67 C 0.49266 0.43888 0.59048 0.0
O68 O 0.53977 0.3548 0.64222 0.0
O69 O 0.48398 0.40252 0.59569 0.0
C70 C 0.12902 0.66428 0.92503 0.0
O71 O 0.13236 0.6803 0.96618 0.0
Cd72 Cd 0.1225 0.63926 0.03866 0.0
O73 O 0.11388 0.62646 0.92252 0.0
Cd74 Cd 0.08146 0.56844 0.97964 0.0
C75 C 0.17431 0.5945 1.00212 0.0
O76 O 0.06449 0.57695 0.06493 0.0
O77 O 0.07872 0.53027 0.04862 0.0
O78 O 0.0166 0.54923 0.94887 0.0
C79 C 0.06743 0.54685 0.07953 0.0
O80 O 0.17242 0.62092 0.02763 0.0
C81 C 0.00975 0.51587 0.93158 0.0
O82 O 0.14506 0.56993 0.97629 0.0
O83 O 0.03751 0.5075 0.93464 0.0
C84 C 0.73561 0.44831 0.44324 0.0
O85 O 0.76596 0.47541 0.42094 0.0
Cd86 Cd 0.77174 0.42333 0.37371 0.0
O87 O 0.72603 0.41223 0.43528 0.0
Cd88 Cd 0.77573 0.40211 0.38199 0.0
C89 C 0.69498 0.33686 0.36588 0.0
O90 O 0.79381 0.43093 0.29382 0.0
O91 O 0.78352 0.37135 0.30924 0.0
O92 O 0.83814 0.45186 0.41934 0.0
C93 C 0.79253 0.3991 0.27825 0.0
O94 O 0.70306 0.37196 0.35411 0.0
C95 C 0.84706 0.42628 0.4347 0.0
O96 O 0.72181 0.33269 0.38645 0.0
O97 O 0.82162 0.38947 0.42809 0.0
C98 C 0.21829 0.75068 0.75416 0.0
O99 O 0.2058 0.7407 0.7111 0.0
Cd100 Cd 0.2504 0.75915 0.63993 0.0
O101 O 0.25529 0.7734 0.7614 0.0
Cd102 Cd 0.31631 0.80674 0.71056 0.0
C103 C 0.30366 0.71791 0.68074 0.0
O104 O 0.30884 0.82369 0.62505 0.0
O105 O 0.35834 0.81501 0.64324 0.0
O106 O 0.3362 0.87172 0.74418 0.0
C107 C 0.34078 0.82427 0.61154 0.0
O108 O 0.28079 0.71863 0.6484 0.0
C109 C 0.36818 0.8767 0.76286 0.0
O110 O 0.31777 0.74413 0.71423 0.0
O111 O 0.37499 0.84776 0.75953 0.0
C112 C 0.41959 0.24659 0.09078 0.0
O113 O 0.40937 0.23169 0.04874 0.0
Cd114 Cd 0.44112 0.27441 0.97758 0.0
O115 O 0.44125 0.28435 0.09535 0.0
Cd116 Cd 0.46975 0.34471 0.04234 0.0
C117 C 0.53683 0.31858 0.01712 0.0
O118 O 0.44448 0.33739 0.95786 0.0
O119 O 0.50486 0.38462 0.97413 0.0
O120 O 0.42373 0.36303 0.07487 0.0
C121 C 0.47713 0.36805 0.94342 0.0
O122 O 0.50926 0.29329 0.9901 0.0
C123 C 0.44989 0.39615 0.09278 0.0
O124 O 0.53149 0.34212 0.04453 0.0
O125 O 0.48605 0.40467 0.08955 0.0
C126 C 0.13718 0.45608 0.42691 0.0
O127 O 0.14666 0.45169 0.38412 0.0
Cd128 Cd 0.12938 0.47747 0.31184 0.0
O129 O 0.11498 0.47116 0.43299 0.0
Cd130 Cd 0.08068 0.49642 0.38051 0.0
C131 C 0.16882 0.5732 0.35016 0.0
O132 O 0.06544 0.47075 0.29559 0.0
O133 O 0.07207 0.52891 0.31202 0.0
O134 O 0.017 0.44907 0.41504 0.0
C135 C 0.0642 0.50177 0.28101 0.0
O136 O 0.16899 0.54898 0.31906 0.0
C137 C 0.00982 0.47519 0.43275 0.0
O138 O 0.14206 0.56147 0.38322 0.0
O139 O 0.03694 0.51184 0.42826 0.0
C140 C 0.64142 0.16284 0.74874 0.0
O141 O 0.65428 0.17373 0.70566 0.0
Cd142 Cd 0.61016 0.15678 0.63514 0.0
O143 O 0.60436 0.14004 0.75628 0.0
Cd144 Cd 0.54339 0.10772 0.70689 0.0
C145 C 0.55722 0.19761 0.67909 0.0
O146 O 0.5518 0.0924 0.62115 0.0
O147 O 0.50172 0.10012 0.64001 0.0
O148 O 0.52342 0.04248 0.74083 0.0
C149 C 0.5199 0.0918 0.60795 0.0
O150 O 0.57997 0.19731 0.64592 0.0
C151 C 0.49146 0.0374 0.76019 0.0
O152 O 0.54276 0.17067 0.71225 0.0
O153 O 0.48458 0.06632 0.75683 0.0
C154 C 0.43518 0.66339 0.09817 0.0
O155 O 0.44838 0.67968 0.05696 0.0
Cd156 Cd 0.41788 0.63911 0.98473 0.0
O157 O 0.41231 0.62559 0.10087 0.0
Cd158 Cd 0.38742 0.56821 0.04385 0.0
C159 C 0.32098 0.59456 0.01965 0.0
O160 O 0.41393 0.57705 0.95877 0.0
O161 O 0.35289 0.53047 0.97495 0.0
O162 O 0.43283 0.54895 0.0757 0.0
C163 C 0.38112 0.54702 0.94425 0.0
O164 O 0.34962 0.62111 0.99426 0.0
C165 C 0.40629 0.51529 0.0928 0.0
O166 O 0.32533 0.56981 0.0461 0.0
O167 O 0.37018 0.50678 0.08922 0.0
C168 C 0.52011 0.08954 0.47012 0.0
C169 C 0.48472 0.08967 0.45909 0.0
H170 H 0.55892 0.08973 0.52545 0.0
C171 C 0.45942 0.08657 0.49738 0.0
H172 H 0.54028 0.09164 0.44147 0.0
C173 C 0.47023 0.08545 0.54558 0.0
C174 C 0.50655 0.08728 0.55667 0.0
H175 H 0.43202 0.08653 0.49027 0.0
H176 H 0.45058 0.08441 0.57429 0.0
C177 C 0.53086 0.0883 0.5183 0.0
C178 C 0.39056 0.54388 0.80716 0.0
C179 C 0.35391 0.50981 0.79493 0.0
H180 H 0.4282 0.58228 0.86359 0.0
C181 C 0.32833 0.48617 0.83256 0.0
H182 H 0.41118 0.56273 0.77905 0.0
C183 C 0.33818 0.49754 0.88106 0.0
C184 C 0.37393 0.53274 0.89317 0.0
H185 H 0.29997 0.45986 0.82453 0.0
H186 H 0.31705 0.4793 0.90908 0.0
C187 C 0.40049 0.55516 0.85567 0.0
C188 C 0.79828 0.41784 0.18978 0.0
C189 C 0.79752 0.39207 0.22633 0.0
H190 H 0.7966 0.42769 0.11362 0.0
C191 C 0.79805 0.35707 0.21269 0.0
H192 H 0.79793 0.44497 0.19895 0.0
C193 C 0.79737 0.34708 0.1637 0.0
C194 C 0.79591 0.37176 0.12723 0.0
H195 H 0.7977 0.33659 0.23999 0.0
H196 H 0.7963 0.31925 0.15455 0.0
C197 C 0.79739 0.40775 0.14084 0.0
C198 C 0.40218 0.8306 0.50041 0.0
C199 C 0.37813 0.83001 0.46234 0.0
H200 H 0.40939 0.8297 0.57721 0.0
C201 C 0.3434 0.83145 0.47383 0.0
H202 H 0.42904 0.82956 0.49296 0.0
C203 C 0.33195 0.83144 0.52217 0.0
C204 C 0.35495 0.82996 0.56025 0.0
H205 H 0.3242 0.83128 0.44538 0.0
H206 H 0.30437 0.83105 0.52963 0.0
C207 C 0.39072 0.83057 0.54875 0.0
C208 C 0.52055 0.41827 0.88012 0.0
C209 C 0.4849 0.38271 0.89234 0.0
H210 H 0.55949 0.45642 0.82341 0.0
C211 C 0.45905 0.36024 0.85498 0.0
H212 H 0.54109 0.43655 0.90808 0.0
C213 C 0.4697 0.37177 0.80644 0.0
C214 C 0.50638 0.40611 0.79411 0.0
H215 H 0.43141 0.33286 0.86306 0.0
H216 H 0.4497 0.35285 0.77843 0.0
C217 C 0.53114 0.42988 0.83157 0.0
C218 C 0.06124 0.48619 0.19184 0.0
C219 C 0.05923 0.50961 0.22931 0.0
H220 H 0.06513 0.47949 0.11531 0.0
C221 C 0.05607 0.54348 0.21686 0.0
H222 H 0.06371 0.46002 0.20003 0.0
C223 C 0.05689 0.55479 0.16825 0.0
C224 C 0.06103 0.53257 0.13086 0.0
H225 H 0.05424 0.56217 0.24483 0.0
H226 H 0.05584 0.58176 0.16011 0.0
C227 C 0.0622 0.49757 0.14323 0.0
C228 C 0.65056 0.26419 0.34744 0.0
C229 C 0.65574 0.30255 0.35482 0.0
H230 H 0.60922 0.20243 0.33168 0.0
C231 C 0.62321 0.30856 0.34975 0.0
H232 H 0.67543 0.25907 0.35055 0.0
C233 C 0.58571 0.27645 0.33939 0.0
C234 C 0.5803 0.238 0.33276 0.0
H235 H 0.62652 0.33793 0.35504 0.0
H236 H 0.56071 0.2815 0.3375 0.0
C237 C 0.61302 0.23209 0.33589 0.0
C238 C 0.31337 0.66629 0.7225 0.0
C239 C 0.31215 0.685 0.67945 0.0
H240 H 0.31206 0.61487 0.75415 0.0
C241 C 0.3146 0.66924 0.63447 0.0
H242 H 0.31151 0.67801 0.75749 0.0
C243 C 0.31573 0.63371 0.6325 0.0
C244 C 0.31342 0.61316 0.67548 0.0
H245 H 0.31407 0.68358 0.60079 0.0
H246 H 0.31564 0.62098 0.59747 0.0
C247 C 0.31351 0.63025 0.72051 0.0
C248 C 0.57411 0.28259 0.01341 0.0
C249 C 0.57481 0.31924 0.01594 0.0
H250 H 0.60783 0.25309 0.00625 0.0
C251 C 0.61124 0.35538 0.01219 0.0
H252 H 0.54626 0.25437 0.01591 0.0
C253 C 0.64662 0.35466 0.00514 0.0
C254 C 0.64569 0.31778 1.00302 0.0
H255 H 0.61218 0.38394 0.01331 0.0
H256 H 0.6746 0.38269 1.00238 0.0
C257 C 0.60923 0.28187 0.00757 0.0
C258 C 0.25615 0.67043 0.38928 0.0
C259 C 0.27454 0.68672 0.34425 0.0
H260 H 0.20701 0.62157 0.42644 0.0
C261 C 0.25481 0.66857 0.30126 0.0
H262 H 0.27087 0.68433 0.42291 0.0
C263 C 0.21879 0.63244 0.30336 0.0
C264 C 0.20177 0.6147 0.34844 0.0
H265 H 0.26851 0.68069 0.26622 0.0
H266 H 0.20512 0.61742 0.26977 0.0
C267 C 0.21967 0.6348 0.39137 0.0
C268 C 0.54471 0.28227 0.63326 0.0
C269 C 0.54952 0.30354 0.67615 0.0
H270 H 0.54374 0.23144 0.60089 0.0
C271 C 0.55144 0.28692 0.72087 0.0
H272 H 0.5432 0.2946 0.59845 0.0
C273 C 0.55085 0.25047 0.72241 0.0
C274 C 0.54936 0.23092 0.67912 0.0
H275 H 0.55481 0.30282 0.75446 0.0
H276 H 0.55421 0.23901 0.75697 0.0
C277 C 0.54516 0.24638 0.63469 0.0
C278 C 0.21093 0.55673 0.00806 0.0
C279 C 0.21127 0.59321 1.00377 0.0
H280 H 0.24607 0.5285 0.01842 0.0
C281 C 0.24743 0.62953 0.00606 0.0
H282 H 0.18314 0.52842 0.00712 0.0
C283 C 0.28286 0.62958 0.01215 0.0
C284 C 0.28275 0.59332 0.01715 0.0
H285 H 0.24829 0.65801 1.00313 0.0
H286 H 0.31045 0.6581 0.0132 0.0
C287 C 0.2466 0.55679 0.01533 0.0
C288 C 0.40241 -0.03124 0.23924 0.0
C289 C 0.44225 -0.00035 0.24302 0.0
H290 H 0.36179 0.90548 0.24035 0.0
C291 C 0.47257 -0.00999 0.2407 0.0
H292 H 0.37843 -0.02462 0.24023 0.0
C293 C 0.46302 0.9499 0.24109 0.0
C294 C 0.42305 0.91896 0.24337 0.0
H295 H 0.50357 0.0132 0.24309 0.0
H296 H 0.48694 0.94327 0.24359 0.0
C297 C 0.39288 0.92868 0.23918 0.0
C298 C 0.44282 0.49973 0.57203 0.0
C299 C 0.40266 0.46945 0.57498 0.0
H300 H 0.50342 0.51361 0.57389 0.0
C301 C 0.39283 0.42915 0.57109 0.0
H302 H 0.45131 0.53108 0.57441 0.0
C303 C 0.4227 0.41912 0.57052 0.0
C304 C 0.4628 0.44926 0.57421 0.0
H305 H 0.36207 0.40518 0.5725 0.0
H306 H 0.41414 0.3877 0.57172 0.0
C307 C 0.4727 0.48969 0.5718 0.0
C308 C 0.89933 0.46674 0.91259 0.0
C309 C 0.88838 0.42606 0.91402 0.0
H310 H -0.05304 0.52751 0.91641 0.0
C311 C 0.91825 0.41572 0.91068 0.0
H312 H 0.87701 0.47565 0.9147 0.0
C313 C -0.04162 0.44544 0.91155 0.0
C314 C -0.03078 0.48594 0.91602 0.0
H315 H 0.91068 0.38456 0.91108 0.0
H316 H -0.01935 0.43643 0.91274 0.0
C317 C -0.06054 0.49646 0.91371 0.0
C318 C -0.05948 0.42266 0.4545 0.0
C319 C -0.03071 0.46351 0.44959 0.0
H320 H 0.87859 0.37865 0.45485 0.0
C321 C -0.04282 0.4922 0.45164 0.0
H322 H -0.05095 0.39988 0.45382 0.0
C323 C 0.91671 0.48001 0.45202 0.0
C324 C 0.88789 0.43898 0.45062 0.0
H325 H -0.02129 0.52393 0.44841 0.0
H326 H 0.90817 0.50271 0.44924 0.0
C327 C 0.9001 0.41048 0.45518 0.0
C328 C 0.46952 -0.03384 0.78066 0.0
C329 C 0.46073 -0.00271 0.77748 0.0
H330 H 0.44653 0.90279 0.77977 0.0
C331 C 0.42096 -0.01203 0.78161 0.0
H332 H 0.49998 -0.02749 0.77831 0.0
C333 C 0.3903 0.94799 0.78213 0.0
C334 C 0.39905 0.91684 0.77897 0.0
H335 H 0.41328 0.01135 0.77981 0.0
H336 H 0.35982 0.94163 0.78087 0.0
C337 C 0.43887 0.92617 0.78164 0.0
C338 C 0.45726 0.49605 0.11148 0.0
C339 C 0.41697 0.48522 0.1083 0.0
H340 H 0.49949 0.47591 0.1101 0.0
C341 C 0.38766 0.44449 0.11129 0.0
H342 H 0.48053 0.52728 0.10996 0.0
C343 C 0.39856 0.41505 0.11124 0.0
C344 C 0.43892 0.42592 0.10847 0.0
H345 H 0.35637 0.43521 0.1094 0.0
H346 H 0.37532 0.38384 0.1095 0.0
C347 C 0.46816 0.46661 0.11172 0.0
C348 C 0.41046 0.21343 0.22235 0.0
C349 C 0.41178 0.17777 0.2181 0.0
H350 H 0.41216 0.26336 0.18529 0.0
C351 C 0.41021 0.16232 0.17145 0.0
H352 H 0.41189 0.22631 0.25767 0.0
C353 C 0.40943 0.18312 0.12995 0.0
C354 C 0.41128 0.22037 0.13416 0.0
H355 H 0.41118 0.13491 0.16695 0.0
H356 H 0.4101 0.17134 0.09455 0.0
C357 C 0.41075 0.23475 0.18084 0.0
C358 C 0.19114 0.44746 0.46539 0.0
C359 C 0.1556 0.44848 0.47006 0.0
H360 H 0.24054 0.44888 0.50161 0.0
C361 C 0.14036 0.44682 0.51706 0.0
H362 H 0.20385 0.4488 0.42986 0.0
C363 C 0.16115 0.4463 0.5583 0.0
C364 C 0.19809 0.44812 0.55364 0.0
H365 H 0.113 0.4474 0.52208 0.0
H366 H 0.14931 0.44675 0.59382 0.0
C367 C 0.21227 0.44763 0.50663 0.0
C368 C 0.67828 0.18237 0.8787 0.0
C369 C 0.71067 0.22182 0.8754 0.0
H370 H 0.63091 0.13283 0.84128 0.0
C371 C 0.72313 0.23949 0.82906 0.0
H372 H 0.66775 0.16789 0.91375 0.0
C373 C 0.70243 0.21904 0.78734 0.0
C374 C 0.66824 0.18079 0.79107 0.0
H375 H 0.74802 0.26979 0.82519 0.0
H376 H 0.71177 0.23428 0.75254 0.0
C377 C 0.65706 0.16229 0.83711 0.0
C378 C 0.44935 0.72775 0.13836 0.0
C379 C 0.44208 0.68822 0.14233 0.0
H380 H 0.45209 0.7781 0.17501 0.0
C381 C 0.43672 0.67109 0.18896 0.0
H382 H 0.45338 0.74181 0.10305 0.0
C383 C 0.43677 0.69222 0.23036 0.0
C384 C 0.44124 0.73066 0.22607 0.0
H385 H 0.4311 0.64072 0.19335 0.0
H386 H 0.43092 0.67743 0.26544 0.0
C387 C 0.44848 0.74852 0.17965 0.0
C388 C 0.64694 0.43597 0.51426 0.0
C389 C 0.66469 0.46139 0.55417 0.0
H390 H 0.65565 0.4119 0.44843 0.0
C391 C 0.70642 0.4862 0.5543 0.0
H392 H 0.61499 0.41628 0.51278 0.0
C393 C 0.72979 0.48437 0.51623 0.0
C394 C 0.71184 0.45697 0.47818 0.0
H395 H 0.72105 0.50607 0.58445 0.0
H396 H 0.7619 0.50256 0.51806 0.0
C397 C 0.67022 0.43338 0.47724 0.0
C398 C 0.13527 0.67271 0.83419 0.0
C399 C 0.14713 0.6894 0.88068 0.0
H400 H 0.14769 0.67939 0.75766 0.0
C401 C 0.17976 0.72861 0.88432 0.0
H402 H 0.11025 0.6426 0.83006 0.0
C403 C 0.20171 0.74942 0.84286 0.0
C404 C 0.19103 0.73191 0.7966 0.0
H405 H 0.18986 0.74232 0.91951 0.0
H406 H 0.22796 0.77868 0.84725 0.0
C407 C 0.15667 0.69389 0.79261 0.0
loop_
_geom_bond_atom_site_label_1
_geom_bond_atom_site_label_2
_geom_bond_distance
_geom_bond_site_symmetry_2
_ccdc_geom_bond_type
C0 O1 1.306 . S
C0 O3 1.160 . S
O1 C0 1.306 . S
O1 Cd2 2.228 . S
Cd2 O1 2.228 . S
Cd2 O6 2.273 . S
Cd2 O10 2.277 . S
O3 C0 1.160 . S
O3 Cd4 2.203 . S
Cd4 O3 2.203 . S
Cd4 O6 2.411 . S
Cd4 O7 2.333 . S
Cd4 O8 2.352 . S
Cd4 O12 2.277 . S
Cd4 O13 2.356 . S
C5 O10 1.209 . S
C5 O12 1.226 . S
O6 Cd2 2.273 . S
O6 Cd4 2.411 . S
O6 C9 1.320 . S
O7 Cd4 2.333 . S
O7 C9 1.214 . S
O8 Cd4 2.352 . S
O8 C11 1.258 . S
C9 O6 1.320 . S
C9 O7 1.214 . S
O10 Cd2 2.277 . S
O10 C5 1.209 . S
C11 O8 1.258 . S
C11 O13 1.282 . S
O12 Cd4 2.277 . S
O12 C5 1.226 . S
O13 Cd4 2.356 . S
O13 C11 1.282 . S
C14 O15 1.306 . S
C14 O17 1.160 . S
O15 C14 1.306 . S
O15 Cd16 2.228 . S
Cd16 O15 2.228 . S
Cd16 O20 2.273 . S
Cd16 O24 2.277 . S
O17 C14 1.160 . S
O17 Cd18 2.203 . S
Cd18 O17 2.203 . S
Cd18 O20 2.411 . S
Cd18 O21 2.333 . S
Cd18 O22 2.352 . S
Cd18 O26 2.277 . S
Cd18 O27 2.356 . S
C19 O24 1.209 . S
C19 O26 1.226 . S
O20 Cd16 2.273 . S
O20 Cd18 2.411 . S
O20 C23 1.320 . S
O21 Cd18 2.333 . S
O21 C23 1.214 . S
O22 Cd18 2.352 . S
O22 C25 1.258 . S
C23 O20 1.320 . S
C23 O21 1.214 . S
O24 Cd16 2.277 . S
O24 C19 1.209 . S
C25 O22 1.258 . S
C25 O27 1.282 . S
O26 Cd18 2.277 . S
O26 C19 1.226 . S
O27 Cd18 2.356 . S
O27 C25 1.282 . S
C28 O29 1.306 . S
C28 O31 1.160 . S
O29 C28 1.306 . S
O29 Cd30 2.228 1_556 S
Cd30 O29 2.228 1_554 S
Cd30 O34 2.273 . S
Cd30 O38 2.277 . S
O31 C28 1.160 . S
O31 Cd32 2.203 . S
Cd32 O31 2.203 . S
Cd32 O34 2.411 1_556 S
Cd32 O35 2.333 1_556 S
Cd32 O36 2.352 . S
Cd32 O40 2.277 . S
Cd32 O41 2.356 . S
C33 O38 1.209 1_556 S
C33 O40 1.226 . S
O34 Cd30 2.273 . S
O34 Cd32 2.411 1_554 S
O34 C37 1.320 . S
O35 Cd32 2.333 1_554 S
O35 C37 1.214 . S
O36 Cd32 2.352 . S
O36 C39 1.258 . S
C37 O34 1.320 . S
C37 O35 1.214 . S
O38 Cd30 2.277 . S
O38 C33 1.209 1_554 S
C39 O36 1.258 . S
C39 O41 1.282 . S
O40 Cd32 2.277 . S
O40 C33 1.226 . S
O41 Cd32 2.356 . S
O41 C39 1.282 . S
C42 O43 1.306 . S
C42 O45 1.160 . S
O43 C42 1.306 . S
O43 Cd44 2.228 . S
Cd44 O43 2.228 . S
Cd44 O48 2.273 . S
Cd44 O52 2.277 . S
O45 C42 1.160 . S
O45 Cd46 2.203 . S
Cd46 O45 2.203 . S
Cd46 O48 2.411 . S
Cd46 O49 2.333 . S
Cd46 O50 2.352 . S
Cd46 O54 2.277 . S
Cd46 O55 2.356 . S
C47 O52 1.209 . S
C47 O54 1.226 . S
O48 Cd44 2.273 . S
O48 Cd46 2.411 . S
O48 C51 1.320 . S
O49 Cd46 2.333 . S
O49 C51 1.214 . S
O50 Cd46 2.352 . S
O50 C53 1.258 . S
C51 O48 1.320 . S
C51 O49 1.214 . S
O52 Cd44 2.277 . S
O52 C47 1.209 . S
C53 O50 1.258 . S
C53 O55 1.282 . S
O54 Cd46 2.277 . S
O54 C47 1.226 . S
O55 Cd46 2.356 . S
O55 C53 1.282 . S
C56 O57 1.306 . S
C56 O59 1.160 . S
O57 C56 1.306 . S
O57 Cd58 2.228 . S
Cd58 O57 2.228 . S
Cd58 O62 2.273 . S
Cd58 O66 2.277 . S
O59 C56 1.160 . S
O59 Cd60 2.203 . S
Cd60 O59 2.203 . S
Cd60 O62 2.411 . S
Cd60 O63 2.333 . S
Cd60 O64 2.352 . S
Cd60 O68 2.277 . S
Cd60 O69 2.356 . S
C61 O66 1.209 . S
C61 O68 1.226 . S
O62 Cd58 2.273 . S
O62 Cd60 2.411 . S
O62 C65 1.320 . S
O63 Cd60 2.333 . S
O63 C65 1.214 . S
O64 Cd60 2.352 . S
O64 C67 1.258 . S
C65 O62 1.320 . S
C65 O63 1.214 . S
O66 Cd58 2.277 . S
O66 C61 1.209 . S
C67 O64 1.258 . S
C67 O69 1.282 . S
O68 Cd60 2.277 . S
O68 C61 1.226 . S
O69 Cd60 2.356 . S
O69 C67 1.282 . S
C70 O71 1.306 . S
C70 O73 1.160 . S
O71 C70 1.306 . S
O71 Cd72 2.228 1_556 S
Cd72 O71 2.228 1_554 S
Cd72 O76 2.273 . S
Cd72 O80 2.277 . S
O73 C70 1.160 . S
O73 Cd74 2.203 . S
Cd74 O73 2.203 . S
Cd74 O76 2.411 1_556 S
Cd74 O77 2.333 1_556 S
Cd74 O78 2.352 . S
Cd74 O82 2.277 . S
Cd74 O83 2.356 . S
C75 O80 1.209 1_556 S
C75 O82 1.226 . S
O76 Cd72 2.273 . S
O76 Cd74 2.411 1_554 S
O76 C79 1.320 . S
O77 Cd74 2.333 1_554 S
O77 C79 1.214 . S
O78 Cd74 2.352 . S
O78 C81 1.258 . S
C79 O76 1.320 . S
C79 O77 1.214 . S
O80 Cd72 2.277 . S
O80 C75 1.209 1_554 S
C81 O78 1.258 . S
C81 O83 1.282 . S
O82 Cd74 2.277 . S
O82 C75 1.226 . S
O83 Cd74 2.356 . S
O83 C81 1.282 . S
C84 O85 1.306 . S
C84 O87 1.160 . S
O85 C84 1.306 . S
O85 Cd86 2.228 . S
Cd86 O85 2.228 . S
Cd86 O90 2.273 . S
Cd86 O94 2.277 . S
O87 C84 1.160 . S
O87 Cd88 2.203 . S
Cd88 O87 2.203 . S
Cd88 O90 2.411 . S
Cd88 O91 2.333 . S
Cd88 O92 2.352 . S
Cd88 O96 2.277 . S
Cd88 O97 2.356 . S
C89 O94 1.209 . S
C89 O96 1.226 . S
O90 Cd86 2.273 . S
O90 Cd88 2.411 . S
O90 C93 1.320 . S
O91 Cd88 2.333 . S
O91 C93 1.214 . S
O92 Cd88 2.352 . S
O92 C95 1.258 . S
C93 O90 1.320 . S
C93 O91 1.214 . S
O94 Cd86 2.277 . S
O94 C89 1.209 . S
C95 O92 1.258 . S
C95 O97 1.282 . S
O96 Cd88 2.277 . S
O96 C89 1.226 . S
O97 Cd88 2.356 . S
O97 C95 1.282 . S
C98 O99 1.306 . S
C98 O101 1.160 . S
O99 C98 1.306 . S
O99 Cd100 2.228 . S
Cd100 O99 2.228 . S
Cd100 O104 2.273 . S
Cd100 O108 2.277 . S
O101 C98 1.160 . S
O101 Cd102 2.203 . S
Cd102 O101 2.203 . S
Cd102 O104 2.411 . S
Cd102 O105 2.333 . S
Cd102 O106 2.352 . S
Cd102 O110 2.277 . S
Cd102 O111 2.356 . S
C103 O108 1.209 . S
C103 O110 1.226 . S
O104 Cd100 2.273 . S
O104 Cd102 2.411 . S
O104 C107 1.320 . S
O105 Cd102 2.333 . S
O105 C107 1.214 . S
O106 Cd102 2.352 . S
O106 C109 1.258 . S
C107 O104 1.320 . S
C107 O105 1.214 . S
O108 Cd100 2.277 . S
O108 C103 1.209 . S
C109 O106 1.258 . S
C109 O111 1.282 . S
O110 Cd102 2.277 . S
O110 C103 1.226 . S
O111 Cd102 2.356 . S
O111 C109 1.282 . S
C112 O113 1.306 . S
C112 O115 1.160 . S
O113 C112 1.306 . S
O113 Cd114 2.228 1_554 S
Cd114 O113 2.228 1_556 S
Cd114 O118 2.273 . S
Cd114 O122 2.277 1_556 S
O115 C112 1.160 . S
O115 Cd116 2.203 . S
Cd116 O115 2.203 . S
Cd116 O118 2.411 1_554 S
Cd116 O119 2.333 1_554 S
Cd116 O120 2.352 . S
Cd116 O124 2.277 . S
Cd116 O125 2.356 . S
C117 O122 1.209 . S
C117 O124 1.226 . S
O118 Cd114 2.273 . S
O118 Cd116 2.411 1_556 S
O118 C121 1.320 . S
O119 Cd116 2.333 1_556 S
O119 C121 1.214 . S
O120 Cd116 2.352 . S
O120 C123 1.258 . S
C121 O118 1.320 . S
C121 O119 1.214 . S
O122 Cd114 2.277 1_554 S
O122 C117 1.209 . S
C123 O120 1.258 . S
C123 O125 1.282 . S
O124 Cd116 2.277 . S
O124 C117 1.226 . S
O125 Cd116 2.356 . S
O125 C123 1.282 . S
C126 O127 1.306 . S
C126 O129 1.160 . S
O127 C126 1.306 . S
O127 Cd128 2.228 . S
Cd128 O127 2.228 . S
Cd128 O132 2.273 . S
Cd128 O136 2.277 . S
O129 C126 1.160 . S
O129 Cd130 2.203 . S
Cd130 O129 2.203 . S
Cd130 O132 2.411 . S
Cd130 O133 2.333 . S
Cd130 O134 2.352 . S
Cd130 O138 2.277 . S
Cd130 O139 2.356 . S
C131 O136 1.209 . S
C131 O138 1.226 . S
O132 Cd128 2.273 . S
O132 Cd130 2.411 . S
O132 C135 1.320 . S
O133 Cd130 2.333 . S
O133 C135 1.214 . S
O134 Cd130 2.352 . S
O134 C137 1.258 . S
C135 O132 1.320 . S
C135 O133 1.214 . S
O136 Cd128 2.277 . S
O136 C131 1.209 . S
C137 O134 1.258 . S
C137 O139 1.282 . S
O138 Cd130 2.277 . S
O138 C131 1.226 . S
O139 Cd130 2.356 . S
O139 C137 1.282 . S
C140 O141 1.306 . S
C140 O143 1.160 . S
O141 C140 1.306 . S
O141 Cd142 2.228 . S
Cd142 O141 2.228 . S
Cd142 O146 2.273 . S
Cd142 O150 2.277 . S
O143 C140 1.160 . S
O143 Cd144 2.203 . S
Cd144 O143 2.203 . S
Cd144 O146 2.411 . S
Cd144 O147 2.333 . S
Cd144 O148 2.352 . S
Cd144 O152 2.277 . S
Cd144 O153 2.356 . S
C145 O150 1.209 . S
C145 O152 1.226 . S
O146 Cd142 2.273 . S
O146 Cd144 2.411 . S
O146 C149 1.320 . S
O147 Cd144 2.333 . S
O147 C149 1.214 . S
O148 Cd144 2.352 . S
O148 C151 1.258 . S
C149 O146 1.320 . S
C149 O147 1.214 . S
O150 Cd142 2.277 . S
O150 C145 1.209 . S
C151 O148 1.258 . S
C151 O153 1.282 . S
O152 Cd144 2.277 . S
O152 C145 1.226 . S
O153 Cd144 2.356 . S
O153 C151 1.282 . S
C154 O155 1.306 . S
C154 O157 1.160 . S
O155 C154 1.306 . S
O155 Cd156 2.228 1_554 S
Cd156 O155 2.228 1_556 S
Cd156 O160 2.273 . S
Cd156 O164 2.277 1_556 S
O157 C154 1.160 . S
O157 Cd158 2.203 . S
Cd158 O157 2.203 . S
Cd158 O160 2.411 1_554 S
Cd158 O161 2.333 1_554 S
Cd158 O162 2.352 . S
Cd158 O166 2.277 . S
Cd158 O167 2.356 . S
C159 O164 1.209 . S
C159 O166 1.226 . S
O160 Cd156 2.273 . S
O160 Cd158 2.411 1_556 S
O160 C163 1.320 . S
O161 Cd158 2.333 1_556 S
O161 C163 1.214 . S
O162 Cd158 2.352 . S
O162 C165 1.258 . S
C163 O160 1.320 . S
C163 O161 1.214 . S
O164 Cd156 2.277 1_554 S
O164 C159 1.209 . S
C165 O162 1.258 . S
C165 O167 1.282 . S
O166 Cd158 2.277 . S
O166 C159 1.226 . S
O167 Cd158 2.356 . S
O167 C165 1.282 . S
C168 C169 1.387 . S
C168 H172 0.950 . S
C168 C177 1.390 . S
C169 C168 1.387 . S
C169 C171 1.387 . S
H170 C177 0.950 . S
C171 C169 1.387 . S
C171 C173 1.390 . S
C171 H175 0.950 . S
H172 C168 0.950 . S
C173 C171 1.390 . S
C173 C174 1.387 . S
C173 H176 0.950 . S
C174 C173 1.387 . S
C174 C177 1.387 . S
H175 C171 0.950 . S
H176 C173 0.950 . S
C177 C168 1.390 . S
C177 H170 0.950 . S
C177 C174 1.387 . S
C178 C179 1.387 . S
C178 H182 0.950 . S
C178 C187 1.390 . S
C179 C178 1.387 . S
C179 C181 1.387 . S
H180 C187 0.950 . S
C181 C179 1.387 . S
C181 C183 1.390 . S
C181 H185 0.950 . S
H182 C178 0.950 . S
C183 C181 1.390 . S
C183 C184 1.387 . S
C183 H186 0.950 . S
C184 C183 1.387 . S
C184 C187 1.387 . S
H185 C181 0.950 . S
H186 C183 0.950 . S
C187 C178 1.390 . S
C187 H180 0.950 . S
C187 C184 1.387 . S
C188 C189 1.387 . S
C188 H192 0.950 . S
C188 C197 1.390 . S
C189 C188 1.387 . S
C189 C191 1.387 . S
H190 C197 0.950 . S
C191 C189 1.387 . S
C191 C193 1.390 . S
C191 H195 0.950 . S
H192 C188 0.950 . S
C193 C191 1.390 . S
C193 C194 1.387 . S
C193 H196 0.950 . S
C194 C193 1.387 . S
C194 C197 1.387 . S
H195 C191 0.950 . S
H196 C193 0.950 . S
C197 C188 1.390 . S
C197 H190 0.950 . S
C197 C194 1.387 . S
C198 C199 1.387 . S
C198 H202 0.950 . S
C198 C207 1.390 . S
C199 C198 1.387 . S
C199 C201 1.387 . S
H200 C207 0.950 . S
C201 C199 1.387 . S
C201 C203 1.390 . S
C201 H205 0.950 . S
H202 C198 0.950 . S
C203 C201 1.390 . S
C203 C204 1.387 . S
C203 H206 0.950 . S
C204 C203 1.387 . S
C204 C207 1.387 . S
H205 C201 0.950 . S
H206 C203 0.950 . S
C207 C198 1.390 . S
C207 H200 0.950 . S
C207 C204 1.387 . S
C208 C209 1.387 . S
C208 H212 0.950 . S
C208 C217 1.390 . S
C209 C208 1.387 . S
C209 C211 1.387 . S
H210 C217 0.950 . S
C211 C209 1.387 . S
C211 C213 1.390 . S
C211 H215 0.950 . S
H212 C208 0.950 . S
C213 C211 1.390 . S
C213 C214 1.387 . S
C213 H216 0.950 . S
C214 C213 1.387 . S
C214 C217 1.387 . S
H215 C211 0.950 . S
H216 C213 0.950 . S
C217 C208 1.390 . S
C217 H210 0.950 . S
C217 C214 1.387 . S
C218 C219 1.387 . S
C218 H222 0.950 . S
C218 C227 1.390 . S
C219 C218 1.387 . S
C219 C221 1.387 . S
H220 C227 0.950 . S
C221 C219 1.387 . S
C221 C223 1.390 . S
C221 H225 0.950 . S
H222 C218 0.950 . S
C223 C221 1.390 . S
C223 C224 1.387 . S
C223 H226 0.950 . S
C224 C223 1.387 . S
C224 C227 1.387 . S
H225 C221 0.950 . S
H226 C223 0.950 . S
C227 C218 1.390 . S
C227 H220 0.950 . S
C227 C224 1.387 . S
C228 C229 1.387 . S
C228 H232 0.950 . S
C228 C237 1.390 . S
C229 C228 1.387 . S
C229 C231 1.387 . S
H230 C237 0.950 . S
C231 C229 1.387 . S
C231 C233 1.390 . S
C231 H235 0.950 . S
H232 C228 0.950 . S
C233 C231 1.390 . S
C233 C234 1.387 . S
C233 H236 0.950 . S
C234 C233 1.387 . S
C234 C237 1.387 . S
H235 C231 0.950 . S
H236 C233 0.950 . S
C237 C228 1.390 . S
C237 H230 0.950 . S
C237 C234 1.387 . S
C238 C239 1.387 . S
C238 H242 0.950 . S
C238 C247 1.390 . S
C239 C238 1.387 . S
C239 C241 1.387 . S
H240 C247 0.950 . S
C241 C239 1.387 . S
C241 C243 1.390 . S
C241 H245 0.950 . S
H242 C238 0.950 . S
C243 C241 1.390 . S
C243 C244 1.387 . S
C243 H246 0.950 . S
C244 C243 1.387 . S
C244 C247 1.387 . S
H245 C241 0.950 . S
H246 C243 0.950 . S
C247 C238 1.390 . S
C247 H240 0.950 . S
C247 C244 1.387 . S
C248 C249 1.387 . S
C248 H252 0.950 . S
C248 C257 1.390 1_554 S
C249 C248 1.387 . S
C249 C251 1.387 . S
H250 C257 0.950 . S
C251 C249 1.387 . S
C251 C253 1.390 1_554 S
C251 H255 0.950 . S
H252 C248 0.950 . S
C253 C251 1.390 1_556 S
C253 C254 1.387 . S
C253 H256 0.950 . S
C254 C253 1.387 . S
C254 C257 1.387 . S
H255 C251 0.950 . S
H256 C253 0.950 . S
C257 C248 1.390 1_556 S
C257 H250 0.950 . S
C257 C254 1.387 . S
C258 C259 1.387 . S
C258 H262 0.950 . S
C258 C267 1.390 . S
C259 C258 1.387 . S
C259 C261 1.387 . S
H260 C267 0.950 . S
C261 C259 1.387 . S
C261 C263 1.390 . S
C261 H265 0.950 . S
H262 C258 0.950 . S
C263 C261 1.390 . S
C263 C264 1.387 . S
C263 H266 0.950 . S
C264 C263 1.387 . S
C264 C267 1.387 . S
H265 C261 0.950 . S
H266 C263 0.950 . S
C267 C258 1.390 . S
C267 H260 0.950 . S
C267 C264 1.387 . S
C268 C269 1.387 . S
C268 H272 0.950 . S
C268 C277 1.390 . S
C269 C268 1.387 . S
C269 C271 1.387 . S
H270 C277 0.950 . S
C271 C269 1.387 . S
C271 C273 1.390 . S
C271 H275 0.950 . S
H272 C268 0.950 . S
C273 C271 1.390 . S
C273 C274 1.387 . S
C273 H276 0.950 . S
C274 C273 1.387 . S
C274 C277 1.387 . S
H275 C271 0.950 . S
H276 C273 0.950 . S
C277 C268 1.390 . S
C277 H270 0.950 . S
C277 C274 1.387 . S
C278 C279 1.387 . S
C278 H282 0.950 . S
C278 C287 1.390 1_556 S
C279 C278 1.387 . S
C279 C281 1.387 . S
H280 C287 0.950 . S
C281 C279 1.387 . S
C281 C283 1.390 1_556 S
C281 H285 0.950 . S
H282 C278 0.950 . S
C283 C281 1.390 1_554 S
C283 C284 1.387 . S
C283 H286 0.950 . S
C284 C283 1.387 . S
C284 C287 1.387 . S
H285 C281 0.950 . S
H286 C283 0.950 . S
C287 C278 1.390 1_554 S
C287 H280 0.950 . S
C287 C284 1.387 . S
C288 C289 1.387 . S
C288 H292 0.950 . S
C288 C297 1.390 1_545 S
C289 C288 1.387 . S
C289 C291 1.387 . S
H290 C297 0.950 . S
C291 C289 1.387 . S
C291 C293 1.390 1_545 S
C291 H295 0.950 . S
H292 C288 0.950 . S
C293 C291 1.390 1_565 S
C293 C294 1.387 . S
C293 H296 0.950 . S
C294 C293 1.387 . S
C294 C297 1.387 . S
H295 C291 0.950 . S
H296 C293 0.950 . S
C297 C288 1.390 1_565 S
C297 H290 0.950 . S
C297 C294 1.387 . S
C298 C299 1.387 . S
C298 H302 0.950 . S
C298 C307 1.390 . S
C299 C298 1.387 . S
C299 C301 1.387 . S
H300 C307 0.950 . S
C301 C299 1.387 . S
C301 C303 1.390 . S
C301 H305 0.950 . S
H302 C298 0.950 . S
C303 C301 1.390 . S
C303 C304 1.387 . S
C303 H306 0.950 . S
C304 C303 1.387 . S
C304 C307 1.387 . S
H305 C301 0.950 . S
H306 C303 0.950 . S
C307 C298 1.390 . S
C307 H300 0.950 . S
C307 C304 1.387 . S
C308 C309 1.387 1_554 S
C308 H312 0.950 . S
C308 C317 1.390 1_655 S
C309 C308 1.387 1_556 S
C309 C311 1.387 . S
H310 C317 0.950 . S
C311 C309 1.387 . S
C311 C313 1.390 1_655 S
C311 H315 0.950 . S
H312 C308 0.950 . S
C313 C311 1.390 1_455 S
C313 C314 1.387 . S
C313 H316 0.950 . S
C314 C313 1.387 . S
C314 C317 1.387 1_556 S
H315 C311 0.950 . S
H316 C313 0.950 . S
C317 C308 1.390 1_455 S
C317 H310 0.950 . S
C317 C314 1.387 1_554 S
C318 C319 1.387 . S
C318 H322 0.950 . S
C318 C327 1.390 1_455 S
C319 C318 1.387 . S
C319 C321 1.387 . S
H320 C327 0.950 . S
C321 C319 1.387 . S
C321 C323 1.390 1_455 S
C321 H325 0.950 . S
H322 C318 0.950 . S
C323 C321 1.390 1_655 S
C323 C324 1.387 . S
C323 H326 0.950 . S
C324 C323 1.387 . S
C324 C327 1.387 . S
H325 C321 0.950 . S
H326 C323 0.950 . S
C327 C318 1.390 1_655 S
C327 H320 0.950 . S
C327 C324 1.387 . S
C328 C329 1.387 . S
C328 H332 0.950 . S
C328 C337 1.390 1_545 S
C329 C328 1.387 . S
C329 C331 1.387 . S
H330 C337 0.950 . S
C331 C329 1.387 . S
C331 C333 1.390 1_545 S
C331 H335 0.950 . S
H332 C328 0.950 . S
C333 C331 1.390 1_565 S
C333 C334 1.387 . S
C333 H336 0.950 . S
C334 C333 1.387 . S
C334 C337 1.387 . S
H335 C331 0.950 . S
H336 C333 0.950 . S
C337 C328 1.390 1_565 S
C337 H330 0.950 . S
C337 C334 1.387 . S
C338 C339 1.387 . S
C338 H342 0.950 . S
C338 C347 1.390 . S
C339 C338 1.387 . S
C339 C341 1.387 . S
H340 C347 0.950 . S
C341 C339 1.387 . S
C341 C343 1.390 . S
C341 H345 0.950 1_554 S
H342 C338 0.950 . S
C343 C341 1.390 . S
C343 C344 1.387 . S
C343 H346 0.950 1_554 S
C344 C343 1.387 . S
C344 C347 1.387 . S
H345 C341 0.950 1_556 S
H346 C343 0.950 1_556 S
C347 C338 1.390 . S
C347 H340 0.950 . S
C347 C344 1.387 . S
C348 C349 1.387 . S
C348 H352 0.950 . S
C348 C357 1.390 . S
C349 C348 1.387 . S
C349 C351 1.387 . S
H350 C357 0.950 . S
C351 C349 1.387 . S
C351 C353 1.390 . S
C351 H355 0.950 . S
H352 C348 0.950 . S
C353 C351 1.390 . S
C353 C354 1.387 . S
C353 H356 0.950 . S
C354 C353 1.387 . S
C354 C357 1.387 . S
H355 C351 0.950 . S
H356 C353 0.950 . S
C357 C348 1.390 . S
C357 H350 0.950 . S
C357 C354 1.387 . S
C358 C359 1.387 . S
C358 H362 0.950 . S
C358 C367 1.390 . S
C359 C358 1.387 . S
C359 C361 1.387 . S
H360 C367 0.950 . S
C361 C359 1.387 . S
C361 C363 1.390 . S
C361 H365 0.950 . S
H362 C358 0.950 . S
C363 C361 1.390 . S
C363 C364 1.387 . S
C363 H366 0.950 . S
C364 C363 1.387 . S
C364 C367 1.387 . S
H365 C361 0.950 . S
H366 C363 0.950 . S
C367 C358 1.390 . S
C367 H360 0.950 . S
C367 C364 1.387 . S
C368 C369 1.387 . S
C368 H372 0.950 . S
C368 C377 1.390 . S
C369 C368 1.387 . S
C369 C371 1.387 . S
H370 C377 0.950 . S
C371 C369 1.387 . S
C371 C373 1.390 . S
C371 H375 0.950 . S
H372 C368 0.950 . S
C373 C371 1.390 . S
C373 C374 1.387 . S
C373 H376 0.950 . S
C374 C373 1.387 . S
C374 C377 1.387 . S
H375 C371 0.950 . S
H376 C373 0.950 . S
C377 C368 1.390 . S
C377 H370 0.950 . S
C377 C374 1.387 . S
C378 C379 1.387 . S
C378 H382 0.950 . S
C378 C387 1.390 . S
C379 C378 1.387 . S
C379 C381 1.387 . S
H380 C387 0.950 . S
C381 C379 1.387 . S
C381 C383 1.390 . S
C381 H385 0.950 . S
H382 C378 0.950 . S
C383 C381 1.390 . S
C383 C384 1.387 . S
C383 H386 0.950 . S
C384 C383 1.387 . S
C384 C387 1.387 . S
H385 C381 0.950 . S
H386 C383 0.950 . S
C387 C378 1.390 . S
C387 H380 0.950 . S
C387 C384 1.387 . S
C388 C389 1.387 . S
C388 H392 0.950 . S
C388 C397 1.390 . S
C389 C388 1.387 . S
C389 C391 1.387 . S
H390 C397 0.950 . S
C391 C389 1.387 . S
C391 C393 1.390 . S
C391 H395 0.950 . S
H392 C388 0.950 . S
C393 C391 1.390 . S
C393 C394 1.387 . S
C393 H396 0.950 . S
C394 C393 1.387 . S
C394 C397 1.387 . S
H395 C391 0.950 . S
H396 C393 0.950 . S
C397 C388 1.390 . S
C397 H390 0.950 . S
C397 C394 1.387 . S
C398 C399 1.387 . S
C398 H402 0.950 . S
C398 C407 1.390 . S
C399 C398 1.387 . S
C399 C401 1.387 . S
H400 C407 0.950 . S
C401 C399 1.387 . S
C401 C403 1.390 . S
C401 H405 0.950 . S
H402 C398 0.950 . S
C403 C401 1.390 . S
C403 C404 1.387 . S
C403 H406 0.950 . S
C404 C403 1.387 . S
C404 C407 1.387 . S
H405 C401 0.950 . S
H406 C403 0.950 . S
C407 C398 1.390 . S
C407 H400 0.950 . S
C407 C404 1.387 . S
C169 C9 1.709 . S
C174 C149 1.709 . S
C179 C23 1.709 . S
C184 C163 1.709 . S
C189 C93 1.712 . S
C194 C37 1.712 . S
C199 C51 1.713 . S
C204 C107 1.713 . S
C209 C121 1.712 . S
C214 C65 1.712 . S
C219 C135 1.712 . S
C224 C79 1.711 . S
C229 C89 0.755 . S
C234 C5 0.755 . S
C239 C103 0.758 . S
C244 C19 0.757 . S
C249 C117 0.760 . S
C254 C33 0.760 . S
C259 C47 0.758 . S
C264 C131 0.759 . S
C269 C61 0.759 . S
C274 C145 0.758 . S
C279 C75 0.755 . S
C284 C159 0.755 . S
C289 C11 1.461 . S
C294 C53 1.461 . S
C299 C25 1.461 . S
C304 C67 1.461 . S
C309 C39 1.461 . S
C314 C81 1.461 . S
C319 C137 1.461 . S
C324 C95 1.461 . S
C329 C151 1.463 . S
C334 C109 1.463 . S
C339 C165 1.463 . S
C344 C123 1.463 . S
C349 C0 1.588 . S
C354 C112 1.586 . S
C359 C126 1.586 . S
C364 C14 1.586 . S
C369 C28 1.587 . S
C374 C140 1.586 . S
C379 C154 1.587 . S
C384 C42 1.586 . S
C389 C56 1.586 . S
C394 C84 1.586 . S
C399 C70 1.585 . S
C404 C98 1.588 . S
