# Generated by pormake.
# Topology neb, (4)-cn, num edge types: 1
# Building blocks:
#     Node 0, Type 0, BuildingBlock: ICAMEG_clean_sbu_1, # of connection points: 4
#     Node 1, Type 0, BuildingBlock: ICAMEG_clean_sbu_1, # of connection points: 4
#     Node 2, Type 0, BuildingBlock: ICAMEG_clean_sbu_1, # of connection points: 4
#     Node 3, Type 0, BuildingBlock: ICAMEG_clean_sbu_1, # of connection points: 4
#     Node 4, Type 0, BuildingBlock: ICAMEG_clean_sbu_1, # of connection points: 4
#     Node 5, Type 0, BuildingBlock: ICAMEG_clean_sbu_1, # of connection points: 4
#     Node 6, Type 0, BuildingBlock: ICAMEG_clean_sbu_1, # of connection points: 4
#     Node 7, Type 0, BuildingBlock: ICAMEG_clean_sbu_1, # of connection points: 4
#     Node 8, Type 0, BuildingBlock: ICAMEG_clean_sbu_1, # of connection points: 4
#     Node 9, Type 0, BuildingBlock: ICAMEG_clean_sbu_1, # of connection points: 4
#     Node 10, Type 0, BuildingBlock: ICAMEG_clean_sbu_1, # of connection points: 4
#     Node 11, Type 0, BuildingBlock: ICAMEG_clean_sbu_1, # of connection points: 4
#     Node 12, Type 0, BuildingBlock: ICAMEG_clean_sbu_1, # of connection points: 4
#     Node 13, Type 0, BuildingBlock: ICAMEG_clean_sbu_1, # of connection points: 4
#     Node 14, Type 0, BuildingBlock: ICAMEG_clean_sbu_1, # of connection points: 4
#     Node 15, Type 0, BuildingBlock: ICAMEG_clean_sbu_1, # of connection points: 4
#     Edge 16, Type (0, 0), BuildingBlock: XIVTED_clean_linker_0, # of connection points: 2
#     Edge 17, Type (0, 0), BuildingBlock: XIVTED_clean_linker_0, # of connection points: 2
#     Edge 18, Type (0, 0), BuildingBlock: XIVTED_clean_linker_0, # of connection points: 2
#     Edge 19, Type (0, 0), BuildingBlock: XIVTED_clean_linker_0, # of connection points: 2
#     Edge 20, Type (0, 0), BuildingBlock: XIVTED_clean_linker_0, # of connection points: 2
#     Edge 21, Type (0, 0), BuildingBlock: XIVTED_clean_linker_0, # of connection points: 2
#     Edge 22, Type (0, 0), BuildingBlock: XIVTED_clean_linker_0, # of connection points: 2
#     Edge 23, Type (0, 0), BuildingBlock: XIVTED_clean_linker_0, # of connection points: 2
#     Edge 24, Type (0, 0), BuildingBlock: XIVTED_clean_linker_0, # of connection points: 2
#     Edge 25, Type (0, 0), BuildingBlock: XIVTED_clean_linker_0, # of connection points: 2
#     Edge 26, Type (0, 0), BuildingBlock: XIVTED_clean_linker_0, # of connection points: 2
#     Edge 27, Type (0, 0), BuildingBlock: XIVTED_clean_linker_0, # of connection points: 2
#     Edge 28, Type (0, 0), BuildingBlock: XIVTED_clean_linker_0, # of connection points: 2
#     Edge 29, Type (0, 0), BuildingBlock: XIVTED_clean_linker_0, # of connection points: 2
#     Edge 30, Type (0, 0), BuildingBlock: XIVTED_clean_linker_0, # of connection points: 2
#     Edge 31, Type (0, 0), BuildingBlock: XIVTED_clean_linker_0, # of connection points: 2
#     Edge 32, Type (0, 0), BuildingBlock: XIVTED_clean_linker_0, # of connection points: 2
#     Edge 33, Type (0, 0), BuildingBlock: XIVTED_clean_linker_0, # of connection points: 2
#     Edge 34, Type (0, 0), BuildingBlock: XIVTED_clean_linker_0, # of connection points: 2
#     Edge 35, Type (0, 0), BuildingBlock: XIVTED_clean_linker_0, # of connection points: 2
#     Edge 36, Type (0, 0), BuildingBlock: XIVTED_clean_linker_0, # of connection points: 2
#     Edge 37, Type (0, 0), BuildingBlock: XIVTED_clean_linker_0, # of connection points: 2
#     Edge 38, Type (0, 0), BuildingBlock: XIVTED_clean_linker_0, # of connection points: 2
#     Edge 39, Type (0, 0), BuildingBlock: XIVTED_clean_linker_0, # of connection points: 2
#     Edge 40, Type (0, 0), BuildingBlock: XIVTED_clean_linker_0, # of connection points: 2
#     Edge 41, Type (0, 0), BuildingBlock: XIVTED_clean_linker_0, # of connection points: 2
#     Edge 42, Type (0, 0), BuildingBlock: XIVTED_clean_linker_0, # of connection points: 2
#     Edge 43, Type (0, 0), BuildingBlock: XIVTED_clean_linker_0, # of connection points: 2
#     Edge 44, Type (0, 0), BuildingBlock: XIVTED_clean_linker_0, # of connection points: 2
#     Edge 45, Type (0, 0), BuildingBlock: XIVTED_clean_linker_0, # of connection points: 2
#     Edge 46, Type (0, 0), BuildingBlock: XIVTED_clean_linker_0, # of connection points: 2
#     Edge 47, Type (0, 0), BuildingBlock: XIVTED_clean_linker_0, # of connection points: 2
# Relax obj value: 0.005
# Max RMSD: 0.056
# Mean RMSD: 0.056
data_MOF--net-neb--node1-ICAMEG_clean_sbu_1--edge1-XIVTED_clean_linker_0
_symmetry_space_group_name_H-M    P1
_symmetry_Int_Tables_number       1
_symmetry_cell_setting            triclinic
loop_
_symmetry_equiv_pos_as_xyz
'x, y, z'
_cell_length_a     41.431316
_cell_length_b     24.64569
_cell_length_c     83.835382
_cell_angle_alpha  90.006692
_cell_angle_beta   101.60431
_cell_angle_gamma 89.991168
loop_
_atom_site_label
_atom_site_type_symbol
_atom_site_fract_x
_atom_site_fract_y
_atom_site_fract_z
_atom_type_partial_charge
Co0 Co 0.15637 0.08591 0.42737 0.0
Co1 Co 0.09525 0.15825 0.44016 0.0
O2 O 0.11281 0.09021 0.43318 0.0
C3 C 0.1124 0.01007 0.40383 0.0
O4 O 0.08612 0.02313 0.40947 0.0
C5 C 0.08426 0.08133 0.46603 0.0
O6 O 0.11506 0.06548 0.46795 0.0
O7 O 0.13541 0.16794 0.45755 0.0
O8 O 0.17483 0.13924 0.44475 0.0
H9 H 0.10138 0.35392 0.45736 0.0
H10 H 0.12247 0.98622 0.43605 0.0
O11 O 0.14022 0.03188 0.40956 0.0
H12 H 0.23018 0.98959 0.47381 0.0
H13 H 0.25213 0.99105 0.41069 0.0
H14 H 0.20681 0.16734 0.42331 0.0
H15 H 0.21511 0.0615 0.45327 0.0
H16 H 0.19796 0.99609 0.41854 0.0
O17 O 0.07304 0.11751 0.45556 0.0
H18 H 0.12263 0.26831 0.44824 0.0
H19 H 0.03051 0.1917 0.4475 0.0
H20 H 0.26121 0.16406 0.41565 0.0
H21 H 0.13669 0.91327 0.45622 0.0
H22 H 0.28421 0.07543 0.40927 0.0
H23 H 0.1909 0.91458 0.47534 0.0
O24 O 0.14464 0.14621 0.41138 0.0
H25 H 0.99905 0.05442 0.40837 0.0
H26 H 0.05766 0.22956 0.41403 0.0
H27 H 0.00855 0.21787 0.39222 0.0
H28 H 0.97879 0.1298 0.38931 0.0
H29 H 0.04859 0.06766 0.42986 0.0
H30 H 0.00835 0.27637 0.45673 0.0
H31 H 0.04385 0.35833 0.46166 0.0
O32 O 0.1163 0.20134 0.42482 0.0
C33 C 0.16558 0.1638 0.45643 0.0
C34 C 0.08565 0.31852 0.45521 0.0
C35 C 0.03345 0.27498 0.45488 0.0
N36 N 0.07779 0.22512 0.44725 0.0
C37 C 0.09752 0.26995 0.45002 0.0
C38 C 0.04617 0.2271 0.4497 0.0
C39 C 0.05337 0.32096 0.45764 0.0
C40 C 0.14631 0.98679 0.44404 0.0
N41 N 0.16814 0.0277 0.44316 0.0
C42 C 0.15415 0.94547 0.45558 0.0
C43 C 0.18452 0.94629 0.46633 0.0
C44 C 0.20656 0.98836 0.46548 0.0
C45 C 0.19786 0.02901 0.4538 0.0
C46 C 0.24239 0.0299 0.41346 0.0
C47 C 0.21672 0.12857 0.42064 0.0
C48 C 0.21169 0.03304 0.41787 0.0
N49 N 0.1993 0.08194 0.42149 0.0
C50 C 0.24751 0.12699 0.41627 0.0
C51 C 0.26039 0.07726 0.41268 0.0
C52 C 0.13185 0.19215 0.41343 0.0
C53 C 0.01182 0.09297 0.4095 0.0
C54 C 0.04517 0.1909 0.41272 0.0
C55 C 0.01721 0.18463 0.40041 0.0
C56 C 1.00049 0.13525 0.39879 0.0
N57 N 0.05623 0.14917 0.42313 0.0
C58 C 0.03986 0.10075 0.42167 0.0
Co59 Co 0.09508 0.0801 0.81756 0.0
Co60 Co 0.1557 0.1566 0.8067 0.0
O61 O 0.13919 0.08707 0.81286 0.0
C62 C 0.13588 0.02023 0.84564 0.0
O63 O 0.15431 0.06344 0.84958 0.0
C64 C 0.17132 0.08195 0.78155 0.0
O65 O 0.14051 0.06575 0.7789 0.0
O66 O 0.11704 0.16348 0.78838 0.0
O67 O 0.07698 0.13688 0.80106 0.0
H68 H 0.14613 0.35209 0.78933 0.0
H69 H 0.13006 0.98277 0.80893 0.0
O70 O 0.11151 0.02153 0.83369 0.0
H71 H 0.02649 0.9913 0.76798 0.0
H72 H 0.99884 0.97628 0.83051 0.0
H73 H 0.04307 0.15765 0.82233 0.0
H74 H 0.03873 0.05973 0.78981 0.0
H75 H 0.05387 0.9862 0.82386 0.0
O76 O 0.18137 0.118 0.79227 0.0
H77 H 0.12591 0.26464 0.79771 0.0
H78 H 0.22105 0.19539 0.80157 0.0
H79 H 0.98782 0.14953 0.82883 0.0
H80 H 0.11863 0.91317 0.7874 0.0
H81 H 0.96535 0.05832 0.83297 0.0
H82 H 0.06656 0.91726 0.7667 0.0
O83 O 0.10545 0.1378 0.83467 0.0
H84 H 0.24941 0.05779 0.84228 0.0
H85 H 0.1882 0.23041 0.83338 0.0
H86 H 0.23461 0.22149 0.8568 0.0
H87 H 0.26562 0.13473 0.86135 0.0
H88 H 0.20265 0.06833 0.81908 0.0
H89 H 0.24225 0.28201 0.79311 0.0
H90 H 0.2047 0.36119 0.78698 0.0
O91 O 0.13084 0.19724 0.82104 0.0
C92 C 0.08671 0.16032 0.7893 0.0
C93 C 0.16276 0.31794 0.79202 0.0
C94 C 0.21669 0.27858 0.79412 0.0
N95 N 0.17233 0.22508 0.80026 0.0
C96 C 0.15147 0.26835 0.79682 0.0
C97 C 0.20453 0.22961 0.79887 0.0
C98 C 0.19561 0.323 0.79069 0.0
C99 C 0.1072 0.98456 0.80006 0.0
N100 N 0.08504 0.02519 0.80068 0.0
C101 C 0.10093 0.94514 0.78785 0.0
C102 C 0.07174 0.94751 0.77623 0.0
C103 C 0.04925 0.98906 0.77694 0.0
C104 C 0.05637 0.0278 0.7893 0.0
C105 C 0.00834 0.01624 0.82872 0.0
C106 C 0.03343 0.1178 0.82405 0.0
C107 C 0.03953 0.02213 0.82499 0.0
N108 N 0.05162 0.07246 0.82262 0.0
C109 C 1.00214 0.11347 0.82776 0.0
C110 C 0.98956 0.06229 0.83009 0.0
C111 C 0.11569 0.18558 0.83241 0.0
C112 C 0.23616 0.09586 0.8404 0.0
C113 C 0.20152 0.19247 0.8353 0.0
C114 C 0.22782 0.18771 0.84856 0.0
C115 C 0.24521 0.13902 0.8511 0.0
N116 N 0.19287 0.15001 0.82482 0.0
C117 C 0.20974 0.10212 0.82725 0.0
Co118 Co 0.85264 0.92611 0.56887 0.0
Co119 Co 0.91194 0.85072 0.55607 0.0
O120 O 0.89623 0.91981 0.56332 0.0
C121 C 0.897 1.00304 0.59202 0.0
O122 O 0.92329 0.98931 0.58647 0.0
C123 C 0.92665 0.92833 0.53138 0.0
O124 O 0.89605 0.94536 0.52929 0.0
O125 O 0.87252 0.84629 0.53812 0.0
O126 O 0.83356 0.87257 0.55152 0.0
H127 H 0.90009 0.65772 0.53639 0.0
H128 H 0.88783 0.02387 0.55975 0.0
O129 O 0.86922 0.98065 0.58652 0.0
H130 H 0.77984 0.02309 0.52223 0.0
H131 H 0.75771 0.02488 0.58512 0.0
H132 H 0.8012 0.8466 0.573 0.0
H133 H 0.79413 0.95159 0.54295 0.0
H134 H 0.81193 0.0177 0.5774 0.0
O135 O 0.93682 0.89092 0.54162 0.0
H136 H 0.88106 0.74411 0.54612 0.0
H137 H 0.97638 0.81227 0.54958 0.0
H138 H 0.74674 0.85204 0.58052 0.0
H139 H 0.87439 0.09641 0.5394 0.0
H140 H 0.72465 0.94167 0.58665 0.0
H141 H 0.82004 0.09642 0.52039 0.0
O142 O 0.86386 0.86611 0.58501 0.0
H143 H 0.00988 0.94248 0.59068 0.0
H144 H 0.94459 0.77393 0.58189 0.0
H145 H 0.9926 0.77908 0.60461 0.0
H146 H 0.02568 0.86378 0.6091 0.0
H147 H 0.96146 0.93578 0.5682 0.0
H148 H 0.99638 0.72671 0.53978 0.0
H149 H 0.95814 0.6486 0.53316 0.0
O150 O 0.88784 0.80813 0.57036 0.0
C151 C 0.84244 0.85001 0.5394 0.0
C152 C 0.91702 0.69139 0.53929 0.0
C153 C 0.97105 0.73014 0.54117 0.0
N154 N 0.92764 0.78305 0.54856 0.0
C155 C 0.90641 0.74038 0.54485 0.0
C156 C 0.95956 0.77852 0.54669 0.0
C157 C 0.94958 0.68633 0.53746 0.0
C158 C 0.86391 0.02393 0.55183 0.0
N159 N 0.84157 0.98399 0.5529 0.0
C160 C 0.85652 0.06499 0.54018 0.0
C161 C 0.82607 0.0649 0.52949 0.0
C162 C 0.80352 0.02378 0.53052 0.0
C163 C 0.81178 0.98336 0.5423 0.0
C164 C 0.76705 0.9856 0.58246 0.0
C165 C 0.79171 0.8858 0.57557 0.0
C166 C 0.79779 0.98124 0.57813 0.0
N167 N 0.80967 0.93178 0.57466 0.0
C168 C 0.76087 0.8886 0.57985 0.0
C169 C 0.74851 0.9389 0.5833 0.0
C170 C 0.87367 0.81864 0.58218 0.0
C171 C 0.99566 0.90535 0.58885 0.0
C172 C 0.95865 0.81113 0.58384 0.0
C173 C 0.98592 0.8137 0.59669 0.0
C174 C 0.00449 0.8612 0.59919 0.0
N175 N 0.95011 0.85466 0.57377 0.0
C176 C 0.96825 0.90129 0.57612 0.0
Co177 Co 0.90718 0.93353 0.17853 0.0
Co178 Co 0.84522 0.85385 0.188 0.0
O179 O 0.86268 0.92457 0.18294 0.0
C180 C 0.86399 0.01153 0.1553 0.0
O181 O 0.83693 0.99549 0.15973 0.0
C182 C 0.83224 0.92409 0.21489 0.0
O183 O 0.86299 0.94053 0.21727 0.0
O184 O 0.8845 0.84097 0.20572 0.0
O185 O 0.92502 0.87754 0.19513 0.0
H186 H 0.8519 0.65435 0.2006 0.0
H187 H 0.87007 0.02863 0.18776 0.0
O188 O 0.89178 0.99045 0.16152 0.0
H189 H 0.97429 0.02373 0.2282 0.0
H190 H 0.0037 0.03932 0.16663 0.0
H191 H 0.96024 0.85712 0.17445 0.0
H192 H 0.96292 0.95571 0.20626 0.0
H193 H 0.94825 0.02834 0.17269 0.0
O194 O 0.8216 0.8894 0.20385 0.0
H195 H 0.87309 0.74311 0.19379 0.0
H196 H 0.78002 0.81569 0.1936 0.0
H197 H 0.01594 0.86631 0.16856 0.0
H198 H 0.88062 0.09774 0.20933 0.0
H199 H 0.03802 0.95794 0.1646 0.0
H200 H 0.93304 0.09562 0.2298 0.0
O201 O 0.89829 0.87652 0.16136 0.0
H202 H 0.74957 0.96136 0.15721 0.0
H203 H 0.80994 0.7881 0.15994 0.0
H204 H 0.76182 0.80321 0.13778 0.0
H205 H 0.73119 0.89031 0.13634 0.0
H206 H 0.79815 0.94485 0.17903 0.0
H207 H 0.7579 0.72781 0.20051 0.0
H208 H 0.79391 0.64631 0.204 0.0
O209 O 0.86771 0.81636 0.17208 0.0
C210 C 0.91496 0.84818 0.20563 0.0
C211 C 0.83594 0.68954 0.19906 0.0
C212 C 0.78319 0.73078 0.19904 0.0
N213 N 0.82777 0.78446 0.19319 0.0
C214 C 0.84778 0.73987 0.19517 0.0
C215 C 0.79588 0.78047 0.19516 0.0
C216 C 0.80341 0.68506 0.20099 0.0
C217 C 0.89318 0.02783 0.19637 0.0
N218 N 0.91608 0.98864 0.19547 0.0
C219 C 0.89892 0.06692 0.20868 0.0
C220 C 0.92829 0.06562 0.22019 0.0
C221 C 0.95143 0.02531 0.2193 0.0
C222 C 0.94482 0.98685 0.20683 0.0
C223 C 0.99438 0.99918 0.16835 0.0
C224 C 0.96973 0.89715 0.17282 0.0
C225 C 0.96295 0.99269 0.17175 0.0
N226 N 0.95107 0.94212 0.17402 0.0
C227 C 1.00127 0.90209 0.16946 0.0
C228 C 0.01362 0.95351 0.16722 0.0
C229 C 0.88491 0.83007 0.16172 0.0
C230 C 0.76272 0.92325 0.1577 0.0
C231 C 0.797 0.82635 0.1593 0.0
C232 C 0.76963 0.83455 0.14677 0.0
C233 C 0.75244 0.8834 0.14598 0.0
N234 N 0.80702 0.86573 0.17071 0.0
C235 C 0.7902 0.91361 0.17005 0.0
Co236 Co 0.15734 0.58068 0.92734 0.0
Co237 Co 0.09727 0.6582 0.93828 0.0
O238 O 0.11351 0.58815 0.93233 0.0
C239 C 0.11653 0.51932 0.89952 0.0
O240 O 0.09835 0.56254 0.89515 0.0
C241 C 0.08193 0.58504 0.96388 0.0
O242 O 0.11274 0.56878 0.96658 0.0
O243 O 0.13629 0.66575 0.95642 0.0
O244 O 0.17574 0.63838 0.94344 0.0
H245 H 0.10739 0.8545 0.95479 0.0
H246 H 0.12284 0.48404 0.93677 0.0
O247 O 0.1406 0.52114 0.9116 0.0
H248 H 0.22735 0.49459 0.977 0.0
H249 H 0.25309 0.47582 0.91423 0.0
H250 H 0.20897 0.65777 0.9218 0.0
H251 H 0.21437 0.5618 0.95486 0.0
H252 H 0.19839 0.48629 0.92122 0.0
O253 O 0.07186 0.62058 0.95301 0.0
H254 H 0.1273 0.76645 0.94667 0.0
H255 H 0.0322 0.69783 0.94358 0.0
H256 H 0.26389 0.64911 0.91495 0.0
H257 H 0.13499 0.41564 0.95862 0.0
H258 H 0.2863 0.55761 0.91111 0.0
H259 H 0.18754 0.42074 0.97896 0.0
O260 O 0.14645 0.63738 0.90997 0.0
H261 H 1.00305 0.55827 0.90347 0.0
H262 H 0.06432 0.73094 0.91142 0.0
H263 H 0.01757 0.72117 0.88819 0.0
H264 H 0.98654 0.63437 0.88413 0.0
H265 H 0.05013 0.56964 0.92646 0.0
H266 H 0.01132 0.78506 0.95179 0.0
H267 H 0.04899 0.86422 0.9574 0.0
O268 O 0.12181 0.69787 0.92361 0.0
C269 C 0.16648 0.66249 0.95523 0.0
C270 C 0.0907 0.82036 0.95233 0.0
C271 C 0.03679 0.78136 0.95066 0.0
N272 N 0.08088 0.72716 0.94452 0.0
C273 C 0.10181 0.77042 0.94767 0.0
C274 C 0.04878 0.73204 0.94605 0.0
C275 C 0.05794 0.82577 0.9538 0.0
C276 C 0.14589 0.48628 0.94549 0.0
N277 N 0.16791 0.52678 0.94449 0.0
C278 C 0.15258 0.44753 0.95787 0.0
C279 C 0.18204 0.45047 0.96929 0.0
C280 C 0.20437 0.49192 0.96821 0.0
C281 C 0.19684 0.52996 0.95567 0.0
C282 C 0.24361 0.51591 0.91589 0.0
C283 C 0.21858 0.6178 0.92022 0.0
C284 C 0.2126 0.52211 0.9198 0.0
N285 N 0.20055 0.5726 0.922 0.0
C286 C 0.24968 0.61316 0.91631 0.0
C287 C 0.26223 0.56181 0.91415 0.0
C288 C 0.13648 0.68543 0.91212 0.0
C289 C 0.01631 0.59634 0.90514 0.0
C290 C 0.05098 0.693 0.90971 0.0
C291 C 0.02449 0.68774 0.89655 0.0
C292 C 0.00708 0.63904 0.89428 0.0
N293 N 0.0598 0.65099 0.92034 0.0
C294 C 0.04291 0.60308 0.91817 0.0
Co295 Co 0.10059 0.58589 0.31619 0.0
Co296 Co 0.16199 0.65907 0.30403 0.0
O297 O 0.14462 0.59078 0.31094 0.0
C298 C 0.14397 0.51071 0.3402 0.0
O299 O 0.1706 0.52413 0.33492 0.0
C300 C 0.17573 0.582 0.27873 0.0
O301 O 0.14497 0.56552 0.27622 0.0
O302 O 0.12258 0.66707 0.28612 0.0
O303 O 0.08258 0.6388 0.2986 0.0
H304 H 0.15464 0.85391 0.286 0.0
H305 H 0.13572 0.48681 0.30803 0.0
O306 O 0.11621 0.5322 0.33416 0.0
H307 H 0.02915 0.48786 0.26932 0.0
H308 H 0.0041 0.48991 0.33179 0.0
H309 H 0.04929 0.66667 0.31953 0.0
H310 H 0.04289 0.5602 0.28983 0.0
H311 H 0.05886 0.49558 0.32461 0.0
O312 O 0.18585 0.61848 0.28927 0.0
H313 H 0.13371 0.76806 0.29511 0.0
H314 H 0.22721 0.6941 0.29761 0.0
H315 H 0.9943 0.66274 0.32652 0.0
H316 H 0.12282 0.41343 0.2879 0.0
H317 H 0.97136 0.57388 0.33272 0.0
H318 H 0.0692 0.41357 0.26831 0.0
O319 O 0.11131 0.64648 0.33217 0.0
H320 H 0.25779 0.55887 0.33757 0.0
H321 H 0.19737 0.7323 0.33025 0.0
H322 H 0.24547 0.72266 0.35273 0.0
H323 H 0.27613 0.63545 0.35649 0.0
H324 H 0.20922 0.57007 0.31538 0.0
H325 H 0.24908 0.77904 0.28842 0.0
H326 H 0.21273 0.85979 0.2826 0.0
O327 O 0.13939 0.70209 0.31876 0.0
C328 C 0.09225 0.66281 0.28693 0.0
C329 C 0.17075 0.81904 0.28854 0.0
C330 C 0.22374 0.777 0.28987 0.0
N331 N 0.17925 0.72618 0.29699 0.0
C332 C 0.15905 0.77035 0.29373 0.0
C333 C 0.21118 0.72897 0.29504 0.0
C334 C 0.20333 0.8223 0.28662 0.0
C335 C 0.11212 0.48687 0.29982 0.0
N336 N 0.08987 0.52737 0.30042 0.0
C337 C 0.10504 0.44531 0.28832 0.0
C338 C 0.07499 0.44548 0.2773 0.0
C339 C 0.05253 0.48714 0.27786 0.0
C340 C 0.06047 0.52804 0.28952 0.0
C341 C 0.01381 0.52886 0.32909 0.0
C342 C 0.03941 0.6278 0.32212 0.0
C343 C 0.04484 0.53236 0.32506 0.0
N344 N 0.0572 0.5814 0.32154 0.0
C345 C 0.00829 0.62585 0.32611 0.0
C346 C 0.99544 0.57598 0.3296 0.0
C347 C 0.12366 0.69274 0.33007 0.0
C348 C 0.24461 0.59704 0.33608 0.0
C349 C 0.21025 0.69402 0.33192 0.0
C350 C 0.23764 0.6889 0.34461 0.0
C351 C 0.25487 0.64 0.3467 0.0
N352 N 0.20024 0.65162 0.32159 0.0
C353 C 0.21712 0.60367 0.32351 0.0
Co354 Co 0.84666 0.43253 0.06612 0.0
Co355 Co 0.9112 0.36418 0.05566 0.0
O356 O 0.89076 0.43154 0.06101 0.0
C357 C 0.88586 0.50018 0.0928 0.0
O358 O 0.90885 0.46272 0.09553 0.0
C359 C 0.92194 0.43723 0.02876 0.0
O360 O 0.89057 0.45031 0.02586 0.0
O361 O 0.87234 0.34861 0.0379 0.0
O362 O 0.83139 0.37303 0.05027 0.0
H363 H 0.91288 0.16582 0.04198 0.0
H364 H 0.87606 0.53405 0.05652 0.0
O365 O 0.86008 0.49325 0.08185 0.0
H366 H 0.77284 0.50951 0.01608 0.0
H367 H 0.74555 0.52282 0.07868 0.0
H368 H 0.79941 0.34814 0.07207 0.0
H369 H 0.78902 0.44391 0.03846 0.0
H370 H 0.80056 0.52047 0.07168 0.0
O371 O 0.93345 0.40405 0.0401 0.0
H372 H 0.88802 0.25099 0.04918 0.0
H373 H 0.97798 0.33466 0.05008 0.0
H374 H 0.74429 0.34864 0.07895 0.0
H375 H 0.86065 0.60096 0.03442 0.0
H376 H 0.71698 0.43645 0.0823 0.0
H377 H 0.80875 0.58881 0.01398 0.0
O378 O 0.86019 0.37748 0.0837 0.0
H379 H 0.99944 0.48287 0.08785 0.0
H380 H 0.9506 0.29976 0.08302 0.0
H381 H 0.99741 0.31961 0.10547 0.0
H382 H 0.02223 0.41174 0.10797 0.0
H383 H 0.95232 0.46136 0.06569 0.0
H384 H 0.00373 0.2505 0.04275 0.0
H385 H 0.97116 0.16523 0.03872 0.0
O386 O 0.89039 0.32216 0.0713 0.0
C387 C 0.84198 0.34889 0.03889 0.0
C388 C 0.92736 0.20269 0.04375 0.0
C389 C 0.97833 0.25023 0.04416 0.0
N390 N 0.93156 0.2977 0.05014 0.0
C391 C 0.91343 0.25102 0.04786 0.0
C392 C 0.96358 0.29781 0.04826 0.0
C393 C 0.96004 0.20239 0.0419 0.0
C394 C 0.8533 0.52873 0.04775 0.0
N395 N 0.83342 0.48521 0.04882 0.0
C396 C 0.84476 0.56665 0.03523 0.0
C397 C 0.81566 0.55977 0.02375 0.0
C398 C 0.79551 0.51526 0.02492 0.0
C399 C 0.80486 0.47815 0.03759 0.0
C400 C 0.75719 0.4843 0.07724 0.0
C401 C 0.78766 0.38653 0.07345 0.0
C402 C 0.78838 0.48271 0.07333 0.0
N403 N 0.80316 0.43421 0.0714 0.0
C404 C 0.75646 0.38655 0.07737 0.0
C405 C 0.74116 0.43583 0.07926 0.0
C406 C 0.87437 0.33208 0.08247 0.0
C407 C 0.98887 0.44255 0.08688 0.0
C408 C 0.96106 0.34001 0.08409 0.0
C409 C 0.98768 0.35097 0.0968 0.0
C410 C 1.00161 0.40265 0.09818 0.0
N411 N 0.9487 0.37934 0.07306 0.0
C412 C 0.96226 0.43009 0.07433 0.0
Co413 Co 0.90653 0.42904 0.6789 0.0
Co414 Co 0.84313 0.35891 0.68987 0.0
O415 O 0.86245 0.42626 0.6839 0.0
C416 C 0.86768 0.48809 0.65021 0.0
O417 O 0.84925 0.44491 0.64623 0.0
C418 C 0.8316 0.43367 0.71618 0.0
O419 O 0.86285 0.44744 0.71894 0.0
O420 O 0.88223 0.34617 0.70771 0.0
O421 O 0.92315 0.37223 0.69549 0.0
H422 H 0.84445 0.16185 0.70535 0.0
H423 H 0.87432 0.52973 0.68726 0.0
O424 O 0.89128 0.4874 0.66253 0.0
H425 H 0.97796 0.51587 0.72799 0.0
H426 H 0.00493 0.52434 0.66513 0.0
H427 H 0.95636 0.34719 0.67426 0.0
H428 H 0.96361 0.44691 0.70643 0.0
H429 H 0.94991 0.51915 0.67205 0.0
O430 O 0.82032 0.39953 0.70507 0.0
H431 H 0.86803 0.24711 0.69737 0.0
H432 H 0.77685 0.32785 0.69577 0.0
H433 H 0.01154 0.35057 0.66747 0.0
H434 H 0.88786 0.59988 0.70853 0.0
H435 H 0.03619 0.43963 0.66286 0.0
H436 H 0.93998 0.59313 0.72912 0.0
O437 O 0.89479 0.37084 0.66202 0.0
H438 H 0.75372 0.47221 0.65633 0.0
H439 H 0.80462 0.29069 0.66319 0.0
H440 H 0.75775 0.30714 0.64047 0.0
H441 H 0.73191 0.39846 0.63695 0.0
H442 H 0.80086 0.45404 0.67881 0.0
H443 H 0.75237 0.24357 0.70387 0.0
H444 H 0.78621 0.15972 0.70865 0.0
O445 O 0.86457 0.31629 0.67465 0.0
C446 C 0.91268 0.34805 0.70691 0.0
C447 C 0.82943 0.19808 0.70326 0.0
C448 C 0.77776 0.24397 0.70245 0.0
N449 N 0.8238 0.29234 0.69602 0.0
C450 C 0.84262 0.24646 0.69871 0.0
C451 C 0.79179 0.29161 0.69792 0.0
C452 C 0.79676 0.19693 0.70513 0.0
C453 C 0.89718 0.52674 0.69609 0.0
N454 N 0.91821 0.48436 0.69555 0.0
C455 C 0.90466 0.56649 0.70814 0.0
C456 C 0.93388 0.56264 0.7197 0.0
C457 C 0.95519 0.51928 0.71909 0.0
C458 C 0.94689 0.48026 0.70687 0.0
C459 C 0.99447 0.48529 0.66713 0.0
C460 C 0.96697 0.38613 0.67234 0.0
C461 C 0.96328 0.48208 0.67101 0.0
N462 N 0.95 0.43292 0.67365 0.0
C463 C 0.9982 0.38777 0.66847 0.0
C464 C 0.012 0.43775 0.66587 0.0
C465 C 0.88099 0.32529 0.66358 0.0
C466 C 0.76473 0.43222 0.65775 0.0
C467 C 0.79365 0.33057 0.66169 0.0
C468 C 0.76703 0.33962 0.64883 0.0
C469 C 0.75253 0.39085 0.64687 0.0
N470 N 0.80546 0.37132 0.67233 0.0
C471 C 0.79137 0.42165 0.67048 0.0
Co472 Co 0.66172 0.07599 0.92776 0.0
Co473 Co 0.60192 0.15293 0.93919 0.0
O474 O 0.61796 0.08326 0.93287 0.0
C475 C 0.62007 0.01643 0.89987 0.0
O476 O 0.60183 0.05989 0.89599 0.0
C477 C 0.58683 0.07849 0.96457 0.0
O478 O 0.61755 0.06183 0.96704 0.0
O479 O 0.64108 0.1594 0.95725 0.0
O480 O 0.6805 0.13275 0.94415 0.0
H481 H 0.61271 0.34832 0.95663 0.0
H482 H 0.627 0.97896 0.93677 0.0
O483 O 0.64461 0.01745 0.91173 0.0
H484 H 0.73172 0.98706 0.97692 0.0
H485 H 0.75687 0.97147 0.91389 0.0
H486 H 0.7135 0.15317 0.92248 0.0
H487 H 0.71885 0.05543 0.9551 0.0
H488 H 0.70233 0.98179 0.92108 0.0
O489 O 0.57671 0.11458 0.95387 0.0
H490 H 0.63228 0.26067 0.94802 0.0
H491 H 0.5371 0.19235 0.94489 0.0
H492 H 0.76826 0.14465 0.91544 0.0
H493 H 0.63904 0.90942 0.9583 0.0
H494 H 0.79029 0.05328 0.91109 0.0
H495 H 0.69168 0.91329 0.97859 0.0
O496 O 0.65085 0.13364 0.91068 0.0
H497 H 0.50702 0.05495 0.90426 0.0
H498 H 0.5688 0.22706 0.91274 0.0
H499 H 0.5217 0.21857 0.88964 0.0
H500 H 0.4904 0.13206 0.88531 0.0
H501 H 0.55446 0.06506 0.92713 0.0
H502 H 0.51655 0.27916 0.95359 0.0
H503 H 0.55444 0.35798 0.95947 0.0
O504 O 0.62629 0.19338 0.92459 0.0
C505 C 0.67127 0.15609 0.95607 0.0
C506 C 0.59592 0.31433 0.95405 0.0
C507 C 0.54197 0.27549 0.95237 0.0
N508 N 0.5858 0.22156 0.94582 0.0
C509 C 0.60684 0.26463 0.94912 0.0
C510 C 0.55377 0.2264 0.94748 0.0
C511 C 0.56324 0.3197 0.95566 0.0
C512 C 0.6501 0.98065 0.94547 0.0
N513 N 0.67224 0.02111 0.94463 0.0
C514 C 0.65672 0.94127 0.95767 0.0
C515 C 0.68624 0.94351 0.96907 0.0
C516 C 0.7087 0.98491 0.96814 0.0
C517 C 0.70123 0.02361 0.95578 0.0
C518 C 0.74755 0.0115 0.91577 0.0
C519 C 0.72296 0.11325 0.92068 0.0
C520 C 0.71664 0.01762 0.9198 0.0
N521 N 0.7048 0.06804 0.92229 0.0
C522 C 0.75397 0.10869 0.91666 0.0
C523 C 0.7663 0.05742 0.91421 0.0
C524 C 0.64083 0.18151 0.913 0.0
C525 C 0.5204 0.0929 0.90605 0.0
C526 C 0.55536 0.18923 0.91091 0.0
C527 C 0.52867 0.18471 0.89783 0.0
C528 C 0.51111 0.13616 0.89541 0.0
N529 N 0.56423 0.14668 0.92133 0.0
C530 C 0.5472 0.09892 0.91901 0.0
Co531 Co 0.60217 0.08981 0.31773 0.0
Co532 Co 0.66316 0.16231 0.30499 0.0
O533 O 0.64592 0.09433 0.31217 0.0
C534 C 0.64603 0.01501 0.34166 0.0
O535 O 0.67244 0.02797 0.33613 0.0
C536 C 0.6758 0.0838 0.27982 0.0
O537 O 0.64509 0.06735 0.27774 0.0
O538 O 0.62332 0.17027 0.2873 0.0
O539 O 0.58376 0.14238 0.30013 0.0
H540 H 0.65585 0.35687 0.2867 0.0
H541 H 0.63678 0.99017 0.30955 0.0
O542 O 0.61821 0.03653 0.33574 0.0
H543 H 0.52953 0.9912 0.27139 0.0
H544 H 0.50632 0.99468 0.33424 0.0
H545 H 0.55118 0.17093 0.32128 0.0
H546 H 0.54392 0.06397 0.2917 0.0
H547 H 0.56072 0.99992 0.32664 0.0
O548 O 0.68632 0.12105 0.29005 0.0
H549 H 0.63501 0.27141 0.29613 0.0
H550 H 0.72801 0.19647 0.29792 0.0
H551 H 0.49656 0.16743 0.32869 0.0
H552 H 0.62323 0.91636 0.28961 0.0
H553 H 0.47378 0.07882 0.33523 0.0
H554 H 0.56926 0.91649 0.27029 0.0
O555 O 0.61336 0.15069 0.33355 0.0
H556 H 0.75949 0.06195 0.33803 0.0
H557 H 0.69949 0.23579 0.33086 0.0
H558 H 0.74816 0.22621 0.35304 0.0
H559 H 0.77861 0.1388 0.35671 0.0
H560 H 0.71038 0.07309 0.31615 0.0
H561 H 0.74977 0.281 0.2884 0.0
H562 H 0.71362 0.36205 0.28279 0.0
O563 O 0.64122 0.2059 0.3199 0.0
C564 C 0.5931 0.16612 0.28833 0.0
C565 C 0.67186 0.32188 0.28915 0.0
C566 C 0.72456 0.27927 0.29008 0.0
N567 N 0.68032 0.22908 0.29767 0.0
C568 C 0.66023 0.2734 0.29452 0.0
C569 C 0.71207 0.23147 0.29543 0.0
C570 C 0.70427 0.32474 0.28694 0.0
C571 C 0.61303 0.99023 0.30146 0.0
N572 N 0.59096 0.03097 0.30211 0.0
C573 C 0.60558 0.94842 0.29006 0.0
C574 C 0.57534 0.94859 0.2792 0.0
C575 C 0.55305 0.99048 0.27981 0.0
C576 C 0.56137 0.03163 0.29136 0.0
C577 C 0.51596 0.03352 0.33139 0.0
C578 C 0.54137 0.13217 0.32402 0.0
C579 C 0.54679 0.03677 0.32711 0.0
N580 N 0.55905 0.08566 0.32341 0.0
C581 C 0.51046 0.13046 0.32825 0.0
C582 C 0.49771 0.08074 0.33193 0.0
C583 C 0.62574 0.19681 0.33133 0.0
C584 C 0.74641 0.10022 0.33657 0.0
C585 C 0.71229 0.19742 0.3325 0.0
C586 C 0.74 0.19234 0.34502 0.0
C587 C 0.7571 0.14333 0.34706 0.0
N588 N 0.70185 0.15488 0.3223 0.0
C589 C 0.71861 0.10681 0.32418 0.0
Co590 Co 0.35288 0.9247 0.06666 0.0
Co591 Co 0.41163 0.84979 0.05329 0.0
O592 O 0.39619 0.91868 0.06079 0.0
C593 C 0.39771 1.00148 0.08962 0.0
O594 O 0.42365 0.98867 0.08367 0.0
C595 C 0.4262 0.92807 0.02865 0.0
O596 O 0.39567 0.94541 0.0266 0.0
O597 O 0.37193 0.84596 0.03549 0.0
O598 O 0.33341 0.87155 0.04927 0.0
H599 H 0.39915 0.65734 0.03315 0.0
H600 H 0.38768 0.02272 0.05734 0.0
O601 O 0.36993 0.97877 0.08436 0.0
H602 H 0.27871 0.02256 0.02068 0.0
H603 H 0.25875 0.02265 0.08393 0.0
H604 H 0.30167 0.84492 0.07092 0.0
H605 H 0.2937 0.95064 0.04121 0.0
H606 H 0.31257 0.01588 0.07578 0.0
O607 O 0.43626 0.89037 0.03881 0.0
H608 H 0.38047 0.7435 0.0432 0.0
H609 H 0.47576 0.81145 0.0464 0.0
H610 H 0.24759 0.84995 0.07885 0.0
H611 H 0.37355 0.09566 0.03719 0.0
H612 H 0.22579 0.93931 0.08544 0.0
H613 H 0.3187 0.09601 0.01861 0.0
O614 O 0.36453 0.86437 0.08265 0.0
H615 H 0.5101 0.94057 0.08777 0.0
H616 H 0.44466 0.77222 0.07879 0.0
H617 H 0.49298 0.77673 0.10136 0.0
H618 H 0.52614 0.86133 0.10595 0.0
H619 H 0.46137 0.9345 0.06545 0.0
H620 H 0.49542 0.72613 0.03628 0.0
H621 H 0.45702 0.64824 0.02964 0.0
O622 O 0.38783 0.80675 0.06762 0.0
C623 C 0.34196 0.84951 0.03698 0.0
C624 C 0.41615 0.69092 0.03606 0.0
C625 C 0.47017 0.72956 0.03779 0.0
N626 N 0.42706 0.78232 0.04552 0.0
C627 C 0.40573 0.73978 0.0418 0.0
C628 C 0.45887 0.7778 0.04349 0.0
C629 C 0.44861 0.68586 0.03407 0.0
C630 C 0.36356 0.02291 0.04962 0.0
N631 N 0.34133 0.98292 0.05084 0.0
C632 C 0.35577 0.06421 0.03808 0.0
C633 C 0.32504 0.0643 0.02763 0.0
C634 C 0.30261 0.02312 0.02879 0.0
C635 C 0.31127 0.98247 0.04046 0.0
C636 C 0.26796 0.98349 0.08107 0.0
C637 C 0.2923 0.884 0.07368 0.0
C638 C 0.29848 0.97937 0.0765 0.0
N639 N 0.3102 0.93006 0.07278 0.0
C640 C 0.26168 0.88657 0.0782 0.0
C641 C 0.24948 0.93672 0.08191 0.0
C642 C 0.37413 0.81695 0.07963 0.0
C643 C 0.49585 0.90349 0.0859 0.0
C644 C 0.45875 0.80937 0.08079 0.0
C645 C 0.4862 0.81158 0.09355 0.0
C646 C 0.50481 0.85903 0.0961 0.0
N647 N 0.45007 0.8532 0.07085 0.0
C648 C 0.46826 0.89978 0.07326 0.0
Co649 Co 0.40423 0.92403 0.67927 0.0
Co650 Co 0.34301 0.85158 0.69189 0.0
O651 O 0.36054 0.91962 0.68492 0.0
C652 C 0.36027 0.99914 0.65555 0.0
O653 O 0.33389 0.98502 0.66093 0.0
C654 C 0.33131 0.92893 0.71753 0.0
O655 O 0.3621 0.94494 0.71956 0.0
O656 O 0.38293 0.84238 0.70943 0.0
O657 O 0.42254 0.87078 0.69671 0.0
H658 H 0.34942 0.65619 0.70936 0.0
H659 H 0.37004 0.02371 0.68769 0.0
O660 O 0.38823 0.97803 0.66143 0.0
H661 H 0.47728 0.02085 0.72586 0.0
H662 H 0.50025 0.01913 0.66292 0.0
H663 H 0.45491 0.84274 0.67541 0.0
H664 H 0.46261 0.94869 0.70536 0.0
H665 H 0.4459 0.01396 0.67057 0.0
O666 O 0.32038 0.89244 0.70711 0.0
H667 H 0.37061 0.7418 0.70022 0.0
H668 H 0.27813 0.81785 0.699 0.0
H669 H 0.50948 0.84615 0.66795 0.0
H670 H 0.38388 0.09691 0.70783 0.0
H671 H 0.5325 0.93483 0.66164 0.0
H672 H 0.43785 0.09585 0.72715 0.0
O673 O 0.39278 0.86363 0.66329 0.0
H674 H 0.24674 0.95419 0.65965 0.0
H675 H 0.30613 0.77974 0.66572 0.0
H676 H 0.25727 0.79076 0.64373 0.0
H677 H 0.22712 0.87847 0.6406 0.0
H678 H 0.29606 0.94164 0.68132 0.0
H679 H 0.25603 0.73318 0.70825 0.0
H680 H 0.29174 0.6515 0.71343 0.0
O681 O 0.36451 0.80843 0.67673 0.0
C682 C 0.41315 0.84641 0.70838 0.0
C683 C 0.3336 0.69146 0.7071 0.0
C684 C 0.2812 0.73469 0.7065 0.0
N685 N 0.32558 0.7847 0.69898 0.0
C686 C 0.34543 0.74003 0.70189 0.0
C687 C 0.29388 0.78258 0.7013 0.0
C688 C 0.30124 0.68887 0.7094 0.0
C689 C 0.39378 0.02324 0.69579 0.0
N690 N 0.4157 0.98234 0.69504 0.0
C691 C 0.4014 0.06471 0.70729 0.0
C692 C 0.43164 0.06402 0.71816 0.0
C693 C 0.45376 0.02196 0.71744 0.0
C694 C 0.44528 0.98117 0.70579 0.0
C695 C 0.49051 0.98025 0.66567 0.0
C696 C 0.46482 0.88153 0.67277 0.0
C697 C 0.4597 0.97704 0.66997 0.0
N698 N 0.4473 0.92811 0.67354 0.0
C699 C 0.49571 0.88319 0.66851 0.0
C700 C 0.50859 0.93295 0.66496 0.0
C701 C 0.38014 0.81759 0.66537 0.0
C702 C 0.25969 0.91579 0.66086 0.0
C703 C 0.29347 0.81825 0.66431 0.0
C704 C 0.26565 0.82414 0.6519 0.0
C705 C 0.24871 0.87332 0.65017 0.0
N706 N 0.30419 0.86018 0.67471 0.0
C707 C 0.28759 0.9084 0.67314 0.0
Co708 Co 0.65624 0.59036 0.4287 0.0
Co709 Co 0.5944 0.66282 0.44079 0.0
O710 O 0.61223 0.59473 0.43399 0.0
C711 C 0.61313 0.51483 0.4047 0.0
O712 O 0.58646 0.52822 0.40995 0.0
C713 C 0.58206 0.58572 0.46628 0.0
O714 O 0.61291 0.56993 0.46848 0.0
O715 O 0.6339 0.67218 0.45859 0.0
O716 O 0.674 0.64366 0.44621 0.0
H717 H 0.60018 0.85826 0.45822 0.0
H718 H 0.62176 0.49065 0.43686 0.0
O719 O 0.64086 0.53636 0.41078 0.0
H720 H 0.72808 0.49383 0.47574 0.0
H721 H 0.7532 0.49538 0.41321 0.0
H722 H 0.70712 0.67174 0.42522 0.0
H723 H 0.71398 0.56585 0.45516 0.0
H724 H 0.69841 0.50048 0.42039 0.0
O725 O 0.57123 0.62204 0.4558 0.0
H726 H 0.62176 0.77265 0.44928 0.0
H727 H 0.52907 0.69653 0.44737 0.0
H728 H 0.76211 0.66839 0.41822 0.0
H729 H 0.63503 0.41758 0.45707 0.0
H730 H 0.7855 0.57973 0.41215 0.0
H731 H 0.68853 0.41879 0.47675 0.0
O732 O 0.64523 0.65071 0.41267 0.0
H733 H 0.49906 0.55988 0.40788 0.0
H734 H 0.55815 0.73457 0.41442 0.0
H735 H 0.50987 0.7234 0.39211 0.0
H736 H 0.47988 0.63556 0.38875 0.0
H737 H 0.5478 0.5726 0.42988 0.0
H738 H 0.50657 0.78121 0.45639 0.0
H739 H 0.54218 0.86292 0.46183 0.0
O740 O 0.61641 0.70588 0.42585 0.0
C741 C 0.66423 0.66816 0.45776 0.0
C742 C 0.58439 0.82297 0.45585 0.0
C743 C 0.53187 0.77971 0.45485 0.0
N744 N 0.57666 0.72971 0.44771 0.0
C745 C 0.59645 0.7744 0.45075 0.0
C746 C 0.54478 0.73182 0.44977 0.0
C747 C 0.55186 0.82554 0.45789 0.0
C748 C 0.64531 0.49117 0.44511 0.0
N749 N 0.66728 0.53209 0.44452 0.0
C750 C 0.6526 0.44979 0.45666 0.0
C751 C 0.68258 0.45056 0.46773 0.0
C752 C 0.70477 0.49264 0.46717 0.0
C753 C 0.69661 0.53335 0.45547 0.0
C754 C 0.74329 0.53425 0.41585 0.0
C755 C 0.71719 0.63296 0.42268 0.0
C756 C 0.71224 0.53742 0.41989 0.0
N757 N 0.69965 0.58635 0.42333 0.0
C758 C 0.74832 0.63134 0.41869 0.0
C759 C 0.76141 0.58159 0.41527 0.0
C760 C 0.63244 0.69672 0.41464 0.0
C761 C 0.51194 0.59833 0.4092 0.0
C762 C 0.54555 0.69602 0.41292 0.0
C763 C 0.51807 0.69004 0.40032 0.0
C764 C 0.50122 0.64078 0.39846 0.0
N765 N 0.55603 0.65412 0.42337 0.0
C766 C 0.53952 0.60582 0.42166 0.0
Co767 Co 0.59717 0.57619 0.81832 0.0
Co768 Co 0.65689 0.6539 0.8071 0.0
O769 O 0.64093 0.58393 0.81326 0.0
C770 C 0.63857 0.51652 0.84629 0.0
O771 O 0.65653 0.56016 0.85035 0.0
C772 C 0.67214 0.58036 0.78156 0.0
O773 O 0.64139 0.56384 0.77897 0.0
O774 O 0.61773 0.66082 0.78902 0.0
O775 O 0.57839 0.63314 0.80203 0.0
H776 H 0.64603 0.84973 0.79013 0.0
H777 H 0.63215 0.47961 0.80919 0.0
O778 O 0.61432 0.51742 0.83428 0.0
H779 H 0.52749 0.48767 0.769 0.0
H780 H 0.50209 0.47079 0.83191 0.0
H781 H 0.54519 0.65292 0.82365 0.0
H782 H 0.54016 0.55573 0.79092 0.0
H783 H 0.55668 0.48159 0.82482 0.0
O784 O 0.68223 0.61609 0.79237 0.0
H785 H 0.62648 0.76178 0.79852 0.0
H786 H 0.72173 0.69375 0.80156 0.0
H787 H 0.49036 0.64392 0.83059 0.0
H788 H 0.62032 0.41037 0.78757 0.0
H789 H 0.46847 0.55233 0.83477 0.0
H790 H 0.5677 0.41423 0.76725 0.0
O791 O 0.60783 0.63358 0.8355 0.0
H792 H 0.75169 0.55532 0.84192 0.0
H793 H 0.68984 0.72743 0.83375 0.0
H794 H 0.7368 0.71847 0.8569 0.0
H795 H 0.76813 0.63195 0.86108 0.0
H796 H 0.70439 0.5659 0.819 0.0
H797 H 0.74225 0.78088 0.79309 0.0
H798 H 0.70432 0.85971 0.78737 0.0
O799 O 0.6324 0.6938 0.82175 0.0
C800 C 0.58756 0.6572 0.79021 0.0
C801 C 0.66283 0.81574 0.79264 0.0
C802 C 0.71682 0.77708 0.79428 0.0
N803 N 0.67299 0.7228 0.80066 0.0
C804 C 0.65192 0.76587 0.79744 0.0
C805 C 0.70504 0.72781 0.79904 0.0
C806 C 0.69553 0.82129 0.79108 0.0
C807 C 0.60907 0.4813 0.80049 0.0
N808 N 0.58683 0.52158 0.80137 0.0
C809 C 0.60256 0.44209 0.78823 0.0
C810 C 0.57306 0.44432 0.77682 0.0
C811 C 0.5505 0.48554 0.77779 0.0
C812 C 0.55786 0.52407 0.7902 0.0
C813 C 0.51135 0.51091 0.8301 0.0
C814 C 0.53579 0.61291 0.82538 0.0
C815 C 0.54229 0.5173 0.82613 0.0
N816 N 0.55406 0.56784 0.82374 0.0
C817 C 0.50475 0.60807 0.82934 0.0
C818 C 0.49249 0.55668 0.8317 0.0
C819 C 0.61775 0.68158 0.83327 0.0
C820 C 0.7383 0.59328 0.8402 0.0
C821 C 0.7033 0.68961 0.83551 0.0
C822 C 0.72991 0.68481 0.84862 0.0
C823 C 0.74748 0.63627 0.85096 0.0
N824 N 0.69452 0.64732 0.82498 0.0
C825 C 0.71157 0.59956 0.82721 0.0
Co826 Co 0.35006 0.42308 0.5687 0.0
Co827 Co 0.4112 0.3516 0.55572 0.0
O828 O 0.39374 0.41925 0.56301 0.0
C829 C 0.39369 0.49843 0.59256 0.0
O830 O 0.42009 0.48581 0.58698 0.0
C831 C 0.42318 0.43007 0.53045 0.0
O832 O 0.39238 0.44603 0.5284 0.0
O833 O 0.37128 0.34335 0.5381 0.0
O834 O 0.33178 0.37047 0.55108 0.0
H835 H 0.40449 0.15721 0.53725 0.0
H836 H 0.38412 0.5232 0.56044 0.0
O837 O 0.36597 0.47644 0.58672 0.0
H838 H 0.27655 0.52125 0.52255 0.0
H839 H 0.25395 0.51663 0.58547 0.0
H840 H 0.29954 0.34119 0.57229 0.0
H841 H 0.29146 0.44848 0.54282 0.0
H842 H 0.30828 0.51226 0.57777 0.0
O843 O 0.43403 0.39324 0.54076 0.0
H844 H 0.38343 0.24228 0.54681 0.0
H845 H 0.47608 0.31826 0.5485 0.0
H846 H 0.24498 0.34382 0.57978 0.0
H847 H 0.37005 0.59701 0.54055 0.0
H848 H 0.22184 0.43202 0.58644 0.0
H849 H 0.31591 0.59642 0.52137 0.0
O850 O 0.36168 0.36208 0.58446 0.0
H851 H 0.50726 0.45274 0.58868 0.0
H852 H 0.44805 0.27821 0.58147 0.0
H853 H 0.49683 0.2881 0.60357 0.0
H854 H 0.52688 0.37587 0.60727 0.0
H855 H 0.45805 0.44126 0.56687 0.0
H856 H 0.49806 0.23412 0.53884 0.0
H857 H 0.4622 0.15276 0.53321 0.0
O858 O 0.38959 0.30761 0.57062 0.0
C859 C 0.34108 0.34702 0.53922 0.0
C860 C 0.42038 0.19235 0.5397 0.0
C861 C 0.47288 0.23554 0.54058 0.0
N862 N 0.42854 0.28512 0.54831 0.0
C863 C 0.40861 0.24061 0.54515 0.0
C864 C 0.46027 0.28312 0.54601 0.0
C865 C 0.45275 0.18989 0.53742 0.0
C866 C 0.3603 0.52294 0.55242 0.0
N867 N 0.33843 0.48194 0.55313 0.0
C868 C 0.35255 0.56475 0.54105 0.0
C869 C 0.32222 0.56433 0.53026 0.0
C870 C 0.30014 0.52217 0.53092 0.0
C871 C 0.30875 0.48103 0.54244 0.0
C872 C 0.26375 0.47796 0.58257 0.0
C873 C 0.28957 0.37978 0.57508 0.0
C874 C 0.29455 0.4752 0.57824 0.0
N875 N 0.30701 0.42653 0.57448 0.0
C876 C 0.25869 0.38099 0.57936 0.0
C877 C 0.24574 0.43048 0.58311 0.0
C878 C 0.3742 0.31617 0.58211 0.0
C879 C 0.49435 0.41432 0.58721 0.0
C880 C 0.46068 0.31672 0.58312 0.0
C881 C 0.48844 0.32199 0.5956 0.0
C882 C 0.50533 0.3712 0.59765 0.0
N883 N 0.44996 0.35927 0.57297 0.0
C884 C 0.4665 0.40754 0.57487 0.0
Co885 Co 0.40988 0.42873 0.17673 0.0
Co886 Co 0.34842 0.35507 0.18816 0.0
O887 O 0.36604 0.42357 0.18191 0.0
C888 C 0.37015 0.48627 0.14789 0.0
O889 O 0.3528 0.44208 0.14371 0.0
C890 C 0.33491 0.42967 0.21409 0.0
O891 O 0.3658 0.44549 0.21683 0.0
O892 O 0.38791 0.34526 0.20601 0.0
O893 O 0.42783 0.37251 0.1933 0.0
H894 H 0.35471 0.15857 0.20447 0.0
H895 H 0.37609 0.52757 0.18523 0.0
O896 O 0.39337 0.48664 0.16039 0.0
H897 H 0.48052 0.51836 0.22555 0.0
H898 H 0.50616 0.52908 0.1625 0.0
H899 H 0.46092 0.34946 0.17184 0.0
H900 H 0.46706 0.44908 0.20403 0.0
H901 H 0.45147 0.52107 0.16967 0.0
O902 O 0.32459 0.39441 0.20318 0.0
H903 H 0.37611 0.24513 0.19611 0.0
H904 H 0.283 0.31976 0.19423 0.0
H905 H 0.51579 0.35566 0.16481 0.0
H906 H 0.38872 0.59803 0.20645 0.0
H907 H 0.53877 0.44598 0.16009 0.0
H908 H 0.44123 0.59361 0.22684 0.0
O909 O 0.39882 0.37025 0.1599 0.0
H910 H 0.25618 0.46167 0.1542 0.0
H911 H 0.3116 0.28382 0.16179 0.0
H912 H 0.26429 0.29668 0.13904 0.0
H913 H 0.23617 0.38613 0.13515 0.0
H914 H 0.3038 0.44712 0.17671 0.0
H915 H 0.26067 0.23411 0.2027 0.0
H916 H 0.29659 0.15267 0.20782 0.0
O917 O 0.37085 0.31361 0.17308 0.0
C918 C 0.4182 0.34835 0.20496 0.0
C919 C 0.33879 0.19374 0.20224 0.0
C920 C 0.28603 0.23616 0.20127 0.0
N921 N 0.33079 0.28739 0.19459 0.0
C922 C 0.35075 0.24285 0.19747 0.0
C923 C 0.29884 0.28459 0.19652 0.0
C924 C 0.30619 0.19047 0.20413 0.0
C925 C 0.39912 0.52561 0.19397 0.0
N926 N 0.42086 0.48434 0.19334 0.0
C927 C 0.40608 0.56552 0.206 0.0
C928 C 0.43552 0.56298 0.21744 0.0
C929 C 0.45757 0.52075 0.21674 0.0
C930 C 0.44976 0.48154 0.20454 0.0
C931 C 0.49643 0.4895 0.16455 0.0
C932 C 0.47079 0.38893 0.16988 0.0
C933 C 0.46544 0.4847 0.16857 0.0
N934 N 0.45309 0.43485 0.17127 0.0
C935 C 0.50186 0.39218 0.16586 0.0
C936 C 0.51472 0.44286 0.1632 0.0
C937 C 0.38636 0.32376 0.16173 0.0
C938 C 0.26819 0.42248 0.15578 0.0
C939 C 0.29964 0.32291 0.16013 0.0
C940 C 0.27278 0.32992 0.14726 0.0
C941 C 0.257 0.3801 0.14509 0.0
N942 N 0.31044 0.36463 0.17059 0.0
C943 C 0.29511 0.41395 0.16853 0.0
H944 H 0.2744 0.3493 0.53735 0.0
H945 H 0.23226 0.16183 0.45817 0.0
H946 H 0.34825 0.28582 0.51259 0.0
H947 H 0.15849 0.22601 0.48287 0.0
H948 H 0.27482 0.20668 0.47796 0.0
H949 H 0.23188 0.30499 0.51744 0.0
C950 C 0.28178 0.32623 0.52769 0.0
C951 C 0.31516 0.32149 0.52668 0.0
C952 C 0.24936 0.21093 0.47909 0.0
C953 C 0.26611 0.27009 0.50376 0.0
C954 C 0.2249 0.18518 0.46779 0.0
C955 C 0.19154 0.18991 0.46883 0.0
C956 C 0.24061 0.24188 0.49159 0.0
C957 C 0.1838 0.221 0.48158 0.0
C958 C 0.25734 0.30079 0.51631 0.0
C959 C 0.32292 0.2908 0.51385 0.0
N960 N 0.20816 0.24582 0.49245 0.0
N961 N 0.29858 0.26621 0.50292 0.0
H962 H 0.91456 0.00825 0.50809 0.0
H963 H 0.09759 1.00272 0.48985 0.0
H964 H 0.99144 0.9021 0.53287 0.0
H965 H 0.01955 0.10629 0.4648 0.0
H966 H 0.05945 0.96561 0.50595 0.0
H967 H 0.95311 0.0453 0.49233 0.0
C968 C 0.93952 0.99272 0.51023 0.0
C969 C 0.94968 0.9519 0.52181 0.0
C970 C 0.05073 0.99649 0.49693 0.0
C971 C 0.99406 0.99416 0.50379 0.0
C972 C 0.07251 0.01768 0.48773 0.0
C973 C 0.06186 0.05776 0.47596 0.0
C974 C 0.01806 0.01553 0.49433 0.0
C975 C 0.02899 0.07552 0.47374 0.0
C976 C 0.96156 0.01389 0.50122 0.0
C977 C 0.98243 0.93347 0.52406 0.0
N978 N 0.00836 0.05435 0.48282 0.0
N979 N 0.00339 0.95468 0.51514 0.0
H980 H 0.34406 0.00766 0.74135 0.0
H981 H 0.15968 1.00358 0.75781 0.0
H982 H 0.26639 0.90447 0.71577 0.0
H983 H 0.23644 0.10764 0.78376 0.0
H984 H 0.19878 0.96682 0.74234 0.0
H985 H 0.30532 0.04513 0.75707 0.0
C986 C 0.31894 0.99286 0.73904 0.0
C987 C 0.30857 0.95275 0.72723 0.0
C988 C 0.20709 0.99771 0.75142 0.0
C989 C 0.2641 0.99541 0.74516 0.0
C990 C 0.18473 0.01873 0.76026 0.0
C991 C 0.19471 0.05884 0.7721 0.0
C992 C 0.23974 0.01687 0.7544 0.0
C993 C 0.22758 0.0768 0.77475 0.0
C994 C 0.29682 0.01425 0.74801 0.0
C995 C 0.27563 0.93522 0.72475 0.0
N996 N 0.24888 0.05573 0.76598 0.0
N997 N 0.25467 0.9566 0.73361 0.0
H998 H 0.09554 0.22064 0.76288 0.0
H999 H 0.90307 0.2867 0.7331 0.0
H1000 H 0.01988 0.16134 0.78714 0.0
H1001 H 0.97939 0.34505 0.70911 0.0
H1002 H 0.94535 0.24015 0.75306 0.0
H1003 H 0.05299 0.26603 0.7429 0.0
C1004 C 0.07004 0.21693 0.76398 0.0
C1005 C 0.06139 0.18698 0.77673 0.0
C1006 C 0.95276 0.26326 0.74342 0.0
C1007 C 0.01248 0.23909 0.75392 0.0
C1008 C 0.92862 0.28992 0.73204 0.0
C1009 C 0.93756 0.32004 0.7194 0.0
C1010 C 0.98605 0.26674 0.74214 0.0
C1011 C 0.97115 0.32249 0.71862 0.0
C1012 C 0.04572 0.24296 0.75259 0.0
C1013 C 0.02784 0.18387 0.77755 0.0
N1014 N 0.99406 0.29627 0.7298 0.0
N1015 N 0.00468 0.2096 0.76633 0.0
H1016 H 0.84964 0.79 0.51264 0.0
H1017 H 0.65609 0.73076 0.48397 0.0
H1018 H 0.77571 0.85142 0.53769 0.0
H1019 H 0.731 0.66646 0.46004 0.0
H1020 H 0.69936 0.77603 0.50372 0.0
H1021 H 0.80611 0.74572 0.49294 0.0
C1022 C 0.8243 0.79447 0.51397 0.0
C1023 C 0.81644 0.82462 0.52687 0.0
C1024 C 0.70625 0.75186 0.49414 0.0
C1025 C 0.76641 0.77371 0.50437 0.0
C1026 C 0.68155 0.72589 0.48289 0.0
C1027 C 0.68979 0.69457 0.4703 0.0
C1028 C 0.73941 0.74653 0.49279 0.0
C1029 C 0.72329 0.69002 0.4695 0.0
C1030 C 0.79943 0.76902 0.50273 0.0
C1031 C 0.78307 0.82869 0.52797 0.0
N1032 N 0.74675 0.7157 0.48054 0.0
N1033 N 0.75936 0.80352 0.5169 0.0
H1034 H 0.74087 0.10825 0.28191 0.0
H1035 H 0.76747 0.89745 0.21309 0.0
H1036 H 0.66384 1.00389 0.25635 0.0
H1037 H 0.84422 1.00171 0.23895 0.0
H1038 H 0.72941 0.93517 0.2289 0.0
H1039 H 0.77893 0.06905 0.26644 0.0
C1040 C 0.73187 0.07706 0.27303 0.0
C1041 C 0.69894 0.0595 0.27041 0.0
C1042 C 0.75457 0.94977 0.23115 0.0
C1043 C 0.74276 0.0142 0.25259 0.0
C1044 C 0.7764 0.92823 0.22212 0.0
C1045 C 0.80922 0.94637 0.22469 0.0
C1046 C 0.76548 0.98991 0.24287 0.0
C1047 C 0.81922 0.9864 0.23656 0.0
C1048 C 0.75373 0.05464 0.26419 0.0
C1049 C 0.68892 0.01879 0.25876 0.0
N1050 N 0.79744 0.00682 0.24519 0.0
N1051 N 0.71074 0.99757 0.25026 0.0
H1052 H 0.90643 0.77835 0.23017 0.0
H1053 H 0.10036 0.72674 0.26104 0.0
H1054 H 0.98192 0.8541 0.20895 0.0
H1055 H 0.02533 0.65815 0.28408 0.0
H1056 H 0.05707 0.77134 0.24119 0.0
H1057 H 0.94959 0.73189 0.24964 0.0
C1058 C 0.93199 0.78541 0.22962 0.0
C1059 C 0.94042 0.8204 0.2179 0.0
C1060 C 0.05013 0.74636 0.25058 0.0
C1061 C 0.98997 0.76709 0.24008 0.0
C1062 C 0.07486 0.72074 0.26189 0.0
C1063 C 0.06661 0.6885 0.27427 0.0
C1064 C 0.01689 0.73966 0.25164 0.0
C1065 C 0.03304 0.68249 0.27477 0.0
C1066 C 0.95664 0.75879 0.24072 0.0
C1067 C 0.97406 0.82768 0.21775 0.0
N1068 N 0.00951 0.70782 0.26366 0.0
N1069 N 0.9975 0.80129 0.22863 0.0
H1070 H 0.27538 0.85072 0.03572 0.0
H1071 H 0.23296 0.66301 0.95656 0.0
H1072 H 0.34843 0.79012 0.00998 0.0
H1073 H 0.15913 0.7248 0.98163 0.0
H1074 H 0.27525 0.70944 0.97604 0.0
H1075 H 0.23256 0.80588 0.01598 0.0
C1076 C 0.2825 0.82822 0.02588 0.0
C1077 C 0.31573 0.82433 0.02454 0.0
C1078 C 0.24984 0.71287 0.97732 0.0
C1079 C 0.26648 0.77243 0.00188 0.0
C1080 C 0.22553 0.68621 0.96619 0.0
C1081 C 0.19225 0.68977 0.96743 0.0
C1082 C 0.24103 0.74356 0.98986 0.0
C1083 C 0.18441 0.72069 0.9802 0.0
C1084 C 0.25792 0.8025 0.01461 0.0
C1085 C 0.32322 0.79442 0.01151 0.0
N1086 N 0.20864 0.74642 0.99092 0.0
N1087 N 0.2988 0.76954 0.00072 0.0
H1088 H 0.09389 0.50949 0.98845 0.0
H1089 H 0.90835 0.51044 0.00339 0.0
H1090 H 0.01647 0.60928 0.96107 0.0
H1091 H 0.98761 0.41635 0.03167 0.0
H1092 H 0.94708 0.54645 0.98742 0.0
H1093 H 0.05474 0.47387 0.00409 0.0
C1094 C 0.06869 0.52394 0.98572 0.0
C1095 C 0.05854 0.56255 0.97344 0.0
C1096 C 0.95593 0.5179 0.99713 0.0
C1097 C 0.01346 0.52186 0.99131 0.0
C1098 C 0.93382 0.49734 0.00625 0.0
C1099 C 0.94465 0.46022 0.01889 0.0
C1100 C 0.98909 0.50119 0.00068 0.0
C1101 C 0.97801 0.44478 0.02205 0.0
C1102 C 0.0463 0.50359 0.99466 0.0
C1103 C 0.02547 0.57964 0.97044 0.0
N1104 N 0.99894 0.46525 0.01302 0.0
N1105 N 0.00416 0.55922 0.9793 0.0
H1106 H 0.26964 0.40483 0.21112 0.0
H1107 H 0.24101 0.60659 0.28173 0.0
H1108 H 0.34625 0.50563 0.23871 0.0
H1109 H 0.16452 0.50502 0.25437 0.0
H1110 H 0.27971 0.56995 0.26617 0.0
H1111 H 0.231 0.44102 0.22679 0.0
C1112 C 0.27843 0.43461 0.22049 0.0
C1113 C 0.3114 0.45211 0.2236 0.0
C1114 C 0.25449 0.55561 0.26355 0.0
C1115 C 0.26693 0.49388 0.24165 0.0
C1116 C 0.23227 0.57654 0.27243 0.0
C1117 C 0.1993 0.559 0.26934 0.0
C1118 C 0.24385 0.5167 0.25142 0.0
C1119 C 0.18962 0.51982 0.25717 0.0
C1120 C 0.25624 0.45526 0.22944 0.0
C1121 C 0.32114 0.49088 0.23589 0.0
N1122 N 0.21179 0.50005 0.24865 0.0
N1123 N 0.29901 0.51043 0.24446 0.0
H1124 H 0.73797 0.15783 0.95758 0.0
H1125 H 0.77579 0.34122 0.0377 0.0
H1126 H 0.66343 0.21508 0.98289 0.0
H1127 H 0.85134 0.28896 0.01229 0.0
H1128 H 0.73492 0.29359 0.01793 0.0
H1129 H 0.77992 0.20346 0.97763 0.0
C1130 C 0.73034 0.17983 0.96737 0.0
C1131 C 0.69695 0.18249 0.96852 0.0
C1132 C 0.76038 0.29245 0.01662 0.0
C1133 C 0.74517 0.23511 0.99155 0.0
C1134 C 0.78392 0.31979 0.02794 0.0
C1135 C 0.81727 0.31945 0.02668 0.0
C1136 C 0.76999 0.26418 0.00384 0.0
C1137 C 0.82598 0.29056 0.01374 0.0
C1138 C 0.75441 0.20596 0.97882 0.0
C1139 C 0.68877 0.21175 0.9815 0.0
N1140 N 0.80245 0.26408 0.0028 0.0
N1141 N 0.7127 0.23693 0.99248 0.0
H1142 H 0.66012 0.50446 0.75708 0.0
H1143 H 0.84497 0.50802 0.74123 0.0
H1144 H 0.7374 0.60545 0.78403 0.0
H1145 H 0.76607 0.41184 0.71352 0.0
H1146 H 0.80634 0.54383 0.75728 0.0
H1147 H 0.69906 0.46929 0.74124 0.0
C1148 C 0.68525 0.51925 0.75968 0.0
C1149 C 0.69541 0.55807 0.7719 0.0
C1150 C 0.79754 0.51488 0.74767 0.0
C1151 C 0.74025 0.51792 0.75379 0.0
C1152 C 0.8196 0.49444 0.73851 0.0
C1153 C 0.80885 0.45676 0.72601 0.0
C1154 C 0.76451 0.49749 0.74433 0.0
C1155 C 0.7756 0.44071 0.72303 0.0
C1156 C 0.70751 0.49917 0.75062 0.0
C1157 C 0.72838 0.57563 0.77472 0.0
N1158 N 0.75472 0.46108 0.73211 0.0
N1159 N 0.74957 0.55546 0.76575 0.0
H1160 H 0.5984 0.99968 0.98823 0.0
H1161 H 0.41463 0.00844 0.0054 0.0
H1162 H 0.5221 0.10562 0.9628 0.0
H1163 H 0.49087 0.90132 0.03028 0.0
H1164 H 0.45369 0.04529 0.98982 0.0
H1165 H 0.55936 0.9636 0.00389 0.0
C1166 C 0.57348 0.01539 0.98593 0.0
C1167 C 0.56359 0.05581 0.97418 0.0
C1168 C 0.46185 0.01371 -0.0013 0.0
C1169 C 0.51868 0.01466 0.99208 0.0
C1170 C 0.43954 0.99267 0.0076 0.0
C1171 C 0.44939 0.95161 0.01916 0.0
C1172 C 0.49427 0.99361 0.00137 0.0
C1173 C 0.48206 0.93285 0.02149 0.0
C1174 C 0.55116 0.99476 0.99489 0.0
C1175 C 0.53089 0.07452 0.97173 0.0
N1176 N 0.50325 0.95393 0.01269 0.0
N1177 N 0.50967 0.05383 0.9806 0.0
H1178 H 0.48481 0.34853 0.20666 0.0
H1179 H 0.52636 0.16362 0.28637 0.0
H1180 H 0.41062 0.28685 0.2315 0.0
H1181 H 0.60029 0.22681 0.26162 0.0
H1182 H 0.48383 0.20733 0.26628 0.0
H1183 H 0.52707 0.30381 0.22657 0.0
C1184 C 0.47728 0.3257 0.21633 0.0
C1185 C 0.44389 0.3217 0.21738 0.0
C1186 C 0.50931 0.21158 0.2652 0.0
C1187 C 0.49269 0.26986 0.24032 0.0
C1188 C 0.53376 0.1865 0.27668 0.0
C1189 C 0.56716 0.19135 0.27572 0.0
C1190 C 0.51812 0.24198 0.25261 0.0
C1191 C 0.57496 0.22176 0.26286 0.0
C1192 C 0.50159 0.30004 0.22771 0.0
C1193 C 0.43596 0.29127 0.23021 0.0
N1194 N 0.55062 0.24597 0.25183 0.0
N1195 N 0.46019 0.26649 0.24117 0.0
H1196 H 0.47989 0.84861 0.7104 0.0
H1197 H 0.52091 0.65623 0.78855 0.0
H1198 H 0.40561 0.78343 0.73458 0.0
H1199 H 0.59496 0.72015 0.76401 0.0
H1200 H 0.47859 0.70257 0.76899 0.0
H1201 H 0.52216 0.80273 0.73008 0.0
C1202 C 0.47236 0.82485 0.71989 0.0
C1203 C 0.43895 0.82007 0.7208 0.0
C1204 C 0.50406 0.70643 0.76784 0.0
C1205 C 0.48767 0.7669 0.74344 0.0
C1206 C 0.52837 0.67985 0.77901 0.0
C1207 C 0.56172 0.68409 0.77795 0.0
C1208 C 0.51298 0.73774 0.75545 0.0
C1209 C 0.56963 0.71551 0.7653 0.0
C1210 C 0.49665 0.7985 0.73113 0.0
C1211 C 0.43098 0.78847 0.7334 0.0
N1212 N 0.54544 0.74117 0.75457 0.0
N1213 N 0.45517 0.76304 0.7442 0.0
H1214 H 0.41045 0.50909 0.50677 0.0
H1215 H 0.59475 0.50716 0.49008 0.0
H1216 H 0.48824 0.40603 0.53232 0.0
H1217 H 0.517 0.61003 0.46439 0.0
H1218 H 0.55603 0.46958 0.50573 0.0
H1219 H 0.44916 0.54695 0.49115 0.0
C1220 C 0.4356 0.49441 0.5091 0.0
C1221 C 0.44601 0.45421 0.52086 0.0
C1222 C 0.54748 0.50041 0.49666 0.0
C1223 C 0.49048 0.49733 0.50303 0.0
C1224 C 0.5696 0.52187 0.48772 0.0
C1225 C 0.55921 0.5619 0.47591 0.0
C1226 C 0.51471 0.51909 0.49377 0.0
C1227 C 0.52623 0.57931 0.47338 0.0
C1228 C 0.45772 0.51602 0.50018 0.0
C1229 C 0.47899 0.43684 0.52336 0.0
N1230 N 0.50523 0.55786 0.48222 0.0
N1231 N 0.49997 0.45844 0.51454 0.0
H1232 H 0.08651 0.69835 0.35407 0.0
H1233 H 0.15585 0.9905 0.38416 0.0
H1234 H 0.15114 0.79346 0.33057 0.0
H1235 H 0.06698 0.92741 0.39667 0.0
H1236 H 0.15689 0.91338 0.36615 0.0
H1237 H 0.0812 0.77685 0.37154 0.0
C1238 C 0.09965 0.73541 0.3526 0.0
C1239 C 0.11962 0.73885 0.34092 0.0
C1240 C 0.13698 0.91645 0.37272 0.0
C1241 C 0.11365 0.82835 0.3608 0.0
C1242 C 0.13638 0.96053 0.38303 0.0
C1243 C 0.11122 0.96551 0.3919 0.0
C1244 C 0.11252 0.87632 0.37137 0.0
C1245 C 0.08668 0.92531 0.38994 0.0
C1246 C 0.09645 0.7802 0.3625 0.0
C1247 C 0.13576 0.78824 0.33947 0.0
N1248 N 0.08807 0.88201 0.37998 0.0
N1249 N 0.13258 0.83064 0.34932 0.0
H1250 H 0.16996 0.19898 0.38989 0.0
H1251 H 0.09921 0.48987 0.35909 0.0
H1252 H 0.10236 0.2915 0.41226 0.0
H1253 H 0.18975 0.4288 0.3479 0.0
H1254 H 0.09756 0.41227 0.37686 0.0
H1255 H 0.17522 0.2777 0.37253 0.0
C1256 C 0.15611 0.23549 0.39111 0.0
C1257 C 0.1354 0.23818 0.40247 0.0
C1258 C 0.11796 0.41589 0.37063 0.0
C1259 C 0.14134 0.32798 0.38271 0.0
C1260 C 0.11891 0.46025 0.36046 0.0
C1261 C 0.14472 0.46594 0.35203 0.0
C1262 C 0.14273 0.37621 0.37227 0.0
C1263 C 0.16954 0.42616 0.35428 0.0
C1264 C 0.15929 0.28043 0.38127 0.0
C1265 C 0.11835 0.2869 0.40362 0.0
N1266 N 0.16781 0.38261 0.3641 0.0
N1267 N 0.12157 0.32949 0.39384 0.0
H1268 H 0.0981 0.2874 0.82219 0.0
H1269 H 0.13677 0.41771 0.90995 0.0
H1270 H 0.11739 0.18851 0.86548 0.0
H1271 H 0.08219 0.5031 0.86818 0.0
H1272 H 0.13063 0.33373 0.89414 0.0
H1273 H 0.09262 0.36679 0.83882 0.0
C1274 C 0.10091 0.28239 0.83524 0.0
C1275 C 0.10843 0.23141 0.84251 0.0
C1276 C 0.11967 0.37066 0.88848 0.0
C1277 C 0.10263 0.32252 0.86168 0.0
C1278 C 0.12329 0.41876 0.89746 0.0
C1279 C 0.11021 0.46772 0.89032 0.0
C1280 C 0.10336 0.3715 0.87212 0.0
C1281 C 0.09273 0.4664 0.87416 0.0
C1282 C 0.09764 0.32772 0.84471 0.0
C1283 C 0.11151 0.2271 0.85943 0.0
N1284 N 0.09022 0.41922 0.86553 0.0
N1285 N 0.10913 0.27234 0.8685 0.0
H1286 H 0.13475 0.68602 0.87905 0.0
H1287 H 0.17129 1.00576 0.87683 0.0
H1288 H 0.15382 0.78798 0.92171 0.0
H1289 H 0.11541 0.91813 0.83585 0.0
H1290 H 0.17734 0.92121 0.89266 0.0
H1291 H 0.13995 0.76637 0.8622 0.0
C1292 C 0.14056 0.72505 0.88486 0.0
C1293 C 0.14351 0.73062 0.90173 0.0
C1294 C 0.16401 0.92055 0.88015 0.0
C1295 C 0.14972 0.822 0.88273 0.0
C1296 C 0.16063 0.96871 0.87111 0.0
C1297 C 0.14248 0.96916 0.85508 0.0
C1298 C 0.14958 0.8724 0.87301 0.0
C1299 C 0.12923 0.91983 0.84826 0.0
C1300 C 0.14333 0.77082 0.87528 0.0
C1301 C 0.15091 0.78212 0.9087 0.0
N1302 N 0.13298 0.87352 0.85726 0.0
N1303 N 0.1537 0.82574 0.89919 0.0
H1304 H 0.84864 0.22861 0.66153 0.0
H1305 H 0.94347 0.08448 0.59911 0.0
H1306 H 0.92147 0.3148 0.641 0.0
H1307 H 0.85209 0.02806 0.61048 0.0
H1308 H 0.94088 0.16479 0.61631 0.0
H1309 H 0.85455 0.1512 0.64475 0.0
C1310 C 0.86579 0.23168 0.65339 0.0
C1311 C 0.88432 0.27904 0.65262 0.0
C1312 C 0.92153 0.13463 0.61502 0.0
C1313 C 0.89156 0.18869 0.63329 0.0
C1314 C 0.92311 0.08862 0.60535 0.0
C1315 C 0.89797 0.0494 0.60337 0.0
C1316 C 0.89486 0.1409 0.6229 0.0
C1317 C 0.872 0.05715 0.61159 0.0
C1318 C 0.86919 0.187 0.64378 0.0
C1319 C 0.90643 0.27946 0.6419 0.0
N1320 N 0.87119 0.10177 0.62097 0.0
N1321 N 0.90954 0.23481 0.63266 0.0
H1322 H 0.83794 0.49861 0.61797 0.0
H1323 H 0.86825 0.81915 0.61439 0.0
H1324 H 0.88549 0.59133 0.6598 0.0
H1325 H 0.86488 0.71276 0.57321 0.0
H1326 H 0.86182 0.73958 0.63123 0.0
H1327 H 0.83463 0.58131 0.60134 0.0
C1328 C 0.84726 0.53643 0.62369 0.0
C1329 C 0.86231 0.53803 0.64023 0.0
C1330 C 0.86227 0.73395 0.61847 0.0
C1331 C 0.85832 0.6325 0.6214 0.0
C1332 C 0.86583 0.77923 0.60887 0.0
C1333 C 0.8675 0.77245 0.59245 0.0
C1334 C 0.85964 0.68188 0.61146 0.0
C1335 C 0.8642 0.71978 0.58588 0.0
C1336 C 0.84551 0.58347 0.6142 0.0
C1337 C 0.87404 0.58817 0.64703 0.0
N1338 N 0.8604 0.67659 0.59539 0.0
N1339 N 0.87182 0.63339 0.6376 0.0
H1340 H 0.93592 0.53246 0.11805 0.0
H1341 H 0.84062 0.80319 0.1346 0.0
H1342 H 0.84314 0.58549 0.089 0.0
H1343 H 0.937 0.76237 0.16198 0.0
H1344 H 0.84308 0.72523 0.11685 0.0
H1345 H 0.93874 0.61738 0.13367 0.0
C1346 C 0.91623 0.56185 0.11493 0.0
C1347 C 0.88912 0.55145 0.10228 0.0
C1348 C 0.86398 0.73352 0.12657 0.0
C1349 C 0.89223 0.64853 0.12001 0.0
C1350 C 0.86258 0.77817 0.13662 0.0
C1351 C 0.88881 0.78919 0.14953 0.0
C1352 C 0.89165 0.69909 0.12964 0.0
C1353 C 0.91653 0.7553 0.15193 0.0
C1354 C 0.91788 0.61034 0.12381 0.0
C1355 C 0.86441 0.59124 0.09871 0.0
N1356 N 0.91717 0.71138 0.14213 0.0
N1357 N 0.86652 0.63766 0.10755 0.0
H1358 H 0.911 0.03833 0.13831 0.0
H1359 H 0.83397 0.32355 0.10505 0.0
H1360 H 0.81653 0.09088 0.14686 0.0
H1361 H 0.90802 0.23648 0.08565 0.0
H1362 H 0.82947 0.24506 0.12271 0.0
H1363 H 0.91267 0.11731 0.12117 0.0
C1364 C 0.89047 0.06643 0.13652 0.0
C1365 C 0.86352 0.05783 0.144 0.0
C1366 C 0.84668 0.24358 0.11457 0.0
C1367 C 0.86545 0.14923 0.12439 0.0
C1368 C 0.84943 0.2884 0.10458 0.0
C1369 C 0.87164 0.28707 0.09391 0.0
C1370 C 0.86656 0.19765 0.11398 0.0
C1371 C 0.89077 0.24006 0.09371 0.0
C1372 C 0.89143 0.11162 0.1267 0.0
C1373 C 0.83765 0.09578 0.1412 0.0
N1374 N 0.88786 0.19765 0.10359 0.0
N1375 N 0.83933 0.14018 0.13168 0.0
H1376 H 0.61928 0.68219 0.86631 0.0
H1377 H 0.5845 1.00245 0.8687 0.0
H1378 H 0.60103 0.78444 0.82371 0.0
H1379 H 0.63987 0.91401 0.90963 0.0
H1380 H 0.57797 0.91798 0.85282 0.0
H1381 H 0.61442 0.7626 0.88319 0.0
C1382 C 0.61372 0.7213 0.86052 0.0
C1383 C 0.61091 0.72691 0.84366 0.0
C1384 C 0.59129 0.91713 0.86534 0.0
C1385 C 0.60508 0.81838 0.8627 0.0
C1386 C 0.59493 0.96524 0.8744 0.0
C1387 C 0.61309 0.96543 0.89043 0.0
C1388 C 0.60546 0.86876 0.87245 0.0
C1389 C 0.62605 0.9159 0.89722 0.0
C1390 C 0.61114 0.76711 0.87012 0.0
C1391 C 0.60383 0.77852 0.83671 0.0
N1392 N 0.62206 0.86964 0.8882 0.0
N1393 N 0.60122 0.82218 0.84624 0.0
H1394 H 0.63961 0.18224 0.87998 0.0
H1395 H 0.6735 0.50274 0.8776 0.0
H1396 H 0.65662 0.28476 0.92254 0.0
H1397 H 0.61901 0.41397 0.8365 0.0
H1398 H 0.67976 0.41839 0.89352 0.0
H1399 H 0.64427 0.26273 0.86311 0.0
C1400 C 0.64484 0.22144 0.88577 0.0
C1401 C 0.64739 0.22706 0.90262 0.0
C1402 C 0.66668 0.41744 0.88096 0.0
C1403 C 0.65302 0.31863 0.88357 0.0
C1404 C 0.6632 0.46548 0.87188 0.0
C1405 C 0.64538 0.46555 0.85578 0.0
C1406 C 0.6527 0.369 0.87382 0.0
C1407 C 0.63258 0.41595 0.84896 0.0
C1408 C 0.64731 0.26729 0.87617 0.0
C1409 C 0.65404 0.2788 0.90955 0.0
N1410 N 0.63642 0.36976 0.85801 0.0
N1411 N 0.65658 0.32249 0.90002 0.0
H1412 H 0.58807 0.20315 0.35505 0.0
H1413 H 0.65782 0.49445 0.38573 0.0
H1414 H 0.65405 0.29705 0.33205 0.0
H1415 H 0.5675 0.43276 0.39699 0.0
H1416 H 0.65942 0.41717 0.36781 0.0
H1417 H 0.58264 0.28179 0.37241 0.0
C1418 C 0.60151 0.23998 0.35368 0.0
C1419 C 0.62185 0.24305 0.34216 0.0
C1420 C 0.63908 0.4206 0.37409 0.0
C1421 C 0.61574 0.33276 0.36193 0.0
C1422 C 0.63816 0.46476 0.38434 0.0
C1423 C 0.61242 0.47019 0.39283 0.0
C1424 C 0.61436 0.38084 0.37243 0.0
C1425 C 0.58765 0.43033 0.39056 0.0
C1426 C 0.59824 0.28487 0.36352 0.0
C1427 C 0.63837 0.29216 0.34083 0.0
N1428 N 0.58937 0.38696 0.38067 0.0
N1429 N 0.6351 0.3347 0.35063 0.0
H1430 H 0.6709 0.70318 0.39123 0.0
H1431 H 0.60219 0.99584 0.36112 0.0
H1432 H 0.60384 0.79666 0.41369 0.0
H1433 H 0.69129 0.9322 0.34901 0.0
H1434 H 0.60045 0.91849 0.37895 0.0
H1435 H 0.67682 0.78204 0.37403 0.0
C1436 C 0.65733 0.73995 0.39251 0.0
C1437 C 0.63655 0.74286 0.40384 0.0
C1438 C 0.62058 0.92148 0.37251 0.0
C1439 C 0.64326 0.83281 0.38428 0.0
C1440 C 0.62157 0.96571 0.36231 0.0
C1441 C 0.64697 0.97057 0.35359 0.0
C1442 C 0.64489 0.88108 0.37389 0.0
C1443 C 0.67141 0.93018 0.35562 0.0
C1444 C 0.66088 0.78496 0.38277 0.0
C1445 C 0.61987 0.79189 0.40507 0.0
N1446 N 0.66962 0.88673 0.36547 0.0
N1447 N 0.62347 0.83454 0.39539 0.0
H1448 H 0.42387 0.31739 0.13775 0.0
H1449 H 0.35488 0.02253 0.10949 0.0
H1450 H 0.35779 0.22408 0.16086 0.0
H1451 H 0.44259 0.08546 0.09574 0.0
H1452 H 0.35352 0.10146 0.12671 0.0
H1453 H 0.42916 0.23809 0.12047 0.0
C1454 C 0.41038 0.28065 0.13915 0.0
C1455 C 0.39009 0.27789 0.15071 0.0
C1456 C 0.37327 0.09805 0.12004 0.0
C1457 C 0.39606 0.18754 0.1311 0.0
C1458 C 0.37406 0.05285 0.11019 0.0
C1459 C 0.39896 0.04721 0.1012 0.0
C1460 C 0.39733 0.13868 0.12085 0.0
C1461 C 0.42311 0.08801 0.10259 0.0
C1462 C 0.41356 0.2354 0.12937 0.0
C1463 C 0.37348 0.22888 0.15208 0.0
N1464 N 0.42158 0.13237 0.11215 0.0
N1465 N 0.37673 0.18612 0.1424 0.0
H1466 H 0.34133 0.49575 0.11549 0.0
H1467 H 0.36829 0.81723 0.11179 0.0
H1468 H 0.38598 0.59023 0.15749 0.0
H1469 H 0.36654 0.71075 0.07075 0.0
H1470 H 0.36225 0.73755 0.12864 0.0
H1471 H 0.33755 0.57829 0.09878 0.0
C1472 C 0.3499 0.53391 0.12123 0.0
C1473 C 0.36428 0.53606 0.13785 0.0
C1474 C 0.36298 0.73191 0.1159 0.0
C1475 C 0.3598 0.63037 0.11892 0.0
C1476 C 0.36633 0.77726 0.1063 0.0
C1477 C 0.36831 0.77054 0.08991 0.0
C1478 C 0.36091 0.67977 0.10895 0.0
C1479 C 0.3656 0.71778 0.0834 0.0
C1480 C 0.34789 0.58087 0.1117 0.0
C1481 C 0.37505 0.58664 0.14467 0.0
N1482 N 0.36201 0.67451 0.09291 0.0
N1483 N 0.37263 0.63176 0.13518 0.0
H1484 H 0.41825 0.81095 0.64182 0.0
H1485 H 0.34971 0.51784 0.61197 0.0
H1486 H 0.3514 0.71772 0.66446 0.0
H1487 H 0.43875 0.58156 0.59982 0.0
H1488 H 0.34782 0.59548 0.6297 0.0
H1489 H 0.42401 0.732 0.62463 0.0
C1490 C 0.40467 0.77422 0.64313 0.0
C1491 C 0.38402 0.77141 0.65452 0.0
C1492 C 0.36796 0.59244 0.62327 0.0
C1493 C 0.39055 0.68131 0.63497 0.0
C1494 C 0.36905 0.54804 0.61313 0.0
C1495 C 0.39448 0.5431 0.60443 0.0
C1496 C 0.39221 0.63291 0.62462 0.0
C1497 C 0.41884 0.58361 0.60641 0.0
C1498 C 0.40814 0.72915 0.6334 0.0
C1499 C 0.36734 0.72242 0.6558 0.0
N1500 N 0.41697 0.62719 0.61621 0.0
N1501 N 0.37085 0.67969 0.64611 0.0
H1502 H 0.40291 0.21646 0.58238 0.0
H1503 H 0.31364 0.07983 0.64809 0.0
H1504 H 0.33669 0.30796 0.6059 0.0
H1505 H 0.40446 0.0217 0.63647 0.0
H1506 H 0.31539 0.1581 0.63004 0.0
H1507 H 0.39734 0.13939 0.59952 0.0
C1508 C 0.38729 0.22068 0.59122 0.0
C1509 C 0.37062 0.26944 0.59281 0.0
C1510 C 0.33479 0.12799 0.63145 0.0
C1511 C 0.36374 0.17992 0.61245 0.0
C1512 C 0.3337 0.08317 0.64161 0.0
C1513 C 0.35895 0.04417 0.64377 0.0
C1514 C 0.36102 0.13315 0.62323 0.0
C1515 C 0.38451 0.05078 0.63522 0.0
C1516 C 0.3841 0.17633 0.60101 0.0
C1517 C 0.3503 0.27148 0.60437 0.0
N1518 N 0.38482 0.09423 0.62533 0.0
N1519 N 0.34736 0.22724 0.61375 0.0
loop_
_geom_bond_atom_site_label_1
_geom_bond_atom_site_label_2
_geom_bond_distance
_geom_bond_site_symmetry_2
_ccdc_geom_bond_type
Co0 O2 2.143 . S
Co0 O8 2.074 . S
Co0 O11 2.093 . S
Co0 O24 2.097 . S
Co0 N41 2.151 . S
Co0 N49 2.214 . S
Co1 O2 2.160 . S
Co1 O7 2.058 . S
Co1 O17 2.057 . S
Co1 O32 2.037 . S
Co1 N36 2.145 . S
Co1 N57 2.257 . S
O2 Co0 2.143 . S
O2 Co1 2.160 . S
C3 O4 1.278 1_565 S
C3 O11 1.224 1_565 S
O4 C3 1.278 1_545 S
C5 O6 1.245 . S
C5 O17 1.232 . S
O6 C5 1.245 . S
O7 Co1 2.058 . S
O7 C33 1.269 . S
O8 Co0 2.074 . S
O8 C33 1.257 . S
H9 C34 0.930 . S
H10 C40 0.930 . S
O11 Co0 2.093 . S
O11 C3 1.224 1_545 S
H12 C44 0.929 . S
H13 C46 0.930 . S
H14 C47 0.930 . S
H15 C45 0.929 . S
H16 C48 0.928 . S
O17 Co1 2.057 . S
O17 C5 1.232 . S
H18 C37 0.929 . S
H19 C38 0.929 . S
H20 C50 0.931 . S
H21 C42 0.929 . S
H22 C51 0.930 . S
H23 C43 0.931 . S
O24 Co0 2.097 . S
O24 C52 1.214 . S
H25 C53 0.929 1_655 S
H26 C54 0.929 . S
H27 C55 0.930 . S
H28 C56 0.929 . S
H29 C58 0.930 . S
H30 C35 0.930 . S
H31 C39 0.930 . S
O32 Co1 2.037 . S
O32 C52 1.234 . S
C33 O7 1.269 . S
C33 O8 1.257 . S
C34 H9 0.930 . S
C34 C37 1.388 . S
C34 C39 1.418 . S
C35 H30 0.930 . S
C35 C38 1.404 . S
C35 C39 1.353 . S
N36 Co1 2.145 . S
N36 C37 1.397 . S
N36 C38 1.334 . S
C37 H18 0.929 . S
C37 C34 1.388 . S
C37 N36 1.397 . S
C38 H19 0.929 . S
C38 C35 1.404 . S
C38 N36 1.334 . S
C39 H31 0.930 . S
C39 C34 1.418 . S
C39 C35 1.353 . S
C40 H10 0.930 . S
C40 N41 1.330 1_565 S
C40 C42 1.446 . S
N41 Co0 2.151 . S
N41 C40 1.330 1_545 S
N41 C45 1.418 . S
C42 H21 0.929 . S
C42 C40 1.446 . S
C42 C43 1.332 . S
C43 H23 0.931 . S
C43 C42 1.332 . S
C43 C44 1.267 . S
C44 H12 0.929 . S
C44 C43 1.267 . S
C44 C45 1.251 1_565 S
C45 H15 0.929 . S
C45 N41 1.418 . S
C45 C44 1.251 1_545 S
C46 H13 0.930 . S
C46 C48 1.406 . S
C46 C51 1.261 . S
C47 H14 0.930 . S
C47 N49 1.325 . S
C47 C50 1.357 . S
C48 H16 0.928 . S
C48 C46 1.406 . S
C48 N49 1.261 . S
N49 Co0 2.214 . S
N49 C47 1.325 . S
N49 C48 1.261 . S
C50 H20 0.931 . S
C50 C47 1.357 . S
C50 C51 1.312 . S
C51 H22 0.930 . S
C51 C46 1.261 . S
C51 C50 1.312 . S
C52 O24 1.214 . S
C52 O32 1.234 . S
C53 H25 0.929 1_455 S
C53 C56 1.391 1_455 S
C53 C58 1.391 . S
C54 H26 0.929 . S
C54 C55 1.390 . S
C54 N57 1.391 . S
C55 H27 0.930 . S
C55 C54 1.390 . S
C55 C56 1.392 1_455 S
C56 H28 0.929 . S
C56 C53 1.391 1_655 S
C56 C55 1.392 1_655 S
N57 Co1 2.257 . S
N57 C54 1.391 . S
N57 C58 1.388 . S
C58 H29 0.930 . S
C58 C53 1.391 . S
C58 N57 1.388 . S
Co59 O61 2.143 . S
Co59 O67 2.074 . S
Co59 O70 2.093 . S
Co59 O83 2.097 . S
Co59 N100 2.151 . S
Co59 N108 2.214 . S
Co60 O61 2.160 . S
Co60 O66 2.058 . S
Co60 O76 2.057 . S
Co60 O91 2.037 . S
Co60 N95 2.145 . S
Co60 N116 2.257 . S
O61 Co59 2.143 . S
O61 Co60 2.160 . S
C62 O63 1.278 1_565 S
C62 O70 1.224 1_565 S
O63 C62 1.278 1_545 S
C64 O65 1.245 . S
C64 O76 1.232 . S
O65 C64 1.245 . S
O66 Co60 2.058 . S
O66 C92 1.269 . S
O67 Co59 2.074 . S
O67 C92 1.257 . S
H68 C93 0.930 . S
H69 C99 0.930 . S
O70 Co59 2.093 . S
O70 C62 1.224 1_545 S
H71 C103 0.929 1_655 S
H72 C105 0.930 . S
H73 C106 0.930 . S
H74 C104 0.929 . S
H75 C107 0.928 . S
O76 Co60 2.057 . S
O76 C64 1.232 . S
H77 C96 0.929 . S
H78 C97 0.929 . S
H79 C109 0.931 1_655 S
H80 C101 0.929 . S
H81 C110 0.930 . S
H82 C102 0.931 . S
O83 Co59 2.097 . S
O83 C111 1.214 . S
H84 C112 0.929 . S
H85 C113 0.929 . S
H86 C114 0.930 . S
H87 C115 0.929 . S
H88 C117 0.930 . S
H89 C94 0.930 . S
H90 C98 0.930 . S
O91 Co60 2.037 . S
O91 C111 1.234 . S
C92 O66 1.269 . S
C92 O67 1.257 . S
C93 H68 0.930 . S
C93 C96 1.388 . S
C93 C98 1.418 . S
C94 H89 0.930 . S
C94 C97 1.404 . S
C94 C98 1.353 . S
N95 Co60 2.145 . S
N95 C96 1.397 . S
N95 C97 1.334 . S
C96 H77 0.929 . S
C96 C93 1.388 . S
C96 N95 1.397 . S
C97 H78 0.929 . S
C97 C94 1.404 . S
C97 N95 1.334 . S
C98 H90 0.930 . S
C98 C93 1.418 . S
C98 C94 1.353 . S
C99 H69 0.930 . S
C99 N100 1.330 1_565 S
C99 C101 1.446 . S
N100 Co59 2.151 . S
N100 C99 1.330 1_545 S
N100 C104 1.418 . S
C101 H80 0.929 . S
C101 C99 1.446 . S
C101 C102 1.332 . S
C102 H82 0.931 . S
C102 C101 1.332 . S
C102 C103 1.267 . S
C103 H71 0.929 1_455 S
C103 C102 1.267 . S
C103 C104 1.251 1_565 S
C104 H74 0.929 . S
C104 N100 1.418 . S
C104 C103 1.251 1_545 S
C105 H72 0.930 . S
C105 C107 1.406 1_655 S
C105 C110 1.261 . S
C106 H73 0.930 . S
C106 N108 1.325 . S
C106 C109 1.357 . S
C107 H75 0.928 . S
C107 C105 1.406 1_455 S
C107 N108 1.261 . S
N108 Co59 2.214 . S
N108 C106 1.325 . S
N108 C107 1.261 . S
C109 H79 0.931 1_455 S
C109 C106 1.357 . S
C109 C110 1.312 1_455 S
C110 H81 0.930 . S
C110 C105 1.261 . S
C110 C109 1.312 1_655 S
C111 O83 1.214 . S
C111 O91 1.234 . S
C112 H84 0.929 . S
C112 C115 1.391 . S
C112 C117 1.391 . S
C113 H85 0.929 . S
C113 C114 1.390 . S
C113 N116 1.391 . S
C114 H86 0.930 . S
C114 C113 1.390 . S
C114 C115 1.392 . S
C115 H87 0.929 . S
C115 C112 1.391 . S
C115 C114 1.392 . S
N116 Co60 2.257 . S
N116 C113 1.391 . S
N116 C117 1.388 . S
C117 H88 0.930 . S
C117 C112 1.391 . S
C117 N116 1.388 . S
Co118 O120 2.143 . S
Co118 O126 2.074 . S
Co118 O129 2.093 . S
Co118 O142 2.097 . S
Co118 N159 2.151 . S
Co118 N167 2.214 . S
Co119 O120 2.160 . S
Co119 O125 2.058 . S
Co119 O135 2.057 . S
Co119 O150 2.037 . S
Co119 N154 2.145 . S
Co119 N175 2.257 . S
O120 Co118 2.143 . S
O120 Co119 2.160 . S
C121 O122 1.278 1_545 S
C121 O129 1.224 1_545 S
O122 C121 1.278 1_565 S
C123 O124 1.245 . S
C123 O135 1.232 . S
O124 C123 1.245 . S
O125 Co119 2.058 . S
O125 C151 1.269 . S
O126 Co118 2.074 . S
O126 C151 1.257 . S
H127 C152 0.930 . S
H128 C158 0.930 . S
O129 Co118 2.093 . S
O129 C121 1.224 1_565 S
H130 C162 0.929 . S
H131 C164 0.930 . S
H132 C165 0.930 . S
H133 C163 0.929 . S
H134 C166 0.928 . S
O135 Co119 2.057 . S
O135 C123 1.232 . S
H136 C155 0.929 . S
H137 C156 0.929 . S
H138 C168 0.931 . S
H139 C160 0.929 . S
H140 C169 0.930 . S
H141 C161 0.931 . S
O142 Co118 2.097 . S
O142 C170 1.214 . S
H143 C171 0.929 1_455 S
H144 C172 0.929 . S
H145 C173 0.930 . S
H146 C174 0.929 . S
H147 C176 0.930 . S
H148 C153 0.930 . S
H149 C157 0.930 . S
O150 Co119 2.037 . S
O150 C170 1.234 . S
C151 O125 1.269 . S
C151 O126 1.257 . S
C152 H127 0.930 . S
C152 C155 1.388 . S
C152 C157 1.418 . S
C153 H148 0.930 . S
C153 C156 1.404 . S
C153 C157 1.353 . S
N154 Co119 2.145 . S
N154 C155 1.397 . S
N154 C156 1.334 . S
C155 H136 0.929 . S
C155 C152 1.388 . S
C155 N154 1.397 . S
C156 H137 0.929 . S
C156 C153 1.404 . S
C156 N154 1.334 . S
C157 H149 0.930 . S
C157 C152 1.418 . S
C157 C153 1.353 . S
C158 H128 0.930 . S
C158 N159 1.330 1_545 S
C158 C160 1.446 . S
N159 Co118 2.151 . S
N159 C158 1.330 1_565 S
N159 C163 1.418 . S
C160 H139 0.929 . S
C160 C158 1.446 . S
C160 C161 1.332 . S
C161 H141 0.931 . S
C161 C160 1.332 . S
C161 C162 1.267 . S
C162 H130 0.929 . S
C162 C161 1.267 . S
C162 C163 1.251 1_545 S
C163 H133 0.929 . S
C163 N159 1.418 . S
C163 C162 1.251 1_565 S
C164 H131 0.930 . S
C164 C166 1.406 . S
C164 C169 1.261 . S
C165 H132 0.930 . S
C165 N167 1.325 . S
C165 C168 1.357 . S
C166 H134 0.928 . S
C166 C164 1.406 . S
C166 N167 1.261 . S
N167 Co118 2.214 . S
N167 C165 1.325 . S
N167 C166 1.261 . S
C168 H138 0.931 . S
C168 C165 1.357 . S
C168 C169 1.312 . S
C169 H140 0.930 . S
C169 C164 1.261 . S
C169 C168 1.312 . S
C170 O142 1.214 . S
C170 O150 1.234 . S
C171 H143 0.929 1_655 S
C171 C174 1.391 1_655 S
C171 C176 1.391 . S
C172 H144 0.929 . S
C172 C173 1.390 . S
C172 N175 1.391 . S
C173 H145 0.930 . S
C173 C172 1.390 . S
C173 C174 1.392 1_655 S
C174 H146 0.929 . S
C174 C171 1.391 1_455 S
C174 C173 1.392 1_455 S
N175 Co119 2.257 . S
N175 C172 1.391 . S
N175 C176 1.388 . S
C176 H147 0.930 . S
C176 C171 1.391 . S
C176 N175 1.388 . S
Co177 O179 2.143 . S
Co177 O185 2.074 . S
Co177 O188 2.093 . S
Co177 O201 2.097 . S
Co177 N218 2.151 . S
Co177 N226 2.214 . S
Co178 O179 2.160 . S
Co178 O184 2.058 . S
Co178 O194 2.057 . S
Co178 O209 2.037 . S
Co178 N213 2.145 . S
Co178 N234 2.257 . S
O179 Co177 2.143 . S
O179 Co178 2.160 . S
C180 O181 1.278 1_545 S
C180 O188 1.224 1_545 S
O181 C180 1.278 1_565 S
C182 O183 1.245 . S
C182 O194 1.232 . S
O183 C182 1.245 . S
O184 Co178 2.058 . S
O184 C210 1.269 . S
O185 Co177 2.074 . S
O185 C210 1.257 . S
H186 C211 0.930 . S
H187 C217 0.930 . S
O188 Co177 2.093 . S
O188 C180 1.224 1_565 S
H189 C221 0.929 1_455 S
H190 C223 0.930 . S
H191 C224 0.930 . S
H192 C222 0.929 . S
H193 C225 0.928 . S
O194 Co178 2.057 . S
O194 C182 1.232 . S
H195 C214 0.929 . S
H196 C215 0.929 . S
H197 C227 0.931 1_455 S
H198 C219 0.929 . S
H199 C228 0.930 . S
H200 C220 0.931 . S
O201 Co177 2.097 . S
O201 C229 1.214 . S
H202 C230 0.929 . S
H203 C231 0.929 . S
H204 C232 0.930 . S
H205 C233 0.929 . S
H206 C235 0.930 . S
H207 C212 0.930 . S
H208 C216 0.930 . S
O209 Co178 2.037 . S
O209 C229 1.234 . S
C210 O184 1.269 . S
C210 O185 1.257 . S
C211 H186 0.930 . S
C211 C214 1.388 . S
C211 C216 1.418 . S
C212 H207 0.930 . S
C212 C215 1.404 . S
C212 C216 1.353 . S
N213 Co178 2.145 . S
N213 C214 1.397 . S
N213 C215 1.334 . S
C214 H195 0.929 . S
C214 C211 1.388 . S
C214 N213 1.397 . S
C215 H196 0.929 . S
C215 C212 1.404 . S
C215 N213 1.334 . S
C216 H208 0.930 . S
C216 C211 1.418 . S
C216 C212 1.353 . S
C217 H187 0.930 . S
C217 N218 1.330 1_545 S
C217 C219 1.446 . S
N218 Co177 2.151 . S
N218 C217 1.330 1_565 S
N218 C222 1.418 . S
C219 H198 0.929 . S
C219 C217 1.446 . S
C219 C220 1.332 . S
C220 H200 0.931 . S
C220 C219 1.332 . S
C220 C221 1.267 . S
C221 H189 0.929 1_655 S
C221 C220 1.267 . S
C221 C222 1.251 1_545 S
C222 H192 0.929 . S
C222 N218 1.418 . S
C222 C221 1.251 1_565 S
C223 H190 0.930 . S
C223 C225 1.406 1_455 S
C223 C228 1.261 . S
C224 H191 0.930 . S
C224 N226 1.325 . S
C224 C227 1.357 . S
C225 H193 0.928 . S
C225 C223 1.406 1_655 S
C225 N226 1.261 . S
N226 Co177 2.214 . S
N226 C224 1.325 . S
N226 C225 1.261 . S
C227 H197 0.931 1_655 S
C227 C224 1.357 . S
C227 C228 1.312 1_655 S
C228 H199 0.930 . S
C228 C223 1.261 . S
C228 C227 1.312 1_455 S
C229 O201 1.214 . S
C229 O209 1.234 . S
C230 H202 0.929 . S
C230 C233 1.391 . S
C230 C235 1.391 . S
C231 H203 0.929 . S
C231 C232 1.390 . S
C231 N234 1.391 . S
C232 H204 0.930 . S
C232 C231 1.390 . S
C232 C233 1.392 . S
C233 H205 0.929 . S
C233 C230 1.391 . S
C233 C232 1.392 . S
N234 Co178 2.257 . S
N234 C231 1.391 . S
N234 C235 1.388 . S
C235 H206 0.930 . S
C235 C230 1.391 . S
C235 N234 1.388 . S
Co236 O238 2.143 . S
Co236 O244 2.074 . S
Co236 O247 2.093 . S
Co236 O260 2.097 . S
Co236 N277 2.151 . S
Co236 N285 2.214 . S
Co237 O238 2.160 . S
Co237 O243 2.058 . S
Co237 O253 2.057 . S
Co237 O268 2.037 . S
Co237 N272 2.145 . S
Co237 N293 2.257 . S
O238 Co236 2.143 . S
O238 Co237 2.160 . S
C239 O240 1.278 . S
C239 O247 1.224 . S
O240 C239 1.278 . S
C241 O242 1.245 . S
C241 O253 1.232 . S
O242 C241 1.245 . S
O243 Co237 2.058 . S
O243 C269 1.269 . S
O244 Co236 2.074 . S
O244 C269 1.257 . S
H245 C270 0.930 . S
H246 C276 0.930 . S
O247 Co236 2.093 . S
O247 C239 1.224 . S
H248 C280 0.929 . S
H249 C282 0.930 . S
H250 C283 0.930 . S
H251 C281 0.929 . S
H252 C284 0.928 . S
O253 Co237 2.057 . S
O253 C241 1.232 . S
H254 C273 0.929 . S
H255 C274 0.929 . S
H256 C286 0.931 . S
H257 C278 0.929 . S
H258 C287 0.930 . S
H259 C279 0.931 . S
O260 Co236 2.097 . S
O260 C288 1.214 . S
H261 C289 0.929 1_655 S
H262 C290 0.929 . S
H263 C291 0.930 . S
H264 C292 0.929 . S
H265 C294 0.930 . S
H266 C271 0.930 . S
H267 C275 0.930 . S
O268 Co237 2.037 . S
O268 C288 1.234 . S
C269 O243 1.269 . S
C269 O244 1.257 . S
C270 H245 0.930 . S
C270 C273 1.388 . S
C270 C275 1.418 . S
C271 H266 0.930 . S
C271 C274 1.404 . S
C271 C275 1.353 . S
N272 Co237 2.145 . S
N272 C273 1.397 . S
N272 C274 1.334 . S
C273 H254 0.929 . S
C273 C270 1.388 . S
C273 N272 1.397 . S
C274 H255 0.929 . S
C274 C271 1.404 . S
C274 N272 1.334 . S
C275 H267 0.930 . S
C275 C270 1.418 . S
C275 C271 1.353 . S
C276 H246 0.930 . S
C276 N277 1.330 . S
C276 C278 1.446 . S
N277 Co236 2.151 . S
N277 C276 1.330 . S
N277 C281 1.418 . S
C278 H257 0.929 . S
C278 C276 1.446 . S
C278 C279 1.332 . S
C279 H259 0.931 . S
C279 C278 1.332 . S
C279 C280 1.267 . S
C280 H248 0.929 . S
C280 C279 1.267 . S
C280 C281 1.251 . S
C281 H251 0.929 . S
C281 N277 1.418 . S
C281 C280 1.251 . S
C282 H249 0.930 . S
C282 C284 1.406 . S
C282 C287 1.261 . S
C283 H250 0.930 . S
C283 N285 1.325 . S
C283 C286 1.357 . S
C284 H252 0.928 . S
C284 C282 1.406 . S
C284 N285 1.261 . S
N285 Co236 2.214 . S
N285 C283 1.325 . S
N285 C284 1.261 . S
C286 H256 0.931 . S
C286 C283 1.357 . S
C286 C287 1.312 . S
C287 H258 0.930 . S
C287 C282 1.261 . S
C287 C286 1.312 . S
C288 O260 1.214 . S
C288 O268 1.234 . S
C289 H261 0.929 1_455 S
C289 C292 1.391 1_455 S
C289 C294 1.391 . S
C290 H262 0.929 . S
C290 C291 1.390 . S
C290 N293 1.391 . S
C291 H263 0.930 . S
C291 C290 1.390 . S
C291 C292 1.392 1_455 S
C292 H264 0.929 . S
C292 C289 1.391 1_655 S
C292 C291 1.392 1_655 S
N293 Co237 2.257 . S
N293 C290 1.391 . S
N293 C294 1.388 . S
C294 H265 0.930 . S
C294 C289 1.391 . S
C294 N293 1.388 . S
Co295 O297 2.143 . S
Co295 O303 2.074 . S
Co295 O306 2.093 . S
Co295 O319 2.097 . S
Co295 N336 2.151 . S
Co295 N344 2.214 . S
Co296 O297 2.160 . S
Co296 O302 2.058 . S
Co296 O312 2.057 . S
Co296 O327 2.037 . S
Co296 N331 2.145 . S
Co296 N352 2.257 . S
O297 Co295 2.143 . S
O297 Co296 2.160 . S
C298 O299 1.278 . S
C298 O306 1.224 . S
O299 C298 1.278 . S
C300 O301 1.245 . S
C300 O312 1.232 . S
O301 C300 1.245 . S
O302 Co296 2.058 . S
O302 C328 1.269 . S
O303 Co295 2.074 . S
O303 C328 1.257 . S
H304 C329 0.930 . S
H305 C335 0.930 . S
O306 Co295 2.093 . S
O306 C298 1.224 . S
H307 C339 0.929 1_655 S
H308 C341 0.930 . S
H309 C342 0.930 . S
H310 C340 0.929 . S
H311 C343 0.928 . S
O312 Co296 2.057 . S
O312 C300 1.232 . S
H313 C332 0.929 . S
H314 C333 0.929 . S
H315 C345 0.931 1_655 S
H316 C337 0.929 . S
H317 C346 0.930 . S
H318 C338 0.931 . S
O319 Co295 2.097 . S
O319 C347 1.214 . S
H320 C348 0.929 . S
H321 C349 0.929 . S
H322 C350 0.930 . S
H323 C351 0.929 . S
H324 C353 0.930 . S
H325 C330 0.930 . S
H326 C334 0.930 . S
O327 Co296 2.037 . S
O327 C347 1.234 . S
C328 O302 1.269 . S
C328 O303 1.257 . S
C329 H304 0.930 . S
C329 C332 1.388 . S
C329 C334 1.418 . S
C330 H325 0.930 . S
C330 C333 1.404 . S
C330 C334 1.353 . S
N331 Co296 2.145 . S
N331 C332 1.397 . S
N331 C333 1.334 . S
C332 H313 0.929 . S
C332 C329 1.388 . S
C332 N331 1.397 . S
C333 H314 0.929 . S
C333 C330 1.404 . S
C333 N331 1.334 . S
C334 H326 0.930 . S
C334 C329 1.418 . S
C334 C330 1.353 . S
C335 H305 0.930 . S
C335 N336 1.330 . S
C335 C337 1.446 . S
N336 Co295 2.151 . S
N336 C335 1.330 . S
N336 C340 1.418 . S
C337 H316 0.929 . S
C337 C335 1.446 . S
C337 C338 1.332 . S
C338 H318 0.931 . S
C338 C337 1.332 . S
C338 C339 1.267 . S
C339 H307 0.929 1_455 S
C339 C338 1.267 . S
C339 C340 1.251 . S
C340 H310 0.929 . S
C340 N336 1.418 . S
C340 C339 1.251 . S
C341 H308 0.930 . S
C341 C343 1.406 1_655 S
C341 C346 1.261 . S
C342 H309 0.930 . S
C342 N344 1.325 . S
C342 C345 1.357 . S
C343 H311 0.928 . S
C343 C341 1.406 1_455 S
C343 N344 1.261 . S
N344 Co295 2.214 . S
N344 C342 1.325 . S
N344 C343 1.261 . S
C345 H315 0.931 1_455 S
C345 C342 1.357 . S
C345 C346 1.312 1_455 S
C346 H317 0.930 . S
C346 C341 1.261 . S
C346 C345 1.312 1_655 S
C347 O319 1.214 . S
C347 O327 1.234 . S
C348 H320 0.929 . S
C348 C351 1.391 . S
C348 C353 1.391 . S
C349 H321 0.929 . S
C349 C350 1.390 . S
C349 N352 1.391 . S
C350 H322 0.930 . S
C350 C349 1.390 . S
C350 C351 1.392 . S
C351 H323 0.929 . S
C351 C348 1.391 . S
C351 C350 1.392 . S
N352 Co296 2.257 . S
N352 C349 1.391 . S
N352 C353 1.388 . S
C353 H324 0.930 . S
C353 C348 1.391 . S
C353 N352 1.388 . S
Co354 O356 2.143 . S
Co354 O362 2.074 . S
Co354 O365 2.093 . S
Co354 O378 2.097 . S
Co354 N395 2.151 . S
Co354 N403 2.214 . S
Co355 O356 2.160 . S
Co355 O361 2.058 . S
Co355 O371 2.057 . S
Co355 O386 2.037 . S
Co355 N390 2.145 . S
Co355 N411 2.257 . S
O356 Co354 2.143 . S
O356 Co355 2.160 . S
C357 O358 1.278 . S
C357 O365 1.224 . S
O358 C357 1.278 . S
C359 O360 1.245 . S
C359 O371 1.232 . S
O360 C359 1.245 . S
O361 Co355 2.058 . S
O361 C387 1.269 . S
O362 Co354 2.074 . S
O362 C387 1.257 . S
H363 C388 0.930 . S
H364 C394 0.930 . S
O365 Co354 2.093 . S
O365 C357 1.224 . S
H366 C398 0.929 . S
H367 C400 0.930 . S
H368 C401 0.930 . S
H369 C399 0.929 . S
H370 C402 0.928 . S
O371 Co355 2.057 . S
O371 C359 1.232 . S
H372 C391 0.929 . S
H373 C392 0.929 . S
H374 C404 0.931 . S
H375 C396 0.929 . S
H376 C405 0.930 . S
H377 C397 0.931 . S
O378 Co354 2.097 . S
O378 C406 1.214 . S
H379 C407 0.929 1_455 S
H380 C408 0.929 . S
H381 C409 0.930 . S
H382 C410 0.929 . S
H383 C412 0.930 . S
H384 C389 0.930 . S
H385 C393 0.930 . S
O386 Co355 2.037 . S
O386 C406 1.234 . S
C387 O361 1.269 . S
C387 O362 1.257 . S
C388 H363 0.930 . S
C388 C391 1.388 . S
C388 C393 1.418 . S
C389 H384 0.930 . S
C389 C392 1.404 . S
C389 C393 1.353 . S
N390 Co355 2.145 . S
N390 C391 1.397 . S
N390 C392 1.334 . S
C391 H372 0.929 . S
C391 C388 1.388 . S
C391 N390 1.397 . S
C392 H373 0.929 . S
C392 C389 1.404 . S
C392 N390 1.334 . S
C393 H385 0.930 . S
C393 C388 1.418 . S
C393 C389 1.353 . S
C394 H364 0.930 . S
C394 N395 1.330 . S
C394 C396 1.446 . S
N395 Co354 2.151 . S
N395 C394 1.330 . S
N395 C399 1.418 . S
C396 H375 0.929 . S
C396 C394 1.446 . S
C396 C397 1.332 . S
C397 H377 0.931 . S
C397 C396 1.332 . S
C397 C398 1.267 . S
C398 H366 0.929 . S
C398 C397 1.267 . S
C398 C399 1.251 . S
C399 H369 0.929 . S
C399 N395 1.418 . S
C399 C398 1.251 . S
C400 H367 0.930 . S
C400 C402 1.406 . S
C400 C405 1.261 . S
C401 H368 0.930 . S
C401 N403 1.325 . S
C401 C404 1.357 . S
C402 H370 0.928 . S
C402 C400 1.406 . S
C402 N403 1.261 . S
N403 Co354 2.214 . S
N403 C401 1.325 . S
N403 C402 1.261 . S
C404 H374 0.931 . S
C404 C401 1.357 . S
C404 C405 1.312 . S
C405 H376 0.930 . S
C405 C400 1.261 . S
C405 C404 1.312 . S
C406 O378 1.214 . S
C406 O386 1.234 . S
C407 H379 0.929 1_655 S
C407 C410 1.391 1_655 S
C407 C412 1.391 . S
C408 H380 0.929 . S
C408 C409 1.390 . S
C408 N411 1.391 . S
C409 H381 0.930 . S
C409 C408 1.390 . S
C409 C410 1.392 1_655 S
C410 H382 0.929 . S
C410 C407 1.391 1_455 S
C410 C409 1.392 1_455 S
N411 Co355 2.257 . S
N411 C408 1.391 . S
N411 C412 1.388 . S
C412 H383 0.930 . S
C412 C407 1.391 . S
C412 N411 1.388 . S
Co413 O415 2.143 . S
Co413 O421 2.074 . S
Co413 O424 2.093 . S
Co413 O437 2.097 . S
Co413 N454 2.151 . S
Co413 N462 2.214 . S
Co414 O415 2.160 . S
Co414 O420 2.058 . S
Co414 O430 2.057 . S
Co414 O445 2.037 . S
Co414 N449 2.145 . S
Co414 N470 2.257 . S
O415 Co413 2.143 . S
O415 Co414 2.160 . S
C416 O417 1.278 . S
C416 O424 1.224 . S
O417 C416 1.278 . S
C418 O419 1.245 . S
C418 O430 1.232 . S
O419 C418 1.245 . S
O420 Co414 2.058 . S
O420 C446 1.269 . S
O421 Co413 2.074 . S
O421 C446 1.257 . S
H422 C447 0.930 . S
H423 C453 0.930 . S
O424 Co413 2.093 . S
O424 C416 1.224 . S
H425 C457 0.929 1_455 S
H426 C459 0.930 . S
H427 C460 0.930 . S
H428 C458 0.929 . S
H429 C461 0.928 . S
O430 Co414 2.057 . S
O430 C418 1.232 . S
H431 C450 0.929 . S
H432 C451 0.929 . S
H433 C463 0.931 1_455 S
H434 C455 0.929 . S
H435 C464 0.930 . S
H436 C456 0.931 . S
O437 Co413 2.097 . S
O437 C465 1.214 . S
H438 C466 0.929 . S
H439 C467 0.929 . S
H440 C468 0.930 . S
H441 C469 0.929 . S
H442 C471 0.930 . S
H443 C448 0.930 . S
H444 C452 0.930 . S
O445 Co414 2.037 . S
O445 C465 1.234 . S
C446 O420 1.269 . S
C446 O421 1.257 . S
C447 H422 0.930 . S
C447 C450 1.388 . S
C447 C452 1.418 . S
C448 H443 0.930 . S
C448 C451 1.404 . S
C448 C452 1.353 . S
N449 Co414 2.145 . S
N449 C450 1.397 . S
N449 C451 1.334 . S
C450 H431 0.929 . S
C450 C447 1.388 . S
C450 N449 1.397 . S
C451 H432 0.929 . S
C451 C448 1.404 . S
C451 N449 1.334 . S
C452 H444 0.930 . S
C452 C447 1.418 . S
C452 C448 1.353 . S
C453 H423 0.930 . S
C453 N454 1.330 . S
C453 C455 1.446 . S
N454 Co413 2.151 . S
N454 C453 1.330 . S
N454 C458 1.418 . S
C455 H434 0.929 . S
C455 C453 1.446 . S
C455 C456 1.332 . S
C456 H436 0.931 . S
C456 C455 1.332 . S
C456 C457 1.267 . S
C457 H425 0.929 1_655 S
C457 C456 1.267 . S
C457 C458 1.251 . S
C458 H428 0.929 . S
C458 N454 1.418 . S
C458 C457 1.251 . S
C459 H426 0.930 . S
C459 C461 1.406 1_455 S
C459 C464 1.261 . S
C460 H427 0.930 . S
C460 N462 1.325 . S
C460 C463 1.357 . S
C461 H429 0.928 . S
C461 C459 1.406 1_655 S
C461 N462 1.261 . S
N462 Co413 2.214 . S
N462 C460 1.325 . S
N462 C461 1.261 . S
C463 H433 0.931 1_655 S
C463 C460 1.357 . S
C463 C464 1.312 1_655 S
C464 H435 0.930 . S
C464 C459 1.261 . S
C464 C463 1.312 1_455 S
C465 O437 1.214 . S
C465 O445 1.234 . S
C466 H438 0.929 . S
C466 C469 1.391 . S
C466 C471 1.391 . S
C467 H439 0.929 . S
C467 C468 1.390 . S
C467 N470 1.391 . S
C468 H440 0.930 . S
C468 C467 1.390 . S
C468 C469 1.392 . S
C469 H441 0.929 . S
C469 C466 1.391 . S
C469 C468 1.392 . S
N470 Co414 2.257 . S
N470 C467 1.391 . S
N470 C471 1.388 . S
C471 H442 0.930 . S
C471 C466 1.391 . S
C471 N470 1.388 . S
Co472 O474 2.143 . S
Co472 O480 2.074 . S
Co472 O483 2.093 . S
Co472 O496 2.097 . S
Co472 N513 2.151 . S
Co472 N521 2.214 . S
Co473 O474 2.160 . S
Co473 O479 2.058 . S
Co473 O489 2.057 . S
Co473 O504 2.037 . S
Co473 N508 2.145 . S
Co473 N529 2.257 . S
O474 Co472 2.143 . S
O474 Co473 2.160 . S
C475 O476 1.278 1_565 S
C475 O483 1.224 1_565 S
O476 C475 1.278 1_545 S
C477 O478 1.245 . S
C477 O489 1.232 . S
O478 C477 1.245 . S
O479 Co473 2.058 . S
O479 C505 1.269 . S
O480 Co472 2.074 . S
O480 C505 1.257 . S
H481 C506 0.930 . S
H482 C512 0.930 . S
O483 Co472 2.093 . S
O483 C475 1.224 1_545 S
H484 C516 0.929 . S
H485 C518 0.930 . S
H486 C519 0.930 . S
H487 C517 0.929 . S
H488 C520 0.928 . S
O489 Co473 2.057 . S
O489 C477 1.232 . S
H490 C509 0.929 . S
H491 C510 0.929 . S
H492 C522 0.931 . S
H493 C514 0.929 . S
H494 C523 0.930 . S
H495 C515 0.931 . S
O496 Co472 2.097 . S
O496 C524 1.214 . S
H497 C525 0.929 . S
H498 C526 0.929 . S
H499 C527 0.930 . S
H500 C528 0.929 . S
H501 C530 0.930 . S
H502 C507 0.930 . S
H503 C511 0.930 . S
O504 Co473 2.037 . S
O504 C524 1.234 . S
C505 O479 1.269 . S
C505 O480 1.257 . S
C506 H481 0.930 . S
C506 C509 1.388 . S
C506 C511 1.418 . S
C507 H502 0.930 . S
C507 C510 1.404 . S
C507 C511 1.353 . S
N508 Co473 2.145 . S
N508 C509 1.397 . S
N508 C510 1.334 . S
C509 H490 0.929 . S
C509 C506 1.388 . S
C509 N508 1.397 . S
C510 H491 0.929 . S
C510 C507 1.404 . S
C510 N508 1.334 . S
C511 H503 0.930 . S
C511 C506 1.418 . S
C511 C507 1.353 . S
C512 H482 0.930 . S
C512 N513 1.330 1_565 S
C512 C514 1.446 . S
N513 Co472 2.151 . S
N513 C512 1.330 1_545 S
N513 C517 1.418 . S
C514 H493 0.929 . S
C514 C512 1.446 . S
C514 C515 1.332 . S
C515 H495 0.931 . S
C515 C514 1.332 . S
C515 C516 1.267 . S
C516 H484 0.929 . S
C516 C515 1.267 . S
C516 C517 1.251 1_565 S
C517 H487 0.929 . S
C517 N513 1.418 . S
C517 C516 1.251 1_545 S
C518 H485 0.930 . S
C518 C520 1.406 . S
C518 C523 1.261 . S
C519 H486 0.930 . S
C519 N521 1.325 . S
C519 C522 1.357 . S
C520 H488 0.928 . S
C520 C518 1.406 . S
C520 N521 1.261 . S
N521 Co472 2.214 . S
N521 C519 1.325 . S
N521 C520 1.261 . S
C522 H492 0.931 . S
C522 C519 1.357 . S
C522 C523 1.312 . S
C523 H494 0.930 . S
C523 C518 1.261 . S
C523 C522 1.312 . S
C524 O496 1.214 . S
C524 O504 1.234 . S
C525 H497 0.929 . S
C525 C528 1.391 . S
C525 C530 1.391 . S
C526 H498 0.929 . S
C526 C527 1.390 . S
C526 N529 1.391 . S
C527 H499 0.930 . S
C527 C526 1.390 . S
C527 C528 1.392 . S
C528 H500 0.929 . S
C528 C525 1.391 . S
C528 C527 1.392 . S
N529 Co473 2.257 . S
N529 C526 1.391 . S
N529 C530 1.388 . S
C530 H501 0.930 . S
C530 C525 1.391 . S
C530 N529 1.388 . S
Co531 O533 2.143 . S
Co531 O539 2.074 . S
Co531 O542 2.093 . S
Co531 O555 2.097 . S
Co531 N572 2.151 . S
Co531 N580 2.214 . S
Co532 O533 2.160 . S
Co532 O538 2.058 . S
Co532 O548 2.057 . S
Co532 O563 2.037 . S
Co532 N567 2.145 . S
Co532 N588 2.257 . S
O533 Co531 2.143 . S
O533 Co532 2.160 . S
C534 O535 1.278 1_565 S
C534 O542 1.224 1_565 S
O535 C534 1.278 1_545 S
C536 O537 1.245 . S
C536 O548 1.232 . S
O537 C536 1.245 . S
O538 Co532 2.058 . S
O538 C564 1.269 . S
O539 Co531 2.074 . S
O539 C564 1.257 . S
H540 C565 0.930 . S
H541 C571 0.930 . S
O542 Co531 2.093 . S
O542 C534 1.224 1_545 S
H543 C575 0.929 . S
H544 C577 0.930 . S
H545 C578 0.930 . S
H546 C576 0.929 . S
H547 C579 0.928 . S
O548 Co532 2.057 . S
O548 C536 1.232 . S
H549 C568 0.929 . S
H550 C569 0.929 . S
H551 C581 0.931 . S
H552 C573 0.929 . S
H553 C582 0.930 . S
H554 C574 0.931 . S
O555 Co531 2.097 . S
O555 C583 1.214 . S
H556 C584 0.929 . S
H557 C585 0.929 . S
H558 C586 0.930 . S
H559 C587 0.929 . S
H560 C589 0.930 . S
H561 C566 0.930 . S
H562 C570 0.930 . S
O563 Co532 2.037 . S
O563 C583 1.234 . S
C564 O538 1.269 . S
C564 O539 1.257 . S
C565 H540 0.930 . S
C565 C568 1.388 . S
C565 C570 1.418 . S
C566 H561 0.930 . S
C566 C569 1.404 . S
C566 C570 1.353 . S
N567 Co532 2.145 . S
N567 C568 1.397 . S
N567 C569 1.334 . S
C568 H549 0.929 . S
C568 C565 1.388 . S
C568 N567 1.397 . S
C569 H550 0.929 . S
C569 C566 1.404 . S
C569 N567 1.334 . S
C570 H562 0.930 . S
C570 C565 1.418 . S
C570 C566 1.353 . S
C571 H541 0.930 . S
C571 N572 1.330 1_565 S
C571 C573 1.446 . S
N572 Co531 2.151 . S
N572 C571 1.330 1_545 S
N572 C576 1.418 . S
C573 H552 0.929 . S
C573 C571 1.446 . S
C573 C574 1.332 . S
C574 H554 0.931 . S
C574 C573 1.332 . S
C574 C575 1.267 . S
C575 H543 0.929 . S
C575 C574 1.267 . S
C575 C576 1.251 1_565 S
C576 H546 0.929 . S
C576 N572 1.418 . S
C576 C575 1.251 1_545 S
C577 H544 0.930 . S
C577 C579 1.406 . S
C577 C582 1.261 . S
C578 H545 0.930 . S
C578 N580 1.325 . S
C578 C581 1.357 . S
C579 H547 0.928 . S
C579 C577 1.406 . S
C579 N580 1.261 . S
N580 Co531 2.214 . S
N580 C578 1.325 . S
N580 C579 1.261 . S
C581 H551 0.931 . S
C581 C578 1.357 . S
C581 C582 1.312 . S
C582 H553 0.930 . S
C582 C577 1.261 . S
C582 C581 1.312 . S
C583 O555 1.214 . S
C583 O563 1.234 . S
C584 H556 0.929 . S
C584 C587 1.391 . S
C584 C589 1.391 . S
C585 H557 0.929 . S
C585 C586 1.390 . S
C585 N588 1.391 . S
C586 H558 0.930 . S
C586 C585 1.390 . S
C586 C587 1.392 . S
C587 H559 0.929 . S
C587 C584 1.391 . S
C587 C586 1.392 . S
N588 Co532 2.257 . S
N588 C585 1.391 . S
N588 C589 1.388 . S
C589 H560 0.930 . S
C589 C584 1.391 . S
C589 N588 1.388 . S
Co590 O592 2.143 . S
Co590 O598 2.074 . S
Co590 O601 2.093 . S
Co590 O614 2.097 . S
Co590 N631 2.151 . S
Co590 N639 2.214 . S
Co591 O592 2.160 . S
Co591 O597 2.058 . S
Co591 O607 2.057 . S
Co591 O622 2.037 . S
Co591 N626 2.145 . S
Co591 N647 2.257 . S
O592 Co590 2.143 . S
O592 Co591 2.160 . S
C593 O594 1.278 1_545 S
C593 O601 1.224 1_545 S
O594 C593 1.278 1_565 S
C595 O596 1.245 . S
C595 O607 1.232 . S
O596 C595 1.245 . S
O597 Co591 2.058 . S
O597 C623 1.269 . S
O598 Co590 2.074 . S
O598 C623 1.257 . S
H599 C624 0.930 . S
H600 C630 0.930 . S
O601 Co590 2.093 . S
O601 C593 1.224 1_565 S
H602 C634 0.929 . S
H603 C636 0.930 . S
H604 C637 0.930 . S
H605 C635 0.929 . S
H606 C638 0.928 . S
O607 Co591 2.057 . S
O607 C595 1.232 . S
H608 C627 0.929 . S
H609 C628 0.929 . S
H610 C640 0.931 . S
H611 C632 0.929 . S
H612 C641 0.930 . S
H613 C633 0.931 . S
O614 Co590 2.097 . S
O614 C642 1.214 . S
H615 C643 0.929 . S
H616 C644 0.929 . S
H617 C645 0.930 . S
H618 C646 0.929 . S
H619 C648 0.930 . S
H620 C625 0.930 . S
H621 C629 0.930 . S
O622 Co591 2.037 . S
O622 C642 1.234 . S
C623 O597 1.269 . S
C623 O598 1.257 . S
C624 H599 0.930 . S
C624 C627 1.388 . S
C624 C629 1.418 . S
C625 H620 0.930 . S
C625 C628 1.404 . S
C625 C629 1.353 . S
N626 Co591 2.145 . S
N626 C627 1.397 . S
N626 C628 1.334 . S
C627 H608 0.929 . S
C627 C624 1.388 . S
C627 N626 1.397 . S
C628 H609 0.929 . S
C628 C625 1.404 . S
C628 N626 1.334 . S
C629 H621 0.930 . S
C629 C624 1.418 . S
C629 C625 1.353 . S
C630 H600 0.930 . S
C630 N631 1.330 1_545 S
C630 C632 1.446 . S
N631 Co590 2.151 . S
N631 C630 1.330 1_565 S
N631 C635 1.418 . S
C632 H611 0.929 . S
C632 C630 1.446 . S
C632 C633 1.332 . S
C633 H613 0.931 . S
C633 C632 1.332 . S
C633 C634 1.267 . S
C634 H602 0.929 . S
C634 C633 1.267 . S
C634 C635 1.251 1_545 S
C635 H605 0.929 . S
C635 N631 1.418 . S
C635 C634 1.251 1_565 S
C636 H603 0.930 . S
C636 C638 1.406 . S
C636 C641 1.261 . S
C637 H604 0.930 . S
C637 N639 1.325 . S
C637 C640 1.357 . S
C638 H606 0.928 . S
C638 C636 1.406 . S
C638 N639 1.261 . S
N639 Co590 2.214 . S
N639 C637 1.325 . S
N639 C638 1.261 . S
C640 H610 0.931 . S
C640 C637 1.357 . S
C640 C641 1.312 . S
C641 H612 0.930 . S
C641 C636 1.261 . S
C641 C640 1.312 . S
C642 O614 1.214 . S
C642 O622 1.234 . S
C643 H615 0.929 . S
C643 C646 1.391 . S
C643 C648 1.391 . S
C644 H616 0.929 . S
C644 C645 1.390 . S
C644 N647 1.391 . S
C645 H617 0.930 . S
C645 C644 1.390 . S
C645 C646 1.392 . S
C646 H618 0.929 . S
C646 C643 1.391 . S
C646 C645 1.392 . S
N647 Co591 2.257 . S
N647 C644 1.391 . S
N647 C648 1.388 . S
C648 H619 0.930 . S
C648 C643 1.391 . S
C648 N647 1.388 . S
Co649 O651 2.143 . S
Co649 O657 2.074 . S
Co649 O660 2.093 . S
Co649 O673 2.097 . S
Co649 N690 2.151 . S
Co649 N698 2.214 . S
Co650 O651 2.160 . S
Co650 O656 2.058 . S
Co650 O666 2.057 . S
Co650 O681 2.037 . S
Co650 N685 2.145 . S
Co650 N706 2.257 . S
O651 Co649 2.143 . S
O651 Co650 2.160 . S
C652 O653 1.278 1_545 S
C652 O660 1.224 1_545 S
O653 C652 1.278 1_565 S
C654 O655 1.245 . S
C654 O666 1.232 . S
O655 C654 1.245 . S
O656 Co650 2.058 . S
O656 C682 1.269 . S
O657 Co649 2.074 . S
O657 C682 1.257 . S
H658 C683 0.930 . S
H659 C689 0.930 . S
O660 Co649 2.093 . S
O660 C652 1.224 1_565 S
H661 C693 0.929 . S
H662 C695 0.930 . S
H663 C696 0.930 . S
H664 C694 0.929 . S
H665 C697 0.928 . S
O666 Co650 2.057 . S
O666 C654 1.232 . S
H667 C686 0.929 . S
H668 C687 0.929 . S
H669 C699 0.931 . S
H670 C691 0.929 . S
H671 C700 0.930 . S
H672 C692 0.931 . S
O673 Co649 2.097 . S
O673 C701 1.214 . S
H674 C702 0.929 . S
H675 C703 0.929 . S
H676 C704 0.930 . S
H677 C705 0.929 . S
H678 C707 0.930 . S
H679 C684 0.930 . S
H680 C688 0.930 . S
O681 Co650 2.037 . S
O681 C701 1.234 . S
C682 O656 1.269 . S
C682 O657 1.257 . S
C683 H658 0.930 . S
C683 C686 1.388 . S
C683 C688 1.418 . S
C684 H679 0.930 . S
C684 C687 1.404 . S
C684 C688 1.353 . S
N685 Co650 2.145 . S
N685 C686 1.397 . S
N685 C687 1.334 . S
C686 H667 0.929 . S
C686 C683 1.388 . S
C686 N685 1.397 . S
C687 H668 0.929 . S
C687 C684 1.404 . S
C687 N685 1.334 . S
C688 H680 0.930 . S
C688 C683 1.418 . S
C688 C684 1.353 . S
C689 H659 0.930 . S
C689 N690 1.330 1_545 S
C689 C691 1.446 . S
N690 Co649 2.151 . S
N690 C689 1.330 1_565 S
N690 C694 1.418 . S
C691 H670 0.929 . S
C691 C689 1.446 . S
C691 C692 1.332 . S
C692 H672 0.931 . S
C692 C691 1.332 . S
C692 C693 1.267 . S
C693 H661 0.929 . S
C693 C692 1.267 . S
C693 C694 1.251 1_545 S
C694 H664 0.929 . S
C694 N690 1.418 . S
C694 C693 1.251 1_565 S
C695 H662 0.930 . S
C695 C697 1.406 . S
C695 C700 1.261 . S
C696 H663 0.930 . S
C696 N698 1.325 . S
C696 C699 1.357 . S
C697 H665 0.928 . S
C697 C695 1.406 . S
C697 N698 1.261 . S
N698 Co649 2.214 . S
N698 C696 1.325 . S
N698 C697 1.261 . S
C699 H669 0.931 . S
C699 C696 1.357 . S
C699 C700 1.312 . S
C700 H671 0.930 . S
C700 C695 1.261 . S
C700 C699 1.312 . S
C701 O673 1.214 . S
C701 O681 1.234 . S
C702 H674 0.929 . S
C702 C705 1.391 . S
C702 C707 1.391 . S
C703 H675 0.929 . S
C703 C704 1.390 . S
C703 N706 1.391 . S
C704 H676 0.930 . S
C704 C703 1.390 . S
C704 C705 1.392 . S
C705 H677 0.929 . S
C705 C702 1.391 . S
C705 C704 1.392 . S
N706 Co650 2.257 . S
N706 C703 1.391 . S
N706 C707 1.388 . S
C707 H678 0.930 . S
C707 C702 1.391 . S
C707 N706 1.388 . S
Co708 O710 2.143 . S
Co708 O716 2.074 . S
Co708 O719 2.093 . S
Co708 O732 2.097 . S
Co708 N749 2.151 . S
Co708 N757 2.214 . S
Co709 O710 2.160 . S
Co709 O715 2.058 . S
Co709 O725 2.057 . S
Co709 O740 2.037 . S
Co709 N744 2.145 . S
Co709 N765 2.257 . S
O710 Co708 2.143 . S
O710 Co709 2.160 . S
C711 O712 1.278 . S
C711 O719 1.224 . S
O712 C711 1.278 . S
C713 O714 1.245 . S
C713 O725 1.232 . S
O714 C713 1.245 . S
O715 Co709 2.058 . S
O715 C741 1.269 . S
O716 Co708 2.074 . S
O716 C741 1.257 . S
H717 C742 0.930 . S
H718 C748 0.930 . S
O719 Co708 2.093 . S
O719 C711 1.224 . S
H720 C752 0.929 . S
H721 C754 0.930 . S
H722 C755 0.930 . S
H723 C753 0.929 . S
H724 C756 0.928 . S
O725 Co709 2.057 . S
O725 C713 1.232 . S
H726 C745 0.929 . S
H727 C746 0.929 . S
H728 C758 0.931 . S
H729 C750 0.929 . S
H730 C759 0.930 . S
H731 C751 0.931 . S
O732 Co708 2.097 . S
O732 C760 1.214 . S
H733 C761 0.929 . S
H734 C762 0.929 . S
H735 C763 0.930 . S
H736 C764 0.929 . S
H737 C766 0.930 . S
H738 C743 0.930 . S
H739 C747 0.930 . S
O740 Co709 2.037 . S
O740 C760 1.234 . S
C741 O715 1.269 . S
C741 O716 1.257 . S
C742 H717 0.930 . S
C742 C745 1.388 . S
C742 C747 1.418 . S
C743 H738 0.930 . S
C743 C746 1.404 . S
C743 C747 1.353 . S
N744 Co709 2.145 . S
N744 C745 1.397 . S
N744 C746 1.334 . S
C745 H726 0.929 . S
C745 C742 1.388 . S
C745 N744 1.397 . S
C746 H727 0.929 . S
C746 C743 1.404 . S
C746 N744 1.334 . S
C747 H739 0.930 . S
C747 C742 1.418 . S
C747 C743 1.353 . S
C748 H718 0.930 . S
C748 N749 1.330 . S
C748 C750 1.446 . S
N749 Co708 2.151 . S
N749 C748 1.330 . S
N749 C753 1.418 . S
C750 H729 0.929 . S
C750 C748 1.446 . S
C750 C751 1.332 . S
C751 H731 0.931 . S
C751 C750 1.332 . S
C751 C752 1.267 . S
C752 H720 0.929 . S
C752 C751 1.267 . S
C752 C753 1.251 . S
C753 H723 0.929 . S
C753 N749 1.418 . S
C753 C752 1.251 . S
C754 H721 0.930 . S
C754 C756 1.406 . S
C754 C759 1.261 . S
C755 H722 0.930 . S
C755 N757 1.325 . S
C755 C758 1.357 . S
C756 H724 0.928 . S
C756 C754 1.406 . S
C756 N757 1.261 . S
N757 Co708 2.214 . S
N757 C755 1.325 . S
N757 C756 1.261 . S
C758 H728 0.931 . S
C758 C755 1.357 . S
C758 C759 1.312 . S
C759 H730 0.930 . S
C759 C754 1.261 . S
C759 C758 1.312 . S
C760 O732 1.214 . S
C760 O740 1.234 . S
C761 H733 0.929 . S
C761 C764 1.391 . S
C761 C766 1.391 . S
C762 H734 0.929 . S
C762 C763 1.390 . S
C762 N765 1.391 . S
C763 H735 0.930 . S
C763 C762 1.390 . S
C763 C764 1.392 . S
C764 H736 0.929 . S
C764 C761 1.391 . S
C764 C763 1.392 . S
N765 Co709 2.257 . S
N765 C762 1.391 . S
N765 C766 1.388 . S
C766 H737 0.930 . S
C766 C761 1.391 . S
C766 N765 1.388 . S
Co767 O769 2.143 . S
Co767 O775 2.074 . S
Co767 O778 2.093 . S
Co767 O791 2.097 . S
Co767 N808 2.151 . S
Co767 N816 2.214 . S
Co768 O769 2.160 . S
Co768 O774 2.058 . S
Co768 O784 2.057 . S
Co768 O799 2.037 . S
Co768 N803 2.145 . S
Co768 N824 2.257 . S
O769 Co767 2.143 . S
O769 Co768 2.160 . S
C770 O771 1.278 . S
C770 O778 1.224 . S
O771 C770 1.278 . S
C772 O773 1.245 . S
C772 O784 1.232 . S
O773 C772 1.245 . S
O774 Co768 2.058 . S
O774 C800 1.269 . S
O775 Co767 2.074 . S
O775 C800 1.257 . S
H776 C801 0.930 . S
H777 C807 0.930 . S
O778 Co767 2.093 . S
O778 C770 1.224 . S
H779 C811 0.929 . S
H780 C813 0.930 . S
H781 C814 0.930 . S
H782 C812 0.929 . S
H783 C815 0.928 . S
O784 Co768 2.057 . S
O784 C772 1.232 . S
H785 C804 0.929 . S
H786 C805 0.929 . S
H787 C817 0.931 . S
H788 C809 0.929 . S
H789 C818 0.930 . S
H790 C810 0.931 . S
O791 Co767 2.097 . S
O791 C819 1.214 . S
H792 C820 0.929 . S
H793 C821 0.929 . S
H794 C822 0.930 . S
H795 C823 0.929 . S
H796 C825 0.930 . S
H797 C802 0.930 . S
H798 C806 0.930 . S
O799 Co768 2.037 . S
O799 C819 1.234 . S
C800 O774 1.269 . S
C800 O775 1.257 . S
C801 H776 0.930 . S
C801 C804 1.388 . S
C801 C806 1.418 . S
C802 H797 0.930 . S
C802 C805 1.404 . S
C802 C806 1.353 . S
N803 Co768 2.145 . S
N803 C804 1.397 . S
N803 C805 1.334 . S
C804 H785 0.929 . S
C804 C801 1.388 . S
C804 N803 1.397 . S
C805 H786 0.929 . S
C805 C802 1.404 . S
C805 N803 1.334 . S
C806 H798 0.930 . S
C806 C801 1.418 . S
C806 C802 1.353 . S
C807 H777 0.930 . S
C807 N808 1.330 . S
C807 C809 1.446 . S
N808 Co767 2.151 . S
N808 C807 1.330 . S
N808 C812 1.418 . S
C809 H788 0.929 . S
C809 C807 1.446 . S
C809 C810 1.332 . S
C810 H790 0.931 . S
C810 C809 1.332 . S
C810 C811 1.267 . S
C811 H779 0.929 . S
C811 C810 1.267 . S
C811 C812 1.251 . S
C812 H782 0.929 . S
C812 N808 1.418 . S
C812 C811 1.251 . S
C813 H780 0.930 . S
C813 C815 1.406 . S
C813 C818 1.261 . S
C814 H781 0.930 . S
C814 N816 1.325 . S
C814 C817 1.357 . S
C815 H783 0.928 . S
C815 C813 1.406 . S
C815 N816 1.261 . S
N816 Co767 2.214 . S
N816 C814 1.325 . S
N816 C815 1.261 . S
C817 H787 0.931 . S
C817 C814 1.357 . S
C817 C818 1.312 . S
C818 H789 0.930 . S
C818 C813 1.261 . S
C818 C817 1.312 . S
C819 O791 1.214 . S
C819 O799 1.234 . S
C820 H792 0.929 . S
C820 C823 1.391 . S
C820 C825 1.391 . S
C821 H793 0.929 . S
C821 C822 1.390 . S
C821 N824 1.391 . S
C822 H794 0.930 . S
C822 C821 1.390 . S
C822 C823 1.392 . S
C823 H795 0.929 . S
C823 C820 1.391 . S
C823 C822 1.392 . S
N824 Co768 2.257 . S
N824 C821 1.391 . S
N824 C825 1.388 . S
C825 H796 0.930 . S
C825 C820 1.391 . S
C825 N824 1.388 . S
Co826 O828 2.143 . S
Co826 O834 2.074 . S
Co826 O837 2.093 . S
Co826 O850 2.097 . S
Co826 N867 2.151 . S
Co826 N875 2.214 . S
Co827 O828 2.160 . S
Co827 O833 2.058 . S
Co827 O843 2.057 . S
Co827 O858 2.037 . S
Co827 N862 2.145 . S
Co827 N883 2.257 . S
O828 Co826 2.143 . S
O828 Co827 2.160 . S
C829 O830 1.278 . S
C829 O837 1.224 . S
O830 C829 1.278 . S
C831 O832 1.245 . S
C831 O843 1.232 . S
O832 C831 1.245 . S
O833 Co827 2.058 . S
O833 C859 1.269 . S
O834 Co826 2.074 . S
O834 C859 1.257 . S
H835 C860 0.930 . S
H836 C866 0.930 . S
O837 Co826 2.093 . S
O837 C829 1.224 . S
H838 C870 0.929 . S
H839 C872 0.930 . S
H840 C873 0.930 . S
H841 C871 0.929 . S
H842 C874 0.928 . S
O843 Co827 2.057 . S
O843 C831 1.232 . S
H844 C863 0.929 . S
H845 C864 0.929 . S
H846 C876 0.931 . S
H847 C868 0.929 . S
H848 C877 0.930 . S
H849 C869 0.931 . S
O850 Co826 2.097 . S
O850 C878 1.214 . S
H851 C879 0.929 . S
H852 C880 0.929 . S
H853 C881 0.930 . S
H854 C882 0.929 . S
H855 C884 0.930 . S
H856 C861 0.930 . S
H857 C865 0.930 . S
O858 Co827 2.037 . S
O858 C878 1.234 . S
C859 O833 1.269 . S
C859 O834 1.257 . S
C860 H835 0.930 . S
C860 C863 1.388 . S
C860 C865 1.418 . S
C861 H856 0.930 . S
C861 C864 1.404 . S
C861 C865 1.353 . S
N862 Co827 2.145 . S
N862 C863 1.397 . S
N862 C864 1.334 . S
C863 H844 0.929 . S
C863 C860 1.388 . S
C863 N862 1.397 . S
C864 H845 0.929 . S
C864 C861 1.404 . S
C864 N862 1.334 . S
C865 H857 0.930 . S
C865 C860 1.418 . S
C865 C861 1.353 . S
C866 H836 0.930 . S
C866 N867 1.330 . S
C866 C868 1.446 . S
N867 Co826 2.151 . S
N867 C866 1.330 . S
N867 C871 1.418 . S
C868 H847 0.929 . S
C868 C866 1.446 . S
C868 C869 1.332 . S
C869 H849 0.931 . S
C869 C868 1.332 . S
C869 C870 1.267 . S
C870 H838 0.929 . S
C870 C869 1.267 . S
C870 C871 1.251 . S
C871 H841 0.929 . S
C871 N867 1.418 . S
C871 C870 1.251 . S
C872 H839 0.930 . S
C872 C874 1.406 . S
C872 C877 1.261 . S
C873 H840 0.930 . S
C873 N875 1.325 . S
C873 C876 1.357 . S
C874 H842 0.928 . S
C874 C872 1.406 . S
C874 N875 1.261 . S
N875 Co826 2.214 . S
N875 C873 1.325 . S
N875 C874 1.261 . S
C876 H846 0.931 . S
C876 C873 1.357 . S
C876 C877 1.312 . S
C877 H848 0.930 . S
C877 C872 1.261 . S
C877 C876 1.312 . S
C878 O850 1.214 . S
C878 O858 1.234 . S
C879 H851 0.929 . S
C879 C882 1.391 . S
C879 C884 1.391 . S
C880 H852 0.929 . S
C880 C881 1.390 . S
C880 N883 1.391 . S
C881 H853 0.930 . S
C881 C880 1.390 . S
C881 C882 1.392 . S
C882 H854 0.929 . S
C882 C879 1.391 . S
C882 C881 1.392 . S
N883 Co827 2.257 . S
N883 C880 1.391 . S
N883 C884 1.388 . S
C884 H855 0.930 . S
C884 C879 1.391 . S
C884 N883 1.388 . S
Co885 O887 2.143 . S
Co885 O893 2.074 . S
Co885 O896 2.093 . S
Co885 O909 2.097 . S
Co885 N926 2.151 . S
Co885 N934 2.214 . S
Co886 O887 2.160 . S
Co886 O892 2.058 . S
Co886 O902 2.057 . S
Co886 O917 2.037 . S
Co886 N921 2.145 . S
Co886 N942 2.257 . S
O887 Co885 2.143 . S
O887 Co886 2.160 . S
C888 O889 1.278 . S
C888 O896 1.224 . S
O889 C888 1.278 . S
C890 O891 1.245 . S
C890 O902 1.232 . S
O891 C890 1.245 . S
O892 Co886 2.058 . S
O892 C918 1.269 . S
O893 Co885 2.074 . S
O893 C918 1.257 . S
H894 C919 0.930 . S
H895 C925 0.930 . S
O896 Co885 2.093 . S
O896 C888 1.224 . S
H897 C929 0.929 . S
H898 C931 0.930 . S
H899 C932 0.930 . S
H900 C930 0.929 . S
H901 C933 0.928 . S
O902 Co886 2.057 . S
O902 C890 1.232 . S
H903 C922 0.929 . S
H904 C923 0.929 . S
H905 C935 0.931 . S
H906 C927 0.929 . S
H907 C936 0.930 . S
H908 C928 0.931 . S
O909 Co885 2.097 . S
O909 C937 1.214 . S
H910 C938 0.929 . S
H911 C939 0.929 . S
H912 C940 0.930 . S
H913 C941 0.929 . S
H914 C943 0.930 . S
H915 C920 0.930 . S
H916 C924 0.930 . S
O917 Co886 2.037 . S
O917 C937 1.234 . S
C918 O892 1.269 . S
C918 O893 1.257 . S
C919 H894 0.930 . S
C919 C922 1.388 . S
C919 C924 1.418 . S
C920 H915 0.930 . S
C920 C923 1.404 . S
C920 C924 1.353 . S
N921 Co886 2.145 . S
N921 C922 1.397 . S
N921 C923 1.334 . S
C922 H903 0.929 . S
C922 C919 1.388 . S
C922 N921 1.397 . S
C923 H904 0.929 . S
C923 C920 1.404 . S
C923 N921 1.334 . S
C924 H916 0.930 . S
C924 C919 1.418 . S
C924 C920 1.353 . S
C925 H895 0.930 . S
C925 N926 1.330 . S
C925 C927 1.446 . S
N926 Co885 2.151 . S
N926 C925 1.330 . S
N926 C930 1.418 . S
C927 H906 0.929 . S
C927 C925 1.446 . S
C927 C928 1.332 . S
C928 H908 0.931 . S
C928 C927 1.332 . S
C928 C929 1.267 . S
C929 H897 0.929 . S
C929 C928 1.267 . S
C929 C930 1.251 . S
C930 H900 0.929 . S
C930 N926 1.418 . S
C930 C929 1.251 . S
C931 H898 0.930 . S
C931 C933 1.406 . S
C931 C936 1.261 . S
C932 H899 0.930 . S
C932 N934 1.325 . S
C932 C935 1.357 . S
C933 H901 0.928 . S
C933 C931 1.406 . S
C933 N934 1.261 . S
N934 Co885 2.214 . S
N934 C932 1.325 . S
N934 C933 1.261 . S
C935 H905 0.931 . S
C935 C932 1.357 . S
C935 C936 1.312 . S
C936 H907 0.930 . S
C936 C931 1.261 . S
C936 C935 1.312 . S
C937 O909 1.214 . S
C937 O917 1.234 . S
C938 H910 0.929 . S
C938 C941 1.391 . S
C938 C943 1.391 . S
C939 H911 0.929 . S
C939 C940 1.390 . S
C939 N942 1.391 . S
C940 H912 0.930 . S
C940 C939 1.390 . S
C940 C941 1.392 . S
C941 H913 0.929 . S
C941 C938 1.391 . S
C941 C940 1.392 . S
N942 Co886 2.257 . S
N942 C939 1.391 . S
N942 C943 1.388 . S
C943 H914 0.930 . S
C943 C938 1.391 . S
C943 N942 1.388 . S
H944 C950 0.930 . S
H945 C954 0.930 . S
H946 C959 0.929 . S
H947 C957 0.929 . S
H948 C952 0.929 . S
H949 C958 0.929 . S
C950 H944 0.930 . S
C950 C951 1.367 . S
C950 C958 1.378 . S
C951 C950 1.367 . S
C951 C959 1.433 . S
C952 H948 0.929 . S
C952 C954 1.378 . S
C952 C956 1.350 . S
C953 C956 1.463 . S
C953 C958 1.350 . S
C953 N961 1.427 . S
C954 H945 0.930 . S
C954 C952 1.378 . S
C954 C955 1.367 . S
C955 C954 1.367 . S
C955 C957 1.433 . S
C956 C952 1.350 . S
C956 C953 1.463 . S
C956 N960 1.427 . S
C957 H947 0.929 . S
C957 C955 1.433 . S
C957 N960 1.384 . S
C958 H949 0.929 . S
C958 C950 1.378 . S
C958 C953 1.350 . S
C959 H946 0.929 . S
C959 C951 1.433 . S
C959 N961 1.384 . S
N960 C956 1.427 . S
N960 C957 1.384 . S
N961 C953 1.427 . S
N961 C959 1.384 . S
H962 C968 0.930 . S
H963 C972 0.930 . S
H964 C977 0.929 . S
H965 C975 0.929 . S
H966 C970 0.929 . S
H967 C976 0.929 . S
C968 H962 0.930 . S
C968 C969 1.367 . S
C968 C976 1.378 . S
C969 C968 1.367 . S
C969 C977 1.433 . S
C970 H966 0.929 . S
C970 C972 1.378 . S
C970 C974 1.350 . S
C971 C974 1.463 1_665 S
C971 C976 1.350 . S
C971 N979 1.427 1_655 S
C972 H963 0.930 . S
C972 C970 1.378 . S
C972 C973 1.367 . S
C973 C972 1.367 . S
C973 C975 1.433 . S
C974 C970 1.350 . S
C974 C971 1.463 1_445 S
C974 N978 1.427 1_455 S
C975 H965 0.929 . S
C975 C973 1.433 . S
C975 N978 1.384 1_455 S
C976 H967 0.929 . S
C976 C968 1.378 . S
C976 C971 1.350 . S
C977 H964 0.929 . S
C977 C969 1.433 . S
C977 N979 1.384 1_655 S
N978 C974 1.427 1_655 S
N978 C975 1.384 1_655 S
N979 C971 1.427 1_455 S
N979 C977 1.384 1_455 S
H980 C986 0.930 . S
H981 C990 0.930 . S
H982 C995 0.929 . S
H983 C993 0.929 . S
H984 C988 0.929 . S
H985 C994 0.929 . S
C986 H980 0.930 . S
C986 C987 1.367 1_545 S
C986 C994 1.378 . S
C987 C986 1.367 1_565 S
C987 C995 1.433 . S
C988 H984 0.929 . S
C988 C990 1.378 . S
C988 C992 1.350 1_565 S
C989 C992 1.463 1_565 S
C989 C994 1.350 1_565 S
C989 N997 1.427 . S
C990 H981 0.930 . S
C990 C988 1.378 . S
C990 C991 1.367 1_565 S
C991 C990 1.367 1_545 S
C991 C993 1.433 . S
C992 C988 1.350 1_545 S
C992 C989 1.463 1_545 S
C992 N996 1.427 . S
C993 H983 0.929 . S
C993 C991 1.433 . S
C993 N996 1.384 . S
C994 H985 0.929 . S
C994 C986 1.378 . S
C994 C989 1.350 1_545 S
C995 H982 0.929 . S
C995 C987 1.433 . S
C995 N997 1.384 . S
N996 C992 1.427 . S
N996 C993 1.384 . S
N997 C989 1.427 . S
N997 C995 1.384 . S
H998 C1004 0.930 . S
H999 C1008 0.930 . S
H1000 C1013 0.929 . S
H1001 C1011 0.929 . S
H1002 C1006 0.929 . S
H1003 C1012 0.929 . S
C1004 H998 0.930 . S
C1004 C1005 1.367 . S
C1004 C1012 1.378 . S
C1005 C1004 1.367 . S
C1005 C1013 1.433 . S
C1006 H1002 0.929 . S
C1006 C1008 1.378 . S
C1006 C1010 1.350 . S
C1007 C1010 1.463 1_455 S
C1007 C1012 1.350 . S
C1007 N1015 1.427 . S
C1008 H999 0.930 . S
C1008 C1006 1.378 . S
C1008 C1009 1.367 . S
C1009 C1008 1.367 . S
C1009 C1011 1.433 . S
C1010 C1006 1.350 . S
C1010 C1007 1.463 1_655 S
C1010 N1014 1.427 . S
C1011 H1001 0.929 . S
C1011 C1009 1.433 . S
C1011 N1014 1.384 . S
C1012 H1003 0.929 . S
C1012 C1004 1.378 . S
C1012 C1007 1.350 . S
C1013 H1000 0.929 . S
C1013 C1005 1.433 . S
C1013 N1015 1.384 . S
N1014 C1010 1.427 . S
N1014 C1011 1.384 . S
N1015 C1007 1.427 . S
N1015 C1013 1.384 . S
H1016 C1022 0.930 . S
H1017 C1026 0.930 . S
H1018 C1031 0.929 . S
H1019 C1029 0.929 . S
H1020 C1024 0.929 . S
H1021 C1030 0.929 . S
C1022 H1016 0.930 . S
C1022 C1023 1.367 . S
C1022 C1030 1.378 . S
C1023 C1022 1.367 . S
C1023 C1031 1.433 . S
C1024 H1020 0.929 . S
C1024 C1026 1.378 . S
C1024 C1028 1.350 . S
C1025 C1028 1.463 . S
C1025 C1030 1.350 . S
C1025 N1033 1.427 . S
C1026 H1017 0.930 . S
C1026 C1024 1.378 . S
C1026 C1027 1.367 . S
C1027 C1026 1.367 . S
C1027 C1029 1.433 . S
C1028 C1024 1.350 . S
C1028 C1025 1.463 . S
C1028 N1032 1.427 . S
C1029 H1019 0.929 . S
C1029 C1027 1.433 . S
C1029 N1032 1.384 . S
C1030 H1021 0.929 . S
C1030 C1022 1.378 . S
C1030 C1025 1.350 . S
C1031 H1018 0.929 . S
C1031 C1023 1.433 . S
C1031 N1033 1.384 . S
N1032 C1028 1.427 . S
N1032 C1029 1.384 . S
N1033 C1025 1.427 . S
N1033 C1031 1.384 . S
H1034 C1040 0.930 . S
H1035 C1044 0.930 . S
H1036 C1049 0.929 . S
H1037 C1047 0.929 . S
H1038 C1042 0.929 . S
H1039 C1048 0.929 . S
C1040 H1034 0.930 . S
C1040 C1041 1.367 . S
C1040 C1048 1.378 . S
C1041 C1040 1.367 . S
C1041 C1049 1.433 1_545 S
C1042 H1038 0.929 . S
C1042 C1044 1.378 . S
C1042 C1046 1.350 . S
C1043 C1046 1.463 1_545 S
C1043 C1048 1.350 . S
C1043 N1051 1.427 1_545 S
C1044 H1035 0.930 . S
C1044 C1042 1.378 . S
C1044 C1045 1.367 . S
C1045 C1044 1.367 . S
C1045 C1047 1.433 1_565 S
C1046 C1042 1.350 . S
C1046 C1043 1.463 1_565 S
C1046 N1050 1.427 1_565 S
C1047 H1037 0.929 . S
C1047 C1045 1.433 1_545 S
C1047 N1050 1.384 . S
C1048 H1039 0.929 . S
C1048 C1040 1.378 . S
C1048 C1043 1.350 . S
C1049 H1036 0.929 . S
C1049 C1041 1.433 1_565 S
C1049 N1051 1.384 . S
N1050 C1046 1.427 1_545 S
N1050 C1047 1.384 . S
N1051 C1043 1.427 1_565 S
N1051 C1049 1.384 . S
H1052 C1058 0.930 . S
H1053 C1062 0.930 . S
H1054 C1067 0.929 . S
H1055 C1065 0.929 . S
H1056 C1060 0.929 . S
H1057 C1066 0.929 . S
C1058 H1052 0.930 . S
C1058 C1059 1.367 . S
C1058 C1066 1.378 . S
C1059 C1058 1.367 . S
C1059 C1067 1.433 . S
C1060 H1056 0.929 . S
C1060 C1062 1.378 . S
C1060 C1064 1.350 . S
C1061 C1064 1.463 1_655 S
C1061 C1066 1.350 . S
C1061 N1069 1.427 . S
C1062 H1053 0.930 . S
C1062 C1060 1.378 . S
C1062 C1063 1.367 . S
C1063 C1062 1.367 . S
C1063 C1065 1.433 . S
C1064 C1060 1.350 . S
C1064 C1061 1.463 1_455 S
C1064 N1068 1.427 . S
C1065 H1055 0.929 . S
C1065 C1063 1.433 . S
C1065 N1068 1.384 . S
C1066 H1057 0.929 . S
C1066 C1058 1.378 . S
C1066 C1061 1.350 . S
C1067 H1054 0.929 . S
C1067 C1059 1.433 . S
C1067 N1069 1.384 . S
N1068 C1064 1.427 . S
N1068 C1065 1.384 . S
N1069 C1061 1.427 . S
N1069 C1067 1.384 . S
H1070 C1076 0.930 . S
H1071 C1080 0.930 . S
H1072 C1085 0.929 . S
H1073 C1083 0.929 . S
H1074 C1078 0.929 . S
H1075 C1084 0.929 . S
C1076 H1070 0.930 . S
C1076 C1077 1.367 . S
C1076 C1084 1.378 . S
C1077 C1076 1.367 . S
C1077 C1085 1.433 . S
C1078 H1074 0.929 . S
C1078 C1080 1.378 . S
C1078 C1082 1.350 . S
C1079 C1082 1.463 1_554 S
C1079 C1084 1.350 . S
C1079 N1087 1.447 . S
C1080 H1071 0.930 . S
C1080 C1078 1.378 . S
C1080 C1081 1.367 . S
C1081 C1080 1.367 . S
C1081 C1083 1.433 . S
C1082 C1078 1.350 . S
C1082 C1079 1.463 1_556 S
C1082 N1086 1.447 . S
C1083 H1073 0.929 . S
C1083 C1081 1.433 . S
C1083 N1086 1.404 . S
C1084 H1075 0.929 . S
C1084 C1076 1.378 . S
C1084 C1079 1.350 . S
C1085 H1072 0.929 . S
C1085 C1077 1.433 . S
C1085 N1087 1.404 . S
N1086 C1082 1.447 . S
N1086 C1083 1.404 . S
N1087 C1079 1.447 . S
N1087 C1085 1.404 . S
H1088 C1094 0.930 . S
H1089 C1098 0.930 . S
H1090 C1103 0.929 . S
H1091 C1101 0.929 . S
H1092 C1096 0.929 . S
H1093 C1102 0.929 . S
C1094 H1088 0.930 . S
C1094 C1095 1.367 . S
C1094 C1102 1.378 . S
C1095 C1094 1.367 . S
C1095 C1103 1.433 . S
C1096 H1092 0.929 . S
C1096 C1098 1.378 . S
C1096 C1100 1.350 . S
C1097 C1100 1.463 1_456 S
C1097 C1102 1.350 . S
C1097 N1105 1.427 . S
C1098 H1089 0.930 . S
C1098 C1096 1.378 . S
C1098 C1099 1.367 . S
C1099 C1098 1.367 . S
C1099 C1101 1.433 . S
C1100 C1096 1.350 . S
C1100 C1097 1.463 1_654 S
C1100 N1104 1.427 . S
C1101 H1091 0.929 . S
C1101 C1099 1.433 . S
C1101 N1104 1.384 . S
C1102 H1093 0.929 . S
C1102 C1094 1.378 . S
C1102 C1097 1.350 . S
C1103 H1090 0.929 . S
C1103 C1095 1.433 . S
C1103 N1105 1.384 . S
N1104 C1100 1.427 . S
N1104 C1101 1.384 . S
N1105 C1097 1.427 . S
N1105 C1103 1.384 . S
H1106 C1112 0.930 . S
H1107 C1116 0.930 . S
H1108 C1121 0.929 . S
H1109 C1119 0.929 . S
H1110 C1114 0.929 . S
H1111 C1120 0.929 . S
C1112 H1106 0.930 . S
C1112 C1113 1.367 . S
C1112 C1120 1.378 . S
C1113 C1112 1.367 . S
C1113 C1121 1.433 . S
C1114 H1110 0.929 . S
C1114 C1116 1.378 . S
C1114 C1118 1.350 . S
C1115 C1118 1.463 . S
C1115 C1120 1.350 . S
C1115 N1123 1.427 . S
C1116 H1107 0.930 . S
C1116 C1114 1.378 . S
C1116 C1117 1.367 . S
C1117 C1116 1.367 . S
C1117 C1119 1.433 . S
C1118 C1114 1.350 . S
C1118 C1115 1.463 . S
C1118 N1122 1.427 . S
C1119 H1109 0.929 . S
C1119 C1117 1.433 . S
C1119 N1122 1.384 . S
C1120 H1111 0.929 . S
C1120 C1112 1.378 . S
C1120 C1115 1.350 . S
C1121 H1108 0.929 . S
C1121 C1113 1.433 . S
C1121 N1123 1.384 . S
N1122 C1118 1.427 . S
N1122 C1119 1.384 . S
N1123 C1115 1.427 . S
N1123 C1121 1.384 . S
H1124 C1130 0.930 . S
H1125 C1134 0.930 . S
H1126 C1139 0.929 . S
H1127 C1137 0.929 . S
H1128 C1132 0.929 1_556 S
H1129 C1138 0.929 1_554 S
C1130 H1124 0.930 . S
C1130 C1131 1.367 . S
C1130 C1138 1.378 . S
C1131 C1130 1.367 . S
C1131 C1139 1.433 . S
C1132 H1128 0.929 1_554 S
C1132 C1134 1.378 . S
C1132 C1136 1.350 . S
C1133 C1136 1.463 1_556 S
C1133 C1138 1.350 . S
C1133 N1141 1.427 . S
C1134 H1125 0.930 . S
C1134 C1132 1.378 . S
C1134 C1135 1.367 . S
C1135 C1134 1.367 . S
C1135 C1137 1.433 . S
C1136 C1132 1.350 . S
C1136 C1133 1.463 1_554 S
C1136 N1140 1.427 . S
C1137 H1127 0.929 . S
C1137 C1135 1.433 . S
C1137 N1140 1.384 . S
C1138 H1129 0.929 1_556 S
C1138 C1130 1.378 . S
C1138 C1133 1.350 . S
C1139 H1126 0.929 . S
C1139 C1131 1.433 . S
C1139 N1141 1.384 . S
N1140 C1136 1.427 . S
N1140 C1137 1.384 . S
N1141 C1133 1.427 . S
N1141 C1139 1.384 . S
H1142 C1148 0.930 . S
H1143 C1152 0.930 . S
H1144 C1157 0.929 . S
H1145 C1155 0.929 . S
H1146 C1150 0.929 . S
H1147 C1156 0.929 . S
C1148 H1142 0.930 . S
C1148 C1149 1.367 . S
C1148 C1156 1.378 . S
C1149 C1148 1.367 . S
C1149 C1157 1.433 . S
C1150 H1146 0.929 . S
C1150 C1152 1.378 . S
C1150 C1154 1.350 . S
C1151 C1154 1.463 . S
C1151 C1156 1.350 . S
C1151 N1159 1.427 . S
C1152 H1143 0.930 . S
C1152 C1150 1.378 . S
C1152 C1153 1.367 . S
C1153 C1152 1.367 . S
C1153 C1155 1.433 . S
C1154 C1150 1.350 . S
C1154 C1151 1.463 . S
C1154 N1158 1.427 . S
C1155 H1145 0.929 . S
C1155 C1153 1.433 . S
C1155 N1158 1.384 . S
C1156 H1147 0.929 . S
C1156 C1148 1.378 . S
C1156 C1151 1.350 . S
C1157 H1144 0.929 . S
C1157 C1149 1.433 . S
C1157 N1159 1.384 . S
N1158 C1154 1.427 . S
N1158 C1155 1.384 . S
N1159 C1151 1.427 . S
N1159 C1157 1.384 . S
H1160 C1166 0.930 . S
H1161 C1170 0.930 . S
H1162 C1175 0.929 . S
H1163 C1173 0.929 . S
H1164 C1168 0.929 . S
H1165 C1174 0.929 . S
C1166 H1160 0.930 . S
C1166 C1167 1.367 1_565 S
C1166 C1174 1.378 . S
C1167 C1166 1.367 1_545 S
C1167 C1175 1.433 . S
C1168 H1164 0.929 . S
C1168 C1170 1.378 . S
C1168 C1172 1.350 1_545 S
C1169 C1172 1.463 1_546 S
C1169 C1174 1.350 1_545 S
C1169 N1177 1.427 . S
C1170 H1161 0.930 . S
C1170 C1168 1.378 . S
C1170 C1171 1.367 1_545 S
C1171 C1170 1.367 1_565 S
C1171 C1173 1.433 . S
C1172 C1168 1.350 1_565 S
C1172 C1169 1.463 1_564 S
C1172 N1176 1.427 . S
C1173 H1163 0.929 . S
C1173 C1171 1.433 . S
C1173 N1176 1.384 . S
C1174 H1165 0.929 . S
C1174 C1166 1.378 . S
C1174 C1169 1.350 1_565 S
C1175 H1162 0.929 . S
C1175 C1167 1.433 . S
C1175 N1177 1.384 . S
N1176 C1172 1.427 . S
N1176 C1173 1.384 . S
N1177 C1169 1.427 . S
N1177 C1175 1.384 . S
H1178 C1184 0.930 . S
H1179 C1188 0.930 . S
H1180 C1193 0.929 . S
H1181 C1191 0.929 . S
H1182 C1186 0.929 . S
H1183 C1192 0.929 . S
C1184 H1178 0.930 . S
C1184 C1185 1.367 . S
C1184 C1192 1.378 . S
C1185 C1184 1.367 . S
C1185 C1193 1.433 . S
C1186 H1182 0.929 . S
C1186 C1188 1.378 . S
C1186 C1190 1.350 . S
C1187 C1190 1.463 . S
C1187 C1192 1.350 . S
C1187 N1195 1.427 . S
C1188 H1179 0.930 . S
C1188 C1186 1.378 . S
C1188 C1189 1.367 . S
C1189 C1188 1.367 . S
C1189 C1191 1.433 . S
C1190 C1186 1.350 . S
C1190 C1187 1.463 . S
C1190 N1194 1.427 . S
C1191 H1181 0.929 . S
C1191 C1189 1.433 . S
C1191 N1194 1.384 . S
C1192 H1183 0.929 . S
C1192 C1184 1.378 . S
C1192 C1187 1.350 . S
C1193 H1180 0.929 . S
C1193 C1185 1.433 . S
C1193 N1195 1.384 . S
N1194 C1190 1.427 . S
N1194 C1191 1.384 . S
N1195 C1187 1.427 . S
N1195 C1193 1.384 . S
H1196 C1202 0.930 . S
H1197 C1206 0.930 . S
H1198 C1211 0.929 . S
H1199 C1209 0.929 . S
H1200 C1204 0.929 . S
H1201 C1210 0.929 . S
C1202 H1196 0.930 . S
C1202 C1203 1.367 . S
C1202 C1210 1.378 . S
C1203 C1202 1.367 . S
C1203 C1211 1.433 . S
C1204 H1200 0.929 . S
C1204 C1206 1.378 . S
C1204 C1208 1.350 . S
C1205 C1208 1.463 . S
C1205 C1210 1.350 . S
C1205 N1213 1.427 . S
C1206 H1197 0.930 . S
C1206 C1204 1.378 . S
C1206 C1207 1.367 . S
C1207 C1206 1.367 . S
C1207 C1209 1.433 . S
C1208 C1204 1.350 . S
C1208 C1205 1.463 . S
C1208 N1212 1.427 . S
C1209 H1199 0.929 . S
C1209 C1207 1.433 . S
C1209 N1212 1.384 . S
C1210 H1201 0.929 . S
C1210 C1202 1.378 . S
C1210 C1205 1.350 . S
C1211 H1198 0.929 . S
C1211 C1203 1.433 . S
C1211 N1213 1.384 . S
N1212 C1208 1.427 . S
N1212 C1209 1.384 . S
N1213 C1205 1.427 . S
N1213 C1211 1.384 . S
H1214 C1220 0.930 . S
H1215 C1224 0.930 . S
H1216 C1229 0.929 . S
H1217 C1227 0.929 . S
H1218 C1222 0.929 . S
H1219 C1228 0.929 . S
C1220 H1214 0.930 . S
C1220 C1221 1.367 . S
C1220 C1228 1.378 . S
C1221 C1220 1.367 . S
C1221 C1229 1.433 . S
C1222 H1218 0.929 . S
C1222 C1224 1.378 . S
C1222 C1226 1.350 . S
C1223 C1226 1.463 . S
C1223 C1228 1.350 . S
C1223 N1231 1.427 . S
C1224 H1215 0.930 . S
C1224 C1222 1.378 . S
C1224 C1225 1.367 . S
C1225 C1224 1.367 . S
C1225 C1227 1.433 . S
C1226 C1222 1.350 . S
C1226 C1223 1.463 . S
C1226 N1230 1.427 . S
C1227 H1217 0.929 . S
C1227 C1225 1.433 . S
C1227 N1230 1.384 . S
C1228 H1219 0.929 . S
C1228 C1220 1.378 . S
C1228 C1223 1.350 . S
C1229 H1216 0.929 . S
C1229 C1221 1.433 . S
C1229 N1231 1.384 . S
N1230 C1226 1.427 . S
N1230 C1227 1.384 . S
N1231 C1223 1.427 . S
N1231 C1229 1.384 . S
H1232 C1238 0.930 . S
H1233 C1242 0.930 . S
H1234 C1247 0.929 . S
H1235 C1245 0.929 . S
H1236 C1240 0.929 . S
H1237 C1246 0.929 . S
C1238 H1232 0.930 . S
C1238 C1239 1.367 . S
C1238 C1246 1.378 . S
C1239 C1238 1.367 . S
C1239 C1247 1.433 . S
C1240 H1236 0.929 . S
C1240 C1242 1.378 . S
C1240 C1244 1.350 . S
C1241 C1244 1.463 . S
C1241 C1246 1.350 . S
C1241 N1249 1.427 . S
C1242 H1233 0.930 . S
C1242 C1240 1.378 . S
C1242 C1243 1.367 . S
C1243 C1242 1.367 . S
C1243 C1245 1.433 . S
C1244 C1240 1.350 . S
C1244 C1241 1.463 . S
C1244 N1248 1.427 . S
C1245 H1235 0.929 . S
C1245 C1243 1.433 . S
C1245 N1248 1.384 . S
C1246 H1237 0.929 . S
C1246 C1238 1.378 . S
C1246 C1241 1.350 . S
C1247 H1234 0.929 . S
C1247 C1239 1.433 . S
C1247 N1249 1.384 . S
N1248 C1244 1.427 . S
N1248 C1245 1.384 . S
N1249 C1241 1.427 . S
N1249 C1247 1.384 . S
H1250 C1256 0.930 . S
H1251 C1260 0.930 . S
H1252 C1265 0.929 . S
H1253 C1263 0.929 . S
H1254 C1258 0.929 . S
H1255 C1264 0.929 . S
C1256 H1250 0.930 . S
C1256 C1257 1.367 . S
C1256 C1264 1.378 . S
C1257 C1256 1.367 . S
C1257 C1265 1.433 . S
C1258 H1254 0.929 . S
C1258 C1260 1.378 . S
C1258 C1262 1.350 . S
C1259 C1262 1.463 . S
C1259 C1264 1.350 . S
C1259 N1267 1.427 . S
C1260 H1251 0.930 . S
C1260 C1258 1.378 . S
C1260 C1261 1.367 . S
C1261 C1260 1.367 . S
C1261 C1263 1.433 . S
C1262 C1258 1.350 . S
C1262 C1259 1.463 . S
C1262 N1266 1.427 . S
C1263 H1253 0.929 . S
C1263 C1261 1.433 . S
C1263 N1266 1.384 . S
C1264 H1255 0.929 . S
C1264 C1256 1.378 . S
C1264 C1259 1.350 . S
C1265 H1252 0.929 . S
C1265 C1257 1.433 . S
C1265 N1267 1.384 . S
N1266 C1262 1.427 . S
N1266 C1263 1.384 . S
N1267 C1259 1.427 . S
N1267 C1265 1.384 . S
H1268 C1274 0.930 . S
H1269 C1278 0.930 . S
H1270 C1283 0.929 . S
H1271 C1281 0.929 . S
H1272 C1276 0.929 . S
H1273 C1282 0.929 . S
C1274 H1268 0.930 . S
C1274 C1275 1.367 . S
C1274 C1282 1.378 . S
C1275 C1274 1.367 . S
C1275 C1283 1.433 . S
C1276 H1272 0.929 . S
C1276 C1278 1.378 . S
C1276 C1280 1.350 . S
C1277 C1280 1.463 . S
C1277 C1282 1.350 . S
C1277 N1285 1.427 . S
C1278 H1269 0.930 . S
C1278 C1276 1.378 . S
C1278 C1279 1.367 . S
C1279 C1278 1.367 . S
C1279 C1281 1.433 . S
C1280 C1276 1.350 . S
C1280 C1277 1.463 . S
C1280 N1284 1.427 . S
C1281 H1271 0.929 . S
C1281 C1279 1.433 . S
C1281 N1284 1.384 . S
C1282 H1273 0.929 . S
C1282 C1274 1.378 . S
C1282 C1277 1.350 . S
C1283 H1270 0.929 . S
C1283 C1275 1.433 . S
C1283 N1285 1.384 . S
N1284 C1280 1.427 . S
N1284 C1281 1.384 . S
N1285 C1277 1.427 . S
N1285 C1283 1.384 . S
H1286 C1292 0.930 . S
H1287 C1296 0.930 . S
H1288 C1301 0.929 . S
H1289 C1299 0.929 . S
H1290 C1294 0.929 . S
H1291 C1300 0.929 . S
C1292 H1286 0.930 . S
C1292 C1293 1.367 . S
C1292 C1300 1.378 . S
C1293 C1292 1.367 . S
C1293 C1301 1.433 . S
C1294 H1290 0.929 . S
C1294 C1296 1.378 . S
C1294 C1298 1.350 . S
C1295 C1298 1.463 . S
C1295 C1300 1.350 . S
C1295 N1303 1.427 . S
C1296 H1287 0.930 . S
C1296 C1294 1.378 . S
C1296 C1297 1.367 . S
C1297 C1296 1.367 . S
C1297 C1299 1.433 . S
C1298 C1294 1.350 . S
C1298 C1295 1.463 . S
C1298 N1302 1.427 . S
C1299 H1289 0.929 . S
C1299 C1297 1.433 . S
C1299 N1302 1.384 . S
C1300 H1291 0.929 . S
C1300 C1292 1.378 . S
C1300 C1295 1.350 . S
C1301 H1288 0.929 . S
C1301 C1293 1.433 . S
C1301 N1303 1.384 . S
N1302 C1298 1.427 . S
N1302 C1299 1.384 . S
N1303 C1295 1.427 . S
N1303 C1301 1.384 . S
H1304 C1310 0.930 . S
H1305 C1314 0.930 . S
H1306 C1319 0.929 . S
H1307 C1317 0.929 . S
H1308 C1312 0.929 . S
H1309 C1318 0.929 . S
C1310 H1304 0.930 . S
C1310 C1311 1.367 . S
C1310 C1318 1.378 . S
C1311 C1310 1.367 . S
C1311 C1319 1.433 . S
C1312 H1308 0.929 . S
C1312 C1314 1.378 . S
C1312 C1316 1.350 . S
C1313 C1316 1.463 . S
C1313 C1318 1.350 . S
C1313 N1321 1.427 . S
C1314 H1305 0.930 . S
C1314 C1312 1.378 . S
C1314 C1315 1.367 . S
C1315 C1314 1.367 . S
C1315 C1317 1.433 . S
C1316 C1312 1.350 . S
C1316 C1313 1.463 . S
C1316 N1320 1.427 . S
C1317 H1307 0.929 . S
C1317 C1315 1.433 . S
C1317 N1320 1.384 . S
C1318 H1309 0.929 . S
C1318 C1310 1.378 . S
C1318 C1313 1.350 . S
C1319 H1306 0.929 . S
C1319 C1311 1.433 . S
C1319 N1321 1.384 . S
N1320 C1316 1.427 . S
N1320 C1317 1.384 . S
N1321 C1313 1.427 . S
N1321 C1319 1.384 . S
H1322 C1328 0.930 . S
H1323 C1332 0.930 . S
H1324 C1337 0.929 . S
H1325 C1335 0.929 . S
H1326 C1330 0.929 . S
H1327 C1336 0.929 . S
C1328 H1322 0.930 . S
C1328 C1329 1.367 . S
C1328 C1336 1.378 . S
C1329 C1328 1.367 . S
C1329 C1337 1.433 . S
C1330 H1326 0.929 . S
C1330 C1332 1.378 . S
C1330 C1334 1.350 . S
C1331 C1334 1.463 . S
C1331 C1336 1.350 . S
C1331 N1339 1.427 . S
C1332 H1323 0.930 . S
C1332 C1330 1.378 . S
C1332 C1333 1.367 . S
C1333 C1332 1.367 . S
C1333 C1335 1.433 . S
C1334 C1330 1.350 . S
C1334 C1331 1.463 . S
C1334 N1338 1.427 . S
C1335 H1325 0.929 . S
C1335 C1333 1.433 . S
C1335 N1338 1.384 . S
C1336 H1327 0.929 . S
C1336 C1328 1.378 . S
C1336 C1331 1.350 . S
C1337 H1324 0.929 . S
C1337 C1329 1.433 . S
C1337 N1339 1.384 . S
N1338 C1334 1.427 . S
N1338 C1335 1.384 . S
N1339 C1331 1.427 . S
N1339 C1337 1.384 . S
H1340 C1346 0.930 . S
H1341 C1350 0.930 . S
H1342 C1355 0.929 . S
H1343 C1353 0.929 . S
H1344 C1348 0.929 . S
H1345 C1354 0.929 . S
C1346 H1340 0.930 . S
C1346 C1347 1.367 . S
C1346 C1354 1.378 . S
C1347 C1346 1.367 . S
C1347 C1355 1.433 . S
C1348 H1344 0.929 . S
C1348 C1350 1.378 . S
C1348 C1352 1.350 . S
C1349 C1352 1.463 . S
C1349 C1354 1.350 . S
C1349 N1357 1.427 . S
C1350 H1341 0.930 . S
C1350 C1348 1.378 . S
C1350 C1351 1.367 . S
C1351 C1350 1.367 . S
C1351 C1353 1.433 . S
C1352 C1348 1.350 . S
C1352 C1349 1.463 . S
C1352 N1356 1.427 . S
C1353 H1343 0.929 . S
C1353 C1351 1.433 . S
C1353 N1356 1.384 . S
C1354 H1345 0.929 . S
C1354 C1346 1.378 . S
C1354 C1349 1.350 . S
C1355 H1342 0.929 . S
C1355 C1347 1.433 . S
C1355 N1357 1.384 . S
N1356 C1352 1.427 . S
N1356 C1353 1.384 . S
N1357 C1349 1.427 . S
N1357 C1355 1.384 . S
H1358 C1364 0.930 . S
H1359 C1368 0.930 . S
H1360 C1373 0.929 . S
H1361 C1371 0.929 . S
H1362 C1366 0.929 . S
H1363 C1372 0.929 . S
C1364 H1358 0.930 . S
C1364 C1365 1.367 . S
C1364 C1372 1.378 . S
C1365 C1364 1.367 . S
C1365 C1373 1.433 . S
C1366 H1362 0.929 . S
C1366 C1368 1.378 . S
C1366 C1370 1.350 . S
C1367 C1370 1.463 . S
C1367 C1372 1.350 . S
C1367 N1375 1.427 . S
C1368 H1359 0.930 . S
C1368 C1366 1.378 . S
C1368 C1369 1.367 . S
C1369 C1368 1.367 . S
C1369 C1371 1.433 . S
C1370 C1366 1.350 . S
C1370 C1367 1.463 . S
C1370 N1374 1.427 . S
C1371 H1361 0.929 . S
C1371 C1369 1.433 . S
C1371 N1374 1.384 . S
C1372 H1363 0.929 . S
C1372 C1364 1.378 . S
C1372 C1367 1.350 . S
C1373 H1360 0.929 . S
C1373 C1365 1.433 . S
C1373 N1375 1.384 . S
N1374 C1370 1.427 . S
N1374 C1371 1.384 . S
N1375 C1367 1.427 . S
N1375 C1373 1.384 . S
H1376 C1382 0.930 . S
H1377 C1386 0.930 . S
H1378 C1391 0.929 . S
H1379 C1389 0.929 . S
H1380 C1384 0.929 . S
H1381 C1390 0.929 . S
C1382 H1376 0.930 . S
C1382 C1383 1.367 . S
C1382 C1390 1.378 . S
C1383 C1382 1.367 . S
C1383 C1391 1.433 . S
C1384 H1380 0.929 . S
C1384 C1386 1.378 . S
C1384 C1388 1.350 . S
C1385 C1388 1.463 . S
C1385 C1390 1.350 . S
C1385 N1393 1.427 . S
C1386 H1377 0.930 . S
C1386 C1384 1.378 . S
C1386 C1387 1.367 . S
C1387 C1386 1.367 . S
C1387 C1389 1.433 . S
C1388 C1384 1.350 . S
C1388 C1385 1.463 . S
C1388 N1392 1.427 . S
C1389 H1379 0.929 . S
C1389 C1387 1.433 . S
C1389 N1392 1.384 . S
C1390 H1381 0.929 . S
C1390 C1382 1.378 . S
C1390 C1385 1.350 . S
C1391 H1378 0.929 . S
C1391 C1383 1.433 . S
C1391 N1393 1.384 . S
N1392 C1388 1.427 . S
N1392 C1389 1.384 . S
N1393 C1385 1.427 . S
N1393 C1391 1.384 . S
H1394 C1400 0.930 . S
H1395 C1404 0.930 . S
H1396 C1409 0.929 . S
H1397 C1407 0.929 . S
H1398 C1402 0.929 . S
H1399 C1408 0.929 . S
C1400 H1394 0.930 . S
C1400 C1401 1.367 . S
C1400 C1408 1.378 . S
C1401 C1400 1.367 . S
C1401 C1409 1.433 . S
C1402 H1398 0.929 . S
C1402 C1404 1.378 . S
C1402 C1406 1.350 . S
C1403 C1406 1.463 . S
C1403 C1408 1.350 . S
C1403 N1411 1.427 . S
C1404 H1395 0.930 . S
C1404 C1402 1.378 . S
C1404 C1405 1.367 . S
C1405 C1404 1.367 . S
C1405 C1407 1.433 . S
C1406 C1402 1.350 . S
C1406 C1403 1.463 . S
C1406 N1410 1.427 . S
C1407 H1397 0.929 . S
C1407 C1405 1.433 . S
C1407 N1410 1.384 . S
C1408 H1399 0.929 . S
C1408 C1400 1.378 . S
C1408 C1403 1.350 . S
C1409 H1396 0.929 . S
C1409 C1401 1.433 . S
C1409 N1411 1.384 . S
N1410 C1406 1.427 . S
N1410 C1407 1.384 . S
N1411 C1403 1.427 . S
N1411 C1409 1.384 . S
H1412 C1418 0.930 . S
H1413 C1422 0.930 . S
H1414 C1427 0.929 . S
H1415 C1425 0.929 . S
H1416 C1420 0.929 . S
H1417 C1426 0.929 . S
C1418 H1412 0.930 . S
C1418 C1419 1.367 . S
C1418 C1426 1.378 . S
C1419 C1418 1.367 . S
C1419 C1427 1.433 . S
C1420 H1416 0.929 . S
C1420 C1422 1.378 . S
C1420 C1424 1.350 . S
C1421 C1424 1.463 . S
C1421 C1426 1.350 . S
C1421 N1429 1.427 . S
C1422 H1413 0.930 . S
C1422 C1420 1.378 . S
C1422 C1423 1.367 . S
C1423 C1422 1.367 . S
C1423 C1425 1.433 . S
C1424 C1420 1.350 . S
C1424 C1421 1.463 . S
C1424 N1428 1.427 . S
C1425 H1415 0.929 . S
C1425 C1423 1.433 . S
C1425 N1428 1.384 . S
C1426 H1417 0.929 . S
C1426 C1418 1.378 . S
C1426 C1421 1.350 . S
C1427 H1414 0.929 . S
C1427 C1419 1.433 . S
C1427 N1429 1.384 . S
N1428 C1424 1.427 . S
N1428 C1425 1.384 . S
N1429 C1421 1.427 . S
N1429 C1427 1.384 . S
H1430 C1436 0.930 . S
H1431 C1440 0.930 . S
H1432 C1445 0.929 . S
H1433 C1443 0.929 . S
H1434 C1438 0.929 . S
H1435 C1444 0.929 . S
C1436 H1430 0.930 . S
C1436 C1437 1.367 . S
C1436 C1444 1.378 . S
C1437 C1436 1.367 . S
C1437 C1445 1.433 . S
C1438 H1434 0.929 . S
C1438 C1440 1.378 . S
C1438 C1442 1.350 . S
C1439 C1442 1.463 . S
C1439 C1444 1.350 . S
C1439 N1447 1.427 . S
C1440 H1431 0.930 . S
C1440 C1438 1.378 . S
C1440 C1441 1.367 . S
C1441 C1440 1.367 . S
C1441 C1443 1.433 . S
C1442 C1438 1.350 . S
C1442 C1439 1.463 . S
C1442 N1446 1.427 . S
C1443 H1433 0.929 . S
C1443 C1441 1.433 . S
C1443 N1446 1.384 . S
C1444 H1435 0.929 . S
C1444 C1436 1.378 . S
C1444 C1439 1.350 . S
C1445 H1432 0.929 . S
C1445 C1437 1.433 . S
C1445 N1447 1.384 . S
N1446 C1442 1.427 . S
N1446 C1443 1.384 . S
N1447 C1439 1.427 . S
N1447 C1445 1.384 . S
H1448 C1454 0.930 . S
H1449 C1458 0.930 . S
H1450 C1463 0.929 . S
H1451 C1461 0.929 . S
H1452 C1456 0.929 . S
H1453 C1462 0.929 . S
C1454 H1448 0.930 . S
C1454 C1455 1.367 . S
C1454 C1462 1.378 . S
C1455 C1454 1.367 . S
C1455 C1463 1.433 . S
C1456 H1452 0.929 . S
C1456 C1458 1.378 . S
C1456 C1460 1.350 . S
C1457 C1460 1.463 . S
C1457 C1462 1.350 . S
C1457 N1465 1.427 . S
C1458 H1449 0.930 . S
C1458 C1456 1.378 . S
C1458 C1459 1.367 . S
C1459 C1458 1.367 . S
C1459 C1461 1.433 . S
C1460 C1456 1.350 . S
C1460 C1457 1.463 . S
C1460 N1464 1.427 . S
C1461 H1451 0.929 . S
C1461 C1459 1.433 . S
C1461 N1464 1.384 . S
C1462 H1453 0.929 . S
C1462 C1454 1.378 . S
C1462 C1457 1.350 . S
C1463 H1450 0.929 . S
C1463 C1455 1.433 . S
C1463 N1465 1.384 . S
N1464 C1460 1.427 . S
N1464 C1461 1.384 . S
N1465 C1457 1.427 . S
N1465 C1463 1.384 . S
H1466 C1472 0.930 . S
H1467 C1476 0.930 . S
H1468 C1481 0.929 . S
H1469 C1479 0.929 . S
H1470 C1474 0.929 . S
H1471 C1480 0.929 . S
C1472 H1466 0.930 . S
C1472 C1473 1.367 . S
C1472 C1480 1.378 . S
C1473 C1472 1.367 . S
C1473 C1481 1.433 . S
C1474 H1470 0.929 . S
C1474 C1476 1.378 . S
C1474 C1478 1.350 . S
C1475 C1478 1.463 . S
C1475 C1480 1.350 . S
C1475 N1483 1.427 . S
C1476 H1467 0.930 . S
C1476 C1474 1.378 . S
C1476 C1477 1.367 . S
C1477 C1476 1.367 . S
C1477 C1479 1.433 . S
C1478 C1474 1.350 . S
C1478 C1475 1.463 . S
C1478 N1482 1.427 . S
C1479 H1469 0.929 . S
C1479 C1477 1.433 . S
C1479 N1482 1.384 . S
C1480 H1471 0.929 . S
C1480 C1472 1.378 . S
C1480 C1475 1.350 . S
C1481 H1468 0.929 . S
C1481 C1473 1.433 . S
C1481 N1483 1.384 . S
N1482 C1478 1.427 . S
N1482 C1479 1.384 . S
N1483 C1475 1.427 . S
N1483 C1481 1.384 . S
H1484 C1490 0.930 . S
H1485 C1494 0.930 . S
H1486 C1499 0.929 . S
H1487 C1497 0.929 . S
H1488 C1492 0.929 . S
H1489 C1498 0.929 . S
C1490 H1484 0.930 . S
C1490 C1491 1.367 . S
C1490 C1498 1.378 . S
C1491 C1490 1.367 . S
C1491 C1499 1.433 . S
C1492 H1488 0.929 . S
C1492 C1494 1.378 . S
C1492 C1496 1.350 . S
C1493 C1496 1.463 . S
C1493 C1498 1.350 . S
C1493 N1501 1.427 . S
C1494 H1485 0.930 . S
C1494 C1492 1.378 . S
C1494 C1495 1.367 . S
C1495 C1494 1.367 . S
C1495 C1497 1.433 . S
C1496 C1492 1.350 . S
C1496 C1493 1.463 . S
C1496 N1500 1.427 . S
C1497 H1487 0.929 . S
C1497 C1495 1.433 . S
C1497 N1500 1.384 . S
C1498 H1489 0.929 . S
C1498 C1490 1.378 . S
C1498 C1493 1.350 . S
C1499 H1486 0.929 . S
C1499 C1491 1.433 . S
C1499 N1501 1.384 . S
N1500 C1496 1.427 . S
N1500 C1497 1.384 . S
N1501 C1493 1.427 . S
N1501 C1499 1.384 . S
H1502 C1508 0.930 . S
H1503 C1512 0.930 . S
H1504 C1517 0.929 . S
H1505 C1515 0.929 . S
H1506 C1510 0.929 . S
H1507 C1516 0.929 . S
C1508 H1502 0.930 . S
C1508 C1509 1.367 . S
C1508 C1516 1.378 . S
C1509 C1508 1.367 . S
C1509 C1517 1.433 . S
C1510 H1506 0.929 . S
C1510 C1512 1.378 . S
C1510 C1514 1.350 . S
C1511 C1514 1.463 . S
C1511 C1516 1.350 . S
C1511 N1519 1.427 . S
C1512 H1503 0.930 . S
C1512 C1510 1.378 . S
C1512 C1513 1.367 . S
C1513 C1512 1.367 . S
C1513 C1515 1.433 . S
C1514 C1510 1.350 . S
C1514 C1511 1.463 . S
C1514 N1518 1.427 . S
C1515 H1505 0.929 . S
C1515 C1513 1.433 . S
C1515 N1518 1.384 . S
C1516 H1507 0.929 . S
C1516 C1508 1.378 . S
C1516 C1511 1.350 . S
C1517 H1504 0.929 . S
C1517 C1509 1.433 . S
C1517 N1519 1.384 . S
N1518 C1514 1.427 . S
N1518 C1515 1.384 . S
N1519 C1511 1.427 . S
N1519 C1517 1.384 . S
C951 C859 1.511 . S
C955 C33 1.511 . S
C969 C123 1.508 . S
C973 C5 1.508 . S
C987 C654 1.510 . S
C991 C64 1.510 . S
C1005 C92 1.512 . S
C1009 C446 1.512 . S
C1023 C151 1.512 . S
C1027 C741 1.512 . S
C1041 C536 1.508 . S
C1045 C182 1.508 . S
C1059 C210 1.512 . S
C1063 C328 1.512 . S
C1077 C623 1.512 . S
C1081 C269 1.512 . S
C1095 C241 1.510 . S
C1099 C359 1.510 . S
C1113 C890 1.507 . S
C1117 C300 1.507 . S
C1131 C505 1.512 . S
C1135 C387 1.512 . S
C1149 C772 1.510 . S
C1153 C418 1.510 . S
C1167 C477 1.510 . S
C1171 C595 1.510 . S
C1185 C918 1.512 . S
C1189 C564 1.512 . S
C1203 C682 1.512 . S
C1207 C800 1.512 . S
C1221 C831 1.511 . S
C1225 C713 1.511 . S
C1239 C347 1.597 . S
C1243 C3 1.586 . S
C1257 C52 1.597 . S
C1261 C298 1.585 . S
C1275 C111 1.597 . S
C1279 C239 1.588 . S
C1293 C288 1.596 . S
C1297 C62 1.585 . S
C1311 C465 1.596 . S
C1315 C121 1.590 . S
C1329 C416 1.585 . S
C1333 C170 1.596 . S
C1347 C357 1.588 . S
C1351 C229 1.596 . S
C1365 C180 1.585 . S
C1369 C406 1.597 . S
C1383 C819 1.596 . S
C1387 C475 1.585 . S
C1401 C524 1.596 . S
C1405 C770 1.587 . S
C1419 C583 1.597 . S
C1423 C711 1.585 . S
C1437 C760 1.597 . S
C1441 C534 1.584 . S
C1455 C937 1.597 . S
C1459 C593 1.585 . S
C1473 C888 1.585 . S
C1477 C642 1.596 . S
C1491 C701 1.596 . S
C1495 C829 1.585 . S
C1509 C878 1.596 . S
C1513 C652 1.590 . S
