# Generated by pormake.
# Topology snk, (6)-cn, num edge types: 1
# Building blocks:
#     Node 0, Type 0, BuildingBlock: FUNLAD_clean_sbu_0, # of connection points: 6
#     Node 1, Type 0, BuildingBlock: FUNLAD_clean_sbu_0, # of connection points: 6
#     Node 2, Type 0, BuildingBlock: FUNLAD_clean_sbu_0, # of connection points: 6
#     Node 3, Type 0, BuildingBlock: FUNLAD_clean_sbu_0, # of connection points: 6
#     Node 4, Type 0, BuildingBlock: FUNLAD_clean_sbu_0, # of connection points: 6
#     Node 5, Type 0, BuildingBlock: FUNLAD_clean_sbu_0, # of connection points: 6
#     Node 6, Type 0, BuildingBlock: FUNLAD_clean_sbu_0, # of connection points: 6
#     Node 7, Type 0, BuildingBlock: FUNLAD_clean_sbu_0, # of connection points: 6
#     Edge 8, Type (0, 0), None
#     Edge 9, Type (0, 0), None
#     Edge 10, Type (0, 0), None
#     Edge 11, Type (0, 0), None
#     Edge 12, Type (0, 0), None
#     Edge 13, Type (0, 0), None
#     Edge 14, Type (0, 0), None
#     Edge 15, Type (0, 0), None
#     Edge 16, Type (0, 0), None
#     Edge 17, Type (0, 0), None
#     Edge 18, Type (0, 0), None
#     Edge 19, Type (0, 0), None
#     Edge 20, Type (0, 0), None
#     Edge 21, Type (0, 0), None
#     Edge 22, Type (0, 0), None
#     Edge 23, Type (0, 0), None
#     Edge 24, Type (0, 0), None
#     Edge 25, Type (0, 0), None
#     Edge 26, Type (0, 0), None
#     Edge 27, Type (0, 0), None
#     Edge 28, Type (0, 0), None
#     Edge 29, Type (0, 0), None
#     Edge 30, Type (0, 0), None
#     Edge 31, Type (0, 0), None
# Relax obj value: 0.770
# Max RMSD: 0.172
# Mean RMSD: 0.149
data_MOF--net-snk--node1-FUNLAD_clean_sbu_0--edge1-none
_symmetry_space_group_name_H-M    P1
_symmetry_Int_Tables_number       1
_symmetry_cell_setting            triclinic
loop_
_symmetry_equiv_pos_as_xyz
'x, y, z'
_cell_length_a     25.899109
_cell_length_b     25.899447
_cell_length_c     7.2121971
_cell_angle_alpha  77.716101
_cell_angle_beta   77.706325
_cell_angle_gamma 100.03587
loop_
_atom_site_label
_atom_site_type_symbol
_atom_site_fract_x
_atom_site_fract_y
_atom_site_fract_z
_atom_type_partial_charge
C0 C 1.08999 1.08458 0.83751 0.0
N1 N 0.18157 1.01262 0.44925 0.0
C2 C 0.23032 1.02343 0.31299 0.0
C3 C 0.27034 0.99453 0.3483 0.0
C4 C 0.26043 0.95517 0.52728 0.0
C5 C 0.2109 0.94692 0.66651 0.0
C6 C 0.17164 0.9748 0.62316 0.0
Zn7 Zn 0.12312 1.05937 0.43339 0.0
C8 C 0.99778 0.98121 0.54371 0.0
N9 N 1.00044 0.15641 0.42736 0.0
C10 C 1.00769 0.19085 0.24795 0.0
C11 C 0.9515 0.14462 0.56407 0.0
C12 C 0.90884 0.16919 0.52354 0.0
C13 C 0.91582 0.2046 0.33784 0.0
C14 C 0.96566 0.21354 0.1989 0.0
Zn15 Zn 1.06141 0.11135 0.44489 0.0
O16 O 0.11841 1.05903 0.7405 0.0
C17 C 0.18784 0.18954 0.33633 0.0
O18 O 1.05817 0.10904 0.75715 0.0
H19 H 0.94513 0.11574 0.70403 0.0
H20 H 0.23843 1.0546 0.17736 0.0
H21 H 1.046 0.19998 0.13872 0.0
O22 O 0.19455 0.14052 0.34999 0.0
O23 O 0.13726 0.1927 0.35813 0.0
H24 H 0.13332 0.96676 0.73158 0.0
O25 O 1.06625 0.11131 0.13788 0.0
O26 O 0.12654 1.06158 0.1211 0.0
O27 O 0.99073 1.03006 0.52981 0.0
O28 O 1.0483 0.97835 0.52008 0.0
C29 C 0.09468 1.08588 0.04074 0.0
H30 H 0.30786 1.00198 0.23571 0.0
H31 H 0.20213 0.91847 0.80868 0.0
H32 H 0.87148 0.16148 0.63712 0.0
H33 H 0.97273 0.23891 0.05218 0.0
C34 C 0.33392 0.82271 0.04973 0.0
N35 N 0.45182 0.89175 0.50016 0.0
C36 C 0.46346 0.942 0.52897 0.0
C37 C 0.50501 0.95487 0.61394 0.0
C38 C 0.52298 0.91108 0.71118 0.0
C39 C 0.52161 0.86558 0.63691 0.0
C40 C 0.48789 0.85939 0.51266 0.0
Zn41 Zn 0.37226 0.85376 0.58883 0.0
C42 C 0.37544 0.7295 0.74528 0.0
N43 N 0.21051 0.75994 0.81886 0.0
C44 C 0.18577 0.80044 0.85879 0.0
C45 C 0.17994 0.71707 0.78138 0.0
C46 C 0.12946 0.72239 0.74218 0.0
C47 C 0.12475 0.77541 0.66883 0.0
C48 C 0.14524 0.81231 0.76539 0.0
Zn49 Zn 0.29612 0.78992 0.71972 0.0
O50 O 0.37097 0.85383 0.90155 0.0
C51 C 0.29593 0.91651 0.56256 0.0
O52 O 0.29359 0.79452 0.01603 0.0
H53 H 0.1968 0.68281 0.75979 0.0
H54 H 0.43748 0.96981 0.50788 0.0
H55 H 0.20436 0.8296 0.92601 0.0
O56 O 0.347 0.93032 0.52571 0.0
O57 O 0.27373 0.86672 0.63277 0.0
H58 H 0.48387 0.82413 0.45645 0.0
O59 O 0.30289 0.78466 0.40673 0.0
O60 O 0.37382 0.85276 0.29144 0.0
O61 O 0.32358 0.71443 0.80463 0.0
O62 O 0.39645 0.77862 0.65205 0.0
C63 C 0.3372 0.8194 0.25829 0.0
H64 H 0.50801 0.99217 0.65883 0.0
H65 H 0.53894 0.83249 0.69493 0.0
H66 H 0.1043 0.69165 0.7021 0.0
H67 H 0.13541 0.8516 0.74675 0.0
C68 C 0.60545 0.095 0.57932 0.0
N69 N 0.53603 0.97738 0.12883 0.0
C70 C 0.48585 0.96578 0.09941 0.0
C71 C 0.47288 0.92382 0.01641 0.0
C72 C 0.51656 0.90515 0.92208 0.0
C73 C 0.56185 0.90661 -0.00248 0.0
C74 C 0.56816 0.94105 0.11926 0.0
Zn75 Zn 0.5743 1.05675 0.04017 0.0
C76 C 0.6985 1.0531 0.88428 0.0
N77 N 0.66871 0.21827 0.81013 0.0
C78 C 0.62832 0.24319 0.77019 0.0
C79 C 0.71174 0.24872 0.84717 0.0
C80 C 0.70667 0.29928 0.88612 0.0
C81 C 0.65374 0.30424 -0.04043 0.0
C82 C 0.61673 0.28388 0.86319 0.0
Zn83 Zn 0.6384 0.13269 0.90937 0.0
O84 O 0.57415 1.05808 0.72751 0.0
C85 C 0.51191 0.13327 0.06643 0.0
O86 O 0.63384 0.13522 0.61295 0.0
H87 H 0.74594 0.23175 0.8686 0.0
H88 H 0.45825 0.99207 0.11809 0.0
H89 H 0.59907 0.22471 0.70307 0.0
O90 O 0.49796 1.08222 0.10337 0.0
O91 O 0.56172 0.15535 -0.00392 0.0
H92 H 0.60335 0.94524 0.17588 0.0
O93 O 0.6436 0.12588 0.22239 0.0
O94 O 0.57529 1.05514 0.33769 0.0
O95 O 0.71374 0.10495 0.8251 0.0
O96 O 0.64932 1.03222 -0.02303 0.0
C97 C 0.60875 0.09167 0.37081 0.0
H98 H 0.43577 0.9209 -0.02969 0.0
H99 H 0.59481 0.88881 -0.0583 0.0
H100 H 0.73751 0.32437 0.92588 0.0
H101 H 0.57757 0.29398 0.88159 0.0
C102 C 0.34399 0.33881 0.79521 0.0
N103 N 0.41596 0.24745 0.18295 0.0
C104 C 0.4049 0.19842 0.3178 0.0
C105 C 0.43378 0.15849 0.28136 0.0
C106 C 0.47338 0.16881 0.10269 0.0
C107 C 0.4819 0.21863 -0.03514 0.0
C108 C 0.45403 0.25778 0.0094 0.0
Zn109 Zn 0.3692 0.30572 0.1993 0.0
C110 C 0.44737 0.43099 0.08889 0.0
N111 N 0.27219 0.42839 0.20508 0.0
C112 C 0.23803 0.42155 0.38474 0.0
C113 C 0.28379 0.47706 0.06713 0.0
C114 C 0.25929 0.51985 0.10662 0.0
C115 C 0.22416 0.51329 0.2925 0.0
C116 C 0.21541 0.46374 0.4327 0.0
Zn117 Zn 0.31722 0.36737 0.18784 0.0
O118 O 0.36955 0.31042 0.8922 0.0
C119 C 0.23911 0.24088 0.29645 0.0
O120 O 0.31951 0.37062 0.87561 0.0
H121 H 0.31244 0.48312 0.9269 0.0
H122 H 0.3735 0.19002 0.45304 0.0
H123 H 0.22898 0.38343 0.49489 0.0
O124 O 0.28815 0.23424 0.28273 0.0
O125 O 0.23589 0.29144 0.27469 0.0
H126 H 0.46218 0.29631 0.90202 0.0
O127 O 0.31727 0.36254 0.49485 0.0
O128 O 0.36703 0.30228 0.51158 0.0
O129 O 0.39853 0.43806 0.10283 0.0
O130 O 0.45021 0.38048 0.11259 0.0
C131 C 0.34271 0.33412 0.59197 0.0
H132 H 0.42611 0.1207 0.3928 0.0
H133 H 0.51046 0.22767 0.82281 0.0
H134 H 0.26681 0.55697 -0.0079 0.0
H135 H 0.1902 0.45699 0.57951 0.0
C136 C 0.84495 0.34128 0.58799 0.0
N137 N 0.97077 0.39833 0.04416 0.0
C138 C 1.00059 0.4426 0.07647 0.0
C139 C 1.0505 0.4388 0.12214 0.0
C140 C 1.05573 0.38648 0.20469 0.0
C141 C 1.03536 0.34698 0.11727 0.0
C142 C 0.99531 0.35675 0.01877 0.0
Zn143 Zn 0.88511 0.37194 0.1312 0.0
C144 C 0.87865 0.2415 0.29636 0.0
N145 N 0.72224 0.2792 0.3421 0.0
C146 C 0.69749 0.32071 0.36634 0.0
C147 C 0.69244 0.23446 0.31242 0.0
C148 C 0.64281 0.23797 0.26354 0.0
C149 C 0.63768 0.29034 0.17972 0.0
C150 C 0.65692 0.32968 0.26969 0.0
Zn151 Zn 0.80802 0.30586 0.25458 0.0
O152 O 0.87962 0.37598 0.4413 0.0
C153 C 0.81337 0.4359 0.08757 0.0
O154 O 0.807 0.30993 0.55233 0.0
H155 H 0.70962 0.19968 0.30278 0.0
H156 H 0.98355 0.47734 0.08873 0.0
H157 H 0.71493 0.35111 0.43065 0.0
O158 O 0.86501 0.45128 0.04782 0.0
O159 O 0.79201 0.38586 0.16344 0.0
H160 H 0.97773 0.32667 -0.0465 0.0
O161 O 0.81494 0.30129 -0.056 0.0
O162 O 0.88628 0.36863 0.83301 0.0
O163 O 0.827 0.22685 0.33931 0.0
O164 O 0.90074 0.29142 0.21974 0.0
C165 C 0.84906 0.33649 0.79726 0.0
H166 H 1.07459 0.47132 0.15747 0.0
H167 H 1.04473 0.3075 0.14666 0.0
H168 H 0.61961 0.20526 0.22571 0.0
H169 H 0.64679 0.36881 0.24161 0.0
C170 C 0.84334 0.83776 0.29315 0.0
N171 N 0.91288 0.74103 0.67729 0.0
C172 C 0.90118 0.69236 0.81568 0.0
C173 C 0.92375 0.6485 0.77416 0.0
C174 C 0.95687 0.65375 0.5856 0.0
C175 C 0.9658 0.7034 0.44555 0.0
C176 C 0.94534 0.74666 0.49535 0.0
Zn177 Zn 0.86881 0.80365 0.69711 0.0
C178 C 0.94697 0.92975 0.58596 0.0
N179 N 0.77356 0.92858 0.7094 0.0
C180 C 0.73697 0.91848 0.88626 0.0
C181 C 0.79016 0.98036 0.58935 0.0
C182 C 0.76891 1.02345 0.64487 0.0
C183 C 0.73179 1.01376 0.8293 0.0
C184 C 0.71733 0.96037 -0.04944 0.0
Zn185 Zn 0.81721 0.86667 0.68579 0.0
O186 O 0.86822 0.80896 0.39144 0.0
C187 C 0.73865 0.74109 0.79566 0.0
O188 O 0.81935 0.87017 0.37223 0.0
H189 H 0.82094 0.98881 0.45244 0.0
H190 H 0.87384 0.68705 -0.04201 0.0
H191 H 0.72496 0.87803 -0.01615 0.0
O192 O 0.78745 0.73399 0.78178 0.0
O193 O 0.73563 0.79168 0.77313 0.0
H194 H 0.95472 0.78468 0.38452 0.0
O195 O 0.81736 0.86133 -0.00822 0.0
O196 O 0.86663 0.80049 0.01055 0.0
O197 O 0.89808 0.93648 0.60119 0.0
O198 O 0.9503 0.87919 0.60835 0.0
C199 C 0.84242 0.83272 0.08987 0.0
H200 H 0.9163 0.61151 0.88921 0.0
H201 H 0.98968 0.70945 0.29716 0.0
H202 H 0.78085 1.06349 0.54389 0.0
H203 H 0.69065 0.95065 0.09637 0.0
C204 C 0.59091 0.5853 0.33909 0.0
N205 N 0.68772 0.51576 -0.04535 0.0
C206 C 0.73619 0.52727 0.8153 0.0
C207 C 0.78014 0.50473 0.85591 0.0
C208 C 0.7752 0.4718 0.04448 0.0
C209 C 0.72576 0.46306 0.18552 0.0
C210 C 0.68239 0.48351 0.1367 0.0
Zn211 Zn 0.62504 0.55983 0.93507 0.0
C212 C 0.49887 0.48175 0.04652 0.0
N213 N 0.50002 0.65505 0.92241 0.0
C214 C 0.51002 0.69122 0.74471 0.0
C215 C 0.44826 0.6386 0.04271 0.0
C216 C 0.40512 0.65961 -0.01346 0.0
C217 C 0.4147 0.69622 0.80111 0.0
C218 C 0.46805 0.71045 0.67961 0.0
Zn219 Zn 0.56198 0.61144 -0.05347 0.0
O220 O 0.61971 0.56043 0.2407 0.0
C221 C 0.68757 0.69 0.83651 0.0
O222 O 0.5585 0.60932 0.2601 0.0
H223 H 0.43987 0.60814 0.18035 0.0
H224 H 0.74126 0.55444 0.67287 0.0
H225 H 0.55046 0.70318 0.64704 0.0
O226 O 0.69469 0.6412 0.8504 0.0
O227 O 0.63697 0.69301 0.85904 0.0
H228 H 0.64453 0.47424 0.24828 0.0
O229 O 0.56733 0.61118 0.64063 0.0
O230 O 0.62822 0.56199 0.62158 0.0
O231 O 0.49217 0.53064 0.03133 0.0
O232 O 0.54943 0.47838 0.02394 0.0
C233 C 0.59596 0.58618 0.54239 0.0
H234 H 0.81695 0.51202 0.74015 0.0
H235 H 0.71994 0.43927 0.33389 0.0
H236 H 0.36511 0.64789 0.08777 0.0
H237 H 0.47768 0.73671 0.53309 0.0
C238 C 1.08741 0.58409 0.0412 0.0
N239 N 1.0305 0.45824 0.58505 0.0
C240 C 0.98631 0.42836 0.55253 0.0
C241 C 0.99023 0.3785 0.50661 0.0
C242 C 1.04262 0.37339 0.42431 0.0
C243 C 1.08212 0.39388 0.51143 0.0
C244 C 1.07217 0.43381 0.61034 0.0
Zn245 Zn 1.05677 0.54393 0.49806 0.0
C246 C 0.18723 0.55048 0.33309 0.0
N247 N 0.1495 0.70678 0.28702 0.0
C248 C 0.10805 0.73162 0.2627 0.0
C249 C 0.19432 0.73652 0.31637 0.0
C250 C 0.19097 0.78623 0.36491 0.0
C251 C 0.13866 0.79152 0.44867 0.0
C252 C 0.09927 0.77235 0.35877 0.0
Zn253 Zn 0.1228 0.62104 0.37453 0.0
O254 O 1.05275 0.54939 0.18794 0.0
C255 C 0.99278 0.61562 0.54178 0.0
O256 O 0.11874 0.62206 0.07681 0.0
H257 H 0.22903 0.71923 0.32605 0.0
H258 H 0.95151 0.44532 0.5403 0.0
H259 H 1.0776 0.71419 0.19858 0.0
O260 O 0.97743 0.56398 0.58154 0.0
O261 O 1.04281 0.63703 0.46569 0.0
H262 H 0.1022 0.45143 0.6757 0.0
O263 O 0.12734 0.61411 0.68515 0.0
O264 O 1.06005 0.54275 0.79624 0.0
O265 O 0.20187 0.60213 0.28989 0.0
O266 O 0.13731 0.52839 0.40961 0.0
C267 C 1.09216 0.57998 0.83194 0.0
H268 H 0.95779 0.35435 0.47109 0.0
H269 H 0.12166 0.38466 0.48176 0.0
H270 H 0.22378 0.80937 0.40251 0.0
H271 H 1.06021 0.78264 0.3866 0.0
loop_
_geom_bond_atom_site_label_1
_geom_bond_atom_site_label_2
_geom_bond_distance
_geom_bond_site_symmetry_2
_ccdc_geom_bond_type
C0 O16 1.251 1_655 S
C0 O18 1.254 1_565 S
N1 C2 1.333 . S
N1 C6 1.307 . S
N1 Zn7 2.020 . S
C2 N1 1.333 . S
C2 C3 1.379 . S
C2 H20 0.952 . S
C3 C2 1.379 . S
C3 C4 1.390 . S
C3 H30 0.949 . S
C4 C3 1.390 . S
C4 C5 1.357 . S
C5 C4 1.357 . S
C5 C6 1.370 . S
C5 H31 0.950 . S
C6 N1 1.307 . S
C6 C5 1.370 . S
C6 H24 0.948 . S
Zn7 N1 2.020 . S
Zn7 O16 2.039 . S
Zn7 O22 2.034 1_565 S
Zn7 O26 2.025 . S
Zn7 O28 2.024 1_455 S
C8 O27 1.246 . S
C8 O28 1.249 . S
N9 C10 1.307 . S
N9 C11 1.333 . S
N9 Zn15 2.020 . S
C10 N9 1.307 . S
C10 C14 1.370 . S
C10 H21 0.948 . S
C11 N9 1.333 . S
C11 C12 1.379 . S
C11 H19 0.952 . S
C12 C11 1.379 . S
C12 C13 1.390 . S
C12 H32 0.949 . S
C13 C12 1.390 . S
C13 C14 1.357 . S
C14 C10 1.370 . S
C14 C13 1.357 . S
C14 H33 0.950 . S
Zn15 N9 2.020 . S
Zn15 O18 2.025 . S
Zn15 O23 2.024 1_655 S
Zn15 O25 2.039 . S
Zn15 O27 2.034 1_545 S
O16 C0 1.251 1_455 S
O16 Zn7 2.039 . S
C17 O22 1.246 . S
C17 O23 1.249 . S
O18 C0 1.254 1_545 S
O18 Zn15 2.025 . S
H19 C11 0.952 . S
H20 C2 0.952 . S
H21 C10 0.948 . S
O22 Zn7 2.034 1_545 S
O22 C17 1.246 . S
O23 Zn15 2.024 1_455 S
O23 C17 1.249 . S
H24 C6 0.948 . S
O25 Zn15 2.039 . S
O25 C29 1.251 1_655 S
O26 Zn7 2.025 . S
O26 C29 1.254 1_565 S
O27 C8 1.246 . S
O27 Zn15 2.034 1_565 S
O28 Zn7 2.024 1_655 S
O28 C8 1.249 . S
C29 O25 1.251 1_455 S
C29 O26 1.254 1_545 S
H30 C3 0.949 . S
H31 C5 0.950 . S
H32 C12 0.949 . S
H33 C14 0.950 . S
C34 O50 1.251 . S
C34 O52 1.254 . S
N35 C36 1.333 . S
N35 C40 1.307 . S
N35 Zn41 2.020 . S
C36 N35 1.333 . S
C36 C37 1.379 . S
C36 H54 0.952 . S
C37 C36 1.379 . S
C37 C38 1.390 . S
C37 H64 0.949 . S
C38 C37 1.390 . S
C38 C39 1.357 . S
C39 C38 1.357 . S
C39 C40 1.370 . S
C39 H65 0.950 . S
C40 N35 1.307 . S
C40 C39 1.370 . S
C40 H58 0.948 . S
Zn41 N35 2.020 . S
Zn41 O50 2.039 1_556 S
Zn41 O56 2.034 . S
Zn41 O60 2.025 . S
Zn41 O62 2.024 . S
C42 O61 1.246 . S
C42 O62 1.249 . S
N43 C44 1.307 . S
N43 C45 1.333 . S
N43 Zn49 2.020 . S
C44 N43 1.307 . S
C44 C48 1.369 . S
C44 H55 0.948 1_556 S
C45 N43 1.333 . S
C45 C46 1.379 . S
C45 H53 0.952 . S
C46 C45 1.379 . S
C46 C47 1.390 . S
C46 H66 0.949 . S
C47 C46 1.390 . S
C47 C48 1.359 . S
C48 C44 1.369 . S
C48 C47 1.359 . S
C48 H67 0.949 1_556 S
Zn49 N43 2.020 . S
Zn49 O52 2.025 1_556 S
Zn49 O57 2.024 . S
Zn49 O59 2.039 . S
Zn49 O61 2.034 . S
O50 C34 1.251 . S
O50 Zn41 2.039 1_554 S
C51 O56 1.246 . S
C51 O57 1.249 . S
O52 C34 1.254 . S
O52 Zn49 2.025 1_554 S
H53 C45 0.952 . S
H54 C36 0.952 . S
H55 C44 0.948 1_554 S
O56 Zn41 2.034 . S
O56 C51 1.246 . S
O57 Zn49 2.024 . S
O57 C51 1.249 . S
H58 C40 0.948 . S
O59 Zn49 2.039 . S
O59 C63 1.251 . S
O60 Zn41 2.025 . S
O60 C63 1.254 . S
O61 C42 1.246 . S
O61 Zn49 2.034 . S
O62 Zn41 2.024 . S
O62 C42 1.249 . S
C63 O59 1.251 . S
C63 O60 1.254 . S
H64 C37 0.949 . S
H65 C39 0.950 . S
H66 C46 0.949 . S
H67 C48 0.949 1_554 S
C68 O84 1.251 1_545 S
C68 O86 1.254 . S
N69 C70 1.333 1_554 S
N69 C74 1.307 . S
N69 Zn75 2.020 . S
C70 N69 1.333 1_556 S
C70 C71 1.379 . S
C70 H88 0.952 . S
C71 C70 1.379 . S
C71 C72 1.390 1_556 S
C71 H98 0.949 . S
C72 C71 1.390 1_554 S
C72 C73 1.357 . S
C73 C72 1.357 . S
C73 C74 1.370 . S
C73 H99 0.950 . S
C74 N69 1.307 . S
C74 C73 1.370 . S
C74 H92 0.948 . S
Zn75 N69 2.020 . S
Zn75 O84 2.039 1_554 S
Zn75 O90 2.034 1_565 S
Zn75 O94 2.025 . S
Zn75 O96 2.024 . S
C76 O95 1.246 . S
C76 O96 1.249 1_556 S
N77 C78 1.307 . S
N77 C79 1.333 1_556 S
N77 Zn83 2.020 . S
C78 N77 1.307 . S
C78 C82 1.370 . S
C78 H89 0.948 . S
C79 N77 1.333 1_554 S
C79 C80 1.379 . S
C79 H87 0.952 . S
C80 C79 1.379 . S
C80 C81 1.390 1_554 S
C80 H100 0.949 . S
C81 C80 1.390 1_556 S
C81 C82 1.357 . S
C82 C78 1.370 . S
C82 C81 1.357 . S
C82 H101 0.950 . S
Zn83 N77 2.020 . S
Zn83 O86 2.025 . S
Zn83 O91 2.024 . S
Zn83 O93 2.039 1_556 S
Zn83 O95 2.034 1_545 S
O84 C68 1.251 1_565 S
O84 Zn75 2.039 1_556 S
C85 O90 1.246 . S
C85 O91 1.249 1_554 S
O86 C68 1.254 . S
O86 Zn83 2.025 . S
H87 C79 0.952 . S
H88 C70 0.952 . S
H89 C78 0.948 . S
O90 Zn75 2.034 1_545 S
O90 C85 1.246 . S
O91 Zn83 2.024 . S
O91 C85 1.249 1_556 S
H92 C74 0.948 . S
O93 Zn83 2.039 1_554 S
O93 C97 1.251 1_545 S
O94 Zn75 2.025 . S
O94 C97 1.254 . S
O95 C76 1.246 . S
O95 Zn83 2.034 1_565 S
O96 Zn75 2.024 . S
O96 C76 1.249 1_554 S
C97 O93 1.251 1_565 S
C97 O94 1.254 . S
H98 C71 0.949 . S
H99 C73 0.950 . S
H100 C80 0.949 . S
H101 C82 0.950 . S
C102 O118 1.251 . S
C102 O120 1.254 . S
N103 C104 1.333 . S
N103 C108 1.307 . S
N103 Zn109 2.020 . S
C104 N103 1.333 . S
C104 C105 1.379 . S
C104 H122 0.952 1_554 S
C105 C104 1.379 . S
C105 C106 1.390 . S
C105 H132 0.949 1_554 S
C106 C105 1.390 . S
C106 C107 1.357 . S
C107 C106 1.357 . S
C107 C108 1.370 . S
C107 H133 0.950 . S
C108 N103 1.307 . S
C108 C107 1.370 . S
C108 H126 0.948 . S
Zn109 N103 2.020 . S
Zn109 O118 2.039 1_554 S
Zn109 O124 2.034 . S
Zn109 O128 2.025 . S
Zn109 O130 2.024 . S
C110 O129 1.246 . S
C110 O130 1.249 . S
N111 C112 1.307 . S
N111 C113 1.333 . S
N111 Zn117 2.020 . S
C112 N111 1.307 . S
C112 C116 1.370 . S
C112 H123 0.948 . S
C113 N111 1.333 . S
C113 C114 1.379 . S
C113 H121 0.952 . S
C114 C113 1.379 . S
C114 C115 1.390 . S
C114 H134 0.949 . S
C115 C114 1.390 . S
C115 C116 1.357 . S
C116 C112 1.370 . S
C116 C115 1.357 . S
C116 H135 0.950 . S
Zn117 N111 2.020 . S
Zn117 O120 2.025 1_554 S
Zn117 O125 2.024 . S
Zn117 O127 2.039 . S
Zn117 O129 2.034 . S
O118 C102 1.251 . S
O118 Zn109 2.039 1_556 S
C119 O124 1.246 . S
C119 O125 1.249 . S
O120 C102 1.254 . S
O120 Zn117 2.025 1_556 S
H121 C113 0.952 . S
H122 C104 0.952 1_556 S
H123 C112 0.948 . S
O124 Zn109 2.034 . S
O124 C119 1.246 . S
O125 Zn117 2.024 . S
O125 C119 1.249 . S
H126 C108 0.948 . S
O127 Zn117 2.039 . S
O127 C131 1.251 . S
O128 Zn109 2.025 . S
O128 C131 1.254 . S
O129 C110 1.246 . S
O129 Zn117 2.034 . S
O130 Zn109 2.024 . S
O130 C110 1.249 . S
C131 O127 1.251 . S
C131 O128 1.254 . S
H132 C105 0.949 1_556 S
H133 C107 0.950 . S
H134 C114 0.949 . S
H135 C116 0.950 . S
C136 O152 1.251 . S
C136 O154 1.254 . S
N137 C138 1.333 . S
N137 C142 1.307 . S
N137 Zn143 2.020 . S
C138 N137 1.333 . S
C138 C139 1.379 . S
C138 H156 0.952 . S
C139 C138 1.379 . S
C139 C140 1.390 . S
C139 H166 0.949 . S
C140 C139 1.390 . S
C140 C141 1.359 . S
C141 C140 1.359 . S
C141 C142 1.369 . S
C141 H167 0.948 1_554 S
C142 N137 1.307 . S
C142 C141 1.369 . S
C142 H160 0.948 1_554 S
Zn143 N137 2.020 . S
Zn143 O152 2.039 . S
Zn143 O158 2.034 . S
Zn143 O162 2.025 1_554 S
Zn143 O164 2.024 . S
C144 O163 1.246 . S
C144 O164 1.249 . S
N145 C146 1.307 . S
N145 C147 1.333 . S
N145 Zn151 2.020 . S
C146 N145 1.307 . S
C146 C150 1.370 . S
C146 H157 0.948 . S
C147 N145 1.333 . S
C147 C148 1.379 . S
C147 H155 0.952 . S
C148 C147 1.379 . S
C148 C149 1.390 . S
C148 H168 0.949 . S
C149 C148 1.390 . S
C149 C150 1.357 . S
C150 C146 1.370 . S
C150 C149 1.357 . S
C150 H169 0.950 . S
Zn151 N145 2.020 . S
Zn151 O154 2.025 . S
Zn151 O159 2.024 . S
Zn151 O161 2.039 1_554 S
Zn151 O163 2.034 . S
O152 C136 1.251 . S
O152 Zn143 2.039 . S
C153 O158 1.246 . S
C153 O159 1.249 . S
O154 C136 1.254 . S
O154 Zn151 2.025 . S
H155 C147 0.952 . S
H156 C138 0.952 . S
H157 C146 0.948 . S
O158 Zn143 2.034 . S
O158 C153 1.246 . S
O159 Zn151 2.024 . S
O159 C153 1.249 . S
H160 C142 0.948 1_556 S
O161 Zn151 2.039 1_556 S
O161 C165 1.251 . S
O162 Zn143 2.025 1_556 S
O162 C165 1.254 . S
O163 C144 1.246 . S
O163 Zn151 2.034 . S
O164 Zn143 2.024 . S
O164 C144 1.249 . S
C165 O161 1.251 . S
C165 O162 1.254 . S
H166 C139 0.949 . S
H167 C141 0.948 1_556 S
H168 C148 0.949 . S
H169 C150 0.950 . S
C170 O186 1.251 . S
C170 O188 1.254 . S
N171 C172 1.333 . S
N171 C176 1.307 . S
N171 Zn177 2.020 . S
C172 N171 1.333 . S
C172 C173 1.379 . S
C172 H190 0.952 . S
C173 C172 1.379 . S
C173 C174 1.390 . S
C173 H200 0.949 . S
C174 C173 1.390 . S
C174 C175 1.357 . S
C175 C174 1.357 . S
C175 C176 1.370 . S
C175 H201 0.950 . S
C176 N171 1.307 . S
C176 C175 1.370 . S
C176 H194 0.948 . S
Zn177 N171 2.020 . S
Zn177 O186 2.039 . S
Zn177 O192 2.034 . S
Zn177 O196 2.025 1_556 S
Zn177 O198 2.024 . S
C178 O197 1.246 . S
C178 O198 1.249 . S
N179 C180 1.307 . S
N179 C181 1.333 . S
N179 Zn185 2.020 . S
C180 N179 1.307 . S
C180 C184 1.370 . S
C180 H191 0.948 . S
C181 N179 1.333 . S
C181 C182 1.379 . S
C181 H189 0.952 1_556 S
C182 C181 1.379 . S
C182 C183 1.390 . S
C182 H202 0.949 1_556 S
C183 C182 1.390 . S
C183 C184 1.357 . S
C184 C180 1.370 . S
C184 C183 1.357 . S
C184 H203 0.950 . S
Zn185 N179 2.020 . S
Zn185 O188 2.025 . S
Zn185 O193 2.024 . S
Zn185 O195 2.039 1_556 S
Zn185 O197 2.034 . S
O186 C170 1.251 . S
O186 Zn177 2.039 . S
C187 O192 1.246 . S
C187 O193 1.249 . S
O188 C170 1.254 . S
O188 Zn185 2.025 . S
H189 C181 0.952 1_554 S
H190 C172 0.952 . S
H191 C180 0.948 . S
O192 Zn177 2.034 . S
O192 C187 1.246 . S
O193 Zn185 2.024 . S
O193 C187 1.249 . S
H194 C176 0.948 . S
O195 Zn185 2.039 1_554 S
O195 C199 1.251 . S
O196 Zn177 2.025 1_554 S
O196 C199 1.254 . S
O197 C178 1.246 . S
O197 Zn185 2.034 . S
O198 Zn177 2.024 . S
O198 C178 1.249 . S
C199 O195 1.251 . S
C199 O196 1.254 . S
H200 C173 0.949 . S
H201 C175 0.950 . S
H202 C182 0.949 1_554 S
H203 C184 0.950 . S
C204 O220 1.251 . S
C204 O222 1.254 . S
N205 C206 1.333 . S
N205 C210 1.307 1_554 S
N205 Zn211 2.020 . S
C206 N205 1.333 . S
C206 C207 1.379 . S
C206 H224 0.952 . S
C207 C206 1.379 . S
C207 C208 1.390 . S
C207 H234 0.949 . S
C208 C207 1.390 . S
C208 C209 1.357 1_554 S
C209 C208 1.357 1_556 S
C209 C210 1.370 . S
C209 H235 0.950 . S
C210 N205 1.307 1_556 S
C210 C209 1.370 . S
C210 H228 0.948 . S
Zn211 N205 2.020 . S
Zn211 O220 2.039 . S
Zn211 O226 2.034 1_554 S
Zn211 O230 2.025 1_554 S
Zn211 O232 2.024 . S
C212 O231 1.246 . S
C212 O232 1.249 . S
N213 C214 1.307 1_556 S
N213 C215 1.333 . S
N213 Zn219 2.020 . S
C214 N213 1.307 1_554 S
C214 C218 1.370 . S
C214 H225 0.948 . S
C215 N213 1.333 . S
C215 C216 1.379 . S
C215 H223 0.952 . S
C216 C215 1.379 . S
C216 C217 1.390 . S
C216 H236 0.949 . S
C217 C216 1.390 . S
C217 C218 1.357 1_556 S
C218 C214 1.370 . S
C218 C217 1.357 1_554 S
C218 H237 0.950 . S
Zn219 N213 2.020 . S
Zn219 O222 2.025 1_556 S
Zn219 O227 2.024 . S
Zn219 O229 2.039 . S
Zn219 O231 2.034 1_556 S
O220 C204 1.251 . S
O220 Zn211 2.039 . S
C221 O226 1.246 . S
C221 O227 1.249 . S
O222 C204 1.254 . S
O222 Zn219 2.025 1_554 S
H223 C215 0.952 . S
H224 C206 0.952 . S
H225 C214 0.948 . S
O226 Zn211 2.034 1_556 S
O226 C221 1.246 . S
O227 Zn219 2.024 . S
O227 C221 1.249 . S
H228 C210 0.948 . S
O229 Zn219 2.039 . S
O229 C233 1.251 . S
O230 Zn211 2.025 1_556 S
O230 C233 1.254 . S
O231 C212 1.246 . S
O231 Zn219 2.034 1_554 S
O232 Zn211 2.024 . S
O232 C212 1.249 . S
C233 O229 1.251 . S
C233 O230 1.254 . S
H234 C207 0.949 . S
H235 C209 0.950 . S
H236 C216 0.949 . S
H237 C218 0.950 . S
C238 O254 1.251 1_455 S
C238 O256 1.254 . S
N239 C240 1.333 . S
N239 C244 1.307 . S
N239 Zn245 2.020 . S
C240 N239 1.333 . S
C240 C241 1.379 . S
C240 H258 0.952 . S
C241 C240 1.379 . S
C241 C242 1.390 . S
C241 H268 0.949 . S
C242 C241 1.390 . S
C242 C243 1.357 . S
C243 C242 1.357 . S
C243 C244 1.370 . S
C243 H269 0.950 . S
C244 N239 1.307 . S
C244 C243 1.370 . S
C244 H262 0.948 . S
Zn245 N239 2.020 . S
Zn245 O254 2.039 . S
Zn245 O260 2.034 . S
Zn245 O264 2.025 . S
Zn245 O266 2.024 1_655 S
C246 O265 1.246 . S
C246 O266 1.249 . S
N247 C248 1.307 . S
N247 C249 1.333 . S
N247 Zn253 2.020 . S
C248 N247 1.307 . S
C248 C252 1.370 . S
C248 H259 0.948 . S
C249 N247 1.333 . S
C249 C250 1.379 . S
C249 H257 0.952 . S
C250 C249 1.379 . S
C250 C251 1.390 . S
C250 H270 0.949 . S
C251 C250 1.390 . S
C251 C252 1.357 . S
C252 C248 1.370 . S
C252 C251 1.357 . S
C252 H271 0.950 . S
Zn253 N247 2.020 . S
Zn253 O256 2.025 . S
Zn253 O261 2.024 1_455 S
Zn253 O263 2.039 . S
Zn253 O265 2.034 . S
O254 C238 1.251 1_655 S
O254 Zn245 2.039 . S
C255 O260 1.246 . S
C255 O261 1.249 . S
O256 C238 1.254 . S
O256 Zn253 2.025 . S
H257 C249 0.952 . S
H258 C240 0.952 . S
H259 C248 0.948 . S
O260 Zn245 2.034 . S
O260 C255 1.246 . S
O261 Zn253 2.024 1_655 S
O261 C255 1.249 . S
H262 C244 0.948 . S
O263 Zn253 2.039 . S
O263 C267 1.251 1_455 S
O264 Zn245 2.025 . S
O264 C267 1.254 . S
O265 C246 1.246 . S
O265 Zn253 2.034 . S
O266 Zn245 2.024 1_455 S
O266 C246 1.249 . S
C267 O263 1.251 1_655 S
C267 O264 1.254 . S
H268 C241 0.949 . S
H269 C243 0.950 . S
H270 C250 0.949 . S
H271 C252 0.950 . S
C17 C119 5.336 . S
C4 C51 1.592 . S
C38 C72 2.834 1_556 S
C85 C106 1.591 . S
C8 C178 5.336 . S
C13 C144 1.592 . S
C149 C81 2.833 1_554 S
C183 C76 1.592 . S
C221 C187 5.336 . S
C153 C208 1.591 . S
C242 C140 2.834 . S
C174 C255 1.592 . S
C110 C212 5.336 . S
C217 C42 1.592 . S
C47 C251 2.834 . S
C115 C246 1.592 . S
C0 C29 1.486 1_666 S
C63 C34 1.714 . S
C68 C97 1.714 1_545 S
C102 C131 1.486 . S
C165 C136 1.714 . S
C170 C199 1.486 . S
C233 C204 1.486 . S
C267 C238 1.714 1_656 S
