# Generated by pormake.
# Topology sod-e, (6)-cn, num edge types: 1
# Building blocks:
#     Node 0, Type 0, BuildingBlock: OJICUG_clean_sbu_0, # of connection points: 6
#     Node 1, Type 0, BuildingBlock: OJICUG_clean_sbu_0, # of connection points: 6
#     Node 2, Type 0, BuildingBlock: OJICUG_clean_sbu_0, # of connection points: 6
#     Node 3, Type 0, BuildingBlock: OJICUG_clean_sbu_0, # of connection points: 6
#     Node 4, Type 0, BuildingBlock: OJICUG_clean_sbu_0, # of connection points: 6
#     Node 5, Type 0, BuildingBlock: OJICUG_clean_sbu_0, # of connection points: 6
#     Node 6, Type 0, BuildingBlock: OJICUG_clean_sbu_0, # of connection points: 6
#     Node 7, Type 0, BuildingBlock: OJICUG_clean_sbu_0, # of connection points: 6
#     Node 8, Type 0, BuildingBlock: OJICUG_clean_sbu_0, # of connection points: 6
#     Node 9, Type 0, BuildingBlock: OJICUG_clean_sbu_0, # of connection points: 6
#     Node 10, Type 0, BuildingBlock: OJICUG_clean_sbu_0, # of connection points: 6
#     Node 11, Type 0, BuildingBlock: OJICUG_clean_sbu_0, # of connection points: 6
#     Node 12, Type 0, BuildingBlock: OJICUG_clean_sbu_0, # of connection points: 6
#     Node 13, Type 0, BuildingBlock: OJICUG_clean_sbu_0, # of connection points: 6
#     Node 14, Type 0, BuildingBlock: OJICUG_clean_sbu_0, # of connection points: 6
#     Node 15, Type 0, BuildingBlock: OJICUG_clean_sbu_0, # of connection points: 6
#     Node 16, Type 0, BuildingBlock: OJICUG_clean_sbu_0, # of connection points: 6
#     Node 17, Type 0, BuildingBlock: OJICUG_clean_sbu_0, # of connection points: 6
#     Node 18, Type 0, BuildingBlock: OJICUG_clean_sbu_0, # of connection points: 6
#     Node 19, Type 0, BuildingBlock: OJICUG_clean_sbu_0, # of connection points: 6
#     Node 20, Type 0, BuildingBlock: OJICUG_clean_sbu_0, # of connection points: 6
#     Node 21, Type 0, BuildingBlock: OJICUG_clean_sbu_0, # of connection points: 6
#     Node 22, Type 0, BuildingBlock: OJICUG_clean_sbu_0, # of connection points: 6
#     Node 23, Type 0, BuildingBlock: OJICUG_clean_sbu_0, # of connection points: 6
#     Edge 24, Type (0, 0), BuildingBlock: MIFKUJ_clean_linker_0, # of connection points: 2
#     Edge 25, Type (0, 0), BuildingBlock: MIFKUJ_clean_linker_0, # of connection points: 2
#     Edge 26, Type (0, 0), BuildingBlock: MIFKUJ_clean_linker_0, # of connection points: 2
#     Edge 27, Type (0, 0), BuildingBlock: MIFKUJ_clean_linker_0, # of connection points: 2
#     Edge 28, Type (0, 0), BuildingBlock: MIFKUJ_clean_linker_0, # of connection points: 2
#     Edge 29, Type (0, 0), BuildingBlock: MIFKUJ_clean_linker_0, # of connection points: 2
#     Edge 30, Type (0, 0), BuildingBlock: MIFKUJ_clean_linker_0, # of connection points: 2
#     Edge 31, Type (0, 0), BuildingBlock: MIFKUJ_clean_linker_0, # of connection points: 2
#     Edge 32, Type (0, 0), BuildingBlock: MIFKUJ_clean_linker_0, # of connection points: 2
#     Edge 33, Type (0, 0), BuildingBlock: MIFKUJ_clean_linker_0, # of connection points: 2
#     Edge 34, Type (0, 0), BuildingBlock: MIFKUJ_clean_linker_0, # of connection points: 2
#     Edge 35, Type (0, 0), BuildingBlock: MIFKUJ_clean_linker_0, # of connection points: 2
#     Edge 36, Type (0, 0), BuildingBlock: MIFKUJ_clean_linker_0, # of connection points: 2
#     Edge 37, Type (0, 0), BuildingBlock: MIFKUJ_clean_linker_0, # of connection points: 2
#     Edge 38, Type (0, 0), BuildingBlock: MIFKUJ_clean_linker_0, # of connection points: 2
#     Edge 39, Type (0, 0), BuildingBlock: MIFKUJ_clean_linker_0, # of connection points: 2
#     Edge 40, Type (0, 0), BuildingBlock: MIFKUJ_clean_linker_0, # of connection points: 2
#     Edge 41, Type (0, 0), BuildingBlock: MIFKUJ_clean_linker_0, # of connection points: 2
#     Edge 42, Type (0, 0), BuildingBlock: MIFKUJ_clean_linker_0, # of connection points: 2
#     Edge 43, Type (0, 0), BuildingBlock: MIFKUJ_clean_linker_0, # of connection points: 2
#     Edge 44, Type (0, 0), BuildingBlock: MIFKUJ_clean_linker_0, # of connection points: 2
#     Edge 45, Type (0, 0), BuildingBlock: MIFKUJ_clean_linker_0, # of connection points: 2
#     Edge 46, Type (0, 0), BuildingBlock: MIFKUJ_clean_linker_0, # of connection points: 2
#     Edge 47, Type (0, 0), BuildingBlock: MIFKUJ_clean_linker_0, # of connection points: 2
#     Edge 48, Type (0, 0), BuildingBlock: MIFKUJ_clean_linker_0, # of connection points: 2
#     Edge 49, Type (0, 0), BuildingBlock: MIFKUJ_clean_linker_0, # of connection points: 2
#     Edge 50, Type (0, 0), BuildingBlock: MIFKUJ_clean_linker_0, # of connection points: 2
#     Edge 51, Type (0, 0), BuildingBlock: MIFKUJ_clean_linker_0, # of connection points: 2
#     Edge 52, Type (0, 0), BuildingBlock: MIFKUJ_clean_linker_0, # of connection points: 2
#     Edge 53, Type (0, 0), BuildingBlock: MIFKUJ_clean_linker_0, # of connection points: 2
#     Edge 54, Type (0, 0), BuildingBlock: MIFKUJ_clean_linker_0, # of connection points: 2
#     Edge 55, Type (0, 0), BuildingBlock: MIFKUJ_clean_linker_0, # of connection points: 2
#     Edge 56, Type (0, 0), BuildingBlock: MIFKUJ_clean_linker_0, # of connection points: 2
#     Edge 57, Type (0, 0), BuildingBlock: MIFKUJ_clean_linker_0, # of connection points: 2
#     Edge 58, Type (0, 0), BuildingBlock: MIFKUJ_clean_linker_0, # of connection points: 2
#     Edge 59, Type (0, 0), BuildingBlock: MIFKUJ_clean_linker_0, # of connection points: 2
#     Edge 60, Type (0, 0), BuildingBlock: MIFKUJ_clean_linker_0, # of connection points: 2
#     Edge 61, Type (0, 0), BuildingBlock: MIFKUJ_clean_linker_0, # of connection points: 2
#     Edge 62, Type (0, 0), BuildingBlock: MIFKUJ_clean_linker_0, # of connection points: 2
#     Edge 63, Type (0, 0), BuildingBlock: MIFKUJ_clean_linker_0, # of connection points: 2
#     Edge 64, Type (0, 0), BuildingBlock: MIFKUJ_clean_linker_0, # of connection points: 2
#     Edge 65, Type (0, 0), BuildingBlock: MIFKUJ_clean_linker_0, # of connection points: 2
#     Edge 66, Type (0, 0), BuildingBlock: MIFKUJ_clean_linker_0, # of connection points: 2
#     Edge 67, Type (0, 0), BuildingBlock: MIFKUJ_clean_linker_0, # of connection points: 2
#     Edge 68, Type (0, 0), BuildingBlock: MIFKUJ_clean_linker_0, # of connection points: 2
#     Edge 69, Type (0, 0), BuildingBlock: MIFKUJ_clean_linker_0, # of connection points: 2
#     Edge 70, Type (0, 0), BuildingBlock: MIFKUJ_clean_linker_0, # of connection points: 2
#     Edge 71, Type (0, 0), BuildingBlock: MIFKUJ_clean_linker_0, # of connection points: 2
#     Edge 72, Type (0, 0), BuildingBlock: MIFKUJ_clean_linker_0, # of connection points: 2
#     Edge 73, Type (0, 0), BuildingBlock: MIFKUJ_clean_linker_0, # of connection points: 2
#     Edge 74, Type (0, 0), BuildingBlock: MIFKUJ_clean_linker_0, # of connection points: 2
#     Edge 75, Type (0, 0), BuildingBlock: MIFKUJ_clean_linker_0, # of connection points: 2
#     Edge 76, Type (0, 0), BuildingBlock: MIFKUJ_clean_linker_0, # of connection points: 2
#     Edge 77, Type (0, 0), BuildingBlock: MIFKUJ_clean_linker_0, # of connection points: 2
#     Edge 78, Type (0, 0), BuildingBlock: MIFKUJ_clean_linker_0, # of connection points: 2
#     Edge 79, Type (0, 0), BuildingBlock: MIFKUJ_clean_linker_0, # of connection points: 2
#     Edge 80, Type (0, 0), BuildingBlock: MIFKUJ_clean_linker_0, # of connection points: 2
#     Edge 81, Type (0, 0), BuildingBlock: MIFKUJ_clean_linker_0, # of connection points: 2
#     Edge 82, Type (0, 0), BuildingBlock: MIFKUJ_clean_linker_0, # of connection points: 2
#     Edge 83, Type (0, 0), BuildingBlock: MIFKUJ_clean_linker_0, # of connection points: 2
#     Edge 84, Type (0, 0), BuildingBlock: MIFKUJ_clean_linker_0, # of connection points: 2
#     Edge 85, Type (0, 0), BuildingBlock: MIFKUJ_clean_linker_0, # of connection points: 2
#     Edge 86, Type (0, 0), BuildingBlock: MIFKUJ_clean_linker_0, # of connection points: 2
#     Edge 87, Type (0, 0), BuildingBlock: MIFKUJ_clean_linker_0, # of connection points: 2
#     Edge 88, Type (0, 0), BuildingBlock: MIFKUJ_clean_linker_0, # of connection points: 2
#     Edge 89, Type (0, 0), BuildingBlock: MIFKUJ_clean_linker_0, # of connection points: 2
#     Edge 90, Type (0, 0), BuildingBlock: MIFKUJ_clean_linker_0, # of connection points: 2
#     Edge 91, Type (0, 0), BuildingBlock: MIFKUJ_clean_linker_0, # of connection points: 2
#     Edge 92, Type (0, 0), BuildingBlock: MIFKUJ_clean_linker_0, # of connection points: 2
#     Edge 93, Type (0, 0), BuildingBlock: MIFKUJ_clean_linker_0, # of connection points: 2
#     Edge 94, Type (0, 0), BuildingBlock: MIFKUJ_clean_linker_0, # of connection points: 2
#     Edge 95, Type (0, 0), BuildingBlock: MIFKUJ_clean_linker_0, # of connection points: 2
# Relax obj value: 0.275
# Max RMSD: 0.220
# Mean RMSD: 0.220
data_MOF--net-sod-e--node1-OJICUG_clean_sbu_0--edge1-MIFKUJ_clean_linker_0
_symmetry_space_group_name_H-M    P1
_symmetry_Int_Tables_number       1
_symmetry_cell_setting            triclinic
loop_
_symmetry_equiv_pos_as_xyz
'x, y, z'
_cell_length_a     65.054291
_cell_length_b     65.052212
_cell_length_c     65.084427
_cell_angle_alpha  90.031286
_cell_angle_beta   89.992032
_cell_angle_gamma 90.068802
loop_
_atom_site_label
_atom_site_type_symbol
_atom_site_fract_x
_atom_site_fract_y
_atom_site_fract_z
_atom_type_partial_charge
Sc0 Sc 0.96874 0.31185 0.28697 0.0
Sc1 Sc 0.00175 0.34745 0.31055 0.0
Sc2 Sc 0.95026 0.3455 0.32403 0.0
O3 O 0.97388 0.33471 0.30728 0.0
C4 C 0.92916 0.33818 0.2817 0.0
C5 C 0.00048 0.3403 0.26268 0.0
C6 C 0.97085 0.38578 0.30871 0.0
C7 C 0.01153 0.29946 0.30596 0.0
C8 C 0.94432 0.29866 0.32762 0.0
C9 C 0.98718 0.35114 0.35604 0.0
O10 O 0.94449 0.32964 0.27322 0.0
O11 O 0.00565 0.35067 0.27831 0.0
O12 O 0.95435 0.37551 0.3111 0.0
O13 O 0.99393 0.29404 0.29924 0.0
O14 O 0.94649 0.31575 0.3368 0.0
O15 O 0.00116 0.34564 0.34361 0.0
O16 O 0.94836 0.29594 0.30858 0.0
O17 O 0.01656 0.31801 0.30972 0.0
O18 O 0.96872 0.3538 0.35031 0.0
O19 O 0.98832 0.32498 0.26335 0.0
O20 O 0.92732 0.33886 0.30106 0.0
O21 O 0.98873 0.37796 0.31077 0.0
Sc22 Sc 0.676 0.00583 0.31868 0.0
Sc23 Sc 0.64076 -0.00174 0.35897 0.0
Sc24 Sc 0.65901 0.04812 0.34832 0.0
O25 O 0.65858 0.0174 0.34199 0.0
C26 C 0.70627 0.03771 0.34 0.0
C27 C 0.67952 0.96953 0.35122 0.0
C28 C 0.65796 0.02836 0.39334 0.0
C29 C 0.63375 0.98149 0.31342 0.0
C30 C 0.66065 0.04825 0.29953 0.0
C31 C 0.61203 0.03792 0.35495 0.0
O32 O 0.70309 0.02142 0.32967 0.0
O33 O 0.66376 0.97478 0.36142 0.0
O34 O 0.66104 0.04328 0.38107 0.0
O35 O 0.65043 0.98874 0.30615 0.0
O36 O 0.65642 0.0566 0.31662 0.0
O37 O 0.61521 0.01907 0.35879 0.0
O38 O 0.66818 0.03033 0.29811 0.0
O39 O 0.62833 0.98385 0.33205 0.0
O40 O 0.6261 0.05057 0.35024 0.0
O41 O 0.68587 0.97948 0.33572 0.0
O42 O 0.69194 0.04894 0.3471 0.0
O43 O 0.65152 0.01086 0.38748 0.0
Sc44 Sc 0.02682 0.63473 0.37578 0.0
Sc45 Sc 0.98721 0.61612 0.40718 0.0
Sc46 Sc 0.03594 0.59358 0.41014 0.0
O47 O 0.01677 0.61484 0.39771 0.0
C48 C 0.0491 0.59297 0.36304 0.0
C49 C 0.98209 0.62536 0.35928 0.0
C50 C 0.99445 0.5687 0.40101 0.0
C51 C -0.00026 0.66284 0.40538 0.0
C52 C 0.06443 0.63343 0.40751 0.0
C53 C 0.00934 0.60468 0.44914 0.0
O54 O 0.04266 0.61099 0.35922 0.0
O55 O 0.97525 0.62235 0.37725 0.0
O56 O 0.01339 0.56953 0.406 0.0
O57 O 0.01165 0.66071 0.39 0.0
O58 O 0.06003 0.61581 0.41479 0.0
O59 O 0.99385 0.60968 0.43855 0.0
O60 O 0.05382 0.64213 0.39355 0.0
O61 O 0.99057 0.64799 0.41415 0.0
O62 O 0.02647 0.5998 0.44123 0.0
O63 O 0.00094 0.62901 0.35571 0.0
O64 O 0.04782 0.58476 0.38068 0.0
O65 O 0.98287 0.58439 0.40042 0.0
Sc66 Sc 0.38341 0.96114 0.39263 0.0
Sc67 Sc 0.35909 0.00933 0.39164 0.0
Sc68 Sc 0.34946 0.97361 0.35219 0.0
O69 O 0.36402 0.98137 0.37875 0.0
C70 C 0.39437 0.95447 0.34573 0.0
C71 C 0.40706 0.00363 0.39885 0.0
C72 C 0.36221 0.02009 0.34396 0.0
C73 C 0.35808 0.97919 0.43023 0.0
C74 C 0.34681 0.93212 0.37768 0.0
C75 C 0.31421 -0.0019 0.37575 0.0
O76 O 0.39933 0.95452 0.3646 0.0
O77 O 0.39123 0.01478 0.39662 0.0
O78 O 0.35798 0.00202 0.33781 0.0
O79 O 0.36889 0.96523 0.42194 0.0
O80 O 0.33972 0.94455 0.3644 0.0
O81 O 0.32663 0.00713 0.38776 0.0
O82 O 0.3628 0.93582 0.38823 0.0
O83 O 0.35424 0.99622 0.42152 0.0
O84 O 0.32007 0.98604 0.36155 0.0
O85 O 0.4064 0.98413 0.39852 0.0
O86 O 0.37684 0.96025 0.33934 0.0
O87 O 0.36274 0.0251 0.36284 0.0
Sc88 Sc 0.01661 0.67831 0.69668 0.0
Sc89 Sc 0.9671 0.66014 0.70197 0.0
Sc90 Sc 0.98105 0.70583 0.72473 0.0
O91 O 0.98805 0.68142 0.70698 0.0
C92 C 0.02023 0.68794 0.74232 0.0
C93 C 0.0076 0.63277 0.7094 0.0
C94 C 0.95055 0.67283 0.74271 0.0
C95 C 0.99001 0.66016 0.65968 0.0
C96 C 0.01159 0.72461 0.69257 0.0
C97 C 0.94525 0.70389 0.69431 0.0
O98 O 0.02721 0.69274 0.72473 0.0
O99 O 0.98841 0.63502 0.7061 0.0
O100 O 0.9549 0.69155 0.7396 0.0
O101 O 0.00712 0.66484 0.66801 0.0
O102 O 0.00485 0.72513 0.71095 0.0
O103 O 0.94446 0.68435 0.69677 0.0
O104 O 0.01371 0.70784 0.68286 0.0
O105 O 0.97309 0.65988 0.6695 0.0
O106 O 0.95977 0.71522 0.70131 0.0
O107 O 0.0203 0.64773 0.70911 0.0
O108 O 0.00185 0.69272 0.74708 0.0
O109 O 0.96104 0.65888 0.73424 0.0
Sc110 Sc 0.31567 0.97917 0.6774 0.0
Sc111 Sc 0.33214 0.01573 0.64316 0.0
Sc112 Sc 0.30684 0.03118 0.68745 0.0
O113 O 0.31795 0.00894 0.66915 0.0
C114 C 0.27214 0.99587 0.68564 0.0
C115 C 0.30909 0.97647 0.62984 0.0
C116 C 0.29566 0.04887 0.64437 0.0
C117 C 0.36057 0.98065 0.66262 0.0
C118 C 0.32489 2e-05 0.7185 0.0
C119 C 0.34934 0.05041 0.67178 0.0
O120 O 0.28348 0.98249 0.67701 0.0
O121 O 0.31175 0.99558 0.62714 0.0
O122 O 0.2903 0.0462 0.66299 0.0
O123 O 0.3487 0.97627 0.67762 0.0
O124 O 0.32518 0.01836 0.71202 0.0
O125 O 0.35274 0.03671 0.65826 0.0
O126 O 0.31427 0.9865 0.70952 0.0
O127 O 0.35485 0.99186 0.64759 0.0
O128 O 0.33274 0.05142 0.68215 0.0
O129 O 0.31473 0.9674 0.64616 0.0
O130 O 0.2789 0.01285 0.69308 0.0
O131 O 0.31104 0.04003 0.63619 0.0
Sc132 Sc 0.01575 0.35972 0.63571 0.0
Sc133 Sc 0.04478 0.39594 0.60767 0.0
Sc134 Sc 0.99062 0.39888 0.60811 0.0
O135 O 0.01705 0.38479 0.61711 0.0
C136 C 0.97802 0.35177 0.60517 0.0
C137 C 0.05099 0.34736 0.60391 0.0
C138 C 0.01763 0.40178 0.5672 0.0
C139 C 0.05423 0.38343 0.65427 0.0
C140 C 0.98026 0.38729 0.65464 0.0
C141 C 0.02004 0.43675 0.61943 0.0
O142 O 0.99139 0.34605 0.6182 0.0
O143 O 0.05533 0.36574 0.59876 0.0
O144 O 0.00063 0.4021 0.57679 0.0
O145 O 0.03946 0.37077 0.65564 0.0
O146 O 0.97702 0.39715 0.63813 0.0
O147 O 0.03676 0.42717 0.61598 0.0
O148 O 0.99414 0.37371 0.65636 0.0
O149 O 0.05822 0.39334 0.6379 0.0
O150 O 0.00243 0.42859 0.61691 0.0
O151 O 0.03737 0.34292 0.6172 0.0
O152 O 0.97618 0.37033 0.59926 0.0
O153 O 0.03479 0.39976 0.5763 0.0
Sc154 Sc 0.60938 0.01731 0.64854 0.0
Sc155 Sc 0.61867 0.96997 0.62513 0.0
Sc156 Sc 0.64877 0.98543 0.66748 0.0
O157 O 0.62564 0.99087 0.64714 0.0
C158 C 0.65493 0.03298 0.65806 0.0
C159 C 0.6136 0.01216 0.60071 0.0
C160 C 0.66723 0.97167 0.62427 0.0
C161 C 0.57466 0.98321 0.64025 0.0
C162 C 0.6134 0.00403 0.69542 0.0
C163 C 0.63026 0.94074 0.66286 0.0
O164 O 0.6363 0.03616 0.65316 0.0
O165 O 0.61305 0.99268 0.60176 0.0
O166 O 0.66911 0.97539 0.64338 0.0
O167 O 0.58046 0.00157 0.64386 0.0
O168 O 0.63049 0.99477 0.69353 0.0
O169 O 0.62335 0.94389 0.6449 0.0
O170 O 0.60413 0.01281 0.68066 0.0
O171 O 0.58692 0.96924 0.63422 0.0
O172 O 0.63882 0.95469 0.67345 0.0
O173 O 0.61367 0.02361 0.61647 0.0
O174 O 0.66154 0.01548 0.66352 0.0
O175 O 0.65004 0.96986 0.61514 0.0
Sc176 Sc 0.33989 0.31621 0.92965 0.0
Sc177 Sc 0.34325 0.34305 0.97595 0.0
Sc178 Sc 0.30801 0.30255 0.97113 0.0
O179 O 0.33031 0.32064 0.95896 0.0
C180 C 0.29163 0.31356 0.92606 0.0
C181 C 0.34118 0.36519 0.93328 0.0
C182 C 0.29613 0.34538 0.99008 0.0
C183 C 0.38186 0.32373 0.95211 0.0
C184 C 0.33335 0.27046 0.94545 0.0
C185 C 0.33965 0.30737 0.00843 0.0
O186 O 0.309 0.3192 0.9191 0.0
O187 O 0.33849 0.36549 0.95258 0.0
O188 O 0.29077 0.32817 0.98261 0.0
O189 O 0.3715 0.3133 0.93919 0.0
O190 O 0.32397 0.27523 0.96181 0.0
O191 O 0.34909 0.32262 0.00077 0.0
O192 O 0.33738 0.28332 0.93136 0.0
O193 O 0.37369 0.33634 0.96465 0.0
O194 O 0.32395 0.29919 6e-05 0.0
O195 O 0.34398 0.34864 0.92328 0.0
O196 O 0.28938 0.30488 0.9435 0.0
O197 O 0.31449 0.35209 0.98944 0.0
Sc198 Sc 0.38496 0.61479 0.99676 0.0
Sc199 Sc 0.42362 0.59306 0.96615 0.0
Sc200 Sc 0.40757 0.56799 0.01052 0.0
O201 O 0.40531 0.59214 0.99122 0.0
C202 C 0.40549 0.6059 0.04083 0.0
C203 C 0.42015 0.64109 0.97644 0.0
C204 C 0.45421 0.57739 -0.00054 0.0
C205 C 0.38019 0.60557 0.94847 0.0
C206 C 0.3595 0.57719 0.01367 0.0
C207 C 0.41011 0.54633 0.96783 0.0
O208 O 0.39454 0.61664 0.02858 0.0
O209 O 0.42738 0.62595 0.96647 0.0
O210 O 0.44051 0.56571 0.00708 0.0
O211 O 0.3743 0.61393 0.96524 0.0
O212 O 0.37536 0.56656 0.0175 0.0
O213 O 0.42204 0.56021 0.96096 0.0
O214 O 0.36037 0.59437 0.00458 0.0
O215 O 0.39734 0.59633 0.94649 0.0
O216 O 0.40182 0.54738 0.98548 0.0
O217 O 0.40614 0.63902 0.9898 0.0
O218 O 0.41258 0.58821 0.03625 0.0
O219 O 0.45035 0.59025 0.98526 0.0
Sc220 Sc 0.67015 0.33232 0.01994 0.0
Sc221 Sc 0.62172 0.35549 0.02933 0.0
Sc222 Sc 0.63806 0.34644 0.97876 0.0
O223 O 0.64335 0.34473 0.00936 0.0
C224 C 0.68621 0.3557 0.98045 0.0
C225 C 0.66369 0.37069 0.04995 0.0
C226 C 0.62303 0.39019 0.99468 0.0
C227 C 0.63638 0.31389 0.05051 0.0
C228 C 0.65809 0.30226 0.98331 0.0
C229 C 0.59312 0.33525 0.99501 0.0
O230 O 0.68921 0.34892 -0.00152 0.0
O231 O 0.64429 0.37131 0.0478 0.0
O232 O 0.63023 0.37846 0.98079 0.0
O233 O 0.65404 0.31378 0.04214 0.0
O234 O 0.64607 0.31494 0.97466 0.0
O235 O 0.59624 0.34115 0.01336 0.0
O236 O 0.66839 0.30618 -0.00056 0.0
O237 O 0.62332 0.32812 0.04759 0.0
O238 O 0.60665 0.33688 0.9811 0.0
O239 O 0.67492 0.35742 0.04102 0.0
O240 O 0.66879 0.35548 0.97174 0.0
O241 O 0.61844 0.38387 0.01261 0.0
Sc242 Sc 0.68958 0.63671 0.01069 0.0
Sc243 Sc 0.65609 0.63758 0.96917 0.0
Sc244 Sc 0.68742 0.67948 0.97874 0.0
O245 O 0.67772 0.65111 0.98615 0.0
C246 C 0.68276 0.68254 0.02622 0.0
C247 C 0.64342 0.625 0.0149 0.0
C248 C 0.63974 0.68205 0.96848 0.0
C249 C 0.68254 0.59933 0.97922 0.0
C250 C 0.72831 0.65884 0.99637 0.0
C251 C 0.6846 0.65991 0.93563 0.0
O252 O 0.69102 0.66492 0.02855 0.0
O253 O 0.64123 0.62467 0.9955 0.0
O254 O 0.65791 0.68913 0.9671 0.0
O255 O 0.68818 0.60679 0.99641 0.0
O256 O 0.71804 0.67437 0.99046 0.0
O257 O 0.66874 0.64969 0.94098 0.0
O258 O 0.71992 0.64133 -0.00146 0.0
O259 O 0.67404 0.61019 0.96538 0.0
O260 O 0.696 0.66946 0.94843 0.0
O261 O 0.65973 0.63108 0.0238 0.0
O262 O 0.67829 0.68983 0.00862 0.0
O263 O 0.63603 0.66336 0.9724 0.0
Sc264 Sc 0.47694 0.82222 0.82265 0.0
Sc265 Sc 0.50828 0.85362 0.85303 0.0
Sc266 Sc 0.45456 0.85856 0.85571 0.0
O267 O 0.47989 0.845 0.84369 0.0
C268 C 0.44503 0.85498 0.80739 0.0
C269 C 0.51751 0.84514 0.80671 0.0
C270 C 0.48497 0.89679 0.85125 0.0
C271 C 0.51095 0.80483 0.85193 0.0
C272 C 0.43874 0.81276 0.85173 0.0
C273 C 0.48312 0.85246 0.895 0.0
O274 O 0.45888 0.84183 0.80311 0.0
O275 O 0.51966 0.85663 0.82233 0.0
O276 O 0.46694 0.88918 0.85163 0.0
O277 O 0.49443 0.80181 0.84192 0.0
O278 O 0.43949 0.82963 0.86149 0.0
O279 O 0.49962 0.85062 0.88471 0.0
O280 O 0.44996 0.80911 0.83624 0.0
O281 O 0.51886 0.82248 0.85465 0.0
O282 O 0.46587 0.85671 0.88683 0.0
O283 O 0.50383 0.83125 0.80561 0.0
O284 O 0.44108 0.86102 0.82561 0.0
O285 O 0.50106 0.88582 0.85237 0.0
Sc286 Sc 0.18304 0.5162 0.81855 0.0
Sc287 Sc 0.15013 0.51334 0.86068 0.0
Sc288 Sc 0.16069 0.5608 0.83853 0.0
O289 O 0.16495 0.53011 0.83952 0.0
C290 C 0.20779 0.55744 0.82977 0.0
C291 C 0.19371 0.49026 0.85697 0.0
C292 C 0.16328 0.55157 0.8867 0.0
C293 C 0.14564 0.48473 0.82242 0.0
C294 C 0.15828 0.54803 0.7921 0.0
C295 C 0.11603 0.54618 0.84836 0.0
O296 O 0.20581 0.54083 0.81949 0.0
O297 O 0.17572 0.49285 0.86418 0.0
O298 O 0.16049 0.56369 0.87161 0.0
O299 O 0.16324 0.48985 0.81568 0.0
O300 O 0.16069 0.56202 0.80548 0.0
O301 O 0.12256 0.53152 0.85949 0.0
O302 O 0.16465 0.5298 0.79466 0.0
O303 O 0.13693 0.4937 0.83744 0.0
O304 O 0.12787 0.55734 0.83755 0.0
O305 O 0.20054 0.5001 0.84149 0.0
O306 O 0.19296 0.56582 0.83928 0.0
O307 O 0.16237 0.5321 0.88495 0.0
Sc308 Sc 0.51763 0.18899 0.80998 0.0
Sc309 Sc 0.47821 0.15843 0.82794 0.0
Sc310 Sc 0.52575 0.15622 0.85075 0.0
O311 O 0.50714 0.16765 0.82977 0.0
C312 C 0.54828 0.15374 0.80923 0.0
C313 C 0.48767 0.16299 0.78239 0.0
C314 C 0.50158 0.11665 0.83863 0.0
C315 C 0.47777 0.20554 0.82707 0.0
C316 C 0.54309 0.19929 0.85014 0.0
C317 C 0.48348 0.16176 0.87537 0.0
O318 O 0.53713 0.16536 0.79809 0.0
O319 O 0.48346 0.15038 0.79664 0.0
O320 O 0.51883 0.12531 0.84172 0.0
O321 O 0.49671 0.20993 0.82472 0.0
O322 O 0.53293 0.18651 0.86072 0.0
O323 O 0.47255 0.16576 0.85963 0.0
O324 O 0.54187 0.19969 0.83061 0.0
O325 O 0.47023 0.18948 0.81879 0.0
O326 O 0.50211 0.15572 0.8742 0.0
O327 O 0.49531 0.18069 0.78609 0.0
O328 O 0.55047 0.15711 0.82838 0.0
O329 O 0.48495 0.12674 0.83609 0.0
Sc330 Sc 0.86525 0.49889 0.85476 0.0
Sc331 Sc 0.85342 0.54817 0.83752 0.0
Sc332 Sc 0.82443 0.50626 0.81955 0.0
O333 O 0.84759 0.51772 0.83732 0.0
C334 C 0.85974 0.47325 0.81318 0.0
C335 C 0.89901 0.53017 0.83941 0.0
C336 C 0.84426 0.54039 0.79058 0.0
C337 C 0.85783 0.53744 0.88459 0.0
C338 C 0.82118 0.47904 0.86037 0.0
C339 C 0.80425 0.54729 0.83464 0.0
O340 O 0.86801 0.4765 0.83059 0.0
O341 O 0.88628 0.54487 0.83808 0.0
O342 O 0.83137 0.52606 0.79384 0.0
O343 O 0.86446 0.51939 0.88096 0.0
O344 O 0.81441 0.48529 0.84314 0.0
O345 O 0.82158 0.556 0.83666 0.0
O346 O 0.83887 0.48365 0.86722 0.0
O347 O 0.85179 0.5496 0.87055 0.0
O348 O 0.80224 0.52836 0.83026 0.0
O349 O 0.8936 0.51198 0.84394 0.0
O350 O 0.84443 0.48343 0.80661 0.0
O351 O 0.85502 0.5487 0.80465 0.0
Sc352 Sc 0.49057 0.10535 0.1126 0.0
Sc353 Sc 0.43887 0.1154 0.12554 0.0
Sc354 Sc 0.47881 0.14292 0.14964 0.0
O355 O 0.46942 0.12126 0.12923 0.0
C356 C 0.51107 0.1074 0.15719 0.0
C357 C 0.45815 0.07037 0.1246 0.0
C358 C 0.44072 0.12324 0.17351 0.0
C359 C 0.45531 0.11335 0.07945 0.0
C360 C 0.51171 0.14922 0.11355 0.0
C361 C 0.4406 0.16446 0.12878 0.0
O362 O 0.50975 0.10024 0.13904 0.0
O363 O 0.44299 0.08248 0.12688 0.0
O364 O 0.45682 0.13421 0.1726 0.0
O365 O 0.4737 0.10898 0.08437 0.0
O366 O 0.50253 0.15455 0.12992 0.0
O367 O 0.43166 0.14762 0.12437 0.0
O368 O 0.50809 0.13234 0.1044 0.0
O369 O 0.44116 0.11609 0.09261 0.0
O370 O 0.45821 0.16539 0.13719 0.0
O371 O 0.47593 0.07655 0.11936 0.0
O372 O 0.50018 0.12226 0.16364 0.0
O373 O 0.43288 0.11458 0.15789 0.0
Sc374 Sc 0.84251 0.52885 0.13735 0.0
Sc375 Sc 0.84236 0.58199 0.1455 0.0
Sc376 Sc 0.81147 0.54975 0.17674 0.0
O377 O 0.83192 0.55354 0.15314 0.0
C378 C 0.79487 0.5177 0.14359 0.0
C379 C 0.83657 0.56151 0.10134 0.0
C380 C 0.79578 0.59141 0.15623 0.0
C381 C 0.8832 0.55584 0.14185 0.0
C382 C 0.84163 0.51127 0.18285 0.0
C383 C 0.8427 0.58323 0.19456 0.0
O384 O 0.81232 0.51569 0.135 0.0
O385 O 0.83843 0.57725 0.1128 0.0
O386 O 0.79263 0.57576 0.16752 0.0
O387 O 0.87416 0.53883 0.13857 0.0
O388 O 0.82761 0.52333 0.18927 0.0
O389 O 0.84796 0.58972 0.17693 0.0
O390 O 0.8487 0.51198 0.16472 0.0
O391 O 0.87361 0.57257 0.14428 0.0
O392 O 0.82968 0.5688 0.19715 0.0
O393 O 0.83739 0.54322 0.10812 0.0
O394 O 0.79171 0.53 0.15851 0.0
O395 O 0.81251 0.59486 0.14689 0.0
Sc396 Sc 0.50645 0.79066 0.18426 0.0
Sc397 Sc 0.51571 0.82496 0.14351 0.0
Sc398 Sc 0.46516 0.80914 0.15381 0.0
O399 O 0.49578 0.80814 0.16046 0.0
C400 C 0.47198 0.76168 0.16468 0.0
C401 C 0.54103 0.78359 0.15049 0.0
C402 C 0.48515 0.80819 0.10919 0.0
C403 C 0.5334 0.83147 0.18855 0.0
C404 C 0.46593 0.81098 0.20274 0.0
C405 C 0.47787 0.85598 0.14736 0.0
O406 O 0.48825 0.76437 0.17519 0.0
O407 O 0.53688 0.80002 0.14085 0.0
O408 O 0.46992 0.80537 0.12113 0.0
O409 O 0.52565 0.81513 0.196 0.0
O410 O 0.45739 0.81393 0.18545 0.0
O411 O 0.49674 0.85197 0.14437 0.0
O412 O 0.48318 0.80205 0.20466 0.0
O413 O 0.5311 0.83674 0.16994 0.0
O414 O 0.46456 0.8421 0.15078 0.0
O415 O 0.53144 0.77793 0.16655 0.0
O416 O 0.46219 0.77638 0.15634 0.0
O417 O 0.5024 0.81497 0.11526 0.0
Sc418 Sc 0.14558 0.54849 0.13826 0.0
Sc419 Sc 0.1264 0.50708 0.10924 0.0
Sc420 Sc 0.16236 0.49769 0.14837 0.0
O421 O 0.14487 0.51776 0.13193 0.0
C422 C 0.19266 0.53599 0.14228 0.0
C423 C 0.14374 0.54844 0.08936 0.0
C424 C 0.16647 0.47981 0.10291 0.0
C425 C 0.09799 0.54045 0.13099 0.0
C426 C 0.14606 0.52815 0.18292 0.0
C427 C 0.12043 0.47259 0.14328 0.0
O428 O 0.17849 0.549 0.13899 0.0
O429 O 0.13618 0.53047 0.08837 0.0
O430 O 0.1732 0.48223 0.12111 0.0
O431 O 0.11256 0.55103 0.13856 0.0
O432 O 0.15295 0.5108 0.17721 0.0
O433 O 0.11447 0.48266 0.12771 0.0
O434 O 0.14342 0.54309 0.17065 0.0
O435 O 0.10095 0.52482 0.11974 0.0
O436 O 0.13752 0.47592 0.15217 0.0
O437 O 0.1477 0.55734 0.1063 0.0
O438 O 0.18909 0.51717 0.14625 0.0
O439 O 0.14981 0.48773 0.09661 0.0
Sc440 Sc 0.84371 0.83275 0.4819 0.0
Sc441 Sc 0.83193 0.82939 0.53386 0.0
Sc442 Sc 0.80462 0.80035 0.49799 0.0
O443 O 0.82677 0.82092 0.50464 0.0
C444 C 0.80197 0.8314 0.46003 0.0
C445 C 0.83848 0.87166 0.51185 0.0
C446 C 0.7839 0.83129 0.52793 0.0
C447 C 0.87681 0.8236 0.51567 0.0
C448 C 0.84021 0.78551 0.47041 0.0
C449 C 0.82174 0.78328 0.54051 0.0
O450 O 0.81718 0.84232 0.46549 0.0
O451 O 0.83093 0.86139 0.5266 0.0
O452 O 0.78295 0.82137 0.51113 0.0
O453 O 0.87103 0.82295 0.49706 0.0
O454 O 0.82735 0.78061 0.48433 0.0
O455 O 0.83361 0.79837 0.54356 0.0
O456 O 0.8439 0.80403 0.4653 0.0
O457 O 0.86504 0.82861 0.53047 0.0
O458 O 0.80825 0.78291 0.52637 0.0
O459 O 0.84545 0.86319 0.49562 0.0
O460 O 0.79737 0.81441 0.46859 0.0
O461 O 0.79931 0.83059 0.53998 0.0
Sc462 Sc 0.88556 0.12198 0.50629 0.0
Sc463 Sc 0.87223 0.13005 0.55789 0.0
Sc464 Sc 0.84102 0.14995 0.518 0.0
O465 O 0.86619 0.13398 0.52742 0.0
C466 C 0.87442 0.16384 0.48469 0.0
C467 C 0.91746 0.13627 0.54025 0.0
C468 C 0.86044 0.17762 0.55365 0.0
C469 C 0.88063 0.08568 0.53911 0.0
C470 C 0.84153 0.11304 0.48642 0.0
C471 C 0.82322 0.12796 0.55797 0.0
O472 O 0.88716 0.1497 0.48878 0.0
O473 O 0.90498 0.135 0.55517 0.0
O474 O 0.84937 0.17523 0.53767 0.0
O475 O 0.88566 0.09285 0.52165 0.0
O476 O 0.83157 0.12592 0.49727 0.0
O477 O 0.84074 0.1246 0.56576 0.0
O478 O 0.86086 0.11068 0.48775 0.0
O479 O 0.87517 0.09704 0.55412 0.0
O480 O 0.82091 0.13694 0.54084 0.0
O481 O 0.91237 0.13236 0.52189 0.0
O482 O 0.85698 0.1653 0.49334 0.0
O483 O 0.86929 0.16277 0.56292 0.0
Sc484 Sc 0.15851 0.84289 0.52511 0.0
Sc485 Sc 0.12156 0.88243 0.52357 0.0
Sc486 Sc 0.13142 0.85339 0.47934 0.0
O487 O 0.13721 0.85951 0.50936 0.0
C488 C 0.18036 0.84952 0.48212 0.0
C489 C 0.16543 0.88849 0.54304 0.0
C490 C 0.12998 0.90209 0.47951 0.0
C491 C 0.12343 0.84761 0.55832 0.0
C492 C 0.138 0.80833 0.49644 0.0
C493 C 0.08646 0.86098 0.49743 0.0
O494 O 0.18136 0.84753 0.50156 0.0
O495 O 0.14887 0.89577 0.53582 0.0
O496 O 0.13364 0.88516 0.47058 0.0
O497 O 0.13745 0.83694 0.54986 0.0
O498 O 0.12951 0.82112 0.48445 0.0
O499 O 0.09269 0.87107 0.51291 0.0
O500 O 0.14937 0.81378 0.51141 0.0
O501 O 0.11707 0.86458 0.55101 0.0
O502 O 0.09847 0.85441 0.48347 0.0
O503 O 0.17042 0.86963 0.54126 0.0
O504 O 0.16349 0.85104 0.4724 0.0
O505 O 0.12441 0.90328 0.49815 0.0
Sc506 Sc 0.17188 0.14738 0.49538 0.0
Sc507 Sc 0.14709 0.15018 0.44844 0.0
Sc508 Sc 0.18774 0.1825 0.45862 0.0
O509 O 0.16863 0.16003 0.46779 0.0
C510 C 0.17269 0.19651 0.50159 0.0
C511 C 0.12371 0.14765 0.49159 0.0
C512 C 0.14615 0.19491 0.43633 0.0
C513 C 0.16462 0.10864 0.46591 0.0
C514 C 0.21737 0.15739 0.48763 0.0
C515 C 0.18756 0.15203 0.42252 0.0
O516 O 0.17473 0.17819 0.50866 0.0
O517 O 0.12411 0.14613 0.47209 0.0
O518 O 0.16571 0.19545 0.43694 0.0
O519 O 0.16883 0.11621 0.48353 0.0
O520 O 0.21293 0.17426 0.47897 0.0
O521 O 0.16801 0.15348 0.42267 0.0
O522 O 0.20406 0.1436 0.49069 0.0
O523 O 0.15737 0.11924 0.45123 0.0
O524 O 0.19876 0.16152 0.43557 0.0
O525 O 0.13985 0.14944 0.50233 0.0
O526 O 0.1755 0.20115 0.4827 0.0
O527 O 0.13608 0.1807 0.44497 0.0
H528 H 0.96117 0.36282 0.38688 0.0
H529 H 0.97 0.37299 0.4218 0.0
H530 H 0.03388 0.36017 0.40978 0.0
H531 H 0.02522 0.35013 0.37451 0.0
H532 H 0.01937 0.34627 0.44946 0.0
H533 H 0.02139 0.40717 0.40848 0.0
H534 H 0.00795 0.431 0.3823 0.0
H535 H 0.95512 0.44307 0.41993 0.0
H536 H 0.96808 0.41902 0.44623 0.0
H537 H 0.04989 0.39632 0.54057 0.0
H538 H 0.04804 0.39103 0.50345 0.0
H539 H 0.98262 0.40143 0.50499 0.0
H540 H 0.98426 0.40699 0.54204 0.0
H541 H 0.00203 0.41792 0.46948 0.0
H542 H 0.99684 0.35249 0.50632 0.0
H543 H 0.01002 0.33035 0.53414 0.0
H544 H 0.06923 0.32858 0.50504 0.0
H545 H 0.05633 0.35068 0.47698 0.0
C546 C 0.97712 0.36198 0.3916 0.0
C547 C 0.99252 0.35569 0.37777 0.0
C548 C 0.98212 0.36782 0.41161 0.0
C549 C 0.0026 0.3675 0.4183 0.0
C550 C 0.01797 0.3605 0.40489 0.0
C551 C 0.01299 0.35476 0.38474 0.0
C552 C 0.00783 0.3755 0.43898 0.0
C553 C 0.01596 0.36202 0.45371 0.0
C554 C 0.00314 0.39602 0.4446 0.0
C555 C 0.99563 0.41114 0.42925 0.0
C556 C 0.00686 0.41484 0.41115 0.0
C557 C -0.00067 0.42838 0.39629 0.0
C558 C 0.98066 0.43847 0.39942 0.0
C559 C 0.96957 0.43521 0.41752 0.0
C560 C 0.97702 0.42163 0.43243 0.0
C561 C 0.03515 0.39792 0.53301 0.0
C562 C 0.01718 0.40182 0.5444 0.0
C563 C 0.03413 0.39486 0.51177 0.0
C564 C 0.01515 0.39557 0.50155 0.0
C565 C 0.99742 0.40081 0.5126 0.0
C566 C -0.0016 0.40387 0.53383 0.0
C567 C 0.01336 0.38865 0.47992 0.0
C568 C 0.00576 0.40228 0.46508 0.0
C569 C 0.01853 0.36832 0.47417 0.0
C570 C 0.02567 0.35324 0.48965 0.0
C571 C 0.01262 0.34721 0.50578 0.0
C572 C 0.02005 0.33476 0.52162 0.0
C573 C 0.04051 0.32828 0.52146 0.0
C574 C 0.05343 0.33375 0.50518 0.0
C575 C 0.04603 0.34612 0.48924 0.0
H576 H 0.04633 0.31895 0.53391 0.0
H577 H 0.97479 0.44877 0.38778 0.0
H578 H 0.65768 0.06521 0.41354 0.0
H579 H 0.65549 0.07067 0.45068 0.0
H580 H 0.66052 0.00534 0.46065 0.0
H581 H 0.6625 -0.00031 0.42361 0.0
H582 H 0.623 0.05375 0.47279 0.0
H583 H 0.68361 -0.00178 0.50829 0.0
H584 H 0.71907 0.98666 0.50166 0.0
H585 H 0.73138 0.04224 0.46826 0.0
H586 H 0.69608 0.05425 0.47487 0.0
H587 H 0.5998 -0.00186 0.56382 0.0
H588 H 0.61059 0.00989 0.52976 0.0
H589 H 0.64718 0.05771 0.55756 0.0
H590 H 0.636 0.04639 0.59175 0.0
H591 H 0.66791 0.02774 0.52859 0.0
H592 H 0.61238 0.07572 0.53351 0.0
H593 H 0.57673 0.08642 0.54058 0.0
H594 H 0.55479 0.046 0.49322 0.0
H595 H 0.59029 0.03481 0.48607 0.0
C596 C 0.65876 0.05204 0.42365 0.0
C597 C 0.65999 0.03199 0.41566 0.0
C598 C 0.65752 0.05521 0.44484 0.0
C599 C 0.65789 0.03842 0.45834 0.0
C600 C 0.66041 0.01851 0.45047 0.0
C601 C 0.66135 0.0153 0.4293 0.0
C602 C 0.65272 0.0412 0.48026 0.0
C603 C 0.63296 0.04839 0.48503 0.0
C604 C 0.6658 0.03424 0.49615 0.0
C605 C 0.68709 0.02709 0.49198 0.0
C606 C 0.69388 0.00802 0.49958 0.0
C607 C 0.71397 0.00138 0.49582 0.0
C608 C 0.72746 0.01371 0.48454 0.0
C609 C 0.7209 0.0327 0.47699 0.0
C610 C 0.70082 0.03939 0.48067 0.0
C611 C 0.60972 0.01148 0.56264 0.0
C612 C 0.61699 0.02143 0.58036 0.0
C613 C 0.61589 0.01814 0.54323 0.0
C614 C 0.62967 0.0346 0.54128 0.0
C615 C 0.63647 0.04501 0.55887 0.0
C616 C 0.62994 0.03864 0.57831 0.0
C617 C 0.63805 0.03966 0.52086 0.0
C618 C 0.65827 0.03368 0.51636 0.0
C619 C 0.62539 0.04759 0.50517 0.0
C620 C 0.60401 0.05434 0.50934 0.0
C621 C 0.59994 0.06898 0.52471 0.0
C622 C 0.57976 0.07516 0.52871 0.0
C623 C 0.5635 0.06687 0.51738 0.0
C624 C 0.5674 0.05241 0.50199 0.0
C625 C 0.58756 0.04617 0.49793 0.0
H626 H 0.54789 0.07168 0.5205 0.0
H627 H 0.74301 0.00855 0.48165 0.0
H628 H 0.95797 0.64502 0.63669 0.0
H629 H 0.95941 0.6326 0.60116 0.0
H630 H 0.02366 0.64866 0.59802 0.0
H631 H 0.0226 0.66079 0.63339 0.0
H632 H 0.99701 0.66402 0.56517 0.0
H633 H 0.01901 0.5967 0.59649 0.0
H634 H 0.01457 0.56714 0.61992 0.0
H635 H 0.95154 0.56128 0.60119 0.0
H636 H 0.95586 0.59042 0.5772 0.0
H637 H 0.03879 0.6153 0.47706 0.0
H638 H 0.03325 0.62314 0.51355 0.0
H639 H 0.96973 0.60493 0.508 0.0
H640 H 0.97495 0.59758 0.47152 0.0
H641 H 0.99211 0.5906 0.54492 0.0
H642 H 0.97519 0.64925 0.50534 0.0
H643 H 0.97897 0.67716 0.48031 0.0
H644 H 0.02866 0.70271 0.51546 0.0
H645 H 0.0259 0.67422 0.54027 0.0
C646 C 0.97239 0.64598 0.62842 0.0
C647 C 0.99019 0.65388 0.63789 0.0
C648 C 0.9732 0.63871 0.60824 0.0
C649 C 0.99169 0.63958 0.59724 0.0
C650 C 0.00931 0.64778 0.60645 0.0
C651 C 0.00861 0.65478 0.62663 0.0
C652 C 0.99265 0.63298 0.57568 0.0
C653 C 0.99614 0.64798 0.56066 0.0
C654 C 0.99075 0.61217 0.56996 0.0
C655 C 0.9877 0.59571 0.58526 0.0
C656 C 0.00419 0.58915 0.59751 0.0
C657 C 0.00175 0.57239 0.61072 0.0
C658 C 0.98278 0.56234 0.61202 0.0
C659 C 0.96622 0.56905 0.60013 0.0
C660 C 0.96869 0.58559 0.58664 0.0
C661 C 0.02378 0.61259 0.48376 0.0
C662 C 0.00726 0.60599 0.47156 0.0
C663 C 0.02062 0.61718 0.50448 0.0
C664 C 0.00103 0.61483 0.51319 0.0
C665 C 0.98489 0.60691 0.50139 0.0
C666 C 0.98791 0.60277 0.48063 0.0
C667 C 0.99713 0.6216 0.53437 0.0
C668 C 0.99296 0.60668 0.54931 0.0
C669 C -0.00182 0.6426 0.53993 0.0
C670 C 0.0006 0.65927 0.5245 0.0
C671 C 0.98728 0.66048 0.50751 0.0
C672 C 0.98918 0.67651 0.49338 0.0
C673 C 0.00404 0.69175 0.49625 0.0
C674 C 0.01711 0.69092 0.51326 0.0
C675 C 0.0155 0.67472 0.52729 0.0
H676 H 0.00546 0.70418 0.4853 0.0
H677 H 0.98091 0.54936 0.62222 0.0
H678 H 0.36523 0.94687 0.45628 0.0
H679 H 0.34746 0.93915 0.48844 0.0
H680 H 0.30912 0.99261 0.48021 0.0
H681 H 0.32704 0.00072 0.44839 0.0
H682 H 0.32585 0.99313 0.51611 0.0
H683 H 0.28682 0.94338 0.47897 0.0
H684 H 0.27944 0.91412 0.45602 0.0
H685 H 0.31686 0.8748 0.4934 0.0
H686 H 0.32409 0.90372 0.51691 0.0
H687 H 0.27641 0.98412 0.60552 0.0
H688 H 0.27462 0.975 0.56919 0.0
H689 H 0.32625 0.93421 0.5768 0.0
H690 H 0.32779 0.94298 0.61336 0.0
H691 H 0.29825 0.92611 0.54006 0.0
H692 H 0.34089 0.97977 0.57328 0.0
H693 H 0.34501 0.00913 0.59698 0.0
H694 H 0.29767 0.042 0.5649 0.0
H695 H 0.29318 0.01273 0.54114 0.0
C696 C 0.35302 0.95699 0.46132 0.0
C697 C 0.34785 0.97465 0.44998 0.0
C698 C 0.34265 0.95236 0.47953 0.0
C699 C 0.32679 0.96517 0.48657 0.0
C700 C 0.32128 0.9825 0.47501 0.0
C701 C 0.33172 0.98723 0.45694 0.0
C702 C 0.31792 0.96214 0.50726 0.0
C703 C 0.31935 0.97858 0.52109 0.0
C704 C 0.30984 0.94306 0.51398 0.0
C705 C 0.30618 0.92577 0.49956 0.0
C706 C 0.29365 0.92854 0.48218 0.0
C707 C 0.28943 0.912 0.46911 0.0
C708 C 0.29787 0.89268 0.4731 0.0
C709 C 0.3104 0.8898 0.49029 0.0
C710 C 0.31446 0.90623 0.50357 0.0
C711 C 0.28659 0.97232 0.59966 0.0
C712 C 0.30256 0.96458 0.61189 0.0
C713 C 0.28553 0.96708 0.57895 0.0
C714 C 0.3007 0.95443 0.57033 0.0
C715 C 0.3145 0.94408 0.58325 0.0
C716 C 0.31539 0.94912 0.6041 0.0
C717 C 0.30603 0.95714 0.54851 0.0
C718 C 0.30427 0.94069 0.53472 0.0
C719 C 0.31361 0.97631 0.54158 0.0
C720 C 0.31656 0.99403 0.55561 0.0
C721 C 0.33131 0.99323 0.57137 0.0
C722 C 0.33373 0.00986 0.58478 0.0
C723 C 0.32154 0.02738 0.58251 0.0
C724 C 0.30703 0.02839 0.5667 0.0
C725 C 0.30457 0.01181 0.55324 0.0
H726 H 0.32337 0.0402 0.59295 0.0
H727 H 0.29459 0.87992 0.46295 0.0
H728 H 0.41651 0.04239 0.38577 0.0
H729 H 0.45071 0.05557 0.3777 0.0
H730 H 0.47795 0.00081 0.40321 0.0
H731 H 0.44378 0.98723 0.41088 0.0
H732 H 0.4865 0.06425 0.39688 0.0
H733 H 0.51657 0.98457 0.36921 0.0
H734 H 0.50332 0.95167 0.35587 0.0
H735 H 0.44806 0.98156 0.33581 0.0
H736 H 0.46112 0.01468 0.34878 0.0
H737 H 0.59361 0.0474 0.39061 0.0
H738 H 0.55666 0.05121 0.3963 0.0
H739 H 0.54622 0.04747 0.33088 0.0
H740 H 0.58339 0.04366 0.32527 0.0
H741 H 0.5266 0.01797 0.35147 0.0
H742 H 0.53178 0.09031 0.35661 0.0
H743 H 0.54589 0.1236 0.36799 0.0
H744 H 0.53088 0.10898 0.43054 0.0
H745 H 0.51694 0.07546 0.41959 0.0
C746 C 0.42978 0.03336 0.39017 0.0
C747 C 0.42745 0.01361 0.39868 0.0
C748 C 0.44931 0.04094 0.38552 0.0
C749 C 0.46676 0.02893 0.38941 0.0
C750 C 0.46459 0.01009 0.39968 0.0
C751 C 0.44507 0.00239 0.40412 0.0
C752 C 0.48695 0.03515 0.38107 0.0
C753 C 0.49531 0.05417 0.38695 0.0
C754 C 0.49809 0.02218 0.3676 0.0
C755 C 0.48983 0.0022 0.36003 0.0
C756 C 0.50163 0.98418 0.36189 0.0
C757 C 0.49415 0.96546 0.3544 0.0
C758 C 0.47488 0.96453 0.34499 0.0
C759 C 0.463 0.9823 0.34312 0.0
C760 C 0.47044 0.00106 0.35054 0.0
C761 C 0.58342 0.04821 0.37746 0.0
C762 C 0.59105 0.04536 0.35754 0.0
C763 C 0.56237 0.05046 0.38068 0.0
C764 C 0.54872 0.04972 0.364 0.0
C765 C 0.55655 0.04821 0.34392 0.0
C766 C 0.57767 0.04608 0.3407 0.0
C767 C 0.52656 0.04667 0.36795 0.0
C768 C 0.51774 0.02819 0.36123 0.0
C769 C 0.51506 0.06011 0.38056 0.0
C770 C 0.52339 0.0803 0.38726 0.0
C771 C 0.53161 0.09412 0.37281 0.0
C772 C 0.53957 0.11305 0.37919 0.0
C773 C 0.53931 0.11839 0.39998 0.0
C774 C 0.53107 0.10482 0.41444 0.0
C775 C 0.5231 0.08587 0.40815 0.0
H776 H 0.54548 0.13305 0.40488 0.0
H777 H 0.46922 0.95005 0.33911 0.0
H778 H 0.95541 0.56081 0.38742 0.0
H779 H 0.94515 0.5333 0.36409 0.0
H780 H 0.00543 0.50626 0.36926 0.0
H781 H 0.01596 0.53366 0.39252 0.0
H782 H 0.99273 0.51435 0.32839 0.0
H783 H 0.96522 0.48537 0.39203 0.0
H784 H 0.94271 0.48514 0.42247 0.0
H785 H 0.88959 0.49053 0.3837 0.0
H786 H 0.91184 0.49093 0.35298 0.0
H787 H 0.00213 0.41347 0.30967 0.0
H788 H -0.00092 0.44994 0.31455 0.0
H789 H 0.93346 0.44618 0.30495 0.0
H790 H 0.93633 0.4089 0.30105 0.0
H791 H 0.93974 0.46082 0.34013 0.0
H792 H 0.96512 0.4836 0.27637 0.0
H793 H 0.98637 0.48355 0.24493 0.0
H794 H 0.04092 0.49079 0.28127 0.0
H795 H 0.02007 0.49109 0.3129 0.0
C796 C 0.96636 0.54875 0.38403 0.0
C797 C 0.98661 0.54957 0.39168 0.0
C798 C 0.96048 0.53314 0.37058 0.0
C799 C 0.97469 0.51809 0.36475 0.0
C800 C 0.99439 0.51801 0.37344 0.0
C801 C 0.00029 0.53355 0.38691 0.0
C802 C 0.96952 0.50278 0.34896 0.0
C803 C 0.98117 0.50257 0.33083 0.0
C804 C 0.95349 0.48842 0.35169 0.0
C805 C 0.9402 0.48834 0.37021 0.0
C806 C 0.94875 0.48664 0.38998 0.0
C807 C 0.93604 0.48645 0.40729 0.0
C808 C 0.91473 0.48787 0.40503 0.0
C809 C 0.9061 0.48945 0.38543 0.0
C810 C 0.91875 0.48963 0.36807 0.0
C811 C 0.98707 0.42035 0.308 0.0
C812 C 0.96937 0.40819 0.3058 0.0
C813 C 0.98537 0.44146 0.31042 0.0
C814 C 0.96599 0.45096 0.31018 0.0
C815 C 0.94854 0.43916 0.30537 0.0
C816 C 0.9502 0.41785 0.30328 0.0
C817 C 0.96391 0.4714 0.31991 0.0
C818 C 0.95081 0.47292 0.33703 0.0
C819 C 0.9783 0.48723 0.31601 0.0
C820 C 0.99098 0.48745 0.29702 0.0
C821 C 0.98164 0.48522 0.27765 0.0
C822 C 0.99361 0.48519 0.2598 0.0
C823 C 0.01495 0.48717 0.26113 0.0
C824 C 0.02437 0.48927 0.28028 0.0
C825 C 0.01248 0.48954 0.29817 0.0
H826 H 0.02418 0.48705 0.24732 0.0
H827 H 0.90491 0.48771 0.41845 0.0
H828 H 0.38156 0.96009 0.69288 0.0
H829 H 0.41805 0.9507 0.6932 0.0
H830 H 0.4248 0.97656 0.63247 0.0
H831 H 0.38858 0.98487 0.6318 0.0
H832 H 0.44705 0.94403 0.6346 0.0
H833 H 0.43522 0.00375 0.68034 0.0
H834 H 0.42046 0.02012 0.71122 0.0
H835 H 0.44922 0.97469 0.74944 0.0
H836 H 0.46395 0.95792 0.71875 0.0
H837 H 0.54304 0.00921 0.64954 0.0
H838 H 0.50762 0.0003 0.6577 0.0
H839 H 0.52158 0.93597 0.64974 0.0
H840 H 0.55715 0.94477 0.64115 0.0
H841 H 0.49013 0.97791 0.68761 0.0
H842 H 0.47819 0.91283 0.63018 0.0
H843 H 0.49268 0.89952 0.59773 0.0
H844 H 0.51088 0.96059 0.58046 0.0
H845 H 0.4963 0.97425 0.61269 0.0
C846 C 0.3908 0.96333 0.67952 0.0
C847 C 0.38212 0.97327 0.66246 0.0
C848 C 0.41168 0.9581 0.67973 0.0
C849 C 0.4243 0.96313 0.66293 0.0
C850 C 0.41545 0.97239 0.6456 0.0
C851 C 0.39465 0.97731 0.64532 0.0
C852 C 0.44696 0.9604 0.66342 0.0
C853 C 0.45648 0.95113 0.6464 0.0
C854 C 0.45935 0.96943 0.67888 0.0
C855 C 0.45049 0.97949 0.69727 0.0
C856 C 0.4383 0.99722 0.69533 0.0
C857 C 0.42998 0.00657 0.71279 0.0
C858 C 0.4339 -0.00157 0.73227 0.0
C859 C 0.4462 0.98095 0.73434 0.0
C860 C 0.45452 0.97151 0.71692 0.0
C861 C 0.53864 0.99315 0.64944 0.0
C862 C 0.55294 0.97774 0.64445 0.0
C863 C 0.51839 0.98807 0.6543 0.0
C864 C 0.51195 0.96748 0.65434 0.0
C865 C 0.52619 0.95198 0.64965 0.0
C866 C 0.54649 0.95706 0.64464 0.0
C867 C 0.48999 0.96268 0.65819 0.0
C868 C 0.48073 0.97026 0.67615 0.0
C869 C 0.47776 0.95245 0.64342 0.0
C870 C 0.48642 0.94448 0.62393 0.0
C871 C 0.48527 0.92339 0.61943 0.0
C872 C 0.49349 0.9158 0.60108 0.0
C873 C 0.50277 0.92919 0.58708 0.0
C874 C 0.50377 0.95022 0.59135 0.0
C875 C 0.49555 0.9579 0.60966 0.0
H876 H 0.50914 0.92328 0.5729 0.0
H877 H 0.42739 0.00565 0.74577 0.0
H878 H 0.05257 0.4639 0.62008 0.0
H879 H 0.05453 0.49685 0.63828 0.0
H880 H 0.99219 0.48869 0.65949 0.0
H881 H 0.98983 0.45648 0.64067 0.0
H882 H 0.99718 0.52616 0.64883 0.0
H883 H 0.03791 0.47835 0.68851 0.0
H884 H 0.06621 0.45351 0.69161 0.0
H885 H 0.11003 0.50123 0.67862 0.0
H886 H 0.08177 0.52613 0.67428 0.0
H887 H 0.98795 0.59861 0.72363 0.0
H888 H 0.99541 0.56326 0.71341 0.0
H889 H 0.05205 0.5832 0.68533 0.0
H890 H 0.04454 0.61867 0.69531 0.0
H891 H 0.05248 0.54054 0.69941 0.0
H892 H 0.01363 0.58731 0.65849 0.0
H893 H 0.98656 0.61213 0.65024 0.0
H894 H 0.94032 0.56684 0.66318 0.0
H895 H 0.96729 0.54177 0.67231 0.0
C896 C 0.03922 0.46927 0.62844 0.0
C897 C 0.02103 0.45754 0.62885 0.0
C898 C 0.04042 0.48803 0.63901 0.0
C899 C 0.02365 0.49513 0.65067 0.0
C900 C 0.00538 0.48361 0.65068 0.0
C901 C 0.00403 0.46515 0.63982 0.0
C902 C 0.02478 0.51453 0.66286 0.0
C903 C 0.00911 0.52906 0.66011 0.0
C904 C 0.04075 0.51878 0.67714 0.0
C905 C 0.05773 0.50406 0.68088 0.0
C906 C 0.05357 0.48353 0.6862 0.0
C907 C 0.06961 0.4694 0.68807 0.0
C908 C 0.08996 0.47577 0.68527 0.0
C909 C 0.09427 0.49629 0.68066 0.0
C910 C 0.07824 0.5104 0.67842 0.0
C911 C 0.00239 0.59536 0.71599 0.0
C912 C 0.01549 0.61145 0.70995 0.0
C913 C 0.00667 0.57513 0.71022 0.0
C914 C 0.02401 0.57072 0.69816 0.0
C915 C 0.03852 0.5863 0.69453 0.0
C916 C 0.0342 0.60659 0.70028 0.0
C917 C 0.02447 0.55158 0.68575 0.0
C918 C 0.04046 0.53735 0.68831 0.0
C919 C 0.00885 0.54754 0.67114 0.0
C920 C 0.99251 0.56274 0.66639 0.0
C921 C 0.99771 0.58274 0.66005 0.0
C922 C 0.98235 0.59685 0.6551 0.0
C923 C 0.9617 0.59111 0.6561 0.0
C924 C 0.95635 0.57127 0.66237 0.0
C925 C 0.97167 0.55711 0.66751 0.0
H926 H 0.94985 0.60199 0.65194 0.0
H927 H 0.10239 0.46483 0.68674 0.0
H928 H 0.357 0.37296 0.89489 0.0
H929 H 0.36756 0.40665 0.88166 0.0
H930 H 0.34046 0.43593 0.93454 0.0
H931 H 0.32984 0.40277 0.94777 0.0
H932 H 0.34156 0.46006 0.89331 0.0
H933 H 0.39324 0.42814 0.95043 0.0
H934 H 0.40933 0.39509 0.96 0.0
H935 H 0.42142 0.3823 0.89639 0.0
H936 H 0.406 0.41551 0.8866 0.0
H937 H 0.37506 0.52375 0.96925 0.0
H938 H 0.36414 0.49675 0.94572 0.0
H939 H 0.42051 0.50335 0.91145 0.0
H940 H 0.43148 0.53096 0.93486 0.0
H941 H 0.41113 0.46263 0.92455 0.0
H942 H 0.38043 0.51315 0.88335 0.0
H943 H 0.36136 0.5443 0.87351 0.0
H944 H 0.30732 0.52119 0.90354 0.0
H945 H 0.32601 0.4897 0.91337 0.0
C946 C 0.35267 0.38664 0.90333 0.0
C947 C 0.34304 0.38516 0.92264 0.0
C948 C 0.35866 0.40585 0.8957 0.0
C949 C 0.35504 0.42364 0.90732 0.0
C950 C 0.34334 0.42234 0.92534 0.0
C951 C 0.33746 0.40329 0.93299 0.0
C952 C 0.36727 0.44246 0.90426 0.0
C953 C 0.35704 0.46077 0.89945 0.0
C954 C 0.38761 0.44321 0.91187 0.0
C955 C 0.39855 0.42421 0.91782 0.0
C956 C 0.39966 0.41838 0.93856 0.0
C957 C 0.40863 0.39963 0.94402 0.0
C958 C 0.41645 0.38662 0.92882 0.0
C959 C 0.4155 0.39243 0.90817 0.0
C960 C 0.40677 0.41125 0.90267 0.0
C961 C 0.38519 0.51949 0.95674 0.0
C962 C 0.40425 0.52928 0.95405 0.0
C963 C 0.37878 0.50429 0.94311 0.0
C964 C 0.39136 0.49838 0.92664 0.0
C965 C 0.41048 0.50798 0.9239 0.0
C966 C 0.41676 0.52356 0.93736 0.0
C967 C 0.3852 0.48043 0.91419 0.0
C968 C 0.39638 0.46222 0.91678 0.0
C969 C 0.36593 0.47988 0.90413 0.0
C970 C 0.35465 0.49905 0.89909 0.0
C971 C 0.36452 0.51476 0.888 0.0
C972 C 0.35375 0.53246 0.88236 0.0
C973 C 0.33314 0.53474 0.88791 0.0
C974 C 0.32326 0.51935 0.89918 0.0
C975 C 0.33391 0.50151 0.90469 0.0
H976 H 0.3248 0.54841 0.88344 0.0
H977 H 0.42325 0.37205 0.93304 0.0
H978 H 0.40978 0.351 0.96698 0.0
H979 H 0.44678 0.3467 0.97003 0.0
H980 H 0.44208 0.28609 0.94354 0.0
H981 H 0.4048 0.29043 0.94004 0.0
H982 H 0.4672 0.2854 0.97503 0.0
H983 H 0.46158 0.32677 0.91549 0.0
H984 H 0.4522 0.35512 0.8923 0.0
H985 H 0.48086 0.39844 0.93304 0.0
H986 H 0.49046 0.3703 0.95648 0.0
H987 H 0.5813 0.32093 0.95731 0.0
H988 H 0.547 0.31058 0.94639 0.0
H989 H 0.52443 0.31917 0.00805 0.0
H990 H 0.55877 0.32999 0.01923 0.0
H991 H 0.51485 0.34008 0.95154 0.0
H992 H 0.48397 0.27926 0.01042 0.0
H993 H 0.49555 0.24742 0.02736 0.0
H994 H 0.54148 0.23899 0.98073 0.0
H995 H 0.52999 0.27064 0.9634 0.0
C996 C 0.41661 0.33681 0.96158 0.0
C997 C 0.4044 0.32115 0.95304 0.0
C998 C 0.43781 0.33442 0.96323 0.0
C999 C 0.44731 0.3163 0.95645 0.0
C1000 C 0.43514 0.3004 0.94833 0.0
C1001 C 0.41387 0.30291 0.94635 0.0
C1002 C 0.46988 0.31399 0.95859 0.0
C1003 C 0.47765 0.29728 0.96981 0.0
C1004 C 0.4836 0.3292 0.9512 0.0
C1005 C 0.47681 0.34634 0.93773 0.0
C1006 C 0.46581 0.34231 0.91957 0.0
C1007 C 0.46053 0.35836 0.90632 0.0
C1008 C 0.46608 0.37856 0.91111 0.0
C1009 C 0.4767 0.38277 0.92928 0.0
C1010 C 0.48212 0.36676 0.94252 0.0
C1011 C 0.56917 0.32042 0.9687 0.0
C1012 C 0.57276 0.32671 0.98912 0.0
C1013 C 0.5496 0.3143 0.96241 0.0
C1014 C 0.53327 0.31398 0.97643 0.0
C1015 C 0.53695 0.31909 0.99706 0.0
C1016 C 0.55653 0.32548 0.00337 0.0
C1017 C 0.51194 0.31208 0.96883 0.0
C1018 C 0.5044 0.32808 0.95659 0.0
C1019 C 0.49863 0.296 0.97485 0.0
C1020 C 0.50626 0.2775 0.98577 0.0
C1021 C 0.49655 0.27064 0.00381 0.0
C1022 C 0.50308 0.25259 0.01346 0.0
C1023 C 0.51927 0.2412 0.00515 0.0
C1024 C 0.52897 0.24785 0.98718 0.0
C1025 C 0.52253 0.26592 0.97751 0.0
H1026 H 0.52431 0.22723 0.01264 0.0
H1027 H 0.46205 0.39096 0.90081 0.0
H1028 H 0.63717 0.41047 0.96065 0.0
H1029 H 0.6457 0.44695 0.9584 0.0
H1030 H 0.6184 0.4574 0.01776 0.0
H1031 H 0.6097 0.42092 0.02034 0.0
H1032 H 0.61283 0.48996 0.98884 0.0
H1033 H 0.66207 0.44737 0.01795 0.0
H1034 H 0.68723 0.42025 0.02449 0.0
H1035 H 0.72623 0.44437 0.97712 0.0
H1036 H 0.70036 0.47061 0.96882 0.0
H1037 H 0.69891 0.57046 0.00507 0.0
H1038 H 0.68759 0.53482 0.00833 0.0
H1039 H 0.65081 0.54125 0.9536 0.0
H1040 H 0.66192 0.57689 0.95018 0.0
H1041 H 0.68834 0.50068 0.98661 0.0
H1042 H 0.60261 0.5196 0.9642 0.0
H1043 H 0.57816 0.54831 0.96807 0.0
H1044 H 0.61445 0.57311 0.01727 0.0
H1045 H 0.63889 0.54443 0.01399 0.0
C1046 C 0.63251 0.42052 0.97306 0.0
C1047 C 0.6232 0.41264 0.99093 0.0
C1048 C 0.63754 0.44132 0.97177 0.0
C1049 C 0.63329 0.45453 0.9882 0.0
C1050 C 0.622 0.44727 0.00504 0.0
C1051 C 0.61709 0.42641 0.00648 0.0
C1052 C 0.64243 0.47526 0.98856 0.0
C1053 C 0.62932 0.49232 0.9881 0.0
C1054 C 0.66405 0.47816 0.98889 0.0
C1055 C 0.67882 0.46094 0.99242 0.0
C1056 C 0.67551 0.44652 0.00825 0.0
C1057 C 0.69001 0.43124 0.01234 0.0
C1058 C 0.70825 0.43043 0.0011 0.0
C1059 C 0.71197 0.44487 0.98568 0.0
C1060 C 0.69724 0.45981 0.9811 0.0
C1061 C 0.68886 0.56416 0.99337 0.0
C1062 C 0.68109 0.57668 0.97754 0.0
C1063 C 0.68233 0.54381 0.99534 0.0
C1064 C 0.66789 0.53567 0.98156 0.0
C1065 C 0.66158 0.54747 0.96468 0.0
C1066 C 0.66818 0.56778 0.96262 0.0
C1067 C 0.65876 0.51517 0.98522 0.0
C1068 C 0.67186 0.49818 0.9868 0.0
C1069 C 0.63723 0.51235 0.9869 0.0
C1070 C 0.6228 0.52997 0.9886 0.0
C1071 C 0.6054 0.53119 0.97583 0.0
C1072 C 0.59151 0.54746 0.97796 0.0
C1073 C 0.59479 0.56258 0.99286 0.0
C1074 C 0.61198 0.56147 0.00566 0.0
C1075 C 0.62589 0.54523 0.00364 0.0
H1076 H 0.58399 0.57511 0.99455 0.0
H1077 H 0.71957 0.41872 0.00444 0.0
H1078 H 0.60425 0.63251 0.0051 0.0
H1079 H 0.57359 0.62023 0.02219 0.0
H1080 H 0.61063 0.59076 0.06861 0.0
H1081 H 0.64204 0.60392 0.05163 0.0
H1082 H 0.58063 0.56557 0.04186 0.0
H1083 H 0.57962 0.61788 0.09091 0.0
H1084 H 0.58573 0.65246 0.10518 0.0
H1085 H 0.54253 0.67811 0.06252 0.0
H1086 H 0.53633 0.64381 0.04775 0.0
H1087 H 0.46992 0.54951 0.02692 0.0
H1088 H 0.50238 0.55209 0.04588 0.0
H1089 H 0.51705 0.60787 0.01321 0.0
H1090 H 0.48492 0.60544 0.99417 0.0
H1091 H 0.52124 0.61087 0.0567 0.0
H1092 H 0.53865 0.56532 -0.00103 0.0
H1093 H 0.53681 0.53336 0.97865 0.0
H1094 H 0.55243 0.49806 0.03214 0.0
H1095 H 0.55407 0.52985 0.05285 0.0
C1096 C 0.60595 0.62373 0.01915 0.0
C1097 C 0.62543 0.61904 0.02704 0.0
C1098 C 0.58842 0.61693 0.02903 0.0
C1099 C 0.58992 0.60488 0.04678 0.0
C1100 C 0.6093 0.60039 0.05511 0.0
C1101 C 0.62709 0.60781 0.04542 0.0
C1102 C 0.57095 0.59483 0.05381 0.0
C1103 C 0.56755 0.57499 0.04614 0.0
C1104 C 0.55406 0.60727 0.05938 0.0
C1105 C 0.55733 0.62809 0.06836 0.0
C1106 C 0.57138 0.63087 0.08457 0.0
C1107 C 0.57487 0.65045 0.09275 0.0
C1108 C 0.56445 0.66744 0.08483 0.0
C1109 C 0.55049 0.6649 0.06872 0.0
C1110 C 0.54692 0.64535 0.06049 0.0
C1111 C 0.48016 0.56222 0.02363 0.0
C1112 C 0.47481 0.57731 0.00903 0.0
C1113 C 0.49861 0.56368 0.03456 0.0
C1114 C 0.51184 0.58033 0.03115 0.0
C1115 C 0.50681 0.59506 0.01625 0.0
C1116 C 0.48855 0.59353 0.0052 0.0
C1117 C 0.53127 0.58266 0.0426 0.0
C1118 C 0.53425 0.60085 0.05384 0.0
C1119 C 0.54788 0.56898 0.03976 0.0
C1120 C 0.54598 0.54987 0.02755 0.0
C1121 C 0.5413 0.5507 0.00648 0.0
C1122 C 0.54039 0.53264 0.99487 0.0
C1123 C 0.54436 0.51368 0.00413 0.0
C1124 C 0.54925 0.51275 0.02501 0.0
C1125 C 0.55013 0.53077 0.0367 0.0
H1126 H 0.54375 0.49972 0.99509 0.0
H1127 H 0.56725 0.68259 0.09111 0.0
H1128 H 0.51143 0.82919 0.91482 0.0
H1129 H 0.51185 0.8192 0.95089 0.0
H1130 H 0.45517 0.8522 0.96061 0.0
H1131 H 0.45567 0.8636 0.92491 0.0
H1132 H 0.47616 0.85819 0.99094 0.0
H1133 H 0.46052 0.78787 0.96006 0.0
H1134 H 0.46807 0.75767 0.93805 0.0
H1135 H 0.53035 0.75724 0.95966 0.0
H1136 H 0.52315 0.78729 0.98167 0.0
H1137 H 0.45061 0.81526 0.08652 0.0
H1138 H 0.44913 0.81938 0.04909 0.0
H1139 H 0.51247 0.80037 0.04437 0.0
H1140 H 0.51409 0.79638 0.08165 0.0
H1141 H 0.48868 0.78608 0.0122 0.0
H1142 H 0.50407 0.84847 0.04722 0.0
H1143 H 0.49931 0.87638 0.0724 0.0
H1144 H 0.44171 0.89221 0.04438 0.0
H1145 H 0.44593 0.86407 0.01928 0.0
C1146 C 0.49934 0.8347 0.92482 0.0
C1147 C 0.48371 0.84742 0.91712 0.0
C1148 C 0.49922 0.82841 0.94532 0.0
C1149 C 0.48308 0.83413 0.95842 0.0
C1150 C 0.4677 0.84728 0.95083 0.0
C1151 C 0.46798 0.85385 0.9304 0.0
C1152 C 0.48262 0.82741 0.98029 0.0
C1153 C 0.47839 0.84228 0.9954 0.0
C1154 C 0.48668 0.80689 0.98654 0.0
C1155 C 0.49141 0.79007 0.97201 0.0
C1156 C 0.47591 0.7816 0.95964 0.0
C1157 C 0.48009 0.76446 0.94732 0.0
C1158 C 0.49971 0.75572 0.94731 0.0
C1159 C 0.51521 0.7641 0.95957 0.0
C1160 C 0.51108 0.78114 0.97198 0.0
C1161 C 0.46399 0.81134 0.07741 0.0
C1162 C 0.48252 0.80571 0.0869 0.0
C1163 C 0.46317 0.81384 0.05611 0.0
C1164 C 0.48081 0.8105 0.04413 0.0
C1165 C 0.49875 0.8031 0.05341 0.0
C1166 C 0.49966 0.80087 0.07467 0.0
C1167 C 0.48129 0.81665 0.02232 0.0
C1168 C 0.48589 0.80182 0.00745 0.0
C1169 C 0.47796 0.83723 0.0163 0.0
C1170 C 0.47518 0.85398 0.03154 0.0
C1171 C 0.49026 0.85773 0.04659 0.0
C1172 C 0.48768 0.87361 0.06082 0.0
C1173 C 0.4702 0.88603 0.06003 0.0
C1174 C 0.45522 0.88255 0.04502 0.0
C1175 C 0.45769 0.86662 0.03079 0.0
H1176 H 0.46834 0.8984 0.07098 0.0
H1177 H 0.50283 0.7423 0.93799 0.0
H1178 H 0.13849 0.53316 0.05088 0.0
H1179 H 0.14669 0.54931 0.01842 0.0
H1180 H 0.16761 0.60373 0.05002 0.0
H1181 H 0.15978 0.58735 0.0832 0.0
H1182 H 0.13072 0.59187 0.00471 0.0
H1183 H 0.19835 0.61267 0.02871 0.0
H1184 H 0.22972 0.61009 0.04986 0.0
H1185 H 0.23953 0.54855 0.02827 0.0
H1186 H 0.20802 0.55067 0.00711 0.0
H1187 H 0.15832 0.59168 0.89862 0.0
H1188 H 0.16083 0.60559 0.93347 0.0
H1189 H 0.17888 0.54593 0.95596 0.0
H1190 H 0.17644 0.53187 0.92132 0.0
H1191 H 0.19993 0.57898 0.97544 0.0
H1192 H 0.1292 0.55819 0.95538 0.0
H1193 H 0.09874 0.56154 0.93301 0.0
H1194 H 0.09505 0.62589 0.94731 0.0
H1195 H 0.12565 0.62292 0.96958 0.0
C1196 C 0.1448 0.54858 0.05114 0.0
C1197 C 0.14842 0.55896 0.06974 0.0
C1198 C 0.14947 0.5578 0.0325 0.0
C1199 C 0.15777 0.57764 0.03187 0.0
C1200 C 0.16136 0.5883 0.05026 0.0
C1201 C 0.15678 0.57896 0.06915 0.0
C1202 C 0.16262 0.58624 0.01148 0.0
C1203 C 0.14602 0.5901 -0.00171 0.0
C1204 C 0.1825 0.5838 0.00319 0.0
C1205 C 0.20078 0.58178 0.01654 0.0
C1206 C 0.20706 0.59849 0.0287 0.0
C1207 C 0.22489 0.59715 0.04058 0.0
C1208 C 0.23663 0.5792 0.04031 0.0
C1209 C 0.23044 0.56245 0.02834 0.0
C1210 C 0.21258 0.56371 0.01643 0.0
C1211 C 0.16316 0.58158 0.91092 0.0
C1212 C 0.16687 0.56056 0.90726 0.0
C1213 C 0.16466 0.5896 0.93079 0.0
C1214 C 0.16998 0.57676 0.94722 0.0
C1215 C 0.17486 0.55611 0.94342 0.0
C1216 C 0.17324 0.54805 0.92364 0.0
C1217 C 0.16784 0.58369 0.96872 0.0
C1218 C 0.18489 0.58227 0.98184 0.0
C1219 C 0.14837 0.58874 0.97696 0.0
C1220 C 0.1298 0.59039 0.96391 0.0
C1221 C 0.12193 0.57306 0.95366 0.0
C1222 C 0.10465 0.57489 0.94101 0.0
C1223 C 0.09502 0.59393 0.93868 0.0
C1224 C 0.10257 0.61116 0.94908 0.0
C1225 C 0.11987 0.60942 0.96172 0.0
H1226 H 0.08169 0.59533 0.92884 0.0
H1227 H 0.25051 0.5783 0.0494 0.0
H1228 H 0.4428 0.15826 0.88535 0.0
H1229 H 0.42812 0.15543 0.91996 0.0
H1230 H 0.48829 0.16465 0.94611 0.0
H1231 H 0.50293 0.1679 0.91183 0.0
H1232 H 0.44576 0.12254 0.94507 0.0
H1233 H 0.48547 0.18725 0.97462 0.0
H1234 H 0.49068 0.2248 0.97489 0.0
H1235 H 0.42554 0.23416 0.97142 0.0
H1236 H 0.41999 0.19658 0.96986 0.0
H1237 H 0.4775 0.10117 0.04597 0.0
H1238 H 0.47224 0.11142 0.01029 0.0
H1239 H 0.41774 0.14487 0.02767 0.0
H1240 H 0.42278 0.13459 0.06347 0.0
H1241 H 0.44607 0.1684 0.00597 0.0
H1242 H 0.41157 0.10432 -0.00156 0.0
H1243 H 0.40644 0.06693 0.00189 0.0
H1244 H 0.46014 0.05582 0.96519 0.0
H1245 H 0.46578 0.09315 0.96173 0.0
C1246 C 0.45275 0.16039 0.89852 0.0
C1247 C 0.47402 0.16316 0.89593 0.0
C1248 C 0.44433 0.15886 0.91824 0.0
C1249 C 0.45702 0.16043 0.93559 0.0
C1250 C 0.47808 0.16424 0.93299 0.0
C1251 C 0.4865 0.16568 0.91336 0.0
C1252 C 0.44955 0.15363 0.95586 0.0
C1253 C 0.44555 0.13257 0.95839 0.0
C1254 C 0.44897 0.16678 0.9731 0.0
C1255 C 0.45238 0.18918 0.97151 0.0
C1256 C 0.47231 0.19732 0.97325 0.0
C1257 C 0.4753 0.2186 0.97378 0.0
C1258 C 0.45843 0.23185 0.9732 0.0
C1259 C 0.43856 0.22385 0.97167 0.0
C1260 C 0.4355 0.20258 0.97071 0.0
C1261 C 0.46419 0.1104 0.04218 0.0
C1262 C 0.45062 0.11713 0.05756 0.0
C1263 C 0.46114 0.11616 0.02176 0.0
C1264 C 0.44455 0.12882 0.01639 0.0
C1265 C 0.43058 0.13502 0.03155 0.0
C1266 C 0.43347 0.12906 0.05197 0.0
C1267 C 0.44319 0.13713 0.99531 0.0
C1268 C 0.44558 0.1584 0.99262 0.0
C1269 C 0.44248 0.12409 0.97795 0.0
C1270 C 0.43914 0.10158 0.97992 0.0
C1271 C 0.42238 0.09392 0.99122 0.0
C1272 C 0.41936 0.07272 0.99315 0.0
C1273 C 0.43296 0.05901 0.98377 0.0
C1274 C 0.4496 0.06647 0.97242 0.0
C1275 C 0.45269 0.08765 0.97044 0.0
H1276 H 0.4306 0.04261 0.98529 0.0
H1277 H 0.46076 0.2483 0.97387 0.0
H1278 H 0.82831 0.56153 0.9021 0.0
H1279 H 0.82408 0.56951 0.93859 0.0
H1280 H 0.88049 0.53725 0.95206 0.0
H1281 H 0.88394 0.52815 0.91582 0.0
H1282 H 0.85503 0.52579 0.97759 0.0
H1283 H 0.87376 0.59275 0.95414 0.0
H1284 H 0.87196 0.6241 0.93294 0.0
H1285 H 0.81069 0.6356 0.9546 0.0
H1286 H 0.81201 0.60415 0.97571 0.0
H1287 H 0.85562 0.59024 0.07743 0.0
H1288 H 0.85821 0.59005 0.03984 0.0
H1289 H 0.8158 0.53904 0.03722 0.0
H1290 H 0.81408 0.53852 0.07472 0.0
H1291 H 0.83586 0.59359 0.00674 0.0
H1292 H 0.83027 0.50463 0.00268 0.0
H1293 H 0.83715 0.47456 0.02472 0.0
H1294 H 0.88171 0.5094 0.0588 0.0
H1295 H 0.8753 0.53957 0.03678 0.0
C1296 C 0.8399 0.55636 0.91288 0.0
C1297 C 0.85641 0.54416 0.90621 0.0
C1298 C 0.83755 0.56104 0.93374 0.0
C1299 C 0.85206 0.55418 0.94821 0.0
C1300 C 0.86898 0.54263 0.94132 0.0
C1301 C 0.871 0.53747 0.92059 0.0
C1302 C 0.84895 0.55763 0.97064 0.0
C1303 C 0.85092 0.54069 0.98386 0.0
C1304 C 0.84379 0.57707 0.97907 0.0
C1305 C 0.84292 0.59596 0.96635 0.0
C1306 C 0.85984 0.60187 0.95425 0.0
C1307 C 0.85892 0.61968 0.94227 0.0
C1308 C 0.8412 0.6318 0.94238 0.0
C1309 C 0.82439 0.62617 0.95451 0.0
C1310 C 0.82523 0.60836 0.96649 0.0
C1311 C 0.84657 0.57927 0.06876 0.0
C1312 C 0.83489 0.5642 0.07891 0.0
C1313 C 0.84804 0.57917 0.0473 0.0
C1314 C 0.83762 0.56418 0.03572 0.0
C1315 C 0.82446 0.55037 0.04584 0.0
C1316 C 0.8234 0.55013 0.06725 0.0
C1317 C 0.84188 0.56175 0.0134 0.0
C1318 C 0.84004 0.57878 0.0003 0.0
C1319 C 0.84795 0.54257 0.00508 0.0
C1320 C 0.85214 0.5244 0.01821 0.0
C1321 C 0.84159 0.50583 0.01482 0.0
C1322 C 0.8454 0.48878 0.02732 0.0
C1323 C 0.85981 0.49009 0.04319 0.0
C1324 C 0.87051 0.50842 0.04654 0.0
C1325 C 0.86678 0.52551 0.03407 0.0
H1326 H 0.86272 0.47688 0.05286 0.0
H1327 H 0.84052 0.64559 0.93311 0.0
H1328 H 0.91754 0.56785 0.83798 0.0
H1329 H 0.95428 0.57525 0.83563 0.0
H1330 H 0.96721 0.5104 0.83151 0.0
H1331 H 0.93046 0.50274 0.83385 0.0
H1332 H 0.9829 0.56145 0.8642 0.0
H1333 H 0.011 0.50673 0.79847 0.0
H1334 H -0.00075 0.49426 0.76466 0.0
H1335 H 0.95897 0.54619 0.75914 0.0
H1336 H 0.97079 0.55923 0.79267 0.0
H1337 H 0.08668 0.53066 0.87399 0.0
H1338 H 0.04947 0.5328 0.87001 0.0
H1339 H 0.05726 0.57045 0.81624 0.0
H1340 H 0.09462 0.5684 0.81982 0.0
H1341 H 0.03093 0.53911 0.80938 0.0
H1342 H 0.04124 0.59137 0.85965 0.0
H1343 H 0.05379 0.60655 0.89198 0.0
H1344 H 0.01738 0.5637 0.92656 0.0
H1345 H 0.00482 0.54804 0.89442 0.0
C1346 C 0.92814 0.55513 0.83632 0.0
C1347 C 0.92108 0.53467 0.8363 0.0
C1348 C 0.94911 0.55942 0.83498 0.0
C1349 C 0.96335 0.54337 0.8333 0.0
C1350 C 0.95637 0.52298 0.83257 0.0
C1351 C 0.9354 0.51864 0.83408 0.0
C1352 C 0.98559 0.54775 0.83419 0.0
C1353 C 0.99342 0.55666 0.85219 0.0
C1354 C -0.00085 0.54178 0.81831 0.0
C1355 C 0.99161 0.53382 0.79827 0.0
C1356 C -0.00033 0.51552 0.79003 0.0
C1357 C 0.99305 0.50839 0.77087 0.0
C1358 C 0.97835 0.51941 0.75978 0.0
C1359 C 0.97028 0.53762 0.7678 0.0
C1360 C 0.97692 0.54487 0.78691 0.0
C1361 C 0.08052 0.53961 0.86139 0.0
C1362 C 0.09361 0.54934 0.84719 0.0
C1363 C 0.05925 0.54086 0.8592 0.0
C1364 C 0.05071 0.5519 0.84283 0.0
C1365 C 0.06368 0.56197 0.82891 0.0
C1366 C 0.08498 0.56084 0.83109 0.0
C1367 C 0.02824 0.55209 0.83972 0.0
C1368 C 0.02038 0.54396 0.82135 0.0
C1369 C 0.01463 0.55899 0.85517 0.0
C1370 C 0.02212 0.56847 0.87456 0.0
C1371 C 0.03596 0.5851 0.87412 0.0
C1372 C 0.04309 0.5938 0.89243 0.0
C1373 C 0.03639 0.5861 0.91132 0.0
C1374 C 0.02255 0.56967 0.91192 0.0
C1375 C 0.0154 0.56089 0.89365 0.0
H1376 H 0.04189 0.59287 0.92548 0.0
H1377 H 0.97319 0.51382 0.74498 0.0
H1378 H 0.46769 0.09199 0.84222 0.0
H1379 H 0.46675 0.05445 0.84372 0.0
H1380 H 0.53256 0.05232 0.83598 0.0
H1381 H 0.53375 0.08987 0.83479 0.0
H1382 H 0.51064 0.02352 0.81152 0.0
H1383 H 0.5152 0.04572 0.88173 0.0
H1384 H 0.50496 0.06612 0.91198 0.0
H1385 H 0.44512 0.03823 0.91094 0.0
H1386 H 0.45489 0.0179 0.88045 0.0
H1387 H 0.52051 0.91806 0.84383 0.0
H1388 H 0.52503 0.95511 0.84113 0.0
H1389 H 0.4602 0.96396 0.8514 0.0
H1390 H 0.4555 0.92678 0.85464 0.0
H1391 H 0.48409 0.98953 0.87444 0.0
H1392 H 0.47825 0.98817 0.79326 0.0
H1393 H 0.48705 0.97121 0.76045 0.0
H1394 H 0.54797 0.95915 0.78269 0.0
H1395 H 0.53978 0.97691 0.81523 0.0
C1396 C 0.48197 0.08356 0.84074 0.0
C1397 C 0.5008 0.09393 0.83852 0.0
C1398 C 0.4814 0.06213 0.84166 0.0
C1399 C 0.49961 0.0507 0.84019 0.0
C1400 C 0.51836 0.06092 0.83726 0.0
C1401 C 0.51899 0.08236 0.83664 0.0
C1402 C 0.49906 0.02808 0.84218 0.0
C1403 C 0.50513 0.01605 0.82539 0.0
C1404 C 0.49156 0.01844 0.86016 0.0
C1405 C 0.48572 0.03043 0.87868 0.0
C1406 C 0.4998 0.04405 0.88785 0.0
C1407 C 0.49409 0.05559 0.90506 0.0
C1408 C 0.47439 0.05352 0.91334 0.0
C1409 C 0.46037 0.03984 0.90449 0.0
C1410 C 0.46599 0.02829 0.88725 0.0
C1411 C 0.50713 0.92782 0.84537 0.0
C1412 C 0.48757 0.91937 0.84928 0.0
C1413 C 0.50972 0.94905 0.84346 0.0
C1414 C 0.49283 0.96228 0.84516 0.0
C1415 C 0.4734 0.95397 0.8496 0.0
C1416 C 0.47074 0.93271 0.85145 0.0
C1417 C 0.49554 0.98487 0.84371 0.0
C1418 C 0.48979 0.99695 0.86064 0.0
C1419 C 0.50335 0.99459 0.82588 0.0
C1420 C 0.50819 0.98315 0.80688 0.0
C1421 C 0.49347 0.98177 0.79116 0.0
C1422 C 0.49842 0.97224 0.77254 0.0
C1423 C 0.51797 0.96389 0.76958 0.0
C1424 C 0.53275 0.9654 0.78509 0.0
C1425 C 0.528 0.97529 0.80358 0.0
H1426 H 0.52172 0.95636 0.75522 0.0
H1427 H 0.46998 0.06251 0.92663 0.0
H1428 H 0.90663 0.58772 0.15574 0.0
H1429 H 0.94362 0.58839 0.1611 0.0
H1430 H 0.94801 0.52585 0.13943 0.0
H1431 H 0.91075 0.52482 0.13436 0.0
H1432 H 0.97178 0.5326 0.17351 0.0
H1433 H 0.95881 0.56613 0.10792 0.0
H1434 H 0.94287 0.59222 0.08554 0.0
H1435 H 0.97013 0.64034 0.12163 0.0
H1436 H 0.98603 0.6145 0.14438 0.0
H1437 H 0.06467 0.51581 0.12611 0.0
H1438 H 0.02954 0.52244 0.13647 0.0
H1439 H 0.04723 0.58191 0.15993 0.0
H1440 H 0.08298 0.57538 0.14957 0.0
H1441 H 0.01341 0.58254 0.13354 0.0
H1442 H 0.03264 0.5479 0.19448 0.0
H1443 H 0.04945 0.52125 0.2155 0.0
H1444 H 0.01136 0.47489 0.1879 0.0
H1445 H 0.99444 0.50122 0.16656 0.0
C1446 C 0.91541 0.57408 0.15199 0.0
C1447 C 0.90575 0.55626 0.14435 0.0
C1448 C 0.93655 0.57451 0.15516 0.0
C1449 C 0.9485 0.55725 0.1505 0.0
C1450 C 0.93896 0.53932 0.14316 0.0
C1451 C 0.91773 0.53881 0.14011 0.0
C1452 C 0.97107 0.5581 0.15243 0.0
C1453 C 0.98094 0.54347 0.16479 0.0
C1454 C 0.98287 0.5729 0.1417 0.0
C1455 C 0.97338 0.58841 0.12798 0.0
C1456 C 0.96127 0.58228 0.11117 0.0
C1457 C 0.95226 0.59701 0.0984 0.0
C1458 C 0.95543 0.61792 0.1022 0.0
C1459 C 0.96766 0.62414 0.11874 0.0
C1460 C 0.97667 0.60946 0.13156 0.0
C1461 C 0.06123 0.53037 0.13344 0.0
C1462 C 0.07662 0.54518 0.13684 0.0
C1463 C 0.04115 0.53398 0.13962 0.0
C1464 C 0.03594 0.55247 0.14931 0.0
C1465 C 0.05112 0.56743 0.15269 0.0
C1466 C 0.07143 0.56373 0.14667 0.0
C1467 C 0.01416 0.55647 0.15392 0.0
C1468 C 0.00432 0.57205 0.14281 0.0
C1469 C 0.00243 0.54251 0.16577 0.0
C1470 C 0.01234 0.52657 0.17879 0.0
C1471 C 0.02792 0.53202 0.19279 0.0
C1472 C 0.03746 0.51696 0.20478 0.0
C1473 C 0.03156 0.49638 0.20293 0.0
C1474 C 0.01595 0.49084 0.18926 0.0
C1475 C 0.00633 0.50584 0.17726 0.0
H1476 H 0.03907 0.48471 0.21208 0.0
H1477 H 0.94845 0.62931 0.0923 0.0
H1478 H 0.43928 0.87174 0.15455 0.0
H1479 H 0.42925 0.90804 0.15555 0.0
H1480 H 0.49159 0.9257 0.14139 0.0
H1481 H 0.50178 0.88977 0.14047 0.0
H1482 H 0.47501 0.94768 0.17383 0.0
H1483 H 0.45344 0.92372 0.10509 0.0
H1484 H 0.43211 0.90215 0.08227 0.0
H1485 H 0.37733 0.92682 0.1094 0.0
H1486 H 0.39828 0.94822 0.1327 0.0
H1487 H 0.48798 0.041 0.12623 0.0
H1488 H 0.4844 0.0051 0.13574 0.0
H1489 H 0.41912 0.01323 0.14388 0.0
H1490 H 0.4225 0.04956 0.13426 0.0
H1491 H 0.42803 0.97836 0.12226 0.0
H1492 H 0.44691 0.00588 0.18636 0.0
H1493 H 0.46553 0.02692 0.21182 0.0
H1494 H 0.52176 0.99583 0.19689 0.0
H1495 H 0.50353 0.97467 0.17129 0.0
C1496 C 0.45084 0.88335 0.15158 0.0
C1497 C 0.47135 0.8778 0.14739 0.0
C1498 C 0.44506 0.90407 0.15217 0.0
C1499 C 0.45969 0.91951 0.14854 0.0
C1500 C 0.48009 0.914 0.14435 0.0
C1501 C 0.48587 0.8934 0.14374 0.0
C1502 C 0.45416 0.94155 0.14889 0.0
C1503 C 0.46476 0.95443 0.16256 0.0
C1504 C 0.43986 0.95019 0.13498 0.0
C1505 C 0.42742 0.93737 0.12082 0.0
C1506 C 0.43686 0.92442 0.10632 0.0
C1507 C 0.42484 0.91225 0.09328 0.0
C1508 C 0.40342 0.9131 0.0944 0.0
C1509 C 0.39393 0.92615 0.10856 0.0
C1510 C 0.40586 0.93828 0.12171 0.0
C1511 C 0.47279 0.03528 0.12997 0.0
C1512 C 0.45552 0.04825 0.12944 0.0
C1513 C 0.47082 0.01473 0.13562 0.0
C1514 C 0.45156 0.0066 0.1409 0.0
C1515 C 0.43415 0.01929 0.14004 0.0
C1516 C 0.43612 0.04001 0.1345 0.0
C1517 C 0.44994 0.98455 0.14632 0.0
C1518 C 0.43792 0.97165 0.13387 0.0
C1519 C 0.46263 0.97583 0.16165 0.0
C1520 C 0.47384 0.98875 0.1768 0.0
C1521 C 0.46328 0.00364 0.18839 0.0
C1522 C 0.47376 0.01554 0.20291 0.0
C1523 C 0.49483 0.01271 0.20598 0.0
C1524 C 0.50544 -0.00204 0.19455 0.0
C1525 C 0.49503 0.98597 0.18007 0.0
H1526 H 0.50292 0.02193 0.21722 0.0
H1527 H 0.39417 0.90367 0.08427 0.0
H1528 H 0.8214 0.89557 0.54191 0.0
H1529 H 0.82747 0.93209 0.54825 0.0
H1530 H 0.86503 0.93559 0.49387 0.0
H1531 H 0.85945 0.89897 0.48751 0.0
H1532 H 0.88435 0.95142 0.52606 0.0
H1533 H 0.81559 0.95631 0.4985 0.0
H1534 H 0.77856 0.94836 0.49704 0.0
H1535 H 0.77039 0.97354 0.55746 0.0
H1536 H 0.80748 0.98109 0.55957 0.0
H1537 H 0.89687 0.05712 0.51327 0.0
H1538 H 0.88886 0.02075 0.51165 0.0
H1539 H 0.85219 0.02601 0.56666 0.0
H1540 H 0.85964 0.06298 0.56802 0.0
H1541 H 0.83181 0.00528 0.53807 0.0
H1542 H 0.89872 0.00023 0.56678 0.0
H1543 H 0.93573 0.00754 0.57042 0.0
H1544 H 0.94696 0.98235 0.51048 0.0
H1545 H 0.90996 0.97516 0.50633 0.0
C1546 C 0.83085 0.9041 0.53119 0.0
C1547 C 0.84017 0.89425 0.51432 0.0
C1548 C 0.83416 0.925 0.53481 0.0
C1549 C 0.84666 0.93654 0.5216 0.0
C1550 C 0.85536 0.92695 0.50433 0.0
C1551 C 0.8521 0.90602 0.50067 0.0
C1552 C 0.85195 0.95817 0.52661 0.0
C1553 C 0.87285 0.96326 0.52837 0.0
C1554 C 0.83687 0.97337 0.53072 0.0
C1555 C 0.81445 0.96904 0.52929 0.0
C1556 C 0.80597 0.95996 0.51158 0.0
C1557 C 0.78494 0.95553 0.51063 0.0
C1558 C 0.77214 0.96036 0.52718 0.0
C1559 C 0.78032 0.96978 0.54466 0.0
C1560 C 0.80136 0.97409 0.54576 0.0
C1561 C 0.88736 0.05058 0.52527 0.0
C1562 C 0.87888 0.06303 0.54078 0.0
C1563 C 0.88285 0.02967 0.52436 0.0
C1564 C 0.87006 0.02055 0.53912 0.0
C1565 C 0.86214 0.03272 0.55511 0.0
C1566 C 0.86658 0.0538 0.556 0.0
C1567 C 0.86422 -0.00142 0.53692 0.0
C1568 C 0.84327 0.99339 0.53583 0.0
C1569 C 0.87919 0.98315 0.53371 0.0
C1570 C 0.90152 0.98727 0.5362 0.0
C1571 C 0.90905 0.99637 0.55431 0.0
C1572 C 0.93004 0.00047 0.55648 0.0
C1573 C 0.94368 0.99545 0.54068 0.0
C1574 C 0.93637 0.98624 0.5227 0.0
C1575 C 0.9154 0.98212 0.52045 0.0
H1576 H 0.95993 -0.00135 0.54238 0.0
H1577 H 0.75588 0.95686 0.52645 0.0
H1578 H 0.06848 0.82984 0.47536 0.0
H1579 H 0.03336 0.81674 0.47929 0.0
H1580 H 0.02015 0.86523 0.52255 0.0
H1581 H 0.05509 0.87817 0.51904 0.0
H1582 H 0.00976 0.82782 0.53754 0.0
H1583 H 0.00248 0.86545 0.47362 0.0
H1584 H 0.00919 0.87366 0.43726 0.0
H1585 H 0.99076 0.81271 0.41973 0.0
H1586 H 0.98434 0.80399 0.45604 0.0
H1587 H 0.90275 0.84425 0.54119 0.0
H1588 H 0.94031 0.84214 0.54071 0.0
H1589 H 0.93696 0.79064 0.49899 0.0
H1590 H 0.8994 0.79314 0.49903 0.0
H1591 H 0.95754 0.82135 0.48255 0.0
H1592 H 0.96079 0.78501 0.54568 0.0
H1593 H 0.95304 0.77679 0.58185 0.0
H1594 H 0.97771 0.83507 0.60073 0.0
H1595 H 0.98506 0.84387 0.56462 0.0
C1596 C 0.05796 0.83793 0.48542 0.0
C1597 C 0.06458 0.85499 0.49697 0.0
C1598 C 0.03796 0.83037 0.4877 0.0
C1599 C 0.02429 0.83992 0.50137 0.0
C1600 C 0.0306 0.85748 0.51216 0.0
C1601 C 0.05053 0.86493 0.51002 0.0
C1602 C 0.00359 0.83144 0.50523 0.0
C1603 C -0.00173 0.82653 0.52557 0.0
C1604 C 0.98896 0.8288 0.4894 0.0
C1605 C 0.99334 0.83394 0.46762 0.0
C1606 C 0.00018 0.85369 0.46206 0.0
C1607 C 0.00386 0.85845 0.44144 0.0
C1608 C 0.00053 0.84368 0.42621 0.0
C1609 C 0.99345 0.82411 0.43155 0.0
C1610 C 0.98983 0.81924 0.45215 0.0
C1611 C 0.91008 0.8321 0.53247 0.0
C1612 C 0.89847 0.81917 0.51975 0.0
C1613 C 0.93149 0.83081 0.53227 0.0
C1614 C 0.94137 0.81633 0.51963 0.0
C1615 C 0.92959 0.80203 0.50863 0.0
C1616 C 0.90825 0.80351 0.50862 0.0
C1617 C 0.96347 0.8186 0.51504 0.0
C1618 C 0.96911 0.82225 0.49453 0.0
C1619 C 0.97837 0.82011 0.53071 0.0
C1620 C 0.97356 0.81507 0.55243 0.0
C1621 C 0.96441 0.79615 0.55753 0.0
C1622 C 0.96008 0.79138 0.57802 0.0
C1623 C 0.96491 0.80539 0.59358 0.0
C1624 C 0.97401 0.82422 0.58867 0.0
C1625 C 0.97829 0.82908 0.56819 0.0
H1626 H 0.96158 0.80165 0.60944 0.0
H1627 H 0.00333 0.84742 0.41025 0.0
H1628 H 0.1108 0.93884 0.48416 0.0
H1629 H 0.12228 0.97212 0.47107 0.0
H1630 H 0.17185 0.94257 0.43847 0.0
H1631 H 0.16012 0.909 0.45119 0.0
H1632 H 0.18407 0.97468 0.46595 0.0
H1633 H 0.14061 0.96481 0.40911 0.0
H1634 H 0.10924 0.95469 0.39041 0.0
H1635 H 0.07488 0.00113 0.42228 0.0
H1636 H 0.10598 0.01135 0.4414 0.0
H1637 H 0.16768 0.0896 0.42875 0.0
H1638 H 0.16932 0.05279 0.42195 0.0
H1639 H 0.17065 0.04077 0.48713 0.0
H1640 H 0.16921 0.07769 0.49412 0.0
H1641 H 0.14062 0.02689 0.43149 0.0
H1642 H 0.19541 0.99377 0.49613 0.0
H1643 H 0.22834 0.00282 0.51244 0.0
H1644 H 0.24332 0.04207 0.46158 0.0
H1645 H 0.21062 0.03319 0.44485 0.0
C1646 C 0.12382 0.93938 0.47378 0.0
C1647 C 0.13457 0.92141 0.46867 0.0
C1648 C 0.13034 0.95835 0.46629 0.0
C1649 C 0.14789 0.95971 0.45383 0.0
C1650 C 0.15822 0.94173 0.44801 0.0
C1651 C 0.15143 0.92263 0.45518 0.0
C1652 C 0.15629 0.98019 0.44893 0.0
C1653 C 0.17477 0.98619 0.45829 0.0
C1654 C 0.14446 0.9948 0.43818 0.0
C1655 C 0.12564 0.98879 0.42674 0.0
C1656 C 0.12634 0.97277 0.41224 0.0
C1657 C 0.1086 0.96704 0.40154 0.0
C1658 C 0.09007 0.97725 0.40517 0.0
C1659 C 0.08925 0.99324 0.41948 0.0
C1660 C 0.10694 -0.00096 0.43022 0.0
C1661 C 0.16852 0.07915 0.44168 0.0
C1662 C 0.16792 0.08652 0.46203 0.0
C1663 C 0.16959 0.05814 0.43772 0.0
C1664 C 0.17013 0.04408 0.454 0.0
C1665 C 0.17053 0.0514 0.47432 0.0
C1666 C 0.16957 0.07248 0.47832 0.0
C1667 C 0.16771 0.02184 0.44992 0.0
C1668 C 0.1503 0.01549 0.43883 0.0
C1669 C 0.18076 0.00694 0.4589 0.0
C1670 C 0.20044 0.01268 0.46912 0.0
C1671 C 0.20575 0.00422 0.4883 0.0
C1672 C 0.22439 0.00938 0.49768 0.0
C1673 C 0.23793 0.02299 0.48805 0.0
C1674 C 0.23282 0.03153 0.46905 0.0
C1675 C 0.2142 0.02644 0.45961 0.0
H1676 H 0.25236 0.02694 0.49533 0.0
H1677 H 0.07635 0.97278 0.39687 0.0
H1678 H 0.0856 0.14388 0.47434 0.0
H1679 H 0.05252 0.14373 0.49186 0.0
H1680 H 0.08292 0.15099 0.55032 0.0
H1681 H 0.11623 0.15142 0.53291 0.0
H1682 H 0.03887 0.11645 0.51992 0.0
H1683 H 0.04733 0.17795 0.58204 0.0
H1684 H 0.06765 0.20906 0.58983 0.0
H1685 H 0.0745 0.22118 0.52536 0.0
H1686 H 0.05408 0.19021 0.51718 0.0
H1687 H 0.94072 0.13018 0.575 0.0
H1688 H 0.97822 0.13461 0.57782 0.0
H1689 H 0.97981 0.16004 0.51669 0.0
H1690 H 0.94278 0.15571 0.51371 0.0
H1691 H 0.01006 0.1752 0.55914 0.0
H1692 H 0.00249 0.11583 0.49684 0.0
H1693 H 0.98016 0.0867 0.48707 0.0
H1694 H 0.97084 0.07208 0.55073 0.0
H1695 H 0.99334 0.10095 0.56083 0.0
C1696 C 0.08533 0.14547 0.49094 0.0
C1697 C 0.10361 0.14755 0.50221 0.0
C1698 C 0.06639 0.14537 0.5009 0.0
C1699 C 0.06531 0.14738 0.52235 0.0
C1700 C 0.08345 0.14959 0.53373 0.0
C1701 C 0.10248 0.14971 0.52375 0.0
C1702 C 0.04502 0.14651 0.5325 0.0
C1703 C 0.03274 0.12918 0.52878 0.0
C1704 C 0.03717 0.16292 0.54447 0.0
C1705 C 0.04943 0.1816 0.54903 0.0
C1706 C 0.05318 0.18726 0.56953 0.0
C1707 C 0.0647 0.20485 0.57401 0.0
C1708 C 0.07245 0.21701 0.5581 0.0
C1709 C 0.0686 0.21166 0.53766 0.0
C1710 C 0.05709 0.19405 0.53309 0.0
C1711 C 0.94905 0.13725 0.56244 0.0
C1712 C 0.93899 0.1422 0.54397 0.0
C1713 C 0.97038 0.13986 0.56412 0.0
C1714 C 0.98161 0.14758 0.54742 0.0
C1715 C 0.9713 0.15412 0.52973 0.0
C1716 C 0.9502 0.15141 0.52799 0.0
C1717 C 0.00407 0.14534 0.5462 0.0
C1718 C 0.01666 0.16209 0.55123 0.0
C1719 C 0.01238 0.1284 0.5355 0.0
C1720 C -0.00054 0.11058 0.52957 0.0
C1721 C 0.99577 0.10629 0.50873 0.0
C1722 C 0.98307 0.08986 0.50314 0.0
C1723 C 0.97405 0.07757 0.51827 0.0
C1724 C 0.97779 0.08164 0.53903 0.0
C1725 C 0.9905 0.09804 0.54469 0.0
H1726 H 0.96418 0.06489 0.51392 0.0
H1727 H 0.08138 0.23058 0.56165 0.0
H1728 H 0.10476 0.20025 0.43414 0.0
H1729 H 0.08567 0.21721 0.40685 0.0
H1730 H 0.14244 0.23742 0.37919 0.0
H1731 H 0.1619 0.22028 0.40652 0.0
H1732 H 0.10953 0.26721 0.37961 0.0
H1733 H 0.12252 0.19795 0.35889 0.0
H1734 H 0.12391 0.1604 0.36373 0.0
H1735 H 0.05856 0.15872 0.37284 0.0
H1736 H 0.05681 0.19633 0.3684 0.0
H1737 H 0.05184 0.2997 0.2961 0.0
H1738 H 0.07879 0.27911 0.31225 0.0
H1739 H 0.03256 0.24466 0.34516 0.0
H1740 H 0.00553 0.26467 0.32824 0.0
H1741 H 0.06537 0.22114 0.33762 0.0
H1742 H 0.05293 0.2896 0.36428 0.0
H1743 H 0.05047 0.32728 0.36162 0.0
H1744 H 0.11388 0.33066 0.34367 0.0
H1745 H 0.11661 0.29286 0.34576 0.0
C1746 C 0.11326 0.20853 0.42245 0.0
C1747 C 0.13487 0.20863 0.42229 0.0
C1748 C 0.1023 0.21814 0.40685 0.0
C1749 C 0.11273 0.22804 0.39084 0.0
C1750 C 0.13422 0.22959 0.39138 0.0
C1751 C 0.14527 0.21988 0.40702 0.0
C1752 C 0.10095 0.23593 0.37322 0.0
C1753 C 0.10024 0.25717 0.37006 0.0
C1754 C 0.08864 0.22269 0.36112 0.0
C1755 C 0.08956 0.2 0.36342 0.0
C1756 C 0.10846 0.1896 0.36205 0.0
C1757 C 0.10931 0.16829 0.36471 0.0
C1758 C 0.09134 0.15718 0.36861 0.0
C1759 C 0.07247 0.16735 0.36981 0.0
C1760 C 0.07153 0.18866 0.3672 0.0
C1761 C 0.04749 0.28721 0.30622 0.0
C1762 C 0.02677 0.28378 0.31118 0.0
C1763 C 0.06284 0.27555 0.31548 0.0
C1764 C 0.05766 0.26083 0.33034 0.0
C1765 C 0.03687 0.25606 0.33381 0.0
C1766 C 0.02145 0.26744 0.32416 0.0
C1767 C 0.07357 0.25253 0.34425 0.0
C1768 C 0.07503 0.23119 0.34679 0.0
C1769 C 0.08646 0.2657 0.35595 0.0
C1770 C 0.0849 0.28841 0.35492 0.0
C1771 C 0.06631 0.29836 0.35963 0.0
C1772 C 0.06487 0.31975 0.35824 0.0
C1773 C 0.08199 0.33138 0.35247 0.0
C1774 C 0.10062 0.32163 0.3481 0.0
C1775 C 0.10211 0.30023 0.34935 0.0
H1776 H 0.08083 0.34794 0.35142 0.0
H1777 H 0.09203 0.14069 0.37068 0.0
H1778 H 0.8582 0.0872 0.4578 0.0
H1779 H 0.84059 0.07011 0.42948 0.0
H1780 H 0.78276 0.09494 0.45029 0.0
H1781 H 0.80016 0.11212 0.47877 0.0
H1782 H 0.78028 0.05438 0.43956 0.0
H1783 H 0.80775 0.11791 0.41242 0.0
H1784 H 0.83545 0.14258 0.40447 0.0
H1785 H 0.86565 0.09715 0.36733 0.0
H1786 H 0.83825 0.0721 0.37532 0.0
H1787 H 0.72306 0.07554 0.34495 0.0
H1788 H 0.75342 0.08371 0.36545 0.0
H1789 H 0.76654 0.01909 0.37195 0.0
H1790 H 0.73623 0.01076 0.35115 0.0
H1791 H 0.79593 0.07485 0.36777 0.0
H1792 H 0.77137 0.01489 0.42896 0.0
H1793 H 0.74106 0.99523 0.4405 0.0
H1794 H 0.70131 0.03917 0.41157 0.0
H1795 H 0.73116 0.05949 0.40077 0.0
C1796 C 0.84169 0.08891 0.45653 0.0
C1797 C 0.83057 0.10116 0.4705 0.0
C1798 C 0.83172 0.07918 0.44026 0.0
C1799 C 0.8105 0.08151 0.43775 0.0
C1800 C 0.79922 0.09306 0.45204 0.0
C1801 C 0.80917 0.10287 0.46827 0.0
C1802 C 0.79992 0.07234 0.41998 0.0
C1803 C 0.78391 0.05853 0.42381 0.0
C1804 C 0.80469 0.078 0.39954 0.0
C1805 C 0.82111 0.09306 0.39468 0.0
C1806 C 0.8204 0.11312 0.40271 0.0
C1807 C 0.83602 0.12718 0.39817 0.0
C1808 C 0.85234 0.12141 0.38546 0.0
C1809 C 0.85303 0.10158 0.37721 0.0
C1810 C 0.83746 0.08745 0.38174 0.0
C1811 C 0.73287 0.06312 0.3501 0.0
C1812 C 0.72727 0.04256 0.34671 0.0
C1813 C 0.75023 0.06779 0.36172 0.0
C1814 C 0.76191 0.05195 0.37045 0.0
C1815 C 0.75753 0.03144 0.36543 0.0
C1816 C 0.74031 0.02675 0.35348 0.0
C1817 C 0.7761 0.05698 0.38737 0.0
C1818 C 0.79281 0.07004 0.38342 0.0
C1819 C 0.77171 0.05098 0.40783 0.0
C1820 C 0.75357 0.03837 0.41346 0.0
C1821 C 0.75613 0.02028 0.42498 0.0
C1822 C 0.739 0.00911 0.43158 0.0
C1823 C 0.71921 0.01578 0.42659 0.0
C1824 C 0.71655 0.03381 0.41526 0.0
C1825 C 0.7336 0.0452 0.40891 0.0
H1826 H 0.70599 0.00706 0.43167 0.0
H1827 H 0.86441 0.13232 0.38195 0.0
H1828 H -0.00036 0.67742 0.44424 0.0
H1829 H 0.97728 0.70509 0.45648 0.0
H1830 H 0.96229 0.7207 0.39394 0.0
H1831 H 0.98542 0.69374 0.38157 0.0
H1832 H 0.95772 0.7541 0.42471 0.0
H1833 H 0.93752 0.68201 0.41165 0.0
H1834 H 0.94367 0.64491 0.41658 0.0
H1835 H 0.9392 0.65258 0.48197 0.0
H1836 H 0.93325 0.68979 0.47739 0.0
H1837 H 0.85486 0.78314 0.43151 0.0
H1838 H 0.88572 0.76469 0.4207 0.0
H1839 H 0.88965 0.73639 0.48057 0.0
H1840 H 0.85831 0.75424 0.49112 0.0
H1841 H 0.90179 0.71057 0.45328 0.0
H1842 H 0.91661 0.7804 0.46774 0.0
H1843 H 0.91487 0.81829 0.46605 0.0
H1844 H 0.93266 0.81651 0.40258 0.0
H1845 H 0.93414 0.77864 0.40382 0.0
C1846 C 0.99251 0.68758 0.43315 0.0
C1847 C 0.99386 0.68344 0.41204 0.0
C1848 C 0.97975 0.70326 0.44014 0.0
C1849 C 0.96776 0.71429 0.42609 0.0
C1850 C 0.9714 0.71218 0.40496 0.0
C1851 C 0.98458 0.69679 0.39792 0.0
C1852 C 0.94837 0.72357 0.43307 0.0
C1853 C 0.94535 0.7447 0.4308 0.0
C1854 C 0.9326 0.71116 0.44151 0.0
C1855 C 0.93506 0.68865 0.44418 0.0
C1856 C 0.93784 0.67576 0.42706 0.0
C1857 C 0.94131 0.65473 0.4298 0.0
C1858 C 0.94187 0.6464 0.44958 0.0
C1859 C 0.93875 0.65905 0.46666 0.0
C1860 C 0.9353 0.6801 0.464 0.0
C1861 C 0.86194 0.7724 0.44206 0.0
C1862 C 0.85429 0.77003 0.4621 0.0
C1863 C 0.87971 0.76214 0.43601 0.0
C1864 C 0.89035 0.74976 0.45008 0.0
C1865 C 0.88177 0.74605 0.46954 0.0
C1866 C 0.86376 0.75605 0.47549 0.0
C1867 C 0.91077 0.74134 0.44477 0.0
C1868 C 0.91403 0.7202 0.44728 0.0
C1869 C 0.92684 0.75389 0.43691 0.0
C1870 C 0.92525 0.77666 0.43586 0.0
C1871 C 0.9199 0.7881 0.45339 0.0
C1872 C 0.91902 0.80955 0.45252 0.0
C1873 C 0.92362 0.81978 0.43422 0.0
C1874 C 0.92907 0.80856 0.41674 0.0
C1875 C 0.92992 0.7871 0.41752 0.0
H1876 H 0.923 0.83639 0.4336 0.0
H1877 H 0.9447 0.63014 0.45168 0.0
H1878 H 0.31316 0.91667 0.35768 0.0
H1879 H 0.28709 0.89425 0.3727 0.0
H1880 H 0.32526 0.88536 0.42614 0.0
H1881 H 0.35161 0.90727 0.41115 0.0
H1882 H 0.3011 0.85195 0.41896 0.0
H1883 H 0.29505 0.92522 0.42314 0.0
H1884 H 0.29176 0.96109 0.41156 0.0
H1885 H 0.23545 0.94621 0.38052 0.0
H1886 H 0.23859 0.91009 0.39156 0.0
H1887 H 0.22019 0.85064 0.4963 0.0
H1888 H 0.25126 0.85719 0.47597 0.0
H1889 H 0.21485 0.85861 0.42063 0.0
H1890 H 0.18393 0.85206 0.44051 0.0
H1891 H 0.23854 0.89439 0.42884 0.0
H1892 H 0.2454 0.82035 0.4263 0.0
H1893 H 0.24824 0.78587 0.44176 0.0
H1894 H 0.30303 0.80439 0.47361 0.0
H1895 H 0.30035 0.83909 0.45856 0.0
C1896 C 0.31632 0.90939 0.37231 0.0
C1897 C 0.33416 0.91423 0.3835 0.0
C1898 C 0.30143 0.89658 0.38084 0.0
C1899 C 0.3041 0.88873 0.40073 0.0
C1900 C 0.32291 0.89145 0.41082 0.0
C1901 C 0.33791 0.90408 0.40223 0.0
C1902 C 0.28634 0.88084 0.41231 0.0
C1903 C 0.2874 0.86119 0.42113 0.0
C1904 C 0.26863 0.89313 0.4153 0.0
C1905 C 0.26717 0.91479 0.40803 0.0
C1906 C 0.28208 0.92947 0.41364 0.0
C1907 C 0.28023 0.9499 0.4072 0.0
C1908 C 0.26341 0.95591 0.3953 0.0
C1909 C 0.24849 0.94151 0.38971 0.0
C1910 C 0.25031 0.92105 0.39604 0.0
C1911 C 0.21885 0.85201 0.47977 0.0
C1912 C 0.19953 0.85111 0.47008 0.0
C1913 C 0.23659 0.85564 0.46821 0.0
C1914 C 0.23518 0.85835 0.44689 0.0
C1915 C 0.21613 0.85656 0.43711 0.0
C1916 C 0.19848 0.85287 0.44855 0.0
C1917 C 0.25304 0.86532 0.43492 0.0
C1918 C 0.25209 0.88501 0.42631 0.0
C1919 C 0.27088 0.85325 0.43249 0.0
C1920 C 0.27257 0.83237 0.44145 0.0
C1921 C 0.25796 0.81713 0.43674 0.0
C1922 C 0.25956 0.79753 0.4454 0.0
C1923 C 0.27578 0.79296 0.4587 0.0
C1924 C 0.29046 0.80796 0.46332 0.0
C1925 C 0.28892 0.82759 0.45472 0.0
H1926 H 0.27699 0.77778 0.46538 0.0
H1927 H 0.26187 0.97174 0.39047 0.0
H1928 H 0.12595 0.80893 0.57452 0.0
H1929 H 0.10646 0.79511 0.60341 0.0
H1930 H 0.07937 0.85469 0.61397 0.0
H1931 H 0.09847 0.8686 0.58481 0.0
H1932 H 0.10227 0.80295 0.64418 0.0
H1933 H 0.02821 0.84619 0.62541 0.0
H1934 H 0.01339 0.86606 0.59671 0.0
H1935 H 0.04634 0.82875 0.5534 0.0
H1936 H 0.06095 0.80836 0.58181 0.0
H1937 H 0.02699 0.75939 0.71081 0.0
H1938 H 0.04406 0.78824 0.69336 0.0
H1939 H 0.02995 0.7609 0.6346 0.0
H1940 H 0.01308 0.73225 0.65178 0.0
H1941 H 0.02665 0.8032 0.63383 0.0
H1942 H 0.07411 0.74964 0.65692 0.0
H1943 H 0.09055 0.72817 0.68347 0.0
H1944 H 0.11177 0.7824 0.71462 0.0
H1945 H 0.0952 0.80419 0.68835 0.0
C1946 C 0.11606 0.81918 0.58313 0.0
C1947 C 0.11347 0.83976 0.57714 0.0
C1948 C 0.10503 0.81129 0.59972 0.0
C1949 C 0.09132 0.82385 0.61064 0.0
C1950 C 0.08969 0.84471 0.60555 0.0
C1951 C 0.10056 0.85258 0.58883 0.0
C1952 C 0.07727 0.81444 0.62578 0.0
C1953 C 0.08572 0.8033 0.64216 0.0
C1954 C 0.05568 0.81484 0.62303 0.0
C1955 C 0.04592 0.82601 0.60575 0.0
C1956 C 0.03216 0.84214 0.60975 0.0
C1957 C 0.02383 0.85351 0.59355 0.0
C1958 C 0.02911 0.8488 0.57327 0.0
C1959 C 0.04239 0.83246 0.56912 0.0
C1960 C 0.05065 0.82097 0.58526 0.0
C1961 C 0.02717 0.75984 0.69417 0.0
C1962 C 0.01905 0.74349 0.68261 0.0
C1963 C 0.0369 0.77627 0.68426 0.0
C1964 C 0.03835 0.77656 0.66274 0.0
C1965 C 0.02894 0.76097 0.65122 0.0
C1966 C 0.01948 0.74452 0.66106 0.0
C1967 C 0.05169 0.79141 0.65198 0.0
C1968 C 0.04314 0.80351 0.63635 0.0
C1969 C 0.07321 0.79158 0.65516 0.0
C1970 C 0.08321 0.77851 0.67087 0.0
C1971 C 0.08215 0.75697 0.66953 0.0
C1972 C 0.09151 0.74475 0.6845 0.0
C1973 C 0.10214 0.75392 0.70076 0.0
C1974 C 0.10348 0.77533 0.70205 0.0
C1975 C 0.09411 0.78761 0.68713 0.0
H1976 H 0.10939 0.74443 0.71234 0.0
H1977 H 0.02279 0.85775 0.56079 0.0
H1978 H 0.28297 0.04337 0.60544 0.0
H1979 H 0.27473 0.07042 0.58079 0.0
H1980 H 0.2774 0.11566 0.62921 0.0
H1981 H 0.28548 0.08837 0.65413 0.0
H1982 H 0.24622 0.12287 0.59892 0.0
H1983 H 0.31822 0.11102 0.60231 0.0
H1984 H 0.34963 0.08992 0.60371 0.0
H1985 H 0.33649 0.06571 0.54375 0.0
H1986 H 0.30476 0.08632 0.54215 0.0
H1987 H 0.23551 0.18509 0.51309 0.0
H1988 H 0.25725 0.17554 0.5423 0.0
H1989 H 0.26322 0.11427 0.51757 0.0
H1990 H 0.24156 0.12375 0.48859 0.0
H1991 H 0.29649 0.12487 0.54149 0.0
H1992 H 0.22067 0.12726 0.54429 0.0
H1993 H 0.18759 0.14572 0.54265 0.0
H1994 H 0.20751 0.18628 0.5908 0.0
H1995 H 0.24086 0.16822 0.59247 0.0
C1996 C 0.28121 0.05901 0.61089 0.0
C1997 C 0.28494 0.06393 0.63153 0.0
C1998 C 0.27667 0.07443 0.59684 0.0
C1999 C 0.27612 0.09503 0.60315 0.0
C2000 C 0.27801 0.09983 0.62409 0.0
C2001 C 0.28242 0.08427 0.63829 0.0
C2002 C 0.27498 0.11132 0.58739 0.0
C2003 C 0.2575 0.12381 0.58667 0.0
C2004 C 0.28975 0.11243 0.57144 0.0
C2005 C 0.30907 0.10025 0.57212 0.0
C2006 C 0.32197 0.10114 0.58945 0.0
C2007 C 0.33984 0.08926 0.59028 0.0
C2008 C 0.34509 0.07654 0.57379 0.0
C2009 C 0.33247 0.07567 0.55645 0.0
C2010 C 0.31453 0.08745 0.55558 0.0
C2011 C 0.2425 0.16999 0.51331 0.0
C2012 C 0.23677 0.15503 0.49882 0.0
C2013 C 0.25476 0.16449 0.53009 0.0
C2014 C 0.26136 0.14406 0.53232 0.0
C2015 C 0.25818 0.13009 0.5162 0.0
C2016 C 0.24583 0.1355 0.49961 0.0
C2017 C 0.26733 0.13579 0.55261 0.0
C2018 C 0.28569 0.12466 0.55419 0.0
C2019 C 0.25333 0.13583 0.56931 0.0
C2020 C 0.2333 0.14659 0.56833 0.0
C2021 C 0.21803 0.1402 0.55442 0.0
C2022 C 0.19924 0.15058 0.55349 0.0
C2023 C 0.19547 0.16718 0.5666 0.0
C2024 C 0.21048 0.17344 0.58064 0.0
C2025 C 0.22932 0.16316 0.58157 0.0
H2026 H 0.1809 0.17513 0.56597 0.0
H2027 H 0.35891 0.06731 0.57448 0.0
H2028 H 0.88099 0.18999 0.58822 0.0
H2029 H 0.89452 0.22416 0.59547 0.0
H2030 H 0.86537 0.24765 0.5408 0.0
H2031 H 0.85181 0.21345 0.53329 0.0
H2032 H 0.90572 0.25755 0.54202 0.0
H2033 H 0.84875 0.26371 0.58697 0.0
H2034 H 0.8241 0.25336 0.61382 0.0
H2035 H 0.87298 0.25054 0.65804 0.0
H2036 H 0.89799 0.26057 0.6314 0.0
H2037 H 0.94999 0.35521 0.57368 0.0
H2038 H 0.92424 0.32965 0.56322 0.0
H2039 H 0.94657 0.28802 0.60965 0.0
H2040 H 0.97223 0.31312 0.6201 0.0
H2041 H 0.90332 0.29298 0.60951 0.0
H2042 H 0.96013 0.27851 0.56232 0.0
H2043 H 0.98525 0.28892 0.53585 0.0
H2044 H 0.93602 0.30823 0.4964 0.0
H2045 H 0.91065 0.29827 0.52284 0.0
C2046 C 0.87706 0.20247 0.57794 0.0
C2047 C 0.86538 0.19889 0.56013 0.0
C2048 C 0.88476 0.22204 0.58215 0.0
C2049 C 0.88089 0.23845 0.56869 0.0
C2050 C 0.86851 0.23519 0.55138 0.0
C2051 C 0.86068 0.21562 0.5472 0.0
C2052 C 0.89135 0.25842 0.57192 0.0
C2053 C 0.90478 0.26561 0.55659 0.0
C2054 C 0.89026 0.26882 0.59097 0.0
C2055 C 0.87528 0.2628 0.60712 0.0
C2056 C 0.85428 0.26074 0.60238 0.0
C2057 C 0.84023 0.25495 0.61758 0.0
C2058 C 0.84697 0.25127 0.63762 0.0
C2059 C 0.86778 0.2534 0.64251 0.0
C2060 C 0.88189 0.25917 0.62737 0.0
C2061 C 0.94946 0.34058 0.58158 0.0
C2062 C 0.96318 0.33622 0.59772 0.0
C2063 C 0.93476 0.32604 0.57561 0.0
C2064 C 0.9335 0.30708 0.5858 0.0
C2065 C 0.94724 0.30267 0.60174 0.0
C2066 C 0.962 0.31701 0.60757 0.0
C2067 C 0.91808 0.29149 0.57995 0.0
C2068 C 0.90376 0.28519 0.59478 0.0
C2069 C 0.91833 0.28193 0.56048 0.0
C2070 C 0.93353 0.28773 0.54454 0.0
C2071 C 0.95469 0.28507 0.54803 0.0
C2072 C 0.96897 0.2909 0.53305 0.0
C2073 C 0.96224 0.29926 0.51447 0.0
C2074 C 0.94122 0.30179 0.51082 0.0
C2075 C 0.92689 0.29605 0.52579 0.0
H2076 H 0.97331 0.30377 0.50289 0.0
H2077 H 0.83607 0.24679 0.64936 0.0
H2078 H 0.67734 0.98703 0.58678 0.0
H2079 H 0.70446 0.97409 0.56403 0.0
H2080 H 0.72423 0.93259 0.61195 0.0
H2081 H 0.69845 0.94674 0.635 0.0
H2082 H 0.75482 0.93936 0.58889 0.0
H2083 H 0.68096 0.92194 0.57506 0.0
H2084 H 0.64592 0.93281 0.5653 0.0
H2085 H 0.66961 0.96065 0.51034 0.0
H2086 H 0.7048 0.95011 0.51992 0.0
H2087 H 0.74666 0.83453 0.54727 0.0
H2088 H 0.72963 0.8671 0.55648 0.0
H2089 H 0.77658 0.90098 0.52406 0.0
H2090 H 0.79269 0.8686 0.51379 0.0
H2091 H 0.71746 0.90552 0.53157 0.0
H2092 H 0.79197 0.93596 0.57024 0.0
H2093 H 0.82441 0.92312 0.58501 0.0
H2094 H 0.79657 0.86426 0.59568 0.0
H2095 H 0.7637 0.87712 0.58223 0.0
C2096 C 0.68805 0.97566 0.59253 0.0
C2097 C 0.68575 0.96745 0.61234 0.0
C2098 C 0.70345 0.96826 0.57959 0.0
C2099 C 0.71584 0.95182 0.58601 0.0
C2100 C 0.7148 0.94519 0.60654 0.0
C2101 C 0.69997 0.95314 0.61971 0.0
C2102 C 0.72695 0.93882 0.57104 0.0
C2103 C 0.74687 0.93229 0.57604 0.0
C2104 C 0.71655 0.92957 0.55425 0.0
C2105 C 0.69542 0.93538 0.54824 0.0
C2106 C 0.67864 0.93035 0.56088 0.0
C2107 C 0.65879 0.9365 0.55542 0.0
C2108 C 0.65555 0.94747 0.53724 0.0
C2109 C 0.67215 0.95222 0.52444 0.0
C2110 C 0.69204 0.94616 0.52987 0.0
C2111 C 0.75275 0.84893 0.54153 0.0
C2112 C 0.7709 0.84935 0.53004 0.0
C2113 C 0.74314 0.86741 0.54674 0.0
C2114 C 0.75213 0.88625 0.54108 0.0
C2115 C 0.76956 0.88655 0.52857 0.0
C2116 C 0.77875 0.86814 0.52286 0.0
C2117 C 0.74469 0.90542 0.55031 0.0
C2118 C 0.72571 0.91314 0.54391 0.0
C2119 C 0.75572 0.91531 0.56625 0.0
C2120 C 0.77553 0.90729 0.57432 0.0
C2121 C 0.79278 0.92025 0.57562 0.0
C2122 C 0.81121 0.91303 0.58397 0.0
C2123 C 0.81267 0.89278 0.59092 0.0
C2124 C 0.79555 0.87985 0.58997 0.0
C2125 C 0.77698 0.88712 0.582 0.0
H2126 H 0.82699 0.88717 0.59723 0.0
H2127 H 0.64019 0.95225 0.53305 0.0
H2128 H 0.40276 0.10712 0.1815 0.0
H2129 H 0.38837 0.09846 0.21503 0.0
H2130 H 0.44233 0.12306 0.24475 0.0
H2131 H 0.4569 0.13183 0.21129 0.0
H2132 H 0.43435 0.08298 0.25464 0.0
H2133 H 0.39844 0.14634 0.25328 0.0
H2134 H 0.37688 0.17377 0.23858 0.0
H2135 H 0.32617 0.13176 0.23366 0.0
H2136 H 0.34751 0.10396 0.24803 0.0
H2137 H 0.36799 0.06148 0.34971 0.0
H2138 H 0.38055 0.08641 0.32442 0.0
H2139 H 0.38207 0.03886 0.27827 0.0
H2140 H 0.3695 0.01391 0.30317 0.0
H2141 H 0.36498 0.09756 0.28287 0.0
H2142 H 0.42926 0.04247 0.257 0.0
H2143 H 0.45121 0.01518 0.27151 0.0
H2144 H 0.44629 0.04277 0.33131 0.0
H2145 H 0.42446 0.07015 0.31714 0.0
C2146 C 0.41146 0.11096 0.19517 0.0
C2147 C 0.43108 0.11991 0.19374 0.0
C2148 C 0.40311 0.10621 0.2143 0.0
C2149 C 0.41427 0.11028 0.23228 0.0
C2150 C 0.43348 0.11996 0.23099 0.0
C2151 C 0.44178 0.12488 0.21186 0.0
C2152 C 0.40716 0.10169 0.25196 0.0
C2153 C 0.41932 0.08642 0.26101 0.0
C2154 C 0.38761 0.10633 0.26024 0.0
C2155 C 0.37464 0.12302 0.25165 0.0
C2156 C 0.38274 0.14289 0.24892 0.0
C2157 C 0.37054 0.15852 0.24067 0.0
C2158 C 0.35017 0.1545 0.23517 0.0
C2159 C 0.34195 0.13485 0.23794 0.0
C2160 C 0.35408 0.11916 0.24617 0.0
C2161 C 0.37079 0.05638 0.33412 0.0
C2162 C 0.3679 0.03566 0.32849 0.0
C2163 C 0.37786 0.07065 0.31973 0.0
C2164 C 0.38234 0.06431 0.29967 0.0
C2165 C 0.37877 0.0439 0.2938 0.0
C2166 C 0.37157 0.0297 0.30805 0.0
C2167 C 0.39193 0.07851 0.28494 0.0
C2168 C 0.38021 0.09461 0.27677 0.0
C2169 C 0.41193 0.07474 0.27741 0.0
C2170 C 0.42513 0.05828 0.28603 0.0
C2171 C 0.43292 0.04271 0.27323 0.0
C2172 C 0.44532 0.02718 0.2814 0.0
C2173 C 0.45012 0.02716 0.30232 0.0
C2174 C 0.44251 0.04266 0.31513 0.0
C2175 C 0.43008 0.05816 0.30705 0.0
H2176 H 0.45978 0.01518 0.30855 0.0
H2177 H 0.34076 0.16663 0.22878 0.0
H2178 H 0.89139 0.35297 0.29254 0.0
H2179 H 0.87351 0.38192 0.27667 0.0
H2180 H 0.91831 0.38295 0.22785 0.0
H2181 H 0.93626 0.35397 0.24352 0.0
H2182 H 0.91485 0.42008 0.24992 0.0
H2183 H 0.87081 0.37024 0.2169 0.0
H2184 H 0.84694 0.34079 0.21596 0.0
H2185 H 0.80442 0.37359 0.2543 0.0
H2186 H 0.82819 0.40314 0.25572 0.0
H2187 H 0.87762 0.49063 0.17836 0.0
H2188 H 0.89011 0.4617 0.19828 0.0
H2189 H 0.83753 0.46621 0.23843 0.0
H2190 H 0.82462 0.49536 0.21819 0.0
H2191 H 0.84314 0.42739 0.22511 0.0
H2192 H 0.88523 0.47776 0.25702 0.0
H2193 H 0.90898 0.50721 0.25987 0.0
H2194 H 0.9547 0.47408 0.22578 0.0
H2195 H 0.93129 0.44441 0.22275 0.0
C2196 C 0.89707 0.35893 0.27807 0.0
C2197 C 0.91532 0.35126 0.26936 0.0
C2198 C 0.88684 0.37549 0.26906 0.0
C2199 C 0.89474 0.38465 0.25124 0.0
C2200 C 0.91207 0.3761 0.24168 0.0
C2201 C 0.92219 0.3594 0.25056 0.0
C2202 C 0.88633 0.4044 0.24382 0.0
C2203 C 0.89926 0.42167 0.24422 0.0
C2204 C 0.86568 0.40657 0.23745 0.0
C2205 C 0.85139 0.38881 0.23661 0.0
C2206 C 0.85647 0.3711 0.2253 0.0
C2207 C 0.84293 0.3544 0.22464 0.0
C2208 C 0.8242 0.35529 0.23512 0.0
C2209 C 0.81895 0.37291 0.24623 0.0
C2210 C 0.83244 0.38964 0.24695 0.0
C2211 C 0.86873 0.48567 0.19154 0.0
C2212 C 0.85001 0.49522 0.1966 0.0
C2213 C 0.87603 0.46919 0.20304 0.0
C2214 C 0.86486 0.4619 0.21995 0.0
C2215 C 0.84641 0.47168 0.22545 0.0
C2216 C 0.8391 0.48835 0.21395 0.0
C2217 C 0.87186 0.44303 0.2306 0.0
C2218 C 0.85868 0.42591 0.23096 0.0
C2219 C 0.89225 0.44102 0.2379 0.0
C2220 C 0.9064 0.4589 0.23952 0.0
C2221 C 0.9003 0.4768 0.25001 0.0
C2222 C 0.91374 0.4935 0.25173 0.0
C2223 C 0.93334 0.49251 0.24301 0.0
C2224 C 0.93956 0.47479 0.2326 0.0
C2225 C 0.92622 0.458 0.23093 0.0
H2226 H 0.94373 0.50545 0.24435 0.0
H2227 H 0.81374 0.34236 0.23458 0.0
H2228 H 0.63842 0.97337 0.27227 0.0
H2229 H 0.6182 0.94941 0.25139 0.0
H2230 H 0.57987 0.93572 0.30363 0.0
H2231 H 0.59944 0.95994 0.32453 0.0
H2232 H 0.60432 0.90116 0.28034 0.0
H2233 H 0.55439 0.95528 0.27536 0.0
H2234 H 0.54065 0.98976 0.26787 0.0
H2235 H 0.55998 0.98418 0.20504 0.0
H2236 H 0.57408 0.94973 0.21222 0.0
H2237 H 0.53416 0.83205 0.23071 0.0
H2238 H 0.54985 0.85827 0.25272 0.0
H2239 H 0.57328 0.88951 0.19914 0.0
H2240 H 0.55759 0.86367 0.17709 0.0
H2241 H 0.55431 0.91577 0.22473 0.0
H2242 H 0.6049 0.86195 0.22983 0.0
H2243 H 0.6172 0.82681 0.23688 0.0
H2244 H 0.59638 0.83171 0.2993 0.0
H2245 H 0.5837 0.8668 0.29254 0.0
C2246 C 0.62553 0.96549 0.27927 0.0
C2247 C 0.62063 0.96853 0.30012 0.0
C2248 C 0.61396 0.95192 0.26729 0.0
C2249 C 0.59758 0.94101 0.27606 0.0
C2250 C 0.59239 0.94422 0.29666 0.0
C2251 C 0.60366 0.95803 0.30854 0.0
C2252 C 0.58734 0.92461 0.26434 0.0
C2253 C 0.59315 0.90426 0.26835 0.0
C2254 C 0.57313 0.92891 0.24856 0.0
C2255 C 0.5656 0.95003 0.24443 0.0
C2256 C 0.55602 0.96152 0.26003 0.0
C2257 C 0.548 0.981 0.25579 0.0
C2258 C 0.54941 0.98915 0.23599 0.0
C2259 C 0.55885 0.97783 0.22037 0.0
C2260 C 0.56687 0.95833 0.22452 0.0
C2261 C 0.5429 0.84434 0.22364 0.0
C2262 C 0.54458 0.8458 0.20216 0.0
C2263 C 0.55181 0.85931 0.23623 0.0
C2264 C 0.56269 0.8758 0.22751 0.0
C2265 C 0.56482 0.87698 0.20613 0.0
C2266 C 0.55589 0.86213 0.19358 0.0
C2267 C 0.57146 0.89224 0.24051 0.0
C2268 C 0.56542 0.91261 0.23675 0.0
C2269 C 0.58551 0.88798 0.25651 0.0
C2270 C 0.59315 0.86691 0.26061 0.0
C2271 C 0.60279 0.85546 0.24501 0.0
C2272 C 0.60986 0.83557 0.24896 0.0
C2273 C 0.60752 0.82701 0.26851 0.0
C2274 C 0.59815 0.83835 0.28416 0.0
C2275 C 0.59104 0.85824 0.28028 0.0
H2276 H 0.613 0.81161 0.27155 0.0
H2277 H 0.54324 0.00425 0.23275 0.0
H2278 H 0.0521 0.60394 0.32267 0.0
H2279 H 0.06634 0.5839 0.29453 0.0
H2280 H 0.07982 0.5342 0.33626 0.0
H2281 H 0.06568 0.55425 0.36475 0.0
H2282 H 0.11226 0.54347 0.31255 0.0
H2283 H 0.04232 0.52994 0.30275 0.0
H2284 H 0.00515 0.53572 0.29889 0.0
H2285 H 0.01563 0.56823 0.24252 0.0
H2286 H 0.05293 0.56352 0.24639 0.0
H2287 H 0.14685 0.49976 0.21426 0.0
H2288 H 0.12925 0.50234 0.24751 0.0
H2289 H 0.10957 0.56376 0.23237 0.0
H2290 H 0.12711 0.56158 0.19951 0.0
H2291 H 0.07741 0.53578 0.24521 0.0
H2292 H 0.14706 0.55881 0.26413 0.0
H2293 H 0.18435 0.55326 0.26812 0.0
H2294 H 0.17269 0.50114 0.30689 0.0
H2295 H 0.13529 0.50626 0.30291 0.0
C2296 C 0.05803 0.58875 0.32594 0.0
C2297 C 0.05784 0.58077 0.34601 0.0
C2298 C 0.06598 0.57722 0.30978 0.0
C2299 C 0.07382 0.55746 0.3133 0.0
C2300 C 0.07369 0.54938 0.33326 0.0
C2301 C 0.06566 0.5609 0.34948 0.0
C2302 C 0.08352 0.54613 0.29622 0.0
C2303 C 0.10447 0.54128 0.29796 0.0
C2304 C 0.07324 0.54318 0.27725 0.0
C2305 C 0.05065 0.54642 0.27496 0.0
C2306 C 0.03681 0.53862 0.28967 0.0
C2307 C 0.01566 0.5417 0.28748 0.0
C2308 C 0.00802 0.5523 0.27048 0.0
C2309 C 0.02155 0.55999 0.25569 0.0
C2310 C 0.04274 0.55715 0.25791 0.0
C2311 C 0.13905 0.51394 0.21816 0.0
C2312 C 0.13832 0.53043 0.20415 0.0
C2313 C 0.12894 0.5153 0.23708 0.0
C2314 C 0.11793 0.53311 0.24211 0.0
C2315 C 0.11781 0.5498 0.22855 0.0
C2316 C 0.128 0.54855 0.20983 0.0
C2317 C 0.10619 0.53475 0.26137 0.0
C2318 C 0.08486 0.5375 0.26002 0.0
C2319 C 0.116 0.53579 0.28066 0.0
C2320 C 0.13843 0.53273 0.28298 0.0
C2321 C 0.15246 0.54605 0.27333 0.0
C2322 C 0.1736 0.54301 0.27563 0.0
C2323 C 0.18088 0.5268 0.28768 0.0
C2324 C 0.16703 0.51365 0.29752 0.0
C2325 C 0.14586 0.51661 0.29525 0.0
H2326 H 0.19726 0.52448 0.28946 0.0
H2327 H 0.99163 0.55455 0.26877 0.0
H2328 H 0.45778 0.86091 0.76759 0.0
H2329 H 0.44241 0.8848 0.74269 0.0
H2330 H 0.39274 0.8967 0.78493 0.0
H2331 H 0.40756 0.87281 0.8095 0.0
H2332 H 0.38619 0.893 0.73492 0.0
H2333 H 0.41851 0.9474 0.79358 0.0
H2334 H 0.44869 0.95066 0.81592 0.0
H2335 H 0.48655 0.92261 0.76976 0.0
H2336 H 0.45656 0.92005 0.74661 0.0
H2337 H 0.3219 0.97395 0.75068 0.0
H2338 H 0.34868 0.94933 0.75993 0.0
H2339 H 0.39211 0.98195 0.72208 0.0
H2340 H 0.36563 0.00726 0.71348 0.0
H2341 H 0.40949 0.96263 0.75601 0.0
H2342 H 0.37533 0.9251 0.69265 0.0
H2343 H 0.34336 0.92057 0.67274 0.0
H2344 H 0.30976 0.91053 0.72866 0.0
H2345 H 0.34155 0.91546 0.74878 0.0
C2346 C 0.44323 0.86813 0.77123 0.0
C2347 C 0.434 0.86532 0.79059 0.0
C2348 C 0.43457 0.8818 0.75706 0.0
C2349 C 0.41671 0.89266 0.76227 0.0
C2350 C 0.40661 0.88846 0.78078 0.0
C2351 C 0.41516 0.87491 0.79483 0.0
C2352 C 0.40963 0.91049 0.75039 0.0
C2353 C 0.39166 0.90828 0.73883 0.0
C2354 C 0.41681 0.93035 0.75556 0.0
C2355 C 0.43525 0.93319 0.76856 0.0
C2356 C 0.43331 0.94208 0.78812 0.0
C2357 C 0.45041 0.94375 0.80095 0.0
C2358 C 0.46952 0.93642 0.79447 0.0
C2359 C 0.47166 0.92794 0.77486 0.0
C2360 C 0.45464 0.9265 0.76183 0.0
C2361 C 0.33741 0.97638 0.74512 0.0
C2362 C 0.3417 0.99224 0.7312 0.0
C2363 C 0.35249 0.96199 0.74985 0.0
C2364 C 0.37172 0.96294 0.74017 0.0
C2365 C 0.37701 0.98053 0.72891 0.0
C2366 C 0.36199 0.99518 0.72436 0.0
C2367 C 0.38569 0.94511 0.74116 0.0
C2368 C 0.40473 0.94751 0.75082 0.0
C2369 C 0.37959 0.92539 0.73409 0.0
C2370 C 0.36049 0.92204 0.72222 0.0
C2371 C 0.36098 0.92267 0.70068 0.0
C2372 C 0.34295 0.91977 0.68935 0.0
C2373 C 0.32444 0.91565 0.69945 0.0
C2374 C 0.32402 0.91409 0.72086 0.0
C2375 C 0.34203 0.91703 0.73223 0.0
H2376 H 0.31049 0.91339 0.69067 0.0
H2377 H 0.48274 0.9376 0.80448 0.0
H2378 H 0.09037 0.40481 0.65746 0.0
H2379 H 0.10726 0.41626 0.68894 0.0
H2380 H 0.06121 0.38507 0.72514 0.0
H2381 H 0.04463 0.37303 0.69381 0.0
H2382 H 0.09162 0.44131 0.71457 0.0
H2383 H 0.07933 0.37601 0.77395 0.0
H2384 H 0.07826 0.33812 0.77501 0.0
H2385 H 0.11637 0.33521 0.72122 0.0
H2386 H 0.1179 0.37307 0.72 0.0
H2387 H 0.10492 0.48377 0.8127 0.0
H2388 H 0.08866 0.46139 0.78702 0.0
H2389 H 0.14541 0.4278 0.78025 0.0
H2390 H 0.16176 0.45024 0.80561 0.0
H2391 H 0.11035 0.40252 0.77727 0.0
H2392 H 0.13863 0.46486 0.74859 0.0
H2393 H 0.14406 0.50179 0.74192 0.0
H2394 H 0.07962 0.50942 0.72999 0.0
H2395 H 0.07376 0.47255 0.73688 0.0
C2396 C 0.08407 0.40003 0.67211 0.0
C2397 C 0.06609 0.38811 0.6731 0.0
C2398 C 0.09374 0.40658 0.6901 0.0
C2399 C 0.08553 0.40148 0.70942 0.0
C2400 C 0.06806 0.38889 0.71045 0.0
C2401 C 0.05852 0.38212 0.69247 0.0
C2402 C 0.09383 0.41133 0.72822 0.0
C2403 C 0.09557 0.43279 0.72826 0.0
C2404 C 0.0992 0.40018 0.7461 0.0
C2405 C 0.09854 0.37739 0.74677 0.0
C2406 C 0.08754 0.36729 0.76239 0.0
C2407 C 0.08684 0.34581 0.76301 0.0
C2408 C 0.09718 0.33427 0.74815 0.0
C2409 C 0.10829 0.34417 0.73267 0.0
C2410 C 0.10905 0.36564 0.73199 0.0
C2411 C 0.11367 0.4712 0.80618 0.0
C2412 C 0.13457 0.46875 0.81091 0.0
C2413 C 0.10444 0.45853 0.79149 0.0
C2414 C 0.11595 0.44314 0.78166 0.0
C2415 C 0.13631 0.4396 0.78768 0.0
C2416 C 0.14563 0.45245 0.80208 0.0
C2417 C 0.10773 0.43247 0.76342 0.0
C2418 C 0.106 0.41095 0.76357 0.0
C2419 C 0.10263 0.4435 0.74545 0.0
C2420 C 0.10573 0.466 0.74347 0.0
C2421 C 0.12556 0.47449 0.74495 0.0
C2422 C 0.12874 0.49537 0.74099 0.0
C2423 C 0.11222 0.50788 0.7354 0.0
C2424 C 0.0924 0.49968 0.73429 0.0
C2425 C 0.08914 0.47881 0.73825 0.0
H2426 H 0.11482 0.52391 0.73183 0.0
H2427 H 0.09661 0.31765 0.74865 0.0
H2428 H 0.63077 0.01577 0.73157 0.0
H2429 H 0.61182 0.02835 0.76144 0.0
H2430 H 0.55503 0.00686 0.73457 0.0
H2431 H 0.57391 0.99514 0.70432 0.0
H2432 H 0.55609 0.0464 0.73537 0.0
H2433 H 0.56622 0.99577 0.78459 0.0
H2434 H 0.58325 0.9693 0.8056 0.0
H2435 H 0.62248 0.01527 0.83223 0.0
H2436 H 0.60583 0.04199 0.81122 0.0
H2437 H 0.51945 0.12898 0.79314 0.0
H2438 H 0.52286 0.0929 0.78367 0.0
H2439 H 0.58715 0.09483 0.80017 0.0
H2440 H 0.58319 0.13071 0.81134 0.0
H2441 H 0.57147 0.05815 0.80904 0.0
H2442 H 0.56776 0.10496 0.74961 0.0
H2443 H 0.55005 0.13106 0.72857 0.0
H2444 H 0.49893 0.09007 0.72026 0.0
H2445 H 0.51614 0.06395 0.74162 0.0
C2446 C 0.61437 0.01298 0.73252 0.0
C2447 C 0.60361 0.00512 0.71562 0.0
C2448 C 0.60354 0.01995 0.74968 0.0
C2449 C 0.58194 0.01881 0.75008 0.0
C2450 C 0.57165 0.00804 0.73447 0.0
C2451 C 0.5824 0.00152 0.71717 0.0
C2452 C 0.57046 0.03392 0.76255 0.0
C2453 C 0.55892 0.04852 0.75167 0.0
C2454 C 0.57432 0.03689 0.78371 0.0
C2455 C 0.58472 0.02091 0.79627 0.0
C2456 C 0.57856 0.00023 0.79483 0.0
C2457 C 0.58813 0.98517 0.80676 0.0
C2458 C 0.60394 0.9906 0.82024 0.0
C2459 C 0.6102 0.0111 0.8218 0.0
C2460 C 0.60064 0.02622 0.80991 0.0
C2461 C 0.53433 0.1217 0.79458 0.0
C2462 C 0.55131 0.13265 0.80215 0.0
C2463 C 0.53621 0.10107 0.78937 0.0
C2464 C 0.55537 0.09134 0.79071 0.0
C2465 C 0.57223 0.10209 0.79896 0.0
C2466 C 0.57011 0.1226 0.80496 0.0
C2467 C 0.55848 0.07088 0.78141 0.0
C2468 C 0.56825 0.05545 0.79291 0.0
C2469 C 0.55315 0.06706 0.76069 0.0
C2470 C 0.54309 0.08264 0.74743 0.0
C2471 C 0.5527 0.10158 0.74337 0.0
C2472 C 0.54273 0.11639 0.73143 0.0
C2473 C 0.52331 0.1123 0.72321 0.0
C2474 C 0.5139 0.0933 0.72674 0.0
C2475 C 0.52373 0.0785 0.73879 0.0
H2476 H 0.51556 0.12385 0.71412 0.0
H2477 H 0.61135 0.97893 0.82948 0.0
H2478 H 0.93737 0.63807 0.76145 0.0
H2479 H 0.90281 0.62376 0.75843 0.0
H2480 H 0.88137 0.68026 0.73135 0.0
H2481 H 0.91587 0.69497 0.73481 0.0
H2482 H 0.85335 0.64785 0.7634 0.0
H2483 H 0.8828 0.65836 0.69501 0.0
H2484 H 0.91331 0.66228 0.67276 0.0
H2485 H 0.93492 0.60284 0.69134 0.0
H2486 H 0.90467 0.59857 0.71371 0.0
H2487 H 0.81173 0.55231 0.76723 0.0
H2488 H 0.81286 0.58038 0.74213 0.0
H2489 H 0.8792 0.5793 0.74444 0.0
H2490 H 0.87801 0.55157 0.7693 0.0
H2491 H 0.86481 0.59669 0.70801 0.0
H2492 H 0.85058 0.60506 0.78824 0.0
H2493 H 0.82516 0.59814 0.81565 0.0
H2494 H 0.77654 0.61895 0.7762 0.0
H2495 H 0.8017 0.62582 0.74857 0.0
C2496 C 0.92508 0.6478 0.75584 0.0
C2497 C 0.9293 0.6675 0.74825 0.0
C2498 C 0.90539 0.63962 0.75404 0.0
C2499 C 0.88978 0.65094 0.7444 0.0
C2500 C 0.89329 0.67141 0.73885 0.0
C2501 C 0.91299 0.67976 0.74096 0.0
C2502 C 0.8716 0.63963 0.7371 0.0
C2503 C 0.85507 0.63728 0.75061 0.0
C2504 C 0.87378 0.62608 0.72025 0.0
C2505 C 0.89138 0.62809 0.70588 0.0
C2506 C 0.89402 0.64609 0.69425 0.0
C2507 C 0.91127 0.64839 0.68165 0.0
C2508 C 0.92597 0.63279 0.68054 0.0
C2509 C 0.92345 0.61484 0.69203 0.0
C2510 C 0.90621 0.61243 0.70462 0.0
C2511 C 0.8265 0.55735 0.76142 0.0
C2512 C 0.84483 0.55022 0.77035 0.0
C2513 C 0.82712 0.57341 0.74713 0.0
C2514 C 0.84607 0.58228 0.74182 0.0
C2515 C 0.86435 0.57278 0.74833 0.0
C2516 C 0.86373 0.55699 0.76267 0.0
C2517 C 0.84766 0.60399 0.7353 0.0
C2518 C 0.86142 0.60845 0.71933 0.0
C2519 C 0.84287 0.61956 0.74977 0.0
C2520 C 0.82793 0.61602 0.76649 0.0
C2521 C 0.83447 0.60827 0.78554 0.0
C2522 C 0.82012 0.60428 0.80104 0.0
C2523 C 0.79926 0.60815 0.79766 0.0
C2524 C 0.7927 0.61598 0.77878 0.0
C2525 C 0.80697 0.61991 0.7632 0.0
H2526 H 0.78817 0.6051 0.80964 0.0
H2527 H 0.93932 0.63464 0.67081 0.0
H2528 H 0.20562 0.46507 0.10745 0.0
H2529 H 0.22464 0.44316 0.08352 0.0
H2530 H 0.17304 0.44306 0.04202 0.0
H2531 H 0.15392 0.46522 0.06557 0.0
H2532 H 0.19533 0.40147 0.05999 0.0
H2533 H 0.20041 0.46325 0.01993 0.0
H2534 H 0.20788 0.49944 0.01154 0.0
H2535 H 0.27068 0.49123 0.03 0.0
H2536 H 0.26347 0.4551 0.03898 0.0
H2537 H 0.2543 0.34403 0.98523 0.0
H2538 H 0.2289 0.36693 0.00107 0.0
H2539 H 0.27747 0.39825 0.03369 0.0
H2540 H 0.3028 0.3757 0.01795 0.0
H2541 H 0.25207 0.42484 0.01474 0.0
H2542 H 0.24603 0.36401 0.05771 0.0
H2543 H 0.23929 0.32725 0.06416 0.0
H2544 H 0.17857 0.33355 0.03908 0.0
H2545 H 0.18507 0.37031 0.03224 0.0
C2546 C 0.19832 0.46048 0.09321 0.0
C2547 C 0.17826 0.46689 0.08843 0.0
C2548 C 0.20923 0.44808 0.07955 0.0
C2549 C 0.20025 0.44188 0.06099 0.0
C2550 C 0.18025 0.44805 0.05618 0.0
C2551 C 0.16939 0.46066 0.06969 0.0
C2552 C 0.21136 0.4276 0.04749 0.0
C2553 C 0.20749 0.40653 0.04976 0.0
C2554 C 0.22727 0.43439 0.0344 0.0
C2555 C 0.23129 0.45651 0.03044 0.0
C2556 C 0.2157 0.46925 0.02262 0.0
C2557 C 0.21993 0.48972 0.01759 0.0
C2558 C 0.23976 0.49759 0.02015 0.0
C2559 C 0.25535 0.48508 0.02794 0.0
C2560 C 0.25118 0.46462 0.03306 0.0
C2561 C 0.25948 0.35566 0.99596 0.0
C2562 C 0.28052 0.35819 0.00028 0.0
C2563 C 0.24499 0.36871 0.00496 0.0
C2564 C 0.25138 0.38424 0.0185 0.0
C2565 C 0.2723 0.38645 0.02313 0.0
C2566 C 0.28673 0.37352 0.01415 0.0
C2567 C 0.23653 0.39865 0.02775 0.0
C2568 C 0.2397 0.41976 0.02471 0.0
C2569 C 0.22 0.3919 0.04012 0.0
C2570 C 0.21612 0.36982 0.04423 0.0
C2571 C 0.23131 0.35751 0.0534 0.0
C2572 C 0.22752 0.33669 0.05717 0.0
C2573 C 0.20854 0.32805 0.05197 0.0
C2574 C 0.19328 0.34024 0.04305 0.0
C2575 C 0.19701 0.36107 0.03924 0.0
H2576 H 0.20563 0.31194 0.0549 0.0
H2577 H 0.24304 0.51338 0.01612 0.0
H2578 H 0.34418 0.62686 0.94445 0.0
H2579 H 0.31803 0.62229 0.91801 0.0
H2580 H 0.35693 0.57878 0.88666 0.0
H2581 H 0.38342 0.58352 0.91275 0.0
H2582 H 0.33501 0.59901 0.85945 0.0
H2583 H 0.32151 0.56294 0.92152 0.0
H2584 H 0.31672 0.55804 0.95874 0.0
H2585 H 0.26481 0.59872 0.95781 0.0
H2586 H 0.26947 0.60412 0.92057 0.0
H2587 H 0.24533 0.53922 0.82312 0.0
H2588 H 0.27846 0.55096 0.83684 0.0
H2589 H 0.24997 0.60681 0.85821 0.0
H2590 H 0.21707 0.5955 0.84443 0.0
H2591 H 0.26778 0.57846 0.88907 0.0
H2592 H 0.28302 0.61301 0.82462 0.0
H2593 H 0.28848 0.61406 0.78715 0.0
H2594 H 0.33771 0.5705 0.79273 0.0
H2595 H 0.33233 0.56897 0.83024 0.0
C2596 C 0.34732 0.6165 0.9318 0.0
C2597 C 0.3657 0.60519 0.93098 0.0
C2598 C 0.33236 0.61392 0.91669 0.0
C2599 C 0.3353 0.59965 0.90078 0.0
C2600 C 0.35424 0.58958 0.89901 0.0
C2601 C 0.36934 0.59231 0.91399 0.0
C2602 C 0.31791 0.59374 0.88736 0.0
C2603 C 0.32034 0.5944 0.86591 0.0
C2604 C 0.29888 0.58738 0.89582 0.0
C2605 C 0.29595 0.58407 0.91823 0.0
C2606 C 0.30913 0.57093 0.92924 0.0
C2607 C 0.30644 0.56806 0.95035 0.0
C2608 C 0.2905 0.5781 0.96064 0.0
C2609 C 0.27718 0.59098 0.94982 0.0
C2610 C 0.27983 0.59395 0.9287 0.0
C2611 C 0.24628 0.55431 0.8301 0.0
C2612 C 0.22849 0.56626 0.83303 0.0
C2613 C 0.2652 0.56097 0.83792 0.0
C2614 C 0.26648 0.57963 0.84865 0.0
C2615 C 0.24918 0.59232 0.85002 0.0
C2616 C 0.23039 0.58578 0.84217 0.0
C2617 C 0.28465 0.58451 0.86127 0.0
C2618 C 0.28241 0.58327 0.88264 0.0
C2619 C 0.30389 0.58975 0.85272 0.0
C2620 C 0.30712 0.59071 0.8302 0.0
C2621 C 0.29487 0.6035 0.81784 0.0
C2622 C 0.29798 0.60422 0.7966 0.0
C2623 C 0.31339 0.59231 0.78756 0.0
C2624 C 0.32576 0.57969 0.79975 0.0
C2625 C 0.3227 0.57891 0.821 0.0
H2626 H 0.31578 0.59289 0.77111 0.0
H2627 H 0.28846 0.57587 0.977 0.0
H2628 H 0.43713 0.21344 0.82973 0.0
H2629 H 0.41736 0.21745 0.86139 0.0
H2630 H 0.47352 0.21708 0.89665 0.0
H2631 H 0.49342 0.21416 0.86487 0.0
H2632 H 0.41862 0.18747 0.89252 0.0
H2633 H 0.46819 0.2365 0.9317 0.0
H2634 H 0.49278 0.26538 0.92955 0.0
H2635 H 0.45131 0.29787 0.8898 0.0
H2636 H 0.42627 0.26935 0.89233 0.0
H2637 H 0.35837 0.25472 0.9746 0.0
H2638 H 0.38806 0.23288 0.9671 0.0
H2639 H 0.36434 0.2218 0.9062 0.0
H2640 H 0.33506 0.24391 0.91347 0.0
H2641 H 0.4124 0.24928 0.93651 0.0
H2642 H 0.38268 0.17927 0.88673 0.0
H2643 H 0.35944 0.14968 0.89109 0.0
H2644 H 0.36468 0.15473 0.95665 0.0
H2645 H 0.38816 0.18419 0.95274 0.0
C2646 C 0.44525 0.21513 0.84417 0.0
C2647 C 0.46672 0.21384 0.84488 0.0
C2648 C 0.43399 0.21712 0.86224 0.0
C2649 C 0.444 0.21751 0.88134 0.0
C2650 C 0.46553 0.21726 0.88207 0.0
C2651 C 0.47687 0.21572 0.86389 0.0
C2652 C 0.4314 0.21699 0.90018 0.0
C2653 C 0.41755 0.20064 0.90266 0.0
C2654 C 0.43065 0.23378 0.91382 0.0
C2655 C 0.44542 0.25096 0.91232 0.0
C2656 C 0.46426 0.24995 0.92277 0.0
C2657 C 0.47829 0.26619 0.92141 0.0
C2658 C 0.47365 0.28342 0.90949 0.0
C2659 C 0.45491 0.28449 0.899 0.0
C2660 C 0.44076 0.26835 0.90046 0.0
C2661 C 0.35893 0.24661 0.96005 0.0
C2662 C 0.34459 0.25098 0.94449 0.0
C2663 C 0.376 0.23431 0.95575 0.0
C2664 C 0.37852 0.22594 0.93606 0.0
C2665 C 0.36263 0.22797 0.92157 0.0
C2666 C 0.34586 0.24058 0.9257 0.0
C2667 C 0.39906 0.21988 0.92853 0.0
C2668 C 0.41427 0.23525 0.92769 0.0
C2669 C 0.40163 0.20163 0.91711 0.0
C2670 C 0.38725 0.18401 0.91943 0.0
C2671 C 0.37903 0.17402 0.90209 0.0
C2672 C 0.36575 0.15727 0.90448 0.0
C2673 C 0.36058 0.15033 0.92413 0.0
C2674 C 0.36866 0.16014 0.94143 0.0
C2675 C 0.38192 0.1769 0.93914 0.0
H2676 H 0.35032 0.13735 0.92593 0.0
H2677 H 0.48456 0.29595 0.90841 0.0
H2678 H 0.82503 0.47011 0.90118 0.0
H2679 H 0.80402 0.44658 0.92146 0.0
H2680 H 0.76741 0.43276 0.86788 0.0
H2681 H 0.78796 0.45675 0.84762 0.0
H2682 H 0.74373 0.43843 0.89939 0.0
H2683 H 0.80418 0.39886 0.88665 0.0
H2684 H 0.84135 0.39156 0.8859 0.0
H2685 H 0.84419 0.3975 0.95155 0.0
H2686 H 0.80706 0.40513 0.95267 0.0
H2687 H 0.69079 0.35471 0.93918 0.0
H2688 H 0.71692 0.3721 0.91871 0.0
H2689 H 0.74673 0.39306 0.97413 0.0
H2690 H 0.72067 0.37524 0.99488 0.0
H2691 H 0.77435 0.38288 0.94171 0.0
H2692 H 0.71198 0.41936 0.95306 0.0
H2693 H 0.67482 0.42521 0.9527 0.0
H2694 H 0.67497 0.42366 0.88672 0.0
H2695 H 0.71233 0.41721 0.88684 0.0
C2696 C 0.81251 0.46205 0.8937 0.0
C2697 C 0.80817 0.46524 0.87279 0.0
C2698 C 0.8006 0.44852 0.90529 0.0
C2699 C 0.78441 0.43764 0.89608 0.0
C2700 C 0.7799 0.44096 0.87526 0.0
C2701 C 0.79163 0.45469 0.86372 0.0
C2702 C 0.77175 0.42325 0.90828 0.0
C2703 C 0.75039 0.42605 0.90834 0.0
C2704 C 0.78055 0.40741 0.92031 0.0
C2705 C 0.80287 0.40276 0.91972 0.0
C2706 C 0.81276 0.39877 0.90091 0.0
C2707 C 0.83382 0.39454 0.90042 0.0
C2708 C 0.84514 0.39411 0.91866 0.0
C2709 C 0.83541 0.39786 0.93743 0.0
C2710 C 0.81435 0.40212 0.938 0.0
C2711 C 0.70308 0.36279 0.94703 0.0
C2712 C 0.70354 0.36403 0.96858 0.0
C2713 C 0.71804 0.37256 0.93532 0.0
C2714 C 0.73348 0.38407 0.94495 0.0
C2715 C 0.73488 0.38419 0.96648 0.0
C2716 C 0.71997 0.37415 0.97828 0.0
C2717 C 0.74641 0.39798 0.93257 0.0
C2718 C 0.76775 0.39516 0.93259 0.0
C2719 C 0.73754 0.41362 0.92028 0.0
C2720 C 0.71504 0.41773 0.92004 0.0
C2721 C 0.70414 0.42026 0.9385 0.0
C2722 C 0.68297 0.42365 0.93832 0.0
C2723 C 0.67244 0.4249 0.91968 0.0
C2724 C 0.68313 0.4227 0.90117 0.0
C2725 C 0.70434 0.41913 0.90131 0.0
H2726 H 0.65602 0.42755 0.91957 0.0
H2727 H 0.86144 0.39084 0.91825 0.0
H2728 H 0.59934 0.67827 0.97998 0.0
H2729 H 0.5704 0.69933 0.96808 0.0
H2730 H 0.61249 0.73633 0.9324 0.0
H2731 H 0.64117 0.71619 0.94486 0.0
H2732 H 0.5854 0.75974 0.94837 0.0
H2733 H 0.58322 0.69214 0.91327 0.0
H2734 H 0.57862 0.65447 0.91332 0.0
H2735 H 0.5193 0.6614 0.94146 0.0
H2736 H 0.52369 0.69912 0.94173 0.0
H2737 H 0.55132 0.79624 0.85593 0.0
H2738 H 0.56688 0.77485 0.88246 0.0
H2739 H 0.50656 0.75594 0.90275 0.0
H2740 H 0.49095 0.77683 0.87559 0.0
H2741 H 0.53277 0.72512 0.9054 0.0
H2742 H 0.5351 0.79575 0.93111 0.0
H2743 H 0.54342 0.83298 0.93088 0.0
H2744 H 0.60623 0.81943 0.9166 0.0
H2745 H 0.59863 0.78231 0.91744 0.0
C2746 C 0.60232 0.6911 0.9698 0.0
C2747 C 0.62244 0.69556 0.96319 0.0
C2748 C 0.58581 0.70305 0.96299 0.0
C2749 C 0.58924 0.71922 0.94913 0.0
C2750 C 0.60944 0.72401 0.94319 0.0
C2751 C 0.62587 0.71244 0.95028 0.0
C2752 C 0.5722 0.73073 0.9395 0.0
C2753 C 0.5738 0.75219 0.93904 0.0
C2754 C 0.5565 0.72094 0.92804 0.0
C2755 C 0.55389 0.69835 0.92777 0.0
C2756 C 0.56926 0.68559 0.91956 0.0
C2757 C 0.56669 0.66425 0.91952 0.0
C2758 C 0.54871 0.65554 0.92746 0.0
C2759 C 0.53324 0.66816 0.93538 0.0
C2760 C 0.53576 0.68951 0.93548 0.0
C2761 C 0.54146 0.78706 0.86572 0.0
C2762 C 0.52003 0.78806 0.8638 0.0
C2763 C 0.55029 0.77519 0.88112 0.0
C2764 C 0.53782 0.76465 0.89523 0.0
C2765 C 0.51643 0.76438 0.89236 0.0
C2766 C 0.50756 0.77603 0.87666 0.0
C2767 C 0.54743 0.75393 0.91277 0.0
C2768 C 0.54399 0.73276 0.91509 0.0
C2769 C 0.56198 0.76391 0.92553 0.0
C2770 C 0.56625 0.78628 0.92432 0.0
C2771 C 0.55064 0.80075 0.92786 0.0
C2772 C 0.55523 0.82179 0.92765 0.0
C2773 C 0.5752 0.8285 0.92352 0.0
C2774 C 0.59074 0.81422 0.91977 0.0
C2775 C 0.58636 0.7932 0.92028 0.0
H2776 H 0.57864 0.84478 0.92333 0.0
H2777 H 0.54674 0.63902 0.92741 0.0
H2778 H 0.79659 0.63069 0.16867 0.0
H2779 H 0.78429 0.65831 0.14656 0.0
H2780 H 0.748 0.61459 0.11241 0.0
H2781 H 0.7607 0.58686 0.13425 0.0
H2782 H 0.79931 0.64643 0.10649 0.0
H2783 H 0.71257 0.64414 0.08506 0.0
H2784 H 0.6789 0.64413 0.1024 0.0
H2785 H 0.70562 0.67368 0.15503 0.0
H2786 H 0.73945 0.67407 0.13793 0.0
H2787 H 0.75707 0.63096 0.00919 0.0
H2788 H 0.77475 0.63413 0.042 0.0
H2789 H 0.7589 0.69838 0.04471 0.0
H2790 H 0.74177 0.69559 0.01164 0.0
H2791 H 0.73648 0.67162 0.0717 0.0
H2792 H 0.80533 0.68892 0.0555 0.0
H2793 H 0.83819 0.68672 0.03678 0.0
H2794 H 0.84667 0.62494 0.05819 0.0
H2795 H 0.81367 0.62653 0.07673 0.0
C2796 C 0.78482 0.62724 0.15739 0.0
C2797 C 0.77973 0.60674 0.15288 0.0
C2798 C 0.77791 0.64303 0.1447 0.0
C2799 C 0.76558 0.63838 0.12769 0.0
C2800 C 0.75749 0.61845 0.12554 0.0
C2801 C 0.76462 0.60259 0.13812 0.0
C2802 C 0.76667 0.65157 0.10931 0.0
C2803 C 0.78567 0.65241 0.09901 0.0
C2804 C 0.74889 0.65938 0.09976 0.0
C2805 C 0.7286 0.65909 0.11021 0.0
C2806 C 0.71128 0.65072 0.1003 0.0
C2807 C 0.69216 0.6506 0.11011 0.0
C2808 C 0.69012 0.65888 0.12981 0.0
C2809 C 0.70723 0.66723 0.13978 0.0
C2810 C 0.7264 0.66735 0.13006 0.0
C2811 C 0.75843 0.64605 0.01611 0.0
C2812 C 0.74722 0.66276 0.00832 0.0
C2813 C 0.76856 0.64786 0.03491 0.0
C2814 C 0.76753 0.66636 0.04596 0.0
C2815 C 0.75962 0.68394 0.03644 0.0
C2816 C 0.74984 0.68225 0.01745 0.0
C2817 C 0.76891 0.66546 0.06854 0.0
C2818 C 0.75032 0.66658 0.07951 0.0
C2819 C 0.78697 0.659 0.07855 0.0
C2820 C 0.80695 0.65788 0.06753 0.0
C2821 C 0.81412 0.6748 0.05613 0.0
C2822 C 0.83278 0.67365 0.04554 0.0
C2823 C 0.84449 0.65568 0.04628 0.0
C2824 C 0.83756 0.63882 0.05763 0.0
C2825 C 0.8189 0.63986 0.06823 0.0
H2826 H 0.85893 0.65482 0.03807 0.0
H2827 H 0.67529 0.65884 0.13734 0.0
H2828 H 0.49204 0.72523 0.17215 0.0
H2829 H 0.48147 0.69083 0.16098 0.0
H2830 H 0.42514 0.71595 0.13673 0.0
H2831 H 0.4353 0.75008 0.14804 0.0
H2832 H 0.41862 0.67852 0.15363 0.0
H2833 H 0.46877 0.71063 0.10688 0.0
H2834 H 0.50286 0.72506 0.09849 0.0
H2835 H 0.53159 0.66865 0.1171 0.0
H2836 H 0.49767 0.65398 0.12573 0.0
H2837 H 0.38729 0.63838 0.06008 0.0
H2838 H 0.39913 0.65624 0.09072 0.0
H2839 H 0.44807 0.61211 0.09788 0.0
H2840 H 0.43642 0.59418 0.06691 0.0
H2841 H 0.46255 0.65031 0.09807 0.0
H2842 H 0.41077 0.61531 0.13457 0.0
H2843 H 0.37647 0.60078 0.14159 0.0
H2844 H 0.35051 0.66141 0.14203 0.0
H2845 H 0.3846 0.67633 0.13474 0.0
C2846 C 0.47722 0.72335 0.16481 0.0
C2847 C 0.46465 0.74048 0.16071 0.0
C2848 C 0.47123 0.70369 0.15841 0.0
C2849 C 0.45264 0.70089 0.14779 0.0
C2850 C 0.43955 0.71774 0.14489 0.0
C2851 C 0.44548 0.73732 0.15124 0.0
C2852 C 0.4475 0.68115 0.13767 0.0
C2853 C 0.42823 0.67221 0.14155 0.0
C2854 C 0.4604 0.67248 0.12245 0.0
C2855 C 0.48075 0.68133 0.11723 0.0
C2856 C 0.48238 0.70138 0.10931 0.0
C2857 C 0.50167 0.70958 0.10447 0.0
C2858 C 0.5194 0.6978 0.10731 0.0
C2859 C 0.51787 0.67777 0.11493 0.0
C2860 C 0.49862 0.66951 0.11979 0.0
C2861 C 0.4004 0.63227 0.06829 0.0
C2862 C 0.41105 0.615 0.06091 0.0
C2863 C 0.40703 0.64238 0.08598 0.0
C2864 C 0.4244 0.63541 0.0967 0.0
C2865 C 0.43458 0.61767 0.08988 0.0
C2866 C 0.42788 0.60745 0.0722 0.0
C2867 C 0.43318 0.64829 0.11331 0.0
C2868 C 0.45316 0.65599 0.11064 0.0
C2869 C 0.42091 0.65578 0.12961 0.0
C2870 C 0.4003 0.64695 0.1341 0.0
C2871 C 0.39774 0.62556 0.13608 0.0
C2872 C 0.37834 0.61725 0.14016 0.0
C2873 C 0.36134 0.63017 0.14234 0.0
C2874 C 0.36371 0.65143 0.14042 0.0
C2875 C 0.38309 0.65983 0.13637 0.0
H2876 H 0.34632 0.6237 0.14542 0.0
H2877 H 0.53431 0.70418 0.10356 0.0
H2878 H 0.52889 0.15019 0.07493 0.0
H2879 H 0.55633 0.17313 0.06276 0.0
H2880 H 0.55936 0.20139 0.12266 0.0
H2881 H 0.53213 0.17885 0.13482 0.0
H2882 H 0.5558 0.2144 0.06005 0.0
H2883 H 0.60905 0.21463 0.13352 0.0
H2884 H 0.62454 0.18991 0.15766 0.0
H2885 H 0.61341 0.14074 0.11507 0.0
H2886 H 0.59816 0.16517 0.09051 0.0
H2887 H 0.60086 0.3087 0.07226 0.0
H2888 H 0.58532 0.27612 0.08217 0.0
H2889 H 0.6397 0.24377 0.06258 0.0
H2890 H 0.65555 0.27638 0.05252 0.0
H2891 H 0.62052 0.22701 0.09857 0.0
H2892 H 0.60478 0.24026 0.02865 0.0
H2893 H 0.59597 0.26256 -0.0007 0.0
H2894 H 0.53937 0.27941 0.0287 0.0
H2895 H 0.54763 0.25679 0.05807 0.0
C2896 C 0.53548 0.16126 0.08549 0.0
C2897 C 0.52819 0.16284 0.10577 0.0
C2898 C 0.55116 0.17429 0.07854 0.0
C2899 C 0.56004 0.18876 0.0919 0.0
C2900 C 0.55297 0.19011 0.11219 0.0
C2901 C 0.53719 0.17736 0.11904 0.0
C2902 C 0.5755 0.20374 0.08451 0.0
C2903 C 0.57003 0.21694 0.06837 0.0
C2904 C 0.59442 0.20675 0.0949 0.0
C2905 C 0.60234 0.19177 0.11018 0.0
C2906 C 0.60989 0.19855 0.12928 0.0
C2907 C 0.61871 0.18459 0.14301 0.0
C2908 C 0.62011 0.16381 0.13782 0.0
C2909 C 0.61239 0.15687 0.11902 0.0
C2910 C 0.60357 0.17076 0.10522 0.0
C2911 C 0.60979 0.29477 0.07049 0.0
C2912 C 0.62934 0.29515 0.06128 0.0
C2913 C 0.60083 0.27615 0.07611 0.0
C2914 C 0.61124 0.25762 0.07266 0.0
C2915 C 0.63143 0.25798 0.0652 0.0
C2916 C 0.64045 0.27665 0.05953 0.0
C2917 C 0.60009 0.23802 0.07512 0.0
C2918 C 0.60637 0.22411 0.09023 0.0
C2919 C 0.58238 0.23382 0.06331 0.0
C2920 C 0.5768 0.24685 0.04549 0.0
C2921 C 0.59041 0.24867 0.02881 0.0
C2922 C 0.58552 0.26132 0.01218 0.0
C2923 C 0.56713 0.27234 0.01215 0.0
C2924 C 0.55358 0.27077 0.02875 0.0
C2925 C 0.55826 0.25788 0.0453 0.0
H2926 H 0.56331 0.28192 -0.00085 0.0
H2927 H 0.62705 0.15305 0.14842 0.0
H2928 H 0.90449 0.69503 0.6945 0.0
H2929 H 0.87898 0.70554 0.66899 0.0
H2930 H 0.92491 0.74272 0.63865 0.0
H2931 H 0.95016 0.73284 0.66469 0.0
H2932 H 0.89115 0.76164 0.63664 0.0
H2933 H 0.91124 0.69288 0.62071 0.0
H2934 H 0.91773 0.6561 0.62727 0.0
H2935 H 0.8541 0.64717 0.64241 0.0
H2936 H 0.84723 0.68392 0.63593 0.0
H2937 H 0.84404 0.74878 0.53463 0.0
H2938 H 0.86045 0.72955 0.56256 0.0
H2939 H 0.82289 0.76172 0.60667 0.0
H2940 H 0.80658 0.78091 0.57882 0.0
H2941 H 0.85221 0.70663 0.60061 0.0
H2942 H 0.85675 0.78846 0.63438 0.0
H2943 H 0.85569 0.82442 0.62218 0.0
H2944 H 0.87975 0.80557 0.56368 0.0
H2945 H 0.88101 0.76964 0.57556 0.0
C2946 C 0.90895 0.70575 0.68257 0.0
C2947 C 0.92921 0.71311 0.68141 0.0
C2948 C 0.89447 0.71158 0.66791 0.0
C2949 C 0.90016 0.72446 0.65156 0.0
C2950 C 0.92016 0.73268 0.65106 0.0
C2951 C 0.93455 0.72714 0.66597 0.0
C2952 C 0.88549 0.72901 0.63472 0.0
C2953 C 0.88261 0.74956 0.62892 0.0
C2954 C 0.87473 0.71326 0.62411 0.0
C2955 C 0.87875 0.69115 0.62797 0.0
C2956 C 0.89865 0.68308 0.6255 0.0
C2957 C 0.90238 0.66223 0.62911 0.0
C2958 C 0.88633 0.64931 0.63522 0.0
C2959 C 0.8665 0.65719 0.63765 0.0
C2960 C 0.86267 0.67801 0.63393 0.0
C2961 C 0.83842 0.75072 0.55019 0.0
C2962 C 0.82398 0.76607 0.55471 0.0
C2963 C 0.84785 0.73983 0.56612 0.0
C2964 C 0.84303 0.74448 0.58662 0.0
C2965 C 0.82678 0.75797 0.59092 0.0
C2966 C 0.81737 0.76881 0.57503 0.0
C2967 C 0.85768 0.73916 0.6031 0.0
C2968 C 0.86061 0.71858 0.60868 0.0
C2969 C 0.86929 0.75474 0.61288 0.0
C2970 C 0.86872 0.77638 0.60578 0.0
C2971 C 0.86181 0.79204 0.61893 0.0
C2972 C 0.86116 0.8124 0.61205 0.0
C2973 C 0.86753 0.81727 0.59212 0.0
C2974 C 0.87466 0.8018 0.57905 0.0
C2975 C 0.8753 0.78143 0.58583 0.0
H2976 H 0.86701 0.83303 0.58683 0.0
H2977 H 0.88928 0.6332 0.63814 0.0
H2978 H 0.24566 0.01998 0.66473 0.0
H2979 H 0.21972 0.00458 0.64228 0.0
H2980 H 0.22441 0.94767 0.67579 0.0
H2981 H 0.2502 0.96302 0.69825 0.0
H2982 H 0.24414 0.95334 0.63247 0.0
H2983 H 0.18185 0.95937 0.67282 0.0
H2984 H 0.15501 0.97849 0.69151 0.0
H2985 H 0.13995 0.01172 0.63656 0.0
H2986 H 0.16693 0.993 0.6176 0.0
H2987 H 0.19354 0.87766 0.5724 0.0
H2988 H 0.20829 0.90005 0.59871 0.0
H2989 H 0.17972 0.95268 0.57029 0.0
H2990 H 0.16467 0.9304 0.54413 0.0
H2991 H 0.17134 0.95205 0.61001 0.0
H2992 H 0.23112 0.94493 0.5687 0.0
H2993 H 0.25803 0.92683 0.54918 0.0
H2994 H 0.27962 0.89838 0.60461 0.0
H2995 H 0.25241 0.91576 0.6244 0.0
C2996 C 0.23994 0.00475 0.66834 0.0
C2997 C 0.25004 0.99253 0.68296 0.0
C2998 C 0.22529 0.99587 0.65533 0.0
C2999 C 0.22055 0.97492 0.65722 0.0
C3000 C 0.22795 0.96387 0.67414 0.0
C3001 C 0.24252 0.97273 0.68712 0.0
C3002 C 0.21332 0.96343 0.63909 0.0
C3003 C 0.22817 0.95274 0.62766 0.0
C3004 C 0.19272 0.96365 0.63245 0.0
C3005 C 0.17659 0.97498 0.64386 0.0
C3006 C 0.17299 0.97093 0.66478 0.0
C3007 C 0.1577 0.98165 0.67541 0.0
C3008 C 0.14583 0.99636 0.66525 0.0
C3009 C 0.14919 0.00035 0.64442 0.0
C3010 C 0.16446 0.98968 0.63372 0.0
C3011 C 0.19081 0.89405 0.57144 0.0
C3012 C 0.17782 0.90222 0.55626 0.0
C3013 C 0.1992 0.90684 0.58653 0.0
C3014 C 0.195 0.92803 0.5865 0.0
C3015 C 0.18298 0.93635 0.57071 0.0
C3016 C 0.1745 0.92359 0.55571 0.0
C3017 C 0.20207 0.94126 0.60364 0.0
C3018 C 0.18732 0.95253 0.61475 0.0
C3019 C 0.22289 0.94178 0.60989 0.0
C3020 C 0.23946 0.93143 0.59802 0.0
C3021 C 0.2414 0.93459 0.57671 0.0
C3022 C 0.2567 0.92442 0.56558 0.0
C3023 C 0.2704 0.91131 0.57562 0.0
C3024 C 0.26891 0.90843 0.59683 0.0
C3025 C 0.25351 0.91841 0.60801 0.0
H3026 H 0.28228 0.90349 0.56701 0.0
H3027 H 0.134 0.00463 0.6735 0.0
H3028 H 0.06875 0.34677 0.56586 0.0
H3029 H 0.08813 0.31861 0.55009 0.0
H3030 H 0.07838 0.28144 0.60407 0.0
H3031 H 0.05864 0.30935 0.6198 0.0
H3032 H 0.11935 0.28331 0.59198 0.0
H3033 H 0.05501 0.2673 0.5649 0.0
H3034 H 0.02144 0.26952 0.5476 0.0
H3035 H 0.05139 0.28372 0.49057 0.0
H3036 H 0.08517 0.28227 0.50766 0.0
H3037 H 0.1584 0.19189 0.54096 0.0
H3038 H 0.1382 0.21663 0.56072 0.0
H3039 H 0.14601 0.26156 0.51268 0.0
H3040 H 0.16646 0.23716 0.49292 0.0
H3041 H 0.10422 0.25244 0.52395 0.0
H3042 H 0.16994 0.269 0.55589 0.0
H3043 H 0.20149 0.25984 0.57478 0.0
H3044 H 0.16519 0.23722 0.62504 0.0
H3045 H 0.1334 0.24599 0.60631 0.0
C3046 C 0.0707 0.33258 0.57434 0.0
C3047 C 0.06232 0.3303 0.59411 0.0
C3048 C 0.08162 0.31647 0.56526 0.0
C3049 C 0.08461 0.29797 0.57593 0.0
C3050 C 0.07618 0.2956 0.59561 0.0
C3051 C 0.06491 0.31154 0.60454 0.0
C3052 C 0.09766 0.28167 0.56698 0.0
C3053 C 0.1159 0.27637 0.57722 0.0
C3054 C 0.09305 0.27255 0.54779 0.0
C3055 C 0.0727 0.27501 0.53769 0.0
C3056 C 0.05447 0.27136 0.54878 0.0
C3057 C 0.03538 0.27235 0.53897 0.0
C3058 C 0.03427 0.27673 0.518 0.0
C3059 C 0.05227 0.28026 0.50681 0.0
C3060 C 0.0714 0.27946 0.51658 0.0
C3061 C 0.15639 0.20722 0.53485 0.0
C3062 C 0.16408 0.21249 0.51532 0.0
C3063 C 0.14473 0.22129 0.54613 0.0
C3064 C 0.14057 0.24081 0.53805 0.0
C3065 C 0.14902 0.24649 0.51908 0.0
C3066 C 0.16079 0.23252 0.50787 0.0
C3067 C 0.12617 0.25485 0.54854 0.0
C3068 C 0.10763 0.25958 0.53863 0.0
C3069 C 0.13019 0.26294 0.56827 0.0
C3070 C 0.1493 0.25798 0.57962 0.0
C3071 C 0.16869 0.26194 0.57091 0.0
C3072 C 0.18661 0.25684 0.5816 0.0
C3073 C 0.18534 0.2479 0.60107 0.0
C3074 C 0.16615 0.24412 0.60994 0.0
C3075 C 0.14818 0.24917 0.59931 0.0
H3076 H 0.19924 0.24395 0.60931 0.0
H3077 H 0.01948 0.27747 0.51043 0.0
H3078 H 0.82223 0.1037 0.59216 0.0
H3079 H 0.79215 0.09121 0.61061 0.0
H3080 H 0.75248 0.12322 0.56831 0.0
H3081 H 0.78261 0.13597 0.54962 0.0
H3082 H 0.74053 0.12762 0.6095 0.0
H3083 H 0.75735 0.07402 0.5624 0.0
H3084 H 0.77952 0.04905 0.54452 0.0
H3085 H 0.79265 0.01917 0.60182 0.0
H3086 H 0.77079 0.04418 0.62012 0.0
H3087 H 0.65061 0.06716 0.6339 0.0
H3088 H 0.67848 0.08784 0.61957 0.0
H3089 H 0.72212 0.05577 0.65774 0.0
H3090 H 0.69443 0.03491 0.67203 0.0
H3091 H 0.73096 0.05236 0.61726 0.0
H3092 H 0.71339 0.1067 0.66423 0.0
H3093 H 0.69033 0.13155 0.68115 0.0
H3094 H 0.67734 0.15964 0.6229 0.0
H3095 H 0.70011 0.13477 0.60558 0.0
C3096 C 0.80715 0.1082 0.58675 0.0
C3097 C 0.80485 0.12079 0.56933 0.0
C3098 C 0.78997 0.10099 0.59731 0.0
C3099 C 0.77015 0.10617 0.59069 0.0
C3100 C 0.7677 0.11907 0.57361 0.0
C3101 C 0.78492 0.12623 0.56292 0.0
C3102 C 0.75207 0.09764 0.6015 0.0
C3103 C 0.73822 0.11117 0.611 0.0
C3104 C 0.74932 0.07619 0.60361 0.0
C3105 C 0.76259 0.06114 0.59267 0.0
C3106 C 0.76512 0.06226 0.57123 0.0
C3107 C 0.7776 0.04806 0.56101 0.0
C3108 C 0.78754 0.03256 0.57203 0.0
C3109 C 0.78497 0.0312 0.5933 0.0
C3110 C 0.77252 0.04538 0.60361 0.0
C3111 C 0.66602 0.06499 0.6398 0.0
C3112 C 0.67035 0.04918 0.65391 0.0
C3113 C 0.68196 0.07682 0.63155 0.0
C3114 C 0.70238 0.07317 0.63745 0.0
C3115 C 0.70647 0.05868 0.65286 0.0
C3116 C 0.69061 0.04682 0.66105 0.0
C3117 C 0.71962 0.08231 0.62575 0.0
C3118 C 0.73326 0.06883 0.61588 0.0
C3119 C 0.72201 0.10377 0.6232 0.0
C3120 C 0.7083 0.11873 0.63358 0.0
C3121 C 0.70547 0.11805 0.655 0.0
C3122 C 0.69248 0.13217 0.66467 0.0
C3123 C 0.68233 0.14713 0.6531 0.0
C3124 C 0.68519 0.14803 0.63184 0.0
C3125 C 0.69815 0.13394 0.62209 0.0
H3126 H 0.67229 0.15805 0.66062 0.0
H3127 H 0.7972 0.02159 0.56409 0.0
H3128 H 0.9126 0.17696 0.47394 0.0
H3129 H 0.92173 0.19964 0.44534 0.0
H3130 H 0.85769 0.20556 0.42935 0.0
H3131 H 0.84832 0.18324 0.4583 0.0
H3132 H 0.89003 0.19424 0.39559 0.0
H3133 H 0.87172 0.24374 0.44787 0.0
H3134 H 0.87296 0.25695 0.48337 0.0
H3135 H 0.9383 0.26494 0.4785 0.0
H3136 H 0.9375 0.25141 0.44306 0.0
H3137 H 0.90962 0.27557 0.32291 0.0
H3138 H 0.89538 0.25141 0.34824 0.0
H3139 H 0.94969 0.25906 0.3857 0.0
H3140 H 0.96327 0.28382 0.36098 0.0
H3141 H 0.91799 0.26409 0.4083 0.0
H3142 H 0.9381 0.21373 0.35809 0.0
H3143 H 0.9393 0.19731 0.32395 0.0
H3144 H 0.87388 0.1886 0.32541 0.0
H3145 H 0.87225 0.20522 0.35946 0.0
C3146 C 0.90046 0.18321 0.46441 0.0
C3147 C 0.87977 0.17848 0.46834 0.0
C3148 C 0.90569 0.19606 0.44811 0.0
C3149 C 0.89034 0.20407 0.43533 0.0
C3150 C 0.86967 0.19938 0.43911 0.0
C3151 C 0.86438 0.18685 0.4557 0.0
C3152 C 0.89615 0.21761 0.41819 0.0
C3153 C 0.89579 0.20969 0.39817 0.0
C3154 C 0.9041 0.23743 0.4219 0.0
C3155 C 0.90456 0.24637 0.44288 0.0
C3156 C 0.88637 0.2482 0.45441 0.0
C3157 C 0.88699 0.25575 0.47451 0.0
C3158 C 0.9057 0.2617 0.4832 0.0
C3159 C 0.92382 0.26029 0.47175 0.0
C3160 C 0.92329 0.2527 0.45164 0.0
C3161 C 0.91859 0.27163 0.33637 0.0
C3162 C 0.93746 0.28133 0.34015 0.0
C3163 C 0.91051 0.25789 0.35081 0.0
C3164 C 0.92147 0.25344 0.3689 0.0
C3165 C 0.94087 0.26239 0.37198 0.0
C3166 C 0.94869 0.27637 0.35783 0.0
C3167 C 0.91235 0.24068 0.38541 0.0
C3168 C 0.91204 0.24876 0.40545 0.0
C3169 C 0.90408 0.22088 0.3817 0.0
C3170 C 0.90502 0.21095 0.3612 0.0
C3171 C 0.92394 0.20849 0.35104 0.0
C3172 C 0.92471 0.19911 0.33173 0.0
C3173 C 0.90667 0.19198 0.32249 0.0
C3174 C 0.88783 0.19417 0.33257 0.0
C3175 C 0.88698 0.20356 0.35188 0.0
H3176 H 0.9073 0.18471 0.30754 0.0
H3177 H 0.90614 0.26735 0.49882 0.0
H3178 H 0.66833 0.94108 0.38011 0.0
H3179 H 0.68824 0.91152 0.39184 0.0
H3180 H 0.73578 0.92586 0.34792 0.0
H3181 H 0.71611 0.95548 0.33608 0.0
H3182 H 0.70756 0.87595 0.37311 0.0
H3183 H 0.78148 0.92485 0.37756 0.0
H3184 H 0.79144 0.96148 0.37818 0.0
H3185 H 0.73318 0.977 0.405 0.0
H3186 H 0.72354 0.94055 0.40591 0.0
H3187 H 0.81481 0.851 0.42571 0.0
H3188 H 0.79344 0.86791 0.39994 0.0
H3189 H 0.73887 0.84707 0.43156 0.0
H3190 H 0.76032 0.82919 0.45673 0.0
H3191 H 0.77122 0.89862 0.4085 0.0
H3192 H 0.69687 0.84924 0.40105 0.0
H3193 H 0.68689 0.81269 0.39945 0.0
H3194 H 0.74684 0.79699 0.37679 0.0
H3195 H 0.7571 0.83347 0.37796 0.0
C3196 C 0.68293 0.93786 0.37279 0.0
C3197 C 0.69083 0.95089 0.35745 0.0
C3198 C 0.69412 0.92079 0.37931 0.0
C3199 C 0.71343 0.91664 0.37075 0.0
C3200 C 0.72086 0.9289 0.35468 0.0
C3201 C 0.70967 0.94591 0.34808 0.0
C3202 C 0.72705 0.90159 0.38073 0.0
C3203 C 0.72149 0.88077 0.38091 0.0
C3204 C 0.74535 0.90803 0.39051 0.0
C3205 C 0.75162 0.92997 0.3914 0.0
C3206 C 0.77093 0.93609 0.38386 0.0
C3207 C 0.77659 0.95684 0.38408 0.0
C3208 C 0.76301 0.9716 0.39174 0.0
C3209 C 0.74384 0.96562 0.39934 0.0
C3210 C 0.7383 0.94489 0.39956 0.0
C3211 C 0.79824 0.84965 0.42682 0.0
C3212 C 0.78911 0.83902 0.44319 0.0
C3213 C 0.78606 0.85926 0.41212 0.0
C3214 C 0.76455 0.85878 0.4138 0.0
C3215 C 0.75541 0.84732 0.42967 0.0
C3216 C 0.76764 0.83725 0.44413 0.0
C3217 C 0.75201 0.87263 0.40087 0.0
C3218 C 0.75761 0.89347 0.40033 0.0
C3219 C 0.73389 0.86608 0.39072 0.0
C3220 C 0.7278 0.8441 0.38976 0.0
C3221 C 0.7079 0.83801 0.39563 0.0
C3222 C 0.7022 0.8173 0.39482 0.0
C3223 C 0.71624 0.80252 0.38808 0.0
C3224 C 0.736 0.80844 0.38208 0.0
C3225 C 0.74178 0.82913 0.38285 0.0
H3226 H 0.7118 0.7865 0.38747 0.0
H3227 H 0.76735 0.98765 0.39181 0.0
H3228 H 0.08547 0.62433 0.44283 0.0
H3229 H 0.10822 0.64725 0.46202 0.0
H3230 H 0.10429 0.69213 0.41346 0.0
H3231 H 0.08167 0.66937 0.39408 0.0
H3232 H 0.14313 0.69181 0.43373 0.0
H3233 H 0.06939 0.69617 0.44888 0.0
H3234 H 0.03718 0.6778 0.45691 0.0
H3235 H 0.06421 0.65389 0.5121 0.0
H3236 H 0.09675 0.67197 0.50423 0.0
H3237 H 0.12503 0.79216 0.46029 0.0
H3238 H 0.1218 0.75626 0.45085 0.0
H3239 H 0.14186 0.73805 0.51127 0.0
H3240 H 0.14553 0.77452 0.52103 0.0
H3241 H 0.10295 0.71831 0.49299 0.0
H3242 H 0.17434 0.72808 0.47965 0.0
H3243 H 0.20479 0.74693 0.46722 0.0
H3244 H 0.18093 0.74557 0.40573 0.0
H3245 H 0.15017 0.72701 0.41782 0.0
C3246 C 0.08989 0.63882 0.43593 0.0
C3247 C 0.08139 0.6452 0.41709 0.0
C3248 C 0.10296 0.65186 0.44692 0.0
C3249 C 0.10772 0.67143 0.43923 0.0
C3250 C 0.10082 0.67704 0.41962 0.0
C3251 C 0.08771 0.66408 0.40865 0.0
C3252 C 0.11649 0.68743 0.4528 0.0
C3253 C 0.13462 0.69745 0.4469 0.0
C3254 C 0.10541 0.69455 0.47011 0.0
C3255 C 0.08546 0.68528 0.47593 0.0
C3256 C 0.06841 0.68706 0.46278 0.0
C3257 C 0.05017 0.67663 0.46722 0.0
C3258 C 0.04877 0.66452 0.48487 0.0
C3259 C 0.06544 0.66315 0.49835 0.0
C3260 C 0.08376 0.67353 0.49393 0.0
C3261 C 0.12873 0.78065 0.47173 0.0
C3262 C 0.13551 0.78626 0.49148 0.0
C3263 C 0.12698 0.7601 0.46621 0.0
C3264 C 0.1318 0.7446 0.48029 0.0
C3265 C 0.13822 0.74991 0.50019 0.0
C3266 C 0.14029 0.77067 0.5057 0.0
C3267 C 0.12947 0.72301 0.47369 0.0
C3268 C 0.11223 0.71207 0.48062 0.0
C3269 C 0.14128 0.71523 0.45716 0.0
C3270 C 0.1599 0.72616 0.44968 0.0
C3271 C 0.17552 0.7319 0.46349 0.0
C3272 C 0.19285 0.74253 0.4565 0.0
C3273 C 0.1948 0.74745 0.4357 0.0
C3274 C 0.17942 0.74172 0.42184 0.0
C3275 C 0.16205 0.7311 0.42875 0.0
H3276 H 0.20822 0.7557 0.43033 0.0
H3277 H 0.03467 0.65637 0.48817 0.0
H3278 H 0.22798 0.14072 0.42036 0.0
H3279 H 0.24175 0.11004 0.40398 0.0
H3280 H 0.18216 0.09652 0.37818 0.0
H3281 H 0.16812 0.12713 0.39469 0.0
H3282 H 0.19726 0.06345 0.39692 0.0
H3283 H 0.22128 0.1094 0.34635 0.0
H3284 H 0.23715 0.14073 0.3321 0.0
H3285 H 0.29474 0.12481 0.36006 0.0
H3286 H 0.27916 0.09354 0.37475 0.0
H3287 H 0.28456 0.99696 0.34568 0.0
H3288 H 0.25222 0.01636 0.34615 0.0
H3289 H 0.26331 0.03312 0.40926 0.0
H3290 H 0.29482 0.0133 0.40925 0.0
H3291 H 0.26397 0.06082 0.36021 0.0
H3292 H 0.23244 0.01582 0.41597 0.0
H3293 H 0.214 0.98442 0.42579 0.0
H3294 H 0.16629 -0.00162 0.3825 0.0
H3295 H 0.18502 0.02956 0.37169 0.0
C3296 C 0.21789 0.13159 0.41075 0.0
C3297 C 0.19694 0.13642 0.40891 0.0
C3298 C 0.22578 0.114 0.40139 0.0
C3299 C 0.21296 0.10101 0.38981 0.0
C3300 C 0.19229 0.10631 0.38706 0.0
C3301 C 0.18436 0.12393 0.39641 0.0
C3302 C 0.22104 0.0812 0.38206 0.0
C3303 C 0.21168 0.06282 0.3886 0.0
C3304 C 0.23945 0.08035 0.37059 0.0
C3305 C 0.24901 0.09911 0.3617 0.0
C3306 C 0.2373 0.11263 0.34956 0.0
C3307 C 0.24625 0.13038 0.34139 0.0
C3308 C 0.26694 0.13476 0.34518 0.0
C3309 C 0.27873 0.12138 0.35712 0.0
C3310 C 0.26985 0.10362 0.36534 0.0
C3311 C 0.27951 0.00388 0.35995 0.0
C3312 C 0.29237 0.00397 0.37732 0.0
C3313 C 0.26099 0.01485 0.36021 0.0
C3314 C 0.25512 0.02572 0.3779 0.0
C3315 C 0.26709 0.02418 0.39571 0.0
C3316 C 0.28536 0.01315 0.39555 0.0
C3317 C 0.241 0.04332 0.3764 0.0
C3318 C 0.24924 0.0614 0.36801 0.0
C3319 C 0.22148 0.04377 0.38592 0.0
C3320 C 0.21059 0.02477 0.39246 0.0
C3321 C 0.21847 0.01194 0.40795 0.0
C3322 C 0.20784 0.9942 0.41384 0.0
C3323 C 0.18912 0.98925 0.40457 0.0
C3324 C 0.18091 0.00212 0.38951 0.0
C3325 C 0.19157 0.01979 0.38346 0.0
H3326 H 0.18089 0.97555 0.40921 0.0
H3327 H 0.27384 0.14852 0.33884 0.0
H3328 H 0.55254 0.8683 0.80529 0.0
H3329 H 0.5757 0.87287 0.77616 0.0
H3330 H 0.53828 0.83204 0.73966 0.0
H3331 H 0.51492 0.82734 0.7687 0.0
H3332 H 0.59877 0.84521 0.75142 0.0
H3333 H 0.53538 0.85544 0.69201 0.0
H3334 H 0.49849 0.86418 0.68997 0.0
H3335 H 0.50405 0.90147 0.74413 0.0
H3336 H 0.54096 0.89315 0.74634 0.0
H3337 H 0.61071 0.9072 0.64632 0.0
H3338 H 0.59702 0.87779 0.66521 0.0
H3339 H 0.62594 0.90009 0.72061 0.0
H3340 H 0.64007 0.929 0.70189 0.0
H3341 H 0.56964 0.88458 0.69306 0.0
H3342 H 0.63081 0.86578 0.75667 0.0
H3343 H 0.66797 0.85883 0.75876 0.0
H3344 H 0.66849 0.84038 0.69542 0.0
H3345 H 0.63126 0.8469 0.69299 0.0
C3346 C 0.54925 0.86021 0.79112 0.0
C3347 C 0.53176 0.84763 0.78925 0.0
C3348 C 0.56263 0.86265 0.77458 0.0
C3349 C 0.55866 0.85274 0.75587 0.0
C3350 C 0.54155 0.83977 0.75404 0.0
C3351 C 0.5282 0.83721 0.77062 0.0
C3352 C 0.57138 0.85775 0.73783 0.0
C3353 C 0.59254 0.85373 0.73853 0.0
C3354 C 0.56294 0.86812 0.72075 0.0
C3355 C 0.54081 0.8734 0.71949 0.0
C3356 C 0.5287 0.8655 0.70346 0.0
C3357 C 0.5078 0.8704 0.70228 0.0
C3358 C 0.4989 0.88329 0.71698 0.0
C3359 C 0.51092 0.8914 0.73283 0.0
C3360 C 0.53182 0.88658 0.73407 0.0
C3361 C 0.61471 0.90548 0.66239 0.0
C3362 C 0.62607 0.92072 0.67273 0.0
C3363 C 0.60692 0.88861 0.67312 0.0
C3364 C 0.6104 0.88673 0.69432 0.0
C3365 C 0.6233 0.90094 0.7042 0.0
C3366 C 0.63119 0.91769 0.69348 0.0
C3367 C 0.59745 0.87295 0.70694 0.0
C3368 C 0.57605 0.87531 0.70535 0.0
C3369 C 0.60576 0.86113 0.72318 0.0
C3370 C 0.62817 0.85687 0.72464 0.0
C3371 C 0.63878 0.86007 0.74322 0.0
C3372 C 0.65989 0.85625 0.74445 0.0
C3373 C 0.67059 0.84919 0.72723 0.0
C3374 C 0.66019 0.84589 0.70874 0.0
C3375 C 0.63908 0.84968 0.70742 0.0
H3376 H 0.68693 0.84626 0.72822 0.0
H3377 H 0.48272 0.88704 0.71607 0.0
H3378 H 0.00158 0.65354 0.75737 0.0
H3379 H 0.01807 0.61994 0.76024 0.0
H3380 H 0.07739 0.64837 0.75139 0.0
H3381 H 0.06086 0.68179 0.74753 0.0
H3382 H 0.07028 0.61743 0.72377 0.0
H3383 H 0.06619 0.62201 0.80362 0.0
H3384 H 0.04334 0.6276 0.83346 0.0
H3385 H -0.00092 0.58587 0.8078 0.0
H3386 H 0.02198 0.57954 0.77816 0.0
H3387 H 0.15669 0.58057 0.76619 0.0
H3388 H 0.12549 0.59385 0.75041 0.0
H3389 H 0.09254 0.53931 0.76906 0.0
H3390 H 0.1241 0.52575 0.78442 0.0
H3391 H 0.07463 0.57156 0.78429 0.0
H3392 H 0.09093 0.55311 0.71831 0.0
H3393 H 0.1116 0.54558 0.68752 0.0
H3394 H 0.12537 0.60974 0.68055 0.0
H3395 H 0.10548 0.61765 0.71175 0.0
C3396 C 0.01821 0.65273 0.75703 0.0
C3397 C 0.03002 0.67021 0.75225 0.0
C3398 C 0.02761 0.63346 0.75849 0.0
C3399 C 0.04894 0.63162 0.75577 0.0
C3400 C 0.06086 0.64942 0.75316 0.0
C3401 C 0.05148 0.66854 0.75132 0.0
C3402 C 0.05913 0.61136 0.7543 0.0
C3403 C 0.07108 0.60715 0.73684 0.0
C3404 C 0.05901 0.59726 0.77071 0.0
C3405 C 0.04571 0.60036 0.7888 0.0
C3406 C 0.05164 0.61395 0.80448 0.0
C3407 C 0.03872 0.61718 0.82134 0.0
C3408 C 0.01979 0.60704 0.82253 0.0
C3409 C 0.01379 0.59357 0.80691 0.0
C3410 C 0.02678 0.59004 0.79016 0.0
C3411 C 0.14309 0.57094 0.76585 0.0
C3412 C 0.1428 0.55211 0.77625 0.0
C3413 C 0.12519 0.57851 0.75688 0.0
C3414 C 0.1066 0.56754 0.75849 0.0
C3415 C 0.10669 0.54798 0.76754 0.0
C3416 C 0.12478 0.54016 0.77609 0.0
C3417 C 0.08705 0.57848 0.75435 0.0
C3418 C 0.07316 0.58103 0.7707 0.0
C3419 C 0.08464 0.59043 0.7364 0.0
C3420 C 0.09668 0.58597 0.71749 0.0
C3421 C 0.0985 0.56562 0.71034 0.0
C3422 C 0.11007 0.56128 0.69278 0.0
C3423 C 0.1197 0.57717 0.68203 0.0
C3424 C 0.11785 0.59745 0.68887 0.0
C3425 C 0.10642 0.60187 0.70652 0.0
H3426 H 0.12863 0.57378 0.66842 0.0
H3427 H 0.00979 0.60959 0.83557 0.0
H3428 H 0.4925 0.12668 0.76292 0.0
H3429 H 0.47226 0.11419 0.73389 0.0
H3430 H 0.44479 0.17408 0.72714 0.0
H3431 H 0.46534 0.18681 0.75618 0.0
H3432 H 0.41796 0.14062 0.73817 0.0
H3433 H 0.46831 0.15699 0.68755 0.0
H3434 H 0.50277 0.158 0.67185 0.0
H3435 H 0.50391 0.09206 0.66934 0.0
H3436 H 0.46959 0.09061 0.68532 0.0
H3437 H 0.34427 0.09137 0.67752 0.0
H3438 H 0.37055 0.11655 0.68705 0.0
H3439 H 0.41658 0.06875 0.68621 0.0
H3440 H 0.39047 0.04385 0.67532 0.0
H3441 H 0.43364 0.10234 0.67414 0.0
H3442 H 0.39078 0.08434 0.7314 0.0
H3443 H 0.35824 0.07984 0.75034 0.0
H3444 H 0.34575 0.14441 0.7448 0.0
H3445 H 0.37813 0.14924 0.72559 0.0
C3446 C 0.48278 0.1374 0.75468 0.0
C3447 C 0.48033 0.15765 0.76173 0.0
C3448 C 0.47135 0.13029 0.73803 0.0
C3449 C 0.45715 0.14324 0.72835 0.0
C3450 C 0.45586 0.16395 0.73433 0.0
C3451 C 0.46761 0.17121 0.75083 0.0
C3452 C 0.44099 0.13391 0.71539 0.0
C3453 C 0.42119 0.13277 0.7238 0.0
C3454 C 0.4456 0.12291 0.69724 0.0
C3455 C 0.46635 0.1237 0.68773 0.0
C3456 C 0.47596 0.14269 0.68382 0.0
C3457 C 0.49546 0.14334 0.67481 0.0
C3458 C 0.5055 0.12511 0.66956 0.0
C3459 C 0.49607 0.10618 0.67333 0.0
C3460 C 0.47658 0.10543 0.68234 0.0
C3461 C 0.36007 0.08637 0.67912 0.0
C3462 C 0.36541 0.06573 0.67597 0.0
C3463 C 0.37506 0.10072 0.68459 0.0
C3464 C 0.39547 0.09447 0.68786 0.0
C3465 C 0.40095 0.07397 0.68381 0.0
C3466 C 0.38605 0.05973 0.67771 0.0
C3467 C 0.41067 0.10879 0.69712 0.0
C3468 C 0.43025 0.11068 0.68817 0.0
C3469 C 0.40617 0.11995 0.71528 0.0
C3470 C 0.38672 0.11711 0.72684 0.0
C3471 C 0.38102 0.09755 0.7341 0.0
C3472 C 0.36262 0.09494 0.74489 0.0
C3473 C 0.3499 0.11181 0.74871 0.0
C3474 C 0.35559 0.13134 0.74179 0.0
C3475 C 0.37396 0.13403 0.73095 0.0
H3476 H 0.33567 0.10977 0.75707 0.0
H3477 H 0.52061 0.12565 0.66262 0.0
H3478 H 0.89236 0.44805 0.82148 0.0
H3479 H 0.9117 0.42729 0.79699 0.0
H3480 H 0.86902 0.44368 0.74903 0.0
H3481 H 0.84938 0.4643 0.7734 0.0
H3482 H 0.88228 0.40384 0.74534 0.0
H3483 H 0.91111 0.4713 0.75478 0.0
H3484 H 0.92482 0.50017 0.77523 0.0
H3485 H 0.97374 0.46183 0.79723 0.0
H3486 H 0.96013 0.43259 0.77716 0.0
H3487 H 0.94257 0.4055 0.65478 0.0
H3488 H 0.92137 0.41398 0.68455 0.0
H3489 H 0.96726 0.38833 0.72486 0.0
H3490 H 0.9886 0.37955 0.69509 0.0
H3491 H 0.95366 0.42893 0.73506 0.0
H3492 H 0.92577 0.36241 0.72004 0.0
H3493 H 0.9111 0.33535 0.6979 0.0
H3494 H 0.85966 0.37419 0.68392 0.0
H3495 H 0.87418 0.40162 0.70574 0.0
C3496 C 0.88684 0.44698 0.80582 0.0
C3497 C 0.86951 0.45815 0.79931 0.0
C3498 C 0.89792 0.4351 0.79187 0.0
C3499 C 0.89195 0.43429 0.77119 0.0
C3500 C 0.87388 0.44419 0.76495 0.0
C3501 C 0.86273 0.45605 0.77889 0.0
C3502 C 0.9056 0.42497 0.75567 0.0
C3503 C 0.89787 0.40932 0.74303 0.0
C3504 C 0.92599 0.43206 0.75289 0.0
C3505 C 0.93443 0.44968 0.76471 0.0
C3506 C 0.92469 0.46897 0.76412 0.0
C3507 C 0.93243 0.48539 0.77564 0.0
C3508 C 0.95002 0.48276 0.78764 0.0
C3509 C 0.96003 0.46377 0.78802 0.0
C3510 C 0.95232 0.44727 0.77657 0.0
C3511 C 0.94814 0.40157 0.66996 0.0
C3512 C 0.96726 0.39189 0.67262 0.0
C3513 C 0.93596 0.40631 0.68691 0.0
C3514 C 0.94274 0.4016 0.70679 0.0
C3515 C 0.96179 0.39194 0.70957 0.0
C3516 C 0.97389 0.38693 0.69257 0.0
C3517 C 0.93031 0.40786 0.72465 0.0
C3518 C 0.93823 0.42311 0.73765 0.0
C3519 C 0.91 0.40064 0.72749 0.0
C3520 C 0.90116 0.38413 0.71442 0.0
C3521 C 0.91142 0.36525 0.71212 0.0
C3522 C 0.90311 0.34983 0.69965 0.0
C3523 C 0.88448 0.35307 0.68948 0.0
C3524 C 0.87409 0.37171 0.6918 0.0
C3525 C 0.88234 0.38719 0.70424 0.0
H3526 H 0.87808 0.34111 0.67983 0.0
H3527 H 0.95598 0.49548 0.79653 0.0
H3528 H 0.52179 0.12157 0.1952 0.0
H3529 H 0.55128 0.11118 0.21574 0.0
H3530 H 0.5664 0.0646 0.17108 0.0
H3531 H 0.53683 0.07482 0.15025 0.0
H3532 H 0.56971 0.05265 0.21394 0.0
H3533 H 0.58953 0.10711 0.16795 0.0
H3534 H 0.5834 0.14115 0.15267 0.0
H3535 H 0.59301 0.16972 0.21137 0.0
H3536 H 0.59801 0.13571 0.22729 0.0
H3537 H 0.66322 0.03374 0.26015 0.0
H3538 H 0.64283 0.04539 0.23102 0.0
H3539 H 0.62106 0.0969 0.26657 0.0
H3540 H 0.64144 0.08551 0.29585 0.0
H3541 H 0.62402 0.1055 0.22406 0.0
H3542 H 0.59071 0.05767 0.27011 0.0
H3543 H 0.58767 0.02625 0.29115 0.0
H3544 H 0.60038 0.9891 0.23815 0.0
H3545 H 0.60302 0.02033 0.21666 0.0
C3546 C 0.53117 0.10893 0.1898 0.0
C3547 C 0.52714 0.09923 0.17091 0.0
C3548 C 0.54803 0.10308 0.20155 0.0
C3549 C 0.56111 0.08747 0.19461 0.0
C3550 C 0.55648 0.07683 0.17648 0.0
C3551 C 0.53964 0.08274 0.16462 0.0
C3552 C 0.58015 0.08301 0.20591 0.0
C3553 C 0.58187 0.06396 0.21568 0.0
C3554 C 0.59554 0.09819 0.20869 0.0
C3555 C 0.59398 0.11877 0.19887 0.0
C3556 C 0.5902 0.12061 0.17766 0.0
C3557 C 0.58683 0.13992 0.16889 0.0
C3558 C 0.58785 0.1576 0.18103 0.0
C3559 C 0.59222 0.156 0.20198 0.0
C3560 C 0.59522 0.13669 0.21092 0.0
C3561 C 0.65465 0.04792 0.26163 0.0
C3562 C 0.65349 0.05838 0.28053 0.0
C3563 C 0.64304 0.05456 0.24493 0.0
C3564 C 0.6302 0.07172 0.2469 0.0
C3565 C 0.63086 0.08356 0.26487 0.0
C3566 C 0.64245 0.07693 0.28161 0.0
C3567 C 0.61355 0.0751 0.23197 0.0
C3568 C 0.61221 0.09396 0.22167 0.0
C3569 C 0.59811 0.06005 0.22912 0.0
C3570 C 0.59717 0.04125 0.24186 0.0
C3571 C 0.59294 0.04278 0.26299 0.0
C3572 C 0.59118 0.02505 0.27495 0.0
C3573 C 0.5937 0.00574 0.26595 0.0
C3574 C 0.59829 0.0041 0.24503 0.0
C3575 C 0.59979 0.02179 0.23292 0.0
H3576 H 0.59181 0.99206 0.27516 0.0
H3577 H 0.58526 0.17254 0.1742 0.0
H3578 H 0.94281 0.61093 0.36123 0.0
H3579 H 0.91877 0.60551 0.3332 0.0
H3580 H 0.96341 0.62876 0.29007 0.0
H3581 H 0.98795 0.63424 0.31826 0.0
H3582 H 0.92336 0.64503 0.28493 0.0
H3583 H 0.9557 0.57866 0.29128 0.0
H3584 H 0.96722 0.5463 0.30736 0.0
H3585 H 0.90529 0.53291 0.32581 0.0
H3586 H 0.8934 0.56525 0.31006 0.0
H3587 H 0.87567 0.60916 0.19409 0.0
H3588 H 0.89741 0.61898 0.2227 0.0
H3589 H 0.85734 0.5866 0.26449 0.0
H3590 H 0.83568 0.57596 0.23561 0.0
H3591 H 0.89507 0.57565 0.27059 0.0
H3592 H 0.86201 0.64078 0.26381 0.0
H3593 H 0.84929 0.67155 0.24577 0.0
H3594 H 0.91099 0.68734 0.22837 0.0
H3595 H 0.92406 0.65649 0.24607 0.0
C3596 C 0.94763 0.61503 0.34584 0.0
C3597 C 0.96738 0.62309 0.34203 0.0
C3598 C 0.93385 0.61177 0.3298 0.0
C3599 C 0.93941 0.61652 0.30958 0.0
C3600 C 0.95891 0.62493 0.30563 0.0
C3601 C 0.97288 0.62804 0.32172 0.0
C3602 C 0.92456 0.61291 0.29276 0.0
C3603 C 0.91734 0.62984 0.28155 0.0
C3604 C 0.91626 0.59318 0.28892 0.0
C3605 C 0.92368 0.57447 0.29962 0.0
C3606 C 0.94459 0.56898 0.29904 0.0
C3607 C 0.95116 0.55059 0.30801 0.0
C3608 C 0.93696 0.53758 0.31751 0.0
C3609 C 0.91623 0.54301 0.31838 0.0
C3610 C 0.90958 0.56135 0.30944 0.0
C3611 C 0.87116 0.60437 0.20938 0.0
C3612 C 0.85391 0.59164 0.21251 0.0
C3613 C 0.88362 0.61016 0.22579 0.0
C3614 C 0.87894 0.60373 0.2458 0.0
C3615 C 0.86124 0.59176 0.24915 0.0
C3616 C 0.84885 0.58572 0.23265 0.0
C3617 C 0.89362 0.60778 0.26277 0.0
C3618 C 0.9009 0.59091 0.27401 0.0
C3619 C 0.90181 0.62758 0.26673 0.0
C3620 C 0.894 0.64622 0.25614 0.0
C3621 C 0.87286 0.65072 0.25601 0.0
C3622 C 0.86558 0.6682 0.24587 0.0
C3623 C 0.87932 0.68137 0.23589 0.0
C3624 C 0.90036 0.67711 0.23609 0.0
C3625 C 0.90772 0.65965 0.2462 0.0
H3626 H 0.87365 0.69489 0.22804 0.0
H3627 H 0.94191 0.5232 0.32409 0.0
H3628 H 0.48136 0.81204 0.24193 0.0
H3629 H 0.47345 0.83771 0.26814 0.0
H3630 H 0.4246 0.86155 0.23029 0.0
H3631 H 0.43224 0.83602 0.20401 0.0
H3632 H 0.45408 0.89122 0.24223 0.0
H3633 H 0.41275 0.83685 0.27238 0.0
H3634 H 0.40699 0.8022 0.28664 0.0
H3635 H 0.45258 0.81344 0.33302 0.0
H3636 H 0.4588 0.84808 0.31886 0.0
H3637 H 0.39047 0.95267 0.30394 0.0
H3638 H 0.40956 0.93047 0.2807 0.0
H3639 H 0.44975 0.91268 0.33032 0.0
H3640 H 0.43058 0.93469 0.35383 0.0
H3641 H 0.43153 0.8804 0.31417 0.0
H3642 H 0.46829 0.93707 0.28843 0.0
H3643 H 0.47507 0.97164 0.27454 0.0
H3644 H 0.44061 0.95695 0.22023 0.0
H3645 H 0.4331 0.92245 0.23399 0.0
C3646 C 0.46854 0.82233 0.23939 0.0
C3647 C 0.45762 0.82211 0.22071 0.0
C3648 C 0.46414 0.83706 0.25435 0.0
C3649 C 0.44872 0.85167 0.25089 0.0
C3650 C 0.43677 0.85052 0.23303 0.0
C3651 C 0.44105 0.83577 0.21812 0.0
C3652 C 0.44576 0.86894 0.26524 0.0
C3653 C 0.44895 0.88901 0.25793 0.0
C3654 C 0.44014 0.86577 0.28592 0.0
C3655 C 0.43642 0.84495 0.29441 0.0
C3656 C 0.42168 0.83186 0.2855 0.0
C3657 C 0.4183 0.81224 0.29359 0.0
C3658 C 0.42946 0.8056 0.31068 0.0
C3659 C 0.44398 0.81859 0.31976 0.0
C3660 C 0.44743 0.83822 0.31171 0.0
C3661 C 0.40367 0.94444 0.30985 0.0
C3662 C 0.40868 0.94505 0.33085 0.0
C3663 C 0.4147 0.93188 0.29647 0.0
C3664 C 0.431 0.91985 0.30384 0.0
C3665 C 0.43713 0.92178 0.32439 0.0
C3666 C 0.42613 0.93437 0.33779 0.0
C3667 C 0.43909 0.90296 0.29104 0.0
C3668 C 0.43697 0.88284 0.2986 0.0
C3669 C 0.44584 0.90616 0.27063 0.0
C3670 C 0.44999 0.92711 0.26237 0.0
C3671 C 0.46191 0.94125 0.27363 0.0
C3672 C 0.46592 0.96085 0.26576 0.0
C3673 C 0.45825 0.9665 0.24653 0.0
C3674 C 0.44652 0.95256 0.23514 0.0
C3675 C 0.44237 0.93297 0.24299 0.0
H3676 H 0.46143 0.98165 0.24043 0.0
H3677 H 0.42682 0.79041 0.31693 0.0
H3678 H 0.12961 0.44149 0.17011 0.0
H3679 H 0.10595 0.41594 0.18438 0.0
H3680 H 0.05595 0.44262 0.15006 0.0
H3681 H 0.07941 0.46816 0.13565 0.0
H3682 H 0.04692 0.43589 0.19157 0.0
H3683 H 0.07397 0.39877 0.13404 0.0
H3684 H 0.10135 0.38512 0.11169 0.0
H3685 H 0.12551 0.3501 0.16209 0.0
H3686 H 0.09844 0.36377 0.18483 0.0
H3687 H 0.98141 0.35791 0.22997 0.0
H3688 H -0.00134 0.37763 0.20268 0.0
H3689 H 0.0576 0.35787 0.22582 0.0
H3690 H 0.04043 0.33837 0.2529 0.0
H3691 H 0.05806 0.36075 0.18447 0.0
H3692 H 0.0358 0.40098 0.24287 0.0
H3693 H 0.01084 0.4159 0.26717 0.0
H3694 H 0.98004 0.44626 0.21739 0.0
H3695 H 0.00462 0.43124 0.19274 0.0
C3696 C 0.11361 0.44187 0.16553 0.0
C3697 C 0.10642 0.45678 0.15168 0.0
C3698 C 0.10014 0.42722 0.17362 0.0
C3699 C 0.07929 0.42733 0.16808 0.0
C3700 C 0.07203 0.44226 0.1544 0.0
C3701 C 0.0855 0.45676 0.14614 0.0
C3702 C 0.06496 0.41221 0.17712 0.0
C3703 C 0.04901 0.41945 0.18967 0.0
C3704 C 0.06804 0.39083 0.17486 0.0
C3705 C 0.08424 0.38241 0.16118 0.0
C3706 C 0.0852 0.38827 0.1404 0.0
C3707 C 0.10066 0.38051 0.12765 0.0
C3708 C 0.11518 0.36678 0.13547 0.0
C3709 C 0.11425 0.36074 0.15605 0.0
C3710 C 0.09883 0.36847 0.16887 0.0
C3711 C -0.00201 0.35717 0.22857 0.0
C3712 C 0.00972 0.34659 0.24322 0.0
C3713 C 0.00782 0.36855 0.21319 0.0
C3714 C 0.0294 0.3694 0.21245 0.0
C3715 C 0.04095 0.35739 0.2261 0.0
C3716 C 0.03118 0.34622 0.2415 0.0
C3717 C 0.04022 0.3844 0.19924 0.0
C3718 C 0.05559 0.37718 0.18596 0.0
C3719 C 0.03681 0.40584 0.20109 0.0
C3720 C 0.02182 0.41464 0.2159 0.0
C3721 C 0.02354 0.41061 0.23707 0.0
C3722 C 0.00949 0.41914 0.25092 0.0
C3723 C 0.99378 0.43192 0.24383 0.0
C3724 C 0.99215 0.43628 0.22287 0.0
C3725 C 0.00612 0.42774 0.20894 0.0
H3726 H 0.98292 0.43851 0.25458 0.0
H3727 H 0.12714 0.3608 0.12558 0.0
H3728 H 0.72281 0.66543 0.91909 0.0
H3729 H 0.73385 0.65408 0.88524 0.0
H3730 H 0.67095 0.6406 0.86887 0.0
H3731 H 0.65984 0.65163 0.90293 0.0
H3732 H 0.69242 0.60732 0.86854 0.0
H3733 H 0.70072 0.67033 0.83588 0.0
H3734 H 0.70915 0.70696 0.83113 0.0
H3735 H 0.77297 0.69415 0.84182 0.0
H3736 H 0.76496 0.65752 0.84698 0.0
H3737 H 0.76635 0.5423 0.81669 0.0
H3738 H 0.73748 0.56671 0.81784 0.0
H3739 H 0.7727 0.60619 0.85794 0.0
H3740 H 0.8013 0.58233 0.85667 0.0
H3741 H 0.75299 0.62811 0.82728 0.0
H3742 H 0.73756 0.57173 0.87743 0.0
H3743 H 0.72951 0.53543 0.88506 0.0
H3744 H 0.67925 0.53721 0.84231 0.0
H3745 H 0.68716 0.57351 0.83435 0.0
C3746 C 0.71125 0.6608 0.90803 0.0
C3747 C 0.69059 0.65879 0.91382 0.0
C3748 C 0.71753 0.6545 0.88853 0.0
C3749 C 0.7032 0.64636 0.8745 0.0
C3750 C 0.68225 0.64674 0.87946 0.0
C3751 C 0.67598 0.65288 0.899 0.0
C3752 C 0.71069 0.63291 0.85777 0.0
C3753 C 0.70512 0.61205 0.85881 0.0
C3754 C 0.72709 0.63899 0.8449 0.0
C3755 C 0.7322 0.66106 0.84174 0.0
C3756 C 0.71655 0.67531 0.83731 0.0
C3757 C 0.72126 0.69609 0.83454 0.0
C3758 C 0.74158 0.70287 0.83614 0.0
C3759 C 0.75724 0.68886 0.84051 0.0
C3760 C 0.75263 0.66806 0.8433 0.0
C3761 C 0.76776 0.55614 0.82585 0.0
C3762 C 0.78599 0.56043 0.83664 0.0
C3763 C 0.75142 0.57012 0.82628 0.0
C3764 C 0.75316 0.58838 0.83768 0.0
C3765 C 0.77123 0.5924 0.84869 0.0
C3766 C 0.78748 0.57863 0.84813 0.0
C3767 C 0.73589 0.60283 0.84007 0.0
C3768 C 0.7395 0.62373 0.83605 0.0
C3769 C 0.71777 0.59689 0.85039 0.0
C3770 C 0.71309 0.57515 0.85512 0.0
C3771 C 0.72488 0.56431 0.86959 0.0
C3772 C 0.72034 0.54376 0.87398 0.0
C3773 C 0.70392 0.53399 0.86412 0.0
C3774 C 0.69199 0.54478 0.84989 0.0
C3775 C 0.6965 0.56532 0.84543 0.0
H3776 H 0.70042 0.51809 0.86754 0.0
H3777 H 0.74519 0.71897 0.834 0.0
H3778 H 0.64682 0.39492 0.08006 0.0
H3779 H 0.66376 0.42248 0.09947 0.0
H3780 H 0.71987 0.41181 0.06594 0.0
H3781 H 0.70345 0.38371 0.04715 0.0
H3782 H 0.71782 0.41254 0.11495 0.0
H3783 H 0.71418 0.47485 0.05501 0.0
H3784 H 0.69161 0.4909 0.02914 0.0
H3785 H 0.63845 0.47298 0.06391 0.0
H3786 H 0.66076 0.45767 0.09042 0.0
H3787 H 0.79808 0.48374 0.11934 0.0
H3788 H 0.77078 0.46102 0.10763 0.0
H3789 H 0.72583 0.49827 0.13893 0.0
H3790 H 0.7533 0.52129 0.15105 0.0
H3791 H 0.71587 0.48651 0.09648 0.0
H3792 H 0.73562 0.45607 0.16052 0.0
H3793 H 0.76025 0.44316 0.18624 0.0
H3794 H 0.78212 0.39818 0.14319 0.0
H3795 H 0.75785 0.41103 0.1171 0.0
C3796 C 0.66276 0.39847 0.07682 0.0
C3797 C 0.67383 0.38704 0.06215 0.0
C3798 C 0.67232 0.41439 0.08771 0.0
C3799 C 0.69284 0.41956 0.08364 0.0
C3800 C 0.7039 0.40822 0.06904 0.0
C3801 C 0.69455 0.39203 0.05849 0.0
C3802 C 0.70365 0.43544 0.09579 0.0
C3803 C 0.71722 0.42876 0.11113 0.0
C3804 C 0.70273 0.45658 0.09079 0.0
C3805 C 0.68912 0.46462 0.07442 0.0
C3806 C 0.69766 0.47423 0.05706 0.0
C3807 C 0.68493 0.4834 0.04239 0.0
C3808 C 0.66359 0.48291 0.04485 0.0
C3809 C 0.65497 0.47325 0.06197 0.0
C3810 C 0.66766 0.4643 0.07682 0.0
C3811 C 0.78242 0.48725 0.12375 0.0
C3812 C 0.77791 0.50437 0.13619 0.0
C3813 C 0.76684 0.47415 0.11709 0.0
C3814 C 0.74636 0.47788 0.12257 0.0
C3815 C 0.7416 0.49513 0.13463 0.0
C3816 C 0.7573 0.5082 0.14156 0.0
C3817 C 0.73018 0.46355 0.11547 0.0
C3818 C 0.71596 0.47041 0.10082 0.0
C3819 C 0.73049 0.44255 0.12107 0.0
C3820 C 0.74496 0.43459 0.13681 0.0
C3821 C 0.74577 0.44351 0.15649 0.0
C3822 C 0.75966 0.43619 0.17114 0.0
C3823 C 0.77276 0.41987 0.16635 0.0
C3824 C 0.77196 0.41081 0.14689 0.0
C3825 C 0.75812 0.41809 0.13217 0.0
H3826 H 0.7835 0.41423 0.17771 0.0
H3827 H 0.65375 0.49001 0.03349 0.0
H3828 H 0.56311 0.7535 0.17038 0.0
H3829 H 0.5913 0.73277 0.15599 0.0
H3830 H 0.58436 0.76381 0.09786 0.0
H3831 H 0.5566 0.78441 0.11188 0.0
H3832 H 0.5848 0.72026 0.09575 0.0
H3833 H 0.62154 0.77777 0.12766 0.0
H3834 H 0.63212 0.79867 0.15747 0.0
H3835 H 0.65848 0.7453 0.1859 0.0
H3836 H 0.64778 0.72402 0.15635 0.0
H3837 H 0.66418 0.72011 0.02782 0.0
H3838 H 0.64441 0.73398 0.05638 0.0
H3839 H 0.66428 0.6841 0.09505 0.0
H3840 H 0.68418 0.66982 0.06644 0.0
H3841 H 0.65843 0.7292 0.11384 0.0
H3842 H 0.62389 0.67213 0.08136 0.0
H3843 H 0.61219 0.6508 0.05258 0.0
H3844 H 0.58131 0.70268 0.02599 0.0
H3845 H 0.59274 0.72439 0.05497 0.0
C3846 C 0.56762 0.75582 0.15453 0.0
C3847 C 0.55768 0.7706 0.14227 0.0
C3848 C 0.58374 0.74408 0.14642 0.0
C3849 C 0.58984 0.7469 0.12594 0.0
C3850 C 0.57983 0.76148 0.11372 0.0
C3851 C 0.56399 0.77328 0.1218 0.0
C3852 C 0.60626 0.73449 0.11654 0.0
C3853 C 0.60088 0.72208 0.09983 0.0
C3854 C 0.62715 0.73644 0.12229 0.0
C3855 C 0.63361 0.74926 0.13996 0.0
C3856 C 0.6294 0.77046 0.14037 0.0
C3857 C 0.63546 0.78238 0.15719 0.0
C3858 C 0.64589 0.77331 0.17361 0.0
C3859 C 0.65035 0.7523 0.1732 0.0
C3860 C 0.6443 0.7403 0.15642 0.0
C3861 C 0.6649 0.71232 0.04251 0.0
C3862 C 0.67546 0.69361 0.0447 0.0
C3863 C 0.65361 0.72033 0.05883 0.0
C3864 C 0.65279 0.70988 0.07764 0.0
C3865 C 0.66483 0.69231 0.08059 0.0
C3866 C 0.67613 0.68419 0.0642 0.0
C3867 C 0.63687 0.71573 0.09263 0.0
C3868 C 0.64232 0.72688 0.11025 0.0
C3869 C 0.61592 0.71262 0.08786 0.0
C3870 C 0.60938 0.6999 0.07016 0.0
C3871 C 0.61485 0.67906 0.06923 0.0
C3872 C 0.6082 0.66687 0.05288 0.0
C3873 C 0.59616 0.67537 0.03726 0.0
C3874 C 0.59067 0.69611 0.03806 0.0
C3875 C 0.59716 0.70835 0.0545 0.0
H3876 H 0.59095 0.6659 0.02463 0.0
H3877 H 0.65058 0.78257 0.18662 0.0
H3878 H 0.32592 0.60125 0.02077 0.0
H3879 H 0.298 0.59387 0.0447 0.0
H3880 H 0.32071 0.53218 0.05268 0.0
H3881 H 0.34903 0.53944 0.02899 0.0
H3882 H 0.27396 0.53938 0.05084 0.0
H3883 H 0.33753 0.56078 0.08469 0.0
H3884 H 0.36692 0.58454 0.08814 0.0
H3885 H 0.32557 0.63446 0.10035 0.0
H3886 H 0.29589 0.61107 0.09649 0.0
H3887 H 0.22663 0.51141 0.13956 0.0
H3888 H 0.25821 0.51985 0.12133 0.0
H3889 H 0.23885 0.58296 0.11611 0.0
H3890 H 0.2071 0.57479 0.13435 0.0
H3891 H 0.28462 0.57556 0.11735 0.0
H3892 H 0.2229 0.56014 0.07985 0.0
H3893 H 0.19096 0.54096 0.07289 0.0
H3894 H 0.2256 0.48528 0.06614 0.0
H3895 H 0.25776 0.50415 0.07288 0.0
C3896 C 0.3247 0.58591 0.02711 0.0
C3897 C 0.33991 0.57102 0.02329 0.0
C3898 C 0.30877 0.58178 0.04083 0.0
C3899 C 0.30768 0.56266 0.05063 0.0
C3900 C 0.32152 0.54708 0.04529 0.0
C3901 C 0.33766 0.55127 0.03179 0.0
C3902 C 0.29359 0.55975 0.06805 0.0
C3903 C 0.27648 0.54699 0.06547 0.0
C3904 C 0.29661 0.57034 0.08685 0.0
C3905 C 0.31447 0.58422 0.09005 0.0
C3906 C 0.33469 0.57685 0.08795 0.0
C3907 C 0.3514 0.59025 0.08997 0.0
C3908 C 0.3481 0.61102 0.09431 0.0
C3909 C 0.32809 0.61838 0.09687 0.0
C3910 C 0.31132 0.60506 0.09478 0.0
C3911 C 0.22937 0.52728 0.13531 0.0
C3912 C 0.21404 0.5423 0.13783 0.0
C3913 C 0.2475 0.53207 0.12496 0.0
C3914 C 0.25057 0.55191 0.11714 0.0
C3915 C 0.23666 0.56756 0.12206 0.0
C3916 C 0.21844 0.56278 0.13234 0.0
C3917 C 0.26523 0.55493 0.10017 0.0
C3918 C 0.28233 0.56775 0.10279 0.0
C3919 C 0.26192 0.54498 0.08114 0.0
C3920 C 0.2427 0.53351 0.0769 0.0
C3921 C 0.22368 0.54376 0.07695 0.0
C3922 C 0.20553 0.53297 0.07298 0.0
C3923 C 0.20622 0.51188 0.06906 0.0
C3924 C 0.22505 0.50158 0.06919 0.0
C3925 C 0.24328 0.51234 0.07292 0.0
H3926 H 0.19218 0.50355 0.06585 0.0
H3927 H 0.36105 0.62138 0.09576 0.0
H3928 H 0.37252 0.32083 0.03079 0.0
H3929 H 0.3897 0.3029 0.05877 0.0
H3930 H 0.34372 0.25513 0.05668 0.0
H3931 H 0.32627 0.27292 0.02863 0.0
H3932 H 0.35724 0.26528 0.09705 0.0
H3933 H 0.3848 0.24793 0.02956 0.0
H3934 H 0.39979 0.25668 0.99585 0.0
H3935 H 0.45054 0.28649 0.02576 0.0
H3936 H 0.43578 0.27799 0.05966 0.0
H3937 H 0.40047 0.16953 0.11805 0.0
H3938 H 0.38409 0.20071 0.10558 0.0
H3939 H 0.44061 0.23436 0.11435 0.0
H3940 H 0.4573 0.20306 0.12682 0.0
H3941 H 0.42514 0.23792 0.07553 0.0
H3942 H 0.40043 0.24666 0.14347 0.0
H3943 H 0.38485 0.23645 0.17645 0.0
H3944 H 0.32829 0.22187 0.14571 0.0
H3945 H 0.3436 0.23169 0.11248 0.0
C3946 C 0.36581 0.30668 0.03645 0.0
C3947 C 0.34821 0.29808 0.02722 0.0
C3948 C 0.37564 0.29654 0.05249 0.0
C3949 C 0.36805 0.27767 0.05951 0.0
C3950 C 0.34973 0.26974 0.05138 0.0
C3951 C 0.33987 0.27986 0.03529 0.0
C3952 C 0.38043 0.26499 0.07347 0.0
C3953 C 0.3721 0.25926 0.09247 0.0
C3954 C 0.40002 0.25771 0.06751 0.0
C3955 C 0.40909 0.26252 0.04713 0.0
C3956 C 0.39912 0.25643 0.02893 0.0
C3957 C 0.4076 0.26128 0.00979 0.0
C3958 C 0.42614 0.27209 0.00864 0.0
C3959 C 0.43624 0.27803 0.02665 0.0
C3960 C 0.42783 0.27319 0.04583 0.0
C3961 C 0.40939 0.18359 0.11759 0.0
C3962 C 0.43023 0.18379 0.12323 0.0
C3963 C 0.39994 0.20145 0.11066 0.0
C3964 C 0.41112 0.21982 0.10927 0.0
C3965 C 0.43174 0.2203 0.11549 0.0
C3966 C 0.44121 0.20243 0.12257 0.0
C3967 C 0.40176 0.23768 0.09903 0.0
C3968 C 0.4106 0.24438 0.08056 0.0
C3969 C 0.3826 0.24569 0.10545 0.0
C3970 C 0.37322 0.23985 0.12543 0.0
C3971 C 0.38471 0.24115 0.1437 0.0
C3972 C 0.37592 0.23545 0.16246 0.0
C3973 C 0.3556 0.2285 0.16317 0.0
C3974 C 0.34402 0.22727 0.14514 0.0
C3975 C 0.35274 0.23294 0.12634 0.0
H3976 H 0.34883 0.22409 0.17771 0.0
H3977 H 0.43266 0.27587 0.99381 0.0
H3978 H 0.22259 0.46702 0.8371 0.0
H3979 H 0.23506 0.43316 0.84788 0.0
H3980 H 0.20229 0.43933 0.90521 0.0
H3981 H 0.1902 0.47315 0.8948 0.0
H3982 H 0.23865 0.42337 0.91101 0.0
H3983 H 0.18229 0.41159 0.86586 0.0
H3984 H 0.1627 0.41521 0.83364 0.0
H3985 H 0.21135 0.3856 0.80033 0.0
H3986 H 0.23142 0.38214 0.83231 0.0
H3987 H 0.25467 0.32356 0.94327 0.0
H3988 H 0.23171 0.35016 0.9302 0.0
H3989 H 0.26485 0.35071 0.87281 0.0
H3990 H 0.28776 0.32403 0.88567 0.0
H3991 H 0.22473 0.36232 0.86744 0.0
H3992 H 0.28111 0.37597 0.91403 0.0
H3993 H 0.30147 0.37768 0.94574 0.0
H3994 H 0.25189 0.4078 0.97686 0.0
H3995 H 0.23041 0.4048 0.94582 0.0
C3996 C 0.21857 0.46139 0.85224 0.0
C3997 C 0.20536 0.47266 0.86508 0.0
C3998 C 0.22539 0.44192 0.85821 0.0
C3999 C 0.21908 0.43355 0.87707 0.0
C4000 C 0.2071 0.44541 0.89047 0.0
C4001 C 0.2003 0.46478 0.88454 0.0
C4002 C 0.22493 0.41246 0.88308 0.0
C4003 C 0.23521 0.40993 0.90173 0.0
C4004 C 0.22063 0.39509 0.8707 0.0
C4005 C 0.20846 0.39677 0.85147 0.0
C4006 C 0.18889 0.40597 0.85165 0.0
C4007 C 0.17768 0.40799 0.83343 0.0
C4008 C 0.1858 0.40069 0.81494 0.0
C4009 C 0.2051 0.39127 0.81466 0.0
C4010 C 0.21639 0.38927 0.83284 0.0
C4011 C 0.25643 0.32853 0.92748 0.0
C4012 C 0.27333 0.32206 0.91565 0.0
C4013 C 0.24337 0.3439 0.9201 0.0
C4014 C 0.24704 0.35284 0.90081 0.0
C4015 C 0.26192 0.34418 0.88784 0.0
C4016 C 0.27502 0.32891 0.89523 0.0
C4017 C 0.23837 0.37321 0.8956 0.0
C4018 C 0.2277 0.37567 0.87699 0.0
C4019 C 0.24201 0.39063 0.90822 0.0
C4020 C 0.25402 0.3899 0.9276 0.0
C4021 C 0.27426 0.38238 0.92777 0.0
C4022 C 0.28607 0.3837 0.94561 0.0
C4023 C 0.27819 0.39322 0.96313 0.0
C4024 C 0.25804 0.40055 0.96322 0.0
C4025 C 0.24593 0.39878 0.94559 0.0
H4026 H 0.28775 0.39499 0.9766 0.0
H4027 H 0.17711 0.40228 0.80085 0.0
H4028 H 0.68411 0.29204 0.95285 0.0
H4029 H 0.67579 0.26676 0.92625 0.0
H4030 H 0.62595 0.24398 0.96366 0.0
H4031 H 0.63452 0.26902 0.99029 0.0
H4032 H 0.64051 0.21449 0.93539 0.0
H4033 H 0.6157 0.28644 0.9369 0.0
H4034 H 0.62208 0.32383 0.93857 0.0
H4035 H 0.66144 0.31977 0.88573 0.0
H4036 H 0.65517 0.28233 0.88375 0.0
H4037 H 0.54538 0.20736 0.89096 0.0
H4038 H 0.57509 0.22008 0.9098 0.0
H4039 H 0.60748 0.23007 0.85285 0.0
H4040 H 0.57764 0.21712 0.83364 0.0
H4041 H 0.61129 0.26225 0.88351 0.0
H4042 H 0.62131 0.19008 0.87698 0.0
H4043 H 0.61065 0.1537 0.87742 0.0
H4044 H 0.59663 0.15823 0.94173 0.0
H4045 H 0.60688 0.19473 0.94162 0.0
C4046 C 0.6723 0.28067 0.95589 0.0
C4047 C 0.6599 0.28226 0.97344 0.0
C4048 C 0.66747 0.26635 0.94067 0.0
C4049 C 0.64999 0.25389 0.94286 0.0
C4050 C 0.63951 0.25349 0.96171 0.0
C4051 C 0.6444 0.26774 0.97695 0.0
C4052 C 0.63945 0.2457 0.92453 0.0
C4053 C 0.63438 0.22479 0.92381 0.0
C4054 C 0.63162 0.25921 0.90937 0.0
C4055 C 0.63513 0.28167 0.91028 0.0
C4056 C 0.62572 0.29356 0.92567 0.0
C4057 C 0.62931 0.31473 0.92667 0.0
C4058 C 0.64225 0.32415 0.91233 0.0
C4059 C 0.65147 0.31244 0.89686 0.0
C4060 C 0.64787 0.29126 0.89575 0.0
C4061 C 0.5587 0.21249 0.88236 0.0
C4062 C 0.5593 0.21097 0.86083 0.0
C4063 C 0.57568 0.21963 0.89316 0.0
C4064 C 0.59358 0.22538 0.88267 0.0
C4065 C 0.59382 0.22536 0.86113 0.0
C4066 C 0.57674 0.21813 0.85022 0.0
C4067 C 0.61192 0.23112 0.89465 0.0
C4068 C 0.61826 0.25166 0.89433 0.0
C4069 C 0.62065 0.21728 0.90898 0.0
C4070 C 0.61485 0.19518 0.90927 0.0
C4071 C 0.61587 0.18335 0.8912 0.0
C4072 C 0.60989 0.1627 0.89139 0.0
C4073 C 0.60296 0.15366 0.90959 0.0
C4074 C 0.60203 0.16525 0.92765 0.0
C4075 C 0.60796 0.18591 0.92754 0.0
H4076 H 0.59833 0.13768 0.9097 0.0
H4077 H 0.64508 0.34053 0.91318 0.0
H4078 H 0.40604 0.81364 0.87859 0.0
H4079 H 0.39418 0.78484 0.89983 0.0
H4080 H 0.43537 0.74417 0.86747 0.0
H4081 H 0.44608 0.77219 0.8455 0.0
H4082 H 0.40396 0.72301 0.88175 0.0
H4083 H 0.44894 0.77846 0.90871 0.0
H4084 H 0.45201 0.81521 0.91697 0.0
H4085 H 0.40303 0.80982 0.96091 0.0
H4086 H 0.39911 0.7731 0.95225 0.0
H4087 H 0.44729 0.65245 0.94633 0.0
H4088 H 0.44604 0.68435 0.92675 0.0
H4089 H 0.40182 0.70917 0.96938 0.0
H4090 H 0.40307 0.67743 0.98928 0.0
H4091 H 0.42718 0.73938 0.95262 0.0
H4092 H 0.38307 0.68572 0.93029 0.0
H4093 H 0.37389 0.65026 0.92077 0.0
H4094 H 0.41585 0.65268 0.86989 0.0
H4095 H 0.42553 0.68816 0.87932 0.0
C4096 C 0.41193 0.79837 0.87553 0.0
C4097 C 0.42737 0.79529 0.86075 0.0
C4098 C 0.40517 0.78194 0.88768 0.0
C4099 C 0.41455 0.76255 0.88579 0.0
C4100 C 0.42811 0.75902 0.86943 0.0
C4101 C 0.43432 0.77519 0.8569 0.0
C4102 C 0.41349 0.74704 0.90245 0.0
C4103 C 0.409 0.72661 0.89723 0.0
C4104 C 0.41951 0.75178 0.92289 0.0
C4105 C 0.42355 0.77314 0.92965 0.0
C4106 C 0.43887 0.7851 0.92018 0.0
C4107 C 0.44067 0.80598 0.92484 0.0
C4108 C 0.42762 0.81491 0.93939 0.0
C4109 C 0.41303 0.80289 0.94957 0.0
C4110 C 0.41096 0.78207 0.94474 0.0
C4111 C 0.43781 0.6649 0.952 0.0
C4112 C 0.42483 0.66212 0.96906 0.0
C4113 C 0.43705 0.6831 0.94072 0.0
C4114 C 0.42332 0.69876 0.94629 0.0
C4115 C 0.4123 0.69711 0.96471 0.0
C4116 C 0.41307 0.67891 0.97606 0.0
C4117 C 0.41854 0.71536 0.93155 0.0
C4118 C 0.4219 0.73586 0.93721 0.0
C4119 C 0.41111 0.71075 0.91162 0.0
C4120 C 0.40515 0.68954 0.90562 0.0
C4121 C 0.39045 0.67865 0.91715 0.0
C4122 C 0.38514 0.65854 0.91176 0.0
C4123 C 0.39431 0.64917 0.89477 0.0
C4124 C 0.40877 0.65994 0.88307 0.0
C4125 C 0.41416 0.68008 0.88842 0.0
H4126 H 0.39017 0.63358 0.89064 0.0
H4127 H 0.42866 0.83114 0.94272 0.0
loop_
_geom_bond_atom_site_label_1
_geom_bond_atom_site_label_2
_geom_bond_distance
_geom_bond_site_symmetry_2
_ccdc_geom_bond_type
Sc0 O3 2.025 . S
Sc0 O10 2.105 1_455 S
Sc0 O13 2.105 . S
Sc0 O16 2.105 1_455 S
Sc0 O19 2.105 . S
Sc1 O3 2.025 . S
Sc1 O11 2.105 . S
Sc1 O15 2.105 . S
Sc1 O17 2.105 . S
Sc1 O21 2.105 . S
Sc2 O3 2.025 1_655 S
Sc2 O12 2.105 . S
Sc2 O14 2.105 . S
Sc2 O18 2.105 . S
Sc2 O20 2.105 . S
O3 Sc0 2.025 . S
O3 Sc1 2.025 . S
O3 Sc2 2.025 1_455 S
C4 O10 1.268 . S
C4 O20 1.268 . S
C5 O11 1.268 . S
C5 O19 1.268 . S
C6 O12 1.268 1_455 S
C6 O21 1.268 . S
C7 O13 1.268 . S
C7 O17 1.268 . S
C8 O14 1.268 . S
C8 O16 1.268 . S
C9 O15 1.268 . S
C9 O18 1.268 1_455 S
O10 Sc0 2.105 1_655 S
O10 C4 1.268 . S
O11 Sc1 2.105 . S
O11 C5 1.268 . S
O12 Sc2 2.105 . S
O12 C6 1.268 1_655 S
O13 Sc0 2.105 . S
O13 C7 1.268 . S
O14 Sc2 2.105 . S
O14 C8 1.268 . S
O15 Sc1 2.105 . S
O15 C9 1.268 . S
O16 Sc0 2.105 1_655 S
O16 C8 1.268 . S
O17 Sc1 2.105 . S
O17 C7 1.268 . S
O18 Sc2 2.105 . S
O18 C9 1.268 1_655 S
O19 Sc0 2.105 . S
O19 C5 1.268 . S
O20 Sc2 2.105 . S
O20 C4 1.268 . S
O21 Sc1 2.105 . S
O21 C6 1.268 . S
Sc22 O25 2.025 . S
Sc22 O32 2.105 . S
Sc22 O35 2.105 1_545 S
Sc22 O38 2.105 . S
Sc22 O41 2.105 1_545 S
Sc23 O25 2.025 1_565 S
Sc23 O33 2.105 . S
Sc23 O37 2.105 . S
Sc23 O39 2.105 . S
Sc23 O43 2.105 . S
Sc24 O25 2.025 . S
Sc24 O34 2.105 . S
Sc24 O36 2.105 . S
Sc24 O40 2.105 . S
Sc24 O42 2.105 . S
O25 Sc22 2.025 . S
O25 Sc23 2.025 1_545 S
O25 Sc24 2.025 . S
C26 O32 1.268 . S
C26 O42 1.268 . S
C27 O33 1.268 . S
C27 O41 1.268 . S
C28 O34 1.268 . S
C28 O43 1.268 1_545 S
C29 O35 1.268 . S
C29 O39 1.268 . S
C30 O36 1.268 . S
C30 O38 1.268 . S
C31 O37 1.268 1_545 S
C31 O40 1.268 . S
O32 Sc22 2.105 . S
O32 C26 1.268 . S
O33 Sc23 2.105 . S
O33 C27 1.268 . S
O34 Sc24 2.105 . S
O34 C28 1.268 . S
O35 Sc22 2.105 1_565 S
O35 C29 1.268 . S
O36 Sc24 2.105 . S
O36 C30 1.268 . S
O37 Sc23 2.105 . S
O37 C31 1.268 1_565 S
O38 Sc22 2.105 . S
O38 C30 1.268 . S
O39 Sc23 2.105 . S
O39 C29 1.268 . S
O40 Sc24 2.105 . S
O40 C31 1.268 . S
O41 Sc22 2.105 1_565 S
O41 C27 1.268 . S
O42 Sc24 2.105 . S
O42 C26 1.268 . S
O43 Sc23 2.105 . S
O43 C28 1.268 1_565 S
Sc44 O47 2.025 . S
Sc44 O54 2.105 . S
Sc44 O57 2.105 1_455 S
Sc44 O60 2.105 . S
Sc44 O63 2.105 1_455 S
Sc45 O47 2.025 1_655 S
Sc45 O55 2.105 . S
Sc45 O59 2.105 . S
Sc45 O61 2.105 . S
Sc45 O65 2.105 . S
Sc46 O47 2.025 . S
Sc46 O56 2.105 . S
Sc46 O58 2.105 . S
Sc46 O62 2.105 . S
Sc46 O64 2.105 . S
O47 Sc44 2.025 . S
O47 Sc45 2.025 1_455 S
O47 Sc46 2.025 . S
C48 O54 1.268 . S
C48 O64 1.268 . S
C49 O55 1.268 . S
C49 O63 1.268 . S
C50 O56 1.268 . S
C50 O65 1.268 1_455 S
C51 O57 1.268 . S
C51 O61 1.268 . S
C52 O58 1.268 . S
C52 O60 1.268 . S
C53 O59 1.268 1_455 S
C53 O62 1.268 . S
O54 Sc44 2.105 . S
O54 C48 1.268 . S
O55 Sc45 2.105 . S
O55 C49 1.268 . S
O56 Sc46 2.105 . S
O56 C50 1.268 . S
O57 Sc44 2.105 1_655 S
O57 C51 1.268 . S
O58 Sc46 2.105 . S
O58 C52 1.268 . S
O59 Sc45 2.105 . S
O59 C53 1.268 1_655 S
O60 Sc44 2.105 . S
O60 C52 1.268 . S
O61 Sc45 2.105 . S
O61 C51 1.268 . S
O62 Sc46 2.105 . S
O62 C53 1.268 . S
O63 Sc44 2.105 1_655 S
O63 C49 1.268 . S
O64 Sc46 2.105 . S
O64 C48 1.268 . S
O65 Sc45 2.105 . S
O65 C50 1.268 1_655 S
Sc66 O69 2.025 1_565 S
Sc66 O76 2.105 . S
Sc66 O79 2.105 . S
Sc66 O82 2.105 . S
Sc66 O85 2.105 . S
Sc67 O69 2.025 . S
Sc67 O77 2.105 . S
Sc67 O81 2.105 . S
Sc67 O83 2.105 . S
Sc67 O87 2.105 . S
Sc68 O69 2.025 . S
Sc68 O78 2.105 . S
Sc68 O80 2.105 1_545 S
Sc68 O84 2.105 . S
Sc68 O86 2.105 1_545 S
O69 Sc66 2.025 1_545 S
O69 Sc67 2.025 . S
O69 Sc68 2.025 . S
C70 O76 1.268 . S
C70 O86 1.268 . S
C71 O77 1.268 . S
C71 O85 1.268 1_545 S
C72 O78 1.268 . S
C72 O87 1.268 . S
C73 O79 1.268 1_545 S
C73 O83 1.268 . S
C74 O80 1.268 . S
C74 O82 1.268 . S
C75 O81 1.268 . S
C75 O84 1.268 . S
O76 Sc66 2.105 . S
O76 C70 1.268 . S
O77 Sc67 2.105 . S
O77 C71 1.268 . S
O78 Sc68 2.105 . S
O78 C72 1.268 . S
O79 Sc66 2.105 . S
O79 C73 1.268 1_565 S
O80 Sc68 2.105 1_565 S
O80 C74 1.268 . S
O81 Sc67 2.105 . S
O81 C75 1.268 . S
O82 Sc66 2.105 . S
O82 C74 1.268 . S
O83 Sc67 2.105 . S
O83 C73 1.268 . S
O84 Sc68 2.105 . S
O84 C75 1.268 . S
O85 Sc66 2.105 . S
O85 C71 1.268 1_565 S
O86 Sc68 2.105 1_565 S
O86 C70 1.268 . S
O87 Sc67 2.105 . S
O87 C72 1.268 . S
Sc88 O91 2.025 . S
Sc88 O98 2.105 . S
Sc88 O101 2.105 . S
Sc88 O104 2.105 . S
Sc88 O107 2.105 . S
Sc89 O91 2.025 1_655 S
Sc89 O99 2.105 . S
Sc89 O103 2.105 . S
Sc89 O105 2.105 . S
Sc89 O109 2.105 . S
Sc90 O91 2.025 . S
Sc90 O100 2.105 1_455 S
Sc90 O102 2.105 . S
Sc90 O106 2.105 1_455 S
Sc90 O108 2.105 . S
O91 Sc88 2.025 . S
O91 Sc89 2.025 1_455 S
O91 Sc90 2.025 . S
C92 O98 1.268 . S
C92 O108 1.268 . S
C93 O99 1.268 1_455 S
C93 O107 1.268 . S
C94 O100 1.268 . S
C94 O109 1.268 . S
C95 O101 1.268 . S
C95 O105 1.268 1_455 S
C96 O102 1.268 . S
C96 O104 1.268 . S
C97 O103 1.268 . S
C97 O106 1.268 . S
O98 Sc88 2.105 . S
O98 C92 1.268 . S
O99 Sc89 2.105 . S
O99 C93 1.268 1_655 S
O100 Sc90 2.105 1_655 S
O100 C94 1.268 . S
O101 Sc88 2.105 . S
O101 C95 1.268 . S
O102 Sc90 2.105 . S
O102 C96 1.268 . S
O103 Sc89 2.105 . S
O103 C97 1.268 . S
O104 Sc88 2.105 . S
O104 C96 1.268 . S
O105 Sc89 2.105 . S
O105 C95 1.268 1_655 S
O106 Sc90 2.105 1_655 S
O106 C97 1.268 . S
O107 Sc88 2.105 . S
O107 C93 1.268 . S
O108 Sc90 2.105 . S
O108 C92 1.268 . S
O109 Sc89 2.105 . S
O109 C94 1.268 . S
Sc110 O113 2.025 1_565 S
Sc110 O120 2.105 . S
Sc110 O123 2.105 . S
Sc110 O126 2.105 . S
Sc110 O129 2.105 . S
Sc111 O113 2.025 . S
Sc111 O121 2.105 . S
Sc111 O125 2.105 . S
Sc111 O127 2.105 . S
Sc111 O131 2.105 . S
Sc112 O113 2.025 . S
Sc112 O122 2.105 . S
Sc112 O124 2.105 1_545 S
Sc112 O128 2.105 . S
Sc112 O130 2.105 1_545 S
O113 Sc110 2.025 1_545 S
O113 Sc111 2.025 . S
O113 Sc112 2.025 . S
C114 O120 1.268 . S
C114 O130 1.268 . S
C115 O121 1.268 . S
C115 O129 1.268 1_545 S
C116 O122 1.268 . S
C116 O131 1.268 . S
C117 O123 1.268 1_545 S
C117 O127 1.268 . S
C118 O124 1.268 . S
C118 O126 1.268 . S
C119 O125 1.268 . S
C119 O128 1.268 . S
O120 Sc110 2.105 . S
O120 C114 1.268 . S
O121 Sc111 2.105 . S
O121 C115 1.268 . S
O122 Sc112 2.105 . S
O122 C116 1.268 . S
O123 Sc110 2.105 . S
O123 C117 1.268 1_565 S
O124 Sc112 2.105 1_565 S
O124 C118 1.268 . S
O125 Sc111 2.105 . S
O125 C119 1.268 . S
O126 Sc110 2.105 . S
O126 C118 1.268 . S
O127 Sc111 2.105 . S
O127 C117 1.268 . S
O128 Sc112 2.105 . S
O128 C119 1.268 . S
O129 Sc110 2.105 . S
O129 C115 1.268 1_565 S
O130 Sc112 2.105 1_565 S
O130 C114 1.268 . S
O131 Sc111 2.105 . S
O131 C116 1.268 . S
Sc132 O135 2.025 . S
Sc132 O142 2.105 1_455 S
Sc132 O145 2.105 . S
Sc132 O148 2.105 1_455 S
Sc132 O151 2.105 . S
Sc133 O135 2.025 . S
Sc133 O143 2.105 . S
Sc133 O147 2.105 . S
Sc133 O149 2.105 . S
Sc133 O153 2.105 . S
Sc134 O135 2.025 1_655 S
Sc134 O144 2.105 . S
Sc134 O146 2.105 . S
Sc134 O150 2.105 . S
Sc134 O152 2.105 . S
O135 Sc132 2.025 . S
O135 Sc133 2.025 . S
O135 Sc134 2.025 1_455 S
C136 O142 1.268 . S
C136 O152 1.268 . S
C137 O143 1.268 . S
C137 O151 1.268 . S
C138 O144 1.268 1_455 S
C138 O153 1.268 . S
C139 O145 1.268 . S
C139 O149 1.268 . S
C140 O146 1.268 . S
C140 O148 1.268 . S
C141 O147 1.268 . S
C141 O150 1.268 1_455 S
O142 Sc132 2.105 1_655 S
O142 C136 1.268 . S
O143 Sc133 2.105 . S
O143 C137 1.268 . S
O144 Sc134 2.105 . S
O144 C138 1.268 1_655 S
O145 Sc132 2.105 . S
O145 C139 1.268 . S
O146 Sc134 2.105 . S
O146 C140 1.268 . S
O147 Sc133 2.105 . S
O147 C141 1.268 . S
O148 Sc132 2.105 1_655 S
O148 C140 1.268 . S
O149 Sc133 2.105 . S
O149 C139 1.268 . S
O150 Sc134 2.105 . S
O150 C141 1.268 1_655 S
O151 Sc132 2.105 . S
O151 C137 1.268 . S
O152 Sc134 2.105 . S
O152 C136 1.268 . S
O153 Sc133 2.105 . S
O153 C138 1.268 . S
Sc154 O157 2.025 . S
Sc154 O164 2.105 . S
Sc154 O167 2.105 . S
Sc154 O170 2.105 . S
Sc154 O173 2.105 . S
Sc155 O157 2.025 1_565 S
Sc155 O165 2.105 . S
Sc155 O169 2.105 . S
Sc155 O171 2.105 . S
Sc155 O175 2.105 . S
Sc156 O157 2.025 . S
Sc156 O166 2.105 1_545 S
Sc156 O168 2.105 . S
Sc156 O172 2.105 1_545 S
Sc156 O174 2.105 . S
O157 Sc154 2.025 . S
O157 Sc155 2.025 1_545 S
O157 Sc156 2.025 . S
C158 O164 1.268 . S
C158 O174 1.268 . S
C159 O165 1.268 1_545 S
C159 O173 1.268 . S
C160 O166 1.268 . S
C160 O175 1.268 . S
C161 O167 1.268 . S
C161 O171 1.268 1_545 S
C162 O168 1.268 . S
C162 O170 1.268 . S
C163 O169 1.268 . S
C163 O172 1.268 . S
O164 Sc154 2.105 . S
O164 C158 1.268 . S
O165 Sc155 2.105 . S
O165 C159 1.268 1_565 S
O166 Sc156 2.105 1_565 S
O166 C160 1.268 . S
O167 Sc154 2.105 . S
O167 C161 1.268 . S
O168 Sc156 2.105 . S
O168 C162 1.268 . S
O169 Sc155 2.105 . S
O169 C163 1.268 . S
O170 Sc154 2.105 . S
O170 C162 1.268 . S
O171 Sc155 2.105 . S
O171 C161 1.268 1_565 S
O172 Sc156 2.105 1_565 S
O172 C163 1.268 . S
O173 Sc154 2.105 . S
O173 C159 1.268 . S
O174 Sc156 2.105 . S
O174 C158 1.268 . S
O175 Sc155 2.105 . S
O175 C160 1.268 . S
Sc176 O179 2.025 1_556 S
Sc176 O186 2.105 . S
Sc176 O189 2.105 . S
Sc176 O192 2.105 . S
Sc176 O195 2.105 . S
Sc177 O179 2.025 . S
Sc177 O187 2.105 . S
Sc177 O191 2.105 . S
Sc177 O193 2.105 . S
Sc177 O197 2.105 . S
Sc178 O179 2.025 . S
Sc178 O188 2.105 . S
Sc178 O190 2.105 1_554 S
Sc178 O194 2.105 . S
Sc178 O196 2.105 1_554 S
O179 Sc176 2.025 1_554 S
O179 Sc177 2.025 . S
O179 Sc178 2.025 . S
C180 O186 1.268 . S
C180 O196 1.268 . S
C181 O187 1.268 . S
C181 O195 1.268 1_554 S
C182 O188 1.268 . S
C182 O197 1.268 . S
C183 O189 1.268 1_554 S
C183 O193 1.268 . S
C184 O190 1.268 . S
C184 O192 1.268 . S
C185 O191 1.268 . S
C185 O194 1.268 . S
O186 Sc176 2.105 . S
O186 C180 1.268 . S
O187 Sc177 2.105 . S
O187 C181 1.268 . S
O188 Sc178 2.105 . S
O188 C182 1.268 . S
O189 Sc176 2.105 . S
O189 C183 1.268 1_556 S
O190 Sc178 2.105 1_556 S
O190 C184 1.268 . S
O191 Sc177 2.105 . S
O191 C185 1.268 . S
O192 Sc176 2.105 . S
O192 C184 1.268 . S
O193 Sc177 2.105 . S
O193 C183 1.268 . S
O194 Sc178 2.105 . S
O194 C185 1.268 . S
O195 Sc176 2.105 . S
O195 C181 1.268 1_556 S
O196 Sc178 2.105 1_556 S
O196 C180 1.268 . S
O197 Sc177 2.105 . S
O197 C182 1.268 . S
Sc198 O201 2.025 . S
Sc198 O208 2.105 . S
Sc198 O211 2.105 1_554 S
Sc198 O214 2.105 . S
Sc198 O217 2.105 1_554 S
Sc199 O201 2.025 1_556 S
Sc199 O209 2.105 . S
Sc199 O213 2.105 . S
Sc199 O215 2.105 . S
Sc199 O219 2.105 . S
Sc200 O201 2.025 . S
Sc200 O210 2.105 . S
Sc200 O212 2.105 . S
Sc200 O216 2.105 . S
Sc200 O218 2.105 . S
O201 Sc198 2.025 . S
O201 Sc199 2.025 1_554 S
O201 Sc200 2.025 . S
C202 O208 1.268 . S
C202 O218 1.268 . S
C203 O209 1.268 . S
C203 O217 1.268 . S
C204 O210 1.268 . S
C204 O219 1.268 1_554 S
C205 O211 1.268 . S
C205 O215 1.268 . S
C206 O212 1.268 . S
C206 O214 1.268 . S
C207 O213 1.268 1_554 S
C207 O216 1.268 . S
O208 Sc198 2.105 . S
O208 C202 1.268 . S
O209 Sc199 2.105 . S
O209 C203 1.268 . S
O210 Sc200 2.105 . S
O210 C204 1.268 . S
O211 Sc198 2.105 1_556 S
O211 C205 1.268 . S
O212 Sc200 2.105 . S
O212 C206 1.268 . S
O213 Sc199 2.105 . S
O213 C207 1.268 1_556 S
O214 Sc198 2.105 . S
O214 C206 1.268 . S
O215 Sc199 2.105 . S
O215 C205 1.268 . S
O216 Sc200 2.105 . S
O216 C207 1.268 . S
O217 Sc198 2.105 1_556 S
O217 C203 1.268 . S
O218 Sc200 2.105 . S
O218 C202 1.268 . S
O219 Sc199 2.105 . S
O219 C204 1.268 1_556 S
Sc220 O223 2.025 . S
Sc220 O230 2.105 1_554 S
Sc220 O233 2.105 . S
Sc220 O236 2.105 1_554 S
Sc220 O239 2.105 . S
Sc221 O223 2.025 . S
Sc221 O231 2.105 . S
Sc221 O235 2.105 . S
Sc221 O237 2.105 . S
Sc221 O241 2.105 . S
Sc222 O223 2.025 1_556 S
Sc222 O232 2.105 . S
Sc222 O234 2.105 . S
Sc222 O238 2.105 . S
Sc222 O240 2.105 . S
O223 Sc220 2.025 . S
O223 Sc221 2.025 . S
O223 Sc222 2.025 1_554 S
C224 O230 1.268 . S
C224 O240 1.268 . S
C225 O231 1.268 . S
C225 O239 1.268 . S
C226 O232 1.268 1_554 S
C226 O241 1.268 . S
C227 O233 1.268 . S
C227 O237 1.268 . S
C228 O234 1.268 . S
C228 O236 1.268 . S
C229 O235 1.268 . S
C229 O238 1.268 1_554 S
O230 Sc220 2.105 1_556 S
O230 C224 1.268 . S
O231 Sc221 2.105 . S
O231 C225 1.268 . S
O232 Sc222 2.105 . S
O232 C226 1.268 1_556 S
O233 Sc220 2.105 . S
O233 C227 1.268 . S
O234 Sc222 2.105 . S
O234 C228 1.268 . S
O235 Sc221 2.105 . S
O235 C229 1.268 . S
O236 Sc220 2.105 1_556 S
O236 C228 1.268 . S
O237 Sc221 2.105 . S
O237 C227 1.268 . S
O238 Sc222 2.105 . S
O238 C229 1.268 1_556 S
O239 Sc220 2.105 . S
O239 C225 1.268 . S
O240 Sc222 2.105 . S
O240 C224 1.268 . S
O241 Sc221 2.105 . S
O241 C226 1.268 . S
Sc242 O245 2.025 . S
Sc242 O252 2.105 . S
Sc242 O255 2.105 . S
Sc242 O258 2.105 . S
Sc242 O261 2.105 . S
Sc243 O245 2.025 1_556 S
Sc243 O253 2.105 . S
Sc243 O257 2.105 . S
Sc243 O259 2.105 . S
Sc243 O263 2.105 . S
Sc244 O245 2.025 . S
Sc244 O254 2.105 1_554 S
Sc244 O256 2.105 . S
Sc244 O260 2.105 1_554 S
Sc244 O262 2.105 . S
O245 Sc242 2.025 . S
O245 Sc243 2.025 1_554 S
O245 Sc244 2.025 . S
C246 O252 1.268 . S
C246 O262 1.268 . S
C247 O253 1.268 1_554 S
C247 O261 1.268 . S
C248 O254 1.268 . S
C248 O263 1.268 . S
C249 O255 1.268 . S
C249 O259 1.268 1_554 S
C250 O256 1.268 . S
C250 O258 1.268 . S
C251 O257 1.268 . S
C251 O260 1.268 . S
O252 Sc242 2.105 . S
O252 C246 1.268 . S
O253 Sc243 2.105 . S
O253 C247 1.268 1_556 S
O254 Sc244 2.105 1_556 S
O254 C248 1.268 . S
O255 Sc242 2.105 . S
O255 C249 1.268 . S
O256 Sc244 2.105 . S
O256 C250 1.268 . S
O257 Sc243 2.105 . S
O257 C251 1.268 . S
O258 Sc242 2.105 . S
O258 C250 1.268 . S
O259 Sc243 2.105 . S
O259 C249 1.268 1_556 S
O260 Sc244 2.105 1_556 S
O260 C251 1.268 . S
O261 Sc242 2.105 . S
O261 C247 1.268 . S
O262 Sc244 2.105 . S
O262 C246 1.268 . S
O263 Sc243 2.105 . S
O263 C248 1.268 . S
Sc264 O267 2.025 . S
Sc264 O274 2.105 . S
Sc264 O277 2.105 . S
Sc264 O280 2.105 . S
Sc264 O283 2.105 . S
Sc265 O267 2.025 . S
Sc265 O275 2.105 . S
Sc265 O279 2.105 . S
Sc265 O281 2.105 . S
Sc265 O285 2.105 . S
Sc266 O267 2.025 . S
Sc266 O276 2.105 . S
Sc266 O278 2.105 . S
Sc266 O282 2.105 . S
Sc266 O284 2.105 . S
O267 Sc264 2.025 . S
O267 Sc265 2.025 . S
O267 Sc266 2.025 . S
C268 O274 1.268 . S
C268 O284 1.268 . S
C269 O275 1.268 . S
C269 O283 1.268 . S
C270 O276 1.268 . S
C270 O285 1.268 . S
C271 O277 1.268 . S
C271 O281 1.268 . S
C272 O278 1.268 . S
C272 O280 1.268 . S
C273 O279 1.268 . S
C273 O282 1.268 . S
O274 Sc264 2.105 . S
O274 C268 1.268 . S
O275 Sc265 2.105 . S
O275 C269 1.268 . S
O276 Sc266 2.105 . S
O276 C270 1.268 . S
O277 Sc264 2.105 . S
O277 C271 1.268 . S
O278 Sc266 2.105 . S
O278 C272 1.268 . S
O279 Sc265 2.105 . S
O279 C273 1.268 . S
O280 Sc264 2.105 . S
O280 C272 1.268 . S
O281 Sc265 2.105 . S
O281 C271 1.268 . S
O282 Sc266 2.105 . S
O282 C273 1.268 . S
O283 Sc264 2.105 . S
O283 C269 1.268 . S
O284 Sc266 2.105 . S
O284 C268 1.268 . S
O285 Sc265 2.105 . S
O285 C270 1.268 . S
Sc286 O289 2.025 . S
Sc286 O296 2.105 . S
Sc286 O299 2.105 . S
Sc286 O302 2.105 . S
Sc286 O305 2.105 . S
Sc287 O289 2.025 . S
Sc287 O297 2.105 . S
Sc287 O301 2.105 . S
Sc287 O303 2.105 . S
Sc287 O307 2.105 . S
Sc288 O289 2.025 . S
Sc288 O298 2.105 . S
Sc288 O300 2.105 . S
Sc288 O304 2.105 . S
Sc288 O306 2.105 . S
O289 Sc286 2.025 . S
O289 Sc287 2.025 . S
O289 Sc288 2.025 . S
C290 O296 1.268 . S
C290 O306 1.268 . S
C291 O297 1.268 . S
C291 O305 1.268 . S
C292 O298 1.268 . S
C292 O307 1.268 . S
C293 O299 1.268 . S
C293 O303 1.268 . S
C294 O300 1.268 . S
C294 O302 1.268 . S
C295 O301 1.268 . S
C295 O304 1.268 . S
O296 Sc286 2.105 . S
O296 C290 1.268 . S
O297 Sc287 2.105 . S
O297 C291 1.268 . S
O298 Sc288 2.105 . S
O298 C292 1.268 . S
O299 Sc286 2.105 . S
O299 C293 1.268 . S
O300 Sc288 2.105 . S
O300 C294 1.268 . S
O301 Sc287 2.105 . S
O301 C295 1.268 . S
O302 Sc286 2.105 . S
O302 C294 1.268 . S
O303 Sc287 2.105 . S
O303 C293 1.268 . S
O304 Sc288 2.105 . S
O304 C295 1.268 . S
O305 Sc286 2.105 . S
O305 C291 1.268 . S
O306 Sc288 2.105 . S
O306 C290 1.268 . S
O307 Sc287 2.105 . S
O307 C292 1.268 . S
Sc308 O311 2.025 . S
Sc308 O318 2.105 . S
Sc308 O321 2.105 . S
Sc308 O324 2.105 . S
Sc308 O327 2.105 . S
Sc309 O311 2.025 . S
Sc309 O319 2.105 . S
Sc309 O323 2.105 . S
Sc309 O325 2.105 . S
Sc309 O329 2.105 . S
Sc310 O311 2.025 . S
Sc310 O320 2.105 . S
Sc310 O322 2.105 . S
Sc310 O326 2.105 . S
Sc310 O328 2.105 . S
O311 Sc308 2.025 . S
O311 Sc309 2.025 . S
O311 Sc310 2.025 . S
C312 O318 1.268 . S
C312 O328 1.268 . S
C313 O319 1.268 . S
C313 O327 1.268 . S
C314 O320 1.268 . S
C314 O329 1.268 . S
C315 O321 1.268 . S
C315 O325 1.268 . S
C316 O322 1.268 . S
C316 O324 1.268 . S
C317 O323 1.268 . S
C317 O326 1.268 . S
O318 Sc308 2.105 . S
O318 C312 1.268 . S
O319 Sc309 2.105 . S
O319 C313 1.268 . S
O320 Sc310 2.105 . S
O320 C314 1.268 . S
O321 Sc308 2.105 . S
O321 C315 1.268 . S
O322 Sc310 2.105 . S
O322 C316 1.268 . S
O323 Sc309 2.105 . S
O323 C317 1.268 . S
O324 Sc308 2.105 . S
O324 C316 1.268 . S
O325 Sc309 2.105 . S
O325 C315 1.268 . S
O326 Sc310 2.105 . S
O326 C317 1.268 . S
O327 Sc308 2.105 . S
O327 C313 1.268 . S
O328 Sc310 2.105 . S
O328 C312 1.268 . S
O329 Sc309 2.105 . S
O329 C314 1.268 . S
Sc330 O333 2.025 . S
Sc330 O340 2.105 . S
Sc330 O343 2.105 . S
Sc330 O346 2.105 . S
Sc330 O349 2.105 . S
Sc331 O333 2.025 . S
Sc331 O341 2.105 . S
Sc331 O345 2.105 . S
Sc331 O347 2.105 . S
Sc331 O351 2.105 . S
Sc332 O333 2.025 . S
Sc332 O342 2.105 . S
Sc332 O344 2.105 . S
Sc332 O348 2.105 . S
Sc332 O350 2.105 . S
O333 Sc330 2.025 . S
O333 Sc331 2.025 . S
O333 Sc332 2.025 . S
C334 O340 1.268 . S
C334 O350 1.268 . S
C335 O341 1.268 . S
C335 O349 1.268 . S
C336 O342 1.268 . S
C336 O351 1.268 . S
C337 O343 1.268 . S
C337 O347 1.268 . S
C338 O344 1.268 . S
C338 O346 1.268 . S
C339 O345 1.268 . S
C339 O348 1.268 . S
O340 Sc330 2.105 . S
O340 C334 1.268 . S
O341 Sc331 2.105 . S
O341 C335 1.268 . S
O342 Sc332 2.105 . S
O342 C336 1.268 . S
O343 Sc330 2.105 . S
O343 C337 1.268 . S
O344 Sc332 2.105 . S
O344 C338 1.268 . S
O345 Sc331 2.105 . S
O345 C339 1.268 . S
O346 Sc330 2.105 . S
O346 C338 1.268 . S
O347 Sc331 2.105 . S
O347 C337 1.268 . S
O348 Sc332 2.105 . S
O348 C339 1.268 . S
O349 Sc330 2.105 . S
O349 C335 1.268 . S
O350 Sc332 2.105 . S
O350 C334 1.268 . S
O351 Sc331 2.105 . S
O351 C336 1.268 . S
Sc352 O355 2.025 . S
Sc352 O362 2.105 . S
Sc352 O365 2.105 . S
Sc352 O368 2.105 . S
Sc352 O371 2.105 . S
Sc353 O355 2.025 . S
Sc353 O363 2.105 . S
Sc353 O367 2.105 . S
Sc353 O369 2.105 . S
Sc353 O373 2.105 . S
Sc354 O355 2.025 . S
Sc354 O364 2.105 . S
Sc354 O366 2.105 . S
Sc354 O370 2.105 . S
Sc354 O372 2.105 . S
O355 Sc352 2.025 . S
O355 Sc353 2.025 . S
O355 Sc354 2.025 . S
C356 O362 1.268 . S
C356 O372 1.268 . S
C357 O363 1.268 . S
C357 O371 1.268 . S
C358 O364 1.268 . S
C358 O373 1.268 . S
C359 O365 1.268 . S
C359 O369 1.268 . S
C360 O366 1.268 . S
C360 O368 1.268 . S
C361 O367 1.268 . S
C361 O370 1.268 . S
O362 Sc352 2.105 . S
O362 C356 1.268 . S
O363 Sc353 2.105 . S
O363 C357 1.268 . S
O364 Sc354 2.105 . S
O364 C358 1.268 . S
O365 Sc352 2.105 . S
O365 C359 1.268 . S
O366 Sc354 2.105 . S
O366 C360 1.268 . S
O367 Sc353 2.105 . S
O367 C361 1.268 . S
O368 Sc352 2.105 . S
O368 C360 1.268 . S
O369 Sc353 2.105 . S
O369 C359 1.268 . S
O370 Sc354 2.105 . S
O370 C361 1.268 . S
O371 Sc352 2.105 . S
O371 C357 1.268 . S
O372 Sc354 2.105 . S
O372 C356 1.268 . S
O373 Sc353 2.105 . S
O373 C358 1.268 . S
Sc374 O377 2.025 . S
Sc374 O384 2.105 . S
Sc374 O387 2.105 . S
Sc374 O390 2.105 . S
Sc374 O393 2.105 . S
Sc375 O377 2.025 . S
Sc375 O385 2.105 . S
Sc375 O389 2.105 . S
Sc375 O391 2.105 . S
Sc375 O395 2.105 . S
Sc376 O377 2.025 . S
Sc376 O386 2.105 . S
Sc376 O388 2.105 . S
Sc376 O392 2.105 . S
Sc376 O394 2.105 . S
O377 Sc374 2.025 . S
O377 Sc375 2.025 . S
O377 Sc376 2.025 . S
C378 O384 1.268 . S
C378 O394 1.268 . S
C379 O385 1.268 . S
C379 O393 1.268 . S
C380 O386 1.268 . S
C380 O395 1.268 . S
C381 O387 1.268 . S
C381 O391 1.268 . S
C382 O388 1.268 . S
C382 O390 1.268 . S
C383 O389 1.268 . S
C383 O392 1.268 . S
O384 Sc374 2.105 . S
O384 C378 1.268 . S
O385 Sc375 2.105 . S
O385 C379 1.268 . S
O386 Sc376 2.105 . S
O386 C380 1.268 . S
O387 Sc374 2.105 . S
O387 C381 1.268 . S
O388 Sc376 2.105 . S
O388 C382 1.268 . S
O389 Sc375 2.105 . S
O389 C383 1.268 . S
O390 Sc374 2.105 . S
O390 C382 1.268 . S
O391 Sc375 2.105 . S
O391 C381 1.268 . S
O392 Sc376 2.105 . S
O392 C383 1.268 . S
O393 Sc374 2.105 . S
O393 C379 1.268 . S
O394 Sc376 2.105 . S
O394 C378 1.268 . S
O395 Sc375 2.105 . S
O395 C380 1.268 . S
Sc396 O399 2.025 . S
Sc396 O406 2.105 . S
Sc396 O409 2.105 . S
Sc396 O412 2.105 . S
Sc396 O415 2.105 . S
Sc397 O399 2.025 . S
Sc397 O407 2.105 . S
Sc397 O411 2.105 . S
Sc397 O413 2.105 . S
Sc397 O417 2.105 . S
Sc398 O399 2.025 . S
Sc398 O408 2.105 . S
Sc398 O410 2.105 . S
Sc398 O414 2.105 . S
Sc398 O416 2.105 . S
O399 Sc396 2.025 . S
O399 Sc397 2.025 . S
O399 Sc398 2.025 . S
C400 O406 1.268 . S
C400 O416 1.268 . S
C401 O407 1.268 . S
C401 O415 1.268 . S
C402 O408 1.268 . S
C402 O417 1.268 . S
C403 O409 1.268 . S
C403 O413 1.268 . S
C404 O410 1.268 . S
C404 O412 1.268 . S
C405 O411 1.268 . S
C405 O414 1.268 . S
O406 Sc396 2.105 . S
O406 C400 1.268 . S
O407 Sc397 2.105 . S
O407 C401 1.268 . S
O408 Sc398 2.105 . S
O408 C402 1.268 . S
O409 Sc396 2.105 . S
O409 C403 1.268 . S
O410 Sc398 2.105 . S
O410 C404 1.268 . S
O411 Sc397 2.105 . S
O411 C405 1.268 . S
O412 Sc396 2.105 . S
O412 C404 1.268 . S
O413 Sc397 2.105 . S
O413 C403 1.268 . S
O414 Sc398 2.105 . S
O414 C405 1.268 . S
O415 Sc396 2.105 . S
O415 C401 1.268 . S
O416 Sc398 2.105 . S
O416 C400 1.268 . S
O417 Sc397 2.105 . S
O417 C402 1.268 . S
Sc418 O421 2.025 . S
Sc418 O428 2.105 . S
Sc418 O431 2.105 . S
Sc418 O434 2.105 . S
Sc418 O437 2.105 . S
Sc419 O421 2.025 . S
Sc419 O429 2.105 . S
Sc419 O433 2.105 . S
Sc419 O435 2.105 . S
Sc419 O439 2.105 . S
Sc420 O421 2.025 . S
Sc420 O430 2.105 . S
Sc420 O432 2.105 . S
Sc420 O436 2.105 . S
Sc420 O438 2.105 . S
O421 Sc418 2.025 . S
O421 Sc419 2.025 . S
O421 Sc420 2.025 . S
C422 O428 1.268 . S
C422 O438 1.268 . S
C423 O429 1.268 . S
C423 O437 1.268 . S
C424 O430 1.268 . S
C424 O439 1.268 . S
C425 O431 1.268 . S
C425 O435 1.268 . S
C426 O432 1.268 . S
C426 O434 1.268 . S
C427 O433 1.268 . S
C427 O436 1.268 . S
O428 Sc418 2.105 . S
O428 C422 1.268 . S
O429 Sc419 2.105 . S
O429 C423 1.268 . S
O430 Sc420 2.105 . S
O430 C424 1.268 . S
O431 Sc418 2.105 . S
O431 C425 1.268 . S
O432 Sc420 2.105 . S
O432 C426 1.268 . S
O433 Sc419 2.105 . S
O433 C427 1.268 . S
O434 Sc418 2.105 . S
O434 C426 1.268 . S
O435 Sc419 2.105 . S
O435 C425 1.268 . S
O436 Sc420 2.105 . S
O436 C427 1.268 . S
O437 Sc418 2.105 . S
O437 C423 1.268 . S
O438 Sc420 2.105 . S
O438 C422 1.268 . S
O439 Sc419 2.105 . S
O439 C424 1.268 . S
Sc440 O443 2.025 . S
Sc440 O450 2.105 . S
Sc440 O453 2.105 . S
Sc440 O456 2.105 . S
Sc440 O459 2.105 . S
Sc441 O443 2.025 . S
Sc441 O451 2.105 . S
Sc441 O455 2.105 . S
Sc441 O457 2.105 . S
Sc441 O461 2.105 . S
Sc442 O443 2.025 . S
Sc442 O452 2.105 . S
Sc442 O454 2.105 . S
Sc442 O458 2.105 . S
Sc442 O460 2.105 . S
O443 Sc440 2.025 . S
O443 Sc441 2.025 . S
O443 Sc442 2.025 . S
C444 O450 1.268 . S
C444 O460 1.268 . S
C445 O451 1.268 . S
C445 O459 1.268 . S
C446 O452 1.268 . S
C446 O461 1.268 . S
C447 O453 1.268 . S
C447 O457 1.268 . S
C448 O454 1.268 . S
C448 O456 1.268 . S
C449 O455 1.268 . S
C449 O458 1.268 . S
O450 Sc440 2.105 . S
O450 C444 1.268 . S
O451 Sc441 2.105 . S
O451 C445 1.268 . S
O452 Sc442 2.105 . S
O452 C446 1.268 . S
O453 Sc440 2.105 . S
O453 C447 1.268 . S
O454 Sc442 2.105 . S
O454 C448 1.268 . S
O455 Sc441 2.105 . S
O455 C449 1.268 . S
O456 Sc440 2.105 . S
O456 C448 1.268 . S
O457 Sc441 2.105 . S
O457 C447 1.268 . S
O458 Sc442 2.105 . S
O458 C449 1.268 . S
O459 Sc440 2.105 . S
O459 C445 1.268 . S
O460 Sc442 2.105 . S
O460 C444 1.268 . S
O461 Sc441 2.105 . S
O461 C446 1.268 . S
Sc462 O465 2.025 . S
Sc462 O472 2.105 . S
Sc462 O475 2.105 . S
Sc462 O478 2.105 . S
Sc462 O481 2.105 . S
Sc463 O465 2.025 . S
Sc463 O473 2.105 . S
Sc463 O477 2.105 . S
Sc463 O479 2.105 . S
Sc463 O483 2.105 . S
Sc464 O465 2.025 . S
Sc464 O474 2.105 . S
Sc464 O476 2.105 . S
Sc464 O480 2.105 . S
Sc464 O482 2.105 . S
O465 Sc462 2.025 . S
O465 Sc463 2.025 . S
O465 Sc464 2.025 . S
C466 O472 1.268 . S
C466 O482 1.268 . S
C467 O473 1.268 . S
C467 O481 1.268 . S
C468 O474 1.268 . S
C468 O483 1.268 . S
C469 O475 1.268 . S
C469 O479 1.268 . S
C470 O476 1.268 . S
C470 O478 1.268 . S
C471 O477 1.268 . S
C471 O480 1.268 . S
O472 Sc462 2.105 . S
O472 C466 1.268 . S
O473 Sc463 2.105 . S
O473 C467 1.268 . S
O474 Sc464 2.105 . S
O474 C468 1.268 . S
O475 Sc462 2.105 . S
O475 C469 1.268 . S
O476 Sc464 2.105 . S
O476 C470 1.268 . S
O477 Sc463 2.105 . S
O477 C471 1.268 . S
O478 Sc462 2.105 . S
O478 C470 1.268 . S
O479 Sc463 2.105 . S
O479 C469 1.268 . S
O480 Sc464 2.105 . S
O480 C471 1.268 . S
O481 Sc462 2.105 . S
O481 C467 1.268 . S
O482 Sc464 2.105 . S
O482 C466 1.268 . S
O483 Sc463 2.105 . S
O483 C468 1.268 . S
Sc484 O487 2.025 . S
Sc484 O494 2.105 . S
Sc484 O497 2.105 . S
Sc484 O500 2.105 . S
Sc484 O503 2.105 . S
Sc485 O487 2.025 . S
Sc485 O495 2.105 . S
Sc485 O499 2.105 . S
Sc485 O501 2.105 . S
Sc485 O505 2.105 . S
Sc486 O487 2.025 . S
Sc486 O496 2.105 . S
Sc486 O498 2.105 . S
Sc486 O502 2.105 . S
Sc486 O504 2.105 . S
O487 Sc484 2.025 . S
O487 Sc485 2.025 . S
O487 Sc486 2.025 . S
C488 O494 1.268 . S
C488 O504 1.268 . S
C489 O495 1.268 . S
C489 O503 1.268 . S
C490 O496 1.268 . S
C490 O505 1.268 . S
C491 O497 1.268 . S
C491 O501 1.268 . S
C492 O498 1.268 . S
C492 O500 1.268 . S
C493 O499 1.268 . S
C493 O502 1.268 . S
O494 Sc484 2.105 . S
O494 C488 1.268 . S
O495 Sc485 2.105 . S
O495 C489 1.268 . S
O496 Sc486 2.105 . S
O496 C490 1.268 . S
O497 Sc484 2.105 . S
O497 C491 1.268 . S
O498 Sc486 2.105 . S
O498 C492 1.268 . S
O499 Sc485 2.105 . S
O499 C493 1.268 . S
O500 Sc484 2.105 . S
O500 C492 1.268 . S
O501 Sc485 2.105 . S
O501 C491 1.268 . S
O502 Sc486 2.105 . S
O502 C493 1.268 . S
O503 Sc484 2.105 . S
O503 C489 1.268 . S
O504 Sc486 2.105 . S
O504 C488 1.268 . S
O505 Sc485 2.105 . S
O505 C490 1.268 . S
Sc506 O509 2.025 . S
Sc506 O516 2.105 . S
Sc506 O519 2.105 . S
Sc506 O522 2.105 . S
Sc506 O525 2.105 . S
Sc507 O509 2.025 . S
Sc507 O517 2.105 . S
Sc507 O521 2.105 . S
Sc507 O523 2.105 . S
Sc507 O527 2.105 . S
Sc508 O509 2.025 . S
Sc508 O518 2.105 . S
Sc508 O520 2.105 . S
Sc508 O524 2.105 . S
Sc508 O526 2.105 . S
O509 Sc506 2.025 . S
O509 Sc507 2.025 . S
O509 Sc508 2.025 . S
C510 O516 1.268 . S
C510 O526 1.268 . S
C511 O517 1.268 . S
C511 O525 1.268 . S
C512 O518 1.268 . S
C512 O527 1.268 . S
C513 O519 1.268 . S
C513 O523 1.268 . S
C514 O520 1.268 . S
C514 O522 1.268 . S
C515 O521 1.268 . S
C515 O524 1.268 . S
O516 Sc506 2.105 . S
O516 C510 1.268 . S
O517 Sc507 2.105 . S
O517 C511 1.268 . S
O518 Sc508 2.105 . S
O518 C512 1.268 . S
O519 Sc506 2.105 . S
O519 C513 1.268 . S
O520 Sc508 2.105 . S
O520 C514 1.268 . S
O521 Sc507 2.105 . S
O521 C515 1.268 . S
O522 Sc506 2.105 . S
O522 C514 1.268 . S
O523 Sc507 2.105 . S
O523 C513 1.268 . S
O524 Sc508 2.105 . S
O524 C515 1.268 . S
O525 Sc506 2.105 . S
O525 C511 1.268 . S
O526 Sc508 2.105 . S
O526 C510 1.268 . S
O527 Sc507 2.105 . S
O527 C512 1.268 . S
H528 C546 0.951 . S
H529 C548 0.951 . S
H530 C550 0.950 . S
H531 C551 0.950 . S
H532 C553 0.950 . S
H533 C556 0.950 . S
H534 C557 0.950 . S
H535 C559 0.950 . S
H536 C560 0.950 . S
H537 C561 0.951 . S
H538 C563 0.951 . S
H539 C565 0.950 . S
H540 C566 0.950 . S
H541 C568 0.950 . S
H542 C571 0.950 . S
H543 C572 0.950 . S
H544 C574 0.950 . S
H545 C575 0.950 . S
C546 H528 0.951 . S
C546 C547 1.365 1_655 S
C546 C548 1.388 . S
C547 C546 1.365 1_455 S
C547 C551 1.386 . S
C548 H529 0.951 . S
C548 C546 1.388 . S
C548 C549 1.379 . S
C549 C548 1.379 . S
C549 C550 1.401 1_655 S
C549 C552 1.498 1_655 S
C550 H530 0.950 . S
C550 C549 1.401 1_455 S
C550 C551 1.374 . S
C551 H531 0.950 . S
C551 C547 1.386 . S
C551 C550 1.374 . S
C552 C549 1.498 1_455 S
C552 C553 1.376 . S
C552 C554 1.387 1_455 S
C553 H532 0.950 . S
C553 C552 1.376 . S
C553 C569 1.377 . S
C554 C552 1.387 1_655 S
C554 C555 1.524 . S
C554 C568 1.377 . S
C555 C554 1.524 . S
C555 C556 1.397 . S
C555 C560 1.363 . S
C556 H533 0.950 . S
C556 C555 1.397 . S
C556 C557 1.334 . S
C557 H534 0.950 . S
C557 C556 1.334 . S
C557 C558 1.287 . S
C558 C557 1.287 . S
C558 C559 1.524 . S
C558 H577 0.913 . S
C559 H535 0.950 . S
C559 C558 1.524 . S
C559 C560 1.415 . S
C560 H536 0.950 . S
C560 C555 1.363 . S
C560 C559 1.415 . S
C561 H537 0.951 . S
C561 C562 1.365 . S
C561 C563 1.388 . S
C562 C561 1.365 . S
C562 C566 1.386 1_455 S
C563 H538 0.951 . S
C563 C561 1.388 . S
C563 C564 1.388 . S
C564 C563 1.388 . S
C564 C565 1.391 1_455 S
C564 C567 1.498 . S
C565 H539 0.950 . S
C565 C564 1.391 1_655 S
C565 C566 1.374 . S
C566 H540 0.950 . S
C566 C562 1.386 1_655 S
C566 C565 1.374 . S
C567 C564 1.498 . S
C567 C568 1.376 1_455 S
C567 C569 1.387 . S
C568 H541 0.950 . S
C568 C554 1.377 . S
C568 C567 1.376 1_655 S
C569 C553 1.377 . S
C569 C567 1.387 . S
C569 C570 1.524 . S
C570 C569 1.524 . S
C570 C571 1.397 . S
C570 C575 1.363 . S
C571 H542 0.950 . S
C571 C570 1.397 . S
C571 C572 1.334 . S
C572 H543 0.950 . S
C572 C571 1.334 . S
C572 C573 1.287 . S
C573 C572 1.287 . S
C573 C574 1.524 . S
C573 H576 0.999 . S
C574 H544 0.950 . S
C574 C573 1.524 . S
C574 C575 1.415 . S
C575 H545 0.950 . S
C575 C570 1.363 . S
C575 C574 1.415 . S
H576 C573 0.999 . S
H577 C558 0.913 . S
H578 C596 0.951 . S
H579 C598 0.951 . S
H580 C600 0.950 . S
H581 C601 0.950 . S
H582 C603 0.950 . S
H583 C606 0.950 . S
H584 C607 0.950 . S
H585 C609 0.950 . S
H586 C610 0.950 . S
H587 C611 0.951 . S
H588 C613 0.951 . S
H589 C615 0.950 . S
H590 C616 0.950 . S
H591 C618 0.950 . S
H592 C621 0.950 . S
H593 C622 0.950 . S
H594 C624 0.950 . S
H595 C625 0.950 . S
C596 H578 0.951 . S
C596 C597 1.366 . S
C596 C598 1.388 . S
C597 C596 1.366 . S
C597 C601 1.384 1_545 S
C598 H579 0.951 . S
C598 C596 1.388 . S
C598 C599 1.342 1_545 S
C599 C598 1.342 1_565 S
C599 C600 1.437 . S
C599 C602 1.500 . S
C600 H580 0.950 . S
C600 C599 1.437 . S
C600 C601 1.374 . S
C601 H581 0.950 . S
C601 C597 1.384 1_565 S
C601 C600 1.374 . S
C602 C599 1.500 . S
C602 C603 1.373 . S
C602 C604 1.389 1_565 S
C603 H582 0.950 . S
C603 C602 1.373 . S
C603 C619 1.376 . S
C604 C602 1.389 1_545 S
C604 C605 1.524 1_545 S
C604 C618 1.377 . S
C605 C604 1.524 1_565 S
C605 C606 1.397 . S
C605 C610 1.363 1_565 S
C606 H583 0.950 . S
C606 C605 1.397 . S
C606 C607 1.334 . S
C607 H584 0.950 . S
C607 C606 1.334 . S
C607 C608 1.287 . S
C608 C607 1.287 . S
C608 C609 1.524 1_565 S
C608 H627 0.913 . S
C609 H585 0.950 . S
C609 C608 1.524 1_545 S
C609 C610 1.415 . S
C610 H586 0.950 . S
C610 C605 1.363 1_545 S
C610 C609 1.415 . S
C611 H587 0.951 . S
C611 C612 1.366 1_565 S
C611 C613 1.388 . S
C612 C611 1.366 1_545 S
C612 C616 1.384 . S
C613 H588 0.951 . S
C613 C611 1.388 . S
C613 C614 1.334 1_565 S
C614 C613 1.334 1_545 S
C614 C615 1.445 . S
C614 C617 1.501 . S
C615 H589 0.950 . S
C615 C614 1.445 . S
C615 C616 1.374 . S
C616 H590 0.950 . S
C616 C612 1.384 . S
C616 C615 1.374 . S
C617 C614 1.501 . S
C617 C618 1.373 . S
C617 C619 1.390 1_545 S
C618 H591 0.950 . S
C618 C604 1.377 . S
C618 C617 1.373 . S
C619 C603 1.376 . S
C619 C617 1.390 1_565 S
C619 C620 1.525 1_565 S
C620 C619 1.525 1_545 S
C620 C621 1.397 . S
C620 C625 1.363 1_545 S
C621 H592 0.950 . S
C621 C620 1.397 . S
C621 C622 1.334 . S
C622 H593 0.950 . S
C622 C621 1.334 . S
C622 C623 1.287 . S
C623 C622 1.287 . S
C623 C624 1.524 1_545 S
C623 H626 0.999 . S
C624 H594 0.950 . S
C624 C623 1.524 1_565 S
C624 C625 1.415 . S
C625 H595 0.950 . S
C625 C620 1.363 1_565 S
C625 C624 1.415 . S
H626 C623 0.999 . S
H627 C608 0.913 . S
H628 C646 0.951 . S
H629 C648 0.951 . S
H630 C650 0.950 . S
H631 C651 0.950 . S
H632 C653 0.950 . S
H633 C656 0.950 . S
H634 C657 0.950 . S
H635 C659 0.950 . S
H636 C660 0.950 . S
H637 C661 0.951 . S
H638 C663 0.951 . S
H639 C665 0.950 . S
H640 C666 0.950 . S
H641 C668 0.950 . S
H642 C671 0.950 . S
H643 C672 0.950 . S
H644 C674 0.950 . S
H645 C675 0.950 . S
C646 H628 0.951 . S
C646 C647 1.365 1_655 S
C646 C648 1.388 . S
C647 C646 1.365 1_455 S
C647 C651 1.386 . S
C648 H629 0.951 . S
C648 C646 1.388 . S
C648 C649 1.381 . S
C649 C648 1.381 . S
C649 C650 1.398 1_655 S
C649 C652 1.498 1_655 S
C650 H630 0.950 . S
C650 C649 1.398 1_455 S
C650 C651 1.374 . S
C651 H631 0.950 . S
C651 C647 1.386 . S
C651 C650 1.374 . S
C652 C649 1.498 1_455 S
C652 C653 1.371 . S
C652 C654 1.391 1_455 S
C653 H632 0.950 . S
C653 C652 1.371 . S
C653 C669 1.377 . S
C654 C652 1.391 1_655 S
C654 C655 1.524 . S
C654 C668 1.377 . S
C655 C654 1.524 . S
C655 C656 1.397 . S
C655 C660 1.363 . S
C656 H633 0.950 . S
C656 C655 1.397 . S
C656 C657 1.334 . S
C657 H634 0.950 . S
C657 C656 1.334 . S
C657 C658 1.287 . S
C658 C657 1.287 . S
C658 C659 1.524 . S
C658 H677 0.913 . S
C659 H635 0.950 . S
C659 C658 1.524 . S
C659 C660 1.415 . S
C660 H636 0.950 . S
C660 C655 1.363 . S
C660 C659 1.415 . S
C661 H637 0.951 . S
C661 C662 1.365 . S
C661 C663 1.388 . S
C662 C661 1.365 . S
C662 C666 1.386 1_455 S
C663 H638 0.951 . S
C663 C661 1.388 . S
C663 C664 1.390 . S
C664 C663 1.390 . S
C664 C665 1.389 1_455 S
C664 C667 1.498 . S
C665 H639 0.950 . S
C665 C664 1.389 1_655 S
C665 C666 1.374 . S
C666 H640 0.950 . S
C666 C662 1.386 1_655 S
C666 C665 1.374 . S
C667 C664 1.498 . S
C667 C668 1.371 1_455 S
C667 C669 1.391 . S
C668 H641 0.950 . S
C668 C654 1.377 . S
C668 C667 1.371 1_655 S
C669 C653 1.377 . S
C669 C667 1.391 . S
C669 C670 1.524 . S
C670 C669 1.524 . S
C670 C671 1.397 . S
C670 C675 1.363 . S
C671 H642 0.950 . S
C671 C670 1.397 . S
C671 C672 1.334 . S
C672 H643 0.950 . S
C672 C671 1.334 . S
C672 C673 1.287 . S
C673 C672 1.287 . S
C673 C674 1.524 . S
C673 H676 0.999 . S
C674 H644 0.950 . S
C674 C673 1.524 . S
C674 C675 1.415 . S
C675 H645 0.950 . S
C675 C670 1.363 . S
C675 C674 1.415 . S
H676 C673 0.999 . S
H677 C658 0.913 . S
H678 C696 0.950 . S
H679 C698 0.951 1_545 S
H680 C700 0.950 . S
H681 C701 0.950 . S
H682 C703 0.950 . S
H683 C706 0.950 . S
H684 C707 0.950 . S
H685 C709 0.950 . S
H686 C710 0.950 . S
H687 C711 0.950 . S
H688 C713 0.951 . S
H689 C715 0.950 . S
H690 C716 0.952 . S
H691 C718 0.950 . S
H692 C721 0.950 . S
H693 C722 0.950 . S
H694 C724 0.950 . S
H695 C725 0.950 . S
C696 H678 0.950 . S
C696 C697 1.366 . S
C696 C698 1.387 1_545 S
C697 C696 1.366 . S
C697 C701 1.384 1_545 S
C698 H679 0.951 1_565 S
C698 C696 1.387 1_565 S
C698 C699 1.366 . S
C699 C698 1.366 . S
C699 C700 1.415 . S
C699 C702 1.499 . S
C700 H680 0.950 . S
C700 C699 1.415 . S
C700 C701 1.374 . S
C701 H681 0.950 . S
C701 C697 1.384 1_565 S
C701 C700 1.374 . S
C702 C699 1.499 . S
C702 C703 1.373 1_565 S
C702 C704 1.389 . S
C703 H682 0.950 . S
C703 C702 1.373 1_545 S
C703 C719 1.377 . S
C704 C702 1.389 . S
C704 C705 1.524 . S
C704 C718 1.377 . S
C705 C704 1.524 . S
C705 C706 1.397 . S
C705 C710 1.363 . S
C706 H683 0.950 . S
C706 C705 1.397 . S
C706 C707 1.334 . S
C707 H684 0.950 . S
C707 C706 1.334 . S
C707 C708 1.287 . S
C708 C707 1.287 . S
C708 C709 1.524 . S
C708 H727 0.913 . S
C709 H685 0.950 . S
C709 C708 1.524 . S
C709 C710 1.415 . S
C710 H686 0.950 . S
C710 C705 1.363 . S
C710 C709 1.415 . S
C711 H687 0.950 . S
C711 C712 1.366 1_565 S
C711 C713 1.387 1_565 S
C712 C711 1.366 1_545 S
C712 C716 1.384 . S
C713 H688 0.951 . S
C713 C711 1.387 1_545 S
C713 C714 1.366 . S
C714 C713 1.366 . S
C714 C715 1.414 . S
C714 C717 1.499 . S
C715 H689 0.950 . S
C715 C714 1.414 . S
C715 C716 1.375 . S
C716 H690 0.952 . S
C716 C712 1.384 . S
C716 C715 1.375 . S
C717 C714 1.499 . S
C717 C718 1.373 1_545 S
C717 C719 1.389 . S
C718 H691 0.950 . S
C718 C704 1.377 . S
C718 C717 1.373 1_565 S
C719 C703 1.377 . S
C719 C717 1.389 . S
C719 C720 1.524 . S
C720 C719 1.524 . S
C720 C721 1.397 . S
C720 C725 1.363 . S
C721 H692 0.950 . S
C721 C720 1.397 . S
C721 C722 1.334 . S
C722 H693 0.950 . S
C722 C721 1.334 . S
C722 C723 1.287 . S
C723 C722 1.287 . S
C723 C724 1.524 . S
C723 H726 0.999 . S
C724 H694 0.950 . S
C724 C723 1.524 . S
C724 C725 1.415 . S
C725 H695 0.950 . S
C725 C720 1.363 . S
C725 C724 1.415 . S
H726 C723 0.999 . S
H727 C708 0.913 . S
H728 C746 0.951 . S
H729 C748 0.951 . S
H730 C750 0.953 . S
H731 C751 0.954 . S
H732 C753 0.950 . S
H733 C756 0.950 . S
H734 C757 0.950 . S
H735 C759 0.950 . S
H736 C760 0.950 . S
H737 C761 0.951 . S
H738 C763 0.951 . S
H739 C765 0.952 . S
H740 C766 0.953 . S
H741 C768 0.950 . S
H742 C771 0.950 . S
H743 C772 0.950 . S
H744 C774 0.950 . S
H745 C775 0.950 . S
C746 H728 0.951 . S
C746 C747 1.366 1_565 S
C746 C748 1.388 . S
C747 C746 1.366 1_545 S
C747 C751 1.384 . S
C748 H729 0.951 . S
C748 C746 1.388 . S
C748 C749 1.368 . S
C749 C748 1.368 . S
C749 C750 1.410 1_565 S
C749 C752 1.500 . S
C750 H730 0.953 . S
C750 C749 1.410 1_545 S
C750 C751 1.374 . S
C751 H731 0.954 . S
C751 C747 1.384 . S
C751 C750 1.374 . S
C752 C749 1.500 . S
C752 C753 1.373 1_565 S
C752 C754 1.389 . S
C753 H732 0.950 . S
C753 C752 1.373 1_545 S
C753 C769 1.377 . S
C754 C752 1.389 . S
C754 C755 1.524 . S
C754 C768 1.377 . S
C755 C754 1.524 . S
C755 C756 1.397 . S
C755 C760 1.363 . S
C756 H733 0.950 . S
C756 C755 1.397 . S
C756 C757 1.334 . S
C757 H734 0.950 . S
C757 C756 1.334 . S
C757 C758 1.287 . S
C758 C757 1.287 . S
C758 C759 1.524 . S
C758 H777 0.913 . S
C759 H735 0.950 . S
C759 C758 1.524 . S
C759 C760 1.415 . S
C760 H736 0.950 . S
C760 C755 1.363 . S
C760 C759 1.415 . S
C761 H737 0.951 . S
C761 C762 1.366 . S
C761 C763 1.388 . S
C762 C761 1.366 . S
C762 C766 1.384 1_545 S
C763 H738 0.951 . S
C763 C761 1.388 . S
C763 C764 1.366 . S
C764 C763 1.366 . S
C764 C765 1.412 1_545 S
C764 C767 1.499 . S
C765 H739 0.952 . S
C765 C764 1.412 1_565 S
C765 C766 1.374 . S
C766 H740 0.953 . S
C766 C762 1.384 1_565 S
C766 C765 1.374 . S
C767 C764 1.499 . S
C767 C768 1.373 1_545 S
C767 C769 1.389 . S
C768 H741 0.950 . S
C768 C754 1.377 . S
C768 C767 1.373 1_565 S
C769 C753 1.377 . S
C769 C767 1.389 . S
C769 C770 1.524 . S
C770 C769 1.524 . S
C770 C771 1.397 . S
C770 C775 1.363 . S
C771 H742 0.950 . S
C771 C770 1.397 . S
C771 C772 1.334 . S
C772 H743 0.950 . S
C772 C771 1.334 . S
C772 C773 1.287 . S
C773 C772 1.287 . S
C773 C774 1.524 . S
C773 H776 0.999 . S
C774 H744 0.950 . S
C774 C773 1.524 . S
C774 C775 1.415 . S
C775 H745 0.950 . S
C775 C770 1.363 . S
C775 C774 1.415 . S
H776 C773 0.999 . S
H777 C758 0.913 . S
H778 C796 0.951 . S
H779 C798 0.951 . S
H780 C800 0.950 . S
H781 C801 0.950 . S
H782 C803 0.950 . S
H783 C806 0.950 . S
H784 C807 0.950 . S
H785 C809 0.950 . S
H786 C810 0.950 . S
H787 C811 0.951 . S
H788 C813 0.951 . S
H789 C815 0.950 . S
H790 C816 0.950 . S
H791 C818 0.950 . S
H792 C821 0.950 . S
H793 C822 0.950 . S
H794 C824 0.950 . S
H795 C825 0.950 . S
C796 H778 0.951 . S
C796 C797 1.365 1_655 S
C796 C798 1.388 . S
C797 C796 1.365 1_455 S
C797 C801 1.386 . S
C798 H779 0.951 . S
C798 C796 1.388 . S
C798 C799 1.379 . S
C799 C798 1.379 . S
C799 C800 1.400 1_655 S
C799 C802 1.498 1_655 S
C800 H780 0.950 . S
C800 C799 1.400 1_455 S
C800 C801 1.374 . S
C801 H781 0.950 . S
C801 C797 1.386 . S
C801 C800 1.374 . S
C802 C799 1.498 1_455 S
C802 C803 1.374 . S
C802 C804 1.388 1_455 S
C803 H782 0.950 . S
C803 C802 1.374 . S
C803 C819 1.377 . S
C804 C802 1.388 1_655 S
C804 C805 1.524 . S
C804 C818 1.377 . S
C805 C804 1.524 . S
C805 C806 1.397 . S
C805 C810 1.363 . S
C806 H783 0.950 . S
C806 C805 1.397 . S
C806 C807 1.334 . S
C807 H784 0.950 . S
C807 C806 1.334 . S
C807 C808 1.287 . S
C808 C807 1.287 . S
C808 C809 1.524 . S
C808 H827 0.913 . S
C809 H785 0.950 . S
C809 C808 1.524 . S
C809 C810 1.415 . S
C810 H786 0.950 . S
C810 C805 1.363 . S
C810 C809 1.415 . S
C811 H787 0.951 . S
C811 C812 1.365 . S
C811 C813 1.388 . S
C812 C811 1.365 . S
C812 C816 1.386 1_455 S
C813 H788 0.951 . S
C813 C811 1.388 . S
C813 C814 1.389 . S
C814 C813 1.389 . S
C814 C815 1.390 1_455 S
C814 C817 1.498 . S
C815 H789 0.950 . S
C815 C814 1.390 1_655 S
C815 C816 1.374 . S
C816 H790 0.950 . S
C816 C812 1.386 1_655 S
C816 C815 1.374 . S
C817 C814 1.498 . S
C817 C818 1.374 1_455 S
C817 C819 1.388 . S
C818 H791 0.950 . S
C818 C804 1.377 . S
C818 C817 1.374 1_655 S
C819 C803 1.377 . S
C819 C817 1.388 . S
C819 C820 1.524 . S
C820 C819 1.524 . S
C820 C821 1.397 . S
C820 C825 1.363 . S
C821 H792 0.950 . S
C821 C820 1.397 . S
C821 C822 1.334 . S
C822 H793 0.950 . S
C822 C821 1.334 . S
C822 C823 1.287 . S
C823 C822 1.287 . S
C823 C824 1.524 . S
C823 H826 0.999 . S
C824 H794 0.950 . S
C824 C823 1.524 . S
C824 C825 1.415 . S
C825 H795 0.950 . S
C825 C820 1.363 . S
C825 C824 1.415 . S
H826 C823 0.999 . S
H827 C808 0.913 . S
H828 C846 0.951 . S
H829 C848 0.951 . S
H830 C850 0.950 . S
H831 C851 0.950 . S
H832 C853 0.952 . S
H833 C856 0.950 . S
H834 C857 0.950 . S
H835 C859 0.950 . S
H836 C860 0.950 . S
H837 C861 0.951 . S
H838 C863 0.951 . S
H839 C865 0.950 . S
H840 C866 0.950 . S
H841 C868 0.950 . S
H842 C871 0.950 . S
H843 C872 0.950 . S
H844 C874 0.950 . S
H845 C875 0.950 . S
C846 H828 0.951 . S
C846 C847 1.366 1_565 S
C846 C848 1.388 . S
C847 C846 1.366 1_545 S
C847 C851 1.384 . S
C848 H829 0.951 . S
C848 C846 1.388 . S
C848 C849 1.333 1_565 S
C849 C848 1.333 1_545 S
C849 C850 1.446 . S
C849 C852 1.501 . S
C850 H830 0.950 . S
C850 C849 1.446 . S
C850 C851 1.374 . S
C851 H831 0.950 . S
C851 C847 1.384 . S
C851 C850 1.374 . S
C852 C849 1.501 . S
C852 C853 1.375 . S
C852 C854 1.392 . S
C853 H832 0.952 . S
C853 C852 1.375 . S
C853 C869 1.373 1_545 S
C854 C852 1.392 . S
C854 C855 1.532 . S
C854 C868 1.373 1_545 S
C855 C854 1.532 . S
C855 C856 1.397 . S
C855 C860 1.363 1_545 S
C856 H833 0.950 . S
C856 C855 1.397 . S
C856 C857 1.334 . S
C857 H834 0.950 . S
C857 C856 1.334 . S
C857 C858 1.287 . S
C858 C857 1.287 . S
C858 C859 1.524 1_545 S
C858 H877 0.913 . S
C859 H835 0.950 . S
C859 C858 1.524 1_565 S
C859 C860 1.415 . S
C860 H836 0.950 . S
C860 C855 1.363 1_565 S
C860 C859 1.415 . S
C861 H837 0.951 . S
C861 C862 1.366 . S
C861 C863 1.388 . S
C862 C861 1.366 . S
C862 C866 1.384 1_545 S
C863 H838 0.951 . S
C863 C861 1.388 . S
C863 C864 1.341 1_545 S
C864 C863 1.341 1_565 S
C864 C865 1.437 . S
C864 C867 1.500 . S
C865 H839 0.950 . S
C865 C864 1.437 . S
C865 C866 1.374 . S
C866 H840 0.950 . S
C866 C862 1.384 1_565 S
C866 C865 1.374 . S
C867 C864 1.500 . S
C867 C868 1.374 . S
C867 C869 1.391 . S
C868 H841 0.950 . S
C868 C854 1.373 1_565 S
C868 C867 1.374 . S
C869 C853 1.373 1_565 S
C869 C867 1.391 . S
C869 C870 1.530 . S
C870 C869 1.530 . S
C870 C871 1.397 . S
C870 C875 1.363 1_565 S
C871 H842 0.950 . S
C871 C870 1.397 . S
C871 C872 1.334 . S
C872 H843 0.950 . S
C872 C871 1.334 . S
C872 C873 1.287 . S
C873 C872 1.287 . S
C873 C874 1.524 1_565 S
C873 H876 0.999 . S
C874 H844 0.950 . S
C874 C873 1.524 1_545 S
C874 C875 1.415 . S
C875 H845 0.950 . S
C875 C870 1.363 1_545 S
C875 C874 1.415 . S
H876 C873 0.999 . S
H877 C858 0.913 . S
H878 C896 0.951 . S
H879 C898 0.951 . S
H880 C900 0.950 . S
H881 C901 0.950 . S
H882 C903 0.950 . S
H883 C906 0.950 . S
H884 C907 0.950 . S
H885 C909 0.950 . S
H886 C910 0.950 . S
H887 C911 0.951 . S
H888 C913 0.951 . S
H889 C915 0.950 . S
H890 C916 0.950 . S
H891 C918 0.950 . S
H892 C921 0.950 . S
H893 C922 0.950 . S
H894 C924 0.950 . S
H895 C925 0.950 . S
C896 H878 0.951 . S
C896 C897 1.365 . S
C896 C898 1.388 . S
C897 C896 1.365 . S
C897 C901 1.385 1_455 S
C898 H879 0.951 . S
C898 C896 1.388 . S
C898 C899 1.366 . S
C899 C898 1.366 . S
C899 C900 1.414 1_455 S
C899 C902 1.500 . S
C900 H880 0.950 . S
C900 C899 1.414 1_655 S
C900 C901 1.374 . S
C901 H881 0.950 . S
C901 C897 1.385 1_655 S
C901 C900 1.374 . S
C902 C899 1.500 . S
C902 C903 1.329 1_455 S
C902 C904 1.432 . S
C903 H882 0.950 . S
C903 C902 1.329 1_655 S
C903 C919 1.377 . S
C904 C902 1.432 . S
C904 C905 1.524 . S
C904 C918 1.377 . S
C905 C904 1.524 . S
C905 C906 1.397 . S
C905 C910 1.363 . S
C906 H883 0.950 . S
C906 C905 1.397 . S
C906 C907 1.334 . S
C907 H884 0.950 . S
C907 C906 1.334 . S
C907 C908 1.287 . S
C908 C907 1.287 . S
C908 C909 1.524 . S
C908 H927 0.913 . S
C909 H885 0.950 . S
C909 C908 1.524 . S
C909 C910 1.415 . S
C910 H886 0.950 . S
C910 C905 1.363 . S
C910 C909 1.415 . S
C911 H887 0.951 . S
C911 C912 1.365 1_655 S
C911 C913 1.388 . S
C912 C911 1.365 1_455 S
C912 C916 1.385 . S
C913 H888 0.951 . S
C913 C911 1.388 . S
C913 C914 1.383 . S
C914 C913 1.383 . S
C914 C915 1.396 1_655 S
C914 C917 1.499 . S
C915 H889 0.950 . S
C915 C914 1.396 1_455 S
C915 C916 1.374 . S
C916 H890 0.950 . S
C916 C912 1.385 . S
C916 C915 1.374 . S
C917 C914 1.499 . S
C917 C918 1.340 1_655 S
C917 C919 1.421 . S
C918 H891 0.950 . S
C918 C904 1.377 . S
C918 C917 1.340 1_455 S
C919 C903 1.377 . S
C919 C917 1.421 . S
C919 C920 1.524 . S
C920 C919 1.524 . S
C920 C921 1.397 . S
C920 C925 1.363 . S
C921 H892 0.950 . S
C921 C920 1.397 . S
C921 C922 1.334 . S
C922 H893 0.950 . S
C922 C921 1.334 . S
C922 C923 1.287 . S
C923 C922 1.287 . S
C923 C924 1.524 . S
C923 H926 0.999 . S
C924 H894 0.950 . S
C924 C923 1.524 . S
C924 C925 1.415 . S
C925 H895 0.950 . S
C925 C920 1.363 . S
C925 C924 1.415 . S
H926 C923 0.999 . S
H927 C908 0.913 . S
H928 C946 0.951 . S
H929 C948 0.951 . S
H930 C950 0.950 . S
H931 C951 0.950 . S
H932 C953 0.950 . S
H933 C956 0.950 . S
H934 C957 0.950 . S
H935 C959 0.950 . S
H936 C960 0.950 . S
H937 C961 0.951 . S
H938 C963 0.951 . S
H939 C965 0.950 . S
H940 C966 0.950 . S
H941 C968 0.950 . S
H942 C971 0.950 . S
H943 C972 0.950 . S
H944 C974 0.950 . S
H945 C975 0.950 . S
C946 H928 0.951 . S
C946 C947 1.365 1_556 S
C946 C948 1.388 . S
C947 C946 1.365 1_554 S
C947 C951 1.386 . S
C948 H929 0.951 . S
C948 C946 1.388 . S
C948 C949 1.381 . S
C949 C948 1.381 . S
C949 C950 1.398 1_556 S
C949 C952 1.498 1_556 S
C950 H930 0.950 . S
C950 C949 1.398 1_554 S
C950 C951 1.374 . S
C951 H931 0.950 . S
C951 C947 1.386 . S
C951 C950 1.374 . S
C952 C949 1.498 1_554 S
C952 C953 1.371 . S
C952 C954 1.392 1_554 S
C953 H932 0.950 . S
C953 C952 1.371 . S
C953 C969 1.377 . S
C954 C952 1.392 1_556 S
C954 C955 1.524 . S
C954 C968 1.377 . S
C955 C954 1.524 . S
C955 C956 1.397 . S
C955 C960 1.363 . S
C956 H933 0.950 . S
C956 C955 1.397 . S
C956 C957 1.334 . S
C957 H934 0.950 . S
C957 C956 1.334 . S
C957 C958 1.287 . S
C958 C957 1.287 . S
C958 C959 1.524 . S
C958 H977 0.913 . S
C959 H935 0.950 . S
C959 C958 1.524 . S
C959 C960 1.415 . S
C960 H936 0.950 . S
C960 C955 1.363 . S
C960 C959 1.415 . S
C961 H937 0.951 . S
C961 C962 1.365 . S
C961 C963 1.388 . S
C962 C961 1.365 . S
C962 C966 1.386 1_554 S
C963 H938 0.951 . S
C963 C961 1.388 . S
C963 C964 1.390 . S
C964 C963 1.390 . S
C964 C965 1.389 1_554 S
C964 C967 1.498 . S
C965 H939 0.950 . S
C965 C964 1.389 1_556 S
C965 C966 1.374 . S
C966 H940 0.950 . S
C966 C962 1.386 1_556 S
C966 C965 1.374 . S
C967 C964 1.498 . S
C967 C968 1.371 1_554 S
C967 C969 1.392 . S
C968 H941 0.950 . S
C968 C954 1.377 . S
C968 C967 1.371 1_556 S
C969 C953 1.377 . S
C969 C967 1.392 . S
C969 C970 1.524 . S
C970 C969 1.524 . S
C970 C971 1.397 . S
C970 C975 1.363 . S
C971 H942 0.950 . S
C971 C970 1.397 . S
C971 C972 1.334 . S
C972 H943 0.950 . S
C972 C971 1.334 . S
C972 C973 1.287 . S
C973 C972 1.287 . S
C973 C974 1.524 . S
C973 H976 0.999 . S
C974 H944 0.950 . S
C974 C973 1.524 . S
C974 C975 1.415 . S
C975 H945 0.950 . S
C975 C970 1.363 . S
C975 C974 1.415 . S
H976 C973 0.999 . S
H977 C958 0.913 . S
H978 C996 0.951 . S
H979 C998 0.951 . S
H980 C1000 0.950 . S
H981 C1001 0.950 . S
H982 C1003 0.950 . S
H983 C1006 0.950 . S
H984 C1007 0.950 . S
H985 C1009 0.950 . S
H986 C1010 0.950 . S
H987 C1011 0.951 . S
H988 C1013 0.951 . S
H989 C1015 0.950 . S
H990 C1016 0.950 . S
H991 C1018 0.950 . S
H992 C1021 0.950 . S
H993 C1022 0.950 . S
H994 C1024 0.950 . S
H995 C1025 0.950 . S
C996 H978 0.951 . S
C996 C997 1.366 . S
C996 C998 1.388 . S
C997 C996 1.366 . S
C997 C1001 1.384 1_554 S
C998 H979 0.951 . S
C998 C996 1.388 . S
C998 C999 1.346 1_554 S
C999 C998 1.346 1_556 S
C999 C1000 1.432 . S
C999 C1002 1.500 . S
C1000 H980 0.950 . S
C1000 C999 1.432 . S
C1000 C1001 1.374 . S
C1001 H981 0.950 . S
C1001 C997 1.384 1_556 S
C1001 C1000 1.374 . S
C1002 C999 1.500 . S
C1002 C1003 1.373 1_556 S
C1002 C1004 1.389 . S
C1003 H982 0.950 . S
C1003 C1002 1.373 1_554 S
C1003 C1019 1.377 . S
C1004 C1002 1.389 . S
C1004 C1005 1.524 . S
C1004 C1018 1.377 . S
C1005 C1004 1.524 . S
C1005 C1006 1.397 . S
C1005 C1010 1.363 . S
C1006 H983 0.950 . S
C1006 C1005 1.397 . S
C1006 C1007 1.334 . S
C1007 H984 0.950 . S
C1007 C1006 1.334 . S
C1007 C1008 1.287 . S
C1008 C1007 1.287 . S
C1008 C1009 1.524 . S
C1008 H1027 0.913 . S
C1009 H985 0.950 . S
C1009 C1008 1.524 . S
C1009 C1010 1.415 . S
C1010 H986 0.950 . S
C1010 C1005 1.363 . S
C1010 C1009 1.415 . S
C1011 H987 0.951 . S
C1011 C1012 1.366 1_556 S
C1011 C1013 1.388 . S
C1012 C1011 1.366 1_554 S
C1012 C1016 1.384 . S
C1013 H988 0.951 . S
C1013 C1011 1.388 . S
C1013 C1014 1.366 1_556 S
C1014 C1013 1.366 1_554 S
C1014 C1015 1.414 . S
C1014 C1017 1.499 . S
C1015 H989 0.950 . S
C1015 C1014 1.414 . S
C1015 C1016 1.374 . S
C1016 H990 0.950 . S
C1016 C1012 1.384 . S
C1016 C1015 1.374 . S
C1017 C1014 1.499 . S
C1017 C1018 1.373 1_554 S
C1017 C1019 1.389 . S
C1018 H991 0.950 . S
C1018 C1004 1.377 . S
C1018 C1017 1.373 1_556 S
C1019 C1003 1.377 . S
C1019 C1017 1.389 . S
C1019 C1020 1.524 . S
C1020 C1019 1.524 . S
C1020 C1021 1.397 . S
C1020 C1025 1.363 . S
C1021 H992 0.950 . S
C1021 C1020 1.397 . S
C1021 C1022 1.334 . S
C1022 H993 0.950 . S
C1022 C1021 1.334 . S
C1022 C1023 1.287 . S
C1023 C1022 1.287 . S
C1023 C1024 1.524 . S
C1023 H1026 0.999 . S
C1024 H994 0.950 . S
C1024 C1023 1.524 . S
C1024 C1025 1.415 . S
C1025 H995 0.950 . S
C1025 C1020 1.363 . S
C1025 C1024 1.415 . S
H1026 C1023 0.999 . S
H1027 C1008 0.913 . S
H1028 C1046 0.951 . S
H1029 C1048 0.951 . S
H1030 C1050 0.950 . S
H1031 C1051 0.950 . S
H1032 C1053 0.950 . S
H1033 C1056 0.950 . S
H1034 C1057 0.950 . S
H1035 C1059 0.950 . S
H1036 C1060 0.950 . S
H1037 C1061 0.951 . S
H1038 C1063 0.951 . S
H1039 C1065 0.950 . S
H1040 C1066 0.950 . S
H1041 C1068 0.950 . S
H1042 C1071 0.950 . S
H1043 C1072 0.950 . S
H1044 C1074 0.950 . S
H1045 C1075 0.950 . S
C1046 H1028 0.951 . S
C1046 C1047 1.365 1_556 S
C1046 C1048 1.388 . S
C1047 C1046 1.365 1_554 S
C1047 C1051 1.386 . S
C1048 H1029 0.951 . S
C1048 C1046 1.388 . S
C1048 C1049 1.380 . S
C1049 C1048 1.380 . S
C1049 C1050 1.400 1_556 S
C1049 C1052 1.498 1_556 S
C1050 H1030 0.950 . S
C1050 C1049 1.400 1_554 S
C1050 C1051 1.374 . S
C1051 H1031 0.950 . S
C1051 C1047 1.386 . S
C1051 C1050 1.374 . S
C1052 C1049 1.498 1_554 S
C1052 C1053 1.374 . S
C1052 C1054 1.389 1_554 S
C1053 H1032 0.950 . S
C1053 C1052 1.374 . S
C1053 C1069 1.377 . S
C1054 C1052 1.389 1_556 S
C1054 C1055 1.524 . S
C1054 C1068 1.377 . S
C1055 C1054 1.524 . S
C1055 C1056 1.397 . S
C1055 C1060 1.363 . S
C1056 H1033 0.950 . S
C1056 C1055 1.397 . S
C1056 C1057 1.334 . S
C1057 H1034 0.950 . S
C1057 C1056 1.334 . S
C1057 C1058 1.287 . S
C1058 C1057 1.287 . S
C1058 C1059 1.524 . S
C1058 H1077 0.913 . S
C1059 H1035 0.950 . S
C1059 C1058 1.524 . S
C1059 C1060 1.415 . S
C1060 H1036 0.950 . S
C1060 C1055 1.363 . S
C1060 C1059 1.415 . S
C1061 H1037 0.951 . S
C1061 C1062 1.365 . S
C1061 C1063 1.388 . S
C1062 C1061 1.365 . S
C1062 C1066 1.386 1_554 S
C1063 H1038 0.951 . S
C1063 C1061 1.388 . S
C1063 C1064 1.389 . S
C1064 C1063 1.389 . S
C1064 C1065 1.390 1_554 S
C1064 C1067 1.498 . S
C1065 H1039 0.950 . S
C1065 C1064 1.390 1_556 S
C1065 C1066 1.374 . S
C1066 H1040 0.950 . S
C1066 C1062 1.386 1_556 S
C1066 C1065 1.374 . S
C1067 C1064 1.498 . S
C1067 C1068 1.374 1_554 S
C1067 C1069 1.389 . S
C1068 H1041 0.950 . S
C1068 C1054 1.377 . S
C1068 C1067 1.374 1_556 S
C1069 C1053 1.377 . S
C1069 C1067 1.389 . S
C1069 C1070 1.524 . S
C1070 C1069 1.524 . S
C1070 C1071 1.397 . S
C1070 C1075 1.363 . S
C1071 H1042 0.950 . S
C1071 C1070 1.397 . S
C1071 C1072 1.334 . S
C1072 H1043 0.950 . S
C1072 C1071 1.334 . S
C1072 C1073 1.287 . S
C1073 C1072 1.287 . S
C1073 C1074 1.524 . S
C1073 H1076 0.999 . S
C1074 H1044 0.950 . S
C1074 C1073 1.524 . S
C1074 C1075 1.415 . S
C1075 H1045 0.950 . S
C1075 C1070 1.363 . S
C1075 C1074 1.415 . S
H1076 C1073 0.999 . S
H1077 C1058 0.913 . S
H1078 C1096 0.951 . S
H1079 C1098 0.951 . S
H1080 C1100 0.950 . S
H1081 C1101 0.950 . S
H1082 C1103 0.950 . S
H1083 C1106 0.950 . S
H1084 C1107 0.950 . S
H1085 C1109 0.950 . S
H1086 C1110 0.950 . S
H1087 C1111 0.951 . S
H1088 C1113 0.951 . S
H1089 C1115 0.950 . S
H1090 C1116 0.950 . S
H1091 C1118 0.950 . S
H1092 C1121 0.950 . S
H1093 C1122 0.950 . S
H1094 C1124 0.950 . S
H1095 C1125 0.950 . S
C1096 H1078 0.951 . S
C1096 C1097 1.365 . S
C1096 C1098 1.388 . S
C1097 C1096 1.365 . S
C1097 C1101 1.385 1_554 S
C1098 H1079 0.951 . S
C1098 C1096 1.388 . S
C1098 C1099 1.366 . S
C1099 C1098 1.366 . S
C1099 C1100 1.414 1_554 S
C1099 C1102 1.499 . S
C1100 H1080 0.950 . S
C1100 C1099 1.414 1_556 S
C1100 C1101 1.374 . S
C1101 H1081 0.950 . S
C1101 C1097 1.385 1_556 S
C1101 C1100 1.374 . S
C1102 C1099 1.499 . S
C1102 C1103 1.373 1_554 S
C1102 C1104 1.389 . S
C1103 H1082 0.950 . S
C1103 C1102 1.373 1_556 S
C1103 C1119 1.377 . S
C1104 C1102 1.389 . S
C1104 C1105 1.524 . S
C1104 C1118 1.377 . S
C1105 C1104 1.524 . S
C1105 C1106 1.397 . S
C1105 C1110 1.363 . S
C1106 H1083 0.950 . S
C1106 C1105 1.397 . S
C1106 C1107 1.334 . S
C1107 H1084 0.950 . S
C1107 C1106 1.334 . S
C1107 C1108 1.287 . S
C1108 C1107 1.287 . S
C1108 C1109 1.524 . S
C1108 H1127 0.913 . S
C1109 H1085 0.950 . S
C1109 C1108 1.524 . S
C1109 C1110 1.415 . S
C1110 H1086 0.950 . S
C1110 C1105 1.363 . S
C1110 C1109 1.415 . S
C1111 H1087 0.951 . S
C1111 C1112 1.365 1_556 S
C1111 C1113 1.388 . S
C1112 C1111 1.365 1_554 S
C1112 C1116 1.385 . S
C1113 H1088 0.951 . S
C1113 C1111 1.388 . S
C1113 C1114 1.378 . S
C1114 C1113 1.378 . S
C1114 C1115 1.401 1_556 S
C1114 C1117 1.499 . S
C1115 H1089 0.950 . S
C1115 C1114 1.401 1_554 S
C1115 C1116 1.374 . S
C1116 H1090 0.950 . S
C1116 C1112 1.385 . S
C1116 C1115 1.374 . S
C1117 C1114 1.499 . S
C1117 C1118 1.333 1_556 S
C1117 C1119 1.428 . S
C1118 H1091 0.950 . S
C1118 C1104 1.377 . S
C1118 C1117 1.333 1_554 S
C1119 C1103 1.377 . S
C1119 C1117 1.428 . S
C1119 C1120 1.524 . S
C1120 C1119 1.524 . S
C1120 C1121 1.397 . S
C1120 C1125 1.363 . S
C1121 H1092 0.950 . S
C1121 C1120 1.397 . S
C1121 C1122 1.334 . S
C1122 H1093 0.950 . S
C1122 C1121 1.334 . S
C1122 C1123 1.287 . S
C1123 C1122 1.287 . S
C1123 C1124 1.524 . S
C1123 H1126 0.999 . S
C1124 H1094 0.950 . S
C1124 C1123 1.524 . S
C1124 C1125 1.415 . S
C1125 H1095 0.950 . S
C1125 C1120 1.363 . S
C1125 C1124 1.415 . S
H1126 C1123 0.999 . S
H1127 C1108 0.913 . S
H1128 C1146 0.951 . S
H1129 C1148 0.951 . S
H1130 C1150 0.950 . S
H1131 C1151 0.950 . S
H1132 C1153 0.950 . S
H1133 C1156 0.950 . S
H1134 C1157 0.950 . S
H1135 C1159 0.950 . S
H1136 C1160 0.950 . S
H1137 C1161 0.951 . S
H1138 C1163 0.951 . S
H1139 C1165 0.950 . S
H1140 C1166 0.950 . S
H1141 C1168 0.950 . S
H1142 C1171 0.950 . S
H1143 C1172 0.950 . S
H1144 C1174 0.950 . S
H1145 C1175 0.950 . S
C1146 H1128 0.951 . S
C1146 C1147 1.366 . S
C1146 C1148 1.388 . S
C1147 C1146 1.366 . S
C1147 C1151 1.385 . S
C1148 H1129 0.951 . S
C1148 C1146 1.388 . S
C1148 C1149 1.366 . S
C1149 C1148 1.366 . S
C1149 C1150 1.414 . S
C1149 C1152 1.499 . S
C1150 H1130 0.950 . S
C1150 C1149 1.414 . S
C1150 C1151 1.374 . S
C1151 H1131 0.950 . S
C1151 C1147 1.385 . S
C1151 C1150 1.374 . S
C1152 C1149 1.499 . S
C1152 C1153 1.373 . S
C1152 C1154 1.389 . S
C1153 H1132 0.950 . S
C1153 C1152 1.373 . S
C1153 C1169 1.377 1_556 S
C1154 C1152 1.389 . S
C1154 C1155 1.524 . S
C1154 C1168 1.377 1_556 S
C1155 C1154 1.524 . S
C1155 C1156 1.397 . S
C1155 C1160 1.363 . S
C1156 H1133 0.950 . S
C1156 C1155 1.397 . S
C1156 C1157 1.334 . S
C1157 H1134 0.950 . S
C1157 C1156 1.334 . S
C1157 C1158 1.287 . S
C1158 C1157 1.287 . S
C1158 C1159 1.524 . S
C1158 H1177 0.913 . S
C1159 H1135 0.950 . S
C1159 C1158 1.524 . S
C1159 C1160 1.415 . S
C1160 H1136 0.950 . S
C1160 C1155 1.363 . S
C1160 C1159 1.415 . S
C1161 H1137 0.951 . S
C1161 C1162 1.366 . S
C1161 C1163 1.388 . S
C1162 C1161 1.366 . S
C1162 C1166 1.385 . S
C1163 H1138 0.951 . S
C1163 C1161 1.388 . S
C1163 C1164 1.366 . S
C1164 C1163 1.366 . S
C1164 C1165 1.414 . S
C1164 C1167 1.499 . S
C1165 H1139 0.950 . S
C1165 C1164 1.414 . S
C1165 C1166 1.374 . S
C1166 H1140 0.950 . S
C1166 C1162 1.385 . S
C1166 C1165 1.374 . S
C1167 C1164 1.499 . S
C1167 C1168 1.373 . S
C1167 C1169 1.389 . S
C1168 H1141 0.950 . S
C1168 C1154 1.377 1_554 S
C1168 C1167 1.373 . S
C1169 C1153 1.377 1_554 S
C1169 C1167 1.389 . S
C1169 C1170 1.524 . S
C1170 C1169 1.524 . S
C1170 C1171 1.397 . S
C1170 C1175 1.363 . S
C1171 H1142 0.950 . S
C1171 C1170 1.397 . S
C1171 C1172 1.334 . S
C1172 H1143 0.950 . S
C1172 C1171 1.334 . S
C1172 C1173 1.287 . S
C1173 C1172 1.287 . S
C1173 C1174 1.524 . S
C1173 H1176 0.999 . S
C1174 H1144 0.950 . S
C1174 C1173 1.524 . S
C1174 C1175 1.415 . S
C1175 H1145 0.950 . S
C1175 C1170 1.363 . S
C1175 C1174 1.415 . S
H1176 C1173 0.999 . S
H1177 C1158 0.913 . S
H1178 C1196 0.951 . S
H1179 C1198 0.951 . S
H1180 C1200 0.950 . S
H1181 C1201 0.950 . S
H1182 C1203 0.950 . S
H1183 C1206 0.950 . S
H1184 C1207 0.950 . S
H1185 C1209 0.950 . S
H1186 C1210 0.950 . S
H1187 C1211 0.951 . S
H1188 C1213 0.951 . S
H1189 C1215 0.950 . S
H1190 C1216 0.950 . S
H1191 C1218 0.950 . S
H1192 C1221 0.950 . S
H1193 C1222 0.950 . S
H1194 C1224 0.950 . S
H1195 C1225 0.950 . S
C1196 H1178 0.951 . S
C1196 C1197 1.366 . S
C1196 C1198 1.388 . S
C1197 C1196 1.366 . S
C1197 C1201 1.385 . S
C1198 H1179 0.951 . S
C1198 C1196 1.388 . S
C1198 C1199 1.366 . S
C1199 C1198 1.366 . S
C1199 C1200 1.414 . S
C1199 C1202 1.499 . S
C1200 H1180 0.950 . S
C1200 C1199 1.414 . S
C1200 C1201 1.374 . S
C1201 H1181 0.950 . S
C1201 C1197 1.385 . S
C1201 C1200 1.374 . S
C1202 C1199 1.499 . S
C1202 C1203 1.373 . S
C1202 C1204 1.389 . S
C1203 H1182 0.950 . S
C1203 C1202 1.373 . S
C1203 C1219 1.377 1_554 S
C1204 C1202 1.389 . S
C1204 C1205 1.524 . S
C1204 C1218 1.377 1_554 S
C1205 C1204 1.524 . S
C1205 C1206 1.397 . S
C1205 C1210 1.363 . S
C1206 H1183 0.950 . S
C1206 C1205 1.397 . S
C1206 C1207 1.334 . S
C1207 H1184 0.950 . S
C1207 C1206 1.334 . S
C1207 C1208 1.287 . S
C1208 C1207 1.287 . S
C1208 C1209 1.524 . S
C1208 H1227 0.913 . S
C1209 H1185 0.950 . S
C1209 C1208 1.524 . S
C1209 C1210 1.415 . S
C1210 H1186 0.950 . S
C1210 C1205 1.363 . S
C1210 C1209 1.415 . S
C1211 H1187 0.951 . S
C1211 C1212 1.366 . S
C1211 C1213 1.388 . S
C1212 C1211 1.366 . S
C1212 C1216 1.385 . S
C1213 H1188 0.951 . S
C1213 C1211 1.388 . S
C1213 C1214 1.366 . S
C1214 C1213 1.366 . S
C1214 C1215 1.414 . S
C1214 C1217 1.499 . S
C1215 H1189 0.950 . S
C1215 C1214 1.414 . S
C1215 C1216 1.374 . S
C1216 H1190 0.950 . S
C1216 C1212 1.385 . S
C1216 C1215 1.374 . S
C1217 C1214 1.499 . S
C1217 C1218 1.373 . S
C1217 C1219 1.389 . S
C1218 H1191 0.950 . S
C1218 C1204 1.377 1_556 S
C1218 C1217 1.373 . S
C1219 C1203 1.377 1_556 S
C1219 C1217 1.389 . S
C1219 C1220 1.524 . S
C1220 C1219 1.524 . S
C1220 C1221 1.397 . S
C1220 C1225 1.363 . S
C1221 H1192 0.950 . S
C1221 C1220 1.397 . S
C1221 C1222 1.334 . S
C1222 H1193 0.950 . S
C1222 C1221 1.334 . S
C1222 C1223 1.287 . S
C1223 C1222 1.287 . S
C1223 C1224 1.524 . S
C1223 H1226 0.999 . S
C1224 H1194 0.950 . S
C1224 C1223 1.524 . S
C1224 C1225 1.415 . S
C1225 H1195 0.950 . S
C1225 C1220 1.363 . S
C1225 C1224 1.415 . S
H1226 C1223 0.999 . S
H1227 C1208 0.913 . S
H1228 C1246 0.951 . S
H1229 C1248 0.951 . S
H1230 C1250 0.950 . S
H1231 C1251 0.950 . S
H1232 C1253 0.950 . S
H1233 C1256 0.950 . S
H1234 C1257 0.950 . S
H1235 C1259 0.950 . S
H1236 C1260 0.950 . S
H1237 C1261 0.951 . S
H1238 C1263 0.951 . S
H1239 C1265 0.950 . S
H1240 C1266 0.950 . S
H1241 C1268 0.950 . S
H1242 C1271 0.950 . S
H1243 C1272 0.950 . S
H1244 C1274 0.950 . S
H1245 C1275 0.950 . S
C1246 H1228 0.951 . S
C1246 C1247 1.366 . S
C1246 C1248 1.388 . S
C1247 C1246 1.366 . S
C1247 C1251 1.385 . S
C1248 H1229 0.951 . S
C1248 C1246 1.388 . S
C1248 C1249 1.366 . S
C1249 C1248 1.366 . S
C1249 C1250 1.414 . S
C1249 C1252 1.499 . S
C1250 H1230 0.950 . S
C1250 C1249 1.414 . S
C1250 C1251 1.374 . S
C1251 H1231 0.950 . S
C1251 C1247 1.385 . S
C1251 C1250 1.374 . S
C1252 C1249 1.499 . S
C1252 C1253 1.373 . S
C1252 C1254 1.389 . S
C1253 H1232 0.950 . S
C1253 C1252 1.373 . S
C1253 C1269 1.377 1_556 S
C1254 C1252 1.389 . S
C1254 C1255 1.524 . S
C1254 C1268 1.377 1_556 S
C1255 C1254 1.524 . S
C1255 C1256 1.397 . S
C1255 C1260 1.363 . S
C1256 H1233 0.950 . S
C1256 C1255 1.397 . S
C1256 C1257 1.334 . S
C1257 H1234 0.950 . S
C1257 C1256 1.334 . S
C1257 C1258 1.287 . S
C1258 C1257 1.287 . S
C1258 C1259 1.524 . S
C1258 H1277 0.913 . S
C1259 H1235 0.950 . S
C1259 C1258 1.524 . S
C1259 C1260 1.415 . S
C1260 H1236 0.950 . S
C1260 C1255 1.363 . S
C1260 C1259 1.415 . S
C1261 H1237 0.951 . S
C1261 C1262 1.366 . S
C1261 C1263 1.388 . S
C1262 C1261 1.366 . S
C1262 C1266 1.385 . S
C1263 H1238 0.951 . S
C1263 C1261 1.388 . S
C1263 C1264 1.366 . S
C1264 C1263 1.366 . S
C1264 C1265 1.414 . S
C1264 C1267 1.499 . S
C1265 H1239 0.950 . S
C1265 C1264 1.414 . S
C1265 C1266 1.374 . S
C1266 H1240 0.950 . S
C1266 C1262 1.385 . S
C1266 C1265 1.374 . S
C1267 C1264 1.499 . S
C1267 C1268 1.373 . S
C1267 C1269 1.389 . S
C1268 H1241 0.950 . S
C1268 C1254 1.377 1_554 S
C1268 C1267 1.373 . S
C1269 C1253 1.377 1_554 S
C1269 C1267 1.389 . S
C1269 C1270 1.524 . S
C1270 C1269 1.524 . S
C1270 C1271 1.397 . S
C1270 C1275 1.363 . S
C1271 H1242 0.950 . S
C1271 C1270 1.397 . S
C1271 C1272 1.334 . S
C1272 H1243 0.950 . S
C1272 C1271 1.334 . S
C1272 C1273 1.287 . S
C1273 C1272 1.287 . S
C1273 C1274 1.524 . S
C1273 H1276 0.999 . S
C1274 H1244 0.950 . S
C1274 C1273 1.524 . S
C1274 C1275 1.415 . S
C1275 H1245 0.950 . S
C1275 C1270 1.363 . S
C1275 C1274 1.415 . S
H1276 C1273 0.999 . S
H1277 C1258 0.913 . S
H1278 C1296 0.951 . S
H1279 C1298 0.951 . S
H1280 C1300 0.950 . S
H1281 C1301 0.950 . S
H1282 C1303 0.950 . S
H1283 C1306 0.950 . S
H1284 C1307 0.950 . S
H1285 C1309 0.950 . S
H1286 C1310 0.950 . S
H1287 C1311 0.951 . S
H1288 C1313 0.951 . S
H1289 C1315 0.950 . S
H1290 C1316 0.950 . S
H1291 C1318 0.950 . S
H1292 C1321 0.950 . S
H1293 C1322 0.950 . S
H1294 C1324 0.950 . S
H1295 C1325 0.950 . S
C1296 H1278 0.951 . S
C1296 C1297 1.366 . S
C1296 C1298 1.388 . S
C1297 C1296 1.366 . S
C1297 C1301 1.385 . S
C1298 H1279 0.951 . S
C1298 C1296 1.388 . S
C1298 C1299 1.366 . S
C1299 C1298 1.366 . S
C1299 C1300 1.414 . S
C1299 C1302 1.499 . S
C1300 H1280 0.950 . S
C1300 C1299 1.414 . S
C1300 C1301 1.374 . S
C1301 H1281 0.950 . S
C1301 C1297 1.385 . S
C1301 C1300 1.374 . S
C1302 C1299 1.499 . S
C1302 C1303 1.373 . S
C1302 C1304 1.389 . S
C1303 H1282 0.950 . S
C1303 C1302 1.373 . S
C1303 C1319 1.377 1_556 S
C1304 C1302 1.389 . S
C1304 C1305 1.524 . S
C1304 C1318 1.377 1_556 S
C1305 C1304 1.524 . S
C1305 C1306 1.397 . S
C1305 C1310 1.363 . S
C1306 H1283 0.950 . S
C1306 C1305 1.397 . S
C1306 C1307 1.334 . S
C1307 H1284 0.950 . S
C1307 C1306 1.334 . S
C1307 C1308 1.287 . S
C1308 C1307 1.287 . S
C1308 C1309 1.524 . S
C1308 H1327 0.913 . S
C1309 H1285 0.950 . S
C1309 C1308 1.524 . S
C1309 C1310 1.415 . S
C1310 H1286 0.950 . S
C1310 C1305 1.363 . S
C1310 C1309 1.415 . S
C1311 H1287 0.951 . S
C1311 C1312 1.366 . S
C1311 C1313 1.388 . S
C1312 C1311 1.366 . S
C1312 C1316 1.385 . S
C1313 H1288 0.951 . S
C1313 C1311 1.388 . S
C1313 C1314 1.366 . S
C1314 C1313 1.366 . S
C1314 C1315 1.414 . S
C1314 C1317 1.499 . S
C1315 H1289 0.950 . S
C1315 C1314 1.414 . S
C1315 C1316 1.374 . S
C1316 H1290 0.950 . S
C1316 C1312 1.385 . S
C1316 C1315 1.374 . S
C1317 C1314 1.499 . S
C1317 C1318 1.373 . S
C1317 C1319 1.389 . S
C1318 H1291 0.950 . S
C1318 C1304 1.377 1_554 S
C1318 C1317 1.373 . S
C1319 C1303 1.377 1_554 S
C1319 C1317 1.389 . S
C1319 C1320 1.524 . S
C1320 C1319 1.524 . S
C1320 C1321 1.397 . S
C1320 C1325 1.363 . S
C1321 H1292 0.950 . S
C1321 C1320 1.397 . S
C1321 C1322 1.334 . S
C1322 H1293 0.950 . S
C1322 C1321 1.334 . S
C1322 C1323 1.287 . S
C1323 C1322 1.287 . S
C1323 C1324 1.524 . S
C1323 H1326 0.999 . S
C1324 H1294 0.950 . S
C1324 C1323 1.524 . S
C1324 C1325 1.415 . S
C1325 H1295 0.950 . S
C1325 C1320 1.363 . S
C1325 C1324 1.415 . S
H1326 C1323 0.999 . S
H1327 C1308 0.913 . S
H1328 C1346 0.951 . S
H1329 C1348 0.951 . S
H1330 C1350 0.950 . S
H1331 C1351 0.950 . S
H1332 C1353 0.950 . S
H1333 C1356 0.950 . S
H1334 C1357 0.950 . S
H1335 C1359 0.950 . S
H1336 C1360 0.950 . S
H1337 C1361 0.951 . S
H1338 C1363 0.951 . S
H1339 C1365 0.950 . S
H1340 C1366 0.950 . S
H1341 C1368 0.950 . S
H1342 C1371 0.950 . S
H1343 C1372 0.950 . S
H1344 C1374 0.950 . S
H1345 C1375 0.950 . S
C1346 H1328 0.951 . S
C1346 C1347 1.366 . S
C1346 C1348 1.388 . S
C1347 C1346 1.366 . S
C1347 C1351 1.385 . S
C1348 H1329 0.951 . S
C1348 C1346 1.388 . S
C1348 C1349 1.366 . S
C1349 C1348 1.366 . S
C1349 C1350 1.414 . S
C1349 C1352 1.499 . S
C1350 H1330 0.950 . S
C1350 C1349 1.414 . S
C1350 C1351 1.374 . S
C1351 H1331 0.950 . S
C1351 C1347 1.385 . S
C1351 C1350 1.374 . S
C1352 C1349 1.499 . S
C1352 C1353 1.373 . S
C1352 C1354 1.389 . S
C1353 H1332 0.950 . S
C1353 C1352 1.373 . S
C1353 C1369 1.377 1_655 S
C1354 C1352 1.389 . S
C1354 C1355 1.524 . S
C1354 C1368 1.377 1_655 S
C1355 C1354 1.524 . S
C1355 C1356 1.397 . S
C1355 C1360 1.363 . S
C1356 H1333 0.950 . S
C1356 C1355 1.397 . S
C1356 C1357 1.334 . S
C1357 H1334 0.950 . S
C1357 C1356 1.334 . S
C1357 C1358 1.287 . S
C1358 C1357 1.287 . S
C1358 C1359 1.524 . S
C1358 H1377 0.913 . S
C1359 H1335 0.950 . S
C1359 C1358 1.524 . S
C1359 C1360 1.415 . S
C1360 H1336 0.950 . S
C1360 C1355 1.363 . S
C1360 C1359 1.415 . S
C1361 H1337 0.951 . S
C1361 C1362 1.366 . S
C1361 C1363 1.388 . S
C1362 C1361 1.366 . S
C1362 C1366 1.385 . S
C1363 H1338 0.951 . S
C1363 C1361 1.388 . S
C1363 C1364 1.366 . S
C1364 C1363 1.366 . S
C1364 C1365 1.414 . S
C1364 C1367 1.499 . S
C1365 H1339 0.950 . S
C1365 C1364 1.414 . S
C1365 C1366 1.374 . S
C1366 H1340 0.950 . S
C1366 C1362 1.385 . S
C1366 C1365 1.374 . S
C1367 C1364 1.499 . S
C1367 C1368 1.373 . S
C1367 C1369 1.389 . S
C1368 H1341 0.950 . S
C1368 C1354 1.377 1_455 S
C1368 C1367 1.373 . S
C1369 C1353 1.377 1_455 S
C1369 C1367 1.389 . S
C1369 C1370 1.524 . S
C1370 C1369 1.524 . S
C1370 C1371 1.397 . S
C1370 C1375 1.363 . S
C1371 H1342 0.950 . S
C1371 C1370 1.397 . S
C1371 C1372 1.334 . S
C1372 H1343 0.950 . S
C1372 C1371 1.334 . S
C1372 C1373 1.287 . S
C1373 C1372 1.287 . S
C1373 C1374 1.524 . S
C1373 H1376 0.999 . S
C1374 H1344 0.950 . S
C1374 C1373 1.524 . S
C1374 C1375 1.415 . S
C1375 H1345 0.950 . S
C1375 C1370 1.363 . S
C1375 C1374 1.415 . S
H1376 C1373 0.999 . S
H1377 C1358 0.913 . S
H1378 C1396 0.951 . S
H1379 C1398 0.951 . S
H1380 C1400 0.950 . S
H1381 C1401 0.950 . S
H1382 C1403 0.950 . S
H1383 C1406 0.950 . S
H1384 C1407 0.950 . S
H1385 C1409 0.950 . S
H1386 C1410 0.950 . S
H1387 C1411 0.951 . S
H1388 C1413 0.951 . S
H1389 C1415 0.950 . S
H1390 C1416 0.950 . S
H1391 C1418 0.950 . S
H1392 C1421 0.950 . S
H1393 C1422 0.950 . S
H1394 C1424 0.950 . S
H1395 C1425 0.950 . S
C1396 H1378 0.951 . S
C1396 C1397 1.366 . S
C1396 C1398 1.388 . S
C1397 C1396 1.366 . S
C1397 C1401 1.385 . S
C1398 H1379 0.951 . S
C1398 C1396 1.388 . S
C1398 C1399 1.366 . S
C1399 C1398 1.366 . S
C1399 C1400 1.414 . S
C1399 C1402 1.499 . S
C1400 H1380 0.950 . S
C1400 C1399 1.414 . S
C1400 C1401 1.374 . S
C1401 H1381 0.950 . S
C1401 C1397 1.385 . S
C1401 C1400 1.374 . S
C1402 C1399 1.499 . S
C1402 C1403 1.373 . S
C1402 C1404 1.389 . S
C1403 H1382 0.950 . S
C1403 C1402 1.373 . S
C1403 C1419 1.377 1_545 S
C1404 C1402 1.389 . S
C1404 C1405 1.524 . S
C1404 C1418 1.377 1_545 S
C1405 C1404 1.524 . S
C1405 C1406 1.397 . S
C1405 C1410 1.363 . S
C1406 H1383 0.950 . S
C1406 C1405 1.397 . S
C1406 C1407 1.334 . S
C1407 H1384 0.950 . S
C1407 C1406 1.334 . S
C1407 C1408 1.287 . S
C1408 C1407 1.287 . S
C1408 C1409 1.524 . S
C1408 H1427 0.913 . S
C1409 H1385 0.950 . S
C1409 C1408 1.524 . S
C1409 C1410 1.415 . S
C1410 H1386 0.950 . S
C1410 C1405 1.363 . S
C1410 C1409 1.415 . S
C1411 H1387 0.951 . S
C1411 C1412 1.366 . S
C1411 C1413 1.388 . S
C1412 C1411 1.366 . S
C1412 C1416 1.385 . S
C1413 H1388 0.951 . S
C1413 C1411 1.388 . S
C1413 C1414 1.366 . S
C1414 C1413 1.366 . S
C1414 C1415 1.414 . S
C1414 C1417 1.499 . S
C1415 H1389 0.950 . S
C1415 C1414 1.414 . S
C1415 C1416 1.374 . S
C1416 H1390 0.950 . S
C1416 C1412 1.385 . S
C1416 C1415 1.374 . S
C1417 C1414 1.499 . S
C1417 C1418 1.373 . S
C1417 C1419 1.389 . S
C1418 H1391 0.950 . S
C1418 C1404 1.377 1_565 S
C1418 C1417 1.373 . S
C1419 C1403 1.377 1_565 S
C1419 C1417 1.389 . S
C1419 C1420 1.524 . S
C1420 C1419 1.524 . S
C1420 C1421 1.397 . S
C1420 C1425 1.363 . S
C1421 H1392 0.950 . S
C1421 C1420 1.397 . S
C1421 C1422 1.334 . S
C1422 H1393 0.950 . S
C1422 C1421 1.334 . S
C1422 C1423 1.287 . S
C1423 C1422 1.287 . S
C1423 C1424 1.524 . S
C1423 H1426 0.999 . S
C1424 H1394 0.950 . S
C1424 C1423 1.524 . S
C1424 C1425 1.415 . S
C1425 H1395 0.950 . S
C1425 C1420 1.363 . S
C1425 C1424 1.415 . S
H1426 C1423 0.999 . S
H1427 C1408 0.913 . S
H1428 C1446 0.951 . S
H1429 C1448 0.951 . S
H1430 C1450 0.950 . S
H1431 C1451 0.950 . S
H1432 C1453 0.950 . S
H1433 C1456 0.950 . S
H1434 C1457 0.950 . S
H1435 C1459 0.950 . S
H1436 C1460 0.950 . S
H1437 C1461 0.951 . S
H1438 C1463 0.951 . S
H1439 C1465 0.950 . S
H1440 C1466 0.950 . S
H1441 C1468 0.950 . S
H1442 C1471 0.950 . S
H1443 C1472 0.950 . S
H1444 C1474 0.950 . S
H1445 C1475 0.950 . S
C1446 H1428 0.951 . S
C1446 C1447 1.366 . S
C1446 C1448 1.388 . S
C1447 C1446 1.366 . S
C1447 C1451 1.385 . S
C1448 H1429 0.951 . S
C1448 C1446 1.388 . S
C1448 C1449 1.366 . S
C1449 C1448 1.366 . S
C1449 C1450 1.414 . S
C1449 C1452 1.499 . S
C1450 H1430 0.950 . S
C1450 C1449 1.414 . S
C1450 C1451 1.374 . S
C1451 H1431 0.950 . S
C1451 C1447 1.385 . S
C1451 C1450 1.374 . S
C1452 C1449 1.499 . S
C1452 C1453 1.373 . S
C1452 C1454 1.389 . S
C1453 H1432 0.950 . S
C1453 C1452 1.373 . S
C1453 C1469 1.377 1_655 S
C1454 C1452 1.389 . S
C1454 C1455 1.524 . S
C1454 C1468 1.377 1_655 S
C1455 C1454 1.524 . S
C1455 C1456 1.397 . S
C1455 C1460 1.363 . S
C1456 H1433 0.950 . S
C1456 C1455 1.397 . S
C1456 C1457 1.334 . S
C1457 H1434 0.950 . S
C1457 C1456 1.334 . S
C1457 C1458 1.287 . S
C1458 C1457 1.287 . S
C1458 C1459 1.524 . S
C1458 H1477 0.913 . S
C1459 H1435 0.950 . S
C1459 C1458 1.524 . S
C1459 C1460 1.415 . S
C1460 H1436 0.950 . S
C1460 C1455 1.363 . S
C1460 C1459 1.415 . S
C1461 H1437 0.951 . S
C1461 C1462 1.366 . S
C1461 C1463 1.388 . S
C1462 C1461 1.366 . S
C1462 C1466 1.385 . S
C1463 H1438 0.951 . S
C1463 C1461 1.388 . S
C1463 C1464 1.366 . S
C1464 C1463 1.366 . S
C1464 C1465 1.414 . S
C1464 C1467 1.499 . S
C1465 H1439 0.950 . S
C1465 C1464 1.414 . S
C1465 C1466 1.374 . S
C1466 H1440 0.950 . S
C1466 C1462 1.385 . S
C1466 C1465 1.374 . S
C1467 C1464 1.499 . S
C1467 C1468 1.373 . S
C1467 C1469 1.389 . S
C1468 H1441 0.950 . S
C1468 C1454 1.377 1_455 S
C1468 C1467 1.373 . S
C1469 C1453 1.377 1_455 S
C1469 C1467 1.389 . S
C1469 C1470 1.524 . S
C1470 C1469 1.524 . S
C1470 C1471 1.397 . S
C1470 C1475 1.363 . S
C1471 H1442 0.950 . S
C1471 C1470 1.397 . S
C1471 C1472 1.334 . S
C1472 H1443 0.950 . S
C1472 C1471 1.334 . S
C1472 C1473 1.287 . S
C1473 C1472 1.287 . S
C1473 C1474 1.524 . S
C1473 H1476 0.999 . S
C1474 H1444 0.950 . S
C1474 C1473 1.524 . S
C1474 C1475 1.415 . S
C1475 H1445 0.950 . S
C1475 C1470 1.363 . S
C1475 C1474 1.415 . S
H1476 C1473 0.999 . S
H1477 C1458 0.913 . S
H1478 C1496 0.951 . S
H1479 C1498 0.951 . S
H1480 C1500 0.950 . S
H1481 C1501 0.950 . S
H1482 C1503 0.950 . S
H1483 C1506 0.950 . S
H1484 C1507 0.950 . S
H1485 C1509 0.950 . S
H1486 C1510 0.950 . S
H1487 C1511 0.951 . S
H1488 C1513 0.951 . S
H1489 C1515 0.950 . S
H1490 C1516 0.950 . S
H1491 C1518 0.950 . S
H1492 C1521 0.950 . S
H1493 C1522 0.950 . S
H1494 C1524 0.950 . S
H1495 C1525 0.950 . S
C1496 H1478 0.951 . S
C1496 C1497 1.366 . S
C1496 C1498 1.388 . S
C1497 C1496 1.366 . S
C1497 C1501 1.385 . S
C1498 H1479 0.951 . S
C1498 C1496 1.388 . S
C1498 C1499 1.366 . S
C1499 C1498 1.366 . S
C1499 C1500 1.414 . S
C1499 C1502 1.499 . S
C1500 H1480 0.950 . S
C1500 C1499 1.414 . S
C1500 C1501 1.374 . S
C1501 H1481 0.950 . S
C1501 C1497 1.385 . S
C1501 C1500 1.374 . S
C1502 C1499 1.499 . S
C1502 C1503 1.373 . S
C1502 C1504 1.389 . S
C1503 H1482 0.950 . S
C1503 C1502 1.373 . S
C1503 C1519 1.377 1_565 S
C1504 C1502 1.389 . S
C1504 C1505 1.524 . S
C1504 C1518 1.377 1_565 S
C1505 C1504 1.524 . S
C1505 C1506 1.397 . S
C1505 C1510 1.363 . S
C1506 H1483 0.950 . S
C1506 C1505 1.397 . S
C1506 C1507 1.334 . S
C1507 H1484 0.950 . S
C1507 C1506 1.334 . S
C1507 C1508 1.287 . S
C1508 C1507 1.287 . S
C1508 C1509 1.524 . S
C1508 H1527 0.913 . S
C1509 H1485 0.950 . S
C1509 C1508 1.524 . S
C1509 C1510 1.415 . S
C1510 H1486 0.950 . S
C1510 C1505 1.363 . S
C1510 C1509 1.415 . S
C1511 H1487 0.951 . S
C1511 C1512 1.366 . S
C1511 C1513 1.388 . S
C1512 C1511 1.366 . S
C1512 C1516 1.385 . S
C1513 H1488 0.951 . S
C1513 C1511 1.388 . S
C1513 C1514 1.366 . S
C1514 C1513 1.366 . S
C1514 C1515 1.414 . S
C1514 C1517 1.499 . S
C1515 H1489 0.950 . S
C1515 C1514 1.414 . S
C1515 C1516 1.374 . S
C1516 H1490 0.950 . S
C1516 C1512 1.385 . S
C1516 C1515 1.374 . S
C1517 C1514 1.499 . S
C1517 C1518 1.373 . S
C1517 C1519 1.389 . S
C1518 H1491 0.950 . S
C1518 C1504 1.377 1_545 S
C1518 C1517 1.373 . S
C1519 C1503 1.377 1_545 S
C1519 C1517 1.389 . S
C1519 C1520 1.524 . S
C1520 C1519 1.524 . S
C1520 C1521 1.397 . S
C1520 C1525 1.363 . S
C1521 H1492 0.950 . S
C1521 C1520 1.397 . S
C1521 C1522 1.334 . S
C1522 H1493 0.950 . S
C1522 C1521 1.334 . S
C1522 C1523 1.287 . S
C1523 C1522 1.287 . S
C1523 C1524 1.524 . S
C1523 H1526 0.999 . S
C1524 H1494 0.950 . S
C1524 C1523 1.524 . S
C1524 C1525 1.415 . S
C1525 H1495 0.950 . S
C1525 C1520 1.363 . S
C1525 C1524 1.415 . S
H1526 C1523 0.999 . S
H1527 C1508 0.913 . S
H1528 C1546 0.951 . S
H1529 C1548 0.951 . S
H1530 C1550 0.950 . S
H1531 C1551 0.950 . S
H1532 C1553 0.950 . S
H1533 C1556 0.950 . S
H1534 C1557 0.950 . S
H1535 C1559 0.950 . S
H1536 C1560 0.950 . S
H1537 C1561 0.951 . S
H1538 C1563 0.951 . S
H1539 C1565 0.950 . S
H1540 C1566 0.950 . S
H1541 C1568 0.950 . S
H1542 C1571 0.950 . S
H1543 C1572 0.950 . S
H1544 C1574 0.950 . S
H1545 C1575 0.950 . S
C1546 H1528 0.951 . S
C1546 C1547 1.366 . S
C1546 C1548 1.388 . S
C1547 C1546 1.366 . S
C1547 C1551 1.385 . S
C1548 H1529 0.951 . S
C1548 C1546 1.388 . S
C1548 C1549 1.366 . S
C1549 C1548 1.366 . S
C1549 C1550 1.414 . S
C1549 C1552 1.499 . S
C1550 H1530 0.950 . S
C1550 C1549 1.414 . S
C1550 C1551 1.374 . S
C1551 H1531 0.950 . S
C1551 C1547 1.385 . S
C1551 C1550 1.374 . S
C1552 C1549 1.499 . S
C1552 C1553 1.373 . S
C1552 C1554 1.389 . S
C1553 H1532 0.950 . S
C1553 C1552 1.373 . S
C1553 C1569 1.377 1_565 S
C1554 C1552 1.389 . S
C1554 C1555 1.524 . S
C1554 C1568 1.377 1_565 S
C1555 C1554 1.524 . S
C1555 C1556 1.397 . S
C1555 C1560 1.363 . S
C1556 H1533 0.950 . S
C1556 C1555 1.397 . S
C1556 C1557 1.334 . S
C1557 H1534 0.950 . S
C1557 C1556 1.334 . S
C1557 C1558 1.287 . S
C1558 C1557 1.287 . S
C1558 C1559 1.524 . S
C1558 H1577 0.913 . S
C1559 H1535 0.950 . S
C1559 C1558 1.524 . S
C1559 C1560 1.415 . S
C1560 H1536 0.950 . S
C1560 C1555 1.363 . S
C1560 C1559 1.415 . S
C1561 H1537 0.951 . S
C1561 C1562 1.366 . S
C1561 C1563 1.388 . S
C1562 C1561 1.366 . S
C1562 C1566 1.385 . S
C1563 H1538 0.951 . S
C1563 C1561 1.388 . S
C1563 C1564 1.366 . S
C1564 C1563 1.366 . S
C1564 C1565 1.414 . S
C1564 C1567 1.499 . S
C1565 H1539 0.950 . S
C1565 C1564 1.414 . S
C1565 C1566 1.374 . S
C1566 H1540 0.950 . S
C1566 C1562 1.385 . S
C1566 C1565 1.374 . S
C1567 C1564 1.499 . S
C1567 C1568 1.373 . S
C1567 C1569 1.389 . S
C1568 H1541 0.950 . S
C1568 C1554 1.377 1_545 S
C1568 C1567 1.373 . S
C1569 C1553 1.377 1_545 S
C1569 C1567 1.389 . S
C1569 C1570 1.524 . S
C1570 C1569 1.524 . S
C1570 C1571 1.397 . S
C1570 C1575 1.363 . S
C1571 H1542 0.950 . S
C1571 C1570 1.397 . S
C1571 C1572 1.334 . S
C1572 H1543 0.950 . S
C1572 C1571 1.334 . S
C1572 C1573 1.287 . S
C1573 C1572 1.287 . S
C1573 C1574 1.524 . S
C1573 H1576 0.999 . S
C1574 H1544 0.950 . S
C1574 C1573 1.524 . S
C1574 C1575 1.415 . S
C1575 H1545 0.950 . S
C1575 C1570 1.363 . S
C1575 C1574 1.415 . S
H1576 C1573 0.999 . S
H1577 C1558 0.913 . S
H1578 C1596 0.951 . S
H1579 C1598 0.951 . S
H1580 C1600 0.950 . S
H1581 C1601 0.950 . S
H1582 C1603 0.950 . S
H1583 C1606 0.950 . S
H1584 C1607 0.950 . S
H1585 C1609 0.950 . S
H1586 C1610 0.950 . S
H1587 C1611 0.951 . S
H1588 C1613 0.951 . S
H1589 C1615 0.950 . S
H1590 C1616 0.950 . S
H1591 C1618 0.950 . S
H1592 C1621 0.950 . S
H1593 C1622 0.950 . S
H1594 C1624 0.950 . S
H1595 C1625 0.950 . S
C1596 H1578 0.951 . S
C1596 C1597 1.366 . S
C1596 C1598 1.388 . S
C1597 C1596 1.366 . S
C1597 C1601 1.385 . S
C1598 H1579 0.951 . S
C1598 C1596 1.388 . S
C1598 C1599 1.366 . S
C1599 C1598 1.366 . S
C1599 C1600 1.414 . S
C1599 C1602 1.499 . S
C1600 H1580 0.950 . S
C1600 C1599 1.414 . S
C1600 C1601 1.374 . S
C1601 H1581 0.950 . S
C1601 C1597 1.385 . S
C1601 C1600 1.374 . S
C1602 C1599 1.499 . S
C1602 C1603 1.373 . S
C1602 C1604 1.389 . S
C1603 H1582 0.950 . S
C1603 C1602 1.373 . S
C1603 C1619 1.377 1_455 S
C1604 C1602 1.389 . S
C1604 C1605 1.524 . S
C1604 C1618 1.377 1_455 S
C1605 C1604 1.524 . S
C1605 C1606 1.397 . S
C1605 C1610 1.363 . S
C1606 H1583 0.950 . S
C1606 C1605 1.397 . S
C1606 C1607 1.334 . S
C1607 H1584 0.950 . S
C1607 C1606 1.334 . S
C1607 C1608 1.287 . S
C1608 C1607 1.287 . S
C1608 C1609 1.524 . S
C1608 H1627 0.913 . S
C1609 H1585 0.950 . S
C1609 C1608 1.524 . S
C1609 C1610 1.415 . S
C1610 H1586 0.950 . S
C1610 C1605 1.363 . S
C1610 C1609 1.415 . S
C1611 H1587 0.951 . S
C1611 C1612 1.366 . S
C1611 C1613 1.388 . S
C1612 C1611 1.366 . S
C1612 C1616 1.385 . S
C1613 H1588 0.951 . S
C1613 C1611 1.388 . S
C1613 C1614 1.366 . S
C1614 C1613 1.366 . S
C1614 C1615 1.414 . S
C1614 C1617 1.499 . S
C1615 H1589 0.950 . S
C1615 C1614 1.414 . S
C1615 C1616 1.374 . S
C1616 H1590 0.950 . S
C1616 C1612 1.385 . S
C1616 C1615 1.374 . S
C1617 C1614 1.499 . S
C1617 C1618 1.373 . S
C1617 C1619 1.389 . S
C1618 H1591 0.950 . S
C1618 C1604 1.377 1_655 S
C1618 C1617 1.373 . S
C1619 C1603 1.377 1_655 S
C1619 C1617 1.389 . S
C1619 C1620 1.524 . S
C1620 C1619 1.524 . S
C1620 C1621 1.397 . S
C1620 C1625 1.363 . S
C1621 H1592 0.950 . S
C1621 C1620 1.397 . S
C1621 C1622 1.334 . S
C1622 H1593 0.950 . S
C1622 C1621 1.334 . S
C1622 C1623 1.287 . S
C1623 C1622 1.287 . S
C1623 C1624 1.524 . S
C1623 H1626 0.999 . S
C1624 H1594 0.950 . S
C1624 C1623 1.524 . S
C1624 C1625 1.415 . S
C1625 H1595 0.950 . S
C1625 C1620 1.363 . S
C1625 C1624 1.415 . S
H1626 C1623 0.999 . S
H1627 C1608 0.913 . S
H1628 C1646 0.951 . S
H1629 C1648 0.951 . S
H1630 C1650 0.950 . S
H1631 C1651 0.950 . S
H1632 C1653 0.950 . S
H1633 C1656 0.950 . S
H1634 C1657 0.950 . S
H1635 C1659 0.950 . S
H1636 C1660 0.950 . S
H1637 C1661 0.951 . S
H1638 C1663 0.951 . S
H1639 C1665 0.950 . S
H1640 C1666 0.950 . S
H1641 C1668 0.950 . S
H1642 C1671 0.950 . S
H1643 C1672 0.950 . S
H1644 C1674 0.950 . S
H1645 C1675 0.950 . S
C1646 H1628 0.951 . S
C1646 C1647 1.366 . S
C1646 C1648 1.388 . S
C1647 C1646 1.366 . S
C1647 C1651 1.385 . S
C1648 H1629 0.951 . S
C1648 C1646 1.388 . S
C1648 C1649 1.366 . S
C1649 C1648 1.366 . S
C1649 C1650 1.414 . S
C1649 C1652 1.499 . S
C1650 H1630 0.950 . S
C1650 C1649 1.414 . S
C1650 C1651 1.374 . S
C1651 H1631 0.950 . S
C1651 C1647 1.385 . S
C1651 C1650 1.374 . S
C1652 C1649 1.499 . S
C1652 C1653 1.373 . S
C1652 C1654 1.389 . S
C1653 H1632 0.950 . S
C1653 C1652 1.373 . S
C1653 C1669 1.377 1_565 S
C1654 C1652 1.389 . S
C1654 C1655 1.524 . S
C1654 C1668 1.377 1_565 S
C1655 C1654 1.524 . S
C1655 C1656 1.397 . S
C1655 C1660 1.363 . S
C1656 H1633 0.950 . S
C1656 C1655 1.397 . S
C1656 C1657 1.334 . S
C1657 H1634 0.950 . S
C1657 C1656 1.334 . S
C1657 C1658 1.287 . S
C1658 C1657 1.287 . S
C1658 C1659 1.524 . S
C1658 H1677 0.913 . S
C1659 H1635 0.950 . S
C1659 C1658 1.524 . S
C1659 C1660 1.415 . S
C1660 H1636 0.950 . S
C1660 C1655 1.363 . S
C1660 C1659 1.415 . S
C1661 H1637 0.951 . S
C1661 C1662 1.366 . S
C1661 C1663 1.388 . S
C1662 C1661 1.366 . S
C1662 C1666 1.385 . S
C1663 H1638 0.951 . S
C1663 C1661 1.388 . S
C1663 C1664 1.366 . S
C1664 C1663 1.366 . S
C1664 C1665 1.414 . S
C1664 C1667 1.499 . S
C1665 H1639 0.950 . S
C1665 C1664 1.414 . S
C1665 C1666 1.374 . S
C1666 H1640 0.950 . S
C1666 C1662 1.385 . S
C1666 C1665 1.374 . S
C1667 C1664 1.499 . S
C1667 C1668 1.373 . S
C1667 C1669 1.389 . S
C1668 H1641 0.950 . S
C1668 C1654 1.377 1_545 S
C1668 C1667 1.373 . S
C1669 C1653 1.377 1_545 S
C1669 C1667 1.389 . S
C1669 C1670 1.524 . S
C1670 C1669 1.524 . S
C1670 C1671 1.397 . S
C1670 C1675 1.363 . S
C1671 H1642 0.950 . S
C1671 C1670 1.397 . S
C1671 C1672 1.334 . S
C1672 H1643 0.950 . S
C1672 C1671 1.334 . S
C1672 C1673 1.287 . S
C1673 C1672 1.287 . S
C1673 C1674 1.524 . S
C1673 H1676 0.999 . S
C1674 H1644 0.950 . S
C1674 C1673 1.524 . S
C1674 C1675 1.415 . S
C1675 H1645 0.950 . S
C1675 C1670 1.363 . S
C1675 C1674 1.415 . S
H1676 C1673 0.999 . S
H1677 C1658 0.913 . S
H1678 C1696 0.951 . S
H1679 C1698 0.951 . S
H1680 C1700 0.950 . S
H1681 C1701 0.950 . S
H1682 C1703 0.950 . S
H1683 C1706 0.950 . S
H1684 C1707 0.950 . S
H1685 C1709 0.950 . S
H1686 C1710 0.950 . S
H1687 C1711 0.951 . S
H1688 C1713 0.951 . S
H1689 C1715 0.950 . S
H1690 C1716 0.950 . S
H1691 C1718 0.950 . S
H1692 C1721 0.950 . S
H1693 C1722 0.950 . S
H1694 C1724 0.950 . S
H1695 C1725 0.950 . S
C1696 H1678 0.951 . S
C1696 C1697 1.366 . S
C1696 C1698 1.388 . S
C1697 C1696 1.366 . S
C1697 C1701 1.385 . S
C1698 H1679 0.951 . S
C1698 C1696 1.388 . S
C1698 C1699 1.366 . S
C1699 C1698 1.366 . S
C1699 C1700 1.414 . S
C1699 C1702 1.499 . S
C1700 H1680 0.950 . S
C1700 C1699 1.414 . S
C1700 C1701 1.374 . S
C1701 H1681 0.950 . S
C1701 C1697 1.385 . S
C1701 C1700 1.374 . S
C1702 C1699 1.499 . S
C1702 C1703 1.373 . S
C1702 C1704 1.389 . S
C1703 H1682 0.950 . S
C1703 C1702 1.373 . S
C1703 C1719 1.377 1_455 S
C1704 C1702 1.389 . S
C1704 C1705 1.524 . S
C1704 C1718 1.377 1_455 S
C1705 C1704 1.524 . S
C1705 C1706 1.397 . S
C1705 C1710 1.363 . S
C1706 H1683 0.950 . S
C1706 C1705 1.397 . S
C1706 C1707 1.334 . S
C1707 H1684 0.950 . S
C1707 C1706 1.334 . S
C1707 C1708 1.287 . S
C1708 C1707 1.287 . S
C1708 C1709 1.524 . S
C1708 H1727 0.913 . S
C1709 H1685 0.950 . S
C1709 C1708 1.524 . S
C1709 C1710 1.415 . S
C1710 H1686 0.950 . S
C1710 C1705 1.363 . S
C1710 C1709 1.415 . S
C1711 H1687 0.951 . S
C1711 C1712 1.366 . S
C1711 C1713 1.388 . S
C1712 C1711 1.366 . S
C1712 C1716 1.385 . S
C1713 H1688 0.951 . S
C1713 C1711 1.388 . S
C1713 C1714 1.366 . S
C1714 C1713 1.366 . S
C1714 C1715 1.414 . S
C1714 C1717 1.499 . S
C1715 H1689 0.950 . S
C1715 C1714 1.414 . S
C1715 C1716 1.374 . S
C1716 H1690 0.950 . S
C1716 C1712 1.385 . S
C1716 C1715 1.374 . S
C1717 C1714 1.499 . S
C1717 C1718 1.373 . S
C1717 C1719 1.389 . S
C1718 H1691 0.950 . S
C1718 C1704 1.377 1_655 S
C1718 C1717 1.373 . S
C1719 C1703 1.377 1_655 S
C1719 C1717 1.389 . S
C1719 C1720 1.524 . S
C1720 C1719 1.524 . S
C1720 C1721 1.397 . S
C1720 C1725 1.363 . S
C1721 H1692 0.950 . S
C1721 C1720 1.397 . S
C1721 C1722 1.334 . S
C1722 H1693 0.950 . S
C1722 C1721 1.334 . S
C1722 C1723 1.287 . S
C1723 C1722 1.287 . S
C1723 C1724 1.524 . S
C1723 H1726 0.999 . S
C1724 H1694 0.950 . S
C1724 C1723 1.524 . S
C1724 C1725 1.415 . S
C1725 H1695 0.950 . S
C1725 C1720 1.363 . S
C1725 C1724 1.415 . S
H1726 C1723 0.999 . S
H1727 C1708 0.913 . S
H1728 C1746 0.951 . S
H1729 C1748 0.951 . S
H1730 C1750 0.950 . S
H1731 C1751 0.950 . S
H1732 C1753 0.950 . S
H1733 C1756 0.950 . S
H1734 C1757 0.950 . S
H1735 C1759 0.950 . S
H1736 C1760 0.950 . S
H1737 C1761 0.951 . S
H1738 C1763 0.951 . S
H1739 C1765 0.950 . S
H1740 C1766 0.950 . S
H1741 C1768 0.950 . S
H1742 C1771 0.950 . S
H1743 C1772 0.950 . S
H1744 C1774 0.950 . S
H1745 C1775 0.950 . S
C1746 H1728 0.951 . S
C1746 C1747 1.366 . S
C1746 C1748 1.388 . S
C1747 C1746 1.366 . S
C1747 C1751 1.385 . S
C1748 H1729 0.951 . S
C1748 C1746 1.388 . S
C1748 C1749 1.366 . S
C1749 C1748 1.366 . S
C1749 C1750 1.414 . S
C1749 C1752 1.499 . S
C1750 H1730 0.950 . S
C1750 C1749 1.414 . S
C1750 C1751 1.374 . S
C1751 H1731 0.950 . S
C1751 C1747 1.385 . S
C1751 C1750 1.374 . S
C1752 C1749 1.499 . S
C1752 C1753 1.373 . S
C1752 C1754 1.389 . S
C1753 H1732 0.950 . S
C1753 C1752 1.373 . S
C1753 C1769 1.377 . S
C1754 C1752 1.389 . S
C1754 C1755 1.524 . S
C1754 C1768 1.377 . S
C1755 C1754 1.524 . S
C1755 C1756 1.397 . S
C1755 C1760 1.363 . S
C1756 H1733 0.950 . S
C1756 C1755 1.397 . S
C1756 C1757 1.334 . S
C1757 H1734 0.950 . S
C1757 C1756 1.334 . S
C1757 C1758 1.287 . S
C1758 C1757 1.287 . S
C1758 C1759 1.524 . S
C1758 H1777 0.913 . S
C1759 H1735 0.950 . S
C1759 C1758 1.524 . S
C1759 C1760 1.415 . S
C1760 H1736 0.950 . S
C1760 C1755 1.363 . S
C1760 C1759 1.415 . S
C1761 H1737 0.951 . S
C1761 C1762 1.366 . S
C1761 C1763 1.388 . S
C1762 C1761 1.366 . S
C1762 C1766 1.385 . S
C1763 H1738 0.951 . S
C1763 C1761 1.388 . S
C1763 C1764 1.366 . S
C1764 C1763 1.366 . S
C1764 C1765 1.414 . S
C1764 C1767 1.499 . S
C1765 H1739 0.950 . S
C1765 C1764 1.414 . S
C1765 C1766 1.374 . S
C1766 H1740 0.950 . S
C1766 C1762 1.385 . S
C1766 C1765 1.374 . S
C1767 C1764 1.499 . S
C1767 C1768 1.373 . S
C1767 C1769 1.389 . S
C1768 H1741 0.950 . S
C1768 C1754 1.377 . S
C1768 C1767 1.373 . S
C1769 C1753 1.377 . S
C1769 C1767 1.389 . S
C1769 C1770 1.524 . S
C1770 C1769 1.524 . S
C1770 C1771 1.397 . S
C1770 C1775 1.363 . S
C1771 H1742 0.950 . S
C1771 C1770 1.397 . S
C1771 C1772 1.334 . S
C1772 H1743 0.950 . S
C1772 C1771 1.334 . S
C1772 C1773 1.287 . S
C1773 C1772 1.287 . S
C1773 C1774 1.524 . S
C1773 H1776 0.999 . S
C1774 H1744 0.950 . S
C1774 C1773 1.524 . S
C1774 C1775 1.415 . S
C1775 H1745 0.950 . S
C1775 C1770 1.363 . S
C1775 C1774 1.415 . S
H1776 C1773 0.999 . S
H1777 C1758 0.913 . S
H1778 C1796 0.951 . S
H1779 C1798 0.951 . S
H1780 C1800 0.950 . S
H1781 C1801 0.950 . S
H1782 C1803 0.950 . S
H1783 C1806 0.950 . S
H1784 C1807 0.950 . S
H1785 C1809 0.950 . S
H1786 C1810 0.950 . S
H1787 C1811 0.951 . S
H1788 C1813 0.951 . S
H1789 C1815 0.950 . S
H1790 C1816 0.950 . S
H1791 C1818 0.950 . S
H1792 C1821 0.950 . S
H1793 C1822 0.950 . S
H1794 C1824 0.950 . S
H1795 C1825 0.950 . S
C1796 H1778 0.951 . S
C1796 C1797 1.366 . S
C1796 C1798 1.388 . S
C1797 C1796 1.366 . S
C1797 C1801 1.385 . S
C1798 H1779 0.951 . S
C1798 C1796 1.388 . S
C1798 C1799 1.366 . S
C1799 C1798 1.366 . S
C1799 C1800 1.414 . S
C1799 C1802 1.499 . S
C1800 H1780 0.950 . S
C1800 C1799 1.414 . S
C1800 C1801 1.374 . S
C1801 H1781 0.950 . S
C1801 C1797 1.385 . S
C1801 C1800 1.374 . S
C1802 C1799 1.499 . S
C1802 C1803 1.373 . S
C1802 C1804 1.389 . S
C1803 H1782 0.950 . S
C1803 C1802 1.373 . S
C1803 C1819 1.377 . S
C1804 C1802 1.389 . S
C1804 C1805 1.524 . S
C1804 C1818 1.377 . S
C1805 C1804 1.524 . S
C1805 C1806 1.397 . S
C1805 C1810 1.363 . S
C1806 H1783 0.950 . S
C1806 C1805 1.397 . S
C1806 C1807 1.334 . S
C1807 H1784 0.950 . S
C1807 C1806 1.334 . S
C1807 C1808 1.287 . S
C1808 C1807 1.287 . S
C1808 C1809 1.524 . S
C1808 H1827 0.913 . S
C1809 H1785 0.950 . S
C1809 C1808 1.524 . S
C1809 C1810 1.415 . S
C1810 H1786 0.950 . S
C1810 C1805 1.363 . S
C1810 C1809 1.415 . S
C1811 H1787 0.951 . S
C1811 C1812 1.366 . S
C1811 C1813 1.388 . S
C1812 C1811 1.366 . S
C1812 C1816 1.385 . S
C1813 H1788 0.951 . S
C1813 C1811 1.388 . S
C1813 C1814 1.366 . S
C1814 C1813 1.366 . S
C1814 C1815 1.414 . S
C1814 C1817 1.499 . S
C1815 H1789 0.950 . S
C1815 C1814 1.414 . S
C1815 C1816 1.374 . S
C1816 H1790 0.950 . S
C1816 C1812 1.385 . S
C1816 C1815 1.374 . S
C1817 C1814 1.499 . S
C1817 C1818 1.373 . S
C1817 C1819 1.389 . S
C1818 H1791 0.950 . S
C1818 C1804 1.377 . S
C1818 C1817 1.373 . S
C1819 C1803 1.377 . S
C1819 C1817 1.389 . S
C1819 C1820 1.524 . S
C1820 C1819 1.524 . S
C1820 C1821 1.397 . S
C1820 C1825 1.363 . S
C1821 H1792 0.950 . S
C1821 C1820 1.397 . S
C1821 C1822 1.334 . S
C1822 H1793 0.950 . S
C1822 C1821 1.334 . S
C1822 C1823 1.287 . S
C1823 C1822 1.287 . S
C1823 C1824 1.524 . S
C1823 H1826 0.999 . S
C1824 H1794 0.950 . S
C1824 C1823 1.524 . S
C1824 C1825 1.415 . S
C1825 H1795 0.950 . S
C1825 C1820 1.363 . S
C1825 C1824 1.415 . S
H1826 C1823 0.999 . S
H1827 C1808 0.913 . S
H1828 C1846 0.951 . S
H1829 C1848 0.951 . S
H1830 C1850 0.950 . S
H1831 C1851 0.950 . S
H1832 C1853 0.950 . S
H1833 C1856 0.950 . S
H1834 C1857 0.950 . S
H1835 C1859 0.950 . S
H1836 C1860 0.950 . S
H1837 C1861 0.951 . S
H1838 C1863 0.951 . S
H1839 C1865 0.950 . S
H1840 C1866 0.950 . S
H1841 C1868 0.950 . S
H1842 C1871 0.950 . S
H1843 C1872 0.950 . S
H1844 C1874 0.950 . S
H1845 C1875 0.950 . S
C1846 H1828 0.951 . S
C1846 C1847 1.366 . S
C1846 C1848 1.388 . S
C1847 C1846 1.366 . S
C1847 C1851 1.385 . S
C1848 H1829 0.951 . S
C1848 C1846 1.388 . S
C1848 C1849 1.366 . S
C1849 C1848 1.366 . S
C1849 C1850 1.414 . S
C1849 C1852 1.499 . S
C1850 H1830 0.950 . S
C1850 C1849 1.414 . S
C1850 C1851 1.374 . S
C1851 H1831 0.950 . S
C1851 C1847 1.385 . S
C1851 C1850 1.374 . S
C1852 C1849 1.499 . S
C1852 C1853 1.373 . S
C1852 C1854 1.389 . S
C1853 H1832 0.950 . S
C1853 C1852 1.373 . S
C1853 C1869 1.377 . S
C1854 C1852 1.389 . S
C1854 C1855 1.524 . S
C1854 C1868 1.377 . S
C1855 C1854 1.524 . S
C1855 C1856 1.397 . S
C1855 C1860 1.363 . S
C1856 H1833 0.950 . S
C1856 C1855 1.397 . S
C1856 C1857 1.334 . S
C1857 H1834 0.950 . S
C1857 C1856 1.334 . S
C1857 C1858 1.287 . S
C1858 C1857 1.287 . S
C1858 C1859 1.524 . S
C1858 H1877 0.913 . S
C1859 H1835 0.950 . S
C1859 C1858 1.524 . S
C1859 C1860 1.415 . S
C1860 H1836 0.950 . S
C1860 C1855 1.363 . S
C1860 C1859 1.415 . S
C1861 H1837 0.951 . S
C1861 C1862 1.366 . S
C1861 C1863 1.388 . S
C1862 C1861 1.366 . S
C1862 C1866 1.385 . S
C1863 H1838 0.951 . S
C1863 C1861 1.388 . S
C1863 C1864 1.366 . S
C1864 C1863 1.366 . S
C1864 C1865 1.414 . S
C1864 C1867 1.499 . S
C1865 H1839 0.950 . S
C1865 C1864 1.414 . S
C1865 C1866 1.374 . S
C1866 H1840 0.950 . S
C1866 C1862 1.385 . S
C1866 C1865 1.374 . S
C1867 C1864 1.499 . S
C1867 C1868 1.373 . S
C1867 C1869 1.389 . S
C1868 H1841 0.950 . S
C1868 C1854 1.377 . S
C1868 C1867 1.373 . S
C1869 C1853 1.377 . S
C1869 C1867 1.389 . S
C1869 C1870 1.524 . S
C1870 C1869 1.524 . S
C1870 C1871 1.397 . S
C1870 C1875 1.363 . S
C1871 H1842 0.950 . S
C1871 C1870 1.397 . S
C1871 C1872 1.334 . S
C1872 H1843 0.950 . S
C1872 C1871 1.334 . S
C1872 C1873 1.287 . S
C1873 C1872 1.287 . S
C1873 C1874 1.524 . S
C1873 H1876 0.999 . S
C1874 H1844 0.950 . S
C1874 C1873 1.524 . S
C1874 C1875 1.415 . S
C1875 H1845 0.950 . S
C1875 C1870 1.363 . S
C1875 C1874 1.415 . S
H1876 C1873 0.999 . S
H1877 C1858 0.913 . S
H1878 C1896 0.951 . S
H1879 C1898 0.951 . S
H1880 C1900 0.950 . S
H1881 C1901 0.950 . S
H1882 C1903 0.950 . S
H1883 C1906 0.950 . S
H1884 C1907 0.950 . S
H1885 C1909 0.950 . S
H1886 C1910 0.950 . S
H1887 C1911 0.951 . S
H1888 C1913 0.951 . S
H1889 C1915 0.950 . S
H1890 C1916 0.950 . S
H1891 C1918 0.950 . S
H1892 C1921 0.950 . S
H1893 C1922 0.950 . S
H1894 C1924 0.950 . S
H1895 C1925 0.950 . S
C1896 H1878 0.951 . S
C1896 C1897 1.366 . S
C1896 C1898 1.388 . S
C1897 C1896 1.366 . S
C1897 C1901 1.385 . S
C1898 H1879 0.951 . S
C1898 C1896 1.388 . S
C1898 C1899 1.366 . S
C1899 C1898 1.366 . S
C1899 C1900 1.414 . S
C1899 C1902 1.499 . S
C1900 H1880 0.950 . S
C1900 C1899 1.414 . S
C1900 C1901 1.374 . S
C1901 H1881 0.950 . S
C1901 C1897 1.385 . S
C1901 C1900 1.374 . S
C1902 C1899 1.499 . S
C1902 C1903 1.373 . S
C1902 C1904 1.389 . S
C1903 H1882 0.950 . S
C1903 C1902 1.373 . S
C1903 C1919 1.377 . S
C1904 C1902 1.389 . S
C1904 C1905 1.524 . S
C1904 C1918 1.377 . S
C1905 C1904 1.524 . S
C1905 C1906 1.397 . S
C1905 C1910 1.363 . S
C1906 H1883 0.950 . S
C1906 C1905 1.397 . S
C1906 C1907 1.334 . S
C1907 H1884 0.950 . S
C1907 C1906 1.334 . S
C1907 C1908 1.287 . S
C1908 C1907 1.287 . S
C1908 C1909 1.524 . S
C1908 H1927 0.913 1_565 S
C1909 H1885 0.950 . S
C1909 C1908 1.524 . S
C1909 C1910 1.415 . S
C1910 H1886 0.950 . S
C1910 C1905 1.363 . S
C1910 C1909 1.415 . S
C1911 H1887 0.951 . S
C1911 C1912 1.366 . S
C1911 C1913 1.388 . S
C1912 C1911 1.366 . S
C1912 C1916 1.385 . S
C1913 H1888 0.951 . S
C1913 C1911 1.388 . S
C1913 C1914 1.366 . S
C1914 C1913 1.366 . S
C1914 C1915 1.414 . S
C1914 C1917 1.499 . S
C1915 H1889 0.950 . S
C1915 C1914 1.414 . S
C1915 C1916 1.374 . S
C1916 H1890 0.950 . S
C1916 C1912 1.385 . S
C1916 C1915 1.374 . S
C1917 C1914 1.499 . S
C1917 C1918 1.373 . S
C1917 C1919 1.389 . S
C1918 H1891 0.950 . S
C1918 C1904 1.377 . S
C1918 C1917 1.373 . S
C1919 C1903 1.377 . S
C1919 C1917 1.389 . S
C1919 C1920 1.524 . S
C1920 C1919 1.524 . S
C1920 C1921 1.397 . S
C1920 C1925 1.363 . S
C1921 H1892 0.950 . S
C1921 C1920 1.397 . S
C1921 C1922 1.334 . S
C1922 H1893 0.950 . S
C1922 C1921 1.334 . S
C1922 C1923 1.287 . S
C1923 C1922 1.287 . S
C1923 C1924 1.524 . S
C1923 H1926 0.999 . S
C1924 H1894 0.950 . S
C1924 C1923 1.524 . S
C1924 C1925 1.415 . S
C1925 H1895 0.950 . S
C1925 C1920 1.363 . S
C1925 C1924 1.415 . S
H1926 C1923 0.999 . S
H1927 C1908 0.913 1_545 S
H1928 C1946 0.951 . S
H1929 C1948 0.951 . S
H1930 C1950 0.950 . S
H1931 C1951 0.950 . S
H1932 C1953 0.950 . S
H1933 C1956 0.950 . S
H1934 C1957 0.950 . S
H1935 C1959 0.950 . S
H1936 C1960 0.950 . S
H1937 C1961 0.951 . S
H1938 C1963 0.951 . S
H1939 C1965 0.950 . S
H1940 C1966 0.950 . S
H1941 C1968 0.950 . S
H1942 C1971 0.950 . S
H1943 C1972 0.950 . S
H1944 C1974 0.950 . S
H1945 C1975 0.950 . S
C1946 H1928 0.951 . S
C1946 C1947 1.366 . S
C1946 C1948 1.388 . S
C1947 C1946 1.366 . S
C1947 C1951 1.385 . S
C1948 H1929 0.951 . S
C1948 C1946 1.388 . S
C1948 C1949 1.366 . S
C1949 C1948 1.366 . S
C1949 C1950 1.414 . S
C1949 C1952 1.499 . S
C1950 H1930 0.950 . S
C1950 C1949 1.414 . S
C1950 C1951 1.374 . S
C1951 H1931 0.950 . S
C1951 C1947 1.385 . S
C1951 C1950 1.374 . S
C1952 C1949 1.499 . S
C1952 C1953 1.373 . S
C1952 C1954 1.389 . S
C1953 H1932 0.950 . S
C1953 C1952 1.373 . S
C1953 C1969 1.377 . S
C1954 C1952 1.389 . S
C1954 C1955 1.524 . S
C1954 C1968 1.377 . S
C1955 C1954 1.524 . S
C1955 C1956 1.397 . S
C1955 C1960 1.363 . S
C1956 H1933 0.950 . S
C1956 C1955 1.397 . S
C1956 C1957 1.334 . S
C1957 H1934 0.950 . S
C1957 C1956 1.334 . S
C1957 C1958 1.287 . S
C1958 C1957 1.287 . S
C1958 C1959 1.524 . S
C1958 H1977 0.913 . S
C1959 H1935 0.950 . S
C1959 C1958 1.524 . S
C1959 C1960 1.415 . S
C1960 H1936 0.950 . S
C1960 C1955 1.363 . S
C1960 C1959 1.415 . S
C1961 H1937 0.951 . S
C1961 C1962 1.366 . S
C1961 C1963 1.388 . S
C1962 C1961 1.366 . S
C1962 C1966 1.385 . S
C1963 H1938 0.951 . S
C1963 C1961 1.388 . S
C1963 C1964 1.366 . S
C1964 C1963 1.366 . S
C1964 C1965 1.414 . S
C1964 C1967 1.499 . S
C1965 H1939 0.950 . S
C1965 C1964 1.414 . S
C1965 C1966 1.374 . S
C1966 H1940 0.950 . S
C1966 C1962 1.385 . S
C1966 C1965 1.374 . S
C1967 C1964 1.499 . S
C1967 C1968 1.373 . S
C1967 C1969 1.389 . S
C1968 H1941 0.950 . S
C1968 C1954 1.377 . S
C1968 C1967 1.373 . S
C1969 C1953 1.377 . S
C1969 C1967 1.389 . S
C1969 C1970 1.524 . S
C1970 C1969 1.524 . S
C1970 C1971 1.397 . S
C1970 C1975 1.363 . S
C1971 H1942 0.950 . S
C1971 C1970 1.397 . S
C1971 C1972 1.334 . S
C1972 H1943 0.950 . S
C1972 C1971 1.334 . S
C1972 C1973 1.287 . S
C1973 C1972 1.287 . S
C1973 C1974 1.524 . S
C1973 H1976 0.999 . S
C1974 H1944 0.950 . S
C1974 C1973 1.524 . S
C1974 C1975 1.415 . S
C1975 H1945 0.950 . S
C1975 C1970 1.363 . S
C1975 C1974 1.415 . S
H1976 C1973 0.999 . S
H1977 C1958 0.913 . S
H1978 C1996 0.951 . S
H1979 C1998 0.951 . S
H1980 C2000 0.950 . S
H1981 C2001 0.950 . S
H1982 C2003 0.950 . S
H1983 C2006 0.950 . S
H1984 C2007 0.950 . S
H1985 C2009 0.950 . S
H1986 C2010 0.950 . S
H1987 C2011 0.951 . S
H1988 C2013 0.951 . S
H1989 C2015 0.950 . S
H1990 C2016 0.950 . S
H1991 C2018 0.950 . S
H1992 C2021 0.950 . S
H1993 C2022 0.950 . S
H1994 C2024 0.950 . S
H1995 C2025 0.950 . S
C1996 H1978 0.951 . S
C1996 C1997 1.366 . S
C1996 C1998 1.388 . S
C1997 C1996 1.366 . S
C1997 C2001 1.385 . S
C1998 H1979 0.951 . S
C1998 C1996 1.388 . S
C1998 C1999 1.366 . S
C1999 C1998 1.366 . S
C1999 C2000 1.414 . S
C1999 C2002 1.499 . S
C2000 H1980 0.950 . S
C2000 C1999 1.414 . S
C2000 C2001 1.374 . S
C2001 H1981 0.950 . S
C2001 C1997 1.385 . S
C2001 C2000 1.374 . S
C2002 C1999 1.499 . S
C2002 C2003 1.373 . S
C2002 C2004 1.389 . S
C2003 H1982 0.950 . S
C2003 C2002 1.373 . S
C2003 C2019 1.377 . S
C2004 C2002 1.389 . S
C2004 C2005 1.524 . S
C2004 C2018 1.377 . S
C2005 C2004 1.524 . S
C2005 C2006 1.397 . S
C2005 C2010 1.363 . S
C2006 H1983 0.950 . S
C2006 C2005 1.397 . S
C2006 C2007 1.334 . S
C2007 H1984 0.950 . S
C2007 C2006 1.334 . S
C2007 C2008 1.287 . S
C2008 C2007 1.287 . S
C2008 C2009 1.524 . S
C2008 H2027 0.913 . S
C2009 H1985 0.950 . S
C2009 C2008 1.524 . S
C2009 C2010 1.415 . S
C2010 H1986 0.950 . S
C2010 C2005 1.363 . S
C2010 C2009 1.415 . S
C2011 H1987 0.951 . S
C2011 C2012 1.366 . S
C2011 C2013 1.388 . S
C2012 C2011 1.366 . S
C2012 C2016 1.385 . S
C2013 H1988 0.951 . S
C2013 C2011 1.388 . S
C2013 C2014 1.366 . S
C2014 C2013 1.366 . S
C2014 C2015 1.414 . S
C2014 C2017 1.499 . S
C2015 H1989 0.950 . S
C2015 C2014 1.414 . S
C2015 C2016 1.374 . S
C2016 H1990 0.950 . S
C2016 C2012 1.385 . S
C2016 C2015 1.374 . S
C2017 C2014 1.499 . S
C2017 C2018 1.373 . S
C2017 C2019 1.389 . S
C2018 H1991 0.950 . S
C2018 C2004 1.377 . S
C2018 C2017 1.373 . S
C2019 C2003 1.377 . S
C2019 C2017 1.389 . S
C2019 C2020 1.524 . S
C2020 C2019 1.524 . S
C2020 C2021 1.397 . S
C2020 C2025 1.363 . S
C2021 H1992 0.950 . S
C2021 C2020 1.397 . S
C2021 C2022 1.334 . S
C2022 H1993 0.950 . S
C2022 C2021 1.334 . S
C2022 C2023 1.287 . S
C2023 C2022 1.287 . S
C2023 C2024 1.524 . S
C2023 H2026 0.999 . S
C2024 H1994 0.950 . S
C2024 C2023 1.524 . S
C2024 C2025 1.415 . S
C2025 H1995 0.950 . S
C2025 C2020 1.363 . S
C2025 C2024 1.415 . S
H2026 C2023 0.999 . S
H2027 C2008 0.913 . S
H2028 C2046 0.951 . S
H2029 C2048 0.951 . S
H2030 C2050 0.950 . S
H2031 C2051 0.950 . S
H2032 C2053 0.950 . S
H2033 C2056 0.950 . S
H2034 C2057 0.950 . S
H2035 C2059 0.950 . S
H2036 C2060 0.950 . S
H2037 C2061 0.951 . S
H2038 C2063 0.951 . S
H2039 C2065 0.950 . S
H2040 C2066 0.950 . S
H2041 C2068 0.950 . S
H2042 C2071 0.950 . S
H2043 C2072 0.950 . S
H2044 C2074 0.950 . S
H2045 C2075 0.950 . S
C2046 H2028 0.951 . S
C2046 C2047 1.366 . S
C2046 C2048 1.388 . S
C2047 C2046 1.366 . S
C2047 C2051 1.385 . S
C2048 H2029 0.951 . S
C2048 C2046 1.388 . S
C2048 C2049 1.366 . S
C2049 C2048 1.366 . S
C2049 C2050 1.414 . S
C2049 C2052 1.499 . S
C2050 H2030 0.950 . S
C2050 C2049 1.414 . S
C2050 C2051 1.374 . S
C2051 H2031 0.950 . S
C2051 C2047 1.385 . S
C2051 C2050 1.374 . S
C2052 C2049 1.499 . S
C2052 C2053 1.373 . S
C2052 C2054 1.389 . S
C2053 H2032 0.950 . S
C2053 C2052 1.373 . S
C2053 C2069 1.377 . S
C2054 C2052 1.389 . S
C2054 C2055 1.524 . S
C2054 C2068 1.377 . S
C2055 C2054 1.524 . S
C2055 C2056 1.397 . S
C2055 C2060 1.363 . S
C2056 H2033 0.950 . S
C2056 C2055 1.397 . S
C2056 C2057 1.334 . S
C2057 H2034 0.950 . S
C2057 C2056 1.334 . S
C2057 C2058 1.287 . S
C2058 C2057 1.287 . S
C2058 C2059 1.524 . S
C2058 H2077 0.913 . S
C2059 H2035 0.950 . S
C2059 C2058 1.524 . S
C2059 C2060 1.415 . S
C2060 H2036 0.950 . S
C2060 C2055 1.363 . S
C2060 C2059 1.415 . S
C2061 H2037 0.951 . S
C2061 C2062 1.366 . S
C2061 C2063 1.388 . S
C2062 C2061 1.366 . S
C2062 C2066 1.385 . S
C2063 H2038 0.951 . S
C2063 C2061 1.388 . S
C2063 C2064 1.366 . S
C2064 C2063 1.366 . S
C2064 C2065 1.414 . S
C2064 C2067 1.499 . S
C2065 H2039 0.950 . S
C2065 C2064 1.414 . S
C2065 C2066 1.374 . S
C2066 H2040 0.950 . S
C2066 C2062 1.385 . S
C2066 C2065 1.374 . S
C2067 C2064 1.499 . S
C2067 C2068 1.373 . S
C2067 C2069 1.389 . S
C2068 H2041 0.950 . S
C2068 C2054 1.377 . S
C2068 C2067 1.373 . S
C2069 C2053 1.377 . S
C2069 C2067 1.389 . S
C2069 C2070 1.524 . S
C2070 C2069 1.524 . S
C2070 C2071 1.397 . S
C2070 C2075 1.363 . S
C2071 H2042 0.950 . S
C2071 C2070 1.397 . S
C2071 C2072 1.334 . S
C2072 H2043 0.950 . S
C2072 C2071 1.334 . S
C2072 C2073 1.287 . S
C2073 C2072 1.287 . S
C2073 C2074 1.524 . S
C2073 H2076 0.999 1_655 S
C2074 H2044 0.950 . S
C2074 C2073 1.524 . S
C2074 C2075 1.415 . S
C2075 H2045 0.950 . S
C2075 C2070 1.363 . S
C2075 C2074 1.415 . S
H2076 C2073 0.999 1_455 S
H2077 C2058 0.913 . S
H2078 C2096 0.951 . S
H2079 C2098 0.951 . S
H2080 C2100 0.950 . S
H2081 C2101 0.950 . S
H2082 C2103 0.950 . S
H2083 C2106 0.950 . S
H2084 C2107 0.950 . S
H2085 C2109 0.950 . S
H2086 C2110 0.950 . S
H2087 C2111 0.951 . S
H2088 C2113 0.951 . S
H2089 C2115 0.950 . S
H2090 C2116 0.950 . S
H2091 C2118 0.950 . S
H2092 C2121 0.950 . S
H2093 C2122 0.950 . S
H2094 C2124 0.950 . S
H2095 C2125 0.950 . S
C2096 H2078 0.951 . S
C2096 C2097 1.366 . S
C2096 C2098 1.388 . S
C2097 C2096 1.366 . S
C2097 C2101 1.385 . S
C2098 H2079 0.951 . S
C2098 C2096 1.388 . S
C2098 C2099 1.366 . S
C2099 C2098 1.366 . S
C2099 C2100 1.414 . S
C2099 C2102 1.499 . S
C2100 H2080 0.950 . S
C2100 C2099 1.414 . S
C2100 C2101 1.374 . S
C2101 H2081 0.950 . S
C2101 C2097 1.385 . S
C2101 C2100 1.374 . S
C2102 C2099 1.499 . S
C2102 C2103 1.373 . S
C2102 C2104 1.389 . S
C2103 H2082 0.950 . S
C2103 C2102 1.373 . S
C2103 C2119 1.377 . S
C2104 C2102 1.389 . S
C2104 C2105 1.524 . S
C2104 C2118 1.377 . S
C2105 C2104 1.524 . S
C2105 C2106 1.397 . S
C2105 C2110 1.363 . S
C2106 H2083 0.950 . S
C2106 C2105 1.397 . S
C2106 C2107 1.334 . S
C2107 H2084 0.950 . S
C2107 C2106 1.334 . S
C2107 C2108 1.287 . S
C2108 C2107 1.287 . S
C2108 C2109 1.524 . S
C2108 H2127 0.913 . S
C2109 H2085 0.950 . S
C2109 C2108 1.524 . S
C2109 C2110 1.415 . S
C2110 H2086 0.950 . S
C2110 C2105 1.363 . S
C2110 C2109 1.415 . S
C2111 H2087 0.951 . S
C2111 C2112 1.366 . S
C2111 C2113 1.388 . S
C2112 C2111 1.366 . S
C2112 C2116 1.385 . S
C2113 H2088 0.951 . S
C2113 C2111 1.388 . S
C2113 C2114 1.366 . S
C2114 C2113 1.366 . S
C2114 C2115 1.414 . S
C2114 C2117 1.499 . S
C2115 H2089 0.950 . S
C2115 C2114 1.414 . S
C2115 C2116 1.374 . S
C2116 H2090 0.950 . S
C2116 C2112 1.385 . S
C2116 C2115 1.374 . S
C2117 C2114 1.499 . S
C2117 C2118 1.373 . S
C2117 C2119 1.389 . S
C2118 H2091 0.950 . S
C2118 C2104 1.377 . S
C2118 C2117 1.373 . S
C2119 C2103 1.377 . S
C2119 C2117 1.389 . S
C2119 C2120 1.524 . S
C2120 C2119 1.524 . S
C2120 C2121 1.397 . S
C2120 C2125 1.363 . S
C2121 H2092 0.950 . S
C2121 C2120 1.397 . S
C2121 C2122 1.334 . S
C2122 H2093 0.950 . S
C2122 C2121 1.334 . S
C2122 C2123 1.287 . S
C2123 C2122 1.287 . S
C2123 C2124 1.524 . S
C2123 H2126 0.999 . S
C2124 H2094 0.950 . S
C2124 C2123 1.524 . S
C2124 C2125 1.415 . S
C2125 H2095 0.950 . S
C2125 C2120 1.363 . S
C2125 C2124 1.415 . S
H2126 C2123 0.999 . S
H2127 C2108 0.913 . S
H2128 C2146 0.951 . S
H2129 C2148 0.951 . S
H2130 C2150 0.950 . S
H2131 C2151 0.950 . S
H2132 C2153 0.950 . S
H2133 C2156 0.950 . S
H2134 C2157 0.950 . S
H2135 C2159 0.950 . S
H2136 C2160 0.950 . S
H2137 C2161 0.951 . S
H2138 C2163 0.951 . S
H2139 C2165 0.950 . S
H2140 C2166 0.950 . S
H2141 C2168 0.950 . S
H2142 C2171 0.950 . S
H2143 C2172 0.950 . S
H2144 C2174 0.950 . S
H2145 C2175 0.950 . S
C2146 H2128 0.951 . S
C2146 C2147 1.366 . S
C2146 C2148 1.388 . S
C2147 C2146 1.366 . S
C2147 C2151 1.385 . S
C2148 H2129 0.951 . S
C2148 C2146 1.388 . S
C2148 C2149 1.366 . S
C2149 C2148 1.366 . S
C2149 C2150 1.414 . S
C2149 C2152 1.499 . S
C2150 H2130 0.950 . S
C2150 C2149 1.414 . S
C2150 C2151 1.374 . S
C2151 H2131 0.950 . S
C2151 C2147 1.385 . S
C2151 C2150 1.374 . S
C2152 C2149 1.499 . S
C2152 C2153 1.373 . S
C2152 C2154 1.389 . S
C2153 H2132 0.950 . S
C2153 C2152 1.373 . S
C2153 C2169 1.377 . S
C2154 C2152 1.389 . S
C2154 C2155 1.524 . S
C2154 C2168 1.377 . S
C2155 C2154 1.524 . S
C2155 C2156 1.397 . S
C2155 C2160 1.363 . S
C2156 H2133 0.950 . S
C2156 C2155 1.397 . S
C2156 C2157 1.334 . S
C2157 H2134 0.950 . S
C2157 C2156 1.334 . S
C2157 C2158 1.287 . S
C2158 C2157 1.287 . S
C2158 C2159 1.524 . S
C2158 H2177 0.913 . S
C2159 H2135 0.950 . S
C2159 C2158 1.524 . S
C2159 C2160 1.415 . S
C2160 H2136 0.950 . S
C2160 C2155 1.363 . S
C2160 C2159 1.415 . S
C2161 H2137 0.951 . S
C2161 C2162 1.366 . S
C2161 C2163 1.388 . S
C2162 C2161 1.366 . S
C2162 C2166 1.385 . S
C2163 H2138 0.951 . S
C2163 C2161 1.388 . S
C2163 C2164 1.366 . S
C2164 C2163 1.366 . S
C2164 C2165 1.414 . S
C2164 C2167 1.499 . S
C2165 H2139 0.950 . S
C2165 C2164 1.414 . S
C2165 C2166 1.374 . S
C2166 H2140 0.950 . S
C2166 C2162 1.385 . S
C2166 C2165 1.374 . S
C2167 C2164 1.499 . S
C2167 C2168 1.373 . S
C2167 C2169 1.389 . S
C2168 H2141 0.950 . S
C2168 C2154 1.377 . S
C2168 C2167 1.373 . S
C2169 C2153 1.377 . S
C2169 C2167 1.389 . S
C2169 C2170 1.524 . S
C2170 C2169 1.524 . S
C2170 C2171 1.397 . S
C2170 C2175 1.363 . S
C2171 H2142 0.950 . S
C2171 C2170 1.397 . S
C2171 C2172 1.334 . S
C2172 H2143 0.950 . S
C2172 C2171 1.334 . S
C2172 C2173 1.287 . S
C2173 C2172 1.287 . S
C2173 C2174 1.524 . S
C2173 H2176 0.999 1_545 S
C2174 H2144 0.950 . S
C2174 C2173 1.524 . S
C2174 C2175 1.415 . S
C2175 H2145 0.950 . S
C2175 C2170 1.363 . S
C2175 C2174 1.415 . S
H2176 C2173 0.999 1_565 S
H2177 C2158 0.913 . S
H2178 C2196 0.951 . S
H2179 C2198 0.951 . S
H2180 C2200 0.950 . S
H2181 C2201 0.950 . S
H2182 C2203 0.950 . S
H2183 C2206 0.950 . S
H2184 C2207 0.950 . S
H2185 C2209 0.950 . S
H2186 C2210 0.950 . S
H2187 C2211 0.951 . S
H2188 C2213 0.951 . S
H2189 C2215 0.950 . S
H2190 C2216 0.950 . S
H2191 C2218 0.950 . S
H2192 C2221 0.950 . S
H2193 C2222 0.950 . S
H2194 C2224 0.950 . S
H2195 C2225 0.950 . S
C2196 H2178 0.951 . S
C2196 C2197 1.366 . S
C2196 C2198 1.388 . S
C2197 C2196 1.366 . S
C2197 C2201 1.385 . S
C2198 H2179 0.951 . S
C2198 C2196 1.388 . S
C2198 C2199 1.366 . S
C2199 C2198 1.366 . S
C2199 C2200 1.414 . S
C2199 C2202 1.499 . S
C2200 H2180 0.950 . S
C2200 C2199 1.414 . S
C2200 C2201 1.374 . S
C2201 H2181 0.950 . S
C2201 C2197 1.385 . S
C2201 C2200 1.374 . S
C2202 C2199 1.499 . S
C2202 C2203 1.373 . S
C2202 C2204 1.389 . S
C2203 H2182 0.950 . S
C2203 C2202 1.373 . S
C2203 C2219 1.377 . S
C2204 C2202 1.389 . S
C2204 C2205 1.524 . S
C2204 C2218 1.377 . S
C2205 C2204 1.524 . S
C2205 C2206 1.397 . S
C2205 C2210 1.363 . S
C2206 H2183 0.950 . S
C2206 C2205 1.397 . S
C2206 C2207 1.334 . S
C2207 H2184 0.950 . S
C2207 C2206 1.334 . S
C2207 C2208 1.287 . S
C2208 C2207 1.287 . S
C2208 C2209 1.524 . S
C2208 H2227 0.913 . S
C2209 H2185 0.950 . S
C2209 C2208 1.524 . S
C2209 C2210 1.415 . S
C2210 H2186 0.950 . S
C2210 C2205 1.363 . S
C2210 C2209 1.415 . S
C2211 H2187 0.951 . S
C2211 C2212 1.366 . S
C2211 C2213 1.388 . S
C2212 C2211 1.366 . S
C2212 C2216 1.385 . S
C2213 H2188 0.951 . S
C2213 C2211 1.388 . S
C2213 C2214 1.366 . S
C2214 C2213 1.366 . S
C2214 C2215 1.414 . S
C2214 C2217 1.499 . S
C2215 H2189 0.950 . S
C2215 C2214 1.414 . S
C2215 C2216 1.374 . S
C2216 H2190 0.950 . S
C2216 C2212 1.385 . S
C2216 C2215 1.374 . S
C2217 C2214 1.499 . S
C2217 C2218 1.373 . S
C2217 C2219 1.389 . S
C2218 H2191 0.950 . S
C2218 C2204 1.377 . S
C2218 C2217 1.373 . S
C2219 C2203 1.377 . S
C2219 C2217 1.389 . S
C2219 C2220 1.524 . S
C2220 C2219 1.524 . S
C2220 C2221 1.397 . S
C2220 C2225 1.363 . S
C2221 H2192 0.950 . S
C2221 C2220 1.397 . S
C2221 C2222 1.334 . S
C2222 H2193 0.950 . S
C2222 C2221 1.334 . S
C2222 C2223 1.287 . S
C2223 C2222 1.287 . S
C2223 C2224 1.524 . S
C2223 H2226 0.999 . S
C2224 H2194 0.950 . S
C2224 C2223 1.524 . S
C2224 C2225 1.415 . S
C2225 H2195 0.950 . S
C2225 C2220 1.363 . S
C2225 C2224 1.415 . S
H2226 C2223 0.999 . S
H2227 C2208 0.913 . S
H2228 C2246 0.951 . S
H2229 C2248 0.951 . S
H2230 C2250 0.950 . S
H2231 C2251 0.950 . S
H2232 C2253 0.950 . S
H2233 C2256 0.950 . S
H2234 C2257 0.950 . S
H2235 C2259 0.950 . S
H2236 C2260 0.950 . S
H2237 C2261 0.951 . S
H2238 C2263 0.951 . S
H2239 C2265 0.950 . S
H2240 C2266 0.950 . S
H2241 C2268 0.950 . S
H2242 C2271 0.950 . S
H2243 C2272 0.950 . S
H2244 C2274 0.950 . S
H2245 C2275 0.950 . S
C2246 H2228 0.951 . S
C2246 C2247 1.366 . S
C2246 C2248 1.388 . S
C2247 C2246 1.366 . S
C2247 C2251 1.385 . S
C2248 H2229 0.951 . S
C2248 C2246 1.388 . S
C2248 C2249 1.366 . S
C2249 C2248 1.366 . S
C2249 C2250 1.414 . S
C2249 C2252 1.499 . S
C2250 H2230 0.950 . S
C2250 C2249 1.414 . S
C2250 C2251 1.374 . S
C2251 H2231 0.950 . S
C2251 C2247 1.385 . S
C2251 C2250 1.374 . S
C2252 C2249 1.499 . S
C2252 C2253 1.373 . S
C2252 C2254 1.389 . S
C2253 H2232 0.950 . S
C2253 C2252 1.373 . S
C2253 C2269 1.377 . S
C2254 C2252 1.389 . S
C2254 C2255 1.524 . S
C2254 C2268 1.377 . S
C2255 C2254 1.524 . S
C2255 C2256 1.397 . S
C2255 C2260 1.363 . S
C2256 H2233 0.950 . S
C2256 C2255 1.397 . S
C2256 C2257 1.334 . S
C2257 H2234 0.950 . S
C2257 C2256 1.334 . S
C2257 C2258 1.287 . S
C2258 C2257 1.287 . S
C2258 C2259 1.524 . S
C2258 H2277 0.913 . S
C2259 H2235 0.950 . S
C2259 C2258 1.524 . S
C2259 C2260 1.415 . S
C2260 H2236 0.950 . S
C2260 C2255 1.363 . S
C2260 C2259 1.415 . S
C2261 H2237 0.951 . S
C2261 C2262 1.366 . S
C2261 C2263 1.388 . S
C2262 C2261 1.366 . S
C2262 C2266 1.385 . S
C2263 H2238 0.951 . S
C2263 C2261 1.388 . S
C2263 C2264 1.366 . S
C2264 C2263 1.366 . S
C2264 C2265 1.414 . S
C2264 C2267 1.499 . S
C2265 H2239 0.950 . S
C2265 C2264 1.414 . S
C2265 C2266 1.374 . S
C2266 H2240 0.950 . S
C2266 C2262 1.385 . S
C2266 C2265 1.374 . S
C2267 C2264 1.499 . S
C2267 C2268 1.373 . S
C2267 C2269 1.389 . S
C2268 H2241 0.950 . S
C2268 C2254 1.377 . S
C2268 C2267 1.373 . S
C2269 C2253 1.377 . S
C2269 C2267 1.389 . S
C2269 C2270 1.524 . S
C2270 C2269 1.524 . S
C2270 C2271 1.397 . S
C2270 C2275 1.363 . S
C2271 H2242 0.950 . S
C2271 C2270 1.397 . S
C2271 C2272 1.334 . S
C2272 H2243 0.950 . S
C2272 C2271 1.334 . S
C2272 C2273 1.287 . S
C2273 C2272 1.287 . S
C2273 C2274 1.524 . S
C2273 H2276 0.999 . S
C2274 H2244 0.950 . S
C2274 C2273 1.524 . S
C2274 C2275 1.415 . S
C2275 H2245 0.950 . S
C2275 C2270 1.363 . S
C2275 C2274 1.415 . S
H2276 C2273 0.999 . S
H2277 C2258 0.913 . S
H2278 C2296 0.951 . S
H2279 C2298 0.951 . S
H2280 C2300 0.950 . S
H2281 C2301 0.950 . S
H2282 C2303 0.950 . S
H2283 C2306 0.950 . S
H2284 C2307 0.950 . S
H2285 C2309 0.950 . S
H2286 C2310 0.950 . S
H2287 C2311 0.951 . S
H2288 C2313 0.951 . S
H2289 C2315 0.950 . S
H2290 C2316 0.950 . S
H2291 C2318 0.950 . S
H2292 C2321 0.950 . S
H2293 C2322 0.950 . S
H2294 C2324 0.950 . S
H2295 C2325 0.950 . S
C2296 H2278 0.951 . S
C2296 C2297 1.366 . S
C2296 C2298 1.388 . S
C2297 C2296 1.366 . S
C2297 C2301 1.385 . S
C2298 H2279 0.951 . S
C2298 C2296 1.388 . S
C2298 C2299 1.366 . S
C2299 C2298 1.366 . S
C2299 C2300 1.414 . S
C2299 C2302 1.499 . S
C2300 H2280 0.950 . S
C2300 C2299 1.414 . S
C2300 C2301 1.374 . S
C2301 H2281 0.950 . S
C2301 C2297 1.385 . S
C2301 C2300 1.374 . S
C2302 C2299 1.499 . S
C2302 C2303 1.373 . S
C2302 C2304 1.389 . S
C2303 H2282 0.950 . S
C2303 C2302 1.373 . S
C2303 C2319 1.377 . S
C2304 C2302 1.389 . S
C2304 C2305 1.524 . S
C2304 C2318 1.377 . S
C2305 C2304 1.524 . S
C2305 C2306 1.397 . S
C2305 C2310 1.363 . S
C2306 H2283 0.950 . S
C2306 C2305 1.397 . S
C2306 C2307 1.334 . S
C2307 H2284 0.950 . S
C2307 C2306 1.334 . S
C2307 C2308 1.287 . S
C2308 C2307 1.287 . S
C2308 C2309 1.524 . S
C2308 H2327 0.913 . S
C2309 H2285 0.950 . S
C2309 C2308 1.524 . S
C2309 C2310 1.415 . S
C2310 H2286 0.950 . S
C2310 C2305 1.363 . S
C2310 C2309 1.415 . S
C2311 H2287 0.951 . S
C2311 C2312 1.366 . S
C2311 C2313 1.388 . S
C2312 C2311 1.366 . S
C2312 C2316 1.385 . S
C2313 H2288 0.951 . S
C2313 C2311 1.388 . S
C2313 C2314 1.366 . S
C2314 C2313 1.366 . S
C2314 C2315 1.414 . S
C2314 C2317 1.499 . S
C2315 H2289 0.950 . S
C2315 C2314 1.414 . S
C2315 C2316 1.374 . S
C2316 H2290 0.950 . S
C2316 C2312 1.385 . S
C2316 C2315 1.374 . S
C2317 C2314 1.499 . S
C2317 C2318 1.373 . S
C2317 C2319 1.389 . S
C2318 H2291 0.950 . S
C2318 C2304 1.377 . S
C2318 C2317 1.373 . S
C2319 C2303 1.377 . S
C2319 C2317 1.389 . S
C2319 C2320 1.524 . S
C2320 C2319 1.524 . S
C2320 C2321 1.397 . S
C2320 C2325 1.363 . S
C2321 H2292 0.950 . S
C2321 C2320 1.397 . S
C2321 C2322 1.334 . S
C2322 H2293 0.950 . S
C2322 C2321 1.334 . S
C2322 C2323 1.287 . S
C2323 C2322 1.287 . S
C2323 C2324 1.524 . S
C2323 H2326 0.999 . S
C2324 H2294 0.950 . S
C2324 C2323 1.524 . S
C2324 C2325 1.415 . S
C2325 H2295 0.950 . S
C2325 C2320 1.363 . S
C2325 C2324 1.415 . S
H2326 C2323 0.999 . S
H2327 C2308 0.913 . S
H2328 C2346 0.951 . S
H2329 C2348 0.951 . S
H2330 C2350 0.950 . S
H2331 C2351 0.950 . S
H2332 C2353 0.950 . S
H2333 C2356 0.950 . S
H2334 C2357 0.950 . S
H2335 C2359 0.950 . S
H2336 C2360 0.950 . S
H2337 C2361 0.951 . S
H2338 C2363 0.951 . S
H2339 C2365 0.950 . S
H2340 C2366 0.950 . S
H2341 C2368 0.950 . S
H2342 C2371 0.950 . S
H2343 C2372 0.950 . S
H2344 C2374 0.950 . S
H2345 C2375 0.950 . S
C2346 H2328 0.951 . S
C2346 C2347 1.366 . S
C2346 C2348 1.388 . S
C2347 C2346 1.366 . S
C2347 C2351 1.385 . S
C2348 H2329 0.951 . S
C2348 C2346 1.388 . S
C2348 C2349 1.366 . S
C2349 C2348 1.366 . S
C2349 C2350 1.414 . S
C2349 C2352 1.499 . S
C2350 H2330 0.950 . S
C2350 C2349 1.414 . S
C2350 C2351 1.374 . S
C2351 H2331 0.950 . S
C2351 C2347 1.385 . S
C2351 C2350 1.374 . S
C2352 C2349 1.499 . S
C2352 C2353 1.373 . S
C2352 C2354 1.389 . S
C2353 H2332 0.950 . S
C2353 C2352 1.373 . S
C2353 C2369 1.377 . S
C2354 C2352 1.389 . S
C2354 C2355 1.524 . S
C2354 C2368 1.377 . S
C2355 C2354 1.524 . S
C2355 C2356 1.397 . S
C2355 C2360 1.363 . S
C2356 H2333 0.950 . S
C2356 C2355 1.397 . S
C2356 C2357 1.334 . S
C2357 H2334 0.950 . S
C2357 C2356 1.334 . S
C2357 C2358 1.287 . S
C2358 C2357 1.287 . S
C2358 C2359 1.524 . S
C2358 H2377 0.913 . S
C2359 H2335 0.950 . S
C2359 C2358 1.524 . S
C2359 C2360 1.415 . S
C2360 H2336 0.950 . S
C2360 C2355 1.363 . S
C2360 C2359 1.415 . S
C2361 H2337 0.951 . S
C2361 C2362 1.366 . S
C2361 C2363 1.388 . S
C2362 C2361 1.366 . S
C2362 C2366 1.385 . S
C2363 H2338 0.951 . S
C2363 C2361 1.388 . S
C2363 C2364 1.366 . S
C2364 C2363 1.366 . S
C2364 C2365 1.414 . S
C2364 C2367 1.499 . S
C2365 H2339 0.950 . S
C2365 C2364 1.414 . S
C2365 C2366 1.374 . S
C2366 H2340 0.950 . S
C2366 C2362 1.385 . S
C2366 C2365 1.374 . S
C2367 C2364 1.499 . S
C2367 C2368 1.373 . S
C2367 C2369 1.389 . S
C2368 H2341 0.950 . S
C2368 C2354 1.377 . S
C2368 C2367 1.373 . S
C2369 C2353 1.377 . S
C2369 C2367 1.389 . S
C2369 C2370 1.524 . S
C2370 C2369 1.524 . S
C2370 C2371 1.397 . S
C2370 C2375 1.363 . S
C2371 H2342 0.950 . S
C2371 C2370 1.397 . S
C2371 C2372 1.334 . S
C2372 H2343 0.950 . S
C2372 C2371 1.334 . S
C2372 C2373 1.287 . S
C2373 C2372 1.287 . S
C2373 C2374 1.524 . S
C2373 H2376 0.999 . S
C2374 H2344 0.950 . S
C2374 C2373 1.524 . S
C2374 C2375 1.415 . S
C2375 H2345 0.950 . S
C2375 C2370 1.363 . S
C2375 C2374 1.415 . S
H2376 C2373 0.999 . S
H2377 C2358 0.913 . S
H2378 C2396 0.951 . S
H2379 C2398 0.951 . S
H2380 C2400 0.950 . S
H2381 C2401 0.950 . S
H2382 C2403 0.950 . S
H2383 C2406 0.950 . S
H2384 C2407 0.950 . S
H2385 C2409 0.950 . S
H2386 C2410 0.950 . S
H2387 C2411 0.951 . S
H2388 C2413 0.951 . S
H2389 C2415 0.950 . S
H2390 C2416 0.950 . S
H2391 C2418 0.950 . S
H2392 C2421 0.950 . S
H2393 C2422 0.950 . S
H2394 C2424 0.950 . S
H2395 C2425 0.950 . S
C2396 H2378 0.951 . S
C2396 C2397 1.366 . S
C2396 C2398 1.388 . S
C2397 C2396 1.366 . S
C2397 C2401 1.385 . S
C2398 H2379 0.951 . S
C2398 C2396 1.388 . S
C2398 C2399 1.366 . S
C2399 C2398 1.366 . S
C2399 C2400 1.414 . S
C2399 C2402 1.499 . S
C2400 H2380 0.950 . S
C2400 C2399 1.414 . S
C2400 C2401 1.374 . S
C2401 H2381 0.950 . S
C2401 C2397 1.385 . S
C2401 C2400 1.374 . S
C2402 C2399 1.499 . S
C2402 C2403 1.373 . S
C2402 C2404 1.389 . S
C2403 H2382 0.950 . S
C2403 C2402 1.373 . S
C2403 C2419 1.377 . S
C2404 C2402 1.389 . S
C2404 C2405 1.524 . S
C2404 C2418 1.377 . S
C2405 C2404 1.524 . S
C2405 C2406 1.397 . S
C2405 C2410 1.363 . S
C2406 H2383 0.950 . S
C2406 C2405 1.397 . S
C2406 C2407 1.334 . S
C2407 H2384 0.950 . S
C2407 C2406 1.334 . S
C2407 C2408 1.287 . S
C2408 C2407 1.287 . S
C2408 C2409 1.524 . S
C2408 H2427 0.913 . S
C2409 H2385 0.950 . S
C2409 C2408 1.524 . S
C2409 C2410 1.415 . S
C2410 H2386 0.950 . S
C2410 C2405 1.363 . S
C2410 C2409 1.415 . S
C2411 H2387 0.951 . S
C2411 C2412 1.366 . S
C2411 C2413 1.388 . S
C2412 C2411 1.366 . S
C2412 C2416 1.385 . S
C2413 H2388 0.951 . S
C2413 C2411 1.388 . S
C2413 C2414 1.366 . S
C2414 C2413 1.366 . S
C2414 C2415 1.414 . S
C2414 C2417 1.499 . S
C2415 H2389 0.950 . S
C2415 C2414 1.414 . S
C2415 C2416 1.374 . S
C2416 H2390 0.950 . S
C2416 C2412 1.385 . S
C2416 C2415 1.374 . S
C2417 C2414 1.499 . S
C2417 C2418 1.373 . S
C2417 C2419 1.389 . S
C2418 H2391 0.950 . S
C2418 C2404 1.377 . S
C2418 C2417 1.373 . S
C2419 C2403 1.377 . S
C2419 C2417 1.389 . S
C2419 C2420 1.524 . S
C2420 C2419 1.524 . S
C2420 C2421 1.397 . S
C2420 C2425 1.363 . S
C2421 H2392 0.950 . S
C2421 C2420 1.397 . S
C2421 C2422 1.334 . S
C2422 H2393 0.950 . S
C2422 C2421 1.334 . S
C2422 C2423 1.287 . S
C2423 C2422 1.287 . S
C2423 C2424 1.524 . S
C2423 H2426 0.999 . S
C2424 H2394 0.950 . S
C2424 C2423 1.524 . S
C2424 C2425 1.415 . S
C2425 H2395 0.950 . S
C2425 C2420 1.363 . S
C2425 C2424 1.415 . S
H2426 C2423 0.999 . S
H2427 C2408 0.913 . S
H2428 C2446 0.951 . S
H2429 C2448 0.951 . S
H2430 C2450 0.950 . S
H2431 C2451 0.950 . S
H2432 C2453 0.950 . S
H2433 C2456 0.950 . S
H2434 C2457 0.950 . S
H2435 C2459 0.950 . S
H2436 C2460 0.950 . S
H2437 C2461 0.951 . S
H2438 C2463 0.951 . S
H2439 C2465 0.950 . S
H2440 C2466 0.950 . S
H2441 C2468 0.950 . S
H2442 C2471 0.950 . S
H2443 C2472 0.950 . S
H2444 C2474 0.950 . S
H2445 C2475 0.950 . S
C2446 H2428 0.951 . S
C2446 C2447 1.366 . S
C2446 C2448 1.388 . S
C2447 C2446 1.366 . S
C2447 C2451 1.385 . S
C2448 H2429 0.951 . S
C2448 C2446 1.388 . S
C2448 C2449 1.366 . S
C2449 C2448 1.366 . S
C2449 C2450 1.414 . S
C2449 C2452 1.499 . S
C2450 H2430 0.950 . S
C2450 C2449 1.414 . S
C2450 C2451 1.374 . S
C2451 H2431 0.950 . S
C2451 C2447 1.385 . S
C2451 C2450 1.374 . S
C2452 C2449 1.499 . S
C2452 C2453 1.373 . S
C2452 C2454 1.389 . S
C2453 H2432 0.950 . S
C2453 C2452 1.373 . S
C2453 C2469 1.377 . S
C2454 C2452 1.389 . S
C2454 C2455 1.524 . S
C2454 C2468 1.377 . S
C2455 C2454 1.524 . S
C2455 C2456 1.397 . S
C2455 C2460 1.363 . S
C2456 H2433 0.950 . S
C2456 C2455 1.397 . S
C2456 C2457 1.334 . S
C2457 H2434 0.950 . S
C2457 C2456 1.334 . S
C2457 C2458 1.287 . S
C2458 C2457 1.287 . S
C2458 C2459 1.524 . S
C2458 H2477 0.913 . S
C2459 H2435 0.950 . S
C2459 C2458 1.524 . S
C2459 C2460 1.415 . S
C2460 H2436 0.950 . S
C2460 C2455 1.363 . S
C2460 C2459 1.415 . S
C2461 H2437 0.951 . S
C2461 C2462 1.366 . S
C2461 C2463 1.388 . S
C2462 C2461 1.366 . S
C2462 C2466 1.385 . S
C2463 H2438 0.951 . S
C2463 C2461 1.388 . S
C2463 C2464 1.366 . S
C2464 C2463 1.366 . S
C2464 C2465 1.414 . S
C2464 C2467 1.499 . S
C2465 H2439 0.950 . S
C2465 C2464 1.414 . S
C2465 C2466 1.374 . S
C2466 H2440 0.950 . S
C2466 C2462 1.385 . S
C2466 C2465 1.374 . S
C2467 C2464 1.499 . S
C2467 C2468 1.373 . S
C2467 C2469 1.389 . S
C2468 H2441 0.950 . S
C2468 C2454 1.377 . S
C2468 C2467 1.373 . S
C2469 C2453 1.377 . S
C2469 C2467 1.389 . S
C2469 C2470 1.524 . S
C2470 C2469 1.524 . S
C2470 C2471 1.397 . S
C2470 C2475 1.363 . S
C2471 H2442 0.950 . S
C2471 C2470 1.397 . S
C2471 C2472 1.334 . S
C2472 H2443 0.950 . S
C2472 C2471 1.334 . S
C2472 C2473 1.287 . S
C2473 C2472 1.287 . S
C2473 C2474 1.524 . S
C2473 H2476 0.999 . S
C2474 H2444 0.950 . S
C2474 C2473 1.524 . S
C2474 C2475 1.415 . S
C2475 H2445 0.950 . S
C2475 C2470 1.363 . S
C2475 C2474 1.415 . S
H2476 C2473 0.999 . S
H2477 C2458 0.913 . S
H2478 C2496 0.951 . S
H2479 C2498 0.951 . S
H2480 C2500 0.950 . S
H2481 C2501 0.950 . S
H2482 C2503 0.950 . S
H2483 C2506 0.950 . S
H2484 C2507 0.950 . S
H2485 C2509 0.950 . S
H2486 C2510 0.950 . S
H2487 C2511 0.951 . S
H2488 C2513 0.951 . S
H2489 C2515 0.950 . S
H2490 C2516 0.950 . S
H2491 C2518 0.950 . S
H2492 C2521 0.950 . S
H2493 C2522 0.950 . S
H2494 C2524 0.950 . S
H2495 C2525 0.950 . S
C2496 H2478 0.951 . S
C2496 C2497 1.366 . S
C2496 C2498 1.388 . S
C2497 C2496 1.366 . S
C2497 C2501 1.385 . S
C2498 H2479 0.951 . S
C2498 C2496 1.388 . S
C2498 C2499 1.366 . S
C2499 C2498 1.366 . S
C2499 C2500 1.414 . S
C2499 C2502 1.499 . S
C2500 H2480 0.950 . S
C2500 C2499 1.414 . S
C2500 C2501 1.374 . S
C2501 H2481 0.950 . S
C2501 C2497 1.385 . S
C2501 C2500 1.374 . S
C2502 C2499 1.499 . S
C2502 C2503 1.373 . S
C2502 C2504 1.389 . S
C2503 H2482 0.950 . S
C2503 C2502 1.373 . S
C2503 C2519 1.377 . S
C2504 C2502 1.389 . S
C2504 C2505 1.524 . S
C2504 C2518 1.377 . S
C2505 C2504 1.524 . S
C2505 C2506 1.397 . S
C2505 C2510 1.363 . S
C2506 H2483 0.950 . S
C2506 C2505 1.397 . S
C2506 C2507 1.334 . S
C2507 H2484 0.950 . S
C2507 C2506 1.334 . S
C2507 C2508 1.287 . S
C2508 C2507 1.287 . S
C2508 C2509 1.524 . S
C2508 H2527 0.913 . S
C2509 H2485 0.950 . S
C2509 C2508 1.524 . S
C2509 C2510 1.415 . S
C2510 H2486 0.950 . S
C2510 C2505 1.363 . S
C2510 C2509 1.415 . S
C2511 H2487 0.951 . S
C2511 C2512 1.366 . S
C2511 C2513 1.388 . S
C2512 C2511 1.366 . S
C2512 C2516 1.385 . S
C2513 H2488 0.951 . S
C2513 C2511 1.388 . S
C2513 C2514 1.366 . S
C2514 C2513 1.366 . S
C2514 C2515 1.414 . S
C2514 C2517 1.499 . S
C2515 H2489 0.950 . S
C2515 C2514 1.414 . S
C2515 C2516 1.374 . S
C2516 H2490 0.950 . S
C2516 C2512 1.385 . S
C2516 C2515 1.374 . S
C2517 C2514 1.499 . S
C2517 C2518 1.373 . S
C2517 C2519 1.389 . S
C2518 H2491 0.950 . S
C2518 C2504 1.377 . S
C2518 C2517 1.373 . S
C2519 C2503 1.377 . S
C2519 C2517 1.389 . S
C2519 C2520 1.524 . S
C2520 C2519 1.524 . S
C2520 C2521 1.397 . S
C2520 C2525 1.363 . S
C2521 H2492 0.950 . S
C2521 C2520 1.397 . S
C2521 C2522 1.334 . S
C2522 H2493 0.950 . S
C2522 C2521 1.334 . S
C2522 C2523 1.287 . S
C2523 C2522 1.287 . S
C2523 C2524 1.524 . S
C2523 H2526 0.999 . S
C2524 H2494 0.950 . S
C2524 C2523 1.524 . S
C2524 C2525 1.415 . S
C2525 H2495 0.950 . S
C2525 C2520 1.363 . S
C2525 C2524 1.415 . S
H2526 C2523 0.999 . S
H2527 C2508 0.913 . S
H2528 C2546 0.951 . S
H2529 C2548 0.951 . S
H2530 C2550 0.950 . S
H2531 C2551 0.950 . S
H2532 C2553 0.950 . S
H2533 C2556 0.950 . S
H2534 C2557 0.950 . S
H2535 C2559 0.950 . S
H2536 C2560 0.950 . S
H2537 C2561 0.951 . S
H2538 C2563 0.951 . S
H2539 C2565 0.950 . S
H2540 C2566 0.950 . S
H2541 C2568 0.950 . S
H2542 C2571 0.950 . S
H2543 C2572 0.950 . S
H2544 C2574 0.950 . S
H2545 C2575 0.950 . S
C2546 H2528 0.951 . S
C2546 C2547 1.366 . S
C2546 C2548 1.388 . S
C2547 C2546 1.366 . S
C2547 C2551 1.385 . S
C2548 H2529 0.951 . S
C2548 C2546 1.388 . S
C2548 C2549 1.366 . S
C2549 C2548 1.366 . S
C2549 C2550 1.414 . S
C2549 C2552 1.499 . S
C2550 H2530 0.950 . S
C2550 C2549 1.414 . S
C2550 C2551 1.374 . S
C2551 H2531 0.950 . S
C2551 C2547 1.385 . S
C2551 C2550 1.374 . S
C2552 C2549 1.499 . S
C2552 C2553 1.373 . S
C2552 C2554 1.389 . S
C2553 H2532 0.950 . S
C2553 C2552 1.373 . S
C2553 C2569 1.377 . S
C2554 C2552 1.389 . S
C2554 C2555 1.524 . S
C2554 C2568 1.377 . S
C2555 C2554 1.524 . S
C2555 C2556 1.397 . S
C2555 C2560 1.363 . S
C2556 H2533 0.950 . S
C2556 C2555 1.397 . S
C2556 C2557 1.334 . S
C2557 H2534 0.950 . S
C2557 C2556 1.334 . S
C2557 C2558 1.287 . S
C2558 C2557 1.287 . S
C2558 C2559 1.524 . S
C2558 H2577 0.913 . S
C2559 H2535 0.950 . S
C2559 C2558 1.524 . S
C2559 C2560 1.415 . S
C2560 H2536 0.950 . S
C2560 C2555 1.363 . S
C2560 C2559 1.415 . S
C2561 H2537 0.951 . S
C2561 C2562 1.366 . S
C2561 C2563 1.388 . S
C2562 C2561 1.366 . S
C2562 C2566 1.385 . S
C2563 H2538 0.951 . S
C2563 C2561 1.388 . S
C2563 C2564 1.366 . S
C2564 C2563 1.366 . S
C2564 C2565 1.414 . S
C2564 C2567 1.499 . S
C2565 H2539 0.950 . S
C2565 C2564 1.414 . S
C2565 C2566 1.374 . S
C2566 H2540 0.950 . S
C2566 C2562 1.385 . S
C2566 C2565 1.374 . S
C2567 C2564 1.499 . S
C2567 C2568 1.373 . S
C2567 C2569 1.389 . S
C2568 H2541 0.950 . S
C2568 C2554 1.377 . S
C2568 C2567 1.373 . S
C2569 C2553 1.377 . S
C2569 C2567 1.389 . S
C2569 C2570 1.524 . S
C2570 C2569 1.524 . S
C2570 C2571 1.397 . S
C2570 C2575 1.363 . S
C2571 H2542 0.950 . S
C2571 C2570 1.397 . S
C2571 C2572 1.334 . S
C2572 H2543 0.950 . S
C2572 C2571 1.334 . S
C2572 C2573 1.287 . S
C2573 C2572 1.287 . S
C2573 C2574 1.524 . S
C2573 H2576 1.039 . S
C2574 H2544 0.950 . S
C2574 C2573 1.524 . S
C2574 C2575 1.415 . S
C2575 H2545 0.950 . S
C2575 C2570 1.363 . S
C2575 C2574 1.415 . S
H2576 C2573 1.039 . S
H2577 C2558 0.913 . S
H2578 C2596 0.951 . S
H2579 C2598 0.951 . S
H2580 C2600 0.950 . S
H2581 C2601 0.950 . S
H2582 C2603 0.950 . S
H2583 C2606 0.950 . S
H2584 C2607 0.950 . S
H2585 C2609 0.950 . S
H2586 C2610 0.950 . S
H2587 C2611 0.951 . S
H2588 C2613 0.951 . S
H2589 C2615 0.950 . S
H2590 C2616 0.950 . S
H2591 C2618 0.950 . S
H2592 C2621 0.950 . S
H2593 C2622 0.950 . S
H2594 C2624 0.950 . S
H2595 C2625 0.950 . S
C2596 H2578 0.951 . S
C2596 C2597 1.366 . S
C2596 C2598 1.388 . S
C2597 C2596 1.366 . S
C2597 C2601 1.385 . S
C2598 H2579 0.951 . S
C2598 C2596 1.388 . S
C2598 C2599 1.366 . S
C2599 C2598 1.366 . S
C2599 C2600 1.414 . S
C2599 C2602 1.499 . S
C2600 H2580 0.950 . S
C2600 C2599 1.414 . S
C2600 C2601 1.374 . S
C2601 H2581 0.950 . S
C2601 C2597 1.385 . S
C2601 C2600 1.374 . S
C2602 C2599 1.499 . S
C2602 C2603 1.373 . S
C2602 C2604 1.389 . S
C2603 H2582 0.950 . S
C2603 C2602 1.373 . S
C2603 C2619 1.377 . S
C2604 C2602 1.389 . S
C2604 C2605 1.524 . S
C2604 C2618 1.377 . S
C2605 C2604 1.524 . S
C2605 C2606 1.397 . S
C2605 C2610 1.363 . S
C2606 H2583 0.950 . S
C2606 C2605 1.397 . S
C2606 C2607 1.334 . S
C2607 H2584 0.950 . S
C2607 C2606 1.334 . S
C2607 C2608 1.287 . S
C2608 C2607 1.287 . S
C2608 C2609 1.524 . S
C2608 H2627 0.913 1_556 S
C2609 H2585 0.950 . S
C2609 C2608 1.524 . S
C2609 C2610 1.415 . S
C2610 H2586 0.950 . S
C2610 C2605 1.363 . S
C2610 C2609 1.415 . S
C2611 H2587 0.951 . S
C2611 C2612 1.366 . S
C2611 C2613 1.388 . S
C2612 C2611 1.366 . S
C2612 C2616 1.385 . S
C2613 H2588 0.951 . S
C2613 C2611 1.388 . S
C2613 C2614 1.366 . S
C2614 C2613 1.366 . S
C2614 C2615 1.414 . S
C2614 C2617 1.499 . S
C2615 H2589 0.950 . S
C2615 C2614 1.414 . S
C2615 C2616 1.374 . S
C2616 H2590 0.950 . S
C2616 C2612 1.385 . S
C2616 C2615 1.374 . S
C2617 C2614 1.499 . S
C2617 C2618 1.373 . S
C2617 C2619 1.389 . S
C2618 H2591 0.950 . S
C2618 C2604 1.377 . S
C2618 C2617 1.373 . S
C2619 C2603 1.377 . S
C2619 C2617 1.389 . S
C2619 C2620 1.524 . S
C2620 C2619 1.524 . S
C2620 C2621 1.397 . S
C2620 C2625 1.363 . S
C2621 H2592 0.950 . S
C2621 C2620 1.397 . S
C2621 C2622 1.334 . S
C2622 H2593 0.950 . S
C2622 C2621 1.334 . S
C2622 C2623 1.287 . S
C2623 C2622 1.287 . S
C2623 C2624 1.524 . S
C2623 H2626 0.999 . S
C2624 H2594 0.950 . S
C2624 C2623 1.524 . S
C2624 C2625 1.415 . S
C2625 H2595 0.950 . S
C2625 C2620 1.363 . S
C2625 C2624 1.415 . S
H2626 C2623 0.999 . S
H2627 C2608 0.913 1_554 S
H2628 C2646 0.951 . S
H2629 C2648 0.951 . S
H2630 C2650 0.950 . S
H2631 C2651 0.950 . S
H2632 C2653 0.950 . S
H2633 C2656 0.950 . S
H2634 C2657 0.950 . S
H2635 C2659 0.950 . S
H2636 C2660 0.950 . S
H2637 C2661 0.951 . S
H2638 C2663 0.951 . S
H2639 C2665 0.950 . S
H2640 C2666 0.950 . S
H2641 C2668 0.950 . S
H2642 C2671 0.950 . S
H2643 C2672 0.950 . S
H2644 C2674 0.950 . S
H2645 C2675 0.950 . S
C2646 H2628 0.951 . S
C2646 C2647 1.366 . S
C2646 C2648 1.388 . S
C2647 C2646 1.366 . S
C2647 C2651 1.385 . S
C2648 H2629 0.951 . S
C2648 C2646 1.388 . S
C2648 C2649 1.366 . S
C2649 C2648 1.366 . S
C2649 C2650 1.414 . S
C2649 C2652 1.499 . S
C2650 H2630 0.950 . S
C2650 C2649 1.414 . S
C2650 C2651 1.374 . S
C2651 H2631 0.950 . S
C2651 C2647 1.385 . S
C2651 C2650 1.374 . S
C2652 C2649 1.499 . S
C2652 C2653 1.373 . S
C2652 C2654 1.389 . S
C2653 H2632 0.950 . S
C2653 C2652 1.373 . S
C2653 C2669 1.377 . S
C2654 C2652 1.389 . S
C2654 C2655 1.524 . S
C2654 C2668 1.377 . S
C2655 C2654 1.524 . S
C2655 C2656 1.397 . S
C2655 C2660 1.363 . S
C2656 H2633 0.950 . S
C2656 C2655 1.397 . S
C2656 C2657 1.334 . S
C2657 H2634 0.950 . S
C2657 C2656 1.334 . S
C2657 C2658 1.287 . S
C2658 C2657 1.287 . S
C2658 C2659 1.524 . S
C2658 H2677 0.913 . S
C2659 H2635 0.950 . S
C2659 C2658 1.524 . S
C2659 C2660 1.415 . S
C2660 H2636 0.950 . S
C2660 C2655 1.363 . S
C2660 C2659 1.415 . S
C2661 H2637 0.951 . S
C2661 C2662 1.366 . S
C2661 C2663 1.388 . S
C2662 C2661 1.366 . S
C2662 C2666 1.385 . S
C2663 H2638 0.951 . S
C2663 C2661 1.388 . S
C2663 C2664 1.366 . S
C2664 C2663 1.366 . S
C2664 C2665 1.414 . S
C2664 C2667 1.499 . S
C2665 H2639 0.950 . S
C2665 C2664 1.414 . S
C2665 C2666 1.374 . S
C2666 H2640 0.950 . S
C2666 C2662 1.385 . S
C2666 C2665 1.374 . S
C2667 C2664 1.499 . S
C2667 C2668 1.373 . S
C2667 C2669 1.389 . S
C2668 H2641 0.950 . S
C2668 C2654 1.377 . S
C2668 C2667 1.373 . S
C2669 C2653 1.377 . S
C2669 C2667 1.389 . S
C2669 C2670 1.524 . S
C2670 C2669 1.524 . S
C2670 C2671 1.397 . S
C2670 C2675 1.363 . S
C2671 H2642 0.950 . S
C2671 C2670 1.397 . S
C2671 C2672 1.334 . S
C2672 H2643 0.950 . S
C2672 C2671 1.334 . S
C2672 C2673 1.287 . S
C2673 C2672 1.287 . S
C2673 C2674 1.524 . S
C2673 H2676 0.999 . S
C2674 H2644 0.950 . S
C2674 C2673 1.524 . S
C2674 C2675 1.415 . S
C2675 H2645 0.950 . S
C2675 C2670 1.363 . S
C2675 C2674 1.415 . S
H2676 C2673 0.999 . S
H2677 C2658 0.913 . S
H2678 C2696 0.951 . S
H2679 C2698 0.951 . S
H2680 C2700 0.950 . S
H2681 C2701 0.950 . S
H2682 C2703 0.950 . S
H2683 C2706 0.950 . S
H2684 C2707 0.950 . S
H2685 C2709 0.950 . S
H2686 C2710 0.950 . S
H2687 C2711 0.951 . S
H2688 C2713 0.951 . S
H2689 C2715 0.950 . S
H2690 C2716 0.950 . S
H2691 C2718 0.950 . S
H2692 C2721 0.950 . S
H2693 C2722 0.950 . S
H2694 C2724 0.950 . S
H2695 C2725 0.950 . S
C2696 H2678 0.951 . S
C2696 C2697 1.366 . S
C2696 C2698 1.388 . S
C2697 C2696 1.366 . S
C2697 C2701 1.385 . S
C2698 H2679 0.951 . S
C2698 C2696 1.388 . S
C2698 C2699 1.366 . S
C2699 C2698 1.366 . S
C2699 C2700 1.414 . S
C2699 C2702 1.499 . S
C2700 H2680 0.950 . S
C2700 C2699 1.414 . S
C2700 C2701 1.374 . S
C2701 H2681 0.950 . S
C2701 C2697 1.385 . S
C2701 C2700 1.374 . S
C2702 C2699 1.499 . S
C2702 C2703 1.373 . S
C2702 C2704 1.389 . S
C2703 H2682 0.950 . S
C2703 C2702 1.373 . S
C2703 C2719 1.377 . S
C2704 C2702 1.389 . S
C2704 C2705 1.524 . S
C2704 C2718 1.377 . S
C2705 C2704 1.524 . S
C2705 C2706 1.397 . S
C2705 C2710 1.363 . S
C2706 H2683 0.950 . S
C2706 C2705 1.397 . S
C2706 C2707 1.334 . S
C2707 H2684 0.950 . S
C2707 C2706 1.334 . S
C2707 C2708 1.287 . S
C2708 C2707 1.287 . S
C2708 C2709 1.524 . S
C2708 H2727 0.913 . S
C2709 H2685 0.950 . S
C2709 C2708 1.524 . S
C2709 C2710 1.415 . S
C2710 H2686 0.950 . S
C2710 C2705 1.363 . S
C2710 C2709 1.415 . S
C2711 H2687 0.951 . S
C2711 C2712 1.366 . S
C2711 C2713 1.388 . S
C2712 C2711 1.366 . S
C2712 C2716 1.385 . S
C2713 H2688 0.951 . S
C2713 C2711 1.388 . S
C2713 C2714 1.366 . S
C2714 C2713 1.366 . S
C2714 C2715 1.414 . S
C2714 C2717 1.499 . S
C2715 H2689 0.950 . S
C2715 C2714 1.414 . S
C2715 C2716 1.374 . S
C2716 H2690 0.950 . S
C2716 C2712 1.385 . S
C2716 C2715 1.374 . S
C2717 C2714 1.499 . S
C2717 C2718 1.373 . S
C2717 C2719 1.389 . S
C2718 H2691 0.950 . S
C2718 C2704 1.377 . S
C2718 C2717 1.373 . S
C2719 C2703 1.377 . S
C2719 C2717 1.389 . S
C2719 C2720 1.524 . S
C2720 C2719 1.524 . S
C2720 C2721 1.397 . S
C2720 C2725 1.363 . S
C2721 H2692 0.950 . S
C2721 C2720 1.397 . S
C2721 C2722 1.334 . S
C2722 H2693 0.950 . S
C2722 C2721 1.334 . S
C2722 C2723 1.287 . S
C2723 C2722 1.287 . S
C2723 C2724 1.524 . S
C2723 H2726 0.999 . S
C2724 H2694 0.950 . S
C2724 C2723 1.524 . S
C2724 C2725 1.415 . S
C2725 H2695 0.950 . S
C2725 C2720 1.363 . S
C2725 C2724 1.415 . S
H2726 C2723 0.999 . S
H2727 C2708 0.913 . S
H2728 C2746 0.951 . S
H2729 C2748 0.951 . S
H2730 C2750 0.950 . S
H2731 C2751 0.950 . S
H2732 C2753 0.950 . S
H2733 C2756 0.950 . S
H2734 C2757 0.950 . S
H2735 C2759 0.950 . S
H2736 C2760 0.950 . S
H2737 C2761 0.951 . S
H2738 C2763 0.951 . S
H2739 C2765 0.950 . S
H2740 C2766 0.950 . S
H2741 C2768 0.950 . S
H2742 C2771 0.950 . S
H2743 C2772 0.950 . S
H2744 C2774 0.950 . S
H2745 C2775 0.950 . S
C2746 H2728 0.951 . S
C2746 C2747 1.366 . S
C2746 C2748 1.388 . S
C2747 C2746 1.366 . S
C2747 C2751 1.385 . S
C2748 H2729 0.951 . S
C2748 C2746 1.388 . S
C2748 C2749 1.366 . S
C2749 C2748 1.366 . S
C2749 C2750 1.414 . S
C2749 C2752 1.499 . S
C2750 H2730 0.950 . S
C2750 C2749 1.414 . S
C2750 C2751 1.374 . S
C2751 H2731 0.950 . S
C2751 C2747 1.385 . S
C2751 C2750 1.374 . S
C2752 C2749 1.499 . S
C2752 C2753 1.373 . S
C2752 C2754 1.389 . S
C2753 H2732 0.950 . S
C2753 C2752 1.373 . S
C2753 C2769 1.377 . S
C2754 C2752 1.389 . S
C2754 C2755 1.524 . S
C2754 C2768 1.377 . S
C2755 C2754 1.524 . S
C2755 C2756 1.397 . S
C2755 C2760 1.363 . S
C2756 H2733 0.950 . S
C2756 C2755 1.397 . S
C2756 C2757 1.334 . S
C2757 H2734 0.950 . S
C2757 C2756 1.334 . S
C2757 C2758 1.287 . S
C2758 C2757 1.287 . S
C2758 C2759 1.524 . S
C2758 H2777 0.913 . S
C2759 H2735 0.950 . S
C2759 C2758 1.524 . S
C2759 C2760 1.415 . S
C2760 H2736 0.950 . S
C2760 C2755 1.363 . S
C2760 C2759 1.415 . S
C2761 H2737 0.951 . S
C2761 C2762 1.366 . S
C2761 C2763 1.388 . S
C2762 C2761 1.366 . S
C2762 C2766 1.385 . S
C2763 H2738 0.951 . S
C2763 C2761 1.388 . S
C2763 C2764 1.366 . S
C2764 C2763 1.366 . S
C2764 C2765 1.414 . S
C2764 C2767 1.499 . S
C2765 H2739 0.950 . S
C2765 C2764 1.414 . S
C2765 C2766 1.374 . S
C2766 H2740 0.950 . S
C2766 C2762 1.385 . S
C2766 C2765 1.374 . S
C2767 C2764 1.499 . S
C2767 C2768 1.373 . S
C2767 C2769 1.389 . S
C2768 H2741 0.950 . S
C2768 C2754 1.377 . S
C2768 C2767 1.373 . S
C2769 C2753 1.377 . S
C2769 C2767 1.389 . S
C2769 C2770 1.524 . S
C2770 C2769 1.524 . S
C2770 C2771 1.397 . S
C2770 C2775 1.363 . S
C2771 H2742 0.950 . S
C2771 C2770 1.397 . S
C2771 C2772 1.334 . S
C2772 H2743 0.950 . S
C2772 C2771 1.334 . S
C2772 C2773 1.287 . S
C2773 C2772 1.287 . S
C2773 C2774 1.524 . S
C2773 H2776 0.999 . S
C2774 H2744 0.950 . S
C2774 C2773 1.524 . S
C2774 C2775 1.415 . S
C2775 H2745 0.950 . S
C2775 C2770 1.363 . S
C2775 C2774 1.415 . S
H2776 C2773 0.999 . S
H2777 C2758 0.913 . S
H2778 C2796 0.951 . S
H2779 C2798 0.951 . S
H2780 C2800 0.950 . S
H2781 C2801 0.950 . S
H2782 C2803 0.950 . S
H2783 C2806 0.950 . S
H2784 C2807 0.950 . S
H2785 C2809 0.950 . S
H2786 C2810 0.950 . S
H2787 C2811 0.951 . S
H2788 C2813 0.951 . S
H2789 C2815 0.950 . S
H2790 C2816 0.950 . S
H2791 C2818 0.950 . S
H2792 C2821 0.950 . S
H2793 C2822 0.950 . S
H2794 C2824 0.950 . S
H2795 C2825 0.950 . S
C2796 H2778 0.951 . S
C2796 C2797 1.366 . S
C2796 C2798 1.388 . S
C2797 C2796 1.366 . S
C2797 C2801 1.385 . S
C2798 H2779 0.951 . S
C2798 C2796 1.388 . S
C2798 C2799 1.366 . S
C2799 C2798 1.366 . S
C2799 C2800 1.414 . S
C2799 C2802 1.499 . S
C2800 H2780 0.950 . S
C2800 C2799 1.414 . S
C2800 C2801 1.374 . S
C2801 H2781 0.950 . S
C2801 C2797 1.385 . S
C2801 C2800 1.374 . S
C2802 C2799 1.499 . S
C2802 C2803 1.373 . S
C2802 C2804 1.389 . S
C2803 H2782 0.950 . S
C2803 C2802 1.373 . S
C2803 C2819 1.377 . S
C2804 C2802 1.389 . S
C2804 C2805 1.524 . S
C2804 C2818 1.377 . S
C2805 C2804 1.524 . S
C2805 C2806 1.397 . S
C2805 C2810 1.363 . S
C2806 H2783 0.950 . S
C2806 C2805 1.397 . S
C2806 C2807 1.334 . S
C2807 H2784 0.950 . S
C2807 C2806 1.334 . S
C2807 C2808 1.287 . S
C2808 C2807 1.287 . S
C2808 C2809 1.524 . S
C2808 H2827 0.913 . S
C2809 H2785 0.950 . S
C2809 C2808 1.524 . S
C2809 C2810 1.415 . S
C2810 H2786 0.950 . S
C2810 C2805 1.363 . S
C2810 C2809 1.415 . S
C2811 H2787 0.951 . S
C2811 C2812 1.366 . S
C2811 C2813 1.388 . S
C2812 C2811 1.366 . S
C2812 C2816 1.385 . S
C2813 H2788 0.951 . S
C2813 C2811 1.388 . S
C2813 C2814 1.366 . S
C2814 C2813 1.366 . S
C2814 C2815 1.414 . S
C2814 C2817 1.499 . S
C2815 H2789 0.950 . S
C2815 C2814 1.414 . S
C2815 C2816 1.374 . S
C2816 H2790 0.950 . S
C2816 C2812 1.385 . S
C2816 C2815 1.374 . S
C2817 C2814 1.499 . S
C2817 C2818 1.373 . S
C2817 C2819 1.389 . S
C2818 H2791 0.950 . S
C2818 C2804 1.377 . S
C2818 C2817 1.373 . S
C2819 C2803 1.377 . S
C2819 C2817 1.389 . S
C2819 C2820 1.524 . S
C2820 C2819 1.524 . S
C2820 C2821 1.397 . S
C2820 C2825 1.363 . S
C2821 H2792 0.950 . S
C2821 C2820 1.397 . S
C2821 C2822 1.334 . S
C2822 H2793 0.950 . S
C2822 C2821 1.334 . S
C2822 C2823 1.287 . S
C2823 C2822 1.287 . S
C2823 C2824 1.524 . S
C2823 H2826 0.999 . S
C2824 H2794 0.950 . S
C2824 C2823 1.524 . S
C2824 C2825 1.415 . S
C2825 H2795 0.950 . S
C2825 C2820 1.363 . S
C2825 C2824 1.415 . S
H2826 C2823 0.999 . S
H2827 C2808 0.913 . S
H2828 C2846 0.951 . S
H2829 C2848 0.951 . S
H2830 C2850 0.950 . S
H2831 C2851 0.950 . S
H2832 C2853 0.950 . S
H2833 C2856 0.950 . S
H2834 C2857 0.950 . S
H2835 C2859 0.950 . S
H2836 C2860 0.950 . S
H2837 C2861 0.951 . S
H2838 C2863 0.951 . S
H2839 C2865 0.950 . S
H2840 C2866 0.950 . S
H2841 C2868 0.950 . S
H2842 C2871 0.950 . S
H2843 C2872 0.950 . S
H2844 C2874 0.950 . S
H2845 C2875 0.950 . S
C2846 H2828 0.951 . S
C2846 C2847 1.366 . S
C2846 C2848 1.388 . S
C2847 C2846 1.366 . S
C2847 C2851 1.385 . S
C2848 H2829 0.951 . S
C2848 C2846 1.388 . S
C2848 C2849 1.366 . S
C2849 C2848 1.366 . S
C2849 C2850 1.414 . S
C2849 C2852 1.499 . S
C2850 H2830 0.950 . S
C2850 C2849 1.414 . S
C2850 C2851 1.374 . S
C2851 H2831 0.950 . S
C2851 C2847 1.385 . S
C2851 C2850 1.374 . S
C2852 C2849 1.499 . S
C2852 C2853 1.373 . S
C2852 C2854 1.389 . S
C2853 H2832 0.950 . S
C2853 C2852 1.373 . S
C2853 C2869 1.377 . S
C2854 C2852 1.389 . S
C2854 C2855 1.524 . S
C2854 C2868 1.377 . S
C2855 C2854 1.524 . S
C2855 C2856 1.397 . S
C2855 C2860 1.363 . S
C2856 H2833 0.950 . S
C2856 C2855 1.397 . S
C2856 C2857 1.334 . S
C2857 H2834 0.950 . S
C2857 C2856 1.334 . S
C2857 C2858 1.287 . S
C2858 C2857 1.287 . S
C2858 C2859 1.524 . S
C2858 H2877 0.913 . S
C2859 H2835 0.950 . S
C2859 C2858 1.524 . S
C2859 C2860 1.415 . S
C2860 H2836 0.950 . S
C2860 C2855 1.363 . S
C2860 C2859 1.415 . S
C2861 H2837 0.951 . S
C2861 C2862 1.366 . S
C2861 C2863 1.388 . S
C2862 C2861 1.366 . S
C2862 C2866 1.385 . S
C2863 H2838 0.951 . S
C2863 C2861 1.388 . S
C2863 C2864 1.366 . S
C2864 C2863 1.366 . S
C2864 C2865 1.414 . S
C2864 C2867 1.499 . S
C2865 H2839 0.950 . S
C2865 C2864 1.414 . S
C2865 C2866 1.374 . S
C2866 H2840 0.950 . S
C2866 C2862 1.385 . S
C2866 C2865 1.374 . S
C2867 C2864 1.499 . S
C2867 C2868 1.373 . S
C2867 C2869 1.389 . S
C2868 H2841 0.950 . S
C2868 C2854 1.377 . S
C2868 C2867 1.373 . S
C2869 C2853 1.377 . S
C2869 C2867 1.389 . S
C2869 C2870 1.524 . S
C2870 C2869 1.524 . S
C2870 C2871 1.397 . S
C2870 C2875 1.363 . S
C2871 H2842 0.950 . S
C2871 C2870 1.397 . S
C2871 C2872 1.334 . S
C2872 H2843 0.950 . S
C2872 C2871 1.334 . S
C2872 C2873 1.287 . S
C2873 C2872 1.287 . S
C2873 C2874 1.524 . S
C2873 H2876 0.999 . S
C2874 H2844 0.950 . S
C2874 C2873 1.524 . S
C2874 C2875 1.415 . S
C2875 H2845 0.950 . S
C2875 C2870 1.363 . S
C2875 C2874 1.415 . S
H2876 C2873 0.999 . S
H2877 C2858 0.913 . S
H2878 C2896 0.951 . S
H2879 C2898 0.951 . S
H2880 C2900 0.950 . S
H2881 C2901 0.950 . S
H2882 C2903 0.950 . S
H2883 C2906 0.950 . S
H2884 C2907 0.950 . S
H2885 C2909 0.950 . S
H2886 C2910 0.950 . S
H2887 C2911 0.951 . S
H2888 C2913 0.951 . S
H2889 C2915 0.950 . S
H2890 C2916 0.950 . S
H2891 C2918 0.950 . S
H2892 C2921 0.950 . S
H2893 C2922 0.950 . S
H2894 C2924 0.950 . S
H2895 C2925 0.950 . S
C2896 H2878 0.951 . S
C2896 C2897 1.366 . S
C2896 C2898 1.388 . S
C2897 C2896 1.366 . S
C2897 C2901 1.385 . S
C2898 H2879 0.951 . S
C2898 C2896 1.388 . S
C2898 C2899 1.366 . S
C2899 C2898 1.366 . S
C2899 C2900 1.414 . S
C2899 C2902 1.499 . S
C2900 H2880 0.950 . S
C2900 C2899 1.414 . S
C2900 C2901 1.374 . S
C2901 H2881 0.950 . S
C2901 C2897 1.385 . S
C2901 C2900 1.374 . S
C2902 C2899 1.499 . S
C2902 C2903 1.373 . S
C2902 C2904 1.389 . S
C2903 H2882 0.950 . S
C2903 C2902 1.373 . S
C2903 C2919 1.377 . S
C2904 C2902 1.389 . S
C2904 C2905 1.524 . S
C2904 C2918 1.377 . S
C2905 C2904 1.524 . S
C2905 C2906 1.397 . S
C2905 C2910 1.363 . S
C2906 H2883 0.950 . S
C2906 C2905 1.397 . S
C2906 C2907 1.334 . S
C2907 H2884 0.950 . S
C2907 C2906 1.334 . S
C2907 C2908 1.287 . S
C2908 C2907 1.287 . S
C2908 C2909 1.524 . S
C2908 H2927 0.913 . S
C2909 H2885 0.950 . S
C2909 C2908 1.524 . S
C2909 C2910 1.415 . S
C2910 H2886 0.950 . S
C2910 C2905 1.363 . S
C2910 C2909 1.415 . S
C2911 H2887 0.951 . S
C2911 C2912 1.366 . S
C2911 C2913 1.388 . S
C2912 C2911 1.366 . S
C2912 C2916 1.385 . S
C2913 H2888 0.951 . S
C2913 C2911 1.388 . S
C2913 C2914 1.366 . S
C2914 C2913 1.366 . S
C2914 C2915 1.414 . S
C2914 C2917 1.499 . S
C2915 H2889 0.950 . S
C2915 C2914 1.414 . S
C2915 C2916 1.374 . S
C2916 H2890 0.950 . S
C2916 C2912 1.385 . S
C2916 C2915 1.374 . S
C2917 C2914 1.499 . S
C2917 C2918 1.373 . S
C2917 C2919 1.389 . S
C2918 H2891 0.950 . S
C2918 C2904 1.377 . S
C2918 C2917 1.373 . S
C2919 C2903 1.377 . S
C2919 C2917 1.389 . S
C2919 C2920 1.524 . S
C2920 C2919 1.524 . S
C2920 C2921 1.397 . S
C2920 C2925 1.363 . S
C2921 H2892 0.950 . S
C2921 C2920 1.397 . S
C2921 C2922 1.334 . S
C2922 H2893 0.950 . S
C2922 C2921 1.334 . S
C2922 C2923 1.287 . S
C2923 C2922 1.287 . S
C2923 C2924 1.524 . S
C2923 H2926 0.999 1_554 S
C2924 H2894 0.950 . S
C2924 C2923 1.524 . S
C2924 C2925 1.415 . S
C2925 H2895 0.950 . S
C2925 C2920 1.363 . S
C2925 C2924 1.415 . S
H2926 C2923 0.999 1_556 S
H2927 C2908 0.913 . S
H2928 C2946 0.951 . S
H2929 C2948 0.951 . S
H2930 C2950 0.950 . S
H2931 C2951 0.950 . S
H2932 C2953 0.950 . S
H2933 C2956 0.950 . S
H2934 C2957 0.950 . S
H2935 C2959 0.950 . S
H2936 C2960 0.950 . S
H2937 C2961 0.951 . S
H2938 C2963 0.951 . S
H2939 C2965 0.950 . S
H2940 C2966 0.950 . S
H2941 C2968 0.950 . S
H2942 C2971 0.950 . S
H2943 C2972 0.950 . S
H2944 C2974 0.950 . S
H2945 C2975 0.950 . S
C2946 H2928 0.951 . S
C2946 C2947 1.366 . S
C2946 C2948 1.388 . S
C2947 C2946 1.366 . S
C2947 C2951 1.385 . S
C2948 H2929 0.951 . S
C2948 C2946 1.388 . S
C2948 C2949 1.366 . S
C2949 C2948 1.366 . S
C2949 C2950 1.414 . S
C2949 C2952 1.499 . S
C2950 H2930 0.950 . S
C2950 C2949 1.414 . S
C2950 C2951 1.374 . S
C2951 H2931 0.950 . S
C2951 C2947 1.385 . S
C2951 C2950 1.374 . S
C2952 C2949 1.499 . S
C2952 C2953 1.373 . S
C2952 C2954 1.389 . S
C2953 H2932 0.950 . S
C2953 C2952 1.373 . S
C2953 C2969 1.377 . S
C2954 C2952 1.389 . S
C2954 C2955 1.524 . S
C2954 C2968 1.377 . S
C2955 C2954 1.524 . S
C2955 C2956 1.397 . S
C2955 C2960 1.363 . S
C2956 H2933 0.950 . S
C2956 C2955 1.397 . S
C2956 C2957 1.334 . S
C2957 H2934 0.950 . S
C2957 C2956 1.334 . S
C2957 C2958 1.287 . S
C2958 C2957 1.287 . S
C2958 C2959 1.524 . S
C2958 H2977 0.913 . S
C2959 H2935 0.950 . S
C2959 C2958 1.524 . S
C2959 C2960 1.415 . S
C2960 H2936 0.950 . S
C2960 C2955 1.363 . S
C2960 C2959 1.415 . S
C2961 H2937 0.951 . S
C2961 C2962 1.366 . S
C2961 C2963 1.388 . S
C2962 C2961 1.366 . S
C2962 C2966 1.385 . S
C2963 H2938 0.951 . S
C2963 C2961 1.388 . S
C2963 C2964 1.366 . S
C2964 C2963 1.366 . S
C2964 C2965 1.414 . S
C2964 C2967 1.499 . S
C2965 H2939 0.950 . S
C2965 C2964 1.414 . S
C2965 C2966 1.374 . S
C2966 H2940 0.950 . S
C2966 C2962 1.385 . S
C2966 C2965 1.374 . S
C2967 C2964 1.499 . S
C2967 C2968 1.373 . S
C2967 C2969 1.389 . S
C2968 H2941 0.950 . S
C2968 C2954 1.377 . S
C2968 C2967 1.373 . S
C2969 C2953 1.377 . S
C2969 C2967 1.389 . S
C2969 C2970 1.524 . S
C2970 C2969 1.524 . S
C2970 C2971 1.397 . S
C2970 C2975 1.363 . S
C2971 H2942 0.950 . S
C2971 C2970 1.397 . S
C2971 C2972 1.334 . S
C2972 H2943 0.950 . S
C2972 C2971 1.334 . S
C2972 C2973 1.287 . S
C2973 C2972 1.287 . S
C2973 C2974 1.524 . S
C2973 H2976 0.999 . S
C2974 H2944 0.950 . S
C2974 C2973 1.524 . S
C2974 C2975 1.415 . S
C2975 H2945 0.950 . S
C2975 C2970 1.363 . S
C2975 C2974 1.415 . S
H2976 C2973 0.999 . S
H2977 C2958 0.913 . S
H2978 C2996 0.951 . S
H2979 C2998 0.951 . S
H2980 C3000 0.950 . S
H2981 C3001 0.950 . S
H2982 C3003 0.950 . S
H2983 C3006 0.950 . S
H2984 C3007 0.950 . S
H2985 C3009 0.950 . S
H2986 C3010 0.950 . S
H2987 C3011 0.951 . S
H2988 C3013 0.951 . S
H2989 C3015 0.950 . S
H2990 C3016 0.950 . S
H2991 C3018 0.950 . S
H2992 C3021 0.950 . S
H2993 C3022 0.950 . S
H2994 C3024 0.950 . S
H2995 C3025 0.950 . S
C2996 H2978 0.951 . S
C2996 C2997 1.366 . S
C2996 C2998 1.388 . S
C2997 C2996 1.366 . S
C2997 C3001 1.385 . S
C2998 H2979 0.951 . S
C2998 C2996 1.388 . S
C2998 C2999 1.366 . S
C2999 C2998 1.366 . S
C2999 C3000 1.414 . S
C2999 C3002 1.499 . S
C3000 H2980 0.950 . S
C3000 C2999 1.414 . S
C3000 C3001 1.374 . S
C3001 H2981 0.950 . S
C3001 C2997 1.385 . S
C3001 C3000 1.374 . S
C3002 C2999 1.499 . S
C3002 C3003 1.373 . S
C3002 C3004 1.389 . S
C3003 H2982 0.950 . S
C3003 C3002 1.373 . S
C3003 C3019 1.377 . S
C3004 C3002 1.389 . S
C3004 C3005 1.524 . S
C3004 C3018 1.377 . S
C3005 C3004 1.524 . S
C3005 C3006 1.397 . S
C3005 C3010 1.363 . S
C3006 H2983 0.950 . S
C3006 C3005 1.397 . S
C3006 C3007 1.334 . S
C3007 H2984 0.950 . S
C3007 C3006 1.334 . S
C3007 C3008 1.287 . S
C3008 C3007 1.287 . S
C3008 C3009 1.524 . S
C3008 H3027 0.913 . S
C3009 H2985 0.950 . S
C3009 C3008 1.524 . S
C3009 C3010 1.415 . S
C3010 H2986 0.950 . S
C3010 C3005 1.363 . S
C3010 C3009 1.415 . S
C3011 H2987 0.951 . S
C3011 C3012 1.366 . S
C3011 C3013 1.388 . S
C3012 C3011 1.366 . S
C3012 C3016 1.385 . S
C3013 H2988 0.951 . S
C3013 C3011 1.388 . S
C3013 C3014 1.366 . S
C3014 C3013 1.366 . S
C3014 C3015 1.414 . S
C3014 C3017 1.499 . S
C3015 H2989 0.950 . S
C3015 C3014 1.414 . S
C3015 C3016 1.374 . S
C3016 H2990 0.950 . S
C3016 C3012 1.385 . S
C3016 C3015 1.374 . S
C3017 C3014 1.499 . S
C3017 C3018 1.373 . S
C3017 C3019 1.389 . S
C3018 H2991 0.950 . S
C3018 C3004 1.377 . S
C3018 C3017 1.373 . S
C3019 C3003 1.377 . S
C3019 C3017 1.389 . S
C3019 C3020 1.524 . S
C3020 C3019 1.524 . S
C3020 C3021 1.397 . S
C3020 C3025 1.363 . S
C3021 H2992 0.950 . S
C3021 C3020 1.397 . S
C3021 C3022 1.334 . S
C3022 H2993 0.950 . S
C3022 C3021 1.334 . S
C3022 C3023 1.287 . S
C3023 C3022 1.287 . S
C3023 C3024 1.524 . S
C3023 H3026 0.999 . S
C3024 H2994 0.950 . S
C3024 C3023 1.524 . S
C3024 C3025 1.415 . S
C3025 H2995 0.950 . S
C3025 C3020 1.363 . S
C3025 C3024 1.415 . S
H3026 C3023 0.999 . S
H3027 C3008 0.913 . S
H3028 C3046 0.951 . S
H3029 C3048 0.951 . S
H3030 C3050 0.950 . S
H3031 C3051 0.950 . S
H3032 C3053 0.950 . S
H3033 C3056 0.950 . S
H3034 C3057 0.950 . S
H3035 C3059 0.950 . S
H3036 C3060 0.950 . S
H3037 C3061 0.951 . S
H3038 C3063 0.951 . S
H3039 C3065 0.950 . S
H3040 C3066 0.950 . S
H3041 C3068 0.950 . S
H3042 C3071 0.950 . S
H3043 C3072 0.950 . S
H3044 C3074 0.950 . S
H3045 C3075 0.950 . S
C3046 H3028 0.951 . S
C3046 C3047 1.366 . S
C3046 C3048 1.388 . S
C3047 C3046 1.366 . S
C3047 C3051 1.385 . S
C3048 H3029 0.951 . S
C3048 C3046 1.388 . S
C3048 C3049 1.366 . S
C3049 C3048 1.366 . S
C3049 C3050 1.414 . S
C3049 C3052 1.499 . S
C3050 H3030 0.950 . S
C3050 C3049 1.414 . S
C3050 C3051 1.374 . S
C3051 H3031 0.950 . S
C3051 C3047 1.385 . S
C3051 C3050 1.374 . S
C3052 C3049 1.499 . S
C3052 C3053 1.373 . S
C3052 C3054 1.389 . S
C3053 H3032 0.950 . S
C3053 C3052 1.373 . S
C3053 C3069 1.377 . S
C3054 C3052 1.389 . S
C3054 C3055 1.524 . S
C3054 C3068 1.377 . S
C3055 C3054 1.524 . S
C3055 C3056 1.397 . S
C3055 C3060 1.363 . S
C3056 H3033 0.950 . S
C3056 C3055 1.397 . S
C3056 C3057 1.334 . S
C3057 H3034 0.950 . S
C3057 C3056 1.334 . S
C3057 C3058 1.287 . S
C3058 C3057 1.287 . S
C3058 C3059 1.524 . S
C3058 H3077 0.913 1_455 S
C3059 H3035 0.950 . S
C3059 C3058 1.524 . S
C3059 C3060 1.415 . S
C3060 H3036 0.950 . S
C3060 C3055 1.363 . S
C3060 C3059 1.415 . S
C3061 H3037 0.951 . S
C3061 C3062 1.366 . S
C3061 C3063 1.388 . S
C3062 C3061 1.366 . S
C3062 C3066 1.385 . S
C3063 H3038 0.951 . S
C3063 C3061 1.388 . S
C3063 C3064 1.366 . S
C3064 C3063 1.366 . S
C3064 C3065 1.414 . S
C3064 C3067 1.499 . S
C3065 H3039 0.950 . S
C3065 C3064 1.414 . S
C3065 C3066 1.374 . S
C3066 H3040 0.950 . S
C3066 C3062 1.385 . S
C3066 C3065 1.374 . S
C3067 C3064 1.499 . S
C3067 C3068 1.373 . S
C3067 C3069 1.389 . S
C3068 H3041 0.950 . S
C3068 C3054 1.377 . S
C3068 C3067 1.373 . S
C3069 C3053 1.377 . S
C3069 C3067 1.389 . S
C3069 C3070 1.524 . S
C3070 C3069 1.524 . S
C3070 C3071 1.397 . S
C3070 C3075 1.363 . S
C3071 H3042 0.950 . S
C3071 C3070 1.397 . S
C3071 C3072 1.334 . S
C3072 H3043 0.950 . S
C3072 C3071 1.334 . S
C3072 C3073 1.287 . S
C3073 C3072 1.287 . S
C3073 C3074 1.524 . S
C3073 H3076 0.999 . S
C3074 H3044 0.950 . S
C3074 C3073 1.524 . S
C3074 C3075 1.415 . S
C3075 H3045 0.950 . S
C3075 C3070 1.363 . S
C3075 C3074 1.415 . S
H3076 C3073 0.999 . S
H3077 C3058 0.913 1_655 S
H3078 C3096 0.951 . S
H3079 C3098 0.951 . S
H3080 C3100 0.950 . S
H3081 C3101 0.950 . S
H3082 C3103 0.950 . S
H3083 C3106 0.950 . S
H3084 C3107 0.950 . S
H3085 C3109 0.950 . S
H3086 C3110 0.950 . S
H3087 C3111 0.951 . S
H3088 C3113 0.951 . S
H3089 C3115 0.950 . S
H3090 C3116 0.950 . S
H3091 C3118 0.950 . S
H3092 C3121 0.950 . S
H3093 C3122 0.950 . S
H3094 C3124 0.950 . S
H3095 C3125 0.950 . S
C3096 H3078 0.951 . S
C3096 C3097 1.366 . S
C3096 C3098 1.388 . S
C3097 C3096 1.366 . S
C3097 C3101 1.385 . S
C3098 H3079 0.951 . S
C3098 C3096 1.388 . S
C3098 C3099 1.366 . S
C3099 C3098 1.366 . S
C3099 C3100 1.414 . S
C3099 C3102 1.499 . S
C3100 H3080 0.950 . S
C3100 C3099 1.414 . S
C3100 C3101 1.374 . S
C3101 H3081 0.950 . S
C3101 C3097 1.385 . S
C3101 C3100 1.374 . S
C3102 C3099 1.499 . S
C3102 C3103 1.373 . S
C3102 C3104 1.389 . S
C3103 H3082 0.950 . S
C3103 C3102 1.373 . S
C3103 C3119 1.377 . S
C3104 C3102 1.389 . S
C3104 C3105 1.524 . S
C3104 C3118 1.377 . S
C3105 C3104 1.524 . S
C3105 C3106 1.397 . S
C3105 C3110 1.363 . S
C3106 H3083 0.950 . S
C3106 C3105 1.397 . S
C3106 C3107 1.334 . S
C3107 H3084 0.950 . S
C3107 C3106 1.334 . S
C3107 C3108 1.287 . S
C3108 C3107 1.287 . S
C3108 C3109 1.524 . S
C3108 H3127 0.913 . S
C3109 H3085 0.950 . S
C3109 C3108 1.524 . S
C3109 C3110 1.415 . S
C3110 H3086 0.950 . S
C3110 C3105 1.363 . S
C3110 C3109 1.415 . S
C3111 H3087 0.951 . S
C3111 C3112 1.366 . S
C3111 C3113 1.388 . S
C3112 C3111 1.366 . S
C3112 C3116 1.385 . S
C3113 H3088 0.951 . S
C3113 C3111 1.388 . S
C3113 C3114 1.366 . S
C3114 C3113 1.366 . S
C3114 C3115 1.414 . S
C3114 C3117 1.499 . S
C3115 H3089 0.950 . S
C3115 C3114 1.414 . S
C3115 C3116 1.374 . S
C3116 H3090 0.950 . S
C3116 C3112 1.385 . S
C3116 C3115 1.374 . S
C3117 C3114 1.499 . S
C3117 C3118 1.373 . S
C3117 C3119 1.389 . S
C3118 H3091 0.950 . S
C3118 C3104 1.377 . S
C3118 C3117 1.373 . S
C3119 C3103 1.377 . S
C3119 C3117 1.389 . S
C3119 C3120 1.524 . S
C3120 C3119 1.524 . S
C3120 C3121 1.397 . S
C3120 C3125 1.363 . S
C3121 H3092 0.950 . S
C3121 C3120 1.397 . S
C3121 C3122 1.334 . S
C3122 H3093 0.950 . S
C3122 C3121 1.334 . S
C3122 C3123 1.287 . S
C3123 C3122 1.287 . S
C3123 C3124 1.524 . S
C3123 H3126 0.999 . S
C3124 H3094 0.950 . S
C3124 C3123 1.524 . S
C3124 C3125 1.415 . S
C3125 H3095 0.950 . S
C3125 C3120 1.363 . S
C3125 C3124 1.415 . S
H3126 C3123 0.999 . S
H3127 C3108 0.913 . S
H3128 C3146 0.951 . S
H3129 C3148 0.951 . S
H3130 C3150 0.950 . S
H3131 C3151 0.950 . S
H3132 C3153 0.950 . S
H3133 C3156 0.950 . S
H3134 C3157 0.950 . S
H3135 C3159 0.950 . S
H3136 C3160 0.950 . S
H3137 C3161 0.951 . S
H3138 C3163 0.951 . S
H3139 C3165 0.950 . S
H3140 C3166 0.950 . S
H3141 C3168 0.950 . S
H3142 C3171 0.950 . S
H3143 C3172 0.950 . S
H3144 C3174 0.950 . S
H3145 C3175 0.950 . S
C3146 H3128 0.951 . S
C3146 C3147 1.366 . S
C3146 C3148 1.388 . S
C3147 C3146 1.366 . S
C3147 C3151 1.385 . S
C3148 H3129 0.951 . S
C3148 C3146 1.388 . S
C3148 C3149 1.366 . S
C3149 C3148 1.366 . S
C3149 C3150 1.414 . S
C3149 C3152 1.499 . S
C3150 H3130 0.950 . S
C3150 C3149 1.414 . S
C3150 C3151 1.374 . S
C3151 H3131 0.950 . S
C3151 C3147 1.385 . S
C3151 C3150 1.374 . S
C3152 C3149 1.499 . S
C3152 C3153 1.373 . S
C3152 C3154 1.389 . S
C3153 H3132 0.950 . S
C3153 C3152 1.373 . S
C3153 C3169 1.377 . S
C3154 C3152 1.389 . S
C3154 C3155 1.524 . S
C3154 C3168 1.377 . S
C3155 C3154 1.524 . S
C3155 C3156 1.397 . S
C3155 C3160 1.363 . S
C3156 H3133 0.950 . S
C3156 C3155 1.397 . S
C3156 C3157 1.334 . S
C3157 H3134 0.950 . S
C3157 C3156 1.334 . S
C3157 C3158 1.287 . S
C3158 C3157 1.287 . S
C3158 C3159 1.524 . S
C3158 H3177 0.913 . S
C3159 H3135 0.950 . S
C3159 C3158 1.524 . S
C3159 C3160 1.415 . S
C3160 H3136 0.950 . S
C3160 C3155 1.363 . S
C3160 C3159 1.415 . S
C3161 H3137 0.951 . S
C3161 C3162 1.366 . S
C3161 C3163 1.388 . S
C3162 C3161 1.366 . S
C3162 C3166 1.385 . S
C3163 H3138 0.951 . S
C3163 C3161 1.388 . S
C3163 C3164 1.366 . S
C3164 C3163 1.366 . S
C3164 C3165 1.414 . S
C3164 C3167 1.499 . S
C3165 H3139 0.950 . S
C3165 C3164 1.414 . S
C3165 C3166 1.374 . S
C3166 H3140 0.950 . S
C3166 C3162 1.385 . S
C3166 C3165 1.374 . S
C3167 C3164 1.499 . S
C3167 C3168 1.373 . S
C3167 C3169 1.389 . S
C3168 H3141 0.950 . S
C3168 C3154 1.377 . S
C3168 C3167 1.373 . S
C3169 C3153 1.377 . S
C3169 C3167 1.389 . S
C3169 C3170 1.524 . S
C3170 C3169 1.524 . S
C3170 C3171 1.397 . S
C3170 C3175 1.363 . S
C3171 H3142 0.950 . S
C3171 C3170 1.397 . S
C3171 C3172 1.334 . S
C3172 H3143 0.950 . S
C3172 C3171 1.334 . S
C3172 C3173 1.287 . S
C3173 C3172 1.287 . S
C3173 C3174 1.524 . S
C3173 H3176 0.999 . S
C3174 H3144 0.950 . S
C3174 C3173 1.524 . S
C3174 C3175 1.415 . S
C3175 H3145 0.950 . S
C3175 C3170 1.363 . S
C3175 C3174 1.415 . S
H3176 C3173 0.999 . S
H3177 C3158 0.913 . S
H3178 C3196 0.951 . S
H3179 C3198 0.951 . S
H3180 C3200 0.950 . S
H3181 C3201 0.950 . S
H3182 C3203 0.950 . S
H3183 C3206 0.950 . S
H3184 C3207 0.950 . S
H3185 C3209 0.950 . S
H3186 C3210 0.950 . S
H3187 C3211 0.951 . S
H3188 C3213 0.951 . S
H3189 C3215 0.950 . S
H3190 C3216 0.950 . S
H3191 C3218 0.950 . S
H3192 C3221 0.950 . S
H3193 C3222 0.950 . S
H3194 C3224 0.950 . S
H3195 C3225 0.950 . S
C3196 H3178 0.951 . S
C3196 C3197 1.366 . S
C3196 C3198 1.388 . S
C3197 C3196 1.366 . S
C3197 C3201 1.385 . S
C3198 H3179 0.951 . S
C3198 C3196 1.388 . S
C3198 C3199 1.366 . S
C3199 C3198 1.366 . S
C3199 C3200 1.414 . S
C3199 C3202 1.499 . S
C3200 H3180 0.950 . S
C3200 C3199 1.414 . S
C3200 C3201 1.374 . S
C3201 H3181 0.950 . S
C3201 C3197 1.385 . S
C3201 C3200 1.374 . S
C3202 C3199 1.499 . S
C3202 C3203 1.373 . S
C3202 C3204 1.389 . S
C3203 H3182 0.950 . S
C3203 C3202 1.373 . S
C3203 C3219 1.377 . S
C3204 C3202 1.389 . S
C3204 C3205 1.524 . S
C3204 C3218 1.377 . S
C3205 C3204 1.524 . S
C3205 C3206 1.397 . S
C3205 C3210 1.363 . S
C3206 H3183 0.950 . S
C3206 C3205 1.397 . S
C3206 C3207 1.334 . S
C3207 H3184 0.950 . S
C3207 C3206 1.334 . S
C3207 C3208 1.287 . S
C3208 C3207 1.287 . S
C3208 C3209 1.524 . S
C3208 H3227 0.913 1_565 S
C3209 H3185 0.950 . S
C3209 C3208 1.524 . S
C3209 C3210 1.415 . S
C3210 H3186 0.950 . S
C3210 C3205 1.363 . S
C3210 C3209 1.415 . S
C3211 H3187 0.951 . S
C3211 C3212 1.366 . S
C3211 C3213 1.388 . S
C3212 C3211 1.366 . S
C3212 C3216 1.385 . S
C3213 H3188 0.951 . S
C3213 C3211 1.388 . S
C3213 C3214 1.366 . S
C3214 C3213 1.366 . S
C3214 C3215 1.414 . S
C3214 C3217 1.499 . S
C3215 H3189 0.950 . S
C3215 C3214 1.414 . S
C3215 C3216 1.374 . S
C3216 H3190 0.950 . S
C3216 C3212 1.385 . S
C3216 C3215 1.374 . S
C3217 C3214 1.499 . S
C3217 C3218 1.373 . S
C3217 C3219 1.389 . S
C3218 H3191 0.950 . S
C3218 C3204 1.377 . S
C3218 C3217 1.373 . S
C3219 C3203 1.377 . S
C3219 C3217 1.389 . S
C3219 C3220 1.524 . S
C3220 C3219 1.524 . S
C3220 C3221 1.397 . S
C3220 C3225 1.363 . S
C3221 H3192 0.950 . S
C3221 C3220 1.397 . S
C3221 C3222 1.334 . S
C3222 H3193 0.950 . S
C3222 C3221 1.334 . S
C3222 C3223 1.287 . S
C3223 C3222 1.287 . S
C3223 C3224 1.524 . S
C3223 H3226 0.999 . S
C3224 H3194 0.950 . S
C3224 C3223 1.524 . S
C3224 C3225 1.415 . S
C3225 H3195 0.950 . S
C3225 C3220 1.363 . S
C3225 C3224 1.415 . S
H3226 C3223 0.999 . S
H3227 C3208 0.913 1_545 S
H3228 C3246 0.951 . S
H3229 C3248 0.951 . S
H3230 C3250 0.950 . S
H3231 C3251 0.950 . S
H3232 C3253 0.950 . S
H3233 C3256 0.950 . S
H3234 C3257 0.950 . S
H3235 C3259 0.950 . S
H3236 C3260 0.950 . S
H3237 C3261 0.951 . S
H3238 C3263 0.951 . S
H3239 C3265 0.950 . S
H3240 C3266 0.950 . S
H3241 C3268 0.950 . S
H3242 C3271 0.950 . S
H3243 C3272 0.950 . S
H3244 C3274 0.950 . S
H3245 C3275 0.950 . S
C3246 H3228 0.951 . S
C3246 C3247 1.366 . S
C3246 C3248 1.388 . S
C3247 C3246 1.366 . S
C3247 C3251 1.385 . S
C3248 H3229 0.951 . S
C3248 C3246 1.388 . S
C3248 C3249 1.366 . S
C3249 C3248 1.366 . S
C3249 C3250 1.414 . S
C3249 C3252 1.499 . S
C3250 H3230 0.950 . S
C3250 C3249 1.414 . S
C3250 C3251 1.374 . S
C3251 H3231 0.950 . S
C3251 C3247 1.385 . S
C3251 C3250 1.374 . S
C3252 C3249 1.499 . S
C3252 C3253 1.373 . S
C3252 C3254 1.389 . S
C3253 H3232 0.950 . S
C3253 C3252 1.373 . S
C3253 C3269 1.377 . S
C3254 C3252 1.389 . S
C3254 C3255 1.524 . S
C3254 C3268 1.377 . S
C3255 C3254 1.524 . S
C3255 C3256 1.397 . S
C3255 C3260 1.363 . S
C3256 H3233 0.950 . S
C3256 C3255 1.397 . S
C3256 C3257 1.334 . S
C3257 H3234 0.950 . S
C3257 C3256 1.334 . S
C3257 C3258 1.287 . S
C3258 C3257 1.287 . S
C3258 C3259 1.524 . S
C3258 H3277 0.913 . S
C3259 H3235 0.950 . S
C3259 C3258 1.524 . S
C3259 C3260 1.415 . S
C3260 H3236 0.950 . S
C3260 C3255 1.363 . S
C3260 C3259 1.415 . S
C3261 H3237 0.951 . S
C3261 C3262 1.366 . S
C3261 C3263 1.388 . S
C3262 C3261 1.366 . S
C3262 C3266 1.385 . S
C3263 H3238 0.951 . S
C3263 C3261 1.388 . S
C3263 C3264 1.366 . S
C3264 C3263 1.366 . S
C3264 C3265 1.414 . S
C3264 C3267 1.499 . S
C3265 H3239 0.950 . S
C3265 C3264 1.414 . S
C3265 C3266 1.374 . S
C3266 H3240 0.950 . S
C3266 C3262 1.385 . S
C3266 C3265 1.374 . S
C3267 C3264 1.499 . S
C3267 C3268 1.373 . S
C3267 C3269 1.389 . S
C3268 H3241 0.950 . S
C3268 C3254 1.377 . S
C3268 C3267 1.373 . S
C3269 C3253 1.377 . S
C3269 C3267 1.389 . S
C3269 C3270 1.524 . S
C3270 C3269 1.524 . S
C3270 C3271 1.397 . S
C3270 C3275 1.363 . S
C3271 H3242 0.950 . S
C3271 C3270 1.397 . S
C3271 C3272 1.334 . S
C3272 H3243 0.950 . S
C3272 C3271 1.334 . S
C3272 C3273 1.287 . S
C3273 C3272 1.287 . S
C3273 C3274 1.524 . S
C3273 H3276 0.999 . S
C3274 H3244 0.950 . S
C3274 C3273 1.524 . S
C3274 C3275 1.415 . S
C3275 H3245 0.950 . S
C3275 C3270 1.363 . S
C3275 C3274 1.415 . S
H3276 C3273 0.999 . S
H3277 C3258 0.913 . S
H3278 C3296 0.951 . S
H3279 C3298 0.951 . S
H3280 C3300 0.950 . S
H3281 C3301 0.950 . S
H3282 C3303 0.950 . S
H3283 C3306 0.950 . S
H3284 C3307 0.950 . S
H3285 C3309 0.950 . S
H3286 C3310 0.950 . S
H3287 C3311 0.951 . S
H3288 C3313 0.951 . S
H3289 C3315 0.950 . S
H3290 C3316 0.950 . S
H3291 C3318 0.950 . S
H3292 C3321 0.950 . S
H3293 C3322 0.950 . S
H3294 C3324 0.950 . S
H3295 C3325 0.950 . S
C3296 H3278 0.951 . S
C3296 C3297 1.366 . S
C3296 C3298 1.388 . S
C3297 C3296 1.366 . S
C3297 C3301 1.385 . S
C3298 H3279 0.951 . S
C3298 C3296 1.388 . S
C3298 C3299 1.366 . S
C3299 C3298 1.366 . S
C3299 C3300 1.414 . S
C3299 C3302 1.499 . S
C3300 H3280 0.950 . S
C3300 C3299 1.414 . S
C3300 C3301 1.374 . S
C3301 H3281 0.950 . S
C3301 C3297 1.385 . S
C3301 C3300 1.374 . S
C3302 C3299 1.499 . S
C3302 C3303 1.373 . S
C3302 C3304 1.389 . S
C3303 H3282 0.950 . S
C3303 C3302 1.373 . S
C3303 C3319 1.377 . S
C3304 C3302 1.389 . S
C3304 C3305 1.524 . S
C3304 C3318 1.377 . S
C3305 C3304 1.524 . S
C3305 C3306 1.397 . S
C3305 C3310 1.363 . S
C3306 H3283 0.950 . S
C3306 C3305 1.397 . S
C3306 C3307 1.334 . S
C3307 H3284 0.950 . S
C3307 C3306 1.334 . S
C3307 C3308 1.287 . S
C3308 C3307 1.287 . S
C3308 C3309 1.524 . S
C3308 H3327 0.913 . S
C3309 H3285 0.950 . S
C3309 C3308 1.524 . S
C3309 C3310 1.415 . S
C3310 H3286 0.950 . S
C3310 C3305 1.363 . S
C3310 C3309 1.415 . S
C3311 H3287 0.951 . S
C3311 C3312 1.366 . S
C3311 C3313 1.388 . S
C3312 C3311 1.366 . S
C3312 C3316 1.385 . S
C3313 H3288 0.951 . S
C3313 C3311 1.388 . S
C3313 C3314 1.366 . S
C3314 C3313 1.366 . S
C3314 C3315 1.414 . S
C3314 C3317 1.499 . S
C3315 H3289 0.950 . S
C3315 C3314 1.414 . S
C3315 C3316 1.374 . S
C3316 H3290 0.950 . S
C3316 C3312 1.385 . S
C3316 C3315 1.374 . S
C3317 C3314 1.499 . S
C3317 C3318 1.373 . S
C3317 C3319 1.389 . S
C3318 H3291 0.950 . S
C3318 C3304 1.377 . S
C3318 C3317 1.373 . S
C3319 C3303 1.377 . S
C3319 C3317 1.389 . S
C3319 C3320 1.524 . S
C3320 C3319 1.524 . S
C3320 C3321 1.397 . S
C3320 C3325 1.363 . S
C3321 H3292 0.950 . S
C3321 C3320 1.397 . S
C3321 C3322 1.334 . S
C3322 H3293 0.950 . S
C3322 C3321 1.334 . S
C3322 C3323 1.287 . S
C3323 C3322 1.287 . S
C3323 C3324 1.524 . S
C3323 H3326 0.999 . S
C3324 H3294 0.950 . S
C3324 C3323 1.524 . S
C3324 C3325 1.415 . S
C3325 H3295 0.950 . S
C3325 C3320 1.363 . S
C3325 C3324 1.415 . S
H3326 C3323 0.999 . S
H3327 C3308 0.913 . S
H3328 C3346 0.951 . S
H3329 C3348 0.951 . S
H3330 C3350 0.950 . S
H3331 C3351 0.950 . S
H3332 C3353 0.950 . S
H3333 C3356 0.950 . S
H3334 C3357 0.950 . S
H3335 C3359 0.950 . S
H3336 C3360 0.950 . S
H3337 C3361 0.951 . S
H3338 C3363 0.951 . S
H3339 C3365 0.950 . S
H3340 C3366 0.950 . S
H3341 C3368 0.950 . S
H3342 C3371 0.950 . S
H3343 C3372 0.950 . S
H3344 C3374 0.950 . S
H3345 C3375 0.950 . S
C3346 H3328 0.951 . S
C3346 C3347 1.366 . S
C3346 C3348 1.388 . S
C3347 C3346 1.366 . S
C3347 C3351 1.385 . S
C3348 H3329 0.951 . S
C3348 C3346 1.388 . S
C3348 C3349 1.366 . S
C3349 C3348 1.366 . S
C3349 C3350 1.414 . S
C3349 C3352 1.499 . S
C3350 H3330 0.950 . S
C3350 C3349 1.414 . S
C3350 C3351 1.374 . S
C3351 H3331 0.950 . S
C3351 C3347 1.385 . S
C3351 C3350 1.374 . S
C3352 C3349 1.499 . S
C3352 C3353 1.373 . S
C3352 C3354 1.389 . S
C3353 H3332 0.950 . S
C3353 C3352 1.373 . S
C3353 C3369 1.377 . S
C3354 C3352 1.389 . S
C3354 C3355 1.524 . S
C3354 C3368 1.377 . S
C3355 C3354 1.524 . S
C3355 C3356 1.397 . S
C3355 C3360 1.363 . S
C3356 H3333 0.950 . S
C3356 C3355 1.397 . S
C3356 C3357 1.334 . S
C3357 H3334 0.950 . S
C3357 C3356 1.334 . S
C3357 C3358 1.287 . S
C3358 C3357 1.287 . S
C3358 C3359 1.524 . S
C3358 H3377 0.913 . S
C3359 H3335 0.950 . S
C3359 C3358 1.524 . S
C3359 C3360 1.415 . S
C3360 H3336 0.950 . S
C3360 C3355 1.363 . S
C3360 C3359 1.415 . S
C3361 H3337 0.951 . S
C3361 C3362 1.366 . S
C3361 C3363 1.388 . S
C3362 C3361 1.366 . S
C3362 C3366 1.385 . S
C3363 H3338 0.951 . S
C3363 C3361 1.388 . S
C3363 C3364 1.366 . S
C3364 C3363 1.366 . S
C3364 C3365 1.414 . S
C3364 C3367 1.499 . S
C3365 H3339 0.950 . S
C3365 C3364 1.414 . S
C3365 C3366 1.374 . S
C3366 H3340 0.950 . S
C3366 C3362 1.385 . S
C3366 C3365 1.374 . S
C3367 C3364 1.499 . S
C3367 C3368 1.373 . S
C3367 C3369 1.389 . S
C3368 H3341 0.950 . S
C3368 C3354 1.377 . S
C3368 C3367 1.373 . S
C3369 C3353 1.377 . S
C3369 C3367 1.389 . S
C3369 C3370 1.524 . S
C3370 C3369 1.524 . S
C3370 C3371 1.397 . S
C3370 C3375 1.363 . S
C3371 H3342 0.950 . S
C3371 C3370 1.397 . S
C3371 C3372 1.334 . S
C3372 H3343 0.950 . S
C3372 C3371 1.334 . S
C3372 C3373 1.287 . S
C3373 C3372 1.287 . S
C3373 C3374 1.524 . S
C3373 H3376 0.999 . S
C3374 H3344 0.950 . S
C3374 C3373 1.524 . S
C3374 C3375 1.415 . S
C3375 H3345 0.950 . S
C3375 C3370 1.363 . S
C3375 C3374 1.415 . S
H3376 C3373 0.999 . S
H3377 C3358 0.913 . S
H3378 C3396 0.951 . S
H3379 C3398 0.951 . S
H3380 C3400 0.950 . S
H3381 C3401 0.950 . S
H3382 C3403 0.950 . S
H3383 C3406 0.950 . S
H3384 C3407 0.950 . S
H3385 C3409 0.950 . S
H3386 C3410 0.950 . S
H3387 C3411 0.951 . S
H3388 C3413 0.951 . S
H3389 C3415 0.950 . S
H3390 C3416 0.950 . S
H3391 C3418 0.950 . S
H3392 C3421 0.950 . S
H3393 C3422 0.950 . S
H3394 C3424 0.950 . S
H3395 C3425 0.950 . S
C3396 H3378 0.951 . S
C3396 C3397 1.366 . S
C3396 C3398 1.388 . S
C3397 C3396 1.366 . S
C3397 C3401 1.385 . S
C3398 H3379 0.951 . S
C3398 C3396 1.388 . S
C3398 C3399 1.366 . S
C3399 C3398 1.366 . S
C3399 C3400 1.414 . S
C3399 C3402 1.499 . S
C3400 H3380 0.950 . S
C3400 C3399 1.414 . S
C3400 C3401 1.374 . S
C3401 H3381 0.950 . S
C3401 C3397 1.385 . S
C3401 C3400 1.374 . S
C3402 C3399 1.499 . S
C3402 C3403 1.373 . S
C3402 C3404 1.389 . S
C3403 H3382 0.950 . S
C3403 C3402 1.373 . S
C3403 C3419 1.377 . S
C3404 C3402 1.389 . S
C3404 C3405 1.524 . S
C3404 C3418 1.377 . S
C3405 C3404 1.524 . S
C3405 C3406 1.397 . S
C3405 C3410 1.363 . S
C3406 H3383 0.950 . S
C3406 C3405 1.397 . S
C3406 C3407 1.334 . S
C3407 H3384 0.950 . S
C3407 C3406 1.334 . S
C3407 C3408 1.287 . S
C3408 C3407 1.287 . S
C3408 C3409 1.524 . S
C3408 H3427 0.913 . S
C3409 H3385 0.950 . S
C3409 C3408 1.524 . S
C3409 C3410 1.415 . S
C3410 H3386 0.950 . S
C3410 C3405 1.363 . S
C3410 C3409 1.415 . S
C3411 H3387 0.951 . S
C3411 C3412 1.366 . S
C3411 C3413 1.388 . S
C3412 C3411 1.366 . S
C3412 C3416 1.385 . S
C3413 H3388 0.951 . S
C3413 C3411 1.388 . S
C3413 C3414 1.366 . S
C3414 C3413 1.366 . S
C3414 C3415 1.414 . S
C3414 C3417 1.499 . S
C3415 H3389 0.950 . S
C3415 C3414 1.414 . S
C3415 C3416 1.374 . S
C3416 H3390 0.950 . S
C3416 C3412 1.385 . S
C3416 C3415 1.374 . S
C3417 C3414 1.499 . S
C3417 C3418 1.373 . S
C3417 C3419 1.389 . S
C3418 H3391 0.950 . S
C3418 C3404 1.377 . S
C3418 C3417 1.373 . S
C3419 C3403 1.377 . S
C3419 C3417 1.389 . S
C3419 C3420 1.524 . S
C3420 C3419 1.524 . S
C3420 C3421 1.397 . S
C3420 C3425 1.363 . S
C3421 H3392 0.950 . S
C3421 C3420 1.397 . S
C3421 C3422 1.334 . S
C3422 H3393 0.950 . S
C3422 C3421 1.334 . S
C3422 C3423 1.287 . S
C3423 C3422 1.287 . S
C3423 C3424 1.524 . S
C3423 H3426 0.999 . S
C3424 H3394 0.950 . S
C3424 C3423 1.524 . S
C3424 C3425 1.415 . S
C3425 H3395 0.950 . S
C3425 C3420 1.363 . S
C3425 C3424 1.415 . S
H3426 C3423 0.999 . S
H3427 C3408 0.913 . S
H3428 C3446 0.951 . S
H3429 C3448 0.951 . S
H3430 C3450 0.950 . S
H3431 C3451 0.950 . S
H3432 C3453 0.950 . S
H3433 C3456 0.950 . S
H3434 C3457 0.950 . S
H3435 C3459 0.950 . S
H3436 C3460 0.950 . S
H3437 C3461 0.951 . S
H3438 C3463 0.951 . S
H3439 C3465 0.950 . S
H3440 C3466 0.950 . S
H3441 C3468 0.950 . S
H3442 C3471 0.950 . S
H3443 C3472 0.950 . S
H3444 C3474 0.950 . S
H3445 C3475 0.950 . S
C3446 H3428 0.951 . S
C3446 C3447 1.366 . S
C3446 C3448 1.388 . S
C3447 C3446 1.366 . S
C3447 C3451 1.385 . S
C3448 H3429 0.951 . S
C3448 C3446 1.388 . S
C3448 C3449 1.366 . S
C3449 C3448 1.366 . S
C3449 C3450 1.414 . S
C3449 C3452 1.499 . S
C3450 H3430 0.950 . S
C3450 C3449 1.414 . S
C3450 C3451 1.374 . S
C3451 H3431 0.950 . S
C3451 C3447 1.385 . S
C3451 C3450 1.374 . S
C3452 C3449 1.499 . S
C3452 C3453 1.373 . S
C3452 C3454 1.389 . S
C3453 H3432 0.950 . S
C3453 C3452 1.373 . S
C3453 C3469 1.377 . S
C3454 C3452 1.389 . S
C3454 C3455 1.524 . S
C3454 C3468 1.377 . S
C3455 C3454 1.524 . S
C3455 C3456 1.397 . S
C3455 C3460 1.363 . S
C3456 H3433 0.950 . S
C3456 C3455 1.397 . S
C3456 C3457 1.334 . S
C3457 H3434 0.950 . S
C3457 C3456 1.334 . S
C3457 C3458 1.287 . S
C3458 C3457 1.287 . S
C3458 C3459 1.524 . S
C3458 H3477 0.913 . S
C3459 H3435 0.950 . S
C3459 C3458 1.524 . S
C3459 C3460 1.415 . S
C3460 H3436 0.950 . S
C3460 C3455 1.363 . S
C3460 C3459 1.415 . S
C3461 H3437 0.951 . S
C3461 C3462 1.366 . S
C3461 C3463 1.388 . S
C3462 C3461 1.366 . S
C3462 C3466 1.385 . S
C3463 H3438 0.951 . S
C3463 C3461 1.388 . S
C3463 C3464 1.366 . S
C3464 C3463 1.366 . S
C3464 C3465 1.414 . S
C3464 C3467 1.499 . S
C3465 H3439 0.950 . S
C3465 C3464 1.414 . S
C3465 C3466 1.374 . S
C3466 H3440 0.950 . S
C3466 C3462 1.385 . S
C3466 C3465 1.374 . S
C3467 C3464 1.499 . S
C3467 C3468 1.373 . S
C3467 C3469 1.389 . S
C3468 H3441 0.950 . S
C3468 C3454 1.377 . S
C3468 C3467 1.373 . S
C3469 C3453 1.377 . S
C3469 C3467 1.389 . S
C3469 C3470 1.524 . S
C3470 C3469 1.524 . S
C3470 C3471 1.397 . S
C3470 C3475 1.363 . S
C3471 H3442 0.950 . S
C3471 C3470 1.397 . S
C3471 C3472 1.334 . S
C3472 H3443 0.950 . S
C3472 C3471 1.334 . S
C3472 C3473 1.287 . S
C3473 C3472 1.287 . S
C3473 C3474 1.524 . S
C3473 H3476 0.999 . S
C3474 H3444 0.950 . S
C3474 C3473 1.524 . S
C3474 C3475 1.415 . S
C3475 H3445 0.950 . S
C3475 C3470 1.363 . S
C3475 C3474 1.415 . S
H3476 C3473 0.999 . S
H3477 C3458 0.913 . S
H3478 C3496 0.951 . S
H3479 C3498 0.951 . S
H3480 C3500 0.950 . S
H3481 C3501 0.950 . S
H3482 C3503 0.950 . S
H3483 C3506 0.950 . S
H3484 C3507 0.950 . S
H3485 C3509 0.950 . S
H3486 C3510 0.950 . S
H3487 C3511 0.951 . S
H3488 C3513 0.951 . S
H3489 C3515 0.950 . S
H3490 C3516 0.950 . S
H3491 C3518 0.950 . S
H3492 C3521 0.950 . S
H3493 C3522 0.950 . S
H3494 C3524 0.950 . S
H3495 C3525 0.950 . S
C3496 H3478 0.951 . S
C3496 C3497 1.366 . S
C3496 C3498 1.388 . S
C3497 C3496 1.366 . S
C3497 C3501 1.385 . S
C3498 H3479 0.951 . S
C3498 C3496 1.388 . S
C3498 C3499 1.366 . S
C3499 C3498 1.366 . S
C3499 C3500 1.414 . S
C3499 C3502 1.499 . S
C3500 H3480 0.950 . S
C3500 C3499 1.414 . S
C3500 C3501 1.374 . S
C3501 H3481 0.950 . S
C3501 C3497 1.385 . S
C3501 C3500 1.374 . S
C3502 C3499 1.499 . S
C3502 C3503 1.373 . S
C3502 C3504 1.389 . S
C3503 H3482 0.950 . S
C3503 C3502 1.373 . S
C3503 C3519 1.377 . S
C3504 C3502 1.389 . S
C3504 C3505 1.524 . S
C3504 C3518 1.377 . S
C3505 C3504 1.524 . S
C3505 C3506 1.397 . S
C3505 C3510 1.363 . S
C3506 H3483 0.950 . S
C3506 C3505 1.397 . S
C3506 C3507 1.334 . S
C3507 H3484 0.950 . S
C3507 C3506 1.334 . S
C3507 C3508 1.287 . S
C3508 C3507 1.287 . S
C3508 C3509 1.524 . S
C3508 H3527 0.913 . S
C3509 H3485 0.950 . S
C3509 C3508 1.524 . S
C3509 C3510 1.415 . S
C3510 H3486 0.950 . S
C3510 C3505 1.363 . S
C3510 C3509 1.415 . S
C3511 H3487 0.951 . S
C3511 C3512 1.366 . S
C3511 C3513 1.388 . S
C3512 C3511 1.366 . S
C3512 C3516 1.385 . S
C3513 H3488 0.951 . S
C3513 C3511 1.388 . S
C3513 C3514 1.366 . S
C3514 C3513 1.366 . S
C3514 C3515 1.414 . S
C3514 C3517 1.499 . S
C3515 H3489 0.950 . S
C3515 C3514 1.414 . S
C3515 C3516 1.374 . S
C3516 H3490 0.950 . S
C3516 C3512 1.385 . S
C3516 C3515 1.374 . S
C3517 C3514 1.499 . S
C3517 C3518 1.373 . S
C3517 C3519 1.389 . S
C3518 H3491 0.950 . S
C3518 C3504 1.377 . S
C3518 C3517 1.373 . S
C3519 C3503 1.377 . S
C3519 C3517 1.389 . S
C3519 C3520 1.524 . S
C3520 C3519 1.524 . S
C3520 C3521 1.397 . S
C3520 C3525 1.363 . S
C3521 H3492 0.950 . S
C3521 C3520 1.397 . S
C3521 C3522 1.334 . S
C3522 H3493 0.950 . S
C3522 C3521 1.334 . S
C3522 C3523 1.287 . S
C3523 C3522 1.287 . S
C3523 C3524 1.524 . S
C3523 H3526 0.999 . S
C3524 H3494 0.950 . S
C3524 C3523 1.524 . S
C3524 C3525 1.415 . S
C3525 H3495 0.950 . S
C3525 C3520 1.363 . S
C3525 C3524 1.415 . S
H3526 C3523 0.999 . S
H3527 C3508 0.913 . S
H3528 C3546 0.951 . S
H3529 C3548 0.951 . S
H3530 C3550 0.950 . S
H3531 C3551 0.950 . S
H3532 C3553 0.950 . S
H3533 C3556 0.950 . S
H3534 C3557 0.950 . S
H3535 C3559 0.950 . S
H3536 C3560 0.950 . S
H3537 C3561 0.951 . S
H3538 C3563 0.951 . S
H3539 C3565 0.950 . S
H3540 C3566 0.950 . S
H3541 C3568 0.950 . S
H3542 C3571 0.950 . S
H3543 C3572 0.950 . S
H3544 C3574 0.950 . S
H3545 C3575 0.950 . S
C3546 H3528 0.951 . S
C3546 C3547 1.366 . S
C3546 C3548 1.388 . S
C3547 C3546 1.366 . S
C3547 C3551 1.385 . S
C3548 H3529 0.951 . S
C3548 C3546 1.388 . S
C3548 C3549 1.366 . S
C3549 C3548 1.366 . S
C3549 C3550 1.414 . S
C3549 C3552 1.499 . S
C3550 H3530 0.950 . S
C3550 C3549 1.414 . S
C3550 C3551 1.374 . S
C3551 H3531 0.950 . S
C3551 C3547 1.385 . S
C3551 C3550 1.374 . S
C3552 C3549 1.499 . S
C3552 C3553 1.373 . S
C3552 C3554 1.389 . S
C3553 H3532 0.950 . S
C3553 C3552 1.373 . S
C3553 C3569 1.377 . S
C3554 C3552 1.389 . S
C3554 C3555 1.524 . S
C3554 C3568 1.377 . S
C3555 C3554 1.524 . S
C3555 C3556 1.397 . S
C3555 C3560 1.363 . S
C3556 H3533 0.950 . S
C3556 C3555 1.397 . S
C3556 C3557 1.334 . S
C3557 H3534 0.950 . S
C3557 C3556 1.334 . S
C3557 C3558 1.287 . S
C3558 C3557 1.287 . S
C3558 C3559 1.524 . S
C3558 H3577 0.913 . S
C3559 H3535 0.950 . S
C3559 C3558 1.524 . S
C3559 C3560 1.415 . S
C3560 H3536 0.950 . S
C3560 C3555 1.363 . S
C3560 C3559 1.415 . S
C3561 H3537 0.951 . S
C3561 C3562 1.366 . S
C3561 C3563 1.388 . S
C3562 C3561 1.366 . S
C3562 C3566 1.385 . S
C3563 H3538 0.951 . S
C3563 C3561 1.388 . S
C3563 C3564 1.366 . S
C3564 C3563 1.366 . S
C3564 C3565 1.414 . S
C3564 C3567 1.499 . S
C3565 H3539 0.950 . S
C3565 C3564 1.414 . S
C3565 C3566 1.374 . S
C3566 H3540 0.950 . S
C3566 C3562 1.385 . S
C3566 C3565 1.374 . S
C3567 C3564 1.499 . S
C3567 C3568 1.373 . S
C3567 C3569 1.389 . S
C3568 H3541 0.950 . S
C3568 C3554 1.377 . S
C3568 C3567 1.373 . S
C3569 C3553 1.377 . S
C3569 C3567 1.389 . S
C3569 C3570 1.524 . S
C3570 C3569 1.524 . S
C3570 C3571 1.397 . S
C3570 C3575 1.363 . S
C3571 H3542 0.950 . S
C3571 C3570 1.397 . S
C3571 C3572 1.334 . S
C3572 H3543 0.950 . S
C3572 C3571 1.334 . S
C3572 C3573 1.287 . S
C3573 C3572 1.287 . S
C3573 C3574 1.524 . S
C3573 H3576 0.999 1_545 S
C3574 H3544 0.950 . S
C3574 C3573 1.524 . S
C3574 C3575 1.415 . S
C3575 H3545 0.950 . S
C3575 C3570 1.363 . S
C3575 C3574 1.415 . S
H3576 C3573 0.999 1_565 S
H3577 C3558 0.913 . S
H3578 C3596 0.951 . S
H3579 C3598 0.951 . S
H3580 C3600 0.950 . S
H3581 C3601 0.950 . S
H3582 C3603 0.950 . S
H3583 C3606 0.950 . S
H3584 C3607 0.950 . S
H3585 C3609 0.950 . S
H3586 C3610 0.950 . S
H3587 C3611 0.951 . S
H3588 C3613 0.951 . S
H3589 C3615 0.950 . S
H3590 C3616 0.950 . S
H3591 C3618 0.950 . S
H3592 C3621 0.950 . S
H3593 C3622 0.950 . S
H3594 C3624 0.950 . S
H3595 C3625 0.950 . S
C3596 H3578 0.951 . S
C3596 C3597 1.366 . S
C3596 C3598 1.388 . S
C3597 C3596 1.366 . S
C3597 C3601 1.385 . S
C3598 H3579 0.951 . S
C3598 C3596 1.388 . S
C3598 C3599 1.366 . S
C3599 C3598 1.366 . S
C3599 C3600 1.414 . S
C3599 C3602 1.499 . S
C3600 H3580 0.950 . S
C3600 C3599 1.414 . S
C3600 C3601 1.374 . S
C3601 H3581 0.950 . S
C3601 C3597 1.385 . S
C3601 C3600 1.374 . S
C3602 C3599 1.499 . S
C3602 C3603 1.373 . S
C3602 C3604 1.389 . S
C3603 H3582 0.950 . S
C3603 C3602 1.373 . S
C3603 C3619 1.377 . S
C3604 C3602 1.389 . S
C3604 C3605 1.524 . S
C3604 C3618 1.377 . S
C3605 C3604 1.524 . S
C3605 C3606 1.397 . S
C3605 C3610 1.363 . S
C3606 H3583 0.950 . S
C3606 C3605 1.397 . S
C3606 C3607 1.334 . S
C3607 H3584 0.950 . S
C3607 C3606 1.334 . S
C3607 C3608 1.287 . S
C3608 C3607 1.287 . S
C3608 C3609 1.524 . S
C3608 H3627 0.913 . S
C3609 H3585 0.950 . S
C3609 C3608 1.524 . S
C3609 C3610 1.415 . S
C3610 H3586 0.950 . S
C3610 C3605 1.363 . S
C3610 C3609 1.415 . S
C3611 H3587 0.951 . S
C3611 C3612 1.366 . S
C3611 C3613 1.388 . S
C3612 C3611 1.366 . S
C3612 C3616 1.385 . S
C3613 H3588 0.951 . S
C3613 C3611 1.388 . S
C3613 C3614 1.366 . S
C3614 C3613 1.366 . S
C3614 C3615 1.414 . S
C3614 C3617 1.499 . S
C3615 H3589 0.950 . S
C3615 C3614 1.414 . S
C3615 C3616 1.374 . S
C3616 H3590 0.950 . S
C3616 C3612 1.385 . S
C3616 C3615 1.374 . S
C3617 C3614 1.499 . S
C3617 C3618 1.373 . S
C3617 C3619 1.389 . S
C3618 H3591 0.950 . S
C3618 C3604 1.377 . S
C3618 C3617 1.373 . S
C3619 C3603 1.377 . S
C3619 C3617 1.389 . S
C3619 C3620 1.524 . S
C3620 C3619 1.524 . S
C3620 C3621 1.397 . S
C3620 C3625 1.363 . S
C3621 H3592 0.950 . S
C3621 C3620 1.397 . S
C3621 C3622 1.334 . S
C3622 H3593 0.950 . S
C3622 C3621 1.334 . S
C3622 C3623 1.287 . S
C3623 C3622 1.287 . S
C3623 C3624 1.524 . S
C3623 H3626 0.999 . S
C3624 H3594 0.950 . S
C3624 C3623 1.524 . S
C3624 C3625 1.415 . S
C3625 H3595 0.950 . S
C3625 C3620 1.363 . S
C3625 C3624 1.415 . S
H3626 C3623 0.999 . S
H3627 C3608 0.913 . S
H3628 C3646 0.951 . S
H3629 C3648 0.951 . S
H3630 C3650 0.950 . S
H3631 C3651 0.950 . S
H3632 C3653 0.950 . S
H3633 C3656 0.950 . S
H3634 C3657 0.950 . S
H3635 C3659 0.950 . S
H3636 C3660 0.950 . S
H3637 C3661 0.951 . S
H3638 C3663 0.951 . S
H3639 C3665 0.950 . S
H3640 C3666 0.950 . S
H3641 C3668 0.950 . S
H3642 C3671 0.950 . S
H3643 C3672 0.950 . S
H3644 C3674 0.950 . S
H3645 C3675 0.950 . S
C3646 H3628 0.951 . S
C3646 C3647 1.366 . S
C3646 C3648 1.388 . S
C3647 C3646 1.366 . S
C3647 C3651 1.385 . S
C3648 H3629 0.951 . S
C3648 C3646 1.388 . S
C3648 C3649 1.366 . S
C3649 C3648 1.366 . S
C3649 C3650 1.414 . S
C3649 C3652 1.499 . S
C3650 H3630 0.950 . S
C3650 C3649 1.414 . S
C3650 C3651 1.374 . S
C3651 H3631 0.950 . S
C3651 C3647 1.385 . S
C3651 C3650 1.374 . S
C3652 C3649 1.499 . S
C3652 C3653 1.373 . S
C3652 C3654 1.389 . S
C3653 H3632 0.950 . S
C3653 C3652 1.373 . S
C3653 C3669 1.377 . S
C3654 C3652 1.389 . S
C3654 C3655 1.524 . S
C3654 C3668 1.377 . S
C3655 C3654 1.524 . S
C3655 C3656 1.397 . S
C3655 C3660 1.363 . S
C3656 H3633 0.950 . S
C3656 C3655 1.397 . S
C3656 C3657 1.334 . S
C3657 H3634 0.950 . S
C3657 C3656 1.334 . S
C3657 C3658 1.287 . S
C3658 C3657 1.287 . S
C3658 C3659 1.524 . S
C3658 H3677 0.913 . S
C3659 H3635 0.950 . S
C3659 C3658 1.524 . S
C3659 C3660 1.415 . S
C3660 H3636 0.950 . S
C3660 C3655 1.363 . S
C3660 C3659 1.415 . S
C3661 H3637 0.951 . S
C3661 C3662 1.366 . S
C3661 C3663 1.388 . S
C3662 C3661 1.366 . S
C3662 C3666 1.385 . S
C3663 H3638 0.951 . S
C3663 C3661 1.388 . S
C3663 C3664 1.366 . S
C3664 C3663 1.366 . S
C3664 C3665 1.414 . S
C3664 C3667 1.499 . S
C3665 H3639 0.950 . S
C3665 C3664 1.414 . S
C3665 C3666 1.374 . S
C3666 H3640 0.950 . S
C3666 C3662 1.385 . S
C3666 C3665 1.374 . S
C3667 C3664 1.499 . S
C3667 C3668 1.373 . S
C3667 C3669 1.389 . S
C3668 H3641 0.950 . S
C3668 C3654 1.377 . S
C3668 C3667 1.373 . S
C3669 C3653 1.377 . S
C3669 C3667 1.389 . S
C3669 C3670 1.524 . S
C3670 C3669 1.524 . S
C3670 C3671 1.397 . S
C3670 C3675 1.363 . S
C3671 H3642 0.950 . S
C3671 C3670 1.397 . S
C3671 C3672 1.334 . S
C3672 H3643 0.950 . S
C3672 C3671 1.334 . S
C3672 C3673 1.287 . S
C3673 C3672 1.287 . S
C3673 C3674 1.524 . S
C3673 H3676 0.999 . S
C3674 H3644 0.950 . S
C3674 C3673 1.524 . S
C3674 C3675 1.415 . S
C3675 H3645 0.950 . S
C3675 C3670 1.363 . S
C3675 C3674 1.415 . S
H3676 C3673 0.999 . S
H3677 C3658 0.913 . S
H3678 C3696 0.951 . S
H3679 C3698 0.951 . S
H3680 C3700 0.950 . S
H3681 C3701 0.950 . S
H3682 C3703 0.950 . S
H3683 C3706 0.950 . S
H3684 C3707 0.950 . S
H3685 C3709 0.950 . S
H3686 C3710 0.950 . S
H3687 C3711 0.951 . S
H3688 C3713 0.951 . S
H3689 C3715 0.950 . S
H3690 C3716 0.950 . S
H3691 C3718 0.950 . S
H3692 C3721 0.950 . S
H3693 C3722 0.950 . S
H3694 C3724 0.950 . S
H3695 C3725 0.950 . S
C3696 H3678 0.951 . S
C3696 C3697 1.366 . S
C3696 C3698 1.388 . S
C3697 C3696 1.366 . S
C3697 C3701 1.385 . S
C3698 H3679 0.951 . S
C3698 C3696 1.388 . S
C3698 C3699 1.366 . S
C3699 C3698 1.366 . S
C3699 C3700 1.414 . S
C3699 C3702 1.499 . S
C3700 H3680 0.950 . S
C3700 C3699 1.414 . S
C3700 C3701 1.374 . S
C3701 H3681 0.950 . S
C3701 C3697 1.385 . S
C3701 C3700 1.374 . S
C3702 C3699 1.499 . S
C3702 C3703 1.373 . S
C3702 C3704 1.389 . S
C3703 H3682 0.950 . S
C3703 C3702 1.373 . S
C3703 C3719 1.377 . S
C3704 C3702 1.389 . S
C3704 C3705 1.524 . S
C3704 C3718 1.377 . S
C3705 C3704 1.524 . S
C3705 C3706 1.397 . S
C3705 C3710 1.363 . S
C3706 H3683 0.950 . S
C3706 C3705 1.397 . S
C3706 C3707 1.334 . S
C3707 H3684 0.950 . S
C3707 C3706 1.334 . S
C3707 C3708 1.287 . S
C3708 C3707 1.287 . S
C3708 C3709 1.524 . S
C3708 H3727 0.913 . S
C3709 H3685 0.950 . S
C3709 C3708 1.524 . S
C3709 C3710 1.415 . S
C3710 H3686 0.950 . S
C3710 C3705 1.363 . S
C3710 C3709 1.415 . S
C3711 H3687 0.951 . S
C3711 C3712 1.366 . S
C3711 C3713 1.388 . S
C3712 C3711 1.366 . S
C3712 C3716 1.385 . S
C3713 H3688 0.951 . S
C3713 C3711 1.388 . S
C3713 C3714 1.366 . S
C3714 C3713 1.366 . S
C3714 C3715 1.414 . S
C3714 C3717 1.499 . S
C3715 H3689 0.950 . S
C3715 C3714 1.414 . S
C3715 C3716 1.374 . S
C3716 H3690 0.950 . S
C3716 C3712 1.385 . S
C3716 C3715 1.374 . S
C3717 C3714 1.499 . S
C3717 C3718 1.373 . S
C3717 C3719 1.389 . S
C3718 H3691 0.950 . S
C3718 C3704 1.377 . S
C3718 C3717 1.373 . S
C3719 C3703 1.377 . S
C3719 C3717 1.389 . S
C3719 C3720 1.524 . S
C3720 C3719 1.524 . S
C3720 C3721 1.397 . S
C3720 C3725 1.363 . S
C3721 H3692 0.950 . S
C3721 C3720 1.397 . S
C3721 C3722 1.334 . S
C3722 H3693 0.950 . S
C3722 C3721 1.334 . S
C3722 C3723 1.287 . S
C3723 C3722 1.287 . S
C3723 C3724 1.524 . S
C3723 H3726 0.999 . S
C3724 H3694 0.950 . S
C3724 C3723 1.524 . S
C3724 C3725 1.415 . S
C3725 H3695 0.950 . S
C3725 C3720 1.363 . S
C3725 C3724 1.415 . S
H3726 C3723 0.999 . S
H3727 C3708 0.913 . S
H3728 C3746 0.951 . S
H3729 C3748 0.951 . S
H3730 C3750 0.950 . S
H3731 C3751 0.950 . S
H3732 C3753 0.950 . S
H3733 C3756 0.950 . S
H3734 C3757 0.950 . S
H3735 C3759 0.950 . S
H3736 C3760 0.950 . S
H3737 C3761 0.951 . S
H3738 C3763 0.951 . S
H3739 C3765 0.950 . S
H3740 C3766 0.950 . S
H3741 C3768 0.950 . S
H3742 C3771 0.950 . S
H3743 C3772 0.950 . S
H3744 C3774 0.950 . S
H3745 C3775 0.950 . S
C3746 H3728 0.951 . S
C3746 C3747 1.366 . S
C3746 C3748 1.388 . S
C3747 C3746 1.366 . S
C3747 C3751 1.385 . S
C3748 H3729 0.951 . S
C3748 C3746 1.388 . S
C3748 C3749 1.366 . S
C3749 C3748 1.366 . S
C3749 C3750 1.414 . S
C3749 C3752 1.499 . S
C3750 H3730 0.950 . S
C3750 C3749 1.414 . S
C3750 C3751 1.374 . S
C3751 H3731 0.950 . S
C3751 C3747 1.385 . S
C3751 C3750 1.374 . S
C3752 C3749 1.499 . S
C3752 C3753 1.373 . S
C3752 C3754 1.389 . S
C3753 H3732 0.950 . S
C3753 C3752 1.373 . S
C3753 C3769 1.377 . S
C3754 C3752 1.389 . S
C3754 C3755 1.524 . S
C3754 C3768 1.377 . S
C3755 C3754 1.524 . S
C3755 C3756 1.397 . S
C3755 C3760 1.363 . S
C3756 H3733 0.950 . S
C3756 C3755 1.397 . S
C3756 C3757 1.334 . S
C3757 H3734 0.950 . S
C3757 C3756 1.334 . S
C3757 C3758 1.287 . S
C3758 C3757 1.287 . S
C3758 C3759 1.524 . S
C3758 H3777 0.913 . S
C3759 H3735 0.950 . S
C3759 C3758 1.524 . S
C3759 C3760 1.415 . S
C3760 H3736 0.950 . S
C3760 C3755 1.363 . S
C3760 C3759 1.415 . S
C3761 H3737 0.951 . S
C3761 C3762 1.366 . S
C3761 C3763 1.388 . S
C3762 C3761 1.366 . S
C3762 C3766 1.385 . S
C3763 H3738 0.951 . S
C3763 C3761 1.388 . S
C3763 C3764 1.366 . S
C3764 C3763 1.366 . S
C3764 C3765 1.414 . S
C3764 C3767 1.499 . S
C3765 H3739 0.950 . S
C3765 C3764 1.414 . S
C3765 C3766 1.374 . S
C3766 H3740 0.950 . S
C3766 C3762 1.385 . S
C3766 C3765 1.374 . S
C3767 C3764 1.499 . S
C3767 C3768 1.373 . S
C3767 C3769 1.389 . S
C3768 H3741 0.950 . S
C3768 C3754 1.377 . S
C3768 C3767 1.373 . S
C3769 C3753 1.377 . S
C3769 C3767 1.389 . S
C3769 C3770 1.524 . S
C3770 C3769 1.524 . S
C3770 C3771 1.397 . S
C3770 C3775 1.363 . S
C3771 H3742 0.950 . S
C3771 C3770 1.397 . S
C3771 C3772 1.334 . S
C3772 H3743 0.950 . S
C3772 C3771 1.334 . S
C3772 C3773 1.287 . S
C3773 C3772 1.287 . S
C3773 C3774 1.524 . S
C3773 H3776 0.999 . S
C3774 H3744 0.950 . S
C3774 C3773 1.524 . S
C3774 C3775 1.415 . S
C3775 H3745 0.950 . S
C3775 C3770 1.363 . S
C3775 C3774 1.415 . S
H3776 C3773 0.999 . S
H3777 C3758 0.913 . S
H3778 C3796 0.951 . S
H3779 C3798 0.951 . S
H3780 C3800 0.950 . S
H3781 C3801 0.950 . S
H3782 C3803 0.950 . S
H3783 C3806 0.950 . S
H3784 C3807 0.950 . S
H3785 C3809 0.950 . S
H3786 C3810 0.950 . S
H3787 C3811 0.951 . S
H3788 C3813 0.951 . S
H3789 C3815 0.950 . S
H3790 C3816 0.950 . S
H3791 C3818 0.950 . S
H3792 C3821 0.950 . S
H3793 C3822 0.950 . S
H3794 C3824 0.950 . S
H3795 C3825 0.950 . S
C3796 H3778 0.951 . S
C3796 C3797 1.366 . S
C3796 C3798 1.388 . S
C3797 C3796 1.366 . S
C3797 C3801 1.385 . S
C3798 H3779 0.951 . S
C3798 C3796 1.388 . S
C3798 C3799 1.366 . S
C3799 C3798 1.366 . S
C3799 C3800 1.414 . S
C3799 C3802 1.499 . S
C3800 H3780 0.950 . S
C3800 C3799 1.414 . S
C3800 C3801 1.374 . S
C3801 H3781 0.950 . S
C3801 C3797 1.385 . S
C3801 C3800 1.374 . S
C3802 C3799 1.499 . S
C3802 C3803 1.373 . S
C3802 C3804 1.389 . S
C3803 H3782 0.950 . S
C3803 C3802 1.373 . S
C3803 C3819 1.377 . S
C3804 C3802 1.389 . S
C3804 C3805 1.524 . S
C3804 C3818 1.377 . S
C3805 C3804 1.524 . S
C3805 C3806 1.397 . S
C3805 C3810 1.363 . S
C3806 H3783 0.950 . S
C3806 C3805 1.397 . S
C3806 C3807 1.334 . S
C3807 H3784 0.950 . S
C3807 C3806 1.334 . S
C3807 C3808 1.287 . S
C3808 C3807 1.287 . S
C3808 C3809 1.524 . S
C3808 H3827 0.913 . S
C3809 H3785 0.950 . S
C3809 C3808 1.524 . S
C3809 C3810 1.415 . S
C3810 H3786 0.950 . S
C3810 C3805 1.363 . S
C3810 C3809 1.415 . S
C3811 H3787 0.951 . S
C3811 C3812 1.366 . S
C3811 C3813 1.388 . S
C3812 C3811 1.366 . S
C3812 C3816 1.385 . S
C3813 H3788 0.951 . S
C3813 C3811 1.388 . S
C3813 C3814 1.366 . S
C3814 C3813 1.366 . S
C3814 C3815 1.414 . S
C3814 C3817 1.499 . S
C3815 H3789 0.950 . S
C3815 C3814 1.414 . S
C3815 C3816 1.374 . S
C3816 H3790 0.950 . S
C3816 C3812 1.385 . S
C3816 C3815 1.374 . S
C3817 C3814 1.499 . S
C3817 C3818 1.373 . S
C3817 C3819 1.389 . S
C3818 H3791 0.950 . S
C3818 C3804 1.377 . S
C3818 C3817 1.373 . S
C3819 C3803 1.377 . S
C3819 C3817 1.389 . S
C3819 C3820 1.524 . S
C3820 C3819 1.524 . S
C3820 C3821 1.397 . S
C3820 C3825 1.363 . S
C3821 H3792 0.950 . S
C3821 C3820 1.397 . S
C3821 C3822 1.334 . S
C3822 H3793 0.950 . S
C3822 C3821 1.334 . S
C3822 C3823 1.287 . S
C3823 C3822 1.287 . S
C3823 C3824 1.524 . S
C3823 H3826 0.999 . S
C3824 H3794 0.950 . S
C3824 C3823 1.524 . S
C3824 C3825 1.415 . S
C3825 H3795 0.950 . S
C3825 C3820 1.363 . S
C3825 C3824 1.415 . S
H3826 C3823 0.999 . S
H3827 C3808 0.913 . S
H3828 C3846 0.951 . S
H3829 C3848 0.951 . S
H3830 C3850 0.950 . S
H3831 C3851 0.950 . S
H3832 C3853 0.950 . S
H3833 C3856 0.950 . S
H3834 C3857 0.950 . S
H3835 C3859 0.950 . S
H3836 C3860 0.950 . S
H3837 C3861 0.951 . S
H3838 C3863 0.951 . S
H3839 C3865 0.950 . S
H3840 C3866 0.950 . S
H3841 C3868 0.950 . S
H3842 C3871 0.950 . S
H3843 C3872 0.950 . S
H3844 C3874 0.950 . S
H3845 C3875 0.950 . S
C3846 H3828 0.951 . S
C3846 C3847 1.366 . S
C3846 C3848 1.388 . S
C3847 C3846 1.366 . S
C3847 C3851 1.385 . S
C3848 H3829 0.951 . S
C3848 C3846 1.388 . S
C3848 C3849 1.366 . S
C3849 C3848 1.366 . S
C3849 C3850 1.414 . S
C3849 C3852 1.499 . S
C3850 H3830 0.950 . S
C3850 C3849 1.414 . S
C3850 C3851 1.374 . S
C3851 H3831 0.950 . S
C3851 C3847 1.385 . S
C3851 C3850 1.374 . S
C3852 C3849 1.499 . S
C3852 C3853 1.373 . S
C3852 C3854 1.389 . S
C3853 H3832 0.950 . S
C3853 C3852 1.373 . S
C3853 C3869 1.377 . S
C3854 C3852 1.389 . S
C3854 C3855 1.524 . S
C3854 C3868 1.377 . S
C3855 C3854 1.524 . S
C3855 C3856 1.397 . S
C3855 C3860 1.363 . S
C3856 H3833 0.950 . S
C3856 C3855 1.397 . S
C3856 C3857 1.334 . S
C3857 H3834 0.950 . S
C3857 C3856 1.334 . S
C3857 C3858 1.287 . S
C3858 C3857 1.287 . S
C3858 C3859 1.524 . S
C3858 H3877 0.913 . S
C3859 H3835 0.950 . S
C3859 C3858 1.524 . S
C3859 C3860 1.415 . S
C3860 H3836 0.950 . S
C3860 C3855 1.363 . S
C3860 C3859 1.415 . S
C3861 H3837 0.951 . S
C3861 C3862 1.366 . S
C3861 C3863 1.388 . S
C3862 C3861 1.366 . S
C3862 C3866 1.385 . S
C3863 H3838 0.951 . S
C3863 C3861 1.388 . S
C3863 C3864 1.366 . S
C3864 C3863 1.366 . S
C3864 C3865 1.414 . S
C3864 C3867 1.499 . S
C3865 H3839 0.950 . S
C3865 C3864 1.414 . S
C3865 C3866 1.374 . S
C3866 H3840 0.950 . S
C3866 C3862 1.385 . S
C3866 C3865 1.374 . S
C3867 C3864 1.499 . S
C3867 C3868 1.373 . S
C3867 C3869 1.389 . S
C3868 H3841 0.950 . S
C3868 C3854 1.377 . S
C3868 C3867 1.373 . S
C3869 C3853 1.377 . S
C3869 C3867 1.389 . S
C3869 C3870 1.524 . S
C3870 C3869 1.524 . S
C3870 C3871 1.397 . S
C3870 C3875 1.363 . S
C3871 H3842 0.950 . S
C3871 C3870 1.397 . S
C3871 C3872 1.334 . S
C3872 H3843 0.950 . S
C3872 C3871 1.334 . S
C3872 C3873 1.287 . S
C3873 C3872 1.287 . S
C3873 C3874 1.524 . S
C3873 H3876 0.999 1_554 S
C3874 H3844 0.950 . S
C3874 C3873 1.524 . S
C3874 C3875 1.415 . S
C3875 H3845 0.950 . S
C3875 C3870 1.363 . S
C3875 C3874 1.415 . S
H3876 C3873 0.999 1_556 S
H3877 C3858 0.913 . S
H3878 C3896 0.951 . S
H3879 C3898 0.951 . S
H3880 C3900 0.950 . S
H3881 C3901 0.950 . S
H3882 C3903 0.950 . S
H3883 C3906 0.950 . S
H3884 C3907 0.950 . S
H3885 C3909 0.950 . S
H3886 C3910 0.950 . S
H3887 C3911 0.951 . S
H3888 C3913 0.951 . S
H3889 C3915 0.950 . S
H3890 C3916 0.950 . S
H3891 C3918 0.950 . S
H3892 C3921 0.950 . S
H3893 C3922 0.950 . S
H3894 C3924 0.950 . S
H3895 C3925 0.950 . S
C3896 H3878 0.951 . S
C3896 C3897 1.366 . S
C3896 C3898 1.388 . S
C3897 C3896 1.366 . S
C3897 C3901 1.385 . S
C3898 H3879 0.951 . S
C3898 C3896 1.388 . S
C3898 C3899 1.366 . S
C3899 C3898 1.366 . S
C3899 C3900 1.414 . S
C3899 C3902 1.499 . S
C3900 H3880 0.950 . S
C3900 C3899 1.414 . S
C3900 C3901 1.374 . S
C3901 H3881 0.950 . S
C3901 C3897 1.385 . S
C3901 C3900 1.374 . S
C3902 C3899 1.499 . S
C3902 C3903 1.373 . S
C3902 C3904 1.389 . S
C3903 H3882 0.950 . S
C3903 C3902 1.373 . S
C3903 C3919 1.377 . S
C3904 C3902 1.389 . S
C3904 C3905 1.524 . S
C3904 C3918 1.377 . S
C3905 C3904 1.524 . S
C3905 C3906 1.397 . S
C3905 C3910 1.363 . S
C3906 H3883 0.950 . S
C3906 C3905 1.397 . S
C3906 C3907 1.334 . S
C3907 H3884 0.950 . S
C3907 C3906 1.334 . S
C3907 C3908 1.287 . S
C3908 C3907 1.287 . S
C3908 C3909 1.524 . S
C3908 H3927 0.913 . S
C3909 H3885 0.950 . S
C3909 C3908 1.524 . S
C3909 C3910 1.415 . S
C3910 H3886 0.950 . S
C3910 C3905 1.363 . S
C3910 C3909 1.415 . S
C3911 H3887 0.951 . S
C3911 C3912 1.366 . S
C3911 C3913 1.388 . S
C3912 C3911 1.366 . S
C3912 C3916 1.385 . S
C3913 H3888 0.951 . S
C3913 C3911 1.388 . S
C3913 C3914 1.366 . S
C3914 C3913 1.366 . S
C3914 C3915 1.414 . S
C3914 C3917 1.499 . S
C3915 H3889 0.950 . S
C3915 C3914 1.414 . S
C3915 C3916 1.374 . S
C3916 H3890 0.950 . S
C3916 C3912 1.385 . S
C3916 C3915 1.374 . S
C3917 C3914 1.499 . S
C3917 C3918 1.373 . S
C3917 C3919 1.389 . S
C3918 H3891 0.950 . S
C3918 C3904 1.377 . S
C3918 C3917 1.373 . S
C3919 C3903 1.377 . S
C3919 C3917 1.389 . S
C3919 C3920 1.524 . S
C3920 C3919 1.524 . S
C3920 C3921 1.397 . S
C3920 C3925 1.363 . S
C3921 H3892 0.950 . S
C3921 C3920 1.397 . S
C3921 C3922 1.334 . S
C3922 H3893 0.950 . S
C3922 C3921 1.334 . S
C3922 C3923 1.287 . S
C3923 C3922 1.287 . S
C3923 C3924 1.524 . S
C3923 H3926 0.999 . S
C3924 H3894 0.950 . S
C3924 C3923 1.524 . S
C3924 C3925 1.415 . S
C3925 H3895 0.950 . S
C3925 C3920 1.363 . S
C3925 C3924 1.415 . S
H3926 C3923 0.999 . S
H3927 C3908 0.913 . S
H3928 C3946 0.951 . S
H3929 C3948 0.951 . S
H3930 C3950 0.950 . S
H3931 C3951 0.950 . S
H3932 C3953 0.950 . S
H3933 C3956 0.950 . S
H3934 C3957 0.950 . S
H3935 C3959 0.950 . S
H3936 C3960 0.950 . S
H3937 C3961 0.951 . S
H3938 C3963 0.951 . S
H3939 C3965 0.950 . S
H3940 C3966 0.950 . S
H3941 C3968 0.950 . S
H3942 C3971 0.950 . S
H3943 C3972 0.950 . S
H3944 C3974 0.950 . S
H3945 C3975 0.950 . S
C3946 H3928 0.951 . S
C3946 C3947 1.366 . S
C3946 C3948 1.388 . S
C3947 C3946 1.366 . S
C3947 C3951 1.385 . S
C3948 H3929 0.951 . S
C3948 C3946 1.388 . S
C3948 C3949 1.366 . S
C3949 C3948 1.366 . S
C3949 C3950 1.414 . S
C3949 C3952 1.499 . S
C3950 H3930 0.950 . S
C3950 C3949 1.414 . S
C3950 C3951 1.374 . S
C3951 H3931 0.950 . S
C3951 C3947 1.385 . S
C3951 C3950 1.374 . S
C3952 C3949 1.499 . S
C3952 C3953 1.373 . S
C3952 C3954 1.389 . S
C3953 H3932 0.950 . S
C3953 C3952 1.373 . S
C3953 C3969 1.377 . S
C3954 C3952 1.389 . S
C3954 C3955 1.524 . S
C3954 C3968 1.377 . S
C3955 C3954 1.524 . S
C3955 C3956 1.397 . S
C3955 C3960 1.363 . S
C3956 H3933 0.950 . S
C3956 C3955 1.397 . S
C3956 C3957 1.334 . S
C3957 H3934 0.950 . S
C3957 C3956 1.334 . S
C3957 C3958 1.287 . S
C3958 C3957 1.287 . S
C3958 C3959 1.524 . S
C3958 H3977 0.913 1_554 S
C3959 H3935 0.950 . S
C3959 C3958 1.524 . S
C3959 C3960 1.415 . S
C3960 H3936 0.950 . S
C3960 C3955 1.363 . S
C3960 C3959 1.415 . S
C3961 H3937 0.951 . S
C3961 C3962 1.366 . S
C3961 C3963 1.388 . S
C3962 C3961 1.366 . S
C3962 C3966 1.385 . S
C3963 H3938 0.951 . S
C3963 C3961 1.388 . S
C3963 C3964 1.366 . S
C3964 C3963 1.366 . S
C3964 C3965 1.414 . S
C3964 C3967 1.499 . S
C3965 H3939 0.950 . S
C3965 C3964 1.414 . S
C3965 C3966 1.374 . S
C3966 H3940 0.950 . S
C3966 C3962 1.385 . S
C3966 C3965 1.374 . S
C3967 C3964 1.499 . S
C3967 C3968 1.373 . S
C3967 C3969 1.389 . S
C3968 H3941 0.950 . S
C3968 C3954 1.377 . S
C3968 C3967 1.373 . S
C3969 C3953 1.377 . S
C3969 C3967 1.389 . S
C3969 C3970 1.524 . S
C3970 C3969 1.524 . S
C3970 C3971 1.397 . S
C3970 C3975 1.363 . S
C3971 H3942 0.950 . S
C3971 C3970 1.397 . S
C3971 C3972 1.334 . S
C3972 H3943 0.950 . S
C3972 C3971 1.334 . S
C3972 C3973 1.287 . S
C3973 C3972 1.287 . S
C3973 C3974 1.524 . S
C3973 H3976 0.999 . S
C3974 H3944 0.950 . S
C3974 C3973 1.524 . S
C3974 C3975 1.415 . S
C3975 H3945 0.950 . S
C3975 C3970 1.363 . S
C3975 C3974 1.415 . S
H3976 C3973 0.999 . S
H3977 C3958 0.913 1_556 S
H3978 C3996 0.951 . S
H3979 C3998 0.951 . S
H3980 C4000 0.950 . S
H3981 C4001 0.950 . S
H3982 C4003 0.950 . S
H3983 C4006 0.950 . S
H3984 C4007 0.950 . S
H3985 C4009 0.950 . S
H3986 C4010 0.950 . S
H3987 C4011 0.951 . S
H3988 C4013 0.951 . S
H3989 C4015 0.950 . S
H3990 C4016 0.950 . S
H3991 C4018 0.950 . S
H3992 C4021 0.950 . S
H3993 C4022 0.950 . S
H3994 C4024 0.950 . S
H3995 C4025 0.950 . S
C3996 H3978 0.951 . S
C3996 C3997 1.366 . S
C3996 C3998 1.388 . S
C3997 C3996 1.366 . S
C3997 C4001 1.385 . S
C3998 H3979 0.951 . S
C3998 C3996 1.388 . S
C3998 C3999 1.366 . S
C3999 C3998 1.366 . S
C3999 C4000 1.414 . S
C3999 C4002 1.499 . S
C4000 H3980 0.950 . S
C4000 C3999 1.414 . S
C4000 C4001 1.374 . S
C4001 H3981 0.950 . S
C4001 C3997 1.385 . S
C4001 C4000 1.374 . S
C4002 C3999 1.499 . S
C4002 C4003 1.373 . S
C4002 C4004 1.389 . S
C4003 H3982 0.950 . S
C4003 C4002 1.373 . S
C4003 C4019 1.377 . S
C4004 C4002 1.389 . S
C4004 C4005 1.524 . S
C4004 C4018 1.377 . S
C4005 C4004 1.524 . S
C4005 C4006 1.397 . S
C4005 C4010 1.363 . S
C4006 H3983 0.950 . S
C4006 C4005 1.397 . S
C4006 C4007 1.334 . S
C4007 H3984 0.950 . S
C4007 C4006 1.334 . S
C4007 C4008 1.287 . S
C4008 C4007 1.287 . S
C4008 C4009 1.524 . S
C4008 H4027 0.913 . S
C4009 H3985 0.950 . S
C4009 C4008 1.524 . S
C4009 C4010 1.415 . S
C4010 H3986 0.950 . S
C4010 C4005 1.363 . S
C4010 C4009 1.415 . S
C4011 H3987 0.951 . S
C4011 C4012 1.366 . S
C4011 C4013 1.388 . S
C4012 C4011 1.366 . S
C4012 C4016 1.385 . S
C4013 H3988 0.951 . S
C4013 C4011 1.388 . S
C4013 C4014 1.366 . S
C4014 C4013 1.366 . S
C4014 C4015 1.414 . S
C4014 C4017 1.499 . S
C4015 H3989 0.950 . S
C4015 C4014 1.414 . S
C4015 C4016 1.374 . S
C4016 H3990 0.950 . S
C4016 C4012 1.385 . S
C4016 C4015 1.374 . S
C4017 C4014 1.499 . S
C4017 C4018 1.373 . S
C4017 C4019 1.389 . S
C4018 H3991 0.950 . S
C4018 C4004 1.377 . S
C4018 C4017 1.373 . S
C4019 C4003 1.377 . S
C4019 C4017 1.389 . S
C4019 C4020 1.524 . S
C4020 C4019 1.524 . S
C4020 C4021 1.397 . S
C4020 C4025 1.363 . S
C4021 H3992 0.950 . S
C4021 C4020 1.397 . S
C4021 C4022 1.334 . S
C4022 H3993 0.950 . S
C4022 C4021 1.334 . S
C4022 C4023 1.287 . S
C4023 C4022 1.287 . S
C4023 C4024 1.524 . S
C4023 H4026 0.999 1_556 S
C4024 H3994 0.950 . S
C4024 C4023 1.524 . S
C4024 C4025 1.415 . S
C4025 H3995 0.950 . S
C4025 C4020 1.363 . S
C4025 C4024 1.415 . S
H4026 C4023 0.999 1_554 S
H4027 C4008 0.913 . S
H4028 C4046 0.951 . S
H4029 C4048 0.951 . S
H4030 C4050 0.950 . S
H4031 C4051 0.950 . S
H4032 C4053 0.950 . S
H4033 C4056 0.950 . S
H4034 C4057 0.950 . S
H4035 C4059 0.950 . S
H4036 C4060 0.950 . S
H4037 C4061 0.951 . S
H4038 C4063 0.951 . S
H4039 C4065 0.950 . S
H4040 C4066 0.950 . S
H4041 C4068 0.950 . S
H4042 C4071 0.950 . S
H4043 C4072 0.950 . S
H4044 C4074 0.950 . S
H4045 C4075 0.950 . S
C4046 H4028 0.951 . S
C4046 C4047 1.366 . S
C4046 C4048 1.388 . S
C4047 C4046 1.366 . S
C4047 C4051 1.385 . S
C4048 H4029 0.951 . S
C4048 C4046 1.388 . S
C4048 C4049 1.366 . S
C4049 C4048 1.366 . S
C4049 C4050 1.414 . S
C4049 C4052 1.499 . S
C4050 H4030 0.950 . S
C4050 C4049 1.414 . S
C4050 C4051 1.374 . S
C4051 H4031 0.950 . S
C4051 C4047 1.385 . S
C4051 C4050 1.374 . S
C4052 C4049 1.499 . S
C4052 C4053 1.373 . S
C4052 C4054 1.389 . S
C4053 H4032 0.950 . S
C4053 C4052 1.373 . S
C4053 C4069 1.377 . S
C4054 C4052 1.389 . S
C4054 C4055 1.524 . S
C4054 C4068 1.377 . S
C4055 C4054 1.524 . S
C4055 C4056 1.397 . S
C4055 C4060 1.363 . S
C4056 H4033 0.950 . S
C4056 C4055 1.397 . S
C4056 C4057 1.334 . S
C4057 H4034 0.950 . S
C4057 C4056 1.334 . S
C4057 C4058 1.287 . S
C4058 C4057 1.287 . S
C4058 C4059 1.524 . S
C4058 H4077 0.913 . S
C4059 H4035 0.950 . S
C4059 C4058 1.524 . S
C4059 C4060 1.415 . S
C4060 H4036 0.950 . S
C4060 C4055 1.363 . S
C4060 C4059 1.415 . S
C4061 H4037 0.951 . S
C4061 C4062 1.366 . S
C4061 C4063 1.388 . S
C4062 C4061 1.366 . S
C4062 C4066 1.385 . S
C4063 H4038 0.951 . S
C4063 C4061 1.388 . S
C4063 C4064 1.366 . S
C4064 C4063 1.366 . S
C4064 C4065 1.414 . S
C4064 C4067 1.499 . S
C4065 H4039 0.950 . S
C4065 C4064 1.414 . S
C4065 C4066 1.374 . S
C4066 H4040 0.950 . S
C4066 C4062 1.385 . S
C4066 C4065 1.374 . S
C4067 C4064 1.499 . S
C4067 C4068 1.373 . S
C4067 C4069 1.389 . S
C4068 H4041 0.950 . S
C4068 C4054 1.377 . S
C4068 C4067 1.373 . S
C4069 C4053 1.377 . S
C4069 C4067 1.389 . S
C4069 C4070 1.524 . S
C4070 C4069 1.524 . S
C4070 C4071 1.397 . S
C4070 C4075 1.363 . S
C4071 H4042 0.950 . S
C4071 C4070 1.397 . S
C4071 C4072 1.334 . S
C4072 H4043 0.950 . S
C4072 C4071 1.334 . S
C4072 C4073 1.287 . S
C4073 C4072 1.287 . S
C4073 C4074 1.524 . S
C4073 H4076 0.999 . S
C4074 H4044 0.950 . S
C4074 C4073 1.524 . S
C4074 C4075 1.415 . S
C4075 H4045 0.950 . S
C4075 C4070 1.363 . S
C4075 C4074 1.415 . S
H4076 C4073 0.999 . S
H4077 C4058 0.913 . S
H4078 C4096 0.951 . S
H4079 C4098 0.951 . S
H4080 C4100 0.950 . S
H4081 C4101 0.950 . S
H4082 C4103 0.950 . S
H4083 C4106 0.950 . S
H4084 C4107 0.950 . S
H4085 C4109 0.950 . S
H4086 C4110 0.950 . S
H4087 C4111 0.951 . S
H4088 C4113 0.951 . S
H4089 C4115 0.950 . S
H4090 C4116 0.950 . S
H4091 C4118 0.950 . S
H4092 C4121 0.950 . S
H4093 C4122 0.950 . S
H4094 C4124 0.950 . S
H4095 C4125 0.950 . S
C4096 H4078 0.951 . S
C4096 C4097 1.366 . S
C4096 C4098 1.388 . S
C4097 C4096 1.366 . S
C4097 C4101 1.385 . S
C4098 H4079 0.951 . S
C4098 C4096 1.388 . S
C4098 C4099 1.366 . S
C4099 C4098 1.366 . S
C4099 C4100 1.414 . S
C4099 C4102 1.499 . S
C4100 H4080 0.950 . S
C4100 C4099 1.414 . S
C4100 C4101 1.374 . S
C4101 H4081 0.950 . S
C4101 C4097 1.385 . S
C4101 C4100 1.374 . S
C4102 C4099 1.499 . S
C4102 C4103 1.373 . S
C4102 C4104 1.389 . S
C4103 H4082 0.950 . S
C4103 C4102 1.373 . S
C4103 C4119 1.377 . S
C4104 C4102 1.389 . S
C4104 C4105 1.524 . S
C4104 C4118 1.377 . S
C4105 C4104 1.524 . S
C4105 C4106 1.397 . S
C4105 C4110 1.363 . S
C4106 H4083 0.950 . S
C4106 C4105 1.397 . S
C4106 C4107 1.334 . S
C4107 H4084 0.950 . S
C4107 C4106 1.334 . S
C4107 C4108 1.287 . S
C4108 C4107 1.287 . S
C4108 C4109 1.524 . S
C4108 H4127 0.913 . S
C4109 H4085 0.950 . S
C4109 C4108 1.524 . S
C4109 C4110 1.415 . S
C4110 H4086 0.950 . S
C4110 C4105 1.363 . S
C4110 C4109 1.415 . S
C4111 H4087 0.951 . S
C4111 C4112 1.366 . S
C4111 C4113 1.388 . S
C4112 C4111 1.366 . S
C4112 C4116 1.385 . S
C4113 H4088 0.951 . S
C4113 C4111 1.388 . S
C4113 C4114 1.366 . S
C4114 C4113 1.366 . S
C4114 C4115 1.414 . S
C4114 C4117 1.499 . S
C4115 H4089 0.950 . S
C4115 C4114 1.414 . S
C4115 C4116 1.374 . S
C4116 H4090 0.950 . S
C4116 C4112 1.385 . S
C4116 C4115 1.374 . S
C4117 C4114 1.499 . S
C4117 C4118 1.373 . S
C4117 C4119 1.389 . S
C4118 H4091 0.950 . S
C4118 C4104 1.377 . S
C4118 C4117 1.373 . S
C4119 C4103 1.377 . S
C4119 C4117 1.389 . S
C4119 C4120 1.524 . S
C4120 C4119 1.524 . S
C4120 C4121 1.397 . S
C4120 C4125 1.363 . S
C4121 H4092 0.950 . S
C4121 C4120 1.397 . S
C4121 C4122 1.334 . S
C4122 H4093 0.950 . S
C4122 C4121 1.334 . S
C4122 C4123 1.287 . S
C4123 C4122 1.287 . S
C4123 C4124 1.524 . S
C4123 H4126 0.999 . S
C4124 H4094 0.950 . S
C4124 C4123 1.524 . S
C4124 C4125 1.415 . S
C4125 H4095 0.950 . S
C4125 C4120 1.363 . S
C4125 C4124 1.415 . S
H4126 C4123 0.999 . S
H4127 C4108 0.913 . S
C547 C9 1.047 . S
C562 C138 1.046 . S
C597 C28 1.046 . S
C612 C159 1.047 . S
C647 C95 1.047 . S
C662 C53 1.046 . S
C697 C73 1.047 . S
C712 C115 1.047 . S
C747 C71 1.047 . S
C762 C31 1.047 . S
C797 C50 1.047 . S
C812 C6 1.046 . S
C847 C117 1.046 . S
C862 C161 1.047 . S
C897 C141 1.047 . S
C912 C93 1.047 . S
C947 C181 1.047 . S
C962 C207 1.046 . S
C997 C183 1.047 . S
C1012 C229 1.046 . S
C1047 C226 1.046 . S
C1062 C249 1.047 . S
C1097 C247 1.047 . S
C1112 C204 1.047 . S
C1147 C273 1.046 . S
C1162 C402 1.047 . S
C1197 C423 1.046 . S
C1212 C292 1.047 . S
C1247 C317 1.046 . S
C1262 C359 1.047 . S
C1297 C337 1.047 . S
C1312 C379 1.047 . S
C1347 C335 1.046 . S
C1362 C295 1.047 . S
C1397 C314 1.047 . S
C1412 C270 1.046 . S
C1447 C381 1.047 . S
C1462 C425 1.046 . S
C1497 C405 1.047 . S
C1512 C357 1.046 . S
C1547 C445 1.046 . S
C1562 C469 1.047 . S
C1597 C493 1.047 . S
C1612 C447 1.046 . S
C1647 C490 1.047 . S
C1662 C513 1.046 . S
C1697 C511 1.047 . S
C1712 C467 1.047 . S
C1747 C512 0.740 . S
C1762 C7 0.737 . S
C1797 C470 0.740 . S
C1812 C26 0.737 . S
C1847 C51 0.740 . S
C1862 C448 0.743 . S
C1897 C74 0.739 . S
C1912 C488 0.742 . S
C1947 C491 0.740 . S
C1962 C96 0.737 . S
C1997 C116 0.740 . S
C2012 C514 0.737 . S
C2047 C468 0.739 . S
C2062 C136 0.742 . S
C2097 C160 0.740 . S
C2112 C446 0.743 . S
C2147 C358 0.739 . S
C2162 C72 0.736 . S
C2197 C4 0.739 . S
C2212 C382 0.742 . S
C2247 C29 0.739 . S
C2262 C403 0.742 . S
C2297 C48 0.739 . S
C2312 C426 0.736 . S
C2347 C268 0.740 . S
C2362 C118 0.743 . S
C2397 C139 0.739 . S
C2412 C293 0.736 . S
C2447 C162 0.739 . S
C2462 C312 0.736 . S
C2497 C94 0.740 . S
C2512 C336 0.743 . S
C2547 C424 0.739 . S
C2562 C182 0.736 . S
C2597 C205 0.739 . S
C2612 C290 0.742 . S
C2647 C315 0.739 . S
C2662 C184 0.742 . S
C2697 C338 0.740 . S
C2712 C224 0.743 . S
C2747 C248 0.740 . S
C2762 C271 0.743 . S
C2797 C380 0.739 . S
C2812 C250 0.736 . S
C2847 C400 0.739 . S
C2862 C202 0.736 . S
C2897 C360 0.739 . S
C2912 C227 0.736 . S
C2947 C97 0.740 . S
C2962 C449 0.743 . S
C2997 C114 0.739 . S
C3012 C489 0.742 . S
C3047 C137 0.739 . S
C3062 C510 0.736 . S
C3097 C471 0.740 . S
C3112 C158 0.737 . S
C3147 C466 0.739 . S
C3162 C8 0.742 . S
C3197 C27 0.739 . S
C3212 C444 0.742 . S
C3247 C52 0.740 . S
C3262 C492 0.737 . S
C3297 C515 0.739 . S
C3312 C75 0.736 . S
C3347 C269 0.739 . S
C3362 C163 0.742 . S
C3397 C92 0.739 . S
C3412 C294 0.736 . S
C3447 C313 0.739 . S
C3462 C119 0.736 . S
C3497 C334 0.739 . S
C3512 C140 0.742 . S
C3547 C356 0.740 . S
C3562 C30 0.737 . S
C3597 C49 0.740 . S
C3612 C383 0.743 . S
C3647 C404 0.739 . S
C3662 C70 0.742 . S
C3697 C427 0.740 . S
C3712 C5 0.737 . S
C3747 C251 0.739 . S
C3762 C339 0.742 . S
C3797 C225 0.740 . S
C3812 C378 0.737 . S
C3847 C401 0.739 . S
C3862 C246 0.737 . S
C3897 C206 0.740 . S
C3912 C422 0.737 . S
C3947 C185 0.739 . S
C3962 C361 0.736 . S
C3997 C291 0.739 . S
C4012 C180 0.742 . S
C4047 C228 0.740 . S
C4062 C316 0.742 . S
C4097 C272 0.740 . S
C4112 C203 0.743 . S
