# Generated by pormake.
# Topology uml, (4)-cn, num edge types: 1
# Building blocks:
#     Node 0, Type 0, BuildingBlock: CEKHIL_clean_sbu_0, # of connection points: 4
#     Node 1, Type 0, BuildingBlock: CEKHIL_clean_sbu_0, # of connection points: 4
#     Node 2, Type 0, BuildingBlock: CEKHIL_clean_sbu_0, # of connection points: 4
#     Node 3, Type 0, BuildingBlock: CEKHIL_clean_sbu_0, # of connection points: 4
#     Node 4, Type 0, BuildingBlock: CEKHIL_clean_sbu_0, # of connection points: 4
#     Node 5, Type 0, BuildingBlock: CEKHIL_clean_sbu_0, # of connection points: 4
#     Node 6, Type 0, BuildingBlock: CEKHIL_clean_sbu_0, # of connection points: 4
#     Node 7, Type 0, BuildingBlock: CEKHIL_clean_sbu_0, # of connection points: 4
#     Node 8, Type 0, BuildingBlock: CEKHIL_clean_sbu_0, # of connection points: 4
#     Node 9, Type 0, BuildingBlock: CEKHIL_clean_sbu_0, # of connection points: 4
#     Node 10, Type 0, BuildingBlock: CEKHIL_clean_sbu_0, # of connection points: 4
#     Node 11, Type 0, BuildingBlock: CEKHIL_clean_sbu_0, # of connection points: 4
#     Node 12, Type 0, BuildingBlock: CEKHIL_clean_sbu_0, # of connection points: 4
#     Node 13, Type 0, BuildingBlock: CEKHIL_clean_sbu_0, # of connection points: 4
#     Node 14, Type 0, BuildingBlock: CEKHIL_clean_sbu_0, # of connection points: 4
#     Node 15, Type 0, BuildingBlock: CEKHIL_clean_sbu_0, # of connection points: 4
#     Node 16, Type 0, BuildingBlock: CEKHIL_clean_sbu_0, # of connection points: 4
#     Node 17, Type 0, BuildingBlock: CEKHIL_clean_sbu_0, # of connection points: 4
#     Node 18, Type 0, BuildingBlock: CEKHIL_clean_sbu_0, # of connection points: 4
#     Node 19, Type 0, BuildingBlock: CEKHIL_clean_sbu_0, # of connection points: 4
#     Node 20, Type 0, BuildingBlock: CEKHIL_clean_sbu_0, # of connection points: 4
#     Node 21, Type 0, BuildingBlock: CEKHIL_clean_sbu_0, # of connection points: 4
#     Node 22, Type 0, BuildingBlock: CEKHIL_clean_sbu_0, # of connection points: 4
#     Node 23, Type 0, BuildingBlock: CEKHIL_clean_sbu_0, # of connection points: 4
#     Node 24, Type 0, BuildingBlock: CEKHIL_clean_sbu_0, # of connection points: 4
#     Node 25, Type 0, BuildingBlock: CEKHIL_clean_sbu_0, # of connection points: 4
#     Node 26, Type 0, BuildingBlock: CEKHIL_clean_sbu_0, # of connection points: 4
#     Node 27, Type 0, BuildingBlock: CEKHIL_clean_sbu_0, # of connection points: 4
#     Node 28, Type 0, BuildingBlock: CEKHIL_clean_sbu_0, # of connection points: 4
#     Node 29, Type 0, BuildingBlock: CEKHIL_clean_sbu_0, # of connection points: 4
#     Node 30, Type 0, BuildingBlock: CEKHIL_clean_sbu_0, # of connection points: 4
#     Node 31, Type 0, BuildingBlock: CEKHIL_clean_sbu_0, # of connection points: 4
#     Node 32, Type 0, BuildingBlock: CEKHIL_clean_sbu_0, # of connection points: 4
#     Node 33, Type 0, BuildingBlock: CEKHIL_clean_sbu_0, # of connection points: 4
#     Node 34, Type 0, BuildingBlock: CEKHIL_clean_sbu_0, # of connection points: 4
#     Node 35, Type 0, BuildingBlock: CEKHIL_clean_sbu_0, # of connection points: 4
#     Edge 36, Type (0, 0), BuildingBlock: ZUJKAS_clean_linker_0, # of connection points: 2
#     Edge 37, Type (0, 0), BuildingBlock: ZUJKAS_clean_linker_0, # of connection points: 2
#     Edge 38, Type (0, 0), BuildingBlock: ZUJKAS_clean_linker_0, # of connection points: 2
#     Edge 39, Type (0, 0), BuildingBlock: ZUJKAS_clean_linker_0, # of connection points: 2
#     Edge 40, Type (0, 0), BuildingBlock: ZUJKAS_clean_linker_0, # of connection points: 2
#     Edge 41, Type (0, 0), BuildingBlock: ZUJKAS_clean_linker_0, # of connection points: 2
#     Edge 42, Type (0, 0), BuildingBlock: ZUJKAS_clean_linker_0, # of connection points: 2
#     Edge 43, Type (0, 0), BuildingBlock: ZUJKAS_clean_linker_0, # of connection points: 2
#     Edge 44, Type (0, 0), BuildingBlock: ZUJKAS_clean_linker_0, # of connection points: 2
#     Edge 45, Type (0, 0), BuildingBlock: ZUJKAS_clean_linker_0, # of connection points: 2
#     Edge 46, Type (0, 0), BuildingBlock: ZUJKAS_clean_linker_0, # of connection points: 2
#     Edge 47, Type (0, 0), BuildingBlock: ZUJKAS_clean_linker_0, # of connection points: 2
#     Edge 48, Type (0, 0), BuildingBlock: ZUJKAS_clean_linker_0, # of connection points: 2
#     Edge 49, Type (0, 0), BuildingBlock: ZUJKAS_clean_linker_0, # of connection points: 2
#     Edge 50, Type (0, 0), BuildingBlock: ZUJKAS_clean_linker_0, # of connection points: 2
#     Edge 51, Type (0, 0), BuildingBlock: ZUJKAS_clean_linker_0, # of connection points: 2
#     Edge 52, Type (0, 0), BuildingBlock: ZUJKAS_clean_linker_0, # of connection points: 2
#     Edge 53, Type (0, 0), BuildingBlock: ZUJKAS_clean_linker_0, # of connection points: 2
#     Edge 54, Type (0, 0), BuildingBlock: ZUJKAS_clean_linker_0, # of connection points: 2
#     Edge 55, Type (0, 0), BuildingBlock: ZUJKAS_clean_linker_0, # of connection points: 2
#     Edge 56, Type (0, 0), BuildingBlock: ZUJKAS_clean_linker_0, # of connection points: 2
#     Edge 57, Type (0, 0), BuildingBlock: ZUJKAS_clean_linker_0, # of connection points: 2
#     Edge 58, Type (0, 0), BuildingBlock: ZUJKAS_clean_linker_0, # of connection points: 2
#     Edge 59, Type (0, 0), BuildingBlock: ZUJKAS_clean_linker_0, # of connection points: 2
#     Edge 60, Type (0, 0), BuildingBlock: ZUJKAS_clean_linker_0, # of connection points: 2
#     Edge 61, Type (0, 0), BuildingBlock: ZUJKAS_clean_linker_0, # of connection points: 2
#     Edge 62, Type (0, 0), BuildingBlock: ZUJKAS_clean_linker_0, # of connection points: 2
#     Edge 63, Type (0, 0), BuildingBlock: ZUJKAS_clean_linker_0, # of connection points: 2
#     Edge 64, Type (0, 0), BuildingBlock: ZUJKAS_clean_linker_0, # of connection points: 2
#     Edge 65, Type (0, 0), BuildingBlock: ZUJKAS_clean_linker_0, # of connection points: 2
#     Edge 66, Type (0, 0), BuildingBlock: ZUJKAS_clean_linker_0, # of connection points: 2
#     Edge 67, Type (0, 0), BuildingBlock: ZUJKAS_clean_linker_0, # of connection points: 2
#     Edge 68, Type (0, 0), BuildingBlock: ZUJKAS_clean_linker_0, # of connection points: 2
#     Edge 69, Type (0, 0), BuildingBlock: ZUJKAS_clean_linker_0, # of connection points: 2
#     Edge 70, Type (0, 0), BuildingBlock: ZUJKAS_clean_linker_0, # of connection points: 2
#     Edge 71, Type (0, 0), BuildingBlock: ZUJKAS_clean_linker_0, # of connection points: 2
#     Edge 72, Type (0, 0), BuildingBlock: ZUJKAS_clean_linker_0, # of connection points: 2
#     Edge 73, Type (0, 0), BuildingBlock: ZUJKAS_clean_linker_0, # of connection points: 2
#     Edge 74, Type (0, 0), BuildingBlock: ZUJKAS_clean_linker_0, # of connection points: 2
#     Edge 75, Type (0, 0), BuildingBlock: ZUJKAS_clean_linker_0, # of connection points: 2
#     Edge 76, Type (0, 0), BuildingBlock: ZUJKAS_clean_linker_0, # of connection points: 2
#     Edge 77, Type (0, 0), BuildingBlock: ZUJKAS_clean_linker_0, # of connection points: 2
#     Edge 78, Type (0, 0), BuildingBlock: ZUJKAS_clean_linker_0, # of connection points: 2
#     Edge 79, Type (0, 0), BuildingBlock: ZUJKAS_clean_linker_0, # of connection points: 2
#     Edge 80, Type (0, 0), BuildingBlock: ZUJKAS_clean_linker_0, # of connection points: 2
#     Edge 81, Type (0, 0), BuildingBlock: ZUJKAS_clean_linker_0, # of connection points: 2
#     Edge 82, Type (0, 0), BuildingBlock: ZUJKAS_clean_linker_0, # of connection points: 2
#     Edge 83, Type (0, 0), BuildingBlock: ZUJKAS_clean_linker_0, # of connection points: 2
#     Edge 84, Type (0, 0), BuildingBlock: ZUJKAS_clean_linker_0, # of connection points: 2
#     Edge 85, Type (0, 0), BuildingBlock: ZUJKAS_clean_linker_0, # of connection points: 2
#     Edge 86, Type (0, 0), BuildingBlock: ZUJKAS_clean_linker_0, # of connection points: 2
#     Edge 87, Type (0, 0), BuildingBlock: ZUJKAS_clean_linker_0, # of connection points: 2
#     Edge 88, Type (0, 0), BuildingBlock: ZUJKAS_clean_linker_0, # of connection points: 2
#     Edge 89, Type (0, 0), BuildingBlock: ZUJKAS_clean_linker_0, # of connection points: 2
#     Edge 90, Type (0, 0), BuildingBlock: ZUJKAS_clean_linker_0, # of connection points: 2
#     Edge 91, Type (0, 0), BuildingBlock: ZUJKAS_clean_linker_0, # of connection points: 2
#     Edge 92, Type (0, 0), BuildingBlock: ZUJKAS_clean_linker_0, # of connection points: 2
#     Edge 93, Type (0, 0), BuildingBlock: ZUJKAS_clean_linker_0, # of connection points: 2
#     Edge 94, Type (0, 0), BuildingBlock: ZUJKAS_clean_linker_0, # of connection points: 2
#     Edge 95, Type (0, 0), BuildingBlock: ZUJKAS_clean_linker_0, # of connection points: 2
#     Edge 96, Type (0, 0), BuildingBlock: ZUJKAS_clean_linker_0, # of connection points: 2
#     Edge 97, Type (0, 0), BuildingBlock: ZUJKAS_clean_linker_0, # of connection points: 2
#     Edge 98, Type (0, 0), BuildingBlock: ZUJKAS_clean_linker_0, # of connection points: 2
#     Edge 99, Type (0, 0), BuildingBlock: ZUJKAS_clean_linker_0, # of connection points: 2
#     Edge 100, Type (0, 0), BuildingBlock: ZUJKAS_clean_linker_0, # of connection points: 2
#     Edge 101, Type (0, 0), BuildingBlock: ZUJKAS_clean_linker_0, # of connection points: 2
#     Edge 102, Type (0, 0), BuildingBlock: ZUJKAS_clean_linker_0, # of connection points: 2
#     Edge 103, Type (0, 0), BuildingBlock: ZUJKAS_clean_linker_0, # of connection points: 2
#     Edge 104, Type (0, 0), BuildingBlock: ZUJKAS_clean_linker_0, # of connection points: 2
#     Edge 105, Type (0, 0), BuildingBlock: ZUJKAS_clean_linker_0, # of connection points: 2
#     Edge 106, Type (0, 0), BuildingBlock: ZUJKAS_clean_linker_0, # of connection points: 2
#     Edge 107, Type (0, 0), BuildingBlock: ZUJKAS_clean_linker_0, # of connection points: 2
# Relax obj value: 0.146
# Max RMSD: 0.488
# Mean RMSD: 0.264
data_MOF--net-uml--node1-CEKHIL_clean_sbu_0--edge1-ZUJKAS_clean_linker_0
_symmetry_space_group_name_H-M    P1
_symmetry_Int_Tables_number       1
_symmetry_cell_setting            triclinic
loop_
_symmetry_equiv_pos_as_xyz
'x, y, z'
_cell_length_a     119.66366
_cell_length_b     117.0054
_cell_length_c     35.940635
_cell_angle_alpha  90.090221
_cell_angle_beta   90.01158
_cell_angle_gamma 115.89054
loop_
_atom_site_label
_atom_site_type_symbol
_atom_site_fract_x
_atom_site_fract_y
_atom_site_fract_z
_atom_type_partial_charge
Co0 Co 0.33927 0.09847 0.15302 0.0
O1 O 0.34574 0.08613 0.14985 0.0
O2 O 0.35506 0.10573 0.12755 0.0
C3 C 0.33389 0.0955 0.21346 0.0
O4 O 0.33572 0.11394 0.15252 0.0
Co5 Co 0.3114 0.09015 0.17008 0.0
O6 O 0.3168 0.10865 0.17681 0.0
C7 C 0.31885 0.08652 0.09445 0.0
C8 C 0.35522 0.0948 0.13287 0.0
C9 C 0.3272 0.1169 0.1646 0.0
O10 O 0.33033 0.09241 0.10413 0.0
O11 O 0.30986 0.08387 0.11737 0.0
O12 O 0.34531 0.10261 0.20385 0.0
O13 O 0.32646 0.08936 0.18666 0.0
Co14 Co 0.8766 0.26798 0.18393 0.0
O15 O 0.87489 0.26847 0.23702 0.0
O16 O 0.88642 0.2607 0.20805 0.0
C17 C 0.87959 0.28802 0.17254 0.0
O18 O 0.88099 0.26626 0.13005 0.0
Co19 Co 0.85748 0.27069 0.13112 0.0
O20 O 0.87042 0.27357 0.09289 0.0
C21 C 0.85116 0.24605 0.1673 0.0
C22 C 0.88237 0.26314 0.23925 0.0
C23 C 0.87881 0.26983 0.09812 0.0
O24 O 0.86208 0.25073 0.18173 0.0
O25 O 0.84717 0.25262 0.14759 0.0
O26 O 0.88872 0.28568 0.18366 0.0
O27 O 0.86874 0.2784 0.17245 0.0
Co28 Co 0.72368 0.61413 0.16043 0.0
O29 O 0.70679 0.60167 0.15795 0.0
O30 O 0.72191 0.60119 0.12343 0.0
C31 C 0.72467 0.61505 0.22278 0.0
O32 O 0.74247 0.62579 0.15826 0.0
Co33 Co 0.72821 0.64023 0.19419 0.0
O34 O 0.7454 0.6419 0.19759 0.0
C35 C 0.71919 0.63442 0.11783 0.0
C36 C 0.71015 0.59612 0.1322 0.0
C37 C 0.7496 0.63567 0.17743 0.0
O38 O 0.72041 0.6241 0.12008 0.0
O39 O 0.72121 0.64218 0.14492 0.0
O40 O 0.72633 0.60621 0.20507 0.0
O41 O 0.7212 0.62205 0.20253 0.0
Co42 Co 0.0952 0.34556 0.32339 0.0
O43 O 0.08357 0.35269 0.32718 0.0
O44 O 0.10336 0.36253 0.34393 0.0
C45 C 0.09017 0.33796 0.26542 0.0
O46 O 0.11001 0.34139 0.32189 0.0
Co47 Co 0.08588 0.31642 0.314 0.0
O48 O 0.10354 0.3213 0.30166 0.0
C49 C 0.08417 0.32686 0.38723 0.0
C50 C 0.09265 0.36279 0.34053 0.0
C51 C 0.11218 0.33213 0.31023 0.0
O52 O 0.09053 0.33817 0.37474 0.0
O53 O 0.08054 0.31693 0.3667 0.0
O54 O 0.09765 0.34986 0.2708 0.0
O55 O 0.08504 0.33148 0.29487 0.0
Co56 Co 0.60633 0.75521 0.31388 0.0
O57 O 0.60417 0.75927 0.26341 0.0
O58 O 0.61908 0.75431 0.28284 0.0
C59 C 0.58645 0.74138 0.32495 0.0
O60 O 0.61099 0.7498 0.36343 0.0
Co61 Co 0.59385 0.76341 0.37723 0.0
O62 O 0.59846 0.75189 0.40692 0.0
C63 C 0.61673 0.78254 0.34407 0.0
C64 C 0.6137 0.7572 0.25537 0.0
C65 C 0.60631 0.74793 0.39645 0.0
O66 O 0.61738 0.77364 0.32456 0.0
O67 O 0.60759 0.78066 0.36569 0.0
O68 O 0.59383 0.738 0.30649 0.0
O69 O 0.59081 0.75347 0.33174 0.0
Co70 Co 0.24046 0.9009 0.32765 0.0
O71 O 0.25828 0.90872 0.3294 0.0
O72 O 0.24635 0.88975 0.35244 0.0
C73 C 0.23904 0.90538 0.26715 0.0
O74 O 0.22164 0.88975 0.32908 0.0
Co75 Co 0.22686 0.91771 0.31181 0.0
O76 O 0.21264 0.901 0.30213 0.0
C77 C 0.23663 0.91766 0.38719 0.0
C78 C 0.2575 0.89859 0.34605 0.0
C79 C 0.2121 0.89065 0.31518 0.0
O80 O 0.23977 0.9089 0.377 0.0
O81 O 0.2321 0.92302 0.36465 0.0
O82 O 0.24084 0.89557 0.2763 0.0
O83 O 0.23938 0.91274 0.2944 0.0
Co84 Co 0.66325 0.91717 0.81959 0.0
O85 O 0.66365 0.91866 0.76666 0.0
O86 O 0.68023 0.92311 0.80203 0.0
C87 C 0.65082 0.92665 0.82963 0.0
O88 O 0.66596 0.91721 0.87582 0.0
Co89 Co 0.6378 0.90063 0.85733 0.0
O90 O 0.64709 0.90913 0.9029 0.0
C91 C 0.65122 0.88824 0.81873 0.0
C92 C 0.67556 0.92253 0.76892 0.0
C93 C 0.65892 0.91477 0.90483 0.0
O94 O 0.66072 0.89905 0.81539 0.0
O95 O 0.64077 0.88698 0.83163 0.0
O96 O 0.66265 0.93349 0.82454 0.0
O97 O 0.64685 0.91461 0.82419 0.0
Co98 Co 0.09619 0.75446 0.81701 0.0
O99 O 0.09847 0.75475 0.76409 0.0
O100 O 0.08406 0.75871 0.79187 0.0
C101 C 0.09738 0.736 0.82674 0.0
O102 O 0.09105 0.7546 0.87153 0.0
Co103 Co 0.11779 0.75594 0.86787 0.0
O104 O 0.10537 0.75248 0.90793 0.0
C105 C 0.1193 0.77925 0.83251 0.0
C106 C 0.08925 0.75768 0.76096 0.0
C107 C 0.09515 0.75329 0.90375 0.0
O108 O 0.10816 0.77302 0.82014 0.0
O109 O 0.12517 0.77397 0.8498 0.0
O110 O 0.08698 0.736 0.81637 0.0
O111 O 0.10688 0.74697 0.82728 0.0
Co112 Co 0.24649 0.36658 0.85073 0.0
O113 O 0.2425 0.36926 0.80114 0.0
O114 O 0.24772 0.35399 0.81803 0.0
C115 C 0.25974 0.3869 0.86255 0.0
O116 O 0.25171 0.36161 0.89983 0.0
Co117 Co 0.23799 0.37899 0.91395 0.0
O118 O 0.24782 0.37278 0.94508 0.0
C119 C 0.21944 0.3565 0.87603 0.0
C120 C 0.24474 0.35978 0.79163 0.0
C121 C 0.25221 0.36521 0.93395 0.0
O122 O 0.22839 0.35508 0.8602 0.0
O123 O 0.22121 0.36616 0.89624 0.0
O124 O 0.26332 0.37951 0.84439 0.0
O125 O 0.24792 0.38228 0.8691 0.0
Co126 Co 0.90246 0.6698 0.66649 0.0
O127 O 0.90264 0.66964 0.71958 0.0
O128 O 0.90612 0.68663 0.68545 0.0
C129 C 0.9138 0.659 0.65878 0.0
O130 O 0.90355 0.67323 0.61052 0.0
Co131 Co 0.88962 0.64396 0.62446 0.0
O132 O 0.89835 0.65457 0.58115 0.0
C133 C 0.87438 0.65479 0.66082 0.0
C134 C 0.90524 0.6816 0.7183 0.0
C135 C 0.90267 0.66665 0.58084 0.0
O136 O 0.88418 0.66517 0.66692 0.0
O137 O 0.87469 0.64485 0.64697 0.0
O138 O 0.91929 0.67116 0.66511 0.0
O139 O 0.90185 0.65373 0.66124 0.0
Co140 Co 0.3917 0.26865 0.66027 0.0
O141 O 0.39821 0.26473 0.70502 0.0
O142 O 0.38039 0.26605 0.70141 0.0
C143 C 0.40963 0.28727 0.64639 0.0
O144 O 0.38338 0.27255 0.61816 0.0
Co145 Co 0.39944 0.25873 0.63706 0.0
O146 O 0.39308 0.26311 0.58848 0.0
C147 C 0.38163 0.2402 0.65801 0.0
C148 C 0.38845 0.26426 0.72182 0.0
C149 C 0.38612 0.26888 0.58758 0.0
O150 O 0.37998 0.24991 0.64948 0.0
O151 O 0.39266 0.2418 0.66149 0.0
O152 O 0.40161 0.28628 0.67098 0.0
O153 O 0.40803 0.27699 0.62899 0.0
Co154 Co 0.7277 0.11414 0.67848 0.0
O155 O 0.72736 0.11638 0.73136 0.0
O156 O 0.73311 0.10281 0.7043 0.0
C157 C 0.70882 0.1134 0.66706 0.0
O158 O 0.72869 0.10903 0.6244 0.0
Co159 Co 0.72772 0.13511 0.62639 0.0
O160 O 0.72432 0.12202 0.58731 0.0
C161 C 0.75102 0.13884 0.66325 0.0
C162 C 0.73128 0.10772 0.73493 0.0
C163 C 0.72639 0.11231 0.59205 0.0
O164 O 0.74544 0.12751 0.67635 0.0
O165 O 0.74538 0.14408 0.64462 0.0
O166 O 0.70989 0.10335 0.67807 0.0
O167 O 0.71902 0.12381 0.6669 0.0
Co168 Co 0.01168 0.42643 0.49606 0.0
O169 O 0.02007 0.41583 0.492 0.0
O170 O 0.02743 0.43558 0.47104 0.0
C171 C 0.00624 0.4225 0.55619 0.0
O172 O 0.00573 0.44028 0.49714 0.0
Co173 Co 0.98335 0.41401 0.51131 0.0
O174 O 0.98649 0.43183 0.52157 0.0
C175 C 0.99217 0.41294 0.43567 0.0
C176 C 0.02894 0.42531 0.4755 0.0
C177 C 0.99623 0.44135 0.51047 0.0
O178 O 0.00331 0.42002 0.44662 0.0
O179 O 0.98286 0.40874 0.4578 0.0
O180 O 0.01736 0.43071 0.54703 0.0
O181 O 0.99935 0.41583 0.52904 0.0
Co182 Co 0.54441 0.60553 0.50106 0.0
O183 O 0.54172 0.60455 0.5539 0.0
O184 O 0.55451 0.59842 0.52493 0.0
C185 C 0.54644 0.62548 0.49423 0.0
O186 O 0.54977 0.60544 0.44693 0.0
Co187 Co 0.52528 0.60854 0.44853 0.0
O188 O 0.53847 0.61216 0.41077 0.0
C189 C 0.51934 0.58359 0.48192 0.0
C190 C 0.54963 0.59975 0.55606 0.0
C191 C 0.54733 0.609 0.41523 0.0
O192 O 0.53045 0.58803 0.49497 0.0
O193 O 0.51511 0.59045 0.46471 0.0
O194 O 0.55581 0.62351 0.50517 0.0
O195 O 0.53598 0.61546 0.49128 0.0
Co196 Co 0.39018 0.95393 0.49132 0.0
O197 O 0.37293 0.94239 0.48967 0.0
O198 O 0.38763 0.93938 0.45982 0.0
C199 C 0.39098 0.95719 0.55287 0.0
O200 O 0.40918 0.96415 0.48928 0.0
Co201 Co 0.397 0.98165 0.51571 0.0
O202 O 0.41338 0.98161 0.52408 0.0
C203 C 0.38803 0.97376 0.43973 0.0
C204 C 0.37589 0.9354 0.46771 0.0
C205 C 0.41681 0.97408 0.50726 0.0
O206 O 0.38806 0.963 0.44637 0.0
O207 O 0.39068 0.98247 0.46441 0.0
O208 O 0.39191 0.9473 0.53957 0.0
O209 O 0.38828 0.96387 0.52907 0.0
Co210 Co 0.73124 0.65048 0.66639 0.0
O211 O 0.7193 0.65719 0.65998 0.0
O212 O 0.73778 0.66735 0.68672 0.0
C213 C 0.73011 0.64283 0.60866 0.0
O214 O 0.74624 0.64719 0.67651 0.0
Co215 Co 0.72395 0.62181 0.66191 0.0
O216 O 0.74212 0.62722 0.66041 0.0
C217 C 0.71819 0.63211 0.72989 0.0
C218 C 0.72738 0.66736 0.67636 0.0
C219 C 0.74968 0.63837 0.67055 0.0
O220 O 0.72373 0.64329 0.71594 0.0
O221 O 0.71681 0.62203 0.71248 0.0
O222 O 0.73684 0.65479 0.61574 0.0
O223 O 0.72325 0.63608 0.63575 0.0
Co224 Co 0.27839 0.08839 0.64007 0.0
O225 O 0.27658 0.09024 0.58765 0.0
O226 O 0.29345 0.09072 0.61452 0.0
C227 C 0.26011 0.07143 0.64925 0.0
O228 O 0.2833 0.08633 0.69327 0.0
Co229 Co 0.26071 0.09282 0.69498 0.0
O230 O 0.26734 0.08427 0.73016 0.0
C231 C 0.28162 0.11493 0.66324 0.0
C232 C 0.28779 0.0913 0.58416 0.0
C233 C 0.27761 0.08368 0.72482 0.0
O234 O 0.28512 0.10726 0.64697 0.0
O235 O 0.27167 0.11115 0.68262 0.0
O236 O 0.26953 0.07011 0.6357 0.0
O237 O 0.26155 0.08305 0.65225 0.0
Co238 Co 0.90878 0.22929 0.66821 0.0
O239 O 0.92648 0.23831 0.67313 0.0
O240 O 0.91524 0.2188 0.69372 0.0
C241 C 0.90808 0.23405 0.60769 0.0
O242 O 0.89028 0.2169 0.66678 0.0
Co243 Co 0.89314 0.24385 0.64891 0.0
O244 O 0.88037 0.22659 0.63632 0.0
C245 C 0.90163 0.24401 0.72631 0.0
C246 C 0.92615 0.22831 0.68952 0.0
C247 C 0.88058 0.21671 0.65053 0.0
O248 O 0.90653 0.23657 0.71713 0.0
O249 O 0.89633 0.24835 0.70306 0.0
O250 O 0.91058 0.22469 0.61704 0.0
O251 O 0.90721 0.24083 0.63492 0.0
Co252 Co 0.34556 0.26943 0.13806 0.0
O253 O 0.3469 0.26957 0.08512 0.0
O254 O 0.36244 0.27314 0.12434 0.0
C255 C 0.33474 0.2809 0.14153 0.0
O256 O 0.34756 0.27064 0.19446 0.0
Co257 Co 0.31958 0.25647 0.17554 0.0
O258 O 0.3289 0.26595 0.22002 0.0
C259 C 0.33134 0.24069 0.14723 0.0
C260 C 0.35849 0.27217 0.09019 0.0
C261 C 0.34066 0.27015 0.22254 0.0
O262 O 0.34121 0.25077 0.13933 0.0
O263 O 0.3214 0.24093 0.15956 0.0
O264 O 0.34674 0.28659 0.13758 0.0
O265 O 0.32972 0.26868 0.13891 0.0
Co266 Co 0.76974 0.08464 0.16437 0.0
O267 O 0.77303 0.08524 0.11191 0.0
O268 O 0.75775 0.08844 0.13687 0.0
C269 C 0.77147 0.06648 0.175 0.0
O270 O 0.76337 0.08426 0.21763 0.0
Co271 Co 0.79017 0.08656 0.22049 0.0
O272 O 0.77615 0.0804 0.25618 0.0
C273 C 0.79177 0.10982 0.1842 0.0
C274 C 0.76355 0.08766 0.107 0.0
C275 C 0.76617 0.0815 0.25005 0.0
O276 O 0.78111 0.10333 0.169 0.0
O277 O 0.79736 0.10478 0.20387 0.0
O278 O 0.76115 0.06616 0.16249 0.0
O279 O 0.78066 0.07765 0.17739 0.0
Co280 Co 0.90514 0.7274 0.15029 0.0
O281 O 0.90311 0.73201 0.10047 0.0
O282 O 0.90314 0.71375 0.11642 0.0
C283 C 0.92173 0.74559 0.16527 0.0
O284 O 0.90759 0.71989 0.19939 0.0
Co285 Co 0.90028 0.74192 0.2149 0.0
O286 O 0.90992 0.73466 0.24279 0.0
C287 C 0.87886 0.72172 0.17809 0.0
C288 C 0.90247 0.72112 0.09025 0.0
C289 C 0.91076 0.72466 0.23229 0.0
O290 O 0.8866 0.71959 0.15791 0.0
O291 O 0.88233 0.73073 0.20207 0.0
O292 O 0.92291 0.7368 0.14606 0.0
O293 O 0.91036 0.74388 0.17071 0.0
Co294 Co 0.56857 0.99019 0.02863 0.0
O295 O 0.56647 0.98803 0.08117 0.0
O296 O 0.57234 0.00645 0.05217 0.0
C297 C 0.57935 0.97882 0.02118 0.0
O298 O 0.57211 0.99559 0.97403 0.0
Co299 Co 0.55611 0.96611 0.97884 0.0
O300 O 0.56757 0.97768 0.94118 0.0
C301 C 0.54082 0.97776 0.01006 0.0
C302 C 0.56983 0.00013 0.08335 0.0
C303 C 0.57235 0.98976 0.94369 0.0
O304 O 0.55071 0.98691 0.02287 0.0
O305 O 0.54083 0.96802 0.99375 0.0
O306 O 0.58492 0.99056 0.03219 0.0
O307 O 0.56737 0.97399 0.01973 0.0
Co308 Co 0.0515 0.60552 0.01085 0.0
O309 O 0.05598 0.60323 0.0605 0.0
O310 O 0.03798 0.60295 0.0445 0.0
C311 C 0.06913 0.62263 0.99652 0.0
O312 O 0.0441 0.60807 0.96194 0.0
Co313 Co 0.06614 0.60131 0.9456 0.0
O314 O 0.05826 0.61046 0.91769 0.0
C315 C 0.04664 0.57905 0.98153 0.0
C316 C 0.04517 0.60216 0.07059 0.0
C317 C 0.04843 0.61109 0.92866 0.0
O318 O 0.04423 0.58671 0.00189 0.0
O319 O 0.05559 0.58287 0.95806 0.0
O320 O 0.06052 0.62371 0.01608 0.0
O321 O 0.06755 0.61108 0.99059 0.0
Co322 Co 0.39439 0.46164 0.02351 0.0
O323 O 0.395 0.46588 0.07532 0.0
O324 O 0.40085 0.45181 0.05226 0.0
C325 C 0.37493 0.45932 0.01345 0.0
O326 O 0.39445 0.45457 0.97123 0.0
Co327 Co 0.39232 0.48005 0.9653 0.0
O328 O 0.38804 0.46534 0.93152 0.0
C329 C 0.41674 0.486 0.99854 0.0
C330 C 0.39918 0.45754 0.08135 0.0
C331 C 0.39083 0.45624 0.93867 0.0
O332 O 0.41177 0.4754 0.01617 0.0
O333 O 0.41044 0.49005 0.97817 0.0
O334 O 0.3769 0.45023 0.02803 0.0
O335 O 0.3847 0.47002 0.00913 0.0
Co336 Co 0.65289 0.74424 0.82161 0.0
O337 O 0.65807 0.73089 0.82263 0.0
O338 O 0.66874 0.7499 0.79738 0.0
C339 C 0.64699 0.74305 0.88122 0.0
O340 O 0.65086 0.76048 0.81654 0.0
Co341 Co 0.62537 0.73843 0.83348 0.0
O342 O 0.63218 0.75717 0.83894 0.0
C343 C 0.6331 0.73281 0.76083 0.0
C344 C 0.66791 0.7387 0.80494 0.0
C345 C 0.64296 0.76454 0.82689 0.0
O346 O 0.64436 0.73786 0.7726 0.0
O347 O 0.62387 0.73136 0.78154 0.0
O348 O 0.65863 0.74904 0.87214 0.0
O349 O 0.63949 0.73667 0.85473 0.0
Co350 Co 0.2068 0.93745 0.84118 0.0
O351 O 0.20482 0.93748 0.89425 0.0
O352 O 0.21698 0.9305 0.86532 0.0
C353 C 0.20909 0.95734 0.83119 0.0
O354 O 0.21154 0.93644 0.78697 0.0
Co355 Co 0.18728 0.93991 0.78913 0.0
O356 O 0.20018 0.94302 0.75067 0.0
C357 C 0.18151 0.91532 0.82471 0.0
C358 C 0.21263 0.93255 0.89653 0.0
C359 C 0.20897 0.93978 0.75511 0.0
O360 O 0.19262 0.91996 0.83784 0.0
O361 O 0.17724 0.92196 0.80651 0.0
O362 O 0.21846 0.95538 0.84213 0.0
O363 O 0.19849 0.94743 0.83051 0.0
Co364 Co 0.06498 0.28206 0.83564 0.0
O365 O 0.04758 0.27727 0.83314 0.0
O366 O 0.05651 0.26584 0.8096 0.0
C367 C 0.06702 0.28759 0.89602 0.0
O368 O 0.08302 0.28446 0.83515 0.0
Co369 Co 0.08239 0.31045 0.85342 0.0
O370 O 0.094 0.30299 0.86515 0.0
C371 C 0.07198 0.30329 0.77811 0.0
C372 C 0.04636 0.26713 0.81562 0.0
C373 C 0.09299 0.29252 0.85141 0.0
O374 O 0.06751 0.29149 0.78723 0.0
O375 O 0.07749 0.31238 0.80122 0.0
O376 O 0.06322 0.27574 0.88666 0.0
O377 O 0.06819 0.29529 0.86904 0.0
Co378 Co 0.4139 0.00795 0.98882 0.0
O379 O 0.4047 0.01776 0.98443 0.0
O380 O 0.42324 0.02454 0.01087 0.0
C381 C 0.41103 0.0007 0.93023 0.0
O382 O 0.42635 0.00066 0.99666 0.0
Co383 Co 0.40056 0.97871 0.98018 0.0
O384 O 0.41777 0.98046 0.97636 0.0
C385 C 0.39787 0.99031 0.05013 0.0
C386 C 0.4139 0.02681 0.00136 0.0
C387 C 0.4271 0.99036 0.98775 0.0
O388 O 0.40579 0.00118 0.03812 0.0
O389 O 0.39392 0.98017 0.03043 0.0
O390 O 0.41971 0.01193 0.93792 0.0
O391 O 0.40361 0.99481 0.95722 0.0
Co392 Co 0.95358 0.42093 0.98428 0.0
O393 O 0.95102 0.42198 0.93195 0.0
O394 O 0.96824 0.42277 0.95717 0.0
C395 C 0.93545 0.40413 0.99649 0.0
O396 O 0.95916 0.41953 0.0372 0.0
Co397 Co 0.93682 0.4264 0.0399 0.0
O398 O 0.94365 0.41805 0.07518 0.0
C399 C 0.95718 0.4479 0.00387 0.0
C400 C 0.96211 0.42285 0.92731 0.0
C401 C 0.95376 0.4172 0.06922 0.0
O402 O 0.96049 0.43993 0.98869 0.0
O403 O 0.94747 0.44448 0.02425 0.0
O404 O 0.94471 0.40265 0.98233 0.0
O405 O 0.93689 0.41578 0.9983 0.0
Co406 Co 0.57674 0.56761 0.98724 0.0
O407 O 0.59448 0.57418 0.98825 0.0
O408 O 0.58166 0.55581 0.0129 0.0
C409 C 0.57548 0.57174 0.92631 0.0
O410 O 0.55772 0.55782 0.9893 0.0
Co411 Co 0.56542 0.58638 0.96992 0.0
O412 O 0.55023 0.57034 0.96186 0.0
C413 C 0.57472 0.58582 0.04559 0.0
C414 C 0.59304 0.56394 0.00554 0.0
C415 C 0.54869 0.55969 0.97541 0.0
O416 O 0.57692 0.57637 0.03604 0.0
O417 O 0.57093 0.59171 0.02253 0.0
O418 O 0.57639 0.56153 0.93636 0.0
O419 O 0.57664 0.57963 0.95289 0.0
Co420 Co 0.9921 0.58469 0.49961 0.0
O421 O 0.99058 0.58102 0.44755 0.0
O422 O 0.00848 0.5901 0.47793 0.0
C423 C 0.97886 0.59349 0.50164 0.0
O424 O 0.99682 0.59019 0.55369 0.0
Co425 Co 0.96881 0.57092 0.54953 0.0
O426 O 0.97889 0.5845 0.58513 0.0
C427 C 0.98274 0.55703 0.52354 0.0
C428 C 0.0026 0.58594 0.4466 0.0
C429 C 0.99068 0.59055 0.58287 0.0
O430 O 0.99108 0.56742 0.51009 0.0
O431 O 0.97265 0.55618 0.53823 0.0
O432 O 0.99026 0.60015 0.49103 0.0
O433 O 0.97552 0.58148 0.50616 0.0
Co434 Co 0.42746 0.42407 0.50989 0.0
O435 O 0.4296 0.42411 0.45708 0.0
O436 O 0.41546 0.42852 0.48492 0.0
C437 C 0.42857 0.40559 0.51961 0.0
O438 O 0.42242 0.42439 0.56428 0.0
Co439 Co 0.44877 0.42537 0.56146 0.0
O440 O 0.43562 0.42019 0.59998 0.0
C441 C 0.45089 0.44858 0.52381 0.0
C442 C 0.42053 0.42725 0.45405 0.0
C443 C 0.42576 0.4217 0.59597 0.0
O444 O 0.43963 0.44254 0.51223 0.0
O445 O 0.45656 0.44322 0.5417 0.0
O446 O 0.41813 0.40561 0.50965 0.0
O447 O 0.43807 0.41656 0.52027 0.0
Co448 Co 0.57451 0.05165 0.51575 0.0
O449 O 0.57342 0.05519 0.46427 0.0
O450 O 0.57244 0.03705 0.48576 0.0
C451 C 0.59122 0.06985 0.52935 0.0
O452 O 0.57592 0.04522 0.5677 0.0
Co453 Co 0.56912 0.0682 0.57293 0.0
O454 O 0.57656 0.06032 0.60765 0.0
C455 C 0.54807 0.04796 0.53535 0.0
C456 C 0.57237 0.04391 0.45729 0.0
C457 C 0.57767 0.05019 0.60056 0.0
O458 O 0.55591 0.0446 0.52041 0.0
O459 O 0.55143 0.05786 0.55593 0.0
O460 O 0.59238 0.06045 0.51368 0.0
O461 O 0.57992 0.06863 0.53192 0.0
Co462 Co 0.25655 0.34059 0.35477 0.0
O463 O 0.25045 0.33894 0.40429 0.0
O464 O 0.26064 0.35734 0.37492 0.0
C465 C 0.2656 0.32747 0.36027 0.0
O466 O 0.26441 0.3454 0.30315 0.0
Co467 Co 0.24576 0.3166 0.30433 0.0
O468 O 0.26081 0.32692 0.27474 0.0
C469 C 0.23072 0.3303 0.31992 0.0
C470 C 0.25513 0.35122 0.40487 0.0
C471 C 0.26646 0.33899 0.27698 0.0
O472 O 0.2402 0.33915 0.33566 0.0
O473 O 0.23071 0.32 0.30781 0.0
O474 O 0.27124 0.33912 0.37194 0.0
O475 O 0.2541 0.32374 0.35073 0.0
Co476 Co 0.72476 0.93244 0.33724 0.0
O477 O 0.73038 0.93384 0.38773 0.0
O478 O 0.71149 0.93086 0.37084 0.0
C479 C 0.74122 0.94916 0.3145 0.0
O480 O 0.71614 0.93114 0.28708 0.0
Co481 Co 0.73921 0.92559 0.27704 0.0
O482 O 0.72998 0.93189 0.2436 0.0
C483 C 0.72093 0.90507 0.32189 0.0
C484 C 0.7194 0.93235 0.39749 0.0
C485 C 0.71991 0.93233 0.25303 0.0
O486 O 0.71866 0.9135 0.33876 0.0
O487 O 0.72928 0.90787 0.2967 0.0
O488 O 0.7325 0.95069 0.33206 0.0
O489 O 0.74064 0.93783 0.31568 0.0
Co490 Co 0.05802 0.78879 0.33173 0.0
O491 O 0.0569 0.79091 0.38436 0.0
O492 O 0.06303 0.77738 0.35904 0.0
C493 C 0.03928 0.78793 0.31713 0.0
O494 O 0.05982 0.7839 0.2779 0.0
Co495 Co 0.05893 0.81033 0.28033 0.0
O496 O 0.05806 0.79839 0.24008 0.0
C497 C 0.08157 0.81374 0.32028 0.0
C498 C 0.06078 0.78227 0.38911 0.0
C499 C 0.05929 0.78821 0.24521 0.0
O500 O 0.07583 0.80224 0.33195 0.0
O501 O 0.07619 0.8192 0.30148 0.0
O502 O 0.04026 0.77791 0.3288 0.0
O503 O 0.0494 0.7984 0.31862 0.0
H504 H 0.27862 0.09484 0.51814 0.0
H505 H 0.28744 0.0961 0.45617 0.0
H506 H 0.31873 0.09232 0.50382 0.0
H507 H 0.30993 0.09101 0.56625 0.0
H508 H 0.31154 0.11368 0.42836 0.0
H509 H 0.30372 0.06318 0.42478 0.0
H510 H 0.29593 0.06897 0.45752 0.0
H511 H 0.31191 0.07231 0.46465 0.0
C512 C 0.28741 0.09431 0.51553 0.0
C513 C 0.29356 0.09274 0.54706 0.0
C514 C 0.29243 0.09506 0.4801 0.0
C515 C 0.30364 0.09415 0.47547 0.0
C516 C 0.30997 0.09287 0.50688 0.0
H517 H 0.34736 0.10922 0.27266 0.0
H518 H 0.34016 0.10908 0.33644 0.0
C519 C 0.30497 0.09218 0.54247 0.0
C520 C 0.30854 0.09438 0.43757 0.0
H521 H 0.3138 0.07587 0.37295 0.0
C522 C 0.3121 0.10545 0.41625 0.0
C523 C 0.30906 0.08354 0.42181 0.0
C524 C 0.30487 0.07127 0.44314 0.0
C525 C 0.31627 0.106 0.3795 0.0
C526 C 0.31695 0.09522 0.36393 0.0
C527 C 0.31332 0.08413 0.38516 0.0
C528 C 0.3213 0.09524 0.32542 0.0
C529 C 0.31967 0.118 0.35734 0.0
C530 C 0.31311 0.08734 0.29834 0.0
C531 C 0.31719 0.08739 0.26186 0.0
C532 C 0.32955 0.09527 0.25203 0.0
C533 C 0.33776 0.10306 0.27937 0.0
C534 C 0.33367 0.10304 0.31576 0.0
H535 H 0.31619 0.12441 0.37057 0.0
H536 H 0.32994 0.12319 0.35528 0.0
H537 H 0.31588 0.11574 0.32865 0.0
H538 H 0.30353 0.08122 0.30538 0.0
H539 H 0.31066 0.08128 0.24139 0.0
H540 H 0.9 0.25109 0.58232 0.0
H541 H 0.89635 0.25515 0.51784 0.0
H542 H 0.90787 0.2269 0.48037 0.0
H543 H 0.91123 0.22254 0.54498 0.0
H544 H 0.91277 0.26365 0.4605 0.0
H545 H 0.87509 0.21608 0.42648 0.0
H546 H 0.88023 0.22095 0.47355 0.0
H547 H 0.88911 0.21581 0.44321 0.0
C548 C 0.90168 0.24568 0.56038 0.0
C549 C 0.90584 0.23645 0.5687 0.0
C550 C 0.89961 0.24802 0.52354 0.0
C551 C 0.90167 0.24121 0.49431 0.0
C552 C 0.90594 0.23206 0.50251 0.0
H553 H 0.89516 0.24905 0.25336 0.0
H554 H 0.90069 0.24363 0.31447 0.0
C555 C 0.90793 0.22964 0.53942 0.0
C556 C 0.89964 0.24398 0.4553 0.0
H557 H 0.8826 0.23086 0.37703 0.0
C558 C 0.90619 0.25647 0.44226 0.0
C559 C 0.89107 0.23458 0.43148 0.0
C560 C 0.88338 0.22113 0.4444 0.0
C561 C 0.90431 0.25985 0.40618 0.0
C562 C 0.89563 0.25051 0.38264 0.0
C563 C 0.88929 0.23796 0.39523 0.0
C564 C 0.89244 0.25381 0.34572 0.0
C565 C 0.91156 0.2734 0.39347 0.0
C566 C 0.88589 0.2612 0.34329 0.0
C567 C 0.88266 0.26423 0.30864 0.0
C568 C 0.88596 0.25995 0.27574 0.0
C569 C 0.89254 0.25253 0.27823 0.0
C570 C 0.89568 0.24941 0.31303 0.0
H571 H 0.91972 0.27873 0.41162 0.0
H572 H 0.91482 0.2737 0.36439 0.0
H573 H 0.90545 0.2783 0.39423 0.0
H574 H 0.88319 0.26455 0.36827 0.0
H575 H 0.87757 0.26994 0.30767 0.0
H576 H 0.74332 0.65557 0.54851 0.0
H577 H 0.7425 0.64752 0.48559 0.0
H578 H 0.71652 0.61011 0.52131 0.0
H579 H 0.7171 0.6182 0.58475 0.0
H580 H 0.74768 0.62824 0.45677 0.0
H581 H 0.6981 0.61831 0.43685 0.0
H582 H 0.7072 0.62753 0.47556 0.0
H583 H 0.70146 0.61055 0.47544 0.0
C584 C 0.73746 0.64561 0.54313 0.0
C585 C 0.73015 0.63754 0.57144 0.0
C586 C 0.73705 0.64101 0.50716 0.0
C587 C 0.72934 0.62827 0.49874 0.0
C588 C 0.72237 0.62003 0.52719 0.0
H589 H 0.7307 0.60074 0.27147 0.0
H590 H 0.73189 0.60259 0.33941 0.0
C591 C 0.72274 0.62465 0.56336 0.0
C592 C 0.72829 0.624 0.45963 0.0
H593 H 0.70858 0.6154 0.38525 0.0
C594 C 0.73911 0.62525 0.44115 0.0
C595 C 0.7171 0.62024 0.43942 0.0
C596 C 0.7053 0.61914 0.45761 0.0
C597 C 0.73912 0.62326 0.40266 0.0
C598 C 0.72799 0.61978 0.38239 0.0
C599 C 0.71708 0.61808 0.40105 0.0
C600 C 0.72762 0.61874 0.34141 0.0
C601 C 0.75116 0.62551 0.38369 0.0
C602 C 0.72473 0.62715 0.32022 0.0
C603 C 0.72399 0.62609 0.28154 0.0
C604 C 0.72607 0.61656 0.26345 0.0
C605 C 0.72908 0.60821 0.2847 0.0
C606 C 0.72981 0.60927 0.32345 0.0
H607 H 0.75931 0.6304 0.40221 0.0
H608 H 0.75085 0.61624 0.37532 0.0
H609 H 0.75249 0.63129 0.35816 0.0
H610 H 0.72301 0.63452 0.33368 0.0
H611 H 0.72165 0.63266 0.26588 0.0
H612 H 0.06309 0.27323 0.95883 0.0
H613 H 0.06707 0.28087 0.02331 0.0
H614 H 0.08201 0.31957 0.98442 0.0
H615 H 0.07781 0.31205 0.92026 0.0
H616 H 0.08891 0.29706 0.0595 0.0
H617 H 0.05498 0.31756 0.05659 0.0
H618 H 0.05545 0.30684 0.02113 0.0
H619 H 0.06624 0.3234 0.01992 0.0
C620 C 0.06723 0.28336 0.96411 0.0
C621 C 0.07001 0.29205 0.93465 0.0
C622 C 0.06951 0.2877 0.00085 0.0
C623 C 0.07458 0.30076 0.00852 0.0
C624 C 0.0778 0.30944 0.97905 0.0
H625 H 0.09856 0.34978 0.19903 0.0
H626 H 0.09491 0.33999 0.1372 0.0
C627 C 0.07544 0.30513 0.94243 0.0
C628 C 0.07643 0.30538 0.0473 0.0
H629 H 0.06898 0.3234 0.10805 0.0
C630 C 0.08448 0.30272 0.0703 0.0
C631 C 0.07054 0.31268 0.06125 0.0
C632 C 0.06122 0.31519 0.03857 0.0
C633 C 0.08712 0.30756 0.10664 0.0
C634 C 0.08153 0.31518 0.12002 0.0
C635 C 0.07331 0.31763 0.09735 0.0
C636 C 0.08418 0.32087 0.15743 0.0
C637 C 0.09608 0.30482 0.13024 0.0
C638 C 0.07928 0.3133 0.18895 0.0
C639 C 0.08126 0.31886 0.22421 0.0
C640 C 0.0882 0.33206 0.22832 0.0
C641 C 0.09319 0.33958 0.19665 0.0
C642 C 0.09113 0.33403 0.16141 0.0
H643 H 0.10087 0.30017 0.11406 0.0
H644 H 0.10317 0.31374 0.14263 0.0
H645 H 0.09095 0.29844 0.15345 0.0
H646 H 0.07378 0.30313 0.18618 0.0
H647 H 0.07731 0.31283 0.24816 0.0
H648 H 0.6039 0.76273 0.19334 0.0
H649 H 0.60873 0.76048 0.12843 0.0
H650 H 0.63691 0.74927 0.16407 0.0
H651 H 0.63206 0.75137 0.22919 0.0
H652 H 0.63113 0.77211 0.08839 0.0
H653 H 0.61398 0.71977 0.09636 0.0
H654 H 0.61051 0.72881 0.13146 0.0
H655 H 0.62538 0.72847 0.13098 0.0
C656 C 0.6112 0.75987 0.1874 0.0
C657 C 0.61755 0.75713 0.21637 0.0
C658 C 0.61392 0.75858 0.15031 0.0
C659 C 0.62299 0.75447 0.14156 0.0
C660 C 0.62969 0.7522 0.17035 0.0
H661 H 0.66109 0.75734 0.93826 0.0
H662 H 0.65425 0.7601 8e-05 0.0
C663 C 0.62698 0.7535 0.20749 0.0
C664 C 0.62536 0.75245 0.10228 0.0
H665 H 0.62487 0.72983 0.04132 0.0
C666 C 0.62971 0.76286 0.078 0.0
C667 C 0.62324 0.74031 0.08871 0.0
C668 C 0.61791 0.72866 0.11309 0.0
C669 C 0.63243 0.76155 0.04073 0.0
C670 C 0.63089 0.74954 0.02768 0.0
C671 C 0.62612 0.73903 0.05157 0.0
C672 C 0.63483 0.74786 0.98991 0.0
C673 C 0.63696 0.77302 0.01563 0.0
C674 C 0.62618 0.73981 0.96399 0.0
C675 C 0.63007 0.73817 0.92848 0.0
C676 C 0.64268 0.74446 0.91866 0.0
C677 C 0.6513 0.75238 0.94492 0.0
C678 C 0.64741 0.75405 0.98021 0.0
H679 H 0.63443 0.78046 0.02664 0.0
H680 H 0.64724 0.77717 0.01362 0.0
H681 H 0.63307 0.77035 0.98716 0.0
H682 H 0.61643 0.73488 0.97118 0.0
H683 H 0.62324 0.732 0.90879 0.0
H684 H 0.24055 0.89288 0.20456 0.0
H685 H 0.23734 0.8974 0.14 0.0
H686 H 0.22874 0.92771 0.17733 0.0
H687 H 0.23228 0.92347 0.24182 0.0
H688 H 0.21712 0.89664 0.10523 0.0
H689 H 0.25465 0.9457 0.09941 0.0
H690 H 0.2533 0.93501 0.1371 0.0
H691 H 0.24394 0.94359 0.13662 0.0
C692 C 0.23802 0.90054 0.19899 0.0
C693 C 0.23676 0.90789 0.22823 0.0
C694 C 0.23618 0.90311 0.16208 0.0
C695 C 0.23305 0.91307 0.1537 0.0
C696 C 0.2315 0.92022 0.18298 0.0
H697 H 0.20734 0.93903 0.96474 0.0
H698 H 0.21297 0.93387 0.02563 0.0
C699 C 0.23344 0.91772 0.21987 0.0
C700 C 0.23109 0.91576 0.11445 0.0
H701 H 0.23979 0.93949 0.0498 0.0
C702 C 0.22219 0.90597 0.09297 0.0
C703 C 0.23778 0.92792 0.09833 0.0
C704 C 0.24804 0.93862 0.11893 0.0
C705 C 0.21947 0.90814 0.05636 0.0
C706 C 0.22583 0.92039 0.04087 0.0
C707 C 0.23492 0.93011 0.06192 0.0
C708 C 0.22265 0.92348 0.00363 0.0
C709 C 0.20955 0.89746 0.03473 0.0
C710 C 0.22633 0.91941 0.97109 0.0
C711 C 0.2232 0.92242 0.93607 0.0
C712 C 0.21626 0.92947 0.93319 0.0
C713 C 0.21265 0.93354 0.96595 0.0
C714 C 0.21587 0.93063 0.00079 0.0
H715 H 0.20472 0.88878 0.05185 0.0
H716 H 0.20258 0.90051 0.02399 0.0
H717 H 0.21382 0.89505 0.01039 0.0
H718 H 0.23164 0.91393 0.97282 0.0
H719 H 0.2261 0.91915 0.91134 0.0
H720 H 0.66968 0.93004 0.70392 0.0
H721 H 0.68042 0.93319 0.64448 0.0
H722 H 0.70891 0.92543 0.69601 0.0
H723 H 0.69819 0.92238 0.75643 0.0
H724 H 0.7092 0.95045 0.62766 0.0
H725 H 0.68929 0.89804 0.60549 0.0
H726 H 0.68166 0.90487 0.63538 0.0
H727 H 0.69598 0.90486 0.64987 0.0
C728 C 0.67832 0.92916 0.70282 0.0
C729 C 0.68308 0.92588 0.73468 0.0
C730 C 0.68445 0.93101 0.66887 0.0
C731 C 0.69537 0.92948 0.66599 0.0
C732 C 0.70046 0.92665 0.69792 0.0
H733 H 0.73523 0.93833 0.45639 0.0
H734 H 0.73026 0.93798 0.52243 0.0
C735 C 0.69437 0.92494 0.73227 0.0
C736 C 0.70075 0.93002 0.62875 0.0
H737 H 0.69913 0.91114 0.55446 0.0
C738 C 0.70724 0.94189 0.61177 0.0
C739 C 0.69794 0.91879 0.60818 0.0
C740 C 0.69082 0.90586 0.62538 0.0
C741 C 0.71079 0.94281 0.57426 0.0
C742 C 0.70768 0.93158 0.55342 0.0
C743 C 0.70143 0.91971 0.57064 0.0
C744 C 0.71064 0.93196 0.51344 0.0
C745 C 0.71746 0.95574 0.55664 0.0
C746 C 0.70119 0.92863 0.48664 0.0
C747 C 0.70399 0.92888 0.44875 0.0
C748 C 0.71626 0.93233 0.43726 0.0
C749 C 0.72567 0.93562 0.46432 0.0
C750 C 0.72288 0.93546 0.50207 0.0
H751 H 0.71794 0.96348 0.57547 0.0
H752 H 0.72707 0.95744 0.54937 0.0
H753 H 0.71271 0.95616 0.53049 0.0
H754 H 0.69167 0.92587 0.49509 0.0
H755 H 0.69656 0.92626 0.42856 0.0
H756 H 0.06936 0.76487 0.4105 0.0
H757 H 0.07301 0.75974 0.47436 0.0
H758 H 0.06016 0.78632 0.51744 0.0
H759 H 0.0566 0.79152 0.45432 0.0
H760 H 0.08272 0.78943 0.54783 0.0
H761 H 0.0475 0.73904 0.55462 0.0
H762 H 0.05795 0.74295 0.51572 0.0
H763 H 0.04722 0.74986 0.51923 0.0
C764 C 0.06724 0.76954 0.43362 0.0
C765 C 0.06269 0.7786 0.42726 0.0
C766 C 0.06926 0.76655 0.47009 0.0
C767 C 0.06673 0.77256 0.50072 0.0
C768 C 0.06215 0.78154 0.49431 0.0
H769 H 0.06942 0.76268 0.74266 0.0
H770 H 0.06322 0.7662 0.67991 0.0
C771 C 0.06011 0.78449 0.45809 0.0
C772 C 0.06934 0.77 0.53951 0.0
H773 H 0.06134 0.74686 0.60593 0.0
C774 C 0.078 0.78013 0.56054 0.0
C775 C 0.06309 0.75789 0.55622 0.0
C776 C 0.05333 0.74681 0.53549 0.0
C777 C 0.08076 0.77841 0.5975 0.0
C778 C 0.0747 0.76628 0.61391 0.0
C779 C 0.06592 0.75617 0.5932 0.0
C780 C 0.07804 0.76382 0.65176 0.0
C781 C 0.09026 0.78951 0.61886 0.0
C782 C 0.08837 0.76132 0.65647 0.0
C783 C 0.09189 0.75931 0.69196 0.0
C784 C 0.08518 0.75978 0.72363 0.0
C785 C 0.07478 0.76226 0.71887 0.0
C786 C 0.07121 0.76424 0.68311 0.0
H787 H 0.09337 0.79858 0.60329 0.0
H788 H 0.08633 0.79051 0.64599 0.0
H789 H 0.09847 0.78774 0.62478 0.0
H790 H 0.09376 0.76099 0.63261 0.0
H791 H 0.09996 0.75744 0.69451 0.0
H792 H 0.275 0.36801 0.44357 0.0
H793 H 0.27516 0.37114 0.51126 0.0
H794 H 0.23518 0.3508 0.51297 0.0
H795 H 0.23506 0.34738 0.44583 0.0
H796 H 0.26271 0.38013 0.56556 0.0
H797 H 0.24804 0.3282 0.57153 0.0
H798 H 0.25399 0.33741 0.52972 0.0
H799 H 0.23806 0.33241 0.54313 0.0
C800 C 0.26625 0.36477 0.45828 0.0
C801 C 0.25501 0.35749 0.43991 0.0
C802 C 0.26635 0.36643 0.49686 0.0
C803 C 0.2552 0.36087 0.51697 0.0
C804 C 0.24389 0.35491 0.49787 0.0
H805 H 0.23253 0.36489 0.73587 0.0
H806 H 0.23635 0.3646 0.66936 0.0
C807 C 0.2438 0.35311 0.45958 0.0
C808 C 0.25532 0.3599 0.55784 0.0
H809 H 0.24604 0.33807 0.62797 0.0
C810 C 0.25921 0.37097 0.57929 0.0
C811 C 0.2511 0.34794 0.57557 0.0
C812 C 0.24769 0.33582 0.55384 0.0
C813 C 0.2582 0.3703 0.61816 0.0
C814 C 0.25296 0.35826 0.63563 0.0
C815 C 0.24985 0.34726 0.61435 0.0
C816 C 0.24974 0.35692 0.67549 0.0
C817 C 0.26254 0.38248 0.6402 0.0
C818 C 0.25538 0.35185 0.7006 0.0
C819 C 0.25306 0.35183 0.7388 0.0
C820 C 0.24511 0.3569 0.75198 0.0
C821 C 0.23882 0.36108 0.72643 0.0
C822 C 0.24107 0.36102 0.6885 0.0
H823 H 0.26957 0.39064 0.62459 0.0
H824 H 0.2545 0.38456 0.64582 0.0
H825 H 0.2666 0.38166 0.66728 0.0
H826 H 0.26195 0.34846 0.69083 0.0
H827 H 0.25804 0.34859 0.75802 0.0
H828 H 0.90382 0.70422 0.72977 0.0
H829 H 0.90468 0.71458 0.79022 0.0
H830 H 0.91101 0.68522 0.84541 0.0
H831 H 0.91018 0.67496 0.78598 0.0
H832 H 0.88838 0.70228 0.85197 0.0
H833 H 0.93776 0.71829 0.89002 0.0
H834 H 0.93223 0.71471 0.84266 0.0
H835 H 0.93058 0.70212 0.87411 0.0
C836 C 0.9056 0.70015 0.75481 0.0
C837 C 0.90691 0.68879 0.75325 0.0
C838 C 0.90606 0.70603 0.78921 0.0
C839 C 0.90807 0.70072 0.82213 0.0
C840 C 0.90968 0.68959 0.82029 0.0
H841 H 0.90467 0.70091 0.05841 0.0
H842 H 0.90563 0.69688 0.99175 0.0
C843 C 0.90911 0.68368 0.78627 0.0
C844 C 0.90753 0.70602 0.85909 0.0
H845 H 0.92356 0.71512 0.9408 0.0
C846 C 0.89613 0.70537 0.87125 0.0
C847 C 0.91766 0.70998 0.88409 0.0
C848 C 0.93028 0.71144 0.87197 0.0
C849 C 0.89438 0.70785 0.90849 0.0
C850 C 0.90433 0.71116 0.9339 0.0
C851 C 0.91589 0.71239 0.9213 0.0
C852 C 0.90292 0.71316 0.9739 0.0
C853 C 0.88175 0.70633 0.92084 0.0
C854 C 0.90099 0.72356 0.98571 0.0
C855 C 0.90044 0.72587 0.02362 0.0
C856 C 0.90185 0.71783 0.05038 0.0
C857 C 0.9035 0.70723 0.03846 0.0
C858 C 0.9041 0.70496 0.00046 0.0
H859 H 0.87449 0.70148 0.89947 0.0
H860 H 0.87897 0.70084 0.94714 0.0
H861 H 0.88215 0.71585 0.92616 0.0
H862 H 0.90022 0.73008 0.96564 0.0
H863 H 0.89918 0.73414 0.03192 0.0
H864 H 0.37717 0.26476 0.08421 0.0
H865 H 0.38747 0.26333 0.02617 0.0
H866 H 0.36772 0.28072 0.9661 0.0
H867 H 0.35727 0.28188 0.0233 0.0
H868 H 0.37062 0.24941 0.95963 0.0
H869 H 0.40568 0.29869 0.93042 0.0
H870 H 0.40072 0.29288 0.97706 0.0
H871 H 0.39104 0.29726 0.94791 0.0
C872 C 0.37532 0.26856 0.05871 0.0
C873 C 0.36645 0.27339 0.05794 0.0
C874 C 0.38115 0.26771 0.02573 0.0
C875 C 0.37837 0.272 0.99212 0.0
C876 C 0.37006 0.27749 0.99191 0.0
H877 H 0.3683 0.26076 0.76443 0.0
H878 H 0.36729 0.26091 0.83253 0.0
C879 C 0.36408 0.27811 0.0245 0.0
C880 C 0.38275 0.26943 0.9562 0.0
H881 H 0.39816 0.28462 0.87801 0.0
C882 C 0.37691 0.25702 0.94202 0.0
C883 C 0.39091 0.27941 0.93348 0.0
C884 C 0.39755 0.29281 0.94799 0.0
C885 C 0.37836 0.2545 0.90463 0.0
C886 C 0.38582 0.26465 0.88125 0.0
C887 C 0.39238 0.27688 0.89613 0.0
C888 C 0.38602 0.26304 0.84063 0.0
C889 C 0.37149 0.24115 0.88988 0.0
C890 C 0.39684 0.26405 0.82298 0.0
C891 C 0.3974 0.26385 0.78421 0.0
C892 C 0.38721 0.26287 0.76256 0.0
C893 C 0.37627 0.26152 0.7804 0.0
C894 C 0.37568 0.26157 0.81921 0.0
H895 H 0.36826 0.23404 0.91267 0.0
H896 H 0.36325 0.24038 0.87391 0.0
H897 H 0.37749 0.23884 0.87071 0.0
H898 H 0.40492 0.26527 0.83919 0.0
H899 H 0.40598 0.26495 0.77123 0.0
H900 H 0.7446 0.09443 0.75368 0.0
H901 H 0.74946 0.08977 0.81681 0.0
H902 H 0.72826 0.10806 0.86355 0.0
H903 H 0.72349 0.11284 0.80112 0.0
H904 H 0.76154 0.11012 0.87577 0.0
H905 H 0.7154 0.07219 0.91629 0.0
H906 H 0.72015 0.07576 0.8683 0.0
H907 H 0.71546 0.08603 0.89434 0.0
C908 C 0.74088 0.09733 0.77744 0.0
C909 C 0.73367 0.10401 0.77242 0.0
C910 C 0.74368 0.09468 0.81342 0.0
C911 C 0.73912 0.09848 0.84478 0.0
C912 C 0.73175 0.10492 0.83974 0.0
H913 H 0.74531 0.09472 0.08598 0.0
H914 H 0.73946 0.09753 0.02225 0.0
C915 C 0.72908 0.10769 0.80398 0.0
C916 C 0.74255 0.09639 0.88296 0.0
H917 H 0.7305 0.08056 0.96398 0.0
C918 C 0.7548 0.10358 0.895 0.0
C919 C 0.73368 0.08801 0.90808 0.0
C920 C 0.72044 0.07996 0.89622 0.0
C921 C 0.75838 0.10278 0.93178 0.0
C922 C 0.74954 0.09428 0.95693 0.0
C923 C 0.73727 0.08708 0.94478 0.0
C924 C 0.75294 0.09252 0.99561 0.0
C925 C 0.77153 0.11132 0.94359 0.0
C926 C 0.76229 0.08857 0.00181 0.0
C927 C 0.76568 0.08705 0.03798 0.0
C928 C 0.75969 0.08929 0.06891 0.0
C929 C 0.75013 0.09298 0.06276 0.0
C930 C 0.74678 0.09457 0.02638 0.0
H931 H 0.77584 0.11977 0.92525 0.0
H932 H 0.77185 0.11463 0.97273 0.0
H933 H 0.77722 0.10599 0.94173 0.0
H934 H 0.76695 0.08659 0.9786 0.0
H935 H 0.77299 0.08406 0.04163 0.0
H936 H 0.95158 0.42455 0.86176 0.0
H937 H 0.95917 0.42424 0.79893 0.0
H938 H 0.99161 0.42213 0.84407 0.0
H939 H 0.98402 0.42235 0.90738 0.0
H940 H 0.98184 0.44113 0.76573 0.0
H941 H 0.97651 0.39152 0.7713 0.0
H942 H 0.96916 0.39769 0.80438 0.0
H943 H 0.98541 0.40171 0.80853 0.0
C944 C 0.96035 0.42405 0.85841 0.0
C945 C 0.96718 0.4234 0.88953 0.0
C946 C 0.96466 0.42387 0.82247 0.0
C947 C 0.97584 0.42297 0.81692 0.0
C948 C 0.98284 0.42261 0.84786 0.0
H949 H 0.01876 0.43695 0.61525 0.0
H950 H 0.01099 0.43682 0.67811 0.0
C951 C 0.97854 0.42282 0.88395 0.0
C952 C 0.98011 0.42246 0.7786 0.0
H953 H 0.98606 0.40344 0.71743 0.0
C954 C 0.98277 0.4329 0.75514 0.0
C955 C 0.9811 0.41162 0.76478 0.0
C956 C 0.9778 0.39993 0.78836 0.0
C957 C 0.98663 0.43288 0.71831 0.0
C958 C 0.98796 0.42218 0.70483 0.0
C959 C 0.98509 0.41165 0.72803 0.0
C960 C 0.99264 0.42193 0.66693 0.0
C961 C 0.98915 0.44424 0.69395 0.0
C962 C 0.98494 0.41338 0.6401 0.0
C963 C 0.98935 0.41342 0.60401 0.0
C964 C 0.00156 0.42194 0.59446 0.0
C965 C 0.00929 0.43029 0.6217 0.0
C966 C 0.00487 0.43028 0.6576 0.0
H967 H 0.98495 0.45028 0.7055 0.0
H968 H 0.99933 0.45012 0.69185 0.0
H969 H 0.98547 0.4412 0.66542 0.0
H970 H 0.97547 0.40683 0.64695 0.0
H971 H 0.9832 0.40688 0.58359 0.0
H972 H 0.53877 0.59934 0.62279 0.0
H973 H 0.54392 0.59357 0.68342 0.0
H974 H 0.57257 0.58579 0.63308 0.0
H975 H 0.56746 0.59158 0.57183 0.0
H976 H 0.54412 0.56978 0.70494 0.0
H977 H 0.59009 0.61169 0.71951 0.0
H978 H 0.57848 0.61131 0.68678 0.0
H979 H 0.58731 0.60259 0.67721 0.0
C980 C 0.54618 0.59641 0.62448 0.0
C981 C 0.55276 0.59598 0.59249 0.0
C982 C 0.54908 0.59309 0.65919 0.0
C983 C 0.55868 0.58936 0.66277 0.0
C984 C 0.56522 0.58878 0.63091 0.0
H985 H 0.57234 0.5563 0.8663 0.0
H986 H 0.56851 0.56011 0.80162 0.0
C987 C 0.56226 0.59205 0.59598 0.0
C988 C 0.56176 0.58617 0.7001 0.0
H989 H 0.58365 0.59701 0.7689 0.0
C990 C 0.5528 0.57565 0.71887 0.0
C991 C 0.57303 0.59396 0.71825 0.0
C992 C 0.58279 0.60559 0.69967 0.0
C993 C 0.55477 0.57277 0.7555 0.0
C994 C 0.56603 0.58056 0.77369 0.0
C995 C 0.57504 0.59103 0.7548 0.0
C996 C 0.56847 0.57827 0.81277 0.0
C997 C 0.54462 0.56163 0.77486 0.0
C998 C 0.56994 0.58731 0.84038 0.0
C999 C 0.57215 0.58518 0.87735 0.0
C1000 C 0.57303 0.57399 0.8873 0.0
C1001 C 0.57166 0.56499 0.85953 0.0
C1002 C 0.56942 0.56712 0.82258 0.0
H1003 H 0.53558 0.55831 0.76006 0.0
H1004 H 0.54721 0.55362 0.77592 0.0
H1005 H 0.5434 0.56415 0.80389 0.0
H1006 H 0.56926 0.59599 0.83334 0.0
H1007 H 0.57319 0.5923 0.8981 0.0
H1008 H 0.42879 0.00707 0.87676 0.0
H1009 H 0.4264 0.99856 0.81355 0.0
H1010 H 0.38796 0.97356 0.83614 0.0
H1011 H 0.3905 0.9816 0.90002 0.0
H1012 H 0.39815 0.96171 0.796 0.0
H1013 H 0.40982 0.00871 0.73249 0.0
H1014 H 0.42214 0.00872 0.76089 0.0
H1015 H 0.40752 0.006 0.78183 0.0
C1016 C 0.41985 0.99972 0.86822 0.0
C1017 C 0.40977 0.99509 0.89296 0.0
C1018 C 0.41848 0.99492 0.83209 0.0
C1019 C 0.40691 0.98569 0.81981 0.0
C1020 C 0.39695 0.98075 0.84496 0.0
H1021 H 0.38317 0.9723 0.59139 0.0
H1022 H 0.38701 0.97846 0.65682 0.0
C1023 C 0.39839 0.98536 0.88136 0.0
C1024 C 0.40506 0.9814 0.78056 0.0
H1025 H 0.40763 0.99206 0.69126 0.0
C1026 C 0.40018 0.96833 0.77305 0.0
C1027 C 0.40756 0.99005 0.75071 0.0
C1028 C 0.41192 0.00413 0.75684 0.0
C1029 C 0.39766 0.96366 0.73652 0.0
C1030 C 0.40054 0.97235 0.70663 0.0
C1031 C 0.40551 0.98542 0.71418 0.0
C1032 C 0.39797 0.96816 0.66735 0.0
C1033 C 0.39156 0.94946 0.73053 0.0
C1034 C 0.40289 0.96037 0.65146 0.0
C1035 C 0.40046 0.95661 0.61426 0.0
C1036 C 0.39337 0.96088 0.59221 0.0
C1037 C 0.38867 0.96888 0.60787 0.0
C1038 C 0.39087 0.97241 0.64519 0.0
H1039 H 0.38669 0.94431 0.75599 0.0
H1040 H 0.38475 0.94673 0.70734 0.0
H1041 H 0.39878 0.94626 0.72358 0.0
H1042 H 0.40872 0.95731 0.66764 0.0
H1043 H 0.40433 0.95058 0.60258 0.0
H1044 H 0.57192 0.05674 0.39486 0.0
H1045 H 0.57118 0.05004 0.3303 0.0
H1046 H 0.57037 0.01458 0.36659 0.0
H1047 H 0.57102 0.02119 0.43176 0.0
H1048 H 0.58836 0.04342 0.29346 0.0
H1049 H 0.54072 0.00391 0.2939 0.0
H1050 H 0.54625 0.01593 0.32981 0.0
H1051 H 0.55073 0.00314 0.3301 0.0
C1052 C 0.57151 0.04747 0.38924 0.0
C1053 C 0.57149 0.03946 0.41844 0.0
C1054 C 0.57111 0.04369 0.35228 0.0
C1055 C 0.57061 0.0318 0.34373 0.0
C1056 C 0.57056 0.02373 0.37272 0.0
H1057 H 0.56949 0.9895 0.15026 0.0
H1058 H 0.57004 0.99841 0.21168 0.0
C1059 C 0.57097 0.02752 0.40987 0.0
C1060 C 0.57041 0.02802 0.30436 0.0
H1061 H 0.55298 0.00588 0.24031 0.0
C1062 C 0.58061 0.03526 0.28167 0.0
C1063 C 0.56022 0.01745 0.28915 0.0
C1064 C 0.5488 0.0097 0.31184 0.0
C1065 C 0.58111 0.0319 0.24439 0.0
C1066 C 0.57103 0.02116 0.22941 0.0
C1067 C 0.5607 0.01412 0.25192 0.0
C1068 C 0.57135 0.01635 0.19149 0.0
C1069 C 0.59258 0.03957 0.22179 0.0
C1070 C 0.57201 0.02356 0.15957 0.0
C1071 C 0.57179 0.01849 0.12402 0.0
C1072 C 0.57074 0.00611 0.12014 0.0
C1073 C 0.57021 0.99904 0.15224 0.0
C1074 C 0.57052 0.00411 0.18745 0.0
H1075 H 0.60046 0.04591 0.23955 0.0
H1076 H 0.59551 0.03324 0.20567 0.0
H1077 H 0.59048 0.04558 0.20175 0.0
H1078 H 0.57246 0.03297 0.16212 0.0
H1079 H 0.57216 0.02411 0.09974 0.0
H1080 H 0.02699 0.60125 0.42898 0.0
H1081 H 0.03648 0.6044 0.36674 0.0
H1082 H 0.00195 0.57636 0.3217 0.0
H1083 H 0.99249 0.57317 0.38313 0.0
H1084 H 0.02423 0.57444 0.29737 0.0
H1085 H 0.02608 0.62261 0.28137 0.0
H1086 H 0.03296 0.6196 0.32254 0.0
H1087 H 0.01646 0.61147 0.31593 0.0
C1088 C 0.02151 0.59566 0.40583 0.0
C1089 C 0.00899 0.58704 0.41078 0.0
C1090 C 0.0269 0.59752 0.37038 0.0
C1091 C 0.01983 0.5907 0.33971 0.0
C1092 C 0.00752 0.58173 0.34503 0.0
H1093 H 0.02378 0.6009 0.10208 0.0
H1094 H 0.01818 0.59826 0.1683 0.0
C1095 C 0.00214 0.57995 0.38015 0.0
C1096 C 0.02491 0.59308 0.30156 0.0
H1097 H 0.03226 0.61426 0.22998 0.0
C1098 C 0.02615 0.58319 0.28269 0.0
C1099 C 0.02716 0.60444 0.28251 0.0
C1100 C 0.02555 0.61515 0.30136 0.0
C1101 C 0.02945 0.58431 0.24498 0.0
C1102 C 0.03166 0.59565 0.22587 0.0
C1103 C 0.03056 0.6056 0.24484 0.0
C1104 C 0.03504 0.59731 0.18604 0.0
C1105 C 0.03018 0.57321 0.22554 0.0
C1106 C 0.04637 0.59773 0.17437 0.0
C1107 C 0.04957 0.59921 0.13678 0.0
C1108 C 0.04149 0.60035 0.11016 0.0
C1109 C 0.03015 0.6 0.12193 0.0
C1110 C 0.02697 0.59853 0.15967 0.0
H1111 H 0.02565 0.56431 0.24189 0.0
H1112 H 0.02575 0.57165 0.19767 0.0
H1113 H 0.04008 0.57528 0.22158 0.0
H1114 H 0.05279 0.59697 0.19439 0.0
H1115 H 0.0584 0.59951 0.12866 0.0
H1116 H 0.40905 0.44147 0.10443 0.0
H1117 H 0.41175 0.43609 0.16886 0.0
H1118 H 0.39664 0.46113 0.20934 0.0
H1119 H 0.39397 0.46658 0.14551 0.0
H1120 H 0.42578 0.45465 0.2286 0.0
H1121 H 0.37574 0.4259 0.26116 0.0
H1122 H 0.38157 0.42881 0.21403 0.0
H1123 H 0.37991 0.44112 0.23984 0.0
C1124 C 0.40632 0.44583 0.12707 0.0
C1125 C 0.40129 0.45444 0.11985 0.0
C1126 C 0.40785 0.44274 0.16379 0.0
C1127 C 0.40422 0.44809 0.19374 0.0
C1128 C 0.39931 0.45676 0.18659 0.0
H1129 H 0.40618 0.43957 0.43603 0.0
H1130 H 0.40184 0.44495 0.37312 0.0
C1131 C 0.39787 0.45991 0.15005 0.0
C1132 C 0.40587 0.44492 0.23261 0.0
H1133 H 0.38997 0.43 0.31079 0.0
C1134 C 0.41797 0.44922 0.24656 0.0
C1135 C 0.39564 0.43803 0.25606 0.0
C1136 C 0.38246 0.4331 0.24212 0.0
C1137 C 0.42013 0.44683 0.28346 0.0
C1138 C 0.4099 0.43963 0.30673 0.0
C1139 C 0.39778 0.43549 0.29292 0.0
C1140 C 0.41172 0.43579 0.34475 0.0
C1141 C 0.43335 0.45222 0.29735 0.0
C1142 C 0.41831 0.42851 0.34953 0.0
C1143 C 0.42083 0.42553 0.3851 0.0
C1144 C 0.41667 0.42958 0.4168 0.0
C1145 C 0.40953 0.43635 0.4121 0.0
C1146 C 0.40707 0.43944 0.37625 0.0
H1147 H 0.43958 0.46055 0.28061 0.0
H1148 H 0.43399 0.45516 0.32697 0.0
H1149 H 0.43681 0.44486 0.29498 0.0
H1150 H 0.42167 0.42528 0.32564 0.0
H1151 H 0.42621 0.42014 0.38771 0.0
H1152 H 0.31335 0.21739 0.16766 0.0
H1153 H 0.31488 0.19728 0.16891 0.0
H1154 H 0.35173 0.21554 0.1225 0.0
H1155 H 0.35035 0.2358 0.12092 0.0
H1156 H 0.33499 0.19085 0.09023 0.0
H1157 H 0.33792 0.19045 0.24435 0.0
H1158 H 0.32526 0.19322 0.2267 0.0
H1159 H 0.34098 0.20468 0.21818 0.0
C1160 C 0.32176 0.21717 0.15738 0.0
C1161 C 0.33177 0.22826 0.14448 0.0
C1162 C 0.32263 0.20567 0.15833 0.0
C1163 C 0.3335 0.20504 0.14643 0.0
C1164 C 0.34331 0.21591 0.13209 0.0
H1165 H 0.34757 0.13736 0.13745 0.0
H1166 H 0.35055 0.15938 0.13293 0.0
C1167 C 0.34249 0.22746 0.13122 0.0
C1168 C 0.33457 0.19299 0.14961 0.0
H1169 H 0.33401 0.17111 0.21306 0.0
C1170 C 0.33494 0.18657 0.11701 0.0
C1171 C 0.33458 0.18755 0.18467 0.0
C1172 C 0.33478 0.19436 0.22053 0.0
C1173 C 0.33466 0.17446 0.11855 0.0
C1174 C 0.33421 0.16882 0.15364 0.0
C1175 C 0.3343 0.17547 0.18623 0.0
C1176 C 0.33275 0.15566 0.1572 0.0
C1177 C 0.33429 0.16758 0.08271 0.0
C1178 C 0.32191 0.1464 0.17327 0.0
C1179 C 0.3202 0.13386 0.1761 0.0
C1180 C 0.32933 0.13034 0.16301 0.0
C1181 C 0.34032 0.13972 0.14763 0.0
C1182 C 0.34202 0.15229 0.14481 0.0
H1183 H 0.33235 0.17224 0.05829 0.0
H1184 H 0.34342 0.16746 0.07828 0.0
H1185 H 0.3271 0.15757 0.08405 0.0
H1186 H 0.31468 0.14886 0.18315 0.0
H1187 H 0.31164 0.12693 0.18826 0.0
H1188 H 0.7833 0.12429 0.14351 0.0
H1189 H 0.79254 0.14745 0.13875 0.0
H1190 H 0.82237 0.15034 0.21127 0.0
H1191 H 0.81335 0.12724 0.21588 0.0
H1192 H 0.7974 0.16525 0.19564 0.0
H1193 H 0.8408 0.17234 0.12296 0.0
H1194 H 0.82756 0.15701 0.12614 0.0
H1195 H 0.83811 0.16313 0.16473 0.0
C1196 C 0.79188 0.12982 0.15823 0.0
C1197 C 0.7976 0.12385 0.17994 0.0
C1198 C 0.79713 0.14307 0.15552 0.0
C1199 C 0.80822 0.1506 0.17425 0.0
C1200 C 0.81394 0.1447 0.19596 0.0
H1201 H 0.8557 0.22948 0.2111 0.0
H1202 H 0.84423 0.20641 0.2129 0.0
C1203 C 0.80873 0.13147 0.19866 0.0
C1204 C 0.81367 0.16464 0.17201 0.0
H1205 H 0.84016 0.1908 0.1489 0.0
C1206 C 0.8067 0.17086 0.1851 0.0
C1207 C 0.82578 0.17191 0.15811 0.0
C1208 C 0.83346 0.16577 0.14184 0.0
C1209 C 0.81172 0.18419 0.1859 0.0
C1210 C 0.82395 0.19143 0.1729 0.0
C1211 C 0.8308 0.18521 0.15909 0.0
C1212 C 0.83003 0.20549 0.17418 0.0
C1213 C 0.80408 0.19043 0.20172 0.0
C1214 C 0.82573 0.21265 0.15219 0.0
C1215 C 0.83227 0.22591 0.15105 0.0
C1216 C 0.84329 0.23221 0.17172 0.0
C1217 C 0.8473 0.22498 0.19465 0.0
C1218 C 0.84077 0.21177 0.19574 0.0
H1219 H 0.79587 0.1836 0.21735 0.0
H1220 H 0.80979 0.19839 0.22052 0.0
H1221 H 0.8007 0.19439 0.17863 0.0
H1222 H 0.81755 0.20795 0.13494 0.0
H1223 H 0.82894 0.23115 0.13297 0.0
H1224 H 0.86774 0.70428 0.12283 0.0
H1225 H 0.84602 0.68877 0.11804 0.0
H1226 H 0.83787 0.70299 0.22018 0.0
H1227 H 0.85956 0.71877 0.22478 0.0
H1228 H 0.83227 0.66952 0.16356 0.0
H1229 H 0.81074 0.70274 0.1537 0.0
H1230 H 0.82724 0.70794 0.1488 0.0
H1231 H 0.8203 0.70559 0.19431 0.0
C1232 C 0.86132 0.70423 0.14415 0.0
C1233 C 0.86543 0.71288 0.17413 0.0
C1234 C 0.84888 0.6953 0.14137 0.0
C1235 C 0.84022 0.69477 0.16844 0.0
C1236 C 0.84428 0.70338 0.19841 0.0
H1237 H 0.76597 0.64744 0.23258 0.0
H1238 H 0.78829 0.66048 0.22701 0.0
C1239 C 0.85672 0.7124 0.20108 0.0
C1240 C 0.82706 0.68497 0.1659 0.0
H1241 H 0.79705 0.68107 0.16721 0.0
C1242 C 0.82458 0.67206 0.16388 0.0
C1243 C 0.81698 0.68825 0.16591 0.0
C1244 C 0.81893 0.70189 0.16539 0.0
C1245 C 0.81231 0.66238 0.16352 0.0
C1246 C 0.80231 0.66569 0.16518 0.0
C1247 C 0.80477 0.67857 0.16609 0.0
C1248 C 0.78921 0.65604 0.16906 0.0
C1249 C 0.81007 0.64866 0.16272 0.0
C1250 C 0.78236 0.64882 0.13854 0.0
C1251 C 0.76948 0.64124 0.14167 0.0
C1252 C 0.76333 0.64093 0.17528 0.0
C1253 C 0.77042 0.64756 0.20623 0.0
C1254 C 0.78318 0.65503 0.20313 0.0
H1255 H 0.81886 0.64763 0.16339 0.0
H1256 H 0.80425 0.64354 0.18685 0.0
H1257 H 0.80488 0.64405 0.13707 0.0
H1258 H 0.78685 0.64954 0.11191 0.0
H1259 H 0.76425 0.63634 0.11729 0.0
H1260 H 0.13335 0.35264 0.33322 0.0
H1261 H 0.15471 0.35498 0.33105 0.0
H1262 H 0.14177 0.31803 0.27993 0.0
H1263 H 0.12051 0.31562 0.28159 0.0
H1264 H 0.16328 0.33868 0.36547 0.0
H1265 H 0.17084 0.34054 0.21307 0.0
H1266 H 0.15852 0.34329 0.23415 0.0
H1267 H 0.15674 0.32734 0.2274 0.0
C1268 C 0.13506 0.34507 0.32115 0.0
C1269 C 0.1252 0.33394 0.30762 0.0
C1270 C 0.14726 0.34643 0.31995 0.0
C1271 C 0.14981 0.33676 0.30483 0.0
C1272 C 0.14003 0.32571 0.291 0.0
H1273 H 0.20832 0.31383 0.2902 0.0
H1274 H 0.18929 0.31667 0.28637 0.0
C1275 C 0.12785 0.32432 0.29227 0.0
C1276 C 0.16254 0.33773 0.30565 0.0
H1277 H 0.18492 0.33591 0.25049 0.0
C1278 C 0.16812 0.33827 0.34036 0.0
C1279 C 0.16878 0.33717 0.27279 0.0
C1280 C 0.16347 0.33718 0.23472 0.0
C1281 C 0.17955 0.33768 0.34319 0.0
C1282 C 0.1856 0.33672 0.31035 0.0
C1283 C 0.1802 0.33657 0.27559 0.0
C1284 C 0.1973 0.33534 0.31159 0.0
C1285 C 0.18478 0.33753 0.38131 0.0
C1286 C 0.20814 0.34501 0.32648 0.0
C1287 C 0.21902 0.34342 0.32886 0.0
C1288 C 0.21928 0.33214 0.31613 0.0
C1289 C 0.20845 0.32261 0.30039 0.0
C1290 C 0.19757 0.32421 0.29811 0.0
H1291 H 0.17771 0.33552 0.40353 0.0
H1292 H 0.18843 0.3303 0.38276 0.0
H1293 H 0.19257 0.34696 0.38708 0.0
H1294 H 0.20816 0.35377 0.3364 0.0
H1295 H 0.22719 0.35101 0.34092 0.0
H1296 H 0.62197 0.80295 0.39051 0.0
H1297 H 0.64034 0.82347 0.38948 0.0
H1298 H 0.65394 0.81169 0.29269 0.0
H1299 H 0.63579 0.79111 0.29388 0.0
H1300 H 0.67194 0.82241 0.34555 0.0
H1301 H 0.64818 0.85312 0.31962 0.0
H1302 H 0.64252 0.84312 0.35974 0.0
H1303 H 0.64043 0.83609 0.3142 0.0
C1304 C 0.62879 0.80476 0.36876 0.0
C1305 C 0.62736 0.79536 0.34225 0.0
C1306 C 0.63928 0.81653 0.36814 0.0
C1307 C 0.64845 0.81918 0.34074 0.0
C1308 C 0.64699 0.80986 0.31408 0.0
H1309 H 0.7172 0.88404 0.27989 0.0
H1310 H 0.70032 0.86263 0.28665 0.0
C1311 C 0.63657 0.79809 0.31479 0.0
C1312 C 0.65977 0.8315 0.34028 0.0
H1313 H 0.66967 0.86356 0.33361 0.0
C1314 C 0.67146 0.83142 0.34283 0.0
C1315 C 0.65912 0.84324 0.3367 0.0
C1316 C 0.6469 0.84395 0.33205 0.0
C1317 C 0.6825 0.84276 0.34239 0.0
C1318 C 0.68183 0.85447 0.3389 0.0
C1319 C 0.67015 0.85456 0.33645 0.0
C1320 C 0.69308 0.86681 0.33741 0.0
C1321 C 0.69477 0.84213 0.34628 0.0
C1322 C 0.69474 0.87621 0.36397 0.0
C1323 C 0.70433 0.88842 0.36016 0.0
C1324 C 0.71246 0.89156 0.32951 0.0
C1325 C 0.71119 0.88194 0.30396 0.0
C1326 C 0.70154 0.86968 0.3078 0.0
H1327 H 0.6936 0.83288 0.35789 0.0
H1328 H 0.69914 0.84327 0.31844 0.0
H1329 H 0.70121 0.84989 0.36448 0.0
H1330 H 0.68833 0.87419 0.38706 0.0
H1331 H 0.70506 0.89556 0.3805 0.0
H1332 H 0.19301 0.88548 0.26711 0.0
H1333 H 0.17145 0.86975 0.27407 0.0
H1334 H 0.18112 0.85558 0.37361 0.0
H1335 H 0.20292 0.87134 0.36662 0.0
H1336 H 0.16077 0.83998 0.28857 0.0
H1337 H 0.1535 0.87033 0.39663 0.0
H1338 H 0.16556 0.87708 0.36203 0.0
H1339 H 0.16712 0.86743 0.39842 0.0
C1340 C 0.19062 0.87888 0.29016 0.0
C1341 C 0.19966 0.87969 0.31644 0.0
C1342 C 0.1783 0.86989 0.29403 0.0
C1343 C 0.17471 0.8616 0.32446 0.0
C1344 C 0.18375 0.86194 0.34994 0.0
H1345 H 0.09706 0.80456 0.35097 0.0
H1346 H 0.11972 0.81535 0.35592 0.0
C1347 C 0.19619 0.87088 0.34582 0.0
C1348 C 0.16132 0.85335 0.33045 0.0
H1349 H 0.13578 0.85286 0.37432 0.0
C1350 C 0.1553 0.84261 0.30781 0.0
C1351 C 0.15425 0.85698 0.35519 0.0
C1352 C 0.16034 0.86859 0.37954 0.0
C1353 C 0.14231 0.83554 0.30867 0.0
C1354 C 0.1352 0.83936 0.33277 0.0
C1355 C 0.14127 0.84994 0.35601 0.0
C1356 C 0.12142 0.83302 0.33225 0.0
C1357 C 0.13622 0.82439 0.28263 0.0
C1358 C 0.11484 0.83949 0.31828 0.0
C1359 C 0.10188 0.83337 0.31535 0.0
C1360 C 0.09521 0.82065 0.32662 0.0
C1361 C 0.10184 0.81434 0.34191 0.0
C1362 C 0.11482 0.82047 0.34462 0.0
H1363 H 0.14285 0.82384 0.26188 0.0
H1364 H 0.13239 0.81546 0.29899 0.0
H1365 H 0.12837 0.82498 0.26762 0.0
H1366 H 0.11977 0.84921 0.30872 0.0
H1367 H 0.09712 0.83855 0.30357 0.0
H1368 H 0.67281 0.88579 0.81071 0.0
H1369 H 0.67499 0.86604 0.80357 0.0
H1370 H 0.63513 0.84476 0.79974 0.0
H1371 H 0.63283 0.86436 0.8071 0.0
H1372 H 0.6636 0.84539 0.85747 0.0
H1373 H 0.64852 0.83041 0.71217 0.0
H1374 H 0.65433 0.84672 0.72759 0.0
H1375 H 0.63862 0.83556 0.73774 0.0
C1376 C 0.66451 0.87694 0.80764 0.0
C1377 C 0.65263 0.87662 0.80972 0.0
C1378 C 0.66579 0.86569 0.80359 0.0
C1379 C 0.65522 0.85402 0.80083 0.0
C1380 C 0.64339 0.85373 0.80131 0.0
H1381 H 0.63164 0.77777 0.85974 0.0
H1382 H 0.63687 0.80031 0.85252 0.0
C1383 C 0.6421 0.86492 0.80578 0.0
C1384 C 0.65637 0.84199 0.80156 0.0
H1385 H 0.64803 0.81422 0.75397 0.0
C1386 C 0.66044 0.83866 0.83461 0.0
C1387 C 0.6523 0.83331 0.77159 0.0
C1388 C 0.64829 0.83669 0.73509 0.0
C1389 C 0.65982 0.82651 0.83927 0.0
C1390 C 0.65499 0.81756 0.81016 0.0
C1391 C 0.65164 0.82114 0.77629 0.0
C1392 C 0.65236 0.80416 0.81555 0.0
C1393 C 0.66391 0.82314 0.87565 0.0
C1394 C 0.65935 0.79896 0.79699 0.0
C1395 C 0.65645 0.7861 0.80121 0.0
C1396 C 0.64637 0.77824 0.82359 0.0
C1397 C 0.63941 0.78355 0.84219 0.0
C1398 C 0.64242 0.79642 0.83826 0.0
H1399 H 0.66981 0.83174 0.89202 0.0
H1400 H 0.65559 0.8173 0.89249 0.0
H1401 H 0.66915 0.81745 0.87074 0.0
H1402 H 0.66702 0.80484 0.7792 0.0
H1403 H 0.66195 0.78228 0.78639 0.0
H1404 H 0.15806 0.90116 0.79701 0.0
H1405 H 0.14592 0.87809 0.79981 0.0
H1406 H 0.17502 0.87506 0.86366 0.0
H1407 H 0.18713 0.89805 0.8616 0.0
H1408 H 0.15321 0.86035 0.77153 0.0
H1409 H 0.14407 0.85303 0.92283 0.0
H1410 H 0.14923 0.86841 0.90115 0.0
H1411 H 0.16021 0.86223 0.91221 0.0
C1412 C 0.16181 0.89562 0.81215 0.0
C1413 C 0.1736 0.9015 0.82905 0.0
C1414 C 0.15486 0.88243 0.81364 0.0
C1415 C 0.15951 0.87489 0.83229 0.0
C1416 C 0.17114 0.88073 0.84977 0.0
H1417 H 0.14223 0.79605 0.85786 0.0
H1418 H 0.15143 0.81921 0.85582 0.0
C1419 C 0.17809 0.89389 0.84833 0.0
C1420 C 0.15265 0.86086 0.83138 0.0
H1421 H 0.14083 0.83461 0.88693 0.0
C1422 C 0.15035 0.8547 0.79671 0.0
C1423 C 0.14896 0.85355 0.8643 0.0
C1424 C 0.15063 0.85964 0.90221 0.0
C1425 C 0.14488 0.8414 0.79413 0.0
C1426 C 0.14148 0.8341 0.82709 0.0
C1427 C 0.14353 0.84025 0.86172 0.0
C1428 C 0.13605 0.82006 0.82642 0.0
C1429 C 0.14315 0.83526 0.75628 0.0
C1430 C 0.12436 0.81288 0.81034 0.0
C1431 C 0.11906 0.79961 0.81135 0.0
C1432 C 0.12533 0.79328 0.82866 0.0
C1433 C 0.13713 0.80056 0.84422 0.0
C1434 C 0.14241 0.81381 0.84321 0.0
H1435 H 0.14867 0.84216 0.73455 0.0
H1436 H 0.14587 0.82732 0.75674 0.0
H1437 H 0.13321 0.8313 0.74831 0.0
H1438 H 0.11923 0.81753 0.79772 0.0
H1439 H 0.10994 0.79433 0.79921 0.0
H1440 H 0.10408 0.28652 0.79297 0.0
H1441 H 0.12614 0.291 0.79008 0.0
H1442 H 0.1299 0.30003 0.90721 0.0
H1443 H 0.10805 0.29557 0.91005 0.0
H1444 H 0.14299 0.31511 0.80375 0.0
H1445 H 0.15318 0.28359 0.89735 0.0
H1446 H 0.13771 0.27951 0.88005 0.0
H1447 H 0.14352 0.28956 0.9204 0.0
C1448 C 0.1095 0.28883 0.81838 0.0
C1449 C 0.10441 0.29068 0.85176 0.0
C1450 C 0.12211 0.29148 0.81669 0.0
C1451 C 0.1297 0.2958 0.84848 0.0
C1452 C 0.12425 0.29646 0.88249 0.0
H1453 H 0.19765 0.35736 0.89502 0.0
H1454 H 0.17647 0.34121 0.88379 0.0
C1455 C 0.11175 0.29395 0.88408 0.0
C1456 C 0.14347 0.30205 0.84528 0.0
H1457 H 0.16979 0.30521 0.89053 0.0
C1458 C 0.14887 0.31271 0.82199 0.0
C1459 C 0.15121 0.29895 0.8689 0.0
C1460 C 0.14609 0.28719 0.89277 0.0
C1461 C 0.16161 0.32088 0.82387 0.0
C1462 C 0.16911 0.31839 0.84989 0.0
C1463 C 0.16395 0.30721 0.87107 0.0
C1464 C 0.18203 0.32787 0.85747 0.0
C1465 C 0.16688 0.33242 0.7991 0.0
C1466 C 0.19216 0.32561 0.84688 0.0
C1467 C 0.20432 0.33488 0.85305 0.0
C1468 C 0.20655 0.34651 0.87036 0.0
C1469 C 0.19632 0.34856 0.88162 0.0
C1470 C 0.1842 0.33935 0.87515 0.0
H1471 H 0.16073 0.33143 0.77491 0.0
H1472 H 0.16787 0.34089 0.81535 0.0
H1473 H 0.17622 0.33413 0.78873 0.0
H1474 H 0.19066 0.31678 0.83332 0.0
H1475 H 0.21197 0.33293 0.84415 0.0
H1476 H 0.76047 0.6221 0.66459 0.0
H1477 H 0.78239 0.62711 0.67186 0.0
H1478 H 0.79083 0.66616 0.69567 0.0
H1479 H 0.7689 0.66132 0.68817 0.0
H1480 H 0.80619 0.66296 0.64157 0.0
H1481 H 0.80313 0.63466 0.76783 0.0
H1482 H 0.79227 0.6257 0.7323 0.0
H1483 H 0.79091 0.6389 0.75401 0.0
C1484 C 0.76695 0.63174 0.67162 0.0
C1485 C 0.76291 0.6413 0.67589 0.0
C1486 C 0.77946 0.63456 0.67603 0.0
C1487 C 0.78815 0.64694 0.68494 0.0
C1488 C 0.78421 0.65652 0.68914 0.0
H1489 H 0.86936 0.67425 0.68574 0.0
H1490 H 0.84893 0.67375 0.69599 0.0
C1491 C 0.77168 0.65372 0.68483 0.0
C1492 C 0.80145 0.64995 0.68764 0.0
H1493 H 0.82159 0.64082 0.73096 0.0
C1494 C 0.80965 0.65833 0.66152 0.0
C1495 C 0.80588 0.64391 0.71387 0.0
C1496 C 0.79761 0.63539 0.74384 0.0
C1497 C 0.82204 0.66022 0.65945 0.0
C1498 C 0.82629 0.65367 0.6845 0.0
C1499 C 0.81824 0.64577 0.71173 0.0
C1500 C 0.83868 0.65398 0.68063 0.0
C1501 C 0.8303 0.66866 0.62931 0.0
C1502 C 0.8396 0.64294 0.66953 0.0
C1503 C 0.8512 0.64316 0.66369 0.0
C1504 C 0.86212 0.65444 0.66901 0.0
C1505 C 0.86115 0.66542 0.68118 0.0
C1506 C 0.8495 0.66518 0.68695 0.0
H1507 H 0.82504 0.67149 0.60877 0.0
H1508 H 0.83751 0.67742 0.64209 0.0
H1509 H 0.83511 0.66378 0.61436 0.0
H1510 H 0.83131 0.6342 0.66462 0.0
H1511 H 0.85158 0.63451 0.65453 0.0
H1512 H 0.35721 0.235 0.65345 0.0
H1513 H 0.33922 0.21439 0.657 0.0
H1514 H 0.36339 0.19617 0.67242 0.0
H1515 H 0.38158 0.21692 0.66938 0.0
H1516 H 0.33349 0.19399 0.61049 0.0
H1517 H 0.33797 0.1811 0.75639 0.0
H1518 H 0.34637 0.19705 0.73871 0.0
H1519 H 0.35173 0.1852 0.72893 0.0
C1520 C 0.35875 0.22664 0.65778 0.0
C1521 C 0.37085 0.22759 0.66105 0.0
C1522 C 0.34843 0.21486 0.65983 0.0
C1523 C 0.34995 0.20377 0.66536 0.0
C1524 C 0.362 0.20465 0.66882 0.0
H1525 H 0.30075 0.12667 0.61472 0.0
H1526 H 0.31623 0.14874 0.61531 0.0
C1527 C 0.37238 0.21649 0.66684 0.0
C1528 C 0.3389 0.19128 0.66573 0.0
H1529 H 0.32324 0.16476 0.71833 0.0
C1530 C 0.3312 0.18763 0.63416 0.0
C1531 C 0.3358 0.1831 0.69689 0.0
C1532 C 0.34332 0.18683 0.73232 0.0
C1533 C 0.32072 0.17585 0.63244 0.0
C1534 C 0.31798 0.16742 0.66288 0.0
C1535 C 0.32542 0.17122 0.69495 0.0
C1536 C 0.30792 0.1543 0.66107 0.0
C1537 C 0.31268 0.17251 0.59805 0.0
C1538 C 0.29808 0.15008 0.68669 0.0
C1539 C 0.28915 0.13739 0.68648 0.0
C1540 C 0.29004 0.12869 0.66096 0.0
C1541 C 0.29977 0.13308 0.63482 0.0
C1542 C 0.30861 0.14573 0.63494 0.0
H1543 H 0.31381 0.18116 0.58252 0.0
H1544 H 0.31543 0.16664 0.57929 0.0
H1545 H 0.30272 0.16697 0.60522 0.0
H1546 H 0.29744 0.15656 0.70719 0.0
H1547 H 0.28183 0.1343 0.70711 0.0
H1548 H 0.76691 0.12943 0.68889 0.0
H1549 H 0.78958 0.14031 0.69202 0.0
H1550 H 0.78894 0.17464 0.65129 0.0
H1551 H 0.76624 0.16385 0.64773 0.0
H1552 H 0.80578 0.15288 0.62737 0.0
H1553 H 0.8117 0.18503 0.7474 0.0
H1554 H 0.79763 0.17065 0.73965 0.0
H1555 H 0.8007 0.1846 0.71263 0.0
C1556 C 0.77154 0.13934 0.68096 0.0
C1557 C 0.7647 0.14576 0.66803 0.0
C1558 C 0.78451 0.14552 0.68269 0.0
C1559 C 0.7909 0.15828 0.67211 0.0
C1560 C 0.78415 0.16481 0.65994 0.0
H1561 H 0.86223 0.20904 0.59878 0.0
H1562 H 0.84096 0.1926 0.60557 0.0
C1563 C 0.77117 0.15861 0.65784 0.0
C1564 C 0.80466 0.16464 0.67202 0.0
H1565 H 0.82963 0.18936 0.71057 0.0
C1566 C 0.81103 0.16076 0.64585 0.0
C1567 C 0.81146 0.17479 0.69645 0.0
C1568 C 0.80507 0.179 0.72588 0.0
C1569 C 0.824 0.1672 0.64228 0.0
C1570 C 0.83074 0.17776 0.66546 0.0
C1571 C 0.82443 0.18124 0.69283 0.0
C1572 C 0.84408 0.18616 0.65924 0.0
C1573 C 0.83041 0.16285 0.61327 0.0
C1574 C 0.85297 0.18782 0.68688 0.0
C1575 C 0.86523 0.19715 0.68285 0.0
C1576 C 0.86866 0.20512 0.65151 0.0
C1577 C 0.85985 0.20303 0.62322 0.0
C1578 C 0.84771 0.19362 0.627 0.0
H1579 H 0.82458 0.15286 0.60465 0.0
H1580 H 0.83224 0.16897 0.58829 0.0
H1581 H 0.83946 0.16366 0.62378 0.0
H1582 H 0.85031 0.1822 0.71209 0.0
H1583 H 0.87178 0.19865 0.70525 0.0
H1584 H 0.97835 0.44731 0.53942 0.0
H1585 H 0.97817 0.46802 0.54146 0.0
H1586 H 0.01417 0.48501 0.48912 0.0
H1587 H 0.01444 0.4642 0.48646 0.0
H1588 H 0.99545 0.49068 0.57589 0.0
H1589 H 0.99226 0.49594 0.42281 0.0
H1590 H 0.98914 0.4809 0.4442 0.0
H1591 H 0.00486 0.49277 0.43888 0.0
C1592 C 0.98626 0.45541 0.52823 0.0
C1593 C 0.99638 0.45405 0.51249 0.0
C1594 C 0.98613 0.46725 0.52954 0.0
C1595 C 0.99608 0.47798 0.51506 0.0
C1596 C 0.00632 0.47677 0.4999 0.0
H1597 H 0.00286 0.55494 0.49404 0.0
H1598 H 0.00693 0.53625 0.49318 0.0
C1599 C 0.00647 0.46489 0.49857 0.0
C1600 C 0.99557 0.49036 0.51599 0.0
H1601 H 0.99266 0.51257 0.46061 0.0
C1602 C 0.99491 0.49552 0.55072 0.0
C1603 C 0.9949 0.49662 0.48305 0.0
C1604 C 0.99523 0.49128 0.44505 0.0
C1605 C 0.99344 0.50674 0.55343 0.0
C1606 C 0.9924 0.5128 0.5205 0.0
C1607 C 0.99341 0.50784 0.48577 0.0
C1608 C 0.98993 0.52411 0.52148 0.0
C1609 C 0.99306 0.51203 0.59147 0.0
C1610 C 0.97891 0.52338 0.53722 0.0
C1611 C 0.97652 0.53405 0.53782 0.0
C1612 C 0.98509 0.54561 0.52247 0.0
C1613 C 0.99606 0.54622 0.50627 0.0
C1614 C 0.99842 0.53555 0.5057 0.0
H1615 H 0.99736 0.50838 0.61292 0.0
H1616 H 0.99793 0.52258 0.5915 0.0
H1617 H 0.98324 0.50914 0.5995 0.0
H1618 H 0.97211 0.51454 0.54883 0.0
H1619 H 0.96797 0.53321 0.55034 0.0
H1620 H 0.44217 0.46364 0.48726 0.0
H1621 H 0.45299 0.48656 0.47687 0.0
H1622 H 0.48514 0.48789 0.53448 0.0
H1623 H 0.47451 0.46501 0.54477 0.0
H1624 H 0.46284 0.50602 0.53079 0.0
H1625 H 0.49945 0.50613 0.43596 0.0
H1626 H 0.4855 0.49192 0.44612 0.0
H1627 H 0.49822 0.49769 0.47861 0.0
C1628 C 0.45157 0.46877 0.49757 0.0
C1629 C 0.45748 0.46244 0.51675 0.0
C1630 C 0.45772 0.48187 0.49162 0.0
C1631 C 0.46991 0.48886 0.50445 0.0
C1632 C 0.47582 0.48261 0.52371 0.0
H1633 H 0.52482 0.56603 0.51756 0.0
H1634 H 0.51199 0.5432 0.52221 0.0
C1635 C 0.46969 0.46952 0.52971 0.0
C1636 C 0.47638 0.50276 0.49873 0.0
H1637 H 0.50253 0.52615 0.46119 0.0
C1638 C 0.47145 0.51045 0.51526 0.0
C1639 C 0.48757 0.50845 0.47833 0.0
C1640 C 0.49295 0.50063 0.45842 0.0
C1641 C 0.47771 0.52375 0.51315 0.0
C1642 C 0.48908 0.52944 0.4936 0.0
C1643 C 0.49384 0.52173 0.47633 0.0
C1644 C 0.49647 0.54338 0.49182 0.0
C1645 C 0.47236 0.53162 0.53291 0.0
C1646 C 0.49196 0.55104 0.47318 0.0
C1647 C 0.49928 0.56415 0.47043 0.0
C1648 C 0.51127 0.5698 0.48612 0.0
C1649 C 0.51566 0.56204 0.50507 0.0
C1650 C 0.50835 0.54897 0.50777 0.0
H1651 H 0.46493 0.52588 0.55282 0.0
H1652 H 0.47973 0.53961 0.54825 0.0
H1653 H 0.4683 0.53572 0.51208 0.0
H1654 H 0.48288 0.54685 0.46021 0.0
H1655 H 0.49561 0.5698 0.45553 0.0
H1656 H 0.52784 0.05121 0.56037 0.0
H1657 H 0.50578 0.03675 0.55181 0.0
H1658 H 0.51574 0.01136 0.48806 0.0
H1659 H 0.53769 0.02563 0.49628 0.0
H1660 H 0.4921 0.02714 0.48181 0.0
H1661 H 0.49258 0.98887 0.57248 0.0
H1662 H 0.50455 0.00501 0.57454 0.0
H1663 H 0.50436 0.99477 0.53708 0.0
C1664 C 0.52536 0.04258 0.54444 0.0
C1665 C 0.53461 0.03961 0.52922 0.0
C1666 C 0.51274 0.03433 0.53956 0.0
C1667 C 0.50913 0.02291 0.5197 0.0
C1668 C 0.51831 0.02002 0.50394 0.0
H1669 H 0.43193 0.974 0.44968 0.0
H1670 H 0.45485 0.98452 0.44959 0.0
C1671 C 0.53089 0.02826 0.50861 0.0
C1672 C 0.49578 0.01398 0.51545 0.0
H1673 H 0.47378 0.98467 0.5415 0.0
C1674 C 0.4881 0.01782 0.49463 0.0
C1675 C 0.4906 0.00183 0.53226 0.0
C1676 C 0.49839 0.99734 0.5556 0.0
C1677 C 0.47534 0.00988 0.49047 0.0
C1678 C 0.47014 0.99777 0.50747 0.0
C1679 C 0.47784 0.99388 0.52804 0.0
C1680 C 0.4565 0.98973 0.50786 0.0
C1681 C 0.46739 0.01466 0.46902 0.0
C1682 C 0.44992 0.98873 0.54087 0.0
C1683 C 0.43696 0.98283 0.5409 0.0
C1684 C 0.43029 0.97763 0.50802 0.0
C1685 C 0.43686 0.97782 0.47545 0.0
C1686 C 0.44991 0.98392 0.47532 0.0
H1687 H 0.47258 0.02482 0.46121 0.0
H1688 H 0.46399 0.00898 0.44318 0.0
H1689 H 0.45915 0.01348 0.48573 0.0
H1690 H 0.45481 0.9931 0.56628 0.0
H1691 H 0.43212 0.9828 0.56641 0.0
H1692 H 0.44891 0.00845 0.01668 0.0
H1693 H 0.46883 0.00735 0.02192 0.0
H1694 H 0.45257 0.97006 0.9721 0.0
H1695 H 0.43272 0.97104 0.96649 0.0
H1696 H 0.47365 0.98824 0.06012 0.0
H1697 H 0.48403 0.9904 0.90909 0.0
H1698 H 0.47276 0.99518 0.92819 0.0
H1699 H 0.46879 0.97863 0.92143 0.0
C1700 C 0.44958 3e-05 0.0067 0.0
C1701 C 0.43921 0.98985 0.99108 0.0
C1702 C 0.46096 0.99943 0.00978 0.0
C1703 C 0.46217 0.9887 0.99695 0.0
C1704 C 0.45185 0.97851 0.98159 0.0
H1705 H 0.51785 0.96112 0.98433 0.0
H1706 H 0.49887 0.96408 0.98384 0.0
C1707 C 0.44049 0.97907 0.97862 0.0
C1708 C 0.47412 0.98792 0.00026 0.0
H1709 H 0.49632 0.98426 0.949 0.0
C1710 C 0.4787 0.98749 0.0359 0.0
C1711 C 0.48063 0.98695 0.96853 0.0
C1712 C 0.47638 0.98793 0.92962 0.0
C1713 C 0.48944 0.98565 0.04066 0.0
C1714 C 0.4958 0.9844 0.0089 0.0
C1715 C 0.49134 0.98511 0.97328 0.0
C1716 C 0.50708 0.98229 0.01179 0.0
C1717 C 0.49368 0.98466 0.07956 0.0
C1718 C 0.51794 0.99154 0.02789 0.0
C1719 C 0.5288 0.98987 0.02836 0.0
C1720 C 0.52902 0.97896 0.01242 0.0
C1721 C 0.51803 0.96962 0.99689 0.0
C1722 C 0.50717 0.9713 0.9965 0.0
H1723 H 0.4862 0.98273 0.10037 0.0
H1724 H 0.49679 0.97701 0.08129 0.0
H1725 H 0.50165 0.99377 0.08714 0.0
H1726 H 0.51811 0.00019 0.03922 0.0
H1727 H 0.53709 0.99729 0.04044 0.0
H1728 H 0.04591 0.55931 0.93795 0.0
H1729 H 0.03045 0.53701 0.94011 0.0
H1730 H 0.01259 0.5454 0.03334 0.0
H1731 H 0.02784 0.56756 0.03149 0.0
H1732 H 0.02388 0.51914 0.00041 0.0
H1733 H 0.98425 0.52872 0.95697 0.0
H1734 H 0.00024 0.54015 0.95095 0.0
H1735 H 0.99297 0.53805 0.9958 0.0
C1736 C 0.03875 0.5564 0.95908 0.0
C1737 C 0.03809 0.56529 0.98432 0.0
C1738 C 0.0299 0.54366 0.96019 0.0
C1739 C 0.02023 0.53963 0.98638 0.0
C1740 C 0.01981 0.54837 0.01235 0.0
H1741 H 0.95728 0.46827 0.04262 0.0
H1742 H 0.97248 0.4906 0.03758 0.0
C1743 C 0.02861 0.56105 0.01133 0.0
C1744 C 0.01058 0.52628 0.98694 0.0
H1745 H 0.97934 0.50786 0.97822 0.0
C1746 C 0.01416 0.51664 0.99529 0.0
C1747 C 0.99789 0.52309 0.98052 0.0
C1748 C 0.99358 0.53302 0.97024 0.0
C1749 C 0.00534 0.50391 0.99815 0.0
C1750 C 0.99264 0.5007 0.99166 0.0
C1751 C 0.98907 0.51034 0.98322 0.0
C1752 C 0.98296 0.48735 0.99316 0.0
C1753 C 0.00968 0.49405 0.00907 0.0
C1754 C 0.98358 0.47822 0.96903 0.0
C1755 C 0.97497 0.4655 0.97189 0.0
C1756 C 0.96545 0.46163 0.99873 0.0
C1757 C 0.9645 0.47091 0.02172 0.0
C1758 C 0.97319 0.48366 0.01893 0.0
H1759 H 0.01892 0.49841 0.02284 0.0
H1760 H 0.00295 0.48689 0.02816 0.0
H1761 H 0.01051 0.48905 0.98373 0.0
H1762 H 0.99083 0.4809 0.94825 0.0
H1763 H 0.97591 0.45866 0.95333 0.0
H1764 H 0.43323 0.48117 0.04107 0.0
H1765 H 0.45588 0.49263 0.04141 0.0
H1766 H 0.45417 0.51883 0.95997 0.0
H1767 H 0.43151 0.50757 0.95977 0.0
H1768 H 0.47228 0.49654 0.98369 0.0
H1769 H 0.47686 0.54264 0.03851 0.0
H1770 H 0.46246 0.52833 0.04069 0.0
H1771 H 0.46696 0.53743 0.99839 0.0
C1772 C 0.43763 0.48945 0.02346 0.0
C1773 C 0.43048 0.49347 0.0005 0.0
C1774 C 0.45061 0.49597 0.02365 0.0
C1775 C 0.45674 0.50668 0.00108 0.0
C1776 C 0.44965 0.51075 0.97823 0.0
H1777 H 0.52932 0.55775 0.93226 0.0
H1778 H 0.50739 0.54363 0.94045 0.0
C1779 C 0.43667 0.50426 0.97807 0.0
C1780 C 0.47054 0.51338 0.00047 0.0
H1781 H 0.49498 0.54265 0.01049 0.0
C1782 C 0.47727 0.50659 0.99 0.0
C1783 C 0.47706 0.52646 0.00902 0.0
C1784 C 0.47048 0.53412 0.02266 0.0
C1785 C 0.49028 0.51269 0.98616 0.0
C1786 C 0.4967 0.52586 0.99323 0.0
C1787 C 0.49002 0.53254 0.00488 0.0
C1788 C 0.51022 0.5332 0.98617 0.0
C1789 C 0.49705 0.50515 0.97314 0.0
C1790 C 0.51917 0.53181 0.0086 0.0
C1791 C 0.53186 0.53993 0.00396 0.0
C1792 C 0.53571 0.54962 0.97703 0.0
C1793 C 0.5267 0.55051 0.95358 0.0
C1794 C 0.51413 0.54243 0.95817 0.0
H1795 H 0.49056 0.49539 0.96418 0.0
H1796 H 0.50331 0.51006 0.9496 0.0
H1797 H 0.50288 0.50441 0.99616 0.0
H1798 H 0.51633 0.5248 0.03062 0.0
H1799 H 0.53855 0.53904 0.02258 0.0
H1800 H 0.39583 0.03365 0.9816 0.0
H1801 H 0.39318 0.05205 0.00216 0.0
H1802 H 0.42781 0.06575 0.06249 0.0
H1803 H 0.43039 0.04695 0.04251 0.0
H1804 H 0.40986 0.06532 0.10567 0.0
H1805 H 0.40726 0.08877 0.97608 0.0
H1806 H 0.39712 0.07219 0.97178 0.0
H1807 H 0.41361 0.07732 0.97736 0.0
C1808 C 0.40302 0.04066 0.9987 0.0
C1809 C 0.4133 0.03882 0.0106 0.0
C1810 C 0.40157 0.0513 0.01005 0.0
C1811 C 0.41044 0.06047 0.03316 0.0
C1812 C 0.42094 0.05888 0.04423 0.0
H1813 H 0.37685 0.11108 0.09862 0.0
H1814 H 0.39391 0.10628 0.0779 0.0
C1815 C 0.42239 0.04814 0.03288 0.0
C1816 C 0.40758 0.07051 0.04959 0.0
H1817 H 0.39332 0.08919 0.02677 0.0
C1818 C 0.40663 0.07088 0.08845 0.0
C1819 C 0.40368 0.07808 0.0274 0.0
C1820 C 0.40563 0.07917 0.98586 0.0
C1821 C 0.40053 0.07739 0.10528 0.0
C1822 C 0.395 0.08337 0.08258 0.0
C1823 C 0.39728 0.08431 0.04415 0.0
C1824 C 0.38531 0.08682 0.0972 0.0
C1825 C 0.3995 0.07721 0.14713 0.0
C1826 C 0.37477 0.07742 0.11424 0.0
C1827 C 0.36508 0.0801 0.12598 0.0
C1828 C 0.36565 0.09222 0.12052 0.0
C1829 C 0.37618 0.10166 0.10325 0.0
C1830 C 0.38593 0.09896 0.09153 0.0
H1831 H 0.40784 0.07705 0.16026 0.0
H1832 H 0.3984 0.08558 0.15773 0.0
H1833 H 0.39132 0.06845 0.15584 0.0
H1834 H 0.37388 0.06787 0.11774 0.0
H1835 H 0.35708 0.0726 0.13893 0.0
H1836 H 0.8623 0.29612 0.15027 0.0
H1837 H 0.86628 0.31704 0.12501 0.0
H1838 H 0.90571 0.32912 0.13681 0.0
H1839 H 0.90181 0.30851 0.16286 0.0
H1840 H 0.89883 0.34749 0.15907 0.0
H1841 H 0.87873 0.3282 0.02011 0.0
H1842 H 0.86858 0.32219 0.05946 0.0
H1843 H 0.88168 0.31866 0.05452 0.0
C1844 C 0.8718 0.30329 0.14761 0.0
C1845 C 0.88175 0.30066 0.15834 0.0
C1846 C 0.87406 0.3152 0.13305 0.0
C1847 C 0.8863 0.3246 0.1286 0.0
C1848 C 0.89619 0.32204 0.14006 0.0
H1849 H 0.9298 0.37942 0.98572 0.0
H1850 H 0.91473 0.36118 0.01889 0.0
C1851 C 0.89394 0.31022 0.15482 0.0
C1852 C 0.88911 0.33698 0.1107 0.0
H1853 H 0.88938 0.35025 0.02602 0.0
C1854 C 0.89656 0.34816 0.13017 0.0
C1855 C 0.8861 0.33779 0.07303 0.0
C1856 C 0.8784 0.3261 0.05033 0.0
C1857 C 0.9019 0.36 0.11224 0.0
C1858 C 0.89946 0.36069 0.074 0.0
C1859 C 0.89118 0.34968 0.05537 0.0
C1860 C 0.90732 0.37191 0.05127 0.0
C1861 C 0.91092 0.37145 0.13356 0.0
C1862 C 0.90797 0.38405 0.05763 0.0
C1863 C 0.91674 0.39465 0.0386 0.0
C1864 C 0.92492 0.39317 0.01309 0.0
C1865 C 0.92373 0.38091 0.00547 0.0
C1866 C 0.91505 0.37043 0.02431 0.0
H1867 H 0.91289 0.36893 0.16181 0.0
H1868 H 0.91984 0.37617 0.11823 0.0
H1869 H 0.90698 0.3784 0.13664 0.0
H1870 H 0.90195 0.38537 0.07792 0.0
H1871 H 0.91744 0.40399 0.04488 0.0
H1872 H 0.70365 0.59668 0.06033 0.0
H1873 H 0.68259 0.58457 0.03592 0.0
H1874 H 0.67293 0.56083 0.13358 0.0
H1875 H 0.69381 0.5733 0.15865 0.0
H1876 H 0.66476 0.5598 0.02089 0.0
H1877 H 0.65182 0.57987 0.14503 0.0
H1878 H 0.66775 0.5846 0.13185 0.0
H1879 H 0.65914 0.56972 0.15521 0.0
C1880 C 0.69723 0.58845 0.07561 0.0
C1881 C 0.70035 0.58582 0.11117 0.0
C1882 C 0.68514 0.58161 0.06186 0.0
C1883 C 0.67607 0.57203 0.08345 0.0
C1884 C 0.67968 0.56838 0.11685 0.0
H1885 H 0.59529 0.54805 0.05876 0.0
H1886 H 0.61455 0.54681 0.07761 0.0
C1887 C 0.69167 0.57537 0.13089 0.0
C1888 C 0.66268 0.56731 0.07379 0.0
H1889 H 0.63595 0.56837 0.10305 0.0
C1890 C 0.65842 0.56151 0.03907 0.0
C1891 C 0.65437 0.56958 0.09747 0.0
C1892 C 0.65848 0.57638 0.13432 0.0
C1893 C 0.6462 0.55825 0.02704 0.0
C1894 C 0.63808 0.56096 0.05017 0.0
C1895 C 0.64215 0.56619 0.08553 0.0
C1896 C 0.62609 0.56025 0.03637 0.0
C1897 C 0.64217 0.55219 0.98931 0.0
C1898 C 0.6262 0.56821 0.00715 0.0
C1899 C 0.61535 0.56906 0.99684 0.0
C1900 C 0.60408 0.56193 0.01539 0.0
C1901 C 0.60383 0.55361 0.04391 0.0
C1902 C 0.6148 0.55289 0.05462 0.0
H1903 H 0.64766 0.54706 0.98058 0.0
H1904 H 0.63215 0.54544 0.98918 0.0
H1905 H 0.64368 0.5597 0.96844 0.0
H1906 H 0.63481 0.57419 0.99321 0.0
H1907 H 0.61587 0.57552 0.97464 0.0
H1908 H 0.04908 0.44287 0.43738 0.0
H1909 H 0.06688 0.4399 0.41321 0.0
H1910 H 0.05136 0.40206 0.45918 0.0
H1911 H 0.0339 0.405 0.48368 0.0
H1912 H 0.07702 0.4156 0.47056 0.0
H1913 H 0.06353 0.41705 0.32265 0.0
H1914 H 0.06646 0.4305 0.35218 0.0
H1915 H 0.05309 0.41574 0.36034 0.0
C1916 C 0.04956 0.43397 0.44249 0.0
C1917 C 0.04005 0.42412 0.46214 0.0
C1918 C 0.0597 0.43229 0.42864 0.0
C1919 C 0.06038 0.42073 0.43423 0.0
C1920 C 0.05105 0.41108 0.45471 0.0
H1921 H 0.07091 0.36473 0.33934 0.0
H1922 H 0.06705 0.38252 0.35936 0.0
C1923 C 0.04102 0.41275 0.46852 0.0
C1924 C 0.07017 0.41795 0.41718 0.0
H1925 H 0.07676 0.40763 0.33501 0.0
C1926 C 0.07732 0.41421 0.4408 0.0
C1927 C 0.07053 0.41622 0.37834 0.0
C1928 C 0.06299 0.42003 0.35171 0.0
C1929 C 0.0837 0.40749 0.42707 0.0
C1930 C 0.08311 0.40474 0.3886 0.0
C1931 C 0.07712 0.40973 0.36452 0.0
C1932 C 0.08617 0.39459 0.37418 0.0
C1933 C 0.08997 0.40232 0.45425 0.0
C1934 C 0.09825 0.39549 0.37563 0.0
C1935 C 0.10048 0.38518 0.36448 0.0
C1936 C 0.09066 0.37392 0.35152 0.0
C1937 C 0.07867 0.37324 0.34927 0.0
C1938 C 0.07646 0.38344 0.36052 0.0
H1939 H 0.08849 0.4043 0.48362 0.0
H1940 H 0.0864 0.39189 0.45065 0.0
H1941 H 0.10011 0.40672 0.44882 0.0
H1942 H 0.10589 0.40407 0.38568 0.0
H1943 H 0.10984 0.386 0.36623 0.0
H1944 H 0.57577 0.74214 0.3928 0.0
H1945 H 0.565 0.72326 0.43196 0.0
H1946 H 0.56111 0.69919 0.3372 0.0
H1947 H 0.5725 0.71783 0.29893 0.0
H1948 H 0.54153 0.69589 0.42548 0.0
H1949 H 0.58889 0.69868 0.41464 0.0
H1950 H 0.58552 0.71188 0.40341 0.0
H1951 H 0.58206 0.6992 0.37052 0.0
C1952 C 0.57237 0.73283 0.38021 0.0
C1953 C 0.57556 0.73139 0.34345 0.0
C1954 C 0.5661 0.72206 0.40251 0.0
C1955 C 0.56258 0.70988 0.38753 0.0
C1956 C 0.56392 0.70853 0.34931 0.0
H1957 H 0.53141 0.63176 0.44999 0.0
H1958 H 0.53476 0.65302 0.4306 0.0
C1959 C 0.57042 0.7192 0.32746 0.0
C1960 C 0.5601 0.69887 0.41188 0.0
H1961 H 0.57293 0.67901 0.43548 0.0
C1962 C 0.54841 0.69226 0.42834 0.0
C1963 C 0.56922 0.69435 0.41617 0.0
C1964 C 0.58217 0.70145 0.40058 0.0
C1965 C 0.5454 0.68079 0.4475 0.0
C1966 C 0.55421 0.67572 0.4491 0.0
C1967 C 0.56611 0.68277 0.43418 0.0
C1968 C 0.55129 0.66289 0.46415 0.0
C1969 C 0.53283 0.67429 0.46577 0.0
C1970 C 0.55959 0.66124 0.48881 0.0
C1971 C 0.55792 0.64907 0.49882 0.0
C1972 C 0.54781 0.6383 0.4849 0.0
C1973 C 0.53925 0.63991 0.46131 0.0
C1974 C 0.54107 0.65209 0.4506 0.0
H1975 H 0.52936 0.68129 0.47427 0.0
H1976 H 0.52608 0.66767 0.44556 0.0
H1977 H 0.53312 0.66881 0.49065 0.0
H1978 H 0.56757 0.66938 0.49957 0.0
H1979 H 0.56462 0.6481 0.51727 0.0
H1980 H 0.26009 0.88154 0.39416 0.0
H1981 H 0.27966 0.88119 0.41398 0.0
H1982 H 0.30017 0.91271 0.34126 0.0
H1983 H 0.28089 0.91319 0.32169 0.0
H1984 H 0.30751 0.89077 0.34249 0.0
H1985 H 0.30532 0.91183 0.48006 0.0
H1986 H 0.29192 0.89809 0.46378 0.0
H1987 H 0.29657 0.91302 0.44056 0.0
C1988 C 0.26877 0.88829 0.38219 0.0
C1989 C 0.26896 0.89747 0.35665 0.0
C1990 C 0.27992 0.88808 0.39349 0.0
C1991 C 0.29135 0.89694 0.37906 0.0
C1992 C 0.29146 0.90576 0.3526 0.0
H1993 H 0.3692 0.93259 0.39509 0.0
H1994 H 0.34817 0.91954 0.37239 0.0
C1995 C 0.28041 0.90607 0.34165 0.0
C1996 C 0.30337 0.89791 0.39329 0.0
H1997 H 0.32384 0.91093 0.46455 0.0
C1998 C 0.31104 0.89494 0.36949 0.0
C1999 C 0.30792 0.90332 0.42849 0.0
C2000 C 0.30009 0.90682 0.45485 0.0
C2001 C 0.32331 0.89762 0.37956 0.0
C2002 C 0.32814 0.90379 0.41385 0.0
C2003 C 0.32021 0.90618 0.43829 0.0
C2004 C 0.34158 0.90907 0.4238 0.0
C2005 C 0.33095 0.8939 0.35316 0.0
C2006 C 0.34513 0.90734 0.45987 0.0
C2007 C 0.35709 0.91502 0.47302 0.0
C2008 C 0.36582 0.92435 0.4501 0.0
C2009 C 0.36273 0.92521 0.41291 0.0
C2010 C 0.35066 0.91772 0.39995 0.0
H2011 H 0.32497 0.88525 0.33713 0.0
H2012 H 0.33561 0.90169 0.33286 0.0
H2013 H 0.33815 0.89209 0.36808 0.0
H2014 H 0.33835 0.90077 0.47888 0.0
H2015 H 0.35919 0.91439 0.50206 0.0
H2016 H 0.60437 0.98846 0.01239 0.0
H2017 H 0.61583 0.97872 0.97918 0.0
H2018 H 0.58173 0.9451 0.9596 0.0
H2019 H 0.57011 0.95478 0.99282 0.0
H2020 H 0.60448 0.9421 0.98639 0.0
H2021 H 0.61155 0.97275 0.86192 0.0
H2022 H 0.61509 0.98068 0.90631 0.0
H2023 H 0.59935 0.96988 0.8954 0.0
C2024 C 0.59931 0.97894 0.00138 0.0
C2025 C 0.58634 0.97239 0.00491 0.0
C2026 C 0.60586 0.97344 0.98234 0.0
C2027 C 0.59955 0.96132 0.96669 0.0
C2028 C 0.58669 0.95452 0.97144 0.0
H2029 H 0.62602 0.91421 0.84321 0.0
H2030 H 0.61307 0.92245 0.87543 0.0
C2031 C 0.5801 0.96004 0.99038 0.0
C2032 C 0.6064 0.95594 0.94447 0.0
H2033 H 0.62224 0.95984 0.86305 0.0
C2034 C 0.60831 0.94588 0.95931 0.0
C2035 C 0.61134 0.961 0.90931 0.0
C2036 C 0.60919 0.97162 0.89201 0.0
C2037 C 0.61538 0.94089 0.94011 0.0
C2038 C 0.62039 0.946 0.90498 0.0
C2039 C 0.61836 0.95599 0.89001 0.0
C2040 C 0.62799 0.94125 0.88365 0.0
C2041 C 0.61773 0.93048 0.95798 0.0
C2042 C 0.64051 0.94928 0.8765 0.0
C2043 C 0.64791 0.94464 0.85789 0.0
C2044 C 0.64284 0.93192 0.84616 0.0
C2045 C 0.63019 0.92403 0.85223 0.0
C2046 C 0.6228 0.92869 0.87076 0.0
H2047 H 0.6157 0.92971 0.98828 0.0
H2048 H 0.61163 0.92125 0.94484 0.0
H2049 H 0.62752 0.93214 0.95389 0.0
H2050 H 0.64462 0.95904 0.88612 0.0
H2051 H 0.65764 0.95092 0.85351 0.0
H2052 H 0.07837 0.71364 0.8472 0.0
H2053 H 0.07957 0.69435 0.86783 0.0
H2054 H 0.11924 0.71228 0.85042 0.0
H2055 H 0.11813 0.73189 0.83154 0.0
H2056 H 0.08666 0.67848 0.8347 0.0
H2057 H 0.11801 0.70067 0.9551 0.0
H2058 H 0.11106 0.70901 0.92883 0.0
H2059 H 0.12414 0.70715 0.91035 0.0
C2060 C 0.08735 0.71348 0.84787 0.0
C2061 C 0.09817 0.72427 0.83816 0.0
C2062 C 0.08803 0.70244 0.85951 0.0
C2063 C 0.09952 0.70189 0.86119 0.0
C2064 C 0.11032 0.71256 0.85032 0.0
H2065 H 0.08335 0.62395 0.93452 0.0
H2066 H 0.09498 0.64308 0.89692 0.0
C2067 C 0.10967 0.72373 0.83937 0.0
C2068 C 0.09996 0.69017 0.87535 0.0
H2069 H 0.10991 0.67865 0.949 0.0
C2070 C 0.0919 0.67849 0.85936 0.0
C2071 C 0.1069 0.69023 0.90735 0.0
C2072 C 0.11545 0.70241 0.92666 0.0
C2073 C 0.0897 0.66691 0.87634 0.0
C2074 C 0.09612 0.667 0.90952 0.0
C2075 C 0.10506 0.67862 0.92348 0.0
C2076 C 0.09165 0.65578 0.93442 0.0
C2077 C 0.07967 0.6548 0.86055 0.0
C2078 C 0.0867 0.65673 0.96898 0.0
C2079 C 0.08023 0.64596 0.99035 0.0
C2080 C 0.0785 0.63395 0.97766 0.0
C2081 C 0.08441 0.63308 0.9447 0.0
C2082 C 0.09096 0.64397 0.92311 0.0
H2083 H 0.07459 0.65661 0.83714 0.0
H2084 H 0.08389 0.64865 0.85012 0.0
H2085 H 0.07285 0.64951 0.8825 0.0
H2086 H 0.08715 0.66572 0.97846 0.0
H2087 H 0.07595 0.64697 0.01594 0.0
H2088 H 0.35334 0.44209 0.04209 0.0
H2089 H 0.33258 0.43487 0.01572 0.0
H2090 H 0.34713 0.46333 0.93003 0.0
H2091 H 0.3681 0.47086 0.95695 0.0
H2092 H 0.31926 0.45495 0.9698 0.0
H2093 H 0.33097 0.41837 0.90422 0.0
H2094 H 0.33482 0.42183 0.95264 0.0
H2095 H 0.34276 0.43374 0.91829 0.0
C2096 C 0.3521 0.44704 0.01817 0.0
C2097 C 0.36233 0.45691 0.00121 0.0
C2098 C 0.34022 0.44295 0.00333 0.0
C2099 C 0.33837 0.44856 0.97098 0.0
C2100 C 0.3484 0.45899 0.95525 0.0
H2101 H 0.27917 0.40315 0.82305 0.0
H2102 H 0.29767 0.42091 0.84705 0.0
C2103 C 0.36035 0.46323 0.97052 0.0
C2104 C 0.32648 0.44203 0.95081 0.0
H2105 H 0.31017 0.41515 0.90043 0.0
C2106 C 0.31726 0.44634 0.95414 0.0
C2107 C 0.32398 0.43083 0.93051 0.0
C2108 C 0.33364 0.4259 0.92586 0.0
C2109 C 0.30543 0.43949 0.93814 0.0
C2110 C 0.30281 0.42803 0.91894 0.0
C2111 C 0.31218 0.42395 0.91507 0.0
C2112 C 0.29046 0.41982 0.9028 0.0
C2113 C 0.29584 0.44453 0.9418 0.0
C2114 C 0.27998 0.41369 0.92571 0.0
C2115 C 0.26924 0.40361 0.91171 0.0
C2116 C 0.26902 0.39945 0.87497 0.0
C2117 C 0.27914 0.4062 0.85152 0.0
C2118 C 0.28972 0.41635 0.86521 0.0
H2119 H 0.30019 0.45484 0.94847 0.0
H2120 H 0.29035 0.44294 0.91577 0.0
H2121 H 0.28935 0.43944 0.96465 0.0
H2122 H 0.28042 0.41605 0.95498 0.0
H2123 H 0.26159 0.39844 0.93038 0.0
H2124 H 0.90447 0.63353 0.6479 0.0
H2125 H 0.91528 0.62174 0.62249 0.0
H2126 H 0.94891 0.65661 0.61298 0.0
H2127 H 0.93821 0.66846 0.63912 0.0
H2128 H 0.92607 0.62502 0.55346 0.0
H2129 H 0.96084 0.63303 0.66491 0.0
H2130 H 0.94744 0.63612 0.67143 0.0
H2131 H 0.9609 0.64741 0.64734 0.0
C2132 C 0.9142 0.63867 0.64077 0.0
C2133 C 0.92054 0.65189 0.64552 0.0
C2134 C 0.92034 0.63193 0.62626 0.0
C2135 C 0.9329 0.6383 0.61632 0.0
C2136 C 0.93928 0.6515 0.62126 0.0
H2137 H 0.98521 0.6188 0.5032 0.0
H2138 H 0.97325 0.62923 0.52968 0.0
C2139 C 0.93315 0.65825 0.636 0.0
C2140 C 0.93912 0.63121 0.59899 0.0
H2141 H 0.96383 0.62425 0.608 0.0
C2142 C 0.93427 0.62475 0.56549 0.0
C2143 C 0.94977 0.63089 0.61494 0.0
C2144 C 0.95499 0.63713 0.65182 0.0
C2145 C 0.94001 0.6182 0.54697 0.0
C2146 C 0.95079 0.61812 0.56256 0.0
C2147 C 0.95557 0.62444 0.59621 0.0
C2148 C 0.95742 0.61169 0.54409 0.0
C2149 C 0.93473 0.61166 0.51052 0.0
C2150 C 0.95233 0.5984 0.54324 0.0
C2151 C 0.95914 0.5924 0.52822 0.0
C2152 C 0.97111 0.59965 0.51398 0.0
C2153 C 0.976 0.61297 0.51396 0.0
C2154 C 0.96922 0.61894 0.5291 0.0
H2155 H 0.92743 0.6142 0.49954 0.0
H2156 H 0.94221 0.61417 0.48944 0.0
H2157 H 0.93057 0.60122 0.51457 0.0
H2158 H 0.94326 0.5927 0.55507 0.0
H2159 H 0.95517 0.58212 0.52861 0.0
H2160 H 0.4497 0.40235 0.52504 0.0
H2161 H 0.45141 0.38268 0.53865 0.0
H2162 H 0.41157 0.36287 0.55034 0.0
H2163 H 0.40979 0.38236 0.53514 0.0
H2164 H 0.44604 0.36862 0.59767 0.0
H2165 H 0.41725 0.33882 0.48339 0.0
H2166 H 0.42231 0.35578 0.48466 0.0
H2167 H 0.40854 0.34524 0.50942 0.0
C2168 C 0.44131 0.39376 0.53027 0.0
C2169 C 0.4296 0.39383 0.52879 0.0
C2170 C 0.4423 0.38253 0.53797 0.0
C2171 C 0.4316 0.37121 0.5446 0.0
C2172 C 0.41992 0.37136 0.54398 0.0
H2173 H 0.41594 0.30972 0.68164 0.0
H2174 H 0.42508 0.33066 0.65371 0.0
C2175 C 0.41892 0.38253 0.53568 0.0
C2176 C 0.43263 0.35938 0.55427 0.0
H2177 H 0.41913 0.32749 0.53785 0.0
C2178 C 0.44035 0.35966 0.58406 0.0
C2179 C 0.42556 0.34773 0.53584 0.0
C2180 C 0.41808 0.34691 0.50128 0.0
C2181 C 0.44039 0.34847 0.59779 0.0
C2182 C 0.43221 0.33666 0.58208 0.0
C2183 C 0.42528 0.3365 0.55037 0.0
C2184 C 0.42927 0.32441 0.60096 0.0
C2185 C 0.449 0.34942 0.62955 0.0
C2186 C 0.42867 0.31383 0.5809 0.0
C2187 C 0.4232 0.30169 0.59677 0.0
C2188 C 0.4182 0.3 0.63283 0.0
C2189 C 0.4197 0.31072 0.65376 0.0
C2190 C 0.42506 0.32277 0.63789 0.0
H2191 H 0.45779 0.35827 0.62739 0.0
H2192 H 0.44453 0.34986 0.65622 0.0
H2193 H 0.45125 0.34117 0.63028 0.0
H2194 H 0.4318 0.31486 0.55228 0.0
H2195 H 0.42212 0.29359 0.57992 0.0
H2196 H 0.59356 0.08534 0.58998 0.0
H2197 H 0.61327 0.09995 0.61951 0.0
H2198 H 0.63357 0.09261 0.53074 0.0
H2199 H 0.61422 0.07841 0.5015 0.0
H2200 H 0.62974 0.09265 0.64653 0.0
H2201 H 0.6545 0.12965 0.54365 0.0
H2202 H 0.63796 0.11983 0.54056 0.0
H2203 H 0.64879 0.11461 0.52046 0.0
C2204 C 0.60225 0.08725 0.57629 0.0
C2205 C 0.60239 0.08072 0.54359 0.0
C2206 C 0.6135 0.09554 0.59318 0.0
C2207 C 0.62496 0.09756 0.5771 0.0
C2208 C 0.62494 0.09157 0.54328 0.0
H2209 H 0.68716 0.09226 0.65663 0.0
H2210 H 0.66691 0.09102 0.64033 0.0
C2211 C 0.61383 0.08331 0.52672 0.0
C2212 C 0.63691 0.10414 0.59752 0.0
H2213 H 0.66773 0.12236 0.58054 0.0
C2214 C 0.638 0.09946 0.63259 0.0
C2215 C 0.64773 0.11328 0.58005 0.0
C2216 C 0.64712 0.11971 0.54429 0.0
C2217 C 0.64968 0.10261 0.64864 0.0
C2218 C 0.66057 0.11034 0.62858 0.0
C2219 C 0.65943 0.11613 0.59552 0.0
C2220 C 0.673 0.11138 0.63924 0.0
C2221 C 0.65021 0.09724 0.68638 0.0
C2222 C 0.68338 0.12325 0.64236 0.0
C2223 C 0.69511 0.12398 0.65099 0.0
C2224 C 0.69663 0.11285 0.65661 0.0
C2225 C 0.68628 0.10102 0.6529 0.0
C2226 C 0.67464 0.10029 0.64398 0.0
H2227 H 0.64209 0.09614 0.70359 0.0
H2228 H 0.64986 0.08766 0.68289 0.0
H2229 H 0.65885 0.10338 0.7016 0.0
H2230 H 0.68239 0.13193 0.63829 0.0
H2231 H 0.70294 0.13324 0.65359 0.0
H2232 H 0.66848 0.71611 0.81826 0.0
H2233 H 0.68348 0.70895 0.79514 0.0
H2234 H 0.70395 0.74508 0.74121 0.0
H2235 H 0.6888 0.75232 0.76396 0.0
H2236 H 0.69888 0.72461 0.69485 0.0
H2237 H 0.71902 0.71812 0.82685 0.0
H2238 H 0.70237 0.71046 0.8283 0.0
H2239 H 0.71039 0.72748 0.82373 0.0
C2240 C 0.67625 0.72261 0.80186 0.0
C2241 C 0.67748 0.73478 0.79293 0.0
C2242 C 0.68487 0.71854 0.78893 0.0
C2243 C 0.69494 0.72658 0.76711 0.0
C2244 C 0.6963 0.7388 0.75839 0.0
H2245 H 0.74266 0.69003 0.70841 0.0
H2246 H 0.73739 0.70732 0.72581 0.0
C2247 C 0.68765 0.7429 0.77137 0.0
C2248 C 0.70334 0.72168 0.75106 0.0
H2249 H 0.71969 0.70517 0.77483 0.0
C2250 C 0.7037 0.72062 0.71224 0.0
C2251 C 0.70981 0.71672 0.77376 0.0
C2252 C 0.7105 0.71838 0.81546 0.0
C2253 C 0.70951 0.71379 0.69566 0.0
C2254 C 0.71487 0.70772 0.71864 0.0
C2255 C 0.71542 0.70968 0.75725 0.0
C2256 C 0.71868 0.69816 0.70391 0.0
C2257 C 0.70951 0.71282 0.6538 0.0
C2258 C 0.7099 0.68732 0.68578 0.0
C2259 C 0.71288 0.67747 0.67578 0.0
C2260 C 0.72463 0.67822 0.68418 0.0
C2261 C 0.73351 0.68919 0.70163 0.0
C2262 C 0.73054 0.69908 0.7115 0.0
H2263 H 0.70937 0.72133 0.64059 0.0
H2264 H 0.71776 0.71174 0.64361 0.0
H2265 H 0.70102 0.70441 0.64472 0.0
H2266 H 0.70058 0.68625 0.68062 0.0
H2267 H 0.70583 0.66911 0.66252 0.0
H2268 H 0.23073 0.9788 0.82403 0.0
H2269 H 0.23368 0.99912 0.79788 0.0
H2270 H 0.19413 0.98467 0.78126 0.0
H2271 H 0.19113 0.96409 0.80674 0.0
H2272 H 0.20646 0.996 0.7202 0.0
H2273 H 0.22793 0.02806 0.83861 0.0
H2274 H 0.2361 0.01865 0.8299 0.0
H2275 H 0.22003 0.01102 0.84399 0.0
C2276 C 0.22263 0.97998 0.81525 0.0
C2277 C 0.2107 0.96986 0.81747 0.0
C2278 C 0.22432 0.99166 0.80064 0.0
C2279 C 0.2141 0.99354 0.78842 0.0
C2280 C 0.20213 0.98348 0.79094 0.0
H2281 H 0.24251 0.07115 0.69914 0.0
H2282 H 0.22735 0.05248 0.73255 0.0
C2283 C 0.20044 0.97173 0.80543 0.0
C2284 C 0.2162 0.00562 0.76983 0.0
H2285 H 0.23382 0.03762 0.77678 0.0
C2286 C 0.21217 0.00513 0.73292 0.0
C2287 C 0.22332 0.01758 0.78659 0.0
C2288 C 0.22696 0.01885 0.82711 0.0
C2289 C 0.21613 0.01617 0.71127 0.0
C2290 C 0.22455 0.02792 0.72672 0.0
C2291 C 0.22753 0.02858 0.76468 0.0
C2292 C 0.23198 0.03899 0.70296 0.0
C2293 C 0.21171 0.01504 0.67154 0.0
C2294 C 0.23948 0.03758 0.67509 0.0
C2295 C 0.2481 0.04814 0.65632 0.0
C2296 C 0.24951 0.06038 0.66513 0.0
C2297 C 0.2416 0.06181 0.69175 0.0
C2298 C 0.23296 0.05117 0.71084 0.0
H2299 H 0.20214 0.00732 0.66867 0.0
H2300 H 0.21182 0.02406 0.66147 0.0
H2301 H 0.21786 0.01259 0.65346 0.0
H2302 H 0.23915 0.02836 0.66915 0.0
H2303 H 0.25405 0.04673 0.6359 0.0
H2304 H 0.03982 0.24644 0.76831 0.0
H2305 H 0.01879 0.23273 0.74481 0.0
H2306 H 0.00398 0.25373 0.81092 0.0
H2307 H 0.02452 0.26703 0.83475 0.0
H2308 H 0.98897 0.22817 0.81262 0.0
H2309 H 0.00189 0.2453 0.66708 0.0
H2310 H 0.0102 0.23755 0.68919 0.0
H2311 H 0.01212 0.25279 0.70569 0.0
C2312 C 0.03201 0.24798 0.77806 0.0
C2313 C 0.03386 0.25791 0.80304 0.0
C2314 C 0.02003 0.2402 0.7645 0.0
C2315 C 0.00982 0.2423 0.77577 0.0
C2316 C 0.01167 0.25189 0.80182 0.0
H2317 H 0.94907 0.24808 0.69223 0.0
H2318 H 0.96853 0.24797 0.71102 0.0
C2319 C 0.0235 0.25957 0.81526 0.0
C2320 C 0.99722 0.23539 0.75936 0.0
H2321 H 0.98079 0.23506 0.68139 0.0
C2322 C 0.98713 0.22936 0.78368 0.0
C2323 C 0.99487 0.23698 0.7216 0.0
C2324 C 0.00529 0.24355 0.69424 0.0
C2325 C 0.97486 0.22595 0.77218 0.0
C2326 C 0.97259 0.22834 0.73504 0.0
C2327 C 0.98257 0.23329 0.70989 0.0
C2328 C 0.96048 0.22785 0.7233 0.0
C2329 C 0.96457 0.22082 0.80062 0.0
C2330 C 0.94938 0.21656 0.72408 0.0
C2331 C 0.93809 0.21663 0.71368 0.0
C2332 C 0.9378 0.22796 0.70197 0.0
C2333 C 0.94894 0.23918 0.70106 0.0
C2334 C 0.96012 0.23912 0.71165 0.0
H2335 H 0.96818 0.22133 0.82936 0.0
H2336 H 0.95887 0.22617 0.79971 0.0
H2337 H 0.95841 0.21072 0.79421 0.0
H2338 H 0.94945 0.20771 0.73245 0.0
H2339 H 0.92966 0.20782 0.71436 0.0
H2340 H 0.30974 0.27171 0.14627 0.0
H2341 H 0.29815 0.28026 0.18387 0.0
H2342 H 0.33229 0.31276 0.21223 0.0
H2343 H 0.34398 0.30434 0.1742 0.0
H2344 H 0.30272 0.28402 0.26036 0.0
H2345 H 0.3081 0.3283 0.18929 0.0
H2346 H 0.31084 0.31607 0.16601 0.0
H2347 H 0.32234 0.327 0.19698 0.0
C2348 C 0.31474 0.28084 0.15975 0.0
C2349 C 0.32774 0.28735 0.15756 0.0
C2350 C 0.30812 0.28568 0.18123 0.0
C2351 C 0.31439 0.29711 0.20072 0.0
C2352 C 0.3273 0.30401 0.19692 0.0
H2353 H 0.29066 0.33598 0.36369 0.0
H2354 H 0.30297 0.32759 0.32899 0.0
C2355 C 0.33395 0.29919 0.17523 0.0
C2356 C 0.30757 0.30103 0.228 0.0
H2357 H 0.2993 0.32463 0.24972 0.0
C2358 C 0.3019 0.29287 0.25801 0.0
C2359 C 0.30664 0.31261 0.22479 0.0
C2360 C 0.31221 0.32147 0.19239 0.0
C2361 C 0.29532 0.29602 0.28513 0.0
C2362 C 0.29437 0.30756 0.28183 0.0
C2363 C 0.30012 0.31579 0.25205 0.0
C2364 C 0.28706 0.31118 0.30814 0.0
C2365 C 0.28956 0.28709 0.31725 0.0
C2366 C 0.27408 0.3044 0.30889 0.0
C2367 C 0.267 0.30914 0.32876 0.0
C2368 C 0.27285 0.32079 0.34767 0.0
C2369 C 0.28589 0.32701 0.34918 0.0
C2370 C 0.29294 0.32228 0.32931 0.0
H2371 H 0.29348 0.28011 0.32025 0.0
H2372 H 0.29096 0.29245 0.34373 0.0
H2373 H 0.27941 0.28176 0.31247 0.0
H2374 H 0.26941 0.29586 0.29236 0.0
H2375 H 0.25697 0.30414 0.32726 0.0
H2376 H 0.73377 0.95937 0.25887 0.0
H2377 H 0.74597 0.97918 0.22669 0.0
H2378 H 0.77897 0.98245 0.28378 0.0
H2379 H 0.76661 0.96214 0.31574 0.0
H2380 H 0.77287 0.0029 0.29508 0.0
H2381 H 0.77218 0.99291 0.1449 0.0
H2382 H 0.75711 0.9842 0.16513 0.0
H2383 H 0.76986 0.98102 0.17997 0.0
C2384 C 0.74373 0.96398 0.26325 0.0
C2385 C 0.74933 0.95917 0.28917 0.0
C2386 C 0.75071 0.97532 0.24481 0.0
C2387 C 0.76342 0.98222 0.25238 0.0
C2388 C 0.7692 0.97716 0.27712 0.0
H2389 H 0.79182 0.06437 0.20285 0.0
H2390 H 0.79331 0.04478 0.22022 0.0
C2391 C 0.76219 0.96557 0.29518 0.0
C2392 C 0.76977 0.99552 0.23918 0.0
H2393 H 0.77191 0.0131 0.16159 0.0
C2394 C 0.77313 0.00525 0.26582 0.0
C2395 C 0.77007 0.99854 0.20103 0.0
C2396 C 0.76723 0.9886 0.17113 0.0
C2397 C 0.7755 0.01768 0.25553 0.0
C2398 C 0.77466 0.02041 0.2176 0.0
C2399 C 0.77242 0.01095 0.19071 0.0
C2400 C 0.77425 0.03236 0.20591 0.0
C2401 C 0.77781 0.02751 0.28552 0.0
C2402 C 0.76311 0.03182 0.19168 0.0
C2403 C 0.76224 0.04292 0.18177 0.0
C2404 C 0.77252 0.0548 0.18575 0.0
C2405 C 0.78373 0.05535 0.19965 0.0
C2406 C 0.78459 0.04419 0.20963 0.0
H2407 H 0.77675 0.02342 0.31392 0.0
H2408 H 0.7874 0.03516 0.2828 0.0
H2409 H 0.77129 0.03189 0.28241 0.0
H2410 H 0.75501 0.02278 0.18872 0.0
H2411 H 0.75349 0.04218 0.17106 0.0
H2412 H 0.01885 0.76677 0.29688 0.0
H2413 H 0.99868 0.76506 0.27735 0.0
H2414 H 0.01192 0.80555 0.29081 0.0
H2415 H 0.03243 0.80736 0.30899 0.0
H2416 H 0.98206 0.77012 0.31349 0.0
H2417 H 0.99757 0.801 0.18827 0.0
H2418 H 0.00772 0.79592 0.21296 0.0
H2419 H 0.0045 0.80846 0.23146 0.0
C2420 C 0.01751 0.77534 0.29543 0.0
C2421 C 0.02724 0.78721 0.30426 0.0
C2422 C 0.00594 0.77435 0.28441 0.0
C2423 C 0.00374 0.78518 0.28228 0.0
C2424 C 0.01343 0.79708 0.29143 0.0
H2425 H 0.92382 0.76005 0.22854 0.0
H2426 H 0.94332 0.77331 0.26149 0.0
C2427 C 0.02513 0.79811 0.30194 0.0
C2428 C 0.99126 0.78371 0.27028 0.0
H2429 H 0.97618 0.79059 0.19938 0.0
C2430 C 0.98075 0.77473 0.28884 0.0
C2431 C 0.98956 0.7898 0.23825 0.0
C2432 C 0.0004 0.79926 0.21633 0.0
C2433 C 0.9687 0.77095 0.27471 0.0
C2434 C 0.96704 0.77661 0.24166 0.0
C2435 C 0.97746 0.78632 0.2248 0.0
C2436 C 0.95524 0.77081 0.2201 0.0
C2437 C 0.95798 0.7602 0.2936 0.0
C2438 C 0.9555 0.76569 0.18501 0.0
C2439 C 0.94451 0.7583 0.16631 0.0
C2440 C 0.93293 0.75579 0.18213 0.0
C2441 C 0.93261 0.76174 0.21586 0.0
C2442 C 0.94373 0.76921 0.23481 0.0
H2443 H 0.96114 0.75572 0.31592 0.0
H2444 H 0.95175 0.76387 0.30632 0.0
H2445 H 0.95249 0.75275 0.27307 0.0
H2446 H 0.96421 0.76681 0.17289 0.0
H2447 H 0.94509 0.75399 0.14011 0.0
H2448 H 0.29587 0.07579 0.06172 0.0
H2449 H 0.29109 0.07343 0.99538 0.0
H2450 H 0.33009 0.08835 0.96969 0.0
H2451 H 0.33505 0.09075 0.03617 0.0
H2452 H 0.30133 0.09548 0.94647 0.0
H2453 H 0.31261 0.05621 0.90063 0.0
H2454 H 0.30905 0.05806 0.94849 0.0
H2455 H 0.3238 0.06856 0.92925 0.0
C2456 C 0.30346 0.07838 0.04213 0.0
C2457 C 0.31586 0.08355 0.05443 0.0
C2458 C 0.30069 0.07702 0.00417 0.0
C2459 C 0.31023 0.08066 0.97771 0.0
C2460 C 0.32259 0.08534 0.98973 0.0
H2461 H 0.30242 0.09092 0.73807 0.0
H2462 H 0.31184 0.08965 0.79787 0.0
C2463 C 0.32539 0.08675 0.02777 0.0
C2464 C 0.30722 0.08072 0.9378 0.0
H2465 H 0.30558 0.06593 0.85448 0.0
C2466 C 0.30234 0.08908 0.92631 0.0
C2467 C 0.30866 0.07244 0.9116 0.0
C2468 C 0.31375 0.06323 0.9229 0.0
C2469 C 0.2986 0.08918 0.88945 0.0
C2470 C 0.29961 0.08059 0.86352 0.0
C2471 C 0.30484 0.07249 0.87457 0.0
C2472 C 0.29426 0.07936 0.82584 0.0
C2473 C 0.29334 0.0983 0.87854 0.0
C2474 C 0.28133 0.07359 0.8217 0.0
C2475 C 0.27597 0.07435 0.78795 0.0
C2476 C 0.28344 0.08086 0.7576 0.0
C2477 C 0.29643 0.08583 0.76095 0.0
C2478 C 0.30182 0.08512 0.79502 0.0
H2479 H 0.29536 0.1059 0.89967 0.0
H2480 H 0.29715 0.10279 0.85132 0.0
H2481 H 0.2831 0.09301 0.87558 0.0
H2482 H 0.27537 0.06906 0.8452 0.0
H2483 H 0.26593 0.07028 0.78611 0.0
H2484 H 0.8964 0.28806 0.05573 0.0
H2485 H 0.90434 0.285 0.99537 0.0
H2486 H 0.88195 0.2445 0.00446 0.0
H2487 H 0.87478 0.24756 0.06583 0.0
H2488 H 0.90234 0.2484 0.97116 0.0
H2489 H 0.88403 0.27954 0.90483 0.0
H2490 H 0.89596 0.2878 0.93828 0.0
H2491 H 0.88142 0.2752 0.95315 0.0
C2492 C 0.89347 0.27852 0.04502 0.0
C2493 C 0.88505 0.26802 0.06507 0.0
C2494 C 0.89786 0.27677 0.01041 0.0
C2495 C 0.89344 0.26455 0.99468 0.0
C2496 C 0.88546 0.25403 0.01577 0.0
H2497 H 0.88309 0.24652 0.76306 0.0
H2498 H 0.88231 0.2515 0.82858 0.0
C2499 C 0.88136 0.25575 0.0508 0.0
C2500 C 0.89641 0.26266 0.95557 0.0
H2501 H 0.89459 0.27134 0.86597 0.0
C2502 C 0.90064 0.25342 0.94812 0.0
C2503 C 0.89405 0.26908 0.92538 0.0
C2504 C 0.88849 0.27835 0.93071 0.0
C2505 C 0.90224 0.25016 0.91148 0.0
C2506 C 0.90009 0.25675 0.88136 0.0
C2507 C 0.89628 0.2663 0.88895 0.0
C2508 C 0.9007 0.25333 0.84171 0.0
C2509 C 0.90558 0.23925 0.90562 0.0
C2510 C 0.91128 0.25262 0.82695 0.0
C2511 C 0.91156 0.24937 0.78951 0.0
C2512 C 0.90147 0.24726 0.76595 0.0
C2513 C 0.89104 0.24821 0.78054 0.0
C2514 C 0.8906 0.25107 0.81803 0.0
H2515 H 0.90335 0.23299 0.93044 0.0
H2516 H 0.90061 0.23338 0.88127 0.0
H2517 H 0.91572 0.24307 0.90063 0.0
H2518 H 0.91935 0.25469 0.84417 0.0
H2519 H 0.91976 0.2488 0.77878 0.0
H2520 H 0.73555 0.64843 0.06591 0.0
H2521 H 0.73141 0.64902 -0.0004 0.0
H2522 H 0.69212 0.62747 0.01983 0.0
H2523 H 0.69643 0.62637 0.08621 0.0
H2524 H 0.69854 0.61691 0.96713 0.0
H2525 H 0.71903 0.66785 0.9336 0.0
H2526 H 0.73046 0.6644 0.95665 0.0
H2527 H 0.71648 0.66226 0.98101 0.0
C2528 C 0.72601 0.64426 0.05627 0.0
C2529 C 0.71626 0.63766 0.08094 0.0
C2530 C 0.72363 0.64461 0.01838 0.0
C2531 C 0.71141 0.63852 0.00462 0.0
C2532 C 0.7016 0.63236 0.02976 0.0
H2533 H 0.70793 0.64608 0.76344 0.0
H2534 H 0.70327 0.64644 0.82957 0.0
C2535 C 0.70402 0.63184 0.06764 0.0
C2536 C 0.70918 0.63726 0.96381 0.0
H2537 H 0.71833 0.65379 0.88268 0.0
C2538 C 0.70263 0.62503 0.94868 0.0
C2539 C 0.71427 0.6478 0.93955 0.0
C2540 C 0.72031 0.66131 0.95367 0.0
C2541 C 0.70165 0.62299 0.91007 0.0
C2542 C 0.70783 0.63341 0.88588 0.0
C2543 C 0.71376 0.64572 0.90102 0.0
C2544 C 0.70888 0.63182 0.84514 0.0
C2545 C 0.694 0.60968 0.89586 0.0
C2546 C 0.71331 0.62328 0.83151 0.0
C2547 C 0.71559 0.62279 0.79353 0.0
C2548 C 0.71391 0.63114 0.7687 0.0
C2549 C 0.70929 0.63953 0.78211 0.0
C2550 C 0.70667 0.63976 0.81988 0.0
H2551 H 0.68628 0.60424 0.91529 0.0
H2552 H 0.69001 0.60968 0.86797 0.0
H2553 H 0.69995 0.60462 0.89402 0.0
H2554 H 0.71554 0.61737 0.85037 0.0
H2555 H 0.71937 0.61641 0.78394 0.0
H2556 H 0.08096 0.32692 0.7464 0.0
H2557 H 0.0811 0.33201 0.68046 0.0
H2558 H 0.06184 0.2921 0.65427 0.0
H2559 H 0.06147 0.28687 0.72005 0.0
H2560 H 0.09251 0.32429 0.62555 0.0
H2561 H 0.04235 0.30708 0.59475 0.0
H2562 H 0.04843 0.30977 0.64161 0.0
H2563 H 0.04605 0.29546 0.61718 0.0
C2564 C 0.07659 0.31921 0.72674 0.0
C2565 C 0.07123 0.30648 0.7386 0.0
C2566 C 0.07668 0.32215 0.68907 0.0
C2567 C 0.07134 0.31244 0.66261 0.0
C2568 C 0.06577 0.29974 0.67435 0.0
H2569 H 0.07201 0.30459 0.42558 0.0
H2570 H 0.06855 0.30192 0.49261 0.0
C2571 C 0.06566 0.29678 0.71199 0.0
C2572 C 0.07253 0.3155 0.62248 0.0
H2573 H 0.05591 0.31146 0.54235 0.0
C2574 C 0.08452 0.32164 0.60739 0.0
C2575 C 0.06207 0.31196 0.59896 0.0
C2576 C 0.04899 0.30581 0.61396 0.0
C2577 C 0.08634 0.32398 0.56912 0.0
C2578 C 0.07588 0.32026 0.54551 0.0
C2579 C 0.06389 0.3143 0.56063 0.0
C2580 C 0.07726 0.32204 0.5048 0.0
C2581 C 0.09943 0.32999 0.5541 0.0
C2582 C 0.08306 0.33427 0.48951 0.0
C2583 C 0.0851 0.33585 0.45121 0.0
C2584 C 0.08131 0.32522 0.42752 0.0
C2585 C 0.07511 0.31299 0.44294 0.0
C2586 C 0.07309 0.31143 0.48124 0.0
H2587 H 0.10626 0.32975 0.57466 0.0
H2588 H 0.10013 0.32511 0.52831 0.0
H2589 H 0.10204 0.34008 0.54716 0.0
H2590 H 0.08615 0.34257 0.50727 0.0
H2591 H 0.08979 0.34541 0.4403 0.0
H2592 H 0.61106 0.72334 0.72198 0.0
H2593 H 0.60843 0.72139 0.65436 0.0
H2594 H 0.64775 0.73345 0.64089 0.0
H2595 H 0.65053 0.73535 0.70818 0.0
H2596 H 0.63701 0.74859 0.60413 0.0
H2597 H 0.61171 0.69705 0.57245 0.0
H2598 H 0.60604 0.70261 0.61154 0.0
H2599 H 0.62122 0.70308 0.61356 0.0
C2600 C 0.61911 0.72529 0.70475 0.0
C2601 C 0.63102 0.72963 0.72063 0.0
C2602 C 0.61758 0.72411 0.66611 0.0
C2603 C 0.62789 0.7272 0.64275 0.0
C2604 C 0.63967 0.73094 0.65851 0.0
H2605 H 0.62954 0.74916 0.40763 0.0
H2606 H 0.63653 0.74211 0.46381 0.0
C2607 C 0.64122 0.73205 0.69705 0.0
C2608 C 0.62664 0.72826 0.60211 0.0
H2609 H 0.61218 0.71138 0.52464 0.0
C2610 C 0.6318 0.74045 0.58648 0.0
C2611 C 0.6198 0.71761 0.57944 0.0
C2612 C 0.61443 0.70431 0.59489 0.0
C2613 C 0.6297 0.74237 0.54914 0.0
C2614 C 0.62252 0.73175 0.52657 0.0
C2615 C 0.61779 0.71948 0.54187 0.0
C2616 C 0.61829 0.73344 0.48912 0.0
C2617 C 0.63448 0.75582 0.53491 0.0
C2618 C 0.60565 0.73017 0.48385 0.0
C2619 C 0.6017 0.73415 0.4521 0.0
C2620 C 0.61028 0.74138 0.42482 0.0
C2621 C 0.62276 0.74362 0.42832 0.0
C2622 C 0.62675 0.73968 0.46044 0.0
H2623 H 0.63804 0.76295 0.55769 0.0
H2624 H 0.64218 0.75773 0.51503 0.0
H2625 H 0.62702 0.75719 0.52001 0.0
H2626 H 0.59895 0.7253 0.50547 0.0
H2627 H 0.59198 0.73214 0.44979 0.0
H2628 H 0.22308 0.92669 0.74526 0.0
H2629 H 0.2323 0.92388 0.68691 0.0
H2630 H 0.21933 0.94834 0.63058 0.0
H2631 H 0.21021 0.95123 0.68828 0.0
H2632 H 0.21855 0.91342 0.62136 0.0
H2633 H 0.25534 0.96181 0.59483 0.0
H2634 H 0.2485 0.95671 0.64023 0.0
H2635 H 0.24066 0.9617 0.60573 0.0
C2636 C 0.22241 0.93166 0.72059 0.0
C2637 C 0.21587 0.93915 0.72144 0.0
C2638 C 0.22765 0.93002 0.68728 0.0
C2639 C 0.22663 0.93603 0.6545 0.0
C2640 C 0.22045 0.94381 0.65564 0.0
H2641 H 0.23019 0.93504 0.42025 0.0
H2642 H 0.22963 0.93924 0.4865 0.0
C2643 C 0.21514 0.94537 0.68868 0.0
C2644 C 0.23093 0.93335 0.61819 0.0
H2645 H 0.24799 0.948 0.5415 0.0
C2646 C 0.22519 0.92091 0.60413 0.0
C2647 C 0.23957 0.94315 0.59578 0.0
C2648 C 0.24647 0.95657 0.61004 0.0
C2649 C 0.22725 0.91816 0.5674 0.0
C2650 C 0.23547 0.92808 0.54438 0.0
C2651 C 0.24166 0.94041 0.55909 0.0
C2652 C 0.23687 0.9261 0.50412 0.0
C2653 C 0.22005 0.9048 0.55287 0.0
C2654 C 0.24144 0.91756 0.49186 0.0
C2655 C 0.24174 0.91507 0.45381 0.0
C2656 C 0.23753 0.92116 0.42727 0.0
C2657 C 0.23346 0.93012 0.43973 0.0
C2658 C 0.23314 0.93256 0.47769 0.0
H2659 H 0.21234 0.8989 0.57177 0.0
H2660 H 0.21612 0.90489 0.52494 0.0
H2661 H 0.22639 0.9002 0.55021 0.0
H2662 H 0.2446 0.91265 0.51173 0.0
H2663 H 0.24503 0.90819 0.4453 0.0
H2664 H 0.72823 0.94406 0.187 0.0
H2665 H 0.71603 0.94337 0.13222 0.0
H2666 H 0.68224 0.92319 0.19445 0.0
H2667 H 0.69453 0.92368 0.24983 0.0
H2668 H 0.68313 0.91097 0.13011 0.0
H2669 H 0.69566 0.96128 0.09825 0.0
H2670 H 0.70919 0.95866 0.10538 0.0
H2671 H 0.69851 0.95619 0.14321 0.0
C2672 C 0.71819 0.93967 0.18932 0.0
C2673 C 0.71232 0.93381 0.22262 0.0
C2674 C 0.71123 0.93941 0.15801 0.0
C2675 C 0.69822 0.93336 0.15927 0.0
C2676 C 0.69228 0.928 0.19298 0.0
H2677 H 0.64684 0.91117 0.97143 0.0
H2678 H 0.65582 0.91613 0.03354 0.0
C2679 C 0.69929 0.92832 0.2246 0.0
C2680 C 0.69107 0.9313 0.12415 0.0
H2681 H 0.68802 0.94659 0.04662 0.0
C2682 C 0.68399 0.91876 0.11217 0.0
C2683 C 0.6923 0.94148 0.10061 0.0
C2684 C 0.69923 0.95515 0.1127 0.0
C2685 C 0.67857 0.9161 0.07665 0.0
C2686 C 0.68017 0.92627 0.05266 0.0
C2687 C 0.68694 0.93882 0.06497 0.0
C2688 C 0.67486 0.92397 0.01465 0.0
C2689 C 0.67156 0.90244 0.06448 0.0
C2690 C 0.68263 0.92702 0.98332 0.0
C2691 C 0.67753 0.92418 0.94746 0.0
C2692 C 0.66457 0.9183 0.94243 0.0
C2693 C 0.65687 0.91559 0.97406 0.0
C2694 C 0.66196 0.91841 0.00972 0.0
H2695 H 0.67324 0.89583 0.08331 0.0
H2696 H 0.66145 0.89979 0.06452 0.0
H2697 H 0.67423 0.90114 0.03575 0.0
H2698 H 0.69263 0.93137 0.98667 0.0
H2699 H 0.68374 0.92646 0.92382 0.0
H2700 H 0.07104 0.79941 0.1818 0.0
H2701 H 0.07309 0.78947 0.12449 0.0
H2702 H 0.0527 0.75243 0.17342 0.0
H2703 H 0.05117 0.76252 0.23223 0.0
H2704 H 0.0706 0.75212 0.13431 0.0
H2705 H 0.04828 0.77416 0.045 0.0
H2706 H 0.06091 0.78655 0.06885 0.0
H2707 H 0.04797 0.77515 0.09505 0.0
C2708 C 0.06694 0.78913 0.18043 0.0
C2709 C 0.06081 0.78174 0.21141 0.0
C2710 C 0.068 0.78343 0.14738 0.0
C2711 C 0.06262 0.77016 0.14385 0.0
C2712 C 0.05676 0.76269 0.17514 0.0
H2713 H 0.07059 0.74889 0.91219 0.0
H2714 H 0.06017 0.74995 0.97021 0.0
C2715 C 0.05592 0.76845 0.20876 0.0
C2716 C 0.06375 0.76433 0.10788 0.0
H2717 H 0.06321 0.7683 0.01382 0.0
C2718 C 0.06874 0.75547 0.10799 0.0
C2719 C 0.0609 0.76823 0.07323 0.0
C2720 C 0.05407 0.77642 0.0706 0.0
C2721 C 0.07191 0.75129 0.07466 0.0
C2722 C 0.07057 0.75652 0.04028 0.0
C2723 C 0.0646 0.76452 0.04002 0.0
C2724 C 0.07639 0.75487 0.00514 0.0
C2725 C 0.07675 0.74137 0.07688 0.0
C2726 C 0.08899 0.75743 0.00509 0.0
C2727 C 0.09485 0.75663 0.97234 0.0
C2728 C 0.0884 0.75358 0.93825 0.0
C2729 C 0.07582 0.75122 0.93795 0.0
C2730 C 0.06986 0.75181 0.97114 0.0
H2731 H 0.07233 0.73473 0.10029 0.0
H2732 H 0.07502 0.73578 0.05075 0.0
H2733 H 0.08689 0.7461 0.08237 0.0
H2734 H 0.09446 0.76038 0.03035 0.0
H2735 H 0.10461 0.75876 0.97372 0.0
H2736 H 0.26684 0.35928 0.23933 0.0
H2737 H 0.27359 0.36457 0.17485 0.0
H2738 H 0.29042 0.33863 0.17758 0.0
H2739 H 0.28311 0.33286 0.24158 0.0
H2740 H 0.29392 0.37203 0.12756 0.0
H2741 H 0.26154 0.32077 0.10757 0.0
H2742 H 0.26313 0.3285 0.15194 0.0
H2743 H 0.27514 0.32446 0.13539 0.0
C2744 C 0.27241 0.3551 0.22665 0.0
C2745 C 0.27428 0.34552 0.24496 0.0
C2746 C 0.27625 0.35811 0.18976 0.0
C2747 C 0.28215 0.35167 0.17104 0.0
C2748 C 0.28557 0.34343 0.19114 0.0
H2749 H 0.27339 0.36158 0.92845 0.0
H2750 H 0.28444 0.35717 0.98051 0.0
C2751 C 0.28149 0.34022 0.22774 0.0
C2752 C 0.28241 0.35187 0.12979 0.0
H2753 H 0.26603 0.33391 0.05601 0.0
C2754 C 0.28818 0.36363 0.11159 0.0
C2755 C 0.27491 0.34085 0.10893 0.0
C2756 C 0.26825 0.32792 0.12679 0.0
C2757 C 0.2857 0.36485 0.07399 0.0
C2758 C 0.27727 0.35407 0.05437 0.0
C2759 C 0.27255 0.34212 0.07133 0.0
C2760 C 0.27059 0.35552 0.02156 0.0
C2761 C 0.29106 0.37785 0.05645 0.0
C2762 C 0.25911 0.35568 0.02754 0.0
C2763 C 0.25292 0.35823 0.99839 0.0
C2764 C 0.25802 0.36054 0.96249 0.0
C2765 C 0.26924 0.35973 0.9559 0.0
C2766 C 0.27557 0.35731 0.98549 0.0
H2767 H 0.29847 0.38505 0.07388 0.0
H2768 H 0.29494 0.37752 0.02864 0.0
H2769 H 0.28356 0.3809 0.05243 0.0
H2770 H 0.25512 0.35427 0.05521 0.0
H2771 H 0.24425 0.35873 0.00416 0.0
H2772 H 0.90084 0.6556 0.5127 0.0
H2773 H 0.90576 0.66582 0.45221 0.0
H2774 H 0.91805 0.70251 0.50461 0.0
H2775 H 0.91287 0.6923 0.56581 0.0
H2776 H 0.90196 0.69921 0.44838 0.0
H2777 H 0.93823 0.68547 0.39915 0.0
H2778 H 0.92439 0.67202 0.41363 0.0
H2779 H 0.93337 0.68395 0.44718 0.0
C2780 C 0.9047 0.66587 0.51164 0.0
C2781 C 0.90641 0.67312 0.54431 0.0
C2782 C 0.90764 0.67171 0.47688 0.0
C2783 C 0.91251 0.68494 0.47386 0.0
C2784 C 0.91441 0.69227 0.50635 0.0
H2785 H 0.9278 0.73549 0.28658 0.0
H2786 H 0.92994 0.72535 0.34377 0.0
C2787 C 0.91141 0.68642 0.5413 0.0
C2788 C 0.91451 0.69094 0.43658 0.0
H2789 H 0.9286 0.6929 0.3524 0.0
C2790 C 0.9079 0.69794 0.42759 0.0
C2791 C 0.92223 0.68924 0.40937 0.0
C2792 C 0.93005 0.68237 0.41791 0.0
C2793 C 0.90853 0.703 0.39192 0.0
C2794 C 0.91601 0.70105 0.36455 0.0
C2795 C 0.92278 0.69423 0.37347 0.0
C2796 C 0.91698 0.70644 0.32689 0.0
C2797 C 0.90109 0.71029 0.38343 0.0
C2798 C 0.90946 0.699 0.29781 0.0
C2799 C 0.90826 0.70476 0.26486 0.0
C2800 C 0.91448 0.71803 0.26105 0.0
C2801 C 0.92282 0.72525 0.28899 0.0
C2802 C 0.92407 0.71949 0.32162 0.0
H2803 H 0.8946 0.70965 0.40633 0.0
H2804 H 0.9075 0.72045 0.379 0.0
H2805 H 0.89565 0.70666 0.35743 0.0
H2806 H 0.90389 0.68889 0.3016 0.0
H2807 H 0.90172 0.69901 0.24384 0.0
H2808 H 0.39529 0.26763 0.51952 0.0
H2809 H 0.38805 0.27098 0.45909 0.0
H2810 H 0.36016 0.2793 0.51256 0.0
H2811 H 0.36762 0.27625 0.57372 0.0
H2812 H 0.36496 0.25678 0.43189 0.0
H2813 H 0.37456 0.30775 0.4358 0.0
H2814 H 0.38138 0.30092 0.46857 0.0
H2815 H 0.36553 0.29835 0.47399 0.0
C2816 C 0.38767 0.27028 0.51856 0.0
C2817 C 0.38195 0.27158 0.55138 0.0
C2818 C 0.38358 0.27223 0.48396 0.0
C2819 C 0.37363 0.27548 0.4813 0.0
C2820 C 0.36801 0.27704 0.514 0.0
H2821 H 0.32994 0.27336 0.28649 0.0
H2822 H 0.33835 0.27616 0.34962 0.0
C2823 C 0.37221 0.2752 0.54887 0.0
C2824 C 0.36865 0.27614 0.44405 0.0
H2825 H 0.36361 0.29581 0.38309 0.0
C2826 C 0.3647 0.26533 0.42124 0.0
C2827 C 0.36827 0.2873 0.43032 0.0
C2828 C 0.37275 0.29929 0.45325 0.0
C2829 C 0.36045 0.26538 0.38499 0.0
C2830 C 0.36022 0.27654 0.37107 0.0
C2831 C 0.36391 0.28731 0.39396 0.0
C2832 C 0.35601 0.27697 0.33272 0.0
C2833 C 0.3562 0.25345 0.36175 0.0
C2834 C 0.36334 0.27689 0.30239 0.0
C2835 C 0.35859 0.27528 0.26624 0.0
C2836 C 0.34637 0.27363 0.25994 0.0
C2837 C 0.33932 0.27444 0.29036 0.0
C2838 C 0.34412 0.27612 0.32645 0.0
H2839 H 0.35504 0.24506 0.37861 0.0
H2840 H 0.34724 0.25143 0.34782 0.0
H2841 H 0.36318 0.25483 0.33975 0.0
H2842 H 0.37257 0.27758 0.30686 0.0
H2843 H 0.36429 0.27477 0.24349 0.0
H2844 H 0.71892 0.11441 0.52161 0.0
H2845 H 0.72271 0.10553 0.46442 0.0
H2846 H 0.73933 0.08559 0.52736 0.0
H2847 H 0.73575 0.09467 0.58518 0.0
H2848 H 0.75421 0.09988 0.47089 0.0
H2849 H 0.70701 0.07091 0.4154 0.0
H2850 H 0.70959 0.08679 0.42698 0.0
H2851 H 0.70977 0.07625 0.46316 0.0
C2852 C 0.7232 0.10797 0.52356 0.0
C2853 C 0.7271 0.10533 0.55816 0.0
C2854 C 0.72526 0.10279 0.49069 0.0
C2855 C 0.73116 0.09475 0.4915 0.0
C2856 C 0.73468 0.09171 0.52607 0.0
H2857 H 0.76474 0.06909 0.31518 0.0
H2858 H 0.75502 0.07088 0.37317 0.0
C2859 C 0.7326 0.09688 0.55913 0.0
C2860 C 0.73485 0.09074 0.45607 0.0
H2861 H 0.72382 0.07657 0.37189 0.0
C2862 C 0.74754 0.09462 0.44949 0.0
C2863 C 0.72616 0.084 0.4279 0.0
C2864 C 0.71236 0.07914 0.4338 0.0
C2865 C 0.75183 0.0923 0.41526 0.0
C2866 C 0.74317 0.08568 0.38693 0.0
C2867 C 0.73045 0.08166 0.39357 0.0
C2868 C 0.7473 0.08298 0.35032 0.0
C2869 C 0.76566 0.09734 0.40929 0.0
C2870 C 0.74556 0.08856 0.31757 0.0
C2871 C 0.75102 0.08744 0.28403 0.0
C2872 C 0.75834 0.08076 0.28287 0.0
C2873 C 0.75932 0.07448 0.31521 0.0
C2874 C 0.7538 0.07552 0.34847 0.0
H2875 H 0.77105 0.10482 0.42989 0.0
H2876 H 0.76838 0.08946 0.4124 0.0
H2877 H 0.7683 0.10134 0.3809 0.0
H2878 H 0.74049 0.09429 0.31834 0.0
H2879 H 0.75009 0.09239 0.25966 0.0
H2880 H 0.94239 0.40536 0.13294 0.0
H2881 H 0.95201 0.40236 0.18941 0.0
H2882 H 0.9878 0.41849 0.13559 0.0
H2883 H 0.97819 0.42171 0.07854 0.0
H2884 H 0.96684 0.38936 0.20481 0.0
H2885 H 0.99223 0.44167 0.2271 0.0
H2886 H 0.97973 0.43481 0.1939 0.0
H2887 H 0.99468 0.43549 0.1836 0.0
C2888 C 0.95231 0.40822 0.13289 0.0
C2889 C 0.95957 0.41398 0.10141 0.0
C2890 C 0.95778 0.40642 0.16518 0.0
C2891 C 0.97063 0.41037 0.16686 0.0
C2892 C 0.97787 0.41553 0.13497 0.0
H2893 H 0.00947 0.41991 0.37974 0.0
H2894 H 0.00568 0.41785 0.31273 0.0
C2895 C 0.97237 0.4173 0.10237 0.0
C2896 C 0.97631 0.40979 0.20302 0.0
H2897 H 0.9929 0.42853 0.27515 0.0
C2898 C 0.97271 0.3979 0.22002 0.0
C2899 C 0.98396 0.42095 0.22275 0.0
C2900 C 0.98786 0.43399 0.20618 0.0
C2901 C 0.97621 0.39691 0.25672 0.0
C2902 C 0.98331 0.40811 0.27713 0.0
C2903 C 0.98744 0.41995 0.25947 0.0
C2904 C 0.98568 0.40791 0.3176 0.0
C2905 C 0.97213 0.38389 0.27345 0.0
C2906 C 0.9757 0.40289 0.34266 0.0
C2907 C 0.97782 0.40404 0.38104 0.0
C2908 C 0.98997 0.41035 0.39518 0.0
C2909 C -2e-05 0.41502 0.36994 0.0
C2910 C 0.99784 0.41385 0.33157 0.0
H2911 H 0.97058 0.37662 0.2516 0.0
H2912 H 0.9791 0.38373 0.29359 0.0
H2913 H 0.96322 0.38119 0.28837 0.0
H2914 H 0.96622 0.39854 0.33255 0.0
H2915 H 0.96989 0.40039 0.39953 0.0
H2916 H 0.57083 0.60515 0.07674 0.0
H2917 H 0.56938 0.60928 0.14261 0.0
H2918 H 0.5787 0.57877 0.17167 0.0
H2919 H 0.58022 0.5745 0.10553 0.0
H2920 H 0.5519 0.58949 0.19034 0.0
H2921 H 0.60056 0.60902 0.24264 0.0
H2922 H 0.59698 0.60964 0.19403 0.0
H2923 H 0.59497 0.59488 0.21436 0.0
C2924 C 0.5728 0.59941 0.09697 0.0
C2925 C 0.57557 0.58942 0.08561 0.0
C2926 C 0.57196 0.60182 0.1347 0.0
C2927 C 0.57398 0.59438 0.16202 0.0
C2928 C 0.57727 0.58474 0.15102 0.0
H2929 H 0.55967 0.59426 0.40267 0.0
H2930 H 0.56724 0.59046 0.34246 0.0
C2931 C 0.57808 0.58229 0.11315 0.0
C2932 C 0.57138 0.59599 0.20157 0.0
H2933 H 0.58494 0.60664 0.2864 0.0
C2934 C 0.55912 0.5932 0.21136 0.0
C2935 C 0.58079 0.60064 0.22903 0.0
C2936 C 0.5941 0.60381 0.21972 0.0
C2937 C 0.55602 0.59517 0.24764 0.0
C2938 C 0.5655 0.60037 0.27479 0.0
C2939 C 0.57772 0.60275 0.26545 0.0
C2940 C 0.5628 0.60393 0.31226 0.0
C2941 C 0.5426 0.59168 0.25658 0.0
C2942 C 0.55834 0.61315 0.3155 0.0
C2943 C 0.55398 0.61528 0.34956 0.0
C2944 C 0.55411 0.60834 0.38134 0.0
C2945 C 0.55945 0.59977 0.37872 0.0
C2946 C 0.56375 0.59756 0.34435 0.0
H2947 H 0.5362 0.58465 0.23641 0.0
H2948 H 0.54019 0.58767 0.28505 0.0
H2949 H 0.54101 0.60033 0.25514 0.0
H2950 H 0.55776 0.61835 0.29124 0.0
H2951 H 0.55008 0.62207 0.35068 0.0
H2952 H 0.39243 0.99671 0.40825 0.0
H2953 H 0.39082 0.00101 0.34227 0.0
H2954 H 0.37682 0.96105 0.31772 0.0
H2955 H 0.37826 0.95664 0.38327 0.0
H2956 H 0.40417 0.99517 0.28775 0.0
H2957 H 0.35377 0.9713 0.25671 0.0
H2958 H 0.35977 0.97527 0.3035 0.0
H2959 H 0.35927 0.96132 0.28088 0.0
C2960 C 0.38874 0.98881 0.38894 0.0
C2961 C 0.38555 0.97634 0.40102 0.0
C2962 C 0.38784 0.99129 0.35127 0.0
C2963 C 0.38357 0.98133 0.32522 0.0
C2964 C 0.3799 0.96884 0.33744 0.0
H2965 H 0.38574 0.96883 0.092 0.0
H2966 H 0.3814 0.96767 0.15871 0.0
C2967 C 0.38085 0.96636 0.37495 0.0
C2968 C 0.38435 0.98405 0.28488 0.0
H2969 H 0.36753 0.97616 0.20431 0.0
C2970 C 0.39614 0.99122 0.26952 0.0
C2971 C 0.37386 0.97876 0.26125 0.0
C2972 C 0.36093 0.97133 0.27643 0.0
C2973 C 0.39782 0.99278 0.23095 0.0
C2974 C 0.38736 0.98727 0.20719 0.0
C2975 C 0.37552 0.98039 0.22261 0.0
C2976 C 0.38871 0.98801 0.16621 0.0
C2977 C 0.41086 -0.00022 0.21594 0.0
C2978 C 0.39386 -0.00019 0.14817 0.0
C2979 C 0.39646 0.00053 0.11014 0.0
C2980 C 0.39379 0.98943 0.08936 0.0
C2981 C 0.38795 0.97757 0.10716 0.0
C2982 C 0.38545 0.97688 0.14528 0.0
H2983 H 0.41798 0.00077 0.23718 0.0
H2984 H 0.41225 0.99481 0.19131 0.0
H2985 H 0.41243 0.00946 0.20723 0.0
H2986 H 0.39618 0.0085 0.16371 0.0
H2987 H 0.4008 0.00981 0.09723 0.0
H2988 H 0.57867 0.98122 0.88025 0.0
H2989 H 0.58373 0.99163 0.81982 0.0
H2990 H 0.58265 0.02502 0.86714 0.0
H2991 H 0.5775 0.01462 0.92815 0.0
H2992 H 0.56683 0.99956 0.78525 0.0
H2993 H 0.61416 0.03905 0.79917 0.0
H2994 H 0.60834 0.02542 0.8297 0.0
H2995 H 0.60358 0.03787 0.83611 0.0
C2996 C 0.57968 0.99086 0.8781 0.0
C2997 C 0.57748 0.99703 0.90901 0.0
C2998 C 0.58262 0.9968 0.84348 0.0
C2999 C 0.58358 0.00908 0.83902 0.0
C3000 C 0.58211 0.01558 0.87015 0.0
H3001 H 0.5831 0.05902 0.6716 0.0
H3002 H 0.58589 0.04823 0.72573 0.0
C3003 C 0.57913 0.00961 0.90497 0.0
C3004 C 0.58459 0.0144 0.80113 0.0
H3005 H 0.60244 0.03945 0.74598 0.0
C3006 C 0.57468 0.0082 0.77638 0.0
C3007 C 0.59486 0.02561 0.78978 0.0
C3008 C 0.60591 0.03236 0.81489 0.0
C3009 C 0.57444 0.01327 0.74121 0.0
C3010 C 0.58457 0.02472 0.73012 0.0
C3011 C 0.59471 0.03065 0.75441 0.0
C3012 C 0.58408 0.03148 0.69568 0.0
C3013 C 0.56303 0.00672 0.71721 0.0
C3014 C 0.58244 0.0258 0.66031 0.0
C3015 C 0.58066 0.03193 0.6289 0.0
C3016 C 0.58059 0.04388 0.63243 0.0
C3017 C 0.5829 0.04975 0.66768 0.0
C3018 C 0.58459 0.04363 0.69882 0.0
H3019 H 0.5551 0.99954 0.73303 0.0
H3020 H 0.56009 0.01371 0.70516 0.0
H3021 H 0.56518 0.00175 0.69395 0.0
H3022 H 0.5823 0.01654 0.6571 0.0
H3023 H 0.57905 0.0272 0.60216 0.0
H3024 H 0.01459 0.59625 0.60385 0.0
H3025 H 0.02393 0.60378 0.66527 0.0
H3026 H 0.99114 0.60739 0.6999 0.0
H3027 H 0.98171 0.59984 0.63894 0.0
H3028 H 0.01815 0.62844 0.72287 0.0
H3029 H 0.00479 0.57769 0.75693 0.0
H3030 H 0.01242 0.5836 0.71309 0.0
H3031 H 0.99712 0.58235 0.72081 0.0
C3032 C 0.00951 0.59895 0.62421 0.0
C3033 C 0.99736 0.59729 0.61675 0.0
C3034 C 0.01483 0.60322 0.65925 0.0
C3035 C 0.00816 0.60604 0.687 0.0
C3036 C 0.99641 0.60525 0.67878 0.0
H3037 H 0.02317 0.60224 0.92271 0.0
H3038 H 0.0118 0.60301 0.86661 0.0
C3039 C 0.99104 0.60088 0.644 0.0
C3040 C 0.01275 0.60834 0.72574 0.0
H3041 H 0.01629 0.59292 0.80194 0.0
C3042 C 0.01773 0.62071 0.74032 0.0
C3043 C 0.01188 0.59817 0.74851 0.0
C3044 C 0.0062 0.58466 0.73434 0.0
C3045 C 0.02233 0.62322 0.77694 0.0
C3046 C 0.02194 0.61309 0.79922 0.0
C3047 C 0.01652 0.60067 0.78492 0.0
C3048 C 0.02827 0.61515 0.83579 0.0
C3049 C 0.02762 0.63666 0.7914 0.0
C3050 C 0.04121 0.62207 0.83748 0.0
C3051 C 0.04768 0.62159 0.86924 0.0
C3052 C 0.04133 0.61416 0.89997 0.0
C3053 C 0.02828 0.60809 0.89954 0.0
C3054 C 0.0218 0.60849 0.86747 0.0
H3055 H 0.02368 0.64236 0.77634 0.0
H3056 H 0.02579 0.63688 0.82162 0.0
H3057 H 0.03782 0.64125 0.78707 0.0
H3058 H 0.04643 0.62708 0.81326 0.0
H3059 H 0.05773 0.62638 0.86884 0.0
H3060 H 0.40908 0.43177 0.60753 0.0
H3061 H 0.40027 0.43395 0.66742 0.0
H3062 H 0.41762 0.41298 0.72152 0.0
H3063 H 0.42647 0.41082 0.66234 0.0
H3064 H 0.38532 0.41535 0.72594 0.0
H3065 H 0.43289 0.44885 0.77142 0.0
H3066 H 0.429 0.44457 0.72325 0.0
H3067 H 0.43125 0.43376 0.75434 0.0
C3068 C 0.41082 0.42742 0.63205 0.0
C3069 C 0.41865 0.42131 0.63022 0.0
C3070 C 0.40579 0.42868 0.66623 0.0
C3071 C 0.4085 0.42382 0.69896 0.0
C3072 C 0.4156 0.41698 0.6967 0.0
H3073 H 0.40237 0.44042 0.93327 0.0
H3074 H 0.40514 0.43018 0.87667 0.0
C3075 C 0.42065 0.41577 0.66278 0.0
C3076 C 0.40482 0.42673 0.73591 0.0
H3077 H 0.41694 0.44344 0.81572 0.0
C3078 C 0.39221 0.42148 0.74564 0.0
C3079 C 0.41384 0.43466 0.76161 0.0
C3080 C 0.4275 0.44089 0.75219 0.0
C3081 C 0.38838 0.42392 0.78059 0.0
C3082 C 0.39741 0.43203 0.8061 0.0
C3083 C 0.41002 0.43713 0.79639 0.0
C3084 C 0.39406 0.4363 0.84162 0.0
C3085 C 0.37473 0.41769 0.78995 0.0
C3086 C 0.38672 0.44291 0.84096 0.0
C3087 C 0.3851 0.44871 0.87314 0.0
C3088 C 0.3909 0.44817 0.90677 0.0
C3089 C 0.39775 0.441 0.90792 0.0
C3090 C 0.39937 0.43518 0.87554 0.0
H3091 H 0.36975 0.40871 0.77411 0.0
H3092 H 0.3732 0.4156 0.82014 0.0
H3093 H 0.37057 0.42418 0.78224 0.0
H3094 H 0.38275 0.44417 0.81511 0.0
H3095 H 0.3797 0.45409 0.87118 0.0
loop_
_geom_bond_atom_site_label_1
_geom_bond_atom_site_label_2
_geom_bond_distance
_geom_bond_site_symmetry_2
_ccdc_geom_bond_type
Co0 O1 2.216 . S
Co0 O2 2.091 . S
Co0 O4 2.004 . S
Co0 O10 2.021 . S
Co0 O12 2.137 . S
Co0 O13 2.244 . S
O1 Co0 2.216 . S
O1 C8 1.247 . S
O2 Co0 2.091 . S
O2 C8 1.261 . S
C3 O12 1.247 . S
C3 O13 1.272 . S
O4 Co0 2.004 . S
O4 C9 1.259 . S
Co5 O6 2.061 . S
Co5 O11 2.052 . S
Co5 O13 2.135 . S
O6 Co5 2.061 . S
O6 C9 1.235 . S
C7 O10 1.238 . S
C7 O11 1.241 . S
C8 O1 1.247 . S
C8 O2 1.261 . S
C9 O4 1.259 . S
C9 O6 1.235 . S
O10 Co0 2.021 . S
O10 C7 1.238 . S
O11 Co5 2.052 . S
O11 C7 1.241 . S
O12 Co0 2.137 . S
O12 C3 1.247 . S
O13 Co0 2.244 . S
O13 C3 1.272 . S
O13 Co5 2.135 . S
Co14 O15 2.216 . S
Co14 O16 2.091 . S
Co14 O18 2.004 . S
Co14 O24 2.021 . S
Co14 O26 2.137 . S
Co14 O27 2.244 . S
O15 Co14 2.216 . S
O15 C22 1.247 . S
O16 Co14 2.091 . S
O16 C22 1.261 . S
C17 O26 1.247 . S
C17 O27 1.272 . S
O18 Co14 2.004 . S
O18 C23 1.259 . S
Co19 O20 2.061 . S
Co19 O25 2.052 . S
Co19 O27 2.135 . S
O20 Co19 2.061 . S
O20 C23 1.235 . S
C21 O24 1.238 . S
C21 O25 1.241 . S
C22 O15 1.247 . S
C22 O16 1.261 . S
C23 O18 1.259 . S
C23 O20 1.235 . S
O24 Co14 2.021 . S
O24 C21 1.238 . S
O25 Co19 2.052 . S
O25 C21 1.241 . S
O26 Co14 2.137 . S
O26 C17 1.247 . S
O27 Co14 2.244 . S
O27 C17 1.272 . S
O27 Co19 2.135 . S
Co28 O29 2.216 . S
Co28 O30 2.091 . S
Co28 O32 2.004 . S
Co28 O38 2.021 . S
Co28 O40 2.137 . S
Co28 O41 2.244 . S
O29 Co28 2.216 . S
O29 C36 1.247 . S
O30 Co28 2.091 . S
O30 C36 1.261 . S
C31 O40 1.247 . S
C31 O41 1.272 . S
O32 Co28 2.004 . S
O32 C37 1.259 . S
Co33 O34 2.061 . S
Co33 O39 2.052 . S
Co33 O41 2.135 . S
O34 Co33 2.061 . S
O34 C37 1.235 . S
C35 O38 1.238 . S
C35 O39 1.241 . S
C36 O29 1.247 . S
C36 O30 1.261 . S
C37 O32 1.259 . S
C37 O34 1.235 . S
O38 Co28 2.021 . S
O38 C35 1.238 . S
O39 Co33 2.052 . S
O39 C35 1.241 . S
O40 Co28 2.137 . S
O40 C31 1.247 . S
O41 Co28 2.244 . S
O41 C31 1.272 . S
O41 Co33 2.135 . S
Co42 O43 2.216 . S
Co42 O44 2.091 . S
Co42 O46 2.004 . S
Co42 O52 2.021 . S
Co42 O54 2.137 . S
Co42 O55 2.244 . S
O43 Co42 2.216 . S
O43 C50 1.247 . S
O44 Co42 2.091 . S
O44 C50 1.261 . S
C45 O54 1.247 . S
C45 O55 1.272 . S
O46 Co42 2.004 . S
O46 C51 1.259 . S
Co47 O48 2.061 . S
Co47 O53 2.052 . S
Co47 O55 2.135 . S
O48 Co47 2.061 . S
O48 C51 1.235 . S
C49 O52 1.238 . S
C49 O53 1.241 . S
C50 O43 1.247 . S
C50 O44 1.261 . S
C51 O46 1.259 . S
C51 O48 1.235 . S
O52 Co42 2.021 . S
O52 C49 1.238 . S
O53 Co47 2.052 . S
O53 C49 1.241 . S
O54 Co42 2.137 . S
O54 C45 1.247 . S
O55 Co42 2.244 . S
O55 C45 1.272 . S
O55 Co47 2.135 . S
Co56 O57 2.216 . S
Co56 O58 2.091 . S
Co56 O60 2.004 . S
Co56 O66 2.021 . S
Co56 O68 2.137 . S
Co56 O69 2.244 . S
O57 Co56 2.216 . S
O57 C64 1.247 . S
O58 Co56 2.091 . S
O58 C64 1.261 . S
C59 O68 1.247 . S
C59 O69 1.272 . S
O60 Co56 2.004 . S
O60 C65 1.259 . S
Co61 O62 2.061 . S
Co61 O67 2.052 . S
Co61 O69 2.135 . S
O62 Co61 2.061 . S
O62 C65 1.235 . S
C63 O66 1.238 . S
C63 O67 1.241 . S
C64 O57 1.247 . S
C64 O58 1.261 . S
C65 O60 1.259 . S
C65 O62 1.235 . S
O66 Co56 2.021 . S
O66 C63 1.238 . S
O67 Co61 2.052 . S
O67 C63 1.241 . S
O68 Co56 2.137 . S
O68 C59 1.247 . S
O69 Co56 2.244 . S
O69 C59 1.272 . S
O69 Co61 2.135 . S
Co70 O71 2.216 . S
Co70 O72 2.091 . S
Co70 O74 2.004 . S
Co70 O80 2.021 . S
Co70 O82 2.137 . S
Co70 O83 2.244 . S
O71 Co70 2.216 . S
O71 C78 1.247 . S
O72 Co70 2.091 . S
O72 C78 1.261 . S
C73 O82 1.247 . S
C73 O83 1.272 . S
O74 Co70 2.004 . S
O74 C79 1.259 . S
Co75 O76 2.061 . S
Co75 O81 2.052 . S
Co75 O83 2.135 . S
O76 Co75 2.061 . S
O76 C79 1.235 . S
C77 O80 1.238 . S
C77 O81 1.241 . S
C78 O71 1.247 . S
C78 O72 1.261 . S
C79 O74 1.259 . S
C79 O76 1.235 . S
O80 Co70 2.021 . S
O80 C77 1.238 . S
O81 Co75 2.052 . S
O81 C77 1.241 . S
O82 Co70 2.137 . S
O82 C73 1.247 . S
O83 Co70 2.244 . S
O83 C73 1.272 . S
O83 Co75 2.135 . S
Co84 O85 2.216 . S
Co84 O86 2.091 . S
Co84 O88 2.004 . S
Co84 O94 2.021 . S
Co84 O96 2.137 . S
Co84 O97 2.244 . S
O85 Co84 2.216 . S
O85 C92 1.247 . S
O86 Co84 2.091 . S
O86 C92 1.261 . S
C87 O96 1.247 . S
C87 O97 1.272 . S
O88 Co84 2.004 . S
O88 C93 1.259 . S
Co89 O90 2.061 . S
Co89 O95 2.052 . S
Co89 O97 2.135 . S
O90 Co89 2.061 . S
O90 C93 1.235 . S
C91 O94 1.238 . S
C91 O95 1.241 . S
C92 O85 1.247 . S
C92 O86 1.261 . S
C93 O88 1.259 . S
C93 O90 1.235 . S
O94 Co84 2.021 . S
O94 C91 1.238 . S
O95 Co89 2.052 . S
O95 C91 1.241 . S
O96 Co84 2.137 . S
O96 C87 1.247 . S
O97 Co84 2.244 . S
O97 C87 1.272 . S
O97 Co89 2.135 . S
Co98 O99 2.216 . S
Co98 O100 2.091 . S
Co98 O102 2.004 . S
Co98 O108 2.021 . S
Co98 O110 2.137 . S
Co98 O111 2.244 . S
O99 Co98 2.216 . S
O99 C106 1.247 . S
O100 Co98 2.091 . S
O100 C106 1.261 . S
C101 O110 1.247 . S
C101 O111 1.272 . S
O102 Co98 2.004 . S
O102 C107 1.259 . S
Co103 O104 2.061 . S
Co103 O109 2.052 . S
Co103 O111 2.135 . S
O104 Co103 2.061 . S
O104 C107 1.235 . S
C105 O108 1.238 . S
C105 O109 1.241 . S
C106 O99 1.247 . S
C106 O100 1.261 . S
C107 O102 1.259 . S
C107 O104 1.235 . S
O108 Co98 2.021 . S
O108 C105 1.238 . S
O109 Co103 2.052 . S
O109 C105 1.241 . S
O110 Co98 2.137 . S
O110 C101 1.247 . S
O111 Co98 2.244 . S
O111 C101 1.272 . S
O111 Co103 2.135 . S
Co112 O113 2.216 . S
Co112 O114 2.091 . S
Co112 O116 2.004 . S
Co112 O122 2.021 . S
Co112 O124 2.137 . S
Co112 O125 2.244 . S
O113 Co112 2.216 . S
O113 C120 1.247 . S
O114 Co112 2.091 . S
O114 C120 1.261 . S
C115 O124 1.247 . S
C115 O125 1.272 . S
O116 Co112 2.004 . S
O116 C121 1.259 . S
Co117 O118 2.061 . S
Co117 O123 2.052 . S
Co117 O125 2.135 . S
O118 Co117 2.061 . S
O118 C121 1.235 . S
C119 O122 1.238 . S
C119 O123 1.241 . S
C120 O113 1.247 . S
C120 O114 1.261 . S
C121 O116 1.259 . S
C121 O118 1.235 . S
O122 Co112 2.021 . S
O122 C119 1.238 . S
O123 Co117 2.052 . S
O123 C119 1.241 . S
O124 Co112 2.137 . S
O124 C115 1.247 . S
O125 Co112 2.244 . S
O125 C115 1.272 . S
O125 Co117 2.135 . S
Co126 O127 2.216 . S
Co126 O128 2.091 . S
Co126 O130 2.004 . S
Co126 O136 2.021 . S
Co126 O138 2.137 . S
Co126 O139 2.244 . S
O127 Co126 2.216 . S
O127 C134 1.247 . S
O128 Co126 2.091 . S
O128 C134 1.261 . S
C129 O138 1.247 . S
C129 O139 1.272 . S
O130 Co126 2.004 . S
O130 C135 1.259 . S
Co131 O132 2.061 . S
Co131 O137 2.052 . S
Co131 O139 2.135 . S
O132 Co131 2.061 . S
O132 C135 1.235 . S
C133 O136 1.238 . S
C133 O137 1.241 . S
C134 O127 1.247 . S
C134 O128 1.261 . S
C135 O130 1.259 . S
C135 O132 1.235 . S
O136 Co126 2.021 . S
O136 C133 1.238 . S
O137 Co131 2.052 . S
O137 C133 1.241 . S
O138 Co126 2.137 . S
O138 C129 1.247 . S
O139 Co126 2.244 . S
O139 C129 1.272 . S
O139 Co131 2.135 . S
Co140 O141 2.216 . S
Co140 O142 2.091 . S
Co140 O144 2.004 . S
Co140 O150 2.021 . S
Co140 O152 2.137 . S
Co140 O153 2.244 . S
O141 Co140 2.216 . S
O141 C148 1.247 . S
O142 Co140 2.091 . S
O142 C148 1.261 . S
C143 O152 1.247 . S
C143 O153 1.272 . S
O144 Co140 2.004 . S
O144 C149 1.259 . S
Co145 O146 2.061 . S
Co145 O151 2.052 . S
Co145 O153 2.135 . S
O146 Co145 2.061 . S
O146 C149 1.235 . S
C147 O150 1.238 . S
C147 O151 1.241 . S
C148 O141 1.247 . S
C148 O142 1.261 . S
C149 O144 1.259 . S
C149 O146 1.235 . S
O150 Co140 2.021 . S
O150 C147 1.238 . S
O151 Co145 2.052 . S
O151 C147 1.241 . S
O152 Co140 2.137 . S
O152 C143 1.247 . S
O153 Co140 2.244 . S
O153 C143 1.272 . S
O153 Co145 2.135 . S
Co154 O155 2.216 . S
Co154 O156 2.091 . S
Co154 O158 2.004 . S
Co154 O164 2.021 . S
Co154 O166 2.137 . S
Co154 O167 2.244 . S
O155 Co154 2.216 . S
O155 C162 1.247 . S
O156 Co154 2.091 . S
O156 C162 1.261 . S
C157 O166 1.247 . S
C157 O167 1.272 . S
O158 Co154 2.004 . S
O158 C163 1.259 . S
Co159 O160 2.061 . S
Co159 O165 2.052 . S
Co159 O167 2.135 . S
O160 Co159 2.061 . S
O160 C163 1.235 . S
C161 O164 1.238 . S
C161 O165 1.241 . S
C162 O155 1.247 . S
C162 O156 1.261 . S
C163 O158 1.259 . S
C163 O160 1.235 . S
O164 Co154 2.021 . S
O164 C161 1.238 . S
O165 Co159 2.052 . S
O165 C161 1.241 . S
O166 Co154 2.137 . S
O166 C157 1.247 . S
O167 Co154 2.244 . S
O167 C157 1.272 . S
O167 Co159 2.135 . S
Co168 O169 2.216 . S
Co168 O170 2.091 . S
Co168 O172 2.004 . S
Co168 O178 2.021 1_455 S
Co168 O180 2.137 . S
Co168 O181 2.244 1_455 S
O169 Co168 2.216 . S
O169 C176 1.247 . S
O170 Co168 2.091 . S
O170 C176 1.261 . S
C171 O180 1.247 1_655 S
C171 O181 1.272 . S
O172 Co168 2.004 . S
O172 C177 1.259 . S
Co173 O174 2.061 . S
Co173 O179 2.052 . S
Co173 O181 2.135 . S
O174 Co173 2.061 . S
O174 C177 1.235 1_655 S
C175 O178 1.238 . S
C175 O179 1.241 . S
C176 O169 1.247 . S
C176 O170 1.261 . S
C177 O172 1.259 . S
C177 O174 1.235 1_455 S
O178 Co168 2.021 1_655 S
O178 C175 1.238 . S
O179 Co173 2.052 . S
O179 C175 1.241 . S
O180 Co168 2.137 . S
O180 C171 1.247 1_455 S
O181 Co168 2.244 1_655 S
O181 C171 1.272 . S
O181 Co173 2.135 . S
Co182 O183 2.216 . S
Co182 O184 2.091 . S
Co182 O186 2.004 . S
Co182 O192 2.021 . S
Co182 O194 2.137 . S
Co182 O195 2.244 . S
O183 Co182 2.216 . S
O183 C190 1.247 . S
O184 Co182 2.091 . S
O184 C190 1.261 . S
C185 O194 1.247 . S
C185 O195 1.272 . S
O186 Co182 2.004 . S
O186 C191 1.259 . S
Co187 O188 2.061 . S
Co187 O193 2.052 . S
Co187 O195 2.135 . S
O188 Co187 2.061 . S
O188 C191 1.235 . S
C189 O192 1.238 . S
C189 O193 1.241 . S
C190 O183 1.247 . S
C190 O184 1.261 . S
C191 O186 1.259 . S
C191 O188 1.235 . S
O192 Co182 2.021 . S
O192 C189 1.238 . S
O193 Co187 2.052 . S
O193 C189 1.241 . S
O194 Co182 2.137 . S
O194 C185 1.247 . S
O195 Co182 2.244 . S
O195 C185 1.272 . S
O195 Co187 2.135 . S
Co196 O197 2.216 . S
Co196 O198 2.091 . S
Co196 O200 2.004 . S
Co196 O206 2.021 . S
Co196 O208 2.137 . S
Co196 O209 2.244 . S
O197 Co196 2.216 . S
O197 C204 1.247 . S
O198 Co196 2.091 . S
O198 C204 1.261 . S
C199 O208 1.247 . S
C199 O209 1.272 . S
O200 Co196 2.004 . S
O200 C205 1.259 . S
Co201 O202 2.061 . S
Co201 O207 2.052 . S
Co201 O209 2.135 . S
O202 Co201 2.061 . S
O202 C205 1.235 . S
C203 O206 1.238 . S
C203 O207 1.241 . S
C204 O197 1.247 . S
C204 O198 1.261 . S
C205 O200 1.259 . S
C205 O202 1.235 . S
O206 Co196 2.021 . S
O206 C203 1.238 . S
O207 Co201 2.052 . S
O207 C203 1.241 . S
O208 Co196 2.137 . S
O208 C199 1.247 . S
O209 Co196 2.244 . S
O209 C199 1.272 . S
O209 Co201 2.135 . S
Co210 O211 2.216 . S
Co210 O212 2.091 . S
Co210 O214 2.004 . S
Co210 O220 2.021 . S
Co210 O222 2.137 . S
Co210 O223 2.244 . S
O211 Co210 2.216 . S
O211 C218 1.247 . S
O212 Co210 2.091 . S
O212 C218 1.261 . S
C213 O222 1.247 . S
C213 O223 1.272 . S
O214 Co210 2.004 . S
O214 C219 1.259 . S
Co215 O216 2.061 . S
Co215 O221 2.052 . S
Co215 O223 2.135 . S
O216 Co215 2.061 . S
O216 C219 1.235 . S
C217 O220 1.238 . S
C217 O221 1.241 . S
C218 O211 1.247 . S
C218 O212 1.261 . S
C219 O214 1.259 . S
C219 O216 1.235 . S
O220 Co210 2.021 . S
O220 C217 1.238 . S
O221 Co215 2.052 . S
O221 C217 1.241 . S
O222 Co210 2.137 . S
O222 C213 1.247 . S
O223 Co210 2.244 . S
O223 C213 1.272 . S
O223 Co215 2.135 . S
Co224 O225 2.216 . S
Co224 O226 2.091 . S
Co224 O228 2.004 . S
Co224 O234 2.021 . S
Co224 O236 2.137 . S
Co224 O237 2.244 . S
O225 Co224 2.216 . S
O225 C232 1.247 . S
O226 Co224 2.091 . S
O226 C232 1.261 . S
C227 O236 1.247 . S
C227 O237 1.272 . S
O228 Co224 2.004 . S
O228 C233 1.259 . S
Co229 O230 2.061 . S
Co229 O235 2.052 . S
Co229 O237 2.135 . S
O230 Co229 2.061 . S
O230 C233 1.235 . S
C231 O234 1.238 . S
C231 O235 1.241 . S
C232 O225 1.247 . S
C232 O226 1.261 . S
C233 O228 1.259 . S
C233 O230 1.235 . S
O234 Co224 2.021 . S
O234 C231 1.238 . S
O235 Co229 2.052 . S
O235 C231 1.241 . S
O236 Co224 2.137 . S
O236 C227 1.247 . S
O237 Co224 2.244 . S
O237 C227 1.272 . S
O237 Co229 2.135 . S
Co238 O239 2.216 . S
Co238 O240 2.091 . S
Co238 O242 2.004 . S
Co238 O248 2.021 . S
Co238 O250 2.137 . S
Co238 O251 2.244 . S
O239 Co238 2.216 . S
O239 C246 1.247 . S
O240 Co238 2.091 . S
O240 C246 1.261 . S
C241 O250 1.247 . S
C241 O251 1.272 . S
O242 Co238 2.004 . S
O242 C247 1.259 . S
Co243 O244 2.061 . S
Co243 O249 2.052 . S
Co243 O251 2.135 . S
O244 Co243 2.061 . S
O244 C247 1.235 . S
C245 O248 1.238 . S
C245 O249 1.241 . S
C246 O239 1.247 . S
C246 O240 1.261 . S
C247 O242 1.259 . S
C247 O244 1.235 . S
O248 Co238 2.021 . S
O248 C245 1.238 . S
O249 Co243 2.052 . S
O249 C245 1.241 . S
O250 Co238 2.137 . S
O250 C241 1.247 . S
O251 Co238 2.244 . S
O251 C241 1.272 . S
O251 Co243 2.135 . S
Co252 O253 2.216 . S
Co252 O254 2.091 . S
Co252 O256 2.004 . S
Co252 O262 2.021 . S
Co252 O264 2.137 . S
Co252 O265 2.244 . S
O253 Co252 2.216 . S
O253 C260 1.247 . S
O254 Co252 2.091 . S
O254 C260 1.261 . S
C255 O264 1.247 . S
C255 O265 1.272 . S
O256 Co252 2.004 . S
O256 C261 1.259 . S
Co257 O258 2.061 . S
Co257 O263 2.052 . S
Co257 O265 2.135 . S
O258 Co257 2.061 . S
O258 C261 1.235 . S
C259 O262 1.238 . S
C259 O263 1.241 . S
C260 O253 1.247 . S
C260 O254 1.261 . S
C261 O256 1.259 . S
C261 O258 1.235 . S
O262 Co252 2.021 . S
O262 C259 1.238 . S
O263 Co257 2.052 . S
O263 C259 1.241 . S
O264 Co252 2.137 . S
O264 C255 1.247 . S
O265 Co252 2.244 . S
O265 C255 1.272 . S
O265 Co257 2.135 . S
Co266 O267 2.216 . S
Co266 O268 2.091 . S
Co266 O270 2.004 . S
Co266 O276 2.021 . S
Co266 O278 2.137 . S
Co266 O279 2.244 . S
O267 Co266 2.216 . S
O267 C274 1.247 . S
O268 Co266 2.091 . S
O268 C274 1.261 . S
C269 O278 1.247 . S
C269 O279 1.272 . S
O270 Co266 2.004 . S
O270 C275 1.259 . S
Co271 O272 2.061 . S
Co271 O277 2.052 . S
Co271 O279 2.135 . S
O272 Co271 2.061 . S
O272 C275 1.235 . S
C273 O276 1.238 . S
C273 O277 1.241 . S
C274 O267 1.247 . S
C274 O268 1.261 . S
C275 O270 1.259 . S
C275 O272 1.235 . S
O276 Co266 2.021 . S
O276 C273 1.238 . S
O277 Co271 2.052 . S
O277 C273 1.241 . S
O278 Co266 2.137 . S
O278 C269 1.247 . S
O279 Co266 2.244 . S
O279 C269 1.272 . S
O279 Co271 2.135 . S
Co280 O281 2.216 . S
Co280 O282 2.091 . S
Co280 O284 2.004 . S
Co280 O290 2.021 . S
Co280 O292 2.137 . S
Co280 O293 2.244 . S
O281 Co280 2.216 . S
O281 C288 1.247 . S
O282 Co280 2.091 . S
O282 C288 1.261 . S
C283 O292 1.247 . S
C283 O293 1.272 . S
O284 Co280 2.004 . S
O284 C289 1.259 . S
Co285 O286 2.061 . S
Co285 O291 2.052 . S
Co285 O293 2.135 . S
O286 Co285 2.061 . S
O286 C289 1.235 . S
C287 O290 1.238 . S
C287 O291 1.241 . S
C288 O281 1.247 . S
C288 O282 1.261 . S
C289 O284 1.259 . S
C289 O286 1.235 . S
O290 Co280 2.021 . S
O290 C287 1.238 . S
O291 Co285 2.052 . S
O291 C287 1.241 . S
O292 Co280 2.137 . S
O292 C283 1.247 . S
O293 Co280 2.244 . S
O293 C283 1.272 . S
O293 Co285 2.135 . S
Co294 O295 2.216 1_545 S
Co294 O296 2.091 . S
Co294 O298 2.004 1_554 S
Co294 O304 2.021 . S
Co294 O306 2.137 1_545 S
Co294 O307 2.244 1_544 S
O295 Co294 2.216 1_565 S
O295 C302 1.247 1_565 S
O296 Co294 2.091 . S
O296 C302 1.261 . S
C297 O306 1.247 1_556 S
C297 O307 1.272 . S
O298 Co294 2.004 1_556 S
O298 C303 1.259 . S
Co299 O300 2.061 . S
Co299 O305 2.052 . S
Co299 O307 2.135 . S
O300 Co299 2.061 . S
O300 C303 1.235 1_565 S
C301 O304 1.238 1_566 S
C301 O305 1.241 . S
C302 O295 1.247 1_545 S
C302 O296 1.261 . S
C303 O298 1.259 . S
C303 O300 1.235 1_545 S
O304 Co294 2.021 . S
O304 C301 1.238 1_544 S
O305 Co299 2.052 . S
O305 C301 1.241 . S
O306 Co294 2.137 1_565 S
O306 C297 1.247 1_554 S
O307 Co294 2.244 1_566 S
O307 C297 1.272 . S
O307 Co299 2.135 . S
Co308 O309 2.216 . S
Co308 O310 2.091 . S
Co308 O312 2.004 1_554 S
Co308 O318 2.021 . S
Co308 O320 2.137 . S
Co308 O321 2.244 1_554 S
O309 Co308 2.216 . S
O309 C316 1.247 . S
O310 Co308 2.091 . S
O310 C316 1.261 . S
C311 O320 1.247 1_556 S
C311 O321 1.272 . S
O312 Co308 2.004 1_556 S
O312 C317 1.259 . S
Co313 O314 2.061 . S
Co313 O319 2.052 . S
Co313 O321 2.135 . S
O314 Co313 2.061 . S
O314 C317 1.235 . S
C315 O318 1.238 1_556 S
C315 O319 1.241 . S
C316 O309 1.247 . S
C316 O310 1.261 . S
C317 O312 1.259 . S
C317 O314 1.235 . S
O318 Co308 2.021 . S
O318 C315 1.238 1_554 S
O319 Co313 2.052 . S
O319 C315 1.241 . S
O320 Co308 2.137 . S
O320 C311 1.247 1_554 S
O321 Co308 2.244 1_556 S
O321 C311 1.272 . S
O321 Co313 2.135 . S
Co322 O323 2.216 . S
Co322 O324 2.091 . S
Co322 O326 2.004 1_554 S
Co322 O332 2.021 . S
Co322 O334 2.137 . S
Co322 O335 2.244 1_554 S
O323 Co322 2.216 . S
O323 C330 1.247 . S
O324 Co322 2.091 . S
O324 C330 1.261 . S
C325 O334 1.247 1_556 S
C325 O335 1.272 . S
O326 Co322 2.004 1_556 S
O326 C331 1.259 . S
Co327 O328 2.061 . S
Co327 O333 2.052 . S
Co327 O335 2.135 . S
O328 Co327 2.061 . S
O328 C331 1.235 . S
C329 O332 1.238 1_556 S
C329 O333 1.241 . S
C330 O323 1.247 . S
C330 O324 1.261 . S
C331 O326 1.259 . S
C331 O328 1.235 . S
O332 Co322 2.021 . S
O332 C329 1.238 1_554 S
O333 Co327 2.052 . S
O333 C329 1.241 . S
O334 Co322 2.137 . S
O334 C325 1.247 1_554 S
O335 Co322 2.244 1_556 S
O335 C325 1.272 . S
O335 Co327 2.135 . S
Co336 O337 2.216 . S
Co336 O338 2.091 . S
Co336 O340 2.004 . S
Co336 O346 2.021 . S
Co336 O348 2.137 . S
Co336 O349 2.244 . S
O337 Co336 2.216 . S
O337 C344 1.247 . S
O338 Co336 2.091 . S
O338 C344 1.261 . S
C339 O348 1.247 . S
C339 O349 1.272 . S
O340 Co336 2.004 . S
O340 C345 1.259 . S
Co341 O342 2.061 . S
Co341 O347 2.052 . S
Co341 O349 2.135 . S
O342 Co341 2.061 . S
O342 C345 1.235 . S
C343 O346 1.238 . S
C343 O347 1.241 . S
C344 O337 1.247 . S
C344 O338 1.261 . S
C345 O340 1.259 . S
C345 O342 1.235 . S
O346 Co336 2.021 . S
O346 C343 1.238 . S
O347 Co341 2.052 . S
O347 C343 1.241 . S
O348 Co336 2.137 . S
O348 C339 1.247 . S
O349 Co336 2.244 . S
O349 C339 1.272 . S
O349 Co341 2.135 . S
Co350 O351 2.216 . S
Co350 O352 2.091 . S
Co350 O354 2.004 . S
Co350 O360 2.021 . S
Co350 O362 2.137 . S
Co350 O363 2.244 . S
O351 Co350 2.216 . S
O351 C358 1.247 . S
O352 Co350 2.091 . S
O352 C358 1.261 . S
C353 O362 1.247 . S
C353 O363 1.272 . S
O354 Co350 2.004 . S
O354 C359 1.259 . S
Co355 O356 2.061 . S
Co355 O361 2.052 . S
Co355 O363 2.135 . S
O356 Co355 2.061 . S
O356 C359 1.235 . S
C357 O360 1.238 . S
C357 O361 1.241 . S
C358 O351 1.247 . S
C358 O352 1.261 . S
C359 O354 1.259 . S
C359 O356 1.235 . S
O360 Co350 2.021 . S
O360 C357 1.238 . S
O361 Co355 2.052 . S
O361 C357 1.241 . S
O362 Co350 2.137 . S
O362 C353 1.247 . S
O363 Co350 2.244 . S
O363 C353 1.272 . S
O363 Co355 2.135 . S
Co364 O365 2.216 . S
Co364 O366 2.091 . S
Co364 O368 2.004 . S
Co364 O374 2.021 . S
Co364 O376 2.137 . S
Co364 O377 2.244 . S
O365 Co364 2.216 . S
O365 C372 1.247 . S
O366 Co364 2.091 . S
O366 C372 1.261 . S
C367 O376 1.247 . S
C367 O377 1.272 . S
O368 Co364 2.004 . S
O368 C373 1.259 . S
Co369 O370 2.061 . S
Co369 O375 2.052 . S
Co369 O377 2.135 . S
O370 Co369 2.061 . S
O370 C373 1.235 . S
C371 O374 1.238 . S
C371 O375 1.241 . S
C372 O365 1.247 . S
C372 O366 1.261 . S
C373 O368 1.259 . S
C373 O370 1.235 . S
O374 Co364 2.021 . S
O374 C371 1.238 . S
O375 Co369 2.052 . S
O375 C371 1.241 . S
O376 Co364 2.137 . S
O376 C367 1.247 . S
O377 Co364 2.244 . S
O377 C367 1.272 . S
O377 Co369 2.135 . S
Co378 O379 2.216 1_556 S
Co378 O380 2.091 1_556 S
Co378 O382 2.004 . S
Co378 O388 2.021 1_546 S
Co378 O390 2.137 . S
Co378 O391 2.244 1_545 S
O379 Co378 2.216 1_554 S
O379 C386 1.247 . S
O380 Co378 2.091 1_554 S
O380 C386 1.261 . S
C381 O390 1.247 1_565 S
C381 O391 1.272 . S
O382 Co378 2.004 . S
O382 C387 1.259 . S
Co383 O384 2.061 . S
Co383 O389 2.052 1_556 S
Co383 O391 2.135 . S
O384 Co383 2.061 . S
O384 C387 1.235 1_565 S
C385 O388 1.238 . S
C385 O389 1.241 . S
C386 O379 1.247 . S
C386 O380 1.261 . S
C387 O382 1.259 . S
C387 O384 1.235 1_545 S
O388 Co378 2.021 1_564 S
O388 C385 1.238 . S
O389 Co383 2.052 1_554 S
O389 C385 1.241 . S
O390 Co378 2.137 . S
O390 C381 1.247 1_545 S
O391 Co378 2.244 1_565 S
O391 C381 1.272 . S
O391 Co383 2.135 . S
Co392 O393 2.216 . S
Co392 O394 2.091 . S
Co392 O396 2.004 1_556 S
Co392 O402 2.021 . S
Co392 O404 2.137 . S
Co392 O405 2.244 1_556 S
O393 Co392 2.216 . S
O393 C400 1.247 . S
O394 Co392 2.091 . S
O394 C400 1.261 . S
C395 O404 1.247 1_554 S
C395 O405 1.272 . S
O396 Co392 2.004 1_554 S
O396 C401 1.259 . S
Co397 O398 2.061 . S
Co397 O403 2.052 . S
Co397 O405 2.135 . S
O398 Co397 2.061 . S
O398 C401 1.235 . S
C399 O402 1.238 1_554 S
C399 O403 1.241 . S
C400 O393 1.247 . S
C400 O394 1.261 . S
C401 O396 1.259 . S
C401 O398 1.235 . S
O402 Co392 2.021 . S
O402 C399 1.238 1_556 S
O403 Co397 2.052 . S
O403 C399 1.241 . S
O404 Co392 2.137 . S
O404 C395 1.247 1_556 S
O405 Co392 2.244 1_554 S
O405 C395 1.272 . S
O405 Co397 2.135 . S
Co406 O407 2.216 1_556 S
Co406 O408 2.091 1_556 S
Co406 O410 2.004 . S
Co406 O416 2.021 1_556 S
Co406 O418 2.137 . S
Co406 O419 2.244 . S
O407 Co406 2.216 1_554 S
O407 C414 1.247 . S
O408 Co406 2.091 1_554 S
O408 C414 1.261 . S
C409 O418 1.247 . S
C409 O419 1.272 . S
O410 Co406 2.004 . S
O410 C415 1.259 . S
Co411 O412 2.061 . S
Co411 O417 2.052 1_556 S
Co411 O419 2.135 . S
O412 Co411 2.061 . S
O412 C415 1.235 . S
C413 O416 1.238 . S
C413 O417 1.241 . S
C414 O407 1.247 . S
C414 O408 1.261 . S
C415 O410 1.259 . S
C415 O412 1.235 . S
O416 Co406 2.021 1_554 S
O416 C413 1.238 . S
O417 Co411 2.052 1_554 S
O417 C413 1.241 . S
O418 Co406 2.137 . S
O418 C409 1.247 . S
O419 Co406 2.244 . S
O419 C409 1.272 . S
O419 Co411 2.135 . S
Co420 O421 2.216 1_455 S
Co420 O422 2.091 . S
Co420 O424 2.004 . S
Co420 O430 2.021 . S
Co420 O432 2.137 1_455 S
Co420 O433 2.244 1_455 S
O421 Co420 2.216 1_655 S
O421 C428 1.247 1_655 S
O422 Co420 2.091 . S
O422 C428 1.261 . S
C423 O432 1.247 . S
C423 O433 1.272 . S
O424 Co420 2.004 . S
O424 C429 1.259 . S
Co425 O426 2.061 . S
Co425 O431 2.052 . S
Co425 O433 2.135 . S
O426 Co425 2.061 . S
O426 C429 1.235 1_655 S
C427 O430 1.238 1_655 S
C427 O431 1.241 . S
C428 O421 1.247 1_455 S
C428 O422 1.261 . S
C429 O424 1.259 . S
C429 O426 1.235 1_455 S
O430 Co420 2.021 . S
O430 C427 1.238 1_455 S
O431 Co425 2.052 . S
O431 C427 1.241 . S
O432 Co420 2.137 1_655 S
O432 C423 1.247 . S
O433 Co420 2.244 1_655 S
O433 C423 1.272 . S
O433 Co425 2.135 . S
Co434 O435 2.216 . S
Co434 O436 2.091 . S
Co434 O438 2.004 . S
Co434 O444 2.021 . S
Co434 O446 2.137 . S
Co434 O447 2.244 . S
O435 Co434 2.216 . S
O435 C442 1.247 . S
O436 Co434 2.091 . S
O436 C442 1.261 . S
C437 O446 1.247 . S
C437 O447 1.272 . S
O438 Co434 2.004 . S
O438 C443 1.259 . S
Co439 O440 2.061 . S
Co439 O445 2.052 . S
Co439 O447 2.135 . S
O440 Co439 2.061 . S
O440 C443 1.235 . S
C441 O444 1.238 . S
C441 O445 1.241 . S
C442 O435 1.247 . S
C442 O436 1.261 . S
C443 O438 1.259 . S
C443 O440 1.235 . S
O444 Co434 2.021 . S
O444 C441 1.238 . S
O445 Co439 2.052 . S
O445 C441 1.241 . S
O446 Co434 2.137 . S
O446 C437 1.247 . S
O447 Co434 2.244 . S
O447 C437 1.272 . S
O447 Co439 2.135 . S
Co448 O449 2.216 . S
Co448 O450 2.091 . S
Co448 O452 2.004 . S
Co448 O458 2.021 . S
Co448 O460 2.137 . S
Co448 O461 2.244 . S
O449 Co448 2.216 . S
O449 C456 1.247 . S
O450 Co448 2.091 . S
O450 C456 1.261 . S
C451 O460 1.247 . S
C451 O461 1.272 . S
O452 Co448 2.004 . S
O452 C457 1.259 . S
Co453 O454 2.061 . S
Co453 O459 2.052 . S
Co453 O461 2.135 . S
O454 Co453 2.061 . S
O454 C457 1.235 . S
C455 O458 1.238 . S
C455 O459 1.241 . S
C456 O449 1.247 . S
C456 O450 1.261 . S
C457 O452 1.259 . S
C457 O454 1.235 . S
O458 Co448 2.021 . S
O458 C455 1.238 . S
O459 Co453 2.052 . S
O459 C455 1.241 . S
O460 Co448 2.137 . S
O460 C451 1.247 . S
O461 Co448 2.244 . S
O461 C451 1.272 . S
O461 Co453 2.135 . S
Co462 O463 2.216 . S
Co462 O464 2.091 . S
Co462 O466 2.004 . S
Co462 O472 2.021 . S
Co462 O474 2.137 . S
Co462 O475 2.244 . S
O463 Co462 2.216 . S
O463 C470 1.247 . S
O464 Co462 2.091 . S
O464 C470 1.261 . S
C465 O474 1.247 . S
C465 O475 1.272 . S
O466 Co462 2.004 . S
O466 C471 1.259 . S
Co467 O468 2.061 . S
Co467 O473 2.052 . S
Co467 O475 2.135 . S
O468 Co467 2.061 . S
O468 C471 1.235 . S
C469 O472 1.238 . S
C469 O473 1.241 . S
C470 O463 1.247 . S
C470 O464 1.261 . S
C471 O466 1.259 . S
C471 O468 1.235 . S
O472 Co462 2.021 . S
O472 C469 1.238 . S
O473 Co467 2.052 . S
O473 C469 1.241 . S
O474 Co462 2.137 . S
O474 C465 1.247 . S
O475 Co462 2.244 . S
O475 C465 1.272 . S
O475 Co467 2.135 . S
Co476 O477 2.216 . S
Co476 O478 2.091 . S
Co476 O480 2.004 . S
Co476 O486 2.021 . S
Co476 O488 2.137 . S
Co476 O489 2.244 . S
O477 Co476 2.216 . S
O477 C484 1.247 . S
O478 Co476 2.091 . S
O478 C484 1.261 . S
C479 O488 1.247 . S
C479 O489 1.272 . S
O480 Co476 2.004 . S
O480 C485 1.259 . S
Co481 O482 2.061 . S
Co481 O487 2.052 . S
Co481 O489 2.135 . S
O482 Co481 2.061 . S
O482 C485 1.235 . S
C483 O486 1.238 . S
C483 O487 1.241 . S
C484 O477 1.247 . S
C484 O478 1.261 . S
C485 O480 1.259 . S
C485 O482 1.235 . S
O486 Co476 2.021 . S
O486 C483 1.238 . S
O487 Co481 2.052 . S
O487 C483 1.241 . S
O488 Co476 2.137 . S
O488 C479 1.247 . S
O489 Co476 2.244 . S
O489 C479 1.272 . S
O489 Co481 2.135 . S
Co490 O491 2.216 . S
Co490 O492 2.091 . S
Co490 O494 2.004 . S
Co490 O500 2.021 . S
Co490 O502 2.137 . S
Co490 O503 2.244 . S
O491 Co490 2.216 . S
O491 C498 1.247 . S
O492 Co490 2.091 . S
O492 C498 1.261 . S
C493 O502 1.247 . S
C493 O503 1.272 . S
O494 Co490 2.004 . S
O494 C499 1.259 . S
Co495 O496 2.061 . S
Co495 O501 2.052 . S
Co495 O503 2.135 . S
O496 Co495 2.061 . S
O496 C499 1.235 . S
C497 O500 1.238 . S
C497 O501 1.241 . S
C498 O491 1.247 . S
C498 O492 1.261 . S
C499 O494 1.259 . S
C499 O496 1.235 . S
O500 Co490 2.021 . S
O500 C497 1.238 . S
O501 Co495 2.052 . S
O501 C497 1.241 . S
O502 Co490 2.137 . S
O502 C493 1.247 . S
O503 Co490 2.244 . S
O503 C493 1.272 . S
O503 Co495 2.135 . S
H504 C512 0.929 . S
H505 C514 0.930 . S
H506 C516 0.930 . S
H507 C519 0.929 . S
H508 C522 0.930 . S
H509 C524 0.960 . S
H510 C524 0.960 . S
H511 C524 0.960 . S
C512 H504 0.929 . S
C512 C513 1.377 . S
C512 C514 1.384 . S
C513 C512 1.377 . S
C513 C519 1.390 . S
C514 H505 0.930 . S
C514 C512 1.384 . S
C514 C515 1.372 . S
C515 C514 1.372 . S
C515 C516 1.400 . S
C515 C520 1.490 . S
C516 H506 0.930 . S
C516 C515 1.400 . S
C516 C519 1.386 . S
H517 C533 0.930 . S
H518 C534 0.931 . S
C519 H507 0.929 . S
C519 C513 1.390 . S
C519 C516 1.386 . S
C520 C515 1.490 . S
C520 C522 1.395 . S
C520 C523 1.403 . S
H521 C527 0.930 . S
C522 H508 0.930 . S
C522 C520 1.395 . S
C522 C525 1.403 . S
C523 C520 1.403 . S
C523 C524 1.524 . S
C523 C527 1.400 . S
C524 H509 0.960 . S
C524 H510 0.960 . S
C524 H511 0.960 . S
C524 C523 1.524 . S
C525 C522 1.403 . S
C525 C526 1.392 . S
C525 C529 1.495 . S
C526 C525 1.392 . S
C526 C527 1.385 . S
C526 C528 1.478 . S
C527 H521 0.930 . S
C527 C523 1.400 . S
C527 C526 1.385 . S
C528 C526 1.478 . S
C528 C530 1.381 . S
C528 C534 1.383 . S
C529 C525 1.495 . S
C529 H535 0.959 . S
C529 H536 0.961 . S
C529 H537 0.960 . S
C530 C528 1.381 . S
C530 C531 1.394 . S
C530 H538 0.930 . S
C531 C530 1.394 . S
C531 C532 1.383 . S
C531 H539 0.929 . S
C532 C531 1.383 . S
C532 C533 1.377 . S
C533 H517 0.930 . S
C533 C532 1.377 . S
C533 C534 1.379 . S
C534 H518 0.931 . S
C534 C528 1.383 . S
C534 C533 1.379 . S
H535 C529 0.959 . S
H536 C529 0.961 . S
H537 C529 0.960 . S
H538 C530 0.930 . S
H539 C531 0.929 . S
H540 C548 0.929 . S
H541 C550 0.930 . S
H542 C552 0.930 . S
H543 C555 0.929 . S
H544 C558 0.930 . S
H545 C560 0.960 . S
H546 C560 0.960 . S
H547 C560 0.960 . S
C548 H540 0.929 . S
C548 C549 1.377 . S
C548 C550 1.384 . S
C549 C548 1.377 . S
C549 C555 1.390 . S
C550 H541 0.930 . S
C550 C548 1.384 . S
C550 C551 1.372 . S
C551 C550 1.372 . S
C551 C552 1.400 . S
C551 C556 1.490 . S
C552 H542 0.930 . S
C552 C551 1.400 . S
C552 C555 1.386 . S
H553 C569 0.930 . S
H554 C570 0.931 . S
C555 H543 0.929 . S
C555 C549 1.390 . S
C555 C552 1.386 . S
C556 C551 1.490 . S
C556 C558 1.395 . S
C556 C559 1.403 . S
H557 C563 0.930 . S
C558 H544 0.930 . S
C558 C556 1.395 . S
C558 C561 1.403 . S
C559 C556 1.403 . S
C559 C560 1.524 . S
C559 C563 1.400 . S
C560 H545 0.960 . S
C560 H546 0.960 . S
C560 H547 0.960 . S
C560 C559 1.524 . S
C561 C558 1.403 . S
C561 C562 1.392 . S
C561 C565 1.495 . S
C562 C561 1.392 . S
C562 C563 1.385 . S
C562 C564 1.478 . S
C563 H557 0.930 . S
C563 C559 1.400 . S
C563 C562 1.385 . S
C564 C562 1.478 . S
C564 C566 1.381 . S
C564 C570 1.383 . S
C565 C561 1.495 . S
C565 H571 0.959 . S
C565 H572 0.961 . S
C565 H573 0.960 . S
C566 C564 1.381 . S
C566 C567 1.394 . S
C566 H574 0.930 . S
C567 C566 1.394 . S
C567 C568 1.383 . S
C567 H575 0.929 . S
C568 C567 1.383 . S
C568 C569 1.377 . S
C569 H553 0.930 . S
C569 C568 1.377 . S
C569 C570 1.379 . S
C570 H554 0.931 . S
C570 C564 1.383 . S
C570 C569 1.379 . S
H571 C565 0.959 . S
H572 C565 0.961 . S
H573 C565 0.960 . S
H574 C566 0.930 . S
H575 C567 0.929 . S
H576 C584 0.929 . S
H577 C586 0.930 . S
H578 C588 0.930 . S
H579 C591 0.929 . S
H580 C594 0.930 . S
H581 C596 0.960 . S
H582 C596 0.960 . S
H583 C596 0.960 . S
C584 H576 0.929 . S
C584 C585 1.377 . S
C584 C586 1.384 . S
C585 C584 1.377 . S
C585 C591 1.390 . S
C586 H577 0.930 . S
C586 C584 1.384 . S
C586 C587 1.372 . S
C587 C586 1.372 . S
C587 C588 1.400 . S
C587 C592 1.490 . S
C588 H578 0.930 . S
C588 C587 1.400 . S
C588 C591 1.386 . S
H589 C605 0.930 . S
H590 C606 0.931 . S
C591 H579 0.929 . S
C591 C585 1.390 . S
C591 C588 1.386 . S
C592 C587 1.490 . S
C592 C594 1.395 . S
C592 C595 1.403 . S
H593 C599 0.930 . S
C594 H580 0.930 . S
C594 C592 1.395 . S
C594 C597 1.403 . S
C595 C592 1.403 . S
C595 C596 1.524 . S
C595 C599 1.400 . S
C596 H581 0.960 . S
C596 H582 0.960 . S
C596 H583 0.960 . S
C596 C595 1.524 . S
C597 C594 1.403 . S
C597 C598 1.392 . S
C597 C601 1.495 . S
C598 C597 1.392 . S
C598 C599 1.385 . S
C598 C600 1.478 . S
C599 H593 0.930 . S
C599 C595 1.400 . S
C599 C598 1.385 . S
C600 C598 1.478 . S
C600 C602 1.381 . S
C600 C606 1.383 . S
C601 C597 1.495 . S
C601 H607 0.959 . S
C601 H608 0.961 . S
C601 H609 0.960 . S
C602 C600 1.381 . S
C602 C603 1.394 . S
C602 H610 0.930 . S
C603 C602 1.394 . S
C603 C604 1.383 . S
C603 H611 0.929 . S
C604 C603 1.383 . S
C604 C605 1.377 . S
C605 H589 0.930 . S
C605 C604 1.377 . S
C605 C606 1.379 . S
C606 H590 0.931 . S
C606 C600 1.383 . S
C606 C605 1.379 . S
H607 C601 0.959 . S
H608 C601 0.961 . S
H609 C601 0.960 . S
H610 C602 0.930 . S
H611 C603 0.929 . S
H612 C620 0.929 . S
H613 C622 0.930 1_554 S
H614 C624 0.930 . S
H615 C627 0.929 . S
H616 C630 0.930 . S
H617 C632 0.960 . S
H618 C632 0.960 . S
H619 C632 0.960 . S
C620 H612 0.929 . S
C620 C621 1.377 . S
C620 C622 1.384 . S
C621 C620 1.377 . S
C621 C627 1.390 . S
C622 H613 0.930 1_556 S
C622 C620 1.384 . S
C622 C623 1.372 1_556 S
C623 C622 1.372 1_554 S
C623 C624 1.400 1_554 S
C623 C628 1.490 . S
C624 H614 0.930 . S
C624 C623 1.400 1_556 S
C624 C627 1.386 . S
H625 C641 0.930 . S
H626 C642 0.931 . S
C627 H615 0.929 . S
C627 C621 1.390 . S
C627 C624 1.386 . S
C628 C623 1.490 . S
C628 C630 1.395 . S
C628 C631 1.403 . S
H629 C635 0.930 . S
C630 H616 0.930 . S
C630 C628 1.395 . S
C630 C633 1.403 . S
C631 C628 1.403 . S
C631 C632 1.524 . S
C631 C635 1.400 . S
C632 H617 0.960 . S
C632 H618 0.960 . S
C632 H619 0.960 . S
C632 C631 1.524 . S
C633 C630 1.403 . S
C633 C634 1.392 . S
C633 C637 1.495 . S
C634 C633 1.392 . S
C634 C635 1.385 . S
C634 C636 1.478 . S
C635 H629 0.930 . S
C635 C631 1.400 . S
C635 C634 1.385 . S
C636 C634 1.478 . S
C636 C638 1.381 . S
C636 C642 1.383 . S
C637 C633 1.495 . S
C637 H643 0.959 . S
C637 H644 0.961 . S
C637 H645 0.960 . S
C638 C636 1.381 . S
C638 C639 1.394 . S
C638 H646 0.930 . S
C639 C638 1.394 . S
C639 C640 1.383 . S
C639 H647 0.929 . S
C640 C639 1.383 . S
C640 C641 1.377 . S
C641 H625 0.930 . S
C641 C640 1.377 . S
C641 C642 1.379 . S
C642 H626 0.931 . S
C642 C636 1.383 . S
C642 C641 1.379 . S
H643 C637 0.959 . S
H644 C637 0.961 . S
H645 C637 0.960 . S
H646 C638 0.930 . S
H647 C639 0.929 . S
H648 C656 0.929 . S
H649 C658 0.930 . S
H650 C660 0.930 . S
H651 C663 0.929 . S
H652 C666 0.930 . S
H653 C668 0.960 . S
H654 C668 0.960 . S
H655 C668 0.960 . S
C656 H648 0.929 . S
C656 C657 1.377 . S
C656 C658 1.384 . S
C657 C656 1.377 . S
C657 C663 1.390 . S
C658 H649 0.930 . S
C658 C656 1.384 . S
C658 C659 1.372 . S
C659 C658 1.372 . S
C659 C660 1.400 . S
C659 C664 1.490 . S
C660 H650 0.930 . S
C660 C659 1.400 . S
C660 C663 1.386 . S
H661 C677 0.930 . S
H662 C678 0.931 . S
C663 H651 0.929 . S
C663 C657 1.390 . S
C663 C660 1.386 . S
C664 C659 1.490 . S
C664 C666 1.395 . S
C664 C667 1.403 . S
H665 C671 0.930 . S
C666 H652 0.930 . S
C666 C664 1.395 . S
C666 C669 1.403 . S
C667 C664 1.403 . S
C667 C668 1.524 . S
C667 C671 1.400 . S
C668 H653 0.960 . S
C668 H654 0.960 . S
C668 H655 0.960 . S
C668 C667 1.524 . S
C669 C666 1.403 . S
C669 C670 1.392 . S
C669 C673 1.495 . S
C670 C669 1.392 . S
C670 C671 1.385 . S
C670 C672 1.478 1_554 S
C671 H665 0.930 . S
C671 C667 1.400 . S
C671 C670 1.385 . S
C672 C670 1.478 1_556 S
C672 C674 1.381 . S
C672 C678 1.383 . S
C673 C669 1.495 . S
C673 H679 0.959 . S
C673 H680 0.961 . S
C673 H681 0.960 . S
C674 C672 1.381 . S
C674 C675 1.394 . S
C674 H682 0.930 . S
C675 C674 1.394 . S
C675 C676 1.383 . S
C675 H683 0.929 . S
C676 C675 1.383 . S
C676 C677 1.377 . S
C677 H661 0.930 . S
C677 C676 1.377 . S
C677 C678 1.379 . S
C678 H662 0.931 . S
C678 C672 1.383 . S
C678 C677 1.379 . S
H679 C673 0.959 . S
H680 C673 0.961 . S
H681 C673 0.960 . S
H682 C674 0.930 . S
H683 C675 0.929 . S
H684 C692 0.929 . S
H685 C694 0.930 . S
H686 C696 0.930 . S
H687 C699 0.929 . S
H688 C702 0.930 . S
H689 C704 0.960 . S
H690 C704 0.960 . S
H691 C704 0.960 . S
C692 H684 0.929 . S
C692 C693 1.377 . S
C692 C694 1.384 . S
C693 C692 1.377 . S
C693 C699 1.390 . S
C694 H685 0.930 . S
C694 C692 1.384 . S
C694 C695 1.372 . S
C695 C694 1.372 . S
C695 C696 1.400 . S
C695 C700 1.490 . S
C696 H686 0.930 . S
C696 C695 1.400 . S
C696 C699 1.386 . S
H697 C713 0.930 . S
H698 C714 0.931 1_554 S
C699 H687 0.929 . S
C699 C693 1.390 . S
C699 C696 1.386 . S
C700 C695 1.490 . S
C700 C702 1.395 . S
C700 C703 1.403 . S
H701 C707 0.930 . S
C702 H688 0.930 . S
C702 C700 1.395 . S
C702 C705 1.403 . S
C703 C700 1.403 . S
C703 C704 1.524 . S
C703 C707 1.400 . S
C704 H689 0.960 . S
C704 H690 0.960 . S
C704 H691 0.960 . S
C704 C703 1.524 . S
C705 C702 1.403 . S
C705 C706 1.392 . S
C705 C709 1.495 . S
C706 C705 1.392 . S
C706 C707 1.385 . S
C706 C708 1.478 . S
C707 H701 0.930 . S
C707 C703 1.400 . S
C707 C706 1.385 . S
C708 C706 1.478 . S
C708 C710 1.381 1_554 S
C708 C714 1.383 1_554 S
C709 C705 1.495 . S
C709 H715 0.959 . S
C709 H716 0.961 . S
C709 H717 0.960 . S
C710 C708 1.381 1_556 S
C710 C711 1.394 . S
C710 H718 0.930 . S
C711 C710 1.394 . S
C711 C712 1.383 . S
C711 H719 0.929 . S
C712 C711 1.383 . S
C712 C713 1.377 . S
C713 H697 0.930 . S
C713 C712 1.377 . S
C713 C714 1.379 . S
C714 H698 0.931 1_556 S
C714 C708 1.383 1_556 S
C714 C713 1.379 . S
H715 C709 0.959 . S
H716 C709 0.961 . S
H717 C709 0.960 . S
H718 C710 0.930 . S
H719 C711 0.929 . S
H720 C728 0.929 . S
H721 C730 0.930 . S
H722 C732 0.930 . S
H723 C735 0.929 . S
H724 C738 0.930 . S
H725 C740 0.960 . S
H726 C740 0.960 . S
H727 C740 0.960 . S
C728 H720 0.929 . S
C728 C729 1.377 . S
C728 C730 1.384 . S
C729 C728 1.377 . S
C729 C735 1.390 . S
C730 H721 0.930 . S
C730 C728 1.384 . S
C730 C731 1.372 . S
C731 C730 1.372 . S
C731 C732 1.400 . S
C731 C736 1.490 . S
C732 H722 0.930 . S
C732 C731 1.400 . S
C732 C735 1.386 . S
H733 C749 0.930 . S
H734 C750 0.931 . S
C735 H723 0.929 . S
C735 C729 1.390 . S
C735 C732 1.386 . S
C736 C731 1.490 . S
C736 C738 1.395 . S
C736 C739 1.403 . S
H737 C743 0.930 . S
C738 H724 0.930 . S
C738 C736 1.395 . S
C738 C741 1.403 . S
C739 C736 1.403 . S
C739 C740 1.524 . S
C739 C743 1.400 . S
C740 H725 0.960 . S
C740 H726 0.960 . S
C740 H727 0.960 . S
C740 C739 1.524 . S
C741 C738 1.403 . S
C741 C742 1.392 . S
C741 C745 1.495 . S
C742 C741 1.392 . S
C742 C743 1.385 . S
C742 C744 1.478 . S
C743 H737 0.930 . S
C743 C739 1.400 . S
C743 C742 1.385 . S
C744 C742 1.478 . S
C744 C746 1.381 . S
C744 C750 1.383 . S
C745 C741 1.495 . S
C745 H751 0.959 . S
C745 H752 0.961 . S
C745 H753 0.960 . S
C746 C744 1.381 . S
C746 C747 1.394 . S
C746 H754 0.930 . S
C747 C746 1.394 . S
C747 C748 1.383 . S
C747 H755 0.929 . S
C748 C747 1.383 . S
C748 C749 1.377 . S
C749 H733 0.930 . S
C749 C748 1.377 . S
C749 C750 1.379 . S
C750 H734 0.931 . S
C750 C744 1.383 . S
C750 C749 1.379 . S
H751 C745 0.959 . S
H752 C745 0.961 . S
H753 C745 0.960 . S
H754 C746 0.930 . S
H755 C747 0.929 . S
H756 C764 0.929 . S
H757 C766 0.930 . S
H758 C768 0.930 . S
H759 C771 0.929 . S
H760 C774 0.930 . S
H761 C776 0.960 . S
H762 C776 0.960 . S
H763 C776 0.960 . S
C764 H756 0.929 . S
C764 C765 1.377 . S
C764 C766 1.384 . S
C765 C764 1.377 . S
C765 C771 1.390 . S
C766 H757 0.930 . S
C766 C764 1.384 . S
C766 C767 1.372 . S
C767 C766 1.372 . S
C767 C768 1.400 . S
C767 C772 1.490 . S
C768 H758 0.930 . S
C768 C767 1.400 . S
C768 C771 1.386 . S
H769 C785 0.930 . S
H770 C786 0.931 . S
C771 H759 0.929 . S
C771 C765 1.390 . S
C771 C768 1.386 . S
C772 C767 1.490 . S
C772 C774 1.395 . S
C772 C775 1.403 . S
H773 C779 0.930 . S
C774 H760 0.930 . S
C774 C772 1.395 . S
C774 C777 1.403 . S
C775 C772 1.403 . S
C775 C776 1.524 . S
C775 C779 1.400 . S
C776 H761 0.960 . S
C776 H762 0.960 . S
C776 H763 0.960 . S
C776 C775 1.524 . S
C777 C774 1.403 . S
C777 C778 1.392 . S
C777 C781 1.495 . S
C778 C777 1.392 . S
C778 C779 1.385 . S
C778 C780 1.478 . S
C779 H773 0.930 . S
C779 C775 1.400 . S
C779 C778 1.385 . S
C780 C778 1.478 . S
C780 C782 1.381 . S
C780 C786 1.383 . S
C781 C777 1.495 . S
C781 H787 0.959 . S
C781 H788 0.961 . S
C781 H789 0.960 . S
C782 C780 1.381 . S
C782 C783 1.394 . S
C782 H790 0.930 . S
C783 C782 1.394 . S
C783 C784 1.383 . S
C783 H791 0.929 . S
C784 C783 1.383 . S
C784 C785 1.377 . S
C785 H769 0.930 . S
C785 C784 1.377 . S
C785 C786 1.379 . S
C786 H770 0.931 . S
C786 C780 1.383 . S
C786 C785 1.379 . S
H787 C781 0.959 . S
H788 C781 0.961 . S
H789 C781 0.960 . S
H790 C782 0.930 . S
H791 C783 0.929 . S
H792 C800 0.929 . S
H793 C802 0.930 . S
H794 C804 0.930 . S
H795 C807 0.929 . S
H796 C810 0.930 . S
H797 C812 0.960 . S
H798 C812 0.960 . S
H799 C812 0.960 . S
C800 H792 0.929 . S
C800 C801 1.377 . S
C800 C802 1.384 . S
C801 C800 1.377 . S
C801 C807 1.390 . S
C802 H793 0.930 . S
C802 C800 1.384 . S
C802 C803 1.372 . S
C803 C802 1.372 . S
C803 C804 1.400 . S
C803 C808 1.490 . S
C804 H794 0.930 . S
C804 C803 1.400 . S
C804 C807 1.386 . S
H805 C821 0.930 . S
H806 C822 0.931 . S
C807 H795 0.929 . S
C807 C801 1.390 . S
C807 C804 1.386 . S
C808 C803 1.490 . S
C808 C810 1.395 . S
C808 C811 1.403 . S
H809 C815 0.930 . S
C810 H796 0.930 . S
C810 C808 1.395 . S
C810 C813 1.403 . S
C811 C808 1.403 . S
C811 C812 1.524 . S
C811 C815 1.400 . S
C812 H797 0.960 . S
C812 H798 0.960 . S
C812 H799 0.960 . S
C812 C811 1.524 . S
C813 C810 1.403 . S
C813 C814 1.392 . S
C813 C817 1.495 . S
C814 C813 1.392 . S
C814 C815 1.385 . S
C814 C816 1.478 . S
C815 H809 0.930 . S
C815 C811 1.400 . S
C815 C814 1.385 . S
C816 C814 1.478 . S
C816 C818 1.381 . S
C816 C822 1.383 . S
C817 C813 1.495 . S
C817 H823 0.959 . S
C817 H824 0.961 . S
C817 H825 0.960 . S
C818 C816 1.381 . S
C818 C819 1.394 . S
C818 H826 0.930 . S
C819 C818 1.394 . S
C819 C820 1.383 . S
C819 H827 0.929 . S
C820 C819 1.383 . S
C820 C821 1.377 . S
C821 H805 0.930 . S
C821 C820 1.377 . S
C821 C822 1.379 . S
C822 H806 0.931 . S
C822 C816 1.383 . S
C822 C821 1.379 . S
H823 C817 0.959 . S
H824 C817 0.961 . S
H825 C817 0.960 . S
H826 C818 0.930 . S
H827 C819 0.929 . S
H828 C836 0.929 . S
H829 C838 0.930 . S
H830 C840 0.930 . S
H831 C843 0.929 . S
H832 C846 0.930 . S
H833 C848 0.960 . S
H834 C848 0.960 . S
H835 C848 0.960 . S
C836 H828 0.929 . S
C836 C837 1.377 . S
C836 C838 1.384 . S
C837 C836 1.377 . S
C837 C843 1.390 . S
C838 H829 0.930 . S
C838 C836 1.384 . S
C838 C839 1.372 . S
C839 C838 1.372 . S
C839 C840 1.400 . S
C839 C844 1.490 . S
C840 H830 0.930 . S
C840 C839 1.400 . S
C840 C843 1.386 . S
H841 C857 0.930 . S
H842 C858 0.931 . S
C843 H831 0.929 . S
C843 C837 1.390 . S
C843 C840 1.386 . S
C844 C839 1.490 . S
C844 C846 1.395 . S
C844 C847 1.403 . S
H845 C851 0.930 . S
C846 H832 0.930 . S
C846 C844 1.395 . S
C846 C849 1.403 . S
C847 C844 1.403 . S
C847 C848 1.524 . S
C847 C851 1.400 . S
C848 H833 0.960 . S
C848 H834 0.960 . S
C848 H835 0.960 . S
C848 C847 1.524 . S
C849 C846 1.403 . S
C849 C850 1.392 . S
C849 C853 1.495 . S
C850 C849 1.392 . S
C850 C851 1.385 . S
C850 C852 1.478 . S
C851 H845 0.930 . S
C851 C847 1.400 . S
C851 C850 1.385 . S
C852 C850 1.478 . S
C852 C854 1.381 1_556 S
C852 C858 1.383 1_556 S
C853 C849 1.495 . S
C853 H859 0.959 . S
C853 H860 0.961 . S
C853 H861 0.960 . S
C854 C852 1.381 1_554 S
C854 C855 1.394 . S
C854 H862 0.930 1_554 S
C855 C854 1.394 . S
C855 C856 1.383 . S
C855 H863 0.929 . S
C856 C855 1.383 . S
C856 C857 1.377 . S
C857 H841 0.930 . S
C857 C856 1.377 . S
C857 C858 1.379 . S
C858 H842 0.931 . S
C858 C852 1.383 1_554 S
C858 C857 1.379 . S
H859 C853 0.959 . S
H860 C853 0.961 . S
H861 C853 0.960 . S
H862 C854 0.930 1_556 S
H863 C855 0.929 . S
H864 C872 0.929 . S
H865 C874 0.930 . S
H866 C876 0.930 . S
H867 C879 0.929 . S
H868 C882 0.930 . S
H869 C884 0.960 . S
H870 C884 0.960 . S
H871 C884 0.960 . S
C872 H864 0.929 . S
C872 C873 1.377 . S
C872 C874 1.384 . S
C873 C872 1.377 . S
C873 C879 1.390 . S
C874 H865 0.930 . S
C874 C872 1.384 . S
C874 C875 1.372 1_554 S
C875 C874 1.372 1_556 S
C875 C876 1.400 1_556 S
C875 C880 1.490 . S
C876 H866 0.930 . S
C876 C875 1.400 1_554 S
C876 C879 1.386 . S
H877 C893 0.930 . S
H878 C894 0.931 . S
C879 H867 0.929 . S
C879 C873 1.390 . S
C879 C876 1.386 . S
C880 C875 1.490 . S
C880 C882 1.395 . S
C880 C883 1.403 . S
H881 C887 0.930 . S
C882 H868 0.930 . S
C882 C880 1.395 . S
C882 C885 1.403 . S
C883 C880 1.403 . S
C883 C884 1.524 . S
C883 C887 1.400 . S
C884 H869 0.960 . S
C884 H870 0.960 . S
C884 H871 0.960 . S
C884 C883 1.524 . S
C885 C882 1.403 . S
C885 C886 1.392 . S
C885 C889 1.495 . S
C886 C885 1.392 . S
C886 C887 1.385 . S
C886 C888 1.478 . S
C887 H881 0.930 . S
C887 C883 1.400 . S
C887 C886 1.385 . S
C888 C886 1.478 . S
C888 C890 1.381 . S
C888 C894 1.383 . S
C889 C885 1.495 . S
C889 H895 0.959 . S
C889 H896 0.961 . S
C889 H897 0.960 . S
C890 C888 1.381 . S
C890 C891 1.394 . S
C890 H898 0.930 . S
C891 C890 1.394 . S
C891 C892 1.383 . S
C891 H899 0.929 . S
C892 C891 1.383 . S
C892 C893 1.377 . S
C893 H877 0.930 . S
C893 C892 1.377 . S
C893 C894 1.379 . S
C894 H878 0.931 . S
C894 C888 1.383 . S
C894 C893 1.379 . S
H895 C889 0.959 . S
H896 C889 0.961 . S
H897 C889 0.960 . S
H898 C890 0.930 . S
H899 C891 0.929 . S
H900 C908 0.929 . S
H901 C910 0.930 . S
H902 C912 0.930 . S
H903 C915 0.929 . S
H904 C918 0.930 . S
H905 C920 0.960 . S
H906 C920 0.960 . S
H907 C920 0.960 . S
C908 H900 0.929 . S
C908 C909 1.377 . S
C908 C910 1.384 . S
C909 C908 1.377 . S
C909 C915 1.390 . S
C910 H901 0.930 . S
C910 C908 1.384 . S
C910 C911 1.372 . S
C911 C910 1.372 . S
C911 C912 1.400 . S
C911 C916 1.490 . S
C912 H902 0.930 . S
C912 C911 1.400 . S
C912 C915 1.386 . S
H913 C929 0.930 . S
H914 C930 0.931 . S
C915 H903 0.929 . S
C915 C909 1.390 . S
C915 C912 1.386 . S
C916 C911 1.490 . S
C916 C918 1.395 . S
C916 C919 1.403 . S
H917 C923 0.930 . S
C918 H904 0.930 . S
C918 C916 1.395 . S
C918 C921 1.403 . S
C919 C916 1.403 . S
C919 C920 1.524 . S
C919 C923 1.400 . S
C920 H905 0.960 . S
C920 H906 0.960 . S
C920 H907 0.960 . S
C920 C919 1.524 . S
C921 C918 1.403 . S
C921 C922 1.392 . S
C921 C925 1.495 . S
C922 C921 1.392 . S
C922 C923 1.385 . S
C922 C924 1.478 1_556 S
C923 H917 0.930 . S
C923 C919 1.400 . S
C923 C922 1.385 . S
C924 C922 1.478 1_554 S
C924 C926 1.381 . S
C924 C930 1.383 . S
C925 C921 1.495 . S
C925 H931 0.959 . S
C925 H932 0.961 . S
C925 H933 0.960 . S
C926 C924 1.381 . S
C926 C927 1.394 . S
C926 H934 0.930 . S
C927 C926 1.394 . S
C927 C928 1.383 . S
C927 H935 0.929 . S
C928 C927 1.383 . S
C928 C929 1.377 . S
C929 H913 0.930 . S
C929 C928 1.377 . S
C929 C930 1.379 . S
C930 H914 0.931 . S
C930 C924 1.383 . S
C930 C929 1.379 . S
H931 C925 0.959 . S
H932 C925 0.961 . S
H933 C925 0.960 . S
H934 C926 0.930 . S
H935 C927 0.929 . S
H936 C944 0.929 . S
H937 C946 0.930 . S
H938 C948 0.930 . S
H939 C951 0.929 . S
H940 C954 0.930 . S
H941 C956 0.960 . S
H942 C956 0.960 . S
H943 C956 0.960 . S
C944 H936 0.929 . S
C944 C945 1.377 . S
C944 C946 1.384 . S
C945 C944 1.377 . S
C945 C951 1.390 . S
C946 H937 0.930 . S
C946 C944 1.384 . S
C946 C947 1.372 . S
C947 C946 1.372 . S
C947 C948 1.400 . S
C947 C952 1.490 . S
C948 H938 0.930 . S
C948 C947 1.400 . S
C948 C951 1.386 . S
H949 C965 0.930 1_455 S
H950 C966 0.931 . S
C951 H939 0.929 . S
C951 C945 1.390 . S
C951 C948 1.386 . S
C952 C947 1.490 . S
C952 C954 1.395 . S
C952 C955 1.403 . S
H953 C959 0.930 . S
C954 H940 0.930 . S
C954 C952 1.395 . S
C954 C957 1.403 . S
C955 C952 1.403 . S
C955 C956 1.524 . S
C955 C959 1.400 . S
C956 H941 0.960 . S
C956 H942 0.960 . S
C956 H943 0.960 . S
C956 C955 1.524 . S
C957 C954 1.403 . S
C957 C958 1.392 . S
C957 C961 1.495 . S
C958 C957 1.392 . S
C958 C959 1.385 . S
C958 C960 1.478 . S
C959 H953 0.930 . S
C959 C955 1.400 . S
C959 C958 1.385 . S
C960 C958 1.478 . S
C960 C962 1.381 . S
C960 C966 1.383 . S
C961 C957 1.495 . S
C961 H967 0.959 . S
C961 H968 0.961 . S
C961 H969 0.960 . S
C962 C960 1.381 . S
C962 C963 1.394 . S
C962 H970 0.930 . S
C963 C962 1.394 . S
C963 C964 1.383 . S
C963 H971 0.929 . S
C964 C963 1.383 . S
C964 C965 1.377 . S
C965 H949 0.930 1_655 S
C965 C964 1.377 . S
C965 C966 1.379 . S
C966 H950 0.931 . S
C966 C960 1.383 . S
C966 C965 1.379 . S
H967 C961 0.959 . S
H968 C961 0.961 . S
H969 C961 0.960 . S
H970 C962 0.930 . S
H971 C963 0.929 . S
H972 C980 0.929 . S
H973 C982 0.930 . S
H974 C984 0.930 . S
H975 C987 0.929 . S
H976 C990 0.930 . S
H977 C992 0.960 . S
H978 C992 0.960 . S
H979 C992 0.960 . S
C980 H972 0.929 . S
C980 C981 1.377 . S
C980 C982 1.384 . S
C981 C980 1.377 . S
C981 C987 1.390 . S
C982 H973 0.930 . S
C982 C980 1.384 . S
C982 C983 1.372 . S
C983 C982 1.372 . S
C983 C984 1.400 . S
C983 C988 1.490 . S
C984 H974 0.930 . S
C984 C983 1.400 . S
C984 C987 1.386 . S
H985 C1001 0.930 . S
H986 C1002 0.931 . S
C987 H975 0.929 . S
C987 C981 1.390 . S
C987 C984 1.386 . S
C988 C983 1.490 . S
C988 C990 1.395 . S
C988 C991 1.403 . S
H989 C995 0.930 . S
C990 H976 0.930 . S
C990 C988 1.395 . S
C990 C993 1.403 . S
C991 C988 1.403 . S
C991 C992 1.524 . S
C991 C995 1.400 . S
C992 H977 0.960 . S
C992 H978 0.960 . S
C992 H979 0.960 . S
C992 C991 1.524 . S
C993 C990 1.403 . S
C993 C994 1.392 . S
C993 C997 1.495 . S
C994 C993 1.392 . S
C994 C995 1.385 . S
C994 C996 1.478 . S
C995 H989 0.930 . S
C995 C991 1.400 . S
C995 C994 1.385 . S
C996 C994 1.478 . S
C996 C998 1.381 . S
C996 C1002 1.383 . S
C997 C993 1.495 . S
C997 H1003 0.959 . S
C997 H1004 0.961 . S
C997 H1005 0.960 . S
C998 C996 1.381 . S
C998 C999 1.394 . S
C998 H1006 0.930 . S
C999 C998 1.394 . S
C999 C1000 1.383 . S
C999 H1007 0.929 . S
C1000 C999 1.383 . S
C1000 C1001 1.377 . S
C1001 H985 0.930 . S
C1001 C1000 1.377 . S
C1001 C1002 1.379 . S
C1002 H986 0.931 . S
C1002 C996 1.383 . S
C1002 C1001 1.379 . S
H1003 C997 0.959 . S
H1004 C997 0.961 . S
H1005 C997 0.960 . S
H1006 C998 0.930 . S
H1007 C999 0.929 . S
H1008 C1016 0.929 . S
H1009 C1018 0.930 . S
H1010 C1020 0.930 . S
H1011 C1023 0.929 . S
H1012 C1026 0.930 . S
H1013 C1028 0.979 . S
H1014 C1028 0.971 . S
H1015 C1028 0.965 1_565 S
C1016 H1008 0.929 . S
C1016 C1017 1.377 . S
C1016 C1018 1.384 . S
C1017 C1016 1.377 . S
C1017 C1023 1.390 . S
C1018 H1009 0.930 . S
C1018 C1016 1.384 . S
C1018 C1019 1.372 . S
C1019 C1018 1.372 . S
C1019 C1020 1.400 . S
C1019 C1024 1.490 . S
C1020 H1010 0.930 . S
C1020 C1019 1.400 . S
C1020 C1023 1.386 . S
H1021 C1037 0.930 . S
H1022 C1038 0.931 . S
C1023 H1011 0.929 . S
C1023 C1017 1.390 . S
C1023 C1020 1.386 . S
C1024 C1019 1.490 . S
C1024 C1026 1.395 . S
C1024 C1027 1.403 . S
H1025 C1031 0.930 . S
C1026 H1012 0.930 . S
C1026 C1024 1.395 . S
C1026 C1029 1.403 . S
C1027 C1024 1.403 . S
C1027 C1028 1.490 1_565 S
C1027 C1031 1.400 . S
C1028 H1013 0.979 . S
C1028 H1014 0.971 . S
C1028 H1015 0.965 1_545 S
C1028 C1027 1.490 1_545 S
C1029 C1026 1.403 . S
C1029 C1030 1.392 . S
C1029 C1033 1.495 . S
C1030 C1029 1.392 . S
C1030 C1031 1.385 . S
C1030 C1032 1.478 . S
C1031 H1025 0.930 . S
C1031 C1027 1.400 . S
C1031 C1030 1.385 . S
C1032 C1030 1.478 . S
C1032 C1034 1.381 . S
C1032 C1038 1.383 . S
C1033 C1029 1.495 . S
C1033 H1039 0.959 . S
C1033 H1040 0.961 . S
C1033 H1041 0.960 . S
C1034 C1032 1.381 . S
C1034 C1035 1.394 . S
C1034 H1042 0.930 . S
C1035 C1034 1.394 . S
C1035 C1036 1.383 . S
C1035 H1043 0.929 . S
C1036 C1035 1.383 . S
C1036 C1037 1.377 . S
C1037 H1021 0.930 . S
C1037 C1036 1.377 . S
C1037 C1038 1.379 . S
C1038 H1022 0.931 . S
C1038 C1032 1.383 . S
C1038 C1037 1.379 . S
H1039 C1033 0.959 . S
H1040 C1033 0.961 . S
H1041 C1033 0.960 . S
H1042 C1034 0.930 . S
H1043 C1035 0.929 . S
H1044 C1052 0.929 . S
H1045 C1054 0.930 . S
H1046 C1056 0.930 . S
H1047 C1059 0.929 . S
H1048 C1062 0.930 . S
H1049 C1064 0.960 1_565 S
H1050 C1064 0.960 1_565 S
H1051 C1064 0.960 . S
C1052 H1044 0.929 . S
C1052 C1053 1.377 . S
C1052 C1054 1.384 . S
C1053 C1052 1.377 . S
C1053 C1059 1.390 . S
C1054 H1045 0.930 . S
C1054 C1052 1.384 . S
C1054 C1055 1.372 . S
C1055 C1054 1.372 . S
C1055 C1056 1.400 . S
C1055 C1060 1.490 . S
C1056 H1046 0.930 . S
C1056 C1055 1.400 . S
C1056 C1059 1.386 . S
H1057 C1073 0.930 . S
H1058 C1074 0.931 . S
C1059 H1047 0.929 . S
C1059 C1053 1.390 . S
C1059 C1056 1.386 . S
C1060 C1055 1.490 . S
C1060 C1062 1.395 . S
C1060 C1063 1.403 . S
H1061 C1067 0.930 . S
C1062 H1048 0.930 . S
C1062 C1060 1.395 . S
C1062 C1065 1.403 . S
C1063 C1060 1.403 . S
C1063 C1064 1.524 . S
C1063 C1067 1.400 . S
C1064 H1049 0.960 1_545 S
C1064 H1050 0.960 1_545 S
C1064 H1051 0.960 . S
C1064 C1063 1.524 . S
C1065 C1062 1.403 . S
C1065 C1066 1.392 . S
C1065 C1069 1.495 . S
C1066 C1065 1.392 . S
C1066 C1067 1.385 . S
C1066 C1068 1.478 . S
C1067 H1061 0.930 . S
C1067 C1063 1.400 . S
C1067 C1066 1.385 . S
C1068 C1066 1.478 . S
C1068 C1070 1.381 . S
C1068 C1074 1.383 . S
C1069 C1065 1.495 . S
C1069 H1075 0.959 . S
C1069 H1076 0.961 . S
C1069 H1077 0.960 . S
C1070 C1068 1.381 . S
C1070 C1071 1.394 . S
C1070 H1078 0.930 . S
C1071 C1070 1.394 . S
C1071 C1072 1.383 . S
C1071 H1079 0.929 . S
C1072 C1071 1.383 . S
C1072 C1073 1.377 . S
C1073 H1057 0.930 . S
C1073 C1072 1.377 . S
C1073 C1074 1.379 . S
C1074 H1058 0.931 . S
C1074 C1068 1.383 . S
C1074 C1073 1.379 . S
H1075 C1069 0.959 . S
H1076 C1069 0.961 . S
H1077 C1069 0.960 . S
H1078 C1070 0.930 . S
H1079 C1071 0.929 . S
H1080 C1088 0.929 . S
H1081 C1090 0.930 . S
H1082 C1092 0.930 1_655 S
H1083 C1095 0.929 1_655 S
H1084 C1098 0.930 . S
H1085 C1100 0.939 1_655 S
H1086 C1100 0.961 . S
H1087 C1100 0.945 1_655 S
C1088 H1080 0.929 . S
C1088 C1089 1.377 . S
C1088 C1090 1.384 . S
C1089 C1088 1.377 . S
C1089 C1095 1.390 . S
C1090 H1081 0.930 . S
C1090 C1088 1.384 . S
C1090 C1091 1.372 . S
C1091 C1090 1.372 . S
C1091 C1092 1.400 . S
C1091 C1096 1.490 . S
C1092 H1082 0.930 1_455 S
C1092 C1091 1.400 . S
C1092 C1095 1.386 . S
H1093 C1109 0.930 . S
H1094 C1110 0.931 . S
C1095 H1083 0.929 1_455 S
C1095 C1089 1.390 . S
C1095 C1092 1.386 . S
C1096 C1091 1.490 . S
C1096 C1098 1.395 . S
C1096 C1099 1.403 . S
H1097 C1103 0.930 . S
C1098 H1084 0.930 . S
C1098 C1096 1.395 . S
C1098 C1101 1.403 . S
C1099 C1096 1.403 . S
C1099 C1100 1.561 . S
C1099 C1103 1.400 . S
C1100 H1085 0.939 1_455 S
C1100 H1086 0.961 . S
C1100 H1087 0.945 1_455 S
C1100 C1099 1.561 . S
C1101 C1098 1.403 . S
C1101 C1102 1.392 . S
C1101 C1105 1.495 . S
C1102 C1101 1.392 . S
C1102 C1103 1.385 . S
C1102 C1104 1.478 . S
C1103 H1097 0.930 . S
C1103 C1099 1.400 . S
C1103 C1102 1.385 . S
C1104 C1102 1.478 . S
C1104 C1106 1.381 . S
C1104 C1110 1.383 . S
C1105 C1101 1.495 . S
C1105 H1111 0.959 . S
C1105 H1112 0.961 . S
C1105 H1113 0.960 . S
C1106 C1104 1.381 . S
C1106 C1107 1.394 . S
C1106 H1114 0.930 . S
C1107 C1106 1.394 . S
C1107 C1108 1.383 . S
C1107 H1115 0.929 . S
C1108 C1107 1.383 . S
C1108 C1109 1.377 . S
C1109 H1093 0.930 . S
C1109 C1108 1.377 . S
C1109 C1110 1.379 . S
C1110 H1094 0.931 . S
C1110 C1104 1.383 . S
C1110 C1109 1.379 . S
H1111 C1105 0.959 . S
H1112 C1105 0.961 . S
H1113 C1105 0.960 . S
H1114 C1106 0.930 . S
H1115 C1107 0.929 . S
H1116 C1124 0.929 . S
H1117 C1126 0.930 . S
H1118 C1128 0.930 . S
H1119 C1131 0.929 . S
H1120 C1134 0.930 . S
H1121 C1136 0.960 . S
H1122 C1136 0.960 . S
H1123 C1136 0.960 . S
C1124 H1116 0.929 . S
C1124 C1125 1.377 . S
C1124 C1126 1.384 . S
C1125 C1124 1.377 . S
C1125 C1131 1.390 . S
C1126 H1117 0.930 . S
C1126 C1124 1.384 . S
C1126 C1127 1.372 . S
C1127 C1126 1.372 . S
C1127 C1128 1.400 . S
C1127 C1132 1.490 . S
C1128 H1118 0.930 . S
C1128 C1127 1.400 . S
C1128 C1131 1.386 . S
H1129 C1145 0.930 . S
H1130 C1146 0.931 . S
C1131 H1119 0.929 . S
C1131 C1125 1.390 . S
C1131 C1128 1.386 . S
C1132 C1127 1.490 . S
C1132 C1134 1.395 . S
C1132 C1135 1.403 . S
H1133 C1139 0.930 . S
C1134 H1120 0.930 . S
C1134 C1132 1.395 . S
C1134 C1137 1.403 . S
C1135 C1132 1.403 . S
C1135 C1136 1.524 . S
C1135 C1139 1.400 . S
C1136 H1121 0.960 . S
C1136 H1122 0.960 . S
C1136 H1123 0.960 . S
C1136 C1135 1.524 . S
C1137 C1134 1.403 . S
C1137 C1138 1.392 . S
C1137 C1141 1.495 . S
C1138 C1137 1.392 . S
C1138 C1139 1.385 . S
C1138 C1140 1.478 . S
C1139 H1133 0.930 . S
C1139 C1135 1.400 . S
C1139 C1138 1.385 . S
C1140 C1138 1.478 . S
C1140 C1142 1.381 . S
C1140 C1146 1.383 . S
C1141 C1137 1.495 . S
C1141 H1147 0.959 . S
C1141 H1148 0.961 . S
C1141 H1149 0.960 . S
C1142 C1140 1.381 . S
C1142 C1143 1.394 . S
C1142 H1150 0.930 . S
C1143 C1142 1.394 . S
C1143 C1144 1.383 . S
C1143 H1151 0.929 . S
C1144 C1143 1.383 . S
C1144 C1145 1.377 . S
C1145 H1129 0.930 . S
C1145 C1144 1.377 . S
C1145 C1146 1.379 . S
C1146 H1130 0.931 . S
C1146 C1140 1.383 . S
C1146 C1145 1.379 . S
H1147 C1141 0.959 . S
H1148 C1141 0.961 . S
H1149 C1141 0.960 . S
H1150 C1142 0.930 . S
H1151 C1143 0.929 . S
H1152 C1160 0.929 . S
H1153 C1162 0.930 . S
H1154 C1164 0.930 . S
H1155 C1167 0.929 . S
H1156 C1170 0.930 . S
H1157 C1172 0.960 . S
H1158 C1172 0.960 . S
H1159 C1172 0.960 . S
C1160 H1152 0.929 . S
C1160 C1161 1.377 . S
C1160 C1162 1.384 . S
C1161 C1160 1.377 . S
C1161 C1167 1.390 . S
C1162 H1153 0.930 . S
C1162 C1160 1.384 . S
C1162 C1163 1.372 . S
C1163 C1162 1.372 . S
C1163 C1164 1.400 . S
C1163 C1168 1.490 . S
C1164 H1154 0.930 . S
C1164 C1163 1.400 . S
C1164 C1167 1.386 . S
H1165 C1181 0.930 . S
H1166 C1182 0.931 . S
C1167 H1155 0.929 . S
C1167 C1161 1.390 . S
C1167 C1164 1.386 . S
C1168 C1163 1.490 . S
C1168 C1170 1.395 . S
C1168 C1171 1.403 . S
H1169 C1175 0.930 . S
C1170 H1156 0.930 . S
C1170 C1168 1.395 . S
C1170 C1173 1.403 . S
C1171 C1168 1.403 . S
C1171 C1172 1.524 . S
C1171 C1175 1.400 . S
C1172 H1157 0.960 . S
C1172 H1158 0.960 . S
C1172 H1159 0.960 . S
C1172 C1171 1.524 . S
C1173 C1170 1.403 . S
C1173 C1174 1.392 . S
C1173 C1177 1.495 . S
C1174 C1173 1.392 . S
C1174 C1175 1.385 . S
C1174 C1176 1.478 . S
C1175 H1169 0.930 . S
C1175 C1171 1.400 . S
C1175 C1174 1.385 . S
C1176 C1174 1.478 . S
C1176 C1178 1.381 . S
C1176 C1182 1.383 . S
C1177 C1173 1.495 . S
C1177 H1183 0.959 . S
C1177 H1184 0.961 . S
C1177 H1185 0.960 . S
C1178 C1176 1.381 . S
C1178 C1179 1.394 . S
C1178 H1186 0.930 . S
C1179 C1178 1.394 . S
C1179 C1180 1.383 . S
C1179 H1187 0.929 . S
C1180 C1179 1.383 . S
C1180 C1181 1.377 . S
C1181 H1165 0.930 . S
C1181 C1180 1.377 . S
C1181 C1182 1.379 . S
C1182 H1166 0.931 . S
C1182 C1176 1.383 . S
C1182 C1181 1.379 . S
H1183 C1177 0.959 . S
H1184 C1177 0.961 . S
H1185 C1177 0.960 . S
H1186 C1178 0.930 . S
H1187 C1179 0.929 . S
H1188 C1196 0.929 . S
H1189 C1198 0.930 . S
H1190 C1200 0.930 . S
H1191 C1203 0.929 . S
H1192 C1206 0.930 . S
H1193 C1208 0.960 . S
H1194 C1208 0.960 . S
H1195 C1208 0.960 . S
C1196 H1188 0.929 . S
C1196 C1197 1.377 . S
C1196 C1198 1.384 . S
C1197 C1196 1.377 . S
C1197 C1203 1.390 . S
C1198 H1189 0.930 . S
C1198 C1196 1.384 . S
C1198 C1199 1.372 . S
C1199 C1198 1.372 . S
C1199 C1200 1.400 . S
C1199 C1204 1.490 . S
C1200 H1190 0.930 . S
C1200 C1199 1.400 . S
C1200 C1203 1.386 . S
H1201 C1217 0.930 . S
H1202 C1218 0.931 . S
C1203 H1191 0.929 . S
C1203 C1197 1.390 . S
C1203 C1200 1.386 . S
C1204 C1199 1.490 . S
C1204 C1206 1.395 . S
C1204 C1207 1.403 . S
H1205 C1211 0.930 . S
C1206 H1192 0.930 . S
C1206 C1204 1.395 . S
C1206 C1209 1.403 . S
C1207 C1204 1.403 . S
C1207 C1208 1.524 . S
C1207 C1211 1.400 . S
C1208 H1193 0.960 . S
C1208 H1194 0.960 . S
C1208 H1195 0.960 . S
C1208 C1207 1.524 . S
C1209 C1206 1.403 . S
C1209 C1210 1.392 . S
C1209 C1213 1.495 . S
C1210 C1209 1.392 . S
C1210 C1211 1.385 . S
C1210 C1212 1.478 . S
C1211 H1205 0.930 . S
C1211 C1207 1.400 . S
C1211 C1210 1.385 . S
C1212 C1210 1.478 . S
C1212 C1214 1.381 . S
C1212 C1218 1.383 . S
C1213 C1209 1.495 . S
C1213 H1219 0.959 . S
C1213 H1220 0.961 . S
C1213 H1221 0.960 . S
C1214 C1212 1.381 . S
C1214 C1215 1.394 . S
C1214 H1222 0.930 . S
C1215 C1214 1.394 . S
C1215 C1216 1.383 . S
C1215 H1223 0.929 . S
C1216 C1215 1.383 . S
C1216 C1217 1.377 . S
C1217 H1201 0.930 . S
C1217 C1216 1.377 . S
C1217 C1218 1.379 . S
C1218 H1202 0.931 . S
C1218 C1212 1.383 . S
C1218 C1217 1.379 . S
H1219 C1213 0.959 . S
H1220 C1213 0.961 . S
H1221 C1213 0.960 . S
H1222 C1214 0.930 . S
H1223 C1215 0.929 . S
H1224 C1232 0.929 . S
H1225 C1234 0.930 . S
H1226 C1236 0.930 . S
H1227 C1239 0.929 . S
H1228 C1242 0.930 . S
H1229 C1244 0.960 . S
H1230 C1244 0.960 . S
H1231 C1244 0.960 . S
C1232 H1224 0.929 . S
C1232 C1233 1.377 . S
C1232 C1234 1.384 . S
C1233 C1232 1.377 . S
C1233 C1239 1.390 . S
C1234 H1225 0.930 . S
C1234 C1232 1.384 . S
C1234 C1235 1.372 . S
C1235 C1234 1.372 . S
C1235 C1236 1.400 . S
C1235 C1240 1.490 . S
C1236 H1226 0.930 . S
C1236 C1235 1.400 . S
C1236 C1239 1.386 . S
H1237 C1253 0.930 . S
H1238 C1254 0.931 . S
C1239 H1227 0.929 . S
C1239 C1233 1.390 . S
C1239 C1236 1.386 . S
C1240 C1235 1.490 . S
C1240 C1242 1.395 . S
C1240 C1243 1.403 . S
H1241 C1247 0.930 . S
C1242 H1228 0.930 . S
C1242 C1240 1.395 . S
C1242 C1245 1.403 . S
C1243 C1240 1.403 . S
C1243 C1244 1.524 . S
C1243 C1247 1.400 . S
C1244 H1229 0.960 . S
C1244 H1230 0.960 . S
C1244 H1231 0.960 . S
C1244 C1243 1.524 . S
C1245 C1242 1.403 . S
C1245 C1246 1.392 . S
C1245 C1249 1.495 . S
C1246 C1245 1.392 . S
C1246 C1247 1.385 . S
C1246 C1248 1.478 . S
C1247 H1241 0.930 . S
C1247 C1243 1.400 . S
C1247 C1246 1.385 . S
C1248 C1246 1.478 . S
C1248 C1250 1.381 . S
C1248 C1254 1.383 . S
C1249 C1245 1.495 . S
C1249 H1255 0.959 . S
C1249 H1256 0.961 . S
C1249 H1257 0.960 . S
C1250 C1248 1.381 . S
C1250 C1251 1.394 . S
C1250 H1258 0.930 . S
C1251 C1250 1.394 . S
C1251 C1252 1.383 . S
C1251 H1259 0.929 . S
C1252 C1251 1.383 . S
C1252 C1253 1.377 . S
C1253 H1237 0.930 . S
C1253 C1252 1.377 . S
C1253 C1254 1.379 . S
C1254 H1238 0.931 . S
C1254 C1248 1.383 . S
C1254 C1253 1.379 . S
H1255 C1249 0.959 . S
H1256 C1249 0.961 . S
H1257 C1249 0.960 . S
H1258 C1250 0.930 . S
H1259 C1251 0.929 . S
H1260 C1268 0.929 . S
H1261 C1270 0.930 . S
H1262 C1272 0.930 . S
H1263 C1275 0.929 . S
H1264 C1278 0.930 . S
H1265 C1280 0.960 . S
H1266 C1280 0.960 . S
H1267 C1280 0.960 . S
C1268 H1260 0.929 . S
C1268 C1269 1.377 . S
C1268 C1270 1.384 . S
C1269 C1268 1.377 . S
C1269 C1275 1.390 . S
C1270 H1261 0.930 . S
C1270 C1268 1.384 . S
C1270 C1271 1.372 . S
C1271 C1270 1.372 . S
C1271 C1272 1.400 . S
C1271 C1276 1.490 . S
C1272 H1262 0.930 . S
C1272 C1271 1.400 . S
C1272 C1275 1.386 . S
H1273 C1289 0.930 . S
H1274 C1290 0.931 . S
C1275 H1263 0.929 . S
C1275 C1269 1.390 . S
C1275 C1272 1.386 . S
C1276 C1271 1.490 . S
C1276 C1278 1.395 . S
C1276 C1279 1.403 . S
H1277 C1283 0.930 . S
C1278 H1264 0.930 . S
C1278 C1276 1.395 . S
C1278 C1281 1.403 . S
C1279 C1276 1.403 . S
C1279 C1280 1.524 . S
C1279 C1283 1.400 . S
C1280 H1265 0.960 . S
C1280 H1266 0.960 . S
C1280 H1267 0.960 . S
C1280 C1279 1.524 . S
C1281 C1278 1.403 . S
C1281 C1282 1.392 . S
C1281 C1285 1.495 . S
C1282 C1281 1.392 . S
C1282 C1283 1.385 . S
C1282 C1284 1.478 . S
C1283 H1277 0.930 . S
C1283 C1279 1.400 . S
C1283 C1282 1.385 . S
C1284 C1282 1.478 . S
C1284 C1286 1.381 . S
C1284 C1290 1.383 . S
C1285 C1281 1.495 . S
C1285 H1291 0.959 . S
C1285 H1292 0.961 . S
C1285 H1293 0.960 . S
C1286 C1284 1.381 . S
C1286 C1287 1.394 . S
C1286 H1294 0.930 . S
C1287 C1286 1.394 . S
C1287 C1288 1.383 . S
C1287 H1295 0.929 . S
C1288 C1287 1.383 . S
C1288 C1289 1.377 . S
C1289 H1273 0.930 . S
C1289 C1288 1.377 . S
C1289 C1290 1.379 . S
C1290 H1274 0.931 . S
C1290 C1284 1.383 . S
C1290 C1289 1.379 . S
H1291 C1285 0.959 . S
H1292 C1285 0.961 . S
H1293 C1285 0.960 . S
H1294 C1286 0.930 . S
H1295 C1287 0.929 . S
H1296 C1304 0.929 . S
H1297 C1306 0.930 . S
H1298 C1308 0.930 . S
H1299 C1311 0.929 . S
H1300 C1314 0.930 . S
H1301 C1316 0.960 . S
H1302 C1316 0.960 . S
H1303 C1316 0.960 . S
C1304 H1296 0.929 . S
C1304 C1305 1.377 . S
C1304 C1306 1.384 . S
C1305 C1304 1.377 . S
C1305 C1311 1.390 . S
C1306 H1297 0.930 . S
C1306 C1304 1.384 . S
C1306 C1307 1.372 . S
C1307 C1306 1.372 . S
C1307 C1308 1.400 . S
C1307 C1312 1.490 . S
C1308 H1298 0.930 . S
C1308 C1307 1.400 . S
C1308 C1311 1.386 . S
H1309 C1325 0.930 . S
H1310 C1326 0.931 . S
C1311 H1299 0.929 . S
C1311 C1305 1.390 . S
C1311 C1308 1.386 . S
C1312 C1307 1.490 . S
C1312 C1314 1.395 . S
C1312 C1315 1.403 . S
H1313 C1319 0.930 . S
C1314 H1300 0.930 . S
C1314 C1312 1.395 . S
C1314 C1317 1.403 . S
C1315 C1312 1.403 . S
C1315 C1316 1.524 . S
C1315 C1319 1.400 . S
C1316 H1301 0.960 . S
C1316 H1302 0.960 . S
C1316 H1303 0.960 . S
C1316 C1315 1.524 . S
C1317 C1314 1.403 . S
C1317 C1318 1.392 . S
C1317 C1321 1.495 . S
C1318 C1317 1.392 . S
C1318 C1319 1.385 . S
C1318 C1320 1.478 . S
C1319 H1313 0.930 . S
C1319 C1315 1.400 . S
C1319 C1318 1.385 . S
C1320 C1318 1.478 . S
C1320 C1322 1.381 . S
C1320 C1326 1.383 . S
C1321 C1317 1.495 . S
C1321 H1327 0.959 . S
C1321 H1328 0.961 . S
C1321 H1329 0.960 . S
C1322 C1320 1.381 . S
C1322 C1323 1.394 . S
C1322 H1330 0.930 . S
C1323 C1322 1.394 . S
C1323 C1324 1.383 . S
C1323 H1331 0.929 . S
C1324 C1323 1.383 . S
C1324 C1325 1.377 . S
C1325 H1309 0.930 . S
C1325 C1324 1.377 . S
C1325 C1326 1.379 . S
C1326 H1310 0.931 . S
C1326 C1320 1.383 . S
C1326 C1325 1.379 . S
H1327 C1321 0.959 . S
H1328 C1321 0.961 . S
H1329 C1321 0.960 . S
H1330 C1322 0.930 . S
H1331 C1323 0.929 . S
H1332 C1340 0.929 . S
H1333 C1342 0.930 . S
H1334 C1344 0.930 . S
H1335 C1347 0.929 . S
H1336 C1350 0.930 . S
H1337 C1352 0.960 . S
H1338 C1352 0.960 . S
H1339 C1352 0.960 . S
C1340 H1332 0.929 . S
C1340 C1341 1.377 . S
C1340 C1342 1.384 . S
C1341 C1340 1.377 . S
C1341 C1347 1.390 . S
C1342 H1333 0.930 . S
C1342 C1340 1.384 . S
C1342 C1343 1.372 . S
C1343 C1342 1.372 . S
C1343 C1344 1.400 . S
C1343 C1348 1.490 . S
C1344 H1334 0.930 . S
C1344 C1343 1.400 . S
C1344 C1347 1.386 . S
H1345 C1361 0.930 . S
H1346 C1362 0.931 . S
C1347 H1335 0.929 . S
C1347 C1341 1.390 . S
C1347 C1344 1.386 . S
C1348 C1343 1.490 . S
C1348 C1350 1.395 . S
C1348 C1351 1.403 . S
H1349 C1355 0.930 . S
C1350 H1336 0.930 . S
C1350 C1348 1.395 . S
C1350 C1353 1.403 . S
C1351 C1348 1.403 . S
C1351 C1352 1.524 . S
C1351 C1355 1.400 . S
C1352 H1337 0.960 . S
C1352 H1338 0.960 . S
C1352 H1339 0.960 . S
C1352 C1351 1.524 . S
C1353 C1350 1.403 . S
C1353 C1354 1.392 . S
C1353 C1357 1.495 . S
C1354 C1353 1.392 . S
C1354 C1355 1.385 . S
C1354 C1356 1.478 . S
C1355 H1349 0.930 . S
C1355 C1351 1.400 . S
C1355 C1354 1.385 . S
C1356 C1354 1.478 . S
C1356 C1358 1.381 . S
C1356 C1362 1.383 . S
C1357 C1353 1.495 . S
C1357 H1363 0.959 . S
C1357 H1364 0.961 . S
C1357 H1365 0.960 . S
C1358 C1356 1.381 . S
C1358 C1359 1.394 . S
C1358 H1366 0.930 . S
C1359 C1358 1.394 . S
C1359 C1360 1.383 . S
C1359 H1367 0.929 . S
C1360 C1359 1.383 . S
C1360 C1361 1.377 . S
C1361 H1345 0.930 . S
C1361 C1360 1.377 . S
C1361 C1362 1.379 . S
C1362 H1346 0.931 . S
C1362 C1356 1.383 . S
C1362 C1361 1.379 . S
H1363 C1357 0.959 . S
H1364 C1357 0.961 . S
H1365 C1357 0.960 . S
H1366 C1358 0.930 . S
H1367 C1359 0.929 . S
H1368 C1376 0.929 . S
H1369 C1378 0.930 . S
H1370 C1380 0.930 . S
H1371 C1383 0.929 . S
H1372 C1386 0.930 . S
H1373 C1388 0.960 . S
H1374 C1388 0.960 . S
H1375 C1388 0.960 . S
C1376 H1368 0.929 . S
C1376 C1377 1.377 . S
C1376 C1378 1.384 . S
C1377 C1376 1.377 . S
C1377 C1383 1.390 . S
C1378 H1369 0.930 . S
C1378 C1376 1.384 . S
C1378 C1379 1.372 . S
C1379 C1378 1.372 . S
C1379 C1380 1.400 . S
C1379 C1384 1.490 . S
C1380 H1370 0.930 . S
C1380 C1379 1.400 . S
C1380 C1383 1.386 . S
H1381 C1397 0.930 . S
H1382 C1398 0.931 . S
C1383 H1371 0.929 . S
C1383 C1377 1.390 . S
C1383 C1380 1.386 . S
C1384 C1379 1.490 . S
C1384 C1386 1.395 . S
C1384 C1387 1.403 . S
H1385 C1391 0.930 . S
C1386 H1372 0.930 . S
C1386 C1384 1.395 . S
C1386 C1389 1.403 . S
C1387 C1384 1.403 . S
C1387 C1388 1.524 . S
C1387 C1391 1.400 . S
C1388 H1373 0.960 . S
C1388 H1374 0.960 . S
C1388 H1375 0.960 . S
C1388 C1387 1.524 . S
C1389 C1386 1.403 . S
C1389 C1390 1.392 . S
C1389 C1393 1.495 . S
C1390 C1389 1.392 . S
C1390 C1391 1.385 . S
C1390 C1392 1.478 . S
C1391 H1385 0.930 . S
C1391 C1387 1.400 . S
C1391 C1390 1.385 . S
C1392 C1390 1.478 . S
C1392 C1394 1.381 . S
C1392 C1398 1.383 . S
C1393 C1389 1.495 . S
C1393 H1399 0.959 . S
C1393 H1400 0.961 . S
C1393 H1401 0.960 . S
C1394 C1392 1.381 . S
C1394 C1395 1.394 . S
C1394 H1402 0.930 . S
C1395 C1394 1.394 . S
C1395 C1396 1.383 . S
C1395 H1403 0.929 . S
C1396 C1395 1.383 . S
C1396 C1397 1.377 . S
C1397 H1381 0.930 . S
C1397 C1396 1.377 . S
C1397 C1398 1.379 . S
C1398 H1382 0.931 . S
C1398 C1392 1.383 . S
C1398 C1397 1.379 . S
H1399 C1393 0.959 . S
H1400 C1393 0.961 . S
H1401 C1393 0.960 . S
H1402 C1394 0.930 . S
H1403 C1395 0.929 . S
H1404 C1412 0.929 . S
H1405 C1414 0.930 . S
H1406 C1416 0.930 . S
H1407 C1419 0.929 . S
H1408 C1422 0.930 . S
H1409 C1424 0.960 . S
H1410 C1424 0.960 . S
H1411 C1424 0.960 . S
C1412 H1404 0.929 . S
C1412 C1413 1.377 . S
C1412 C1414 1.384 . S
C1413 C1412 1.377 . S
C1413 C1419 1.390 . S
C1414 H1405 0.930 . S
C1414 C1412 1.384 . S
C1414 C1415 1.372 . S
C1415 C1414 1.372 . S
C1415 C1416 1.400 . S
C1415 C1420 1.490 . S
C1416 H1406 0.930 . S
C1416 C1415 1.400 . S
C1416 C1419 1.386 . S
H1417 C1433 0.930 . S
H1418 C1434 0.931 . S
C1419 H1407 0.929 . S
C1419 C1413 1.390 . S
C1419 C1416 1.386 . S
C1420 C1415 1.490 . S
C1420 C1422 1.395 . S
C1420 C1423 1.403 . S
H1421 C1427 0.930 . S
C1422 H1408 0.930 . S
C1422 C1420 1.395 . S
C1422 C1425 1.403 . S
C1423 C1420 1.403 . S
C1423 C1424 1.524 . S
C1423 C1427 1.400 . S
C1424 H1409 0.960 . S
C1424 H1410 0.960 . S
C1424 H1411 0.960 . S
C1424 C1423 1.524 . S
C1425 C1422 1.403 . S
C1425 C1426 1.392 . S
C1425 C1429 1.495 . S
C1426 C1425 1.392 . S
C1426 C1427 1.385 . S
C1426 C1428 1.478 . S
C1427 H1421 0.930 . S
C1427 C1423 1.400 . S
C1427 C1426 1.385 . S
C1428 C1426 1.478 . S
C1428 C1430 1.381 . S
C1428 C1434 1.383 . S
C1429 C1425 1.495 . S
C1429 H1435 0.959 . S
C1429 H1436 0.961 . S
C1429 H1437 0.960 . S
C1430 C1428 1.381 . S
C1430 C1431 1.394 . S
C1430 H1438 0.930 . S
C1431 C1430 1.394 . S
C1431 C1432 1.383 . S
C1431 H1439 0.929 . S
C1432 C1431 1.383 . S
C1432 C1433 1.377 . S
C1433 H1417 0.930 . S
C1433 C1432 1.377 . S
C1433 C1434 1.379 . S
C1434 H1418 0.931 . S
C1434 C1428 1.383 . S
C1434 C1433 1.379 . S
H1435 C1429 0.959 . S
H1436 C1429 0.961 . S
H1437 C1429 0.960 . S
H1438 C1430 0.930 . S
H1439 C1431 0.929 . S
H1440 C1448 0.929 . S
H1441 C1450 0.930 . S
H1442 C1452 0.930 . S
H1443 C1455 0.929 . S
H1444 C1458 0.930 . S
H1445 C1460 0.960 . S
H1446 C1460 0.960 . S
H1447 C1460 0.960 . S
C1448 H1440 0.929 . S
C1448 C1449 1.377 . S
C1448 C1450 1.384 . S
C1449 C1448 1.377 . S
C1449 C1455 1.390 . S
C1450 H1441 0.930 . S
C1450 C1448 1.384 . S
C1450 C1451 1.372 . S
C1451 C1450 1.372 . S
C1451 C1452 1.400 . S
C1451 C1456 1.490 . S
C1452 H1442 0.930 . S
C1452 C1451 1.400 . S
C1452 C1455 1.386 . S
H1453 C1469 0.930 . S
H1454 C1470 0.931 . S
C1455 H1443 0.929 . S
C1455 C1449 1.390 . S
C1455 C1452 1.386 . S
C1456 C1451 1.490 . S
C1456 C1458 1.395 . S
C1456 C1459 1.403 . S
H1457 C1463 0.930 . S
C1458 H1444 0.930 . S
C1458 C1456 1.395 . S
C1458 C1461 1.403 . S
C1459 C1456 1.403 . S
C1459 C1460 1.524 . S
C1459 C1463 1.400 . S
C1460 H1445 0.960 . S
C1460 H1446 0.960 . S
C1460 H1447 0.960 . S
C1460 C1459 1.524 . S
C1461 C1458 1.403 . S
C1461 C1462 1.392 . S
C1461 C1465 1.495 . S
C1462 C1461 1.392 . S
C1462 C1463 1.385 . S
C1462 C1464 1.478 . S
C1463 H1457 0.930 . S
C1463 C1459 1.400 . S
C1463 C1462 1.385 . S
C1464 C1462 1.478 . S
C1464 C1466 1.381 . S
C1464 C1470 1.383 . S
C1465 C1461 1.495 . S
C1465 H1471 0.959 . S
C1465 H1472 0.961 . S
C1465 H1473 0.960 . S
C1466 C1464 1.381 . S
C1466 C1467 1.394 . S
C1466 H1474 0.930 . S
C1467 C1466 1.394 . S
C1467 C1468 1.383 . S
C1467 H1475 0.929 . S
C1468 C1467 1.383 . S
C1468 C1469 1.377 . S
C1469 H1453 0.930 . S
C1469 C1468 1.377 . S
C1469 C1470 1.379 . S
C1470 H1454 0.931 . S
C1470 C1464 1.383 . S
C1470 C1469 1.379 . S
H1471 C1465 0.959 . S
H1472 C1465 0.961 . S
H1473 C1465 0.960 . S
H1474 C1466 0.930 . S
H1475 C1467 0.929 . S
H1476 C1484 0.929 . S
H1477 C1486 0.930 . S
H1478 C1488 0.930 . S
H1479 C1491 0.929 . S
H1480 C1494 0.930 . S
H1481 C1496 0.960 . S
H1482 C1496 0.960 . S
H1483 C1496 0.960 . S
C1484 H1476 0.929 . S
C1484 C1485 1.377 . S
C1484 C1486 1.384 . S
C1485 C1484 1.377 . S
C1485 C1491 1.390 . S
C1486 H1477 0.930 . S
C1486 C1484 1.384 . S
C1486 C1487 1.372 . S
C1487 C1486 1.372 . S
C1487 C1488 1.400 . S
C1487 C1492 1.490 . S
C1488 H1478 0.930 . S
C1488 C1487 1.400 . S
C1488 C1491 1.386 . S
H1489 C1505 0.930 . S
H1490 C1506 0.931 . S
C1491 H1479 0.929 . S
C1491 C1485 1.390 . S
C1491 C1488 1.386 . S
C1492 C1487 1.490 . S
C1492 C1494 1.395 . S
C1492 C1495 1.403 . S
H1493 C1499 0.930 . S
C1494 H1480 0.930 . S
C1494 C1492 1.395 . S
C1494 C1497 1.403 . S
C1495 C1492 1.403 . S
C1495 C1496 1.524 . S
C1495 C1499 1.400 . S
C1496 H1481 0.960 . S
C1496 H1482 0.960 . S
C1496 H1483 0.960 . S
C1496 C1495 1.524 . S
C1497 C1494 1.403 . S
C1497 C1498 1.392 . S
C1497 C1501 1.495 . S
C1498 C1497 1.392 . S
C1498 C1499 1.385 . S
C1498 C1500 1.478 . S
C1499 H1493 0.930 . S
C1499 C1495 1.400 . S
C1499 C1498 1.385 . S
C1500 C1498 1.478 . S
C1500 C1502 1.381 . S
C1500 C1506 1.383 . S
C1501 C1497 1.495 . S
C1501 H1507 0.959 . S
C1501 H1508 0.961 . S
C1501 H1509 0.960 . S
C1502 C1500 1.381 . S
C1502 C1503 1.394 . S
C1502 H1510 0.930 . S
C1503 C1502 1.394 . S
C1503 C1504 1.383 . S
C1503 H1511 0.929 . S
C1504 C1503 1.383 . S
C1504 C1505 1.377 . S
C1505 H1489 0.930 . S
C1505 C1504 1.377 . S
C1505 C1506 1.379 . S
C1506 H1490 0.931 . S
C1506 C1500 1.383 . S
C1506 C1505 1.379 . S
H1507 C1501 0.959 . S
H1508 C1501 0.961 . S
H1509 C1501 0.960 . S
H1510 C1502 0.930 . S
H1511 C1503 0.929 . S
H1512 C1520 0.929 . S
H1513 C1522 0.930 . S
H1514 C1524 0.930 . S
H1515 C1527 0.929 . S
H1516 C1530 0.930 . S
H1517 C1532 0.960 . S
H1518 C1532 0.960 . S
H1519 C1532 0.960 . S
C1520 H1512 0.929 . S
C1520 C1521 1.377 . S
C1520 C1522 1.384 . S
C1521 C1520 1.377 . S
C1521 C1527 1.390 . S
C1522 H1513 0.930 . S
C1522 C1520 1.384 . S
C1522 C1523 1.372 . S
C1523 C1522 1.372 . S
C1523 C1524 1.400 . S
C1523 C1528 1.490 . S
C1524 H1514 0.930 . S
C1524 C1523 1.400 . S
C1524 C1527 1.386 . S
H1525 C1541 0.930 . S
H1526 C1542 0.931 . S
C1527 H1515 0.929 . S
C1527 C1521 1.390 . S
C1527 C1524 1.386 . S
C1528 C1523 1.490 . S
C1528 C1530 1.395 . S
C1528 C1531 1.403 . S
H1529 C1535 0.930 . S
C1530 H1516 0.930 . S
C1530 C1528 1.395 . S
C1530 C1533 1.403 . S
C1531 C1528 1.403 . S
C1531 C1532 1.524 . S
C1531 C1535 1.400 . S
C1532 H1517 0.960 . S
C1532 H1518 0.960 . S
C1532 H1519 0.960 . S
C1532 C1531 1.524 . S
C1533 C1530 1.403 . S
C1533 C1534 1.392 . S
C1533 C1537 1.495 . S
C1534 C1533 1.392 . S
C1534 C1535 1.385 . S
C1534 C1536 1.478 . S
C1535 H1529 0.930 . S
C1535 C1531 1.400 . S
C1535 C1534 1.385 . S
C1536 C1534 1.478 . S
C1536 C1538 1.381 . S
C1536 C1542 1.383 . S
C1537 C1533 1.495 . S
C1537 H1543 0.959 . S
C1537 H1544 0.961 . S
C1537 H1545 0.960 . S
C1538 C1536 1.381 . S
C1538 C1539 1.394 . S
C1538 H1546 0.930 . S
C1539 C1538 1.394 . S
C1539 C1540 1.383 . S
C1539 H1547 0.929 . S
C1540 C1539 1.383 . S
C1540 C1541 1.377 . S
C1541 H1525 0.930 . S
C1541 C1540 1.377 . S
C1541 C1542 1.379 . S
C1542 H1526 0.931 . S
C1542 C1536 1.383 . S
C1542 C1541 1.379 . S
H1543 C1537 0.959 . S
H1544 C1537 0.961 . S
H1545 C1537 0.960 . S
H1546 C1538 0.930 . S
H1547 C1539 0.929 . S
H1548 C1556 0.929 . S
H1549 C1558 0.930 . S
H1550 C1560 0.930 . S
H1551 C1563 0.929 . S
H1552 C1566 0.930 . S
H1553 C1568 0.960 . S
H1554 C1568 0.960 . S
H1555 C1568 0.960 . S
C1556 H1548 0.929 . S
C1556 C1557 1.377 . S
C1556 C1558 1.384 . S
C1557 C1556 1.377 . S
C1557 C1563 1.390 . S
C1558 H1549 0.930 . S
C1558 C1556 1.384 . S
C1558 C1559 1.372 . S
C1559 C1558 1.372 . S
C1559 C1560 1.400 . S
C1559 C1564 1.490 . S
C1560 H1550 0.930 . S
C1560 C1559 1.400 . S
C1560 C1563 1.386 . S
H1561 C1577 0.930 . S
H1562 C1578 0.931 . S
C1563 H1551 0.929 . S
C1563 C1557 1.390 . S
C1563 C1560 1.386 . S
C1564 C1559 1.490 . S
C1564 C1566 1.395 . S
C1564 C1567 1.403 . S
H1565 C1571 0.930 . S
C1566 H1552 0.930 . S
C1566 C1564 1.395 . S
C1566 C1569 1.403 . S
C1567 C1564 1.403 . S
C1567 C1568 1.524 . S
C1567 C1571 1.400 . S
C1568 H1553 0.960 . S
C1568 H1554 0.960 . S
C1568 H1555 0.960 . S
C1568 C1567 1.524 . S
C1569 C1566 1.403 . S
C1569 C1570 1.392 . S
C1569 C1573 1.495 . S
C1570 C1569 1.392 . S
C1570 C1571 1.385 . S
C1570 C1572 1.478 . S
C1571 H1565 0.930 . S
C1571 C1567 1.400 . S
C1571 C1570 1.385 . S
C1572 C1570 1.478 . S
C1572 C1574 1.381 . S
C1572 C1578 1.383 . S
C1573 C1569 1.495 . S
C1573 H1579 0.959 . S
C1573 H1580 0.961 . S
C1573 H1581 0.960 . S
C1574 C1572 1.381 . S
C1574 C1575 1.394 . S
C1574 H1582 0.930 . S
C1575 C1574 1.394 . S
C1575 C1576 1.383 . S
C1575 H1583 0.929 . S
C1576 C1575 1.383 . S
C1576 C1577 1.377 . S
C1577 H1561 0.930 . S
C1577 C1576 1.377 . S
C1577 C1578 1.379 . S
C1578 H1562 0.931 . S
C1578 C1572 1.383 . S
C1578 C1577 1.379 . S
H1579 C1573 0.959 . S
H1580 C1573 0.961 . S
H1581 C1573 0.960 . S
H1582 C1574 0.930 . S
H1583 C1575 0.929 . S
H1584 C1592 0.929 . S
H1585 C1594 0.930 . S
H1586 C1596 0.930 . S
H1587 C1599 0.929 . S
H1588 C1602 0.930 . S
H1589 C1604 0.960 . S
H1590 C1604 0.960 . S
H1591 C1604 0.960 . S
C1592 H1584 0.929 . S
C1592 C1593 1.377 1_655 S
C1592 C1594 1.384 . S
C1593 C1592 1.377 1_455 S
C1593 C1599 1.390 . S
C1594 H1585 0.930 . S
C1594 C1592 1.384 . S
C1594 C1595 1.372 1_655 S
C1595 C1594 1.372 1_455 S
C1595 C1596 1.400 . S
C1595 C1600 1.488 . S
C1596 H1586 0.930 . S
C1596 C1595 1.400 . S
C1596 C1599 1.386 . S
H1597 C1613 0.930 . S
H1598 C1614 0.931 . S
C1599 H1587 0.929 . S
C1599 C1593 1.390 . S
C1599 C1596 1.386 . S
C1600 C1595 1.488 . S
C1600 C1602 1.397 1_455 S
C1600 C1603 1.402 . S
H1601 C1607 0.930 . S
C1602 H1588 0.930 . S
C1602 C1600 1.397 1_655 S
C1602 C1605 1.403 . S
C1603 C1600 1.402 . S
C1603 C1604 1.524 . S
C1603 C1607 1.400 . S
C1604 H1589 0.960 . S
C1604 H1590 0.960 . S
C1604 H1591 0.960 . S
C1604 C1603 1.524 . S
C1605 C1602 1.403 . S
C1605 C1606 1.392 . S
C1605 C1609 1.495 . S
C1606 C1605 1.392 . S
C1606 C1607 1.385 1_655 S
C1606 C1608 1.478 . S
C1607 H1601 0.930 . S
C1607 C1603 1.400 . S
C1607 C1606 1.385 1_455 S
C1608 C1606 1.478 . S
C1608 C1610 1.381 . S
C1608 C1614 1.383 1_655 S
C1609 C1605 1.495 . S
C1609 H1615 0.959 . S
C1609 H1616 0.961 . S
C1609 H1617 0.960 . S
C1610 C1608 1.381 . S
C1610 C1611 1.394 . S
C1610 H1618 0.930 . S
C1611 C1610 1.394 . S
C1611 C1612 1.383 . S
C1611 H1619 0.929 . S
C1612 C1611 1.383 . S
C1612 C1613 1.377 1_655 S
C1613 H1597 0.930 . S
C1613 C1612 1.377 1_455 S
C1613 C1614 1.379 . S
C1614 H1598 0.931 . S
C1614 C1608 1.383 1_455 S
C1614 C1613 1.379 . S
H1615 C1609 0.959 . S
H1616 C1609 0.961 . S
H1617 C1609 0.960 . S
H1618 C1610 0.930 . S
H1619 C1611 0.929 . S
H1620 C1628 0.929 . S
H1621 C1630 0.930 . S
H1622 C1632 0.930 . S
H1623 C1635 0.929 . S
H1624 C1638 0.930 . S
H1625 C1640 0.960 . S
H1626 C1640 0.960 . S
H1627 C1640 0.960 . S
C1628 H1620 0.929 . S
C1628 C1629 1.377 . S
C1628 C1630 1.384 . S
C1629 C1628 1.377 . S
C1629 C1635 1.390 . S
C1630 H1621 0.930 . S
C1630 C1628 1.384 . S
C1630 C1631 1.372 . S
C1631 C1630 1.372 . S
C1631 C1632 1.400 . S
C1631 C1636 1.490 . S
C1632 H1622 0.930 . S
C1632 C1631 1.400 . S
C1632 C1635 1.386 . S
H1633 C1649 0.930 . S
H1634 C1650 0.931 . S
C1635 H1623 0.929 . S
C1635 C1629 1.390 . S
C1635 C1632 1.386 . S
C1636 C1631 1.490 . S
C1636 C1638 1.395 . S
C1636 C1639 1.403 . S
H1637 C1643 0.930 . S
C1638 H1624 0.930 . S
C1638 C1636 1.395 . S
C1638 C1641 1.403 . S
C1639 C1636 1.403 . S
C1639 C1640 1.524 . S
C1639 C1643 1.400 . S
C1640 H1625 0.960 . S
C1640 H1626 0.960 . S
C1640 H1627 0.960 . S
C1640 C1639 1.524 . S
C1641 C1638 1.403 . S
C1641 C1642 1.392 . S
C1641 C1645 1.495 . S
C1642 C1641 1.392 . S
C1642 C1643 1.385 . S
C1642 C1644 1.478 . S
C1643 H1637 0.930 . S
C1643 C1639 1.400 . S
C1643 C1642 1.385 . S
C1644 C1642 1.478 . S
C1644 C1646 1.381 . S
C1644 C1650 1.383 . S
C1645 C1641 1.495 . S
C1645 H1651 0.959 . S
C1645 H1652 0.961 . S
C1645 H1653 0.960 . S
C1646 C1644 1.381 . S
C1646 C1647 1.394 . S
C1646 H1654 0.930 . S
C1647 C1646 1.394 . S
C1647 C1648 1.383 . S
C1647 H1655 0.929 . S
C1648 C1647 1.383 . S
C1648 C1649 1.377 . S
C1649 H1633 0.930 . S
C1649 C1648 1.377 . S
C1649 C1650 1.379 . S
C1650 H1634 0.931 . S
C1650 C1644 1.383 . S
C1650 C1649 1.379 . S
H1651 C1645 0.959 . S
H1652 C1645 0.961 . S
H1653 C1645 0.960 . S
H1654 C1646 0.930 . S
H1655 C1647 0.929 . S
H1656 C1664 0.929 . S
H1657 C1666 0.930 . S
H1658 C1668 0.930 . S
H1659 C1671 0.929 . S
H1660 C1674 0.930 . S
H1661 C1676 0.960 . S
H1662 C1676 0.960 . S
H1663 C1676 0.960 . S
C1664 H1656 0.929 . S
C1664 C1665 1.377 . S
C1664 C1666 1.384 . S
C1665 C1664 1.377 . S
C1665 C1671 1.390 . S
C1666 H1657 0.930 . S
C1666 C1664 1.384 . S
C1666 C1667 1.372 . S
C1667 C1666 1.372 . S
C1667 C1668 1.400 . S
C1667 C1672 1.490 . S
C1668 H1658 0.930 . S
C1668 C1667 1.400 . S
C1668 C1671 1.386 . S
H1669 C1685 0.930 . S
H1670 C1686 0.931 . S
C1671 H1659 0.929 . S
C1671 C1665 1.390 . S
C1671 C1668 1.386 . S
C1672 C1667 1.490 . S
C1672 C1674 1.395 . S
C1672 C1675 1.403 1_545 S
H1673 C1679 0.930 . S
C1674 H1660 0.930 . S
C1674 C1672 1.395 . S
C1674 C1677 1.403 . S
C1675 C1672 1.403 1_565 S
C1675 C1676 1.524 . S
C1675 C1679 1.400 . S
C1676 H1661 0.960 . S
C1676 H1662 0.960 . S
C1676 H1663 0.960 . S
C1676 C1675 1.524 . S
C1677 C1674 1.403 . S
C1677 C1678 1.392 1_545 S
C1677 C1681 1.495 . S
C1678 C1677 1.392 1_565 S
C1678 C1679 1.385 . S
C1678 C1680 1.478 . S
C1679 H1673 0.930 . S
C1679 C1675 1.400 . S
C1679 C1678 1.385 . S
C1680 C1678 1.478 . S
C1680 C1682 1.381 . S
C1680 C1686 1.383 . S
C1681 C1677 1.495 . S
C1681 H1687 0.959 . S
C1681 H1688 0.961 . S
C1681 H1689 0.960 . S
C1682 C1680 1.381 . S
C1682 C1683 1.394 . S
C1682 H1690 0.930 . S
C1683 C1682 1.394 . S
C1683 C1684 1.383 . S
C1683 H1691 0.929 . S
C1684 C1683 1.383 . S
C1684 C1685 1.377 . S
C1685 H1669 0.930 . S
C1685 C1684 1.377 . S
C1685 C1686 1.379 . S
C1686 H1670 0.931 . S
C1686 C1680 1.383 . S
C1686 C1685 1.379 . S
H1687 C1681 0.959 . S
H1688 C1681 0.961 . S
H1689 C1681 0.960 . S
H1690 C1682 0.930 . S
H1691 C1683 0.929 . S
H1692 C1700 0.929 . S
H1693 C1702 0.930 . S
H1694 C1704 0.930 . S
H1695 C1707 0.929 . S
H1696 C1710 0.930 . S
H1697 C1712 0.960 . S
H1698 C1712 0.960 1_545 S
H1699 C1712 0.960 . S
C1700 H1692 0.929 . S
C1700 C1701 1.377 1_554 S
C1700 C1702 1.384 . S
C1701 C1700 1.377 1_556 S
C1701 C1707 1.390 1_545 S
C1702 H1693 0.930 . S
C1702 C1700 1.384 . S
C1702 C1703 1.372 1_554 S
C1703 C1702 1.372 1_556 S
C1703 C1704 1.400 1_545 S
C1703 C1708 1.546 . S
C1704 H1694 0.930 . S
C1704 C1703 1.400 1_565 S
C1704 C1707 1.386 . S
H1705 C1721 0.930 1_556 S
H1706 C1722 0.931 . S
C1707 H1695 0.929 . S
C1707 C1701 1.390 1_565 S
C1707 C1704 1.386 . S
C1708 C1703 1.546 . S
C1708 C1710 1.384 1_556 S
C1708 C1711 1.367 1_545 S
H1709 C1715 0.930 . S
C1710 H1696 0.930 . S
C1710 C1708 1.384 1_554 S
C1710 C1713 1.403 . S
C1711 C1708 1.367 1_565 S
C1711 C1712 1.524 . S
C1711 C1715 1.400 . S
C1712 H1697 0.960 . S
C1712 H1698 0.960 1_565 S
C1712 H1699 0.960 . S
C1712 C1711 1.524 . S
C1713 C1710 1.403 . S
C1713 C1714 1.392 1_545 S
C1713 C1717 1.495 . S
C1714 C1713 1.392 1_565 S
C1714 C1715 1.385 1_554 S
C1714 C1716 1.478 . S
C1715 H1709 0.930 . S
C1715 C1711 1.400 . S
C1715 C1714 1.385 1_556 S
C1716 C1714 1.478 . S
C1716 C1718 1.381 1_565 S
C1716 C1722 1.383 . S
C1717 C1713 1.495 . S
C1717 H1723 0.959 . S
C1717 H1724 0.961 1_545 S
C1717 H1725 0.960 . S
C1718 C1716 1.381 1_545 S
C1718 C1719 1.394 . S
C1718 H1726 0.930 . S
C1719 C1718 1.394 . S
C1719 C1720 1.383 1_545 S
C1719 H1727 0.929 . S
C1720 C1719 1.383 1_565 S
C1720 C1721 1.377 . S
C1721 H1705 0.930 1_554 S
C1721 C1720 1.377 . S
C1721 C1722 1.379 . S
C1722 H1706 0.931 . S
C1722 C1716 1.383 . S
C1722 C1721 1.379 . S
H1723 C1717 0.959 . S
H1724 C1717 0.961 1_565 S
H1725 C1717 0.960 . S
H1726 C1718 0.930 . S
H1727 C1719 0.929 . S
H1728 C1736 0.929 . S
H1729 C1738 0.930 . S
H1730 C1740 0.930 . S
H1731 C1743 0.929 . S
H1732 C1746 0.930 . S
H1733 C1748 0.960 . S
H1734 C1748 1.028 . S
H1735 C1748 0.960 . S
C1736 H1728 0.929 . S
C1736 C1737 1.377 1_556 S
C1736 C1738 1.384 . S
C1737 C1736 1.377 1_554 S
C1737 C1743 1.390 . S
C1738 H1729 0.930 . S
C1738 C1736 1.384 . S
C1738 C1739 1.367 1_556 S
C1739 C1738 1.367 1_554 S
C1739 C1740 1.405 . S
C1739 C1744 1.490 . S
C1740 H1730 0.930 . S
C1740 C1739 1.405 . S
C1740 C1743 1.386 . S
H1741 C1757 0.930 . S
H1742 C1758 0.931 . S
C1743 H1731 0.929 . S
C1743 C1737 1.390 . S
C1743 C1740 1.386 . S
C1744 C1739 1.490 . S
C1744 C1746 1.405 . S
C1744 C1747 1.393 1_454 S
H1745 C1751 0.930 . S
C1746 H1732 0.930 . S
C1746 C1744 1.405 . S
C1746 C1749 1.403 . S
C1747 C1744 1.393 1_656 S
C1747 C1748 1.524 . S
C1747 C1751 1.400 . S
C1748 H1733 0.960 . S
C1748 H1734 1.028 . S
C1748 H1735 0.960 . S
C1748 C1747 1.524 . S
C1749 C1746 1.403 . S
C1749 C1750 1.392 1_455 S
C1749 C1753 1.495 . S
C1750 C1749 1.392 1_655 S
C1750 C1751 1.385 1_554 S
C1750 C1752 1.478 . S
C1751 H1745 0.930 . S
C1751 C1747 1.400 . S
C1751 C1750 1.385 1_556 S
C1752 C1750 1.478 . S
C1752 C1754 1.381 1_554 S
C1752 C1758 1.383 . S
C1753 C1749 1.495 . S
C1753 H1759 0.959 . S
C1753 H1760 0.961 1_455 S
C1753 H1761 0.960 . S
C1754 C1752 1.381 1_556 S
C1754 C1755 1.394 . S
C1754 H1762 0.930 . S
C1755 C1754 1.394 . S
C1755 C1756 1.383 . S
C1755 H1763 0.929 . S
C1756 C1755 1.383 . S
C1756 C1757 1.377 1_556 S
C1757 H1741 0.930 . S
C1757 C1756 1.377 1_554 S
C1757 C1758 1.379 . S
C1758 H1742 0.931 . S
C1758 C1752 1.383 . S
C1758 C1757 1.379 . S
H1759 C1753 0.959 . S
H1760 C1753 0.961 1_655 S
H1761 C1753 0.960 . S
H1762 C1754 0.930 . S
H1763 C1755 0.929 . S
H1764 C1772 0.929 . S
H1765 C1774 0.930 . S
H1766 C1776 0.930 . S
H1767 C1779 0.929 . S
H1768 C1782 0.930 . S
H1769 C1784 0.960 . S
H1770 C1784 0.960 . S
H1771 C1784 0.960 1_556 S
C1772 H1764 0.929 . S
C1772 C1773 1.377 . S
C1772 C1774 1.384 . S
C1773 C1772 1.377 . S
C1773 C1779 1.390 1_554 S
C1774 H1765 0.930 . S
C1774 C1772 1.384 . S
C1774 C1775 1.372 . S
C1775 C1774 1.372 . S
C1775 C1776 1.400 1_554 S
C1775 C1780 1.490 . S
C1776 H1766 0.930 . S
C1776 C1775 1.400 1_556 S
C1776 C1779 1.386 . S
H1777 C1793 0.930 . S
H1778 C1794 0.931 . S
C1779 H1767 0.929 . S
C1779 C1773 1.390 1_556 S
C1779 C1776 1.386 . S
C1780 C1775 1.490 . S
C1780 C1782 1.395 . S
C1780 C1783 1.403 . S
H1781 C1787 0.930 1_556 S
C1782 H1768 0.930 . S
C1782 C1780 1.395 . S
C1782 C1785 1.403 . S
C1783 C1780 1.403 . S
C1783 C1784 1.524 . S
C1783 C1787 1.400 . S
C1784 H1769 0.960 . S
C1784 H1770 0.960 . S
C1784 H1771 0.960 1_554 S
C1784 C1783 1.524 . S
C1785 C1782 1.403 . S
C1785 C1786 1.392 1_554 S
C1785 C1789 1.495 1_554 S
C1786 C1785 1.392 1_556 S
C1786 C1787 1.385 1_556 S
C1786 C1788 1.479 . S
C1787 H1781 0.930 1_554 S
C1787 C1783 1.400 . S
C1787 C1786 1.385 1_554 S
C1788 C1786 1.479 . S
C1788 C1790 1.381 1_556 S
C1788 C1794 1.383 . S
C1789 C1785 1.495 1_556 S
C1789 H1795 0.959 . S
C1789 H1796 0.961 . S
C1789 H1797 0.960 1_556 S
C1790 C1788 1.381 1_554 S
C1790 C1791 1.394 . S
C1790 H1798 0.930 . S
C1791 C1790 1.394 . S
C1791 C1792 1.383 1_554 S
C1791 H1799 0.929 . S
C1792 C1791 1.383 1_556 S
C1792 C1793 1.377 . S
C1793 H1777 0.930 . S
C1793 C1792 1.377 . S
C1793 C1794 1.379 . S
C1794 H1778 0.931 . S
C1794 C1788 1.383 . S
C1794 C1793 1.379 . S
H1795 C1789 0.959 . S
H1796 C1789 0.961 . S
H1797 C1789 0.960 1_554 S
H1798 C1790 0.930 . S
H1799 C1791 0.929 . S
H1800 C1808 0.929 . S
H1801 C1810 0.930 . S
H1802 C1812 0.930 1_556 S
H1803 C1815 0.929 . S
H1804 C1818 0.930 . S
H1805 C1820 0.960 1_556 S
H1806 C1820 0.960 . S
H1807 C1820 0.960 1_556 S
C1808 H1800 0.929 . S
C1808 C1809 1.377 . S
C1808 C1810 1.384 . S
C1809 C1808 1.377 . S
C1809 C1815 1.390 1_554 S
C1810 H1801 0.930 . S
C1810 C1808 1.384 . S
C1810 C1811 1.372 . S
C1811 C1810 1.372 . S
C1811 C1812 1.400 . S
C1811 C1816 1.490 . S
C1812 H1802 0.930 1_554 S
C1812 C1811 1.400 . S
C1812 C1815 1.386 1_554 S
H1813 C1829 0.930 . S
H1814 C1830 0.931 . S
C1815 H1803 0.929 . S
C1815 C1809 1.390 1_556 S
C1815 C1812 1.386 1_556 S
C1816 C1811 1.490 . S
C1816 C1818 1.395 . S
C1816 C1819 1.403 . S
H1817 C1823 0.930 . S
C1818 H1804 0.930 . S
C1818 C1816 1.395 . S
C1818 C1821 1.403 . S
C1819 C1816 1.403 . S
C1819 C1820 1.524 . S
C1819 C1823 1.400 . S
C1820 H1805 0.960 1_554 S
C1820 H1806 0.960 . S
C1820 H1807 0.960 1_554 S
C1820 C1819 1.524 . S
C1821 C1818 1.403 . S
C1821 C1822 1.392 . S
C1821 C1825 1.495 . S
C1822 C1821 1.392 . S
C1822 C1823 1.385 . S
C1822 C1824 1.478 . S
C1823 H1817 0.930 . S
C1823 C1819 1.400 . S
C1823 C1822 1.385 . S
C1824 C1822 1.478 . S
C1824 C1826 1.381 . S
C1824 C1830 1.383 . S
C1825 C1821 1.495 . S
C1825 H1831 0.959 . S
C1825 H1832 0.961 . S
C1825 H1833 0.960 . S
C1826 C1824 1.381 . S
C1826 C1827 1.394 . S
C1826 H1834 0.930 . S
C1827 C1826 1.394 . S
C1827 C1828 1.383 . S
C1827 H1835 0.929 . S
C1828 C1827 1.383 . S
C1828 C1829 1.377 . S
C1829 H1813 0.930 . S
C1829 C1828 1.377 . S
C1829 C1830 1.379 . S
C1830 H1814 0.931 . S
C1830 C1824 1.383 . S
C1830 C1829 1.379 . S
H1831 C1825 0.959 . S
H1832 C1825 0.961 . S
H1833 C1825 0.960 . S
H1834 C1826 0.930 . S
H1835 C1827 0.929 . S
H1836 C1844 0.929 . S
H1837 C1846 0.930 . S
H1838 C1848 0.930 . S
H1839 C1851 0.929 . S
H1840 C1854 0.930 . S
H1841 C1856 0.960 . S
H1842 C1856 0.960 . S
H1843 C1856 0.960 . S
C1844 H1836 0.929 . S
C1844 C1845 1.377 . S
C1844 C1846 1.384 . S
C1845 C1844 1.377 . S
C1845 C1851 1.390 . S
C1846 H1837 0.930 . S
C1846 C1844 1.384 . S
C1846 C1847 1.372 . S
C1847 C1846 1.372 . S
C1847 C1848 1.400 . S
C1847 C1852 1.490 . S
C1848 H1838 0.930 . S
C1848 C1847 1.400 . S
C1848 C1851 1.386 . S
H1849 C1865 0.930 . S
H1850 C1866 0.931 . S
C1851 H1839 0.929 . S
C1851 C1845 1.390 . S
C1851 C1848 1.386 . S
C1852 C1847 1.490 . S
C1852 C1854 1.395 . S
C1852 C1855 1.403 . S
H1853 C1859 0.930 . S
C1854 H1840 0.930 . S
C1854 C1852 1.395 . S
C1854 C1857 1.403 . S
C1855 C1852 1.403 . S
C1855 C1856 1.524 . S
C1855 C1859 1.400 . S
C1856 H1841 0.960 . S
C1856 H1842 0.960 . S
C1856 H1843 0.960 . S
C1856 C1855 1.524 . S
C1857 C1854 1.403 . S
C1857 C1858 1.392 . S
C1857 C1861 1.495 . S
C1858 C1857 1.392 . S
C1858 C1859 1.385 . S
C1858 C1860 1.478 . S
C1859 H1853 0.930 . S
C1859 C1855 1.400 . S
C1859 C1858 1.385 . S
C1860 C1858 1.478 . S
C1860 C1862 1.381 . S
C1860 C1866 1.383 . S
C1861 C1857 1.495 . S
C1861 H1867 0.959 . S
C1861 H1868 0.961 . S
C1861 H1869 0.960 . S
C1862 C1860 1.381 . S
C1862 C1863 1.394 . S
C1862 H1870 0.930 . S
C1863 C1862 1.394 . S
C1863 C1864 1.383 . S
C1863 H1871 0.929 1_554 S
C1864 C1863 1.383 . S
C1864 C1865 1.377 . S
C1865 H1849 0.930 . S
C1865 C1864 1.377 . S
C1865 C1866 1.379 . S
C1866 H1850 0.931 . S
C1866 C1860 1.383 . S
C1866 C1865 1.379 . S
H1867 C1861 0.959 . S
H1868 C1861 0.961 . S
H1869 C1861 0.960 . S
H1870 C1862 0.930 . S
H1871 C1863 0.929 1_556 S
H1872 C1880 0.929 . S
H1873 C1882 0.930 . S
H1874 C1884 0.930 . S
H1875 C1887 0.929 . S
H1876 C1890 0.930 . S
H1877 C1892 0.960 . S
H1878 C1892 0.960 . S
H1879 C1892 0.960 . S
C1880 H1872 0.929 . S
C1880 C1881 1.377 . S
C1880 C1882 1.384 . S
C1881 C1880 1.377 . S
C1881 C1887 1.390 . S
C1882 H1873 0.930 . S
C1882 C1880 1.384 . S
C1882 C1883 1.372 . S
C1883 C1882 1.372 . S
C1883 C1884 1.400 . S
C1883 C1888 1.490 . S
C1884 H1874 0.930 . S
C1884 C1883 1.400 . S
C1884 C1887 1.386 . S
H1885 C1901 0.930 . S
H1886 C1902 0.931 . S
C1887 H1875 0.929 . S
C1887 C1881 1.390 . S
C1887 C1884 1.386 . S
C1888 C1883 1.490 . S
C1888 C1890 1.395 . S
C1888 C1891 1.403 . S
H1889 C1895 0.930 . S
C1890 H1876 0.930 . S
C1890 C1888 1.395 . S
C1890 C1893 1.403 . S
C1891 C1888 1.403 . S
C1891 C1892 1.524 . S
C1891 C1895 1.400 . S
C1892 H1877 0.960 . S
C1892 H1878 0.960 . S
C1892 H1879 0.960 . S
C1892 C1891 1.524 . S
C1893 C1890 1.403 . S
C1893 C1894 1.392 . S
C1893 C1897 1.495 1_554 S
C1894 C1893 1.392 . S
C1894 C1895 1.385 . S
C1894 C1896 1.478 . S
C1895 H1889 0.930 . S
C1895 C1891 1.400 . S
C1895 C1894 1.385 . S
C1896 C1894 1.478 . S
C1896 C1898 1.381 . S
C1896 C1902 1.383 . S
C1897 C1893 1.495 1_556 S
C1897 H1903 0.959 . S
C1897 H1904 0.961 . S
C1897 H1905 0.960 . S
C1898 C1896 1.381 . S
C1898 C1899 1.394 . S
C1898 H1906 0.930 . S
C1899 C1898 1.394 . S
C1899 C1900 1.383 . S
C1899 H1907 0.929 1_554 S
C1900 C1899 1.383 . S
C1900 C1901 1.377 . S
C1901 H1885 0.930 . S
C1901 C1900 1.377 . S
C1901 C1902 1.379 . S
C1902 H1886 0.931 . S
C1902 C1896 1.383 . S
C1902 C1901 1.379 . S
H1903 C1897 0.959 . S
H1904 C1897 0.961 . S
H1905 C1897 0.960 . S
H1906 C1898 0.930 . S
H1907 C1899 0.929 1_556 S
H1908 C1916 0.929 . S
H1909 C1918 0.930 . S
H1910 C1920 0.930 . S
H1911 C1923 0.929 . S
H1912 C1926 0.930 . S
H1913 C1928 0.960 . S
H1914 C1928 0.960 . S
H1915 C1928 0.960 . S
C1916 H1908 0.929 . S
C1916 C1917 1.377 . S
C1916 C1918 1.384 . S
C1917 C1916 1.377 . S
C1917 C1923 1.390 . S
C1918 H1909 0.930 . S
C1918 C1916 1.384 . S
C1918 C1919 1.372 . S
C1919 C1918 1.372 . S
C1919 C1920 1.400 . S
C1919 C1924 1.490 . S
C1920 H1910 0.930 . S
C1920 C1919 1.400 . S
C1920 C1923 1.386 . S
H1921 C1937 0.930 . S
H1922 C1938 0.931 . S
C1923 H1911 0.929 . S
C1923 C1917 1.390 . S
C1923 C1920 1.386 . S
C1924 C1919 1.490 . S
C1924 C1926 1.395 . S
C1924 C1927 1.403 . S
H1925 C1931 0.930 . S
C1926 H1912 0.930 . S
C1926 C1924 1.395 . S
C1926 C1929 1.403 . S
C1927 C1924 1.403 . S
C1927 C1928 1.524 . S
C1927 C1931 1.400 . S
C1928 H1913 0.960 . S
C1928 H1914 0.960 . S
C1928 H1915 0.960 . S
C1928 C1927 1.524 . S
C1929 C1926 1.403 . S
C1929 C1930 1.392 . S
C1929 C1933 1.495 . S
C1930 C1929 1.392 . S
C1930 C1931 1.385 . S
C1930 C1932 1.478 . S
C1931 H1925 0.930 . S
C1931 C1927 1.400 . S
C1931 C1930 1.385 . S
C1932 C1930 1.478 . S
C1932 C1934 1.381 . S
C1932 C1938 1.383 . S
C1933 C1929 1.495 . S
C1933 H1939 0.959 . S
C1933 H1940 0.961 . S
C1933 H1941 0.960 . S
C1934 C1932 1.381 . S
C1934 C1935 1.394 . S
C1934 H1942 0.930 . S
C1935 C1934 1.394 . S
C1935 C1936 1.383 . S
C1935 H1943 0.929 . S
C1936 C1935 1.383 . S
C1936 C1937 1.377 . S
C1937 H1921 0.930 . S
C1937 C1936 1.377 . S
C1937 C1938 1.379 . S
C1938 H1922 0.931 . S
C1938 C1932 1.383 . S
C1938 C1937 1.379 . S
H1939 C1933 0.959 . S
H1940 C1933 0.961 . S
H1941 C1933 0.960 . S
H1942 C1934 0.930 . S
H1943 C1935 0.929 . S
H1944 C1952 0.929 . S
H1945 C1954 0.930 . S
H1946 C1956 0.930 . S
H1947 C1959 0.929 . S
H1948 C1962 0.930 . S
H1949 C1964 0.960 . S
H1950 C1964 0.960 . S
H1951 C1964 0.960 . S
C1952 H1944 0.929 . S
C1952 C1953 1.377 . S
C1952 C1954 1.384 . S
C1953 C1952 1.377 . S
C1953 C1959 1.390 . S
C1954 H1945 0.930 . S
C1954 C1952 1.384 . S
C1954 C1955 1.372 . S
C1955 C1954 1.372 . S
C1955 C1956 1.400 . S
C1955 C1960 1.490 . S
C1956 H1946 0.930 . S
C1956 C1955 1.400 . S
C1956 C1959 1.386 . S
H1957 C1973 0.930 . S
H1958 C1974 0.931 . S
C1959 H1947 0.929 . S
C1959 C1953 1.390 . S
C1959 C1956 1.386 . S
C1960 C1955 1.490 . S
C1960 C1962 1.395 . S
C1960 C1963 1.403 . S
H1961 C1967 0.930 . S
C1962 H1948 0.930 . S
C1962 C1960 1.395 . S
C1962 C1965 1.403 . S
C1963 C1960 1.403 . S
C1963 C1964 1.524 . S
C1963 C1967 1.400 . S
C1964 H1949 0.960 . S
C1964 H1950 0.960 . S
C1964 H1951 0.960 . S
C1964 C1963 1.524 . S
C1965 C1962 1.403 . S
C1965 C1966 1.392 . S
C1965 C1969 1.495 . S
C1966 C1965 1.392 . S
C1966 C1967 1.385 . S
C1966 C1968 1.478 . S
C1967 H1961 0.930 . S
C1967 C1963 1.400 . S
C1967 C1966 1.385 . S
C1968 C1966 1.478 . S
C1968 C1970 1.381 . S
C1968 C1974 1.383 . S
C1969 C1965 1.495 . S
C1969 H1975 0.959 . S
C1969 H1976 0.961 . S
C1969 H1977 0.960 . S
C1970 C1968 1.381 . S
C1970 C1971 1.394 . S
C1970 H1978 0.930 . S
C1971 C1970 1.394 . S
C1971 C1972 1.383 . S
C1971 H1979 0.929 . S
C1972 C1971 1.383 . S
C1972 C1973 1.377 . S
C1973 H1957 0.930 . S
C1973 C1972 1.377 . S
C1973 C1974 1.379 . S
C1974 H1958 0.931 . S
C1974 C1968 1.383 . S
C1974 C1973 1.379 . S
H1975 C1969 0.959 . S
H1976 C1969 0.961 . S
H1977 C1969 0.960 . S
H1978 C1970 0.930 . S
H1979 C1971 0.929 . S
H1980 C1988 0.929 . S
H1981 C1990 0.930 . S
H1982 C1992 0.930 . S
H1983 C1995 0.929 . S
H1984 C1998 0.930 . S
H1985 C2000 0.960 . S
H1986 C2000 0.960 . S
H1987 C2000 0.960 . S
C1988 H1980 0.929 . S
C1988 C1989 1.377 . S
C1988 C1990 1.384 . S
C1989 C1988 1.377 . S
C1989 C1995 1.390 . S
C1990 H1981 0.930 . S
C1990 C1988 1.384 . S
C1990 C1991 1.372 . S
C1991 C1990 1.372 . S
C1991 C1992 1.400 . S
C1991 C1996 1.490 . S
C1992 H1982 0.930 . S
C1992 C1991 1.400 . S
C1992 C1995 1.386 . S
H1993 C2009 0.930 . S
H1994 C2010 0.931 . S
C1995 H1983 0.929 . S
C1995 C1989 1.390 . S
C1995 C1992 1.386 . S
C1996 C1991 1.490 . S
C1996 C1998 1.395 . S
C1996 C1999 1.403 . S
H1997 C2003 0.930 . S
C1998 H1984 0.930 . S
C1998 C1996 1.395 . S
C1998 C2001 1.403 . S
C1999 C1996 1.403 . S
C1999 C2000 1.524 . S
C1999 C2003 1.400 . S
C2000 H1985 0.960 . S
C2000 H1986 0.960 . S
C2000 H1987 0.960 . S
C2000 C1999 1.524 . S
C2001 C1998 1.403 . S
C2001 C2002 1.392 . S
C2001 C2005 1.495 . S
C2002 C2001 1.392 . S
C2002 C2003 1.385 . S
C2002 C2004 1.478 . S
C2003 H1997 0.930 . S
C2003 C1999 1.400 . S
C2003 C2002 1.385 . S
C2004 C2002 1.478 . S
C2004 C2006 1.381 . S
C2004 C2010 1.383 . S
C2005 C2001 1.495 . S
C2005 H2011 0.959 . S
C2005 H2012 0.961 . S
C2005 H2013 0.960 . S
C2006 C2004 1.381 . S
C2006 C2007 1.394 . S
C2006 H2014 0.930 . S
C2007 C2006 1.394 . S
C2007 C2008 1.383 . S
C2007 H2015 0.929 . S
C2008 C2007 1.383 . S
C2008 C2009 1.377 . S
C2009 H1993 0.930 . S
C2009 C2008 1.377 . S
C2009 C2010 1.379 . S
C2010 H1994 0.931 . S
C2010 C2004 1.383 . S
C2010 C2009 1.379 . S
H2011 C2005 0.959 . S
H2012 C2005 0.961 . S
H2013 C2005 0.960 . S
H2014 C2006 0.930 . S
H2015 C2007 0.929 . S
H2016 C2024 0.929 . S
H2017 C2026 0.930 1_554 S
H2018 C2028 0.930 . S
H2019 C2031 0.929 . S
H2020 C2034 0.930 . S
H2021 C2036 0.960 . S
H2022 C2036 0.960 . S
H2023 C2036 0.960 . S
C2024 H2016 0.929 . S
C2024 C2025 1.377 1_554 S
C2024 C2026 1.384 1_554 S
C2025 C2024 1.377 1_556 S
C2025 C2031 1.390 . S
C2026 H2017 0.930 1_556 S
C2026 C2024 1.384 1_556 S
C2026 C2027 1.372 . S
C2027 C2026 1.372 . S
C2027 C2028 1.400 . S
C2027 C2032 1.490 . S
C2028 H2018 0.930 . S
C2028 C2027 1.400 . S
C2028 C2031 1.386 . S
H2029 C2045 0.930 . S
H2030 C2046 0.931 . S
C2031 H2019 0.929 . S
C2031 C2025 1.390 . S
C2031 C2028 1.386 . S
C2032 C2027 1.490 . S
C2032 C2034 1.395 . S
C2032 C2035 1.403 . S
H2033 C2039 0.930 . S
C2034 H2020 0.930 . S
C2034 C2032 1.395 . S
C2034 C2037 1.403 . S
C2035 C2032 1.403 . S
C2035 C2036 1.524 . S
C2035 C2039 1.400 . S
C2036 H2021 0.960 . S
C2036 H2022 0.960 . S
C2036 H2023 0.960 . S
C2036 C2035 1.524 . S
C2037 C2034 1.403 . S
C2037 C2038 1.392 . S
C2037 C2041 1.495 . S
C2038 C2037 1.392 . S
C2038 C2039 1.385 . S
C2038 C2040 1.478 . S
C2039 H2033 0.930 . S
C2039 C2035 1.400 . S
C2039 C2038 1.385 . S
C2040 C2038 1.478 . S
C2040 C2042 1.381 . S
C2040 C2046 1.383 . S
C2041 C2037 1.495 . S
C2041 H2047 0.959 1_556 S
C2041 H2048 0.961 . S
C2041 H2049 0.960 . S
C2042 C2040 1.381 . S
C2042 C2043 1.394 . S
C2042 H2050 0.930 . S
C2043 C2042 1.394 . S
C2043 C2044 1.383 . S
C2043 H2051 0.929 . S
C2044 C2043 1.383 . S
C2044 C2045 1.377 . S
C2045 H2029 0.930 . S
C2045 C2044 1.377 . S
C2045 C2046 1.379 . S
C2046 H2030 0.931 . S
C2046 C2040 1.383 . S
C2046 C2045 1.379 . S
H2047 C2041 0.959 1_554 S
H2048 C2041 0.961 . S
H2049 C2041 0.960 . S
H2050 C2042 0.930 . S
H2051 C2043 0.929 . S
H2052 C2060 0.929 . S
H2053 C2062 0.930 . S
H2054 C2064 0.930 . S
H2055 C2067 0.929 . S
H2056 C2070 0.930 . S
H2057 C2072 0.960 . S
H2058 C2072 0.960 . S
H2059 C2072 0.960 . S
C2060 H2052 0.929 . S
C2060 C2061 1.377 . S
C2060 C2062 1.384 . S
C2061 C2060 1.377 . S
C2061 C2067 1.390 . S
C2062 H2053 0.930 . S
C2062 C2060 1.384 . S
C2062 C2063 1.372 . S
C2063 C2062 1.372 . S
C2063 C2064 1.400 . S
C2063 C2068 1.490 . S
C2064 H2054 0.930 . S
C2064 C2063 1.400 . S
C2064 C2067 1.386 . S
H2065 C2081 0.930 . S
H2066 C2082 0.931 . S
C2067 H2055 0.929 . S
C2067 C2061 1.390 . S
C2067 C2064 1.386 . S
C2068 C2063 1.490 . S
C2068 C2070 1.395 . S
C2068 C2071 1.403 . S
H2069 C2075 0.930 . S
C2070 H2056 0.930 . S
C2070 C2068 1.395 . S
C2070 C2073 1.403 . S
C2071 C2068 1.403 . S
C2071 C2072 1.524 . S
C2071 C2075 1.400 . S
C2072 H2057 0.960 . S
C2072 H2058 0.960 . S
C2072 H2059 0.960 . S
C2072 C2071 1.524 . S
C2073 C2070 1.403 . S
C2073 C2074 1.392 . S
C2073 C2077 1.495 . S
C2074 C2073 1.392 . S
C2074 C2075 1.385 . S
C2074 C2076 1.478 . S
C2075 H2069 0.930 . S
C2075 C2071 1.400 . S
C2075 C2074 1.385 . S
C2076 C2074 1.478 . S
C2076 C2078 1.381 . S
C2076 C2082 1.383 . S
C2077 C2073 1.495 . S
C2077 H2083 0.959 . S
C2077 H2084 0.961 . S
C2077 H2085 0.960 . S
C2078 C2076 1.381 . S
C2078 C2079 1.394 1_556 S
C2078 H2086 0.930 1_556 S
C2079 C2078 1.394 1_554 S
C2079 C2080 1.383 1_554 S
C2079 H2087 0.929 . S
C2080 C2079 1.383 1_556 S
C2080 C2081 1.377 . S
C2081 H2065 0.930 . S
C2081 C2080 1.377 . S
C2081 C2082 1.379 . S
C2082 H2066 0.931 . S
C2082 C2076 1.383 . S
C2082 C2081 1.379 . S
H2083 C2077 0.959 . S
H2084 C2077 0.961 . S
H2085 C2077 0.960 . S
H2086 C2078 0.930 1_554 S
H2087 C2079 0.929 . S
H2088 C2096 0.929 . S
H2089 C2098 0.928 1_554 S
H2090 C2100 0.930 . S
H2091 C2103 0.929 . S
H2092 C2106 0.930 . S
H2093 C2108 0.960 . S
H2094 C2108 0.960 . S
H2095 C2108 0.960 . S
C2096 H2088 0.929 . S
C2096 C2097 1.377 1_554 S
C2096 C2098 1.384 1_554 S
C2097 C2096 1.377 1_556 S
C2097 C2103 1.390 . S
C2098 H2089 0.928 1_556 S
C2098 C2096 1.384 1_556 S
C2098 C2099 1.372 . S
C2099 C2098 1.372 . S
C2099 C2100 1.400 . S
C2099 C2104 1.490 . S
C2100 H2090 0.930 . S
C2100 C2099 1.400 . S
C2100 C2103 1.386 . S
H2101 C2117 0.930 . S
H2102 C2118 0.931 . S
C2103 H2091 0.929 . S
C2103 C2097 1.390 . S
C2103 C2100 1.386 . S
C2104 C2099 1.490 . S
C2104 C2106 1.395 . S
C2104 C2107 1.403 . S
H2105 C2111 0.930 . S
C2106 H2092 0.930 . S
C2106 C2104 1.395 . S
C2106 C2109 1.403 . S
C2107 C2104 1.403 . S
C2107 C2108 1.524 . S
C2107 C2111 1.400 . S
C2108 H2093 0.960 . S
C2108 H2094 0.960 . S
C2108 H2095 0.960 . S
C2108 C2107 1.524 . S
C2109 C2106 1.403 . S
C2109 C2110 1.392 . S
C2109 C2113 1.495 . S
C2110 C2109 1.392 . S
C2110 C2111 1.385 . S
C2110 C2112 1.478 . S
C2111 H2105 0.930 . S
C2111 C2107 1.400 . S
C2111 C2110 1.385 . S
C2112 C2110 1.478 . S
C2112 C2114 1.381 . S
C2112 C2118 1.383 . S
C2113 C2109 1.495 . S
C2113 H2119 0.959 . S
C2113 H2120 0.961 . S
C2113 H2121 0.960 . S
C2114 C2112 1.381 . S
C2114 C2115 1.394 . S
C2114 H2122 0.930 . S
C2115 C2114 1.394 . S
C2115 C2116 1.383 . S
C2115 H2123 0.929 . S
C2116 C2115 1.383 . S
C2116 C2117 1.377 . S
C2117 H2101 0.930 . S
C2117 C2116 1.377 . S
C2117 C2118 1.379 . S
C2118 H2102 0.931 . S
C2118 C2112 1.383 . S
C2118 C2117 1.379 . S
H2119 C2113 0.959 . S
H2120 C2113 0.961 . S
H2121 C2113 0.960 . S
H2122 C2114 0.930 . S
H2123 C2115 0.929 . S
H2124 C2132 0.929 . S
H2125 C2134 0.930 . S
H2126 C2136 0.930 . S
H2127 C2139 0.929 . S
H2128 C2142 0.930 . S
H2129 C2144 0.960 . S
H2130 C2144 0.960 . S
H2131 C2144 0.960 . S
C2132 H2124 0.929 . S
C2132 C2133 1.377 . S
C2132 C2134 1.384 . S
C2133 C2132 1.377 . S
C2133 C2139 1.390 . S
C2134 H2125 0.930 . S
C2134 C2132 1.384 . S
C2134 C2135 1.372 . S
C2135 C2134 1.372 . S
C2135 C2136 1.400 . S
C2135 C2140 1.490 . S
C2136 H2126 0.930 . S
C2136 C2135 1.400 . S
C2136 C2139 1.386 . S
H2137 C2153 0.930 . S
H2138 C2154 0.931 . S
C2139 H2127 0.929 . S
C2139 C2133 1.390 . S
C2139 C2136 1.386 . S
C2140 C2135 1.490 . S
C2140 C2142 1.395 . S
C2140 C2143 1.403 . S
H2141 C2147 0.930 . S
C2142 H2128 0.930 . S
C2142 C2140 1.395 . S
C2142 C2145 1.403 . S
C2143 C2140 1.403 . S
C2143 C2144 1.524 . S
C2143 C2147 1.400 . S
C2144 H2129 0.960 . S
C2144 H2130 0.960 . S
C2144 H2131 0.960 . S
C2144 C2143 1.524 . S
C2145 C2142 1.403 . S
C2145 C2146 1.392 . S
C2145 C2149 1.495 . S
C2146 C2145 1.392 . S
C2146 C2147 1.385 . S
C2146 C2148 1.478 . S
C2147 H2141 0.930 . S
C2147 C2143 1.400 . S
C2147 C2146 1.385 . S
C2148 C2146 1.478 . S
C2148 C2150 1.381 . S
C2148 C2154 1.383 . S
C2149 C2145 1.495 . S
C2149 H2155 0.959 . S
C2149 H2156 0.961 . S
C2149 H2157 0.960 . S
C2150 C2148 1.381 . S
C2150 C2151 1.394 . S
C2150 H2158 0.930 . S
C2151 C2150 1.394 . S
C2151 C2152 1.383 . S
C2151 H2159 0.929 . S
C2152 C2151 1.383 . S
C2152 C2153 1.377 . S
C2153 H2137 0.930 . S
C2153 C2152 1.377 . S
C2153 C2154 1.379 . S
C2154 H2138 0.931 . S
C2154 C2148 1.383 . S
C2154 C2153 1.379 . S
H2155 C2149 0.959 . S
H2156 C2149 0.961 . S
H2157 C2149 0.960 . S
H2158 C2150 0.930 . S
H2159 C2151 0.929 . S
H2160 C2168 0.929 . S
H2161 C2170 0.930 . S
H2162 C2172 0.930 . S
H2163 C2175 0.929 . S
H2164 C2178 0.930 . S
H2165 C2180 0.960 . S
H2166 C2180 0.960 . S
H2167 C2180 0.960 . S
C2168 H2160 0.929 . S
C2168 C2169 1.377 . S
C2168 C2170 1.384 . S
C2169 C2168 1.377 . S
C2169 C2175 1.390 . S
C2170 H2161 0.930 . S
C2170 C2168 1.384 . S
C2170 C2171 1.372 . S
C2171 C2170 1.372 . S
C2171 C2172 1.400 . S
C2171 C2176 1.490 . S
C2172 H2162 0.930 . S
C2172 C2171 1.400 . S
C2172 C2175 1.386 . S
H2173 C2189 0.930 . S
H2174 C2190 0.931 . S
C2175 H2163 0.929 . S
C2175 C2169 1.390 . S
C2175 C2172 1.386 . S
C2176 C2171 1.490 . S
C2176 C2178 1.395 . S
C2176 C2179 1.403 . S
H2177 C2183 0.930 . S
C2178 H2164 0.930 . S
C2178 C2176 1.395 . S
C2178 C2181 1.403 . S
C2179 C2176 1.403 . S
C2179 C2180 1.524 . S
C2179 C2183 1.400 . S
C2180 H2165 0.960 . S
C2180 H2166 0.960 . S
C2180 H2167 0.960 . S
C2180 C2179 1.524 . S
C2181 C2178 1.403 . S
C2181 C2182 1.392 . S
C2181 C2185 1.495 . S
C2182 C2181 1.392 . S
C2182 C2183 1.385 . S
C2182 C2184 1.478 . S
C2183 H2177 0.930 . S
C2183 C2179 1.400 . S
C2183 C2182 1.385 . S
C2184 C2182 1.478 . S
C2184 C2186 1.381 . S
C2184 C2190 1.383 . S
C2185 C2181 1.495 . S
C2185 H2191 0.959 . S
C2185 H2192 0.961 . S
C2185 H2193 0.960 . S
C2186 C2184 1.381 . S
C2186 C2187 1.394 . S
C2186 H2194 0.930 . S
C2187 C2186 1.394 . S
C2187 C2188 1.383 . S
C2187 H2195 0.929 . S
C2188 C2187 1.383 . S
C2188 C2189 1.377 . S
C2189 H2173 0.930 . S
C2189 C2188 1.377 . S
C2189 C2190 1.379 . S
C2190 H2174 0.931 . S
C2190 C2184 1.383 . S
C2190 C2189 1.379 . S
H2191 C2185 0.959 . S
H2192 C2185 0.961 . S
H2193 C2185 0.960 . S
H2194 C2186 0.930 . S
H2195 C2187 0.929 . S
H2196 C2204 0.929 . S
H2197 C2206 0.930 . S
H2198 C2208 0.930 . S
H2199 C2211 0.929 . S
H2200 C2214 0.930 . S
H2201 C2216 0.960 . S
H2202 C2216 0.960 . S
H2203 C2216 0.960 . S
C2204 H2196 0.929 . S
C2204 C2205 1.377 . S
C2204 C2206 1.384 . S
C2205 C2204 1.377 . S
C2205 C2211 1.390 . S
C2206 H2197 0.930 . S
C2206 C2204 1.384 . S
C2206 C2207 1.372 . S
C2207 C2206 1.372 . S
C2207 C2208 1.400 . S
C2207 C2212 1.490 . S
C2208 H2198 0.930 . S
C2208 C2207 1.400 . S
C2208 C2211 1.386 . S
H2209 C2225 0.930 . S
H2210 C2226 0.931 . S
C2211 H2199 0.929 . S
C2211 C2205 1.390 . S
C2211 C2208 1.386 . S
C2212 C2207 1.490 . S
C2212 C2214 1.395 . S
C2212 C2215 1.403 . S
H2213 C2219 0.930 . S
C2214 H2200 0.930 . S
C2214 C2212 1.395 . S
C2214 C2217 1.403 . S
C2215 C2212 1.403 . S
C2215 C2216 1.524 . S
C2215 C2219 1.400 . S
C2216 H2201 0.960 . S
C2216 H2202 0.960 . S
C2216 H2203 0.960 . S
C2216 C2215 1.524 . S
C2217 C2214 1.403 . S
C2217 C2218 1.392 . S
C2217 C2221 1.495 . S
C2218 C2217 1.392 . S
C2218 C2219 1.385 . S
C2218 C2220 1.478 . S
C2219 H2213 0.930 . S
C2219 C2215 1.400 . S
C2219 C2218 1.385 . S
C2220 C2218 1.478 . S
C2220 C2222 1.381 . S
C2220 C2226 1.383 . S
C2221 C2217 1.495 . S
C2221 H2227 0.959 . S
C2221 H2228 0.961 . S
C2221 H2229 0.960 . S
C2222 C2220 1.381 . S
C2222 C2223 1.394 . S
C2222 H2230 0.930 . S
C2223 C2222 1.394 . S
C2223 C2224 1.383 . S
C2223 H2231 0.929 . S
C2224 C2223 1.383 . S
C2224 C2225 1.377 . S
C2225 H2209 0.930 . S
C2225 C2224 1.377 . S
C2225 C2226 1.379 . S
C2226 H2210 0.931 . S
C2226 C2220 1.383 . S
C2226 C2225 1.379 . S
H2227 C2221 0.959 . S
H2228 C2221 0.961 . S
H2229 C2221 0.960 . S
H2230 C2222 0.930 . S
H2231 C2223 0.929 . S
H2232 C2240 0.929 . S
H2233 C2242 0.930 . S
H2234 C2244 0.930 . S
H2235 C2247 0.929 . S
H2236 C2250 0.930 . S
H2237 C2252 0.960 . S
H2238 C2252 0.960 . S
H2239 C2252 0.960 . S
C2240 H2232 0.929 . S
C2240 C2241 1.377 . S
C2240 C2242 1.384 . S
C2241 C2240 1.377 . S
C2241 C2247 1.390 . S
C2242 H2233 0.930 . S
C2242 C2240 1.384 . S
C2242 C2243 1.372 . S
C2243 C2242 1.372 . S
C2243 C2244 1.400 . S
C2243 C2248 1.490 . S
C2244 H2234 0.930 . S
C2244 C2243 1.400 . S
C2244 C2247 1.386 . S
H2245 C2261 0.930 . S
H2246 C2262 0.931 . S
C2247 H2235 0.929 . S
C2247 C2241 1.390 . S
C2247 C2244 1.386 . S
C2248 C2243 1.490 . S
C2248 C2250 1.395 . S
C2248 C2251 1.403 . S
H2249 C2255 0.930 . S
C2250 H2236 0.930 . S
C2250 C2248 1.395 . S
C2250 C2253 1.403 . S
C2251 C2248 1.403 . S
C2251 C2252 1.524 . S
C2251 C2255 1.400 . S
C2252 H2237 0.960 . S
C2252 H2238 0.960 . S
C2252 H2239 0.960 . S
C2252 C2251 1.524 . S
C2253 C2250 1.403 . S
C2253 C2254 1.392 . S
C2253 C2257 1.495 . S
C2254 C2253 1.392 . S
C2254 C2255 1.385 . S
C2254 C2256 1.478 . S
C2255 H2249 0.930 . S
C2255 C2251 1.400 . S
C2255 C2254 1.385 . S
C2256 C2254 1.478 . S
C2256 C2258 1.381 . S
C2256 C2262 1.383 . S
C2257 C2253 1.495 . S
C2257 H2263 0.959 . S
C2257 H2264 0.961 . S
C2257 H2265 0.960 . S
C2258 C2256 1.381 . S
C2258 C2259 1.394 . S
C2258 H2266 0.930 . S
C2259 C2258 1.394 . S
C2259 C2260 1.383 . S
C2259 H2267 0.929 . S
C2260 C2259 1.383 . S
C2260 C2261 1.377 . S
C2261 H2245 0.930 . S
C2261 C2260 1.377 . S
C2261 C2262 1.379 . S
C2262 H2246 0.931 . S
C2262 C2256 1.383 . S
C2262 C2261 1.379 . S
H2263 C2257 0.959 . S
H2264 C2257 0.961 . S
H2265 C2257 0.960 . S
H2266 C2258 0.930 . S
H2267 C2259 0.929 . S
H2268 C2276 0.929 . S
H2269 C2278 0.930 . S
H2270 C2280 0.930 . S
H2271 C2283 0.929 . S
H2272 C2286 0.930 1_565 S
H2273 C2288 0.960 . S
H2274 C2288 0.960 . S
H2275 C2288 0.960 . S
C2276 H2268 0.929 . S
C2276 C2277 1.377 . S
C2276 C2278 1.384 . S
C2277 C2276 1.377 . S
C2277 C2283 1.390 . S
C2278 H2269 0.930 . S
C2278 C2276 1.384 . S
C2278 C2279 1.372 . S
C2279 C2278 1.372 . S
C2279 C2280 1.400 . S
C2279 C2284 1.490 1_565 S
C2280 H2270 0.930 . S
C2280 C2279 1.400 . S
C2280 C2283 1.386 . S
H2281 C2297 0.930 . S
H2282 C2298 0.931 . S
C2283 H2271 0.929 . S
C2283 C2277 1.390 . S
C2283 C2280 1.386 . S
C2284 C2279 1.490 1_545 S
C2284 C2286 1.395 . S
C2284 C2287 1.403 . S
H2285 C2291 0.930 . S
C2286 H2272 0.930 1_545 S
C2286 C2284 1.395 . S
C2286 C2289 1.403 . S
C2287 C2284 1.403 . S
C2287 C2288 1.524 . S
C2287 C2291 1.400 . S
C2288 H2273 0.960 . S
C2288 H2274 0.960 . S
C2288 H2275 0.960 . S
C2288 C2287 1.524 . S
C2289 C2286 1.403 . S
C2289 C2290 1.392 . S
C2289 C2293 1.495 . S
C2290 C2289 1.392 . S
C2290 C2291 1.385 . S
C2290 C2292 1.478 . S
C2291 H2285 0.930 . S
C2291 C2287 1.400 . S
C2291 C2290 1.385 . S
C2292 C2290 1.478 . S
C2292 C2294 1.381 . S
C2292 C2298 1.383 . S
C2293 C2289 1.495 . S
C2293 H2299 0.959 . S
C2293 H2300 0.961 . S
C2293 H2301 0.960 . S
C2294 C2292 1.381 . S
C2294 C2295 1.394 . S
C2294 H2302 0.930 . S
C2295 C2294 1.394 . S
C2295 C2296 1.383 . S
C2295 H2303 0.929 . S
C2296 C2295 1.383 . S
C2296 C2297 1.377 . S
C2297 H2281 0.930 . S
C2297 C2296 1.377 . S
C2297 C2298 1.379 . S
C2298 H2282 0.931 . S
C2298 C2292 1.383 . S
C2298 C2297 1.379 . S
H2299 C2293 0.959 . S
H2300 C2293 0.961 . S
H2301 C2293 0.960 . S
H2302 C2294 0.930 . S
H2303 C2295 0.929 . S
H2304 C2312 0.929 . S
H2305 C2314 0.930 . S
H2306 C2316 0.930 . S
H2307 C2319 0.929 . S
H2308 C2322 0.930 . S
H2309 C2324 0.960 . S
H2310 C2324 0.960 . S
H2311 C2324 0.960 . S
C2312 H2304 0.929 . S
C2312 C2313 1.377 . S
C2312 C2314 1.384 . S
C2313 C2312 1.377 . S
C2313 C2319 1.390 . S
C2314 H2305 0.930 . S
C2314 C2312 1.384 . S
C2314 C2315 1.372 . S
C2315 C2314 1.372 . S
C2315 C2316 1.400 . S
C2315 C2320 1.580 . S
C2316 H2306 0.930 . S
C2316 C2315 1.400 . S
C2316 C2319 1.386 . S
H2317 C2333 0.930 . S
H2318 C2334 0.931 . S
C2319 H2307 0.929 . S
C2319 C2313 1.390 . S
C2319 C2316 1.386 . S
C2320 C2315 1.580 . S
C2320 C2322 1.361 1_455 S
C2320 C2323 1.353 1_455 S
H2321 C2327 0.930 . S
C2322 H2308 0.930 . S
C2322 C2320 1.361 1_655 S
C2322 C2325 1.403 . S
C2323 C2320 1.353 1_655 S
C2323 C2324 1.524 1_655 S
C2323 C2327 1.400 . S
C2324 H2309 0.960 . S
C2324 H2310 0.960 . S
C2324 H2311 0.960 . S
C2324 C2323 1.524 1_455 S
C2325 C2322 1.403 . S
C2325 C2326 1.392 . S
C2325 C2329 1.495 . S
C2326 C2325 1.392 . S
C2326 C2327 1.385 . S
C2326 C2328 1.478 . S
C2327 H2321 0.930 . S
C2327 C2323 1.400 . S
C2327 C2326 1.385 . S
C2328 C2326 1.478 . S
C2328 C2330 1.381 . S
C2328 C2334 1.383 . S
C2329 C2325 1.495 . S
C2329 H2335 0.959 . S
C2329 H2336 0.961 . S
C2329 H2337 0.960 . S
C2330 C2328 1.381 . S
C2330 C2331 1.394 . S
C2330 H2338 0.930 . S
C2331 C2330 1.394 . S
C2331 C2332 1.383 . S
C2331 H2339 0.929 . S
C2332 C2331 1.383 . S
C2332 C2333 1.377 . S
C2333 H2317 0.930 . S
C2333 C2332 1.377 . S
C2333 C2334 1.379 . S
C2334 H2318 0.931 . S
C2334 C2328 1.383 . S
C2334 C2333 1.379 . S
H2335 C2329 0.959 . S
H2336 C2329 0.961 . S
H2337 C2329 0.960 . S
H2338 C2330 0.930 . S
H2339 C2331 0.929 . S
H2340 C2348 0.929 . S
H2341 C2350 0.930 . S
H2342 C2352 0.930 . S
H2343 C2355 0.929 . S
H2344 C2358 0.930 . S
H2345 C2360 0.960 . S
H2346 C2360 0.960 . S
H2347 C2360 0.960 . S
C2348 H2340 0.929 . S
C2348 C2349 1.377 . S
C2348 C2350 1.384 . S
C2349 C2348 1.377 . S
C2349 C2355 1.390 . S
C2350 H2341 0.930 . S
C2350 C2348 1.384 . S
C2350 C2351 1.372 . S
C2351 C2350 1.372 . S
C2351 C2352 1.400 . S
C2351 C2356 1.490 . S
C2352 H2342 0.930 . S
C2352 C2351 1.400 . S
C2352 C2355 1.386 . S
H2353 C2369 0.930 . S
H2354 C2370 0.931 . S
C2355 H2343 0.929 . S
C2355 C2349 1.390 . S
C2355 C2352 1.386 . S
C2356 C2351 1.490 . S
C2356 C2358 1.395 . S
C2356 C2359 1.403 . S
H2357 C2363 0.930 . S
C2358 H2344 0.930 . S
C2358 C2356 1.395 . S
C2358 C2361 1.403 . S
C2359 C2356 1.403 . S
C2359 C2360 1.524 . S
C2359 C2363 1.400 . S
C2360 H2345 0.960 . S
C2360 H2346 0.960 . S
C2360 H2347 0.960 . S
C2360 C2359 1.524 . S
C2361 C2358 1.403 . S
C2361 C2362 1.392 . S
C2361 C2365 1.495 . S
C2362 C2361 1.392 . S
C2362 C2363 1.385 . S
C2362 C2364 1.478 . S
C2363 H2357 0.930 . S
C2363 C2359 1.400 . S
C2363 C2362 1.385 . S
C2364 C2362 1.478 . S
C2364 C2366 1.381 . S
C2364 C2370 1.383 . S
C2365 C2361 1.495 . S
C2365 H2371 0.959 . S
C2365 H2372 0.961 . S
C2365 H2373 0.960 . S
C2366 C2364 1.381 . S
C2366 C2367 1.394 . S
C2366 H2374 0.930 . S
C2367 C2366 1.394 . S
C2367 C2368 1.383 . S
C2367 H2375 0.929 . S
C2368 C2367 1.383 . S
C2368 C2369 1.377 . S
C2369 H2353 0.930 . S
C2369 C2368 1.377 . S
C2369 C2370 1.379 . S
C2370 H2354 0.931 . S
C2370 C2364 1.383 . S
C2370 C2369 1.379 . S
H2371 C2365 0.959 . S
H2372 C2365 0.961 . S
H2373 C2365 0.960 . S
H2374 C2366 0.930 . S
H2375 C2367 0.929 . S
H2376 C2384 0.929 . S
H2377 C2386 0.930 . S
H2378 C2388 0.930 . S
H2379 C2391 0.929 . S
H2380 C2394 0.902 1_565 S
H2381 C2396 0.960 . S
H2382 C2396 0.960 1_565 S
H2383 C2396 0.960 . S
C2384 H2376 0.929 . S
C2384 C2385 1.377 . S
C2384 C2386 1.384 . S
C2385 C2384 1.377 . S
C2385 C2391 1.390 . S
C2386 H2377 0.930 . S
C2386 C2384 1.384 . S
C2386 C2387 1.372 . S
C2387 C2386 1.372 . S
C2387 C2388 1.400 . S
C2387 C2392 1.490 1_565 S
C2388 H2378 0.930 . S
C2388 C2387 1.400 . S
C2388 C2391 1.386 . S
H2389 C2405 0.930 . S
H2390 C2406 0.931 . S
C2391 H2379 0.929 . S
C2391 C2385 1.390 . S
C2391 C2388 1.386 . S
C2392 C2387 1.490 1_545 S
C2392 C2394 1.395 . S
C2392 C2395 1.403 . S
H2393 C2399 0.930 . S
C2394 H2380 0.902 1_545 S
C2394 C2392 1.395 . S
C2394 C2397 1.403 . S
C2395 C2392 1.403 . S
C2395 C2396 1.524 . S
C2395 C2399 1.400 . S
C2396 H2381 0.960 . S
C2396 H2382 0.960 1_545 S
C2396 H2383 0.960 . S
C2396 C2395 1.524 . S
C2397 C2394 1.403 . S
C2397 C2398 1.392 . S
C2397 C2401 1.495 . S
C2398 C2397 1.392 . S
C2398 C2399 1.385 . S
C2398 C2400 1.478 . S
C2399 H2393 0.930 . S
C2399 C2395 1.400 . S
C2399 C2398 1.385 . S
C2400 C2398 1.478 . S
C2400 C2402 1.381 . S
C2400 C2406 1.383 . S
C2401 C2397 1.495 . S
C2401 H2407 0.959 . S
C2401 H2408 0.961 . S
C2401 H2409 0.960 . S
C2402 C2400 1.381 . S
C2402 C2403 1.394 . S
C2402 H2410 0.930 . S
C2403 C2402 1.394 . S
C2403 C2404 1.383 . S
C2403 H2411 0.929 . S
C2404 C2403 1.383 . S
C2404 C2405 1.377 . S
C2405 H2389 0.930 . S
C2405 C2404 1.377 . S
C2405 C2406 1.379 . S
C2406 H2390 0.931 . S
C2406 C2400 1.383 . S
C2406 C2405 1.379 . S
H2407 C2401 0.959 . S
H2408 C2401 0.961 . S
H2409 C2401 0.960 . S
H2410 C2402 0.930 . S
H2411 C2403 0.929 . S
H2412 C2420 0.929 . S
H2413 C2422 0.930 . S
H2414 C2424 0.930 . S
H2415 C2427 0.929 . S
H2416 C2430 0.930 . S
H2417 C2432 0.960 . S
H2418 C2432 0.960 . S
H2419 C2432 0.960 . S
C2420 H2412 0.929 . S
C2420 C2421 1.377 . S
C2420 C2422 1.384 . S
C2421 C2420 1.377 . S
C2421 C2427 1.390 . S
C2422 H2413 0.930 . S
C2422 C2420 1.384 . S
C2422 C2423 1.372 . S
C2423 C2422 1.372 . S
C2423 C2424 1.400 . S
C2423 C2428 1.495 . S
C2424 H2414 0.930 . S
C2424 C2423 1.400 . S
C2424 C2427 1.386 . S
H2425 C2441 0.930 . S
H2426 C2442 0.931 . S
C2427 H2415 0.929 . S
C2427 C2421 1.390 . S
C2427 C2424 1.386 . S
C2428 C2423 1.495 . S
C2428 C2430 1.393 1_455 S
C2428 C2431 1.399 1_455 S
H2429 C2435 0.930 . S
C2430 H2416 0.930 . S
C2430 C2428 1.393 1_655 S
C2430 C2433 1.403 . S
C2431 C2428 1.399 1_655 S
C2431 C2432 1.524 1_655 S
C2431 C2435 1.400 . S
C2432 H2417 0.960 . S
C2432 H2418 0.960 . S
C2432 H2419 0.960 . S
C2432 C2431 1.524 1_455 S
C2433 C2430 1.403 . S
C2433 C2434 1.392 . S
C2433 C2437 1.495 . S
C2434 C2433 1.392 . S
C2434 C2435 1.385 . S
C2434 C2436 1.478 . S
C2435 H2429 0.930 . S
C2435 C2431 1.400 . S
C2435 C2434 1.385 . S
C2436 C2434 1.478 . S
C2436 C2438 1.381 . S
C2436 C2442 1.383 . S
C2437 C2433 1.495 . S
C2437 H2443 0.959 . S
C2437 H2444 0.961 . S
C2437 H2445 0.960 . S
C2438 C2436 1.381 . S
C2438 C2439 1.394 . S
C2438 H2446 0.930 . S
C2439 C2438 1.394 . S
C2439 C2440 1.383 . S
C2439 H2447 0.929 . S
C2440 C2439 1.383 . S
C2440 C2441 1.377 . S
C2441 H2425 0.930 . S
C2441 C2440 1.377 . S
C2441 C2442 1.379 . S
C2442 H2426 0.931 . S
C2442 C2436 1.383 . S
C2442 C2441 1.379 . S
H2443 C2437 0.959 . S
H2444 C2437 0.961 . S
H2445 C2437 0.960 . S
H2446 C2438 0.930 . S
H2447 C2439 0.929 . S
H2448 C2456 0.929 . S
H2449 C2458 0.930 1_556 S
H2450 C2460 0.930 . S
H2451 C2463 0.929 . S
H2452 C2466 0.930 . S
H2453 C2468 0.960 . S
H2454 C2468 0.960 . S
H2455 C2468 0.960 . S
C2456 H2448 0.929 . S
C2456 C2457 1.377 . S
C2456 C2458 1.384 . S
C2457 C2456 1.377 . S
C2457 C2463 1.390 . S
C2458 H2449 0.930 1_554 S
C2458 C2456 1.384 . S
C2458 C2459 1.372 1_554 S
C2459 C2458 1.372 1_556 S
C2459 C2460 1.400 . S
C2459 C2464 1.490 . S
C2460 H2450 0.930 . S
C2460 C2459 1.400 . S
C2460 C2463 1.386 1_556 S
H2461 C2477 0.930 . S
H2462 C2478 0.931 . S
C2463 H2451 0.929 . S
C2463 C2457 1.390 . S
C2463 C2460 1.386 1_554 S
C2464 C2459 1.490 . S
C2464 C2466 1.395 . S
C2464 C2467 1.403 . S
H2465 C2471 0.930 . S
C2466 H2452 0.930 . S
C2466 C2464 1.395 . S
C2466 C2469 1.403 . S
C2467 C2464 1.403 . S
C2467 C2468 1.524 . S
C2467 C2471 1.400 . S
C2468 H2453 0.960 . S
C2468 H2454 0.960 . S
C2468 H2455 0.960 . S
C2468 C2467 1.524 . S
C2469 C2466 1.403 . S
C2469 C2470 1.392 . S
C2469 C2473 1.495 . S
C2470 C2469 1.392 . S
C2470 C2471 1.385 . S
C2470 C2472 1.478 . S
C2471 H2465 0.930 . S
C2471 C2467 1.400 . S
C2471 C2470 1.385 . S
C2472 C2470 1.478 . S
C2472 C2474 1.381 . S
C2472 C2478 1.383 . S
C2473 C2469 1.495 . S
C2473 H2479 0.959 . S
C2473 H2480 0.961 . S
C2473 H2481 0.960 . S
C2474 C2472 1.381 . S
C2474 C2475 1.394 . S
C2474 H2482 0.930 . S
C2475 C2474 1.394 . S
C2475 C2476 1.383 . S
C2475 H2483 0.929 . S
C2476 C2475 1.383 . S
C2476 C2477 1.377 . S
C2477 H2461 0.930 . S
C2477 C2476 1.377 . S
C2477 C2478 1.379 . S
C2478 H2462 0.931 . S
C2478 C2472 1.383 . S
C2478 C2477 1.379 . S
H2479 C2473 0.959 . S
H2480 C2473 0.961 . S
H2481 C2473 0.960 . S
H2482 C2474 0.930 . S
H2483 C2475 0.929 . S
H2484 C2492 0.929 . S
H2485 C2494 0.930 . S
H2486 C2496 0.924 1_556 S
H2487 C2499 0.929 . S
H2488 C2502 0.930 . S
H2489 C2504 0.960 . S
H2490 C2504 0.960 . S
H2491 C2504 0.960 . S
C2492 H2484 0.929 . S
C2492 C2493 1.377 . S
C2492 C2494 1.384 . S
C2493 C2492 1.377 . S
C2493 C2499 1.390 . S
C2494 H2485 0.930 . S
C2494 C2492 1.384 . S
C2494 C2495 1.372 1_554 S
C2495 C2494 1.372 1_556 S
C2495 C2496 1.400 1_556 S
C2495 C2500 1.490 . S
C2496 H2486 0.924 1_554 S
C2496 C2495 1.400 1_554 S
C2496 C2499 1.386 . S
H2497 C2513 0.930 . S
H2498 C2514 0.931 . S
C2499 H2487 0.929 . S
C2499 C2493 1.390 . S
C2499 C2496 1.386 . S
C2500 C2495 1.490 . S
C2500 C2502 1.395 . S
C2500 C2503 1.403 . S
H2501 C2507 0.930 . S
C2502 H2488 0.930 . S
C2502 C2500 1.395 . S
C2502 C2505 1.403 . S
C2503 C2500 1.403 . S
C2503 C2504 1.524 . S
C2503 C2507 1.400 . S
C2504 H2489 0.960 . S
C2504 H2490 0.960 . S
C2504 H2491 0.960 . S
C2504 C2503 1.524 . S
C2505 C2502 1.403 . S
C2505 C2506 1.392 . S
C2505 C2509 1.495 . S
C2506 C2505 1.392 . S
C2506 C2507 1.385 . S
C2506 C2508 1.478 . S
C2507 H2501 0.930 . S
C2507 C2503 1.400 . S
C2507 C2506 1.385 . S
C2508 C2506 1.478 . S
C2508 C2510 1.381 . S
C2508 C2514 1.383 . S
C2509 C2505 1.495 . S
C2509 H2515 0.959 . S
C2509 H2516 0.961 . S
C2509 H2517 0.960 . S
C2510 C2508 1.381 . S
C2510 C2511 1.394 . S
C2510 H2518 0.930 . S
C2511 C2510 1.394 . S
C2511 C2512 1.383 . S
C2511 H2519 0.929 . S
C2512 C2511 1.383 . S
C2512 C2513 1.377 . S
C2513 H2497 0.930 . S
C2513 C2512 1.377 . S
C2513 C2514 1.379 . S
C2514 H2498 0.931 . S
C2514 C2508 1.383 . S
C2514 C2513 1.379 . S
H2515 C2509 0.959 . S
H2516 C2509 0.961 . S
H2517 C2509 0.960 . S
H2518 C2510 0.930 . S
H2519 C2511 0.929 . S
H2520 C2528 0.929 . S
H2521 C2530 0.930 1_556 S
H2522 C2532 0.930 . S
H2523 C2535 0.929 . S
H2524 C2538 0.930 . S
H2525 C2540 0.960 . S
H2526 C2540 0.960 . S
H2527 C2540 0.960 . S
C2528 H2520 0.929 . S
C2528 C2529 1.377 . S
C2528 C2530 1.384 . S
C2529 C2528 1.377 . S
C2529 C2535 1.390 . S
C2530 H2521 0.930 1_554 S
C2530 C2528 1.384 . S
C2530 C2531 1.372 1_554 S
C2531 C2530 1.372 1_556 S
C2531 C2532 1.400 1_556 S
C2531 C2536 1.490 . S
C2532 H2522 0.930 . S
C2532 C2531 1.400 1_554 S
C2532 C2535 1.386 . S
H2533 C2549 0.930 . S
H2534 C2550 0.931 . S
C2535 H2523 0.929 . S
C2535 C2529 1.390 . S
C2535 C2532 1.386 . S
C2536 C2531 1.490 . S
C2536 C2538 1.395 . S
C2536 C2539 1.403 . S
H2537 C2543 0.930 . S
C2538 H2524 0.930 . S
C2538 C2536 1.395 . S
C2538 C2541 1.403 . S
C2539 C2536 1.403 . S
C2539 C2540 1.524 . S
C2539 C2543 1.400 . S
C2540 H2525 0.960 . S
C2540 H2526 0.960 . S
C2540 H2527 0.960 . S
C2540 C2539 1.524 . S
C2541 C2538 1.403 . S
C2541 C2542 1.392 . S
C2541 C2545 1.495 . S
C2542 C2541 1.392 . S
C2542 C2543 1.385 . S
C2542 C2544 1.478 . S
C2543 H2537 0.930 . S
C2543 C2539 1.400 . S
C2543 C2542 1.385 . S
C2544 C2542 1.478 . S
C2544 C2546 1.381 . S
C2544 C2550 1.383 . S
C2545 C2541 1.495 . S
C2545 H2551 0.959 . S
C2545 H2552 0.961 . S
C2545 H2553 0.960 . S
C2546 C2544 1.381 . S
C2546 C2547 1.394 . S
C2546 H2554 0.930 . S
C2547 C2546 1.394 . S
C2547 C2548 1.383 . S
C2547 H2555 0.929 . S
C2548 C2547 1.383 . S
C2548 C2549 1.377 . S
C2549 H2533 0.930 . S
C2549 C2548 1.377 . S
C2549 C2550 1.379 . S
C2550 H2534 0.931 . S
C2550 C2544 1.383 . S
C2550 C2549 1.379 . S
H2551 C2545 0.959 . S
H2552 C2545 0.961 . S
H2553 C2545 0.960 . S
H2554 C2546 0.930 . S
H2555 C2547 0.929 . S
H2556 C2564 0.929 . S
H2557 C2566 0.930 . S
H2558 C2568 0.930 . S
H2559 C2571 0.929 . S
H2560 C2574 0.930 . S
H2561 C2576 0.960 . S
H2562 C2576 0.960 . S
H2563 C2576 0.960 . S
C2564 H2556 0.929 . S
C2564 C2565 1.377 . S
C2564 C2566 1.384 . S
C2565 C2564 1.377 . S
C2565 C2571 1.390 . S
C2566 H2557 0.930 . S
C2566 C2564 1.384 . S
C2566 C2567 1.372 . S
C2567 C2566 1.372 . S
C2567 C2568 1.400 . S
C2567 C2572 1.490 . S
C2568 H2558 0.930 . S
C2568 C2567 1.400 . S
C2568 C2571 1.386 . S
H2569 C2585 0.930 . S
H2570 C2586 0.931 . S
C2571 H2559 0.929 . S
C2571 C2565 1.390 . S
C2571 C2568 1.386 . S
C2572 C2567 1.490 . S
C2572 C2574 1.395 . S
C2572 C2575 1.403 . S
H2573 C2579 0.930 . S
C2574 H2560 0.930 . S
C2574 C2572 1.395 . S
C2574 C2577 1.403 . S
C2575 C2572 1.403 . S
C2575 C2576 1.524 . S
C2575 C2579 1.400 . S
C2576 H2561 0.960 . S
C2576 H2562 0.960 . S
C2576 H2563 0.960 . S
C2576 C2575 1.524 . S
C2577 C2574 1.403 . S
C2577 C2578 1.392 . S
C2577 C2581 1.495 . S
C2578 C2577 1.392 . S
C2578 C2579 1.385 . S
C2578 C2580 1.478 . S
C2579 H2573 0.930 . S
C2579 C2575 1.400 . S
C2579 C2578 1.385 . S
C2580 C2578 1.478 . S
C2580 C2582 1.381 . S
C2580 C2586 1.383 . S
C2581 C2577 1.495 . S
C2581 H2587 0.959 . S
C2581 H2588 0.961 . S
C2581 H2589 0.960 . S
C2582 C2580 1.381 . S
C2582 C2583 1.394 . S
C2582 H2590 0.930 . S
C2583 C2582 1.394 . S
C2583 C2584 1.383 . S
C2583 H2591 0.929 . S
C2584 C2583 1.383 . S
C2584 C2585 1.377 . S
C2585 H2569 0.930 . S
C2585 C2584 1.377 . S
C2585 C2586 1.379 . S
C2586 H2570 0.931 . S
C2586 C2580 1.383 . S
C2586 C2585 1.379 . S
H2587 C2581 0.959 . S
H2588 C2581 0.961 . S
H2589 C2581 0.960 . S
H2590 C2582 0.930 . S
H2591 C2583 0.929 . S
H2592 C2600 0.929 . S
H2593 C2602 0.930 . S
H2594 C2604 0.930 . S
H2595 C2607 0.929 . S
H2596 C2610 0.930 . S
H2597 C2612 0.960 . S
H2598 C2612 0.960 . S
H2599 C2612 0.960 . S
C2600 H2592 0.929 . S
C2600 C2601 1.377 . S
C2600 C2602 1.384 . S
C2601 C2600 1.377 . S
C2601 C2607 1.390 . S
C2602 H2593 0.930 . S
C2602 C2600 1.384 . S
C2602 C2603 1.372 . S
C2603 C2602 1.372 . S
C2603 C2604 1.400 . S
C2603 C2608 1.490 . S
C2604 H2594 0.930 . S
C2604 C2603 1.400 . S
C2604 C2607 1.386 . S
H2605 C2621 0.930 . S
H2606 C2622 0.931 . S
C2607 H2595 0.929 . S
C2607 C2601 1.390 . S
C2607 C2604 1.386 . S
C2608 C2603 1.490 . S
C2608 C2610 1.395 . S
C2608 C2611 1.403 . S
H2609 C2615 0.930 . S
C2610 H2596 0.930 . S
C2610 C2608 1.395 . S
C2610 C2613 1.403 . S
C2611 C2608 1.403 . S
C2611 C2612 1.524 . S
C2611 C2615 1.400 . S
C2612 H2597 0.960 . S
C2612 H2598 0.960 . S
C2612 H2599 0.960 . S
C2612 C2611 1.524 . S
C2613 C2610 1.403 . S
C2613 C2614 1.392 . S
C2613 C2617 1.495 . S
C2614 C2613 1.392 . S
C2614 C2615 1.385 . S
C2614 C2616 1.478 . S
C2615 H2609 0.930 . S
C2615 C2611 1.400 . S
C2615 C2614 1.385 . S
C2616 C2614 1.478 . S
C2616 C2618 1.381 . S
C2616 C2622 1.383 . S
C2617 C2613 1.495 . S
C2617 H2623 0.959 . S
C2617 H2624 0.961 . S
C2617 H2625 0.960 . S
C2618 C2616 1.381 . S
C2618 C2619 1.394 . S
C2618 H2626 0.930 . S
C2619 C2618 1.394 . S
C2619 C2620 1.383 . S
C2619 H2627 0.929 . S
C2620 C2619 1.383 . S
C2620 C2621 1.377 . S
C2621 H2605 0.930 . S
C2621 C2620 1.377 . S
C2621 C2622 1.379 . S
C2622 H2606 0.931 . S
C2622 C2616 1.383 . S
C2622 C2621 1.379 . S
H2623 C2617 0.959 . S
H2624 C2617 0.961 . S
H2625 C2617 0.960 . S
H2626 C2618 0.930 . S
H2627 C2619 0.929 . S
H2628 C2636 0.929 . S
H2629 C2638 0.930 . S
H2630 C2640 0.930 . S
H2631 C2643 0.929 . S
H2632 C2646 0.930 . S
H2633 C2648 0.960 . S
H2634 C2648 0.960 . S
H2635 C2648 0.960 . S
C2636 H2628 0.929 . S
C2636 C2637 1.377 . S
C2636 C2638 1.384 . S
C2637 C2636 1.377 . S
C2637 C2643 1.390 . S
C2638 H2629 0.930 . S
C2638 C2636 1.384 . S
C2638 C2639 1.372 . S
C2639 C2638 1.372 . S
C2639 C2640 1.400 . S
C2639 C2644 1.490 . S
C2640 H2630 0.930 . S
C2640 C2639 1.400 . S
C2640 C2643 1.386 . S
H2641 C2657 0.930 . S
H2642 C2658 0.931 . S
C2643 H2631 0.929 . S
C2643 C2637 1.390 . S
C2643 C2640 1.386 . S
C2644 C2639 1.490 . S
C2644 C2646 1.395 . S
C2644 C2647 1.403 . S
H2645 C2651 0.930 . S
C2646 H2632 0.930 . S
C2646 C2644 1.395 . S
C2646 C2649 1.403 . S
C2647 C2644 1.403 . S
C2647 C2648 1.524 . S
C2647 C2651 1.400 . S
C2648 H2633 0.960 . S
C2648 H2634 0.960 . S
C2648 H2635 0.960 . S
C2648 C2647 1.524 . S
C2649 C2646 1.403 . S
C2649 C2650 1.392 . S
C2649 C2653 1.495 . S
C2650 C2649 1.392 . S
C2650 C2651 1.385 . S
C2650 C2652 1.478 . S
C2651 H2645 0.930 . S
C2651 C2647 1.400 . S
C2651 C2650 1.385 . S
C2652 C2650 1.478 . S
C2652 C2654 1.381 . S
C2652 C2658 1.383 . S
C2653 C2649 1.495 . S
C2653 H2659 0.959 . S
C2653 H2660 0.961 . S
C2653 H2661 0.960 . S
C2654 C2652 1.381 . S
C2654 C2655 1.394 . S
C2654 H2662 0.930 . S
C2655 C2654 1.394 . S
C2655 C2656 1.383 . S
C2655 H2663 0.929 . S
C2656 C2655 1.383 . S
C2656 C2657 1.377 . S
C2657 H2641 0.930 . S
C2657 C2656 1.377 . S
C2657 C2658 1.379 . S
C2658 H2642 0.931 . S
C2658 C2652 1.383 . S
C2658 C2657 1.379 . S
H2659 C2653 0.959 . S
H2660 C2653 0.961 . S
H2661 C2653 0.960 . S
H2662 C2654 0.930 . S
H2663 C2655 0.929 . S
H2664 C2672 0.929 . S
H2665 C2674 0.930 . S
H2666 C2676 0.930 . S
H2667 C2679 0.929 . S
H2668 C2682 0.930 . S
H2669 C2684 0.960 . S
H2670 C2684 0.960 . S
H2671 C2684 0.960 . S
C2672 H2664 0.929 . S
C2672 C2673 1.377 . S
C2672 C2674 1.384 . S
C2673 C2672 1.377 . S
C2673 C2679 1.390 . S
C2674 H2665 0.930 . S
C2674 C2672 1.384 . S
C2674 C2675 1.372 . S
C2675 C2674 1.372 . S
C2675 C2676 1.400 . S
C2675 C2680 1.490 . S
C2676 H2666 0.930 . S
C2676 C2675 1.400 . S
C2676 C2679 1.386 . S
H2677 C2693 0.930 . S
H2678 C2694 0.931 1_554 S
C2679 H2667 0.929 . S
C2679 C2673 1.390 . S
C2679 C2676 1.386 . S
C2680 C2675 1.490 . S
C2680 C2682 1.395 . S
C2680 C2683 1.403 . S
H2681 C2687 0.930 . S
C2682 H2668 0.930 . S
C2682 C2680 1.395 . S
C2682 C2685 1.403 . S
C2683 C2680 1.403 . S
C2683 C2684 1.524 . S
C2683 C2687 1.400 . S
C2684 H2669 0.960 . S
C2684 H2670 0.960 . S
C2684 H2671 0.960 . S
C2684 C2683 1.524 . S
C2685 C2682 1.403 . S
C2685 C2686 1.392 . S
C2685 C2689 1.495 . S
C2686 C2685 1.392 . S
C2686 C2687 1.385 . S
C2686 C2688 1.478 . S
C2687 H2681 0.930 . S
C2687 C2683 1.400 . S
C2687 C2686 1.385 . S
C2688 C2686 1.478 . S
C2688 C2690 1.381 1_554 S
C2688 C2694 1.383 1_554 S
C2689 C2685 1.495 . S
C2689 H2695 0.959 . S
C2689 H2696 0.961 . S
C2689 H2697 0.960 . S
C2690 C2688 1.381 1_556 S
C2690 C2691 1.394 . S
C2690 H2698 0.930 . S
C2691 C2690 1.394 . S
C2691 C2692 1.383 . S
C2691 H2699 0.929 . S
C2692 C2691 1.383 . S
C2692 C2693 1.377 . S
C2693 H2677 0.930 . S
C2693 C2692 1.377 . S
C2693 C2694 1.379 . S
C2694 H2678 0.931 1_556 S
C2694 C2688 1.383 1_556 S
C2694 C2693 1.379 . S
H2695 C2689 0.959 . S
H2696 C2689 0.961 . S
H2697 C2689 0.960 . S
H2698 C2690 0.930 . S
H2699 C2691 0.929 . S
H2700 C2708 0.929 . S
H2701 C2710 0.930 . S
H2702 C2712 0.930 . S
H2703 C2715 0.929 . S
H2704 C2718 0.930 . S
H2705 C2720 0.960 . S
H2706 C2720 0.960 . S
H2707 C2720 0.960 . S
C2708 H2700 0.929 . S
C2708 C2709 1.377 . S
C2708 C2710 1.384 . S
C2709 C2708 1.377 . S
C2709 C2715 1.390 . S
C2710 H2701 0.930 . S
C2710 C2708 1.384 . S
C2710 C2711 1.372 . S
C2711 C2710 1.372 . S
C2711 C2712 1.400 . S
C2711 C2716 1.490 . S
C2712 H2702 0.930 . S
C2712 C2711 1.400 . S
C2712 C2715 1.386 . S
H2713 C2729 0.930 . S
H2714 C2730 0.931 1_554 S
C2715 H2703 0.929 . S
C2715 C2709 1.390 . S
C2715 C2712 1.386 . S
C2716 C2711 1.490 . S
C2716 C2718 1.395 . S
C2716 C2719 1.403 . S
H2717 C2723 0.930 . S
C2718 H2704 0.930 . S
C2718 C2716 1.395 . S
C2718 C2721 1.403 . S
C2719 C2716 1.403 . S
C2719 C2720 1.524 . S
C2719 C2723 1.400 . S
C2720 H2705 0.960 . S
C2720 H2706 0.960 . S
C2720 H2707 0.960 . S
C2720 C2719 1.524 . S
C2721 C2718 1.403 . S
C2721 C2722 1.392 . S
C2721 C2725 1.495 . S
C2722 C2721 1.392 . S
C2722 C2723 1.385 . S
C2722 C2724 1.478 . S
C2723 H2717 0.930 . S
C2723 C2719 1.400 . S
C2723 C2722 1.385 . S
C2724 C2722 1.478 . S
C2724 C2726 1.381 1_554 S
C2724 C2730 1.383 1_554 S
C2725 C2721 1.495 . S
C2725 H2731 0.959 . S
C2725 H2732 0.961 . S
C2725 H2733 0.960 . S
C2726 C2724 1.381 1_556 S
C2726 C2727 1.394 . S
C2726 H2734 0.930 . S
C2727 C2726 1.394 . S
C2727 C2728 1.383 . S
C2727 H2735 0.929 . S
C2728 C2727 1.383 . S
C2728 C2729 1.377 . S
C2729 H2713 0.930 . S
C2729 C2728 1.377 . S
C2729 C2730 1.379 . S
C2730 H2714 0.931 1_556 S
C2730 C2724 1.383 1_556 S
C2730 C2729 1.379 . S
H2731 C2725 0.959 . S
H2732 C2725 0.961 . S
H2733 C2725 0.960 . S
H2734 C2726 0.930 . S
H2735 C2727 0.929 . S
H2736 C2744 0.929 . S
H2737 C2746 0.930 . S
H2738 C2748 0.930 . S
H2739 C2751 0.929 . S
H2740 C2754 0.930 . S
H2741 C2756 0.960 . S
H2742 C2756 0.960 . S
H2743 C2756 0.960 . S
C2744 H2736 0.929 . S
C2744 C2745 1.377 . S
C2744 C2746 1.384 . S
C2745 C2744 1.377 . S
C2745 C2751 1.390 . S
C2746 H2737 0.930 . S
C2746 C2744 1.384 . S
C2746 C2747 1.372 . S
C2747 C2746 1.372 . S
C2747 C2748 1.400 . S
C2747 C2752 1.490 . S
C2748 H2738 0.930 . S
C2748 C2747 1.400 . S
C2748 C2751 1.386 . S
H2749 C2765 0.930 . S
H2750 C2766 0.931 . S
C2751 H2739 0.929 . S
C2751 C2745 1.390 . S
C2751 C2748 1.386 . S
C2752 C2747 1.490 . S
C2752 C2754 1.395 . S
C2752 C2755 1.403 . S
H2753 C2759 0.930 . S
C2754 H2740 0.930 . S
C2754 C2752 1.395 . S
C2754 C2757 1.403 . S
C2755 C2752 1.403 . S
C2755 C2756 1.524 . S
C2755 C2759 1.400 . S
C2756 H2741 0.960 . S
C2756 H2742 0.960 . S
C2756 H2743 0.960 . S
C2756 C2755 1.524 . S
C2757 C2754 1.403 . S
C2757 C2758 1.392 . S
C2757 C2761 1.495 . S
C2758 C2757 1.392 . S
C2758 C2759 1.385 . S
C2758 C2760 1.478 . S
C2759 H2753 0.930 . S
C2759 C2755 1.400 . S
C2759 C2758 1.385 . S
C2760 C2758 1.478 . S
C2760 C2762 1.381 1_554 S
C2760 C2766 1.383 1_554 S
C2761 C2757 1.495 . S
C2761 H2767 0.959 . S
C2761 H2768 0.961 . S
C2761 H2769 0.960 . S
C2762 C2760 1.381 1_556 S
C2762 C2763 1.394 . S
C2762 H2770 0.930 1_556 S
C2763 C2762 1.394 . S
C2763 C2764 1.383 . S
C2763 H2771 0.929 . S
C2764 C2763 1.383 . S
C2764 C2765 1.377 . S
C2765 H2749 0.930 . S
C2765 C2764 1.377 . S
C2765 C2766 1.379 . S
C2766 H2750 0.931 . S
C2766 C2760 1.383 1_556 S
C2766 C2765 1.379 . S
H2767 C2761 0.959 . S
H2768 C2761 0.961 . S
H2769 C2761 0.960 . S
H2770 C2762 0.930 1_554 S
H2771 C2763 0.929 . S
H2772 C2780 0.929 . S
H2773 C2782 0.930 . S
H2774 C2784 0.930 . S
H2775 C2787 0.929 . S
H2776 C2790 0.930 . S
H2777 C2792 0.960 . S
H2778 C2792 0.960 . S
H2779 C2792 0.960 . S
C2780 H2772 0.929 . S
C2780 C2781 1.377 . S
C2780 C2782 1.384 . S
C2781 C2780 1.377 . S
C2781 C2787 1.390 . S
C2782 H2773 0.930 . S
C2782 C2780 1.384 . S
C2782 C2783 1.372 . S
C2783 C2782 1.372 . S
C2783 C2784 1.400 . S
C2783 C2788 1.490 . S
C2784 H2774 0.930 . S
C2784 C2783 1.400 . S
C2784 C2787 1.386 . S
H2785 C2801 0.930 . S
H2786 C2802 0.931 . S
C2787 H2775 0.929 . S
C2787 C2781 1.390 . S
C2787 C2784 1.386 . S
C2788 C2783 1.490 . S
C2788 C2790 1.395 . S
C2788 C2791 1.403 . S
H2789 C2795 0.930 . S
C2790 H2776 0.930 . S
C2790 C2788 1.395 . S
C2790 C2793 1.403 . S
C2791 C2788 1.403 . S
C2791 C2792 1.524 . S
C2791 C2795 1.400 . S
C2792 H2777 0.960 . S
C2792 H2778 0.960 . S
C2792 H2779 0.960 . S
C2792 C2791 1.524 . S
C2793 C2790 1.403 . S
C2793 C2794 1.392 . S
C2793 C2797 1.495 . S
C2794 C2793 1.392 . S
C2794 C2795 1.385 . S
C2794 C2796 1.478 . S
C2795 H2789 0.930 . S
C2795 C2791 1.400 . S
C2795 C2794 1.385 . S
C2796 C2794 1.478 . S
C2796 C2798 1.381 . S
C2796 C2802 1.383 . S
C2797 C2793 1.495 . S
C2797 H2803 0.959 . S
C2797 H2804 0.961 . S
C2797 H2805 0.960 . S
C2798 C2796 1.381 . S
C2798 C2799 1.394 . S
C2798 H2806 0.930 . S
C2799 C2798 1.394 . S
C2799 C2800 1.383 . S
C2799 H2807 0.929 . S
C2800 C2799 1.383 . S
C2800 C2801 1.377 . S
C2801 H2785 0.930 . S
C2801 C2800 1.377 . S
C2801 C2802 1.379 . S
C2802 H2786 0.931 . S
C2802 C2796 1.383 . S
C2802 C2801 1.379 . S
H2803 C2797 0.959 . S
H2804 C2797 0.961 . S
H2805 C2797 0.960 . S
H2806 C2798 0.930 . S
H2807 C2799 0.929 . S
H2808 C2816 0.929 . S
H2809 C2818 0.930 . S
H2810 C2820 0.930 . S
H2811 C2823 0.929 . S
H2812 C2826 0.930 . S
H2813 C2828 0.960 . S
H2814 C2828 0.960 . S
H2815 C2828 0.960 . S
C2816 H2808 0.929 . S
C2816 C2817 1.377 . S
C2816 C2818 1.384 . S
C2817 C2816 1.377 . S
C2817 C2823 1.390 . S
C2818 H2809 0.930 . S
C2818 C2816 1.384 . S
C2818 C2819 1.372 . S
C2819 C2818 1.372 . S
C2819 C2820 1.400 . S
C2819 C2824 1.490 . S
C2820 H2810 0.930 . S
C2820 C2819 1.400 . S
C2820 C2823 1.386 . S
H2821 C2837 0.930 . S
H2822 C2838 0.931 . S
C2823 H2811 0.929 . S
C2823 C2817 1.390 . S
C2823 C2820 1.386 . S
C2824 C2819 1.490 . S
C2824 C2826 1.395 . S
C2824 C2827 1.403 . S
H2825 C2831 0.930 . S
C2826 H2812 0.930 . S
C2826 C2824 1.395 . S
C2826 C2829 1.403 . S
C2827 C2824 1.403 . S
C2827 C2828 1.524 . S
C2827 C2831 1.400 . S
C2828 H2813 0.960 . S
C2828 H2814 0.960 . S
C2828 H2815 0.960 . S
C2828 C2827 1.524 . S
C2829 C2826 1.403 . S
C2829 C2830 1.392 . S
C2829 C2833 1.495 . S
C2830 C2829 1.392 . S
C2830 C2831 1.385 . S
C2830 C2832 1.478 . S
C2831 H2825 0.930 . S
C2831 C2827 1.400 . S
C2831 C2830 1.385 . S
C2832 C2830 1.478 . S
C2832 C2834 1.381 . S
C2832 C2838 1.383 . S
C2833 C2829 1.495 . S
C2833 H2839 0.959 . S
C2833 H2840 0.961 . S
C2833 H2841 0.960 . S
C2834 C2832 1.381 . S
C2834 C2835 1.394 . S
C2834 H2842 0.930 . S
C2835 C2834 1.394 . S
C2835 C2836 1.383 . S
C2835 H2843 0.929 . S
C2836 C2835 1.383 . S
C2836 C2837 1.377 . S
C2837 H2821 0.930 . S
C2837 C2836 1.377 . S
C2837 C2838 1.379 . S
C2838 H2822 0.931 . S
C2838 C2832 1.383 . S
C2838 C2837 1.379 . S
H2839 C2833 0.959 . S
H2840 C2833 0.961 . S
H2841 C2833 0.960 . S
H2842 C2834 0.930 . S
H2843 C2835 0.929 . S
H2844 C2852 0.929 . S
H2845 C2854 0.930 . S
H2846 C2856 0.930 . S
H2847 C2859 0.929 . S
H2848 C2862 0.930 . S
H2849 C2864 0.960 . S
H2850 C2864 0.960 . S
H2851 C2864 0.960 . S
C2852 H2844 0.929 . S
C2852 C2853 1.377 . S
C2852 C2854 1.384 . S
C2853 C2852 1.377 . S
C2853 C2859 1.390 . S
C2854 H2845 0.930 . S
C2854 C2852 1.384 . S
C2854 C2855 1.372 . S
C2855 C2854 1.372 . S
C2855 C2856 1.400 . S
C2855 C2860 1.490 . S
C2856 H2846 0.930 . S
C2856 C2855 1.400 . S
C2856 C2859 1.386 . S
H2857 C2873 0.930 . S
H2858 C2874 0.931 . S
C2859 H2847 0.929 . S
C2859 C2853 1.390 . S
C2859 C2856 1.386 . S
C2860 C2855 1.490 . S
C2860 C2862 1.395 . S
C2860 C2863 1.403 . S
H2861 C2867 0.930 . S
C2862 H2848 0.930 . S
C2862 C2860 1.395 . S
C2862 C2865 1.403 . S
C2863 C2860 1.403 . S
C2863 C2864 1.524 . S
C2863 C2867 1.400 . S
C2864 H2849 0.960 . S
C2864 H2850 0.960 . S
C2864 H2851 0.960 . S
C2864 C2863 1.524 . S
C2865 C2862 1.403 . S
C2865 C2866 1.392 . S
C2865 C2869 1.495 . S
C2866 C2865 1.392 . S
C2866 C2867 1.385 . S
C2866 C2868 1.478 . S
C2867 H2861 0.930 . S
C2867 C2863 1.400 . S
C2867 C2866 1.385 . S
C2868 C2866 1.478 . S
C2868 C2870 1.381 . S
C2868 C2874 1.383 . S
C2869 C2865 1.495 . S
C2869 H2875 0.959 . S
C2869 H2876 0.961 . S
C2869 H2877 0.960 . S
C2870 C2868 1.381 . S
C2870 C2871 1.394 . S
C2870 H2878 0.930 . S
C2871 C2870 1.394 . S
C2871 C2872 1.383 . S
C2871 H2879 0.929 . S
C2872 C2871 1.383 . S
C2872 C2873 1.377 . S
C2873 H2857 0.930 . S
C2873 C2872 1.377 . S
C2873 C2874 1.379 . S
C2874 H2858 0.931 . S
C2874 C2868 1.383 . S
C2874 C2873 1.379 . S
H2875 C2869 0.959 . S
H2876 C2869 0.961 . S
H2877 C2869 0.960 . S
H2878 C2870 0.930 . S
H2879 C2871 0.929 . S
H2880 C2888 0.929 . S
H2881 C2890 0.930 . S
H2882 C2892 0.930 . S
H2883 C2895 0.929 . S
H2884 C2898 0.930 . S
H2885 C2900 0.960 . S
H2886 C2900 0.960 . S
H2887 C2900 0.960 . S
C2888 H2880 0.929 . S
C2888 C2889 1.377 . S
C2888 C2890 1.384 . S
C2889 C2888 1.377 . S
C2889 C2895 1.390 . S
C2890 H2881 0.930 . S
C2890 C2888 1.384 . S
C2890 C2891 1.372 . S
C2891 C2890 1.372 . S
C2891 C2892 1.400 . S
C2891 C2896 1.490 . S
C2892 H2882 0.930 . S
C2892 C2891 1.400 . S
C2892 C2895 1.386 . S
H2893 C2909 0.891 1_455 S
H2894 C2910 0.931 . S
C2895 H2883 0.929 . S
C2895 C2889 1.390 . S
C2895 C2892 1.386 . S
C2896 C2891 1.490 . S
C2896 C2898 1.395 . S
C2896 C2899 1.403 . S
H2897 C2903 0.930 . S
C2898 H2884 0.930 . S
C2898 C2896 1.395 . S
C2898 C2901 1.403 . S
C2899 C2896 1.403 . S
C2899 C2900 1.524 . S
C2899 C2903 1.400 . S
C2900 H2885 0.960 . S
C2900 H2886 0.960 . S
C2900 H2887 0.960 . S
C2900 C2899 1.524 . S
C2901 C2898 1.403 . S
C2901 C2902 1.392 . S
C2901 C2905 1.495 . S
C2902 C2901 1.392 . S
C2902 C2903 1.385 . S
C2902 C2904 1.478 . S
C2903 H2897 0.930 . S
C2903 C2899 1.400 . S
C2903 C2902 1.385 . S
C2904 C2902 1.478 . S
C2904 C2906 1.381 . S
C2904 C2910 1.383 . S
C2905 C2901 1.495 . S
C2905 H2911 0.959 . S
C2905 H2912 0.961 . S
C2905 H2913 0.960 . S
C2906 C2904 1.381 . S
C2906 C2907 1.394 . S
C2906 H2914 0.930 . S
C2907 C2906 1.394 . S
C2907 C2908 1.383 . S
C2907 H2915 0.929 . S
C2908 C2907 1.383 . S
C2908 C2909 1.377 . S
C2909 H2893 0.891 1_655 S
C2909 C2908 1.377 . S
C2909 C2910 1.379 . S
C2910 H2894 0.931 . S
C2910 C2904 1.383 . S
C2910 C2909 1.379 . S
H2911 C2905 0.959 . S
H2912 C2905 0.961 . S
H2913 C2905 0.960 . S
H2914 C2906 0.930 . S
H2915 C2907 0.929 . S
H2916 C2924 0.929 . S
H2917 C2926 0.930 . S
H2918 C2928 0.930 . S
H2919 C2931 0.929 . S
H2920 C2934 0.930 . S
H2921 C2936 0.960 . S
H2922 C2936 0.960 . S
H2923 C2936 0.960 . S
C2924 H2916 0.929 . S
C2924 C2925 1.377 . S
C2924 C2926 1.384 . S
C2925 C2924 1.377 . S
C2925 C2931 1.390 . S
C2926 H2917 0.930 . S
C2926 C2924 1.384 . S
C2926 C2927 1.372 . S
C2927 C2926 1.372 . S
C2927 C2928 1.400 . S
C2927 C2932 1.490 . S
C2928 H2918 0.930 . S
C2928 C2927 1.400 . S
C2928 C2931 1.386 . S
H2929 C2945 0.930 . S
H2930 C2946 0.931 . S
C2931 H2919 0.929 . S
C2931 C2925 1.390 . S
C2931 C2928 1.386 . S
C2932 C2927 1.490 . S
C2932 C2934 1.395 . S
C2932 C2935 1.403 . S
H2933 C2939 0.930 . S
C2934 H2920 0.930 . S
C2934 C2932 1.395 . S
C2934 C2937 1.403 . S
C2935 C2932 1.403 . S
C2935 C2936 1.524 . S
C2935 C2939 1.400 . S
C2936 H2921 0.960 . S
C2936 H2922 0.960 . S
C2936 H2923 0.960 . S
C2936 C2935 1.524 . S
C2937 C2934 1.403 . S
C2937 C2938 1.392 . S
C2937 C2941 1.495 . S
C2938 C2937 1.392 . S
C2938 C2939 1.385 . S
C2938 C2940 1.478 . S
C2939 H2933 0.930 . S
C2939 C2935 1.400 . S
C2939 C2938 1.385 . S
C2940 C2938 1.478 . S
C2940 C2942 1.381 . S
C2940 C2946 1.383 . S
C2941 C2937 1.495 . S
C2941 H2947 0.959 . S
C2941 H2948 0.961 . S
C2941 H2949 0.960 . S
C2942 C2940 1.381 . S
C2942 C2943 1.394 . S
C2942 H2950 0.930 . S
C2943 C2942 1.394 . S
C2943 C2944 1.383 . S
C2943 H2951 0.929 . S
C2944 C2943 1.383 . S
C2944 C2945 1.377 . S
C2945 H2929 0.930 . S
C2945 C2944 1.377 . S
C2945 C2946 1.379 . S
C2946 H2930 0.931 . S
C2946 C2940 1.383 . S
C2946 C2945 1.379 . S
H2947 C2941 0.959 . S
H2948 C2941 0.961 . S
H2949 C2941 0.960 . S
H2950 C2942 0.930 . S
H2951 C2943 0.929 . S
H2952 C2960 0.929 . S
H2953 C2962 0.930 . S
H2954 C2964 0.930 . S
H2955 C2967 0.929 . S
H2956 C2970 0.930 . S
H2957 C2972 0.960 . S
H2958 C2972 0.960 . S
H2959 C2972 0.960 . S
C2960 H2952 0.929 . S
C2960 C2961 1.377 . S
C2960 C2962 1.384 . S
C2961 C2960 1.377 . S
C2961 C2967 1.390 . S
C2962 H2953 0.930 . S
C2962 C2960 1.384 . S
C2962 C2963 1.372 . S
C2963 C2962 1.372 . S
C2963 C2964 1.400 . S
C2963 C2968 1.490 . S
C2964 H2954 0.930 . S
C2964 C2963 1.400 . S
C2964 C2967 1.386 . S
H2965 C2981 0.930 . S
H2966 C2982 0.931 . S
C2967 H2955 0.929 . S
C2967 C2961 1.390 . S
C2967 C2964 1.386 . S
C2968 C2963 1.490 . S
C2968 C2970 1.395 . S
C2968 C2971 1.403 . S
H2969 C2975 0.930 . S
C2970 H2956 0.930 . S
C2970 C2968 1.395 . S
C2970 C2973 1.403 . S
C2971 C2968 1.403 . S
C2971 C2972 1.524 . S
C2971 C2975 1.400 . S
C2972 H2957 0.960 . S
C2972 H2958 0.960 . S
C2972 H2959 0.960 . S
C2972 C2971 1.524 . S
C2973 C2970 1.403 . S
C2973 C2974 1.392 . S
C2973 C2977 1.495 . S
C2974 C2973 1.392 . S
C2974 C2975 1.385 . S
C2974 C2976 1.478 . S
C2975 H2969 0.930 . S
C2975 C2971 1.400 . S
C2975 C2974 1.385 . S
C2976 C2974 1.478 . S
C2976 C2978 1.381 . S
C2976 C2982 1.383 . S
C2977 C2973 1.495 . S
C2977 H2983 0.959 . S
C2977 H2984 0.961 . S
C2977 H2985 0.960 1_565 S
C2978 C2976 1.381 . S
C2978 C2979 1.394 . S
C2978 H2986 0.930 1_565 S
C2979 C2978 1.394 . S
C2979 C2980 1.383 . S
C2979 H2987 0.929 1_565 S
C2980 C2979 1.383 . S
C2980 C2981 1.377 . S
C2981 H2965 0.930 . S
C2981 C2980 1.377 . S
C2981 C2982 1.379 . S
C2982 H2966 0.931 . S
C2982 C2976 1.383 . S
C2982 C2981 1.379 . S
H2983 C2977 0.959 . S
H2984 C2977 0.961 . S
H2985 C2977 0.960 1_545 S
H2986 C2978 0.930 1_545 S
H2987 C2979 0.929 1_545 S
H2988 C2996 0.929 . S
H2989 C2998 0.930 . S
H2990 C3000 0.930 . S
H2991 C3003 0.929 . S
H2992 C3006 0.930 . S
H2993 C3008 0.960 . S
H2994 C3008 0.960 . S
H2995 C3008 0.960 . S
C2996 H2988 0.929 . S
C2996 C2997 1.377 . S
C2996 C2998 1.384 . S
C2997 C2996 1.377 . S
C2997 C3003 1.390 . S
C2998 H2989 0.930 . S
C2998 C2996 1.384 . S
C2998 C2999 1.372 . S
C2999 C2998 1.372 . S
C2999 C3000 1.400 . S
C2999 C3004 1.490 . S
C3000 H2990 0.930 . S
C3000 C2999 1.400 . S
C3000 C3003 1.386 . S
H3001 C3017 0.930 . S
H3002 C3018 0.931 . S
C3003 H2991 0.929 . S
C3003 C2997 1.390 . S
C3003 C3000 1.386 . S
C3004 C2999 1.490 . S
C3004 C3006 1.395 . S
C3004 C3007 1.403 . S
H3005 C3011 0.930 . S
C3006 H2992 0.930 . S
C3006 C3004 1.395 . S
C3006 C3009 1.403 . S
C3007 C3004 1.403 . S
C3007 C3008 1.524 . S
C3007 C3011 1.400 . S
C3008 H2993 0.960 . S
C3008 H2994 0.960 . S
C3008 H2995 0.960 . S
C3008 C3007 1.524 . S
C3009 C3006 1.403 . S
C3009 C3010 1.392 . S
C3009 C3013 1.463 1_545 S
C3010 C3009 1.392 . S
C3010 C3011 1.385 . S
C3010 C3012 1.478 . S
C3011 H3005 0.930 . S
C3011 C3007 1.400 . S
C3011 C3010 1.385 . S
C3012 C3010 1.478 . S
C3012 C3014 1.381 . S
C3012 C3018 1.383 . S
C3013 C3009 1.463 1_565 S
C3013 H3019 0.991 . S
C3013 H3020 0.960 . S
C3013 H3021 0.963 1_565 S
C3014 C3012 1.381 . S
C3014 C3015 1.394 . S
C3014 H3022 0.930 . S
C3015 C3014 1.394 . S
C3015 C3016 1.383 . S
C3015 H3023 0.929 . S
C3016 C3015 1.383 . S
C3016 C3017 1.377 . S
C3017 H3001 0.930 . S
C3017 C3016 1.377 . S
C3017 C3018 1.379 . S
C3018 H3002 0.931 . S
C3018 C3012 1.383 . S
C3018 C3017 1.379 . S
H3019 C3013 0.991 . S
H3020 C3013 0.960 . S
H3021 C3013 0.963 1_545 S
H3022 C3014 0.930 . S
H3023 C3015 0.929 . S
H3024 C3032 0.929 . S
H3025 C3034 0.930 . S
H3026 C3036 0.930 1_655 S
H3027 C3039 0.929 1_655 S
H3028 C3042 0.930 . S
H3029 C3044 0.960 . S
H3030 C3044 0.960 . S
H3031 C3044 0.960 . S
C3032 H3024 0.929 . S
C3032 C3033 1.377 . S
C3032 C3034 1.384 . S
C3033 C3032 1.377 . S
C3033 C3039 1.390 . S
C3034 H3025 0.930 . S
C3034 C3032 1.384 . S
C3034 C3035 1.372 . S
C3035 C3034 1.372 . S
C3035 C3036 1.400 . S
C3035 C3040 1.490 . S
C3036 H3026 0.930 1_455 S
C3036 C3035 1.400 . S
C3036 C3039 1.386 . S
H3037 C3053 0.930 . S
H3038 C3054 0.931 . S
C3039 H3027 0.929 1_455 S
C3039 C3033 1.390 . S
C3039 C3036 1.386 . S
C3040 C3035 1.490 . S
C3040 C3042 1.395 . S
C3040 C3043 1.403 . S
H3041 C3047 0.930 . S
C3042 H3028 0.930 . S
C3042 C3040 1.395 . S
C3042 C3045 1.403 . S
C3043 C3040 1.403 . S
C3043 C3044 1.524 . S
C3043 C3047 1.400 . S
C3044 H3029 0.960 . S
C3044 H3030 0.960 . S
C3044 H3031 0.960 . S
C3044 C3043 1.524 . S
C3045 C3042 1.403 . S
C3045 C3046 1.392 . S
C3045 C3049 1.495 . S
C3046 C3045 1.392 . S
C3046 C3047 1.385 . S
C3046 C3048 1.478 . S
C3047 H3041 0.930 . S
C3047 C3043 1.400 . S
C3047 C3046 1.385 . S
C3048 C3046 1.478 . S
C3048 C3050 1.381 . S
C3048 C3054 1.383 . S
C3049 C3045 1.495 . S
C3049 H3055 0.959 . S
C3049 H3056 0.961 . S
C3049 H3057 0.960 . S
C3050 C3048 1.381 . S
C3050 C3051 1.394 . S
C3050 H3058 0.930 . S
C3051 C3050 1.394 . S
C3051 C3052 1.383 . S
C3051 H3059 0.929 . S
C3052 C3051 1.383 . S
C3052 C3053 1.377 . S
C3053 H3037 0.930 . S
C3053 C3052 1.377 . S
C3053 C3054 1.379 . S
C3054 H3038 0.931 . S
C3054 C3048 1.383 . S
C3054 C3053 1.379 . S
H3055 C3049 0.959 . S
H3056 C3049 0.961 . S
H3057 C3049 0.960 . S
H3058 C3050 0.930 . S
H3059 C3051 0.929 . S
H3060 C3068 0.929 . S
H3061 C3070 0.930 . S
H3062 C3072 0.930 . S
H3063 C3075 0.929 . S
H3064 C3078 0.930 . S
H3065 C3080 0.960 . S
H3066 C3080 0.960 . S
H3067 C3080 0.960 . S
C3068 H3060 0.929 . S
C3068 C3069 1.377 . S
C3068 C3070 1.384 . S
C3069 C3068 1.377 . S
C3069 C3075 1.390 . S
C3070 H3061 0.930 . S
C3070 C3068 1.384 . S
C3070 C3071 1.372 . S
C3071 C3070 1.372 . S
C3071 C3072 1.400 . S
C3071 C3076 1.490 . S
C3072 H3062 0.930 . S
C3072 C3071 1.400 . S
C3072 C3075 1.386 . S
H3073 C3089 0.930 . S
H3074 C3090 0.931 . S
C3075 H3063 0.929 . S
C3075 C3069 1.390 . S
C3075 C3072 1.386 . S
C3076 C3071 1.490 . S
C3076 C3078 1.395 . S
C3076 C3079 1.403 . S
H3077 C3083 0.930 . S
C3078 H3064 0.930 . S
C3078 C3076 1.395 . S
C3078 C3081 1.403 . S
C3079 C3076 1.403 . S
C3079 C3080 1.524 . S
C3079 C3083 1.400 . S
C3080 H3065 0.960 . S
C3080 H3066 0.960 . S
C3080 H3067 0.960 . S
C3080 C3079 1.524 . S
C3081 C3078 1.403 . S
C3081 C3082 1.392 . S
C3081 C3085 1.495 . S
C3082 C3081 1.392 . S
C3082 C3083 1.385 . S
C3082 C3084 1.478 . S
C3083 H3077 0.930 . S
C3083 C3079 1.400 . S
C3083 C3082 1.385 . S
C3084 C3082 1.478 . S
C3084 C3086 1.381 . S
C3084 C3090 1.383 . S
C3085 C3081 1.495 . S
C3085 H3091 0.959 . S
C3085 H3092 0.961 . S
C3085 H3093 0.960 . S
C3086 C3084 1.381 . S
C3086 C3087 1.394 . S
C3086 H3094 0.930 . S
C3087 C3086 1.394 . S
C3087 C3088 1.383 . S
C3087 H3095 0.929 . S
C3088 C3087 1.383 . S
C3088 C3089 1.377 . S
C3089 H3073 0.930 . S
C3089 C3088 1.377 . S
C3089 C3090 1.379 . S
C3090 H3074 0.931 . S
C3090 C3084 1.383 . S
C3090 C3089 1.379 . S
H3091 C3085 0.959 . S
H3092 C3085 0.961 . S
H3093 C3085 0.960 . S
H3094 C3086 0.930 . S
H3095 C3087 0.929 . S
C513 C232 1.571 . S
C532 C3 1.530 . S
C549 C241 1.441 . S
C568 C22 1.452 . S
C585 C213 1.599 . S
C604 C31 1.600 . S
C621 C367 1.750 . S
C640 C45 1.751 . S
C657 C64 1.455 . S
C676 C339 1.419 . S
C693 C73 1.402 . S
C712 C358 1.412 . S
C729 C92 1.298 . S
C748 C484 1.297 . S
C765 C498 1.240 . S
C784 C106 1.240 . S
C801 C470 1.578 . S
C820 C120 1.562 . S
C837 C134 1.287 . S
C856 C288 1.281 . S
C873 C260 1.213 . S
C892 C148 1.213 . S
C909 C162 1.206 . S
C928 C274 1.207 . S
C945 C400 1.436 . S
C964 C171 1.396 . S
C981 C190 1.341 . S
C1000 C409 1.307 . S
C1017 C381 1.492 . S
C1036 C199 1.476 . S
C1053 C456 1.188 . S
C1072 C302 1.188 . S
C1089 C428 1.191 . S
C1108 C316 1.180 . S
C1125 C330 1.168 . S
C1144 C442 1.141 . S
C1161 C259 1.086 . S
C1180 C9 1.096 . S
C1197 C273 1.376 . S
C1216 C21 1.369 . S
C1233 C287 2.104 . S
C1252 C37 1.943 . S
C1269 C51 1.181 . S
C1288 C469 1.213 . S
C1305 C63 2.071 . S
C1324 C483 2.062 . S
C1341 C79 1.313 . S
C1360 C497 1.342 . S
C1377 C91 1.086 . S
C1396 C345 1.085 . S
C1413 C357 1.374 . S
C1432 C105 1.387 . S
C1449 C373 1.288 . S
C1468 C119 1.382 . S
C1485 C219 1.097 . S
C1504 C133 1.105 . S
C1521 C147 2.037 . S
C1540 C231 2.091 . S
C1557 C161 1.306 . S
C1576 C247 1.299 . S
C1593 C177 1.076 . S
C1612 C427 1.100 . S
C1629 C441 1.229 . S
C1648 C189 1.230 . S
C1665 C455 1.730 . S
C1684 C205 1.533 . S
C1701 C387 1.075 . S
C1720 C301 1.113 1_554 S
C1737 C315 1.719 1_554 S
C1756 C399 1.711 1_556 S
C1773 C329 1.647 1_554 S
C1792 C415 1.648 . S
C1809 C386 1.470 . S
C1828 C8 1.463 . S
C1845 C17 1.313 . S
C1864 C395 1.286 . S
C1881 C36 1.444 . S
C1900 C414 1.530 . S
C1917 C176 1.400 . S
C1936 C50 1.378 . S
C1953 C59 1.232 . S
C1972 C185 1.366 . S
C1989 C78 1.452 . S
C2008 C204 1.417 . S
C2025 C297 1.429 . S
C2044 C87 1.438 . S
C2061 C101 1.418 . S
C2080 C311 1.274 . S
C2097 C325 1.254 . S
C2116 C115 1.376 . S
C2133 C129 1.437 . S
C2152 C423 1.427 . S
C2169 C437 1.813 . S
C2188 C143 1.641 . S
C2205 C451 1.145 . S
C2224 C157 1.195 . S
C2241 C344 1.605 . S
C2260 C218 1.606 . S
C2277 C353 1.361 . S
C2296 C227 1.268 . S
C2313 C372 1.267 . S
C2332 C246 1.284 . S
C2349 C255 1.370 . S
C2368 C465 1.363 . S
C2385 C479 1.483 . S
C2404 C269 1.639 . S
C2421 C493 1.472 . S
C2440 C283 1.296 . S
C2457 C7 0.765 . S
C2476 C233 0.709 . S
C2493 C23 0.718 . S
C2512 C245 0.725 . S
C2529 C35 0.759 . S
C2548 C217 0.768 . S
C2565 C371 1.042 . S
C2584 C49 1.017 . S
C2601 C343 0.694 . S
C2620 C65 0.646 . S
C2637 C359 0.723 . S
C2656 C77 0.684 . S
C2673 C485 0.549 . S
C2692 C93 0.592 . S
C2709 C499 0.614 . S
C2728 C107 0.544 . S
C2745 C471 0.834 . S
C2764 C121 0.783 . S
C2781 C135 0.578 . S
C2800 C289 0.531 . S
C2817 C149 0.572 . S
C2836 C261 0.602 . S
C2853 C163 0.606 . S
C2872 C275 0.551 . S
C2889 C401 0.754 . S
C2908 C175 0.800 . S
C2925 C413 0.760 . S
C2944 C191 0.703 . S
C2961 C203 0.917 . S
C2980 C385 0.886 . S
C2997 C303 0.705 . S
C3016 C457 0.762 . S
C3033 C429 0.624 . S
C3052 C317 0.627 . S
C3069 C443 0.587 . S
C3088 C331 0.518 . S
