# Generated by pormake.
# Topology umy, (4)-cn, num edge types: 1
# Building blocks:
#     Node 0, Type 0, BuildingBlock: AZAVOO_clean_sbu_0, # of connection points: 4
#     Node 1, Type 0, BuildingBlock: AZAVOO_clean_sbu_0, # of connection points: 4
#     Node 2, Type 0, BuildingBlock: AZAVOO_clean_sbu_0, # of connection points: 4
#     Node 3, Type 0, BuildingBlock: AZAVOO_clean_sbu_0, # of connection points: 4
#     Node 4, Type 0, BuildingBlock: AZAVOO_clean_sbu_0, # of connection points: 4
#     Node 5, Type 0, BuildingBlock: AZAVOO_clean_sbu_0, # of connection points: 4
#     Node 6, Type 0, BuildingBlock: AZAVOO_clean_sbu_0, # of connection points: 4
#     Node 7, Type 0, BuildingBlock: AZAVOO_clean_sbu_0, # of connection points: 4
#     Node 8, Type 0, BuildingBlock: AZAVOO_clean_sbu_0, # of connection points: 4
#     Node 9, Type 0, BuildingBlock: AZAVOO_clean_sbu_0, # of connection points: 4
#     Node 10, Type 0, BuildingBlock: AZAVOO_clean_sbu_0, # of connection points: 4
#     Node 11, Type 0, BuildingBlock: AZAVOO_clean_sbu_0, # of connection points: 4
#     Edge 12, Type (0, 0), BuildingBlock: UVAHIK_clean_linker_0, # of connection points: 2
#     Edge 13, Type (0, 0), BuildingBlock: UVAHIK_clean_linker_0, # of connection points: 2
#     Edge 14, Type (0, 0), BuildingBlock: UVAHIK_clean_linker_0, # of connection points: 2
#     Edge 15, Type (0, 0), BuildingBlock: UVAHIK_clean_linker_0, # of connection points: 2
#     Edge 16, Type (0, 0), BuildingBlock: UVAHIK_clean_linker_0, # of connection points: 2
#     Edge 17, Type (0, 0), BuildingBlock: UVAHIK_clean_linker_0, # of connection points: 2
#     Edge 18, Type (0, 0), BuildingBlock: UVAHIK_clean_linker_0, # of connection points: 2
#     Edge 19, Type (0, 0), BuildingBlock: UVAHIK_clean_linker_0, # of connection points: 2
#     Edge 20, Type (0, 0), BuildingBlock: UVAHIK_clean_linker_0, # of connection points: 2
#     Edge 21, Type (0, 0), BuildingBlock: UVAHIK_clean_linker_0, # of connection points: 2
#     Edge 22, Type (0, 0), BuildingBlock: UVAHIK_clean_linker_0, # of connection points: 2
#     Edge 23, Type (0, 0), BuildingBlock: UVAHIK_clean_linker_0, # of connection points: 2
#     Edge 24, Type (0, 0), BuildingBlock: UVAHIK_clean_linker_0, # of connection points: 2
#     Edge 25, Type (0, 0), BuildingBlock: UVAHIK_clean_linker_0, # of connection points: 2
#     Edge 26, Type (0, 0), BuildingBlock: UVAHIK_clean_linker_0, # of connection points: 2
#     Edge 27, Type (0, 0), BuildingBlock: UVAHIK_clean_linker_0, # of connection points: 2
#     Edge 28, Type (0, 0), BuildingBlock: UVAHIK_clean_linker_0, # of connection points: 2
#     Edge 29, Type (0, 0), BuildingBlock: UVAHIK_clean_linker_0, # of connection points: 2
#     Edge 30, Type (0, 0), BuildingBlock: UVAHIK_clean_linker_0, # of connection points: 2
#     Edge 31, Type (0, 0), BuildingBlock: UVAHIK_clean_linker_0, # of connection points: 2
#     Edge 32, Type (0, 0), BuildingBlock: UVAHIK_clean_linker_0, # of connection points: 2
#     Edge 33, Type (0, 0), BuildingBlock: UVAHIK_clean_linker_0, # of connection points: 2
#     Edge 34, Type (0, 0), BuildingBlock: UVAHIK_clean_linker_0, # of connection points: 2
#     Edge 35, Type (0, 0), BuildingBlock: UVAHIK_clean_linker_0, # of connection points: 2
# Relax obj value: 0.138
# Max RMSD: 0.148
# Mean RMSD: 0.148
data_MOF--net-umy--node1-AZAVOO_clean_sbu_0--edge1-UVAHIK_clean_linker_0
_symmetry_space_group_name_H-M    P1
_symmetry_Int_Tables_number       1
_symmetry_cell_setting            triclinic
loop_
_symmetry_equiv_pos_as_xyz
'x, y, z'
_cell_length_a     52.164732
_cell_length_b     52.208532
_cell_length_c     58.393232
_cell_angle_alpha  89.988095
_cell_angle_beta   89.96214
_cell_angle_gamma 119.98965
loop_
_atom_site_label
_atom_site_type_symbol
_atom_site_fract_x
_atom_site_fract_y
_atom_site_fract_z
_atom_type_partial_charge
Mg0 Mg 0.11101 0.35894 0.0698 0.0
O1 O 0.13543 0.36579 0.10361 0.0
O2 O 0.1832 0.39954 0.10038 0.0
Mg3 Mg 0.189 0.41546 0.06307 0.0
C4 C 0.16116 0.38095 0.11226 0.0
C5 C 0.06581 0.3117 0.10206 0.0
O6 O 0.08683 0.30484 0.10111 0.0
O7 O 0.11117 0.40204 0.07575 0.0
O8 O 0.15917 0.43519 0.07109 0.0
O9 O 0.12341 0.32565 0.05899 0.0
O10 O 0.15038 0.37351 0.05176 0.0
C11 C 0.13253 0.42871 0.0753 0.0
C12 C 0.14743 0.34755 0.05073 0.0
O13 O 0.06821 0.33298 0.08988 0.0
Mg14 Mg 0.77003 0.12992 0.27285 0.0
O15 O 0.78678 0.15375 0.30703 0.0
O16 O 0.80524 0.20219 0.30199 0.0
Mg17 Mg 0.8007 0.20921 0.26375 0.0
C18 C 0.79878 0.18002 0.31489 0.0
C19 C 0.72076 0.06594 0.28795 0.0
O20 O 0.70541 0.0698 0.27186 0.0
O21 O 0.73 0.1361 0.27527 0.0
O22 O 0.74996 0.18443 0.26805 0.0
O23 O 0.81436 0.13605 0.26473 0.0
O24 O 0.79973 0.16766 0.25501 0.0
C25 C 0.72757 0.15901 0.27229 0.0
C26 C 0.82033 0.1609 0.25533 0.0
O27 O 0.74696 0.08644 0.29213 0.0
Mg28 Mg 0.60721 0.73183 0.40703 0.0
O29 O 0.59985 0.75073 0.44001 0.0
O30 O 0.57028 0.76939 0.43361 0.0
Mg31 Mg 0.55822 0.76176 0.39551 0.0
C32 C 0.58596 0.76354 0.44705 0.0
C33 C 0.62158 0.68414 0.42921 0.0
O34 O 0.60081 0.66493 0.41561 0.0
O35 O 0.56102 0.69175 0.41047 0.0
O36 O 0.53284 0.71173 0.40242 0.0
O37 O 0.64503 0.77613 0.39813 0.0
O38 O 0.59875 0.76024 0.38764 0.0
C39 C 0.5357 0.6895 0.40762 0.0
C40 C 0.62583 0.78138 0.38837 0.0
O41 O 0.62805 0.71105 0.4288 0.0
Mg42 Mg 0.86367 0.62777 0.57767 0.0
O43 O 0.84089 0.61929 0.6125 0.0
O44 O 0.79446 0.58189 0.61062 0.0
Mg45 Mg 0.78822 0.56515 0.57363 0.0
C46 C 0.816 0.60218 0.62188 0.0
C47 C 0.90911 0.67762 0.60888 0.0
O48 O 0.88678 0.68254 0.61003 0.0
O49 O 0.86924 0.58783 0.58282 0.0
O50 O 0.82255 0.55043 0.58041 0.0
O51 O 0.846 0.65712 0.56781 0.0
O52 O 0.82291 0.60898 0.56116 0.0
C53 C 0.85023 0.56029 0.5833 0.0
C54 C 0.82288 0.63361 0.56021 0.0
O55 O 0.90709 0.65714 0.59592 0.0
Mg56 Mg 0.21778 0.85695 0.76654 0.0
O57 O 0.2018 0.83287 0.80061 0.0
O58 O 0.18133 0.78424 0.79552 0.0
Mg59 Mg 0.18363 0.77738 0.75687 0.0
C60 C 0.18926 0.80662 0.80852 0.0
C61 C 0.27002 0.91882 0.78457 0.0
O62 O 0.28631 0.91487 0.76938 0.0
O63 O 0.2566 0.8487 0.76686 0.0
O64 O 0.23452 0.80031 0.75917 0.0
O65 O 0.17386 0.8528 0.76034 0.0
O66 O 0.1862 0.82 0.74893 0.0
C67 C 0.25777 0.82523 0.763 0.0
C68 C 0.16641 0.8278 0.7505 0.0
O69 O 0.24282 0.89958 0.78665 0.0
Mg70 Mg 0.37403 0.2409 0.91787 0.0
O71 O 0.38474 0.22707 0.95205 0.0
O72 O 0.41812 0.21285 0.94667 0.0
Mg73 Mg 0.42874 0.21756 0.90827 0.0
C74 C 0.40125 0.21748 0.95976 0.0
C75 C 0.35363 0.2859 0.93514 0.0
O76 O 0.37299 0.30405 0.92015 0.0
O77 O 0.4181 0.28415 0.91894 0.0
O78 O 0.44961 0.26795 0.91138 0.0
O79 O 0.33905 0.19433 0.9111 0.0
O80 O 0.38569 0.21358 0.90026 0.0
C81 C 0.4443 0.28895 0.91532 0.0
C82 C 0.35957 0.19083 0.90167 0.0
O83 O 0.35001 0.26012 0.9376 0.0
Mg84 Mg 0.60532 0.86168 0.73195 0.0
O85 O 0.59763 0.83751 0.69787 0.0
O86 O 0.57023 0.78885 0.70349 0.0
Mg87 Mg 0.56063 0.7821 0.74204 0.0
C88 C 0.58437 0.81108 0.69027 0.0
C89 C 0.61799 0.92551 0.71651 0.0
O90 O 0.60081 0.92306 0.73382 0.0
O91 O 0.55813 0.853 0.73146 0.0
O92 O 0.5323 0.80457 0.7391 0.0
O93 O 0.6454 0.85818 0.73795 0.0
O94 O 0.60053 0.82487 0.7496 0.0
C95 C 0.53362 0.8293 0.73515 0.0
C96 C 0.62817 0.83296 0.74763 0.0
O97 O 0.62274 0.90444 0.71203 0.0
Mg98 Mg 0.75413 0.63968 0.90679 0.0
O99 O 0.77181 0.6317 0.87339 0.0
O100 O 0.78982 0.60147 0.87907 0.0
Mg101 Mg 0.78285 0.58952 0.91727 0.0
C102 C 0.78398 0.6174 0.86591 0.0
C103 C 0.74889 0.6812 0.8722 0.0
O104 O 0.77726 0.68993 0.87118 0.0
O105 O 0.71345 0.59403 0.90378 0.0
O106 O 0.73248 0.56485 0.91116 0.0
O107 O 0.79881 0.67703 0.91569 0.0
O108 O 0.78244 0.63054 0.92563 0.0
C109 C 0.71053 0.56844 0.90645 0.0
C110 C 0.8037 0.65757 0.92541 0.0
O111 O 0.73252 0.66052 0.88594 0.0
Mg112 Mg 0.10803 0.74644 0.09629 0.0
O113 O 0.13225 0.76162 0.06214 0.0
O114 O 0.18002 0.77589 0.06618 0.0
Mg115 Mg 0.18649 0.77026 0.10435 0.0
C116 C 0.15805 0.77144 0.05375 0.0
C117 C 0.06217 0.74554 0.06359 0.0
O118 O 0.08357 0.77327 0.06335 0.0
O119 O 0.10941 0.70364 0.09345 0.0
O120 O 0.15726 0.71992 0.10036 0.0
O121 O 0.1186 0.79223 0.1048 0.0
O122 O 0.14745 0.77399 0.11372 0.0
C123 C 0.13098 0.69893 0.09634 0.0
C124 C 0.14314 0.79622 0.11349 0.0
O125 O 0.06472 0.72728 0.07645 0.0
Mg126 Mg 0.38109 0.1271 0.24703 0.0
O127 O 0.39001 0.14968 0.21202 0.0
O128 O 0.41909 0.19835 0.21667 0.0
Mg129 Mg 0.42892 0.20685 0.25504 0.0
C130 C 0.40434 0.17583 0.20387 0.0
C131 C 0.33388 0.06513 0.2339 0.0
O132 O 0.32102 0.07362 0.24904 0.0
O133 O 0.42743 0.13317 0.2473 0.0
O134 O 0.45479 0.18179 0.25375 0.0
O135 O 0.34259 0.13372 0.25205 0.0
O136 O 0.38795 0.16564 0.26338 0.0
C137 C 0.45241 0.15642 0.25076 0.0
C138 C 0.36069 0.15887 0.26134 0.0
O139 O 0.36104 0.08234 0.22923 0.0
Mg140 Mg 0.21389 0.34889 0.40054 0.0
O141 O 0.19859 0.35649 0.36593 0.0
O142 O 0.18024 0.38668 0.37009 0.0
Mg143 Mg 0.18284 0.39732 0.4085 0.0
C144 C 0.18714 0.37101 0.35754 0.0
C145 C 0.23855 0.30712 0.38877 0.0
O146 O 0.22402 0.29428 0.40763 0.0
O147 O 0.25375 0.39503 0.39932 0.0
O148 O 0.23382 0.42354 0.40609 0.0
O149 O 0.16916 0.31042 0.40765 0.0
O150 O 0.18342 0.35651 0.41751 0.0
C151 C 0.25628 0.42036 0.40251 0.0
C152 C 0.16287 0.32918 0.4169 0.0
O153 O 0.23885 0.33025 0.3817 0.0
Mg154 Mg 0.87584 0.24633 0.60303 0.0
O155 O 0.85251 0.23223 0.56848 0.0
O156 O 0.80559 0.22164 0.5708 0.0
Mg157 Mg 0.79971 0.23182 0.60798 0.0
C158 C 0.82738 0.22378 0.5593 0.0
C159 C 0.91979 0.24088 0.57141 0.0
O160 O 0.89735 0.21368 0.57188 0.0
O161 O 0.88061 0.29171 0.59847 0.0
O162 O 0.83338 0.28086 0.60103 0.0
O163 O 0.85867 0.19916 0.6121 0.0
O164 O 0.8352 0.22361 0.61985 0.0
C165 C 0.86088 0.29934 0.5981 0.0
C166 C 0.83534 0.19902 0.61988 0.0
O167 O 0.91876 0.26042 0.58375 0.0
C168 C 0.14903 0.66296 0.10018 0.0
C169 C 0.12564 0.66828 0.09564 0.0
C170 C 0.14433 0.63427 0.10024 0.0
C171 C 0.09643 0.55987 0.07793 0.0
H172 H 0.13732 0.53973 0.12372 0.0
C173 C 0.09782 0.44885 0.0788 0.0
C174 C 0.12664 0.45312 0.08005 0.0
C175 C 0.09281 0.47245 0.0828 0.0
C176 C 0.12568 0.545 0.11089 0.0
H177 H 0.07889 0.64741 0.08733 0.0
H178 H 0.07075 0.59695 0.08737 0.0
H179 H 0.13706 0.58614 0.12687 0.0
H180 H 0.17264 0.48531 0.08694 0.0
H181 H 0.16385 0.5261 0.09408 0.0
H182 H 0.08576 0.51887 0.06167 0.0
C183 C 0.09272 0.61522 0.09088 0.0
C184 C 0.12558 0.57156 0.11264 0.0
C185 C 0.09739 0.64409 0.09091 0.0
C186 C 0.15019 0.48125 0.08574 0.0
C187 C 0.14514 0.5046 0.09002 0.0
C188 C 0.09644 0.53313 0.07622 0.0
C189 C 0.11614 0.61006 0.09576 0.0
C190 C 0.11188 0.57978 0.09575 0.0
C191 C 0.11647 0.5005 0.08852 0.0
C192 C 0.11195 0.52599 0.09228 0.0
H193 H 0.17111 0.68097 0.1038 0.0
H194 H 0.16298 0.63108 0.10356 0.0
H195 H 0.08575 0.56566 0.06464 0.0
H196 H 0.07923 0.42743 0.07441 0.0
H197 H 0.0705 0.46876 0.08156 0.0
C198 C 0.67208 0.12805 0.27308 0.0
C199 C 0.69784 0.15607 0.27296 0.0
C200 C 0.6441 0.12552 0.27231 0.0
C201 C 0.60552 0.16737 0.28285 0.0
H202 H 0.54856 0.1142 0.23837 0.0
C203 C 0.50728 0.17973 0.25489 0.0
C204 C 0.47949 0.15405 0.25247 0.0
C205 C 0.53271 0.17777 0.25813 0.0
C206 C 0.56405 0.12884 0.2511 0.0
H207 H 0.71429 0.20337 0.27253 0.0
H208 H 0.66566 0.19889 0.27121 0.0
H209 H 0.59513 0.11442 0.24386 0.0
H210 H 0.45683 0.10611 0.25097 0.0
H211 H 0.50144 0.10274 0.25679 0.0
H212 H 0.57476 0.18206 0.28998 0.0
C213 C 0.66706 0.1789 0.272 0.0
C214 C 0.59069 0.12894 0.25425 0.0
C215 C 0.69496 0.18144 0.2726 0.0
C216 C 0.47788 0.12634 0.25277 0.0
C217 C 0.50343 0.12439 0.25605 0.0
C218 C 0.57895 0.16722 0.27975 0.0
C219 C 0.64135 0.15094 0.27164 0.0
C220 C 0.61192 0.14863 0.26985 0.0
C221 C 0.53105 0.1501 0.25911 0.0
C222 C 0.55817 0.1484 0.26352 0.0
H223 H 0.6735 0.10806 0.27335 0.0
H224 H 0.62463 0.10369 0.27223 0.0
H225 H 0.62123 0.18239 0.29531 0.0
H226 H 0.50945 0.20147 0.25453 0.0
H227 H 0.55374 0.19803 0.25989 0.0
C228 C 0.48082 0.65849 0.41124 0.0
C229 C 0.50859 0.6603 0.41 0.0
C230 C 0.45495 0.63113 0.41245 0.0
C231 C 0.4241 0.55368 0.39688 0.0
H232 H 0.36009 0.54263 0.43704 0.0
C233 C 0.31166 0.44406 0.40167 0.0
C234 C 0.28622 0.44683 0.40308 0.0
C235 C 0.33986 0.46896 0.40353 0.0
C236 C 0.37767 0.54545 0.42559 0.0
H237 H 0.53096 0.6347 0.40938 0.0
H238 H 0.48541 0.5866 0.41135 0.0
H239 H 0.40782 0.58801 0.43946 0.0
H240 H 0.27059 0.47813 0.4069 0.0
H241 H 0.31964 0.52143 0.40976 0.0
H242 H 0.39368 0.51138 0.38263 0.0
C243 C 0.48388 0.60654 0.41134 0.0
C244 C 0.40501 0.57138 0.42705 0.0
C245 C 0.5099 0.63405 0.41033 0.0
C246 C 0.28965 0.47511 0.4059 0.0
C247 C 0.3178 0.49995 0.40772 0.0
C248 C 0.39665 0.52773 0.39536 0.0
C249 C 0.45616 0.60487 0.41232 0.0
C250 C 0.42832 0.576 0.41242 0.0
C251 C 0.3432 0.49713 0.40682 0.0
C252 C 0.37298 0.52361 0.40942 0.0
H253 H 0.47896 0.67825 0.4111 0.0
H254 H 0.43389 0.63053 0.4129 0.0
H255 H 0.44163 0.5568 0.38526 0.0
H256 H 0.30983 0.42261 0.39954 0.0
H257 H 0.359 0.46606 0.4029 0.0
C258 C 0.8419 0.51179 0.59772 0.0
C259 C 0.86046 0.53889 0.58687 0.0
C260 C 0.85075 0.49075 0.60008 0.0
C261 C 0.88858 0.46073 0.57063 0.0
H262 H 0.88572 0.42182 0.62801 0.0
C263 C 0.89605 0.35332 0.60417 0.0
C264 C 0.86984 0.33062 0.59449 0.0
C265 C 0.90267 0.38277 0.60264 0.0
C266 C 0.88715 0.43285 0.61194 0.0
H267 H 0.90293 0.56552 0.57023 0.0
H268 H 0.91788 0.5279 0.57353 0.0
H269 H 0.88274 0.46726 0.62826 0.0
H270 H 0.8309 0.32078 0.57461 0.0
H271 H 0.84305 0.3723 0.57127 0.0
H272 H 0.89046 0.42495 0.55421 0.0
C273 C 0.89681 0.5234 0.58059 0.0
C274 C 0.88533 0.45864 0.61208 0.0
C275 C 0.88827 0.54481 0.57874 0.0
C276 C 0.85116 0.33789 0.58232 0.0
C277 C 0.85817 0.36729 0.58027 0.0
C278 C 0.88973 0.43457 0.57046 0.0
C279 C 0.87802 0.4962 0.59118 0.0
C280 C 0.88532 0.47233 0.5914 0.0
C281 C 0.88362 0.38985 0.59081 0.0
C282 C 0.88832 0.42011 0.59108 0.0
H283 H 0.82043 0.50676 0.60425 0.0
H284 H 0.83581 0.46976 0.60811 0.0
H285 H 0.88833 0.47084 0.55449 0.0
H286 H 0.91071 0.34818 0.61372 0.0
H287 H 0.92233 0.39992 0.61099 0.0
C288 C 0.47837 0.80428 0.73718 0.0
C289 C 0.50587 0.83053 0.73581 0.0
C290 C 0.45222 0.80527 0.7391 0.0
C291 C 0.42358 0.8528 0.75862 0.0
H292 H 0.35363 0.79772 0.72466 0.0
C293 C 0.31331 0.85462 0.76154 0.0
C294 C 0.287 0.82707 0.76164 0.0
C295 C 0.34067 0.85627 0.75834 0.0
C296 C 0.37287 0.81303 0.73447 0.0
H297 H 0.52736 0.87845 0.73498 0.0
H298 H 0.48151 0.88008 0.73836 0.0
H299 H 0.4002 0.79865 0.71812 0.0
H300 H 0.26901 0.7796 0.75941 0.0
H301 H 0.31661 0.78249 0.75429 0.0
H302 H 0.3961 0.86687 0.77524 0.0
C303 C 0.48034 0.85878 0.73809 0.0
C304 C 0.39956 0.81361 0.73065 0.0
C305 C 0.50655 0.85781 0.73601 0.0
C306 C 0.28877 0.80121 0.7592 0.0
C307 C 0.31607 0.80287 0.7561 0.0
C308 C 0.3968 0.85214 0.76252 0.0
C309 C 0.45294 0.83251 0.73979 0.0
C310 C 0.42512 0.83328 0.74284 0.0
C311 C 0.3423 0.83041 0.75524 0.0
C312 C 0.37107 0.832 0.75066 0.0
H313 H 0.47699 0.78288 0.73705 0.0
H314 H 0.43146 0.78466 0.74061 0.0
H315 H 0.44286 0.86799 0.76844 0.0
H316 H 0.31276 0.87498 0.76333 0.0
H317 H 0.36044 0.87785 0.75763 0.0
C318 C 0.46486 0.34408 0.91597 0.0
C319 C 0.46939 0.31972 0.91448 0.0
C320 C 0.48868 0.37294 0.91347 0.0
C321 C 0.54746 0.4315 0.92031 0.0
H322 H 0.60561 0.44343 0.87382 0.0
C323 C 0.65505 0.54414 0.90499 0.0
C324 C 0.68083 0.5419 0.9044 0.0
C325 C 0.62707 0.51868 0.90414 0.0
C326 C 0.58955 0.44044 0.88685 0.0
H327 H 0.50272 0.30676 0.91003 0.0
H328 H 0.54386 0.35669 0.90593 0.0
H329 H 0.56029 0.39574 0.87679 0.0
H330 H 0.69741 0.51125 0.9019 0.0
H331 H 0.64885 0.46714 0.90029 0.0
H332 H 0.57726 0.4762 0.93064 0.0
C333 C 0.52191 0.35357 0.90853 0.0
C334 C 0.56366 0.41315 0.8886 0.0
C335 C 0.49828 0.3249 0.91105 0.0
C336 C 0.67805 0.5138 0.90246 0.0
C337 C 0.65021 0.4885 0.90136 0.0
C338 C 0.57345 0.45894 0.91852 0.0
C339 C 0.51736 0.37788 0.90933 0.0
C340 C 0.54277 0.40809 0.90578 0.0
C341 C 0.62444 0.49063 0.90233 0.0
C342 C 0.59511 0.46333 0.9022 0.0
H343 H 0.44289 0.34087 0.91861 0.0
H344 H 0.48456 0.39131 0.91419 0.0
H345 H 0.53177 0.42819 0.93374 0.0
H346 H 0.65646 0.56548 0.90653 0.0
H347 H 0.60753 0.52091 0.90483 0.0
C348 C 0.16954 0.31558 0.04244 0.0
C349 C 0.17111 0.34318 0.04097 0.0
C350 C 0.19143 0.31127 0.03239 0.0
C351 C 0.24709 0.34005 0.98663 0.0
H352 H 0.27836 0.29586 0.01766 0.0
C353 C 0.33897 0.32319 0.94656 0.0
C354 C 0.33529 0.29473 0.94865 0.0
C355 C 0.32089 0.33096 0.95894 0.0
C356 C 0.26967 0.30804 0.00868 0.0
H357 H 0.19692 0.38796 0.02792 0.0
H358 H 0.23509 0.38043 0.01047 0.0
H359 H 0.24281 0.3056 0.03728 0.0
H360 H 0.3099 0.2522 0.96554 0.0
H361 H 0.27821 0.26554 0.98669 0.0
H362 H 0.27339 0.34198 0.95785 0.0
C363 C 0.21689 0.3621 0.01929 0.0
C364 C 0.24933 0.31362 0.01994 0.0
C365 C 0.19512 0.36645 0.02945 0.0
C366 C 0.31341 0.27435 0.96355 0.0
C367 C 0.29534 0.28207 0.97584 0.0
C368 C 0.26731 0.33434 0.97532 0.0
C369 C 0.21518 0.33443 0.02054 0.0
C370 C 0.23766 0.32949 0.00897 0.0
C371 C 0.29875 0.31041 0.97363 0.0
C372 C 0.27864 0.31803 0.98613 0.0
H373 H 0.15129 0.29721 0.05118 0.0
H374 H 0.18937 0.28961 0.03343 0.0
H375 H 0.23819 0.35203 0.97763 0.0
H376 H 0.35571 0.33944 0.9353 0.0
H377 H 0.32433 0.3531 0.95706 0.0
C378 C 0.87116 0.17206 0.24401 0.0
C379 C 0.84914 0.18006 0.24413 0.0
C380 C 0.89678 0.18801 0.23089 0.0
C381 C 0.94114 0.25796 0.19868 0.0
H382 H 0.96325 0.21021 0.16186 0.0
C383 C 0.01966 0.30499 0.12095 0.0
C384 C 0.0411 0.2964 0.11847 0.0
C385 C -0.00274 0.29145 0.13734 0.0
C386 C 0.95761 0.2239 0.17221 0.0
H387 H 0.83729 0.21181 0.23139 0.0
H388 H 0.88179 0.23945 0.20845 0.0
H389 H 0.92359 0.18641 0.18987 0.0
H390 H 0.05575 0.26675 0.13114 0.0
H391 H 0.01676 0.24323 0.1597 0.0
H392 H 0.97495 0.29542 0.1807 0.0
C393 C 0.87946 0.22105 0.21863 0.0
C394 C 0.93494 0.21027 0.18833 0.0
C395 C 0.85387 0.20513 0.23174 0.0
C396 C 0.03949 0.27379 0.13253 0.0
C397 C 0.01709 0.26024 0.14886 0.0
C398 C 0.96382 0.2716 0.18252 0.0
C399 C 0.90088 0.21226 0.21763 0.0
C400 C 0.92631 0.22712 0.20164 0.0
C401 C -0.00418 0.269 0.15153 0.0
C402 C 0.97215 0.25467 0.16901 0.0
H403 H 0.86823 0.15293 0.25348 0.0
H404 H 0.91313 0.18101 0.23079 0.0
H405 H 0.93524 0.27158 0.20887 0.0
H406 H 0.0203 0.32236 0.11038 0.0
H407 H 0.98093 0.29839 0.13878 0.0
C408 C 0.66248 0.83529 0.38363 0.0
C409 C 0.63421 0.81101 0.37945 0.0
C410 C 0.67032 0.8632 0.3749 0.0
C411 C 0.65165 0.89911 0.32904 0.0
H412 H 0.69452 0.96954 0.36626 0.0
C413 C 0.67976 0.01426 0.29573 0.0
C414 C 0.70854 0.03745 0.30026 0.0
C415 C 0.66898 0.98688 0.30656 0.0
C416 C 0.68276 0.9501 0.35559 0.0
H417 H 0.59204 0.79688 0.36279 0.0
H418 H 0.60571 0.84555 0.34768 0.0
H419 H 0.67948 0.92112 0.38282 0.0
H420 H 0.74836 0.05029 0.32007 0.0
H421 H 0.72979 0.00257 0.33858 0.0
H422 H 0.65536 0.92799 0.30168 0.0
C423 C 0.62183 0.843 0.35761 0.0
C424 C 0.67417 0.9224 0.36508 0.0
C425 C 0.61395 0.81518 0.36642 0.0
C426 C 0.72606 0.0329 0.31619 0.0
C427 C 0.71534 0.00557 0.32695 0.0
C428 C 0.66035 0.9268 0.31952 0.0
C429 C 0.65011 0.86728 0.36171 0.0
C430 C 0.65866 0.89665 0.35186 0.0
C431 C 0.68679 0.98214 0.32211 0.0
C432 C 0.67617 0.95263 0.33263 0.0
H433 H 0.67858 0.83275 0.39359 0.0
H434 H 0.6924 0.88146 0.37812 0.0
H435 H 0.64005 0.87966 0.31835 0.0
H436 H 0.66564 0.01711 0.28363 0.0
H437 H 0.64672 0.9694 0.30271 0.0
C438 C 0.65909 0.69578 0.45995 0.0
C439 C 0.63779 0.675 0.44494 0.0
C440 C 0.67506 0.68776 0.47452 0.0
C441 C 0.70017 0.63388 0.48064 0.0
H442 H 0.72105 0.66679 0.54186 0.0
C443 C 0.77411 0.60997 0.53996 0.0
C444 C 0.79738 0.63494 0.55058 0.0
C445 C 0.7512 0.61182 0.52917 0.0
C446 C 0.71547 0.65751 0.52478 0.0
H447 H 0.61621 0.6293 0.43375 0.0
H448 H 0.64419 0.61521 0.45939 0.0
H449 H 0.6867 0.67504 0.51899 0.0
H450 H 0.81443 0.68117 0.5588 0.0
H451 H 0.7745 0.68443 0.53988 0.0
H452 H 0.72937 0.61683 0.48628 0.0
C453 C 0.64863 0.63781 0.45967 0.0
C454 C 0.69582 0.66223 0.51168 0.0
C455 C 0.63255 0.64585 0.44506 0.0
C456 C 0.79681 0.66154 0.55078 0.0
C457 C 0.77383 0.66336 0.54005 0.0
C458 C 0.71978 0.6291 0.49377 0.0
C459 C 0.67015 0.65875 0.4745 0.0
C460 C 0.68842 0.65098 0.48929 0.0
C461 C 0.75102 0.63863 0.52883 0.0
C462 C 0.72807 0.64134 0.51581 0.0
H463 H 0.66372 0.71845 0.46034 0.0
H464 H 0.69181 0.70456 0.48543 0.0
H465 H 0.69519 0.6252 0.46337 0.0
H466 H 0.77391 0.58915 0.53947 0.0
H467 H 0.73376 0.59232 0.52088 0.0
C468 C 0.93691 0.71591 0.63885 0.0
C469 C 0.93499 0.69376 0.62407 0.0
C470 C 0.96044 0.72987 0.65423 0.0
C471 C 0.01637 0.71915 0.68424 0.0
H472 H 0.05744 0.80432 0.6917 0.0
C473 C 0.13032 0.78426 0.72752 0.0
C474 C 0.13671 0.80947 0.74042 0.0
C475 C 0.1036 0.76885 0.7157 0.0
C476 C 0.04588 0.78046 0.69014 0.0
H477 H 0.95651 0.66923 0.6136 0.0
H478 H -0.00237 0.69375 0.64034 0.0
H479 H 0.01534 0.78059 0.66573 0.0
H480 H 0.11956 0.83751 0.75193 0.0
H481 H 0.07263 0.81028 0.73153 0.0
H482 H 0.04699 0.71899 0.70851 0.0
C483 C 0.98075 0.70004 0.64021 0.0
C484 C 0.02183 0.7669 0.6752 0.0
C485 C 0.95731 0.68618 0.62477 0.0
C486 C 0.11532 0.81824 0.74203 0.0
C487 C 0.08853 0.80277 0.73023 0.0
C488 C 0.04034 0.73269 0.69924 0.0
C489 C 0.98244 0.72187 0.65522 0.0
C490 C 0.00708 0.73615 0.67186 0.0
C491 C 0.08263 0.77825 0.71656 0.0
C492 C 0.05562 0.76355 0.70214 0.0
H493 H 0.92003 0.7222 0.63878 0.0
H494 H 0.96107 0.74649 0.66569 0.0
H495 H 0.00507 0.69533 0.68233 0.0
H496 H 0.14638 0.77701 0.72581 0.0
H497 H 0.09994 0.75028 0.70512 0.0
C498 C 0.26483 0.94939 0.81512 0.0
C499 C 0.2827 0.94572 0.79894 0.0
C500 C 0.27612 0.97511 0.82819 0.0
C501 C 0.33415 0.05317 0.82742 0.0
H502 H 0.31039 0.05107 0.89068 0.0
C503 C 0.37532 0.15937 0.88057 0.0
C504 C 0.35351 0.16178 0.89295 0.0
C505 C 0.36914 0.13242 0.87094 0.0
C506 C 0.31709 0.05198 0.873 0.0
H507 H 0.32673 0.96593 0.7842 0.0
H508 H 0.34659 0.01095 0.80722 0.0
H509 H 0.29576 0.00485 0.87048 0.0
H510 H 0.30831 0.13767 0.90541 0.0
H511 H 0.29743 0.09056 0.88843 0.0
H512 H 0.3551 0.10025 0.82982 0.0
C513 C 0.32369 -0.00603 0.80955 0.0
C514 C 0.30874 0.02555 0.86143 0.0
C515 C 0.31235 0.96815 0.79644 0.0
C516 C 0.32559 0.1365 0.89598 0.0
C517 C 0.31942 0.10949 0.88638 0.0
C518 C 0.34257 0.07958 0.839 0.0
C519 C 0.3056 -0.00219 0.82544 0.0
C520 C 0.31678 0.02584 0.83839 0.0
C521 C 0.34102 0.10729 0.87349 0.0
C522 C 0.33377 0.07926 0.86181 0.0
H523 H 0.24188 0.93255 0.81753 0.0
H524 H 0.26146 0.97753 0.84 0.0
H525 H 0.34034 0.05416 0.80959 0.0
H526 H 0.39703 0.17844 0.87784 0.0
H527 H 0.38632 0.13132 0.86132 0.0
C528 C 0.75463 0.71779 0.84211 0.0
C529 C 0.73631 0.6951 0.85735 0.0
C530 C 0.74295 0.73118 0.82819 0.0
C531 C 0.67306 0.72083 0.80394 0.0
H532 H 0.71664 0.80637 0.79917 0.0
C533 C 0.62178 0.78881 0.7693 0.0
C534 C 0.63989 0.8143 0.75639 0.0
C535 C 0.63356 0.77269 0.77939 0.0
C536 C 0.70441 0.78244 0.79999 0.0
H537 H 0.69128 0.66842 0.86974 0.0
H538 H 0.67094 0.69206 0.84555 0.0
H539 H 0.73717 0.78135 0.82129 0.0
H540 H 0.68426 0.84219 0.74312 0.0
H541 H 0.70472 0.81383 0.76048 0.0
H542 H 0.64012 0.72201 0.78281 0.0
C543 C 0.69429 0.69926 0.84422 0.0
C544 C 0.71616 0.76811 0.81271 0.0
C545 C 0.70599 0.68587 0.85819 0.0
C546 C 0.66977 0.82275 0.7531 0.0
C547 C 0.68154 0.8066 0.76315 0.0
C548 C 0.6613 0.73518 0.79117 0.0
C549 C 0.71269 0.72217 0.82917 0.0
C550 C 0.70053 0.73717 0.81496 0.0
C551 C 0.66369 0.78171 0.77676 0.0
C552 C 0.67676 0.76617 0.78919 0.0
H553 H 0.77806 0.72529 0.84093 0.0
H554 H 0.75761 0.74852 0.81655 0.0
H555 H 0.6607 0.69693 0.8051 0.0
H556 H 0.5987 0.7818 0.77226 0.0
H557 H 0.61928 0.75381 0.78997 0.0
C558 C 0.85574 0.69545 0.93561 0.0
C559 C 0.8324 0.66605 0.93633 0.0
C560 C 0.88187 0.7039 0.94772 0.0
C561 C 0.9249 0.67461 0.97713 0.0
H562 H 0.95655 0.74745 0.01188 0.0
C563 C 0.01331 0.70631 0.04798 0.0
C564 C 0.03614 0.73598 0.04857 0.0
C565 C 0.989 0.69756 0.03346 0.0
C566 C 0.9482 0.72722 0.00208 0.0
H567 H 0.81843 0.62229 0.94989 0.0
H568 H 0.86382 0.63704 0.97107 0.0
H569 H 0.91395 0.73284 0.98709 0.0
H570 H 0.05148 0.77967 0.03426 0.0
H571 H 0.0093 0.76438 0.00897 0.0
H572 H 0.95905 0.66891 0.99239 0.0
C573 C 0.86215 0.65353 0.96094 0.0
C574 C 0.92383 0.71888 0.98782 0.0
C575 C 0.83606 0.64509 0.94883 0.0
C576 C 0.0342 0.75666 0.03434 0.0
C577 C 0.00995 0.74794 0.0199 0.0
C578 C 0.94928 0.68295 0.99144 0.0
C579 C 0.88517 0.68312 0.96082 0.0
C580 C 0.91185 0.69246 0.97521 0.0
C581 C 0.98705 0.71833 0.01931 0.0
C582 C 0.96116 0.70933 0.0041 0.0
H583 H 0.85363 0.71209 0.92605 0.0
H584 H 0.8994 0.72678 0.947 0.0
H585 H 0.91639 0.65429 0.96744 0.0
H586 H 0.01418 0.68985 0.05872 0.0
H587 H 0.97154 0.67463 0.03355 0.0
C588 C 0.32956 0.02387 0.20905 0.0
C589 C 0.31612 0.03712 0.22137 0.0
C590 C 0.31222 -0.0025 0.19704 0.0
C591 C 0.23427 0.93534 0.19239 0.0
H592 H 0.26087 0.92157 0.13404 0.0
C593 C 0.15659 0.84601 0.12883 0.0
C594 C 0.16506 0.82511 0.12324 0.0
C595 C 0.17631 0.87222 0.13999 0.0
C596 C 0.25332 0.92521 0.15036 0.0
H597 H 0.27413 0.03361 0.23037 0.0
H598 H 0.24418 0.98873 0.20885 0.0
H599 H 0.293 0.96659 0.15561 0.0
H600 H 0.20126 0.8159 0.12425 0.0
H601 H 0.23597 0.8622 0.1431 0.0
H602 H 0.19414 0.89447 0.18658 0.0
C603 C 0.26792 -0.00221 0.20904 0.0
C604 C 0.27174 0.95083 0.16282 0.0
C605 C 0.28516 0.02373 0.2213 0.0
C606 C 0.19402 0.83148 0.12827 0.0
C607 C 0.21394 0.85799 0.13901 0.0
C608 C 0.21572 0.91012 0.17974 0.0
C609 C 0.28114 0.98415 0.19686 0.0
C610 C 0.26234 0.95632 0.18394 0.0
C611 C 0.20502 0.87827 0.14534 0.0
C612 C 0.22502 0.90494 0.1586 0.0
H613 H 0.35342 0.03372 0.20886 0.0
H614 H 0.32319 0.98748 0.18811 0.0
H615 H 0.22653 0.93829 0.20885 0.0
H616 H 0.13442 0.84173 0.12525 0.0
H617 H 0.16905 0.88767 0.14466 0.0
C618 C 0.36879 0.20331 0.28348 0.0
C619 C 0.35008 0.17835 0.27029 0.0
C620 C 0.35763 0.21945 0.29448 0.0
C621 C 0.28755 0.20909 0.3173 0.0
H622 H 0.33135 0.2943 0.32464 0.0
C623 C 0.25251 0.26819 0.38267 0.0
C624 C 0.25323 0.29414 0.37528 0.0
C625 C 0.26529 0.25528 0.36937 0.0
C626 C 0.31877 0.27051 0.32261 0.0
H627 H 0.30545 0.15172 0.25719 0.0
H628 H 0.2861 0.18014 0.2761 0.0
H629 H 0.35145 0.27032 0.30049 0.0
H630 H 0.26835 0.32719 0.34832 0.0
H631 H 0.29037 0.30448 0.32506 0.0
H632 H 0.25471 0.20922 0.33914 0.0
C633 C 0.30924 0.18687 0.27834 0.0
C634 C 0.3304 0.25677 0.30895 0.0
C635 C 0.32037 0.17072 0.26739 0.0
C636 C 0.26744 0.3072 0.35452 0.0
C637 C 0.28021 0.29428 0.34123 0.0
C638 C 0.27596 0.2228 0.33096 0.0
C639 C 0.32755 0.21095 0.29247 0.0
C640 C 0.31491 0.2259 0.30618 0.0
C641 C 0.27904 0.26804 0.34841 0.0
C642 C 0.29149 0.25363 0.33384 0.0
H643 H 0.39178 0.20971 0.2861 0.0
H644 H 0.37226 0.23777 0.30537 0.0
H645 H 0.27527 0.18522 0.3158 0.0
H646 H 0.24186 0.25767 0.39863 0.0
H647 H 0.26443 0.2353 0.37553 0.0
C648 C 0.11213 0.28938 0.42847 0.0
C649 C 0.1339 0.31946 0.42788 0.0
C650 C 0.0865 0.27984 0.44158 0.0
C651 C 0.04208 0.30616 0.47314 0.0
H652 H 0.02044 0.23748 0.5113 0.0
C653 C 0.96644 0.27874 0.55213 0.0
C654 C 0.94435 0.24905 0.55507 0.0
C655 C 0.9884 0.28653 0.53551 0.0
C656 C 0.02598 0.25649 0.50058 0.0
H657 H 0.14526 0.36325 0.4398 0.0
H658 H 0.10087 0.34666 0.4627 0.0
H659 H 0.05947 0.25218 0.4828 0.0
H660 H 0.92828 0.20419 0.54313 0.0
H661 H 0.96665 0.21782 0.51422 0.0
H662 H 0.00895 0.31077 0.49129 0.0
C663 C 0.10333 0.33042 0.45289 0.0
C664 C 0.04826 0.26485 0.48417 0.0
C665 C 0.12889 0.33993 0.43979 0.0
C666 C 0.94502 0.22727 0.54135 0.0
C667 C 0.96705 0.23505 0.52482 0.0
C668 C 0.01987 0.29785 0.4896 0.0
C669 C 0.08215 0.3002 0.45437 0.0
C670 C 0.05678 0.28996 0.47041 0.0
C671 C 0.98881 0.26478 0.52157 0.0
C672 C 0.01179 0.2731 0.50365 0.0
H673 H 0.1153 0.27307 0.41941 0.0
H674 H 0.07035 0.25645 0.44208 0.0
H675 H 0.04783 0.32536 0.46259 0.0
H676 H 0.96653 0.29605 0.56242 0.0
H677 H 0.00515 0.30959 0.53362 0.0
C678 C 0.78613 0.17225 0.63937 0.0
C679 C 0.80905 0.17135 0.62738 0.0
C680 C 0.76162 0.14617 0.64709 0.0
C681 C 0.71979 0.06581 0.63797 0.0
H682 H 0.69785 0.06187 0.70189 0.0
C683 C 0.65343 0.95594 0.68573 0.0
C684 C 0.63398 0.95341 0.70339 0.0
C685 C 0.67072 0.98285 0.6746 0.0
C686 C 0.7032 0.06271 0.68388 0.0
H687 H 0.82405 0.14246 0.61372 0.0
H688 H 0.78111 0.09687 0.62712 0.0
H689 H 0.73608 0.10858 0.68582 0.0
H690 H 0.61642 0.97687 0.72249 0.0
H691 H 0.64641 0.02395 0.70272 0.0
H692 H 0.68714 0.01994 0.63599 0.0
C693 C 0.78209 0.11775 0.63046 0.0
C694 C 0.72519 0.08947 0.67471 0.0
C695 C 0.80676 0.14385 0.62294 0.0
C696 C 0.63134 0.97815 0.70905 0.0
C697 C 0.64864 0.00516 0.69781 0.0
C698 C 0.69762 0.03912 0.64706 0.0
C699 C 0.75941 0.11869 0.64277 0.0
C700 C 0.73414 0.09109 0.65181 0.0
C701 C 0.6689 0.00791 0.68072 0.0
C702 C 0.68956 0.03707 0.67028 0.0
H703 H 0.78732 0.19313 0.64311 0.0
H704 H 0.74437 0.14749 0.65644 0.0
H705 H 0.72594 0.0666 0.62015 0.0
H706 H 0.65601 0.93733 0.68088 0.0
H707 H 0.68637 0.9842 0.66178 0.0
C708 C 0.19156 0.35426 0.31822 0.0
C709 C 0.18299 0.37052 0.33236 0.0
C710 C 0.18908 0.3548 0.29443 0.0
C711 C 0.19901 0.37494 0.24482 0.0
H712 H 0.12963 0.37095 0.21704 0.0
C713 C 0.19193 0.39612 0.14816 0.0
C714 C 0.16479 0.37792 0.13714 0.0
C715 C 0.19447 0.3946 0.17192 0.0
C716 C 0.14907 0.37187 0.22452 0.0
H717 H 0.16467 0.3998 0.33242 0.0
H718 H 0.16044 0.40078 0.29086 0.0
H719 H 0.13274 0.36906 0.25861 0.0
H720 H 0.11925 0.34317 0.14253 0.0
H721 H 0.12385 0.34039 0.18373 0.0
H722 H 0.21515 0.37732 0.2107 0.0
C723 C 0.1689 0.38745 0.29826 0.0
C724 C 0.15099 0.37113 0.24836 0.0
C725 C 0.17143 0.38696 0.32209 0.0
C726 C 0.14049 0.35768 0.15039 0.0
C727 C 0.14303 0.3562 0.17408 0.0
C728 C 0.19713 0.37577 0.22097 0.0
C729 C 0.17792 0.37155 0.28415 0.0
C730 C 0.17595 0.37258 0.25879 0.0
C731 C 0.16992 0.37489 0.18518 0.0
C732 C 0.17209 0.37415 0.21054 0.0
H733 H 0.20048 0.34125 0.32548 0.0
H734 H 0.19578 0.34193 0.28409 0.0
H735 H 0.2187 0.37644 0.25232 0.0
H736 H 0.21108 0.412 0.13853 0.0
H737 H 0.21545 0.40945 0.17998 0.0
C738 C 0.84817 0.22041 0.52145 0.0
C739 C 0.82404 0.21739 0.5344 0.0
C740 C 0.84569 0.21583 0.49781 0.0
C741 C 0.79138 0.18053 0.45127 0.0
H742 H 0.85626 0.23543 0.41263 0.0
C743 C 0.81625 0.213 0.34954 0.0
C744 C 0.8039 0.18456 0.33993 0.0
C745 C 0.81942 0.21692 0.37327 0.0
C746 C 0.83789 0.22001 0.42317 0.0
H747 H 0.77819 0.2067 0.53255 0.0
H748 H 0.77393 0.19881 0.49121 0.0
H749 H 0.85969 0.24225 0.45407 0.0
H750 H 0.78578 0.138 0.34786 0.0
H751 H 0.79156 0.14494 0.38913 0.0
H752 H 0.76937 0.15858 0.42035 0.0
C753 C 0.79471 0.20453 0.49946 0.0
C754 C 0.83998 0.22373 0.44693 0.0
C755 C 0.7972 0.20917 0.52314 0.0
C756 C 0.7953 0.16023 0.35462 0.0
C757 C 0.79841 0.16415 0.37832 0.0
C758 C 0.78933 0.17676 0.42752 0.0
C759 C 0.81902 0.20806 0.4865 0.0
C760 C 0.81675 0.20403 0.46125 0.0
C761 C 0.81025 0.19249 0.38794 0.0
C762 C 0.81256 0.19646 0.41319 0.0
H763 H 0.86918 0.22659 0.52951 0.0
H764 H 0.86468 0.21826 0.48839 0.0
H765 H 0.77321 0.16484 0.46184 0.0
H766 H 0.82308 0.23224 0.33877 0.0
H767 H 0.82841 0.23902 0.38016 0.0
C768 C 0.56887 0.7778 0.65582 0.0
C769 C 0.58509 0.80629 0.66529 0.0
C770 C 0.56914 0.77355 0.63219 0.0
C771 C 0.58499 0.81347 0.57692 0.0
H772 H 0.58823 0.74556 0.55378 0.0
C773 C 0.60553 0.76564 0.48661 0.0
C774 C 0.58722 0.7706 0.47177 0.0
C775 C 0.60566 0.7707 0.5101 0.0
C776 C 0.58758 0.76479 0.55994 0.0
H777 H 0.6146 0.85263 0.65725 0.0
H778 H 0.61538 0.8451 0.61623 0.0
H779 H 0.58815 0.75297 0.59494 0.0
H780 H 0.55497 0.78524 0.47006 0.0
H781 H 0.55496 0.79375 0.51112 0.0
H782 H 0.58511 0.82565 0.54189 0.0
C783 C 0.60203 0.8261 0.62699 0.0
C784 C 0.58714 0.76882 0.58356 0.0
C785 C 0.60172 0.83037 0.65058 0.0
C786 C 0.56942 0.78126 0.48097 0.0
C787 C 0.56949 0.78626 0.50451 0.0
C788 C 0.58546 0.80946 0.55328 0.0
C789 C 0.58567 0.79767 0.61749 0.0
C790 C 0.58588 0.79324 0.59234 0.0
C791 C 0.58742 0.78078 0.51938 0.0
C792 C 0.58682 0.78509 0.54451 0.0
H793 H 0.55572 0.75876 0.6666 0.0
H794 H 0.556 0.75139 0.62541 0.0
H795 H 0.58366 0.83234 0.58309 0.0
H796 H 0.61969 0.7576 0.48015 0.0
H797 H 0.62014 0.76677 0.52099 0.0
C798 C 0.78571 0.58693 0.65803 0.0
C799 C 0.81263 0.60538 0.64678 0.0
C800 C 0.78312 0.58921 0.68169 0.0
C801 C 0.77959 0.61035 0.72962 0.0
H802 H 0.84361 0.6194 0.76883 0.0
C803 C 0.78218 0.63448 0.82611 0.0
C804 C 0.78994 0.61824 0.84099 0.0
C805 C 0.78588 0.63383 0.80248 0.0
C806 C 0.82549 0.61673 0.75812 0.0
H807 H 0.85785 0.64105 0.65168 0.0
H808 H 0.85318 0.64505 0.6928 0.0
H809 H 0.84755 0.61597 0.72741 0.0
H810 H 0.80839 0.58911 0.84256 0.0
H811 H 0.81479 0.58796 0.80124 0.0
H812 H 0.75733 0.61064 0.76033 0.0
C813 C 0.83419 0.62859 0.68336 0.0
C814 C 0.82787 0.61507 0.73438 0.0
C815 C 0.83677 0.6264 0.65973 0.0
C816 C 0.80218 0.6019 0.83164 0.0
C817 C 0.80596 0.60132 0.80795 0.0
C818 C 0.77727 0.61213 0.75334 0.0
C819 C 0.8074 0.6099 0.69464 0.0
C820 C 0.80493 0.61183 0.71986 0.0
C821 C 0.79751 0.61699 0.79309 0.0
C822 C 0.80018 0.61532 0.76787 0.0
H823 H 0.76669 0.57047 0.64863 0.0
H824 H 0.76225 0.57431 0.68991 0.0
H825 H 0.76164 0.6081 0.7189 0.0
H826 H 0.7728 0.64744 0.83266 0.0
H827 H 0.7796 0.64653 0.79152 0.0
C828 C 0.19356 0.82692 0.8481 0.0
C829 C 0.18487 0.80238 0.83364 0.0
C830 C 0.19067 0.82337 0.87183 0.0
C831 C 0.15123 0.76817 0.91715 0.0
H832 H 0.21455 0.82552 0.95563 0.0
C833 C 0.1894 0.7849 0.01819 0.0
C834 C 0.16204 0.7765 0.02869 0.0
C835 C 0.19251 0.78815 0.9944 0.0
C836 C 0.19677 0.80919 0.94514 0.0
H837 H 0.16598 0.75474 0.83294 0.0
H838 H 0.16109 0.74859 0.87444 0.0
H839 H 0.21927 0.83024 0.9141 0.0
H840 H 0.11663 0.76552 0.02229 0.0
H841 H 0.12223 0.77156 0.981 0.0
H842 H 0.12894 0.74685 0.94819 0.0
C843 C 0.16992 0.77057 0.86732 0.0
C844 C 0.19932 0.81207 0.92133 0.0
C845 C 0.17283 0.77411 0.84353 0.0
C846 C 0.13803 0.77188 0.01484 0.0
C847 C 0.14115 0.77513 0.99111 0.0
C848 C 0.14866 0.7653 0.94096 0.0
C849 C 0.17902 0.7952 0.88174 0.0
C850 C 0.17652 0.79168 0.90705 0.0
C851 C 0.16834 0.78307 0.98057 0.0
C852 C 0.17135 0.78586 0.95524 0.0
H853 H 0.20281 0.84903 0.84114 0.0
H854 H 0.1974 0.84274 0.88241 0.0
H855 H 0.13317 0.75221 0.90666 0.0
H856 H 0.20834 0.78855 0.0283 0.0
H857 H 0.2137 0.79405 0.9868 0.0
C858 C 0.3876 0.15573 0.16425 0.0
C859 C 0.40401 0.18007 0.17876 0.0
C860 C 0.38744 0.15963 0.14058 0.0
C861 C 0.40174 0.21615 0.09662 0.0
H862 H 0.40519 0.15963 0.05549 0.0
C863 C 0.41995 0.20289 0.99421 0.0
C864 C 0.40116 0.21219 0.98474 0.0
C865 C 0.42031 0.19869 0.01784 0.0
C866 C 0.40443 0.17574 0.06673 0.0
H867 H 0.43322 0.22766 0.17961 0.0
H868 H 0.43313 0.23438 0.13833 0.0
H869 H 0.40651 0.15334 0.09678 0.0
H870 H 0.36772 0.22399 0.99281 0.0
H871 H 0.36816 0.21634 0.03386 0.0
H872 H 0.40023 0.23886 0.06661 0.0
C873 C 0.42007 0.2123 0.14531 0.0
C874 C 0.40484 0.17194 0.09041 0.0
C875 C 0.42023 0.20841 0.16899 0.0
C876 C 0.38258 0.21693 0.99947 0.0
C877 C 0.38295 0.21273 0.02306 0.0
C878 C 0.40131 0.21993 0.07296 0.0
C879 C 0.40369 0.18796 0.13082 0.0
C880 C 0.40346 0.19209 0.10564 0.0
C881 C 0.40192 0.20371 0.03256 0.0
C882 C 0.40259 0.19974 0.05773 0.0
H883 H 0.37476 0.13358 0.17114 0.0
H884 H 0.37425 0.14046 0.12995 0.0
H885 H 0.40035 0.23191 0.10786 0.0
H886 H 0.43462 0.1991 0.98342 0.0
H887 H 0.43542 0.19203 0.02463 0.0
loop_
_geom_bond_atom_site_label_1
_geom_bond_atom_site_label_2
_geom_bond_distance
_geom_bond_site_symmetry_2
_ccdc_geom_bond_type
Mg0 O1 2.028 . S
Mg0 O7 1.986 . S
Mg0 O9 2.114 . S
Mg0 O10 2.251 . S
Mg0 O13 2.010 . S
O1 Mg0 2.028 . S
O1 C4 1.250 . S
O2 Mg3 2.028 . S
O2 C4 1.248 . S
Mg3 O2 2.028 . S
Mg3 O8 2.032 . S
Mg3 O10 2.079 . S
C4 O1 1.250 . S
C4 O2 1.248 . S
C5 O6 1.264 1_455 S
C5 O13 1.249 . S
O6 C5 1.264 1_655 S
O7 Mg0 1.986 . S
O7 C11 1.246 . S
O8 Mg3 2.032 . S
O8 C11 1.259 . S
O9 Mg0 2.114 . S
O9 C12 1.252 . S
O10 Mg0 2.251 . S
O10 Mg3 2.079 . S
O10 C12 1.273 . S
C11 O7 1.246 . S
C11 O8 1.259 . S
C12 O9 1.252 . S
C12 O10 1.273 . S
O13 Mg0 2.010 . S
O13 C5 1.249 . S
Mg14 O15 2.028 . S
Mg14 O21 1.986 . S
Mg14 O23 2.114 . S
Mg14 O24 2.251 . S
Mg14 O27 2.010 . S
O15 Mg14 2.028 . S
O15 C18 1.250 . S
O16 Mg17 2.028 . S
O16 C18 1.248 . S
Mg17 O16 2.028 . S
Mg17 O22 2.032 . S
Mg17 O24 2.079 . S
C18 O15 1.250 . S
C18 O16 1.248 . S
C19 O20 1.264 1_545 S
C19 O27 1.249 . S
O20 C19 1.264 1_565 S
O21 Mg14 1.986 . S
O21 C25 1.246 . S
O22 Mg17 2.032 . S
O22 C25 1.259 . S
O23 Mg14 2.114 . S
O23 C26 1.252 . S
O24 Mg14 2.251 . S
O24 Mg17 2.079 . S
O24 C26 1.273 . S
C25 O21 1.246 . S
C25 O22 1.259 . S
C26 O23 1.252 . S
C26 O24 1.273 . S
O27 Mg14 2.010 . S
O27 C19 1.249 . S
Mg28 O29 2.028 . S
Mg28 O35 1.986 . S
Mg28 O37 2.114 . S
Mg28 O38 2.251 . S
Mg28 O41 2.010 . S
O29 Mg28 2.028 . S
O29 C32 1.250 . S
O30 Mg31 2.028 . S
O30 C32 1.248 . S
Mg31 O30 2.028 . S
Mg31 O36 2.032 . S
Mg31 O38 2.079 . S
C32 O29 1.250 . S
C32 O30 1.248 . S
C33 O34 1.264 . S
C33 O41 1.249 . S
O34 C33 1.264 . S
O35 Mg28 1.986 . S
O35 C39 1.246 . S
O36 Mg31 2.032 . S
O36 C39 1.259 . S
O37 Mg28 2.114 . S
O37 C40 1.252 . S
O38 Mg28 2.251 . S
O38 Mg31 2.079 . S
O38 C40 1.273 . S
C39 O35 1.246 . S
C39 O36 1.259 . S
C40 O37 1.252 . S
C40 O38 1.273 . S
O41 Mg28 2.010 . S
O41 C33 1.249 . S
Mg42 O43 2.028 . S
Mg42 O49 1.986 . S
Mg42 O51 2.114 . S
Mg42 O52 2.251 . S
Mg42 O55 2.010 . S
O43 Mg42 2.028 . S
O43 C46 1.250 . S
O44 Mg45 2.028 . S
O44 C46 1.248 . S
Mg45 O44 2.028 . S
Mg45 O50 2.032 . S
Mg45 O52 2.079 . S
C46 O43 1.250 . S
C46 O44 1.248 . S
C47 O48 1.264 1_655 S
C47 O55 1.249 . S
O48 C47 1.264 1_455 S
O49 Mg42 1.986 . S
O49 C53 1.246 . S
O50 Mg45 2.032 . S
O50 C53 1.259 . S
O51 Mg42 2.114 . S
O51 C54 1.252 . S
O52 Mg42 2.251 . S
O52 Mg45 2.079 . S
O52 C54 1.273 . S
C53 O49 1.246 . S
C53 O50 1.259 . S
C54 O51 1.252 . S
C54 O52 1.273 . S
O55 Mg42 2.010 . S
O55 C47 1.249 . S
Mg56 O57 2.028 . S
Mg56 O63 1.986 . S
Mg56 O65 2.114 . S
Mg56 O66 2.251 . S
Mg56 O69 2.010 . S
O57 Mg56 2.028 . S
O57 C60 1.250 . S
O58 Mg59 2.028 . S
O58 C60 1.248 . S
Mg59 O58 2.028 . S
Mg59 O64 2.032 . S
Mg59 O66 2.079 . S
C60 O57 1.250 . S
C60 O58 1.248 . S
C61 O62 1.264 1_565 S
C61 O69 1.249 . S
O62 C61 1.264 1_545 S
O63 Mg56 1.986 . S
O63 C67 1.246 . S
O64 Mg59 2.032 . S
O64 C67 1.259 . S
O65 Mg56 2.114 . S
O65 C68 1.252 . S
O66 Mg56 2.251 . S
O66 Mg59 2.079 . S
O66 C68 1.273 . S
C67 O63 1.246 . S
C67 O64 1.259 . S
C68 O65 1.252 . S
C68 O66 1.273 . S
O69 Mg56 2.010 . S
O69 C61 1.249 . S
Mg70 O71 2.028 . S
Mg70 O77 1.986 . S
Mg70 O79 2.114 . S
Mg70 O80 2.251 . S
Mg70 O83 2.010 . S
O71 Mg70 2.028 . S
O71 C74 1.250 . S
O72 Mg73 2.028 . S
O72 C74 1.248 . S
Mg73 O72 2.028 . S
Mg73 O78 2.032 . S
Mg73 O80 2.079 . S
C74 O71 1.250 . S
C74 O72 1.248 . S
C75 O76 1.264 . S
C75 O83 1.249 . S
O76 C75 1.264 . S
O77 Mg70 1.986 . S
O77 C81 1.246 . S
O78 Mg73 2.032 . S
O78 C81 1.259 . S
O79 Mg70 2.114 . S
O79 C82 1.252 . S
O80 Mg70 2.251 . S
O80 Mg73 2.079 . S
O80 C82 1.273 . S
C81 O77 1.246 . S
C81 O78 1.259 . S
C82 O79 1.252 . S
C82 O80 1.273 . S
O83 Mg70 2.010 . S
O83 C75 1.249 . S
Mg84 O85 2.028 . S
Mg84 O91 1.986 . S
Mg84 O93 2.114 . S
Mg84 O94 2.251 . S
Mg84 O97 2.010 . S
O85 Mg84 2.028 . S
O85 C88 1.250 . S
O86 Mg87 2.028 . S
O86 C88 1.248 . S
Mg87 O86 2.028 . S
Mg87 O92 2.032 . S
Mg87 O94 2.079 . S
C88 O85 1.250 . S
C88 O86 1.248 . S
C89 O90 1.264 1_565 S
C89 O97 1.249 . S
O90 C89 1.264 1_545 S
O91 Mg84 1.986 . S
O91 C95 1.246 . S
O92 Mg87 2.032 . S
O92 C95 1.259 . S
O93 Mg84 2.114 . S
O93 C96 1.252 . S
O94 Mg84 2.251 . S
O94 Mg87 2.079 . S
O94 C96 1.273 . S
C95 O91 1.246 . S
C95 O92 1.259 . S
C96 O93 1.252 . S
C96 O94 1.273 . S
O97 Mg84 2.010 . S
O97 C89 1.249 . S
Mg98 O99 2.028 . S
Mg98 O105 1.986 . S
Mg98 O107 2.114 . S
Mg98 O108 2.251 . S
Mg98 O111 2.010 . S
O99 Mg98 2.028 . S
O99 C102 1.250 . S
O100 Mg101 2.028 . S
O100 C102 1.248 . S
Mg101 O100 2.028 . S
Mg101 O106 2.032 . S
Mg101 O108 2.079 . S
C102 O99 1.250 . S
C102 O100 1.248 . S
C103 O104 1.264 . S
C103 O111 1.249 . S
O104 C103 1.264 . S
O105 Mg98 1.986 . S
O105 C109 1.246 . S
O106 Mg101 2.032 . S
O106 C109 1.259 . S
O107 Mg98 2.114 . S
O107 C110 1.252 . S
O108 Mg98 2.251 . S
O108 Mg101 2.079 . S
O108 C110 1.273 . S
C109 O105 1.246 . S
C109 O106 1.259 . S
C110 O107 1.252 . S
C110 O108 1.273 . S
O111 Mg98 2.010 . S
O111 C103 1.249 . S
Mg112 O113 2.028 . S
Mg112 O119 1.986 . S
Mg112 O121 2.114 . S
Mg112 O122 2.251 . S
Mg112 O125 2.010 . S
O113 Mg112 2.028 . S
O113 C116 1.250 . S
O114 Mg115 2.028 . S
O114 C116 1.248 . S
Mg115 O114 2.028 . S
Mg115 O120 2.032 . S
Mg115 O122 2.079 . S
C116 O113 1.250 . S
C116 O114 1.248 . S
C117 O118 1.264 1_455 S
C117 O125 1.249 . S
O118 C117 1.264 1_655 S
O119 Mg112 1.986 . S
O119 C123 1.246 . S
O120 Mg115 2.032 . S
O120 C123 1.259 . S
O121 Mg112 2.114 . S
O121 C124 1.252 . S
O122 Mg112 2.251 . S
O122 Mg115 2.079 . S
O122 C124 1.273 . S
C123 O119 1.246 . S
C123 O120 1.259 . S
C124 O121 1.252 . S
C124 O122 1.273 . S
O125 Mg112 2.010 . S
O125 C117 1.249 . S
Mg126 O127 2.028 . S
Mg126 O133 1.986 . S
Mg126 O135 2.114 . S
Mg126 O136 2.251 . S
Mg126 O139 2.010 . S
O127 Mg126 2.028 . S
O127 C130 1.250 . S
O128 Mg129 2.028 . S
O128 C130 1.248 . S
Mg129 O128 2.028 . S
Mg129 O134 2.032 . S
Mg129 O136 2.079 . S
C130 O127 1.250 . S
C130 O128 1.248 . S
C131 O132 1.264 1_545 S
C131 O139 1.249 . S
O132 C131 1.264 1_565 S
O133 Mg126 1.986 . S
O133 C137 1.246 . S
O134 Mg129 2.032 . S
O134 C137 1.259 . S
O135 Mg126 2.114 . S
O135 C138 1.252 . S
O136 Mg126 2.251 . S
O136 Mg129 2.079 . S
O136 C138 1.273 . S
C137 O133 1.246 . S
C137 O134 1.259 . S
C138 O135 1.252 . S
C138 O136 1.273 . S
O139 Mg126 2.010 . S
O139 C131 1.249 . S
Mg140 O141 2.028 . S
Mg140 O147 1.986 . S
Mg140 O149 2.114 . S
Mg140 O150 2.251 . S
Mg140 O153 2.010 . S
O141 Mg140 2.028 . S
O141 C144 1.250 . S
O142 Mg143 2.028 . S
O142 C144 1.248 . S
Mg143 O142 2.028 . S
Mg143 O148 2.032 . S
Mg143 O150 2.079 . S
C144 O141 1.250 . S
C144 O142 1.248 . S
C145 O146 1.264 . S
C145 O153 1.249 . S
O146 C145 1.264 . S
O147 Mg140 1.986 . S
O147 C151 1.246 . S
O148 Mg143 2.032 . S
O148 C151 1.259 . S
O149 Mg140 2.114 . S
O149 C152 1.252 . S
O150 Mg140 2.251 . S
O150 Mg143 2.079 . S
O150 C152 1.273 . S
C151 O147 1.246 . S
C151 O148 1.259 . S
C152 O149 1.252 . S
C152 O150 1.273 . S
O153 Mg140 2.010 . S
O153 C145 1.249 . S
Mg154 O155 2.028 . S
Mg154 O161 1.986 . S
Mg154 O163 2.114 . S
Mg154 O164 2.251 . S
Mg154 O167 2.010 . S
O155 Mg154 2.028 . S
O155 C158 1.250 . S
O156 Mg157 2.028 . S
O156 C158 1.248 . S
Mg157 O156 2.028 . S
Mg157 O162 2.032 . S
Mg157 O164 2.079 . S
C158 O155 1.250 . S
C158 O156 1.248 . S
C159 O160 1.264 1_655 S
C159 O167 1.249 . S
O160 C159 1.264 1_455 S
O161 Mg154 1.986 . S
O161 C165 1.246 . S
O162 Mg157 2.032 . S
O162 C165 1.259 . S
O163 Mg154 2.114 . S
O163 C166 1.252 . S
O164 Mg154 2.251 . S
O164 Mg157 2.079 . S
O164 C166 1.273 . S
C165 O161 1.246 . S
C165 O162 1.259 . S
C166 O163 1.252 . S
C166 O164 1.273 . S
O167 Mg154 2.010 . S
O167 C159 1.249 . S
C168 C169 1.349 . S
C168 C170 1.327 . S
C168 H193 0.950 . S
C169 C168 1.349 . S
C169 C185 1.349 . S
C170 C168 1.327 . S
C170 C189 1.429 . S
C170 H194 0.950 . S
C171 C188 1.574 . S
C171 C190 1.368 . S
C171 H195 0.949 . S
H172 C176 0.949 . S
C173 C174 1.349 . S
C173 C175 1.327 . S
C173 H196 0.950 . S
C174 C173 1.349 . S
C174 C186 1.349 . S
C175 C173 1.327 . S
C175 C191 1.429 . S
C175 H197 0.950 . S
C176 H172 0.949 . S
C176 C184 1.574 . S
C176 C192 1.368 . S
H177 C185 0.950 . S
H178 C183 0.950 . S
H179 C184 0.949 . S
H180 C186 0.950 . S
H181 C187 0.950 . S
H182 C188 0.949 . S
C183 H178 0.950 . S
C183 C185 1.327 . S
C183 C189 1.429 . S
C184 C176 1.574 . S
C184 H179 0.949 . S
C184 C190 1.368 . S
C185 C169 1.349 . S
C185 H177 0.950 . S
C185 C183 1.327 . S
C186 C174 1.349 . S
C186 H180 0.950 . S
C186 C187 1.327 . S
C187 H181 0.950 . S
C187 C186 1.327 . S
C187 C191 1.429 . S
C188 C171 1.574 . S
C188 H182 0.949 . S
C188 C192 1.368 . S
C189 C170 1.429 . S
C189 C183 1.429 . S
C189 C190 1.523 . S
C190 C171 1.368 . S
C190 C184 1.368 . S
C190 C189 1.523 . S
C191 C175 1.429 . S
C191 C187 1.429 . S
C191 C192 1.523 . S
C192 C176 1.368 . S
C192 C188 1.368 . S
C192 C191 1.523 . S
H193 C168 0.950 . S
H194 C170 0.950 . S
H195 C171 0.949 . S
H196 C173 0.950 . S
H197 C175 0.950 . S
C198 C199 1.349 . S
C198 C200 1.327 . S
C198 H223 0.950 . S
C199 C198 1.349 . S
C199 C215 1.349 . S
C200 C198 1.327 . S
C200 C219 1.429 . S
C200 H224 0.950 . S
C201 C218 1.574 . S
C201 C220 1.368 . S
C201 H225 0.949 . S
H202 C206 0.949 . S
C203 C204 1.349 . S
C203 C205 1.327 . S
C203 H226 0.950 . S
C204 C203 1.349 . S
C204 C216 1.349 . S
C205 C203 1.327 . S
C205 C221 1.429 . S
C205 H227 0.950 . S
C206 H202 0.949 . S
C206 C214 1.574 . S
C206 C222 1.368 . S
H207 C215 0.950 . S
H208 C213 0.950 . S
H209 C214 0.949 . S
H210 C216 0.950 . S
H211 C217 0.950 . S
H212 C218 0.949 . S
C213 H208 0.950 . S
C213 C215 1.327 . S
C213 C219 1.429 . S
C214 C206 1.574 . S
C214 H209 0.949 . S
C214 C220 1.368 . S
C215 C199 1.349 . S
C215 H207 0.950 . S
C215 C213 1.327 . S
C216 C204 1.349 . S
C216 H210 0.950 . S
C216 C217 1.327 . S
C217 H211 0.950 . S
C217 C216 1.327 . S
C217 C221 1.429 . S
C218 C201 1.574 . S
C218 H212 0.949 . S
C218 C222 1.368 . S
C219 C200 1.429 . S
C219 C213 1.429 . S
C219 C220 1.523 . S
C220 C201 1.368 . S
C220 C214 1.368 . S
C220 C219 1.523 . S
C221 C205 1.429 . S
C221 C217 1.429 . S
C221 C222 1.523 . S
C222 C206 1.368 . S
C222 C218 1.368 . S
C222 C221 1.523 . S
H223 C198 0.950 . S
H224 C200 0.950 . S
H225 C201 0.949 . S
H226 C203 0.950 . S
H227 C205 0.950 . S
C228 C229 1.349 . S
C228 C230 1.327 . S
C228 H253 0.950 . S
C229 C228 1.349 . S
C229 C245 1.349 . S
C230 C228 1.327 . S
C230 C249 1.429 . S
C230 H254 0.950 . S
C231 C248 1.574 . S
C231 C250 1.368 . S
C231 H255 0.949 . S
H232 C236 0.949 . S
C233 C234 1.349 . S
C233 C235 1.327 . S
C233 H256 0.950 . S
C234 C233 1.349 . S
C234 C246 1.349 . S
C235 C233 1.327 . S
C235 C251 1.429 . S
C235 H257 0.950 . S
C236 H232 0.949 . S
C236 C244 1.574 . S
C236 C252 1.368 . S
H237 C245 0.950 . S
H238 C243 0.950 . S
H239 C244 0.949 . S
H240 C246 0.950 . S
H241 C247 0.950 . S
H242 C248 0.949 . S
C243 H238 0.950 . S
C243 C245 1.327 . S
C243 C249 1.429 . S
C244 C236 1.574 . S
C244 H239 0.949 . S
C244 C250 1.368 . S
C245 C229 1.349 . S
C245 H237 0.950 . S
C245 C243 1.327 . S
C246 C234 1.349 . S
C246 H240 0.950 . S
C246 C247 1.327 . S
C247 H241 0.950 . S
C247 C246 1.327 . S
C247 C251 1.429 . S
C248 C231 1.574 . S
C248 H242 0.949 . S
C248 C252 1.368 . S
C249 C230 1.429 . S
C249 C243 1.429 . S
C249 C250 1.523 . S
C250 C231 1.368 . S
C250 C244 1.368 . S
C250 C249 1.523 . S
C251 C235 1.429 . S
C251 C247 1.429 . S
C251 C252 1.523 . S
C252 C236 1.368 . S
C252 C248 1.368 . S
C252 C251 1.523 . S
H253 C228 0.950 . S
H254 C230 0.950 . S
H255 C231 0.949 . S
H256 C233 0.950 . S
H257 C235 0.950 . S
C258 C259 1.349 . S
C258 C260 1.327 . S
C258 H283 0.950 . S
C259 C258 1.349 . S
C259 C275 1.349 . S
C260 C258 1.327 . S
C260 C279 1.429 . S
C260 H284 0.950 . S
C261 C278 1.574 . S
C261 C280 1.368 . S
C261 H285 0.949 . S
H262 C266 0.949 . S
C263 C264 1.349 . S
C263 C265 1.327 . S
C263 H286 0.950 . S
C264 C263 1.349 . S
C264 C276 1.349 . S
C265 C263 1.327 . S
C265 C281 1.429 . S
C265 H287 0.950 . S
C266 H262 0.949 . S
C266 C274 1.574 . S
C266 C282 1.368 . S
H267 C275 0.950 . S
H268 C273 0.950 . S
H269 C274 0.949 . S
H270 C276 0.950 . S
H271 C277 0.950 . S
H272 C278 0.949 . S
C273 H268 0.950 . S
C273 C275 1.327 . S
C273 C279 1.429 . S
C274 C266 1.574 . S
C274 H269 0.949 . S
C274 C280 1.368 . S
C275 C259 1.349 . S
C275 H267 0.950 . S
C275 C273 1.327 . S
C276 C264 1.349 . S
C276 H270 0.950 . S
C276 C277 1.327 . S
C277 H271 0.950 . S
C277 C276 1.327 . S
C277 C281 1.429 . S
C278 C261 1.574 . S
C278 H272 0.949 . S
C278 C282 1.368 . S
C279 C260 1.429 . S
C279 C273 1.429 . S
C279 C280 1.523 . S
C280 C261 1.368 . S
C280 C274 1.368 . S
C280 C279 1.523 . S
C281 C265 1.429 . S
C281 C277 1.429 . S
C281 C282 1.523 . S
C282 C266 1.368 . S
C282 C278 1.368 . S
C282 C281 1.523 . S
H283 C258 0.950 . S
H284 C260 0.950 . S
H285 C261 0.949 . S
H286 C263 0.950 . S
H287 C265 0.950 . S
C288 C289 1.349 . S
C288 C290 1.327 . S
C288 H313 0.950 . S
C289 C288 1.349 . S
C289 C305 1.349 . S
C290 C288 1.327 . S
C290 C309 1.429 . S
C290 H314 0.950 . S
C291 C308 1.574 . S
C291 C310 1.368 . S
C291 H315 0.949 . S
H292 C296 0.949 . S
C293 C294 1.349 . S
C293 C295 1.327 . S
C293 H316 0.950 . S
C294 C293 1.349 . S
C294 C306 1.349 . S
C295 C293 1.327 . S
C295 C311 1.429 . S
C295 H317 0.950 . S
C296 H292 0.949 . S
C296 C304 1.574 . S
C296 C312 1.368 . S
H297 C305 0.950 . S
H298 C303 0.950 . S
H299 C304 0.949 . S
H300 C306 0.950 . S
H301 C307 0.950 . S
H302 C308 0.949 . S
C303 H298 0.950 . S
C303 C305 1.327 . S
C303 C309 1.429 . S
C304 C296 1.574 . S
C304 H299 0.949 . S
C304 C310 1.368 . S
C305 C289 1.349 . S
C305 H297 0.950 . S
C305 C303 1.327 . S
C306 C294 1.349 . S
C306 H300 0.950 . S
C306 C307 1.327 . S
C307 H301 0.950 . S
C307 C306 1.327 . S
C307 C311 1.429 . S
C308 C291 1.574 . S
C308 H302 0.949 . S
C308 C312 1.368 . S
C309 C290 1.429 . S
C309 C303 1.429 . S
C309 C310 1.523 . S
C310 C291 1.368 . S
C310 C304 1.368 . S
C310 C309 1.523 . S
C311 C295 1.429 . S
C311 C307 1.429 . S
C311 C312 1.523 . S
C312 C296 1.368 . S
C312 C308 1.368 . S
C312 C311 1.523 . S
H313 C288 0.950 . S
H314 C290 0.950 . S
H315 C291 0.949 . S
H316 C293 0.950 . S
H317 C295 0.950 . S
C318 C319 1.349 . S
C318 C320 1.327 . S
C318 H343 0.950 . S
C319 C318 1.349 . S
C319 C335 1.349 . S
C320 C318 1.327 . S
C320 C339 1.429 . S
C320 H344 0.950 . S
C321 C338 1.574 . S
C321 C340 1.368 . S
C321 H345 0.949 . S
H322 C326 0.949 . S
C323 C324 1.349 . S
C323 C325 1.327 . S
C323 H346 0.950 . S
C324 C323 1.349 . S
C324 C336 1.349 . S
C325 C323 1.327 . S
C325 C341 1.429 . S
C325 H347 0.950 . S
C326 H322 0.949 . S
C326 C334 1.574 . S
C326 C342 1.368 . S
H327 C335 0.950 . S
H328 C333 0.950 . S
H329 C334 0.949 . S
H330 C336 0.950 . S
H331 C337 0.950 . S
H332 C338 0.949 . S
C333 H328 0.950 . S
C333 C335 1.327 . S
C333 C339 1.429 . S
C334 C326 1.574 . S
C334 H329 0.949 . S
C334 C340 1.368 . S
C335 C319 1.349 . S
C335 H327 0.950 . S
C335 C333 1.327 . S
C336 C324 1.349 . S
C336 H330 0.950 . S
C336 C337 1.327 . S
C337 H331 0.950 . S
C337 C336 1.327 . S
C337 C341 1.429 . S
C338 C321 1.574 . S
C338 H332 0.949 . S
C338 C342 1.368 . S
C339 C320 1.429 . S
C339 C333 1.429 . S
C339 C340 1.523 . S
C340 C321 1.368 . S
C340 C334 1.368 . S
C340 C339 1.523 . S
C341 C325 1.429 . S
C341 C337 1.429 . S
C341 C342 1.523 . S
C342 C326 1.368 . S
C342 C338 1.368 . S
C342 C341 1.523 . S
H343 C318 0.950 . S
H344 C320 0.950 . S
H345 C321 0.949 . S
H346 C323 0.950 . S
H347 C325 0.950 . S
C348 C349 1.349 . S
C348 C350 1.327 . S
C348 H373 0.950 . S
C349 C348 1.349 . S
C349 C365 1.349 . S
C350 C348 1.327 . S
C350 C369 1.429 . S
C350 H374 0.950 . S
C351 C368 1.574 . S
C351 C370 1.368 . S
C351 H375 0.949 . S
H352 C356 0.949 . S
C353 C354 1.349 . S
C353 C355 1.327 . S
C353 H376 0.950 . S
C354 C353 1.349 . S
C354 C366 1.349 . S
C355 C353 1.327 . S
C355 C371 1.433 1_556 S
C355 H377 0.950 . S
C356 H352 0.949 . S
C356 C364 1.574 . S
C356 C372 1.368 . S
H357 C365 0.950 . S
H358 C363 0.950 . S
H359 C364 0.949 . S
H360 C366 0.950 1_554 S
H361 C367 0.950 . S
H362 C368 0.949 1_556 S
C363 H358 0.950 . S
C363 C365 1.327 . S
C363 C369 1.429 . S
C364 C356 1.574 . S
C364 H359 0.949 . S
C364 C370 1.368 . S
C365 C349 1.349 . S
C365 H357 0.950 . S
C365 C363 1.327 . S
C366 C354 1.349 . S
C366 H360 0.950 1_556 S
C366 C367 1.327 1_556 S
C367 H361 0.950 . S
C367 C366 1.327 1_554 S
C367 C371 1.427 . S
C368 C351 1.574 . S
C368 H362 0.949 1_554 S
C368 C372 1.368 . S
C369 C350 1.429 . S
C369 C363 1.429 . S
C369 C370 1.523 . S
C370 C351 1.368 . S
C370 C364 1.368 . S
C370 C369 1.523 . S
C371 C355 1.433 1_554 S
C371 C367 1.427 . S
C371 C372 1.520 . S
C372 C356 1.368 . S
C372 C368 1.368 . S
C372 C371 1.520 . S
H373 C348 0.950 . S
H374 C350 0.950 . S
H375 C351 0.949 . S
H376 C353 0.950 . S
H377 C355 0.950 . S
C378 C379 1.349 . S
C378 C380 1.327 . S
C378 H403 0.950 . S
C379 C378 1.349 . S
C379 C395 1.349 . S
C380 C378 1.327 . S
C380 C399 1.429 . S
C380 H404 0.950 . S
C381 C398 1.574 . S
C381 C400 1.368 . S
C381 H405 0.949 . S
H382 C386 0.949 . S
C383 C384 1.349 . S
C383 C385 1.327 . S
C383 H406 0.950 1_655 S
C384 C383 1.349 . S
C384 C396 1.349 . S
C385 C383 1.327 . S
C385 C401 1.429 . S
C385 H407 0.950 . S
C386 H382 0.949 . S
C386 C394 1.574 . S
C386 C402 1.368 . S
H387 C395 0.950 . S
H388 C393 0.950 . S
H389 C394 0.949 . S
H390 C396 0.950 . S
H391 C397 0.950 . S
H392 C398 0.949 . S
C393 H388 0.950 . S
C393 C395 1.327 . S
C393 C399 1.429 . S
C394 C386 1.574 . S
C394 H389 0.949 . S
C394 C400 1.368 . S
C395 C379 1.349 . S
C395 H387 0.950 . S
C395 C393 1.327 . S
C396 C384 1.349 . S
C396 H390 0.950 . S
C396 C397 1.327 . S
C397 H391 0.950 . S
C397 C396 1.327 . S
C397 C401 1.429 . S
C398 C381 1.574 . S
C398 H392 0.949 . S
C398 C402 1.368 . S
C399 C380 1.429 . S
C399 C393 1.429 . S
C399 C400 1.523 . S
C400 C381 1.368 . S
C400 C394 1.368 . S
C400 C399 1.523 . S
C401 C385 1.429 . S
C401 C397 1.429 . S
C401 C402 1.523 . S
C402 C386 1.368 . S
C402 C398 1.368 . S
C402 C401 1.523 . S
H403 C378 0.950 . S
H404 C380 0.950 . S
H405 C381 0.949 . S
H406 C383 0.950 1_455 S
H407 C385 0.950 . S
C408 C409 1.349 . S
C408 C410 1.327 . S
C408 H433 0.950 . S
C409 C408 1.349 . S
C409 C425 1.349 . S
C410 C408 1.327 . S
C410 C429 1.429 . S
C410 H434 0.950 . S
C411 C428 1.574 . S
C411 C430 1.368 . S
C411 H435 0.949 . S
H412 C416 0.949 . S
C413 C414 1.349 . S
C413 C415 1.327 . S
C413 H436 0.950 . S
C414 C413 1.349 . S
C414 C426 1.348 . S
C415 C413 1.327 . S
C415 C431 1.429 . S
C415 H437 0.950 . S
C416 H412 0.949 . S
C416 C424 1.574 . S
C416 C432 1.368 . S
H417 C425 0.950 . S
H418 C423 0.950 . S
H419 C424 0.949 . S
H420 C426 0.939 1_545 S
H421 C427 0.950 . S
H422 C428 0.949 . S
C423 H418 0.950 . S
C423 C425 1.327 . S
C423 C429 1.429 . S
C424 C416 1.574 . S
C424 H419 0.949 . S
C424 C430 1.368 . S
C425 C409 1.349 . S
C425 H417 0.950 . S
C425 C423 1.327 . S
C426 C414 1.348 . S
C426 H420 0.939 1_565 S
C426 C427 1.338 . S
C427 H421 0.950 . S
C427 C426 1.338 . S
C427 C431 1.429 . S
C428 C411 1.574 . S
C428 H422 0.949 . S
C428 C432 1.368 . S
C429 C410 1.429 . S
C429 C423 1.429 . S
C429 C430 1.523 . S
C430 C411 1.368 . S
C430 C424 1.368 . S
C430 C429 1.523 . S
C431 C415 1.429 . S
C431 C427 1.429 . S
C431 C432 1.523 . S
C432 C416 1.368 . S
C432 C428 1.368 . S
C432 C431 1.523 . S
H433 C408 0.950 . S
H434 C410 0.950 . S
H435 C411 0.949 . S
H436 C413 0.950 . S
H437 C415 0.950 . S
C438 C439 1.349 . S
C438 C440 1.327 . S
C438 H463 0.950 . S
C439 C438 1.349 . S
C439 C455 1.349 . S
C440 C438 1.327 . S
C440 C459 1.429 . S
C440 H464 0.950 . S
C441 C458 1.574 . S
C441 C460 1.368 . S
C441 H465 0.949 . S
H442 C446 0.949 . S
C443 C444 1.349 . S
C443 C445 1.327 . S
C443 H466 0.950 . S
C444 C443 1.349 . S
C444 C456 1.349 . S
C445 C443 1.327 . S
C445 C461 1.429 . S
C445 H467 0.950 . S
C446 H442 0.949 . S
C446 C454 1.574 . S
C446 C462 1.368 . S
H447 C455 0.950 . S
H448 C453 0.950 . S
H449 C454 0.949 . S
H450 C456 0.950 . S
H451 C457 0.950 . S
H452 C458 0.949 . S
C453 H448 0.950 . S
C453 C455 1.327 . S
C453 C459 1.429 . S
C454 C446 1.574 . S
C454 H449 0.949 . S
C454 C460 1.368 . S
C455 C439 1.349 . S
C455 H447 0.950 . S
C455 C453 1.327 . S
C456 C444 1.349 . S
C456 H450 0.950 . S
C456 C457 1.327 . S
C457 H451 0.950 . S
C457 C456 1.327 . S
C457 C461 1.429 . S
C458 C441 1.574 . S
C458 H452 0.949 . S
C458 C462 1.368 . S
C459 C440 1.429 . S
C459 C453 1.429 . S
C459 C460 1.523 . S
C460 C441 1.368 . S
C460 C454 1.368 . S
C460 C459 1.523 . S
C461 C445 1.429 . S
C461 C457 1.429 . S
C461 C462 1.523 . S
C462 C446 1.368 . S
C462 C458 1.368 . S
C462 C461 1.523 . S
H463 C438 0.950 . S
H464 C440 0.950 . S
H465 C441 0.949 . S
H466 C443 0.950 . S
H467 C445 0.950 . S
C468 C469 1.349 . S
C468 C470 1.327 . S
C468 H493 0.950 . S
C469 C468 1.349 . S
C469 C485 1.349 . S
C470 C468 1.327 . S
C470 C489 1.429 . S
C470 H494 0.950 . S
C471 C488 1.574 . S
C471 C490 1.368 . S
C471 H495 0.949 . S
H472 C476 0.949 . S
C473 C474 1.349 . S
C473 C475 1.327 . S
C473 H496 0.950 . S
C474 C473 1.349 . S
C474 C486 1.349 . S
C475 C473 1.327 . S
C475 C491 1.429 . S
C475 H497 0.950 . S
C476 H472 0.949 . S
C476 C484 1.574 . S
C476 C492 1.368 . S
H477 C485 0.950 . S
H478 C483 0.950 . S
H479 C484 0.949 . S
H480 C486 0.950 . S
H481 C487 0.950 . S
H482 C488 0.949 . S
C483 H478 0.950 . S
C483 C485 1.327 . S
C483 C489 1.429 . S
C484 C476 1.574 . S
C484 H479 0.949 . S
C484 C490 1.368 . S
C485 C469 1.349 . S
C485 H477 0.950 . S
C485 C483 1.327 . S
C486 C474 1.349 . S
C486 H480 0.950 . S
C486 C487 1.327 . S
C487 H481 0.950 . S
C487 C486 1.327 . S
C487 C491 1.429 . S
C488 C471 1.574 . S
C488 H482 0.949 . S
C488 C492 1.368 . S
C489 C470 1.429 . S
C489 C483 1.429 . S
C489 C490 1.523 . S
C490 C471 1.368 . S
C490 C484 1.368 . S
C490 C489 1.523 . S
C491 C475 1.429 . S
C491 C487 1.429 . S
C491 C492 1.523 . S
C492 C476 1.368 . S
C492 C488 1.368 . S
C492 C491 1.523 . S
H493 C468 0.950 . S
H494 C470 0.950 . S
H495 C471 0.949 . S
H496 C473 0.950 . S
H497 C475 0.950 . S
C498 C499 1.349 . S
C498 C500 1.352 . S
C498 H523 0.925 1_545 S
C499 C498 1.349 . S
C499 C515 1.349 . S
C500 C498 1.352 . S
C500 C519 1.429 . S
C500 H524 0.950 . S
C501 C518 1.574 . S
C501 C520 1.368 . S
C501 H525 0.949 . S
H502 C506 0.949 . S
C503 C504 1.349 . S
C503 C505 1.327 . S
C503 H526 0.950 . S
C504 C503 1.349 . S
C504 C516 1.349 . S
C505 C503 1.327 . S
C505 C521 1.429 . S
C505 H527 0.950 . S
C506 H502 0.949 . S
C506 C514 1.574 . S
C506 C522 1.368 . S
H507 C515 0.950 . S
H508 C513 0.950 . S
H509 C514 0.949 . S
H510 C516 0.950 . S
H511 C517 0.950 . S
H512 C518 0.949 . S
C513 H508 0.950 . S
C513 C515 1.327 . S
C513 C519 1.429 . S
C514 C506 1.574 . S
C514 H509 0.949 . S
C514 C520 1.368 . S
C515 C499 1.349 . S
C515 H507 0.950 . S
C515 C513 1.327 . S
C516 C504 1.349 . S
C516 H510 0.950 . S
C516 C517 1.327 . S
C517 H511 0.950 . S
C517 C516 1.327 . S
C517 C521 1.429 . S
C518 C501 1.574 . S
C518 H512 0.949 . S
C518 C522 1.368 . S
C519 C500 1.429 . S
C519 C513 1.429 . S
C519 C520 1.523 . S
C520 C501 1.368 . S
C520 C514 1.368 . S
C520 C519 1.523 . S
C521 C505 1.429 . S
C521 C517 1.429 . S
C521 C522 1.523 . S
C522 C506 1.368 . S
C522 C518 1.368 . S
C522 C521 1.523 . S
H523 C498 0.925 1_565 S
H524 C500 0.950 . S
H525 C501 0.949 . S
H526 C503 0.950 . S
H527 C505 0.950 . S
C528 C529 1.349 . S
C528 C530 1.327 . S
C528 H553 0.950 . S
C529 C528 1.349 . S
C529 C545 1.349 . S
C530 C528 1.327 . S
C530 C549 1.429 . S
C530 H554 0.950 . S
C531 C548 1.574 . S
C531 C550 1.368 . S
C531 H555 0.949 . S
H532 C536 0.949 . S
C533 C534 1.349 . S
C533 C535 1.327 . S
C533 H556 0.950 . S
C534 C533 1.349 . S
C534 C546 1.349 . S
C535 C533 1.327 . S
C535 C551 1.429 . S
C535 H557 0.950 . S
C536 H532 0.949 . S
C536 C544 1.574 . S
C536 C552 1.368 . S
H537 C545 0.950 . S
H538 C543 0.950 . S
H539 C544 0.949 . S
H540 C546 0.950 . S
H541 C547 0.950 . S
H542 C548 0.949 . S
C543 H538 0.950 . S
C543 C545 1.327 . S
C543 C549 1.429 . S
C544 C536 1.574 . S
C544 H539 0.949 . S
C544 C550 1.368 . S
C545 C529 1.349 . S
C545 H537 0.950 . S
C545 C543 1.327 . S
C546 C534 1.349 . S
C546 H540 0.950 . S
C546 C547 1.327 . S
C547 H541 0.950 . S
C547 C546 1.327 . S
C547 C551 1.429 . S
C548 C531 1.574 . S
C548 H542 0.949 . S
C548 C552 1.368 . S
C549 C530 1.429 . S
C549 C543 1.429 . S
C549 C550 1.523 . S
C550 C531 1.368 . S
C550 C544 1.368 . S
C550 C549 1.523 . S
C551 C535 1.429 . S
C551 C547 1.429 . S
C551 C552 1.523 . S
C552 C536 1.368 . S
C552 C548 1.368 . S
C552 C551 1.523 . S
H553 C528 0.950 . S
H554 C530 0.950 . S
H555 C531 0.949 . S
H556 C533 0.950 . S
H557 C535 0.950 . S
C558 C559 1.349 . S
C558 C560 1.327 . S
C558 H583 0.950 . S
C559 C558 1.349 . S
C559 C575 1.349 . S
C560 C558 1.327 . S
C560 C579 1.429 . S
C560 H584 0.950 . S
C561 C578 1.574 . S
C561 C580 1.368 . S
C561 H585 0.949 . S
H562 C566 0.957 . S
C563 C564 1.349 . S
C563 C565 1.304 1_554 S
C563 H586 0.950 . S
C564 C563 1.349 . S
C564 C576 1.349 . S
C565 C563 1.304 1_556 S
C565 C581 1.428 . S
C565 H587 0.976 . S
C566 H562 0.957 . S
C566 C574 1.574 . S
C566 C582 1.368 . S
H567 C575 0.950 . S
H568 C573 0.950 . S
H569 C574 0.949 . S
H570 C576 0.950 . S
H571 C577 0.950 . S
H572 C578 0.949 . S
C573 H568 0.950 . S
C573 C575 1.327 . S
C573 C579 1.429 . S
C574 C566 1.574 . S
C574 H569 0.949 . S
C574 C580 1.368 . S
C575 C559 1.349 . S
C575 H567 0.950 . S
C575 C573 1.327 . S
C576 C564 1.349 . S
C576 H570 0.950 . S
C576 C577 1.327 . S
C577 H571 0.950 . S
C577 C576 1.327 . S
C577 C581 1.432 1_554 S
C578 C561 1.574 . S
C578 H572 0.949 . S
C578 C582 1.368 . S
C579 C560 1.429 . S
C579 C573 1.429 . S
C579 C580 1.523 . S
C580 C561 1.368 . S
C580 C574 1.368 . S
C580 C579 1.523 . S
C581 C565 1.428 . S
C581 C577 1.432 1_556 S
C581 C582 1.520 . S
C582 C566 1.368 . S
C582 C578 1.368 . S
C582 C581 1.520 . S
H583 C558 0.950 . S
H584 C560 0.950 . S
H585 C561 0.949 . S
H586 C563 0.950 . S
H587 C565 0.976 . S
C588 C589 1.349 . S
C588 C590 1.327 . S
C588 H613 0.950 1_565 S
C589 C588 1.349 . S
C589 C605 1.349 . S
C590 C588 1.327 . S
C590 C609 1.429 . S
C590 H614 0.950 . S
C591 C608 1.574 . S
C591 C610 1.368 . S
C591 H615 0.949 . S
H592 C596 0.949 . S
C593 C594 1.349 . S
C593 C595 1.327 . S
C593 H616 0.950 . S
C594 C593 1.349 . S
C594 C606 1.349 . S
C595 C593 1.327 . S
C595 C611 1.429 . S
C595 H617 0.950 . S
C596 H592 0.949 . S
C596 C604 1.574 . S
C596 C612 1.368 . S
H597 C605 0.950 . S
H598 C603 0.950 . S
H599 C604 0.949 . S
H600 C606 0.950 . S
H601 C607 0.950 . S
H602 C608 0.949 . S
C603 H598 0.950 . S
C603 C605 1.327 . S
C603 C609 1.429 . S
C604 C596 1.574 . S
C604 H599 0.949 . S
C604 C610 1.368 . S
C605 C589 1.349 . S
C605 H597 0.950 . S
C605 C603 1.327 . S
C606 C594 1.349 . S
C606 H600 0.950 . S
C606 C607 1.327 . S
C607 H601 0.950 . S
C607 C606 1.327 . S
C607 C611 1.429 . S
C608 C591 1.574 . S
C608 H602 0.949 . S
C608 C612 1.368 . S
C609 C590 1.429 . S
C609 C603 1.429 . S
C609 C610 1.523 . S
C610 C591 1.368 . S
C610 C604 1.368 . S
C610 C609 1.523 . S
C611 C595 1.429 . S
C611 C607 1.429 . S
C611 C612 1.523 . S
C612 C596 1.368 . S
C612 C608 1.368 . S
C612 C611 1.523 . S
H613 C588 0.950 1_545 S
H614 C590 0.950 . S
H615 C591 0.949 . S
H616 C593 0.950 . S
H617 C595 0.950 . S
C618 C619 1.349 . S
C618 C620 1.327 . S
C618 H643 0.950 . S
C619 C618 1.349 . S
C619 C635 1.349 . S
C620 C618 1.327 . S
C620 C639 1.429 . S
C620 H644 0.950 . S
C621 C638 1.574 . S
C621 C640 1.368 . S
C621 H645 0.949 . S
H622 C626 0.949 . S
C623 C624 1.349 . S
C623 C625 1.327 . S
C623 H646 0.950 . S
C624 C623 1.349 . S
C624 C636 1.349 . S
C625 C623 1.327 . S
C625 C641 1.429 . S
C625 H647 0.950 . S
C626 H622 0.949 . S
C626 C634 1.574 . S
C626 C642 1.368 . S
H627 C635 0.950 . S
H628 C633 0.950 . S
H629 C634 0.949 . S
H630 C636 0.950 . S
H631 C637 0.950 . S
H632 C638 0.949 . S
C633 H628 0.950 . S
C633 C635 1.327 . S
C633 C639 1.429 . S
C634 C626 1.574 . S
C634 H629 0.949 . S
C634 C640 1.368 . S
C635 C619 1.349 . S
C635 H627 0.950 . S
C635 C633 1.327 . S
C636 C624 1.349 . S
C636 H630 0.950 . S
C636 C637 1.327 . S
C637 H631 0.950 . S
C637 C636 1.327 . S
C637 C641 1.429 . S
C638 C621 1.574 . S
C638 H632 0.949 . S
C638 C642 1.368 . S
C639 C620 1.429 . S
C639 C633 1.429 . S
C639 C640 1.523 . S
C640 C621 1.368 . S
C640 C634 1.368 . S
C640 C639 1.523 . S
C641 C625 1.429 . S
C641 C637 1.429 . S
C641 C642 1.523 . S
C642 C626 1.368 . S
C642 C638 1.368 . S
C642 C641 1.523 . S
H643 C618 0.950 . S
H644 C620 0.950 . S
H645 C621 0.949 . S
H646 C623 0.950 . S
H647 C625 0.950 . S
C648 C649 1.349 . S
C648 C650 1.327 . S
C648 H673 0.950 . S
C649 C648 1.349 . S
C649 C665 1.349 . S
C650 C648 1.327 . S
C650 C669 1.429 . S
C650 H674 0.950 . S
C651 C668 1.574 . S
C651 C670 1.368 . S
C651 H675 0.949 . S
H652 C656 0.949 . S
C653 C654 1.349 . S
C653 C655 1.327 . S
C653 H676 0.950 . S
C654 C653 1.349 . S
C654 C666 1.349 . S
C655 C653 1.327 . S
C655 C671 1.429 . S
C655 H677 0.950 . S
C656 H652 0.949 . S
C656 C664 1.574 . S
C656 C672 1.368 . S
H657 C665 0.950 . S
H658 C663 0.950 . S
H659 C664 0.949 . S
H660 C666 0.950 . S
H661 C667 0.950 . S
H662 C668 0.949 . S
C663 H658 0.950 . S
C663 C665 1.327 . S
C663 C669 1.429 . S
C664 C656 1.574 . S
C664 H659 0.949 . S
C664 C670 1.368 . S
C665 C649 1.349 . S
C665 H657 0.950 . S
C665 C663 1.327 . S
C666 C654 1.349 . S
C666 H660 0.950 . S
C666 C667 1.327 . S
C667 H661 0.950 . S
C667 C666 1.327 . S
C667 C671 1.429 . S
C668 C651 1.574 . S
C668 H662 0.949 . S
C668 C672 1.368 . S
C669 C650 1.429 . S
C669 C663 1.429 . S
C669 C670 1.523 . S
C670 C651 1.368 . S
C670 C664 1.368 . S
C670 C669 1.523 . S
C671 C655 1.429 . S
C671 C667 1.429 . S
C671 C672 1.523 . S
C672 C656 1.368 . S
C672 C668 1.368 . S
C672 C671 1.523 . S
H673 C648 0.950 . S
H674 C650 0.950 . S
H675 C651 0.949 . S
H676 C653 0.950 . S
H677 C655 0.950 . S
C678 C679 1.349 . S
C678 C680 1.327 . S
C678 H703 0.950 . S
C679 C678 1.349 . S
C679 C695 1.349 . S
C680 C678 1.327 . S
C680 C699 1.429 . S
C680 H704 0.950 . S
C681 C698 1.574 . S
C681 C700 1.368 . S
C681 H705 0.949 . S
H682 C686 0.949 . S
C683 C684 1.345 1_565 S
C683 C685 1.321 1_565 S
C683 H706 0.959 . S
C684 C683 1.345 1_545 S
C684 C696 1.349 . S
C685 C683 1.321 1_545 S
C685 C701 1.429 . S
C685 H707 0.950 . S
C686 H682 0.949 . S
C686 C694 1.574 . S
C686 C702 1.368 . S
H687 C695 0.950 . S
H688 C693 0.950 . S
H689 C694 0.949 . S
H690 C696 0.950 . S
H691 C697 0.950 . S
H692 C698 0.949 . S
C693 H688 0.950 . S
C693 C695 1.327 . S
C693 C699 1.429 . S
C694 C686 1.574 . S
C694 H689 0.949 . S
C694 C700 1.368 . S
C695 C679 1.349 . S
C695 H687 0.950 . S
C695 C693 1.327 . S
C696 C684 1.349 . S
C696 H690 0.950 . S
C696 C697 1.327 . S
C697 H691 0.950 . S
C697 C696 1.327 . S
C697 C701 1.429 . S
C698 C681 1.574 . S
C698 H692 0.949 . S
C698 C702 1.368 . S
C699 C680 1.429 . S
C699 C693 1.429 . S
C699 C700 1.523 . S
C700 C681 1.368 . S
C700 C694 1.368 . S
C700 C699 1.523 . S
C701 C685 1.429 . S
C701 C697 1.429 . S
C701 C702 1.523 . S
C702 C686 1.368 . S
C702 C698 1.368 . S
C702 C701 1.523 . S
H703 C678 0.950 . S
H704 C680 0.950 . S
H705 C681 0.949 . S
H706 C683 0.959 . S
H707 C685 0.950 . S
C708 C709 1.349 . S
C708 C710 1.327 . S
C708 H733 0.950 . S
C709 C708 1.349 . S
C709 C725 1.349 . S
C710 C708 1.327 . S
C710 C729 1.429 . S
C710 H734 0.950 . S
C711 C728 1.574 . S
C711 C730 1.368 . S
C711 H735 0.949 . S
H712 C716 0.949 . S
C713 C714 1.349 . S
C713 C715 1.327 . S
C713 H736 0.950 . S
C714 C713 1.349 . S
C714 C726 1.349 . S
C715 C713 1.327 . S
C715 C731 1.429 . S
C715 H737 0.950 . S
C716 H712 0.949 . S
C716 C724 1.574 . S
C716 C732 1.368 . S
H717 C725 0.950 . S
H718 C723 0.950 . S
H719 C724 0.949 . S
H720 C726 0.950 . S
H721 C727 0.950 . S
H722 C728 0.949 . S
C723 H718 0.950 . S
C723 C725 1.327 . S
C723 C729 1.429 . S
C724 C716 1.574 . S
C724 H719 0.949 . S
C724 C730 1.368 . S
C725 C709 1.349 . S
C725 H717 0.950 . S
C725 C723 1.327 . S
C726 C714 1.349 . S
C726 H720 0.950 . S
C726 C727 1.327 . S
C727 H721 0.950 . S
C727 C726 1.327 . S
C727 C731 1.429 . S
C728 C711 1.574 . S
C728 H722 0.949 . S
C728 C732 1.368 . S
C729 C710 1.429 . S
C729 C723 1.429 . S
C729 C730 1.523 . S
C730 C711 1.368 . S
C730 C724 1.368 . S
C730 C729 1.523 . S
C731 C715 1.429 . S
C731 C727 1.429 . S
C731 C732 1.523 . S
C732 C716 1.368 . S
C732 C728 1.368 . S
C732 C731 1.523 . S
H733 C708 0.950 . S
H734 C710 0.950 . S
H735 C711 0.949 . S
H736 C713 0.950 . S
H737 C715 0.950 . S
C738 C739 1.349 . S
C738 C740 1.327 . S
C738 H763 0.950 . S
C739 C738 1.349 . S
C739 C755 1.349 . S
C740 C738 1.327 . S
C740 C759 1.429 . S
C740 H764 0.950 . S
C741 C758 1.574 . S
C741 C760 1.368 . S
C741 H765 0.949 . S
H742 C746 0.949 . S
C743 C744 1.349 . S
C743 C745 1.327 . S
C743 H766 0.950 . S
C744 C743 1.349 . S
C744 C756 1.349 . S
C745 C743 1.327 . S
C745 C761 1.429 . S
C745 H767 0.950 . S
C746 H742 0.949 . S
C746 C754 1.574 . S
C746 C762 1.368 . S
H747 C755 0.950 . S
H748 C753 0.950 . S
H749 C754 0.949 . S
H750 C756 0.950 . S
H751 C757 0.950 . S
H752 C758 0.949 . S
C753 H748 0.950 . S
C753 C755 1.327 . S
C753 C759 1.429 . S
C754 C746 1.574 . S
C754 H749 0.949 . S
C754 C760 1.368 . S
C755 C739 1.349 . S
C755 H747 0.950 . S
C755 C753 1.327 . S
C756 C744 1.349 . S
C756 H750 0.950 . S
C756 C757 1.327 . S
C757 H751 0.950 . S
C757 C756 1.327 . S
C757 C761 1.429 . S
C758 C741 1.574 . S
C758 H752 0.949 . S
C758 C762 1.368 . S
C759 C740 1.429 . S
C759 C753 1.429 . S
C759 C760 1.523 . S
C760 C741 1.368 . S
C760 C754 1.368 . S
C760 C759 1.523 . S
C761 C745 1.429 . S
C761 C757 1.429 . S
C761 C762 1.523 . S
C762 C746 1.368 . S
C762 C758 1.368 . S
C762 C761 1.523 . S
H763 C738 0.950 . S
H764 C740 0.950 . S
H765 C741 0.949 . S
H766 C743 0.950 . S
H767 C745 0.950 . S
C768 C769 1.349 . S
C768 C770 1.327 . S
C768 H793 0.950 . S
C769 C768 1.349 . S
C769 C785 1.349 . S
C770 C768 1.327 . S
C770 C789 1.429 . S
C770 H794 0.950 . S
C771 C788 1.574 . S
C771 C790 1.368 . S
C771 H795 0.949 . S
H772 C776 0.949 . S
C773 C774 1.349 . S
C773 C775 1.327 . S
C773 H796 0.950 . S
C774 C773 1.349 . S
C774 C786 1.349 . S
C775 C773 1.327 . S
C775 C791 1.429 . S
C775 H797 0.950 . S
C776 H772 0.949 . S
C776 C784 1.574 . S
C776 C792 1.368 . S
H777 C785 0.950 . S
H778 C783 0.950 . S
H779 C784 0.949 . S
H780 C786 0.950 . S
H781 C787 0.950 . S
H782 C788 0.949 . S
C783 H778 0.950 . S
C783 C785 1.327 . S
C783 C789 1.429 . S
C784 C776 1.574 . S
C784 H779 0.949 . S
C784 C790 1.368 . S
C785 C769 1.349 . S
C785 H777 0.950 . S
C785 C783 1.327 . S
C786 C774 1.349 . S
C786 H780 0.950 . S
C786 C787 1.327 . S
C787 H781 0.950 . S
C787 C786 1.327 . S
C787 C791 1.429 . S
C788 C771 1.574 . S
C788 H782 0.949 . S
C788 C792 1.368 . S
C789 C770 1.429 . S
C789 C783 1.429 . S
C789 C790 1.523 . S
C790 C771 1.368 . S
C790 C784 1.368 . S
C790 C789 1.523 . S
C791 C775 1.429 . S
C791 C787 1.429 . S
C791 C792 1.523 . S
C792 C776 1.368 . S
C792 C788 1.368 . S
C792 C791 1.523 . S
H793 C768 0.950 . S
H794 C770 0.950 . S
H795 C771 0.949 . S
H796 C773 0.950 . S
H797 C775 0.950 . S
C798 C799 1.349 . S
C798 C800 1.327 . S
C798 H823 0.950 . S
C799 C798 1.349 . S
C799 C815 1.349 . S
C800 C798 1.327 . S
C800 C819 1.429 . S
C800 H824 0.950 . S
C801 C818 1.574 . S
C801 C820 1.368 . S
C801 H825 0.949 . S
H802 C806 0.949 . S
C803 C804 1.349 . S
C803 C805 1.327 . S
C803 H826 0.950 . S
C804 C803 1.349 . S
C804 C816 1.349 . S
C805 C803 1.327 . S
C805 C821 1.429 . S
C805 H827 0.950 . S
C806 H802 0.949 . S
C806 C814 1.574 . S
C806 C822 1.368 . S
H807 C815 0.950 . S
H808 C813 0.950 . S
H809 C814 0.949 . S
H810 C816 0.950 . S
H811 C817 0.950 . S
H812 C818 0.949 . S
C813 H808 0.950 . S
C813 C815 1.327 . S
C813 C819 1.429 . S
C814 C806 1.574 . S
C814 H809 0.949 . S
C814 C820 1.368 . S
C815 C799 1.349 . S
C815 H807 0.950 . S
C815 C813 1.327 . S
C816 C804 1.349 . S
C816 H810 0.950 . S
C816 C817 1.327 . S
C817 H811 0.950 . S
C817 C816 1.327 . S
C817 C821 1.429 . S
C818 C801 1.574 . S
C818 H812 0.949 . S
C818 C822 1.368 . S
C819 C800 1.429 . S
C819 C813 1.429 . S
C819 C820 1.523 . S
C820 C801 1.368 . S
C820 C814 1.368 . S
C820 C819 1.523 . S
C821 C805 1.429 . S
C821 C817 1.429 . S
C821 C822 1.523 . S
C822 C806 1.368 . S
C822 C818 1.368 . S
C822 C821 1.523 . S
H823 C798 0.950 . S
H824 C800 0.950 . S
H825 C801 0.949 . S
H826 C803 0.950 . S
H827 C805 0.950 . S
C828 C829 1.349 . S
C828 C830 1.327 . S
C828 H853 0.950 . S
C829 C828 1.349 . S
C829 C845 1.349 . S
C830 C828 1.327 . S
C830 C849 1.429 . S
C830 H854 0.950 . S
C831 C848 1.574 . S
C831 C850 1.368 . S
C831 H855 0.949 . S
H832 C836 0.949 . S
C833 C834 1.349 . S
C833 C835 1.327 . S
C833 H856 0.950 . S
C834 C833 1.349 . S
C834 C846 1.349 . S
C835 C833 1.327 . S
C835 C851 1.429 . S
C835 H857 0.950 . S
C836 H832 0.949 . S
C836 C844 1.574 . S
C836 C852 1.368 . S
H837 C845 0.950 . S
H838 C843 0.950 . S
H839 C844 0.949 . S
H840 C846 0.950 1_554 S
H841 C847 0.950 . S
H842 C848 0.949 . S
C843 H838 0.950 . S
C843 C845 1.327 . S
C843 C849 1.429 . S
C844 C836 1.574 . S
C844 H839 0.949 . S
C844 C850 1.368 . S
C845 C829 1.349 . S
C845 H837 0.950 . S
C845 C843 1.327 . S
C846 C834 1.349 . S
C846 H840 0.950 1_556 S
C846 C847 1.327 . S
C847 H841 0.950 . S
C847 C846 1.327 . S
C847 C851 1.429 . S
C848 C831 1.574 . S
C848 H842 0.949 . S
C848 C852 1.368 . S
C849 C830 1.429 . S
C849 C843 1.429 . S
C849 C850 1.523 . S
C850 C831 1.368 . S
C850 C844 1.368 . S
C850 C849 1.523 . S
C851 C835 1.429 . S
C851 C847 1.429 . S
C851 C852 1.523 . S
C852 C836 1.368 . S
C852 C848 1.368 . S
C852 C851 1.523 . S
H853 C828 0.950 . S
H854 C830 0.950 . S
H855 C831 0.949 . S
H856 C833 0.950 . S
H857 C835 0.950 . S
C858 C859 1.349 . S
C858 C860 1.327 . S
C858 H883 0.950 . S
C859 C858 1.349 . S
C859 C875 1.349 . S
C860 C858 1.327 . S
C860 C879 1.429 . S
C860 H884 0.950 . S
C861 C878 1.574 . S
C861 C880 1.368 . S
C861 H885 0.949 . S
H862 C866 0.949 . S
C863 C864 1.349 . S
C863 C865 1.327 . S
C863 H886 0.950 . S
C864 C863 1.349 . S
C864 C876 1.349 . S
C865 C863 1.327 . S
C865 C881 1.429 . S
C865 H887 0.950 . S
C866 H862 0.949 . S
C866 C874 1.574 . S
C866 C882 1.368 . S
H867 C875 0.950 . S
H868 C873 0.950 . S
H869 C874 0.949 . S
H870 C876 0.950 . S
H871 C877 0.950 . S
H872 C878 0.949 . S
C873 H868 0.950 . S
C873 C875 1.327 . S
C873 C879 1.429 . S
C874 C866 1.574 . S
C874 H869 0.949 . S
C874 C880 1.368 . S
C875 C859 1.349 . S
C875 H867 0.950 . S
C875 C873 1.327 . S
C876 C864 1.349 . S
C876 H870 0.950 . S
C876 C877 1.327 . S
C877 H871 0.950 . S
C877 C876 1.327 . S
C877 C881 1.429 . S
C878 C861 1.574 . S
C878 H872 0.949 . S
C878 C882 1.368 . S
C879 C860 1.429 . S
C879 C873 1.429 . S
C879 C880 1.523 . S
C880 C861 1.368 . S
C880 C874 1.368 . S
C880 C879 1.523 . S
C881 C865 1.429 . S
C881 C877 1.429 . S
C881 C882 1.523 . S
C882 C866 1.368 . S
C882 C878 1.368 . S
C882 C881 1.523 . S
H883 C858 0.950 . S
H884 C860 0.950 . S
H885 C861 0.949 . S
H886 C863 0.950 . S
H887 C865 0.950 . S
C169 C123 1.303 . S
C174 C11 1.303 . S
C199 C25 1.303 . S
C204 C137 1.303 . S
C229 C39 1.304 . S
C234 C151 1.304 . S
C259 C53 1.303 . S
C264 C165 1.303 . S
C289 C95 1.303 . S
C294 C67 1.304 . S
C319 C81 1.304 . S
C324 C109 1.304 . S
C349 C12 1.306 . S
C354 C75 1.198 . S
C379 C26 1.306 . S
C384 C5 1.198 1_655 S
C409 C40 1.306 . S
C414 C19 1.198 1_565 S
C439 C33 1.198 . S
C444 C54 1.306 . S
C469 C47 1.198 1_455 S
C474 C68 1.306 . S
C499 C61 1.198 1_545 S
C504 C82 1.306 . S
C529 C103 1.198 . S
C534 C96 1.306 . S
C559 C110 1.306 . S
C564 C117 1.198 1_655 S
C589 C131 1.198 1_565 S
C594 C124 1.306 . S
C619 C138 1.306 . S
C624 C145 1.198 . S
C649 C152 1.306 . S
C654 C159 1.198 1_455 S
C679 C166 1.306 . S
C684 C89 1.198 1_545 S
C709 C144 1.181 . S
C714 C4 1.181 . S
C739 C158 1.181 . S
C744 C18 1.181 . S
C769 C88 1.181 . S
C774 C32 1.181 . S
C799 C46 1.181 . S
C804 C102 1.181 . S
C829 C60 1.181 . S
C834 C116 1.181 1_556 S
C859 C130 1.181 . S
C864 C74 1.181 1_554 S
