# Generated by pormake.
# Topology tzs, (4)-cn, num edge types: 1
# Building blocks:
#     Node 0, Type 0, BuildingBlock: NAHDIM_clean_sbu_0, # of connection points: 4
#     Node 1, Type 0, BuildingBlock: NAHDIM_clean_sbu_0, # of connection points: 4
#     Node 2, Type 0, BuildingBlock: NAHDIM_clean_sbu_0, # of connection points: 4
#     Node 3, Type 0, BuildingBlock: NAHDIM_clean_sbu_0, # of connection points: 4
#     Node 4, Type 0, BuildingBlock: NAHDIM_clean_sbu_0, # of connection points: 4
#     Node 5, Type 0, BuildingBlock: NAHDIM_clean_sbu_0, # of connection points: 4
#     Node 6, Type 0, BuildingBlock: NAHDIM_clean_sbu_0, # of connection points: 4
#     Node 7, Type 0, BuildingBlock: NAHDIM_clean_sbu_0, # of connection points: 4
#     Node 8, Type 0, BuildingBlock: NAHDIM_clean_sbu_0, # of connection points: 4
#     Node 9, Type 0, BuildingBlock: NAHDIM_clean_sbu_0, # of connection points: 4
#     Node 10, Type 0, BuildingBlock: NAHDIM_clean_sbu_0, # of connection points: 4
#     Node 11, Type 0, BuildingBlock: NAHDIM_clean_sbu_0, # of connection points: 4
#     Node 12, Type 0, BuildingBlock: NAHDIM_clean_sbu_0, # of connection points: 4
#     Node 13, Type 0, BuildingBlock: NAHDIM_clean_sbu_0, # of connection points: 4
#     Node 14, Type 0, BuildingBlock: NAHDIM_clean_sbu_0, # of connection points: 4
#     Node 15, Type 0, BuildingBlock: NAHDIM_clean_sbu_0, # of connection points: 4
#     Edge 16, Type (0, 0), BuildingBlock: MIFKUJ_clean_linker_0, # of connection points: 2
#     Edge 17, Type (0, 0), BuildingBlock: MIFKUJ_clean_linker_0, # of connection points: 2
#     Edge 18, Type (0, 0), BuildingBlock: MIFKUJ_clean_linker_0, # of connection points: 2
#     Edge 19, Type (0, 0), BuildingBlock: MIFKUJ_clean_linker_0, # of connection points: 2
#     Edge 20, Type (0, 0), BuildingBlock: MIFKUJ_clean_linker_0, # of connection points: 2
#     Edge 21, Type (0, 0), BuildingBlock: MIFKUJ_clean_linker_0, # of connection points: 2
#     Edge 22, Type (0, 0), BuildingBlock: MIFKUJ_clean_linker_0, # of connection points: 2
#     Edge 23, Type (0, 0), BuildingBlock: MIFKUJ_clean_linker_0, # of connection points: 2
#     Edge 24, Type (0, 0), BuildingBlock: MIFKUJ_clean_linker_0, # of connection points: 2
#     Edge 25, Type (0, 0), BuildingBlock: MIFKUJ_clean_linker_0, # of connection points: 2
#     Edge 26, Type (0, 0), BuildingBlock: MIFKUJ_clean_linker_0, # of connection points: 2
#     Edge 27, Type (0, 0), BuildingBlock: MIFKUJ_clean_linker_0, # of connection points: 2
#     Edge 28, Type (0, 0), BuildingBlock: MIFKUJ_clean_linker_0, # of connection points: 2
#     Edge 29, Type (0, 0), BuildingBlock: MIFKUJ_clean_linker_0, # of connection points: 2
#     Edge 30, Type (0, 0), BuildingBlock: MIFKUJ_clean_linker_0, # of connection points: 2
#     Edge 31, Type (0, 0), BuildingBlock: MIFKUJ_clean_linker_0, # of connection points: 2
#     Edge 32, Type (0, 0), BuildingBlock: MIFKUJ_clean_linker_0, # of connection points: 2
#     Edge 33, Type (0, 0), BuildingBlock: MIFKUJ_clean_linker_0, # of connection points: 2
#     Edge 34, Type (0, 0), BuildingBlock: MIFKUJ_clean_linker_0, # of connection points: 2
#     Edge 35, Type (0, 0), BuildingBlock: MIFKUJ_clean_linker_0, # of connection points: 2
#     Edge 36, Type (0, 0), BuildingBlock: MIFKUJ_clean_linker_0, # of connection points: 2
#     Edge 37, Type (0, 0), BuildingBlock: MIFKUJ_clean_linker_0, # of connection points: 2
#     Edge 38, Type (0, 0), BuildingBlock: MIFKUJ_clean_linker_0, # of connection points: 2
#     Edge 39, Type (0, 0), BuildingBlock: MIFKUJ_clean_linker_0, # of connection points: 2
#     Edge 40, Type (0, 0), BuildingBlock: MIFKUJ_clean_linker_0, # of connection points: 2
#     Edge 41, Type (0, 0), BuildingBlock: MIFKUJ_clean_linker_0, # of connection points: 2
#     Edge 42, Type (0, 0), BuildingBlock: MIFKUJ_clean_linker_0, # of connection points: 2
#     Edge 43, Type (0, 0), BuildingBlock: MIFKUJ_clean_linker_0, # of connection points: 2
#     Edge 44, Type (0, 0), BuildingBlock: MIFKUJ_clean_linker_0, # of connection points: 2
#     Edge 45, Type (0, 0), BuildingBlock: MIFKUJ_clean_linker_0, # of connection points: 2
#     Edge 46, Type (0, 0), BuildingBlock: MIFKUJ_clean_linker_0, # of connection points: 2
#     Edge 47, Type (0, 0), BuildingBlock: MIFKUJ_clean_linker_0, # of connection points: 2
# Relax obj value: 0.068
# Max RMSD: 0.082
# Mean RMSD: 0.082
data_MOF--net-tzs--node1-NAHDIM_clean_sbu_0--edge1-MIFKUJ_clean_linker_0
_symmetry_space_group_name_H-M    P1
_symmetry_Int_Tables_number       1
_symmetry_cell_setting            triclinic
loop_
_symmetry_equiv_pos_as_xyz
'x, y, z'
_cell_length_a     63.484755
_cell_length_b     63.466262
_cell_length_c     51.120668
_cell_angle_alpha  89.983965
_cell_angle_beta   90.008765
_cell_angle_gamma 89.993049
loop_
_atom_site_label
_atom_site_type_symbol
_atom_site_fract_x
_atom_site_fract_y
_atom_site_fract_z
_atom_type_partial_charge
C0 C 0.18267 0.34217 0.22659 0.0
O1 O 0.17888 0.35947 0.23988 0.0
O2 O 0.15625 0.38802 0.20112 0.0
Zn3 Zn 0.15059 0.35801 0.19108 0.0
O4 O 0.15028 0.3552 0.15195 0.0
C5 C 0.10574 0.35751 0.1955 0.0
O6 O 0.10731 0.36961 0.17473 0.0
O7 O 0.17253 0.33858 0.20563 0.0
C8 C 0.14008 0.34038 0.14103 0.0
O9 O 0.12973 0.32683 0.1556 0.0
C10 C 0.17396 0.39726 0.19959 0.0
O11 O 0.19036 0.38696 0.19054 0.0
O12 O 0.12238 0.35028 0.20596 0.0
C13 C 0.66783 0.18362 0.19287 0.0
O14 O 0.65461 0.18782 0.17379 0.0
O15 O 0.61516 0.15824 0.20939 0.0
Zn16 Zn 0.64245 0.14718 0.19467 0.0
O17 O 0.64161 0.14618 0.15534 0.0
C18 C 0.63173 0.10624 0.21365 0.0
O19 O 0.61268 0.11414 0.21153 0.0
O20 O 0.66584 0.16647 0.20545 0.0
C21 C 0.62951 0.13384 0.14281 0.0
O22 O 0.61681 0.12129 0.1558 0.0
C23 C 0.60052 0.1662 0.1956 0.0
O24 O 0.60316 0.16825 0.17025 0.0
O25 O 0.64749 0.11775 0.20808 0.0
C26 C 0.81447 0.66107 0.1967 0.0
O27 O 0.80783 0.64284 0.18774 0.0
O28 O 0.84392 0.61497 0.19359 0.0
Zn29 Zn 0.85368 0.64354 0.1814 0.0
O30 O 0.85238 0.64508 0.142 0.0
C31 C 0.89654 0.63411 0.19513 0.0
O32 O 0.89104 0.6153 0.18691 0.0
O33 O 0.83404 0.66522 0.19602 0.0
C34 C 0.86824 0.64215 0.12727 0.0
O35 O 0.88671 0.63834 0.13777 0.0
C36 C 0.84488 0.59869 0.17918 0.0
O37 O 0.85267 0.60026 0.15546 0.0
O38 O 0.8831 0.64895 0.19469 0.0
C39 C 0.33436 0.81146 0.20265 0.0
O40 O 0.34879 0.80653 0.18527 0.0
O41 O 0.38351 0.8441 0.21289 0.0
Zn42 Zn 0.35505 0.85053 0.19758 0.0
O43 O 0.35574 0.84758 0.15848 0.0
C44 C 0.3567 0.89503 0.19476 0.0
O45 O 0.37078 0.89017 0.17691 0.0
O46 O 0.33382 0.83012 0.21162 0.0
C47 C 0.34122 0.85535 0.14439 0.0
O48 O 0.32559 0.86544 0.15565 0.0
C49 C 0.39967 0.84127 0.19865 0.0
O50 O 0.39778 0.84225 0.17309 0.0
O51 O 0.34731 0.88028 0.20687 0.0
C52 C 0.17587 0.66224 0.27949 0.0
O53 O 0.17132 0.64585 0.26485 0.0
O54 O 0.15147 0.61475 0.30273 0.0
Zn55 Zn 0.14463 0.64429 0.31402 0.0
O56 O 0.14347 0.64508 0.35315 0.0
C57 C 0.11078 0.6448 0.27741 0.0
O58 O 0.12415 0.63317 0.26415 0.0
O59 O 0.16639 0.66474 0.30115 0.0
C60 C 0.13364 0.6306 0.36521 0.0
O61 O 0.12442 0.61562 0.35166 0.0
C62 C 0.16964 0.60642 0.30371 0.0
O63 O 0.18562 0.61746 0.31259 0.0
O64 O 0.11622 0.65195 0.29961 0.0
C65 C 0.33346 0.18587 0.30471 0.0
O66 O 0.34879 0.1896 0.32133 0.0
O67 O 0.38086 0.15305 0.29275 0.0
Zn68 Zn 0.35206 0.14526 0.30599 0.0
O69 O 0.35235 0.14313 0.34509 0.0
C70 C 0.34932 0.1118 0.26828 0.0
O71 O 0.3599 0.12524 0.25381 0.0
O72 O 0.3315 0.1675 0.29517 0.0
C73 C 0.36164 0.12789 0.35633 0.0
O74 O 0.37102 0.11349 0.342 0.0
C75 C 0.3949 0.16136 0.30716 0.0
O76 O 0.39068 0.16521 0.33186 0.0
O77 O 0.34379 0.11716 0.29121 0.0
C78 C 0.82668 0.33385 0.26437 0.0
O79 O 0.8317 0.34968 0.24904 0.0
O80 O 0.84628 0.38295 0.2836 0.0
Zn81 Zn 0.85407 0.35539 0.30007 0.0
O82 O 0.8514 0.35781 0.33905 0.0
C83 C 0.89908 0.34566 0.30481 0.0
O84 O 0.89575 0.34611 0.33016 0.0
O85 O 0.83457 0.33287 0.28717 0.0
C86 C 0.8511 0.34147 0.35339 0.0
O87 O 0.85293 0.32282 0.34247 0.0
C88 C 0.83185 0.39488 0.29234 0.0
O89 O 0.82125 0.38917 0.31324 0.0
O90 O 0.8838 0.34877 0.2892 0.0
C91 C 0.6661 0.81031 0.2995 0.0
O92 O 0.6477 0.80401 0.30828 0.0
O93 O 0.61961 0.83895 0.3 0.0
Zn94 Zn 0.64796 0.85018 0.31072 0.0
O95 O 0.64964 0.85338 0.34978 0.0
C96 C 0.63647 0.88867 0.28483 0.0
O97 O 0.61764 0.88023 0.28663 0.0
O98 O 0.67015 0.8299 0.2988 0.0
C99 C 0.64422 0.87046 0.36088 0.0
O100 O 0.63733 0.88619 0.34653 0.0
C101 C 0.60409 0.83647 0.31538 0.0
O102 O 0.60641 0.8405 0.34042 0.0
O103 O 0.65228 0.87856 0.29359 0.0
C104 C 0.82593 0.68194 0.79336 0.0
O105 O 0.83983 0.68713 0.81129 0.0
O106 O 0.87833 0.65719 0.78311 0.0
Zn107 Zn 0.85062 0.64554 0.79557 0.0
O108 O 0.84977 0.6459 0.83492 0.0
C109 C 0.86056 0.60219 0.79146 0.0
O110 O 0.87495 0.60821 0.80835 0.0
O111 O 0.82724 0.66394 0.78261 0.0
C112 C 0.84086 0.63178 0.84861 0.0
O113 O 0.83141 0.61592 0.83701 0.0
C114 C 0.89434 0.65762 0.79804 0.0
O115 O 0.8926 0.65072 0.82217 0.0
O116 O 0.84771 0.61577 0.78253 0.0
C117 C 0.31236 0.8336 0.80948 0.0
O118 O 0.30805 0.8411 0.83283 0.0
O119 O 0.33599 0.89174 0.7988 0.0
Zn120 Zn 0.3461 0.86369 0.81199 0.0
O121 O 0.34494 0.86273 0.85117 0.0
C122 C 0.38002 0.86269 0.77593 0.0
O123 O 0.36485 0.86871 0.76011 0.0
O124 O 0.32797 0.84094 0.7969 0.0
C125 C 0.35541 0.84927 0.86417 0.0
O126 O 0.36744 0.83576 0.85168 0.0
C127 C 0.33379 0.90762 0.81367 0.0
O128 O 0.33783 0.90571 0.83876 0.0
O129 O 0.37579 0.85938 0.79986 0.0
C130 C 0.16461 0.32746 0.76841 0.0
O131 O 0.14809 0.33329 0.75474 0.0
O132 O 0.11676 0.3489 0.79323 0.0
Zn133 Zn 0.14551 0.35296 0.80885 0.0
O134 O 0.14541 0.34778 0.84777 0.0
C135 C 0.14197 0.39693 0.81395 0.0
O136 O 0.12678 0.39067 0.82959 0.0
O137 O 0.16671 0.33401 0.79175 0.0
C138 C 0.12893 0.34368 0.86096 0.0
O139 O 0.11067 0.34238 0.84903 0.0
C140 C 0.10673 0.33165 0.79118 0.0
O141 O 0.11525 0.31415 0.79995 0.0
O142 O 0.1532 0.38315 0.80253 0.0
C143 C 0.68748 0.15707 0.79842 0.0
O144 O 0.69393 0.13893 0.80789 0.0
O145 O 0.65897 0.11028 0.79921 0.0
Zn146 Zn 0.64782 0.13876 0.81014 0.0
O147 O 0.64599 0.14086 0.8494 0.0
C148 C 0.60722 0.12793 0.78925 0.0
O149 O 0.61421 0.10877 0.79364 0.0
O150 O 0.66785 0.16085 0.79734 0.0
C151 C 0.62986 0.13451 0.86186 0.0
O152 O 0.61399 0.12635 0.84888 0.0
C153 C 0.6588 0.09427 0.81415 0.0
O154 O 0.65116 0.09601 0.83791 0.0
O155 O 0.61904 0.14355 0.79443 0.0
C156 C 0.83687 0.30912 0.70425 0.0
O157 O 0.85585 0.30313 0.69723 0.0
O158 O 0.88153 0.34158 0.69792 0.0
Zn159 Zn 0.85219 0.34884 0.68635 0.0
O160 O 0.85085 0.34729 0.64715 0.0
C161 C 0.85065 0.38333 0.72206 0.0
O162 O 0.8591 0.36916 0.7376 0.0
O163 O 0.83163 0.32831 0.70154 0.0
C164 C 0.84458 0.36255 0.63307 0.0
O165 O 0.83862 0.38016 0.64433 0.0
C166 C 0.89618 0.35472 0.6935 0.0
O167 O 0.8917 0.37233 0.68115 0.0
O168 O 0.84566 0.37808 0.6989 0.0
C169 C 0.6647 0.83104 0.72695 0.0
O170 O 0.66089 0.84703 0.74256 0.0
O171 O 0.64854 0.88144 0.70963 0.0
Zn172 Zn 0.63898 0.855 0.6917 0.0
O173 O 0.64298 0.85793 0.65283 0.0
C174 C 0.59362 0.85469 0.68484 0.0
O175 O 0.59829 0.86199 0.66153 0.0
O176 O 0.65655 0.83079 0.70426 0.0
C177 C 0.64101 0.87548 0.64109 0.0
O178 O 0.63595 0.89235 0.65459 0.0
C179 C 0.66588 0.89043 0.70424 0.0
O180 O 0.67817 0.88235 0.68615 0.0
O181 O 0.60841 0.85019 0.70066 0.0
C182 C 0.17929 0.67439 0.69765 0.0
O183 O 0.18193 0.66752 0.67363 0.0
O184 O 0.11428 0.6549 0.70956 0.0
Zn185 Zn 0.14313 0.64666 0.69732 0.0
O186 O 0.14358 0.64592 0.65814 0.0
C187 C 0.14339 0.61314 0.73425 0.0
O188 O 0.13319 0.6273 0.74805 0.0
O189 O 0.16394 0.66755 0.71112 0.0
C190 C 0.13363 0.63151 0.64615 0.0
O191 O 0.12341 0.61723 0.65977 0.0
C192 C 0.10194 0.66664 0.6965 0.0
O193 O 0.10809 0.67404 0.67374 0.0
O194 O 0.1498 0.61793 0.71147 0.0
C195 C 0.31626 0.17503 0.68314 0.0
O196 O 0.31159 0.16085 0.66535 0.0
O197 O 0.33961 0.12303 0.70351 0.0
Zn198 Zn 0.35216 0.14892 0.68698 0.0
O199 O 0.35382 0.14576 0.64795 0.0
C200 C 0.39154 0.13726 0.70962 0.0
O201 O 0.38243 0.11869 0.709 0.0
O202 O 0.33358 0.17349 0.69546 0.0
C203 C 0.3642 0.13111 0.63696 0.0
O204 O 0.3743 0.11733 0.65148 0.0
C205 C 0.32931 0.10888 0.69146 0.0
O206 O 0.32553 0.11104 0.66634 0.0
O207 O 0.38148 0.15323 0.70126 0.0
H208 H 0.33334 0.2268 0.3214 0.0
H209 H 0.30889 0.25478 0.30876 0.0
H210 H 0.27578 0.21131 0.25859 0.0
H211 H 0.30027 0.18331 0.27085 0.0
H212 H 0.28305 0.24877 0.2346 0.0
H213 H 0.25596 0.2249 0.31795 0.0
H214 H 0.25832 0.21682 0.36505 0.0
H215 H 0.27461 0.28117 0.38124 0.0
H216 H 0.27262 0.28958 0.33417 0.0
H217 H 0.18825 0.30176 0.21012 0.0
H218 H 0.21506 0.27676 0.22431 0.0
H219 H 0.24068 0.32334 0.27695 0.0
H220 H 0.21334 0.3483 0.26342 0.0
H221 H 0.23944 0.28647 0.30015 0.0
H222 H 0.26492 0.31125 0.2178 0.0
H223 H 0.26315 0.3199 0.17082 0.0
H224 H 0.25115 0.25495 0.15264 0.0
H225 H 0.25256 0.24595 0.19955 0.0
C226 C 0.32085 0.22318 0.30769 0.0
C227 C 0.3187 0.20282 0.29717 0.0
C228 C 0.30687 0.23918 0.30056 0.0
C229 C 0.29043 0.23505 0.28293 0.0
C230 C 0.28837 0.2148 0.27224 0.0
C231 C 0.30234 0.19881 0.27933 0.0
C232 C 0.27539 0.2518 0.27545 0.0
C233 C 0.27335 0.25688 0.24887 0.0
C234 C 0.26328 0.26283 0.29421 0.0
C235 C 0.26435 0.25781 0.32252 0.0
C236 C 0.2602 0.23729 0.33153 0.0
C237 C 0.26145 0.23266 0.35823 0.0
C238 C 0.26667 0.24846 0.37612 0.0
C239 C 0.2706 0.26894 0.36736 0.0
C240 C 0.2694 0.27365 0.34068 0.0
C241 C 0.19959 0.30671 0.22471 0.0
C242 C 0.19878 0.32703 0.23556 0.0
C243 C 0.21498 0.29243 0.23271 0.0
C244 C 0.23016 0.29832 0.25129 0.0
C245 C 0.22919 0.3185 0.26248 0.0
C246 C 0.21359 0.33274 0.25472 0.0
C247 C 0.24682 0.28324 0.25919 0.0
C248 C 0.24923 0.2785 0.28584 0.0
C249 C 0.2594 0.27262 0.2405 0.0
C250 C 0.25869 0.27795 0.21223 0.0
C251 C 0.26177 0.29883 0.2038 0.0
C252 C 0.26084 0.30379 0.17718 0.0
C253 C 0.257 0.28799 0.15876 0.0
C254 C 0.25412 0.26718 0.16693 0.0
C255 C 0.255 0.26213 0.19353 0.0
H256 H 0.25628 0.29187 0.13816 0.0
H257 H 0.26763 0.24484 0.39678 0.0
H258 H 0.81538 0.29766 0.28968 0.0
H259 H 0.78927 0.27167 0.2759 0.0
H260 H 0.77732 0.30752 0.20575 0.0
H261 H 0.8034 0.33369 0.21939 0.0
H262 H 0.74096 0.29579 0.23126 0.0
H263 H 0.80486 0.26309 0.20172 0.0
H264 H 0.84107 0.24952 0.20617 0.0
H265 H 0.82039 0.20565 0.26473 0.0
H266 H 0.78408 0.21917 0.2609 0.0
H267 H 0.67862 0.21953 0.16675 0.0
H268 H 0.70637 0.24457 0.17791 0.0
H269 H 0.72275 0.20715 0.24541 0.0
H270 H 0.6953 0.18173 0.23404 0.0
H271 H 0.75724 0.21981 0.22045 0.0
H272 H 0.69396 0.25264 0.25143 0.0
H273 H 0.65767 0.26628 0.24833 0.0
H274 H 0.67699 0.30995 0.18881 0.0
H275 H 0.71336 0.29636 0.19132 0.0
C276 C 0.80729 0.29998 0.27125 0.0
C277 C 0.81145 0.31773 0.25561 0.0
C278 C 0.79243 0.28507 0.26337 0.0
C279 C 0.78151 0.28763 0.23973 0.0
C280 C 0.78564 0.30529 0.22405 0.0
C281 C 0.80058 0.32017 0.23184 0.0
C282 C 0.7653 0.27217 0.23179 0.0
C283 C 0.74454 0.27922 0.22848 0.0
C284 C 0.76997 0.2505 0.22892 0.0
C285 C 0.79178 0.24229 0.23119 0.0
C286 C 0.80806 0.25067 0.2157 0.0
C287 C 0.8286 0.24297 0.21808 0.0
C288 C 0.83304 0.22677 0.23577 0.0
C289 C 0.81693 0.21821 0.25106 0.0
C290 C 0.79636 0.22588 0.24878 0.0
C291 C 0.68811 0.21661 0.18398 0.0
C292 C 0.6847 0.1987 0.19959 0.0
C293 C 0.70392 0.23099 0.19038 0.0
C294 C 0.71642 0.22787 0.2127 0.0
C295 C 0.71325 0.20986 0.22813 0.0
C296 C 0.69752 0.19539 0.22164 0.0
C297 C 0.73283 0.24341 0.21993 0.0
C298 C 0.75363 0.23638 0.22314 0.0
C299 C 0.72818 0.26509 0.22289 0.0
C300 C 0.70633 0.27333 0.22138 0.0
C301 C 0.69044 0.26503 0.23754 0.0
C302 C 0.66986 0.27278 0.23591 0.0
C303 C 0.66502 0.28893 0.21833 0.0
C304 C 0.68076 0.29741 0.20239 0.0
C305 C 0.70136 0.28971 0.20392 0.0
H306 H 0.64908 0.29491 0.21711 0.0
H307 H 0.84895 0.22083 0.23758 0.0
H308 H 0.77257 0.6553 0.2062 0.0
H309 H 0.74763 0.68076 0.22414 0.0
H310 H 0.79709 0.72722 0.22906 0.0
H311 H 0.82228 0.70166 0.21172 0.0
H312 H 0.77414 0.72756 0.27219 0.0
H313 H 0.75976 0.72889 0.18026 0.0
H314 H 0.7514 0.71396 0.13696 0.0
H315 H 0.693 0.68971 0.16676 0.0
H316 H 0.70115 0.70426 0.21036 0.0
H317 H 0.70732 0.81724 0.28663 0.0
H318 H 0.73273 0.79156 0.26996 0.0
H319 H 0.68545 0.74287 0.27378 0.0
H320 H 0.65993 0.76838 0.29055 0.0
H321 H 0.70725 0.74399 0.22626 0.0
H322 H 0.72222 0.74333 0.31848 0.0
H323 H 0.73087 0.75921 0.36116 0.0
H324 H 0.78868 0.7835 0.32967 0.0
H325 H 0.78022 0.76802 0.28666 0.0
C326 C 0.77815 0.67094 0.21106 0.0
C327 C 0.79937 0.6765 0.20745 0.0
C328 C 0.76385 0.6855 0.22122 0.0
C329 C 0.77044 0.70598 0.22759 0.0
C330 C 0.79167 0.71151 0.22423 0.0
C331 C 0.80602 0.6969 0.21426 0.0
C332 C 0.75523 0.72157 0.23797 0.0
C333 C 0.75966 0.73137 0.26196 0.0
C334 C 0.73614 0.72623 0.22485 0.0
C335 C 0.73117 0.71749 0.19864 0.0
C336 C 0.74521 0.72023 0.17763 0.0
C337 C 0.74049 0.71186 0.15303 0.0
C338 C 0.7217 0.70084 0.14913 0.0
C339 C 0.70756 0.69822 0.16982 0.0
C340 C 0.71221 0.70654 0.19448 0.0
C341 C 0.70234 0.80106 0.28399 0.0
C342 C 0.68163 0.79482 0.28992 0.0
C343 C 0.71689 0.78642 0.27456 0.0
C344 C 0.71094 0.76535 0.2708 0.0
C345 C 0.69029 0.75908 0.27659 0.0
C346 C 0.67578 0.77366 0.28624 0.0
C347 C 0.7262 0.74989 0.26041 0.0
C348 C 0.72176 0.74015 0.23643 0.0
C349 C 0.74533 0.74542 0.27341 0.0
C350 C 0.75048 0.7547 0.29928 0.0
C351 C 0.73669 0.75222 0.32059 0.0
C352 C 0.74157 0.76111 0.34485 0.0
C353 C 0.76028 0.7724 0.34811 0.0
C354 C 0.77417 0.77478 0.32711 0.0
C355 C 0.76935 0.76593 0.30279 0.0
H356 H 0.76404 0.77927 0.36692 0.0
H357 H 0.71808 0.69438 0.13007 0.0
H358 H 0.30391 0.81576 0.24013 0.0
H359 H 0.27754 0.78974 0.25323 0.0
H360 H 0.30284 0.74556 0.19736 0.0
H361 H 0.32921 0.77148 0.18403 0.0
H362 H 0.25974 0.74821 0.19509 0.0
H363 H 0.31308 0.7391 0.26085 0.0
H364 H 0.33755 0.75069 0.29544 0.0
H365 H 0.28547 0.773 0.34131 0.0
H366 H 0.2607 0.7618 0.30681 0.0
H367 H 0.20423 0.65806 0.23962 0.0
H368 H 0.2316 0.68301 0.22659 0.0
H369 H 0.21138 0.72586 0.28714 0.0
H370 H 0.18442 0.70073 0.30076 0.0
H371 H 0.25252 0.72353 0.28675 0.0
H372 H 0.19914 0.73374 0.2214 0.0
H373 H 0.17423 0.72298 0.18688 0.0
H374 H 0.22551 0.69974 0.14036 0.0
H375 H 0.25072 0.71011 0.17476 0.0
C376 C 0.30391 0.80049 0.23068 0.0
C377 C 0.31867 0.79566 0.21107 0.0
C378 C 0.28888 0.78563 0.23825 0.0
C379 C 0.28837 0.7657 0.22638 0.0
C380 C 0.30301 0.76086 0.20675 0.0
C381 C 0.3181 0.77567 0.19924 0.0
C382 C 0.27231 0.75001 0.23415 0.0
C383 C 0.25831 0.74256 0.21505 0.0
C384 C 0.27019 0.74311 0.26032 0.0
C385 C 0.28506 0.74979 0.28113 0.0
C386 C 0.30686 0.74663 0.27822 0.0
C387 C 0.32078 0.7531 0.29783 0.0
C388 C 0.31307 0.76262 0.32053 0.0
C389 C 0.29142 0.76565 0.3237 0.0
C390 C 0.27743 0.75922 0.30414 0.0
C391 C 0.20557 0.67282 0.2501 0.0
C392 C 0.19214 0.67746 0.27117 0.0
C393 C 0.22117 0.68711 0.24257 0.0
C394 C 0.22337 0.70643 0.25567 0.0
C395 C 0.20998 0.71105 0.27675 0.0
C396 C 0.19454 0.69669 0.28447 0.0
C397 C 0.23979 0.72175 0.24771 0.0
C398 C 0.2539 0.72913 0.26677 0.0
C399 C 0.24192 0.72871 0.22153 0.0
C400 C 0.22679 0.72251 0.20077 0.0
C401 C 0.20509 0.72619 0.20389 0.0
C402 C 0.19092 0.72019 0.18433 0.0
C403 C 0.19828 0.71063 0.16147 0.0
C404 C 0.21983 0.70711 0.15809 0.0
C405 C 0.23407 0.71307 0.1776 0.0
H406 H 0.18728 0.70599 0.14635 0.0
H407 H 0.32387 0.76762 0.33569 0.0
H408 H 0.69042 0.83055 0.76975 0.0
H409 H 0.71693 0.80412 0.781 0.0
H410 H 0.69929 0.76745 0.71345 0.0
H411 H 0.67274 0.79383 0.70195 0.0
H412 H 0.70549 0.74319 0.75912 0.0
H413 H 0.74105 0.79643 0.70879 0.0
H414 H 0.75173 0.83271 0.69777 0.0
H415 H 0.78198 0.83889 0.77251 0.0
H416 H 0.7712 0.80272 0.78414 0.0
H417 H 0.79613 0.67739 0.75506 0.0
H418 H 0.76785 0.70196 0.74386 0.0
H419 H 0.78864 0.7441 0.80484 0.0
H420 H 0.81717 0.7199 0.81579 0.0
H421 H 0.78044 0.76534 0.76157 0.0
H422 H 0.74498 0.7127 0.81255 0.0
H423 H 0.734 0.67671 0.82458 0.0
H424 H 0.70337 0.66957 0.75022 0.0
H425 H 0.71441 0.70543 0.7376 0.0
C426 C 0.69203 0.81678 0.7574 0.0
C427 C 0.67958 0.81433 0.73487 0.0
C428 C 0.70723 0.80174 0.76382 0.0
C429 C 0.71016 0.784 0.74788 0.0
C430 C 0.69725 0.78109 0.72593 0.0
C431 C 0.68216 0.79621 0.71937 0.0
C432 C 0.72721 0.76885 0.75365 0.0
C433 C 0.72191 0.74791 0.75935 0.0
C434 C 0.74854 0.77523 0.75443 0.0
C435 C 0.75513 0.79694 0.74744 0.0
C436 C 0.74982 0.80559 0.72297 0.0
C437 C 0.75592 0.82612 0.71659 0.0
C438 C 0.76748 0.83812 0.73446 0.0
C439 C 0.773 0.82959 0.75871 0.0
C440 C 0.76691 0.80907 0.76519 0.0
C441 C 0.79467 0.69189 0.76608 0.0
C442 C 0.80886 0.69669 0.78634 0.0
C443 C 0.77845 0.70586 0.75974 0.0
C444 C 0.77599 0.72474 0.77373 0.0
C445 C 0.79024 0.72962 0.79381 0.0
C446 C 0.80652 0.71574 0.80006 0.0
C447 C 0.75877 0.7396 0.76729 0.0
C448 C 0.76403 0.76054 0.76137 0.0
C449 C 0.73741 0.73322 0.76647 0.0
C450 C 0.73071 0.71167 0.77403 0.0
C451 C 0.73605 0.70339 0.79868 0.0
C452 C 0.72979 0.68302 0.80562 0.0
C453 C 0.71805 0.67083 0.78814 0.0
C454 C 0.71249 0.67901 0.76372 0.0
C455 C 0.71873 0.69936 0.75667 0.0
H456 H 0.71321 0.65507 0.79355 0.0
H457 H 0.77219 0.85401 0.72948 0.0
H458 H 0.21201 0.6946 0.67343 0.0
H459 H 0.23524 0.72142 0.69208 0.0
H460 H 0.20262 0.71656 0.76588 0.0
H461 H 0.17915 0.69006 0.74733 0.0
H462 H 0.20824 0.75679 0.75227 0.0
H463 H 0.25124 0.69441 0.75706 0.0
H464 H 0.26907 0.66289 0.73962 0.0
H465 H 0.30482 0.7016 0.68694 0.0
H466 H 0.28698 0.73335 0.70383 0.0
H467 H 0.2801 0.81201 0.83255 0.0
H468 H 0.25809 0.78465 0.81302 0.0
H469 H 0.29239 0.79041 0.7405 0.0
H470 H 0.31477 0.81746 0.76005 0.0
H471 H 0.2861 0.75003 0.75248 0.0
H472 H 0.24349 0.81238 0.74775 0.0
H473 H 0.22568 0.84402 0.76493 0.0
H474 H 0.18915 0.80551 0.81701 0.0
H475 H 0.20695 0.77366 0.80038 0.0
C476 C 0.20983 0.69919 0.69365 0.0
C477 C 0.19375 0.6902 0.70891 0.0
C478 C 0.22316 0.71445 0.7043 0.0
C479 C 0.22076 0.72082 0.73043 0.0
C480 C 0.20473 0.71186 0.74567 0.0
C481 C 0.19136 0.69668 0.73504 0.0
C482 C 0.23462 0.73716 0.74183 0.0
C483 C 0.22526 0.7552 0.75262 0.0
C484 C 0.25683 0.7353 0.74164 0.0
C485 C 0.26762 0.71623 0.73153 0.0
C486 C 0.26278 0.69619 0.74161 0.0
C487 C 0.27291 0.67828 0.73185 0.0
C488 C 0.28803 0.68023 0.71213 0.0
C489 C 0.29308 0.70011 0.70218 0.0
C490 C 0.28298 0.71806 0.71186 0.0
C491 C 0.28296 0.80746 0.81245 0.0
C492 C 0.29911 0.81696 0.79781 0.0
C493 C 0.27033 0.79188 0.80128 0.0
C494 C 0.27343 0.78571 0.77519 0.0
C495 C 0.28972 0.79497 0.76065 0.0
C496 C 0.30245 0.81046 0.77184 0.0
C497 C 0.2597 0.76959 0.76307 0.0
C498 C 0.26909 0.75163 0.7521 0.0
C499 C 0.2375 0.77153 0.76305 0.0
C500 C 0.22669 0.79066 0.77298 0.0
C501 C 0.23177 0.81067 0.763 0.0
C502 C 0.22166 0.82864 0.77261 0.0
C503 C 0.20633 0.82678 0.79209 0.0
C504 C 0.20104 0.80694 0.80194 0.0
C505 C 0.21112 0.78892 0.79241 0.0
H506 H 0.19852 0.84071 0.79951 0.0
H507 H 0.29585 0.66635 0.7046 0.0
H508 H 0.20338 0.31772 0.78804 0.0
H509 H 0.22921 0.29321 0.76993 0.0
H510 H 0.18759 0.27997 0.70531 0.0
H511 H 0.1616 0.30459 0.72323 0.0
H512 H 0.20394 0.24385 0.72935 0.0
H513 H 0.22902 0.30903 0.69393 0.0
H514 H 0.24042 0.34615 0.69534 0.0
H515 H 0.29121 0.32964 0.7469 0.0
H516 H 0.27993 0.29245 0.7461 0.0
H517 H 0.27878 0.18353 0.65912 0.0
H518 H 0.25318 0.2107 0.67067 0.0
H519 H 0.29372 0.23187 0.73311 0.0
H520 H 0.31961 0.20497 0.72138 0.0
H521 H 0.27719 0.26464 0.70734 0.0
H522 H 0.25134 0.20053 0.74556 0.0
H523 H 0.24001 0.16337 0.74584 0.0
H524 H 0.19078 0.17776 0.69107 0.0
H525 H 0.20201 0.21498 0.69018 0.0
C526 C 0.19973 0.30967 0.76991 0.0
C527 C 0.18045 0.31308 0.75705 0.0
C528 C 0.21455 0.29575 0.75955 0.0
C529 C 0.21033 0.28493 0.73622 0.0
C530 C 0.19111 0.28825 0.72332 0.0
C531 C 0.17634 0.30235 0.73354 0.0
C532 C 0.22578 0.26965 0.72583 0.0
C533 C 0.21985 0.24842 0.72407 0.0
C534 C 0.24665 0.27562 0.71965 0.0
C535 C 0.25351 0.29797 0.72014 0.0
C536 C 0.24251 0.31334 0.70575 0.0
C537 C 0.24897 0.33439 0.7064 0.0
C538 C 0.2665 0.34026 0.72125 0.0
C539 C 0.27763 0.32507 0.73543 0.0
C540 C 0.27122 0.304 0.73486 0.0
C541 C 0.28231 0.19401 0.67525 0.0
C542 C 0.30117 0.19202 0.68945 0.0
C543 C 0.26762 0.20949 0.68187 0.0
C544 C 0.27143 0.2231 0.70298 0.0
C545 C 0.29047 0.22149 0.71678 0.0
C546 C 0.30521 0.20607 0.71009 0.0
C547 C 0.25541 0.23878 0.71102 0.0
C548 C 0.26123 0.26008 0.7124 0.0
C549 C 0.23446 0.23285 0.71706 0.0
C550 C 0.22767 0.21049 0.71758 0.0
C551 C 0.23821 0.19573 0.73341 0.0
C552 C 0.23179 0.17467 0.73371 0.0
C553 C 0.21473 0.16819 0.71842 0.0
C554 C 0.20402 0.18279 0.70286 0.0
C555 C 0.2104 0.20387 0.70246 0.0
H556 H 0.20978 0.15187 0.71869 0.0
H557 H 0.27147 0.35656 0.72172 0.0
H558 H 0.67996 0.19782 0.78386 0.0
H559 H 0.70552 0.2237 0.76829 0.0
H560 H 0.75519 0.17764 0.77555 0.0
H561 H 0.72982 0.15183 0.79181 0.0
H562 H 0.76786 0.21422 0.79401 0.0
H563 H 0.73387 0.19083 0.71552 0.0
H564 H 0.70387 0.18305 0.68644 0.0
H565 H 0.68552 0.24816 0.688 0.0
H566 H 0.71526 0.25629 0.71739 0.0
H567 H 0.84389 0.26772 0.71604 0.0
H568 H 0.81846 0.24208 0.73271 0.0
H569 H 0.77009 0.28982 0.73267 0.0
H570 H 0.79537 0.31556 0.71593 0.0
H571 H 0.75696 0.25249 0.71044 0.0
H572 H 0.79181 0.27541 0.78903 0.0
H573 H 0.82245 0.28258 0.81731 0.0
H574 H 0.83999 0.21728 0.81432 0.0
H575 H 0.80959 0.20977 0.78571 0.0
C576 C 0.69632 0.19319 0.78212 0.0
C577 C 0.70287 0.17276 0.78897 0.0
C578 C 0.7109 0.20797 0.77311 0.0
C579 C 0.73222 0.2025 0.7704 0.0
C580 C 0.73882 0.18218 0.77746 0.0
C581 C 0.72428 0.16744 0.78669 0.0
C582 C 0.74768 0.21803 0.76042 0.0
C583 C 0.76561 0.22237 0.77556 0.0
C584 C 0.74455 0.22896 0.73659 0.0
C585 C 0.72667 0.22413 0.71886 0.0
C586 C 0.72334 0.20346 0.70982 0.0
C587 C 0.7064 0.19899 0.69326 0.0
C588 C 0.69276 0.21509 0.68543 0.0
C589 C 0.69607 0.2357 0.6941 0.0
C590 C 0.71298 0.24025 0.7107 0.0
C591 C 0.82786 0.27279 0.71963 0.0
C592 C 0.82164 0.29367 0.71471 0.0
C593 C 0.81338 0.25814 0.72923 0.0
C594 C 0.79247 0.26414 0.73407 0.0
C595 C 0.78618 0.28493 0.72906 0.0
C596 C 0.80066 0.29961 0.71958 0.0
C597 C 0.77705 0.24863 0.74404 0.0
C598 C 0.75916 0.2443 0.72888 0.0
C599 C 0.78031 0.2376 0.76773 0.0
C600 C 0.79854 0.24207 0.78502 0.0
C601 C 0.8023 0.26261 0.79423 0.0
C602 C 0.8196 0.26673 0.81035 0.0
C603 C 0.83319 0.25041 0.81755 0.0
C604 C 0.82946 0.22992 0.8087 0.0
C605 C 0.81219 0.22572 0.79255 0.0
H606 H 0.84658 0.25363 0.83003 0.0
H607 H 0.67966 0.2116 0.6726 0.0
H608 H 0.162 0.35352 0.89283 0.0
H609 H 0.16368 0.35056 0.94035 0.0
H610 H 0.10081 0.32469 0.94149 0.0
H611 H 0.09876 0.32829 0.89393 0.0
H612 H 0.10421 0.35261 0.97808 0.0
H613 H 0.14563 0.29368 0.95196 0.0
H614 H 0.1735 0.27456 0.92821 0.0
H615 H 0.22072 0.31228 0.96593 0.0
H616 H 0.1931 0.33184 0.98965 0.0
H617 H 0.11182 0.31858 0.11128 0.0
H618 H 0.10992 0.31712 0.06345 0.0
H619 H 0.16483 0.35687 0.05802 0.0
H620 H 0.16667 0.35872 0.10581 0.0
H621 H 0.16465 0.31973 0.02421 0.0
H622 H 0.12142 0.37945 0.04865 0.0
H623 H 0.09273 0.39687 0.07291 0.0
H624 H 0.04775 0.35467 0.03843 0.0
H625 H 0.07625 0.33677 0.01426 0.0
C626 C 0.14858 0.34708 0.90317 0.0
C627 C 0.13026 0.3411 0.88963 0.0
C628 C 0.1496 0.34529 0.93035 0.0
C629 C 0.1325 0.3371 0.94449 0.0
C630 C 0.11422 0.33103 0.93099 0.0
C631 C 0.11308 0.33306 0.90381 0.0
C632 C 0.13342 0.33564 0.97345 0.0
C633 C 0.11727 0.34508 0.9881 0.0
C634 C 0.15059 0.32609 0.98662 0.0
C635 C 0.16727 0.31436 0.97241 0.0
C636 C 0.16194 0.29801 0.95504 0.0
C637 C 0.1777 0.28707 0.94161 0.0
C638 C 0.19886 0.29223 0.94551 0.0
C639 C 0.20431 0.30832 0.96291 0.0
C640 C 0.18862 0.31932 0.97637 0.0
C641 C 0.12355 0.32693 0.0999 0.0
C642 C 0.13935 0.33883 0.11225 0.0
C643 C 0.12241 0.3261 0.07264 0.0
C644 C 0.13721 0.33693 0.05734 0.0
C645 C 0.1533 0.3484 0.06958 0.0
C646 C 0.15426 0.34951 0.09683 0.0
C647 C 0.13558 0.33679 0.02853 0.0
C648 C 0.15158 0.32708 0.01401 0.0
C649 C 0.11815 0.34581 0.01548 0.0
C650 C 0.101 0.35662 0.02989 0.0
C651 C 0.10544 0.37375 0.04643 0.0
C652 C 0.08921 0.38374 0.06013 0.0
C653 C 0.06844 0.37684 0.05727 0.0
C654 C 0.06385 0.35997 0.04066 0.0
C655 C 0.08004 0.34991 0.02695 0.0
H656 H 0.05589 0.38459 0.06789 0.0
H657 H 0.21104 0.28374 0.9351 0.0
H658 H 0.60124 0.11621 0.89457 0.0
H659 H 0.60107 0.11669 0.9423 0.0
H660 H 0.65692 0.15545 0.9422 0.0
H661 H 0.65755 0.15454 0.8944 0.0
H662 H 0.66074 0.12524 0.97687 0.0
H663 H 0.60741 0.17592 0.95608 0.0
H664 H 0.57522 0.18932 0.9348 0.0
H665 H 0.5385 0.14169 0.97327 0.0
H666 H 0.57053 0.12782 0.99452 0.0
H667 H 0.65538 0.15611 0.11027 0.0
H668 H 0.65518 0.15642 0.06249 0.0
H669 H 0.60341 0.11241 0.06215 0.0
H670 H 0.60341 0.11205 0.11001 0.0
H671 H 0.59751 0.14564 0.028 0.0
H672 H 0.65165 0.09522 0.04868 0.0
H673 H 0.6841 0.08274 0.07019 0.0
H674 H 0.71963 0.13143 0.03204 0.0
H675 H 0.68731 0.14439 0.01057 0.0
C676 C 0.61344 0.12493 0.90469 0.0
C677 C 0.62938 0.13538 0.89072 0.0
C678 C 0.61326 0.12526 0.93199 0.0
C679 C 0.62882 0.13635 0.94582 0.0
C680 C 0.64475 0.14682 0.93191 0.0
C681 C 0.64506 0.14632 0.90461 0.0
C682 C 0.62877 0.13658 0.97482 0.0
C683 C 0.64701 0.13001 0.98804 0.0
C684 C 0.61071 0.14237 0.98939 0.0
C685 C 0.59141 0.15071 0.9767 0.0
C686 C 0.5925 0.1682 0.95985 0.0
C687 C 0.57427 0.1759 0.94782 0.0
C688 C 0.55484 0.16633 0.95263 0.0
C689 C 0.55357 0.14907 0.96954 0.0
C690 C 0.57175 0.1413 0.9816 0.0
C691 C 0.64395 0.14647 0.10006 0.0
C692 C 0.62944 0.13399 0.11392 0.0
C693 C 0.64391 0.14663 0.07276 0.0
C694 C 0.6294 0.1343 0.05885 0.0
C695 C 0.61474 0.12201 0.07259 0.0
C696 C 0.61482 0.12177 0.09991 0.0
C697 C 0.62945 0.13433 0.02992 0.0
C698 C 0.61122 0.14093 0.01676 0.0
C699 C 0.64756 0.12872 0.0154 0.0
C700 C 0.66702 0.1209 0.02822 0.0
C701 C 0.66635 0.10337 0.04504 0.0
C702 C 0.68473 0.09619 0.0572 0.0
C703 C 0.70391 0.10632 0.05254 0.0
C704 C 0.70476 0.12362 0.03566 0.0
C705 C 0.68642 0.13087 0.02347 0.0
H706 H 0.71812 0.10074 0.06197 0.0
H707 H 0.54075 0.17231 0.9433 0.0
H708 H 0.84766 0.66645 0.87877 0.0
H709 H 0.85147 0.66788 0.92627 0.0
H710 H 0.84184 0.60063 0.9307 0.0
H711 H 0.837 0.59931 0.88325 0.0
H712 H 0.82288 0.6178 0.96934 0.0
H713 H 0.89212 0.62391 0.93379 0.0
H714 H 0.92007 0.63852 0.90562 0.0
H715 H 0.91378 0.69865 0.94328 0.0
H716 H 0.88557 0.68448 0.97144 0.0
H717 H 0.89674 0.62898 0.09082 0.0
H718 H 0.89175 0.62644 0.04357 0.0
H719 H 0.82919 0.6523 0.05148 0.0
H720 H 0.83383 0.65427 0.09885 0.0
H721 H 0.88552 0.6536 0.0067 0.0
H722 H 0.79666 0.63126 0.00632 0.0
H723 H 0.77125 0.61227 0.03422 0.0
H724 H 0.82168 0.57646 0.06826 0.0
H725 H 0.84734 0.595 0.04031 0.0
C726 C 0.84624 0.652 0.88991 0.0
C727 C 0.84218 0.63274 0.87736 0.0
C728 C 0.84853 0.65281 0.91703 0.0
C729 C 0.84742 0.63429 0.93202 0.0
C730 C 0.84283 0.61512 0.91955 0.0
C731 C 0.8401 0.61436 0.89245 0.0
C732 C 0.85136 0.63489 0.96063 0.0
C733 C 0.83657 0.62563 0.97749 0.0
C734 C 0.8695 0.64465 0.9713 0.0
C735 C 0.8866 0.65318 0.95457 0.0
C736 C 0.89661 0.64029 0.93596 0.0
C737 C 0.9125 0.64848 0.92 0.0
C738 C 0.91866 0.66951 0.92262 0.0
C739 C 0.90897 0.68237 0.94126 0.0
C740 C 0.89304 0.67426 0.95724 0.0
C741 C 0.88193 0.63417 0.0825 0.0
C742 C 0.86563 0.6417 0.09857 0.0
C743 C 0.87912 0.63274 0.05548 0.0
C744 C 0.86 0.6389 0.04401 0.0
C745 C 0.84392 0.64702 0.05995 0.0
C746 C 0.84663 0.64824 0.08701 0.0
C747 C 0.85688 0.63678 0.01539 0.0
C748 C 0.87182 0.64577 -0.00147 0.0
C749 C 0.83928 0.62611 0.00471 0.0
C750 C 0.82393 0.6147 0.0214 0.0
C751 C 0.80231 0.61928 0.01969 0.0
C752 C 0.78787 0.6086 0.03552 0.0
C753 C 0.79485 0.59322 0.05306 0.0
C754 C 0.81629 0.58843 0.05474 0.0
C755 C 0.83079 0.59904 0.03892 0.0
H756 H 0.78365 0.58498 0.06532 0.0
H757 H 0.93096 0.67583 0.91024 0.0
H758 H 0.31637 0.87495 0.10816 0.0
H759 H 0.3187 0.87234 0.06058 0.0
H760 H 0.37029 0.82846 0.06802 0.0
H761 H 0.36843 0.83143 0.11561 0.0
H762 H 0.37899 0.8566 0.03205 0.0
H763 H 0.32006 0.81214 0.05085 0.0
H764 H 0.28568 0.80267 0.06994 0.0
H765 H 0.25579 0.85177 0.02563 0.0
H766 H 0.29006 0.86174 0.00653 0.0
H767 H 0.37761 0.82458 0.89834 0.0
H768 H 0.37505 0.82421 0.94611 0.0
H769 H 0.32734 0.87255 0.94289 0.0
H770 H 0.32969 0.87296 0.89522 0.0
H771 H 0.31693 0.84047 0.97656 0.0
H772 H 0.37667 0.88528 0.95905 0.0
H773 H 0.41122 0.89407 0.93991 0.0
H774 H 0.43972 0.84288 0.98193 0.0
H775 H 0.40525 0.8336 0.00105 0.0
C776 C 0.32815 0.86468 0.09967 0.0
C777 C 0.3422 0.85338 0.11563 0.0
C778 C 0.3294 0.86312 0.07247 0.0
C779 C 0.34449 0.84998 0.06074 0.0
C780 C 0.35852 0.83867 0.07665 0.0
C781 C 0.3574 0.84036 0.10384 0.0
C782 C 0.34602 0.84847 0.03186 0.0
C783 C 0.36549 0.85273 0.01996 0.0
C784 C 0.32832 0.8438 0.01604 0.0
C785 C 0.30767 0.83781 0.02744 0.0
C786 C 0.30619 0.82103 0.04532 0.0
C787 C 0.28671 0.81555 0.05612 0.0
C788 C 0.26857 0.82664 0.04905 0.0
C789 C 0.26986 0.84321 0.03111 0.0
C790 C 0.2893 0.84876 0.02027 0.0
C791 C 0.36656 0.83512 0.9078 0.0
C792 C 0.3539 0.84885 0.89301 0.0
C793 C 0.36517 0.83492 0.93507 0.0
C794 C 0.35112 0.84847 0.94798 0.0
C795 C 0.33828 0.86198 0.93326 0.0
C796 C 0.33971 0.86224 0.90603 0.0
C797 C 0.34983 0.84869 0.97688 0.0
C798 C 0.33042 0.8442 0.98874 0.0
C799 C 0.3676 0.85301 0.99267 0.0
C800 C 0.38834 0.85862 0.98125 0.0
C801 C 0.39027 0.87579 0.96404 0.0
C802 C 0.40985 0.88088 0.95323 0.0
C803 C 0.42765 0.869 0.95964 0.0
C804 C 0.42591 0.85204 0.97695 0.0
C805 C 0.40637 0.84687 0.98779 0.0
H806 H 0.44279 0.87297 0.95126 0.0
H807 H 0.25351 0.82238 0.05744 0.0
H808 H 0.1157 0.6018 0.61445 0.0
H809 H 0.11505 0.60128 0.56662 0.0
H810 H 0.15012 0.65947 0.56471 0.0
H811 H 0.15075 0.66022 0.61249 0.0
H812 H 0.1168 0.65996 0.53101 0.0
H813 H 0.17447 0.61387 0.55192 0.0
H814 H 0.19177 0.58376 0.57356 0.0
H815 H 0.14885 0.54113 0.536 0.0
H816 H 0.13109 0.57103 0.5144 0.0
H817 H 0.14986 0.65991 0.39879 0.0
H818 H 0.1487 0.65954 0.44653 0.0
H819 H 0.11432 0.60093 0.44481 0.0
H820 H 0.11557 0.60104 0.39699 0.0
H821 H 0.14611 0.60006 0.48035 0.0
H822 H 0.08898 0.64601 0.45848 0.0
H823 H 0.07168 0.67609 0.43679 0.0
H824 H 0.11336 0.71893 0.47612 0.0
H825 H 0.13112 0.68906 0.49778 0.0
C826 C 0.1233 0.61448 0.60386 0.0
C827 C 0.13332 0.63103 0.61725 0.0
C828 C 0.12296 0.61412 0.57655 0.0
C829 C 0.13268 0.63026 0.56217 0.0
C830 C 0.14254 0.64687 0.57547 0.0
C831 C 0.14294 0.64722 0.60277 0.0
C832 C 0.13248 0.62991 0.53322 0.0
C833 C 0.12343 0.64699 0.5199 0.0
C834 C 0.14065 0.61272 0.51883 0.0
C835 C 0.15131 0.59471 0.53177 0.0
C836 C 0.16861 0.59809 0.54845 0.0
C837 C 0.17852 0.58106 0.56068 0.0
C838 C 0.17137 0.56055 0.55622 0.0
C839 C 0.15434 0.55703 0.53947 0.0
C840 C 0.14436 0.57401 0.52722 0.0
C841 C 0.14201 0.64695 0.40854 0.0
C842 C 0.13276 0.63052 0.3941 0.0
C843 C 0.14129 0.64681 0.43582 0.0
C844 C 0.13123 0.63032 0.44917 0.0
C845 C 0.12212 0.61382 0.43485 0.0
C846 C 0.12281 0.61395 0.40753 0.0
C847 C 0.13053 0.63016 0.47811 0.0
C848 C 0.13941 0.61299 0.49145 0.0
C849 C 0.12218 0.64727 0.49252 0.0
C850 C 0.11151 0.66527 0.47956 0.0
C851 C 0.09458 0.66183 0.46234 0.0
C852 C 0.08466 0.67884 0.45008 0.0
C853 C 0.09145 0.6994 0.45502 0.0
C854 C 0.10814 0.70299 0.47228 0.0
C855 C 0.11812 0.68603 0.48458 0.0
H856 H 0.08375 0.71256 0.44552 0.0
H857 H 0.17907 0.54738 0.5657 0.0
H858 H 0.38218 0.10018 0.60703 0.0
H859 H 0.38198 0.09735 0.5593 0.0
H860 H 0.34685 0.15541 0.5541 0.0
H861 H 0.34661 0.15815 0.60169 0.0
H862 H 0.33059 0.12629 0.52257 0.0
H863 H 0.40001 0.15339 0.54122 0.0
H864 H 0.43503 0.15329 0.56212 0.0
H865 H 0.44915 0.09378 0.52622 0.0
H866 H 0.41409 0.0934 0.50537 0.0
H867 H 0.34505 0.15589 0.39121 0.0
H868 H 0.34576 0.15388 0.43884 0.0
H869 H 0.37963 0.09505 0.43457 0.0
H870 H 0.37927 0.09707 0.38674 0.0
H871 H 0.39648 0.12114 0.47078 0.0
H872 H 0.32777 0.09529 0.44977 0.0
H873 H 0.29288 0.09576 0.42858 0.0
H874 H 0.2774 0.15309 0.46881 0.0
H875 H 0.31232 0.15312 0.48997 0.0
C876 C 0.37445 0.11236 0.59572 0.0
C877 C 0.36445 0.12941 0.60814 0.0
C878 C 0.37441 0.11076 0.56845 0.0
C879 C 0.36456 0.12627 0.55316 0.0
C880 C 0.35452 0.14325 0.56554 0.0
C881 C 0.35446 0.14482 0.59275 0.0
C882 C 0.36446 0.12486 0.52423 0.0
C883 C 0.345 0.12537 0.51123 0.0
C884 C 0.38325 0.12302 0.5095 0.0
C885 C 0.40434 0.12326 0.52198 0.0
C886 C 0.41052 0.1402 0.53796 0.0
C887 C 0.43039 0.14025 0.54976 0.0
C888 C 0.44428 0.12351 0.54556 0.0
C889 C 0.43836 0.10672 0.52949 0.0
C890 C 0.4185 0.10659 0.51766 0.0
C891 C 0.35262 0.14248 0.40035 0.0
C892 C 0.36203 0.12658 0.38518 0.0
C893 C 0.35294 0.14132 0.42759 0.0
C894 C 0.36249 0.12417 0.44021 0.0
C895 C 0.37211 0.10838 0.42517 0.0
C896 C 0.37184 0.10954 0.39787 0.0
C897 C 0.36262 0.12296 0.46914 0.0
C898 C 0.38206 0.12189 0.48213 0.0
C899 C 0.34381 0.12432 0.48389 0.0
C900 C 0.32274 0.12428 0.4713 0.0
C901 C 0.31698 0.10807 0.45396 0.0
C902 C 0.29719 0.10824 0.44197 0.0
C903 C 0.28295 0.12446 0.4473 0.0
C904 C 0.28845 0.14053 0.46468 0.0
C905 C 0.30823 0.14045 0.47671 0.0
H906 H 0.26763 0.12457 0.438 0.0
H907 H 0.45965 0.12358 0.55472 0.0
H908 H 0.8405 0.37657 0.38126 0.0
H909 H 0.83814 0.38017 0.42871 0.0
H910 H 0.85583 0.31492 0.43788 0.0
H911 H 0.8576 0.31103 0.39034 0.0
H912 H 0.82507 0.32432 0.47034 0.0
H913 H 0.8914 0.35581 0.44769 0.0
H914 H 0.91508 0.37995 0.42393 0.0
H915 H 0.88147 0.43317 0.45472 0.0
H916 H 0.85741 0.40932 0.4784 0.0
H917 H 0.85517 0.32806 0.6039 0.0
H918 H 0.85493 0.32479 0.55632 0.0
H919 H 0.83285 0.38883 0.54942 0.0
H920 H 0.83323 0.39235 0.59707 0.0
H921 H 0.86512 0.3805 0.51596 0.0
H922 H 0.79937 0.34833 0.53975 0.0
H923 H 0.77639 0.32372 0.56381 0.0
H924 H 0.80993 0.27116 0.53124 0.0
H925 H 0.8333 0.29547 0.50725 0.0
C926 C 0.84388 0.36298 0.39337 0.0
C927 C 0.84936 0.34354 0.38208 0.0
C928 C 0.8426 0.36508 0.4205 0.0
C929 C 0.84716 0.34791 0.43686 0.0
C930 C 0.85229 0.32839 0.42562 0.0
C931 C 0.85334 0.32621 0.39846 0.0
C932 C 0.84661 0.3503 0.46571 0.0
C933 C 0.83404 0.33644 0.48034 0.0
C934 C 0.85795 0.3664 0.47871 0.0
C935 C 0.87248 0.38077 0.46461 0.0
C936 C 0.88897 0.37266 0.44925 0.0
C937 C 0.90247 0.38629 0.43582 0.0
C938 C 0.89974 0.40808 0.43776 0.0
C939 C 0.88354 0.41628 0.4532 0.0
C940 C 0.86998 0.40272 0.46665 0.0
C941 C 0.85021 0.34146 0.59229 0.0
C942 C 0.84418 0.36047 0.60427 0.0
C943 C 0.85 0.33952 0.5651 0.0
C944 C 0.84366 0.3565 0.54939 0.0
C945 C 0.83775 0.37553 0.56124 0.0
C946 C 0.83793 0.37749 0.58846 0.0
C947 C 0.84364 0.3545 0.52054 0.0
C948 C 0.85612 0.36843 0.50592 0.0
C949 C 0.83232 0.33839 0.50759 0.0
C950 C 0.81821 0.32373 0.52189 0.0
C951 C 0.80195 0.33153 0.53787 0.0
C952 C 0.78883 0.31763 0.55147 0.0
C953 C 0.79173 0.29589 0.5491 0.0
C954 C 0.80771 0.288 0.53308 0.0
C955 C 0.82089 0.30183 0.51945 0.0
H956 H 0.78156 0.28516 0.55965 0.0
H957 H 0.91021 0.41861 0.42735 0.0
H958 H 0.6355 0.90982 0.60946 0.0
H959 H 0.63796 0.91111 0.56174 0.0
H960 H 0.65408 0.84509 0.56011 0.0
H961 H 0.65186 0.84367 0.60776 0.0
H962 H 0.67853 0.86821 0.52681 0.0
H963 H 0.60467 0.86052 0.54703 0.0
H964 H 0.57123 0.87037 0.56831 0.0
H965 H 0.57262 0.93047 0.52973 0.0
H966 H 0.60625 0.92107 0.50851 0.0
H967 H 0.6552 0.84018 0.39634 0.0
H968 H 0.65646 0.84341 0.44389 0.0
H969 H 0.63733 0.90848 0.43808 0.0
H970 H 0.63565 0.90529 0.39046 0.0
H971 H 0.61556 0.88856 0.47513 0.0
H972 H 0.68826 0.89547 0.45252 0.0
H973 H 0.72169 0.88567 0.43121 0.0
H974 H 0.72277 0.82747 0.47405 0.0
H975 H 0.68917 0.8368 0.49536 0.0
C976 C 0.63967 0.89559 0.59896 0.0
C977 C 0.64334 0.8766 0.61237 0.0
C978 C 0.64102 0.89636 0.57171 0.0
C979 C 0.64599 0.87814 0.55743 0.0
C980 C 0.65022 0.85932 0.5708 0.0
C981 C 0.64885 0.85852 0.59802 0.0
C982 C 0.64623 0.87846 0.52849 0.0
C983 C 0.66473 0.87248 0.51547 0.0
C984 C 0.62836 0.88456 0.51379 0.0
C985 C 0.60808 0.89018 0.52642 0.0
C986 C 0.59793 0.8759 0.54325 0.0
C987 C 0.57893 0.88139 0.55527 0.0
C988 C 0.56984 0.90106 0.55043 0.0
C989 C 0.5797 0.91525 0.5335 0.0
C990 C 0.59872 0.90985 0.52146 0.0
C991 C 0.65133 0.85521 0.40515 0.0
C992 C 0.64536 0.87249 0.38963 0.0
C993 C 0.65216 0.85705 0.43233 0.0
C994 C 0.64726 0.87627 0.44449 0.0
C995 C 0.64123 0.89353 0.42907 0.0
C996 C 0.64032 0.89168 0.40187 0.0
C997 C 0.64782 0.8781 0.47336 0.0
C998 C 0.62945 0.88447 0.48641 0.0
C999 C 0.66584 0.87239 0.48807 0.0
C1000 C 0.6861 0.86677 0.47538 0.0
C1001 C 0.69554 0.88051 0.45726 0.0
C1002 C 0.71454 0.87505 0.4452 0.0
C1003 C 0.72432 0.85594 0.45123 0.0
C1004 C 0.71516 0.84227 0.46938 0.0
C1005 C 0.69615 0.84764 0.48148 0.0
H1006 H 0.73903 0.85174 0.44187 0.0
H1007 H 0.55512 0.90528 0.55976 0.0
H1008 H 0.20678 0.58536 0.29542 0.0
H1009 H 0.21121 0.54935 0.27888 0.0
H1010 H 0.14373 0.54235 0.27435 0.0
H1011 H 0.13915 0.57812 0.29077 0.0
H1012 H 0.16319 0.50813 0.29711 0.0
H1013 H 0.17115 0.55225 0.22045 0.0
H1014 H 0.18735 0.58072 0.19449 0.0
H1015 H 0.24732 0.54961 0.19889 0.0
H1016 H 0.23151 0.52109 0.22522 0.0
H1017 H 0.14242 0.42382 0.2142 0.0
H1018 H 0.14562 0.45895 0.23287 0.0
H1019 H 0.21329 0.45525 0.22667 0.0
H1020 H 0.2102 0.41999 0.20737 0.0
H1021 H 0.19878 0.49386 0.21251 0.0
H1022 H 0.18998 0.44774 0.28536 0.0
H1023 H 0.17357 0.4191 0.3108 0.0
H1024 H 0.11552 0.45374 0.31397 0.0
H1025 H 0.1315 0.48247 0.28824 0.0
C1026 C 0.19291 0.57611 0.29097 0.0
C1027 C 0.17262 0.58459 0.29434 0.0
C1028 C 0.19547 0.5556 0.28146 0.0
C1029 C 0.17779 0.54327 0.2753 0.0
C1030 C 0.15757 0.55161 0.27903 0.0
C1031 C 0.15499 0.57209 0.28833 0.0
C1032 C 0.18011 0.52169 0.26473 0.0
C1033 C 0.17088 0.505 0.27856 0.0
C1034 C 0.19072 0.51759 0.24094 0.0
C1035 C 0.20021 0.53469 0.22507 0.0
C1036 C 0.18783 0.55158 0.21609 0.0
C1037 C 0.19693 0.56771 0.20127 0.0
C1038 C 0.21836 0.56701 0.19512 0.0
C1039 C 0.23073 0.55015 0.20372 0.0
C1040 C 0.2217 0.53401 0.21858 0.0
C1041 C 0.15801 0.43045 0.21669 0.0
C1042 C 0.17608 0.41904 0.20951 0.0
C1043 C 0.15981 0.45052 0.22748 0.0
C1044 C 0.17971 0.45952 0.23167 0.0
C1045 C 0.19779 0.4485 0.22376 0.0
C1046 C 0.196 0.42838 0.21277 0.0
C1047 C 0.18138 0.48036 0.24457 0.0
C1048 C 0.19138 0.4969 0.23126 0.0
C1049 C 0.17153 0.48434 0.26892 0.0
C1050 C 0.16192 0.46721 0.28473 0.0
C1051 C 0.17368 0.4492 0.29136 0.0
C1052 C 0.16446 0.43296 0.30585 0.0
C1053 C 0.14351 0.43459 0.31396 0.0
C1054 C 0.13175 0.4525 0.30767 0.0
C1055 C 0.1409 0.46879 0.29317 0.0
H1056 H 0.13639 0.42198 0.32516 0.0
H1057 H 0.22538 0.5795 0.18364 0.0
H1058 H 0.56261 0.17111 0.17119 0.0
H1059 H 0.52813 0.17504 0.1917 0.0
H1060 H 0.55754 0.17659 0.26783 0.0
H1061 H 0.59202 0.17178 0.24744 0.0
H1062 H 0.52674 0.15066 0.26908 0.0
H1063 H 0.53381 0.22129 0.23847 0.0
H1064 H 0.54067 0.24966 0.20664 0.0
H1065 H 0.48861 0.22867 0.15978 0.0
H1066 H 0.4816 0.19998 0.19115 0.0
H1067 H 0.43028 0.17318 0.33388 0.0
H1068 H 0.46566 0.17866 0.31613 0.0
H1069 H 0.44263 0.16536 0.2385 0.0
H1070 H 0.40724 0.1598 0.25602 0.0
H1071 H 0.47057 0.19997 0.24067 0.0
H1072 H 0.46615 0.12761 0.27038 0.0
H1073 H 0.45941 0.09978 0.30299 0.0
H1074 H 0.50727 0.12564 0.35291 0.0
H1075 H 0.51409 0.15382 0.32072 0.0
C1076 C 0.56176 0.1726 0.19227 0.0
C1077 C 0.57999 0.17106 0.20772 0.0
C1078 C 0.54203 0.17497 0.20399 0.0
C1079 C 0.54021 0.17634 0.23133 0.0
C1080 C 0.55853 0.17553 0.24671 0.0
C1081 C 0.57822 0.17282 0.23503 0.0
C1082 C 0.51916 0.17691 0.24396 0.0
C1083 C 0.51465 0.16177 0.26321 0.0
C1084 C 0.50316 0.19109 0.23598 0.0
C1085 C 0.50728 0.20837 0.21708 0.0
C1086 C 0.52391 0.22262 0.22129 0.0
C1087 C 0.52781 0.23878 0.20334 0.0
C1088 C 0.51511 0.24094 0.18117 0.0
C1089 C 0.49844 0.22697 0.17695 0.0
C1090 C 0.49448 0.21078 0.19483 0.0
C1091 C 0.4327 0.17158 0.31301 0.0
C1092 C 0.416 0.1659 0.29637 0.0
C1093 C 0.45291 0.17471 0.30292 0.0
C1094 C 0.45672 0.17228 0.27605 0.0
C1095 C 0.43996 0.16733 0.25929 0.0
C1096 C 0.41979 0.16404 0.26937 0.0
C1097 C 0.47836 0.17375 0.26555 0.0
C1098 C 0.48288 0.18915 0.24669 0.0
C1099 C 0.49446 0.15996 0.27401 0.0
C1100 C 0.49045 0.14295 0.29329 0.0
C1101 C 0.47511 0.12746 0.28841 0.0
C1102 C 0.4713 0.11161 0.3068 0.0
C1103 C 0.48286 0.11098 0.33005 0.0
C1104 C 0.4983 0.12617 0.33492 0.0
C1105 C 0.50215 0.14208 0.3166 0.0
H1106 H 0.47989 0.09869 0.34426 0.0
H1107 H 0.51816 0.25345 0.1673 0.0
H1108 H 0.85373 0.55988 0.15907 0.0
H1109 H 0.84521 0.52565 0.178 0.0
H1110 H 0.81247 0.55637 0.24142 0.0
H1111 H 0.82163 0.59073 0.22304 0.0
H1112 H 0.83684 0.52774 0.26024 0.0
H1113 H 0.78591 0.52832 0.19205 0.0
H1114 H 0.77238 0.53258 0.14715 0.0
H1115 H 0.81219 0.48218 0.1208 0.0
H1116 H 0.8262 0.47779 0.16547 0.0
H1117 H 0.80682 0.42713 0.30979 0.0
H1118 H 0.80258 0.46206 0.29004 0.0
H1119 H 0.84361 0.44391 0.22668 0.0
H1120 H 0.84786 0.40906 0.24611 0.0
H1121 H 0.80915 0.467 0.20975 0.0
H1122 H 0.86309 0.47068 0.27729 0.0
H1123 H 0.87631 0.46668 0.32239 0.0
H1124 H 0.82908 0.50968 0.35006 0.0
H1125 H 0.81541 0.51372 0.30513 0.0
C1126 C 0.84453 0.55935 0.17691 0.0
C1127 C 0.83841 0.57799 0.18962 0.0
C1128 C 0.83953 0.53975 0.18763 0.0
C1129 C 0.82792 0.53839 0.21096 0.0
C1130 C 0.82142 0.55701 0.22339 0.0
C1131 C 0.82666 0.57663 0.21287 0.0
C1132 C 0.82393 0.5176 0.22329 0.0
C1133 C 0.83031 0.51461 0.24933 0.0
C1134 C 0.81569 0.50034 0.20902 0.0
C1135 C 0.80721 0.50282 0.18211 0.0
C1136 C 0.79189 0.51823 0.17665 0.0
C1137 C 0.78412 0.52065 0.15124 0.0
C1138 C 0.79145 0.50768 0.13113 0.0
C1139 C 0.80653 0.49222 0.1364 0.0
C1140 C 0.81437 0.48973 0.16177 0.0
C1141 C 0.81476 0.43052 0.29151 0.0
C1142 C 0.82785 0.41542 0.27965 0.0
C1143 C 0.81233 0.45046 0.28029 0.0
C1144 C 0.82293 0.45557 0.25704 0.0
C1145 C 0.83529 0.44025 0.24462 0.0
C1146 C 0.8378 0.42038 0.25586 0.0
C1147 C 0.8224 0.47723 0.24636 0.0
C1148 C 0.81524 0.48032 0.22069 0.0
C1149 C 0.82977 0.49464 0.26099 0.0
C1150 C 0.83808 0.4923 0.28794 0.0
C1151 C 0.85543 0.47915 0.29303 0.0
C1152 C 0.86302 0.4769 0.31855 0.0
C1153 C 0.8535 0.48786 0.33909 0.0
C1154 C 0.83641 0.50116 0.33414 0.0
C1155 C 0.82874 0.50344 0.30866 0.0
H1156 H 0.8594 0.4861 0.35884 0.0
H1157 H 0.78541 0.50959 0.11146 0.0
H1158 H 0.59436 0.82684 0.26481 0.0
H1159 H 0.55934 0.82382 0.24552 0.0
H1160 H 0.53119 0.83288 0.32147 0.0
H1161 H 0.56625 0.83571 0.34109 0.0
H1162 H 0.50993 0.80319 0.29148 0.0
H1163 H 0.53637 0.87379 0.28243 0.0
H1164 H 0.56273 0.90049 0.26994 0.0
H1165 H 0.55826 0.88106 0.18969 0.0
H1166 H 0.53214 0.85395 0.20178 0.0
H1167 H 0.40927 0.83988 0.25078 0.0
H1168 H 0.44399 0.83557 0.27064 0.0
H1169 H 0.47193 0.83023 0.194 0.0
H1170 H 0.43729 0.83484 0.17393 0.0
H1171 H 0.49349 0.85715 0.22419 0.0
H1172 H 0.46613 0.78709 0.23314 0.0
H1173 H 0.44024 0.76004 0.24597 0.0
H1174 H 0.44631 0.77847 0.32643 0.0
H1175 H 0.47203 0.80584 0.31404 0.0
C1176 C 0.58075 0.8279 0.27752 0.0
C1177 C 0.58307 0.8318 0.30444 0.0
C1178 C 0.56076 0.82619 0.26644 0.0
C1179 C 0.54273 0.82851 0.28202 0.0
C1180 C 0.54495 0.83114 0.30913 0.0
C1181 C 0.56498 0.83281 0.32027 0.0
C1182 C 0.52168 0.82974 0.26972 0.0
C1183 C 0.50621 0.81509 0.27696 0.0
C1184 C 0.51706 0.8451 0.25048 0.0
C1185 C 0.53244 0.86169 0.24306 0.0
C1186 C 0.54111 0.87511 0.26214 0.0
C1187 C 0.55601 0.89032 0.25513 0.0
C1188 C 0.56221 0.89244 0.22904 0.0
C1189 C 0.55346 0.87938 0.2099 0.0
C1190 C 0.5386 0.86409 0.21682 0.0
C1191 C 0.42277 0.83767 0.23813 0.0
C1192 C 0.42052 0.83772 0.21076 0.0
C1193 C 0.4426 0.83511 0.24953 0.0
C1194 C 0.46051 0.83239 0.2338 0.0
C1195 C 0.45829 0.83229 0.20649 0.0
C1196 C 0.43848 0.83488 0.19506 0.0
C1197 C 0.48166 0.83049 0.2458 0.0
C1198 C 0.49717 0.84513 0.23859 0.0
C1199 C 0.48628 0.81515 0.26509 0.0
C1200 C 0.47086 0.79865 0.27262 0.0
C1201 C 0.46182 0.78549 0.25355 0.0
C1202 C 0.4472 0.77007 0.26075 0.0
C1203 C 0.4416 0.76757 0.28699 0.0
C1204 C 0.45065 0.78044 0.30611 0.0
C1205 C 0.46526 0.7959 0.29901 0.0
H1206 H 0.43028 0.75562 0.29253 0.0
H1207 H 0.57376 0.90421 0.22366 0.0
H1208 H 0.83721 0.58507 0.75179 0.0
H1209 H 0.8343 0.54784 0.73999 0.0
H1210 H 0.87641 0.53147 0.8031 0.0
H1211 H 0.87993 0.56864 0.81443 0.0
H1212 H 0.88655 0.51012 0.76169 0.0
H1213 H 0.82185 0.5242 0.80689 0.0
H1214 H 0.78859 0.54289 0.81598 0.0
H1215 H 0.76575 0.52718 0.73936 0.0
H1216 H 0.799 0.50863 0.72968 0.0
H1217 H 0.86564 0.40095 0.76709 0.0
H1218 H 0.86559 0.43822 0.77908 0.0
H1219 H 0.83194 0.45323 0.7082 0.0
H1220 H 0.8319 0.41595 0.69597 0.0
H1221 H 0.81707 0.47502 0.75277 0.0
H1222 H 0.88259 0.46033 0.70871 0.0
H1223 H 0.91559 0.44068 0.70147 0.0
H1224 H 0.93667 0.45696 0.77868 0.0
H1225 H 0.90362 0.47643 0.78654 0.0
C1226 C 0.84585 0.57352 0.76313 0.0
C1227 C 0.85877 0.57977 0.78406 0.0
C1228 C 0.84409 0.55224 0.75646 0.0
C1229 C 0.85489 0.53681 0.7709 0.0
C1230 C 0.86792 0.54308 0.79167 0.0
C1231 C 0.86989 0.56434 0.79815 0.0
C1232 C 0.85288 0.51414 0.76427 0.0
C1233 C 0.87134 0.50243 0.76009 0.0
C1234 C 0.83304 0.50413 0.76166 0.0
C1235 C 0.813 0.51521 0.76747 0.0
C1236 C 0.80979 0.52487 0.79191 0.0
C1237 C 0.79093 0.53541 0.79718 0.0
C1238 C 0.77509 0.53627 0.77824 0.0
C1239 C 0.77805 0.52653 0.754 0.0
C1240 C 0.79689 0.51598 0.74862 0.0
C1241 C 0.85802 0.41212 0.75416 0.0
C1242 C 0.84891 0.40552 0.73048 0.0
C1243 C 0.85806 0.43341 0.76102 0.0
C1244 C 0.84897 0.44844 0.74436 0.0
C1245 C 0.83907 0.44183 0.72126 0.0
C1246 C 0.83913 0.42055 0.71429 0.0
C1247 C 0.85069 0.47115 0.75046 0.0
C1248 C 0.83222 0.48281 0.75443 0.0
C1249 C 0.87051 0.48109 0.75314 0.0
C1250 C 0.89054 0.46967 0.74829 0.0
C1251 C 0.89419 0.4596 0.72421 0.0
C1252 C 0.91291 0.44851 0.71999 0.0
C1253 C 0.92819 0.44753 0.73963 0.0
C1254 C 0.92481 0.45771 0.7635 0.0
C1255 C 0.90609 0.46878 0.76784 0.0
H1256 H 0.94267 0.43892 0.73633 0.0
H1257 H 0.7605 0.54445 0.78236 0.0
H1258 H 0.5783 0.84011 0.73152 0.0
H1259 H 0.54163 0.83961 0.74607 0.0
H1260 H 0.52199 0.86514 0.67175 0.0
H1261 H 0.5586 0.86586 0.65709 0.0
H1262 H 0.50466 0.88629 0.71238 0.0
H1263 H 0.51276 0.81421 0.68618 0.0
H1264 H 0.52947 0.77915 0.68524 0.0
H1265 H 0.51885 0.77224 0.76775 0.0
H1266 H 0.50233 0.80741 0.76925 0.0
H1267 H 0.39486 0.87186 0.72711 0.0
H1268 H 0.43105 0.86881 0.7113 0.0
H1269 H 0.45061 0.84508 0.78656 0.0
H1270 H 0.4144 0.84798 0.80256 0.0
H1271 H 0.46787 0.82266 0.7455 0.0
H1272 H 0.4603 0.89476 0.77188 0.0
H1273 H 0.44348 0.92977 0.77301 0.0
H1274 H 0.45331 0.93664 0.69035 0.0
H1275 H 0.46991 0.9015 0.68865 0.0
C1276 C 0.56617 0.84547 0.71819 0.0
C1277 C 0.57137 0.85306 0.69316 0.0
C1278 C 0.54522 0.8451 0.72651 0.0
C1279 C 0.5291 0.85224 0.70992 0.0
C1280 C 0.53421 0.85958 0.68484 0.0
C1281 C 0.55514 0.85991 0.67648 0.0
C1282 C 0.50699 0.85285 0.7191 0.0
C1283 C 0.49651 0.87232 0.71925 0.0
C1284 C 0.49659 0.83471 0.72871 0.0
C1285 C 0.5065 0.81354 0.72787 0.0
C1286 C 0.51415 0.8053 0.70417 0.0
C1287 C 0.52355 0.78539 0.70353 0.0
C1288 C 0.52527 0.7735 0.72644 0.0
C1289 C 0.51753 0.78148 0.75003 0.0
C1290 C 0.50813 0.80139 0.75078 0.0
C1291 C 0.40683 0.86592 0.74029 0.0
C1292 C 0.40179 0.86027 0.76613 0.0
C1293 C 0.4275 0.86424 0.73124 0.0
C1294 C 0.4435 0.85692 0.74786 0.0
C1295 C 0.43846 0.8508 0.77346 0.0
C1296 C 0.41779 0.85255 0.78258 0.0
C1297 C 0.46557 0.85606 0.73863 0.0
C1298 C 0.47604 0.83659 0.73855 0.0
C1299 C 0.476 0.8742 0.72911 0.0
C1300 C 0.46615 0.8954 0.7301 0.0
C1301 C 0.45872 0.90366 0.7539 0.0
C1302 C 0.44925 0.92354 0.75466 0.0
C1303 C 0.44728 0.9354 0.73175 0.0
C1304 C 0.45482 0.92742 0.70806 0.0
C1305 C 0.46427 0.90753 0.7072 0.0
H1306 H 0.43994 0.95078 0.73238 0.0
H1307 H 0.53255 0.75808 0.7259 0.0
H1308 H 0.16955 0.4151 0.7795 0.0
H1309 H 0.17224 0.45239 0.76799 0.0
H1310 H 0.12377 0.46724 0.8242 0.0
H1311 H 0.12074 0.43 0.83552 0.0
H1312 H 0.11572 0.48516 0.77829 0.0
H1313 H 0.17536 0.47996 0.8354 0.0
H1314 H 0.20884 0.46537 0.85182 0.0
H1315 H 0.23893 0.48027 0.77891 0.0
H1316 H 0.20554 0.4947 0.7619 0.0
H1317 H 0.12521 0.59586 0.77757 0.0
H1318 H 0.12751 0.55936 0.79249 0.0
H1319 H 0.16978 0.54491 0.72894 0.0
H1320 H 0.16749 0.58144 0.7137 0.0
H1321 H 0.18174 0.52703 0.77818 0.0
H1322 H 0.12178 0.53163 0.72114 0.0
H1323 H 0.0883 0.54645 0.70504 0.0
H1324 H 0.05883 0.5326 0.77867 0.0
H1325 H 0.09226 0.51798 0.79535 0.0
C1326 C 0.15961 0.42632 0.78959 0.0
C1327 C 0.14488 0.41959 0.80835 0.0
C1328 C 0.16123 0.44765 0.78307 0.0
C1329 C 0.14828 0.4626 0.79535 0.0
C1330 C 0.13388 0.45595 0.81446 0.0
C1331 C 0.13221 0.43466 0.82094 0.0
C1332 C 0.14889 0.48502 0.78732 0.0
C1333 C 0.13011 0.49438 0.77867 0.0
C1334 C 0.16778 0.49688 0.78712 0.0
C1335 C 0.18789 0.48822 0.79728 0.0
C1336 C 0.18907 0.47996 0.82278 0.0
C1337 C 0.20804 0.47175 0.83221 0.0
C1338 C 0.22599 0.47184 0.81639 0.0
C1339 C 0.22501 0.48018 0.79113 0.0
C1340 C 0.20607 0.4884 0.78159 0.0
C1341 C 0.13516 0.58499 0.76688 0.0
C1342 C 0.14606 0.59149 0.74435 0.0
C1343 C 0.13641 0.56415 0.77541 0.0
C1344 C 0.14868 0.54948 0.76167 0.0
C1345 C 0.16023 0.55605 0.73977 0.0
C1346 C 0.15883 0.57688 0.73105 0.0
C1347 C 0.14857 0.52706 0.76949 0.0
C1348 C 0.1674 0.51774 0.77795 0.0
C1349 C 0.12973 0.51519 0.76959 0.0
C1350 C 0.10959 0.52392 0.75959 0.0
C1351 C 0.10822 0.53192 0.73398 0.0
C1352 C 0.08924 0.54026 0.72474 0.0
C1353 C 0.07147 0.54053 0.74085 0.0
C1354 C 0.07263 0.53241 0.76622 0.0
C1355 C 0.09158 0.52409 0.77558 0.0
H1356 H 0.05679 0.54698 0.73365 0.0
H1357 H 0.24066 0.46548 0.82374 0.0
H1358 H 0.41621 0.10625 0.73 0.0
H1359 H 0.45253 0.10893 0.7449 0.0
H1360 H 0.45293 0.17522 0.7262 0.0
H1361 H 0.41641 0.17264 0.71087 0.0
H1362 H 0.48822 0.15548 0.70865 0.0
H1363 H 0.45105 0.16028 0.78909 0.0
H1364 H 0.4249 0.15052 0.82261 0.0
H1365 H 0.45498 0.09045 0.83252 0.0
H1366 H 0.48115 0.09972 0.79877 0.0
H1367 H 0.58836 0.16497 0.7746 0.0
H1368 H 0.55152 0.17024 0.76179 0.0
H1369 H 0.53978 0.10375 0.77145 0.0
H1370 H 0.57643 0.09832 0.78417 0.0
H1371 H 0.50995 0.12896 0.7959 0.0
H1372 H 0.5447 0.1234 0.71191 0.0
H1373 H 0.57072 0.13346 0.67834 0.0
H1374 H 0.54499 0.19601 0.67586 0.0
H1375 H 0.51898 0.18638 0.7097 0.0
C1376 C 0.42393 0.12145 0.72913 0.0
C1377 C 0.41339 0.13925 0.7193 0.0
C1378 C 0.44469 0.12297 0.73778 0.0
C1379 C 0.45533 0.14233 0.73697 0.0
C1380 C 0.44494 0.16015 0.72708 0.0
C1381 C 0.42408 0.15866 0.71841 0.0
C1382 C 0.47751 0.14356 0.74582 0.0
C1383 C 0.49295 0.15011 0.72792 0.0
C1384 C 0.48367 0.13631 0.77086 0.0
C1385 C 0.46799 0.13065 0.79124 0.0
C1386 C 0.452 0.14492 0.79827 0.0
C1387 C 0.43719 0.13948 0.81734 0.0
C1388 C 0.43826 0.11986 0.82965 0.0
C1389 C 0.45417 0.10564 0.82295 0.0
C1390 C 0.46902 0.11099 0.80388 0.0
C1391 C 0.57794 0.15146 0.77387 0.0
C1392 C 0.5853 0.13122 0.78039 0.0
C1393 C 0.55694 0.1545 0.76652 0.0
C1394 C 0.54299 0.13737 0.76568 0.0
C1395 C 0.55032 0.11718 0.77207 0.0
C1396 C 0.5713 0.1141 0.77921 0.0
C1397 C 0.52061 0.14034 0.7585 0.0
C1398 C 0.50516 0.13462 0.77677 0.0
C1399 C 0.51446 0.14846 0.73389 0.0
C1400 C 0.53008 0.15425 0.71356 0.0
C1401 C 0.54473 0.13936 0.70439 0.0
C1402 C 0.55944 0.14497 0.68527 0.0
C1403 C 0.55955 0.16538 0.67504 0.0
C1404 C 0.54491 0.18021 0.68385 0.0
C1405 C 0.53018 0.17469 0.70298 0.0
H1406 H 0.57095 0.1697 0.66023 0.0
H1407 H 0.42677 0.11568 0.84441 0.0
H1408 H 0.65108 0.05569 0.83551 0.0
H1409 H 0.65968 0.02133 0.81716 0.0
H1410 H 0.69102 0.05148 0.75222 0.0
H1411 H 0.68171 0.08601 0.77005 0.0
H1412 H 0.66676 0.02267 0.73448 0.0
H1413 H 0.71868 0.02349 0.80104 0.0
H1414 H 0.73347 0.02816 0.84525 0.0
H1415 H 0.69384 0.97857 0.87427 0.0
H1416 H 0.67858 0.9738 0.83031 0.0
H1417 H 0.69419 0.92012 0.68788 0.0
H1418 H 0.70042 0.95493 0.70723 0.0
H1419 H 0.65624 0.9407 0.76884 0.0
H1420 H 0.64977 0.90608 0.74956 0.0
H1421 H 0.69388 0.96209 0.78583 0.0
H1422 H 0.63875 0.96646 0.7194 0.0
H1423 H 0.62509 0.96181 0.6746 0.0
H1424 H 0.67368 0.00231 0.64482 0.0
H1425 H 0.68782 0.00693 0.68945 0.0
C1426 C 0.66003 0.05503 0.81749 0.0
C1427 C 0.66566 0.07354 0.80417 0.0
C1428 C 0.66509 0.03534 0.80709 0.0
C1429 C 0.67629 0.03377 0.78348 0.0
C1430 C 0.6824 0.05229 0.77049 0.0
C1431 C 0.67707 0.072 0.78069 0.0
C1432 C 0.68003 0.01283 0.77139 0.0
C1433 C 0.6732 0.00959 0.74557 0.0
C1434 C 0.68823 0.99563 0.78585 0.0
C1435 C 0.69739 -0.00162 0.81237 0.0
C1436 C 0.71301 0.01367 0.81688 0.0
C1437 C 0.72149 0.01632 0.8419 0.0
C1438 C 0.71458 0.00369 0.86256 0.0
C1439 C 0.69918 0.98835 0.85824 0.0
C1440 C 0.69063 0.98564 0.83326 0.0
C1441 C 0.68604 0.92432 0.70575 0.0
C1442 C 0.67134 0.9105 0.71709 0.0
C1443 C 0.68961 0.94417 0.71674 0.0
C1444 C 0.67871 0.95033 0.73936 0.0
C1445 C 0.66483 0.93616 0.75141 0.0
C1446 C 0.66105 0.91647 0.74027 0.0
C1447 C 0.68024 0.9721 0.74937 0.0
C1448 C 0.68796 0.97541 0.77472 0.0
C1449 C 0.67313 0.98943 0.73443 0.0
C1450 C 0.66449 0.98682 0.70768 0.0
C1451 C 0.64663 0.97422 0.70326 0.0
C1452 C 0.63878 0.97162 0.67792 0.0
C1453 C 0.64856 0.9817 0.65687 0.0
C1454 C 0.66616 0.99447 0.66114 0.0
C1455 C 0.67409 0.99709 0.68645 0.0
H1456 H 0.64246 0.97967 0.63725 0.0
H1457 H 0.72116 0.00577 0.88192 0.0
H1458 H 0.90285 0.67677 0.75126 0.0
H1459 H 0.93746 0.68505 0.73297 0.0
H1460 H 0.96718 0.66112 0.80286 0.0
H1461 H 0.93268 0.65341 0.82156 0.0
H1462 H 0.98736 0.69499 0.78616 0.0
H1463 H 0.96138 0.63069 0.7469 0.0
H1464 H 0.93592 0.60895 0.72241 0.0
H1465 H 0.94198 0.64984 0.6559 0.0
H1466 H 0.96729 0.67199 0.68015 0.0
H1467 H 0.08619 0.65715 0.74468 0.0
H1468 H 0.05037 0.66252 0.76051 0.0
H1469 H 0.0334 0.69147 0.68712 0.0
H1470 H 0.06935 0.68608 0.67099 0.0
H1471 H 0.00579 0.66058 0.70208 0.0
H1472 H 0.03676 0.72156 0.74061 0.0
H1473 H 0.0631 0.74164 0.76578 0.0
H1474 H 0.04869 0.70545 0.83445 0.0
H1475 H 0.02246 0.68493 0.80961 0.0
C1476 C 0.91675 0.67347 0.76283 0.0
C1477 C 0.91505 0.66422 0.78774 0.0
C1478 C 0.93652 0.67816 0.75233 0.0
C1479 C 0.95492 0.67335 0.76636 0.0
C1480 C 0.9532 0.66493 0.79166 0.0
C1481 C 0.93345 0.66045 0.80228 0.0
C1482 C 0.976 0.67592 0.75429 0.0
C1483 C 0.99143 0.68741 0.76784 0.0
C1484 C 0.98116 0.66646 0.73004 0.0
C1485 C 0.96602 0.65312 0.71543 0.0
C1486 C 0.95716 0.63512 0.72712 0.0
C1487 C 0.94278 0.62272 0.71328 0.0
C1488 C 0.93728 0.62805 0.68764 0.0
C1489 C 0.94621 0.64576 0.67577 0.0
C1490 C 0.96058 0.65824 0.68955 0.0
C1491 C 0.07492 0.66483 0.73195 0.0
C1492 C 0.08058 0.67113 0.70653 0.0
C1493 C 0.05448 0.66802 0.7411 0.0
C1494 C 0.03931 0.67759 0.72508 0.0
C1495 C 0.04494 0.68415 0.69981 0.0
C1496 C 0.06547 0.68108 0.69066 0.0
C1497 C 0.01726 0.67927 0.73422 0.0
C1498 C 0.00164 0.66853 0.72015 0.0
C1499 C 0.01201 0.68924 0.7581 0.0
C1500 C 0.02771 0.70162 0.77318 0.0
C1501 C 0.0393 0.71778 0.76103 0.0
C1502 C 0.0542 0.72926 0.77525 0.0
C1503 C 0.05759 0.7248 0.80169 0.0
C1504 C 0.04605 0.70888 0.81397 0.0
C1505 C 0.03114 0.69734 0.79984 0.0
H1506 H 0.06914 0.73371 0.81266 0.0
H1507 H 0.92615 0.61843 0.67695 0.0
H1508 H 0.31729 0.07129 0.66994 0.0
H1509 H 0.31284 0.03765 0.69255 0.0
H1510 H 0.32423 0.0683 0.76657 0.0
H1511 H 0.32929 0.10182 0.74404 0.0
H1512 H 0.34831 0.0353 0.76203 0.0
H1513 H 0.27478 0.0486 0.74891 0.0
H1514 H 0.24281 0.05725 0.72371 0.0
H1515 H 0.25158 0.00203 0.67645 0.0
H1516 H 0.28378 0.99318 0.70114 0.0
H1517 H 0.3302 0.94525 0.83931 0.0
H1518 H 0.32425 0.97998 0.82002 0.0
H1519 H 0.3192 0.9518 0.74351 0.0
H1520 H 0.32496 0.91697 0.76261 0.0
H1521 H 0.29015 0.98385 0.75101 0.0
H1522 H 0.36477 0.9724 0.76141 0.0
H1523 H 0.39706 0.9636 0.78592 0.0
H1524 H 0.38612 0.01569 0.83777 0.0
H1525 H 0.3536 0.02463 0.81374 0.0
C1526 C 0.3185 0.07092 0.69107 0.0
C1527 C 0.32379 0.08916 0.7052 0.0
C1528 C 0.31585 0.05169 0.704 0.0
C1529 C 0.3181 0.05046 0.7313 0.0
C1530 C 0.32249 0.06886 0.7455 0.0
C1531 C 0.32535 0.08801 0.73259 0.0
C1532 C 0.31779 0.02978 0.74481 0.0
C1533 C 0.33536 0.02426 0.76002 0.0
C1534 C 0.30121 0.01509 0.74158 0.0
C1535 C 0.2818 0.02033 0.72675 0.0
C1536 C 0.26999 0.03838 0.73302 0.0
C1537 C 0.2518 0.04331 0.71885 0.0
C1538 C 0.24519 0.03022 0.69846 0.0
C1539 C 0.25673 0.01216 0.69224 0.0
C1540 C 0.27493 0.00716 0.70634 0.0
C1541 C 0.3276 0.94639 0.81842 0.0
C1542 C 0.32829 0.92838 0.80245 0.0
C1543 C 0.32421 0.96625 0.80744 0.0
C1544 C 0.32154 0.96844 0.78032 0.0
C1545 C 0.32124 0.95042 0.76449 0.0
C1546 C 0.32465 0.93054 0.77544 0.0
C1547 C 0.32055 0.98961 0.76825 0.0
C1548 C 0.30289 0.9951 0.75322 0.0
C1549 C 0.33705 0.00433 0.77156 0.0
C1550 C 0.35664 -0.00096 0.78596 0.0
C1551 C 0.36917 0.98187 0.77816 0.0
C1552 C 0.38752 0.97688 0.79194 0.0
C1553 C 0.3936 0.98904 0.81344 0.0
C1554 C 0.38137 0.00626 0.82115 0.0
C1555 C 0.36299 0.01131 0.80744 0.0
H1556 H 0.40782 0.98515 0.82409 0.0
H1557 H 0.23111 0.03407 0.68751 0.0
H1558 H 0.08734 0.36391 0.76571 0.0
H1559 H 0.05128 0.36525 0.74959 0.0
H1560 H 0.04102 0.30148 0.7759 0.0
H1561 H 0.07747 0.29983 0.7917 0.0
H1562 H 0.02336 0.3081 0.72851 0.0
H1563 H 0.02246 0.34248 0.81145 0.0
H1564 H 0.03427 0.36744 0.84536 0.0
H1565 H 0.02009 0.41946 0.7946 0.0
H1566 H 0.00849 0.39479 0.76021 0.0
H1567 H 0.91122 0.31911 0.71725 0.0
H1568 H 0.94678 0.31299 0.73408 0.0
H1569 H 0.96545 0.37494 0.70824 0.0
H1570 H 0.92996 0.38126 0.69153 0.0
H1571 H 0.97773 0.36687 0.75835 0.0
H1572 H 0.98041 0.33171 0.67463 0.0
H1573 H 0.96854 0.30636 0.64119 0.0
H1574 H 0.97877 0.25523 0.69473 0.0
H1575 H 0.99043 0.28032 0.72862 0.0
C1576 C 0.07748 0.35011 0.76803 0.0
C1577 C 0.0852 0.33181 0.78021 0.0
C1578 C 0.05683 0.35094 0.75887 0.0
C1579 C 0.04334 0.33362 0.76203 0.0
C1580 C 0.05115 0.31506 0.77342 0.0
C1581 C 0.07195 0.31415 0.78245 0.0
C1582 C 0.02104 0.33521 0.75371 0.0
C1583 C 0.01325 0.32073 0.73536 0.0
C1584 C 0.00795 0.35185 0.76244 0.0
C1585 C 0.01475 0.36676 0.78317 0.0
C1586 C 0.02199 0.35923 0.80744 0.0
C1587 C 0.02864 0.37333 0.82676 0.0
C1588 C 0.02797 0.39502 0.82212 0.0
C1589 C 0.02061 0.40265 0.79816 0.0
C1590 C 0.01398 0.38862 0.77876 0.0
C1591 C 0.92292 0.3314 0.71505 0.0
C1592 C 0.91779 0.35067 0.70301 0.0
C1593 C 0.94323 0.32784 0.7246 0.0
C1594 C 0.95876 0.34346 0.72223 0.0
C1595 C 0.95368 0.36269 0.71023 0.0
C1596 C 0.93341 0.36624 0.70062 0.0
C1597 C 0.98021 0.34005 0.73276 0.0
C1598 C 0.9878 0.35416 0.75164 0.0
C1599 C 0.99302 0.32301 0.72464 0.0
C1600 C 0.98607 0.30792 0.70425 0.0
C1601 C 0.97996 0.31508 0.67934 0.0
C1602 C 0.9733 0.30075 0.66029 0.0
C1603 C 0.97284 0.2792 0.66585 0.0
C1604 C 0.9791 0.27193 0.69046 0.0
C1605 C 0.98575 0.28619 0.70959 0.0
H1606 H 0.96768 0.26813 0.65108 0.0
H1607 H 0.03313 0.40591 0.8371 0.0
H1608 H 0.36311 0.09374 0.22288 0.0
H1609 H 0.35947 0.05701 0.20951 0.0
H1610 H 0.32307 0.04402 0.27895 0.0
H1611 H 0.32702 0.08066 0.29276 0.0
H1612 H 0.35296 0.01574 0.27326 0.0
H1613 H 0.30009 0.04476 0.21775 0.0
H1614 H 0.28485 0.06917 0.18534 0.0
H1615 H 0.32991 0.04863 0.12814 0.0
H1616 H 0.34562 0.02429 0.16032 0.0
H1617 H 0.33135 0.91059 0.23354 0.0
H1618 H 0.32559 0.94757 0.24503 0.0
H1619 H 0.36634 0.9668 0.18188 0.0
H1620 H 0.3721 0.92994 0.17015 0.0
H1621 H 0.33057 0.9914 0.18532 0.0
H1622 H 0.38512 0.96497 0.24262 0.0
H1623 H 0.40021 0.9406 0.2752 0.0
H1624 H 0.35102 0.95655 0.32934 0.0
H1625 H 0.33547 0.98082 0.29691 0.0
C1626 C 0.35411 0.08314 0.23517 0.0
C1627 C 0.34543 0.0901 0.25894 0.0
C1628 C 0.35194 0.06215 0.22742 0.0
C1629 C 0.34084 0.04779 0.24312 0.0
C1630 C 0.3317 0.05483 0.26653 0.0
C1631 C 0.33395 0.07579 0.27436 0.0
C1632 C 0.34008 0.02514 0.23602 0.0
C1633 C 0.34764 0.0104 0.25421 0.0
C1634 C 0.33355 0.0182 0.21098 0.0
C1635 C 0.32414 0.03281 0.19153 0.0
C1636 C 0.30686 0.04556 0.19832 0.0
C1637 C 0.29811 0.05936 0.17998 0.0
C1638 C 0.30643 0.06048 0.15472 0.0
C1639 C 0.32349 0.04776 0.14773 0.0
C1640 C 0.33231 0.03393 0.166 0.0
C1641 C 0.33898 0.92269 0.22199 0.0
C1642 C 0.35232 0.91733 0.20106 0.0
C1643 C 0.33569 0.94379 0.22861 0.0
C1644 C 0.34569 0.95988 0.21443 0.0
C1645 C 0.35848 0.9546 0.19305 0.0
C1646 C 0.36184 0.93352 0.18648 0.0
C1647 C 0.34359 0.98218 0.22248 0.0
C1648 C 0.33558 0.99681 0.20447 0.0
C1649 C 0.34963 0.98904 0.24771 0.0
C1650 C 0.359 0.97452 0.26724 0.0
C1651 C 0.37742 0.96315 0.26139 0.0
C1652 C 0.38608 0.94938 0.27984 0.0
C1653 C 0.37654 0.94698 0.30429 0.0
C1654 C 0.35836 0.95839 0.31037 0.0
C1655 C 0.34963 0.97216 0.29197 0.0
H1656 H 0.38326 0.93631 0.31856 0.0
H1657 H 0.29964 0.07118 0.14054 0.0
H1658 H 0.91197 0.34939 0.25411 0.0
H1659 H 0.94777 0.34715 0.23723 0.0
H1660 H 0.97083 0.33319 0.31474 0.0
H1661 H 0.93498 0.33598 0.33197 0.0
H1662 H 0.99449 0.36199 0.29294 0.0
H1663 H 0.9689 0.29498 0.26624 0.0
H1664 H 0.94437 0.26955 0.24624 0.0
H1665 H 0.95298 0.29889 0.17131 0.0
H1666 H 0.97735 0.32471 0.19092 0.0
H1667 H 0.09729 0.34011 0.24327 0.0
H1668 H 0.06269 0.33417 0.26307 0.0
H1669 H 0.03261 0.35835 0.19363 0.0
H1670 H 0.06711 0.36448 0.17371 0.0
H1671 H 0.01395 0.32091 0.21397 0.0
H1672 H 0.03724 0.38976 0.24303 0.0
H1673 H 0.06226 0.41437 0.26371 0.0
H1674 H 0.05844 0.37961 0.33562 0.0
H1675 H 0.03361 0.3546 0.31523 0.0
C1676 C 0.9246 0.34565 0.26757 0.0
C1677 C 0.92062 0.34287 0.2944 0.0
C1678 C 0.94508 0.34425 0.25785 0.0
C1679 C 0.96197 0.33971 0.27465 0.0
C1680 C 0.95803 0.33666 0.30141 0.0
C1681 C 0.93753 0.33822 0.31121 0.0
C1682 C 0.98383 0.33936 0.26439 0.0
C1683 C -0.00117 0.35265 0.276 0.0
C1684 C 0.98945 0.32743 0.24204 0.0
C1685 C 0.97484 0.31189 0.23011 0.0
C1686 C 0.96545 0.29612 0.24553 0.0
C1687 C 0.95159 0.28161 0.23426 0.0
C1688 C 0.94709 0.28263 0.20754 0.0
C1689 C 0.95648 0.29813 0.19202 0.0
C1690 C 0.97034 0.31269 0.20319 0.0
C1691 C 0.08331 0.34403 0.23213 0.0
C1692 C 0.0849 0.35288 0.20698 0.0
C1693 C 0.06359 0.34066 0.24349 0.0
C1694 C 0.04518 0.34594 0.22983 0.0
C1695 C 0.04669 0.35417 0.20444 0.0
C1696 C 0.06639 0.35775 0.19316 0.0
C1697 C 0.02431 0.3437 0.24234 0.0
C1698 C 0.00957 0.32997 0.23112 0.0
C1699 C 0.01897 0.35505 0.26519 0.0
C1700 C 0.03377 0.37017 0.27751 0.0
C1701 C 0.04188 0.38726 0.26318 0.0
C1702 C 0.056 0.4013 0.27486 0.0
C1703 C 0.06199 0.39852 0.30094 0.0
C1704 C 0.05382 0.38172 0.31541 0.0
C1705 C 0.03971 0.36762 0.30381 0.0
H1706 H 0.07293 0.4094 0.30994 0.0
H1707 H 0.93635 0.27138 0.19885 0.0
H1708 H 0.60572 0.91395 0.26494 0.0
H1709 H 0.60898 0.9503 0.25029 0.0
H1710 H 0.67572 0.94876 0.26619 0.0
H1711 H 0.67253 0.9123 0.28144 0.0
H1712 H 0.6581 0.98375 0.28559 0.0
H1713 H 0.65794 0.94877 0.20331 0.0
H1714 H 0.64556 0.92381 0.16971 0.0
H1715 H 0.58628 0.95623 0.1656 0.0
H1716 H 0.5982 0.98123 0.19944 0.0
H1717 H 0.66863 0.08543 0.22417 0.0
H1718 H 0.67303 0.04793 0.23429 0.0
H1719 H 0.60583 0.03901 0.22876 0.0
H1720 H 0.60126 0.07632 0.21874 0.0
H1721 H 0.6287 0.00894 0.20125 0.0
H1722 H 0.62802 0.04129 0.28697 0.0
H1723 H 0.64039 0.06588 0.32099 0.0
H1724 H 0.702 0.03803 0.31809 0.0
H1725 H 0.69004 0.01344 0.28376 0.0
C1726 C 0.62115 0.92124 0.26518 0.0
C1727 C 0.63888 0.91024 0.27438 0.0
C1728 C 0.623 0.94202 0.25664 0.0
C1729 C 0.64264 0.95216 0.25686 0.0
C1730 C 0.66043 0.94118 0.2658 0.0
C1731 C 0.65859 0.92035 0.27442 0.0
C1732 C 0.64422 0.97454 0.24884 0.0
C1733 C 0.6521 0.98921 0.2669 0.0
C1734 C 0.63611 0.98168 0.22462 0.0
C1735 C 0.62893 0.96681 0.20405 0.0
C1736 C 0.64221 0.9505 0.19536 0.0
C1737 C 0.63528 0.93635 0.17625 0.0
C1738 C 0.61513 0.93841 0.16556 0.0
C1739 C 0.60189 0.95465 0.17391 0.0
C1740 C 0.60874 0.96884 0.19302 0.0
C1741 C 0.65479 0.07549 0.22521 0.0
C1742 C 0.63459 0.08384 0.2207 0.0
C1743 C 0.65734 0.0541 0.23101 0.0
C1744 C 0.63974 0.04076 0.23227 0.0
C1745 C 0.6196 0.04906 0.22777 0.0
C1746 C 0.61702 0.07041 0.22219 0.0
C1747 C 0.64213 0.01808 0.23822 0.0
C1748 C 0.63501 0.00339 0.21973 0.0
C1749 C 0.65102 0.01093 0.26198 0.0
C1750 C 0.65822 0.02572 0.28257 0.0
C1751 C 0.64426 0.04055 0.2934 0.0
C1752 C 0.65118 0.05446 0.31278 0.0
C1753 C 0.67199 0.05357 0.32163 0.0
C1754 C 0.6859 0.03873 0.31117 0.0
C1755 C 0.67906 0.0248 0.29177 0.0
H1756 H 0.67732 0.06435 0.33665 0.0
H1757 H 0.60979 0.92743 0.15078 0.0
H1758 H 0.09231 0.62623 0.23516 0.0
H1759 H 0.0559 0.62954 0.22073 0.0
H1760 H 0.04391 0.67447 0.28233 0.0
H1761 H 0.0803 0.67071 0.29744 0.0
H1762 H 0.01384 0.64688 0.28135 0.0
H1763 H 0.0462 0.68955 0.21682 0.0
H1764 H 0.07186 0.69961 0.18285 0.0
H1765 H 0.05121 0.64818 0.1347 0.0
H1766 H 0.02562 0.63761 0.16854 0.0
H1767 H 0.91124 0.66666 0.22506 0.0
H1768 H 0.94774 0.67295 0.23884 0.0
H1769 H 0.96764 0.61742 0.19701 0.0
H1770 H 0.93126 0.61077 0.18362 0.0
H1771 H 0.99278 0.6559 0.18854 0.0
H1772 H 0.9632 0.6119 0.25737 0.0
H1773 H 0.93718 0.6035 0.29163 0.0
H1774 H 0.95245 0.66092 0.33178 0.0
H1775 H 0.97836 0.6698 0.29751 0.0
C1776 C 0.08202 0.63699 0.2455 0.0
C1777 C 0.08918 0.64818 0.26747 0.0
C1778 C 0.0612 0.63898 0.23711 0.0
C1779 C 0.04721 0.65248 0.25021 0.0
C1780 C 0.05443 0.66399 0.27189 0.0
C1781 C 0.07523 0.66185 0.28046 0.0
C1782 C 0.02476 0.65344 0.24222 0.0
C1783 C 0.00925 0.64933 0.26113 0.0
C1784 C 0.01871 0.65643 0.2158 0.0
C1785 C 0.03408 0.6627 0.19534 0.0
C1786 C 0.04724 0.68028 0.19908 0.0
C1787 C 0.06175 0.68609 0.17982 0.0
C1788 C 0.06319 0.67452 0.15665 0.0
C1789 C 0.05009 0.65713 0.15266 0.0
C1790 C 0.03555 0.65124 0.17187 0.0
C1791 C 0.92342 0.65582 0.2188 0.0
C1792 C 0.91843 0.63817 0.20337 0.0
C1793 C 0.9442 0.65944 0.22667 0.0
C1794 C 0.96027 0.64564 0.21887 0.0
C1795 C 0.95539 0.62824 0.20312 0.0
C1796 C 0.93461 0.62441 0.19565 0.0
C1797 C 0.98219 0.64895 0.22757 0.0
C1798 C 0.9975 0.65384 0.20878 0.0
C1799 C 0.98804 0.647 0.25411 0.0
C1800 C 0.9725 0.64164 0.27471 0.0
C1801 C 0.96085 0.62283 0.27336 0.0
C1802 C 0.94616 0.61796 0.29281 0.0
C1803 C 0.94311 0.6317 0.31382 0.0
C1804 C 0.95479 0.65032 0.31546 0.0
C1805 C 0.96949 0.65527 0.29604 0.0
H1806 H 0.93174 0.6279 0.32887 0.0
H1807 H 0.07444 0.67904 0.14177 0.0
loop_
_geom_bond_atom_site_label_1
_geom_bond_atom_site_label_2
_geom_bond_distance
_geom_bond_site_symmetry_2
_ccdc_geom_bond_type
C0 O1 1.160 . S
C0 O7 1.185 . S
O1 C0 1.160 . S
O2 Zn3 1.899 . S
O2 C10 1.284 . S
Zn3 O2 1.899 . S
Zn3 O4 2.032 . S
Zn3 O7 2.086 . S
Zn3 O12 1.977 . S
O4 Zn3 2.032 . S
O4 C8 1.278 . S
C5 O6 1.203 . S
C5 O12 1.267 . S
O6 C5 1.203 . S
O7 C0 1.185 . S
O7 Zn3 2.086 . S
C8 O4 1.278 . S
C8 O9 1.211 . S
O9 C8 1.211 . S
C10 O2 1.284 . S
C10 O11 1.273 . S
O11 C10 1.273 . S
O12 Zn3 1.977 . S
O12 C5 1.267 . S
C13 O14 1.160 . S
C13 O20 1.185 . S
O14 C13 1.160 . S
O15 Zn16 1.899 . S
O15 C23 1.284 . S
Zn16 O15 1.899 . S
Zn16 O17 2.032 . S
Zn16 O20 2.086 . S
Zn16 O25 1.977 . S
O17 Zn16 2.032 . S
O17 C21 1.278 . S
C18 O19 1.203 . S
C18 O25 1.267 . S
O19 C18 1.203 . S
O20 C13 1.185 . S
O20 Zn16 2.086 . S
C21 O17 1.278 . S
C21 O22 1.211 . S
O22 C21 1.211 . S
C23 O15 1.284 . S
C23 O24 1.273 . S
O24 C23 1.273 . S
O25 Zn16 1.977 . S
O25 C18 1.267 . S
C26 O27 1.160 . S
C26 O33 1.185 . S
O27 C26 1.160 . S
O28 Zn29 1.899 . S
O28 C36 1.284 . S
Zn29 O28 1.899 . S
Zn29 O30 2.032 . S
Zn29 O33 2.086 . S
Zn29 O38 1.977 . S
O30 Zn29 2.032 . S
O30 C34 1.278 . S
C31 O32 1.203 . S
C31 O38 1.267 . S
O32 C31 1.203 . S
O33 C26 1.185 . S
O33 Zn29 2.086 . S
C34 O30 1.278 . S
C34 O35 1.211 . S
O35 C34 1.211 . S
C36 O28 1.284 . S
C36 O37 1.273 . S
O37 C36 1.273 . S
O38 Zn29 1.977 . S
O38 C31 1.267 . S
C39 O40 1.160 . S
C39 O46 1.185 . S
O40 C39 1.160 . S
O41 Zn42 1.899 . S
O41 C49 1.284 . S
Zn42 O41 1.899 . S
Zn42 O43 2.032 . S
Zn42 O46 2.086 . S
Zn42 O51 1.977 . S
O43 Zn42 2.032 . S
O43 C47 1.278 . S
C44 O45 1.203 . S
C44 O51 1.267 . S
O45 C44 1.203 . S
O46 C39 1.185 . S
O46 Zn42 2.086 . S
C47 O43 1.278 . S
C47 O48 1.211 . S
O48 C47 1.211 . S
C49 O41 1.284 . S
C49 O50 1.273 . S
O50 C49 1.273 . S
O51 Zn42 1.977 . S
O51 C44 1.267 . S
C52 O53 1.160 . S
C52 O59 1.185 . S
O53 C52 1.160 . S
O54 Zn55 1.899 . S
O54 C62 1.284 . S
Zn55 O54 1.899 . S
Zn55 O56 2.032 . S
Zn55 O59 2.086 . S
Zn55 O64 1.977 . S
O56 Zn55 2.032 . S
O56 C60 1.278 . S
C57 O58 1.203 . S
C57 O64 1.267 . S
O58 C57 1.203 . S
O59 C52 1.185 . S
O59 Zn55 2.086 . S
C60 O56 1.278 . S
C60 O61 1.211 . S
O61 C60 1.211 . S
C62 O54 1.284 . S
C62 O63 1.273 . S
O63 C62 1.273 . S
O64 Zn55 1.977 . S
O64 C57 1.267 . S
C65 O66 1.160 . S
C65 O72 1.185 . S
O66 C65 1.160 . S
O67 Zn68 1.899 . S
O67 C75 1.284 . S
Zn68 O67 1.899 . S
Zn68 O69 2.032 . S
Zn68 O72 2.086 . S
Zn68 O77 1.977 . S
O69 Zn68 2.032 . S
O69 C73 1.278 . S
C70 O71 1.203 . S
C70 O77 1.267 . S
O71 C70 1.203 . S
O72 C65 1.185 . S
O72 Zn68 2.086 . S
C73 O69 1.278 . S
C73 O74 1.211 . S
O74 C73 1.211 . S
C75 O67 1.284 . S
C75 O76 1.273 . S
O76 C75 1.273 . S
O77 Zn68 1.977 . S
O77 C70 1.267 . S
C78 O79 1.160 . S
C78 O85 1.185 . S
O79 C78 1.160 . S
O80 Zn81 1.899 . S
O80 C88 1.284 . S
Zn81 O80 1.899 . S
Zn81 O82 2.032 . S
Zn81 O85 2.086 . S
Zn81 O90 1.977 . S
O82 Zn81 2.032 . S
O82 C86 1.278 . S
C83 O84 1.203 . S
C83 O90 1.267 . S
O84 C83 1.203 . S
O85 C78 1.185 . S
O85 Zn81 2.086 . S
C86 O82 1.278 . S
C86 O87 1.211 . S
O87 C86 1.211 . S
C88 O80 1.284 . S
C88 O89 1.273 . S
O89 C88 1.273 . S
O90 Zn81 1.977 . S
O90 C83 1.267 . S
C91 O92 1.160 . S
C91 O98 1.185 . S
O92 C91 1.160 . S
O93 Zn94 1.899 . S
O93 C101 1.284 . S
Zn94 O93 1.899 . S
Zn94 O95 2.032 . S
Zn94 O98 2.086 . S
Zn94 O103 1.977 . S
O95 Zn94 2.032 . S
O95 C99 1.278 . S
C96 O97 1.203 . S
C96 O103 1.267 . S
O97 C96 1.203 . S
O98 C91 1.185 . S
O98 Zn94 2.086 . S
C99 O95 1.278 . S
C99 O100 1.211 . S
O100 C99 1.211 . S
C101 O93 1.284 . S
C101 O102 1.273 . S
O102 C101 1.273 . S
O103 Zn94 1.977 . S
O103 C96 1.267 . S
C104 O105 1.160 . S
C104 O111 1.185 . S
O105 C104 1.160 . S
O106 Zn107 1.899 . S
O106 C114 1.284 . S
Zn107 O106 1.899 . S
Zn107 O108 2.032 . S
Zn107 O111 2.086 . S
Zn107 O116 1.977 . S
O108 Zn107 2.032 . S
O108 C112 1.278 . S
C109 O110 1.203 . S
C109 O116 1.267 . S
O110 C109 1.203 . S
O111 C104 1.185 . S
O111 Zn107 2.086 . S
C112 O108 1.278 . S
C112 O113 1.211 . S
O113 C112 1.211 . S
C114 O106 1.284 . S
C114 O115 1.273 . S
O115 C114 1.273 . S
O116 Zn107 1.977 . S
O116 C109 1.267 . S
C117 O118 1.160 . S
C117 O124 1.185 . S
O118 C117 1.160 . S
O119 Zn120 1.899 . S
O119 C127 1.284 . S
Zn120 O119 1.899 . S
Zn120 O121 2.032 . S
Zn120 O124 2.086 . S
Zn120 O129 1.977 . S
O121 Zn120 2.032 . S
O121 C125 1.278 . S
C122 O123 1.203 . S
C122 O129 1.267 . S
O123 C122 1.203 . S
O124 C117 1.185 . S
O124 Zn120 2.086 . S
C125 O121 1.278 . S
C125 O126 1.211 . S
O126 C125 1.211 . S
C127 O119 1.284 . S
C127 O128 1.273 . S
O128 C127 1.273 . S
O129 Zn120 1.977 . S
O129 C122 1.267 . S
C130 O131 1.160 . S
C130 O137 1.185 . S
O131 C130 1.160 . S
O132 Zn133 1.899 . S
O132 C140 1.284 . S
Zn133 O132 1.899 . S
Zn133 O134 2.032 . S
Zn133 O137 2.086 . S
Zn133 O142 1.977 . S
O134 Zn133 2.032 . S
O134 C138 1.278 . S
C135 O136 1.203 . S
C135 O142 1.267 . S
O136 C135 1.203 . S
O137 C130 1.185 . S
O137 Zn133 2.086 . S
C138 O134 1.278 . S
C138 O139 1.211 . S
O139 C138 1.211 . S
C140 O132 1.284 . S
C140 O141 1.273 . S
O141 C140 1.273 . S
O142 Zn133 1.977 . S
O142 C135 1.267 . S
C143 O144 1.160 . S
C143 O150 1.185 . S
O144 C143 1.160 . S
O145 Zn146 1.899 . S
O145 C153 1.284 . S
Zn146 O145 1.899 . S
Zn146 O147 2.032 . S
Zn146 O150 2.086 . S
Zn146 O155 1.977 . S
O147 Zn146 2.032 . S
O147 C151 1.278 . S
C148 O149 1.203 . S
C148 O155 1.267 . S
O149 C148 1.203 . S
O150 C143 1.185 . S
O150 Zn146 2.086 . S
C151 O147 1.278 . S
C151 O152 1.211 . S
O152 C151 1.211 . S
C153 O145 1.284 . S
C153 O154 1.273 . S
O154 C153 1.273 . S
O155 Zn146 1.977 . S
O155 C148 1.267 . S
C156 O157 1.160 . S
C156 O163 1.185 . S
O157 C156 1.160 . S
O158 Zn159 1.899 . S
O158 C166 1.284 . S
Zn159 O158 1.899 . S
Zn159 O160 2.032 . S
Zn159 O163 2.086 . S
Zn159 O168 1.977 . S
O160 Zn159 2.032 . S
O160 C164 1.278 . S
C161 O162 1.203 . S
C161 O168 1.267 . S
O162 C161 1.203 . S
O163 C156 1.185 . S
O163 Zn159 2.086 . S
C164 O160 1.278 . S
C164 O165 1.211 . S
O165 C164 1.211 . S
C166 O158 1.284 . S
C166 O167 1.273 . S
O167 C166 1.273 . S
O168 Zn159 1.977 . S
O168 C161 1.267 . S
C169 O170 1.160 . S
C169 O176 1.185 . S
O170 C169 1.160 . S
O171 Zn172 1.899 . S
O171 C179 1.284 . S
Zn172 O171 1.899 . S
Zn172 O173 2.032 . S
Zn172 O176 2.086 . S
Zn172 O181 1.977 . S
O173 Zn172 2.032 . S
O173 C177 1.278 . S
C174 O175 1.203 . S
C174 O181 1.267 . S
O175 C174 1.203 . S
O176 C169 1.185 . S
O176 Zn172 2.086 . S
C177 O173 1.278 . S
C177 O178 1.211 . S
O178 C177 1.211 . S
C179 O171 1.284 . S
C179 O180 1.273 . S
O180 C179 1.273 . S
O181 Zn172 1.977 . S
O181 C174 1.267 . S
C182 O183 1.160 . S
C182 O189 1.185 . S
O183 C182 1.160 . S
O184 Zn185 1.899 . S
O184 C192 1.284 . S
Zn185 O184 1.899 . S
Zn185 O186 2.032 . S
Zn185 O189 2.086 . S
Zn185 O194 1.977 . S
O186 Zn185 2.032 . S
O186 C190 1.278 . S
C187 O188 1.203 . S
C187 O194 1.267 . S
O188 C187 1.203 . S
O189 C182 1.185 . S
O189 Zn185 2.086 . S
C190 O186 1.278 . S
C190 O191 1.211 . S
O191 C190 1.211 . S
C192 O184 1.284 . S
C192 O193 1.273 . S
O193 C192 1.273 . S
O194 Zn185 1.977 . S
O194 C187 1.267 . S
C195 O196 1.160 . S
C195 O202 1.185 . S
O196 C195 1.160 . S
O197 Zn198 1.899 . S
O197 C205 1.284 . S
Zn198 O197 1.899 . S
Zn198 O199 2.032 . S
Zn198 O202 2.086 . S
Zn198 O207 1.977 . S
O199 Zn198 2.032 . S
O199 C203 1.278 . S
C200 O201 1.203 . S
C200 O207 1.267 . S
O201 C200 1.203 . S
O202 C195 1.185 . S
O202 Zn198 2.086 . S
C203 O199 1.278 . S
C203 O204 1.211 . S
O204 C203 1.211 . S
C205 O197 1.284 . S
C205 O206 1.273 . S
O206 C205 1.273 . S
O207 Zn198 1.977 . S
O207 C200 1.267 . S
H208 C226 0.951 . S
H209 C228 0.951 . S
H210 C230 0.950 . S
H211 C231 0.950 . S
H212 C233 0.950 . S
H213 C236 0.950 . S
H214 C237 0.950 . S
H215 C239 0.950 . S
H216 C240 0.950 . S
H217 C241 0.951 . S
H218 C243 0.951 . S
H219 C245 0.950 . S
H220 C246 0.950 . S
H221 C248 0.950 . S
H222 C251 0.950 . S
H223 C252 0.950 . S
H224 C254 0.950 . S
H225 C255 0.950 . S
C226 H208 0.951 . S
C226 C227 1.366 . S
C226 C228 1.388 . S
C227 C226 1.366 . S
C227 C231 1.385 . S
C228 H209 0.951 . S
C228 C226 1.388 . S
C228 C229 1.366 . S
C229 C228 1.366 . S
C229 C230 1.414 . S
C229 C232 1.499 . S
C230 H210 0.950 . S
C230 C229 1.414 . S
C230 C231 1.374 . S
C231 H211 0.950 . S
C231 C227 1.385 . S
C231 C230 1.374 . S
C232 C229 1.499 . S
C232 C233 1.373 . S
C232 C234 1.389 . S
C233 H212 0.950 . S
C233 C232 1.373 . S
C233 C249 1.377 . S
C234 C232 1.389 . S
C234 C235 1.524 . S
C234 C248 1.377 . S
C235 C234 1.524 . S
C235 C236 1.397 . S
C235 C240 1.363 . S
C236 H213 0.950 . S
C236 C235 1.397 . S
C236 C237 1.334 . S
C237 H214 0.950 . S
C237 C236 1.334 . S
C237 C238 1.287 . S
C238 C237 1.287 . S
C238 C239 1.524 . S
C238 H257 0.913 . S
C239 H215 0.950 . S
C239 C238 1.524 . S
C239 C240 1.415 . S
C240 H216 0.950 . S
C240 C235 1.363 . S
C240 C239 1.415 . S
C241 H217 0.951 . S
C241 C242 1.366 . S
C241 C243 1.388 . S
C242 C241 1.366 . S
C242 C246 1.385 . S
C243 H218 0.951 . S
C243 C241 1.388 . S
C243 C244 1.366 . S
C244 C243 1.366 . S
C244 C245 1.414 . S
C244 C247 1.499 . S
C245 H219 0.950 . S
C245 C244 1.414 . S
C245 C246 1.374 . S
C246 H220 0.950 . S
C246 C242 1.385 . S
C246 C245 1.374 . S
C247 C244 1.499 . S
C247 C248 1.373 . S
C247 C249 1.389 . S
C248 H221 0.950 . S
C248 C234 1.377 . S
C248 C247 1.373 . S
C249 C233 1.377 . S
C249 C247 1.389 . S
C249 C250 1.524 . S
C250 C249 1.524 . S
C250 C251 1.397 . S
C250 C255 1.363 . S
C251 H222 0.950 . S
C251 C250 1.397 . S
C251 C252 1.334 . S
C252 H223 0.950 . S
C252 C251 1.334 . S
C252 C253 1.287 . S
C253 C252 1.287 . S
C253 C254 1.524 . S
C253 H256 0.999 . S
C254 H224 0.950 . S
C254 C253 1.524 . S
C254 C255 1.415 . S
C255 H225 0.950 . S
C255 C250 1.363 . S
C255 C254 1.415 . S
H256 C253 0.999 . S
H257 C238 0.913 . S
H258 C276 0.951 . S
H259 C278 0.951 . S
H260 C280 0.950 . S
H261 C281 0.950 . S
H262 C283 0.950 . S
H263 C286 0.950 . S
H264 C287 0.950 . S
H265 C289 0.950 . S
H266 C290 0.950 . S
H267 C291 0.951 . S
H268 C293 0.951 . S
H269 C295 0.950 . S
H270 C296 0.950 . S
H271 C298 0.950 . S
H272 C301 0.950 . S
H273 C302 0.950 . S
H274 C304 0.950 . S
H275 C305 0.950 . S
C276 H258 0.951 . S
C276 C277 1.366 . S
C276 C278 1.388 . S
C277 C276 1.366 . S
C277 C281 1.385 . S
C278 H259 0.951 . S
C278 C276 1.388 . S
C278 C279 1.366 . S
C279 C278 1.366 . S
C279 C280 1.414 . S
C279 C282 1.499 . S
C280 H260 0.950 . S
C280 C279 1.414 . S
C280 C281 1.374 . S
C281 H261 0.950 . S
C281 C277 1.385 . S
C281 C280 1.374 . S
C282 C279 1.499 . S
C282 C283 1.373 . S
C282 C284 1.389 . S
C283 H262 0.950 . S
C283 C282 1.373 . S
C283 C299 1.377 . S
C284 C282 1.389 . S
C284 C285 1.524 . S
C284 C298 1.377 . S
C285 C284 1.524 . S
C285 C286 1.397 . S
C285 C290 1.363 . S
C286 H263 0.950 . S
C286 C285 1.397 . S
C286 C287 1.334 . S
C287 H264 0.950 . S
C287 C286 1.334 . S
C287 C288 1.287 . S
C288 C287 1.287 . S
C288 C289 1.524 . S
C288 H307 0.913 . S
C289 H265 0.950 . S
C289 C288 1.524 . S
C289 C290 1.415 . S
C290 H266 0.950 . S
C290 C285 1.363 . S
C290 C289 1.415 . S
C291 H267 0.951 . S
C291 C292 1.366 . S
C291 C293 1.388 . S
C292 C291 1.366 . S
C292 C296 1.385 . S
C293 H268 0.951 . S
C293 C291 1.388 . S
C293 C294 1.366 . S
C294 C293 1.366 . S
C294 C295 1.414 . S
C294 C297 1.499 . S
C295 H269 0.950 . S
C295 C294 1.414 . S
C295 C296 1.374 . S
C296 H270 0.950 . S
C296 C292 1.385 . S
C296 C295 1.374 . S
C297 C294 1.499 . S
C297 C298 1.373 . S
C297 C299 1.389 . S
C298 H271 0.950 . S
C298 C284 1.377 . S
C298 C297 1.373 . S
C299 C283 1.377 . S
C299 C297 1.389 . S
C299 C300 1.524 . S
C300 C299 1.524 . S
C300 C301 1.397 . S
C300 C305 1.363 . S
C301 H272 0.950 . S
C301 C300 1.397 . S
C301 C302 1.334 . S
C302 H273 0.950 . S
C302 C301 1.334 . S
C302 C303 1.287 . S
C303 C302 1.287 . S
C303 C304 1.524 . S
C303 H306 0.999 . S
C304 H274 0.950 . S
C304 C303 1.524 . S
C304 C305 1.415 . S
C305 H275 0.950 . S
C305 C300 1.363 . S
C305 C304 1.415 . S
H306 C303 0.999 . S
H307 C288 0.913 . S
H308 C326 0.951 . S
H309 C328 0.951 . S
H310 C330 0.950 . S
H311 C331 0.950 . S
H312 C333 0.950 . S
H313 C336 0.950 . S
H314 C337 0.950 . S
H315 C339 0.950 . S
H316 C340 0.950 . S
H317 C341 0.951 . S
H318 C343 0.951 . S
H319 C345 0.950 . S
H320 C346 0.950 . S
H321 C348 0.950 . S
H322 C351 0.950 . S
H323 C352 0.950 . S
H324 C354 0.950 . S
H325 C355 0.950 . S
C326 H308 0.951 . S
C326 C327 1.366 . S
C326 C328 1.388 . S
C327 C326 1.366 . S
C327 C331 1.385 . S
C328 H309 0.951 . S
C328 C326 1.388 . S
C328 C329 1.366 . S
C329 C328 1.366 . S
C329 C330 1.414 . S
C329 C332 1.499 . S
C330 H310 0.950 . S
C330 C329 1.414 . S
C330 C331 1.374 . S
C331 H311 0.950 . S
C331 C327 1.385 . S
C331 C330 1.374 . S
C332 C329 1.499 . S
C332 C333 1.373 . S
C332 C334 1.389 . S
C333 H312 0.950 . S
C333 C332 1.373 . S
C333 C349 1.377 . S
C334 C332 1.389 . S
C334 C335 1.524 . S
C334 C348 1.377 . S
C335 C334 1.524 . S
C335 C336 1.397 . S
C335 C340 1.363 . S
C336 H313 0.950 . S
C336 C335 1.397 . S
C336 C337 1.334 . S
C337 H314 0.950 . S
C337 C336 1.334 . S
C337 C338 1.287 . S
C338 C337 1.287 . S
C338 C339 1.524 . S
C338 H357 0.913 . S
C339 H315 0.950 . S
C339 C338 1.524 . S
C339 C340 1.415 . S
C340 H316 0.950 . S
C340 C335 1.363 . S
C340 C339 1.415 . S
C341 H317 0.951 . S
C341 C342 1.366 . S
C341 C343 1.388 . S
C342 C341 1.366 . S
C342 C346 1.385 . S
C343 H318 0.951 . S
C343 C341 1.388 . S
C343 C344 1.366 . S
C344 C343 1.366 . S
C344 C345 1.414 . S
C344 C347 1.499 . S
C345 H319 0.950 . S
C345 C344 1.414 . S
C345 C346 1.374 . S
C346 H320 0.950 . S
C346 C342 1.385 . S
C346 C345 1.374 . S
C347 C344 1.499 . S
C347 C348 1.373 . S
C347 C349 1.389 . S
C348 H321 0.950 . S
C348 C334 1.377 . S
C348 C347 1.373 . S
C349 C333 1.377 . S
C349 C347 1.389 . S
C349 C350 1.524 . S
C350 C349 1.524 . S
C350 C351 1.397 . S
C350 C355 1.363 . S
C351 H322 0.950 . S
C351 C350 1.397 . S
C351 C352 1.334 . S
C352 H323 0.950 . S
C352 C351 1.334 . S
C352 C353 1.287 . S
C353 C352 1.287 . S
C353 C354 1.524 . S
C353 H356 0.999 . S
C354 H324 0.950 . S
C354 C353 1.524 . S
C354 C355 1.415 . S
C355 H325 0.950 . S
C355 C350 1.363 . S
C355 C354 1.415 . S
H356 C353 0.999 . S
H357 C338 0.913 . S
H358 C376 0.951 . S
H359 C378 0.951 . S
H360 C380 0.950 . S
H361 C381 0.950 . S
H362 C383 0.950 . S
H363 C386 0.950 . S
H364 C387 0.950 . S
H365 C389 0.950 . S
H366 C390 0.950 . S
H367 C391 0.951 . S
H368 C393 0.951 . S
H369 C395 0.950 . S
H370 C396 0.950 . S
H371 C398 0.950 . S
H372 C401 0.950 . S
H373 C402 0.950 . S
H374 C404 0.950 . S
H375 C405 0.950 . S
C376 H358 0.951 . S
C376 C377 1.366 . S
C376 C378 1.388 . S
C377 C376 1.366 . S
C377 C381 1.385 . S
C378 H359 0.951 . S
C378 C376 1.388 . S
C378 C379 1.366 . S
C379 C378 1.366 . S
C379 C380 1.414 . S
C379 C382 1.499 . S
C380 H360 0.950 . S
C380 C379 1.414 . S
C380 C381 1.374 . S
C381 H361 0.950 . S
C381 C377 1.385 . S
C381 C380 1.374 . S
C382 C379 1.499 . S
C382 C383 1.373 . S
C382 C384 1.389 . S
C383 H362 0.950 . S
C383 C382 1.373 . S
C383 C399 1.377 . S
C384 C382 1.389 . S
C384 C385 1.524 . S
C384 C398 1.377 . S
C385 C384 1.524 . S
C385 C386 1.397 . S
C385 C390 1.363 . S
C386 H363 0.950 . S
C386 C385 1.397 . S
C386 C387 1.334 . S
C387 H364 0.950 . S
C387 C386 1.334 . S
C387 C388 1.287 . S
C388 C387 1.287 . S
C388 C389 1.524 . S
C388 H407 0.913 . S
C389 H365 0.950 . S
C389 C388 1.524 . S
C389 C390 1.415 . S
C390 H366 0.950 . S
C390 C385 1.363 . S
C390 C389 1.415 . S
C391 H367 0.951 . S
C391 C392 1.366 . S
C391 C393 1.388 . S
C392 C391 1.366 . S
C392 C396 1.385 . S
C393 H368 0.951 . S
C393 C391 1.388 . S
C393 C394 1.366 . S
C394 C393 1.366 . S
C394 C395 1.414 . S
C394 C397 1.499 . S
C395 H369 0.950 . S
C395 C394 1.414 . S
C395 C396 1.374 . S
C396 H370 0.950 . S
C396 C392 1.385 . S
C396 C395 1.374 . S
C397 C394 1.499 . S
C397 C398 1.373 . S
C397 C399 1.389 . S
C398 H371 0.950 . S
C398 C384 1.377 . S
C398 C397 1.373 . S
C399 C383 1.377 . S
C399 C397 1.389 . S
C399 C400 1.524 . S
C400 C399 1.524 . S
C400 C401 1.397 . S
C400 C405 1.363 . S
C401 H372 0.950 . S
C401 C400 1.397 . S
C401 C402 1.334 . S
C402 H373 0.950 . S
C402 C401 1.334 . S
C402 C403 1.287 . S
C403 C402 1.287 . S
C403 C404 1.524 . S
C403 H406 0.999 . S
C404 H374 0.950 . S
C404 C403 1.524 . S
C404 C405 1.415 . S
C405 H375 0.950 . S
C405 C400 1.363 . S
C405 C404 1.415 . S
H406 C403 0.999 . S
H407 C388 0.913 . S
H408 C426 0.951 . S
H409 C428 0.951 . S
H410 C430 0.950 . S
H411 C431 0.950 . S
H412 C433 0.950 . S
H413 C436 0.950 . S
H414 C437 0.950 . S
H415 C439 0.950 . S
H416 C440 0.950 . S
H417 C441 0.951 . S
H418 C443 0.951 . S
H419 C445 0.950 . S
H420 C446 0.950 . S
H421 C448 0.950 . S
H422 C451 0.950 . S
H423 C452 0.950 . S
H424 C454 0.950 . S
H425 C455 0.950 . S
C426 H408 0.951 . S
C426 C427 1.366 . S
C426 C428 1.388 . S
C427 C426 1.366 . S
C427 C431 1.385 . S
C428 H409 0.951 . S
C428 C426 1.388 . S
C428 C429 1.366 . S
C429 C428 1.366 . S
C429 C430 1.414 . S
C429 C432 1.499 . S
C430 H410 0.950 . S
C430 C429 1.414 . S
C430 C431 1.374 . S
C431 H411 0.950 . S
C431 C427 1.385 . S
C431 C430 1.374 . S
C432 C429 1.499 . S
C432 C433 1.373 . S
C432 C434 1.389 . S
C433 H412 0.950 . S
C433 C432 1.373 . S
C433 C449 1.377 . S
C434 C432 1.389 . S
C434 C435 1.524 . S
C434 C448 1.377 . S
C435 C434 1.524 . S
C435 C436 1.397 . S
C435 C440 1.363 . S
C436 H413 0.950 . S
C436 C435 1.397 . S
C436 C437 1.334 . S
C437 H414 0.950 . S
C437 C436 1.334 . S
C437 C438 1.287 . S
C438 C437 1.287 . S
C438 C439 1.524 . S
C438 H457 0.913 . S
C439 H415 0.950 . S
C439 C438 1.524 . S
C439 C440 1.415 . S
C440 H416 0.950 . S
C440 C435 1.363 . S
C440 C439 1.415 . S
C441 H417 0.951 . S
C441 C442 1.366 . S
C441 C443 1.388 . S
C442 C441 1.366 . S
C442 C446 1.385 . S
C443 H418 0.951 . S
C443 C441 1.388 . S
C443 C444 1.366 . S
C444 C443 1.366 . S
C444 C445 1.414 . S
C444 C447 1.499 . S
C445 H419 0.950 . S
C445 C444 1.414 . S
C445 C446 1.374 . S
C446 H420 0.950 . S
C446 C442 1.385 . S
C446 C445 1.374 . S
C447 C444 1.499 . S
C447 C448 1.373 . S
C447 C449 1.389 . S
C448 H421 0.950 . S
C448 C434 1.377 . S
C448 C447 1.373 . S
C449 C433 1.377 . S
C449 C447 1.389 . S
C449 C450 1.524 . S
C450 C449 1.524 . S
C450 C451 1.397 . S
C450 C455 1.363 . S
C451 H422 0.950 . S
C451 C450 1.397 . S
C451 C452 1.334 . S
C452 H423 0.950 . S
C452 C451 1.334 . S
C452 C453 1.287 . S
C453 C452 1.287 . S
C453 C454 1.524 . S
C453 H456 0.999 . S
C454 H424 0.950 . S
C454 C453 1.524 . S
C454 C455 1.415 . S
C455 H425 0.950 . S
C455 C450 1.363 . S
C455 C454 1.415 . S
H456 C453 0.999 . S
H457 C438 0.913 . S
H458 C476 0.951 . S
H459 C478 0.951 . S
H460 C480 0.950 . S
H461 C481 0.950 . S
H462 C483 0.950 . S
H463 C486 0.950 . S
H464 C487 0.950 . S
H465 C489 0.950 . S
H466 C490 0.950 . S
H467 C491 0.951 . S
H468 C493 0.951 . S
H469 C495 0.950 . S
H470 C496 0.950 . S
H471 C498 0.950 . S
H472 C501 0.950 . S
H473 C502 0.950 . S
H474 C504 0.950 . S
H475 C505 0.950 . S
C476 H458 0.951 . S
C476 C477 1.366 . S
C476 C478 1.388 . S
C477 C476 1.366 . S
C477 C481 1.385 . S
C478 H459 0.951 . S
C478 C476 1.388 . S
C478 C479 1.366 . S
C479 C478 1.366 . S
C479 C480 1.414 . S
C479 C482 1.499 . S
C480 H460 0.950 . S
C480 C479 1.414 . S
C480 C481 1.374 . S
C481 H461 0.950 . S
C481 C477 1.385 . S
C481 C480 1.374 . S
C482 C479 1.499 . S
C482 C483 1.373 . S
C482 C484 1.389 . S
C483 H462 0.950 . S
C483 C482 1.373 . S
C483 C499 1.377 . S
C484 C482 1.389 . S
C484 C485 1.524 . S
C484 C498 1.377 . S
C485 C484 1.524 . S
C485 C486 1.397 . S
C485 C490 1.363 . S
C486 H463 0.950 . S
C486 C485 1.397 . S
C486 C487 1.334 . S
C487 H464 0.950 . S
C487 C486 1.334 . S
C487 C488 1.287 . S
C488 C487 1.287 . S
C488 C489 1.524 . S
C488 H507 0.913 . S
C489 H465 0.950 . S
C489 C488 1.524 . S
C489 C490 1.415 . S
C490 H466 0.950 . S
C490 C485 1.363 . S
C490 C489 1.415 . S
C491 H467 0.951 . S
C491 C492 1.366 . S
C491 C493 1.388 . S
C492 C491 1.366 . S
C492 C496 1.385 . S
C493 H468 0.951 . S
C493 C491 1.388 . S
C493 C494 1.366 . S
C494 C493 1.366 . S
C494 C495 1.414 . S
C494 C497 1.499 . S
C495 H469 0.950 . S
C495 C494 1.414 . S
C495 C496 1.374 . S
C496 H470 0.950 . S
C496 C492 1.385 . S
C496 C495 1.374 . S
C497 C494 1.499 . S
C497 C498 1.373 . S
C497 C499 1.389 . S
C498 H471 0.950 . S
C498 C484 1.377 . S
C498 C497 1.373 . S
C499 C483 1.377 . S
C499 C497 1.389 . S
C499 C500 1.524 . S
C500 C499 1.524 . S
C500 C501 1.397 . S
C500 C505 1.363 . S
C501 H472 0.950 . S
C501 C500 1.397 . S
C501 C502 1.334 . S
C502 H473 0.950 . S
C502 C501 1.334 . S
C502 C503 1.287 . S
C503 C502 1.287 . S
C503 C504 1.524 . S
C503 H506 0.999 . S
C504 H474 0.950 . S
C504 C503 1.524 . S
C504 C505 1.415 . S
C505 H475 0.950 . S
C505 C500 1.363 . S
C505 C504 1.415 . S
H506 C503 0.999 . S
H507 C488 0.913 . S
H508 C526 0.951 . S
H509 C528 0.951 . S
H510 C530 0.950 . S
H511 C531 0.950 . S
H512 C533 0.950 . S
H513 C536 0.950 . S
H514 C537 0.950 . S
H515 C539 0.950 . S
H516 C540 0.950 . S
H517 C541 0.951 . S
H518 C543 0.951 . S
H519 C545 0.950 . S
H520 C546 0.950 . S
H521 C548 0.950 . S
H522 C551 0.950 . S
H523 C552 0.950 . S
H524 C554 0.950 . S
H525 C555 0.950 . S
C526 H508 0.951 . S
C526 C527 1.366 . S
C526 C528 1.388 . S
C527 C526 1.366 . S
C527 C531 1.385 . S
C528 H509 0.951 . S
C528 C526 1.388 . S
C528 C529 1.366 . S
C529 C528 1.366 . S
C529 C530 1.414 . S
C529 C532 1.499 . S
C530 H510 0.950 . S
C530 C529 1.414 . S
C530 C531 1.374 . S
C531 H511 0.950 . S
C531 C527 1.385 . S
C531 C530 1.374 . S
C532 C529 1.499 . S
C532 C533 1.373 . S
C532 C534 1.389 . S
C533 H512 0.950 . S
C533 C532 1.373 . S
C533 C549 1.377 . S
C534 C532 1.389 . S
C534 C535 1.524 . S
C534 C548 1.377 . S
C535 C534 1.524 . S
C535 C536 1.397 . S
C535 C540 1.363 . S
C536 H513 0.950 . S
C536 C535 1.397 . S
C536 C537 1.334 . S
C537 H514 0.950 . S
C537 C536 1.334 . S
C537 C538 1.287 . S
C538 C537 1.287 . S
C538 C539 1.524 . S
C538 H557 0.913 . S
C539 H515 0.950 . S
C539 C538 1.524 . S
C539 C540 1.415 . S
C540 H516 0.950 . S
C540 C535 1.363 . S
C540 C539 1.415 . S
C541 H517 0.951 . S
C541 C542 1.366 . S
C541 C543 1.388 . S
C542 C541 1.366 . S
C542 C546 1.385 . S
C543 H518 0.951 . S
C543 C541 1.388 . S
C543 C544 1.366 . S
C544 C543 1.366 . S
C544 C545 1.414 . S
C544 C547 1.499 . S
C545 H519 0.950 . S
C545 C544 1.414 . S
C545 C546 1.374 . S
C546 H520 0.950 . S
C546 C542 1.385 . S
C546 C545 1.374 . S
C547 C544 1.499 . S
C547 C548 1.373 . S
C547 C549 1.389 . S
C548 H521 0.950 . S
C548 C534 1.377 . S
C548 C547 1.373 . S
C549 C533 1.377 . S
C549 C547 1.389 . S
C549 C550 1.524 . S
C550 C549 1.524 . S
C550 C551 1.397 . S
C550 C555 1.363 . S
C551 H522 0.950 . S
C551 C550 1.397 . S
C551 C552 1.334 . S
C552 H523 0.950 . S
C552 C551 1.334 . S
C552 C553 1.287 . S
C553 C552 1.287 . S
C553 C554 1.524 . S
C553 H556 0.999 . S
C554 H524 0.950 . S
C554 C553 1.524 . S
C554 C555 1.415 . S
C555 H525 0.950 . S
C555 C550 1.363 . S
C555 C554 1.415 . S
H556 C553 0.999 . S
H557 C538 0.913 . S
H558 C576 0.951 . S
H559 C578 0.951 . S
H560 C580 0.950 . S
H561 C581 0.950 . S
H562 C583 0.950 . S
H563 C586 0.950 . S
H564 C587 0.950 . S
H565 C589 0.950 . S
H566 C590 0.950 . S
H567 C591 0.951 . S
H568 C593 0.951 . S
H569 C595 0.950 . S
H570 C596 0.950 . S
H571 C598 0.950 . S
H572 C601 0.950 . S
H573 C602 0.950 . S
H574 C604 0.950 . S
H575 C605 0.950 . S
C576 H558 0.951 . S
C576 C577 1.366 . S
C576 C578 1.388 . S
C577 C576 1.366 . S
C577 C581 1.385 . S
C578 H559 0.951 . S
C578 C576 1.388 . S
C578 C579 1.366 . S
C579 C578 1.366 . S
C579 C580 1.414 . S
C579 C582 1.499 . S
C580 H560 0.950 . S
C580 C579 1.414 . S
C580 C581 1.374 . S
C581 H561 0.950 . S
C581 C577 1.385 . S
C581 C580 1.374 . S
C582 C579 1.499 . S
C582 C583 1.373 . S
C582 C584 1.389 . S
C583 H562 0.950 . S
C583 C582 1.373 . S
C583 C599 1.377 . S
C584 C582 1.389 . S
C584 C585 1.524 . S
C584 C598 1.377 . S
C585 C584 1.524 . S
C585 C586 1.397 . S
C585 C590 1.363 . S
C586 H563 0.950 . S
C586 C585 1.397 . S
C586 C587 1.334 . S
C587 H564 0.950 . S
C587 C586 1.334 . S
C587 C588 1.287 . S
C588 C587 1.287 . S
C588 C589 1.524 . S
C588 H607 0.913 . S
C589 H565 0.950 . S
C589 C588 1.524 . S
C589 C590 1.415 . S
C590 H566 0.950 . S
C590 C585 1.363 . S
C590 C589 1.415 . S
C591 H567 0.951 . S
C591 C592 1.366 . S
C591 C593 1.388 . S
C592 C591 1.366 . S
C592 C596 1.385 . S
C593 H568 0.951 . S
C593 C591 1.388 . S
C593 C594 1.366 . S
C594 C593 1.366 . S
C594 C595 1.414 . S
C594 C597 1.499 . S
C595 H569 0.950 . S
C595 C594 1.414 . S
C595 C596 1.374 . S
C596 H570 0.950 . S
C596 C592 1.385 . S
C596 C595 1.374 . S
C597 C594 1.499 . S
C597 C598 1.373 . S
C597 C599 1.389 . S
C598 H571 0.950 . S
C598 C584 1.377 . S
C598 C597 1.373 . S
C599 C583 1.377 . S
C599 C597 1.389 . S
C599 C600 1.524 . S
C600 C599 1.524 . S
C600 C601 1.397 . S
C600 C605 1.363 . S
C601 H572 0.950 . S
C601 C600 1.397 . S
C601 C602 1.334 . S
C602 H573 0.950 . S
C602 C601 1.334 . S
C602 C603 1.287 . S
C603 C602 1.287 . S
C603 C604 1.524 . S
C603 H606 0.999 . S
C604 H574 0.950 . S
C604 C603 1.524 . S
C604 C605 1.415 . S
C605 H575 0.950 . S
C605 C600 1.363 . S
C605 C604 1.415 . S
H606 C603 0.999 . S
H607 C588 0.913 . S
H608 C626 0.951 . S
H609 C628 0.951 . S
H610 C630 0.950 . S
H611 C631 0.950 . S
H612 C633 0.950 . S
H613 C636 0.950 . S
H614 C637 0.950 . S
H615 C639 0.950 . S
H616 C640 0.950 . S
H617 C641 0.951 . S
H618 C643 0.951 . S
H619 C645 0.950 . S
H620 C646 0.950 . S
H621 C648 0.950 . S
H622 C651 0.950 . S
H623 C652 0.950 . S
H624 C654 0.950 . S
H625 C655 0.950 . S
C626 H608 0.951 . S
C626 C627 1.366 . S
C626 C628 1.388 . S
C627 C626 1.366 . S
C627 C631 1.385 . S
C628 H609 0.951 . S
C628 C626 1.388 . S
C628 C629 1.366 . S
C629 C628 1.366 . S
C629 C630 1.414 . S
C629 C632 1.499 . S
C630 H610 0.950 . S
C630 C629 1.414 . S
C630 C631 1.374 . S
C631 H611 0.950 . S
C631 C627 1.385 . S
C631 C630 1.374 . S
C632 C629 1.499 . S
C632 C633 1.373 . S
C632 C634 1.389 . S
C633 H612 0.950 . S
C633 C632 1.373 . S
C633 C649 1.377 1_556 S
C634 C632 1.389 . S
C634 C635 1.524 . S
C634 C648 1.377 1_556 S
C635 C634 1.524 . S
C635 C636 1.397 . S
C635 C640 1.363 . S
C636 H613 0.950 . S
C636 C635 1.397 . S
C636 C637 1.334 . S
C637 H614 0.950 . S
C637 C636 1.334 . S
C637 C638 1.287 . S
C638 C637 1.287 . S
C638 C639 1.524 . S
C638 H657 0.913 . S
C639 H615 0.950 . S
C639 C638 1.524 . S
C639 C640 1.415 . S
C640 H616 0.950 . S
C640 C635 1.363 . S
C640 C639 1.415 . S
C641 H617 0.951 . S
C641 C642 1.366 . S
C641 C643 1.388 . S
C642 C641 1.366 . S
C642 C646 1.385 . S
C643 H618 0.951 . S
C643 C641 1.388 . S
C643 C644 1.366 . S
C644 C643 1.366 . S
C644 C645 1.414 . S
C644 C647 1.499 . S
C645 H619 0.950 . S
C645 C644 1.414 . S
C645 C646 1.374 . S
C646 H620 0.950 . S
C646 C642 1.385 . S
C646 C645 1.374 . S
C647 C644 1.499 . S
C647 C648 1.373 . S
C647 C649 1.389 . S
C648 H621 0.950 . S
C648 C634 1.377 1_554 S
C648 C647 1.373 . S
C649 C633 1.377 1_554 S
C649 C647 1.389 . S
C649 C650 1.524 . S
C650 C649 1.524 . S
C650 C651 1.397 . S
C650 C655 1.363 . S
C651 H622 0.950 . S
C651 C650 1.397 . S
C651 C652 1.334 . S
C652 H623 0.950 . S
C652 C651 1.334 . S
C652 C653 1.287 . S
C653 C652 1.287 . S
C653 C654 1.524 . S
C653 H656 0.999 . S
C654 H624 0.950 . S
C654 C653 1.524 . S
C654 C655 1.415 . S
C655 H625 0.950 . S
C655 C650 1.363 . S
C655 C654 1.415 . S
H656 C653 0.999 . S
H657 C638 0.913 . S
H658 C676 0.951 . S
H659 C678 0.951 . S
H660 C680 0.950 . S
H661 C681 0.950 . S
H662 C683 0.950 . S
H663 C686 0.950 . S
H664 C687 0.950 . S
H665 C689 0.950 . S
H666 C690 0.950 . S
H667 C691 0.951 . S
H668 C693 0.951 . S
H669 C695 0.950 . S
H670 C696 0.950 . S
H671 C698 0.950 . S
H672 C701 0.950 . S
H673 C702 0.950 . S
H674 C704 0.950 . S
H675 C705 0.950 . S
C676 H658 0.951 . S
C676 C677 1.366 . S
C676 C678 1.388 . S
C677 C676 1.366 . S
C677 C681 1.385 . S
C678 H659 0.951 . S
C678 C676 1.388 . S
C678 C679 1.366 . S
C679 C678 1.366 . S
C679 C680 1.414 . S
C679 C682 1.499 . S
C680 H660 0.950 . S
C680 C679 1.414 . S
C680 C681 1.374 . S
C681 H661 0.950 . S
C681 C677 1.385 . S
C681 C680 1.374 . S
C682 C679 1.499 . S
C682 C683 1.373 . S
C682 C684 1.389 . S
C683 H662 0.950 . S
C683 C682 1.373 . S
C683 C699 1.377 1_556 S
C684 C682 1.389 . S
C684 C685 1.524 . S
C684 C698 1.377 1_556 S
C685 C684 1.524 . S
C685 C686 1.397 . S
C685 C690 1.363 . S
C686 H663 0.950 . S
C686 C685 1.397 . S
C686 C687 1.334 . S
C687 H664 0.950 . S
C687 C686 1.334 . S
C687 C688 1.287 . S
C688 C687 1.287 . S
C688 C689 1.524 . S
C688 H707 0.913 . S
C689 H665 0.950 . S
C689 C688 1.524 . S
C689 C690 1.415 . S
C690 H666 0.950 . S
C690 C685 1.363 . S
C690 C689 1.415 . S
C691 H667 0.951 . S
C691 C692 1.366 . S
C691 C693 1.388 . S
C692 C691 1.366 . S
C692 C696 1.385 . S
C693 H668 0.951 . S
C693 C691 1.388 . S
C693 C694 1.366 . S
C694 C693 1.366 . S
C694 C695 1.414 . S
C694 C697 1.499 . S
C695 H669 0.950 . S
C695 C694 1.414 . S
C695 C696 1.374 . S
C696 H670 0.950 . S
C696 C692 1.385 . S
C696 C695 1.374 . S
C697 C694 1.499 . S
C697 C698 1.373 . S
C697 C699 1.389 . S
C698 H671 0.950 . S
C698 C684 1.377 1_554 S
C698 C697 1.373 . S
C699 C683 1.377 1_554 S
C699 C697 1.389 . S
C699 C700 1.524 . S
C700 C699 1.524 . S
C700 C701 1.397 . S
C700 C705 1.363 . S
C701 H672 0.950 . S
C701 C700 1.397 . S
C701 C702 1.334 . S
C702 H673 0.950 . S
C702 C701 1.334 . S
C702 C703 1.287 . S
C703 C702 1.287 . S
C703 C704 1.524 . S
C703 H706 0.999 . S
C704 H674 0.950 . S
C704 C703 1.524 . S
C704 C705 1.415 . S
C705 H675 0.950 . S
C705 C700 1.363 . S
C705 C704 1.415 . S
H706 C703 0.999 . S
H707 C688 0.913 . S
H708 C726 0.951 . S
H709 C728 0.951 . S
H710 C730 0.950 . S
H711 C731 0.950 . S
H712 C733 0.950 . S
H713 C736 0.950 . S
H714 C737 0.950 . S
H715 C739 0.950 . S
H716 C740 0.950 . S
H717 C741 0.951 . S
H718 C743 0.951 . S
H719 C745 0.950 . S
H720 C746 0.950 . S
H721 C748 0.950 . S
H722 C751 0.950 . S
H723 C752 0.950 . S
H724 C754 0.950 . S
H725 C755 0.950 . S
C726 H708 0.951 . S
C726 C727 1.366 . S
C726 C728 1.388 . S
C727 C726 1.366 . S
C727 C731 1.385 . S
C728 H709 0.951 . S
C728 C726 1.388 . S
C728 C729 1.366 . S
C729 C728 1.366 . S
C729 C730 1.414 . S
C729 C732 1.499 . S
C730 H710 0.950 . S
C730 C729 1.414 . S
C730 C731 1.374 . S
C731 H711 0.950 . S
C731 C727 1.385 . S
C731 C730 1.374 . S
C732 C729 1.499 . S
C732 C733 1.373 . S
C732 C734 1.389 . S
C733 H712 0.950 . S
C733 C732 1.373 . S
C733 C749 1.377 1_556 S
C734 C732 1.389 . S
C734 C735 1.524 . S
C734 C748 1.377 1_556 S
C735 C734 1.524 . S
C735 C736 1.397 . S
C735 C740 1.363 . S
C736 H713 0.950 . S
C736 C735 1.397 . S
C736 C737 1.334 . S
C737 H714 0.950 . S
C737 C736 1.334 . S
C737 C738 1.287 . S
C738 C737 1.287 . S
C738 C739 1.524 . S
C738 H757 0.913 . S
C739 H715 0.950 . S
C739 C738 1.524 . S
C739 C740 1.415 . S
C740 H716 0.950 . S
C740 C735 1.363 . S
C740 C739 1.415 . S
C741 H717 0.951 . S
C741 C742 1.366 . S
C741 C743 1.388 . S
C742 C741 1.366 . S
C742 C746 1.385 . S
C743 H718 0.951 . S
C743 C741 1.388 . S
C743 C744 1.366 . S
C744 C743 1.366 . S
C744 C745 1.414 . S
C744 C747 1.499 . S
C745 H719 0.950 . S
C745 C744 1.414 . S
C745 C746 1.374 . S
C746 H720 0.950 . S
C746 C742 1.385 . S
C746 C745 1.374 . S
C747 C744 1.499 . S
C747 C748 1.373 . S
C747 C749 1.389 . S
C748 H721 0.950 . S
C748 C734 1.377 1_554 S
C748 C747 1.373 . S
C749 C733 1.377 1_554 S
C749 C747 1.389 . S
C749 C750 1.524 . S
C750 C749 1.524 . S
C750 C751 1.397 . S
C750 C755 1.363 . S
C751 H722 0.950 . S
C751 C750 1.397 . S
C751 C752 1.334 . S
C752 H723 0.950 . S
C752 C751 1.334 . S
C752 C753 1.287 . S
C753 C752 1.287 . S
C753 C754 1.524 . S
C753 H756 0.999 . S
C754 H724 0.950 . S
C754 C753 1.524 . S
C754 C755 1.415 . S
C755 H725 0.950 . S
C755 C750 1.363 . S
C755 C754 1.415 . S
H756 C753 0.999 . S
H757 C738 0.913 . S
H758 C776 0.951 . S
H759 C778 0.951 . S
H760 C780 0.950 . S
H761 C781 0.950 . S
H762 C783 0.950 . S
H763 C786 0.950 . S
H764 C787 0.950 . S
H765 C789 0.950 . S
H766 C790 0.950 . S
H767 C791 0.951 . S
H768 C793 0.951 . S
H769 C795 0.950 . S
H770 C796 0.950 . S
H771 C798 0.950 . S
H772 C801 0.950 . S
H773 C802 0.950 . S
H774 C804 0.950 . S
H775 C805 0.950 . S
C776 H758 0.951 . S
C776 C777 1.366 . S
C776 C778 1.388 . S
C777 C776 1.366 . S
C777 C781 1.385 . S
C778 H759 0.951 . S
C778 C776 1.388 . S
C778 C779 1.366 . S
C779 C778 1.366 . S
C779 C780 1.414 . S
C779 C782 1.499 . S
C780 H760 0.950 . S
C780 C779 1.414 . S
C780 C781 1.374 . S
C781 H761 0.950 . S
C781 C777 1.385 . S
C781 C780 1.374 . S
C782 C779 1.499 . S
C782 C783 1.373 . S
C782 C784 1.389 . S
C783 H762 0.950 . S
C783 C782 1.373 . S
C783 C799 1.377 1_554 S
C784 C782 1.389 . S
C784 C785 1.524 . S
C784 C798 1.377 1_554 S
C785 C784 1.524 . S
C785 C786 1.397 . S
C785 C790 1.363 . S
C786 H763 0.950 . S
C786 C785 1.397 . S
C786 C787 1.334 . S
C787 H764 0.950 . S
C787 C786 1.334 . S
C787 C788 1.287 . S
C788 C787 1.287 . S
C788 C789 1.524 . S
C788 H807 0.913 . S
C789 H765 0.950 . S
C789 C788 1.524 . S
C789 C790 1.415 . S
C790 H766 0.950 . S
C790 C785 1.363 . S
C790 C789 1.415 . S
C791 H767 0.951 . S
C791 C792 1.366 . S
C791 C793 1.388 . S
C792 C791 1.366 . S
C792 C796 1.385 . S
C793 H768 0.951 . S
C793 C791 1.388 . S
C793 C794 1.366 . S
C794 C793 1.366 . S
C794 C795 1.414 . S
C794 C797 1.499 . S
C795 H769 0.950 . S
C795 C794 1.414 . S
C795 C796 1.374 . S
C796 H770 0.950 . S
C796 C792 1.385 . S
C796 C795 1.374 . S
C797 C794 1.499 . S
C797 C798 1.373 . S
C797 C799 1.389 . S
C798 H771 0.950 . S
C798 C784 1.377 1_556 S
C798 C797 1.373 . S
C799 C783 1.377 1_556 S
C799 C797 1.389 . S
C799 C800 1.524 . S
C800 C799 1.524 . S
C800 C801 1.397 . S
C800 C805 1.363 . S
C801 H772 0.950 . S
C801 C800 1.397 . S
C801 C802 1.334 . S
C802 H773 0.950 . S
C802 C801 1.334 . S
C802 C803 1.287 . S
C803 C802 1.287 . S
C803 C804 1.524 . S
C803 H806 0.999 . S
C804 H774 0.950 . S
C804 C803 1.524 . S
C804 C805 1.415 . S
C805 H775 0.950 . S
C805 C800 1.363 . S
C805 C804 1.415 . S
H806 C803 0.999 . S
H807 C788 0.913 . S
H808 C826 0.951 . S
H809 C828 0.951 . S
H810 C830 0.950 . S
H811 C831 0.950 . S
H812 C833 0.950 . S
H813 C836 0.950 . S
H814 C837 0.950 . S
H815 C839 0.950 . S
H816 C840 0.950 . S
H817 C841 0.951 . S
H818 C843 0.951 . S
H819 C845 0.950 . S
H820 C846 0.950 . S
H821 C848 0.950 . S
H822 C851 0.950 . S
H823 C852 0.950 . S
H824 C854 0.950 . S
H825 C855 0.950 . S
C826 H808 0.951 . S
C826 C827 1.366 . S
C826 C828 1.388 . S
C827 C826 1.366 . S
C827 C831 1.385 . S
C828 H809 0.951 . S
C828 C826 1.388 . S
C828 C829 1.366 . S
C829 C828 1.366 . S
C829 C830 1.414 . S
C829 C832 1.499 . S
C830 H810 0.950 . S
C830 C829 1.414 . S
C830 C831 1.374 . S
C831 H811 0.950 . S
C831 C827 1.385 . S
C831 C830 1.374 . S
C832 C829 1.499 . S
C832 C833 1.373 . S
C832 C834 1.389 . S
C833 H812 0.950 . S
C833 C832 1.373 . S
C833 C849 1.377 . S
C834 C832 1.389 . S
C834 C835 1.524 . S
C834 C848 1.377 . S
C835 C834 1.524 . S
C835 C836 1.397 . S
C835 C840 1.363 . S
C836 H813 0.950 . S
C836 C835 1.397 . S
C836 C837 1.334 . S
C837 H814 0.950 . S
C837 C836 1.334 . S
C837 C838 1.287 . S
C838 C837 1.287 . S
C838 C839 1.524 . S
C838 H857 0.913 . S
C839 H815 0.950 . S
C839 C838 1.524 . S
C839 C840 1.415 . S
C840 H816 0.950 . S
C840 C835 1.363 . S
C840 C839 1.415 . S
C841 H817 0.951 . S
C841 C842 1.366 . S
C841 C843 1.388 . S
C842 C841 1.366 . S
C842 C846 1.385 . S
C843 H818 0.951 . S
C843 C841 1.388 . S
C843 C844 1.366 . S
C844 C843 1.366 . S
C844 C845 1.414 . S
C844 C847 1.499 . S
C845 H819 0.950 . S
C845 C844 1.414 . S
C845 C846 1.374 . S
C846 H820 0.950 . S
C846 C842 1.385 . S
C846 C845 1.374 . S
C847 C844 1.499 . S
C847 C848 1.373 . S
C847 C849 1.389 . S
C848 H821 0.950 . S
C848 C834 1.377 . S
C848 C847 1.373 . S
C849 C833 1.377 . S
C849 C847 1.389 . S
C849 C850 1.524 . S
C850 C849 1.524 . S
C850 C851 1.397 . S
C850 C855 1.363 . S
C851 H822 0.950 . S
C851 C850 1.397 . S
C851 C852 1.334 . S
C852 H823 0.950 . S
C852 C851 1.334 . S
C852 C853 1.287 . S
C853 C852 1.287 . S
C853 C854 1.524 . S
C853 H856 0.999 . S
C854 H824 0.950 . S
C854 C853 1.524 . S
C854 C855 1.415 . S
C855 H825 0.950 . S
C855 C850 1.363 . S
C855 C854 1.415 . S
H856 C853 0.999 . S
H857 C838 0.913 . S
H858 C876 0.951 . S
H859 C878 0.951 . S
H860 C880 0.950 . S
H861 C881 0.950 . S
H862 C883 0.950 . S
H863 C886 0.950 . S
H864 C887 0.950 . S
H865 C889 0.950 . S
H866 C890 0.950 . S
H867 C891 0.951 . S
H868 C893 0.951 . S
H869 C895 0.950 . S
H870 C896 0.950 . S
H871 C898 0.950 . S
H872 C901 0.950 . S
H873 C902 0.950 . S
H874 C904 0.950 . S
H875 C905 0.950 . S
C876 H858 0.951 . S
C876 C877 1.366 . S
C876 C878 1.388 . S
C877 C876 1.366 . S
C877 C881 1.385 . S
C878 H859 0.951 . S
C878 C876 1.388 . S
C878 C879 1.366 . S
C879 C878 1.366 . S
C879 C880 1.414 . S
C879 C882 1.499 . S
C880 H860 0.950 . S
C880 C879 1.414 . S
C880 C881 1.374 . S
C881 H861 0.950 . S
C881 C877 1.385 . S
C881 C880 1.374 . S
C882 C879 1.499 . S
C882 C883 1.373 . S
C882 C884 1.389 . S
C883 H862 0.950 . S
C883 C882 1.373 . S
C883 C899 1.377 . S
C884 C882 1.389 . S
C884 C885 1.524 . S
C884 C898 1.377 . S
C885 C884 1.524 . S
C885 C886 1.397 . S
C885 C890 1.363 . S
C886 H863 0.950 . S
C886 C885 1.397 . S
C886 C887 1.334 . S
C887 H864 0.950 . S
C887 C886 1.334 . S
C887 C888 1.287 . S
C888 C887 1.287 . S
C888 C889 1.524 . S
C888 H907 0.913 . S
C889 H865 0.950 . S
C889 C888 1.524 . S
C889 C890 1.415 . S
C890 H866 0.950 . S
C890 C885 1.363 . S
C890 C889 1.415 . S
C891 H867 0.951 . S
C891 C892 1.366 . S
C891 C893 1.388 . S
C892 C891 1.366 . S
C892 C896 1.385 . S
C893 H868 0.951 . S
C893 C891 1.388 . S
C893 C894 1.366 . S
C894 C893 1.366 . S
C894 C895 1.414 . S
C894 C897 1.499 . S
C895 H869 0.950 . S
C895 C894 1.414 . S
C895 C896 1.374 . S
C896 H870 0.950 . S
C896 C892 1.385 . S
C896 C895 1.374 . S
C897 C894 1.499 . S
C897 C898 1.373 . S
C897 C899 1.389 . S
C898 H871 0.950 . S
C898 C884 1.377 . S
C898 C897 1.373 . S
C899 C883 1.377 . S
C899 C897 1.389 . S
C899 C900 1.524 . S
C900 C899 1.524 . S
C900 C901 1.397 . S
C900 C905 1.363 . S
C901 H872 0.950 . S
C901 C900 1.397 . S
C901 C902 1.334 . S
C902 H873 0.950 . S
C902 C901 1.334 . S
C902 C903 1.287 . S
C903 C902 1.287 . S
C903 C904 1.524 . S
C903 H906 0.999 . S
C904 H874 0.950 . S
C904 C903 1.524 . S
C904 C905 1.415 . S
C905 H875 0.950 . S
C905 C900 1.363 . S
C905 C904 1.415 . S
H906 C903 0.999 . S
H907 C888 0.913 . S
H908 C926 0.951 . S
H909 C928 0.951 . S
H910 C930 0.950 . S
H911 C931 0.950 . S
H912 C933 0.950 . S
H913 C936 0.950 . S
H914 C937 0.950 . S
H915 C939 0.950 . S
H916 C940 0.950 . S
H917 C941 0.951 . S
H918 C943 0.951 . S
H919 C945 0.950 . S
H920 C946 0.950 . S
H921 C948 0.950 . S
H922 C951 0.950 . S
H923 C952 0.950 . S
H924 C954 0.950 . S
H925 C955 0.950 . S
C926 H908 0.951 . S
C926 C927 1.366 . S
C926 C928 1.388 . S
C927 C926 1.366 . S
C927 C931 1.385 . S
C928 H909 0.951 . S
C928 C926 1.388 . S
C928 C929 1.366 . S
C929 C928 1.366 . S
C929 C930 1.414 . S
C929 C932 1.499 . S
C930 H910 0.950 . S
C930 C929 1.414 . S
C930 C931 1.374 . S
C931 H911 0.950 . S
C931 C927 1.385 . S
C931 C930 1.374 . S
C932 C929 1.499 . S
C932 C933 1.373 . S
C932 C934 1.389 . S
C933 H912 0.950 . S
C933 C932 1.373 . S
C933 C949 1.377 . S
C934 C932 1.389 . S
C934 C935 1.524 . S
C934 C948 1.377 . S
C935 C934 1.524 . S
C935 C936 1.397 . S
C935 C940 1.363 . S
C936 H913 0.950 . S
C936 C935 1.397 . S
C936 C937 1.334 . S
C937 H914 0.950 . S
C937 C936 1.334 . S
C937 C938 1.287 . S
C938 C937 1.287 . S
C938 C939 1.524 . S
C938 H957 0.913 . S
C939 H915 0.950 . S
C939 C938 1.524 . S
C939 C940 1.415 . S
C940 H916 0.950 . S
C940 C935 1.363 . S
C940 C939 1.415 . S
C941 H917 0.951 . S
C941 C942 1.366 . S
C941 C943 1.388 . S
C942 C941 1.366 . S
C942 C946 1.385 . S
C943 H918 0.951 . S
C943 C941 1.388 . S
C943 C944 1.366 . S
C944 C943 1.366 . S
C944 C945 1.414 . S
C944 C947 1.499 . S
C945 H919 0.950 . S
C945 C944 1.414 . S
C945 C946 1.374 . S
C946 H920 0.950 . S
C946 C942 1.385 . S
C946 C945 1.374 . S
C947 C944 1.499 . S
C947 C948 1.373 . S
C947 C949 1.389 . S
C948 H921 0.950 . S
C948 C934 1.377 . S
C948 C947 1.373 . S
C949 C933 1.377 . S
C949 C947 1.389 . S
C949 C950 1.524 . S
C950 C949 1.524 . S
C950 C951 1.397 . S
C950 C955 1.363 . S
C951 H922 0.950 . S
C951 C950 1.397 . S
C951 C952 1.334 . S
C952 H923 0.950 . S
C952 C951 1.334 . S
C952 C953 1.287 . S
C953 C952 1.287 . S
C953 C954 1.524 . S
C953 H956 0.999 . S
C954 H924 0.950 . S
C954 C953 1.524 . S
C954 C955 1.415 . S
C955 H925 0.950 . S
C955 C950 1.363 . S
C955 C954 1.415 . S
H956 C953 0.999 . S
H957 C938 0.913 . S
H958 C976 0.951 . S
H959 C978 0.951 . S
H960 C980 0.950 . S
H961 C981 0.950 . S
H962 C983 0.950 . S
H963 C986 0.950 . S
H964 C987 0.950 . S
H965 C989 0.950 . S
H966 C990 0.950 . S
H967 C991 0.951 . S
H968 C993 0.951 . S
H969 C995 0.950 . S
H970 C996 0.950 . S
H971 C998 0.950 . S
H972 C1001 0.950 . S
H973 C1002 0.950 . S
H974 C1004 0.950 . S
H975 C1005 0.950 . S
C976 H958 0.951 . S
C976 C977 1.366 . S
C976 C978 1.388 . S
C977 C976 1.366 . S
C977 C981 1.385 . S
C978 H959 0.951 . S
C978 C976 1.388 . S
C978 C979 1.366 . S
C979 C978 1.366 . S
C979 C980 1.414 . S
C979 C982 1.499 . S
C980 H960 0.950 . S
C980 C979 1.414 . S
C980 C981 1.374 . S
C981 H961 0.950 . S
C981 C977 1.385 . S
C981 C980 1.374 . S
C982 C979 1.499 . S
C982 C983 1.373 . S
C982 C984 1.389 . S
C983 H962 0.950 . S
C983 C982 1.373 . S
C983 C999 1.377 . S
C984 C982 1.389 . S
C984 C985 1.524 . S
C984 C998 1.377 . S
C985 C984 1.524 . S
C985 C986 1.397 . S
C985 C990 1.363 . S
C986 H963 0.950 . S
C986 C985 1.397 . S
C986 C987 1.334 . S
C987 H964 0.950 . S
C987 C986 1.334 . S
C987 C988 1.287 . S
C988 C987 1.287 . S
C988 C989 1.524 . S
C988 H1007 0.913 . S
C989 H965 0.950 . S
C989 C988 1.524 . S
C989 C990 1.415 . S
C990 H966 0.950 . S
C990 C985 1.363 . S
C990 C989 1.415 . S
C991 H967 0.951 . S
C991 C992 1.366 . S
C991 C993 1.388 . S
C992 C991 1.366 . S
C992 C996 1.385 . S
C993 H968 0.951 . S
C993 C991 1.388 . S
C993 C994 1.366 . S
C994 C993 1.366 . S
C994 C995 1.414 . S
C994 C997 1.499 . S
C995 H969 0.950 . S
C995 C994 1.414 . S
C995 C996 1.374 . S
C996 H970 0.950 . S
C996 C992 1.385 . S
C996 C995 1.374 . S
C997 C994 1.499 . S
C997 C998 1.373 . S
C997 C999 1.389 . S
C998 H971 0.950 . S
C998 C984 1.377 . S
C998 C997 1.373 . S
C999 C983 1.377 . S
C999 C997 1.389 . S
C999 C1000 1.524 . S
C1000 C999 1.524 . S
C1000 C1001 1.397 . S
C1000 C1005 1.363 . S
C1001 H972 0.950 . S
C1001 C1000 1.397 . S
C1001 C1002 1.334 . S
C1002 H973 0.950 . S
C1002 C1001 1.334 . S
C1002 C1003 1.287 . S
C1003 C1002 1.287 . S
C1003 C1004 1.524 . S
C1003 H1006 0.999 . S
C1004 H974 0.950 . S
C1004 C1003 1.524 . S
C1004 C1005 1.415 . S
C1005 H975 0.950 . S
C1005 C1000 1.363 . S
C1005 C1004 1.415 . S
H1006 C1003 0.999 . S
H1007 C988 0.913 . S
H1008 C1026 0.951 . S
H1009 C1028 0.951 . S
H1010 C1030 0.950 . S
H1011 C1031 0.950 . S
H1012 C1033 0.950 . S
H1013 C1036 0.950 . S
H1014 C1037 0.950 . S
H1015 C1039 0.950 . S
H1016 C1040 0.950 . S
H1017 C1041 0.951 . S
H1018 C1043 0.951 . S
H1019 C1045 0.950 . S
H1020 C1046 0.950 . S
H1021 C1048 0.950 . S
H1022 C1051 0.950 . S
H1023 C1052 0.950 . S
H1024 C1054 0.950 . S
H1025 C1055 0.950 . S
C1026 H1008 0.951 . S
C1026 C1027 1.366 . S
C1026 C1028 1.388 . S
C1027 C1026 1.366 . S
C1027 C1031 1.385 . S
C1028 H1009 0.951 . S
C1028 C1026 1.388 . S
C1028 C1029 1.366 . S
C1029 C1028 1.366 . S
C1029 C1030 1.414 . S
C1029 C1032 1.499 . S
C1030 H1010 0.950 . S
C1030 C1029 1.414 . S
C1030 C1031 1.374 . S
C1031 H1011 0.950 . S
C1031 C1027 1.385 . S
C1031 C1030 1.374 . S
C1032 C1029 1.499 . S
C1032 C1033 1.373 . S
C1032 C1034 1.389 . S
C1033 H1012 0.950 . S
C1033 C1032 1.373 . S
C1033 C1049 1.377 . S
C1034 C1032 1.389 . S
C1034 C1035 1.524 . S
C1034 C1048 1.377 . S
C1035 C1034 1.524 . S
C1035 C1036 1.397 . S
C1035 C1040 1.363 . S
C1036 H1013 0.950 . S
C1036 C1035 1.397 . S
C1036 C1037 1.334 . S
C1037 H1014 0.950 . S
C1037 C1036 1.334 . S
C1037 C1038 1.287 . S
C1038 C1037 1.287 . S
C1038 C1039 1.524 . S
C1038 H1057 0.913 . S
C1039 H1015 0.950 . S
C1039 C1038 1.524 . S
C1039 C1040 1.415 . S
C1040 H1016 0.950 . S
C1040 C1035 1.363 . S
C1040 C1039 1.415 . S
C1041 H1017 0.951 . S
C1041 C1042 1.366 . S
C1041 C1043 1.388 . S
C1042 C1041 1.366 . S
C1042 C1046 1.385 . S
C1043 H1018 0.951 . S
C1043 C1041 1.388 . S
C1043 C1044 1.366 . S
C1044 C1043 1.366 . S
C1044 C1045 1.414 . S
C1044 C1047 1.499 . S
C1045 H1019 0.950 . S
C1045 C1044 1.414 . S
C1045 C1046 1.374 . S
C1046 H1020 0.950 . S
C1046 C1042 1.385 . S
C1046 C1045 1.374 . S
C1047 C1044 1.499 . S
C1047 C1048 1.373 . S
C1047 C1049 1.389 . S
C1048 H1021 0.950 . S
C1048 C1034 1.377 . S
C1048 C1047 1.373 . S
C1049 C1033 1.377 . S
C1049 C1047 1.389 . S
C1049 C1050 1.524 . S
C1050 C1049 1.524 . S
C1050 C1051 1.397 . S
C1050 C1055 1.363 . S
C1051 H1022 0.950 . S
C1051 C1050 1.397 . S
C1051 C1052 1.334 . S
C1052 H1023 0.950 . S
C1052 C1051 1.334 . S
C1052 C1053 1.287 . S
C1053 C1052 1.287 . S
C1053 C1054 1.524 . S
C1053 H1056 0.999 . S
C1054 H1024 0.950 . S
C1054 C1053 1.524 . S
C1054 C1055 1.415 . S
C1055 H1025 0.950 . S
C1055 C1050 1.363 . S
C1055 C1054 1.415 . S
H1056 C1053 0.999 . S
H1057 C1038 0.913 . S
H1058 C1076 0.951 . S
H1059 C1078 0.951 . S
H1060 C1080 0.950 . S
H1061 C1081 0.950 . S
H1062 C1083 0.950 . S
H1063 C1086 0.950 . S
H1064 C1087 0.950 . S
H1065 C1089 0.950 . S
H1066 C1090 0.950 . S
H1067 C1091 0.951 . S
H1068 C1093 0.951 . S
H1069 C1095 0.950 . S
H1070 C1096 0.950 . S
H1071 C1098 0.950 . S
H1072 C1101 0.950 . S
H1073 C1102 0.950 . S
H1074 C1104 0.950 . S
H1075 C1105 0.950 . S
C1076 H1058 0.951 . S
C1076 C1077 1.366 . S
C1076 C1078 1.388 . S
C1077 C1076 1.366 . S
C1077 C1081 1.385 . S
C1078 H1059 0.951 . S
C1078 C1076 1.388 . S
C1078 C1079 1.366 . S
C1079 C1078 1.366 . S
C1079 C1080 1.414 . S
C1079 C1082 1.499 . S
C1080 H1060 0.950 . S
C1080 C1079 1.414 . S
C1080 C1081 1.374 . S
C1081 H1061 0.950 . S
C1081 C1077 1.385 . S
C1081 C1080 1.374 . S
C1082 C1079 1.499 . S
C1082 C1083 1.373 . S
C1082 C1084 1.389 . S
C1083 H1062 0.950 . S
C1083 C1082 1.373 . S
C1083 C1099 1.377 . S
C1084 C1082 1.389 . S
C1084 C1085 1.524 . S
C1084 C1098 1.377 . S
C1085 C1084 1.524 . S
C1085 C1086 1.397 . S
C1085 C1090 1.363 . S
C1086 H1063 0.950 . S
C1086 C1085 1.397 . S
C1086 C1087 1.334 . S
C1087 H1064 0.950 . S
C1087 C1086 1.334 . S
C1087 C1088 1.287 . S
C1088 C1087 1.287 . S
C1088 C1089 1.524 . S
C1088 H1107 0.913 . S
C1089 H1065 0.950 . S
C1089 C1088 1.524 . S
C1089 C1090 1.415 . S
C1090 H1066 0.950 . S
C1090 C1085 1.363 . S
C1090 C1089 1.415 . S
C1091 H1067 0.951 . S
C1091 C1092 1.366 . S
C1091 C1093 1.388 . S
C1092 C1091 1.366 . S
C1092 C1096 1.385 . S
C1093 H1068 0.951 . S
C1093 C1091 1.388 . S
C1093 C1094 1.366 . S
C1094 C1093 1.366 . S
C1094 C1095 1.414 . S
C1094 C1097 1.499 . S
C1095 H1069 0.950 . S
C1095 C1094 1.414 . S
C1095 C1096 1.374 . S
C1096 H1070 0.950 . S
C1096 C1092 1.385 . S
C1096 C1095 1.374 . S
C1097 C1094 1.499 . S
C1097 C1098 1.373 . S
C1097 C1099 1.389 . S
C1098 H1071 0.950 . S
C1098 C1084 1.377 . S
C1098 C1097 1.373 . S
C1099 C1083 1.377 . S
C1099 C1097 1.389 . S
C1099 C1100 1.524 . S
C1100 C1099 1.524 . S
C1100 C1101 1.397 . S
C1100 C1105 1.363 . S
C1101 H1072 0.950 . S
C1101 C1100 1.397 . S
C1101 C1102 1.334 . S
C1102 H1073 0.950 . S
C1102 C1101 1.334 . S
C1102 C1103 1.287 . S
C1103 C1102 1.287 . S
C1103 C1104 1.524 . S
C1103 H1106 0.999 . S
C1104 H1074 0.950 . S
C1104 C1103 1.524 . S
C1104 C1105 1.415 . S
C1105 H1075 0.950 . S
C1105 C1100 1.363 . S
C1105 C1104 1.415 . S
H1106 C1103 0.999 . S
H1107 C1088 0.913 . S
H1108 C1126 0.951 . S
H1109 C1128 0.951 . S
H1110 C1130 0.950 . S
H1111 C1131 0.950 . S
H1112 C1133 0.950 . S
H1113 C1136 0.950 . S
H1114 C1137 0.950 . S
H1115 C1139 0.950 . S
H1116 C1140 0.950 . S
H1117 C1141 0.951 . S
H1118 C1143 0.951 . S
H1119 C1145 0.950 . S
H1120 C1146 0.950 . S
H1121 C1148 0.950 . S
H1122 C1151 0.950 . S
H1123 C1152 0.950 . S
H1124 C1154 0.950 . S
H1125 C1155 0.950 . S
C1126 H1108 0.951 . S
C1126 C1127 1.366 . S
C1126 C1128 1.388 . S
C1127 C1126 1.366 . S
C1127 C1131 1.385 . S
C1128 H1109 0.951 . S
C1128 C1126 1.388 . S
C1128 C1129 1.366 . S
C1129 C1128 1.366 . S
C1129 C1130 1.414 . S
C1129 C1132 1.499 . S
C1130 H1110 0.950 . S
C1130 C1129 1.414 . S
C1130 C1131 1.374 . S
C1131 H1111 0.950 . S
C1131 C1127 1.385 . S
C1131 C1130 1.374 . S
C1132 C1129 1.499 . S
C1132 C1133 1.373 . S
C1132 C1134 1.389 . S
C1133 H1112 0.950 . S
C1133 C1132 1.373 . S
C1133 C1149 1.377 . S
C1134 C1132 1.389 . S
C1134 C1135 1.524 . S
C1134 C1148 1.377 . S
C1135 C1134 1.524 . S
C1135 C1136 1.397 . S
C1135 C1140 1.363 . S
C1136 H1113 0.950 . S
C1136 C1135 1.397 . S
C1136 C1137 1.334 . S
C1137 H1114 0.950 . S
C1137 C1136 1.334 . S
C1137 C1138 1.287 . S
C1138 C1137 1.287 . S
C1138 C1139 1.524 . S
C1138 H1157 0.913 . S
C1139 H1115 0.950 . S
C1139 C1138 1.524 . S
C1139 C1140 1.415 . S
C1140 H1116 0.950 . S
C1140 C1135 1.363 . S
C1140 C1139 1.415 . S
C1141 H1117 0.951 . S
C1141 C1142 1.366 . S
C1141 C1143 1.388 . S
C1142 C1141 1.366 . S
C1142 C1146 1.385 . S
C1143 H1118 0.951 . S
C1143 C1141 1.388 . S
C1143 C1144 1.366 . S
C1144 C1143 1.366 . S
C1144 C1145 1.414 . S
C1144 C1147 1.499 . S
C1145 H1119 0.950 . S
C1145 C1144 1.414 . S
C1145 C1146 1.374 . S
C1146 H1120 0.950 . S
C1146 C1142 1.385 . S
C1146 C1145 1.374 . S
C1147 C1144 1.499 . S
C1147 C1148 1.373 . S
C1147 C1149 1.389 . S
C1148 H1121 0.950 . S
C1148 C1134 1.377 . S
C1148 C1147 1.373 . S
C1149 C1133 1.377 . S
C1149 C1147 1.389 . S
C1149 C1150 1.524 . S
C1150 C1149 1.524 . S
C1150 C1151 1.397 . S
C1150 C1155 1.363 . S
C1151 H1122 0.950 . S
C1151 C1150 1.397 . S
C1151 C1152 1.334 . S
C1152 H1123 0.950 . S
C1152 C1151 1.334 . S
C1152 C1153 1.287 . S
C1153 C1152 1.287 . S
C1153 C1154 1.524 . S
C1153 H1156 0.999 . S
C1154 H1124 0.950 . S
C1154 C1153 1.524 . S
C1154 C1155 1.415 . S
C1155 H1125 0.950 . S
C1155 C1150 1.363 . S
C1155 C1154 1.415 . S
H1156 C1153 0.999 . S
H1157 C1138 0.913 . S
H1158 C1176 0.951 . S
H1159 C1178 0.951 . S
H1160 C1180 0.950 . S
H1161 C1181 0.950 . S
H1162 C1183 0.950 . S
H1163 C1186 0.950 . S
H1164 C1187 0.950 . S
H1165 C1189 0.950 . S
H1166 C1190 0.950 . S
H1167 C1191 0.951 . S
H1168 C1193 0.951 . S
H1169 C1195 0.950 . S
H1170 C1196 0.950 . S
H1171 C1198 0.950 . S
H1172 C1201 0.950 . S
H1173 C1202 0.950 . S
H1174 C1204 0.950 . S
H1175 C1205 0.950 . S
C1176 H1158 0.951 . S
C1176 C1177 1.366 . S
C1176 C1178 1.388 . S
C1177 C1176 1.366 . S
C1177 C1181 1.385 . S
C1178 H1159 0.951 . S
C1178 C1176 1.388 . S
C1178 C1179 1.366 . S
C1179 C1178 1.366 . S
C1179 C1180 1.414 . S
C1179 C1182 1.499 . S
C1180 H1160 0.950 . S
C1180 C1179 1.414 . S
C1180 C1181 1.374 . S
C1181 H1161 0.950 . S
C1181 C1177 1.385 . S
C1181 C1180 1.374 . S
C1182 C1179 1.499 . S
C1182 C1183 1.373 . S
C1182 C1184 1.389 . S
C1183 H1162 0.950 . S
C1183 C1182 1.373 . S
C1183 C1199 1.377 . S
C1184 C1182 1.389 . S
C1184 C1185 1.524 . S
C1184 C1198 1.377 . S
C1185 C1184 1.524 . S
C1185 C1186 1.397 . S
C1185 C1190 1.363 . S
C1186 H1163 0.950 . S
C1186 C1185 1.397 . S
C1186 C1187 1.334 . S
C1187 H1164 0.950 . S
C1187 C1186 1.334 . S
C1187 C1188 1.287 . S
C1188 C1187 1.287 . S
C1188 C1189 1.524 . S
C1188 H1207 0.913 . S
C1189 H1165 0.950 . S
C1189 C1188 1.524 . S
C1189 C1190 1.415 . S
C1190 H1166 0.950 . S
C1190 C1185 1.363 . S
C1190 C1189 1.415 . S
C1191 H1167 0.951 . S
C1191 C1192 1.366 . S
C1191 C1193 1.388 . S
C1192 C1191 1.366 . S
C1192 C1196 1.385 . S
C1193 H1168 0.951 . S
C1193 C1191 1.388 . S
C1193 C1194 1.366 . S
C1194 C1193 1.366 . S
C1194 C1195 1.414 . S
C1194 C1197 1.499 . S
C1195 H1169 0.950 . S
C1195 C1194 1.414 . S
C1195 C1196 1.374 . S
C1196 H1170 0.950 . S
C1196 C1192 1.385 . S
C1196 C1195 1.374 . S
C1197 C1194 1.499 . S
C1197 C1198 1.373 . S
C1197 C1199 1.389 . S
C1198 H1171 0.950 . S
C1198 C1184 1.377 . S
C1198 C1197 1.373 . S
C1199 C1183 1.377 . S
C1199 C1197 1.389 . S
C1199 C1200 1.524 . S
C1200 C1199 1.524 . S
C1200 C1201 1.397 . S
C1200 C1205 1.363 . S
C1201 H1172 0.950 . S
C1201 C1200 1.397 . S
C1201 C1202 1.334 . S
C1202 H1173 0.950 . S
C1202 C1201 1.334 . S
C1202 C1203 1.287 . S
C1203 C1202 1.287 . S
C1203 C1204 1.524 . S
C1203 H1206 0.999 . S
C1204 H1174 0.950 . S
C1204 C1203 1.524 . S
C1204 C1205 1.415 . S
C1205 H1175 0.950 . S
C1205 C1200 1.363 . S
C1205 C1204 1.415 . S
H1206 C1203 0.999 . S
H1207 C1188 0.913 . S
H1208 C1226 0.951 . S
H1209 C1228 0.951 . S
H1210 C1230 0.950 . S
H1211 C1231 0.950 . S
H1212 C1233 0.950 . S
H1213 C1236 0.950 . S
H1214 C1237 0.950 . S
H1215 C1239 0.950 . S
H1216 C1240 0.950 . S
H1217 C1241 0.951 . S
H1218 C1243 0.951 . S
H1219 C1245 0.950 . S
H1220 C1246 0.950 . S
H1221 C1248 0.950 . S
H1222 C1251 0.950 . S
H1223 C1252 0.950 . S
H1224 C1254 0.950 . S
H1225 C1255 0.950 . S
C1226 H1208 0.951 . S
C1226 C1227 1.366 . S
C1226 C1228 1.388 . S
C1227 C1226 1.366 . S
C1227 C1231 1.385 . S
C1228 H1209 0.951 . S
C1228 C1226 1.388 . S
C1228 C1229 1.366 . S
C1229 C1228 1.366 . S
C1229 C1230 1.414 . S
C1229 C1232 1.499 . S
C1230 H1210 0.950 . S
C1230 C1229 1.414 . S
C1230 C1231 1.374 . S
C1231 H1211 0.950 . S
C1231 C1227 1.385 . S
C1231 C1230 1.374 . S
C1232 C1229 1.499 . S
C1232 C1233 1.373 . S
C1232 C1234 1.389 . S
C1233 H1212 0.950 . S
C1233 C1232 1.373 . S
C1233 C1249 1.377 . S
C1234 C1232 1.389 . S
C1234 C1235 1.524 . S
C1234 C1248 1.377 . S
C1235 C1234 1.524 . S
C1235 C1236 1.397 . S
C1235 C1240 1.363 . S
C1236 H1213 0.950 . S
C1236 C1235 1.397 . S
C1236 C1237 1.334 . S
C1237 H1214 0.950 . S
C1237 C1236 1.334 . S
C1237 C1238 1.287 . S
C1238 C1237 1.287 . S
C1238 C1239 1.524 . S
C1238 H1257 0.913 . S
C1239 H1215 0.950 . S
C1239 C1238 1.524 . S
C1239 C1240 1.415 . S
C1240 H1216 0.950 . S
C1240 C1235 1.363 . S
C1240 C1239 1.415 . S
C1241 H1217 0.951 . S
C1241 C1242 1.366 . S
C1241 C1243 1.388 . S
C1242 C1241 1.366 . S
C1242 C1246 1.385 . S
C1243 H1218 0.951 . S
C1243 C1241 1.388 . S
C1243 C1244 1.366 . S
C1244 C1243 1.366 . S
C1244 C1245 1.414 . S
C1244 C1247 1.499 . S
C1245 H1219 0.950 . S
C1245 C1244 1.414 . S
C1245 C1246 1.374 . S
C1246 H1220 0.950 . S
C1246 C1242 1.385 . S
C1246 C1245 1.374 . S
C1247 C1244 1.499 . S
C1247 C1248 1.373 . S
C1247 C1249 1.389 . S
C1248 H1221 0.950 . S
C1248 C1234 1.377 . S
C1248 C1247 1.373 . S
C1249 C1233 1.377 . S
C1249 C1247 1.389 . S
C1249 C1250 1.524 . S
C1250 C1249 1.524 . S
C1250 C1251 1.397 . S
C1250 C1255 1.363 . S
C1251 H1222 0.950 . S
C1251 C1250 1.397 . S
C1251 C1252 1.334 . S
C1252 H1223 0.950 . S
C1252 C1251 1.334 . S
C1252 C1253 1.287 . S
C1253 C1252 1.287 . S
C1253 C1254 1.524 . S
C1253 H1256 0.999 . S
C1254 H1224 0.950 . S
C1254 C1253 1.524 . S
C1254 C1255 1.415 . S
C1255 H1225 0.950 . S
C1255 C1250 1.363 . S
C1255 C1254 1.415 . S
H1256 C1253 0.999 . S
H1257 C1238 0.913 . S
H1258 C1276 0.951 . S
H1259 C1278 0.951 . S
H1260 C1280 0.950 . S
H1261 C1281 0.950 . S
H1262 C1283 0.950 . S
H1263 C1286 0.950 . S
H1264 C1287 0.950 . S
H1265 C1289 0.950 . S
H1266 C1290 0.950 . S
H1267 C1291 0.951 . S
H1268 C1293 0.951 . S
H1269 C1295 0.950 . S
H1270 C1296 0.950 . S
H1271 C1298 0.950 . S
H1272 C1301 0.950 . S
H1273 C1302 0.950 . S
H1274 C1304 0.950 . S
H1275 C1305 0.950 . S
C1276 H1258 0.951 . S
C1276 C1277 1.366 . S
C1276 C1278 1.388 . S
C1277 C1276 1.366 . S
C1277 C1281 1.385 . S
C1278 H1259 0.951 . S
C1278 C1276 1.388 . S
C1278 C1279 1.366 . S
C1279 C1278 1.366 . S
C1279 C1280 1.414 . S
C1279 C1282 1.499 . S
C1280 H1260 0.950 . S
C1280 C1279 1.414 . S
C1280 C1281 1.374 . S
C1281 H1261 0.950 . S
C1281 C1277 1.385 . S
C1281 C1280 1.374 . S
C1282 C1279 1.499 . S
C1282 C1283 1.373 . S
C1282 C1284 1.389 . S
C1283 H1262 0.950 . S
C1283 C1282 1.373 . S
C1283 C1299 1.377 . S
C1284 C1282 1.389 . S
C1284 C1285 1.524 . S
C1284 C1298 1.377 . S
C1285 C1284 1.524 . S
C1285 C1286 1.397 . S
C1285 C1290 1.363 . S
C1286 H1263 0.950 . S
C1286 C1285 1.397 . S
C1286 C1287 1.334 . S
C1287 H1264 0.950 . S
C1287 C1286 1.334 . S
C1287 C1288 1.287 . S
C1288 C1287 1.287 . S
C1288 C1289 1.524 . S
C1288 H1307 0.913 . S
C1289 H1265 0.950 . S
C1289 C1288 1.524 . S
C1289 C1290 1.415 . S
C1290 H1266 0.950 . S
C1290 C1285 1.363 . S
C1290 C1289 1.415 . S
C1291 H1267 0.951 . S
C1291 C1292 1.366 . S
C1291 C1293 1.388 . S
C1292 C1291 1.366 . S
C1292 C1296 1.385 . S
C1293 H1268 0.951 . S
C1293 C1291 1.388 . S
C1293 C1294 1.366 . S
C1294 C1293 1.366 . S
C1294 C1295 1.414 . S
C1294 C1297 1.499 . S
C1295 H1269 0.950 . S
C1295 C1294 1.414 . S
C1295 C1296 1.374 . S
C1296 H1270 0.950 . S
C1296 C1292 1.385 . S
C1296 C1295 1.374 . S
C1297 C1294 1.499 . S
C1297 C1298 1.373 . S
C1297 C1299 1.389 . S
C1298 H1271 0.950 . S
C1298 C1284 1.377 . S
C1298 C1297 1.373 . S
C1299 C1283 1.377 . S
C1299 C1297 1.389 . S
C1299 C1300 1.524 . S
C1300 C1299 1.524 . S
C1300 C1301 1.397 . S
C1300 C1305 1.363 . S
C1301 H1272 0.950 . S
C1301 C1300 1.397 . S
C1301 C1302 1.334 . S
C1302 H1273 0.950 . S
C1302 C1301 1.334 . S
C1302 C1303 1.287 . S
C1303 C1302 1.287 . S
C1303 C1304 1.524 . S
C1303 H1306 0.999 . S
C1304 H1274 0.950 . S
C1304 C1303 1.524 . S
C1304 C1305 1.415 . S
C1305 H1275 0.950 . S
C1305 C1300 1.363 . S
C1305 C1304 1.415 . S
H1306 C1303 0.999 . S
H1307 C1288 0.913 . S
H1308 C1326 0.951 . S
H1309 C1328 0.951 . S
H1310 C1330 0.950 . S
H1311 C1331 0.950 . S
H1312 C1333 0.950 . S
H1313 C1336 0.950 . S
H1314 C1337 0.950 . S
H1315 C1339 0.950 . S
H1316 C1340 0.950 . S
H1317 C1341 0.951 . S
H1318 C1343 0.951 . S
H1319 C1345 0.950 . S
H1320 C1346 0.950 . S
H1321 C1348 0.950 . S
H1322 C1351 0.950 . S
H1323 C1352 0.950 . S
H1324 C1354 0.950 . S
H1325 C1355 0.950 . S
C1326 H1308 0.951 . S
C1326 C1327 1.366 . S
C1326 C1328 1.388 . S
C1327 C1326 1.366 . S
C1327 C1331 1.385 . S
C1328 H1309 0.951 . S
C1328 C1326 1.388 . S
C1328 C1329 1.366 . S
C1329 C1328 1.366 . S
C1329 C1330 1.414 . S
C1329 C1332 1.499 . S
C1330 H1310 0.950 . S
C1330 C1329 1.414 . S
C1330 C1331 1.374 . S
C1331 H1311 0.950 . S
C1331 C1327 1.385 . S
C1331 C1330 1.374 . S
C1332 C1329 1.499 . S
C1332 C1333 1.373 . S
C1332 C1334 1.389 . S
C1333 H1312 0.950 . S
C1333 C1332 1.373 . S
C1333 C1349 1.377 . S
C1334 C1332 1.389 . S
C1334 C1335 1.524 . S
C1334 C1348 1.377 . S
C1335 C1334 1.524 . S
C1335 C1336 1.397 . S
C1335 C1340 1.363 . S
C1336 H1313 0.950 . S
C1336 C1335 1.397 . S
C1336 C1337 1.334 . S
C1337 H1314 0.950 . S
C1337 C1336 1.334 . S
C1337 C1338 1.287 . S
C1338 C1337 1.287 . S
C1338 C1339 1.524 . S
C1338 H1357 0.913 . S
C1339 H1315 0.950 . S
C1339 C1338 1.524 . S
C1339 C1340 1.415 . S
C1340 H1316 0.950 . S
C1340 C1335 1.363 . S
C1340 C1339 1.415 . S
C1341 H1317 0.951 . S
C1341 C1342 1.366 . S
C1341 C1343 1.388 . S
C1342 C1341 1.366 . S
C1342 C1346 1.385 . S
C1343 H1318 0.951 . S
C1343 C1341 1.388 . S
C1343 C1344 1.366 . S
C1344 C1343 1.366 . S
C1344 C1345 1.414 . S
C1344 C1347 1.499 . S
C1345 H1319 0.950 . S
C1345 C1344 1.414 . S
C1345 C1346 1.374 . S
C1346 H1320 0.950 . S
C1346 C1342 1.385 . S
C1346 C1345 1.374 . S
C1347 C1344 1.499 . S
C1347 C1348 1.373 . S
C1347 C1349 1.389 . S
C1348 H1321 0.950 . S
C1348 C1334 1.377 . S
C1348 C1347 1.373 . S
C1349 C1333 1.377 . S
C1349 C1347 1.389 . S
C1349 C1350 1.524 . S
C1350 C1349 1.524 . S
C1350 C1351 1.397 . S
C1350 C1355 1.363 . S
C1351 H1322 0.950 . S
C1351 C1350 1.397 . S
C1351 C1352 1.334 . S
C1352 H1323 0.950 . S
C1352 C1351 1.334 . S
C1352 C1353 1.287 . S
C1353 C1352 1.287 . S
C1353 C1354 1.524 . S
C1353 H1356 0.999 . S
C1354 H1324 0.950 . S
C1354 C1353 1.524 . S
C1354 C1355 1.415 . S
C1355 H1325 0.950 . S
C1355 C1350 1.363 . S
C1355 C1354 1.415 . S
H1356 C1353 0.999 . S
H1357 C1338 0.913 . S
H1358 C1376 0.951 . S
H1359 C1378 0.951 . S
H1360 C1380 0.950 . S
H1361 C1381 0.950 . S
H1362 C1383 0.950 . S
H1363 C1386 0.950 . S
H1364 C1387 0.950 . S
H1365 C1389 0.950 . S
H1366 C1390 0.950 . S
H1367 C1391 0.951 . S
H1368 C1393 0.951 . S
H1369 C1395 0.950 . S
H1370 C1396 0.950 . S
H1371 C1398 0.950 . S
H1372 C1401 0.950 . S
H1373 C1402 0.950 . S
H1374 C1404 0.950 . S
H1375 C1405 0.950 . S
C1376 H1358 0.951 . S
C1376 C1377 1.366 . S
C1376 C1378 1.388 . S
C1377 C1376 1.366 . S
C1377 C1381 1.385 . S
C1378 H1359 0.951 . S
C1378 C1376 1.388 . S
C1378 C1379 1.366 . S
C1379 C1378 1.366 . S
C1379 C1380 1.414 . S
C1379 C1382 1.499 . S
C1380 H1360 0.950 . S
C1380 C1379 1.414 . S
C1380 C1381 1.374 . S
C1381 H1361 0.950 . S
C1381 C1377 1.385 . S
C1381 C1380 1.374 . S
C1382 C1379 1.499 . S
C1382 C1383 1.373 . S
C1382 C1384 1.389 . S
C1383 H1362 0.950 . S
C1383 C1382 1.373 . S
C1383 C1399 1.377 . S
C1384 C1382 1.389 . S
C1384 C1385 1.524 . S
C1384 C1398 1.377 . S
C1385 C1384 1.524 . S
C1385 C1386 1.397 . S
C1385 C1390 1.363 . S
C1386 H1363 0.950 . S
C1386 C1385 1.397 . S
C1386 C1387 1.334 . S
C1387 H1364 0.950 . S
C1387 C1386 1.334 . S
C1387 C1388 1.287 . S
C1388 C1387 1.287 . S
C1388 C1389 1.524 . S
C1388 H1407 0.913 . S
C1389 H1365 0.950 . S
C1389 C1388 1.524 . S
C1389 C1390 1.415 . S
C1390 H1366 0.950 . S
C1390 C1385 1.363 . S
C1390 C1389 1.415 . S
C1391 H1367 0.951 . S
C1391 C1392 1.366 . S
C1391 C1393 1.388 . S
C1392 C1391 1.366 . S
C1392 C1396 1.385 . S
C1393 H1368 0.951 . S
C1393 C1391 1.388 . S
C1393 C1394 1.366 . S
C1394 C1393 1.366 . S
C1394 C1395 1.414 . S
C1394 C1397 1.499 . S
C1395 H1369 0.950 . S
C1395 C1394 1.414 . S
C1395 C1396 1.374 . S
C1396 H1370 0.950 . S
C1396 C1392 1.385 . S
C1396 C1395 1.374 . S
C1397 C1394 1.499 . S
C1397 C1398 1.373 . S
C1397 C1399 1.389 . S
C1398 H1371 0.950 . S
C1398 C1384 1.377 . S
C1398 C1397 1.373 . S
C1399 C1383 1.377 . S
C1399 C1397 1.389 . S
C1399 C1400 1.524 . S
C1400 C1399 1.524 . S
C1400 C1401 1.397 . S
C1400 C1405 1.363 . S
C1401 H1372 0.950 . S
C1401 C1400 1.397 . S
C1401 C1402 1.334 . S
C1402 H1373 0.950 . S
C1402 C1401 1.334 . S
C1402 C1403 1.287 . S
C1403 C1402 1.287 . S
C1403 C1404 1.524 . S
C1403 H1406 0.999 . S
C1404 H1374 0.950 . S
C1404 C1403 1.524 . S
C1404 C1405 1.415 . S
C1405 H1375 0.950 . S
C1405 C1400 1.363 . S
C1405 C1404 1.415 . S
H1406 C1403 0.999 . S
H1407 C1388 0.913 . S
H1408 C1426 0.951 . S
H1409 C1428 0.951 . S
H1410 C1430 0.950 . S
H1411 C1431 0.950 . S
H1412 C1433 0.950 . S
H1413 C1436 0.950 . S
H1414 C1437 0.950 . S
H1415 C1439 0.950 . S
H1416 C1440 0.950 . S
H1417 C1441 0.951 . S
H1418 C1443 0.951 . S
H1419 C1445 0.950 . S
H1420 C1446 0.950 . S
H1421 C1448 0.950 . S
H1422 C1451 0.950 . S
H1423 C1452 0.950 . S
H1424 C1454 0.950 . S
H1425 C1455 0.950 . S
C1426 H1408 0.951 . S
C1426 C1427 1.366 . S
C1426 C1428 1.388 . S
C1427 C1426 1.366 . S
C1427 C1431 1.385 . S
C1428 H1409 0.951 . S
C1428 C1426 1.388 . S
C1428 C1429 1.366 . S
C1429 C1428 1.366 . S
C1429 C1430 1.414 . S
C1429 C1432 1.499 . S
C1430 H1410 0.950 . S
C1430 C1429 1.414 . S
C1430 C1431 1.374 . S
C1431 H1411 0.950 . S
C1431 C1427 1.385 . S
C1431 C1430 1.374 . S
C1432 C1429 1.499 . S
C1432 C1433 1.373 . S
C1432 C1434 1.389 . S
C1433 H1412 0.950 . S
C1433 C1432 1.373 . S
C1433 C1449 1.377 1_545 S
C1434 C1432 1.389 . S
C1434 C1435 1.524 . S
C1434 C1448 1.377 1_545 S
C1435 C1434 1.524 . S
C1435 C1436 1.397 . S
C1435 C1440 1.363 1_545 S
C1436 H1413 0.950 . S
C1436 C1435 1.397 . S
C1436 C1437 1.334 . S
C1437 H1414 0.950 . S
C1437 C1436 1.334 . S
C1437 C1438 1.287 . S
C1438 C1437 1.287 . S
C1438 C1439 1.524 1_545 S
C1438 H1457 0.913 . S
C1439 H1415 0.950 . S
C1439 C1438 1.524 1_565 S
C1439 C1440 1.415 . S
C1440 H1416 0.950 . S
C1440 C1435 1.363 1_565 S
C1440 C1439 1.415 . S
C1441 H1417 0.951 . S
C1441 C1442 1.366 . S
C1441 C1443 1.388 . S
C1442 C1441 1.366 . S
C1442 C1446 1.385 . S
C1443 H1418 0.951 . S
C1443 C1441 1.388 . S
C1443 C1444 1.366 . S
C1444 C1443 1.366 . S
C1444 C1445 1.414 . S
C1444 C1447 1.499 . S
C1445 H1419 0.950 . S
C1445 C1444 1.414 . S
C1445 C1446 1.374 . S
C1446 H1420 0.950 . S
C1446 C1442 1.385 . S
C1446 C1445 1.374 . S
C1447 C1444 1.499 . S
C1447 C1448 1.373 . S
C1447 C1449 1.389 . S
C1448 H1421 0.950 . S
C1448 C1434 1.377 1_565 S
C1448 C1447 1.373 . S
C1449 C1433 1.377 1_565 S
C1449 C1447 1.389 . S
C1449 C1450 1.524 . S
C1450 C1449 1.524 . S
C1450 C1451 1.397 . S
C1450 C1455 1.363 1_565 S
C1451 H1422 0.950 . S
C1451 C1450 1.397 . S
C1451 C1452 1.334 . S
C1452 H1423 0.950 . S
C1452 C1451 1.334 . S
C1452 C1453 1.287 . S
C1453 C1452 1.287 . S
C1453 C1454 1.524 1_565 S
C1453 H1456 0.999 . S
C1454 H1424 0.950 . S
C1454 C1453 1.524 1_545 S
C1454 C1455 1.415 . S
C1455 H1425 0.950 . S
C1455 C1450 1.363 1_545 S
C1455 C1454 1.415 . S
H1456 C1453 0.999 . S
H1457 C1438 0.913 . S
H1458 C1476 0.951 . S
H1459 C1478 0.951 . S
H1460 C1480 0.950 . S
H1461 C1481 0.950 . S
H1462 C1483 0.950 . S
H1463 C1486 0.950 . S
H1464 C1487 0.950 . S
H1465 C1489 0.950 . S
H1466 C1490 0.950 . S
H1467 C1491 0.951 . S
H1468 C1493 0.951 . S
H1469 C1495 0.950 . S
H1470 C1496 0.950 . S
H1471 C1498 0.950 . S
H1472 C1501 0.950 . S
H1473 C1502 0.950 . S
H1474 C1504 0.950 . S
H1475 C1505 0.950 . S
C1476 H1458 0.951 . S
C1476 C1477 1.366 . S
C1476 C1478 1.388 . S
C1477 C1476 1.366 . S
C1477 C1481 1.385 . S
C1478 H1459 0.951 . S
C1478 C1476 1.388 . S
C1478 C1479 1.366 . S
C1479 C1478 1.366 . S
C1479 C1480 1.414 . S
C1479 C1482 1.499 . S
C1480 H1460 0.950 . S
C1480 C1479 1.414 . S
C1480 C1481 1.374 . S
C1481 H1461 0.950 . S
C1481 C1477 1.385 . S
C1481 C1480 1.374 . S
C1482 C1479 1.499 . S
C1482 C1483 1.373 . S
C1482 C1484 1.389 . S
C1483 H1462 0.950 . S
C1483 C1482 1.373 . S
C1483 C1499 1.377 1_655 S
C1484 C1482 1.389 . S
C1484 C1485 1.524 . S
C1484 C1498 1.377 1_655 S
C1485 C1484 1.524 . S
C1485 C1486 1.397 . S
C1485 C1490 1.363 . S
C1486 H1463 0.950 . S
C1486 C1485 1.397 . S
C1486 C1487 1.334 . S
C1487 H1464 0.950 . S
C1487 C1486 1.334 . S
C1487 C1488 1.287 . S
C1488 C1487 1.287 . S
C1488 C1489 1.524 . S
C1488 H1507 0.913 . S
C1489 H1465 0.950 . S
C1489 C1488 1.524 . S
C1489 C1490 1.415 . S
C1490 H1466 0.950 . S
C1490 C1485 1.363 . S
C1490 C1489 1.415 . S
C1491 H1467 0.951 . S
C1491 C1492 1.366 . S
C1491 C1493 1.388 . S
C1492 C1491 1.366 . S
C1492 C1496 1.385 . S
C1493 H1468 0.951 . S
C1493 C1491 1.388 . S
C1493 C1494 1.366 . S
C1494 C1493 1.366 . S
C1494 C1495 1.414 . S
C1494 C1497 1.499 . S
C1495 H1469 0.950 . S
C1495 C1494 1.414 . S
C1495 C1496 1.374 . S
C1496 H1470 0.950 . S
C1496 C1492 1.385 . S
C1496 C1495 1.374 . S
C1497 C1494 1.499 . S
C1497 C1498 1.373 . S
C1497 C1499 1.389 . S
C1498 H1471 0.950 . S
C1498 C1484 1.377 1_455 S
C1498 C1497 1.373 . S
C1499 C1483 1.377 1_455 S
C1499 C1497 1.389 . S
C1499 C1500 1.524 . S
C1500 C1499 1.524 . S
C1500 C1501 1.397 . S
C1500 C1505 1.363 . S
C1501 H1472 0.950 . S
C1501 C1500 1.397 . S
C1501 C1502 1.334 . S
C1502 H1473 0.950 . S
C1502 C1501 1.334 . S
C1502 C1503 1.287 . S
C1503 C1502 1.287 . S
C1503 C1504 1.524 . S
C1503 H1506 0.999 . S
C1504 H1474 0.950 . S
C1504 C1503 1.524 . S
C1504 C1505 1.415 . S
C1505 H1475 0.950 . S
C1505 C1500 1.363 . S
C1505 C1504 1.415 . S
H1506 C1503 0.999 . S
H1507 C1488 0.913 . S
H1508 C1526 0.951 . S
H1509 C1528 0.951 . S
H1510 C1530 0.950 . S
H1511 C1531 0.950 . S
H1512 C1533 0.950 . S
H1513 C1536 0.950 . S
H1514 C1537 0.950 . S
H1515 C1539 0.942 1_565 S
H1516 C1540 0.950 . S
H1517 C1541 0.951 . S
H1518 C1543 0.951 . S
H1519 C1545 0.950 . S
H1520 C1546 0.950 . S
H1521 C1548 0.950 . S
H1522 C1551 0.950 . S
H1523 C1552 0.950 . S
H1524 C1554 0.942 1_545 S
H1525 C1555 0.950 . S
C1526 H1508 0.951 . S
C1526 C1527 1.366 . S
C1526 C1528 1.388 . S
C1527 C1526 1.366 . S
C1527 C1531 1.385 . S
C1528 H1509 0.951 . S
C1528 C1526 1.388 . S
C1528 C1529 1.366 . S
C1529 C1528 1.366 . S
C1529 C1530 1.414 . S
C1529 C1532 1.499 . S
C1530 H1510 0.950 . S
C1530 C1529 1.414 . S
C1530 C1531 1.374 . S
C1531 H1511 0.950 . S
C1531 C1527 1.385 . S
C1531 C1530 1.374 . S
C1532 C1529 1.499 . S
C1532 C1533 1.373 . S
C1532 C1534 1.389 . S
C1533 H1512 0.950 . S
C1533 C1532 1.373 . S
C1533 C1549 1.377 1_545 S
C1534 C1532 1.389 . S
C1534 C1535 1.524 . S
C1534 C1548 1.377 1_545 S
C1535 C1534 1.524 . S
C1535 C1536 1.397 . S
C1535 C1540 1.363 1_545 S
C1536 H1513 0.950 . S
C1536 C1535 1.397 . S
C1536 C1537 1.334 . S
C1537 H1514 0.950 . S
C1537 C1536 1.334 . S
C1537 C1538 1.287 . S
C1538 C1537 1.287 . S
C1538 C1539 1.535 . S
C1538 H1557 0.913 . S
C1539 H1515 0.942 1_545 S
C1539 C1538 1.535 . S
C1539 C1540 1.413 1_545 S
C1540 H1516 0.950 . S
C1540 C1535 1.363 1_565 S
C1540 C1539 1.413 1_565 S
C1541 H1517 0.951 . S
C1541 C1542 1.366 . S
C1541 C1543 1.388 . S
C1542 C1541 1.366 . S
C1542 C1546 1.385 . S
C1543 H1518 0.951 . S
C1543 C1541 1.388 . S
C1543 C1544 1.366 . S
C1544 C1543 1.366 . S
C1544 C1545 1.414 . S
C1544 C1547 1.499 . S
C1545 H1519 0.950 . S
C1545 C1544 1.414 . S
C1545 C1546 1.374 . S
C1546 H1520 0.950 . S
C1546 C1542 1.385 . S
C1546 C1545 1.374 . S
C1547 C1544 1.499 . S
C1547 C1548 1.373 . S
C1547 C1549 1.389 . S
C1548 H1521 0.950 . S
C1548 C1534 1.377 1_565 S
C1548 C1547 1.373 . S
C1549 C1533 1.377 1_565 S
C1549 C1547 1.389 . S
C1549 C1550 1.524 . S
C1550 C1549 1.524 . S
C1550 C1551 1.397 . S
C1550 C1555 1.363 1_565 S
C1551 H1522 0.950 . S
C1551 C1550 1.397 . S
C1551 C1552 1.334 . S
C1552 H1523 0.950 . S
C1552 C1551 1.334 . S
C1552 C1553 1.287 . S
C1553 C1552 1.287 . S
C1553 C1554 1.535 . S
C1553 H1556 0.999 . S
C1554 H1524 0.942 1_565 S
C1554 C1553 1.535 . S
C1554 C1555 1.413 1_565 S
C1555 H1525 0.950 . S
C1555 C1550 1.363 1_545 S
C1555 C1554 1.413 1_545 S
H1556 C1553 0.999 . S
H1557 C1538 0.913 . S
H1558 C1576 0.951 . S
H1559 C1578 0.951 . S
H1560 C1580 0.950 . S
H1561 C1581 0.950 . S
H1562 C1583 0.950 . S
H1563 C1586 0.950 . S
H1564 C1587 0.950 . S
H1565 C1589 0.950 . S
H1566 C1590 0.950 . S
H1567 C1591 0.951 . S
H1568 C1593 0.951 . S
H1569 C1595 0.950 . S
H1570 C1596 0.950 . S
H1571 C1598 0.950 . S
H1572 C1601 0.950 . S
H1573 C1602 0.950 . S
H1574 C1604 0.950 . S
H1575 C1605 0.950 . S
C1576 H1558 0.951 . S
C1576 C1577 1.366 . S
C1576 C1578 1.388 . S
C1577 C1576 1.366 . S
C1577 C1581 1.385 . S
C1578 H1559 0.951 . S
C1578 C1576 1.388 . S
C1578 C1579 1.366 . S
C1579 C1578 1.366 . S
C1579 C1580 1.414 . S
C1579 C1582 1.499 . S
C1580 H1560 0.950 . S
C1580 C1579 1.414 . S
C1580 C1581 1.374 . S
C1581 H1561 0.950 . S
C1581 C1577 1.385 . S
C1581 C1580 1.374 . S
C1582 C1579 1.499 . S
C1582 C1583 1.373 . S
C1582 C1584 1.389 . S
C1583 H1562 0.950 . S
C1583 C1582 1.373 . S
C1583 C1599 1.377 1_455 S
C1584 C1582 1.389 . S
C1584 C1585 1.524 . S
C1584 C1598 1.377 1_455 S
C1585 C1584 1.524 . S
C1585 C1586 1.397 . S
C1585 C1590 1.363 . S
C1586 H1563 0.950 . S
C1586 C1585 1.397 . S
C1586 C1587 1.334 . S
C1587 H1564 0.950 . S
C1587 C1586 1.334 . S
C1587 C1588 1.287 . S
C1588 C1587 1.287 . S
C1588 C1589 1.524 . S
C1588 H1607 0.913 . S
C1589 H1565 0.950 . S
C1589 C1588 1.524 . S
C1589 C1590 1.415 . S
C1590 H1566 0.950 . S
C1590 C1585 1.363 . S
C1590 C1589 1.415 . S
C1591 H1567 0.951 . S
C1591 C1592 1.366 . S
C1591 C1593 1.388 . S
C1592 C1591 1.366 . S
C1592 C1596 1.385 . S
C1593 H1568 0.951 . S
C1593 C1591 1.388 . S
C1593 C1594 1.366 . S
C1594 C1593 1.366 . S
C1594 C1595 1.414 . S
C1594 C1597 1.499 . S
C1595 H1569 0.950 . S
C1595 C1594 1.414 . S
C1595 C1596 1.374 . S
C1596 H1570 0.950 . S
C1596 C1592 1.385 . S
C1596 C1595 1.374 . S
C1597 C1594 1.499 . S
C1597 C1598 1.373 . S
C1597 C1599 1.389 . S
C1598 H1571 0.950 . S
C1598 C1584 1.377 1_655 S
C1598 C1597 1.373 . S
C1599 C1583 1.377 1_655 S
C1599 C1597 1.389 . S
C1599 C1600 1.524 . S
C1600 C1599 1.524 . S
C1600 C1601 1.397 . S
C1600 C1605 1.363 . S
C1601 H1572 0.950 . S
C1601 C1600 1.397 . S
C1601 C1602 1.334 . S
C1602 H1573 0.950 . S
C1602 C1601 1.334 . S
C1602 C1603 1.287 . S
C1603 C1602 1.287 . S
C1603 C1604 1.524 . S
C1603 H1606 0.999 . S
C1604 H1574 0.950 . S
C1604 C1603 1.524 . S
C1604 C1605 1.415 . S
C1605 H1575 0.950 . S
C1605 C1600 1.363 . S
C1605 C1604 1.415 . S
H1606 C1603 0.999 . S
H1607 C1588 0.913 . S
H1608 C1626 0.951 . S
H1609 C1628 0.951 . S
H1610 C1630 0.950 . S
H1611 C1631 0.950 . S
H1612 C1633 0.950 . S
H1613 C1636 0.950 . S
H1614 C1637 0.950 . S
H1615 C1639 0.950 . S
H1616 C1640 0.950 . S
H1617 C1641 0.951 . S
H1618 C1643 0.951 . S
H1619 C1645 0.950 . S
H1620 C1646 0.950 . S
H1621 C1648 0.950 . S
H1622 C1651 0.950 . S
H1623 C1652 0.950 . S
H1624 C1654 0.950 . S
H1625 C1655 0.950 . S
C1626 H1608 0.951 . S
C1626 C1627 1.366 . S
C1626 C1628 1.388 . S
C1627 C1626 1.366 . S
C1627 C1631 1.385 . S
C1628 H1609 0.951 . S
C1628 C1626 1.388 . S
C1628 C1629 1.366 . S
C1629 C1628 1.366 . S
C1629 C1630 1.414 . S
C1629 C1632 1.499 . S
C1630 H1610 0.950 . S
C1630 C1629 1.414 . S
C1630 C1631 1.374 . S
C1631 H1611 0.950 . S
C1631 C1627 1.385 . S
C1631 C1630 1.374 . S
C1632 C1629 1.499 . S
C1632 C1633 1.373 . S
C1632 C1634 1.389 . S
C1633 H1612 0.950 . S
C1633 C1632 1.373 . S
C1633 C1649 1.377 1_545 S
C1634 C1632 1.389 . S
C1634 C1635 1.524 . S
C1634 C1648 1.377 1_545 S
C1635 C1634 1.524 . S
C1635 C1636 1.397 . S
C1635 C1640 1.363 . S
C1636 H1613 0.950 . S
C1636 C1635 1.397 . S
C1636 C1637 1.334 . S
C1637 H1614 0.950 . S
C1637 C1636 1.334 . S
C1637 C1638 1.287 . S
C1638 C1637 1.287 . S
C1638 C1639 1.524 . S
C1638 H1657 0.913 . S
C1639 H1615 0.950 . S
C1639 C1638 1.524 . S
C1639 C1640 1.415 . S
C1640 H1616 0.950 . S
C1640 C1635 1.363 . S
C1640 C1639 1.415 . S
C1641 H1617 0.951 . S
C1641 C1642 1.366 . S
C1641 C1643 1.388 . S
C1642 C1641 1.366 . S
C1642 C1646 1.385 . S
C1643 H1618 0.951 . S
C1643 C1641 1.388 . S
C1643 C1644 1.366 . S
C1644 C1643 1.366 . S
C1644 C1645 1.414 . S
C1644 C1647 1.499 . S
C1645 H1619 0.950 . S
C1645 C1644 1.414 . S
C1645 C1646 1.374 . S
C1646 H1620 0.950 . S
C1646 C1642 1.385 . S
C1646 C1645 1.374 . S
C1647 C1644 1.499 . S
C1647 C1648 1.373 . S
C1647 C1649 1.389 . S
C1648 H1621 0.950 . S
C1648 C1634 1.377 1_565 S
C1648 C1647 1.373 . S
C1649 C1633 1.377 1_565 S
C1649 C1647 1.389 . S
C1649 C1650 1.524 . S
C1650 C1649 1.524 . S
C1650 C1651 1.397 . S
C1650 C1655 1.363 . S
C1651 H1622 0.950 . S
C1651 C1650 1.397 . S
C1651 C1652 1.334 . S
C1652 H1623 0.950 . S
C1652 C1651 1.334 . S
C1652 C1653 1.287 . S
C1653 C1652 1.287 . S
C1653 C1654 1.524 . S
C1653 H1656 0.999 . S
C1654 H1624 0.950 . S
C1654 C1653 1.524 . S
C1654 C1655 1.415 . S
C1655 H1625 0.950 . S
C1655 C1650 1.363 . S
C1655 C1654 1.415 . S
H1656 C1653 0.999 . S
H1657 C1638 0.913 . S
H1658 C1676 0.951 . S
H1659 C1678 0.951 . S
H1660 C1680 0.950 . S
H1661 C1681 0.950 . S
H1662 C1683 0.950 . S
H1663 C1686 0.950 . S
H1664 C1687 0.950 . S
H1665 C1689 0.950 . S
H1666 C1690 0.950 . S
H1667 C1691 0.951 . S
H1668 C1693 0.951 . S
H1669 C1695 0.950 . S
H1670 C1696 0.950 . S
H1671 C1698 0.950 . S
H1672 C1701 0.950 . S
H1673 C1702 0.950 . S
H1674 C1704 0.950 . S
H1675 C1705 0.950 . S
C1676 H1658 0.951 . S
C1676 C1677 1.366 . S
C1676 C1678 1.388 . S
C1677 C1676 1.366 . S
C1677 C1681 1.385 . S
C1678 H1659 0.951 . S
C1678 C1676 1.388 . S
C1678 C1679 1.366 . S
C1679 C1678 1.366 . S
C1679 C1680 1.414 . S
C1679 C1682 1.499 . S
C1680 H1660 0.950 . S
C1680 C1679 1.414 . S
C1680 C1681 1.374 . S
C1681 H1661 0.950 . S
C1681 C1677 1.385 . S
C1681 C1680 1.374 . S
C1682 C1679 1.499 . S
C1682 C1683 1.373 . S
C1682 C1684 1.389 . S
C1683 H1662 0.950 . S
C1683 C1682 1.373 . S
C1683 C1699 1.377 1_655 S
C1684 C1682 1.389 . S
C1684 C1685 1.524 . S
C1684 C1698 1.377 1_655 S
C1685 C1684 1.524 . S
C1685 C1686 1.397 . S
C1685 C1690 1.363 . S
C1686 H1663 0.950 . S
C1686 C1685 1.397 . S
C1686 C1687 1.334 . S
C1687 H1664 0.950 . S
C1687 C1686 1.334 . S
C1687 C1688 1.287 . S
C1688 C1687 1.287 . S
C1688 C1689 1.524 . S
C1688 H1707 0.913 . S
C1689 H1665 0.950 . S
C1689 C1688 1.524 . S
C1689 C1690 1.415 . S
C1690 H1666 0.950 . S
C1690 C1685 1.363 . S
C1690 C1689 1.415 . S
C1691 H1667 0.951 . S
C1691 C1692 1.366 . S
C1691 C1693 1.388 . S
C1692 C1691 1.366 . S
C1692 C1696 1.385 . S
C1693 H1668 0.951 . S
C1693 C1691 1.388 . S
C1693 C1694 1.366 . S
C1694 C1693 1.366 . S
C1694 C1695 1.414 . S
C1694 C1697 1.499 . S
C1695 H1669 0.950 . S
C1695 C1694 1.414 . S
C1695 C1696 1.374 . S
C1696 H1670 0.950 . S
C1696 C1692 1.385 . S
C1696 C1695 1.374 . S
C1697 C1694 1.499 . S
C1697 C1698 1.373 . S
C1697 C1699 1.389 . S
C1698 H1671 0.950 . S
C1698 C1684 1.377 1_455 S
C1698 C1697 1.373 . S
C1699 C1683 1.377 1_455 S
C1699 C1697 1.389 . S
C1699 C1700 1.524 . S
C1700 C1699 1.524 . S
C1700 C1701 1.397 . S
C1700 C1705 1.363 . S
C1701 H1672 0.950 . S
C1701 C1700 1.397 . S
C1701 C1702 1.334 . S
C1702 H1673 0.950 . S
C1702 C1701 1.334 . S
C1702 C1703 1.287 . S
C1703 C1702 1.287 . S
C1703 C1704 1.524 . S
C1703 H1706 0.999 . S
C1704 H1674 0.950 . S
C1704 C1703 1.524 . S
C1704 C1705 1.415 . S
C1705 H1675 0.950 . S
C1705 C1700 1.363 . S
C1705 C1704 1.415 . S
H1706 C1703 0.999 . S
H1707 C1688 0.913 . S
H1708 C1726 0.951 . S
H1709 C1728 0.951 . S
H1710 C1730 0.950 . S
H1711 C1731 0.950 . S
H1712 C1733 0.950 . S
H1713 C1736 0.950 . S
H1714 C1737 0.950 . S
H1715 C1739 0.950 . S
H1716 C1740 0.950 . S
H1717 C1741 0.951 . S
H1718 C1743 0.951 . S
H1719 C1745 0.950 . S
H1720 C1746 0.950 . S
H1721 C1748 0.950 . S
H1722 C1751 0.950 . S
H1723 C1752 0.950 . S
H1724 C1754 0.950 . S
H1725 C1755 0.950 . S
C1726 H1708 0.951 . S
C1726 C1727 1.366 . S
C1726 C1728 1.388 . S
C1727 C1726 1.366 . S
C1727 C1731 1.385 . S
C1728 H1709 0.951 . S
C1728 C1726 1.388 . S
C1728 C1729 1.366 . S
C1729 C1728 1.366 . S
C1729 C1730 1.414 . S
C1729 C1732 1.499 . S
C1730 H1710 0.950 . S
C1730 C1729 1.414 . S
C1730 C1731 1.374 . S
C1731 H1711 0.950 . S
C1731 C1727 1.385 . S
C1731 C1730 1.374 . S
C1732 C1729 1.499 . S
C1732 C1733 1.373 . S
C1732 C1734 1.389 . S
C1733 H1712 0.950 . S
C1733 C1732 1.373 . S
C1733 C1749 1.377 1_565 S
C1734 C1732 1.389 . S
C1734 C1735 1.524 . S
C1734 C1748 1.377 1_565 S
C1735 C1734 1.524 . S
C1735 C1736 1.397 . S
C1735 C1740 1.363 . S
C1736 H1713 0.950 . S
C1736 C1735 1.397 . S
C1736 C1737 1.334 . S
C1737 H1714 0.950 . S
C1737 C1736 1.334 . S
C1737 C1738 1.287 . S
C1738 C1737 1.287 . S
C1738 C1739 1.524 . S
C1738 H1757 0.913 . S
C1739 H1715 0.950 . S
C1739 C1738 1.524 . S
C1739 C1740 1.415 . S
C1740 H1716 0.950 . S
C1740 C1735 1.363 . S
C1740 C1739 1.415 . S
C1741 H1717 0.951 . S
C1741 C1742 1.366 . S
C1741 C1743 1.388 . S
C1742 C1741 1.366 . S
C1742 C1746 1.385 . S
C1743 H1718 0.951 . S
C1743 C1741 1.388 . S
C1743 C1744 1.366 . S
C1744 C1743 1.366 . S
C1744 C1745 1.414 . S
C1744 C1747 1.499 . S
C1745 H1719 0.950 . S
C1745 C1744 1.414 . S
C1745 C1746 1.374 . S
C1746 H1720 0.950 . S
C1746 C1742 1.385 . S
C1746 C1745 1.374 . S
C1747 C1744 1.499 . S
C1747 C1748 1.373 . S
C1747 C1749 1.389 . S
C1748 H1721 0.950 . S
C1748 C1734 1.377 1_545 S
C1748 C1747 1.373 . S
C1749 C1733 1.377 1_545 S
C1749 C1747 1.389 . S
C1749 C1750 1.524 . S
C1750 C1749 1.524 . S
C1750 C1751 1.397 . S
C1750 C1755 1.363 . S
C1751 H1722 0.950 . S
C1751 C1750 1.397 . S
C1751 C1752 1.334 . S
C1752 H1723 0.950 . S
C1752 C1751 1.334 . S
C1752 C1753 1.287 . S
C1753 C1752 1.287 . S
C1753 C1754 1.524 . S
C1753 H1756 0.999 . S
C1754 H1724 0.950 . S
C1754 C1753 1.524 . S
C1754 C1755 1.415 . S
C1755 H1725 0.950 . S
C1755 C1750 1.363 . S
C1755 C1754 1.415 . S
H1756 C1753 0.999 . S
H1757 C1738 0.913 . S
H1758 C1776 0.951 . S
H1759 C1778 0.951 . S
H1760 C1780 0.950 . S
H1761 C1781 0.950 . S
H1762 C1783 0.950 . S
H1763 C1786 0.950 . S
H1764 C1787 0.950 . S
H1765 C1789 0.950 . S
H1766 C1790 0.950 . S
H1767 C1791 0.951 . S
H1768 C1793 0.951 . S
H1769 C1795 0.950 . S
H1770 C1796 0.950 . S
H1771 C1798 0.950 . S
H1772 C1801 0.950 . S
H1773 C1802 0.950 . S
H1774 C1804 0.950 . S
H1775 C1805 0.950 . S
C1776 H1758 0.951 . S
C1776 C1777 1.366 . S
C1776 C1778 1.388 . S
C1777 C1776 1.366 . S
C1777 C1781 1.385 . S
C1778 H1759 0.951 . S
C1778 C1776 1.388 . S
C1778 C1779 1.366 . S
C1779 C1778 1.366 . S
C1779 C1780 1.414 . S
C1779 C1782 1.499 . S
C1780 H1760 0.950 . S
C1780 C1779 1.414 . S
C1780 C1781 1.374 . S
C1781 H1761 0.950 . S
C1781 C1777 1.385 . S
C1781 C1780 1.374 . S
C1782 C1779 1.499 . S
C1782 C1783 1.373 . S
C1782 C1784 1.389 . S
C1783 H1762 0.950 . S
C1783 C1782 1.373 . S
C1783 C1799 1.377 1_455 S
C1784 C1782 1.389 . S
C1784 C1785 1.524 . S
C1784 C1798 1.377 1_455 S
C1785 C1784 1.524 . S
C1785 C1786 1.397 . S
C1785 C1790 1.363 . S
C1786 H1763 0.950 . S
C1786 C1785 1.397 . S
C1786 C1787 1.334 . S
C1787 H1764 0.950 . S
C1787 C1786 1.334 . S
C1787 C1788 1.287 . S
C1788 C1787 1.287 . S
C1788 C1789 1.524 . S
C1788 H1807 0.913 . S
C1789 H1765 0.950 . S
C1789 C1788 1.524 . S
C1789 C1790 1.415 . S
C1790 H1766 0.950 . S
C1790 C1785 1.363 . S
C1790 C1789 1.415 . S
C1791 H1767 0.951 . S
C1791 C1792 1.366 . S
C1791 C1793 1.388 . S
C1792 C1791 1.366 . S
C1792 C1796 1.385 . S
C1793 H1768 0.951 . S
C1793 C1791 1.388 . S
C1793 C1794 1.366 . S
C1794 C1793 1.366 . S
C1794 C1795 1.414 . S
C1794 C1797 1.499 . S
C1795 H1769 0.950 . S
C1795 C1794 1.414 . S
C1795 C1796 1.374 . S
C1796 H1770 0.950 . S
C1796 C1792 1.385 . S
C1796 C1795 1.374 . S
C1797 C1794 1.499 . S
C1797 C1798 1.373 . S
C1797 C1799 1.389 . S
C1798 H1771 0.950 . S
C1798 C1784 1.377 1_655 S
C1798 C1797 1.373 . S
C1799 C1783 1.377 1_655 S
C1799 C1797 1.389 . S
C1799 C1800 1.524 . S
C1800 C1799 1.524 . S
C1800 C1801 1.397 . S
C1800 C1805 1.363 . S
C1801 H1772 0.950 . S
C1801 C1800 1.397 . S
C1801 C1802 1.334 . S
C1802 H1773 0.950 . S
C1802 C1801 1.334 . S
C1802 C1803 1.287 . S
C1803 C1802 1.287 . S
C1803 C1804 1.524 . S
C1803 H1806 0.999 . S
C1804 H1774 0.950 . S
C1804 C1803 1.524 . S
C1804 C1805 1.415 . S
C1805 H1775 0.950 . S
C1805 C1800 1.363 . S
C1805 C1804 1.415 . S
H1806 C1803 0.999 . S
H1807 C1788 0.913 . S
C227 C65 1.174 . S
C242 C0 1.174 . S
C277 C78 1.174 . S
C292 C13 1.175 . S
C327 C26 1.174 . S
C342 C91 1.174 . S
C377 C39 1.175 . S
C392 C52 1.175 . S
C427 C169 1.175 . S
C442 C104 1.174 . S
C477 C182 1.174 . S
C492 C117 1.175 . S
C527 C130 1.174 . S
C542 C195 1.175 . S
C577 C143 1.175 . S
C592 C156 1.175 . S
C627 C138 1.469 . S
C642 C8 1.470 . S
C677 C151 1.470 . S
C692 C21 1.470 . S
C727 C112 1.469 . S
C742 C34 1.469 . S
C777 C47 1.470 . S
C792 C125 1.470 . S
C827 C190 1.470 . S
C842 C60 1.470 . S
C877 C203 1.470 . S
C892 C73 1.470 . S
C927 C86 1.470 . S
C942 C164 1.469 . S
C977 C177 1.470 . S
C992 C99 1.470 . S
C1027 C62 1.274 . S
C1042 C10 1.274 . S
C1077 C23 1.274 . S
C1092 C75 1.275 . S
C1127 C36 1.275 . S
C1142 C88 1.275 . S
C1177 C101 1.274 . S
C1192 C49 1.274 . S
C1227 C109 1.416 . S
C1242 C161 1.417 . S
C1277 C174 1.416 . S
C1292 C122 1.417 . S
C1327 C135 1.416 . S
C1342 C187 1.417 . S
C1377 C200 1.416 . S
C1392 C148 1.417 . S
C1427 C153 1.274 . S
C1442 C179 1.275 . S
C1477 C114 1.274 . S
C1492 C192 1.274 . S
C1527 C205 1.274 . S
C1542 C127 1.275 . S
C1577 C140 1.275 . S
C1592 C166 1.274 . S
C1627 C70 1.416 . S
C1642 C44 1.417 . S
C1677 C83 1.416 . S
C1692 C5 1.417 . S
C1727 C96 1.416 . S
C1742 C18 1.416 . S
C1777 C57 1.416 . S
C1792 C31 1.417 . S
