# Generated by pormake.
# Topology sml, (6)-cn, num edge types: 1
# Building blocks:
#     Node 0, Type 0, BuildingBlock: BETFAJ_clean_sbu_0, # of connection points: 6
#     Node 1, Type 0, BuildingBlock: BETFAJ_clean_sbu_0, # of connection points: 6
#     Node 2, Type 0, BuildingBlock: BETFAJ_clean_sbu_0, # of connection points: 6
#     Node 3, Type 0, BuildingBlock: BETFAJ_clean_sbu_0, # of connection points: 6
#     Node 4, Type 0, BuildingBlock: BETFAJ_clean_sbu_0, # of connection points: 6
#     Node 5, Type 0, BuildingBlock: BETFAJ_clean_sbu_0, # of connection points: 6
#     Edge 6, Type (0, 0), BuildingBlock: XUDNAN_clean_linker_2, # of connection points: 2
#     Edge 7, Type (0, 0), BuildingBlock: XUDNAN_clean_linker_2, # of connection points: 2
#     Edge 8, Type (0, 0), BuildingBlock: XUDNAN_clean_linker_2, # of connection points: 2
#     Edge 9, Type (0, 0), BuildingBlock: XUDNAN_clean_linker_2, # of connection points: 2
#     Edge 10, Type (0, 0), BuildingBlock: XUDNAN_clean_linker_2, # of connection points: 2
#     Edge 11, Type (0, 0), BuildingBlock: XUDNAN_clean_linker_2, # of connection points: 2
#     Edge 12, Type (0, 0), BuildingBlock: XUDNAN_clean_linker_2, # of connection points: 2
#     Edge 13, Type (0, 0), BuildingBlock: XUDNAN_clean_linker_2, # of connection points: 2
#     Edge 14, Type (0, 0), BuildingBlock: XUDNAN_clean_linker_2, # of connection points: 2
#     Edge 15, Type (0, 0), BuildingBlock: XUDNAN_clean_linker_2, # of connection points: 2
#     Edge 16, Type (0, 0), BuildingBlock: XUDNAN_clean_linker_2, # of connection points: 2
#     Edge 17, Type (0, 0), BuildingBlock: XUDNAN_clean_linker_2, # of connection points: 2
#     Edge 18, Type (0, 0), BuildingBlock: XUDNAN_clean_linker_2, # of connection points: 2
#     Edge 19, Type (0, 0), BuildingBlock: XUDNAN_clean_linker_2, # of connection points: 2
#     Edge 20, Type (0, 0), BuildingBlock: XUDNAN_clean_linker_2, # of connection points: 2
#     Edge 21, Type (0, 0), BuildingBlock: XUDNAN_clean_linker_2, # of connection points: 2
#     Edge 22, Type (0, 0), BuildingBlock: XUDNAN_clean_linker_2, # of connection points: 2
#     Edge 23, Type (0, 0), BuildingBlock: XUDNAN_clean_linker_2, # of connection points: 2
# Relax obj value: 0.188
# Max RMSD: 0.220
# Mean RMSD: 0.220
data_MOF--net-sml--node1-BETFAJ_clean_sbu_0--edge1-XUDNAN_clean_linker_2
_symmetry_space_group_name_H-M    P1
_symmetry_Int_Tables_number       1
_symmetry_cell_setting            triclinic
loop_
_symmetry_equiv_pos_as_xyz
'x, y, z'
_cell_length_a     31.697775
_cell_length_b     31.808706
_cell_length_c     24.941418
_cell_angle_alpha  90.198418
_cell_angle_beta   89.692305
_cell_angle_gamma 120.06083
loop_
_atom_site_label
_atom_site_type_symbol
_atom_site_fract_x
_atom_site_fract_y
_atom_site_fract_z
_atom_type_partial_charge
Sm0 Sm 0.22014 0.45334 0.11924 0.0
Sm1 Sm 0.23403 0.40156 0.21745 0.0
C2 C 0.2275 0.49457 0.02487 0.0
C3 C 0.23919 0.48787 0.96944 0.0
C4 C 0.26541 0.46399 0.9586 0.0
C5 C 0.27541 0.45702 0.90565 0.0
C6 C 0.25938 0.47385 0.86252 0.0
C7 C 0.23346 0.49813 0.8738 0.0
C8 C 0.22343 0.50499 0.92676 0.0
C9 C 0.13704 0.3923 0.17479 0.0
C10 C 0.22331 0.35134 0.10463 0.0
C11 C 0.23265 0.36182 0.31116 0.0
C12 C 0.24092 0.37575 0.36824 0.0
C13 C 0.22702 0.40762 0.39069 0.0
C14 C 0.23592 0.42065 0.44491 0.0
C15 C 0.25923 0.4024 0.47748 0.0
C16 C 0.27301 0.37052 0.45468 0.0
C17 C 0.26388 0.35733 0.40066 0.0
C18 C 0.3166 0.46303 0.1599 0.0
C19 C 0.22944 0.50271 0.23378 0.0
O20 O 0.26329 0.51047 0.0593 0.0
O21 O 0.1862 0.46002 0.04432 0.0
O22 O 0.17094 0.38402 0.16351 0.0
O23 O 0.14504 0.43336 0.15465 0.0
O24 O 0.23434 0.394 0.08402 0.0
O25 O 0.2123 0.34144 0.15583 0.0
O26 O 0.19371 0.35837 0.28887 0.0
O27 O 0.27104 0.38208 0.27993 0.0
O28 O 0.28281 0.47067 0.17331 0.0
O29 O 0.30835 0.42142 0.17824 0.0
O30 O 0.22305 0.46199 0.25531 0.0
O31 O 0.23585 0.51163 0.18189 0.0
H32 H 0.27788 0.45049 0.99105 0.0
H33 H 0.29496 0.43773 0.8985 0.0
H34 H 0.22124 0.51226 0.84171 0.0
H35 H 0.20329 0.52366 0.93441 0.0
H36 H 0.20956 0.42262 0.36632 0.0
H37 H 0.22529 0.44564 0.46111 0.0
H38 H 0.29042 0.35531 0.47877 0.0
H39 H 0.27486 0.33271 0.38411 0.0
Sm40 Sm 0.81203 0.25189 0.51263 0.0
Sm41 Sm 0.78716 0.18224 0.41489 0.0
C42 C 0.80695 0.28792 0.60674 0.0
C43 C 0.79909 0.26965 0.66215 0.0
C44 C 0.78008 0.2877 0.70096 0.0
C45 C 0.77053 0.26871 0.75308 0.0
C46 C 0.77967 0.23117 0.76704 0.0
C47 C 0.7992 0.21365 0.72797 0.0
C48 C 0.80863 0.23254 0.67606 0.0
C49 C 0.89087 0.26218 0.45755 0.0
C50 C 0.79293 0.13924 0.52726 0.0
C51 C 0.78004 0.14011 0.3209 0.0
C52 C 0.77345 0.1468 0.26342 0.0
C53 C 0.80865 0.18706 0.23424 0.0
C54 C 0.80303 0.19071 0.17907 0.0
C55 C 0.7621 0.15429 0.15189 0.0
C56 C 0.72634 0.11486 0.18165 0.0
C57 C 0.73211 0.11107 0.23662 0.0
C58 C 0.71114 0.18282 0.46801 0.0
C59 C 0.81486 0.29637 0.39565 0.0
O60 O 0.7695 0.26513 0.57478 0.0
O61 O 0.84818 0.29733 0.58411 0.0
O62 O 0.85303 0.22196 0.46768 0.0
O63 O 0.88982 0.29808 0.48149 0.0
O64 O 0.78952 0.17562 0.54892 0.0
O65 O 0.80031 0.13758 0.47552 0.0
O66 O 0.82171 0.1709 0.34297 0.0
O67 O 0.74267 0.12779 0.35272 0.0
O68 O 0.7509 0.21846 0.45465 0.0
O69 O 0.70909 0.14246 0.45401 0.0
O70 O 0.81328 0.25687 0.37621 0.0
O71 O 0.80881 0.30142 0.44746 0.0
H72 H 0.77203 0.31603 0.69077 0.0
H73 H 0.75512 0.2827 0.78211 0.0
H74 H 0.80774 0.18564 0.73769 0.0
H75 H 0.82334 0.21807 0.64674 0.0
H76 H 0.84099 0.21531 0.2537 0.0
H77 H 0.83155 0.22136 0.1575 0.0
H78 H 0.69388 0.0866 0.16241 0.0
H79 H 0.70441 0.07973 0.25812 0.0
Sm80 Sm 0.57032 0.74158 0.77124 0.0
Sm81 Sm 0.60839 0.80973 0.87088 0.0
C82 C 0.53642 0.69561 0.67912 0.0
C83 C 0.54089 0.70201 0.62072 0.0
C84 C 0.54804 0.74462 0.59583 0.0
C85 C 0.55202 0.74897 0.5399 0.0
C86 C 0.54912 0.71084 0.50824 0.0
C87 C 0.54257 0.66863 0.53376 0.0
C88 C 0.53833 0.66425 0.58935 0.0
C89 C 0.63213 0.7291 0.83714 0.0
C90 C 0.66007 0.85567 0.7578 0.0
C91 C 0.64151 0.84898 0.96613 0.0
C92 C 0.63765 0.83071 0.02099 0.0
C93 C 0.63064 0.78418 0.03025 0.0
C94 C 0.62361 0.76584 0.08233 0.0
C95 C 0.62166 0.79298 0.12601 0.0
C96 C 0.62953 0.84 0.11648 0.0
C97 C 0.63771 0.85873 0.06444 0.0
C98 C 0.54732 0.82416 0.80684 0.0
C99 C 0.51822 0.69569 0.88351 0.0
O100 O 0.51564 0.71593 0.70589 0.0
O101 O 0.57382 0.69792 0.70377 0.0
O102 O 0.63658 0.7692 0.82344 0.0
O103 O 0.59518 0.69349 0.81333 0.0
O104 O 0.62582 0.8156 0.73463 0.0
O105 O 0.66467 0.86128 0.81031 0.0
O106 O 0.66695 0.8392 0.93193 0.0
O107 O 0.60099 0.84328 0.94585 0.0
O108 O 0.54172 0.78291 0.81809 0.0
O109 O 0.58254 0.85849 0.8341 0.0
O110 O 0.55426 0.73444 0.90668 0.0
O111 O 0.51207 0.69205 0.83112 0.0
H112 H 0.55052 0.77435 0.61954 0.0
H113 H 0.55673 0.78184 0.52147 0.0
H114 H 0.54124 0.63902 0.51082 0.0
H115 H 0.53323 0.63126 0.60797 0.0
H116 H 0.62945 0.7616 0.99709 0.0
H117 H 0.61884 0.73004 0.08827 0.0
H118 H 0.62752 0.8617 0.14884 0.0
H119 H 0.64253 0.89455 0.05791 0.0
Sm120 Sm 0.722 0.57168 0.23895 0.0
Sm121 Sm 0.7817 0.61058 0.13187 0.0
C122 C 0.68587 0.5379 0.33523 0.0
C123 C 0.70132 0.53364 0.38941 0.0
C124 C 0.75009 0.56147 0.40564 0.0
C125 C 0.76306 0.55922 0.45874 0.0
C126 C 0.72745 0.52885 0.49624 0.0
C127 C 0.67894 0.50006 0.47905 0.0
C128 C 0.66607 0.50249 0.42618 0.0
C129 C 0.70539 0.63473 0.17968 0.0
C130 C 0.83748 0.65928 0.24359 0.0
C131 C 0.82426 0.65335 0.04099 0.0
C132 C 0.81976 0.6362 0.98505 0.0
C133 C 0.81201 0.66146 0.94385 0.0
C134 C 0.80322 0.64337 0.89139 0.0
C135 C 0.80208 0.59958 0.87898 0.0
C136 C 0.81078 0.57486 0.92029 0.0
C137 C 0.81926 0.5928 0.97276 0.0
C138 C 0.77685 0.52823 0.17377 0.0
C139 C 0.67092 0.52052 0.1268 0.0
O140 O 0.68978 0.51106 0.29767 0.0
O141 O 0.69819 0.58181 0.31914 0.0
O142 O 0.74579 0.63797 0.18846 0.0
O143 O 0.67074 0.59688 0.20352 0.0
O144 O 0.79938 0.62523 0.27016 0.0
O145 O 0.83781 0.66384 0.19096 0.0
O146 O 0.78586 0.65368 0.06025 0.0
O147 O 0.84435 0.63761 0.07551 0.0
O148 O 0.78158 0.56407 0.19986 0.0
O149 O 0.77779 0.53621 0.12264 0.0
O150 O 0.7042 0.56017 0.10249 0.0
O151 O 0.67326 0.51226 0.17836 0.0
H152 H 0.77786 0.58547 0.37756 0.0
H153 H 0.80082 0.58144 0.47053 0.0
H154 H 0.65047 0.4768 0.50693 0.0
H155 H 0.62826 0.48077 0.4143 0.0
H156 H 0.81154 0.69463 0.95255 0.0
H157 H 0.79586 0.663 0.86094 0.0
H158 H 0.81083 0.54142 0.91221 0.0
H159 H 0.82457 0.5722 1.00383 0.0
Sm160 Sm 0.25513 0.82951 0.46521 0.0
Sm161 Sm 0.18528 0.77737 0.56237 0.0
C162 C 0.29667 0.84924 0.369 0.0
C163 C 0.27803 0.84053 0.31372 0.0
C164 C 0.23018 0.80368 0.30275 0.0
C165 C 0.21189 0.79665 0.25064 0.0
C166 C 0.24109 0.82629 0.20836 0.0
C167 C 0.28931 0.8627 0.21938 0.0
C168 C 0.30754 0.86982 0.2717 0.0
C169 C 0.2481 0.89178 0.53475 0.0
C170 C 0.13502 0.7809 0.45276 0.0
C171 C 0.13967 0.74682 0.65581 0.0
C172 C 0.14637 0.75864 0.71325 0.0
C173 C 0.19029 0.79672 0.73337 0.0
C174 C 0.19582 0.80625 0.7886 0.0
C175 C 0.15747 0.77785 0.82442 0.0
C176 C 0.11369 0.73972 0.8037 0.0
C177 C 0.10825 0.7303 0.74871 0.0
C178 C 0.20201 0.71954 0.49319 0.0
C179 C 0.304 0.83302 0.57796 0.0
O180 O 0.28726 0.8106 0.39658 0.0
O181 O 0.29021 0.88047 0.39691 0.0
O182 O 0.21271 0.8503 0.52247 0.0
O183 O 0.28684 0.90298 0.50633 0.0
O184 O 0.17796 0.79623 0.42985 0.0
O185 O 0.12806 0.77408 0.50489 0.0
O186 O 0.13423 0.77664 0.62444 0.0
O187 O 0.16712 0.73112 0.63477 0.0
O188 O 0.23259 0.76086 0.50993 0.0
O189 O 0.15951 0.70549 0.5144 0.0
O190 O 0.26162 0.82267 0.59945 0.0
O191 O 0.30998 0.83097 0.52568 0.0
H192 H 0.20682 0.78041 0.33451 0.0
H193 H 0.17487 0.76782 0.24344 0.0
H194 H 0.31258 0.88641 0.18783 0.0
H195 H 0.34451 0.89854 0.27945 0.0
H196 H 0.22022 0.8189 0.70648 0.0
H197 H 0.22984 0.8361 0.80318 0.0
H198 H 0.08375 0.71657 0.83011 0.0
H199 H 0.07425 0.70052 0.73387 0.0
Sm200 Sm 0.46695 0.21607 0.85765 0.0
Sm201 Sm 0.42329 0.24319 0.75855 0.0
C202 C 0.51602 0.21968 0.94472 0.0
C203 C 0.50803 0.21634 1.00364 0.0
C204 C 0.50563 0.25329 0.03241 0.0
C205 C 0.49943 0.25029 0.08816 0.0
C206 C 0.4955 0.21033 0.1166 0.0
C207 C 0.49753 0.17329 0.08765 0.0
C208 C 0.50391 0.17637 0.03194 0.0
C209 C 0.39311 0.13974 0.80392 0.0
C210 C 0.36401 0.21565 0.86985 0.0
C211 C 0.39368 0.24963 0.66149 0.0
C212 C 0.40674 0.24258 0.60653 0.0
C213 C 0.37177 0.22569 0.56566 0.0
C214 C 0.38383 0.21796 0.51377 0.0
C215 C 0.43113 0.22693 0.50187 0.0
C216 C 0.46603 0.24406 0.54305 0.0
C217 C 0.45395 0.25174 0.59469 0.0
C218 C 0.46977 0.31419 0.83417 0.0
C219 C 0.52402 0.23687 0.74331 0.0
O220 O 0.52025 0.25828 0.92095 0.0
O221 O 0.49106 0.17984 0.91652 0.0
O222 O 0.42722 0.1776 0.78309 0.0
O223 O 0.39849 0.1393 0.85562 0.0
O224 O 0.40455 0.22395 0.89406 0.0
O225 O 0.35899 0.21328 0.81714 0.0
O226 O 0.37083 0.21044 0.69112 0.0
O227 O 0.42732 0.28711 0.68788 0.0
O228 O 0.48322 0.2855 0.81693 0.0
O229 O 0.43088 0.30764 0.80946 0.0
O230 O 0.49326 0.24967 0.72446 0.0
O231 O 0.521 0.22016 0.79253 0.0
H232 H 0.50896 0.28485 1.01205 0.0
H233 H 0.49875 0.27984 0.10907 0.0
H234 H 0.49396 0.14164 0.108 0.0
H235 H 0.50577 0.14747 1.01095 0.0
H236 H 0.33503 0.21807 0.57399 0.0
H237 H 0.35589 0.20423 0.48323 0.0
H238 H 0.50301 0.25214 0.5353 0.0
H239 H 0.4817 0.26506 0.62529 0.0
H240 H 0.33183 0.27896 0.85935 0.0
H241 H 0.31735 0.1601 0.95681 0.0
H242 H 0.26593 0.17395 0.0215 0.0
H243 H 0.35405 0.35404 0.96616 0.0
H244 H 0.3244 0.3855 0.9407 0.0
H245 H 0.34874 0.35926 0.89487 0.0
H246 H 0.26457 0.3088 0.84962 0.0
H247 H 0.23978 0.33563 0.8944 0.0
H248 H 0.21174 0.27047 0.89002 0.0
H249 H 0.22658 0.20762 0.08078 0.0
H250 H 0.20697 0.26132 0.13355 0.0
H251 H 0.25233 0.36196 0.99975 0.0
C252 C 0.31574 0.25451 0.89305 0.0
C253 C 0.32666 0.21743 0.90265 0.0
C254 C 0.30795 0.18782 0.94857 0.0
C255 C 0.27878 0.19543 0.98526 0.0
C256 C 0.2697 0.23335 0.97562 0.0
C257 C 0.28791 0.26265 0.93074 0.0
C258 C 0.28058 0.30607 0.93438 0.0
C259 C 0.32984 0.35401 0.93401 0.0
C260 C 0.24715 0.30515 0.88943 0.0
C261 C 0.2559 0.29692 0.98853 0.0
C262 C 0.24923 0.25444 1.01128 0.0
C263 C 0.23084 0.24053 0.06304 0.0
C264 C 0.21992 0.27136 0.09274 0.0
C265 C 0.228 0.31581 0.07073 0.0
C266 C 0.24514 0.32798 0.01751 0.0
H267 H 0.0789 0.41826 0.22916 0.0
H268 H 0.10593 0.2988 0.20424 0.0
H269 H 0.04154 0.24946 0.27044 0.0
H270 H 0.06476 0.40501 0.36819 0.0
H271 H 0.01801 0.4214 0.37256 0.0
H272 H 0.0617 0.44447 0.31862 0.0
H273 H 0.9913 0.40886 0.24935 0.0
H274 H 0.94749 0.38574 0.30335 0.0
H275 H 0.94621 0.34515 0.25198 0.0
H276 H 0.97523 0.21411 0.34159 0.0
H277 H 0.91703 0.1984 0.41636 0.0
H278 H 0.93904 0.34353 0.39768 0.0
C279 C 0.07048 0.38135 0.23685 0.0
C280 C 0.09668 0.36192 0.21137 0.0
C281 C 0.08579 0.31403 0.2233 0.0
C282 C 0.04926 0.28576 0.26063 0.0
C283 C 0.02436 0.30616 0.2857 0.0
C284 C 0.03465 0.35295 0.27442 0.0
C285 C 0.00567 0.36792 0.30993 0.0
C286 C 0.03954 0.4123 0.34439 0.0
C287 C 0.97059 0.37746 0.27665 0.0
C288 C 0.97822 0.32269 0.34363 0.0
C289 C 0.98857 0.287 0.32848 0.0
C290 C 0.96696 0.24185 0.35391 0.0
C291 C 0.93417 0.23325 0.39623 0.0
C292 C 0.92447 0.27005 0.41302 0.0
C293 C 0.94657 0.31506 0.38616 0.0
H294 H 0.76264 0.11854 0.63311 0.0
H295 H 0.80667 0.06503 0.49559 0.0
H296 H 0.78604 0.99051 0.54463 0.0
H297 H 0.80528 0.06162 0.73747 0.0
H298 H 0.75447 0.04876 0.78077 0.0
H299 H 0.77978 0.10102 0.73738 0.0
H300 H 0.69367 0.0702 0.6976 0.0
H301 H 0.66889 0.01728 0.73974 0.0
H302 H 0.66155 0.01042 0.66805 0.0
H303 H 0.74927 0.91734 0.60086 0.0
H304 H 0.70297 0.85099 0.66551 0.0
H305 H 0.68654 0.95111 0.76999 0.0
C306 C 0.76911 0.09169 0.61391 0.0
C307 C 0.78613 0.09773 0.56035 0.0
C308 C 0.79349 0.06137 0.53642 0.0
C309 C 0.78209 0.01884 0.56403 0.0
C310 C 0.76403 0.01327 0.61598 0.0
C311 C 0.75825 0.04886 0.64122 0.0
C312 C 0.73514 0.03191 0.69617 0.0
C313 C 0.7708 0.06264 0.7406 0.0
C314 C 0.68695 0.03247 0.7006 0.0
C315 C 0.72666 0.98053 0.69637 0.0
C316 C 0.74412 0.97085 0.64984 0.0
C317 C 0.73662 0.92472 0.63818 0.0
C318 C 0.71025 0.8873 0.67492 0.0
C319 C 0.69237 0.89646 0.72292 0.0
C320 C 0.70133 0.94377 0.73423 0.0
H321 H 0.59319 0.64936 0.90167 0.0
H322 H 0.71729 0.79474 0.88418 0.0
H323 H 0.74774 0.78741 0.97285 0.0
H324 H 0.57116 0.65753 0.03675 0.0
H325 H 0.55579 0.59681 0.0555 0.0
H326 H 0.54516 0.60934 0.98815 0.0
H327 H 0.59706 0.57548 0.94782 0.0
H328 H 0.60608 0.55968 1.01435 0.0
H329 H 0.65794 0.59707 0.97231 0.0
H330 H 0.76368 0.76488 0.0628 0.0
H331 H 0.76704 0.72659 0.14752 0.0
H332 H 0.62974 0.59789 0.10884 0.0
C333 C 0.6273 0.67923 0.91608 0.0
C334 C 0.65323 0.72262 0.88642 0.0
C335 C 0.69718 0.76128 0.90666 0.0
C336 C 0.71462 0.75742 0.95679 0.0
C337 C 0.68736 0.71475 0.98592 0.0
C338 C 0.64489 0.67613 0.9662 0.0
C339 C 0.62184 0.63484 1.00619 0.0
C340 C 0.5705 0.62405 0.02267 0.0
C341 C 0.62069 0.58909 0.98384 0.0
C342 C 0.65766 0.65669 0.0519 0.0
C343 C 0.69532 0.70265 0.03912 0.0
C344 C 0.73431 0.72911 0.07351 0.0
C345 C 0.73579 0.70728 0.1215 0.0
C346 C 0.69827 0.65989 0.13465 0.0
C347 C 0.65813 0.63474 0.10016 0.0
H348 H 0.03694 0.71837 0.46878 0.0
H349 H 0.14149 0.82492 0.35772 0.0
H350 H 0.07464 0.81161 0.29751 0.0
H351 H 0.96299 0.63574 0.36846 0.0
H352 H 0.90605 0.61622 0.40298 0.0
H353 H 0.9614 0.63789 0.44065 0.0
H354 H 0.94571 0.70196 0.48686 0.0
H355 H 0.89041 0.6805 0.44891 0.0
H356 H 0.93688 0.74373 0.44632 0.0
H357 H 0.99866 0.78476 0.24738 0.0
H358 H 0.91792 0.74004 0.20535 0.0
H359 H 0.86155 0.64802 0.34631 0.0
C360 C 0.0455 0.73942 0.43222 0.0
C361 C 0.09423 0.77301 0.41807 0.0
C362 C 0.10435 0.79906 0.36932 0.0
C363 C 0.06664 0.79204 0.33505 0.0
C364 C 0.01903 0.7586 0.34991 0.0
C365 C 0.0082 0.73226 0.39697 0.0
C366 C 0.95423 0.69526 0.4006 0.0
C367 C 0.94569 0.64321 0.4033 0.0
C368 C 0.93041 0.70603 0.44852 0.0
C369 C 0.93681 0.70458 0.34785 0.0
C370 C 0.97474 0.74183 0.31981 0.0
C371 C 0.96849 0.75574 0.26901 0.0
C372 C 0.92245 0.73002 0.24547 0.0
C373 C 0.88333 0.69052 0.27253 0.0
C374 C 0.89047 0.67845 0.32492 0.0
H375 H 0.38917 0.13356 0.69587 0.0
H376 H 0.31617 0.05336 0.83969 0.0
H377 H 0.26 0.98271 0.7837 0.0
H378 H 0.28118 0.08236 0.60698 0.0
H379 H 0.31662 0.08166 0.55054 0.0
H380 H 0.34493 0.12732 0.60185 0.0
H381 H 0.41016 0.10226 0.61571 0.0
H382 H 0.38217 0.0565 0.56482 0.0
H383 H 0.39107 0.03985 0.63105 0.0
H384 H 0.21847 0.91795 0.71141 0.0
H385 H 0.19996 0.86503 0.63157 0.0
H386 H 0.30197 0.98899 0.53758 0.0
C387 C 0.36052 0.10164 0.71563 0.0
C388 C 0.35654 0.09885 0.77192 0.0
C389 C 0.31945 0.05611 0.79643 0.0
C390 C 0.28733 0.01603 0.76496 0.0
C391 C 0.29281 0.01972 0.70928 0.0
C392 C 0.3286 0.06164 0.68501 0.0
C393 C 0.33098 0.05526 0.62532 0.0
C394 C 0.31758 0.0886 0.59433 0.0
C395 C 0.38156 0.06394 0.60829 0.0
C396 C 0.29211 0.00257 0.61973 0.0
C397 C 0.26962 0.98273 0.66821 0.0
C398 C 0.23513 0.93342 0.6731 0.0
C399 C 0.22453 0.90359 0.6276 0.0
C400 C 0.24913 0.92318 0.57864 0.0
C401 C 0.28217 0.97336 0.57451 0.0
H402 H 0.19823 0.4494 0.77565 0.0
H403 H 0.34298 0.48012 0.8213 0.0
H404 H 0.35896 0.46598 0.72786 0.0
H405 H 0.1737 0.35484 0.68205 0.0
H406 H 0.14199 0.37244 0.63556 0.0
H407 H 0.14208 0.38517 0.70597 0.0
H408 H 0.17711 0.47643 0.68469 0.0
H409 H 0.17715 0.464 0.61418 0.0
H410 H 0.23265 0.50848 0.64622 0.0
H411 H 0.35888 0.44785 0.62932 0.0
H412 H 0.34273 0.42699 0.53328 0.0
H413 H 0.19854 0.4094 0.55182 0.0
C414 C 0.23355 0.45375 0.766 0.0
C415 C 0.26933 0.46587 0.80604 0.0
C416 C 0.3147 0.47024 0.79164 0.0
C417 C 0.32426 0.46261 0.73855 0.0
C418 C 0.28817 0.45075 0.7002 0.0
C419 C 0.24375 0.44641 0.71324 0.0
C420 C 0.21098 0.43289 0.6646 0.0
C421 C 0.16444 0.38339 0.67254 0.0
C422 C 0.19877 0.47284 0.65167 0.0
C423 C 0.24386 0.43018 0.62212 0.0
C424 C 0.28822 0.44059 0.64347 0.0
C425 C 0.32427 0.43964 0.61219 0.0
C426 C 0.31466 0.4275 0.55774 0.0
C427 C 0.26935 0.41648 0.53497 0.0
C428 C 0.23372 0.41819 0.5678 0.0
H429 H 0.78744 0.23451 0.08795 0.0
H430 H 0.72762 0.07831 0.08083 0.0
H431 H 0.72127 0.0807 0.98269 0.0
H432 H 0.71542 0.24277 0.9799 0.0
H433 H 0.76482 0.299 0.95432 0.0
H434 H 0.76206 0.28495 0.02463 0.0
H435 H 0.84881 0.29629 0.01921 0.0
H436 H 0.85191 0.31053 0.94899 0.0
H437 H 0.86154 0.26197 0.9706 0.0
H438 H 0.72388 0.0999 0.88508 0.0
H439 H 0.73695 0.13517 0.7944 0.0
H440 H 0.79818 0.27927 0.86381 0.0
C441 C 0.77303 0.20078 0.06584 0.0
C442 C 0.75758 0.15613 0.09253 0.0
C443 C 0.73869 0.11285 0.06177 0.0
C444 C 0.73519 0.11384 1.00583 0.0
C445 C 0.7508 0.15837 0.98094 0.0
C446 C 0.76942 0.20109 1.00984 0.0
C447 C 0.78519 0.2443 0.97294 0.0
C448 C 0.75506 0.26921 0.98359 0.0
C449 C 0.84012 0.28039 0.97825 0.0
C450 C 0.77312 0.2192 0.91878 0.0
C451 C 0.75301 0.16959 0.9244 0.0
C452 C 0.73966 0.13872 0.88018 0.0
C453 C 0.74755 0.15913 0.82881 0.0
C454 C 0.76896 0.21001 0.82192 0.0
C455 C 0.78132 0.24023 0.86771 0.0
H456 H 0.61058 0.79049 0.44685 0.0
H457 H 0.49593 0.63953 0.43508 0.0
H458 H 0.505 0.64348 0.3368 0.0
H459 H 0.57494 0.83125 0.32916 0.0
H460 H 0.63675 0.87384 0.30952 0.0
H461 H 0.62189 0.85896 0.37925 0.0
H462 H 0.68789 0.83386 0.38551 0.0
H463 H 0.70268 0.84827 0.31568 0.0
H464 H 0.68572 0.78857 0.34013 0.0
H465 H 0.52693 0.66292 0.24046 0.0
H466 H 0.55598 0.69848 0.15121 0.0
H467 H 0.65522 0.83754 0.22439 0.0
C468 C 0.58701 0.75842 0.42361 0.0
C469 C 0.55289 0.71453 0.44884 0.0
C470 C 0.52304 0.67328 0.41684 0.0
C471 C 0.52775 0.67518 0.36094 0.0
C472 C 0.56224 0.71869 0.3375 0.0
C473 C 0.59105 0.75972 0.36763 0.0
C474 C 0.62466 0.80212 0.33211 0.0
C475 C 0.6139 0.84401 0.33786 0.0
C476 C 0.67842 0.81919 0.34408 0.0
C477 C 0.61005 0.77845 0.27737 0.0
C478 C 0.57426 0.73023 0.28153 0.0
C479 C 0.55489 0.70069 0.23665 0.0
C480 C 0.57187 0.72123 0.18601 0.0
C481 C 0.60763 0.77097 0.18039 0.0
C482 C 0.62734 0.79962 0.22703 0.0
H483 H 0.83005 0.64853 0.78244 0.0
H484 H 0.74595 0.50373 0.85006 0.0
H485 H 0.72405 0.46942 0.75904 0.0
H486 H 0.74583 0.63141 0.68018 0.0
H487 H 0.79166 0.66736 0.631 0.0
H488 H 0.80446 0.68009 0.70127 0.0
H489 H 0.88056 0.67038 0.69091 0.0
H490 H 0.86776 0.6573 0.62058 0.0
H491 H 0.87391 0.61499 0.66312 0.0
H492 H 0.70752 0.45101 0.66094 0.0
H493 H 0.69487 0.45034 0.56329 0.0
H494 H 0.78688 0.60725 0.55956 0.0
C495 C 0.80711 0.60958 0.77823 0.0
C496 C 0.79017 0.57889 0.82372 0.0
C497 C 0.76036 0.52805 0.81608 0.0
C498 C 0.74751 0.50816 0.76443 0.0
C499 C 0.76469 0.53948 0.72063 0.0
C500 C 0.79375 0.58911 0.72695 0.0
C501 C 0.80512 0.61498 0.67336 0.0
C502 C 0.78558 0.65054 0.67135 0.0
C503 C 0.86011 0.64094 0.6613 0.0
C504 C 0.77709 0.57221 0.63603 0.0
C505 C 0.7545 0.52894 0.66406 0.0
C506 C 0.72518 0.48466 0.63856 0.0
C507 C 0.71803 0.48468 0.58311 0.0
C508 C 0.73979 0.52873 0.5537 0.0
C509 C 0.77038 0.5729 0.58064 0.0
H510 H 0.23696 0.80067 0.88834 0.0
H511 H 0.08944 0.77637 0.89368 0.0
H512 H 0.0954 0.78714 0.9918 0.0
H513 H 0.23014 0.73815 1.00887 0.0
H514 H 0.29157 0.78026 0.02969 0.0
H515 H 0.27658 0.77222 0.95948 0.0
H516 H 0.30958 0.86462 0.94974 0.0
H517 H 0.32486 0.87298 0.01993 0.0
H518 H 0.28597 0.89379 0.99271 0.0
H519 H 0.116 0.79787 0.08933 0.0
H520 H 0.15081 0.80994 0.18007 0.0
H521 H 0.28533 0.82803 0.11218 0.0
C522 C 0.20618 0.79835 0.91003 0.0
C523 C 0.16261 0.78743 0.88319 0.0
C524 C 0.12293 0.78399 0.91331 0.0
C525 C 0.12605 0.79033 0.96907 0.0
C526 C 0.16919 0.80036 0.99429 0.0
C527 C 0.20867 0.80463 0.96583 0.0
C528 C 0.25047 0.81483 1.00302 0.0
C529 C 0.2629 0.77392 1.00008 0.0
C530 C 0.29538 0.86451 0.9906 0.0
C531 C 0.22812 0.81525 0.05679 0.0
C532 C 0.18121 0.80684 0.05075 0.0
C533 C 0.15275 0.8046 0.09458 0.0
C534 C 0.17273 0.81117 0.14601 0.0
C535 C 0.22076 0.81983 0.15335 0.0
C536 C 0.24874 0.82204 0.10791 0.0
H537 H 0.40454 0.24753 0.40445 0.0
H538 H 0.48778 0.18726 0.47479 0.0
H539 H 0.51278 0.1763 0.38443 0.0
H540 H 0.36138 0.16691 0.28883 0.0
H541 H 0.36592 0.21338 0.24406 0.0
H542 H 0.35403 0.21597 0.31435 0.0
H543 H 0.42916 0.30263 0.31989 0.0
H544 H 0.44144 0.3002 0.24971 0.0
H545 H 0.48797 0.31274 0.29861 0.0
H546 H 0.53031 0.17343 0.28662 0.0
H547 H 0.53839 0.17794 0.18815 0.0
H548 H 0.4416 0.23748 0.18057 0.0
C549 C 0.42751 0.23145 0.40088 0.0
C550 C 0.44433 0.21849 0.44696 0.0
C551 C 0.47497 0.1982 0.44031 0.0
C552 C 0.48917 0.19155 0.38908 0.0
C553 C 0.47233 0.20514 0.34465 0.0
C554 C 0.44204 0.22449 0.34994 0.0
C555 C 0.42957 0.23655 0.29558 0.0
C556 C 0.37445 0.2064 0.28509 0.0
C557 C 0.44816 0.29128 0.29068 0.0
C558 C 0.45777 0.22114 0.25896 0.0
C559 C 0.48213 0.20308 0.28812 0.0
C560 C 0.51107 0.18713 0.26332 0.0
C561 C 0.51517 0.18956 0.20723 0.0
C562 C 0.4904 0.20773 0.17624 0.0
C563 C 0.46136 0.22373 0.20286 0.0
H564 H 0.1589 0.50019 0.29916 0.0
H565 H 0.30918 0.59051 0.24861 0.0
H566 H 0.31881 0.65434 0.31267 0.0
H567 H 0.13389 0.5997 0.3105 0.0
H568 H 0.09391 0.57381 0.36751 0.0
H569 H 0.09979 0.53477 0.31929 0.0
H570 H 0.12413 0.49565 0.39616 0.0
H571 H 0.11784 0.53487 0.44379 0.0
H572 H 0.1743 0.53424 0.43917 0.0
H573 H 0.31385 0.70461 0.38584 0.0
H574 H 0.29176 0.74612 0.45427 0.0
H575 H 0.14136 0.62892 0.44974 0.0
C576 C 0.19366 0.53357 0.30181 0.0
C577 C 0.23355 0.54093 0.26971 0.0
C578 C 0.27845 0.58479 0.27319 0.0
C579 C 0.28424 0.62091 0.3095 0.0
C580 C 0.24436 0.6127 0.34095 0.0
C581 C 0.19963 0.57066 0.33679 0.0
C582 C 0.16214 0.57244 0.37332 0.0
C583 C 0.11994 0.57004 0.3407 0.0
C584 C 0.1435 0.53189 0.41561 0.0
C585 C 0.19289 0.62199 0.39873 0.0
C586 C 0.24041 0.64394 0.38016 0.0
C587 C 0.27651 0.68847 0.39966 0.0
C588 C 0.26349 0.7119 0.43822 0.0
C589 C 0.21451 0.69166 0.45552 0.0
C590 C 0.17886 0.64569 0.43621 0.0
H591 H 0.66089 0.13386 0.55979 0.0
H592 H 0.68652 0.25005 0.45019 0.0
H593 H 0.64627 0.27866 0.51284 0.0
H594 H 0.53974 0.1113 0.60864 0.0
H595 H 0.55069 0.0997 0.67637 0.0
H596 H 0.5783 0.08572 0.62097 0.0
H597 H 0.66316 0.13931 0.66408 0.0
H598 H 0.63599 0.15466 0.71882 0.0
H599 H 0.68336 0.20202 0.67889 0.0
H600 H 0.61209 0.30015 0.58783 0.0
H601 H 0.56837 0.30471 0.66703 0.0
H602 H 0.55995 0.17378 0.73068 0.0
C603 C 0.65614 0.16405 0.54842 0.0
C604 C 0.67597 0.18946 0.49997 0.0
C605 C 0.6709 0.22991 0.48691 0.0
C606 C 0.6486 0.24673 0.52242 0.0
C607 C 0.63151 0.22264 0.57093 0.0
C608 C 0.63368 0.18152 0.58379 0.0
C609 C 0.61229 0.16332 0.63932 0.0
C610 C 0.56759 0.11196 0.63612 0.0
C611 C 0.651 0.16491 0.67753 0.0
C612 C 0.5979 0.20072 0.65512 0.0
C613 C 0.61035 0.2349 0.61506 0.0
C614 C 0.60156 0.27338 0.61934 0.0
C615 C 0.57691 0.27575 0.6646 0.0
C616 C 0.56061 0.23951 0.70472 0.0
C617 C 0.5726 0.20229 0.70089 0.0
H618 H 0.36579 0.56029 0.14488 0.0
H619 H 0.34128 0.42503 0.07485 0.0
H620 H 0.38896 0.46969 0.9945 0.0
H621 H 0.35848 0.61664 0.02667 0.0
H622 H 0.40705 0.67648 0.04424 0.0
H623 H 0.37162 0.63393 0.09614 0.0
H624 H 0.45041 0.6433 0.13825 0.0
H625 H 0.48645 0.686 0.08668 0.0
H626 H 0.49116 0.63248 0.09751 0.0
H627 H 0.43322 0.52928 0.91864 0.0
H628 H 0.48171 0.6 0.85941 0.0
H629 H 0.48378 0.69659 0.98372 0.0
C630 C 0.37124 0.54032 0.11291 0.0
C631 C 0.3503 0.48952 0.11573 0.0
C632 C 0.35776 0.46419 0.07342 0.0
C633 C 0.38437 0.48917 0.02758 0.0
C634 C 0.40396 0.53942 0.02557 0.0
C635 C 0.3987 0.56478 0.06772 0.0
C636 C 0.42449 0.61874 0.05655 0.0
C637 C 0.38824 0.63753 0.05585 0.0
C638 C 0.46555 0.64679 0.09717 0.0
C639 C 0.44469 0.61992 1.00121 0.0
C640 C 0.43174 0.57375 0.98354 0.0
C641 C 0.44413 0.56562 0.93239 0.0
C642 C 0.47129 0.60587 0.89895 0.0
C643 C 0.48639 0.65351 0.91725 0.0
C644 C 0.47292 0.6605 0.96901 0.0
H645 H 0.79954 0.37379 0.41173 0.0
H646 H 0.83859 0.30096 0.28998 0.0
H647 H 0.83357 0.35277 0.22065 0.0
H648 H 0.71361 0.38638 0.33633 0.0
H649 H 0.73041 0.44641 0.35987 0.0
H650 H 0.74045 0.40627 0.40171 0.0
H651 H 0.83207 0.47097 0.40918 0.0
H652 H 0.82188 0.51145 0.36801 0.0
H653 H 0.86755 0.49621 0.34897 0.0
H654 H 0.81563 0.40526 0.16303 0.0
H655 H 0.79689 0.46458 0.12178 0.0
H656 H 0.77391 0.50697 0.28001 0.0
C657 C 0.80802 0.36948 0.37068 0.0
C658 C 0.81891 0.33291 0.35635 0.0
C659 C 0.82957 0.32828 0.30205 0.0
C660 C 0.82687 0.35758 0.2622 0.0
C661 C 0.81415 0.39188 0.27723 0.0
C662 C 0.80592 0.39886 0.33019 0.0
C663 C 0.79227 0.43812 0.33499 0.0
C664 C 0.74115 0.41806 0.35967 0.0
C665 C 0.83075 0.48178 0.36717 0.0
C666 C 0.79297 0.45094 0.27639 0.0
C667 C 0.80547 0.42366 0.2438 0.0
C668 C 0.80652 0.42745 0.18808 0.0
C669 C 0.79552 0.4609 0.16501 0.0
C670 C 0.78414 0.49023 0.19777 0.0
C671 C 0.78259 0.48494 0.25408 0.0
H672 H 0.37442 0.80797 0.56739 0.0
H673 H 0.32231 0.88138 0.67244 0.0
H674 H 0.38259 0.89083 0.74069 0.0
H675 H 0.38734 0.73863 0.66659 0.0
H676 H 0.44194 0.74214 0.63973 0.0
H677 H 0.39994 0.74718 0.59564 0.0
H678 H 0.46931 0.8299 0.56096 0.0
H679 H 0.51172 0.82503 0.60466 0.0
H680 H 0.50469 0.87776 0.60813 0.0
H681 H 0.44436 0.8882 0.79914 0.0
H682 H 0.50347 0.87199 0.84565 0.0
H683 H 0.51206 0.7957 0.70555 0.0
C684 C 0.37685 0.82729 0.60414 0.0
C685 C 0.34442 0.84457 0.61466 0.0
C686 C 0.34726 0.86826 0.66375 0.0
C687 C 0.38133 0.87382 0.70262 0.0
C688 C 0.41188 0.85511 0.69181 0.0
C689 C 0.41011 0.83237 0.64383 0.0
C690 C 0.44443 0.81215 0.64422 0.0
C691 C 0.41673 0.75674 0.63608 0.0
C692 C 0.48494 0.83774 0.602 0.0
C693 C 0.46446 0.82572 0.70052 0.0
C694 C 0.44591 0.85135 0.72679 0.0
C695 C 0.45915 0.86817 0.77906 0.0
C696 C 0.49245 0.85868 0.80515 0.0
C697 C 0.51105 0.83173 0.77931 0.0
C698 C 0.49705 0.81512 0.72643 0.0
H699 H 0.68131 0.47989 0.03659 0.0
H700 H 0.57261 0.48165 0.14096 0.0
H701 H 0.50772 0.4289 0.07648 0.0
H702 H 0.63103 0.48426 0.91344 0.0
H703 H 0.64576 0.44319 0.87927 0.0
H704 H 0.68264 0.47923 0.93446 0.0
H705 H 0.66811 0.40133 0.98368 0.0
H706 H 0.63164 0.36497 0.92836 0.0
H707 H 0.60661 0.35273 0.99528 0.0
H708 H 0.45638 0.38184 0.99536 0.0
H709 H 0.42164 0.33558 0.91124 0.0
H710 H 0.56429 0.36042 0.86501 0.0
C711 C 0.64366 0.46837 0.04616 0.0
C712 C 0.63144 0.48418 0.09347 0.0
C713 C 0.58217 0.46903 0.10502 0.0
C714 C 0.54536 0.43951 0.06852 0.0
C715 C 0.55873 0.42504 0.02151 0.0
C716 C 0.60666 0.43819 1.01097 0.0
C717 C 0.6118 0.41766 0.95821 0.0
C718 C 0.64474 0.45851 0.91905 0.0
C719 C 0.63064 0.38205 0.96693 0.0
C720 C 0.55937 0.39147 0.94 0.0
C721 C 0.52924 0.3965 0.97661 0.0
C722 C 0.47957 0.37715 0.96688 0.0
C723 C 0.46022 0.35129 0.91896 0.0
C724 C 0.49043 0.34446 0.88221 0.0
C725 C 0.54049 0.36491 0.89287 0.0
loop_
_geom_bond_atom_site_label_1
_geom_bond_atom_site_label_2
_geom_bond_distance
_geom_bond_site_symmetry_2
_ccdc_geom_bond_type
Sm0 C2 2.846 . S
Sm0 O20 2.543 . S
Sm0 O21 2.450 . S
Sm0 O22 2.681 . S
Sm0 O23 2.464 . S
Sm0 O24 2.396 . S
Sm0 O28 2.386 . S
Sm0 O31 2.408 . S
Sm1 C11 2.846 . S
Sm1 O22 2.386 . S
Sm1 O25 2.408 . S
Sm1 O26 2.543 . S
Sm1 O27 2.450 . S
Sm1 O28 2.681 . S
Sm1 O29 2.464 . S
Sm1 O30 2.396 . S
C2 Sm0 2.846 . S
C2 C3 1.506 . S
C2 O20 1.261 . S
C2 O21 1.242 . S
C3 C2 1.506 . S
C3 C4 1.358 1_554 S
C3 C8 1.382 1_554 S
C4 C3 1.358 1_556 S
C4 C5 1.385 . S
C4 H32 0.930 . S
C5 C4 1.385 . S
C5 C6 1.395 . S
C5 H33 0.929 . S
C6 C5 1.395 . S
C6 C7 1.335 . S
C7 C6 1.335 . S
C7 C8 1.398 . S
C7 H34 0.930 . S
C8 C3 1.382 1_556 S
C8 C7 1.398 . S
C8 H35 0.921 1_556 S
C9 O22 1.271 . S
C9 O23 1.251 . S
C10 O24 1.252 . S
C10 O25 1.272 . S
C11 Sm1 2.846 . S
C11 C12 1.506 . S
C11 O26 1.261 . S
C11 O27 1.242 . S
C12 C11 1.506 . S
C12 C13 1.358 . S
C12 C17 1.382 . S
C13 C12 1.358 . S
C13 C14 1.385 . S
C13 H36 0.930 . S
C14 C13 1.385 . S
C14 C15 1.395 . S
C14 H37 0.929 . S
C15 C14 1.395 . S
C15 C16 1.335 . S
C16 C15 1.335 . S
C16 C17 1.398 . S
C16 H38 0.930 . S
C17 C12 1.382 . S
C17 C16 1.398 . S
C17 H39 0.929 . S
C18 O28 1.271 . S
C18 O29 1.251 . S
C19 O30 1.252 . S
C19 O31 1.272 . S
O20 Sm0 2.543 . S
O20 C2 1.261 . S
O21 Sm0 2.450 . S
O21 C2 1.242 . S
O22 Sm0 2.681 . S
O22 Sm1 2.386 . S
O22 C9 1.271 . S
O23 Sm0 2.464 . S
O23 C9 1.251 . S
O24 Sm0 2.396 . S
O24 C10 1.252 . S
O25 Sm1 2.408 . S
O25 C10 1.272 . S
O26 Sm1 2.543 . S
O26 C11 1.261 . S
O27 Sm1 2.450 . S
O27 C11 1.242 . S
O28 Sm0 2.386 . S
O28 Sm1 2.681 . S
O28 C18 1.271 . S
O29 Sm1 2.464 . S
O29 C18 1.251 . S
O30 Sm1 2.396 . S
O30 C19 1.252 . S
O31 Sm0 2.408 . S
O31 C19 1.272 . S
H32 C4 0.930 . S
H33 C5 0.929 . S
H34 C7 0.930 . S
H35 C8 0.921 1_554 S
H36 C13 0.930 . S
H37 C14 0.929 . S
H38 C16 0.930 . S
H39 C17 0.929 . S
Sm40 C42 2.846 . S
Sm40 O60 2.543 . S
Sm40 O61 2.450 . S
Sm40 O62 2.681 . S
Sm40 O63 2.464 . S
Sm40 O64 2.396 . S
Sm40 O68 2.386 . S
Sm40 O71 2.408 . S
Sm41 C51 2.846 . S
Sm41 O62 2.386 . S
Sm41 O65 2.408 . S
Sm41 O66 2.543 . S
Sm41 O67 2.450 . S
Sm41 O68 2.681 . S
Sm41 O69 2.464 . S
Sm41 O70 2.396 . S
C42 Sm40 2.846 . S
C42 C43 1.506 . S
C42 O60 1.261 . S
C42 O61 1.242 . S
C43 C42 1.506 . S
C43 C44 1.358 . S
C43 C48 1.382 . S
C44 C43 1.358 . S
C44 C45 1.385 . S
C44 H72 0.930 . S
C45 C44 1.385 . S
C45 C46 1.395 . S
C45 H73 0.929 . S
C46 C45 1.395 . S
C46 C47 1.335 . S
C47 C46 1.335 . S
C47 C48 1.398 . S
C47 H74 0.930 . S
C48 C43 1.382 . S
C48 C47 1.398 . S
C48 H75 0.929 . S
C49 O62 1.271 . S
C49 O63 1.251 . S
C50 O64 1.252 . S
C50 O65 1.272 . S
C51 Sm41 2.846 . S
C51 C52 1.506 . S
C51 O66 1.261 . S
C51 O67 1.242 . S
C52 C51 1.506 . S
C52 C53 1.358 . S
C52 C57 1.382 . S
C53 C52 1.358 . S
C53 C54 1.385 . S
C53 H76 0.930 . S
C54 C53 1.385 . S
C54 C55 1.395 . S
C54 H77 0.929 . S
C55 C54 1.395 . S
C55 C56 1.335 . S
C56 C55 1.335 . S
C56 C57 1.398 . S
C56 H78 0.930 . S
C57 C52 1.382 . S
C57 C56 1.398 . S
C57 H79 0.929 . S
C58 O68 1.271 . S
C58 O69 1.251 . S
C59 O70 1.252 . S
C59 O71 1.272 . S
O60 Sm40 2.543 . S
O60 C42 1.261 . S
O61 Sm40 2.450 . S
O61 C42 1.242 . S
O62 Sm40 2.681 . S
O62 Sm41 2.386 . S
O62 C49 1.271 . S
O63 Sm40 2.464 . S
O63 C49 1.251 . S
O64 Sm40 2.396 . S
O64 C50 1.252 . S
O65 Sm41 2.408 . S
O65 C50 1.272 . S
O66 Sm41 2.543 . S
O66 C51 1.261 . S
O67 Sm41 2.450 . S
O67 C51 1.242 . S
O68 Sm40 2.386 . S
O68 Sm41 2.681 . S
O68 C58 1.271 . S
O69 Sm41 2.464 . S
O69 C58 1.251 . S
O70 Sm41 2.396 . S
O70 C59 1.252 . S
O71 Sm40 2.408 . S
O71 C59 1.272 . S
H72 C44 0.930 . S
H73 C45 0.929 . S
H74 C47 0.930 . S
H75 C48 0.929 . S
H76 C53 0.930 . S
H77 C54 0.929 . S
H78 C56 0.930 . S
H79 C57 0.929 . S
Sm80 C82 2.846 . S
Sm80 O100 2.543 . S
Sm80 O101 2.450 . S
Sm80 O102 2.681 . S
Sm80 O103 2.464 . S
Sm80 O104 2.396 . S
Sm80 O108 2.386 . S
Sm80 O111 2.408 . S
Sm81 C91 2.846 1_556 S
Sm81 O102 2.386 . S
Sm81 O105 2.408 . S
Sm81 O106 2.543 1_556 S
Sm81 O107 2.450 1_556 S
Sm81 O108 2.681 . S
Sm81 O109 2.464 . S
Sm81 O110 2.396 . S
C82 Sm80 2.846 . S
C82 C83 1.506 . S
C82 O100 1.261 . S
C82 O101 1.242 . S
C83 C82 1.506 . S
C83 C84 1.358 . S
C83 C88 1.382 . S
C84 C83 1.358 . S
C84 C85 1.385 . S
C84 H112 0.930 . S
C85 C84 1.385 . S
C85 C86 1.395 . S
C85 H113 0.929 . S
C86 C85 1.395 . S
C86 C87 1.335 . S
C87 C86 1.335 . S
C87 C88 1.398 . S
C87 H114 0.930 . S
C88 C83 1.382 . S
C88 C87 1.398 . S
C88 H115 0.929 . S
C89 O102 1.271 . S
C89 O103 1.251 . S
C90 O104 1.252 . S
C90 O105 1.272 . S
C91 Sm81 2.846 1_554 S
C91 C92 1.506 . S
C91 O106 1.261 . S
C91 O107 1.242 . S
C92 C91 1.506 . S
C92 C93 1.358 . S
C92 C97 1.382 . S
C93 C92 1.358 . S
C93 C94 1.385 . S
C93 H116 0.930 . S
C94 C93 1.385 . S
C94 C95 1.395 . S
C94 H117 0.929 . S
C95 C94 1.395 . S
C95 C96 1.335 . S
C96 C95 1.335 . S
C96 C97 1.398 . S
C96 H118 0.930 . S
C97 C92 1.382 . S
C97 C96 1.398 . S
C97 H119 0.929 . S
C98 O108 1.271 . S
C98 O109 1.251 . S
C99 O110 1.252 . S
C99 O111 1.272 . S
O100 Sm80 2.543 . S
O100 C82 1.261 . S
O101 Sm80 2.450 . S
O101 C82 1.242 . S
O102 Sm80 2.681 . S
O102 Sm81 2.386 . S
O102 C89 1.271 . S
O103 Sm80 2.464 . S
O103 C89 1.251 . S
O104 Sm80 2.396 . S
O104 C90 1.252 . S
O105 Sm81 2.408 . S
O105 C90 1.272 . S
O106 Sm81 2.543 1_554 S
O106 C91 1.261 . S
O107 Sm81 2.450 1_554 S
O107 C91 1.242 . S
O108 Sm80 2.386 . S
O108 Sm81 2.681 . S
O108 C98 1.271 . S
O109 Sm81 2.464 . S
O109 C98 1.251 . S
O110 Sm81 2.396 . S
O110 C99 1.252 . S
O111 Sm80 2.408 . S
O111 C99 1.272 . S
H112 C84 0.930 . S
H113 C85 0.929 . S
H114 C87 0.930 . S
H115 C88 0.929 . S
H116 C93 0.930 . S
H117 C94 0.929 . S
H118 C96 0.930 . S
H119 C97 0.929 . S
Sm120 C122 2.846 . S
Sm120 O140 2.543 . S
Sm120 O141 2.450 . S
Sm120 O142 2.681 . S
Sm120 O143 2.464 . S
Sm120 O144 2.396 . S
Sm120 O148 2.386 . S
Sm120 O151 2.408 . S
Sm121 C131 2.846 1_554 S
Sm121 O142 2.386 . S
Sm121 O145 2.408 . S
Sm121 O146 2.543 1_554 S
Sm121 O147 2.450 1_554 S
Sm121 O148 2.681 . S
Sm121 O149 2.464 . S
Sm121 O150 2.396 1_554 S
C122 Sm120 2.846 . S
C122 C123 1.506 . S
C122 O140 1.261 . S
C122 O141 1.242 . S
C123 C122 1.506 . S
C123 C124 1.358 . S
C123 C128 1.382 . S
C124 C123 1.358 . S
C124 C125 1.385 . S
C124 H152 0.930 . S
C125 C124 1.385 . S
C125 C126 1.395 . S
C125 H153 0.929 . S
C126 C125 1.395 . S
C126 C127 1.335 . S
C127 C126 1.335 . S
C127 C128 1.398 . S
C127 H154 0.930 . S
C128 C123 1.382 . S
C128 C127 1.398 . S
C128 H155 0.929 . S
C129 O142 1.271 . S
C129 O143 1.251 . S
C130 O144 1.252 . S
C130 O145 1.272 . S
C131 Sm121 2.846 1_556 S
C131 C132 1.506 . S
C131 O146 1.261 . S
C131 O147 1.242 . S
C132 C131 1.506 . S
C132 C133 1.358 . S
C132 C137 1.382 . S
C133 C132 1.358 . S
C133 C134 1.385 . S
C133 H156 0.930 . S
C134 C133 1.385 . S
C134 C135 1.395 . S
C134 H157 0.929 . S
C135 C134 1.395 . S
C135 C136 1.335 . S
C136 C135 1.335 . S
C136 C137 1.398 . S
C136 H158 0.930 . S
C137 C132 1.382 . S
C137 C136 1.398 . S
C137 H159 0.929 . S
C138 O148 1.271 . S
C138 O149 1.251 . S
C139 O150 1.255 . S
C139 O151 1.259 1_556 S
O140 Sm120 2.543 . S
O140 C122 1.261 . S
O141 Sm120 2.450 . S
O141 C122 1.242 . S
O142 Sm120 2.681 . S
O142 Sm121 2.386 . S
O142 C129 1.271 . S
O143 Sm120 2.464 . S
O143 C129 1.251 . S
O144 Sm120 2.396 . S
O144 C130 1.252 . S
O145 Sm121 2.408 . S
O145 C130 1.272 . S
O146 Sm121 2.543 1_556 S
O146 C131 1.261 . S
O147 Sm121 2.450 1_556 S
O147 C131 1.242 . S
O148 Sm120 2.386 . S
O148 Sm121 2.681 . S
O148 C138 1.271 . S
O149 Sm121 2.464 . S
O149 C138 1.251 . S
O150 Sm121 2.396 1_556 S
O150 C139 1.255 . S
O151 Sm120 2.408 . S
O151 C139 1.259 1_554 S
H152 C124 0.930 . S
H153 C125 0.929 . S
H154 C127 0.930 . S
H155 C128 0.929 . S
H156 C133 0.930 . S
H157 C134 0.929 . S
H158 C136 0.930 . S
H159 C137 0.929 . S
Sm160 C162 2.846 . S
Sm160 O180 2.543 . S
Sm160 O181 2.450 . S
Sm160 O182 2.681 . S
Sm160 O183 2.464 . S
Sm160 O184 2.396 . S
Sm160 O188 2.386 . S
Sm160 O191 2.408 . S
Sm161 C171 2.846 . S
Sm161 O182 2.386 . S
Sm161 O185 2.408 . S
Sm161 O186 2.543 . S
Sm161 O187 2.450 . S
Sm161 O188 2.681 . S
Sm161 O189 2.464 . S
Sm161 O190 2.396 . S
C162 Sm160 2.846 . S
C162 C163 1.506 . S
C162 O180 1.261 . S
C162 O181 1.242 . S
C163 C162 1.506 . S
C163 C164 1.358 . S
C163 C168 1.382 . S
C164 C163 1.358 . S
C164 C165 1.385 . S
C164 H192 0.930 . S
C165 C164 1.385 . S
C165 C166 1.395 . S
C165 H193 0.929 . S
C166 C165 1.395 . S
C166 C167 1.335 . S
C167 C166 1.335 . S
C167 C168 1.398 . S
C167 H194 0.930 . S
C168 C163 1.382 . S
C168 C167 1.398 . S
C168 H195 0.929 . S
C169 O182 1.271 . S
C169 O183 1.251 . S
C170 O184 1.252 . S
C170 O185 1.272 . S
C171 Sm161 2.846 . S
C171 C172 1.506 . S
C171 O186 1.261 . S
C171 O187 1.242 . S
C172 C171 1.506 . S
C172 C173 1.358 . S
C172 C177 1.382 . S
C173 C172 1.358 . S
C173 C174 1.385 . S
C173 H196 0.930 . S
C174 C173 1.385 . S
C174 C175 1.395 . S
C174 H197 0.929 . S
C175 C174 1.395 . S
C175 C176 1.335 . S
C176 C175 1.335 . S
C176 C177 1.398 . S
C176 H198 0.930 . S
C177 C172 1.382 . S
C177 C176 1.398 . S
C177 H199 0.929 . S
C178 O188 1.271 . S
C178 O189 1.251 . S
C179 O190 1.252 . S
C179 O191 1.272 . S
O180 Sm160 2.543 . S
O180 C162 1.261 . S
O181 Sm160 2.450 . S
O181 C162 1.242 . S
O182 Sm160 2.681 . S
O182 Sm161 2.386 . S
O182 C169 1.271 . S
O183 Sm160 2.464 . S
O183 C169 1.251 . S
O184 Sm160 2.396 . S
O184 C170 1.252 . S
O185 Sm161 2.408 . S
O185 C170 1.272 . S
O186 Sm161 2.543 . S
O186 C171 1.261 . S
O187 Sm161 2.450 . S
O187 C171 1.242 . S
O188 Sm160 2.386 . S
O188 Sm161 2.681 . S
O188 C178 1.271 . S
O189 Sm161 2.464 . S
O189 C178 1.251 . S
O190 Sm161 2.396 . S
O190 C179 1.252 . S
O191 Sm160 2.408 . S
O191 C179 1.272 . S
H192 C164 0.930 . S
H193 C165 0.929 . S
H194 C167 0.930 . S
H195 C168 0.929 . S
H196 C173 0.930 . S
H197 C174 0.929 . S
H198 C176 0.930 . S
H199 C177 0.929 . S
Sm200 C202 2.846 . S
Sm200 O220 2.543 . S
Sm200 O221 2.450 . S
Sm200 O222 2.681 . S
Sm200 O223 2.464 . S
Sm200 O224 2.396 . S
Sm200 O228 2.386 . S
Sm200 O231 2.408 . S
Sm201 C211 2.846 . S
Sm201 O222 2.386 . S
Sm201 O225 2.408 . S
Sm201 O226 2.543 . S
Sm201 O227 2.450 . S
Sm201 O228 2.681 . S
Sm201 O229 2.464 . S
Sm201 O230 2.396 . S
C202 Sm200 2.846 . S
C202 C203 1.506 . S
C202 O220 1.261 . S
C202 O221 1.242 . S
C203 C202 1.506 . S
C203 C204 1.358 . S
C203 C208 1.382 . S
C204 C203 1.358 . S
C204 C205 1.385 1_556 S
C204 H232 0.930 . S
C205 C204 1.385 1_554 S
C205 C206 1.395 . S
C205 H233 0.929 . S
C206 C205 1.395 . S
C206 C207 1.335 . S
C207 C206 1.335 . S
C207 C208 1.398 1_554 S
C207 H234 0.930 . S
C208 C203 1.382 . S
C208 C207 1.398 1_556 S
C208 H235 0.929 . S
C209 O222 1.271 . S
C209 O223 1.251 . S
C210 O224 1.252 . S
C210 O225 1.272 . S
C211 Sm201 2.846 . S
C211 C212 1.506 . S
C211 O226 1.261 . S
C211 O227 1.242 . S
C212 C211 1.506 . S
C212 C213 1.358 . S
C212 C217 1.382 . S
C213 C212 1.358 . S
C213 C214 1.385 . S
C213 H236 0.930 . S
C214 C213 1.385 . S
C214 C215 1.395 . S
C214 H237 0.929 . S
C215 C214 1.395 . S
C215 C216 1.335 . S
C216 C215 1.335 . S
C216 C217 1.398 . S
C216 H238 0.930 . S
C217 C212 1.382 . S
C217 C216 1.398 . S
C217 H239 0.929 . S
C218 O228 1.271 . S
C218 O229 1.251 . S
C219 O230 1.252 . S
C219 O231 1.272 . S
O220 Sm200 2.543 . S
O220 C202 1.261 . S
O221 Sm200 2.450 . S
O221 C202 1.242 . S
O222 Sm200 2.681 . S
O222 Sm201 2.386 . S
O222 C209 1.271 . S
O223 Sm200 2.464 . S
O223 C209 1.251 . S
O224 Sm200 2.396 . S
O224 C210 1.252 . S
O225 Sm201 2.408 . S
O225 C210 1.272 . S
O226 Sm201 2.543 . S
O226 C211 1.261 . S
O227 Sm201 2.450 . S
O227 C211 1.242 . S
O228 Sm200 2.386 . S
O228 Sm201 2.681 . S
O228 C218 1.271 . S
O229 Sm201 2.464 . S
O229 C218 1.251 . S
O230 Sm201 2.396 . S
O230 C219 1.252 . S
O231 Sm200 2.408 . S
O231 C219 1.272 . S
H232 C204 0.930 . S
H233 C205 0.929 . S
H234 C207 0.930 . S
H235 C208 0.929 . S
H236 C213 0.930 . S
H237 C214 0.929 . S
H238 C216 0.930 . S
H239 C217 0.929 . S
H240 C252 0.930 . S
H241 C254 0.930 . S
H242 C255 0.930 . S
H243 C259 0.959 . S
H244 C259 0.959 1_554 S
H245 C259 0.961 . S
H246 C260 0.960 1_556 S
H247 C260 0.961 . S
H248 C260 0.959 . S
H249 C263 0.929 . S
H250 C264 0.931 . S
H251 C266 0.930 . S
C252 H240 0.930 . S
C252 C253 1.399 . S
C252 C257 1.399 . S
C253 C252 1.399 . S
C253 C254 1.376 . S
C254 H241 0.930 . S
C254 C253 1.376 . S
C254 C255 1.388 . S
C255 H242 0.930 . S
C255 C254 1.388 . S
C255 C256 1.390 . S
C256 C255 1.390 . S
C256 C257 1.394 . S
C256 C262 1.465 1_556 S
C257 C252 1.399 . S
C257 C256 1.394 . S
C257 C258 1.516 . S
C258 C257 1.516 . S
C258 C259 1.502 . S
C258 C260 1.561 1_556 S
C258 C261 1.526 1_556 S
C259 H243 0.959 . S
C259 H244 0.959 1_556 S
C259 H245 0.961 . S
C259 C258 1.502 . S
C260 H246 0.960 1_554 S
C260 H247 0.961 . S
C260 H248 0.959 . S
C260 C258 1.561 1_554 S
C261 C258 1.526 1_554 S
C261 C262 1.396 . S
C261 C266 1.390 . S
C262 C256 1.465 1_554 S
C262 C261 1.396 . S
C262 C263 1.399 . S
C263 H249 0.929 . S
C263 C262 1.399 . S
C263 C264 1.385 . S
C264 H250 0.931 . S
C264 C263 1.385 . S
C264 C265 1.389 . S
C265 C264 1.389 . S
C265 C266 1.387 . S
C266 H251 0.930 . S
C266 C261 1.390 . S
C266 C265 1.387 . S
H267 C279 0.930 . S
H268 C281 0.930 . S
H269 C282 0.930 . S
H270 C286 0.959 . S
H271 C286 0.959 . S
H272 C286 0.961 . S
H273 C287 0.960 1_455 S
H274 C287 0.961 . S
H275 C287 0.959 . S
H276 C290 0.929 . S
H277 C291 0.931 . S
H278 C293 0.930 . S
C279 H267 0.930 . S
C279 C280 1.399 . S
C279 C284 1.399 . S
C280 C279 1.399 . S
C280 C281 1.376 . S
C281 H268 0.930 . S
C281 C280 1.376 . S
C281 C282 1.388 . S
C282 H269 0.930 . S
C282 C281 1.388 . S
C282 C283 1.390 . S
C283 C282 1.390 . S
C283 C284 1.394 . S
C283 C289 1.465 1_455 S
C284 C279 1.399 . S
C284 C283 1.394 . S
C284 C285 1.516 1_455 S
C285 C284 1.516 1_655 S
C285 C286 1.502 . S
C285 C287 1.561 . S
C285 C288 1.526 . S
C286 H270 0.959 . S
C286 H271 0.959 . S
C286 H272 0.961 . S
C286 C285 1.502 . S
C287 H273 0.960 1_655 S
C287 H274 0.961 . S
C287 H275 0.959 . S
C287 C285 1.561 . S
C288 C285 1.526 . S
C288 C289 1.396 . S
C288 C293 1.390 . S
C289 C283 1.465 1_655 S
C289 C288 1.396 . S
C289 C290 1.399 . S
C290 H276 0.929 . S
C290 C289 1.399 . S
C290 C291 1.385 . S
C291 H277 0.931 . S
C291 C290 1.385 . S
C291 C292 1.389 . S
C292 C291 1.389 . S
C292 C293 1.387 . S
C293 H278 0.930 . S
C293 C288 1.390 . S
C293 C292 1.387 . S
H294 C306 0.930 . S
H295 C308 0.930 . S
H296 C309 0.930 . S
H297 C313 0.959 . S
H298 C313 0.959 . S
H299 C313 0.961 . S
H300 C314 0.960 . S
H301 C314 0.961 . S
H302 C314 0.959 . S
H303 C317 0.929 . S
H304 C318 0.931 . S
H305 C320 0.930 1_545 S
C306 H294 0.930 . S
C306 C307 1.399 . S
C306 C311 1.399 . S
C307 C306 1.399 . S
C307 C308 1.376 1_545 S
C308 H295 0.930 . S
C308 C307 1.376 1_565 S
C308 C309 1.388 . S
C309 H296 0.930 . S
C309 C308 1.388 . S
C309 C310 1.390 . S
C310 C309 1.390 . S
C310 C311 1.394 1_565 S
C310 C316 1.465 . S
C311 C306 1.399 . S
C311 C310 1.394 1_545 S
C311 C312 1.516 . S
C312 C311 1.516 . S
C312 C313 1.502 . S
C312 C314 1.561 . S
C312 C315 1.526 . S
C313 H297 0.959 . S
C313 H298 0.959 . S
C313 H299 0.961 . S
C313 C312 1.502 . S
C314 H300 0.960 . S
C314 H301 0.961 . S
C314 H302 0.959 . S
C314 C312 1.561 . S
C315 C312 1.526 . S
C315 C316 1.396 1_545 S
C315 C320 1.390 1_545 S
C316 C310 1.465 . S
C316 C315 1.396 1_565 S
C316 C317 1.399 . S
C317 H303 0.929 . S
C317 C316 1.399 . S
C317 C318 1.385 . S
C318 H304 0.931 . S
C318 C317 1.385 . S
C318 C319 1.389 . S
C319 C318 1.389 . S
C319 C320 1.387 . S
C320 H305 0.930 1_565 S
C320 C315 1.390 1_565 S
C320 C319 1.387 . S
H321 C333 0.930 . S
H322 C335 0.930 . S
H323 C336 0.930 . S
H324 C340 0.959 . S
H325 C340 0.959 . S
H326 C340 0.961 . S
H327 C341 0.960 . S
H328 C341 0.961 . S
H329 C341 0.959 . S
H330 C344 0.929 . S
H331 C345 0.931 . S
H332 C347 0.930 . S
C333 H321 0.930 . S
C333 C334 1.399 . S
C333 C338 1.399 . S
C334 C333 1.399 . S
C334 C335 1.376 . S
C335 H322 0.930 . S
C335 C334 1.376 . S
C335 C336 1.388 1_556 S
C336 H323 0.930 . S
C336 C335 1.388 1_554 S
C336 C337 1.390 1_554 S
C337 C336 1.390 1_556 S
C337 C338 1.394 . S
C337 C343 1.465 1_556 S
C338 C333 1.399 . S
C338 C337 1.394 . S
C338 C339 1.516 . S
C339 C338 1.516 . S
C339 C340 1.502 . S
C339 C341 1.561 . S
C339 C342 1.526 . S
C340 H324 0.959 . S
C340 H325 0.959 . S
C340 H326 0.961 . S
C340 C339 1.502 . S
C341 H327 0.960 . S
C341 H328 0.961 . S
C341 H329 0.959 . S
C341 C339 1.561 . S
C342 C339 1.526 . S
C342 C343 1.396 1_556 S
C342 C347 1.390 . S
C343 C337 1.465 1_554 S
C343 C342 1.396 1_554 S
C343 C344 1.399 . S
C344 H330 0.929 . S
C344 C343 1.399 . S
C344 C345 1.385 . S
C345 H331 0.931 . S
C345 C344 1.385 . S
C345 C346 1.389 . S
C346 C345 1.389 . S
C346 C347 1.387 1_554 S
C347 H332 0.930 . S
C347 C342 1.390 . S
C347 C346 1.387 1_556 S
H348 C360 0.930 . S
H349 C362 0.930 . S
H350 C363 0.930 1_655 S
H351 C367 0.959 1_655 S
H352 C367 0.959 . S
H353 C367 0.961 . S
H354 C368 0.960 . S
H355 C368 0.961 . S
H356 C368 0.959 . S
H357 C371 0.929 . S
H358 C372 0.931 . S
H359 C374 0.930 . S
C360 H348 0.930 . S
C360 C361 1.399 . S
C360 C365 1.399 . S
C361 C360 1.399 . S
C361 C362 1.376 . S
C362 H349 0.930 . S
C362 C361 1.376 . S
C362 C363 1.388 . S
C363 H350 0.930 1_455 S
C363 C362 1.388 . S
C363 C364 1.390 . S
C364 C363 1.390 . S
C364 C365 1.394 . S
C364 C370 1.465 1_455 S
C365 C360 1.399 . S
C365 C364 1.394 . S
C365 C366 1.516 . S
C366 C365 1.516 . S
C366 C367 1.502 . S
C366 C368 1.561 . S
C366 C369 1.526 1_455 S
C367 H351 0.959 1_455 S
C367 H352 0.959 . S
C367 H353 0.961 . S
C367 C366 1.502 . S
C368 H354 0.960 . S
C368 H355 0.961 . S
C368 H356 0.959 . S
C368 C366 1.561 . S
C369 C366 1.526 1_655 S
C369 C370 1.396 . S
C369 C374 1.390 . S
C370 C364 1.465 1_655 S
C370 C369 1.396 . S
C370 C371 1.399 . S
C371 H357 0.929 . S
C371 C370 1.399 . S
C371 C372 1.385 . S
C372 H358 0.931 . S
C372 C371 1.385 . S
C372 C373 1.389 . S
C373 C372 1.389 . S
C373 C374 1.387 . S
C374 H359 0.930 . S
C374 C369 1.390 . S
C374 C373 1.387 . S
H375 C387 0.930 . S
H376 C389 0.930 . S
H377 C390 0.930 . S
H378 C394 0.959 . S
H379 C394 0.959 1_565 S
H380 C394 0.961 . S
H381 C395 0.960 . S
H382 C395 0.961 . S
H383 C395 0.959 . S
H384 C398 0.929 . S
H385 C399 0.931 . S
H386 C401 0.930 . S
C387 H375 0.930 . S
C387 C388 1.399 . S
C387 C392 1.399 . S
C388 C387 1.399 . S
C388 C389 1.376 . S
C389 H376 0.930 . S
C389 C388 1.376 . S
C389 C390 1.388 . S
C390 H377 0.930 . S
C390 C389 1.388 . S
C390 C391 1.390 . S
C391 C390 1.390 . S
C391 C392 1.394 . S
C391 C397 1.465 1_545 S
C392 C387 1.399 . S
C392 C391 1.394 . S
C392 C393 1.516 . S
C393 C392 1.516 . S
C393 C394 1.502 . S
C393 C395 1.561 . S
C393 C396 1.526 1_545 S
C394 H378 0.959 . S
C394 H379 0.959 1_545 S
C394 H380 0.961 . S
C394 C393 1.502 . S
C395 H381 0.960 . S
C395 H382 0.961 . S
C395 H383 0.959 . S
C395 C393 1.561 . S
C396 C393 1.526 1_565 S
C396 C397 1.396 . S
C396 C401 1.390 . S
C397 C391 1.465 1_565 S
C397 C396 1.396 . S
C397 C398 1.399 . S
C398 H384 0.929 . S
C398 C397 1.399 . S
C398 C399 1.385 . S
C399 H385 0.931 . S
C399 C398 1.385 . S
C399 C400 1.389 . S
C400 C399 1.389 . S
C400 C401 1.387 . S
C401 H386 0.930 . S
C401 C396 1.390 . S
C401 C400 1.387 . S
H402 C414 0.930 . S
H403 C416 0.930 . S
H404 C417 0.930 . S
H405 C421 0.959 . S
H406 C421 0.959 . S
H407 C421 0.961 . S
H408 C422 0.960 . S
H409 C422 0.961 . S
H410 C422 0.959 . S
H411 C425 0.929 . S
H412 C426 0.931 . S
H413 C428 0.930 . S
C414 H402 0.930 . S
C414 C415 1.399 . S
C414 C419 1.399 . S
C415 C414 1.399 . S
C415 C416 1.376 . S
C416 H403 0.930 . S
C416 C415 1.376 . S
C416 C417 1.388 . S
C417 H404 0.930 . S
C417 C416 1.388 . S
C417 C418 1.390 . S
C418 C417 1.390 . S
C418 C419 1.394 . S
C418 C424 1.465 . S
C419 C414 1.399 . S
C419 C418 1.394 . S
C419 C420 1.516 . S
C420 C419 1.516 . S
C420 C421 1.502 . S
C420 C422 1.561 . S
C420 C423 1.526 . S
C421 H405 0.959 . S
C421 H406 0.959 . S
C421 H407 0.961 . S
C421 C420 1.502 . S
C422 H408 0.960 . S
C422 H409 0.961 . S
C422 H410 0.959 . S
C422 C420 1.561 . S
C423 C420 1.526 . S
C423 C424 1.396 . S
C423 C428 1.390 . S
C424 C418 1.465 . S
C424 C423 1.396 . S
C424 C425 1.399 . S
C425 H411 0.929 . S
C425 C424 1.399 . S
C425 C426 1.385 . S
C426 H412 0.931 . S
C426 C425 1.385 . S
C426 C427 1.389 . S
C427 C426 1.389 . S
C427 C428 1.387 . S
C428 H413 0.930 . S
C428 C423 1.390 . S
C428 C427 1.387 . S
H429 C441 0.930 1_554 S
H430 C443 0.930 1_554 S
H431 C444 0.930 . S
H432 C448 0.959 . S
H433 C448 0.959 . S
H434 C448 0.961 . S
H435 C449 0.960 . S
H436 C449 0.961 . S
H437 C449 0.959 . S
H438 C452 0.929 . S
H439 C453 0.931 . S
H440 C455 0.930 . S
C441 H429 0.930 1_556 S
C441 C442 1.399 1_556 S
C441 C446 1.399 . S
C442 C441 1.399 1_554 S
C442 C443 1.376 1_554 S
C443 H430 0.930 1_556 S
C443 C442 1.376 1_556 S
C443 C444 1.388 . S
C444 H431 0.930 . S
C444 C443 1.388 . S
C444 C445 1.390 . S
C445 C444 1.390 . S
C445 C446 1.394 . S
C445 C451 1.465 . S
C446 C441 1.399 . S
C446 C445 1.394 . S
C446 C447 1.516 . S
C447 C446 1.516 . S
C447 C448 1.502 . S
C447 C449 1.561 . S
C447 C450 1.526 . S
C448 H432 0.959 . S
C448 H433 0.959 . S
C448 H434 0.961 . S
C448 C447 1.502 . S
C449 H435 0.960 . S
C449 H436 0.961 . S
C449 H437 0.959 . S
C449 C447 1.561 . S
C450 C447 1.526 . S
C450 C451 1.396 . S
C450 C455 1.390 . S
C451 C445 1.465 . S
C451 C450 1.396 . S
C451 C452 1.399 . S
C452 H438 0.929 . S
C452 C451 1.399 . S
C452 C453 1.385 . S
C453 H439 0.931 . S
C453 C452 1.385 . S
C453 C454 1.389 . S
C454 C453 1.389 . S
C454 C455 1.387 . S
C455 H440 0.930 . S
C455 C450 1.390 . S
C455 C454 1.387 . S
H456 C468 0.930 . S
H457 C470 0.930 . S
H458 C471 0.930 . S
H459 C475 0.959 . S
H460 C475 0.959 . S
H461 C475 0.961 . S
H462 C476 0.960 . S
H463 C476 0.961 . S
H464 C476 0.959 . S
H465 C479 0.929 . S
H466 C480 0.931 . S
H467 C482 0.930 . S
C468 H456 0.930 . S
C468 C469 1.399 . S
C468 C473 1.399 . S
C469 C468 1.399 . S
C469 C470 1.376 . S
C470 H457 0.930 . S
C470 C469 1.376 . S
C470 C471 1.388 . S
C471 H458 0.930 . S
C471 C470 1.388 . S
C471 C472 1.390 . S
C472 C471 1.390 . S
C472 C473 1.394 . S
C472 C478 1.465 . S
C473 C468 1.399 . S
C473 C472 1.394 . S
C473 C474 1.516 . S
C474 C473 1.516 . S
C474 C475 1.502 . S
C474 C476 1.561 . S
C474 C477 1.526 . S
C475 H459 0.959 . S
C475 H460 0.959 . S
C475 H461 0.961 . S
C475 C474 1.502 . S
C476 H462 0.960 . S
C476 H463 0.961 . S
C476 H464 0.959 . S
C476 C474 1.561 . S
C477 C474 1.526 . S
C477 C478 1.396 . S
C477 C482 1.390 . S
C478 C472 1.465 . S
C478 C477 1.396 . S
C478 C479 1.399 . S
C479 H465 0.929 . S
C479 C478 1.399 . S
C479 C480 1.385 . S
C480 H466 0.931 . S
C480 C479 1.385 . S
C480 C481 1.389 . S
C481 C480 1.389 . S
C481 C482 1.387 . S
C482 H467 0.930 . S
C482 C477 1.390 . S
C482 C481 1.387 . S
H483 C495 0.930 . S
H484 C497 0.930 . S
H485 C498 0.930 . S
H486 C502 0.959 . S
H487 C502 0.959 . S
H488 C502 0.961 . S
H489 C503 0.960 . S
H490 C503 0.961 . S
H491 C503 0.959 . S
H492 C506 0.929 . S
H493 C507 0.931 . S
H494 C509 0.930 . S
C495 H483 0.930 . S
C495 C496 1.399 . S
C495 C500 1.399 . S
C496 C495 1.399 . S
C496 C497 1.376 . S
C497 H484 0.930 . S
C497 C496 1.376 . S
C497 C498 1.388 . S
C498 H485 0.930 . S
C498 C497 1.388 . S
C498 C499 1.390 . S
C499 C498 1.390 . S
C499 C500 1.394 . S
C499 C505 1.465 . S
C500 C495 1.399 . S
C500 C499 1.394 . S
C500 C501 1.516 . S
C501 C500 1.516 . S
C501 C502 1.502 . S
C501 C503 1.561 . S
C501 C504 1.526 . S
C502 H486 0.959 . S
C502 H487 0.959 . S
C502 H488 0.961 . S
C502 C501 1.502 . S
C503 H489 0.960 . S
C503 H490 0.961 . S
C503 H491 0.959 . S
C503 C501 1.561 . S
C504 C501 1.526 . S
C504 C505 1.396 . S
C504 C509 1.390 . S
C505 C499 1.465 . S
C505 C504 1.396 . S
C505 C506 1.399 . S
C506 H492 0.929 . S
C506 C505 1.399 . S
C506 C507 1.385 . S
C507 H493 0.931 . S
C507 C506 1.385 . S
C507 C508 1.389 . S
C508 C507 1.389 . S
C508 C509 1.387 . S
C509 H494 0.930 . S
C509 C504 1.390 . S
C509 C508 1.387 . S
H510 C522 0.930 . S
H511 C524 0.930 . S
H512 C525 0.930 . S
H513 C529 0.959 . S
H514 C529 0.959 . S
H515 C529 0.961 1_556 S
H516 C530 0.960 1_556 S
H517 C530 0.961 . S
H518 C530 0.959 . S
H519 C533 0.929 . S
H520 C534 0.931 . S
H521 C536 0.930 . S
C522 H510 0.930 . S
C522 C523 1.399 . S
C522 C527 1.399 1_556 S
C523 C522 1.399 . S
C523 C524 1.376 . S
C524 H511 0.930 . S
C524 C523 1.376 . S
C524 C525 1.388 1_556 S
C525 H512 0.930 . S
C525 C524 1.388 1_554 S
C525 C526 1.390 . S
C526 C525 1.390 . S
C526 C527 1.394 . S
C526 C532 1.465 . S
C527 C522 1.399 1_554 S
C527 C526 1.394 . S
C527 C528 1.516 . S
C528 C527 1.516 . S
C528 C529 1.502 . S
C528 C530 1.561 . S
C528 C531 1.526 . S
C529 H513 0.959 . S
C529 H514 0.959 . S
C529 H515 0.961 1_554 S
C529 C528 1.502 . S
C530 H516 0.960 1_554 S
C530 H517 0.961 . S
C530 H518 0.959 . S
C530 C528 1.561 . S
C531 C528 1.526 . S
C531 C532 1.396 . S
C531 C536 1.390 . S
C532 C526 1.465 . S
C532 C531 1.396 . S
C532 C533 1.399 . S
C533 H519 0.929 . S
C533 C532 1.399 . S
C533 C534 1.385 . S
C534 H520 0.931 . S
C534 C533 1.385 . S
C534 C535 1.389 . S
C535 C534 1.389 . S
C535 C536 1.387 . S
C536 H521 0.930 . S
C536 C531 1.390 . S
C536 C535 1.387 . S
H537 C549 0.930 . S
H538 C551 0.930 . S
H539 C552 0.930 . S
H540 C556 0.959 . S
H541 C556 0.959 . S
H542 C556 0.961 . S
H543 C557 0.960 . S
H544 C557 0.961 . S
H545 C557 0.959 . S
H546 C560 0.929 . S
H547 C561 0.931 . S
H548 C563 0.930 . S
C549 H537 0.930 . S
C549 C550 1.399 . S
C549 C554 1.399 . S
C550 C549 1.399 . S
C550 C551 1.376 . S
C551 H538 0.930 . S
C551 C550 1.376 . S
C551 C552 1.388 . S
C552 H539 0.930 . S
C552 C551 1.388 . S
C552 C553 1.390 . S
C553 C552 1.390 . S
C553 C554 1.394 . S
C553 C559 1.465 . S
C554 C549 1.399 . S
C554 C553 1.394 . S
C554 C555 1.516 . S
C555 C554 1.516 . S
C555 C556 1.502 . S
C555 C557 1.561 . S
C555 C558 1.526 . S
C556 H540 0.959 . S
C556 H541 0.959 . S
C556 H542 0.961 . S
C556 C555 1.502 . S
C557 H543 0.960 . S
C557 H544 0.961 . S
C557 H545 0.959 . S
C557 C555 1.561 . S
C558 C555 1.526 . S
C558 C559 1.396 . S
C558 C563 1.390 . S
C559 C553 1.465 . S
C559 C558 1.396 . S
C559 C560 1.399 . S
C560 H546 0.929 . S
C560 C559 1.399 . S
C560 C561 1.385 . S
C561 H547 0.931 . S
C561 C560 1.385 . S
C561 C562 1.389 . S
C562 C561 1.389 . S
C562 C563 1.387 . S
C563 H548 0.930 . S
C563 C558 1.390 . S
C563 C562 1.387 . S
H564 C576 0.930 . S
H565 C578 0.930 . S
H566 C579 0.930 . S
H567 C583 0.959 . S
H568 C583 0.959 . S
H569 C583 0.961 . S
H570 C584 0.960 . S
H571 C584 0.961 . S
H572 C584 0.959 . S
H573 C587 0.929 . S
H574 C588 0.931 . S
H575 C590 0.930 . S
C576 H564 0.930 . S
C576 C577 1.399 . S
C576 C581 1.399 . S
C577 C576 1.399 . S
C577 C578 1.376 . S
C578 H565 0.930 . S
C578 C577 1.376 . S
C578 C579 1.388 . S
C579 H566 0.930 . S
C579 C578 1.388 . S
C579 C580 1.390 . S
C580 C579 1.390 . S
C580 C581 1.394 . S
C580 C586 1.465 . S
C581 C576 1.399 . S
C581 C580 1.394 . S
C581 C582 1.516 . S
C582 C581 1.516 . S
C582 C583 1.502 . S
C582 C584 1.561 . S
C582 C585 1.526 . S
C583 H567 0.959 . S
C583 H568 0.959 . S
C583 H569 0.961 . S
C583 C582 1.502 . S
C584 H570 0.960 . S
C584 H571 0.961 . S
C584 H572 0.959 . S
C584 C582 1.561 . S
C585 C582 1.526 . S
C585 C586 1.396 . S
C585 C590 1.390 . S
C586 C580 1.465 . S
C586 C585 1.396 . S
C586 C587 1.399 . S
C587 H573 0.929 . S
C587 C586 1.399 . S
C587 C588 1.385 . S
C588 H574 0.931 . S
C588 C587 1.385 . S
C588 C589 1.389 . S
C589 C588 1.389 . S
C589 C590 1.387 . S
C590 H575 0.930 . S
C590 C585 1.390 . S
C590 C589 1.387 . S
H591 C603 0.930 . S
H592 C605 0.930 . S
H593 C606 0.930 . S
H594 C610 0.959 . S
H595 C610 0.959 . S
H596 C610 0.961 . S
H597 C611 0.960 . S
H598 C611 0.961 . S
H599 C611 0.959 . S
H600 C614 0.929 . S
H601 C615 0.931 . S
H602 C617 0.930 . S
C603 H591 0.930 . S
C603 C604 1.399 . S
C603 C608 1.399 . S
C604 C603 1.399 . S
C604 C605 1.376 . S
C605 H592 0.930 . S
C605 C604 1.376 . S
C605 C606 1.388 . S
C606 H593 0.930 . S
C606 C605 1.388 . S
C606 C607 1.390 . S
C607 C606 1.390 . S
C607 C608 1.394 . S
C607 C613 1.465 . S
C608 C603 1.399 . S
C608 C607 1.394 . S
C608 C609 1.516 . S
C609 C608 1.516 . S
C609 C610 1.502 . S
C609 C611 1.561 . S
C609 C612 1.526 . S
C610 H594 0.959 . S
C610 H595 0.959 . S
C610 H596 0.961 . S
C610 C609 1.502 . S
C611 H597 0.960 . S
C611 H598 0.961 . S
C611 H599 0.959 . S
C611 C609 1.561 . S
C612 C609 1.526 . S
C612 C613 1.396 . S
C612 C617 1.390 . S
C613 C607 1.465 . S
C613 C612 1.396 . S
C613 C614 1.399 . S
C614 H600 0.929 . S
C614 C613 1.399 . S
C614 C615 1.385 . S
C615 H601 0.931 . S
C615 C614 1.385 . S
C615 C616 1.389 . S
C616 C615 1.389 . S
C616 C617 1.387 . S
C617 H602 0.930 . S
C617 C612 1.390 . S
C617 C616 1.387 . S
H618 C630 0.930 . S
H619 C632 0.930 . S
H620 C633 0.930 . S
H621 C637 0.959 . S
H622 C637 0.959 . S
H623 C637 0.961 . S
H624 C638 0.960 . S
H625 C638 0.961 . S
H626 C638 0.959 . S
H627 C641 0.929 1_556 S
H628 C642 0.931 . S
H629 C644 0.930 . S
C630 H618 0.930 . S
C630 C631 1.399 . S
C630 C635 1.399 . S
C631 C630 1.399 . S
C631 C632 1.376 . S
C632 H619 0.930 . S
C632 C631 1.376 . S
C632 C633 1.388 . S
C633 H620 0.930 . S
C633 C632 1.388 . S
C633 C634 1.390 . S
C634 C633 1.390 . S
C634 C635 1.394 . S
C634 C640 1.465 . S
C635 C630 1.399 . S
C635 C634 1.394 . S
C635 C636 1.516 . S
C636 C635 1.516 . S
C636 C637 1.502 . S
C636 C638 1.561 . S
C636 C639 1.526 . S
C637 H621 0.959 . S
C637 H622 0.959 . S
C637 H623 0.961 . S
C637 C636 1.502 . S
C638 H624 0.960 . S
C638 H625 0.961 . S
C638 H626 0.959 . S
C638 C636 1.561 . S
C639 C636 1.526 . S
C639 C640 1.396 . S
C639 C644 1.390 . S
C640 C634 1.465 . S
C640 C639 1.396 . S
C640 C641 1.399 . S
C641 H627 0.929 1_554 S
C641 C640 1.399 . S
C641 C642 1.385 1_554 S
C642 H628 0.931 . S
C642 C641 1.385 1_556 S
C642 C643 1.389 1_556 S
C643 C642 1.389 1_554 S
C643 C644 1.387 . S
C644 H629 0.930 . S
C644 C639 1.390 . S
C644 C643 1.387 . S
H645 C657 0.930 . S
H646 C659 0.930 . S
H647 C660 0.930 . S
H648 C664 0.959 . S
H649 C664 0.959 . S
H650 C664 0.961 . S
H651 C665 0.960 . S
H652 C665 0.961 . S
H653 C665 0.959 . S
H654 C668 0.929 . S
H655 C669 0.931 . S
H656 C671 0.930 . S
C657 H645 0.930 . S
C657 C658 1.399 . S
C657 C662 1.399 . S
C658 C657 1.399 . S
C658 C659 1.376 . S
C659 H646 0.930 . S
C659 C658 1.376 . S
C659 C660 1.388 . S
C660 H647 0.930 . S
C660 C659 1.388 . S
C660 C661 1.390 . S
C661 C660 1.390 . S
C661 C662 1.394 . S
C661 C667 1.465 . S
C662 C657 1.399 . S
C662 C661 1.394 . S
C662 C663 1.516 . S
C663 C662 1.516 . S
C663 C664 1.502 . S
C663 C665 1.561 . S
C663 C666 1.526 . S
C664 H648 0.959 . S
C664 H649 0.959 . S
C664 H650 0.961 . S
C664 C663 1.502 . S
C665 H651 0.960 . S
C665 H652 0.961 . S
C665 H653 0.959 . S
C665 C663 1.561 . S
C666 C663 1.526 . S
C666 C667 1.396 . S
C666 C671 1.390 . S
C667 C661 1.465 . S
C667 C666 1.396 . S
C667 C668 1.399 . S
C668 H654 0.929 . S
C668 C667 1.399 . S
C668 C669 1.385 . S
C669 H655 0.931 . S
C669 C668 1.385 . S
C669 C670 1.389 . S
C670 C669 1.389 . S
C670 C671 1.387 . S
C671 H656 0.930 . S
C671 C666 1.390 . S
C671 C670 1.387 . S
H672 C684 0.930 . S
H673 C686 0.930 . S
H674 C687 0.930 . S
H675 C691 0.959 . S
H676 C691 0.959 . S
H677 C691 0.961 . S
H678 C692 0.960 . S
H679 C692 0.961 . S
H680 C692 0.959 . S
H681 C695 0.929 . S
H682 C696 0.931 . S
H683 C698 0.930 . S
C684 H672 0.930 . S
C684 C685 1.399 . S
C684 C689 1.399 . S
C685 C684 1.399 . S
C685 C686 1.376 . S
C686 H673 0.930 . S
C686 C685 1.376 . S
C686 C687 1.388 . S
C687 H674 0.930 . S
C687 C686 1.388 . S
C687 C688 1.390 . S
C688 C687 1.390 . S
C688 C689 1.394 . S
C688 C694 1.465 . S
C689 C684 1.399 . S
C689 C688 1.394 . S
C689 C690 1.516 . S
C690 C689 1.516 . S
C690 C691 1.502 . S
C690 C692 1.561 . S
C690 C693 1.526 . S
C691 H675 0.959 . S
C691 H676 0.959 . S
C691 H677 0.961 . S
C691 C690 1.502 . S
C692 H678 0.960 . S
C692 H679 0.961 . S
C692 H680 0.959 . S
C692 C690 1.561 . S
C693 C690 1.526 . S
C693 C694 1.396 . S
C693 C698 1.390 . S
C694 C688 1.465 . S
C694 C693 1.396 . S
C694 C695 1.399 . S
C695 H681 0.929 . S
C695 C694 1.399 . S
C695 C696 1.385 . S
C696 H682 0.931 . S
C696 C695 1.385 . S
C696 C697 1.389 . S
C697 C696 1.389 . S
C697 C698 1.387 . S
C698 H683 0.930 . S
C698 C693 1.390 . S
C698 C697 1.387 . S
H699 C711 0.930 . S
H700 C713 0.930 1_554 S
H701 C714 0.930 . S
H702 C718 0.959 . S
H703 C718 0.959 . S
H704 C718 0.961 . S
H705 C719 0.960 . S
H706 C719 0.961 . S
H707 C719 0.959 . S
H708 C722 0.929 . S
H709 C723 0.931 . S
H710 C725 0.930 . S
C711 H699 0.930 . S
C711 C712 1.399 . S
C711 C716 1.399 . S
C712 C711 1.399 . S
C712 C713 1.376 . S
C713 H700 0.930 1_556 S
C713 C712 1.376 . S
C713 C714 1.388 . S
C714 H701 0.930 . S
C714 C713 1.388 . S
C714 C715 1.390 . S
C715 C714 1.390 . S
C715 C716 1.394 . S
C715 C721 1.465 . S
C716 C711 1.399 . S
C716 C715 1.394 . S
C716 C717 1.516 . S
C717 C716 1.516 . S
C717 C718 1.502 . S
C717 C719 1.561 . S
C717 C720 1.526 . S
C718 H702 0.959 . S
C718 H703 0.959 . S
C718 H704 0.961 . S
C718 C717 1.502 . S
C719 H705 0.960 . S
C719 H706 0.961 . S
C719 H707 0.959 . S
C719 C717 1.561 . S
C720 C717 1.526 . S
C720 C721 1.396 . S
C720 C725 1.390 . S
C721 C715 1.465 . S
C721 C720 1.396 . S
C721 C722 1.399 . S
C722 H708 0.929 . S
C722 C721 1.399 . S
C722 C723 1.385 . S
C723 H709 0.931 . S
C723 C722 1.385 . S
C723 C724 1.389 . S
C724 C723 1.389 . S
C724 C725 1.387 . S
C725 H710 0.930 . S
C725 C720 1.390 . S
C725 C724 1.387 . S
C253 C210 1.754 . S
C265 C10 1.761 . S
C280 C9 1.429 . S
C292 C49 1.359 . S
C307 C50 1.778 . S
C319 C90 1.741 . S
C334 C89 1.447 . S
C346 C129 1.407 . S
C361 C170 1.759 . S
C373 C130 1.756 . S
C388 C209 1.341 . S
C400 C169 1.382 . S
C415 C6 1.246 . S
C427 C15 1.322 . S
C442 C55 1.273 . S
C454 C46 1.275 . S
C469 C86 1.327 . S
C481 C95 1.237 . S
C496 C135 1.316 . S
C508 C126 1.258 . S
C523 C175 1.318 . S
C535 C166 1.237 . S
C550 C215 1.316 . S
C562 C206 1.257 . S
C577 C19 1.822 . S
C589 C178 1.840 . S
C604 C58 1.840 . S
C616 C219 1.834 . S
C631 C18 1.844 . S
C643 C99 1.831 1_554 S
C658 C59 1.844 . S
C670 C138 1.844 . S
C685 C179 1.837 . S
C697 C98 1.841 . S
C712 C139 1.828 . S
C724 C218 1.840 . S
