# Generated by pormake.
# Topology afw, (4)-cn, num edge types: 1
# Building blocks:
#     Node 0, Type 0, BuildingBlock: ESEHIV_clean_sbu_0, # of connection points: 4
#     Node 1, Type 0, BuildingBlock: ESEHIV_clean_sbu_0, # of connection points: 4
#     Node 2, Type 0, BuildingBlock: ESEHIV_clean_sbu_0, # of connection points: 4
#     Node 3, Type 0, BuildingBlock: ESEHIV_clean_sbu_0, # of connection points: 4
#     Node 4, Type 0, BuildingBlock: ESEHIV_clean_sbu_0, # of connection points: 4
#     Node 5, Type 0, BuildingBlock: ESEHIV_clean_sbu_0, # of connection points: 4
#     Node 6, Type 0, BuildingBlock: ESEHIV_clean_sbu_0, # of connection points: 4
#     Node 7, Type 0, BuildingBlock: ESEHIV_clean_sbu_0, # of connection points: 4
#     Node 8, Type 0, BuildingBlock: ESEHIV_clean_sbu_0, # of connection points: 4
#     Edge 9, Type (0, 0), BuildingBlock: OJICUG_clean_linker_0, # of connection points: 2
#     Edge 10, Type (0, 0), BuildingBlock: OJICUG_clean_linker_0, # of connection points: 2
#     Edge 11, Type (0, 0), BuildingBlock: OJICUG_clean_linker_0, # of connection points: 2
#     Edge 12, Type (0, 0), BuildingBlock: OJICUG_clean_linker_0, # of connection points: 2
#     Edge 13, Type (0, 0), BuildingBlock: OJICUG_clean_linker_0, # of connection points: 2
#     Edge 14, Type (0, 0), BuildingBlock: OJICUG_clean_linker_0, # of connection points: 2
#     Edge 15, Type (0, 0), BuildingBlock: OJICUG_clean_linker_0, # of connection points: 2
#     Edge 16, Type (0, 0), BuildingBlock: OJICUG_clean_linker_0, # of connection points: 2
#     Edge 17, Type (0, 0), BuildingBlock: OJICUG_clean_linker_0, # of connection points: 2
#     Edge 18, Type (0, 0), BuildingBlock: OJICUG_clean_linker_0, # of connection points: 2
#     Edge 19, Type (0, 0), BuildingBlock: OJICUG_clean_linker_0, # of connection points: 2
#     Edge 20, Type (0, 0), BuildingBlock: OJICUG_clean_linker_0, # of connection points: 2
#     Edge 21, Type (0, 0), BuildingBlock: OJICUG_clean_linker_0, # of connection points: 2
#     Edge 22, Type (0, 0), BuildingBlock: OJICUG_clean_linker_0, # of connection points: 2
#     Edge 23, Type (0, 0), BuildingBlock: OJICUG_clean_linker_0, # of connection points: 2
#     Edge 24, Type (0, 0), BuildingBlock: OJICUG_clean_linker_0, # of connection points: 2
#     Edge 25, Type (0, 0), BuildingBlock: OJICUG_clean_linker_0, # of connection points: 2
#     Edge 26, Type (0, 0), BuildingBlock: OJICUG_clean_linker_0, # of connection points: 2
# Relax obj value: 0.058
# Max RMSD: 0.177
# Mean RMSD: 0.160
data_MOF--net-afw--node1-ESEHIV_clean_sbu_0--edge1-OJICUG_clean_linker_0
_symmetry_space_group_name_H-M    P1
_symmetry_Int_Tables_number       1
_symmetry_cell_setting            triclinic
loop_
_symmetry_equiv_pos_as_xyz
'x, y, z'
_cell_length_a     36.15965
_cell_length_b     40.98957
_cell_length_c     16.22265
_cell_angle_alpha  99.165081
_cell_angle_beta   91.713052
_cell_angle_gamma 117.79457
loop_
_atom_site_label
_atom_site_type_symbol
_atom_site_fract_x
_atom_site_fract_y
_atom_site_fract_z
_atom_type_partial_charge
Cu0 Cu 0.04894 0.20845 0.03019 0.0
N1 N 1.00291 0.16017 -0.00171 0.0
N2 N 0.95993 0.09997 0.00392 0.0
C3 C 0.9905 0.13363 0.04587 0.0
C4 C 0.95245 0.10576 0.92686 0.0
C5 C 0.97897 0.14294 0.92364 0.0
O6 O 0.09868 0.20245 0.04578 0.0
C7 C 1.00448 0.239 0.11216 0.0
O8 O 0.97854 0.21852 0.04363 0.0
H9 H 1.00508 0.13853 0.10885 0.0
H10 H 0.98156 0.15609 0.86984 0.0
N11 N 0.05917 0.23795 0.94879 0.0
N12 N 0.08941 0.29246 0.90387 0.0
C13 C 0.07642 0.27556 0.97008 0.0
C14 C 0.06081 0.23035 0.86566 0.0
C15 C 0.07923 0.264 0.83756 0.0
C16 C 0.10657 0.18699 0.10089 0.0
O17 O 0.08294 0.17855 0.16222 0.0
H18 H 0.08138 0.29025 0.03431 0.0
H19 H 0.05205 0.20275 0.82934 0.0
O20 O 0.0381 0.23677 0.12514 0.0
H21 H 0.93012 0.08455 0.87576 0.0
H22 H 0.08724 0.2673 0.77459 0.0
Cu23 Cu 0.9009 0.8598 0.08596 0.0
N24 N 0.89946 0.90467 0.12364 0.0
N25 N 0.90703 0.96176 0.11936 0.0
C26 C 0.90992 0.93184 0.07825 0.0
C27 C 0.89424 0.95296 0.19401 0.0
C28 C 0.88951 0.91765 0.19639 0.0
O29 O 0.9558 0.87426 0.04727 0.0
C30 C 0.81769 0.82259 0.01947 0.0
O31 O 0.81536 0.84084 0.0917 0.0
H32 H 0.92044 0.92988 0.01679 0.0
H33 H 0.87954 0.9026 0.24741 0.0
N34 N 0.89311 0.83032 0.16695 0.0
N35 N 0.87161 0.77687 0.21499 0.0
C36 C 0.8745 0.79257 0.14686 0.0
C37 C 0.90259 0.83914 0.25107 0.0
C38 C 0.88944 0.80613 0.28094 0.0
C39 C 0.98791 0.89366 0.10221 0.0
O40 O 0.98201 0.90031 0.18131 0.0
H41 H 0.86371 0.77699 0.08284 0.0
H42 H 0.91782 0.86742 0.288 0.0
O43 O 0.85371 0.82813 -0.0004 0.0
H44 H 0.88848 0.9706 0.24324 0.0
H45 H 0.89225 0.80389 0.34615 0.0
Cu46 Cu 0.23944 0.03389 0.02911 0.0
N47 N 0.25049 1.01003 0.93287 0.0
N48 N 0.27146 0.97425 0.85081 0.0
C49 C 0.26894 0.98799 0.93045 0.0
C50 C 0.25405 0.98827 0.80141 0.0
C51 C 0.2413 1.01048 0.85227 0.0
O52 O 0.28774 0.05392 0.11358 0.0
C53 C 0.15468 0.98028 0.00992 0.0
O54 O 0.15811 0.98625 0.93265 0.0
H55 H 0.27963 0.98168 -0.01409 0.0
H56 H 0.22608 0.02564 0.83205 0.0
N57 N 0.23268 0.0744 0.00855 0.0
N58 N 0.21084 0.11764 0.0209 0.0
C59 C 0.20625 0.08571 0.04352 0.0
C60 C 0.25491 0.09993 0.9623 0.0
C61 C 0.24143 0.12657 0.96952 0.0
C62 C 0.32452 0.07149 0.09183 0.0
O63 O 0.32855 0.07456 0.01282 0.0
H64 H 0.18409 0.07066 0.08468 0.0
H65 H 0.27965 0.09955 0.92701 0.0
O66 O 0.18719 0.99809 0.06436 0.0
H67 H 0.25101 0.98303 0.73337 0.0
H68 H 0.25391 0.15099 0.94044 0.0
Cu69 Cu 0.76686 0.53518 0.34208 0.0
N70 N 0.71407 0.49259 0.31441 0.0
N71 N 0.66157 0.43659 0.32594 0.0
C72 C 0.70354 0.45976 0.33871 0.0
C73 C 0.64509 0.45548 0.29103 0.0
C74 C 0.6776 0.49006 0.28401 0.0
O75 O 0.80861 0.51788 0.34483 0.0
C76 C 0.73467 0.55545 0.48701 0.0
O77 O 0.71185 0.5192 0.48418 0.0
H78 H 0.72594 0.4543 0.37151 0.0
H79 H 0.67466 0.51261 0.2631 0.0
N80 N 0.77805 0.56577 0.2628 0.0
N81 N 0.80044 0.61939 0.21515 0.0
C82 C 0.79803 0.60356 0.28298 0.0
C83 C 0.76725 0.55704 0.17911 0.0
C84 C 0.78104 0.59015 0.14944 0.0
C85 C 0.81838 0.50687 0.40695 0.0
O86 O 0.80313 0.51079 0.47816 0.0
H87 H 0.80947 0.61905 0.34694 0.0
H88 H 0.75011 0.52873 0.14262 0.0
O89 O 0.76555 0.56684 0.44389 0.0
H90 H 0.61188 0.44562 0.27449 0.0
H91 H 0.77706 0.5924 0.08457 0.0
Cu92 Cu 0.5502 0.19046 0.4228 0.0
N93 N 0.55554 0.23855 0.45274 0.0
N94 N 0.57642 0.29837 0.44328 0.0
C95 C 0.58162 0.26788 0.41935 0.0
C96 C 0.54568 0.28781 0.49418 0.0
C97 C 0.53287 0.25082 0.49998 0.0
O98 O 0.60617 0.19658 0.41194 0.0
C99 C 0.47102 0.1546 0.33986 0.0
O100 O 0.46482 0.16538 0.41651 0.0
H101 H 0.60273 0.26636 0.37508 0.0
H102 H 0.50795 0.23382 0.53403 0.0
N103 N 0.53009 0.16068 0.50326 0.0
N104 N 0.50202 0.10677 0.55033 0.0
C105 C 0.51614 0.12345 0.48434 0.0
C106 C 0.52505 0.16832 0.5846 0.0
C107 C 0.50774 0.13495 0.61401 0.0
C108 C 0.62914 0.20869 0.3545 0.0
O109 O 0.61316 0.21391 0.28713 0.0
H110 H 0.51682 0.10905 0.42289 0.0
H111 H 0.53309 0.19596 0.61969 0.0
O112 O 0.50861 0.16372 0.32423 0.0
H113 H 0.53304 0.30534 0.52424 0.0
H114 H 0.4995 0.13171 0.67688 0.0
Cu115 Cu 0.92418 0.36384 0.43334 0.0
N116 N 0.96832 0.38252 0.52004 0.0
N117 N 0.0341 0.40634 0.58156 0.0
C118 C 1.00443 0.38028 0.51988 0.0
C119 C 1.01565 0.42483 0.62354 0.0
C120 C 0.97509 0.40995 0.5858 0.0
O121 O 0.93776 0.34164 0.33198 0.0
C122 C 0.89367 0.40859 0.36165 0.0
O123 O 0.88529 0.38537 0.2894 0.0
H124 H 1.0103 0.36248 0.47131 0.0
H125 H 0.95332 0.4207 0.60036 0.0
N126 N 0.87572 0.32481 0.45945 0.0
N127 N 0.80813 0.28096 0.44679 0.0
C128 C 0.83668 0.31187 0.42082 0.0
C129 C 0.87209 0.30141 0.51173 0.0
C130 C 0.83037 0.2744 0.5044 0.0
C131 C 0.97378 0.35316 0.30614 0.0
O132 O 1.00445 0.38681 0.33954 0.0
H133 H 0.82958 0.32494 0.37421 0.0
H134 H 0.89809 0.30333 0.55074 0.0
O135 O 0.91138 0.40445 0.4251 0.0
H136 H 1.03145 0.44924 0.67385 0.0
H137 H 0.81773 0.25124 0.53749 0.0
Cu138 Cu 0.40465 0.86467 0.67115 0.0
N139 N 0.36487 0.81495 0.62518 0.0
N140 N 0.32168 0.75424 0.62516 0.0
C141 C 0.34335 0.7893 0.67181 0.0
C142 C 0.32912 0.75827 0.54525 0.0
C143 C 0.35576 0.79575 0.54549 0.0
O144 O 0.45559 0.86359 0.70858 0.0
C145 C 0.34446 0.88198 0.72027 0.0
O146 O 0.33015 0.86336 0.64252 0.0
H147 H 0.34581 0.79607 0.73961 0.0
H148 H 0.36894 0.80768 0.49188 0.0
N149 N 0.41935 0.89625 0.59335 0.0
N150 N 0.44158 0.95054 0.54894 0.0
C151 C 0.42786 0.93239 0.61309 0.0
C152 C 0.42825 0.89122 0.5139 0.0
C153 C 0.44168 0.92466 0.48602 0.0
C154 C 0.45608 0.8409 0.7532 0.0
O155 O 0.42359 0.82353 0.79327 0.0
H156 H 0.42467 0.94525 0.67419 0.0
H157 H 0.42677 0.86566 0.4798 0.0
O158 O 0.37882 0.88516 0.75298 0.0
H159 H 0.31756 0.73567 0.49076 0.0
H160 H 0.45236 0.92991 0.42551 0.0
Cu161 Cu 0.26612 0.52661 0.77629 0.0
N162 N 0.26022 0.56972 0.79515 0.0
N163 N 0.26357 0.62275 0.76821 0.0
C164 C 0.27499 0.59582 0.74687 0.0
C165 C 0.24083 0.61318 0.8333 0.0
C166 C 0.23861 0.58023 0.84948 0.0
O167 O 0.32616 0.5435 0.78062 0.0
C168 C 0.21132 0.46293 0.64894 0.0
O169 O 0.22368 0.44244 0.68451 0.0
H170 H 0.29369 0.5948 0.69669 0.0
H171 H 0.22169 0.56463 0.89603 0.0
N172 N 0.24419 0.49804 0.85868 0.0
N173 N 0.203 0.44736 0.91091 0.0
C174 C 0.20553 0.46832 0.85284 0.0
C175 C 0.26649 0.49678 0.92471 0.0
C176 C 0.24118 0.46563 0.95721 0.0
C177 C 0.34683 0.55044 0.71788 0.0
O178 O 0.32649 0.54222 0.6427 0.0
H179 H 0.18065 0.46079 0.80336 0.0
H180 H 0.29979 0.51533 0.94331 0.0
O181 O 0.23256 0.49861 0.66878 0.0
H182 H 0.22598 0.6283 0.86559 0.0
H183 H 0.25139 0.45545 0.00612 0.0
Cu184 Cu 0.59958 0.69612 0.68679 0.0
N185 N 0.62154 0.67762 0.59939 0.0
N186 N 0.65379 0.64689 0.53735 0.0
C187 C 0.65478 0.67113 0.60521 0.0
C188 C 0.61903 0.63811 0.48636 0.0
C189 C 0.59941 0.65732 0.52442 0.0
O190 O 0.64113 0.72201 0.78508 0.0
C191 C 0.52609 0.65164 0.76378 0.0
O192 O 0.54241 0.67844 0.83123 0.0
H193 H 0.67707 0.68095 0.66083 0.0
H194 H 0.56888 0.65374 0.503 0.0
N195 N 0.58584 0.73161 0.65725 0.0
N196 N 0.55979 0.77188 0.66706 0.0
C197 C 0.56582 0.74714 0.70397 0.0
C198 C 0.59303 0.74703 0.58834 0.0
C199 C 0.57697 0.77188 0.59415 0.0
C200 C 0.66217 0.70965 0.82164 0.0
O201 O 0.65282 0.67415 0.80045 0.0
H202 H 0.55608 0.74041 0.76415 0.0
H203 H 0.60846 0.74041 0.53722 0.0
O204 O 0.54699 0.65374 0.70143 0.0
H205 H 0.60677 0.6168 0.42932 0.0
H206 H 0.57699 0.78788 0.54713 0.0
C207 C 0.16663 0.13271 0.11789 0.0
C208 C 0.18753 0.13757 0.04532 0.0
H209 H 0.12524 0.14486 0.19322 0.0
C210 C 0.18431 0.16151 -0.00431 0.0
H211 H 0.16901 0.11516 0.15871 0.0
C212 C 0.15962 0.17893 0.01613 0.0
C213 C 0.13737 0.17284 0.0867 0.0
H214 H 0.19963 0.16586 0.93918 0.0
H215 H 0.15693 0.19622 0.9748 0.0
C216 C 0.14184 0.15012 0.1383 0.0
C217 C 0.9307 0.03027 0.14767 0.0
C218 C 0.91734 0.99625 0.09027 0.0
H219 H 0.95406 0.08974 0.16536 0.0
C220 C 0.91569 0.99673 0.00369 0.0
H221 H 0.93252 0.03107 0.21471 0.0
C222 C 0.92837 0.03046 0.97532 0.0
C223 C 0.94315 0.06469 0.03276 0.0
H224 H 0.90489 0.97102 0.95755 0.0
H225 H 0.92784 0.02978 0.90835 0.0
C226 C 0.94348 0.06404 0.11929 0.0
C227 C 0.0661 0.93243 0.1398 0.0
C228 C 1.03109 0.91237 0.07767 0.0
H229 H 0.13257 0.96936 0.16741 0.0
C230 C 0.03765 0.91281 -0.00711 0.0
H231 H 0.06222 0.93258 0.20578 0.0
C232 C 0.07801 0.93408 0.97102 0.0
C233 C 0.11279 0.95522 0.03335 0.0
H234 H 1.01143 0.89771 0.9435 0.0
H235 H 0.08174 0.93454 0.90515 0.0
C236 C 0.10651 0.95352 0.11789 0.0
C237 C 0.86294 0.44517 0.30283 0.0
C238 C 0.87829 0.43674 0.37261 0.0
H239 H 0.83273 0.47445 0.25884 0.0
C240 C 0.87647 0.45382 0.4538 0.0
H241 H 0.86395 0.4326 0.2395 0.0
C242 C 0.85812 0.47744 0.46496 0.0
C243 C 0.84175 0.48507 0.39526 0.0
H244 H 0.88793 0.44796 0.50909 0.0
H245 H 0.85608 0.48917 0.52832 0.0
C246 C 0.84518 0.46929 0.31401 0.0
C247 C 0.63853 0.34576 0.39103 0.0
C248 C 0.59786 0.33363 0.41514 0.0
H249 H 0.69023 0.38748 0.34259 0.0
C250 C 0.5782 0.35586 0.40852 0.0
H251 H 0.6548 0.32958 0.39605 0.0
C252 C 0.59869 0.38929 0.37792 0.0
C253 C 0.63942 0.40136 0.35393 0.0
H254 H 0.54676 0.34716 0.42579 0.0
H255 H 0.58289 0.40596 0.3744 0.0
C256 C 0.65902 0.37915 0.36092 0.0
C257 C 0.69202 0.21947 0.44722 0.0
C258 C 0.6752 0.22318 0.37206 0.0
H259 H 0.74701 0.2352 0.53042 0.0
C260 C 0.70305 0.24407 0.31893 0.0
H261 H 0.67154 0.20356 0.48977 0.0
C262 C 0.74663 0.26218 0.34228 0.0
C263 C 0.76339 0.25989 0.4194 0.0
H264 H 0.69122 0.24746 0.26052 0.0
H265 H 0.76706 0.27835 0.30017 0.0
C266 C 0.73549 0.2376 0.47059 0.0
C267 C 0.48291 0.7962 0.77609 0.0
C268 C 0.48748 0.82724 0.74237 0.0
H269 H 0.5015 0.75393 0.77773 0.0
C270 C 0.51886 0.84172 0.6891 0.0
H271 H 0.45901 0.78418 0.81706 0.0
C272 C 0.54344 0.82432 0.66651 0.0
C273 C 0.53729 0.792 0.69658 0.0
H274 H 0.52339 0.86567 0.66212 0.0
H275 H 0.56671 0.83583 0.62416 0.0
C276 C 0.50743 0.77878 0.75341 0.0
C277 C 0.29878 0.68628 0.6111 0.0
C278 C 0.302 0.71977 0.65712 0.0
H279 H 0.28336 0.62918 0.60933 0.0
C280 C 0.28891 0.71971 0.73804 0.0
H281 H 0.30854 0.68505 0.54884 0.0
C282 C 0.27517 0.68766 0.77367 0.0
C283 C 0.274 0.65479 0.72913 0.0
H284 H 0.29011 0.74471 0.77481 0.0
H285 H 0.26692 0.68913 0.8372 0.0
C286 C 0.28489 0.65423 0.64654 0.0
C287 C 0.41708 0.57642 0.66302 0.0
C288 C 0.39348 0.57252 0.73144 0.0
H289 H 0.47743 0.60379 0.61978 0.0
C290 C 0.41462 0.59245 0.81217 0.0
H291 H 0.40183 0.56139 0.60014 0.0
C292 C 0.458 0.61721 0.82343 0.0
C293 C 0.48131 0.62217 0.75444 0.0
H294 H 0.39738 0.59015 0.86632 0.0
H295 H 0.47303 0.63318 0.88584 0.0
C296 C 0.46051 0.60072 0.67446 0.0
C297 C 0.11806 0.34754 0.83414 0.0
C298 C 0.11508 0.33233 0.90694 0.0
H299 H 0.14809 0.3959 0.77812 0.0
C300 C 0.13917 0.35657 -0.01758 0.0
H301 H 0.09967 0.32991 0.77524 0.0
C302 C 0.16656 0.39454 -0.01567 0.0
C303 C 0.17078 0.40942 0.91095 0.0
H304 H 0.13829 0.34614 0.03987 0.0
H305 H 0.1852 0.41211 0.04308 0.0
C306 C 0.14552 0.38562 0.83612 0.0
C307 C 0.77579 0.76069 0.9203 0.0
C308 C 0.77839 0.79376 0.96721 0.0
H309 H 0.73622 0.70728 0.8395 0.0
C310 C 0.74206 0.79803 0.96901 0.0
H311 H 0.80322 0.75648 0.91903 0.0
C312 C 0.70405 0.77023 0.92317 0.0
C313 C 0.70128 0.73707 0.87651 0.0
H314 H 0.74316 0.82315 0.00518 0.0
H315 H 0.67678 0.77468 0.92406 0.0
C316 C 0.73738 0.73235 0.87605 0.0
C317 C 0.34148 0.92908 0.83741 0.0
C318 C 0.32375 0.90305 0.76107 0.0
H319 H 0.33844 0.97246 0.9262 0.0
C320 C 0.2871 0.89933 0.71848 0.0
H321 H 0.36975 0.93267 0.87156 0.0
C322 C 0.26973 0.92221 0.74893 0.0
C323 C 0.28816 0.94914 0.82334 0.0
H324 H 0.27227 0.87938 0.65987 0.0
H325 H 0.24194 0.91902 0.71376 0.0
C326 C 0.32363 0.95182 0.86858 0.0
C327 C 0.39353 0.11506 0.30055 0.0
C328 C 0.43419 0.13159 0.27543 0.0
H329 H 0.3272 0.0828 0.2627 0.0
C330 C 0.43864 0.12652 0.18943 0.0
H331 H 0.38899 0.1181 0.36648 0.0
C332 C 0.40297 0.10635 0.12968 0.0
C333 C 0.36227 0.09054 0.15497 0.0
H334 H 0.46954 0.13883 0.16825 0.0
H335 H 0.40729 0.10353 0.06364 0.0
C336 C 0.35802 0.09462 0.24109 0.0
C337 C 1.03059 0.30076 0.21267 0.0
C338 C 0.9971 0.26794 0.16455 0.0
H339 H 0.04971 0.35416 0.29338 0.0
C340 C 0.95646 0.26433 0.16043 0.0
H341 H 0.06237 0.30458 0.21588 0.0
C342 C 0.94924 0.29259 0.20435 0.0
C343 C 0.9826 0.32545 0.25243 0.0
H344 H 0.93005 0.2395 0.12335 0.0
H345 H 0.91738 0.28858 0.20103 0.0
C346 C 1.02345 0.3294 0.25577 0.0
C347 C 0.80526 0.67187 0.15031 0.0
C348 C 0.81862 0.65913 0.21465 0.0
H349 H 0.81078 0.71907 0.10093 0.0
C350 C 0.84957 0.68597 0.27959 0.0
H351 H 0.78104 0.65217 0.10013 0.0
C352 C 0.86664 0.72447 0.2802 0.0
C353 C 0.85335 0.73717 0.21573 0.0
H354 H 0.86115 0.67729 0.32958 0.0
H355 H 0.89081 0.74425 0.3304 0.0
C356 C 0.82236 0.71036 0.15088 0.0
C357 C 0.14992 0.47062 0.60174 0.0
C358 C 0.1665 0.4465 0.61378 0.0
H359 H 0.09466 0.47657 0.58362 0.0
C360 C 0.13848 0.4078 0.60569 0.0
H361 H 0.1703 0.50051 0.60683 0.0
C362 C 0.0948 0.39411 0.59163 0.0
C363 C 0.07861 0.419 0.58673 0.0
H364 H 0.15013 0.38842 0.6144 0.0
H365 H 0.07364 0.36454 0.58882 0.0
C366 C 0.10655 0.45707 0.5893 0.0
C367 C 0.67397 0.56506 0.52906 0.0
C368 C 0.7165 0.58067 0.51465 0.0
H369 H 0.62064 0.57419 0.54579 0.0
C370 C 0.73899 0.61949 0.51448 0.0
H371 H 0.65552 0.53533 0.52927 0.0
C372 C 0.71881 0.64172 0.52487 0.0
C373 C 0.67578 0.62532 0.53391 0.0
H374 H 0.77172 0.63239 0.50324 0.0
H375 H 0.73623 0.6713 0.52247 0.0
C376 C 0.65378 0.5871 0.53774 0.0
C377 C 0.47235 0.01655 0.62558 0.0
C378 C 0.45565 0.98984 0.54985 0.0
H379 H 0.50055 0.07464 0.68512 0.0
C380 C 0.45318 1.00218 0.47504 0.0
H381 H 0.47521 1.0081 0.6843 0.0
C382 C 0.46752 0.04031 0.47564 0.0
C383 C 0.48506 0.06719 0.55104 0.0
H384 H 0.43981 0.98229 0.41601 0.0
H385 H 0.46464 0.04863 0.41678 0.0
C386 C 0.48689 0.05477 0.62616 0.0
loop_
_geom_bond_atom_site_label_1
_geom_bond_atom_site_label_2
_geom_bond_distance
_geom_bond_site_symmetry_2
_ccdc_geom_bond_type
Cu0 N1 1.999 1_455 S
Cu0 O6 1.974 . S
Cu0 N11 1.985 . S
Cu0 O20 1.959 1_455 S
N1 Cu0 1.999 1_655 S
N1 C3 1.263 . S
N1 C5 1.389 . S
N2 C3 1.358 . S
N2 C4 1.400 . S
C3 N1 1.263 . S
C3 N2 1.358 . S
C3 H9 0.930 1_655 S
C4 N2 1.400 . S
C4 C5 1.351 . S
C4 H21 0.930 . S
C5 N1 1.389 . S
C5 C4 1.351 . S
C5 H10 0.930 . S
O6 Cu0 1.974 . S
O6 C16 1.282 . S
C7 O8 1.261 1_655 S
C7 O20 1.251 . S
O8 C7 1.261 1_455 S
H9 C3 0.930 1_455 S
H10 C5 0.930 . S
N11 Cu0 1.985 . S
N11 C13 1.335 . S
N11 C14 1.390 . S
N12 C13 1.345 . S
N12 C15 1.336 . S
C13 N11 1.335 . S
C13 N12 1.345 . S
C13 H18 0.930 1_554 S
C14 N11 1.390 . S
C14 C15 1.346 . S
C14 H19 0.930 . S
C15 N12 1.336 . S
C15 C14 1.346 . S
C15 H22 0.929 . S
C16 O6 1.282 . S
C16 O17 1.216 . S
O17 C16 1.216 . S
H18 C13 0.930 1_556 S
H19 C14 0.930 . S
O20 Cu0 1.959 1_655 S
O20 C7 1.251 . S
H21 C4 0.930 . S
H22 C15 0.929 . S
Cu23 N24 1.999 . S
Cu23 O29 1.974 . S
Cu23 N34 1.985 . S
Cu23 O43 1.959 . S
N24 Cu23 1.999 . S
N24 C26 1.263 . S
N24 C28 1.389 . S
N25 C26 1.358 . S
N25 C27 1.400 . S
C26 N24 1.263 . S
C26 N25 1.358 . S
C26 H32 0.930 . S
C27 N25 1.400 . S
C27 C28 1.351 . S
C27 H44 0.930 . S
C28 N24 1.389 . S
C28 C27 1.351 . S
C28 H33 0.930 . S
O29 Cu23 1.974 . S
O29 C39 1.282 . S
C30 O31 1.261 1_554 S
C30 O43 1.251 . S
O31 C30 1.261 1_556 S
H32 C26 0.930 . S
H33 C28 0.930 . S
N34 Cu23 1.985 . S
N34 C36 1.335 . S
N34 C37 1.390 . S
N35 C36 1.345 . S
N35 C38 1.336 . S
C36 N34 1.335 . S
C36 N35 1.345 . S
C36 H41 0.930 . S
C37 N34 1.390 . S
C37 C38 1.346 . S
C37 H42 0.930 . S
C38 N35 1.336 . S
C38 C37 1.346 . S
C38 H45 0.929 . S
C39 O29 1.282 . S
C39 O40 1.216 . S
O40 C39 1.216 . S
H41 C36 0.930 . S
H42 C37 0.930 . S
O43 Cu23 1.959 . S
O43 C30 1.251 . S
H44 C27 0.930 . S
H45 C38 0.929 . S
Cu46 N47 1.999 1_545 S
Cu46 O52 1.974 . S
Cu46 N57 1.985 . S
Cu46 O66 1.959 1_545 S
N47 Cu46 1.999 1_565 S
N47 C49 1.263 . S
N47 C51 1.389 1_554 S
N48 C49 1.358 1_556 S
N48 C50 1.400 . S
C49 N47 1.263 . S
C49 N48 1.358 1_554 S
C49 H55 0.930 . S
C50 N48 1.400 . S
C50 C51 1.351 . S
C50 H67 0.930 . S
C51 N47 1.389 1_556 S
C51 C50 1.351 . S
C51 H56 0.930 . S
O52 Cu46 1.974 . S
O52 C62 1.282 . S
C53 O54 1.261 . S
C53 O66 1.251 . S
O54 C53 1.261 . S
H55 C49 0.930 . S
H56 C51 0.930 . S
N57 Cu46 1.985 . S
N57 C59 1.335 . S
N57 C60 1.390 . S
N58 C59 1.345 . S
N58 C61 1.336 . S
C59 N57 1.335 . S
C59 N58 1.345 . S
C59 H64 0.930 . S
C60 N57 1.390 . S
C60 C61 1.346 . S
C60 H65 0.930 . S
C61 N58 1.336 . S
C61 C60 1.346 . S
C61 H68 0.929 . S
C62 O52 1.282 . S
C62 O63 1.216 . S
O63 C62 1.216 . S
H64 C59 0.930 . S
H65 C60 0.930 . S
O66 Cu46 1.959 1_565 S
O66 C53 1.251 . S
H67 C50 0.930 . S
H68 C61 0.929 . S
Cu69 N70 1.999 . S
Cu69 O75 1.974 . S
Cu69 N80 1.985 . S
Cu69 O89 1.959 . S
N70 Cu69 1.999 . S
N70 C72 1.263 . S
N70 C74 1.389 . S
N71 C72 1.358 . S
N71 C73 1.400 . S
C72 N70 1.263 . S
C72 N71 1.358 . S
C72 H78 0.930 . S
C73 N71 1.400 . S
C73 C74 1.351 . S
C73 H90 0.930 . S
C74 N70 1.389 . S
C74 C73 1.351 . S
C74 H79 0.930 . S
O75 Cu69 1.974 . S
O75 C85 1.282 . S
C76 O77 1.261 . S
C76 O89 1.251 . S
O77 C76 1.261 . S
H78 C72 0.930 . S
H79 C74 0.930 . S
N80 Cu69 1.985 . S
N80 C82 1.335 . S
N80 C83 1.390 . S
N81 C82 1.345 . S
N81 C84 1.336 . S
C82 N80 1.335 . S
C82 N81 1.345 . S
C82 H87 0.930 . S
C83 N80 1.390 . S
C83 C84 1.346 . S
C83 H88 0.930 . S
C84 N81 1.336 . S
C84 C83 1.346 . S
C84 H91 0.929 . S
C85 O75 1.282 . S
C85 O86 1.216 . S
O86 C85 1.216 . S
H87 C82 0.930 . S
H88 C83 0.930 . S
O89 Cu69 1.959 . S
O89 C76 1.251 . S
H90 C73 0.930 . S
H91 C84 0.929 . S
Cu92 N93 1.999 . S
Cu92 O98 1.974 . S
Cu92 N103 1.985 . S
Cu92 O112 1.959 . S
N93 Cu92 1.999 . S
N93 C95 1.263 . S
N93 C97 1.389 . S
N94 C95 1.358 . S
N94 C96 1.400 . S
C95 N93 1.263 . S
C95 N94 1.358 . S
C95 H101 0.930 . S
C96 N94 1.400 . S
C96 C97 1.351 . S
C96 H113 0.930 . S
C97 N93 1.389 . S
C97 C96 1.351 . S
C97 H102 0.930 . S
O98 Cu92 1.974 . S
O98 C108 1.282 . S
C99 O100 1.261 . S
C99 O112 1.251 . S
O100 C99 1.261 . S
H101 C95 0.930 . S
H102 C97 0.930 . S
N103 Cu92 1.985 . S
N103 C105 1.335 . S
N103 C106 1.390 . S
N104 C105 1.345 . S
N104 C107 1.336 . S
C105 N103 1.335 . S
C105 N104 1.345 . S
C105 H110 0.930 . S
C106 N103 1.390 . S
C106 C107 1.346 . S
C106 H111 0.930 . S
C107 N104 1.336 . S
C107 C106 1.346 . S
C107 H114 0.929 . S
C108 O98 1.282 . S
C108 O109 1.216 . S
O109 C108 1.216 . S
H110 C105 0.930 . S
H111 C106 0.930 . S
O112 Cu92 1.959 . S
O112 C99 1.251 . S
H113 C96 0.930 . S
H114 C107 0.929 . S
Cu115 N116 1.999 . S
Cu115 O121 1.974 . S
Cu115 N126 1.985 . S
Cu115 O135 1.959 . S
N116 Cu115 1.999 . S
N116 C118 1.263 . S
N116 C120 1.389 . S
N117 C118 1.358 . S
N117 C119 1.400 . S
C118 N116 1.263 . S
C118 N117 1.358 . S
C118 H124 0.930 . S
C119 N117 1.400 . S
C119 C120 1.351 . S
C119 H136 0.930 . S
C120 N116 1.389 . S
C120 C119 1.351 . S
C120 H125 0.930 . S
O121 Cu115 1.974 . S
O121 C131 1.282 . S
C122 O123 1.261 . S
C122 O135 1.251 . S
O123 C122 1.261 . S
H124 C118 0.930 . S
H125 C120 0.930 . S
N126 Cu115 1.985 . S
N126 C128 1.335 . S
N126 C129 1.390 . S
N127 C128 1.345 . S
N127 C130 1.336 . S
C128 N126 1.335 . S
C128 N127 1.345 . S
C128 H133 0.930 . S
C129 N126 1.390 . S
C129 C130 1.346 . S
C129 H134 0.930 . S
C130 N127 1.336 . S
C130 C129 1.346 . S
C130 H137 0.929 . S
C131 O121 1.282 . S
C131 O132 1.216 . S
O132 C131 1.216 . S
H133 C128 0.930 . S
H134 C129 0.930 . S
O135 Cu115 1.959 . S
O135 C122 1.251 . S
H136 C119 0.930 . S
H137 C130 0.929 . S
Cu138 N139 1.999 . S
Cu138 O144 1.974 . S
Cu138 N149 1.985 . S
Cu138 O158 1.959 . S
N139 Cu138 1.999 . S
N139 C141 1.263 . S
N139 C143 1.389 . S
N140 C141 1.358 . S
N140 C142 1.400 . S
C141 N139 1.263 . S
C141 N140 1.358 . S
C141 H147 0.930 . S
C142 N140 1.400 . S
C142 C143 1.351 . S
C142 H159 0.930 . S
C143 N139 1.389 . S
C143 C142 1.351 . S
C143 H148 0.930 . S
O144 Cu138 1.974 . S
O144 C154 1.282 . S
C145 O146 1.261 . S
C145 O158 1.251 . S
O146 C145 1.261 . S
H147 C141 0.930 . S
H148 C143 0.930 . S
N149 Cu138 1.985 . S
N149 C151 1.335 . S
N149 C152 1.390 . S
N150 C151 1.345 . S
N150 C153 1.336 . S
C151 N149 1.335 . S
C151 N150 1.345 . S
C151 H156 0.930 . S
C152 N149 1.390 . S
C152 C153 1.346 . S
C152 H157 0.930 . S
C153 N150 1.336 . S
C153 C152 1.346 . S
C153 H160 0.929 . S
C154 O144 1.282 . S
C154 O155 1.216 . S
O155 C154 1.216 . S
H156 C151 0.930 . S
H157 C152 0.930 . S
O158 Cu138 1.959 . S
O158 C145 1.251 . S
H159 C142 0.930 . S
H160 C153 0.929 . S
Cu161 N162 1.999 . S
Cu161 O167 1.974 . S
Cu161 N172 1.985 . S
Cu161 O181 1.959 . S
N162 Cu161 1.999 . S
N162 C164 1.263 . S
N162 C166 1.389 . S
N163 C164 1.358 . S
N163 C165 1.400 . S
C164 N162 1.263 . S
C164 N163 1.358 . S
C164 H170 0.930 . S
C165 N163 1.400 . S
C165 C166 1.351 . S
C165 H182 0.930 . S
C166 N162 1.389 . S
C166 C165 1.351 . S
C166 H171 0.930 . S
O167 Cu161 1.974 . S
O167 C177 1.282 . S
C168 O169 1.261 . S
C168 O181 1.251 . S
O169 C168 1.261 . S
H170 C164 0.930 . S
H171 C166 0.930 . S
N172 Cu161 1.985 . S
N172 C174 1.335 . S
N172 C175 1.390 . S
N173 C174 1.345 . S
N173 C176 1.336 . S
C174 N172 1.335 . S
C174 N173 1.345 . S
C174 H179 0.930 . S
C175 N172 1.390 . S
C175 C176 1.346 . S
C175 H180 0.930 . S
C176 N173 1.336 . S
C176 C175 1.346 . S
C176 H183 0.929 . S
C177 O167 1.282 . S
C177 O178 1.216 . S
O178 C177 1.216 . S
H179 C174 0.930 . S
H180 C175 0.930 . S
O181 Cu161 1.959 . S
O181 C168 1.251 . S
H182 C165 0.930 . S
H183 C176 0.929 . S
Cu184 N185 1.999 . S
Cu184 O190 1.974 . S
Cu184 N195 1.985 . S
Cu184 O204 1.959 . S
N185 Cu184 1.999 . S
N185 C187 1.263 . S
N185 C189 1.389 . S
N186 C187 1.358 . S
N186 C188 1.400 . S
C187 N185 1.263 . S
C187 N186 1.358 . S
C187 H193 0.930 . S
C188 N186 1.400 . S
C188 C189 1.351 . S
C188 H205 0.930 . S
C189 N185 1.389 . S
C189 C188 1.351 . S
C189 H194 0.930 . S
O190 Cu184 1.974 . S
O190 C200 1.282 . S
C191 O192 1.261 . S
C191 O204 1.251 . S
O192 C191 1.261 . S
H193 C187 0.930 . S
H194 C189 0.930 . S
N195 Cu184 1.985 . S
N195 C197 1.335 . S
N195 C198 1.390 . S
N196 C197 1.345 . S
N196 C199 1.336 . S
C197 N195 1.335 . S
C197 N196 1.345 . S
C197 H202 0.930 . S
C198 N195 1.390 . S
C198 C199 1.346 . S
C198 H203 0.930 . S
C199 N196 1.336 . S
C199 C198 1.346 . S
C199 H206 0.929 . S
C200 O190 1.282 . S
C200 O201 1.216 . S
O201 C200 1.216 . S
H202 C197 0.930 . S
H203 C198 0.930 . S
O204 Cu184 1.959 . S
O204 C191 1.251 . S
H205 C188 0.930 . S
H206 C199 0.929 . S
C207 C208 1.387 . S
C207 H211 0.950 . S
C207 C216 1.390 . S
C208 C207 1.387 . S
C208 C210 1.387 . S
H209 C216 0.950 . S
C210 C208 1.387 . S
C210 C212 1.390 . S
C210 H214 0.950 . S
H211 C207 0.950 . S
C212 C210 1.390 . S
C212 C213 1.387 . S
C212 H215 0.950 1_554 S
C213 C212 1.387 . S
C213 C216 1.387 . S
H214 C210 0.950 . S
H215 C212 0.950 1_556 S
C216 C207 1.390 . S
C216 H209 0.950 . S
C216 C213 1.387 . S
C217 C218 1.387 . S
C217 H221 0.950 . S
C217 C226 1.390 1_565 S
C218 C217 1.387 . S
C218 C220 1.387 1_564 S
H219 C226 0.950 . S
C220 C218 1.387 1_546 S
C220 C222 1.390 1_556 S
C220 H224 0.950 1_545 S
H221 C217 0.950 . S
C222 C220 1.390 1_554 S
C222 C223 1.387 . S
C222 H225 0.950 1_554 S
C223 C222 1.387 . S
C223 C226 1.387 . S
H224 C220 0.950 1_565 S
H225 C222 0.950 1_556 S
C226 C217 1.390 1_545 S
C226 H219 0.950 . S
C226 C223 1.387 . S
C227 C228 1.387 1_455 S
C227 H231 0.950 1_454 S
C227 C236 1.390 . S
C228 C227 1.387 1_655 S
C228 C230 1.387 1_655 S
H229 C236 0.950 1_556 S
C230 C228 1.387 1_455 S
C230 C232 1.390 . S
C230 H234 0.950 . S
H231 C227 0.950 1_656 S
C232 C230 1.390 . S
C232 C233 1.387 . S
C232 H235 0.950 . S
C233 C232 1.387 . S
C233 C236 1.387 . S
H234 C230 0.950 . S
H235 C232 0.950 . S
C236 C227 1.390 . S
C236 H229 0.950 1_554 S
C236 C233 1.387 . S
C237 C238 1.387 . S
C237 H241 0.950 . S
C237 C246 1.390 . S
C238 C237 1.387 . S
C238 C240 1.387 . S
H239 C246 0.950 . S
C240 C238 1.387 . S
C240 C242 1.390 . S
C240 H244 0.950 . S
H241 C237 0.950 . S
C242 C240 1.390 . S
C242 C243 1.387 . S
C242 H245 0.950 . S
C243 C242 1.387 . S
C243 C246 1.387 . S
H244 C240 0.950 . S
H245 C242 0.950 . S
C246 C237 1.390 . S
C246 H239 0.950 . S
C246 C243 1.387 . S
C247 C248 1.387 . S
C247 H251 0.950 . S
C247 C256 1.390 . S
C248 C247 1.387 . S
C248 C250 1.387 . S
H249 C256 0.950 . S
C250 C248 1.387 . S
C250 C252 1.390 . S
C250 H254 0.950 . S
H251 C247 0.950 . S
C252 C250 1.390 . S
C252 C253 1.387 . S
C252 H255 0.950 . S
C253 C252 1.387 . S
C253 C256 1.387 . S
H254 C250 0.950 . S
H255 C252 0.950 . S
C256 C247 1.390 . S
C256 H249 0.950 . S
C256 C253 1.387 . S
C257 C258 1.387 . S
C257 H261 0.950 . S
C257 C266 1.390 . S
C258 C257 1.387 . S
C258 C260 1.387 . S
H259 C266 0.950 . S
C260 C258 1.387 . S
C260 C262 1.390 . S
C260 H264 0.950 . S
H261 C257 0.950 . S
C262 C260 1.390 . S
C262 C263 1.387 . S
C262 H265 0.950 . S
C263 C262 1.387 . S
C263 C266 1.387 . S
H264 C260 0.950 . S
H265 C262 0.950 . S
C266 C257 1.390 . S
C266 H259 0.950 . S
C266 C263 1.387 . S
C267 C268 1.387 . S
C267 H271 0.950 . S
C267 C276 1.390 . S
C268 C267 1.387 . S
C268 C270 1.387 . S
H269 C276 0.950 . S
C270 C268 1.387 . S
C270 C272 1.390 . S
C270 H274 0.950 . S
H271 C267 0.950 . S
C272 C270 1.390 . S
C272 C273 1.387 . S
C272 H275 0.950 . S
C273 C272 1.387 . S
C273 C276 1.387 . S
H274 C270 0.950 . S
H275 C272 0.950 . S
C276 C267 1.390 . S
C276 H269 0.950 . S
C276 C273 1.387 . S
C277 C278 1.387 . S
C277 H281 0.950 . S
C277 C286 1.390 . S
C278 C277 1.387 . S
C278 C280 1.387 . S
H279 C286 0.950 . S
C280 C278 1.387 . S
C280 C282 1.390 . S
C280 H284 0.950 . S
H281 C277 0.950 . S
C282 C280 1.390 . S
C282 C283 1.387 . S
C282 H285 0.950 . S
C283 C282 1.387 . S
C283 C286 1.387 . S
H284 C280 0.950 . S
H285 C282 0.950 . S
C286 C277 1.390 . S
C286 H279 0.950 . S
C286 C283 1.387 . S
C287 C288 1.387 . S
C287 H291 0.950 . S
C287 C296 1.390 . S
C288 C287 1.387 . S
C288 C290 1.387 . S
H289 C296 0.950 . S
C290 C288 1.387 . S
C290 C292 1.390 . S
C290 H294 0.950 . S
H291 C287 0.950 . S
C292 C290 1.390 . S
C292 C293 1.387 . S
C292 H295 0.950 . S
C293 C292 1.387 . S
C293 C296 1.387 . S
H294 C290 0.950 . S
H295 C292 0.950 . S
C296 C287 1.390 . S
C296 H289 0.950 . S
C296 C293 1.387 . S
C297 C298 1.387 . S
C297 H301 0.950 . S
C297 C306 1.390 . S
C298 C297 1.387 . S
C298 C300 1.387 . S
H299 C306 0.950 . S
C300 C298 1.387 . S
C300 C302 1.390 . S
C300 H304 0.950 1_556 S
H301 C297 0.950 . S
C302 C300 1.390 . S
C302 C303 1.387 . S
C302 H305 0.950 . S
C303 C302 1.387 . S
C303 C306 1.387 . S
H304 C300 0.950 1_554 S
H305 C302 0.950 . S
C306 C297 1.390 . S
C306 H299 0.950 . S
C306 C303 1.387 . S
C307 C308 1.387 . S
C307 H311 0.950 . S
C307 C316 1.390 . S
C308 C307 1.387 . S
C308 C310 1.387 . S
H309 C316 0.950 . S
C310 C308 1.387 . S
C310 C312 1.390 . S
C310 H314 0.950 . S
H311 C307 0.950 . S
C312 C310 1.390 . S
C312 C313 1.387 . S
C312 H315 0.950 . S
C313 C312 1.387 . S
C313 C316 1.387 . S
H314 C310 0.950 . S
H315 C312 0.950 . S
C316 C307 1.390 . S
C316 H309 0.950 . S
C316 C313 1.387 . S
C317 C318 1.387 . S
C317 H321 0.950 . S
C317 C326 1.390 . S
C318 C317 1.387 . S
C318 C320 1.387 . S
H319 C326 0.950 . S
C320 C318 1.387 . S
C320 C322 1.390 . S
C320 H324 0.950 . S
H321 C317 0.950 . S
C322 C320 1.390 . S
C322 C323 1.387 . S
C322 H325 0.950 . S
C323 C322 1.387 . S
C323 C326 1.387 . S
H324 C320 0.950 . S
H325 C322 0.950 . S
C326 C317 1.390 . S
C326 H319 0.950 . S
C326 C323 1.387 . S
C327 C328 1.387 . S
C327 H331 0.950 . S
C327 C336 1.390 . S
C328 C327 1.387 . S
C328 C330 1.387 . S
H329 C336 0.950 . S
C330 C328 1.387 . S
C330 C332 1.390 . S
C330 H334 0.950 . S
H331 C327 0.950 . S
C332 C330 1.390 . S
C332 C333 1.387 . S
C332 H335 0.950 . S
C333 C332 1.387 . S
C333 C336 1.387 . S
H334 C330 0.950 . S
H335 C332 0.950 . S
C336 C327 1.390 . S
C336 H329 0.950 . S
C336 C333 1.387 . S
C337 C338 1.387 . S
C337 H341 0.950 . S
C337 C346 1.390 . S
C338 C337 1.387 . S
C338 C340 1.387 . S
H339 C346 0.950 . S
C340 C338 1.387 . S
C340 C342 1.390 . S
C340 H344 0.950 . S
H341 C337 0.950 . S
C342 C340 1.390 . S
C342 C343 1.387 . S
C342 H345 0.950 . S
C343 C342 1.387 . S
C343 C346 1.387 . S
H344 C340 0.950 . S
H345 C342 0.950 . S
C346 C337 1.390 . S
C346 H339 0.950 . S
C346 C343 1.387 . S
C347 C348 1.387 . S
C347 H351 0.950 . S
C347 C356 1.390 . S
C348 C347 1.387 . S
C348 C350 1.387 . S
H349 C356 0.950 . S
C350 C348 1.387 . S
C350 C352 1.390 . S
C350 H354 0.950 . S
H351 C347 0.950 . S
C352 C350 1.390 . S
C352 C353 1.387 . S
C352 H355 0.950 . S
C353 C352 1.387 . S
C353 C356 1.387 . S
H354 C350 0.950 . S
H355 C352 0.950 . S
C356 C347 1.390 . S
C356 H349 0.950 . S
C356 C353 1.387 . S
C357 C358 1.387 . S
C357 H361 0.950 . S
C357 C366 1.390 . S
C358 C357 1.387 . S
C358 C360 1.387 . S
H359 C366 0.950 . S
C360 C358 1.387 . S
C360 C362 1.390 . S
C360 H364 0.950 . S
H361 C357 0.950 . S
C362 C360 1.390 . S
C362 C363 1.387 . S
C362 H365 0.950 . S
C363 C362 1.387 . S
C363 C366 1.387 . S
H364 C360 0.950 . S
H365 C362 0.950 . S
C366 C357 1.390 . S
C366 H359 0.950 . S
C366 C363 1.387 . S
C367 C368 1.387 . S
C367 H371 0.950 . S
C367 C376 1.390 . S
C368 C367 1.387 . S
C368 C370 1.387 . S
H369 C376 0.950 . S
C370 C368 1.387 . S
C370 C372 1.390 . S
C370 H374 0.950 . S
H371 C367 0.950 . S
C372 C370 1.390 . S
C372 C373 1.387 . S
C372 H375 0.950 . S
C373 C372 1.387 . S
C373 C376 1.387 . S
H374 C370 0.950 . S
H375 C372 0.950 . S
C376 C367 1.390 . S
C376 H369 0.950 . S
C376 C373 1.387 . S
C377 C378 1.387 1_545 S
C377 H381 0.950 . S
C377 C386 1.390 . S
C378 C377 1.387 1_565 S
C378 C380 1.387 . S
H379 C386 0.950 . S
C380 C378 1.387 . S
C380 C382 1.398 . S
C380 H384 0.950 . S
H381 C377 0.950 . S
C382 C380 1.398 . S
C382 C383 1.379 1_565 S
C382 H385 0.951 . S
C383 C382 1.379 1_545 S
C383 C386 1.387 . S
H384 C380 0.950 . S
H385 C382 0.951 . S
C386 C377 1.390 . S
C386 H379 0.950 . S
C386 C383 1.387 . S
C208 N58 1.429 . S
C213 C16 1.401 . S
C218 N25 1.310 . S
C223 N2 1.340 . S
C228 C39 1.570 . S
C233 C53 1.602 . S
C238 C122 1.662 . S
C243 C85 1.621 . S
C248 N94 1.266 . S
C253 N71 1.236 . S
C258 C108 1.444 . S
C263 N127 1.481 . S
C268 C154 1.453 . S
C273 N196 1.501 . S
C278 N140 1.183 . S
C283 N163 1.154 . S
C288 C177 1.640 . S
C293 C191 1.687 . S
C298 N12 1.530 1_556 S
C303 N173 1.576 . S
C308 C30 1.579 1_556 S
C313 C200 1.539 . S
C318 C145 1.537 . S
C323 N48 1.441 . S
C328 C99 1.492 . S
C333 C62 1.465 . S
C338 C7 1.547 . S
C343 C131 1.519 . S
C348 N81 1.573 . S
C353 N35 1.559 . S
C358 C168 1.597 . S
C363 N117 1.484 1_455 S
C368 C76 1.607 . S
C373 N186 1.499 . S
C378 N150 1.513 . S
C383 N104 1.495 . S
