# Generated by pormake.
# Topology lhb, (8)-cn, num edge types: 1
# Building blocks:
#     Node 0, Type 0, BuildingBlock: LIZSOE_clean_sbu_0, # of connection points: 8
#     Node 1, Type 0, BuildingBlock: LIZSOE_clean_sbu_0, # of connection points: 8
#     Node 2, Type 0, BuildingBlock: LIZSOE_clean_sbu_0, # of connection points: 8
#     Node 3, Type 0, BuildingBlock: LIZSOE_clean_sbu_0, # of connection points: 8
#     Node 4, Type 0, BuildingBlock: LIZSOE_clean_sbu_0, # of connection points: 8
#     Node 5, Type 0, BuildingBlock: LIZSOE_clean_sbu_0, # of connection points: 8
#     Node 6, Type 0, BuildingBlock: LIZSOE_clean_sbu_0, # of connection points: 8
#     Node 7, Type 0, BuildingBlock: LIZSOE_clean_sbu_0, # of connection points: 8
#     Edge 8, Type (0, 0), BuildingBlock: MIFKUJ_clean_linker_0, # of connection points: 2
#     Edge 9, Type (0, 0), BuildingBlock: MIFKUJ_clean_linker_0, # of connection points: 2
#     Edge 10, Type (0, 0), BuildingBlock: MIFKUJ_clean_linker_0, # of connection points: 2
#     Edge 11, Type (0, 0), BuildingBlock: MIFKUJ_clean_linker_0, # of connection points: 2
#     Edge 12, Type (0, 0), BuildingBlock: MIFKUJ_clean_linker_0, # of connection points: 2
#     Edge 13, Type (0, 0), BuildingBlock: MIFKUJ_clean_linker_0, # of connection points: 2
#     Edge 14, Type (0, 0), BuildingBlock: MIFKUJ_clean_linker_0, # of connection points: 2
#     Edge 15, Type (0, 0), BuildingBlock: MIFKUJ_clean_linker_0, # of connection points: 2
#     Edge 16, Type (0, 0), BuildingBlock: MIFKUJ_clean_linker_0, # of connection points: 2
#     Edge 17, Type (0, 0), BuildingBlock: MIFKUJ_clean_linker_0, # of connection points: 2
#     Edge 18, Type (0, 0), BuildingBlock: MIFKUJ_clean_linker_0, # of connection points: 2
#     Edge 19, Type (0, 0), BuildingBlock: MIFKUJ_clean_linker_0, # of connection points: 2
#     Edge 20, Type (0, 0), BuildingBlock: MIFKUJ_clean_linker_0, # of connection points: 2
#     Edge 21, Type (0, 0), BuildingBlock: MIFKUJ_clean_linker_0, # of connection points: 2
#     Edge 22, Type (0, 0), BuildingBlock: MIFKUJ_clean_linker_0, # of connection points: 2
#     Edge 23, Type (0, 0), BuildingBlock: MIFKUJ_clean_linker_0, # of connection points: 2
#     Edge 24, Type (0, 0), BuildingBlock: MIFKUJ_clean_linker_0, # of connection points: 2
#     Edge 25, Type (0, 0), BuildingBlock: MIFKUJ_clean_linker_0, # of connection points: 2
#     Edge 26, Type (0, 0), BuildingBlock: MIFKUJ_clean_linker_0, # of connection points: 2
#     Edge 27, Type (0, 0), BuildingBlock: MIFKUJ_clean_linker_0, # of connection points: 2
#     Edge 28, Type (0, 0), BuildingBlock: MIFKUJ_clean_linker_0, # of connection points: 2
#     Edge 29, Type (0, 0), BuildingBlock: MIFKUJ_clean_linker_0, # of connection points: 2
#     Edge 30, Type (0, 0), BuildingBlock: MIFKUJ_clean_linker_0, # of connection points: 2
#     Edge 31, Type (0, 0), BuildingBlock: MIFKUJ_clean_linker_0, # of connection points: 2
#     Edge 32, Type (0, 0), BuildingBlock: MIFKUJ_clean_linker_0, # of connection points: 2
#     Edge 33, Type (0, 0), BuildingBlock: MIFKUJ_clean_linker_0, # of connection points: 2
#     Edge 34, Type (0, 0), BuildingBlock: MIFKUJ_clean_linker_0, # of connection points: 2
#     Edge 35, Type (0, 0), BuildingBlock: MIFKUJ_clean_linker_0, # of connection points: 2
#     Edge 36, Type (0, 0), BuildingBlock: MIFKUJ_clean_linker_0, # of connection points: 2
#     Edge 37, Type (0, 0), BuildingBlock: MIFKUJ_clean_linker_0, # of connection points: 2
#     Edge 38, Type (0, 0), BuildingBlock: MIFKUJ_clean_linker_0, # of connection points: 2
#     Edge 39, Type (0, 0), BuildingBlock: MIFKUJ_clean_linker_0, # of connection points: 2
# Relax obj value: 0.094
# Max RMSD: 0.208
# Mean RMSD: 0.208
data_MOF--net-lhb--node1-LIZSOE_clean_sbu_0--edge1-MIFKUJ_clean_linker_0
_symmetry_space_group_name_H-M    P1
_symmetry_Int_Tables_number       1
_symmetry_cell_setting            triclinic
loop_
_symmetry_equiv_pos_as_xyz
'x, y, z'
_cell_length_a     52.421484
_cell_length_b     19.884999
_cell_length_c     57.95244
_cell_angle_alpha  89.938038
_cell_angle_beta   90.07444
_cell_angle_gamma 90.080384
loop_
_atom_site_label
_atom_site_type_symbol
_atom_site_fract_x
_atom_site_fract_y
_atom_site_fract_z
_atom_type_partial_charge
Co0 Co 0.0589 0.13107 1.00105 0.0
N1 N 0.09322 0.15441 1.00155 0.0
C2 C 0.10585 0.1639 0.98153 0.0
N3 N 0.13424 0.17832 1.00902 0.0
C4 C 0.11106 0.1652 0.01821 0.0
C5 C 0.13099 0.1775 0.98603 0.0
Co6 Co 0.96156 0.91337 0.99634 0.0
N7 N 0.92753 0.88853 0.9936 0.0
N8 N 0.88624 0.8599 0.99721 0.0
C9 C 0.89186 0.86403 0.97462 0.0
C10 C 0.91713 0.8804 0.97249 0.0
C11 C 0.90831 0.87382 1.00848 0.0
Co12 Co 0.00982 0.02262 1.00231 0.0
C13 C 0.99215 0.87338 0.01325 0.0
H14 H 0.92731 0.8869 0.95643 0.0
O15 O 0.02504 0.1185 1.00169 0.0
O16 O 0.98419 0.04842 0.0277 0.0
O17 O 0.03376 0.99274 0.02852 0.0
O18 O 0.03476 0.99044 0.97745 0.0
O19 O 0.06635 0.0647 0.97885 0.0
O20 O 0.95353 0.9734 0.0202 0.0
O21 O 0.99497 0.92693 0.9998 0.0
O22 O 0.95582 0.98126 0.97435 0.0
O23 O 0.06454 0.06943 0.02466 0.0
O24 O 0.04969 0.1901 0.02174 0.0
O25 O 0.98629 0.05829 0.97667 0.0
O26 O 0.96907 0.85262 0.01719 0.0
C27 C 0.05504 1.01935 0.03499 0.0
C28 C 0.91124 0.8702 0.03417 0.0
H29 H 0.92941 0.89144 0.04037 0.0
H30 H 0.89503 0.89596 0.04269 0.0
H31 H 0.91094 0.81666 0.03949 0.0
C32 C 0.96236 0.02128 0.03224 0.0
C33 C 0.05656 1.01167 0.97052 0.0
H34 H 0.09731 0.15977 0.96459 0.0
H35 H 0.1129 0.2099 0.05181 0.0
H36 H 0.11753 0.12122 0.05135 0.0
H37 H 0.08581 0.15584 0.04796 0.0
C38 C 0.10618 0.16261 0.04371 0.0
C39 C 0.02694 0.17107 0.0157 0.0
C40 C 0.96551 0.03631 0.96767 0.0
H41 H 0.14592 0.18538 0.9734 0.0
H42 H 0.87849 0.85616 0.96062 0.0
Co43 Co 0.21075 0.38432 0.24817 0.0
N44 N 0.17664 0.40911 0.24656 0.0
C45 C 0.16546 0.41949 0.22587 0.0
N46 N 0.13556 0.43689 0.25172 0.0
C47 C 0.15795 0.42178 0.26214 0.0
C48 C 0.14027 0.43531 0.22895 0.0
Co49 Co 0.30634 0.16424 0.2445 0.0
N50 N 0.34023 0.13971 0.24113 0.0
N51 N 0.38027 0.10167 0.2446 0.0
C52 C 0.37465 0.10576 0.22204 0.0
C53 C 0.35015 0.12895 0.21997 0.0
C54 C 0.35916 0.12207 0.25596 0.0
Co55 Co 0.25896 0.2743 0.25152 0.0
C56 C 0.27643 0.12564 0.26276 0.0
H57 H 0.33983 0.13535 0.20394 0.0
O58 O 0.24442 0.37062 0.25077 0.0
O59 O 0.28471 0.29864 0.27706 0.0
O60 O 0.23419 0.24579 0.2773 0.0
O61 O 0.23439 0.24235 0.22618 0.0
O62 O 0.20434 0.32023 0.22509 0.0
O63 O 0.31555 0.2265 0.26748 0.0
O64 O 0.27307 0.17802 0.24891 0.0
O65 O 0.3111 0.22872 0.22108 0.0
O66 O 0.20321 0.32067 0.27108 0.0
O67 O 0.21876 0.44147 0.26992 0.0
O68 O 0.2829 0.31009 0.22642 0.0
O69 O 0.29967 0.10601 0.26642 0.0
C70 C 0.21234 0.2717 0.2824 0.0
C71 C 0.35602 0.11444 0.28152 0.0
H72 H 0.33814 0.13629 0.28813 0.0
H73 H 0.37238 0.13753 0.29069 0.0
H74 H 0.35625 0.06006 0.28551 0.0
C75 C 0.30707 0.27298 0.28035 0.0
C76 C 0.21364 0.26572 0.21767 0.0
H77 H 0.17506 0.41508 0.20943 0.0
H78 H 0.16027 0.47337 0.29423 0.0
H79 H 0.14588 0.39195 0.29596 0.0
H80 H 0.18014 0.40103 0.2932 0.0
C81 C 0.16149 0.42113 0.28777 0.0
C82 C 0.24179 0.42223 0.26506 0.0
C83 C 0.30201 0.28545 0.21563 0.0
H84 H 0.12638 0.44494 0.2155 0.0
H85 H 0.38719 0.0911 0.20811 0.0
Co86 Co 0.71113 0.87667 0.2455 0.0
N87 N 0.67718 0.90086 0.24299 0.0
C88 C 0.66731 0.91239 0.22185 0.0
N89 N 0.63564 0.92536 0.24616 0.0
C90 C 0.65742 0.91115 0.25769 0.0
C91 C 0.64182 0.9261 0.22369 0.0
Co92 Co 0.8085 0.66053 0.24968 0.0
N93 N 0.84251 0.63643 0.24984 0.0
N94 N 0.88225 0.59942 0.25649 0.0
C95 C 0.87799 0.59876 0.23359 0.0
C96 C 0.85371 0.62116 0.22962 0.0
C97 C 0.86041 0.62249 0.26612 0.0
Co98 Co 0.75944 0.76814 0.25118 0.0
C99 C 0.77627 0.61937 0.2638 0.0
H100 H 0.84445 0.62457 0.21297 0.0
O101 O 0.74459 0.86372 0.24874 0.0
O102 O 0.78377 0.79755 0.27731 0.0
O103 O 0.73417 0.74216 0.27683 0.0
O104 O 0.73554 0.73207 0.22588 0.0
O105 O 0.70542 0.8097 0.22309 0.0
O106 O 0.81407 0.71916 0.27415 0.0
O107 O 0.77475 0.67312 0.25032 0.0
O108 O 0.81644 0.72893 0.22829 0.0
O109 O 0.70315 0.81603 0.26936 0.0
O110 O 0.71858 0.93677 0.26647 0.0
O111 O 0.78401 0.80029 0.226 0.0
O112 O 0.79891 0.59917 0.26964 0.0
C113 C 0.71225 0.76851 0.28141 0.0
C114 C 0.85604 0.62768 0.29165 0.0
H115 H 0.83569 0.62072 0.29608 0.0
H116 H 0.86204 0.67836 0.29753 0.0
H117 H 0.86755 0.58982 0.30112 0.0
C118 C 0.80456 0.76933 0.28439 0.0
C119 C 0.71503 0.75452 0.21654 0.0
H120 H 0.67807 0.91013 0.20597 0.0
H121 H 0.6518 0.95542 0.29101 0.0
H122 H 0.64665 0.86694 0.28987 0.0
H123 H 0.67885 0.90077 0.28978 0.0
C124 C 0.65914 0.90799 0.28352 0.0
C125 C 0.7417 0.917 0.26224 0.0
C126 C 0.80622 0.78083 0.2196 0.0
H127 H 0.62867 0.93538 0.20961 0.0
H128 H 0.89145 0.5822 0.22064 0.0
Co129 Co 0.0587 0.62086 0.49851 0.0
N130 N 0.09295 0.64434 0.49776 0.0
C131 C 0.10425 0.65477 0.47715 0.0
N132 N 0.13349 0.67706 0.50326 0.0
C133 C 0.11131 0.65909 0.51349 0.0
C134 C 0.12903 0.67465 0.48044 0.0
Co135 Co 0.95947 0.41125 0.49924 0.0
N136 N 0.9251 0.38762 0.4992 0.0
N137 N 0.884 0.3613 0.50547 0.0
C138 C 0.88794 0.36347 0.48259 0.0
C139 C 0.91312 0.37831 0.47884 0.0
C140 C 0.90688 0.37506 0.51532 0.0
Co141 Co 1.00895 0.51646 0.50168 0.0
C142 C 0.99127 0.3692 0.513 0.0
H143 H 0.92224 0.38207 0.46217 0.0
O144 O 0.02548 0.60871 0.49962 0.0
O145 O 0.98474 0.54735 0.52765 0.0
O146 O 0.03354 0.48688 0.52771 0.0
O147 O 0.03283 0.48048 0.47645 0.0
O148 O 0.06584 0.55077 0.47773 0.0
O149 O 0.95347 0.47285 0.52256 0.0
O150 O 0.99258 0.42359 0.50003 0.0
O151 O 0.95262 0.47793 0.47662 0.0
O152 O 0.06452 0.56318 0.52327 0.0
O153 O 0.0493 0.6841 0.51834 0.0
O154 O 0.98463 0.55166 0.4766 0.0
O155 O 0.96882 0.35219 0.52064 0.0
C156 C 0.05479 0.51426 0.53416 0.0
C157 C 0.9113 0.37465 0.54092 0.0
H158 H 0.93061 0.39182 0.54575 0.0
H159 H 0.89673 0.40636 0.54946 0.0
H160 H 0.90887 0.32272 0.54754 0.0
C161 C 0.96304 0.52172 0.53347 0.0
C162 C 0.05518 0.49847 0.46972 0.0
H163 H 0.0948 0.64917 0.46066 0.0
H164 H 0.11394 0.71208 0.54543 0.0
H165 H 0.11855 0.6234 0.54762 0.0
H166 H 0.08679 0.65631 0.54369 0.0
C167 C 0.10706 0.66274 0.53897 0.0
C168 C 0.0267 0.66401 0.51207 0.0
C169 C 0.96297 0.53122 0.46883 0.0
H170 H 0.14275 0.68692 0.46713 0.0
H171 H 0.87356 0.35449 0.46952 0.0
Co172 Co 0.20753 0.87758 0.74845 0.0
N173 N 0.17265 0.89741 0.74858 0.0
C174 C 0.15786 0.89294 0.72953 0.0
N175 N 0.13226 0.92512 0.75747 0.0
C176 C 0.15641 0.91809 0.7654 0.0
C177 C 0.13313 0.90891 0.73499 0.0
Co178 Co 0.30721 0.66671 0.74674 0.0
N179 N 0.34134 0.64415 0.74414 0.0
N180 N 0.38202 0.61065 0.74723 0.0
C181 C 0.37585 0.61241 0.72474 0.0
C182 C 0.35098 0.63279 0.72292 0.0
C183 C 0.3608 0.62959 0.75876 0.0
Co184 Co 0.25769 0.77242 0.75168 0.0
C185 C 0.27649 0.62383 0.76288 0.0
H186 H 0.34027 0.63756 0.70704 0.0
O187 O 0.24166 0.86741 0.74987 0.0
O188 O 0.28315 0.80055 0.77728 0.0
O189 O 0.23341 0.74328 0.7781 0.0
O190 O 0.2333 0.73646 0.72685 0.0
O191 O 0.20088 0.80777 0.7275 0.0
O192 O 0.31421 0.72505 0.7713 0.0
O193 O 0.27359 0.67806 0.7498 0.0
O194 O 0.31316 0.73616 0.72567 0.0
O195 O 0.20261 0.81895 0.77271 0.0
O196 O 0.2161 0.94035 0.76816 0.0
O197 O 0.28103 0.80824 0.72597 0.0
O198 O 0.29964 0.60365 0.7668 0.0
C199 C 0.21198 0.77054 0.78399 0.0
C200 C 0.35853 0.62702 0.78445 0.0
H201 H 0.33867 0.63375 0.79038 0.0
H202 H 0.37073 0.66671 0.7921 0.0
H203 H 0.36583 0.57791 0.79072 0.0
C204 C 0.30476 0.77317 0.78283 0.0
C205 C 0.2112 0.75489 0.71982 0.0
H206 H 0.16461 0.87908 0.71257 0.0
H207 H 0.16993 0.98758 0.79027 0.0
H208 H 0.14809 0.92592 0.8017 0.0
H209 H 0.18064 0.90358 0.7955 0.0
C210 C 0.16424 0.93394 0.78965 0.0
C211 C 0.23911 0.92118 0.76321 0.0
C212 C 0.30273 0.78909 0.7182 0.0
H213 H 0.11704 0.90988 0.72326 0.0
H214 H 0.38837 0.59866 0.71067 0.0
Co215 Co 0.81099 0.1631 0.75037 0.0
N216 N 0.84544 0.14074 0.75097 0.0
C217 C 0.85741 0.12338 0.73127 0.0
N218 N 0.88564 0.10918 0.759 0.0
C219 C 0.86319 0.13091 0.76778 0.0
C220 C 0.88198 0.10415 0.73611 0.0
Co221 Co 0.71135 0.37354 0.74588 0.0
N222 N 0.67667 0.39358 0.74416 0.0
N223 N 0.63538 0.4168 0.75046 0.0
C224 C 0.63845 0.40457 0.72785 0.0
C225 C 0.66376 0.39153 0.72399 0.0
C226 C 0.65879 0.41073 0.76005 0.0
Co227 Co 0.76111 0.26861 0.75165 0.0
C228 C 0.74193 0.41692 0.76204 0.0
H229 H 0.67222 0.38069 0.7074 0.0
O230 O 0.77716 0.17421 0.75102 0.0
O231 O 0.73555 0.2404 0.77711 0.0
O232 O 0.78471 0.29974 0.77797 0.0
O233 O 0.78615 0.3025 0.72708 0.0
O234 O 0.81797 0.22849 0.72743 0.0
O235 O 0.70482 0.31501 0.7701 0.0
O236 O 0.74518 0.36323 0.74881 0.0
O237 O 0.70604 0.30389 0.72461 0.0
O238 O 0.81642 0.226 0.77372 0.0
O239 O 0.80197 0.10436 0.77149 0.0
O240 O 0.73806 0.23139 0.72579 0.0
O241 O 0.71868 0.43626 0.76598 0.0
C242 C 0.80641 0.27505 0.78421 0.0
C243 C 0.66429 0.42594 0.78487 0.0
H244 H 0.68162 0.40068 0.79132 0.0
H245 H 0.64782 0.41186 0.79588 0.0
H246 H 0.66729 0.4809 0.78636 0.0
C247 C 0.71377 0.26727 0.78201 0.0
C248 C 0.80771 0.2815 0.71944 0.0
H249 H 0.84854 0.12337 0.71441 0.0
H250 H 0.86818 0.09707 0.80279 0.0
H251 H 0.86644 0.18609 0.79913 0.0
H252 H 0.83776 0.13635 0.79739 0.0
C253 C 0.85831 0.13775 0.79317 0.0
C254 C 0.77918 0.12189 0.76509 0.0
C255 C 0.71654 0.25056 0.71749 0.0
H256 H 0.89611 0.08734 0.7238 0.0
H257 H 0.62342 0.4057 0.71502 0.0
Co258 Co 0.55772 0.13052 0.49868 0.0
N259 N 0.59172 0.15657 0.49837 0.0
C260 C 0.60304 0.17194 0.47817 0.0
N261 N 0.63146 0.19428 0.50511 0.0
C262 C 0.60954 0.17128 0.51468 0.0
C263 C 0.62732 0.19482 0.48221 0.0
Co264 Co 0.46046 0.91146 0.49673 0.0
N265 N 0.42615 0.88755 0.4951 0.0
N266 N 0.38523 0.85761 0.50041 0.0
C267 C 0.38942 0.86346 0.47764 0.0
C268 C 0.4145 0.88064 0.47444 0.0
C269 C 0.40779 0.87175 0.51073 0.0
Co270 Co 0.50925 0.02039 0.50126 0.0
C271 C 0.49146 0.87127 0.51299 0.0
H272 H 0.42374 0.88796 0.45795 0.0
O273 O 0.52416 0.11594 0.49997 0.0
O274 O 0.48421 0.04686 0.52719 0.0
O275 O 0.53431 0.99195 0.52706 0.0
O276 O 0.53379 0.98846 0.47589 0.0
O277 O 0.56537 0.06319 0.47677 0.0
O278 O 0.4533 0.97207 0.52044 0.0
O279 O 0.49427 0.92434 0.49929 0.0
O280 O 0.45426 0.97866 0.47475 0.0
O281 O 0.56441 0.07068 0.52264 0.0
O282 O 0.54822 0.19055 0.51911 0.0
O283 O 0.48493 0.05531 0.47604 0.0
O284 O 0.46838 0.85152 0.51752 0.0
C285 C 0.5555 0.0202 0.53322 0.0
C286 C 0.4117 0.86932 0.53633 0.0
H287 H 0.43047 0.88865 0.54182 0.0
H288 H 0.39628 0.8978 0.54502 0.0
H289 H 0.4103 0.81652 0.54222 0.0
C290 C 0.46238 0.02022 0.53215 0.0
C291 C 0.5555 1.00984 0.46865 0.0
H292 H 0.59391 0.16796 0.46147 0.0
H293 H 0.61447 0.21111 0.54895 0.0
H294 H 0.61364 0.12137 0.54708 0.0
H295 H 0.58452 0.1681 0.54464 0.0
C296 C 0.60502 0.16807 0.54024 0.0
C297 C 0.5256 0.16945 0.51352 0.0
C298 C 0.46381 0.03342 0.46768 0.0
H299 H 0.64092 0.21109 0.4693 0.0
H300 H 0.3753 0.85535 0.46428 0.0
Co301 Co 0.55807 0.62776 0.99689 0.0
N302 N 0.59192 0.65389 0.99573 0.0
C303 C 0.60242 0.66684 0.97499 0.0
N304 N 0.6315 0.69486 1.0007 0.0
C305 C 0.61012 0.67185 0.01128 0.0
C306 C 0.62658 0.69142 0.97794 0.0
Co307 Co 0.46153 0.40723 0.99773 0.0
N308 N 0.4276 0.38108 0.99741 0.0
N309 N 0.3881 0.34095 1.00343 0.0
C310 C 0.39216 0.34443 0.98055 0.0
C311 C 0.41628 0.36866 0.97695 0.0
C312 C 0.40991 0.36323 0.01343 0.0
Co313 Co 0.5099 0.51732 1.00046 0.0
C314 C 0.49387 0.36723 0.01191 0.0
H315 H 0.42537 0.37521 0.96035 0.0
O316 O 0.52453 0.6132 0.9987 0.0
O317 O 0.48508 0.54454 0.02647 0.0
O318 O 0.5352 0.49024 0.02621 0.0
O319 O 0.53427 0.48401 0.97514 0.0
O320 O 0.56544 0.55945 0.97557 0.0
O321 O 0.45514 0.46534 0.02217 0.0
O322 O 0.49508 0.42176 0.99879 0.0
O323 O 0.45345 0.47617 0.97649 0.0
O324 O 0.56517 0.56924 0.0213 0.0
O325 O 0.54907 0.68882 0.0169 0.0
O326 O 0.48521 0.55018 0.97534 0.0
O327 O 0.47134 0.34584 0.01763 0.0
C328 C 0.55632 0.51912 0.03221 0.0
C329 C 0.41458 0.36189 0.03899 0.0
H330 H 0.435 0.36688 0.04341 0.0
H331 H 0.40409 0.4039 0.04711 0.0
H332 H 0.40705 0.31441 0.04643 0.0
C333 C 0.46415 0.51552 0.03285 0.0
C334 C 0.55592 0.50541 0.96781 0.0
H335 H 0.59274 0.66033 0.95865 0.0
H336 H 0.61597 0.71525 0.04497 0.0
H337 H 0.61529 0.62549 0.04414 0.0
H338 H 0.58602 0.67128 0.04185 0.0
C339 C 0.60638 0.67136 0.03696 0.0
C340 C 0.52634 0.66734 0.01194 0.0
C341 C 0.46325 0.52966 0.96846 0.0
H342 H 0.63951 0.70661 0.96433 0.0
H343 H 0.37868 0.32939 0.96735 0.0
H344 H 0.10142 0.96106 0.04295 0.0
H345 H 0.12922 0.98667 0.07595 0.0
H346 H 0.06662 0.08584 0.10974 0.0
H347 H 0.03864 0.05792 0.0772 0.0
H348 H 0.11029 0.16926 0.10183 0.0
H349 H 0.09135 0.9507 0.13405 0.0
H350 H 0.08906 0.82687 0.13343 0.0
H351 H 0.16986 0.81618 0.12198 0.0
H352 H 0.17258 0.94006 0.1222 0.0
H353 H 0.16412 0.28663 0.20474 0.0
H354 H 0.13895 0.23099 0.17531 0.0
H355 H 0.20273 0.10336 0.15879 0.0
H356 H 0.22827 0.1588 0.18913 0.0
H357 H 0.16144 0.03013 0.15575 0.0
H358 H 0.18264 0.24064 0.12305 0.0
H359 H 0.18772 0.36341 0.11926 0.0
H360 H 0.10679 0.38944 0.12614 0.0
H361 H 0.10124 0.26687 0.13035 0.0
C362 C 0.09314 0.98423 0.0581 0.0
C363 C 0.06743 1.00506 0.05767 0.0
C364 C 0.10923 1.0 0.07688 0.0
C365 C 0.10024 0.03884 0.09547 0.0
C366 C 0.07417 0.05583 0.09575 0.0
C367 C 0.05796 0.03857 0.07726 0.0
C368 C 0.11837 0.06853 0.11303 0.0
C369 C 0.12111 0.13879 0.1139 0.0
C370 C 0.13374 0.02911 0.12799 0.0
C371 C 0.13212 0.9547 0.1279 0.0
C372 C 0.10859 0.92199 0.13118 0.0
C373 C 0.10723 0.85177 0.13095 0.0
C374 C 0.12929 0.81368 0.1276 0.0
C375 C 0.15278 0.84574 0.12454 0.0
C376 C 0.15425 0.91596 0.12474 0.0
C377 C 0.17314 0.2472 0.19483 0.0
C378 C 0.19866 0.22854 0.19933 0.0
C379 C 0.15853 0.21519 0.17775 0.0
C380 C 0.16881 0.16359 0.16404 0.0
C381 C 0.19414 0.14328 0.1688 0.0
C382 C 0.20885 0.17523 0.1862 0.0
C383 C 0.1528 0.1315 0.14514 0.0
C384 C 0.15058 0.06088 0.1438 0.0
C385 C 0.13829 0.17055 0.12926 0.0
C386 C 0.14157 0.24452 0.1273 0.0
C387 C 0.16595 0.27257 0.12403 0.0
C388 C 0.16891 0.34214 0.12174 0.0
C389 C 0.1476 0.38422 0.12254 0.0
C390 C 0.12328 0.3568 0.12559 0.0
C391 C 0.12022 0.28727 0.12792 0.0
H392 H 0.14993 0.43805 0.12072 0.0
H393 H 0.12819 0.75932 0.12744 0.0
H394 H 0.98002 1.017 0.07701 0.0
H395 H 0.95414 0.99189 0.1113 0.0
H396 H 0.8856 1.01645 0.07105 0.0
H397 H 0.91138 0.04258 0.03708 0.0
H398 H 0.87554 0.05503 0.11384 0.0
H399 H 0.91291 0.85176 0.08158 0.0
H400 H 0.94958 0.785 0.06755 0.0
H401 H 0.98513 0.80132 0.13412 0.0
H402 H 0.94888 0.86917 0.14818 0.0
H403 H 0.78957 0.85025 0.1807 0.0
H404 H 0.81583 0.90272 0.1505 0.0
H405 H 0.88385 0.85241 0.18879 0.0
H406 H 0.85783 0.79614 0.21782 0.0
H407 H 0.89523 0.83273 0.14823 0.0
H408 H 0.85175 1.01717 0.18326 0.0
H409 H 0.81323 0.07702 0.19619 0.0
H410 H 0.78927 0.1022 0.12588 0.0
H411 H 0.82663 0.03794 0.11254 0.0
C412 C 0.95944 0.02047 0.07574 0.0
C413 C 0.94792 0.03333 0.05422 0.0
C414 C 0.94452 1.00441 0.09533 0.0
C415 C 0.91762 1.0002 0.09394 0.0
C416 C 0.90614 1.01885 0.07293 0.0
C417 C 0.921 0.03473 0.05342 0.0
C418 C 0.90156 0.97145 0.11344 0.0
C419 C 0.8798 1.00629 0.12129 0.0
C420 C 0.90699 0.90825 0.12376 0.0
C421 C 0.92848 0.86621 0.11569 0.0
C422 C 0.92873 0.84149 0.09302 0.0
C423 C 0.94937 0.80347 0.08512 0.0
C424 C 0.96972 0.7892 0.09991 0.0
C425 C 0.96939 0.8126 0.12266 0.0
C426 C 0.9488 0.85082 0.13059 0.0
C427 C 0.81011 0.85088 0.18272 0.0
C428 C 0.82145 0.81906 0.20187 0.0
C429 C 0.82527 0.8813 0.16541 0.0
C430 C 0.85222 0.8833 0.16717 0.0
C431 C 0.86333 0.85209 0.18656 0.0
C432 C 0.8483 0.82008 0.2034 0.0
C433 C 0.86903 0.91626 0.14893 0.0
C434 C 0.89096 0.882 0.14119 0.0
C435 C 0.86377 0.98034 0.13896 0.0
C436 C 0.84195 0.02198 0.14689 0.0
C437 C 0.8382 0.03498 0.17052 0.0
C438 C 0.8165 0.06948 0.17795 0.0
C439 C 0.79896 0.09399 0.16187 0.0
C440 C 0.80291 0.08329 0.13833 0.0
C441 C 0.82424 0.04725 0.13082 0.0
H442 H 0.78227 0.12112 0.16768 0.0
H443 H 0.9857 0.75982 0.09378 0.0
H444 H 0.0387 0.4246 0.43154 0.0
H445 H 0.06533 0.37073 0.40194 0.0
H446 H 0.13292 0.42508 0.44024 0.0
H447 H 0.10661 0.48193 0.4687 0.0
H448 H 0.14454 0.44661 0.40045 0.0
H449 H 0.10533 0.25244 0.43326 0.0
H450 H 0.07015 0.17934 0.44637 0.0
H451 H 0.04095 0.16955 0.3772 0.0
H452 H 0.07575 0.24344 0.36372 0.0
H453 H 0.23032 0.27327 0.32708 0.0
H454 H 0.20451 0.29419 0.36171 0.0
H455 H 0.13589 0.26892 0.32158 0.0
H456 H 0.16162 0.24672 0.28731 0.0
H457 H 0.1261 0.22702 0.36364 0.0
H458 H 0.16368 0.43544 0.33426 0.0
H459 H 0.20088 0.50299 0.32158 0.0
H460 H 0.23475 0.48017 0.38862 0.0
H461 H 0.19822 0.41043 0.40112 0.0
C462 C 0.05922 0.42434 0.43373 0.0
C463 C 0.07037 0.4579 0.45262 0.0
C464 C 0.07461 0.39306 0.41676 0.0
C465 C 0.10157 0.39256 0.41855 0.0
C466 C 0.11243 0.42456 0.43789 0.0
C467 C 0.0972 0.457 0.45441 0.0
C468 C 0.11872 0.36197 0.40014 0.0
C469 C 0.14054 0.39785 0.39289 0.0
C470 C 0.11394 0.29865 0.38953 0.0
C471 C 0.09302 0.25404 0.39752 0.0
C472 C 0.09131 0.23509 0.42087 0.0
C473 C 0.07145 0.19346 0.42837 0.0
C474 C 0.0533 0.16994 0.41264 0.0
C475 C 0.05501 0.18789 0.38937 0.0
C476 C 0.0748 0.22961 0.38179 0.0
C477 C 0.20977 0.26872 0.3259 0.0
C478 C 0.19819 0.25678 0.30433 0.0
C479 C 0.19487 0.28248 0.34568 0.0
C480 C 0.16794 0.28542 0.34445 0.0
C481 C 0.15646 0.26755 0.32335 0.0
C482 C 0.1713 0.25388 0.30366 0.0
C483 C 0.15174 0.31164 0.36424 0.0
C484 C 0.13009 0.27525 0.37159 0.0
C485 C 0.15692 0.37378 0.37541 0.0
C486 C 0.17856 0.41694 0.36831 0.0
C487 C 0.17931 0.44433 0.34602 0.0
C488 C 0.20017 0.48303 0.33894 0.0
C489 C 0.22017 0.49587 0.35429 0.0
C490 C 0.21929 0.47005 0.37673 0.0
C491 C 0.19854 0.43077 0.38378 0.0
H492 H 0.23629 0.52592 0.3488 0.0
H493 H 0.03795 0.13769 0.41848 0.0
H494 H 0.79168 0.7023 0.32267 0.0
H495 H 0.81936 0.67801 0.35511 0.0
H496 H 0.87217 0.83022 0.33179 0.0
H497 H 0.84525 0.84898 0.29763 0.0
H498 H 0.89999 0.74272 0.34475 0.0
H499 H 0.83152 0.83187 0.38717 0.0
H500 H 0.78724 0.85135 0.39979 0.0
H501 H 0.78085 0.64476 0.42065 0.0
H502 H 0.82498 0.62375 0.40786 0.0
H503 H 0.97267 0.65859 0.44988 0.0
H504 H 0.94673 0.72048 0.42136 0.0
H505 H 0.89429 0.55375 0.41789 0.0
H506 H 0.91946 0.49308 0.44612 0.0
H507 H 0.8685 0.66961 0.42132 0.0
H508 H 0.94449 0.59707 0.3779 0.0
H509 H 0.99088 0.6039 0.37115 0.0
H510 H 0.98464 0.81453 0.35647 0.0
H511 H 0.93858 0.81047 0.36477 0.0
C512 C 0.80853 0.73318 0.32504 0.0
C513 C 0.81547 0.78 0.30793 0.0
C514 C 0.82469 0.71893 0.34379 0.0
C515 C 0.84809 0.75298 0.34687 0.0
C516 C 0.85441 0.80272 0.33033 0.0
C517 C 0.83859 0.81509 0.31097 0.0
C518 C 0.86648 0.7327 0.3661 0.0
C519 C 0.89291 0.72809 0.36159 0.0
C520 C 0.85807 0.71384 0.38856 0.0
C521 C 0.83153 0.72616 0.39639 0.0
C522 C 0.82063 0.79049 0.39433 0.0
C523 C 0.79555 0.80181 0.40152 0.0
C524 C 0.78123 0.7493 0.41097 0.0
C525 C 0.79197 0.68539 0.41331 0.0
C526 C 0.81703 0.67376 0.40613 0.0
C527 C 0.95571 0.63493 0.44293 0.0
C528 C 0.94846 0.57012 0.45054 0.0
C529 C 0.94079 0.67052 0.42653 0.0
C530 C 0.91833 0.64209 0.41711 0.0
C531 C 0.9113 0.57755 0.4247 0.0
C532 C 0.92599 0.54243 0.44098 0.0
C533 C 0.90157 0.67796 0.39963 0.0
C534 C 0.87541 0.68518 0.40451 0.0
C535 C 0.9105 0.70255 0.37806 0.0
C536 C 0.93805 0.70357 0.37221 0.0
C537 C 0.953 0.64499 0.37341 0.0
C538 C 0.97925 0.64833 0.3693 0.0
C539 C 0.99062 0.70925 0.36311 0.0
C540 C 0.97581 0.76727 0.36121 0.0
C541 C 0.94967 0.76462 0.36581 0.0
H542 H 0.01094 0.71153 0.35986 0.0
H543 H 0.76181 0.75816 0.41652 0.0
H544 H 0.03557 0.52159 0.57829 0.0
H545 H 0.0608 0.54399 0.6132 0.0
H546 H 0.12996 0.50767 0.57508 0.0
H547 H 0.10475 0.48345 0.54061 0.0
H548 H 0.13898 0.47279 0.61754 0.0
H549 H 0.10409 0.6847 0.58569 0.0
H550 H 0.06773 0.75339 0.57194 0.0
H551 H 0.03024 0.72565 0.63714 0.0
H552 H 0.06627 0.65614 0.65086 0.0
H553 H 0.22724 0.6767 0.68257 0.0
H554 H 0.20032 0.62009 0.65366 0.0
H555 H 0.13303 0.6809 0.69098 0.0
H556 H 0.15964 0.74006 0.71875 0.0
H557 H 0.12151 0.69754 0.65077 0.0
H558 H 0.15954 0.50768 0.68693 0.0
H559 H 0.19451 0.43659 0.70162 0.0
H560 H 0.22392 0.41535 0.6329 0.0
H561 H 0.18937 0.48729 0.61784 0.0
C562 C 0.05606 0.51487 0.57767 0.0
C563 C 0.06796 0.49917 0.55657 0.0
C564 C 0.07068 0.52967 0.59758 0.0
C565 C 0.09766 0.53027 0.59693 0.0
C566 C 0.10936 0.50835 0.57642 0.0
C567 C 0.09479 0.49348 0.55661 0.0
C568 C 0.11378 0.55817 0.6166 0.0
C569 C 0.13519 0.52213 0.6247 0.0
C570 C 0.10887 0.62176 0.62682 0.0
C571 C 0.08752 0.66457 0.61898 0.0
C572 C 0.08789 0.6929 0.59683 0.0
C573 C 0.06743 0.73201 0.58912 0.0
C574 C 0.04661 0.74359 0.60363 0.0
C575 C 0.04633 0.71648 0.6259 0.0
C576 C 0.06678 0.67731 0.63364 0.0
C577 C 0.20672 0.67742 0.68466 0.0
C578 C 0.19575 0.71351 0.70305 0.0
C579 C 0.19117 0.64455 0.66812 0.0
C580 C 0.16421 0.64497 0.66985 0.0
C581 C 0.15352 0.67961 0.68868 0.0
C582 C 0.16892 0.71351 0.70478 0.0
C583 C 0.14692 0.61232 0.6519 0.0
C584 C 0.1253 0.64774 0.64399 0.0
C585 C 0.15137 0.54744 0.64238 0.0
C586 C 0.17199 0.50344 0.65128 0.0
C587 C 0.17356 0.48819 0.67496 0.0
C588 C 0.1933 0.44773 0.68336 0.0
C589 C 0.21146 0.42161 0.66821 0.0
C590 C 0.20986 0.43571 0.64462 0.0
C591 C 0.19019 0.47631 0.63614 0.0
H592 H 0.22674 0.39034 0.67474 0.0
H593 H 0.03076 0.77378 0.59764 0.0
H594 H 0.80498 0.41673 0.70688 0.0
H595 H 0.83053 0.47621 0.67746 0.0
H596 H 0.86827 0.29074 0.66026 0.0
H597 H 0.84348 0.23183 0.68966 0.0
H598 H 0.88799 0.48424 0.67141 0.0
H599 H 0.87074 0.28966 0.59989 0.0
H600 H 0.83836 0.2045 0.58982 0.0
H601 H 0.78017 0.32403 0.62177 0.0
H602 H 0.81217 0.41009 0.63195 0.0
H603 H 0.97977 0.50371 0.57789 0.0
H604 H 0.95222 0.47897 0.61106 0.0
H605 H 0.88639 0.53856 0.57147 0.0
H606 H 0.91387 0.56203 0.53833 0.0
H607 H 0.87736 0.4196 0.58932 0.0
H608 H 0.90843 0.62772 0.62094 0.0
H609 H 0.94152 0.70876 0.63299 0.0
H610 H 0.97152 0.56467 0.68109 0.0
H611 H 0.93881 0.48245 0.66912 0.0
C612 C 0.81866 0.38857 0.69679 0.0
C613 C 0.82194 0.31906 0.70078 0.0
C614 C 0.83347 0.42284 0.68006 0.0
C615 C 0.85154 0.38828 0.66649 0.0
C616 C 0.85461 0.31897 0.67037 0.0
C617 C 0.84026 0.28516 0.68727 0.0
C618 C 0.86663 0.42297 0.64768 0.0
C619 C 0.88559 0.47029 0.65345 0.0
C620 C 0.86363 0.40551 0.62411 0.0
C621 C 0.84394 0.35607 0.61685 0.0
C622 C 0.85101 0.29806 0.60461 0.0
C623 C 0.83272 0.24954 0.59894 0.0
C624 C 0.80722 0.25885 0.60512 0.0
C625 C 0.79995 0.31666 0.61709 0.0
C626 C 0.81817 0.3653 0.62284 0.0
C627 C 0.95963 0.51532 0.57667 0.0
C628 C 0.94931 0.53725 0.55549 0.0
C629 C 0.94367 0.49997 0.59565 0.0
C630 C 0.91688 0.50629 0.59407 0.0
C631 C 0.90682 0.53275 0.57343 0.0
C632 C 0.92271 0.54775 0.55452 0.0
C633 C 0.89924 0.48057 0.61293 0.0
C634 C 0.87978 0.43434 0.60719 0.0
C635 C 0.90186 0.49905 0.63652 0.0
C636 C 0.92128 0.54876 0.644 0.0
C637 C 0.92217 0.6132 0.634 0.0
C638 C 0.94084 0.65935 0.64082 0.0
C639 C 0.95865 0.64182 0.65775 0.0
C640 C 0.95773 0.57817 0.66796 0.0
C641 C 0.9391 0.53181 0.66119 0.0
H642 H 0.97312 0.67758 0.66298 0.0
H643 H 0.7931 0.22133 0.60061 0.0
H644 H 0.16099 0.75553 0.78885 0.0
H645 H 0.1361 0.78546 0.8229 0.0
H646 H 0.20475 0.78873 0.86369 0.0
H647 H 0.23019 0.76354 0.82898 0.0
H648 H 0.13647 0.72635 0.8746 0.0
H649 H 0.2047 0.90359 0.86943 0.0
H650 H 0.23017 0.98755 0.8483 0.0
H651 H 0.16152 0.08201 0.82421 0.0
H652 H 0.1357 0.99543 0.84383 0.0
H653 H 0.10766 0.02237 0.9622 0.0
H654 H 0.13363 0.96607 0.93351 0.0
H655 H 0.06735 0.85952 0.90872 0.0
H656 H 0.04111 0.91481 0.93838 0.0
H657 H 0.13586 0.97111 0.89055 0.0
H658 H 0.08601 0.71431 0.87902 0.0
H659 H 0.05894 0.63657 0.90144 0.0
H660 H 0.09176 0.71001 0.9645 0.0
H661 H 0.11924 0.78759 0.94244 0.0
C662 C 0.17084 0.76014 0.80523 0.0
C663 C 0.19778 0.75642 0.80597 0.0
C664 C 0.1565 0.77846 0.82472 0.0
C665 C 0.16846 0.79255 0.84584 0.0
C666 C 0.19502 0.78121 0.84742 0.0
C667 C 0.20959 0.76448 0.82765 0.0
C668 C 0.15308 0.82173 0.8655 0.0
C669 C 0.1365 0.77986 0.8782 0.0
C670 C 0.15263 0.89179 0.8703 0.0
C671 C 0.1683 0.94094 0.85725 0.0
C672 C 0.19505 0.94028 0.8588 0.0
C673 C 0.20956 0.98877 0.84723 0.0
C674 C 0.1975 0.03965 0.83468 0.0
C675 C 0.17088 0.04228 0.83378 0.0
C676 C 0.15632 0.99298 0.84488 0.0
C677 C 0.09839 0.98691 0.95075 0.0
C678 C 0.07201 0.97385 0.95277 0.0
C679 C 0.11345 0.95446 0.93415 0.0
C680 C 0.10287 0.90771 0.91863 0.0
C681 C 0.07644 0.8942 0.92055 0.0
C682 C 0.06129 0.92625 0.93753 0.0
C683 C 0.11968 0.87572 0.90034 0.0
C684 C 0.13608 0.91735 0.88741 0.0
C685 C 0.12018 0.80553 0.89565 0.0
C686 C 0.1044 0.75747 0.90906 0.0
C687 C 0.0875 0.71372 0.89766 0.0
C688 C 0.07208 0.66969 0.91031 0.0
C689 C 0.07354 0.66858 0.93439 0.0
C690 C 0.09057 0.71113 0.94586 0.0
C691 C 0.10606 0.75517 0.93328 0.0
H692 H 0.06152 0.63464 0.94416 0.0
H693 H 0.20876 0.07736 0.82584 0.0
H694 H 0.79158 0.22904 0.82592 0.0
H695 H 0.81987 0.20503 0.85827 0.0
H696 H 0.87944 0.32133 0.82591 0.0
H697 H 0.85135 0.34124 0.79269 0.0
H698 H 0.90067 0.21593 0.83926 0.0
H699 H 0.84695 0.36404 0.88099 0.0
H700 H 0.80677 0.41295 0.89529 0.0
H701 H 0.78786 0.22611 0.92834 0.0
H702 H 0.82777 0.17575 0.91399 0.0
H703 H 0.9809 0.14522 0.94011 0.0
H704 H 0.95559 0.20487 0.91052 0.0
H705 H 0.89139 0.07609 0.92494 0.0
H706 H 0.91609 1.01744 0.95409 0.0
H707 H 0.87567 0.20361 0.9216 0.0
H708 H 0.93037 0.05708 0.87521 0.0
H709 H 0.97251 1.01692 0.86218 0.0
H710 H 0.99191 0.21631 0.83972 0.0
H711 H 0.94994 0.25769 0.85271 0.0
C712 C 0.81021 0.25273 0.82626 0.0
C713 C 0.81867 0.28952 0.80696 0.0
C714 C 0.8267 0.23826 0.84483 0.0
C715 C 0.85217 0.26151 0.84511 0.0
C716 C 0.86008 0.30237 0.8265 0.0
C717 C 0.84372 0.31539 0.80763 0.0
C718 C 0.87083 0.23862 0.86368 0.0
C719 C 0.89521 0.21475 0.8573 0.0
C720 C 0.86427 0.23586 0.88747 0.0
C721 C 0.84028 0.26598 0.89625 0.0
C722 C 0.83415 0.33324 0.89119 0.0
C723 C 0.81143 0.36124 0.89932 0.0
C724 C 0.79475 0.32262 0.91267 0.0
C725 C 0.80079 0.25595 0.91798 0.0
C726 C 0.82348 0.22768 0.90988 0.0
C727 C 0.96141 0.1296 0.93696 0.0
C728 C 0.95087 0.07556 0.94958 0.0
C729 C 0.9469 0.16366 0.91989 0.0
C730 C 0.92137 0.14506 0.91511 0.0
C731 C 0.91089 0.09195 0.928 0.0
C732 C 0.9253 0.05785 0.94475 0.0
C733 C 0.90509 0.18008 0.89708 0.0
C734 C 0.88114 0.20588 0.90357 0.0
C735 C 0.91228 0.18598 0.87355 0.0
C736 C 0.93718 0.16061 0.86521 0.0
C737 C 0.94368 0.09238 0.86759 0.0
C738 C 0.96752 0.06942 0.86021 0.0
C739 C 0.98495 0.1142 0.85034 0.0
C740 C 0.97847 0.18183 0.84755 0.0
C741 C 0.95463 0.205 0.85484 0.0
H742 H 1.00346 0.09648 0.84478 0.0
H743 H 0.77716 0.34438 0.91894 0.0
H744 H 0.73413 0.15788 0.68462 0.0
H745 H 0.70893 0.10044 0.65443 0.0
H746 H 0.64068 0.19587 0.67961 0.0
H747 H 0.6653 0.25156 0.70952 0.0
H748 H 0.62986 0.07012 0.67011 0.0
H749 H 0.67113 0.25103 0.62573 0.0
H750 H 0.70912 0.31347 0.61234 0.0
H751 H 0.74155 0.13054 0.58638 0.0
H752 H 0.70352 0.06726 0.59922 0.0
H753 H 0.54123 0.05406 0.57671 0.0
H754 H 0.57026 0.07722 0.60876 0.0
H755 H 0.63187 0.98542 0.57105 0.0
H756 H 0.60286 0.96526 0.53853 0.0
H757 H 0.64944 0.09569 0.58691 0.0
H758 H 0.60437 0.91851 0.62438 0.0
H759 H 0.56688 0.85471 0.63789 0.0
H760 H 0.54333 0.0231 0.67895 0.0
H761 H 0.5805 0.08829 0.66544 0.0
C762 C 0.71375 0.16628 0.68377 0.0
C763 C 0.70202 0.21048 0.69955 0.0
C764 C 0.69927 0.13378 0.6663 0.0
C765 C 0.67264 0.14406 0.66424 0.0
C766 C 0.66102 0.18667 0.68044 0.0
C767 C 0.67535 0.2192 0.69761 0.0
C768 C 0.65646 0.11121 0.64559 0.0
C769 C 0.63414 0.07617 0.65192 0.0
C770 C 0.66205 0.11657 0.6217 0.0
C771 C 0.68461 0.1545 0.61351 0.0
C772 C 0.68637 0.22423 0.61712 0.0
C773 C 0.70786 0.25975 0.60957 0.0
C774 C 0.72775 0.22596 0.59853 0.0
C775 C 0.72613 0.15661 0.59492 0.0
C776 C 0.70454 0.12098 0.60217 0.0
C777 C 0.5606 0.03533 0.57574 0.0
C778 C 0.56926 1.00501 0.55526 0.0
C779 C 0.57749 0.04951 0.5941 0.0
C780 C 0.60366 0.03301 0.59282 0.0
C781 C 0.61198 0.99898 0.57286 0.0
C782 C 0.59513 0.98578 0.55436 0.0
C783 C 0.62243 0.05531 0.6114 0.0
C784 C 0.64522 0.08863 0.60507 0.0
C785 C 0.61739 0.04771 0.63537 0.0
C786 C 0.59514 1.00848 0.64374 0.0
C787 C 0.59112 0.94209 0.63618 0.0
C788 C 0.56993 0.90566 0.64386 0.0
C789 C 0.5527 0.93489 0.65923 0.0
C790 C 0.55668 1.00055 0.66703 0.0
C791 C 0.57783 0.03723 0.65939 0.0
H792 H 0.53629 0.90662 0.66513 0.0
H793 H 0.74438 0.2535 0.59274 0.0
H794 H 0.47946 1.01733 0.57724 0.0
H795 H 0.45289 0.99505 0.61132 0.0
H796 H 0.38517 0.02012 0.56996 0.0
H797 H 0.41162 0.04435 0.53633 0.0
H798 H 0.37313 0.0577 0.61083 0.0
H799 H 0.41348 0.85289 0.58346 0.0
H800 H 0.45121 0.78661 0.57167 0.0
H801 H 0.48371 0.81264 0.63914 0.0
H802 H 0.4465 0.88064 0.65088 0.0
H803 H 0.28636 0.85344 0.67803 0.0
H804 H 0.31314 0.90538 0.64801 0.0
H805 H 0.38006 0.86869 0.68958 0.0
H806 H 0.35365 0.81322 0.71849 0.0
H807 H 0.39328 0.84227 0.64979 0.0
H808 H 0.34573 0.02906 0.67945 0.0
H809 H 0.30575 0.08744 0.68923 0.0
H810 H 0.28562 0.09724 0.61752 0.0
H811 H 0.32454 0.0345 0.60737 0.0
C812 C 0.45893 0.02156 0.57568 0.0
C813 C 0.44784 0.03415 0.55395 0.0
C814 C 0.44358 1.00691 0.59515 0.0
C815 C 0.41667 1.00337 0.59342 0.0
C816 C 0.40568 0.02185 0.57216 0.0
C817 C 0.42095 0.03666 0.55282 0.0
C818 C 0.40001 0.97614 0.61284 0.0
C819 C 0.37754 1.01041 0.61925 0.0
C820 C 0.40547 0.91476 0.62442 0.0
C821 C 0.42752 0.87259 0.61779 0.0
C822 C 0.42888 0.84489 0.59556 0.0
C823 C 0.45008 0.80698 0.58895 0.0
C824 C 0.46985 0.79547 0.60464 0.0
C825 C 0.4684 0.82171 0.62698 0.0
C826 C 0.44728 0.86001 0.6336 0.0
C827 C 0.30674 0.85734 0.68085 0.0
C828 C 0.31771 0.82945 0.70087 0.0
C829 C 0.32221 0.88731 0.66362 0.0
C830 C 0.34902 0.89254 0.66628 0.0
C831 C 0.35968 0.86573 0.68662 0.0
C832 C 0.34441 0.8343 0.70339 0.0
C833 C 0.36627 0.92383 0.64801 0.0
C834 C 0.38889 0.8901 0.64172 0.0
C835 C 0.36083 0.98576 0.63663 0.0
C836 C 0.33802 0.02637 0.64265 0.0
C837 C 0.33272 0.04322 0.66575 0.0
C838 C 0.31019 0.07693 0.67138 0.0
C839 C 0.2933 0.09667 0.65401 0.0
C840 C 0.29875 0.08205 0.63096 0.0
C841 C 0.32095 0.04686 0.62527 0.0
H842 H 0.27595 0.12313 0.65841 0.0
H843 H 0.48626 0.7661 0.59951 0.0
H844 H 0.54165 0.40225 0.93738 0.0
H845 H 0.56834 0.34687 0.90803 0.0
H846 H 0.63296 0.4651 0.92998 0.0
H847 H 0.60656 0.52124 0.95832 0.0
H848 H 0.6345 0.46551 0.8871 0.0
H849 H 0.62327 0.28526 0.94132 0.0
H850 H 0.59831 0.20628 0.96518 0.0
H851 H 0.56397 0.12331 0.90421 0.0
H852 H 0.58846 0.2025 0.87999 0.0
H853 H 0.73093 0.25696 0.8273 0.0
H854 H 0.70509 0.28082 0.86189 0.0
H855 H 0.63715 0.28455 0.82014 0.0
H856 H 0.66242 0.25677 0.7861 0.0
H857 H 0.63907 0.2196 0.87393 0.0
H858 H 0.63403 0.48797 0.84064 0.0
H859 H 0.65894 0.57432 0.81996 0.0
H860 H 0.72864 0.4833 0.84314 0.0
H861 H 0.70412 0.39954 0.86528 0.0
C862 C 0.56155 0.41625 0.93597 0.0
C863 C 0.57163 0.46711 0.9503 0.0
C864 C 0.57699 0.38413 0.91917 0.0
C865 C 0.60309 0.40097 0.9165 0.0
C866 C 0.61305 0.45086 0.93117 0.0
C867 C 0.59772 0.48322 0.94759 0.0
C868 C 0.62013 0.36931 0.89825 0.0
C869 C 0.63553 0.41156 0.88454 0.0
C870 C 0.62188 0.29879 0.8944 0.0
C871 C 0.60752 0.25025 0.90886 0.0
C872 C 0.6103 0.2504 0.93301 0.0
C873 C 0.59624 0.2056 0.9466 0.0
C874 C 0.57951 0.15995 0.93623 0.0
C875 C 0.57691 0.15879 0.91223 0.0
C876 C 0.59089 0.20358 0.89856 0.0
C877 C 0.71037 0.25919 0.82568 0.0
C878 C 0.6989 0.25398 0.80374 0.0
C879 C 0.69557 0.27467 0.84544 0.0
C880 C 0.66911 0.28722 0.84364 0.0
C881 C 0.65745 0.27623 0.82217 0.0
C882 C 0.67202 0.25934 0.80265 0.0
C883 C 0.65367 0.31597 0.86336 0.0
C884 C 0.63821 0.27338 0.87689 0.0
C885 C 0.65218 0.38626 0.86744 0.0
C886 C 0.66722 0.43553 0.85382 0.0
C887 C 0.65468 0.4863 0.8413 0.0
C888 C 0.66873 0.53545 0.82959 0.0
C889 C 0.69537 0.53375 0.82996 0.0
C890 C 0.708 0.48391 0.84254 0.0
C891 C 0.69402 0.43562 0.85473 0.0
H892 H 0.70622 0.57132 0.82064 0.0
H893 H 0.5686 0.1254 0.94678 0.0
H894 H 0.47905 0.61317 0.93241 0.0
H895 H 0.45234 0.66792 0.90303 0.0
H896 H 0.38485 0.59208 0.93683 0.0
H897 H 0.41142 0.53434 0.96496 0.0
H898 H 0.37481 0.5801 0.89653 0.0
H899 H 0.40876 0.77237 0.93536 0.0
H900 H 0.44227 0.84621 0.95132 0.0
H901 H 0.47375 0.87317 0.88357 0.0
H902 H 0.44064 0.79867 0.86725 0.0
H903 H 0.28657 0.75933 0.82709 0.0
H904 H 0.31254 0.7334 0.86127 0.0
H905 H 0.38082 0.77756 0.82279 0.0
H906 H 0.35487 0.80456 0.78893 0.0
H907 H 0.38955 0.81003 0.86626 0.0
H908 H 0.35794 0.60059 0.83107 0.0
H909 H 0.32283 0.52975 0.81584 0.0
H910 H 0.28469 0.54167 0.88125 0.0
H911 H 0.31942 0.61332 0.89646 0.0
C912 C 0.45851 0.60858 0.93362 0.0
C913 C 0.44758 0.56888 0.95118 0.0
C914 C 0.44304 0.64053 0.9168 0.0
C915 C 0.41607 0.63563 0.91741 0.0
C916 C 0.40535 0.59701 0.93536 0.0
C917 C 0.42073 0.56394 0.9517 0.0
C918 C 0.39886 0.66795 0.89924 0.0
C919 C 0.37799 0.63102 0.89045 0.0
C920 C 0.40257 0.73416 0.89044 0.0
C921 C 0.42234 0.77951 0.90012 0.0
C922 C 0.42291 0.79378 0.92389 0.0
C923 C 0.44182 0.83575 0.933 0.0
C924 C 0.46015 0.86426 0.91848 0.0
C925 C 0.45955 0.851 0.8948 0.0
C926 C 0.44071 0.80895 0.8856 0.0
C927 C 0.30702 0.76698 0.82625 0.0
C928 C 0.31843 0.78586 0.80521 0.0
C929 C 0.32206 0.75025 0.84574 0.0
C930 C 0.34902 0.75115 0.84476 0.0
C931 C 0.36024 0.77577 0.82436 0.0
C932 C 0.34525 0.79229 0.80494 0.0
C933 C 0.36556 0.72234 0.86402 0.0
C934 C 0.38636 0.75959 0.87279 0.0
C935 C 0.36148 0.6571 0.87333 0.0
C936 C 0.34092 0.61298 0.8646 0.0
C937 C 0.34185 0.58848 0.84194 0.0
C938 C 0.32211 0.54819 0.83339 0.0
C939 C 0.30146 0.53156 0.84753 0.0
C940 C 0.30064 0.5548 0.87028 0.0
C941 C 0.32035 0.59518 0.87887 0.0
H942 H 0.28616 0.50047 0.84089 0.0
H943 H 0.47478 0.89671 0.92557 0.0
H944 H 0.60576 0.48053 0.03577 0.0
H945 H 0.63399 0.50149 0.06865 0.0
H946 H 0.569 0.55388 0.11029 0.0
H947 H 0.54066 0.53275 0.0772 0.0
H948 H 0.64029 0.62497 0.0875 0.0
H949 H 0.58677 0.53468 0.16887 0.0
H950 H 0.55751 0.44374 0.18073 0.0
H951 H 0.58736 0.31633 0.12746 0.0
H952 H 0.61703 0.40612 0.11549 0.0
H953 H 0.67858 0.80267 0.18704 0.0
H954 H 0.65336 0.7437 0.1583 0.0
H955 H 0.69288 0.55954 0.17401 0.0
H956 H 0.71854 0.6191 0.20344 0.0
H957 H 0.63743 0.54282 0.16833 0.0
H958 H 0.70811 0.63207 0.12254 0.0
H959 H 0.73742 0.72505 0.11265 0.0
H960 H 0.67348 0.85108 0.09605 0.0
H961 H 0.64393 0.75827 0.10518 0.0
C962 C 0.59729 0.49289 0.05228 0.0
C963 C 0.57072 0.50288 0.05385 0.0
C964 C 0.61358 0.50621 0.07107 0.0
C965 C 0.60393 0.53004 0.09218 0.0
C966 C 0.57718 0.5352 0.0944 0.0
C967 C 0.56082 0.52196 0.07548 0.0
C968 C 0.62193 0.55544 0.11075 0.0
C969 C 0.6396 0.60629 0.10508 0.0
C970 C 0.62148 0.53205 0.13394 0.0
C971 C 0.60395 0.47742 0.14116 0.0
C972 C 0.58716 0.48717 0.15975 0.0
C973 C 0.57049 0.43583 0.16648 0.0
C974 C 0.57052 0.37438 0.15481 0.0
C975 C 0.58728 0.36405 0.13643 0.0
C976 C 0.604 0.4152 0.12964 0.0
C977 C 0.68215 0.74963 0.18458 0.0
C978 C 0.70092 0.71629 0.19783 0.0
C979 C 0.66756 0.71572 0.16791 0.0
C980 C 0.67101 0.64678 0.16364 0.0
C981 C 0.68963 0.61266 0.17683 0.0
C982 C 0.70453 0.64701 0.19359 0.0
C983 C 0.65545 0.61233 0.14499 0.0
C984 C 0.63818 0.56052 0.15064 0.0
C985 C 0.65614 0.63461 0.12174 0.0
C986 C 0.67389 0.68847 0.11453 0.0
C987 C 0.70038 0.67948 0.11654 0.0
C988 C 0.71703 0.73206 0.11103 0.0
C989 C 0.70734 0.79393 0.1037 0.0
C990 C 0.681 0.80303 0.10156 0.0
C991 C 0.6643 0.7503 0.10669 0.0
H992 H 0.72025 0.83482 0.09969 0.0
H993 H 0.55759 0.33472 0.16003 0.0
H994 H 0.31908 0.23628 0.17462 0.0
H995 H 0.34556 0.2917 0.14568 0.0
H996 H 0.34436 0.47443 0.18552 0.0
H997 H 0.31604 0.41998 0.21386 0.0
H998 H 0.34698 0.51145 0.14397 0.0
H999 H 0.39773 0.34687 0.18411 0.0
H1000 H 0.40626 0.23294 0.19921 0.0
H1001 H 0.4049 0.15375 0.13033 0.0
H1002 H 0.39604 0.26696 0.11484 0.0
H1003 H 0.48131 0.50057 0.07725 0.0
H1004 H 0.45424 0.47823 0.11099 0.0
H1005 H 0.38766 0.5297 0.07101 0.0
H1006 H 0.41469 0.55282 0.03769 0.0
H1007 H 0.42204 0.38323 0.11641 0.0
H1008 H 0.33604 0.56327 0.10349 0.0
H1009 H 0.32778 0.67986 0.091 0.0
H1010 H 0.40396 0.73629 0.11033 0.0
H1011 H 0.41257 0.62029 0.12321 0.0
C1012 C 0.32406 0.28868 0.17708 0.0
C1013 C 0.31532 0.32345 0.19667 0.0
C1014 C 0.33963 0.32029 0.16057 0.0
C1015 C 0.34816 0.38698 0.16348 0.0
C1016 C 0.33854 0.42285 0.18264 0.0
C1017 C 0.3222 0.39168 0.19892 0.0
C1018 C 0.36738 0.41791 0.14686 0.0
C1019 C 0.3634 0.48321 0.13807 0.0
C1020 C 0.38943 0.38271 0.13915 0.0
C1021 C 0.39613 0.31534 0.14834 0.0
C1022 C 0.39931 0.30515 0.17219 0.0
C1023 C 0.40413 0.2407 0.18082 0.0
C1024 C 0.40603 0.18618 0.16573 0.0
C1025 C 0.40339 0.19605 0.14198 0.0
C1026 C 0.39853 0.26035 0.13326 0.0
C1027 C 0.46107 0.51101 0.07608 0.0
C1028 C 0.45041 0.53098 0.05484 0.0
C1029 C 0.4454 0.49664 0.09531 0.0
C1030 C 0.41856 0.50198 0.09395 0.0
C1031 C 0.40814 0.52627 0.07312 0.0
C1032 C 0.42376 0.54036 0.05396 0.0
C1033 C 0.40144 0.47638 0.11323 0.0
C1034 C 0.40578 0.41184 0.12246 0.0
C1035 C 0.38007 0.51287 0.12166 0.0
C1036 C 0.375 0.5829 0.11414 0.0
C1037 C 0.35099 0.60062 0.10517 0.0
C1038 C 0.34626 0.66659 0.098 0.0
C1039 C 0.36535 0.71541 0.09981 0.0
C1040 C 0.38921 0.69839 0.10886 0.0
C1041 C 0.39404 0.6325 0.11607 0.0
H1042 H 0.36165 0.76644 0.09424 0.0
H1043 H 0.40954 0.13626 0.17244 0.0
H1044 H 0.60674 1.01744 0.46051 0.0
H1045 H 0.63211 0.96294 0.43096 0.0
H1046 H 0.56489 0.86293 0.40512 0.0
H1047 H 0.53931 0.91591 0.43575 0.0
H1048 H 0.60133 0.78113 0.39897 0.0
H1049 H 0.59592 1.01219 0.37829 0.0
H1050 H 0.59862 0.13499 0.38338 0.0
H1051 H 0.67886 0.11918 0.39733 0.0
H1052 H 0.67657 0.99604 0.39257 0.0
H1053 H 0.66322 0.72562 0.28799 0.0
H1054 H 0.63607 0.75279 0.32109 0.0
H1055 H 0.70176 0.82747 0.35777 0.0
H1056 H 0.72895 0.79914 0.32473 0.0
H1057 H 0.66413 0.92102 0.35662 0.0
H1058 H 0.66749 0.6849 0.37586 0.0
H1059 H 0.66261 0.56371 0.36798 0.0
H1060 H 0.58321 0.5929 0.35273 0.0
H1061 H 0.5877 0.71449 0.36021 0.0
C1062 C 0.59713 0.98404 0.44857 0.0
C1063 C 0.57065 0.97237 0.45054 0.0
C1064 C 0.61181 0.95298 0.43133 0.0
C1065 C 0.60062 0.91033 0.41475 0.0
C1066 C 0.57428 0.89636 0.41718 0.0
C1067 C 0.55952 0.9268 0.43481 0.0
C1068 C 0.61657 0.88121 0.39517 0.0
C1069 C 0.61477 0.8123 0.38958 0.0
C1070 C 0.6345 0.92061 0.38255 0.0
C1071 C 0.63601 0.99474 0.38525 0.0
C1072 C 0.61411 0.0348 0.38254 0.0
C1073 C 0.61557 0.1045 0.38537 0.0
C1074 C 0.63889 0.13486 0.39073 0.0
C1075 C 0.6608 0.09558 0.3932 0.0
C1076 C 0.65944 0.02583 0.39041 0.0
C1077 C 0.67214 0.74413 0.30361 0.0
C1078 C 0.69856 0.7578 0.30382 0.0
C1079 C 0.65645 0.76069 0.32256 0.0
C1080 C 0.66657 0.79275 0.34224 0.0
C1081 C 0.69321 0.80297 0.34297 0.0
C1082 C 0.70895 0.78536 0.32416 0.0
C1083 C 0.64934 0.82094 0.36093 0.0
C1084 C 0.65075 0.88996 0.36614 0.0
C1085 C 0.63073 0.78196 0.37275 0.0
C1086 C 0.62799 0.70887 0.3684 0.0
C1087 C 0.64903 0.66556 0.37066 0.0
C1088 C 0.64633 0.59678 0.36629 0.0
C1089 C 0.62263 0.57064 0.35981 0.0
C1090 C 0.60156 0.61322 0.35773 0.0
C1091 C 0.60417 0.68205 0.36206 0.0
H1092 H 0.62058 0.51739 0.35642 0.0
H1093 H 0.63998 0.18883 0.39294 0.0
H1094 H 0.4788 0.13738 0.43774 0.0
H1095 H 0.45273 0.19327 0.40788 0.0
H1096 H 0.3877 0.07449 0.42831 0.0
H1097 H 0.41335 1.01855 0.4573 0.0
H1098 H 0.38796 0.07372 0.38501 0.0
H1099 H 0.3962 0.25201 0.44023 0.0
H1100 H 0.41982 0.3312 0.46509 0.0
H1101 H 0.45531 0.41869 0.40543 0.0
H1102 H 0.43216 0.33932 0.38022 0.0
H1103 H 0.29131 0.28753 0.32588 0.0
H1104 H 0.31751 0.26355 0.36031 0.0
H1105 H 0.38437 0.24873 0.31761 0.0
H1106 H 0.35879 0.27623 0.28363 0.0
H1107 H 0.38171 0.31991 0.37284 0.0
H1108 H 0.38931 0.04959 0.33965 0.0
H1109 H 0.36512 0.96295 0.31843 0.0
H1110 H 0.29472 0.05695 0.33791 0.0
H1111 H 0.31839 0.14092 0.36066 0.0
C1112 C 0.45893 0.12341 0.43589 0.0
C1113 C 0.44853 0.07231 0.44995 0.0
C1114 C 0.44388 0.15573 0.41879 0.0
C1115 C 0.41788 0.13867 0.4155 0.0
C1116 C 0.40757 0.08874 0.42994 0.0
C1117 C 0.42249 0.05639 0.44672 0.0
C1118 C 0.40127 0.17017 0.39686 0.0
C1119 C 0.38663 0.12769 0.38257 0.0
C1120 C 0.39906 0.24072 0.39331 0.0
C1121 C 0.41263 0.28929 0.40836 0.0
C1122 C 0.40915 0.2879 0.43242 0.0
C1123 C 0.42244 0.33282 0.44657 0.0
C1124 C 0.43912 0.37981 0.43685 0.0
C1125 C 0.44242 0.38218 0.41294 0.0
C1126 C 0.4292 0.33727 0.3987 0.0
C1127 C 0.31177 0.28266 0.32396 0.0
C1128 C 0.32279 0.28434 0.30178 0.0
C1129 C 0.32676 0.26749 0.34366 0.0
C1130 C 0.35295 0.25196 0.34161 0.0
C1131 C 0.36426 0.25941 0.31983 0.0
C1132 C 0.34952 0.27596 0.30034 0.0
C1133 C 0.36829 0.22321 0.36141 0.0
C1134 C 0.38298 0.26606 0.37554 0.0
C1135 C 0.37025 0.15282 0.36517 0.0
C1136 C 0.35571 0.10341 0.35113 0.0
C1137 C 0.36866 0.05183 0.3394 0.0
C1138 C 0.35502 1.00249 0.32741 0.0
C1139 C 0.3284 1.00492 0.32658 0.0
C1140 C 0.31535 0.05571 0.33826 0.0
C1141 C 0.32889 0.10412 0.35079 0.0
H1142 H 0.31788 0.96726 0.317 0.0
H1143 H 0.44943 0.41446 0.44784 0.0
H1144 H 0.01126 0.80577 0.97621 0.0
H1145 H 0.01716 0.68349 0.97573 0.0
H1146 H 0.0152 0.67988 0.04998 0.0
H1147 H 1.00881 0.80187 0.05044 0.0
H1148 H 0.04795 0.57793 0.03144 0.0
H1149 H 0.96213 0.65601 0.02345 0.0
H1150 H 0.92804 0.72497 1.00617 0.0
H1151 H 0.93966 0.62824 0.94082 0.0
H1152 H 0.97419 0.55943 0.95765 0.0
H1153 H 0.00991 0.24543 0.05172 0.0
H1154 H 1.00504 0.36761 0.05042 0.0
H1155 H 1.00434 0.36111 0.97618 0.0
H1156 H 0.00931 0.23834 0.97749 0.0
H1157 H 0.97376 0.46822 0.99362 0.0
H1158 H 0.05912 0.38557 1.00325 0.0
H1159 H 0.09285 0.31792 0.02172 0.0
H1160 H 0.08166 0.42411 0.08537 0.0
H1161 H 0.0475 0.49163 0.06739 0.0
C1162 C 0.01375 0.77979 0.9925 0.0
C1163 C 0.01009 0.81487 0.01339 0.0
C1164 C 0.0165 0.70909 0.9922 0.0
C1165 C 0.01611 0.67125 0.01282 0.0
C1166 C 0.01554 0.70702 0.03377 0.0
C1167 C 0.0124 0.77753 0.03404 0.0
C1168 C 0.01326 0.59524 0.01251 0.0
C1169 C 0.03162 0.55421 0.0233 0.0
C1170 C 0.99208 0.56305 1.00181 0.0
C1171 C 0.97093 0.60305 0.99174 0.0
C1172 C 0.95754 0.64974 1.00535 0.0
C1173 C 0.93813 0.68881 0.99565 0.0
C1174 C 0.93174 0.68115 0.9724 0.0
C1175 C 0.94467 0.63419 0.95883 0.0
C1176 C 0.96416 0.59511 0.96844 0.0
C1177 C 1.00709 0.26926 0.03509 0.0
C1178 C 0.00959 0.23086 0.01474 0.0
C1179 C 1.00494 0.33989 0.03434 0.0
C1180 C 1.00504 0.37486 0.01319 0.0
C1181 C 1.0044 0.33617 0.9928 0.0
C1182 C 1.0067 0.26523 0.99356 0.0
C1183 C 1.0085 0.45075 0.01253 0.0
C1184 C 0.9902 0.49181 1.00162 0.0
C1185 C 0.02969 0.483 0.02326 0.0
C1186 C 0.05056 0.44329 0.03402 0.0
C1187 C 0.06372 0.39421 0.02123 0.0
C1188 C 0.08292 0.35588 0.03161 0.0
C1189 C 0.08935 0.36661 0.05472 0.0
C1190 C 0.07663 0.41581 0.06748 0.0
C1191 C 0.05735 0.45415 0.05719 0.0
H1192 H 0.10423 0.33694 0.06274 0.0
H1193 H 0.91672 0.71149 0.96491 0.0
H1194 H 0.25616 0.4958 0.30227 0.0
H1195 H 0.26155 0.61785 0.3015 0.0
H1196 H 0.2679 0.61231 0.22745 0.0
H1197 H 0.26257 0.48963 0.22824 0.0
H1198 H 0.29644 0.71811 0.2453 0.0
H1199 H 0.21043 0.6402 0.25198 0.0
H1200 H 0.17457 0.57582 0.26844 0.0
H1201 H 0.18444 0.67691 0.33329 0.0
H1202 H 0.22052 0.74162 0.31724 0.0
H1203 H 0.25837 0.05529 0.22591 0.0
H1204 H 0.25343 0.93268 0.22593 0.0
H1205 H 0.2547 0.93199 0.30021 0.0
H1206 H 0.26025 0.05438 0.30017 0.0
H1207 H 0.22178 0.82969 0.28129 0.0
H1208 H 0.30835 0.90711 0.27409 0.0
H1209 H 0.34296 0.97392 0.25663 0.0
H1210 H 0.33111 0.87452 0.19178 0.0
H1211 H 0.2962 0.80742 0.2088 0.0
C1212 C 0.26034 0.51981 0.2859 0.0
C1213 C 0.25932 0.48176 0.26537 0.0
C1214 C 0.26275 0.59039 0.28541 0.0
C1215 C 0.26434 0.62562 0.26435 0.0
C1216 C 0.26648 0.58719 0.24399 0.0
C1217 C 0.26397 0.5163 0.24449 0.0
C1218 C 0.26126 0.70157 0.26357 0.0
C1219 C 0.27994 0.74212 0.25295 0.0
C1220 C 0.2399 0.73439 0.27368 0.0
C1221 C 0.21829 0.69544 0.28345 0.0
C1222 C 0.20506 0.64841 0.26979 0.0
C1223 C 0.18466 0.61196 0.27904 0.0
C1224 C 0.1772 0.6224 0.30189 0.0
C1225 C 0.19019 0.66909 0.31557 0.0
C1226 C 0.2106 0.70573 0.3064 0.0
C1227 C 0.25595 0.02977 0.2423 0.0
C1228 C 0.25909 0.06586 0.26306 0.0
C1229 C 0.25377 0.95894 0.24229 0.0
C1230 C 0.25418 0.92198 0.26308 0.0
C1231 C 0.25437 0.95851 0.28388 0.0
C1232 C 0.25699 0.02919 0.28386 0.0
C1233 C 0.25698 0.84606 0.26312 0.0
C1234 C 0.23826 0.80558 0.27362 0.0
C1235 C 0.27822 0.81336 0.25283 0.0
C1236 C 0.29948 0.85272 0.24265 0.0
C1237 C 0.313 0.8998 0.25606 0.0
C1238 C 0.33268 0.93772 0.24625 0.0
C1239 C 0.33915 0.92874 0.22309 0.0
C1240 C 0.32603 0.88152 0.20971 0.0
C1241 C 0.30632 0.84344 0.21944 0.0
H1242 H 0.35437 0.95821 0.21552 0.0
H1243 H 0.16138 0.59423 0.30903 0.0
H1244 H 0.76264 0.98334 0.22526 0.0
H1245 H 0.76852 0.10573 0.22418 0.0
H1246 H 0.76207 0.1129 0.29823 0.0
H1247 H 0.75628 0.99101 0.29925 0.0
H1248 H 0.72818 0.19502 0.28029 0.0
H1249 H 0.81651 0.15791 0.26807 0.0
H1250 H 0.85645 0.11838 0.25037 0.0
H1251 H 0.8384 0.22494 0.188 0.0
H1252 H 0.79786 0.26313 0.20498 0.0
H1253 H 0.75632 0.5453 0.29884 0.0
H1254 H 0.75085 0.42338 0.29718 0.0
H1255 H 0.75612 0.43062 0.22304 0.0
H1256 H 0.76157 0.55303 0.22479 0.0
H1257 H 0.78982 0.3417 0.23947 0.0
H1258 H 0.70077 0.37691 0.25224 0.0
H1259 H 0.6628 0.4228 0.27168 0.0
H1260 H 0.68438 0.32363 0.33458 0.0
H1261 H 0.72271 0.2779 0.31561 0.0
C1262 C 0.76418 1.01025 0.24145 0.0
C1263 C 0.75944 0.97615 0.26241 0.0
C1264 C 0.76701 0.08109 0.24079 0.0
C1265 C 0.76526 0.12003 0.2611 0.0
C1266 C 0.7632 0.08514 0.28219 0.0
C1267 C 0.76054 1.01462 0.28283 0.0
C1268 C 0.76287 0.19627 0.26041 0.0
C1269 C 0.74194 0.22681 0.27155 0.0
C1270 C 0.78021 0.23902 0.24851 0.0
C1271 C 0.80387 0.21267 0.23773 0.0
C1272 C 0.82076 0.17186 0.25041 0.0
C1273 C 0.84359 0.14988 0.24053 0.0
C1274 C 0.84998 0.16919 0.21809 0.0
C1275 C 0.83347 0.21019 0.20542 0.0
C1276 C 0.81047 0.23163 0.21511 0.0
C1277 C 0.75459 0.52168 0.28206 0.0
C1278 C 0.75875 0.56018 0.26194 0.0
C1279 C 0.75196 0.45112 0.28112 0.0
C1280 C 0.75334 0.41632 0.25997 0.0
C1281 C 0.75514 0.45528 0.23967 0.0
C1282 C 0.75755 0.52605 0.24063 0.0
C1283 C 0.75519 0.34003 0.2593 0.0
C1284 C 0.77599 0.30958 0.24798 0.0
C1285 C 0.73784 0.29727 0.27109 0.0
C1286 C 0.71475 0.32447 0.28254 0.0
C1287 C 0.69754 0.3653 0.27026 0.0
C1288 C 0.67593 0.39122 0.2812 0.0
C1289 C 0.67122 0.37629 0.30437 0.0
C1290 C 0.68807 0.33523 0.31664 0.0
C1291 C 0.70973 0.30923 0.3058 0.0
H1292 H 0.65448 0.39643 0.3128 0.0
H1293 H 0.86769 0.15225 0.21048 0.0
H1294 H 0.99278 0.73369 0.53941 0.0
H1295 H 0.98344 0.85373 0.5352 0.0
H1296 H 0.02405 0.85404 0.47032 0.0
H1297 H 0.02904 0.7339 0.4729 0.0
H1298 H 1.00644 0.95062 0.539 0.0
H1299 H 0.02489 0.99161 0.43957 0.0
H1300 H 0.01184 0.94 0.40271 0.0
H1301 H 0.94689 0.85019 0.4357 0.0
H1302 H 0.95928 0.90207 0.47269 0.0
H1303 H 0.02847 0.29642 0.53612 0.0
H1304 H 0.03548 0.17536 0.53135 0.0
H1305 H 0.98474 0.17653 0.47249 0.0
H1306 H 0.98176 0.29739 0.47501 0.0
H1307 H 1.00462 0.07868 0.46579 0.0
H1308 H 0.96984 0.13578 0.53855 0.0
H1309 H 0.96669 0.18947 0.57679 0.0
H1310 H 0.03461 0.08723 0.59882 0.0
H1311 H 0.03832 0.03352 0.56059 0.0
C1312 C 0.99778 0.75878 0.52344 0.0
C1313 C 0.01076 0.72328 0.5061 0.0
C1314 C 0.99326 0.82849 0.52128 0.0
C1315 C 1.00292 0.86565 0.50232 0.0
C1316 C 0.01502 0.82879 0.48467 0.0
C1317 C 0.01793 0.75883 0.48613 0.0
C1318 C 1.00269 0.94233 0.50201 0.0
C1319 C 1.00554 0.97808 0.52287 0.0
C1320 C 1.00091 0.98089 0.48133 0.0
C1321 C 0.99318 0.95028 0.459 0.0
C1322 C 1.00774 0.96118 0.43896 0.0
C1323 C 1.00048 0.93178 0.41804 0.0
C1324 C 0.97861 0.89166 0.41689 0.0
C1325 C 0.96388 0.88107 0.43664 0.0
C1326 C 0.97102 0.91044 0.45759 0.0
C1327 C 0.02025 0.27112 0.52132 0.0
C1328 C 1.00493 0.30714 0.50573 0.0
C1329 C 0.02334 0.20087 0.51906 0.0
C1330 C 0.00938 0.16384 0.50239 0.0
C1331 C 0.99583 0.20134 0.48573 0.0
C1332 C 0.99425 0.27165 0.48704 0.0
C1333 C 1.00747 0.08723 0.50284 0.0
C1334 C 1.00472 0.05136 0.48196 0.0
C1335 C 1.00655 0.04911 0.52366 0.0
C1336 C 1.00452 0.08131 0.54664 0.0
C1337 C 0.98417 0.12505 0.55152 0.0
C1338 C 0.98228 0.15547 0.57319 0.0
C1339 C 1.00048 0.14193 0.5902 0.0
C1340 C 0.02057 0.09779 0.5856 0.0
C1341 C 0.02257 0.06734 0.56395 0.0
H1342 H 0.99899 0.16551 0.60697 0.0
H1343 H 0.97303 0.86894 0.4007 0.0
H1344 H 0.25904 0.98799 0.7259 0.0
H1345 H 0.26506 0.11029 0.72485 0.0
H1346 H 0.26059 0.11665 0.79905 0.0
H1347 H 0.25446 0.99493 0.8 0.0
H1348 H 0.22754 0.20092 0.783 0.0
H1349 H 0.31468 0.15994 0.76619 0.0
H1350 H 0.35304 0.11822 0.74637 0.0
H1351 H 0.33197 0.22665 0.68517 0.0
H1352 H 0.2929 0.26692 0.70428 0.0
H1353 H 0.26041 0.5502 0.79962 0.0
H1354 H 0.25415 0.4284 0.79857 0.0
H1355 H 0.2513 0.4351 0.72432 0.0
H1356 H 0.25736 0.55744 0.72544 0.0
H1357 H 0.28727 0.34527 0.73899 0.0
H1358 H 0.19948 0.384 0.7565 0.0
H1359 H 0.16307 0.4311 0.77794 0.0
H1360 H 0.18816 0.33076 0.83955 0.0
H1361 H 0.22496 0.28383 0.81857 0.0
C1362 C 0.26104 1.0147 0.74209 0.0
C1363 C 0.25684 0.98037 0.76309 0.0
C1364 C 0.26396 0.08552 0.74147 0.0
C1365 C 0.26289 0.12431 0.76187 0.0
C1366 C 0.26124 0.08913 0.78295 0.0
C1367 C 0.25842 1.01865 0.78354 0.0
C1368 C 0.26094 0.20072 0.76135 0.0
C1369 C 0.24093 0.23213 0.77356 0.0
C1370 C 0.27775 0.24289 0.74858 0.0
C1371 C 0.30056 0.21571 0.73661 0.0
C1372 C 0.3179 0.17386 0.74835 0.0
C1373 C 0.33985 0.1506 0.73726 0.0
C1374 C 0.34493 0.16973 0.71452 0.0
C1375 C 0.32802 0.21196 0.7028 0.0
C1376 C 0.30588 0.23461 0.71371 0.0
C1377 C 0.2567 0.52657 0.78311 0.0
C1378 C 0.2587 0.5649 0.76267 0.0
C1379 C 0.25366 0.45608 0.78247 0.0
C1380 C 0.25257 0.42116 0.76134 0.0
C1381 C 0.25228 0.45991 0.74093 0.0
C1382 C 0.25504 0.53065 0.7416 0.0
C1383 C 0.25399 0.34483 0.7606 0.0
C1384 C 0.27386 0.31362 0.74823 0.0
C1385 C 0.23723 0.30276 0.77332 0.0
C1386 C 0.21513 0.33093 0.786 0.0
C1387 C 0.19737 0.37245 0.77467 0.0
C1388 C 0.17663 0.39903 0.78674 0.0
C1389 C 0.17334 0.38408 0.81011 0.0
C1390 C 0.19076 0.34238 0.82145 0.0
C1391 C 0.21155 0.31573 0.80948 0.0
H1392 H 0.15727 0.40469 0.81942 0.0
H1393 H 0.36196 0.1518 0.70598 0.0
H1394 H 0.76198 0.48428 0.72524 0.0
H1395 H 0.76748 0.60638 0.72444 0.0
H1396 H 0.76308 0.61156 0.79868 0.0
H1397 H 0.7568 0.48977 0.7993 0.0
H1398 H 0.73093 0.6975 0.78329 0.0
H1399 H 0.8189 0.65831 0.76424 0.0
H1400 H 0.8542 0.60847 0.74199 0.0
H1401 H 0.8266 0.70363 0.6803 0.0
H1402 H 0.79092 0.75335 0.70213 0.0
H1403 H 0.76146 0.04527 0.80042 0.0
H1404 H 0.75579 0.92355 0.79863 0.0
H1405 H 0.75791 0.93232 0.72437 0.0
H1406 H 0.76388 0.05464 0.72626 0.0
H1407 H 0.79027 0.83956 0.73793 0.0
H1408 H 0.70322 0.88074 0.75658 0.0
H1409 H 0.66686 0.92816 0.778 0.0
H1410 H 0.69176 0.8275 0.83961 0.0
H1411 H 0.72851 0.78024 0.81864 0.0
C1412 C 0.76387 0.5107 0.74149 0.0
C1413 C 0.75958 0.47602 0.76238 0.0
C1414 C 0.76655 0.58146 0.74103 0.0
C1415 C 0.76551 0.61988 0.7615 0.0
C1416 C 0.76376 0.58435 0.78251 0.0
C1417 C 0.76089 0.51385 0.78293 0.0
C1418 C 0.76383 0.69632 0.76108 0.0
C1419 C 0.74427 0.72832 0.77365 0.0
C1420 C 0.78039 0.73785 0.74785 0.0
C1421 C 0.8021 0.70905 0.73479 0.0
C1422 C 0.82028 0.66832 0.7459 0.0
C1423 C 0.84036 0.64011 0.73337 0.0
C1424 C 0.8426 0.6527 0.70973 0.0
C1425 C 0.82482 0.69383 0.69861 0.0
C1426 C 0.80468 0.72211 0.71105 0.0
C1427 C 0.75911 0.02201 0.78364 0.0
C1428 C 0.76242 0.06099 0.7635 0.0
C1429 C 0.7563 0.95154 0.7826 0.0
C1430 C 0.75656 0.91714 0.76133 0.0
C1431 C 0.75777 0.95657 0.74109 0.0
C1432 C 0.76048 0.02731 0.74215 0.0
C1433 C 0.7576 0.84067 0.76045 0.0
C1434 C 0.77697 0.8087 0.7476 0.0
C1435 C 0.74082 0.79901 0.77338 0.0
C1436 C 0.71878 0.82749 0.78607 0.0
C1437 C 0.70108 0.86918 0.77474 0.0
C1438 C 0.68037 0.89594 0.7868 0.0
C1439 C 0.67704 0.881 0.81017 0.0
C1440 C 0.69439 0.83912 0.82151 0.0
C1441 C 0.71515 0.81228 0.80955 0.0
H1442 H 0.66099 0.90175 0.81947 0.0
H1443 H 0.85813 0.6307 0.70005 0.0
H1444 H 0.51207 0.80499 0.47598 0.0
H1445 H 0.51702 0.68226 0.47487 0.0
H1446 H 0.51085 0.67474 0.54891 0.0
H1447 H 0.50592 0.79687 0.55001 0.0
H1448 H 0.54578 0.57536 0.49318 0.0
H1449 H 0.46931 0.55124 0.56409 0.0
H1450 H 0.43326 0.61542 0.58028 0.0
H1451 H 0.4235 0.71807 0.51564 0.0
H1452 H 0.45939 0.65439 0.49907 0.0
H1453 H 0.505 0.24151 0.54877 0.0
H1454 H 0.49935 0.36365 0.54741 0.0
H1455 H 0.50528 0.35869 0.47334 0.0
H1456 H 0.51062 0.23629 0.4747 0.0
H1457 H 0.47002 0.46433 0.52771 0.0
H1458 H 0.54731 0.48634 0.45705 0.0
H1459 H 0.58295 0.41929 0.44147 0.0
H1460 H 0.5913 0.319 0.5067 0.0
H1461 H 0.55602 0.38606 0.52274 0.0
C1462 C 0.51347 0.77788 0.49216 0.0
C1463 C 0.50902 0.81195 0.51314 0.0
C1464 C 0.51574 0.70695 0.49148 0.0
C1465 C 0.51354 0.66798 0.51174 0.0
C1466 C 0.51213 0.70265 0.53289 0.0
C1467 C 0.50999 0.77327 0.53357 0.0
C1468 C 0.51023 0.5921 0.51078 0.0
C1469 C 0.52901 0.55144 0.50046 0.0
C1470 C 0.48863 0.55939 0.52056 0.0
C1471 C 0.46714 0.59834 0.53041 0.0
C1472 C 0.45943 0.58744 0.55334 0.0
C1473 C 0.43904 0.62376 0.56258 0.0
C1474 C 0.42608 0.67072 0.549 0.0
C1475 C 0.43357 0.68179 0.52617 0.0
C1476 C 0.45398 0.64572 0.51686 0.0
C1477 C 0.50338 0.26568 0.53206 0.0
C1478 C 0.5078 0.22796 0.51184 0.0
C1479 C 0.50069 0.33625 0.53132 0.0
C1480 C 0.50262 0.37164 0.51033 0.0
C1481 C 0.50416 0.33344 0.48987 0.0
C1482 C 0.50654 0.26268 0.49061 0.0
C1483 C 0.50553 0.44761 0.51013 0.0
C1484 C 0.48671 0.48827 0.52031 0.0
C1485 C 0.52716 0.48018 0.50034 0.0
C1486 C 0.54881 0.44074 0.49098 0.0
C1487 C 0.55682 0.45018 0.46808 0.0
C1488 C 0.57696 0.41213 0.45917 0.0
C1489 C 0.58931 0.36471 0.47306 0.0
C1490 C 0.58165 0.35549 0.49592 0.0
C1491 C 0.56158 0.39349 0.50492 0.0
H1492 H 0.60486 0.33528 0.46612 0.0
H1493 H 0.41025 0.69848 0.5562 0.0
H1494 H 0.506 0.72934 0.97374 0.0
H1495 H 0.50107 0.85202 0.97123 0.0
H1496 H 0.50622 0.86584 0.04521 0.0
H1497 H 0.51046 0.74373 0.04776 0.0
H1498 H 0.47099 0.96266 0.99117 0.0
H1499 H 0.55488 0.98479 0.05618 0.0
H1500 H 0.59281 0.92107 0.06875 0.0
H1501 H 0.594 0.81609 1.00407 0.0
H1502 H 0.55633 0.87965 0.991 0.0
H1503 H 0.51591 0.2926 0.04592 0.0
H1504 H 0.52112 0.17044 0.04356 0.0
H1505 H 0.51144 0.18004 0.96985 0.0
H1506 H 0.5067 0.30249 0.97219 0.0
H1507 H 0.54975 0.0709 0.02107 0.0
H1508 H 0.46742 0.05219 0.95525 0.0
H1509 H 0.43076 0.11951 0.94178 0.0
H1510 H 0.42705 0.21857 1.00749 0.0
H1511 H 0.46342 0.15135 0.02143 0.0
C1512 C 0.50426 0.75781 0.98959 0.0
C1513 C 0.50831 0.72558 0.01102 0.0
C1514 C 0.50205 0.82868 0.9881 0.0
C1515 C 0.50404 0.86922 1.00799 0.0
C1516 C 0.50501 0.83648 0.02951 0.0
C1517 C 0.5068 0.76594 0.031 0.0
C1518 C 0.5078 0.94472 1.00641 0.0
C1519 C 0.48838 0.98602 0.99741 0.0
C1520 C 0.53033 0.97645 0.01475 0.0
C1521 C 0.55257 0.93652 0.02273 0.0
C1522 C 0.56321 0.94801 0.04466 0.0
C1523 C 0.58468 0.91194 0.05186 0.0
C1524 C 0.59577 0.86444 0.03724 0.0
C1525 C 0.58532 0.8526 0.01543 0.0
C1526 C 0.56386 0.88854 1.00814 0.0
C1527 C 0.51663 0.26944 0.02902 0.0
C1528 C 0.51139 0.3085 1.00923 0.0
C1529 C 0.51906 0.19887 0.02772 0.0
C1530 C 0.51597 0.16484 1.0066 0.0
C1531 C 0.5135 0.20428 0.98647 0.0
C1532 C 0.51147 0.27503 0.98776 0.0
C1533 C 0.51288 0.08897 1.00603 0.0
C1534 C 0.53241 0.04754 0.01471 0.0
C1535 C 0.49049 0.05722 0.99736 0.0
C1536 C 0.46837 0.09731 0.98925 0.0
C1537 C 0.45874 0.08825 0.96683 0.0
C1538 C 0.43801 0.12642 0.95912 0.0
C1539 C 0.42666 0.17354 0.97373 0.0
C1540 C 0.43594 0.18239 0.99613 0.0
C1541 C 0.45663 0.14431 1.00394 0.0
H1542 H 0.41062 0.20297 0.96773 0.0
H1543 H 0.61256 0.83722 0.04277 0.0
H1544 H 0.35996 0.39844 0.03735 0.0
H1545 H 0.31704 0.36348 0.04956 0.0
H1546 H 0.32117 0.19285 1.00387 0.0
H1547 H 0.36416 0.2266 0.9922 0.0
H1548 H 0.28127 0.28777 0.99487 0.0
H1549 H 0.31877 0.15883 0.05545 0.0
H1550 H 0.34395 0.13481 0.0904 0.0
H1551 H 0.29601 0.26657 0.12978 0.0
H1552 H 0.27093 0.29285 0.0949 0.0
H1553 H 0.17393 0.09617 1.00405 0.0
H1554 H 0.21811 0.12035 0.01504 0.0
H1555 H 0.19358 0.30123 0.04942 0.0
H1556 H 0.14917 0.27696 0.03816 0.0
H1557 H 0.24248 0.21111 0.06846 0.0
H1558 H 0.20671 0.34342 1.00434 0.0
H1559 H 0.1801 0.35137 0.9693 0.0
H1560 H 0.22575 0.20004 0.9365 0.0
H1561 H 0.25232 0.19034 0.97155 0.0
C1562 C 0.35209 0.35201 0.03072 0.0
C1563 C 0.36528 0.31494 0.0139 0.0
C1564 C 0.32757 0.33229 0.03759 0.0
C1565 C 0.31601 0.27568 0.02757 0.0
C1566 C 0.32982 0.23663 0.01181 0.0
C1567 C 0.35425 0.25597 1.00511 0.0
C1568 C 0.28843 0.2627 0.03049 0.0
C1569 C 0.27287 0.27122 0.01102 0.0
C1570 C 0.27744 0.24201 0.05164 0.0
C1571 C 0.2932 0.22872 0.07243 0.0
C1572 C 0.31389 0.18381 0.07144 0.0
C1573 C 0.3281 0.16953 0.09127 0.0
C1574 C 0.32164 0.19923 0.11228 0.0
C1575 C 0.30107 0.24373 0.11348 0.0
C1576 C 0.28686 0.25842 0.09367 0.0
C1577 C 0.17797 0.13965 0.01469 0.0
C1578 C 0.15844 0.18472 0.02034 0.0
C1579 C 0.20306 0.15323 0.02107 0.0
C1580 C 0.20901 0.21248 0.03302 0.0
C1581 C 0.18925 0.25481 0.04046 0.0
C1582 C 0.16399 0.24108 0.03403 0.0
C1583 C 0.2357 0.23622 0.03286 0.0
C1584 C 0.25098 0.2295 0.05261 0.0
C1585 C 0.24671 0.25833 0.01195 0.0
C1586 C 0.23134 0.26581 0.9906 0.0
C1587 C 0.21096 0.31157 0.9897 0.0
C1588 C 0.19589 0.3164 0.96985 0.0
C1589 C 0.20119 0.27613 0.9507 0.0
C1590 C 0.22165 0.23115 0.95134 0.0
C1591 C 0.23673 0.22601 0.97119 0.0
H1592 H 0.18949 0.27987 0.93536 0.0
H1593 H 0.33248 0.18733 0.12765 0.0
H1594 H 0.87139 0.77397 0.03137 0.0
H1595 H 0.82776 0.75499 0.04489 0.0
H1596 H 0.80017 0.89962 0.99517 0.0
H1597 H 0.84387 0.92221 0.98302 0.0
H1598 H 0.77326 0.91022 0.03222 0.0
H1599 H 0.80274 0.72321 0.98509 0.0
H1600 H 0.83125 0.62845 0.97578 0.0
H1601 H 0.81271 0.53408 0.04031 0.0
H1602 H 0.7843 0.62879 0.05011 0.0
H1603 H 0.65666 0.80442 0.98624 0.0
H1604 H 0.6994 0.83931 0.99742 0.0
H1605 H 0.7014 0.6827 0.04907 0.0
H1606 H 0.65922 0.64422 0.03646 0.0
H1607 H 0.74169 0.67643 0.02377 0.0
H1608 H 0.69882 0.85606 0.06018 0.0
H1609 H 0.66941 0.95152 0.0649 0.0
H1610 H 0.71142 0.06379 0.01428 0.0
H1611 H 0.74083 0.96862 1.0091 0.0
C1612 C 0.85613 0.80347 0.02399 0.0
C1613 C 0.861 0.8503 1.00636 0.0
C1614 C 0.83113 0.79184 0.03145 0.0
C1615 C 0.81059 0.82531 0.02088 0.0
C1616 C 0.81563 0.87334 1.00371 0.0
C1617 C 0.84055 0.88574 0.99658 0.0
C1618 C 0.78369 0.80726 0.02601 0.0
C1619 C 0.76623 0.8592 0.03034 0.0
C1620 C 0.77471 0.7403 0.02436 0.0
C1621 C 0.7917 0.68339 0.01846 0.0
C1622 C 0.80489 0.68243 0.99735 0.0
C1623 C 0.82101 0.62875 0.99198 0.0
C1624 C 0.82386 0.5754 1.00748 0.0
C1625 C 0.81054 0.57554 0.02836 0.0
C1626 C 0.79443 0.62919 0.03383 0.0
C1627 C 0.66611 0.77798 1.00017 0.0
C1628 C 0.65459 0.72178 0.0105 0.0
C1629 C 0.69043 0.79852 1.0068 0.0
C1630 C 0.70357 0.76432 0.02435 0.0
C1631 C 0.69156 0.71013 0.03557 0.0
C1632 C 0.66732 0.68868 0.02858 0.0
C1633 C 0.73086 0.78002 0.02867 0.0
C1634 C 0.74852 0.72745 0.02627 0.0
C1635 C 0.73985 0.8469 0.03134 0.0
C1636 C 0.72222 0.90491 0.03447 0.0
C1637 C 0.70184 0.90109 0.05016 0.0
C1638 C 0.68511 0.95516 0.05284 0.0
C1639 C 0.68859 1.01382 0.03995 0.0
C1640 C 0.70879 1.0184 0.02434 0.0
C1641 C 0.72554 0.96434 0.02157 0.0
H1642 H 0.67561 0.05565 0.04203 0.0
H1643 H 0.83634 0.53387 1.00329 0.0
H1644 H 0.09263 0.37198 0.24071 0.0
H1645 H 0.04934 0.39976 0.25332 0.0
H1646 H 0.07945 0.55444 0.29779 0.0
H1647 H 0.12282 0.52814 0.28455 0.0
H1648 H 0.03039 0.45295 0.31255 0.0
H1649 H 0.06351 0.62793 0.26033 0.0
H1650 H 0.08771 0.66199 0.22574 0.0
H1651 H 0.03872 0.54072 0.18329 0.0
H1652 H 0.01451 0.50511 0.21772 0.0
H1653 H 0.9103 0.66204 0.28956 0.0
H1654 H 0.95384 0.63094 0.30154 0.0
H1655 H 0.94998 0.45519 0.25817 0.0
H1656 H 0.90656 0.48487 0.24681 0.0
H1657 H 0.98784 0.58148 0.24996 0.0
H1658 H 0.95274 0.41174 0.3014 0.0
H1659 H 0.92911 0.3725 0.3355 0.0
H1660 H 0.98193 0.47526 0.37984 0.0
H1661 H 1.00556 0.51666 0.34585 0.0
C1662 C 0.08997 0.41092 0.25353 0.0
C1663 C 0.11092 0.44748 0.26185 0.0
C1664 C 0.06538 0.42631 0.26085 0.0
C1665 C 0.06137 0.47859 0.27662 0.0
C1666 C 0.08234 0.51308 0.28593 0.0
C1667 C 0.10704 0.49792 0.27844 0.0
C1668 C 0.0352 0.50353 0.28 0.0
C1669 C 0.02107 0.48242 0.29923 0.0
C1670 C 0.02323 0.54095 0.26236 0.0
C1671 C 0.03736 0.56351 0.24159 0.0
C1672 C 0.05804 0.60819 0.24364 0.0
C1673 C 0.07173 0.62781 0.22406 0.0
C1674 C 0.06479 0.60343 0.20233 0.0
C1675 C 0.04409 0.55953 0.20013 0.0
C1676 C 0.03036 0.53968 0.21966 0.0
C1677 C 0.91842 0.61533 0.28345 0.0
C1678 C 0.90523 0.57567 0.26728 0.0
C1679 C 0.94321 0.59769 0.29026 0.0
C1680 C 0.95487 0.54037 0.28092 0.0
C1681 C 0.94109 0.49896 0.26584 0.0
C1682 C 0.91644 0.51616 0.25924 0.0
C1683 C 0.98267 0.53072 0.2825 0.0
C1684 C 0.99715 0.55415 0.26384 0.0
C1685 C 0.99469 0.49515 0.30067 0.0
C1686 C 0.98037 0.46973 0.32098 0.0
C1687 C 0.95895 0.4277 0.31833 0.0
C1688 C 0.94565 0.40451 0.33768 0.0
C1689 C 0.95382 0.42207 0.35983 0.0
C1690 C 0.97547 0.46222 0.36267 0.0
C1691 C 0.98877 0.48569 0.34336 0.0
H1692 H 0.94351 0.40406 0.37478 0.0
H1693 H 0.07542 0.61864 0.1872 0.0
H1694 H 0.37437 0.75606 0.53004 0.0
H1695 H 0.33187 0.72373 0.54399 0.0
H1696 H 0.29891 0.88955 0.50624 0.0
H1697 H 0.34145 0.92283 0.49304 0.0
H1698 H 0.27481 0.87142 0.54724 0.0
H1699 H 0.30348 0.73213 0.48265 0.0
H1700 H 0.33299 0.65223 0.46411 0.0
H1701 H 0.32025 0.51007 0.51874 0.0
H1702 H 0.29088 0.58959 0.53774 0.0
H1703 H 0.15867 0.79179 0.49519 0.0
H1704 H 0.20178 0.82041 0.50815 0.0
H1705 H 0.20526 0.63513 0.54689 0.0
H1706 H 0.16194 0.60653 0.53368 0.0
H1707 H 0.2455 0.6501 0.51786 0.0
H1708 H 0.20703 0.78068 0.57598 0.0
H1709 H 0.17676 0.86081 0.59325 0.0
H1710 H 0.2069 1.01938 0.55092 0.0
H1711 H 0.23709 0.94003 0.53311 0.0
C1712 C 0.35812 0.78678 0.52547 0.0
C1713 C 0.36102 0.84237 0.51074 0.0
C1714 C 0.33385 0.76797 0.53322 0.0
C1715 C 0.31219 0.80402 0.52604 0.0
C1716 C 0.31533 0.86123 0.51212 0.0
C1717 C 0.33952 0.87997 0.50445 0.0
C1718 C 0.28603 0.77912 0.53078 0.0
C1719 C 0.26834 0.82296 0.54093 0.0
C1720 C 0.27782 0.71492 0.52326 0.0
C1721 C 0.29527 0.66702 0.51174 0.0
C1722 C 0.30711 0.68399 0.49077 0.0
C1723 C 0.32379 0.63878 0.48017 0.0
C1724 C 0.32857 0.5762 0.49028 0.0
C1725 C 0.31659 0.55862 0.51097 0.0
C1726 C 0.29993 0.60372 0.52165 0.0
C1727 C 0.1685 0.75817 0.50691 0.0
C1728 C 0.15709 0.69753 0.51369 0.0
C1729 C 0.193 0.77456 0.51442 0.0
C1730 C 0.20663 0.73027 0.52873 0.0
C1731 C 0.19496 0.67032 0.53607 0.0
C1732 C 0.17025 0.65423 0.52869 0.0
C1733 C 0.23398 0.74362 0.53342 0.0
C1734 C 0.25196 0.69765 0.52497 0.0
C1735 C 0.24238 0.80592 0.54245 0.0
C1736 C 0.22431 0.8542 0.55314 0.0
C1737 C 0.20711 0.83253 0.57023 0.0
C1738 C 0.18997 0.87785 0.58013 0.0
C1739 C 0.18989 0.94514 0.57317 0.0
C1740 C 0.20699 0.96725 0.55631 0.0
C1741 C 0.22416 0.92212 0.54633 0.0
H1742 H 0.17661 0.98015 0.58086 0.0
H1743 H 0.34149 0.54127 0.48206 0.0
H1744 H 0.84141 0.43112 0.49756 0.0
H1745 H 0.79837 0.40331 0.51062 0.0
H1746 H 0.82833 0.2356 0.54937 0.0
H1747 H 0.87149 0.26331 0.53591 0.0
H1748 H 0.79017 0.1962 0.5253 0.0
H1749 H 0.80394 0.37938 0.57407 0.0
H1750 H 0.81568 0.49276 0.58725 0.0
H1751 H 0.75442 0.57696 0.54742 0.0
H1752 H 0.74242 0.46403 0.53382 0.0
H1753 H 0.65841 0.12793 0.53794 0.0
H1754 H 0.70098 0.15749 0.55209 0.0
H1755 H 0.70004 0.33692 0.51014 0.0
H1756 H 0.65727 0.30799 0.49646 0.0
H1757 H 0.72468 0.36079 0.54992 0.0
H1758 H 0.72404 0.1827 0.49118 0.0
H1759 H 0.71254 0.06961 0.47706 0.0
H1760 H 0.75065 0.98012 0.53509 0.0
H1761 H 0.76219 0.09279 0.54962 0.0
C1762 C 0.83876 0.38942 0.50936 0.0
C1763 C 0.85965 0.35012 0.51613 0.0
C1764 C 0.81424 0.37371 0.51695 0.0
C1765 C 0.81011 0.31828 0.53153 0.0
C1766 C 0.83112 0.27952 0.53863 0.0
C1767 C 0.85576 0.29554 0.53108 0.0
C1768 C 0.78359 0.29739 0.53718 0.0
C1769 C 0.77602 0.23186 0.53131 0.0
C1770 C 0.765 0.34391 0.54494 0.0
C1771 C 0.7721 0.41254 0.5531 0.0
C1772 C 0.79286 0.42184 0.56819 0.0
C1773 C 0.79963 0.48621 0.57569 0.0
C1774 C 0.78574 0.54206 0.56825 0.0
C1775 C 0.76509 0.5336 0.55326 0.0
C1776 C 0.75826 0.46927 0.5457 0.0
C1777 C 0.66696 0.17483 0.53245 0.0
C1778 C 0.65463 0.21591 0.51617 0.0
C1779 C 0.69135 0.19158 0.54045 0.0
C1780 C 0.70385 0.2493 0.53211 0.0
C1781 C 0.69082 0.29228 0.51691 0.0
C1782 C 0.66651 0.27556 0.50895 0.0
C1783 C 0.73139 0.26152 0.53662 0.0
C1784 C 0.73911 0.3251 0.54455 0.0
C1785 C 0.7502 0.21362 0.53063 0.0
C1786 C 0.74357 0.14605 0.52169 0.0
C1787 C 0.72981 0.13887 0.50099 0.0
C1788 C 0.72332 0.07488 0.4929 0.0
C1789 C 0.73075 1.01772 0.50523 0.0
C1790 C 0.74481 0.02444 0.52561 0.0
C1791 C 0.75131 0.08833 0.53379 0.0
H1792 H 0.7257 0.96821 0.49895 0.0
H1793 H 0.79102 0.59191 0.57404 0.0
H1794 H 0.9128 0.1893 0.78758 0.0
H1795 H 0.95601 0.16712 0.80224 0.0
H1796 H 0.95402 0.96996 0.77131 0.0
H1797 H 0.91111 0.99274 0.7564 0.0
H1798 H 0.98024 0.97468 0.81541 0.0
H1799 H 0.97675 0.09463 0.74033 0.0
H1800 H 0.96349 0.19166 0.71661 0.0
H1801 H 1.00151 0.32601 0.76339 0.0
H1802 H 0.01471 0.22963 0.78753 0.0
H1803 H 0.08826 0.85755 0.76042 0.0
H1804 H 0.0479 0.89884 0.77611 0.0
H1805 H 0.08491 0.08343 0.79661 0.0
H1806 H 0.12547 0.04135 0.78087 0.0
H1807 H 0.04349 0.10755 0.77085 0.0
H1808 H 0.05975 0.9891 0.8378 0.0
H1809 H 0.0736 0.89852 0.86397 0.0
H1810 H 0.01333 0.77156 0.83896 0.0
H1811 H 0.99942 0.86077 0.81221 0.0
C1812 C 0.92139 0.14061 0.78459 0.0
C1813 C 0.90886 0.09258 0.7709 0.0
C1814 C 0.94599 0.12792 0.79297 0.0
C1815 C 0.95819 0.06678 0.78792 0.0
C1816 C 0.94489 1.01718 0.77557 0.0
C1817 C 0.92054 0.03028 0.76693 0.0
C1818 C 0.98587 0.05756 0.79208 0.0
C1819 C 0.99419 1.00363 0.8058 0.0
C1820 C 1.00409 0.09765 0.78046 0.0
C1821 C 0.99651 0.15521 0.76578 0.0
C1822 C 0.98217 0.14493 0.74558 0.0
C1823 C 0.97467 0.19975 0.73207 0.0
C1824 C 0.98161 0.26498 0.73851 0.0
C1825 C 0.99612 0.27548 0.75844 0.0
C1826 C 1.00362 0.2208 0.77203 0.0
C1827 C 0.08778 0.90622 0.76878 0.0
C1828 C 0.10977 0.94624 0.7696 0.0
C1829 C 0.06484 0.92967 0.77788 0.0
C1830 C 0.0634 0.99405 0.78776 0.0
C1831 C 0.08564 0.03341 0.78926 0.0
C1832 C 0.10874 1.00941 0.78037 0.0
C1833 C 0.03796 0.02241 0.79338 0.0
C1834 C 0.02991 0.07973 0.78128 0.0
C1835 C 0.0202 0.98654 0.80707 0.0
C1836 C 0.02858 0.93178 0.82286 0.0
C1837 C 0.04957 0.94166 0.83767 0.0
C1838 C 0.05743 0.89056 0.85266 0.0
C1839 C 0.04433 0.82937 0.85314 0.0
C1840 C 0.02343 0.81907 0.83858 0.0
C1841 C 0.01553 0.86995 0.8235 0.0
H1842 H 0.05034 0.79 0.86483 0.0
H1843 H 0.97578 0.30737 0.72804 0.0
H1844 H 0.59404 0.33852 0.75017 0.0
H1845 H 0.55066 0.37237 0.76049 0.0
H1846 H 0.5791 0.56395 0.78414 0.0
H1847 H 0.6228 0.52915 0.77407 0.0
H1848 H 0.53177 0.50731 0.80881 0.0
H1849 H 0.56494 0.56874 0.73368 0.0
H1850 H 0.58814 0.5447 0.69763 0.0
H1851 H 0.53427 0.3891 0.6811 0.0
H1852 H 0.51105 0.41136 0.71731 0.0
H1853 H 0.41413 0.6782 0.7754 0.0
H1854 H 0.45802 0.64509 0.78529 0.0
H1855 H 0.44738 0.45832 0.74856 0.0
H1856 H 0.40392 0.49223 0.73845 0.0
H1857 H 0.48764 0.52501 0.73319 0.0
H1858 H 0.45361 0.46449 0.80774 0.0
H1859 H 0.4301 0.48762 0.84368 0.0
H1860 H 0.48404 0.6419 0.86133 0.0
H1861 H 0.50773 0.62033 0.82528 0.0
C1862 C 0.59102 0.38682 0.75834 0.0
C1863 C 0.61144 0.43151 0.76125 0.0
C1864 C 0.56638 0.406 0.76434 0.0
C1865 C 0.56172 0.47081 0.7729 0.0
C1866 C 0.58239 0.51356 0.77773 0.0
C1867 C 0.60722 0.49391 0.7719 0.0
C1868 C 0.53542 0.49744 0.77194 0.0
C1869 C 0.52211 0.51217 0.79233 0.0
C1870 C 0.52292 0.50346 0.75041 0.0
C1871 C 0.53639 0.49136 0.72828 0.0
C1872 C 0.55814 0.52912 0.72242 0.0
C1873 C 0.57129 0.51582 0.70197 0.0
C1874 C 0.56272 0.46531 0.6871 0.0
C1875 C 0.54091 0.42817 0.69264 0.0
C1876 C 0.52774 0.44113 0.71312 0.0
C1877 C 0.42109 0.6294 0.77009 0.0
C1878 C 0.40591 0.58743 0.75626 0.0
C1879 C 0.44607 0.61052 0.77569 0.0
C1880 C 0.45596 0.54921 0.76765 0.0
C1881 C 0.44018 0.50593 0.75487 0.0
C1882 C 0.41544 0.52508 0.74912 0.0
C1883 C 0.4834 0.53281 0.77009 0.0
C1884 C 0.49713 0.52061 0.74978 0.0
C1885 C 0.49605 0.52953 0.79168 0.0
C1886 C 0.48231 0.54124 0.81368 0.0
C1887 C 0.4604 0.50361 0.81921 0.0
C1888 C 0.44705 0.5164 0.83961 0.0
C1889 C 0.45553 0.56633 0.85473 0.0
C1890 C 0.47749 0.6033 0.84957 0.0
C1891 C 0.4909 0.59075 0.82916 0.0
H1892 H 0.44509 0.57624 0.87045 0.0
H1893 H 0.57293 0.45505 0.67128 0.0
H1894 H 0.61764 0.02043 0.27513 0.0
H1895 H 0.57247 0.04086 0.28417 0.0
H1896 H 0.55141 0.86617 0.2443 0.0
H1897 H 0.59646 0.84572 0.23556 0.0
H1898 H 0.52989 0.98558 0.22911 0.0
H1899 H 0.54154 0.86341 0.29989 0.0
H1900 H 0.56306 0.8391 0.33683 0.0
H1901 H 0.54326 0.03524 0.3619 0.0
H1902 H 0.52194 0.06123 0.32494 0.0
H1903 H 0.39944 0.97962 0.23622 0.0
H1904 H 0.44243 0.94048 0.24601 0.0
H1905 H 0.45658 0.12524 0.28287 0.0
H1906 H 0.41337 0.1642 0.27303 0.0
H1907 H 0.48175 1.00457 0.30254 0.0
H1908 H 0.47381 0.13055 0.23185 0.0
H1909 H 0.45468 0.16031 0.19435 0.0
H1910 H 0.46969 0.96133 0.16908 0.0
H1911 H 0.48875 0.93024 0.20657 0.0
C1912 C 0.60335 0.9852 0.26914 0.0
C1913 C 0.61022 0.93124 0.25488 0.0
C1914 C 0.57765 0.99691 0.2742 0.0
C1915 C 0.55871 0.95486 0.26491 0.0
C1916 C 0.5658 0.89899 0.25166 0.0
C1917 C 0.59137 0.88735 0.24667 0.0
C1918 C 0.53156 0.97402 0.26605 0.0
C1919 C 0.5193 0.9887 0.24516 0.0
C1920 C 0.51814 0.98054 0.28709 0.0
C1921 C 0.53034 0.96451 0.30955 0.0
C1922 C 0.54191 0.90157 0.31321 0.0
C1923 C 0.55404 0.88744 0.33416 0.0
C1924 C 0.55455 0.93564 0.35165 0.0
C1925 C 0.54283 0.99798 0.3483 0.0
C1926 C 0.5307 1.01241 0.32737 0.0
C1927 C 0.41157 1.01078 0.24694 0.0
C1928 C 0.4034 0.0746 0.25391 0.0
C1929 C 0.43596 0.98846 0.25262 0.0
C1930 C 0.45263 0.03024 0.26504 0.0
C1931 C 0.44386 0.09214 0.27346 0.0
C1932 C 0.41932 0.11436 0.26783 0.0
C1933 C 0.48012 1.01415 0.26552 0.0
C1934 C 0.49243 1.00095 0.28658 0.0
C1935 C 0.49391 1.00947 0.24464 0.0
C1936 C 0.48247 0.0279 0.22207 0.0
C1937 C 0.47283 0.09298 0.21836 0.0
C1938 C 0.46204 0.11012 0.19709 0.0
C1939 C 0.46088 0.06267 0.17935 0.0
C1940 C 0.47057 0.99801 0.18284 0.0
C1941 C 0.48141 0.98063 0.20408 0.0
H1942 H 0.45257 0.07605 0.16287 0.0
H1943 H 0.564 0.92462 0.3678 0.0
loop_
_geom_bond_atom_site_label_1
_geom_bond_atom_site_label_2
_geom_bond_distance
_geom_bond_site_symmetry_2
_ccdc_geom_bond_type
Co0 N1 2.034 . S
Co0 O15 2.262 . S
Co0 O19 1.958 . S
Co0 O23 1.950 1_556 S
Co0 O24 2.061 . S
N1 Co0 2.034 . S
N1 C2 1.366 . S
N1 C4 1.332 1_556 S
C2 N1 1.366 . S
C2 C5 1.377 . S
C2 H34 0.931 . S
N3 C4 1.346 . S
N3 C5 1.337 1_554 S
C4 N1 1.332 1_554 S
C4 N3 1.346 . S
C4 C38 1.361 . S
C5 C2 1.377 . S
C5 N3 1.337 1_556 S
C5 H41 0.930 . S
Co6 N7 2.034 . S
Co6 O20 1.950 1_556 S
Co6 O21 2.262 . S
Co6 O22 1.958 . S
Co6 O26 2.061 . S
N7 Co6 2.034 . S
N7 C10 1.366 . S
N7 C11 1.332 1_556 S
N8 C9 1.337 1_554 S
N8 C11 1.346 . S
C9 N8 1.337 1_556 S
C9 C10 1.377 . S
C9 H42 0.930 . S
C10 N7 1.366 . S
C10 C9 1.377 . S
C10 H14 0.931 . S
C11 N7 1.332 1_554 S
C11 N8 1.346 . S
C11 C28 1.361 . S
Co12 O15 2.097 . S
Co12 O16 2.065 1_456 S
Co12 O17 2.065 1_546 S
Co12 O18 2.042 1_545 S
Co12 O21 2.097 1_445 S
Co12 O25 2.042 1_455 S
C13 O21 1.253 . S
C13 O26 1.265 . S
H14 C10 0.931 . S
O15 Co0 2.262 . S
O15 Co12 2.097 . S
O15 C39 1.253 . S
O16 Co12 2.065 1_654 S
O16 C32 1.221 . S
O17 Co12 2.065 1_564 S
O17 C27 1.221 1_565 S
O18 Co12 2.042 1_565 S
O18 C33 1.237 . S
O19 Co0 1.958 . S
O19 C33 1.278 1_545 S
O20 Co6 1.950 1_554 S
O20 C32 1.277 1_565 S
O21 Co6 2.262 . S
O21 Co12 2.097 1_665 S
O21 C13 1.253 . S
O22 Co6 1.958 . S
O22 C40 1.278 1_565 S
O23 Co0 1.950 1_554 S
O23 C27 1.277 . S
O24 Co0 2.061 . S
O24 C39 1.265 . S
O25 Co12 2.042 1_655 S
O25 C40 1.237 . S
O26 Co6 2.061 . S
O26 C13 1.265 . S
C27 O17 1.221 1_545 S
C27 O23 1.277 . S
C28 C11 1.361 . S
C28 H29 0.960 . S
C28 H30 0.961 . S
C28 H31 0.961 . S
H29 C28 0.960 . S
H30 C28 0.961 . S
H31 C28 0.961 . S
C32 O16 1.221 . S
C32 O20 1.277 1_545 S
C33 O18 1.237 . S
C33 O19 1.278 1_565 S
H34 C2 0.931 . S
H35 C38 0.961 . S
H36 C38 0.961 . S
H37 C38 0.960 . S
C38 C4 1.361 . S
C38 H35 0.961 . S
C38 H36 0.961 . S
C38 H37 0.960 . S
C39 O15 1.253 . S
C39 O24 1.265 . S
C40 O22 1.278 1_545 S
C40 O25 1.237 . S
H41 C5 0.930 . S
H42 C9 0.930 . S
Co43 N44 2.034 . S
Co43 O58 2.262 . S
Co43 O62 1.958 . S
Co43 O66 1.950 . S
Co43 O67 2.057 . S
N44 Co43 2.034 . S
N44 C45 1.366 . S
N44 C47 1.332 . S
C45 N44 1.366 . S
C45 C48 1.377 . S
C45 H77 0.931 . S
N46 C47 1.346 . S
N46 C48 1.337 . S
C47 N44 1.332 . S
C47 N46 1.346 . S
C47 C81 1.361 . S
C48 C45 1.377 . S
C48 N46 1.337 . S
C48 H84 0.930 . S
Co49 N50 2.034 . S
Co49 O63 1.950 . S
Co49 O64 2.262 . S
Co49 O65 1.958 . S
Co49 O69 2.057 . S
N50 Co49 2.034 . S
N50 C53 1.366 . S
N50 C54 1.332 . S
N51 C52 1.337 . S
N51 C54 1.346 . S
C52 N51 1.337 . S
C52 C53 1.377 . S
C52 H85 0.930 . S
C53 N50 1.366 . S
C53 C52 1.377 . S
C53 H57 0.931 . S
C54 N50 1.332 . S
C54 N51 1.346 . S
C54 C71 1.361 . S
Co55 O58 2.097 . S
Co55 O59 2.065 . S
Co55 O60 2.065 . S
Co55 O61 2.042 . S
Co55 O64 2.097 . S
Co55 O68 2.042 . S
C56 O64 1.253 . S
C56 O69 1.263 . S
H57 C53 0.931 . S
O58 Co43 2.262 . S
O58 Co55 2.097 . S
O58 C82 1.253 . S
O59 Co55 2.065 . S
O59 C75 1.221 . S
O60 Co55 2.065 . S
O60 C70 1.221 . S
O61 Co55 2.042 . S
O61 C76 1.237 . S
O62 Co43 1.958 . S
O62 C76 1.278 . S
O63 Co49 1.950 . S
O63 C75 1.277 . S
O64 Co49 2.262 . S
O64 Co55 2.097 . S
O64 C56 1.253 . S
O65 Co49 1.958 . S
O65 C83 1.278 . S
O66 Co43 1.950 . S
O66 C70 1.277 . S
O67 Co43 2.057 . S
O67 C82 1.263 . S
O68 Co55 2.042 . S
O68 C83 1.237 . S
O69 Co49 2.057 . S
O69 C56 1.263 . S
C70 O60 1.221 . S
C70 O66 1.277 . S
C71 C54 1.361 . S
C71 H72 0.960 . S
C71 H73 0.961 . S
C71 H74 0.961 . S
H72 C71 0.960 . S
H73 C71 0.961 . S
H74 C71 0.961 . S
C75 O59 1.221 . S
C75 O63 1.277 . S
C76 O61 1.237 . S
C76 O62 1.278 . S
H77 C45 0.931 . S
H78 C81 0.961 . S
H79 C81 0.961 . S
H80 C81 0.960 . S
C81 C47 1.361 . S
C81 H78 0.961 . S
C81 H79 0.961 . S
C81 H80 0.960 . S
C82 O58 1.253 . S
C82 O67 1.263 . S
C83 O65 1.278 . S
C83 O68 1.237 . S
H84 C48 0.930 . S
H85 C52 0.930 . S
Co86 N87 2.034 . S
Co86 O101 2.262 . S
Co86 O105 1.958 . S
Co86 O109 1.950 . S
Co86 O110 2.057 . S
N87 Co86 2.034 . S
N87 C88 1.366 . S
N87 C90 1.332 . S
C88 N87 1.366 . S
C88 C91 1.377 . S
C88 H120 0.931 . S
N89 C90 1.346 . S
N89 C91 1.337 . S
C90 N87 1.332 . S
C90 N89 1.346 . S
C90 C124 1.361 . S
C91 C88 1.377 . S
C91 N89 1.337 . S
C91 H127 0.930 . S
Co92 N93 2.034 . S
Co92 O106 1.950 . S
Co92 O107 2.262 . S
Co92 O108 1.958 . S
Co92 O112 2.057 . S
N93 Co92 2.034 . S
N93 C96 1.366 . S
N93 C97 1.332 . S
N94 C95 1.337 . S
N94 C97 1.346 . S
C95 N94 1.337 . S
C95 C96 1.377 . S
C95 H128 0.930 . S
C96 N93 1.366 . S
C96 C95 1.377 . S
C96 H100 0.931 . S
C97 N93 1.332 . S
C97 N94 1.346 . S
C97 C114 1.361 . S
Co98 O101 2.097 . S
Co98 O102 2.065 . S
Co98 O103 2.065 . S
Co98 O104 2.042 . S
Co98 O107 2.097 . S
Co98 O111 2.042 . S
C99 O107 1.253 . S
C99 O112 1.263 . S
H100 C96 0.931 . S
O101 Co86 2.262 . S
O101 Co98 2.097 . S
O101 C125 1.253 . S
O102 Co98 2.065 . S
O102 C118 1.221 . S
O103 Co98 2.065 . S
O103 C113 1.221 . S
O104 Co98 2.042 . S
O104 C119 1.237 . S
O105 Co86 1.958 . S
O105 C119 1.278 . S
O106 Co92 1.950 . S
O106 C118 1.277 . S
O107 Co92 2.262 . S
O107 Co98 2.097 . S
O107 C99 1.253 . S
O108 Co92 1.958 . S
O108 C126 1.278 . S
O109 Co86 1.950 . S
O109 C113 1.277 . S
O110 Co86 2.057 . S
O110 C125 1.263 . S
O111 Co98 2.042 . S
O111 C126 1.237 . S
O112 Co92 2.057 . S
O112 C99 1.263 . S
C113 O103 1.221 . S
C113 O109 1.277 . S
C114 C97 1.361 . S
C114 H115 0.960 . S
C114 H116 0.961 . S
C114 H117 0.961 . S
H115 C114 0.960 . S
H116 C114 0.961 . S
H117 C114 0.961 . S
C118 O102 1.221 . S
C118 O106 1.277 . S
C119 O104 1.237 . S
C119 O105 1.278 . S
H120 C88 0.931 . S
H121 C124 0.961 . S
H122 C124 0.961 . S
H123 C124 0.960 . S
C124 C90 1.361 . S
C124 H121 0.961 . S
C124 H122 0.961 . S
C124 H123 0.960 . S
C125 O101 1.253 . S
C125 O110 1.263 . S
C126 O108 1.278 . S
C126 O111 1.237 . S
H127 C91 0.930 . S
H128 C95 0.930 . S
Co129 N130 2.034 . S
Co129 O144 2.262 . S
Co129 O148 1.958 . S
Co129 O152 1.950 . S
Co129 O153 2.057 . S
N130 Co129 2.034 . S
N130 C131 1.366 . S
N130 C133 1.332 . S
C131 N130 1.366 . S
C131 C134 1.377 . S
C131 H163 0.931 . S
N132 C133 1.346 . S
N132 C134 1.337 . S
C133 N130 1.332 . S
C133 N132 1.346 . S
C133 C167 1.361 . S
C134 C131 1.377 . S
C134 N132 1.337 . S
C134 H170 0.930 . S
Co135 N136 2.034 . S
Co135 O149 1.950 . S
Co135 O150 2.262 . S
Co135 O151 1.958 . S
Co135 O155 2.057 . S
N136 Co135 2.034 . S
N136 C139 1.366 . S
N136 C140 1.332 . S
N137 C138 1.337 . S
N137 C140 1.346 . S
C138 N137 1.337 . S
C138 C139 1.377 . S
C138 H171 0.930 . S
C139 N136 1.366 . S
C139 C138 1.377 . S
C139 H143 0.931 . S
C140 N136 1.332 . S
C140 N137 1.346 . S
C140 C157 1.361 . S
Co141 O144 2.097 . S
Co141 O145 2.065 1_455 S
Co141 O146 2.065 . S
Co141 O147 2.042 . S
Co141 O150 2.097 1_455 S
Co141 O154 2.042 1_455 S
C142 O150 1.253 . S
C142 O155 1.263 . S
H143 C139 0.931 . S
O144 Co129 2.262 . S
O144 Co141 2.097 . S
O144 C168 1.253 . S
O145 Co141 2.065 1_655 S
O145 C161 1.221 . S
O146 Co141 2.065 . S
O146 C156 1.221 . S
O147 Co141 2.042 . S
O147 C162 1.237 . S
O148 Co129 1.958 . S
O148 C162 1.278 . S
O149 Co135 1.950 . S
O149 C161 1.277 . S
O150 Co135 2.262 . S
O150 Co141 2.097 1_655 S
O150 C142 1.253 . S
O151 Co135 1.958 . S
O151 C169 1.278 . S
O152 Co129 1.950 . S
O152 C156 1.277 . S
O153 Co129 2.057 . S
O153 C168 1.263 . S
O154 Co141 2.042 1_655 S
O154 C169 1.237 . S
O155 Co135 2.057 . S
O155 C142 1.263 . S
C156 O146 1.221 . S
C156 O152 1.277 . S
C157 C140 1.361 . S
C157 H158 0.960 . S
C157 H159 0.961 . S
C157 H160 0.961 . S
H158 C157 0.960 . S
H159 C157 0.961 . S
H160 C157 0.961 . S
C161 O145 1.221 . S
C161 O149 1.277 . S
C162 O147 1.237 . S
C162 O148 1.278 . S
H163 C131 0.931 . S
H164 C167 0.961 . S
H165 C167 0.961 . S
H166 C167 0.960 . S
C167 C133 1.361 . S
C167 H164 0.961 . S
C167 H165 0.961 . S
C167 H166 0.960 . S
C168 O144 1.253 . S
C168 O153 1.263 . S
C169 O151 1.278 . S
C169 O154 1.237 . S
H170 C134 0.930 . S
H171 C138 0.930 . S
Co172 N173 2.034 . S
Co172 O187 2.262 . S
Co172 O191 1.958 . S
Co172 O195 1.950 . S
Co172 O196 2.057 . S
N173 Co172 2.034 . S
N173 C174 1.366 . S
N173 C176 1.332 . S
C174 N173 1.366 . S
C174 C177 1.377 . S
C174 H206 0.931 . S
N175 C176 1.346 . S
N175 C177 1.337 . S
C176 N173 1.332 . S
C176 N175 1.346 . S
C176 C210 1.361 . S
C177 C174 1.377 . S
C177 N175 1.337 . S
C177 H213 0.930 . S
Co178 N179 2.034 . S
Co178 O192 1.950 . S
Co178 O193 2.262 . S
Co178 O194 1.958 . S
Co178 O198 2.057 . S
N179 Co178 2.034 . S
N179 C182 1.366 . S
N179 C183 1.332 . S
N180 C181 1.337 . S
N180 C183 1.346 . S
C181 N180 1.337 . S
C181 C182 1.377 . S
C181 H214 0.930 . S
C182 N179 1.366 . S
C182 C181 1.377 . S
C182 H186 0.931 . S
C183 N179 1.332 . S
C183 N180 1.346 . S
C183 C200 1.361 . S
Co184 O187 2.097 . S
Co184 O188 2.065 . S
Co184 O189 2.065 . S
Co184 O190 2.042 . S
Co184 O193 2.097 . S
Co184 O197 2.042 . S
C185 O193 1.253 . S
C185 O198 1.263 . S
H186 C182 0.931 . S
O187 Co172 2.262 . S
O187 Co184 2.097 . S
O187 C211 1.253 . S
O188 Co184 2.065 . S
O188 C204 1.221 . S
O189 Co184 2.065 . S
O189 C199 1.221 . S
O190 Co184 2.042 . S
O190 C205 1.237 . S
O191 Co172 1.958 . S
O191 C205 1.278 . S
O192 Co178 1.950 . S
O192 C204 1.277 . S
O193 Co178 2.262 . S
O193 Co184 2.097 . S
O193 C185 1.253 . S
O194 Co178 1.958 . S
O194 C212 1.278 . S
O195 Co172 1.950 . S
O195 C199 1.277 . S
O196 Co172 2.057 . S
O196 C211 1.263 . S
O197 Co184 2.042 . S
O197 C212 1.237 . S
O198 Co178 2.057 . S
O198 C185 1.263 . S
C199 O189 1.221 . S
C199 O195 1.277 . S
C200 C183 1.361 . S
C200 H201 0.960 . S
C200 H202 0.961 . S
C200 H203 0.961 . S
H201 C200 0.960 . S
H202 C200 0.961 . S
H203 C200 0.961 . S
C204 O188 1.221 . S
C204 O192 1.277 . S
C205 O190 1.237 . S
C205 O191 1.278 . S
H206 C174 0.931 . S
H207 C210 0.961 . S
H208 C210 0.961 . S
H209 C210 0.960 . S
C210 C176 1.361 . S
C210 H207 0.961 . S
C210 H208 0.961 . S
C210 H209 0.960 . S
C211 O187 1.253 . S
C211 O196 1.263 . S
C212 O194 1.278 . S
C212 O197 1.237 . S
H213 C177 0.930 . S
H214 C181 0.930 . S
Co215 N216 2.034 . S
Co215 O230 2.262 . S
Co215 O234 1.958 . S
Co215 O238 1.950 . S
Co215 O239 2.057 . S
N216 Co215 2.034 . S
N216 C217 1.366 . S
N216 C219 1.332 . S
C217 N216 1.366 . S
C217 C220 1.377 . S
C217 H249 0.931 . S
N218 C219 1.346 . S
N218 C220 1.337 . S
C219 N216 1.332 . S
C219 N218 1.346 . S
C219 C253 1.361 . S
C220 C217 1.377 . S
C220 N218 1.337 . S
C220 H256 0.930 . S
Co221 N222 2.034 . S
Co221 O235 1.950 . S
Co221 O236 2.262 . S
Co221 O237 1.958 . S
Co221 O241 2.057 . S
N222 Co221 2.034 . S
N222 C225 1.366 . S
N222 C226 1.332 . S
N223 C224 1.337 . S
N223 C226 1.346 . S
C224 N223 1.337 . S
C224 C225 1.377 . S
C224 H257 0.930 . S
C225 N222 1.366 . S
C225 C224 1.377 . S
C225 H229 0.931 . S
C226 N222 1.332 . S
C226 N223 1.346 . S
C226 C243 1.361 . S
Co227 O230 2.097 . S
Co227 O231 2.065 . S
Co227 O232 2.065 . S
Co227 O233 2.042 . S
Co227 O236 2.097 . S
Co227 O240 2.042 . S
C228 O236 1.253 . S
C228 O241 1.263 . S
H229 C225 0.931 . S
O230 Co215 2.262 . S
O230 Co227 2.097 . S
O230 C254 1.253 . S
O231 Co227 2.065 . S
O231 C247 1.221 . S
O232 Co227 2.065 . S
O232 C242 1.221 . S
O233 Co227 2.042 . S
O233 C248 1.237 . S
O234 Co215 1.958 . S
O234 C248 1.278 . S
O235 Co221 1.950 . S
O235 C247 1.277 . S
O236 Co221 2.262 . S
O236 Co227 2.097 . S
O236 C228 1.253 . S
O237 Co221 1.958 . S
O237 C255 1.278 . S
O238 Co215 1.950 . S
O238 C242 1.277 . S
O239 Co215 2.057 . S
O239 C254 1.263 . S
O240 Co227 2.042 . S
O240 C255 1.237 . S
O241 Co221 2.057 . S
O241 C228 1.263 . S
C242 O232 1.221 . S
C242 O238 1.277 . S
C243 C226 1.361 . S
C243 H244 0.960 . S
C243 H245 0.961 . S
C243 H246 0.961 . S
H244 C243 0.960 . S
H245 C243 0.961 . S
H246 C243 0.961 . S
C247 O231 1.221 . S
C247 O235 1.277 . S
C248 O233 1.237 . S
C248 O234 1.278 . S
H249 C217 0.931 . S
H250 C253 0.961 . S
H251 C253 0.961 . S
H252 C253 0.960 . S
C253 C219 1.361 . S
C253 H250 0.961 . S
C253 H251 0.961 . S
C253 H252 0.960 . S
C254 O230 1.253 . S
C254 O239 1.263 . S
C255 O237 1.278 . S
C255 O240 1.237 . S
H256 C220 0.930 . S
H257 C224 0.930 . S
Co258 N259 2.034 . S
Co258 O273 2.262 . S
Co258 O277 1.958 . S
Co258 O281 1.950 . S
Co258 O282 2.057 . S
N259 Co258 2.034 . S
N259 C260 1.366 . S
N259 C262 1.332 . S
C260 N259 1.366 . S
C260 C263 1.377 . S
C260 H292 0.931 . S
N261 C262 1.346 . S
N261 C263 1.337 . S
C262 N259 1.332 . S
C262 N261 1.346 . S
C262 C296 1.361 . S
C263 C260 1.377 . S
C263 N261 1.337 . S
C263 H299 0.930 . S
Co264 N265 2.034 . S
Co264 O278 1.950 . S
Co264 O279 2.262 . S
Co264 O280 1.958 . S
Co264 O284 2.057 . S
N265 Co264 2.034 . S
N265 C268 1.366 . S
N265 C269 1.332 . S
N266 C267 1.337 . S
N266 C269 1.346 . S
C267 N266 1.337 . S
C267 C268 1.377 . S
C267 H300 0.930 . S
C268 N265 1.366 . S
C268 C267 1.377 . S
C268 H272 0.931 . S
C269 N265 1.332 . S
C269 N266 1.346 . S
C269 C286 1.361 . S
Co270 O273 2.097 . S
Co270 O274 2.065 . S
Co270 O275 2.065 1_545 S
Co270 O276 2.042 1_545 S
Co270 O279 2.097 1_545 S
Co270 O283 2.042 . S
C271 O279 1.253 . S
C271 O284 1.263 . S
H272 C268 0.931 . S
O273 Co258 2.262 . S
O273 Co270 2.097 . S
O273 C297 1.253 . S
O274 Co270 2.065 . S
O274 C290 1.221 . S
O275 Co270 2.065 1_565 S
O275 C285 1.221 1_565 S
O276 Co270 2.042 1_565 S
O276 C291 1.237 . S
O277 Co258 1.958 . S
O277 C291 1.278 1_545 S
O278 Co264 1.950 . S
O278 C290 1.277 1_565 S
O279 Co264 2.262 . S
O279 Co270 2.097 1_565 S
O279 C271 1.253 . S
O280 Co264 1.958 . S
O280 C298 1.278 1_565 S
O281 Co258 1.950 . S
O281 C285 1.277 . S
O282 Co258 2.057 . S
O282 C297 1.263 . S
O283 Co270 2.042 . S
O283 C298 1.237 . S
O284 Co264 2.057 . S
O284 C271 1.263 . S
C285 O275 1.221 1_545 S
C285 O281 1.277 . S
C286 C269 1.361 . S
C286 H287 0.960 . S
C286 H288 0.961 . S
C286 H289 0.961 . S
H287 C286 0.960 . S
H288 C286 0.961 . S
H289 C286 0.961 . S
C290 O274 1.221 . S
C290 O278 1.277 1_545 S
C291 O276 1.237 . S
C291 O277 1.278 1_565 S
H292 C260 0.931 . S
H293 C296 0.961 . S
H294 C296 0.961 . S
H295 C296 0.960 . S
C296 C262 1.361 . S
C296 H293 0.961 . S
C296 H294 0.961 . S
C296 H295 0.960 . S
C297 O273 1.253 . S
C297 O282 1.263 . S
C298 O280 1.278 1_545 S
C298 O283 1.237 . S
H299 C263 0.930 . S
H300 C267 0.930 . S
Co301 N302 2.034 . S
Co301 O316 2.262 . S
Co301 O320 1.958 . S
Co301 O324 1.950 1_556 S
Co301 O325 2.061 . S
N302 Co301 2.034 . S
N302 C303 1.366 . S
N302 C305 1.332 1_556 S
C303 N302 1.366 . S
C303 C306 1.377 . S
C303 H335 0.931 . S
N304 C305 1.346 . S
N304 C306 1.337 1_554 S
C305 N302 1.332 1_554 S
C305 N304 1.346 . S
C305 C339 1.361 . S
C306 C303 1.377 . S
C306 N304 1.337 1_556 S
C306 H342 0.930 . S
Co307 N308 2.034 . S
Co307 O321 1.950 1_556 S
Co307 O322 2.262 . S
Co307 O323 1.958 . S
Co307 O327 2.061 . S
N308 Co307 2.034 . S
N308 C311 1.366 . S
N308 C312 1.332 1_556 S
N309 C310 1.337 1_554 S
N309 C312 1.346 . S
C310 N309 1.337 1_556 S
C310 C311 1.377 . S
C310 H343 0.930 . S
C311 N308 1.366 . S
C311 C310 1.377 . S
C311 H315 0.931 . S
C312 N308 1.332 1_554 S
C312 N309 1.346 . S
C312 C329 1.361 . S
Co313 O316 2.097 . S
Co313 O317 2.065 1_556 S
Co313 O318 2.065 1_556 S
Co313 O319 2.042 . S
Co313 O322 2.097 . S
Co313 O326 2.042 . S
C314 O322 1.253 . S
C314 O327 1.265 . S
H315 C311 0.931 . S
O316 Co301 2.262 . S
O316 Co313 2.097 . S
O316 C340 1.253 . S
O317 Co313 2.065 1_554 S
O317 C333 1.221 . S
O318 Co313 2.065 1_554 S
O318 C328 1.221 . S
O319 Co313 2.042 . S
O319 C334 1.237 . S
O320 Co301 1.958 . S
O320 C334 1.278 . S
O321 Co307 1.950 1_554 S
O321 C333 1.277 . S
O322 Co307 2.262 . S
O322 Co313 2.097 . S
O322 C314 1.253 . S
O323 Co307 1.958 . S
O323 C341 1.278 . S
O324 Co301 1.950 1_554 S
O324 C328 1.277 . S
O325 Co301 2.061 . S
O325 C340 1.265 . S
O326 Co313 2.042 . S
O326 C341 1.237 . S
O327 Co307 2.061 . S
O327 C314 1.265 . S
C328 O318 1.221 . S
C328 O324 1.277 . S
C329 C312 1.361 . S
C329 H330 0.960 . S
C329 H331 0.961 . S
C329 H332 0.961 . S
H330 C329 0.960 . S
H331 C329 0.961 . S
H332 C329 0.961 . S
C333 O317 1.221 . S
C333 O321 1.277 . S
C334 O319 1.237 . S
C334 O320 1.278 . S
H335 C303 0.931 . S
H336 C339 0.961 . S
H337 C339 0.961 . S
H338 C339 0.960 . S
C339 C305 1.361 . S
C339 H336 0.961 . S
C339 H337 0.961 . S
C339 H338 0.960 . S
C340 O316 1.253 . S
C340 O325 1.265 . S
C341 O323 1.278 . S
C341 O326 1.237 . S
H342 C306 0.930 . S
H343 C310 0.930 . S
H344 C362 0.951 . S
H345 C364 0.951 1_565 S
H346 C366 0.950 . S
H347 C367 0.950 . S
H348 C369 0.950 . S
H349 C372 0.950 . S
H350 C373 0.950 . S
H351 C375 0.950 . S
H352 C376 0.950 . S
H353 C377 0.951 . S
H354 C379 0.951 . S
H355 C381 0.950 . S
H356 C382 0.950 . S
H357 C384 0.950 . S
H358 C387 0.950 . S
H359 C388 0.950 . S
H360 C390 0.950 . S
H361 C391 0.950 . S
C362 H344 0.951 . S
C362 C363 1.366 1_565 S
C362 C364 1.388 1_565 S
C363 C362 1.366 1_545 S
C363 C367 1.385 . S
C364 H345 0.951 1_545 S
C364 C362 1.388 1_545 S
C364 C365 1.366 . S
C365 C364 1.366 . S
C365 C366 1.414 . S
C365 C368 1.499 . S
C366 H346 0.950 . S
C366 C365 1.414 . S
C366 C367 1.374 . S
C367 H347 0.950 . S
C367 C363 1.385 . S
C367 C366 1.374 . S
C368 C365 1.499 . S
C368 C369 1.373 . S
C368 C370 1.389 . S
C369 H348 0.950 . S
C369 C368 1.373 . S
C369 C385 1.377 . S
C370 C368 1.389 . S
C370 C371 1.524 1_545 S
C370 C384 1.377 . S
C371 C370 1.524 1_565 S
C371 C372 1.397 . S
C371 C376 1.363 . S
C372 H349 0.950 . S
C372 C371 1.397 . S
C372 C373 1.334 . S
C373 H350 0.950 . S
C373 C372 1.334 . S
C373 C374 1.287 . S
C374 C373 1.287 . S
C374 C375 1.524 . S
C374 H393 0.913 . S
C375 H351 0.950 . S
C375 C374 1.524 . S
C375 C376 1.415 . S
C376 H352 0.950 . S
C376 C371 1.363 . S
C376 C375 1.415 . S
C377 H353 0.951 . S
C377 C378 1.366 . S
C377 C379 1.388 . S
C378 C377 1.366 . S
C378 C382 1.385 . S
C379 H354 0.951 . S
C379 C377 1.388 . S
C379 C380 1.366 . S
C380 C379 1.366 . S
C380 C381 1.414 . S
C380 C383 1.499 . S
C381 H355 0.950 . S
C381 C380 1.414 . S
C381 C382 1.374 . S
C382 H356 0.950 . S
C382 C378 1.385 . S
C382 C381 1.374 . S
C383 C380 1.499 . S
C383 C384 1.373 . S
C383 C385 1.389 . S
C384 H357 0.950 . S
C384 C370 1.377 . S
C384 C383 1.373 . S
C385 C369 1.377 . S
C385 C383 1.389 . S
C385 C386 1.524 . S
C386 C385 1.524 . S
C386 C387 1.397 . S
C386 C391 1.363 . S
C387 H358 0.950 . S
C387 C386 1.397 . S
C387 C388 1.334 . S
C388 H359 0.950 . S
C388 C387 1.334 . S
C388 C389 1.287 . S
C389 C388 1.287 . S
C389 C390 1.524 . S
C389 H392 0.999 . S
C390 H360 0.950 . S
C390 C389 1.524 . S
C390 C391 1.415 . S
C391 H361 0.950 . S
C391 C386 1.363 . S
C391 C390 1.415 . S
H392 C389 0.999 . S
H393 C374 0.913 . S
H394 C412 0.951 . S
H395 C414 0.951 . S
H396 C416 0.950 1_545 S
H397 C417 0.950 . S
H398 C419 0.950 1_545 S
H399 C422 0.950 . S
H400 C423 0.950 . S
H401 C425 0.950 . S
H402 C426 0.950 . S
H403 C427 0.951 . S
H404 C429 0.951 . S
H405 C431 0.950 . S
H406 C432 0.950 . S
H407 C434 0.950 . S
H408 C437 0.950 . S
H409 C438 0.950 1_565 S
H410 C440 0.950 . S
H411 C441 0.950 . S
C412 H394 0.951 . S
C412 C413 1.366 . S
C412 C414 1.388 . S
C413 C412 1.366 . S
C413 C417 1.385 1_565 S
C414 H395 0.951 . S
C414 C412 1.388 . S
C414 C415 1.366 . S
C415 C414 1.366 . S
C415 C416 1.414 . S
C415 C418 1.499 . S
C416 H396 0.950 1_565 S
C416 C415 1.414 . S
C416 C417 1.374 1_565 S
C417 H397 0.950 . S
C417 C413 1.385 1_545 S
C417 C416 1.374 1_545 S
C418 C415 1.499 . S
C418 C419 1.373 . S
C418 C420 1.389 . S
C419 H398 0.950 1_565 S
C419 C418 1.373 . S
C419 C435 1.377 . S
C420 C418 1.389 . S
C420 C421 1.524 . S
C420 C434 1.377 . S
C421 C420 1.524 . S
C421 C422 1.397 . S
C421 C426 1.363 . S
C422 H399 0.950 . S
C422 C421 1.397 . S
C422 C423 1.334 . S
C423 H400 0.950 . S
C423 C422 1.334 . S
C423 C424 1.287 . S
C424 C423 1.287 . S
C424 C425 1.524 . S
C424 H443 0.913 . S
C425 H401 0.950 . S
C425 C424 1.524 . S
C425 C426 1.415 . S
C426 H402 0.950 . S
C426 C421 1.363 . S
C426 C425 1.415 . S
C427 H403 0.951 . S
C427 C428 1.366 . S
C427 C429 1.388 . S
C428 C427 1.366 . S
C428 C432 1.385 . S
C429 H404 0.951 . S
C429 C427 1.388 . S
C429 C430 1.366 . S
C430 C429 1.366 . S
C430 C431 1.414 . S
C430 C433 1.499 . S
C431 H405 0.950 . S
C431 C430 1.414 . S
C431 C432 1.374 . S
C432 H406 0.950 . S
C432 C428 1.385 . S
C432 C431 1.374 . S
C433 C430 1.499 . S
C433 C434 1.373 . S
C433 C435 1.389 . S
C434 H407 0.950 . S
C434 C420 1.377 . S
C434 C433 1.373 . S
C435 C419 1.377 . S
C435 C433 1.389 . S
C435 C436 1.524 . S
C436 C435 1.524 . S
C436 C437 1.397 . S
C436 C441 1.363 1_565 S
C437 H408 0.950 . S
C437 C436 1.397 . S
C437 C438 1.334 1_565 S
C438 H409 0.950 1_545 S
C438 C437 1.334 1_545 S
C438 C439 1.287 . S
C439 C438 1.287 . S
C439 C440 1.524 . S
C439 H442 0.999 . S
C440 H410 0.950 . S
C440 C439 1.524 . S
C440 C441 1.415 . S
C441 H411 0.950 . S
C441 C436 1.363 1_545 S
C441 C440 1.415 . S
H442 C439 0.999 . S
H443 C424 0.913 . S
H444 C462 0.951 . S
H445 C464 0.951 . S
H446 C466 0.950 . S
H447 C467 0.950 . S
H448 C469 0.950 . S
H449 C472 0.950 . S
H450 C473 0.950 . S
H451 C475 0.950 . S
H452 C476 0.950 . S
H453 C477 0.951 . S
H454 C479 0.951 . S
H455 C481 0.950 . S
H456 C482 0.950 . S
H457 C484 0.950 . S
H458 C487 0.950 . S
H459 C488 0.950 . S
H460 C490 0.950 . S
H461 C491 0.950 . S
C462 H444 0.951 . S
C462 C463 1.366 . S
C462 C464 1.388 . S
C463 C462 1.366 . S
C463 C467 1.385 . S
C464 H445 0.951 . S
C464 C462 1.388 . S
C464 C465 1.366 . S
C465 C464 1.366 . S
C465 C466 1.414 . S
C465 C468 1.499 . S
C466 H446 0.950 . S
C466 C465 1.414 . S
C466 C467 1.374 . S
C467 H447 0.950 . S
C467 C463 1.385 . S
C467 C466 1.374 . S
C468 C465 1.499 . S
C468 C469 1.373 . S
C468 C470 1.389 . S
C469 H448 0.950 . S
C469 C468 1.373 . S
C469 C485 1.377 . S
C470 C468 1.389 . S
C470 C471 1.524 . S
C470 C484 1.377 . S
C471 C470 1.524 . S
C471 C472 1.397 . S
C471 C476 1.363 . S
C472 H449 0.950 . S
C472 C471 1.397 . S
C472 C473 1.334 . S
C473 H450 0.950 . S
C473 C472 1.334 . S
C473 C474 1.287 . S
C474 C473 1.287 . S
C474 C475 1.524 . S
C474 H493 0.913 . S
C475 H451 0.950 . S
C475 C474 1.524 . S
C475 C476 1.415 . S
C476 H452 0.950 . S
C476 C471 1.363 . S
C476 C475 1.415 . S
C477 H453 0.951 . S
C477 C478 1.366 . S
C477 C479 1.388 . S
C478 C477 1.366 . S
C478 C482 1.385 . S
C479 H454 0.951 . S
C479 C477 1.388 . S
C479 C480 1.366 . S
C480 C479 1.366 . S
C480 C481 1.414 . S
C480 C483 1.499 . S
C481 H455 0.950 . S
C481 C480 1.414 . S
C481 C482 1.374 . S
C482 H456 0.950 . S
C482 C478 1.385 . S
C482 C481 1.374 . S
C483 C480 1.499 . S
C483 C484 1.373 . S
C483 C485 1.389 . S
C484 H457 0.950 . S
C484 C470 1.377 . S
C484 C483 1.373 . S
C485 C469 1.377 . S
C485 C483 1.389 . S
C485 C486 1.524 . S
C486 C485 1.524 . S
C486 C487 1.397 . S
C486 C491 1.363 . S
C487 H458 0.950 . S
C487 C486 1.397 . S
C487 C488 1.334 . S
C488 H459 0.950 . S
C488 C487 1.334 . S
C488 C489 1.287 . S
C489 C488 1.287 . S
C489 C490 1.524 . S
C489 H492 0.999 . S
C490 H460 0.950 . S
C490 C489 1.524 . S
C490 C491 1.415 . S
C491 H461 0.950 . S
C491 C486 1.363 . S
C491 C490 1.415 . S
H492 C489 0.999 . S
H493 C474 0.913 . S
H494 C512 0.951 . S
H495 C514 0.951 . S
H496 C516 0.950 . S
H497 C517 0.950 . S
H498 C519 0.950 . S
H499 C522 0.950 . S
H500 C523 0.950 . S
H501 C525 0.950 . S
H502 C526 0.950 . S
H503 C527 0.951 . S
H504 C529 0.951 . S
H505 C531 0.950 . S
H506 C532 0.950 . S
H507 C534 0.950 . S
H508 C537 0.950 . S
H509 C538 0.950 . S
H510 C540 0.950 . S
H511 C541 0.950 . S
C512 H494 0.951 . S
C512 C513 1.366 . S
C512 C514 1.388 . S
C513 C512 1.366 . S
C513 C517 1.385 . S
C514 H495 0.951 . S
C514 C512 1.388 . S
C514 C515 1.366 . S
C515 C514 1.366 . S
C515 C516 1.414 . S
C515 C518 1.499 . S
C516 H496 0.950 . S
C516 C515 1.414 . S
C516 C517 1.374 . S
C517 H497 0.950 . S
C517 C513 1.385 . S
C517 C516 1.374 . S
C518 C515 1.499 . S
C518 C519 1.373 . S
C518 C520 1.389 . S
C519 H498 0.950 . S
C519 C518 1.373 . S
C519 C535 1.377 . S
C520 C518 1.389 . S
C520 C521 1.524 . S
C520 C534 1.377 . S
C521 C520 1.524 . S
C521 C522 1.397 . S
C521 C526 1.363 . S
C522 H499 0.950 . S
C522 C521 1.397 . S
C522 C523 1.334 . S
C523 H500 0.950 . S
C523 C522 1.334 . S
C523 C524 1.287 . S
C524 C523 1.287 . S
C524 C525 1.524 . S
C524 H543 0.913 . S
C525 H501 0.950 . S
C525 C524 1.524 . S
C525 C526 1.415 . S
C526 H502 0.950 . S
C526 C521 1.363 . S
C526 C525 1.415 . S
C527 H503 0.951 . S
C527 C528 1.366 . S
C527 C529 1.388 . S
C528 C527 1.366 . S
C528 C532 1.385 . S
C529 H504 0.951 . S
C529 C527 1.388 . S
C529 C530 1.366 . S
C530 C529 1.366 . S
C530 C531 1.414 . S
C530 C533 1.499 . S
C531 H505 0.950 . S
C531 C530 1.414 . S
C531 C532 1.374 . S
C532 H506 0.950 . S
C532 C528 1.385 . S
C532 C531 1.374 . S
C533 C530 1.499 . S
C533 C534 1.373 . S
C533 C535 1.389 . S
C534 H507 0.950 . S
C534 C520 1.377 . S
C534 C533 1.373 . S
C535 C519 1.377 . S
C535 C533 1.389 . S
C535 C536 1.524 . S
C536 C535 1.524 . S
C536 C537 1.397 . S
C536 C541 1.363 . S
C537 H508 0.950 . S
C537 C536 1.397 . S
C537 C538 1.334 . S
C538 H509 0.950 . S
C538 C537 1.334 . S
C538 C539 1.287 . S
C539 C538 1.287 . S
C539 C540 1.524 . S
C539 H542 0.999 . S
C540 H510 0.950 . S
C540 C539 1.524 . S
C540 C541 1.415 . S
C541 H511 0.950 . S
C541 C536 1.363 . S
C541 C540 1.415 . S
H542 C539 0.999 . S
H543 C524 0.913 . S
H544 C562 0.951 . S
H545 C564 0.951 . S
H546 C566 0.950 . S
H547 C567 0.950 . S
H548 C569 0.950 . S
H549 C572 0.950 . S
H550 C573 0.950 . S
H551 C575 0.950 . S
H552 C576 0.950 . S
H553 C577 0.951 . S
H554 C579 0.951 . S
H555 C581 0.950 . S
H556 C582 0.950 . S
H557 C584 0.950 . S
H558 C587 0.950 . S
H559 C588 0.950 . S
H560 C590 0.950 . S
H561 C591 0.950 . S
C562 H544 0.951 . S
C562 C563 1.366 . S
C562 C564 1.388 . S
C563 C562 1.366 . S
C563 C567 1.385 . S
C564 H545 0.951 . S
C564 C562 1.388 . S
C564 C565 1.366 . S
C565 C564 1.366 . S
C565 C566 1.414 . S
C565 C568 1.499 . S
C566 H546 0.950 . S
C566 C565 1.414 . S
C566 C567 1.374 . S
C567 H547 0.950 . S
C567 C563 1.385 . S
C567 C566 1.374 . S
C568 C565 1.499 . S
C568 C569 1.373 . S
C568 C570 1.389 . S
C569 H548 0.950 . S
C569 C568 1.373 . S
C569 C585 1.377 . S
C570 C568 1.389 . S
C570 C571 1.524 . S
C570 C584 1.377 . S
C571 C570 1.524 . S
C571 C572 1.397 . S
C571 C576 1.363 . S
C572 H549 0.950 . S
C572 C571 1.397 . S
C572 C573 1.334 . S
C573 H550 0.950 . S
C573 C572 1.334 . S
C573 C574 1.287 . S
C574 C573 1.287 . S
C574 C575 1.524 . S
C574 H593 0.913 . S
C575 H551 0.950 . S
C575 C574 1.524 . S
C575 C576 1.415 . S
C576 H552 0.950 . S
C576 C571 1.363 . S
C576 C575 1.415 . S
C577 H553 0.951 . S
C577 C578 1.366 . S
C577 C579 1.388 . S
C578 C577 1.366 . S
C578 C582 1.385 . S
C579 H554 0.951 . S
C579 C577 1.388 . S
C579 C580 1.366 . S
C580 C579 1.366 . S
C580 C581 1.414 . S
C580 C583 1.499 . S
C581 H555 0.950 . S
C581 C580 1.414 . S
C581 C582 1.374 . S
C582 H556 0.950 . S
C582 C578 1.385 . S
C582 C581 1.374 . S
C583 C580 1.499 . S
C583 C584 1.373 . S
C583 C585 1.389 . S
C584 H557 0.950 . S
C584 C570 1.377 . S
C584 C583 1.373 . S
C585 C569 1.377 . S
C585 C583 1.389 . S
C585 C586 1.524 . S
C586 C585 1.524 . S
C586 C587 1.397 . S
C586 C591 1.363 . S
C587 H558 0.950 . S
C587 C586 1.397 . S
C587 C588 1.334 . S
C588 H559 0.950 . S
C588 C587 1.334 . S
C588 C589 1.287 . S
C589 C588 1.287 . S
C589 C590 1.524 . S
C589 H592 0.999 . S
C590 H560 0.950 . S
C590 C589 1.524 . S
C590 C591 1.415 . S
C591 H561 0.950 . S
C591 C586 1.363 . S
C591 C590 1.415 . S
H592 C589 0.999 . S
H593 C574 0.913 . S
H594 C612 0.951 . S
H595 C614 0.951 . S
H596 C616 0.950 . S
H597 C617 0.950 . S
H598 C619 0.950 . S
H599 C622 0.950 . S
H600 C623 0.950 . S
H601 C625 0.950 . S
H602 C626 0.950 . S
H603 C627 0.951 . S
H604 C629 0.951 . S
H605 C631 0.950 . S
H606 C632 0.950 . S
H607 C634 0.950 . S
H608 C637 0.950 . S
H609 C638 0.950 . S
H610 C640 0.950 . S
H611 C641 0.950 . S
C612 H594 0.951 . S
C612 C613 1.366 . S
C612 C614 1.388 . S
C613 C612 1.366 . S
C613 C617 1.385 . S
C614 H595 0.951 . S
C614 C612 1.388 . S
C614 C615 1.366 . S
C615 C614 1.366 . S
C615 C616 1.414 . S
C615 C618 1.499 . S
C616 H596 0.950 . S
C616 C615 1.414 . S
C616 C617 1.374 . S
C617 H597 0.950 . S
C617 C613 1.385 . S
C617 C616 1.374 . S
C618 C615 1.499 . S
C618 C619 1.373 . S
C618 C620 1.389 . S
C619 H598 0.950 . S
C619 C618 1.373 . S
C619 C635 1.377 . S
C620 C618 1.389 . S
C620 C621 1.524 . S
C620 C634 1.377 . S
C621 C620 1.524 . S
C621 C622 1.397 . S
C621 C626 1.363 . S
C622 H599 0.950 . S
C622 C621 1.397 . S
C622 C623 1.334 . S
C623 H600 0.950 . S
C623 C622 1.334 . S
C623 C624 1.287 . S
C624 C623 1.287 . S
C624 C625 1.524 . S
C624 H643 0.913 . S
C625 H601 0.950 . S
C625 C624 1.524 . S
C625 C626 1.415 . S
C626 H602 0.950 . S
C626 C621 1.363 . S
C626 C625 1.415 . S
C627 H603 0.951 . S
C627 C628 1.366 . S
C627 C629 1.388 . S
C628 C627 1.366 . S
C628 C632 1.385 . S
C629 H604 0.951 . S
C629 C627 1.388 . S
C629 C630 1.366 . S
C630 C629 1.366 . S
C630 C631 1.414 . S
C630 C633 1.499 . S
C631 H605 0.950 . S
C631 C630 1.414 . S
C631 C632 1.374 . S
C632 H606 0.950 . S
C632 C628 1.385 . S
C632 C631 1.374 . S
C633 C630 1.499 . S
C633 C634 1.373 . S
C633 C635 1.389 . S
C634 H607 0.950 . S
C634 C620 1.377 . S
C634 C633 1.373 . S
C635 C619 1.377 . S
C635 C633 1.389 . S
C635 C636 1.524 . S
C636 C635 1.524 . S
C636 C637 1.397 . S
C636 C641 1.363 . S
C637 H608 0.950 . S
C637 C636 1.397 . S
C637 C638 1.334 . S
C638 H609 0.950 . S
C638 C637 1.334 . S
C638 C639 1.287 . S
C639 C638 1.287 . S
C639 C640 1.524 . S
C639 H642 0.999 . S
C640 H610 0.950 . S
C640 C639 1.524 . S
C640 C641 1.415 . S
C641 H611 0.950 . S
C641 C636 1.363 . S
C641 C640 1.415 . S
H642 C639 0.999 . S
H643 C624 0.913 . S
H644 C662 0.951 . S
H645 C664 0.951 . S
H646 C666 0.950 . S
H647 C667 0.950 . S
H648 C669 0.950 . S
H649 C672 0.950 . S
H650 C673 0.950 1_545 S
H651 C675 0.950 . S
H652 C676 0.950 . S
H653 C677 0.951 . S
H654 C679 0.951 . S
H655 C681 0.950 . S
H656 C682 0.950 . S
H657 C684 0.950 . S
H658 C687 0.950 . S
H659 C688 0.950 . S
H660 C690 0.950 . S
H661 C691 0.950 . S
C662 H644 0.951 . S
C662 C663 1.366 . S
C662 C664 1.388 . S
C663 C662 1.366 . S
C663 C667 1.385 . S
C664 H645 0.951 . S
C664 C662 1.388 . S
C664 C665 1.366 . S
C665 C664 1.366 . S
C665 C666 1.414 . S
C665 C668 1.499 . S
C666 H646 0.950 . S
C666 C665 1.414 . S
C666 C667 1.374 . S
C667 H647 0.950 . S
C667 C663 1.385 . S
C667 C666 1.374 . S
C668 C665 1.499 . S
C668 C669 1.373 . S
C668 C670 1.389 . S
C669 H648 0.950 . S
C669 C668 1.373 . S
C669 C685 1.377 . S
C670 C668 1.389 . S
C670 C671 1.524 . S
C670 C684 1.377 . S
C671 C670 1.524 . S
C671 C672 1.397 . S
C671 C676 1.363 . S
C672 H649 0.950 . S
C672 C671 1.397 . S
C672 C673 1.334 . S
C673 H650 0.950 1_565 S
C673 C672 1.334 . S
C673 C674 1.287 1_565 S
C674 C673 1.287 1_545 S
C674 C675 1.524 . S
C674 H693 0.913 . S
C675 H651 0.950 . S
C675 C674 1.524 . S
C675 C676 1.415 1_545 S
C676 H652 0.950 . S
C676 C671 1.363 . S
C676 C675 1.415 1_565 S
C677 H653 0.951 . S
C677 C678 1.366 . S
C677 C679 1.388 . S
C678 C677 1.366 . S
C678 C682 1.385 . S
C679 H654 0.951 . S
C679 C677 1.388 . S
C679 C680 1.366 . S
C680 C679 1.366 . S
C680 C681 1.414 . S
C680 C683 1.499 . S
C681 H655 0.950 . S
C681 C680 1.414 . S
C681 C682 1.374 . S
C682 H656 0.950 . S
C682 C678 1.385 . S
C682 C681 1.374 . S
C683 C680 1.499 . S
C683 C684 1.373 . S
C683 C685 1.389 . S
C684 H657 0.950 . S
C684 C670 1.377 . S
C684 C683 1.373 . S
C685 C669 1.377 . S
C685 C683 1.389 . S
C685 C686 1.524 . S
C686 C685 1.524 . S
C686 C687 1.397 . S
C686 C691 1.363 . S
C687 H658 0.950 . S
C687 C686 1.397 . S
C687 C688 1.334 . S
C688 H659 0.950 . S
C688 C687 1.334 . S
C688 C689 1.287 . S
C689 C688 1.287 . S
C689 C690 1.524 . S
C689 H692 0.999 . S
C690 H660 0.950 . S
C690 C689 1.524 . S
C690 C691 1.415 . S
C691 H661 0.950 . S
C691 C686 1.363 . S
C691 C690 1.415 . S
H692 C689 0.999 . S
H693 C674 0.913 . S
H694 C712 0.951 . S
H695 C714 0.951 . S
H696 C716 0.950 . S
H697 C717 0.950 . S
H698 C719 0.950 . S
H699 C722 0.950 . S
H700 C723 0.950 . S
H701 C725 0.950 . S
H702 C726 0.950 . S
H703 C727 0.951 . S
H704 C729 0.951 . S
H705 C731 0.950 . S
H706 C732 0.950 1_565 S
H707 C734 0.950 . S
H708 C737 0.950 . S
H709 C738 0.950 . S
H710 C740 0.950 . S
H711 C741 0.950 . S
C712 H694 0.951 . S
C712 C713 1.366 . S
C712 C714 1.388 . S
C713 C712 1.366 . S
C713 C717 1.385 . S
C714 H695 0.951 . S
C714 C712 1.388 . S
C714 C715 1.366 . S
C715 C714 1.366 . S
C715 C716 1.414 . S
C715 C718 1.499 . S
C716 H696 0.950 . S
C716 C715 1.414 . S
C716 C717 1.374 . S
C717 H697 0.950 . S
C717 C713 1.385 . S
C717 C716 1.374 . S
C718 C715 1.499 . S
C718 C719 1.373 . S
C718 C720 1.389 . S
C719 H698 0.950 . S
C719 C718 1.373 . S
C719 C735 1.377 . S
C720 C718 1.389 . S
C720 C721 1.524 . S
C720 C734 1.377 . S
C721 C720 1.524 . S
C721 C722 1.397 . S
C721 C726 1.363 . S
C722 H699 0.950 . S
C722 C721 1.397 . S
C722 C723 1.334 . S
C723 H700 0.950 . S
C723 C722 1.334 . S
C723 C724 1.287 . S
C724 C723 1.287 . S
C724 C725 1.524 . S
C724 H743 0.913 . S
C725 H701 0.950 . S
C725 C724 1.524 . S
C725 C726 1.415 . S
C726 H702 0.950 . S
C726 C721 1.363 . S
C726 C725 1.415 . S
C727 H703 0.951 . S
C727 C728 1.366 . S
C727 C729 1.388 . S
C728 C727 1.366 . S
C728 C732 1.385 . S
C729 H704 0.951 . S
C729 C727 1.388 . S
C729 C730 1.366 . S
C730 C729 1.366 . S
C730 C731 1.414 . S
C730 C733 1.499 . S
C731 H705 0.950 . S
C731 C730 1.414 . S
C731 C732 1.374 . S
C732 H706 0.950 1_545 S
C732 C728 1.385 . S
C732 C731 1.374 . S
C733 C730 1.499 . S
C733 C734 1.373 . S
C733 C735 1.389 . S
C734 H707 0.950 . S
C734 C720 1.377 . S
C734 C733 1.373 . S
C735 C719 1.377 . S
C735 C733 1.389 . S
C735 C736 1.524 . S
C736 C735 1.524 . S
C736 C737 1.397 . S
C736 C741 1.363 . S
C737 H708 0.950 . S
C737 C736 1.397 . S
C737 C738 1.334 . S
C738 H709 0.950 . S
C738 C737 1.334 . S
C738 C739 1.287 . S
C739 C738 1.287 . S
C739 C740 1.524 . S
C739 H742 0.999 . S
C740 H710 0.950 . S
C740 C739 1.524 . S
C740 C741 1.415 . S
C741 H711 0.950 . S
C741 C736 1.363 . S
C741 C740 1.415 . S
H742 C739 0.999 . S
H743 C724 0.913 . S
H744 C762 0.951 . S
H745 C764 0.951 . S
H746 C766 0.950 . S
H747 C767 0.950 . S
H748 C769 0.950 . S
H749 C772 0.950 . S
H750 C773 0.950 . S
H751 C775 0.950 . S
H752 C776 0.950 . S
H753 C777 0.951 . S
H754 C779 0.951 . S
H755 C781 0.950 . S
H756 C782 0.950 1_565 S
H757 C784 0.950 . S
H758 C787 0.950 . S
H759 C788 0.950 . S
H760 C790 0.950 . S
H761 C791 0.950 . S
C762 H744 0.951 . S
C762 C763 1.366 . S
C762 C764 1.388 . S
C763 C762 1.366 . S
C763 C767 1.385 . S
C764 H745 0.951 . S
C764 C762 1.388 . S
C764 C765 1.366 . S
C765 C764 1.366 . S
C765 C766 1.414 . S
C765 C768 1.499 . S
C766 H746 0.950 . S
C766 C765 1.414 . S
C766 C767 1.374 . S
C767 H747 0.950 . S
C767 C763 1.385 . S
C767 C766 1.374 . S
C768 C765 1.499 . S
C768 C769 1.373 . S
C768 C770 1.389 . S
C769 H748 0.950 . S
C769 C768 1.373 . S
C769 C785 1.377 . S
C770 C768 1.389 . S
C770 C771 1.524 . S
C770 C784 1.377 . S
C771 C770 1.524 . S
C771 C772 1.397 . S
C771 C776 1.363 . S
C772 H749 0.950 . S
C772 C771 1.397 . S
C772 C773 1.334 . S
C773 H750 0.950 . S
C773 C772 1.334 . S
C773 C774 1.287 . S
C774 C773 1.287 . S
C774 C775 1.524 . S
C774 H793 0.913 . S
C775 H751 0.950 . S
C775 C774 1.524 . S
C775 C776 1.415 . S
C776 H752 0.950 . S
C776 C771 1.363 . S
C776 C775 1.415 . S
C777 H753 0.951 . S
C777 C778 1.366 . S
C777 C779 1.388 . S
C778 C777 1.366 . S
C778 C782 1.385 . S
C779 H754 0.951 . S
C779 C777 1.388 . S
C779 C780 1.366 . S
C780 C779 1.366 . S
C780 C781 1.414 . S
C780 C783 1.499 . S
C781 H755 0.950 . S
C781 C780 1.414 . S
C781 C782 1.374 . S
C782 H756 0.950 1_545 S
C782 C778 1.385 . S
C782 C781 1.374 . S
C783 C780 1.499 . S
C783 C784 1.373 . S
C783 C785 1.389 . S
C784 H757 0.950 . S
C784 C770 1.377 . S
C784 C783 1.373 . S
C785 C769 1.377 . S
C785 C783 1.389 . S
C785 C786 1.524 . S
C786 C785 1.524 . S
C786 C787 1.397 1_545 S
C786 C791 1.363 . S
C787 H758 0.950 . S
C787 C786 1.397 1_565 S
C787 C788 1.334 . S
C788 H759 0.950 . S
C788 C787 1.334 . S
C788 C789 1.287 . S
C789 C788 1.287 . S
C789 C790 1.524 . S
C789 H792 0.999 . S
C790 H760 0.950 . S
C790 C789 1.524 . S
C790 C791 1.415 1_565 S
C791 H761 0.950 . S
C791 C786 1.363 . S
C791 C790 1.415 1_545 S
H792 C789 0.999 . S
H793 C774 0.913 . S
H794 C812 0.951 1_545 S
H795 C814 0.951 . S
H796 C816 0.950 . S
H797 C817 0.950 . S
H798 C819 0.950 . S
H799 C822 0.950 . S
H800 C823 0.950 . S
H801 C825 0.950 . S
H802 C826 0.950 . S
H803 C827 0.951 . S
H804 C829 0.951 . S
H805 C831 0.950 . S
H806 C832 0.950 . S
H807 C834 0.950 . S
H808 C837 0.950 . S
H809 C838 0.950 . S
H810 C840 0.950 . S
H811 C841 0.950 . S
C812 H794 0.951 1_565 S
C812 C813 1.366 . S
C812 C814 1.388 . S
C813 C812 1.366 . S
C813 C817 1.385 . S
C814 H795 0.951 . S
C814 C812 1.388 . S
C814 C815 1.366 . S
C815 C814 1.366 . S
C815 C816 1.414 . S
C815 C818 1.499 . S
C816 H796 0.950 . S
C816 C815 1.414 . S
C816 C817 1.374 . S
C817 H797 0.950 . S
C817 C813 1.385 . S
C817 C816 1.374 . S
C818 C815 1.499 . S
C818 C819 1.373 . S
C818 C820 1.389 . S
C819 H798 0.950 . S
C819 C818 1.373 . S
C819 C835 1.377 . S
C820 C818 1.389 . S
C820 C821 1.524 . S
C820 C834 1.377 . S
C821 C820 1.524 . S
C821 C822 1.397 . S
C821 C826 1.363 . S
C822 H799 0.950 . S
C822 C821 1.397 . S
C822 C823 1.334 . S
C823 H800 0.950 . S
C823 C822 1.334 . S
C823 C824 1.287 . S
C824 C823 1.287 . S
C824 C825 1.524 . S
C824 H843 0.913 . S
C825 H801 0.950 . S
C825 C824 1.524 . S
C825 C826 1.415 . S
C826 H802 0.950 . S
C826 C821 1.363 . S
C826 C825 1.415 . S
C827 H803 0.951 . S
C827 C828 1.366 . S
C827 C829 1.388 . S
C828 C827 1.366 . S
C828 C832 1.385 . S
C829 H804 0.951 . S
C829 C827 1.388 . S
C829 C830 1.366 . S
C830 C829 1.366 . S
C830 C831 1.414 . S
C830 C833 1.499 . S
C831 H805 0.950 . S
C831 C830 1.414 . S
C831 C832 1.374 . S
C832 H806 0.950 . S
C832 C828 1.385 . S
C832 C831 1.374 . S
C833 C830 1.499 . S
C833 C834 1.373 . S
C833 C835 1.389 . S
C834 H807 0.950 . S
C834 C820 1.377 . S
C834 C833 1.373 . S
C835 C819 1.377 . S
C835 C833 1.389 . S
C835 C836 1.524 . S
C836 C835 1.524 . S
C836 C837 1.397 . S
C836 C841 1.363 . S
C837 H808 0.950 . S
C837 C836 1.397 . S
C837 C838 1.334 1_565 S
C838 H809 0.950 . S
C838 C837 1.334 1_545 S
C838 C839 1.287 . S
C839 C838 1.287 . S
C839 C840 1.524 1_545 S
C839 H842 0.999 . S
C840 H810 0.950 . S
C840 C839 1.524 1_565 S
C840 C841 1.415 . S
C841 H811 0.950 . S
C841 C836 1.363 . S
C841 C840 1.415 . S
H842 C839 0.999 . S
H843 C824 0.913 . S
H844 C862 0.951 . S
H845 C864 0.951 . S
H846 C866 0.950 . S
H847 C867 0.950 . S
H848 C869 0.950 . S
H849 C872 0.950 . S
H850 C873 0.950 . S
H851 C875 0.950 . S
H852 C876 0.950 . S
H853 C877 0.951 . S
H854 C879 0.951 . S
H855 C881 0.950 . S
H856 C882 0.950 . S
H857 C884 0.950 . S
H858 C887 0.950 . S
H859 C888 0.950 . S
H860 C890 0.950 . S
H861 C891 0.950 . S
C862 H844 0.951 . S
C862 C863 1.366 . S
C862 C864 1.388 . S
C863 C862 1.366 . S
C863 C867 1.385 . S
C864 H845 0.951 . S
C864 C862 1.388 . S
C864 C865 1.366 . S
C865 C864 1.366 . S
C865 C866 1.414 . S
C865 C868 1.499 . S
C866 H846 0.950 . S
C866 C865 1.414 . S
C866 C867 1.374 . S
C867 H847 0.950 . S
C867 C863 1.385 . S
C867 C866 1.374 . S
C868 C865 1.499 . S
C868 C869 1.373 . S
C868 C870 1.389 . S
C869 H848 0.950 . S
C869 C868 1.373 . S
C869 C885 1.377 . S
C870 C868 1.389 . S
C870 C871 1.524 . S
C870 C884 1.377 . S
C871 C870 1.524 . S
C871 C872 1.397 . S
C871 C876 1.363 . S
C872 H849 0.950 . S
C872 C871 1.397 . S
C872 C873 1.334 . S
C873 H850 0.950 . S
C873 C872 1.334 . S
C873 C874 1.287 . S
C874 C873 1.287 . S
C874 C875 1.524 . S
C874 H893 0.913 . S
C875 H851 0.950 . S
C875 C874 1.524 . S
C875 C876 1.415 . S
C876 H852 0.950 . S
C876 C871 1.363 . S
C876 C875 1.415 . S
C877 H853 0.951 . S
C877 C878 1.366 . S
C877 C879 1.388 . S
C878 C877 1.366 . S
C878 C882 1.385 . S
C879 H854 0.951 . S
C879 C877 1.388 . S
C879 C880 1.366 . S
C880 C879 1.366 . S
C880 C881 1.414 . S
C880 C883 1.499 . S
C881 H855 0.950 . S
C881 C880 1.414 . S
C881 C882 1.374 . S
C882 H856 0.950 . S
C882 C878 1.385 . S
C882 C881 1.374 . S
C883 C880 1.499 . S
C883 C884 1.373 . S
C883 C885 1.389 . S
C884 H857 0.950 . S
C884 C870 1.377 . S
C884 C883 1.373 . S
C885 C869 1.377 . S
C885 C883 1.389 . S
C885 C886 1.524 . S
C886 C885 1.524 . S
C886 C887 1.397 . S
C886 C891 1.363 . S
C887 H858 0.950 . S
C887 C886 1.397 . S
C887 C888 1.334 . S
C888 H859 0.950 . S
C888 C887 1.334 . S
C888 C889 1.287 . S
C889 C888 1.287 . S
C889 C890 1.524 . S
C889 H892 0.999 . S
C890 H860 0.950 . S
C890 C889 1.524 . S
C890 C891 1.415 . S
C891 H861 0.950 . S
C891 C886 1.363 . S
C891 C890 1.415 . S
H892 C889 0.999 . S
H893 C874 0.913 . S
H894 C912 0.951 . S
H895 C914 0.951 . S
H896 C916 0.950 . S
H897 C917 0.950 . S
H898 C919 0.950 . S
H899 C922 0.950 . S
H900 C923 0.950 . S
H901 C925 0.950 . S
H902 C926 0.950 . S
H903 C927 0.951 . S
H904 C929 0.951 . S
H905 C931 0.950 . S
H906 C932 0.950 . S
H907 C934 0.950 . S
H908 C937 0.950 . S
H909 C938 0.950 . S
H910 C940 0.950 . S
H911 C941 0.950 . S
C912 H894 0.951 . S
C912 C913 1.366 . S
C912 C914 1.388 . S
C913 C912 1.366 . S
C913 C917 1.385 . S
C914 H895 0.951 . S
C914 C912 1.388 . S
C914 C915 1.366 . S
C915 C914 1.366 . S
C915 C916 1.414 . S
C915 C918 1.499 . S
C916 H896 0.950 . S
C916 C915 1.414 . S
C916 C917 1.374 . S
C917 H897 0.950 . S
C917 C913 1.385 . S
C917 C916 1.374 . S
C918 C915 1.499 . S
C918 C919 1.373 . S
C918 C920 1.389 . S
C919 H898 0.950 . S
C919 C918 1.373 . S
C919 C935 1.377 . S
C920 C918 1.389 . S
C920 C921 1.524 . S
C920 C934 1.377 . S
C921 C920 1.524 . S
C921 C922 1.397 . S
C921 C926 1.363 . S
C922 H899 0.950 . S
C922 C921 1.397 . S
C922 C923 1.334 . S
C923 H900 0.950 . S
C923 C922 1.334 . S
C923 C924 1.287 . S
C924 C923 1.287 . S
C924 C925 1.524 . S
C924 H943 0.913 . S
C925 H901 0.950 . S
C925 C924 1.524 . S
C925 C926 1.415 . S
C926 H902 0.950 . S
C926 C921 1.363 . S
C926 C925 1.415 . S
C927 H903 0.951 . S
C927 C928 1.366 . S
C927 C929 1.388 . S
C928 C927 1.366 . S
C928 C932 1.385 . S
C929 H904 0.951 . S
C929 C927 1.388 . S
C929 C930 1.366 . S
C930 C929 1.366 . S
C930 C931 1.414 . S
C930 C933 1.499 . S
C931 H905 0.950 . S
C931 C930 1.414 . S
C931 C932 1.374 . S
C932 H906 0.950 . S
C932 C928 1.385 . S
C932 C931 1.374 . S
C933 C930 1.499 . S
C933 C934 1.373 . S
C933 C935 1.389 . S
C934 H907 0.950 . S
C934 C920 1.377 . S
C934 C933 1.373 . S
C935 C919 1.377 . S
C935 C933 1.389 . S
C935 C936 1.524 . S
C936 C935 1.524 . S
C936 C937 1.397 . S
C936 C941 1.363 . S
C937 H908 0.950 . S
C937 C936 1.397 . S
C937 C938 1.334 . S
C938 H909 0.950 . S
C938 C937 1.334 . S
C938 C939 1.287 . S
C939 C938 1.287 . S
C939 C940 1.524 . S
C939 H942 0.999 . S
C940 H910 0.950 . S
C940 C939 1.524 . S
C940 C941 1.415 . S
C941 H911 0.950 . S
C941 C936 1.363 . S
C941 C940 1.415 . S
H942 C939 0.999 . S
H943 C924 0.913 . S
H944 C962 0.951 . S
H945 C964 0.951 . S
H946 C966 0.950 . S
H947 C967 0.950 . S
H948 C969 0.950 . S
H949 C972 0.950 . S
H950 C973 0.950 . S
H951 C975 0.950 . S
H952 C976 0.950 . S
H953 C977 0.951 . S
H954 C979 0.951 . S
H955 C981 0.950 . S
H956 C982 0.950 . S
H957 C984 0.950 . S
H958 C987 0.950 . S
H959 C988 0.950 . S
H960 C990 0.950 . S
H961 C991 0.950 . S
C962 H944 0.951 . S
C962 C963 1.366 . S
C962 C964 1.388 . S
C963 C962 1.366 . S
C963 C967 1.385 . S
C964 H945 0.951 . S
C964 C962 1.388 . S
C964 C965 1.366 . S
C965 C964 1.366 . S
C965 C966 1.414 . S
C965 C968 1.499 . S
C966 H946 0.950 . S
C966 C965 1.414 . S
C966 C967 1.374 . S
C967 H947 0.950 . S
C967 C963 1.385 . S
C967 C966 1.374 . S
C968 C965 1.499 . S
C968 C969 1.373 . S
C968 C970 1.389 . S
C969 H948 0.950 . S
C969 C968 1.373 . S
C969 C985 1.377 . S
C970 C968 1.389 . S
C970 C971 1.524 . S
C970 C984 1.377 . S
C971 C970 1.524 . S
C971 C972 1.397 . S
C971 C976 1.363 . S
C972 H949 0.950 . S
C972 C971 1.397 . S
C972 C973 1.334 . S
C973 H950 0.950 . S
C973 C972 1.334 . S
C973 C974 1.287 . S
C974 C973 1.287 . S
C974 C975 1.524 . S
C974 H993 0.913 . S
C975 H951 0.950 . S
C975 C974 1.524 . S
C975 C976 1.415 . S
C976 H952 0.950 . S
C976 C971 1.363 . S
C976 C975 1.415 . S
C977 H953 0.951 . S
C977 C978 1.366 . S
C977 C979 1.388 . S
C978 C977 1.366 . S
C978 C982 1.385 . S
C979 H954 0.951 . S
C979 C977 1.388 . S
C979 C980 1.366 . S
C980 C979 1.366 . S
C980 C981 1.414 . S
C980 C983 1.499 . S
C981 H955 0.950 . S
C981 C980 1.414 . S
C981 C982 1.374 . S
C982 H956 0.950 . S
C982 C978 1.385 . S
C982 C981 1.374 . S
C983 C980 1.499 . S
C983 C984 1.373 . S
C983 C985 1.389 . S
C984 H957 0.950 . S
C984 C970 1.377 . S
C984 C983 1.373 . S
C985 C969 1.377 . S
C985 C983 1.389 . S
C985 C986 1.524 . S
C986 C985 1.524 . S
C986 C987 1.397 . S
C986 C991 1.363 . S
C987 H958 0.950 . S
C987 C986 1.397 . S
C987 C988 1.334 . S
C988 H959 0.950 . S
C988 C987 1.334 . S
C988 C989 1.287 . S
C989 C988 1.287 . S
C989 C990 1.524 . S
C989 H992 0.999 . S
C990 H960 0.950 . S
C990 C989 1.524 . S
C990 C991 1.415 . S
C991 H961 0.950 . S
C991 C986 1.363 . S
C991 C990 1.415 . S
H992 C989 0.999 . S
H993 C974 0.913 . S
H994 C1012 0.951 . S
H995 C1014 0.951 . S
H996 C1016 0.950 . S
H997 C1017 0.950 . S
H998 C1019 0.950 . S
H999 C1022 0.950 . S
H1000 C1023 0.950 . S
H1001 C1025 0.950 . S
H1002 C1026 0.950 . S
H1003 C1027 0.951 . S
H1004 C1029 0.951 . S
H1005 C1031 0.950 . S
H1006 C1032 0.950 . S
H1007 C1034 0.950 . S
H1008 C1037 0.950 . S
H1009 C1038 0.950 . S
H1010 C1040 0.950 . S
H1011 C1041 0.950 . S
C1012 H994 0.951 . S
C1012 C1013 1.366 . S
C1012 C1014 1.388 . S
C1013 C1012 1.366 . S
C1013 C1017 1.385 . S
C1014 H995 0.951 . S
C1014 C1012 1.388 . S
C1014 C1015 1.366 . S
C1015 C1014 1.366 . S
C1015 C1016 1.414 . S
C1015 C1018 1.499 . S
C1016 H996 0.950 . S
C1016 C1015 1.414 . S
C1016 C1017 1.374 . S
C1017 H997 0.950 . S
C1017 C1013 1.385 . S
C1017 C1016 1.374 . S
C1018 C1015 1.499 . S
C1018 C1019 1.373 . S
C1018 C1020 1.389 . S
C1019 H998 0.950 . S
C1019 C1018 1.373 . S
C1019 C1035 1.377 . S
C1020 C1018 1.389 . S
C1020 C1021 1.524 . S
C1020 C1034 1.377 . S
C1021 C1020 1.524 . S
C1021 C1022 1.397 . S
C1021 C1026 1.363 . S
C1022 H999 0.950 . S
C1022 C1021 1.397 . S
C1022 C1023 1.334 . S
C1023 H1000 0.950 . S
C1023 C1022 1.334 . S
C1023 C1024 1.287 . S
C1024 C1023 1.287 . S
C1024 C1025 1.524 . S
C1024 H1043 0.913 . S
C1025 H1001 0.950 . S
C1025 C1024 1.524 . S
C1025 C1026 1.415 . S
C1026 H1002 0.950 . S
C1026 C1021 1.363 . S
C1026 C1025 1.415 . S
C1027 H1003 0.951 . S
C1027 C1028 1.366 . S
C1027 C1029 1.388 . S
C1028 C1027 1.366 . S
C1028 C1032 1.385 . S
C1029 H1004 0.951 . S
C1029 C1027 1.388 . S
C1029 C1030 1.366 . S
C1030 C1029 1.366 . S
C1030 C1031 1.414 . S
C1030 C1033 1.499 . S
C1031 H1005 0.950 . S
C1031 C1030 1.414 . S
C1031 C1032 1.374 . S
C1032 H1006 0.950 . S
C1032 C1028 1.385 . S
C1032 C1031 1.374 . S
C1033 C1030 1.499 . S
C1033 C1034 1.373 . S
C1033 C1035 1.389 . S
C1034 H1007 0.950 . S
C1034 C1020 1.377 . S
C1034 C1033 1.373 . S
C1035 C1019 1.377 . S
C1035 C1033 1.389 . S
C1035 C1036 1.524 . S
C1036 C1035 1.524 . S
C1036 C1037 1.397 . S
C1036 C1041 1.363 . S
C1037 H1008 0.950 . S
C1037 C1036 1.397 . S
C1037 C1038 1.334 . S
C1038 H1009 0.950 . S
C1038 C1037 1.334 . S
C1038 C1039 1.287 . S
C1039 C1038 1.287 . S
C1039 C1040 1.524 . S
C1039 H1042 0.999 . S
C1040 H1010 0.950 . S
C1040 C1039 1.524 . S
C1040 C1041 1.415 . S
C1041 H1011 0.950 . S
C1041 C1036 1.363 . S
C1041 C1040 1.415 . S
H1042 C1039 0.999 . S
H1043 C1024 0.913 . S
H1044 C1062 0.951 . S
H1045 C1064 0.951 . S
H1046 C1066 0.950 . S
H1047 C1067 0.950 . S
H1048 C1069 0.950 . S
H1049 C1072 0.950 . S
H1050 C1073 0.950 . S
H1051 C1075 0.949 . S
H1052 C1076 0.950 . S
H1053 C1077 0.951 . S
H1054 C1079 0.951 . S
H1055 C1081 0.950 . S
H1056 C1082 0.950 . S
H1057 C1084 0.950 . S
H1058 C1087 0.950 . S
H1059 C1088 0.950 . S
H1060 C1090 0.950 . S
H1061 C1091 0.950 . S
C1062 H1044 0.951 . S
C1062 C1063 1.366 . S
C1062 C1064 1.388 . S
C1063 C1062 1.366 . S
C1063 C1067 1.385 . S
C1064 H1045 0.951 . S
C1064 C1062 1.388 . S
C1064 C1065 1.366 . S
C1065 C1064 1.366 . S
C1065 C1066 1.414 . S
C1065 C1068 1.499 . S
C1066 H1046 0.950 . S
C1066 C1065 1.414 . S
C1066 C1067 1.374 . S
C1067 H1047 0.950 . S
C1067 C1063 1.385 . S
C1067 C1066 1.374 . S
C1068 C1065 1.499 . S
C1068 C1069 1.373 . S
C1068 C1070 1.389 . S
C1069 H1048 0.950 . S
C1069 C1068 1.373 . S
C1069 C1085 1.377 . S
C1070 C1068 1.389 . S
C1070 C1071 1.524 . S
C1070 C1084 1.377 . S
C1071 C1070 1.524 . S
C1071 C1072 1.397 1_565 S
C1071 C1076 1.363 . S
C1072 H1049 0.950 . S
C1072 C1071 1.397 1_545 S
C1072 C1073 1.334 . S
C1073 H1050 0.950 . S
C1073 C1072 1.334 . S
C1073 C1074 1.287 . S
C1074 C1073 1.287 . S
C1074 C1075 1.524 . S
C1074 H1093 0.913 . S
C1075 H1051 0.949 . S
C1075 C1074 1.524 . S
C1075 C1076 1.415 1_545 S
C1076 H1052 0.950 . S
C1076 C1071 1.363 . S
C1076 C1075 1.415 1_565 S
C1077 H1053 0.951 . S
C1077 C1078 1.366 . S
C1077 C1079 1.388 . S
C1078 C1077 1.366 . S
C1078 C1082 1.385 . S
C1079 H1054 0.951 . S
C1079 C1077 1.388 . S
C1079 C1080 1.366 . S
C1080 C1079 1.366 . S
C1080 C1081 1.414 . S
C1080 C1083 1.499 . S
C1081 H1055 0.950 . S
C1081 C1080 1.414 . S
C1081 C1082 1.374 . S
C1082 H1056 0.950 . S
C1082 C1078 1.385 . S
C1082 C1081 1.374 . S
C1083 C1080 1.499 . S
C1083 C1084 1.373 . S
C1083 C1085 1.389 . S
C1084 H1057 0.950 . S
C1084 C1070 1.377 . S
C1084 C1083 1.373 . S
C1085 C1069 1.377 . S
C1085 C1083 1.389 . S
C1085 C1086 1.524 . S
C1086 C1085 1.524 . S
C1086 C1087 1.397 . S
C1086 C1091 1.363 . S
C1087 H1058 0.950 . S
C1087 C1086 1.397 . S
C1087 C1088 1.334 . S
C1088 H1059 0.950 . S
C1088 C1087 1.334 . S
C1088 C1089 1.287 . S
C1089 C1088 1.287 . S
C1089 C1090 1.524 . S
C1089 H1092 0.999 . S
C1090 H1060 0.950 . S
C1090 C1089 1.524 . S
C1090 C1091 1.415 . S
C1091 H1061 0.950 . S
C1091 C1086 1.363 . S
C1091 C1090 1.415 . S
H1092 C1089 0.999 . S
H1093 C1074 0.913 . S
H1094 C1112 0.951 . S
H1095 C1114 0.951 . S
H1096 C1116 0.950 1_565 S
H1097 C1117 0.968 . S
H1098 C1119 0.950 . S
H1099 C1122 0.950 . S
H1100 C1123 0.950 . S
H1101 C1125 0.950 . S
H1102 C1126 0.950 . S
H1103 C1127 0.951 . S
H1104 C1129 0.951 . S
H1105 C1131 0.950 . S
H1106 C1132 0.950 . S
H1107 C1134 0.950 . S
H1108 C1137 0.950 . S
H1109 C1138 0.950 . S
H1110 C1140 0.950 1_565 S
H1111 C1141 0.950 . S
C1112 H1094 0.951 . S
C1112 C1113 1.366 . S
C1112 C1114 1.388 . S
C1113 C1112 1.366 . S
C1113 C1117 1.373 1_545 S
C1114 H1095 0.951 . S
C1114 C1112 1.388 . S
C1114 C1115 1.366 . S
C1115 C1114 1.366 . S
C1115 C1116 1.414 . S
C1115 C1118 1.499 . S
C1116 H1096 0.950 1_545 S
C1116 C1115 1.414 . S
C1116 C1117 1.367 1_545 S
C1117 H1097 0.968 . S
C1117 C1113 1.373 1_565 S
C1117 C1116 1.367 1_565 S
C1118 C1115 1.499 . S
C1118 C1119 1.373 . S
C1118 C1120 1.389 . S
C1119 H1098 0.950 . S
C1119 C1118 1.373 . S
C1119 C1135 1.377 . S
C1120 C1118 1.389 . S
C1120 C1121 1.524 . S
C1120 C1134 1.377 . S
C1121 C1120 1.524 . S
C1121 C1122 1.397 . S
C1121 C1126 1.363 . S
C1122 H1099 0.950 . S
C1122 C1121 1.397 . S
C1122 C1123 1.334 . S
C1123 H1100 0.950 . S
C1123 C1122 1.334 . S
C1123 C1124 1.287 . S
C1124 C1123 1.287 . S
C1124 C1125 1.524 . S
C1124 H1143 0.913 . S
C1125 H1101 0.950 . S
C1125 C1124 1.524 . S
C1125 C1126 1.415 . S
C1126 H1102 0.950 . S
C1126 C1121 1.363 . S
C1126 C1125 1.415 . S
C1127 H1103 0.951 . S
C1127 C1128 1.366 . S
C1127 C1129 1.388 . S
C1128 C1127 1.366 . S
C1128 C1132 1.385 . S
C1129 H1104 0.951 . S
C1129 C1127 1.388 . S
C1129 C1130 1.366 . S
C1130 C1129 1.366 . S
C1130 C1131 1.414 . S
C1130 C1133 1.499 . S
C1131 H1105 0.950 . S
C1131 C1130 1.414 . S
C1131 C1132 1.374 . S
C1132 H1106 0.950 . S
C1132 C1128 1.385 . S
C1132 C1131 1.374 . S
C1133 C1130 1.499 . S
C1133 C1134 1.373 . S
C1133 C1135 1.389 . S
C1134 H1107 0.950 . S
C1134 C1120 1.377 . S
C1134 C1133 1.373 . S
C1135 C1119 1.377 . S
C1135 C1133 1.389 . S
C1135 C1136 1.524 . S
C1136 C1135 1.524 . S
C1136 C1137 1.397 . S
C1136 C1141 1.363 . S
C1137 H1108 0.950 . S
C1137 C1136 1.397 . S
C1137 C1138 1.334 . S
C1138 H1109 0.950 . S
C1138 C1137 1.334 . S
C1138 C1139 1.287 . S
C1139 C1138 1.287 . S
C1139 C1140 1.524 . S
C1139 H1142 0.999 . S
C1140 H1110 0.950 1_545 S
C1140 C1139 1.524 . S
C1140 C1141 1.415 . S
C1141 H1111 0.950 . S
C1141 C1136 1.363 . S
C1141 C1140 1.415 . S
H1142 C1139 0.999 . S
H1143 C1124 0.913 . S
H1144 C1162 0.951 . S
H1145 C1164 0.951 . S
H1146 C1166 0.950 . S
H1147 C1167 0.950 . S
H1148 C1169 0.950 . S
H1149 C1172 0.950 . S
H1150 C1173 0.950 . S
H1151 C1175 0.950 . S
H1152 C1176 0.950 . S
H1153 C1177 0.951 . S
H1154 C1179 0.951 . S
H1155 C1181 0.950 . S
H1156 C1182 0.950 . S
H1157 C1184 0.950 . S
H1158 C1187 0.950 . S
H1159 C1188 0.950 . S
H1160 C1190 0.950 . S
H1161 C1191 0.950 . S
C1162 H1144 0.951 . S
C1162 C1163 1.396 . S
C1162 C1164 1.388 . S
C1163 C1162 1.396 . S
C1163 C1167 1.354 1_656 S
C1164 H1145 0.951 . S
C1164 C1162 1.388 . S
C1164 C1165 1.373 . S
C1165 C1164 1.373 . S
C1165 C1166 1.407 1_656 S
C1165 C1168 1.498 1_556 S
C1166 H1146 0.950 . S
C1166 C1165 1.407 1_454 S
C1166 C1167 1.374 . S
C1167 H1147 0.950 . S
C1167 C1163 1.354 1_454 S
C1167 C1166 1.374 . S
C1168 C1165 1.498 1_554 S
C1168 C1169 1.379 1_655 S
C1168 C1170 1.383 1_554 S
C1169 H1148 0.950 . S
C1169 C1168 1.379 1_455 S
C1169 C1185 1.377 . S
C1170 C1168 1.383 1_556 S
C1170 C1171 1.524 . S
C1170 C1184 1.377 . S
C1171 C1170 1.524 . S
C1171 C1172 1.397 1_556 S
C1171 C1176 1.363 . S
C1172 H1149 0.950 . S
C1172 C1171 1.397 1_554 S
C1172 C1173 1.334 . S
C1173 H1150 0.950 . S
C1173 C1172 1.334 . S
C1173 C1174 1.287 1_554 S
C1174 C1173 1.287 1_556 S
C1174 C1175 1.524 . S
C1174 H1193 0.913 . S
C1175 H1151 0.950 . S
C1175 C1174 1.524 . S
C1175 C1176 1.415 . S
C1176 H1152 0.950 . S
C1176 C1171 1.363 . S
C1176 C1175 1.415 . S
C1177 H1153 0.951 . S
C1177 C1178 1.336 1_554 S
C1177 C1179 1.388 . S
C1178 C1177 1.336 1_556 S
C1178 C1182 1.415 1_455 S
C1179 H1154 0.951 . S
C1179 C1177 1.388 . S
C1179 C1180 1.366 1_554 S
C1180 C1179 1.366 1_556 S
C1180 C1181 1.414 1_455 S
C1180 C1183 1.499 . S
C1181 H1155 0.950 . S
C1181 C1180 1.414 1_655 S
C1181 C1182 1.374 . S
C1182 H1156 0.950 . S
C1182 C1178 1.415 1_655 S
C1182 C1181 1.374 . S
C1183 C1180 1.499 . S
C1183 C1184 1.373 1_455 S
C1183 C1185 1.389 1_556 S
C1184 H1157 0.950 . S
C1184 C1170 1.377 . S
C1184 C1183 1.373 1_655 S
C1185 C1169 1.377 . S
C1185 C1183 1.389 1_554 S
C1185 C1186 1.524 . S
C1186 C1185 1.524 . S
C1186 C1187 1.397 1_554 S
C1186 C1191 1.363 . S
C1187 H1158 0.950 . S
C1187 C1186 1.397 1_556 S
C1187 C1188 1.334 . S
C1188 H1159 0.950 . S
C1188 C1187 1.334 . S
C1188 C1189 1.287 1_556 S
C1189 C1188 1.287 1_554 S
C1189 C1190 1.524 . S
C1189 H1192 0.999 . S
C1190 H1160 0.950 . S
C1190 C1189 1.524 . S
C1190 C1191 1.415 . S
C1191 H1161 0.950 . S
C1191 C1186 1.363 . S
C1191 C1190 1.415 . S
H1192 C1189 0.999 . S
H1193 C1174 0.913 . S
H1194 C1212 0.951 . S
H1195 C1214 0.951 . S
H1196 C1216 0.950 . S
H1197 C1217 0.950 . S
H1198 C1219 0.950 . S
H1199 C1222 0.950 . S
H1200 C1223 0.950 . S
H1201 C1225 0.950 . S
H1202 C1226 0.950 . S
H1203 C1227 0.951 1_545 S
H1204 C1229 0.951 . S
H1205 C1231 0.950 . S
H1206 C1232 0.950 1_545 S
H1207 C1234 0.950 . S
H1208 C1237 0.950 . S
H1209 C1238 0.950 . S
H1210 C1240 0.950 . S
H1211 C1241 0.950 . S
C1212 H1194 0.951 . S
C1212 C1213 1.366 . S
C1212 C1214 1.388 . S
C1213 C1212 1.366 . S
C1213 C1217 1.385 . S
C1214 H1195 0.951 . S
C1214 C1212 1.388 . S
C1214 C1215 1.366 . S
C1215 C1214 1.366 . S
C1215 C1216 1.414 . S
C1215 C1218 1.499 . S
C1216 H1196 0.950 . S
C1216 C1215 1.414 . S
C1216 C1217 1.374 . S
C1217 H1197 0.950 . S
C1217 C1213 1.385 . S
C1217 C1216 1.374 . S
C1218 C1215 1.499 . S
C1218 C1219 1.373 . S
C1218 C1220 1.389 . S
C1219 H1198 0.950 . S
C1219 C1218 1.373 . S
C1219 C1235 1.377 . S
C1220 C1218 1.389 . S
C1220 C1221 1.524 . S
C1220 C1234 1.377 . S
C1221 C1220 1.524 . S
C1221 C1222 1.397 . S
C1221 C1226 1.363 . S
C1222 H1199 0.950 . S
C1222 C1221 1.397 . S
C1222 C1223 1.334 . S
C1223 H1200 0.950 . S
C1223 C1222 1.334 . S
C1223 C1224 1.287 . S
C1224 C1223 1.287 . S
C1224 C1225 1.524 . S
C1224 H1243 0.913 . S
C1225 H1201 0.950 . S
C1225 C1224 1.524 . S
C1225 C1226 1.415 . S
C1226 H1202 0.950 . S
C1226 C1221 1.363 . S
C1226 C1225 1.415 . S
C1227 H1203 0.951 1_565 S
C1227 C1228 1.366 1_565 S
C1227 C1229 1.388 . S
C1228 C1227 1.366 1_545 S
C1228 C1232 1.385 1_545 S
C1229 H1204 0.951 . S
C1229 C1227 1.388 . S
C1229 C1230 1.366 . S
C1230 C1229 1.366 . S
C1230 C1231 1.414 . S
C1230 C1233 1.499 . S
C1231 H1205 0.950 . S
C1231 C1230 1.414 . S
C1231 C1232 1.374 . S
C1232 H1206 0.950 1_565 S
C1232 C1228 1.385 1_565 S
C1232 C1231 1.374 . S
C1233 C1230 1.499 . S
C1233 C1234 1.373 . S
C1233 C1235 1.389 . S
C1234 H1207 0.950 . S
C1234 C1220 1.377 . S
C1234 C1233 1.373 . S
C1235 C1219 1.377 . S
C1235 C1233 1.389 . S
C1235 C1236 1.524 . S
C1236 C1235 1.524 . S
C1236 C1237 1.397 . S
C1236 C1241 1.363 . S
C1237 H1208 0.950 . S
C1237 C1236 1.397 . S
C1237 C1238 1.334 . S
C1238 H1209 0.950 . S
C1238 C1237 1.334 . S
C1238 C1239 1.287 . S
C1239 C1238 1.287 . S
C1239 C1240 1.524 . S
C1239 H1242 0.999 . S
C1240 H1210 0.950 . S
C1240 C1239 1.524 . S
C1240 C1241 1.415 . S
C1241 H1211 0.950 . S
C1241 C1236 1.363 . S
C1241 C1240 1.415 . S
H1242 C1239 0.999 . S
H1243 C1224 0.913 . S
H1244 C1262 0.951 1_565 S
H1245 C1264 0.951 . S
H1246 C1266 0.950 . S
H1247 C1267 0.950 1_565 S
H1248 C1269 0.950 . S
H1249 C1272 0.950 . S
H1250 C1273 0.950 . S
H1251 C1275 0.950 . S
H1252 C1276 0.950 . S
H1253 C1277 0.951 . S
H1254 C1279 0.951 . S
H1255 C1281 0.950 . S
H1256 C1282 0.950 . S
H1257 C1284 0.950 . S
H1258 C1287 0.950 . S
H1259 C1288 0.950 . S
H1260 C1290 0.950 . S
H1261 C1291 0.950 . S
C1262 H1244 0.951 1_545 S
C1262 C1263 1.366 1_545 S
C1262 C1264 1.388 . S
C1263 C1262 1.366 1_565 S
C1263 C1267 1.385 1_565 S
C1264 H1245 0.951 . S
C1264 C1262 1.388 . S
C1264 C1265 1.366 . S
C1265 C1264 1.366 . S
C1265 C1266 1.414 . S
C1265 C1268 1.499 . S
C1266 H1246 0.950 . S
C1266 C1265 1.414 . S
C1266 C1267 1.374 . S
C1267 H1247 0.950 1_545 S
C1267 C1263 1.385 1_545 S
C1267 C1266 1.374 . S
C1268 C1265 1.499 . S
C1268 C1269 1.373 . S
C1268 C1270 1.389 . S
C1269 H1248 0.950 . S
C1269 C1268 1.373 . S
C1269 C1285 1.377 . S
C1270 C1268 1.389 . S
C1270 C1271 1.524 . S
C1270 C1284 1.377 . S
C1271 C1270 1.524 . S
C1271 C1272 1.397 . S
C1271 C1276 1.363 . S
C1272 H1249 0.950 . S
C1272 C1271 1.397 . S
C1272 C1273 1.334 . S
C1273 H1250 0.950 . S
C1273 C1272 1.334 . S
C1273 C1274 1.287 . S
C1274 C1273 1.287 . S
C1274 C1275 1.524 . S
C1274 H1293 0.913 . S
C1275 H1251 0.950 . S
C1275 C1274 1.524 . S
C1275 C1276 1.415 . S
C1276 H1252 0.950 . S
C1276 C1271 1.363 . S
C1276 C1275 1.415 . S
C1277 H1253 0.951 . S
C1277 C1278 1.366 . S
C1277 C1279 1.388 . S
C1278 C1277 1.366 . S
C1278 C1282 1.385 . S
C1279 H1254 0.951 . S
C1279 C1277 1.388 . S
C1279 C1280 1.366 . S
C1280 C1279 1.366 . S
C1280 C1281 1.414 . S
C1280 C1283 1.499 . S
C1281 H1255 0.950 . S
C1281 C1280 1.414 . S
C1281 C1282 1.374 . S
C1282 H1256 0.950 . S
C1282 C1278 1.385 . S
C1282 C1281 1.374 . S
C1283 C1280 1.499 . S
C1283 C1284 1.373 . S
C1283 C1285 1.389 . S
C1284 H1257 0.950 . S
C1284 C1270 1.377 . S
C1284 C1283 1.373 . S
C1285 C1269 1.377 . S
C1285 C1283 1.389 . S
C1285 C1286 1.524 . S
C1286 C1285 1.524 . S
C1286 C1287 1.397 . S
C1286 C1291 1.363 . S
C1287 H1258 0.950 . S
C1287 C1286 1.397 . S
C1287 C1288 1.334 . S
C1288 H1259 0.950 . S
C1288 C1287 1.334 . S
C1288 C1289 1.287 . S
C1289 C1288 1.287 . S
C1289 C1290 1.524 . S
C1289 H1292 0.999 . S
C1290 H1260 0.950 . S
C1290 C1289 1.524 . S
C1290 C1291 1.415 . S
C1291 H1261 0.950 . S
C1291 C1286 1.363 . S
C1291 C1290 1.415 . S
H1292 C1289 0.999 . S
H1293 C1274 0.913 . S
H1294 C1312 0.951 . S
H1295 C1314 0.951 . S
H1296 C1316 0.950 . S
H1297 C1317 0.950 . S
H1298 C1319 0.950 . S
H1299 C1322 0.950 1_455 S
H1300 C1323 0.977 . S
H1301 C1325 0.950 . S
H1302 C1326 0.950 . S
H1303 C1327 0.951 . S
H1304 C1329 0.951 . S
H1305 C1331 0.950 . S
H1306 C1332 0.950 . S
H1307 C1334 0.950 . S
H1308 C1337 0.950 1_655 S
H1309 C1338 0.950 . S
H1310 C1340 0.950 . S
H1311 C1341 0.950 . S
C1312 H1294 0.951 . S
C1312 C1313 1.366 1_655 S
C1312 C1314 1.388 . S
C1313 C1312 1.366 1_455 S
C1313 C1317 1.385 . S
C1314 H1295 0.951 . S
C1314 C1312 1.388 . S
C1314 C1315 1.366 1_655 S
C1315 C1314 1.366 1_455 S
C1315 C1316 1.414 . S
C1315 C1318 1.499 . S
C1316 H1296 0.950 . S
C1316 C1315 1.414 . S
C1316 C1317 1.374 . S
C1317 H1297 0.950 . S
C1317 C1313 1.385 . S
C1317 C1316 1.374 . S
C1318 C1315 1.499 . S
C1318 C1319 1.373 . S
C1318 C1320 1.389 1_455 S
C1319 H1298 0.950 . S
C1319 C1318 1.373 . S
C1319 C1335 1.377 1_565 S
C1320 C1318 1.389 1_655 S
C1320 C1321 1.524 . S
C1320 C1334 1.377 1_565 S
C1321 C1320 1.524 . S
C1321 C1322 1.397 . S
C1321 C1326 1.363 . S
C1322 H1299 0.950 1_655 S
C1322 C1321 1.397 . S
C1322 C1323 1.334 . S
C1323 H1300 0.977 . S
C1323 C1322 1.334 . S
C1323 C1324 1.287 . S
C1324 C1323 1.287 . S
C1324 C1325 1.524 . S
C1324 H1343 0.913 . S
C1325 H1301 0.950 . S
C1325 C1324 1.524 . S
C1325 C1326 1.415 . S
C1326 H1302 0.950 . S
C1326 C1321 1.363 . S
C1326 C1325 1.415 . S
C1327 H1303 0.951 . S
C1327 C1328 1.366 1_455 S
C1327 C1329 1.388 . S
C1328 C1327 1.366 1_655 S
C1328 C1332 1.385 . S
C1329 H1304 0.951 . S
C1329 C1327 1.388 . S
C1329 C1330 1.366 1_455 S
C1330 C1329 1.366 1_655 S
C1330 C1331 1.414 . S
C1330 C1333 1.499 . S
C1331 H1305 0.950 . S
C1331 C1330 1.414 . S
C1331 C1332 1.374 . S
C1332 H1306 0.950 . S
C1332 C1328 1.385 . S
C1332 C1331 1.374 . S
C1333 C1330 1.499 . S
C1333 C1334 1.373 . S
C1333 C1335 1.389 1_655 S
C1334 H1307 0.950 . S
C1334 C1320 1.377 1_545 S
C1334 C1333 1.373 . S
C1335 C1319 1.377 1_545 S
C1335 C1333 1.389 1_455 S
C1335 C1336 1.524 . S
C1336 C1335 1.524 . S
C1336 C1337 1.397 . S
C1336 C1341 1.363 . S
C1337 H1308 0.950 1_455 S
C1337 C1336 1.397 . S
C1337 C1338 1.334 . S
C1338 H1309 0.950 . S
C1338 C1337 1.334 . S
C1338 C1339 1.287 . S
C1339 C1338 1.287 . S
C1339 C1340 1.524 . S
C1339 H1342 0.999 . S
C1340 H1310 0.950 . S
C1340 C1339 1.524 . S
C1340 C1341 1.415 . S
C1341 H1311 0.950 . S
C1341 C1336 1.363 . S
C1341 C1340 1.415 . S
H1342 C1339 0.999 . S
H1343 C1324 0.913 . S
H1344 C1362 0.951 1_565 S
H1345 C1364 0.951 . S
H1346 C1366 0.950 . S
H1347 C1367 0.950 1_565 S
H1348 C1369 0.950 . S
H1349 C1372 0.950 . S
H1350 C1373 0.950 . S
H1351 C1375 0.950 . S
H1352 C1376 0.950 . S
H1353 C1377 0.951 . S
H1354 C1379 0.951 . S
H1355 C1381 0.950 . S
H1356 C1382 0.950 . S
H1357 C1384 0.950 . S
H1358 C1387 0.950 . S
H1359 C1388 0.950 . S
H1360 C1390 0.950 . S
H1361 C1391 0.950 . S
C1362 H1344 0.951 1_545 S
C1362 C1363 1.366 1_545 S
C1362 C1364 1.388 . S
C1363 C1362 1.366 1_565 S
C1363 C1367 1.385 1_565 S
C1364 H1345 0.951 . S
C1364 C1362 1.388 . S
C1364 C1365 1.366 . S
C1365 C1364 1.366 . S
C1365 C1366 1.414 . S
C1365 C1368 1.499 . S
C1366 H1346 0.950 . S
C1366 C1365 1.414 . S
C1366 C1367 1.374 . S
C1367 H1347 0.950 1_545 S
C1367 C1363 1.385 1_545 S
C1367 C1366 1.374 . S
C1368 C1365 1.499 . S
C1368 C1369 1.373 . S
C1368 C1370 1.389 . S
C1369 H1348 0.950 . S
C1369 C1368 1.373 . S
C1369 C1385 1.377 . S
C1370 C1368 1.389 . S
C1370 C1371 1.524 . S
C1370 C1384 1.377 . S
C1371 C1370 1.524 . S
C1371 C1372 1.397 . S
C1371 C1376 1.363 . S
C1372 H1349 0.950 . S
C1372 C1371 1.397 . S
C1372 C1373 1.334 . S
C1373 H1350 0.950 . S
C1373 C1372 1.334 . S
C1373 C1374 1.287 . S
C1374 C1373 1.287 . S
C1374 C1375 1.524 . S
C1374 H1393 0.913 . S
C1375 H1351 0.950 . S
C1375 C1374 1.524 . S
C1375 C1376 1.415 . S
C1376 H1352 0.950 . S
C1376 C1371 1.363 . S
C1376 C1375 1.415 . S
C1377 H1353 0.951 . S
C1377 C1378 1.366 . S
C1377 C1379 1.388 . S
C1378 C1377 1.366 . S
C1378 C1382 1.385 . S
C1379 H1354 0.951 . S
C1379 C1377 1.388 . S
C1379 C1380 1.366 . S
C1380 C1379 1.366 . S
C1380 C1381 1.414 . S
C1380 C1383 1.499 . S
C1381 H1355 0.950 . S
C1381 C1380 1.414 . S
C1381 C1382 1.374 . S
C1382 H1356 0.950 . S
C1382 C1378 1.385 . S
C1382 C1381 1.374 . S
C1383 C1380 1.499 . S
C1383 C1384 1.373 . S
C1383 C1385 1.389 . S
C1384 H1357 0.950 . S
C1384 C1370 1.377 . S
C1384 C1383 1.373 . S
C1385 C1369 1.377 . S
C1385 C1383 1.389 . S
C1385 C1386 1.524 . S
C1386 C1385 1.524 . S
C1386 C1387 1.397 . S
C1386 C1391 1.363 . S
C1387 H1358 0.950 . S
C1387 C1386 1.397 . S
C1387 C1388 1.334 . S
C1388 H1359 0.950 . S
C1388 C1387 1.334 . S
C1388 C1389 1.287 . S
C1389 C1388 1.287 . S
C1389 C1390 1.524 . S
C1389 H1392 0.999 . S
C1390 H1360 0.950 . S
C1390 C1389 1.524 . S
C1390 C1391 1.415 . S
C1391 H1361 0.950 . S
C1391 C1386 1.363 . S
C1391 C1390 1.415 . S
H1392 C1389 0.999 . S
H1393 C1374 0.913 . S
H1394 C1412 0.951 . S
H1395 C1414 0.951 . S
H1396 C1416 0.950 . S
H1397 C1417 0.950 . S
H1398 C1419 0.950 . S
H1399 C1422 0.950 . S
H1400 C1423 0.950 . S
H1401 C1425 0.950 . S
H1402 C1426 0.950 . S
H1403 C1427 0.951 1_545 S
H1404 C1429 0.951 . S
H1405 C1431 0.950 . S
H1406 C1432 0.950 1_545 S
H1407 C1434 0.950 . S
H1408 C1437 0.950 . S
H1409 C1438 0.950 . S
H1410 C1440 0.950 . S
H1411 C1441 0.950 . S
C1412 H1394 0.951 . S
C1412 C1413 1.366 . S
C1412 C1414 1.388 . S
C1413 C1412 1.366 . S
C1413 C1417 1.385 . S
C1414 H1395 0.951 . S
C1414 C1412 1.388 . S
C1414 C1415 1.366 . S
C1415 C1414 1.366 . S
C1415 C1416 1.414 . S
C1415 C1418 1.499 . S
C1416 H1396 0.950 . S
C1416 C1415 1.414 . S
C1416 C1417 1.374 . S
C1417 H1397 0.950 . S
C1417 C1413 1.385 . S
C1417 C1416 1.374 . S
C1418 C1415 1.499 . S
C1418 C1419 1.373 . S
C1418 C1420 1.389 . S
C1419 H1398 0.950 . S
C1419 C1418 1.373 . S
C1419 C1435 1.377 . S
C1420 C1418 1.389 . S
C1420 C1421 1.524 . S
C1420 C1434 1.377 . S
C1421 C1420 1.524 . S
C1421 C1422 1.397 . S
C1421 C1426 1.363 . S
C1422 H1399 0.950 . S
C1422 C1421 1.397 . S
C1422 C1423 1.334 . S
C1423 H1400 0.950 . S
C1423 C1422 1.334 . S
C1423 C1424 1.287 . S
C1424 C1423 1.287 . S
C1424 C1425 1.524 . S
C1424 H1443 0.913 . S
C1425 H1401 0.950 . S
C1425 C1424 1.524 . S
C1425 C1426 1.415 . S
C1426 H1402 0.950 . S
C1426 C1421 1.363 . S
C1426 C1425 1.415 . S
C1427 H1403 0.951 1_565 S
C1427 C1428 1.366 1_565 S
C1427 C1429 1.388 . S
C1428 C1427 1.366 1_545 S
C1428 C1432 1.385 1_545 S
C1429 H1404 0.951 . S
C1429 C1427 1.388 . S
C1429 C1430 1.366 . S
C1430 C1429 1.366 . S
C1430 C1431 1.414 . S
C1430 C1433 1.499 . S
C1431 H1405 0.950 . S
C1431 C1430 1.414 . S
C1431 C1432 1.374 . S
C1432 H1406 0.950 1_565 S
C1432 C1428 1.385 1_565 S
C1432 C1431 1.374 . S
C1433 C1430 1.499 . S
C1433 C1434 1.373 . S
C1433 C1435 1.389 . S
C1434 H1407 0.950 . S
C1434 C1420 1.377 . S
C1434 C1433 1.373 . S
C1435 C1419 1.377 . S
C1435 C1433 1.389 . S
C1435 C1436 1.524 . S
C1436 C1435 1.524 . S
C1436 C1437 1.397 . S
C1436 C1441 1.363 . S
C1437 H1408 0.950 . S
C1437 C1436 1.397 . S
C1437 C1438 1.334 . S
C1438 H1409 0.950 . S
C1438 C1437 1.334 . S
C1438 C1439 1.287 . S
C1439 C1438 1.287 . S
C1439 C1440 1.524 . S
C1439 H1442 0.999 . S
C1440 H1410 0.950 . S
C1440 C1439 1.524 . S
C1440 C1441 1.415 . S
C1441 H1411 0.950 . S
C1441 C1436 1.363 . S
C1441 C1440 1.415 . S
H1442 C1439 0.999 . S
H1443 C1424 0.913 . S
H1444 C1462 0.951 . S
H1445 C1464 0.951 . S
H1446 C1466 0.950 . S
H1447 C1467 0.950 . S
H1448 C1469 0.950 . S
H1449 C1472 0.950 . S
H1450 C1473 0.950 . S
H1451 C1475 0.950 . S
H1452 C1476 0.950 . S
H1453 C1477 0.951 . S
H1454 C1479 0.951 . S
H1455 C1481 0.950 . S
H1456 C1482 0.950 . S
H1457 C1484 0.950 . S
H1458 C1487 0.950 . S
H1459 C1488 0.950 . S
H1460 C1490 0.950 . S
H1461 C1491 0.950 . S
C1462 H1444 0.951 . S
C1462 C1463 1.366 . S
C1462 C1464 1.388 . S
C1463 C1462 1.366 . S
C1463 C1467 1.385 . S
C1464 H1445 0.951 . S
C1464 C1462 1.388 . S
C1464 C1465 1.366 . S
C1465 C1464 1.366 . S
C1465 C1466 1.414 . S
C1465 C1468 1.499 . S
C1466 H1446 0.950 . S
C1466 C1465 1.414 . S
C1466 C1467 1.374 . S
C1467 H1447 0.950 . S
C1467 C1463 1.385 . S
C1467 C1466 1.374 . S
C1468 C1465 1.499 . S
C1468 C1469 1.373 . S
C1468 C1470 1.389 . S
C1469 H1448 0.950 . S
C1469 C1468 1.373 . S
C1469 C1485 1.377 . S
C1470 C1468 1.389 . S
C1470 C1471 1.524 . S
C1470 C1484 1.377 . S
C1471 C1470 1.524 . S
C1471 C1472 1.397 . S
C1471 C1476 1.363 . S
C1472 H1449 0.950 . S
C1472 C1471 1.397 . S
C1472 C1473 1.334 . S
C1473 H1450 0.950 . S
C1473 C1472 1.334 . S
C1473 C1474 1.287 . S
C1474 C1473 1.287 . S
C1474 C1475 1.524 . S
C1474 H1493 0.913 . S
C1475 H1451 0.950 . S
C1475 C1474 1.524 . S
C1475 C1476 1.415 . S
C1476 H1452 0.950 . S
C1476 C1471 1.363 . S
C1476 C1475 1.415 . S
C1477 H1453 0.951 . S
C1477 C1478 1.366 . S
C1477 C1479 1.388 . S
C1478 C1477 1.366 . S
C1478 C1482 1.385 . S
C1479 H1454 0.951 . S
C1479 C1477 1.388 . S
C1479 C1480 1.366 . S
C1480 C1479 1.366 . S
C1480 C1481 1.414 . S
C1480 C1483 1.499 . S
C1481 H1455 0.950 . S
C1481 C1480 1.414 . S
C1481 C1482 1.374 . S
C1482 H1456 0.950 . S
C1482 C1478 1.385 . S
C1482 C1481 1.374 . S
C1483 C1480 1.499 . S
C1483 C1484 1.373 . S
C1483 C1485 1.389 . S
C1484 H1457 0.950 . S
C1484 C1470 1.377 . S
C1484 C1483 1.373 . S
C1485 C1469 1.377 . S
C1485 C1483 1.389 . S
C1485 C1486 1.524 . S
C1486 C1485 1.524 . S
C1486 C1487 1.397 . S
C1486 C1491 1.363 . S
C1487 H1458 0.950 . S
C1487 C1486 1.397 . S
C1487 C1488 1.334 . S
C1488 H1459 0.950 . S
C1488 C1487 1.334 . S
C1488 C1489 1.287 . S
C1489 C1488 1.287 . S
C1489 C1490 1.524 . S
C1489 H1492 0.999 . S
C1490 H1460 0.950 . S
C1490 C1489 1.524 . S
C1490 C1491 1.415 . S
C1491 H1461 0.950 . S
C1491 C1486 1.363 . S
C1491 C1490 1.415 . S
H1492 C1489 0.999 . S
H1493 C1474 0.913 . S
H1494 C1512 0.951 . S
H1495 C1514 0.951 . S
H1496 C1516 0.950 . S
H1497 C1517 0.950 . S
H1498 C1519 0.950 . S
H1499 C1522 0.950 . S
H1500 C1523 0.950 . S
H1501 C1525 0.950 . S
H1502 C1526 0.987 . S
H1503 C1527 0.951 . S
H1504 C1529 0.951 . S
H1505 C1531 0.950 . S
H1506 C1532 0.950 . S
H1507 C1534 0.950 . S
H1508 C1537 0.950 . S
H1509 C1538 0.950 . S
H1510 C1540 0.950 . S
H1511 C1541 0.950 . S
C1512 H1494 0.951 . S
C1512 C1513 1.381 . S
C1512 C1514 1.388 . S
C1513 C1512 1.381 . S
C1513 C1517 1.370 1_556 S
C1514 H1495 0.951 . S
C1514 C1512 1.388 . S
C1514 C1515 1.359 1_556 S
C1515 C1514 1.359 1_554 S
C1515 C1516 1.420 . S
C1515 C1518 1.498 . S
C1516 H1496 0.950 . S
C1516 C1515 1.420 . S
C1516 C1517 1.374 . S
C1517 H1497 0.950 . S
C1517 C1513 1.370 1_554 S
C1517 C1516 1.374 . S
C1518 C1515 1.498 . S
C1518 C1519 1.359 1_554 S
C1518 C1520 1.402 . S
C1519 H1498 0.950 . S
C1519 C1518 1.359 1_556 S
C1519 C1535 1.377 1_565 S
C1520 C1518 1.402 . S
C1520 C1521 1.524 . S
C1520 C1534 1.377 1_565 S
C1521 C1520 1.524 . S
C1521 C1522 1.397 . S
C1521 C1526 1.363 . S
C1522 H1499 0.950 . S
C1522 C1521 1.397 . S
C1522 C1523 1.334 . S
C1523 H1500 0.950 . S
C1523 C1522 1.334 . S
C1523 C1524 1.287 . S
C1524 C1523 1.287 . S
C1524 C1525 1.524 . S
C1524 H1543 0.913 . S
C1525 H1501 0.950 . S
C1525 C1524 1.524 . S
C1525 C1526 1.415 . S
C1526 H1502 0.987 . S
C1526 C1521 1.363 . S
C1526 C1525 1.415 . S
C1527 H1503 0.951 . S
C1527 C1528 1.353 1_554 S
C1527 C1529 1.388 . S
C1528 C1527 1.353 1_556 S
C1528 C1532 1.399 . S
C1529 H1504 0.951 . S
C1529 C1527 1.388 . S
C1529 C1530 1.366 1_554 S
C1530 C1529 1.366 1_556 S
C1530 C1531 1.414 . S
C1530 C1533 1.499 . S
C1531 H1505 0.950 . S
C1531 C1530 1.414 . S
C1531 C1532 1.374 . S
C1532 H1506 0.950 . S
C1532 C1528 1.399 . S
C1532 C1531 1.374 . S
C1533 C1530 1.499 . S
C1533 C1534 1.373 1_556 S
C1533 C1535 1.389 . S
C1534 H1507 0.950 . S
C1534 C1520 1.377 1_545 S
C1534 C1533 1.373 1_554 S
C1535 C1519 1.377 1_545 S
C1535 C1533 1.389 . S
C1535 C1536 1.524 . S
C1536 C1535 1.524 . S
C1536 C1537 1.397 . S
C1536 C1541 1.363 . S
C1537 H1508 0.950 . S
C1537 C1536 1.397 . S
C1537 C1538 1.334 . S
C1538 H1509 0.950 . S
C1538 C1537 1.334 . S
C1538 C1539 1.287 . S
C1539 C1538 1.287 . S
C1539 C1540 1.524 . S
C1539 H1542 0.999 . S
C1540 H1510 0.950 . S
C1540 C1539 1.524 . S
C1540 C1541 1.415 . S
C1541 H1511 0.950 . S
C1541 C1536 1.363 . S
C1541 C1540 1.415 . S
H1542 C1539 0.999 . S
H1543 C1524 0.913 . S
H1544 C1562 0.951 . S
H1545 C1564 0.951 . S
H1546 C1566 0.950 . S
H1547 C1567 0.950 . S
H1548 C1569 0.950 . S
H1549 C1572 0.950 . S
H1550 C1573 0.950 . S
H1551 C1575 0.950 . S
H1552 C1576 0.950 . S
H1553 C1577 0.951 . S
H1554 C1579 0.951 . S
H1555 C1581 0.950 . S
H1556 C1582 0.950 . S
H1557 C1584 0.950 . S
H1558 C1587 0.950 . S
H1559 C1588 0.950 . S
H1560 C1590 0.950 . S
H1561 C1591 0.950 . S
C1562 H1544 0.951 . S
C1562 C1563 1.366 . S
C1562 C1564 1.388 . S
C1563 C1562 1.366 . S
C1563 C1567 1.385 1_554 S
C1564 H1545 0.951 . S
C1564 C1562 1.388 . S
C1564 C1565 1.366 . S
C1565 C1564 1.366 . S
C1565 C1566 1.414 1_554 S
C1565 C1568 1.499 . S
C1566 H1546 0.950 . S
C1566 C1565 1.414 1_556 S
C1566 C1567 1.374 . S
C1567 H1547 0.950 . S
C1567 C1563 1.385 1_556 S
C1567 C1566 1.374 . S
C1568 C1565 1.499 . S
C1568 C1569 1.373 1_554 S
C1568 C1570 1.389 . S
C1569 H1548 0.950 . S
C1569 C1568 1.373 1_556 S
C1569 C1585 1.377 . S
C1570 C1568 1.389 . S
C1570 C1571 1.524 . S
C1570 C1584 1.377 . S
C1571 C1570 1.524 . S
C1571 C1572 1.397 . S
C1571 C1576 1.363 . S
C1572 H1549 0.950 . S
C1572 C1571 1.397 . S
C1572 C1573 1.334 . S
C1573 H1550 0.950 . S
C1573 C1572 1.334 . S
C1573 C1574 1.287 . S
C1574 C1573 1.287 . S
C1574 C1575 1.524 . S
C1574 H1593 0.913 . S
C1575 H1551 0.950 . S
C1575 C1574 1.524 . S
C1575 C1576 1.415 . S
C1576 H1552 0.950 . S
C1576 C1571 1.363 . S
C1576 C1575 1.415 . S
C1577 H1553 0.951 . S
C1577 C1578 1.366 1_556 S
C1577 C1579 1.388 . S
C1578 C1577 1.366 1_554 S
C1578 C1582 1.385 . S
C1579 H1554 0.951 . S
C1579 C1577 1.388 . S
C1579 C1580 1.366 1_556 S
C1580 C1579 1.366 1_554 S
C1580 C1581 1.414 . S
C1580 C1583 1.499 . S
C1581 H1555 0.950 . S
C1581 C1580 1.414 . S
C1581 C1582 1.374 . S
C1582 H1556 0.950 . S
C1582 C1578 1.385 . S
C1582 C1581 1.374 . S
C1583 C1580 1.499 . S
C1583 C1584 1.373 . S
C1583 C1585 1.389 1_554 S
C1584 H1557 0.950 . S
C1584 C1570 1.377 . S
C1584 C1583 1.373 . S
C1585 C1569 1.377 . S
C1585 C1583 1.389 1_556 S
C1585 C1586 1.524 . S
C1586 C1585 1.524 . S
C1586 C1587 1.397 . S
C1586 C1591 1.363 . S
C1587 H1558 0.950 . S
C1587 C1586 1.397 . S
C1587 C1588 1.334 . S
C1588 H1559 0.950 . S
C1588 C1587 1.334 . S
C1588 C1589 1.287 . S
C1589 C1588 1.287 . S
C1589 C1590 1.524 . S
C1589 H1592 0.999 . S
C1590 H1560 0.950 . S
C1590 C1589 1.524 . S
C1590 C1591 1.415 . S
C1591 H1561 0.950 . S
C1591 C1586 1.363 . S
C1591 C1590 1.415 . S
H1592 C1589 0.999 . S
H1593 C1574 0.913 . S
H1594 C1612 0.951 . S
H1595 C1614 0.951 . S
H1596 C1616 0.953 . S
H1597 C1617 0.955 . S
H1598 C1619 0.950 . S
H1599 C1622 0.950 . S
H1600 C1623 0.950 . S
H1601 C1625 0.950 . S
H1602 C1626 0.950 . S
H1603 C1627 0.958 . S
H1604 C1629 0.951 . S
H1605 C1631 0.950 . S
H1606 C1632 0.950 . S
H1607 C1634 0.950 . S
H1608 C1637 0.950 . S
H1609 C1638 0.950 . S
H1610 C1640 0.950 . S
H1611 C1641 0.950 . S
C1612 H1594 0.951 . S
C1612 C1613 1.366 . S
C1612 C1614 1.388 . S
C1613 C1612 1.366 . S
C1613 C1617 1.385 . S
C1614 H1595 0.951 . S
C1614 C1612 1.388 . S
C1614 C1615 1.366 . S
C1615 C1614 1.366 . S
C1615 C1616 1.414 . S
C1615 C1618 1.499 . S
C1616 H1596 0.953 . S
C1616 C1615 1.414 . S
C1616 C1617 1.374 . S
C1617 H1597 0.955 . S
C1617 C1613 1.385 . S
C1617 C1616 1.374 . S
C1618 C1615 1.499 . S
C1618 C1619 1.373 . S
C1618 C1620 1.389 1_554 S
C1619 H1598 0.950 . S
C1619 C1618 1.373 . S
C1619 C1635 1.377 . S
C1620 C1618 1.389 1_556 S
C1620 C1621 1.524 . S
C1620 C1634 1.377 . S
C1621 C1620 1.524 . S
C1621 C1622 1.397 . S
C1621 C1626 1.363 . S
C1622 H1599 0.950 . S
C1622 C1621 1.397 . S
C1622 C1623 1.334 . S
C1623 H1600 0.950 . S
C1623 C1622 1.334 . S
C1623 C1624 1.287 . S
C1624 C1623 1.287 . S
C1624 C1625 1.524 . S
C1624 H1643 0.913 . S
C1625 H1601 0.950 . S
C1625 C1624 1.524 . S
C1625 C1626 1.415 . S
C1626 H1602 0.950 . S
C1626 C1621 1.363 . S
C1626 C1625 1.415 . S
C1627 H1603 0.958 . S
C1627 C1628 1.366 . S
C1627 C1629 1.388 . S
C1628 C1627 1.366 . S
C1628 C1632 1.385 . S
C1629 H1604 0.951 . S
C1629 C1627 1.388 . S
C1629 C1630 1.366 . S
C1630 C1629 1.366 . S
C1630 C1631 1.414 . S
C1630 C1633 1.499 . S
C1631 H1605 0.950 . S
C1631 C1630 1.414 . S
C1631 C1632 1.374 . S
C1632 H1606 0.950 . S
C1632 C1628 1.385 . S
C1632 C1631 1.374 . S
C1633 C1630 1.499 . S
C1633 C1634 1.373 1_554 S
C1633 C1635 1.389 . S
C1634 H1607 0.950 . S
C1634 C1620 1.377 . S
C1634 C1633 1.373 1_556 S
C1635 C1619 1.377 . S
C1635 C1633 1.389 . S
C1635 C1636 1.524 . S
C1636 C1635 1.524 . S
C1636 C1637 1.397 . S
C1636 C1641 1.363 . S
C1637 H1608 0.950 . S
C1637 C1636 1.397 . S
C1637 C1638 1.334 . S
C1638 H1609 0.950 . S
C1638 C1637 1.334 . S
C1638 C1639 1.287 . S
C1639 C1638 1.287 . S
C1639 C1640 1.524 . S
C1639 H1642 0.999 . S
C1640 H1610 0.950 . S
C1640 C1639 1.524 . S
C1640 C1641 1.415 . S
C1641 H1611 0.950 . S
C1641 C1636 1.363 . S
C1641 C1640 1.415 . S
H1642 C1639 0.999 . S
H1643 C1624 0.913 . S
H1644 C1662 0.951 . S
H1645 C1664 0.951 . S
H1646 C1666 0.950 . S
H1647 C1667 0.950 . S
H1648 C1669 0.950 . S
H1649 C1672 0.950 . S
H1650 C1673 0.950 . S
H1651 C1675 0.950 . S
H1652 C1676 0.950 . S
H1653 C1677 0.951 . S
H1654 C1679 0.951 . S
H1655 C1681 0.950 . S
H1656 C1682 0.950 . S
H1657 C1684 0.950 . S
H1658 C1687 0.950 . S
H1659 C1688 0.950 . S
H1660 C1690 0.950 . S
H1661 C1691 0.950 . S
C1662 H1644 0.951 . S
C1662 C1663 1.366 . S
C1662 C1664 1.388 . S
C1663 C1662 1.366 . S
C1663 C1667 1.385 . S
C1664 H1645 0.951 . S
C1664 C1662 1.388 . S
C1664 C1665 1.366 . S
C1665 C1664 1.366 . S
C1665 C1666 1.414 . S
C1665 C1668 1.499 . S
C1666 H1646 0.950 . S
C1666 C1665 1.414 . S
C1666 C1667 1.374 . S
C1667 H1647 0.950 . S
C1667 C1663 1.385 . S
C1667 C1666 1.374 . S
C1668 C1665 1.499 . S
C1668 C1669 1.373 . S
C1668 C1670 1.389 . S
C1669 H1648 0.950 . S
C1669 C1668 1.373 . S
C1669 C1685 1.377 1_455 S
C1670 C1668 1.389 . S
C1670 C1671 1.524 . S
C1670 C1684 1.377 1_455 S
C1671 C1670 1.524 . S
C1671 C1672 1.397 . S
C1671 C1676 1.363 . S
C1672 H1649 0.950 . S
C1672 C1671 1.397 . S
C1672 C1673 1.334 . S
C1673 H1650 0.950 . S
C1673 C1672 1.334 . S
C1673 C1674 1.287 . S
C1674 C1673 1.287 . S
C1674 C1675 1.524 . S
C1674 H1693 0.913 . S
C1675 H1651 0.950 . S
C1675 C1674 1.524 . S
C1675 C1676 1.415 . S
C1676 H1652 0.950 . S
C1676 C1671 1.363 . S
C1676 C1675 1.415 . S
C1677 H1653 0.951 . S
C1677 C1678 1.366 . S
C1677 C1679 1.388 . S
C1678 C1677 1.366 . S
C1678 C1682 1.385 . S
C1679 H1654 0.951 . S
C1679 C1677 1.388 . S
C1679 C1680 1.366 . S
C1680 C1679 1.366 . S
C1680 C1681 1.414 . S
C1680 C1683 1.499 . S
C1681 H1655 0.950 . S
C1681 C1680 1.414 . S
C1681 C1682 1.374 . S
C1682 H1656 0.950 . S
C1682 C1678 1.385 . S
C1682 C1681 1.374 . S
C1683 C1680 1.499 . S
C1683 C1684 1.373 . S
C1683 C1685 1.389 . S
C1684 H1657 0.950 . S
C1684 C1670 1.377 1_655 S
C1684 C1683 1.373 . S
C1685 C1669 1.377 1_655 S
C1685 C1683 1.389 . S
C1685 C1686 1.524 . S
C1686 C1685 1.524 . S
C1686 C1687 1.397 . S
C1686 C1691 1.363 . S
C1687 H1658 0.950 . S
C1687 C1686 1.397 . S
C1687 C1688 1.334 . S
C1688 H1659 0.950 . S
C1688 C1687 1.334 . S
C1688 C1689 1.287 . S
C1689 C1688 1.287 . S
C1689 C1690 1.524 . S
C1689 H1692 0.999 . S
C1690 H1660 0.950 . S
C1690 C1689 1.524 . S
C1690 C1691 1.415 . S
C1691 H1661 0.950 . S
C1691 C1686 1.363 . S
C1691 C1690 1.415 . S
H1692 C1689 0.999 . S
H1693 C1674 0.913 . S
H1694 C1712 0.951 . S
H1695 C1714 0.951 . S
H1696 C1716 0.950 . S
H1697 C1717 0.950 . S
H1698 C1719 0.950 . S
H1699 C1722 0.950 . S
H1700 C1723 0.950 . S
H1701 C1725 0.950 . S
H1702 C1726 0.950 . S
H1703 C1727 0.951 . S
H1704 C1729 0.951 . S
H1705 C1731 0.950 . S
H1706 C1732 0.950 . S
H1707 C1734 0.950 . S
H1708 C1737 0.950 . S
H1709 C1738 0.950 . S
H1710 C1740 0.950 1_545 S
H1711 C1741 0.950 . S
C1712 H1694 0.951 . S
C1712 C1713 1.366 . S
C1712 C1714 1.388 . S
C1713 C1712 1.366 . S
C1713 C1717 1.385 . S
C1714 H1695 0.951 . S
C1714 C1712 1.388 . S
C1714 C1715 1.366 . S
C1715 C1714 1.366 . S
C1715 C1716 1.414 . S
C1715 C1718 1.499 . S
C1716 H1696 0.950 . S
C1716 C1715 1.414 . S
C1716 C1717 1.374 . S
C1717 H1697 0.950 . S
C1717 C1713 1.385 . S
C1717 C1716 1.374 . S
C1718 C1715 1.499 . S
C1718 C1719 1.373 . S
C1718 C1720 1.389 . S
C1719 H1698 0.950 . S
C1719 C1718 1.373 . S
C1719 C1735 1.377 . S
C1720 C1718 1.389 . S
C1720 C1721 1.524 . S
C1720 C1734 1.377 . S
C1721 C1720 1.524 . S
C1721 C1722 1.397 . S
C1721 C1726 1.363 . S
C1722 H1699 0.950 . S
C1722 C1721 1.397 . S
C1722 C1723 1.334 . S
C1723 H1700 0.950 . S
C1723 C1722 1.334 . S
C1723 C1724 1.287 . S
C1724 C1723 1.287 . S
C1724 C1725 1.524 . S
C1724 H1743 0.913 . S
C1725 H1701 0.950 . S
C1725 C1724 1.524 . S
C1725 C1726 1.415 . S
C1726 H1702 0.950 . S
C1726 C1721 1.363 . S
C1726 C1725 1.415 . S
C1727 H1703 0.951 . S
C1727 C1728 1.366 . S
C1727 C1729 1.388 . S
C1728 C1727 1.366 . S
C1728 C1732 1.385 . S
C1729 H1704 0.951 . S
C1729 C1727 1.388 . S
C1729 C1730 1.366 . S
C1730 C1729 1.366 . S
C1730 C1731 1.414 . S
C1730 C1733 1.499 . S
C1731 H1705 0.950 . S
C1731 C1730 1.414 . S
C1731 C1732 1.374 . S
C1732 H1706 0.950 . S
C1732 C1728 1.385 . S
C1732 C1731 1.374 . S
C1733 C1730 1.499 . S
C1733 C1734 1.373 . S
C1733 C1735 1.389 . S
C1734 H1707 0.950 . S
C1734 C1720 1.377 . S
C1734 C1733 1.373 . S
C1735 C1719 1.377 . S
C1735 C1733 1.389 . S
C1735 C1736 1.524 . S
C1736 C1735 1.524 . S
C1736 C1737 1.397 . S
C1736 C1741 1.363 . S
C1737 H1708 0.950 . S
C1737 C1736 1.397 . S
C1737 C1738 1.334 . S
C1738 H1709 0.950 . S
C1738 C1737 1.334 . S
C1738 C1739 1.287 . S
C1739 C1738 1.287 . S
C1739 C1740 1.524 . S
C1739 H1742 0.999 1_565 S
C1740 H1710 0.950 1_565 S
C1740 C1739 1.524 . S
C1740 C1741 1.415 . S
C1741 H1711 0.950 . S
C1741 C1736 1.363 . S
C1741 C1740 1.415 . S
H1742 C1739 0.999 1_545 S
H1743 C1724 0.913 . S
H1744 C1762 0.951 . S
H1745 C1764 0.951 . S
H1746 C1766 0.950 . S
H1747 C1767 0.950 . S
H1748 C1769 0.950 . S
H1749 C1772 0.950 . S
H1750 C1773 0.950 . S
H1751 C1775 0.950 . S
H1752 C1776 0.950 . S
H1753 C1777 0.951 . S
H1754 C1779 0.951 . S
H1755 C1781 0.950 . S
H1756 C1782 0.950 . S
H1757 C1784 0.950 . S
H1758 C1787 0.950 . S
H1759 C1788 0.950 . S
H1760 C1790 0.950 1_565 S
H1761 C1791 0.950 . S
C1762 H1744 0.951 . S
C1762 C1763 1.366 . S
C1762 C1764 1.388 . S
C1763 C1762 1.366 . S
C1763 C1767 1.385 . S
C1764 H1745 0.951 . S
C1764 C1762 1.388 . S
C1764 C1765 1.366 . S
C1765 C1764 1.366 . S
C1765 C1766 1.414 . S
C1765 C1768 1.499 . S
C1766 H1746 0.950 . S
C1766 C1765 1.414 . S
C1766 C1767 1.374 . S
C1767 H1747 0.950 . S
C1767 C1763 1.385 . S
C1767 C1766 1.374 . S
C1768 C1765 1.499 . S
C1768 C1769 1.373 . S
C1768 C1770 1.389 . S
C1769 H1748 0.950 . S
C1769 C1768 1.373 . S
C1769 C1785 1.377 . S
C1770 C1768 1.389 . S
C1770 C1771 1.524 . S
C1770 C1784 1.377 . S
C1771 C1770 1.524 . S
C1771 C1772 1.397 . S
C1771 C1776 1.363 . S
C1772 H1749 0.950 . S
C1772 C1771 1.397 . S
C1772 C1773 1.334 . S
C1773 H1750 0.950 . S
C1773 C1772 1.334 . S
C1773 C1774 1.287 . S
C1774 C1773 1.287 . S
C1774 C1775 1.524 . S
C1774 H1793 0.913 . S
C1775 H1751 0.950 . S
C1775 C1774 1.524 . S
C1775 C1776 1.415 . S
C1776 H1752 0.950 . S
C1776 C1771 1.363 . S
C1776 C1775 1.415 . S
C1777 H1753 0.951 . S
C1777 C1778 1.366 . S
C1777 C1779 1.388 . S
C1778 C1777 1.366 . S
C1778 C1782 1.385 . S
C1779 H1754 0.951 . S
C1779 C1777 1.388 . S
C1779 C1780 1.366 . S
C1780 C1779 1.366 . S
C1780 C1781 1.414 . S
C1780 C1783 1.499 . S
C1781 H1755 0.950 . S
C1781 C1780 1.414 . S
C1781 C1782 1.374 . S
C1782 H1756 0.950 . S
C1782 C1778 1.385 . S
C1782 C1781 1.374 . S
C1783 C1780 1.499 . S
C1783 C1784 1.373 . S
C1783 C1785 1.389 . S
C1784 H1757 0.950 . S
C1784 C1770 1.377 . S
C1784 C1783 1.373 . S
C1785 C1769 1.377 . S
C1785 C1783 1.389 . S
C1785 C1786 1.524 . S
C1786 C1785 1.524 . S
C1786 C1787 1.397 . S
C1786 C1791 1.363 . S
C1787 H1758 0.950 . S
C1787 C1786 1.397 . S
C1787 C1788 1.334 . S
C1788 H1759 0.950 . S
C1788 C1787 1.334 . S
C1788 C1789 1.287 . S
C1789 C1788 1.287 . S
C1789 C1790 1.524 . S
C1789 H1792 0.999 . S
C1790 H1760 0.950 1_545 S
C1790 C1789 1.524 . S
C1790 C1791 1.415 . S
C1791 H1761 0.950 . S
C1791 C1786 1.363 . S
C1791 C1790 1.415 . S
H1792 C1789 0.999 . S
H1793 C1774 0.913 . S
H1794 C1812 0.951 . S
H1795 C1814 0.951 . S
H1796 C1816 0.950 . S
H1797 C1817 0.950 . S
H1798 C1819 0.950 . S
H1799 C1822 0.950 . S
H1800 C1823 0.950 . S
H1801 C1825 0.950 . S
H1802 C1826 0.924 1_455 S
H1803 C1827 0.951 . S
H1804 C1829 0.951 . S
H1805 C1831 0.950 . S
H1806 C1832 0.950 . S
H1807 C1834 0.950 . S
H1808 C1837 0.950 . S
H1809 C1838 0.950 . S
H1810 C1840 0.950 . S
H1811 C1841 0.928 1_655 S
C1812 H1794 0.951 . S
C1812 C1813 1.366 . S
C1812 C1814 1.388 . S
C1813 C1812 1.366 . S
C1813 C1817 1.385 1_545 S
C1814 H1795 0.951 . S
C1814 C1812 1.388 . S
C1814 C1815 1.366 . S
C1815 C1814 1.366 . S
C1815 C1816 1.414 1_545 S
C1815 C1818 1.499 . S
C1816 H1796 0.950 . S
C1816 C1815 1.414 1_565 S
C1816 C1817 1.374 . S
C1817 H1797 0.950 . S
C1817 C1813 1.385 1_565 S
C1817 C1816 1.374 . S
C1818 C1815 1.499 . S
C1818 C1819 1.373 1_545 S
C1818 C1820 1.389 . S
C1819 H1798 0.950 . S
C1819 C1818 1.373 1_565 S
C1819 C1835 1.377 1_655 S
C1820 C1818 1.389 . S
C1820 C1821 1.524 . S
C1820 C1834 1.377 1_655 S
C1821 C1820 1.524 . S
C1821 C1822 1.397 . S
C1821 C1826 1.363 . S
C1822 H1799 0.950 . S
C1822 C1821 1.397 . S
C1822 C1823 1.334 . S
C1823 H1800 0.950 . S
C1823 C1822 1.334 . S
C1823 C1824 1.287 . S
C1824 C1823 1.287 . S
C1824 C1825 1.524 . S
C1824 H1843 0.913 . S
C1825 H1801 0.950 . S
C1825 C1824 1.524 . S
C1825 C1826 1.415 . S
C1826 H1802 0.924 1_655 S
C1826 C1821 1.363 . S
C1826 C1825 1.415 . S
C1827 H1803 0.951 . S
C1827 C1828 1.366 . S
C1827 C1829 1.388 . S
C1828 C1827 1.366 . S
C1828 C1832 1.385 1_565 S
C1829 H1804 0.951 . S
C1829 C1827 1.388 . S
C1829 C1830 1.366 . S
C1830 C1829 1.366 . S
C1830 C1831 1.414 1_565 S
C1830 C1833 1.499 . S
C1831 H1805 0.950 . S
C1831 C1830 1.414 1_545 S
C1831 C1832 1.374 . S
C1832 H1806 0.950 . S
C1832 C1828 1.385 1_545 S
C1832 C1831 1.374 . S
C1833 C1830 1.499 . S
C1833 C1834 1.373 1_565 S
C1833 C1835 1.389 . S
C1834 H1807 0.950 . S
C1834 C1820 1.377 1_455 S
C1834 C1833 1.373 1_545 S
C1835 C1819 1.377 1_455 S
C1835 C1833 1.389 . S
C1835 C1836 1.524 . S
C1836 C1835 1.524 . S
C1836 C1837 1.397 . S
C1836 C1841 1.363 . S
C1837 H1808 0.950 . S
C1837 C1836 1.397 . S
C1837 C1838 1.334 . S
C1838 H1809 0.950 . S
C1838 C1837 1.334 . S
C1838 C1839 1.287 . S
C1839 C1838 1.287 . S
C1839 C1840 1.524 . S
C1839 H1842 0.999 . S
C1840 H1810 0.950 . S
C1840 C1839 1.524 . S
C1840 C1841 1.415 . S
C1841 H1811 0.928 1_455 S
C1841 C1836 1.363 . S
C1841 C1840 1.415 . S
H1842 C1839 0.999 . S
H1843 C1824 0.913 . S
H1844 C1862 0.951 . S
H1845 C1864 0.951 . S
H1846 C1866 0.950 . S
H1847 C1867 0.950 . S
H1848 C1869 0.950 . S
H1849 C1872 0.950 . S
H1850 C1873 0.950 . S
H1851 C1875 0.950 . S
H1852 C1876 0.950 . S
H1853 C1877 0.951 . S
H1854 C1879 0.951 . S
H1855 C1881 0.950 . S
H1856 C1882 0.950 . S
H1857 C1884 0.950 . S
H1858 C1887 0.950 . S
H1859 C1888 0.950 . S
H1860 C1890 0.950 . S
H1861 C1891 0.950 . S
C1862 H1844 0.951 . S
C1862 C1863 1.366 . S
C1862 C1864 1.388 . S
C1863 C1862 1.366 . S
C1863 C1867 1.385 . S
C1864 H1845 0.951 . S
C1864 C1862 1.388 . S
C1864 C1865 1.366 . S
C1865 C1864 1.366 . S
C1865 C1866 1.414 . S
C1865 C1868 1.499 . S
C1866 H1846 0.950 . S
C1866 C1865 1.414 . S
C1866 C1867 1.374 . S
C1867 H1847 0.950 . S
C1867 C1863 1.385 . S
C1867 C1866 1.374 . S
C1868 C1865 1.499 . S
C1868 C1869 1.373 . S
C1868 C1870 1.389 . S
C1869 H1848 0.950 . S
C1869 C1868 1.373 . S
C1869 C1885 1.377 . S
C1870 C1868 1.389 . S
C1870 C1871 1.524 . S
C1870 C1884 1.377 . S
C1871 C1870 1.524 . S
C1871 C1872 1.397 . S
C1871 C1876 1.363 . S
C1872 H1849 0.950 . S
C1872 C1871 1.397 . S
C1872 C1873 1.334 . S
C1873 H1850 0.950 . S
C1873 C1872 1.334 . S
C1873 C1874 1.287 . S
C1874 C1873 1.287 . S
C1874 C1875 1.524 . S
C1874 H1893 0.913 . S
C1875 H1851 0.950 . S
C1875 C1874 1.524 . S
C1875 C1876 1.415 . S
C1876 H1852 0.950 . S
C1876 C1871 1.363 . S
C1876 C1875 1.415 . S
C1877 H1853 0.951 . S
C1877 C1878 1.366 . S
C1877 C1879 1.388 . S
C1878 C1877 1.366 . S
C1878 C1882 1.385 . S
C1879 H1854 0.951 . S
C1879 C1877 1.388 . S
C1879 C1880 1.366 . S
C1880 C1879 1.366 . S
C1880 C1881 1.414 . S
C1880 C1883 1.499 . S
C1881 H1855 0.950 . S
C1881 C1880 1.414 . S
C1881 C1882 1.374 . S
C1882 H1856 0.950 . S
C1882 C1878 1.385 . S
C1882 C1881 1.374 . S
C1883 C1880 1.499 . S
C1883 C1884 1.373 . S
C1883 C1885 1.389 . S
C1884 H1857 0.950 . S
C1884 C1870 1.377 . S
C1884 C1883 1.373 . S
C1885 C1869 1.377 . S
C1885 C1883 1.389 . S
C1885 C1886 1.524 . S
C1886 C1885 1.524 . S
C1886 C1887 1.397 . S
C1886 C1891 1.363 . S
C1887 H1858 0.950 . S
C1887 C1886 1.397 . S
C1887 C1888 1.334 . S
C1888 H1859 0.950 . S
C1888 C1887 1.334 . S
C1888 C1889 1.287 . S
C1889 C1888 1.287 . S
C1889 C1890 1.524 . S
C1889 H1892 0.999 . S
C1890 H1860 0.950 . S
C1890 C1889 1.524 . S
C1890 C1891 1.415 . S
C1891 H1861 0.950 . S
C1891 C1886 1.363 . S
C1891 C1890 1.415 . S
H1892 C1889 0.999 . S
H1893 C1874 0.913 . S
H1894 C1912 0.951 . S
H1895 C1914 0.951 . S
H1896 C1916 0.950 . S
H1897 C1917 0.950 . S
H1898 C1919 0.950 . S
H1899 C1922 0.950 . S
H1900 C1923 0.950 . S
H1901 C1925 0.950 . S
H1902 C1926 0.950 . S
H1903 C1927 0.951 . S
H1904 C1929 0.951 . S
H1905 C1931 0.950 . S
H1906 C1932 0.950 . S
H1907 C1934 0.950 . S
H1908 C1937 0.950 . S
H1909 C1938 0.950 . S
H1910 C1940 0.950 . S
H1911 C1941 0.950 . S
C1912 H1894 0.951 . S
C1912 C1913 1.366 1_545 S
C1912 C1914 1.388 . S
C1913 C1912 1.366 1_565 S
C1913 C1917 1.385 . S
C1914 H1895 0.951 . S
C1914 C1912 1.388 . S
C1914 C1915 1.366 1_545 S
C1915 C1914 1.366 1_565 S
C1915 C1916 1.414 . S
C1915 C1918 1.499 . S
C1916 H1896 0.950 . S
C1916 C1915 1.414 . S
C1916 C1917 1.374 . S
C1917 H1897 0.950 . S
C1917 C1913 1.385 . S
C1917 C1916 1.374 . S
C1918 C1915 1.499 . S
C1918 C1919 1.373 . S
C1918 C1920 1.389 1_565 S
C1919 H1898 0.950 . S
C1919 C1918 1.373 . S
C1919 C1935 1.377 . S
C1920 C1918 1.389 1_545 S
C1920 C1921 1.524 . S
C1920 C1934 1.377 . S
C1921 C1920 1.524 . S
C1921 C1922 1.397 1_545 S
C1921 C1926 1.363 . S
C1922 H1899 0.950 . S
C1922 C1921 1.397 1_565 S
C1922 C1923 1.334 . S
C1923 H1900 0.950 . S
C1923 C1922 1.334 . S
C1923 C1924 1.287 1_565 S
C1924 C1923 1.287 1_545 S
C1924 C1925 1.524 . S
C1924 H1943 0.913 . S
C1925 H1901 0.950 . S
C1925 C1924 1.524 . S
C1925 C1926 1.415 . S
C1926 H1902 0.950 . S
C1926 C1921 1.363 . S
C1926 C1925 1.415 . S
C1927 H1903 0.951 . S
C1927 C1928 1.366 1_565 S
C1927 C1929 1.388 . S
C1928 C1927 1.366 1_545 S
C1928 C1932 1.385 . S
C1929 H1904 0.951 . S
C1929 C1927 1.388 . S
C1929 C1930 1.366 1_565 S
C1930 C1929 1.366 1_545 S
C1930 C1931 1.414 . S
C1930 C1933 1.499 . S
C1931 H1905 0.950 . S
C1931 C1930 1.414 . S
C1931 C1932 1.374 . S
C1932 H1906 0.950 . S
C1932 C1928 1.385 . S
C1932 C1931 1.374 . S
C1933 C1930 1.499 . S
C1933 C1934 1.373 . S
C1933 C1935 1.389 1_545 S
C1934 H1907 0.950 . S
C1934 C1920 1.377 . S
C1934 C1933 1.373 . S
C1935 C1919 1.377 . S
C1935 C1933 1.389 1_565 S
C1935 C1936 1.524 . S
C1936 C1935 1.524 . S
C1936 C1937 1.397 1_565 S
C1936 C1941 1.363 . S
C1937 H1908 0.950 . S
C1937 C1936 1.397 1_545 S
C1937 C1938 1.334 . S
C1938 H1909 0.950 . S
C1938 C1937 1.334 . S
C1938 C1939 1.287 1_545 S
C1939 C1938 1.287 1_565 S
C1939 C1940 1.524 . S
C1939 H1942 0.999 . S
C1940 H1910 0.950 . S
C1940 C1939 1.524 . S
C1940 C1941 1.415 . S
C1941 H1911 0.950 . S
C1941 C1936 1.363 . S
C1941 C1940 1.415 . S
H1942 C1939 0.999 . S
H1943 C1924 0.913 . S
C363 C27 1.638 . S
C378 C76 1.774 . S
C413 C32 1.640 1_565 S
C428 C126 1.778 . S
C463 C162 1.778 . S
C478 C70 1.638 . S
C513 C118 1.639 . S
C528 C169 1.779 . S
C563 C156 1.640 . S
C578 C205 1.777 . S
C613 C248 1.778 . S
C628 C161 1.640 . S
C663 C199 1.640 . S
C678 C33 1.780 . S
C713 C242 1.639 . S
C728 C40 1.781 . S
C763 C255 1.778 . S
C778 C285 1.638 . S
C813 C290 1.640 1_565 S
C828 C212 1.779 . S
C863 C334 1.778 . S
C878 C247 1.643 . S
C913 C341 1.778 . S
C928 C204 1.642 . S
C963 C328 1.639 . S
C978 C119 1.776 . S
C1013 C83 1.779 . S
C1028 C333 1.636 . S
C1063 C291 1.779 . S
C1078 C113 1.639 . S
C1113 C298 1.778 . S
C1128 C75 1.640 . S
C1163 C13 1.593 . S
C1178 C39 1.593 . S
C1213 C82 1.592 . S
C1228 C56 1.592 . S
C1263 C125 1.590 . S
C1278 C99 1.590 . S
C1313 C168 1.591 . S
C1328 C142 1.591 . S
C1363 C211 1.590 . S
C1378 C185 1.590 . S
C1413 C228 1.590 . S
C1428 C254 1.590 . S
C1463 C271 1.591 . S
C1478 C297 1.591 . S
C1513 C340 1.593 . S
C1528 C314 1.593 . S
C1563 N309 1.254 . S
C1578 N3 1.252 . S
C1613 N8 1.255 . S
C1628 N304 1.257 . S
C1663 N46 1.255 . S
C1678 N94 1.254 . S
C1713 N266 1.254 . S
C1728 N132 1.253 . S
C1763 N137 1.255 . S
C1778 N261 1.257 . S
C1813 N218 1.256 . S
C1828 N175 1.255 . S
C1863 N223 1.255 . S
C1878 N180 1.254 . S
C1913 N89 1.255 . S
C1928 N51 1.255 . S
