# Generated by pormake.
# Topology crs, (6)-cn, num edge types: 1
# Building blocks:
#     Node 0, Type 0, BuildingBlock: BETDAH_clean_sbu_0, # of connection points: 6
#     Node 1, Type 0, BuildingBlock: BETDAH_clean_sbu_0, # of connection points: 6
#     Node 2, Type 0, BuildingBlock: BETDAH_clean_sbu_0, # of connection points: 6
#     Node 3, Type 0, BuildingBlock: BETDAH_clean_sbu_0, # of connection points: 6
#     Node 4, Type 0, BuildingBlock: BETDAH_clean_sbu_0, # of connection points: 6
#     Node 5, Type 0, BuildingBlock: BETDAH_clean_sbu_0, # of connection points: 6
#     Node 6, Type 0, BuildingBlock: BETDAH_clean_sbu_0, # of connection points: 6
#     Node 7, Type 0, BuildingBlock: BETDAH_clean_sbu_0, # of connection points: 6
#     Node 8, Type 0, BuildingBlock: BETDAH_clean_sbu_0, # of connection points: 6
#     Node 9, Type 0, BuildingBlock: BETDAH_clean_sbu_0, # of connection points: 6
#     Node 10, Type 0, BuildingBlock: BETDAH_clean_sbu_0, # of connection points: 6
#     Node 11, Type 0, BuildingBlock: BETDAH_clean_sbu_0, # of connection points: 6
#     Node 12, Type 0, BuildingBlock: BETDAH_clean_sbu_0, # of connection points: 6
#     Node 13, Type 0, BuildingBlock: BETDAH_clean_sbu_0, # of connection points: 6
#     Node 14, Type 0, BuildingBlock: BETDAH_clean_sbu_0, # of connection points: 6
#     Node 15, Type 0, BuildingBlock: BETDAH_clean_sbu_0, # of connection points: 6
#     Edge 16, Type (0, 0), BuildingBlock: ZUJKAS_clean_linker_0, # of connection points: 2
#     Edge 17, Type (0, 0), BuildingBlock: ZUJKAS_clean_linker_0, # of connection points: 2
#     Edge 18, Type (0, 0), BuildingBlock: ZUJKAS_clean_linker_0, # of connection points: 2
#     Edge 19, Type (0, 0), BuildingBlock: ZUJKAS_clean_linker_0, # of connection points: 2
#     Edge 20, Type (0, 0), BuildingBlock: ZUJKAS_clean_linker_0, # of connection points: 2
#     Edge 21, Type (0, 0), BuildingBlock: ZUJKAS_clean_linker_0, # of connection points: 2
#     Edge 22, Type (0, 0), BuildingBlock: ZUJKAS_clean_linker_0, # of connection points: 2
#     Edge 23, Type (0, 0), BuildingBlock: ZUJKAS_clean_linker_0, # of connection points: 2
#     Edge 24, Type (0, 0), BuildingBlock: ZUJKAS_clean_linker_0, # of connection points: 2
#     Edge 25, Type (0, 0), BuildingBlock: ZUJKAS_clean_linker_0, # of connection points: 2
#     Edge 26, Type (0, 0), BuildingBlock: ZUJKAS_clean_linker_0, # of connection points: 2
#     Edge 27, Type (0, 0), BuildingBlock: ZUJKAS_clean_linker_0, # of connection points: 2
#     Edge 28, Type (0, 0), BuildingBlock: ZUJKAS_clean_linker_0, # of connection points: 2
#     Edge 29, Type (0, 0), BuildingBlock: ZUJKAS_clean_linker_0, # of connection points: 2
#     Edge 30, Type (0, 0), BuildingBlock: ZUJKAS_clean_linker_0, # of connection points: 2
#     Edge 31, Type (0, 0), BuildingBlock: ZUJKAS_clean_linker_0, # of connection points: 2
#     Edge 32, Type (0, 0), BuildingBlock: ZUJKAS_clean_linker_0, # of connection points: 2
#     Edge 33, Type (0, 0), BuildingBlock: ZUJKAS_clean_linker_0, # of connection points: 2
#     Edge 34, Type (0, 0), BuildingBlock: ZUJKAS_clean_linker_0, # of connection points: 2
#     Edge 35, Type (0, 0), BuildingBlock: ZUJKAS_clean_linker_0, # of connection points: 2
#     Edge 36, Type (0, 0), BuildingBlock: ZUJKAS_clean_linker_0, # of connection points: 2
#     Edge 37, Type (0, 0), BuildingBlock: ZUJKAS_clean_linker_0, # of connection points: 2
#     Edge 38, Type (0, 0), BuildingBlock: ZUJKAS_clean_linker_0, # of connection points: 2
#     Edge 39, Type (0, 0), BuildingBlock: ZUJKAS_clean_linker_0, # of connection points: 2
#     Edge 40, Type (0, 0), BuildingBlock: ZUJKAS_clean_linker_0, # of connection points: 2
#     Edge 41, Type (0, 0), BuildingBlock: ZUJKAS_clean_linker_0, # of connection points: 2
#     Edge 42, Type (0, 0), BuildingBlock: ZUJKAS_clean_linker_0, # of connection points: 2
#     Edge 43, Type (0, 0), BuildingBlock: ZUJKAS_clean_linker_0, # of connection points: 2
#     Edge 44, Type (0, 0), BuildingBlock: ZUJKAS_clean_linker_0, # of connection points: 2
#     Edge 45, Type (0, 0), BuildingBlock: ZUJKAS_clean_linker_0, # of connection points: 2
#     Edge 46, Type (0, 0), BuildingBlock: ZUJKAS_clean_linker_0, # of connection points: 2
#     Edge 47, Type (0, 0), BuildingBlock: ZUJKAS_clean_linker_0, # of connection points: 2
#     Edge 48, Type (0, 0), BuildingBlock: ZUJKAS_clean_linker_0, # of connection points: 2
#     Edge 49, Type (0, 0), BuildingBlock: ZUJKAS_clean_linker_0, # of connection points: 2
#     Edge 50, Type (0, 0), BuildingBlock: ZUJKAS_clean_linker_0, # of connection points: 2
#     Edge 51, Type (0, 0), BuildingBlock: ZUJKAS_clean_linker_0, # of connection points: 2
#     Edge 52, Type (0, 0), BuildingBlock: ZUJKAS_clean_linker_0, # of connection points: 2
#     Edge 53, Type (0, 0), BuildingBlock: ZUJKAS_clean_linker_0, # of connection points: 2
#     Edge 54, Type (0, 0), BuildingBlock: ZUJKAS_clean_linker_0, # of connection points: 2
#     Edge 55, Type (0, 0), BuildingBlock: ZUJKAS_clean_linker_0, # of connection points: 2
#     Edge 56, Type (0, 0), BuildingBlock: ZUJKAS_clean_linker_0, # of connection points: 2
#     Edge 57, Type (0, 0), BuildingBlock: ZUJKAS_clean_linker_0, # of connection points: 2
#     Edge 58, Type (0, 0), BuildingBlock: ZUJKAS_clean_linker_0, # of connection points: 2
#     Edge 59, Type (0, 0), BuildingBlock: ZUJKAS_clean_linker_0, # of connection points: 2
#     Edge 60, Type (0, 0), BuildingBlock: ZUJKAS_clean_linker_0, # of connection points: 2
#     Edge 61, Type (0, 0), BuildingBlock: ZUJKAS_clean_linker_0, # of connection points: 2
#     Edge 62, Type (0, 0), BuildingBlock: ZUJKAS_clean_linker_0, # of connection points: 2
#     Edge 63, Type (0, 0), BuildingBlock: ZUJKAS_clean_linker_0, # of connection points: 2
# Relax obj value: 0.398
# Max RMSD: 0.337
# Mean RMSD: 0.282
data_MOF--net-crs--node1-BETDAH_clean_sbu_0--edge1-ZUJKAS_clean_linker_0
_symmetry_space_group_name_H-M    P1
_symmetry_Int_Tables_number       1
_symmetry_cell_setting            triclinic
loop_
_symmetry_equiv_pos_as_xyz
'x, y, z'
_cell_length_a     65.630774
_cell_length_b     66.391496
_cell_length_c     57.895925
_cell_angle_alpha  77.210918
_cell_angle_beta   79.105473
_cell_angle_gamma 68.706827
loop_
_atom_site_label
_atom_site_type_symbol
_atom_site_fract_x
_atom_site_fract_y
_atom_site_fract_z
_atom_type_partial_charge
Ho0 Ho 0.96056 0.99238 0.04986 0.0
Ho1 Ho 0.00406 0.98858 0.01597 0.0
C2 C 0.98788 0.94811 0.02557 0.0
C3 C 0.92308 0.98893 0.06847 0.0
C4 C 0.91432 0.97251 0.06491 0.0
C5 C 0.91646 0.96785 0.04187 0.0
C6 C 0.9149 0.94831 0.03876 0.0
C7 C 0.91104 0.93308 0.05857 0.0
C8 C 0.90719 0.93846 0.08153 0.0
C9 C 0.90882 0.95807 0.08467 0.0
C10 C -0.00341 0.98316 0.07124 0.0
C11 C 0.97629 0.03312 0.03954 0.0
C12 C 0.04259 0.99013 0.99828 0.0
C13 C 0.05447 1.00311 1.00364 0.0
C14 C 0.0472 0.01291 0.02418 0.0
C15 C 0.05686 0.02699 0.02848 0.0
C16 C 0.07454 0.03097 0.0127 0.0
C17 C 0.08217 0.02074 0.99235 0.0
C18 C 0.07205 0.00702 0.98775 0.0
C19 C 0.96814 0.99774 0.99452 0.0
O20 O 0.96907 0.9608 0.03553 0.0
O21 O 0.00547 0.95417 0.019 0.0
O22 O 0.94049 0.98054 0.0799 0.0
O23 O 0.92522 1.00367 0.04978 0.0
O24 O 0.97695 0.99475 0.07938 0.0
O25 O -0.00427 0.97579 0.05329 0.0
O26 O -0.00489 0.02026 0.02988 0.0
O27 O 0.95869 0.02708 0.04641 0.0
O28 O 0.02491 1.00164 0.98782 0.0
O29 O 0.03935 0.97493 0.0158 0.0
O30 O 0.98782 0.98634 0.98622 0.0
O31 O 0.96893 1.00513 0.01247 0.0
H32 H 0.92112 0.97838 0.02629 0.0
H33 H 0.91848 0.94439 0.02093 0.0
H34 H 0.90385 0.9271 0.0971 0.0
H35 H 0.90734 0.96122 0.1026 0.0
H36 H 0.03385 0.00989 0.03684 0.0
H37 H 0.0505 0.03469 0.0442 0.0
H38 H 0.09559 0.02378 0.97969 0.0
H39 H 0.07774 0.99972 0.97171 0.0
Ho40 Ho -0.00324 0.27304 0.26897 0.0
Ho41 Ho 0.98762 0.23744 0.25217 0.0
C42 C 0.96696 0.24607 0.30456 0.0
C43 C -0.00599 0.3078 0.2843 0.0
C44 C -0.00812 0.31604 0.30656 0.0
C45 C 0.97641 0.3367 0.30937 0.0
C46 C 0.97584 0.34633 0.3287 0.0
C47 C 0.99086 0.33552 0.34556 0.0
C48 C 0.00561 0.31431 0.34338 0.0
C49 C 0.00612 0.30463 0.32403 0.0
C50 C 0.02814 0.23302 0.27601 0.0
C51 C 0.01775 0.26388 0.2168 0.0
C52 C 0.98971 0.20321 0.23617 0.0
C53 C -0.00608 0.19464 0.21363 0.0
C54 C 0.01098 0.17477 0.21109 0.0
C55 C 0.0137 0.16481 0.19133 0.0
C56 C -0.00073 0.17445 0.17375 0.0
C57 C 0.98277 0.19487 0.17579 0.0
C58 C 0.98012 0.20488 0.19554 0.0
C59 C 0.95643 0.27776 0.24553 0.0
O60 O 0.97227 0.26415 0.29906 0.0
O61 O 0.97429 0.23108 0.29053 0.0
O62 O 0.01265 0.29289 0.27833 0.0
O63 O 0.97689 0.30423 0.27995 0.0
O64 O 0.032 0.25137 0.27135 0.0
O65 O 0.00761 0.23678 0.27887 0.0
O66 O 0.01268 0.24569 0.2226 0.0
O67 O 0.00996 0.2792 0.23044 0.0
O68 O 0.97145 0.21944 0.23979 0.0
O69 O 0.00647 0.20514 0.24351 0.0
O70 O 0.95225 0.25954 0.25088 0.0
O71 O 0.97698 0.27364 0.24226 0.0
H72 H 0.96521 0.34573 0.29615 0.0
H73 H 0.964 0.36251 0.33013 0.0
H74 H 0.01746 0.3056 0.35598 0.0
H75 H 0.01817 0.2886 0.32233 0.0
H76 H 0.02184 0.16657 0.2248 0.0
H77 H 0.0268 0.14928 0.1901 0.0
H78 H 0.97125 0.20265 0.1627 0.0
H79 H 0.9668 0.22023 0.19698 0.0
Ho80 Ho 0.73686 0.23915 0.49629 0.0
Ho81 Ho 0.74803 0.27028 0.52631 0.0
C82 C 0.69968 0.26516 0.53594 0.0
C83 C 0.73002 0.20662 0.48594 0.0
C84 C 0.71494 0.19465 0.49743 0.0
C85 C 0.7003 0.2012 0.51757 0.0
C86 C 0.68307 0.19294 0.52589 0.0
C87 C 0.68023 0.17799 0.51413 0.0
C88 C 0.69575 0.17041 0.49485 0.0
C89 C 0.71298 0.17876 0.48651 0.0
C90 C 0.73269 0.28052 0.47164 0.0
C91 C 0.78487 0.24471 0.48599 0.0
C92 C 0.75327 0.30358 0.53675 0.0
C93 C 0.76562 0.31806 0.52428 0.0
C94 C 0.78199 0.31165 0.50535 0.0
C95 C 0.79546 0.32413 0.49509 0.0
C96 C 0.79286 0.34315 0.50376 0.0
C97 C 0.77567 0.35015 0.52193 0.0
C98 C 0.76213 0.33763 0.53214 0.0
C99 C 0.75228 0.22896 0.55114 0.0
O100 O 0.70637 0.24978 0.52225 0.0
O101 O 0.71197 0.27647 0.53844 0.0
O102 O 0.72008 0.2271 0.4769 0.0
O103 O 0.74627 0.20412 0.49768 0.0
O104 O 0.72899 0.2657 0.46328 0.0
O105 O 0.7379 0.27195 0.49226 0.0
O106 O 0.77796 0.26058 0.49916 0.0
O107 O 0.77295 0.23269 0.48447 0.0
O108 O 0.76552 0.28326 0.54373 0.0
O109 O 0.73614 0.30511 0.52701 0.0
O110 O 0.7563 0.24374 0.55923 0.0
O111 O 0.74683 0.23749 0.53058 0.0
H112 H 0.70147 0.21351 0.52616 0.0
H113 H 0.67145 0.19893 0.54087 0.0
H114 H 0.69379 0.15909 0.48524 0.0
H115 H 0.72402 0.1737 0.47081 0.0
H116 H 0.7848 0.29664 0.49902 0.0
H117 H 0.80842 0.31848 0.48096 0.0
H118 H 0.77347 0.36461 0.52916 0.0
H119 H 0.74953 0.34277 0.54676 0.0
Ho120 Ho 0.72099 1.00248 0.75343 0.0
Ho121 Ho 0.75817 0.00862 0.77202 0.0
C122 C 0.74634 0.03515 0.72058 0.0
C123 C 0.68507 0.00705 0.73746 0.0
C124 C 0.67718 0.00963 0.71461 0.0
C125 C 0.65458 0.01519 0.71396 0.0
C126 C 0.64671 0.01571 0.69303 0.0
C127 C 0.66135 0.01066 0.67233 0.0
C128 C 0.68402 1.00571 0.67286 0.0
C129 C 0.69189 1.00525 0.69388 0.0
C130 C 0.76116 0.97234 0.74435 0.0
C131 C 0.73273 0.97609 0.80492 0.0
C132 C 0.79399 1.004 0.78823 0.0
C133 C 0.80207 0.99997 0.81131 0.0
C134 C 0.82478 0.99298 0.81217 0.0
C135 C 0.83292 0.99082 0.83348 0.0
C136 C 0.81844 0.99567 0.85433 0.0
C137 C 0.79563 1.00208 0.85355 0.0
C138 C 0.78749 1.00414 0.83217 0.0
C139 C 0.71802 0.03895 0.78063 0.0
O140 O 0.72831 0.02963 0.72529 0.0
O141 O 0.76238 0.02595 0.73435 0.0
O142 O 0.69967 0.98807 0.74422 0.0
O143 O 0.68967 0.02351 0.74131 0.0
O144 O 0.74282 0.96835 0.74805 0.0
O145 O 0.75715 0.99255 0.74335 0.0
O146 O 0.7508 0.98152 0.80018 0.0
O147 O 0.71669 0.98536 0.79117 0.0
O148 O 0.77876 0.02292 0.78288 0.0
O149 O 0.79012 0.9878 0.78266 0.0
O150 O 0.73639 0.0429 0.77675 0.0
O151 O 0.72201 0.01868 0.78198 0.0
H152 H 0.64306 0.01851 0.72988 0.0
H153 H 0.62921 0.01922 0.69336 0.0
H154 H 0.69565 1.00195 0.65715 0.0
H155 H 0.70943 1.00096 0.69415 0.0
H156 H 0.83622 0.98975 0.79618 0.0
H157 H 0.85056 0.98617 0.83339 0.0
H158 H 0.78411 1.00572 0.86937 0.0
H159 H 0.76985 0.00947 0.83178 0.0
Ho160 Ho 0.49459 0.77167 0.26876 0.0
Ho161 Ho 0.48382 0.73773 0.25251 0.0
C162 C 0.46553 0.7451 0.30535 0.0
C163 C 0.49509 0.80429 0.28581 0.0
C164 C 0.49722 0.80858 0.30895 0.0
C165 C 0.48287 0.80514 0.3296 0.0
C166 C 0.4852 0.80983 0.35116 0.0
C167 C 0.50204 0.81778 0.35241 0.0
C168 C 0.51652 0.82086 0.33179 0.0
C169 C 0.51407 0.81637 0.31028 0.0
C170 C 0.52606 0.73136 0.27396 0.0
C171 C 0.51304 0.76439 0.21608 0.0
C172 C 0.48385 0.70471 0.23574 0.0
C173 C 0.48018 0.7001 0.21346 0.0
C174 C 0.49431 0.68095 0.20505 0.0
C175 C 0.49 0.67498 0.18531 0.0
C176 C 0.47139 0.68804 0.17372 0.0
C177 C 0.45768 0.70766 0.18164 0.0
C178 C 0.4621 0.71372 0.2013 0.0
C179 C 0.45257 0.77821 0.2467 0.0
O180 O 0.47001 0.76357 0.29909 0.0
O181 O 0.47335 0.72992 0.29159 0.0
O182 O 0.51264 0.7907 0.27578 0.0
O183 O 0.47694 0.80131 0.28368 0.0
O184 O 0.52996 0.74966 0.26856 0.0
O185 O 0.50554 0.73519 0.27824 0.0
O186 O 0.50865 0.74585 0.22236 0.0
O187 O 0.50503 0.77962 0.22978 0.0
O188 O 0.4667 0.717 0.24776 0.0
O189 O 0.50165 0.70936 0.23525 0.0
O190 O 0.44849 0.76 0.25162 0.0
O191 O 0.47309 0.77412 0.24283 0.0
H192 H 0.46978 0.79902 0.32908 0.0
H193 H 0.47385 0.8073 0.36681 0.0
H194 H 0.52937 0.82738 0.33209 0.0
H195 H 0.52526 0.81919 0.29456 0.0
H196 H 0.50831 0.67024 0.21421 0.0
H197 H 0.50071 0.65963 0.17979 0.0
H198 H 0.44334 0.7181 0.1729 0.0
H199 H 0.45106 0.72872 0.20735 0.0
Ho200 Ho 0.23446 0.74428 0.5012 0.0
Ho201 Ho 0.24761 0.77608 0.52868 0.0
C202 C 0.1996 0.77013 0.54266 0.0
C203 C 0.22584 0.71173 0.49339 0.0
C204 C 0.21215 0.69903 0.50752 0.0
C205 C 0.19902 0.70563 0.52846 0.0
C206 C 0.18314 0.6962 0.53974 0.0
C207 C 0.18004 0.68004 0.53015 0.0
C208 C 0.19419 0.67244 0.51002 0.0
C209 C 0.21011 0.68193 0.49875 0.0
C210 C 0.23006 0.78541 0.4757 0.0
C211 C 0.28222 0.7503 0.48714 0.0
C212 C 0.2522 0.81089 0.53573 0.0
C213 C 0.26019 0.82802 0.52041 0.0
C214 C 0.2465 0.85001 0.51865 0.0
C215 C 0.25387 0.86653 0.50444 0.0
C216 C 0.27514 0.86136 0.49182 0.0
C217 C 0.28853 0.83921 0.49299 0.0
C218 C 0.28111 0.8227 0.50707 0.0
C219 C 0.25334 0.73478 0.5541 0.0
O220 O 0.20537 0.75492 0.52888 0.0
O221 O 0.21223 0.78149 0.54397 0.0
O222 O 0.21475 0.73227 0.48567 0.0
O223 O 0.24392 0.70932 0.50191 0.0
O224 O 0.22634 0.77038 0.46772 0.0
O225 O 0.23494 0.77722 0.49643 0.0
O226 O 0.27581 0.76668 0.49956 0.0
O227 O 0.27027 0.73776 0.48739 0.0
O228 O 0.26693 0.79127 0.54037 0.0
O229 O 0.23354 0.81049 0.53106 0.0
O230 O 0.25793 0.74971 0.56134 0.0
O231 O 0.24671 0.74315 0.53401 0.0
H232 H 0.20028 0.71878 0.53554 0.0
H233 H 0.17257 0.70228 0.55527 0.0
H234 H 0.19198 0.66021 0.502 0.0
H235 H 0.22 0.67673 0.48252 0.0
H236 H 0.23017 0.85443 0.52847 0.0
H237 H 0.24302 0.8834 0.50363 0.0
H238 H 0.30511 0.83462 0.48379 0.0
H239 H 0.29191 0.80583 0.50775 0.0
Ho240 Ho 0.22534 0.50422 0.75125 0.0
Ho241 Ho 0.25976 0.51234 0.77229 0.0
C242 C 0.25026 0.53818 0.72019 0.0
C243 C 0.19226 0.50695 0.73105 0.0
C244 C 0.18657 0.51067 0.70653 0.0
C245 C 0.17774 0.53198 0.69391 0.0
C246 C 0.17105 0.53518 0.67142 0.0
C247 C 0.17305 0.51715 0.66112 0.0
C248 C 0.18227 0.49588 0.67357 0.0
C249 C 0.18885 0.49268 0.69604 0.0
C250 C 0.2661 0.47431 0.74573 0.0
C251 C 0.23472 0.47901 0.80361 0.0
C252 C 0.29355 0.51009 0.79086 0.0
C253 C 0.30384 0.50127 0.81301 0.0
C254 C 0.32655 0.49661 0.81177 0.0
C255 C 0.33655 0.49091 0.83258 0.0
C256 C 0.32398 0.48977 0.85509 0.0
C257 C 0.30132 0.49346 0.85628 0.0
C258 C 0.29131 0.49912 0.83535 0.0
C259 C 0.21895 0.54243 0.77694 0.0
O260 O 0.23325 0.53119 0.72324 0.0
O261 O 0.265 0.53056 0.73548 0.0
O262 O 0.20761 0.48849 0.7377 0.0
O263 O 0.19382 0.52348 0.73853 0.0
O264 O 0.24804 0.46988 0.74898 0.0
O265 O 0.26172 0.49474 0.74366 0.0
O266 O 0.25246 0.48492 0.79972 0.0
O267 O 0.21941 0.4875 0.78889 0.0
O268 O 0.27477 0.52616 0.79188 0.0
O269 O 0.29402 0.49592 0.77811 0.0
O270 O 0.23703 0.54697 0.773 0.0
O271 O 0.22335 0.52195 0.77969 0.0
H272 H 0.17564 0.54621 0.70154 0.0
H273 H 0.16407 0.55177 0.66222 0.0
H274 H 0.18364 0.48165 0.66636 0.0
H275 H 0.1953 0.47607 0.70541 0.0
H276 H 0.33643 0.49823 0.79465 0.0
H277 H 0.35395 0.48851 0.83097 0.0
H278 H 0.29126 0.49248 0.87335 0.0
H279 H 0.27373 0.50252 0.83662 0.0
Ho280 Ho 0.98589 0.51553 0.51277 0.0
Ho281 Ho 0.02245 0.5199 0.47166 0.0
C282 C 0.01471 0.47485 0.48367 0.0
C283 C 0.95196 0.50719 0.53711 0.0
C284 C 0.94087 0.49308 0.53274 0.0
C285 C 0.94522 0.4866 0.51036 0.0
C286 C 0.93604 0.47217 0.50604 0.0
C287 C 0.92218 0.46392 0.52407 0.0
C288 C 0.91769 0.47051 0.54655 0.0
C289 C 0.92706 0.48498 0.55088 0.0
C290 C 0.0241 0.51115 0.52689 0.0
C291 C -0.00415 0.55964 0.50267 0.0
C292 C 0.05371 0.53108 0.4448 0.0
C293 C 0.05977 0.55015 0.4457 0.0
C294 C 0.08039 0.54683 0.45221 0.0
C295 C 0.08387 0.56337 0.46053 0.0
C296 C 0.06668 0.58338 0.46268 0.0
C297 C 0.04691 0.58747 0.45366 0.0
C298 C 0.04348 0.57101 0.44524 0.0
C299 C 0.98365 0.52433 0.45847 0.0
O300 O -0.00381 0.48504 0.49624 0.0
O301 O 0.02995 0.484 0.47462 0.0
O302 O 0.97196 0.49684 0.54284 0.0
O303 O 0.95057 0.52478 0.52097 0.0
O304 O 0.005 0.51883 0.539 0.0
O305 O 0.02215 0.50404 0.50917 0.0
O306 O 0.01368 0.54979 0.48894 0.0
O307 O 0.98027 0.5509 0.51144 0.0
O308 O 0.03447 0.53558 0.4378 0.0
O309 O 0.05717 0.51572 0.46369 0.0
O310 O 0.00261 0.51533 0.44684 0.0
O311 O 0.98625 0.5317 0.47558 0.0
H312 H 0.9559 0.49257 0.49619 0.0
H313 H 0.93976 0.4676 0.4885 0.0
H314 H 0.90727 0.4642 0.5609 0.0
H315 H 0.92375 0.48964 0.56836 0.0
H316 H 0.09322 0.53094 0.45261 0.0
H317 H 0.09962 0.56 0.46655 0.0
H318 H 0.03332 0.60264 0.45502 0.0
H319 H 0.02734 0.57416 0.44034 0.0
Ho320 Ho 0.24021 0.24218 0.99804 0.0
Ho321 Ho 0.24648 0.27292 0.02488 0.0
C322 C 0.20043 0.26619 0.0363 0.0
C323 C 0.23206 0.21203 0.98376 0.0
C324 C 0.21975 0.19708 0.99387 0.0
C325 C 0.20732 0.19824 0.01641 0.0
C326 C 0.19503 0.18429 0.02542 0.0
C327 C 0.19547 0.16878 0.01216 0.0
C328 C 0.20842 0.16735 0.98989 0.0
C329 C 0.22042 0.18148 0.98078 0.0
C330 C 0.23782 0.28212 0.9718 0.0
C331 C 0.28668 0.24779 0.98776 0.0
C332 C 0.25607 0.30374 0.03565 0.0
C333 C 0.27078 0.31558 0.02235 0.0
C334 C 0.27697 0.31555 0.99775 0.0
C335 C 0.29314 0.32436 0.98562 0.0
C336 C 0.30316 0.33351 0.99792 0.0
C337 C 0.29631 0.33422 0.02238 0.0
C338 C 0.28029 0.32524 0.03452 0.0
C339 C 0.24892 0.23309 0.05139 0.0
O340 O 0.21 0.24894 0.02539 0.0
O341 O 0.2104 0.28035 0.03581 0.0
O342 O 0.22029 0.23283 0.97951 0.0
O343 O 0.24957 0.20842 0.9938 0.0
O344 O 0.24593 0.26394 0.9634 0.0
O345 O 0.22995 0.27845 0.99334 0.0
O346 O 0.27711 0.26529 0.99816 0.0
O347 O 0.27648 0.23384 0.98838 0.0
O348 O 0.26595 0.28295 0.04336 0.0
O349 O 0.23838 0.30728 0.02593 0.0
O350 O 0.2414 0.2513 0.05984 0.0
O351 O 0.25662 0.23664 0.02972 0.0
H352 H 0.20701 0.20998 0.02688 0.0
H353 H 0.18522 0.18558 0.04267 0.0
H354 H 0.20878 0.1557 0.97921 0.0
H355 H 0.23005 0.18037 0.96341 0.0
H356 H 0.26977 0.30815 0.98804 0.0
H357 H 0.29804 0.32371 0.96678 0.0
H358 H 0.30401 0.34092 0.03236 0.0
H359 H 0.27582 0.32522 0.05352 0.0
Ho360 Ho 0.22291 1.00442 0.25383 0.0
Ho361 Ho 0.26114 0.01067 0.26954 0.0
C362 C 0.24772 0.03611 0.21845 0.0
C363 C 0.18564 0.00886 0.24096 0.0
C364 C 0.1759 0.01041 0.2196 0.0
C365 C 0.15296 0.01732 0.22082 0.0
C366 C 0.14312 0.01687 0.2017 0.0
C367 C 0.15609 0.00951 0.18093 0.0
C368 C 0.17916 1.00323 0.17948 0.0
C369 C 0.18901 1.00371 0.1987 0.0
C370 C 0.26243 0.97355 0.24371 0.0
C371 C 0.23756 0.97765 0.30394 0.0
C372 C 0.2973 0.00766 0.28393 0.0
C373 C 0.30433 0.01247 0.30422 0.0
C374 C 0.30073 1.00196 0.32777 0.0
C375 C 0.30826 0.00663 0.34638 0.0
C376 C 0.31932 0.02197 0.34173 0.0
C377 C 0.32263 0.03256 0.31818 0.0
C378 C 0.31529 0.0278 0.29966 0.0
C379 C 0.22132 0.04099 0.2804 0.0
O380 O 0.22924 0.03146 0.22481 0.0
O381 O 0.26457 0.02615 0.231 0.0
O382 O 0.20017 0.98994 0.24802 0.0
O383 O 0.19129 0.02545 0.24243 0.0
O384 O 0.24379 0.97011 0.24815 0.0
O385 O 0.25901 0.99374 0.24214 0.0
O386 O 0.25607 0.98215 0.29698 0.0
O387 O 0.22027 0.98803 0.29211 0.0
O388 O 0.286 0.02469 0.2699 0.0
O389 O 0.28981 0.99132 0.28774 0.0
O390 O 0.23974 0.04479 0.27591 0.0
O391 O 0.22525 0.02081 0.28159 0.0
H392 H 0.14264 0.02244 0.2369 0.0
H393 H 0.12536 0.02146 0.20362 0.0
H394 H 0.18957 0.99769 0.16364 0.0
H395 H 0.20681 0.99835 0.19751 0.0
H396 H 0.29228 0.99007 0.3318 0.0
H397 H 0.3055 0.99823 0.36437 0.0
H398 H 0.33152 0.04409 0.31392 0.0
H399 H 0.3184 0.03597 0.28163 0.0
Ho400 Ho 0.49723 0.2734 0.76759 0.0
Ho401 Ho 0.48531 0.23967 0.7507 0.0
C402 C 0.46684 0.24741 0.80376 0.0
C403 C 0.49716 0.30688 0.78348 0.0
C404 C 0.49425 0.315 0.80594 0.0
C405 C 0.48248 0.3372 0.80668 0.0
C406 C 0.4816 0.34615 0.82663 0.0
C407 C 0.49262 0.33306 0.84618 0.0
C408 C 0.50344 0.31051 0.84593 0.0
C409 C 0.50425 0.30153 0.82594 0.0
C410 C 0.52771 0.23276 0.77216 0.0
C411 C 0.51613 0.26519 0.71496 0.0
C412 C 0.48419 0.20759 0.73305 0.0
C413 C 0.48925 0.20008 0.70978 0.0
C414 C 0.51093 0.19277 0.69841 0.0
C415 C 0.51527 0.18433 0.6772 0.0
C416 C 0.49802 0.18319 0.66693 0.0
C417 C 0.47634 0.19102 0.67804 0.0
C418 C 0.47203 0.19927 0.69928 0.0
C419 C 0.45505 0.28048 0.74662 0.0
O420 O 0.47311 0.26491 0.79831 0.0
O421 O 0.47267 0.2329 0.78927 0.0
O422 O 0.51491 0.29029 0.77934 0.0
O423 O 0.47967 0.30562 0.77705 0.0
O424 O 0.53233 0.25074 0.76706 0.0
O425 O 0.50711 0.23713 0.77636 0.0
O426 O 0.51042 0.24736 0.72072 0.0
O427 O 0.50942 0.28014 0.72897 0.0
O428 O 0.46739 0.22552 0.73506 0.0
O429 O 0.50072 0.20652 0.74342 0.0
O430 O 0.45022 0.26261 0.75262 0.0
O431 O 0.47564 0.27584 0.74189 0.0
H432 H 0.47452 0.3478 0.79148 0.0
H433 H 0.47276 0.36348 0.82649 0.0
H434 H 0.51214 0.30003 0.86069 0.0
H435 H 0.51331 0.28428 0.82581 0.0
H436 H 0.52457 0.19322 0.70605 0.0
H437 H 0.53213 0.17849 0.66895 0.0
H438 H 0.46274 0.19002 0.67081 0.0
H439 H 0.45521 0.20462 0.70778 0.0
Ho440 Ho -0.0058 0.77267 0.77538 0.0
Ho441 Ho 0.98484 0.74007 0.75353 0.0
C442 C 0.96419 0.744 0.8068 0.0
C443 C -0.00822 0.80425 0.79631 0.0
C444 C 0.98502 0.81101 0.82001 0.0
C445 C 0.97089 0.83244 0.82175 0.0
C446 C 0.96618 0.8402 0.84337 0.0
C447 C 0.97565 0.82672 0.86371 0.0
C448 C 0.98897 0.80488 0.86221 0.0
C449 C -0.0064 0.79708 0.84057 0.0
C450 C 0.02549 0.73252 0.77816 0.0
C451 C 0.01587 0.76785 0.72229 0.0
C452 C 0.98639 0.70891 0.73248 0.0
C453 C 0.98976 0.70391 0.70814 0.0
C454 C 0.01002 0.70108 0.69356 0.0
C455 C 0.01311 0.69468 0.67132 0.0
C456 C -0.00402 0.69115 0.66323 0.0
C457 C 0.97561 0.69453 0.67761 0.0
C458 C 0.97258 0.70075 0.69984 0.0
C459 C 0.95366 0.78037 0.75051 0.0
O460 O 0.96907 0.76222 0.80327 0.0
O461 O 0.97196 0.73031 0.7913 0.0
O462 O 0.00947 0.78713 0.794 0.0
O463 O 0.97616 0.80486 0.78485 0.0
O464 O 0.02957 0.75069 0.77493 0.0
O465 O 0.00495 0.73636 0.78133 0.0
O466 O 0.00973 0.75042 0.72535 0.0
O467 O 0.0091 0.78129 0.73806 0.0
O468 O 0.96817 0.72443 0.73816 0.0
O469 O 0.00333 0.70945 0.74085 0.0
O470 O 0.94954 0.76223 0.75384 0.0
O471 O 0.97421 0.77639 0.74739 0.0
H472 H 0.96399 0.84343 0.80617 0.0
H473 H 0.9555 0.85697 0.844 0.0
H474 H -0.00335 0.79409 0.87746 0.0
H475 H 0.00447 0.78041 0.83978 0.0
H476 H 0.02359 0.70343 0.69947 0.0
H477 H 0.02895 0.69229 0.66056 0.0
H478 H 0.96221 0.69157 0.6721 0.0
H479 H 0.95689 0.70263 0.71082 0.0
Ho480 Ho 0.72601 0.50322 0.25446 0.0
Ho481 Ho 0.76156 0.51056 0.27403 0.0
C482 C 0.75131 0.53613 0.22193 0.0
C483 C 0.69149 0.50731 0.23594 0.0
C484 C 0.68375 0.51282 0.21219 0.0
C485 C 0.66928 0.53389 0.20449 0.0
C486 C 0.65985 0.53841 0.18338 0.0
C487 C 0.66458 0.5219 0.16961 0.0
C488 C 0.67973 0.50109 0.17687 0.0
C489 C 0.68916 0.49659 0.19791 0.0
C490 C 0.76628 0.47261 0.24792 0.0
C491 C 0.73639 0.47748 0.30635 0.0
C492 C 0.79619 0.50749 0.2917 0.0
C493 C 0.80545 0.50146 0.31446 0.0
C494 C 0.79198 0.50439 0.33624 0.0
C495 C 0.80138 0.50133 0.3571 0.0
C496 C 0.82437 0.49523 0.35647 0.0
C497 C 0.83774 0.49131 0.33474 0.0
C498 C 0.82835 0.4944 0.31398 0.0
C499 C 0.72094 0.54091 0.2804 0.0
O500 O 0.73377 0.52987 0.22602 0.0
O501 O 0.76665 0.528 0.23658 0.0
O502 O 0.70735 0.48868 0.24057 0.0
O503 O 0.69366 0.52311 0.24426 0.0
O504 O 0.74789 0.46871 0.25181 0.0
O505 O 0.76247 0.49301 0.24568 0.0
O506 O 0.75413 0.48346 0.30214 0.0
O507 O 0.72082 0.4861 0.29199 0.0
O508 O 0.77906 0.52532 0.28927 0.0
O509 O 0.79467 0.49168 0.28284 0.0
O510 O 0.73915 0.54521 0.27603 0.0
O511 O 0.72523 0.52047 0.28283 0.0
H512 H 0.66469 0.54671 0.21517 0.0
H513 H 0.64839 0.55466 0.17817 0.0
H514 H 0.68346 0.48787 0.16698 0.0
H515 H 0.70008 0.48012 0.20339 0.0
H516 H 0.77423 0.50973 0.33696 0.0
H517 H 0.79066 0.50425 0.37359 0.0
H518 H 0.85545 0.48695 0.33345 0.0
H519 H 0.83898 0.49213 0.29731 0.0
Ho520 Ho 0.73226 0.73858 0.99506 0.0
Ho521 Ho 0.74407 0.76972 0.02127 0.0
C522 C 0.69727 0.7639 0.0368 0.0
C523 C 0.71686 0.71071 0.98718 0.0
C524 C 0.70029 0.70156 1.00208 0.0
C525 C 0.70654 0.68296 0.01983 0.0
C526 C 0.6906 0.67562 0.03523 0.0
C527 C 0.66811 0.6866 0.03304 0.0
C528 C 0.66191 0.70502 0.01512 0.0
C529 C 0.6778 0.71237 0.9998 0.0
C530 C 0.73025 0.77866 0.97004 0.0
C531 C 0.78111 0.74005 0.98415 0.0
C532 C 0.75551 0.8012 0.027 0.0
C533 C 0.77755 0.8024 0.02702 0.0
C534 C 0.78929 0.80901 1.0055 0.0
C535 C 0.81069 0.80875 1.005 0.0
C536 C 0.82077 0.80212 0.02604 0.0
C537 C 0.80906 0.7956 0.04759 0.0
C538 C 0.78763 0.79577 0.04809 0.0
C539 C 0.75402 0.72773 0.04609 0.0
O540 O 0.70449 0.7473 0.02477 0.0
O541 O 0.70849 0.77718 0.03577 0.0
O542 O 0.70945 0.73165 0.97831 0.0
O543 O 0.73588 0.70484 0.99539 0.0
O544 O 0.7358 0.76114 0.96055 0.0
O545 O 0.72448 0.77434 0.99223 0.0
O546 O 0.77434 0.75701 0.99562 0.0
O547 O 0.76861 0.7283 0.9838 0.0
O548 O 0.74858 0.7884 0.045 0.0
O549 O 0.75135 0.79936 1.00646 0.0
O550 O 0.75734 0.74345 0.0531 0.0
O551 O 0.7467 0.73574 0.02637 0.0
H552 H 0.72374 0.67419 0.02202 0.0
H553 H 0.69589 0.66133 0.04882 0.0
H554 H 0.64476 0.71348 0.01251 0.0
H555 H 0.67239 0.72666 0.98623 0.0
H556 H 0.78204 0.8142 0.98892 0.0
H557 H 0.81934 0.8138 0.98812 0.0
H558 H 0.81624 0.79086 0.06417 0.0
H559 H 0.77902 0.79066 0.06496 0.0
Ho560 Ho 0.48008 0.00736 0.51318 0.0
Ho561 Ho 0.52415 1.00494 0.48128 0.0
C562 C 0.5079 0.96544 0.48624 0.0
C563 C 0.44063 0.00685 0.52748 0.0
C564 C 0.42695 0.99885 0.517 0.0
C565 C 0.43276 0.99498 0.49341 0.0
C566 C 0.42003 0.98737 0.48311 0.0
C567 C 0.40137 0.983 0.49638 0.0
C568 C 0.39579 0.98662 0.52024 0.0
C569 C 0.40843 0.9946 0.53041 0.0
C570 C 0.5154 0.99378 0.53695 0.0
C571 C 0.49864 0.04523 0.51174 0.0
C572 C 0.56136 0.00887 0.46158 0.0
C573 C 0.56993 0.02613 0.46296 0.0
C574 C 0.56974 0.03122 0.4853 0.0
C575 C 0.57129 0.05119 0.48683 0.0
C576 C 0.57315 0.06635 0.46623 0.0
C577 C 0.57535 0.06063 0.44377 0.0
C578 C 0.57365 0.04058 0.44214 0.0
C579 C 0.48794 0.01916 0.45865 0.0
O580 O 0.48835 0.97893 0.49355 0.0
O581 O 0.52597 0.97053 0.48345 0.0
O582 O 0.458 0.99172 0.536 0.0
O583 O 0.44499 0.02399 0.5146 0.0
O584 O 0.49554 1.00419 0.54578 0.0
O585 O 0.51497 0.98911 0.51711 0.0
O586 O 0.51718 0.03319 0.50067 0.0
O587 O 0.4804 0.04021 0.51591 0.0
O588 O 0.5439 0.01604 0.45038 0.0
O589 O 0.55942 0.99516 0.48132 0.0
O590 O 0.50697 0.0066 0.45038 0.0
O591 O 0.4893 0.02397 0.47798 0.0
H592 H 0.4472 0.99783 0.48291 0.0
H593 H 0.42476 0.98516 0.46464 0.0
H594 H 0.3819 0.98294 0.53127 0.0
H595 H 0.40389 0.99724 0.54877 0.0
H596 H 0.56683 0.02053 0.5017 0.0
H597 H 0.57006 0.05533 0.50422 0.0
H598 H 0.57716 0.07208 0.42764 0.0
H599 H 0.57372 0.03704 0.42473 0.0
Ho600 Ho 0.47562 0.49025 0.04097 0.0
Ho601 Ho 0.50854 0.50703 1.00277 0.0
C602 C 0.51058 0.45921 1.00339 0.0
C603 C 0.4481 0.47031 0.06024 0.0
C604 C 0.44384 0.45395 0.05023 0.0
C605 C 0.44866 0.45403 0.02558 0.0
C606 C 0.44664 0.43781 0.01556 0.0
C607 C 0.439 0.4214 0.02985 0.0
C608 C 0.43437 0.42112 0.05472 0.0
C609 C 0.43694 0.43723 0.06486 0.0
C610 C 0.51112 0.49059 0.05723 0.0
C611 C 0.47243 0.53869 0.03893 0.0
C612 C 0.53681 0.52617 0.9835 0.0
C613 C 0.54247 0.5419 0.99311 0.0
C614 C 0.53784 0.54239 0.01766 0.0
C615 C 0.54171 0.55793 0.02722 0.0
C616 C 0.55024 0.5735 0.01235 0.0
C617 C 0.5548 0.5731 0.98761 0.0
C618 C 0.55091 0.55738 0.97806 0.0
C619 C 0.47313 0.50656 0.98637 0.0
O620 O 0.49214 0.46392 0.01818 0.0
O621 O 0.5221 0.4726 0.99622 0.0
O622 O 0.46787 0.46412 0.06657 0.0
O623 O 0.44211 0.49023 0.04799 0.0
O624 O 0.49193 0.49397 0.06985 0.0
O625 O 0.51077 0.48563 0.03755 0.0
O626 O 0.49168 0.5335 0.02547 0.0
O627 O 0.46093 0.52523 0.04556 0.0
O628 O 0.51674 0.53322 0.97775 0.0
O629 O 0.54231 0.5062 0.99565 0.0
O630 O 0.49222 0.50367 0.97364 0.0
O631 O 0.47344 0.5115 1.00607 0.0
H632 H 0.45405 0.4667 0.01393 0.0
H633 H 0.45028 0.43873 0.99644 0.0
H634 H 0.42877 0.40846 0.06631 0.0
H635 H 0.43357 0.43663 0.08401 0.0
H636 H 0.53088 0.53093 0.0295 0.0
H637 H 0.5381 0.55759 0.0463 0.0
H638 H 0.56107 0.58509 0.9756 0.0
H639 H 0.55423 0.55749 0.95899 0.0
H640 H 0.94853 0.05673 0.07307 0.0
H641 H 0.95358 0.08592 0.0882 0.0
H642 H 0.00972 0.08463 0.03516 0.0
H643 H 0.00509 0.05508 0.02034 0.0
H644 H 0.02015 0.08119 0.07766 0.0
H645 H 0.94224 0.15025 0.06711 0.0
H646 H 0.93697 0.12579 0.08267 0.0
H647 H 0.94984 0.12691 0.05223 0.0
C648 C 0.96154 0.0631 0.06418 0.0
C649 C 0.97641 0.05358 0.04554 0.0
C650 C 0.96439 0.07986 0.07279 0.0
C651 C 0.98189 0.08768 0.06264 0.0
C652 C -0.00393 0.07892 0.04323 0.0
H653 H -0.00618 0.19096 0.12649 0.0
H654 H -0.00764 0.17126 0.09599 0.0
C655 C -0.00663 0.06204 0.03477 0.0
C656 C 0.98687 0.10303 0.07403 0.0
H657 H 0.96313 0.15027 0.09746 0.0
C658 C 0.00779 0.0965 0.0816 0.0
C659 C 0.97096 0.12322 0.07879 0.0
C660 C 0.94885 0.13206 0.06951 0.0
C661 C 0.01273 0.10892 0.09506 0.0
C662 C -0.00384 0.1281 0.10159 0.0
C663 C 0.97573 0.13538 0.09275 0.0
C664 C -0.00105 0.13977 0.11919 0.0
C665 C 0.03556 0.10116 0.10244 0.0
C666 C 0.00306 0.12862 0.14233 0.0
C667 C 0.0038 0.1398 0.15975 0.0
C668 C 0.00028 0.16244 0.15448 0.0
C669 C -0.00355 0.17356 0.13117 0.0
C670 C -0.00428 0.16232 0.1137 0.0
H671 H 0.0479 0.09107 0.08984 0.0
H672 H 0.04062 0.11519 0.10338 0.0
H673 H 0.03577 0.09077 0.12033 0.0
H674 H 0.00496 0.11137 0.14717 0.0
H675 H 0.00626 0.13081 0.17762 0.0
H676 H 0.81277 0.26836 0.48007 0.0
H677 H 0.84563 0.26591 0.4514 0.0
H678 H 0.83914 0.21119 0.42859 0.0
H679 H 0.80584 0.21386 0.45679 0.0
H680 H 0.88553 0.23356 0.44446 0.0
H681 H 0.83979 0.25354 0.36636 0.0
H682 H 0.82605 0.25655 0.3961 0.0
H683 H 0.83712 0.22997 0.38722 0.0
C684 C 0.81828 0.25573 0.46908 0.0
C685 C 0.80634 0.24153 0.4706 0.0
C686 C 0.83718 0.25433 0.45268 0.0
C687 C 0.8446 0.2387 0.43743 0.0
C688 C 0.8334 0.22377 0.43971 0.0
H689 H 0.94904 0.21331 0.31924 0.0
H690 H 0.92081 0.2104 0.35276 0.0
C691 C 0.81442 0.22524 0.45601 0.0
C692 C 0.86365 0.23846 0.41875 0.0
H693 H 0.87858 0.24362 0.35846 0.0
C694 C 0.88401 0.23578 0.42566 0.0
C695 C 0.86163 0.2415 0.39418 0.0
C696 C 0.83994 0.24577 0.38544 0.0
C697 C 0.90246 0.23575 0.40869 0.0
C698 C 0.90043 0.23865 0.38418 0.0
C699 C 0.88012 0.24126 0.37729 0.0
C700 C 0.919 0.23945 0.36524 0.0
C701 C 0.92406 0.23232 0.41708 0.0
C702 C 0.92749 0.2567 0.3612 0.0
C703 C 0.94362 0.25848 0.34196 0.0
C704 C 0.95157 0.24304 0.32637 0.0
C705 C 0.94341 0.22546 0.33088 0.0
C706 C 0.92722 0.22378 0.35003 0.0
H707 H 0.92426 0.2254 0.43639 0.0
H708 H 0.93798 0.22117 0.40683 0.0
H709 H 0.92673 0.24831 0.41414 0.0
H710 H 0.92114 0.26918 0.37249 0.0
H711 H 0.94944 0.27228 0.33899 0.0
H712 H 0.71992 0.05426 0.68447 0.0
H713 H 0.72178 0.08465 0.65219 0.0
H714 H 0.77781 0.0873 0.67856 0.0
H715 H 0.77653 0.05653 0.71024 0.0
H716 H 0.71643 0.12554 0.65313 0.0
H717 H 0.80085 0.08933 0.60991 0.0
H718 H 0.78722 0.07316 0.63207 0.0
H719 H 0.80088 0.0889 0.64095 0.0
C720 C 0.73288 0.06107 0.68319 0.0
C721 C 0.74823 0.05269 0.69991 0.0
C722 C 0.73388 0.07855 0.66471 0.0
C723 C 0.75021 0.08817 0.66247 0.0
C724 C 0.76548 0.07985 0.67924 0.0
H725 H 0.77123 0.20854 0.59165 0.0
H726 H 0.77044 0.17379 0.61665 0.0
C727 C 0.76464 0.06224 0.69754 0.0
C728 C 0.75061 0.10758 0.64348 0.0
H729 H 0.78468 0.12857 0.60054 0.0
C730 C 0.7313 0.12601 0.64142 0.0
C731 C 0.76992 0.10837 0.62793 0.0
C732 C 0.7908 0.08878 0.62764 0.0
C733 C 0.73105 0.1453 0.62507 0.0
C734 C 0.75058 0.14634 0.61034 0.0
C735 C 0.76973 0.12782 0.61194 0.0
C736 C 0.75172 0.16694 0.59423 0.0
C737 C 0.71008 0.16479 0.62414 0.0
C738 C 0.74175 0.17456 0.57303 0.0
C739 C 0.74244 0.19438 0.55852 0.0
C740 C 0.7529 0.20703 0.565 0.0
C741 C 0.76306 0.19918 0.58608 0.0
C742 C 0.76263 0.17931 0.60042 0.0
H743 H 0.69683 0.16211 0.63826 0.0
H744 H 0.71326 0.17961 0.62615 0.0
H745 H 0.70415 0.16809 0.6065 0.0
H746 H 0.73329 0.16528 0.56782 0.0
H747 H 0.73434 0.2001 0.54261 0.0
H748 H 0.92687 0.02785 1.00029 0.0
H749 H 0.89363 0.02905 0.98538 0.0
H750 H 0.93088 0.96977 0.95665 0.0
H751 H 0.96394 0.96859 0.97126 0.0
H752 H 0.89235 0.03038 0.93497 0.0
H753 H 0.87343 0.95861 0.99159 0.0
H754 H 0.88667 0.97409 1.00175 0.0
H755 H 0.90217 0.95457 0.98233 0.0
C756 C 0.9278 0.01502 0.99098 0.0
C757 C 0.94789 0.99825 0.98668 0.0
C758 C 0.90887 0.01566 0.98259 0.0
C759 C 0.90978 0.9993 0.97027 0.0
C760 C 0.92976 0.98229 0.96652 0.0
H761 H 0.85442 0.96491 0.8735 0.0
H762 H 0.87239 0.96753 0.90549 0.0
C763 C 0.94867 0.98181 0.97459 0.0
C764 C 0.89075 1.00102 0.95887 0.0
H765 H 0.85878 0.97175 0.95435 0.0
C766 C 0.88456 0.01791 0.9395 0.0
C767 C 0.88071 0.9847 0.96491 0.0
C768 C 0.88589 0.96701 0.98641 0.0
C769 C 0.86974 0.018 0.92488 0.0
C770 C 0.86065 1.00092 0.93012 0.0
C771 C 0.86586 0.98476 0.95035 0.0
C772 C 0.84788 0.99818 0.91326 0.0
C773 C 0.86511 0.0355 0.90304 0.0
C774 C 0.82775 0.01415 0.90766 0.0
C775 C 0.81753 0.01279 0.88922 0.0
C776 C 0.82729 0.99538 0.87619 0.0
C777 C 0.84672 0.97871 0.88293 0.0
C778 C 0.85691 0.9801 0.90131 0.0
H779 H 0.8763 0.04529 0.89946 0.0
H780 H 0.86685 0.02807 0.88707 0.0
H781 H 0.84793 0.04685 0.90569 0.0
H782 H 0.82037 0.02805 0.91697 0.0
H783 H 0.80261 0.02592 0.8844 0.0
H784 H 0.03871 0.95537 0.06258 0.0
H785 H 0.07238 0.95733 0.07339 0.0
H786 H 0.03342 0.01391 0.10621 0.0
H787 H -2e-05 0.01218 0.0953 0.0
H788 H 0.07277 0.01735 0.07449 0.0
H789 H 0.08857 0.94183 0.14341 0.0
H790 H 0.08441 0.94004 0.11418 0.0
H791 H 0.06195 0.9558 0.13286 0.0
C792 C 0.03744 0.96819 0.07208 0.0
C793 C 0.01684 0.98355 0.07823 0.0
C794 C 0.05659 0.96925 0.0783 0.0
C795 C 0.05529 0.98566 0.09074 0.0
C796 C 0.03472 1.00109 0.09666 0.0
H797 H 0.11808 0.03755 0.16338 0.0
H798 H 0.09734 0.03061 0.13712 0.0
C799 C 0.01564 0.99998 0.09059 0.0
C800 C 0.0751 0.98686 0.09815 0.0
H801 H 0.11037 0.96367 0.14049 0.0
C802 C 0.08131 1.00538 0.08854 0.0
C803 C 0.08625 0.97119 0.11647 0.0
C804 C 0.08001 0.95109 0.12752 0.0
C805 C 0.09776 0.00919 0.09744 0.0
C806 C 0.10786 0.99433 0.11692 0.0
C807 C 0.10259 0.9751 0.12558 0.0
C808 C 0.12187 0.99959 0.13037 0.0
C809 C 0.1036 0.02944 0.08629 0.0
C810 C 0.14252 0.98441 0.13554 0.0
C811 C 0.15423 0.98813 0.15106 0.0
C812 C 0.14542 0.00707 0.16175 0.0
C813 C 0.1252 0.02269 0.15566 0.0
C814 C 0.11347 0.01888 0.14033 0.0
H815 H 0.10129 0.03399 0.06709 0.0
H816 H 0.09238 0.04331 0.09521 0.0
H817 H 0.12087 0.02721 0.08807 0.0
H818 H 0.14923 0.96933 0.1282 0.0
H819 H 0.16963 0.97565 0.15559 0.0
H820 H 0.04204 0.4552 0.44706 0.0
H821 H 0.03824 0.42649 0.42978 0.0
H822 H 0.98667 0.41966 0.48616 0.0
H823 H 0.99012 0.44849 0.50339 0.0
H824 H 0.03952 0.38288 0.44553 0.0
H825 H 0.95586 0.439 0.42577 0.0
H826 H 0.97503 0.448 0.43579 0.0
H827 H 0.96 0.43254 0.45668 0.0
C828 C 0.03028 0.44722 0.45613 0.0
C829 C 0.01618 0.45434 0.47639 0.0
C830 C 0.02808 0.43086 0.44619 0.0
C831 C 0.01182 0.42136 0.45641 0.0
C832 C -0.00102 0.42715 0.47773 0.0
H833 H -0.00341 0.31914 0.39277 0.0
H834 H 0.00079 0.33827 0.42239 0.0
C835 C 0.00107 0.44356 0.4876 0.0
C836 C 0.00711 0.4069 0.44356 0.0
H837 H 0.96822 0.4046 0.41348 0.0
C838 C 0.02388 0.38746 0.4387 0.0
C839 C 0.98671 0.41314 0.4345 0.0
C840 C 0.9684 0.43438 0.43822 0.0
C841 C 0.02098 0.37427 0.42454 0.0
C842 C 0.00066 0.3806 0.41535 0.0
C843 C 0.9837 0.39974 0.42074 0.0
C844 C -0.00262 0.3689 0.39811 0.0
C845 C 0.04001 0.35425 0.41862 0.0
C846 C -0.00647 0.37995 0.3749 0.0
C847 C 0.99106 0.36916 0.35807 0.0
C848 C -0.00771 0.34707 0.36411 0.0
C849 C -0.00421 0.33609 0.38752 0.0
C850 C -0.00178 0.34696 0.40443 0.0
H851 H 0.05573 0.35398 0.42341 0.0
H852 H 0.03658 0.33931 0.42871 0.0
H853 H 0.04211 0.35352 0.3993 0.0
H854 H -0.00712 0.39686 0.36966 0.0
H855 H 0.98877 0.378 0.34011 0.0
H856 H 0.66971 0.24497 0.53671 0.0
H857 H 0.63602 0.24736 0.56399 0.0
H858 H 0.6462 0.29521 0.59594 0.0
H859 H 0.68017 0.29284 0.56885 0.0
H860 H 0.6352 0.23786 0.61527 0.0
H861 H 0.58023 0.32193 0.58354 0.0
H862 H 0.60414 0.30729 0.56509 0.0
H863 H 0.60738 0.31966 0.58815 0.0
C864 C 0.66479 0.25618 0.54935 0.0
C865 C 0.67787 0.26859 0.55062 0.0
C866 C 0.64544 0.25753 0.56492 0.0
C867 C 0.63854 0.27155 0.58187 0.0
C868 C 0.65109 0.28451 0.58275 0.0
H869 H 0.53705 0.2956 0.70137 0.0
H870 H 0.5658 0.29709 0.66808 0.0
C871 C 0.67056 0.28307 0.56727 0.0
C872 C 0.61916 0.27134 0.59979 0.0
H873 H 0.56764 0.30308 0.61999 0.0
C874 C 0.62034 0.25205 0.61622 0.0
C875 C 0.59991 0.28993 0.60105 0.0
C876 C 0.59764 0.31087 0.58343 0.0
C877 C 0.603 0.25098 0.63431 0.0
C878 C 0.58363 0.26956 0.63557 0.0
C879 C 0.58241 0.28882 0.61897 0.0
C880 C 0.56489 0.26956 0.65459 0.0
C881 C 0.60598 0.23021 0.65241 0.0
C882 C 0.55428 0.25402 0.65769 0.0
C883 C 0.53793 0.25298 0.67689 0.0
C884 C 0.53162 0.26772 0.69314 0.0
C885 C 0.54149 0.28398 0.68924 0.0
C886 C 0.55796 0.28486 0.67019 0.0
H887 H 0.62363 0.22002 0.65282 0.0
H888 H 0.59887 0.23393 0.67059 0.0
H889 H 0.59744 0.2203 0.64762 0.0
H890 H 0.55891 0.24242 0.64551 0.0
H891 H 0.53055 0.24037 0.67922 0.0
H892 H 0.70356 0.9536 0.81413 0.0
H893 H 0.70273 0.92239 0.84537 0.0
H894 H 0.75668 0.92717 0.87381 0.0
H895 H 0.75817 0.95793 0.84191 0.0
H896 H 0.76438 0.8866 0.87234 0.0
H897 H 0.67843 0.91784 0.91353 0.0
H898 H 0.67934 0.91843 0.88227 0.0
H899 H 0.69117 0.93526 0.8921 0.0
C900 C 0.71506 0.94827 0.82723 0.0
C901 C 0.73085 0.95847 0.82549 0.0
C902 C 0.71446 0.93041 0.84528 0.0
C903 C 0.72932 0.9225 0.86247 0.0
C904 C 0.74492 0.93289 0.86095 0.0
H905 H 0.7144 0.81922 0.98453 0.0
H906 H 0.71521 0.85452 0.96037 0.0
C907 C 0.74572 0.95059 0.84268 0.0
C908 C 0.72954 0.90258 0.88095 0.0
H909 H 0.69642 0.87871 0.92188 0.0
C910 C 0.74951 0.88507 0.88333 0.0
C911 C 0.71034 0.90046 0.89585 0.0
C912 C 0.68869 0.91911 0.89601 0.0
C913 C 0.75065 0.8654 0.8993 0.0
C914 C 0.73115 0.86268 0.91287 0.0
C915 C 0.71135 0.88049 0.91127 0.0
C916 C 0.73086 0.84125 0.92798 0.0
C917 C 0.7729 0.84783 0.90158 0.0
C918 C 0.73901 0.82199 0.91794 0.0
C919 C 0.73886 0.80187 0.93177 0.0
C920 C 0.73024 0.80039 0.95602 0.0
C921 C 0.72153 0.81971 0.96604 0.0
C922 C 0.72188 0.83992 0.95217 0.0
H923 H 0.78633 0.855 0.89707 0.0
H924 H 0.77391 0.83824 0.91991 0.0
H925 H 0.77583 0.83648 0.88889 0.0
H926 H 0.74535 0.8225 0.89922 0.0
H927 H 0.74546 0.78739 0.92335 0.0
H928 H 0.17742 0.29684 0.06516 0.0
H929 H 0.14434 0.29774 0.09334 0.0
H930 H 0.14194 0.24126 0.07031 0.0
H931 H 0.17503 0.2401 0.04224 0.0
H932 H 0.10135 0.30071 0.08686 0.0
H933 H 0.14383 0.22201 0.14268 0.0
H934 H 0.1586 0.237 0.12037 0.0
H935 H 0.14563 0.22066 0.11169 0.0
C936 C 0.16978 0.28471 0.06591 0.0
C937 C 0.17908 0.26826 0.05155 0.0
C938 C 0.15086 0.28525 0.08205 0.0
C939 C 0.14092 0.26933 0.08424 0.0
C940 C 0.14961 0.25345 0.06927 0.0
H941 H 0.03566 0.23685 0.18332 0.0
H942 H 0.06406 0.23932 0.14986 0.0
C943 C 0.16851 0.25288 0.05313 0.0
C944 C 0.12183 0.26898 0.10261 0.0
H945 H 0.10549 0.23793 0.15298 0.0
C946 C 0.10222 0.28701 0.10134 0.0
C947 C 0.12303 0.25109 0.1215 0.0
C948 C 0.14394 0.23165 0.12437 0.0
C949 C 0.08366 0.28747 0.11825 0.0
C950 C 0.08489 0.26961 0.1372 0.0
C951 C 0.1045 0.25157 0.1384 0.0
C952 C 0.06625 0.26932 0.15629 0.0
C953 C 0.06278 0.3069 0.11539 0.0
C954 C 0.05787 0.28545 0.171 0.0
C955 C 0.04151 0.28415 0.19012 0.0
C956 C 0.03335 0.26656 0.19509 0.0
C957 C 0.0415 0.25065 0.18004 0.0
C958 C 0.0578 0.25201 0.16089 0.0
H959 H 0.06246 0.31582 0.09673 0.0
H960 H 0.048 0.30175 0.1206 0.0
H961 H 0.06178 0.3185 0.12707 0.0
H962 H 0.06446 0.29869 0.16817 0.0
H963 H 0.03578 0.29659 0.20143 0.0
H964 H 0.76307 0.45792 0.34219 0.0
H965 H 0.76242 0.42607 0.37302 0.0
H966 H 0.70586 0.42416 0.34722 0.0
H967 H 0.7062 0.45604 0.31651 0.0
H968 H 0.72196 0.4189 0.40978 0.0
H969 H 0.75915 0.36206 0.34381 0.0
H970 H 0.76261 0.3885 0.33928 0.0
H971 H 0.73684 0.38679 0.33544 0.0
C972 C 0.75029 0.45094 0.34323 0.0
C973 C 0.73469 0.45964 0.32674 0.0
C974 C 0.74995 0.43271 0.36091 0.0
C975 C 0.73417 0.42263 0.36237 0.0
C976 C 0.71823 0.43162 0.34641 0.0
H977 H 0.71375 0.30116 0.43128 0.0
H978 H 0.71423 0.33604 0.40675 0.0
C979 C 0.71842 0.44993 0.32887 0.0
C980 C 0.73495 0.40209 0.37967 0.0
H981 H 0.74753 0.34699 0.38261 0.0
C982 C 0.72765 0.40312 0.40394 0.0
C983 C 0.74238 0.38154 0.37203 0.0
C984 C 0.75084 0.37944 0.34626 0.0
C985 C 0.72689 0.38425 0.42062 0.0
C986 C 0.73414 0.36362 0.41292 0.0
C987 C 0.74188 0.36267 0.38866 0.0
C988 C 0.73292 0.34297 0.42922 0.0
C989 C 0.71752 0.38678 0.4461 0.0
C990 C 0.74312 0.33502 0.45034 0.0
C991 C 0.74251 0.31508 0.46468 0.0
C992 C 0.73207 0.3025 0.45802 0.0
C993 C 0.7219 0.31048 0.43698 0.0
C994 C 0.72222 0.33044 0.42286 0.0
H995 H 0.70726 0.40403 0.44763 0.0
H996 H 0.70731 0.37617 0.45367 0.0
H997 H 0.73124 0.38194 0.45705 0.0
H998 H 0.75203 0.34389 0.45547 0.0
H999 H 0.75075 0.30913 0.48052 0.0
H1000 H 0.51688 0.01938 0.56654 0.0
H1001 H 0.54924 0.02025 0.58065 0.0
H1002 H 0.59099 0.96921 0.54097 0.0
H1003 H 0.55836 0.96843 0.52637 0.0
H1004 H 0.59339 0.96456 0.59551 0.0
H1005 H 0.60126 0.04194 0.54 0.0
H1006 H 0.57397 0.04037 0.54897 0.0
H1007 H 0.59292 0.02309 0.52889 0.0
C1008 C 0.53293 0.00831 0.56079 0.0
C1009 C 0.53518 0.99374 0.54546 0.0
C1010 C 0.55139 0.00898 0.5687 0.0
C1011 C 0.57243 0.99495 0.56164 0.0
C1012 C 0.57484 0.98028 0.54639 0.0
H1013 H 0.67927 0.97945 0.64335 0.0
H1014 H 0.66237 0.97436 0.61178 0.0
C1015 C 0.55628 0.97982 0.53815 0.0
C1016 C 0.59143 0.99493 0.57182 0.0
H1017 H 0.61936 0.02856 0.57474 0.0
C1018 C 0.59957 0.97822 0.59067 0.0
C1019 C 0.59922 0.01286 0.56543 0.0
C1020 C 0.59155 0.03064 0.54464 0.0
C1021 C 0.61416 0.97979 0.60451 0.0
C1022 C 0.62108 0.99838 0.59889 0.0
C1023 C 0.61398 0.01438 0.57904 0.0
C1024 C 0.6332 1.00291 0.61515 0.0
C1025 C 0.62075 0.96237 0.62603 0.0
C1026 C 0.62298 0.02132 0.62647 0.0
C1027 C 0.63273 0.02448 0.64417 0.0
C1028 C 0.65287 0.00922 0.65095 0.0
C1029 C 0.66376 0.99151 0.63852 0.0
C1030 C 0.65402 0.98843 0.62067 0.0
H1031 H 0.61083 0.95127 0.63024 0.0
H1032 H 0.63832 0.95227 0.62254 0.0
H1033 H 0.61883 0.96995 0.64195 0.0
H1034 H 0.60699 0.0328 0.62231 0.0
H1035 H 0.62415 0.03852 0.65307 0.0
H1036 H 0.01589 0.92672 0.99071 0.0
H1037 H 0.01082 0.89961 0.97205 0.0
H1038 H 0.95471 0.8976 0.0238 0.0
H1039 H 0.95976 0.9248 0.04281 0.0
H1040 H 0.00701 0.85684 0.98779 0.0
H1041 H 0.92939 0.92064 0.95899 0.0
H1042 H 0.9491 0.92717 0.97123 0.0
H1043 H 0.93164 0.91341 0.99044 0.0
C1044 C 0.0028 0.92013 0.99857 0.0
C1045 C 0.98788 0.92828 0.01791 0.0
C1046 C -0.00011 0.90465 0.98783 0.0
C1047 C 0.98209 0.897 0.99626 0.0
C1048 C 0.96824 0.90371 0.01677 0.0
H1049 H 0.96958 0.80741 0.91065 0.0
H1050 H 0.96821 0.82219 0.94646 0.0
C1051 C 0.97112 0.91925 0.02753 0.0
C1052 C 0.97701 0.88385 0.98197 0.0
H1053 H 0.94235 0.88847 0.94244 0.0
C1054 C -0.00734 0.86348 0.97821 0.0
C1055 C 0.95829 0.8927 0.96946 0.0
C1056 C 0.94115 0.91472 0.97251 0.0
C1057 C 0.99068 0.85222 0.96132 0.0
C1058 C 0.97249 0.86158 0.94802 0.0
C1059 C 0.95625 0.88137 0.95271 0.0
C1060 C 0.97166 0.85281 0.92693 0.0
C1061 C 0.00877 0.83115 0.95673 0.0
C1062 C 0.97346 0.86535 0.90421 0.0
C1063 C 0.97424 0.85702 0.88384 0.0
C1064 C 0.97313 0.83595 0.88571 0.0
C1065 C 0.97075 0.82359 0.90858 0.0
C1066 C 0.96995 0.83199 0.92904 0.0
H1067 H 0.02316 0.8277 0.96628 0.0
H1068 H 0.00232 0.8173 0.96283 0.0
H1069 H 0.01444 0.83179 0.93734 0.0
H1070 H 0.9749 0.88142 0.90218 0.0
H1071 H 0.97647 0.86686 0.86657 0.0
H1072 H 0.11835 0.02485 1.00833 0.0
H1073 H 0.13548 0.05005 0.01444 0.0
H1074 H 0.07139 0.09571 0.03396 0.0
H1075 H 0.05409 0.07054 0.02792 0.0
H1076 H 0.127 0.09243 0.98847 0.0
H1077 H 0.10674 0.09439 0.08609 0.0
H1078 H 0.10612 0.07232 0.07314 0.0
H1079 H 0.08454 0.09839 0.06961 0.0
C1080 C 0.10791 0.04025 0.01394 0.0
C1081 C 0.0849 0.04582 0.01745 0.0
C1082 C 0.1177 0.05451 0.01762 0.0
C1083 C 0.10469 0.07459 0.02489 0.0
C1084 C 0.08173 0.08007 0.02887 0.0
H1085 H 0.15158 0.18158 0.02794 0.0
H1086 H 0.12747 0.15946 0.03402 0.0
C1087 C 0.07189 0.06573 0.02529 0.0
C1088 C 0.1153 0.09044 0.02598 0.0
H1089 H 0.1275 0.11618 0.06379 0.0
C1090 C 0.12703 0.09768 1.00493 0.0
C1091 C 0.1149 0.09758 0.04739 0.0
C1092 C 0.10249 0.09026 0.07044 0.0
C1093 C 0.13905 0.11128 1.00483 0.0
C1094 C 0.13964 0.11743 0.02647 0.0
C1095 C 0.12712 0.11111 0.04735 0.0
C1096 C 0.15409 0.12965 0.02754 0.0
C1097 C 0.15122 0.11876 0.9816 0.0
C1098 C 0.17696 0.11981 0.02302 0.0
C1099 C 0.19065 0.13233 0.01945 0.0
C1100 C 0.18162 0.15481 0.02058 0.0
C1101 C 0.15887 0.16424 0.02705 0.0
C1102 C 0.14513 0.15169 0.03048 0.0
H1103 H 0.14463 0.11733 0.96595 0.0
H1104 H 0.15021 0.13605 0.98022 0.0
H1105 H 0.16886 0.10837 0.98082 0.0
H1106 H 0.1841 0.1027 0.02102 0.0
H1107 H 0.20818 0.12469 0.01478 0.0
H1108 H 0.6801 0.53574 0.29142 0.0
H1109 H 0.64379 0.56488 0.29004 0.0
H1110 H 0.67569 0.61366 0.26803 0.0
H1111 H 0.71165 0.5849 0.26923 0.0
H1112 H 0.62507 0.60205 0.3149 0.0
H1113 H 0.63406 0.62853 0.21702 0.0
H1114 H 0.65116 0.60241 0.23143 0.0
H1115 H 0.65718 0.62696 0.23052 0.0
C1116 C 0.67929 0.55269 0.28625 0.0
C1117 C 0.69875 0.55801 0.28031 0.0
C1118 C 0.65856 0.56932 0.2855 0.0
C1119 C 0.65698 0.59149 0.27856 0.0
C1120 C 0.67643 0.59671 0.27299 0.0
H1121 H 0.5701 0.72296 0.26446 0.0
H1122 H 0.59957 0.68752 0.26592 0.0
C1123 C 0.69702 0.58021 0.27383 0.0
C1124 C 0.63521 0.60944 0.27735 0.0
H1125 H 0.60646 0.65403 0.23981 0.0
C1126 C 0.62076 0.61321 0.29842 0.0
C1127 C 0.62952 0.62397 0.25583 0.0
C1128 C 0.64368 0.62018 0.23236 0.0
C1129 C 0.6015 0.63182 0.29878 0.0
C1130 C 0.5964 0.64692 0.27744 0.0
C1131 C 0.61037 0.64257 0.2562 0.0
C1132 C 0.57789 0.66829 0.27703 0.0
C1133 C 0.58735 0.6358 0.3222 0.0
C1134 C 0.55571 0.66942 0.28267 0.0
C1135 C 0.53867 0.68986 0.28184 0.0
C1136 C 0.54356 0.70946 0.27535 0.0
C1137 C 0.56574 0.70819 0.26964 0.0
C1138 C 0.58265 0.6879 0.27042 0.0
H1139 H 0.59547 0.62459 0.33763 0.0
H1140 H 0.58339 0.65299 0.32467 0.0
H1141 H 0.57161 0.63316 0.32215 0.0
H1142 H 0.55156 0.65455 0.28745 0.0
H1143 H 0.52173 0.69032 0.28614 0.0
H1144 H 0.30223 0.86297 0.44941 0.0
H1145 H 0.32367 0.88775 0.43491 0.0
H1146 H 0.29019 0.92408 0.49219 0.0
H1147 H 0.26927 0.89928 0.50715 0.0
H1148 H 0.30132 0.95 0.44451 0.0
H1149 H 0.3705 0.87835 0.48098 0.0
H1150 H 0.35607 0.87505 0.45931 0.0
H1151 H 0.34229 0.87916 0.48862 0.0
C1152 C 0.2992 0.87646 0.45868 0.0
C1153 C 0.28435 0.87889 0.47971 0.0
C1154 C 0.31132 0.89067 0.45025 0.0
C1155 C 0.3086 0.90753 0.46267 0.0
C1156 C 0.29241 0.91118 0.48233 0.0
H1157 H 0.35671 0.99102 0.50458 0.0
H1158 H 0.33575 0.9742 0.48942 0.0
C1159 C 0.28041 0.89697 0.49083 0.0
C1160 C 0.3247 0.91911 0.45809 0.0
H1161 H 0.37462 0.91268 0.47332 0.0
C1162 C 0.31759 0.94184 0.45022 0.0
C1163 C 0.34594 0.90831 0.46541 0.0
C1164 C 0.35428 0.88389 0.47416 0.0
C1165 C 0.33075 0.95427 0.45079 0.0
C1166 C 0.35114 0.9437 0.46017 0.0
C1167 C 0.35892 0.92077 0.46628 0.0
C1168 C 0.36342 0.95599 0.46675 0.0
C1169 C 0.32246 0.97862 0.44192 0.0
C1170 C 0.38608 0.95096 0.45953 0.0
C1171 C 0.39833 0.95995 0.46885 0.0
C1172 C 0.38813 0.97429 0.48553 0.0
C1173 C 0.36527 0.97973 0.49218 0.0
C1174 C 0.3531 0.97052 0.48307 0.0
H1175 H 0.31158 0.98269 0.4278 0.0
H1176 H 0.31266 0.98719 0.4569 0.0
H1177 H 0.33629 0.98493 0.43467 0.0
H1178 H 0.39444 0.93949 0.44726 0.0
H1179 H 0.41594 0.95495 0.4636 0.0
H1180 H 0.02055 0.6919 0.7878 0.0
H1181 H 0.04992 0.65604 0.78706 0.0
H1182 H 0.09862 0.68824 0.7673 0.0
H1183 H 0.06955 0.72385 0.76785 0.0
H1184 H 0.10405 0.65608 0.73919 0.0
H1185 H 0.09451 0.6239 0.83654 0.0
H1186 H 0.07027 0.63371 0.82145 0.0
H1187 H 0.08288 0.65266 0.82463 0.0
C1188 C 0.03754 0.69125 0.78335 0.0
C1189 C 0.04277 0.71066 0.77799 0.0
C1190 C 0.0543 0.67077 0.78304 0.0
C1191 C 0.07652 0.66942 0.77736 0.0
C1192 C 0.08164 0.68884 0.7718 0.0
H1193 H 0.20941 0.58641 0.76646 0.0
H1194 H 0.17333 0.61497 0.76581 0.0
C1195 C 0.06499 0.7092 0.77218 0.0
C1196 C 0.09469 0.64799 0.77685 0.0
H1197 H 0.12363 0.60204 0.81274 0.0
C1198 C 0.10816 0.64415 0.75523 0.0
C1199 C 0.09999 0.63231 0.79773 0.0
C1200 C 0.0863 0.63576 0.82149 0.0
C1201 C 0.12714 0.62548 0.75408 0.0
C1202 C 0.1331 0.6104 0.77518 0.0
C1203 C 0.11908 0.61364 0.7966 0.0
C1204 C 0.15489 0.59255 0.77571 0.0
C1205 C 0.14087 0.62226 0.73029 0.0
C1206 C 0.15661 0.57033 0.78206 0.0
C1207 C 0.1774 0.55381 0.78248 0.0
C1208 C 0.19673 0.55934 0.77685 0.0
C1209 C 0.19486 0.58159 0.77084 0.0
C1210 C 0.17421 0.59797 0.77032 0.0
H1211 H 0.13095 0.63101 0.71526 0.0
H1212 H 0.15442 0.62897 0.72844 0.0
H1213 H 0.14827 0.60459 0.72881 0.0
H1214 H 0.1419 0.56577 0.78646 0.0
H1215 H 0.17836 0.5368 0.78722 0.0
H1216 H 0.78626 0.38714 0.49294 0.0
H1217 H 0.81423 0.40456 0.48833 0.0
H1218 H 0.8651 0.34108 0.49346 0.0
H1219 H 0.83733 0.32355 0.49844 0.0
H1220 H 0.86137 0.3664 0.52884 0.0
H1221 H 0.86558 0.41388 0.43719 0.0
H1222 H 0.83813 0.41698 0.45174 0.0
H1223 H 0.85588 0.3907 0.44468 0.0
C1224 C 0.80346 0.37697 0.49252 0.0
C1225 C 0.80963 0.35403 0.49618 0.0
C1226 C 0.8194 0.38693 0.48964 0.0
C1227 C 0.84166 0.37404 0.49038 0.0
C1228 C 0.84799 0.35123 0.4926 0.0
H1229 H 0.94187 0.43017 0.49869 0.0
H1230 H 0.92486 0.40637 0.48878 0.0
C1231 C 0.8321 0.34128 0.49536 0.0
C1232 C 0.85757 0.38406 0.493 0.0
H1233 H 0.87968 0.42388 0.46661 0.0
C1234 C 0.86571 0.37872 0.5151 0.0
C1235 C 0.86318 0.39998 0.47498 0.0
C1236 C 0.85542 0.40564 0.45071 0.0
C1237 C 0.87835 0.38987 0.52014 0.0
C1238 C 0.88285 0.40668 0.50263 0.0
C1239 C 0.87586 0.41114 0.48004 0.0
C1240 C 0.89317 0.42097 0.50827 0.0
C1241 C 0.88619 0.3842 0.54439 0.0
C1242 C 0.8808 0.437 0.52235 0.0
C1243 C 0.89028 0.45083 0.52771 0.0
C1244 C 0.91234 0.44872 0.51915 0.0
C1245 C 0.92473 0.43243 0.50519 0.0
C1246 C 0.91514 0.41875 0.49963 0.0
H1247 H 0.88485 0.36826 0.55427 0.0
H1248 H 0.90358 0.38346 0.54266 0.0
H1249 H 0.87602 0.39718 0.55506 0.0
H1250 H 0.86372 0.43893 0.52897 0.0
H1251 H 0.88022 0.46343 0.53814 0.0
H1252 H 0.26996 0.9303 0.24585 0.0
H1253 H 0.30517 0.90046 0.24393 0.0
H1254 H 0.33953 0.94657 0.23507 0.0
H1255 H 0.30399 0.97672 0.23727 0.0
H1256 H 0.33974 0.89427 0.20736 0.0
H1257 H 0.36723 0.89978 0.29027 0.0
H1258 H 0.33918 0.91336 0.28362 0.0
H1259 H 0.36029 0.92448 0.26861 0.0
C1260 C 0.28499 0.93416 0.24347 0.0
C1261 C 0.28418 0.9559 0.24168 0.0
C1262 C 0.30515 0.91704 0.24237 0.0
C1263 C 0.32508 0.92113 0.2396 0.0
C1264 C 0.3244 0.9429 0.2376 0.0
H1265 H 0.45768 0.81878 0.23762 0.0
H1266 H 0.42838 0.85493 0.23426 0.0
C1267 C 0.3041 0.96014 0.23867 0.0
C1268 C 0.34632 0.90242 0.23854 0.0
H1269 H 0.39056 0.87178 0.26898 0.0
C1270 C 0.35093 0.8895 0.22073 0.0
C1271 C 0.36105 0.89616 0.2559 0.0
C1272 C 0.35673 0.90901 0.27582 0.0
C1273 C 0.36944 0.87032 0.22014 0.0
C1274 C 0.38369 0.86358 0.23803 0.0
C1275 C 0.37964 0.87693 0.25529 0.0
C1276 C 0.40169 0.84187 0.24013 0.0
C1277 C 0.37348 0.85727 0.20046 0.0
C1278 C 0.39646 0.82253 0.24488 0.0
C1279 C 0.41306 0.80201 0.2469 0.0
C1280 C 0.43535 0.80026 0.2442 0.0
C1281 C 0.44066 0.81961 0.23963 0.0
C1282 C 0.42395 0.84025 0.23777 0.0
H1283 H 0.36514 0.8675 0.18473 0.0
H1284 H 0.39138 0.85013 0.19467 0.0
H1285 H 0.36682 0.84361 0.20712 0.0
H1286 H 0.37944 0.8233 0.2472 0.0
H1287 H 0.40838 0.78745 0.25061 0.0
H1288 H 0.27515 0.43054 0.75802 0.0
H1289 H 0.31099 0.40163 0.75855 0.0
H1290 H 0.34323 0.45 0.73412 0.0
H1291 H 0.30698 0.47937 0.73354 0.0
H1292 H 0.35931 0.41182 0.70897 0.0
H1293 H 0.35562 0.38747 0.80714 0.0
H1294 H 0.33104 0.38998 0.79571 0.0
H1295 H 0.33877 0.41385 0.79292 0.0
C1296 C 0.28983 0.43512 0.75278 0.0
C1297 C 0.28824 0.45726 0.74581 0.0
C1298 C 0.31033 0.41854 0.75323 0.0
C1299 C 0.32981 0.42363 0.74669 0.0
C1300 C 0.32839 0.44572 0.7394 0.0
H1301 H 0.4615 0.32034 0.73188 0.0
H1302 H 0.43342 0.357 0.73181 0.0
C1303 C 0.30772 0.46246 0.73912 0.0
C1304 C 0.35139 0.40552 0.74707 0.0
H1305 H 0.38092 0.36092 0.78392 0.0
C1306 C 0.36435 0.40091 0.72537 0.0
C1307 C 0.35793 0.39132 0.76849 0.0
C1308 C 0.34524 0.39597 0.79243 0.0
C1309 C 0.38288 0.38171 0.72441 0.0
C1310 C 0.38874 0.36691 0.74575 0.0
C1311 C 0.37639 0.37216 0.76754 0.0
C1312 C 0.40619 0.34497 0.74574 0.0
C1313 C 0.39528 0.37676 0.70045 0.0
C1314 C 0.40035 0.32603 0.75398 0.0
C1315 C 0.41629 0.30522 0.75412 0.0
C1316 C 0.43852 0.3028 0.74615 0.0
C1317 C 0.44448 0.32172 0.73806 0.0
C1318 C 0.42844 0.34266 0.7379 0.0
H1319 H 0.38644 0.38793 0.68544 0.0
H1320 H 0.41164 0.37868 0.6987 0.0
H1321 H 0.39803 0.35958 0.69884 0.0
H1322 H 0.38334 0.32737 0.76016 0.0
H1323 H 0.41117 0.29098 0.76055 0.0
H1324 H 0.16854 0.7509 0.5448 0.0
H1325 H 0.13566 0.75345 0.57344 0.0
H1326 H 0.14939 0.7991 0.60558 0.0
H1327 H 0.18254 0.7966 0.57703 0.0
H1328 H 0.13576 0.74244 0.62379 0.0
H1329 H 0.08328 0.82868 0.59643 0.0
H1330 H 0.10648 0.81425 0.57706 0.0
H1331 H 0.11089 0.82483 0.60097 0.0
C1332 C 0.1646 0.76163 0.5578 0.0
C1333 C 0.1784 0.77344 0.55861 0.0
C1334 C 0.1457 0.76309 0.57417 0.0
C1335 C 0.13995 0.77658 0.59154 0.0
C1336 C 0.15331 0.78884 0.59209 0.0
H1337 H 0.03836 0.79702 0.71333 0.0
H1338 H 0.0679 0.79962 0.68115 0.0
C1339 C 0.17233 0.78732 0.57577 0.0
C1340 C 0.12082 0.77663 0.60999 0.0
H1341 H 0.07033 0.8091 0.63204 0.0
C1342 C 0.1214 0.75698 0.62554 0.0
C1343 C 0.10219 0.79566 0.61235 0.0
C1344 C 0.10047 0.81705 0.59573 0.0
C1345 C 0.10402 0.75589 0.64357 0.0
C1346 C 0.08522 0.77485 0.64577 0.0
C1347 C 0.08468 0.79455 0.6303 0.0
C1348 C 0.06608 0.77448 0.66417 0.0
C1349 C 0.10627 0.73453 0.66049 0.0
C1350 C 0.0547 0.76002 0.66491 0.0
C1351 C 0.0379 0.7584 0.68334 0.0
C1352 C 0.03188 0.77144 0.70129 0.0
C1353 C 0.04255 0.78672 0.69984 0.0
C1354 C 0.05948 0.78821 0.68145 0.0
H1355 H 0.12377 0.72377 0.66073 0.0
H1356 H 0.09919 0.73741 0.67895 0.0
H1357 H 0.09729 0.72561 0.65462 0.0
H1358 H 0.05909 0.74967 0.65143 0.0
H1359 H 0.02993 0.7466 0.68373 0.0
H1360 H 0.26811 0.95525 0.33547 0.0
H1361 H 0.26778 0.92392 0.3672 0.0
H1362 H 0.205 0.92786 0.35068 0.0
H1363 H 0.20503 0.95924 0.31913 0.0
H1364 H 0.23006 0.92007 0.40907 0.0
H1365 H 0.25209 0.86331 0.34365 0.0
H1366 H 0.25833 0.8885 0.33689 0.0
H1367 H 0.23065 0.8893 0.33733 0.0
C1368 C 0.25409 0.94963 0.33873 0.0
C1369 C 0.2366 0.95984 0.32462 0.0
C1370 C 0.25394 0.93172 0.35692 0.0
C1371 C 0.23643 0.92346 0.36125 0.0
C1372 C 0.21872 0.93391 0.34762 0.0
H1373 H 0.20861 0.80764 0.43741 0.0
H1374 H 0.21059 0.84155 0.41173 0.0
C1375 C 0.21876 0.95192 0.32959 0.0
C1376 C 0.237 0.90334 0.37919 0.0
H1377 H 0.24303 0.84934 0.38379 0.0
C1378 C 0.23297 0.90454 0.40364 0.0
C1379 C 0.24091 0.8831 0.37207 0.0
C1380 C 0.2459 0.88075 0.34608 0.0
C1381 C 0.23185 0.88625 0.42111 0.0
C1382 C 0.23542 0.86597 0.41398 0.0
C1383 C 0.2401 0.86477 0.38946 0.0
C1384 C 0.23334 0.84604 0.43119 0.0
C1385 C 0.22612 0.88916 0.44693 0.0
C1386 C 0.24523 0.83707 0.45109 0.0
C1387 C 0.24366 0.81777 0.46621 0.0
C1388 C 0.23058 0.80681 0.46143 0.0
C1389 C 0.21877 0.81575 0.4416 0.0
C1390 C 0.21999 0.83515 0.42683 0.0
H1391 H 0.21754 0.90665 0.44875 0.0
H1392 H 0.21549 0.87956 0.45686 0.0
H1393 H 0.24153 0.8834 0.45533 0.0
H1394 H 0.25619 0.84461 0.45462 0.0
H1395 H 0.2533 0.81097 0.48105 0.0
H1396 H 0.96839 0.70412 0.62872 0.0
H1397 H 0.97136 0.68532 0.59568 0.0
H1398 H 0.03445 0.63958 0.61396 0.0
H1399 H 0.03147 0.65806 0.64727 0.0
H1400 H 0.00579 0.67182 0.5549 0.0
H1401 H -0.00823 0.60327 0.62364 0.0
H1402 H 0.98638 0.63009 0.63051 0.0
H1403 H 0.01419 0.61171 0.62644 0.0
C1404 C 0.98304 0.69025 0.62549 0.0
C1405 C -0.00044 0.68238 0.64078 0.0
C1406 C 0.98478 0.67965 0.60651 0.0
C1407 C 0.00301 0.66098 0.60259 0.0
C1408 C 0.02021 0.65394 0.6168 0.0
H1409 H 0.03027 0.57389 0.50085 0.0
H1410 H 0.03166 0.60121 0.52199 0.0
C1411 C 0.01852 0.66458 0.63575 0.0
C1412 C 0.0027 0.64749 0.58557 0.0
H1413 H -0.0039 0.59928 0.58349 0.0
C1414 C 0.00381 0.6559 0.56105 0.0
C1415 C -0.00019 0.62688 0.5938 0.0
C1416 C -0.0022 0.61742 0.62003 0.0
C1417 C 0.00221 0.64407 0.5445 0.0
C1418 C -0.00072 0.62352 0.55281 0.0
C1419 C -0.00176 0.61513 0.57727 0.0
C1420 C -0.00265 0.61016 0.53658 0.0
C1421 C 0.00298 0.65375 0.51836 0.0
C1422 C 0.97748 0.60638 0.53758 0.0
C1423 C 0.97653 0.59089 0.52529 0.0
C1424 C -0.00449 0.57883 0.51195 0.0
C1425 C 0.01517 0.58334 0.51029 0.0
C1426 C 0.01607 0.59887 0.52249 0.0
H1427 H 0.00452 0.67031 0.51485 0.0
H1428 H 0.01718 0.64285 0.50823 0.0
H1429 H 0.98783 0.65485 0.51154 0.0
H1430 H 0.96293 0.61482 0.54862 0.0
H1431 H 0.9612 0.58771 0.52708 0.0
H1432 H 0.30877 0.77569 0.47648 0.0
H1433 H 0.3418 0.77157 0.44768 0.0
H1434 H 0.33677 0.71302 0.43231 0.0
H1435 H 0.30345 0.71716 0.46081 0.0
H1436 H 0.38206 0.73843 0.44462 0.0
H1437 H 0.33891 0.75003 0.36641 0.0
H1438 H 0.32432 0.75589 0.39517 0.0
H1439 H 0.33588 0.72808 0.38971 0.0
C1440 C 0.31469 0.76183 0.46712 0.0
C1441 C 0.30326 0.74683 0.47093 0.0
C1442 C 0.33363 0.75951 0.45061 0.0
C1443 C 0.34158 0.74221 0.43749 0.0
C1444 C 0.33068 0.72679 0.44181 0.0
H1445 H 0.44834 0.71181 0.32121 0.0
H1446 H 0.41983 0.7094 0.35468 0.0
C1447 C 0.31166 0.72913 0.45825 0.0
C1448 C 0.36107 0.74058 0.41909 0.0
H1449 H 0.3776 0.74094 0.35939 0.0
C1450 C 0.38109 0.73896 0.42598 0.0
C1451 C 0.35981 0.74131 0.39474 0.0
C1452 C 0.33855 0.74412 0.38595 0.0
C1453 C 0.39988 0.73792 0.40925 0.0
C1454 C 0.39856 0.7388 0.38492 0.0
C1455 C 0.37863 0.74015 0.37807 0.0
C1456 C 0.41734 0.7392 0.36606 0.0
C1457 C 0.42106 0.73568 0.4178 0.0
C1458 C 0.42557 0.75667 0.36141 0.0
C1459 C 0.44186 0.75812 0.34227 0.0
C1460 C 0.45024 0.74215 0.3273 0.0
C1461 C 0.44238 0.72434 0.33241 0.0
C1462 C 0.42602 0.72296 0.35151 0.0
H1463 H 0.42107 0.7293 0.43723 0.0
H1464 H 0.43548 0.72458 0.40804 0.0
H1465 H 0.42302 0.75203 0.41447 0.0
H1466 H 0.41886 0.76962 0.37211 0.0
H1467 H 0.4474 0.77213 0.33883 0.0
H1468 H 0.2199 0.05573 0.18368 0.0
H1469 H 0.22075 0.08659 0.15164 0.0
H1470 H 0.27844 0.08844 0.17529 0.0
H1471 H 0.27821 0.05713 0.20659 0.0
H1472 H 0.21523 0.12669 0.15287 0.0
H1473 H 0.2986 0.09342 0.10617 0.0
H1474 H 0.28616 0.07639 0.12859 0.0
H1475 H 0.29991 0.09226 0.13708 0.0
C1476 C 0.23303 0.06244 0.18178 0.0
C1477 C 0.24913 0.05369 0.19765 0.0
C1478 C 0.23345 0.0802 0.16345 0.0
C1479 C 0.2499 0.08981 0.16054 0.0
C1480 C 0.26598 0.08104 0.17642 0.0
H1481 H 0.23609 0.22457 0.09886 0.0
H1482 H 0.23596 0.18971 0.12353 0.0
C1483 C 0.26575 0.06311 0.19452 0.0
C1484 C 0.24943 0.10978 0.14202 0.0
H1485 H 0.28175 0.13272 0.09875 0.0
C1486 C 0.22976 0.12783 0.14089 0.0
C1487 C 0.26815 0.11141 0.12582 0.0
C1488 C 0.28929 0.09223 0.12428 0.0
C1489 C 0.22853 0.14751 0.12489 0.0
C1490 C 0.24769 0.14969 0.10999 0.0
C1491 C 0.26711 0.13137 0.11038 0.0
C1492 C 0.24808 0.17098 0.09458 0.0
C1493 C 0.20652 0.16567 0.12398 0.0
C1494 C 0.25582 0.17222 0.07005 0.0
C1495 C 0.25635 0.19225 0.05589 0.0
C1496 C 0.24912 0.21149 0.06593 0.0
C1497 C 0.24163 0.21014 0.09047 0.0
C1498 C 0.24133 0.19017 0.10461 0.0
H1499 H 0.19271 0.15905 0.12956 0.0
H1500 H 0.20497 0.17674 0.13652 0.0
H1501 H 0.20472 0.17546 0.10579 0.0
H1502 H 0.26132 0.1577 0.06182 0.0
H1503 H 0.26236 0.19269 0.0371 0.0
H1504 H 0.80081 0.70914 0.9547 0.0
H1505 H 0.83509 0.7047 0.92758 0.0
H1506 H 0.84466 0.75681 0.95254 0.0
H1507 H 0.81091 0.76108 0.97991 0.0
H1508 H 0.84317 0.73548 0.89113 0.0
H1509 H 0.90549 0.71164 0.95346 0.0
H1510 H 0.87798 0.71073 0.96318 0.0
H1511 H 0.8832 0.73621 0.95878 0.0
C1512 C 0.81042 0.71936 0.95477 0.0
C1513 C 0.80302 0.73544 0.96957 0.0
C1514 C 0.83 0.71683 0.9392 0.0
C1515 C 0.84265 0.73021 0.93822 0.0
C1516 C 0.83554 0.74592 0.95335 0.0
H1517 H 0.94522 0.76789 0.84304 0.0
H1518 H 0.91683 0.76249 0.87546 0.0
C1519 C 0.81606 0.74843 0.96892 0.0
C1520 C 0.86219 0.72914 0.92004 0.0
H1521 H 0.91642 0.72504 0.91268 0.0
C1522 C 0.85927 0.73286 0.89586 0.0
C1523 C 0.88319 0.72584 0.9262 0.0
C1524 C 0.88774 0.72066 0.95183 0.0
C1525 C 0.8765 0.73415 0.87769 0.0
C1526 C 0.89733 0.73136 0.88385 0.0
C1527 C 0.90042 0.72724 0.90801 0.0
C1528 C 0.91584 0.73342 0.86536 0.0
C1529 C 0.87206 0.7393 0.85201 0.0
C1530 C 0.92512 0.71852 0.84931 0.0
C1531 C 0.94139 0.72152 0.83076 0.0
C1532 C 0.94871 0.73949 0.82792 0.0
C1533 C 0.93995 0.75391 0.84462 0.0
C1534 C 0.92372 0.75085 0.86319 0.0
H1535 H 0.85415 0.74537 0.85036 0.0
H1536 H 0.87927 0.75181 0.84161 0.0
H1537 H 0.87984 0.7242 0.84391 0.0
H1538 H 0.9195 0.70476 0.85088 0.0
H1539 H 0.94779 0.71004 0.81832 0.0
H1540 H 0.22602 0.55577 0.68209 0.0
H1541 H 0.22763 0.58686 0.65062 0.0
H1542 H 0.27914 0.5932 0.68199 0.0
H1543 H 0.27819 0.56182 0.71282 0.0
H1544 H 0.21907 0.6283 0.65284 0.0
H1545 H 0.30599 0.59655 0.61442 0.0
H1546 H 0.29262 0.57923 0.63511 0.0
H1547 H 0.30393 0.59597 0.64584 0.0
C1548 C 0.23798 0.56354 0.68205 0.0
C1549 C 0.25216 0.55603 0.69992 0.0
C1550 C 0.23882 0.58141 0.66405 0.0
C1551 C 0.25381 0.59227 0.66349 0.0
C1552 C 0.26791 0.5848 0.68139 0.0
H1553 H 0.27269 0.7147 0.59467 0.0
H1554 H 0.27256 0.67967 0.61962 0.0
C1555 C 0.26725 0.56683 0.6992 0.0
C1556 C 0.25397 0.61207 0.64508 0.0
H1557 H 0.28807 0.63555 0.60528 0.0
C1558 C 0.23414 0.62971 0.64223 0.0
C1559 C 0.27356 0.61407 0.63099 0.0
C1560 C 0.29516 0.59534 0.63155 0.0
C1561 C 0.23352 0.64941 0.62651 0.0
C1562 C 0.25325 0.65165 0.61322 0.0
C1563 C 0.27298 0.63392 0.61563 0.0
C1564 C 0.25384 0.67255 0.59741 0.0
C1565 C 0.21189 0.668 0.62476 0.0
C1566 C 0.24368 0.68011 0.57635 0.0
C1567 C 0.24396 0.70005 0.56195 0.0
C1568 C 0.25425 0.7129 0.56829 0.0
C1569 C 0.26463 0.70517 0.58922 0.0
C1570 C 0.26457 0.68515 0.60352 0.0
H1571 H 0.19881 0.66497 0.63891 0.0
H1572 H 0.21387 0.68361 0.62608 0.0
H1573 H 0.20635 0.67005 0.60716 0.0
H1574 H 0.23544 0.67064 0.57111 0.0
H1575 H 0.23575 0.70568 0.54616 0.0
H1576 H 0.34246 0.99173 0.37614 0.0
H1577 H 0.36443 0.99784 0.40189 0.0
H1578 H 0.34026 0.06733 0.37568 0.0
H1579 H 0.3182 0.06136 0.34988 0.0
H1580 H 0.38563 0.04866 0.36849 0.0
H1581 H 0.35419 0.02469 0.4624 0.0
H1582 H 0.3577 1.00511 0.44368 0.0
H1583 H 0.33772 0.03205 0.43811 0.0
C1584 C 0.34123 0.00838 0.37646 0.0
C1585 C 0.32884 0.02604 0.36078 0.0
C1586 C 0.35375 0.01186 0.39125 0.0
C1587 C 0.35386 0.03306 0.39077 0.0
C1588 C 0.34034 0.05087 0.37633 0.0
H1589 H 0.44775 0.04897 0.47038 0.0
H1590 H 0.41306 0.05576 0.4548 0.0
C1591 C 0.32786 0.04741 0.36153 0.0
C1592 C 0.37058 0.03606 0.40228 0.0
H1593 H 0.39166 0.02434 0.45509 0.0
C1594 C 0.38674 0.04369 0.3875 0.0
C1595 C 0.37184 0.02987 0.42707 0.0
C1596 C 0.35429 0.02269 0.44382 0.0
C1597 C 0.40492 0.0439 0.39664 0.0
C1598 C 0.40709 0.03604 0.42111 0.0
C1599 C 0.39017 0.0299 0.43622 0.0
C1600 C 0.42772 0.03223 0.4307 0.0
C1601 C 0.42199 0.05199 0.3799 0.0
C1602 C 0.44724 0.01663 0.42243 0.0
C1603 C 0.46689 0.01272 0.43126 0.0
C1604 C 0.4673 0.02421 0.44869 0.0
C1605 C 0.44777 0.03986 0.45699 0.0
C1606 C 0.42803 0.04374 0.44815 0.0
H1607 H 0.41497 0.06321 0.36387 0.0
H1608 H 0.42896 0.06068 0.38895 0.0
H1609 H 0.43563 0.03776 0.37381 0.0
H1610 H 0.44721 0.00732 0.40925 0.0
H1611 H 0.48169 1.00042 0.42475 0.0
H1612 H 0.85557 0.77283 0.04907 0.0
H1613 H 0.88909 0.77918 0.05368 0.0
H1614 H 0.86822 0.84187 1.0077 0.0
H1615 H 0.83518 0.83562 1.00288 0.0
H1616 H 0.91439 0.821 1.00266 0.0
H1617 H 0.87847 0.82258 0.09811 0.0
H1618 H 0.88569 0.7978 0.0861 0.0
H1619 H 0.86273 0.82121 0.07652 0.0
C1620 C 0.85841 0.78778 0.03966 0.0
C1621 C 0.84263 0.80389 0.0259 0.0
C1622 C 0.87756 0.79132 0.04222 0.0
C1623 C 0.88094 0.81112 0.03132 0.0
C1624 C 0.86601 0.8264 0.01616 0.0
H1625 H 0.89437 0.92312 0.0246 0.0
H1626 H 0.89786 0.88692 0.01827 0.0
C1627 C 0.84705 0.82283 0.01347 0.0
C1628 C 0.89744 0.8182 0.03834 0.0
H1629 H 0.90038 0.84403 0.08165 0.0
C1630 C 0.91203 0.82535 0.02021 0.0
C1631 C 0.89471 0.82348 0.06138 0.0
C1632 C 0.87957 0.81596 0.08172 0.0
C1633 C 0.9215 0.84013 0.02362 0.0
C1634 C 0.91597 0.84796 0.04555 0.0
C1635 C 0.90423 0.83823 0.06471 0.0
C1636 C 0.91734 0.86925 0.04736 0.0
C1637 C 0.93583 0.84861 1.00314 0.0
C1638 C 0.92666 0.87138 0.06619 0.0
C1639 C 0.92447 0.89217 0.07 0.0
C1640 C 0.91274 0.91109 0.05515 0.0
C1641 C 0.90362 0.90884 0.03621 0.0
C1642 C 0.90589 0.88813 0.03237 0.0
H1643 H 0.9456 0.83566 0.99225 0.0
H1644 H 0.92522 0.86242 0.99133 0.0
H1645 H 0.94724 0.85453 1.00952 0.0
H1646 H 0.93523 0.85701 0.07818 0.0
H1647 H 0.93205 0.89342 0.08445 0.0
H1648 H 0.67624 0.13781 0.51868 0.0
H1649 H 0.64249 0.13041 0.51837 0.0
H1650 H 0.60426 0.19822 0.52185 0.0
H1651 H 0.63809 0.20588 0.52163 0.0
H1652 H 0.59927 0.13824 0.54651 0.0
H1653 H 0.59811 0.1885 0.45532 0.0
H1654 H 0.62195 0.17978 0.47097 0.0
H1655 H 0.5972 0.20051 0.48064 0.0
C1656 C 0.6606 0.15102 0.51991 0.0
C1657 C 0.65979 0.17244 0.51976 0.0
C1658 C 0.64133 0.14677 0.51993 0.0
C1659 C 0.621 0.16388 0.51974 0.0
C1660 C 0.61986 0.18489 0.5218 0.0
H1661 H 0.54004 0.09576 0.48961 0.0
H1662 H 0.54222 0.12774 0.50233 0.0
C1663 C 0.63918 0.18917 0.5218 0.0
C1664 C 0.60221 0.15993 0.51345 0.0
H1665 H 0.58113 0.16193 0.4632 0.0
C1666 C 0.59449 0.14397 0.52862 0.0
C1667 C 0.59599 0.16769 0.49013 0.0
C1668 C 0.60369 0.18504 0.47319 0.0
C1669 C 0.58298 0.13354 0.52013 0.0
C1670 C 0.57909 0.13952 0.49589 0.0
C1671 C 0.58436 0.15738 0.48168 0.0
C1672 C 0.57483 0.12434 0.48384 0.0
C1673 C 0.57731 0.11462 0.53633 0.0
C1674 C 0.59182 0.11296 0.46786 0.0
C1675 C 0.59051 0.09497 0.46035 0.0
C1676 C 0.57225 0.08815 0.46888 0.0
C1677 C 0.5544 0.1007 0.48313 0.0
C1678 C 0.55562 0.11884 0.49044 0.0
H1679 H 0.58281 0.11127 0.55423 0.0
H1680 H 0.55922 0.11834 0.53877 0.0
H1681 H 0.58506 0.0995 0.52823 0.0
H1682 H 0.60679 0.11702 0.46256 0.0
H1683 H 0.60442 0.08544 0.44941 0.0
H1684 H 0.80785 0.47645 0.23762 0.0
H1685 H 0.8435 0.44641 0.2344 0.0
H1686 H 0.80941 0.39944 0.25093 0.0
H1687 H 0.7742 0.429 0.25406 0.0
H1688 H 0.86243 0.40794 0.26878 0.0
H1689 H 0.84847 0.38505 0.18831 0.0
H1690 H 0.83259 0.41104 0.1978 0.0
H1691 H 0.82588 0.38678 0.21161 0.0
C1692 C 0.80805 0.4597 0.24051 0.0
C1693 C 0.78818 0.45513 0.24588 0.0
C1694 C 0.8284 0.44256 0.2387 0.0
C1695 C 0.82915 0.42064 0.242 0.0
C1696 C 0.80931 0.41618 0.24779 0.0
H1697 H 0.91207 0.28734 0.25325 0.0
H1698 H 0.88336 0.32338 0.25125 0.0
C1699 C 0.78913 0.43316 0.24964 0.0
C1700 C 0.8504 0.40214 0.23964 0.0
H1701 H 0.87605 0.35789 0.21111 0.0
C1702 C 0.86566 0.3972 0.25589 0.0
C1703 C 0.85469 0.38812 0.22277 0.0
C1704 C 0.83966 0.39311 0.20397 0.0
C1705 C 0.88435 0.37798 0.25659 0.0
C1706 C 0.88798 0.36344 0.24048 0.0
C1707 C 0.87323 0.36891 0.22358 0.0
C1708 C 0.90594 0.34168 0.24191 0.0
C1709 C 0.89948 0.37279 0.27533 0.0
C1710 C 0.92832 0.33986 0.23713 0.0
C1711 C 0.94486 0.31913 0.23812 0.0
C1712 C 0.9393 0.29989 0.24399 0.0
C1713 C 0.91692 0.30182 0.24868 0.0
C1714 C 0.90047 0.32244 0.24756 0.0
H1715 H 0.8925 0.38384 0.28883 0.0
H1716 H 0.90285 0.35556 0.28458 0.0
H1717 H 0.91544 0.37463 0.26664 0.0
H1718 H 0.93298 0.35444 0.23236 0.0
H1719 H 0.96196 0.31818 0.23427 0.0
H1720 H 0.08647 0.57304 0.50299 0.0
H1721 H 0.09094 0.59771 0.52528 0.0
H1722 H 0.05333 0.65331 0.47817 0.0
H1723 H 0.05012 0.62853 0.45462 0.0
H1724 H 0.08822 0.65866 0.48055 0.0
H1725 H 0.05844 0.63456 0.5734 0.0
H1726 H 0.07705 0.6098 0.56375 0.0
H1727 H 0.05231 0.6249 0.54961 0.0
C1728 C 0.07928 0.5905 0.49721 0.0
C1729 C 0.06844 0.59877 0.47665 0.0
C1730 C 0.08128 0.60465 0.51046 0.0
C1731 C 0.07207 0.62743 0.50381 0.0
C1732 C 0.06042 0.63578 0.48382 0.0
H1733 H 0.13794 0.70693 0.54005 0.0
H1734 H 0.10449 0.69825 0.54196 0.0
C1735 C 0.05863 0.62159 0.47033 0.0
C1736 C 0.07841 0.64202 0.51492 0.0
H1737 H 0.09343 0.64417 0.56742 0.0
C1738 C 0.08848 0.65621 0.49965 0.0
C1739 C 0.07857 0.63917 0.53988 0.0
C1740 C 0.06573 0.62644 0.55749 0.0
C1741 C 0.10102 0.66535 0.50831 0.0
C1742 C 0.10362 0.66004 0.53284 0.0
C1743 C 0.09169 0.64782 0.54854 0.0
C1744 C 0.12167 0.6638 0.54096 0.0
C1745 C 0.11315 0.67893 0.49082 0.0
C1746 C 0.14218 0.64698 0.54119 0.0
C1747 C 0.16135 0.65187 0.53991 0.0
C1748 C 0.16017 0.67363 0.53851 0.0
C1749 C 0.13937 0.68998 0.54118 0.0
C1750 C 0.1202 0.68508 0.54234 0.0
H1751 H 0.10957 0.68122 0.47223 0.0
H1752 H 0.10839 0.69533 0.49592 0.0
H1753 H 0.13119 0.67094 0.49128 0.0
H1754 H 0.14355 0.63046 0.53999 0.0
H1755 H 0.17715 0.63894 0.53822 0.0
H1756 H 0.67693 0.03444 0.79001 0.0
H1757 H 0.64095 0.0641 0.78839 0.0
H1758 H 0.67392 0.11206 0.76937 0.0
H1759 H 0.70955 0.08281 0.77098 0.0
H1760 H 0.62312 0.10207 0.81456 0.0
H1761 H 0.63296 0.12701 0.71635 0.0
H1762 H 0.64877 0.10043 0.7312 0.0
H1763 H 0.6564 0.12404 0.73024 0.0
C1764 C 0.67642 0.05133 0.78552 0.0
C1765 C 0.69605 0.0563 0.78055 0.0
C1766 C 0.65589 0.06823 0.78461 0.0
C1767 C 0.65477 0.0903 0.77845 0.0
C1768 C 0.67437 0.09518 0.77382 0.0
H1769 H 0.57184 0.22288 0.76098 0.0
H1770 H 0.60028 0.18677 0.7628 0.0
C1771 C 0.69475 0.07841 0.77487 0.0
C1772 C 0.63331 0.10853 0.77692 0.0
H1773 H 0.60565 0.15303 0.73858 0.0
C1774 C 0.61901 0.11302 0.79791 0.0
C1775 C 0.62799 0.12277 0.75516 0.0
C1776 C 0.64221 0.11826 0.73189 0.0
C1777 C 0.60025 0.1321 0.79794 0.0
C1778 C 0.59551 0.14689 0.77632 0.0
C1779 C 0.60929 0.14179 0.75517 0.0
C1780 C 0.57766 0.16867 0.77549 0.0
C1781 C 0.58635 0.1369 0.82129 0.0
C1782 C 0.55532 0.17064 0.78188 0.0
C1783 C 0.53891 0.19143 0.7809 0.0
C1784 C 0.54459 0.21056 0.77344 0.0
C1785 C 0.56691 0.20848 0.7669 0.0
C1786 C 0.58321 0.18781 0.76787 0.0
H1787 H 0.59447 0.12596 0.83686 0.0
H1788 H 0.58276 0.15419 0.82313 0.0
H1789 H 0.57042 0.13445 0.82174 0.0
H1790 H 0.55056 0.15613 0.78743 0.0
H1791 H 0.52183 0.19254 0.78599 0.0
H1792 H 0.78018 0.55916 0.21192 0.0
H1793 H 0.78065 0.59005 0.17987 0.0
H1794 H 0.72723 0.58343 0.15227 0.0
H1795 H 0.72619 0.55301 0.18468 0.0
H1796 H 0.78787 0.5949 0.13247 0.0
H1797 H 0.70213 0.64704 0.15734 0.0
H1798 H 0.71583 0.62198 0.17619 0.0
H1799 H 0.70389 0.62119 0.15099 0.0
C1800 C 0.76857 0.56418 0.19899 0.0
C1801 C 0.75306 0.55358 0.20108 0.0
C1802 C 0.76883 0.58193 0.18062 0.0
C1803 C 0.75363 0.58957 0.16382 0.0
C1804 C 0.7387 0.57843 0.16533 0.0
H1805 H 0.73266 0.69987 0.04293 0.0
H1806 H 0.73296 0.66535 0.0698 0.0
C1807 C 0.73828 0.56082 0.18382 0.0
C1808 C 0.75348 0.60911 0.14483 0.0
H1809 H 0.72073 0.66024 0.12128 0.0
C1810 C 0.77316 0.60916 0.1301 0.0
C1811 C 0.73433 0.62789 0.14155 0.0
C1812 C 0.71291 0.62968 0.15749 0.0
C1813 C 0.77419 0.62723 0.11234 0.0
C1814 C 0.7551 0.64596 0.10916 0.0
C1815 C 0.73534 0.64584 0.12357 0.0
C1816 C 0.75561 0.66629 0.09197 0.0
C1817 C 0.79575 0.6261 0.09697 0.0
C1818 C 0.76809 0.67842 0.09546 0.0
C1819 C 0.76786 0.69807 0.08018 0.0
C1820 C 0.7553 0.70602 0.06089 0.0
C1821 C 0.74292 0.69384 0.05724 0.0
C1822 C 0.74295 0.67424 0.07273 0.0
H1823 H 0.80714 0.60894 0.09738 0.0
H1824 H 0.79302 0.63365 0.07818 0.0
H1825 H 0.80387 0.63532 0.10369 0.0
H1826 H 0.77767 0.67293 0.11038 0.0
H1827 H 0.77738 0.70721 0.08363 0.0
H1828 H 0.98017 0.49493 0.43505 0.0
H1829 H 0.94663 0.48994 0.4289 0.0
H1830 H 0.90744 0.54169 0.46879 0.0
H1831 H 0.94121 0.54693 0.47489 0.0
H1832 H 0.91065 0.48107 0.46326 0.0
H1833 H 0.88518 0.56101 0.40165 0.0
H1834 H 0.9129 0.54826 0.40949 0.0
H1835 H 0.89098 0.56102 0.4308 0.0
C1836 C 0.96441 0.50533 0.44244 0.0
C1837 C 0.96319 0.52152 0.45519 0.0
C1838 C 0.9453 0.50229 0.43912 0.0
C1839 C 0.92461 0.51553 0.44826 0.0
C1840 C 0.9233 0.53144 0.46145 0.0
H1841 H 0.80905 0.52441 0.38776 0.0
H1842 H 0.82909 0.52828 0.41711 0.0
C1843 C 0.94251 0.53442 0.46491 0.0
C1844 C 0.90462 0.51338 0.44233 0.0
H1845 H 0.86564 0.5373 0.40405 0.0
C1846 C 0.9005 0.49353 0.45069 0.0
C1847 C 0.89132 0.52969 0.42604 0.0
C1848 C 0.89525 0.55119 0.41629 0.0
C1849 C 0.88404 0.48918 0.44235 0.0
C1850 C 0.87179 0.50486 0.42474 0.0
C1851 C 0.87502 0.52524 0.41753 0.0
C1852 C 0.85764 0.49972 0.41129 0.0
C1853 C 0.88035 0.46763 0.45217 0.0
C1854 C 0.86666 0.48194 0.39883 0.0
C1855 C 0.85512 0.47953 0.38226 0.0
C1856 C 0.83446 0.49505 0.3775 0.0
C1857 C 0.82484 0.51204 0.3911 0.0
C1858 C 0.83634 0.51437 0.4078 0.0
H1859 H 0.88353 0.46222 0.47111 0.0
H1860 H 0.86331 0.46863 0.45096 0.0
H1861 H 0.89212 0.45495 0.44195 0.0
H1862 H 0.88321 0.47065 0.40079 0.0
H1863 H 0.86287 0.46608 0.37233 0.0
H1864 H 0.19149 0.49481 0.62359 0.0
H1865 H 0.17381 0.49627 0.58931 0.0
H1866 H 0.11624 0.54751 0.61367 0.0
H1867 H 0.13377 0.54617 0.64778 0.0
H1868 H 0.13778 0.486 0.59345 0.0
H1869 H 0.12208 0.5694 0.54301 0.0
H1870 H 0.13964 0.55905 0.56646 0.0
H1871 H 0.11022 0.57133 0.5733 0.0
C1872 C 0.17521 0.50665 0.62137 0.0
C1873 C 0.16398 0.52032 0.63845 0.0
C1874 C 0.16519 0.50754 0.60173 0.0
C1875 C 0.1438 0.52217 0.59873 0.0
C1876 C 0.13297 0.53649 0.61521 0.0
H1877 H 0.02619 0.53701 0.55567 0.0
H1878 H 0.0589 0.5399 0.5667 0.0
C1879 C 0.143 0.53566 0.63479 0.0
C1880 C 0.13153 0.52047 0.58061 0.0
H1881 H 0.09517 0.55171 0.541 0.0
C1882 C 0.12899 0.50021 0.58138 0.0
C1883 C 0.12014 0.53899 0.5648 0.0
C1884 C 0.12338 0.56083 0.56173 0.0
C1885 C 0.11395 0.49837 0.56835 0.0
C1886 C 0.1013 0.51728 0.55397 0.0
C1887 C 0.10493 0.53722 0.55194 0.0
C1888 C 0.08193 0.51741 0.54424 0.0
C1889 C 0.11045 0.47661 0.57159 0.0
C1890 C 0.08399 0.50426 0.52737 0.0
C1891 C 0.06518 0.50245 0.5211 0.0
C1892 C 0.04418 0.51379 0.53166 0.0
C1893 C 0.04221 0.52775 0.54758 0.0
C1894 C 0.06088 0.5296 0.55374 0.0
H1895 H 0.11954 0.46435 0.58583 0.0
H1896 H 0.09267 0.47871 0.57611 0.0
H1897 H 0.11628 0.46994 0.55466 0.0
H1898 H 0.10012 0.49496 0.51958 0.0
H1899 H 0.06707 0.49171 0.50865 0.0
H1900 H 0.52897 0.79849 0.19996 0.0
H1901 H 0.55771 0.80127 0.16695 0.0
H1902 H 0.56157 0.73969 0.15042 0.0
H1903 H 0.53276 0.73678 0.18331 0.0
H1904 H 0.60063 0.77041 0.16358 0.0
H1905 H 0.55941 0.7795 0.08471 0.0
H1906 H 0.5443 0.7844 0.11359 0.0
H1907 H 0.5578 0.75685 0.10776 0.0
C1908 C 0.53561 0.7857 0.18907 0.0
C1909 C 0.52848 0.76741 0.19432 0.0
C1910 C 0.55211 0.78731 0.17022 0.0
C1911 C 0.56167 0.7708 0.15607 0.0
C1912 C 0.55417 0.75283 0.16083 0.0
H1913 H 0.67177 0.73759 0.04664 0.0
H1914 H 0.6387 0.7406 0.07506 0.0
C1915 C 0.53773 0.75115 0.17973 0.0
C1916 C 0.58059 0.77156 0.13757 0.0
H1917 H 0.59813 0.77219 0.07804 0.0
C1918 C 0.60004 0.77102 0.14483 0.0
C1919 C 0.57982 0.77218 0.11316 0.0
C1920 C 0.55917 0.77346 0.10422 0.0
C1921 C 0.61894 0.77048 0.12849 0.0
C1922 C 0.61822 0.77107 0.10404 0.0
C1923 C 0.59868 0.77182 0.09674 0.0
C1924 C 0.63782 0.77009 0.08594 0.0
C1925 C 0.63974 0.76846 0.13774 0.0
C1926 C 0.64816 0.78594 0.08213 0.0
C1927 C 0.66726 0.78421 0.06591 0.0
C1928 C 0.67627 0.76672 0.05297 0.0
C1929 C 0.66541 0.75128 0.05628 0.0
C1930 C 0.64642 0.75297 0.07255 0.0
H1931 H 0.63923 0.7624 0.15726 0.0
H1932 H 0.65445 0.75716 0.12857 0.0
H1933 H 0.64167 0.78482 0.13435 0.0
H1934 H 0.64154 0.7996 0.09181 0.0
H1935 H 0.67505 0.79648 0.06371 0.0
H1936 H 0.67992 0.50729 0.12667 0.0
H1937 H 0.65776 0.50658 0.09746 0.0
H1938 H 0.59883 0.54326 0.13777 0.0
H1939 H 0.62068 0.54379 0.16707 0.0
H1940 H 0.62772 0.48561 0.11123 0.0
H1941 H 0.58641 0.57076 0.06962 0.0
H1942 H 0.61015 0.56323 0.08525 0.0
H1943 H 0.58299 0.56819 0.10148 0.0
C1944 C 0.66228 0.51557 0.12905 0.0
C1945 C 0.65206 0.5254 0.14935 0.0
C1946 C 0.64967 0.51528 0.11226 0.0
C1947 C 0.62667 0.525 0.11533 0.0
C1948 C 0.6166 0.53609 0.13471 0.0
H1949 H 0.50941 0.51388 0.09097 0.0
H1950 H 0.53956 0.52263 0.10082 0.0
C1951 C 0.62916 0.53634 0.15152 0.0
C1952 C 0.61289 0.5205 0.10094 0.0
H1953 H 0.56758 0.54492 0.07124 0.0
C1954 C 0.6149 0.49854 0.10193 0.0
C1955 C 0.59618 0.5374 0.08888 0.0
C1956 C 0.59396 0.5612 0.08604 0.0
C1957 C 0.5997 0.49307 0.09268 0.0
C1958 C 0.58224 0.51003 0.08183 0.0
C1959 C 0.58092 0.53195 0.07966 0.0
C1960 C 0.56408 0.5054 0.07477 0.0
C1961 C 0.60165 0.46927 0.09595 0.0
C1962 C 0.56792 0.49285 0.05681 0.0
C1963 C 0.55076 0.48762 0.05135 0.0
C1964 C 0.52952 0.49508 0.06361 0.0
C1965 C 0.5257 0.50775 0.08144 0.0
C1966 C 0.54283 0.51295 0.08689 0.0
H1967 H 0.61375 0.45859 0.10842 0.0
H1968 H 0.58544 0.46716 0.10286 0.0
H1969 H 0.60715 0.46357 0.07846 0.0
H1970 H 0.58417 0.48709 0.04708 0.0
H1971 H 0.55406 0.47785 0.0375 0.0
H1972 H 0.46227 0.40179 0.99111 0.0
H1973 H 0.45071 0.38082 0.96931 0.0
H1974 H 0.39293 0.3857 0.02064 0.0
H1975 H 0.40386 0.40707 0.04204 0.0
H1976 H 0.42346 0.3401 1.00377 0.0
H1977 H 0.39033 0.41152 0.93404 0.0
H1978 H 0.41509 0.407 0.94672 0.0
H1979 H 0.38856 0.41725 0.96345 0.0
C1980 C 0.44719 0.39826 0.99785 0.0
C1981 C 0.434 0.40609 0.01841 0.0
C1982 C 0.44069 0.38625 0.98539 0.0
C1983 C 0.421 0.38184 0.99344 0.0
C1984 C 0.40827 0.38893 0.01431 0.0
H1985 H 0.30914 0.3714 1.00009 0.0
H1986 H 0.34296 0.3802 0.98769 0.0
C1987 C 0.41465 0.40096 0.02665 0.0
C1988 C 0.4125 0.37074 0.98009 0.0
H1989 H 0.37173 0.38507 0.94487 0.0
C1990 C 0.41286 0.3494 0.99004 0.0
C1991 C 0.39894 0.383 0.96207 0.0
C1992 C 0.39826 0.40594 0.95074 0.0
C1993 C 0.39767 0.34114 0.98491 0.0
C1994 C 0.38195 0.35468 0.96932 0.0
C1995 C 0.38376 0.37477 0.95685 0.0
C1996 C 0.3606 0.35133 0.97129 0.0
C1997 C 0.39674 0.31923 0.99851 0.0
C1998 C 0.35901 0.33267 0.96524 0.0
C1999 C 0.33965 0.32751 0.97256 0.0
C2000 C 0.32176 0.34099 0.98597 0.0
C2001 C 0.32283 0.36057 0.99015 0.0
C2002 C 0.34207 0.36569 0.98286 0.0
H2003 H 0.40978 0.31116 1.01057 0.0
H2004 H 0.38046 0.32132 1.00937 0.0
H2005 H 0.39882 0.30815 0.98579 0.0
H2006 H 0.37307 0.32152 0.9561 0.0
H2007 H 0.33922 0.3123 0.9691 0.0
H2008 H 0.02372 0.19204 0.28727 0.0
H2009 H 0.05352 0.15622 0.29111 0.0
H2010 H 0.10163 0.18908 0.27452 0.0
H2011 H 0.07222 0.22457 0.27056 0.0
H2012 H 0.09103 0.13876 0.25619 0.0
H2013 H 0.11737 0.1471 0.33799 0.0
H2014 H 0.09082 0.16361 0.3283 0.0
H2015 H 0.11498 0.17049 0.31475 0.0
C2016 C 0.04067 0.19155 0.28445 0.0
C2017 C 0.04561 0.21113 0.2787 0.0
C2018 C 0.05767 0.17111 0.28664 0.0
C2019 C 0.07983 0.16995 0.28343 0.0
C2020 C 0.08469 0.18952 0.27749 0.0
H2021 H 0.21264 0.0847 0.27615 0.0
H2022 H 0.17688 0.1138 0.2782 0.0
C2023 C 0.06782 0.20983 0.27517 0.0
C2024 C 0.09815 0.1485 0.28597 0.0
H2025 H 0.14305 0.12001 0.31586 0.0
C2026 C 0.10222 0.13441 0.26948 0.0
C2027 C 0.11273 0.14281 0.30335 0.0
C2028 C 0.10869 0.15668 0.32226 0.0
C2029 C 0.12114 0.11548 0.26907 0.0
C2030 C 0.13623 0.11034 0.28583 0.0
C2031 C 0.1316 0.12396 0.30294 0.0
C2032 C 0.1578 0.09209 0.28475 0.0
C2033 C 0.12544 0.10177 0.24995 0.0
C2034 C 0.15911 0.07002 0.28801 0.0
C2035 C 0.17971 0.05321 0.2869 0.0
C2036 C 0.19931 0.05822 0.28253 0.0
C2037 C 0.19788 0.08027 0.27956 0.0
C2038 C 0.17741 0.09696 0.28072 0.0
H2039 H 0.11443 0.11015 0.23578 0.0
H2040 H 0.14281 0.09781 0.2416 0.0
H2041 H 0.12258 0.08609 0.2581 0.0
H2042 H 0.14425 0.06577 0.29157 0.0
H2043 H 0.1803 0.03636 0.28939 0.0
H2044 H 0.25457 0.29034 0.92554 0.0
H2045 H 0.25323 0.32558 0.9008 0.0
H2046 H 0.2183 0.35854 0.96024 0.0
H2047 H 0.21896 0.32307 0.985 0.0
H2048 H 0.20013 0.38015 0.91994 0.0
H2049 H 0.28995 0.36245 0.90055 0.0
H2050 H 0.28216 0.34191 0.89254 0.0
H2051 H 0.27795 0.34528 0.92332 0.0
C2052 C 0.24662 0.30507 0.93343 0.0
C2053 C 0.23697 0.30386 0.95731 0.0
C2054 C 0.24605 0.32525 0.91927 0.0
C2055 C 0.2361 0.34482 0.92868 0.0
C2056 C 0.22625 0.34372 0.95255 0.0
H2057 H 0.25748 0.46393 0.84264 0.0
H2058 H 0.2564 0.43337 0.87485 0.0
C2059 C 0.22669 0.32343 0.96674 0.0
C2060 C 0.23543 0.36632 0.9132 0.0
H2061 H 0.26779 0.3922 0.8741 0.0
C2062 C 0.21496 0.38288 0.91013 0.0
C2063 C 0.25475 0.37024 0.9007 0.0
C2064 C 0.27744 0.35412 0.90464 0.0
C2065 C 0.21322 0.40274 0.89426 0.0
C2066 C 0.23241 0.40599 0.88042 0.0
C2067 C 0.25295 0.38976 0.88427 0.0
C2068 C 0.23169 0.42582 0.86167 0.0
C2069 C 0.19078 0.42011 0.89281 0.0
C2070 C 0.2181 0.4321 0.84338 0.0
C2071 C 0.21842 0.44989 0.8251 0.0
C2072 C 0.23269 0.4616 0.82431 0.0
C2073 C 0.24623 0.45537 0.84265 0.0
C2074 C 0.24567 0.43779 0.86111 0.0
H2075 H 0.17977 0.41858 0.90974 0.0
H2076 H 0.19187 0.43686 0.88886 0.0
H2077 H 0.18303 0.41805 0.87843 0.0
H2078 H 0.20766 0.42285 0.84278 0.0
H2079 H 0.20802 0.45396 0.8111 0.0
H2080 H 0.31122 0.21444 0.96291 0.0
H2081 H 0.34466 0.21217 0.93504 0.0
H2082 H 0.34405 0.27319 0.95005 0.0
H2083 H 0.31085 0.27543 0.97826 0.0
H2084 H 0.34769 0.24218 0.89456 0.0
H2085 H 0.40835 0.23516 0.95347 0.0
H2086 H 0.38256 0.23053 0.96493 0.0
H2087 H 0.3833 0.25801 0.95612 0.0
C2088 C 0.31837 0.22721 0.96063 0.0
C2089 C 0.30828 0.24513 0.97286 0.0
C2090 C 0.3375 0.22589 0.94464 0.0
C2091 C 0.34703 0.24238 0.9406 0.0
C2092 C 0.33731 0.26003 0.95321 0.0
H2093 H 0.44858 0.27543 0.83627 0.0
H2094 H 0.42046 0.27317 0.87016 0.0
C2095 C 0.3182 0.26134 0.96926 0.0
C2096 C 0.36602 0.24194 0.92183 0.0
H2097 H 0.41903 0.24205 0.9116 0.0
C2098 C 0.36335 0.24195 0.89833 0.0
C2099 C 0.38638 0.24187 0.92672 0.0
C2100 C 0.39046 0.2412 0.95171 0.0
C2101 C 0.38031 0.24225 0.87954 0.0
C2102 C 0.40072 0.24206 0.88442 0.0
C2103 C 0.40342 0.24209 0.90791 0.0
C2104 C 0.41923 0.24231 0.86518 0.0
C2105 C 0.37596 0.24342 0.8545 0.0
C2106 C 0.42841 0.22535 0.85157 0.0
C2107 C 0.44445 0.22661 0.83211 0.0
C2108 C 0.45178 0.24478 0.82598 0.0
C2109 C 0.44331 0.26122 0.84039 0.0
C2110 C 0.42721 0.25996 0.85981 0.0
H2111 H 0.35804 0.24909 0.85299 0.0
H2112 H 0.38334 0.25466 0.84151 0.0
H2113 H 0.38348 0.22685 0.84948 0.0
H2114 H 0.42284 0.21133 0.85571 0.0
H2115 H 0.4507 0.21357 0.82155 0.0
H2116 H 0.42959 0.52183 1.00369 0.0
H2117 H 0.3988 0.51613 0.99061 0.0
H2118 H 0.44447 0.47628 0.94101 0.0
H2119 H 0.47515 0.48211 0.95369 0.0
H2120 H 0.3928 0.52764 0.93735 0.0
H2121 H 0.40002 0.442 0.97947 0.0
H2122 H 0.40924 0.45931 0.99197 0.0
H2123 H 0.42543 0.44677 0.96686 0.0
C2124 C 0.43299 0.51174 0.99012 0.0
C2125 C 0.45461 0.50264 0.97944 0.0
C2126 C 0.41547 0.50842 0.98279 0.0
C2127 C 0.41948 0.49558 0.96508 0.0
C2128 C 0.44114 0.48597 0.95493 0.0
H2129 H 0.36457 0.4617 0.86622 0.0
H2130 H 0.38439 0.46281 0.89738 0.0
C2131 C 0.45858 0.48955 0.96197 0.0
C2132 C 0.40106 0.49413 0.95504 0.0
H2133 H 0.37864 0.45758 0.94687 0.0
C2134 C 0.38931 0.5125 0.93977 0.0
C2135 C 0.39674 0.47429 0.95822 0.0
C2136 C 0.4084 0.45443 0.97514 0.0
C2137 C 0.37424 0.51119 0.92639 0.0
C2138 C 0.3705 0.49105 0.92888 0.0
C2139 C 0.38153 0.47296 0.94504 0.0
C2140 C 0.3571 0.48791 0.91296 0.0
C2141 C 0.36355 0.53097 0.90862 0.0
C2142 C 0.33486 0.50085 0.91216 0.0
C2143 C 0.32356 0.50044 0.89417 0.0
C2144 C 0.33431 0.48693 0.87684 0.0
C2145 C 0.356 0.47262 0.879 0.0
C2146 C 0.3673 0.47313 0.89689 0.0
H2147 H 0.37157 0.54362 0.90556 0.0
H2148 H 0.36418 0.52618 0.89123 0.0
H2149 H 0.346 0.53851 0.91547 0.0
H2150 H 0.32656 0.512 0.92475 0.0
H2151 H 0.30688 0.51169 0.89301 0.0
H2152 H 0.6273 0.70938 0.05364 0.0
H2153 H 0.59652 0.69554 0.06829 0.0
H2154 H 0.63988 0.63027 0.05936 0.0
H2155 H 0.67036 0.64389 0.04468 0.0
H2156 H 0.58375 0.68015 0.03725 0.0
H2157 H 0.59912 0.61585 0.11622 0.0
H2158 H 0.61295 0.63597 0.10867 0.0
H2159 H 0.62391 0.61114 0.09587 0.0
C2160 C 0.63033 0.69196 0.05547 0.0
C2161 C 0.65114 0.67776 0.04759 0.0
C2162 C 0.6128 0.68407 0.06407 0.0
C2163 C 0.61589 0.66185 0.0651 0.0
C2164 C 0.63714 0.64737 0.05937 0.0
H2165 H 0.5853 0.58808 0.99957 0.0
H2166 H 0.59374 0.61358 0.01757 0.0
C2167 C 0.65462 0.65523 0.05077 0.0
C2168 C 0.59686 0.65458 0.06624 0.0
H2169 H 0.58303 0.60831 0.08447 0.0
C2170 C 0.58292 0.66491 0.0483 0.0
C2171 C 0.59544 0.63489 0.0808 0.0
C2172 C 0.60855 0.62402 0.10163 0.0
C2173 C 0.57003 0.65446 0.04236 0.0
C2174 C 0.57117 0.63332 0.05469 0.0
C2175 C 0.58263 0.62436 0.07472 0.0
C2176 C 0.56493 0.61868 0.04384 0.0
C2177 C 0.55697 0.66507 0.02145 0.0
C2178 C 0.5459 0.61326 0.05276 0.0
C2179 C 0.5408 0.59893 0.04221 0.0
C2180 C 0.55485 0.58965 0.02283 0.0
C2181 C 0.57389 0.59524 0.01408 0.0
C2182 C 0.57883 0.60966 0.02446 0.0
H2183 H 0.55321 0.68312 0.01776 0.0
H2184 H 0.56672 0.65833 1.00532 0.0
H2185 H 0.5413 0.66148 0.02471 0.0
H2186 H 0.53505 0.62012 0.06775 0.0
H2187 H 0.52585 0.59516 0.04921 0.0
H2188 H 0.95848 0.82115 0.73925 0.0
H2189 H 0.92893 0.85707 0.73871 0.0
H2190 H 0.88045 0.82464 0.75951 0.0
H2191 H 0.90961 0.78906 0.76028 0.0
H2192 H 0.89213 0.87558 0.7117 0.0
H2193 H 0.86445 0.86562 0.80863 0.0
H2194 H 0.89081 0.84869 0.79604 0.0
H2195 H 0.86622 0.84272 0.79578 0.0
C2196 C 0.9415 0.82176 0.74382 0.0
C2197 C 0.93636 0.80229 0.74994 0.0
C2198 C 0.92465 0.84226 0.74346 0.0
C2199 C 0.90246 0.84356 0.74945 0.0
C2200 C 0.89742 0.82409 0.75529 0.0
H2201 H 0.77005 0.92837 0.75272 0.0
H2202 H 0.80591 0.89935 0.75353 0.0
C2203 C 0.91414 0.80373 0.75559 0.0
C2204 C 0.88428 0.86507 0.74919 0.0
H2205 H 0.83872 0.89285 0.78361 0.0
C2206 C 0.88066 0.87961 0.7275 0.0
C2207 C 0.86936 0.87038 0.76983 0.0
C2208 C 0.873 0.85614 0.79394 0.0
C2209 C 0.86181 0.89859 0.72563 0.0
C2210 C 0.84632 0.90324 0.74603 0.0
C2211 C 0.85051 0.88923 0.76793 0.0
C2212 C 0.82476 0.92138 0.74475 0.0
C2213 C 0.85799 0.91293 0.70162 0.0
C2214 C 0.82336 0.94354 0.73954 0.0
C2215 C 0.80272 0.96029 0.73909 0.0
C2216 C 0.78321 0.9551 0.74386 0.0
C2217 C 0.78476 0.93293 0.7489 0.0
C2218 C 0.80526 0.91629 0.74943 0.0
H2219 H 0.86988 0.90539 0.68697 0.0
H2220 H 0.84101 0.91627 0.69778 0.0
H2221 H 0.85976 0.92889 0.70182 0.0
H2222 H 0.83817 0.94788 0.73617 0.0
H2223 H 0.80203 0.97723 0.73519 0.0
H2224 H 0.52998 0.14459 0.65876 0.0
H2225 H 0.53371 0.12401 0.62706 0.0
H2226 H 0.47949 0.1763 0.59619 0.0
H2227 H 0.47584 0.19712 0.62765 0.0
H2228 H 0.49771 0.11181 0.62202 0.0
H2229 H 0.52572 0.15835 0.53756 0.0
H2230 H 0.53016 0.16083 0.56653 0.0
H2231 H 0.50357 0.17463 0.55629 0.0
C2232 C 0.51929 0.152 0.64481 0.0
C2233 C 0.50254 0.17241 0.64574 0.0
C2234 C 0.52139 0.14019 0.62679 0.0
C2235 C 0.50697 0.14871 0.60923 0.0
C2236 C 0.49098 0.16958 0.60938 0.0
H2237 H 0.464 0.07886 0.52866 0.0
H2238 H 0.46601 0.10562 0.5507 0.0
C2239 C 0.48878 0.18135 0.62748 0.0
C2240 C 0.50666 0.13466 0.59282 0.0
H2241 H 0.51198 0.13063 0.53404 0.0
C2242 C 0.501 0.11584 0.60279 0.0
C2243 C 0.51101 0.13997 0.56777 0.0
C2244 C 0.51814 0.15944 0.55631 0.0
C2245 C 0.4992 0.10236 0.58833 0.0
C2246 C 0.50291 0.108 0.56331 0.0
C2247 C 0.50892 0.12659 0.55327 0.0
C2248 C 0.5016 0.09395 0.54756 0.0
C2249 C 0.49345 0.08206 0.59982 0.0
C2250 C 0.52095 0.07884 0.53841 0.0
C2251 C 0.51984 0.06351 0.52612 0.0
C2252 C 0.4994 0.06317 0.52244 0.0
C2253 C 0.48 0.07881 0.53104 0.0
C2254 C 0.48111 0.09411 0.54354 0.0
H2255 H 0.49321 0.07883 0.61952 0.0
H2256 H 0.47694 0.08402 0.59564 0.0
H2257 H 0.5055 0.06755 0.59249 0.0
H2258 H 0.53689 0.0783 0.54167 0.0
H2259 H 0.53497 0.05118 0.52061 0.0
H2260 H 0.50063 0.37119 0.84193 0.0
H2261 H 0.50455 0.38794 0.87352 0.0
H2262 H 0.49285 0.33496 0.92625 0.0
H2263 H 0.4888 0.31798 0.89451 0.0
H2264 H 0.47373 0.40161 0.9127 0.0
H2265 H 0.55127 0.33723 0.94074 0.0
H2266 H 0.54146 0.33912 0.91297 0.0
H2267 H 0.52847 0.32835 0.94061 0.0
C2268 C 0.49861 0.36319 0.86025 0.0
C2269 C 0.49428 0.34331 0.86574 0.0
C2270 C 0.50099 0.37272 0.87827 0.0
C2271 C 0.4992 0.36257 0.90215 0.0
C2272 C 0.49466 0.34284 0.90785 0.0
H2273 H 0.50069 0.42202 0.02164 0.0
H2274 H 0.49987 0.39533 0.99902 0.0
C2275 C 0.49231 0.3332 0.88974 0.0
C2276 C 0.50202 0.37307 0.92078 0.0
H2277 H 0.5373 0.36832 0.95976 0.0
C2278 C 0.48749 0.39424 0.92317 0.0
C2279 C 0.52002 0.36337 0.93436 0.0
C2280 C 0.53634 0.34082 0.93205 0.0
C2281 C 0.49086 0.40627 0.93825 0.0
C2282 C 0.50927 0.39688 0.95116 0.0
C2283 C 0.52332 0.37541 0.9496 0.0
C2284 C 0.51426 0.4097 0.96572 0.0
C2285 C 0.47515 0.42924 0.93968 0.0
C2286 C 0.5237 0.42581 0.95463 0.0
C2287 C 0.52456 0.44087 0.96757 0.0
C2288 C 0.51566 0.44012 0.99166 0.0
C2289 C 0.50768 0.42295 1.00308 0.0
C2290 C 0.50712 0.40775 0.99021 0.0
H2291 H 0.45952 0.43245 0.93248 0.0
H2292 H 0.47125 0.43223 0.95837 0.0
H2293 H 0.48306 0.44117 0.92919 0.0
H2294 H 0.52924 0.4275 0.93567 0.0
H2295 H 0.53054 0.45408 0.95827 0.0
H2296 H 0.53923 0.80906 0.37282 0.0
H2297 H 0.54291 0.82634 0.40429 0.0
H2298 H 0.4726 0.85933 0.41276 0.0
H2299 H 0.46883 0.8421 0.38138 0.0
H2300 H 0.53064 0.87123 0.39656 0.0
H2301 H 0.48669 0.84271 0.48172 0.0
H2302 H 0.49567 0.82775 0.457 0.0
H2303 H 0.47076 0.85109 0.45711 0.0
C2304 C 0.52452 0.8196 0.38181 0.0
C2305 C 0.50377 0.82444 0.37452 0.0
C2306 C 0.52663 0.82934 0.39985 0.0
C2307 C 0.50802 0.84398 0.41095 0.0
C2308 C 0.48712 0.8477 0.4048 0.0
H2309 H 0.47378 0.95421 0.47911 0.0
H2310 H 0.47597 0.92205 0.4637 0.0
C2311 C 0.48498 0.83791 0.3868 0.0
C2312 C 0.51077 0.85817 0.42567 0.0
H2313 H 0.49283 0.87686 0.47877 0.0
C2314 C 0.52276 0.87217 0.41473 0.0
C2315 C 0.50025 0.85947 0.44922 0.0
C2316 C 0.48778 0.8443 0.46205 0.0
C2317 C 0.52365 0.88823 0.42624 0.0
C2318 C 0.51269 0.88992 0.44961 0.0
C2319 C 0.50127 0.87544 0.46089 0.0
C2320 C 0.51147 0.9078 0.4617 0.0
C2321 C 0.53528 0.904 0.41274 0.0
C2322 C 0.53069 0.91011 0.46628 0.0
C2323 C 0.52954 0.92864 0.47479 0.0
C2324 C 0.50911 0.94496 0.4792 0.0
C2325 C 0.48979 0.94197 0.47584 0.0
C2326 C 0.49098 0.92356 0.4671 0.0
H2327 H 0.53848 0.90353 0.39329 0.0
H2328 H 0.52544 0.92107 0.4154 0.0
H2329 H 0.55138 0.89953 0.41943 0.0
H2330 H 0.54661 0.89786 0.46266 0.0
H2331 H 0.54467 0.93035 0.47752 0.0
H2332 H 0.43563 0.55491 0.07007 0.0
H2333 H 0.426 0.58754 0.0885 0.0
H2334 H 0.48316 0.60138 0.04814 0.0
H2335 H 0.49226 0.56972 0.02904 0.0
H2336 H 0.4503 0.59251 0.11663 0.0
H2337 H 0.43951 0.66177 0.04184 0.0
H2338 H 0.4398 0.63526 0.03849 0.0
H2339 H 0.46524 0.64061 0.03612 0.0
C2340 C 0.44583 0.56521 0.06473 0.0
C2341 C 0.46483 0.55956 0.04825 0.0
C2342 C 0.4403 0.58386 0.07525 0.0
C2343 C 0.45365 0.59713 0.06943 0.0
C2344 C 0.47221 0.59184 0.05243 0.0
H2345 H 0.49844 0.67016 0.13604 0.0
H2346 H 0.48976 0.65146 0.10912 0.0
C2347 C 0.4776 0.57343 0.04177 0.0
C2348 C 0.45013 0.61468 0.08322 0.0
H2349 H 0.4513 0.66662 0.07726 0.0
C2350 C 0.44989 0.60891 0.10808 0.0
C2351 C 0.44965 0.63608 0.07206 0.0
C2352 C 0.44832 0.64382 0.04567 0.0
C2353 C 0.45066 0.62344 0.12186 0.0
C2354 C 0.45159 0.64427 0.11047 0.0
C2355 C 0.45072 0.65053 0.08583 0.0
C2356 C 0.45551 0.65877 0.1238 0.0
C2357 C 0.45172 0.61601 0.14834 0.0
C2358 C 0.4389 0.66958 0.14035 0.0
C2359 C 0.44381 0.68022 0.15575 0.0
C2360 C 0.46543 0.68009 0.15485 0.0
C2361 C 0.48171 0.6703 0.13728 0.0
C2362 C 0.47676 0.65977 0.12182 0.0
H2363 H 0.45279 0.59858 0.15407 0.0
H2364 H 0.46622 0.61813 0.15343 0.0
H2365 H 0.43676 0.62629 0.15823 0.0
H2366 H 0.42242 0.6689 0.14207 0.0
H2367 H 0.43098 0.68747 0.16923 0.0
loop_
_geom_bond_atom_site_label_1
_geom_bond_atom_site_label_2
_geom_bond_distance
_geom_bond_site_symmetry_2
_ccdc_geom_bond_type
Ho0 C3 2.811 . S
Ho0 O20 2.291 1_654 S
Ho0 O22 2.378 . S
Ho0 O23 2.524 . S
Ho0 O24 2.381 1_655 S
Ho0 O25 2.669 1_655 S
Ho0 O27 2.346 1_565 S
Ho0 O31 2.305 1_564 S
Ho1 C12 2.811 . S
Ho1 O21 2.346 1_545 S
Ho1 O25 2.305 1_546 S
Ho1 O26 2.322 1_456 S
Ho1 O28 2.378 . S
Ho1 O29 2.524 . S
Ho1 O30 2.381 1_455 S
Ho1 O31 2.669 1_455 S
C2 O20 1.304 . S
C2 O21 1.268 . S
C3 Ho0 2.811 . S
C3 C4 1.488 . S
C3 O22 1.215 . S
C3 O23 1.289 . S
C4 C3 1.488 . S
C4 C5 1.348 . S
C4 C9 1.413 . S
C5 C4 1.348 . S
C5 C6 1.442 . S
C5 H32 0.930 1_554 S
C6 C5 1.442 . S
C6 C7 1.381 . S
C6 H33 0.931 1_554 S
C7 C6 1.381 . S
C7 C8 1.321 . S
C8 C7 1.321 . S
C8 C9 1.403 . S
C8 H34 0.934 . S
C9 C4 1.413 . S
C9 C8 1.403 . S
C9 H35 0.930 . S
C10 O24 1.275 . S
C10 O25 1.256 . S
C11 O26 1.259 . S
C11 O27 1.268 . S
C12 Ho1 2.811 . S
C12 C13 1.488 . S
C12 O28 1.215 . S
C12 O29 1.289 . S
C13 C12 1.488 . S
C13 C14 1.348 . S
C13 C18 1.413 . S
C14 C13 1.348 . S
C14 C15 1.442 . S
C14 H36 0.930 1_556 S
C15 C14 1.442 . S
C15 C16 1.381 . S
C15 H37 0.931 1_556 S
C16 C15 1.381 . S
C16 C17 1.321 . S
C17 C16 1.321 . S
C17 C18 1.403 . S
C17 H38 0.934 . S
C18 C13 1.413 . S
C18 C17 1.403 . S
C18 H39 0.930 . S
C19 O30 1.275 . S
C19 O31 1.256 . S
O20 Ho0 2.291 1_456 S
O20 C2 1.304 . S
O21 Ho1 2.346 1_565 S
O21 C2 1.268 . S
O22 Ho0 2.378 . S
O22 C3 1.215 . S
O23 Ho0 2.524 . S
O23 C3 1.289 . S
O24 Ho0 2.381 1_455 S
O24 C10 1.275 . S
O25 Ho0 2.669 1_455 S
O25 Ho1 2.305 1_564 S
O25 C10 1.256 . S
O26 Ho1 2.322 1_654 S
O26 C11 1.259 . S
O27 Ho0 2.346 1_545 S
O27 C11 1.268 . S
O28 Ho1 2.378 . S
O28 C12 1.215 . S
O29 Ho1 2.524 . S
O29 C12 1.289 . S
O30 Ho1 2.381 1_655 S
O30 C19 1.275 . S
O31 Ho0 2.305 1_546 S
O31 Ho1 2.669 1_655 S
O31 C19 1.256 . S
H32 C5 0.930 1_556 S
H33 C6 0.931 1_556 S
H34 C8 0.934 . S
H35 C9 0.930 . S
H36 C14 0.930 1_554 S
H37 C15 0.931 1_554 S
H38 C17 0.934 . S
H39 C18 0.930 . S
Ho40 C43 2.811 . S
Ho40 O60 2.322 1_455 S
Ho40 O62 2.378 . S
Ho40 O63 2.524 1_455 S
Ho40 O64 2.381 . S
Ho40 O65 2.669 . S
Ho40 O67 2.346 . S
Ho40 O71 2.305 1_455 S
Ho41 C52 2.811 . S
Ho41 O61 2.346 . S
Ho41 O65 2.305 1_655 S
Ho41 O66 2.322 1_655 S
Ho41 O68 2.378 . S
Ho41 O69 2.524 1_655 S
Ho41 O70 2.381 . S
Ho41 O71 2.669 . S
C42 O60 1.259 . S
C42 O61 1.268 . S
C43 Ho40 2.811 . S
C43 C44 1.488 . S
C43 O62 1.215 . S
C43 O63 1.289 1_455 S
C44 C43 1.488 . S
C44 C45 1.348 1_455 S
C44 C49 1.413 . S
C45 C44 1.348 1_655 S
C45 C46 1.442 . S
C45 H72 0.930 . S
C46 C45 1.442 . S
C46 C47 1.381 . S
C46 H73 0.931 . S
C47 C46 1.381 . S
C47 C48 1.321 1_655 S
C48 C47 1.321 1_455 S
C48 C49 1.403 . S
C48 H74 0.934 . S
C49 C44 1.413 . S
C49 C48 1.403 . S
C49 H75 0.930 . S
C50 O64 1.275 . S
C50 O65 1.256 . S
C51 O66 1.259 . S
C51 O67 1.268 . S
C52 Ho41 2.811 . S
C52 C53 1.488 . S
C52 O68 1.215 . S
C52 O69 1.289 1_655 S
C53 C52 1.488 . S
C53 C54 1.348 1_655 S
C53 C58 1.413 . S
C54 C53 1.348 1_455 S
C54 C55 1.442 . S
C54 H76 0.930 . S
C55 C54 1.442 . S
C55 C56 1.381 . S
C55 H77 0.931 . S
C56 C55 1.381 . S
C56 C57 1.321 1_455 S
C57 C56 1.321 1_655 S
C57 C58 1.403 . S
C57 H78 0.934 . S
C58 C53 1.413 . S
C58 C57 1.403 . S
C58 H79 0.930 . S
C59 O70 1.275 . S
C59 O71 1.256 . S
O60 Ho40 2.322 1_655 S
O60 C42 1.259 . S
O61 Ho41 2.346 . S
O61 C42 1.268 . S
O62 Ho40 2.378 . S
O62 C43 1.215 . S
O63 Ho40 2.524 1_655 S
O63 C43 1.289 1_655 S
O64 Ho40 2.381 . S
O64 C50 1.275 . S
O65 Ho40 2.669 . S
O65 Ho41 2.305 1_455 S
O65 C50 1.256 . S
O66 Ho41 2.322 1_455 S
O66 C51 1.259 . S
O67 Ho40 2.346 . S
O67 C51 1.268 . S
O68 Ho41 2.378 . S
O68 C52 1.215 . S
O69 Ho41 2.524 1_455 S
O69 C52 1.289 1_455 S
O70 Ho41 2.381 . S
O70 C59 1.275 . S
O71 Ho40 2.305 1_655 S
O71 Ho41 2.669 . S
O71 C59 1.256 . S
H72 C45 0.930 . S
H73 C46 0.931 . S
H74 C48 0.934 . S
H75 C49 0.930 . S
H76 C54 0.930 . S
H77 C55 0.931 . S
H78 C57 0.934 . S
H79 C58 0.930 . S
Ho80 C83 2.811 . S
Ho80 O100 2.322 . S
Ho80 O102 2.378 . S
Ho80 O103 2.524 . S
Ho80 O104 2.381 . S
Ho80 O105 2.669 . S
Ho80 O107 2.346 . S
Ho80 O111 2.305 . S
Ho81 C92 2.811 . S
Ho81 O101 2.346 . S
Ho81 O105 2.305 . S
Ho81 O106 2.322 . S
Ho81 O108 2.378 . S
Ho81 O109 2.524 . S
Ho81 O110 2.381 . S
Ho81 O111 2.669 . S
C82 O100 1.259 . S
C82 O101 1.268 . S
C83 Ho80 2.811 . S
C83 C84 1.488 . S
C83 O102 1.215 . S
C83 O103 1.289 . S
C84 C83 1.488 . S
C84 C85 1.348 . S
C84 C89 1.413 . S
C85 C84 1.348 . S
C85 C86 1.442 . S
C85 H112 0.930 . S
C86 C85 1.442 . S
C86 C87 1.381 . S
C86 H113 0.931 . S
C87 C86 1.381 . S
C87 C88 1.321 . S
C88 C87 1.321 . S
C88 C89 1.403 . S
C88 H114 0.934 . S
C89 C84 1.413 . S
C89 C88 1.403 . S
C89 H115 0.930 . S
C90 O104 1.275 . S
C90 O105 1.256 . S
C91 O106 1.259 . S
C91 O107 1.268 . S
C92 Ho81 2.811 . S
C92 C93 1.488 . S
C92 O108 1.215 . S
C92 O109 1.289 . S
C93 C92 1.488 . S
C93 C94 1.348 . S
C93 C98 1.413 . S
C94 C93 1.348 . S
C94 C95 1.442 . S
C94 H116 0.930 . S
C95 C94 1.442 . S
C95 C96 1.381 . S
C95 H117 0.931 . S
C96 C95 1.381 . S
C96 C97 1.321 . S
C97 C96 1.321 . S
C97 C98 1.403 . S
C97 H118 0.934 . S
C98 C93 1.413 . S
C98 C97 1.403 . S
C98 H119 0.930 . S
C99 O110 1.275 . S
C99 O111 1.256 . S
O100 Ho80 2.322 . S
O100 C82 1.259 . S
O101 Ho81 2.346 . S
O101 C82 1.268 . S
O102 Ho80 2.378 . S
O102 C83 1.215 . S
O103 Ho80 2.524 . S
O103 C83 1.289 . S
O104 Ho80 2.381 . S
O104 C90 1.275 . S
O105 Ho80 2.669 . S
O105 Ho81 2.305 . S
O105 C90 1.256 . S
O106 Ho81 2.322 . S
O106 C91 1.259 . S
O107 Ho80 2.346 . S
O107 C91 1.268 . S
O108 Ho81 2.378 . S
O108 C92 1.215 . S
O109 Ho81 2.524 . S
O109 C92 1.289 . S
O110 Ho81 2.381 . S
O110 C99 1.275 . S
O111 Ho80 2.305 . S
O111 Ho81 2.669 . S
O111 C99 1.256 . S
H112 C85 0.930 . S
H113 C86 0.931 . S
H114 C88 0.934 . S
H115 C89 0.930 . S
H116 C94 0.930 . S
H117 C95 0.931 . S
H118 C97 0.934 . S
H119 C98 0.930 . S
Ho120 C123 2.811 . S
Ho120 O140 2.322 1_565 S
Ho120 O142 2.378 . S
Ho120 O143 2.524 1_565 S
Ho120 O144 2.381 . S
Ho120 O145 2.669 . S
Ho120 O147 2.346 . S
Ho120 O151 2.305 1_565 S
Ho121 C132 2.811 . S
Ho121 O141 2.346 . S
Ho121 O145 2.305 1_545 S
Ho121 O146 2.322 1_545 S
Ho121 O148 2.378 . S
Ho121 O149 2.524 1_545 S
Ho121 O150 2.381 . S
Ho121 O151 2.669 . S
C122 O140 1.259 . S
C122 O141 1.268 . S
C123 Ho120 2.811 . S
C123 C124 1.492 1_565 S
C123 O142 1.215 . S
C123 O143 1.289 1_565 S
C124 C123 1.492 1_545 S
C124 C125 1.371 . S
C124 C129 1.388 1_545 S
C125 C124 1.371 . S
C125 C126 1.442 . S
C125 H152 0.930 . S
C126 C125 1.442 . S
C126 C127 1.381 . S
C126 H153 0.931 . S
C127 C126 1.381 . S
C127 C128 1.321 1_545 S
C128 C127 1.321 1_565 S
C128 C129 1.403 . S
C128 H154 0.934 . S
C129 C124 1.388 1_565 S
C129 C128 1.403 . S
C129 H155 0.930 . S
C130 O144 1.275 . S
C130 O145 1.256 . S
C131 O146 1.259 . S
C131 O147 1.268 . S
C132 Ho121 2.811 . S
C132 C133 1.490 1_545 S
C132 O148 1.215 . S
C132 O149 1.289 1_545 S
C133 C132 1.490 1_565 S
C133 C134 1.362 . S
C133 C138 1.398 1_565 S
C134 C133 1.362 . S
C134 C135 1.442 . S
C134 H156 0.930 . S
C135 C134 1.442 . S
C135 C136 1.381 . S
C135 H157 0.931 . S
C136 C135 1.381 . S
C136 C137 1.321 1_565 S
C137 C136 1.321 1_545 S
C137 C138 1.403 . S
C137 H158 0.934 . S
C138 C133 1.398 1_545 S
C138 C137 1.403 . S
C138 H159 0.930 . S
C139 O150 1.275 . S
C139 O151 1.256 . S
O140 Ho120 2.322 1_545 S
O140 C122 1.259 . S
O141 Ho121 2.346 . S
O141 C122 1.268 . S
O142 Ho120 2.378 . S
O142 C123 1.215 . S
O143 Ho120 2.524 1_545 S
O143 C123 1.289 1_545 S
O144 Ho120 2.381 . S
O144 C130 1.275 . S
O145 Ho120 2.669 . S
O145 Ho121 2.305 1_565 S
O145 C130 1.256 . S
O146 Ho121 2.322 1_565 S
O146 C131 1.259 . S
O147 Ho120 2.346 . S
O147 C131 1.268 . S
O148 Ho121 2.378 . S
O148 C132 1.215 . S
O149 Ho121 2.524 1_565 S
O149 C132 1.289 1_565 S
O150 Ho121 2.381 . S
O150 C139 1.275 . S
O151 Ho120 2.305 1_545 S
O151 Ho121 2.669 . S
O151 C139 1.256 . S
H152 C125 0.930 . S
H153 C126 0.931 . S
H154 C128 0.934 . S
H155 C129 0.930 . S
H156 C134 0.930 . S
H157 C135 0.931 . S
H158 C137 0.934 . S
H159 C138 0.930 . S
Ho160 C163 2.811 . S
Ho160 O180 2.322 . S
Ho160 O182 2.378 . S
Ho160 O183 2.524 . S
Ho160 O184 2.381 . S
Ho160 O185 2.669 . S
Ho160 O187 2.346 . S
Ho160 O191 2.305 . S
Ho161 C172 2.811 . S
Ho161 O181 2.346 . S
Ho161 O185 2.305 . S
Ho161 O186 2.322 . S
Ho161 O188 2.378 . S
Ho161 O189 2.524 . S
Ho161 O190 2.381 . S
Ho161 O191 2.669 . S
C162 O180 1.259 . S
C162 O181 1.268 . S
C163 Ho160 2.811 . S
C163 C164 1.488 . S
C163 O182 1.215 . S
C163 O183 1.289 . S
C164 C163 1.488 . S
C164 C165 1.348 . S
C164 C169 1.413 . S
C165 C164 1.348 . S
C165 C166 1.442 . S
C165 H192 0.930 . S
C166 C165 1.442 . S
C166 C167 1.381 . S
C166 H193 0.931 . S
C167 C166 1.381 . S
C167 C168 1.321 . S
C168 C167 1.321 . S
C168 C169 1.403 . S
C168 H194 0.934 . S
C169 C164 1.413 . S
C169 C168 1.403 . S
C169 H195 0.930 . S
C170 O184 1.275 . S
C170 O185 1.256 . S
C171 O186 1.259 . S
C171 O187 1.268 . S
C172 Ho161 2.811 . S
C172 C173 1.488 . S
C172 O188 1.215 . S
C172 O189 1.289 . S
C173 C172 1.488 . S
C173 C174 1.348 . S
C173 C178 1.413 . S
C174 C173 1.348 . S
C174 C175 1.442 . S
C174 H196 0.930 . S
C175 C174 1.442 . S
C175 C176 1.381 . S
C175 H197 0.931 . S
C176 C175 1.381 . S
C176 C177 1.321 . S
C177 C176 1.321 . S
C177 C178 1.403 . S
C177 H198 0.934 . S
C178 C173 1.413 . S
C178 C177 1.403 . S
C178 H199 0.930 . S
C179 O190 1.275 . S
C179 O191 1.256 . S
O180 Ho160 2.322 . S
O180 C162 1.259 . S
O181 Ho161 2.346 . S
O181 C162 1.268 . S
O182 Ho160 2.378 . S
O182 C163 1.215 . S
O183 Ho160 2.524 . S
O183 C163 1.289 . S
O184 Ho160 2.381 . S
O184 C170 1.275 . S
O185 Ho160 2.669 . S
O185 Ho161 2.305 . S
O185 C170 1.256 . S
O186 Ho161 2.322 . S
O186 C171 1.259 . S
O187 Ho160 2.346 . S
O187 C171 1.268 . S
O188 Ho161 2.378 . S
O188 C172 1.215 . S
O189 Ho161 2.524 . S
O189 C172 1.289 . S
O190 Ho161 2.381 . S
O190 C179 1.275 . S
O191 Ho160 2.305 . S
O191 Ho161 2.669 . S
O191 C179 1.256 . S
H192 C165 0.930 . S
H193 C166 0.931 . S
H194 C168 0.934 . S
H195 C169 0.930 . S
H196 C174 0.930 . S
H197 C175 0.931 . S
H198 C177 0.934 . S
H199 C178 0.930 . S
Ho200 C203 2.811 . S
Ho200 O220 2.322 . S
Ho200 O222 2.378 . S
Ho200 O223 2.524 . S
Ho200 O224 2.381 . S
Ho200 O225 2.669 . S
Ho200 O227 2.346 . S
Ho200 O231 2.305 . S
Ho201 C212 2.811 . S
Ho201 O221 2.346 . S
Ho201 O225 2.305 . S
Ho201 O226 2.322 . S
Ho201 O228 2.378 . S
Ho201 O229 2.524 . S
Ho201 O230 2.381 . S
Ho201 O231 2.669 . S
C202 O220 1.259 . S
C202 O221 1.268 . S
C203 Ho200 2.811 . S
C203 C204 1.488 . S
C203 O222 1.215 . S
C203 O223 1.289 . S
C204 C203 1.488 . S
C204 C205 1.348 . S
C204 C209 1.413 . S
C205 C204 1.348 . S
C205 C206 1.442 . S
C205 H232 0.930 . S
C206 C205 1.442 . S
C206 C207 1.381 . S
C206 H233 0.931 . S
C207 C206 1.381 . S
C207 C208 1.321 . S
C208 C207 1.321 . S
C208 C209 1.403 . S
C208 H234 0.934 . S
C209 C204 1.413 . S
C209 C208 1.403 . S
C209 H235 0.930 . S
C210 O224 1.275 . S
C210 O225 1.256 . S
C211 O226 1.259 . S
C211 O227 1.268 . S
C212 Ho201 2.811 . S
C212 C213 1.488 . S
C212 O228 1.215 . S
C212 O229 1.289 . S
C213 C212 1.488 . S
C213 C214 1.348 . S
C213 C218 1.413 . S
C214 C213 1.348 . S
C214 C215 1.442 . S
C214 H236 0.930 . S
C215 C214 1.442 . S
C215 C216 1.381 . S
C215 H237 0.931 . S
C216 C215 1.381 . S
C216 C217 1.321 . S
C217 C216 1.321 . S
C217 C218 1.403 . S
C217 H238 0.934 . S
C218 C213 1.413 . S
C218 C217 1.403 . S
C218 H239 0.930 . S
C219 O230 1.275 . S
C219 O231 1.256 . S
O220 Ho200 2.322 . S
O220 C202 1.259 . S
O221 Ho201 2.346 . S
O221 C202 1.268 . S
O222 Ho200 2.378 . S
O222 C203 1.215 . S
O223 Ho200 2.524 . S
O223 C203 1.289 . S
O224 Ho200 2.381 . S
O224 C210 1.275 . S
O225 Ho200 2.669 . S
O225 Ho201 2.305 . S
O225 C210 1.256 . S
O226 Ho201 2.322 . S
O226 C211 1.259 . S
O227 Ho200 2.346 . S
O227 C211 1.268 . S
O228 Ho201 2.378 . S
O228 C212 1.215 . S
O229 Ho201 2.524 . S
O229 C212 1.289 . S
O230 Ho201 2.381 . S
O230 C219 1.275 . S
O231 Ho200 2.305 . S
O231 Ho201 2.669 . S
O231 C219 1.256 . S
H232 C205 0.930 . S
H233 C206 0.931 . S
H234 C208 0.934 . S
H235 C209 0.930 . S
H236 C214 0.930 . S
H237 C215 0.931 . S
H238 C217 0.934 . S
H239 C218 0.930 . S
Ho240 C243 2.811 . S
Ho240 O260 2.322 . S
Ho240 O262 2.378 . S
Ho240 O263 2.524 . S
Ho240 O264 2.381 . S
Ho240 O265 2.669 . S
Ho240 O267 2.346 . S
Ho240 O271 2.305 . S
Ho241 C252 2.811 . S
Ho241 O261 2.346 . S
Ho241 O265 2.305 . S
Ho241 O266 2.322 . S
Ho241 O268 2.378 . S
Ho241 O269 2.524 . S
Ho241 O270 2.381 . S
Ho241 O271 2.669 . S
C242 O260 1.259 . S
C242 O261 1.268 . S
C243 Ho240 2.811 . S
C243 C244 1.488 . S
C243 O262 1.215 . S
C243 O263 1.289 . S
C244 C243 1.488 . S
C244 C245 1.348 . S
C244 C249 1.413 . S
C245 C244 1.348 . S
C245 C246 1.442 . S
C245 H272 0.930 . S
C246 C245 1.442 . S
C246 C247 1.381 . S
C246 H273 0.931 . S
C247 C246 1.381 . S
C247 C248 1.321 . S
C248 C247 1.321 . S
C248 C249 1.403 . S
C248 H274 0.934 . S
C249 C244 1.413 . S
C249 C248 1.403 . S
C249 H275 0.930 . S
C250 O264 1.275 . S
C250 O265 1.256 . S
C251 O266 1.259 . S
C251 O267 1.268 . S
C252 Ho241 2.811 . S
C252 C253 1.488 . S
C252 O268 1.215 . S
C252 O269 1.289 . S
C253 C252 1.488 . S
C253 C254 1.348 . S
C253 C258 1.413 . S
C254 C253 1.348 . S
C254 C255 1.442 . S
C254 H276 0.930 . S
C255 C254 1.442 . S
C255 C256 1.381 . S
C255 H277 0.931 . S
C256 C255 1.381 . S
C256 C257 1.321 . S
C257 C256 1.321 . S
C257 C258 1.403 . S
C257 H278 0.934 . S
C258 C253 1.413 . S
C258 C257 1.403 . S
C258 H279 0.930 . S
C259 O270 1.275 . S
C259 O271 1.256 . S
O260 Ho240 2.322 . S
O260 C242 1.259 . S
O261 Ho241 2.346 . S
O261 C242 1.268 . S
O262 Ho240 2.378 . S
O262 C243 1.215 . S
O263 Ho240 2.524 . S
O263 C243 1.289 . S
O264 Ho240 2.381 . S
O264 C250 1.275 . S
O265 Ho240 2.669 . S
O265 Ho241 2.305 . S
O265 C250 1.256 . S
O266 Ho241 2.322 . S
O266 C251 1.259 . S
O267 Ho240 2.346 . S
O267 C251 1.268 . S
O268 Ho241 2.378 . S
O268 C252 1.215 . S
O269 Ho241 2.524 . S
O269 C252 1.289 . S
O270 Ho241 2.381 . S
O270 C259 1.275 . S
O271 Ho240 2.305 . S
O271 Ho241 2.669 . S
O271 C259 1.256 . S
H272 C245 0.930 . S
H273 C246 0.931 . S
H274 C248 0.934 . S
H275 C249 0.930 . S
H276 C254 0.930 . S
H277 C255 0.931 . S
H278 C257 0.934 . S
H279 C258 0.930 . S
Ho280 C283 2.811 . S
Ho280 O300 2.322 1_655 S
Ho280 O302 2.378 . S
Ho280 O303 2.524 . S
Ho280 O304 2.381 1_655 S
Ho280 O305 2.669 1_655 S
Ho280 O307 2.346 . S
Ho280 O311 2.305 . S
Ho281 C292 2.811 . S
Ho281 O301 2.346 . S
Ho281 O305 2.305 . S
Ho281 O306 2.322 1_455 S
Ho281 O308 2.378 . S
Ho281 O309 2.524 . S
Ho281 O310 2.381 1_455 S
Ho281 O311 2.669 1_455 S
C282 O300 1.259 . S
C282 O301 1.268 . S
C283 Ho280 2.811 . S
C283 C284 1.488 . S
C283 O302 1.215 . S
C283 O303 1.289 . S
C284 C283 1.488 . S
C284 C285 1.348 . S
C284 C289 1.413 . S
C285 C284 1.348 . S
C285 C286 1.442 . S
C285 H312 0.930 . S
C286 C285 1.442 . S
C286 C287 1.381 . S
C286 H313 0.931 . S
C287 C286 1.381 . S
C287 C288 1.321 . S
C288 C287 1.321 . S
C288 C289 1.403 . S
C288 H314 0.934 . S
C289 C284 1.413 . S
C289 C288 1.403 . S
C289 H315 0.930 . S
C290 O304 1.275 . S
C290 O305 1.256 . S
C291 O306 1.259 . S
C291 O307 1.268 . S
C292 Ho281 2.811 . S
C292 C293 1.488 . S
C292 O308 1.215 . S
C292 O309 1.289 . S
C293 C292 1.488 . S
C293 C294 1.348 . S
C293 C298 1.413 . S
C294 C293 1.348 . S
C294 C295 1.442 . S
C294 H316 0.930 . S
C295 C294 1.442 . S
C295 C296 1.381 . S
C295 H317 0.931 . S
C296 C295 1.381 . S
C296 C297 1.321 . S
C297 C296 1.321 . S
C297 C298 1.403 . S
C297 H318 0.934 . S
C298 C293 1.413 . S
C298 C297 1.403 . S
C298 H319 0.930 . S
C299 O310 1.275 . S
C299 O311 1.256 . S
O300 Ho280 2.322 1_455 S
O300 C282 1.259 . S
O301 Ho281 2.346 . S
O301 C282 1.268 . S
O302 Ho280 2.378 . S
O302 C283 1.215 . S
O303 Ho280 2.524 . S
O303 C283 1.289 . S
O304 Ho280 2.381 1_455 S
O304 C290 1.275 . S
O305 Ho280 2.669 1_455 S
O305 Ho281 2.305 . S
O305 C290 1.256 . S
O306 Ho281 2.322 1_655 S
O306 C291 1.259 . S
O307 Ho280 2.346 . S
O307 C291 1.268 . S
O308 Ho281 2.378 . S
O308 C292 1.215 . S
O309 Ho281 2.524 . S
O309 C292 1.289 . S
O310 Ho281 2.381 1_655 S
O310 C299 1.275 . S
O311 Ho280 2.305 . S
O311 Ho281 2.669 1_655 S
O311 C299 1.256 . S
H312 C285 0.930 . S
H313 C286 0.931 . S
H314 C288 0.934 . S
H315 C289 0.930 . S
H316 C294 0.930 . S
H317 C295 0.931 . S
H318 C297 0.934 . S
H319 C298 0.930 . S
Ho320 C323 2.811 . S
Ho320 O340 2.322 1_556 S
Ho320 O342 2.378 . S
Ho320 O343 2.524 1_556 S
Ho320 O344 2.381 . S
Ho320 O345 2.669 . S
Ho320 O347 2.346 . S
Ho320 O351 2.305 1_556 S
Ho321 C332 2.811 . S
Ho321 O341 2.346 . S
Ho321 O345 2.305 1_554 S
Ho321 O346 2.322 1_554 S
Ho321 O348 2.378 . S
Ho321 O349 2.524 1_554 S
Ho321 O350 2.381 . S
Ho321 O351 2.669 . S
C322 O340 1.259 . S
C322 O341 1.268 . S
C323 Ho320 2.811 . S
C323 C324 1.488 . S
C323 O342 1.215 . S
C323 O343 1.289 1_556 S
C324 C323 1.488 . S
C324 C325 1.348 1_556 S
C324 C329 1.413 . S
C325 C324 1.348 1_554 S
C325 C326 1.442 . S
C325 H352 0.930 . S
C326 C325 1.442 . S
C326 C327 1.381 1_554 S
C326 H353 0.931 . S
C327 C326 1.381 1_556 S
C327 C328 1.321 . S
C328 C327 1.321 . S
C328 C329 1.403 . S
C328 H354 0.934 . S
C329 C324 1.413 . S
C329 C328 1.403 . S
C329 H355 0.930 . S
C330 O344 1.275 . S
C330 O345 1.256 . S
C331 O346 1.259 . S
C331 O347 1.268 . S
C332 Ho321 2.811 . S
C332 C333 1.488 . S
C332 O348 1.215 . S
C332 O349 1.289 1_554 S
C333 C332 1.488 . S
C333 C334 1.348 1_554 S
C333 C338 1.413 . S
C334 C333 1.348 1_556 S
C334 C335 1.442 . S
C334 H356 0.930 . S
C335 C334 1.442 . S
C335 C336 1.381 1_556 S
C335 H357 0.931 . S
C336 C335 1.381 1_554 S
C336 C337 1.321 . S
C337 C336 1.321 . S
C337 C338 1.403 . S
C337 H358 0.934 . S
C338 C333 1.413 . S
C338 C337 1.403 . S
C338 H359 0.930 . S
C339 O350 1.275 . S
C339 O351 1.256 . S
O340 Ho320 2.322 1_554 S
O340 C322 1.259 . S
O341 Ho321 2.346 . S
O341 C322 1.268 . S
O342 Ho320 2.378 . S
O342 C323 1.215 . S
O343 Ho320 2.524 1_554 S
O343 C323 1.289 1_554 S
O344 Ho320 2.381 . S
O344 C330 1.275 . S
O345 Ho320 2.669 . S
O345 Ho321 2.305 1_556 S
O345 C330 1.256 . S
O346 Ho321 2.322 1_556 S
O346 C331 1.259 . S
O347 Ho320 2.346 . S
O347 C331 1.268 . S
O348 Ho321 2.378 . S
O348 C332 1.215 . S
O349 Ho321 2.524 1_556 S
O349 C332 1.289 1_556 S
O350 Ho321 2.381 . S
O350 C339 1.275 . S
O351 Ho320 2.305 1_554 S
O351 Ho321 2.669 . S
O351 C339 1.256 . S
H352 C325 0.930 . S
H353 C326 0.931 . S
H354 C328 0.934 . S
H355 C329 0.930 . S
H356 C334 0.930 . S
H357 C335 0.931 . S
H358 C337 0.934 . S
H359 C338 0.930 . S
Ho360 C363 2.811 . S
Ho360 O380 2.322 1_565 S
Ho360 O382 2.378 . S
Ho360 O383 2.524 1_565 S
Ho360 O384 2.381 . S
Ho360 O385 2.669 . S
Ho360 O387 2.346 . S
Ho360 O391 2.305 1_565 S
Ho361 C372 2.811 . S
Ho361 O381 2.346 . S
Ho361 O385 2.305 1_545 S
Ho361 O386 2.322 1_545 S
Ho361 O388 2.378 . S
Ho361 O389 2.524 1_545 S
Ho361 O390 2.381 . S
Ho361 O391 2.669 . S
C362 O380 1.259 . S
C362 O381 1.268 . S
C363 Ho360 2.811 . S
C363 C364 1.492 1_565 S
C363 O382 1.215 . S
C363 O383 1.289 1_565 S
C364 C363 1.492 1_545 S
C364 C365 1.371 . S
C364 C369 1.388 1_545 S
C365 C364 1.371 . S
C365 C366 1.442 . S
C365 H392 0.930 . S
C366 C365 1.442 . S
C366 C367 1.381 . S
C366 H393 0.931 . S
C367 C366 1.381 . S
C367 C368 1.321 1_545 S
C368 C367 1.321 1_565 S
C368 C369 1.403 . S
C368 H394 0.934 . S
C369 C364 1.388 1_565 S
C369 C368 1.403 . S
C369 H395 0.930 . S
C370 O384 1.275 . S
C370 O385 1.256 . S
C371 O386 1.259 . S
C371 O387 1.268 . S
C372 Ho361 2.811 . S
C372 C373 1.490 1_545 S
C372 O388 1.215 . S
C372 O389 1.289 1_545 S
C373 C372 1.490 1_565 S
C373 C374 1.362 . S
C373 C378 1.398 1_565 S
C374 C373 1.362 . S
C374 C375 1.442 . S
C374 H396 0.930 . S
C375 C374 1.442 . S
C375 C376 1.381 . S
C375 H397 0.931 . S
C376 C375 1.381 . S
C376 C377 1.321 1_565 S
C377 C376 1.321 1_545 S
C377 C378 1.403 . S
C377 H398 0.934 . S
C378 C373 1.398 1_545 S
C378 C377 1.403 . S
C378 H399 0.930 . S
C379 O390 1.275 . S
C379 O391 1.256 . S
O380 Ho360 2.322 1_545 S
O380 C362 1.259 . S
O381 Ho361 2.346 . S
O381 C362 1.268 . S
O382 Ho360 2.378 . S
O382 C363 1.215 . S
O383 Ho360 2.524 1_545 S
O383 C363 1.289 1_545 S
O384 Ho360 2.381 . S
O384 C370 1.275 . S
O385 Ho360 2.669 . S
O385 Ho361 2.305 1_565 S
O385 C370 1.256 . S
O386 Ho361 2.322 1_565 S
O386 C371 1.259 . S
O387 Ho360 2.346 . S
O387 C371 1.268 . S
O388 Ho361 2.378 . S
O388 C372 1.215 . S
O389 Ho361 2.524 1_565 S
O389 C372 1.289 1_565 S
O390 Ho361 2.381 . S
O390 C379 1.275 . S
O391 Ho360 2.305 1_545 S
O391 Ho361 2.669 . S
O391 C379 1.256 . S
H392 C365 0.930 . S
H393 C366 0.931 . S
H394 C368 0.934 . S
H395 C369 0.930 . S
H396 C374 0.930 . S
H397 C375 0.931 . S
H398 C377 0.934 . S
H399 C378 0.930 . S
Ho400 C403 2.811 . S
Ho400 O420 2.322 . S
Ho400 O422 2.378 . S
Ho400 O423 2.524 . S
Ho400 O424 2.381 . S
Ho400 O425 2.669 . S
Ho400 O427 2.346 . S
Ho400 O431 2.305 . S
Ho401 C412 2.811 . S
Ho401 O421 2.346 . S
Ho401 O425 2.305 . S
Ho401 O426 2.322 . S
Ho401 O428 2.378 . S
Ho401 O429 2.524 . S
Ho401 O430 2.381 . S
Ho401 O431 2.669 . S
C402 O420 1.259 . S
C402 O421 1.268 . S
C403 Ho400 2.811 . S
C403 C404 1.488 . S
C403 O422 1.215 . S
C403 O423 1.289 . S
C404 C403 1.488 . S
C404 C405 1.348 . S
C404 C409 1.413 . S
C405 C404 1.348 . S
C405 C406 1.442 . S
C405 H432 0.930 . S
C406 C405 1.442 . S
C406 C407 1.381 . S
C406 H433 0.931 . S
C407 C406 1.381 . S
C407 C408 1.321 . S
C408 C407 1.321 . S
C408 C409 1.403 . S
C408 H434 0.934 . S
C409 C404 1.413 . S
C409 C408 1.403 . S
C409 H435 0.930 . S
C410 O424 1.275 . S
C410 O425 1.256 . S
C411 O426 1.259 . S
C411 O427 1.268 . S
C412 Ho401 2.811 . S
C412 C413 1.488 . S
C412 O428 1.215 . S
C412 O429 1.289 . S
C413 C412 1.488 . S
C413 C414 1.348 . S
C413 C418 1.413 . S
C414 C413 1.348 . S
C414 C415 1.442 . S
C414 H436 0.930 . S
C415 C414 1.442 . S
C415 C416 1.381 . S
C415 H437 0.931 . S
C416 C415 1.381 . S
C416 C417 1.321 . S
C417 C416 1.321 . S
C417 C418 1.403 . S
C417 H438 0.934 . S
C418 C413 1.413 . S
C418 C417 1.403 . S
C418 H439 0.930 . S
C419 O430 1.275 . S
C419 O431 1.256 . S
O420 Ho400 2.322 . S
O420 C402 1.259 . S
O421 Ho401 2.346 . S
O421 C402 1.268 . S
O422 Ho400 2.378 . S
O422 C403 1.215 . S
O423 Ho400 2.524 . S
O423 C403 1.289 . S
O424 Ho400 2.381 . S
O424 C410 1.275 . S
O425 Ho400 2.669 . S
O425 Ho401 2.305 . S
O425 C410 1.256 . S
O426 Ho401 2.322 . S
O426 C411 1.259 . S
O427 Ho400 2.346 . S
O427 C411 1.268 . S
O428 Ho401 2.378 . S
O428 C412 1.215 . S
O429 Ho401 2.524 . S
O429 C412 1.289 . S
O430 Ho401 2.381 . S
O430 C419 1.275 . S
O431 Ho400 2.305 . S
O431 Ho401 2.669 . S
O431 C419 1.256 . S
H432 C405 0.930 . S
H433 C406 0.931 . S
H434 C408 0.934 . S
H435 C409 0.930 . S
H436 C414 0.930 . S
H437 C415 0.931 . S
H438 C417 0.934 . S
H439 C418 0.930 . S
Ho440 C443 2.811 . S
Ho440 O460 2.322 1_455 S
Ho440 O462 2.378 . S
Ho440 O463 2.524 1_455 S
Ho440 O464 2.381 . S
Ho440 O465 2.669 . S
Ho440 O467 2.346 . S
Ho440 O471 2.305 1_455 S
Ho441 C452 2.811 . S
Ho441 O461 2.346 . S
Ho441 O465 2.305 1_655 S
Ho441 O466 2.322 1_655 S
Ho441 O468 2.378 . S
Ho441 O469 2.524 1_655 S
Ho441 O470 2.381 . S
Ho441 O471 2.669 . S
C442 O460 1.259 . S
C442 O461 1.268 . S
C443 Ho440 2.811 . S
C443 C444 1.488 . S
C443 O462 1.215 . S
C443 O463 1.289 1_455 S
C444 C443 1.488 . S
C444 C445 1.348 1_455 S
C444 C449 1.413 . S
C445 C444 1.348 1_655 S
C445 C446 1.442 . S
C445 H472 0.930 . S
C446 C445 1.442 . S
C446 C447 1.381 . S
C446 H473 0.931 . S
C447 C446 1.381 . S
C447 C448 1.321 1_655 S
C448 C447 1.321 1_455 S
C448 C449 1.403 . S
C448 H474 0.934 . S
C449 C444 1.413 . S
C449 C448 1.403 . S
C449 H475 0.930 . S
C450 O464 1.275 . S
C450 O465 1.256 . S
C451 O466 1.259 . S
C451 O467 1.268 . S
C452 Ho441 2.811 . S
C452 C453 1.488 . S
C452 O468 1.215 . S
C452 O469 1.289 1_655 S
C453 C452 1.488 . S
C453 C454 1.348 1_655 S
C453 C458 1.413 . S
C454 C453 1.348 1_455 S
C454 C455 1.442 . S
C454 H476 0.930 . S
C455 C454 1.442 . S
C455 C456 1.381 . S
C455 H477 0.931 . S
C456 C455 1.381 . S
C456 C457 1.321 1_455 S
C457 C456 1.321 1_655 S
C457 C458 1.403 . S
C457 H478 0.934 . S
C458 C453 1.413 . S
C458 C457 1.403 . S
C458 H479 0.930 . S
C459 O470 1.275 . S
C459 O471 1.256 . S
O460 Ho440 2.322 1_655 S
O460 C442 1.259 . S
O461 Ho441 2.346 . S
O461 C442 1.268 . S
O462 Ho440 2.378 . S
O462 C443 1.215 . S
O463 Ho440 2.524 1_655 S
O463 C443 1.289 1_655 S
O464 Ho440 2.381 . S
O464 C450 1.275 . S
O465 Ho440 2.669 . S
O465 Ho441 2.305 1_455 S
O465 C450 1.256 . S
O466 Ho441 2.322 1_455 S
O466 C451 1.259 . S
O467 Ho440 2.346 . S
O467 C451 1.268 . S
O468 Ho441 2.378 . S
O468 C452 1.215 . S
O469 Ho441 2.524 1_455 S
O469 C452 1.289 1_455 S
O470 Ho441 2.381 . S
O470 C459 1.275 . S
O471 Ho440 2.305 1_655 S
O471 Ho441 2.669 . S
O471 C459 1.256 . S
H472 C445 0.930 . S
H473 C446 0.931 . S
H474 C448 0.934 . S
H475 C449 0.930 . S
H476 C454 0.930 . S
H477 C455 0.931 . S
H478 C457 0.934 . S
H479 C458 0.930 . S
Ho480 C483 2.811 . S
Ho480 O500 2.322 . S
Ho480 O502 2.378 . S
Ho480 O503 2.524 . S
Ho480 O504 2.381 . S
Ho480 O505 2.669 . S
Ho480 O507 2.346 . S
Ho480 O511 2.305 . S
Ho481 C492 2.811 . S
Ho481 O501 2.346 . S
Ho481 O505 2.305 . S
Ho481 O506 2.322 . S
Ho481 O508 2.378 . S
Ho481 O509 2.524 . S
Ho481 O510 2.381 . S
Ho481 O511 2.669 . S
C482 O500 1.259 . S
C482 O501 1.268 . S
C483 Ho480 2.811 . S
C483 C484 1.488 . S
C483 O502 1.215 . S
C483 O503 1.289 . S
C484 C483 1.488 . S
C484 C485 1.348 . S
C484 C489 1.413 . S
C485 C484 1.348 . S
C485 C486 1.442 . S
C485 H512 0.930 . S
C486 C485 1.442 . S
C486 C487 1.381 . S
C486 H513 0.931 . S
C487 C486 1.381 . S
C487 C488 1.321 . S
C488 C487 1.321 . S
C488 C489 1.403 . S
C488 H514 0.934 . S
C489 C484 1.413 . S
C489 C488 1.403 . S
C489 H515 0.930 . S
C490 O504 1.275 . S
C490 O505 1.256 . S
C491 O506 1.259 . S
C491 O507 1.268 . S
C492 Ho481 2.811 . S
C492 C493 1.488 . S
C492 O508 1.215 . S
C492 O509 1.289 . S
C493 C492 1.488 . S
C493 C494 1.348 . S
C493 C498 1.413 . S
C494 C493 1.348 . S
C494 C495 1.442 . S
C494 H516 0.930 . S
C495 C494 1.442 . S
C495 C496 1.381 . S
C495 H517 0.931 . S
C496 C495 1.381 . S
C496 C497 1.321 . S
C497 C496 1.321 . S
C497 C498 1.403 . S
C497 H518 0.934 . S
C498 C493 1.413 . S
C498 C497 1.403 . S
C498 H519 0.930 . S
C499 O510 1.275 . S
C499 O511 1.256 . S
O500 Ho480 2.322 . S
O500 C482 1.259 . S
O501 Ho481 2.346 . S
O501 C482 1.268 . S
O502 Ho480 2.378 . S
O502 C483 1.215 . S
O503 Ho480 2.524 . S
O503 C483 1.289 . S
O504 Ho480 2.381 . S
O504 C490 1.275 . S
O505 Ho480 2.669 . S
O505 Ho481 2.305 . S
O505 C490 1.256 . S
O506 Ho481 2.322 . S
O506 C491 1.259 . S
O507 Ho480 2.346 . S
O507 C491 1.268 . S
O508 Ho481 2.378 . S
O508 C492 1.215 . S
O509 Ho481 2.524 . S
O509 C492 1.289 . S
O510 Ho481 2.381 . S
O510 C499 1.275 . S
O511 Ho480 2.305 . S
O511 Ho481 2.669 . S
O511 C499 1.256 . S
H512 C485 0.930 . S
H513 C486 0.931 . S
H514 C488 0.934 . S
H515 C489 0.930 . S
H516 C494 0.930 . S
H517 C495 0.931 . S
H518 C497 0.934 . S
H519 C498 0.930 . S
Ho520 C523 2.811 . S
Ho520 O540 2.322 1_556 S
Ho520 O542 2.378 . S
Ho520 O543 2.524 1_556 S
Ho520 O544 2.381 . S
Ho520 O545 2.669 . S
Ho520 O547 2.346 . S
Ho520 O551 2.305 1_556 S
Ho521 C532 2.811 . S
Ho521 O541 2.346 . S
Ho521 O545 2.305 1_554 S
Ho521 O546 2.322 1_554 S
Ho521 O548 2.378 . S
Ho521 O549 2.524 1_554 S
Ho521 O550 2.381 . S
Ho521 O551 2.669 . S
C522 O540 1.259 . S
C522 O541 1.268 . S
C523 Ho520 2.811 . S
C523 C524 1.488 . S
C523 O542 1.215 . S
C523 O543 1.289 1_556 S
C524 C523 1.488 . S
C524 C525 1.348 1_556 S
C524 C529 1.413 . S
C525 C524 1.348 1_554 S
C525 C526 1.442 . S
C525 H552 0.930 . S
C526 C525 1.442 . S
C526 C527 1.381 1_554 S
C526 H553 0.931 . S
C527 C526 1.381 1_556 S
C527 C528 1.321 . S
C528 C527 1.321 . S
C528 C529 1.403 . S
C528 H554 0.934 . S
C529 C524 1.413 . S
C529 C528 1.403 . S
C529 H555 0.930 . S
C530 O544 1.275 . S
C530 O545 1.256 . S
C531 O546 1.259 . S
C531 O547 1.268 . S
C532 Ho521 2.811 . S
C532 C533 1.488 . S
C532 O548 1.215 . S
C532 O549 1.289 1_554 S
C533 C532 1.488 . S
C533 C534 1.348 1_554 S
C533 C538 1.413 . S
C534 C533 1.348 1_556 S
C534 C535 1.442 . S
C534 H556 0.930 . S
C535 C534 1.442 . S
C535 C536 1.381 1_556 S
C535 H557 0.931 . S
C536 C535 1.381 1_554 S
C536 C537 1.321 . S
C537 C536 1.321 . S
C537 C538 1.403 . S
C537 H558 0.934 . S
C538 C533 1.413 . S
C538 C537 1.403 . S
C538 H559 0.930 . S
C539 O550 1.275 . S
C539 O551 1.256 . S
O540 Ho520 2.322 1_554 S
O540 C522 1.259 . S
O541 Ho521 2.346 . S
O541 C522 1.268 . S
O542 Ho520 2.378 . S
O542 C523 1.215 . S
O543 Ho520 2.524 1_554 S
O543 C523 1.289 1_554 S
O544 Ho520 2.381 . S
O544 C530 1.275 . S
O545 Ho520 2.669 . S
O545 Ho521 2.305 1_556 S
O545 C530 1.256 . S
O546 Ho521 2.322 1_556 S
O546 C531 1.259 . S
O547 Ho520 2.346 . S
O547 C531 1.268 . S
O548 Ho521 2.378 . S
O548 C532 1.215 . S
O549 Ho521 2.524 1_556 S
O549 C532 1.289 1_556 S
O550 Ho521 2.381 . S
O550 C539 1.275 . S
O551 Ho520 2.305 1_554 S
O551 Ho521 2.669 . S
O551 C539 1.256 . S
H552 C525 0.930 . S
H553 C526 0.931 . S
H554 C528 0.934 . S
H555 C529 0.930 . S
H556 C534 0.930 . S
H557 C535 0.931 . S
H558 C537 0.934 . S
H559 C538 0.930 . S
Ho560 C563 2.811 . S
Ho560 O580 2.322 . S
Ho560 O582 2.378 . S
Ho560 O583 2.524 . S
Ho560 O584 2.381 . S
Ho560 O585 2.669 . S
Ho560 O587 2.346 1_565 S
Ho560 O591 2.305 1_565 S
Ho561 C572 2.811 . S
Ho561 O581 2.346 1_545 S
Ho561 O585 2.305 1_545 S
Ho561 O586 2.322 . S
Ho561 O588 2.378 . S
Ho561 O589 2.524 . S
Ho561 O590 2.381 . S
Ho561 O591 2.669 . S
C562 O580 1.259 . S
C562 O581 1.268 . S
C563 Ho560 2.811 . S
C563 C564 1.488 . S
C563 O582 1.215 . S
C563 O583 1.289 . S
C564 C563 1.488 . S
C564 C565 1.348 . S
C564 C569 1.413 . S
C565 C564 1.348 . S
C565 C566 1.442 . S
C565 H592 0.930 . S
C566 C565 1.442 . S
C566 C567 1.381 . S
C566 H593 0.931 . S
C567 C566 1.381 . S
C567 C568 1.321 . S
C568 C567 1.321 . S
C568 C569 1.403 . S
C568 H594 0.934 . S
C569 C564 1.413 . S
C569 C568 1.403 . S
C569 H595 0.930 . S
C570 O584 1.275 . S
C570 O585 1.256 . S
C571 O586 1.259 . S
C571 O587 1.268 . S
C572 Ho561 2.811 . S
C572 C573 1.488 . S
C572 O588 1.215 . S
C572 O589 1.289 . S
C573 C572 1.488 . S
C573 C574 1.348 . S
C573 C578 1.413 . S
C574 C573 1.348 . S
C574 C575 1.442 . S
C574 H596 0.930 . S
C575 C574 1.442 . S
C575 C576 1.381 . S
C575 H597 0.931 . S
C576 C575 1.381 . S
C576 C577 1.321 . S
C577 C576 1.321 . S
C577 C578 1.403 . S
C577 H598 0.934 . S
C578 C573 1.413 . S
C578 C577 1.403 . S
C578 H599 0.930 . S
C579 O590 1.275 . S
C579 O591 1.256 . S
O580 Ho560 2.322 . S
O580 C562 1.259 . S
O581 Ho561 2.346 1_565 S
O581 C562 1.268 . S
O582 Ho560 2.378 . S
O582 C563 1.215 . S
O583 Ho560 2.524 . S
O583 C563 1.289 . S
O584 Ho560 2.381 . S
O584 C570 1.275 . S
O585 Ho560 2.669 . S
O585 Ho561 2.305 1_565 S
O585 C570 1.256 . S
O586 Ho561 2.322 . S
O586 C571 1.259 . S
O587 Ho560 2.346 1_545 S
O587 C571 1.268 . S
O588 Ho561 2.378 . S
O588 C572 1.215 . S
O589 Ho561 2.524 . S
O589 C572 1.289 . S
O590 Ho561 2.381 . S
O590 C579 1.275 . S
O591 Ho560 2.305 1_545 S
O591 Ho561 2.669 . S
O591 C579 1.256 . S
H592 C565 0.930 . S
H593 C566 0.931 . S
H594 C568 0.934 . S
H595 C569 0.930 . S
H596 C574 0.930 . S
H597 C575 0.931 . S
H598 C577 0.934 . S
H599 C578 0.930 . S
Ho600 C603 2.811 . S
Ho600 O620 2.291 1_554 S
Ho600 O622 2.378 . S
Ho600 O623 2.524 . S
Ho600 O624 2.381 . S
Ho600 O625 2.669 . S
Ho600 O627 2.346 . S
Ho600 O631 2.305 1_554 S
Ho601 C612 2.811 . S
Ho601 O621 2.346 . S
Ho601 O625 2.305 1_556 S
Ho601 O626 2.322 1_556 S
Ho601 O628 2.378 . S
Ho601 O629 2.524 . S
Ho601 O630 2.381 . S
Ho601 O631 2.669 . S
C602 O620 1.304 . S
C602 O621 1.268 . S
C603 Ho600 2.811 . S
C603 C604 1.488 . S
C603 O622 1.215 . S
C603 O623 1.289 . S
C604 C603 1.488 . S
C604 C605 1.348 . S
C604 C609 1.413 . S
C605 C604 1.348 . S
C605 C606 1.442 . S
C605 H632 0.930 1_554 S
C606 C605 1.442 . S
C606 C607 1.381 . S
C606 H633 0.931 1_554 S
C607 C606 1.381 . S
C607 C608 1.321 . S
C608 C607 1.321 . S
C608 C609 1.403 . S
C608 H634 0.934 . S
C609 C604 1.413 . S
C609 C608 1.403 . S
C609 H635 0.930 . S
C610 O624 1.275 . S
C610 O625 1.256 . S
C611 O626 1.259 . S
C611 O627 1.268 . S
C612 Ho601 2.811 . S
C612 C613 1.488 . S
C612 O628 1.215 . S
C612 O629 1.289 . S
C613 C612 1.488 . S
C613 C614 1.348 . S
C613 C618 1.413 . S
C614 C613 1.348 . S
C614 C615 1.442 . S
C614 H636 0.930 1_556 S
C615 C614 1.442 . S
C615 C616 1.381 . S
C615 H637 0.931 1_556 S
C616 C615 1.381 . S
C616 C617 1.321 . S
C617 C616 1.321 . S
C617 C618 1.403 . S
C617 H638 0.934 . S
C618 C613 1.413 . S
C618 C617 1.403 . S
C618 H639 0.930 . S
C619 O630 1.275 . S
C619 O631 1.256 . S
O620 Ho600 2.291 1_556 S
O620 C602 1.304 . S
O621 Ho601 2.346 . S
O621 C602 1.268 . S
O622 Ho600 2.378 . S
O622 C603 1.215 . S
O623 Ho600 2.524 . S
O623 C603 1.289 . S
O624 Ho600 2.381 . S
O624 C610 1.275 . S
O625 Ho600 2.669 . S
O625 Ho601 2.305 1_554 S
O625 C610 1.256 . S
O626 Ho601 2.322 1_554 S
O626 C611 1.259 . S
O627 Ho600 2.346 . S
O627 C611 1.268 . S
O628 Ho601 2.378 . S
O628 C612 1.215 . S
O629 Ho601 2.524 . S
O629 C612 1.289 . S
O630 Ho601 2.381 . S
O630 C619 1.275 . S
O631 Ho600 2.305 1_556 S
O631 Ho601 2.669 . S
O631 C619 1.256 . S
H632 C605 0.930 1_556 S
H633 C606 0.931 1_556 S
H634 C608 0.934 . S
H635 C609 0.930 . S
H636 C614 0.930 1_554 S
H637 C615 0.931 1_554 S
H638 C617 0.934 . S
H639 C618 0.930 . S
H640 C648 0.929 . S
H641 C650 0.930 . S
H642 C652 0.930 . S
H643 C655 0.929 . S
H644 C658 0.930 . S
H645 C660 0.960 . S
H646 C660 0.960 . S
H647 C660 0.960 . S
C648 H640 0.929 . S
C648 C649 1.377 . S
C648 C650 1.384 . S
C649 C648 1.377 . S
C649 C655 1.390 . S
C650 H641 0.930 . S
C650 C648 1.384 . S
C650 C651 1.372 . S
C651 C650 1.372 . S
C651 C652 1.400 . S
C651 C656 1.490 . S
C652 H642 0.930 . S
C652 C651 1.400 . S
C652 C655 1.386 . S
H653 C669 0.930 . S
H654 C670 0.931 . S
C655 H643 0.929 . S
C655 C649 1.390 . S
C655 C652 1.386 . S
C656 C651 1.490 . S
C656 C658 1.395 1_655 S
C656 C659 1.403 . S
H657 C663 0.930 . S
C658 H644 0.930 . S
C658 C656 1.395 1_455 S
C658 C661 1.403 . S
C659 C656 1.403 . S
C659 C660 1.524 . S
C659 C663 1.400 . S
C660 H645 0.960 . S
C660 H646 0.960 . S
C660 H647 0.960 . S
C660 C659 1.524 . S
C661 C658 1.403 . S
C661 C662 1.392 . S
C661 C665 1.495 . S
C662 C661 1.392 . S
C662 C663 1.385 1_455 S
C662 C664 1.478 . S
C663 H657 0.930 . S
C663 C659 1.400 . S
C663 C662 1.385 1_655 S
C664 C662 1.478 . S
C664 C666 1.381 . S
C664 C670 1.383 . S
C665 C661 1.495 . S
C665 H671 0.959 . S
C665 H672 0.961 . S
C665 H673 0.960 . S
C666 C664 1.381 . S
C666 C667 1.394 . S
C666 H674 0.930 . S
C667 C666 1.394 . S
C667 C668 1.383 . S
C667 H675 0.929 . S
C668 C667 1.383 . S
C668 C669 1.377 . S
C669 H653 0.930 . S
C669 C668 1.377 . S
C669 C670 1.379 . S
C670 H654 0.931 . S
C670 C664 1.383 . S
C670 C669 1.379 . S
H671 C665 0.959 . S
H672 C665 0.961 . S
H673 C665 0.960 . S
H674 C666 0.930 . S
H675 C667 0.929 . S
H676 C684 0.929 . S
H677 C686 0.930 . S
H678 C688 0.930 . S
H679 C691 0.929 . S
H680 C694 0.930 . S
H681 C696 0.960 . S
H682 C696 0.960 . S
H683 C696 0.960 . S
C684 H676 0.929 . S
C684 C685 1.377 . S
C684 C686 1.384 . S
C685 C684 1.377 . S
C685 C691 1.390 . S
C686 H677 0.930 . S
C686 C684 1.384 . S
C686 C687 1.372 . S
C687 C686 1.372 . S
C687 C688 1.400 . S
C687 C692 1.490 . S
C688 H678 0.930 . S
C688 C687 1.400 . S
C688 C691 1.386 . S
H689 C705 0.930 . S
H690 C706 0.931 . S
C691 H679 0.929 . S
C691 C685 1.390 . S
C691 C688 1.386 . S
C692 C687 1.490 . S
C692 C694 1.395 . S
C692 C695 1.403 . S
H693 C699 0.930 . S
C694 H680 0.930 . S
C694 C692 1.395 . S
C694 C697 1.403 . S
C695 C692 1.403 . S
C695 C696 1.524 . S
C695 C699 1.400 . S
C696 H681 0.960 . S
C696 H682 0.960 . S
C696 H683 0.960 . S
C696 C695 1.524 . S
C697 C694 1.403 . S
C697 C698 1.392 . S
C697 C701 1.495 . S
C698 C697 1.392 . S
C698 C699 1.385 . S
C698 C700 1.478 . S
C699 H693 0.930 . S
C699 C695 1.400 . S
C699 C698 1.385 . S
C700 C698 1.478 . S
C700 C702 1.381 . S
C700 C706 1.383 . S
C701 C697 1.495 . S
C701 H707 0.959 . S
C701 H708 0.961 . S
C701 H709 0.960 . S
C702 C700 1.381 . S
C702 C703 1.394 . S
C702 H710 0.930 . S
C703 C702 1.394 . S
C703 C704 1.383 . S
C703 H711 0.929 . S
C704 C703 1.383 . S
C704 C705 1.377 . S
C705 H689 0.930 . S
C705 C704 1.377 . S
C705 C706 1.379 . S
C706 H690 0.931 . S
C706 C700 1.383 . S
C706 C705 1.379 . S
H707 C701 0.959 . S
H708 C701 0.961 . S
H709 C701 0.960 . S
H710 C702 0.930 . S
H711 C703 0.929 . S
H712 C720 0.929 . S
H713 C722 0.930 . S
H714 C724 0.930 . S
H715 C727 0.929 . S
H716 C730 0.930 . S
H717 C732 0.960 . S
H718 C732 0.960 . S
H719 C732 0.960 . S
C720 H712 0.929 . S
C720 C721 1.377 . S
C720 C722 1.384 . S
C721 C720 1.377 . S
C721 C727 1.390 . S
C722 H713 0.930 . S
C722 C720 1.384 . S
C722 C723 1.372 . S
C723 C722 1.372 . S
C723 C724 1.400 . S
C723 C728 1.490 . S
C724 H714 0.930 . S
C724 C723 1.400 . S
C724 C727 1.386 . S
H725 C741 0.930 . S
H726 C742 0.931 . S
C727 H715 0.929 . S
C727 C721 1.390 . S
C727 C724 1.386 . S
C728 C723 1.490 . S
C728 C730 1.395 . S
C728 C731 1.403 . S
H729 C735 0.930 . S
C730 H716 0.930 . S
C730 C728 1.395 . S
C730 C733 1.403 . S
C731 C728 1.403 . S
C731 C732 1.524 . S
C731 C735 1.400 . S
C732 H717 0.960 . S
C732 H718 0.960 . S
C732 H719 0.960 . S
C732 C731 1.524 . S
C733 C730 1.403 . S
C733 C734 1.392 . S
C733 C737 1.495 . S
C734 C733 1.392 . S
C734 C735 1.385 . S
C734 C736 1.478 . S
C735 H729 0.930 . S
C735 C731 1.400 . S
C735 C734 1.385 . S
C736 C734 1.478 . S
C736 C738 1.381 . S
C736 C742 1.383 . S
C737 C733 1.495 . S
C737 H743 0.959 . S
C737 H744 0.961 . S
C737 H745 0.960 . S
C738 C736 1.381 . S
C738 C739 1.394 . S
C738 H746 0.930 . S
C739 C738 1.394 . S
C739 C740 1.383 . S
C739 H747 0.929 . S
C740 C739 1.383 . S
C740 C741 1.377 . S
C741 H725 0.930 . S
C741 C740 1.377 . S
C741 C742 1.379 . S
C742 H726 0.931 . S
C742 C736 1.383 . S
C742 C741 1.379 . S
H743 C737 0.959 . S
H744 C737 0.961 . S
H745 C737 0.960 . S
H746 C738 0.930 . S
H747 C739 0.929 . S
H748 C756 0.929 . S
H749 C758 0.930 . S
H750 C760 0.930 . S
H751 C763 0.929 1_565 S
H752 C766 0.930 . S
H753 C768 0.960 . S
H754 C768 0.960 1_545 S
H755 C768 0.960 . S
C756 H748 0.929 . S
C756 C757 1.377 . S
C756 C758 1.384 . S
C757 C756 1.377 . S
C757 C763 1.390 . S
C758 H749 0.930 . S
C758 C756 1.384 . S
C758 C759 1.372 . S
C759 C758 1.372 . S
C759 C760 1.400 1_545 S
C759 C764 1.490 . S
C760 H750 0.930 . S
C760 C759 1.400 1_565 S
C760 C763 1.386 1_565 S
H761 C777 0.930 . S
H762 C778 0.931 . S
C763 H751 0.929 1_545 S
C763 C757 1.390 . S
C763 C760 1.386 1_545 S
C764 C759 1.490 . S
C764 C766 1.395 . S
C764 C767 1.432 . S
H765 C771 0.930 . S
C766 H752 0.930 . S
C766 C764 1.395 . S
C766 C769 1.403 . S
C767 C764 1.432 . S
C767 C768 1.515 1_545 S
C767 C771 1.381 1_545 S
C768 H753 0.960 . S
C768 H754 0.960 1_565 S
C768 H755 0.960 . S
C768 C767 1.515 1_565 S
C769 C766 1.403 . S
C769 C770 1.392 . S
C769 C773 1.495 . S
C770 C769 1.392 . S
C770 C771 1.385 1_545 S
C770 C772 1.478 . S
C771 H765 0.930 . S
C771 C767 1.381 1_565 S
C771 C770 1.385 1_565 S
C772 C770 1.478 . S
C772 C774 1.381 . S
C772 C778 1.383 1_545 S
C773 C769 1.495 . S
C773 H779 0.959 . S
C773 H780 0.961 . S
C773 H781 0.960 . S
C774 C772 1.381 . S
C774 C775 1.394 . S
C774 H782 0.930 . S
C775 C774 1.394 . S
C775 C776 1.383 1_545 S
C775 H783 0.929 . S
C776 C775 1.383 1_565 S
C776 C777 1.377 . S
C777 H761 0.930 . S
C777 C776 1.377 . S
C777 C778 1.379 . S
C778 H762 0.931 . S
C778 C772 1.383 1_565 S
C778 C777 1.379 . S
H779 C773 0.959 . S
H780 C773 0.961 . S
H781 C773 0.960 . S
H782 C774 0.930 . S
H783 C775 0.929 . S
H784 C792 0.929 . S
H785 C794 0.930 . S
H786 C796 0.986 . S
H787 C799 0.929 1_545 S
H788 C802 0.930 . S
H789 C804 0.960 . S
H790 C804 0.960 . S
H791 C804 0.960 . S
C792 H784 0.929 . S
C792 C793 1.377 . S
C792 C794 1.384 . S
C793 C792 1.377 . S
C793 C799 1.390 . S
C794 H785 0.930 . S
C794 C792 1.384 . S
C794 C795 1.372 . S
C795 C794 1.372 . S
C795 C796 1.373 1_565 S
C795 C800 1.490 . S
C796 H786 0.986 . S
C796 C795 1.373 1_545 S
C796 C799 1.359 1_545 S
H797 C813 0.930 . S
H798 C814 0.931 . S
C799 H787 0.929 1_565 S
C799 C793 1.390 . S
C799 C796 1.359 1_565 S
C800 C795 1.490 . S
C800 C802 1.395 . S
C800 C803 1.403 1_565 S
H801 C807 0.930 . S
C802 H788 0.930 . S
C802 C800 1.395 . S
C802 C805 1.403 . S
C803 C800 1.403 1_545 S
C803 C804 1.524 . S
C803 C807 1.400 . S
C804 H789 0.960 . S
C804 H790 0.960 . S
C804 H791 0.960 . S
C804 C803 1.524 . S
C805 C802 1.403 . S
C805 C806 1.392 . S
C805 C809 1.495 . S
C806 C805 1.392 . S
C806 C807 1.385 1_565 S
C806 C808 1.478 . S
C807 H801 0.930 . S
C807 C803 1.400 . S
C807 C806 1.385 1_545 S
C808 C806 1.478 . S
C808 C810 1.381 . S
C808 C814 1.383 1_565 S
C809 C805 1.495 . S
C809 H815 0.959 . S
C809 H816 0.961 . S
C809 H817 0.960 . S
C810 C808 1.381 . S
C810 C811 1.394 . S
C810 H818 0.930 . S
C811 C810 1.394 . S
C811 C812 1.383 1_565 S
C811 H819 0.929 . S
C812 C811 1.383 1_545 S
C812 C813 1.377 . S
C813 H797 0.930 . S
C813 C812 1.377 . S
C813 C814 1.379 . S
C814 H798 0.931 . S
C814 C808 1.383 1_545 S
C814 C813 1.379 . S
H815 C809 0.959 . S
H816 C809 0.961 . S
H817 C809 0.960 . S
H818 C810 0.930 . S
H819 C811 0.929 . S
H820 C828 0.929 . S
H821 C830 0.930 . S
H822 C832 0.930 1_655 S
H823 C835 0.929 . S
H824 C838 0.930 . S
H825 C840 0.960 . S
H826 C840 0.960 . S
H827 C840 0.960 . S
C828 H820 0.929 . S
C828 C829 1.377 . S
C828 C830 1.384 . S
C829 C828 1.377 . S
C829 C835 1.390 . S
C830 H821 0.930 . S
C830 C828 1.384 . S
C830 C831 1.372 . S
C831 C830 1.372 . S
C831 C832 1.400 . S
C831 C836 1.490 . S
C832 H822 0.930 1_455 S
C832 C831 1.400 . S
C832 C835 1.386 . S
H833 C849 0.930 . S
H834 C850 0.931 . S
C835 H823 0.929 . S
C835 C829 1.390 . S
C835 C832 1.386 . S
C836 C831 1.490 . S
C836 C838 1.395 . S
C836 C839 1.403 1_455 S
H837 C843 0.930 . S
C838 H824 0.930 . S
C838 C836 1.395 . S
C838 C841 1.403 . S
C839 C836 1.403 1_655 S
C839 C840 1.524 . S
C839 C843 1.400 . S
C840 H825 0.960 . S
C840 H826 0.960 . S
C840 H827 0.960 . S
C840 C839 1.524 . S
C841 C838 1.403 . S
C841 C842 1.392 . S
C841 C845 1.495 . S
C842 C841 1.392 . S
C842 C843 1.385 1_455 S
C842 C844 1.478 . S
C843 H837 0.930 . S
C843 C839 1.400 . S
C843 C842 1.385 1_655 S
C844 C842 1.478 . S
C844 C846 1.381 . S
C844 C850 1.383 1_455 S
C845 C841 1.495 . S
C845 H851 0.959 . S
C845 H852 0.961 . S
C845 H853 0.960 . S
C846 C844 1.381 . S
C846 C847 1.423 . S
C846 H854 0.930 . S
C847 C846 1.423 . S
C847 C848 1.360 1_455 S
C847 H855 0.927 . S
C848 C847 1.360 1_655 S
C848 C849 1.377 . S
C849 H833 0.930 . S
C849 C848 1.377 . S
C849 C850 1.379 . S
C850 H834 0.931 . S
C850 C844 1.383 1_655 S
C850 C849 1.379 . S
H851 C845 0.959 . S
H852 C845 0.961 . S
H853 C845 0.960 . S
H854 C846 0.930 . S
H855 C847 0.927 . S
H856 C864 0.929 . S
H857 C866 0.930 . S
H858 C868 0.930 . S
H859 C871 0.929 . S
H860 C874 0.930 . S
H861 C876 0.960 . S
H862 C876 0.960 . S
H863 C876 0.960 . S
C864 H856 0.929 . S
C864 C865 1.377 . S
C864 C866 1.384 . S
C865 C864 1.377 . S
C865 C871 1.390 . S
C866 H857 0.930 . S
C866 C864 1.384 . S
C866 C867 1.372 . S
C867 C866 1.372 . S
C867 C868 1.400 . S
C867 C872 1.490 . S
C868 H858 0.930 . S
C868 C867 1.400 . S
C868 C871 1.386 . S
H869 C885 0.930 . S
H870 C886 0.931 . S
C871 H859 0.929 . S
C871 C865 1.390 . S
C871 C868 1.386 . S
C872 C867 1.490 . S
C872 C874 1.395 . S
C872 C875 1.403 . S
H873 C879 0.930 . S
C874 H860 0.930 . S
C874 C872 1.395 . S
C874 C877 1.403 . S
C875 C872 1.403 . S
C875 C876 1.524 . S
C875 C879 1.400 . S
C876 H861 0.960 . S
C876 H862 0.960 . S
C876 H863 0.960 . S
C876 C875 1.524 . S
C877 C874 1.403 . S
C877 C878 1.392 . S
C877 C881 1.495 . S
C878 C877 1.392 . S
C878 C879 1.385 . S
C878 C880 1.478 . S
C879 H873 0.930 . S
C879 C875 1.400 . S
C879 C878 1.385 . S
C880 C878 1.478 . S
C880 C882 1.381 . S
C880 C886 1.383 . S
C881 C877 1.495 . S
C881 H887 0.959 . S
C881 H888 0.961 . S
C881 H889 0.960 . S
C882 C880 1.381 . S
C882 C883 1.394 . S
C882 H890 0.930 . S
C883 C882 1.394 . S
C883 C884 1.383 . S
C883 H891 0.929 . S
C884 C883 1.383 . S
C884 C885 1.377 . S
C885 H869 0.930 . S
C885 C884 1.377 . S
C885 C886 1.379 . S
C886 H870 0.931 . S
C886 C880 1.383 . S
C886 C885 1.379 . S
H887 C881 0.959 . S
H888 C881 0.961 . S
H889 C881 0.960 . S
H890 C882 0.930 . S
H891 C883 0.929 . S
H892 C900 0.929 . S
H893 C902 0.930 . S
H894 C904 0.930 . S
H895 C907 0.929 . S
H896 C910 0.930 . S
H897 C912 0.960 . S
H898 C912 0.960 . S
H899 C912 0.960 . S
C900 H892 0.929 . S
C900 C901 1.377 . S
C900 C902 1.384 . S
C901 C900 1.377 . S
C901 C907 1.390 . S
C902 H893 0.930 . S
C902 C900 1.384 . S
C902 C903 1.372 . S
C903 C902 1.372 . S
C903 C904 1.400 . S
C903 C908 1.490 . S
C904 H894 0.930 . S
C904 C903 1.400 . S
C904 C907 1.386 . S
H905 C921 0.930 . S
H906 C922 0.931 . S
C907 H895 0.929 . S
C907 C901 1.390 . S
C907 C904 1.386 . S
C908 C903 1.490 . S
C908 C910 1.395 . S
C908 C911 1.403 . S
H909 C915 0.930 . S
C910 H896 0.930 . S
C910 C908 1.395 . S
C910 C913 1.403 . S
C911 C908 1.403 . S
C911 C912 1.524 . S
C911 C915 1.400 . S
C912 H897 0.960 . S
C912 H898 0.960 . S
C912 H899 0.960 . S
C912 C911 1.524 . S
C913 C910 1.403 . S
C913 C914 1.392 . S
C913 C917 1.495 . S
C914 C913 1.392 . S
C914 C915 1.385 . S
C914 C916 1.478 . S
C915 H909 0.930 . S
C915 C911 1.400 . S
C915 C914 1.385 . S
C916 C914 1.478 . S
C916 C918 1.381 . S
C916 C922 1.383 . S
C917 C913 1.495 . S
C917 H923 0.959 . S
C917 H924 0.961 . S
C917 H925 0.960 . S
C918 C916 1.381 . S
C918 C919 1.394 . S
C918 H926 0.930 . S
C919 C918 1.394 . S
C919 C920 1.383 . S
C919 H927 0.929 . S
C920 C919 1.383 . S
C920 C921 1.377 . S
C921 H905 0.930 . S
C921 C920 1.377 . S
C921 C922 1.379 . S
C922 H906 0.931 . S
C922 C916 1.383 . S
C922 C921 1.379 . S
H923 C917 0.959 . S
H924 C917 0.961 . S
H925 C917 0.960 . S
H926 C918 0.930 . S
H927 C919 0.929 . S
H928 C936 0.929 . S
H929 C938 0.930 . S
H930 C940 0.930 . S
H931 C943 0.929 . S
H932 C946 0.930 . S
H933 C948 0.960 . S
H934 C948 0.960 . S
H935 C948 0.960 . S
C936 H928 0.929 . S
C936 C937 1.377 . S
C936 C938 1.384 . S
C937 C936 1.377 . S
C937 C943 1.390 . S
C938 H929 0.930 . S
C938 C936 1.384 . S
C938 C939 1.372 . S
C939 C938 1.372 . S
C939 C940 1.400 . S
C939 C944 1.490 . S
C940 H930 0.930 . S
C940 C939 1.400 . S
C940 C943 1.386 . S
H941 C957 0.930 . S
H942 C958 0.931 . S
C943 H931 0.929 . S
C943 C937 1.390 . S
C943 C940 1.386 . S
C944 C939 1.490 . S
C944 C946 1.395 . S
C944 C947 1.403 . S
H945 C951 0.930 . S
C946 H932 0.930 . S
C946 C944 1.395 . S
C946 C949 1.403 . S
C947 C944 1.403 . S
C947 C948 1.524 . S
C947 C951 1.400 . S
C948 H933 0.960 . S
C948 H934 0.960 . S
C948 H935 0.960 . S
C948 C947 1.524 . S
C949 C946 1.403 . S
C949 C950 1.392 . S
C949 C953 1.495 . S
C950 C949 1.392 . S
C950 C951 1.385 . S
C950 C952 1.478 . S
C951 H945 0.930 . S
C951 C947 1.400 . S
C951 C950 1.385 . S
C952 C950 1.478 . S
C952 C954 1.381 . S
C952 C958 1.383 . S
C953 C949 1.495 . S
C953 H959 0.959 . S
C953 H960 0.961 . S
C953 H961 0.960 . S
C954 C952 1.381 . S
C954 C955 1.394 . S
C954 H962 0.930 . S
C955 C954 1.394 . S
C955 C956 1.383 . S
C955 H963 0.929 . S
C956 C955 1.383 . S
C956 C957 1.377 . S
C957 H941 0.930 . S
C957 C956 1.377 . S
C957 C958 1.379 . S
C958 H942 0.931 . S
C958 C952 1.383 . S
C958 C957 1.379 . S
H959 C953 0.959 . S
H960 C953 0.961 . S
H961 C953 0.960 . S
H962 C954 0.930 . S
H963 C955 0.929 . S
H964 C972 0.929 . S
H965 C974 0.930 . S
H966 C976 0.930 . S
H967 C979 0.929 . S
H968 C982 0.930 . S
H969 C984 0.960 . S
H970 C984 0.960 . S
H971 C984 0.960 . S
C972 H964 0.929 . S
C972 C973 1.377 . S
C972 C974 1.384 . S
C973 C972 1.377 . S
C973 C979 1.390 . S
C974 H965 0.930 . S
C974 C972 1.384 . S
C974 C975 1.372 . S
C975 C974 1.372 . S
C975 C976 1.400 . S
C975 C980 1.490 . S
C976 H966 0.930 . S
C976 C975 1.400 . S
C976 C979 1.386 . S
H977 C993 0.930 . S
H978 C994 0.931 . S
C979 H967 0.929 . S
C979 C973 1.390 . S
C979 C976 1.386 . S
C980 C975 1.490 . S
C980 C982 1.395 . S
C980 C983 1.403 . S
H981 C987 0.930 . S
C982 H968 0.930 . S
C982 C980 1.395 . S
C982 C985 1.403 . S
C983 C980 1.403 . S
C983 C984 1.524 . S
C983 C987 1.400 . S
C984 H969 0.960 . S
C984 H970 0.960 . S
C984 H971 0.960 . S
C984 C983 1.524 . S
C985 C982 1.403 . S
C985 C986 1.392 . S
C985 C989 1.495 . S
C986 C985 1.392 . S
C986 C987 1.385 . S
C986 C988 1.478 . S
C987 H981 0.930 . S
C987 C983 1.400 . S
C987 C986 1.385 . S
C988 C986 1.478 . S
C988 C990 1.381 . S
C988 C994 1.383 . S
C989 C985 1.495 . S
C989 H995 0.959 . S
C989 H996 0.961 . S
C989 H997 0.960 . S
C990 C988 1.381 . S
C990 C991 1.394 . S
C990 H998 0.930 . S
C991 C990 1.394 . S
C991 C992 1.383 . S
C991 H999 0.929 . S
C992 C991 1.383 . S
C992 C993 1.377 . S
C993 H977 0.930 . S
C993 C992 1.377 . S
C993 C994 1.379 . S
C994 H978 0.931 . S
C994 C988 1.383 . S
C994 C993 1.379 . S
H995 C989 0.959 . S
H996 C989 0.961 . S
H997 C989 0.960 . S
H998 C990 0.930 . S
H999 C991 0.929 . S
H1000 C1008 0.929 1_545 S
H1001 C1010 0.930 . S
H1002 C1012 0.930 . S
H1003 C1015 0.929 . S
H1004 C1018 0.925 . S
H1005 C1020 0.960 . S
H1006 C1020 0.960 . S
H1007 C1020 0.960 . S
C1008 H1000 0.929 1_565 S
C1008 C1009 1.377 . S
C1008 C1010 1.384 1_565 S
C1009 C1008 1.377 . S
C1009 C1015 1.390 . S
C1010 H1001 0.930 . S
C1010 C1008 1.384 1_545 S
C1010 C1011 1.372 1_545 S
C1011 C1010 1.372 1_565 S
C1011 C1012 1.400 . S
C1011 C1016 1.490 . S
C1012 H1002 0.930 . S
C1012 C1011 1.400 . S
C1012 C1015 1.386 . S
H1013 C1029 0.930 . S
H1014 C1030 0.931 . S
C1015 H1003 0.929 . S
C1015 C1009 1.390 . S
C1015 C1012 1.386 . S
C1016 C1011 1.490 . S
C1016 C1018 1.395 . S
C1016 C1019 1.403 . S
H1017 C1023 0.930 . S
C1018 H1004 0.925 . S
C1018 C1016 1.395 . S
C1018 C1021 1.403 1_565 S
C1019 C1016 1.403 . S
C1019 C1020 1.524 . S
C1019 C1023 1.400 . S
C1020 H1005 0.960 . S
C1020 H1006 0.960 . S
C1020 H1007 0.960 . S
C1020 C1019 1.524 . S
C1021 C1018 1.403 1_545 S
C1021 C1022 1.392 1_545 S
C1021 C1025 1.495 . S
C1022 C1021 1.392 1_565 S
C1022 C1023 1.385 . S
C1022 C1024 1.478 1_565 S
C1023 H1017 0.930 . S
C1023 C1019 1.400 . S
C1023 C1022 1.385 . S
C1024 C1022 1.478 1_545 S
C1024 C1026 1.381 . S
C1024 C1030 1.383 1_545 S
C1025 C1021 1.495 . S
C1025 H1031 0.959 . S
C1025 H1032 0.961 1_545 S
C1025 H1033 0.960 . S
C1026 C1024 1.381 . S
C1026 C1027 1.394 . S
C1026 H1034 0.930 . S
C1027 C1026 1.394 . S
C1027 C1028 1.383 . S
C1027 H1035 0.929 . S
C1028 C1027 1.383 . S
C1028 C1029 1.377 1_545 S
C1029 H1013 0.930 . S
C1029 C1028 1.377 1_565 S
C1029 C1030 1.379 . S
C1030 H1014 0.931 . S
C1030 C1024 1.383 1_565 S
C1030 C1029 1.379 . S
H1031 C1025 0.959 . S
H1032 C1025 0.961 1_565 S
H1033 C1025 0.960 . S
H1034 C1026 0.930 . S
H1035 C1027 0.929 . S
H1036 C1044 0.929 . S
H1037 C1046 0.930 1_655 S
H1038 C1048 0.930 . S
H1039 C1051 0.929 . S
H1040 C1054 0.930 . S
H1041 C1056 0.960 . S
H1042 C1056 0.960 . S
H1043 C1056 0.960 . S
C1044 H1036 0.929 . S
C1044 C1045 1.377 . S
C1044 C1046 1.384 . S
C1045 C1044 1.377 . S
C1045 C1051 1.390 . S
C1046 H1037 0.930 1_455 S
C1046 C1044 1.384 . S
C1046 C1047 1.372 . S
C1047 C1046 1.372 . S
C1047 C1048 1.400 . S
C1047 C1052 1.490 . S
C1048 H1038 0.930 . S
C1048 C1047 1.400 . S
C1048 C1051 1.386 . S
H1049 C1065 0.930 . S
H1050 C1066 0.931 . S
C1051 H1039 0.929 . S
C1051 C1045 1.390 . S
C1051 C1048 1.386 . S
C1052 C1047 1.490 . S
C1052 C1054 1.395 . S
C1052 C1055 1.403 1_455 S
H1053 C1059 0.930 . S
C1054 H1040 0.930 . S
C1054 C1052 1.395 . S
C1054 C1057 1.403 . S
C1055 C1052 1.403 1_655 S
C1055 C1056 1.524 . S
C1055 C1059 1.400 . S
C1056 H1041 0.960 . S
C1056 H1042 0.960 . S
C1056 H1043 0.960 . S
C1056 C1055 1.524 . S
C1057 C1054 1.403 . S
C1057 C1058 1.392 . S
C1057 C1061 1.495 . S
C1058 C1057 1.392 . S
C1058 C1059 1.385 1_455 S
C1058 C1060 1.478 . S
C1059 H1053 0.930 . S
C1059 C1055 1.400 . S
C1059 C1058 1.385 1_655 S
C1060 C1058 1.478 . S
C1060 C1062 1.381 1_455 S
C1060 C1066 1.383 . S
C1061 C1057 1.495 . S
C1061 H1067 0.959 . S
C1061 H1068 0.961 . S
C1061 H1069 0.960 . S
C1062 C1060 1.381 1_655 S
C1062 C1063 1.394 . S
C1062 H1070 0.930 . S
C1063 C1062 1.394 . S
C1063 C1064 1.383 . S
C1063 H1071 0.929 . S
C1064 C1063 1.383 . S
C1064 C1065 1.377 1_655 S
C1065 H1049 0.930 . S
C1065 C1064 1.377 1_455 S
C1065 C1066 1.379 . S
C1066 H1050 0.931 . S
C1066 C1060 1.383 . S
C1066 C1065 1.379 . S
H1067 C1061 0.959 . S
H1068 C1061 0.961 . S
H1069 C1061 0.960 . S
H1070 C1062 0.930 . S
H1071 C1063 0.929 . S
H1072 C1080 0.929 . S
H1073 C1082 0.930 . S
H1074 C1084 0.930 . S
H1075 C1087 0.929 . S
H1076 C1090 0.930 . S
H1077 C1092 0.960 . S
H1078 C1092 0.960 . S
H1079 C1092 0.945 1_556 S
C1080 H1072 0.929 . S
C1080 C1081 1.377 . S
C1080 C1082 1.384 . S
C1081 C1080 1.377 . S
C1081 C1087 1.390 . S
C1082 H1073 0.930 . S
C1082 C1080 1.384 . S
C1082 C1083 1.372 . S
C1083 C1082 1.372 . S
C1083 C1084 1.400 . S
C1083 C1088 1.490 . S
C1084 H1074 0.930 . S
C1084 C1083 1.400 . S
C1084 C1087 1.386 . S
H1085 C1101 0.930 . S
H1086 C1102 0.931 . S
C1087 H1075 0.929 . S
C1087 C1081 1.390 . S
C1087 C1084 1.386 . S
C1088 C1083 1.490 . S
C1088 C1090 1.395 . S
C1088 C1091 1.403 . S
H1089 C1095 0.930 1_554 S
C1090 H1076 0.930 . S
C1090 C1088 1.395 . S
C1090 C1093 1.403 . S
C1091 C1088 1.403 . S
C1091 C1092 1.524 1_556 S
C1091 C1095 1.400 . S
C1092 H1077 0.960 . S
C1092 H1078 0.960 . S
C1092 H1079 0.945 1_554 S
C1092 C1091 1.524 1_554 S
C1093 C1090 1.403 . S
C1093 C1094 1.392 . S
C1093 C1097 1.495 . S
C1094 C1093 1.392 . S
C1094 C1095 1.385 . S
C1094 C1096 1.478 . S
C1095 H1089 0.930 1_556 S
C1095 C1091 1.400 . S
C1095 C1094 1.385 . S
C1096 C1094 1.478 . S
C1096 C1098 1.381 . S
C1096 C1102 1.383 . S
C1097 C1093 1.495 . S
C1097 H1103 0.959 . S
C1097 H1104 0.961 . S
C1097 H1105 0.960 . S
C1098 C1096 1.381 . S
C1098 C1099 1.394 . S
C1098 H1106 0.930 . S
C1099 C1098 1.394 . S
C1099 C1100 1.383 . S
C1099 H1107 0.929 1_556 S
C1100 C1099 1.383 . S
C1100 C1101 1.377 . S
C1101 H1085 0.930 . S
C1101 C1100 1.377 . S
C1101 C1102 1.379 . S
C1102 H1086 0.931 . S
C1102 C1096 1.383 . S
C1102 C1101 1.379 . S
H1103 C1097 0.959 . S
H1104 C1097 0.961 . S
H1105 C1097 0.960 . S
H1106 C1098 0.930 . S
H1107 C1099 0.929 1_554 S
H1108 C1116 0.929 . S
H1109 C1118 0.930 . S
H1110 C1120 0.930 . S
H1111 C1123 0.929 . S
H1112 C1126 0.930 . S
H1113 C1128 0.960 . S
H1114 C1128 0.960 . S
H1115 C1128 0.960 . S
C1116 H1108 0.929 . S
C1116 C1117 1.377 . S
C1116 C1118 1.384 . S
C1117 C1116 1.377 . S
C1117 C1123 1.390 . S
C1118 H1109 0.930 . S
C1118 C1116 1.384 . S
C1118 C1119 1.372 . S
C1119 C1118 1.372 . S
C1119 C1120 1.400 . S
C1119 C1124 1.490 . S
C1120 H1110 0.930 . S
C1120 C1119 1.400 . S
C1120 C1123 1.386 . S
H1121 C1137 0.930 . S
H1122 C1138 0.931 . S
C1123 H1111 0.929 . S
C1123 C1117 1.390 . S
C1123 C1120 1.386 . S
C1124 C1119 1.490 . S
C1124 C1126 1.395 . S
C1124 C1127 1.403 . S
H1125 C1131 0.930 . S
C1126 H1112 0.930 . S
C1126 C1124 1.395 . S
C1126 C1129 1.403 . S
C1127 C1124 1.403 . S
C1127 C1128 1.524 . S
C1127 C1131 1.400 . S
C1128 H1113 0.960 . S
C1128 H1114 0.960 . S
C1128 H1115 0.960 . S
C1128 C1127 1.524 . S
C1129 C1126 1.403 . S
C1129 C1130 1.392 . S
C1129 C1133 1.495 . S
C1130 C1129 1.392 . S
C1130 C1131 1.385 . S
C1130 C1132 1.478 . S
C1131 H1125 0.930 . S
C1131 C1127 1.400 . S
C1131 C1130 1.385 . S
C1132 C1130 1.478 . S
C1132 C1134 1.381 . S
C1132 C1138 1.383 . S
C1133 C1129 1.495 . S
C1133 H1139 0.959 . S
C1133 H1140 0.961 . S
C1133 H1141 0.960 . S
C1134 C1132 1.381 . S
C1134 C1135 1.394 . S
C1134 H1142 0.930 . S
C1135 C1134 1.394 . S
C1135 C1136 1.383 . S
C1135 H1143 0.929 . S
C1136 C1135 1.383 . S
C1136 C1137 1.377 . S
C1137 H1121 0.930 . S
C1137 C1136 1.377 . S
C1137 C1138 1.379 . S
C1138 H1122 0.931 . S
C1138 C1132 1.383 . S
C1138 C1137 1.379 . S
H1139 C1133 0.959 . S
H1140 C1133 0.961 . S
H1141 C1133 0.960 . S
H1142 C1134 0.930 . S
H1143 C1135 0.929 . S
H1144 C1152 0.929 . S
H1145 C1154 0.930 . S
H1146 C1156 0.930 . S
H1147 C1159 0.929 . S
H1148 C1162 0.930 . S
H1149 C1164 0.960 . S
H1150 C1164 0.960 . S
H1151 C1164 0.960 . S
C1152 H1144 0.929 . S
C1152 C1153 1.377 . S
C1152 C1154 1.384 . S
C1153 C1152 1.377 . S
C1153 C1159 1.390 . S
C1154 H1145 0.930 . S
C1154 C1152 1.384 . S
C1154 C1155 1.372 . S
C1155 C1154 1.372 . S
C1155 C1156 1.400 . S
C1155 C1160 1.490 . S
C1156 H1146 0.930 . S
C1156 C1155 1.400 . S
C1156 C1159 1.386 . S
H1157 C1173 0.930 . S
H1158 C1174 0.931 . S
C1159 H1147 0.929 . S
C1159 C1153 1.390 . S
C1159 C1156 1.386 . S
C1160 C1155 1.490 . S
C1160 C1162 1.395 . S
C1160 C1163 1.403 . S
H1161 C1167 0.930 . S
C1162 H1148 0.930 . S
C1162 C1160 1.395 . S
C1162 C1165 1.403 . S
C1163 C1160 1.403 . S
C1163 C1164 1.524 . S
C1163 C1167 1.400 . S
C1164 H1149 0.960 . S
C1164 H1150 0.960 . S
C1164 H1151 0.960 . S
C1164 C1163 1.524 . S
C1165 C1162 1.403 . S
C1165 C1166 1.392 . S
C1165 C1169 1.495 . S
C1166 C1165 1.392 . S
C1166 C1167 1.385 . S
C1166 C1168 1.478 . S
C1167 H1161 0.930 . S
C1167 C1163 1.400 . S
C1167 C1166 1.385 . S
C1168 C1166 1.478 . S
C1168 C1170 1.381 . S
C1168 C1174 1.383 . S
C1169 C1165 1.495 . S
C1169 H1175 0.959 . S
C1169 H1176 0.961 . S
C1169 H1177 0.960 . S
C1170 C1168 1.381 . S
C1170 C1171 1.394 . S
C1170 H1178 0.930 . S
C1171 C1170 1.394 . S
C1171 C1172 1.383 . S
C1171 H1179 0.929 . S
C1172 C1171 1.383 . S
C1172 C1173 1.377 . S
C1173 H1157 0.930 . S
C1173 C1172 1.377 . S
C1173 C1174 1.379 . S
C1174 H1158 0.931 . S
C1174 C1168 1.383 . S
C1174 C1173 1.379 . S
H1175 C1169 0.959 . S
H1176 C1169 0.961 . S
H1177 C1169 0.960 . S
H1178 C1170 0.930 . S
H1179 C1171 0.929 . S
H1180 C1188 0.929 . S
H1181 C1190 0.930 . S
H1182 C1192 0.930 . S
H1183 C1195 0.929 . S
H1184 C1198 0.930 . S
H1185 C1200 0.960 . S
H1186 C1200 0.960 . S
H1187 C1200 0.960 . S
C1188 H1180 0.929 . S
C1188 C1189 1.377 . S
C1188 C1190 1.384 . S
C1189 C1188 1.377 . S
C1189 C1195 1.390 . S
C1190 H1181 0.930 . S
C1190 C1188 1.384 . S
C1190 C1191 1.372 . S
C1191 C1190 1.372 . S
C1191 C1192 1.400 . S
C1191 C1196 1.490 . S
C1192 H1182 0.930 . S
C1192 C1191 1.400 . S
C1192 C1195 1.386 . S
H1193 C1209 0.930 . S
H1194 C1210 0.931 . S
C1195 H1183 0.929 . S
C1195 C1189 1.390 . S
C1195 C1192 1.386 . S
C1196 C1191 1.490 . S
C1196 C1198 1.395 . S
C1196 C1199 1.403 . S
H1197 C1203 0.930 . S
C1198 H1184 0.930 . S
C1198 C1196 1.395 . S
C1198 C1201 1.403 . S
C1199 C1196 1.403 . S
C1199 C1200 1.524 . S
C1199 C1203 1.400 . S
C1200 H1185 0.960 . S
C1200 H1186 0.960 . S
C1200 H1187 0.960 . S
C1200 C1199 1.524 . S
C1201 C1198 1.403 . S
C1201 C1202 1.392 . S
C1201 C1205 1.495 . S
C1202 C1201 1.392 . S
C1202 C1203 1.385 . S
C1202 C1204 1.478 . S
C1203 H1197 0.930 . S
C1203 C1199 1.400 . S
C1203 C1202 1.385 . S
C1204 C1202 1.478 . S
C1204 C1206 1.381 . S
C1204 C1210 1.383 . S
C1205 C1201 1.495 . S
C1205 H1211 0.959 . S
C1205 H1212 0.961 . S
C1205 H1213 0.960 . S
C1206 C1204 1.381 . S
C1206 C1207 1.394 . S
C1206 H1214 0.930 . S
C1207 C1206 1.394 . S
C1207 C1208 1.383 . S
C1207 H1215 0.929 . S
C1208 C1207 1.383 . S
C1208 C1209 1.377 . S
C1209 H1193 0.930 . S
C1209 C1208 1.377 . S
C1209 C1210 1.379 . S
C1210 H1194 0.931 . S
C1210 C1204 1.383 . S
C1210 C1209 1.379 . S
H1211 C1205 0.959 . S
H1212 C1205 0.961 . S
H1213 C1205 0.960 . S
H1214 C1206 0.930 . S
H1215 C1207 0.929 . S
H1216 C1224 0.929 . S
H1217 C1226 0.930 . S
H1218 C1228 0.930 . S
H1219 C1231 0.929 . S
H1220 C1234 0.930 . S
H1221 C1236 0.960 . S
H1222 C1236 0.960 . S
H1223 C1236 0.960 . S
C1224 H1216 0.929 . S
C1224 C1225 1.377 . S
C1224 C1226 1.384 . S
C1225 C1224 1.377 . S
C1225 C1231 1.390 . S
C1226 H1217 0.930 . S
C1226 C1224 1.384 . S
C1226 C1227 1.372 . S
C1227 C1226 1.372 . S
C1227 C1228 1.400 . S
C1227 C1232 1.490 . S
C1228 H1218 0.930 . S
C1228 C1227 1.400 . S
C1228 C1231 1.386 . S
H1229 C1245 0.930 . S
H1230 C1246 0.931 . S
C1231 H1219 0.929 . S
C1231 C1225 1.390 . S
C1231 C1228 1.386 . S
C1232 C1227 1.490 . S
C1232 C1234 1.395 . S
C1232 C1235 1.403 . S
H1233 C1239 0.930 . S
C1234 H1220 0.930 . S
C1234 C1232 1.395 . S
C1234 C1237 1.403 . S
C1235 C1232 1.403 . S
C1235 C1236 1.524 . S
C1235 C1239 1.400 . S
C1236 H1221 0.960 . S
C1236 H1222 0.960 . S
C1236 H1223 0.960 . S
C1236 C1235 1.524 . S
C1237 C1234 1.403 . S
C1237 C1238 1.392 . S
C1237 C1241 1.495 . S
C1238 C1237 1.392 . S
C1238 C1239 1.385 . S
C1238 C1240 1.478 . S
C1239 H1233 0.930 . S
C1239 C1235 1.400 . S
C1239 C1238 1.385 . S
C1240 C1238 1.478 . S
C1240 C1242 1.381 . S
C1240 C1246 1.383 . S
C1241 C1237 1.495 . S
C1241 H1247 0.959 . S
C1241 H1248 0.961 . S
C1241 H1249 0.960 . S
C1242 C1240 1.381 . S
C1242 C1243 1.394 . S
C1242 H1250 0.930 . S
C1243 C1242 1.394 . S
C1243 C1244 1.383 . S
C1243 H1251 0.929 . S
C1244 C1243 1.383 . S
C1244 C1245 1.377 . S
C1245 H1229 0.930 . S
C1245 C1244 1.377 . S
C1245 C1246 1.379 . S
C1246 H1230 0.931 . S
C1246 C1240 1.383 . S
C1246 C1245 1.379 . S
H1247 C1241 0.959 . S
H1248 C1241 0.961 . S
H1249 C1241 0.960 . S
H1250 C1242 0.930 . S
H1251 C1243 0.929 . S
H1252 C1260 0.929 . S
H1253 C1262 0.930 . S
H1254 C1264 0.930 . S
H1255 C1267 0.929 . S
H1256 C1270 0.930 . S
H1257 C1272 0.960 . S
H1258 C1272 0.960 . S
H1259 C1272 0.960 . S
C1260 H1252 0.929 . S
C1260 C1261 1.377 . S
C1260 C1262 1.384 . S
C1261 C1260 1.377 . S
C1261 C1267 1.390 . S
C1262 H1253 0.930 . S
C1262 C1260 1.384 . S
C1262 C1263 1.372 . S
C1263 C1262 1.372 . S
C1263 C1264 1.400 . S
C1263 C1268 1.490 . S
C1264 H1254 0.930 . S
C1264 C1263 1.400 . S
C1264 C1267 1.386 . S
H1265 C1281 0.930 . S
H1266 C1282 0.931 . S
C1267 H1255 0.929 . S
C1267 C1261 1.390 . S
C1267 C1264 1.386 . S
C1268 C1263 1.490 . S
C1268 C1270 1.395 . S
C1268 C1271 1.403 . S
H1269 C1275 0.930 . S
C1270 H1256 0.930 . S
C1270 C1268 1.395 . S
C1270 C1273 1.403 . S
C1271 C1268 1.403 . S
C1271 C1272 1.524 . S
C1271 C1275 1.400 . S
C1272 H1257 0.960 . S
C1272 H1258 0.960 . S
C1272 H1259 0.960 . S
C1272 C1271 1.524 . S
C1273 C1270 1.403 . S
C1273 C1274 1.392 . S
C1273 C1277 1.495 . S
C1274 C1273 1.392 . S
C1274 C1275 1.385 . S
C1274 C1276 1.478 . S
C1275 H1269 0.930 . S
C1275 C1271 1.400 . S
C1275 C1274 1.385 . S
C1276 C1274 1.478 . S
C1276 C1278 1.381 . S
C1276 C1282 1.383 . S
C1277 C1273 1.495 . S
C1277 H1283 0.959 . S
C1277 H1284 0.961 . S
C1277 H1285 0.960 . S
C1278 C1276 1.381 . S
C1278 C1279 1.394 . S
C1278 H1286 0.930 . S
C1279 C1278 1.394 . S
C1279 C1280 1.383 . S
C1279 H1287 0.929 . S
C1280 C1279 1.383 . S
C1280 C1281 1.377 . S
C1281 H1265 0.930 . S
C1281 C1280 1.377 . S
C1281 C1282 1.379 . S
C1282 H1266 0.931 . S
C1282 C1276 1.383 . S
C1282 C1281 1.379 . S
H1283 C1277 0.959 . S
H1284 C1277 0.961 . S
H1285 C1277 0.960 . S
H1286 C1278 0.930 . S
H1287 C1279 0.929 . S
H1288 C1296 0.929 . S
H1289 C1298 0.930 . S
H1290 C1300 0.930 . S
H1291 C1303 0.929 . S
H1292 C1306 0.930 . S
H1293 C1308 0.960 . S
H1294 C1308 0.960 . S
H1295 C1308 0.960 . S
C1296 H1288 0.929 . S
C1296 C1297 1.377 . S
C1296 C1298 1.384 . S
C1297 C1296 1.377 . S
C1297 C1303 1.390 . S
C1298 H1289 0.930 . S
C1298 C1296 1.384 . S
C1298 C1299 1.372 . S
C1299 C1298 1.372 . S
C1299 C1300 1.400 . S
C1299 C1304 1.490 . S
C1300 H1290 0.930 . S
C1300 C1299 1.400 . S
C1300 C1303 1.386 . S
H1301 C1317 0.930 . S
H1302 C1318 0.931 . S
C1303 H1291 0.929 . S
C1303 C1297 1.390 . S
C1303 C1300 1.386 . S
C1304 C1299 1.490 . S
C1304 C1306 1.395 . S
C1304 C1307 1.403 . S
H1305 C1311 0.930 . S
C1306 H1292 0.930 . S
C1306 C1304 1.395 . S
C1306 C1309 1.403 . S
C1307 C1304 1.403 . S
C1307 C1308 1.524 . S
C1307 C1311 1.400 . S
C1308 H1293 0.960 . S
C1308 H1294 0.960 . S
C1308 H1295 0.960 . S
C1308 C1307 1.524 . S
C1309 C1306 1.403 . S
C1309 C1310 1.392 . S
C1309 C1313 1.495 . S
C1310 C1309 1.392 . S
C1310 C1311 1.385 . S
C1310 C1312 1.478 . S
C1311 H1305 0.930 . S
C1311 C1307 1.400 . S
C1311 C1310 1.385 . S
C1312 C1310 1.478 . S
C1312 C1314 1.381 . S
C1312 C1318 1.383 . S
C1313 C1309 1.495 . S
C1313 H1319 0.959 . S
C1313 H1320 0.961 . S
C1313 H1321 0.960 . S
C1314 C1312 1.381 . S
C1314 C1315 1.394 . S
C1314 H1322 0.930 . S
C1315 C1314 1.394 . S
C1315 C1316 1.383 . S
C1315 H1323 0.929 . S
C1316 C1315 1.383 . S
C1316 C1317 1.377 . S
C1317 H1301 0.930 . S
C1317 C1316 1.377 . S
C1317 C1318 1.379 . S
C1318 H1302 0.931 . S
C1318 C1312 1.383 . S
C1318 C1317 1.379 . S
H1319 C1313 0.959 . S
H1320 C1313 0.961 . S
H1321 C1313 0.960 . S
H1322 C1314 0.930 . S
H1323 C1315 0.929 . S
H1324 C1332 0.929 . S
H1325 C1334 0.930 . S
H1326 C1336 0.930 . S
H1327 C1339 0.929 . S
H1328 C1342 0.930 . S
H1329 C1344 0.960 . S
H1330 C1344 0.960 . S
H1331 C1344 0.960 . S
C1332 H1324 0.929 . S
C1332 C1333 1.377 . S
C1332 C1334 1.384 . S
C1333 C1332 1.377 . S
C1333 C1339 1.390 . S
C1334 H1325 0.930 . S
C1334 C1332 1.384 . S
C1334 C1335 1.372 . S
C1335 C1334 1.372 . S
C1335 C1336 1.400 . S
C1335 C1340 1.490 . S
C1336 H1326 0.930 . S
C1336 C1335 1.400 . S
C1336 C1339 1.386 . S
H1337 C1353 0.930 . S
H1338 C1354 0.931 . S
C1339 H1327 0.929 . S
C1339 C1333 1.390 . S
C1339 C1336 1.386 . S
C1340 C1335 1.490 . S
C1340 C1342 1.395 . S
C1340 C1343 1.403 . S
H1341 C1347 0.930 . S
C1342 H1328 0.930 . S
C1342 C1340 1.395 . S
C1342 C1345 1.403 . S
C1343 C1340 1.403 . S
C1343 C1344 1.524 . S
C1343 C1347 1.400 . S
C1344 H1329 0.960 . S
C1344 H1330 0.960 . S
C1344 H1331 0.960 . S
C1344 C1343 1.524 . S
C1345 C1342 1.403 . S
C1345 C1346 1.392 . S
C1345 C1349 1.495 . S
C1346 C1345 1.392 . S
C1346 C1347 1.385 . S
C1346 C1348 1.478 . S
C1347 H1341 0.930 . S
C1347 C1343 1.400 . S
C1347 C1346 1.385 . S
C1348 C1346 1.478 . S
C1348 C1350 1.381 . S
C1348 C1354 1.383 . S
C1349 C1345 1.495 . S
C1349 H1355 0.959 . S
C1349 H1356 0.961 . S
C1349 H1357 0.960 . S
C1350 C1348 1.381 . S
C1350 C1351 1.394 . S
C1350 H1358 0.930 . S
C1351 C1350 1.394 . S
C1351 C1352 1.383 . S
C1351 H1359 0.929 . S
C1352 C1351 1.383 . S
C1352 C1353 1.377 . S
C1353 H1337 0.930 . S
C1353 C1352 1.377 . S
C1353 C1354 1.379 . S
C1354 H1338 0.931 . S
C1354 C1348 1.383 . S
C1354 C1353 1.379 . S
H1355 C1349 0.959 . S
H1356 C1349 0.961 . S
H1357 C1349 0.960 . S
H1358 C1350 0.930 . S
H1359 C1351 0.929 . S
H1360 C1368 0.929 . S
H1361 C1370 0.930 . S
H1362 C1372 0.930 . S
H1363 C1375 0.929 . S
H1364 C1378 0.930 . S
H1365 C1380 0.960 . S
H1366 C1380 0.960 . S
H1367 C1380 0.960 . S
C1368 H1360 0.929 . S
C1368 C1369 1.377 . S
C1368 C1370 1.384 . S
C1369 C1368 1.377 . S
C1369 C1375 1.390 . S
C1370 H1361 0.930 . S
C1370 C1368 1.384 . S
C1370 C1371 1.372 . S
C1371 C1370 1.372 . S
C1371 C1372 1.400 . S
C1371 C1376 1.490 . S
C1372 H1362 0.930 . S
C1372 C1371 1.400 . S
C1372 C1375 1.386 . S
H1373 C1389 0.930 . S
H1374 C1390 0.931 . S
C1375 H1363 0.929 . S
C1375 C1369 1.390 . S
C1375 C1372 1.386 . S
C1376 C1371 1.490 . S
C1376 C1378 1.395 . S
C1376 C1379 1.403 . S
H1377 C1383 0.930 . S
C1378 H1364 0.930 . S
C1378 C1376 1.395 . S
C1378 C1381 1.403 . S
C1379 C1376 1.403 . S
C1379 C1380 1.524 . S
C1379 C1383 1.400 . S
C1380 H1365 0.960 . S
C1380 H1366 0.960 . S
C1380 H1367 0.960 . S
C1380 C1379 1.524 . S
C1381 C1378 1.403 . S
C1381 C1382 1.392 . S
C1381 C1385 1.495 . S
C1382 C1381 1.392 . S
C1382 C1383 1.385 . S
C1382 C1384 1.478 . S
C1383 H1377 0.930 . S
C1383 C1379 1.400 . S
C1383 C1382 1.385 . S
C1384 C1382 1.478 . S
C1384 C1386 1.381 . S
C1384 C1390 1.383 . S
C1385 C1381 1.495 . S
C1385 H1391 0.959 . S
C1385 H1392 0.961 . S
C1385 H1393 0.960 . S
C1386 C1384 1.381 . S
C1386 C1387 1.394 . S
C1386 H1394 0.930 . S
C1387 C1386 1.394 . S
C1387 C1388 1.383 . S
C1387 H1395 0.929 . S
C1388 C1387 1.383 . S
C1388 C1389 1.377 . S
C1389 H1373 0.930 . S
C1389 C1388 1.377 . S
C1389 C1390 1.379 . S
C1390 H1374 0.931 . S
C1390 C1384 1.383 . S
C1390 C1389 1.379 . S
H1391 C1385 0.959 . S
H1392 C1385 0.961 . S
H1393 C1385 0.960 . S
H1394 C1386 0.930 . S
H1395 C1387 0.929 . S
H1396 C1404 0.929 . S
H1397 C1406 0.930 . S
H1398 C1408 0.930 . S
H1399 C1411 0.929 . S
H1400 C1414 0.930 . S
H1401 C1416 0.960 . S
H1402 C1416 0.960 . S
H1403 C1416 0.960 . S
C1404 H1396 0.929 . S
C1404 C1405 1.377 1_655 S
C1404 C1406 1.384 . S
C1405 C1404 1.377 1_455 S
C1405 C1411 1.390 . S
C1406 H1397 0.930 . S
C1406 C1404 1.384 . S
C1406 C1407 1.365 1_655 S
C1407 C1406 1.365 1_455 S
C1407 C1408 1.418 . S
C1407 C1412 1.480 1_455 S
C1408 H1398 0.930 . S
C1408 C1407 1.418 . S
C1408 C1411 1.386 . S
H1409 C1425 0.930 . S
H1410 C1426 0.931 . S
C1411 H1399 0.929 . S
C1411 C1405 1.390 . S
C1411 C1408 1.386 . S
C1412 C1407 1.480 1_655 S
C1412 C1414 1.395 1_655 S
C1412 C1415 1.403 . S
H1413 C1419 0.930 . S
C1414 H1400 0.930 . S
C1414 C1412 1.395 1_455 S
C1414 C1417 1.424 . S
C1415 C1412 1.403 . S
C1415 C1416 1.524 . S
C1415 C1419 1.400 . S
C1416 H1401 0.960 . S
C1416 H1402 0.960 . S
C1416 H1403 0.960 . S
C1416 C1415 1.524 . S
C1417 C1414 1.424 . S
C1417 C1418 1.370 1_455 S
C1417 C1421 1.501 . S
C1418 C1417 1.370 1_655 S
C1418 C1419 1.385 . S
C1418 C1420 1.478 . S
C1419 H1413 0.930 . S
C1419 C1415 1.400 . S
C1419 C1418 1.385 . S
C1420 C1418 1.478 . S
C1420 C1422 1.381 . S
C1420 C1426 1.383 1_655 S
C1421 C1417 1.501 . S
C1421 H1427 0.959 . S
C1421 H1428 0.961 . S
C1421 H1429 0.960 1_455 S
C1422 C1420 1.381 . S
C1422 C1423 1.394 . S
C1422 H1430 0.930 . S
C1423 C1422 1.394 . S
C1423 C1424 1.383 . S
C1423 H1431 0.929 . S
C1424 C1423 1.383 . S
C1424 C1425 1.377 1_655 S
C1425 H1409 0.930 . S
C1425 C1424 1.377 1_455 S
C1425 C1426 1.379 . S
C1426 H1410 0.931 . S
C1426 C1420 1.383 1_455 S
C1426 C1425 1.379 . S
H1427 C1421 0.959 . S
H1428 C1421 0.961 . S
H1429 C1421 0.960 1_655 S
H1430 C1422 0.930 . S
H1431 C1423 0.929 . S
H1432 C1440 0.929 . S
H1433 C1442 0.930 . S
H1434 C1444 0.930 . S
H1435 C1447 0.929 . S
H1436 C1450 0.930 . S
H1437 C1452 0.960 . S
H1438 C1452 0.960 . S
H1439 C1452 0.960 . S
C1440 H1432 0.929 . S
C1440 C1441 1.377 . S
C1440 C1442 1.384 . S
C1441 C1440 1.377 . S
C1441 C1447 1.390 . S
C1442 H1433 0.930 . S
C1442 C1440 1.384 . S
C1442 C1443 1.372 . S
C1443 C1442 1.372 . S
C1443 C1444 1.400 . S
C1443 C1448 1.490 . S
C1444 H1434 0.930 . S
C1444 C1443 1.400 . S
C1444 C1447 1.386 . S
H1445 C1461 0.930 . S
H1446 C1462 0.931 . S
C1447 H1435 0.929 . S
C1447 C1441 1.390 . S
C1447 C1444 1.386 . S
C1448 C1443 1.490 . S
C1448 C1450 1.395 . S
C1448 C1451 1.403 . S
H1449 C1455 0.930 . S
C1450 H1436 0.930 . S
C1450 C1448 1.395 . S
C1450 C1453 1.403 . S
C1451 C1448 1.403 . S
C1451 C1452 1.524 . S
C1451 C1455 1.400 . S
C1452 H1437 0.960 . S
C1452 H1438 0.960 . S
C1452 H1439 0.960 . S
C1452 C1451 1.524 . S
C1453 C1450 1.403 . S
C1453 C1454 1.392 . S
C1453 C1457 1.495 . S
C1454 C1453 1.392 . S
C1454 C1455 1.385 . S
C1454 C1456 1.478 . S
C1455 H1449 0.930 . S
C1455 C1451 1.400 . S
C1455 C1454 1.385 . S
C1456 C1454 1.478 . S
C1456 C1458 1.381 . S
C1456 C1462 1.383 . S
C1457 C1453 1.495 . S
C1457 H1463 0.959 . S
C1457 H1464 0.961 . S
C1457 H1465 0.960 . S
C1458 C1456 1.381 . S
C1458 C1459 1.394 . S
C1458 H1466 0.930 . S
C1459 C1458 1.394 . S
C1459 C1460 1.383 . S
C1459 H1467 0.929 . S
C1460 C1459 1.383 . S
C1460 C1461 1.377 . S
C1461 H1445 0.930 . S
C1461 C1460 1.377 . S
C1461 C1462 1.379 . S
C1462 H1446 0.931 . S
C1462 C1456 1.383 . S
C1462 C1461 1.379 . S
H1463 C1457 0.959 . S
H1464 C1457 0.961 . S
H1465 C1457 0.960 . S
H1466 C1458 0.930 . S
H1467 C1459 0.929 . S
H1468 C1476 0.929 . S
H1469 C1478 0.930 . S
H1470 C1480 0.930 . S
H1471 C1483 0.929 . S
H1472 C1486 0.930 . S
H1473 C1488 0.960 . S
H1474 C1488 0.960 . S
H1475 C1488 0.960 . S
C1476 H1468 0.929 . S
C1476 C1477 1.377 . S
C1476 C1478 1.384 . S
C1477 C1476 1.377 . S
C1477 C1483 1.390 . S
C1478 H1469 0.930 . S
C1478 C1476 1.384 . S
C1478 C1479 1.372 . S
C1479 C1478 1.372 . S
C1479 C1480 1.400 . S
C1479 C1484 1.490 . S
C1480 H1470 0.930 . S
C1480 C1479 1.400 . S
C1480 C1483 1.386 . S
H1481 C1497 0.930 . S
H1482 C1498 0.931 . S
C1483 H1471 0.929 . S
C1483 C1477 1.390 . S
C1483 C1480 1.386 . S
C1484 C1479 1.490 . S
C1484 C1486 1.395 . S
C1484 C1487 1.403 . S
H1485 C1491 0.930 . S
C1486 H1472 0.930 . S
C1486 C1484 1.395 . S
C1486 C1489 1.403 . S
C1487 C1484 1.403 . S
C1487 C1488 1.524 . S
C1487 C1491 1.400 . S
C1488 H1473 0.960 . S
C1488 H1474 0.960 . S
C1488 H1475 0.960 . S
C1488 C1487 1.524 . S
C1489 C1486 1.403 . S
C1489 C1490 1.392 . S
C1489 C1493 1.495 . S
C1490 C1489 1.392 . S
C1490 C1491 1.385 . S
C1490 C1492 1.478 . S
C1491 H1485 0.930 . S
C1491 C1487 1.400 . S
C1491 C1490 1.385 . S
C1492 C1490 1.478 . S
C1492 C1494 1.381 . S
C1492 C1498 1.383 . S
C1493 C1489 1.495 . S
C1493 H1499 0.959 . S
C1493 H1500 0.961 . S
C1493 H1501 0.960 . S
C1494 C1492 1.381 . S
C1494 C1495 1.394 . S
C1494 H1502 0.930 . S
C1495 C1494 1.394 . S
C1495 C1496 1.383 . S
C1495 H1503 0.929 . S
C1496 C1495 1.383 . S
C1496 C1497 1.377 . S
C1497 H1481 0.930 . S
C1497 C1496 1.377 . S
C1497 C1498 1.379 . S
C1498 H1482 0.931 . S
C1498 C1492 1.383 . S
C1498 C1497 1.379 . S
H1499 C1493 0.959 . S
H1500 C1493 0.961 . S
H1501 C1493 0.960 . S
H1502 C1494 0.930 . S
H1503 C1495 0.929 . S
H1504 C1512 0.929 . S
H1505 C1514 0.930 . S
H1506 C1516 0.930 . S
H1507 C1519 0.929 . S
H1508 C1522 0.930 . S
H1509 C1524 0.960 . S
H1510 C1524 0.960 . S
H1511 C1524 0.960 . S
C1512 H1504 0.929 . S
C1512 C1513 1.377 . S
C1512 C1514 1.384 . S
C1513 C1512 1.377 . S
C1513 C1519 1.390 . S
C1514 H1505 0.930 . S
C1514 C1512 1.384 . S
C1514 C1515 1.372 . S
C1515 C1514 1.372 . S
C1515 C1516 1.400 . S
C1515 C1520 1.490 . S
C1516 H1506 0.930 . S
C1516 C1515 1.400 . S
C1516 C1519 1.386 . S
H1517 C1533 0.930 . S
H1518 C1534 0.931 . S
C1519 H1507 0.929 . S
C1519 C1513 1.390 . S
C1519 C1516 1.386 . S
C1520 C1515 1.490 . S
C1520 C1522 1.395 . S
C1520 C1523 1.403 . S
H1521 C1527 0.930 . S
C1522 H1508 0.930 . S
C1522 C1520 1.395 . S
C1522 C1525 1.403 . S
C1523 C1520 1.403 . S
C1523 C1524 1.524 . S
C1523 C1527 1.400 . S
C1524 H1509 0.960 . S
C1524 H1510 0.960 . S
C1524 H1511 0.960 . S
C1524 C1523 1.524 . S
C1525 C1522 1.403 . S
C1525 C1526 1.392 . S
C1525 C1529 1.495 . S
C1526 C1525 1.392 . S
C1526 C1527 1.385 . S
C1526 C1528 1.478 . S
C1527 H1521 0.930 . S
C1527 C1523 1.400 . S
C1527 C1526 1.385 . S
C1528 C1526 1.478 . S
C1528 C1530 1.381 . S
C1528 C1534 1.383 . S
C1529 C1525 1.495 . S
C1529 H1535 0.959 . S
C1529 H1536 0.961 . S
C1529 H1537 0.960 . S
C1530 C1528 1.381 . S
C1530 C1531 1.394 . S
C1530 H1538 0.930 . S
C1531 C1530 1.394 . S
C1531 C1532 1.383 . S
C1531 H1539 0.929 . S
C1532 C1531 1.383 . S
C1532 C1533 1.377 . S
C1533 H1517 0.930 . S
C1533 C1532 1.377 . S
C1533 C1534 1.379 . S
C1534 H1518 0.931 . S
C1534 C1528 1.383 . S
C1534 C1533 1.379 . S
H1535 C1529 0.959 . S
H1536 C1529 0.961 . S
H1537 C1529 0.960 . S
H1538 C1530 0.930 . S
H1539 C1531 0.929 . S
H1540 C1548 0.929 . S
H1541 C1550 0.930 . S
H1542 C1552 0.930 . S
H1543 C1555 0.929 . S
H1544 C1558 0.930 . S
H1545 C1560 0.960 . S
H1546 C1560 0.960 . S
H1547 C1560 0.960 . S
C1548 H1540 0.929 . S
C1548 C1549 1.377 . S
C1548 C1550 1.384 . S
C1549 C1548 1.377 . S
C1549 C1555 1.390 . S
C1550 H1541 0.930 . S
C1550 C1548 1.384 . S
C1550 C1551 1.372 . S
C1551 C1550 1.372 . S
C1551 C1552 1.400 . S
C1551 C1556 1.490 . S
C1552 H1542 0.930 . S
C1552 C1551 1.400 . S
C1552 C1555 1.386 . S
H1553 C1569 0.930 . S
H1554 C1570 0.931 . S
C1555 H1543 0.929 . S
C1555 C1549 1.390 . S
C1555 C1552 1.386 . S
C1556 C1551 1.490 . S
C1556 C1558 1.395 . S
C1556 C1559 1.403 . S
H1557 C1563 0.930 . S
C1558 H1544 0.930 . S
C1558 C1556 1.395 . S
C1558 C1561 1.403 . S
C1559 C1556 1.403 . S
C1559 C1560 1.524 . S
C1559 C1563 1.400 . S
C1560 H1545 0.960 . S
C1560 H1546 0.960 . S
C1560 H1547 0.960 . S
C1560 C1559 1.524 . S
C1561 C1558 1.403 . S
C1561 C1562 1.392 . S
C1561 C1565 1.495 . S
C1562 C1561 1.392 . S
C1562 C1563 1.385 . S
C1562 C1564 1.478 . S
C1563 H1557 0.930 . S
C1563 C1559 1.400 . S
C1563 C1562 1.385 . S
C1564 C1562 1.478 . S
C1564 C1566 1.381 . S
C1564 C1570 1.383 . S
C1565 C1561 1.495 . S
C1565 H1571 0.959 . S
C1565 H1572 0.961 . S
C1565 H1573 0.960 . S
C1566 C1564 1.381 . S
C1566 C1567 1.394 . S
C1566 H1574 0.930 . S
C1567 C1566 1.394 . S
C1567 C1568 1.383 . S
C1567 H1575 0.929 . S
C1568 C1567 1.383 . S
C1568 C1569 1.377 . S
C1569 H1553 0.930 . S
C1569 C1568 1.377 . S
C1569 C1570 1.379 . S
C1570 H1554 0.931 . S
C1570 C1564 1.383 . S
C1570 C1569 1.379 . S
H1571 C1565 0.959 . S
H1572 C1565 0.961 . S
H1573 C1565 0.960 . S
H1574 C1566 0.930 . S
H1575 C1567 0.929 . S
H1576 C1584 0.929 . S
H1577 C1586 0.930 . S
H1578 C1588 0.930 . S
H1579 C1591 0.929 . S
H1580 C1594 0.930 . S
H1581 C1596 0.960 . S
H1582 C1596 0.960 1_565 S
H1583 C1596 0.960 . S
C1584 H1576 0.929 . S
C1584 C1585 1.377 . S
C1584 C1586 1.384 . S
C1585 C1584 1.377 . S
C1585 C1591 1.390 1_565 S
C1586 H1577 0.930 . S
C1586 C1584 1.384 . S
C1586 C1587 1.372 . S
C1587 C1586 1.372 . S
C1587 C1588 1.400 1_565 S
C1587 C1592 1.490 1_565 S
C1588 H1578 0.930 . S
C1588 C1587 1.400 1_545 S
C1588 C1591 1.386 . S
H1589 C1605 0.930 . S
H1590 C1606 0.931 . S
C1591 H1579 0.929 . S
C1591 C1585 1.390 1_545 S
C1591 C1588 1.386 . S
C1592 C1587 1.490 1_545 S
C1592 C1594 1.395 . S
C1592 C1595 1.403 . S
H1593 C1599 0.930 . S
C1594 H1580 0.930 . S
C1594 C1592 1.395 . S
C1594 C1597 1.403 . S
C1595 C1592 1.403 . S
C1595 C1596 1.524 . S
C1595 C1599 1.400 . S
C1596 H1581 0.960 . S
C1596 H1582 0.960 1_545 S
C1596 H1583 0.960 . S
C1596 C1595 1.524 . S
C1597 C1594 1.403 . S
C1597 C1598 1.392 . S
C1597 C1601 1.495 . S
C1598 C1597 1.392 . S
C1598 C1599 1.385 . S
C1598 C1600 1.478 . S
C1599 H1593 0.930 . S
C1599 C1595 1.400 . S
C1599 C1598 1.385 . S
C1600 C1598 1.478 . S
C1600 C1602 1.366 1_545 S
C1600 C1606 1.383 . S
C1601 C1597 1.495 . S
C1601 H1607 0.959 . S
C1601 H1608 0.961 . S
C1601 H1609 0.960 1_545 S
C1602 C1600 1.366 1_565 S
C1602 C1603 1.375 1_565 S
C1602 H1610 0.966 . S
C1603 C1602 1.375 1_545 S
C1603 C1604 1.383 . S
C1603 H1611 0.929 1_545 S
C1604 C1603 1.383 . S
C1604 C1605 1.377 . S
C1605 H1589 0.930 . S
C1605 C1604 1.377 . S
C1605 C1606 1.379 . S
C1606 H1590 0.931 . S
C1606 C1600 1.383 . S
C1606 C1605 1.379 . S
H1607 C1601 0.959 . S
H1608 C1601 0.961 . S
H1609 C1601 0.960 1_565 S
H1610 C1602 0.966 . S
H1611 C1603 0.929 1_565 S
H1612 C1620 0.929 . S
H1613 C1622 0.930 . S
H1614 C1624 0.936 . S
H1615 C1627 0.929 . S
H1616 C1630 0.930 . S
H1617 C1632 0.960 . S
H1618 C1632 0.960 . S
H1619 C1632 0.960 . S
C1620 H1612 0.929 . S
C1620 C1621 1.377 . S
C1620 C1622 1.384 . S
C1621 C1620 1.377 . S
C1621 C1627 1.390 1_554 S
C1622 H1613 0.930 . S
C1622 C1620 1.384 . S
C1622 C1623 1.372 . S
C1623 C1622 1.372 . S
C1623 C1624 1.388 1_554 S
C1623 C1628 1.490 . S
C1624 H1614 0.936 . S
C1624 C1623 1.388 1_556 S
C1624 C1627 1.391 . S
H1625 C1641 0.930 . S
H1626 C1642 0.951 . S
C1627 H1615 0.929 . S
C1627 C1621 1.390 1_556 S
C1627 C1624 1.391 . S
C1628 C1623 1.490 . S
C1628 C1630 1.395 . S
C1628 C1631 1.403 . S
H1629 C1635 0.930 . S
C1630 H1616 0.930 . S
C1630 C1628 1.395 . S
C1630 C1633 1.403 . S
C1631 C1628 1.403 . S
C1631 C1632 1.524 . S
C1631 C1635 1.400 . S
C1632 H1617 0.960 . S
C1632 H1618 0.960 . S
C1632 H1619 0.960 . S
C1632 C1631 1.524 . S
C1633 C1630 1.403 . S
C1633 C1634 1.392 . S
C1633 C1637 1.495 . S
C1634 C1633 1.392 . S
C1634 C1635 1.385 . S
C1634 C1636 1.478 . S
C1635 H1629 0.930 . S
C1635 C1631 1.400 . S
C1635 C1634 1.385 . S
C1636 C1634 1.478 . S
C1636 C1638 1.381 . S
C1636 C1642 1.383 . S
C1637 C1633 1.495 . S
C1637 H1643 0.959 . S
C1637 H1644 0.940 1_554 S
C1637 H1645 0.960 . S
C1638 C1636 1.381 . S
C1638 C1639 1.394 . S
C1638 H1646 0.930 . S
C1639 C1638 1.394 . S
C1639 C1640 1.383 . S
C1639 H1647 0.929 . S
C1640 C1639 1.383 . S
C1640 C1641 1.377 . S
C1641 H1625 0.930 . S
C1641 C1640 1.377 . S
C1641 C1642 1.379 . S
C1642 H1626 0.951 . S
C1642 C1636 1.383 . S
C1642 C1641 1.379 . S
H1643 C1637 0.959 . S
H1644 C1637 0.940 1_556 S
H1645 C1637 0.960 . S
H1646 C1638 0.930 . S
H1647 C1639 0.929 . S
H1648 C1656 0.929 . S
H1649 C1658 0.930 . S
H1650 C1660 0.930 . S
H1651 C1663 0.929 . S
H1652 C1666 0.930 . S
H1653 C1668 0.960 . S
H1654 C1668 0.960 . S
H1655 C1668 0.960 . S
C1656 H1648 0.929 . S
C1656 C1657 1.377 . S
C1656 C1658 1.384 . S
C1657 C1656 1.377 . S
C1657 C1663 1.390 . S
C1658 H1649 0.930 . S
C1658 C1656 1.384 . S
C1658 C1659 1.372 . S
C1659 C1658 1.372 . S
C1659 C1660 1.400 . S
C1659 C1664 1.490 . S
C1660 H1650 0.930 . S
C1660 C1659 1.400 . S
C1660 C1663 1.386 . S
H1661 C1677 0.930 . S
H1662 C1678 0.931 . S
C1663 H1651 0.929 . S
C1663 C1657 1.390 . S
C1663 C1660 1.386 . S
C1664 C1659 1.490 . S
C1664 C1666 1.395 . S
C1664 C1667 1.403 . S
H1665 C1671 0.930 . S
C1666 H1652 0.930 . S
C1666 C1664 1.395 . S
C1666 C1669 1.403 . S
C1667 C1664 1.403 . S
C1667 C1668 1.524 . S
C1667 C1671 1.400 . S
C1668 H1653 0.960 . S
C1668 H1654 0.960 . S
C1668 H1655 0.960 . S
C1668 C1667 1.524 . S
C1669 C1666 1.403 . S
C1669 C1670 1.392 . S
C1669 C1673 1.495 . S
C1670 C1669 1.392 . S
C1670 C1671 1.385 . S
C1670 C1672 1.478 . S
C1671 H1665 0.930 . S
C1671 C1667 1.400 . S
C1671 C1670 1.385 . S
C1672 C1670 1.478 . S
C1672 C1674 1.381 . S
C1672 C1678 1.383 . S
C1673 C1669 1.495 . S
C1673 H1679 0.959 . S
C1673 H1680 0.961 . S
C1673 H1681 0.960 . S
C1674 C1672 1.381 . S
C1674 C1675 1.394 . S
C1674 H1682 0.930 . S
C1675 C1674 1.394 . S
C1675 C1676 1.383 . S
C1675 H1683 0.929 . S
C1676 C1675 1.383 . S
C1676 C1677 1.377 . S
C1677 H1661 0.930 . S
C1677 C1676 1.377 . S
C1677 C1678 1.379 . S
C1678 H1662 0.931 . S
C1678 C1672 1.383 . S
C1678 C1677 1.379 . S
H1679 C1673 0.959 . S
H1680 C1673 0.961 . S
H1681 C1673 0.960 . S
H1682 C1674 0.930 . S
H1683 C1675 0.929 . S
H1684 C1692 0.929 . S
H1685 C1694 0.930 . S
H1686 C1696 0.930 . S
H1687 C1699 0.929 . S
H1688 C1702 0.930 . S
H1689 C1704 0.960 . S
H1690 C1704 0.960 . S
H1691 C1704 0.960 . S
C1692 H1684 0.929 . S
C1692 C1693 1.377 . S
C1692 C1694 1.384 . S
C1693 C1692 1.377 . S
C1693 C1699 1.390 . S
C1694 H1685 0.930 . S
C1694 C1692 1.384 . S
C1694 C1695 1.372 . S
C1695 C1694 1.372 . S
C1695 C1696 1.400 . S
C1695 C1700 1.490 . S
C1696 H1686 0.930 . S
C1696 C1695 1.400 . S
C1696 C1699 1.386 . S
H1697 C1713 0.930 . S
H1698 C1714 0.931 . S
C1699 H1687 0.929 . S
C1699 C1693 1.390 . S
C1699 C1696 1.386 . S
C1700 C1695 1.490 . S
C1700 C1702 1.395 . S
C1700 C1703 1.403 . S
H1701 C1707 0.930 . S
C1702 H1688 0.930 . S
C1702 C1700 1.395 . S
C1702 C1705 1.403 . S
C1703 C1700 1.403 . S
C1703 C1704 1.524 . S
C1703 C1707 1.400 . S
C1704 H1689 0.960 . S
C1704 H1690 0.960 . S
C1704 H1691 0.960 . S
C1704 C1703 1.524 . S
C1705 C1702 1.403 . S
C1705 C1706 1.392 . S
C1705 C1709 1.495 . S
C1706 C1705 1.392 . S
C1706 C1707 1.385 . S
C1706 C1708 1.478 . S
C1707 H1701 0.930 . S
C1707 C1703 1.400 . S
C1707 C1706 1.385 . S
C1708 C1706 1.478 . S
C1708 C1710 1.381 . S
C1708 C1714 1.383 . S
C1709 C1705 1.495 . S
C1709 H1715 0.959 . S
C1709 H1716 0.961 . S
C1709 H1717 0.960 . S
C1710 C1708 1.381 . S
C1710 C1711 1.394 . S
C1710 H1718 0.930 . S
C1711 C1710 1.394 . S
C1711 C1712 1.383 . S
C1711 H1719 0.929 . S
C1712 C1711 1.383 . S
C1712 C1713 1.377 . S
C1713 H1697 0.930 . S
C1713 C1712 1.377 . S
C1713 C1714 1.379 . S
C1714 H1698 0.931 . S
C1714 C1708 1.383 . S
C1714 C1713 1.379 . S
H1715 C1709 0.959 . S
H1716 C1709 0.961 . S
H1717 C1709 0.960 . S
H1718 C1710 0.930 . S
H1719 C1711 0.929 . S
H1720 C1728 0.929 . S
H1721 C1730 0.930 . S
H1722 C1732 0.930 . S
H1723 C1735 0.929 . S
H1724 C1738 0.930 . S
H1725 C1740 0.960 . S
H1726 C1740 0.960 . S
H1727 C1740 0.960 . S
C1728 H1720 0.929 . S
C1728 C1729 1.377 . S
C1728 C1730 1.384 . S
C1729 C1728 1.377 . S
C1729 C1735 1.390 . S
C1730 H1721 0.930 . S
C1730 C1728 1.384 . S
C1730 C1731 1.372 . S
C1731 C1730 1.372 . S
C1731 C1732 1.400 . S
C1731 C1736 1.490 . S
C1732 H1722 0.930 . S
C1732 C1731 1.400 . S
C1732 C1735 1.386 . S
H1733 C1749 0.930 . S
H1734 C1750 0.931 . S
C1735 H1723 0.929 . S
C1735 C1729 1.390 . S
C1735 C1732 1.386 . S
C1736 C1731 1.490 . S
C1736 C1738 1.395 . S
C1736 C1739 1.403 . S
H1737 C1743 0.930 . S
C1738 H1724 0.930 . S
C1738 C1736 1.395 . S
C1738 C1741 1.403 . S
C1739 C1736 1.403 . S
C1739 C1740 1.524 . S
C1739 C1743 1.400 . S
C1740 H1725 0.960 . S
C1740 H1726 0.960 . S
C1740 H1727 0.960 . S
C1740 C1739 1.524 . S
C1741 C1738 1.403 . S
C1741 C1742 1.392 . S
C1741 C1745 1.495 . S
C1742 C1741 1.392 . S
C1742 C1743 1.385 . S
C1742 C1744 1.478 . S
C1743 H1737 0.930 . S
C1743 C1739 1.400 . S
C1743 C1742 1.385 . S
C1744 C1742 1.478 . S
C1744 C1746 1.381 . S
C1744 C1750 1.383 . S
C1745 C1741 1.495 . S
C1745 H1751 0.959 . S
C1745 H1752 0.961 . S
C1745 H1753 0.960 . S
C1746 C1744 1.381 . S
C1746 C1747 1.394 . S
C1746 H1754 0.930 . S
C1747 C1746 1.394 . S
C1747 C1748 1.383 . S
C1747 H1755 0.929 . S
C1748 C1747 1.383 . S
C1748 C1749 1.377 . S
C1749 H1733 0.930 . S
C1749 C1748 1.377 . S
C1749 C1750 1.379 . S
C1750 H1734 0.931 . S
C1750 C1744 1.383 . S
C1750 C1749 1.379 . S
H1751 C1745 0.959 . S
H1752 C1745 0.961 . S
H1753 C1745 0.960 . S
H1754 C1746 0.930 . S
H1755 C1747 0.929 . S
H1756 C1764 0.929 . S
H1757 C1766 0.930 . S
H1758 C1768 0.930 . S
H1759 C1771 0.929 . S
H1760 C1774 0.930 . S
H1761 C1776 0.960 . S
H1762 C1776 0.960 . S
H1763 C1776 0.960 . S
C1764 H1756 0.929 . S
C1764 C1765 1.377 . S
C1764 C1766 1.384 . S
C1765 C1764 1.377 . S
C1765 C1771 1.390 . S
C1766 H1757 0.930 . S
C1766 C1764 1.384 . S
C1766 C1767 1.372 . S
C1767 C1766 1.372 . S
C1767 C1768 1.400 . S
C1767 C1772 1.490 . S
C1768 H1758 0.930 . S
C1768 C1767 1.400 . S
C1768 C1771 1.386 . S
H1769 C1785 0.930 . S
H1770 C1786 0.931 . S
C1771 H1759 0.929 . S
C1771 C1765 1.390 . S
C1771 C1768 1.386 . S
C1772 C1767 1.490 . S
C1772 C1774 1.395 . S
C1772 C1775 1.403 . S
H1773 C1779 0.930 . S
C1774 H1760 0.930 . S
C1774 C1772 1.395 . S
C1774 C1777 1.403 . S
C1775 C1772 1.403 . S
C1775 C1776 1.524 . S
C1775 C1779 1.400 . S
C1776 H1761 0.960 . S
C1776 H1762 0.960 . S
C1776 H1763 0.960 . S
C1776 C1775 1.524 . S
C1777 C1774 1.403 . S
C1777 C1778 1.392 . S
C1777 C1781 1.495 . S
C1778 C1777 1.392 . S
C1778 C1779 1.385 . S
C1778 C1780 1.478 . S
C1779 H1773 0.930 . S
C1779 C1775 1.400 . S
C1779 C1778 1.385 . S
C1780 C1778 1.478 . S
C1780 C1782 1.381 . S
C1780 C1786 1.383 . S
C1781 C1777 1.495 . S
C1781 H1787 0.959 . S
C1781 H1788 0.961 . S
C1781 H1789 0.960 . S
C1782 C1780 1.381 . S
C1782 C1783 1.394 . S
C1782 H1790 0.930 . S
C1783 C1782 1.394 . S
C1783 C1784 1.383 . S
C1783 H1791 0.929 . S
C1784 C1783 1.383 . S
C1784 C1785 1.377 . S
C1785 H1769 0.930 . S
C1785 C1784 1.377 . S
C1785 C1786 1.379 . S
C1786 H1770 0.931 . S
C1786 C1780 1.383 . S
C1786 C1785 1.379 . S
H1787 C1781 0.959 . S
H1788 C1781 0.961 . S
H1789 C1781 0.960 . S
H1790 C1782 0.930 . S
H1791 C1783 0.929 . S
H1792 C1800 0.929 . S
H1793 C1802 0.930 . S
H1794 C1804 0.930 . S
H1795 C1807 0.929 . S
H1796 C1810 0.930 . S
H1797 C1812 0.960 . S
H1798 C1812 0.960 . S
H1799 C1812 0.960 . S
C1800 H1792 0.929 . S
C1800 C1801 1.377 . S
C1800 C1802 1.384 . S
C1801 C1800 1.377 . S
C1801 C1807 1.390 . S
C1802 H1793 0.930 . S
C1802 C1800 1.384 . S
C1802 C1803 1.372 . S
C1803 C1802 1.372 . S
C1803 C1804 1.400 . S
C1803 C1808 1.490 . S
C1804 H1794 0.930 . S
C1804 C1803 1.400 . S
C1804 C1807 1.386 . S
H1805 C1821 0.930 . S
H1806 C1822 0.931 . S
C1807 H1795 0.929 . S
C1807 C1801 1.390 . S
C1807 C1804 1.386 . S
C1808 C1803 1.490 . S
C1808 C1810 1.395 . S
C1808 C1811 1.403 . S
H1809 C1815 0.930 . S
C1810 H1796 0.930 . S
C1810 C1808 1.395 . S
C1810 C1813 1.403 . S
C1811 C1808 1.403 . S
C1811 C1812 1.524 . S
C1811 C1815 1.400 . S
C1812 H1797 0.960 . S
C1812 H1798 0.960 . S
C1812 H1799 0.960 . S
C1812 C1811 1.524 . S
C1813 C1810 1.403 . S
C1813 C1814 1.392 . S
C1813 C1817 1.495 . S
C1814 C1813 1.392 . S
C1814 C1815 1.385 . S
C1814 C1816 1.478 . S
C1815 H1809 0.930 . S
C1815 C1811 1.400 . S
C1815 C1814 1.385 . S
C1816 C1814 1.478 . S
C1816 C1818 1.381 . S
C1816 C1822 1.383 . S
C1817 C1813 1.495 . S
C1817 H1823 0.959 . S
C1817 H1824 0.961 . S
C1817 H1825 0.960 . S
C1818 C1816 1.381 . S
C1818 C1819 1.394 . S
C1818 H1826 0.930 . S
C1819 C1818 1.394 . S
C1819 C1820 1.383 . S
C1819 H1827 0.929 . S
C1820 C1819 1.383 . S
C1820 C1821 1.377 . S
C1821 H1805 0.930 . S
C1821 C1820 1.377 . S
C1821 C1822 1.379 . S
C1822 H1806 0.931 . S
C1822 C1816 1.383 . S
C1822 C1821 1.379 . S
H1823 C1817 0.959 . S
H1824 C1817 0.961 . S
H1825 C1817 0.960 . S
H1826 C1818 0.930 . S
H1827 C1819 0.929 . S
H1828 C1836 0.929 . S
H1829 C1838 0.930 . S
H1830 C1840 0.930 . S
H1831 C1843 0.929 . S
H1832 C1846 0.930 . S
H1833 C1848 0.960 . S
H1834 C1848 0.960 . S
H1835 C1848 0.960 . S
C1836 H1828 0.929 . S
C1836 C1837 1.377 . S
C1836 C1838 1.384 . S
C1837 C1836 1.377 . S
C1837 C1843 1.390 . S
C1838 H1829 0.930 . S
C1838 C1836 1.384 . S
C1838 C1839 1.372 . S
C1839 C1838 1.372 . S
C1839 C1840 1.400 . S
C1839 C1844 1.490 . S
C1840 H1830 0.930 . S
C1840 C1839 1.400 . S
C1840 C1843 1.386 . S
H1841 C1857 0.930 . S
H1842 C1858 0.931 . S
C1843 H1831 0.929 . S
C1843 C1837 1.390 . S
C1843 C1840 1.386 . S
C1844 C1839 1.490 . S
C1844 C1846 1.395 . S
C1844 C1847 1.403 . S
H1845 C1851 0.930 . S
C1846 H1832 0.930 . S
C1846 C1844 1.395 . S
C1846 C1849 1.403 . S
C1847 C1844 1.403 . S
C1847 C1848 1.524 . S
C1847 C1851 1.400 . S
C1848 H1833 0.960 . S
C1848 H1834 0.960 . S
C1848 H1835 0.960 . S
C1848 C1847 1.524 . S
C1849 C1846 1.403 . S
C1849 C1850 1.392 . S
C1849 C1853 1.495 . S
C1850 C1849 1.392 . S
C1850 C1851 1.385 . S
C1850 C1852 1.478 . S
C1851 H1845 0.930 . S
C1851 C1847 1.400 . S
C1851 C1850 1.385 . S
C1852 C1850 1.478 . S
C1852 C1854 1.381 . S
C1852 C1858 1.383 . S
C1853 C1849 1.495 . S
C1853 H1859 0.959 . S
C1853 H1860 0.961 . S
C1853 H1861 0.960 . S
C1854 C1852 1.381 . S
C1854 C1855 1.394 . S
C1854 H1862 0.930 . S
C1855 C1854 1.394 . S
C1855 C1856 1.383 . S
C1855 H1863 0.929 . S
C1856 C1855 1.383 . S
C1856 C1857 1.377 . S
C1857 H1841 0.930 . S
C1857 C1856 1.377 . S
C1857 C1858 1.379 . S
C1858 H1842 0.931 . S
C1858 C1852 1.383 . S
C1858 C1857 1.379 . S
H1859 C1853 0.959 . S
H1860 C1853 0.961 . S
H1861 C1853 0.960 . S
H1862 C1854 0.930 . S
H1863 C1855 0.929 . S
H1864 C1872 0.929 . S
H1865 C1874 0.930 . S
H1866 C1876 0.930 . S
H1867 C1879 0.929 . S
H1868 C1882 0.930 . S
H1869 C1884 0.960 . S
H1870 C1884 0.960 . S
H1871 C1884 0.960 . S
C1872 H1864 0.929 . S
C1872 C1873 1.377 . S
C1872 C1874 1.384 . S
C1873 C1872 1.377 . S
C1873 C1879 1.390 . S
C1874 H1865 0.930 . S
C1874 C1872 1.384 . S
C1874 C1875 1.372 . S
C1875 C1874 1.372 . S
C1875 C1876 1.400 . S
C1875 C1880 1.490 . S
C1876 H1866 0.930 . S
C1876 C1875 1.400 . S
C1876 C1879 1.386 . S
H1877 C1893 0.930 . S
H1878 C1894 0.931 . S
C1879 H1867 0.929 . S
C1879 C1873 1.390 . S
C1879 C1876 1.386 . S
C1880 C1875 1.490 . S
C1880 C1882 1.395 . S
C1880 C1883 1.403 . S
H1881 C1887 0.930 . S
C1882 H1868 0.930 . S
C1882 C1880 1.395 . S
C1882 C1885 1.403 . S
C1883 C1880 1.403 . S
C1883 C1884 1.524 . S
C1883 C1887 1.400 . S
C1884 H1869 0.960 . S
C1884 H1870 0.960 . S
C1884 H1871 0.960 . S
C1884 C1883 1.524 . S
C1885 C1882 1.403 . S
C1885 C1886 1.392 . S
C1885 C1889 1.495 . S
C1886 C1885 1.392 . S
C1886 C1887 1.385 . S
C1886 C1888 1.478 . S
C1887 H1881 0.930 . S
C1887 C1883 1.400 . S
C1887 C1886 1.385 . S
C1888 C1886 1.478 . S
C1888 C1890 1.381 . S
C1888 C1894 1.383 . S
C1889 C1885 1.495 . S
C1889 H1895 0.959 . S
C1889 H1896 0.961 . S
C1889 H1897 0.960 . S
C1890 C1888 1.381 . S
C1890 C1891 1.394 . S
C1890 H1898 0.930 . S
C1891 C1890 1.394 . S
C1891 C1892 1.383 . S
C1891 H1899 0.929 . S
C1892 C1891 1.383 . S
C1892 C1893 1.377 . S
C1893 H1877 0.930 . S
C1893 C1892 1.377 . S
C1893 C1894 1.379 . S
C1894 H1878 0.931 . S
C1894 C1888 1.383 . S
C1894 C1893 1.379 . S
H1895 C1889 0.959 . S
H1896 C1889 0.961 . S
H1897 C1889 0.960 . S
H1898 C1890 0.930 . S
H1899 C1891 0.929 . S
H1900 C1908 0.929 . S
H1901 C1910 0.930 . S
H1902 C1912 0.930 . S
H1903 C1915 0.929 . S
H1904 C1918 0.930 . S
H1905 C1920 0.960 . S
H1906 C1920 0.960 . S
H1907 C1920 0.960 . S
C1908 H1900 0.929 . S
C1908 C1909 1.377 . S
C1908 C1910 1.384 . S
C1909 C1908 1.377 . S
C1909 C1915 1.390 . S
C1910 H1901 0.930 . S
C1910 C1908 1.384 . S
C1910 C1911 1.372 . S
C1911 C1910 1.372 . S
C1911 C1912 1.400 . S
C1911 C1916 1.490 . S
C1912 H1902 0.930 . S
C1912 C1911 1.400 . S
C1912 C1915 1.386 . S
H1913 C1929 0.930 . S
H1914 C1930 0.931 . S
C1915 H1903 0.929 . S
C1915 C1909 1.390 . S
C1915 C1912 1.386 . S
C1916 C1911 1.490 . S
C1916 C1918 1.395 . S
C1916 C1919 1.403 . S
H1917 C1923 0.930 . S
C1918 H1904 0.930 . S
C1918 C1916 1.395 . S
C1918 C1921 1.403 . S
C1919 C1916 1.403 . S
C1919 C1920 1.524 . S
C1919 C1923 1.400 . S
C1920 H1905 0.960 . S
C1920 H1906 0.960 . S
C1920 H1907 0.960 . S
C1920 C1919 1.524 . S
C1921 C1918 1.403 . S
C1921 C1922 1.392 . S
C1921 C1925 1.495 . S
C1922 C1921 1.392 . S
C1922 C1923 1.385 . S
C1922 C1924 1.478 . S
C1923 H1917 0.930 . S
C1923 C1919 1.400 . S
C1923 C1922 1.385 . S
C1924 C1922 1.478 . S
C1924 C1926 1.381 . S
C1924 C1930 1.383 . S
C1925 C1921 1.495 . S
C1925 H1931 0.959 . S
C1925 H1932 0.961 . S
C1925 H1933 0.960 . S
C1926 C1924 1.381 . S
C1926 C1927 1.394 . S
C1926 H1934 0.930 . S
C1927 C1926 1.394 . S
C1927 C1928 1.383 . S
C1927 H1935 0.929 . S
C1928 C1927 1.383 . S
C1928 C1929 1.377 . S
C1929 H1913 0.930 . S
C1929 C1928 1.377 . S
C1929 C1930 1.379 . S
C1930 H1914 0.931 . S
C1930 C1924 1.383 . S
C1930 C1929 1.379 . S
H1931 C1925 0.959 . S
H1932 C1925 0.961 . S
H1933 C1925 0.960 . S
H1934 C1926 0.930 . S
H1935 C1927 0.929 . S
H1936 C1944 0.929 . S
H1937 C1946 0.930 . S
H1938 C1948 0.930 . S
H1939 C1951 0.929 . S
H1940 C1954 0.930 . S
H1941 C1956 0.960 . S
H1942 C1956 0.960 . S
H1943 C1956 0.960 . S
C1944 H1936 0.929 . S
C1944 C1945 1.377 . S
C1944 C1946 1.384 . S
C1945 C1944 1.377 . S
C1945 C1951 1.390 . S
C1946 H1937 0.930 . S
C1946 C1944 1.384 . S
C1946 C1947 1.372 . S
C1947 C1946 1.372 . S
C1947 C1948 1.400 . S
C1947 C1952 1.490 . S
C1948 H1938 0.930 . S
C1948 C1947 1.400 . S
C1948 C1951 1.386 . S
H1949 C1965 0.930 . S
H1950 C1966 0.931 . S
C1951 H1939 0.929 . S
C1951 C1945 1.390 . S
C1951 C1948 1.386 . S
C1952 C1947 1.490 . S
C1952 C1954 1.395 . S
C1952 C1955 1.403 . S
H1953 C1959 0.930 . S
C1954 H1940 0.930 . S
C1954 C1952 1.395 . S
C1954 C1957 1.403 . S
C1955 C1952 1.403 . S
C1955 C1956 1.524 . S
C1955 C1959 1.400 . S
C1956 H1941 0.960 . S
C1956 H1942 0.960 . S
C1956 H1943 0.960 . S
C1956 C1955 1.524 . S
C1957 C1954 1.403 . S
C1957 C1958 1.392 . S
C1957 C1961 1.495 . S
C1958 C1957 1.392 . S
C1958 C1959 1.385 . S
C1958 C1960 1.478 . S
C1959 H1953 0.930 . S
C1959 C1955 1.400 . S
C1959 C1958 1.385 . S
C1960 C1958 1.478 . S
C1960 C1962 1.381 . S
C1960 C1966 1.383 . S
C1961 C1957 1.495 . S
C1961 H1967 0.959 . S
C1961 H1968 0.961 . S
C1961 H1969 0.960 . S
C1962 C1960 1.381 . S
C1962 C1963 1.394 . S
C1962 H1970 0.930 . S
C1963 C1962 1.394 . S
C1963 C1964 1.383 . S
C1963 H1971 0.929 . S
C1964 C1963 1.383 . S
C1964 C1965 1.377 . S
C1965 H1949 0.930 . S
C1965 C1964 1.377 . S
C1965 C1966 1.379 . S
C1966 H1950 0.931 . S
C1966 C1960 1.383 . S
C1966 C1965 1.379 . S
H1967 C1961 0.959 . S
H1968 C1961 0.961 . S
H1969 C1961 0.960 . S
H1970 C1962 0.930 . S
H1971 C1963 0.929 . S
H1972 C1980 0.929 . S
H1973 C1982 0.930 . S
H1974 C1984 0.930 . S
H1975 C1987 0.929 . S
H1976 C1990 0.930 . S
H1977 C1992 0.960 . S
H1978 C1992 0.960 1_556 S
H1979 C1992 0.960 . S
C1980 H1972 0.929 . S
C1980 C1981 1.377 . S
C1980 C1982 1.384 . S
C1981 C1980 1.377 . S
C1981 C1987 1.390 . S
C1982 H1973 0.930 . S
C1982 C1980 1.384 . S
C1982 C1983 1.372 . S
C1983 C1982 1.372 . S
C1983 C1984 1.400 . S
C1983 C1988 1.490 . S
C1984 H1974 0.930 . S
C1984 C1983 1.400 . S
C1984 C1987 1.386 . S
H1985 C2001 0.930 . S
H1986 C2002 0.931 . S
C1987 H1975 0.929 . S
C1987 C1981 1.390 . S
C1987 C1984 1.386 . S
C1988 C1983 1.490 . S
C1988 C1990 1.395 . S
C1988 C1991 1.403 . S
H1989 C1995 0.930 . S
C1990 H1976 0.930 . S
C1990 C1988 1.395 . S
C1990 C1993 1.403 . S
C1991 C1988 1.403 . S
C1991 C1992 1.524 . S
C1991 C1995 1.400 . S
C1992 H1977 0.960 . S
C1992 H1978 0.960 1_554 S
C1992 H1979 0.960 . S
C1992 C1991 1.524 . S
C1993 C1990 1.403 . S
C1993 C1994 1.392 . S
C1993 C1997 1.495 . S
C1994 C1993 1.392 . S
C1994 C1995 1.385 . S
C1994 C1996 1.478 . S
C1995 H1989 0.930 . S
C1995 C1991 1.400 . S
C1995 C1994 1.385 . S
C1996 C1994 1.478 . S
C1996 C1998 1.381 1_554 S
C1996 C2002 1.383 . S
C1997 C1993 1.495 . S
C1997 H2003 0.959 . S
C1997 H2004 0.961 . S
C1997 H2005 0.960 . S
C1998 C1996 1.381 1_556 S
C1998 C1999 1.394 . S
C1998 H2006 0.930 . S
C1999 C1998 1.394 . S
C1999 C2000 1.383 1_556 S
C1999 H2007 0.929 . S
C2000 C1999 1.383 1_554 S
C2000 C2001 1.377 . S
C2001 H1985 0.930 . S
C2001 C2000 1.377 . S
C2001 C2002 1.379 . S
C2002 H1986 0.931 . S
C2002 C1996 1.383 . S
C2002 C2001 1.379 . S
H2003 C1997 0.959 . S
H2004 C1997 0.961 . S
H2005 C1997 0.960 . S
H2006 C1998 0.930 . S
H2007 C1999 0.929 . S
H2008 C2016 0.929 . S
H2009 C2018 0.930 . S
H2010 C2020 0.930 . S
H2011 C2023 0.929 . S
H2012 C2026 0.930 . S
H2013 C2028 0.960 . S
H2014 C2028 0.960 . S
H2015 C2028 0.960 . S
C2016 H2008 0.929 . S
C2016 C2017 1.377 . S
C2016 C2018 1.384 . S
C2017 C2016 1.377 . S
C2017 C2023 1.390 . S
C2018 H2009 0.930 . S
C2018 C2016 1.384 . S
C2018 C2019 1.372 . S
C2019 C2018 1.372 . S
C2019 C2020 1.400 . S
C2019 C2024 1.490 . S
C2020 H2010 0.930 . S
C2020 C2019 1.400 . S
C2020 C2023 1.386 . S
H2021 C2037 0.930 . S
H2022 C2038 0.931 . S
C2023 H2011 0.929 . S
C2023 C2017 1.390 . S
C2023 C2020 1.386 . S
C2024 C2019 1.490 . S
C2024 C2026 1.395 . S
C2024 C2027 1.403 . S
H2025 C2031 0.930 . S
C2026 H2012 0.930 . S
C2026 C2024 1.395 . S
C2026 C2029 1.403 . S
C2027 C2024 1.403 . S
C2027 C2028 1.524 . S
C2027 C2031 1.400 . S
C2028 H2013 0.960 . S
C2028 H2014 0.960 . S
C2028 H2015 0.960 . S
C2028 C2027 1.524 . S
C2029 C2026 1.403 . S
C2029 C2030 1.392 . S
C2029 C2033 1.495 . S
C2030 C2029 1.392 . S
C2030 C2031 1.385 . S
C2030 C2032 1.478 . S
C2031 H2025 0.930 . S
C2031 C2027 1.400 . S
C2031 C2030 1.385 . S
C2032 C2030 1.478 . S
C2032 C2034 1.381 . S
C2032 C2038 1.383 . S
C2033 C2029 1.495 . S
C2033 H2039 0.959 . S
C2033 H2040 0.961 . S
C2033 H2041 0.960 . S
C2034 C2032 1.381 . S
C2034 C2035 1.394 . S
C2034 H2042 0.930 . S
C2035 C2034 1.394 . S
C2035 C2036 1.383 . S
C2035 H2043 0.929 . S
C2036 C2035 1.383 . S
C2036 C2037 1.377 . S
C2037 H2021 0.930 . S
C2037 C2036 1.377 . S
C2037 C2038 1.379 . S
C2038 H2022 0.931 . S
C2038 C2032 1.383 . S
C2038 C2037 1.379 . S
H2039 C2033 0.959 . S
H2040 C2033 0.961 . S
H2041 C2033 0.960 . S
H2042 C2034 0.930 . S
H2043 C2035 0.929 . S
H2044 C2052 0.929 . S
H2045 C2054 0.930 . S
H2046 C2056 0.930 . S
H2047 C2059 0.929 . S
H2048 C2062 0.930 . S
H2049 C2064 0.960 . S
H2050 C2064 0.960 . S
H2051 C2064 0.960 . S
C2052 H2044 0.929 . S
C2052 C2053 1.377 . S
C2052 C2054 1.384 . S
C2053 C2052 1.377 . S
C2053 C2059 1.390 . S
C2054 H2045 0.930 . S
C2054 C2052 1.384 . S
C2054 C2055 1.372 . S
C2055 C2054 1.372 . S
C2055 C2056 1.400 . S
C2055 C2060 1.490 . S
C2056 H2046 0.930 . S
C2056 C2055 1.400 . S
C2056 C2059 1.386 . S
H2057 C2073 0.930 . S
H2058 C2074 0.931 . S
C2059 H2047 0.929 . S
C2059 C2053 1.390 . S
C2059 C2056 1.386 . S
C2060 C2055 1.490 . S
C2060 C2062 1.395 . S
C2060 C2063 1.403 . S
H2061 C2067 0.930 . S
C2062 H2048 0.930 . S
C2062 C2060 1.395 . S
C2062 C2065 1.403 . S
C2063 C2060 1.403 . S
C2063 C2064 1.524 . S
C2063 C2067 1.400 . S
C2064 H2049 0.960 . S
C2064 H2050 0.960 . S
C2064 H2051 0.960 . S
C2064 C2063 1.524 . S
C2065 C2062 1.403 . S
C2065 C2066 1.392 . S
C2065 C2069 1.495 . S
C2066 C2065 1.392 . S
C2066 C2067 1.385 . S
C2066 C2068 1.478 . S
C2067 H2061 0.930 . S
C2067 C2063 1.400 . S
C2067 C2066 1.385 . S
C2068 C2066 1.478 . S
C2068 C2070 1.381 . S
C2068 C2074 1.383 . S
C2069 C2065 1.495 . S
C2069 H2075 0.959 . S
C2069 H2076 0.961 . S
C2069 H2077 0.960 . S
C2070 C2068 1.381 . S
C2070 C2071 1.394 . S
C2070 H2078 0.930 . S
C2071 C2070 1.394 . S
C2071 C2072 1.383 . S
C2071 H2079 0.929 . S
C2072 C2071 1.383 . S
C2072 C2073 1.377 . S
C2073 H2057 0.930 . S
C2073 C2072 1.377 . S
C2073 C2074 1.379 . S
C2074 H2058 0.931 . S
C2074 C2068 1.383 . S
C2074 C2073 1.379 . S
H2075 C2069 0.959 . S
H2076 C2069 0.961 . S
H2077 C2069 0.960 . S
H2078 C2070 0.930 . S
H2079 C2071 0.929 . S
H2080 C2088 0.929 . S
H2081 C2090 0.930 . S
H2082 C2092 0.930 . S
H2083 C2095 0.929 . S
H2084 C2098 0.930 . S
H2085 C2100 0.960 . S
H2086 C2100 0.960 . S
H2087 C2100 0.960 . S
C2088 H2080 0.929 . S
C2088 C2089 1.377 . S
C2088 C2090 1.384 . S
C2089 C2088 1.377 . S
C2089 C2095 1.390 . S
C2090 H2081 0.930 . S
C2090 C2088 1.384 . S
C2090 C2091 1.372 . S
C2091 C2090 1.372 . S
C2091 C2092 1.400 . S
C2091 C2096 1.490 . S
C2092 H2082 0.930 . S
C2092 C2091 1.400 . S
C2092 C2095 1.386 . S
H2093 C2109 0.930 . S
H2094 C2110 0.931 . S
C2095 H2083 0.929 . S
C2095 C2089 1.390 . S
C2095 C2092 1.386 . S
C2096 C2091 1.490 . S
C2096 C2098 1.395 . S
C2096 C2099 1.403 . S
H2097 C2103 0.930 . S
C2098 H2084 0.930 . S
C2098 C2096 1.395 . S
C2098 C2101 1.403 . S
C2099 C2096 1.403 . S
C2099 C2100 1.524 . S
C2099 C2103 1.400 . S
C2100 H2085 0.960 . S
C2100 H2086 0.960 . S
C2100 H2087 0.960 . S
C2100 C2099 1.524 . S
C2101 C2098 1.403 . S
C2101 C2102 1.392 . S
C2101 C2105 1.495 . S
C2102 C2101 1.392 . S
C2102 C2103 1.385 . S
C2102 C2104 1.478 . S
C2103 H2097 0.930 . S
C2103 C2099 1.400 . S
C2103 C2102 1.385 . S
C2104 C2102 1.478 . S
C2104 C2106 1.381 . S
C2104 C2110 1.383 . S
C2105 C2101 1.495 . S
C2105 H2111 0.959 . S
C2105 H2112 0.961 . S
C2105 H2113 0.960 . S
C2106 C2104 1.381 . S
C2106 C2107 1.394 . S
C2106 H2114 0.930 . S
C2107 C2106 1.394 . S
C2107 C2108 1.383 . S
C2107 H2115 0.929 . S
C2108 C2107 1.383 . S
C2108 C2109 1.377 . S
C2109 H2093 0.930 . S
C2109 C2108 1.377 . S
C2109 C2110 1.379 . S
C2110 H2094 0.931 . S
C2110 C2104 1.383 . S
C2110 C2109 1.379 . S
H2111 C2105 0.959 . S
H2112 C2105 0.961 . S
H2113 C2105 0.960 . S
H2114 C2106 0.930 . S
H2115 C2107 0.929 . S
H2116 C2124 0.929 . S
H2117 C2126 0.930 . S
H2118 C2128 0.930 . S
H2119 C2131 0.929 . S
H2120 C2134 0.930 . S
H2121 C2136 0.960 . S
H2122 C2136 0.960 . S
H2123 C2136 0.960 . S
C2124 H2116 0.929 . S
C2124 C2125 1.377 . S
C2124 C2126 1.384 . S
C2125 C2124 1.377 . S
C2125 C2131 1.390 . S
C2126 H2117 0.930 . S
C2126 C2124 1.384 . S
C2126 C2127 1.372 . S
C2127 C2126 1.372 . S
C2127 C2128 1.400 . S
C2127 C2132 1.490 . S
C2128 H2118 0.930 . S
C2128 C2127 1.400 . S
C2128 C2131 1.386 . S
H2129 C2145 0.930 . S
H2130 C2146 0.931 . S
C2131 H2119 0.929 . S
C2131 C2125 1.390 . S
C2131 C2128 1.386 . S
C2132 C2127 1.490 . S
C2132 C2134 1.395 . S
C2132 C2135 1.403 . S
H2133 C2139 0.930 . S
C2134 H2120 0.930 . S
C2134 C2132 1.395 . S
C2134 C2137 1.403 . S
C2135 C2132 1.403 . S
C2135 C2136 1.524 . S
C2135 C2139 1.400 . S
C2136 H2121 0.960 . S
C2136 H2122 0.960 . S
C2136 H2123 0.960 . S
C2136 C2135 1.524 . S
C2137 C2134 1.403 . S
C2137 C2138 1.392 . S
C2137 C2141 1.495 . S
C2138 C2137 1.392 . S
C2138 C2139 1.385 . S
C2138 C2140 1.478 . S
C2139 H2133 0.930 . S
C2139 C2135 1.400 . S
C2139 C2138 1.385 . S
C2140 C2138 1.478 . S
C2140 C2142 1.381 . S
C2140 C2146 1.383 . S
C2141 C2137 1.495 . S
C2141 H2147 0.959 . S
C2141 H2148 0.961 . S
C2141 H2149 0.960 . S
C2142 C2140 1.381 . S
C2142 C2143 1.394 . S
C2142 H2150 0.930 . S
C2143 C2142 1.394 . S
C2143 C2144 1.383 . S
C2143 H2151 0.929 . S
C2144 C2143 1.383 . S
C2144 C2145 1.377 . S
C2145 H2129 0.930 . S
C2145 C2144 1.377 . S
C2145 C2146 1.379 . S
C2146 H2130 0.931 . S
C2146 C2140 1.383 . S
C2146 C2145 1.379 . S
H2147 C2141 0.959 . S
H2148 C2141 0.961 . S
H2149 C2141 0.960 . S
H2150 C2142 0.930 . S
H2151 C2143 0.929 . S
H2152 C2160 0.929 . S
H2153 C2162 0.916 1_554 S
H2154 C2164 0.930 . S
H2155 C2167 0.929 . S
H2156 C2170 0.930 . S
H2157 C2172 0.960 . S
H2158 C2172 0.960 . S
H2159 C2172 0.960 1_556 S
C2160 H2152 0.929 . S
C2160 C2161 1.377 1_554 S
C2160 C2162 1.368 1_554 S
C2161 C2160 1.377 1_556 S
C2161 C2167 1.390 . S
C2162 H2153 0.916 1_556 S
C2162 C2160 1.368 1_556 S
C2162 C2163 1.404 . S
C2163 C2162 1.404 . S
C2163 C2164 1.400 . S
C2163 C2168 1.490 . S
C2164 H2154 0.930 . S
C2164 C2163 1.400 . S
C2164 C2167 1.386 . S
H2165 C2181 0.930 . S
H2166 C2182 0.931 . S
C2167 H2155 0.929 . S
C2167 C2161 1.390 . S
C2167 C2164 1.386 . S
C2168 C2163 1.490 . S
C2168 C2170 1.395 . S
C2168 C2171 1.403 . S
H2169 C2175 0.930 . S
C2170 H2156 0.930 . S
C2170 C2168 1.395 . S
C2170 C2173 1.403 . S
C2171 C2168 1.403 . S
C2171 C2172 1.524 1_556 S
C2171 C2175 1.400 . S
C2172 H2157 0.960 . S
C2172 H2158 0.960 . S
C2172 H2159 0.960 1_554 S
C2172 C2171 1.524 1_554 S
C2173 C2170 1.403 . S
C2173 C2174 1.392 . S
C2173 C2177 1.495 . S
C2174 C2173 1.392 . S
C2174 C2175 1.385 . S
C2174 C2176 1.478 . S
C2175 H2169 0.930 . S
C2175 C2171 1.400 . S
C2175 C2174 1.385 . S
C2176 C2174 1.478 . S
C2176 C2178 1.381 . S
C2176 C2182 1.383 . S
C2177 C2173 1.495 . S
C2177 H2183 0.959 . S
C2177 H2184 0.961 . S
C2177 H2185 0.960 . S
C2178 C2176 1.381 . S
C2178 C2179 1.394 . S
C2178 H2186 0.930 . S
C2179 C2178 1.394 . S
C2179 C2180 1.383 . S
C2179 H2187 0.929 . S
C2180 C2179 1.383 . S
C2180 C2181 1.377 . S
C2181 H2165 0.930 . S
C2181 C2180 1.377 . S
C2181 C2182 1.379 . S
C2182 H2166 0.931 . S
C2182 C2176 1.383 . S
C2182 C2181 1.379 . S
H2183 C2177 0.959 . S
H2184 C2177 0.961 . S
H2185 C2177 0.960 . S
H2186 C2178 0.930 . S
H2187 C2179 0.929 . S
H2188 C2196 0.929 . S
H2189 C2198 0.930 . S
H2190 C2200 0.930 . S
H2191 C2203 0.929 . S
H2192 C2206 0.930 . S
H2193 C2208 0.960 . S
H2194 C2208 0.960 . S
H2195 C2208 0.960 . S
C2196 H2188 0.929 . S
C2196 C2197 1.377 . S
C2196 C2198 1.384 . S
C2197 C2196 1.377 . S
C2197 C2203 1.390 . S
C2198 H2189 0.930 . S
C2198 C2196 1.384 . S
C2198 C2199 1.372 . S
C2199 C2198 1.372 . S
C2199 C2200 1.400 . S
C2199 C2204 1.490 . S
C2200 H2190 0.930 . S
C2200 C2199 1.400 . S
C2200 C2203 1.386 . S
H2201 C2217 0.930 . S
H2202 C2218 0.931 . S
C2203 H2191 0.929 . S
C2203 C2197 1.390 . S
C2203 C2200 1.386 . S
C2204 C2199 1.490 . S
C2204 C2206 1.395 . S
C2204 C2207 1.403 . S
H2205 C2211 0.930 . S
C2206 H2192 0.930 . S
C2206 C2204 1.395 . S
C2206 C2209 1.403 . S
C2207 C2204 1.403 . S
C2207 C2208 1.524 . S
C2207 C2211 1.400 . S
C2208 H2193 0.960 . S
C2208 H2194 0.960 . S
C2208 H2195 0.960 . S
C2208 C2207 1.524 . S
C2209 C2206 1.403 . S
C2209 C2210 1.392 . S
C2209 C2213 1.495 . S
C2210 C2209 1.392 . S
C2210 C2211 1.385 . S
C2210 C2212 1.478 . S
C2211 H2205 0.930 . S
C2211 C2207 1.400 . S
C2211 C2210 1.385 . S
C2212 C2210 1.478 . S
C2212 C2214 1.381 . S
C2212 C2218 1.383 . S
C2213 C2209 1.495 . S
C2213 H2219 0.959 . S
C2213 H2220 0.961 . S
C2213 H2221 0.960 . S
C2214 C2212 1.381 . S
C2214 C2215 1.394 . S
C2214 H2222 0.930 . S
C2215 C2214 1.394 . S
C2215 C2216 1.383 . S
C2215 H2223 0.929 . S
C2216 C2215 1.383 . S
C2216 C2217 1.377 . S
C2217 H2201 0.930 . S
C2217 C2216 1.377 . S
C2217 C2218 1.379 . S
C2218 H2202 0.931 . S
C2218 C2212 1.383 . S
C2218 C2217 1.379 . S
H2219 C2213 0.959 . S
H2220 C2213 0.961 . S
H2221 C2213 0.960 . S
H2222 C2214 0.930 . S
H2223 C2215 0.929 . S
H2224 C2232 0.929 . S
H2225 C2234 0.930 . S
H2226 C2236 0.930 . S
H2227 C2239 0.929 . S
H2228 C2242 0.930 . S
H2229 C2244 0.960 . S
H2230 C2244 0.960 . S
H2231 C2244 0.960 . S
C2232 H2224 0.929 . S
C2232 C2233 1.377 . S
C2232 C2234 1.384 . S
C2233 C2232 1.377 . S
C2233 C2239 1.390 . S
C2234 H2225 0.930 . S
C2234 C2232 1.384 . S
C2234 C2235 1.372 . S
C2235 C2234 1.372 . S
C2235 C2236 1.400 . S
C2235 C2240 1.490 . S
C2236 H2226 0.930 . S
C2236 C2235 1.400 . S
C2236 C2239 1.386 . S
H2237 C2253 0.930 . S
H2238 C2254 0.931 . S
C2239 H2227 0.929 . S
C2239 C2233 1.390 . S
C2239 C2236 1.386 . S
C2240 C2235 1.490 . S
C2240 C2242 1.395 . S
C2240 C2243 1.403 . S
H2241 C2247 0.930 . S
C2242 H2228 0.930 . S
C2242 C2240 1.395 . S
C2242 C2245 1.403 . S
C2243 C2240 1.403 . S
C2243 C2244 1.524 . S
C2243 C2247 1.400 . S
C2244 H2229 0.960 . S
C2244 H2230 0.960 . S
C2244 H2231 0.960 . S
C2244 C2243 1.524 . S
C2245 C2242 1.403 . S
C2245 C2246 1.392 . S
C2245 C2249 1.495 . S
C2246 C2245 1.392 . S
C2246 C2247 1.385 . S
C2246 C2248 1.478 . S
C2247 H2241 0.930 . S
C2247 C2243 1.400 . S
C2247 C2246 1.385 . S
C2248 C2246 1.478 . S
C2248 C2250 1.381 . S
C2248 C2254 1.383 . S
C2249 C2245 1.495 . S
C2249 H2255 0.959 . S
C2249 H2256 0.961 . S
C2249 H2257 0.960 . S
C2250 C2248 1.381 . S
C2250 C2251 1.394 . S
C2250 H2258 0.930 . S
C2251 C2250 1.394 . S
C2251 C2252 1.383 . S
C2251 H2259 0.929 . S
C2252 C2251 1.383 . S
C2252 C2253 1.377 . S
C2253 H2237 0.930 . S
C2253 C2252 1.377 . S
C2253 C2254 1.379 . S
C2254 H2238 0.931 . S
C2254 C2248 1.383 . S
C2254 C2253 1.379 . S
H2255 C2249 0.959 . S
H2256 C2249 0.961 . S
H2257 C2249 0.960 . S
H2258 C2250 0.930 . S
H2259 C2251 0.929 . S
H2260 C2268 0.929 . S
H2261 C2270 0.930 . S
H2262 C2272 0.930 . S
H2263 C2275 0.929 . S
H2264 C2278 0.930 . S
H2265 C2280 0.960 . S
H2266 C2280 0.960 . S
H2267 C2280 0.960 . S
C2268 H2260 0.929 . S
C2268 C2269 1.377 . S
C2268 C2270 1.384 . S
C2269 C2268 1.377 . S
C2269 C2275 1.390 . S
C2270 H2261 0.930 . S
C2270 C2268 1.384 . S
C2270 C2271 1.372 . S
C2271 C2270 1.372 . S
C2271 C2272 1.400 . S
C2271 C2276 1.490 . S
C2272 H2262 0.930 . S
C2272 C2271 1.400 . S
C2272 C2275 1.386 . S
H2273 C2289 0.930 . S
H2274 C2290 0.931 . S
C2275 H2263 0.929 . S
C2275 C2269 1.390 . S
C2275 C2272 1.386 . S
C2276 C2271 1.490 . S
C2276 C2278 1.395 . S
C2276 C2279 1.403 . S
H2277 C2283 0.930 . S
C2278 H2264 0.930 . S
C2278 C2276 1.395 . S
C2278 C2281 1.403 . S
C2279 C2276 1.403 . S
C2279 C2280 1.524 . S
C2279 C2283 1.400 . S
C2280 H2265 0.960 . S
C2280 H2266 0.960 . S
C2280 H2267 0.960 . S
C2280 C2279 1.524 . S
C2281 C2278 1.403 . S
C2281 C2282 1.392 . S
C2281 C2285 1.495 . S
C2282 C2281 1.392 . S
C2282 C2283 1.385 . S
C2282 C2284 1.478 . S
C2283 H2277 0.930 . S
C2283 C2279 1.400 . S
C2283 C2282 1.385 . S
C2284 C2282 1.478 . S
C2284 C2286 1.381 . S
C2284 C2290 1.383 . S
C2285 C2281 1.495 . S
C2285 H2291 0.959 . S
C2285 H2292 0.961 . S
C2285 H2293 0.960 . S
C2286 C2284 1.381 . S
C2286 C2287 1.394 . S
C2286 H2294 0.930 . S
C2287 C2286 1.394 . S
C2287 C2288 1.383 . S
C2287 H2295 0.929 . S
C2288 C2287 1.383 . S
C2288 C2289 1.377 . S
C2289 H2273 0.930 . S
C2289 C2288 1.377 . S
C2289 C2290 1.379 . S
C2290 H2274 0.931 . S
C2290 C2284 1.383 . S
C2290 C2289 1.379 . S
H2291 C2285 0.959 . S
H2292 C2285 0.961 . S
H2293 C2285 0.960 . S
H2294 C2286 0.930 . S
H2295 C2287 0.929 . S
H2296 C2304 0.929 . S
H2297 C2306 0.930 . S
H2298 C2308 0.930 . S
H2299 C2311 0.929 . S
H2300 C2314 0.930 . S
H2301 C2316 0.960 . S
H2302 C2316 0.960 . S
H2303 C2316 0.960 . S
C2304 H2296 0.929 . S
C2304 C2305 1.377 . S
C2304 C2306 1.384 . S
C2305 C2304 1.377 . S
C2305 C2311 1.390 . S
C2306 H2297 0.930 . S
C2306 C2304 1.384 . S
C2306 C2307 1.372 . S
C2307 C2306 1.372 . S
C2307 C2308 1.400 . S
C2307 C2312 1.490 . S
C2308 H2298 0.930 . S
C2308 C2307 1.400 . S
C2308 C2311 1.386 . S
H2309 C2325 0.930 . S
H2310 C2326 0.931 . S
C2311 H2299 0.929 . S
C2311 C2305 1.390 . S
C2311 C2308 1.386 . S
C2312 C2307 1.490 . S
C2312 C2314 1.395 . S
C2312 C2315 1.403 . S
H2313 C2319 0.930 . S
C2314 H2300 0.930 . S
C2314 C2312 1.395 . S
C2314 C2317 1.403 . S
C2315 C2312 1.403 . S
C2315 C2316 1.524 . S
C2315 C2319 1.400 . S
C2316 H2301 0.960 . S
C2316 H2302 0.960 . S
C2316 H2303 0.960 . S
C2316 C2315 1.524 . S
C2317 C2314 1.403 . S
C2317 C2318 1.392 . S
C2317 C2321 1.495 . S
C2318 C2317 1.392 . S
C2318 C2319 1.385 . S
C2318 C2320 1.478 . S
C2319 H2313 0.930 . S
C2319 C2315 1.400 . S
C2319 C2318 1.385 . S
C2320 C2318 1.478 . S
C2320 C2322 1.381 . S
C2320 C2326 1.383 . S
C2321 C2317 1.495 . S
C2321 H2327 0.959 . S
C2321 H2328 0.961 . S
C2321 H2329 0.960 . S
C2322 C2320 1.381 . S
C2322 C2323 1.394 . S
C2322 H2330 0.930 . S
C2323 C2322 1.394 . S
C2323 C2324 1.383 . S
C2323 H2331 0.929 . S
C2324 C2323 1.383 . S
C2324 C2325 1.377 . S
C2325 H2309 0.930 . S
C2325 C2324 1.377 . S
C2325 C2326 1.379 . S
C2326 H2310 0.931 . S
C2326 C2320 1.383 . S
C2326 C2325 1.379 . S
H2327 C2321 0.959 . S
H2328 C2321 0.961 . S
H2329 C2321 0.960 . S
H2330 C2322 0.930 . S
H2331 C2323 0.929 . S
H2332 C2340 0.929 . S
H2333 C2342 0.930 . S
H2334 C2344 0.930 . S
H2335 C2347 0.929 . S
H2336 C2350 0.930 . S
H2337 C2352 0.960 . S
H2338 C2352 0.960 . S
H2339 C2352 0.960 . S
C2340 H2332 0.929 . S
C2340 C2341 1.377 . S
C2340 C2342 1.384 . S
C2341 C2340 1.377 . S
C2341 C2347 1.390 . S
C2342 H2333 0.930 . S
C2342 C2340 1.384 . S
C2342 C2343 1.372 . S
C2343 C2342 1.372 . S
C2343 C2344 1.400 . S
C2343 C2348 1.490 . S
C2344 H2334 0.930 . S
C2344 C2343 1.400 . S
C2344 C2347 1.386 . S
H2345 C2361 0.930 . S
H2346 C2362 0.931 . S
C2347 H2335 0.929 . S
C2347 C2341 1.390 . S
C2347 C2344 1.386 . S
C2348 C2343 1.490 . S
C2348 C2350 1.395 . S
C2348 C2351 1.403 . S
H2349 C2355 0.930 . S
C2350 H2336 0.930 . S
C2350 C2348 1.395 . S
C2350 C2353 1.403 . S
C2351 C2348 1.403 . S
C2351 C2352 1.524 . S
C2351 C2355 1.400 . S
C2352 H2337 0.960 . S
C2352 H2338 0.960 . S
C2352 H2339 0.960 . S
C2352 C2351 1.524 . S
C2353 C2350 1.403 . S
C2353 C2354 1.392 . S
C2353 C2357 1.495 . S
C2354 C2353 1.392 . S
C2354 C2355 1.385 . S
C2354 C2356 1.478 . S
C2355 H2349 0.930 . S
C2355 C2351 1.400 . S
C2355 C2354 1.385 . S
C2356 C2354 1.478 . S
C2356 C2358 1.381 . S
C2356 C2362 1.383 . S
C2357 C2353 1.495 . S
C2357 H2363 0.959 . S
C2357 H2364 0.961 . S
C2357 H2365 0.960 . S
C2358 C2356 1.381 . S
C2358 C2359 1.394 . S
C2358 H2366 0.930 . S
C2359 C2358 1.394 . S
C2359 C2360 1.383 . S
C2359 H2367 0.929 . S
C2360 C2359 1.383 . S
C2360 C2361 1.377 . S
C2361 H2345 0.930 . S
C2361 C2360 1.377 . S
C2361 C2362 1.379 . S
C2362 H2346 0.931 . S
C2362 C2356 1.383 . S
C2362 C2361 1.379 . S
H2363 C2357 0.959 . S
H2364 C2357 0.961 . S
H2365 C2357 0.960 . S
H2366 C2358 0.930 . S
H2367 C2359 0.929 . S
C649 C11 0.966 . S
C668 C56 0.947 . S
C685 C91 1.794 . S
C704 C42 1.783 . S
C721 C122 2.062 . S
C740 C99 2.048 . S
C757 C19 1.044 . S
C776 C136 0.995 . S
C793 C10 1.036 . S
C812 C367 1.038 . S
C829 C282 0.964 . S
C848 C47 0.928 . S
C865 C82 1.794 . S
C884 C411 1.785 . S
C901 C131 2.058 . S
C920 C530 2.047 . S
C937 C322 1.794 . S
C956 C51 1.757 . S
C973 C491 2.063 . S
C992 C90 2.071 . S
C1009 C570 1.035 . S
C1028 C127 1.002 . S
C1045 C2 0.963 . S
C1064 C447 0.916 . S
C1081 C16 0.603 . S
C1100 C327 0.567 . S
C1117 C499 1.457 . S
C1136 C170 1.479 . S
C1153 C216 0.586 . S
C1172 C567 0.587 . S
C1189 C450 1.466 . S
C1208 C259 1.436 . S
C1225 C96 0.583 . S
C1244 C287 0.629 . S
C1261 C370 1.461 . S
C1280 C179 1.438 . S
C1297 C250 1.454 . S
C1316 C419 1.476 . S
C1333 C202 1.795 . S
C1352 C451 1.769 . S
C1369 C371 2.060 . S
C1388 C210 2.060 . S
C1405 C456 0.945 . S
C1424 C291 0.955 . S
C1441 C211 1.795 . S
C1460 C162 1.775 . S
C1477 C362 2.062 . S
C1496 C339 2.047 . S
C1513 C531 1.795 . S
C1532 C442 1.759 . S
C1549 C242 2.062 . S
C1568 C219 2.049 . S
C1585 C376 1.037 . S
C1604 C579 1.024 . S
C1621 C536 0.577 . S
C1640 C7 0.628 . S
C1657 C87 0.575 . S
C1676 C576 0.586 . S
C1693 C490 1.459 . S
C1712 C59 1.476 . S
C1729 C296 0.606 . S
C1748 C207 0.568 . S
C1765 C139 1.462 . S
C1784 C410 1.461 . S
C1801 C482 2.058 . S
C1820 C539 2.071 . S
C1837 C299 1.043 . S
C1856 C496 1.013 . S
C1873 C247 1.035 . S
C1892 C290 1.043 . S
C1909 C171 1.775 . S
C1928 C522 1.785 . S
C1945 C487 1.037 . S
C1964 C610 1.066 . S
C1981 C607 0.603 . S
C2000 C336 0.614 . S
C2017 C50 1.462 . S
C2036 C379 1.474 . S
C2053 C330 2.059 . S
C2072 C251 2.054 . S
C2089 C331 1.794 . S
C2108 C402 1.767 . S
C2125 C619 1.044 . S
C2144 C256 0.995 . S
C2161 C527 0.585 . S
C2180 C616 0.656 . S
C2197 C459 1.461 . S
C2216 C130 1.477 . S
C2233 C416 0.954 . S
C2252 C571 0.969 . S
C2269 C407 0.941 . S
C2288 C602 0.954 . S
C2305 C167 0.955 . S
C2324 C562 0.973 . S
C2341 C611 0.966 . S
C2360 C176 0.924 . S
