# Generated by pormake.
# Topology srs, (3)-cn, num edge types: 1
# Building blocks:
#     Node 0, Type 0, BuildingBlock: OLANEW_clean_sbu_2, # of connection points: 3
#     Node 1, Type 0, BuildingBlock: OLANEW_clean_sbu_2, # of connection points: 3
#     Node 2, Type 0, BuildingBlock: OLANEW_clean_sbu_2, # of connection points: 3
#     Node 3, Type 0, BuildingBlock: OLANEW_clean_sbu_2, # of connection points: 3
#     Node 4, Type 0, BuildingBlock: OLANEW_clean_sbu_2, # of connection points: 3
#     Node 5, Type 0, BuildingBlock: OLANEW_clean_sbu_2, # of connection points: 3
#     Node 6, Type 0, BuildingBlock: OLANEW_clean_sbu_2, # of connection points: 3
#     Node 7, Type 0, BuildingBlock: OLANEW_clean_sbu_2, # of connection points: 3
#     Edge 8, Type (0, 0), BuildingBlock: UVAHIK_clean_linker_0, # of connection points: 2
#     Edge 9, Type (0, 0), BuildingBlock: UVAHIK_clean_linker_0, # of connection points: 2
#     Edge 10, Type (0, 0), BuildingBlock: UVAHIK_clean_linker_0, # of connection points: 2
#     Edge 11, Type (0, 0), BuildingBlock: UVAHIK_clean_linker_0, # of connection points: 2
#     Edge 12, Type (0, 0), BuildingBlock: UVAHIK_clean_linker_0, # of connection points: 2
#     Edge 13, Type (0, 0), BuildingBlock: UVAHIK_clean_linker_0, # of connection points: 2
#     Edge 14, Type (0, 0), BuildingBlock: UVAHIK_clean_linker_0, # of connection points: 2
#     Edge 15, Type (0, 0), BuildingBlock: UVAHIK_clean_linker_0, # of connection points: 2
#     Edge 16, Type (0, 0), BuildingBlock: UVAHIK_clean_linker_0, # of connection points: 2
#     Edge 17, Type (0, 0), BuildingBlock: UVAHIK_clean_linker_0, # of connection points: 2
#     Edge 18, Type (0, 0), BuildingBlock: UVAHIK_clean_linker_0, # of connection points: 2
#     Edge 19, Type (0, 0), BuildingBlock: UVAHIK_clean_linker_0, # of connection points: 2
# Relax obj value: 0.001
# Max RMSD: 0.085
# Mean RMSD: 0.075
data_MOF--net-srs--node1-OLANEW_clean_sbu_2--edge1-UVAHIK_clean_linker_0
_symmetry_space_group_name_H-M    P1
_symmetry_Int_Tables_number       1
_symmetry_cell_setting            triclinic
loop_
_symmetry_equiv_pos_as_xyz
'x, y, z'
_cell_length_a     44.518844
_cell_length_b     66.774116
_cell_length_c     57.268264
_cell_angle_alpha  100.33075
_cell_angle_beta   89.558285
_cell_angle_gamma 102.60526
loop_
_atom_site_label
_atom_site_type_symbol
_atom_site_fract_x
_atom_site_fract_y
_atom_site_fract_z
_atom_type_partial_charge
O0 O 0.14824 0.0987 0.12873 0.0
Cd1 Cd 0.11243 0.11073 0.15761 0.0
O2 O 0.18804 0.12127 0.14739 0.0
Cd3 Cd 0.15952 0.13913 0.16979 0.0
O4 O 0.13672 0.1653 0.17781 0.0
C5 C 0.11337 0.16512 0.16507 0.0
O6 O 0.10271 0.14867 0.14865 0.0
C7 C 0.17718 0.10595 0.13088 0.0
C8 C 0.1054 0.08774 0.19411 0.0
O9 O 0.08662 0.08258 0.17608 0.0
O10 O 0.12732 0.10391 0.19497 0.0
O11 O 0.11065 0.92177 0.41851 0.0
Cd12 Cd 0.06409 0.93007 0.40418 0.0
O13 O 0.08505 0.88933 0.41069 0.0
Cd14 Cd 0.0767 0.85538 0.4069 0.0
O15 O 0.0562 0.822 0.39955 0.0
C16 C 0.03777 0.81407 0.41418 0.0
O17 O 0.03254 0.82609 0.43391 0.0
C18 C 0.10954 0.9026 0.41851 0.0
C19 C 0.07527 0.95673 0.37134 0.0
O20 O 0.07371 0.96393 0.39352 0.0
O21 O 0.07187 0.93696 0.36478 0.0
O22 O 0.39907 0.88794 0.66001 0.0
Cd23 Cd 0.4043 0.86174 0.62542 0.0
O24 O 0.35026 0.88553 0.6512 0.0
Cd25 Cd 0.34828 0.86471 0.61695 0.0
O26 O 0.32797 0.85682 0.58103 0.0
C27 C 0.33873 0.86829 0.5661 0.0
O28 O 0.36346 0.88319 0.57215 0.0
C29 C 0.37373 0.89329 0.66501 0.0
C30 C 0.43461 0.83254 0.63776 0.0
O31 O 0.4496 0.84904 0.6309 0.0
O32 O 0.40525 0.82982 0.63867 0.0
O33 O 0.37401 0.13554 0.86282 0.0
Cd34 Cd 0.34655 0.10436 0.87728 0.0
O35 O 0.41949 0.13335 0.8756 0.0
Cd36 Cd 0.3993 0.10902 0.89546 0.0
O37 O 0.37222 0.0938 0.92187 0.0
C38 C 0.38183 0.09909 0.9434 0.0
O39 O 0.40829 0.11251 0.94853 0.0
C40 C 0.4031 0.14222 0.86449 0.0
C41 C 0.35064 0.0678 0.84614 0.0
O42 O 0.32811 0.07661 0.84438 0.0
O43 O 0.37111 0.07621 0.86264 0.0
O44 O 0.61828 0.41772 0.91961 0.0
Cd45 Cd 0.57 0.41253 0.89696 0.0
O46 O 0.64111 0.40092 0.8907 0.0
Cd47 Cd 0.59878 0.38773 0.86922 0.0
O48 O 0.56463 0.35945 0.85475 0.0
C49 C 0.57546 0.34316 0.84958 0.0
O50 O 0.6053 0.345 0.85215 0.0
C51 C 0.64218 0.4118 0.91143 0.0
C52 C 0.57415 0.4424 0.86799 0.0
O53 O 0.56742 0.44641 0.88988 0.0
O54 O 0.57866 0.42419 0.85969 0.0
O55 O 0.02324 0.41738 0.13992 0.0
Cd56 Cd 0.05916 0.39866 0.11823 0.0
O57 O 0.99818 0.41451 0.10629 0.0
Cd58 Cd 0.96018 0.41736 0.08399 0.0
O59 O 0.92283 0.41864 0.06021 0.0
C60 C 0.90101 0.42732 0.06773 0.0
O61 O 0.90106 0.43578 0.0903 0.0
C62 C 0.00118 0.42103 0.12861 0.0
C63 C 0.05792 0.36056 0.13208 0.0
O64 O 0.07641 0.3773 0.14235 0.0
O65 O 0.03988 0.3619 0.11536 0.0
O66 O 0.82967 0.6131 0.3058 0.0
Cd67 Cd 0.79131 0.58231 0.28748 0.0
O68 O 0.82158 0.60298 0.34005 0.0
Cd69 Cd 0.82838 0.60441 0.37816 0.0
O70 O 0.82243 0.60603 0.41627 0.0
C71 C 0.79682 0.60942 0.42391 0.0
O72 O 0.77647 0.61185 0.40874 0.0
C73 C 0.83554 0.61623 0.32799 0.0
C74 C 0.81936 0.55277 0.26079 0.0
O75 O 0.81096 0.56677 0.25135 0.0
O76 O 0.81425 0.55267 0.28283 0.0
O77 O 0.66476 0.6234 0.66291 0.0
Cd78 Cd 0.62729 0.63051 0.69297 0.0
O79 O 0.69295 0.65542 0.6688 0.0
Cd80 Cd 0.66033 0.66769 0.69281 0.0
O81 O 0.62528 0.68625 0.69736 0.0
C82 C 0.60683 0.68336 0.67964 0.0
O83 O 0.60913 0.66898 0.66118 0.0
C84 C 0.68817 0.63656 0.65808 0.0
C85 C 0.61652 0.60028 0.72176 0.0
O86 O 0.60222 0.59723 0.70166 0.0
O87 O 0.63582 0.61768 0.72835 0.0
C88 C 0.07776 0.99165 0.36022 0.0
C89 C 0.08015 0.97076 0.35374 0.0
C90 C 0.08107 0.00465 0.34333 0.0
C91 C 0.0779 0.00256 0.27819 0.0
H92 H 0.11691 0.06128 0.29534 0.0
C93 C 0.0756 0.05953 0.21402 0.0
C94 C 0.1022 0.07515 0.21313 0.0
C95 C 0.07289 0.04727 0.23163 0.0
C96 C 0.10621 0.04488 0.29016 0.0
H97 H 0.08873 0.94726 0.32462 0.0
H98 H 0.09542 0.97005 0.29534 0.0
H99 H 0.11383 0.0389 0.32484 0.0
H100 H 0.14683 0.09021 0.23001 0.0
H101 H 0.14252 0.06847 0.2603 0.0
H102 H 0.07131 0.00833 0.24329 0.0
C103 C 0.09014 0.9763 0.3133 0.0
C104 C 0.10406 0.03208 0.3072 0.0
C105 C 0.08652 0.96325 0.33014 0.0
C106 C 0.12596 0.07836 0.2303 0.0
C107 C 0.1234 0.06595 0.24776 0.0
C108 C 0.08029 0.01531 0.26111 0.0
C109 C 0.08715 0.99711 0.31961 0.0
C110 C 0.08982 0.01075 0.30145 0.0
C111 C 0.09687 0.05019 0.2486 0.0
C112 C 0.09439 0.03665 0.26687 0.0
H113 H 0.07272 0.99788 0.37826 0.0
H114 H 0.07818 0.02049 0.34879 0.0
H115 H 0.06637 0.9863 0.27317 0.0
H116 H 0.05678 0.05678 0.20114 0.0
H117 H 0.05188 0.03557 0.23198 0.0
C118 C 0.13185 0.87898 0.43935 0.0
C119 C 0.13617 0.89618 0.42776 0.0
C120 C 0.15694 0.8739 0.44959 0.0
C121 C 0.23479 0.8984 0.47455 0.0
H122 H 0.2397 0.84139 0.47619 0.0
C123 C 0.33095 0.88151 0.52885 0.0
C124 C 0.32074 0.86729 0.54411 0.0
C125 C 0.31175 0.88296 0.51032 0.0
C126 C 0.23862 0.85739 0.47589 0.0
H127 H 0.17011 0.92138 0.41749 0.0
H128 H 0.21403 0.91242 0.43515 0.0
H129 H 0.19949 0.84806 0.45174 0.0
H130 H 0.2832 0.84241 0.55084 0.0
H131 H 0.24964 0.8451 0.51873 0.0
H132 H 0.27326 0.90778 0.49914 0.0
C133 C 0.19123 0.90293 0.4365 0.0
C134 C 0.21558 0.86121 0.46193 0.0
C135 C 0.16612 0.90804 0.42633 0.0
C136 C 0.29173 0.85361 0.53947 0.0
C137 C 0.27252 0.85507 0.52096 0.0
C138 C 0.2578 0.89458 0.48846 0.0
C139 C 0.18689 0.88598 0.44855 0.0
C140 C 0.21307 0.88177 0.46143 0.0
C141 C 0.28193 0.87022 0.50665 0.0
C142 C 0.25968 0.87404 0.48963 0.0
H143 H 0.10897 0.87002 0.44153 0.0
H144 H 0.15267 0.86104 0.45919 0.0
H145 H 0.23327 0.91442 0.47491 0.0
H146 H 0.35329 0.89214 0.53177 0.0
H147 H 0.31989 0.89452 0.49931 0.0
C148 C 0.34418 0.91625 0.69047 0.0
C149 C 0.37161 0.9092 0.68625 0.0
C150 C 0.34242 0.93209 0.70962 0.0
C151 C 0.39131 0.97611 0.75013 0.0
H152 H 0.31561 0.97593 0.78416 0.0
C153 C 0.37975 0.0405 0.82983 0.0
C154 C 0.35316 0.0486 0.82947 0.0
C155 C 0.38244 0.02262 0.81376 0.0
C156 C 0.33684 0.97624 0.77473 0.0
H157 H 0.41849 0.91293 0.69928 0.0
H158 H 0.41524 0.94042 0.73303 0.0
H159 H 0.31974 0.94583 0.75415 0.0
H160 H 0.30841 0.04413 0.81217 0.0
H161 H 0.31311 0.01288 0.78417 0.0
H162 H 0.40833 0.00657 0.77075 0.0
C163 C 0.39525 0.9339 0.72123 0.0
C164 C 0.33922 0.95901 0.75751 0.0
C165 C 0.39706 0.91806 0.70197 0.0
C166 C 0.32919 0.03829 0.8129 0.0
C167 C 0.33179 0.02032 0.79696 0.0
C168 C 0.38899 0.99329 0.76747 0.0
C169 C 0.36798 0.94124 0.72514 0.0
C170 C 0.36632 0.95885 0.74475 0.0
C171 C 0.35851 0.01236 0.79714 0.0
C172 C 0.36158 0.99364 0.77971 0.0
H173 H 0.32414 0.90985 0.67869 0.0
H174 H 0.32121 0.93756 0.71183 0.0
H175 H 0.41236 0.97666 0.74043 0.0
H176 H 0.39863 0.04806 0.84239 0.0
H177 H 0.40318 0.01673 0.81445 0.0
C178 C 0.18607 0.08321 0.09271 0.0
C179 C 0.19802 0.09776 0.11319 0.0
C180 C 0.20555 0.07752 0.07464 0.0
C181 C 0.28757 0.07982 0.06002 0.0
H182 H 0.26043 0.08465 0.99751 0.0
C183 C 0.37122 0.10015 0.98651 0.0
C184 C 0.36195 0.09227 0.96262 0.0
C185 C 0.3511 0.09578 0.00468 0.0
C186 C 0.2682 0.08277 0.01469 0.0
H187 H 0.24003 0.11681 0.13132 0.0
H188 H 0.27384 0.10698 0.09982 0.0
H189 H 0.22512 0.08573 0.03004 0.0
H190 H 0.32492 0.07258 0.93914 0.0
H191 H 0.28994 0.06474 0.97092 0.0
H192 H 0.33101 0.07747 0.04475 0.0
C193 C 0.24948 0.09987 0.09774 0.0
C194 C 0.24791 0.0834 0.03339 0.0
C195 C 0.23003 0.10563 0.11574 0.0
C196 C 0.33268 0.07905 0.95736 0.0
C197 C 0.31257 0.07464 0.97556 0.0
C198 C 0.30787 0.07912 0.04129 0.0
C199 C 0.23738 0.08616 0.07673 0.0
C200 C 0.25759 0.08246 0.05639 0.0
C201 C 0.32128 0.08337 0.99941 0.0
C202 C 0.29866 0.08112 0.01854 0.0
H203 H 0.16155 0.07676 0.09023 0.0
H204 H 0.1956 0.06671 0.05879 0.0
H205 H 0.29556 0.07875 0.07748 0.0
H206 H 0.39362 0.11035 0.9912 0.0
H207 H 0.35849 0.10297 0.0228 0.0
C208 C 0.03774 0.32193 0.12738 0.0
C209 C 0.05804 0.34019 0.13883 0.0
C210 C 0.03909 0.30253 0.13274 0.0
C211 C 0.06975 0.27697 0.17687 0.0
H212 H 0.06761 0.23232 0.12289 0.0
C213 C 0.11576 0.20302 0.18081 0.0
C214 C 0.10089 0.18411 0.16651 0.0
C215 C 0.10628 0.22149 0.17979 0.0
C216 C 0.06769 0.24446 0.13823 0.0
H217 H 0.09511 0.35247 0.16537 0.0
H218 H 0.09773 0.3186 0.17447 0.0
H219 H 0.0589 0.26567 0.11664 0.0
H220 H 0.06315 0.16953 0.14107 0.0
H221 H 0.04638 0.20165 0.13957 0.0
H222 H 0.07921 0.25577 0.19839 0.0
C223 C 0.08051 0.31928 0.16156 0.0
C224 C 0.06272 0.26362 0.13464 0.0
C225 C 0.07915 0.33869 0.15622 0.0
C226 C 0.07533 0.18387 0.15213 0.0
C227 C 0.06581 0.2023 0.15116 0.0
C228 C 0.07473 0.25775 0.18048 0.0
C229 C 0.06079 0.30094 0.14963 0.0
C230 C 0.06401 0.28018 0.15386 0.0
C231 C 0.08167 0.22142 0.1645 0.0
C232 C 0.07408 0.24135 0.16116 0.0
H233 H 0.02105 0.32256 0.11402 0.0
H234 H 0.02326 0.28873 0.12349 0.0
H235 H 0.07049 0.28933 0.1921 0.0
H236 H 0.13551 0.20375 0.19211 0.0
H237 H 0.11916 0.23595 0.19017 0.0
C238 C 0.3998 0.17433 0.84856 0.0
C239 C 0.41771 0.16111 0.85499 0.0
C240 C 0.4139 0.19333 0.8421 0.0
C241 C 0.48693 0.22305 0.82281 0.0
H242 H 0.46217 0.2714 0.85888 0.0
C243 C 0.56722 0.30431 0.84039 0.0
C244 C 0.55487 0.32221 0.84319 0.0
C245 C 0.54794 0.28444 0.83676 0.0
C246 C 0.469 0.25813 0.84821 0.0
H247 H 0.46435 0.15697 0.85851 0.0
H248 H 0.48887 0.18999 0.84705 0.0
H249 H 0.43274 0.23656 0.86119 0.0
H250 H 0.51253 0.33324 0.84316 0.0
H251 H 0.47875 0.29846 0.83636 0.0
H252 H 0.52346 0.24455 0.81008 0.0
C253 C 0.46396 0.18569 0.84704 0.0
C254 C 0.45213 0.23813 0.84959 0.0
C255 C 0.44991 0.16683 0.85375 0.0
C256 C 0.52276 0.31976 0.84124 0.0
C257 C 0.50341 0.29982 0.83748 0.0
C258 C 0.50365 0.24305 0.82124 0.0
C259 C 0.44614 0.19933 0.84164 0.0
C260 C 0.46142 0.22039 0.83742 0.0
C261 C 0.51575 0.28193 0.83567 0.0
C262 C 0.49542 0.26083 0.83447 0.0
H263 H 0.37493 0.17037 0.84931 0.0
H264 H 0.39962 0.20349 0.83786 0.0
H265 H 0.49434 0.20963 0.81297 0.0
H266 H 0.59185 0.3056 0.84178 0.0
H267 H 0.55833 0.27111 0.83583 0.0
C268 C 0.9986 0.78372 0.42366 0.0
C269 C 0.02046 0.79211 0.40816 0.0
C270 C 0.98049 0.76355 0.41714 0.0
C271 C 0.97424 0.71373 0.37472 0.0
H272 H 0.88686 0.70701 0.3858 0.0
C273 C 0.88328 0.64356 0.32632 0.0
C274 C 0.85831 0.63502 0.33925 0.0
C275 C 0.90437 0.66175 0.33645 0.0
C276 C 0.91125 0.7085 0.3829 0.0
H277 H 0.04112 0.78563 0.37397 0.0
H278 H 0.00936 0.75056 0.36255 0.0
H279 H 0.92177 0.74034 0.40068 0.0
H280 H 0.83506 0.6394 0.37256 0.0
H281 H 0.87237 0.67078 0.39056 0.0
H282 H 0.96358 0.68195 0.3566 0.0
C283 C 0.00639 0.75948 0.37983 0.0
C284 C 0.93129 0.72762 0.39144 0.0
C285 C 0.02449 0.77965 0.38633 0.0
C286 C 0.85469 0.64512 0.36248 0.0
C287 C 0.87578 0.66334 0.37262 0.0
C288 C 0.95419 0.69459 0.36618 0.0
C289 C 0.98385 0.75132 0.395 0.0
C290 C 0.96297 0.73054 0.38724 0.0
C291 C 0.9008 0.67191 0.35968 0.0
C292 C 0.92241 0.69182 0.36996 0.0
H293 H 0.99503 0.79286 0.44066 0.0
H294 H 0.96365 0.7576 0.42939 0.0
H295 H 0.99859 0.71538 0.3715 0.0
H296 H 0.88648 0.63618 0.3083 0.0
H297 H 0.92307 0.66812 0.32584 0.0
C298 C 0.58444 0.71391 0.69732 0.0
C299 C 0.58521 0.69721 0.67865 0.0
C300 C 0.56591 0.728 0.69531 0.0
C301 C 0.50044 0.73528 0.6603 0.0
H302 H 0.53734 0.79413 0.68002 0.0
C303 C 0.43424 0.79941 0.65269 0.0
C304 C 0.45074 0.81709 0.6444 0.0
C305 C 0.44947 0.78476 0.65879 0.0
C306 C 0.52675 0.77776 0.67433 0.0
H307 H 0.56638 0.68186 0.64353 0.0
H308 H 0.53448 0.70647 0.63993 0.0
H309 H 0.56534 0.76817 0.68722 0.0
H310 H 0.4962 0.83327 0.63607 0.0
H311 H 0.52266 0.80759 0.64636 0.0
H312 H 0.46235 0.74488 0.64662 0.0
C313 C 0.54787 0.7086 0.65625 0.0
C314 C 0.54263 0.76286 0.67875 0.0
C315 C 0.56634 0.69454 0.65827 0.0
C316 C 0.48281 0.81985 0.64246 0.0
C317 C 0.49802 0.80519 0.64852 0.0
C318 C 0.48457 0.75018 0.65587 0.0
C319 C 0.54774 0.72567 0.67459 0.0
C320 C 0.52982 0.74144 0.67153 0.0
C321 C 0.48153 0.78744 0.65672 0.0
C322 C 0.4977 0.77161 0.66258 0.0
H323 H 0.59862 0.71636 0.71331 0.0
H324 H 0.56601 0.74081 0.7099 0.0
H325 H 0.48976 0.71891 0.65476 0.0
H326 H 0.40952 0.79687 0.65449 0.0
H327 H 0.43612 0.7714 0.66532 0.0
C328 C 0.61976 0.58923 0.76105 0.0
C329 C 0.61109 0.58408 0.7368 0.0
C330 C 0.61467 0.57387 0.77522 0.0
C331 C 0.60735 0.51835 0.77293 0.0
H332 H 0.56454 0.52628 0.83193 0.0
C333 C 0.57612 0.45276 0.828 0.0
C334 C 0.57707 0.45844 0.85285 0.0
C335 C 0.57921 0.46796 0.81371 0.0
C336 C 0.57699 0.5239 0.81572 0.0
H337 H 0.59055 0.55882 0.70832 0.0
H338 H 0.5824 0.53189 0.73302 0.0
H339 H 0.57272 0.55328 0.80753 0.0
H340 H 0.58235 0.4845 0.88226 0.0
H341 H 0.58907 0.51108 0.85749 0.0
H342 H 0.61279 0.48942 0.78131 0.0
C343 C 0.59285 0.54785 0.74103 0.0
C344 C 0.58149 0.53935 0.8017 0.0
C345 C 0.5974 0.56326 0.72696 0.0
C346 C 0.58126 0.47963 0.86314 0.0
C347 C 0.58491 0.49487 0.84888 0.0
C348 C 0.60336 0.50305 0.78713 0.0
C349 C 0.60137 0.55303 0.76529 0.0
C350 C 0.59662 0.53668 0.78016 0.0
C351 C 0.5839 0.48927 0.82394 0.0
C352 C 0.58804 0.50557 0.80872 0.0
H353 H 0.6303 0.60515 0.76913 0.0
H354 H 0.62159 0.57821 0.79386 0.0
H355 H 0.61939 0.51603 0.75649 0.0
H356 H 0.57267 0.43652 0.81956 0.0
H357 H 0.57764 0.46293 0.79462 0.0
C358 C 0.87569 0.41849 0.02716 0.0
C359 C 0.87556 0.42748 0.05131 0.0
C360 C 0.85139 0.41816 0.01172 0.0
C361 C 0.78601 0.44281 0.00472 0.0
H362 H 0.75533 0.39197 0.95924 0.0
C363 C 0.67143 0.42693 0.95017 0.0
C364 C 0.67063 0.4164 0.92652 0.0
C365 C 0.6974 0.42967 0.96498 0.0
C366 C 0.76387 0.40639 0.9716 0.0
H367 H 0.84988 0.4434 0.0781 0.0
H368 H 0.80727 0.44261 0.05115 0.0
H369 H 0.79852 0.39395 0.98598 0.0
H370 H 0.69704 0.40121 0.89965 0.0
H371 H 0.74236 0.4062 0.92537 0.0
H372 H 0.75108 0.45515 0.99039 0.0
C373 C 0.82637 0.43602 0.04412 0.0
C374 C 0.78864 0.40753 0.98695 0.0
C375 C 0.85072 0.43636 0.05959 0.0
C376 C 0.69677 0.40928 0.91781 0.0
C377 C 0.7227 0.41201 0.9326 0.0
C378 C 0.76118 0.44167 0.98935 0.0
C379 C 0.82633 0.42678 0.02003 0.0
C380 C 0.80003 0.42574 0.00369 0.0
C381 C 0.72314 0.42193 0.95646 0.0
C382 C 0.74985 0.42344 0.97259 0.0
H383 H 0.89454 0.41161 0.02015 0.0
H384 H 0.85231 0.41121 0.9932 0.0
H385 H 0.79447 0.45716 0.01722 0.0
H386 H 0.6517 0.43261 0.95747 0.0
H387 H 0.6969 0.43724 0.98331 0.0
C388 C 0.96655 0.44621 0.13079 0.0
C389 C 0.97949 0.43257 0.14148 0.0
C390 C 0.94708 0.45776 0.14346 0.0
C391 C 0.92899 0.47849 0.2047 0.0
H392 H 0.85658 0.48771 0.17477 0.0
C393 C 0.84502 0.52257 0.2575 0.0
C394 C 0.83504 0.53743 0.24678 0.0
C395 C 0.86087 0.5086 0.24451 0.0
C396 C 0.87686 0.4854 0.18331 0.0
H397 H 0.98245 0.42036 0.17377 0.0
H398 H 0.94825 0.44038 0.19587 0.0
H399 H 0.88743 0.4653 0.15229 0.0
H400 H 0.83343 0.54907 0.21389 0.0
H401 H 0.86131 0.5248 0.19128 0.0
H402 H 0.91862 0.4987 0.23563 0.0
C403 C 0.95323 0.44227 0.17775 0.0
C404 C 0.89453 0.47257 0.17045 0.0
C405 C 0.97271 0.43074 0.16509 0.0
C406 C 0.84079 0.5378 0.22267 0.0
C407 C 0.85661 0.5238 0.20967 0.0
C408 C 0.91132 0.49128 0.21756 0.0
C409 C 0.94035 0.45602 0.16714 0.0
C410 C 0.92089 0.46905 0.18097 0.0
C411 C 0.86706 0.50917 0.22049 0.0
C412 C 0.88514 0.49497 0.20699 0.0
H413 H 0.97234 0.44859 0.11297 0.0
H414 H 0.93809 0.46854 0.13492 0.0
H415 H 0.94945 0.47641 0.21322 0.0
H416 H 0.84084 0.52182 0.27601 0.0
H417 H 0.86826 0.49733 0.25327 0.0
C418 C 0.81107 0.60788 0.46586 0.0
C419 C 0.78954 0.61027 0.44929 0.0
C420 C 0.80372 0.60847 0.48976 0.0
C421 C 0.73688 0.60199 0.52854 0.0
H422 H 0.79464 0.63479 0.57861 0.0
C423 C 0.72997 0.6458 0.62979 0.0
C424 C 0.70764 0.63053 0.63809 0.0
C425 C 0.74448 0.64087 0.60847 0.0
C426 C 0.77829 0.62552 0.56483 0.0
H427 H 0.74356 0.61533 0.44489 0.0
H428 H 0.73092 0.6165 0.48639 0.0
H429 H 0.81022 0.63128 0.53731 0.0
H430 H 0.685 0.5977 0.63151 0.0
H431 H 0.71069 0.58906 0.59453 0.0
H432 H 0.70448 0.59696 0.5557 0.0
C433 C 0.75329 0.61386 0.48092 0.0
C434 C 0.78731 0.62336 0.5412 0.0
C435 C 0.76064 0.61334 0.45713 0.0
C436 C 0.70181 0.6099 0.62549 0.0
C437 C 0.71642 0.60496 0.60421 0.0
C438 C 0.72789 0.60412 0.55208 0.0
C439 C 0.77465 0.61134 0.4975 0.0
C440 C 0.76643 0.61196 0.52276 0.0
C441 C 0.73708 0.62055 0.59502 0.0
C442 C 0.74826 0.61624 0.57048 0.0
H443 H 0.83356 0.60549 0.46037 0.0
H444 H 0.8206 0.60638 0.5021 0.0
H445 H 0.72041 0.59283 0.51477 0.0
H446 H 0.7351 0.66184 0.63908 0.0
H447 H 0.76011 0.6533 0.60187 0.0
loop_
_geom_bond_atom_site_label_1
_geom_bond_atom_site_label_2
_geom_bond_distance
_geom_bond_site_symmetry_2
_ccdc_geom_bond_type
O0 Cd1 2.300 . S
O0 C7 1.275 . S
Cd1 O0 2.300 . S
Cd1 O9 2.381 . S
Cd1 O10 2.378 . S
O2 Cd3 2.385 . S
O2 C7 1.255 . S
Cd3 O2 2.385 . S
Cd3 O4 2.317 . S
O4 Cd3 2.317 . S
O4 C5 1.232 . S
C5 O4 1.232 . S
C5 O6 1.218 . S
O6 C5 1.218 . S
C7 O0 1.275 . S
C7 O2 1.255 . S
C8 O9 1.258 . S
C8 O10 1.256 . S
O9 Cd1 2.381 . S
O9 C8 1.258 . S
O10 Cd1 2.378 . S
O10 C8 1.256 . S
O11 Cd12 2.300 . S
O11 C18 1.275 . S
Cd12 O11 2.300 . S
Cd12 O20 2.381 . S
Cd12 O21 2.378 . S
O13 Cd14 2.385 . S
O13 C18 1.255 . S
Cd14 O13 2.385 . S
Cd14 O15 2.317 . S
O15 Cd14 2.317 . S
O15 C16 1.232 . S
C16 O15 1.232 . S
C16 O17 1.218 . S
O17 C16 1.218 . S
C18 O11 1.275 . S
C18 O13 1.255 . S
C19 O20 1.258 . S
C19 O21 1.256 . S
O20 Cd12 2.381 . S
O20 C19 1.258 . S
O21 Cd12 2.378 . S
O21 C19 1.256 . S
O22 Cd23 2.300 . S
O22 C29 1.275 . S
Cd23 O22 2.300 . S
Cd23 O31 2.381 . S
Cd23 O32 2.378 . S
O24 Cd25 2.385 . S
O24 C29 1.255 . S
Cd25 O24 2.385 . S
Cd25 O26 2.317 . S
O26 Cd25 2.317 . S
O26 C27 1.232 . S
C27 O26 1.232 . S
C27 O28 1.218 . S
O28 C27 1.218 . S
C29 O22 1.275 . S
C29 O24 1.255 . S
C30 O31 1.258 . S
C30 O32 1.256 . S
O31 Cd23 2.381 . S
O31 C30 1.258 . S
O32 Cd23 2.378 . S
O32 C30 1.256 . S
O33 Cd34 2.300 . S
O33 C40 1.275 . S
Cd34 O33 2.300 . S
Cd34 O42 2.381 . S
Cd34 O43 2.378 . S
O35 Cd36 2.385 . S
O35 C40 1.255 . S
Cd36 O35 2.385 . S
Cd36 O37 2.317 . S
O37 Cd36 2.317 . S
O37 C38 1.232 . S
C38 O37 1.232 . S
C38 O39 1.218 . S
O39 C38 1.218 . S
C40 O33 1.275 . S
C40 O35 1.255 . S
C41 O42 1.258 . S
C41 O43 1.256 . S
O42 Cd34 2.381 . S
O42 C41 1.258 . S
O43 Cd34 2.378 . S
O43 C41 1.256 . S
O44 Cd45 2.300 . S
O44 C51 1.275 . S
Cd45 O44 2.300 . S
Cd45 O53 2.381 . S
Cd45 O54 2.378 . S
O46 Cd47 2.385 . S
O46 C51 1.255 . S
Cd47 O46 2.385 . S
Cd47 O48 2.317 . S
O48 Cd47 2.317 . S
O48 C49 1.232 . S
C49 O48 1.232 . S
C49 O50 1.218 . S
O50 C49 1.218 . S
C51 O44 1.275 . S
C51 O46 1.255 . S
C52 O53 1.258 . S
C52 O54 1.256 . S
O53 Cd45 2.381 . S
O53 C52 1.258 . S
O54 Cd45 2.378 . S
O54 C52 1.256 . S
O55 Cd56 2.300 . S
O55 C62 1.275 . S
Cd56 O55 2.300 . S
Cd56 O64 2.381 . S
Cd56 O65 2.378 . S
O57 Cd58 2.385 . S
O57 C62 1.255 . S
Cd58 O57 2.385 . S
Cd58 O59 2.317 . S
O59 Cd58 2.317 . S
O59 C60 1.232 . S
C60 O59 1.232 . S
C60 O61 1.218 . S
O61 C60 1.218 . S
C62 O55 1.275 . S
C62 O57 1.255 . S
C63 O64 1.258 . S
C63 O65 1.256 . S
O64 Cd56 2.381 . S
O64 C63 1.258 . S
O65 Cd56 2.378 . S
O65 C63 1.256 . S
O66 Cd67 2.300 . S
O66 C73 1.275 . S
Cd67 O66 2.300 . S
Cd67 O75 2.381 . S
Cd67 O76 2.378 . S
O68 Cd69 2.385 . S
O68 C73 1.255 . S
Cd69 O68 2.385 . S
Cd69 O70 2.317 . S
O70 Cd69 2.317 . S
O70 C71 1.232 . S
C71 O70 1.232 . S
C71 O72 1.218 . S
O72 C71 1.218 . S
C73 O66 1.275 . S
C73 O68 1.255 . S
C74 O75 1.258 . S
C74 O76 1.256 . S
O75 Cd67 2.381 . S
O75 C74 1.258 . S
O76 Cd67 2.378 . S
O76 C74 1.256 . S
O77 Cd78 2.300 . S
O77 C84 1.275 . S
Cd78 O77 2.300 . S
Cd78 O86 2.381 . S
Cd78 O87 2.378 . S
O79 Cd80 2.385 . S
O79 C84 1.255 . S
Cd80 O79 2.385 . S
Cd80 O81 2.317 . S
O81 Cd80 2.317 . S
O81 C82 1.232 . S
C82 O81 1.232 . S
C82 O83 1.218 . S
O83 C82 1.218 . S
C84 O77 1.275 . S
C84 O79 1.255 . S
C85 O86 1.258 . S
C85 O87 1.256 . S
O86 Cd78 2.381 . S
O86 C85 1.258 . S
O87 Cd78 2.378 . S
O87 C85 1.256 . S
C88 C89 1.349 . S
C88 C90 1.327 . S
C88 H113 0.950 . S
C89 C88 1.349 . S
C89 C105 1.349 . S
C90 C88 1.327 . S
C90 C109 1.429 . S
C90 H114 0.950 1_565 S
C91 C108 1.574 1_565 S
C91 C110 1.368 1_565 S
C91 H115 0.949 . S
H92 C96 0.949 . S
C93 C94 1.349 . S
C93 C95 1.327 . S
C93 H116 0.950 . S
C94 C93 1.349 . S
C94 C106 1.349 . S
C95 C93 1.327 . S
C95 C111 1.429 . S
C95 H117 0.950 . S
C96 H92 0.949 . S
C96 C104 1.574 . S
C96 C112 1.368 . S
H97 C105 0.950 . S
H98 C103 0.950 . S
H99 C104 0.949 . S
H100 C106 0.950 . S
H101 C107 0.950 . S
H102 C108 0.949 . S
C103 H98 0.950 . S
C103 C105 1.327 . S
C103 C109 1.429 . S
C104 C96 1.574 . S
C104 H99 0.949 . S
C104 C110 1.368 . S
C105 C89 1.349 . S
C105 H97 0.950 . S
C105 C103 1.327 . S
C106 C94 1.349 . S
C106 H100 0.950 . S
C106 C107 1.327 . S
C107 H101 0.950 . S
C107 C106 1.327 . S
C107 C111 1.429 . S
C108 C91 1.574 1_545 S
C108 H102 0.949 . S
C108 C112 1.368 . S
C109 C90 1.429 . S
C109 C103 1.429 . S
C109 C110 1.523 1_565 S
C110 C91 1.368 1_545 S
C110 C104 1.368 . S
C110 C109 1.523 1_545 S
C111 C95 1.429 . S
C111 C107 1.429 . S
C111 C112 1.523 . S
C112 C96 1.368 . S
C112 C108 1.368 . S
C112 C111 1.523 . S
H113 C88 0.950 . S
H114 C90 0.950 1_545 S
H115 C91 0.949 . S
H116 C93 0.950 . S
H117 C95 0.950 . S
C118 C119 1.349 . S
C118 C120 1.327 . S
C118 H143 0.950 . S
C119 C118 1.349 . S
C119 C135 1.349 . S
C120 C118 1.327 . S
C120 C139 1.429 . S
C120 H144 0.950 . S
C121 C138 1.574 . S
C121 C140 1.368 . S
C121 H145 0.949 . S
H122 C126 0.949 . S
C123 C124 1.349 . S
C123 C125 1.327 . S
C123 H146 0.950 . S
C124 C123 1.349 . S
C124 C136 1.349 . S
C125 C123 1.327 . S
C125 C141 1.429 . S
C125 H147 0.950 . S
C126 H122 0.949 . S
C126 C134 1.574 . S
C126 C142 1.368 . S
H127 C135 0.950 . S
H128 C133 0.950 . S
H129 C134 0.949 . S
H130 C136 0.950 . S
H131 C137 0.950 . S
H132 C138 0.949 . S
C133 H128 0.950 . S
C133 C135 1.327 . S
C133 C139 1.429 . S
C134 C126 1.574 . S
C134 H129 0.949 . S
C134 C140 1.368 . S
C135 C119 1.349 . S
C135 H127 0.950 . S
C135 C133 1.327 . S
C136 C124 1.349 . S
C136 H130 0.950 . S
C136 C137 1.327 . S
C137 H131 0.950 . S
C137 C136 1.327 . S
C137 C141 1.429 . S
C138 C121 1.574 . S
C138 H132 0.949 . S
C138 C142 1.368 . S
C139 C120 1.429 . S
C139 C133 1.429 . S
C139 C140 1.523 . S
C140 C121 1.368 . S
C140 C134 1.368 . S
C140 C139 1.523 . S
C141 C125 1.429 . S
C141 C137 1.429 . S
C141 C142 1.523 . S
C142 C126 1.368 . S
C142 C138 1.368 . S
C142 C141 1.523 . S
H143 C118 0.950 . S
H144 C120 0.950 . S
H145 C121 0.949 . S
H146 C123 0.950 . S
H147 C125 0.950 . S
C148 C149 1.349 . S
C148 C150 1.327 . S
C148 H173 0.950 . S
C149 C148 1.349 . S
C149 C165 1.349 . S
C150 C148 1.327 . S
C150 C169 1.429 . S
C150 H174 0.950 . S
C151 C168 1.574 . S
C151 C170 1.368 . S
C151 H175 0.949 . S
H152 C156 0.949 . S
C153 C154 1.349 . S
C153 C155 1.327 . S
C153 H176 0.950 . S
C154 C153 1.349 . S
C154 C166 1.349 . S
C155 C153 1.327 . S
C155 C171 1.429 . S
C155 H177 0.950 . S
C156 H152 0.949 . S
C156 C164 1.574 . S
C156 C172 1.368 . S
H157 C165 0.950 . S
H158 C163 0.950 . S
H159 C164 0.949 . S
H160 C166 0.950 . S
H161 C167 0.950 . S
H162 C168 0.949 . S
C163 H158 0.950 . S
C163 C165 1.327 . S
C163 C169 1.429 . S
C164 C156 1.574 . S
C164 H159 0.949 . S
C164 C170 1.368 . S
C165 C149 1.349 . S
C165 H157 0.950 . S
C165 C163 1.327 . S
C166 C154 1.349 . S
C166 H160 0.950 . S
C166 C167 1.327 . S
C167 H161 0.950 . S
C167 C166 1.327 . S
C167 C171 1.429 . S
C168 C151 1.574 . S
C168 H162 0.949 . S
C168 C172 1.368 . S
C169 C150 1.429 . S
C169 C163 1.429 . S
C169 C170 1.523 . S
C170 C151 1.368 . S
C170 C164 1.368 . S
C170 C169 1.523 . S
C171 C155 1.429 . S
C171 C167 1.429 . S
C171 C172 1.523 1_545 S
C172 C156 1.368 . S
C172 C168 1.368 . S
C172 C171 1.523 1_565 S
H173 C148 0.950 . S
H174 C150 0.950 . S
H175 C151 0.949 . S
H176 C153 0.950 . S
H177 C155 0.950 . S
C178 C179 1.349 . S
C178 C180 1.327 . S
C178 H203 0.950 . S
C179 C178 1.349 . S
C179 C195 1.349 . S
C180 C178 1.327 . S
C180 C199 1.429 . S
C180 H204 0.950 . S
C181 C198 1.574 . S
C181 C200 1.368 . S
C181 H205 0.949 . S
H182 C186 0.949 . S
C183 C184 1.349 . S
C183 C185 1.327 . S
C183 H206 0.950 . S
C184 C183 1.349 . S
C184 C196 1.349 . S
C185 C183 1.327 . S
C185 C201 1.429 . S
C185 H207 0.950 . S
C186 H182 0.949 . S
C186 C194 1.574 . S
C186 C202 1.368 . S
H187 C195 0.950 . S
H188 C193 0.950 . S
H189 C194 0.949 . S
H190 C196 0.950 . S
H191 C197 0.950 . S
H192 C198 0.949 . S
C193 H188 0.950 . S
C193 C195 1.327 . S
C193 C199 1.429 . S
C194 C186 1.574 . S
C194 H189 0.949 . S
C194 C200 1.368 . S
C195 C179 1.349 . S
C195 H187 0.950 . S
C195 C193 1.327 . S
C196 C184 1.349 . S
C196 H190 0.950 . S
C196 C197 1.327 . S
C197 H191 0.950 . S
C197 C196 1.327 . S
C197 C201 1.429 . S
C198 C181 1.574 . S
C198 H192 0.949 . S
C198 C202 1.368 . S
C199 C180 1.429 . S
C199 C193 1.429 . S
C199 C200 1.523 . S
C200 C181 1.368 . S
C200 C194 1.368 . S
C200 C199 1.523 . S
C201 C185 1.429 . S
C201 C197 1.429 . S
C201 C202 1.523 1_556 S
C202 C186 1.368 . S
C202 C198 1.368 . S
C202 C201 1.523 1_554 S
H203 C178 0.950 . S
H204 C180 0.950 . S
H205 C181 0.949 . S
H206 C183 0.950 . S
H207 C185 0.950 . S
C208 C209 1.349 . S
C208 C210 1.327 1_655 S
C208 H233 0.950 . S
C209 C208 1.349 . S
C209 C225 1.349 . S
C210 C208 1.327 1_455 S
C210 C229 1.429 . S
C210 H234 0.950 . S
C211 C228 1.574 . S
C211 C230 1.368 . S
C211 H235 0.949 . S
H212 C216 0.949 . S
C213 C214 1.349 . S
C213 C215 1.327 . S
C213 H236 0.950 . S
C214 C213 1.349 . S
C214 C226 1.349 . S
C215 C213 1.327 . S
C215 C231 1.429 . S
C215 H237 0.950 . S
C216 H212 0.949 . S
C216 C224 1.574 . S
C216 C232 1.368 . S
H217 C225 0.950 . S
H218 C223 0.950 . S
H219 C224 0.949 . S
H220 C226 0.950 . S
H221 C227 0.950 . S
H222 C228 0.949 . S
C223 H218 0.950 . S
C223 C225 1.327 1_455 S
C223 C229 1.429 . S
C224 C216 1.574 . S
C224 H219 0.949 . S
C224 C230 1.368 . S
C225 C209 1.349 . S
C225 H217 0.950 . S
C225 C223 1.327 1_655 S
C226 C214 1.349 . S
C226 H220 0.950 . S
C226 C227 1.327 . S
C227 H221 0.950 . S
C227 C226 1.327 . S
C227 C231 1.429 . S
C228 C211 1.574 . S
C228 H222 0.949 . S
C228 C232 1.368 . S
C229 C210 1.429 . S
C229 C223 1.429 . S
C229 C230 1.523 . S
C230 C211 1.368 . S
C230 C224 1.368 . S
C230 C229 1.523 . S
C231 C215 1.429 . S
C231 C227 1.429 . S
C231 C232 1.523 . S
C232 C216 1.368 . S
C232 C228 1.368 . S
C232 C231 1.523 . S
H233 C208 0.950 . S
H234 C210 0.950 . S
H235 C211 0.949 . S
H236 C213 0.950 . S
H237 C215 0.950 . S
C238 C239 1.349 . S
C238 C240 1.327 . S
C238 H263 0.950 . S
C239 C238 1.349 . S
C239 C255 1.349 . S
C240 C238 1.327 . S
C240 C259 1.429 . S
C240 H264 0.950 . S
C241 C258 1.574 . S
C241 C260 1.368 . S
C241 H265 0.949 . S
H242 C246 0.949 . S
C243 C244 1.349 . S
C243 C245 1.327 . S
C243 H266 0.950 . S
C244 C243 1.349 . S
C244 C256 1.349 . S
C245 C243 1.327 . S
C245 C261 1.429 . S
C245 H267 0.950 . S
C246 H242 0.949 . S
C246 C254 1.574 . S
C246 C262 1.368 . S
H247 C255 0.950 . S
H248 C253 0.950 . S
H249 C254 0.949 . S
H250 C256 0.950 . S
H251 C257 0.950 . S
H252 C258 0.949 . S
C253 H248 0.950 . S
C253 C255 1.327 . S
C253 C259 1.429 . S
C254 C246 1.574 . S
C254 H249 0.949 . S
C254 C260 1.368 . S
C255 C239 1.349 . S
C255 H247 0.950 . S
C255 C253 1.327 . S
C256 C244 1.349 . S
C256 H250 0.950 . S
C256 C257 1.327 . S
C257 H251 0.950 . S
C257 C256 1.327 . S
C257 C261 1.429 . S
C258 C241 1.574 . S
C258 H252 0.949 . S
C258 C262 1.368 . S
C259 C240 1.429 . S
C259 C253 1.429 . S
C259 C260 1.523 . S
C260 C241 1.368 . S
C260 C254 1.368 . S
C260 C259 1.523 . S
C261 C245 1.429 . S
C261 C257 1.429 . S
C261 C262 1.523 . S
C262 C246 1.368 . S
C262 C258 1.368 . S
C262 C261 1.523 . S
H263 C238 0.950 . S
H264 C240 0.950 . S
H265 C241 0.949 . S
H266 C243 0.950 . S
H267 C245 0.950 . S
C268 C269 1.369 . S
C268 C270 1.317 1_455 S
C268 H293 0.940 1_455 S
C269 C268 1.369 . S
C269 C285 1.349 . S
C270 C268 1.317 1_655 S
C270 C289 1.429 . S
C270 H294 0.950 . S
C271 C288 1.574 . S
C271 C290 1.368 . S
C271 H295 0.949 . S
H272 C276 0.949 . S
C273 C274 1.349 . S
C273 C275 1.327 . S
C273 H296 0.950 . S
C274 C273 1.349 . S
C274 C286 1.349 . S
C275 C273 1.327 . S
C275 C291 1.429 . S
C275 H297 0.950 . S
C276 H272 0.949 . S
C276 C284 1.574 . S
C276 C292 1.368 . S
H277 C285 0.950 . S
H278 C283 0.950 . S
H279 C284 0.949 . S
H280 C286 0.950 . S
H281 C287 0.950 . S
H282 C288 0.949 . S
C283 H278 0.950 . S
C283 C285 1.327 . S
C283 C289 1.429 1_455 S
C284 C276 1.574 . S
C284 H279 0.949 . S
C284 C290 1.368 . S
C285 C269 1.349 . S
C285 H277 0.950 . S
C285 C283 1.327 . S
C286 C274 1.349 . S
C286 H280 0.950 . S
C286 C287 1.327 . S
C287 H281 0.950 . S
C287 C286 1.327 . S
C287 C291 1.429 . S
C288 C271 1.574 . S
C288 H282 0.949 . S
C288 C292 1.368 . S
C289 C270 1.429 . S
C289 C283 1.429 1_655 S
C289 C290 1.523 . S
C290 C271 1.368 . S
C290 C284 1.368 . S
C290 C289 1.523 . S
C291 C275 1.429 . S
C291 C287 1.429 . S
C291 C292 1.523 . S
C292 C276 1.368 . S
C292 C288 1.368 . S
C292 C291 1.523 . S
H293 C268 0.940 1_655 S
H294 C270 0.950 . S
H295 C271 0.949 . S
H296 C273 0.950 . S
H297 C275 0.950 . S
C298 C299 1.349 . S
C298 C300 1.327 . S
C298 H323 0.950 . S
C299 C298 1.349 . S
C299 C315 1.349 . S
C300 C298 1.327 . S
C300 C319 1.429 . S
C300 H324 0.950 . S
C301 C318 1.574 . S
C301 C320 1.368 . S
C301 H325 0.949 . S
H302 C306 0.949 . S
C303 C304 1.349 . S
C303 C305 1.327 . S
C303 H326 0.950 . S
C304 C303 1.349 . S
C304 C316 1.349 . S
C305 C303 1.327 . S
C305 C321 1.429 . S
C305 H327 0.950 . S
C306 H302 0.949 . S
C306 C314 1.574 . S
C306 C322 1.368 . S
H307 C315 0.950 . S
H308 C313 0.950 . S
H309 C314 0.949 . S
H310 C316 0.950 . S
H311 C317 0.950 . S
H312 C318 0.949 . S
C313 H308 0.950 . S
C313 C315 1.327 . S
C313 C319 1.429 . S
C314 C306 1.574 . S
C314 H309 0.949 . S
C314 C320 1.368 . S
C315 C299 1.349 . S
C315 H307 0.950 . S
C315 C313 1.327 . S
C316 C304 1.349 . S
C316 H310 0.950 . S
C316 C317 1.327 . S
C317 H311 0.950 . S
C317 C316 1.327 . S
C317 C321 1.429 . S
C318 C301 1.574 . S
C318 H312 0.949 . S
C318 C322 1.368 . S
C319 C300 1.429 . S
C319 C313 1.429 . S
C319 C320 1.523 . S
C320 C301 1.368 . S
C320 C314 1.368 . S
C320 C319 1.523 . S
C321 C305 1.429 . S
C321 C317 1.429 . S
C321 C322 1.523 . S
C322 C306 1.368 . S
C322 C318 1.368 . S
C322 C321 1.523 . S
H323 C298 0.950 . S
H324 C300 0.950 . S
H325 C301 0.949 . S
H326 C303 0.950 . S
H327 C305 0.950 . S
C328 C329 1.349 . S
C328 C330 1.327 . S
C328 H353 0.950 . S
C329 C328 1.349 . S
C329 C345 1.349 . S
C330 C328 1.327 . S
C330 C349 1.429 . S
C330 H354 0.950 . S
C331 C348 1.574 . S
C331 C350 1.368 . S
C331 H355 0.949 . S
H332 C336 0.949 . S
C333 C334 1.349 . S
C333 C335 1.327 . S
C333 H356 0.950 . S
C334 C333 1.349 . S
C334 C346 1.349 . S
C335 C333 1.327 . S
C335 C351 1.429 . S
C335 H357 0.950 . S
C336 H332 0.949 . S
C336 C344 1.574 . S
C336 C352 1.368 . S
H337 C345 0.950 . S
H338 C343 0.950 . S
H339 C344 0.949 . S
H340 C346 0.950 . S
H341 C347 0.950 . S
H342 C348 0.949 . S
C343 H338 0.950 . S
C343 C345 1.327 . S
C343 C349 1.429 . S
C344 C336 1.574 . S
C344 H339 0.949 . S
C344 C350 1.368 . S
C345 C329 1.349 . S
C345 H337 0.950 . S
C345 C343 1.327 . S
C346 C334 1.349 . S
C346 H340 0.950 . S
C346 C347 1.327 . S
C347 H341 0.950 . S
C347 C346 1.327 . S
C347 C351 1.429 . S
C348 C331 1.574 . S
C348 H342 0.949 . S
C348 C352 1.368 . S
C349 C330 1.429 . S
C349 C343 1.429 . S
C349 C350 1.523 . S
C350 C331 1.368 . S
C350 C344 1.368 . S
C350 C349 1.523 . S
C351 C335 1.429 . S
C351 C347 1.429 . S
C351 C352 1.523 . S
C352 C336 1.368 . S
C352 C348 1.368 . S
C352 C351 1.523 . S
H353 C328 0.950 . S
H354 C330 0.950 . S
H355 C331 0.949 . S
H356 C333 0.950 . S
H357 C335 0.950 . S
C358 C359 1.349 . S
C358 C360 1.327 . S
C358 H383 0.950 . S
C359 C358 1.349 . S
C359 C375 1.349 . S
C360 C358 1.327 . S
C360 C379 1.429 . S
C360 H384 0.950 . S
C361 C378 1.574 . S
C361 C380 1.368 1_556 S
C361 H385 0.949 . S
H362 C366 0.949 . S
C363 C364 1.349 . S
C363 C365 1.327 . S
C363 H386 0.950 . S
C364 C363 1.349 . S
C364 C376 1.349 . S
C365 C363 1.327 . S
C365 C381 1.429 . S
C365 H387 0.950 . S
C366 H362 0.949 . S
C366 C374 1.574 1_556 S
C366 C382 1.368 . S
H367 C375 0.950 . S
H368 C373 0.950 . S
H369 C374 0.949 . S
H370 C376 0.950 . S
H371 C377 0.950 . S
H372 C378 0.949 . S
C373 H368 0.950 . S
C373 C375 1.327 . S
C373 C379 1.429 . S
C374 C366 1.574 1_554 S
C374 H369 0.949 . S
C374 C380 1.368 . S
C375 C359 1.349 . S
C375 H367 0.950 . S
C375 C373 1.327 . S
C376 C364 1.349 . S
C376 H370 0.950 . S
C376 C377 1.327 . S
C377 H371 0.950 . S
C377 C376 1.327 . S
C377 C381 1.429 . S
C378 C361 1.574 . S
C378 H372 0.949 . S
C378 C382 1.368 . S
C379 C360 1.429 . S
C379 C373 1.429 . S
C379 C380 1.523 . S
C380 C361 1.368 1_554 S
C380 C374 1.368 . S
C380 C379 1.523 . S
C381 C365 1.429 . S
C381 C377 1.429 . S
C381 C382 1.523 . S
C382 C366 1.368 . S
C382 C378 1.368 . S
C382 C381 1.523 . S
H383 C358 0.950 . S
H384 C360 0.950 . S
H385 C361 0.949 . S
H386 C363 0.950 . S
H387 C365 0.950 . S
C388 C389 1.349 . S
C388 C390 1.327 . S
C388 H413 0.950 . S
C389 C388 1.349 . S
C389 C405 1.349 . S
C390 C388 1.327 . S
C390 C409 1.429 . S
C390 H414 0.950 . S
C391 C408 1.574 . S
C391 C410 1.368 . S
C391 H415 0.949 . S
H392 C396 0.949 . S
C393 C394 1.349 . S
C393 C395 1.327 . S
C393 H416 0.950 . S
C394 C393 1.349 . S
C394 C406 1.349 . S
C395 C393 1.327 . S
C395 C411 1.429 . S
C395 H417 0.950 . S
C396 H392 0.949 . S
C396 C404 1.574 . S
C396 C412 1.368 . S
H397 C405 0.950 . S
H398 C403 0.950 . S
H399 C404 0.949 . S
H400 C406 0.950 . S
H401 C407 0.950 . S
H402 C408 0.949 . S
C403 H398 0.950 . S
C403 C405 1.327 . S
C403 C409 1.429 . S
C404 C396 1.574 . S
C404 H399 0.949 . S
C404 C410 1.368 . S
C405 C389 1.349 . S
C405 H397 0.950 . S
C405 C403 1.327 . S
C406 C394 1.349 . S
C406 H400 0.950 . S
C406 C407 1.327 . S
C407 H401 0.950 . S
C407 C406 1.327 . S
C407 C411 1.429 . S
C408 C391 1.574 . S
C408 H402 0.949 . S
C408 C412 1.368 . S
C409 C390 1.429 . S
C409 C403 1.429 . S
C409 C410 1.523 . S
C410 C391 1.368 . S
C410 C404 1.368 . S
C410 C409 1.523 . S
C411 C395 1.429 . S
C411 C407 1.429 . S
C411 C412 1.523 . S
C412 C396 1.368 . S
C412 C408 1.368 . S
C412 C411 1.523 . S
H413 C388 0.950 . S
H414 C390 0.950 . S
H415 C391 0.949 . S
H416 C393 0.950 . S
H417 C395 0.950 . S
C418 C419 1.349 . S
C418 C420 1.327 . S
C418 H443 0.950 . S
C419 C418 1.349 . S
C419 C435 1.349 . S
C420 C418 1.327 . S
C420 C439 1.429 . S
C420 H444 0.950 . S
C421 C438 1.574 . S
C421 C440 1.368 . S
C421 H445 0.949 . S
H422 C426 0.949 . S
C423 C424 1.349 . S
C423 C425 1.327 . S
C423 H446 0.950 . S
C424 C423 1.349 . S
C424 C436 1.349 . S
C425 C423 1.327 . S
C425 C441 1.429 . S
C425 H447 0.950 . S
C426 H422 0.949 . S
C426 C434 1.574 . S
C426 C442 1.368 . S
H427 C435 0.950 . S
H428 C433 0.950 . S
H429 C434 0.949 . S
H430 C436 0.950 . S
H431 C437 0.950 . S
H432 C438 0.949 . S
C433 H428 0.950 . S
C433 C435 1.327 . S
C433 C439 1.429 . S
C434 C426 1.574 . S
C434 H429 0.949 . S
C434 C440 1.368 . S
C435 C419 1.349 . S
C435 H427 0.950 . S
C435 C433 1.327 . S
C436 C424 1.349 . S
C436 H430 0.950 . S
C436 C437 1.327 . S
C437 H431 0.950 . S
C437 C436 1.327 . S
C437 C441 1.429 . S
C438 C421 1.574 . S
C438 H432 0.949 . S
C438 C442 1.368 . S
C439 C420 1.429 . S
C439 C433 1.429 . S
C439 C440 1.523 . S
C440 C421 1.368 . S
C440 C434 1.368 . S
C440 C439 1.523 . S
C441 C425 1.429 . S
C441 C437 1.429 . S
C441 C442 1.523 . S
C442 C426 1.368 . S
C442 C438 1.368 . S
C442 C441 1.523 . S
H443 C418 0.950 . S
H444 C420 0.950 . S
H445 C421 0.949 . S
H446 C423 0.950 . S
H447 C425 0.950 . S
C89 C19 1.573 . S
C94 C8 1.598 . S
C119 C18 1.501 . S
C124 C27 1.286 . S
C149 C29 1.471 . S
C154 C41 1.519 . S
C179 C7 1.529 . S
C184 C38 1.309 . S
C209 C63 1.573 . S
C214 C5 1.433 . S
C239 C40 1.500 . S
C244 C49 1.281 . S
C269 C16 1.281 . S
C274 C73 1.500 . S
C299 C82 1.433 . S
C304 C30 1.574 . S
C329 C85 1.598 . S
C334 C52 1.572 . S
C359 C60 1.286 . S
C364 C51 1.501 . S
C389 C62 1.470 . S
C394 C74 1.519 . S
C419 C71 1.309 . S
C424 C84 1.529 . S
