# Generated by pormake.
# Topology vbr, (6)-cn, num edge types: 1
# Building blocks:
#     Node 0, Type 0, BuildingBlock: OJICUG_clean_sbu_0, # of connection points: 6
#     Node 1, Type 0, BuildingBlock: OJICUG_clean_sbu_0, # of connection points: 6
#     Node 2, Type 0, BuildingBlock: OJICUG_clean_sbu_0, # of connection points: 6
#     Node 3, Type 0, BuildingBlock: OJICUG_clean_sbu_0, # of connection points: 6
#     Node 4, Type 0, BuildingBlock: OJICUG_clean_sbu_0, # of connection points: 6
#     Node 5, Type 0, BuildingBlock: OJICUG_clean_sbu_0, # of connection points: 6
#     Node 6, Type 0, BuildingBlock: OJICUG_clean_sbu_0, # of connection points: 6
#     Node 7, Type 0, BuildingBlock: OJICUG_clean_sbu_0, # of connection points: 6
#     Node 8, Type 0, BuildingBlock: OJICUG_clean_sbu_0, # of connection points: 6
#     Node 9, Type 0, BuildingBlock: OJICUG_clean_sbu_0, # of connection points: 6
#     Node 10, Type 0, BuildingBlock: OJICUG_clean_sbu_0, # of connection points: 6
#     Node 11, Type 0, BuildingBlock: OJICUG_clean_sbu_0, # of connection points: 6
#     Node 12, Type 0, BuildingBlock: OJICUG_clean_sbu_0, # of connection points: 6
#     Node 13, Type 0, BuildingBlock: OJICUG_clean_sbu_0, # of connection points: 6
#     Node 14, Type 0, BuildingBlock: OJICUG_clean_sbu_0, # of connection points: 6
#     Node 15, Type 0, BuildingBlock: OJICUG_clean_sbu_0, # of connection points: 6
#     Edge 16, Type (0, 0), BuildingBlock: XIVTED_clean_linker_0, # of connection points: 2
#     Edge 17, Type (0, 0), BuildingBlock: XIVTED_clean_linker_0, # of connection points: 2
#     Edge 18, Type (0, 0), BuildingBlock: XIVTED_clean_linker_0, # of connection points: 2
#     Edge 19, Type (0, 0), BuildingBlock: XIVTED_clean_linker_0, # of connection points: 2
#     Edge 20, Type (0, 0), BuildingBlock: XIVTED_clean_linker_0, # of connection points: 2
#     Edge 21, Type (0, 0), BuildingBlock: XIVTED_clean_linker_0, # of connection points: 2
#     Edge 22, Type (0, 0), BuildingBlock: XIVTED_clean_linker_0, # of connection points: 2
#     Edge 23, Type (0, 0), BuildingBlock: XIVTED_clean_linker_0, # of connection points: 2
#     Edge 24, Type (0, 0), BuildingBlock: XIVTED_clean_linker_0, # of connection points: 2
#     Edge 25, Type (0, 0), BuildingBlock: XIVTED_clean_linker_0, # of connection points: 2
#     Edge 26, Type (0, 0), BuildingBlock: XIVTED_clean_linker_0, # of connection points: 2
#     Edge 27, Type (0, 0), BuildingBlock: XIVTED_clean_linker_0, # of connection points: 2
#     Edge 28, Type (0, 0), BuildingBlock: XIVTED_clean_linker_0, # of connection points: 2
#     Edge 29, Type (0, 0), BuildingBlock: XIVTED_clean_linker_0, # of connection points: 2
#     Edge 30, Type (0, 0), BuildingBlock: XIVTED_clean_linker_0, # of connection points: 2
#     Edge 31, Type (0, 0), BuildingBlock: XIVTED_clean_linker_0, # of connection points: 2
#     Edge 32, Type (0, 0), BuildingBlock: XIVTED_clean_linker_0, # of connection points: 2
#     Edge 33, Type (0, 0), BuildingBlock: XIVTED_clean_linker_0, # of connection points: 2
#     Edge 34, Type (0, 0), BuildingBlock: XIVTED_clean_linker_0, # of connection points: 2
#     Edge 35, Type (0, 0), BuildingBlock: XIVTED_clean_linker_0, # of connection points: 2
#     Edge 36, Type (0, 0), BuildingBlock: XIVTED_clean_linker_0, # of connection points: 2
#     Edge 37, Type (0, 0), BuildingBlock: XIVTED_clean_linker_0, # of connection points: 2
#     Edge 38, Type (0, 0), BuildingBlock: XIVTED_clean_linker_0, # of connection points: 2
#     Edge 39, Type (0, 0), BuildingBlock: XIVTED_clean_linker_0, # of connection points: 2
#     Edge 40, Type (0, 0), BuildingBlock: XIVTED_clean_linker_0, # of connection points: 2
#     Edge 41, Type (0, 0), BuildingBlock: XIVTED_clean_linker_0, # of connection points: 2
#     Edge 42, Type (0, 0), BuildingBlock: XIVTED_clean_linker_0, # of connection points: 2
#     Edge 43, Type (0, 0), BuildingBlock: XIVTED_clean_linker_0, # of connection points: 2
#     Edge 44, Type (0, 0), BuildingBlock: XIVTED_clean_linker_0, # of connection points: 2
#     Edge 45, Type (0, 0), BuildingBlock: XIVTED_clean_linker_0, # of connection points: 2
#     Edge 46, Type (0, 0), BuildingBlock: XIVTED_clean_linker_0, # of connection points: 2
#     Edge 47, Type (0, 0), BuildingBlock: XIVTED_clean_linker_0, # of connection points: 2
#     Edge 48, Type (0, 0), BuildingBlock: XIVTED_clean_linker_0, # of connection points: 2
#     Edge 49, Type (0, 0), BuildingBlock: XIVTED_clean_linker_0, # of connection points: 2
#     Edge 50, Type (0, 0), BuildingBlock: XIVTED_clean_linker_0, # of connection points: 2
#     Edge 51, Type (0, 0), BuildingBlock: XIVTED_clean_linker_0, # of connection points: 2
#     Edge 52, Type (0, 0), BuildingBlock: XIVTED_clean_linker_0, # of connection points: 2
#     Edge 53, Type (0, 0), BuildingBlock: XIVTED_clean_linker_0, # of connection points: 2
#     Edge 54, Type (0, 0), BuildingBlock: XIVTED_clean_linker_0, # of connection points: 2
#     Edge 55, Type (0, 0), BuildingBlock: XIVTED_clean_linker_0, # of connection points: 2
#     Edge 56, Type (0, 0), BuildingBlock: XIVTED_clean_linker_0, # of connection points: 2
#     Edge 57, Type (0, 0), BuildingBlock: XIVTED_clean_linker_0, # of connection points: 2
#     Edge 58, Type (0, 0), BuildingBlock: XIVTED_clean_linker_0, # of connection points: 2
#     Edge 59, Type (0, 0), BuildingBlock: XIVTED_clean_linker_0, # of connection points: 2
#     Edge 60, Type (0, 0), BuildingBlock: XIVTED_clean_linker_0, # of connection points: 2
#     Edge 61, Type (0, 0), BuildingBlock: XIVTED_clean_linker_0, # of connection points: 2
#     Edge 62, Type (0, 0), BuildingBlock: XIVTED_clean_linker_0, # of connection points: 2
#     Edge 63, Type (0, 0), BuildingBlock: XIVTED_clean_linker_0, # of connection points: 2
# Relax obj value: 0.306
# Max RMSD: 0.281
# Mean RMSD: 0.281
data_MOF--net-vbr--node1-OJICUG_clean_sbu_0--edge1-XIVTED_clean_linker_0
_symmetry_space_group_name_H-M    P1
_symmetry_Int_Tables_number       1
_symmetry_cell_setting            triclinic
loop_
_symmetry_equiv_pos_as_xyz
'x, y, z'
_cell_length_a     44.193049
_cell_length_b     29.395253
_cell_length_c     57.128506
_cell_angle_alpha  90.032532
_cell_angle_beta   90.013624
_cell_angle_gamma 90.065665
loop_
_atom_site_label
_atom_site_type_symbol
_atom_site_fract_x
_atom_site_fract_y
_atom_site_fract_z
_atom_type_partial_charge
Sc0 Sc 0.34369 0.1891 0.09721 0.0
Sc1 Sc 0.27529 0.17258 0.12588 0.0
Sc2 Sc 0.32543 0.08209 0.12 0.0
O3 O 0.31507 0.14796 0.11438 0.0
C4 C 0.35109 0.09802 0.068 0.0
C5 C 0.27833 0.21352 0.07594 0.0
C6 C 0.25727 0.06985 0.1135 0.0
C7 C 0.31702 0.26159 0.13032 0.0
C8 C 0.38759 0.13125 0.13038 0.0
C9 C 0.29428 0.11552 0.16833 0.0
O10 O 0.34968 0.14102 0.06944 0.0
O11 O 0.26264 0.19127 0.09081 0.0
O12 O 0.28316 0.05989 0.10548 0.0
O13 O 0.34069 0.24284 0.12241 0.0
O14 O 0.36882 0.09949 0.13476 0.0
O15 O 0.28755 0.15504 0.16086 0.0
O16 O 0.38213 0.16359 0.11618 0.0
O17 O 0.29166 0.24125 0.13098 0.0
O18 O 0.3053 0.08442 0.15514 0.0
O19 O 0.30698 0.21818 0.07747 0.0
O20 O 0.3453 0.07208 0.08534 0.0
O21 O 0.25196 0.10769 0.12344 0.0
Sc22 Sc 0.14856 0.7706 0.59753 0.0
Sc23 Sc 0.21728 0.78479 0.62605 0.0
Sc24 Sc 0.16953 0.87753 0.61854 0.0
O25 O 0.17816 0.81095 0.61408 0.0
C26 C 0.14387 0.85984 0.56671 0.0
C27 C 0.21332 0.74094 0.57692 0.0
C28 C 0.23769 0.88579 0.61239 0.0
C29 C 0.17311 0.6986 0.63143 0.0
C30 C 0.10612 0.83314 0.62949 0.0
C31 C 0.19922 0.8452 0.66758 0.0
O32 O 0.14437 0.81687 0.56875 0.0
O33 O 0.22959 0.76387 0.59117 0.0
O34 O 0.21228 0.89566 0.60351 0.0
O35 O 0.14988 0.71929 0.62404 0.0
O36 O 0.12586 0.86369 0.63358 0.0
O37 O 0.20514 0.80487 0.66077 0.0
O38 O 0.1106 0.79992 0.61561 0.0
O39 O 0.19916 0.717 0.63157 0.0
O40 O 0.18934 0.87614 0.65377 0.0
O41 O 0.18462 0.73764 0.57873 0.0
O42 O 0.14991 0.88643 0.58375 0.0
O43 O 0.24205 0.8486 0.62321 0.0
Sc44 Sc 0.3523 0.85381 0.89451 0.0
Sc45 Sc 0.27606 0.87516 0.88062 0.0
Sc46 Sc 0.33241 0.9508 0.86173 0.0
O47 O 0.32024 0.89308 0.87882 0.0
C48 C 0.36847 0.95531 0.91033 0.0
C49 C 0.2984 0.8497 0.93161 0.0
C50 C 0.269 0.98166 0.88314 0.0
C51 C 0.30949 0.77918 0.87326 0.0
C52 C 0.38813 0.88683 0.84942 0.0
C53 C 0.2846 0.90517 0.82712 0.0
O54 O 0.37108 0.9123 0.91181 0.0
O55 O 0.27796 0.8634 0.91764 0.0
O56 O 0.29438 0.98821 0.87351 0.0
O57 O 0.33572 0.79149 0.87971 0.0
O58 O 0.37277 0.92279 0.8468 0.0
O59 O 0.27086 0.8851 0.84375 0.0
O60 O 0.38287 0.85831 0.86554 0.0
O61 O 0.2867 0.8055 0.87341 0.0
O62 O 0.30806 0.93001 0.83021 0.0
O63 O 0.32564 0.84325 0.9254 0.0
O64 O 0.35555 0.97493 0.89305 0.0
O65 O 0.25896 0.94233 0.88782 0.0
Sc66 Sc 0.15461 0.00929 0.35847 0.0
Sc67 Sc 0.2117 0.08065 0.3789 0.0
Sc68 Sc 0.13682 0.09806 0.39616 0.0
O69 O 0.16792 0.0632 0.37767 0.0
C70 C 0.09892 0.07688 0.35218 0.0
C71 C 0.19876 0.05936 0.32436 0.0
C72 C 0.18042 0.17734 0.37901 0.0
C73 C 0.22046 0.97668 0.37405 0.0
C74 C 0.12265 0.99547 0.4069 0.0
C75 C 0.19046 0.09342 0.43215 0.0
O76 O 0.11021 0.03719 0.35072 0.0
O77 O 0.21537 0.07186 0.34151 0.0
O78 O 0.15655 0.16368 0.38917 0.0
O79 O 0.19621 0.973 0.36237 0.0
O80 O 0.11326 0.03638 0.40604 0.0
O81 O 0.21072 0.09145 0.4163 0.0
O82 O 0.13906 0.97846 0.39075 0.0
O83 O 0.22734 0.01249 0.3852 0.0
O84 O 0.16229 0.09272 0.42777 0.0
O85 O 0.17318 0.0394 0.32689 0.0
O86 O 0.10973 0.10701 0.36565 0.0
O87 O 0.20141 0.15067 0.37257 0.0
Sc88 Sc 0.65126 0.93913 0.86759 0.0
Sc89 Sc 0.70365 0.85183 0.87721 0.0
Sc90 Sc 0.62886 0.83831 0.89618 0.0
O91 O 0.66116 0.87632 0.88017 0.0
C92 C 0.6159 0.93733 0.91655 0.0
C93 C 0.7172 0.95735 0.88523 0.0
C94 C 0.68662 0.82562 0.92901 0.0
C95 C 0.69382 0.89508 0.82769 0.0
C96 C 0.59344 0.88154 0.85294 0.0
C97 C 0.66448 0.76041 0.87135 0.0
O98 O 0.62691 0.95875 0.89912 0.0
O99 O 0.72581 0.91681 0.88165 0.0
O100 O 0.65872 0.82013 0.92431 0.0
O101 O 0.67661 0.92673 0.83534 0.0
O102 O 0.59659 0.85243 0.86919 0.0
O103 O 0.68899 0.78295 0.87136 0.0
O104 O 0.61109 0.91526 0.85017 0.0
O105 O 0.70314 0.86235 0.84031 0.0
O106 O 0.63948 0.77683 0.87802 0.0
O107 O 0.68991 0.96985 0.8835 0.0
O108 O 0.6148 0.89428 0.91737 0.0
O109 O 0.7059 0.84033 0.91425 0.0
Sc110 Sc 0.84504 0.18705 0.39589 0.0
Sc111 Sc 0.7749 0.17206 0.36972 0.0
Sc112 Sc 0.82445 0.08076 0.37299 0.0
O113 O 0.81512 0.14662 0.37952 0.0
C114 C 0.88672 0.12909 0.36117 0.0
C115 C 0.81631 0.26134 0.36515 0.0
C116 C 0.7934 0.11863 0.32576 0.0
C117 C 0.78104 0.20932 0.42011 0.0
C118 C 0.85239 0.09481 0.42432 0.0
C119 C 0.75643 0.06913 0.38075 0.0
O120 O 0.88229 0.16216 0.37518 0.0
O121 O 0.79094 0.24108 0.36545 0.0
O122 O 0.80403 0.08577 0.33798 0.0
O123 O 0.80951 0.21488 0.41746 0.0
O124 O 0.84465 0.06912 0.40733 0.0
O125 O 0.75105 0.10738 0.37133 0.0
O126 O 0.85262 0.13783 0.42274 0.0
O127 O 0.76443 0.18799 0.40545 0.0
O128 O 0.78254 0.05844 0.38795 0.0
O129 O 0.84054 0.2421 0.37159 0.0
O130 O 0.8675 0.09751 0.35784 0.0
O131 O 0.78606 0.15695 0.33443 0.0
Sc132 Sc 0.66348 0.0723 0.12376 0.0
Sc133 Sc 0.71763 0.15987 0.12073 0.0
Sc134 Sc 0.64535 0.17766 0.09825 0.0
O135 O 0.67538 0.13648 0.1143 0.0
C136 C 0.63303 0.08252 0.07309 0.0
C137 C 0.7315 0.05424 0.11184 0.0
C138 C 0.70701 0.19423 0.06983 0.0
C139 C 0.70049 0.11218 0.1679 0.0
C140 C 0.60356 0.12758 0.13573 0.0
C141 C 0.67942 0.25218 0.12655 0.0
O142 O 0.64233 0.05795 0.09003 0.0
O143 O 0.73954 0.09441 0.11714 0.0
O144 O 0.67886 0.1996 0.07363 0.0
O145 O 0.68478 0.08081 0.15815 0.0
O146 O 0.60939 0.15975 0.1216 0.0
O147 O 0.70385 0.22951 0.12635 0.0
O148 O 0.6209 0.09358 0.13865 0.0
O149 O 0.71134 0.14612 0.1569 0.0
O150 O 0.65438 0.23557 0.11995 0.0
O151 O 0.70401 0.04254 0.10993 0.0
O152 O 0.63308 0.12565 0.07388 0.0
O153 O 0.72493 0.17527 0.08434 0.0
Sc154 Sc 0.8358 0.94552 0.6322 0.0
Sc155 Sc 0.77464 0.87336 0.61939 0.0
Sc156 Sc 0.84714 0.84839 0.59789 0.0
O157 O 0.81906 0.88887 0.61661 0.0
C158 C 0.86439 0.94891 0.58144 0.0
C159 C 0.76893 0.97956 0.61982 0.0
C160 C 0.78818 0.84938 0.56604 0.0
C161 C 0.79411 0.9034 0.67142 0.0
C162 C 0.89138 0.87712 0.63802 0.0
C163 C 0.80488 0.77488 0.62195 0.0
O164 O 0.85158 0.96957 0.59842 0.0
O165 O 0.75863 0.94155 0.61296 0.0
O166 O 0.81654 0.84563 0.569 0.0
O167 O 0.81855 0.92429 0.66606 0.0
O168 O 0.88026 0.84634 0.62508 0.0
O169 O 0.78401 0.80315 0.62658 0.0
O170 O 0.87929 0.91603 0.64024 0.0
O171 O 0.77621 0.8859 0.6564 0.0
O172 O 0.82905 0.78581 0.61139 0.0
O173 O 0.79556 0.9844 0.6276 0.0
O174 O 0.86809 0.90598 0.58113 0.0
O175 O 0.76992 0.85895 0.58255 0.0
Sc176 Sc 0.84507 0.68125 0.09347 0.0
Sc177 Sc 0.77846 0.66158 0.12375 0.0
Sc178 Sc 0.83035 0.57331 0.11696 0.0
O179 O 0.81822 0.6386 0.1114 0.0
C180 C 0.85075 0.59028 0.06371 0.0
C181 C 0.77824 0.70225 0.07412 0.0
C182 C 0.76155 0.55797 0.11299 0.0
C183 C 0.81839 0.75278 0.12667 0.0
C184 C 0.89257 0.62506 0.12424 0.0
C185 C 0.80334 0.6085 0.16622 0.0
O186 O 0.84991 0.63328 0.06558 0.0
O187 O 0.76367 0.67828 0.08895 0.0
O188 O 0.78748 0.54799 0.10511 0.0
O189 O 0.84238 0.73476 0.11886 0.0
O190 O 0.8748 0.59231 0.12906 0.0
O191 O 0.79346 0.64602 0.15817 0.0
O192 O 0.88531 0.65773 0.11077 0.0
O193 O 0.7935 0.73125 0.12766 0.0
O194 O 0.81404 0.57665 0.15332 0.0
O195 O 0.80673 0.70886 0.0752 0.0
O196 O 0.84642 0.56375 0.08109 0.0
O197 O 0.75594 0.59596 0.12262 0.0
Sc198 Sc 0.62393 0.34612 0.59092 0.0
Sc199 Sc 0.69558 0.37244 0.61411 0.0
Sc200 Sc 0.63406 0.44551 0.62429 0.0
O201 O 0.65125 0.38789 0.60991 0.0
C202 C 0.60791 0.44576 0.57227 0.0
C203 C 0.68495 0.34616 0.56103 0.0
C204 C 0.70114 0.47962 0.61319 0.0
C205 C 0.66435 0.27393 0.61702 0.0
C206 C 0.57819 0.37779 0.63015 0.0
C207 C 0.67418 0.40368 0.6651 0.0
O208 O 0.60603 0.4026 0.57152 0.0
O209 O 0.70214 0.35994 0.57743 0.0
O210 O 0.67361 0.48505 0.61851 0.0
O211 O 0.63963 0.28471 0.60723 0.0
O212 O 0.59132 0.4156 0.63341 0.0
O213 O 0.69185 0.38327 0.65101 0.0
O214 O 0.58818 0.34788 0.61617 0.0
O215 O 0.68588 0.3019 0.62018 0.0
O216 O 0.65137 0.42732 0.65869 0.0
O217 O 0.65682 0.33899 0.5637 0.0
O218 O 0.61798 0.46719 0.59011 0.0
O219 O 0.71252 0.44078 0.60925 0.0
Sc220 Sc 0.83873 0.34658 0.89232 0.0
Sc221 Sc 0.76495 0.35625 0.87125 0.0
Sc222 Sc 0.82012 0.43599 0.85582 0.0
O223 O 0.80764 0.37926 0.87287 0.0
C224 C 0.85186 0.44847 0.90436 0.0
C225 C 0.78288 0.34418 0.92543 0.0
C226 C 0.75194 0.46039 0.86935 0.0
C227 C 0.79941 0.26341 0.87355 0.0
C228 C 0.87697 0.37049 0.849 0.0
C229 C 0.77921 0.38777 0.81844 0.0
O230 O 0.86176 0.40809 0.90265 0.0
O231 O 0.76433 0.34183 0.90833 0.0
O232 O 0.77741 0.46849 0.86006 0.0
O233 O 0.82054 0.28022 0.88581 0.0
O234 O 0.86482 0.40974 0.84803 0.0
O235 O 0.76291 0.36916 0.83419 0.0
O236 O 0.86714 0.33931 0.86236 0.0
O237 O 0.7793 0.28764 0.86373 0.0
O238 O 0.80349 0.40987 0.82284 0.0
O239 O 0.81105 0.35163 0.92285 0.0
O240 O 0.83427 0.46529 0.88898 0.0
O241 O 0.74502 0.42211 0.87815 0.0
Sc242 Sc 0.67248 0.581 0.36765 0.0
Sc243 Sc 0.72305 0.67191 0.36896 0.0
Sc244 Sc 0.65027 0.6866 0.39047 0.0
O245 O 0.68165 0.64647 0.3756 0.0
C246 C 0.61136 0.62964 0.35329 0.0
C247 C 0.71005 0.61952 0.32321 0.0
C248 C 0.68224 0.76118 0.36177 0.0
C249 C 0.73959 0.56834 0.38031 0.0
C250 C 0.63958 0.5935 0.4174 0.0
C251 C 0.71128 0.70867 0.41893 0.0
O252 O 0.63093 0.59849 0.35024 0.0
O253 O 0.71678 0.65722 0.33288 0.0
O254 O 0.65738 0.74207 0.3668 0.0
O255 O 0.71256 0.55706 0.38478 0.0
O256 O 0.64002 0.63658 0.41635 0.0
O257 O 0.7294 0.68756 0.40535 0.0
O258 O 0.64871 0.56835 0.4006 0.0
O259 O 0.74643 0.60724 0.37223 0.0
O260 O 0.68326 0.71424 0.4144 0.0
O261 O 0.69663 0.58709 0.33408 0.0
O262 O 0.6149 0.66213 0.36778 0.0
O263 O 0.70749 0.74088 0.36357 0.0
Sc264 Sc 0.1416 0.44856 0.86616 0.0
Sc265 Sc 0.2019 0.37777 0.88241 0.0
Sc266 Sc 0.12822 0.35334 0.9021 0.0
O267 O 0.15727 0.39306 0.88344 0.0
C268 C 0.11112 0.45487 0.91688 0.0
C269 C 0.20658 0.48485 0.88177 0.0
C270 C 0.18637 0.35576 0.93529 0.0
C271 C 0.18612 0.40278 0.82923 0.0
C272 C 0.08671 0.37971 0.85898 0.0
C273 C 0.17048 0.27934 0.87971 0.0
O274 O 0.1218 0.47388 0.89854 0.0
O275 O 0.21797 0.44651 0.88674 0.0
O276 O 0.15865 0.34767 0.93117 0.0
O277 O 0.16262 0.42676 0.83348 0.0
O278 O 0.09452 0.35284 0.87521 0.0
O279 O 0.19247 0.3069 0.87758 0.0
O280 O 0.10054 0.41656 0.8548 0.0
O281 O 0.20223 0.38465 0.84515 0.0
O282 O 0.14484 0.29085 0.8877 0.0
O283 O 0.17991 0.48921 0.8741 0.0
O284 O 0.10951 0.41191 0.91923 0.0
O285 O 0.20482 0.36906 0.91964 0.0
Sc286 Sc 0.35917 0.60118 0.40116 0.0
Sc287 Sc 0.28519 0.58322 0.38131 0.0
Sc288 Sc 0.34287 0.50982 0.36413 0.0
O289 O 0.32897 0.56519 0.38206 0.0
C290 C 0.39955 0.57591 0.35845 0.0
C291 C 0.318 0.67908 0.37969 0.0
C292 C 0.30061 0.5577 0.32772 0.0
C293 C 0.30276 0.60114 0.4349 0.0
C294 C 0.37177 0.49854 0.41432 0.0
C295 C 0.2761 0.47888 0.37857 0.0
O296 O 0.38935 0.60611 0.37214 0.0
O297 O 0.29674 0.65237 0.37379 0.0
O298 O 0.32579 0.53742 0.33139 0.0
O299 O 0.33117 0.6007 0.43166 0.0
O300 O 0.35713 0.48099 0.39728 0.0
O301 O 0.26857 0.51578 0.38844 0.0
O302 O 0.38031 0.53996 0.41428 0.0
O303 O 0.28364 0.59692 0.41836 0.0
O304 O 0.30102 0.47403 0.36791 0.0
O305 O 0.34123 0.66631 0.39097 0.0
O306 O 0.38751 0.5368 0.35655 0.0
O307 O 0.28339 0.57176 0.34411 0.0
Sc308 Sc 0.1727 0.58265 0.12401 0.0
Sc309 Sc 0.22443 0.67203 0.12823 0.0
Sc310 Sc 0.15529 0.68971 0.10114 0.0
O311 O 0.18389 0.64805 0.11783 0.0
C312 C 0.14596 0.59888 0.07228 0.0
C313 C 0.24076 0.56885 0.11584 0.0
C314 C 0.22009 0.71326 0.07863 0.0
C315 C 0.20596 0.61639 0.17152 0.0
C316 C 0.111 0.63254 0.13434 0.0
C317 C 0.18349 0.76163 0.13341 0.0
O318 O 0.1517 0.57301 0.08968 0.0
O319 O 0.24702 0.60669 0.12546 0.0
O320 O 0.19166 0.71886 0.08109 0.0
O321 O 0.19382 0.58531 0.15886 0.0
O322 O 0.11686 0.66457 0.12007 0.0
O323 O 0.20885 0.74127 0.13322 0.0
O324 O 0.12958 0.60081 0.13912 0.0
O325 O 0.21331 0.65532 0.16355 0.0
O326 O 0.1593 0.74246 0.12674 0.0
O327 O 0.21429 0.55893 0.10897 0.0
O328 O 0.14841 0.64184 0.0734 0.0
O329 O 0.23607 0.6898 0.09278 0.0
Sc330 Sc 0.30289 0.37734 0.62152 0.0
Sc331 Sc 0.25411 0.28469 0.62645 0.0
Sc332 Sc 0.32508 0.27015 0.60179 0.0
O333 O 0.29429 0.31079 0.61662 0.0
C334 C 0.33259 0.35906 0.57103 0.0
C335 C 0.23525 0.38597 0.61209 0.0
C336 C 0.26228 0.24048 0.57783 0.0
C337 C 0.26934 0.34461 0.66899 0.0
C338 C 0.36524 0.33287 0.63535 0.0
C339 C 0.29752 0.1986 0.63443 0.0
O340 O 0.32513 0.38595 0.5876 0.0
O341 O 0.22981 0.34858 0.62244 0.0
O342 O 0.29069 0.23707 0.58133 0.0
O343 O 0.28055 0.3757 0.65587 0.0
O344 O 0.36153 0.29945 0.62149 0.0
O345 O 0.27152 0.21683 0.63291 0.0
O346 O 0.34545 0.36368 0.63847 0.0
O347 O 0.26339 0.30462 0.66167 0.0
O348 O 0.32138 0.21941 0.62843 0.0
O349 O 0.26141 0.39591 0.60463 0.0
O350 O 0.33184 0.31611 0.5732 0.0
O351 O 0.24477 0.26368 0.59102 0.0
H352 H 0.21753 0.21532 0.06529 0.0
H353 H 0.2436 0.37001 0.95214 0.0
H354 H 0.30432 0.26701 0.04259 0.0
H355 H 0.15637 0.3154 0.97176 0.0
H356 H 0.26478 0.34002 0.98827 0.0
H357 H 0.19344 0.25738 0.03334 0.0
C358 C 0.23151 0.23535 0.05362 0.0
C359 C 0.26302 0.23728 0.05654 0.0
C360 C 0.24093 0.3349 0.98477 0.0
C361 C 0.23566 0.28572 0.02027 0.0
C362 C 0.2288 0.35217 0.96415 0.0
C363 C 0.19829 0.34453 0.95869 0.0
C364 C 0.22249 0.30956 -3e-05 0.0
C365 C 0.18012 0.32165 0.9751 0.0
C366 C 0.21775 0.25952 0.03548 0.0
C367 C 0.27999 0.26411 0.04099 0.0
N368 N 0.19261 0.30443 0.99489 0.0
N369 N 0.2661 0.28712 0.02354 0.0
H370 H 0.33517 0.63152 0.47275 0.0
H371 H 0.18608 0.68239 0.54657 0.0
H372 H 0.24461 0.59552 0.45093 0.0
H373 H 0.27341 0.73983 0.56378 0.0
H374 H 0.2091 0.64047 0.51479 0.0
H375 H 0.31469 0.66024 0.5096 0.0
C376 C 0.31104 0.62898 0.47582 0.0
C377 C 0.29147 0.61171 0.45856 0.0
C378 C 0.2233 0.66216 0.52549 0.0
C379 C 0.26806 0.6447 0.50056 0.0
C380 C 0.21016 0.68638 0.54366 0.0
C381 C 0.22777 0.71531 0.55774 0.0
C382 C 0.25433 0.66683 0.52116 0.0
C383 C 0.25893 0.71829 0.55324 0.0
C384 C 0.2994 0.64562 0.49681 0.0
C385 C 0.26048 0.60913 0.46357 0.0
N386 N 0.27124 0.6945 0.53518 0.0
N387 N 0.24972 0.62582 0.48404 0.0
H388 H 0.27819 0.70356 0.0616 0.0
H389 H 0.24586 0.87065 0.95431 0.0
H390 H 0.19504 0.77795 0.05081 0.0
H391 H 0.3309 0.80059 0.96367 0.0
H392 H 0.22923 0.84231 0.99215 0.0
H393 H 0.30016 0.74317 0.02781 0.0
C394 C 0.26462 0.7282 0.05222 0.0
C395 C 0.23461 0.73691 0.05883 0.0
C396 C 0.25164 0.83335 0.98604 0.0
C397 C 0.25951 0.78234 0.02052 0.0
C398 C 0.26114 0.84957 0.96441 0.0
C399 C 0.28963 0.83746 0.95567 0.0
C400 C 0.27062 0.80441 -0.00104 0.0
C401 C 0.30864 0.81053 0.96968 0.0
C402 C 0.27716 0.75084 0.03301 0.0
C403 C 0.2181 0.76945 0.04618 0.0
N404 N 0.29864 0.79439 0.99056 0.0
N405 N 0.23073 0.79073 0.02762 0.0
H406 H 0.20274 0.23224 0.56376 0.0
H407 H 0.24747 0.08875 0.45059 0.0
H408 H 0.29346 0.18807 0.54691 0.0
H409 H 0.15499 0.12043 0.46889 0.0
H410 H 0.26379 0.11854 0.48827 0.0
H411 H 0.18377 0.18715 0.53073 0.0
C412 C 0.21863 0.21319 0.55317 0.0
C413 C 0.24975 0.21438 0.558 0.0
C414 C 0.23986 0.11854 0.48418 0.0
C415 C 0.22829 0.16257 0.52055 0.0
C416 C 0.23055 0.10139 0.46266 0.0
C417 C 0.19992 0.10288 0.4564 0.0
C418 C 0.21844 0.13781 0.49941 0.0
C419 C 0.17892 0.11909 0.47288 0.0
C420 C 0.2078 0.18725 0.53445 0.0
C421 C 0.2693 0.18864 0.54384 0.0
N422 N 0.18863 0.13667 0.49352 0.0
N423 N 0.25825 0.16405 0.52576 0.0
H424 H 0.65615 0.77709 0.96247 0.0
H425 H 0.79823 0.77338 0.04821 0.0
H426 H 0.74118 0.84503 0.94908 0.0
H427 H 0.72117 0.68437 0.05694 0.0
H428 H 0.77341 0.8089 0.01519 0.0
H429 H 0.67577 0.75167 0.00024 0.0
C430 C 0.67884 0.78698 0.96754 0.0
C431 C 0.69724 0.81279 0.95249 0.0
C432 C 0.76184 0.78165 0.02428 0.0
C433 C 0.7196 0.78392 0.99555 0.0
C434 C 0.77604 0.76116 0.04313 0.0
C435 C 0.76197 0.72515 0.05504 0.0
C436 C 0.73337 0.766 0.01712 0.0
C437 C 0.7329 0.7117 0.04805 0.0
C438 C 0.68999 0.77236 0.98906 0.0
C439 C 0.72636 0.82472 0.95997 0.0
N440 N 0.71959 0.73191 0.02929 0.0
N441 N 0.73667 0.80999 0.98095 0.0
H442 H 0.65585 0.31808 0.52129 0.0
H443 H 0.8093 0.25234 0.45637 0.0
H444 H 0.74499 0.3455 0.54914 0.0
H445 H 0.72054 0.21643 0.43038 0.0
H446 H 0.78583 0.29148 0.48907 0.0
H447 H 0.679 0.28743 0.486 0.0
C448 C 0.68029 0.31809 0.51992 0.0
C449 C 0.69854 0.33381 0.53837 0.0
C450 C 0.77146 0.27507 0.47622 0.0
C451 C 0.72508 0.29846 0.49808 0.0
C452 C 0.78483 0.25254 0.45754 0.0
C453 C 0.76684 0.23094 0.44059 0.0
C454 C 0.73985 0.27606 0.47803 0.0
C455 C 0.73529 0.23242 0.44309 0.0
C456 C 0.69347 0.30043 0.49977 0.0
C457 C 0.73004 0.33343 0.53546 0.0
N458 N 0.72276 0.25466 0.46151 0.0
N459 N 0.74233 0.31559 0.51576 0.0
H460 H 0.67527 0.21842 0.03112 0.0
H461 H 0.81636 0.32801 0.96501 0.0
H462 H 0.76588 0.2171 0.05955 0.0
H463 H 0.72446 0.32982 0.9391 0.0
H464 H 0.79843 0.29209 0.00093 0.0
H465 H 0.69352 0.26081 -0.00238 0.0
C466 C 0.69913 0.22681 0.03024 0.0
C467 C 0.71909 0.21439 0.04821 0.0
C468 C 0.78221 0.30077 0.98745 0.0
C469 C 0.74013 0.26346 0.00984 0.0
C470 C 0.79236 0.3216 0.967 0.0
C471 C 0.77191 0.33127 0.94883 0.0
C472 C 0.75148 0.28968 0.98968 0.0
C473 C 0.7411 0.32239 0.95246 0.0
C474 C 0.70951 0.25126 0.01112 0.0
C475 C 0.74977 0.22587 0.04601 0.0
N476 N 0.73189 0.30167 0.97238 0.0
N477 N 0.75939 0.25003 0.02714 0.0
H478 H 0.77057 0.7213 0.43169 0.0
H479 H 0.72869 0.84039 0.55304 0.0
H480 H 0.6789 0.74565 0.45485 0.0
H481 H 0.81987 0.8298 0.52622 0.0
H482 H 0.7098 0.8084 0.51643 0.0
H483 H 0.78913 0.76136 0.46631 0.0
C484 C 0.75436 0.7348 0.4441 0.0
C485 C 0.72316 0.73009 0.44037 0.0
C486 C 0.73392 0.81347 0.51851 0.0
C487 C 0.74418 0.77626 0.47981 0.0
C488 C 0.74471 0.83196 0.53937 0.0
C489 C 0.77594 0.83721 0.54286 0.0
C490 C 0.75452 0.80002 0.50112 0.0
C491 C 0.79562 0.82581 0.52446 0.0
C492 C 0.76496 0.75796 0.46376 0.0
C493 C 0.70318 0.74856 0.45696 0.0
N494 N 0.7846 0.8073 0.50448 0.0
N495 N 0.71404 0.77078 0.47596 0.0
H496 H 0.35743 0.0461 0.91935 0.0
H497 H 0.36566 0.00911 0.0572 0.0
H498 H 0.39423 0.92481 0.95108 0.0
H499 H 0.35412 0.14145 0.02566 0.0
H500 H 0.37633 0.97759 0.01834 0.0
H501 H 0.35758 0.08275 0.95783 0.0
C502 C 0.36622 0.02747 0.93422 0.0
C503 C 0.37553 0.98201 0.93184 0.0
C504 C 0.37171 0.01361 0.01999 0.0
C505 C 0.37494 0.02346 0.97615 0.0
C506 C 0.36548 0.03158 0.04218 0.0
C507 C 0.35887 0.07801 0.04482 0.0
C508 C 0.37094 0.04209 0.0002 0.0
C509 C 0.35909 0.10545 0.02461 0.0
C510 C 0.36608 0.04834 0.95627 0.0
C511 C 0.38654 0.95972 0.95194 0.0
N512 N 0.36473 0.08705 0.00321 0.0
N513 N 0.38545 0.98034 0.97322 0.0
H514 H 0.12948 0.94827 0.555 0.0
H515 H 0.13879 0.90713 0.41735 0.0
H516 H 0.14241 0.81512 0.52467 0.0
H517 H 0.09826 0.02685 0.44793 0.0
H518 H 0.14077 0.87256 0.45632 0.0
H519 H 0.11948 0.97846 0.51576 0.0
C520 C 0.13014 0.92535 0.54016 0.0
C521 C 0.13683 0.87906 0.54324 0.0
C522 C 0.13104 0.90615 0.4544 0.0
C523 C 0.12556 0.91346 0.49822 0.0
C524 C 0.12975 0.92583 0.43211 0.0
C525 C 0.1184 0.97009 0.42921 0.0
C526 C 0.12136 0.93112 0.47403 0.0
C527 C 0.10721 0.99268 0.44916 0.0
C528 C 0.12429 0.94256 0.51776 0.0
C529 C 0.13728 0.85101 0.52325 0.0
N530 N 0.10937 0.97325 0.47068 0.0
N531 N 0.13198 0.86868 0.50165 0.0
H532 H 0.62076 0.02931 0.92561 0.0
H533 H 0.62435 0.99141 0.06313 0.0
H534 H 0.5957 0.902 0.95807 0.0
H535 H 0.62073 0.12478 0.03153 0.0
H536 H 0.61326 0.95782 0.02478 0.0
H537 H 0.61935 0.06564 0.96415 0.0
C538 C 0.61435 0.00916 0.94069 0.0
C539 C 0.60869 0.96234 0.93849 0.0
C540 C 0.61456 0.99448 0.02636 0.0
C541 C 0.60774 0.00353 0.98277 0.0
C542 C 0.62097 0.01365 0.04825 0.0
C543 C 0.62367 0.061 0.05066 0.0
C544 C 0.61125 0.0228 0.00667 0.0
C545 C 0.61897 0.08809 0.03065 0.0
C546 C 0.6137 0.02989 0.96274 0.0
C547 C 0.60055 0.93808 0.9588 0.0
N548 N 0.61336 0.06862 0.00953 0.0
N549 N 0.60083 0.95874 0.98007 0.0
H550 H 0.88866 0.91474 0.54096 0.0
H551 H 0.85867 0.13931 0.4661 0.0
H552 H 0.85479 0.03953 0.57111 0.0
H553 H 0.86259 0.00478 0.43577 0.0
H554 H 0.86731 0.1064 0.50464 0.0
H555 H 0.89002 0.95126 0.50273 0.0
C556 C 0.88201 0.95011 0.53972 0.0
C557 C 0.87126 0.97389 0.55943 0.0
C558 C 0.86648 0.08413 0.48954 0.0
C559 C 0.87271 0.01578 0.51537 0.0
C560 C 0.86164 0.10283 0.46743 0.0
C561 C 0.85975 0.07476 0.44751 0.0
C562 C 0.86979 0.03697 0.49189 0.0
C563 C 0.86371 0.02775 0.45056 0.0
C564 C 0.88262 0.97078 0.51776 0.0
C565 C 0.86313 0.01972 0.5565 0.0
N566 N 0.86851 0.01033 0.47234 0.0
N567 N 0.86381 0.03906 0.53485 0.0
H568 H 0.84713 0.63524 0.02192 0.0
H569 H 0.88239 0.41775 0.94292 0.0
H570 H 0.86398 0.50185 0.05075 0.0
H571 H 0.83489 0.53564 0.91681 0.0
H572 H 0.88519 0.45333 0.98138 0.0
H573 H 0.85147 0.60367 0.98262 0.0
C574 C 0.85204 0.59933 0.02006 0.0
C575 C 0.85516 0.57115 0.03984 0.0
C576 C 0.87442 0.47157 0.96718 0.0
C577 C 0.86023 0.5349 0.99456 0.0
C578 C 0.87297 0.45149 0.94508 0.0
C579 C 0.8582 0.47358 0.92644 0.0
C580 C 0.86132 0.51438 0.97079 0.0
C581 C 0.84645 0.51724 0.93056 0.0
C582 C 0.85437 0.58137 -0.00247 0.0
C583 C 0.8613 0.52485 0.03611 0.0
N584 N 0.84816 0.53612 0.95231 0.0
N585 N 0.86368 0.50819 0.01392 0.0
H586 H 0.62683 0.63704 0.45853 0.0
H587 H 0.59003 0.41046 0.53002 0.0
H588 H 0.62884 0.50288 0.42764 0.0
H589 H 0.61591 0.5371 0.56288 0.0
H590 H 0.59334 0.44712 0.49189 0.0
H591 H 0.6129 0.60341 0.49591 0.0
C592 C 0.62412 0.60046 0.45948 0.0
C593 C 0.62924 0.57275 0.43976 0.0
C594 C 0.59792 0.467 0.50746 0.0
C595 C 0.61307 0.53408 0.48287 0.0
C596 C 0.59583 0.44625 0.52935 0.0
C597 C 0.60305 0.47053 0.54988 0.0
C598 C 0.60702 0.51257 0.50593 0.0
C599 C 0.61027 0.51687 0.54765 0.0
C600 C 0.6162 0.58134 0.48094 0.0
C601 C 0.62532 0.5256 0.44231 0.0
N602 N 0.61232 0.53626 0.52606 0.0
N603 N 0.61752 0.50774 0.46348 0.0
H604 H 0.12777 0.51094 0.06275 0.0
H605 H 0.12447 0.5454 0.92453 0.0
H606 H 0.14192 0.64138 0.02976 0.0
H607 H 0.0879 0.42664 0.95894 0.0
H608 H 0.12887 0.58268 0.96268 0.0
H609 H 0.11265 0.47963 0.02474 0.0
C610 C 0.12767 0.53302 0.04758 0.0
C611 C 0.13626 0.57885 0.04955 0.0
C612 C 0.11941 0.54873 0.96181 0.0
C613 C 0.11896 0.54322 0.00592 0.0
C614 C 0.11661 0.52753 0.93996 0.0
C615 C 0.10613 0.48248 0.9384 0.0
C616 C 0.11197 0.52459 0.98229 0.0
C617 C 0.09647 0.46116 0.95917 0.0
C618 C 0.11885 0.5152 0.02589 0.0
C619 C 0.1355 0.60585 0.0292 0.0
N620 N 0.10012 0.48204 0.98022 0.0
N621 N 0.12726 0.58758 0.00828 0.0
H622 H 0.33728 0.31361 0.52937 0.0
H623 H 0.39378 0.52936 0.45635 0.0
H624 H 0.3494 0.44693 0.55976 0.0
H625 H 0.35412 0.41045 0.4241 0.0
H626 H 0.3872 0.49417 0.49463 0.0
H627 H 0.35184 0.34413 0.49131 0.0
C628 C 0.34316 0.34931 0.52813 0.0
C629 C 0.342 0.37776 0.54793 0.0
C630 C 0.38028 0.47556 0.47915 0.0
C631 C 0.35896 0.41281 0.50413 0.0
C632 C 0.38429 0.49541 0.45717 0.0
C633 C 0.37432 0.47305 0.43676 0.0
C634 C 0.36647 0.43275 0.48091 0.0
C635 C 0.36211 0.42912 0.43922 0.0
C636 C 0.35142 0.36667 0.5063 0.0
C637 C 0.34979 0.42375 0.54503 0.0
N638 N 0.35835 0.41058 0.46088 0.0
N639 N 0.35798 0.43981 0.52356 0.0
H640 H 0.2754 0.03286 0.18514 0.0
H641 H 0.23325 0.13104 0.31125 0.0
H642 H 0.28931 0.17261 0.20568 0.0
H643 H 0.19274 0.00828 0.28409 0.0
H644 H 0.25859 0.14277 0.27392 0.0
H645 H 0.25089 0.01838 0.22301 0.0
C646 C 0.27391 0.0602 0.19781 0.0
C647 C 0.28451 0.10399 0.19233 0.0
C648 C 0.24404 0.11338 0.27599 0.0
C649 C 0.25622 0.08783 0.23534 0.0
C650 C 0.22952 0.10667 0.2973 0.0
C651 C 0.21084 0.06864 0.30073 0.0
C652 C 0.24028 0.08152 0.25794 0.0
C653 C 0.20675 0.03824 0.28204 0.0
C654 C 0.25956 0.05206 0.21924 0.0
C655 C 0.28147 0.13837 0.20919 0.0
N656 N 0.22162 0.04511 0.26143 0.0
N657 N 0.26763 0.12955 0.22989 0.0
H658 H 0.25096 0.83345 0.81249 0.0
H659 H 0.21558 0.92908 0.68467 0.0
H660 H 0.28983 0.95926 0.78759 0.0
H661 H 0.20367 0.78898 0.70532 0.0
H662 H 0.23664 0.94571 0.72357 0.0
H663 H 0.22799 0.82146 0.77444 0.0
C664 C 0.25469 0.85869 0.79898 0.0
C665 C 0.27235 0.89756 0.8033 0.0
C666 C 0.22921 0.91147 0.71956 0.0
C667 C 0.24578 0.88387 0.75939 0.0
C668 C 0.21688 0.90203 0.6975 0.0
C669 C 0.20783 0.85754 0.69178 0.0
C670 C 0.23204 0.87628 0.73602 0.0
C671 C 0.21043 0.8237 0.70894 0.0
C672 C 0.24157 0.85169 0.77718 0.0
C673 C 0.27653 0.92874 0.78496 0.0
N674 N 0.22226 0.83379 0.73023 0.0
N675 N 0.26316 0.92136 0.76376 0.0
H676 H 0.76993 0.8303 0.69309 0.0
H677 H 0.70626 0.97121 0.80154 0.0
H678 H 0.7944 0.97051 0.70477 0.0
H679 H 0.71049 0.82458 0.79982 0.0
H680 H 0.73371 0.97357 0.76412 0.0
H681 H 0.74473 0.82884 0.73105 0.0
C682 C 0.77043 0.86056 0.70393 0.0
C683 C 0.7844 0.90047 0.69598 0.0
C684 C 0.72847 0.94096 0.77195 0.0
C685 C 0.75479 0.89958 0.7391 0.0
C686 C 0.71247 0.93958 0.79308 0.0
C687 C 0.70604 0.89763 0.8037 0.0
C688 C 0.73763 0.90009 0.76135 0.0
C689 C 0.71504 0.85765 0.79224 0.0
C690 C 0.75592 0.85982 0.72552 0.0
C691 C 0.78421 0.93893 0.71052 0.0
N692 N 0.73031 0.85989 0.7717 0.0
N693 N 0.76923 0.93775 0.73135 0.0
H694 H 0.71043 0.0346 0.19398 0.0
H695 H 0.79604 0.18096 0.29118 0.0
H696 H 0.71222 0.18123 0.19776 0.0
H697 H 0.77174 0.04116 0.30447 0.0
H698 H 0.77217 0.17597 0.25297 0.0
H699 H 0.73616 0.0315 0.23228 0.0
C700 C 0.71558 0.06599 0.20309 0.0
C701 C 0.70944 0.10826 0.19267 0.0
C702 C 0.77216 0.14615 0.2641 0.0
C703 C 0.73939 0.10494 0.23565 0.0
C704 C 0.78607 0.14889 0.28581 0.0
C705 C 0.7856 0.11156 0.30099 0.0
C706 C 0.75737 0.10586 0.25748 0.0
C707 C 0.77261 0.07066 0.29315 0.0
C708 C 0.73052 0.0642 0.22473 0.0
C709 C 0.71686 0.14793 0.20501 0.0
N710 N 0.75858 0.06897 0.27191 0.0
N711 N 0.73166 0.14526 0.22567 0.0
H712 H 0.71874 0.53874 0.29912 0.0
H713 H 0.81471 0.66779 0.2011 0.0
H714 H 0.72932 0.68435 0.29287 0.0
H715 H 0.77878 0.53382 0.1879 0.0
H716 H 0.7929 0.66588 0.2402 0.0
H717 H 0.74645 0.52958 0.26193 0.0
C718 C 0.72641 0.5687 0.28982 0.0
C719 C 0.72183 0.61239 0.29923 0.0
C720 C 0.79008 0.63652 0.22894 0.0
C721 C 0.75415 0.602 0.25746 0.0
C722 C 0.80287 0.63742 0.20676 0.0
C723 C 0.79839 0.60102 0.19136 0.0
C724 C 0.77227 0.5992 0.23573 0.0
C725 C 0.78282 0.56242 0.19944 0.0
C726 C 0.74245 0.56339 0.26879 0.0
C727 C 0.73253 0.64997 0.28654 0.0
N728 N 0.76979 0.56274 0.22107 0.0
N729 N 0.74833 0.64384 0.26652 0.0
H730 H 0.78283 0.45541 0.78573 0.0
H731 H 0.68282 0.32767 0.69071 0.0
H732 H 0.74568 0.32158 0.79755 0.0
H733 H 0.68752 0.47391 0.69443 0.0
H734 H 0.70931 0.32281 0.72825 0.0
H735 H 0.75355 0.46041 0.74929 0.0
C736 C 0.76908 0.42671 0.78036 0.0
C737 C 0.76675 0.38791 0.79453 0.0
C738 C 0.70407 0.35599 0.7211 0.0
C739 C 0.73296 0.39374 0.75336 0.0
C740 C 0.68873 0.35875 0.69986 0.0
C741 C 0.68263 0.40124 0.68986 0.0
C742 C 0.71412 0.39603 0.73201 0.0
C743 C 0.69133 0.4406 0.70195 0.0
C744 C 0.75203 0.42989 0.75983 0.0
C745 C 0.74812 0.35205 0.78707 0.0
N746 N 0.70711 0.43707 0.72232 0.0
N747 N 0.73197 0.35579 0.76697 0.0
H748 H 0.21374 0.32733 0.81282 0.0
H749 H 0.25363 0.42825 0.68683 0.0
H750 H 0.18138 0.4588 0.79052 0.0
H751 H 0.262 0.28664 0.70567 0.0
H752 H 0.23166 0.44367 0.72557 0.0
H753 H 0.23508 0.31492 0.7742 0.0
C754 C 0.21098 0.35358 0.79967 0.0
C755 C 0.19583 0.39424 0.80489 0.0
C756 C 0.23846 0.40933 0.72118 0.0
C757 C 0.22063 0.38036 0.76046 0.0
C758 C 0.25131 0.40059 0.69923 0.0
C759 C 0.25974 0.35608 0.69306 0.0
C760 C 0.23441 0.37338 0.73707 0.0
C761 C 0.25579 0.32142 0.70963 0.0
C762 C 0.22319 0.34644 0.77759 0.0
C763 C 0.19275 0.42688 0.78713 0.0
N764 N 0.24346 0.33083 0.73081 0.0
N765 N 0.20533 0.41942 0.76566 0.0
H766 H 0.21142 0.67474 0.20821 0.0
H767 H 0.30657 0.50364 0.2884 0.0
H768 H 0.22492 0.53426 0.18902 0.0
H769 H 0.2691 0.63068 0.31262 0.0
H770 H 0.28163 0.51587 0.25026 0.0
H771 H 0.23595 0.66013 0.24566 0.0
C772 C 0.21916 0.64059 0.21206 0.0
C773 C 0.21592 0.6056 0.19557 0.0
C774 C 0.27905 0.54103 0.26397 0.0
C775 C 0.24485 0.58877 0.23826 0.0
C776 C 0.29353 0.53433 0.28555 0.0
C777 C 0.28981 0.56616 0.30363 0.0
C778 C 0.26119 0.58008 0.26051 0.0
C779 C 0.2724 0.60511 0.2992 0.0
C780 C 0.23332 0.63227 0.23341 0.0
C781 C 0.22658 0.56203 0.20142 0.0
N782 N 0.2588 0.61093 0.27816 0.0
N783 N 0.24089 0.5549 0.22223 0.0
H784 H 0.41893 0.05716 0.14681 0.0
H785 H 0.57048 0.20141 0.14853 0.0
H786 H 0.42484 0.20294 0.13903 0.0
H787 H 0.56838 0.05469 0.14809 0.0
H788 H 0.51658 0.20231 0.1574 0.0
H789 H 0.47229 0.0558 0.15864 0.0
C790 C 0.43128 0.08893 0.14804 0.0
C791 C 0.41776 0.1301 0.14137 0.0
C792 C 0.52794 0.16983 0.15581 0.0
C793 C 0.47842 0.12881 0.15491 0.0
C794 C 0.55872 0.16934 0.15079 0.0
C795 C 0.57363 0.12794 0.14703 0.0
C796 C 0.51183 0.12864 0.15655 0.0
C797 C 0.55756 0.08735 0.15059 0.0
C798 C 0.46169 0.08813 0.15477 0.0
C799 C 0.43463 0.17031 0.14345 0.0
N800 N 0.52724 0.08868 0.15459 0.0
N801 N 0.46415 0.16857 0.14975 0.0
H802 H 0.06523 0.76535 0.63698 0.0
H803 H 0.93171 0.94008 0.65496 0.0
H804 H 0.07864 0.90953 0.64707 0.0
H805 H 0.92007 0.79574 0.64402 0.0
H806 H 0.98548 0.92732 0.66234 0.0
H807 H 0.01288 0.77369 0.6494 0.0
C808 C 0.05719 0.79876 0.64203 0.0
C809 C 0.07604 0.83703 0.64041 0.0
C810 C 0.97102 0.89835 0.65881 0.0
C811 C 0.01599 0.84693 0.65443 0.0
C812 C 0.94028 0.90558 0.65467 0.0
C813 C 0.92159 0.86905 0.64817 0.0
C814 C 0.98299 0.85436 0.65636 0.0
C815 C 0.93384 0.82506 0.64833 0.0
C816 C 0.02731 0.80348 0.64922 0.0
C817 C 0.0647 0.87926 0.64773 0.0
N818 N 0.96388 0.81906 0.6519 0.0
N819 N 0.03515 0.88328 0.65398 0.0
H820 H 0.56328 0.80407 0.84121 0.0
H821 H 0.41831 0.95045 0.82322 0.0
H822 H 0.56277 0.94926 0.8302 0.0
H823 H 0.42021 0.80857 0.84265 0.0
H824 H 0.47033 0.94402 0.80932 0.0
H825 H 0.51233 0.79961 0.82509 0.0
C826 C 0.55259 0.83493 0.83498 0.0
C827 C 0.56661 0.87735 0.83789 0.0
C828 C 0.45908 0.91399 0.81603 0.0
C829 C 0.50824 0.87265 0.81993 0.0
C830 C 0.42936 0.91762 0.82399 0.0
C831 C 0.41548 0.88045 0.83507 0.0
C832 C 0.47484 0.87305 0.81937 0.0
C833 C 0.43056 0.83854 0.83507 0.0
C834 C 0.52356 0.83236 0.82568 0.0
C835 C 0.55232 0.91604 0.82881 0.0
N836 N 0.45972 0.83623 0.82788 0.0
N837 N 0.52344 0.91298 0.82085 0.0
H838 H 0.92902 0.19604 0.35527 0.0
H839 H 0.05756 0.01612 0.33452 0.0
H840 H 0.91202 0.05427 0.34032 0.0
H841 H 0.07307 0.15983 0.34468 0.0
H842 H 0.00435 0.03214 0.32647 0.0
H843 H 0.98094 0.1865 0.34192 0.0
C844 C 0.93612 0.163 0.34893 0.0
C845 C 0.91642 0.1256 0.34953 0.0
C846 C 0.01954 0.06028 0.32994 0.0
C847 C 0.97596 0.11426 0.33443 0.0
C848 C 0.04997 0.05115 0.33446 0.0
C849 C 0.0695 0.08657 0.34106 0.0
C850 C 0.00873 0.10502 0.33221 0.0
C851 C 0.05855 0.13133 0.34038 0.0
C852 C 0.96577 0.15758 0.34119 0.0
C853 C 0.92662 0.08386 0.34055 0.0
N854 N 0.02875 0.13919 0.33657 0.0
N855 N 0.95591 0.07906 0.33384 0.0
H856 H 0.9259 0.55238 0.14009 0.0
H857 H 0.07496 0.70398 0.14538 0.0
H858 H 0.9294 0.69807 0.13101 0.0
H859 H 0.07651 0.55729 0.14409 0.0
H860 H 0.02043 0.70181 0.15135 0.0
H861 H 0.97941 0.55334 0.15161 0.0
C862 C 0.93777 0.58459 0.14088 0.0
C863 C 0.92342 0.6251 0.13411 0.0
C864 C 0.03267 0.66999 0.15016 0.0
C865 C 0.98424 0.62645 0.14739 0.0
C866 C 0.06381 0.67125 0.14683 0.0
C867 C 0.08005 0.63077 0.1438 0.0
C868 C 0.01754 0.62797 0.14999 0.0
C869 C 0.06467 0.58926 0.14618 0.0
C870 C 0.96826 0.5851 0.14743 0.0
C871 C 0.93976 0.66591 0.13558 0.0
N872 N 0.03404 0.58889 0.14862 0.0
N873 N 0.96931 0.66546 0.14185 0.0
H874 H 0.54071 0.44012 0.65095 0.0
H875 H 0.40479 0.2652 0.64604 0.0
H876 H 0.54878 0.29675 0.63563 0.0
H877 H 0.39359 0.41083 0.65003 0.0
H878 H 0.45817 0.27426 0.65557 0.0
H879 H 0.4884 0.42749 0.66324 0.0
C880 C 0.53169 0.40584 0.65059 0.0
C881 C 0.5488 0.3696 0.64161 0.0
C882 C 0.44397 0.30423 0.6548 0.0
C883 C 0.48919 0.35506 0.65567 0.0
C884 C 0.41351 0.29908 0.64934 0.0
C885 C 0.39506 0.33747 0.64656 0.0
C886 C 0.45614 0.34812 0.65705 0.0
C887 C 0.40724 0.38043 0.65162 0.0
C888 C 0.50184 0.3987 0.65762 0.0
C889 C 0.53612 0.32587 0.64183 0.0
N890 N 0.4373 0.38474 0.65608 0.0
N891 N 0.50692 0.31995 0.6484 0.0
H892 H 0.05567 0.2992 0.8572 0.0
H893 H 0.90957 0.43113 0.82259 0.0
H894 H 0.0547 0.43632 0.8301 0.0
H895 H 0.91109 0.29278 0.84802 0.0
H896 H 0.963 0.42471 0.81271 0.0
H897 H 0.00482 0.28775 0.84186 0.0
C898 C 0.04492 0.32672 0.84774 0.0
C899 C 0.05893 0.36938 0.84573 0.0
C900 C 0.95149 0.39539 0.81997 0.0
C901 C 0.00066 0.35666 0.82835 0.0
C902 C 0.92094 0.39906 0.82566 0.0
C903 C 0.90622 0.36314 0.83716 0.0
C904 C 0.96736 0.3558 0.82615 0.0
C905 C 0.92184 0.32198 0.84 0.0
C906 C 0.01592 0.32009 0.83886 0.0
C907 C 0.04438 0.40328 0.83263 0.0
N908 N 0.95181 0.31982 0.83511 0.0
N909 N 0.01568 0.39657 0.82494 0.0
H910 H 0.42344 0.65897 0.34806 0.0
H911 H 0.58664 0.55358 0.33298 0.0
H912 H 0.44106 0.51519 0.34112 0.0
H913 H 0.56791 0.69484 0.34778 0.0
H914 H 0.53324 0.54215 0.32356 0.0
H915 H 0.47505 0.67492 0.33559 0.0
C916 C 0.43808 0.63074 0.34358 0.0
C917 C 0.42828 0.58564 0.34629 0.0
C918 C 0.54097 0.57586 0.32837 0.0
C919 C 0.48752 0.60366 0.33229 0.0
C920 C 0.57149 0.58249 0.33367 0.0
C921 C 0.58155 0.62495 0.34186 0.0
C922 C 0.52052 0.61195 0.33129 0.0
C923 C 0.56097 0.66123 0.34216 0.0
C924 C 0.46754 0.63987 0.3364 0.0
C925 C 0.4479 0.55045 0.33965 0.0
N926 N 0.53133 0.6537 0.33739 0.0
N927 N 0.47689 0.56017 0.33346 0.0
H928 H 0.22812 0.04734 0.15352 0.0
H929 H 0.15114 0.82192 0.10764 0.0
H930 H 0.2395 0.00558 0.08168 0.0
H931 H 0.21787 0.81462 0.16266 0.0
H932 H 0.16158 0.9035 0.1036 0.0
H933 H 0.20229 0.97498 0.16173 0.0
C934 C 0.22414 0.02367 0.1393 0.0
C935 C 0.23571 0.03228 0.11684 0.0
C936 C 0.17314 0.88412 0.11702 0.0
C937 C 0.20604 0.95063 0.12608 0.0
C938 C 0.16709 0.83781 0.11952 0.0
C939 C 0.1837 0.8116 0.13556 0.0
C940 C 0.19524 0.9044 0.13112 0.0
C941 C 0.20461 0.83372 0.15013 0.0
C942 C 0.20969 0.98248 0.14407 0.0
C943 C 0.23071 0.00013 0.09915 0.0
N944 N 0.20991 0.87902 0.14751 0.0
N945 N 0.21617 0.96052 0.10415 0.0
H946 H 0.2587 0.94704 0.58033 0.0
H947 H 0.26291 0.14426 0.66279 0.0
H948 H 0.2621 0.91242 0.6536 0.0
H949 H 0.33411 0.13992 0.61118 0.0
H950 H 0.25783 0.06115 0.65958 0.0
H951 H 0.28284 0.02039 0.58941 0.0
C952 C 0.26542 0.95438 0.59817 0.0
C953 C 0.25885 0.92369 0.61621 0.0
C954 C 0.27511 0.07847 0.64949 0.0
C955 C 0.2848 0.00762 0.62678 0.0
C956 C 0.27801 0.12567 0.65132 0.0
C957 C 0.29904 0.14882 0.63734 0.0
C958 C 0.29251 0.05486 0.63293 0.0
C959 C 0.31783 0.12327 0.62246 0.0
C960 C 0.27904 -0.00393 0.60335 0.0
C961 C 0.2673 0.93504 0.63919 0.0
N962 N 0.31352 0.07773 0.62012 0.0
N963 N 0.27907 0.97677 0.64396 0.0
H964 H 0.21323 0.24427 0.85094 0.0
H965 H 0.20678 0.9866 0.88758 0.0
H966 H 0.14263 0.2047 0.8991 0.0
H967 H 0.28783 0.06895 0.88587 0.0
H968 H 0.17633 0.05674 0.88426 0.0
H969 H 0.23296 0.16703 0.85218 0.0
C970 C 0.2015 0.21904 0.86139 0.0
C971 C 0.17679 0.23101 0.87541 0.0
C972 C 0.20078 0.05894 0.88487 0.0
C973 C 0.19941 0.14312 0.87706 0.0
C974 C 0.21811 0.01927 0.88697 0.0
C975 C 0.24986 0.02203 0.88655 0.0
C976 C 0.2156 0.10075 0.88196 0.0
C977 C 0.26345 0.06509 0.88572 0.0
C978 C 0.21283 0.17516 0.86216 0.0
C979 C 0.16201 0.19677 0.88825 0.0
N980 N 0.24626 0.10263 0.88306 0.0
N981 N 0.17394 0.15415 0.88916 0.0
H982 H 0.29117 0.71646 0.3417 0.0
H983 H 0.26612 0.95456 0.40501 0.0
H984 H 0.33469 0.75151 0.40686 0.0
H985 H 0.22382 0.91219 0.34042 0.0
H986 H 0.29862 0.88673 0.40325 0.0
H987 H 0.27477 0.79496 0.33747 0.0
C988 C 0.29764 0.74105 0.35494 0.0
C989 C 0.31381 0.72764 0.37481 0.0
C990 C 0.2824 0.89273 0.38939 0.0
C991 C 0.2944 0.81722 0.37055 0.0
C992 C 0.26385 0.93123 0.39043 0.0
C993 C 0.24178 0.93828 0.37316 0.0
C994 C 0.27885 0.86168 0.37084 0.0
C995 C 0.23996 0.90747 0.35447 0.0
C996 C 0.28824 0.78586 0.35259 0.0
C997 C 0.32205 0.76073 0.39133 0.0
N998 N 0.25806 0.87048 0.35392 0.0
N999 N 0.31166 0.80403 0.38911 0.0
H1000 H 0.77533 0.20858 0.83938 0.0
H1001 H 0.72567 0.01839 0.92044 0.0
H1002 H 0.81436 0.20562 0.90864 0.0
H1003 H 0.75742 0.98021 0.85188 0.0
H1004 H 0.75415 0.09003 0.91726 0.0
H1005 H 0.76385 0.12696 0.843 0.0
C1006 C 0.78186 0.1906 0.85514 0.0
C1007 C 0.79578 0.21365 0.87372 0.0
C1008 C 0.75552 0.06529 0.90323 0.0
C1009 C 0.78217 0.12158 0.87813 0.0
C1010 C 0.73948 0.0246 0.9051 0.0
C1011 C 0.73982 0.99352 0.88656 0.0
C1012 C 0.77071 0.0754 0.88229 0.0
C1013 C 0.75724 0.00327 0.86668 0.0
C1014 C 0.77548 0.14424 0.85714 0.0
C1015 C 0.80376 0.18895 0.89385 0.0
N1016 N 0.77145 0.04408 0.86476 0.0
N1017 N 0.7962 0.14438 0.89576 0.0
H1018 H 0.73683 0.00881 0.41378 0.0
H1019 H 0.71659 0.81203 0.33173 0.0
H1020 H 0.72844 0.04345 0.34076 0.0
H1021 H 0.65092 0.82302 0.38725 0.0
H1022 H 0.72591 0.89435 0.33475 0.0
H1023 H 0.70939 0.93744 0.40614 0.0
C1024 C 0.72843 0.00188 0.39632 0.0
C1025 C 0.73441 0.03202 0.37792 0.0
C1026 C 0.70887 0.87877 0.34578 0.0
C1027 C 0.7046 0.9503 0.36894 0.0
C1028 C 0.70355 0.83203 0.34405 0.0
C1029 C 0.68279 0.81101 0.35911 0.0
C1030 C 0.69425 0.90392 0.36333 0.0
C1031 C 0.6668 0.83818 0.37511 0.0
C1032 C 0.71289 0.96135 0.39197 0.0
C1033 C 0.72372 0.02124 0.35544 0.0
N1034 N 0.67349 0.88312 0.37728 0.0
N1035 N 0.71001 0.98056 0.35141 0.0
H1036 H 0.77647 0.04252 0.14365 0.0
H1037 H 0.79015 0.80356 0.1603 0.0
H1038 H 0.73662 0.98156 0.08225 0.0
H1039 H 0.84102 0.81443 0.09615 0.0
H1040 H 0.77715 0.88476 0.15708 0.0
H1041 H 0.80601 0.97264 0.14994 0.0
C1042 C 0.7748 0.01509 0.13103 0.0
C1043 C 0.75424 0.01765 0.11233 0.0
C1044 C 0.79192 0.86946 0.14416 0.0
C1045 C 0.78789 0.9387 0.11934 0.0
C1046 C 0.79938 0.82343 0.14601 0.0
C1047 C 0.81704 0.80267 0.12867 0.0
C1048 C 0.80129 0.89407 0.12441 0.0
C1049 C 0.82785 0.82952 0.11012 0.0
C1050 C 0.7914 0.97534 0.13478 0.0
C1051 C 0.75231 0.98082 0.09681 0.0
N1052 N 0.81903 0.87363 0.10807 0.0
N1053 N 0.76896 0.94269 0.10066 0.0
H1054 H 0.64243 0.19815 0.59471 0.0
H1055 H 0.77433 0.04978 0.64999 0.0
H1056 H 0.70065 0.24074 0.65128 0.0
H1057 H 0.71679 -0.00127 0.59479 0.0
H1058 H 0.74216 0.11571 0.65373 0.0
H1059 H 0.66292 0.12086 0.59807 0.0
C1060 C 0.65888 0.1909 0.60827 0.0
C1061 C 0.6703 0.22588 0.62251 0.0
C1062 C 0.73636 0.09028 0.64076 0.0
C1063 C 0.69395 0.13828 0.62621 0.0
C1064 C 0.75496 0.05266 0.63844 0.0
C1065 C 0.74864 0.0192 0.62163 0.0
C1066 C 0.71131 0.09526 0.62592 0.0
C1067 C 0.72266 0.02415 0.60773 0.0
C1068 C 0.67071 0.14694 0.61004 0.0
C1069 C 0.69163 0.21488 0.6397 0.0
N1070 N 0.70508 0.06199 0.60995 0.0
N1071 N 0.703 0.17221 0.64086 0.0
H1072 H 0.7144 0.29899 0.15797 0.0
H1073 H 0.74143 0.50016 0.07898 0.0
H1074 H 0.65119 0.31763 0.10125 0.0
H1075 H 0.73375 0.52984 0.15264 0.0
H1076 H 0.71258 0.42956 0.08521 0.0
H1077 H 0.72643 0.38065 0.15636 0.0
C1078 C 0.7025 0.32052 0.14565 0.0
C1079 C 0.68167 0.3018 0.12982 0.0
C1080 C 0.71663 0.45219 0.09986 0.0
C1081 C 0.69617 0.39398 0.12728 0.0
C1082 C 0.733 0.49225 0.09632 0.0
C1083 C 0.73951 0.52079 0.11529 0.0
C1084 C 0.70799 0.43995 0.12265 0.0
C1085 C 0.72867 0.50885 0.13755 0.0
C1086 C 0.70936 0.36689 0.14473 0.0
C1087 C 0.66713 0.33094 0.11393 0.0
N1088 N 0.71405 0.46862 0.14077 0.0
N1089 N 0.67528 0.37545 0.1126 0.0
H1090 H 0.75919 0.49265 0.59593 0.0
H1091 H 0.76789 0.73884 0.65513 0.0
H1092 H 0.68847 0.5581 0.63583 0.0
H1093 H 0.8266 0.70095 0.598 0.0
H1094 H 0.74754 0.66186 0.65558 0.0
H1095 H 0.79129 0.56042 0.60206 0.0
C1096 C 0.75041 0.52112 0.60585 0.0
C1097 C 0.72094 0.51997 0.61504 0.0
C1098 C 0.76517 0.67015 0.64312 0.0
C1099 C 0.75756 0.59608 0.62273 0.0
C1100 C 0.77689 0.71401 0.64296 0.0
C1101 C 0.79846 0.72642 0.6262 0.0
C1102 C 0.77474 0.63865 0.62617 0.0
C1103 C 0.80974 0.69272 0.61108 0.0
C1104 C 0.76873 0.55949 0.60945 0.0
C1105 C 0.71078 0.55755 0.628 0.0
N1106 N 0.79727 0.65039 0.61108 0.0
N1107 N 0.72904 0.5938 0.63147 0.0
H1108 H 0.636 0.69086 0.89398 0.0
H1109 H 0.74152 0.50938 0.83067 0.0
H1110 H 0.69807 0.71957 0.83764 0.0
H1111 H 0.71015 0.49173 0.90158 0.0
H1112 H 0.7102 0.57696 0.82702 0.0
H1113 H 0.64863 0.60964 0.89079 0.0
C1114 C 0.65154 0.67981 0.88047 0.0
C1115 C 0.66628 0.71164 0.86612 0.0
C1116 C 0.70981 0.55809 0.8433 0.0
C1117 C 0.68056 0.61973 0.86242 0.0
C1118 C 0.72771 0.51967 0.84544 0.0
C1119 C 0.72894 0.49596 0.86669 0.0
C1120 C 0.69326 0.57339 0.86265 0.0
C1121 C 0.71003 0.5097 0.88505 0.0
C1122 C 0.65886 0.6337 0.87881 0.0
C1123 C 0.68646 0.69598 0.84911 0.0
N1124 N 0.69329 0.54836 0.88279 0.0
N1125 N 0.69316 0.6511 0.84782 0.0
H1126 H 0.75498 0.50736 0.41433 0.0
H1127 H 0.78581 0.31271 0.33299 0.0
H1128 H 0.77258 0.54383 0.34254 0.0
H1129 H 0.84426 0.32266 0.39323 0.0
H1130 H 0.77601 0.3949 0.33584 0.0
H1131 H 0.78337 0.4363 0.40838 0.0
C1132 C 0.7656 0.50091 0.39757 0.0
C1133 C 0.76197 0.53149 0.379 0.0
C1134 C 0.79163 0.37914 0.34799 0.0
C1135 C 0.79288 0.45012 0.37181 0.0
C1136 C 0.79723 0.33249 0.34635 0.0
C1137 C 0.81608 0.31121 0.36274 0.0
C1138 C 0.80394 0.40393 0.36671 0.0
C1139 C 0.82994 0.33805 0.38005 0.0
C1140 C 0.78167 0.46056 0.39417 0.0
C1141 C 0.77546 0.5213 0.35738 0.0
N1142 N 0.82291 0.3829 0.38202 0.0
N1143 N 0.78968 0.48079 0.35415 0.0
H1144 H 0.33766 0.70463 0.89214 0.0
H1145 H 0.18723 0.57189 0.87767 0.0
H1146 H 0.26706 0.7444 0.84414 0.0
H1147 H 0.2687 0.49245 0.88663 0.0
H1148 H 0.21783 0.63897 0.87145 0.0
H1149 H 0.31601 0.62754 0.89338 0.0
C1150 C 0.3183 0.69671 0.88124 0.0
C1151 C 0.30359 0.73095 0.86843 0.0
C1152 C 0.22907 0.60685 0.8747 0.0
C1153 C 0.27875 0.64427 0.87024 0.0
C1154 C 0.21162 0.56851 0.8785 0.0
C1155 C 0.22543 0.52623 0.8823 0.0
C1156 C 0.26065 0.60339 0.875 0.0
C1157 C 0.25719 0.5244 0.88362 0.0
C1158 C 0.30593 0.65294 0.88209 0.0
C1159 C 0.27861 0.71915 0.85465 0.0
N1160 N 0.27391 0.5627 0.87993 0.0
N1161 N 0.26658 0.67698 0.8563 0.0
H1162 H 0.23074 0.4567 0.40979 0.0
H1163 H 0.15468 0.24756 0.4037 0.0
H1164 H 0.27284 0.41397 0.34528 0.0
H1165 H 0.21811 0.21899 0.34817 0.0
H1166 H 0.17036 0.32728 0.40299 0.0
H1167 H 0.19928 0.38808 0.40889 0.0
C1168 C 0.23302 0.43314 0.39532 0.0
C1169 C 0.25484 0.44035 0.3779 0.0
C1170 C 0.18087 0.30375 0.39095 0.0
C1171 C 0.21865 0.36254 0.37629 0.0
C1172 C 0.17163 0.25825 0.39116 0.0
C1173 C 0.18559 0.22653 0.37628 0.0
C1174 C 0.20419 0.31723 0.37571 0.0
C1175 C 0.2072 0.2421 0.36028 0.0
C1176 C 0.21492 0.39401 0.39468 0.0
C1177 C 0.25684 0.40915 0.35942 0.0
N1178 N 0.21596 0.28619 0.36058 0.0
N1179 N 0.23919 0.37161 0.35923 0.0
H1180 H 0.25725 0.50816 0.08196 0.0
H1181 H 0.28633 0.31205 0.16285 0.0
H1182 H 0.27194 0.54312 0.15438 0.0
H1183 H 0.34574 0.32382 0.10326 0.0
H1184 H 0.27651 0.39426 0.16054 0.0
H1185 H 0.28561 0.43719 0.08814 0.0
C1186 C 0.26714 0.50134 0.09895 0.0
C1187 C 0.26269 0.53146 0.11763 0.0
C1188 C 0.29235 0.37888 0.14844 0.0
C1189 C 0.29367 0.45027 0.125 0.0
C1190 C 0.29797 0.3322 0.14977 0.0
C1191 C 0.31699 0.31137 0.13333 0.0
C1192 C 0.30489 0.40416 0.13 0.0
C1193 C 0.3312 0.33876 0.11644 0.0
C1194 C 0.28323 0.46107 0.10247 0.0
C1195 C 0.27538 0.5209 0.13949 0.0
N1196 N 0.32417 0.38362 0.11475 0.0
N1197 N 0.28966 0.48047 0.14278 0.0
H1198 H 0.20483 0.64427 0.66172 0.0
H1199 H 0.21662 0.447 0.57906 0.0
H1200 H 0.13915 0.63978 0.60588 0.0
H1201 H 0.20796 0.41283 0.65213 0.0
H1202 H 0.19172 0.52023 0.58693 0.0
H1203 H 0.21046 0.56124 0.65864 0.0
C1204 C 0.191 0.62565 0.64932 0.0
C1205 C 0.1714 0.64875 0.63414 0.0
C1206 C 0.19454 0.49603 0.60106 0.0
C1207 C 0.17865 0.55487 0.6299 0.0
C1208 C 0.2086 0.45441 0.59657 0.0
C1209 C 0.21386 0.42385 0.61491 0.0
C1210 C 0.18702 0.50768 0.62417 0.0
C1211 C 0.20376 0.43531 0.63747 0.0
C1212 C 0.19423 0.57849 0.64755 0.0
C1213 C 0.15427 0.62317 0.61809 0.0
N1214 N 0.19156 0.47697 0.64163 0.0
N1215 N 0.15894 0.57769 0.61591 0.0
loop_
_geom_bond_atom_site_label_1
_geom_bond_atom_site_label_2
_geom_bond_distance
_geom_bond_site_symmetry_2
_ccdc_geom_bond_type
Sc0 O3 2.025 . S
Sc0 O10 2.105 . S
Sc0 O13 2.105 . S
Sc0 O16 2.105 . S
Sc0 O19 2.105 . S
Sc1 O3 2.025 . S
Sc1 O11 2.105 . S
Sc1 O15 2.105 . S
Sc1 O17 2.105 . S
Sc1 O21 2.105 . S
Sc2 O3 2.025 . S
Sc2 O12 2.105 . S
Sc2 O14 2.105 . S
Sc2 O18 2.105 . S
Sc2 O20 2.105 . S
O3 Sc0 2.025 . S
O3 Sc1 2.025 . S
O3 Sc2 2.025 . S
C4 O10 1.268 . S
C4 O20 1.268 . S
C5 O11 1.268 . S
C5 O19 1.268 . S
C6 O12 1.268 . S
C6 O21 1.268 . S
C7 O13 1.268 . S
C7 O17 1.268 . S
C8 O14 1.268 . S
C8 O16 1.268 . S
C9 O15 1.268 . S
C9 O18 1.268 . S
O10 Sc0 2.105 . S
O10 C4 1.268 . S
O11 Sc1 2.105 . S
O11 C5 1.268 . S
O12 Sc2 2.105 . S
O12 C6 1.268 . S
O13 Sc0 2.105 . S
O13 C7 1.268 . S
O14 Sc2 2.105 . S
O14 C8 1.268 . S
O15 Sc1 2.105 . S
O15 C9 1.268 . S
O16 Sc0 2.105 . S
O16 C8 1.268 . S
O17 Sc1 2.105 . S
O17 C7 1.268 . S
O18 Sc2 2.105 . S
O18 C9 1.268 . S
O19 Sc0 2.105 . S
O19 C5 1.268 . S
O20 Sc2 2.105 . S
O20 C4 1.268 . S
O21 Sc1 2.105 . S
O21 C6 1.268 . S
Sc22 O25 2.025 . S
Sc22 O32 2.105 . S
Sc22 O35 2.105 . S
Sc22 O38 2.105 . S
Sc22 O41 2.105 . S
Sc23 O25 2.025 . S
Sc23 O33 2.105 . S
Sc23 O37 2.105 . S
Sc23 O39 2.105 . S
Sc23 O43 2.105 . S
Sc24 O25 2.025 . S
Sc24 O34 2.105 . S
Sc24 O36 2.105 . S
Sc24 O40 2.105 . S
Sc24 O42 2.105 . S
O25 Sc22 2.025 . S
O25 Sc23 2.025 . S
O25 Sc24 2.025 . S
C26 O32 1.268 . S
C26 O42 1.268 . S
C27 O33 1.268 . S
C27 O41 1.268 . S
C28 O34 1.268 . S
C28 O43 1.268 . S
C29 O35 1.268 . S
C29 O39 1.268 . S
C30 O36 1.268 . S
C30 O38 1.268 . S
C31 O37 1.268 . S
C31 O40 1.268 . S
O32 Sc22 2.105 . S
O32 C26 1.268 . S
O33 Sc23 2.105 . S
O33 C27 1.268 . S
O34 Sc24 2.105 . S
O34 C28 1.268 . S
O35 Sc22 2.105 . S
O35 C29 1.268 . S
O36 Sc24 2.105 . S
O36 C30 1.268 . S
O37 Sc23 2.105 . S
O37 C31 1.268 . S
O38 Sc22 2.105 . S
O38 C30 1.268 . S
O39 Sc23 2.105 . S
O39 C29 1.268 . S
O40 Sc24 2.105 . S
O40 C31 1.268 . S
O41 Sc22 2.105 . S
O41 C27 1.268 . S
O42 Sc24 2.105 . S
O42 C26 1.268 . S
O43 Sc23 2.105 . S
O43 C28 1.268 . S
Sc44 O47 2.025 . S
Sc44 O54 2.105 . S
Sc44 O57 2.105 . S
Sc44 O60 2.105 . S
Sc44 O63 2.105 . S
Sc45 O47 2.025 . S
Sc45 O55 2.105 . S
Sc45 O59 2.105 . S
Sc45 O61 2.105 . S
Sc45 O65 2.105 . S
Sc46 O47 2.025 . S
Sc46 O56 2.105 . S
Sc46 O58 2.105 . S
Sc46 O62 2.105 . S
Sc46 O64 2.105 . S
O47 Sc44 2.025 . S
O47 Sc45 2.025 . S
O47 Sc46 2.025 . S
C48 O54 1.268 . S
C48 O64 1.268 . S
C49 O55 1.268 . S
C49 O63 1.268 . S
C50 O56 1.268 . S
C50 O65 1.268 . S
C51 O57 1.268 . S
C51 O61 1.268 . S
C52 O58 1.268 . S
C52 O60 1.268 . S
C53 O59 1.268 . S
C53 O62 1.268 . S
O54 Sc44 2.105 . S
O54 C48 1.268 . S
O55 Sc45 2.105 . S
O55 C49 1.268 . S
O56 Sc46 2.105 . S
O56 C50 1.268 . S
O57 Sc44 2.105 . S
O57 C51 1.268 . S
O58 Sc46 2.105 . S
O58 C52 1.268 . S
O59 Sc45 2.105 . S
O59 C53 1.268 . S
O60 Sc44 2.105 . S
O60 C52 1.268 . S
O61 Sc45 2.105 . S
O61 C51 1.268 . S
O62 Sc46 2.105 . S
O62 C53 1.268 . S
O63 Sc44 2.105 . S
O63 C49 1.268 . S
O64 Sc46 2.105 . S
O64 C48 1.268 . S
O65 Sc45 2.105 . S
O65 C50 1.268 . S
Sc66 O69 2.025 . S
Sc66 O76 2.105 . S
Sc66 O79 2.105 . S
Sc66 O82 2.105 . S
Sc66 O85 2.105 . S
Sc67 O69 2.025 . S
Sc67 O77 2.105 . S
Sc67 O81 2.105 . S
Sc67 O83 2.105 . S
Sc67 O87 2.105 . S
Sc68 O69 2.025 . S
Sc68 O78 2.105 . S
Sc68 O80 2.105 . S
Sc68 O84 2.105 . S
Sc68 O86 2.105 . S
O69 Sc66 2.025 . S
O69 Sc67 2.025 . S
O69 Sc68 2.025 . S
C70 O76 1.268 . S
C70 O86 1.268 . S
C71 O77 1.268 . S
C71 O85 1.268 . S
C72 O78 1.268 . S
C72 O87 1.268 . S
C73 O79 1.268 . S
C73 O83 1.268 . S
C74 O80 1.268 . S
C74 O82 1.268 . S
C75 O81 1.268 . S
C75 O84 1.268 . S
O76 Sc66 2.105 . S
O76 C70 1.268 . S
O77 Sc67 2.105 . S
O77 C71 1.268 . S
O78 Sc68 2.105 . S
O78 C72 1.268 . S
O79 Sc66 2.105 . S
O79 C73 1.268 . S
O80 Sc68 2.105 . S
O80 C74 1.268 . S
O81 Sc67 2.105 . S
O81 C75 1.268 . S
O82 Sc66 2.105 . S
O82 C74 1.268 . S
O83 Sc67 2.105 . S
O83 C73 1.268 . S
O84 Sc68 2.105 . S
O84 C75 1.268 . S
O85 Sc66 2.105 . S
O85 C71 1.268 . S
O86 Sc68 2.105 . S
O86 C70 1.268 . S
O87 Sc67 2.105 . S
O87 C72 1.268 . S
Sc88 O91 2.025 . S
Sc88 O98 2.105 . S
Sc88 O101 2.105 . S
Sc88 O104 2.105 . S
Sc88 O107 2.105 . S
Sc89 O91 2.025 . S
Sc89 O99 2.105 . S
Sc89 O103 2.105 . S
Sc89 O105 2.105 . S
Sc89 O109 2.105 . S
Sc90 O91 2.025 . S
Sc90 O100 2.105 . S
Sc90 O102 2.105 . S
Sc90 O106 2.105 . S
Sc90 O108 2.105 . S
O91 Sc88 2.025 . S
O91 Sc89 2.025 . S
O91 Sc90 2.025 . S
C92 O98 1.268 . S
C92 O108 1.268 . S
C93 O99 1.268 . S
C93 O107 1.268 . S
C94 O100 1.268 . S
C94 O109 1.268 . S
C95 O101 1.268 . S
C95 O105 1.268 . S
C96 O102 1.268 . S
C96 O104 1.268 . S
C97 O103 1.268 . S
C97 O106 1.268 . S
O98 Sc88 2.105 . S
O98 C92 1.268 . S
O99 Sc89 2.105 . S
O99 C93 1.268 . S
O100 Sc90 2.105 . S
O100 C94 1.268 . S
O101 Sc88 2.105 . S
O101 C95 1.268 . S
O102 Sc90 2.105 . S
O102 C96 1.268 . S
O103 Sc89 2.105 . S
O103 C97 1.268 . S
O104 Sc88 2.105 . S
O104 C96 1.268 . S
O105 Sc89 2.105 . S
O105 C95 1.268 . S
O106 Sc90 2.105 . S
O106 C97 1.268 . S
O107 Sc88 2.105 . S
O107 C93 1.268 . S
O108 Sc90 2.105 . S
O108 C92 1.268 . S
O109 Sc89 2.105 . S
O109 C94 1.268 . S
Sc110 O113 2.025 . S
Sc110 O120 2.105 . S
Sc110 O123 2.105 . S
Sc110 O126 2.105 . S
Sc110 O129 2.105 . S
Sc111 O113 2.025 . S
Sc111 O121 2.105 . S
Sc111 O125 2.105 . S
Sc111 O127 2.105 . S
Sc111 O131 2.105 . S
Sc112 O113 2.025 . S
Sc112 O122 2.105 . S
Sc112 O124 2.105 . S
Sc112 O128 2.105 . S
Sc112 O130 2.105 . S
O113 Sc110 2.025 . S
O113 Sc111 2.025 . S
O113 Sc112 2.025 . S
C114 O120 1.268 . S
C114 O130 1.268 . S
C115 O121 1.268 . S
C115 O129 1.268 . S
C116 O122 1.268 . S
C116 O131 1.268 . S
C117 O123 1.268 . S
C117 O127 1.268 . S
C118 O124 1.268 . S
C118 O126 1.268 . S
C119 O125 1.268 . S
C119 O128 1.268 . S
O120 Sc110 2.105 . S
O120 C114 1.268 . S
O121 Sc111 2.105 . S
O121 C115 1.268 . S
O122 Sc112 2.105 . S
O122 C116 1.268 . S
O123 Sc110 2.105 . S
O123 C117 1.268 . S
O124 Sc112 2.105 . S
O124 C118 1.268 . S
O125 Sc111 2.105 . S
O125 C119 1.268 . S
O126 Sc110 2.105 . S
O126 C118 1.268 . S
O127 Sc111 2.105 . S
O127 C117 1.268 . S
O128 Sc112 2.105 . S
O128 C119 1.268 . S
O129 Sc110 2.105 . S
O129 C115 1.268 . S
O130 Sc112 2.105 . S
O130 C114 1.268 . S
O131 Sc111 2.105 . S
O131 C116 1.268 . S
Sc132 O135 2.025 . S
Sc132 O142 2.105 . S
Sc132 O145 2.105 . S
Sc132 O148 2.105 . S
Sc132 O151 2.105 . S
Sc133 O135 2.025 . S
Sc133 O143 2.105 . S
Sc133 O147 2.105 . S
Sc133 O149 2.105 . S
Sc133 O153 2.105 . S
Sc134 O135 2.025 . S
Sc134 O144 2.105 . S
Sc134 O146 2.105 . S
Sc134 O150 2.105 . S
Sc134 O152 2.105 . S
O135 Sc132 2.025 . S
O135 Sc133 2.025 . S
O135 Sc134 2.025 . S
C136 O142 1.268 . S
C136 O152 1.268 . S
C137 O143 1.268 . S
C137 O151 1.268 . S
C138 O144 1.268 . S
C138 O153 1.268 . S
C139 O145 1.268 . S
C139 O149 1.268 . S
C140 O146 1.268 . S
C140 O148 1.268 . S
C141 O147 1.268 . S
C141 O150 1.268 . S
O142 Sc132 2.105 . S
O142 C136 1.268 . S
O143 Sc133 2.105 . S
O143 C137 1.268 . S
O144 Sc134 2.105 . S
O144 C138 1.268 . S
O145 Sc132 2.105 . S
O145 C139 1.268 . S
O146 Sc134 2.105 . S
O146 C140 1.268 . S
O147 Sc133 2.105 . S
O147 C141 1.268 . S
O148 Sc132 2.105 . S
O148 C140 1.268 . S
O149 Sc133 2.105 . S
O149 C139 1.268 . S
O150 Sc134 2.105 . S
O150 C141 1.268 . S
O151 Sc132 2.105 . S
O151 C137 1.268 . S
O152 Sc134 2.105 . S
O152 C136 1.268 . S
O153 Sc133 2.105 . S
O153 C138 1.268 . S
Sc154 O157 2.025 . S
Sc154 O164 2.105 . S
Sc154 O167 2.105 . S
Sc154 O170 2.105 . S
Sc154 O173 2.105 . S
Sc155 O157 2.025 . S
Sc155 O165 2.105 . S
Sc155 O169 2.105 . S
Sc155 O171 2.105 . S
Sc155 O175 2.105 . S
Sc156 O157 2.025 . S
Sc156 O166 2.105 . S
Sc156 O168 2.105 . S
Sc156 O172 2.105 . S
Sc156 O174 2.105 . S
O157 Sc154 2.025 . S
O157 Sc155 2.025 . S
O157 Sc156 2.025 . S
C158 O164 1.268 . S
C158 O174 1.268 . S
C159 O165 1.268 . S
C159 O173 1.268 . S
C160 O166 1.268 . S
C160 O175 1.268 . S
C161 O167 1.268 . S
C161 O171 1.268 . S
C162 O168 1.268 . S
C162 O170 1.268 . S
C163 O169 1.268 . S
C163 O172 1.268 . S
O164 Sc154 2.105 . S
O164 C158 1.268 . S
O165 Sc155 2.105 . S
O165 C159 1.268 . S
O166 Sc156 2.105 . S
O166 C160 1.268 . S
O167 Sc154 2.105 . S
O167 C161 1.268 . S
O168 Sc156 2.105 . S
O168 C162 1.268 . S
O169 Sc155 2.105 . S
O169 C163 1.268 . S
O170 Sc154 2.105 . S
O170 C162 1.268 . S
O171 Sc155 2.105 . S
O171 C161 1.268 . S
O172 Sc156 2.105 . S
O172 C163 1.268 . S
O173 Sc154 2.105 . S
O173 C159 1.268 . S
O174 Sc156 2.105 . S
O174 C158 1.268 . S
O175 Sc155 2.105 . S
O175 C160 1.268 . S
Sc176 O179 2.025 . S
Sc176 O186 2.105 . S
Sc176 O189 2.105 . S
Sc176 O192 2.105 . S
Sc176 O195 2.105 . S
Sc177 O179 2.025 . S
Sc177 O187 2.105 . S
Sc177 O191 2.105 . S
Sc177 O193 2.105 . S
Sc177 O197 2.105 . S
Sc178 O179 2.025 . S
Sc178 O188 2.105 . S
Sc178 O190 2.105 . S
Sc178 O194 2.105 . S
Sc178 O196 2.105 . S
O179 Sc176 2.025 . S
O179 Sc177 2.025 . S
O179 Sc178 2.025 . S
C180 O186 1.268 . S
C180 O196 1.268 . S
C181 O187 1.268 . S
C181 O195 1.268 . S
C182 O188 1.268 . S
C182 O197 1.268 . S
C183 O189 1.268 . S
C183 O193 1.268 . S
C184 O190 1.268 . S
C184 O192 1.268 . S
C185 O191 1.268 . S
C185 O194 1.268 . S
O186 Sc176 2.105 . S
O186 C180 1.268 . S
O187 Sc177 2.105 . S
O187 C181 1.268 . S
O188 Sc178 2.105 . S
O188 C182 1.268 . S
O189 Sc176 2.105 . S
O189 C183 1.268 . S
O190 Sc178 2.105 . S
O190 C184 1.268 . S
O191 Sc177 2.105 . S
O191 C185 1.268 . S
O192 Sc176 2.105 . S
O192 C184 1.268 . S
O193 Sc177 2.105 . S
O193 C183 1.268 . S
O194 Sc178 2.105 . S
O194 C185 1.268 . S
O195 Sc176 2.105 . S
O195 C181 1.268 . S
O196 Sc178 2.105 . S
O196 C180 1.268 . S
O197 Sc177 2.105 . S
O197 C182 1.268 . S
Sc198 O201 2.025 . S
Sc198 O208 2.105 . S
Sc198 O211 2.105 . S
Sc198 O214 2.105 . S
Sc198 O217 2.105 . S
Sc199 O201 2.025 . S
Sc199 O209 2.105 . S
Sc199 O213 2.105 . S
Sc199 O215 2.105 . S
Sc199 O219 2.105 . S
Sc200 O201 2.025 . S
Sc200 O210 2.105 . S
Sc200 O212 2.105 . S
Sc200 O216 2.105 . S
Sc200 O218 2.105 . S
O201 Sc198 2.025 . S
O201 Sc199 2.025 . S
O201 Sc200 2.025 . S
C202 O208 1.268 . S
C202 O218 1.268 . S
C203 O209 1.268 . S
C203 O217 1.268 . S
C204 O210 1.268 . S
C204 O219 1.268 . S
C205 O211 1.268 . S
C205 O215 1.268 . S
C206 O212 1.268 . S
C206 O214 1.268 . S
C207 O213 1.268 . S
C207 O216 1.268 . S
O208 Sc198 2.105 . S
O208 C202 1.268 . S
O209 Sc199 2.105 . S
O209 C203 1.268 . S
O210 Sc200 2.105 . S
O210 C204 1.268 . S
O211 Sc198 2.105 . S
O211 C205 1.268 . S
O212 Sc200 2.105 . S
O212 C206 1.268 . S
O213 Sc199 2.105 . S
O213 C207 1.268 . S
O214 Sc198 2.105 . S
O214 C206 1.268 . S
O215 Sc199 2.105 . S
O215 C205 1.268 . S
O216 Sc200 2.105 . S
O216 C207 1.268 . S
O217 Sc198 2.105 . S
O217 C203 1.268 . S
O218 Sc200 2.105 . S
O218 C202 1.268 . S
O219 Sc199 2.105 . S
O219 C204 1.268 . S
Sc220 O223 2.025 . S
Sc220 O230 2.105 . S
Sc220 O233 2.105 . S
Sc220 O236 2.105 . S
Sc220 O239 2.105 . S
Sc221 O223 2.025 . S
Sc221 O231 2.105 . S
Sc221 O235 2.105 . S
Sc221 O237 2.105 . S
Sc221 O241 2.105 . S
Sc222 O223 2.025 . S
Sc222 O232 2.105 . S
Sc222 O234 2.105 . S
Sc222 O238 2.105 . S
Sc222 O240 2.105 . S
O223 Sc220 2.025 . S
O223 Sc221 2.025 . S
O223 Sc222 2.025 . S
C224 O230 1.268 . S
C224 O240 1.268 . S
C225 O231 1.268 . S
C225 O239 1.268 . S
C226 O232 1.268 . S
C226 O241 1.268 . S
C227 O233 1.268 . S
C227 O237 1.268 . S
C228 O234 1.268 . S
C228 O236 1.268 . S
C229 O235 1.268 . S
C229 O238 1.268 . S
O230 Sc220 2.105 . S
O230 C224 1.268 . S
O231 Sc221 2.105 . S
O231 C225 1.268 . S
O232 Sc222 2.105 . S
O232 C226 1.268 . S
O233 Sc220 2.105 . S
O233 C227 1.268 . S
O234 Sc222 2.105 . S
O234 C228 1.268 . S
O235 Sc221 2.105 . S
O235 C229 1.268 . S
O236 Sc220 2.105 . S
O236 C228 1.268 . S
O237 Sc221 2.105 . S
O237 C227 1.268 . S
O238 Sc222 2.105 . S
O238 C229 1.268 . S
O239 Sc220 2.105 . S
O239 C225 1.268 . S
O240 Sc222 2.105 . S
O240 C224 1.268 . S
O241 Sc221 2.105 . S
O241 C226 1.268 . S
Sc242 O245 2.025 . S
Sc242 O252 2.105 . S
Sc242 O255 2.105 . S
Sc242 O258 2.105 . S
Sc242 O261 2.105 . S
Sc243 O245 2.025 . S
Sc243 O253 2.105 . S
Sc243 O257 2.105 . S
Sc243 O259 2.105 . S
Sc243 O263 2.105 . S
Sc244 O245 2.025 . S
Sc244 O254 2.105 . S
Sc244 O256 2.105 . S
Sc244 O260 2.105 . S
Sc244 O262 2.105 . S
O245 Sc242 2.025 . S
O245 Sc243 2.025 . S
O245 Sc244 2.025 . S
C246 O252 1.268 . S
C246 O262 1.268 . S
C247 O253 1.268 . S
C247 O261 1.268 . S
C248 O254 1.268 . S
C248 O263 1.268 . S
C249 O255 1.268 . S
C249 O259 1.268 . S
C250 O256 1.268 . S
C250 O258 1.268 . S
C251 O257 1.268 . S
C251 O260 1.268 . S
O252 Sc242 2.105 . S
O252 C246 1.268 . S
O253 Sc243 2.105 . S
O253 C247 1.268 . S
O254 Sc244 2.105 . S
O254 C248 1.268 . S
O255 Sc242 2.105 . S
O255 C249 1.268 . S
O256 Sc244 2.105 . S
O256 C250 1.268 . S
O257 Sc243 2.105 . S
O257 C251 1.268 . S
O258 Sc242 2.105 . S
O258 C250 1.268 . S
O259 Sc243 2.105 . S
O259 C249 1.268 . S
O260 Sc244 2.105 . S
O260 C251 1.268 . S
O261 Sc242 2.105 . S
O261 C247 1.268 . S
O262 Sc244 2.105 . S
O262 C246 1.268 . S
O263 Sc243 2.105 . S
O263 C248 1.268 . S
Sc264 O267 2.025 . S
Sc264 O274 2.105 . S
Sc264 O277 2.105 . S
Sc264 O280 2.105 . S
Sc264 O283 2.105 . S
Sc265 O267 2.025 . S
Sc265 O275 2.105 . S
Sc265 O279 2.105 . S
Sc265 O281 2.105 . S
Sc265 O285 2.105 . S
Sc266 O267 2.025 . S
Sc266 O276 2.105 . S
Sc266 O278 2.105 . S
Sc266 O282 2.105 . S
Sc266 O284 2.105 . S
O267 Sc264 2.025 . S
O267 Sc265 2.025 . S
O267 Sc266 2.025 . S
C268 O274 1.268 . S
C268 O284 1.268 . S
C269 O275 1.268 . S
C269 O283 1.268 . S
C270 O276 1.268 . S
C270 O285 1.268 . S
C271 O277 1.268 . S
C271 O281 1.268 . S
C272 O278 1.268 . S
C272 O280 1.268 . S
C273 O279 1.268 . S
C273 O282 1.268 . S
O274 Sc264 2.105 . S
O274 C268 1.268 . S
O275 Sc265 2.105 . S
O275 C269 1.268 . S
O276 Sc266 2.105 . S
O276 C270 1.268 . S
O277 Sc264 2.105 . S
O277 C271 1.268 . S
O278 Sc266 2.105 . S
O278 C272 1.268 . S
O279 Sc265 2.105 . S
O279 C273 1.268 . S
O280 Sc264 2.105 . S
O280 C272 1.268 . S
O281 Sc265 2.105 . S
O281 C271 1.268 . S
O282 Sc266 2.105 . S
O282 C273 1.268 . S
O283 Sc264 2.105 . S
O283 C269 1.268 . S
O284 Sc266 2.105 . S
O284 C268 1.268 . S
O285 Sc265 2.105 . S
O285 C270 1.268 . S
Sc286 O289 2.025 . S
Sc286 O296 2.105 . S
Sc286 O299 2.105 . S
Sc286 O302 2.105 . S
Sc286 O305 2.105 . S
Sc287 O289 2.025 . S
Sc287 O297 2.105 . S
Sc287 O301 2.105 . S
Sc287 O303 2.105 . S
Sc287 O307 2.105 . S
Sc288 O289 2.025 . S
Sc288 O298 2.105 . S
Sc288 O300 2.105 . S
Sc288 O304 2.105 . S
Sc288 O306 2.105 . S
O289 Sc286 2.025 . S
O289 Sc287 2.025 . S
O289 Sc288 2.025 . S
C290 O296 1.268 . S
C290 O306 1.268 . S
C291 O297 1.268 . S
C291 O305 1.268 . S
C292 O298 1.268 . S
C292 O307 1.268 . S
C293 O299 1.268 . S
C293 O303 1.268 . S
C294 O300 1.268 . S
C294 O302 1.268 . S
C295 O301 1.268 . S
C295 O304 1.268 . S
O296 Sc286 2.105 . S
O296 C290 1.268 . S
O297 Sc287 2.105 . S
O297 C291 1.268 . S
O298 Sc288 2.105 . S
O298 C292 1.268 . S
O299 Sc286 2.105 . S
O299 C293 1.268 . S
O300 Sc288 2.105 . S
O300 C294 1.268 . S
O301 Sc287 2.105 . S
O301 C295 1.268 . S
O302 Sc286 2.105 . S
O302 C294 1.268 . S
O303 Sc287 2.105 . S
O303 C293 1.268 . S
O304 Sc288 2.105 . S
O304 C295 1.268 . S
O305 Sc286 2.105 . S
O305 C291 1.268 . S
O306 Sc288 2.105 . S
O306 C290 1.268 . S
O307 Sc287 2.105 . S
O307 C292 1.268 . S
Sc308 O311 2.025 . S
Sc308 O318 2.105 . S
Sc308 O321 2.105 . S
Sc308 O324 2.105 . S
Sc308 O327 2.105 . S
Sc309 O311 2.025 . S
Sc309 O319 2.105 . S
Sc309 O323 2.105 . S
Sc309 O325 2.105 . S
Sc309 O329 2.105 . S
Sc310 O311 2.025 . S
Sc310 O320 2.105 . S
Sc310 O322 2.105 . S
Sc310 O326 2.105 . S
Sc310 O328 2.105 . S
O311 Sc308 2.025 . S
O311 Sc309 2.025 . S
O311 Sc310 2.025 . S
C312 O318 1.268 . S
C312 O328 1.268 . S
C313 O319 1.268 . S
C313 O327 1.268 . S
C314 O320 1.268 . S
C314 O329 1.268 . S
C315 O321 1.268 . S
C315 O325 1.268 . S
C316 O322 1.268 . S
C316 O324 1.268 . S
C317 O323 1.268 . S
C317 O326 1.268 . S
O318 Sc308 2.105 . S
O318 C312 1.268 . S
O319 Sc309 2.105 . S
O319 C313 1.268 . S
O320 Sc310 2.105 . S
O320 C314 1.268 . S
O321 Sc308 2.105 . S
O321 C315 1.268 . S
O322 Sc310 2.105 . S
O322 C316 1.268 . S
O323 Sc309 2.105 . S
O323 C317 1.268 . S
O324 Sc308 2.105 . S
O324 C316 1.268 . S
O325 Sc309 2.105 . S
O325 C315 1.268 . S
O326 Sc310 2.105 . S
O326 C317 1.268 . S
O327 Sc308 2.105 . S
O327 C313 1.268 . S
O328 Sc310 2.105 . S
O328 C312 1.268 . S
O329 Sc309 2.105 . S
O329 C314 1.268 . S
Sc330 O333 2.025 . S
Sc330 O340 2.105 . S
Sc330 O343 2.105 . S
Sc330 O346 2.105 . S
Sc330 O349 2.105 . S
Sc331 O333 2.025 . S
Sc331 O341 2.105 . S
Sc331 O345 2.105 . S
Sc331 O347 2.105 . S
Sc331 O351 2.105 . S
Sc332 O333 2.025 . S
Sc332 O342 2.105 . S
Sc332 O344 2.105 . S
Sc332 O348 2.105 . S
Sc332 O350 2.105 . S
O333 Sc330 2.025 . S
O333 Sc331 2.025 . S
O333 Sc332 2.025 . S
C334 O340 1.268 . S
C334 O350 1.268 . S
C335 O341 1.268 . S
C335 O349 1.268 . S
C336 O342 1.268 . S
C336 O351 1.268 . S
C337 O343 1.268 . S
C337 O347 1.268 . S
C338 O344 1.268 . S
C338 O346 1.268 . S
C339 O345 1.268 . S
C339 O348 1.268 . S
O340 Sc330 2.105 . S
O340 C334 1.268 . S
O341 Sc331 2.105 . S
O341 C335 1.268 . S
O342 Sc332 2.105 . S
O342 C336 1.268 . S
O343 Sc330 2.105 . S
O343 C337 1.268 . S
O344 Sc332 2.105 . S
O344 C338 1.268 . S
O345 Sc331 2.105 . S
O345 C339 1.268 . S
O346 Sc330 2.105 . S
O346 C338 1.268 . S
O347 Sc331 2.105 . S
O347 C337 1.268 . S
O348 Sc332 2.105 . S
O348 C339 1.268 . S
O349 Sc330 2.105 . S
O349 C335 1.268 . S
O350 Sc332 2.105 . S
O350 C334 1.268 . S
O351 Sc331 2.105 . S
O351 C336 1.268 . S
H352 C358 0.930 . S
H353 C362 0.930 . S
H354 C367 0.929 . S
H355 C365 0.929 . S
H356 C360 0.929 . S
H357 C366 0.929 . S
C358 H352 0.930 . S
C358 C359 1.367 . S
C358 C366 1.378 . S
C359 C358 1.367 . S
C359 C367 1.433 . S
C360 H356 0.929 . S
C360 C362 1.378 . S
C360 C364 1.350 . S
C361 C364 1.463 1_554 S
C361 C366 1.350 . S
C361 N369 1.427 . S
C362 H353 0.930 . S
C362 C360 1.378 . S
C362 C363 1.367 . S
C363 C362 1.367 . S
C363 C365 1.433 . S
C364 C360 1.350 . S
C364 C361 1.463 1_556 S
C364 N368 1.427 . S
C365 H355 0.929 . S
C365 C363 1.433 . S
C365 N368 1.384 . S
C366 H357 0.929 . S
C366 C358 1.378 . S
C366 C361 1.350 . S
C367 H354 0.929 . S
C367 C359 1.433 . S
C367 N369 1.384 . S
N368 C364 1.427 . S
N368 C365 1.384 . S
N369 C361 1.427 . S
N369 C367 1.384 . S
H370 C376 0.930 . S
H371 C380 0.930 . S
H372 C385 0.929 . S
H373 C383 0.929 . S
H374 C378 0.929 . S
H375 C384 0.929 . S
C376 H370 0.930 . S
C376 C377 1.367 . S
C376 C384 1.378 . S
C377 C376 1.367 . S
C377 C385 1.433 . S
C378 H374 0.929 . S
C378 C380 1.378 . S
C378 C382 1.350 . S
C379 C382 1.463 . S
C379 C384 1.350 . S
C379 N387 1.427 . S
C380 H371 0.930 . S
C380 C378 1.378 . S
C380 C381 1.367 . S
C381 C380 1.367 . S
C381 C383 1.433 . S
C382 C378 1.350 . S
C382 C379 1.463 . S
C382 N386 1.427 . S
C383 H373 0.929 . S
C383 C381 1.433 . S
C383 N386 1.384 . S
C384 H375 0.929 . S
C384 C376 1.378 . S
C384 C379 1.350 . S
C385 H372 0.929 . S
C385 C377 1.433 . S
C385 N387 1.384 . S
N386 C382 1.427 . S
N386 C383 1.384 . S
N387 C379 1.427 . S
N387 C385 1.384 . S
H388 C394 0.930 . S
H389 C398 0.930 . S
H390 C403 0.929 . S
H391 C401 0.929 . S
H392 C396 0.929 . S
H393 C402 0.929 . S
C394 H388 0.930 . S
C394 C395 1.367 . S
C394 C402 1.378 . S
C395 C394 1.367 . S
C395 C403 1.433 . S
C396 H392 0.929 . S
C396 C398 1.378 . S
C396 C400 1.350 . S
C397 C400 1.463 1_554 S
C397 C402 1.350 . S
C397 N405 1.427 . S
C398 H389 0.930 . S
C398 C396 1.378 . S
C398 C399 1.367 . S
C399 C398 1.367 . S
C399 C401 1.433 . S
C400 C396 1.350 . S
C400 C397 1.463 1_556 S
C400 N404 1.427 . S
C401 H391 0.929 . S
C401 C399 1.433 . S
C401 N404 1.384 . S
C402 H393 0.929 . S
C402 C394 1.378 . S
C402 C397 1.350 . S
C403 H390 0.929 . S
C403 C395 1.433 . S
C403 N405 1.384 . S
N404 C400 1.427 . S
N404 C401 1.384 . S
N405 C397 1.427 . S
N405 C403 1.384 . S
H406 C412 0.930 . S
H407 C416 0.930 . S
H408 C421 0.929 . S
H409 C419 0.929 . S
H410 C414 0.929 . S
H411 C420 0.929 . S
C412 H406 0.930 . S
C412 C413 1.367 . S
C412 C420 1.378 . S
C413 C412 1.367 . S
C413 C421 1.433 . S
C414 H410 0.929 . S
C414 C416 1.378 . S
C414 C418 1.350 . S
C415 C418 1.463 . S
C415 C420 1.350 . S
C415 N423 1.427 . S
C416 H407 0.930 . S
C416 C414 1.378 . S
C416 C417 1.367 . S
C417 C416 1.367 . S
C417 C419 1.433 . S
C418 C414 1.350 . S
C418 C415 1.463 . S
C418 N422 1.427 . S
C419 H409 0.929 . S
C419 C417 1.433 . S
C419 N422 1.384 . S
C420 H411 0.929 . S
C420 C412 1.378 . S
C420 C415 1.350 . S
C421 H408 0.929 . S
C421 C413 1.433 . S
C421 N423 1.384 . S
N422 C418 1.427 . S
N422 C419 1.384 . S
N423 C415 1.427 . S
N423 C421 1.384 . S
H424 C430 0.930 . S
H425 C434 0.930 . S
H426 C439 0.929 . S
H427 C437 0.929 . S
H428 C432 0.929 . S
H429 C438 0.929 . S
C430 H424 0.930 . S
C430 C431 1.367 . S
C430 C438 1.378 . S
C431 C430 1.367 . S
C431 C439 1.433 . S
C432 H428 0.929 . S
C432 C434 1.378 . S
C432 C436 1.350 . S
C433 C436 1.463 1_556 S
C433 C438 1.350 . S
C433 N441 1.427 . S
C434 H425 0.930 . S
C434 C432 1.378 . S
C434 C435 1.367 . S
C435 C434 1.367 . S
C435 C437 1.433 . S
C436 C432 1.350 . S
C436 C433 1.463 1_554 S
C436 N440 1.427 . S
C437 H427 0.929 . S
C437 C435 1.433 . S
C437 N440 1.384 . S
C438 H429 0.929 . S
C438 C430 1.378 . S
C438 C433 1.350 . S
C439 H426 0.929 . S
C439 C431 1.433 . S
C439 N441 1.384 . S
N440 C436 1.427 . S
N440 C437 1.384 . S
N441 C433 1.427 . S
N441 C439 1.384 . S
H442 C448 0.930 . S
H443 C452 0.930 . S
H444 C457 0.929 . S
H445 C455 0.929 . S
H446 C450 0.929 . S
H447 C456 0.929 . S
C448 H442 0.930 . S
C448 C449 1.367 . S
C448 C456 1.378 . S
C449 C448 1.367 . S
C449 C457 1.433 . S
C450 H446 0.929 . S
C450 C452 1.378 . S
C450 C454 1.350 . S
C451 C454 1.463 . S
C451 C456 1.350 . S
C451 N459 1.427 . S
C452 H443 0.930 . S
C452 C450 1.378 . S
C452 C453 1.367 . S
C453 C452 1.367 . S
C453 C455 1.433 . S
C454 C450 1.350 . S
C454 C451 1.463 . S
C454 N458 1.427 . S
C455 H445 0.929 . S
C455 C453 1.433 . S
C455 N458 1.384 . S
C456 H447 0.929 . S
C456 C448 1.378 . S
C456 C451 1.350 . S
C457 H444 0.929 . S
C457 C449 1.433 . S
C457 N459 1.384 . S
N458 C454 1.427 . S
N458 C455 1.384 . S
N459 C451 1.427 . S
N459 C457 1.384 . S
H460 C466 0.930 . S
H461 C470 0.930 . S
H462 C475 0.929 . S
H463 C473 0.929 . S
H464 C468 0.929 . S
H465 C474 0.929 . S
C466 H460 0.930 . S
C466 C467 1.367 . S
C466 C474 1.378 . S
C467 C466 1.367 . S
C467 C475 1.433 . S
C468 H464 0.929 . S
C468 C470 1.378 . S
C468 C472 1.350 . S
C469 C472 1.463 1_554 S
C469 C474 1.350 . S
C469 N477 1.427 . S
C470 H461 0.930 . S
C470 C468 1.378 . S
C470 C471 1.367 . S
C471 C470 1.367 . S
C471 C473 1.433 . S
C472 C468 1.350 . S
C472 C469 1.463 1_556 S
C472 N476 1.427 . S
C473 H463 0.929 . S
C473 C471 1.433 . S
C473 N476 1.384 . S
C474 H465 0.929 . S
C474 C466 1.378 . S
C474 C469 1.350 . S
C475 H462 0.929 . S
C475 C467 1.433 . S
C475 N477 1.384 . S
N476 C472 1.427 . S
N476 C473 1.384 . S
N477 C469 1.427 . S
N477 C475 1.384 . S
H478 C484 0.930 . S
H479 C488 0.930 . S
H480 C493 0.929 . S
H481 C491 0.929 . S
H482 C486 0.929 . S
H483 C492 0.929 . S
C484 H478 0.930 . S
C484 C485 1.367 . S
C484 C492 1.378 . S
C485 C484 1.367 . S
C485 C493 1.433 . S
C486 H482 0.929 . S
C486 C488 1.378 . S
C486 C490 1.350 . S
C487 C490 1.463 . S
C487 C492 1.350 . S
C487 N495 1.427 . S
C488 H479 0.930 . S
C488 C486 1.378 . S
C488 C489 1.367 . S
C489 C488 1.367 . S
C489 C491 1.433 . S
C490 C486 1.350 . S
C490 C487 1.463 . S
C490 N494 1.427 . S
C491 H481 0.929 . S
C491 C489 1.433 . S
C491 N494 1.384 . S
C492 H483 0.929 . S
C492 C484 1.378 . S
C492 C487 1.350 . S
C493 H480 0.929 . S
C493 C485 1.433 . S
C493 N495 1.384 . S
N494 C490 1.427 . S
N494 C491 1.384 . S
N495 C487 1.427 . S
N495 C493 1.384 . S
H496 C502 0.930 . S
H497 C506 0.930 . S
H498 C511 0.929 . S
H499 C509 0.929 . S
H500 C504 0.929 1_565 S
H501 C510 0.929 1_545 S
C502 H496 0.930 . S
C502 C503 1.367 . S
C502 C510 1.378 . S
C503 C502 1.367 . S
C503 C511 1.433 . S
C504 H500 0.929 1_545 S
C504 C506 1.378 . S
C504 C508 1.350 . S
C505 C508 1.463 1_566 S
C505 C510 1.350 . S
C505 N513 1.427 . S
C506 H497 0.930 . S
C506 C504 1.378 . S
C506 C507 1.367 . S
C507 C506 1.367 . S
C507 C509 1.433 . S
C508 C504 1.350 . S
C508 C505 1.463 1_544 S
C508 N512 1.427 . S
C509 H499 0.929 . S
C509 C507 1.433 . S
C509 N512 1.384 . S
C510 H501 0.929 1_565 S
C510 C502 1.378 . S
C510 C505 1.350 . S
C511 H498 0.929 . S
C511 C503 1.433 . S
C511 N513 1.384 . S
N512 C508 1.427 . S
N512 C509 1.384 . S
N513 C505 1.427 . S
N513 C511 1.384 . S
H514 C520 0.930 . S
H515 C524 0.930 . S
H516 C529 0.929 . S
H517 C527 0.929 . S
H518 C522 0.929 1_565 S
H519 C528 0.929 1_545 S
C520 H514 0.930 . S
C520 C521 1.367 . S
C520 C528 1.378 . S
C521 C520 1.367 . S
C521 C529 1.433 . S
C522 H518 0.929 1_545 S
C522 C524 1.378 . S
C522 C526 1.350 . S
C523 C526 1.463 1_565 S
C523 C528 1.350 . S
C523 N531 1.427 . S
C524 H515 0.930 . S
C524 C522 1.378 . S
C524 C525 1.367 . S
C525 C524 1.367 . S
C525 C527 1.433 . S
C526 C522 1.350 . S
C526 C523 1.463 1_545 S
C526 N530 1.427 . S
C527 H517 0.929 . S
C527 C525 1.433 . S
C527 N530 1.384 . S
C528 H519 0.929 1_565 S
C528 C520 1.378 . S
C528 C523 1.350 . S
C529 H516 0.929 . S
C529 C521 1.433 . S
C529 N531 1.384 . S
N530 C526 1.427 . S
N530 C527 1.384 . S
N531 C523 1.427 . S
N531 C529 1.384 . S
H532 C538 0.930 . S
H533 C542 0.930 . S
H534 C547 0.929 . S
H535 C545 0.929 . S
H536 C540 0.929 1_565 S
H537 C546 0.929 1_545 S
C538 H532 0.930 . S
C538 C539 1.367 . S
C538 C546 1.378 . S
C539 C538 1.367 . S
C539 C547 1.433 . S
C540 H536 0.929 1_545 S
C540 C542 1.378 . S
C540 C544 1.350 . S
C541 C544 1.463 1_566 S
C541 C546 1.350 . S
C541 N549 1.427 . S
C542 H533 0.930 . S
C542 C540 1.378 . S
C542 C543 1.367 . S
C543 C542 1.367 . S
C543 C545 1.433 . S
C544 C540 1.350 . S
C544 C541 1.463 1_544 S
C544 N548 1.427 . S
C545 H535 0.929 . S
C545 C543 1.433 . S
C545 N548 1.384 . S
C546 H537 0.929 1_565 S
C546 C538 1.378 . S
C546 C541 1.350 . S
C547 H534 0.929 . S
C547 C539 1.433 . S
C547 N549 1.384 . S
N548 C544 1.427 . S
N548 C545 1.384 . S
N549 C541 1.427 . S
N549 C547 1.384 . S
H550 C556 0.930 . S
H551 C560 0.930 . S
H552 C565 0.929 . S
H553 C563 0.929 . S
H554 C558 0.929 . S
H555 C564 0.929 . S
C556 H550 0.930 . S
C556 C557 1.367 . S
C556 C564 1.378 . S
C557 C556 1.367 . S
C557 C565 1.433 . S
C558 H554 0.929 . S
C558 C560 1.378 . S
C558 C562 1.350 . S
C559 C562 1.463 1_565 S
C559 C564 1.350 . S
C559 N567 1.427 . S
C560 H551 0.930 . S
C560 C558 1.378 . S
C560 C561 1.367 . S
C561 C560 1.367 . S
C561 C563 1.433 . S
C562 C558 1.350 . S
C562 C559 1.463 1_545 S
C562 N566 1.427 . S
C563 H553 0.929 . S
C563 C561 1.433 . S
C563 N566 1.384 . S
C564 H555 0.929 . S
C564 C556 1.378 . S
C564 C559 1.350 . S
C565 H552 0.929 . S
C565 C557 1.433 . S
C565 N567 1.384 . S
N566 C562 1.427 . S
N566 C563 1.384 . S
N567 C559 1.427 . S
N567 C565 1.384 . S
H568 C574 0.930 . S
H569 C578 0.930 . S
H570 C583 0.929 . S
H571 C581 0.929 . S
H572 C576 0.929 1_554 S
H573 C582 0.929 1_556 S
C574 H568 0.930 . S
C574 C575 1.367 . S
C574 C582 1.378 . S
C575 C574 1.367 . S
C575 C583 1.433 . S
C576 H572 0.929 1_556 S
C576 C578 1.378 . S
C576 C580 1.350 . S
C577 C580 1.463 1_554 S
C577 C582 1.350 . S
C577 N585 1.427 . S
C578 H569 0.930 . S
C578 C576 1.378 . S
C578 C579 1.367 . S
C579 C578 1.367 . S
C579 C581 1.433 . S
C580 C576 1.350 . S
C580 C577 1.463 1_556 S
C580 N584 1.427 . S
C581 H571 0.929 . S
C581 C579 1.433 . S
C581 N584 1.384 . S
C582 H573 0.929 1_554 S
C582 C574 1.378 . S
C582 C577 1.350 . S
C583 H570 0.929 . S
C583 C575 1.433 . S
C583 N585 1.384 . S
N584 C580 1.427 . S
N584 C581 1.384 . S
N585 C577 1.427 . S
N585 C583 1.384 . S
H586 C592 0.930 . S
H587 C596 0.930 . S
H588 C601 0.929 . S
H589 C599 0.929 . S
H590 C594 0.929 . S
H591 C600 0.929 . S
C592 H586 0.930 . S
C592 C593 1.367 . S
C592 C600 1.378 . S
C593 C592 1.367 . S
C593 C601 1.433 . S
C594 H590 0.929 . S
C594 C596 1.378 . S
C594 C598 1.350 . S
C595 C598 1.463 . S
C595 C600 1.350 . S
C595 N603 1.427 . S
C596 H587 0.930 . S
C596 C594 1.378 . S
C596 C597 1.367 . S
C597 C596 1.367 . S
C597 C599 1.433 . S
C598 C594 1.350 . S
C598 C595 1.463 . S
C598 N602 1.427 . S
C599 H589 0.929 . S
C599 C597 1.433 . S
C599 N602 1.384 . S
C600 H591 0.929 . S
C600 C592 1.378 . S
C600 C595 1.350 . S
C601 H588 0.929 . S
C601 C593 1.433 . S
C601 N603 1.384 . S
N602 C598 1.427 . S
N602 C599 1.384 . S
N603 C595 1.427 . S
N603 C601 1.384 . S
H604 C610 0.930 . S
H605 C614 0.930 . S
H606 C619 0.929 . S
H607 C617 0.929 . S
H608 C612 0.929 . S
H609 C618 0.929 . S
C610 H604 0.930 . S
C610 C611 1.367 . S
C610 C618 1.378 . S
C611 C610 1.367 . S
C611 C619 1.433 . S
C612 H608 0.929 . S
C612 C614 1.378 . S
C612 C616 1.350 . S
C613 C616 1.463 1_554 S
C613 C618 1.350 . S
C613 N621 1.427 . S
C614 H605 0.930 . S
C614 C612 1.378 . S
C614 C615 1.367 . S
C615 C614 1.367 . S
C615 C617 1.433 . S
C616 C612 1.350 . S
C616 C613 1.463 1_556 S
C616 N620 1.427 . S
C617 H607 0.929 . S
C617 C615 1.433 . S
C617 N620 1.384 . S
C618 H609 0.929 . S
C618 C610 1.378 . S
C618 C613 1.350 . S
C619 H606 0.929 . S
C619 C611 1.433 . S
C619 N621 1.384 . S
N620 C616 1.427 . S
N620 C617 1.384 . S
N621 C613 1.427 . S
N621 C619 1.384 . S
H622 C628 0.930 . S
H623 C632 0.930 . S
H624 C637 0.929 . S
H625 C635 0.929 . S
H626 C630 0.929 . S
H627 C636 0.929 . S
C628 H622 0.930 . S
C628 C629 1.367 . S
C628 C636 1.378 . S
C629 C628 1.367 . S
C629 C637 1.433 . S
C630 H626 0.929 . S
C630 C632 1.378 . S
C630 C634 1.350 . S
C631 C634 1.463 . S
C631 C636 1.350 . S
C631 N639 1.427 . S
C632 H623 0.930 . S
C632 C630 1.378 . S
C632 C633 1.367 . S
C633 C632 1.367 . S
C633 C635 1.433 . S
C634 C630 1.350 . S
C634 C631 1.463 . S
C634 N638 1.427 . S
C635 H625 0.929 . S
C635 C633 1.433 . S
C635 N638 1.384 . S
C636 H627 0.929 . S
C636 C628 1.378 . S
C636 C631 1.350 . S
C637 H624 0.929 . S
C637 C629 1.433 . S
C637 N639 1.384 . S
N638 C634 1.427 . S
N638 C635 1.384 . S
N639 C631 1.427 . S
N639 C637 1.384 . S
H640 C646 0.930 . S
H641 C650 0.930 . S
H642 C655 0.929 . S
H643 C653 0.929 . S
H644 C648 0.929 . S
H645 C654 0.929 . S
C646 H640 0.930 . S
C646 C647 1.367 . S
C646 C654 1.378 . S
C647 C646 1.367 . S
C647 C655 1.433 . S
C648 H644 0.929 . S
C648 C650 1.378 . S
C648 C652 1.350 . S
C649 C652 1.463 . S
C649 C654 1.350 . S
C649 N657 1.427 . S
C650 H641 0.930 . S
C650 C648 1.378 . S
C650 C651 1.367 . S
C651 C650 1.367 . S
C651 C653 1.433 . S
C652 C648 1.350 . S
C652 C649 1.463 . S
C652 N656 1.427 . S
C653 H643 0.929 . S
C653 C651 1.433 . S
C653 N656 1.384 . S
C654 H645 0.929 . S
C654 C646 1.378 . S
C654 C649 1.350 . S
C655 H642 0.929 . S
C655 C647 1.433 . S
C655 N657 1.384 . S
N656 C652 1.427 . S
N656 C653 1.384 . S
N657 C649 1.427 . S
N657 C655 1.384 . S
H658 C664 0.930 . S
H659 C668 0.930 . S
H660 C673 0.929 . S
H661 C671 0.929 . S
H662 C666 0.929 . S
H663 C672 0.929 . S
C664 H658 0.930 . S
C664 C665 1.367 . S
C664 C672 1.378 . S
C665 C664 1.367 . S
C665 C673 1.433 . S
C666 H662 0.929 . S
C666 C668 1.378 . S
C666 C670 1.350 . S
C667 C670 1.463 . S
C667 C672 1.350 . S
C667 N675 1.427 . S
C668 H659 0.930 . S
C668 C666 1.378 . S
C668 C669 1.367 . S
C669 C668 1.367 . S
C669 C671 1.433 . S
C670 C666 1.350 . S
C670 C667 1.463 . S
C670 N674 1.427 . S
C671 H661 0.929 . S
C671 C669 1.433 . S
C671 N674 1.384 . S
C672 H663 0.929 . S
C672 C664 1.378 . S
C672 C667 1.350 . S
C673 H660 0.929 . S
C673 C665 1.433 . S
C673 N675 1.384 . S
N674 C670 1.427 . S
N674 C671 1.384 . S
N675 C667 1.427 . S
N675 C673 1.384 . S
H676 C682 0.930 . S
H677 C686 0.930 . S
H678 C691 0.929 . S
H679 C689 0.929 . S
H680 C684 0.929 . S
H681 C690 0.929 . S
C682 H676 0.930 . S
C682 C683 1.367 . S
C682 C690 1.378 . S
C683 C682 1.367 . S
C683 C691 1.433 . S
C684 H680 0.929 . S
C684 C686 1.378 . S
C684 C688 1.350 . S
C685 C688 1.463 . S
C685 C690 1.350 . S
C685 N693 1.427 . S
C686 H677 0.930 . S
C686 C684 1.378 . S
C686 C687 1.367 . S
C687 C686 1.367 . S
C687 C689 1.433 . S
C688 C684 1.350 . S
C688 C685 1.463 . S
C688 N692 1.427 . S
C689 H679 0.929 . S
C689 C687 1.433 . S
C689 N692 1.384 . S
C690 H681 0.929 . S
C690 C682 1.378 . S
C690 C685 1.350 . S
C691 H678 0.929 . S
C691 C683 1.433 . S
C691 N693 1.384 . S
N692 C688 1.427 . S
N692 C689 1.384 . S
N693 C685 1.427 . S
N693 C691 1.384 . S
H694 C700 0.930 . S
H695 C704 0.930 . S
H696 C709 0.929 . S
H697 C707 0.929 . S
H698 C702 0.929 . S
H699 C708 0.929 . S
C700 H694 0.930 . S
C700 C701 1.367 . S
C700 C708 1.378 . S
C701 C700 1.367 . S
C701 C709 1.433 . S
C702 H698 0.929 . S
C702 C704 1.378 . S
C702 C706 1.350 . S
C703 C706 1.463 . S
C703 C708 1.350 . S
C703 N711 1.427 . S
C704 H695 0.930 . S
C704 C702 1.378 . S
C704 C705 1.367 . S
C705 C704 1.367 . S
C705 C707 1.433 . S
C706 C702 1.350 . S
C706 C703 1.463 . S
C706 N710 1.427 . S
C707 H697 0.929 . S
C707 C705 1.433 . S
C707 N710 1.384 . S
C708 H699 0.929 . S
C708 C700 1.378 . S
C708 C703 1.350 . S
C709 H696 0.929 . S
C709 C701 1.433 . S
C709 N711 1.384 . S
N710 C706 1.427 . S
N710 C707 1.384 . S
N711 C703 1.427 . S
N711 C709 1.384 . S
H712 C718 0.930 . S
H713 C722 0.930 . S
H714 C727 0.929 . S
H715 C725 0.929 . S
H716 C720 0.929 . S
H717 C726 0.929 . S
C718 H712 0.930 . S
C718 C719 1.367 . S
C718 C726 1.378 . S
C719 C718 1.367 . S
C719 C727 1.433 . S
C720 H716 0.929 . S
C720 C722 1.378 . S
C720 C724 1.350 . S
C721 C724 1.463 . S
C721 C726 1.350 . S
C721 N729 1.427 . S
C722 H713 0.930 . S
C722 C720 1.378 . S
C722 C723 1.367 . S
C723 C722 1.367 . S
C723 C725 1.433 . S
C724 C720 1.350 . S
C724 C721 1.463 . S
C724 N728 1.427 . S
C725 H715 0.929 . S
C725 C723 1.433 . S
C725 N728 1.384 . S
C726 H717 0.929 . S
C726 C718 1.378 . S
C726 C721 1.350 . S
C727 H714 0.929 . S
C727 C719 1.433 . S
C727 N729 1.384 . S
N728 C724 1.427 . S
N728 C725 1.384 . S
N729 C721 1.427 . S
N729 C727 1.384 . S
H730 C736 0.930 . S
H731 C740 0.930 . S
H732 C745 0.929 . S
H733 C743 0.929 . S
H734 C738 0.929 . S
H735 C744 0.929 . S
C736 H730 0.930 . S
C736 C737 1.367 . S
C736 C744 1.378 . S
C737 C736 1.367 . S
C737 C745 1.433 . S
C738 H734 0.929 . S
C738 C740 1.378 . S
C738 C742 1.350 . S
C739 C742 1.463 . S
C739 C744 1.350 . S
C739 N747 1.427 . S
C740 H731 0.930 . S
C740 C738 1.378 . S
C740 C741 1.367 . S
C741 C740 1.367 . S
C741 C743 1.433 . S
C742 C738 1.350 . S
C742 C739 1.463 . S
C742 N746 1.427 . S
C743 H733 0.929 . S
C743 C741 1.433 . S
C743 N746 1.384 . S
C744 H735 0.929 . S
C744 C736 1.378 . S
C744 C739 1.350 . S
C745 H732 0.929 . S
C745 C737 1.433 . S
C745 N747 1.384 . S
N746 C742 1.427 . S
N746 C743 1.384 . S
N747 C739 1.427 . S
N747 C745 1.384 . S
H748 C754 0.930 . S
H749 C758 0.930 . S
H750 C763 0.929 . S
H751 C761 0.929 . S
H752 C756 0.929 . S
H753 C762 0.929 . S
C754 H748 0.930 . S
C754 C755 1.367 . S
C754 C762 1.378 . S
C755 C754 1.367 . S
C755 C763 1.433 . S
C756 H752 0.929 . S
C756 C758 1.378 . S
C756 C760 1.350 . S
C757 C760 1.463 . S
C757 C762 1.350 . S
C757 N765 1.427 . S
C758 H749 0.930 . S
C758 C756 1.378 . S
C758 C759 1.367 . S
C759 C758 1.367 . S
C759 C761 1.433 . S
C760 C756 1.350 . S
C760 C757 1.463 . S
C760 N764 1.427 . S
C761 H751 0.929 . S
C761 C759 1.433 . S
C761 N764 1.384 . S
C762 H753 0.929 . S
C762 C754 1.378 . S
C762 C757 1.350 . S
C763 H750 0.929 . S
C763 C755 1.433 . S
C763 N765 1.384 . S
N764 C760 1.427 . S
N764 C761 1.384 . S
N765 C757 1.427 . S
N765 C763 1.384 . S
H766 C772 0.930 . S
H767 C776 0.930 . S
H768 C781 0.929 . S
H769 C779 0.929 . S
H770 C774 0.929 . S
H771 C780 0.929 . S
C772 H766 0.930 . S
C772 C773 1.367 . S
C772 C780 1.378 . S
C773 C772 1.367 . S
C773 C781 1.433 . S
C774 H770 0.929 . S
C774 C776 1.378 . S
C774 C778 1.350 . S
C775 C778 1.463 . S
C775 C780 1.350 . S
C775 N783 1.427 . S
C776 H767 0.930 . S
C776 C774 1.378 . S
C776 C777 1.367 . S
C777 C776 1.367 . S
C777 C779 1.433 . S
C778 C774 1.350 . S
C778 C775 1.463 . S
C778 N782 1.427 . S
C779 H769 0.929 . S
C779 C777 1.433 . S
C779 N782 1.384 . S
C780 H771 0.929 . S
C780 C772 1.378 . S
C780 C775 1.350 . S
C781 H768 0.929 . S
C781 C773 1.433 . S
C781 N783 1.384 . S
N782 C778 1.427 . S
N782 C779 1.384 . S
N783 C775 1.427 . S
N783 C781 1.384 . S
H784 C790 0.930 . S
H785 C794 0.930 . S
H786 C799 0.929 . S
H787 C797 0.929 . S
H788 C792 0.929 . S
H789 C798 0.929 . S
C790 H784 0.930 . S
C790 C791 1.367 . S
C790 C798 1.378 . S
C791 C790 1.367 . S
C791 C799 1.433 . S
C792 H788 0.929 . S
C792 C794 1.378 . S
C792 C796 1.350 . S
C793 C796 1.463 . S
C793 C798 1.350 . S
C793 N801 1.427 . S
C794 H785 0.930 . S
C794 C792 1.378 . S
C794 C795 1.367 . S
C795 C794 1.367 . S
C795 C797 1.433 . S
C796 C792 1.350 . S
C796 C793 1.463 . S
C796 N800 1.427 . S
C797 H787 0.929 . S
C797 C795 1.433 . S
C797 N800 1.384 . S
C798 H789 0.929 . S
C798 C790 1.378 . S
C798 C793 1.350 . S
C799 H786 0.929 . S
C799 C791 1.433 . S
C799 N801 1.384 . S
N800 C796 1.427 . S
N800 C797 1.384 . S
N801 C793 1.427 . S
N801 C799 1.384 . S
H802 C808 0.930 . S
H803 C812 0.930 . S
H804 C817 0.929 . S
H805 C815 0.929 . S
H806 C810 0.929 . S
H807 C816 0.929 . S
C808 H802 0.930 . S
C808 C809 1.367 . S
C808 C816 1.378 . S
C809 C808 1.367 . S
C809 C817 1.433 . S
C810 H806 0.929 . S
C810 C812 1.378 . S
C810 C814 1.350 . S
C811 C814 1.463 1_455 S
C811 C816 1.350 . S
C811 N819 1.427 . S
C812 H803 0.930 . S
C812 C810 1.378 . S
C812 C813 1.367 . S
C813 C812 1.367 . S
C813 C815 1.433 . S
C814 C810 1.350 . S
C814 C811 1.463 1_655 S
C814 N818 1.427 . S
C815 H805 0.929 . S
C815 C813 1.433 . S
C815 N818 1.384 . S
C816 H807 0.929 . S
C816 C808 1.378 . S
C816 C811 1.350 . S
C817 H804 0.929 . S
C817 C809 1.433 . S
C817 N819 1.384 . S
N818 C814 1.427 . S
N818 C815 1.384 . S
N819 C811 1.427 . S
N819 C817 1.384 . S
H820 C826 0.930 . S
H821 C830 0.930 . S
H822 C835 0.929 . S
H823 C833 0.929 . S
H824 C828 0.929 . S
H825 C834 0.929 . S
C826 H820 0.930 . S
C826 C827 1.367 . S
C826 C834 1.378 . S
C827 C826 1.367 . S
C827 C835 1.433 . S
C828 H824 0.929 . S
C828 C830 1.378 . S
C828 C832 1.350 . S
C829 C832 1.463 . S
C829 C834 1.350 . S
C829 N837 1.427 . S
C830 H821 0.930 . S
C830 C828 1.378 . S
C830 C831 1.367 . S
C831 C830 1.367 . S
C831 C833 1.433 . S
C832 C828 1.350 . S
C832 C829 1.463 . S
C832 N836 1.427 . S
C833 H823 0.929 . S
C833 C831 1.433 . S
C833 N836 1.384 . S
C834 H825 0.929 . S
C834 C826 1.378 . S
C834 C829 1.350 . S
C835 H822 0.929 . S
C835 C827 1.433 . S
C835 N837 1.384 . S
N836 C832 1.427 . S
N836 C833 1.384 . S
N837 C829 1.427 . S
N837 C835 1.384 . S
H838 C844 0.930 . S
H839 C848 0.930 . S
H840 C853 0.929 . S
H841 C851 0.929 . S
H842 C846 0.929 . S
H843 C852 0.929 . S
C844 H838 0.930 . S
C844 C845 1.367 . S
C844 C852 1.378 . S
C845 C844 1.367 . S
C845 C853 1.433 . S
C846 H842 0.929 . S
C846 C848 1.378 . S
C846 C850 1.350 . S
C847 C850 1.463 1_655 S
C847 C852 1.350 . S
C847 N855 1.427 . S
C848 H839 0.930 . S
C848 C846 1.378 . S
C848 C849 1.367 . S
C849 C848 1.367 . S
C849 C851 1.433 . S
C850 C846 1.350 . S
C850 C847 1.463 1_455 S
C850 N854 1.427 . S
C851 H841 0.929 . S
C851 C849 1.433 . S
C851 N854 1.384 . S
C852 H843 0.929 . S
C852 C844 1.378 . S
C852 C847 1.350 . S
C853 H840 0.929 . S
C853 C845 1.433 . S
C853 N855 1.384 . S
N854 C850 1.427 . S
N854 C851 1.384 . S
N855 C847 1.427 . S
N855 C853 1.384 . S
H856 C862 0.930 . S
H857 C866 0.930 . S
H858 C871 0.929 . S
H859 C869 0.929 . S
H860 C864 0.929 . S
H861 C870 0.929 . S
C862 H856 0.930 . S
C862 C863 1.367 . S
C862 C870 1.378 . S
C863 C862 1.367 . S
C863 C871 1.433 . S
C864 H860 0.929 . S
C864 C866 1.378 . S
C864 C868 1.350 . S
C865 C868 1.463 1_655 S
C865 C870 1.350 . S
C865 N873 1.427 . S
C866 H857 0.930 . S
C866 C864 1.378 . S
C866 C867 1.367 . S
C867 C866 1.367 . S
C867 C869 1.433 . S
C868 C864 1.350 . S
C868 C865 1.463 1_455 S
C868 N872 1.427 . S
C869 H859 0.929 . S
C869 C867 1.433 . S
C869 N872 1.384 . S
C870 H861 0.929 . S
C870 C862 1.378 . S
C870 C865 1.350 . S
C871 H858 0.929 . S
C871 C863 1.433 . S
C871 N873 1.384 . S
N872 C868 1.427 . S
N872 C869 1.384 . S
N873 C865 1.427 . S
N873 C871 1.384 . S
H874 C880 0.930 . S
H875 C884 0.930 . S
H876 C889 0.929 . S
H877 C887 0.929 . S
H878 C882 0.929 . S
H879 C888 0.929 . S
C880 H874 0.930 . S
C880 C881 1.367 . S
C880 C888 1.378 . S
C881 C880 1.367 . S
C881 C889 1.433 . S
C882 H878 0.929 . S
C882 C884 1.378 . S
C882 C886 1.350 . S
C883 C886 1.463 . S
C883 C888 1.350 . S
C883 N891 1.427 . S
C884 H875 0.930 . S
C884 C882 1.378 . S
C884 C885 1.367 . S
C885 C884 1.367 . S
C885 C887 1.433 . S
C886 C882 1.350 . S
C886 C883 1.463 . S
C886 N890 1.427 . S
C887 H877 0.929 . S
C887 C885 1.433 . S
C887 N890 1.384 . S
C888 H879 0.929 . S
C888 C880 1.378 . S
C888 C883 1.350 . S
C889 H876 0.929 . S
C889 C881 1.433 . S
C889 N891 1.384 . S
N890 C886 1.427 . S
N890 C887 1.384 . S
N891 C883 1.427 . S
N891 C889 1.384 . S
H892 C898 0.930 . S
H893 C902 0.930 . S
H894 C907 0.929 . S
H895 C905 0.929 . S
H896 C900 0.929 . S
H897 C906 0.929 . S
C898 H892 0.930 . S
C898 C899 1.367 . S
C898 C906 1.378 . S
C899 C898 1.367 . S
C899 C907 1.433 . S
C900 H896 0.929 . S
C900 C902 1.378 . S
C900 C904 1.350 . S
C901 C904 1.463 1_455 S
C901 C906 1.350 . S
C901 N909 1.427 . S
C902 H893 0.930 . S
C902 C900 1.378 . S
C902 C903 1.367 . S
C903 C902 1.367 . S
C903 C905 1.433 . S
C904 C900 1.350 . S
C904 C901 1.463 1_655 S
C904 N908 1.427 . S
C905 H895 0.929 . S
C905 C903 1.433 . S
C905 N908 1.384 . S
C906 H897 0.929 . S
C906 C898 1.378 . S
C906 C901 1.350 . S
C907 H894 0.929 . S
C907 C899 1.433 . S
C907 N909 1.384 . S
N908 C904 1.427 . S
N908 C905 1.384 . S
N909 C901 1.427 . S
N909 C907 1.384 . S
H910 C916 0.930 . S
H911 C920 0.930 . S
H912 C925 0.929 . S
H913 C923 0.929 . S
H914 C918 0.929 . S
H915 C924 0.929 . S
C916 H910 0.930 . S
C916 C917 1.367 . S
C916 C924 1.378 . S
C917 C916 1.367 . S
C917 C925 1.433 . S
C918 H914 0.929 . S
C918 C920 1.378 . S
C918 C922 1.350 . S
C919 C922 1.463 . S
C919 C924 1.350 . S
C919 N927 1.427 . S
C920 H911 0.930 . S
C920 C918 1.378 . S
C920 C921 1.367 . S
C921 C920 1.367 . S
C921 C923 1.433 . S
C922 C918 1.350 . S
C922 C919 1.463 . S
C922 N926 1.427 . S
C923 H913 0.929 . S
C923 C921 1.433 . S
C923 N926 1.384 . S
C924 H915 0.929 . S
C924 C916 1.378 . S
C924 C919 1.350 . S
C925 H912 0.929 . S
C925 C917 1.433 . S
C925 N927 1.384 . S
N926 C922 1.427 . S
N926 C923 1.384 . S
N927 C919 1.427 . S
N927 C925 1.384 . S
H928 C934 0.930 . S
H929 C938 0.930 . S
H930 C943 0.929 . S
H931 C941 0.929 . S
H932 C936 0.929 . S
H933 C942 0.928 1_565 S
C934 H928 0.930 . S
C934 C935 1.367 . S
C934 C942 1.380 . S
C935 C934 1.367 . S
C935 C943 1.433 . S
C936 H932 0.929 . S
C936 C938 1.378 . S
C936 C940 1.350 . S
C937 C940 1.463 . S
C937 C942 1.348 1_565 S
C937 N945 1.427 . S
C938 H929 0.930 . S
C938 C936 1.378 . S
C938 C939 1.367 . S
C939 C938 1.367 . S
C939 C941 1.433 . S
C940 C936 1.350 . S
C940 C937 1.463 . S
C940 N944 1.427 . S
C941 H931 0.929 . S
C941 C939 1.433 . S
C941 N944 1.384 . S
C942 H933 0.928 1_545 S
C942 C934 1.380 . S
C942 C937 1.348 1_545 S
C943 H930 0.929 . S
C943 C935 1.433 . S
C943 N945 1.384 1_545 S
N944 C940 1.427 . S
N944 C941 1.384 . S
N945 C937 1.427 . S
N945 C943 1.384 1_565 S
H946 C952 0.930 . S
H947 C956 0.930 . S
H948 C961 0.929 . S
H949 C959 0.929 . S
H950 C954 0.929 . S
H951 C960 0.929 . S
C952 H946 0.930 . S
C952 C953 1.367 . S
C952 C960 1.378 1_565 S
C953 C952 1.367 . S
C953 C961 1.433 . S
C954 H950 0.929 . S
C954 C956 1.378 . S
C954 C958 1.350 . S
C955 C958 1.463 . S
C955 C960 1.350 . S
C955 N963 1.427 . S
C956 H947 0.930 . S
C956 C954 1.378 . S
C956 C957 1.367 . S
C957 C956 1.367 . S
C957 C959 1.433 . S
C958 C954 1.350 . S
C958 C955 1.463 . S
C958 N962 1.427 . S
C959 H949 0.929 . S
C959 C957 1.433 . S
C959 N962 1.384 . S
C960 H951 0.929 . S
C960 C952 1.378 1_545 S
C960 C955 1.350 . S
C961 H948 0.929 . S
C961 C953 1.433 . S
C961 N963 1.384 1_565 S
N962 C958 1.427 . S
N962 C959 1.384 . S
N963 C955 1.427 . S
N963 C961 1.384 1_545 S
H964 C970 0.930 . S
H965 C974 0.930 . S
H966 C979 0.929 . S
H967 C977 0.929 . S
H968 C972 0.925 1_545 S
H969 C978 0.929 . S
C970 H964 0.930 . S
C970 C971 1.367 . S
C970 C978 1.378 . S
C971 C970 1.367 . S
C971 C979 1.433 . S
C972 H968 0.925 1_565 S
C972 C974 1.396 . S
C972 C976 1.335 1_565 S
C973 C976 1.463 . S
C973 C978 1.350 . S
C973 N981 1.427 . S
C974 H965 0.930 . S
C974 C972 1.396 . S
C974 C975 1.367 . S
C975 C974 1.367 . S
C975 C977 1.433 . S
C976 C972 1.335 1_545 S
C976 C973 1.463 . S
C976 N980 1.427 . S
C977 H967 0.929 . S
C977 C975 1.433 . S
C977 N980 1.384 1_565 S
C978 H969 0.929 . S
C978 C970 1.378 . S
C978 C973 1.350 . S
C979 H966 0.929 . S
C979 C971 1.433 . S
C979 N981 1.384 . S
N980 C976 1.427 . S
N980 C977 1.384 1_545 S
N981 C973 1.427 . S
N981 C979 1.384 . S
H982 C988 0.930 . S
H983 C992 0.930 . S
H984 C997 0.929 . S
H985 C995 0.929 . S
H986 C990 0.929 . S
H987 C996 0.929 . S
C988 H982 0.930 . S
C988 C989 1.367 . S
C988 C996 1.378 . S
C989 C988 1.367 . S
C989 C997 1.433 . S
C990 H986 0.929 . S
C990 C992 1.378 1_565 S
C990 C994 1.350 . S
C991 C994 1.463 . S
C991 C996 1.350 . S
C991 N999 1.427 . S
C992 H983 0.930 . S
C992 C990 1.378 1_545 S
C992 C993 1.367 . S
C993 C992 1.367 . S
C993 C995 1.433 . S
C994 C990 1.350 . S
C994 C991 1.463 . S
C994 N998 1.427 . S
C995 H985 0.929 . S
C995 C993 1.433 . S
C995 N998 1.384 1_545 S
C996 H987 0.929 . S
C996 C988 1.378 . S
C996 C991 1.350 . S
C997 H984 0.929 . S
C997 C989 1.433 . S
C997 N999 1.384 . S
N998 C994 1.427 . S
N998 C995 1.384 1_565 S
N999 C991 1.427 . S
N999 C997 1.384 . S
H1000 C1006 0.930 . S
H1001 C1010 0.930 . S
H1002 C1015 0.929 . S
H1003 C1013 0.929 . S
H1004 C1008 0.929 . S
H1005 C1014 0.929 . S
C1006 H1000 0.930 . S
C1006 C1007 1.367 . S
C1006 C1014 1.378 . S
C1007 C1006 1.367 . S
C1007 C1015 1.433 . S
C1008 H1004 0.929 . S
C1008 C1010 1.378 1_545 S
C1008 C1012 1.350 . S
C1009 C1012 1.463 . S
C1009 C1014 1.350 . S
C1009 N1017 1.427 . S
C1010 H1001 0.930 . S
C1010 C1008 1.378 1_565 S
C1010 C1011 1.367 . S
C1011 C1010 1.367 . S
C1011 C1013 1.433 . S
C1012 C1008 1.350 . S
C1012 C1009 1.463 . S
C1012 N1016 1.427 . S
C1013 H1003 0.929 . S
C1013 C1011 1.433 . S
C1013 N1016 1.384 1_565 S
C1014 H1005 0.929 . S
C1014 C1006 1.378 . S
C1014 C1009 1.350 . S
C1015 H1002 0.929 . S
C1015 C1007 1.433 . S
C1015 N1017 1.384 . S
N1016 C1012 1.427 . S
N1016 C1013 1.384 1_545 S
N1017 C1009 1.427 . S
N1017 C1015 1.384 . S
H1018 C1024 0.930 . S
H1019 C1028 0.930 . S
H1020 C1033 0.929 . S
H1021 C1031 0.929 . S
H1022 C1026 0.929 . S
H1023 C1032 0.929 . S
C1024 H1018 0.930 . S
C1024 C1025 1.367 . S
C1024 C1032 1.378 1_545 S
C1025 C1024 1.367 . S
C1025 C1033 1.433 . S
C1026 H1022 0.929 . S
C1026 C1028 1.378 . S
C1026 C1030 1.350 . S
C1027 C1030 1.463 . S
C1027 C1032 1.350 . S
C1027 N1035 1.427 . S
C1028 H1019 0.930 . S
C1028 C1026 1.378 . S
C1028 C1029 1.367 . S
C1029 C1028 1.367 . S
C1029 C1031 1.433 . S
C1030 C1026 1.350 . S
C1030 C1027 1.463 . S
C1030 N1034 1.427 . S
C1031 H1021 0.929 . S
C1031 C1029 1.433 . S
C1031 N1034 1.384 . S
C1032 H1023 0.929 . S
C1032 C1024 1.378 1_565 S
C1032 C1027 1.350 . S
C1033 H1020 0.929 . S
C1033 C1025 1.433 . S
C1033 N1035 1.384 1_545 S
N1034 C1030 1.427 . S
N1034 C1031 1.384 . S
N1035 C1027 1.427 . S
N1035 C1033 1.384 1_565 S
H1036 C1042 0.930 . S
H1037 C1046 0.930 . S
H1038 C1051 0.929 . S
H1039 C1049 0.929 . S
H1040 C1044 0.929 . S
H1041 C1050 0.929 1_565 S
C1042 H1036 0.930 . S
C1042 C1043 1.367 . S
C1042 C1050 1.378 . S
C1043 C1042 1.367 . S
C1043 C1051 1.433 . S
C1044 H1040 0.929 . S
C1044 C1046 1.378 . S
C1044 C1048 1.350 . S
C1045 C1048 1.463 . S
C1045 C1050 1.350 1_565 S
C1045 N1053 1.427 . S
C1046 H1037 0.930 . S
C1046 C1044 1.378 . S
C1046 C1047 1.367 . S
C1047 C1046 1.367 . S
C1047 C1049 1.433 . S
C1048 C1044 1.350 . S
C1048 C1045 1.463 . S
C1048 N1052 1.427 . S
C1049 H1039 0.929 . S
C1049 C1047 1.433 . S
C1049 N1052 1.384 . S
C1050 H1041 0.929 1_545 S
C1050 C1042 1.378 . S
C1050 C1045 1.350 1_545 S
C1051 H1038 0.929 . S
C1051 C1043 1.433 . S
C1051 N1053 1.384 1_545 S
N1052 C1048 1.427 . S
N1052 C1049 1.384 . S
N1053 C1045 1.427 . S
N1053 C1051 1.384 1_565 S
H1054 C1060 0.930 . S
H1055 C1064 0.930 . S
H1056 C1069 0.929 . S
H1057 C1067 0.929 . S
H1058 C1062 0.929 . S
H1059 C1068 0.929 . S
C1060 H1054 0.930 . S
C1060 C1061 1.367 . S
C1060 C1068 1.378 . S
C1061 C1060 1.367 . S
C1061 C1069 1.433 . S
C1062 H1058 0.929 . S
C1062 C1064 1.378 1_545 S
C1062 C1066 1.350 . S
C1063 C1066 1.463 . S
C1063 C1068 1.350 . S
C1063 N1071 1.427 . S
C1064 H1055 0.930 . S
C1064 C1062 1.378 1_565 S
C1064 C1065 1.367 . S
C1065 C1064 1.367 . S
C1065 C1067 1.433 . S
C1066 C1062 1.350 . S
C1066 C1063 1.463 . S
C1066 N1070 1.427 . S
C1067 H1057 0.929 . S
C1067 C1065 1.433 . S
C1067 N1070 1.384 1_565 S
C1068 H1059 0.929 . S
C1068 C1060 1.378 . S
C1068 C1063 1.350 . S
C1069 H1056 0.929 . S
C1069 C1061 1.433 . S
C1069 N1071 1.384 . S
N1070 C1066 1.427 . S
N1070 C1067 1.384 1_545 S
N1071 C1063 1.427 . S
N1071 C1069 1.384 . S
H1072 C1078 0.930 . S
H1073 C1082 0.930 . S
H1074 C1087 0.929 . S
H1075 C1085 0.929 . S
H1076 C1080 0.929 . S
H1077 C1086 0.929 . S
C1078 H1072 0.930 . S
C1078 C1079 1.367 . S
C1078 C1086 1.378 . S
C1079 C1078 1.367 . S
C1079 C1087 1.433 . S
C1080 H1076 0.929 . S
C1080 C1082 1.378 . S
C1080 C1084 1.350 . S
C1081 C1084 1.463 . S
C1081 C1086 1.350 . S
C1081 N1089 1.427 . S
C1082 H1073 0.930 . S
C1082 C1080 1.378 . S
C1082 C1083 1.367 . S
C1083 C1082 1.367 . S
C1083 C1085 1.433 . S
C1084 C1080 1.350 . S
C1084 C1081 1.463 . S
C1084 N1088 1.427 . S
C1085 H1075 0.929 . S
C1085 C1083 1.433 . S
C1085 N1088 1.384 . S
C1086 H1077 0.929 . S
C1086 C1078 1.378 . S
C1086 C1081 1.350 . S
C1087 H1074 0.929 . S
C1087 C1079 1.433 . S
C1087 N1089 1.384 . S
N1088 C1084 1.427 . S
N1088 C1085 1.384 . S
N1089 C1081 1.427 . S
N1089 C1087 1.384 . S
H1090 C1096 0.930 . S
H1091 C1100 0.930 . S
H1092 C1105 0.929 . S
H1093 C1103 0.929 . S
H1094 C1098 0.929 . S
H1095 C1104 0.929 . S
C1096 H1090 0.930 . S
C1096 C1097 1.367 . S
C1096 C1104 1.378 . S
C1097 C1096 1.367 . S
C1097 C1105 1.433 . S
C1098 H1094 0.929 . S
C1098 C1100 1.378 . S
C1098 C1102 1.350 . S
C1099 C1102 1.463 . S
C1099 C1104 1.350 . S
C1099 N1107 1.427 . S
C1100 H1091 0.930 . S
C1100 C1098 1.378 . S
C1100 C1101 1.367 . S
C1101 C1100 1.367 . S
C1101 C1103 1.433 . S
C1102 C1098 1.350 . S
C1102 C1099 1.463 . S
C1102 N1106 1.427 . S
C1103 H1093 0.929 . S
C1103 C1101 1.433 . S
C1103 N1106 1.384 . S
C1104 H1095 0.929 . S
C1104 C1096 1.378 . S
C1104 C1099 1.350 . S
C1105 H1092 0.929 . S
C1105 C1097 1.433 . S
C1105 N1107 1.384 . S
N1106 C1102 1.427 . S
N1106 C1103 1.384 . S
N1107 C1099 1.427 . S
N1107 C1105 1.384 . S
H1108 C1114 0.930 . S
H1109 C1118 0.930 . S
H1110 C1123 0.929 . S
H1111 C1121 0.929 . S
H1112 C1116 0.929 . S
H1113 C1122 0.929 . S
C1114 H1108 0.930 . S
C1114 C1115 1.367 . S
C1114 C1122 1.378 . S
C1115 C1114 1.367 . S
C1115 C1123 1.433 . S
C1116 H1112 0.929 . S
C1116 C1118 1.378 . S
C1116 C1120 1.350 . S
C1117 C1120 1.463 . S
C1117 C1122 1.350 . S
C1117 N1125 1.427 . S
C1118 H1109 0.930 . S
C1118 C1116 1.378 . S
C1118 C1119 1.367 . S
C1119 C1118 1.367 . S
C1119 C1121 1.433 . S
C1120 C1116 1.350 . S
C1120 C1117 1.463 . S
C1120 N1124 1.427 . S
C1121 H1111 0.929 . S
C1121 C1119 1.433 . S
C1121 N1124 1.384 . S
C1122 H1113 0.929 . S
C1122 C1114 1.378 . S
C1122 C1117 1.350 . S
C1123 H1110 0.929 . S
C1123 C1115 1.433 . S
C1123 N1125 1.384 . S
N1124 C1120 1.427 . S
N1124 C1121 1.384 . S
N1125 C1117 1.427 . S
N1125 C1123 1.384 . S
H1126 C1132 0.930 . S
H1127 C1136 0.930 . S
H1128 C1141 0.929 . S
H1129 C1139 0.929 . S
H1130 C1134 0.929 . S
H1131 C1140 0.929 . S
C1132 H1126 0.930 . S
C1132 C1133 1.367 . S
C1132 C1140 1.378 . S
C1133 C1132 1.367 . S
C1133 C1141 1.433 . S
C1134 H1130 0.929 . S
C1134 C1136 1.378 . S
C1134 C1138 1.350 . S
C1135 C1138 1.463 . S
C1135 C1140 1.350 . S
C1135 N1143 1.427 . S
C1136 H1127 0.930 . S
C1136 C1134 1.378 . S
C1136 C1137 1.367 . S
C1137 C1136 1.367 . S
C1137 C1139 1.433 . S
C1138 C1134 1.350 . S
C1138 C1135 1.463 . S
C1138 N1142 1.427 . S
C1139 H1129 0.929 . S
C1139 C1137 1.433 . S
C1139 N1142 1.384 . S
C1140 H1131 0.929 . S
C1140 C1132 1.378 . S
C1140 C1135 1.350 . S
C1141 H1128 0.929 . S
C1141 C1133 1.433 . S
C1141 N1143 1.384 . S
N1142 C1138 1.427 . S
N1142 C1139 1.384 . S
N1143 C1135 1.427 . S
N1143 C1141 1.384 . S
H1144 C1150 0.930 . S
H1145 C1154 0.930 . S
H1146 C1159 0.929 . S
H1147 C1157 0.929 . S
H1148 C1152 0.929 . S
H1149 C1158 0.929 . S
C1150 H1144 0.930 . S
C1150 C1151 1.367 . S
C1150 C1158 1.378 . S
C1151 C1150 1.367 . S
C1151 C1159 1.433 . S
C1152 H1148 0.929 . S
C1152 C1154 1.378 . S
C1152 C1156 1.350 . S
C1153 C1156 1.463 . S
C1153 C1158 1.350 . S
C1153 N1161 1.427 . S
C1154 H1145 0.930 . S
C1154 C1152 1.378 . S
C1154 C1155 1.367 . S
C1155 C1154 1.367 . S
C1155 C1157 1.433 . S
C1156 C1152 1.350 . S
C1156 C1153 1.463 . S
C1156 N1160 1.427 . S
C1157 H1147 0.929 . S
C1157 C1155 1.433 . S
C1157 N1160 1.384 . S
C1158 H1149 0.929 . S
C1158 C1150 1.378 . S
C1158 C1153 1.350 . S
C1159 H1146 0.929 . S
C1159 C1151 1.433 . S
C1159 N1161 1.384 . S
N1160 C1156 1.427 . S
N1160 C1157 1.384 . S
N1161 C1153 1.427 . S
N1161 C1159 1.384 . S
H1162 C1168 0.930 . S
H1163 C1172 0.930 . S
H1164 C1177 0.929 . S
H1165 C1175 0.929 . S
H1166 C1170 0.929 . S
H1167 C1176 0.929 . S
C1168 H1162 0.930 . S
C1168 C1169 1.367 . S
C1168 C1176 1.378 . S
C1169 C1168 1.367 . S
C1169 C1177 1.433 . S
C1170 H1166 0.929 . S
C1170 C1172 1.378 . S
C1170 C1174 1.350 . S
C1171 C1174 1.463 . S
C1171 C1176 1.350 . S
C1171 N1179 1.427 . S
C1172 H1163 0.930 . S
C1172 C1170 1.378 . S
C1172 C1173 1.367 . S
C1173 C1172 1.367 . S
C1173 C1175 1.433 . S
C1174 C1170 1.350 . S
C1174 C1171 1.463 . S
C1174 N1178 1.427 . S
C1175 H1165 0.929 . S
C1175 C1173 1.433 . S
C1175 N1178 1.384 . S
C1176 H1167 0.929 . S
C1176 C1168 1.378 . S
C1176 C1171 1.350 . S
C1177 H1164 0.929 . S
C1177 C1169 1.433 . S
C1177 N1179 1.384 . S
N1178 C1174 1.427 . S
N1178 C1175 1.384 . S
N1179 C1171 1.427 . S
N1179 C1177 1.384 . S
H1180 C1186 0.930 . S
H1181 C1190 0.930 . S
H1182 C1195 0.929 . S
H1183 C1193 0.929 . S
H1184 C1188 0.929 . S
H1185 C1194 0.929 . S
C1186 H1180 0.930 . S
C1186 C1187 1.367 . S
C1186 C1194 1.378 . S
C1187 C1186 1.367 . S
C1187 C1195 1.433 . S
C1188 H1184 0.929 . S
C1188 C1190 1.378 . S
C1188 C1192 1.350 . S
C1189 C1192 1.463 . S
C1189 C1194 1.350 . S
C1189 N1197 1.427 . S
C1190 H1181 0.930 . S
C1190 C1188 1.378 . S
C1190 C1191 1.367 . S
C1191 C1190 1.367 . S
C1191 C1193 1.433 . S
C1192 C1188 1.350 . S
C1192 C1189 1.463 . S
C1192 N1196 1.427 . S
C1193 H1183 0.929 . S
C1193 C1191 1.433 . S
C1193 N1196 1.384 . S
C1194 H1185 0.929 . S
C1194 C1186 1.378 . S
C1194 C1189 1.350 . S
C1195 H1182 0.929 . S
C1195 C1187 1.433 . S
C1195 N1197 1.384 . S
N1196 C1192 1.427 . S
N1196 C1193 1.384 . S
N1197 C1189 1.427 . S
N1197 C1195 1.384 . S
H1198 C1204 0.930 . S
H1199 C1208 0.930 . S
H1200 C1213 0.929 . S
H1201 C1211 0.929 . S
H1202 C1206 0.929 . S
H1203 C1212 0.929 . S
C1204 H1198 0.930 . S
C1204 C1205 1.367 . S
C1204 C1212 1.378 . S
C1205 C1204 1.367 . S
C1205 C1213 1.433 . S
C1206 H1202 0.929 . S
C1206 C1208 1.378 . S
C1206 C1210 1.350 . S
C1207 C1210 1.463 . S
C1207 C1212 1.350 . S
C1207 N1215 1.427 . S
C1208 H1199 0.930 . S
C1208 C1206 1.378 . S
C1208 C1209 1.367 . S
C1209 C1208 1.367 . S
C1209 C1211 1.433 . S
C1210 C1206 1.350 . S
C1210 C1207 1.463 . S
C1210 N1214 1.427 . S
C1211 H1201 0.929 . S
C1211 C1209 1.433 . S
C1211 N1214 1.384 . S
C1212 H1203 0.929 . S
C1212 C1204 1.378 . S
C1212 C1207 1.350 . S
C1213 H1200 0.929 . S
C1213 C1205 1.433 . S
C1213 N1215 1.384 . S
N1214 C1210 1.427 . S
N1214 C1211 1.384 . S
N1215 C1207 1.427 . S
N1215 C1213 1.384 . S
C359 C5 0.811 . S
C363 C270 0.811 . S
C377 C293 0.788 . S
C381 C27 0.788 . S
C395 C314 0.791 . S
C399 C49 0.791 . S
C413 C336 0.804 . S
C417 C75 0.804 . S
C431 C94 0.799 . S
C435 C181 0.799 . S
C449 C203 0.784 . S
C453 C117 0.784 . S
C467 C138 0.814 . S
C471 C225 0.814 . S
C485 C251 0.782 . S
C489 C160 0.782 . S
C503 C48 1.850 . S
C507 C4 1.852 . S
C521 C26 1.852 . S
C525 C74 1.850 . S
C539 C92 1.852 . S
C543 C136 1.850 . S
C557 C158 1.852 . S
C561 C118 1.850 . S
C575 C180 1.851 . S
C579 C224 1.850 . S
C593 C250 1.850 . S
C597 C202 1.851 . S
C611 C312 1.852 . S
C615 C268 1.850 . S
C629 C334 1.851 . S
C633 C294 1.850 . S
C647 C9 1.769 . S
C651 C71 1.775 . S
C665 C53 1.771 . S
C669 C31 1.767 . S
C683 C161 1.781 . S
C687 C95 1.777 . S
C701 C139 1.767 . S
C705 C116 1.771 . S
C719 C247 1.771 . S
C723 C185 1.777 . S
C737 C229 1.780 . S
C741 C207 1.782 . S
C755 C271 1.777 . S
C759 C337 1.771 . S
C773 C315 1.779 . S
C777 C292 1.773 . S
C791 C8 1.444 . S
C795 C140 1.457 . S
C809 C30 1.442 . S
C813 C162 1.458 . S
C827 C96 1.454 . S
C831 C52 1.447 . S
C845 C114 1.455 . S
C849 C70 1.446 . S
C863 C184 1.443 . S
C867 C316 1.457 . S
C881 C206 1.443 . S
C885 C338 1.458 . S
C899 C272 1.452 . S
C903 C228 1.449 . S
C917 C290 1.459 . S
C921 C246 1.442 . S
C935 C6 1.284 . S
C939 C317 1.226 . S
C953 C28 1.289 . S
C957 C339 1.237 . S
C971 C273 1.226 . S
C975 C50 1.284 . S
C989 C291 1.235 . S
C993 C73 1.289 . S
C1007 C227 1.247 . S
C1011 C93 1.284 . S
C1025 C119 1.289 . S
C1029 C248 1.238 . S
C1043 C137 1.288 . S
C1047 C183 1.230 . S
C1061 C205 1.233 . S
C1065 C159 1.277 . S
C1079 C141 1.244 . S
C1083 C182 1.288 . S
C1097 C204 1.286 . S
C1101 C163 1.246 . S
C1115 C97 1.231 . S
C1119 C226 1.277 . S
C1133 C249 1.289 . S
C1137 C115 1.233 . S
C1151 C51 1.241 . S
C1155 C269 1.277 . S
C1169 C295 1.278 . S
C1173 C72 1.243 . S
C1187 C313 1.288 . S
C1191 C7 1.243 . S
C1205 C29 1.247 . S
C1209 C335 1.283 . S
