# Generated by pormake.
# Topology kfi, (4)-cn, num edge types: 1
# Building blocks:
#     Node 0, Type 0, BuildingBlock: GALJAG_clean_sbu_0, # of connection points: 4
#     Node 1, Type 0, BuildingBlock: GALJAG_clean_sbu_0, # of connection points: 4
#     Node 2, Type 0, BuildingBlock: GALJAG_clean_sbu_0, # of connection points: 4
#     Node 3, Type 0, BuildingBlock: GALJAG_clean_sbu_0, # of connection points: 4
#     Node 4, Type 0, BuildingBlock: GALJAG_clean_sbu_0, # of connection points: 4
#     Node 5, Type 0, BuildingBlock: GALJAG_clean_sbu_0, # of connection points: 4
#     Node 6, Type 0, BuildingBlock: GALJAG_clean_sbu_0, # of connection points: 4
#     Node 7, Type 0, BuildingBlock: GALJAG_clean_sbu_0, # of connection points: 4
#     Node 8, Type 0, BuildingBlock: GALJAG_clean_sbu_0, # of connection points: 4
#     Node 9, Type 0, BuildingBlock: GALJAG_clean_sbu_0, # of connection points: 4
#     Node 10, Type 0, BuildingBlock: GALJAG_clean_sbu_0, # of connection points: 4
#     Node 11, Type 0, BuildingBlock: GALJAG_clean_sbu_0, # of connection points: 4
#     Node 12, Type 0, BuildingBlock: GALJAG_clean_sbu_0, # of connection points: 4
#     Node 13, Type 0, BuildingBlock: GALJAG_clean_sbu_0, # of connection points: 4
#     Node 14, Type 0, BuildingBlock: GALJAG_clean_sbu_0, # of connection points: 4
#     Node 15, Type 0, BuildingBlock: GALJAG_clean_sbu_0, # of connection points: 4
#     Node 16, Type 0, BuildingBlock: GALJAG_clean_sbu_0, # of connection points: 4
#     Node 17, Type 0, BuildingBlock: GALJAG_clean_sbu_0, # of connection points: 4
#     Node 18, Type 0, BuildingBlock: GALJAG_clean_sbu_0, # of connection points: 4
#     Node 19, Type 0, BuildingBlock: GALJAG_clean_sbu_0, # of connection points: 4
#     Node 20, Type 0, BuildingBlock: GALJAG_clean_sbu_0, # of connection points: 4
#     Node 21, Type 0, BuildingBlock: GALJAG_clean_sbu_0, # of connection points: 4
#     Node 22, Type 0, BuildingBlock: GALJAG_clean_sbu_0, # of connection points: 4
#     Node 23, Type 0, BuildingBlock: GALJAG_clean_sbu_0, # of connection points: 4
#     Node 24, Type 0, BuildingBlock: GALJAG_clean_sbu_0, # of connection points: 4
#     Node 25, Type 0, BuildingBlock: GALJAG_clean_sbu_0, # of connection points: 4
#     Node 26, Type 0, BuildingBlock: GALJAG_clean_sbu_0, # of connection points: 4
#     Node 27, Type 0, BuildingBlock: GALJAG_clean_sbu_0, # of connection points: 4
#     Node 28, Type 0, BuildingBlock: GALJAG_clean_sbu_0, # of connection points: 4
#     Node 29, Type 0, BuildingBlock: GALJAG_clean_sbu_0, # of connection points: 4
#     Node 30, Type 0, BuildingBlock: GALJAG_clean_sbu_0, # of connection points: 4
#     Node 31, Type 0, BuildingBlock: GALJAG_clean_sbu_0, # of connection points: 4
#     Node 32, Type 0, BuildingBlock: GALJAG_clean_sbu_0, # of connection points: 4
#     Node 33, Type 0, BuildingBlock: GALJAG_clean_sbu_0, # of connection points: 4
#     Node 34, Type 0, BuildingBlock: GALJAG_clean_sbu_0, # of connection points: 4
#     Node 35, Type 0, BuildingBlock: GALJAG_clean_sbu_0, # of connection points: 4
#     Node 36, Type 0, BuildingBlock: GALJAG_clean_sbu_0, # of connection points: 4
#     Node 37, Type 0, BuildingBlock: GALJAG_clean_sbu_0, # of connection points: 4
#     Node 38, Type 0, BuildingBlock: GALJAG_clean_sbu_0, # of connection points: 4
#     Node 39, Type 0, BuildingBlock: GALJAG_clean_sbu_0, # of connection points: 4
#     Node 40, Type 0, BuildingBlock: GALJAG_clean_sbu_0, # of connection points: 4
#     Node 41, Type 0, BuildingBlock: GALJAG_clean_sbu_0, # of connection points: 4
#     Node 42, Type 0, BuildingBlock: GALJAG_clean_sbu_0, # of connection points: 4
#     Node 43, Type 0, BuildingBlock: GALJAG_clean_sbu_0, # of connection points: 4
#     Node 44, Type 0, BuildingBlock: GALJAG_clean_sbu_0, # of connection points: 4
#     Node 45, Type 0, BuildingBlock: GALJAG_clean_sbu_0, # of connection points: 4
#     Node 46, Type 0, BuildingBlock: GALJAG_clean_sbu_0, # of connection points: 4
#     Node 47, Type 0, BuildingBlock: GALJAG_clean_sbu_0, # of connection points: 4
#     Node 48, Type 0, BuildingBlock: GALJAG_clean_sbu_0, # of connection points: 4
#     Node 49, Type 0, BuildingBlock: GALJAG_clean_sbu_0, # of connection points: 4
#     Node 50, Type 0, BuildingBlock: GALJAG_clean_sbu_0, # of connection points: 4
#     Node 51, Type 0, BuildingBlock: GALJAG_clean_sbu_0, # of connection points: 4
#     Node 52, Type 0, BuildingBlock: GALJAG_clean_sbu_0, # of connection points: 4
#     Node 53, Type 0, BuildingBlock: GALJAG_clean_sbu_0, # of connection points: 4
#     Node 54, Type 0, BuildingBlock: GALJAG_clean_sbu_0, # of connection points: 4
#     Node 55, Type 0, BuildingBlock: GALJAG_clean_sbu_0, # of connection points: 4
#     Node 56, Type 0, BuildingBlock: GALJAG_clean_sbu_0, # of connection points: 4
#     Node 57, Type 0, BuildingBlock: GALJAG_clean_sbu_0, # of connection points: 4
#     Node 58, Type 0, BuildingBlock: GALJAG_clean_sbu_0, # of connection points: 4
#     Node 59, Type 0, BuildingBlock: GALJAG_clean_sbu_0, # of connection points: 4
#     Node 60, Type 0, BuildingBlock: GALJAG_clean_sbu_0, # of connection points: 4
#     Node 61, Type 0, BuildingBlock: GALJAG_clean_sbu_0, # of connection points: 4
#     Node 62, Type 0, BuildingBlock: GALJAG_clean_sbu_0, # of connection points: 4
#     Node 63, Type 0, BuildingBlock: GALJAG_clean_sbu_0, # of connection points: 4
#     Node 64, Type 0, BuildingBlock: GALJAG_clean_sbu_0, # of connection points: 4
#     Node 65, Type 0, BuildingBlock: GALJAG_clean_sbu_0, # of connection points: 4
#     Node 66, Type 0, BuildingBlock: GALJAG_clean_sbu_0, # of connection points: 4
#     Node 67, Type 0, BuildingBlock: GALJAG_clean_sbu_0, # of connection points: 4
#     Node 68, Type 0, BuildingBlock: GALJAG_clean_sbu_0, # of connection points: 4
#     Node 69, Type 0, BuildingBlock: GALJAG_clean_sbu_0, # of connection points: 4
#     Node 70, Type 0, BuildingBlock: GALJAG_clean_sbu_0, # of connection points: 4
#     Node 71, Type 0, BuildingBlock: GALJAG_clean_sbu_0, # of connection points: 4
#     Node 72, Type 0, BuildingBlock: GALJAG_clean_sbu_0, # of connection points: 4
#     Node 73, Type 0, BuildingBlock: GALJAG_clean_sbu_0, # of connection points: 4
#     Node 74, Type 0, BuildingBlock: GALJAG_clean_sbu_0, # of connection points: 4
#     Node 75, Type 0, BuildingBlock: GALJAG_clean_sbu_0, # of connection points: 4
#     Node 76, Type 0, BuildingBlock: GALJAG_clean_sbu_0, # of connection points: 4
#     Node 77, Type 0, BuildingBlock: GALJAG_clean_sbu_0, # of connection points: 4
#     Node 78, Type 0, BuildingBlock: GALJAG_clean_sbu_0, # of connection points: 4
#     Node 79, Type 0, BuildingBlock: GALJAG_clean_sbu_0, # of connection points: 4
#     Node 80, Type 0, BuildingBlock: GALJAG_clean_sbu_0, # of connection points: 4
#     Node 81, Type 0, BuildingBlock: GALJAG_clean_sbu_0, # of connection points: 4
#     Node 82, Type 0, BuildingBlock: GALJAG_clean_sbu_0, # of connection points: 4
#     Node 83, Type 0, BuildingBlock: GALJAG_clean_sbu_0, # of connection points: 4
#     Node 84, Type 0, BuildingBlock: GALJAG_clean_sbu_0, # of connection points: 4
#     Node 85, Type 0, BuildingBlock: GALJAG_clean_sbu_0, # of connection points: 4
#     Node 86, Type 0, BuildingBlock: GALJAG_clean_sbu_0, # of connection points: 4
#     Node 87, Type 0, BuildingBlock: GALJAG_clean_sbu_0, # of connection points: 4
#     Node 88, Type 0, BuildingBlock: GALJAG_clean_sbu_0, # of connection points: 4
#     Node 89, Type 0, BuildingBlock: GALJAG_clean_sbu_0, # of connection points: 4
#     Node 90, Type 0, BuildingBlock: GALJAG_clean_sbu_0, # of connection points: 4
#     Node 91, Type 0, BuildingBlock: GALJAG_clean_sbu_0, # of connection points: 4
#     Node 92, Type 0, BuildingBlock: GALJAG_clean_sbu_0, # of connection points: 4
#     Node 93, Type 0, BuildingBlock: GALJAG_clean_sbu_0, # of connection points: 4
#     Node 94, Type 0, BuildingBlock: GALJAG_clean_sbu_0, # of connection points: 4
#     Node 95, Type 0, BuildingBlock: GALJAG_clean_sbu_0, # of connection points: 4
#     Edge 96, Type (0, 0), None
#     Edge 97, Type (0, 0), None
#     Edge 98, Type (0, 0), None
#     Edge 99, Type (0, 0), None
#     Edge 100, Type (0, 0), None
#     Edge 101, Type (0, 0), None
#     Edge 102, Type (0, 0), None
#     Edge 103, Type (0, 0), None
#     Edge 104, Type (0, 0), None
#     Edge 105, Type (0, 0), None
#     Edge 106, Type (0, 0), None
#     Edge 107, Type (0, 0), None
#     Edge 108, Type (0, 0), None
#     Edge 109, Type (0, 0), None
#     Edge 110, Type (0, 0), None
#     Edge 111, Type (0, 0), None
#     Edge 112, Type (0, 0), None
#     Edge 113, Type (0, 0), None
#     Edge 114, Type (0, 0), None
#     Edge 115, Type (0, 0), None
#     Edge 116, Type (0, 0), None
#     Edge 117, Type (0, 0), None
#     Edge 118, Type (0, 0), None
#     Edge 119, Type (0, 0), None
#     Edge 120, Type (0, 0), None
#     Edge 121, Type (0, 0), None
#     Edge 122, Type (0, 0), None
#     Edge 123, Type (0, 0), None
#     Edge 124, Type (0, 0), None
#     Edge 125, Type (0, 0), None
#     Edge 126, Type (0, 0), None
#     Edge 127, Type (0, 0), None
#     Edge 128, Type (0, 0), None
#     Edge 129, Type (0, 0), None
#     Edge 130, Type (0, 0), None
#     Edge 131, Type (0, 0), None
#     Edge 132, Type (0, 0), None
#     Edge 133, Type (0, 0), None
#     Edge 134, Type (0, 0), None
#     Edge 135, Type (0, 0), None
#     Edge 136, Type (0, 0), None
#     Edge 137, Type (0, 0), None
#     Edge 138, Type (0, 0), None
#     Edge 139, Type (0, 0), None
#     Edge 140, Type (0, 0), None
#     Edge 141, Type (0, 0), None
#     Edge 142, Type (0, 0), None
#     Edge 143, Type (0, 0), None
#     Edge 144, Type (0, 0), None
#     Edge 145, Type (0, 0), None
#     Edge 146, Type (0, 0), None
#     Edge 147, Type (0, 0), None
#     Edge 148, Type (0, 0), None
#     Edge 149, Type (0, 0), None
#     Edge 150, Type (0, 0), None
#     Edge 151, Type (0, 0), None
#     Edge 152, Type (0, 0), None
#     Edge 153, Type (0, 0), None
#     Edge 154, Type (0, 0), None
#     Edge 155, Type (0, 0), None
#     Edge 156, Type (0, 0), None
#     Edge 157, Type (0, 0), None
#     Edge 158, Type (0, 0), None
#     Edge 159, Type (0, 0), None
#     Edge 160, Type (0, 0), None
#     Edge 161, Type (0, 0), None
#     Edge 162, Type (0, 0), None
#     Edge 163, Type (0, 0), None
#     Edge 164, Type (0, 0), None
#     Edge 165, Type (0, 0), None
#     Edge 166, Type (0, 0), None
#     Edge 167, Type (0, 0), None
#     Edge 168, Type (0, 0), None
#     Edge 169, Type (0, 0), None
#     Edge 170, Type (0, 0), None
#     Edge 171, Type (0, 0), None
#     Edge 172, Type (0, 0), None
#     Edge 173, Type (0, 0), None
#     Edge 174, Type (0, 0), None
#     Edge 175, Type (0, 0), None
#     Edge 176, Type (0, 0), None
#     Edge 177, Type (0, 0), None
#     Edge 178, Type (0, 0), None
#     Edge 179, Type (0, 0), None
#     Edge 180, Type (0, 0), None
#     Edge 181, Type (0, 0), None
#     Edge 182, Type (0, 0), None
#     Edge 183, Type (0, 0), None
#     Edge 184, Type (0, 0), None
#     Edge 185, Type (0, 0), None
#     Edge 186, Type (0, 0), None
#     Edge 187, Type (0, 0), None
#     Edge 188, Type (0, 0), None
#     Edge 189, Type (0, 0), None
#     Edge 190, Type (0, 0), None
#     Edge 191, Type (0, 0), None
#     Edge 192, Type (0, 0), None
#     Edge 193, Type (0, 0), None
#     Edge 194, Type (0, 0), None
#     Edge 195, Type (0, 0), None
#     Edge 196, Type (0, 0), None
#     Edge 197, Type (0, 0), None
#     Edge 198, Type (0, 0), None
#     Edge 199, Type (0, 0), None
#     Edge 200, Type (0, 0), None
#     Edge 201, Type (0, 0), None
#     Edge 202, Type (0, 0), None
#     Edge 203, Type (0, 0), None
#     Edge 204, Type (0, 0), None
#     Edge 205, Type (0, 0), None
#     Edge 206, Type (0, 0), None
#     Edge 207, Type (0, 0), None
#     Edge 208, Type (0, 0), None
#     Edge 209, Type (0, 0), None
#     Edge 210, Type (0, 0), None
#     Edge 211, Type (0, 0), None
#     Edge 212, Type (0, 0), None
#     Edge 213, Type (0, 0), None
#     Edge 214, Type (0, 0), None
#     Edge 215, Type (0, 0), None
#     Edge 216, Type (0, 0), None
#     Edge 217, Type (0, 0), None
#     Edge 218, Type (0, 0), None
#     Edge 219, Type (0, 0), None
#     Edge 220, Type (0, 0), None
#     Edge 221, Type (0, 0), None
#     Edge 222, Type (0, 0), None
#     Edge 223, Type (0, 0), None
#     Edge 224, Type (0, 0), None
#     Edge 225, Type (0, 0), None
#     Edge 226, Type (0, 0), None
#     Edge 227, Type (0, 0), None
#     Edge 228, Type (0, 0), None
#     Edge 229, Type (0, 0), None
#     Edge 230, Type (0, 0), None
#     Edge 231, Type (0, 0), None
#     Edge 232, Type (0, 0), None
#     Edge 233, Type (0, 0), None
#     Edge 234, Type (0, 0), None
#     Edge 235, Type (0, 0), None
#     Edge 236, Type (0, 0), None
#     Edge 237, Type (0, 0), None
#     Edge 238, Type (0, 0), None
#     Edge 239, Type (0, 0), None
#     Edge 240, Type (0, 0), None
#     Edge 241, Type (0, 0), None
#     Edge 242, Type (0, 0), None
#     Edge 243, Type (0, 0), None
#     Edge 244, Type (0, 0), None
#     Edge 245, Type (0, 0), None
#     Edge 246, Type (0, 0), None
#     Edge 247, Type (0, 0), None
#     Edge 248, Type (0, 0), None
#     Edge 249, Type (0, 0), None
#     Edge 250, Type (0, 0), None
#     Edge 251, Type (0, 0), None
#     Edge 252, Type (0, 0), None
#     Edge 253, Type (0, 0), None
#     Edge 254, Type (0, 0), None
#     Edge 255, Type (0, 0), None
#     Edge 256, Type (0, 0), None
#     Edge 257, Type (0, 0), None
#     Edge 258, Type (0, 0), None
#     Edge 259, Type (0, 0), None
#     Edge 260, Type (0, 0), None
#     Edge 261, Type (0, 0), None
#     Edge 262, Type (0, 0), None
#     Edge 263, Type (0, 0), None
#     Edge 264, Type (0, 0), None
#     Edge 265, Type (0, 0), None
#     Edge 266, Type (0, 0), None
#     Edge 267, Type (0, 0), None
#     Edge 268, Type (0, 0), None
#     Edge 269, Type (0, 0), None
#     Edge 270, Type (0, 0), None
#     Edge 271, Type (0, 0), None
#     Edge 272, Type (0, 0), None
#     Edge 273, Type (0, 0), None
#     Edge 274, Type (0, 0), None
#     Edge 275, Type (0, 0), None
#     Edge 276, Type (0, 0), None
#     Edge 277, Type (0, 0), None
#     Edge 278, Type (0, 0), None
#     Edge 279, Type (0, 0), None
#     Edge 280, Type (0, 0), None
#     Edge 281, Type (0, 0), None
#     Edge 282, Type (0, 0), None
#     Edge 283, Type (0, 0), None
#     Edge 284, Type (0, 0), None
#     Edge 285, Type (0, 0), None
#     Edge 286, Type (0, 0), None
#     Edge 287, Type (0, 0), None
# Relax obj value: 0.144
# Max RMSD: 0.099
# Mean RMSD: 0.099
data_MOF--net-kfi--node1-GALJAG_clean_sbu_0--edge1-none
_symmetry_space_group_name_H-M    P1
_symmetry_Int_Tables_number       1
_symmetry_cell_setting            triclinic
loop_
_symmetry_equiv_pos_as_xyz
'x, y, z'
_cell_length_a     40.397345
_cell_length_b     40.39795
_cell_length_c     40.39758
_cell_angle_alpha  90.000013
_cell_angle_beta   89.999859
_cell_angle_gamma 89.999842
loop_
_atom_site_label
_atom_site_type_symbol
_atom_site_fract_x
_atom_site_fract_y
_atom_site_fract_z
_atom_type_partial_charge
In0 In 0.08203 0.20012 0.31952 0.0
O1 O 0.11159 0.16023 0.29287 0.0
O2 O 0.10563 0.15508 0.34489 0.0
C3 C 0.07729 0.24413 0.26971 0.0
C4 C 0.11905 0.23867 0.3594 0.0
C5 C 0.01759 0.18415 0.32687 0.0
O6 O 0.09128 0.21645 0.26603 0.0
O7 O 0.06535 0.24933 0.29803 0.0
O8 O 0.03411 0.19779 0.34955 0.0
O9 O 0.03392 0.17688 0.30131 0.0
C10 C 0.11838 0.14401 0.31862 0.0
O11 O 0.09118 0.22773 0.3684 0.0
O12 O 0.12831 0.22968 0.33102 0.0
In13 In 0.79885 0.08202 0.31952 0.0
O14 O 0.77124 0.09117 0.3684 0.0
O15 O 0.76929 0.1283 0.33102 0.0
C16 C 0.81482 0.01759 0.32687 0.0
C17 C 0.85496 0.11837 0.31862 0.0
C18 C 0.75484 0.07728 0.26971 0.0
O19 O 0.80118 0.03411 0.34955 0.0
O20 O 0.82209 0.03391 0.30131 0.0
O21 O 0.78252 0.09126 0.26602 0.0
O22 O 0.74964 0.06534 0.29803 0.0
C23 C 0.7603 0.11904 0.3594 0.0
O24 O 0.83874 0.11158 0.29287 0.0
O25 O 0.84389 0.10562 0.34489 0.0
In26 In 0.91695 0.79885 0.31952 0.0
O27 O 0.88738 0.83873 0.29287 0.0
O28 O 0.89335 0.84388 0.34489 0.0
C29 C 0.92168 0.75483 0.26971 0.0
C30 C 0.87993 0.76029 0.3594 0.0
C31 C 0.98138 0.81481 0.32687 0.0
O32 O 0.9077 0.78251 0.26603 0.0
O33 O 0.93363 0.74963 0.29803 0.0
O34 O 0.96486 0.80117 0.34955 0.0
O35 O 0.96506 0.82208 0.30131 0.0
C36 C 0.88059 0.85495 0.31862 0.0
O37 O 0.9078 0.77123 0.3684 0.0
O38 O 0.87067 0.76928 0.33102 0.0
In39 In 0.20012 0.91694 0.31952 0.0
O40 O 0.22773 0.90779 0.3684 0.0
O41 O 0.22968 0.87066 0.33102 0.0
C42 C 0.18415 0.98137 0.32687 0.0
C43 C 0.14402 0.88059 0.31862 0.0
C44 C 0.24414 0.92168 0.26971 0.0
O45 O 0.1978 0.96486 0.34956 0.0
O46 O 0.17688 0.96505 0.30131 0.0
O47 O 0.21646 0.9077 0.26603 0.0
O48 O 0.24934 0.93362 0.29803 0.0
C49 C 0.23867 0.87992 0.3594 0.0
O50 O 0.16024 0.88738 0.29287 0.0
O51 O 0.15509 0.89334 0.34489 0.0
In52 In 0.08203 0.79885 0.67945 0.0
O53 O 0.09118 0.77123 0.63057 0.0
O54 O 0.12831 0.76928 0.66795 0.0
C55 C 0.01759 0.81481 0.6721 0.0
C56 C 0.11838 0.85495 0.68035 0.0
C57 C 0.07729 0.75483 0.72926 0.0
O58 O 0.03411 0.80117 0.64942 0.0
O59 O 0.03392 0.82208 0.69766 0.0
O60 O 0.09128 0.78251 0.73294 0.0
O61 O 0.06535 0.74963 0.70094 0.0
C62 C 0.11905 0.76029 0.63957 0.0
O63 O 0.11159 0.83873 0.7061 0.0
O64 O 0.10563 0.84388 0.65409 0.0
In65 In 0.20012 0.08202 0.67945 0.0
O66 O 0.16024 0.11158 0.7061 0.0
O67 O 0.15509 0.10562 0.65409 0.0
C68 C 0.24414 0.07728 0.72926 0.0
C69 C 0.23867 0.11904 0.63957 0.0
C70 C 0.18415 0.01759 0.6721 0.0
O71 O 0.21646 0.09126 0.73295 0.0
O72 O 0.24934 0.06534 0.70094 0.0
O73 O 0.1978 0.03411 0.64942 0.0
O74 O 0.17689 0.03391 0.69766 0.0
C75 C 0.14402 0.11837 0.68035 0.0
O76 O 0.22774 0.09117 0.63057 0.0
O77 O 0.22968 0.1283 0.66795 0.0
In78 In 0.91695 0.20012 0.67945 0.0
O79 O 0.88738 0.16023 0.7061 0.0
O80 O 0.89335 0.15508 0.65408 0.0
C81 C 0.92168 0.24413 0.72926 0.0
C82 C 0.87993 0.23867 0.63957 0.0
C83 C 0.98138 0.18415 0.6721 0.0
O84 O 0.9077 0.21645 0.73294 0.0
O85 O 0.93363 0.24933 0.70094 0.0
O86 O 0.96486 0.19779 0.64942 0.0
O87 O 0.96506 0.17688 0.69766 0.0
C88 C 0.88059 0.14401 0.68035 0.0
O89 O 0.9078 0.22773 0.63057 0.0
O90 O 0.87067 0.22968 0.66795 0.0
In91 In 0.79885 0.91694 0.67945 0.0
O92 O 0.77124 0.90779 0.63057 0.0
O93 O 0.76929 0.87066 0.66795 0.0
C94 C 0.81482 0.98137 0.6721 0.0
C95 C 0.85496 0.88059 0.68035 0.0
C96 C 0.75484 0.92168 0.72926 0.0
O97 O 0.80118 0.96486 0.64942 0.0
O98 O 0.82209 0.96505 0.69766 0.0
O99 O 0.78252 0.9077 0.73295 0.0
O100 O 0.74964 0.93362 0.70094 0.0
C101 C 0.7603 0.87992 0.63957 0.0
O102 O 0.83874 0.88738 0.7061 0.0
O103 O 0.84389 0.89334 0.65409 0.0
In104 In 0.31952 0.08202 0.20012 0.0
O105 O 0.29288 0.11158 0.16024 0.0
O106 O 0.34489 0.10562 0.15509 0.0
C107 C 0.26971 0.07728 0.24414 0.0
C108 C 0.3594 0.11904 0.23867 0.0
C109 C 0.32687 0.01759 0.18415 0.0
O110 O 0.26603 0.09126 0.21645 0.0
O111 O 0.29804 0.06534 0.24933 0.0
O112 O 0.34956 0.03411 0.19779 0.0
O113 O 0.30131 0.03391 0.17688 0.0
C114 C 0.31862 0.11837 0.14401 0.0
O115 O 0.36841 0.09117 0.22773 0.0
O116 O 0.33102 0.1283 0.22968 0.0
In117 In 0.91695 0.31952 0.20012 0.0
O118 O 0.88738 0.29287 0.16024 0.0
O119 O 0.89335 0.34488 0.15509 0.0
C120 C 0.92168 0.2697 0.24414 0.0
C121 C 0.87993 0.35939 0.23867 0.0
C122 C 0.98138 0.32686 0.18415 0.0
O123 O 0.9077 0.26602 0.21646 0.0
O124 O 0.93363 0.29803 0.24933 0.0
O125 O 0.96486 0.34955 0.1978 0.0
O126 O 0.96506 0.3013 0.17689 0.0
C127 C 0.88059 0.31862 0.14402 0.0
O128 O 0.9078 0.3684 0.22774 0.0
O129 O 0.87067 0.33102 0.22968 0.0
In130 In 0.67945 0.91694 0.20012 0.0
O131 O 0.7061 0.88738 0.16024 0.0
O132 O 0.65409 0.89334 0.15509 0.0
C133 C 0.72927 0.92168 0.24414 0.0
C134 C 0.63958 0.87992 0.23867 0.0
C135 C 0.6721 0.98137 0.18415 0.0
O136 O 0.73295 0.9077 0.21645 0.0
O137 O 0.70094 0.93362 0.24933 0.0
O138 O 0.64942 0.96486 0.19779 0.0
O139 O 0.69767 0.96505 0.17688 0.0
C140 C 0.68035 0.88059 0.14401 0.0
O141 O 0.63057 0.90779 0.22773 0.0
O142 O 0.66795 0.87066 0.22968 0.0
In143 In 0.08203 0.67945 0.20012 0.0
O144 O 0.11159 0.70609 0.16024 0.0
O145 O 0.10563 0.65408 0.15509 0.0
C146 C 0.07729 0.72926 0.24414 0.0
C147 C 0.11905 0.63957 0.23867 0.0
C148 C 0.01759 0.6721 0.18415 0.0
O149 O 0.09128 0.73294 0.21646 0.0
O150 O 0.06535 0.70093 0.24933 0.0
O151 O 0.03411 0.64941 0.1978 0.0
O152 O 0.03392 0.69766 0.17689 0.0
C153 C 0.11838 0.68034 0.14402 0.0
O154 O 0.09118 0.63056 0.22774 0.0
O155 O 0.12831 0.66795 0.22968 0.0
In156 In 0.31952 0.91694 0.79885 0.0
O157 O 0.29288 0.88738 0.83874 0.0
O158 O 0.34489 0.89334 0.84389 0.0
C159 C 0.26971 0.92168 0.75483 0.0
C160 C 0.3594 0.87992 0.7603 0.0
C161 C 0.32687 0.98137 0.81482 0.0
O162 O 0.26603 0.9077 0.78252 0.0
O163 O 0.29804 0.93362 0.74964 0.0
O164 O 0.34956 0.96486 0.80118 0.0
O165 O 0.30131 0.96505 0.82209 0.0
C166 C 0.31862 0.88059 0.85496 0.0
O167 O 0.36841 0.90779 0.77124 0.0
O168 O 0.33102 0.87066 0.76929 0.0
In169 In 0.08203 0.31952 0.79885 0.0
O170 O 0.09118 0.3684 0.77124 0.0
O171 O 0.12831 0.33102 0.76929 0.0
C172 C 0.01759 0.32686 0.81482 0.0
C173 C 0.11838 0.31862 0.85496 0.0
C174 C 0.07729 0.2697 0.75483 0.0
O175 O 0.03411 0.34955 0.80118 0.0
O176 O 0.03392 0.3013 0.82209 0.0
O177 O 0.09128 0.26602 0.78251 0.0
O178 O 0.06535 0.29803 0.74964 0.0
C179 C 0.11905 0.35939 0.7603 0.0
O180 O 0.11159 0.29287 0.83873 0.0
O181 O 0.10563 0.34488 0.84388 0.0
In182 In 0.67945 0.08202 0.79885 0.0
O183 O 0.63057 0.09117 0.77124 0.0
O184 O 0.66795 0.1283 0.76929 0.0
C185 C 0.6721 0.01759 0.81482 0.0
C186 C 0.68035 0.11837 0.85496 0.0
C187 C 0.72927 0.07728 0.75483 0.0
O188 O 0.64942 0.03411 0.80118 0.0
O189 O 0.69767 0.03391 0.82209 0.0
O190 O 0.73295 0.09126 0.78252 0.0
O191 O 0.70094 0.06534 0.74964 0.0
C192 C 0.63958 0.11904 0.7603 0.0
O193 O 0.7061 0.11158 0.83873 0.0
O194 O 0.65409 0.10562 0.84389 0.0
In195 In 0.91695 0.67945 0.79885 0.0
O196 O 0.9078 0.63056 0.77124 0.0
O197 O 0.87067 0.66795 0.76929 0.0
C198 C 0.98138 0.6721 0.81482 0.0
C199 C 0.88059 0.68034 0.85495 0.0
C200 C 0.92168 0.72926 0.75483 0.0
O201 O 0.96486 0.64941 0.80117 0.0
O202 O 0.96506 0.69766 0.82208 0.0
O203 O 0.9077 0.73294 0.78251 0.0
O204 O 0.93363 0.70093 0.74964 0.0
C205 C 0.87993 0.63957 0.7603 0.0
O206 O 0.88738 0.70609 0.83873 0.0
O207 O 0.89335 0.65408 0.84388 0.0
In208 In 0.20012 0.31952 0.08203 0.0
O209 O 0.22774 0.3684 0.09118 0.0
O210 O 0.22969 0.33102 0.12831 0.0
C211 C 0.18416 0.32686 0.01759 0.0
C212 C 0.14402 0.31862 0.11838 0.0
C213 C 0.24414 0.2697 0.07729 0.0
O214 O 0.1978 0.34955 0.03411 0.0
O215 O 0.17689 0.3013 0.03391 0.0
O216 O 0.21646 0.26602 0.09127 0.0
O217 O 0.24934 0.29803 0.06534 0.0
C218 C 0.23868 0.35939 0.11904 0.0
O219 O 0.16024 0.29287 0.11159 0.0
O220 O 0.15509 0.34488 0.10563 0.0
In221 In 0.20012 0.67945 0.91694 0.0
O222 O 0.22774 0.63056 0.90779 0.0
O223 O 0.22969 0.66795 0.87067 0.0
C224 C 0.18416 0.6721 0.98138 0.0
C225 C 0.14402 0.68034 0.88059 0.0
C226 C 0.24414 0.72926 0.92168 0.0
O227 O 0.1978 0.64941 0.96486 0.0
O228 O 0.17689 0.69766 0.96506 0.0
O229 O 0.21646 0.73294 0.9077 0.0
O230 O 0.24934 0.70093 0.93363 0.0
C231 C 0.23868 0.63957 0.87993 0.0
O232 O 0.16024 0.70609 0.88738 0.0
O233 O 0.15509 0.65408 0.89334 0.0
In234 In 0.31952 0.20012 0.91694 0.0
O235 O 0.29288 0.16023 0.88738 0.0
O236 O 0.34489 0.15508 0.89334 0.0
C237 C 0.26971 0.24413 0.92168 0.0
C238 C 0.3594 0.23867 0.87993 0.0
C239 C 0.32687 0.18415 0.98138 0.0
O240 O 0.26603 0.21645 0.9077 0.0
O241 O 0.29804 0.24933 0.93363 0.0
O242 O 0.34956 0.19779 0.96486 0.0
O243 O 0.30131 0.17688 0.96506 0.0
C244 C 0.31862 0.14401 0.88059 0.0
O245 O 0.36841 0.22773 0.90779 0.0
O246 O 0.33102 0.22968 0.87067 0.0
In247 In 0.79885 0.31952 0.91694 0.0
O248 O 0.77124 0.3684 0.90779 0.0
O249 O 0.76929 0.33102 0.87067 0.0
C250 C 0.81482 0.32686 0.98138 0.0
C251 C 0.85496 0.31862 0.88059 0.0
C252 C 0.75484 0.2697 0.92168 0.0
O253 O 0.80118 0.34955 0.96486 0.0
O254 O 0.82209 0.3013 0.96506 0.0
O255 O 0.78252 0.26602 0.9077 0.0
O256 O 0.74964 0.29803 0.93363 0.0
C257 C 0.7603 0.35939 0.87993 0.0
O258 O 0.83874 0.29287 0.88738 0.0
O259 O 0.84389 0.34488 0.89334 0.0
In260 In 0.67945 0.79885 0.91694 0.0
O261 O 0.63057 0.77123 0.90779 0.0
O262 O 0.66795 0.76929 0.87067 0.0
C263 C 0.6721 0.81482 0.98138 0.0
C264 C 0.68035 0.85495 0.88059 0.0
C265 C 0.72927 0.75483 0.92168 0.0
O266 O 0.64942 0.80117 0.96486 0.0
O267 O 0.69767 0.82208 0.96506 0.0
O268 O 0.73295 0.78251 0.9077 0.0
O269 O 0.70094 0.74963 0.93363 0.0
C270 C 0.63958 0.7603 0.87993 0.0
O271 O 0.7061 0.83873 0.88738 0.0
O272 O 0.65409 0.84388 0.89334 0.0
In273 In 0.79885 0.67945 0.08203 0.0
O274 O 0.83874 0.70609 0.11159 0.0
O275 O 0.84389 0.65408 0.10563 0.0
C276 C 0.75484 0.72926 0.07729 0.0
C277 C 0.7603 0.63957 0.11904 0.0
C278 C 0.81482 0.6721 0.01759 0.0
O279 O 0.78252 0.73294 0.09127 0.0
O280 O 0.74964 0.70093 0.06534 0.0
O281 O 0.80118 0.64941 0.03411 0.0
O282 O 0.82209 0.69766 0.03391 0.0
C283 C 0.85496 0.68034 0.11838 0.0
O284 O 0.77124 0.63056 0.09118 0.0
O285 O 0.76929 0.66795 0.12831 0.0
In286 In 0.31952 0.79885 0.08203 0.0
O287 O 0.29288 0.83873 0.11159 0.0
O288 O 0.34489 0.84388 0.10563 0.0
C289 C 0.26971 0.75483 0.07729 0.0
C290 C 0.3594 0.76029 0.11904 0.0
C291 C 0.32687 0.81482 0.01759 0.0
O292 O 0.26603 0.78251 0.09127 0.0
O293 O 0.29804 0.74963 0.06534 0.0
O294 O 0.34956 0.80117 0.03411 0.0
O295 O 0.30131 0.82208 0.03391 0.0
C296 C 0.31862 0.85495 0.11838 0.0
O297 O 0.36841 0.77123 0.09118 0.0
O298 O 0.33102 0.76929 0.12831 0.0
In299 In 0.67945 0.20012 0.08203 0.0
O300 O 0.63057 0.22773 0.09118 0.0
O301 O 0.66795 0.22968 0.12831 0.0
C302 C 0.67211 0.18415 0.01759 0.0
C303 C 0.68035 0.14401 0.11838 0.0
C304 C 0.72927 0.24413 0.07729 0.0
O305 O 0.64942 0.19779 0.03411 0.0
O306 O 0.69767 0.17688 0.03391 0.0
O307 O 0.73295 0.21645 0.09127 0.0
O308 O 0.70094 0.24933 0.06534 0.0
C309 C 0.63958 0.23867 0.11904 0.0
O310 O 0.7061 0.16023 0.11159 0.0
O311 O 0.65409 0.15508 0.10563 0.0
In312 In 0.91695 0.79884 0.67945 0.0
O313 O 0.88738 0.83873 0.7061 0.0
O314 O 0.89335 0.84388 0.65408 0.0
C315 C 0.92168 0.75482 0.72926 0.0
C316 C 0.87993 0.76029 0.63958 0.0
C317 C 0.98138 0.81479 0.67211 0.0
O318 O 0.9077 0.78251 0.73295 0.0
O319 O 0.93363 0.74963 0.70094 0.0
O320 O 0.96486 0.80117 0.64942 0.0
O321 O 0.96506 0.82208 0.69767 0.0
C322 C 0.88058 0.85494 0.68035 0.0
O323 O 0.90779 0.77123 0.63057 0.0
O324 O 0.87067 0.76928 0.66795 0.0
In325 In 0.20013 0.91694 0.67945 0.0
O326 O 0.22774 0.90779 0.63057 0.0
O327 O 0.22968 0.87066 0.66795 0.0
C328 C 0.18417 0.98137 0.67211 0.0
C329 C 0.14403 0.88058 0.68035 0.0
C330 C 0.24414 0.92167 0.72926 0.0
O331 O 0.1978 0.96485 0.64942 0.0
O332 O 0.17689 0.96505 0.69767 0.0
O333 O 0.21646 0.9077 0.73295 0.0
O334 O 0.24934 0.93362 0.70094 0.0
C335 C 0.23867 0.87992 0.63958 0.0
O336 O 0.16024 0.88737 0.7061 0.0
O337 O 0.15509 0.89334 0.65409 0.0
In338 In 0.08203 0.20012 0.67945 0.0
O339 O 0.1116 0.16024 0.7061 0.0
O340 O 0.10563 0.15508 0.65408 0.0
C341 C 0.0773 0.24414 0.72926 0.0
C342 C 0.11905 0.23867 0.63958 0.0
C343 C 0.0176 0.18417 0.67211 0.0
O344 O 0.09128 0.21645 0.73295 0.0
O345 O 0.06535 0.24933 0.70094 0.0
O346 O 0.03412 0.19779 0.64942 0.0
O347 O 0.03392 0.17688 0.69767 0.0
C348 C 0.11839 0.14402 0.68035 0.0
O349 O 0.09118 0.22773 0.63057 0.0
O350 O 0.12831 0.22968 0.66795 0.0
In351 In 0.79885 0.08202 0.67945 0.0
O352 O 0.77124 0.09118 0.63057 0.0
O353 O 0.76929 0.1283 0.66795 0.0
C354 C 0.8148 0.01759 0.67211 0.0
C355 C 0.85495 0.11838 0.68035 0.0
C356 C 0.75483 0.07729 0.72926 0.0
O357 O 0.80117 0.03411 0.64942 0.0
O358 O 0.82209 0.03391 0.69767 0.0
O359 O 0.78252 0.09126 0.73295 0.0
O360 O 0.74964 0.06534 0.70094 0.0
C361 C 0.7603 0.11904 0.63958 0.0
O362 O 0.83873 0.11159 0.7061 0.0
O363 O 0.84389 0.10562 0.65408 0.0
In364 In 0.91695 0.20012 0.31952 0.0
O365 O 0.88738 0.16024 0.29287 0.0
O366 O 0.89335 0.15508 0.34489 0.0
C367 C 0.92168 0.24414 0.26971 0.0
C368 C 0.87993 0.23867 0.35939 0.0
C369 C 0.98138 0.18417 0.32686 0.0
O370 O 0.9077 0.21645 0.26602 0.0
O371 O 0.93363 0.24933 0.29803 0.0
O372 O 0.96486 0.19779 0.34956 0.0
O373 O 0.96506 0.17688 0.3013 0.0
C374 C 0.88058 0.14402 0.31862 0.0
O375 O 0.90779 0.22773 0.3684 0.0
O376 O 0.87067 0.22968 0.33102 0.0
In377 In 0.79885 0.91694 0.31952 0.0
O378 O 0.83873 0.88737 0.29287 0.0
O379 O 0.84389 0.89334 0.34489 0.0
C380 C 0.75483 0.92167 0.26971 0.0
C381 C 0.7603 0.87992 0.35939 0.0
C382 C 0.8148 0.98137 0.32686 0.0
O383 O 0.78252 0.9077 0.26602 0.0
O384 O 0.74964 0.93362 0.29803 0.0
O385 O 0.80117 0.96485 0.34956 0.0
O386 O 0.82209 0.96505 0.3013 0.0
C387 C 0.85495 0.88058 0.31862 0.0
O388 O 0.77124 0.90779 0.3684 0.0
O389 O 0.76929 0.87066 0.33102 0.0
In390 In 0.08203 0.79884 0.31952 0.0
O391 O 0.09118 0.77123 0.3684 0.0
O392 O 0.12831 0.76928 0.33102 0.0
C393 C 0.0176 0.81479 0.32686 0.0
C394 C 0.11839 0.85494 0.31862 0.0
C395 C 0.0773 0.75482 0.26971 0.0
O396 O 0.03412 0.80117 0.34956 0.0
O397 O 0.03392 0.82208 0.3013 0.0
O398 O 0.09128 0.78251 0.26602 0.0
O399 O 0.06535 0.74963 0.29803 0.0
C400 C 0.11905 0.76029 0.35939 0.0
O401 O 0.1116 0.83873 0.29287 0.0
O402 O 0.10563 0.84388 0.34489 0.0
In403 In 0.20013 0.08202 0.31952 0.0
O404 O 0.16024 0.11159 0.29287 0.0
O405 O 0.15509 0.10562 0.34489 0.0
C406 C 0.24415 0.07729 0.26971 0.0
C407 C 0.23867 0.11904 0.35939 0.0
C408 C 0.18417 0.01759 0.32686 0.0
O409 O 0.21646 0.09126 0.26602 0.0
O410 O 0.24934 0.06534 0.29803 0.0
O411 O 0.1978 0.03411 0.34956 0.0
O412 O 0.17689 0.03391 0.3013 0.0
C413 C 0.14403 0.11838 0.31862 0.0
O414 O 0.22774 0.09118 0.3684 0.0
O415 O 0.22968 0.1283 0.33102 0.0
In416 In 0.67946 0.91694 0.79885 0.0
O417 O 0.7061 0.88737 0.83873 0.0
O418 O 0.65409 0.89334 0.84388 0.0
C419 C 0.72927 0.92167 0.75483 0.0
C420 C 0.63958 0.87992 0.7603 0.0
C421 C 0.67211 0.98137 0.8148 0.0
O422 O 0.73295 0.9077 0.78251 0.0
O423 O 0.70094 0.93362 0.74963 0.0
O424 O 0.64942 0.96485 0.80117 0.0
O425 O 0.69767 0.96505 0.82209 0.0
C426 C 0.68035 0.88058 0.85494 0.0
O427 O 0.63057 0.90779 0.77124 0.0
O428 O 0.66796 0.87066 0.76929 0.0
In429 In 0.08203 0.67945 0.79885 0.0
O430 O 0.1116 0.70609 0.83873 0.0
O431 O 0.10563 0.65408 0.84388 0.0
C432 C 0.0773 0.72926 0.75483 0.0
C433 C 0.11905 0.63957 0.7603 0.0
C434 C 0.0176 0.67211 0.8148 0.0
O435 O 0.09128 0.73294 0.78251 0.0
O436 O 0.06535 0.70093 0.74963 0.0
O437 O 0.03412 0.64941 0.80117 0.0
O438 O 0.03392 0.69766 0.82208 0.0
C439 C 0.11839 0.68034 0.85494 0.0
O440 O 0.09118 0.63057 0.77123 0.0
O441 O 0.12831 0.66795 0.76929 0.0
In442 In 0.31952 0.08202 0.79885 0.0
O443 O 0.3684 0.09118 0.77124 0.0
O444 O 0.33102 0.1283 0.76929 0.0
C445 C 0.32686 0.01759 0.8148 0.0
C446 C 0.31863 0.11838 0.85494 0.0
C447 C 0.26971 0.07729 0.75483 0.0
O448 O 0.34956 0.03411 0.80117 0.0
O449 O 0.30131 0.03391 0.82209 0.0
O450 O 0.26603 0.09126 0.78251 0.0
O451 O 0.29804 0.06534 0.74963 0.0
C452 C 0.3594 0.11904 0.7603 0.0
O453 O 0.29287 0.11159 0.83873 0.0
O454 O 0.34489 0.10562 0.84388 0.0
In455 In 0.91695 0.31951 0.79885 0.0
O456 O 0.88738 0.29287 0.83873 0.0
O457 O 0.89335 0.34488 0.84388 0.0
C458 C 0.92168 0.2697 0.75483 0.0
C459 C 0.87993 0.35939 0.7603 0.0
C460 C 0.98138 0.32686 0.8148 0.0
O461 O 0.9077 0.26602 0.78251 0.0
O462 O 0.93363 0.29803 0.74963 0.0
O463 O 0.96486 0.34955 0.80117 0.0
O464 O 0.96506 0.3013 0.82208 0.0
C465 C 0.88058 0.31862 0.85494 0.0
O466 O 0.90779 0.3684 0.77123 0.0
O467 O 0.87067 0.33101 0.76929 0.0
In468 In 0.67946 0.08202 0.20012 0.0
O469 O 0.63057 0.09118 0.22773 0.0
O470 O 0.66796 0.1283 0.22968 0.0
C471 C 0.67211 0.01759 0.18417 0.0
C472 C 0.68035 0.11838 0.14403 0.0
C473 C 0.72927 0.07729 0.24414 0.0
O474 O 0.64942 0.03411 0.1978 0.0
O475 O 0.69767 0.03391 0.17689 0.0
O476 O 0.73295 0.09126 0.21646 0.0
O477 O 0.70094 0.06534 0.24934 0.0
C478 C 0.63958 0.11904 0.23867 0.0
O479 O 0.7061 0.11159 0.16024 0.0
O480 O 0.65409 0.10562 0.15509 0.0
In481 In 0.91695 0.67945 0.20012 0.0
O482 O 0.88738 0.70609 0.16024 0.0
O483 O 0.89335 0.65408 0.15509 0.0
C484 C 0.92168 0.72926 0.24414 0.0
C485 C 0.87993 0.63957 0.23867 0.0
C486 C 0.98138 0.67211 0.18417 0.0
O487 O 0.9077 0.73294 0.21646 0.0
O488 O 0.93363 0.70093 0.24934 0.0
O489 O 0.96486 0.64941 0.1978 0.0
O490 O 0.96506 0.69766 0.17689 0.0
C491 C 0.88058 0.68034 0.14403 0.0
O492 O 0.90779 0.63057 0.22774 0.0
O493 O 0.87067 0.66795 0.22968 0.0
In494 In 0.31952 0.91694 0.20012 0.0
O495 O 0.29287 0.88737 0.16024 0.0
O496 O 0.34489 0.89334 0.15509 0.0
C497 C 0.26971 0.92167 0.24414 0.0
C498 C 0.3594 0.87992 0.23867 0.0
C499 C 0.32686 0.98137 0.18417 0.0
O500 O 0.26603 0.9077 0.21646 0.0
O501 O 0.29804 0.93362 0.24934 0.0
O502 O 0.34956 0.96485 0.1978 0.0
O503 O 0.30131 0.96505 0.17689 0.0
C504 C 0.31863 0.88058 0.14403 0.0
O505 O 0.3684 0.90779 0.22773 0.0
O506 O 0.33102 0.87066 0.22968 0.0
In507 In 0.08203 0.31951 0.20012 0.0
O508 O 0.09118 0.3684 0.22774 0.0
O509 O 0.12831 0.33101 0.22968 0.0
C510 C 0.0176 0.32686 0.18417 0.0
C511 C 0.11839 0.31862 0.14403 0.0
C512 C 0.0773 0.2697 0.24414 0.0
O513 O 0.03412 0.34955 0.1978 0.0
O514 O 0.03392 0.3013 0.17689 0.0
O515 O 0.09128 0.26602 0.21646 0.0
O516 O 0.06535 0.29803 0.24934 0.0
C517 C 0.11905 0.35939 0.23867 0.0
O518 O 0.1116 0.29287 0.16024 0.0
O519 O 0.10563 0.34488 0.15509 0.0
In520 In 0.79885 0.67945 0.91694 0.0
O521 O 0.83873 0.70609 0.88738 0.0
O522 O 0.84389 0.65408 0.89335 0.0
C523 C 0.75483 0.72926 0.92167 0.0
C524 C 0.7603 0.63957 0.87993 0.0
C525 C 0.8148 0.67211 0.98138 0.0
O526 O 0.78252 0.73294 0.9077 0.0
O527 O 0.74964 0.70093 0.93362 0.0
O528 O 0.80117 0.64941 0.96486 0.0
O529 O 0.82209 0.69766 0.96506 0.0
C530 C 0.85494 0.68034 0.88058 0.0
O531 O 0.77124 0.63057 0.90779 0.0
O532 O 0.76929 0.66795 0.87066 0.0
In533 In 0.79885 0.31951 0.08203 0.0
O534 O 0.77124 0.3684 0.09118 0.0
O535 O 0.76929 0.33101 0.12831 0.0
C536 C 0.8148 0.32686 0.0176 0.0
C537 C 0.85494 0.31862 0.11839 0.0
C538 C 0.75483 0.2697 0.0773 0.0
O539 O 0.80117 0.34955 0.03411 0.0
O540 O 0.82209 0.3013 0.03391 0.0
O541 O 0.78252 0.26602 0.09127 0.0
O542 O 0.74964 0.29803 0.06535 0.0
C543 C 0.7603 0.35939 0.11905 0.0
O544 O 0.83873 0.29287 0.11159 0.0
O545 O 0.84389 0.34488 0.10562 0.0
In546 In 0.67946 0.79884 0.08203 0.0
O547 O 0.7061 0.83873 0.11159 0.0
O548 O 0.65409 0.84388 0.10562 0.0
C549 C 0.72927 0.75482 0.0773 0.0
C550 C 0.63958 0.76029 0.11905 0.0
C551 C 0.67211 0.8148 0.0176 0.0
O552 O 0.73295 0.78251 0.09127 0.0
O553 O 0.70094 0.74963 0.06535 0.0
O554 O 0.64942 0.80117 0.03411 0.0
O555 O 0.69767 0.82208 0.03391 0.0
C556 C 0.68035 0.85494 0.11839 0.0
O557 O 0.63057 0.77123 0.09118 0.0
O558 O 0.66796 0.76929 0.12831 0.0
In559 In 0.20013 0.67945 0.08203 0.0
O560 O 0.16024 0.70609 0.11159 0.0
O561 O 0.15509 0.65408 0.10562 0.0
C562 C 0.24415 0.72926 0.0773 0.0
C563 C 0.23868 0.63957 0.11905 0.0
C564 C 0.18418 0.67211 0.0176 0.0
O565 O 0.21646 0.73294 0.09127 0.0
O566 O 0.24934 0.70093 0.06535 0.0
O567 O 0.1978 0.64941 0.03411 0.0
O568 O 0.17689 0.69766 0.03391 0.0
C569 C 0.14403 0.68034 0.11839 0.0
O570 O 0.22774 0.63057 0.09118 0.0
O571 O 0.22969 0.66795 0.12831 0.0
In572 In 0.31952 0.20012 0.08203 0.0
O573 O 0.3684 0.22773 0.09118 0.0
O574 O 0.33102 0.22968 0.12831 0.0
C575 C 0.32686 0.18417 0.0176 0.0
C576 C 0.31863 0.14402 0.11839 0.0
C577 C 0.26971 0.24414 0.0773 0.0
O578 O 0.34956 0.19779 0.03411 0.0
O579 O 0.3013 0.17688 0.03391 0.0
O580 O 0.26603 0.21645 0.09127 0.0
O581 O 0.29804 0.24933 0.06535 0.0
C582 C 0.3594 0.23867 0.11905 0.0
O583 O 0.29287 0.16024 0.11159 0.0
O584 O 0.34489 0.15508 0.10562 0.0
In585 In 0.20013 0.31951 0.91694 0.0
O586 O 0.16024 0.29287 0.88738 0.0
O587 O 0.15509 0.34488 0.89335 0.0
C588 C 0.24415 0.2697 0.92167 0.0
C589 C 0.23868 0.35939 0.87992 0.0
C590 C 0.18418 0.32686 0.98138 0.0
O591 O 0.21646 0.26602 0.9077 0.0
O592 O 0.24934 0.29803 0.93362 0.0
O593 O 0.1978 0.34955 0.96486 0.0
O594 O 0.17689 0.3013 0.96506 0.0
C595 C 0.14403 0.31862 0.88058 0.0
O596 O 0.22774 0.3684 0.90779 0.0
O597 O 0.22969 0.33101 0.87066 0.0
In598 In 0.67946 0.20012 0.91694 0.0
O599 O 0.7061 0.16024 0.88738 0.0
O600 O 0.65409 0.15508 0.89335 0.0
C601 C 0.72927 0.24414 0.92167 0.0
C602 C 0.63958 0.23867 0.87992 0.0
C603 C 0.67211 0.18417 0.98138 0.0
O604 O 0.73295 0.21645 0.9077 0.0
O605 O 0.70094 0.24933 0.93363 0.0
O606 O 0.64942 0.19779 0.96486 0.0
O607 O 0.69767 0.17688 0.96506 0.0
C608 C 0.68035 0.14402 0.88058 0.0
O609 O 0.63057 0.22773 0.90779 0.0
O610 O 0.66796 0.22968 0.87066 0.0
In611 In 0.31952 0.79884 0.91694 0.0
O612 O 0.29287 0.83873 0.88738 0.0
O613 O 0.34489 0.84388 0.89335 0.0
C614 C 0.26971 0.75482 0.92167 0.0
C615 C 0.3594 0.76029 0.87992 0.0
C616 C 0.32686 0.8148 0.98138 0.0
O617 O 0.26603 0.78251 0.9077 0.0
O618 O 0.29804 0.74963 0.93363 0.0
O619 O 0.34956 0.80117 0.96486 0.0
O620 O 0.3013 0.82208 0.96506 0.0
C621 C 0.31863 0.85494 0.88058 0.0
O622 O 0.3684 0.77123 0.90779 0.0
O623 O 0.33102 0.76929 0.87066 0.0
In624 In 0.58203 0.70012 0.81952 0.0
O625 O 0.61159 0.66023 0.79287 0.0
O626 O 0.60563 0.65508 0.84489 0.0
C627 C 0.57729 0.74413 0.76971 0.0
C628 C 0.61905 0.73867 0.8594 0.0
C629 C 0.51759 0.68415 0.82687 0.0
O630 O 0.59128 0.71645 0.76603 0.0
O631 O 0.56534 0.74933 0.79803 0.0
O632 O 0.53411 0.69779 0.84955 0.0
O633 O 0.53392 0.67688 0.80131 0.0
C634 C 0.61838 0.64401 0.81862 0.0
O635 O 0.59118 0.72773 0.8684 0.0
O636 O 0.62831 0.72968 0.83102 0.0
In637 In 0.29885 0.58202 0.81952 0.0
O638 O 0.27124 0.59117 0.8684 0.0
O639 O 0.26929 0.6283 0.83102 0.0
C640 C 0.31482 0.51759 0.82687 0.0
C641 C 0.35496 0.61837 0.81862 0.0
C642 C 0.25484 0.57728 0.76971 0.0
O643 O 0.30118 0.53411 0.84955 0.0
O644 O 0.32209 0.53391 0.80131 0.0
O645 O 0.28252 0.59126 0.76602 0.0
O646 O 0.24964 0.56534 0.79803 0.0
C647 C 0.2603 0.61904 0.8594 0.0
O648 O 0.33874 0.61158 0.79287 0.0
O649 O 0.34389 0.60562 0.84489 0.0
In650 In 0.41695 0.29885 0.81952 0.0
O651 O 0.38739 0.33873 0.79287 0.0
O652 O 0.39335 0.34388 0.84489 0.0
C653 C 0.42168 0.25483 0.76971 0.0
C654 C 0.37993 0.26029 0.8594 0.0
C655 C 0.48138 0.31481 0.82687 0.0
O656 O 0.4077 0.28251 0.76603 0.0
O657 O 0.43363 0.24963 0.79803 0.0
O658 O 0.46486 0.30117 0.84955 0.0
O659 O 0.46506 0.32208 0.80131 0.0
C660 C 0.38059 0.35495 0.81862 0.0
O661 O 0.4078 0.27123 0.8684 0.0
O662 O 0.37067 0.26928 0.83102 0.0
In663 In 0.70012 0.41694 0.81952 0.0
O664 O 0.72774 0.40779 0.8684 0.0
O665 O 0.72969 0.37066 0.83102 0.0
C666 C 0.68415 0.48137 0.82687 0.0
C667 C 0.64402 0.38059 0.81862 0.0
C668 C 0.74414 0.42168 0.76971 0.0
O669 O 0.6978 0.46486 0.84956 0.0
O670 O 0.67688 0.46505 0.80131 0.0
O671 O 0.71646 0.4077 0.76603 0.0
O672 O 0.74934 0.43362 0.79803 0.0
C673 C 0.73867 0.37992 0.8594 0.0
O674 O 0.66024 0.38738 0.79287 0.0
O675 O 0.65509 0.39334 0.84489 0.0
In676 In 0.58203 0.29885 0.17945 0.0
O677 O 0.61159 0.33873 0.2061 0.0
O678 O 0.60563 0.34388 0.15409 0.0
C679 C 0.57729 0.25483 0.22926 0.0
C680 C 0.61905 0.26029 0.13957 0.0
C681 C 0.51759 0.31481 0.1721 0.0
O682 O 0.59128 0.28251 0.23294 0.0
O683 O 0.56535 0.24963 0.20094 0.0
O684 O 0.53411 0.30117 0.14942 0.0
O685 O 0.53392 0.32208 0.19766 0.0
C686 C 0.61838 0.35495 0.18035 0.0
O687 O 0.59118 0.27123 0.13057 0.0
O688 O 0.62831 0.26928 0.16795 0.0
In689 In 0.70012 0.58202 0.17945 0.0
O690 O 0.72774 0.59117 0.13057 0.0
O691 O 0.72968 0.6283 0.16795 0.0
C692 C 0.68415 0.51759 0.1721 0.0
C693 C 0.64402 0.61837 0.18035 0.0
C694 C 0.74414 0.57728 0.22926 0.0
O695 O 0.6978 0.53411 0.14942 0.0
O696 O 0.67688 0.53391 0.19766 0.0
O697 O 0.71646 0.59126 0.23295 0.0
O698 O 0.74934 0.56534 0.20094 0.0
C699 C 0.73867 0.61904 0.13957 0.0
O700 O 0.66024 0.61158 0.2061 0.0
O701 O 0.65509 0.60562 0.15409 0.0
In702 In 0.41695 0.70012 0.17945 0.0
O703 O 0.38738 0.66023 0.2061 0.0
O704 O 0.39335 0.65508 0.15408 0.0
C705 C 0.42168 0.74413 0.22926 0.0
C706 C 0.37993 0.73867 0.13957 0.0
C707 C 0.48138 0.68415 0.1721 0.0
O708 O 0.4077 0.71645 0.23294 0.0
O709 O 0.43363 0.74933 0.20094 0.0
O710 O 0.46486 0.69779 0.14942 0.0
O711 O 0.46506 0.67688 0.19766 0.0
C712 C 0.38059 0.64401 0.18035 0.0
O713 O 0.4078 0.72773 0.13057 0.0
O714 O 0.37067 0.72968 0.16795 0.0
In715 In 0.29885 0.41694 0.17945 0.0
O716 O 0.33874 0.38738 0.2061 0.0
O717 O 0.34389 0.39334 0.15408 0.0
C718 C 0.25484 0.42168 0.22926 0.0
C719 C 0.2603 0.37992 0.13957 0.0
C720 C 0.31482 0.48137 0.1721 0.0
O721 O 0.28252 0.4077 0.23295 0.0
O722 O 0.24964 0.43362 0.20094 0.0
O723 O 0.30118 0.46486 0.14942 0.0
O724 O 0.32209 0.46505 0.19766 0.0
C725 C 0.35496 0.38059 0.18035 0.0
O726 O 0.27124 0.40779 0.13057 0.0
O727 O 0.26929 0.37066 0.16795 0.0
In728 In 0.81952 0.58202 0.70012 0.0
O729 O 0.79288 0.61158 0.66024 0.0
O730 O 0.84489 0.60562 0.65509 0.0
C731 C 0.76971 0.57728 0.74414 0.0
C732 C 0.8594 0.61904 0.73867 0.0
C733 C 0.82687 0.51759 0.68415 0.0
O734 O 0.76603 0.59126 0.71645 0.0
O735 O 0.79804 0.56534 0.74933 0.0
O736 O 0.84956 0.53411 0.69779 0.0
O737 O 0.80131 0.53391 0.67688 0.0
C738 C 0.81862 0.61837 0.64401 0.0
O739 O 0.86841 0.59117 0.72773 0.0
O740 O 0.83102 0.6283 0.72968 0.0
In741 In 0.41695 0.81952 0.70012 0.0
O742 O 0.38738 0.79287 0.66024 0.0
O743 O 0.39335 0.84488 0.65509 0.0
C744 C 0.42168 0.7697 0.74414 0.0
C745 C 0.37993 0.85939 0.73867 0.0
C746 C 0.48138 0.82686 0.68415 0.0
O747 O 0.4077 0.76602 0.71646 0.0
O748 O 0.43363 0.79803 0.74933 0.0
O749 O 0.46486 0.84955 0.6978 0.0
O750 O 0.46506 0.8013 0.67689 0.0
C751 C 0.38059 0.81862 0.64402 0.0
O752 O 0.4078 0.8684 0.72774 0.0
O753 O 0.37067 0.83102 0.72968 0.0
In754 In 0.17945 0.41694 0.70012 0.0
O755 O 0.13057 0.40779 0.72773 0.0
O756 O 0.16795 0.37066 0.72968 0.0
C757 C 0.1721 0.48137 0.68415 0.0
C758 C 0.18035 0.38059 0.64401 0.0
C759 C 0.22927 0.42168 0.74414 0.0
O760 O 0.14942 0.46486 0.69779 0.0
O761 O 0.19767 0.46505 0.67688 0.0
O762 O 0.23295 0.4077 0.71645 0.0
O763 O 0.20094 0.43362 0.74933 0.0
C764 C 0.13958 0.37992 0.73867 0.0
O765 O 0.2061 0.38738 0.66024 0.0
O766 O 0.15409 0.39334 0.65509 0.0
In767 In 0.58203 0.17945 0.70012 0.0
O768 O 0.59118 0.13056 0.72774 0.0
O769 O 0.62831 0.16795 0.72968 0.0
C770 C 0.51759 0.1721 0.68415 0.0
C771 C 0.61838 0.18034 0.64402 0.0
C772 C 0.57729 0.22926 0.74414 0.0
O773 O 0.53411 0.14941 0.6978 0.0
O774 O 0.53392 0.19766 0.67689 0.0
O775 O 0.59128 0.23294 0.71646 0.0
O776 O 0.56535 0.20093 0.74933 0.0
C777 C 0.61905 0.13957 0.73867 0.0
O778 O 0.61159 0.20609 0.66024 0.0
O779 O 0.60563 0.15408 0.65509 0.0
In780 In 0.81952 0.41694 0.29885 0.0
O781 O 0.86841 0.40779 0.27124 0.0
O782 O 0.83102 0.37066 0.26929 0.0
C783 C 0.82687 0.48137 0.31482 0.0
C784 C 0.81862 0.38059 0.35496 0.0
C785 C 0.76971 0.42168 0.25483 0.0
O786 O 0.84956 0.46486 0.30118 0.0
O787 O 0.80131 0.46505 0.32209 0.0
O788 O 0.76603 0.4077 0.28252 0.0
O789 O 0.79804 0.43362 0.24964 0.0
C790 C 0.8594 0.37992 0.2603 0.0
O791 O 0.79288 0.38738 0.33874 0.0
O792 O 0.84489 0.39334 0.34389 0.0
In793 In 0.58203 0.81952 0.29885 0.0
O794 O 0.59118 0.8684 0.27124 0.0
O795 O 0.62831 0.83102 0.26929 0.0
C796 C 0.51759 0.82686 0.31482 0.0
C797 C 0.61838 0.81862 0.35496 0.0
C798 C 0.57729 0.7697 0.25483 0.0
O799 O 0.53411 0.84955 0.30118 0.0
O800 O 0.53392 0.8013 0.32209 0.0
O801 O 0.59128 0.76602 0.28251 0.0
O802 O 0.56535 0.79803 0.24964 0.0
C803 C 0.61905 0.85939 0.2603 0.0
O804 O 0.61159 0.79287 0.33873 0.0
O805 O 0.60563 0.84488 0.34388 0.0
In806 In 0.17945 0.58202 0.29885 0.0
O807 O 0.13057 0.59117 0.27124 0.0
O808 O 0.16795 0.6283 0.26929 0.0
C809 C 0.1721 0.51759 0.31482 0.0
C810 C 0.18035 0.61837 0.35496 0.0
C811 C 0.22927 0.57728 0.25483 0.0
O812 O 0.14942 0.53411 0.30118 0.0
O813 O 0.19767 0.53391 0.32209 0.0
O814 O 0.23295 0.59126 0.28252 0.0
O815 O 0.20094 0.56534 0.24964 0.0
C816 C 0.13958 0.61904 0.2603 0.0
O817 O 0.2061 0.61158 0.33874 0.0
O818 O 0.15409 0.60562 0.34389 0.0
In819 In 0.41695 0.17945 0.29885 0.0
O820 O 0.4078 0.13056 0.27124 0.0
O821 O 0.37067 0.16795 0.26929 0.0
C822 C 0.48138 0.1721 0.31482 0.0
C823 C 0.38059 0.18034 0.35495 0.0
C824 C 0.42168 0.22926 0.25483 0.0
O825 O 0.46486 0.14941 0.30117 0.0
O826 O 0.46506 0.19766 0.32209 0.0
O827 O 0.4077 0.23294 0.28251 0.0
O828 O 0.43363 0.20093 0.24964 0.0
C829 C 0.37993 0.13957 0.2603 0.0
O830 O 0.38738 0.20609 0.33873 0.0
O831 O 0.39335 0.15408 0.34388 0.0
In832 In 0.70012 0.81952 0.58203 0.0
O833 O 0.66024 0.79287 0.61159 0.0
O834 O 0.65509 0.84488 0.60563 0.0
C835 C 0.74414 0.7697 0.57729 0.0
C836 C 0.73868 0.85939 0.61904 0.0
C837 C 0.68416 0.82687 0.51759 0.0
O838 O 0.71646 0.76602 0.59127 0.0
O839 O 0.74934 0.79803 0.56534 0.0
O840 O 0.6978 0.84955 0.53411 0.0
O841 O 0.67689 0.8013 0.53391 0.0
C842 C 0.64402 0.81862 0.61838 0.0
O843 O 0.72774 0.8684 0.59118 0.0
O844 O 0.72969 0.83102 0.6283 0.0
In845 In 0.70012 0.17945 0.41694 0.0
O846 O 0.72774 0.13056 0.40779 0.0
O847 O 0.72969 0.16795 0.37067 0.0
C848 C 0.68416 0.1721 0.48138 0.0
C849 C 0.64402 0.18034 0.38059 0.0
C850 C 0.74414 0.22926 0.42168 0.0
O851 O 0.6978 0.14941 0.46486 0.0
O852 O 0.67689 0.19766 0.46506 0.0
O853 O 0.71646 0.23294 0.4077 0.0
O854 O 0.74934 0.20093 0.43363 0.0
C855 C 0.73868 0.13957 0.37993 0.0
O856 O 0.66024 0.20609 0.38738 0.0
O857 O 0.65509 0.15408 0.39334 0.0
In858 In 0.81952 0.70012 0.41694 0.0
O859 O 0.79288 0.66023 0.38738 0.0
O860 O 0.84489 0.65508 0.39334 0.0
C861 C 0.76971 0.74413 0.42168 0.0
C862 C 0.8594 0.73867 0.37993 0.0
C863 C 0.82687 0.68415 0.48138 0.0
O864 O 0.76603 0.71645 0.4077 0.0
O865 O 0.79804 0.74933 0.43363 0.0
O866 O 0.84956 0.69779 0.46486 0.0
O867 O 0.80131 0.67688 0.46506 0.0
C868 C 0.81862 0.64401 0.38059 0.0
O869 O 0.86841 0.72773 0.40779 0.0
O870 O 0.83102 0.72968 0.37067 0.0
In871 In 0.29885 0.81952 0.41694 0.0
O872 O 0.33874 0.79287 0.38738 0.0
O873 O 0.34389 0.84488 0.39334 0.0
C874 C 0.25484 0.7697 0.42168 0.0
C875 C 0.2603 0.85939 0.37993 0.0
C876 C 0.31482 0.82686 0.48138 0.0
O877 O 0.28252 0.76602 0.4077 0.0
O878 O 0.24964 0.79803 0.43363 0.0
O879 O 0.30118 0.84955 0.46486 0.0
O880 O 0.32209 0.8013 0.46506 0.0
C881 C 0.35496 0.81862 0.38059 0.0
O882 O 0.27124 0.8684 0.40779 0.0
O883 O 0.26929 0.83102 0.37067 0.0
In884 In 0.17945 0.29885 0.41694 0.0
O885 O 0.2061 0.33873 0.38738 0.0
O886 O 0.15409 0.34388 0.39334 0.0
C887 C 0.22927 0.25483 0.42168 0.0
C888 C 0.13958 0.26029 0.37993 0.0
C889 C 0.1721 0.31482 0.48138 0.0
O890 O 0.23295 0.28251 0.4077 0.0
O891 O 0.20094 0.24963 0.43363 0.0
O892 O 0.14942 0.30117 0.46486 0.0
O893 O 0.19767 0.32208 0.46506 0.0
C894 C 0.18035 0.35495 0.38059 0.0
O895 O 0.13057 0.27123 0.40779 0.0
O896 O 0.16795 0.26928 0.37067 0.0
In897 In 0.29885 0.17945 0.58203 0.0
O898 O 0.33874 0.20609 0.61159 0.0
O899 O 0.34389 0.15408 0.60563 0.0
C900 C 0.25484 0.22926 0.57729 0.0
C901 C 0.2603 0.13957 0.61904 0.0
C902 C 0.31482 0.1721 0.51759 0.0
O903 O 0.28252 0.23294 0.59127 0.0
O904 O 0.24964 0.20093 0.56534 0.0
O905 O 0.30118 0.14941 0.53411 0.0
O906 O 0.32209 0.19766 0.53391 0.0
C907 C 0.35496 0.18034 0.61838 0.0
O908 O 0.27124 0.13056 0.59118 0.0
O909 O 0.26929 0.16795 0.62831 0.0
In910 In 0.81952 0.29885 0.58203 0.0
O911 O 0.79288 0.33873 0.61159 0.0
O912 O 0.84489 0.34388 0.60563 0.0
C913 C 0.76971 0.25483 0.57729 0.0
C914 C 0.8594 0.26029 0.61904 0.0
C915 C 0.82687 0.31482 0.51759 0.0
O916 O 0.76603 0.28251 0.59127 0.0
O917 O 0.79804 0.24963 0.56534 0.0
O918 O 0.84956 0.30117 0.53411 0.0
O919 O 0.80131 0.32208 0.53391 0.0
C920 C 0.81862 0.35495 0.61838 0.0
O921 O 0.86841 0.27123 0.59118 0.0
O922 O 0.83102 0.26929 0.6283 0.0
In923 In 0.17945 0.70012 0.58203 0.0
O924 O 0.13057 0.72773 0.59118 0.0
O925 O 0.16795 0.72968 0.62831 0.0
C926 C 0.17211 0.68415 0.51759 0.0
C927 C 0.18035 0.64401 0.61838 0.0
C928 C 0.22927 0.74413 0.57729 0.0
O929 O 0.14942 0.69779 0.53411 0.0
O930 O 0.19767 0.67688 0.53391 0.0
O931 O 0.23295 0.71645 0.59127 0.0
O932 O 0.20094 0.74933 0.56534 0.0
C933 C 0.13958 0.73867 0.61904 0.0
O934 O 0.2061 0.66023 0.61159 0.0
O935 O 0.15409 0.65508 0.60563 0.0
In936 In 0.41695 0.29884 0.17945 0.0
O937 O 0.40779 0.27123 0.13057 0.0
O938 O 0.37067 0.26928 0.16795 0.0
C939 C 0.48138 0.31479 0.17211 0.0
C940 C 0.38058 0.35494 0.18035 0.0
C941 C 0.42168 0.25482 0.22926 0.0
O942 O 0.46486 0.30117 0.14942 0.0
O943 O 0.46506 0.32208 0.19767 0.0
O944 O 0.4077 0.28251 0.23295 0.0
O945 O 0.43363 0.24963 0.20094 0.0
C946 C 0.37993 0.26029 0.13958 0.0
O947 O 0.38738 0.33873 0.2061 0.0
O948 O 0.39335 0.34388 0.15408 0.0
In949 In 0.70013 0.41694 0.17945 0.0
O950 O 0.66024 0.38737 0.2061 0.0
O951 O 0.65509 0.39334 0.15409 0.0
C952 C 0.74414 0.42167 0.22926 0.0
C953 C 0.73867 0.37992 0.13958 0.0
C954 C 0.68417 0.48137 0.17211 0.0
O955 O 0.71646 0.4077 0.23295 0.0
O956 O 0.74934 0.43362 0.20094 0.0
O957 O 0.6978 0.46485 0.14942 0.0
O958 O 0.67689 0.46505 0.19767 0.0
C959 C 0.64403 0.38058 0.18035 0.0
O960 O 0.72774 0.40779 0.13057 0.0
O961 O 0.72969 0.37066 0.16795 0.0
In962 In 0.58203 0.70012 0.17945 0.0
O963 O 0.6116 0.66024 0.2061 0.0
O964 O 0.60563 0.65508 0.15408 0.0
C965 C 0.5773 0.74414 0.22926 0.0
C966 C 0.61905 0.73867 0.13958 0.0
C967 C 0.5176 0.68417 0.17211 0.0
O968 O 0.59128 0.71645 0.23295 0.0
O969 O 0.56535 0.74933 0.20094 0.0
O970 O 0.53412 0.69779 0.14942 0.0
O971 O 0.53392 0.67688 0.19767 0.0
C972 C 0.61839 0.64402 0.18035 0.0
O973 O 0.59118 0.72773 0.13057 0.0
O974 O 0.62831 0.72968 0.16795 0.0
In975 In 0.29885 0.58202 0.17945 0.0
O976 O 0.27124 0.59118 0.13057 0.0
O977 O 0.26929 0.6283 0.16795 0.0
C978 C 0.3148 0.51759 0.17211 0.0
C979 C 0.35495 0.61838 0.18035 0.0
C980 C 0.25483 0.57729 0.22926 0.0
O981 O 0.30117 0.53411 0.14942 0.0
O982 O 0.32209 0.53391 0.19767 0.0
O983 O 0.28252 0.59126 0.23295 0.0
O984 O 0.24964 0.56534 0.20094 0.0
C985 C 0.2603 0.61904 0.13958 0.0
O986 O 0.33873 0.61159 0.2061 0.0
O987 O 0.34389 0.60562 0.15408 0.0
In988 In 0.41695 0.70012 0.81952 0.0
O989 O 0.38738 0.66024 0.79287 0.0
O990 O 0.39335 0.65508 0.84489 0.0
C991 C 0.42168 0.74414 0.76971 0.0
C992 C 0.37993 0.73867 0.85939 0.0
C993 C 0.48138 0.68417 0.82686 0.0
O994 O 0.4077 0.71645 0.76602 0.0
O995 O 0.43363 0.74933 0.79803 0.0
O996 O 0.46486 0.69779 0.84956 0.0
O997 O 0.46506 0.67688 0.8013 0.0
C998 C 0.38058 0.64402 0.81862 0.0
O999 O 0.40779 0.72773 0.8684 0.0
O1000 O 0.37067 0.72968 0.83102 0.0
In1001 In 0.29885 0.41694 0.81952 0.0
O1002 O 0.33873 0.38737 0.79287 0.0
O1003 O 0.34389 0.39334 0.84489 0.0
C1004 C 0.25483 0.42167 0.76971 0.0
C1005 C 0.2603 0.37992 0.85939 0.0
C1006 C 0.3148 0.48137 0.82686 0.0
O1007 O 0.28252 0.4077 0.76602 0.0
O1008 O 0.24964 0.43362 0.79803 0.0
O1009 O 0.30117 0.46485 0.84956 0.0
O1010 O 0.32209 0.46505 0.8013 0.0
C1011 C 0.35494 0.38058 0.81862 0.0
O1012 O 0.27124 0.40779 0.8684 0.0
O1013 O 0.26929 0.37066 0.83102 0.0
In1014 In 0.58203 0.29884 0.81952 0.0
O1015 O 0.59118 0.27123 0.8684 0.0
O1016 O 0.62831 0.26928 0.83102 0.0
C1017 C 0.5176 0.31479 0.82686 0.0
C1018 C 0.61839 0.35494 0.81862 0.0
C1019 C 0.5773 0.25482 0.76971 0.0
O1020 O 0.53412 0.30117 0.84956 0.0
O1021 O 0.53392 0.32208 0.8013 0.0
O1022 O 0.59128 0.28251 0.76602 0.0
O1023 O 0.56535 0.24963 0.79803 0.0
C1024 C 0.61905 0.26029 0.85939 0.0
O1025 O 0.6116 0.33873 0.79287 0.0
O1026 O 0.60563 0.34388 0.84489 0.0
In1027 In 0.70013 0.58202 0.81952 0.0
O1028 O 0.72774 0.59118 0.8684 0.0
O1029 O 0.72969 0.6283 0.83102 0.0
C1030 C 0.68417 0.51759 0.82686 0.0
C1031 C 0.64403 0.61839 0.81862 0.0
C1032 C 0.74415 0.57729 0.76971 0.0
O1033 O 0.6978 0.53411 0.84956 0.0
O1034 O 0.67689 0.53391 0.8013 0.0
O1035 O 0.71646 0.59126 0.76602 0.0
O1036 O 0.74934 0.56534 0.79803 0.0
C1037 C 0.73867 0.61904 0.85939 0.0
O1038 O 0.66024 0.61159 0.79287 0.0
O1039 O 0.65509 0.60562 0.84489 0.0
In1040 In 0.17946 0.41694 0.29885 0.0
O1041 O 0.2061 0.38737 0.33873 0.0
O1042 O 0.15409 0.39334 0.34388 0.0
C1043 C 0.22927 0.42167 0.25483 0.0
C1044 C 0.13958 0.37992 0.2603 0.0
C1045 C 0.17211 0.48137 0.3148 0.0
O1046 O 0.23295 0.4077 0.28251 0.0
O1047 O 0.20094 0.43362 0.24963 0.0
O1048 O 0.14942 0.46485 0.30117 0.0
O1049 O 0.19767 0.46505 0.32209 0.0
C1050 C 0.18035 0.38058 0.35494 0.0
O1051 O 0.13057 0.40779 0.27124 0.0
O1052 O 0.16796 0.37066 0.26929 0.0
In1053 In 0.58203 0.17945 0.29885 0.0
O1054 O 0.59118 0.13057 0.27123 0.0
O1055 O 0.62831 0.16795 0.26929 0.0
C1056 C 0.5176 0.17211 0.3148 0.0
C1057 C 0.61839 0.18034 0.35494 0.0
C1058 C 0.5773 0.22926 0.25483 0.0
O1059 O 0.53412 0.14941 0.30117 0.0
O1060 O 0.53392 0.19766 0.32208 0.0
O1061 O 0.59128 0.23294 0.28251 0.0
O1062 O 0.56535 0.20093 0.24963 0.0
C1063 C 0.61905 0.13957 0.2603 0.0
O1064 O 0.6116 0.20609 0.33873 0.0
O1065 O 0.60563 0.15408 0.34388 0.0
In1066 In 0.81952 0.58202 0.29885 0.0
O1067 O 0.8684 0.59118 0.27124 0.0
O1068 O 0.83102 0.6283 0.26929 0.0
C1069 C 0.82686 0.51759 0.3148 0.0
C1070 C 0.81863 0.61838 0.35494 0.0
C1071 C 0.76971 0.57729 0.25483 0.0
O1072 O 0.84956 0.53411 0.30117 0.0
O1073 O 0.80131 0.53391 0.32209 0.0
O1074 O 0.76603 0.59126 0.28251 0.0
O1075 O 0.79804 0.56534 0.24963 0.0
C1076 C 0.8594 0.61904 0.2603 0.0
O1077 O 0.79287 0.61159 0.33873 0.0
O1078 O 0.84489 0.60562 0.34388 0.0
In1079 In 0.41695 0.81951 0.29885 0.0
O1080 O 0.38738 0.79287 0.33873 0.0
O1081 O 0.39335 0.84488 0.34388 0.0
C1082 C 0.42168 0.7697 0.25483 0.0
C1083 C 0.37993 0.85939 0.2603 0.0
C1084 C 0.48138 0.82686 0.3148 0.0
O1085 O 0.4077 0.76602 0.28251 0.0
O1086 O 0.43363 0.79803 0.24963 0.0
O1087 O 0.46486 0.84955 0.30117 0.0
O1088 O 0.46506 0.8013 0.32208 0.0
C1089 C 0.38058 0.81862 0.35494 0.0
O1090 O 0.40779 0.8684 0.27123 0.0
O1091 O 0.37067 0.83101 0.26929 0.0
In1092 In 0.17946 0.58202 0.70012 0.0
O1093 O 0.13057 0.59118 0.72773 0.0
O1094 O 0.16796 0.6283 0.72968 0.0
C1095 C 0.17211 0.51759 0.68417 0.0
C1096 C 0.18035 0.61838 0.64403 0.0
C1097 C 0.22927 0.57729 0.74414 0.0
O1098 O 0.14942 0.53411 0.6978 0.0
O1099 O 0.19767 0.53391 0.67688 0.0
O1100 O 0.23295 0.59126 0.71646 0.0
O1101 O 0.20094 0.56534 0.74934 0.0
C1102 C 0.13958 0.61904 0.73867 0.0
O1103 O 0.2061 0.61159 0.66024 0.0
O1104 O 0.15409 0.60562 0.65509 0.0
In1105 In 0.41695 0.17945 0.70012 0.0
O1106 O 0.38738 0.20609 0.66024 0.0
O1107 O 0.39335 0.15408 0.65509 0.0
C1108 C 0.42168 0.22926 0.74414 0.0
C1109 C 0.37993 0.13957 0.73867 0.0
C1110 C 0.48138 0.17211 0.68417 0.0
O1111 O 0.4077 0.23294 0.71646 0.0
O1112 O 0.43363 0.20093 0.74934 0.0
O1113 O 0.46486 0.14941 0.6978 0.0
O1114 O 0.46506 0.19766 0.67689 0.0
C1115 C 0.38058 0.18034 0.64403 0.0
O1116 O 0.40779 0.13057 0.72774 0.0
O1117 O 0.37067 0.16795 0.72968 0.0
In1118 In 0.81952 0.41694 0.70012 0.0
O1119 O 0.79287 0.38737 0.66024 0.0
O1120 O 0.84489 0.39334 0.65509 0.0
C1121 C 0.76971 0.42167 0.74414 0.0
C1122 C 0.8594 0.37992 0.73867 0.0
C1123 C 0.82686 0.48137 0.68417 0.0
O1124 O 0.76603 0.4077 0.71646 0.0
O1125 O 0.79804 0.43362 0.74934 0.0
O1126 O 0.84956 0.46485 0.6978 0.0
O1127 O 0.80131 0.46505 0.67688 0.0
C1128 C 0.81863 0.38058 0.64403 0.0
O1129 O 0.8684 0.40779 0.72773 0.0
O1130 O 0.83102 0.37066 0.72968 0.0
In1131 In 0.58203 0.81951 0.70012 0.0
O1132 O 0.59118 0.8684 0.72774 0.0
O1133 O 0.62831 0.83101 0.72968 0.0
C1134 C 0.5176 0.82686 0.68417 0.0
C1135 C 0.61839 0.81862 0.64403 0.0
C1136 C 0.5773 0.7697 0.74414 0.0
O1137 O 0.53412 0.84955 0.6978 0.0
O1138 O 0.53392 0.8013 0.67689 0.0
O1139 O 0.59128 0.76602 0.71646 0.0
O1140 O 0.56535 0.79803 0.74934 0.0
C1141 C 0.61905 0.85939 0.73867 0.0
O1142 O 0.6116 0.79287 0.66024 0.0
O1143 O 0.60563 0.84488 0.65509 0.0
In1144 In 0.29885 0.17945 0.41694 0.0
O1145 O 0.27124 0.13057 0.40779 0.0
O1146 O 0.26929 0.16795 0.37066 0.0
C1147 C 0.3148 0.17211 0.48138 0.0
C1148 C 0.35494 0.18034 0.38058 0.0
C1149 C 0.25483 0.22926 0.42167 0.0
O1150 O 0.30117 0.14941 0.46486 0.0
O1151 O 0.32209 0.19766 0.46506 0.0
O1152 O 0.28252 0.23294 0.4077 0.0
O1153 O 0.24964 0.20093 0.43363 0.0
C1154 C 0.2603 0.13957 0.37993 0.0
O1155 O 0.33873 0.20609 0.38738 0.0
O1156 O 0.34389 0.15408 0.39335 0.0
In1157 In 0.29885 0.81951 0.58203 0.0
O1158 O 0.33873 0.79287 0.61159 0.0
O1159 O 0.34389 0.84488 0.60562 0.0
C1160 C 0.25483 0.7697 0.5773 0.0
C1161 C 0.2603 0.85939 0.61905 0.0
C1162 C 0.3148 0.82686 0.5176 0.0
O1163 O 0.28252 0.76602 0.59127 0.0
O1164 O 0.24964 0.79803 0.56535 0.0
O1165 O 0.30117 0.84955 0.53411 0.0
O1166 O 0.32209 0.8013 0.53391 0.0
C1167 C 0.35494 0.81862 0.61839 0.0
O1168 O 0.27124 0.8684 0.59118 0.0
O1169 O 0.26929 0.83101 0.62831 0.0
In1170 In 0.17946 0.29884 0.58203 0.0
O1171 O 0.2061 0.33873 0.61159 0.0
O1172 O 0.15409 0.34388 0.60562 0.0
C1173 C 0.22927 0.25482 0.5773 0.0
C1174 C 0.13958 0.26029 0.61905 0.0
C1175 C 0.17211 0.3148 0.5176 0.0
O1176 O 0.23295 0.28251 0.59127 0.0
O1177 O 0.20094 0.24963 0.56534 0.0
O1178 O 0.14942 0.30117 0.53411 0.0
O1179 O 0.19767 0.32208 0.53391 0.0
C1180 C 0.18035 0.35494 0.61839 0.0
O1181 O 0.13057 0.27123 0.59118 0.0
O1182 O 0.16796 0.26928 0.62831 0.0
In1183 In 0.70013 0.17945 0.58203 0.0
O1184 O 0.72774 0.13057 0.59118 0.0
O1185 O 0.72969 0.16795 0.62831 0.0
C1186 C 0.68418 0.17211 0.5176 0.0
C1187 C 0.64403 0.18034 0.61839 0.0
C1188 C 0.74415 0.22926 0.5773 0.0
O1189 O 0.6978 0.14941 0.53411 0.0
O1190 O 0.67689 0.19766 0.53391 0.0
O1191 O 0.71646 0.23294 0.59127 0.0
O1192 O 0.74934 0.20093 0.56535 0.0
C1193 C 0.73868 0.13957 0.61905 0.0
O1194 O 0.66024 0.20609 0.61159 0.0
O1195 O 0.65509 0.15408 0.60562 0.0
In1196 In 0.81952 0.70012 0.58203 0.0
O1197 O 0.79287 0.66024 0.61159 0.0
O1198 O 0.84489 0.65508 0.60562 0.0
C1199 C 0.76971 0.74414 0.5773 0.0
C1200 C 0.8594 0.73867 0.61905 0.0
C1201 C 0.82686 0.68417 0.5176 0.0
O1202 O 0.76603 0.71645 0.59127 0.0
O1203 O 0.79804 0.74933 0.56534 0.0
O1204 O 0.84956 0.69779 0.53411 0.0
O1205 O 0.8013 0.67688 0.53391 0.0
C1206 C 0.81863 0.64402 0.61839 0.0
O1207 O 0.8684 0.72773 0.59118 0.0
O1208 O 0.83102 0.72968 0.62831 0.0
In1209 In 0.70013 0.81951 0.41694 0.0
O1210 O 0.72774 0.8684 0.40779 0.0
O1211 O 0.72969 0.83101 0.37066 0.0
C1212 C 0.68417 0.82686 0.48138 0.0
C1213 C 0.64403 0.81862 0.38058 0.0
C1214 C 0.74415 0.7697 0.42167 0.0
O1215 O 0.6978 0.84955 0.46486 0.0
O1216 O 0.67689 0.8013 0.46506 0.0
O1217 O 0.71646 0.76602 0.4077 0.0
O1218 O 0.74934 0.79803 0.43363 0.0
C1219 C 0.73868 0.85939 0.37993 0.0
O1220 O 0.66024 0.79287 0.38738 0.0
O1221 O 0.65509 0.84488 0.39335 0.0
In1222 In 0.17946 0.70012 0.41694 0.0
O1223 O 0.13057 0.72773 0.40779 0.0
O1224 O 0.16796 0.72968 0.37066 0.0
C1225 C 0.17211 0.68417 0.48138 0.0
C1226 C 0.18035 0.64402 0.38058 0.0
C1227 C 0.22927 0.74414 0.42167 0.0
O1228 O 0.14942 0.69779 0.46486 0.0
O1229 O 0.19767 0.67688 0.46506 0.0
O1230 O 0.23295 0.71645 0.4077 0.0
O1231 O 0.20094 0.74933 0.43363 0.0
C1232 C 0.13958 0.73867 0.37993 0.0
O1233 O 0.2061 0.66024 0.38738 0.0
O1234 O 0.15409 0.65508 0.39335 0.0
In1235 In 0.81952 0.29884 0.41694 0.0
O1236 O 0.79287 0.33873 0.38738 0.0
O1237 O 0.84489 0.34388 0.39335 0.0
C1238 C 0.76971 0.25482 0.42167 0.0
C1239 C 0.8594 0.26029 0.37993 0.0
C1240 C 0.82686 0.3148 0.48138 0.0
O1241 O 0.76603 0.28251 0.4077 0.0
O1242 O 0.79804 0.24963 0.43363 0.0
O1243 O 0.84956 0.30117 0.46486 0.0
O1244 O 0.8013 0.32208 0.46506 0.0
C1245 C 0.81863 0.35494 0.38058 0.0
O1246 O 0.8684 0.27123 0.40779 0.0
O1247 O 0.83102 0.26928 0.37066 0.0
loop_
_geom_bond_atom_site_label_1
_geom_bond_atom_site_label_2
_geom_bond_distance
_geom_bond_site_symmetry_2
_ccdc_geom_bond_type
In0 O1 2.294 . S
In0 O2 2.326 . S
In0 O6 2.266 . S
In0 O7 2.326 . S
In0 O8 2.266 . S
In0 O9 2.326 . S
In0 O11 2.294 . S
In0 O12 2.326 . S
O1 In0 2.294 . S
O1 C10 1.240 . S
O2 In0 2.326 . S
O2 C10 1.252 . S
C3 O6 1.252 . S
C3 O7 1.260 . S
C4 O11 1.240 . S
C4 O12 1.252 . S
C5 O8 1.252 . S
C5 O9 1.260 . S
O6 In0 2.266 . S
O6 C3 1.252 . S
O7 In0 2.326 . S
O7 C3 1.260 . S
O8 In0 2.266 . S
O8 C5 1.252 . S
O9 In0 2.326 . S
O9 C5 1.260 . S
C10 O1 1.240 . S
C10 O2 1.252 . S
O11 In0 2.294 . S
O11 C4 1.240 . S
O12 In0 2.326 . S
O12 C4 1.252 . S
In13 O14 2.294 . S
In13 O15 2.326 . S
In13 O19 2.266 . S
In13 O20 2.326 . S
In13 O21 2.266 . S
In13 O22 2.326 . S
In13 O24 2.294 . S
In13 O25 2.326 . S
O14 In13 2.294 . S
O14 C23 1.240 . S
O15 In13 2.326 . S
O15 C23 1.252 . S
C16 O19 1.252 . S
C16 O20 1.260 . S
C17 O24 1.240 . S
C17 O25 1.252 . S
C18 O21 1.252 . S
C18 O22 1.260 . S
O19 In13 2.266 . S
O19 C16 1.252 . S
O20 In13 2.326 . S
O20 C16 1.260 . S
O21 In13 2.266 . S
O21 C18 1.252 . S
O22 In13 2.326 . S
O22 C18 1.260 . S
C23 O14 1.240 . S
C23 O15 1.252 . S
O24 In13 2.294 . S
O24 C17 1.240 . S
O25 In13 2.326 . S
O25 C17 1.252 . S
In26 O27 2.294 . S
In26 O28 2.326 . S
In26 O32 2.266 . S
In26 O33 2.326 . S
In26 O34 2.266 . S
In26 O35 2.326 . S
In26 O37 2.294 . S
In26 O38 2.326 . S
O27 In26 2.294 . S
O27 C36 1.240 . S
O28 In26 2.326 . S
O28 C36 1.252 . S
C29 O32 1.252 . S
C29 O33 1.260 . S
C30 O37 1.240 . S
C30 O38 1.252 . S
C31 O34 1.252 . S
C31 O35 1.260 . S
O32 In26 2.266 . S
O32 C29 1.252 . S
O33 In26 2.326 . S
O33 C29 1.260 . S
O34 In26 2.266 . S
O34 C31 1.252 . S
O35 In26 2.326 . S
O35 C31 1.260 . S
C36 O27 1.240 . S
C36 O28 1.252 . S
O37 In26 2.294 . S
O37 C30 1.240 . S
O38 In26 2.326 . S
O38 C30 1.252 . S
In39 O40 2.294 . S
In39 O41 2.326 . S
In39 O45 2.266 . S
In39 O46 2.326 . S
In39 O47 2.266 . S
In39 O48 2.326 . S
In39 O50 2.294 . S
In39 O51 2.326 . S
O40 In39 2.294 . S
O40 C49 1.240 . S
O41 In39 2.326 . S
O41 C49 1.252 . S
C42 O45 1.252 . S
C42 O46 1.260 . S
C43 O50 1.240 . S
C43 O51 1.252 . S
C44 O47 1.252 . S
C44 O48 1.260 . S
O45 In39 2.266 . S
O45 C42 1.252 . S
O46 In39 2.326 . S
O46 C42 1.260 . S
O47 In39 2.266 . S
O47 C44 1.252 . S
O48 In39 2.326 . S
O48 C44 1.260 . S
C49 O40 1.240 . S
C49 O41 1.252 . S
O50 In39 2.294 . S
O50 C43 1.240 . S
O51 In39 2.326 . S
O51 C43 1.252 . S
In52 O53 2.294 . S
In52 O54 2.326 . S
In52 O58 2.266 . S
In52 O59 2.326 . S
In52 O60 2.266 . S
In52 O61 2.326 . S
In52 O63 2.294 . S
In52 O64 2.326 . S
O53 In52 2.294 . S
O53 C62 1.240 . S
O54 In52 2.326 . S
O54 C62 1.252 . S
C55 O58 1.252 . S
C55 O59 1.260 . S
C56 O63 1.240 . S
C56 O64 1.252 . S
C57 O60 1.252 . S
C57 O61 1.260 . S
O58 In52 2.266 . S
O58 C55 1.252 . S
O59 In52 2.326 . S
O59 C55 1.260 . S
O60 In52 2.266 . S
O60 C57 1.252 . S
O61 In52 2.326 . S
O61 C57 1.260 . S
C62 O53 1.240 . S
C62 O54 1.252 . S
O63 In52 2.294 . S
O63 C56 1.240 . S
O64 In52 2.326 . S
O64 C56 1.252 . S
In65 O66 2.294 . S
In65 O67 2.326 . S
In65 O71 2.266 . S
In65 O72 2.326 . S
In65 O73 2.266 . S
In65 O74 2.326 . S
In65 O76 2.294 . S
In65 O77 2.326 . S
O66 In65 2.294 . S
O66 C75 1.240 . S
O67 In65 2.326 . S
O67 C75 1.252 . S
C68 O71 1.252 . S
C68 O72 1.260 . S
C69 O76 1.240 . S
C69 O77 1.252 . S
C70 O73 1.252 . S
C70 O74 1.260 . S
O71 In65 2.266 . S
O71 C68 1.252 . S
O72 In65 2.326 . S
O72 C68 1.260 . S
O73 In65 2.266 . S
O73 C70 1.252 . S
O74 In65 2.326 . S
O74 C70 1.260 . S
C75 O66 1.240 . S
C75 O67 1.252 . S
O76 In65 2.294 . S
O76 C69 1.240 . S
O77 In65 2.326 . S
O77 C69 1.252 . S
In78 O79 2.294 . S
In78 O80 2.326 . S
In78 O84 2.266 . S
In78 O85 2.326 . S
In78 O86 2.266 . S
In78 O87 2.326 . S
In78 O89 2.294 . S
In78 O90 2.326 . S
O79 In78 2.294 . S
O79 C88 1.240 . S
O80 In78 2.326 . S
O80 C88 1.252 . S
C81 O84 1.252 . S
C81 O85 1.260 . S
C82 O89 1.240 . S
C82 O90 1.252 . S
C83 O86 1.252 . S
C83 O87 1.260 . S
O84 In78 2.266 . S
O84 C81 1.252 . S
O85 In78 2.326 . S
O85 C81 1.260 . S
O86 In78 2.266 . S
O86 C83 1.252 . S
O87 In78 2.326 . S
O87 C83 1.260 . S
C88 O79 1.240 . S
C88 O80 1.252 . S
O89 In78 2.294 . S
O89 C82 1.240 . S
O90 In78 2.326 . S
O90 C82 1.252 . S
In91 O92 2.294 . S
In91 O93 2.326 . S
In91 O97 2.266 . S
In91 O98 2.326 . S
In91 O99 2.266 . S
In91 O100 2.326 . S
In91 O102 2.294 . S
In91 O103 2.326 . S
O92 In91 2.294 . S
O92 C101 1.240 . S
O93 In91 2.326 . S
O93 C101 1.252 . S
C94 O97 1.252 . S
C94 O98 1.260 . S
C95 O102 1.240 . S
C95 O103 1.252 . S
C96 O99 1.252 . S
C96 O100 1.260 . S
O97 In91 2.266 . S
O97 C94 1.252 . S
O98 In91 2.326 . S
O98 C94 1.260 . S
O99 In91 2.266 . S
O99 C96 1.252 . S
O100 In91 2.326 . S
O100 C96 1.260 . S
C101 O92 1.240 . S
C101 O93 1.252 . S
O102 In91 2.294 . S
O102 C95 1.240 . S
O103 In91 2.326 . S
O103 C95 1.252 . S
In104 O105 2.294 . S
In104 O106 2.326 . S
In104 O110 2.266 . S
In104 O111 2.326 . S
In104 O112 2.266 . S
In104 O113 2.326 . S
In104 O115 2.294 . S
In104 O116 2.326 . S
O105 In104 2.294 . S
O105 C114 1.240 . S
O106 In104 2.326 . S
O106 C114 1.252 . S
C107 O110 1.252 . S
C107 O111 1.260 . S
C108 O115 1.240 . S
C108 O116 1.252 . S
C109 O112 1.252 . S
C109 O113 1.260 . S
O110 In104 2.266 . S
O110 C107 1.252 . S
O111 In104 2.326 . S
O111 C107 1.260 . S
O112 In104 2.266 . S
O112 C109 1.252 . S
O113 In104 2.326 . S
O113 C109 1.260 . S
C114 O105 1.240 . S
C114 O106 1.252 . S
O115 In104 2.294 . S
O115 C108 1.240 . S
O116 In104 2.326 . S
O116 C108 1.252 . S
In117 O118 2.294 . S
In117 O119 2.326 . S
In117 O123 2.266 . S
In117 O124 2.326 . S
In117 O125 2.266 . S
In117 O126 2.326 . S
In117 O128 2.294 . S
In117 O129 2.326 . S
O118 In117 2.294 . S
O118 C127 1.240 . S
O119 In117 2.326 . S
O119 C127 1.252 . S
C120 O123 1.252 . S
C120 O124 1.260 . S
C121 O128 1.240 . S
C121 O129 1.252 . S
C122 O125 1.252 . S
C122 O126 1.260 . S
O123 In117 2.266 . S
O123 C120 1.252 . S
O124 In117 2.326 . S
O124 C120 1.260 . S
O125 In117 2.266 . S
O125 C122 1.252 . S
O126 In117 2.326 . S
O126 C122 1.260 . S
C127 O118 1.240 . S
C127 O119 1.252 . S
O128 In117 2.294 . S
O128 C121 1.240 . S
O129 In117 2.326 . S
O129 C121 1.252 . S
In130 O131 2.294 . S
In130 O132 2.326 . S
In130 O136 2.266 . S
In130 O137 2.326 . S
In130 O138 2.266 . S
In130 O139 2.326 . S
In130 O141 2.294 . S
In130 O142 2.326 . S
O131 In130 2.294 . S
O131 C140 1.240 . S
O132 In130 2.326 . S
O132 C140 1.252 . S
C133 O136 1.252 . S
C133 O137 1.260 . S
C134 O141 1.240 . S
C134 O142 1.252 . S
C135 O138 1.252 . S
C135 O139 1.260 . S
O136 In130 2.266 . S
O136 C133 1.252 . S
O137 In130 2.326 . S
O137 C133 1.260 . S
O138 In130 2.266 . S
O138 C135 1.252 . S
O139 In130 2.326 . S
O139 C135 1.260 . S
C140 O131 1.240 . S
C140 O132 1.252 . S
O141 In130 2.294 . S
O141 C134 1.240 . S
O142 In130 2.326 . S
O142 C134 1.252 . S
In143 O144 2.294 . S
In143 O145 2.326 . S
In143 O149 2.266 . S
In143 O150 2.326 . S
In143 O151 2.266 . S
In143 O152 2.326 . S
In143 O154 2.294 . S
In143 O155 2.326 . S
O144 In143 2.294 . S
O144 C153 1.240 . S
O145 In143 2.326 . S
O145 C153 1.252 . S
C146 O149 1.252 . S
C146 O150 1.260 . S
C147 O154 1.240 . S
C147 O155 1.252 . S
C148 O151 1.252 . S
C148 O152 1.260 . S
O149 In143 2.266 . S
O149 C146 1.252 . S
O150 In143 2.326 . S
O150 C146 1.260 . S
O151 In143 2.266 . S
O151 C148 1.252 . S
O152 In143 2.326 . S
O152 C148 1.260 . S
C153 O144 1.240 . S
C153 O145 1.252 . S
O154 In143 2.294 . S
O154 C147 1.240 . S
O155 In143 2.326 . S
O155 C147 1.252 . S
In156 O157 2.294 . S
In156 O158 2.326 . S
In156 O162 2.266 . S
In156 O163 2.326 . S
In156 O164 2.266 . S
In156 O165 2.326 . S
In156 O167 2.294 . S
In156 O168 2.326 . S
O157 In156 2.294 . S
O157 C166 1.240 . S
O158 In156 2.326 . S
O158 C166 1.252 . S
C159 O162 1.252 . S
C159 O163 1.260 . S
C160 O167 1.240 . S
C160 O168 1.252 . S
C161 O164 1.252 . S
C161 O165 1.260 . S
O162 In156 2.266 . S
O162 C159 1.252 . S
O163 In156 2.326 . S
O163 C159 1.260 . S
O164 In156 2.266 . S
O164 C161 1.252 . S
O165 In156 2.326 . S
O165 C161 1.260 . S
C166 O157 1.240 . S
C166 O158 1.252 . S
O167 In156 2.294 . S
O167 C160 1.240 . S
O168 In156 2.326 . S
O168 C160 1.252 . S
In169 O170 2.294 . S
In169 O171 2.326 . S
In169 O175 2.266 . S
In169 O176 2.326 . S
In169 O177 2.266 . S
In169 O178 2.326 . S
In169 O180 2.294 . S
In169 O181 2.326 . S
O170 In169 2.294 . S
O170 C179 1.240 . S
O171 In169 2.326 . S
O171 C179 1.252 . S
C172 O175 1.252 . S
C172 O176 1.260 . S
C173 O180 1.240 . S
C173 O181 1.252 . S
C174 O177 1.252 . S
C174 O178 1.260 . S
O175 In169 2.266 . S
O175 C172 1.252 . S
O176 In169 2.326 . S
O176 C172 1.260 . S
O177 In169 2.266 . S
O177 C174 1.252 . S
O178 In169 2.326 . S
O178 C174 1.260 . S
C179 O170 1.240 . S
C179 O171 1.252 . S
O180 In169 2.294 . S
O180 C173 1.240 . S
O181 In169 2.326 . S
O181 C173 1.252 . S
In182 O183 2.294 . S
In182 O184 2.326 . S
In182 O188 2.266 . S
In182 O189 2.326 . S
In182 O190 2.266 . S
In182 O191 2.326 . S
In182 O193 2.294 . S
In182 O194 2.326 . S
O183 In182 2.294 . S
O183 C192 1.240 . S
O184 In182 2.326 . S
O184 C192 1.252 . S
C185 O188 1.252 . S
C185 O189 1.260 . S
C186 O193 1.240 . S
C186 O194 1.252 . S
C187 O190 1.252 . S
C187 O191 1.260 . S
O188 In182 2.266 . S
O188 C185 1.252 . S
O189 In182 2.326 . S
O189 C185 1.260 . S
O190 In182 2.266 . S
O190 C187 1.252 . S
O191 In182 2.326 . S
O191 C187 1.260 . S
C192 O183 1.240 . S
C192 O184 1.252 . S
O193 In182 2.294 . S
O193 C186 1.240 . S
O194 In182 2.326 . S
O194 C186 1.252 . S
In195 O196 2.294 . S
In195 O197 2.326 . S
In195 O201 2.266 . S
In195 O202 2.326 . S
In195 O203 2.266 . S
In195 O204 2.326 . S
In195 O206 2.294 . S
In195 O207 2.326 . S
O196 In195 2.294 . S
O196 C205 1.240 . S
O197 In195 2.326 . S
O197 C205 1.252 . S
C198 O201 1.252 . S
C198 O202 1.260 . S
C199 O206 1.240 . S
C199 O207 1.252 . S
C200 O203 1.252 . S
C200 O204 1.260 . S
O201 In195 2.266 . S
O201 C198 1.252 . S
O202 In195 2.326 . S
O202 C198 1.260 . S
O203 In195 2.266 . S
O203 C200 1.252 . S
O204 In195 2.326 . S
O204 C200 1.260 . S
C205 O196 1.240 . S
C205 O197 1.252 . S
O206 In195 2.294 . S
O206 C199 1.240 . S
O207 In195 2.326 . S
O207 C199 1.252 . S
In208 O209 2.294 . S
In208 O210 2.326 . S
In208 O214 2.266 . S
In208 O215 2.326 . S
In208 O216 2.266 . S
In208 O217 2.326 . S
In208 O219 2.294 . S
In208 O220 2.326 . S
O209 In208 2.294 . S
O209 C218 1.240 . S
O210 In208 2.326 . S
O210 C218 1.252 . S
C211 O214 1.252 . S
C211 O215 1.260 . S
C212 O219 1.240 . S
C212 O220 1.252 . S
C213 O216 1.252 . S
C213 O217 1.260 . S
O214 In208 2.266 . S
O214 C211 1.252 . S
O215 In208 2.326 . S
O215 C211 1.260 . S
O216 In208 2.266 . S
O216 C213 1.252 . S
O217 In208 2.326 . S
O217 C213 1.260 . S
C218 O209 1.240 . S
C218 O210 1.252 . S
O219 In208 2.294 . S
O219 C212 1.240 . S
O220 In208 2.326 . S
O220 C212 1.252 . S
In221 O222 2.294 . S
In221 O223 2.326 . S
In221 O227 2.266 . S
In221 O228 2.326 . S
In221 O229 2.266 . S
In221 O230 2.326 . S
In221 O232 2.294 . S
In221 O233 2.326 . S
O222 In221 2.294 . S
O222 C231 1.240 . S
O223 In221 2.326 . S
O223 C231 1.252 . S
C224 O227 1.252 . S
C224 O228 1.260 . S
C225 O232 1.240 . S
C225 O233 1.252 . S
C226 O229 1.252 . S
C226 O230 1.260 . S
O227 In221 2.266 . S
O227 C224 1.252 . S
O228 In221 2.326 . S
O228 C224 1.260 . S
O229 In221 2.266 . S
O229 C226 1.252 . S
O230 In221 2.326 . S
O230 C226 1.260 . S
C231 O222 1.240 . S
C231 O223 1.252 . S
O232 In221 2.294 . S
O232 C225 1.240 . S
O233 In221 2.326 . S
O233 C225 1.252 . S
In234 O235 2.294 . S
In234 O236 2.326 . S
In234 O240 2.266 . S
In234 O241 2.326 . S
In234 O242 2.266 . S
In234 O243 2.326 . S
In234 O245 2.294 . S
In234 O246 2.326 . S
O235 In234 2.294 . S
O235 C244 1.240 . S
O236 In234 2.326 . S
O236 C244 1.252 . S
C237 O240 1.252 . S
C237 O241 1.260 . S
C238 O245 1.240 . S
C238 O246 1.252 . S
C239 O242 1.252 . S
C239 O243 1.260 . S
O240 In234 2.266 . S
O240 C237 1.252 . S
O241 In234 2.326 . S
O241 C237 1.260 . S
O242 In234 2.266 . S
O242 C239 1.252 . S
O243 In234 2.326 . S
O243 C239 1.260 . S
C244 O235 1.240 . S
C244 O236 1.252 . S
O245 In234 2.294 . S
O245 C238 1.240 . S
O246 In234 2.326 . S
O246 C238 1.252 . S
In247 O248 2.294 . S
In247 O249 2.326 . S
In247 O253 2.266 . S
In247 O254 2.326 . S
In247 O255 2.266 . S
In247 O256 2.326 . S
In247 O258 2.294 . S
In247 O259 2.326 . S
O248 In247 2.294 . S
O248 C257 1.240 . S
O249 In247 2.326 . S
O249 C257 1.252 . S
C250 O253 1.252 . S
C250 O254 1.260 . S
C251 O258 1.240 . S
C251 O259 1.252 . S
C252 O255 1.252 . S
C252 O256 1.260 . S
O253 In247 2.266 . S
O253 C250 1.252 . S
O254 In247 2.326 . S
O254 C250 1.260 . S
O255 In247 2.266 . S
O255 C252 1.252 . S
O256 In247 2.326 . S
O256 C252 1.260 . S
C257 O248 1.240 . S
C257 O249 1.252 . S
O258 In247 2.294 . S
O258 C251 1.240 . S
O259 In247 2.326 . S
O259 C251 1.252 . S
In260 O261 2.294 . S
In260 O262 2.326 . S
In260 O266 2.266 . S
In260 O267 2.326 . S
In260 O268 2.266 . S
In260 O269 2.326 . S
In260 O271 2.294 . S
In260 O272 2.326 . S
O261 In260 2.294 . S
O261 C270 1.240 . S
O262 In260 2.326 . S
O262 C270 1.252 . S
C263 O266 1.252 . S
C263 O267 1.260 . S
C264 O271 1.240 . S
C264 O272 1.252 . S
C265 O268 1.252 . S
C265 O269 1.260 . S
O266 In260 2.266 . S
O266 C263 1.252 . S
O267 In260 2.326 . S
O267 C263 1.260 . S
O268 In260 2.266 . S
O268 C265 1.252 . S
O269 In260 2.326 . S
O269 C265 1.260 . S
C270 O261 1.240 . S
C270 O262 1.252 . S
O271 In260 2.294 . S
O271 C264 1.240 . S
O272 In260 2.326 . S
O272 C264 1.252 . S
In273 O274 2.294 . S
In273 O275 2.326 . S
In273 O279 2.266 . S
In273 O280 2.326 . S
In273 O281 2.266 . S
In273 O282 2.326 . S
In273 O284 2.294 . S
In273 O285 2.326 . S
O274 In273 2.294 . S
O274 C283 1.240 . S
O275 In273 2.326 . S
O275 C283 1.252 . S
C276 O279 1.252 . S
C276 O280 1.260 . S
C277 O284 1.240 . S
C277 O285 1.252 . S
C278 O281 1.252 . S
C278 O282 1.260 . S
O279 In273 2.266 . S
O279 C276 1.252 . S
O280 In273 2.326 . S
O280 C276 1.260 . S
O281 In273 2.266 . S
O281 C278 1.252 . S
O282 In273 2.326 . S
O282 C278 1.260 . S
C283 O274 1.240 . S
C283 O275 1.252 . S
O284 In273 2.294 . S
O284 C277 1.240 . S
O285 In273 2.326 . S
O285 C277 1.252 . S
In286 O287 2.294 . S
In286 O288 2.326 . S
In286 O292 2.266 . S
In286 O293 2.326 . S
In286 O294 2.266 . S
In286 O295 2.326 . S
In286 O297 2.294 . S
In286 O298 2.326 . S
O287 In286 2.294 . S
O287 C296 1.240 . S
O288 In286 2.326 . S
O288 C296 1.252 . S
C289 O292 1.252 . S
C289 O293 1.260 . S
C290 O297 1.240 . S
C290 O298 1.252 . S
C291 O294 1.252 . S
C291 O295 1.260 . S
O292 In286 2.266 . S
O292 C289 1.252 . S
O293 In286 2.326 . S
O293 C289 1.260 . S
O294 In286 2.266 . S
O294 C291 1.252 . S
O295 In286 2.326 . S
O295 C291 1.260 . S
C296 O287 1.240 . S
C296 O288 1.252 . S
O297 In286 2.294 . S
O297 C290 1.240 . S
O298 In286 2.326 . S
O298 C290 1.252 . S
In299 O300 2.294 . S
In299 O301 2.326 . S
In299 O305 2.266 . S
In299 O306 2.326 . S
In299 O307 2.266 . S
In299 O308 2.326 . S
In299 O310 2.294 . S
In299 O311 2.326 . S
O300 In299 2.294 . S
O300 C309 1.240 . S
O301 In299 2.326 . S
O301 C309 1.252 . S
C302 O305 1.252 . S
C302 O306 1.260 . S
C303 O310 1.240 . S
C303 O311 1.252 . S
C304 O307 1.252 . S
C304 O308 1.260 . S
O305 In299 2.266 . S
O305 C302 1.252 . S
O306 In299 2.326 . S
O306 C302 1.260 . S
O307 In299 2.266 . S
O307 C304 1.252 . S
O308 In299 2.326 . S
O308 C304 1.260 . S
C309 O300 1.240 . S
C309 O301 1.252 . S
O310 In299 2.294 . S
O310 C303 1.240 . S
O311 In299 2.326 . S
O311 C303 1.252 . S
In312 O313 2.294 . S
In312 O314 2.326 . S
In312 O318 2.266 . S
In312 O319 2.326 . S
In312 O320 2.266 . S
In312 O321 2.326 . S
In312 O323 2.294 . S
In312 O324 2.326 . S
O313 In312 2.294 . S
O313 C322 1.240 . S
O314 In312 2.326 . S
O314 C322 1.252 . S
C315 O318 1.252 . S
C315 O319 1.260 . S
C316 O323 1.240 . S
C316 O324 1.252 . S
C317 O320 1.252 . S
C317 O321 1.260 . S
O318 In312 2.266 . S
O318 C315 1.252 . S
O319 In312 2.326 . S
O319 C315 1.260 . S
O320 In312 2.266 . S
O320 C317 1.252 . S
O321 In312 2.326 . S
O321 C317 1.260 . S
C322 O313 1.240 . S
C322 O314 1.252 . S
O323 In312 2.294 . S
O323 C316 1.240 . S
O324 In312 2.326 . S
O324 C316 1.252 . S
In325 O326 2.294 . S
In325 O327 2.326 . S
In325 O331 2.266 . S
In325 O332 2.326 . S
In325 O333 2.266 . S
In325 O334 2.326 . S
In325 O336 2.294 . S
In325 O337 2.326 . S
O326 In325 2.294 . S
O326 C335 1.240 . S
O327 In325 2.326 . S
O327 C335 1.252 . S
C328 O331 1.252 . S
C328 O332 1.260 . S
C329 O336 1.240 . S
C329 O337 1.252 . S
C330 O333 1.252 . S
C330 O334 1.260 . S
O331 In325 2.266 . S
O331 C328 1.252 . S
O332 In325 2.326 . S
O332 C328 1.260 . S
O333 In325 2.266 . S
O333 C330 1.252 . S
O334 In325 2.326 . S
O334 C330 1.260 . S
C335 O326 1.240 . S
C335 O327 1.252 . S
O336 In325 2.294 . S
O336 C329 1.240 . S
O337 In325 2.326 . S
O337 C329 1.252 . S
In338 O339 2.294 . S
In338 O340 2.326 . S
In338 O344 2.266 . S
In338 O345 2.326 . S
In338 O346 2.266 . S
In338 O347 2.326 . S
In338 O349 2.294 . S
In338 O350 2.326 . S
O339 In338 2.294 . S
O339 C348 1.240 . S
O340 In338 2.326 . S
O340 C348 1.252 . S
C341 O344 1.252 . S
C341 O345 1.260 . S
C342 O349 1.240 . S
C342 O350 1.252 . S
C343 O346 1.252 . S
C343 O347 1.260 . S
O344 In338 2.266 . S
O344 C341 1.252 . S
O345 In338 2.326 . S
O345 C341 1.260 . S
O346 In338 2.266 . S
O346 C343 1.252 . S
O347 In338 2.326 . S
O347 C343 1.260 . S
C348 O339 1.240 . S
C348 O340 1.252 . S
O349 In338 2.294 . S
O349 C342 1.240 . S
O350 In338 2.326 . S
O350 C342 1.252 . S
In351 O352 2.294 . S
In351 O353 2.326 . S
In351 O357 2.266 . S
In351 O358 2.326 . S
In351 O359 2.266 . S
In351 O360 2.326 . S
In351 O362 2.294 . S
In351 O363 2.326 . S
O352 In351 2.294 . S
O352 C361 1.240 . S
O353 In351 2.326 . S
O353 C361 1.252 . S
C354 O357 1.252 . S
C354 O358 1.260 . S
C355 O362 1.240 . S
C355 O363 1.252 . S
C356 O359 1.252 . S
C356 O360 1.260 . S
O357 In351 2.266 . S
O357 C354 1.252 . S
O358 In351 2.326 . S
O358 C354 1.260 . S
O359 In351 2.266 . S
O359 C356 1.252 . S
O360 In351 2.326 . S
O360 C356 1.260 . S
C361 O352 1.240 . S
C361 O353 1.252 . S
O362 In351 2.294 . S
O362 C355 1.240 . S
O363 In351 2.326 . S
O363 C355 1.252 . S
In364 O365 2.294 . S
In364 O366 2.326 . S
In364 O370 2.266 . S
In364 O371 2.326 . S
In364 O372 2.266 . S
In364 O373 2.326 . S
In364 O375 2.294 . S
In364 O376 2.326 . S
O365 In364 2.294 . S
O365 C374 1.240 . S
O366 In364 2.326 . S
O366 C374 1.252 . S
C367 O370 1.252 . S
C367 O371 1.260 . S
C368 O375 1.240 . S
C368 O376 1.252 . S
C369 O372 1.252 . S
C369 O373 1.260 . S
O370 In364 2.266 . S
O370 C367 1.252 . S
O371 In364 2.326 . S
O371 C367 1.260 . S
O372 In364 2.266 . S
O372 C369 1.252 . S
O373 In364 2.326 . S
O373 C369 1.260 . S
C374 O365 1.240 . S
C374 O366 1.252 . S
O375 In364 2.294 . S
O375 C368 1.240 . S
O376 In364 2.326 . S
O376 C368 1.252 . S
In377 O378 2.294 . S
In377 O379 2.326 . S
In377 O383 2.266 . S
In377 O384 2.326 . S
In377 O385 2.266 . S
In377 O386 2.326 . S
In377 O388 2.294 . S
In377 O389 2.326 . S
O378 In377 2.294 . S
O378 C387 1.240 . S
O379 In377 2.326 . S
O379 C387 1.252 . S
C380 O383 1.252 . S
C380 O384 1.260 . S
C381 O388 1.240 . S
C381 O389 1.252 . S
C382 O385 1.252 . S
C382 O386 1.260 . S
O383 In377 2.266 . S
O383 C380 1.252 . S
O384 In377 2.326 . S
O384 C380 1.260 . S
O385 In377 2.266 . S
O385 C382 1.252 . S
O386 In377 2.326 . S
O386 C382 1.260 . S
C387 O378 1.240 . S
C387 O379 1.252 . S
O388 In377 2.294 . S
O388 C381 1.240 . S
O389 In377 2.326 . S
O389 C381 1.252 . S
In390 O391 2.294 . S
In390 O392 2.326 . S
In390 O396 2.266 . S
In390 O397 2.326 . S
In390 O398 2.266 . S
In390 O399 2.326 . S
In390 O401 2.294 . S
In390 O402 2.326 . S
O391 In390 2.294 . S
O391 C400 1.240 . S
O392 In390 2.326 . S
O392 C400 1.252 . S
C393 O396 1.252 . S
C393 O397 1.260 . S
C394 O401 1.240 . S
C394 O402 1.252 . S
C395 O398 1.252 . S
C395 O399 1.260 . S
O396 In390 2.266 . S
O396 C393 1.252 . S
O397 In390 2.326 . S
O397 C393 1.260 . S
O398 In390 2.266 . S
O398 C395 1.252 . S
O399 In390 2.326 . S
O399 C395 1.260 . S
C400 O391 1.240 . S
C400 O392 1.252 . S
O401 In390 2.294 . S
O401 C394 1.240 . S
O402 In390 2.326 . S
O402 C394 1.252 . S
In403 O404 2.294 . S
In403 O405 2.326 . S
In403 O409 2.266 . S
In403 O410 2.326 . S
In403 O411 2.266 . S
In403 O412 2.326 . S
In403 O414 2.294 . S
In403 O415 2.326 . S
O404 In403 2.294 . S
O404 C413 1.240 . S
O405 In403 2.326 . S
O405 C413 1.252 . S
C406 O409 1.252 . S
C406 O410 1.260 . S
C407 O414 1.240 . S
C407 O415 1.252 . S
C408 O411 1.252 . S
C408 O412 1.260 . S
O409 In403 2.266 . S
O409 C406 1.252 . S
O410 In403 2.326 . S
O410 C406 1.260 . S
O411 In403 2.266 . S
O411 C408 1.252 . S
O412 In403 2.326 . S
O412 C408 1.260 . S
C413 O404 1.240 . S
C413 O405 1.252 . S
O414 In403 2.294 . S
O414 C407 1.240 . S
O415 In403 2.326 . S
O415 C407 1.252 . S
In416 O417 2.294 . S
In416 O418 2.326 . S
In416 O422 2.266 . S
In416 O423 2.326 . S
In416 O424 2.266 . S
In416 O425 2.326 . S
In416 O427 2.294 . S
In416 O428 2.326 . S
O417 In416 2.294 . S
O417 C426 1.240 . S
O418 In416 2.326 . S
O418 C426 1.252 . S
C419 O422 1.252 . S
C419 O423 1.260 . S
C420 O427 1.240 . S
C420 O428 1.252 . S
C421 O424 1.252 . S
C421 O425 1.260 . S
O422 In416 2.266 . S
O422 C419 1.252 . S
O423 In416 2.326 . S
O423 C419 1.260 . S
O424 In416 2.266 . S
O424 C421 1.252 . S
O425 In416 2.326 . S
O425 C421 1.260 . S
C426 O417 1.240 . S
C426 O418 1.252 . S
O427 In416 2.294 . S
O427 C420 1.240 . S
O428 In416 2.326 . S
O428 C420 1.252 . S
In429 O430 2.294 . S
In429 O431 2.326 . S
In429 O435 2.266 . S
In429 O436 2.326 . S
In429 O437 2.266 . S
In429 O438 2.326 . S
In429 O440 2.294 . S
In429 O441 2.326 . S
O430 In429 2.294 . S
O430 C439 1.240 . S
O431 In429 2.326 . S
O431 C439 1.252 . S
C432 O435 1.252 . S
C432 O436 1.260 . S
C433 O440 1.240 . S
C433 O441 1.252 . S
C434 O437 1.252 . S
C434 O438 1.260 . S
O435 In429 2.266 . S
O435 C432 1.252 . S
O436 In429 2.326 . S
O436 C432 1.260 . S
O437 In429 2.266 . S
O437 C434 1.252 . S
O438 In429 2.326 . S
O438 C434 1.260 . S
C439 O430 1.240 . S
C439 O431 1.252 . S
O440 In429 2.294 . S
O440 C433 1.240 . S
O441 In429 2.326 . S
O441 C433 1.252 . S
In442 O443 2.294 . S
In442 O444 2.326 . S
In442 O448 2.266 . S
In442 O449 2.326 . S
In442 O450 2.266 . S
In442 O451 2.326 . S
In442 O453 2.294 . S
In442 O454 2.326 . S
O443 In442 2.294 . S
O443 C452 1.240 . S
O444 In442 2.326 . S
O444 C452 1.252 . S
C445 O448 1.252 . S
C445 O449 1.260 . S
C446 O453 1.240 . S
C446 O454 1.252 . S
C447 O450 1.252 . S
C447 O451 1.260 . S
O448 In442 2.266 . S
O448 C445 1.252 . S
O449 In442 2.326 . S
O449 C445 1.260 . S
O450 In442 2.266 . S
O450 C447 1.252 . S
O451 In442 2.326 . S
O451 C447 1.260 . S
C452 O443 1.240 . S
C452 O444 1.252 . S
O453 In442 2.294 . S
O453 C446 1.240 . S
O454 In442 2.326 . S
O454 C446 1.252 . S
In455 O456 2.294 . S
In455 O457 2.326 . S
In455 O461 2.266 . S
In455 O462 2.326 . S
In455 O463 2.266 . S
In455 O464 2.326 . S
In455 O466 2.294 . S
In455 O467 2.326 . S
O456 In455 2.294 . S
O456 C465 1.240 . S
O457 In455 2.326 . S
O457 C465 1.252 . S
C458 O461 1.252 . S
C458 O462 1.260 . S
C459 O466 1.240 . S
C459 O467 1.252 . S
C460 O463 1.252 . S
C460 O464 1.260 . S
O461 In455 2.266 . S
O461 C458 1.252 . S
O462 In455 2.326 . S
O462 C458 1.260 . S
O463 In455 2.266 . S
O463 C460 1.252 . S
O464 In455 2.326 . S
O464 C460 1.260 . S
C465 O456 1.240 . S
C465 O457 1.252 . S
O466 In455 2.294 . S
O466 C459 1.240 . S
O467 In455 2.326 . S
O467 C459 1.252 . S
In468 O469 2.294 . S
In468 O470 2.326 . S
In468 O474 2.266 . S
In468 O475 2.326 . S
In468 O476 2.266 . S
In468 O477 2.326 . S
In468 O479 2.294 . S
In468 O480 2.326 . S
O469 In468 2.294 . S
O469 C478 1.240 . S
O470 In468 2.326 . S
O470 C478 1.252 . S
C471 O474 1.252 . S
C471 O475 1.260 . S
C472 O479 1.240 . S
C472 O480 1.252 . S
C473 O476 1.252 . S
C473 O477 1.260 . S
O474 In468 2.266 . S
O474 C471 1.252 . S
O475 In468 2.326 . S
O475 C471 1.260 . S
O476 In468 2.266 . S
O476 C473 1.252 . S
O477 In468 2.326 . S
O477 C473 1.260 . S
C478 O469 1.240 . S
C478 O470 1.252 . S
O479 In468 2.294 . S
O479 C472 1.240 . S
O480 In468 2.326 . S
O480 C472 1.252 . S
In481 O482 2.294 . S
In481 O483 2.326 . S
In481 O487 2.266 . S
In481 O488 2.326 . S
In481 O489 2.266 . S
In481 O490 2.326 . S
In481 O492 2.294 . S
In481 O493 2.326 . S
O482 In481 2.294 . S
O482 C491 1.240 . S
O483 In481 2.326 . S
O483 C491 1.252 . S
C484 O487 1.252 . S
C484 O488 1.260 . S
C485 O492 1.240 . S
C485 O493 1.252 . S
C486 O489 1.252 . S
C486 O490 1.260 . S
O487 In481 2.266 . S
O487 C484 1.252 . S
O488 In481 2.326 . S
O488 C484 1.260 . S
O489 In481 2.266 . S
O489 C486 1.252 . S
O490 In481 2.326 . S
O490 C486 1.260 . S
C491 O482 1.240 . S
C491 O483 1.252 . S
O492 In481 2.294 . S
O492 C485 1.240 . S
O493 In481 2.326 . S
O493 C485 1.252 . S
In494 O495 2.294 . S
In494 O496 2.326 . S
In494 O500 2.266 . S
In494 O501 2.326 . S
In494 O502 2.266 . S
In494 O503 2.326 . S
In494 O505 2.294 . S
In494 O506 2.326 . S
O495 In494 2.294 . S
O495 C504 1.240 . S
O496 In494 2.326 . S
O496 C504 1.252 . S
C497 O500 1.252 . S
C497 O501 1.260 . S
C498 O505 1.240 . S
C498 O506 1.252 . S
C499 O502 1.252 . S
C499 O503 1.260 . S
O500 In494 2.266 . S
O500 C497 1.252 . S
O501 In494 2.326 . S
O501 C497 1.260 . S
O502 In494 2.266 . S
O502 C499 1.252 . S
O503 In494 2.326 . S
O503 C499 1.260 . S
C504 O495 1.240 . S
C504 O496 1.252 . S
O505 In494 2.294 . S
O505 C498 1.240 . S
O506 In494 2.326 . S
O506 C498 1.252 . S
In507 O508 2.294 . S
In507 O509 2.326 . S
In507 O513 2.266 . S
In507 O514 2.326 . S
In507 O515 2.266 . S
In507 O516 2.326 . S
In507 O518 2.294 . S
In507 O519 2.326 . S
O508 In507 2.294 . S
O508 C517 1.240 . S
O509 In507 2.326 . S
O509 C517 1.252 . S
C510 O513 1.252 . S
C510 O514 1.260 . S
C511 O518 1.240 . S
C511 O519 1.252 . S
C512 O515 1.252 . S
C512 O516 1.260 . S
O513 In507 2.266 . S
O513 C510 1.252 . S
O514 In507 2.326 . S
O514 C510 1.260 . S
O515 In507 2.266 . S
O515 C512 1.252 . S
O516 In507 2.326 . S
O516 C512 1.260 . S
C517 O508 1.240 . S
C517 O509 1.252 . S
O518 In507 2.294 . S
O518 C511 1.240 . S
O519 In507 2.326 . S
O519 C511 1.252 . S
In520 O521 2.294 . S
In520 O522 2.326 . S
In520 O526 2.266 . S
In520 O527 2.326 . S
In520 O528 2.266 . S
In520 O529 2.326 . S
In520 O531 2.294 . S
In520 O532 2.326 . S
O521 In520 2.294 . S
O521 C530 1.240 . S
O522 In520 2.326 . S
O522 C530 1.252 . S
C523 O526 1.252 . S
C523 O527 1.260 . S
C524 O531 1.240 . S
C524 O532 1.252 . S
C525 O528 1.252 . S
C525 O529 1.260 . S
O526 In520 2.266 . S
O526 C523 1.252 . S
O527 In520 2.326 . S
O527 C523 1.260 . S
O528 In520 2.266 . S
O528 C525 1.252 . S
O529 In520 2.326 . S
O529 C525 1.260 . S
C530 O521 1.240 . S
C530 O522 1.252 . S
O531 In520 2.294 . S
O531 C524 1.240 . S
O532 In520 2.326 . S
O532 C524 1.252 . S
In533 O534 2.294 . S
In533 O535 2.326 . S
In533 O539 2.266 . S
In533 O540 2.326 . S
In533 O541 2.266 . S
In533 O542 2.326 . S
In533 O544 2.294 . S
In533 O545 2.326 . S
O534 In533 2.294 . S
O534 C543 1.240 . S
O535 In533 2.326 . S
O535 C543 1.252 . S
C536 O539 1.252 . S
C536 O540 1.260 . S
C537 O544 1.240 . S
C537 O545 1.252 . S
C538 O541 1.252 . S
C538 O542 1.260 . S
O539 In533 2.266 . S
O539 C536 1.252 . S
O540 In533 2.326 . S
O540 C536 1.260 . S
O541 In533 2.266 . S
O541 C538 1.252 . S
O542 In533 2.326 . S
O542 C538 1.260 . S
C543 O534 1.240 . S
C543 O535 1.252 . S
O544 In533 2.294 . S
O544 C537 1.240 . S
O545 In533 2.326 . S
O545 C537 1.252 . S
In546 O547 2.294 . S
In546 O548 2.326 . S
In546 O552 2.266 . S
In546 O553 2.326 . S
In546 O554 2.266 . S
In546 O555 2.326 . S
In546 O557 2.294 . S
In546 O558 2.326 . S
O547 In546 2.294 . S
O547 C556 1.240 . S
O548 In546 2.326 . S
O548 C556 1.252 . S
C549 O552 1.252 . S
C549 O553 1.260 . S
C550 O557 1.240 . S
C550 O558 1.252 . S
C551 O554 1.252 . S
C551 O555 1.260 . S
O552 In546 2.266 . S
O552 C549 1.252 . S
O553 In546 2.326 . S
O553 C549 1.260 . S
O554 In546 2.266 . S
O554 C551 1.252 . S
O555 In546 2.326 . S
O555 C551 1.260 . S
C556 O547 1.240 . S
C556 O548 1.252 . S
O557 In546 2.294 . S
O557 C550 1.240 . S
O558 In546 2.326 . S
O558 C550 1.252 . S
In559 O560 2.294 . S
In559 O561 2.326 . S
In559 O565 2.266 . S
In559 O566 2.326 . S
In559 O567 2.266 . S
In559 O568 2.326 . S
In559 O570 2.294 . S
In559 O571 2.326 . S
O560 In559 2.294 . S
O560 C569 1.240 . S
O561 In559 2.326 . S
O561 C569 1.252 . S
C562 O565 1.252 . S
C562 O566 1.260 . S
C563 O570 1.240 . S
C563 O571 1.252 . S
C564 O567 1.252 . S
C564 O568 1.260 . S
O565 In559 2.266 . S
O565 C562 1.252 . S
O566 In559 2.326 . S
O566 C562 1.260 . S
O567 In559 2.266 . S
O567 C564 1.252 . S
O568 In559 2.326 . S
O568 C564 1.260 . S
C569 O560 1.240 . S
C569 O561 1.252 . S
O570 In559 2.294 . S
O570 C563 1.240 . S
O571 In559 2.326 . S
O571 C563 1.252 . S
In572 O573 2.294 . S
In572 O574 2.326 . S
In572 O578 2.266 . S
In572 O579 2.326 . S
In572 O580 2.266 . S
In572 O581 2.326 . S
In572 O583 2.294 . S
In572 O584 2.326 . S
O573 In572 2.294 . S
O573 C582 1.240 . S
O574 In572 2.326 . S
O574 C582 1.252 . S
C575 O578 1.252 . S
C575 O579 1.260 . S
C576 O583 1.240 . S
C576 O584 1.252 . S
C577 O580 1.252 . S
C577 O581 1.260 . S
O578 In572 2.266 . S
O578 C575 1.252 . S
O579 In572 2.326 . S
O579 C575 1.260 . S
O580 In572 2.266 . S
O580 C577 1.252 . S
O581 In572 2.326 . S
O581 C577 1.260 . S
C582 O573 1.240 . S
C582 O574 1.252 . S
O583 In572 2.294 . S
O583 C576 1.240 . S
O584 In572 2.326 . S
O584 C576 1.252 . S
In585 O586 2.294 . S
In585 O587 2.326 . S
In585 O591 2.266 . S
In585 O592 2.326 . S
In585 O593 2.266 . S
In585 O594 2.326 . S
In585 O596 2.294 . S
In585 O597 2.326 . S
O586 In585 2.294 . S
O586 C595 1.240 . S
O587 In585 2.326 . S
O587 C595 1.252 . S
C588 O591 1.252 . S
C588 O592 1.260 . S
C589 O596 1.240 . S
C589 O597 1.252 . S
C590 O593 1.252 . S
C590 O594 1.260 . S
O591 In585 2.266 . S
O591 C588 1.252 . S
O592 In585 2.326 . S
O592 C588 1.260 . S
O593 In585 2.266 . S
O593 C590 1.252 . S
O594 In585 2.326 . S
O594 C590 1.260 . S
C595 O586 1.240 . S
C595 O587 1.252 . S
O596 In585 2.294 . S
O596 C589 1.240 . S
O597 In585 2.326 . S
O597 C589 1.252 . S
In598 O599 2.294 . S
In598 O600 2.326 . S
In598 O604 2.266 . S
In598 O605 2.326 . S
In598 O606 2.266 . S
In598 O607 2.326 . S
In598 O609 2.294 . S
In598 O610 2.326 . S
O599 In598 2.294 . S
O599 C608 1.240 . S
O600 In598 2.326 . S
O600 C608 1.252 . S
C601 O604 1.252 . S
C601 O605 1.260 . S
C602 O609 1.240 . S
C602 O610 1.252 . S
C603 O606 1.252 . S
C603 O607 1.260 . S
O604 In598 2.266 . S
O604 C601 1.252 . S
O605 In598 2.326 . S
O605 C601 1.260 . S
O606 In598 2.266 . S
O606 C603 1.252 . S
O607 In598 2.326 . S
O607 C603 1.260 . S
C608 O599 1.240 . S
C608 O600 1.252 . S
O609 In598 2.294 . S
O609 C602 1.240 . S
O610 In598 2.326 . S
O610 C602 1.252 . S
In611 O612 2.294 . S
In611 O613 2.326 . S
In611 O617 2.266 . S
In611 O618 2.326 . S
In611 O619 2.266 . S
In611 O620 2.326 . S
In611 O622 2.294 . S
In611 O623 2.326 . S
O612 In611 2.294 . S
O612 C621 1.240 . S
O613 In611 2.326 . S
O613 C621 1.252 . S
C614 O617 1.252 . S
C614 O618 1.260 . S
C615 O622 1.240 . S
C615 O623 1.252 . S
C616 O619 1.252 . S
C616 O620 1.260 . S
O617 In611 2.266 . S
O617 C614 1.252 . S
O618 In611 2.326 . S
O618 C614 1.260 . S
O619 In611 2.266 . S
O619 C616 1.252 . S
O620 In611 2.326 . S
O620 C616 1.260 . S
C621 O612 1.240 . S
C621 O613 1.252 . S
O622 In611 2.294 . S
O622 C615 1.240 . S
O623 In611 2.326 . S
O623 C615 1.252 . S
In624 O625 2.294 . S
In624 O626 2.326 . S
In624 O630 2.266 . S
In624 O631 2.326 . S
In624 O632 2.266 . S
In624 O633 2.326 . S
In624 O635 2.294 . S
In624 O636 2.326 . S
O625 In624 2.294 . S
O625 C634 1.240 . S
O626 In624 2.326 . S
O626 C634 1.252 . S
C627 O630 1.252 . S
C627 O631 1.260 . S
C628 O635 1.240 . S
C628 O636 1.252 . S
C629 O632 1.252 . S
C629 O633 1.260 . S
O630 In624 2.266 . S
O630 C627 1.252 . S
O631 In624 2.326 . S
O631 C627 1.260 . S
O632 In624 2.266 . S
O632 C629 1.252 . S
O633 In624 2.326 . S
O633 C629 1.260 . S
C634 O625 1.240 . S
C634 O626 1.252 . S
O635 In624 2.294 . S
O635 C628 1.240 . S
O636 In624 2.326 . S
O636 C628 1.252 . S
In637 O638 2.294 . S
In637 O639 2.326 . S
In637 O643 2.266 . S
In637 O644 2.326 . S
In637 O645 2.266 . S
In637 O646 2.326 . S
In637 O648 2.294 . S
In637 O649 2.326 . S
O638 In637 2.294 . S
O638 C647 1.240 . S
O639 In637 2.326 . S
O639 C647 1.252 . S
C640 O643 1.252 . S
C640 O644 1.260 . S
C641 O648 1.240 . S
C641 O649 1.252 . S
C642 O645 1.252 . S
C642 O646 1.260 . S
O643 In637 2.266 . S
O643 C640 1.252 . S
O644 In637 2.326 . S
O644 C640 1.260 . S
O645 In637 2.266 . S
O645 C642 1.252 . S
O646 In637 2.326 . S
O646 C642 1.260 . S
C647 O638 1.240 . S
C647 O639 1.252 . S
O648 In637 2.294 . S
O648 C641 1.240 . S
O649 In637 2.326 . S
O649 C641 1.252 . S
In650 O651 2.294 . S
In650 O652 2.326 . S
In650 O656 2.266 . S
In650 O657 2.326 . S
In650 O658 2.266 . S
In650 O659 2.326 . S
In650 O661 2.294 . S
In650 O662 2.326 . S
O651 In650 2.294 . S
O651 C660 1.240 . S
O652 In650 2.326 . S
O652 C660 1.252 . S
C653 O656 1.252 . S
C653 O657 1.260 . S
C654 O661 1.240 . S
C654 O662 1.252 . S
C655 O658 1.252 . S
C655 O659 1.260 . S
O656 In650 2.266 . S
O656 C653 1.252 . S
O657 In650 2.326 . S
O657 C653 1.260 . S
O658 In650 2.266 . S
O658 C655 1.252 . S
O659 In650 2.326 . S
O659 C655 1.260 . S
C660 O651 1.240 . S
C660 O652 1.252 . S
O661 In650 2.294 . S
O661 C654 1.240 . S
O662 In650 2.326 . S
O662 C654 1.252 . S
In663 O664 2.294 . S
In663 O665 2.326 . S
In663 O669 2.266 . S
In663 O670 2.326 . S
In663 O671 2.266 . S
In663 O672 2.326 . S
In663 O674 2.294 . S
In663 O675 2.326 . S
O664 In663 2.294 . S
O664 C673 1.240 . S
O665 In663 2.326 . S
O665 C673 1.252 . S
C666 O669 1.252 . S
C666 O670 1.260 . S
C667 O674 1.240 . S
C667 O675 1.252 . S
C668 O671 1.252 . S
C668 O672 1.260 . S
O669 In663 2.266 . S
O669 C666 1.252 . S
O670 In663 2.326 . S
O670 C666 1.260 . S
O671 In663 2.266 . S
O671 C668 1.252 . S
O672 In663 2.326 . S
O672 C668 1.260 . S
C673 O664 1.240 . S
C673 O665 1.252 . S
O674 In663 2.294 . S
O674 C667 1.240 . S
O675 In663 2.326 . S
O675 C667 1.252 . S
In676 O677 2.294 . S
In676 O678 2.326 . S
In676 O682 2.266 . S
In676 O683 2.326 . S
In676 O684 2.266 . S
In676 O685 2.326 . S
In676 O687 2.294 . S
In676 O688 2.326 . S
O677 In676 2.294 . S
O677 C686 1.240 . S
O678 In676 2.326 . S
O678 C686 1.252 . S
C679 O682 1.252 . S
C679 O683 1.260 . S
C680 O687 1.240 . S
C680 O688 1.252 . S
C681 O684 1.252 . S
C681 O685 1.260 . S
O682 In676 2.266 . S
O682 C679 1.252 . S
O683 In676 2.326 . S
O683 C679 1.260 . S
O684 In676 2.266 . S
O684 C681 1.252 . S
O685 In676 2.326 . S
O685 C681 1.260 . S
C686 O677 1.240 . S
C686 O678 1.252 . S
O687 In676 2.294 . S
O687 C680 1.240 . S
O688 In676 2.326 . S
O688 C680 1.252 . S
In689 O690 2.294 . S
In689 O691 2.326 . S
In689 O695 2.266 . S
In689 O696 2.326 . S
In689 O697 2.266 . S
In689 O698 2.326 . S
In689 O700 2.294 . S
In689 O701 2.326 . S
O690 In689 2.294 . S
O690 C699 1.240 . S
O691 In689 2.326 . S
O691 C699 1.252 . S
C692 O695 1.252 . S
C692 O696 1.260 . S
C693 O700 1.240 . S
C693 O701 1.252 . S
C694 O697 1.252 . S
C694 O698 1.260 . S
O695 In689 2.266 . S
O695 C692 1.252 . S
O696 In689 2.326 . S
O696 C692 1.260 . S
O697 In689 2.266 . S
O697 C694 1.252 . S
O698 In689 2.326 . S
O698 C694 1.260 . S
C699 O690 1.240 . S
C699 O691 1.252 . S
O700 In689 2.294 . S
O700 C693 1.240 . S
O701 In689 2.326 . S
O701 C693 1.252 . S
In702 O703 2.294 . S
In702 O704 2.326 . S
In702 O708 2.266 . S
In702 O709 2.326 . S
In702 O710 2.266 . S
In702 O711 2.326 . S
In702 O713 2.294 . S
In702 O714 2.326 . S
O703 In702 2.294 . S
O703 C712 1.240 . S
O704 In702 2.326 . S
O704 C712 1.252 . S
C705 O708 1.252 . S
C705 O709 1.260 . S
C706 O713 1.240 . S
C706 O714 1.252 . S
C707 O710 1.252 . S
C707 O711 1.260 . S
O708 In702 2.266 . S
O708 C705 1.252 . S
O709 In702 2.326 . S
O709 C705 1.260 . S
O710 In702 2.266 . S
O710 C707 1.252 . S
O711 In702 2.326 . S
O711 C707 1.260 . S
C712 O703 1.240 . S
C712 O704 1.252 . S
O713 In702 2.294 . S
O713 C706 1.240 . S
O714 In702 2.326 . S
O714 C706 1.252 . S
In715 O716 2.294 . S
In715 O717 2.326 . S
In715 O721 2.266 . S
In715 O722 2.326 . S
In715 O723 2.266 . S
In715 O724 2.326 . S
In715 O726 2.294 . S
In715 O727 2.326 . S
O716 In715 2.294 . S
O716 C725 1.240 . S
O717 In715 2.326 . S
O717 C725 1.252 . S
C718 O721 1.252 . S
C718 O722 1.260 . S
C719 O726 1.240 . S
C719 O727 1.252 . S
C720 O723 1.252 . S
C720 O724 1.260 . S
O721 In715 2.266 . S
O721 C718 1.252 . S
O722 In715 2.326 . S
O722 C718 1.260 . S
O723 In715 2.266 . S
O723 C720 1.252 . S
O724 In715 2.326 . S
O724 C720 1.260 . S
C725 O716 1.240 . S
C725 O717 1.252 . S
O726 In715 2.294 . S
O726 C719 1.240 . S
O727 In715 2.326 . S
O727 C719 1.252 . S
In728 O729 2.294 . S
In728 O730 2.326 . S
In728 O734 2.266 . S
In728 O735 2.326 . S
In728 O736 2.266 . S
In728 O737 2.326 . S
In728 O739 2.294 . S
In728 O740 2.326 . S
O729 In728 2.294 . S
O729 C738 1.240 . S
O730 In728 2.326 . S
O730 C738 1.252 . S
C731 O734 1.252 . S
C731 O735 1.260 . S
C732 O739 1.240 . S
C732 O740 1.252 . S
C733 O736 1.252 . S
C733 O737 1.260 . S
O734 In728 2.266 . S
O734 C731 1.252 . S
O735 In728 2.326 . S
O735 C731 1.260 . S
O736 In728 2.266 . S
O736 C733 1.252 . S
O737 In728 2.326 . S
O737 C733 1.260 . S
C738 O729 1.240 . S
C738 O730 1.252 . S
O739 In728 2.294 . S
O739 C732 1.240 . S
O740 In728 2.326 . S
O740 C732 1.252 . S
In741 O742 2.294 . S
In741 O743 2.326 . S
In741 O747 2.266 . S
In741 O748 2.326 . S
In741 O749 2.266 . S
In741 O750 2.326 . S
In741 O752 2.294 . S
In741 O753 2.326 . S
O742 In741 2.294 . S
O742 C751 1.240 . S
O743 In741 2.326 . S
O743 C751 1.252 . S
C744 O747 1.252 . S
C744 O748 1.260 . S
C745 O752 1.240 . S
C745 O753 1.252 . S
C746 O749 1.252 . S
C746 O750 1.260 . S
O747 In741 2.266 . S
O747 C744 1.252 . S
O748 In741 2.326 . S
O748 C744 1.260 . S
O749 In741 2.266 . S
O749 C746 1.252 . S
O750 In741 2.326 . S
O750 C746 1.260 . S
C751 O742 1.240 . S
C751 O743 1.252 . S
O752 In741 2.294 . S
O752 C745 1.240 . S
O753 In741 2.326 . S
O753 C745 1.252 . S
In754 O755 2.294 . S
In754 O756 2.326 . S
In754 O760 2.266 . S
In754 O761 2.326 . S
In754 O762 2.266 . S
In754 O763 2.326 . S
In754 O765 2.294 . S
In754 O766 2.326 . S
O755 In754 2.294 . S
O755 C764 1.240 . S
O756 In754 2.326 . S
O756 C764 1.252 . S
C757 O760 1.252 . S
C757 O761 1.260 . S
C758 O765 1.240 . S
C758 O766 1.252 . S
C759 O762 1.252 . S
C759 O763 1.260 . S
O760 In754 2.266 . S
O760 C757 1.252 . S
O761 In754 2.326 . S
O761 C757 1.260 . S
O762 In754 2.266 . S
O762 C759 1.252 . S
O763 In754 2.326 . S
O763 C759 1.260 . S
C764 O755 1.240 . S
C764 O756 1.252 . S
O765 In754 2.294 . S
O765 C758 1.240 . S
O766 In754 2.326 . S
O766 C758 1.252 . S
In767 O768 2.294 . S
In767 O769 2.326 . S
In767 O773 2.266 . S
In767 O774 2.326 . S
In767 O775 2.266 . S
In767 O776 2.326 . S
In767 O778 2.294 . S
In767 O779 2.326 . S
O768 In767 2.294 . S
O768 C777 1.240 . S
O769 In767 2.326 . S
O769 C777 1.252 . S
C770 O773 1.252 . S
C770 O774 1.260 . S
C771 O778 1.240 . S
C771 O779 1.252 . S
C772 O775 1.252 . S
C772 O776 1.260 . S
O773 In767 2.266 . S
O773 C770 1.252 . S
O774 In767 2.326 . S
O774 C770 1.260 . S
O775 In767 2.266 . S
O775 C772 1.252 . S
O776 In767 2.326 . S
O776 C772 1.260 . S
C777 O768 1.240 . S
C777 O769 1.252 . S
O778 In767 2.294 . S
O778 C771 1.240 . S
O779 In767 2.326 . S
O779 C771 1.252 . S
In780 O781 2.294 . S
In780 O782 2.326 . S
In780 O786 2.266 . S
In780 O787 2.326 . S
In780 O788 2.266 . S
In780 O789 2.326 . S
In780 O791 2.294 . S
In780 O792 2.326 . S
O781 In780 2.294 . S
O781 C790 1.240 . S
O782 In780 2.326 . S
O782 C790 1.252 . S
C783 O786 1.252 . S
C783 O787 1.260 . S
C784 O791 1.240 . S
C784 O792 1.252 . S
C785 O788 1.252 . S
C785 O789 1.260 . S
O786 In780 2.266 . S
O786 C783 1.252 . S
O787 In780 2.326 . S
O787 C783 1.260 . S
O788 In780 2.266 . S
O788 C785 1.252 . S
O789 In780 2.326 . S
O789 C785 1.260 . S
C790 O781 1.240 . S
C790 O782 1.252 . S
O791 In780 2.294 . S
O791 C784 1.240 . S
O792 In780 2.326 . S
O792 C784 1.252 . S
In793 O794 2.294 . S
In793 O795 2.326 . S
In793 O799 2.266 . S
In793 O800 2.326 . S
In793 O801 2.266 . S
In793 O802 2.326 . S
In793 O804 2.294 . S
In793 O805 2.326 . S
O794 In793 2.294 . S
O794 C803 1.240 . S
O795 In793 2.326 . S
O795 C803 1.252 . S
C796 O799 1.252 . S
C796 O800 1.260 . S
C797 O804 1.240 . S
C797 O805 1.252 . S
C798 O801 1.252 . S
C798 O802 1.260 . S
O799 In793 2.266 . S
O799 C796 1.252 . S
O800 In793 2.326 . S
O800 C796 1.260 . S
O801 In793 2.266 . S
O801 C798 1.252 . S
O802 In793 2.326 . S
O802 C798 1.260 . S
C803 O794 1.240 . S
C803 O795 1.252 . S
O804 In793 2.294 . S
O804 C797 1.240 . S
O805 In793 2.326 . S
O805 C797 1.252 . S
In806 O807 2.294 . S
In806 O808 2.326 . S
In806 O812 2.266 . S
In806 O813 2.326 . S
In806 O814 2.266 . S
In806 O815 2.326 . S
In806 O817 2.294 . S
In806 O818 2.326 . S
O807 In806 2.294 . S
O807 C816 1.240 . S
O808 In806 2.326 . S
O808 C816 1.252 . S
C809 O812 1.252 . S
C809 O813 1.260 . S
C810 O817 1.240 . S
C810 O818 1.252 . S
C811 O814 1.252 . S
C811 O815 1.260 . S
O812 In806 2.266 . S
O812 C809 1.252 . S
O813 In806 2.326 . S
O813 C809 1.260 . S
O814 In806 2.266 . S
O814 C811 1.252 . S
O815 In806 2.326 . S
O815 C811 1.260 . S
C816 O807 1.240 . S
C816 O808 1.252 . S
O817 In806 2.294 . S
O817 C810 1.240 . S
O818 In806 2.326 . S
O818 C810 1.252 . S
In819 O820 2.294 . S
In819 O821 2.326 . S
In819 O825 2.266 . S
In819 O826 2.326 . S
In819 O827 2.266 . S
In819 O828 2.326 . S
In819 O830 2.294 . S
In819 O831 2.326 . S
O820 In819 2.294 . S
O820 C829 1.240 . S
O821 In819 2.326 . S
O821 C829 1.252 . S
C822 O825 1.252 . S
C822 O826 1.260 . S
C823 O830 1.240 . S
C823 O831 1.252 . S
C824 O827 1.252 . S
C824 O828 1.260 . S
O825 In819 2.266 . S
O825 C822 1.252 . S
O826 In819 2.326 . S
O826 C822 1.260 . S
O827 In819 2.266 . S
O827 C824 1.252 . S
O828 In819 2.326 . S
O828 C824 1.260 . S
C829 O820 1.240 . S
C829 O821 1.252 . S
O830 In819 2.294 . S
O830 C823 1.240 . S
O831 In819 2.326 . S
O831 C823 1.252 . S
In832 O833 2.294 . S
In832 O834 2.326 . S
In832 O838 2.266 . S
In832 O839 2.326 . S
In832 O840 2.266 . S
In832 O841 2.326 . S
In832 O843 2.294 . S
In832 O844 2.326 . S
O833 In832 2.294 . S
O833 C842 1.240 . S
O834 In832 2.326 . S
O834 C842 1.252 . S
C835 O838 1.252 . S
C835 O839 1.260 . S
C836 O843 1.240 . S
C836 O844 1.252 . S
C837 O840 1.252 . S
C837 O841 1.260 . S
O838 In832 2.266 . S
O838 C835 1.252 . S
O839 In832 2.326 . S
O839 C835 1.260 . S
O840 In832 2.266 . S
O840 C837 1.252 . S
O841 In832 2.326 . S
O841 C837 1.260 . S
C842 O833 1.240 . S
C842 O834 1.252 . S
O843 In832 2.294 . S
O843 C836 1.240 . S
O844 In832 2.326 . S
O844 C836 1.252 . S
In845 O846 2.294 . S
In845 O847 2.326 . S
In845 O851 2.266 . S
In845 O852 2.326 . S
In845 O853 2.266 . S
In845 O854 2.326 . S
In845 O856 2.294 . S
In845 O857 2.326 . S
O846 In845 2.294 . S
O846 C855 1.240 . S
O847 In845 2.326 . S
O847 C855 1.252 . S
C848 O851 1.252 . S
C848 O852 1.260 . S
C849 O856 1.240 . S
C849 O857 1.252 . S
C850 O853 1.252 . S
C850 O854 1.260 . S
O851 In845 2.266 . S
O851 C848 1.252 . S
O852 In845 2.326 . S
O852 C848 1.260 . S
O853 In845 2.266 . S
O853 C850 1.252 . S
O854 In845 2.326 . S
O854 C850 1.260 . S
C855 O846 1.240 . S
C855 O847 1.252 . S
O856 In845 2.294 . S
O856 C849 1.240 . S
O857 In845 2.326 . S
O857 C849 1.252 . S
In858 O859 2.294 . S
In858 O860 2.326 . S
In858 O864 2.266 . S
In858 O865 2.326 . S
In858 O866 2.266 . S
In858 O867 2.326 . S
In858 O869 2.294 . S
In858 O870 2.326 . S
O859 In858 2.294 . S
O859 C868 1.240 . S
O860 In858 2.326 . S
O860 C868 1.252 . S
C861 O864 1.252 . S
C861 O865 1.260 . S
C862 O869 1.240 . S
C862 O870 1.252 . S
C863 O866 1.252 . S
C863 O867 1.260 . S
O864 In858 2.266 . S
O864 C861 1.252 . S
O865 In858 2.326 . S
O865 C861 1.260 . S
O866 In858 2.266 . S
O866 C863 1.252 . S
O867 In858 2.326 . S
O867 C863 1.260 . S
C868 O859 1.240 . S
C868 O860 1.252 . S
O869 In858 2.294 . S
O869 C862 1.240 . S
O870 In858 2.326 . S
O870 C862 1.252 . S
In871 O872 2.294 . S
In871 O873 2.326 . S
In871 O877 2.266 . S
In871 O878 2.326 . S
In871 O879 2.266 . S
In871 O880 2.326 . S
In871 O882 2.294 . S
In871 O883 2.326 . S
O872 In871 2.294 . S
O872 C881 1.240 . S
O873 In871 2.326 . S
O873 C881 1.252 . S
C874 O877 1.252 . S
C874 O878 1.260 . S
C875 O882 1.240 . S
C875 O883 1.252 . S
C876 O879 1.252 . S
C876 O880 1.260 . S
O877 In871 2.266 . S
O877 C874 1.252 . S
O878 In871 2.326 . S
O878 C874 1.260 . S
O879 In871 2.266 . S
O879 C876 1.252 . S
O880 In871 2.326 . S
O880 C876 1.260 . S
C881 O872 1.240 . S
C881 O873 1.252 . S
O882 In871 2.294 . S
O882 C875 1.240 . S
O883 In871 2.326 . S
O883 C875 1.252 . S
In884 O885 2.294 . S
In884 O886 2.326 . S
In884 O890 2.266 . S
In884 O891 2.326 . S
In884 O892 2.266 . S
In884 O893 2.326 . S
In884 O895 2.294 . S
In884 O896 2.326 . S
O885 In884 2.294 . S
O885 C894 1.240 . S
O886 In884 2.326 . S
O886 C894 1.252 . S
C887 O890 1.252 . S
C887 O891 1.260 . S
C888 O895 1.240 . S
C888 O896 1.252 . S
C889 O892 1.252 . S
C889 O893 1.260 . S
O890 In884 2.266 . S
O890 C887 1.252 . S
O891 In884 2.326 . S
O891 C887 1.260 . S
O892 In884 2.266 . S
O892 C889 1.252 . S
O893 In884 2.326 . S
O893 C889 1.260 . S
C894 O885 1.240 . S
C894 O886 1.252 . S
O895 In884 2.294 . S
O895 C888 1.240 . S
O896 In884 2.326 . S
O896 C888 1.252 . S
In897 O898 2.294 . S
In897 O899 2.326 . S
In897 O903 2.266 . S
In897 O904 2.326 . S
In897 O905 2.266 . S
In897 O906 2.326 . S
In897 O908 2.294 . S
In897 O909 2.326 . S
O898 In897 2.294 . S
O898 C907 1.240 . S
O899 In897 2.326 . S
O899 C907 1.252 . S
C900 O903 1.252 . S
C900 O904 1.260 . S
C901 O908 1.240 . S
C901 O909 1.252 . S
C902 O905 1.252 . S
C902 O906 1.260 . S
O903 In897 2.266 . S
O903 C900 1.252 . S
O904 In897 2.326 . S
O904 C900 1.260 . S
O905 In897 2.266 . S
O905 C902 1.252 . S
O906 In897 2.326 . S
O906 C902 1.260 . S
C907 O898 1.240 . S
C907 O899 1.252 . S
O908 In897 2.294 . S
O908 C901 1.240 . S
O909 In897 2.326 . S
O909 C901 1.252 . S
In910 O911 2.294 . S
In910 O912 2.326 . S
In910 O916 2.266 . S
In910 O917 2.326 . S
In910 O918 2.266 . S
In910 O919 2.326 . S
In910 O921 2.294 . S
In910 O922 2.326 . S
O911 In910 2.294 . S
O911 C920 1.240 . S
O912 In910 2.326 . S
O912 C920 1.252 . S
C913 O916 1.252 . S
C913 O917 1.260 . S
C914 O921 1.240 . S
C914 O922 1.252 . S
C915 O918 1.252 . S
C915 O919 1.260 . S
O916 In910 2.266 . S
O916 C913 1.252 . S
O917 In910 2.326 . S
O917 C913 1.260 . S
O918 In910 2.266 . S
O918 C915 1.252 . S
O919 In910 2.326 . S
O919 C915 1.260 . S
C920 O911 1.240 . S
C920 O912 1.252 . S
O921 In910 2.294 . S
O921 C914 1.240 . S
O922 In910 2.326 . S
O922 C914 1.252 . S
In923 O924 2.294 . S
In923 O925 2.326 . S
In923 O929 2.266 . S
In923 O930 2.326 . S
In923 O931 2.266 . S
In923 O932 2.326 . S
In923 O934 2.294 . S
In923 O935 2.326 . S
O924 In923 2.294 . S
O924 C933 1.240 . S
O925 In923 2.326 . S
O925 C933 1.252 . S
C926 O929 1.252 . S
C926 O930 1.260 . S
C927 O934 1.240 . S
C927 O935 1.252 . S
C928 O931 1.252 . S
C928 O932 1.260 . S
O929 In923 2.266 . S
O929 C926 1.252 . S
O930 In923 2.326 . S
O930 C926 1.260 . S
O931 In923 2.266 . S
O931 C928 1.252 . S
O932 In923 2.326 . S
O932 C928 1.260 . S
C933 O924 1.240 . S
C933 O925 1.252 . S
O934 In923 2.294 . S
O934 C927 1.240 . S
O935 In923 2.326 . S
O935 C927 1.252 . S
In936 O937 2.294 . S
In936 O938 2.326 . S
In936 O942 2.266 . S
In936 O943 2.326 . S
In936 O944 2.266 . S
In936 O945 2.326 . S
In936 O947 2.294 . S
In936 O948 2.326 . S
O937 In936 2.294 . S
O937 C946 1.240 . S
O938 In936 2.326 . S
O938 C946 1.252 . S
C939 O942 1.252 . S
C939 O943 1.260 . S
C940 O947 1.240 . S
C940 O948 1.252 . S
C941 O944 1.252 . S
C941 O945 1.260 . S
O942 In936 2.266 . S
O942 C939 1.252 . S
O943 In936 2.326 . S
O943 C939 1.260 . S
O944 In936 2.266 . S
O944 C941 1.252 . S
O945 In936 2.326 . S
O945 C941 1.260 . S
C946 O937 1.240 . S
C946 O938 1.252 . S
O947 In936 2.294 . S
O947 C940 1.240 . S
O948 In936 2.326 . S
O948 C940 1.252 . S
In949 O950 2.294 . S
In949 O951 2.326 . S
In949 O955 2.266 . S
In949 O956 2.326 . S
In949 O957 2.266 . S
In949 O958 2.326 . S
In949 O960 2.294 . S
In949 O961 2.326 . S
O950 In949 2.294 . S
O950 C959 1.240 . S
O951 In949 2.326 . S
O951 C959 1.252 . S
C952 O955 1.252 . S
C952 O956 1.260 . S
C953 O960 1.240 . S
C953 O961 1.252 . S
C954 O957 1.252 . S
C954 O958 1.260 . S
O955 In949 2.266 . S
O955 C952 1.252 . S
O956 In949 2.326 . S
O956 C952 1.260 . S
O957 In949 2.266 . S
O957 C954 1.252 . S
O958 In949 2.326 . S
O958 C954 1.260 . S
C959 O950 1.240 . S
C959 O951 1.252 . S
O960 In949 2.294 . S
O960 C953 1.240 . S
O961 In949 2.326 . S
O961 C953 1.252 . S
In962 O963 2.294 . S
In962 O964 2.326 . S
In962 O968 2.266 . S
In962 O969 2.326 . S
In962 O970 2.266 . S
In962 O971 2.326 . S
In962 O973 2.294 . S
In962 O974 2.326 . S
O963 In962 2.294 . S
O963 C972 1.240 . S
O964 In962 2.326 . S
O964 C972 1.252 . S
C965 O968 1.252 . S
C965 O969 1.260 . S
C966 O973 1.240 . S
C966 O974 1.252 . S
C967 O970 1.252 . S
C967 O971 1.260 . S
O968 In962 2.266 . S
O968 C965 1.252 . S
O969 In962 2.326 . S
O969 C965 1.260 . S
O970 In962 2.266 . S
O970 C967 1.252 . S
O971 In962 2.326 . S
O971 C967 1.260 . S
C972 O963 1.240 . S
C972 O964 1.252 . S
O973 In962 2.294 . S
O973 C966 1.240 . S
O974 In962 2.326 . S
O974 C966 1.252 . S
In975 O976 2.294 . S
In975 O977 2.326 . S
In975 O981 2.266 . S
In975 O982 2.326 . S
In975 O983 2.266 . S
In975 O984 2.326 . S
In975 O986 2.294 . S
In975 O987 2.326 . S
O976 In975 2.294 . S
O976 C985 1.240 . S
O977 In975 2.326 . S
O977 C985 1.252 . S
C978 O981 1.252 . S
C978 O982 1.260 . S
C979 O986 1.240 . S
C979 O987 1.252 . S
C980 O983 1.252 . S
C980 O984 1.260 . S
O981 In975 2.266 . S
O981 C978 1.252 . S
O982 In975 2.326 . S
O982 C978 1.260 . S
O983 In975 2.266 . S
O983 C980 1.252 . S
O984 In975 2.326 . S
O984 C980 1.260 . S
C985 O976 1.240 . S
C985 O977 1.252 . S
O986 In975 2.294 . S
O986 C979 1.240 . S
O987 In975 2.326 . S
O987 C979 1.252 . S
In988 O989 2.294 . S
In988 O990 2.326 . S
In988 O994 2.266 . S
In988 O995 2.326 . S
In988 O996 2.266 . S
In988 O997 2.326 . S
In988 O999 2.294 . S
In988 O1000 2.326 . S
O989 In988 2.294 . S
O989 C998 1.240 . S
O990 In988 2.326 . S
O990 C998 1.252 . S
C991 O994 1.252 . S
C991 O995 1.260 . S
C992 O999 1.240 . S
C992 O1000 1.252 . S
C993 O996 1.252 . S
C993 O997 1.260 . S
O994 In988 2.266 . S
O994 C991 1.252 . S
O995 In988 2.326 . S
O995 C991 1.260 . S
O996 In988 2.266 . S
O996 C993 1.252 . S
O997 In988 2.326 . S
O997 C993 1.260 . S
C998 O989 1.240 . S
C998 O990 1.252 . S
O999 In988 2.294 . S
O999 C992 1.240 . S
O1000 In988 2.326 . S
O1000 C992 1.252 . S
In1001 O1002 2.294 . S
In1001 O1003 2.326 . S
In1001 O1007 2.266 . S
In1001 O1008 2.326 . S
In1001 O1009 2.266 . S
In1001 O1010 2.326 . S
In1001 O1012 2.294 . S
In1001 O1013 2.326 . S
O1002 In1001 2.294 . S
O1002 C1011 1.240 . S
O1003 In1001 2.326 . S
O1003 C1011 1.252 . S
C1004 O1007 1.252 . S
C1004 O1008 1.260 . S
C1005 O1012 1.240 . S
C1005 O1013 1.252 . S
C1006 O1009 1.252 . S
C1006 O1010 1.260 . S
O1007 In1001 2.266 . S
O1007 C1004 1.252 . S
O1008 In1001 2.326 . S
O1008 C1004 1.260 . S
O1009 In1001 2.266 . S
O1009 C1006 1.252 . S
O1010 In1001 2.326 . S
O1010 C1006 1.260 . S
C1011 O1002 1.240 . S
C1011 O1003 1.252 . S
O1012 In1001 2.294 . S
O1012 C1005 1.240 . S
O1013 In1001 2.326 . S
O1013 C1005 1.252 . S
In1014 O1015 2.294 . S
In1014 O1016 2.326 . S
In1014 O1020 2.266 . S
In1014 O1021 2.326 . S
In1014 O1022 2.266 . S
In1014 O1023 2.326 . S
In1014 O1025 2.294 . S
In1014 O1026 2.326 . S
O1015 In1014 2.294 . S
O1015 C1024 1.240 . S
O1016 In1014 2.326 . S
O1016 C1024 1.252 . S
C1017 O1020 1.252 . S
C1017 O1021 1.260 . S
C1018 O1025 1.240 . S
C1018 O1026 1.252 . S
C1019 O1022 1.252 . S
C1019 O1023 1.260 . S
O1020 In1014 2.266 . S
O1020 C1017 1.252 . S
O1021 In1014 2.326 . S
O1021 C1017 1.260 . S
O1022 In1014 2.266 . S
O1022 C1019 1.252 . S
O1023 In1014 2.326 . S
O1023 C1019 1.260 . S
C1024 O1015 1.240 . S
C1024 O1016 1.252 . S
O1025 In1014 2.294 . S
O1025 C1018 1.240 . S
O1026 In1014 2.326 . S
O1026 C1018 1.252 . S
In1027 O1028 2.294 . S
In1027 O1029 2.326 . S
In1027 O1033 2.266 . S
In1027 O1034 2.326 . S
In1027 O1035 2.266 . S
In1027 O1036 2.326 . S
In1027 O1038 2.294 . S
In1027 O1039 2.326 . S
O1028 In1027 2.294 . S
O1028 C1037 1.240 . S
O1029 In1027 2.326 . S
O1029 C1037 1.252 . S
C1030 O1033 1.252 . S
C1030 O1034 1.260 . S
C1031 O1038 1.240 . S
C1031 O1039 1.252 . S
C1032 O1035 1.252 . S
C1032 O1036 1.260 . S
O1033 In1027 2.266 . S
O1033 C1030 1.252 . S
O1034 In1027 2.326 . S
O1034 C1030 1.260 . S
O1035 In1027 2.266 . S
O1035 C1032 1.252 . S
O1036 In1027 2.326 . S
O1036 C1032 1.260 . S
C1037 O1028 1.240 . S
C1037 O1029 1.252 . S
O1038 In1027 2.294 . S
O1038 C1031 1.240 . S
O1039 In1027 2.326 . S
O1039 C1031 1.252 . S
In1040 O1041 2.294 . S
In1040 O1042 2.326 . S
In1040 O1046 2.266 . S
In1040 O1047 2.326 . S
In1040 O1048 2.266 . S
In1040 O1049 2.326 . S
In1040 O1051 2.294 . S
In1040 O1052 2.326 . S
O1041 In1040 2.294 . S
O1041 C1050 1.240 . S
O1042 In1040 2.326 . S
O1042 C1050 1.252 . S
C1043 O1046 1.252 . S
C1043 O1047 1.260 . S
C1044 O1051 1.240 . S
C1044 O1052 1.252 . S
C1045 O1048 1.252 . S
C1045 O1049 1.260 . S
O1046 In1040 2.266 . S
O1046 C1043 1.252 . S
O1047 In1040 2.326 . S
O1047 C1043 1.260 . S
O1048 In1040 2.266 . S
O1048 C1045 1.252 . S
O1049 In1040 2.326 . S
O1049 C1045 1.260 . S
C1050 O1041 1.240 . S
C1050 O1042 1.252 . S
O1051 In1040 2.294 . S
O1051 C1044 1.240 . S
O1052 In1040 2.326 . S
O1052 C1044 1.252 . S
In1053 O1054 2.294 . S
In1053 O1055 2.326 . S
In1053 O1059 2.266 . S
In1053 O1060 2.326 . S
In1053 O1061 2.266 . S
In1053 O1062 2.326 . S
In1053 O1064 2.294 . S
In1053 O1065 2.326 . S
O1054 In1053 2.294 . S
O1054 C1063 1.240 . S
O1055 In1053 2.326 . S
O1055 C1063 1.252 . S
C1056 O1059 1.252 . S
C1056 O1060 1.260 . S
C1057 O1064 1.240 . S
C1057 O1065 1.252 . S
C1058 O1061 1.252 . S
C1058 O1062 1.260 . S
O1059 In1053 2.266 . S
O1059 C1056 1.252 . S
O1060 In1053 2.326 . S
O1060 C1056 1.260 . S
O1061 In1053 2.266 . S
O1061 C1058 1.252 . S
O1062 In1053 2.326 . S
O1062 C1058 1.260 . S
C1063 O1054 1.240 . S
C1063 O1055 1.252 . S
O1064 In1053 2.294 . S
O1064 C1057 1.240 . S
O1065 In1053 2.326 . S
O1065 C1057 1.252 . S
In1066 O1067 2.294 . S
In1066 O1068 2.326 . S
In1066 O1072 2.266 . S
In1066 O1073 2.326 . S
In1066 O1074 2.266 . S
In1066 O1075 2.326 . S
In1066 O1077 2.294 . S
In1066 O1078 2.326 . S
O1067 In1066 2.294 . S
O1067 C1076 1.240 . S
O1068 In1066 2.326 . S
O1068 C1076 1.252 . S
C1069 O1072 1.252 . S
C1069 O1073 1.260 . S
C1070 O1077 1.240 . S
C1070 O1078 1.252 . S
C1071 O1074 1.252 . S
C1071 O1075 1.260 . S
O1072 In1066 2.266 . S
O1072 C1069 1.252 . S
O1073 In1066 2.326 . S
O1073 C1069 1.260 . S
O1074 In1066 2.266 . S
O1074 C1071 1.252 . S
O1075 In1066 2.326 . S
O1075 C1071 1.260 . S
C1076 O1067 1.240 . S
C1076 O1068 1.252 . S
O1077 In1066 2.294 . S
O1077 C1070 1.240 . S
O1078 In1066 2.326 . S
O1078 C1070 1.252 . S
In1079 O1080 2.294 . S
In1079 O1081 2.326 . S
In1079 O1085 2.266 . S
In1079 O1086 2.326 . S
In1079 O1087 2.266 . S
In1079 O1088 2.326 . S
In1079 O1090 2.294 . S
In1079 O1091 2.326 . S
O1080 In1079 2.294 . S
O1080 C1089 1.240 . S
O1081 In1079 2.326 . S
O1081 C1089 1.252 . S
C1082 O1085 1.252 . S
C1082 O1086 1.260 . S
C1083 O1090 1.240 . S
C1083 O1091 1.252 . S
C1084 O1087 1.252 . S
C1084 O1088 1.260 . S
O1085 In1079 2.266 . S
O1085 C1082 1.252 . S
O1086 In1079 2.326 . S
O1086 C1082 1.260 . S
O1087 In1079 2.266 . S
O1087 C1084 1.252 . S
O1088 In1079 2.326 . S
O1088 C1084 1.260 . S
C1089 O1080 1.240 . S
C1089 O1081 1.252 . S
O1090 In1079 2.294 . S
O1090 C1083 1.240 . S
O1091 In1079 2.326 . S
O1091 C1083 1.252 . S
In1092 O1093 2.294 . S
In1092 O1094 2.326 . S
In1092 O1098 2.266 . S
In1092 O1099 2.326 . S
In1092 O1100 2.266 . S
In1092 O1101 2.326 . S
In1092 O1103 2.294 . S
In1092 O1104 2.326 . S
O1093 In1092 2.294 . S
O1093 C1102 1.240 . S
O1094 In1092 2.326 . S
O1094 C1102 1.252 . S
C1095 O1098 1.252 . S
C1095 O1099 1.260 . S
C1096 O1103 1.240 . S
C1096 O1104 1.252 . S
C1097 O1100 1.252 . S
C1097 O1101 1.260 . S
O1098 In1092 2.266 . S
O1098 C1095 1.252 . S
O1099 In1092 2.326 . S
O1099 C1095 1.260 . S
O1100 In1092 2.266 . S
O1100 C1097 1.252 . S
O1101 In1092 2.326 . S
O1101 C1097 1.260 . S
C1102 O1093 1.240 . S
C1102 O1094 1.252 . S
O1103 In1092 2.294 . S
O1103 C1096 1.240 . S
O1104 In1092 2.326 . S
O1104 C1096 1.252 . S
In1105 O1106 2.294 . S
In1105 O1107 2.326 . S
In1105 O1111 2.266 . S
In1105 O1112 2.326 . S
In1105 O1113 2.266 . S
In1105 O1114 2.326 . S
In1105 O1116 2.294 . S
In1105 O1117 2.326 . S
O1106 In1105 2.294 . S
O1106 C1115 1.240 . S
O1107 In1105 2.326 . S
O1107 C1115 1.252 . S
C1108 O1111 1.252 . S
C1108 O1112 1.260 . S
C1109 O1116 1.240 . S
C1109 O1117 1.252 . S
C1110 O1113 1.252 . S
C1110 O1114 1.260 . S
O1111 In1105 2.266 . S
O1111 C1108 1.252 . S
O1112 In1105 2.326 . S
O1112 C1108 1.260 . S
O1113 In1105 2.266 . S
O1113 C1110 1.252 . S
O1114 In1105 2.326 . S
O1114 C1110 1.260 . S
C1115 O1106 1.240 . S
C1115 O1107 1.252 . S
O1116 In1105 2.294 . S
O1116 C1109 1.240 . S
O1117 In1105 2.326 . S
O1117 C1109 1.252 . S
In1118 O1119 2.294 . S
In1118 O1120 2.326 . S
In1118 O1124 2.266 . S
In1118 O1125 2.326 . S
In1118 O1126 2.266 . S
In1118 O1127 2.326 . S
In1118 O1129 2.294 . S
In1118 O1130 2.326 . S
O1119 In1118 2.294 . S
O1119 C1128 1.240 . S
O1120 In1118 2.326 . S
O1120 C1128 1.252 . S
C1121 O1124 1.252 . S
C1121 O1125 1.260 . S
C1122 O1129 1.240 . S
C1122 O1130 1.252 . S
C1123 O1126 1.252 . S
C1123 O1127 1.260 . S
O1124 In1118 2.266 . S
O1124 C1121 1.252 . S
O1125 In1118 2.326 . S
O1125 C1121 1.260 . S
O1126 In1118 2.266 . S
O1126 C1123 1.252 . S
O1127 In1118 2.326 . S
O1127 C1123 1.260 . S
C1128 O1119 1.240 . S
C1128 O1120 1.252 . S
O1129 In1118 2.294 . S
O1129 C1122 1.240 . S
O1130 In1118 2.326 . S
O1130 C1122 1.252 . S
In1131 O1132 2.294 . S
In1131 O1133 2.326 . S
In1131 O1137 2.266 . S
In1131 O1138 2.326 . S
In1131 O1139 2.266 . S
In1131 O1140 2.326 . S
In1131 O1142 2.294 . S
In1131 O1143 2.326 . S
O1132 In1131 2.294 . S
O1132 C1141 1.240 . S
O1133 In1131 2.326 . S
O1133 C1141 1.252 . S
C1134 O1137 1.252 . S
C1134 O1138 1.260 . S
C1135 O1142 1.240 . S
C1135 O1143 1.252 . S
C1136 O1139 1.252 . S
C1136 O1140 1.260 . S
O1137 In1131 2.266 . S
O1137 C1134 1.252 . S
O1138 In1131 2.326 . S
O1138 C1134 1.260 . S
O1139 In1131 2.266 . S
O1139 C1136 1.252 . S
O1140 In1131 2.326 . S
O1140 C1136 1.260 . S
C1141 O1132 1.240 . S
C1141 O1133 1.252 . S
O1142 In1131 2.294 . S
O1142 C1135 1.240 . S
O1143 In1131 2.326 . S
O1143 C1135 1.252 . S
In1144 O1145 2.294 . S
In1144 O1146 2.326 . S
In1144 O1150 2.266 . S
In1144 O1151 2.326 . S
In1144 O1152 2.266 . S
In1144 O1153 2.326 . S
In1144 O1155 2.294 . S
In1144 O1156 2.326 . S
O1145 In1144 2.294 . S
O1145 C1154 1.240 . S
O1146 In1144 2.326 . S
O1146 C1154 1.252 . S
C1147 O1150 1.252 . S
C1147 O1151 1.260 . S
C1148 O1155 1.240 . S
C1148 O1156 1.252 . S
C1149 O1152 1.252 . S
C1149 O1153 1.260 . S
O1150 In1144 2.266 . S
O1150 C1147 1.252 . S
O1151 In1144 2.326 . S
O1151 C1147 1.260 . S
O1152 In1144 2.266 . S
O1152 C1149 1.252 . S
O1153 In1144 2.326 . S
O1153 C1149 1.260 . S
C1154 O1145 1.240 . S
C1154 O1146 1.252 . S
O1155 In1144 2.294 . S
O1155 C1148 1.240 . S
O1156 In1144 2.326 . S
O1156 C1148 1.252 . S
In1157 O1158 2.294 . S
In1157 O1159 2.326 . S
In1157 O1163 2.266 . S
In1157 O1164 2.326 . S
In1157 O1165 2.266 . S
In1157 O1166 2.326 . S
In1157 O1168 2.294 . S
In1157 O1169 2.326 . S
O1158 In1157 2.294 . S
O1158 C1167 1.240 . S
O1159 In1157 2.326 . S
O1159 C1167 1.252 . S
C1160 O1163 1.252 . S
C1160 O1164 1.260 . S
C1161 O1168 1.240 . S
C1161 O1169 1.252 . S
C1162 O1165 1.252 . S
C1162 O1166 1.260 . S
O1163 In1157 2.266 . S
O1163 C1160 1.252 . S
O1164 In1157 2.326 . S
O1164 C1160 1.260 . S
O1165 In1157 2.266 . S
O1165 C1162 1.252 . S
O1166 In1157 2.326 . S
O1166 C1162 1.260 . S
C1167 O1158 1.240 . S
C1167 O1159 1.252 . S
O1168 In1157 2.294 . S
O1168 C1161 1.240 . S
O1169 In1157 2.326 . S
O1169 C1161 1.252 . S
In1170 O1171 2.294 . S
In1170 O1172 2.326 . S
In1170 O1176 2.266 . S
In1170 O1177 2.326 . S
In1170 O1178 2.266 . S
In1170 O1179 2.326 . S
In1170 O1181 2.294 . S
In1170 O1182 2.326 . S
O1171 In1170 2.294 . S
O1171 C1180 1.240 . S
O1172 In1170 2.326 . S
O1172 C1180 1.252 . S
C1173 O1176 1.252 . S
C1173 O1177 1.260 . S
C1174 O1181 1.240 . S
C1174 O1182 1.252 . S
C1175 O1178 1.252 . S
C1175 O1179 1.260 . S
O1176 In1170 2.266 . S
O1176 C1173 1.252 . S
O1177 In1170 2.326 . S
O1177 C1173 1.260 . S
O1178 In1170 2.266 . S
O1178 C1175 1.252 . S
O1179 In1170 2.326 . S
O1179 C1175 1.260 . S
C1180 O1171 1.240 . S
C1180 O1172 1.252 . S
O1181 In1170 2.294 . S
O1181 C1174 1.240 . S
O1182 In1170 2.326 . S
O1182 C1174 1.252 . S
In1183 O1184 2.294 . S
In1183 O1185 2.326 . S
In1183 O1189 2.266 . S
In1183 O1190 2.326 . S
In1183 O1191 2.266 . S
In1183 O1192 2.326 . S
In1183 O1194 2.294 . S
In1183 O1195 2.326 . S
O1184 In1183 2.294 . S
O1184 C1193 1.240 . S
O1185 In1183 2.326 . S
O1185 C1193 1.252 . S
C1186 O1189 1.252 . S
C1186 O1190 1.260 . S
C1187 O1194 1.240 . S
C1187 O1195 1.252 . S
C1188 O1191 1.252 . S
C1188 O1192 1.260 . S
O1189 In1183 2.266 . S
O1189 C1186 1.252 . S
O1190 In1183 2.326 . S
O1190 C1186 1.260 . S
O1191 In1183 2.266 . S
O1191 C1188 1.252 . S
O1192 In1183 2.326 . S
O1192 C1188 1.260 . S
C1193 O1184 1.240 . S
C1193 O1185 1.252 . S
O1194 In1183 2.294 . S
O1194 C1187 1.240 . S
O1195 In1183 2.326 . S
O1195 C1187 1.252 . S
In1196 O1197 2.294 . S
In1196 O1198 2.326 . S
In1196 O1202 2.266 . S
In1196 O1203 2.326 . S
In1196 O1204 2.266 . S
In1196 O1205 2.326 . S
In1196 O1207 2.294 . S
In1196 O1208 2.326 . S
O1197 In1196 2.294 . S
O1197 C1206 1.240 . S
O1198 In1196 2.326 . S
O1198 C1206 1.252 . S
C1199 O1202 1.252 . S
C1199 O1203 1.260 . S
C1200 O1207 1.240 . S
C1200 O1208 1.252 . S
C1201 O1204 1.252 . S
C1201 O1205 1.260 . S
O1202 In1196 2.266 . S
O1202 C1199 1.252 . S
O1203 In1196 2.326 . S
O1203 C1199 1.260 . S
O1204 In1196 2.266 . S
O1204 C1201 1.252 . S
O1205 In1196 2.326 . S
O1205 C1201 1.260 . S
C1206 O1197 1.240 . S
C1206 O1198 1.252 . S
O1207 In1196 2.294 . S
O1207 C1200 1.240 . S
O1208 In1196 2.326 . S
O1208 C1200 1.252 . S
In1209 O1210 2.294 . S
In1209 O1211 2.326 . S
In1209 O1215 2.266 . S
In1209 O1216 2.326 . S
In1209 O1217 2.266 . S
In1209 O1218 2.326 . S
In1209 O1220 2.294 . S
In1209 O1221 2.326 . S
O1210 In1209 2.294 . S
O1210 C1219 1.240 . S
O1211 In1209 2.326 . S
O1211 C1219 1.252 . S
C1212 O1215 1.252 . S
C1212 O1216 1.260 . S
C1213 O1220 1.240 . S
C1213 O1221 1.252 . S
C1214 O1217 1.252 . S
C1214 O1218 1.260 . S
O1215 In1209 2.266 . S
O1215 C1212 1.252 . S
O1216 In1209 2.326 . S
O1216 C1212 1.260 . S
O1217 In1209 2.266 . S
O1217 C1214 1.252 . S
O1218 In1209 2.326 . S
O1218 C1214 1.260 . S
C1219 O1210 1.240 . S
C1219 O1211 1.252 . S
O1220 In1209 2.294 . S
O1220 C1213 1.240 . S
O1221 In1209 2.326 . S
O1221 C1213 1.252 . S
In1222 O1223 2.294 . S
In1222 O1224 2.326 . S
In1222 O1228 2.266 . S
In1222 O1229 2.326 . S
In1222 O1230 2.266 . S
In1222 O1231 2.326 . S
In1222 O1233 2.294 . S
In1222 O1234 2.326 . S
O1223 In1222 2.294 . S
O1223 C1232 1.240 . S
O1224 In1222 2.326 . S
O1224 C1232 1.252 . S
C1225 O1228 1.252 . S
C1225 O1229 1.260 . S
C1226 O1233 1.240 . S
C1226 O1234 1.252 . S
C1227 O1230 1.252 . S
C1227 O1231 1.260 . S
O1228 In1222 2.266 . S
O1228 C1225 1.252 . S
O1229 In1222 2.326 . S
O1229 C1225 1.260 . S
O1230 In1222 2.266 . S
O1230 C1227 1.252 . S
O1231 In1222 2.326 . S
O1231 C1227 1.260 . S
C1232 O1223 1.240 . S
C1232 O1224 1.252 . S
O1233 In1222 2.294 . S
O1233 C1226 1.240 . S
O1234 In1222 2.326 . S
O1234 C1226 1.252 . S
In1235 O1236 2.294 . S
In1235 O1237 2.326 . S
In1235 O1241 2.266 . S
In1235 O1242 2.326 . S
In1235 O1243 2.266 . S
In1235 O1244 2.326 . S
In1235 O1246 2.294 . S
In1235 O1247 2.326 . S
O1236 In1235 2.294 . S
O1236 C1245 1.240 . S
O1237 In1235 2.326 . S
O1237 C1245 1.252 . S
C1238 O1241 1.252 . S
C1238 O1242 1.260 . S
C1239 O1246 1.240 . S
C1239 O1247 1.252 . S
C1240 O1243 1.252 . S
C1240 O1244 1.260 . S
O1241 In1235 2.266 . S
O1241 C1238 1.252 . S
O1242 In1235 2.326 . S
O1242 C1238 1.260 . S
O1243 In1235 2.266 . S
O1243 C1240 1.252 . S
O1244 In1235 2.326 . S
O1244 C1240 1.260 . S
C1245 O1236 1.240 . S
C1245 O1237 1.252 . S
O1246 In1235 2.294 . S
O1246 C1239 1.240 . S
O1247 In1235 2.326 . S
O1247 C1239 1.252 . S
C4 C888 1.942 . S
C855 C23 1.942 . S
C862 C30 1.942 . S
C49 C875 1.942 . S
C933 C62 1.942 . S
C901 C69 1.942 . S
C914 C82 1.942 . S
C101 C836 1.942 . S
C108 C829 1.942 . S
C121 C790 1.942 . S
C134 C803 1.942 . S
C147 C816 1.942 . S
C160 C745 1.942 . S
C764 C179 1.942 . S
C777 C192 1.942 . S
C205 C732 1.942 . S
C218 C719 1.942 . S
C231 C647 1.942 . S
C654 C238 1.942 . S
C673 C257 1.942 . S
C628 C270 1.942 . S
C277 C699 1.942 . S
C290 C706 1.942 . S
C309 C680 1.942 . S
C316 C1200 1.942 . S
C335 C1161 1.942 . S
C342 C1174 1.942 . S
C361 C1193 1.942 . S
C368 C1239 1.942 . S
C381 C1219 1.942 . S
C1232 C400 1.942 . S
C407 C1154 1.942 . S
C420 C1141 1.942 . S
C1102 C433 1.942 . S
C452 C1109 1.942 . S
C459 C1122 1.942 . S
C478 C1063 1.942 . S
C485 C1076 1.942 . S
C498 C1083 1.942 . S
C1044 C517 1.942 . S
C524 C1037 1.942 . S
C543 C953 1.942 . S
C550 C966 1.942 . S
C985 C563 1.942 . S
C582 C946 1.942 . S
C1005 C589 1.942 . S
C602 C1024 1.942 . S
C615 C992 1.942 . S
C3 C512 1.476 . S
C18 C473 1.476 . S
C484 C29 1.476 . S
C44 C497 1.476 . S
C432 C57 1.476 . S
C447 C68 1.476 . S
C458 C81 1.476 . S
C419 C96 1.476 . S
C406 C107 1.476 . S
C120 C367 1.476 . S
C380 C133 1.476 . S
C146 C395 1.476 . S
C330 C159 1.476 . S
C341 C174 1.476 . S
C187 C356 1.476 . S
C200 C315 1.476 . S
C213 C577 1.476 . S
C226 C614 1.476 . S
C588 C237 1.476 . S
C601 C252 1.476 . S
C265 C523 1.476 . S
C276 C549 1.476 . S
C562 C289 1.476 . S
C304 C538 1.476 . S
C1136 C627 1.476 . S
C1097 C642 1.476 . S
C1108 C653 1.476 . S
C668 C1121 1.476 . S
C1058 C679 1.476 . S
C1071 C694 1.476 . S
C705 C1082 1.476 . S
C718 C1043 1.476 . S
C1032 C731 1.476 . S
C744 C991 1.476 . S
C1004 C759 1.476 . S
C1019 C772 1.476 . S
C785 C952 1.476 . S
C798 C965 1.476 . S
C980 C811 1.476 . S
C824 C941 1.476 . S
C1199 C835 1.476 . S
C1238 C850 1.476 . S
C861 C1214 1.476 . S
C1227 C874 1.476 . S
C1149 C887 1.476 . S
C1173 C900 1.476 . S
C913 C1188 1.476 . S
C1160 C928 1.476 . S
C5 C369 1.327 1_455 S
C382 C16 1.327 1_565 S
C31 C393 1.327 1_655 S
C408 C42 1.327 1_545 S
C55 C317 1.327 1_455 S
C70 C328 1.327 1_545 S
C83 C343 1.327 1_655 S
C354 C94 1.327 1_545 S
C499 C109 1.327 1_565 S
C122 C510 1.327 1_655 S
C135 C471 1.327 1_565 S
C148 C486 1.327 1_455 S
C161 C445 1.327 1_565 S
C172 C460 1.327 1_455 S
C185 C421 1.327 1_545 S
C198 C434 1.327 1_655 S
C211 C590 1.327 1_554 S
C224 C564 1.327 1_556 S
C575 C239 1.327 1_554 S
C250 C536 1.327 1_556 S
C551 C263 1.327 1_554 S
C278 C525 1.327 1_554 S
C291 C616 1.327 1_554 S
C603 C302 1.327 1_556 S
C993 C629 1.327 . S
C640 C1006 1.327 . S
C1017 C655 1.327 . S
C666 C1030 1.327 . S
C939 C681 1.327 . S
C954 C692 1.327 . S
C967 C707 1.327 . S
C720 C978 1.327 . S
C733 C1123 1.327 . S
C1134 C746 1.327 . S
C1095 C757 1.327 . S
C1110 C770 1.327 . S
C783 C1069 1.327 . S
C796 C1084 1.327 . S
C1045 C809 1.327 . S
C1056 C822 1.327 . S
C1212 C837 1.327 . S
C848 C1186 1.327 . S
C1201 C863 1.327 . S
C876 C1162 1.327 . S
C889 C1175 1.327 . S
C902 C1147 1.327 . S
C1240 C915 1.327 . S
C926 C1225 1.327 . S
C413 C10 1.744 . S
C374 C17 1.744 . S
C36 C387 1.744 . S
C394 C43 1.744 . S
C329 C56 1.744 . S
C75 C348 1.744 . S
C88 C355 1.744 . S
C322 C95 1.744 . S
C576 C114 1.744 . S
C127 C537 1.744 . S
C140 C556 1.744 . S
C569 C153 1.744 . S
C166 C621 1.744 . S
C595 C173 1.744 . S
C608 C186 1.744 . S
C199 C530 1.744 . S
C212 C511 1.744 . S
C225 C439 1.744 . S
C244 C446 1.744 . S
C465 C251 1.744 . S
C426 C264 1.744 . S
C283 C491 1.744 . S
C296 C504 1.744 . S
C303 C472 1.744 . S
C634 C1031 1.744 . S
C641 C998 1.744 . S
C660 C1011 1.744 . S
C1018 C667 1.744 . S
C959 C686 1.744 . S
C972 C693 1.744 . S
C712 C979 1.744 . S
C940 C725 1.744 . S
C1206 C738 1.744 . S
C1167 C751 1.744 . S
C1180 C758 1.744 . S
C1187 C771 1.744 . S
C1245 C784 1.744 . S
C1213 C797 1.744 . S
C1226 C810 1.744 . S
C1148 C823 1.744 . S
C842 C1135 1.744 . S
C1057 C849 1.744 . S
C1070 C868 1.744 . S
C1089 C881 1.744 . S
C1050 C894 1.744 . S
C1115 C907 1.744 . S
C1128 C920 1.744 . S
C1096 C927 1.744 . S
