# Generated by pormake.
# Topology sni, (6)-cn, num edge types: 1
# Building blocks:
#     Node 0, Type 0, BuildingBlock: IZENUY_clean_sbu_0, # of connection points: 6
#     Node 1, Type 0, BuildingBlock: IZENUY_clean_sbu_0, # of connection points: 6
#     Node 2, Type 0, BuildingBlock: IZENUY_clean_sbu_0, # of connection points: 6
#     Node 3, Type 0, BuildingBlock: IZENUY_clean_sbu_0, # of connection points: 6
#     Node 4, Type 0, BuildingBlock: IZENUY_clean_sbu_0, # of connection points: 6
#     Node 5, Type 0, BuildingBlock: IZENUY_clean_sbu_0, # of connection points: 6
#     Node 6, Type 0, BuildingBlock: IZENUY_clean_sbu_0, # of connection points: 6
#     Node 7, Type 0, BuildingBlock: IZENUY_clean_sbu_0, # of connection points: 6
#     Edge 8, Type (0, 0), BuildingBlock: TEMPAE_clean_linker_10, # of connection points: 2
#     Edge 9, Type (0, 0), BuildingBlock: TEMPAE_clean_linker_10, # of connection points: 2
#     Edge 10, Type (0, 0), BuildingBlock: TEMPAE_clean_linker_10, # of connection points: 2
#     Edge 11, Type (0, 0), BuildingBlock: TEMPAE_clean_linker_10, # of connection points: 2
#     Edge 12, Type (0, 0), BuildingBlock: TEMPAE_clean_linker_10, # of connection points: 2
#     Edge 13, Type (0, 0), BuildingBlock: TEMPAE_clean_linker_10, # of connection points: 2
#     Edge 14, Type (0, 0), BuildingBlock: TEMPAE_clean_linker_10, # of connection points: 2
#     Edge 15, Type (0, 0), BuildingBlock: TEMPAE_clean_linker_10, # of connection points: 2
#     Edge 16, Type (0, 0), BuildingBlock: TEMPAE_clean_linker_10, # of connection points: 2
#     Edge 17, Type (0, 0), BuildingBlock: TEMPAE_clean_linker_10, # of connection points: 2
#     Edge 18, Type (0, 0), BuildingBlock: TEMPAE_clean_linker_10, # of connection points: 2
#     Edge 19, Type (0, 0), BuildingBlock: TEMPAE_clean_linker_10, # of connection points: 2
#     Edge 20, Type (0, 0), BuildingBlock: TEMPAE_clean_linker_10, # of connection points: 2
#     Edge 21, Type (0, 0), BuildingBlock: TEMPAE_clean_linker_10, # of connection points: 2
#     Edge 22, Type (0, 0), BuildingBlock: TEMPAE_clean_linker_10, # of connection points: 2
#     Edge 23, Type (0, 0), BuildingBlock: TEMPAE_clean_linker_10, # of connection points: 2
#     Edge 24, Type (0, 0), BuildingBlock: TEMPAE_clean_linker_10, # of connection points: 2
#     Edge 25, Type (0, 0), BuildingBlock: TEMPAE_clean_linker_10, # of connection points: 2
#     Edge 26, Type (0, 0), BuildingBlock: TEMPAE_clean_linker_10, # of connection points: 2
#     Edge 27, Type (0, 0), BuildingBlock: TEMPAE_clean_linker_10, # of connection points: 2
#     Edge 28, Type (0, 0), BuildingBlock: TEMPAE_clean_linker_10, # of connection points: 2
#     Edge 29, Type (0, 0), BuildingBlock: TEMPAE_clean_linker_10, # of connection points: 2
#     Edge 30, Type (0, 0), BuildingBlock: TEMPAE_clean_linker_10, # of connection points: 2
#     Edge 31, Type (0, 0), BuildingBlock: TEMPAE_clean_linker_10, # of connection points: 2
# Relax obj value: 0.128
# Max RMSD: 0.110
# Mean RMSD: 0.110
data_MOF--net-sni--node1-IZENUY_clean_sbu_0--edge1-TEMPAE_clean_linker_10
_symmetry_space_group_name_H-M    P1
_symmetry_Int_Tables_number       1
_symmetry_cell_setting            triclinic
loop_
_symmetry_equiv_pos_as_xyz
'x, y, z'
_cell_length_a     41.766401
_cell_length_b     41.79785
_cell_length_c     20.333761
_cell_angle_alpha  89.992177
_cell_angle_beta   90.114034
_cell_angle_gamma 90.06085
loop_
_atom_site_label
_atom_site_type_symbol
_atom_site_fract_x
_atom_site_fract_y
_atom_site_fract_z
_atom_type_partial_charge
Fe0 Fe 0.63855 0.19257 0.00572 0.0
Fe1 Fe 0.69066 0.14067 0.99717 0.0
O2 O 0.6498 0.15179 0.00113 0.0
Fe3 Fe 0.61996 0.1219 0.00066 0.0
O4 O 0.58962 0.14636 0.9593 0.0
O5 O 0.61507 0.18994 0.92973 0.0
O6 O 0.67229 0.20714 0.95621 0.0
C7 C 0.69069 0.19292 0.91637 0.0
C8 C 0.59602 0.16177 0.09349 0.0
O9 O 0.69632 0.16337 0.92181 0.0
C10 C 0.66852 0.09384 0.07916 0.0
O11 O 0.66092 0.1979 0.08175 0.0
O12 O 0.70497 0.1742 0.04783 0.0
O13 O 0.60611 0.13401 0.08108 0.0
O14 O 0.60302 0.18517 0.05658 0.0
C15 C 0.66016 0.09829 0.90812 0.0
O16 O 0.68778 0.11697 0.0726 0.0
O17 O 0.64436 0.09148 0.04189 0.0
C18 C 0.69044 0.19218 0.08801 0.0
O19 O 0.68351 0.10533 0.94536 0.0
O20 O 0.63234 0.10833 0.92023 0.0
C21 C 0.59197 0.17065 0.9225 0.0
Fe22 Fe 0.88787 0.6191 0.0027 0.0
Fe23 Fe 0.87216 0.69061 -0.00131 0.0
O24 O 0.85935 0.65023 0.00143 0.0
Fe25 Fe 0.81807 0.64061 0.00268 0.0
O26 O 0.82307 0.6042 0.05274 0.0
O27 O 0.87374 0.60541 0.08214 0.0
O28 O 0.9187 0.642 0.04615 0.0
C29 C 0.91714 0.66647 0.08249 0.0
C30 C 0.83962 0.59439 0.91975 0.0
O31 O 0.89489 0.68655 0.07491 0.0
C32 C 0.82085 0.69349 0.91517 0.0
O33 O 0.90341 0.63116 0.92344 0.0
O34 O 0.90781 0.6823 0.94812 0.0
O35 O 0.82126 0.61816 0.92602 0.0
O36 O 0.86267 0.59012 0.95912 0.0
C37 C 0.81919 0.69161 0.08671 0.0
O38 O 0.85055 0.69777 0.92242 0.0
O39 O 0.80551 0.67525 0.95356 0.0
C40 C 0.91462 0.65861 0.91168 0.0
O41 O 0.83864 0.70573 0.04856 0.0
O42 O 0.81239 0.66241 0.07886 0.0
C43 C 0.8454 0.596 0.09155 0.0
Fe44 Fe 0.31908 0.87214 0.99828 0.0
Fe45 Fe 0.37118 0.81987 0.0008 0.0
O46 O 0.35994 0.86074 -0.00047 0.0
Fe47 Fe 0.38987 0.89057 -0.0004 0.0
O48 O 0.36606 0.92061 0.04304 0.0
O49 O 0.3231 0.89488 0.07475 0.0
O50 O 0.30527 0.83815 0.04787 0.0
C51 C 0.32001 0.81881 0.08509 0.0
C52 C 0.34872 0.91527 0.90977 0.0
O53 O 0.34937 0.81297 0.07676 0.0
C54 C 0.41715 0.84305 0.91785 0.0
O55 O 0.31204 0.85045 0.92223 0.0
O56 O 0.3371 0.80624 0.95086 0.0
O57 O 0.37667 0.9051 0.92036 0.0
O58 O 0.3258 0.90801 0.94778 0.0
C59 C 0.41438 0.84941 0.08966 0.0
O60 O 0.39409 0.82371 0.92451 0.0
O61 O 0.41984 0.86669 0.95619 0.0
C62 C 0.31768 0.82107 0.91385 0.0
O63 O 0.40706 0.82647 0.05165 0.0
O64 O 0.40439 0.87738 0.07882 0.0
C65 C 0.34245 0.91792 0.08139 0.0
Fe66 Fe 0.19223 0.37075 0.99677 0.0
Fe67 Fe 0.12196 0.39168 0.00761 0.0
O68 O 0.15088 0.36095 0.00112 0.0
Fe69 Fe 0.13828 0.32041 -0.00016 0.0
O70 O 0.16117 0.31156 0.07373 0.0
O71 O 0.20572 0.335 0.04153 0.0
O72 O 0.19115 0.39141 0.07542 0.0
C73 C 0.17198 0.41368 0.08902 0.0
C74 C 0.18954 0.32185 0.90802 0.0
O75 O 0.14752 0.41897 0.05425 0.0
C76 C 0.09227 0.34701 0.92185 0.0
O77 O 0.18605 0.40822 0.95069 0.0
O78 O 0.13426 0.40913 0.93028 0.0
O79 O 0.1708 0.30679 0.94594 0.0
O80 O 0.19658 0.35076 0.91834 0.0
C81 C 0.09687 0.34867 0.09379 0.0
O82 O 0.09078 0.3701 0.96199 0.0
O83 O 0.11449 0.32666 0.92598 0.0
C84 C 0.16233 0.41852 0.91786 0.0
O85 O 0.10797 0.37642 0.08574 0.0
O86 O 0.10327 0.32656 0.0533 0.0
C87 C 0.19089 0.31622 0.07972 0.0
Fe88 Fe 0.63969 0.8201 0.49829 0.0
Fe89 Fe 0.69113 0.87306 0.50205 0.0
O90 O 0.65043 0.86111 0.49981 0.0
Fe91 Fe 0.62011 0.89049 0.49894 0.0
O92 O 0.59017 0.8661 0.54168 0.0
O93 O 0.61649 0.82363 0.5742 0.0
O94 O 0.67375 0.80688 0.54867 0.0
C95 C 0.69279 0.82192 0.58619 0.0
C96 C 0.59657 0.84898 0.40857 0.0
O97 O 0.69803 0.85141 0.5782 0.0
C98 C 0.66775 0.91859 0.41843 0.0
O99 O 0.66184 0.81361 0.42269 0.0
O100 O 0.70558 0.83929 0.45255 0.0
O101 O 0.60627 0.87707 0.41935 0.0
O102 O 0.60389 0.8262 0.44692 0.0
C103 C 0.66039 0.9158 0.5898 0.0
O104 O 0.6873 0.89581 0.42561 0.0
O105 O 0.6438 0.92091 0.45602 0.0
C106 C 0.69117 0.81985 0.41489 0.0
O107 O 0.68368 0.90881 0.55252 0.0
O108 O 0.63263 0.90523 0.57847 0.0
C109 C 0.59299 0.84243 0.57997 0.0
Fe110 Fe 0.13898 0.68929 0.50085 0.0
Fe111 Fe 0.19277 0.63908 0.4973 0.0
O112 O 0.15155 0.64885 0.49832 0.0
Fe113 Fe 0.12282 0.61784 0.49712 0.0
O114 O 0.09223 0.64082 0.45324 0.0
O115 O 0.11636 0.68526 0.42449 0.0
O116 O 0.17268 0.70427 0.45125 0.0
C117 C 0.19214 0.69009 0.4133 0.0
C118 C 0.09618 0.65758 0.58773 0.0
O119 O 0.19871 0.66086 0.42116 0.0
C120 C 0.17084 0.59298 0.58034 0.0
O121 O 0.16048 0.69637 0.57727 0.0
O122 O 0.20546 0.67367 0.54653 0.0
O123 O 0.10725 0.63008 0.57621 0.0
O124 O 0.10318 0.68118 0.55115 0.0
C125 C 0.16524 0.59437 0.40852 0.0
O126 O 0.18938 0.61664 0.57396 0.0
O127 O 0.14776 0.58881 0.54101 0.0
C128 C 0.19014 0.69198 0.58477 0.0
O129 O 0.18763 0.60271 0.44713 0.0
O130 O 0.13695 0.60389 0.41794 0.0
C131 C 0.09403 0.66524 0.41675 0.0
Fe132 Fe 0.37057 0.19241 0.49904 0.0
Fe133 Fe 0.31848 0.13981 0.50121 0.0
O134 O 0.35929 0.15145 0.50085 0.0
Fe135 Fe 0.38929 0.12171 0.50255 0.0
O136 O 0.41917 0.14608 0.54558 0.0
O137 O 0.39309 0.18894 0.57607 0.0
O138 O 0.33628 0.20636 0.5473 0.0
C139 C 0.3166 0.19172 0.58372 0.0
C140 C 0.41398 0.16224 0.41189 0.0
O141 O 0.31082 0.16233 0.57599 0.0
C142 C 0.34226 0.09323 0.42092 0.0
O143 O 0.3491 0.19917 0.42273 0.0
O144 O 0.30504 0.17291 0.44878 0.0
O145 O 0.40391 0.13433 0.42319 0.0
O146 O 0.40666 0.18544 0.44922 0.0
C147 C 0.34791 0.09779 0.59258 0.0
O148 O 0.32294 0.11626 0.42613 0.0
O149 O 0.36576 0.09102 0.45985 0.0
C150 C 0.32009 0.19233 0.4123 0.0
O151 O 0.32505 0.10464 0.55391 0.0
O152 O 0.37591 0.10785 0.58202 0.0
C153 C 0.41634 0.16993 0.58326 0.0
Fe154 Fe 0.87068 0.32098 0.50408 0.0
Fe155 Fe 0.8883 0.39204 0.49532 0.0
O156 O 0.85866 0.36178 0.50072 0.0
Fe157 Fe 0.81745 0.37246 0.50235 0.0
O158 O 0.81107 0.35222 0.58004 0.0
O159 O 0.83758 0.30812 0.55688 0.0
O160 O 0.89384 0.32757 0.57874 0.0
C161 C 0.91648 0.34745 0.58289 0.0
C162 C 0.81906 0.31731 0.42039 0.0
O163 O 0.91873 0.37013 0.54204 0.0
C164 C 0.83987 0.41528 0.41169 0.0
O165 O 0.90624 0.32645 0.4514 0.0
O166 O 0.90259 0.37631 0.41802 0.0
O167 O 0.8041 0.33745 0.45527 0.0
O168 O 0.8483 0.31126 0.43019 0.0
C169 C 0.8475 0.41947 0.58349 0.0
O170 O 0.86404 0.4199 0.44757 0.0
O171 O 0.82004 0.39348 0.42433 0.0
C172 C 0.91325 0.34837 0.41073 0.0
O173 O 0.87556 0.4098 0.57196 0.0
O174 O 0.82386 0.40948 0.54989 0.0
C175 C 0.81792 0.32343 0.59209 0.0
C176 C 0.46429 0.18812 0.37405 0.0
C177 C 0.43936 0.16634 0.36275 0.0
C178 C 0.49058 0.1896 0.33152 0.0
C179 C 0.49137 0.16937 0.27578 0.0
C180 C 0.46556 0.14832 0.26269 0.0
C181 C 0.43999 0.14676 0.30696 0.0
C182 C 0.51804 0.21182 0.3476 0.0
C183 C 0.46527 0.12697 0.20276 0.0
C184 C 0.54704 0.18876 0.13481 0.0
C185 C 0.571 0.16568 0.14353 0.0
C186 C 0.52111 0.19058 0.17816 0.0
C187 C 0.51967 0.16932 0.23216 0.0
C188 C 0.54455 0.14691 0.24281 0.0
C189 C 0.56978 0.14508 0.19773 0.0
C190 C 0.49464 0.2143 0.16461 0.0
C191 C 0.54411 0.12436 0.30086 0.0
H192 H 0.46393 0.203 0.41773 0.0
H193 H 0.42056 0.13004 0.29825 0.0
H194 H 0.54004 0.19762 0.35675 0.0
H195 H 0.52304 0.22784 0.30537 0.0
H196 H 0.51316 0.22675 0.39165 0.0
H197 H 0.44237 0.11367 0.19744 0.0
H198 H 0.46922 0.14141 0.15768 0.0
H199 H 0.48509 0.1094 0.20605 0.0
H200 H 0.54782 0.20451 0.09247 0.0
H201 H 0.58847 0.12738 0.20458 0.0
H202 H 0.49043 0.22951 0.20841 0.0
H203 H 0.47202 0.20127 0.15431 0.0
H204 H 0.5001 0.23002 0.12201 0.0
H205 H 0.54074 0.13798 0.34717 0.0
H206 H 0.56651 0.11018 0.30484 0.0
H207 H 0.52365 0.10757 0.29619 0.0
C208 C 0.85709 0.56917 0.19842 0.0
C209 C 0.83962 0.57027 0.13967 0.0
C210 C 0.85342 0.54354 0.24235 0.0
C211 C 0.83255 0.51798 0.22594 0.0
C212 C 0.81454 0.51922 0.16699 0.0
C213 C 0.81797 0.54561 0.12493 0.0
C214 C 0.87247 0.54346 0.30555 0.0
C215 C 0.79276 0.49205 0.14694 0.0
C216 C 0.85575 0.43963 0.30625 0.0
C217 C 0.83398 0.43799 0.35825 0.0
C218 C 0.85438 0.46467 0.26056 0.0
C219 C 0.83126 0.48914 0.26861 0.0
C220 C 0.80852 0.48696 0.32008 0.0
C221 C 0.81 0.46112 0.36419 0.0
C222 C 0.87859 0.46568 0.20552 0.0
C223 C 0.78395 0.51287 0.33097 0.0
H224 H 0.87371 0.58833 0.20986 0.0
H225 H 0.80473 0.54626 0.07902 0.0
H226 H 0.85643 0.53904 0.34804 0.0
H227 H 0.89029 0.5238 0.30446 0.0
H228 H 0.88538 0.56638 0.31366 0.0
H229 H 0.77916 0.49746 0.10127 0.0
H230 H 0.8072 0.47015 0.13863 0.0
H231 H 0.77551 0.48659 0.1868 0.0
H232 H 0.87447 0.42175 0.30253 0.0
H233 H 0.79364 0.45998 0.40547 0.0
H234 H 0.89545 0.48583 0.21361 0.0
H235 H 0.86643 0.46987 0.15773 0.0
H236 H 0.89265 0.44319 0.20217 0.0
H237 H 0.79623 0.53529 0.34589 0.0
H238 H 0.76641 0.50632 0.36972 0.0
H239 H 0.77078 0.51798 0.28475 0.0
C240 C 0.57097 0.86317 0.30217 0.0
C241 C 0.57147 0.8442 0.35886 0.0
C242 C 0.5455 0.86111 0.2575 0.0
C243 C 0.51963 0.84023 0.27109 0.0
C244 C 0.52038 0.82049 0.32759 0.0
C245 C 0.54658 0.82243 0.37052 0.0
C246 C 0.54584 0.88195 0.19681 0.0
C247 C 0.49288 0.79847 0.34428 0.0
C248 C 0.44118 0.86539 0.19391 0.0
C249 C 0.43942 0.84481 0.1397 0.0
C250 C 0.46658 0.86323 0.2387 0.0
C251 C 0.49107 0.84044 0.22793 0.0
C252 C 0.48899 0.81907 0.17417 0.0
C253 C 0.46292 0.82128 0.13097 0.0
C254 C 0.46768 0.88594 0.29646 0.0
C255 C 0.51498 0.79487 0.16062 0.0
H256 H 0.59037 0.87986 0.29316 0.0
H257 H 0.54684 0.80801 0.41485 0.0
H258 H 0.5414 0.86725 0.15228 0.0
H259 H 0.52634 0.8999 0.19981 0.0
H260 H 0.56894 0.89482 0.19076 0.0
H261 H 0.49799 0.78345 0.38813 0.0
H262 H 0.4711 0.81287 0.35415 0.0
H263 H 0.48735 0.78255 0.30212 0.0
H264 H 0.42284 0.88341 0.20087 0.0
H265 H 0.4617 0.80551 0.08871 0.0
H266 H 0.4883 0.90248 0.29114 0.0
H267 H 0.47119 0.87243 0.34289 0.0
H268 H 0.44548 0.90041 0.3007 0.0
H269 H 0.53767 0.80751 0.14911 0.0
H270 H 0.50889 0.77888 0.11877 0.0
H271 H 0.51943 0.77996 0.20481 0.0
C272 C 0.19846 0.46316 0.128 0.0
C273 C 0.17931 0.43651 0.14144 0.0
C274 C 0.19976 0.48899 0.17207 0.0
C275 C 0.18145 0.48787 0.23061 0.0
C276 C 0.16338 0.46011 0.24569 0.0
C277 C 0.16228 0.43483 0.20042 0.0
C278 C 0.21904 0.51825 0.15395 0.0
C279 C 0.14378 0.45782 0.30785 0.0
C280 C 0.19662 0.54742 0.36829 0.0
C281 C 0.17104 0.56879 0.35977 0.0
C282 C 0.20065 0.52118 0.32604 0.0
C283 C 0.17894 0.51659 0.2734 0.0
C284 C 0.1538 0.53879 0.26311 0.0
C285 C 0.14997 0.56446 0.30682 0.0
C286 C 0.22743 0.49778 0.33912 0.0
C287 C 0.13047 0.53502 0.20677 0.0
H288 H 0.21098 0.46453 0.0814 0.0
H289 H 0.14703 0.41431 0.20975 0.0
H290 H 0.20257 0.53841 0.14314 0.0
H291 H 0.23449 0.52572 0.19565 0.0
H292 H 0.23434 0.51411 0.11015 0.0
H293 H 0.13363 0.4335 0.3152 0.0
H294 H 0.15865 0.46409 0.35126 0.0
H295 H 0.12373 0.47518 0.30565 0.0
H296 H 0.21284 0.5505 0.40948 0.0
H297 H 0.1303 0.58104 0.29985 0.0
H298 H 0.24219 0.49459 0.29432 0.0
H299 H 0.21721 0.47404 0.35171 0.0
H300 H 0.24323 0.50563 0.38008 0.0
H301 H 0.14362 0.53295 0.15959 0.0
H302 H 0.11353 0.55542 0.2032 0.0
H303 H 0.11645 0.51268 0.21319 0.0
C304 C 0.53697 0.85134 0.61861 0.0
C305 C 0.56655 0.83587 0.62712 0.0
C306 C 0.51216 0.84795 0.66443 0.0
C307 C 0.51686 0.8287 0.72086 0.0
C308 C 0.54611 0.81183 0.7285 0.0
C309 C 0.57061 0.81552 0.68139 0.0
C310 C 0.48143 0.86633 0.65392 0.0
C311 C 0.55207 0.79107 0.78796 0.0
C312 C 0.47008 0.85765 0.86902 0.0
C313 C 0.44322 0.83734 0.86922 0.0
C314 C 0.49468 0.85413 0.8228 0.0
C315 C 0.49264 0.82965 0.77492 0.0
C316 C 0.46612 0.8084 0.77571 0.0
C317 C 0.44169 0.81249 0.82286 0.0
C318 C 0.52236 0.87745 0.82389 0.0
C319 C 0.46311 0.78198 0.72555 0.0
H320 H 0.53329 0.86675 0.57638 0.0
H321 H 0.59329 0.80339 0.68828 0.0
H322 H 0.46045 0.85028 0.65939 0.0
H323 H 0.47933 0.88533 0.69179 0.0
H324 H 0.48035 0.87775 0.60462 0.0
H325 H 0.57416 0.77651 0.78282 0.0
H326 H 0.55455 0.8064 0.83223 0.0
H327 H 0.53147 0.77482 0.79643 0.0
H328 H 0.47182 0.87683 0.90469 0.0
H329 H 0.42117 0.79659 0.82264 0.0
H330 H 0.52202 0.89218 0.77848 0.0
H331 H 0.54545 0.86437 0.82489 0.0
H332 H 0.5215 0.89376 0.86698 0.0
H333 H 0.45927 0.7925 0.67606 0.0
H334 H 0.44286 0.76559 0.73655 0.0
H335 H 0.48556 0.76786 0.72345 0.0
C336 C 0.14121 0.46385 0.85035 0.0
C337 C 0.16711 0.44463 0.86954 0.0
C338 C 0.1453 0.48906 0.80564 0.0
C339 C 0.17593 0.49489 0.77838 0.0
C340 C 0.20223 0.47571 0.7977 0.0
C341 C 0.19756 0.45094 0.84349 0.0
C342 C 0.11668 0.5092 0.78688 0.0
C343 C 0.23511 0.48085 0.76883 0.0
C344 C 0.1714 0.53583 0.61275 0.0
C345 C 0.17729 0.56783 0.62941 0.0
C346 C 0.17283 0.5116 0.6602 0.0
C347 C 0.17962 0.51967 0.72635 0.0
C348 C 0.18698 0.55181 0.743 0.0
C349 C 0.18605 0.57557 0.69397 0.0
C350 C 0.16549 0.47759 0.64 0.0
C351 C 0.19393 0.56139 0.81314 0.0
H352 H 0.11766 0.45939 0.87077 0.0
H353 H 0.21767 0.43617 0.85806 0.0
H354 H 0.1221 0.53494 0.79444 0.0
H355 H 0.11114 0.50587 0.73394 0.0
H356 H 0.09502 0.50296 0.81583 0.0
H357 H 0.25336 0.46488 0.79126 0.0
H358 H 0.23439 0.47632 0.71507 0.0
H359 H 0.24274 0.50605 0.77584 0.0
H360 H 0.16492 0.52981 0.56256 0.0
H361 H 0.19038 0.60038 0.70683 0.0
H362 H 0.14216 0.47015 0.66113 0.0
H363 H 0.18398 0.46105 0.65943 0.0
H364 H 0.16422 0.47481 0.58571 0.0
H365 H 0.17181 0.5589 0.84288 0.0
H366 H 0.20246 0.58651 0.81688 0.0
H367 H 0.21221 0.54538 0.8351 0.0
C368 C 0.43933 0.19908 0.68182 0.0
C369 C 0.44254 0.17643 0.63132 0.0
C370 C 0.4637 0.20327 0.72928 0.0
C371 C 0.49191 0.18444 0.726 0.0
C372 C 0.49574 0.16255 0.67353 0.0
C373 C 0.47113 0.15881 0.6272 0.0
C374 C 0.45872 0.22689 0.78438 0.0
C375 C 0.52531 0.14193 0.66783 0.0
C376 C 0.56827 0.20004 0.825 0.0
C377 C 0.56551 0.17706 0.87501 0.0
C378 C 0.54378 0.20399 0.77773 0.0
C379 C 0.51592 0.18457 0.78069 0.0
C380 C 0.51252 0.16237 0.83274 0.0
C381 C 0.53723 0.1589 0.87892 0.0
C382 C 0.54829 0.22799 0.72311 0.0
C383 C 0.48334 0.14111 0.83807 0.0
H384 H 0.41745 0.2129 0.68534 0.0
H385 H 0.4742 0.14151 0.58802 0.0
H386 H 0.45528 0.21379 0.83129 0.0
H387 H 0.48018 0.2423 0.79036 0.0
H388 H 0.4375 0.24235 0.77582 0.0
H389 H 0.5258 0.12804 0.62126 0.0
H390 H 0.54721 0.15691 0.67041 0.0
H391 H 0.52623 0.12486 0.70959 0.0
H392 H 0.58991 0.21428 0.82163 0.0
H393 H 0.5345 0.14132 0.91772 0.0
H394 H 0.52652 0.24292 0.71734 0.0
H395 H 0.55204 0.21519 0.67596 0.0
H396 H 0.56918 0.24389 0.73203 0.0
H397 H 0.46116 0.15563 0.8357 0.0
H398 H 0.48311 0.12703 0.88442 0.0
H399 H 0.48276 0.12419 0.79604 0.0
C400 C 0.83801 0.53714 0.88827 0.0
C401 C 0.83289 0.56918 0.87097 0.0
C402 C 0.8364 0.51278 0.84112 0.0
C403 C 0.83025 0.52075 0.77466 0.0
C404 C 0.82363 0.55296 0.75737 0.0
C405 C 0.8247 0.57686 0.80609 0.0
C406 C 0.84295 0.47871 0.862 0.0
C407 C 0.81738 0.56244 0.6869 0.0
C408 C 0.86879 0.46434 0.65215 0.0
C409 C 0.84274 0.44552 0.63193 0.0
C410 C 0.86475 0.48955 0.69684 0.0
C411 C 0.83399 0.49581 0.72301 0.0
C412 C 0.80754 0.47699 0.70275 0.0
C413 C 0.81219 0.45221 0.65701 0.0
C414 C 0.89354 0.50928 0.71663 0.0
C415 C 0.77452 0.48259 0.73048 0.0
H416 H 0.84405 0.53119 0.93873 0.0
H417 H 0.82096 0.6017 0.79276 0.0
H418 H 0.82437 0.4624 0.84194 0.0
H419 H 0.86636 0.47088 0.84199 0.0
H420 H 0.8436 0.47607 0.91636 0.0
H421 H 0.80931 0.58768 0.68258 0.0
H422 H 0.83968 0.55954 0.65792 0.0
H423 H 0.79901 0.54664 0.66454 0.0
H424 H 0.89242 0.45959 0.63252 0.0
H425 H 0.79195 0.43774 0.64166 0.0
H426 H 0.8985 0.50596 0.76981 0.0
H427 H 0.88864 0.53508 0.70864 0.0
H428 H 0.91536 0.50265 0.68863 0.0
H429 H 0.77476 0.47823 0.78431 0.0
H430 H 0.75623 0.46676 0.70766 0.0
H431 H 0.76729 0.50785 0.72288 0.0
C432 C 0.94042 0.64141 0.80701 0.0
C433 C 0.94004 0.66173 0.8618 0.0
C434 C 0.96564 0.64254 0.76162 0.0
C435 C 0.99149 0.66388 0.77237 0.0
C436 C 0.99106 0.68467 0.82732 0.0
C437 C 0.9651 0.68363 0.87097 0.0
C438 C 0.96486 0.62054 0.70272 0.0
C439 C 0.01852 0.70723 0.84123 0.0
C440 C 0.07 0.64043 0.69211 0.0
C441 C 0.07078 0.66093 0.63762 0.0
C442 C 0.0448 0.64184 0.73753 0.0
C443 C 0.0194 0.66371 0.72713 0.0
C444 C 0.02026 0.6847 0.67251 0.0
C445 C 0.04618 0.68333 0.62881 0.0
C446 C 0.04513 0.61961 0.79607 0.0
C447 C 0.99328 0.70783 0.65901 0.0
H448 H 0.92096 0.62457 0.79974 0.0
H449 H 0.96503 0.69911 0.91376 0.0
H450 H 0.968 0.63455 0.65682 0.0
H451 H 0.98498 0.60328 0.70563 0.0
H452 H 0.94209 0.60686 0.69931 0.0
H453 H 0.01421 0.72227 0.88537 0.0
H454 H 0.04082 0.69331 0.84904 0.0
H455 H 0.02264 0.72315 0.79844 0.0
H456 H 0.08911 0.62321 0.69914 0.0
H457 H 0.04656 0.69898 0.58628 0.0
H458 H 0.02466 0.60274 0.79291 0.0
H459 H 0.04229 0.6335 0.8422 0.0
H460 H 0.06761 0.6055 0.79926 0.0
H461 H 0.97069 0.69438 0.65101 0.0
H462 H 0.99791 0.72296 0.61511 0.0
H463 H 0.98953 0.72366 0.70206 0.0
C464 C 0.36321 0.07195 0.69812 0.0
C465 C 0.34335 0.07285 0.64264 0.0
C466 C 0.36137 0.04652 0.74278 0.0
C467 C 0.33969 0.02115 0.73049 0.0
C468 C 0.319 0.02235 0.6754 0.0
C469 C 0.32083 0.04847 0.63241 0.0
C470 C 0.38327 0.04636 0.80199 0.0
C471 C 0.29604 0.9954 0.66019 0.0
C472 C 0.36408 0.94199 0.80526 0.0
C473 C 0.3442 0.9406 0.86052 0.0
C474 C 0.36195 0.96756 0.761 0.0
C475 C 0.33997 0.9926 0.77348 0.0
C476 C 0.31938 0.99097 0.82852 0.0
C477 C 0.32149 0.96471 0.87109 0.0
C478 C 0.38376 0.96819 0.70185 0.0
C479 C 0.29613 0.01757 0.84396 0.0
H480 H 0.38048 0.09096 0.70614 0.0
H481 H 0.30566 0.04902 0.58908 0.0
H482 H 0.36923 0.04223 0.8475 0.0
H483 H 0.40071 0.02648 0.79766 0.0
H484 H 0.39676 0.06914 0.80726 0.0
H485 H 0.28041 1.00085 0.61737 0.0
H486 H 0.30974 0.97329 0.64936 0.0
H487 H 0.2807 0.99029 0.70338 0.0
H488 H 0.38149 0.92319 0.79699 0.0
H489 H 0.30632 0.96379 0.91425 0.0
H490 H 0.40082 0.98844 0.70618 0.0
H491 H 0.36957 0.972 0.65632 0.0
H492 H 0.39768 0.9457 0.6966 0.0
H493 H 0.30957 0.03991 0.85453 0.0
H494 H 0.28078 0.01191 0.88698 0.0
H495 H 0.28051 0.02239 0.80093 0.0
C496 C 0.97071 0.36109 0.62633 0.0
C497 C 0.94252 0.34295 0.63169 0.0
C498 C 0.99535 0.35841 0.67281 0.0
C499 C 0.99175 0.33719 0.72649 0.0
C500 C 0.96376 0.31816 0.73149 0.0
C501 C 0.93946 0.3212 0.68386 0.0
C502 C 0.02483 0.37909 0.66548 0.0
C503 C 0.95906 0.29536 0.78823 0.0
C504 C 0.06787 0.31986 0.82329 0.0
C505 C 0.0659 0.34271 0.87366 0.0
C506 C 0.04334 0.31688 0.77616 0.0
C507 C 0.01623 0.33716 0.77976 0.0
C508 C 0.01369 0.35954 0.83166 0.0
C509 C 0.03853 0.36209 0.87773 0.0
C510 C 0.0469 0.29281 0.72135 0.0
C511 C 0.98518 0.38158 0.83738 0.0
H512 H 0.97352 0.37775 0.58588 0.0
H513 H 0.9178 0.30706 0.68831 0.0
H514 H 0.02616 0.39638 0.7068 0.0
H515 H 0.04674 0.36414 0.66759 0.0
H516 H 0.02489 0.39271 0.61856 0.0
H517 H 0.93722 0.28043 0.78225 0.0
H518 H 0.98012 0.27937 0.79323 0.0
H519 H 0.95701 0.30909 0.83472 0.0
H520 H 0.08888 0.30474 0.81983 0.0
H521 H 0.03656 0.37964 0.91675 0.0
H522 H 0.04954 0.30552 0.67376 0.0
H523 H 0.02512 0.27769 0.7177 0.0
H524 H 0.06803 0.27706 0.72853 0.0
H525 H 0.98461 0.39816 0.79477 0.0
H526 H 0.98577 0.39602 0.88323 0.0
H527 H 0.96261 0.36757 0.83639 0.0
C528 C 0.68671 0.04886 0.86779 0.0
C529 C 0.6641 0.07319 0.85821 0.0
C530 C 0.68832 0.02278 0.82471 0.0
C531 C 0.66734 0.02155 0.77008 0.0
C532 C 0.64542 0.04677 0.75861 0.0
C533 C 0.64378 0.07215 0.80344 0.0
C534 C 0.7115 0.99596 0.83915 0.0
C535 C 0.62322 0.04658 0.69989 0.0
C536 C 0.68642 0.9659 0.62866 0.0
C537 C 0.66424 0.94124 0.63906 0.0
C538 C 0.68793 0.99216 0.67133 0.0
C539 C 0.6673 0.99324 0.72637 0.0
C540 C 0.64579 0.96773 0.73856 0.0
C541 C 0.64422 0.94217 0.69415 0.0
C542 C 0.71068 0.01928 0.65616 0.0
C543 C 0.62398 0.96774 0.79773 0.0
H544 H 0.70221 0.04949 0.91061 0.0
H545 H 0.62642 0.09109 0.79597 0.0
H546 H 0.69801 0.97357 0.84893 0.0
H547 H 0.727 0.99147 0.79593 0.0
H548 H 0.72698 1.00119 0.88234 0.0
H549 H 0.60936 0.06915 0.69547 0.0
H550 H 0.63709 0.04297 0.654 0.0
H551 H 0.60611 0.02637 0.70405 0.0
H552 H 0.70167 0.96534 0.58558 0.0
H553 H 0.6272 0.92296 0.70225 0.0
H554 H 0.72653 0.02397 0.6989 0.0
H555 H 0.69687 0.04149 0.6468 0.0
H556 H 0.72581 0.01424 0.61251 0.0
H557 H 0.63814 0.97147 0.84332 0.0
H558 H 0.61029 0.94505 0.80246 0.0
H559 H 0.60672 0.98781 0.79393 0.0
C560 C 0.07033 0.36363 0.19923 0.0
C561 C 0.07179 0.3437 0.14391 0.0
C562 C 0.04486 0.36134 0.24386 0.0
C563 C 0.01993 0.33906 0.23204 0.0
C564 C 0.02173 0.31827 0.17723 0.0
C565 C 0.04785 0.32061 0.13415 0.0
C566 C 0.04416 0.38348 0.30254 0.0
C567 C 0.99537 0.29459 0.16238 0.0
C568 C 0.96312 0.32097 0.37306 0.0
C569 C 0.93859 0.34315 0.36137 0.0
C570 C 0.98956 0.31889 0.3307 0.0
C571 C 0.99108 0.33902 0.27476 0.0
C572 C 0.96559 0.36035 0.26113 0.0
C573 C 0.93982 0.36239 0.30499 0.0
C574 C 0.01651 0.29624 0.3474 0.0
C575 C 0.96596 0.38173 0.20124 0.0
H576 H 0.08893 0.38134 0.20717 0.0
H577 H 0.04875 0.30531 0.09115 0.0
H578 H 0.02391 0.40047 0.29756 0.0
H579 H 0.04025 0.36959 0.34833 0.0
H580 H 0.06666 0.39746 0.30771 0.0
H581 H 1.00134 0.27877 0.12026 0.0
H582 H 0.99045 0.27948 0.20606 0.0
H583 H 0.97297 0.30767 0.1506 0.0
H584 H 0.96239 0.30627 0.41697 0.0
H585 H 0.92078 0.37942 0.29566 0.0
H586 H 0.03851 0.31015 0.35855 0.0
H587 H 0.02196 0.28062 0.30479 0.0
H588 H 0.01083 0.28091 0.39048 0.0
H589 H 0.98589 0.39918 0.20529 0.0
H590 H 0.94321 0.39518 0.19517 0.0
H591 H 0.97016 0.36731 0.15626 0.0
C592 C 0.69738 0.94234 0.32158 0.0
C593 C 0.67367 0.94475 0.37017 0.0
C594 C 0.70141 0.96667 0.27419 0.0
C595 C 0.68134 0.99403 0.27557 0.0
C596 C 0.65821 0.99702 0.32593 0.0
C597 C 0.65466 0.97245 0.37227 0.0
C598 C 0.72635 0.9626 0.22129 0.0
C599 C 0.63625 0.02569 0.32948 0.0
C600 C 0.69662 0.07088 0.17878 0.0
C601 C 0.67486 0.06744 0.12658 0.0
C602 C 0.70028 0.04651 0.22624 0.0
C603 C 0.68186 0.01806 0.22113 0.0
C604 C 0.66101 0.01397 0.16685 0.0
C605 C 0.65774 0.03862 0.12058 0.0
C606 C 0.72279 0.05177 0.28334 0.0
C607 C 0.64092 0.9841 0.15914 0.0
H608 H 0.71226 0.92114 0.3196 0.0
H609 H 0.63646 0.97487 0.40988 0.0
H610 H 0.71438 0.95896 0.17312 0.0
H611 H 0.74123 0.98451 0.21715 0.0
H612 H 0.74227 0.94183 0.23094 0.0
H613 H 0.62122 0.02557 0.3745 0.0
H614 H 0.65038 0.04816 0.32854 0.0
H615 H 0.62018 0.02594 0.28594 0.0
H616 H 0.71001 0.09298 0.18376 0.0
H617 H 0.64117 0.03541 0.08002 0.0
H618 H 0.73838 0.03058 0.29045 0.0
H619 H 0.70874 0.05493 0.32913 0.0
H620 H 0.73811 0.07324 0.2763 0.0
H621 H 0.65614 0.96246 0.16304 0.0
H622 H 0.62802 0.98342 0.11132 0.0
H623 H 0.62299 0.98291 0.19927 0.0
C624 C 0.94083 0.69474 0.18075 0.0
C625 C 0.9437 0.67249 0.12947 0.0
C626 C 0.96548 0.69849 0.22752 0.0
C627 C 0.99362 0.67969 0.22246 0.0
C628 C 0.99716 0.65834 0.16903 0.0
C629 C 0.97221 0.65494 0.1235 0.0
C630 C 0.96085 0.7215 0.28387 0.0
C631 C 0.02676 0.6379 0.1615 0.0
C632 C 0.07006 0.69479 0.32036 0.0
C633 C 0.06762 0.67129 0.36938 0.0
C634 C 0.04546 0.69897 0.27365 0.0
C635 C 0.01783 0.67927 0.27636 0.0
C636 C 0.01475 0.65646 0.32734 0.0
C637 C 0.03963 0.65272 0.37292 0.0
C638 C 0.04957 0.72353 0.21995 0.0
C639 C 0.98572 0.63498 0.33225 0.0
H640 H 0.91896 0.70847 0.18554 0.0
H641 H 0.97495 0.63803 0.08349 0.0
H642 H 0.95768 0.70786 0.33022 0.0
H643 H 0.98233 0.73684 0.29008 0.0
H644 H 0.93958 0.73705 0.27659 0.0
H645 H 0.02702 0.62464 0.11414 0.0
H646 H 0.04863 0.6529 0.16444 0.0
H647 H 0.02794 0.62027 0.20224 0.0
H648 H 0.09151 0.70934 0.31743 0.0
H649 H 0.03721 0.63476 0.41107 0.0
H650 H 0.02777 0.73853 0.21553 0.0
H651 H 0.05295 0.71123 0.17212 0.0
H652 H 0.07053 0.73935 0.22889 0.0
H653 H 0.96346 0.64942 0.33113 0.0
H654 H 0.98581 0.62035 0.37787 0.0
H655 H 0.98499 0.61856 0.28939 0.0
C656 C 0.31389 0.94103 0.18017 0.0
C657 C 0.33666 0.94398 0.12986 0.0
C658 C 0.3102 0.96528 0.22784 0.0
C659 C 0.32965 0.9931 0.22492 0.0
C660 C 0.35178 0.99663 0.17285 0.0
C661 C 0.35502 0.97213 0.1263 0.0
C662 C 0.28632 0.96065 0.28259 0.0
C663 C 0.37304 0.02581 0.1676 0.0
C664 C 0.31398 0.06961 0.32223 0.0
C665 C 0.33653 0.06682 0.3732 0.0
C666 C 0.31028 0.04513 0.27507 0.0
C667 C 0.32948 0.01722 0.27916 0.0
C668 C 0.35131 0.01381 0.332 0.0
C669 C 0.35459 0.03857 0.37805 0.0
C670 C 0.28676 0.04968 0.21946 0.0
C671 C 0.37229 0.98453 0.33847 0.0
H672 H 0.29954 0.91947 0.18329 0.0
H673 H 0.37247 0.97498 0.08733 0.0
H674 H 0.29923 0.95745 0.32988 0.0
H675 H 0.27099 0.98216 0.28765 0.0
H676 H 0.27077 0.93944 0.27431 0.0
H677 H 0.38729 0.026 0.12152 0.0
H678 H 0.35843 0.04794 0.16942 0.0
H679 H 0.38981 0.02651 0.20996 0.0
H680 H 0.29984 0.09125 0.31814 0.0
H681 H 0.37184 0.03588 0.41756 0.0
H682 H 0.27142 0.02816 0.21395 0.0
H683 H 0.29998 0.05284 0.17262 0.0
H684 H 0.2712 0.0709 0.22708 0.0
H685 H 0.35756 0.96247 0.33591 0.0
H686 H 0.38604 0.98433 0.38529 0.0
H687 H 0.38951 0.98373 0.29702 0.0
C688 C 0.77647 0.31364 0.3347 0.0
C689 C 0.80105 0.2989 0.37056 0.0
C690 C 0.75861 0.29645 0.28799 0.0
C691 C 0.76477 0.26345 0.27861 0.0
C692 C 0.78937 0.24837 0.31531 0.0
C693 C 0.8076 0.26643 0.3601 0.0
C694 C 0.73334 0.31367 0.24833 0.0
C695 C 0.79608 0.21306 0.30804 0.0
C696 C 0.6978 0.2143 0.20115 0.0
C697 C 0.70926 0.21014 0.13709 0.0
C698 C 0.71597 0.231 0.24826 0.0
C699 C 0.74566 0.24483 0.22992 0.0
C700 C 0.75695 0.24115 0.16474 0.0
C701 C 0.73887 0.22335 0.11944 0.0
C702 C 0.70356 0.23359 0.31773 0.0
C703 C 0.78789 0.25641 0.14254 0.0
H704 H 0.77155 0.33882 0.34252 0.0
H705 H 0.82639 0.25494 0.38836 0.0
H706 H 0.73813 0.31069 0.19501 0.0
H707 H 0.70946 0.30313 0.25822 0.0
H708 H 0.73242 0.33965 0.25971 0.0
H709 H 0.81526 0.20474 0.34187 0.0
H710 H 0.77399 0.19913 0.3181 0.0
H711 H 0.80337 0.20766 0.25682 0.0
H712 H 0.67496 0.2039 0.21472 0.0
H713 H 0.74752 0.22041 0.06954 0.0
H714 H 0.69949 0.25906 0.33051 0.0
H715 H 0.72164 0.22414 0.35276 0.0
H716 H 0.68079 0.22027 0.32473 0.0
H717 H 0.78706 0.2826 0.1514 0.0
H718 H 0.79271 0.25221 0.08953 0.0
H719 H 0.80822 0.24679 0.17154 0.0
C720 C 0.7864 0.69542 0.18942 0.0
C721 C 0.80118 0.71052 0.13587 0.0
C722 C 0.76854 0.71304 0.2353 0.0
C723 C 0.76486 0.74646 0.22668 0.0
C724 C 0.77961 0.76181 0.17256 0.0
C725 C 0.79785 0.74372 0.1282 0.0
C726 C 0.7537 0.69592 0.29311 0.0
C727 C 0.77584 0.79731 0.16109 0.0
C728 C 0.69475 0.78696 0.31207 0.0
C729 C 0.70991 0.80159 0.36584 0.0
C730 C 0.71238 0.76921 0.26597 0.0
C731 C 0.74584 0.76547 0.27464 0.0
C732 C 0.76121 0.78001 0.32907 0.0
C733 C 0.74313 0.79814 0.37361 0.0
C734 C 0.69524 0.75456 0.20787 0.0
C735 C 0.79673 0.77615 0.34067 0.0
H736 H 0.78902 0.6698 0.19577 0.0
H737 H 0.80894 0.75552 0.08657 0.0
H738 H 0.76238 0.70664 0.33977 0.0
H739 H 0.72731 0.69881 0.29198 0.0
H740 H 0.75935 0.66995 0.29345 0.0
H741 H 0.78829 0.80548 0.11587 0.0
H742 H 0.75007 0.80342 0.1568 0.0
H743 H 0.78554 0.81083 0.20364 0.0
H744 H 0.66912 0.78967 0.30565 0.0
H745 H 0.75498 0.80912 0.4154 0.0
H746 H 0.69807 0.72818 0.20867 0.0
H747 H 0.70602 0.76331 0.16139 0.0
H748 H 0.66927 0.76028 0.20745 0.0
H749 H 0.80279 0.75038 0.34467 0.0
H750 H 0.80492 0.78848 0.38609 0.0
H751 H 0.81029 0.78591 0.29831 0.0
C752 C 0.31695 0.78563 0.1877 0.0
C753 C 0.30157 0.80024 0.13421 0.0
C754 C 0.2995 0.76774 0.23398 0.0
C755 C 0.26602 0.76387 0.22576 0.0
C756 C 0.25045 0.77836 0.17155 0.0
C757 C 0.26834 0.79661 0.12685 0.0
C758 C 0.31685 0.75314 0.29185 0.0
C759 C 0.2149 0.77436 0.16041 0.0
C760 C 0.22526 0.69383 0.31101 0.0
C761 C 0.21044 0.70896 0.36443 0.0
C762 C 0.24331 0.71142 0.26531 0.0
C763 C 0.24714 0.74483 0.27398 0.0
C764 C 0.23241 0.76019 0.32809 0.0
C765 C 0.21399 0.74213 0.37226 0.0
C766 C 0.25811 0.69429 0.20751 0.0
C767 C 0.23633 0.79567 0.3396 0.0
H768 H 0.34258 0.78848 0.19379 0.0
H769 H 0.25632 0.80757 0.08528 0.0
H770 H 0.30625 0.76192 0.33847 0.0
H771 H 0.31397 0.72676 0.29119 0.0
H772 H 0.34282 0.75888 0.29182 0.0
H773 H 0.20656 0.78659 0.115 0.0
H774 H 0.20884 0.74857 0.15668 0.0
H775 H 0.20146 0.78416 0.20286 0.0
H776 H 0.2225 0.66822 0.30457 0.0
H777 H 0.20288 0.75394 0.41382 0.0
H778 H 0.28449 0.69736 0.20835 0.0
H779 H 0.24927 0.70488 0.16085 0.0
H780 H 0.25257 0.66829 0.20741 0.0
H781 H 0.26213 0.80179 0.3434 0.0
H782 H 0.2241 0.8038 0.38509 0.0
H783 H 0.22645 0.80922 0.29728 0.0
C784 C 0.27894 0.19389 0.32343 0.0
C785 C 0.30221 0.20975 0.36097 0.0
C786 C 0.26089 0.21038 0.27599 0.0
C787 C 0.26544 0.24373 0.26777 0.0
C788 C 0.28877 0.25988 0.30609 0.0
C789 C 0.30728 0.24255 0.35148 0.0
C790 C 0.23704 0.19211 0.23457 0.0
C791 C 0.29371 0.29555 0.30014 0.0
C792 C 0.23953 0.2851 0.11006 0.0
C793 C 0.20939 0.29709 0.12742 0.0
C794 C 0.25766 0.267 0.15472 0.0
C795 C 0.24583 0.26177 0.21905 0.0
C796 C 0.21547 0.2741 0.23697 0.0
C797 C 0.19732 0.29115 0.19044 0.0
C798 C 0.2894 0.25337 0.13297 0.0
C799 C 0.20246 0.26986 0.30564 0.0
H800 H 0.27516 0.16846 0.33069 0.0
H801 H 0.32501 0.25487 0.38119 0.0
H802 H 0.2125 0.20105 0.24406 0.0
H803 H 0.24208 0.196 0.1816 0.0
H804 H 0.23759 0.16599 0.24475 0.0
H805 H 0.31216 0.30462 0.33491 0.0
H806 H 0.30112 0.30175 0.24938 0.0
H807 H 0.27085 0.3082 0.30987 0.0
H808 H 0.2487 0.28945 0.06099 0.0
H809 H 0.17409 0.30066 0.20389 0.0
H810 H 0.28977 0.22713 0.1412 0.0
H811 H 0.30907 0.26383 0.16271 0.0
H812 H 0.29432 0.25814 0.08019 0.0
H813 H 0.19991 0.24404 0.3171 0.0
H814 H 0.17881 0.28157 0.31212 0.0
H815 H 0.2195 0.28009 0.34196 0.0
C816 C 0.24112 0.71617 0.62576 0.0
C817 C 0.2081 0.71128 0.63361 0.0
C818 C 0.2586 0.73491 0.67042 0.0
C819 C 0.24283 0.74866 0.72506 0.0
C820 C 0.20952 0.74371 0.73355 0.0
C821 C 0.19248 0.72531 0.68734 0.0
C822 C 0.29397 0.74001 0.65905 0.0
C823 C 0.19199 0.75753 0.79183 0.0
C824 C 0.29536 0.76949 0.87159 0.0
C825 C 0.29868 0.80276 0.86504 0.0
C826 C 0.27673 0.75175 0.82716 0.0
C827 C 0.26149 0.76752 0.77408 0.0
C828 C 0.26487 0.80107 0.76689 0.0
C829 C 0.2832 0.81834 0.81283 0.0
C830 C 0.27335 0.71609 0.83708 0.0
C831 C 0.24944 0.81864 0.71025 0.0
H832 H 0.25333 0.70571 0.58399 0.0
H833 H 0.16699 0.72153 0.69377 0.0
H834 H 0.29937 0.76598 0.65684 0.0
H835 H 0.30787 0.72992 0.7007 0.0
H836 H 0.30238 0.72866 0.6128 0.0
H837 H 0.16608 0.75151 0.79129 0.0
H838 H 0.20266 0.74834 0.83814 0.0
H839 H 0.1946 0.78394 0.79243 0.0
H840 H 0.30695 0.75729 0.91221 0.0
H841 H 0.28574 0.84402 0.8074 0.0
H842 H 0.28348 0.70316 0.79428 0.0
H843 H 0.24766 0.70951 0.84031 0.0
H844 H 0.28569 0.70766 0.88232 0.0
H845 H 0.25845 0.80899 0.66295 0.0
H846 H 0.2543 0.84477 0.71175 0.0
H847 H 0.22316 0.81485 0.71091 0.0
C848 C 0.29106 0.19866 0.69375 0.0
C849 C 0.29725 0.21035 0.63054 0.0
C850 C 0.27337 0.21687 0.73899 0.0
C851 C 0.26061 0.24683 0.71942 0.0
C852 C 0.2661 0.25823 0.65485 0.0
C853 C 0.28487 0.2401 0.61158 0.0
C854 C 0.26889 0.20438 0.80803 0.0
C855 C 0.25203 0.28949 0.63135 0.0
C856 C 0.19176 0.28003 0.82068 0.0
C857 C 0.20719 0.30386 0.85737 0.0
C858 C 0.2087 0.26172 0.77448 0.0
C859 C 0.24206 0.2666 0.76681 0.0
C860 C 0.25776 0.29052 0.8043 0.0
C861 C 0.23999 0.30925 0.84833 0.0
C862 C 0.19091 0.23724 0.7338 0.0
C863 C 0.29343 0.29584 0.79897 0.0
H864 H 0.30081 0.17568 0.70829 0.0
H865 H 0.28938 0.24892 0.56228 0.0
H866 H 0.27865 0.22186 0.84395 0.0
H867 H 0.24303 0.20153 0.81882 0.0
H868 H 0.28093 0.18099 0.8158 0.0
H869 H 0.25698 0.29399 0.57848 0.0
H870 H 0.22573 0.2895 0.63894 0.0
H871 H 0.26204 0.30961 0.66044 0.0
H872 H 0.16635 0.27596 0.82771 0.0
H873 H 0.252 0.32739 0.87749 0.0
H874 H 0.20012 0.21293 0.74469 0.0
H875 H 0.195 0.24177 0.68069 0.0
H876 H 0.16473 0.23756 0.74333 0.0
H877 H 0.30632 0.27325 0.80997 0.0
H878 H 0.30212 0.3147 0.83314 0.0
H879 H 0.29977 0.30287 0.74805 0.0
C880 C 0.81499 0.28218 0.68044 0.0
C881 C 0.79989 0.30595 0.64305 0.0
C882 C 0.79775 0.26409 0.72658 0.0
C883 C 0.76441 0.26915 0.73365 0.0
C884 C 0.74905 0.29311 0.69576 0.0
C885 C 0.76711 0.31161 0.65167 0.0
C886 C 0.81521 0.23954 0.76764 0.0
C887 C 0.71341 0.29865 0.70058 0.0
C888 C 0.71542 0.20083 0.80575 0.0
C889 C 0.70941 0.21215 0.86931 0.0
C890 C 0.73288 0.21937 0.76063 0.0
C891 C 0.74555 0.24934 0.78057 0.0
C892 C 0.7401 0.26046 0.84534 0.0
C893 C 0.72162 0.24196 0.88857 0.0
C894 C 0.73742 0.20711 0.69144 0.0
C895 C 0.75407 0.29172 0.86923 0.0
H896 H 0.84039 0.27791 0.67387 0.0
H897 H 0.75535 0.32972 0.62208 0.0
H898 H 0.81079 0.24399 0.82066 0.0
H899 H 0.80601 0.21526 0.75632 0.0
H900 H 0.84146 0.23986 0.75886 0.0
H901 H 0.70504 0.31777 0.66672 0.0
H902 H 0.70038 0.27621 0.68877 0.0
H903 H 0.7069 0.3054 0.75156 0.0
H904 H 0.70584 0.1778 0.79094 0.0
H905 H 0.71731 0.25049 0.93814 0.0
H906 H 0.76328 0.20403 0.68102 0.0
H907 H 0.72801 0.22483 0.65564 0.0
H908 H 0.72512 0.18388 0.68314 0.0
H909 H 0.78043 0.2917 0.8624 0.0
H910 H 0.74879 0.29622 0.92195 0.0
H911 H 0.74433 0.31184 0.83983 0.0
C912 C 0.71567 0.77057 0.62813 0.0
C913 C 0.71191 0.80377 0.63501 0.0
C914 C 0.73442 0.75298 0.67255 0.0
C915 C 0.74935 0.76883 0.72595 0.0
C916 C 0.74553 0.80231 0.73346 0.0
C917 C 0.72707 0.81944 0.68754 0.0
C918 C 0.73826 0.7174 0.6623 0.0
C919 C 0.76061 0.81995 0.79043 0.0
C920 C 0.76979 0.71734 0.87394 0.0
C921 C 0.80288 0.71281 0.8664 0.0
C922 C 0.75227 0.73601 0.82931 0.0
C923 C 0.76806 0.75009 0.77502 0.0
C924 C 0.80144 0.74555 0.76687 0.0
C925 C 0.81852 0.72717 0.81303 0.0
C926 C 0.71681 0.74064 0.84028 0.0
C927 C 0.819 0.75976 0.70899 0.0
H928 H 0.70433 0.75831 0.58728 0.0
H929 H 0.72419 0.84506 0.69322 0.0
H930 H 0.76404 0.71118 0.65933 0.0
H931 H 0.72814 0.70422 0.70483 0.0
H932 H 0.72616 0.70892 0.61681 0.0
H933 H 0.75549 0.84602 0.78907 0.0
H934 H 0.75156 0.81009 0.83753 0.0
H935 H 0.78693 0.81648 0.79007 0.0
H936 H 0.75755 0.70661 0.91542 0.0
H937 H 0.84405 0.72369 0.80682 0.0
H938 H 0.70314 0.73046 0.79838 0.0
H939 H 0.71113 0.76654 0.84262 0.0
H940 H 0.70839 0.72909 0.88633 0.0
H941 H 0.80861 0.75053 0.66244 0.0
H942 H 0.84498 0.75411 0.70986 0.0
H943 H 0.81607 0.78613 0.70858 0.0
loop_
_geom_bond_atom_site_label_1
_geom_bond_atom_site_label_2
_geom_bond_distance
_geom_bond_site_symmetry_2
_ccdc_geom_bond_type
Fe0 O2 1.918 . S
Fe0 O5 1.997 1_554 S
Fe0 O6 2.002 1_554 S
Fe0 O11 1.976 . S
Fe0 O14 1.996 . S
Fe1 O2 1.918 . S
Fe1 O9 1.997 1_554 S
Fe1 O12 1.996 . S
Fe1 O16 1.976 . S
Fe1 O19 2.002 1_554 S
O2 Fe0 1.918 . S
O2 Fe1 1.918 . S
O2 Fe3 1.918 . S
Fe3 O2 1.918 . S
Fe3 O4 2.002 1_554 S
Fe3 O13 1.976 . S
Fe3 O17 1.996 . S
Fe3 O20 1.997 1_554 S
O4 Fe3 2.002 1_556 S
O4 C21 1.295 . S
O5 Fe0 1.997 1_556 S
O5 C21 1.235 . S
O6 Fe0 2.002 1_556 S
O6 C7 1.295 . S
C7 O6 1.295 . S
C7 O9 1.235 . S
C8 O13 1.287 . S
C8 O14 1.255 . S
O9 Fe1 1.997 1_556 S
O9 C7 1.235 . S
C10 O16 1.287 . S
C10 O17 1.255 . S
O11 Fe0 1.976 . S
O11 C18 1.287 . S
O12 Fe1 1.996 . S
O12 C18 1.255 . S
O13 Fe3 1.976 . S
O13 C8 1.287 . S
O14 Fe0 1.996 . S
O14 C8 1.255 . S
C15 O19 1.295 . S
C15 O20 1.235 . S
O16 Fe1 1.976 . S
O16 C10 1.287 . S
O17 Fe3 1.996 . S
O17 C10 1.255 . S
C18 O11 1.287 . S
C18 O12 1.255 . S
O19 Fe1 2.002 1_556 S
O19 C15 1.295 . S
O20 Fe3 1.997 1_556 S
O20 C15 1.235 . S
C21 O4 1.295 . S
C21 O5 1.235 . S
Fe22 O24 1.918 . S
Fe22 O27 1.997 1_556 S
Fe22 O28 2.002 1_556 S
Fe22 O33 1.976 . S
Fe22 O36 1.996 . S
Fe23 O24 1.918 . S
Fe23 O31 1.997 1_556 S
Fe23 O34 1.996 . S
Fe23 O38 1.976 . S
Fe23 O41 2.002 1_556 S
O24 Fe22 1.918 . S
O24 Fe23 1.918 . S
O24 Fe25 1.918 . S
Fe25 O24 1.918 . S
Fe25 O26 2.002 1_556 S
Fe25 O35 1.976 . S
Fe25 O39 1.996 . S
Fe25 O42 1.997 1_556 S
O26 Fe25 2.002 1_554 S
O26 C43 1.295 . S
O27 Fe22 1.997 1_554 S
O27 C43 1.235 . S
O28 Fe22 2.002 1_554 S
O28 C29 1.295 . S
C29 O28 1.295 . S
C29 O31 1.235 . S
C30 O35 1.287 . S
C30 O36 1.255 . S
O31 Fe23 1.997 1_554 S
O31 C29 1.235 . S
C32 O38 1.287 . S
C32 O39 1.255 . S
O33 Fe22 1.976 . S
O33 C40 1.287 . S
O34 Fe23 1.996 . S
O34 C40 1.255 . S
O35 Fe25 1.976 . S
O35 C30 1.287 . S
O36 Fe22 1.996 . S
O36 C30 1.255 . S
C37 O41 1.295 . S
C37 O42 1.235 . S
O38 Fe23 1.976 . S
O38 C32 1.287 . S
O39 Fe25 1.996 . S
O39 C32 1.255 . S
C40 O33 1.287 . S
C40 O34 1.255 . S
O41 Fe23 2.002 1_554 S
O41 C37 1.295 . S
O42 Fe25 1.997 1_554 S
O42 C37 1.235 . S
C43 O26 1.295 . S
C43 O27 1.235 . S
Fe44 O46 1.918 . S
Fe44 O49 1.997 1_556 S
Fe44 O50 2.002 1_556 S
Fe44 O55 1.976 . S
Fe44 O58 1.996 . S
Fe45 O46 1.918 . S
Fe45 O53 1.997 1_556 S
Fe45 O56 1.996 . S
Fe45 O60 1.976 . S
Fe45 O63 2.002 1_556 S
O46 Fe44 1.918 . S
O46 Fe45 1.918 . S
O46 Fe47 1.918 . S
Fe47 O46 1.918 . S
Fe47 O48 2.002 1_556 S
Fe47 O57 1.976 . S
Fe47 O61 1.996 . S
Fe47 O64 1.997 1_556 S
O48 Fe47 2.002 1_554 S
O48 C65 1.295 . S
O49 Fe44 1.997 1_554 S
O49 C65 1.235 . S
O50 Fe44 2.002 1_554 S
O50 C51 1.295 . S
C51 O50 1.295 . S
C51 O53 1.235 . S
C52 O57 1.287 . S
C52 O58 1.255 . S
O53 Fe45 1.997 1_554 S
O53 C51 1.235 . S
C54 O60 1.287 . S
C54 O61 1.255 . S
O55 Fe44 1.976 . S
O55 C62 1.287 . S
O56 Fe45 1.996 . S
O56 C62 1.255 . S
O57 Fe47 1.976 . S
O57 C52 1.287 . S
O58 Fe44 1.996 . S
O58 C52 1.255 . S
C59 O63 1.295 . S
C59 O64 1.235 . S
O60 Fe45 1.976 . S
O60 C54 1.287 . S
O61 Fe47 1.996 . S
O61 C54 1.255 . S
C62 O55 1.287 . S
C62 O56 1.255 . S
O63 Fe45 2.002 1_554 S
O63 C59 1.295 . S
O64 Fe47 1.997 1_554 S
O64 C59 1.235 . S
C65 O48 1.295 . S
C65 O49 1.235 . S
Fe66 O68 1.918 . S
Fe66 O71 1.997 1_556 S
Fe66 O72 2.002 1_556 S
Fe66 O77 1.976 . S
Fe66 O80 1.996 . S
Fe67 O68 1.918 . S
Fe67 O75 1.997 1_556 S
Fe67 O78 1.996 . S
Fe67 O82 1.976 . S
Fe67 O85 2.002 1_556 S
O68 Fe66 1.918 . S
O68 Fe67 1.918 . S
O68 Fe69 1.918 . S
Fe69 O68 1.918 . S
Fe69 O70 2.002 1_556 S
Fe69 O79 1.976 . S
Fe69 O83 1.996 . S
Fe69 O86 1.997 1_556 S
O70 Fe69 2.002 1_554 S
O70 C87 1.295 . S
O71 Fe66 1.997 1_554 S
O71 C87 1.235 . S
O72 Fe66 2.002 1_554 S
O72 C73 1.295 . S
C73 O72 1.295 . S
C73 O75 1.235 . S
C74 O79 1.287 . S
C74 O80 1.255 . S
O75 Fe67 1.997 1_554 S
O75 C73 1.235 . S
C76 O82 1.287 . S
C76 O83 1.255 . S
O77 Fe66 1.976 . S
O77 C84 1.287 . S
O78 Fe67 1.996 . S
O78 C84 1.255 . S
O79 Fe69 1.976 . S
O79 C74 1.287 . S
O80 Fe66 1.996 . S
O80 C74 1.255 . S
C81 O85 1.295 . S
C81 O86 1.235 . S
O82 Fe67 1.976 . S
O82 C76 1.287 . S
O83 Fe69 1.996 . S
O83 C76 1.255 . S
C84 O77 1.287 . S
C84 O78 1.255 . S
O85 Fe67 2.002 1_554 S
O85 C81 1.295 . S
O86 Fe69 1.997 1_554 S
O86 C81 1.235 . S
C87 O70 1.295 . S
C87 O71 1.235 . S
Fe88 O90 1.918 . S
Fe88 O93 1.997 . S
Fe88 O94 2.002 . S
Fe88 O99 1.976 . S
Fe88 O102 1.996 . S
Fe89 O90 1.918 . S
Fe89 O97 1.997 . S
Fe89 O100 1.996 . S
Fe89 O104 1.976 . S
Fe89 O107 2.002 . S
O90 Fe88 1.918 . S
O90 Fe89 1.918 . S
O90 Fe91 1.918 . S
Fe91 O90 1.918 . S
Fe91 O92 2.002 . S
Fe91 O101 1.976 . S
Fe91 O105 1.996 . S
Fe91 O108 1.997 . S
O92 Fe91 2.002 . S
O92 C109 1.295 . S
O93 Fe88 1.997 . S
O93 C109 1.235 . S
O94 Fe88 2.002 . S
O94 C95 1.295 . S
C95 O94 1.295 . S
C95 O97 1.235 . S
C96 O101 1.287 . S
C96 O102 1.255 . S
O97 Fe89 1.997 . S
O97 C95 1.235 . S
C98 O104 1.287 . S
C98 O105 1.255 . S
O99 Fe88 1.976 . S
O99 C106 1.287 . S
O100 Fe89 1.996 . S
O100 C106 1.255 . S
O101 Fe91 1.976 . S
O101 C96 1.287 . S
O102 Fe88 1.996 . S
O102 C96 1.255 . S
C103 O107 1.295 . S
C103 O108 1.235 . S
O104 Fe89 1.976 . S
O104 C98 1.287 . S
O105 Fe91 1.996 . S
O105 C98 1.255 . S
C106 O99 1.287 . S
C106 O100 1.255 . S
O107 Fe89 2.002 . S
O107 C103 1.295 . S
O108 Fe91 1.997 . S
O108 C103 1.235 . S
C109 O92 1.295 . S
C109 O93 1.235 . S
Fe110 O112 1.918 . S
Fe110 O115 1.997 . S
Fe110 O116 2.002 . S
Fe110 O121 1.976 . S
Fe110 O124 1.996 . S
Fe111 O112 1.918 . S
Fe111 O119 1.997 . S
Fe111 O122 1.996 . S
Fe111 O126 1.976 . S
Fe111 O129 2.002 . S
O112 Fe110 1.918 . S
O112 Fe111 1.918 . S
O112 Fe113 1.918 . S
Fe113 O112 1.918 . S
Fe113 O114 2.002 . S
Fe113 O123 1.976 . S
Fe113 O127 1.996 . S
Fe113 O130 1.997 . S
O114 Fe113 2.002 . S
O114 C131 1.295 . S
O115 Fe110 1.997 . S
O115 C131 1.235 . S
O116 Fe110 2.002 . S
O116 C117 1.295 . S
C117 O116 1.295 . S
C117 O119 1.235 . S
C118 O123 1.287 . S
C118 O124 1.255 . S
O119 Fe111 1.997 . S
O119 C117 1.235 . S
C120 O126 1.287 . S
C120 O127 1.255 . S
O121 Fe110 1.976 . S
O121 C128 1.287 . S
O122 Fe111 1.996 . S
O122 C128 1.255 . S
O123 Fe113 1.976 . S
O123 C118 1.287 . S
O124 Fe110 1.996 . S
O124 C118 1.255 . S
C125 O129 1.295 . S
C125 O130 1.235 . S
O126 Fe111 1.976 . S
O126 C120 1.287 . S
O127 Fe113 1.996 . S
O127 C120 1.255 . S
C128 O121 1.287 . S
C128 O122 1.255 . S
O129 Fe111 2.002 . S
O129 C125 1.295 . S
O130 Fe113 1.997 . S
O130 C125 1.235 . S
C131 O114 1.295 . S
C131 O115 1.235 . S
Fe132 O134 1.918 . S
Fe132 O137 1.997 . S
Fe132 O138 2.002 . S
Fe132 O143 1.976 . S
Fe132 O146 1.996 . S
Fe133 O134 1.918 . S
Fe133 O141 1.997 . S
Fe133 O144 1.996 . S
Fe133 O148 1.976 . S
Fe133 O151 2.002 . S
O134 Fe132 1.918 . S
O134 Fe133 1.918 . S
O134 Fe135 1.918 . S
Fe135 O134 1.918 . S
Fe135 O136 2.002 . S
Fe135 O145 1.976 . S
Fe135 O149 1.996 . S
Fe135 O152 1.997 . S
O136 Fe135 2.002 . S
O136 C153 1.295 . S
O137 Fe132 1.997 . S
O137 C153 1.235 . S
O138 Fe132 2.002 . S
O138 C139 1.295 . S
C139 O138 1.295 . S
C139 O141 1.235 . S
C140 O145 1.287 . S
C140 O146 1.255 . S
O141 Fe133 1.997 . S
O141 C139 1.235 . S
C142 O148 1.287 . S
C142 O149 1.255 . S
O143 Fe132 1.976 . S
O143 C150 1.287 . S
O144 Fe133 1.996 . S
O144 C150 1.255 . S
O145 Fe135 1.976 . S
O145 C140 1.287 . S
O146 Fe132 1.996 . S
O146 C140 1.255 . S
C147 O151 1.295 . S
C147 O152 1.235 . S
O148 Fe133 1.976 . S
O148 C142 1.287 . S
O149 Fe135 1.996 . S
O149 C142 1.255 . S
C150 O143 1.287 . S
C150 O144 1.255 . S
O151 Fe133 2.002 . S
O151 C147 1.295 . S
O152 Fe135 1.997 . S
O152 C147 1.235 . S
C153 O136 1.295 . S
C153 O137 1.235 . S
Fe154 O156 1.918 . S
Fe154 O159 1.997 . S
Fe154 O160 2.002 . S
Fe154 O165 1.976 . S
Fe154 O168 1.996 . S
Fe155 O156 1.918 . S
Fe155 O163 1.997 . S
Fe155 O166 1.996 . S
Fe155 O170 1.976 . S
Fe155 O173 2.002 . S
O156 Fe154 1.918 . S
O156 Fe155 1.918 . S
O156 Fe157 1.918 . S
Fe157 O156 1.918 . S
Fe157 O158 2.002 . S
Fe157 O167 1.976 . S
Fe157 O171 1.996 . S
Fe157 O174 1.997 . S
O158 Fe157 2.002 . S
O158 C175 1.295 . S
O159 Fe154 1.997 . S
O159 C175 1.235 . S
O160 Fe154 2.002 . S
O160 C161 1.295 . S
C161 O160 1.295 . S
C161 O163 1.235 . S
C162 O167 1.287 . S
C162 O168 1.255 . S
O163 Fe155 1.997 . S
O163 C161 1.235 . S
C164 O170 1.287 . S
C164 O171 1.255 . S
O165 Fe154 1.976 . S
O165 C172 1.287 . S
O166 Fe155 1.996 . S
O166 C172 1.255 . S
O167 Fe157 1.976 . S
O167 C162 1.287 . S
O168 Fe154 1.996 . S
O168 C162 1.255 . S
C169 O173 1.295 . S
C169 O174 1.235 . S
O170 Fe155 1.976 . S
O170 C164 1.287 . S
O171 Fe157 1.996 . S
O171 C164 1.255 . S
C172 O165 1.287 . S
C172 O166 1.255 . S
O173 Fe155 2.002 . S
O173 C169 1.295 . S
O174 Fe157 1.997 . S
O174 C169 1.235 . S
C175 O158 1.295 . S
C175 O159 1.235 . S
C176 C177 1.391 . S
C176 C178 1.394 . S
C176 H192 0.931 . S
C177 C176 1.391 . S
C177 C181 1.376 . S
C178 C176 1.394 . S
C178 C179 1.369 . S
C178 C182 1.531 . S
C179 C178 1.369 . S
C179 C180 1.410 . S
C179 C187 1.503 . S
C180 C179 1.410 . S
C180 C181 1.392 . S
C180 C183 1.511 . S
C181 C177 1.376 . S
C181 C180 1.392 . S
C181 H193 0.929 . S
C182 C178 1.531 . S
C182 H194 0.960 . S
C182 H195 0.962 . S
C182 H196 0.960 . S
C183 C180 1.511 . S
C183 H197 0.961 . S
C183 H198 0.961 . S
C183 H199 0.961 . S
C184 C185 1.370 . S
C184 C186 1.363 . S
C184 H200 0.931 . S
C185 C184 1.370 . S
C185 C189 1.408 . S
C186 C184 1.363 . S
C186 C187 1.370 . S
C186 C190 1.524 . S
C187 C179 1.503 . S
C187 C186 1.370 . S
C187 C188 1.403 . S
C188 C187 1.403 . S
C188 C189 1.404 . S
C188 C191 1.539 . S
C189 C185 1.408 . S
C189 C188 1.404 . S
C189 H201 0.930 . S
C190 C186 1.524 . S
C190 H202 0.956 . S
C190 H203 0.961 . S
C190 H204 0.961 . S
C191 C188 1.539 . S
C191 H205 0.958 . S
C191 H206 0.961 . S
C191 H207 0.960 . S
H192 C176 0.931 . S
H193 C181 0.929 . S
H194 C182 0.960 . S
H195 C182 0.962 . S
H196 C182 0.960 . S
H197 C183 0.961 . S
H198 C183 0.961 . S
H199 C183 0.961 . S
H200 C184 0.931 . S
H201 C189 0.930 . S
H202 C190 0.956 . S
H203 C190 0.961 . S
H204 C190 0.961 . S
H205 C191 0.958 . S
H206 C191 0.961 . S
H207 C191 0.960 . S
C208 C209 1.391 . S
C208 C210 1.394 . S
C208 H224 0.931 . S
C209 C208 1.391 . S
C209 C213 1.376 . S
C210 C208 1.394 . S
C210 C211 1.369 . S
C210 C214 1.531 . S
C211 C210 1.369 . S
C211 C212 1.410 . S
C211 C219 1.503 . S
C212 C211 1.410 . S
C212 C213 1.392 . S
C212 C215 1.511 . S
C213 C209 1.376 . S
C213 C212 1.392 . S
C213 H225 0.929 . S
C214 C210 1.531 . S
C214 H226 0.960 . S
C214 H227 0.962 . S
C214 H228 0.960 . S
C215 C212 1.511 . S
C215 H229 0.961 . S
C215 H230 0.961 . S
C215 H231 0.961 . S
C216 C217 1.370 . S
C216 C218 1.363 . S
C216 H232 0.931 . S
C217 C216 1.370 . S
C217 C221 1.408 . S
C218 C216 1.363 . S
C218 C219 1.370 . S
C218 C222 1.524 . S
C219 C211 1.503 . S
C219 C218 1.370 . S
C219 C220 1.403 . S
C220 C219 1.403 . S
C220 C221 1.404 . S
C220 C223 1.539 . S
C221 C217 1.408 . S
C221 C220 1.404 . S
C221 H233 0.930 . S
C222 C218 1.524 . S
C222 H234 0.956 . S
C222 H235 0.961 . S
C222 H236 0.961 . S
C223 C220 1.539 . S
C223 H237 0.958 . S
C223 H238 0.961 . S
C223 H239 0.960 . S
H224 C208 0.931 . S
H225 C213 0.929 . S
H226 C214 0.960 . S
H227 C214 0.962 . S
H228 C214 0.960 . S
H229 C215 0.961 . S
H230 C215 0.961 . S
H231 C215 0.961 . S
H232 C216 0.931 . S
H233 C221 0.930 . S
H234 C222 0.956 . S
H235 C222 0.961 . S
H236 C222 0.961 . S
H237 C223 0.958 . S
H238 C223 0.961 . S
H239 C223 0.960 . S
C240 C241 1.391 . S
C240 C242 1.394 . S
C240 H256 0.931 . S
C241 C240 1.391 . S
C241 C245 1.376 . S
C242 C240 1.394 . S
C242 C243 1.369 . S
C242 C246 1.531 . S
C243 C242 1.369 . S
C243 C244 1.410 . S
C243 C251 1.503 . S
C244 C243 1.410 . S
C244 C245 1.392 . S
C244 C247 1.511 . S
C245 C241 1.376 . S
C245 C244 1.392 . S
C245 H257 0.929 . S
C246 C242 1.531 . S
C246 H258 0.960 . S
C246 H259 0.962 . S
C246 H260 0.960 . S
C247 C244 1.511 . S
C247 H261 0.961 . S
C247 H262 0.961 . S
C247 H263 0.961 . S
C248 C249 1.370 . S
C248 C250 1.363 . S
C248 H264 0.931 . S
C249 C248 1.370 . S
C249 C253 1.408 . S
C250 C248 1.363 . S
C250 C251 1.370 . S
C250 C254 1.524 . S
C251 C243 1.503 . S
C251 C250 1.370 . S
C251 C252 1.403 . S
C252 C251 1.403 . S
C252 C253 1.404 . S
C252 C255 1.539 . S
C253 C249 1.408 . S
C253 C252 1.404 . S
C253 H265 0.930 . S
C254 C250 1.524 . S
C254 H266 0.956 . S
C254 H267 0.961 . S
C254 H268 0.961 . S
C255 C252 1.539 . S
C255 H269 0.958 . S
C255 H270 0.961 . S
C255 H271 0.960 . S
H256 C240 0.931 . S
H257 C245 0.929 . S
H258 C246 0.960 . S
H259 C246 0.962 . S
H260 C246 0.960 . S
H261 C247 0.961 . S
H262 C247 0.961 . S
H263 C247 0.961 . S
H264 C248 0.931 . S
H265 C253 0.930 . S
H266 C254 0.956 . S
H267 C254 0.961 . S
H268 C254 0.961 . S
H269 C255 0.958 . S
H270 C255 0.961 . S
H271 C255 0.960 . S
C272 C273 1.391 . S
C272 C274 1.394 . S
C272 H288 0.931 . S
C273 C272 1.391 . S
C273 C277 1.376 . S
C274 C272 1.394 . S
C274 C275 1.369 . S
C274 C278 1.531 . S
C275 C274 1.369 . S
C275 C276 1.410 . S
C275 C283 1.503 . S
C276 C275 1.410 . S
C276 C277 1.392 . S
C276 C279 1.511 . S
C277 C273 1.376 . S
C277 C276 1.392 . S
C277 H289 0.929 . S
C278 C274 1.531 . S
C278 H290 0.960 . S
C278 H291 0.962 . S
C278 H292 0.960 . S
C279 C276 1.511 . S
C279 H293 0.961 . S
C279 H294 0.961 . S
C279 H295 0.961 . S
C280 C281 1.370 . S
C280 C282 1.363 . S
C280 H296 0.931 . S
C281 C280 1.370 . S
C281 C285 1.408 . S
C282 C280 1.363 . S
C282 C283 1.370 . S
C282 C286 1.524 . S
C283 C275 1.503 . S
C283 C282 1.370 . S
C283 C284 1.403 . S
C284 C283 1.403 . S
C284 C285 1.404 . S
C284 C287 1.539 . S
C285 C281 1.408 . S
C285 C284 1.404 . S
C285 H297 0.930 . S
C286 C282 1.524 . S
C286 H298 0.956 . S
C286 H299 0.961 . S
C286 H300 0.961 . S
C287 C284 1.539 . S
C287 H301 0.958 . S
C287 H302 0.961 . S
C287 H303 0.960 . S
H288 C272 0.931 . S
H289 C277 0.929 . S
H290 C278 0.960 . S
H291 C278 0.962 . S
H292 C278 0.960 . S
H293 C279 0.961 . S
H294 C279 0.961 . S
H295 C279 0.961 . S
H296 C280 0.931 . S
H297 C285 0.930 . S
H298 C286 0.956 . S
H299 C286 0.961 . S
H300 C286 0.961 . S
H301 C287 0.958 . S
H302 C287 0.961 . S
H303 C287 0.960 . S
C304 C305 1.391 . S
C304 C306 1.394 . S
C304 H320 0.931 . S
C305 C304 1.391 . S
C305 C309 1.376 . S
C306 C304 1.394 . S
C306 C307 1.369 . S
C306 C310 1.531 . S
C307 C306 1.369 . S
C307 C308 1.410 . S
C307 C315 1.503 . S
C308 C307 1.410 . S
C308 C309 1.392 . S
C308 C311 1.511 . S
C309 C305 1.376 . S
C309 C308 1.392 . S
C309 H321 0.929 . S
C310 C306 1.531 . S
C310 H322 0.960 . S
C310 H323 0.962 . S
C310 H324 0.960 . S
C311 C308 1.511 . S
C311 H325 0.961 . S
C311 H326 0.961 . S
C311 H327 0.961 . S
C312 C313 1.370 . S
C312 C314 1.363 . S
C312 H328 0.931 . S
C313 C312 1.370 . S
C313 C317 1.408 . S
C314 C312 1.363 . S
C314 C315 1.370 . S
C314 C318 1.524 . S
C315 C307 1.503 . S
C315 C314 1.370 . S
C315 C316 1.403 . S
C316 C315 1.403 . S
C316 C317 1.404 . S
C316 C319 1.539 . S
C317 C313 1.408 . S
C317 C316 1.404 . S
C317 H329 0.930 . S
C318 C314 1.524 . S
C318 H330 0.956 . S
C318 H331 0.961 . S
C318 H332 0.961 . S
C319 C316 1.539 . S
C319 H333 0.958 . S
C319 H334 0.961 . S
C319 H335 0.960 . S
H320 C304 0.931 . S
H321 C309 0.929 . S
H322 C310 0.960 . S
H323 C310 0.962 . S
H324 C310 0.960 . S
H325 C311 0.961 . S
H326 C311 0.961 . S
H327 C311 0.961 . S
H328 C312 0.931 . S
H329 C317 0.930 . S
H330 C318 0.956 . S
H331 C318 0.961 . S
H332 C318 0.961 . S
H333 C319 0.958 . S
H334 C319 0.961 . S
H335 C319 0.960 . S
C336 C337 1.391 . S
C336 C338 1.394 . S
C336 H352 0.931 . S
C337 C336 1.391 . S
C337 C341 1.376 . S
C338 C336 1.394 . S
C338 C339 1.369 . S
C338 C342 1.531 . S
C339 C338 1.369 . S
C339 C340 1.410 . S
C339 C347 1.503 . S
C340 C339 1.410 . S
C340 C341 1.392 . S
C340 C343 1.511 . S
C341 C337 1.376 . S
C341 C340 1.392 . S
C341 H353 0.929 . S
C342 C338 1.531 . S
C342 H354 0.960 . S
C342 H355 0.962 . S
C342 H356 0.960 . S
C343 C340 1.511 . S
C343 H357 0.961 . S
C343 H358 0.961 . S
C343 H359 0.961 . S
C344 C345 1.370 . S
C344 C346 1.363 . S
C344 H360 0.931 . S
C345 C344 1.370 . S
C345 C349 1.408 . S
C346 C344 1.363 . S
C346 C347 1.370 . S
C346 C350 1.524 . S
C347 C339 1.503 . S
C347 C346 1.370 . S
C347 C348 1.403 . S
C348 C347 1.403 . S
C348 C349 1.404 . S
C348 C351 1.539 . S
C349 C345 1.408 . S
C349 C348 1.404 . S
C349 H361 0.930 . S
C350 C346 1.524 . S
C350 H362 0.956 . S
C350 H363 0.961 . S
C350 H364 0.961 . S
C351 C348 1.539 . S
C351 H365 0.958 . S
C351 H366 0.961 . S
C351 H367 0.960 . S
H352 C336 0.931 . S
H353 C341 0.929 . S
H354 C342 0.960 . S
H355 C342 0.962 . S
H356 C342 0.960 . S
H357 C343 0.961 . S
H358 C343 0.961 . S
H359 C343 0.961 . S
H360 C344 0.931 . S
H361 C349 0.930 . S
H362 C350 0.956 . S
H363 C350 0.961 . S
H364 C350 0.961 . S
H365 C351 0.958 . S
H366 C351 0.961 . S
H367 C351 0.960 . S
C368 C369 1.391 . S
C368 C370 1.394 . S
C368 H384 0.931 . S
C369 C368 1.391 . S
C369 C373 1.376 . S
C370 C368 1.394 . S
C370 C371 1.369 . S
C370 C374 1.531 . S
C371 C370 1.369 . S
C371 C372 1.410 . S
C371 C379 1.503 . S
C372 C371 1.410 . S
C372 C373 1.392 . S
C372 C375 1.511 . S
C373 C369 1.376 . S
C373 C372 1.392 . S
C373 H385 0.929 . S
C374 C370 1.531 . S
C374 H386 0.960 . S
C374 H387 0.962 . S
C374 H388 0.960 . S
C375 C372 1.511 . S
C375 H389 0.961 . S
C375 H390 0.961 . S
C375 H391 0.961 . S
C376 C377 1.370 . S
C376 C378 1.363 . S
C376 H392 0.931 . S
C377 C376 1.370 . S
C377 C381 1.408 . S
C378 C376 1.363 . S
C378 C379 1.370 . S
C378 C382 1.524 . S
C379 C371 1.503 . S
C379 C378 1.370 . S
C379 C380 1.403 . S
C380 C379 1.403 . S
C380 C381 1.404 . S
C380 C383 1.539 . S
C381 C377 1.408 . S
C381 C380 1.404 . S
C381 H393 0.930 . S
C382 C378 1.524 . S
C382 H394 0.956 . S
C382 H395 0.961 . S
C382 H396 0.961 . S
C383 C380 1.539 . S
C383 H397 0.958 . S
C383 H398 0.961 . S
C383 H399 0.960 . S
H384 C368 0.931 . S
H385 C373 0.929 . S
H386 C374 0.960 . S
H387 C374 0.962 . S
H388 C374 0.960 . S
H389 C375 0.961 . S
H390 C375 0.961 . S
H391 C375 0.961 . S
H392 C376 0.931 . S
H393 C381 0.930 . S
H394 C382 0.956 . S
H395 C382 0.961 . S
H396 C382 0.961 . S
H397 C383 0.958 . S
H398 C383 0.961 . S
H399 C383 0.960 . S
C400 C401 1.391 . S
C400 C402 1.394 . S
C400 H416 0.931 . S
C401 C400 1.391 . S
C401 C405 1.376 . S
C402 C400 1.394 . S
C402 C403 1.369 . S
C402 C406 1.531 . S
C403 C402 1.369 . S
C403 C404 1.410 . S
C403 C411 1.503 . S
C404 C403 1.410 . S
C404 C405 1.392 . S
C404 C407 1.511 . S
C405 C401 1.376 . S
C405 C404 1.392 . S
C405 H417 0.929 . S
C406 C402 1.531 . S
C406 H418 0.960 . S
C406 H419 0.962 . S
C406 H420 0.960 . S
C407 C404 1.511 . S
C407 H421 0.961 . S
C407 H422 0.961 . S
C407 H423 0.961 . S
C408 C409 1.370 . S
C408 C410 1.363 . S
C408 H424 0.931 . S
C409 C408 1.370 . S
C409 C413 1.408 . S
C410 C408 1.363 . S
C410 C411 1.370 . S
C410 C414 1.524 . S
C411 C403 1.503 . S
C411 C410 1.370 . S
C411 C412 1.403 . S
C412 C411 1.403 . S
C412 C413 1.404 . S
C412 C415 1.539 . S
C413 C409 1.408 . S
C413 C412 1.404 . S
C413 H425 0.930 . S
C414 C410 1.524 . S
C414 H426 0.956 . S
C414 H427 0.961 . S
C414 H428 0.961 . S
C415 C412 1.539 . S
C415 H429 0.958 . S
C415 H430 0.961 . S
C415 H431 0.960 . S
H416 C400 0.931 . S
H417 C405 0.929 . S
H418 C406 0.960 . S
H419 C406 0.962 . S
H420 C406 0.960 . S
H421 C407 0.961 . S
H422 C407 0.961 . S
H423 C407 0.961 . S
H424 C408 0.931 . S
H425 C413 0.930 . S
H426 C414 0.956 . S
H427 C414 0.961 . S
H428 C414 0.961 . S
H429 C415 0.958 . S
H430 C415 0.961 . S
H431 C415 0.960 . S
C432 C433 1.391 . S
C432 C434 1.394 . S
C432 H448 0.931 . S
C433 C432 1.391 . S
C433 C437 1.376 . S
C434 C432 1.394 . S
C434 C435 1.369 . S
C434 C438 1.531 . S
C435 C434 1.369 . S
C435 C436 1.410 . S
C435 C443 1.503 1_655 S
C436 C435 1.410 . S
C436 C437 1.392 . S
C436 C439 1.511 1_655 S
C437 C433 1.376 . S
C437 C436 1.392 . S
C437 H449 0.929 . S
C438 C434 1.531 . S
C438 H450 0.960 . S
C438 H451 0.962 . S
C438 H452 0.960 . S
C439 C436 1.511 1_455 S
C439 H453 0.961 . S
C439 H454 0.961 . S
C439 H455 0.961 . S
C440 C441 1.370 . S
C440 C442 1.363 . S
C440 H456 0.931 . S
C441 C440 1.370 . S
C441 C445 1.408 . S
C442 C440 1.363 . S
C442 C443 1.370 . S
C442 C446 1.524 . S
C443 C435 1.503 1_455 S
C443 C442 1.370 . S
C443 C444 1.403 . S
C444 C443 1.403 . S
C444 C445 1.404 . S
C444 C447 1.539 . S
C445 C441 1.408 . S
C445 C444 1.404 . S
C445 H457 0.930 . S
C446 C442 1.524 . S
C446 H458 0.956 1_455 S
C446 H459 0.961 . S
C446 H460 0.961 . S
C447 C444 1.539 . S
C447 H461 0.958 1_455 S
C447 H462 0.961 . S
C447 H463 0.960 . S
H448 C432 0.931 . S
H449 C437 0.929 . S
H450 C438 0.960 . S
H451 C438 0.962 . S
H452 C438 0.960 . S
H453 C439 0.961 . S
H454 C439 0.961 . S
H455 C439 0.961 . S
H456 C440 0.931 . S
H457 C445 0.930 . S
H458 C446 0.956 1_655 S
H459 C446 0.961 . S
H460 C446 0.961 . S
H461 C447 0.958 1_655 S
H462 C447 0.961 . S
H463 C447 0.960 . S
C464 C465 1.391 . S
C464 C466 1.394 . S
C464 H480 0.931 . S
C465 C464 1.391 . S
C465 C469 1.376 . S
C466 C464 1.394 . S
C466 C467 1.369 . S
C466 C470 1.531 . S
C467 C466 1.369 . S
C467 C468 1.410 . S
C467 C475 1.503 1_545 S
C468 C467 1.410 . S
C468 C469 1.392 . S
C468 C471 1.511 . S
C469 C465 1.376 . S
C469 C468 1.392 . S
C469 H481 0.929 . S
C470 C466 1.531 . S
C470 H482 0.960 . S
C470 H483 0.962 . S
C470 H484 0.960 . S
C471 C468 1.511 . S
C471 H485 0.961 . S
C471 H486 0.961 1_545 S
C471 H487 0.961 . S
C472 C473 1.370 . S
C472 C474 1.363 . S
C472 H488 0.931 . S
C473 C472 1.370 . S
C473 C477 1.408 . S
C474 C472 1.363 . S
C474 C475 1.370 . S
C474 C478 1.524 . S
C475 C467 1.503 1_565 S
C475 C474 1.370 . S
C475 C476 1.403 . S
C476 C475 1.403 . S
C476 C477 1.404 . S
C476 C479 1.539 1_565 S
C477 C473 1.408 . S
C477 C476 1.404 . S
C477 H489 0.930 . S
C478 C474 1.524 . S
C478 H490 0.956 . S
C478 H491 0.961 . S
C478 H492 0.961 . S
C479 C476 1.539 1_545 S
C479 H493 0.958 . S
C479 H494 0.961 . S
C479 H495 0.960 . S
H480 C464 0.931 . S
H481 C469 0.929 . S
H482 C470 0.960 . S
H483 C470 0.962 . S
H484 C470 0.960 . S
H485 C471 0.961 . S
H486 C471 0.961 1_565 S
H487 C471 0.961 . S
H488 C472 0.931 . S
H489 C477 0.930 . S
H490 C478 0.956 . S
H491 C478 0.961 . S
H492 C478 0.961 . S
H493 C479 0.958 . S
H494 C479 0.961 . S
H495 C479 0.960 . S
C496 C497 1.391 . S
C496 C498 1.394 . S
C496 H512 0.931 . S
C497 C496 1.391 . S
C497 C501 1.376 . S
C498 C496 1.394 . S
C498 C499 1.369 . S
C498 C502 1.531 1_655 S
C499 C498 1.369 . S
C499 C500 1.410 . S
C499 C507 1.503 1_655 S
C500 C499 1.410 . S
C500 C501 1.392 . S
C500 C503 1.511 . S
C501 C497 1.376 . S
C501 C500 1.392 . S
C501 H513 0.929 . S
C502 C498 1.531 1_455 S
C502 H514 0.960 . S
C502 H515 0.962 . S
C502 H516 0.960 . S
C503 C500 1.511 . S
C503 H517 0.961 . S
C503 H518 0.961 . S
C503 H519 0.961 . S
C504 C505 1.370 . S
C504 C506 1.363 . S
C504 H520 0.931 . S
C505 C504 1.370 . S
C505 C509 1.408 . S
C506 C504 1.363 . S
C506 C507 1.370 . S
C506 C510 1.524 . S
C507 C499 1.503 1_455 S
C507 C506 1.370 . S
C507 C508 1.403 . S
C508 C507 1.403 . S
C508 C509 1.404 . S
C508 C511 1.539 1_455 S
C509 C505 1.408 . S
C509 C508 1.404 . S
C509 H521 0.930 . S
C510 C506 1.524 . S
C510 H522 0.956 . S
C510 H523 0.961 . S
C510 H524 0.961 . S
C511 C508 1.539 1_655 S
C511 H525 0.958 . S
C511 H526 0.961 . S
C511 H527 0.960 . S
H512 C496 0.931 . S
H513 C501 0.929 . S
H514 C502 0.960 . S
H515 C502 0.962 . S
H516 C502 0.960 . S
H517 C503 0.961 . S
H518 C503 0.961 . S
H519 C503 0.961 . S
H520 C504 0.931 . S
H521 C509 0.930 . S
H522 C510 0.956 . S
H523 C510 0.961 . S
H524 C510 0.961 . S
H525 C511 0.958 . S
H526 C511 0.961 . S
H527 C511 0.960 . S
C528 C529 1.391 . S
C528 C530 1.394 . S
C528 H544 0.931 . S
C529 C528 1.391 . S
C529 C533 1.376 . S
C530 C528 1.394 . S
C530 C531 1.369 . S
C530 C534 1.531 1_545 S
C531 C530 1.369 . S
C531 C532 1.410 . S
C531 C539 1.503 1_545 S
C532 C531 1.410 . S
C532 C533 1.392 . S
C532 C535 1.511 . S
C533 C529 1.376 . S
C533 C532 1.392 . S
C533 H545 0.929 . S
C534 C530 1.531 1_565 S
C534 H546 0.960 . S
C534 H547 0.962 . S
C534 H548 0.960 . S
C535 C532 1.511 . S
C535 H549 0.961 . S
C535 H550 0.961 . S
C535 H551 0.961 . S
C536 C537 1.370 . S
C536 C538 1.363 . S
C536 H552 0.931 . S
C537 C536 1.370 . S
C537 C541 1.408 . S
C538 C536 1.363 . S
C538 C539 1.370 . S
C538 C542 1.524 1_565 S
C539 C531 1.503 1_565 S
C539 C538 1.370 . S
C539 C540 1.403 . S
C540 C539 1.403 . S
C540 C541 1.404 . S
C540 C543 1.539 . S
C541 C537 1.408 . S
C541 C540 1.404 . S
C541 H553 0.930 . S
C542 C538 1.524 1_545 S
C542 H554 0.956 . S
C542 H555 0.961 . S
C542 H556 0.961 . S
C543 C540 1.539 . S
C543 H557 0.958 . S
C543 H558 0.961 . S
C543 H559 0.960 . S
H544 C528 0.931 . S
H545 C533 0.929 . S
H546 C534 0.960 . S
H547 C534 0.962 . S
H548 C534 0.960 . S
H549 C535 0.961 . S
H550 C535 0.961 . S
H551 C535 0.961 . S
H552 C536 0.931 . S
H553 C541 0.930 . S
H554 C542 0.956 . S
H555 C542 0.961 . S
H556 C542 0.961 . S
H557 C543 0.958 . S
H558 C543 0.961 . S
H559 C543 0.960 . S
C560 C561 1.391 . S
C560 C562 1.394 . S
C560 H576 0.931 . S
C561 C560 1.391 . S
C561 C565 1.376 . S
C562 C560 1.394 . S
C562 C563 1.369 . S
C562 C566 1.531 . S
C563 C562 1.369 . S
C563 C564 1.410 . S
C563 C571 1.503 1_455 S
C564 C563 1.410 . S
C564 C565 1.392 . S
C564 C567 1.511 1_455 S
C565 C561 1.376 . S
C565 C564 1.392 . S
C565 H577 0.929 . S
C566 C562 1.531 . S
C566 H578 0.960 . S
C566 H579 0.962 . S
C566 H580 0.960 . S
C567 C564 1.511 1_655 S
C567 H581 0.961 . S
C567 H582 0.961 . S
C567 H583 0.961 . S
C568 C569 1.370 . S
C568 C570 1.363 . S
C568 H584 0.931 . S
C569 C568 1.370 . S
C569 C573 1.408 . S
C570 C568 1.363 . S
C570 C571 1.370 . S
C570 C574 1.524 1_655 S
C571 C563 1.503 1_655 S
C571 C570 1.370 . S
C571 C572 1.403 . S
C572 C571 1.403 . S
C572 C573 1.404 . S
C572 C575 1.539 . S
C573 C569 1.408 . S
C573 C572 1.404 . S
C573 H585 0.930 . S
C574 C570 1.524 1_455 S
C574 H586 0.956 . S
C574 H587 0.961 . S
C574 H588 0.961 1_455 S
C575 C572 1.539 . S
C575 H589 0.958 . S
C575 H590 0.961 . S
C575 H591 0.960 . S
H576 C560 0.931 . S
H577 C565 0.929 . S
H578 C566 0.960 . S
H579 C566 0.962 . S
H580 C566 0.960 . S
H581 C567 0.961 . S
H582 C567 0.961 . S
H583 C567 0.961 . S
H584 C568 0.931 . S
H585 C573 0.930 . S
H586 C574 0.956 . S
H587 C574 0.961 . S
H588 C574 0.961 1_655 S
H589 C575 0.958 . S
H590 C575 0.961 . S
H591 C575 0.960 . S
C592 C593 1.391 . S
C592 C594 1.394 . S
C592 H608 0.931 . S
C593 C592 1.391 . S
C593 C597 1.376 . S
C594 C592 1.394 . S
C594 C595 1.369 . S
C594 C598 1.531 . S
C595 C594 1.369 . S
C595 C596 1.410 . S
C595 C603 1.503 1_565 S
C596 C595 1.410 . S
C596 C597 1.392 . S
C596 C599 1.511 1_565 S
C597 C593 1.376 . S
C597 C596 1.392 . S
C597 H609 0.929 . S
C598 C594 1.531 . S
C598 H610 0.960 . S
C598 H611 0.962 . S
C598 H612 0.960 . S
C599 C596 1.511 1_545 S
C599 H613 0.961 . S
C599 H614 0.961 . S
C599 H615 0.961 . S
C600 C601 1.370 . S
C600 C602 1.363 . S
C600 H616 0.931 . S
C601 C600 1.370 . S
C601 C605 1.408 . S
C602 C600 1.363 . S
C602 C603 1.370 . S
C602 C606 1.524 . S
C603 C595 1.503 1_545 S
C603 C602 1.370 . S
C603 C604 1.403 . S
C604 C603 1.403 . S
C604 C605 1.404 . S
C604 C607 1.539 1_545 S
C605 C601 1.408 . S
C605 C604 1.404 . S
C605 H617 0.930 . S
C606 C602 1.524 . S
C606 H618 0.956 . S
C606 H619 0.961 . S
C606 H620 0.961 . S
C607 C604 1.539 1_565 S
C607 H621 0.958 . S
C607 H622 0.961 . S
C607 H623 0.960 . S
H608 C592 0.931 . S
H609 C597 0.929 . S
H610 C598 0.960 . S
H611 C598 0.962 . S
H612 C598 0.960 . S
H613 C599 0.961 . S
H614 C599 0.961 . S
H615 C599 0.961 . S
H616 C600 0.931 . S
H617 C605 0.930 . S
H618 C606 0.956 . S
H619 C606 0.961 . S
H620 C606 0.961 . S
H621 C607 0.958 . S
H622 C607 0.961 . S
H623 C607 0.960 . S
C624 C625 1.391 . S
C624 C626 1.394 . S
C624 H640 0.931 . S
C625 C624 1.391 . S
C625 C629 1.376 . S
C626 C624 1.394 . S
C626 C627 1.369 . S
C626 C630 1.531 . S
C627 C626 1.369 . S
C627 C628 1.410 . S
C627 C635 1.503 1_655 S
C628 C627 1.410 . S
C628 C629 1.392 . S
C628 C631 1.511 1_655 S
C629 C625 1.376 . S
C629 C628 1.392 . S
C629 H641 0.929 . S
C630 C626 1.531 . S
C630 H642 0.960 . S
C630 H643 0.962 . S
C630 H644 0.960 . S
C631 C628 1.511 1_455 S
C631 H645 0.961 . S
C631 H646 0.961 . S
C631 H647 0.961 . S
C632 C633 1.370 . S
C632 C634 1.363 . S
C632 H648 0.931 . S
C633 C632 1.370 . S
C633 C637 1.408 . S
C634 C632 1.363 . S
C634 C635 1.370 . S
C634 C638 1.524 . S
C635 C627 1.503 1_455 S
C635 C634 1.370 . S
C635 C636 1.403 . S
C636 C635 1.403 . S
C636 C637 1.404 . S
C636 C639 1.539 1_455 S
C637 C633 1.408 . S
C637 C636 1.404 . S
C637 H649 0.930 . S
C638 C634 1.524 . S
C638 H650 0.956 . S
C638 H651 0.961 . S
C638 H652 0.961 . S
C639 C636 1.539 1_655 S
C639 H653 0.958 . S
C639 H654 0.961 1_655 S
C639 H655 0.960 . S
H640 C624 0.931 . S
H641 C629 0.929 . S
H642 C630 0.960 . S
H643 C630 0.962 . S
H644 C630 0.960 . S
H645 C631 0.961 . S
H646 C631 0.961 . S
H647 C631 0.961 . S
H648 C632 0.931 . S
H649 C637 0.930 . S
H650 C638 0.956 . S
H651 C638 0.961 . S
H652 C638 0.961 . S
H653 C639 0.958 . S
H654 C639 0.961 1_455 S
H655 C639 0.960 . S
C656 C657 1.391 . S
C656 C658 1.394 . S
C656 H672 0.931 . S
C657 C656 1.391 . S
C657 C661 1.376 . S
C658 C656 1.394 . S
C658 C659 1.369 . S
C658 C662 1.531 . S
C659 C658 1.369 . S
C659 C660 1.410 . S
C659 C667 1.503 1_565 S
C660 C659 1.410 . S
C660 C661 1.392 . S
C660 C663 1.511 . S
C661 C657 1.376 . S
C661 C660 1.392 . S
C661 H673 0.929 . S
C662 C658 1.531 . S
C662 H674 0.960 . S
C662 H675 0.962 . S
C662 H676 0.960 . S
C663 C660 1.511 . S
C663 H677 0.961 . S
C663 H678 0.961 1_565 S
C663 H679 0.961 . S
C664 C665 1.370 . S
C664 C666 1.363 . S
C664 H680 0.931 . S
C665 C664 1.370 . S
C665 C669 1.408 . S
C666 C664 1.363 . S
C666 C667 1.370 . S
C666 C670 1.524 . S
C667 C659 1.503 1_545 S
C667 C666 1.370 . S
C667 C668 1.403 . S
C668 C667 1.403 . S
C668 C669 1.404 . S
C668 C671 1.539 1_545 S
C669 C665 1.408 . S
C669 C668 1.404 . S
C669 H681 0.930 . S
C670 C666 1.524 . S
C670 H682 0.956 . S
C670 H683 0.961 . S
C670 H684 0.961 . S
C671 C668 1.539 1_565 S
C671 H685 0.958 . S
C671 H686 0.961 . S
C671 H687 0.960 . S
H672 C656 0.931 . S
H673 C661 0.929 . S
H674 C662 0.960 . S
H675 C662 0.962 . S
H676 C662 0.960 . S
H677 C663 0.961 . S
H678 C663 0.961 1_545 S
H679 C663 0.961 . S
H680 C664 0.931 . S
H681 C669 0.930 . S
H682 C670 0.956 . S
H683 C670 0.961 . S
H684 C670 0.961 . S
H685 C671 0.958 . S
H686 C671 0.961 . S
H687 C671 0.960 . S
C688 C689 1.391 . S
C688 C690 1.394 . S
C688 H704 0.931 . S
C689 C688 1.391 . S
C689 C693 1.376 . S
C690 C688 1.394 . S
C690 C691 1.369 . S
C690 C694 1.531 . S
C691 C690 1.369 . S
C691 C692 1.410 . S
C691 C699 1.503 . S
C692 C691 1.410 . S
C692 C693 1.392 . S
C692 C695 1.511 . S
C693 C689 1.376 . S
C693 C692 1.392 . S
C693 H705 0.929 . S
C694 C690 1.531 . S
C694 H706 0.960 . S
C694 H707 0.962 . S
C694 H708 0.960 . S
C695 C692 1.511 . S
C695 H709 0.961 . S
C695 H710 0.961 . S
C695 H711 0.961 . S
C696 C697 1.370 . S
C696 C698 1.363 . S
C696 H712 0.931 . S
C697 C696 1.370 . S
C697 C701 1.408 . S
C698 C696 1.363 . S
C698 C699 1.370 . S
C698 C702 1.524 . S
C699 C691 1.503 . S
C699 C698 1.370 . S
C699 C700 1.403 . S
C700 C699 1.403 . S
C700 C701 1.404 . S
C700 C703 1.539 . S
C701 C697 1.408 . S
C701 C700 1.404 . S
C701 H713 0.930 . S
C702 C698 1.524 . S
C702 H714 0.956 . S
C702 H715 0.961 . S
C702 H716 0.961 . S
C703 C700 1.539 . S
C703 H717 0.958 . S
C703 H718 0.961 . S
C703 H719 0.960 . S
H704 C688 0.931 . S
H705 C693 0.929 . S
H706 C694 0.960 . S
H707 C694 0.962 . S
H708 C694 0.960 . S
H709 C695 0.961 . S
H710 C695 0.961 . S
H711 C695 0.961 . S
H712 C696 0.931 . S
H713 C701 0.930 . S
H714 C702 0.956 . S
H715 C702 0.961 . S
H716 C702 0.961 . S
H717 C703 0.958 . S
H718 C703 0.961 . S
H719 C703 0.960 . S
C720 C721 1.391 . S
C720 C722 1.394 . S
C720 H736 0.931 . S
C721 C720 1.391 . S
C721 C725 1.376 . S
C722 C720 1.394 . S
C722 C723 1.369 . S
C722 C726 1.531 . S
C723 C722 1.369 . S
C723 C724 1.410 . S
C723 C731 1.503 . S
C724 C723 1.410 . S
C724 C725 1.392 . S
C724 C727 1.511 . S
C725 C721 1.376 . S
C725 C724 1.392 . S
C725 H737 0.929 . S
C726 C722 1.531 . S
C726 H738 0.960 . S
C726 H739 0.962 . S
C726 H740 0.960 . S
C727 C724 1.511 . S
C727 H741 0.961 . S
C727 H742 0.961 . S
C727 H743 0.961 . S
C728 C729 1.370 . S
C728 C730 1.363 . S
C728 H744 0.931 . S
C729 C728 1.370 . S
C729 C733 1.408 . S
C730 C728 1.363 . S
C730 C731 1.370 . S
C730 C734 1.524 . S
C731 C723 1.503 . S
C731 C730 1.370 . S
C731 C732 1.403 . S
C732 C731 1.403 . S
C732 C733 1.404 . S
C732 C735 1.539 . S
C733 C729 1.408 . S
C733 C732 1.404 . S
C733 H745 0.930 . S
C734 C730 1.524 . S
C734 H746 0.956 . S
C734 H747 0.961 . S
C734 H748 0.961 . S
C735 C732 1.539 . S
C735 H749 0.958 . S
C735 H750 0.961 . S
C735 H751 0.960 . S
H736 C720 0.931 . S
H737 C725 0.929 . S
H738 C726 0.960 . S
H739 C726 0.962 . S
H740 C726 0.960 . S
H741 C727 0.961 . S
H742 C727 0.961 . S
H743 C727 0.961 . S
H744 C728 0.931 . S
H745 C733 0.930 . S
H746 C734 0.956 . S
H747 C734 0.961 . S
H748 C734 0.961 . S
H749 C735 0.958 . S
H750 C735 0.961 . S
H751 C735 0.960 . S
C752 C753 1.391 . S
C752 C754 1.394 . S
C752 H768 0.931 . S
C753 C752 1.391 . S
C753 C757 1.376 . S
C754 C752 1.394 . S
C754 C755 1.369 . S
C754 C758 1.531 . S
C755 C754 1.369 . S
C755 C756 1.410 . S
C755 C763 1.503 . S
C756 C755 1.410 . S
C756 C757 1.392 . S
C756 C759 1.511 . S
C757 C753 1.376 . S
C757 C756 1.392 . S
C757 H769 0.929 . S
C758 C754 1.531 . S
C758 H770 0.960 . S
C758 H771 0.962 . S
C758 H772 0.960 . S
C759 C756 1.511 . S
C759 H773 0.961 . S
C759 H774 0.961 . S
C759 H775 0.961 . S
C760 C761 1.370 . S
C760 C762 1.363 . S
C760 H776 0.931 . S
C761 C760 1.370 . S
C761 C765 1.408 . S
C762 C760 1.363 . S
C762 C763 1.370 . S
C762 C766 1.524 . S
C763 C755 1.503 . S
C763 C762 1.370 . S
C763 C764 1.403 . S
C764 C763 1.403 . S
C764 C765 1.404 . S
C764 C767 1.539 . S
C765 C761 1.408 . S
C765 C764 1.404 . S
C765 H777 0.930 . S
C766 C762 1.524 . S
C766 H778 0.956 . S
C766 H779 0.961 . S
C766 H780 0.961 . S
C767 C764 1.539 . S
C767 H781 0.958 . S
C767 H782 0.961 . S
C767 H783 0.960 . S
H768 C752 0.931 . S
H769 C757 0.929 . S
H770 C758 0.960 . S
H771 C758 0.962 . S
H772 C758 0.960 . S
H773 C759 0.961 . S
H774 C759 0.961 . S
H775 C759 0.961 . S
H776 C760 0.931 . S
H777 C765 0.930 . S
H778 C766 0.956 . S
H779 C766 0.961 . S
H780 C766 0.961 . S
H781 C767 0.958 . S
H782 C767 0.961 . S
H783 C767 0.960 . S
C784 C785 1.391 . S
C784 C786 1.394 . S
C784 H800 0.931 . S
C785 C784 1.391 . S
C785 C789 1.376 . S
C786 C784 1.394 . S
C786 C787 1.369 . S
C786 C790 1.531 . S
C787 C786 1.369 . S
C787 C788 1.410 . S
C787 C795 1.503 . S
C788 C787 1.410 . S
C788 C789 1.392 . S
C788 C791 1.511 . S
C789 C785 1.376 . S
C789 C788 1.392 . S
C789 H801 0.929 . S
C790 C786 1.531 . S
C790 H802 0.960 . S
C790 H803 0.962 . S
C790 H804 0.960 . S
C791 C788 1.511 . S
C791 H805 0.961 . S
C791 H806 0.961 . S
C791 H807 0.961 . S
C792 C793 1.370 . S
C792 C794 1.363 . S
C792 H808 0.931 . S
C793 C792 1.370 . S
C793 C797 1.408 . S
C794 C792 1.363 . S
C794 C795 1.370 . S
C794 C798 1.524 . S
C795 C787 1.503 . S
C795 C794 1.370 . S
C795 C796 1.403 . S
C796 C795 1.403 . S
C796 C797 1.404 . S
C796 C799 1.539 . S
C797 C793 1.408 . S
C797 C796 1.404 . S
C797 H809 0.930 . S
C798 C794 1.524 . S
C798 H810 0.956 . S
C798 H811 0.961 . S
C798 H812 0.961 . S
C799 C796 1.539 . S
C799 H813 0.958 . S
C799 H814 0.961 . S
C799 H815 0.960 . S
H800 C784 0.931 . S
H801 C789 0.929 . S
H802 C790 0.960 . S
H803 C790 0.962 . S
H804 C790 0.960 . S
H805 C791 0.961 . S
H806 C791 0.961 . S
H807 C791 0.961 . S
H808 C792 0.931 . S
H809 C797 0.930 . S
H810 C798 0.956 . S
H811 C798 0.961 . S
H812 C798 0.961 . S
H813 C799 0.958 . S
H814 C799 0.961 . S
H815 C799 0.960 . S
C816 C817 1.391 . S
C816 C818 1.394 . S
C816 H832 0.931 . S
C817 C816 1.391 . S
C817 C821 1.376 . S
C818 C816 1.394 . S
C818 C819 1.369 . S
C818 C822 1.531 . S
C819 C818 1.369 . S
C819 C820 1.410 . S
C819 C827 1.503 . S
C820 C819 1.410 . S
C820 C821 1.392 . S
C820 C823 1.511 . S
C821 C817 1.376 . S
C821 C820 1.392 . S
C821 H833 0.929 . S
C822 C818 1.531 . S
C822 H834 0.960 . S
C822 H835 0.962 . S
C822 H836 0.960 . S
C823 C820 1.511 . S
C823 H837 0.961 . S
C823 H838 0.961 . S
C823 H839 0.961 . S
C824 C825 1.370 . S
C824 C826 1.363 . S
C824 H840 0.931 . S
C825 C824 1.370 . S
C825 C829 1.408 . S
C826 C824 1.363 . S
C826 C827 1.370 . S
C826 C830 1.524 . S
C827 C819 1.503 . S
C827 C826 1.370 . S
C827 C828 1.403 . S
C828 C827 1.403 . S
C828 C829 1.404 . S
C828 C831 1.539 . S
C829 C825 1.408 . S
C829 C828 1.404 . S
C829 H841 0.930 . S
C830 C826 1.524 . S
C830 H842 0.956 . S
C830 H843 0.961 . S
C830 H844 0.961 . S
C831 C828 1.539 . S
C831 H845 0.958 . S
C831 H846 0.961 . S
C831 H847 0.960 . S
H832 C816 0.931 . S
H833 C821 0.929 . S
H834 C822 0.960 . S
H835 C822 0.962 . S
H836 C822 0.960 . S
H837 C823 0.961 . S
H838 C823 0.961 . S
H839 C823 0.961 . S
H840 C824 0.931 . S
H841 C829 0.930 . S
H842 C830 0.956 . S
H843 C830 0.961 . S
H844 C830 0.961 . S
H845 C831 0.958 . S
H846 C831 0.961 . S
H847 C831 0.960 . S
C848 C849 1.391 . S
C848 C850 1.394 . S
C848 H864 0.931 . S
C849 C848 1.391 . S
C849 C853 1.376 . S
C850 C848 1.394 . S
C850 C851 1.369 . S
C850 C854 1.531 . S
C851 C850 1.369 . S
C851 C852 1.410 . S
C851 C859 1.503 . S
C852 C851 1.410 . S
C852 C853 1.392 . S
C852 C855 1.511 . S
C853 C849 1.376 . S
C853 C852 1.392 . S
C853 H865 0.929 . S
C854 C850 1.531 . S
C854 H866 0.960 . S
C854 H867 0.962 . S
C854 H868 0.960 . S
C855 C852 1.511 . S
C855 H869 0.961 . S
C855 H870 0.961 . S
C855 H871 0.961 . S
C856 C857 1.370 . S
C856 C858 1.363 . S
C856 H872 0.931 . S
C857 C856 1.370 . S
C857 C861 1.408 . S
C858 C856 1.363 . S
C858 C859 1.370 . S
C858 C862 1.524 . S
C859 C851 1.503 . S
C859 C858 1.370 . S
C859 C860 1.403 . S
C860 C859 1.403 . S
C860 C861 1.404 . S
C860 C863 1.539 . S
C861 C857 1.408 . S
C861 C860 1.404 . S
C861 H873 0.930 . S
C862 C858 1.524 . S
C862 H874 0.956 . S
C862 H875 0.961 . S
C862 H876 0.961 . S
C863 C860 1.539 . S
C863 H877 0.958 . S
C863 H878 0.961 . S
C863 H879 0.960 . S
H864 C848 0.931 . S
H865 C853 0.929 . S
H866 C854 0.960 . S
H867 C854 0.962 . S
H868 C854 0.960 . S
H869 C855 0.961 . S
H870 C855 0.961 . S
H871 C855 0.961 . S
H872 C856 0.931 . S
H873 C861 0.930 . S
H874 C862 0.956 . S
H875 C862 0.961 . S
H876 C862 0.961 . S
H877 C863 0.958 . S
H878 C863 0.961 . S
H879 C863 0.960 . S
C880 C881 1.391 . S
C880 C882 1.394 . S
C880 H896 0.931 . S
C881 C880 1.391 . S
C881 C885 1.376 . S
C882 C880 1.394 . S
C882 C883 1.369 . S
C882 C886 1.531 . S
C883 C882 1.369 . S
C883 C884 1.410 . S
C883 C891 1.503 . S
C884 C883 1.410 . S
C884 C885 1.392 . S
C884 C887 1.511 . S
C885 C881 1.376 . S
C885 C884 1.392 . S
C885 H897 0.929 . S
C886 C882 1.531 . S
C886 H898 0.960 . S
C886 H899 0.962 . S
C886 H900 0.960 . S
C887 C884 1.511 . S
C887 H901 0.961 . S
C887 H902 0.961 . S
C887 H903 0.961 . S
C888 C889 1.370 . S
C888 C890 1.363 . S
C888 H904 0.931 . S
C889 C888 1.370 . S
C889 C893 1.408 . S
C890 C888 1.363 . S
C890 C891 1.370 . S
C890 C894 1.524 . S
C891 C883 1.503 . S
C891 C890 1.370 . S
C891 C892 1.403 . S
C892 C891 1.403 . S
C892 C893 1.404 . S
C892 C895 1.539 . S
C893 C889 1.408 . S
C893 C892 1.404 . S
C893 H905 0.930 . S
C894 C890 1.524 . S
C894 H906 0.956 . S
C894 H907 0.961 . S
C894 H908 0.961 . S
C895 C892 1.539 . S
C895 H909 0.958 . S
C895 H910 0.961 . S
C895 H911 0.960 . S
H896 C880 0.931 . S
H897 C885 0.929 . S
H898 C886 0.960 . S
H899 C886 0.962 . S
H900 C886 0.960 . S
H901 C887 0.961 . S
H902 C887 0.961 . S
H903 C887 0.961 . S
H904 C888 0.931 . S
H905 C893 0.930 . S
H906 C894 0.956 . S
H907 C894 0.961 . S
H908 C894 0.961 . S
H909 C895 0.958 . S
H910 C895 0.961 . S
H911 C895 0.960 . S
C912 C913 1.391 . S
C912 C914 1.394 . S
C912 H928 0.931 . S
C913 C912 1.391 . S
C913 C917 1.376 . S
C914 C912 1.394 . S
C914 C915 1.369 . S
C914 C918 1.531 . S
C915 C914 1.369 . S
C915 C916 1.410 . S
C915 C923 1.503 . S
C916 C915 1.410 . S
C916 C917 1.392 . S
C916 C919 1.511 . S
C917 C913 1.376 . S
C917 C916 1.392 . S
C917 H929 0.929 . S
C918 C914 1.531 . S
C918 H930 0.960 . S
C918 H931 0.962 . S
C918 H932 0.960 . S
C919 C916 1.511 . S
C919 H933 0.961 . S
C919 H934 0.961 . S
C919 H935 0.961 . S
C920 C921 1.370 . S
C920 C922 1.363 . S
C920 H936 0.931 . S
C921 C920 1.370 . S
C921 C925 1.408 . S
C922 C920 1.363 . S
C922 C923 1.370 . S
C922 C926 1.524 . S
C923 C915 1.503 . S
C923 C922 1.370 . S
C923 C924 1.403 . S
C924 C923 1.403 . S
C924 C925 1.404 . S
C924 C927 1.539 . S
C925 C921 1.408 . S
C925 C924 1.404 . S
C925 H937 0.930 . S
C926 C922 1.524 . S
C926 H938 0.956 . S
C926 H939 0.961 . S
C926 H940 0.961 . S
C927 C924 1.539 . S
C927 H941 0.958 . S
C927 H942 0.961 . S
C927 H943 0.960 . S
H928 C912 0.931 . S
H929 C917 0.929 . S
H930 C918 0.960 . S
H931 C918 0.962 . S
H932 C918 0.960 . S
H933 C919 0.961 . S
H934 C919 0.961 . S
H935 C919 0.961 . S
H936 C920 0.931 . S
H937 C925 0.930 . S
H938 C926 0.956 . S
H939 C926 0.961 . S
H940 C926 0.961 . S
H941 C927 0.958 . S
H942 C927 0.961 . S
H943 C927 0.960 . S
C177 C140 1.377 . S
C185 C8 1.388 . S
C209 C43 1.442 . S
C217 C164 1.448 . S
C241 C96 1.447 . S
C249 C59 1.442 . S
C273 C73 1.467 . S
C281 C125 1.490 . S
C305 C109 1.437 . S
C313 C54 1.438 . S
C337 C84 1.384 . S
C345 C120 1.388 . S
C369 C153 1.474 . S
C377 C21 1.471 . S
C401 C30 1.442 . S
C409 C169 1.431 . S
C433 C40 1.399 . S
C441 C118 1.396 . S
C465 C147 1.449 . S
C473 C52 1.444 . S
C497 C161 1.434 . S
C505 C76 1.438 . S
C529 C15 1.467 . S
C537 C103 1.489 . S
C561 C81 1.407 . S
C569 C172 1.430 . S
C593 C98 1.371 . S
C601 C10 1.376 . S
C625 C29 1.471 . S
C633 C131 1.471 . S
C657 C65 1.431 . S
C665 C142 1.427 . S
C689 C162 1.127 . S
C697 C18 1.129 . S
C721 C37 1.184 . S
C729 C106 1.179 . S
C753 C51 1.230 . S
C761 C117 1.224 . S
C785 C150 1.176 . S
C793 C87 1.182 . S
C817 C128 1.129 . S
C825 C62 1.130 . S
C849 C139 1.171 . S
C857 C74 1.179 . S
C881 C175 1.233 . S
C889 C7 1.222 . S
C913 C95 1.168 . S
C921 C32 1.181 . S
