# Generated by pormake.
# Topology lcx, (8)-cn, num edge types: 1
# Building blocks:
#     Node 0, Type 0, BuildingBlock: OLANAS_clean_sbu_2, # of connection points: 8
#     Node 1, Type 0, BuildingBlock: OLANAS_clean_sbu_2, # of connection points: 8
#     Node 2, Type 0, BuildingBlock: OLANAS_clean_sbu_2, # of connection points: 8
#     Node 3, Type 0, BuildingBlock: OLANAS_clean_sbu_2, # of connection points: 8
#     Node 4, Type 0, BuildingBlock: OLANAS_clean_sbu_2, # of connection points: 8
#     Node 5, Type 0, BuildingBlock: OLANAS_clean_sbu_2, # of connection points: 8
#     Edge 6, Type (0, 0), BuildingBlock: XIVTED_clean_linker_0, # of connection points: 2
#     Edge 7, Type (0, 0), BuildingBlock: XIVTED_clean_linker_0, # of connection points: 2
#     Edge 8, Type (0, 0), BuildingBlock: XIVTED_clean_linker_0, # of connection points: 2
#     Edge 9, Type (0, 0), BuildingBlock: XIVTED_clean_linker_0, # of connection points: 2
#     Edge 10, Type (0, 0), BuildingBlock: XIVTED_clean_linker_0, # of connection points: 2
#     Edge 11, Type (0, 0), BuildingBlock: XIVTED_clean_linker_0, # of connection points: 2
#     Edge 12, Type (0, 0), BuildingBlock: XIVTED_clean_linker_0, # of connection points: 2
#     Edge 13, Type (0, 0), BuildingBlock: XIVTED_clean_linker_0, # of connection points: 2
#     Edge 14, Type (0, 0), BuildingBlock: XIVTED_clean_linker_0, # of connection points: 2
#     Edge 15, Type (0, 0), BuildingBlock: XIVTED_clean_linker_0, # of connection points: 2
#     Edge 16, Type (0, 0), BuildingBlock: XIVTED_clean_linker_0, # of connection points: 2
#     Edge 17, Type (0, 0), BuildingBlock: XIVTED_clean_linker_0, # of connection points: 2
#     Edge 18, Type (0, 0), BuildingBlock: XIVTED_clean_linker_0, # of connection points: 2
#     Edge 19, Type (0, 0), BuildingBlock: XIVTED_clean_linker_0, # of connection points: 2
#     Edge 20, Type (0, 0), BuildingBlock: XIVTED_clean_linker_0, # of connection points: 2
#     Edge 21, Type (0, 0), BuildingBlock: XIVTED_clean_linker_0, # of connection points: 2
#     Edge 22, Type (0, 0), BuildingBlock: XIVTED_clean_linker_0, # of connection points: 2
#     Edge 23, Type (0, 0), BuildingBlock: XIVTED_clean_linker_0, # of connection points: 2
#     Edge 24, Type (0, 0), BuildingBlock: XIVTED_clean_linker_0, # of connection points: 2
#     Edge 25, Type (0, 0), BuildingBlock: XIVTED_clean_linker_0, # of connection points: 2
#     Edge 26, Type (0, 0), BuildingBlock: XIVTED_clean_linker_0, # of connection points: 2
#     Edge 27, Type (0, 0), BuildingBlock: XIVTED_clean_linker_0, # of connection points: 2
#     Edge 28, Type (0, 0), BuildingBlock: XIVTED_clean_linker_0, # of connection points: 2
#     Edge 29, Type (0, 0), BuildingBlock: XIVTED_clean_linker_0, # of connection points: 2
# Relax obj value: 0.048
# Max RMSD: 0.138
# Mean RMSD: 0.137
data_MOF--net-lcx--node1-OLANAS_clean_sbu_2--edge1-XIVTED_clean_linker_0
_symmetry_space_group_name_H-M    P1
_symmetry_Int_Tables_number       1
_symmetry_cell_setting            triclinic
loop_
_symmetry_equiv_pos_as_xyz
'x, y, z'
_cell_length_a     31.355652
_cell_length_b     31.374671
_cell_length_c     31.388097
_cell_angle_alpha  90.084025
_cell_angle_beta   90.360195
_cell_angle_gamma 90.038943
loop_
_atom_site_label
_atom_site_type_symbol
_atom_site_fract_x
_atom_site_fract_y
_atom_site_fract_z
_atom_type_partial_charge
C0 C 0.94516 0.3112 0.50254 0.0
O1 O 0.90811 0.33081 0.50265 0.0
C2 C 0.98568 0.33441 0.49935 0.0
C3 C 0.99271 0.37832 0.49601 0.0
C4 C 0.03543 0.39287 0.4948 0.0
C5 C 0.0698 0.36373 0.49728 0.0
C6 C 0.06014 0.32034 0.50082 0.0
N7 N 0.01934 0.30859 0.501 0.0
N8 N 0.00455 0.23993 0.446 0.0
Co9 Co 0.00843 0.25139 0.50706 0.0
N10 N 0.99733 0.19427 0.51358 0.0
C11 C 0.98074 0.1285 0.48182 0.0
C12 C 0.97711 0.11121 0.52327 0.0
C13 C 0.98364 0.1371 0.5597 0.0
C14 C 0.99388 0.18002 0.55335 0.0
C15 C 0.99118 0.1717 0.47814 0.0
N16 N 0.00995 0.25325 0.56917 0.0
N17 N 0.9486 0.26792 0.5071 0.0
N18 N 0.07018 0.24454 0.50599 0.0
C19 C 0.99534 0.19762 0.43954 0.0
O20 O 0.99053 0.18123 0.40121 0.0
C21 C 0.08928 0.28381 0.5035 0.0
O22 O 0.13082 0.28827 0.49992 0.0
C23 C 0.09443 0.20661 0.4985 0.0
C24 C 0.134 0.16487 0.44685 0.0
C25 C 0.10159 0.19387 0.4562 0.0
C26 C 0.12099 0.19078 0.53121 0.0
C27 C 0.15486 0.16318 0.52163 0.0
C28 C 0.1596 0.14881 0.4797 0.0
C29 C 0.00147 0.21355 0.58516 0.0
O30 O 0.00256 0.20544 0.62626 0.0
C31 C 0.02671 0.28617 0.59621 0.0
C32 C 0.0704 0.28593 0.60664 0.0
C33 C 0.08597 0.31145 0.63974 0.0
C34 C 0.05796 0.33748 0.66228 0.0
C35 C 0.01409 0.33717 0.65355 0.0
C36 C -0.00147 0.31149 0.6201 0.0
C37 C 0.9118 0.24184 0.51401 0.0
C38 C 0.89683 0.23625 0.55566 0.0
C39 C 0.85608 0.21947 0.56239 0.0
C40 C 0.83076 0.20751 0.52749 0.0
C41 C 0.84497 0.213 0.48567 0.0
C42 C 0.88591 0.22995 0.47915 0.0
C43 C 0.00384 0.26992 0.41148 0.0
C44 C 0.00534 0.31755 0.33632 0.0
C45 C 0.96826 0.29565 0.34711 0.0
C46 C 0.96725 0.27261 0.38521 0.0
C47 C 0.04134 0.29129 0.39951 0.0
C48 C 0.04175 0.31558 0.36212 0.0
H49 H 0.96638 0.40057 0.49459 0.0
H50 H 0.04189 0.42665 0.49216 0.0
H51 H 0.10249 0.37477 0.49651 0.0
H52 H 0.97527 0.1089 0.45391 0.0
H53 H 0.96898 0.07792 0.52715 0.0
H54 H 0.98051 0.12406 0.59143 0.0
H55 H 0.08456 0.20915 0.43035 0.0
H56 H 0.11796 0.20314 0.5632 0.0
H57 H 0.18581 0.12768 0.47186 0.0
H58 H 0.09168 0.26401 0.59103 0.0
H59 H 0.07024 0.35559 0.68918 0.0
H60 H 0.96454 0.30942 0.61398 0.0
H61 H 0.91583 0.24703 0.58252 0.0
H62 H 0.79975 0.19331 0.53314 0.0
H63 H 0.89674 0.23595 0.44718 0.0
H64 H 0.00611 0.33611 0.30715 0.0
H65 H 0.93888 0.25487 0.39312 0.0
H66 H 0.07033 0.28772 0.41791 0.0
C67 C 0.3255 0.47702 0.94118 0.0
O68 O 0.3478 0.47207 0.90617 0.0
C69 C 0.34493 0.47261 0.98358 0.0
C70 C 0.38753 0.4645 0.99437 0.0
C71 C 0.39858 0.46298 0.03812 0.0
C72 C 0.36739 0.46986 0.06978 0.0
C73 C 0.3255 0.47778 0.05639 0.0
N74 N 0.31692 0.47796 0.0148 0.0
N75 N 0.24182 0.43293 -0.00176 0.0
Co76 Co 0.2621 0.4917 -0.00109 0.0
N77 N 0.2074 0.50575 0.98313 0.0
C78 C 0.13803 0.48311 0.96604 0.0
C79 C 0.12707 0.52644 0.95982 0.0
C80 C 0.15776 0.55906 0.96584 0.0
C81 C 0.19904 0.54704 0.97796 0.0
C82 C 0.18 0.47368 0.97816 0.0
N83 N 0.27302 0.55262 0.99745 0.0
N84 N 0.28265 0.48597 0.94037 0.0
N85 N 0.25108 0.49535 0.05966 0.0
C86 C 0.19959 0.43203 0.9867 0.0
O87 O 0.17782 0.39627 0.98405 0.0
C88 C 0.2879 0.4876 0.08212 0.0
O89 O 0.2896 0.48949 0.12397 0.0
C90 C 0.21235 0.50594 0.0811 0.0
C91 C 0.16503 0.48554 0.13908 0.0
C92 C 0.19266 0.47434 0.10584 0.0
C93 C 0.20263 0.54899 0.08834 0.0
C94 C 0.17472 0.56047 0.12088 0.0
C95 C 0.15548 0.52877 0.14542 0.0
C96 C 0.23663 0.57397 0.98595 0.0
O97 O 0.23507 0.61579 0.9837 0.0
C98 C 0.31082 0.57484 0.01043 0.0
C99 C 0.3131 0.59278 0.05151 0.0
C100 C 0.34406 0.62352 0.06135 0.0
C101 C 0.37414 0.63458 0.03054 0.0
C102 C 0.37103 0.61842 0.98905 0.0
C103 C 0.33958 0.58821 0.97914 0.0
C104 C 0.25866 0.48394 0.90114 0.0
C105 C 0.2401 0.52096 0.88366 0.0
C106 C 0.2237 0.52032 0.84188 0.0
C107 C 0.22585 0.48278 0.81797 0.0
C108 C 0.2447 0.44603 0.83448 0.0
C109 C 0.26061 0.44651 0.8762 0.0
C110 C 0.265 0.39447 0.00694 0.0
C111 C 0.29647 0.31276 0.02376 0.0
C112 C 0.28819 0.32462 0.98154 0.0
C113 C 0.27211 0.36555 0.97352 0.0
C114 C 0.27298 0.38177 0.0492 0.0
C115 C 0.28807 0.34052 0.05767 0.0
H116 H 0.41143 0.45982 0.97008 0.0
H117 H 0.43129 0.45689 0.04746 0.0
H118 H 0.37585 0.46935 0.10326 0.0
H119 H 0.11461 0.45814 0.9615 0.0
H120 H 0.09489 0.53473 0.95035 0.0
H121 H 0.14948 0.59219 0.96105 0.0
H122 H 0.20199 0.44142 0.10147 0.0
H123 H 0.2194 0.5737 0.07149 0.0
H124 H 0.13652 0.53847 0.17252 0.0
H125 H 0.28896 0.58551 0.07474 0.0
H126 H 0.39649 0.66022 0.03721 0.0
H127 H 0.33515 0.57776 0.94648 0.0
H128 H 0.24074 0.55062 0.90116 0.0
H129 H 0.21249 0.48212 0.78598 0.0
H130 H 0.27686 0.41866 0.88826 0.0
H131 H 0.31003 0.28171 0.03057 0.0
H132 H 0.26309 0.37433 0.9415 0.0
H133 H 0.26526 0.40277 0.07536 0.0
C134 C 0.0837 0.69211 0.49176 0.0
O135 O 0.12214 0.67534 0.49252 0.0
C136 C 0.04537 0.66617 0.48483 0.0
C137 C 0.04203 0.62213 0.4785 0.0
C138 C 0.00073 0.60448 0.47362 0.0
C139 C 0.96412 0.63076 0.47541 0.0
C140 C 0.97016 0.67447 0.48196 0.0
N141 N 0.00979 0.68925 0.48579 0.0
N142 N 0.0205 0.76187 0.43575 0.0
Co143 Co 0.01585 0.74672 0.49582 0.0
N144 N 0.02201 0.80409 0.50603 0.0
C145 C 0.03261 0.87285 0.47869 0.0
C146 C 0.0327 0.88817 0.52113 0.0
C147 C 0.02739 0.85985 0.55576 0.0
C148 C 0.02201 0.81652 0.54661 0.0
C149 C 0.02706 0.82905 0.4722 0.0
N150 N 0.01264 0.74142 0.55735 0.0
N151 N 0.0768 0.73474 0.49828 0.0
N152 N 0.95379 0.74864 0.49207 0.0
C153 C 0.02612 0.80506 0.43205 0.0
O154 O 0.02927 0.82403 0.39486 0.0
C155 C 0.93814 0.70826 0.48567 0.0
O156 O 0.89705 0.70039 0.48221 0.0
C157 C 0.92527 0.78427 0.49388 0.0
C158 C 0.8656 0.81747 0.45649 0.0
C159 C 0.90544 0.79739 0.45567 0.0
C160 C 0.90608 0.7943 0.53314 0.0
C161 C 0.86636 0.81492 0.534 0.0
C162 C 0.84714 0.82729 0.49564 0.0
C163 C 0.01642 0.78073 0.57605 0.0
O164 O 0.01432 0.78613 0.61755 0.0
C165 C 0.00466 0.70413 0.58214 0.0
C166 C 0.96237 0.69338 0.59152 0.0
C167 C 0.95342 0.66474 0.6243 0.0
C168 C 0.98705 0.64644 0.64749 0.0
C169 C 0.02942 0.65878 0.64032 0.0
C170 C 0.0381 0.68662 0.60644 0.0
C171 C 0.11179 0.76321 0.50583 0.0
C172 C 0.12582 0.77069 0.54789 0.0
C173 C 0.16661 0.78757 0.55541 0.0
C174 C 0.19253 0.7981 0.52092 0.0
C175 C 0.17968 0.78979 0.47897 0.0
C176 C 0.13875 0.77315 0.47158 0.0
C177 C 0.01811 0.73517 0.39864 0.0
C178 C 0.00933 0.70435 0.3154 0.0
C179 C 0.04944 0.71764 0.32986 0.0
C180 C 0.05394 0.73231 0.37184 0.0
C181 C 0.97801 0.72175 0.38335 0.0
C182 C 0.97342 0.70705 0.34139 0.0
H183 H 0.07007 0.60207 0.47754 0.0
H184 H 0.9971 0.57052 0.4687 0.0
H185 H 0.93248 0.61734 0.47197 0.0
H186 H 0.03683 0.8944 0.45216 0.0
H187 H 0.03699 0.92187 0.52717 0.0
H188 H 0.02764 0.87143 0.58825 0.0
H189 H 0.91855 0.78761 0.42541 0.0
H190 H 0.91971 0.78217 0.56246 0.0
H191 H 0.81613 0.84263 0.49615 0.0
H192 H 0.93643 0.70987 0.5758 0.0
H193 H 0.97976 0.62539 0.67384 0.0
H194 H 0.07028 0.69801 0.60147 0.0
H195 H 0.10653 0.76055 0.57447 0.0
H196 H 0.22365 0.81199 0.5271 0.0
H197 H 0.12902 0.76469 0.43956 0.0
H198 H 0.0059 0.69212 0.2832 0.0
H199 H 0.08447 0.7444 0.38265 0.0
H200 H 0.94996 0.72573 0.40262 0.0
C201 C 0.71959 0.50597 0.92282 0.0
O202 O 0.71191 0.50622 0.88156 0.0
C203 C 0.68517 0.50283 0.95397 0.0
C204 C 0.64126 0.49878 0.9468 0.0
C205 C 0.61448 0.49472 0.98268 0.0
C206 C 0.63188 0.49437 0.02437 0.0
C207 C 0.67611 0.49856 0.02885 0.0
N208 N 0.69957 0.50319 0.99392 0.0
N209 N 0.76119 0.56658 0.00677 0.0
Co210 Co 0.75784 0.50462 0.00142 0.0
N211 N 0.81602 0.50556 0.00979 0.0
C212 C 0.87602 0.54464 0.03231 0.0
C213 C 0.89881 0.50579 0.03436 0.0
C214 C 0.87834 0.46668 0.02494 0.0
C215 C 0.83534 0.46784 0.01282 0.0
C216 C 0.83307 0.54312 0.02003 0.0
N217 N 0.7644 0.44314 0.99789 0.0
N218 N 0.76017 0.5085 0.93937 0.0
N219 N 0.74527 0.5 0.06193 0.0
C220 C 0.80198 0.57795 0.01812 0.0
O221 O 0.81326 0.61792 0.02408 0.0
C222 C 0.70213 0.4972 0.06779 0.0
O223 O 0.68517 0.49286 0.10576 0.0
C224 C 0.77415 0.49817 0.0974 0.0
C225 C 0.80009 0.53276 0.16218 0.0
C226 C 0.78198 0.5354 0.12122 0.0
C227 C 0.78536 0.45825 0.11436 0.0
C228 C 0.80277 0.45539 0.15542 0.0
C229 C 0.8107 0.49264 0.17862 0.0
C230 C 0.80604 0.43215 0.00526 0.0
O231 O 0.81888 0.39225 0.00576 0.0
C232 C 0.73247 0.41142 0.99031 0.0
C233 C 0.71853 0.3866 0.02472 0.0
C234 C 0.69718 0.34798 0.0176 0.0
C235 C 0.68772 0.33575 0.97573 0.0
C236 C 0.70128 0.36019 0.94112 0.0
C237 C 0.72371 0.39817 0.94835 0.0
C238 C 0.79573 0.51889 0.91279 0.0
C239 C 0.82802 0.48871 0.90546 0.0
C240 C 0.85837 0.49592 0.87345 0.0
C241 C 0.85678 0.53386 0.84998 0.0
C242 C 0.82315 0.56242 0.855 0.0
C243 C 0.79274 0.55485 0.88617 0.0
C244 C 0.73225 0.59754 0.98937 0.0
C245 C 0.68147 0.66493 0.96062 0.0
C246 C 0.72034 0.65694 0.9408 0.0
C247 C 0.74598 0.6238 0.95569 0.0
C248 C 0.6945 0.60783 0.01096 0.0
C249 C 0.66961 0.64261 0.99734 0.0
H250 H 0.62812 0.49838 0.91484 0.0
H251 H 0.58039 0.49139 0.97817 0.0
H252 H 0.61157 0.49052 0.05185 0.0
H253 H 0.89125 0.57448 0.04074 0.0
H254 H 0.93197 0.50591 0.0441 0.0
H255 H 0.89527 0.43677 0.02789 0.0
H256 H 0.77156 0.56592 0.10888 0.0
H257 H 0.77793 0.42946 0.09693 0.0
H258 H 0.82526 0.49017 0.20997 0.0
H259 H 0.72723 0.39577 0.05681 0.0
H260 H 0.67047 0.30631 0.9698 0.0
H261 H 0.73664 0.41575 0.92172 0.0
H262 H 0.82741 0.45843 0.92186 0.0
H263 H 0.87874 0.53868 0.82381 0.0
H264 H 0.76476 0.57493 0.88721 0.0
H265 H 0.6634 0.69278 0.95082 0.0
H266 H 0.77771 0.62003 0.94289 0.0
H267 H 0.68658 0.59126 0.04011 0.0
C268 C 0.5056 0.06476 0.30448 0.0
O269 O 0.50618 0.10059 0.32628 0.0
C270 C 0.50832 0.02292 0.32523 0.0
C271 C 0.51386 0.0134 0.36845 0.0
C272 C 0.51878 0.97008 0.38005 0.0
C273 C 0.51873 0.93765 0.34866 0.0
C274 C 0.51333 0.94976 0.30609 0.0
N275 N 0.5074 0.99088 0.29736 0.0
N276 N 0.56721 0.00806 0.23529 0.0
Co277 Co 0.50536 0.00535 0.24075 0.0
N278 N 0.50414 0.01953 0.18399 0.0
C279 C 0.54212 0.03241 0.12106 0.0
C280 C 0.50246 0.03639 0.09966 0.0
C281 C 0.4637 0.03112 0.12192 0.0
C282 C 0.46594 0.02227 0.16556 0.0
C283 C 0.54166 0.02335 0.16469 0.0
N284 N 0.44322 0.00522 0.23667 0.0
N285 N 0.50405 0.06403 0.26086 0.0
N286 N 0.50701 0.94421 0.2299 0.0
C287 C 0.57775 0.01684 0.19394 0.0
O288 O 0.61756 0.02092 0.18162 0.0
C289 C 0.51293 0.92296 0.26762 0.0
O290 O 0.51308 0.8811 0.26973 0.0
C291 C 0.49237 0.92199 0.19255 0.0
C292 C 0.50986 0.8752 0.1331 0.0
C293 C 0.52241 0.90532 0.16398 0.0
C294 C 0.44996 0.90713 0.19084 0.0
C295 C 0.43738 0.87705 0.1603 0.0
C296 C 0.46689 0.86327 0.13016 0.0
C297 C 0.43115 0.01428 0.1955 0.0
O298 O 0.39096 0.01466 0.18323 0.0
C299 C 0.41204 0.00059 0.26974 0.0
C300 C 0.40545 0.96057 0.28877 0.0
C301 C 0.36731 0.95221 0.31015 0.0
C302 C 0.33703 0.98448 0.31479 0.0
C303 C 0.34305 0.02449 0.29639 0.0
C304 C 0.38101 0.03275 0.27471 0.0
C305 C 0.50158 0.10254 0.23648 0.0
C306 C 0.46378 0.12674 0.2371 0.0
C307 C 0.46337 0.16867 0.22163 0.0
C308 C 0.50111 0.18605 0.20563 0.0
C309 C 0.53899 0.16256 0.20519 0.0
C310 C 0.53898 0.12039 0.21979 0.0
C311 C 0.59948 0.00463 0.26771 0.0
C312 C 0.67711 0.00188 0.31196 0.0
C313 C 0.65637 0.04092 0.30687 0.0
C314 C 0.61693 0.04215 0.28553 0.0
C315 C 0.62111 0.96563 0.27283 0.0
C316 C 0.66025 0.96439 0.29465 0.0
H317 H 0.51498 0.03834 0.39229 0.0
H318 H 0.5232 0.96173 0.41323 0.0
H319 H 0.52315 0.90458 0.35738 0.0
H320 H 0.57183 0.03604 0.10406 0.0
H321 H 0.50177 0.04323 0.06589 0.0
H322 H 0.43333 0.03365 0.10554 0.0
H323 H 0.55585 0.91316 0.16812 0.0
H324 H 0.42767 0.91603 0.21527 0.0
H325 H 0.45765 0.83792 0.1084 0.0
H326 H 0.42774 0.93491 0.2839 0.0
H327 H 0.30746 0.97759 0.33125 0.0
H328 H 0.38456 0.06276 0.25822 0.0
H329 H 0.43543 0.11365 0.25142 0.0
H330 H 0.50097 0.2181 0.1927 0.0
H331 H 0.56846 0.10259 0.22048 0.0
H332 H 0.70757 0.00084 0.32859 0.0
H333 H 0.60158 0.07251 0.27998 0.0
H334 H 0.60902 0.93717 0.2573 0.0
C335 C 0.52689 0.91667 0.73046 0.0
O336 O 0.53412 0.87564 0.72585 0.0
C337 C 0.52311 0.94545 0.69375 0.0
C338 C 0.52285 0.93561 0.65025 0.0
C339 C 0.5188 0.96966 0.62094 0.0
C340 C 0.51504 0.01223 0.63544 0.0
C341 C 0.51585 0.01948 0.67944 0.0
N342 N 0.52029 0.98618 0.70533 0.0
N343 N 0.58002 0.00721 0.76836 0.0
Co344 Co 0.51875 0.9971 0.76274 0.0
N345 N 0.51678 0.00783 0.82027 0.0
C346 C 0.55341 0.02536 0.88335 0.0
C347 C 0.51406 0.02252 0.905 0.0
C348 C 0.47614 0.01189 0.88271 0.0
C349 C 0.47891 0.00431 0.83887 0.0
C350 C 0.55347 0.01754 0.83944 0.0
N351 N 0.4572 0.98881 0.76697 0.0
N352 N 0.52719 0.93609 0.76962 0.0
N353 N 0.51044 0.05629 0.74634 0.0
C354 C 0.58948 0.01761 0.80991 0.0
O355 O 0.62873 0.02495 0.82305 0.0
C356 C 0.51096 0.05973 0.70282 0.0
O357 O 0.506 0.09645 0.68325 0.0
C358 C 0.50684 0.09311 0.77311 0.0
C359 C 0.53563 0.16283 0.79246 0.0
C360 C 0.54103 0.12204 0.7751 0.0
C361 C 0.46682 0.10506 0.7891 0.0
C362 C 0.46095 0.14611 0.80575 0.0
C363 C 0.49553 0.17427 0.8081 0.0
C364 C 0.44488 0.99328 0.80856 0.0
O365 O 0.40469 0.99087 0.82012 0.0
C366 C 0.4259 0.98388 0.73379 0.0
C367 C 0.40867 0.02059 0.71441 0.0
C368 C 0.36967 0.01836 0.69251 0.0
C369 C 0.34852 0.97938 0.68909 0.0
C370 C 0.36464 0.94274 0.70866 0.0
C371 C 0.40392 0.94477 0.73028 0.0
C372 C 0.54054 0.91349 0.80704 0.0
C373 C 0.51239 0.88407 0.8255 0.0
C374 C 0.5276 0.85338 0.8544 0.0
C375 C 0.57061 0.85462 0.86689 0.0
C376 C 0.59948 0.88185 0.84678 0.0
C377 C 0.58422 0.91166 0.81737 0.0
C378 C 0.61302 0.00632 0.73677 0.0
C379 C 0.69411 0.00267 0.69994 0.0
C380 C 0.6707 0.96515 0.70529 0.0
C381 C 0.62958 0.96703 0.72265 0.0
C382 C 0.63703 0.04369 0.73052 0.0
C383 C 0.6779 0.04196 0.71308 0.0
H384 H 0.52551 0.90302 0.63925 0.0
H385 H 0.51831 0.96304 0.5871 0.0
H386 H 0.51136 0.03826 0.61313 0.0
H387 H 0.58251 0.03325 0.90033 0.0
H388 H 0.51297 0.02846 0.93894 0.0
H389 H 0.44599 0.00971 0.89916 0.0
H390 H 0.57102 0.11367 0.76078 0.0
H391 H 0.43985 0.08374 0.78603 0.0
H392 H 0.49092 0.20553 0.82214 0.0
H393 H 0.4235 0.0513 0.7194 0.0
H394 H 0.31802 0.97801 0.67256 0.0
H395 H 0.4156 0.91712 0.74739 0.0
H396 H 0.47972 0.88267 0.81409 0.0
H397 H 0.58277 0.83085 0.88889 0.0
H398 H 0.60689 0.93075 0.8002 0.0
H399 H 0.72581 0.00098 0.68635 0.0
H400 H 0.61253 0.93772 0.72846 0.0
H401 H 0.62577 0.0735 0.74336 0.0
H402 H 0.05752 0.39953 0.36979 0.0
H403 H 0.21133 0.41814 0.17222 0.0
H404 H 0.10744 0.28381 0.31568 0.0
H405 H 0.08969 0.482 0.18265 0.0
H406 H 0.19339 0.37557 0.23525 0.0
H407 H 0.09543 0.44059 0.31564 0.0
C408 C 0.07849 0.38303 0.34797 0.0
C409 C 0.07954 0.33846 0.34693 0.0
C410 C 0.17091 0.39901 0.22345 0.0
C411 C 0.12153 0.3847 0.28455 0.0
C412 C 0.18065 0.42286 0.18714 0.0
C413 C 0.15209 0.45417 0.17213 0.0
C414 C 0.13306 0.40746 0.24533 0.0
C415 C 0.11319 0.45913 0.19349 0.0
C416 C 0.09936 0.4063 0.31667 0.0
C417 C 0.10628 0.31827 0.31745 0.0
N418 N 0.10515 0.43655 0.22931 0.0
N419 N 0.12572 0.34156 0.2866 0.0
H420 H 0.15192 0.56313 0.86581 0.0
H421 H 0.11318 0.63632 0.6263 0.0
H422 H 0.24909 0.5597 0.76947 0.0
H423 H 0.02266 0.65745 0.7272 0.0
H424 H 0.16642 0.61561 0.67987 0.0
H425 H 0.10761 0.60701 0.81845 0.0
C426 C 0.16452 0.57308 0.83534 0.0
C427 C 0.20395 0.5578 0.8213 0.0
C428 C 0.13494 0.62502 0.69028 0.0
C429 C 0.15316 0.6063 0.76639 0.0
C430 C 0.10454 0.63676 0.65966 0.0
C431 C 0.06302 0.6475 0.67207 0.0
C432 C 0.1237 0.62397 0.73363 0.0
C433 C 0.05376 0.64788 0.71589 0.0
C434 C 0.13908 0.5976 0.80802 0.0
C435 C 0.21868 0.57088 0.78125 0.0
N436 N 0.08363 0.63585 0.74495 0.0
N437 N 0.19297 0.59367 0.75485 0.0
H438 H 0.83556 0.60898 0.13845 0.0
H439 H 0.91378 0.65099 0.37164 0.0
H440 H 0.78292 0.54346 0.24683 0.0
H441 H 0.93861 0.73722 0.26794 0.0
H442 H 0.85579 0.61897 0.32963 0.0
H443 H 0.86339 0.664 0.18646 0.0
C444 C 0.82897 0.60675 0.17221 0.0
C445 C 0.80807 0.57104 0.18884 0.0
C446 C 0.87321 0.64562 0.31643 0.0
C447 C 0.84046 0.63317 0.24406 0.0
C448 C 0.9061 0.66397 0.34056 0.0
C449 C 0.93149 0.6959 0.32266 0.0
C450 C 0.86627 0.65916 0.27416 0.0
C451 C 0.92029 0.71182 0.28233 0.0
C452 C 0.84499 0.63804 0.19972 0.0
C453 C 0.8002 0.56981 0.23288 0.0
N454 N 0.88916 0.69265 0.25902 0.0
N455 N 0.81723 0.59985 0.25907 0.0
H456 H 0.94412 0.49727 0.86108 0.0
H457 H 0.94193 0.30643 0.69235 0.0
H458 H 0.83271 0.41866 0.84296 0.0
H459 H 0.02281 0.41749 0.68552 0.0
H460 H 0.90577 0.3382 0.75408 0.0
H461 H 0.98142 0.45512 0.80746 0.0
C462 C 0.92816 0.46999 0.84698 0.0
C463 C 0.88534 0.46147 0.85621 0.0
C464 C 0.93126 0.35558 0.73876 0.0
C465 C 0.92702 0.41423 0.79375 0.0
C466 C 0.95143 0.33784 0.7032 0.0
C467 C 0.98555 0.35932 0.68391 0.0
C468 C 0.94583 0.39466 0.75524 0.0
C469 C 0.997 0.39962 0.69972 0.0
C470 C 0.94909 0.44647 0.81582 0.0
C471 C 0.86585 0.42604 0.8368 0.0
N472 N 0.97757 0.4157 0.73468 0.0
N473 N 0.88661 0.40405 0.8058 0.0
H474 H 0.26027 0.01012 0.27439 0.0
H475 H 0.1857 0.21544 0.40068 0.0
H476 H 0.34483 0.10891 0.31974 0.0
H477 H 0.11847 0.09581 0.39663 0.0
H478 H 0.23294 0.18995 0.34411 0.0
H479 H 0.19917 0.05494 0.29195 0.0
C480 C 0.26591 0.04168 0.28734 0.0
C481 C 0.30746 0.05541 0.29709 0.0
C482 C 0.20679 0.16995 0.3544 0.0
C483 C 0.23785 0.10673 0.31697 0.0
C484 C 0.17959 0.18462 0.38622 0.0
C485 C 0.14842 0.15748 0.40303 0.0
C486 C 0.2025 0.12795 0.33957 0.0
C487 C 0.14212 0.11757 0.38418 0.0
C488 C 0.23108 0.06722 0.29716 0.0
C489 C 0.31319 0.09694 0.31255 0.0
N490 N 0.16949 0.10364 0.35384 0.0
N491 N 0.27861 0.1209 0.32297 0.0
H492 H 0.44229 0.85001 0.87574 0.0
H493 H 0.45629 0.62062 0.97307 0.0
H494 H 0.55292 0.7702 0.85767 0.0
H495 H 0.33574 0.67276 0.93233 0.0
H496 H 0.49311 0.67555 0.93169 0.0
H497 H 0.40203 0.78667 0.89808 0.0
C498 C 0.45804 0.81931 0.87633 0.0
C499 C 0.5014 0.81573 0.86614 0.0
C500 C 0.45859 0.6743 0.93085 0.0
C501 C 0.45585 0.74358 0.89158 0.0
C502 C 0.43774 0.64279 0.95411 0.0
C503 C 0.39317 0.64203 0.95532 0.0
C504 C 0.43455 0.70591 0.90998 0.0
C505 C 0.37025 0.67209 0.93136 0.0
C506 C 0.43509 0.78322 0.88891 0.0
C507 C 0.5201 0.77496 0.867 0.0
N508 N 0.39121 0.70347 0.91027 0.0
N509 N 0.49744 0.74069 0.88012 0.0
H510 H 0.73798 0.9509 0.26006 0.0
H511 H 0.78861 0.78165 0.44065 0.0
H512 H 0.64331 0.89177 0.33933 0.0
H513 H 0.88204 0.86516 0.38504 0.0
H514 H 0.73723 0.80278 0.38576 0.0
H515 H 0.79127 0.90046 0.28674 0.0
C516 C 0.72813 0.92606 0.28185 0.0
C517 C 0.68647 0.9255 0.29794 0.0
C518 C 0.7692 0.81584 0.38492 0.0
C519 C 0.74726 0.86864 0.32932 0.0
C520 C 0.7985 0.80379 0.41615 0.0
C521 C 0.83916 0.8225 0.41768 0.0
C522 C 0.78056 0.84703 0.35514 0.0
C523 C 0.85079 0.85045 0.38506 0.0
C524 C 0.7586 0.89761 0.29735 0.0
C525 C 0.67516 0.89309 0.32625 0.0
N526 N 0.82127 0.86257 0.35547 0.0
N527 N 0.70568 0.86639 0.34178 0.0
H528 H 0.64384 0.38732 0.88169 0.0
H529 H 0.61944 0.14884 0.8142 0.0
H530 H 0.73925 0.29155 0.9056 0.0
H531 H 0.53289 0.2482 0.77449 0.0
H532 H 0.67268 0.20318 0.83161 0.0
H533 H 0.61273 0.34175 0.82618 0.0
C534 C 0.65931 0.35748 0.8738 0.0
C535 C 0.69375 0.34278 0.89817 0.0
C536 C 0.64233 0.21313 0.81833 0.0
C537 C 0.6576 0.28976 0.83648 0.0
C538 C 0.61195 0.18202 0.8083 0.0
C539 C 0.57115 0.19412 0.79437 0.0
C540 C 0.63156 0.25655 0.81483 0.0
C541 C 0.56339 0.23758 0.78683 0.0
C542 C 0.64135 0.33118 0.84249 0.0
C543 C 0.71246 0.30369 0.88737 0.0
N544 N 0.59291 0.26726 0.79804 0.0
N545 N 0.69351 0.278 0.85804 0.0
H546 H 0.14296 0.84223 0.61887 0.0
H547 H 0.38181 0.86369 0.67573 0.0
H548 H 0.23466 0.74518 0.58763 0.0
H549 H 0.28449 0.93588 0.73976 0.0
H550 H 0.32788 0.81063 0.65547 0.0
H551 H 0.1907 0.86766 0.67558 0.0
C552 C 0.17234 0.82518 0.62527 0.0
C553 C 0.18531 0.79205 0.59846 0.0
C554 C 0.31846 0.83738 0.67509 0.0
C555 C 0.2408 0.82174 0.66168 0.0
C556 C 0.34938 0.86746 0.68684 0.0
C557 C 0.33725 0.90436 0.70868 0.0
C558 C 0.27525 0.84495 0.6847 0.0
C559 C 0.2948 0.90801 0.72223 0.0
C560 C 0.19987 0.83985 0.65734 0.0
C561 C 0.22388 0.77117 0.60759 0.0
N562 N 0.2651 0.87931 0.7091 0.0
N563 N 0.25085 0.78708 0.63765 0.0
H564 H 0.51149 0.85251 0.04916 0.0
H565 H 0.68231 0.66733 0.07954 0.0
H566 H 0.57629 0.83173 0.1689 0.0
H567 H 0.58921 0.67036 0.97792 0.0
H568 H 0.64577 0.72703 0.11381 0.0
H569 H 0.54644 0.78932 0.02014 0.0
C570 C 0.53413 0.83531 0.06888 0.0
C571 C 0.54105 0.84734 0.11143 0.0
C572 C 0.63278 0.714 0.08451 0.0
C573 C 0.58007 0.77424 0.07904 0.0
C574 C 0.65309 0.67933 0.06539 0.0
C575 C 0.63884 0.66408 0.02572 0.0
C576 C 0.59833 0.73358 0.0635 0.0
C577 C 0.60128 0.68136 0.00842 0.0
C578 C 0.55344 0.79882 0.05263 0.0
C579 C 0.57045 0.82382 0.13579 0.0
N580 N 0.58286 0.7158 0.02693 0.0
N581 N 0.58862 0.78808 0.11936 0.0
H582 H 0.7614 0.04946 0.73722 0.0
H583 H 0.78442 0.25462 0.59527 0.0
H584 H 0.65665 0.12192 0.68491 0.0
H585 H 0.88687 0.16815 0.62534 0.0
H586 H 0.74191 0.22318 0.65218 0.0
H587 H 0.80984 0.10779 0.71993 0.0
C588 C 0.74855 0.07795 0.72251 0.0
C589 C 0.7053 0.08032 0.71086 0.0
C590 C 0.77418 0.21195 0.64733 0.0
C591 C 0.76043 0.14717 0.69139 0.0
C592 C 0.79851 0.23009 0.61513 0.0
C593 C 0.83865 0.21316 0.60534 0.0
C594 C 0.79002 0.1763 0.66923 0.0
C595 C 0.85579 0.18164 0.63182 0.0
C596 C 0.77615 0.11132 0.71298 0.0
C597 C 0.68996 0.11851 0.69354 0.0
N598 N 0.83087 0.16334 0.66198 0.0
N599 N 0.71772 0.15014 0.68341 0.0
H600 H 0.45383 0.25176 0.24614 0.0
H601 H 0.2521 0.27149 0.09502 0.0
H602 H 0.38377 0.1457 0.19316 0.0
H603 H 0.34303 0.37204 0.11797 0.0
H604 H 0.28279 0.23126 0.15441 0.0
H605 H 0.39689 0.29983 0.22311 0.0
C606 C 0.42588 0.23847 0.23059 0.0
C607 C 0.42405 0.19491 0.22024 0.0
C608 C 0.29523 0.26266 0.14736 0.0
C609 C 0.35894 0.24969 0.19393 0.0
C610 C 0.27758 0.28573 0.11371 0.0
C611 C 0.2957 0.32467 0.10134 0.0
C612 C 0.33145 0.27857 0.16847 0.0
C613 C 0.32846 0.34195 0.12646 0.0
C614 C 0.39344 0.26593 0.21749 0.0
C615 C 0.38671 0.17917 0.20116 0.0
N616 N 0.34603 0.31827 0.15834 0.0
N617 N 0.35599 0.20672 0.1877 0.0
H618 H 0.90733 0.72771 0.66105 0.0
H619 H 0.85272 0.64402 0.84997 0.0
H620 H 0.90369 0.59379 0.63077 0.0
H621 H 0.77991 0.54931 0.78183 0.0
H622 H 0.86314 0.68273 0.78321 0.0
H623 H 0.85222 0.71629 0.71504 0.0
C624 C 0.89344 0.69627 0.66447 0.0
C625 C 0.91024 0.6614 0.64214 0.0
C626 C 0.84301 0.65468 0.78303 0.0
C627 C 0.84856 0.64808 0.70396 0.0
C628 C 0.83718 0.63265 0.82119 0.0
C629 C 0.81565 0.59363 0.82093 0.0
C630 C 0.82826 0.63656 0.74459 0.0
C631 C 0.79672 0.57947 0.78292 0.0
C632 C 0.86248 0.68973 0.69556 0.0
C633 C 0.89164 0.62129 0.64775 0.0
N634 N 0.80469 0.60017 0.74589 0.0
N635 N 0.8622 0.61554 0.67872 0.0
H636 H 0.96712 0.27547 0.26289 0.0
H637 H 0.7682 0.42572 0.22854 0.0
H638 H 0.88669 0.32149 0.36377 0.0
H639 H 0.8578 0.39265 0.13045 0.0
H640 H 0.79691 0.36871 0.27326 0.0
H641 H 0.91383 0.29829 0.21058 0.0
C642 C 0.93757 0.28938 0.27398 0.0
C643 C 0.93149 0.29753 0.31749 0.0
C644 C 0.80967 0.37311 0.24159 0.0
C645 C 0.87086 0.32441 0.25796 0.0
C646 C 0.79319 0.40549 0.21604 0.0
C647 C 0.81129 0.41409 0.17622 0.0
C648 C 0.84493 0.34964 0.2274 0.0
C649 C 0.84331 0.38705 0.16116 0.0
C650 C 0.90725 0.30251 0.24415 0.0
C651 C 0.89263 0.31508 0.33043 0.0
N652 N 0.85982 0.35653 0.18721 0.0
N653 N 0.86411 0.32887 0.30067 0.0
H654 H 0.11363 0.25981 0.70293 0.0
H655 H 0.28086 0.43932 0.75631 0.0
H656 H 0.15553 0.35777 0.61695 0.0
H657 H 0.21099 0.367 0.84927 0.0
H658 H 0.26085 0.38727 0.70171 0.0
H659 H 0.17378 0.27637 0.75036 0.0
C660 C 0.1369 0.2833 0.69304 0.0
C661 C 0.12983 0.30769 0.65628 0.0
C662 C 0.25101 0.38196 0.73429 0.0
C663 C 0.19754 0.32765 0.71066 0.0
C664 C 0.26258 0.41151 0.76547 0.0
C665 C 0.24656 0.40782 0.80694 0.0
C666 C 0.22283 0.34886 0.74465 0.0
C667 C 0.22342 0.37116 0.81744 0.0
C668 C 0.17089 0.29306 0.72029 0.0
C669 C 0.16015 0.3383 0.64506 0.0
N670 N 0.21121 0.34358 0.78615 0.0
N671 N 0.19228 0.3481 0.67265 0.0
H672 H 0.12765 0.67966 0.33916 0.0
H673 H 0.23428 0.60178 0.16809 0.0
H674 H 0.0515 0.75243 0.25068 0.0
H675 H 0.10879 0.61635 0.1136 0.0
H676 H 0.21862 0.65934 0.21874 0.0
H677 H 0.17421 0.65862 0.2804 0.0
C678 C 0.12186 0.69263 0.30768 0.0
C679 C 0.08526 0.71685 0.29938 0.0
C680 C 0.19504 0.65082 0.19486 0.0
C681 C 0.13775 0.69284 0.23213 0.0
C682 C 0.20417 0.61856 0.16559 0.0
C683 C 0.17254 0.60445 0.13704 0.0
C684 C 0.15406 0.66879 0.1952 0.0
C685 C 0.13386 0.62651 0.13522 0.0
C686 C 0.14845 0.68071 0.27406 0.0
C687 C 0.07897 0.7328 0.25804 0.0
N688 N 0.12543 0.65727 0.16444 0.0
N689 N 0.10409 0.71939 0.22568 0.0
H690 H 0.73849 0.93152 0.74722 0.0
H691 H 0.88835 0.85583 0.60835 0.0
H692 H 0.65415 0.90891 0.64076 0.0
H693 H 0.78651 0.7852 0.54827 0.0
H694 H 0.83861 0.87877 0.66374 0.0
H695 H 0.78896 0.87989 0.71783 0.0
C696 C 0.73013 0.91454 0.71826 0.0
C697 C 0.69251 0.92459 0.69597 0.0
C698 C 0.82738 0.85695 0.63941 0.0
C699 C 0.75064 0.86721 0.66128 0.0
C700 C 0.85589 0.84397 0.60778 0.0
C701 C 0.84118 0.81936 0.57349 0.0
C702 C 0.78402 0.84525 0.63631 0.0
C703 C 0.79876 0.80494 0.57391 0.0
C704 C 0.75921 0.88568 0.70116 0.0
C705 C 0.68291 0.90197 0.65872 0.0
N706 N 0.77141 0.81896 0.60416 0.0
N707 N 0.71221 0.87475 0.6421 0.0
H708 H 0.70836 0.26168 0.02015 0.0
H709 H 0.57278 0.23766 0.23203 0.0
H710 H 0.66404 0.36731 0.09613 0.0
H711 H 0.59239 0.13584 0.14195 0.0
H712 H 0.62429 0.28136 0.1936 0.0
H713 H 0.68305 0.21243 0.07452 0.0
C714 C 0.6934 0.27453 0.04841 0.0
C715 C 0.68707 0.31862 0.05308 0.0
C716 C 0.61803 0.24919 0.18267 0.0
C717 C 0.65877 0.26238 0.11571 0.0
C718 C 0.58885 0.22422 0.20466 0.0
C719 C 0.57793 0.18355 0.18948 0.0
C720 C 0.63616 0.23341 0.14511 0.0
C721 C 0.59985 0.16722 0.15435 0.0
C722 C 0.67928 0.24638 0.07954 0.0
C723 C 0.66906 0.33356 0.09102 0.0
N724 N 0.62743 0.19259 0.13275 0.0
N725 N 0.65495 0.30541 0.12066 0.0
H726 H 0.30015 0.05467 0.7277 0.0
H727 H 0.2404 0.17023 0.50951 0.0
H728 H 0.38539 0.06555 0.62126 0.0
H729 H 0.14815 0.13695 0.60526 0.0
H730 H 0.29763 0.14797 0.55739 0.0
H731 H 0.24937 0.10166 0.6913 0.0
C732 C 0.30872 0.06835 0.69724 0.0
C733 C 0.34685 0.05654 0.67731 0.0
C734 C 0.26496 0.14579 0.56815 0.0
C735 C 0.28861 0.10901 0.63501 0.0
C736 C 0.2322 0.15821 0.54075 0.0
C737 C 0.18935 0.15415 0.55299 0.0
C738 C 0.255 0.12917 0.60829 0.0
C739 C 0.1807 0.13997 0.59437 0.0
C740 C 0.27959 0.0947 0.6763 0.0
C741 C 0.35641 0.07431 0.63767 0.0
N742 N 0.21327 0.12737 0.62039 0.0
N743 N 0.32713 0.09924 0.61747 0.0
H744 H 0.39812 0.6357 0.12889 0.0
H745 H 0.36792 0.86845 0.10792 0.0
H746 H 0.2806 0.68059 0.07331 0.0
H747 H 0.42442 0.82037 0.22358 0.0
H748 H 0.32735 0.80213 0.10064 0.0
H749 H 0.40265 0.70129 0.17112 0.0
C750 C 0.37231 0.65859 0.12712 0.0
C751 C 0.33894 0.65289 0.09781 0.0
C752 C 0.34716 0.80674 0.12866 0.0
C753 C 0.3449 0.72871 0.14409 0.0
C754 C 0.36996 0.84481 0.13298 0.0
C755 C 0.3995 0.84971 0.16632 0.0
C756 C 0.35531 0.77301 0.15701 0.0
C757 C 0.4018 0.81773 0.19748 0.0
C758 C 0.37493 0.69612 0.151 0.0
C759 C 0.3067 0.68386 0.09585 0.0
N760 N 0.38128 0.78001 0.19126 0.0
N761 N 0.31117 0.72116 0.11757 0.0
H762 H 0.7592 0.2279 0.47771 0.0
H763 H 0.73441 0.06758 0.2817 0.0
H764 H 0.86496 0.17045 0.41174 0.0
H765 H 0.63108 0.1012 0.36508 0.0
H766 H 0.77972 0.12037 0.31717 0.0
H767 H 0.71022 0.19646 0.42563 0.0
C768 C 0.77219 0.20896 0.45199 0.0
C769 C 0.81624 0.20087 0.44972 0.0
C770 C 0.74695 0.11686 0.32728 0.0
C771 C 0.76019 0.16521 0.38965 0.0
C772 C 0.72102 0.08695 0.30691 0.0
C773 C 0.67919 0.07985 0.32092 0.0
C774 C 0.73102 0.13978 0.3621 0.0
C775 C 0.6632 0.10576 0.35347 0.0
C776 C 0.74416 0.19117 0.42221 0.0
C777 C 0.83129 0.17726 0.41495 0.0
N778 N 0.68941 0.13421 0.37349 0.0
N779 N 0.80325 0.15976 0.38661 0.0
H780 H 0.27653 0.23767 0.98024 0.0
H781 H 0.41743 0.2124 0.77188 0.0
H782 H 0.32061 0.3419 0.90226 0.0
H783 H 0.41053 0.11745 0.8706 0.0
H784 H 0.36033 0.2523 0.80651 0.0
H785 H 0.3051 0.18739 0.92823 0.0
C786 C 0.29186 0.25007 0.95203 0.0
C787 C 0.29745 0.2942 0.94638 0.0
C788 C 0.37051 0.22223 0.82007 0.0
C789 C 0.32909 0.23666 0.88628 0.0
C790 C 0.40281 0.19936 0.80021 0.0
C791 C 0.41882 0.16204 0.8189 0.0
C792 C 0.3544 0.20777 0.85904 0.0
C793 C 0.39899 0.14624 0.85545 0.0
C794 C 0.30783 0.22128 0.92225 0.0
C795 C 0.31592 0.30827 0.9083 0.0
N796 N 0.36822 0.16969 0.87492 0.0
N797 N 0.33164 0.27957 0.88 0.0
H798 H 0.16451 0.82261 0.39901 0.0
H799 H 0.39328 0.90683 0.37972 0.0
H800 H 0.26521 0.77223 0.47868 0.0
H801 H 0.30946 0.90213 0.27062 0.0
H802 H 0.35092 0.85052 0.4133 0.0
H803 H 0.21827 0.84561 0.3477 0.0
C804 C 0.19779 0.81568 0.40536 0.0
C805 C 0.21047 0.79688 0.44389 0.0
C806 C 0.34265 0.86069 0.38135 0.0
C807 C 0.27207 0.82355 0.3858 0.0
C808 C 0.36709 0.89249 0.36215 0.0
C809 C 0.35447 0.90895 0.32269 0.0
C810 C 0.30495 0.8465 0.36122 0.0
C811 C 0.31989 0.89006 0.30127 0.0
C812 C 0.22851 0.82878 0.37608 0.0
C813 C 0.25411 0.78833 0.45022 0.0
N814 N 0.2955 0.86063 0.32132 0.0
N815 N 0.28341 0.80265 0.42204 0.0
H816 H 0.77044 0.72385 0.96144 0.0
H817 H 0.64561 0.8483 0.78238 0.0
H818 H 0.70249 0.66702 0.8562 0.0
H819 H 0.65434 0.88329 0.91486 0.0
H820 H 0.70312 0.79656 0.79324 0.0
H821 H 0.76529 0.79337 0.92641 0.0
C822 C 0.75675 0.72563 0.9297 0.0
C823 C 0.73643 0.69001 0.91172 0.0
C824 C 0.69388 0.81707 0.8194 0.0
C825 C 0.72976 0.7691 0.87209 0.0
C826 C 0.66137 0.84689 0.81318 0.0
C827 C 0.64489 0.86942 0.84806 0.0
C828 C 0.71005 0.81036 0.86063 0.0
C829 C 0.66604 0.86616 0.88735 0.0
C830 C 0.75344 0.76534 0.90997 0.0
C831 C 0.71836 0.69394 0.87102 0.0
N832 N 0.69695 0.83631 0.89286 0.0
N833 N 0.71452 0.73311 0.85292 0.0
loop_
_geom_bond_atom_site_label_1
_geom_bond_atom_site_label_2
_geom_bond_distance
_geom_bond_site_symmetry_2
_ccdc_geom_bond_type
C0 O1 1.201 . S
C0 C2 1.493 . S
C0 N17 1.318 . S
O1 C0 1.201 . S
C2 C0 1.493 . S
C2 C3 1.381 . S
C2 N7 1.335 1_655 S
C3 C2 1.381 . S
C3 C4 1.411 1_655 S
C3 H49 0.931 . S
C4 C3 1.411 1_455 S
C4 C5 1.384 . S
C4 H50 0.930 . S
C5 C4 1.384 . S
C5 C6 1.376 . S
C5 H51 0.929 . S
C6 C5 1.376 . S
C6 N7 1.330 . S
C6 C21 1.484 . S
N7 C2 1.335 1_455 S
N7 C6 1.330 . S
N7 Co9 1.859 . S
N8 Co9 1.962 . S
N8 C19 1.318 . S
N8 C43 1.421 . S
Co9 N7 1.859 . S
Co9 N8 1.962 . S
Co9 N10 1.859 . S
Co9 N16 1.958 . S
Co9 N17 1.962 1_455 S
Co9 N18 1.958 . S
N10 Co9 1.859 . S
N10 C14 1.330 . S
N10 C15 1.335 . S
C11 C12 1.411 . S
C11 C15 1.381 . S
C11 H52 0.931 . S
C12 C11 1.411 . S
C12 C13 1.384 . S
C12 H53 0.930 . S
C13 C12 1.384 . S
C13 C14 1.376 . S
C13 H54 0.929 . S
C14 N10 1.330 . S
C14 C13 1.376 . S
C14 C29 1.484 . S
C15 N10 1.335 . S
C15 C11 1.381 . S
C15 C19 1.493 . S
N16 Co9 1.958 . S
N16 C29 1.344 . S
N16 C31 1.425 . S
N17 C0 1.318 . S
N17 Co9 1.962 1_655 S
N17 C37 1.421 . S
N18 Co9 1.958 . S
N18 C21 1.344 . S
N18 C23 1.425 . S
C19 N8 1.318 . S
C19 C15 1.493 . S
C19 O20 1.201 . S
O20 C19 1.201 . S
C21 C6 1.484 . S
C21 N18 1.344 . S
C21 O22 1.268 . S
O22 C21 1.268 . S
C23 N18 1.425 . S
C23 C25 1.392 . S
C23 C26 1.368 . S
C24 C25 1.382 . S
C24 C28 1.386 . S
C25 C23 1.392 . S
C25 C24 1.382 . S
C25 H55 0.928 . S
C26 C23 1.368 . S
C26 C27 1.367 . S
C26 H56 0.930 . S
C27 C26 1.367 . S
C27 C28 1.369 . S
C28 C24 1.386 . S
C28 C27 1.369 . S
C28 H57 0.930 . S
C29 C14 1.484 . S
C29 N16 1.344 . S
C29 O30 1.268 . S
O30 C29 1.268 . S
C31 N16 1.425 . S
C31 C32 1.368 . S
C31 C36 1.392 1_455 S
C32 C31 1.368 . S
C32 C33 1.367 . S
C32 H58 0.930 . S
C33 C32 1.367 . S
C33 C34 1.369 . S
C34 C33 1.369 . S
C34 C35 1.386 1_455 S
C34 H59 0.930 . S
C35 C34 1.386 1_655 S
C35 C36 1.382 . S
C36 C31 1.392 1_655 S
C36 C35 1.382 . S
C36 H60 0.928 . S
C37 N17 1.421 . S
C37 C38 1.371 . S
C37 C42 1.385 . S
C38 C37 1.371 . S
C38 C39 1.367 . S
C38 H61 0.931 . S
C39 C38 1.367 . S
C39 C40 1.401 . S
C40 C39 1.401 . S
C40 C41 1.385 . S
C40 H62 0.930 . S
C41 C40 1.385 . S
C41 C42 1.402 . S
C42 C37 1.385 . S
C42 C41 1.402 . S
C42 H63 0.929 . S
C43 N8 1.421 . S
C43 C46 1.385 1_455 S
C43 C47 1.371 . S
C44 C45 1.385 1_455 S
C44 C48 1.401 . S
C44 H64 0.930 . S
C45 C44 1.385 1_655 S
C45 C46 1.402 . S
C46 C43 1.385 1_655 S
C46 C45 1.402 . S
C46 H65 0.929 . S
C47 C43 1.371 . S
C47 C48 1.367 . S
C47 H66 0.931 . S
C48 C44 1.401 . S
C48 C47 1.367 . S
H49 C3 0.931 . S
H50 C4 0.930 . S
H51 C5 0.929 . S
H52 C11 0.931 . S
H53 C12 0.930 . S
H54 C13 0.929 . S
H55 C25 0.928 . S
H56 C26 0.930 . S
H57 C28 0.930 . S
H58 C32 0.930 . S
H59 C34 0.930 . S
H60 C36 0.928 . S
H61 C38 0.931 . S
H62 C40 0.930 . S
H63 C42 0.929 . S
H64 C44 0.930 . S
H65 C46 0.929 . S
H66 C47 0.931 . S
C67 O68 1.201 . S
C67 C69 1.493 . S
C67 N84 1.318 . S
O68 C67 1.201 . S
C69 C67 1.493 . S
C69 C70 1.381 . S
C69 N74 1.335 1_556 S
C70 C69 1.381 . S
C70 C71 1.411 1_556 S
C70 H116 0.931 . S
C71 C70 1.411 1_554 S
C71 C72 1.384 . S
C71 H117 0.930 . S
C72 C71 1.384 . S
C72 C73 1.376 . S
C72 H118 0.929 . S
C73 C72 1.376 . S
C73 N74 1.330 . S
C73 C88 1.484 . S
N74 C69 1.335 1_554 S
N74 C73 1.330 . S
N74 Co76 1.859 . S
N75 Co76 1.962 . S
N75 C86 1.318 . S
N75 C110 1.421 . S
Co76 N74 1.859 . S
Co76 N75 1.962 . S
Co76 N77 1.859 . S
Co76 N83 1.958 . S
Co76 N84 1.962 1_554 S
Co76 N85 1.958 . S
N77 Co76 1.859 . S
N77 C81 1.330 . S
N77 C82 1.335 . S
C78 C79 1.411 . S
C78 C82 1.381 . S
C78 H119 0.931 . S
C79 C78 1.411 . S
C79 C80 1.384 . S
C79 H120 0.930 . S
C80 C79 1.384 . S
C80 C81 1.376 . S
C80 H121 0.929 . S
C81 N77 1.330 . S
C81 C80 1.376 . S
C81 C96 1.484 . S
C82 N77 1.335 . S
C82 C78 1.381 . S
C82 C86 1.493 . S
N83 Co76 1.958 . S
N83 C96 1.344 . S
N83 C98 1.425 . S
N84 C67 1.318 . S
N84 Co76 1.962 1_556 S
N84 C104 1.421 . S
N85 Co76 1.958 . S
N85 C88 1.344 . S
N85 C90 1.425 . S
C86 N75 1.318 . S
C86 C82 1.493 . S
C86 O87 1.201 . S
O87 C86 1.201 . S
C88 C73 1.484 . S
C88 N85 1.344 . S
C88 O89 1.268 . S
O89 C88 1.268 . S
C90 N85 1.425 . S
C90 C92 1.392 . S
C90 C93 1.368 . S
C91 C92 1.382 . S
C91 C95 1.386 . S
C92 C90 1.392 . S
C92 C91 1.382 . S
C92 H122 0.928 . S
C93 C90 1.368 . S
C93 C94 1.367 . S
C93 H123 0.930 . S
C94 C93 1.367 . S
C94 C95 1.369 . S
C95 C91 1.386 . S
C95 C94 1.369 . S
C95 H124 0.930 . S
C96 C81 1.484 . S
C96 N83 1.344 . S
C96 O97 1.268 . S
O97 C96 1.268 . S
C98 N83 1.425 . S
C98 C99 1.368 . S
C98 C103 1.392 1_554 S
C99 C98 1.368 . S
C99 C100 1.367 . S
C99 H125 0.930 . S
C100 C99 1.367 . S
C100 C101 1.369 1_554 S
C101 C100 1.369 1_556 S
C101 C102 1.386 . S
C101 H126 0.930 . S
C102 C101 1.386 . S
C102 C103 1.382 . S
C103 C98 1.392 1_556 S
C103 C102 1.382 . S
C103 H127 0.928 . S
C104 N84 1.421 . S
C104 C105 1.371 . S
C104 C109 1.385 . S
C105 C104 1.371 . S
C105 C106 1.367 . S
C105 H128 0.931 . S
C106 C105 1.367 . S
C106 C107 1.401 . S
C107 C106 1.401 . S
C107 C108 1.385 . S
C107 H129 0.930 . S
C108 C107 1.385 . S
C108 C109 1.402 . S
C109 C104 1.385 . S
C109 C108 1.402 . S
C109 H130 0.929 . S
C110 N75 1.421 . S
C110 C113 1.385 1_554 S
C110 C114 1.371 . S
C111 C112 1.385 1_554 S
C111 C115 1.401 . S
C111 H131 0.930 . S
C112 C111 1.385 1_556 S
C112 C113 1.402 . S
C113 C110 1.385 1_556 S
C113 C112 1.402 . S
C113 H132 0.929 . S
C114 C110 1.371 . S
C114 C115 1.367 . S
C114 H133 0.931 . S
C115 C111 1.401 . S
C115 C114 1.367 . S
H116 C70 0.931 . S
H117 C71 0.930 . S
H118 C72 0.929 . S
H119 C78 0.931 . S
H120 C79 0.930 . S
H121 C80 0.929 . S
H122 C92 0.928 . S
H123 C93 0.930 . S
H124 C95 0.930 . S
H125 C99 0.930 . S
H126 C101 0.930 . S
H127 C103 0.928 . S
H128 C105 0.931 . S
H129 C107 0.930 . S
H130 C109 0.929 . S
H131 C111 0.930 . S
H132 C113 0.929 . S
H133 C114 0.931 . S
C134 O135 1.201 . S
C134 C136 1.493 . S
C134 N151 1.318 . S
O135 C134 1.201 . S
C136 C134 1.493 . S
C136 C137 1.381 . S
C136 N141 1.335 . S
C137 C136 1.381 . S
C137 C138 1.411 1_455 S
C137 H183 0.931 . S
C138 C137 1.411 1_655 S
C138 C139 1.384 . S
C138 H184 0.930 . S
C139 C138 1.384 . S
C139 C140 1.376 . S
C139 H185 0.929 . S
C140 C139 1.376 . S
C140 N141 1.330 1_655 S
C140 C155 1.484 . S
N141 C136 1.335 . S
N141 C140 1.330 1_455 S
N141 Co143 1.859 . S
N142 Co143 1.962 . S
N142 C153 1.318 1_455 S
N142 C177 1.421 . S
Co143 N141 1.859 . S
Co143 N142 1.962 . S
Co143 N144 1.859 1_455 S
Co143 N150 1.958 . S
Co143 N151 1.962 . S
Co143 N152 1.958 1_455 S
N144 Co143 1.859 1_655 S
N144 C148 1.330 . S
N144 C149 1.335 . S
C145 C146 1.411 . S
C145 C149 1.381 . S
C145 H186 0.931 . S
C146 C145 1.411 . S
C146 C147 1.384 . S
C146 H187 0.930 . S
C147 C146 1.384 . S
C147 C148 1.376 . S
C147 H188 0.929 . S
C148 N144 1.330 . S
C148 C147 1.376 . S
C148 C163 1.483 1_655 S
C149 N144 1.335 . S
C149 C145 1.381 . S
C149 C153 1.493 . S
N150 Co143 1.958 . S
N150 C163 1.346 . S
N150 C165 1.425 . S
N151 C134 1.318 . S
N151 Co143 1.962 . S
N151 C171 1.421 . S
N152 Co143 1.958 1_655 S
N152 C155 1.344 . S
N152 C157 1.425 . S
C153 N142 1.318 1_655 S
C153 C149 1.493 . S
C153 O154 1.201 . S
O154 C153 1.201 . S
C155 C140 1.484 . S
C155 N152 1.344 . S
C155 O156 1.268 . S
O156 C155 1.268 . S
C157 N152 1.425 . S
C157 C159 1.392 . S
C157 C160 1.368 . S
C158 C159 1.382 . S
C158 C162 1.386 . S
C159 C157 1.392 . S
C159 C158 1.382 . S
C159 H189 0.928 . S
C160 C157 1.368 . S
C160 C161 1.367 . S
C160 H190 0.930 . S
C161 C160 1.367 . S
C161 C162 1.369 . S
C162 C158 1.386 . S
C162 C161 1.369 . S
C162 H191 0.930 . S
C163 C148 1.483 1_455 S
C163 N150 1.346 . S
C163 O164 1.268 1_455 S
O164 C163 1.268 1_655 S
C165 N150 1.425 . S
C165 C166 1.368 1_455 S
C165 C170 1.392 . S
C166 C165 1.368 1_655 S
C166 C167 1.367 . S
C166 H192 0.930 . S
C167 C166 1.367 . S
C167 C168 1.369 1_655 S
C168 C167 1.369 1_455 S
C168 C169 1.386 . S
C168 H193 0.930 . S
C169 C168 1.386 . S
C169 C170 1.382 . S
C170 C165 1.392 . S
C170 C169 1.382 . S
C170 H194 0.928 . S
C171 N151 1.421 . S
C171 C172 1.371 . S
C171 C176 1.385 . S
C172 C171 1.371 . S
C172 C173 1.367 . S
C172 H195 0.931 . S
C173 C172 1.367 . S
C173 C174 1.401 . S
C174 C173 1.401 . S
C174 C175 1.385 . S
C174 H196 0.930 . S
C175 C174 1.385 . S
C175 C176 1.402 . S
C176 C171 1.385 . S
C176 C175 1.402 . S
C176 H197 0.929 . S
C177 N142 1.421 . S
C177 C180 1.385 . S
C177 C181 1.371 1_455 S
C178 C179 1.385 . S
C178 C182 1.401 1_455 S
C178 H198 0.930 . S
C179 C178 1.385 . S
C179 C180 1.402 . S
C180 C177 1.385 . S
C180 C179 1.402 . S
C180 H199 0.929 . S
C181 C177 1.371 1_655 S
C181 C182 1.367 . S
C181 H200 0.931 . S
C182 C178 1.401 1_655 S
C182 C181 1.367 . S
H183 C137 0.931 . S
H184 C138 0.930 . S
H185 C139 0.929 . S
H186 C145 0.931 . S
H187 C146 0.930 . S
H188 C147 0.929 . S
H189 C159 0.928 . S
H190 C160 0.930 . S
H191 C162 0.930 . S
H192 C166 0.930 . S
H193 C168 0.930 . S
H194 C170 0.928 . S
H195 C172 0.931 . S
H196 C174 0.930 . S
H197 C176 0.929 . S
H198 C178 0.930 . S
H199 C180 0.929 . S
H200 C181 0.931 . S
C201 O202 1.201 . S
C201 C203 1.493 . S
C201 N218 1.318 . S
O202 C201 1.201 . S
C203 C201 1.493 . S
C203 C204 1.381 . S
C203 N208 1.335 1_556 S
C204 C203 1.381 . S
C204 C205 1.411 1_556 S
C204 H250 0.931 . S
C205 C204 1.411 1_554 S
C205 C206 1.384 . S
C205 H251 0.930 . S
C206 C205 1.384 . S
C206 C207 1.376 . S
C206 H252 0.929 . S
C207 C206 1.376 . S
C207 N208 1.330 . S
C207 C222 1.484 . S
N208 C203 1.335 1_554 S
N208 C207 1.330 . S
N208 Co210 1.859 . S
N209 Co210 1.962 . S
N209 C220 1.318 . S
N209 C244 1.421 . S
Co210 N208 1.859 . S
Co210 N209 1.962 . S
Co210 N211 1.859 . S
Co210 N217 1.958 . S
Co210 N218 1.962 1_554 S
Co210 N219 1.958 . S
N211 Co210 1.859 . S
N211 C215 1.330 . S
N211 C216 1.335 . S
C212 C213 1.411 . S
C212 C216 1.381 . S
C212 H253 0.931 . S
C213 C212 1.411 . S
C213 C214 1.384 . S
C213 H254 0.930 . S
C214 C213 1.384 . S
C214 C215 1.376 . S
C214 H255 0.929 . S
C215 N211 1.330 . S
C215 C214 1.376 . S
C215 C230 1.484 . S
C216 N211 1.335 . S
C216 C212 1.381 . S
C216 C220 1.493 . S
N217 Co210 1.958 . S
N217 C230 1.344 . S
N217 C232 1.425 . S
N218 C201 1.318 . S
N218 Co210 1.962 1_556 S
N218 C238 1.421 . S
N219 Co210 1.958 . S
N219 C222 1.344 . S
N219 C224 1.425 . S
C220 N209 1.318 . S
C220 C216 1.493 . S
C220 O221 1.201 . S
O221 C220 1.201 . S
C222 C207 1.484 . S
C222 N219 1.344 . S
C222 O223 1.268 . S
O223 C222 1.268 . S
C224 N219 1.425 . S
C224 C226 1.392 . S
C224 C227 1.368 . S
C225 C226 1.382 . S
C225 C229 1.386 . S
C226 C224 1.392 . S
C226 C225 1.382 . S
C226 H256 0.928 . S
C227 C224 1.368 . S
C227 C228 1.367 . S
C227 H257 0.930 . S
C228 C227 1.367 . S
C228 C229 1.369 . S
C229 C225 1.386 . S
C229 C228 1.369 . S
C229 H258 0.930 . S
C230 C215 1.484 . S
C230 N217 1.344 . S
C230 O231 1.268 . S
O231 C230 1.268 . S
C232 N217 1.425 . S
C232 C233 1.368 . S
C232 C237 1.392 1_554 S
C233 C232 1.368 . S
C233 C234 1.367 . S
C233 H259 0.930 . S
C234 C233 1.367 . S
C234 C235 1.369 1_554 S
C235 C234 1.369 1_556 S
C235 C236 1.386 . S
C235 H260 0.930 . S
C236 C235 1.386 . S
C236 C237 1.382 . S
C237 C232 1.392 1_556 S
C237 C236 1.382 . S
C237 H261 0.928 . S
C238 N218 1.421 . S
C238 C239 1.371 . S
C238 C243 1.385 . S
C239 C238 1.371 . S
C239 C240 1.367 . S
C239 H262 0.931 . S
C240 C239 1.367 . S
C240 C241 1.401 . S
C241 C240 1.401 . S
C241 C242 1.385 . S
C241 H263 0.930 . S
C242 C241 1.385 . S
C242 C243 1.402 . S
C243 C238 1.385 . S
C243 C242 1.402 . S
C243 H264 0.929 . S
C244 N209 1.421 . S
C244 C247 1.385 1_554 S
C244 C248 1.371 . S
C245 C246 1.385 1_554 S
C245 C249 1.401 . S
C245 H265 0.930 . S
C246 C245 1.385 1_556 S
C246 C247 1.402 . S
C247 C244 1.385 1_556 S
C247 C246 1.402 . S
C247 H266 0.929 . S
C248 C244 1.371 . S
C248 C249 1.367 . S
C248 H267 0.931 . S
C249 C245 1.401 . S
C249 C248 1.367 . S
H250 C204 0.931 . S
H251 C205 0.930 . S
H252 C206 0.929 . S
H253 C212 0.931 . S
H254 C213 0.930 . S
H255 C214 0.929 . S
H256 C226 0.928 . S
H257 C227 0.930 . S
H258 C229 0.930 . S
H259 C233 0.930 . S
H260 C235 0.930 . S
H261 C237 0.928 . S
H262 C239 0.931 . S
H263 C241 0.930 . S
H264 C243 0.929 . S
H265 C245 0.930 . S
H266 C247 0.929 . S
H267 C248 0.931 . S
C268 O269 1.201 . S
C268 C270 1.493 . S
C268 N285 1.318 . S
O269 C268 1.201 . S
C270 C268 1.493 . S
C270 C271 1.381 . S
C270 N275 1.335 1_545 S
C271 C270 1.381 . S
C271 C272 1.411 1_545 S
C271 H317 0.931 . S
C272 C271 1.411 1_565 S
C272 C273 1.384 . S
C272 H318 0.930 . S
C273 C272 1.384 . S
C273 C274 1.376 . S
C273 H319 0.929 . S
C274 C273 1.376 . S
C274 N275 1.330 . S
C274 C289 1.484 . S
N275 C270 1.335 1_565 S
N275 C274 1.330 . S
N275 Co277 1.859 . S
N276 Co277 1.962 . S
N276 C287 1.318 . S
N276 C311 1.421 . S
Co277 N275 1.859 . S
Co277 N276 1.962 . S
Co277 N278 1.859 . S
Co277 N284 1.958 . S
Co277 N285 1.962 1_565 S
Co277 N286 1.958 . S
N278 Co277 1.859 . S
N278 C282 1.330 . S
N278 C283 1.335 . S
C279 C280 1.411 . S
C279 C283 1.381 . S
C279 H320 0.931 . S
C280 C279 1.411 . S
C280 C281 1.384 . S
C280 H321 0.930 . S
C281 C280 1.384 . S
C281 C282 1.376 . S
C281 H322 0.929 . S
C282 N278 1.330 . S
C282 C281 1.376 . S
C282 C297 1.484 . S
C283 N278 1.335 . S
C283 C279 1.381 . S
C283 C287 1.493 . S
N284 Co277 1.958 . S
N284 C297 1.344 . S
N284 C299 1.426 . S
N285 C268 1.318 . S
N285 Co277 1.962 1_545 S
N285 C305 1.421 . S
N286 Co277 1.958 . S
N286 C289 1.344 . S
N286 C291 1.425 . S
C287 N276 1.318 . S
C287 C283 1.493 . S
C287 O288 1.201 . S
O288 C287 1.201 . S
C289 C274 1.484 . S
C289 N286 1.344 . S
C289 O290 1.268 . S
O290 C289 1.268 . S
C291 N286 1.425 . S
C291 C293 1.392 . S
C291 C294 1.368 . S
C292 C293 1.382 . S
C292 C296 1.386 . S
C293 C291 1.392 . S
C293 C292 1.382 . S
C293 H323 0.928 . S
C294 C291 1.368 . S
C294 C295 1.367 . S
C294 H324 0.930 . S
C295 C294 1.367 . S
C295 C296 1.369 . S
C296 C292 1.386 . S
C296 C295 1.369 . S
C296 H325 0.930 . S
C297 C282 1.484 . S
C297 N284 1.344 . S
C297 O298 1.268 . S
O298 C297 1.268 . S
C299 N284 1.426 . S
C299 C300 1.380 . S
C299 C304 1.378 1_565 S
C300 C299 1.380 . S
C300 C301 1.367 . S
C300 H326 0.930 . S
C301 C300 1.367 . S
C301 C302 1.369 1_565 S
C302 C301 1.369 1_545 S
C302 C303 1.386 . S
C302 H327 0.930 . S
C303 C302 1.386 . S
C303 C304 1.382 . S
C304 C299 1.378 1_545 S
C304 C303 1.382 . S
C304 H328 0.928 . S
C305 N285 1.421 . S
C305 C306 1.371 . S
C305 C310 1.385 . S
C306 C305 1.371 . S
C306 C307 1.367 . S
C306 H329 0.931 . S
C307 C306 1.367 . S
C307 C308 1.401 . S
C308 C307 1.401 . S
C308 C309 1.385 . S
C308 H330 0.930 . S
C309 C308 1.385 . S
C309 C310 1.402 . S
C310 C305 1.385 . S
C310 C309 1.402 . S
C310 H331 0.929 . S
C311 N276 1.421 . S
C311 C314 1.385 1_565 S
C311 C315 1.371 . S
C312 C313 1.385 1_565 S
C312 C316 1.401 . S
C312 H332 0.930 . S
C313 C312 1.385 1_545 S
C313 C314 1.402 . S
C314 C311 1.385 1_545 S
C314 C313 1.402 . S
C314 H333 0.929 . S
C315 C311 1.371 . S
C315 C316 1.367 . S
C315 H334 0.931 . S
C316 C312 1.401 . S
C316 C315 1.367 . S
H317 C271 0.931 . S
H318 C272 0.930 . S
H319 C273 0.929 . S
H320 C279 0.931 . S
H321 C280 0.930 . S
H322 C281 0.929 . S
H323 C293 0.928 . S
H324 C294 0.930 . S
H325 C296 0.930 . S
H326 C300 0.930 . S
H327 C302 0.930 . S
H328 C304 0.928 . S
H329 C306 0.931 . S
H330 C308 0.930 . S
H331 C310 0.929 . S
H332 C312 0.930 . S
H333 C314 0.929 . S
H334 C315 0.931 . S
C335 O336 1.201 . S
C335 C337 1.493 . S
C335 N352 1.318 . S
O336 C335 1.201 . S
C337 C335 1.493 . S
C337 C338 1.381 . S
C337 N342 1.335 1_565 S
C338 C337 1.381 . S
C338 C339 1.411 1_565 S
C338 H384 0.931 . S
C339 C338 1.411 1_545 S
C339 C340 1.384 . S
C339 H385 0.930 . S
C340 C339 1.384 . S
C340 C341 1.376 . S
C340 H386 0.929 . S
C341 C340 1.376 . S
C341 N342 1.330 . S
C341 C356 1.484 . S
N342 C337 1.335 1_545 S
N342 C341 1.330 . S
N342 Co344 1.859 . S
N343 Co344 1.962 . S
N343 C354 1.318 . S
N343 C378 1.421 . S
Co344 N342 1.859 . S
Co344 N343 1.962 . S
Co344 N345 1.859 . S
Co344 N351 1.958 . S
Co344 N352 1.962 1_545 S
Co344 N353 1.958 . S
N345 Co344 1.859 . S
N345 C349 1.330 . S
N345 C350 1.335 . S
C346 C347 1.411 . S
C346 C350 1.381 . S
C346 H387 0.931 . S
C347 C346 1.411 . S
C347 C348 1.384 . S
C347 H388 0.930 . S
C348 C347 1.384 . S
C348 C349 1.376 . S
C348 H389 0.929 . S
C349 N345 1.330 . S
C349 C348 1.376 . S
C349 C364 1.484 . S
C350 N345 1.335 . S
C350 C346 1.381 . S
C350 C354 1.493 . S
N351 Co344 1.958 . S
N351 C364 1.344 . S
N351 C366 1.425 . S
N352 C335 1.318 . S
N352 Co344 1.962 1_565 S
N352 C372 1.421 . S
N353 Co344 1.958 . S
N353 C356 1.344 . S
N353 C358 1.425 . S
C354 N343 1.318 . S
C354 C350 1.493 . S
C354 O355 1.201 . S
O355 C354 1.201 . S
C356 C341 1.484 . S
C356 N353 1.344 . S
C356 O357 1.268 . S
O357 C356 1.268 . S
C358 N353 1.425 . S
C358 C360 1.392 . S
C358 C361 1.368 . S
C359 C360 1.382 . S
C359 C363 1.386 . S
C360 C358 1.392 . S
C360 C359 1.382 . S
C360 H390 0.928 . S
C361 C358 1.368 . S
C361 C362 1.367 . S
C361 H391 0.930 . S
C362 C361 1.367 . S
C362 C363 1.369 . S
C363 C359 1.386 . S
C363 C362 1.369 . S
C363 H392 0.930 . S
C364 C349 1.484 . S
C364 N351 1.344 . S
C364 O365 1.268 . S
O365 C364 1.268 . S
C366 N351 1.425 . S
C366 C367 1.368 . S
C366 C371 1.392 1_545 S
C367 C366 1.368 . S
C367 C368 1.367 . S
C367 H393 0.930 . S
C368 C367 1.367 . S
C368 C369 1.355 1_545 S
C369 C368 1.355 1_565 S
C369 C370 1.399 . S
C369 H394 0.932 . S
C370 C369 1.399 . S
C370 C371 1.382 . S
C371 C366 1.392 1_565 S
C371 C370 1.382 . S
C371 H395 0.928 . S
C372 N352 1.421 . S
C372 C373 1.371 . S
C372 C377 1.385 . S
C373 C372 1.371 . S
C373 C374 1.367 . S
C373 H396 0.931 . S
C374 C373 1.367 . S
C374 C375 1.401 . S
C375 C374 1.401 . S
C375 C376 1.385 . S
C375 H397 0.930 . S
C376 C375 1.385 . S
C376 C377 1.402 . S
C377 C372 1.385 . S
C377 C376 1.402 . S
C377 H398 0.929 . S
C378 N343 1.421 . S
C378 C381 1.385 1_545 S
C378 C382 1.371 . S
C379 C380 1.385 1_545 S
C379 C383 1.401 . S
C379 H399 0.930 . S
C380 C379 1.385 1_565 S
C380 C381 1.402 . S
C381 C378 1.385 1_565 S
C381 C380 1.402 . S
C381 H400 0.929 . S
C382 C378 1.371 . S
C382 C383 1.367 . S
C382 H401 0.931 . S
C383 C379 1.401 . S
C383 C382 1.367 . S
H384 C338 0.931 . S
H385 C339 0.930 . S
H386 C340 0.929 . S
H387 C346 0.931 . S
H388 C347 0.930 . S
H389 C348 0.929 . S
H390 C360 0.928 . S
H391 C361 0.930 . S
H392 C363 0.930 . S
H393 C367 0.930 . S
H394 C369 0.932 . S
H395 C371 0.928 . S
H396 C373 0.931 . S
H397 C375 0.930 . S
H398 C377 0.929 . S
H399 C379 0.930 . S
H400 C381 0.929 . S
H401 C382 0.931 . S
H402 C408 0.930 . S
H403 C412 0.930 . S
H404 C417 0.929 . S
H405 C415 0.929 . S
H406 C410 0.929 . S
H407 C416 0.929 . S
C408 H402 0.930 . S
C408 C409 1.367 . S
C408 C416 1.378 . S
C409 C408 1.367 . S
C409 C417 1.433 . S
C410 H406 0.929 . S
C410 C412 1.378 . S
C410 C414 1.350 . S
C411 C414 1.463 . S
C411 C416 1.350 . S
C411 N419 1.427 . S
C412 H403 0.930 . S
C412 C410 1.378 . S
C412 C413 1.367 . S
C413 C412 1.367 . S
C413 C415 1.433 . S
C414 C410 1.350 . S
C414 C411 1.463 . S
C414 N418 1.427 . S
C415 H405 0.929 . S
C415 C413 1.433 . S
C415 N418 1.384 . S
C416 H407 0.929 . S
C416 C408 1.378 . S
C416 C411 1.350 . S
C417 H404 0.929 . S
C417 C409 1.433 . S
C417 N419 1.384 . S
N418 C414 1.427 . S
N418 C415 1.384 . S
N419 C411 1.427 . S
N419 C417 1.384 . S
H420 C426 0.930 . S
H421 C430 0.930 . S
H422 C435 0.929 . S
H423 C433 0.929 . S
H424 C428 0.929 . S
H425 C434 0.929 . S
C426 H420 0.930 . S
C426 C427 1.367 . S
C426 C434 1.378 . S
C427 C426 1.367 . S
C427 C435 1.433 . S
C428 H424 0.929 . S
C428 C430 1.378 . S
C428 C432 1.350 . S
C429 C432 1.463 . S
C429 C434 1.350 . S
C429 N437 1.427 . S
C430 H421 0.930 . S
C430 C428 1.378 . S
C430 C431 1.367 . S
C431 C430 1.367 . S
C431 C433 1.433 . S
C432 C428 1.350 . S
C432 C429 1.463 . S
C432 N436 1.427 . S
C433 H423 0.929 . S
C433 C431 1.433 . S
C433 N436 1.384 . S
C434 H425 0.929 . S
C434 C426 1.378 . S
C434 C429 1.350 . S
C435 H422 0.929 . S
C435 C427 1.433 . S
C435 N437 1.384 . S
N436 C432 1.427 . S
N436 C433 1.384 . S
N437 C429 1.427 . S
N437 C435 1.384 . S
H438 C444 0.930 . S
H439 C448 0.930 . S
H440 C453 0.929 . S
H441 C451 0.929 . S
H442 C446 0.929 . S
H443 C452 0.929 . S
C444 H438 0.930 . S
C444 C445 1.367 . S
C444 C452 1.378 . S
C445 C444 1.367 . S
C445 C453 1.433 . S
C446 H442 0.929 . S
C446 C448 1.378 . S
C446 C450 1.350 . S
C447 C450 1.463 . S
C447 C452 1.350 . S
C447 N455 1.427 . S
C448 H439 0.930 . S
C448 C446 1.378 . S
C448 C449 1.367 . S
C449 C448 1.367 . S
C449 C451 1.433 . S
C450 C446 1.350 . S
C450 C447 1.463 . S
C450 N454 1.427 . S
C451 H441 0.929 . S
C451 C449 1.433 . S
C451 N454 1.384 . S
C452 H443 0.929 . S
C452 C444 1.378 . S
C452 C447 1.350 . S
C453 H440 0.929 . S
C453 C445 1.433 . S
C453 N455 1.384 . S
N454 C450 1.427 . S
N454 C451 1.384 . S
N455 C447 1.427 . S
N455 C453 1.384 . S
H456 C462 0.930 . S
H457 C466 0.930 . S
H458 C471 0.929 . S
H459 C469 0.929 . S
H460 C464 0.929 . S
H461 C470 0.929 . S
C462 H456 0.930 . S
C462 C463 1.367 . S
C462 C470 1.378 . S
C463 C462 1.367 . S
C463 C471 1.433 . S
C464 H460 0.929 . S
C464 C466 1.378 . S
C464 C468 1.350 . S
C465 C468 1.463 . S
C465 C470 1.350 . S
C465 N473 1.427 . S
C466 H457 0.930 . S
C466 C464 1.378 . S
C466 C467 1.367 . S
C467 C466 1.367 . S
C467 C469 1.433 . S
C468 C464 1.350 . S
C468 C465 1.463 . S
C468 N472 1.427 . S
C469 H459 0.929 . S
C469 C467 1.433 . S
C469 N472 1.384 . S
C470 H461 0.929 . S
C470 C462 1.378 . S
C470 C465 1.350 . S
C471 H458 0.929 . S
C471 C463 1.433 . S
C471 N473 1.384 . S
N472 C468 1.427 . S
N472 C469 1.384 . S
N473 C465 1.427 . S
N473 C471 1.384 . S
H474 C480 0.930 . S
H475 C484 0.930 . S
H476 C489 0.929 . S
H477 C487 0.929 . S
H478 C482 0.929 . S
H479 C488 0.929 . S
C480 H474 0.930 . S
C480 C481 1.367 . S
C480 C488 1.378 . S
C481 C480 1.367 . S
C481 C489 1.433 . S
C482 H478 0.929 . S
C482 C484 1.378 . S
C482 C486 1.350 . S
C483 C486 1.463 . S
C483 C488 1.350 . S
C483 N491 1.427 . S
C484 H475 0.930 . S
C484 C482 1.378 . S
C484 C485 1.367 . S
C485 C484 1.367 . S
C485 C487 1.433 . S
C486 C482 1.350 . S
C486 C483 1.463 . S
C486 N490 1.427 . S
C487 H477 0.929 . S
C487 C485 1.433 . S
C487 N490 1.384 . S
C488 H479 0.929 . S
C488 C480 1.378 . S
C488 C483 1.350 . S
C489 H476 0.929 . S
C489 C481 1.433 . S
C489 N491 1.384 . S
N490 C486 1.427 . S
N490 C487 1.384 . S
N491 C483 1.427 . S
N491 C489 1.384 . S
H492 C498 0.930 . S
H493 C502 0.930 . S
H494 C507 0.929 . S
H495 C505 0.929 . S
H496 C500 0.929 . S
H497 C506 0.929 . S
C498 H492 0.930 . S
C498 C499 1.367 . S
C498 C506 1.378 . S
C499 C498 1.367 . S
C499 C507 1.433 . S
C500 H496 0.929 . S
C500 C502 1.378 . S
C500 C504 1.350 . S
C501 C504 1.463 . S
C501 C506 1.350 . S
C501 N509 1.427 . S
C502 H493 0.930 . S
C502 C500 1.378 . S
C502 C503 1.367 . S
C503 C502 1.367 . S
C503 C505 1.433 . S
C504 C500 1.350 . S
C504 C501 1.463 . S
C504 N508 1.427 . S
C505 H495 0.929 . S
C505 C503 1.433 . S
C505 N508 1.384 . S
C506 H497 0.929 . S
C506 C498 1.378 . S
C506 C501 1.350 . S
C507 H494 0.929 . S
C507 C499 1.433 . S
C507 N509 1.384 . S
N508 C504 1.427 . S
N508 C505 1.384 . S
N509 C501 1.427 . S
N509 C507 1.384 . S
H510 C516 0.930 . S
H511 C520 0.930 . S
H512 C525 0.929 . S
H513 C523 0.929 . S
H514 C518 0.929 . S
H515 C524 0.929 . S
C516 H510 0.930 . S
C516 C517 1.367 . S
C516 C524 1.378 . S
C517 C516 1.367 . S
C517 C525 1.433 . S
C518 H514 0.929 . S
C518 C520 1.378 . S
C518 C522 1.350 . S
C519 C522 1.463 . S
C519 C524 1.350 . S
C519 N527 1.427 . S
C520 H511 0.930 . S
C520 C518 1.378 . S
C520 C521 1.367 . S
C521 C520 1.367 . S
C521 C523 1.433 . S
C522 C518 1.350 . S
C522 C519 1.463 . S
C522 N526 1.427 . S
C523 H513 0.929 . S
C523 C521 1.433 . S
C523 N526 1.384 . S
C524 H515 0.929 . S
C524 C516 1.378 . S
C524 C519 1.350 . S
C525 H512 0.929 . S
C525 C517 1.433 . S
C525 N527 1.384 . S
N526 C522 1.427 . S
N526 C523 1.384 . S
N527 C519 1.427 . S
N527 C525 1.384 . S
H528 C534 0.930 . S
H529 C538 0.930 . S
H530 C543 0.929 . S
H531 C541 0.929 . S
H532 C536 0.929 . S
H533 C542 0.929 . S
C534 H528 0.930 . S
C534 C535 1.367 . S
C534 C542 1.378 . S
C535 C534 1.367 . S
C535 C543 1.433 . S
C536 H532 0.929 . S
C536 C538 1.378 . S
C536 C540 1.350 . S
C537 C540 1.463 . S
C537 C542 1.350 . S
C537 N545 1.427 . S
C538 H529 0.930 . S
C538 C536 1.378 . S
C538 C539 1.367 . S
C539 C538 1.367 . S
C539 C541 1.433 . S
C540 C536 1.350 . S
C540 C537 1.463 . S
C540 N544 1.427 . S
C541 H531 0.929 . S
C541 C539 1.433 . S
C541 N544 1.384 . S
C542 H533 0.929 . S
C542 C534 1.378 . S
C542 C537 1.350 . S
C543 H530 0.929 . S
C543 C535 1.433 . S
C543 N545 1.384 . S
N544 C540 1.427 . S
N544 C541 1.384 . S
N545 C537 1.427 . S
N545 C543 1.384 . S
H546 C552 0.930 . S
H547 C556 0.930 . S
H548 C561 0.929 . S
H549 C559 0.929 . S
H550 C554 0.929 . S
H551 C560 0.929 . S
C552 H546 0.930 . S
C552 C553 1.367 . S
C552 C560 1.378 . S
C553 C552 1.367 . S
C553 C561 1.433 . S
C554 H550 0.929 . S
C554 C556 1.378 . S
C554 C558 1.350 . S
C555 C558 1.463 . S
C555 C560 1.350 . S
C555 N563 1.427 . S
C556 H547 0.930 . S
C556 C554 1.378 . S
C556 C557 1.367 . S
C557 C556 1.367 . S
C557 C559 1.433 . S
C558 C554 1.350 . S
C558 C555 1.463 . S
C558 N562 1.427 . S
C559 H549 0.929 . S
C559 C557 1.433 . S
C559 N562 1.384 . S
C560 H551 0.929 . S
C560 C552 1.378 . S
C560 C555 1.350 . S
C561 H548 0.929 . S
C561 C553 1.433 . S
C561 N563 1.384 . S
N562 C558 1.427 . S
N562 C559 1.384 . S
N563 C555 1.427 . S
N563 C561 1.384 . S
H564 C570 0.930 . S
H565 C574 0.930 . S
H566 C579 0.929 . S
H567 C577 0.929 . S
H568 C572 0.929 . S
H569 C578 0.929 . S
C570 H564 0.930 . S
C570 C571 1.367 . S
C570 C578 1.378 . S
C571 C570 1.367 . S
C571 C579 1.433 . S
C572 H568 0.929 . S
C572 C574 1.378 . S
C572 C576 1.350 . S
C573 C576 1.463 . S
C573 C578 1.350 . S
C573 N581 1.427 . S
C574 H565 0.930 . S
C574 C572 1.378 . S
C574 C575 1.367 . S
C575 C574 1.367 . S
C575 C577 1.433 . S
C576 C572 1.350 . S
C576 C573 1.463 . S
C576 N580 1.427 . S
C577 H567 0.929 . S
C577 C575 1.433 . S
C577 N580 1.384 . S
C578 H569 0.929 . S
C578 C570 1.378 . S
C578 C573 1.350 . S
C579 H566 0.929 . S
C579 C571 1.433 . S
C579 N581 1.384 . S
N580 C576 1.427 . S
N580 C577 1.384 . S
N581 C573 1.427 . S
N581 C579 1.384 . S
H582 C588 0.930 . S
H583 C592 0.930 . S
H584 C597 0.929 . S
H585 C595 0.929 . S
H586 C590 0.929 . S
H587 C596 0.929 . S
C588 H582 0.930 . S
C588 C589 1.367 . S
C588 C596 1.378 . S
C589 C588 1.367 . S
C589 C597 1.433 . S
C590 H586 0.929 . S
C590 C592 1.378 . S
C590 C594 1.350 . S
C591 C594 1.463 . S
C591 C596 1.350 . S
C591 N599 1.427 . S
C592 H583 0.930 . S
C592 C590 1.378 . S
C592 C593 1.367 . S
C593 C592 1.367 . S
C593 C595 1.433 . S
C594 C590 1.350 . S
C594 C591 1.463 . S
C594 N598 1.427 . S
C595 H585 0.929 . S
C595 C593 1.433 . S
C595 N598 1.384 . S
C596 H587 0.929 . S
C596 C588 1.378 . S
C596 C591 1.350 . S
C597 H584 0.929 . S
C597 C589 1.433 . S
C597 N599 1.384 . S
N598 C594 1.427 . S
N598 C595 1.384 . S
N599 C591 1.427 . S
N599 C597 1.384 . S
H600 C606 0.930 . S
H601 C610 0.930 . S
H602 C615 0.929 . S
H603 C613 0.929 . S
H604 C608 0.929 . S
H605 C614 0.929 . S
C606 H600 0.930 . S
C606 C607 1.367 . S
C606 C614 1.378 . S
C607 C606 1.367 . S
C607 C615 1.433 . S
C608 H604 0.929 . S
C608 C610 1.378 . S
C608 C612 1.350 . S
C609 C612 1.463 . S
C609 C614 1.350 . S
C609 N617 1.427 . S
C610 H601 0.930 . S
C610 C608 1.378 . S
C610 C611 1.367 . S
C611 C610 1.367 . S
C611 C613 1.433 . S
C612 C608 1.350 . S
C612 C609 1.463 . S
C612 N616 1.427 . S
C613 H603 0.929 . S
C613 C611 1.433 . S
C613 N616 1.384 . S
C614 H605 0.929 . S
C614 C606 1.378 . S
C614 C609 1.350 . S
C615 H602 0.929 . S
C615 C607 1.433 . S
C615 N617 1.384 . S
N616 C612 1.427 . S
N616 C613 1.384 . S
N617 C609 1.427 . S
N617 C615 1.384 . S
H618 C624 0.930 . S
H619 C628 0.930 . S
H620 C633 0.929 . S
H621 C631 0.929 . S
H622 C626 0.929 . S
H623 C632 0.929 . S
C624 H618 0.930 . S
C624 C625 1.367 . S
C624 C632 1.378 . S
C625 C624 1.367 . S
C625 C633 1.433 . S
C626 H622 0.929 . S
C626 C628 1.378 . S
C626 C630 1.350 . S
C627 C630 1.463 . S
C627 C632 1.350 . S
C627 N635 1.427 . S
C628 H619 0.930 . S
C628 C626 1.378 . S
C628 C629 1.367 . S
C629 C628 1.367 . S
C629 C631 1.433 . S
C630 C626 1.350 . S
C630 C627 1.463 . S
C630 N634 1.427 . S
C631 H621 0.929 . S
C631 C629 1.433 . S
C631 N634 1.384 . S
C632 H623 0.929 . S
C632 C624 1.378 . S
C632 C627 1.350 . S
C633 H620 0.929 . S
C633 C625 1.433 . S
C633 N635 1.384 . S
N634 C630 1.427 . S
N634 C631 1.384 . S
N635 C627 1.427 . S
N635 C633 1.384 . S
H636 C642 0.930 1_455 S
H637 C646 0.930 . S
H638 C651 0.929 . S
H639 C649 0.929 . S
H640 C644 0.929 . S
H641 C650 0.929 . S
C642 H636 0.930 1_655 S
C642 C643 1.367 . S
C642 C650 1.378 . S
C643 C642 1.367 . S
C643 C651 1.433 . S
C644 H640 0.929 . S
C644 C646 1.378 . S
C644 C648 1.350 . S
C645 C648 1.463 . S
C645 C650 1.350 . S
C645 N653 1.427 . S
C646 H637 0.930 . S
C646 C644 1.378 . S
C646 C647 1.367 . S
C647 C646 1.367 . S
C647 C649 1.433 . S
C648 C644 1.350 . S
C648 C645 1.463 . S
C648 N652 1.427 . S
C649 H639 0.929 . S
C649 C647 1.433 . S
C649 N652 1.384 . S
C650 H641 0.929 . S
C650 C642 1.378 . S
C650 C645 1.350 . S
C651 H638 0.929 . S
C651 C643 1.433 . S
C651 N653 1.384 . S
N652 C648 1.427 . S
N652 C649 1.384 . S
N653 C645 1.427 . S
N653 C651 1.384 . S
H654 C660 0.930 . S
H655 C664 0.930 . S
H656 C669 0.929 . S
H657 C667 0.929 . S
H658 C662 0.929 . S
H659 C668 0.929 . S
C660 H654 0.930 . S
C660 C661 1.367 . S
C660 C668 1.378 . S
C661 C660 1.367 . S
C661 C669 1.433 . S
C662 H658 0.929 . S
C662 C664 1.378 . S
C662 C666 1.350 . S
C663 C666 1.463 . S
C663 C668 1.350 . S
C663 N671 1.427 . S
C664 H655 0.930 . S
C664 C662 1.378 . S
C664 C665 1.367 . S
C665 C664 1.367 . S
C665 C667 1.433 . S
C666 C662 1.350 . S
C666 C663 1.463 . S
C666 N670 1.427 . S
C667 H657 0.929 . S
C667 C665 1.433 . S
C667 N670 1.384 . S
C668 H659 0.929 . S
C668 C660 1.378 . S
C668 C663 1.350 . S
C669 H656 0.929 . S
C669 C661 1.433 . S
C669 N671 1.384 . S
N670 C666 1.427 . S
N670 C667 1.384 . S
N671 C663 1.427 . S
N671 C669 1.384 . S
H672 C678 0.930 . S
H673 C682 0.930 . S
H674 C687 0.929 . S
H675 C685 0.929 . S
H676 C680 0.929 . S
H677 C686 0.929 . S
C678 H672 0.930 . S
C678 C679 1.367 . S
C678 C686 1.378 . S
C679 C678 1.367 . S
C679 C687 1.433 . S
C680 H676 0.929 . S
C680 C682 1.378 . S
C680 C684 1.350 . S
C681 C684 1.463 . S
C681 C686 1.350 . S
C681 N689 1.427 . S
C682 H673 0.930 . S
C682 C680 1.378 . S
C682 C683 1.367 . S
C683 C682 1.367 . S
C683 C685 1.433 . S
C684 C680 1.350 . S
C684 C681 1.463 . S
C684 N688 1.427 . S
C685 H675 0.929 . S
C685 C683 1.433 . S
C685 N688 1.384 . S
C686 H677 0.929 . S
C686 C678 1.378 . S
C686 C681 1.350 . S
C687 H674 0.929 . S
C687 C679 1.433 . S
C687 N689 1.384 . S
N688 C684 1.427 . S
N688 C685 1.384 . S
N689 C681 1.427 . S
N689 C687 1.384 . S
H690 C696 0.930 . S
H691 C700 0.930 . S
H692 C705 0.929 . S
H693 C703 0.929 . S
H694 C698 0.929 . S
H695 C704 0.929 . S
C696 H690 0.930 . S
C696 C697 1.367 . S
C696 C704 1.378 . S
C697 C696 1.367 . S
C697 C705 1.433 . S
C698 H694 0.929 . S
C698 C700 1.378 . S
C698 C702 1.350 . S
C699 C702 1.463 . S
C699 C704 1.350 . S
C699 N707 1.427 . S
C700 H691 0.930 . S
C700 C698 1.378 . S
C700 C701 1.367 . S
C701 C700 1.367 . S
C701 C703 1.433 . S
C702 C698 1.350 . S
C702 C699 1.463 . S
C702 N706 1.427 . S
C703 H693 0.929 . S
C703 C701 1.433 . S
C703 N706 1.384 . S
C704 H695 0.929 . S
C704 C696 1.378 . S
C704 C699 1.350 . S
C705 H692 0.929 . S
C705 C697 1.433 . S
C705 N707 1.384 . S
N706 C702 1.427 . S
N706 C703 1.384 . S
N707 C699 1.427 . S
N707 C705 1.384 . S
H708 C714 0.930 . S
H709 C718 0.930 . S
H710 C723 0.929 . S
H711 C721 0.929 . S
H712 C716 0.929 . S
H713 C722 0.929 . S
C714 H708 0.930 . S
C714 C715 1.367 . S
C714 C722 1.378 . S
C715 C714 1.367 . S
C715 C723 1.433 . S
C716 H712 0.929 . S
C716 C718 1.378 . S
C716 C720 1.350 . S
C717 C720 1.463 . S
C717 C722 1.350 . S
C717 N725 1.427 . S
C718 H709 0.930 . S
C718 C716 1.378 . S
C718 C719 1.367 . S
C719 C718 1.367 . S
C719 C721 1.433 . S
C720 C716 1.350 . S
C720 C717 1.463 . S
C720 N724 1.427 . S
C721 H711 0.929 . S
C721 C719 1.433 . S
C721 N724 1.384 . S
C722 H713 0.929 . S
C722 C714 1.378 . S
C722 C717 1.350 . S
C723 H710 0.929 . S
C723 C715 1.433 . S
C723 N725 1.384 . S
N724 C720 1.427 . S
N724 C721 1.384 . S
N725 C717 1.427 . S
N725 C723 1.384 . S
H726 C732 0.930 . S
H727 C736 0.930 . S
H728 C741 0.929 . S
H729 C739 0.929 . S
H730 C734 0.929 . S
H731 C740 0.929 . S
C732 H726 0.930 . S
C732 C733 1.367 . S
C732 C740 1.378 . S
C733 C732 1.367 . S
C733 C741 1.433 . S
C734 H730 0.929 . S
C734 C736 1.378 . S
C734 C738 1.350 . S
C735 C738 1.463 . S
C735 C740 1.350 . S
C735 N743 1.427 . S
C736 H727 0.930 . S
C736 C734 1.378 . S
C736 C737 1.367 . S
C737 C736 1.367 . S
C737 C739 1.433 . S
C738 C734 1.350 . S
C738 C735 1.463 . S
C738 N742 1.427 . S
C739 H729 0.929 . S
C739 C737 1.433 . S
C739 N742 1.384 . S
C740 H731 0.929 . S
C740 C732 1.378 . S
C740 C735 1.350 . S
C741 H728 0.929 . S
C741 C733 1.433 . S
C741 N743 1.384 . S
N742 C738 1.427 . S
N742 C739 1.384 . S
N743 C735 1.427 . S
N743 C741 1.384 . S
H744 C750 0.930 . S
H745 C754 0.930 . S
H746 C759 0.929 . S
H747 C757 0.929 . S
H748 C752 0.929 . S
H749 C758 0.929 . S
C750 H744 0.930 . S
C750 C751 1.367 . S
C750 C758 1.378 . S
C751 C750 1.367 . S
C751 C759 1.433 . S
C752 H748 0.929 . S
C752 C754 1.378 . S
C752 C756 1.350 . S
C753 C756 1.463 . S
C753 C758 1.350 . S
C753 N761 1.427 . S
C754 H745 0.930 . S
C754 C752 1.378 . S
C754 C755 1.367 . S
C755 C754 1.367 . S
C755 C757 1.433 . S
C756 C752 1.350 . S
C756 C753 1.463 . S
C756 N760 1.427 . S
C757 H747 0.929 . S
C757 C755 1.433 . S
C757 N760 1.384 . S
C758 H749 0.929 . S
C758 C750 1.378 . S
C758 C753 1.350 . S
C759 H746 0.929 . S
C759 C751 1.433 . S
C759 N761 1.384 . S
N760 C756 1.427 . S
N760 C757 1.384 . S
N761 C753 1.427 . S
N761 C759 1.384 . S
H762 C768 0.930 . S
H763 C772 0.930 . S
H764 C777 0.929 . S
H765 C775 0.929 . S
H766 C770 0.929 . S
H767 C776 0.929 . S
C768 H762 0.930 . S
C768 C769 1.367 . S
C768 C776 1.378 . S
C769 C768 1.367 . S
C769 C777 1.433 . S
C770 H766 0.929 . S
C770 C772 1.378 . S
C770 C774 1.350 . S
C771 C774 1.463 . S
C771 C776 1.350 . S
C771 N779 1.427 . S
C772 H763 0.930 . S
C772 C770 1.378 . S
C772 C773 1.367 . S
C773 C772 1.367 . S
C773 C775 1.433 . S
C774 C770 1.350 . S
C774 C771 1.463 . S
C774 N778 1.427 . S
C775 H765 0.929 . S
C775 C773 1.433 . S
C775 N778 1.384 . S
C776 H767 0.929 . S
C776 C768 1.378 . S
C776 C771 1.350 . S
C777 H764 0.929 . S
C777 C769 1.433 . S
C777 N779 1.384 . S
N778 C774 1.427 . S
N778 C775 1.384 . S
N779 C771 1.427 . S
N779 C777 1.384 . S
H780 C786 0.930 . S
H781 C790 0.930 . S
H782 C795 0.929 . S
H783 C793 0.929 . S
H784 C788 0.929 . S
H785 C794 0.929 . S
C786 H780 0.930 . S
C786 C787 1.367 . S
C786 C794 1.378 . S
C787 C786 1.367 . S
C787 C795 1.433 . S
C788 H784 0.929 . S
C788 C790 1.378 . S
C788 C792 1.350 . S
C789 C792 1.463 . S
C789 C794 1.350 . S
C789 N797 1.427 . S
C790 H781 0.930 . S
C790 C788 1.378 . S
C790 C791 1.367 . S
C791 C790 1.367 . S
C791 C793 1.433 . S
C792 C788 1.350 . S
C792 C789 1.463 . S
C792 N796 1.427 . S
C793 H783 0.929 . S
C793 C791 1.433 . S
C793 N796 1.384 . S
C794 H785 0.929 . S
C794 C786 1.378 . S
C794 C789 1.350 . S
C795 H782 0.929 . S
C795 C787 1.433 . S
C795 N797 1.384 . S
N796 C792 1.427 . S
N796 C793 1.384 . S
N797 C789 1.427 . S
N797 C795 1.384 . S
H798 C804 0.930 . S
H799 C808 0.930 . S
H800 C813 0.929 . S
H801 C811 0.929 . S
H802 C806 0.929 . S
H803 C812 0.929 . S
C804 H798 0.930 . S
C804 C805 1.367 . S
C804 C812 1.378 . S
C805 C804 1.367 . S
C805 C813 1.433 . S
C806 H802 0.929 . S
C806 C808 1.378 . S
C806 C810 1.350 . S
C807 C810 1.463 . S
C807 C812 1.350 . S
C807 N815 1.427 . S
C808 H799 0.930 . S
C808 C806 1.378 . S
C808 C809 1.367 . S
C809 C808 1.367 . S
C809 C811 1.433 . S
C810 C806 1.350 . S
C810 C807 1.463 . S
C810 N814 1.427 . S
C811 H801 0.929 . S
C811 C809 1.433 . S
C811 N814 1.384 . S
C812 H803 0.929 . S
C812 C804 1.378 . S
C812 C807 1.350 . S
C813 H800 0.929 . S
C813 C805 1.433 . S
C813 N815 1.384 . S
N814 C810 1.427 . S
N814 C811 1.384 . S
N815 C807 1.427 . S
N815 C813 1.384 . S
H816 C822 0.930 . S
H817 C826 0.930 . S
H818 C831 0.929 . S
H819 C829 0.929 . S
H820 C824 0.929 . S
H821 C830 0.929 . S
C822 H816 0.930 . S
C822 C823 1.367 . S
C822 C830 1.378 . S
C823 C822 1.367 . S
C823 C831 1.433 . S
C824 H820 0.929 . S
C824 C826 1.378 . S
C824 C828 1.350 . S
C825 C828 1.463 . S
C825 C830 1.350 . S
C825 N833 1.427 . S
C826 H817 0.930 . S
C826 C824 1.378 . S
C826 C827 1.367 . S
C827 C826 1.367 . S
C827 C829 1.433 . S
C828 C824 1.350 . S
C828 C825 1.463 . S
C828 N832 1.427 . S
C829 H819 0.929 . S
C829 C827 1.433 . S
C829 N832 1.384 . S
C830 H821 0.929 . S
C830 C822 1.378 . S
C830 C825 1.350 . S
C831 H818 0.929 . S
C831 C823 1.433 . S
C831 N833 1.384 . S
N832 C828 1.427 . S
N832 C829 1.384 . S
N833 C825 1.427 . S
N833 C831 1.384 . S
C409 C48 1.202 . S
C413 C91 1.238 . S
C427 C106 1.223 . S
C431 C169 1.241 . S
C445 C225 1.356 . S
C449 C182 1.317 . S
C463 C240 1.308 . S
C467 C35 1.349 . S
C481 C303 1.041 . S
C485 C24 1.053 . S
C499 C374 1.225 . S
C503 C102 1.236 . S
C517 C316 1.234 . S
C521 C158 1.250 . S
C535 C236 1.069 . S
C539 C359 1.085 . S
C553 C173 1.297 . S
C557 C370 1.335 . S
C571 C292 1.343 . S
C575 C249 1.327 . S
C589 C383 1.499 . S
C593 C39 1.502 . S
C607 C307 1.480 . S
C611 C115 1.481 . S
C625 C167 1.293 . S
C629 C242 1.291 . S
C643 C45 1.289 . S
C647 C228 1.284 . S
C661 C33 1.378 . S
C665 C108 1.393 . S
C679 C179 1.393 . S
C683 C94 1.389 . S
C697 C380 1.269 . S
C701 C161 1.250 . S
C715 C234 1.287 . S
C719 C309 1.298 . S
C733 C368 1.220 . S
C737 C27 1.225 . S
C751 C100 1.210 . S
C755 C295 1.211 . S
C769 C41 1.448 . S
C773 C313 1.466 . S
C787 C112 1.395 . S
C791 C362 1.385 . S
C805 C175 1.445 . S
C809 C301 1.436 . S
C823 C246 1.496 . S
C827 C376 1.498 . S
