# Generated by pormake.
# Topology sne, (6)-cn, num edge types: 1
# Building blocks:
#     Node 0, Type 0, BuildingBlock: IZENUY_clean_sbu_0, # of connection points: 6
#     Node 1, Type 0, BuildingBlock: IZENUY_clean_sbu_0, # of connection points: 6
#     Node 2, Type 0, BuildingBlock: IZENUY_clean_sbu_0, # of connection points: 6
#     Node 3, Type 0, BuildingBlock: IZENUY_clean_sbu_0, # of connection points: 6
#     Node 4, Type 0, BuildingBlock: IZENUY_clean_sbu_0, # of connection points: 6
#     Node 5, Type 0, BuildingBlock: IZENUY_clean_sbu_0, # of connection points: 6
#     Node 6, Type 0, BuildingBlock: IZENUY_clean_sbu_0, # of connection points: 6
#     Node 7, Type 0, BuildingBlock: IZENUY_clean_sbu_0, # of connection points: 6
#     Edge 8, Type (0, 0), BuildingBlock: KIFKEQ_clean_linker_1, # of connection points: 2
#     Edge 9, Type (0, 0), BuildingBlock: KIFKEQ_clean_linker_1, # of connection points: 2
#     Edge 10, Type (0, 0), BuildingBlock: KIFKEQ_clean_linker_1, # of connection points: 2
#     Edge 11, Type (0, 0), BuildingBlock: KIFKEQ_clean_linker_1, # of connection points: 2
#     Edge 12, Type (0, 0), BuildingBlock: KIFKEQ_clean_linker_1, # of connection points: 2
#     Edge 13, Type (0, 0), BuildingBlock: KIFKEQ_clean_linker_1, # of connection points: 2
#     Edge 14, Type (0, 0), BuildingBlock: KIFKEQ_clean_linker_1, # of connection points: 2
#     Edge 15, Type (0, 0), BuildingBlock: KIFKEQ_clean_linker_1, # of connection points: 2
#     Edge 16, Type (0, 0), BuildingBlock: KIFKEQ_clean_linker_1, # of connection points: 2
#     Edge 17, Type (0, 0), BuildingBlock: KIFKEQ_clean_linker_1, # of connection points: 2
#     Edge 18, Type (0, 0), BuildingBlock: KIFKEQ_clean_linker_1, # of connection points: 2
#     Edge 19, Type (0, 0), BuildingBlock: KIFKEQ_clean_linker_1, # of connection points: 2
#     Edge 20, Type (0, 0), BuildingBlock: KIFKEQ_clean_linker_1, # of connection points: 2
#     Edge 21, Type (0, 0), BuildingBlock: KIFKEQ_clean_linker_1, # of connection points: 2
#     Edge 22, Type (0, 0), BuildingBlock: KIFKEQ_clean_linker_1, # of connection points: 2
#     Edge 23, Type (0, 0), BuildingBlock: KIFKEQ_clean_linker_1, # of connection points: 2
#     Edge 24, Type (0, 0), BuildingBlock: KIFKEQ_clean_linker_1, # of connection points: 2
#     Edge 25, Type (0, 0), BuildingBlock: KIFKEQ_clean_linker_1, # of connection points: 2
#     Edge 26, Type (0, 0), BuildingBlock: KIFKEQ_clean_linker_1, # of connection points: 2
#     Edge 27, Type (0, 0), BuildingBlock: KIFKEQ_clean_linker_1, # of connection points: 2
#     Edge 28, Type (0, 0), BuildingBlock: KIFKEQ_clean_linker_1, # of connection points: 2
#     Edge 29, Type (0, 0), BuildingBlock: KIFKEQ_clean_linker_1, # of connection points: 2
#     Edge 30, Type (0, 0), BuildingBlock: KIFKEQ_clean_linker_1, # of connection points: 2
#     Edge 31, Type (0, 0), BuildingBlock: KIFKEQ_clean_linker_1, # of connection points: 2
# Relax obj value: 0.265
# Max RMSD: 0.254
# Mean RMSD: 0.252
data_MOF--net-sne--node1-IZENUY_clean_sbu_0--edge1-KIFKEQ_clean_linker_1
_symmetry_space_group_name_H-M    P1
_symmetry_Int_Tables_number       1
_symmetry_cell_setting            triclinic
loop_
_symmetry_equiv_pos_as_xyz
'x, y, z'
_cell_length_a     35.673077
_cell_length_b     35.784597
_cell_length_c     26.563521
_cell_angle_alpha  90.896354
_cell_angle_beta   89.571945
_cell_angle_gamma 89.983744
loop_
_atom_site_label
_atom_site_type_symbol
_atom_site_fract_x
_atom_site_fract_y
_atom_site_fract_z
_atom_type_partial_charge
Fe0 Fe 0.25424 0.18524 0.36297 0.0
Fe1 Fe 0.22003 0.11191 0.32483 0.0
O2 O 0.25413 0.13603 0.36075 0.0
Fe3 Fe 0.28796 0.11057 0.39443 0.0
O4 O 0.29353 0.14586 0.44601 0.0
O5 O 0.24924 0.1862 0.43011 0.0
O6 O 0.20229 0.18942 0.36174 0.0
C7 C 0.17733 0.16519 0.37212 0.0
C8 C 0.33138 0.16505 0.35337 0.0
O9 O 0.18297 0.131 0.36323 0.0
C10 C 0.28007 0.06902 0.30241 0.0
O11 O 0.25925 0.18797 0.29598 0.0
O12 O 0.21433 0.1488 0.27707 0.0
O13 O 0.32549 0.13068 0.35871 0.0
O14 O 0.30619 0.1891 0.36459 0.0
C15 C 0.22783 0.06691 0.41194 0.0
O16 O 0.25595 0.09104 0.285 0.0
O17 O 0.28917 0.07105 0.34861 0.0
C18 C 0.23608 0.17527 0.26497 0.0
O19 O 0.21871 0.07075 0.36613 0.0
O20 O 0.25181 0.0884 0.43172 0.0
C21 C 0.27213 0.17244 0.46012 0.0
Fe22 Fe 0.18949 0.75174 0.61343 0.0
Fe23 Fe 0.11612 0.79118 0.64305 0.0
O24 O 0.13974 0.7522 0.61605 0.0
Fe25 Fe 0.11453 0.71345 0.5917 0.0
O26 O 0.14974 0.67929 0.61018 0.0
O27 O 0.19091 0.71128 0.65465 0.0
O28 O 0.19644 0.78173 0.66858 0.0
C29 C 0.17596 0.78668 0.70685 0.0
C30 C 0.17062 0.71762 0.52168 0.0
O31 O 0.14071 0.78582 0.70296 0.0
C32 C 0.06945 0.7749 0.56322 0.0
O33 O 0.18977 0.79224 0.5723 0.0
O34 O 0.1504 0.82501 0.61994 0.0
O35 O 0.13568 0.7192 0.52926 0.0
O36 O 0.19307 0.72166 0.55765 0.0
C37 C 0.07367 0.72957 0.6777 0.0
O38 O 0.08917 0.79931 0.58573 0.0
O39 O 0.07483 0.74052 0.57007 0.0
C40 C 0.17403 0.82299 0.58408 0.0
O41 O 0.07803 0.76406 0.6701 0.0
O42 O 0.0913 0.70523 0.65185 0.0
C43 C 0.17363 0.68103 0.64518 0.0
Fe44 Fe 0.75322 0.82357 0.36697 0.0
Fe45 Fe 0.71681 0.8964 0.40525 0.0
O46 O 0.75304 0.87284 0.37176 0.0
Fe47 Fe 0.78938 0.89869 0.34289 0.0
O48 O 0.79848 0.86427 0.29111 0.0
O49 O 0.75203 0.82485 0.29948 0.0
O50 O 0.7013 0.81908 0.36417 0.0
C51 C 0.67665 0.84343 0.3537 0.0
C52 C 0.82903 0.84322 0.38664 0.0
O53 O 0.68193 0.87738 0.36404 0.0
C54 C 0.77545 0.93924 0.43414 0.0
O55 O 0.75437 0.81909 0.43389 0.0
O56 O 0.7096 0.85923 0.45245 0.0
O57 O 0.82357 0.87772 0.3826 0.0
O58 O 0.80536 0.81966 0.3694 0.0
C59 C 0.73015 0.94201 0.31949 0.0
O60 O 0.74972 0.91768 0.4484 0.0
O61 O 0.78771 0.93755 0.3892 0.0
C62 C 0.73135 0.83289 0.46486 0.0
O63 O 0.71741 0.93748 0.36386 0.0
O64 O 0.75648 0.92178 0.30241 0.0
C65 C 0.77692 0.8395 0.27277 0.0
Fe66 Fe 0.89349 0.29239 0.57535 0.0
Fe67 Fe 0.89485 0.22551 0.64552 0.0
O68 O 0.86929 0.25894 0.61157 0.0
Fe69 Fe 0.81987 0.25906 0.61401 0.0
O70 O 0.81667 0.25325 0.54702 0.0
O71 O 0.85643 0.29735 0.52746 0.0
O72 O 0.91444 0.25631 0.536 0.0
C73 C 0.93631 0.23213 0.55349 0.0
C74 C 0.8402 0.3359 0.62085 0.0
O75 O 0.93427 0.22336 0.5997 0.0
C76 C 0.83311 0.24202 0.71119 0.0
O77 O 0.93475 0.2942 0.61685 0.0
O78 O 0.91731 0.26179 0.68253 0.0
O79 O 0.8158 0.31076 0.61182 0.0
O80 O 0.87447 0.32985 0.61292 0.0
C81 C 0.83965 0.18197 0.60594 0.0
O82 O 0.85976 0.22069 0.6971 0.0
O83 O 0.8194 0.26491 0.68123 0.0
C84 C 0.93848 0.28579 0.66281 0.0
O85 O 0.87422 0.18798 0.6102 0.0
O86 O 0.81573 0.20736 0.61663 0.0
C87 C 0.82953 0.27584 0.51575 0.0
Fe88 Fe 0.29544 0.39023 0.83852 0.0
Fe89 Fe 0.25478 0.31744 0.86299 0.0
O90 O 0.25644 0.36696 0.86531 0.0
Fe91 Fe 0.21923 0.39202 0.89458 0.0
O92 O 0.21017 0.41931 0.83851 0.0
O93 O 0.2689 0.43043 0.81753 0.0
O94 O 0.28717 0.36835 0.7766 0.0
C95 C 0.2878 0.33335 0.76981 0.0
C96 C 0.2838 0.4325 0.92522 0.0
O97 O 0.28341 0.31192 0.80643 0.0
C98 C 0.22272 0.33247 0.95751 0.0
O99 O 0.32891 0.35397 0.85621 0.0
O100 O 0.29614 0.31491 0.90273 0.0
O101 O 0.2488 0.42872 0.92056 0.0
O102 O 0.30663 0.41423 0.89767 0.0
C103 C 0.18359 0.3358 0.83609 0.0
O104 O 0.22571 0.31192 0.91892 0.0
O105 O 0.22547 0.36744 0.95391 0.0
C106 C 0.32703 0.32998 0.89076 0.0
O107 O 0.2134 0.31871 0.82331 0.0
O108 O 0.18327 0.35924 0.87245 0.0
C109 C 0.23438 0.4378 0.81438 0.0
Fe110 Fe 0.32004 0.74916 0.11245 0.0
Fe111 Fe 0.39351 0.78752 0.08299 0.0
O112 O 0.36928 0.75223 0.11608 0.0
Fe113 Fe 0.39477 0.71977 0.1521 0.0
O114 O 0.37857 0.6813 0.11393 0.0
O115 O 0.319 0.69741 0.11289 0.0
O116 O 0.32143 0.7445 0.04512 0.0
C117 C 0.33401 0.76875 0.01606 0.0
C118 C 0.32788 0.73096 0.21024 0.0
O119 O 0.35905 0.79137 0.03113 0.0
C120 C 0.43445 0.78167 0.175 0.0
O121 O 0.31304 0.80054 0.11178 0.0
O122 O 0.37025 0.82363 0.11873 0.0
O123 O 0.35729 0.71237 0.19981 0.0
O124 O 0.3146 0.75332 0.17929 0.0
C125 C 0.44025 0.7295 0.06473 0.0
O126 O 0.43226 0.79104 0.12907 0.0
O127 O 0.41312 0.75669 0.19206 0.0
C128 C 0.33527 0.82717 0.12308 0.0
O129 O 0.41833 0.75283 0.04541 0.0
O130 O 0.43661 0.72058 0.11063 0.0
C131 C 0.34492 0.67365 0.10445 0.0
Fe132 Fe 0.79378 0.61105 0.90268 0.0
Fe133 Fe 0.76206 0.68858 0.88125 0.0
O134 O 0.75971 0.63954 0.87388 0.0
Fe135 Fe 0.72335 0.6187 0.83797 0.0
O136 O 0.72099 0.57605 0.87641 0.0
O137 O 0.75836 0.58829 0.94008 0.0
O138 O 0.80251 0.64305 0.95697 0.0
C139 C 0.78197 0.66874 0.97548 0.0
C140 C 0.78104 0.57441 0.8083 0.0
O141 O 0.75908 0.6857 0.94859 0.0
C142 C 0.74077 0.68456 0.78327 0.0
O143 O 0.83071 0.6317 0.86662 0.0
O144 O 0.81407 0.69026 0.88044 0.0
O145 O 0.75665 0.59753 0.79462 0.0
O146 O 0.79209 0.57406 0.85362 0.0
C147 C 0.68432 0.67211 0.89037 0.0
O148 O 0.76491 0.69507 0.81455 0.0
O149 O 0.71874 0.65777 0.79325 0.0
C150 C 0.83793 0.66604 0.86533 0.0
O151 O 0.7107 0.6953 0.88314 0.0
O152 O 0.68796 0.63807 0.87898 0.0
C153 C 0.73222 0.56935 0.92069 0.0
Fe154 Fe 0.68951 0.25343 0.11359 0.0
Fe155 Fe 0.61544 0.29235 0.14105 0.0
O156 O 0.63962 0.25353 0.11422 0.0
Fe157 Fe 0.61531 0.21482 0.08797 0.0
O158 O 0.64962 0.18086 0.11029 0.0
O159 O 0.69013 0.21362 0.15556 0.0
O160 O 0.69522 0.28438 0.16788 0.0
C161 C 0.67434 0.28907 0.2057 0.0
C162 C 0.67421 0.2185 0.02156 0.0
O163 O 0.63928 0.2871 0.20122 0.0
C164 C 0.57103 0.27672 0.05876 0.0
O165 O 0.69015 0.29323 0.0716 0.0
O166 O 0.64969 0.32616 0.11763 0.0
O167 O 0.63909 0.22024 0.02695 0.0
O168 O 0.69504 0.22246 0.05914 0.0
C169 C 0.57117 0.23062 0.17207 0.0
O170 O 0.58893 0.30073 0.08423 0.0
O171 O 0.57705 0.24215 0.06279 0.0
C172 C 0.67291 0.32356 0.08127 0.0
O173 O 0.57722 0.26516 0.16738 0.0
O174 O 0.58895 0.20653 0.14594 0.0
C175 C 0.67296 0.1833 0.14607 0.0
H176 H 0.29785 0.00036 0.33805 0.0
H177 H 0.28158 0.06043 0.20003 0.0
H178 H 0.30595 0.9423 0.28968 0.0
H179 H 0.29039 0.00215 0.1516 0.0
H180 H 0.3622 0.89533 0.09911 0.0
H181 H 0.34686 0.95519 0.13962 0.0
H182 H 0.26248 0.90103 0.23009 0.0
H183 H 0.2774 0.84091 0.18861 0.0
C184 C 0.29661 0.00127 0.29734 0.0
C185 C 0.28939 0.03499 0.27273 0.0
C186 C 0.30069 0.96796 0.26979 0.0
C187 C 0.2983 0.9678 0.21707 0.0
C188 C 0.29216 0.00161 0.19228 0.0
C189 C 0.28732 0.03487 0.21991 0.0
C190 C 0.33976 0.89641 0.12682 0.0
C191 C 0.3209 0.86365 0.14083 0.0
C192 C 0.331 0.93061 0.14989 0.0
C193 C 0.30377 0.93254 0.18817 0.0
C194 C 0.28378 0.90008 0.20082 0.0
C195 C 0.29202 0.86588 0.17687 0.0
H196 H 0.03818 0.66174 0.68449 0.0
H197 H 0.04093 0.77278 0.75073 0.0
H198 H 0.98293 0.64734 0.73535 0.0
H199 H 0.98641 0.75816 0.8022 0.0
H200 H 0.86017 0.73407 0.82937 0.0
H201 H 0.92006 0.74877 0.78891 0.0
H202 H 0.96008 0.63747 0.81959 0.0
H203 H 0.9003 0.62261 0.85868 0.0
C204 C 0.02747 0.68278 0.71059 0.0
C205 C 0.0437 0.71847 0.71319 0.0
C206 C 0.99583 0.67457 0.73982 0.0
C207 C 0.98 0.7018 0.77248 0.0
C208 C 0.99737 0.73687 0.77667 0.0
C209 C 0.02879 0.74511 0.74736 0.0
C210 C 0.882 0.71303 0.82808 0.0
C211 C 0.8754 0.67717 0.84682 0.0
C212 C 0.91634 0.72138 0.80498 0.0
C213 C 0.94474 0.6941 0.80055 0.0
C214 C 0.93857 0.65883 0.82136 0.0
C215 C 0.90432 0.65044 0.84406 0.0
H216 H 0.7699 0.97609 0.24486 0.0
H217 H 0.66801 0.98576 0.33324 0.0
H218 H 0.75636 0.03581 0.20572 0.0
H219 H 0.65435 0.04538 0.29335 0.0
H220 H 0.62668 0.12446 0.15987 0.0
H221 H 0.63988 0.06611 0.20233 0.0
H222 H 0.75104 0.10567 0.23777 0.0
H223 H 0.73768 0.16476 0.19553 0.0
C224 C 0.74438 0.9907 0.25551 0.0
C225 C 0.71993 0.97615 0.29209 0.0
C226 C 0.73692 0.02508 0.23349 0.0
C227 C 0.70455 0.04526 0.24694 0.0
C228 C 0.67955 0.03031 0.28243 0.0
C229 C 0.68732 0.99622 0.30513 0.0
C230 C 0.65395 0.12081 0.17681 0.0
C231 C 0.6813 0.14902 0.17409 0.0
C232 C 0.66135 0.0875 0.20134 0.0
C233 C 0.69646 0.08142 0.22307 0.0
C234 C 0.72381 0.10969 0.2209 0.0
C235 C 0.71614 0.14347 0.19705 0.0
H236 H 0.11366 0.35229 0.87101 0.0
H237 H 0.17216 0.30013 0.74523 0.0
H238 H 0.05421 0.34188 0.8292 0.0
H239 H 0.11201 0.28944 0.70333 0.0
H240 H 1.00128 0.31835 0.62344 0.0
H241 H 0.06094 0.3294 0.66548 0.0
H242 H 0.01389 0.28809 0.80414 0.0
H243 H 0.95416 0.27719 0.76241 0.0
C244 C 0.11384 0.33838 0.83448 0.0
C245 C 0.14766 0.32699 0.81138 0.0
C246 C 0.07969 0.33231 0.81069 0.0
C247 C 0.07853 0.31495 0.76306 0.0
C248 C 0.11223 0.30323 0.73992 0.0
C249 C 0.14655 0.30902 0.76403 0.0
C250 C 0.00347 0.31209 0.66307 0.0
C251 C 0.97296 0.29688 0.68963 0.0
C252 C 0.03777 0.318 0.6869 0.0
C253 C 0.04209 0.30923 0.73785 0.0
C254 C 0.01128 0.29519 0.76483 0.0
C255 C 0.97709 0.28898 0.74093 0.0
H256 H 0.27725 0.64653 0.0715 0.0
H257 H 0.39337 0.61533 0.09028 0.0
H258 H 0.26485 0.58555 0.03264 0.0
H259 H 0.38078 0.55444 0.05237 0.0
H260 H 0.35053 0.47087 0.92223 0.0
H261 H 0.36593 0.52794 0.96961 0.0
H262 H 0.2616 0.5194 0.05231 0.0
H263 H 0.24606 0.46303 0.00474 0.0
C264 C 0.29999 0.62657 0.06795 0.0
C265 C 0.33624 0.6359 0.08401 0.0
C266 C 0.2929 0.59156 0.04584 0.0
C267 C 0.3219 0.56514 0.03938 0.0
C268 C 0.35797 0.5743 0.05619 0.0
C269 C 0.36506 0.6092 0.07823 0.0
C270 C 0.33131 0.48081 0.95123 0.0
C271 C 0.29693 0.46271 0.95934 0.0
C272 C 0.34005 0.51353 0.97833 0.0
C273 C 0.31462 0.52855 0.01412 0.0
C274 C 0.28133 0.50911 0.02415 0.0
C275 C 0.27259 0.47663 -0.0029 0.0
H276 H 0.61593 0.64374 0.86808 0.0
H277 H 0.67087 0.72771 0.95985 0.0
H278 H 0.5561 0.65877 0.90872 0.0
H279 H 0.61073 0.74233 0.00133 0.0
H280 H 0.5078 0.71079 0.10449 0.0
H281 H 0.56693 0.70054 0.0593 0.0
H282 H 0.51072 0.71649 0.91793 0.0
H283 H 0.4515 0.72737 0.96305 0.0
C284 C 0.61507 0.66571 0.89661 0.0
C285 C 0.64792 0.68463 0.91092 0.0
C286 C 0.58087 0.67432 0.91969 0.0
C287 C 0.579 0.7015 0.95819 0.0
C288 C 0.61164 0.72108 0.97183 0.0
C289 C 0.64585 0.71299 0.94793 0.0
C290 C 0.50796 0.71174 0.06374 0.0
C291 C 0.47502 0.71967 0.0372 0.0
C292 C 0.54185 0.70635 0.03803 0.0
C293 C 0.54328 0.70812 0.98532 0.0
C294 C 0.51024 0.7151 0.95864 0.0
C295 C 0.47645 0.7212 0.9844 0.0
H296 H 0.62552 0.38092 0.06496 0.0
H297 H 0.73852 0.34329 0.03369 0.0
H298 H 0.63888 0.4399 0.02377 0.0
H299 H 0.75207 0.40301 -0.00711 0.0
H300 H 0.76858 0.53316 -0.00428 0.0
H301 H 0.75437 0.47188 0.02968 0.0
H302 H 0.65723 0.46361 0.93431 0.0
H303 H 0.67166 0.52497 0.89936 0.0
C304 C 0.65322 0.38527 0.04909 0.0
C305 C 0.68114 0.35772 0.05289 0.0
C306 C 0.66072 0.4189 0.02527 0.0
C307 C 0.69648 0.42597 0.00547 0.0
C308 C 0.7243 0.3982 0.00825 0.0
C309 C 0.71656 0.36409 0.03131 0.0
C310 C 0.74397 0.51852 0.98217 0.0
C311 C 0.72113 0.53403 0.94489 0.0
C312 C 0.73617 0.48324 0.00124 0.0
C313 C 0.70502 0.46296 0.98413 0.0
C314 C 0.68152 0.47874 0.94794 0.0
C315 C 0.6897 0.51383 0.92813 0.0
H316 H 0.54532 0.24375 0.97326 0.0
H317 H 0.5222 0.33373 0.07926 0.0
H318 H 0.48547 0.25519 0.93199 0.0
H319 H 0.46183 0.34469 0.03833 0.0
H320 H 0.33916 0.31199 0.98888 0.0
H321 H 0.40025 0.3011 0.02844 0.0
H322 H 0.45501 0.31141 0.88386 0.0
H323 H 0.3945 0.32291 0.84469 0.0
C324 C 0.52764 0.26633 0.98717 0.0
C325 C 0.53836 0.28803 0.02916 0.0
C326 C 0.49344 0.27273 0.96375 0.0
C327 C 0.46904 0.30043 0.98256 0.0
C328 C 0.48012 0.32286 0.02367 0.0
C329 C 0.51476 0.31696 0.04653 0.0
C330 C 0.36426 0.31133 0.96566 0.0
C331 C 0.36231 0.31818 0.91389 0.0
C332 C 0.39908 0.30557 0.98825 0.0
C333 C 0.43213 0.3058 0.95907 0.0
C334 C 0.42989 0.31117 0.90705 0.0
C335 C 0.39534 0.31768 0.88475 0.0
H336 H 0.83994 0.52657 0.81653 0.0
H337 H 0.74354 0.5499 0.72448 0.0
H338 H 0.85247 0.47032 0.7662 0.0
H339 H 0.75613 0.49331 0.67428 0.0
H340 H 0.77034 0.36115 0.65113 0.0
H341 H 0.75567 0.42157 0.6918 0.0
H342 H 0.87132 0.45504 0.67588 0.0
H343 H 0.88605 0.39562 0.63559 0.0
C344 C 0.82167 0.5199 0.78525 0.0
C345 C 0.79085 0.54272 0.77442 0.0
C346 C 0.82885 0.48774 0.75644 0.0
C347 C 0.80514 0.47749 0.71652 0.0
C348 C 0.77461 0.5005 0.70512 0.0
C349 C 0.7677 0.53303 0.73355 0.0
C350 C 0.79244 0.38165 0.65572 0.0
C351 C 0.82938 0.37335 0.64053 0.0
C352 C 0.78405 0.41617 0.67884 0.0
C353 C 0.81253 0.44267 0.68739 0.0
C354 C 0.84899 0.43488 0.67042 0.0
C355 C 0.85731 0.40076 0.64719 0.0
H356 H 0.53457 0.27391 0.24197 0.0
H357 H 0.53574 0.16243 0.17696 0.0
H358 H 0.47846 0.25887 0.28988 0.0
H359 H 0.47891 0.14757 0.22448 0.0
H360 H 0.35261 0.23278 0.31465 0.0
H361 H 0.41248 0.24794 0.27433 0.0
H362 H 0.45421 0.13786 0.30813 0.0
H363 H 0.39461 0.12256 0.34729 0.0
C364 C 0.52297 0.24605 0.23803 0.0
C365 C 0.53961 0.21941 0.20529 0.0
C366 C 0.49056 0.23757 0.26531 0.0
C367 C 0.47386 0.2022 0.26066 0.0
C368 C 0.4912 0.17505 0.22927 0.0
C369 C 0.52378 0.18353 0.20196 0.0
C370 C 0.37476 0.21207 0.31403 0.0
C371 C 0.3687 0.17647 0.33401 0.0
C372 C 0.4091 0.2207 0.29096 0.0
C373 C 0.43809 0.19395 0.28757 0.0
C374 C 0.43232 0.15885 0.3091 0.0
C375 C 0.39812 0.15021 0.33192 0.0
H376 H 0.23268 0.66627 0.70841 0.0
H377 H 0.13327 0.61674 0.64347 0.0
H378 H 0.24602 0.60722 0.75035 0.0
H379 H 0.14675 0.55829 0.68468 0.0
H380 H 0.16459 0.47032 0.80723 0.0
H381 H 0.14947 0.53031 0.76923 0.0
H382 H 0.26503 0.543 0.72313 0.0
H383 H 0.28022 0.48362 0.76082 0.0
C384 C 0.21373 0.64292 0.70311 0.0
C385 C 0.18221 0.64614 0.67213 0.0
C386 C 0.22138 0.6091 0.72693 0.0
C387 C 0.19743 0.57808 0.72066 0.0
C388 C 0.16554 0.58169 0.69064 0.0
C389 C 0.15808 0.6152 0.66662 0.0
C390 C 0.18665 0.48574 0.78857 0.0
C391 C 0.22359 0.47207 0.78723 0.0
C392 C 0.17804 0.52014 0.76692 0.0
C393 C 0.20622 0.5416 0.74377 0.0
C394 C 0.24289 0.52755 0.7416 0.0
C395 C 0.25144 0.49322 0.76285 0.0
H396 H 0.647 0.77309 0.33462 0.0
H397 H 0.62408 0.89091 0.318 0.0
H398 H 0.58729 0.75842 0.29312 0.0
H399 H 0.5653 0.87627 0.2774 0.0
H400 H 0.48684 0.83481 0.15236 0.0
H401 H 0.54529 0.84811 0.1962 0.0
H402 H 0.51704 0.76633 0.30804 0.0
H403 H 0.45851 0.75289 0.2643 0.0
C404 C 0.62933 0.79577 0.32238 0.0
C405 C 0.64045 0.83312 0.32981 0.0
C406 C 0.59511 0.78741 0.29884 0.0
C407 C 0.57169 0.81625 0.28178 0.0
C408 C 0.58285 0.85343 0.28947 0.0
C409 C 0.6166 0.86174 0.31318 0.0
C410 C 0.49282 0.81994 0.18659 0.0
C411 C 0.46782 0.7929 0.20478 0.0
C412 C 0.52637 0.82752 0.21169 0.0
C413 C 0.53589 0.80806 0.25542 0.0
C414 C 0.51071 0.7814 0.27408 0.0
C415 C 0.47696 0.77407 0.24926 0.0
H416 H 0.88407 0.12071 0.59489 0.0
H417 H 0.76922 0.15728 0.57893 0.0
H418 H 0.86802 0.06023 0.55912 0.0
H419 H 0.7532 0.09583 0.54267 0.0
H420 H 0.73762 0.96749 0.51646 0.0
H421 H 0.7514 0.02514 0.56352 0.0
H422 H 0.84968 0.04201 0.47078 0.0
H423 H 0.83605 0.98469 0.42375 0.0
C424 C 0.85524 0.11583 0.58411 0.0
C425 C 0.82796 0.14411 0.58925 0.0
C426 C 0.84615 0.08108 0.5635 0.0
C427 C 0.80955 0.07355 0.54761 0.0
C428 C 0.78167 0.10099 0.55483 0.0
C429 C 0.79083 0.13611 0.57543 0.0
C430 C 0.76246 0.98325 0.50658 0.0
C431 C 0.78582 0.97155 0.4664 0.0
C432 C 0.77006 0.01638 0.53321 0.0
C433 C 0.80148 0.038 0.52065 0.0
C434 C 0.82539 0.02571 0.48148 0.0
C435 C 0.81756 0.99293 0.45451 0.0
H436 H 0.1221 0.11871 0.40406 0.0
H437 H 0.14943 0.23601 0.39208 0.0
H438 H 0.06333 0.13472 0.44524 0.0
H439 H 0.08977 0.25199 0.43385 0.0
H440 H 0.96107 0.26119 0.46438 0.0
H441 H 0.019 0.24625 0.41885 0.0
H442 H 0.0452 0.16283 0.52883 0.0
H443 H 0.98738 0.17768 0.57457 0.0
C444 C 0.11554 0.14803 0.40987 0.0
C445 C 0.14066 0.17613 0.39464 0.0
C446 C 0.08183 0.15711 0.43386 0.0
C447 C 0.07206 0.19453 0.44308 0.0
C448 C 0.09658 0.22285 0.42696 0.0
C449 C 0.13073 0.21373 0.40319 0.0
C450 C 0.97896 0.23937 0.47865 0.0
C451 C 0.96949 0.22052 0.52313 0.0
C452 C 0.01232 0.23115 0.45278 0.0
C453 C 0.03668 0.20355 0.47041 0.0
C454 C 0.02684 0.18412 0.5142 0.0
C455 C 0.99372 0.19262 0.54039 0.0
H456 H 0.20886 0.83232 0.49215 0.0
H457 H 0.16251 0.8936 0.6196 0.0
H458 H 0.22179 0.89169 0.45018 0.0
H459 H 0.17499 0.9521 0.57788 0.0
H460 H 0.23894 0.05028 0.51082 0.0
H461 H 0.22857 0.9906 0.55166 0.0
H462 H 0.18447 0.94439 0.41314 0.0
H463 H 0.19512 0.00401 0.37195 0.0
C464 C 0.20177 0.85834 0.51133 0.0
C465 C 0.18468 0.85821 0.55916 0.0
C466 C 0.20883 0.89226 0.48719 0.0
C467 C 0.19934 0.92655 0.51078 0.0
C468 C 0.18297 0.92624 0.55892 0.0
C469 C 0.17565 0.89259 0.5827 0.0
C470 C 0.22672 0.02753 0.48914 0.0
C471 C 0.2177 0.03204 0.43818 0.0
C472 C 0.22082 0.99331 0.51254 0.0
C473 C 0.20593 0.96272 0.4855 0.0
C474 C 0.19648 0.96729 0.43473 0.0
C475 C 0.20212 0.00163 0.41138 0.0
H476 H 0.04841 0.84475 0.53034 0.0
H477 H 0.01518 0.7286 0.5269 0.0
H478 H 0.99205 0.86059 0.4833 0.0
H479 H 0.95871 0.74442 0.48259 0.0
H480 H 0.86999 0.77852 0.37083 0.0
H481 H 0.93057 0.76298 0.40803 0.0
H482 H 0.92728 0.86614 0.49502 0.0
H483 H 0.86828 0.88208 0.45637 0.0
C484 C 0.02917 0.82265 0.51966 0.0
C485 C 0.03644 0.78549 0.53265 0.0
C486 C 0.99666 0.83168 0.49294 0.0
C487 C 0.97044 0.8038 0.47919 0.0
C488 C 0.97827 0.76664 0.49152 0.0
C489 C 0.01078 0.75761 0.51751 0.0
C490 C 0.88235 0.79768 0.39796 0.0
C491 C 0.86449 0.83153 0.41044 0.0
C492 C 0.91705 0.78887 0.41942 0.0
C493 C 0.93425 0.81345 0.45444 0.0
C494 C 0.91575 0.84694 0.4673 0.0
C495 C 0.88157 0.85592 0.44542 0.0
H496 H 0.24165 0.35657 0.05267 0.0
H497 H 0.18817 0.26605 0.97129 0.0
H498 H 0.24033 0.31916 0.12923 0.0
H499 H 0.18751 0.22869 0.04678 0.0
H500 H 0.17453 0.17726 0.20302 0.0
H501 H 0.16462 0.21934 0.13235 0.0
H502 H 0.27625 0.26378 0.15191 0.0
H503 H 0.28594 0.22246 0.2221 0.0
C504 C 0.22887 0.32912 0.05145 0.0
C505 C 0.21545 0.31407 0.00599 0.0
C506 C 0.22844 0.30752 0.09502 0.0
C507 C 0.21435 0.27068 0.09381 0.0
C508 C 0.19845 0.25689 0.04914 0.0
C509 C 0.19908 0.27829 0.00576 0.0
C510 C 0.19703 0.19572 0.19171 0.0
C511 C 0.23096 0.19655 0.21819 0.0
C512 C 0.19129 0.22 0.15154 0.0
C513 C 0.2194 0.24547 0.13719 0.0
C514 C 0.25361 0.24539 0.1629 0.0
C515 C 0.25931 0.22128 0.20278 0.0
H516 H 0.33269 0.83079 0.95564 0.0
H517 H 0.28777 0.71922 0.96926 0.0
H518 H 0.29109 0.84147 0.88412 0.0
H519 H 0.24673 0.72985 0.89852 0.0
H520 H 0.15238 0.76735 0.80161 0.0
H521 H 0.19075 0.76695 0.87787 0.0
H522 H 0.28146 0.81934 0.79674 0.0
H523 H 0.24322 0.82009 0.72134 0.0
C524 C 0.31444 0.80841 0.94297 0.0
C525 C 0.31354 0.77422 0.96829 0.0
C526 C 0.29041 0.8146 0.9023 0.0
C527 C 0.26497 0.78677 0.88636 0.0
C528 C 0.26511 0.75226 0.91071 0.0
C529 C 0.28906 0.74605 0.95096 0.0
C530 C 0.18009 0.7797 0.80063 0.0
C531 C 0.1949 0.79344 0.75551 0.0
C532 C 0.20225 0.77911 0.84402 0.0
C533 C 0.23942 0.79259 0.8431 0.0
C534 C 0.25304 0.80882 0.79887 0.0
C535 C 0.23111 0.80908 0.75557 0.0
H536 H 0.84251 0.80842 0.23856 0.0
H537 H 0.72707 0.82702 0.19915 0.0
H538 H 0.84851 0.76251 0.16925 0.0
H539 H 0.73313 0.7828 0.12912 0.0
H540 H 0.73295 0.67358 0.05265 0.0
H541 H 0.7364 0.71659 0.12442 0.0
H542 H 0.84832 0.74861 0.07883 0.0
H543 H 0.84514 0.70388 0.00803 0.0
C544 C 0.81896 0.80377 0.21372 0.0
C545 C 0.7844 0.82129 0.22372 0.0
C546 C 0.82222 0.77726 0.17438 0.0
C547 C 0.79097 0.76809 0.14453 0.0
C548 C 0.75741 0.78809 0.15241 0.0
C549 C 0.75405 0.814 0.19188 0.0
C550 C 0.75879 0.68875 0.05928 0.0
C551 C 0.78894 0.68517 0.02551 0.0
C552 C 0.76059 0.71397 0.09972 0.0
C553 C 0.7922 0.73702 0.10649 0.0
C554 C 0.82353 0.73142 0.07469 0.0
C555 C 0.82189 0.7056 0.03446 0.0
H556 H 0.78547 0.29045 0.75849 0.0
H557 H 0.83229 0.17963 0.77056 0.0
H558 H 0.74393 0.27858 0.82925 0.0
H559 H 0.79003 0.16747 0.84156 0.0
H560 H 0.74071 0.18423 0.00398 0.0
H561 H 0.77903 0.18676 0.92819 0.0
H562 H 0.68877 0.24196 0.85123 0.0
H563 H 0.65043 0.24006 0.9282 0.0
C564 C 0.78704 0.26353 0.77649 0.0
C565 C 0.81227 0.23598 0.75887 0.0
C566 C 0.76278 0.25656 0.81667 0.0
C567 C 0.76301 0.2218 0.84047 0.0
C568 C 0.78909 0.19455 0.824 0.0
C569 C 0.81352 0.20158 0.7836 0.0
C570 C 0.72869 0.19622 0.97054 0.0
C571 C 0.69267 0.21228 0.97211 0.0
C572 C 0.75068 0.19753 0.92697 0.0
C573 C 0.73728 0.21509 0.88383 0.0
C574 C 0.70019 0.22885 0.88423 0.0
C575 C 0.678 0.22734 0.92799 0.0
H576 H 0.78911 0.80272 0.51406 0.0
H577 H 0.67009 0.82307 0.52785 0.0
H578 H 0.78792 0.76748 0.5911 0.0
H579 H 0.66895 0.7874 0.60667 0.0
H580 H 0.68707 0.67859 0.7088 0.0
H581 H 0.68109 0.71789 0.63407 0.0
H582 H 0.7776 0.78173 0.6814 0.0
H583 H 0.78414 0.74281 0.75429 0.0
C584 C 0.76264 0.79994 0.53399 0.0
C585 C 0.72968 0.81569 0.51501 0.0
C586 C 0.76201 0.77979 0.57825 0.0
C587 C 0.72836 0.77467 0.60494 0.0
C588 C 0.69523 0.79077 0.58656 0.0
C589 C 0.69594 0.81149 0.54199 0.0
C590 C 0.707 0.70096 0.70302 0.0
C591 C 0.73632 0.70717 0.73732 0.0
C592 C 0.7033 0.72368 0.66065 0.0
C593 C 0.72897 0.75277 0.65191 0.0
C594 C 0.75765 0.75929 0.68678 0.0
C595 C 0.76136 0.73681 0.72867 0.0
H596 H 0.77951 0.22758 0.47416 0.0
H597 H 0.82997 0.33604 0.45275 0.0
H598 H 0.73851 0.23782 0.40325 0.0
H599 H 0.78822 0.34655 0.38159 0.0
H600 H 0.74204 0.32131 0.22017 0.0
H601 H 0.77869 0.32225 0.29671 0.0
H602 H 0.68487 0.27572 0.3783 0.0
H603 H 0.64815 0.27402 0.30064 0.0
C604 C 0.78188 0.25367 0.45421 0.0
C605 C 0.80803 0.28103 0.46906 0.0
C606 C 0.75798 0.25972 0.41396 0.0
C607 C 0.75957 0.29329 0.38743 0.0
C608 C 0.78631 0.3204 0.40142 0.0
C609 C 0.81038 0.3143 0.44187 0.0
C610 C 0.72893 0.31189 0.25466 0.0
C611 C 0.69242 0.29705 0.2544 0.0
C612 C 0.74992 0.31268 0.29863 0.0
C613 C 0.73492 0.29854 0.34337 0.0
C614 C 0.69739 0.2862 0.34403 0.0
C615 C 0.67622 0.28557 0.29984 0.0
H616 H 0.32799 0.27061 0.75195 0.0
H617 H 0.26361 0.35493 0.67674 0.0
H618 H 0.32787 0.2317 0.67618 0.0
H619 H 0.26403 0.31605 0.59979 0.0
H620 H 0.2209 0.21511 0.50988 0.0
H621 H 0.23111 0.25782 0.58028 0.0
H622 H 0.34632 0.22134 0.58863 0.0
H623 H 0.33586 0.17788 0.51776 0.0
C624 C 0.31467 0.28126 0.71856 0.0
C625 C 0.29549 0.31563 0.72025 0.0
C626 C 0.31473 0.25896 0.67505 0.0
C627 C 0.2954 0.27041 0.63218 0.0
C628 C 0.27859 0.30614 0.63262 0.0
C629 C 0.27874 0.32867 0.67633 0.0
C630 C 0.24838 0.21587 0.52699 0.0
C631 C 0.2776 0.19308 0.50824 0.0
C632 C 0.25436 0.24082 0.56692 0.0
C633 C 0.28976 0.24374 0.58932 0.0
C634 C 0.31873 0.21988 0.572 0.0
C635 C 0.3127 0.19473 0.53178 0.0
H636 H 0.34942 0.71365 0.30643 0.0
H637 H 0.25243 0.72815 0.21258 0.0
H638 H 0.30812 0.70519 0.37949 0.0
H639 H 0.21134 0.71779 0.28402 0.0
H640 H 0.15219 0.74987 0.43298 0.0
H641 H 0.19002 0.74909 0.35604 0.0
H642 H 0.26427 0.66771 0.42135 0.0
H643 H 0.22737 0.67027 0.49884 0.0
C644 C 0.31932 0.71437 0.30139 0.0
C645 C 0.30414 0.72216 0.25422 0.0
C646 C 0.29554 0.70932 0.34304 0.0
C647 C 0.25617 0.71119 0.33791 0.0
C648 C 0.24133 0.71721 0.28994 0.0
C649 C 0.26496 0.72295 0.24885 0.0
C650 C 0.17597 0.7311 0.43009 0.0
C651 C 0.18688 0.71008 0.47151 0.0
C652 C 0.19786 0.73064 0.38611 0.0
C653 C 0.2307 0.70866 0.38253 0.0
C654 C 0.23989 0.68572 0.42307 0.0
C655 C 0.21843 0.68673 0.46719 0.0
loop_
_geom_bond_atom_site_label_1
_geom_bond_atom_site_label_2
_geom_bond_distance
_geom_bond_site_symmetry_2
_ccdc_geom_bond_type
Fe0 O2 1.918 . S
Fe0 O5 1.997 . S
Fe0 O6 2.002 . S
Fe0 O11 1.976 . S
Fe0 O14 1.996 . S
Fe1 O2 1.918 . S
Fe1 O9 1.997 . S
Fe1 O12 1.996 . S
Fe1 O16 1.976 . S
Fe1 O19 2.002 . S
O2 Fe0 1.918 . S
O2 Fe1 1.918 . S
O2 Fe3 1.918 . S
Fe3 O2 1.918 . S
Fe3 O4 2.002 . S
Fe3 O13 1.976 . S
Fe3 O17 1.996 . S
Fe3 O20 1.997 . S
O4 Fe3 2.002 . S
O4 C21 1.295 . S
O5 Fe0 1.997 . S
O5 C21 1.235 . S
O6 Fe0 2.002 . S
O6 C7 1.295 . S
C7 O6 1.295 . S
C7 O9 1.235 . S
C8 O13 1.287 . S
C8 O14 1.255 . S
O9 Fe1 1.997 . S
O9 C7 1.235 . S
C10 O16 1.287 . S
C10 O17 1.255 . S
O11 Fe0 1.976 . S
O11 C18 1.287 . S
O12 Fe1 1.996 . S
O12 C18 1.255 . S
O13 Fe3 1.976 . S
O13 C8 1.287 . S
O14 Fe0 1.996 . S
O14 C8 1.255 . S
C15 O19 1.295 . S
C15 O20 1.235 . S
O16 Fe1 1.976 . S
O16 C10 1.287 . S
O17 Fe3 1.996 . S
O17 C10 1.255 . S
C18 O11 1.287 . S
C18 O12 1.255 . S
O19 Fe1 2.002 . S
O19 C15 1.295 . S
O20 Fe3 1.997 . S
O20 C15 1.235 . S
C21 O4 1.295 . S
C21 O5 1.235 . S
Fe22 O24 1.918 . S
Fe22 O27 1.997 . S
Fe22 O28 2.002 . S
Fe22 O33 1.976 . S
Fe22 O36 1.996 . S
Fe23 O24 1.918 . S
Fe23 O31 1.997 . S
Fe23 O34 1.996 . S
Fe23 O38 1.976 . S
Fe23 O41 2.002 . S
O24 Fe22 1.918 . S
O24 Fe23 1.918 . S
O24 Fe25 1.918 . S
Fe25 O24 1.918 . S
Fe25 O26 2.002 . S
Fe25 O35 1.976 . S
Fe25 O39 1.996 . S
Fe25 O42 1.997 . S
O26 Fe25 2.002 . S
O26 C43 1.295 . S
O27 Fe22 1.997 . S
O27 C43 1.235 . S
O28 Fe22 2.002 . S
O28 C29 1.295 . S
C29 O28 1.295 . S
C29 O31 1.235 . S
C30 O35 1.287 . S
C30 O36 1.255 . S
O31 Fe23 1.997 . S
O31 C29 1.235 . S
C32 O38 1.287 . S
C32 O39 1.255 . S
O33 Fe22 1.976 . S
O33 C40 1.287 . S
O34 Fe23 1.996 . S
O34 C40 1.255 . S
O35 Fe25 1.976 . S
O35 C30 1.287 . S
O36 Fe22 1.996 . S
O36 C30 1.255 . S
C37 O41 1.295 . S
C37 O42 1.235 . S
O38 Fe23 1.976 . S
O38 C32 1.287 . S
O39 Fe25 1.996 . S
O39 C32 1.255 . S
C40 O33 1.287 . S
C40 O34 1.255 . S
O41 Fe23 2.002 . S
O41 C37 1.295 . S
O42 Fe25 1.997 . S
O42 C37 1.235 . S
C43 O26 1.295 . S
C43 O27 1.235 . S
Fe44 O46 1.918 . S
Fe44 O49 1.997 . S
Fe44 O50 2.002 . S
Fe44 O55 1.976 . S
Fe44 O58 1.996 . S
Fe45 O46 1.918 . S
Fe45 O53 1.997 . S
Fe45 O56 1.996 . S
Fe45 O60 1.976 . S
Fe45 O63 2.002 . S
O46 Fe44 1.918 . S
O46 Fe45 1.918 . S
O46 Fe47 1.918 . S
Fe47 O46 1.918 . S
Fe47 O48 2.002 . S
Fe47 O57 1.976 . S
Fe47 O61 1.996 . S
Fe47 O64 1.997 . S
O48 Fe47 2.002 . S
O48 C65 1.295 . S
O49 Fe44 1.997 . S
O49 C65 1.235 . S
O50 Fe44 2.002 . S
O50 C51 1.295 . S
C51 O50 1.295 . S
C51 O53 1.235 . S
C52 O57 1.287 . S
C52 O58 1.255 . S
O53 Fe45 1.997 . S
O53 C51 1.235 . S
C54 O60 1.287 . S
C54 O61 1.255 . S
O55 Fe44 1.976 . S
O55 C62 1.287 . S
O56 Fe45 1.996 . S
O56 C62 1.255 . S
O57 Fe47 1.976 . S
O57 C52 1.287 . S
O58 Fe44 1.996 . S
O58 C52 1.255 . S
C59 O63 1.295 . S
C59 O64 1.235 . S
O60 Fe45 1.976 . S
O60 C54 1.287 . S
O61 Fe47 1.996 . S
O61 C54 1.255 . S
C62 O55 1.287 . S
C62 O56 1.255 . S
O63 Fe45 2.002 . S
O63 C59 1.295 . S
O64 Fe47 1.997 . S
O64 C59 1.235 . S
C65 O48 1.295 . S
C65 O49 1.235 . S
Fe66 O68 1.918 . S
Fe66 O71 1.997 . S
Fe66 O72 2.002 . S
Fe66 O77 1.976 . S
Fe66 O80 1.996 . S
Fe67 O68 1.918 . S
Fe67 O75 1.997 . S
Fe67 O78 1.996 . S
Fe67 O82 1.976 . S
Fe67 O85 2.002 . S
O68 Fe66 1.918 . S
O68 Fe67 1.918 . S
O68 Fe69 1.918 . S
Fe69 O68 1.918 . S
Fe69 O70 2.002 . S
Fe69 O79 1.976 . S
Fe69 O83 1.996 . S
Fe69 O86 1.997 . S
O70 Fe69 2.002 . S
O70 C87 1.295 . S
O71 Fe66 1.997 . S
O71 C87 1.235 . S
O72 Fe66 2.002 . S
O72 C73 1.295 . S
C73 O72 1.295 . S
C73 O75 1.235 . S
C74 O79 1.287 . S
C74 O80 1.255 . S
O75 Fe67 1.997 . S
O75 C73 1.235 . S
C76 O82 1.287 . S
C76 O83 1.255 . S
O77 Fe66 1.976 . S
O77 C84 1.287 . S
O78 Fe67 1.996 . S
O78 C84 1.255 . S
O79 Fe69 1.976 . S
O79 C74 1.287 . S
O80 Fe66 1.996 . S
O80 C74 1.255 . S
C81 O85 1.295 . S
C81 O86 1.235 . S
O82 Fe67 1.976 . S
O82 C76 1.287 . S
O83 Fe69 1.996 . S
O83 C76 1.255 . S
C84 O77 1.287 . S
C84 O78 1.255 . S
O85 Fe67 2.002 . S
O85 C81 1.295 . S
O86 Fe69 1.997 . S
O86 C81 1.235 . S
C87 O70 1.295 . S
C87 O71 1.235 . S
Fe88 O90 1.918 . S
Fe88 O93 1.997 . S
Fe88 O94 2.002 . S
Fe88 O99 1.976 . S
Fe88 O102 1.996 . S
Fe89 O90 1.918 . S
Fe89 O97 1.997 . S
Fe89 O100 1.996 . S
Fe89 O104 1.976 . S
Fe89 O107 2.002 . S
O90 Fe88 1.918 . S
O90 Fe89 1.918 . S
O90 Fe91 1.918 . S
Fe91 O90 1.918 . S
Fe91 O92 2.002 . S
Fe91 O101 1.976 . S
Fe91 O105 1.996 . S
Fe91 O108 1.997 . S
O92 Fe91 2.002 . S
O92 C109 1.295 . S
O93 Fe88 1.997 . S
O93 C109 1.235 . S
O94 Fe88 2.002 . S
O94 C95 1.295 . S
C95 O94 1.295 . S
C95 O97 1.235 . S
C96 O101 1.287 . S
C96 O102 1.255 . S
O97 Fe89 1.997 . S
O97 C95 1.235 . S
C98 O104 1.287 . S
C98 O105 1.255 . S
O99 Fe88 1.976 . S
O99 C106 1.287 . S
O100 Fe89 1.996 . S
O100 C106 1.255 . S
O101 Fe91 1.976 . S
O101 C96 1.287 . S
O102 Fe88 1.996 . S
O102 C96 1.255 . S
C103 O107 1.295 . S
C103 O108 1.235 . S
O104 Fe89 1.976 . S
O104 C98 1.287 . S
O105 Fe91 1.996 . S
O105 C98 1.255 . S
C106 O99 1.287 . S
C106 O100 1.255 . S
O107 Fe89 2.002 . S
O107 C103 1.295 . S
O108 Fe91 1.997 . S
O108 C103 1.235 . S
C109 O92 1.295 . S
C109 O93 1.235 . S
Fe110 O112 1.918 . S
Fe110 O115 1.997 . S
Fe110 O116 2.002 . S
Fe110 O121 1.976 . S
Fe110 O124 1.996 . S
Fe111 O112 1.918 . S
Fe111 O119 1.997 . S
Fe111 O122 1.996 . S
Fe111 O126 1.976 . S
Fe111 O129 2.002 . S
O112 Fe110 1.918 . S
O112 Fe111 1.918 . S
O112 Fe113 1.918 . S
Fe113 O112 1.918 . S
Fe113 O114 2.002 . S
Fe113 O123 1.976 . S
Fe113 O127 1.996 . S
Fe113 O130 1.997 . S
O114 Fe113 2.002 . S
O114 C131 1.295 . S
O115 Fe110 1.997 . S
O115 C131 1.235 . S
O116 Fe110 2.002 . S
O116 C117 1.295 . S
C117 O116 1.295 . S
C117 O119 1.235 . S
C118 O123 1.287 . S
C118 O124 1.255 . S
O119 Fe111 1.997 . S
O119 C117 1.235 . S
C120 O126 1.287 . S
C120 O127 1.255 . S
O121 Fe110 1.976 . S
O121 C128 1.287 . S
O122 Fe111 1.996 . S
O122 C128 1.255 . S
O123 Fe113 1.976 . S
O123 C118 1.287 . S
O124 Fe110 1.996 . S
O124 C118 1.255 . S
C125 O129 1.295 . S
C125 O130 1.235 . S
O126 Fe111 1.976 . S
O126 C120 1.287 . S
O127 Fe113 1.996 . S
O127 C120 1.255 . S
C128 O121 1.287 . S
C128 O122 1.255 . S
O129 Fe111 2.002 . S
O129 C125 1.295 . S
O130 Fe113 1.997 . S
O130 C125 1.235 . S
C131 O114 1.295 . S
C131 O115 1.235 . S
Fe132 O134 1.918 . S
Fe132 O137 1.997 . S
Fe132 O138 2.002 . S
Fe132 O143 1.976 . S
Fe132 O146 1.996 . S
Fe133 O134 1.918 . S
Fe133 O141 1.997 . S
Fe133 O144 1.996 . S
Fe133 O148 1.976 . S
Fe133 O151 2.002 . S
O134 Fe132 1.918 . S
O134 Fe133 1.918 . S
O134 Fe135 1.918 . S
Fe135 O134 1.918 . S
Fe135 O136 2.002 . S
Fe135 O145 1.976 . S
Fe135 O149 1.996 . S
Fe135 O152 1.997 . S
O136 Fe135 2.002 . S
O136 C153 1.295 . S
O137 Fe132 1.997 . S
O137 C153 1.235 . S
O138 Fe132 2.002 . S
O138 C139 1.295 . S
C139 O138 1.295 . S
C139 O141 1.235 . S
C140 O145 1.287 . S
C140 O146 1.255 . S
O141 Fe133 1.997 . S
O141 C139 1.235 . S
C142 O148 1.287 . S
C142 O149 1.255 . S
O143 Fe132 1.976 . S
O143 C150 1.287 . S
O144 Fe133 1.996 . S
O144 C150 1.255 . S
O145 Fe135 1.976 . S
O145 C140 1.287 . S
O146 Fe132 1.996 . S
O146 C140 1.255 . S
C147 O151 1.295 . S
C147 O152 1.235 . S
O148 Fe133 1.976 . S
O148 C142 1.287 . S
O149 Fe135 1.996 . S
O149 C142 1.255 . S
C150 O143 1.287 . S
C150 O144 1.255 . S
O151 Fe133 2.002 . S
O151 C147 1.295 . S
O152 Fe135 1.997 . S
O152 C147 1.235 . S
C153 O136 1.295 . S
C153 O137 1.235 . S
Fe154 O156 1.918 . S
Fe154 O159 1.997 . S
Fe154 O160 2.002 . S
Fe154 O165 1.976 . S
Fe154 O168 1.996 . S
Fe155 O156 1.918 . S
Fe155 O163 1.997 . S
Fe155 O166 1.996 . S
Fe155 O170 1.976 . S
Fe155 O173 2.002 . S
O156 Fe154 1.918 . S
O156 Fe155 1.918 . S
O156 Fe157 1.918 . S
Fe157 O156 1.918 . S
Fe157 O158 2.002 . S
Fe157 O167 1.976 . S
Fe157 O171 1.996 . S
Fe157 O174 1.997 . S
O158 Fe157 2.002 . S
O158 C175 1.295 . S
O159 Fe154 1.997 . S
O159 C175 1.235 . S
O160 Fe154 2.002 . S
O160 C161 1.295 . S
C161 O160 1.295 . S
C161 O163 1.235 . S
C162 O167 1.287 . S
C162 O168 1.255 . S
O163 Fe155 1.997 . S
O163 C161 1.235 . S
C164 O170 1.287 . S
C164 O171 1.255 . S
O165 Fe154 1.976 . S
O165 C172 1.287 . S
O166 Fe155 1.996 . S
O166 C172 1.255 . S
O167 Fe157 1.976 . S
O167 C162 1.287 . S
O168 Fe154 1.996 . S
O168 C162 1.255 . S
C169 O173 1.295 . S
C169 O174 1.235 . S
O170 Fe155 1.976 . S
O170 C164 1.287 . S
O171 Fe157 1.996 . S
O171 C164 1.255 . S
C172 O165 1.287 . S
C172 O166 1.255 . S
O173 Fe155 2.002 . S
O173 C169 1.295 . S
O174 Fe157 1.997 . S
O174 C169 1.235 . S
C175 O158 1.295 . S
C175 O159 1.235 . S
H176 C184 0.950 . S
H177 C189 0.950 . S
H178 C186 0.950 . S
H179 C188 0.951 . S
H180 C190 0.950 . S
H181 C192 0.950 . S
H182 C194 0.950 . S
H183 C195 0.950 . S
C184 H176 0.950 . S
C184 C185 1.386 . S
C184 C186 1.391 1_545 S
C185 C184 1.386 . S
C185 C189 1.393 . S
C186 H178 0.950 . S
C186 C184 1.391 1_565 S
C186 C187 1.400 . S
C187 C186 1.400 . S
C187 C188 1.398 1_565 S
C187 C193 1.491 . S
C188 H179 0.951 . S
C188 C187 1.398 1_545 S
C188 C189 1.391 . S
C189 H177 0.950 . S
C189 C185 1.393 . S
C189 C188 1.391 . S
C190 H180 0.950 . S
C190 C191 1.386 . S
C190 C192 1.391 . S
C191 C190 1.386 . S
C191 C195 1.393 . S
C192 H181 0.950 . S
C192 C190 1.391 . S
C192 C193 1.400 . S
C193 C187 1.491 . S
C193 C192 1.400 . S
C193 C194 1.398 . S
C194 H182 0.950 . S
C194 C193 1.398 . S
C194 C195 1.391 . S
C195 H183 0.950 . S
C195 C191 1.393 . S
C195 C194 1.391 . S
H196 C204 0.950 . S
H197 C209 0.950 . S
H198 C206 0.950 . S
H199 C208 0.950 . S
H200 C210 0.950 . S
H201 C212 0.950 . S
H202 C214 0.950 . S
H203 C215 0.950 . S
C204 H196 0.950 . S
C204 C205 1.386 . S
C204 C206 1.391 . S
C205 C204 1.386 . S
C205 C209 1.393 . S
C206 H198 0.950 . S
C206 C204 1.391 . S
C206 C207 1.400 1_455 S
C207 C206 1.400 1_655 S
C207 C208 1.398 . S
C207 C213 1.491 . S
C208 H199 0.950 . S
C208 C207 1.398 . S
C208 C209 1.391 1_655 S
C209 H197 0.950 . S
C209 C205 1.393 . S
C209 C208 1.391 1_455 S
C210 H200 0.950 . S
C210 C211 1.386 . S
C210 C212 1.391 . S
C211 C210 1.386 . S
C211 C215 1.393 . S
C212 H201 0.950 . S
C212 C210 1.391 . S
C212 C213 1.400 . S
C213 C207 1.491 . S
C213 C212 1.400 . S
C213 C214 1.398 . S
C214 H202 0.950 . S
C214 C213 1.398 . S
C214 C215 1.391 . S
C215 H203 0.950 . S
C215 C211 1.393 . S
C215 C214 1.391 . S
H216 C224 0.950 . S
H217 C229 0.950 . S
H218 C226 0.950 . S
H219 C228 0.950 . S
H220 C230 0.950 . S
H221 C232 0.950 . S
H222 C234 0.950 . S
H223 C235 0.950 . S
C224 H216 0.950 . S
C224 C225 1.386 . S
C224 C226 1.391 1_565 S
C225 C224 1.386 . S
C225 C229 1.393 . S
C226 H218 0.950 . S
C226 C224 1.391 1_545 S
C226 C227 1.400 . S
C227 C226 1.400 . S
C227 C228 1.398 . S
C227 C233 1.491 . S
C228 H219 0.950 . S
C228 C227 1.398 . S
C228 C229 1.391 1_545 S
C229 H217 0.950 . S
C229 C225 1.393 . S
C229 C228 1.391 1_565 S
C230 H220 0.950 . S
C230 C231 1.386 . S
C230 C232 1.391 . S
C231 C230 1.386 . S
C231 C235 1.393 . S
C232 H221 0.950 . S
C232 C230 1.391 . S
C232 C233 1.400 . S
C233 C227 1.491 . S
C233 C232 1.400 . S
C233 C234 1.398 . S
C234 H222 0.950 . S
C234 C233 1.398 . S
C234 C235 1.391 . S
C235 H223 0.950 . S
C235 C231 1.393 . S
C235 C234 1.391 . S
H236 C244 0.950 . S
H237 C249 0.950 . S
H238 C246 0.950 . S
H239 C248 0.950 . S
H240 C250 0.950 . S
H241 C252 0.950 . S
H242 C254 0.950 . S
H243 C255 0.950 . S
C244 H236 0.950 . S
C244 C245 1.386 . S
C244 C246 1.391 . S
C245 C244 1.386 . S
C245 C249 1.393 . S
C246 H238 0.950 . S
C246 C244 1.391 . S
C246 C247 1.400 . S
C247 C246 1.400 . S
C247 C248 1.398 . S
C247 C253 1.491 . S
C248 H239 0.950 . S
C248 C247 1.398 . S
C248 C249 1.391 . S
C249 H237 0.950 . S
C249 C245 1.393 . S
C249 C248 1.391 . S
C250 H240 0.950 . S
C250 C251 1.386 1_455 S
C250 C252 1.391 . S
C251 C250 1.386 1_655 S
C251 C255 1.393 . S
C252 H241 0.950 . S
C252 C250 1.391 . S
C252 C253 1.400 . S
C253 C247 1.491 . S
C253 C252 1.400 . S
C253 C254 1.398 . S
C254 H242 0.950 . S
C254 C253 1.398 . S
C254 C255 1.391 1_455 S
C255 H243 0.950 . S
C255 C251 1.393 . S
C255 C254 1.391 1_655 S
H256 C264 0.950 . S
H257 C269 0.950 . S
H258 C266 0.950 . S
H259 C268 0.954 . S
H260 C270 0.950 . S
H261 C272 0.950 . S
H262 C274 0.950 . S
H263 C275 0.954 . S
C264 H256 0.950 . S
C264 C265 1.386 . S
C264 C266 1.391 . S
C265 C264 1.386 . S
C265 C269 1.393 . S
C266 H258 0.950 . S
C266 C264 1.391 . S
C266 C267 1.400 . S
C267 C266 1.400 . S
C267 C268 1.398 . S
C267 C273 1.491 . S
C268 H259 0.954 . S
C268 C267 1.398 . S
C268 C269 1.391 . S
C269 H257 0.950 . S
C269 C265 1.393 . S
C269 C268 1.391 . S
C270 H260 0.950 . S
C270 C271 1.386 . S
C270 C272 1.391 . S
C271 C270 1.386 . S
C271 C275 1.379 1_556 S
C272 H261 0.950 . S
C272 C270 1.391 . S
C272 C273 1.400 1_556 S
C273 C267 1.491 . S
C273 C272 1.400 1_554 S
C273 C274 1.398 . S
C274 H262 0.950 . S
C274 C273 1.398 . S
C274 C275 1.400 . S
C275 H263 0.954 . S
C275 C271 1.379 1_554 S
C275 C274 1.400 . S
H276 C284 0.950 . S
H277 C289 0.950 . S
H278 C286 0.950 . S
H279 C288 0.950 1_554 S
H280 C290 0.950 . S
H281 C292 0.950 . S
H282 C294 0.950 . S
H283 C295 0.950 . S
C284 H276 0.950 . S
C284 C285 1.386 . S
C284 C286 1.391 . S
C285 C284 1.386 . S
C285 C289 1.393 . S
C286 H278 0.950 . S
C286 C284 1.391 . S
C286 C287 1.400 . S
C287 C286 1.400 . S
C287 C288 1.398 . S
C287 C293 1.491 . S
C288 H279 0.950 1_556 S
C288 C287 1.398 . S
C288 C289 1.391 . S
C289 H277 0.950 . S
C289 C285 1.393 . S
C289 C288 1.391 . S
C290 H280 0.950 . S
C290 C291 1.386 . S
C290 C292 1.391 . S
C291 C290 1.386 . S
C291 C295 1.393 1_554 S
C292 H281 0.950 . S
C292 C290 1.391 . S
C292 C293 1.400 1_554 S
C293 C287 1.491 . S
C293 C292 1.400 1_556 S
C293 C294 1.398 . S
C294 H282 0.950 . S
C294 C293 1.398 . S
C294 C295 1.391 . S
C295 H283 0.950 . S
C295 C291 1.393 1_556 S
C295 C294 1.391 . S
H296 C304 0.950 . S
H297 C309 0.950 . S
H298 C306 0.950 . S
H299 C308 0.950 . S
H300 C310 0.950 . S
H301 C312 0.950 . S
H302 C314 0.950 . S
H303 C315 0.950 . S
C304 H296 0.950 . S
C304 C305 1.386 . S
C304 C306 1.391 . S
C305 C304 1.386 . S
C305 C309 1.393 . S
C306 H298 0.950 . S
C306 C304 1.391 . S
C306 C307 1.400 . S
C307 C306 1.400 . S
C307 C308 1.398 . S
C307 C313 1.491 . S
C308 H299 0.950 . S
C308 C307 1.398 . S
C308 C309 1.391 . S
C309 H297 0.950 . S
C309 C305 1.393 . S
C309 C308 1.391 . S
C310 H300 0.950 . S
C310 C311 1.386 . S
C310 C312 1.391 1_556 S
C311 C310 1.386 . S
C311 C315 1.393 . S
C312 H301 0.950 . S
C312 C310 1.391 1_554 S
C312 C313 1.400 . S
C313 C307 1.491 . S
C313 C312 1.400 . S
C313 C314 1.398 1_554 S
C314 H302 0.950 . S
C314 C313 1.398 1_556 S
C314 C315 1.391 . S
C315 H303 0.950 . S
C315 C311 1.393 . S
C315 C314 1.391 . S
H316 C324 0.950 . S
H317 C329 0.950 . S
H318 C326 0.950 . S
H319 C328 0.950 . S
H320 C330 0.950 . S
H321 C332 0.950 1_554 S
H322 C334 0.950 . S
H323 C335 0.950 . S
C324 H316 0.950 . S
C324 C325 1.386 1_556 S
C324 C326 1.391 . S
C325 C324 1.386 1_554 S
C325 C329 1.393 . S
C326 H318 0.950 . S
C326 C324 1.391 . S
C326 C327 1.400 . S
C327 C326 1.400 . S
C327 C328 1.398 1_556 S
C327 C333 1.491 . S
C328 H319 0.950 . S
C328 C327 1.398 1_554 S
C328 C329 1.391 . S
C329 H317 0.950 . S
C329 C325 1.393 . S
C329 C328 1.391 . S
C330 H320 0.950 . S
C330 C331 1.386 . S
C330 C332 1.391 . S
C331 C330 1.386 . S
C331 C335 1.393 . S
C332 H321 0.950 1_556 S
C332 C330 1.391 . S
C332 C333 1.400 . S
C333 C327 1.491 . S
C333 C332 1.400 . S
C333 C334 1.398 . S
C334 H322 0.950 . S
C334 C333 1.398 . S
C334 C335 1.391 . S
C335 H323 0.950 . S
C335 C331 1.393 . S
C335 C334 1.391 . S
H336 C344 0.950 . S
H337 C349 0.950 . S
H338 C346 0.950 . S
H339 C348 0.950 . S
H340 C350 0.950 . S
H341 C352 0.950 . S
H342 C354 0.950 . S
H343 C355 0.950 . S
C344 H336 0.950 . S
C344 C345 1.386 . S
C344 C346 1.391 . S
C345 C344 1.386 . S
C345 C349 1.393 . S
C346 H338 0.950 . S
C346 C344 1.391 . S
C346 C347 1.400 . S
C347 C346 1.400 . S
C347 C348 1.398 . S
C347 C353 1.491 . S
C348 H339 0.950 . S
C348 C347 1.398 . S
C348 C349 1.391 . S
C349 H337 0.950 . S
C349 C345 1.393 . S
C349 C348 1.391 . S
C350 H340 0.950 . S
C350 C351 1.386 . S
C350 C352 1.391 . S
C351 C350 1.386 . S
C351 C355 1.393 . S
C352 H341 0.950 . S
C352 C350 1.391 . S
C352 C353 1.400 . S
C353 C347 1.491 . S
C353 C352 1.400 . S
C353 C354 1.398 . S
C354 H342 0.950 . S
C354 C353 1.398 . S
C354 C355 1.391 . S
C355 H343 0.950 . S
C355 C351 1.393 . S
C355 C354 1.391 . S
H356 C364 0.950 . S
H357 C369 0.950 . S
H358 C366 0.950 . S
H359 C368 0.950 . S
H360 C370 0.950 . S
H361 C372 0.950 . S
H362 C374 0.950 . S
H363 C375 0.950 . S
C364 H356 0.950 . S
C364 C365 1.386 . S
C364 C366 1.391 . S
C365 C364 1.386 . S
C365 C369 1.393 . S
C366 H358 0.950 . S
C366 C364 1.391 . S
C366 C367 1.400 . S
C367 C366 1.400 . S
C367 C368 1.398 . S
C367 C373 1.491 . S
C368 H359 0.950 . S
C368 C367 1.398 . S
C368 C369 1.391 . S
C369 H357 0.950 . S
C369 C365 1.393 . S
C369 C368 1.391 . S
C370 H360 0.950 . S
C370 C371 1.386 . S
C370 C372 1.391 . S
C371 C370 1.386 . S
C371 C375 1.393 . S
C372 H361 0.950 . S
C372 C370 1.391 . S
C372 C373 1.400 . S
C373 C367 1.491 . S
C373 C372 1.400 . S
C373 C374 1.398 . S
C374 H362 0.950 . S
C374 C373 1.398 . S
C374 C375 1.391 . S
C375 H363 0.950 . S
C375 C371 1.393 . S
C375 C374 1.391 . S
H376 C384 0.950 . S
H377 C389 0.950 . S
H378 C386 0.950 . S
H379 C388 0.950 . S
H380 C390 0.950 . S
H381 C392 0.950 . S
H382 C394 0.950 . S
H383 C395 0.950 . S
C384 H376 0.950 . S
C384 C385 1.386 . S
C384 C386 1.391 . S
C385 C384 1.386 . S
C385 C389 1.393 . S
C386 H378 0.950 . S
C386 C384 1.391 . S
C386 C387 1.400 . S
C387 C386 1.400 . S
C387 C388 1.398 . S
C387 C393 1.491 . S
C388 H379 0.950 . S
C388 C387 1.398 . S
C388 C389 1.391 . S
C389 H377 0.950 . S
C389 C385 1.393 . S
C389 C388 1.391 . S
C390 H380 0.950 . S
C390 C391 1.386 . S
C390 C392 1.391 . S
C391 C390 1.386 . S
C391 C395 1.393 . S
C392 H381 0.950 . S
C392 C390 1.391 . S
C392 C393 1.400 . S
C393 C387 1.491 . S
C393 C392 1.400 . S
C393 C394 1.398 . S
C394 H382 0.950 . S
C394 C393 1.398 . S
C394 C395 1.391 . S
C395 H383 0.950 . S
C395 C391 1.393 . S
C395 C394 1.391 . S
H396 C404 0.950 . S
H397 C409 0.950 . S
H398 C406 0.950 . S
H399 C408 0.950 . S
H400 C410 0.950 . S
H401 C412 0.950 . S
H402 C414 0.950 . S
H403 C415 0.950 . S
C404 H396 0.950 . S
C404 C405 1.386 . S
C404 C406 1.391 . S
C405 C404 1.386 . S
C405 C409 1.393 . S
C406 H398 0.950 . S
C406 C404 1.391 . S
C406 C407 1.400 . S
C407 C406 1.400 . S
C407 C408 1.398 . S
C407 C413 1.491 . S
C408 H399 0.950 . S
C408 C407 1.398 . S
C408 C409 1.391 . S
C409 H397 0.950 . S
C409 C405 1.393 . S
C409 C408 1.391 . S
C410 H400 0.950 . S
C410 C411 1.386 . S
C410 C412 1.391 . S
C411 C410 1.386 . S
C411 C415 1.393 . S
C412 H401 0.950 . S
C412 C410 1.391 . S
C412 C413 1.400 . S
C413 C407 1.491 . S
C413 C412 1.400 . S
C413 C414 1.398 . S
C414 H402 0.950 . S
C414 C413 1.398 . S
C414 C415 1.391 . S
C415 H403 0.950 . S
C415 C411 1.393 . S
C415 C414 1.391 . S
H416 C424 0.950 . S
H417 C429 0.950 . S
H418 C426 0.950 . S
H419 C428 0.950 . S
H420 C430 0.950 . S
H421 C432 0.950 . S
H422 C434 0.950 . S
H423 C435 0.950 . S
C424 H416 0.950 . S
C424 C425 1.386 . S
C424 C426 1.391 . S
C425 C424 1.386 . S
C425 C429 1.393 . S
C426 H418 0.950 . S
C426 C424 1.391 . S
C426 C427 1.400 . S
C427 C426 1.400 . S
C427 C428 1.398 . S
C427 C433 1.491 . S
C428 H419 0.950 . S
C428 C427 1.398 . S
C428 C429 1.391 . S
C429 H417 0.950 . S
C429 C425 1.393 . S
C429 C428 1.391 . S
C430 H420 0.950 . S
C430 C431 1.386 . S
C430 C432 1.391 1_565 S
C431 C430 1.386 . S
C431 C435 1.393 . S
C432 H421 0.950 . S
C432 C430 1.391 1_545 S
C432 C433 1.400 . S
C433 C427 1.491 . S
C433 C432 1.400 . S
C433 C434 1.398 . S
C434 H422 0.950 . S
C434 C433 1.398 . S
C434 C435 1.391 1_545 S
C435 H423 0.950 . S
C435 C431 1.393 . S
C435 C434 1.391 1_565 S
H436 C444 0.950 . S
H437 C449 0.950 . S
H438 C446 0.950 . S
H439 C448 0.950 . S
H440 C450 0.950 . S
H441 C452 0.950 . S
H442 C454 0.950 . S
H443 C455 0.950 . S
C444 H436 0.950 . S
C444 C445 1.386 . S
C444 C446 1.391 . S
C445 C444 1.386 . S
C445 C449 1.393 . S
C446 H438 0.950 . S
C446 C444 1.391 . S
C446 C447 1.400 . S
C447 C446 1.400 . S
C447 C448 1.398 . S
C447 C453 1.491 . S
C448 H439 0.950 . S
C448 C447 1.398 . S
C448 C449 1.391 . S
C449 H437 0.950 . S
C449 C445 1.393 . S
C449 C448 1.391 . S
C450 H440 0.950 . S
C450 C451 1.386 . S
C450 C452 1.391 1_655 S
C451 C450 1.386 . S
C451 C455 1.393 . S
C452 H441 0.950 . S
C452 C450 1.391 1_455 S
C452 C453 1.400 . S
C453 C447 1.491 . S
C453 C452 1.400 . S
C453 C454 1.398 . S
C454 H442 0.950 . S
C454 C453 1.398 . S
C454 C455 1.391 1_455 S
C455 H443 0.950 . S
C455 C451 1.393 . S
C455 C454 1.391 1_655 S
H456 C464 0.950 . S
H457 C469 0.950 . S
H458 C466 0.950 . S
H459 C468 0.950 . S
H460 C470 0.950 . S
H461 C472 0.950 . S
H462 C474 0.950 . S
H463 C475 0.950 . S
C464 H456 0.950 . S
C464 C465 1.386 . S
C464 C466 1.391 . S
C465 C464 1.386 . S
C465 C469 1.393 . S
C466 H458 0.950 . S
C466 C464 1.391 . S
C466 C467 1.400 . S
C467 C466 1.400 . S
C467 C468 1.398 . S
C467 C473 1.491 . S
C468 H459 0.950 . S
C468 C467 1.398 . S
C468 C469 1.391 . S
C469 H457 0.950 . S
C469 C465 1.393 . S
C469 C468 1.391 . S
C470 H460 0.950 . S
C470 C471 1.386 . S
C470 C472 1.391 . S
C471 C470 1.386 . S
C471 C475 1.393 . S
C472 H461 0.950 . S
C472 C470 1.391 . S
C472 C473 1.400 1_545 S
C473 C467 1.491 . S
C473 C472 1.400 1_565 S
C473 C474 1.398 . S
C474 H462 0.950 . S
C474 C473 1.398 . S
C474 C475 1.391 1_565 S
C475 H463 0.950 . S
C475 C471 1.393 . S
C475 C474 1.391 1_545 S
H476 C484 0.950 . S
H477 C489 0.950 . S
H478 C486 0.950 . S
H479 C488 0.950 . S
H480 C490 0.950 . S
H481 C492 0.950 . S
H482 C494 0.950 . S
H483 C495 0.950 . S
C484 H476 0.950 . S
C484 C485 1.386 . S
C484 C486 1.391 1_455 S
C485 C484 1.386 . S
C485 C489 1.393 . S
C486 H478 0.950 . S
C486 C484 1.391 1_655 S
C486 C487 1.400 . S
C487 C486 1.400 . S
C487 C488 1.401 . S
C487 C493 1.491 . S
C488 H479 0.950 . S
C488 C487 1.401 . S
C488 C489 1.388 1_655 S
C489 H477 0.950 . S
C489 C485 1.393 . S
C489 C488 1.388 1_455 S
C490 H480 0.950 . S
C490 C491 1.386 . S
C490 C492 1.391 . S
C491 C490 1.386 . S
C491 C495 1.393 . S
C492 H481 0.950 . S
C492 C490 1.391 . S
C492 C493 1.400 . S
C493 C487 1.491 . S
C493 C492 1.400 . S
C493 C494 1.398 . S
C494 H482 0.950 . S
C494 C493 1.398 . S
C494 C495 1.391 . S
C495 H483 0.950 . S
C495 C491 1.393 . S
C495 C494 1.391 . S
H496 C504 0.950 . S
H497 C509 0.950 . S
H498 C506 0.950 . S
H499 C508 0.950 . S
H500 C510 0.950 . S
H501 C512 0.950 . S
H502 C514 0.950 . S
H503 C515 0.950 . S
C504 H496 0.950 . S
C504 C505 1.386 . S
C504 C506 1.391 . S
C505 C504 1.386 . S
C505 C509 1.393 . S
C506 H498 0.950 . S
C506 C504 1.391 . S
C506 C507 1.400 . S
C507 C506 1.400 . S
C507 C508 1.398 . S
C507 C513 1.491 . S
C508 H499 0.950 . S
C508 C507 1.398 . S
C508 C509 1.391 . S
C509 H497 0.950 . S
C509 C505 1.393 . S
C509 C508 1.391 . S
C510 H500 0.950 . S
C510 C511 1.386 . S
C510 C512 1.391 . S
C511 C510 1.386 . S
C511 C515 1.393 . S
C512 H501 0.950 . S
C512 C510 1.391 . S
C512 C513 1.400 . S
C513 C507 1.491 . S
C513 C512 1.400 . S
C513 C514 1.398 . S
C514 H502 0.950 . S
C514 C513 1.398 . S
C514 C515 1.391 . S
C515 H503 0.950 . S
C515 C511 1.393 . S
C515 C514 1.391 . S
H516 C524 0.950 1_554 S
H517 C529 0.950 . S
H518 C526 0.950 . S
H519 C528 0.950 . S
H520 C530 0.950 . S
H521 C532 0.950 . S
H522 C534 0.950 . S
H523 C535 0.950 . S
C524 H516 0.950 1_556 S
C524 C525 1.386 . S
C524 C526 1.391 . S
C525 C524 1.386 . S
C525 C529 1.393 . S
C526 H518 0.950 . S
C526 C524 1.391 . S
C526 C527 1.400 . S
C527 C526 1.400 . S
C527 C528 1.398 . S
C527 C533 1.491 . S
C528 H519 0.950 . S
C528 C527 1.398 . S
C528 C529 1.391 . S
C529 H517 0.950 . S
C529 C525 1.393 . S
C529 C528 1.391 . S
C530 H520 0.950 . S
C530 C531 1.386 . S
C530 C532 1.391 . S
C531 C530 1.386 . S
C531 C535 1.393 . S
C532 H521 0.950 . S
C532 C530 1.391 . S
C532 C533 1.400 . S
C533 C527 1.491 . S
C533 C532 1.400 . S
C533 C534 1.398 . S
C534 H522 0.950 . S
C534 C533 1.398 . S
C534 C535 1.391 . S
C535 H523 0.950 . S
C535 C531 1.393 . S
C535 C534 1.391 . S
H536 C544 0.950 . S
H537 C549 0.950 . S
H538 C546 0.950 . S
H539 C548 0.950 . S
H540 C550 0.950 . S
H541 C552 0.950 . S
H542 C554 0.950 . S
H543 C555 0.950 . S
C544 H536 0.950 . S
C544 C545 1.386 . S
C544 C546 1.391 . S
C545 C544 1.386 . S
C545 C549 1.393 . S
C546 H538 0.950 . S
C546 C544 1.391 . S
C546 C547 1.400 . S
C547 C546 1.400 . S
C547 C548 1.398 . S
C547 C553 1.491 . S
C548 H539 0.950 . S
C548 C547 1.398 . S
C548 C549 1.391 . S
C549 H537 0.950 . S
C549 C545 1.393 . S
C549 C548 1.391 . S
C550 H540 0.950 . S
C550 C551 1.386 . S
C550 C552 1.391 . S
C551 C550 1.386 . S
C551 C555 1.393 . S
C552 H541 0.950 . S
C552 C550 1.391 . S
C552 C553 1.400 . S
C553 C547 1.491 . S
C553 C552 1.400 . S
C553 C554 1.398 . S
C554 H542 0.950 . S
C554 C553 1.398 . S
C554 C555 1.391 . S
C555 H543 0.950 . S
C555 C551 1.393 . S
C555 C554 1.391 . S
H556 C564 0.950 . S
H557 C569 0.950 . S
H558 C566 0.950 . S
H559 C568 0.950 . S
H560 C570 0.950 . S
H561 C572 0.950 . S
H562 C574 0.950 . S
H563 C575 0.950 . S
C564 H556 0.950 . S
C564 C565 1.386 . S
C564 C566 1.391 . S
C565 C564 1.386 . S
C565 C569 1.393 . S
C566 H558 0.950 . S
C566 C564 1.391 . S
C566 C567 1.400 . S
C567 C566 1.400 . S
C567 C568 1.398 . S
C567 C573 1.491 . S
C568 H559 0.950 . S
C568 C567 1.398 . S
C568 C569 1.391 . S
C569 H557 0.950 . S
C569 C565 1.393 . S
C569 C568 1.391 . S
C570 H560 0.950 . S
C570 C571 1.386 . S
C570 C572 1.391 . S
C571 C570 1.386 . S
C571 C575 1.393 . S
C572 H561 0.950 . S
C572 C570 1.391 . S
C572 C573 1.400 . S
C573 C567 1.491 . S
C573 C572 1.400 . S
C573 C574 1.398 . S
C574 H562 0.950 . S
C574 C573 1.398 . S
C574 C575 1.391 . S
C575 H563 0.950 . S
C575 C571 1.393 . S
C575 C574 1.391 . S
H576 C584 0.950 . S
H577 C589 0.950 . S
H578 C586 0.950 . S
H579 C588 0.950 . S
H580 C590 0.950 . S
H581 C592 0.950 . S
H582 C594 0.950 . S
H583 C595 0.950 . S
C584 H576 0.950 . S
C584 C585 1.386 . S
C584 C586 1.391 . S
C585 C584 1.386 . S
C585 C589 1.393 . S
C586 H578 0.950 . S
C586 C584 1.391 . S
C586 C587 1.400 . S
C587 C586 1.400 . S
C587 C588 1.398 . S
C587 C593 1.491 . S
C588 H579 0.950 . S
C588 C587 1.398 . S
C588 C589 1.391 . S
C589 H577 0.950 . S
C589 C585 1.393 . S
C589 C588 1.391 . S
C590 H580 0.950 . S
C590 C591 1.386 . S
C590 C592 1.391 . S
C591 C590 1.386 . S
C591 C595 1.393 . S
C592 H581 0.950 . S
C592 C590 1.391 . S
C592 C593 1.400 . S
C593 C587 1.491 . S
C593 C592 1.400 . S
C593 C594 1.398 . S
C594 H582 0.950 . S
C594 C593 1.398 . S
C594 C595 1.391 . S
C595 H583 0.950 . S
C595 C591 1.393 . S
C595 C594 1.391 . S
H596 C604 0.950 . S
H597 C609 0.950 . S
H598 C606 0.950 . S
H599 C608 0.950 . S
H600 C610 0.950 . S
H601 C612 0.950 . S
H602 C614 0.950 . S
H603 C615 0.950 . S
C604 H596 0.950 . S
C604 C605 1.386 . S
C604 C606 1.391 . S
C605 C604 1.386 . S
C605 C609 1.393 . S
C606 H598 0.950 . S
C606 C604 1.391 . S
C606 C607 1.400 . S
C607 C606 1.400 . S
C607 C608 1.398 . S
C607 C613 1.491 . S
C608 H599 0.950 . S
C608 C607 1.398 . S
C608 C609 1.391 . S
C609 H597 0.950 . S
C609 C605 1.393 . S
C609 C608 1.391 . S
C610 H600 0.950 . S
C610 C611 1.386 . S
C610 C612 1.391 . S
C611 C610 1.386 . S
C611 C615 1.393 . S
C612 H601 0.950 . S
C612 C610 1.391 . S
C612 C613 1.400 . S
C613 C607 1.491 . S
C613 C612 1.400 . S
C613 C614 1.398 . S
C614 H602 0.950 . S
C614 C613 1.398 . S
C614 C615 1.391 . S
C615 H603 0.950 . S
C615 C611 1.393 . S
C615 C614 1.391 . S
H616 C624 0.950 . S
H617 C629 0.950 . S
H618 C626 0.950 . S
H619 C628 0.950 . S
H620 C630 0.950 . S
H621 C632 0.950 . S
H622 C634 0.950 . S
H623 C635 0.950 . S
C624 H616 0.950 . S
C624 C625 1.386 . S
C624 C626 1.391 . S
C625 C624 1.386 . S
C625 C629 1.393 . S
C626 H618 0.950 . S
C626 C624 1.391 . S
C626 C627 1.400 . S
C627 C626 1.400 . S
C627 C628 1.398 . S
C627 C633 1.491 . S
C628 H619 0.950 . S
C628 C627 1.398 . S
C628 C629 1.391 . S
C629 H617 0.950 . S
C629 C625 1.393 . S
C629 C628 1.391 . S
C630 H620 0.950 . S
C630 C631 1.386 . S
C630 C632 1.391 . S
C631 C630 1.386 . S
C631 C635 1.393 . S
C632 H621 0.950 . S
C632 C630 1.391 . S
C632 C633 1.400 . S
C633 C627 1.491 . S
C633 C632 1.400 . S
C633 C634 1.398 . S
C634 H622 0.950 . S
C634 C633 1.398 . S
C634 C635 1.391 . S
C635 H623 0.950 . S
C635 C631 1.393 . S
C635 C634 1.391 . S
H636 C644 0.950 . S
H637 C649 0.950 . S
H638 C646 0.950 . S
H639 C648 0.950 . S
H640 C650 0.950 . S
H641 C652 0.950 . S
H642 C654 0.950 . S
H643 C655 0.950 . S
C644 H636 0.950 . S
C644 C645 1.386 . S
C644 C646 1.391 . S
C645 C644 1.386 . S
C645 C649 1.393 . S
C646 H638 0.950 . S
C646 C644 1.391 . S
C646 C647 1.400 . S
C647 C646 1.400 . S
C647 C648 1.398 . S
C647 C653 1.491 . S
C648 H639 0.950 . S
C648 C647 1.398 . S
C648 C649 1.391 . S
C649 H637 0.950 . S
C649 C645 1.393 . S
C649 C648 1.391 . S
C650 H640 0.950 . S
C650 C651 1.386 . S
C650 C652 1.391 . S
C651 C650 1.386 . S
C651 C655 1.393 . S
C652 H641 0.950 . S
C652 C650 1.391 . S
C652 C653 1.400 . S
C653 C647 1.491 . S
C653 C652 1.400 . S
C653 C654 1.398 . S
C654 H642 0.950 . S
C654 C653 1.398 . S
C654 C655 1.391 . S
C655 H643 0.950 . S
C655 C651 1.393 . S
C655 C654 1.391 . S
C185 C10 1.181 . S
C191 C128 1.175 . S
C205 C37 1.236 . S
C211 C150 1.242 . S
C225 C59 1.268 . S
C231 C175 1.279 . S
C245 C103 1.196 . S
C251 C84 1.184 . S
C265 C131 1.204 . S
C271 C96 1.207 . S
C285 C147 1.269 . S
C291 C125 1.243 . S
C305 C172 1.258 . S
C311 C153 1.234 . S
C325 C164 1.170 . S
C331 C106 1.176 . S
C345 C140 1.180 . S
C351 C74 1.185 . S
C365 C169 1.228 . S
C371 C8 1.245 . S
C385 C43 1.275 . S
C391 C109 1.263 . S
C405 C51 1.202 . S
C411 C120 1.187 . S
C425 C81 1.204 . S
C431 C54 1.193 . S
C445 C7 1.271 . S
C451 C73 1.256 . S
C465 C40 1.246 . S
C471 C15 1.238 . S
C485 C32 1.187 . S
C491 C52 1.179 . S
C505 C98 1.146 1_554 S
C511 C18 1.147 . S
C525 C117 1.221 1_556 S
C531 C29 1.218 . S
C545 C65 1.200 . S
C551 C139 1.200 1_554 S
C565 C76 1.125 . S
C571 C162 1.129 1_556 S
C585 C62 1.143 . S
C591 C142 1.132 . S
C605 C87 1.221 . S
C611 C161 1.219 . S
C625 C95 1.216 . S
C631 C21 1.218 . S
C645 C118 1.129 . S
C651 C30 1.141 . S
