# Generated by pormake.
# Topology qtz-e, (6)-cn, num edge types: 1
# Building blocks:
#     Node 0, Type 0, BuildingBlock: CUWYAW_clean_sbu_0, # of connection points: 6
#     Node 1, Type 0, BuildingBlock: CUWYAW_clean_sbu_0, # of connection points: 6
#     Node 2, Type 0, BuildingBlock: CUWYAW_clean_sbu_0, # of connection points: 6
#     Node 3, Type 0, BuildingBlock: CUWYAW_clean_sbu_0, # of connection points: 6
#     Node 4, Type 0, BuildingBlock: CUWYAW_clean_sbu_0, # of connection points: 6
#     Node 5, Type 0, BuildingBlock: CUWYAW_clean_sbu_0, # of connection points: 6
#     Edge 6, Type (0, 0), BuildingBlock: OJICUG_clean_linker_0, # of connection points: 2
#     Edge 7, Type (0, 0), BuildingBlock: OJICUG_clean_linker_0, # of connection points: 2
#     Edge 8, Type (0, 0), BuildingBlock: OJICUG_clean_linker_0, # of connection points: 2
#     Edge 9, Type (0, 0), BuildingBlock: OJICUG_clean_linker_0, # of connection points: 2
#     Edge 10, Type (0, 0), BuildingBlock: OJICUG_clean_linker_0, # of connection points: 2
#     Edge 11, Type (0, 0), BuildingBlock: OJICUG_clean_linker_0, # of connection points: 2
#     Edge 12, Type (0, 0), BuildingBlock: OJICUG_clean_linker_0, # of connection points: 2
#     Edge 13, Type (0, 0), BuildingBlock: OJICUG_clean_linker_0, # of connection points: 2
#     Edge 14, Type (0, 0), BuildingBlock: OJICUG_clean_linker_0, # of connection points: 2
#     Edge 15, Type (0, 0), BuildingBlock: OJICUG_clean_linker_0, # of connection points: 2
#     Edge 16, Type (0, 0), BuildingBlock: OJICUG_clean_linker_0, # of connection points: 2
#     Edge 17, Type (0, 0), BuildingBlock: OJICUG_clean_linker_0, # of connection points: 2
#     Edge 18, Type (0, 0), BuildingBlock: OJICUG_clean_linker_0, # of connection points: 2
#     Edge 19, Type (0, 0), BuildingBlock: OJICUG_clean_linker_0, # of connection points: 2
#     Edge 20, Type (0, 0), BuildingBlock: OJICUG_clean_linker_0, # of connection points: 2
#     Edge 21, Type (0, 0), BuildingBlock: OJICUG_clean_linker_0, # of connection points: 2
#     Edge 22, Type (0, 0), BuildingBlock: OJICUG_clean_linker_0, # of connection points: 2
#     Edge 23, Type (0, 0), BuildingBlock: OJICUG_clean_linker_0, # of connection points: 2
# Relax obj value: 0.126
# Max RMSD: 0.210
# Mean RMSD: 0.210
data_MOF--net-qtz-e--node1-CUWYAW_clean_sbu_0--edge1-OJICUG_clean_linker_0
_symmetry_space_group_name_H-M    P1
_symmetry_Int_Tables_number       1
_symmetry_cell_setting            triclinic
loop_
_symmetry_equiv_pos_as_xyz
'x, y, z'
_cell_length_a     19.100129
_cell_length_b     19.086811
_cell_length_c     41.554642
_cell_angle_alpha  89.889305
_cell_angle_beta   89.948592
_cell_angle_gamma 119.92995
loop_
_atom_site_label
_atom_site_type_symbol
_atom_site_fract_x
_atom_site_fract_y
_atom_site_fract_z
_atom_type_partial_charge
C0 C 0.12184 0.19374 1.02012 0.0
Eu1 Eu 0.14538 0.32273 0.05069 0.0
C2 C 0.15006 0.18521 0.98777 0.0
C3 C 0.0947 0.13198 0.96504 0.0
C4 C 0.11897 0.13072 0.9332 0.0
C5 C 0.19936 0.18279 0.92334 0.0
C6 C 0.25507 0.23408 0.94659 0.0
C7 C 0.2307 0.23573 0.97821 0.0
C8 C 0.04301 0.38348 0.04591 0.0
C9 C 0.23615 0.47786 1.00849 0.0
C10 C 0.23279 0.6198 0.10727 0.0
Eu11 Eu 0.19696 0.48024 0.08328 0.0
C12 C 0.24671 0.64887 0.14072 0.0
C13 C 0.29368 0.63125 0.16174 0.0
C14 C 0.29684 0.64863 0.19453 0.0
C15 C 0.25221 0.68276 0.20685 0.0
C16 C 0.20804 0.70337 0.18558 0.0
C17 C 0.20544 0.68666 0.15278 0.0
C18 C 0.3046 0.42839 0.08973 0.0
C19 C 0.10609 0.32165 0.12716 0.0
O20 O 0.17676 0.22857 0.04257 0.0
O21 O 0.06963 0.21901 1.02016 0.0
O22 O 0.06147 0.35344 1.02162 0.0
O23 O 0.07905 0.37987 0.07032 0.0
O24 O 0.2339 0.40978 1.01557 0.0
O25 O 0.21061 0.51199 0.02957 0.0
O26 O 0.15883 0.56374 0.10073 0.0
O27 O 0.2866 0.60463 0.09471 0.0
O28 O 0.27969 0.45529 0.11308 0.0
O29 O 0.26701 0.42474 0.06424 0.0
O30 O 0.12398 0.39763 0.12363 0.0
O31 O 0.11676 0.28138 0.10336 0.0
H32 H 0.03197 0.09298 0.97166 0.0
H33 H 0.07401 0.09085 0.91611 0.0
H34 H 0.31788 0.27381 0.94036 0.0
H35 H 0.2749 0.27807 0.99498 0.0
H36 H 0.32545 0.6012 0.15313 0.0
H37 H 0.3308 0.63166 0.21046 0.0
H38 H 0.17371 0.7305 0.19448 0.0
H39 H 0.1686 0.70031 0.13703 0.0
C40 C 0.91856 0.12991 0.35388 0.0
Eu41 Eu 0.81332 0.1544 0.38422 0.0
C42 C 0.94128 0.14453 0.31943 0.0
C43 C 0.89019 0.15338 0.29754 0.0
C44 C 0.91354 0.17454 0.2655 0.0
C45 C -0.0115 0.18697 0.25442 0.0
C46 C 0.03841 0.17503 0.27605 0.0
C47 C 0.01515 0.15444 0.30837 0.0
C48 C 0.651 0.05057 0.37922 0.0
C49 C 0.74344 0.23878 0.34056 0.0
C50 C 0.59987 0.23918 0.43986 0.0
Eu51 Eu 0.70483 0.20487 0.41602 0.0
C52 C 0.58542 0.25332 0.47336 0.0
C53 C 0.65048 0.29932 0.4942 0.0
C54 C 0.6371 0.30174 0.52712 0.0
C55 C 0.55868 0.25734 0.53974 0.0
C56 C 0.4934 0.21423 0.51866 0.0
C57 C 0.5067 0.21234 0.48573 0.0
C58 C 0.86368 0.3138 0.42241 0.0
C59 C 0.77532 0.11838 0.46079 0.0
O60 O 0.93878 0.19465 0.37108 0.0
O61 O 0.84458 0.07255 0.35982 0.0
O62 O 0.69995 0.06899 0.35503 0.0
O63 O 0.68987 0.08752 0.40359 0.0
O64 O 0.80975 0.23727 0.34733 0.0
O65 O 0.6853 0.2156 0.36228 0.0
O66 O 0.58309 0.16536 0.43357 0.0
O67 O 0.6681 0.29348 0.42694 0.0
O68 O 0.81155 0.28981 0.44564 0.0
O69 O 0.83029 0.27548 0.39702 0.0
O70 O 0.71491 0.1325 0.45652 0.0
O71 O 0.82833 0.13164 0.43746 0.0
H72 H 0.83256 0.1454 0.30535 0.0
H73 H 0.87319 0.18224 0.24944 0.0
H74 H 0.09675 0.1847 0.26831 0.0
H75 H 0.05558 0.14808 0.32483 0.0
H76 H 0.71205 0.33075 0.48533 0.0
H77 H 0.68839 0.33493 0.54289 0.0
H78 H 0.43217 0.18017 0.5278 0.0
H79 H 0.45587 0.17611 0.47011 0.0
C80 C 0.78092 0.93573 0.68936 0.0
Eu81 Eu 0.65113 0.82713 0.71859 0.0
C82 C 0.78992 0.97133 0.65672 0.0
C83 C 0.8459 0.97143 0.63469 0.0
C84 C 0.84732 -0.00485 0.60254 0.0
C85 C 0.79258 0.0192 0.59167 0.0
C86 C 0.73856 0.02156 0.61419 0.0
C87 C 0.73685 -0.00251 0.64613 0.0
C88 C 0.59565 0.66512 0.71373 0.0
C89 C 0.49831 0.75872 0.67433 0.0
C90 C 0.35533 0.61131 0.77422 0.0
Eu91 Eu 0.49291 0.71776 0.74964 0.0
C92 C 0.33637 0.58824 0.8082 0.0
C93 C 0.2627 0.57354 0.82143 0.0
C94 C 0.24917 0.56146 0.85462 0.0
C95 C 0.3095 0.56453 0.87497 0.0
C96 C 0.38319 0.57948 0.86148 0.0
C97 C 0.39628 0.59079 0.82848 0.0
C98 C 0.53969 0.87624 0.75551 0.0
C99 C 0.64819 0.78556 0.79492 0.0
O100 O 0.74241 0.95384 0.71097 0.0
O101 O 0.75906 0.85903 0.68994 0.0
O102 O 0.62618 0.71447 0.68966 0.0
O103 O 0.59628 0.7035 0.73814 0.0
O104 O 0.56628 0.82469 0.68125 0.0
O105 O 0.46228 0.7006 0.696 0.0
O106 O 0.40508 0.59206 0.76052 0.0
O107 O 0.37319 0.68532 0.76769 0.0
O108 O 0.51418 0.82481 0.77903 0.0
O109 O 0.54568 0.84298 0.73024 0.0
O110 O 0.57443 0.72498 0.78989 0.0
O111 O 0.6884 0.83969 0.77196 0.0
H112 H 0.8869 0.9507 0.64211 0.0
H113 H 0.88944 -0.00809 0.586 0.0
H114 H 0.69665 0.04138 0.60713 0.0
H115 H 0.69236 -0.00248 0.66231 0.0
H116 H 0.21628 0.57265 0.80618 0.0
H117 H 0.1914 0.54905 0.86428 0.0
H118 H 0.43141 0.58347 0.87648 0.0
H119 H 0.45409 0.60311 0.81896 0.0
C120 C 0.82493 0.78153 1.02489 0.0
Eu121 Eu 0.80491 0.65179 0.05403 0.0
C122 C 0.79999 0.7916 0.99204 0.0
C123 C 0.85739 0.8467 0.97016 0.0
C124 C 0.83649 0.84954 0.93793 0.0
C125 C 0.75752 0.79719 0.92678 0.0
C126 C 0.69964 0.74411 0.94915 0.0
C127 C 0.72064 0.74095 0.98118 0.0
C128 C 0.91252 0.59775 0.04846 0.0
C129 C 0.72341 0.50113 1.0089 0.0
C130 C 0.72822 0.35222 0.10626 0.0
Eu131 Eu 0.75691 0.49107 0.08378 0.0
C132 C 0.71468 0.32233 0.13964 0.0
C133 C 0.66969 0.34145 0.16111 0.0
C134 C 0.66759 0.32426 0.1939 0.0
C135 C 0.71127 0.28866 0.20581 0.0
C136 C 0.75364 0.26672 0.1841 0.0
C137 C 0.75529 0.28345 0.15128 0.0
C138 C 0.64374 0.5356 0.09062 0.0
C139 C 0.83394 0.64339 0.13113 0.0
O140 O 0.76745 0.74161 0.04607 0.0
O141 O 0.88067 0.76091 1.02587 0.0
O142 O 0.89404 0.62944 1.02472 0.0
O143 O 0.87372 0.59636 0.0729 0.0
O144 O 0.72246 0.5671 1.01693 0.0
O145 O 0.74798 0.46551 0.02973 0.0
O146 O 0.80106 0.41156 0.10018 0.0
O147 O 0.67219 0.36396 0.0936 0.0
O148 O 0.66752 0.50611 0.1134 0.0
O149 O 0.68426 0.54454 0.06536 0.0
O150 O 0.81874 0.5687 0.12643 0.0
O151 O 0.82812 0.68725 0.10745 0.0
H152 H 0.9192 0.88598 0.97776 0.0
H153 H 0.88302 0.89086 0.92156 0.0
H154 H 0.63774 0.70407 0.94192 0.0
H155 H 0.67485 0.69728 0.99722 0.0
H156 H 0.63875 0.37264 0.15281 0.0
H157 H 0.63517 0.34249 0.21011 0.0
H158 H 0.78728 0.2385 0.19264 0.0
H159 H 0.79094 0.26896 0.1352 0.0
C160 C 0.03432 0.82858 0.35774 0.0
Eu161 Eu 0.14633 0.81087 0.38602 0.0
C162 C -0.00238 0.80185 0.32547 0.0
C163 C 0.97488 0.84914 0.3071 0.0
C164 C 0.94597 0.82646 0.27553 0.0
C165 C 0.93958 0.75614 0.26169 0.0
C166 C 0.96322 0.7096 0.28025 0.0
C167 C -0.00863 0.7319 0.31168 0.0
C168 C 0.30702 0.92055 0.38106 0.0
C169 C 0.22086 0.73242 0.34147 0.0
C170 C 0.3709 0.7389 0.43988 0.0
Eu171 Eu 0.25996 0.76523 0.41674 0.0
C172 C 0.38702 0.72669 0.47342 0.0
C173 C 0.32282 0.68257 0.49497 0.0
C174 C 0.33762 0.68182 0.52784 0.0
C175 C 0.41669 0.726 0.53973 0.0
C176 C 0.48107 0.76765 0.51796 0.0
C177 C 0.4663 0.76796 0.48507 0.0
C178 C 0.10274 0.65073 0.42287 0.0
C179 C 0.18191 0.8412 0.46332 0.0
O180 O 0.01863 0.77156 0.37894 0.0
O181 O 0.11054 0.88441 0.35769 0.0
O182 O 0.25748 0.90195 0.35715 0.0
O183 O 0.26938 0.88117 0.40542 0.0
O184 O 0.15307 0.73074 0.34867 0.0
O185 O 0.27955 0.75711 0.3629 0.0
O186 O 0.3834 0.81127 0.4334 0.0
O187 O 0.30378 0.6819 0.42731 0.0
O188 O 0.15517 0.6744 0.44588 0.0
O189 O 0.13493 0.69125 0.39766 0.0
O190 O 0.24175 0.82626 0.45919 0.0
O191 O 0.1331 0.83486 0.43929 0.0
H192 H 0.98014 0.90396 0.31708 0.0
H193 H 0.92801 0.86359 0.2621 0.0
H194 H 0.96121 0.65619 0.27034 0.0
H195 H 0.0093 0.69474 0.32508 0.0
H196 H 0.26086 0.65126 0.48666 0.0
H197 H 0.2869 0.64992 0.54408 0.0
H198 H 0.54278 0.80162 0.52649 0.0
H199 H 0.51646 0.80303 0.46891 0.0
C200 C 0.19055 0.05109 0.68771 0.0
Eu201 Eu 0.32101 0.15855 0.71693 0.0
C202 C 0.18097 0.01257 0.65584 0.0
C203 C 0.11252 -0.00874 0.63677 0.0
C204 C 0.107 0.96061 0.60554 0.0
C205 C 0.17013 0.95108 0.59272 0.0
C206 C 0.2387 0.97325 0.612 0.0
C207 C 0.24378 0.00304 0.6431 0.0
C208 C 0.37883 0.32111 0.71264 0.0
C209 C 0.47645 0.22598 0.67401 0.0
C210 C 0.61535 0.36897 0.77419 0.0
Eu211 Eu 0.47785 0.2648 0.74915 0.0
C212 C 0.63378 0.39296 0.80802 0.0
C213 C 0.70571 0.4045 0.82183 0.0
C214 C 0.71853 0.41763 0.85497 0.0
C215 C 0.65928 0.419 0.87466 0.0
C216 C 0.58734 0.40731 0.86061 0.0
C217 C 0.57484 0.39465 0.82767 0.0
C218 C 0.42816 0.1055 0.75476 0.0
C219 C 0.32063 0.19853 0.79326 0.0
O220 O 0.2273 0.03259 0.70996 0.0
O221 O 0.21587 0.12854 0.6869 0.0
O222 O 0.34898 0.27289 0.6883 0.0
O223 O 0.37625 0.2814 0.73697 0.0
O224 O 0.40758 0.16044 0.68047 0.0
O225 O 0.5116 0.28351 0.69579 0.0
O226 O 0.56762 0.3898 0.75976 0.0
O227 O 0.59556 0.29416 0.76837 0.0
O228 O 0.45288 0.15615 0.77844 0.0
O229 O 0.42439 0.14002 0.7294 0.0
O230 O 0.39521 0.25836 0.78886 0.0
O231 O 0.28117 0.14553 0.76999 0.0
H232 H 0.06366 -0.00103 0.64592 0.0
H233 H 0.05309 0.94387 0.59157 0.0
H234 H 0.28955 0.96893 0.6029 0.0
H235 H 0.29763 0.01969 0.65707 0.0
H236 H 0.75123 0.402 0.80709 0.0
H237 H 0.77488 0.42732 0.8651 0.0
H238 H 0.53998 0.40677 0.87516 0.0
H239 H 0.51819 0.38451 0.8177 0.0
C240 C 0.30705 0.73695 0.29478 0.0
C241 C 0.23052 0.71159 0.30821 0.0
H242 H 0.37425 0.74821 0.25166 0.0
C243 C 0.16181 0.6724 0.28852 0.0
H244 H 0.361 0.76765 0.30938 0.0
C245 C 0.16941 0.66239 0.25583 0.0
C246 C 0.24585 0.69077 0.24198 0.0
H247 H 0.10179 0.6509 0.29817 0.0
H248 H 0.11524 0.63287 0.24127 0.0
C249 C 0.31463 0.72628 0.26182 0.0
C250 C 0.56107 0.31143 0.62781 0.0
C251 C 0.50861 0.23503 0.64108 0.0
H252 H 0.61775 0.37874 0.58478 0.0
C253 C 0.4784 0.16635 0.62133 0.0
H254 H 0.58479 0.36535 0.64247 0.0
C255 C 0.4962 0.17403 0.58865 0.0
C256 C 0.54506 0.25052 0.57491 0.0
H257 H 0.4388 0.10642 0.63092 0.0
H258 H 0.47075 0.11997 0.57398 0.0
C259 C 0.57942 0.3191 0.59486 0.0
C260 C 0.30605 0.482 0.95781 0.0
C261 C 0.26284 0.51023 0.9758 0.0
H262 H 0.35223 0.47488 0.91208 0.0
C263 C 0.23833 0.56052 0.96092 0.0
H264 H 0.32591 0.4431 0.96857 0.0
C265 C 0.25423 0.57948 0.92814 0.0
C266 C 0.29511 0.54864 0.90997 0.0
H267 H 0.20433 0.58246 0.97421 0.0
H268 H 0.23393 0.61751 0.91696 0.0
C269 C 0.32162 0.50058 0.92535 0.0
C270 C 0.65811 0.23825 0.2943 0.0
C271 C 0.73414 0.25981 0.30723 0.0
H272 H 0.59084 0.22971 0.25162 0.0
C273 C 0.80226 0.29478 0.28694 0.0
H274 H 0.60456 0.21068 0.30933 0.0
C275 C 0.79436 0.30461 0.25425 0.0
C276 C 0.71823 0.2802 0.24093 0.0
H277 H 0.86198 0.31291 0.29613 0.0
H278 H 0.8481 0.33102 0.2393 0.0
C279 C 0.65026 0.24867 0.26133 0.0
C280 C 0.50175 0.81781 0.62068 0.0
C281 C 0.46816 0.74979 0.64106 0.0
H282 H 0.51142 0.86333 0.57296 0.0
C283 C 0.41325 0.67378 0.62827 0.0
H284 H 0.54367 0.87749 0.6298 0.0
C285 C 0.39503 0.66573 0.59535 0.0
C286 C 0.43184 0.73351 0.57483 0.0
H287 H 0.38694 0.6203 0.64338 0.0
H288 H 0.35437 0.60626 0.58576 0.0
C289 C 0.4839 0.80974 0.58801 0.0
C290 C 0.66368 0.50546 0.95658 0.0
C291 C 0.70091 0.47234 0.97559 0.0
H292 H 0.62371 0.51641 0.91002 0.0
C293 C 0.72227 0.41883 0.96149 0.0
H294 H 0.64641 0.547 0.96663 0.0
C295 C 0.70845 0.40066 0.92863 0.0
C296 C 0.67285 0.43557 0.90958 0.0
H297 H 0.75159 0.39298 0.97555 0.0
H298 H 0.72575 0.35961 0.91813 0.0
C299 C 0.65019 0.48762 0.92404 0.0
C300 C 0.43149 0.46381 0.11857 0.0
C301 C 0.38991 0.4496 0.08934 0.0
H302 H 0.54519 0.50497 0.14175 0.0
C303 C 0.43317 0.46734 0.06024 0.0
H304 H 0.39968 0.45154 0.14133 0.0
C305 C 0.51691 0.49956 0.06049 0.0
C306 C 0.55827 0.51365 0.08984 0.0
H307 H 0.40272 0.45813 0.03735 0.0
H308 H 0.54888 0.51178 0.03778 0.0
C309 C 0.51481 0.49554 0.11882 0.0
C310 C 0.00981 0.52457 0.39288 0.0
C311 C 0.03785 0.56588 0.42217 0.0
H312 H 0.93431 0.41076 0.3699 0.0
C313 C 0.01111 0.52285 0.45122 0.0
H314 H 0.03052 0.55624 0.37014 0.0
C315 C 0.95729 0.43995 0.45109 0.0
C316 C 0.9292 0.39842 0.42191 0.0
H317 H 0.03253 0.55321 0.47411 0.0
H318 H 0.93673 0.40845 0.47388 0.0
C319 C 0.95611 0.44122 0.39275 0.0
C320 C 0.46859 0.01702 0.72522 0.0
C321 C 0.45064 0.04216 0.75432 0.0
H322 H 0.514 0.94661 0.70273 0.0
C323 C 0.46545 0.01494 0.78354 0.0
H324 H 0.45887 0.03812 0.70234 0.0
C325 C 0.49809 0.964 0.78377 0.0
C326 C 0.51638 0.93897 0.75479 0.0
H327 H 0.45294 0.0341 0.80631 0.0
H328 H 0.50806 0.94332 0.80671 0.0
C329 C 0.50157 0.96602 0.72545 0.0
C330 C 0.51558 0.53325 0.74064 0.0
C331 C 0.54359 0.57666 0.71177 0.0
H332 H 0.43807 0.42033 0.76325 0.0
C333 C 0.51572 0.53569 0.68235 0.0
H334 H 0.53604 0.56308 0.76369 0.0
C335 C 0.4601 0.45218 0.68208 0.0
C336 C 0.43153 0.4096 0.71124 0.0
H337 H 0.53601 0.56814 0.65976 0.0
H338 H 0.44018 0.42102 0.65929 0.0
C339 C 0.45905 0.45138 0.74038 0.0
C340 C -0.00746 0.46491 1.01574 0.0
C341 C 0.00701 0.43609 0.04472 0.0
H342 H 0.951 0.54026 0.99394 0.0
C343 C -0.00752 0.46288 0.07402 0.0
H344 H 0.00394 0.44552 0.99282 0.0
C345 C 0.9664 0.51886 0.07465 0.0
C346 C 0.95024 0.54688 0.046 0.0
H347 H 0.0025 0.44141 0.09677 0.0
H348 H 0.95699 0.53884 0.09783 0.0
C349 C 0.96372 0.5199 1.01638 0.0
C350 C 0.43631 0.97147 0.34919 0.0
C351 C 0.39548 0.95844 0.37873 0.0
H352 H 0.55111 0.01122 0.32586 0.0
C353 C 0.43906 0.97474 0.40746 0.0
H354 H 0.40365 0.9586 0.32669 0.0
C355 C 0.52085 0.00022 0.40701 0.0
C356 C 0.56259 0.01442 0.3778 0.0
H357 H 0.40934 0.96569 0.43058 0.0
H358 H 0.55185 0.01018 0.42983 0.0
C359 C 0.51996 0.0 0.34872 0.0
C360 C 0.22163 0.11995 0.83791 0.0
C361 C 0.28265 0.19352 0.82511 0.0
H362 H 0.14873 0.05796 0.87911 0.0
C363 C 0.3123 0.26349 0.84412 0.0
H364 H 0.19783 0.06492 0.82394 0.0
C365 C 0.28366 0.25996 0.87536 0.0
C366 C 0.22527 0.186 0.88898 0.0
H367 H 0.35847 0.32154 0.83492 0.0
H368 H 0.30784 0.31569 0.88887 0.0
C369 C 0.19352 0.11613 0.86957 0.0
C370 C 0.00636 0.2813 0.20912 0.0
C371 C 0.0162 0.21785 0.2211 0.0
H372 H 0.02654 0.36298 0.1704 0.0
C373 C 0.05347 0.18606 0.20128 0.0
H374 H 0.97865 0.30777 0.22378 0.0
C375 C 0.08052 0.21749 0.1702 0.0
C376 C 0.07222 0.28231 0.15869 0.0
H377 H 0.06146 0.13682 0.20976 0.0
H378 H 0.10975 0.19257 0.15558 0.0
C379 C 0.03432 0.3133 0.1785 0.0
C380 C 0.7147 0.0187 0.54272 0.0
C381 C 0.78939 0.0396 0.557 0.0
H382 H 0.65216 0.0266 0.50151 0.0
C383 C 0.85988 0.08123 0.53804 0.0
H384 H 0.65872 0.98429 0.55592 0.0
C385 C 0.85578 0.10412 0.50617 0.0
C386 C 0.78124 0.08659 0.49276 0.0
H387 H 0.91855 0.09856 0.54811 0.0
H388 H 0.91112 0.13833 0.49254 0.0
C389 C 0.71081 0.04241 0.51127 0.0
C390 C 0.7426 0.86339 0.84083 0.0
C391 C 0.68403 0.78992 0.82721 0.0
H392 H 0.8106 0.92417 0.88307 0.0
C393 C 0.65407 0.7191 0.84588 0.0
H394 H 0.76659 0.91907 0.82717 0.0
C395 C 0.67966 0.72164 0.87755 0.0
C396 C 0.73532 0.79535 0.89197 0.0
H397 H 0.6098 0.6611 0.83608 0.0
H398 H 0.65516 0.66531 0.89078 0.0
C399 C 0.76775 0.86615 0.87292 0.0
C400 C 0.92763 0.78563 0.20276 0.0
C401 C 0.90791 0.72988 0.22829 0.0
H402 H 0.91972 0.80263 0.15185 0.0
C403 C 0.85934 0.64712 0.22151 0.0
H404 H 0.96508 0.84987 0.20702 0.0
C405 C 0.83456 0.62045 0.19016 0.0
C406 C 0.85656 0.67553 0.16442 0.0
H407 H 0.84065 0.60232 0.24049 0.0
H408 H 0.79823 0.55593 0.18611 0.0
C409 C 0.9019 0.75869 0.17112 0.0
C410 C 0.13184 0.93817 0.53345 0.0
C411 C 0.16571 0.91809 0.5596 0.0
H412 H 0.10973 0.92953 0.48234 0.0
C413 C 0.19884 0.86804 0.55371 0.0
H414 H 0.10597 0.97678 0.53697 0.0
C415 C 0.20196 0.8423 0.52262 0.0
C416 C 0.17103 0.86464 0.49629 0.0
H417 H 0.22324 0.84898 0.57318 0.0
H418 H 0.22939 0.80497 0.51923 0.0
C419 C 0.13414 0.91136 0.5021 0.0
loop_
_geom_bond_atom_site_label_1
_geom_bond_atom_site_label_2
_geom_bond_distance
_geom_bond_site_symmetry_2
_ccdc_geom_bond_type
C0 Eu1 2.835 1_556 S
C0 C2 1.500 . S
C0 O20 1.257 . S
C0 O21 1.260 . S
Eu1 C0 2.835 1_554 S
Eu1 O20 2.473 1_554 S
Eu1 O21 2.480 1_554 S
Eu1 O22 2.430 . S
Eu1 O23 2.670 . S
Eu1 O24 2.394 1_554 S
Eu1 O29 2.355 . S
Eu1 O31 2.374 . S
C2 C0 1.500 . S
C2 C3 1.377 . S
C2 C7 1.377 . S
C3 C2 1.377 . S
C3 C4 1.395 . S
C3 H32 0.931 . S
C4 C3 1.395 . S
C4 C5 1.383 . S
C4 H33 0.931 . S
C5 C4 1.383 . S
C5 C6 1.394 . S
C6 C5 1.394 . S
C6 C7 1.378 . S
C6 H34 0.931 . S
C7 C2 1.377 . S
C7 C6 1.378 . S
C7 H35 0.931 . S
C8 O22 1.259 . S
C8 O23 1.270 . S
C9 O24 1.251 . S
C9 O25 1.251 1_556 S
C10 Eu11 2.835 . S
C10 C12 1.500 . S
C10 O26 1.257 . S
C10 O27 1.260 . S
Eu11 C10 2.835 . S
Eu11 O23 2.355 . S
Eu11 O25 2.374 . S
Eu11 O26 2.473 . S
Eu11 O27 2.480 . S
Eu11 O28 2.430 . S
Eu11 O29 2.670 . S
Eu11 O30 2.394 . S
C12 C10 1.500 . S
C12 C13 1.377 . S
C12 C17 1.377 . S
C13 C12 1.377 . S
C13 C14 1.395 . S
C13 H36 0.931 . S
C14 C13 1.395 . S
C14 C15 1.383 . S
C14 H37 0.931 . S
C15 C14 1.383 . S
C15 C16 1.394 . S
C16 C15 1.394 . S
C16 C17 1.378 . S
C16 H38 0.931 . S
C17 C12 1.377 . S
C17 C16 1.378 . S
C17 H39 0.931 . S
C18 O28 1.259 . S
C18 O29 1.270 . S
C19 O30 1.251 . S
C19 O31 1.251 . S
O20 C0 1.257 . S
O20 Eu1 2.473 1_556 S
O21 C0 1.260 . S
O21 Eu1 2.480 1_556 S
O22 Eu1 2.430 . S
O22 C8 1.259 . S
O23 Eu1 2.670 . S
O23 C8 1.270 . S
O23 Eu11 2.355 . S
O24 Eu1 2.394 1_556 S
O24 C9 1.251 . S
O25 C9 1.251 1_554 S
O25 Eu11 2.374 . S
O26 C10 1.257 . S
O26 Eu11 2.473 . S
O27 C10 1.260 . S
O27 Eu11 2.480 . S
O28 Eu11 2.430 . S
O28 C18 1.259 . S
O29 Eu1 2.355 . S
O29 Eu11 2.670 . S
O29 C18 1.270 . S
O30 Eu11 2.394 . S
O30 C19 1.251 . S
O31 Eu1 2.374 . S
O31 C19 1.251 . S
H32 C3 0.931 . S
H33 C4 0.931 . S
H34 C6 0.931 . S
H35 C7 0.931 . S
H36 C13 0.931 . S
H37 C14 0.931 . S
H38 C16 0.931 . S
H39 C17 0.931 . S
C40 Eu41 2.835 . S
C40 C42 1.500 . S
C40 O60 1.257 . S
C40 O61 1.260 . S
Eu41 C40 2.835 . S
Eu41 O60 2.473 . S
Eu41 O61 2.480 . S
Eu41 O62 2.430 . S
Eu41 O63 2.670 . S
Eu41 O64 2.394 . S
Eu41 O69 2.355 . S
Eu41 O71 2.374 . S
C42 C40 1.500 . S
C42 C43 1.377 . S
C42 C47 1.377 1_655 S
C43 C42 1.377 . S
C43 C44 1.395 . S
C43 H72 0.931 . S
C44 C43 1.395 . S
C44 C45 1.383 1_655 S
C44 H73 0.931 . S
C45 C44 1.383 1_455 S
C45 C46 1.394 . S
C46 C45 1.394 . S
C46 C47 1.378 . S
C46 H74 0.931 . S
C47 C42 1.377 1_455 S
C47 C46 1.378 . S
C47 H75 0.931 . S
C48 O62 1.259 . S
C48 O63 1.270 . S
C49 O64 1.251 . S
C49 O65 1.251 . S
C50 Eu51 2.835 . S
C50 C52 1.500 . S
C50 O66 1.257 . S
C50 O67 1.260 . S
Eu51 C50 2.835 . S
Eu51 O63 2.355 . S
Eu51 O65 2.374 . S
Eu51 O66 2.473 . S
Eu51 O67 2.480 . S
Eu51 O68 2.430 . S
Eu51 O69 2.670 . S
Eu51 O70 2.394 . S
C52 C50 1.500 . S
C52 C53 1.377 . S
C52 C57 1.377 . S
C53 C52 1.377 . S
C53 C54 1.395 . S
C53 H76 0.931 . S
C54 C53 1.395 . S
C54 C55 1.383 . S
C54 H77 0.931 . S
C55 C54 1.383 . S
C55 C56 1.394 . S
C56 C55 1.394 . S
C56 C57 1.378 . S
C56 H78 0.931 . S
C57 C52 1.377 . S
C57 C56 1.378 . S
C57 H79 0.931 . S
C58 O68 1.259 . S
C58 O69 1.270 . S
C59 O70 1.251 . S
C59 O71 1.251 . S
O60 C40 1.257 . S
O60 Eu41 2.473 . S
O61 C40 1.260 . S
O61 Eu41 2.480 . S
O62 Eu41 2.430 . S
O62 C48 1.259 . S
O63 Eu41 2.670 . S
O63 C48 1.270 . S
O63 Eu51 2.355 . S
O64 Eu41 2.394 . S
O64 C49 1.251 . S
O65 C49 1.251 . S
O65 Eu51 2.374 . S
O66 C50 1.257 . S
O66 Eu51 2.473 . S
O67 C50 1.260 . S
O67 Eu51 2.480 . S
O68 Eu51 2.430 . S
O68 C58 1.259 . S
O69 Eu41 2.355 . S
O69 Eu51 2.670 . S
O69 C58 1.270 . S
O70 Eu51 2.394 . S
O70 C59 1.251 . S
O71 Eu41 2.374 . S
O71 C59 1.251 . S
H72 C43 0.931 . S
H73 C44 0.931 . S
H74 C46 0.931 . S
H75 C47 0.931 . S
H76 C53 0.931 . S
H77 C54 0.931 . S
H78 C56 0.931 . S
H79 C57 0.931 . S
C80 Eu81 2.835 . S
C80 C82 1.500 . S
C80 O100 1.257 . S
C80 O101 1.260 . S
Eu81 C80 2.835 . S
Eu81 O100 2.473 . S
Eu81 O101 2.480 . S
Eu81 O102 2.430 . S
Eu81 O103 2.670 . S
Eu81 O104 2.394 . S
Eu81 O109 2.355 . S
Eu81 O111 2.374 . S
C82 C80 1.500 . S
C82 C83 1.377 . S
C82 C87 1.377 1_565 S
C83 C82 1.377 . S
C83 C84 1.395 . S
C83 H112 0.931 . S
C84 C83 1.395 . S
C84 C85 1.383 1_565 S
C84 H113 0.931 . S
C85 C84 1.383 1_545 S
C85 C86 1.394 . S
C86 C85 1.394 . S
C86 C87 1.378 . S
C86 H114 0.931 . S
C87 C82 1.377 1_545 S
C87 C86 1.378 . S
C87 H115 0.931 . S
C88 O102 1.259 . S
C88 O103 1.270 . S
C89 O104 1.251 . S
C89 O105 1.251 . S
C90 Eu91 2.835 . S
C90 C92 1.500 . S
C90 O106 1.257 . S
C90 O107 1.260 . S
Eu91 C90 2.835 . S
Eu91 O103 2.355 . S
Eu91 O105 2.374 . S
Eu91 O106 2.473 . S
Eu91 O107 2.480 . S
Eu91 O108 2.430 . S
Eu91 O109 2.670 . S
Eu91 O110 2.394 . S
C92 C90 1.500 . S
C92 C93 1.377 . S
C92 C97 1.377 . S
C93 C92 1.377 . S
C93 C94 1.395 . S
C93 H116 0.931 . S
C94 C93 1.395 . S
C94 C95 1.383 . S
C94 H117 0.931 . S
C95 C94 1.383 . S
C95 C96 1.394 . S
C96 C95 1.394 . S
C96 C97 1.378 . S
C96 H118 0.931 . S
C97 C92 1.377 . S
C97 C96 1.378 . S
C97 H119 0.931 . S
C98 O108 1.259 . S
C98 O109 1.270 . S
C99 O110 1.251 . S
C99 O111 1.251 . S
O100 C80 1.257 . S
O100 Eu81 2.473 . S
O101 C80 1.260 . S
O101 Eu81 2.480 . S
O102 Eu81 2.430 . S
O102 C88 1.259 . S
O103 Eu81 2.670 . S
O103 C88 1.270 . S
O103 Eu91 2.355 . S
O104 Eu81 2.394 . S
O104 C89 1.251 . S
O105 C89 1.251 . S
O105 Eu91 2.374 . S
O106 C90 1.257 . S
O106 Eu91 2.473 . S
O107 C90 1.260 . S
O107 Eu91 2.480 . S
O108 Eu91 2.430 . S
O108 C98 1.259 . S
O109 Eu81 2.355 . S
O109 Eu91 2.670 . S
O109 C98 1.270 . S
O110 Eu91 2.394 . S
O110 C99 1.251 . S
O111 Eu81 2.374 . S
O111 C99 1.251 . S
H112 C83 0.931 . S
H113 C84 0.931 . S
H114 C86 0.931 . S
H115 C87 0.931 . S
H116 C93 0.931 . S
H117 C94 0.931 . S
H118 C96 0.931 . S
H119 C97 0.931 . S
C120 Eu121 2.835 1_556 S
C120 C122 1.500 . S
C120 O140 1.257 . S
C120 O141 1.260 . S
Eu121 C120 2.835 1_554 S
Eu121 O140 2.473 1_554 S
Eu121 O141 2.480 1_554 S
Eu121 O142 2.430 . S
Eu121 O143 2.670 . S
Eu121 O144 2.394 1_554 S
Eu121 O149 2.355 . S
Eu121 O151 2.374 . S
C122 C120 1.500 . S
C122 C123 1.377 . S
C122 C127 1.377 . S
C123 C122 1.377 . S
C123 C124 1.395 . S
C123 H152 0.931 . S
C124 C123 1.395 . S
C124 C125 1.383 . S
C124 H153 0.931 . S
C125 C124 1.383 . S
C125 C126 1.394 . S
C126 C125 1.394 . S
C126 C127 1.378 . S
C126 H154 0.931 . S
C127 C122 1.377 . S
C127 C126 1.378 . S
C127 H155 0.931 . S
C128 O142 1.259 . S
C128 O143 1.270 . S
C129 O144 1.251 . S
C129 O145 1.251 1_556 S
C130 Eu131 2.835 . S
C130 C132 1.500 . S
C130 O146 1.257 . S
C130 O147 1.260 . S
Eu131 C130 2.835 . S
Eu131 O143 2.355 . S
Eu131 O145 2.374 . S
Eu131 O146 2.473 . S
Eu131 O147 2.480 . S
Eu131 O148 2.430 . S
Eu131 O149 2.670 . S
Eu131 O150 2.394 . S
C132 C130 1.500 . S
C132 C133 1.377 . S
C132 C137 1.377 . S
C133 C132 1.377 . S
C133 C134 1.395 . S
C133 H156 0.931 . S
C134 C133 1.395 . S
C134 C135 1.383 . S
C134 H157 0.931 . S
C135 C134 1.383 . S
C135 C136 1.394 . S
C136 C135 1.394 . S
C136 C137 1.378 . S
C136 H158 0.931 . S
C137 C132 1.377 . S
C137 C136 1.378 . S
C137 H159 0.931 . S
C138 O148 1.259 . S
C138 O149 1.270 . S
C139 O150 1.251 . S
C139 O151 1.251 . S
O140 C120 1.257 . S
O140 Eu121 2.473 1_556 S
O141 C120 1.260 . S
O141 Eu121 2.480 1_556 S
O142 Eu121 2.430 . S
O142 C128 1.259 . S
O143 Eu121 2.670 . S
O143 C128 1.270 . S
O143 Eu131 2.355 . S
O144 Eu121 2.394 1_556 S
O144 C129 1.251 . S
O145 C129 1.251 1_554 S
O145 Eu131 2.374 . S
O146 C130 1.257 . S
O146 Eu131 2.473 . S
O147 C130 1.260 . S
O147 Eu131 2.480 . S
O148 Eu131 2.430 . S
O148 C138 1.259 . S
O149 Eu121 2.355 . S
O149 Eu131 2.670 . S
O149 C138 1.270 . S
O150 Eu131 2.394 . S
O150 C139 1.251 . S
O151 Eu121 2.374 . S
O151 C139 1.251 . S
H152 C123 0.931 . S
H153 C124 0.931 . S
H154 C126 0.931 . S
H155 C127 0.931 . S
H156 C133 0.931 . S
H157 C134 0.931 . S
H158 C136 0.931 . S
H159 C137 0.931 . S
C160 Eu161 2.835 . S
C160 C162 1.500 . S
C160 O180 1.257 . S
C160 O181 1.260 . S
Eu161 C160 2.835 . S
Eu161 O180 2.473 . S
Eu161 O181 2.480 . S
Eu161 O182 2.430 . S
Eu161 O183 2.670 . S
Eu161 O184 2.394 . S
Eu161 O189 2.355 . S
Eu161 O191 2.374 . S
C162 C160 1.500 . S
C162 C163 1.377 . S
C162 C167 1.377 1_455 S
C163 C162 1.377 . S
C163 C164 1.395 . S
C163 H192 0.931 . S
C164 C163 1.395 . S
C164 C165 1.383 1_455 S
C164 H193 0.931 . S
C165 C164 1.383 1_655 S
C165 C166 1.394 . S
C166 C165 1.394 . S
C166 C167 1.378 . S
C166 H194 0.931 . S
C167 C162 1.377 1_655 S
C167 C166 1.378 . S
C167 H195 0.931 . S
C168 O182 1.259 . S
C168 O183 1.270 . S
C169 O184 1.251 . S
C169 O185 1.251 . S
C170 Eu171 2.835 . S
C170 C172 1.500 . S
C170 O186 1.257 . S
C170 O187 1.260 . S
Eu171 C170 2.835 . S
Eu171 O183 2.355 . S
Eu171 O185 2.374 . S
Eu171 O186 2.473 . S
Eu171 O187 2.480 . S
Eu171 O188 2.430 . S
Eu171 O189 2.670 . S
Eu171 O190 2.394 . S
C172 C170 1.500 . S
C172 C173 1.377 . S
C172 C177 1.377 . S
C173 C172 1.377 . S
C173 C174 1.395 . S
C173 H196 0.931 . S
C174 C173 1.395 . S
C174 C175 1.383 . S
C174 H197 0.931 . S
C175 C174 1.383 . S
C175 C176 1.394 . S
C176 C175 1.394 . S
C176 C177 1.378 . S
C176 H198 0.931 . S
C177 C172 1.377 . S
C177 C176 1.378 . S
C177 H199 0.931 . S
C178 O188 1.259 . S
C178 O189 1.270 . S
C179 O190 1.251 . S
C179 O191 1.251 . S
O180 C160 1.257 . S
O180 Eu161 2.473 . S
O181 C160 1.260 . S
O181 Eu161 2.480 . S
O182 Eu161 2.430 . S
O182 C168 1.259 . S
O183 Eu161 2.670 . S
O183 C168 1.270 . S
O183 Eu171 2.355 . S
O184 Eu161 2.394 . S
O184 C169 1.251 . S
O185 C169 1.251 . S
O185 Eu171 2.374 . S
O186 C170 1.257 . S
O186 Eu171 2.473 . S
O187 C170 1.260 . S
O187 Eu171 2.480 . S
O188 Eu171 2.430 . S
O188 C178 1.259 . S
O189 Eu161 2.355 . S
O189 Eu171 2.670 . S
O189 C178 1.270 . S
O190 Eu171 2.394 . S
O190 C179 1.251 . S
O191 Eu161 2.374 . S
O191 C179 1.251 . S
H192 C163 0.931 . S
H193 C164 0.931 . S
H194 C166 0.931 . S
H195 C167 0.931 . S
H196 C173 0.931 . S
H197 C174 0.931 . S
H198 C176 0.931 . S
H199 C177 0.931 . S
C200 Eu201 2.835 . S
C200 C202 1.500 . S
C200 O220 1.257 . S
C200 O221 1.260 . S
Eu201 C200 2.835 . S
Eu201 O220 2.473 . S
Eu201 O221 2.480 . S
Eu201 O222 2.430 . S
Eu201 O223 2.670 . S
Eu201 O224 2.394 . S
Eu201 O229 2.355 . S
Eu201 O231 2.374 . S
C202 C200 1.500 . S
C202 C203 1.377 . S
C202 C207 1.377 1_545 S
C203 C202 1.377 . S
C203 C204 1.395 . S
C203 H232 0.931 . S
C204 C203 1.395 . S
C204 C205 1.383 1_545 S
C204 H233 0.931 . S
C205 C204 1.383 1_565 S
C205 C206 1.394 . S
C206 C205 1.394 . S
C206 C207 1.378 . S
C206 H234 0.931 . S
C207 C202 1.377 1_565 S
C207 C206 1.378 . S
C207 H235 0.931 . S
C208 O222 1.259 . S
C208 O223 1.270 . S
C209 O224 1.251 . S
C209 O225 1.251 . S
C210 Eu211 2.835 . S
C210 C212 1.500 . S
C210 O226 1.257 . S
C210 O227 1.260 . S
Eu211 C210 2.835 . S
Eu211 O223 2.355 . S
Eu211 O225 2.374 . S
Eu211 O226 2.473 . S
Eu211 O227 2.480 . S
Eu211 O228 2.430 . S
Eu211 O229 2.670 . S
Eu211 O230 2.394 . S
C212 C210 1.500 . S
C212 C213 1.377 . S
C212 C217 1.377 . S
C213 C212 1.377 . S
C213 C214 1.395 . S
C213 H236 0.931 . S
C214 C213 1.395 . S
C214 C215 1.383 . S
C214 H237 0.931 . S
C215 C214 1.383 . S
C215 C216 1.394 . S
C216 C215 1.394 . S
C216 C217 1.378 . S
C216 H238 0.931 . S
C217 C212 1.377 . S
C217 C216 1.378 . S
C217 H239 0.931 . S
C218 O228 1.259 . S
C218 O229 1.270 . S
C219 O230 1.251 . S
C219 O231 1.251 . S
O220 C200 1.257 . S
O220 Eu201 2.473 . S
O221 C200 1.260 . S
O221 Eu201 2.480 . S
O222 Eu201 2.430 . S
O222 C208 1.259 . S
O223 Eu201 2.670 . S
O223 C208 1.270 . S
O223 Eu211 2.355 . S
O224 Eu201 2.394 . S
O224 C209 1.251 . S
O225 C209 1.251 . S
O225 Eu211 2.374 . S
O226 C210 1.257 . S
O226 Eu211 2.473 . S
O227 C210 1.260 . S
O227 Eu211 2.480 . S
O228 Eu211 2.430 . S
O228 C218 1.259 . S
O229 Eu201 2.355 . S
O229 Eu211 2.670 . S
O229 C218 1.270 . S
O230 Eu211 2.394 . S
O230 C219 1.251 . S
O231 Eu201 2.374 . S
O231 C219 1.251 . S
H232 C203 0.931 . S
H233 C204 0.931 . S
H234 C206 0.931 . S
H235 C207 0.931 . S
H236 C213 0.931 . S
H237 C214 0.931 . S
H238 C216 0.931 . S
H239 C217 0.931 . S
C240 C241 1.387 . S
C240 H244 0.950 . S
C240 C249 1.390 . S
C241 C240 1.387 . S
C241 C243 1.387 . S
H242 C249 0.950 . S
C243 C241 1.387 . S
C243 C245 1.390 . S
C243 H247 0.950 . S
H244 C240 0.950 . S
C245 C243 1.390 . S
C245 C246 1.387 . S
C245 H248 0.950 . S
C246 C245 1.387 . S
C246 C249 1.387 . S
H247 C243 0.950 . S
H248 C245 0.950 . S
C249 C240 1.390 . S
C249 H242 0.950 . S
C249 C246 1.387 . S
C250 C251 1.387 . S
C250 H254 0.950 . S
C250 C259 1.390 . S
C251 C250 1.387 . S
C251 C253 1.387 . S
H252 C259 0.950 . S
C253 C251 1.387 . S
C253 C255 1.390 . S
C253 H257 0.950 . S
H254 C250 0.950 . S
C255 C253 1.390 . S
C255 C256 1.387 . S
C255 H258 0.950 . S
C256 C255 1.387 . S
C256 C259 1.387 . S
H257 C253 0.950 . S
H258 C255 0.950 . S
C259 C250 1.390 . S
C259 H252 0.950 . S
C259 C256 1.387 . S
C260 C261 1.387 . S
C260 H264 0.950 . S
C260 C269 1.390 . S
C261 C260 1.387 . S
C261 C263 1.387 . S
H262 C269 0.950 . S
C263 C261 1.387 . S
C263 C265 1.390 . S
C263 H267 0.950 . S
H264 C260 0.950 . S
C265 C263 1.390 . S
C265 C266 1.387 . S
C265 H268 0.950 . S
C266 C265 1.387 . S
C266 C269 1.387 . S
H267 C263 0.950 . S
H268 C265 0.950 . S
C269 C260 1.390 . S
C269 H262 0.950 . S
C269 C266 1.387 . S
C270 C271 1.387 . S
C270 H274 0.950 . S
C270 C279 1.390 . S
C271 C270 1.387 . S
C271 C273 1.387 . S
H272 C279 0.950 . S
C273 C271 1.387 . S
C273 C275 1.390 . S
C273 H277 0.950 . S
H274 C270 0.950 . S
C275 C273 1.390 . S
C275 C276 1.387 . S
C275 H278 0.950 . S
C276 C275 1.387 . S
C276 C279 1.387 . S
H277 C273 0.950 . S
H278 C275 0.950 . S
C279 C270 1.390 . S
C279 H272 0.950 . S
C279 C276 1.387 . S
C280 C281 1.387 . S
C280 H284 0.950 . S
C280 C289 1.390 . S
C281 C280 1.387 . S
C281 C283 1.387 . S
H282 C289 0.950 . S
C283 C281 1.387 . S
C283 C285 1.390 . S
C283 H287 0.950 . S
H284 C280 0.950 . S
C285 C283 1.390 . S
C285 C286 1.387 . S
C285 H288 0.950 . S
C286 C285 1.387 . S
C286 C289 1.387 . S
H287 C283 0.950 . S
H288 C285 0.950 . S
C289 C280 1.390 . S
C289 H282 0.950 . S
C289 C286 1.387 . S
C290 C291 1.387 . S
C290 H294 0.950 . S
C290 C299 1.390 . S
C291 C290 1.387 . S
C291 C293 1.387 . S
H292 C299 0.950 . S
C293 C291 1.387 . S
C293 C295 1.390 . S
C293 H297 0.950 . S
H294 C290 0.950 . S
C295 C293 1.390 . S
C295 C296 1.387 . S
C295 H298 0.950 . S
C296 C295 1.387 . S
C296 C299 1.387 . S
H297 C293 0.950 . S
H298 C295 0.950 . S
C299 C290 1.390 . S
C299 H292 0.950 . S
C299 C296 1.387 . S
C300 C301 1.387 . S
C300 H304 0.950 . S
C300 C309 1.390 . S
C301 C300 1.387 . S
C301 C303 1.387 . S
H302 C309 0.950 . S
C303 C301 1.387 . S
C303 C305 1.390 . S
C303 H307 0.950 . S
H304 C300 0.950 . S
C305 C303 1.390 . S
C305 C306 1.387 . S
C305 H308 0.950 . S
C306 C305 1.387 . S
C306 C309 1.387 . S
H307 C303 0.950 . S
H308 C305 0.950 . S
C309 C300 1.390 . S
C309 H302 0.950 . S
C309 C306 1.387 . S
C310 C311 1.387 . S
C310 H314 0.950 . S
C310 C319 1.390 1_455 S
C311 C310 1.387 . S
C311 C313 1.387 . S
H312 C319 0.950 . S
C313 C311 1.387 . S
C313 C315 1.390 1_455 S
C313 H317 0.950 . S
H314 C310 0.950 . S
C315 C313 1.390 1_655 S
C315 C316 1.387 . S
C315 H318 0.950 . S
C316 C315 1.387 . S
C316 C319 1.387 . S
H317 C313 0.950 . S
H318 C315 0.950 . S
C319 C310 1.390 1_655 S
C319 H312 0.950 . S
C319 C316 1.387 . S
C320 C321 1.387 . S
C320 H324 0.950 . S
C320 C329 1.390 1_545 S
C321 C320 1.387 . S
C321 C323 1.387 . S
H322 C329 0.950 . S
C323 C321 1.387 . S
C323 C325 1.390 1_545 S
C323 H327 0.950 . S
H324 C320 0.950 . S
C325 C323 1.390 1_565 S
C325 C326 1.387 . S
C325 H328 0.950 . S
C326 C325 1.387 . S
C326 C329 1.387 . S
H327 C323 0.950 . S
H328 C325 0.950 . S
C329 C320 1.390 1_565 S
C329 H322 0.950 . S
C329 C326 1.387 . S
C330 C331 1.387 . S
C330 H334 0.950 . S
C330 C339 1.390 . S
C331 C330 1.387 . S
C331 C333 1.387 . S
H332 C339 0.950 . S
C333 C331 1.387 . S
C333 C335 1.390 . S
C333 H337 0.950 . S
H334 C330 0.950 . S
C335 C333 1.390 . S
C335 C336 1.387 . S
C335 H338 0.950 . S
C336 C335 1.387 . S
C336 C339 1.387 . S
H337 C333 0.950 . S
H338 C335 0.950 . S
C339 C330 1.390 . S
C339 H332 0.950 . S
C339 C336 1.387 . S
C340 C341 1.386 1_556 S
C340 H344 0.951 . S
C340 C349 1.390 1_455 S
C341 C340 1.386 1_554 S
C341 C343 1.387 . S
H342 C349 0.951 . S
C343 C341 1.387 . S
C343 C345 1.390 1_455 S
C343 H347 0.950 . S
H344 C340 0.951 . S
C345 C343 1.390 1_655 S
C345 C346 1.387 . S
C345 H348 0.950 . S
C346 C345 1.387 . S
C346 C349 1.386 1_554 S
H347 C343 0.950 . S
H348 C345 0.950 . S
C349 C340 1.390 1_655 S
C349 H342 0.951 . S
C349 C346 1.386 1_556 S
C350 C351 1.387 . S
C350 H354 0.950 . S
C350 C359 1.390 1_565 S
C351 C350 1.387 . S
C351 C353 1.387 . S
H352 C359 0.950 . S
C353 C351 1.387 . S
C353 C355 1.390 1_565 S
C353 H357 0.950 . S
H354 C350 0.950 . S
C355 C353 1.390 1_545 S
C355 C356 1.387 . S
C355 H358 0.950 . S
C356 C355 1.387 . S
C356 C359 1.387 . S
H357 C353 0.950 . S
H358 C355 0.950 . S
C359 C350 1.390 1_545 S
C359 H352 0.950 . S
C359 C356 1.387 . S
C360 C361 1.387 . S
C360 H364 0.950 . S
C360 C369 1.390 . S
C361 C360 1.387 . S
C361 C363 1.387 . S
H362 C369 0.950 . S
C363 C361 1.387 . S
C363 C365 1.390 . S
C363 H367 0.950 . S
H364 C360 0.950 . S
C365 C363 1.390 . S
C365 C366 1.387 . S
C365 H368 0.950 . S
C366 C365 1.387 . S
C366 C369 1.387 . S
H367 C363 0.950 . S
H368 C365 0.950 . S
C369 C360 1.390 . S
C369 H362 0.950 . S
C369 C366 1.387 . S
C370 C371 1.387 . S
C370 H374 0.950 1_455 S
C370 C379 1.390 . S
C371 C370 1.387 . S
C371 C373 1.387 . S
H372 C379 0.950 . S
C373 C371 1.387 . S
C373 C375 1.390 . S
C373 H377 0.950 . S
H374 C370 0.950 1_655 S
C375 C373 1.390 . S
C375 C376 1.387 . S
C375 H378 0.950 . S
C376 C375 1.387 . S
C376 C379 1.387 . S
H377 C373 0.950 . S
H378 C375 0.950 . S
C379 C370 1.390 . S
C379 H372 0.950 . S
C379 C376 1.387 . S
C380 C381 1.387 . S
C380 H384 0.950 . S
C380 C389 1.390 . S
C381 C380 1.387 . S
C381 C383 1.387 . S
H382 C389 0.950 . S
C383 C381 1.387 . S
C383 C385 1.390 . S
C383 H387 0.950 . S
H384 C380 0.950 . S
C385 C383 1.390 . S
C385 C386 1.387 . S
C385 H388 0.950 . S
C386 C385 1.387 . S
C386 C389 1.387 . S
H387 C383 0.950 . S
H388 C385 0.950 . S
C389 C380 1.390 . S
C389 H382 0.950 . S
C389 C386 1.387 . S
C390 C391 1.387 . S
C390 H394 0.950 . S
C390 C399 1.390 . S
C391 C390 1.387 . S
C391 C393 1.387 . S
H392 C399 0.950 . S
C393 C391 1.387 . S
C393 C395 1.390 . S
C393 H397 0.950 . S
H394 C390 0.950 . S
C395 C393 1.390 . S
C395 C396 1.387 . S
C395 H398 0.950 . S
C396 C395 1.387 . S
C396 C399 1.387 . S
H397 C393 0.950 . S
H398 C395 0.950 . S
C399 C390 1.390 . S
C399 H392 0.950 . S
C399 C396 1.387 . S
C400 C401 1.387 . S
C400 H404 0.950 1_655 S
C400 C409 1.390 . S
C401 C400 1.387 . S
C401 C403 1.387 . S
H402 C409 0.950 1_455 S
C403 C401 1.387 . S
C403 C405 1.390 . S
C403 H407 0.950 . S
H404 C400 0.950 1_455 S
C405 C403 1.390 . S
C405 C406 1.387 . S
C405 H408 0.950 . S
C406 C405 1.387 . S
C406 C409 1.387 . S
H407 C403 0.950 . S
H408 C405 0.950 . S
C409 C400 1.390 . S
C409 H402 0.950 1_655 S
C409 C406 1.387 . S
C410 C411 1.387 . S
C410 H414 0.950 1_565 S
C410 C419 1.390 . S
C411 C410 1.387 . S
C411 C413 1.387 . S
H412 C419 0.950 1_545 S
C413 C411 1.387 . S
C413 C415 1.390 . S
C413 H417 0.950 . S
H414 C410 0.950 1_545 S
C415 C413 1.390 . S
C415 C416 1.387 . S
C415 H418 0.950 . S
C416 C415 1.387 . S
C416 C419 1.387 . S
H417 C413 0.950 . S
H418 C415 0.950 . S
C419 C410 1.390 . S
C419 H412 0.950 1_565 S
C419 C416 1.387 . S
C241 C169 1.219 . S
C246 C15 1.216 . S
C251 C209 1.219 . S
C256 C55 1.216 . S
C261 C9 1.221 . S
C266 C95 1.218 . S
C271 C49 1.219 . S
C276 C135 1.216 . S
C281 C89 1.221 . S
C286 C175 1.219 . S
C291 C129 1.221 . S
C296 C215 1.218 . S
C301 C18 1.218 . S
C306 C138 1.218 . S
C311 C178 1.225 . S
C316 C58 1.225 . S
C321 C218 1.225 . S
C326 C98 1.225 . S
C331 C88 1.547 . S
C336 C208 1.547 . S
C341 C8 1.547 . S
C346 C128 1.547 . S
C351 C168 1.546 . S
C356 C48 1.546 . S
C361 C219 1.342 . S
C366 C5 1.292 . S
C371 C45 1.293 . S
C376 C19 1.341 . S
C381 C85 1.292 . S
C386 C59 1.341 . S
C391 C99 1.342 . S
C396 C125 1.292 . S
C401 C165 1.294 . S
C406 C139 1.342 . S
C411 C205 1.294 . S
C416 C179 1.342 . S
