# Generated by pormake.
# Topology qtz-e, (6)-cn, num edge types: 1
# Building blocks:
#     Node 0, Type 0, BuildingBlock: JUFBIX_clean_sbu_0, # of connection points: 6
#     Node 1, Type 0, BuildingBlock: JUFBIX_clean_sbu_0, # of connection points: 6
#     Node 2, Type 0, BuildingBlock: JUFBIX_clean_sbu_0, # of connection points: 6
#     Node 3, Type 0, BuildingBlock: JUFBIX_clean_sbu_0, # of connection points: 6
#     Node 4, Type 0, BuildingBlock: JUFBIX_clean_sbu_0, # of connection points: 6
#     Node 5, Type 0, BuildingBlock: JUFBIX_clean_sbu_0, # of connection points: 6
#     Edge 6, Type (0, 0), BuildingBlock: CIFDUS_clean_linker_0, # of connection points: 2
#     Edge 7, Type (0, 0), BuildingBlock: CIFDUS_clean_linker_0, # of connection points: 2
#     Edge 8, Type (0, 0), BuildingBlock: CIFDUS_clean_linker_0, # of connection points: 2
#     Edge 9, Type (0, 0), BuildingBlock: CIFDUS_clean_linker_0, # of connection points: 2
#     Edge 10, Type (0, 0), BuildingBlock: CIFDUS_clean_linker_0, # of connection points: 2
#     Edge 11, Type (0, 0), BuildingBlock: CIFDUS_clean_linker_0, # of connection points: 2
#     Edge 12, Type (0, 0), BuildingBlock: CIFDUS_clean_linker_0, # of connection points: 2
#     Edge 13, Type (0, 0), BuildingBlock: CIFDUS_clean_linker_0, # of connection points: 2
#     Edge 14, Type (0, 0), BuildingBlock: CIFDUS_clean_linker_0, # of connection points: 2
#     Edge 15, Type (0, 0), BuildingBlock: CIFDUS_clean_linker_0, # of connection points: 2
#     Edge 16, Type (0, 0), BuildingBlock: CIFDUS_clean_linker_0, # of connection points: 2
#     Edge 17, Type (0, 0), BuildingBlock: CIFDUS_clean_linker_0, # of connection points: 2
#     Edge 18, Type (0, 0), BuildingBlock: CIFDUS_clean_linker_0, # of connection points: 2
#     Edge 19, Type (0, 0), BuildingBlock: CIFDUS_clean_linker_0, # of connection points: 2
#     Edge 20, Type (0, 0), BuildingBlock: CIFDUS_clean_linker_0, # of connection points: 2
#     Edge 21, Type (0, 0), BuildingBlock: CIFDUS_clean_linker_0, # of connection points: 2
#     Edge 22, Type (0, 0), BuildingBlock: CIFDUS_clean_linker_0, # of connection points: 2
#     Edge 23, Type (0, 0), BuildingBlock: CIFDUS_clean_linker_0, # of connection points: 2
# Relax obj value: 0.667
# Max RMSD: 0.301
# Mean RMSD: 0.301
data_MOF--net-qtz-e--node1-JUFBIX_clean_sbu_0--edge1-CIFDUS_clean_linker_0
_symmetry_space_group_name_H-M    P1
_symmetry_Int_Tables_number       1
_symmetry_cell_setting            triclinic
loop_
_symmetry_equiv_pos_as_xyz
'x, y, z'
_cell_length_a     23.026148
_cell_length_b     22.962909
_cell_length_c     34.840569
_cell_angle_alpha  90.09932
_cell_angle_beta   89.721802
_cell_angle_gamma 119.8686
loop_
_atom_site_label
_atom_site_type_symbol
_atom_site_fract_x
_atom_site_fract_y
_atom_site_fract_z
_atom_type_partial_charge
Co0 Co 0.20828 0.41961 0.16126 0.0
C1 C 0.2715 0.35426 0.13044 0.0
Co2 Co 0.16209 0.36425 0.10806 0.0
C3 C 0.2591 0.51692 0.22319 0.0
C4 C 0.26526 0.42861 0.23425 0.0
N5 N 0.24679 0.45842 0.20737 0.0
N6 N 0.28384 0.52436 0.25913 0.0
C7 C 0.28806 0.4689 0.26594 0.0
H8 H 0.24791 0.55202 0.20901 0.0
H9 H 0.25969 0.37913 0.23166 0.0
C10 C 0.10878 0.443 0.13503 0.0
N11 N 0.1248 0.32104 0.06208 0.0
C12 C 0.15513 0.30235 0.03552 0.0
C13 C 0.06251 0.29878 0.04827 0.0
N14 N 0.11443 0.26879 0.00616 0.0
C15 C 0.05613 0.26688 0.0136 0.0
C16 C 0.0997 0.29056 0.17247 0.0
O17 O 0.14911 0.45592 0.16287 0.0
O18 O 0.10443 0.4016 0.10927 0.0
O19 O 0.09719 0.28731 0.13605 0.0
O20 O 0.1451 0.34308 0.18845 0.0
O21 O 0.22436 0.3312 0.10616 0.0
H22 H 0.02378 0.30411 0.06277 0.0
H23 H 0.20636 0.31294 0.03743 0.0
O24 O 0.26767 0.38673 0.15865 0.0
O25 O 0.27173 0.49662 0.13384 0.0
O26 O 0.22456 0.44034 0.08098 0.0
C27 C 0.26851 0.49332 0.09746 0.0
H28 H 0.30209 0.45598 0.29286 0.0
H29 H 0.01175 0.24241 -0.00406 0.0
Co30 Co 0.78491 0.20866 0.38729 0.0
C31 C 0.70456 0.07463 0.40277 0.0
Co32 Co 0.83084 0.17101 0.42804 0.0
C33 C 0.7761 0.28554 0.32641 0.0
C34 C 0.67964 0.22098 0.35126 0.0
N35 N 0.74513 0.23982 0.35428 0.0
N36 N 0.73261 0.29545 0.30589 0.0
C37 C 0.67169 0.25491 0.32108 0.0
H38 H 0.8294 0.31003 0.32068 0.0
H39 H 0.6403 0.18469 0.36964 0.0
C40 C 0.90304 0.30941 0.41701 0.0
N41 N 0.86933 0.13784 0.46161 0.0
C42 C 0.83734 0.09409 0.49038 0.0
C43 C 0.93243 0.1486 0.46231 0.0
N44 N 0.87749 0.07639 0.50904 0.0
C45 C 0.93766 0.11094 0.49148 0.0
C46 C 0.86796 0.17062 0.35173 0.0
O47 O 0.85652 0.29579 0.39331 0.0
O48 O 0.90477 0.26135 0.43435 0.0
O49 O 0.8754 0.15624 0.38592 0.0
O50 O 0.82895 0.19372 0.34556 0.0
O51 O 0.75355 0.08214 0.4232 0.0
H52 H 0.97176 0.18098 0.44258 0.0
H53 H 0.78533 0.07596 0.49752 0.0
O54 O 0.71222 0.12293 0.38191 0.0
O55 O 0.74132 0.22397 0.42914 0.0
O56 O 0.78793 0.18617 0.46925 0.0
C57 C 0.75007 0.21043 0.46321 0.0
H58 H 0.62523 0.25072 0.31124 0.0
H59 H 0.982 0.10836 0.49861 0.0
Co60 Co 0.5362 0.76614 0.82839 0.0
C61 C 0.60088 0.89505 0.79849 0.0
Co62 Co 0.60328 0.77901 0.77991 0.0
C63 C 0.46413 0.72522 0.90074 0.0
C64 C 0.44202 0.79006 0.8675 0.0
N65 N 0.47914 0.75945 0.86742 0.0
N66 N 0.41882 0.73316 0.92143 0.0
C67 C 0.40491 0.77397 0.90061 0.0
H68 H 0.48432 0.69343 0.909 0.0
H69 H 0.4414 0.82156 0.84463 0.0
C70 C 0.52999 0.64755 0.80718 0.0
N71 N 0.66062 0.79003 0.73963 0.0
C72 C 0.66405 0.82085 0.70611 0.0
C73 C 0.71091 0.77595 0.73788 0.0
N74 N 0.71468 0.8273 0.68364 0.0
C75 C 0.74469 0.7994 0.70349 0.0
C76 C 0.66243 0.79677 0.85151 0.0
O77 O 0.50626 0.67275 0.83077 0.0
O78 O 0.57611 0.68587 0.78382 0.0
O79 O 0.67315 0.80071 0.81554 0.0
O80 O 0.60511 0.78353 0.86396 0.0
O81 O 0.62646 0.87179 0.77491 0.0
H82 H 0.72342 0.75205 0.76055 0.0
H83 H 0.63184 0.8411 0.69905 0.0
O84 O 0.56472 0.85795 0.82554 0.0
O85 O 0.46683 0.74732 0.79236 0.0
O86 O 0.53426 0.7555 0.74538 0.0
C87 C 0.47712 0.74296 0.75698 0.0
H88 H 0.36979 0.79033 0.90853 0.0
H89 H 0.78829 0.79696 0.69404 0.0
Co90 Co 0.76821 0.55035 0.047 0.0
C91 C 0.90368 0.61484 0.06522 0.0
Co92 Co 0.79698 0.62516 0.09288 0.0
C93 C 0.70508 0.48213 0.97923 0.0
C94 C 0.77248 0.44982 -0.00131 0.0
N95 N 0.74751 0.49023 0.00773 0.0
N96 N 0.7023 0.43849 0.95259 0.0
C97 C 0.74467 0.41782 0.96451 0.0
H98 H 0.67788 0.50924 0.9776 0.0
H99 H 0.80907 0.44474 0.01552 0.0
C100 C 0.65907 0.55019 0.07927 0.0
N101 N 0.81686 0.68788 0.13102 0.0
C102 C 0.86084 0.70525 0.16 0.0
C103 C 0.79121 0.72922 0.13425 0.0
N104 N 0.86411 0.75629 0.18107 0.0
C105 C 0.8201 0.77128 0.16496 0.0
C106 C 0.79603 0.67606 0.02134 0.0
O107 O 0.67586 0.52303 0.05307 0.0
O108 O 0.70474 0.5984 0.09827 0.0
O109 O 0.80832 0.6912 0.05645 0.0
O110 O 0.77925 0.61697 0.01062 0.0
O111 O 0.88911 0.64802 0.08887 0.0
H112 H 0.75467 0.72959 0.115 0.0
H113 H 0.88976 0.68073 0.16542 0.0
O114 O 0.85921 0.57494 0.04206 0.0
O115 O 0.75662 0.48421 0.08338 0.0
O116 O 0.78514 0.56009 0.12891 0.0
C117 C 0.76721 0.50046 0.1186 0.0
H118 H 0.75418 0.38177 0.94986 0.0
H119 H 0.81064 0.81091 0.17401 0.0
Co120 Co 0.21588 0.77677 0.48566 0.0
C121 C 0.0826 0.69834 0.46639 0.0
Co122 Co 0.18175 0.82451 0.44427 0.0
C123 C 0.26516 0.75564 0.55573 0.0
C124 C 0.22112 0.66757 0.52052 0.0
N125 N 0.23873 0.73306 0.52088 0.0
N126 N 0.26342 0.70656 0.57758 0.0
C127 C 0.23632 0.65109 0.55542 0.0
H128 H 0.28396 0.80687 0.5651 0.0
H129 H 0.19562 0.63325 0.49715 0.0
C130 C 0.31939 0.89453 0.45901 0.0
N131 N 0.15573 0.86599 0.40865 0.0
C132 C 0.12537 0.83843 0.37527 0.0
C133 C 0.16199 0.92769 0.409 0.0
N134 N 0.11289 0.88021 0.35461 0.0
C135 C 0.13488 0.93636 0.3757 0.0
C136 C 0.1747 0.86076 0.51878 0.0
O137 O 0.30478 0.8464 0.48203 0.0
O138 O 0.27227 0.8978 0.44179 0.0
O139 O 0.16138 0.86735 0.48434 0.0
O140 O 0.19854 0.82263 0.5259 0.0
O141 O 0.09217 0.74751 0.44519 0.0
H142 H 0.1848 0.96392 0.43188 0.0
H143 H 0.11149 0.78796 0.36639 0.0
O144 O 0.12869 0.706 0.48887 0.0
O145 O 0.23347 0.73164 0.44504 0.0
O146 O 0.20231 0.7835 0.40469 0.0
C147 C 0.22377 0.74342 0.41078 0.0
H148 H 0.22596 0.60162 0.56418 0.0
H149 H 0.13224 0.98039 0.36739 0.0
Co150 Co 0.42009 0.2106 0.70458 0.0
C151 C 0.35382 0.27496 0.73317 0.0
Co152 Co 0.36272 0.16596 0.7575 0.0
C153 C 0.51972 0.25734 0.6445 0.0
C154 C 0.43631 0.2704 0.63127 0.0
N155 N 0.46182 0.24887 0.65901 0.0
N156 N 0.53093 0.28245 0.60849 0.0
C157 C 0.47864 0.2911 0.60024 0.0
H158 H 0.55166 0.24309 0.65965 0.0
H159 H 0.38837 0.26831 0.63282 0.0
C160 C 0.43962 0.10968 0.7315 0.0
N161 N 0.3177 0.12889 0.80324 0.0
C162 C 0.29708 0.1589 0.82891 0.0
C163 C 0.29688 0.06717 0.81798 0.0
N164 N 0.26398 0.11858 0.85868 0.0
C165 C 0.26417 0.06088 0.85235 0.0
C166 C 0.29127 0.10302 0.69301 0.0
O167 O 0.45185 0.14839 0.70288 0.0
O168 O 0.4012 0.10883 0.75817 0.0
O169 O 0.28831 0.10003 0.72941 0.0
O170 O 0.34303 0.14963 0.6768 0.0
O171 O 0.32849 0.22712 0.75725 0.0
H172 H 0.30422 0.02887 0.80445 0.0
H173 H 0.30645 0.20977 0.82622 0.0
O174 O 0.39096 0.27344 0.70687 0.0
O175 O 0.49765 0.27126 0.73284 0.0
O176 O 0.43597 0.22986 0.78487 0.0
C177 C 0.49105 0.27127 0.76908 0.0
H178 H 0.4692 0.30686 0.57284 0.0
H179 H 0.24105 0.01706 0.87075 0.0
H180 H 0.30276 0.6866 0.40714 0.0
H181 H 0.16791 0.7256 0.34067 0.0
H182 H 0.18016 0.66663 0.28609 0.0
H183 H 0.22173 0.59714 0.25916 0.0
H184 H 0.35965 0.55985 0.32352 0.0
H185 H 0.35397 0.62559 0.37703 0.0
C186 C 0.27633 0.68217 0.38064 0.0
C187 C 0.23406 0.70959 0.37798 0.0
C188 C 0.28406 0.6487 0.34907 0.0
C189 C 0.20071 0.70467 0.3434 0.0
C190 C 0.20762 0.67099 0.31214 0.0
C191 C 0.25199 0.60457 0.28435 0.0
C192 C 0.29015 0.57264 0.28749 0.0
C193 C 0.24843 0.64212 0.31486 0.0
C194 C 0.32858 0.58268 0.32071 0.0
C195 C 0.32545 0.62029 0.35131 0.0
H196 H 0.59425 0.21074 0.61052 0.0
H197 H 0.57702 0.36099 0.54521 0.0
H198 H 0.64533 0.35287 0.494 0.0
H199 H 0.70276 0.29689 0.46608 0.0
H200 H 0.72209 0.14914 0.5327 0.0
H201 H 0.66047 0.16322 0.58565 0.0
C202 C 0.60665 0.24304 0.58563 0.0
C203 C 0.5798 0.28576 0.5815 0.0
C204 C 0.64567 0.23804 0.55643 0.0
C205 C 0.59601 0.32667 0.54871 0.0
C206 C 0.63508 0.32215 0.51947 0.0
C207 C 0.69353 0.26801 0.49227 0.0
C208 C 0.71593 0.22157 0.49551 0.0
C209 C 0.65867 0.27672 0.52264 0.0
C210 C 0.70496 0.18512 0.52967 0.0
C211 C 0.66978 0.19307 0.55989 0.0
H212 H 0.22585 0.55519 0.05131 0.0
H213 H 0.4043 0.55719 0.08964 0.0
H214 H 0.46984 0.63779 0.03872 0.0
H215 H 0.47198 0.69727 0.97904 0.0
H216 H 0.29092 0.69135 0.94126 0.0
H217 H 0.23051 0.62339 -0.00336 0.0
C218 C 0.27948 0.57476 0.0489 0.0
C219 C 0.31087 0.5513 0.07365 0.0
C220 C 0.31583 0.61962 0.01956 0.0
C221 C 0.37994 0.57589 0.07079 0.0
C222 C 0.41696 0.62117 0.04157 0.0
C223 C 0.41946 0.68128 0.98322 0.0
C224 C 0.38573 0.69864 0.95603 0.0
C225 C 0.38484 0.6417 0.01506 0.0
C226 C 0.31801 0.67893 0.96193 0.0
C227 C 0.28332 0.63978 -0.00656 0.0
H228 H 0.66944 0.26666 0.23864 0.0
H229 H 0.83316 0.42253 0.30218 0.0
H230 H 0.86136 0.49989 0.24796 0.0
H231 H 0.83593 0.52374 0.18388 0.0
H232 H 0.67542 0.36697 0.11858 0.0
H233 H 0.64959 0.28818 0.17193 0.0
C234 C 0.71098 0.31771 0.24035 0.0
C235 C 0.74877 0.33988 0.27404 0.0
C236 C 0.72748 0.361 0.20891 0.0
C237 C 0.80358 0.40524 0.27624 0.0
C238 C 0.81957 0.44914 0.24542 0.0
C239 C 0.7956 0.47213 0.18135 0.0
C240 C 0.75698 0.45086 0.14792 0.0
C241 C 0.78146 0.42764 0.21181 0.0
C242 C 0.70567 0.38392 0.14429 0.0
C243 C 0.69067 0.33923 0.17478 0.0
H244 H 0.40034 0.79679 0.73757 0.0
H245 H 0.43628 0.63319 0.71416 0.0
H246 H 0.36393 0.60088 0.65823 0.0
H247 H 0.30632 0.63039 0.61098 0.0
H248 H 0.27327 0.79706 0.63125 0.0
H249 H 0.32907 0.8177 0.69325 0.0
C250 C 0.39037 0.75304 0.72068 0.0
C251 C 0.42284 0.71704 0.72945 0.0
C252 C 0.35081 0.73652 0.68763 0.0
C253 C 0.41121 0.6611 0.70752 0.0
C254 C 0.3703 0.64296 0.67552 0.0
C255 C 0.30969 0.67012 0.6293 0.0
C256 C 0.28714 0.71293 0.61619 0.0
C257 C 0.34216 0.68198 0.66448 0.0
C258 C 0.29223 0.76459 0.64023 0.0
C259 C 0.32365 0.77616 0.67581 0.0
H260 H 0.72977 0.404 0.88371 0.0
H261 H 0.58055 0.42664 0.94693 0.0
H262 H 0.50634 0.38769 0.89186 0.0
H263 H 0.47886 0.33578 0.82897 0.0
H264 H 0.6235 0.30727 0.76517 0.0
H265 H 0.70558 0.36137 0.81688 0.0
C266 C 0.681 0.40026 0.88524 0.0
C267 C 0.66032 0.41749 0.91933 0.0
C268 C 0.63818 0.37723 0.85344 0.0
C269 C 0.59766 0.41396 0.92091 0.0
C270 C 0.55511 0.39153 0.88952 0.0
C271 C 0.52893 0.34273 0.82614 0.0
C272 C 0.54553 0.31744 0.79394 0.0
C273 C 0.57431 0.37173 0.85608 0.0
C274 C 0.6103 0.32697 0.78992 0.0
C275 C 0.65665 0.35699 0.81961 0.0
H276 H 0.38621 0.43405 0.1679 0.0
H277 H 0.31106 0.30956 0.06692 0.0
H278 H 0.42568 0.36008 0.04135 0.0
H279 H 0.54641 0.44755 0.04567 0.0
H280 H 0.61333 0.58042 0.14375 0.0
H281 H 0.50177 0.52068 0.17142 0.0
C282 C 0.39437 0.41667 0.1405 0.0
C283 C 0.33957 0.36765 0.11949 0.0
C284 C 0.45889 0.44948 0.12475 0.0
C285 C 0.3521 0.34654 0.08401 0.0
C286 C 0.41756 0.37635 0.06908 0.0
C287 C 0.53629 0.4638 0.07288 0.0
C288 C 0.58848 0.51877 0.09246 0.0
C289 C 0.4711 0.42949 0.08869 0.0
C290 C 0.57441 0.53891 0.12777 0.0
C291 C 0.51065 0.50425 0.14392 0.0
H292 H 0.06445 0.58603 0.50212 0.0
H293 H 0.98906 0.65186 0.40834 0.0
H294 H 0.92953 0.53671 0.38351 0.0
H295 H 0.90642 0.41981 0.38599 0.0
H296 H 0.99027 0.35792 0.47729 0.0
H297 H 0.04282 0.47107 0.50426 0.0
C298 C 0.03429 0.57547 0.47648 0.0
C299 C 0.03133 0.62801 0.45718 0.0
C300 C 0.00411 0.51054 0.46109 0.0
C301 C 0.99165 0.61261 0.42412 0.0
C302 C 0.95866 0.54698 0.40952 0.0
C303 C 0.93687 0.43111 0.41156 0.0
C304 C 0.94473 0.38023 0.42945 0.0
C305 C 0.96624 0.49609 0.42719 0.0
C306 C 0.98406 0.39602 0.46264 0.0
C307 C 0.01331 0.46049 0.47837 0.0
H308 H 0.48942 0.09151 0.79718 0.0
H309 H 0.47508 0.04829 0.6761 0.0
H310 H 0.5361 0.98691 0.68498 0.0
H311 H 0.58429 0.93709 0.7287 0.0
H312 H 0.59882 0.98276 0.84956 0.0
H313 H 0.54962 0.05411 0.83909 0.0
C314 C 0.49956 0.06846 0.77276 0.0
C315 C 0.47632 0.07263 0.73623 0.0
C316 C 0.53605 0.03507 0.77797 0.0
C317 C 0.49158 0.04459 0.7046 0.0
C318 C 0.52678 0.00993 0.70966 0.0
C319 C 0.5793 0.965 0.75241 0.0
C320 C 0.59574 0.95521 0.78984 0.0
C321 C 0.54859 0.00413 0.74635 0.0
C322 C 0.5873 0.99022 0.82048 0.0
C323 C 0.55815 0.03012 0.81459 0.0
H324 H 0.49399 0.58423 0.73959 0.0
H325 H 0.48219 0.54718 0.86123 0.0
H326 H 0.41473 0.42557 0.84963 0.0
H327 H 0.36462 0.33031 0.80382 0.0
H328 H 0.3692 0.37098 0.68267 0.0
H329 H 0.42954 0.49142 0.69531 0.0
C330 C 0.4762 0.54953 0.76356 0.0
C331 C 0.49398 0.5742 0.80109 0.0
C332 C 0.43418 0.48073 0.75678 0.0
C333 C 0.47007 0.52896 0.83202 0.0
C334 C 0.43089 0.45969 0.82539 0.0
C335 C 0.37613 0.36543 0.78037 0.0
C336 C 0.36227 0.3416 0.74229 0.0
C337 C 0.4126 0.43496 0.7878 0.0
C338 C 0.37877 0.38801 0.71219 0.0
C339 C 0.41448 0.4569 0.71934 0.0
H340 H 0.081 0.48035 0.06738 0.0
H341 H 0.06329 0.49763 0.18954 0.0
H342 H 0.00762 0.56375 0.17863 0.0
H343 H 0.95599 0.60856 0.13383 0.0
H344 H 0.97475 0.59007 0.01182 0.0
H345 H 0.04053 0.53497 0.02314 0.0
C346 C 0.0647 0.49834 0.09166 0.0
C347 C 0.07458 0.48259 0.12924 0.0
C348 C 0.03436 0.53748 0.08512 0.0
C349 C 0.05519 0.50813 0.16037 0.0
C350 C 0.02378 0.54627 0.1541 0.0
C351 C 0.97683 0.59493 0.10975 0.0
C352 C 0.96125 0.6043 0.07194 0.0
C353 C 0.01249 0.56074 0.11654 0.0
C354 C 0.9869 0.5844 0.04108 0.0
C355 C 0.02358 0.55189 0.04758 0.0
H356 H 0.42937 0.89154 0.48538 0.0
H357 H 0.36731 0.98881 0.40217 0.0
H358 H 0.47845 0.04215 0.373 0.0
H359 H 0.59181 0.06096 0.37082 0.0
H360 H 0.65959 0.97434 0.45739 0.0
H361 H 0.54577 0.91301 0.48394 0.0
C362 C 0.44035 0.92518 0.4612 0.0
C363 C 0.38986 0.9364 0.44617 0.0
C364 C 0.50446 0.95546 0.44431 0.0
C365 C 0.4051 0.97977 0.41464 0.0
C366 C 0.46844 0.00958 0.3976 0.0
C367 C 0.582 0.02814 0.39527 0.0
C368 C 0.63465 0.02255 0.41206 0.0
C369 C 0.5181 0.99721 0.41196 0.0
C370 C 0.62016 0.97914 0.44354 0.0
C371 C 0.55531 0.94509 0.45918 0.0
H372 H 0.19008 0.17831 0.85348 0.0
H373 H 0.27077 0.09504 0.93372 0.0
H374 H 0.22876 0.13284 0.98758 0.0
H375 H 0.17487 0.19564 0.01132 0.0
H376 H 0.08937 0.27421 0.93122 0.0
H377 H 0.12685 0.23186 0.87731 0.0
C378 C 0.19792 0.16827 0.88283 0.0
C379 C 0.23385 0.13477 0.88997 0.0
C380 C 0.17295 0.18938 0.91333 0.0
C381 C 0.24305 0.1207 0.92786 0.0
C382 C 0.21938 0.14255 0.95849 0.0
C383 C 0.16426 0.20295 0.98199 0.0
C384 C 0.13028 0.23841 0.97488 0.0
C385 C 0.1852 0.17782 0.95151 0.0
C386 C 0.11546 0.2469 0.93703 0.0
C387 C 0.13713 0.22303 0.90639 0.0
H388 H 0.84525 0.16378 0.27477 0.0
H389 H 0.98936 0.17874 0.35864 0.0
H390 H 0.07272 0.20606 0.30808 0.0
H391 H 0.10999 0.24576 0.24219 0.0
H392 H 0.96622 0.2289 0.15782 0.0
H393 H 0.87689 0.18058 0.20612 0.0
C394 C 0.8944 0.17138 0.2818 0.0
C395 C 0.91156 0.17055 0.32044 0.0
C396 C 0.94221 0.18706 0.25252 0.0
C397 C 0.97501 0.17946 0.32915 0.0
C398 C 0.02288 0.19547 0.30026 0.0
C399 C 0.05858 0.22911 0.23414 0.0
C400 C 0.04455 0.2412 0.19673 0.0
C401 C 0.00786 0.20224 0.26214 0.0
C402 C 0.97799 0.21953 0.18642 0.0
C403 C 0.92711 0.19278 0.21417 0.0
H404 H 0.84085 0.90944 0.65921 0.0
H405 H 0.63361 0.82498 0.62774 0.0
H406 H 0.6663 0.89246 0.5691 0.0
H407 H 0.75306 0.97857 0.52861 0.0
H408 H 0.96062 0.06942 0.56175 0.0
H409 H 0.92878 0.99513 0.61738 0.0
C410 C 0.80315 0.90523 0.63913 0.0
C411 C 0.73498 0.86248 0.64763 0.0
C412 C 0.82234 0.94537 0.60591 0.0
C413 C 0.68633 0.85801 0.62179 0.0
C414 C 0.705 0.89649 0.58833 0.0
C415 C 0.79153 0.98289 0.54806 0.0
C416 C 0.85921 0.0304 0.54099 0.0
C417 C 0.77278 0.94117 0.58046 0.0
C418 C 0.9082 0.03333 0.56618 0.0
C419 C 0.88999 0.99104 0.5982 0.0
H420 H 0.67754 0.82363 0.92809 0.0
H421 H 0.75336 0.75842 0.8338 0.0
H422 H 0.80949 0.72153 0.87856 0.0
H423 H 0.8207 0.69059 0.94468 0.0
H424 H 0.75071 0.76139 0.03904 0.0
H425 H 0.70962 0.81413 -0.00578 0.0
C426 C 0.70797 0.80313 0.91739 0.0
C427 C 0.71041 0.7928 0.87781 0.0
C428 C 0.7405 0.78221 0.94331 0.0
C429 C 0.75057 0.76686 0.86418 0.0
C430 C 0.78228 0.74514 0.88978 0.0
C431 C 0.79815 0.71923 0.95533 0.0
C432 C 0.78791 0.72148 -0.00509 0.0
C433 C 0.77515 0.74995 0.92942 0.0
C434 C 0.7592 0.75912 0.00859 0.0
C435 C 0.73519 0.78883 0.98299 0.0
H436 H 0.01104 0.89768 0.33358 0.0
H437 H 0.14229 0.82641 0.29472 0.0
H438 H 0.07829 0.78473 0.23536 0.0
H439 H 0.98107 0.76215 0.19703 0.0
H440 H 0.8437 0.82508 0.23797 0.0
H441 H 0.91442 0.87758 0.29373 0.0
C442 C 0.026 0.87423 0.3116 0.0
C443 C 0.08091 0.86502 0.31801 0.0
C444 C 0.98763 0.84849 0.27826 0.0
C445 C 0.09986 0.83366 0.28999 0.0
C446 C 0.06326 0.80975 0.25628 0.0
C447 C 0.96615 0.78677 0.21823 0.0
C448 C 0.90678 0.78899 0.21341 0.0
C449 C 0.00615 0.81547 0.25058 0.0
C450 C 0.88933 0.82288 0.24077 0.0
C451 C 0.92959 0.8527 0.2728 0.0
H452 H 0.24586 0.10835 0.62246 0.0
H453 H 0.23336 0.97051 0.71024 0.0
H454 H 0.18659 0.87821 0.664 0.0
H455 H 0.16949 0.84243 0.5962 0.0
H456 H 0.1787 0.9801 0.509 0.0
H457 H 0.20514 0.06629 0.55748 0.0
C458 C 0.23053 0.05757 0.63168 0.0
C459 C 0.24346 0.04612 0.66943 0.0
C460 C 0.2041 0.00496 0.60492 0.0
C461 C 0.2234 0.98031 0.6813 0.0
C462 C 0.19744 0.92768 0.65476 0.0
C463 C 0.17556 0.89073 0.58801 0.0
C464 C 0.1735 0.90533 0.54902 0.0
C465 C 0.19064 0.94019 0.6161 0.0
C466 C 0.18046 0.96771 0.5388 0.0
C467 C 0.19598 0.01725 0.56649 0.0
loop_
_geom_bond_atom_site_label_1
_geom_bond_atom_site_label_2
_geom_bond_distance
_geom_bond_site_symmetry_2
_ccdc_geom_bond_type
Co0 N5 2.057 . S
Co0 O17 2.021 . S
Co0 O20 2.062 . S
Co0 O24 2.117 . S
Co0 O25 2.020 . S
C1 O21 1.259 . S
C1 O24 1.258 . S
Co2 N11 2.057 . S
Co2 O18 2.117 . S
Co2 O19 2.020 . S
Co2 O21 2.021 . S
Co2 O26 2.062 . S
C3 N5 1.316 . S
C3 N6 1.347 . S
C3 H8 0.931 . S
C4 N5 1.375 . S
C4 C7 1.350 . S
C4 H9 0.930 . S
N5 Co0 2.057 . S
N5 C3 1.316 . S
N5 C4 1.375 . S
N6 C3 1.347 . S
N6 C7 1.373 . S
C7 C4 1.350 . S
C7 N6 1.373 . S
C7 H28 0.931 . S
H8 C3 0.931 . S
H9 C4 0.930 . S
C10 O17 1.259 . S
C10 O18 1.258 . S
N11 Co2 2.057 . S
N11 C12 1.316 . S
N11 C13 1.375 . S
C12 N11 1.316 . S
C12 N14 1.347 . S
C12 H23 0.931 . S
C13 N11 1.375 . S
C13 C15 1.350 . S
C13 H22 0.930 . S
N14 C12 1.347 . S
N14 C15 1.373 . S
C15 C13 1.350 . S
C15 N14 1.373 . S
C15 H29 0.931 . S
C16 O19 1.256 . S
C16 O20 1.255 . S
O17 Co0 2.021 . S
O17 C10 1.259 . S
O18 Co2 2.117 . S
O18 C10 1.258 . S
O19 Co2 2.020 . S
O19 C16 1.256 . S
O20 Co0 2.062 . S
O20 C16 1.255 . S
O21 C1 1.259 . S
O21 Co2 2.021 . S
H22 C13 0.930 . S
H23 C12 0.931 . S
O24 Co0 2.117 . S
O24 C1 1.258 . S
O25 Co0 2.020 . S
O25 C27 1.256 . S
O26 Co2 2.062 . S
O26 C27 1.255 . S
C27 O25 1.256 . S
C27 O26 1.255 . S
H28 C7 0.931 . S
H29 C15 0.931 . S
Co30 N35 2.057 . S
Co30 O47 2.021 . S
Co30 O50 2.062 . S
Co30 O54 2.117 . S
Co30 O55 2.020 . S
C31 O51 1.259 . S
C31 O54 1.258 . S
Co32 N41 2.057 . S
Co32 O48 2.117 . S
Co32 O49 2.020 . S
Co32 O51 2.021 . S
Co32 O56 2.062 . S
C33 N35 1.316 . S
C33 N36 1.347 . S
C33 H38 0.931 . S
C34 N35 1.375 . S
C34 C37 1.350 . S
C34 H39 0.930 . S
N35 Co30 2.057 . S
N35 C33 1.316 . S
N35 C34 1.375 . S
N36 C33 1.347 . S
N36 C37 1.373 . S
C37 C34 1.350 . S
C37 N36 1.373 . S
C37 H58 0.931 . S
H38 C33 0.931 . S
H39 C34 0.930 . S
C40 O47 1.259 . S
C40 O48 1.258 . S
N41 Co32 2.057 . S
N41 C42 1.316 . S
N41 C43 1.375 . S
C42 N41 1.316 . S
C42 N44 1.347 . S
C42 H53 0.931 . S
C43 N41 1.375 . S
C43 C45 1.350 . S
C43 H52 0.930 . S
N44 C42 1.347 . S
N44 C45 1.373 . S
C45 C43 1.350 . S
C45 N44 1.373 . S
C45 H59 0.931 . S
C46 O49 1.256 . S
C46 O50 1.255 . S
O47 Co30 2.021 . S
O47 C40 1.259 . S
O48 Co32 2.117 . S
O48 C40 1.258 . S
O49 Co32 2.020 . S
O49 C46 1.256 . S
O50 Co30 2.062 . S
O50 C46 1.255 . S
O51 C31 1.259 . S
O51 Co32 2.021 . S
H52 C43 0.930 . S
H53 C42 0.931 . S
O54 Co30 2.117 . S
O54 C31 1.258 . S
O55 Co30 2.020 . S
O55 C57 1.256 . S
O56 Co32 2.062 . S
O56 C57 1.255 . S
C57 O55 1.256 . S
C57 O56 1.255 . S
H58 C37 0.931 . S
H59 C45 0.931 . S
Co60 N65 2.057 . S
Co60 O77 2.021 . S
Co60 O80 2.062 . S
Co60 O84 2.117 . S
Co60 O85 2.020 . S
C61 O81 1.259 . S
C61 O84 1.258 . S
Co62 N71 2.057 . S
Co62 O78 2.117 . S
Co62 O79 2.020 . S
Co62 O81 2.021 . S
Co62 O86 2.062 . S
C63 N65 1.316 . S
C63 N66 1.347 . S
C63 H68 0.931 . S
C64 N65 1.375 . S
C64 C67 1.350 . S
C64 H69 0.930 . S
N65 Co60 2.057 . S
N65 C63 1.316 . S
N65 C64 1.375 . S
N66 C63 1.347 . S
N66 C67 1.373 . S
C67 C64 1.350 . S
C67 N66 1.373 . S
C67 H88 0.931 . S
H68 C63 0.931 . S
H69 C64 0.930 . S
C70 O77 1.259 . S
C70 O78 1.258 . S
N71 Co62 2.057 . S
N71 C72 1.316 . S
N71 C73 1.375 . S
C72 N71 1.316 . S
C72 N74 1.347 . S
C72 H83 0.931 . S
C73 N71 1.375 . S
C73 C75 1.350 . S
C73 H82 0.930 . S
N74 C72 1.347 . S
N74 C75 1.373 . S
C75 C73 1.350 . S
C75 N74 1.373 . S
C75 H89 0.931 . S
C76 O79 1.256 . S
C76 O80 1.255 . S
O77 Co60 2.021 . S
O77 C70 1.259 . S
O78 Co62 2.117 . S
O78 C70 1.258 . S
O79 Co62 2.020 . S
O79 C76 1.256 . S
O80 Co60 2.062 . S
O80 C76 1.255 . S
O81 C61 1.259 . S
O81 Co62 2.021 . S
H82 C73 0.930 . S
H83 C72 0.931 . S
O84 Co60 2.117 . S
O84 C61 1.258 . S
O85 Co60 2.020 . S
O85 C87 1.256 . S
O86 Co62 2.062 . S
O86 C87 1.255 . S
C87 O85 1.256 . S
C87 O86 1.255 . S
H88 C67 0.931 . S
H89 C75 0.931 . S
Co90 N95 2.057 . S
Co90 O107 2.021 . S
Co90 O110 2.062 . S
Co90 O114 2.117 . S
Co90 O115 2.020 . S
C91 O111 1.259 . S
C91 O114 1.258 . S
Co92 N101 2.057 . S
Co92 O108 2.117 . S
Co92 O109 2.020 . S
Co92 O111 2.021 . S
Co92 O116 2.062 . S
C93 N95 1.316 1_556 S
C93 N96 1.347 . S
C93 H98 0.931 . S
C94 N95 1.375 1_556 S
C94 C97 1.350 . S
C94 H99 0.930 . S
N95 Co90 2.057 . S
N95 C93 1.316 1_554 S
N95 C94 1.375 1_554 S
N96 C93 1.347 . S
N96 C97 1.373 . S
C97 C94 1.350 . S
C97 N96 1.373 . S
C97 H118 0.931 . S
H98 C93 0.931 . S
H99 C94 0.930 . S
C100 O107 1.259 . S
C100 O108 1.258 . S
N101 Co92 2.057 . S
N101 C102 1.316 . S
N101 C103 1.375 . S
C102 N101 1.316 . S
C102 N104 1.347 . S
C102 H113 0.931 . S
C103 N101 1.375 . S
C103 C105 1.350 . S
C103 H112 0.930 . S
N104 C102 1.347 . S
N104 C105 1.373 . S
C105 C103 1.350 . S
C105 N104 1.373 . S
C105 H119 0.931 . S
C106 O109 1.256 . S
C106 O110 1.255 . S
O107 Co90 2.021 . S
O107 C100 1.259 . S
O108 Co92 2.117 . S
O108 C100 1.258 . S
O109 Co92 2.020 . S
O109 C106 1.256 . S
O110 Co90 2.062 . S
O110 C106 1.255 . S
O111 C91 1.259 . S
O111 Co92 2.021 . S
H112 C103 0.930 . S
H113 C102 0.931 . S
O114 Co90 2.117 . S
O114 C91 1.258 . S
O115 Co90 2.020 . S
O115 C117 1.256 . S
O116 Co92 2.062 . S
O116 C117 1.255 . S
C117 O115 1.256 . S
C117 O116 1.255 . S
H118 C97 0.931 . S
H119 C105 0.931 . S
Co120 N125 2.057 . S
Co120 O137 2.021 . S
Co120 O140 2.062 . S
Co120 O144 2.117 . S
Co120 O145 2.020 . S
C121 O141 1.259 . S
C121 O144 1.258 . S
Co122 N131 2.057 . S
Co122 O138 2.117 . S
Co122 O139 2.020 . S
Co122 O141 2.021 . S
Co122 O146 2.062 . S
C123 N125 1.316 . S
C123 N126 1.347 . S
C123 H128 0.931 . S
C124 N125 1.375 . S
C124 C127 1.350 . S
C124 H129 0.930 . S
N125 Co120 2.057 . S
N125 C123 1.316 . S
N125 C124 1.375 . S
N126 C123 1.347 . S
N126 C127 1.373 . S
C127 C124 1.350 . S
C127 N126 1.373 . S
C127 H148 0.931 . S
H128 C123 0.931 . S
H129 C124 0.930 . S
C130 O137 1.259 . S
C130 O138 1.258 . S
N131 Co122 2.057 . S
N131 C132 1.316 . S
N131 C133 1.375 . S
C132 N131 1.316 . S
C132 N134 1.347 . S
C132 H143 0.931 . S
C133 N131 1.375 . S
C133 C135 1.350 . S
C133 H142 0.930 . S
N134 C132 1.347 . S
N134 C135 1.373 . S
C135 C133 1.350 . S
C135 N134 1.373 . S
C135 H149 0.931 . S
C136 O139 1.256 . S
C136 O140 1.255 . S
O137 Co120 2.021 . S
O137 C130 1.259 . S
O138 Co122 2.117 . S
O138 C130 1.258 . S
O139 Co122 2.020 . S
O139 C136 1.256 . S
O140 Co120 2.062 . S
O140 C136 1.255 . S
O141 C121 1.259 . S
O141 Co122 2.021 . S
H142 C133 0.930 . S
H143 C132 0.931 . S
O144 Co120 2.117 . S
O144 C121 1.258 . S
O145 Co120 2.020 . S
O145 C147 1.256 . S
O146 Co122 2.062 . S
O146 C147 1.255 . S
C147 O145 1.256 . S
C147 O146 1.255 . S
H148 C127 0.931 . S
H149 C135 0.931 . S
Co150 N155 2.057 . S
Co150 O167 2.021 . S
Co150 O170 2.062 . S
Co150 O174 2.117 . S
Co150 O175 2.020 . S
C151 O171 1.259 . S
C151 O174 1.258 . S
Co152 N161 2.057 . S
Co152 O168 2.117 . S
Co152 O169 2.020 . S
Co152 O171 2.021 . S
Co152 O176 2.062 . S
C153 N155 1.316 . S
C153 N156 1.347 . S
C153 H158 0.931 . S
C154 N155 1.375 . S
C154 C157 1.350 . S
C154 H159 0.930 . S
N155 Co150 2.057 . S
N155 C153 1.316 . S
N155 C154 1.375 . S
N156 C153 1.347 . S
N156 C157 1.373 . S
C157 C154 1.350 . S
C157 N156 1.373 . S
C157 H178 0.931 . S
H158 C153 0.931 . S
H159 C154 0.930 . S
C160 O167 1.259 . S
C160 O168 1.258 . S
N161 Co152 2.057 . S
N161 C162 1.316 . S
N161 C163 1.375 . S
C162 N161 1.316 . S
C162 N164 1.347 . S
C162 H173 0.931 . S
C163 N161 1.375 . S
C163 C165 1.350 . S
C163 H172 0.930 . S
N164 C162 1.347 . S
N164 C165 1.373 . S
C165 C163 1.350 . S
C165 N164 1.373 . S
C165 H179 0.931 . S
C166 O169 1.256 . S
C166 O170 1.255 . S
O167 Co150 2.021 . S
O167 C160 1.259 . S
O168 Co152 2.117 . S
O168 C160 1.258 . S
O169 Co152 2.020 . S
O169 C166 1.256 . S
O170 Co150 2.062 . S
O170 C166 1.255 . S
O171 C151 1.259 . S
O171 Co152 2.021 . S
H172 C163 0.930 . S
H173 C162 0.931 . S
O174 Co150 2.117 . S
O174 C151 1.258 . S
O175 Co150 2.020 . S
O175 C177 1.256 . S
O176 Co152 2.062 . S
O176 C177 1.255 . S
C177 O175 1.256 . S
C177 O176 1.255 . S
H178 C157 0.931 . S
H179 C165 0.931 . S
H180 C186 0.930 . S
H181 C189 0.930 . S
H182 C190 0.930 . S
H183 C191 0.930 . S
H184 C194 0.930 . S
H185 C195 0.930 . S
C186 H180 0.930 . S
C186 C187 1.355 . S
C186 C188 1.415 . S
C187 C186 1.355 . S
C187 C189 1.419 . S
C188 C186 1.415 . S
C188 C193 1.425 . S
C188 C195 1.409 . S
C189 H181 0.930 . S
C189 C187 1.419 . S
C189 C190 1.362 . S
C190 H182 0.930 . S
C190 C189 1.362 . S
C190 C193 1.409 . S
C191 H183 0.930 . S
C191 C192 1.355 . S
C191 C193 1.415 . S
C192 C191 1.355 . S
C192 C194 1.419 . S
C193 C188 1.425 . S
C193 C190 1.409 . S
C193 C191 1.415 . S
C194 H184 0.930 . S
C194 C192 1.419 . S
C194 C195 1.362 . S
C195 H185 0.930 . S
C195 C188 1.409 . S
C195 C194 1.362 . S
H196 C202 0.930 . S
H197 C205 0.930 . S
H198 C206 0.930 . S
H199 C207 0.930 . S
H200 C210 0.930 . S
H201 C211 0.930 . S
C202 H196 0.930 . S
C202 C203 1.355 . S
C202 C204 1.415 . S
C203 C202 1.355 . S
C203 C205 1.419 . S
C204 C202 1.415 . S
C204 C209 1.425 . S
C204 C211 1.409 . S
C205 H197 0.930 . S
C205 C203 1.419 . S
C205 C206 1.362 . S
C206 H198 0.930 . S
C206 C205 1.362 . S
C206 C209 1.409 . S
C207 H199 0.930 . S
C207 C208 1.355 . S
C207 C209 1.415 . S
C208 C207 1.355 . S
C208 C210 1.419 . S
C209 C204 1.425 . S
C209 C206 1.409 . S
C209 C207 1.415 . S
C210 H200 0.930 . S
C210 C208 1.419 . S
C210 C211 1.362 . S
C211 H201 0.930 . S
C211 C204 1.409 . S
C211 C210 1.362 . S
H212 C218 0.930 . S
H213 C221 0.930 . S
H214 C222 0.930 . S
H215 C223 0.930 . S
H216 C226 0.930 . S
H217 C227 0.930 . S
C218 H212 0.930 . S
C218 C219 1.355 . S
C218 C220 1.415 . S
C219 C218 1.355 . S
C219 C221 1.419 . S
C220 C218 1.415 . S
C220 C225 1.425 . S
C220 C227 1.409 1_554 S
C221 H213 0.930 . S
C221 C219 1.419 . S
C221 C222 1.362 . S
C222 H214 0.930 . S
C222 C221 1.362 . S
C222 C225 1.409 . S
C223 H215 0.930 . S
C223 C224 1.355 . S
C223 C225 1.415 1_556 S
C224 C223 1.355 . S
C224 C226 1.419 . S
C225 C220 1.425 . S
C225 C222 1.409 . S
C225 C223 1.415 1_554 S
C226 H216 0.930 . S
C226 C224 1.419 . S
C226 C227 1.362 . S
C227 H217 0.930 . S
C227 C220 1.409 1_556 S
C227 C226 1.362 . S
H228 C234 0.930 . S
H229 C237 0.930 . S
H230 C238 0.930 . S
H231 C239 0.930 . S
H232 C242 0.930 . S
H233 C243 0.930 . S
C234 H228 0.930 . S
C234 C235 1.355 . S
C234 C236 1.415 . S
C235 C234 1.355 . S
C235 C237 1.419 . S
C236 C234 1.415 . S
C236 C241 1.425 . S
C236 C243 1.409 . S
C237 H229 0.930 . S
C237 C235 1.419 . S
C237 C238 1.362 . S
C238 H230 0.930 . S
C238 C237 1.362 . S
C238 C241 1.409 . S
C239 H231 0.930 . S
C239 C240 1.355 . S
C239 C241 1.415 . S
C240 C239 1.355 . S
C240 C242 1.419 . S
C241 C236 1.425 . S
C241 C238 1.409 . S
C241 C239 1.415 . S
C242 H232 0.930 . S
C242 C240 1.419 . S
C242 C243 1.362 . S
C243 H233 0.930 . S
C243 C236 1.409 . S
C243 C242 1.362 . S
H244 C250 0.930 . S
H245 C253 0.930 . S
H246 C254 0.930 . S
H247 C255 0.930 . S
H248 C258 0.930 . S
H249 C259 0.930 . S
C250 H244 0.930 . S
C250 C251 1.355 . S
C250 C252 1.415 . S
C251 C250 1.355 . S
C251 C253 1.419 . S
C252 C250 1.415 . S
C252 C257 1.425 . S
C252 C259 1.409 . S
C253 H245 0.930 . S
C253 C251 1.419 . S
C253 C254 1.362 . S
C254 H246 0.930 . S
C254 C253 1.362 . S
C254 C257 1.409 . S
C255 H247 0.930 . S
C255 C256 1.355 . S
C255 C257 1.415 . S
C256 C255 1.355 . S
C256 C258 1.419 . S
C257 C252 1.425 . S
C257 C254 1.409 . S
C257 C255 1.415 . S
C258 H248 0.930 . S
C258 C256 1.419 . S
C258 C259 1.362 . S
C259 H249 0.930 . S
C259 C252 1.409 . S
C259 C258 1.362 . S
H260 C266 0.930 . S
H261 C269 0.930 . S
H262 C270 0.930 . S
H263 C271 0.930 . S
H264 C274 0.930 . S
H265 C275 0.930 . S
C266 H260 0.930 . S
C266 C267 1.355 . S
C266 C268 1.415 . S
C267 C266 1.355 . S
C267 C269 1.419 . S
C268 C266 1.415 . S
C268 C273 1.425 . S
C268 C275 1.409 . S
C269 H261 0.930 . S
C269 C267 1.419 . S
C269 C270 1.362 . S
C270 H262 0.930 . S
C270 C269 1.362 . S
C270 C273 1.409 . S
C271 H263 0.930 . S
C271 C272 1.355 . S
C271 C273 1.415 . S
C272 C271 1.355 . S
C272 C274 1.419 . S
C273 C268 1.425 . S
C273 C270 1.409 . S
C273 C271 1.415 . S
C274 H264 0.930 . S
C274 C272 1.419 . S
C274 C275 1.362 . S
C275 H265 0.930 . S
C275 C268 1.409 . S
C275 C274 1.362 . S
H276 C282 0.930 . S
H277 C285 0.930 . S
H278 C286 0.930 . S
H279 C287 0.930 . S
H280 C290 0.930 . S
H281 C291 0.930 . S
C282 H276 0.930 . S
C282 C283 1.355 . S
C282 C284 1.415 . S
C283 C282 1.355 . S
C283 C285 1.419 . S
C284 C282 1.415 . S
C284 C289 1.425 . S
C284 C291 1.409 . S
C285 H277 0.930 . S
C285 C283 1.419 . S
C285 C286 1.362 . S
C286 H278 0.930 . S
C286 C285 1.362 . S
C286 C289 1.409 . S
C287 H279 0.930 . S
C287 C288 1.355 . S
C287 C289 1.415 . S
C288 C287 1.355 . S
C288 C290 1.419 . S
C289 C284 1.425 . S
C289 C286 1.409 . S
C289 C287 1.415 . S
C290 H280 0.930 . S
C290 C288 1.419 . S
C290 C291 1.362 . S
C291 H281 0.930 . S
C291 C284 1.409 . S
C291 C290 1.362 . S
H292 C298 0.930 . S
H293 C301 0.930 . S
H294 C302 0.930 . S
H295 C303 0.930 . S
H296 C306 0.930 . S
H297 C307 0.930 . S
C298 H292 0.930 . S
C298 C299 1.355 . S
C298 C300 1.415 . S
C299 C298 1.355 . S
C299 C301 1.419 1_455 S
C300 C298 1.415 . S
C300 C305 1.425 1_455 S
C300 C307 1.409 . S
C301 H293 0.930 . S
C301 C299 1.419 1_655 S
C301 C302 1.362 . S
C302 H294 0.930 . S
C302 C301 1.362 . S
C302 C305 1.409 . S
C303 H295 0.930 . S
C303 C304 1.355 . S
C303 C305 1.415 . S
C304 C303 1.355 . S
C304 C306 1.419 1_655 S
C305 C300 1.425 1_655 S
C305 C302 1.409 . S
C305 C303 1.415 . S
C306 H296 0.930 . S
C306 C304 1.419 1_455 S
C306 C307 1.362 . S
C307 H297 0.930 . S
C307 C300 1.409 . S
C307 C306 1.362 . S
H308 C314 0.930 . S
H309 C317 0.930 . S
H310 C318 0.930 . S
H311 C319 0.930 . S
H312 C322 0.930 . S
H313 C323 0.930 . S
C314 H308 0.930 . S
C314 C315 1.355 1_565 S
C314 C316 1.415 . S
C315 C314 1.355 1_545 S
C315 C317 1.419 . S
C316 C314 1.415 . S
C316 C321 1.425 . S
C316 C323 1.409 . S
C317 H309 0.930 . S
C317 C315 1.419 . S
C317 C318 1.362 . S
C318 H310 0.930 . S
C318 C317 1.362 . S
C318 C321 1.409 1_545 S
C319 H311 0.930 . S
C319 C320 1.355 . S
C319 C321 1.415 . S
C320 C319 1.355 . S
C320 C322 1.419 . S
C321 C316 1.425 . S
C321 C318 1.409 1_565 S
C321 C319 1.415 . S
C322 H312 0.930 . S
C322 C320 1.419 . S
C322 C323 1.362 . S
C323 H313 0.930 . S
C323 C316 1.409 . S
C323 C322 1.362 . S
H324 C330 0.930 . S
H325 C333 0.930 . S
H326 C334 0.930 . S
H327 C335 0.930 . S
H328 C338 0.930 . S
H329 C339 0.930 . S
C330 H324 0.930 . S
C330 C331 1.355 . S
C330 C332 1.415 . S
C331 C330 1.355 . S
C331 C333 1.419 . S
C332 C330 1.415 . S
C332 C337 1.425 . S
C332 C339 1.409 . S
C333 H325 0.930 . S
C333 C331 1.419 . S
C333 C334 1.362 . S
C334 H326 0.930 . S
C334 C333 1.362 . S
C334 C337 1.409 . S
C335 H327 0.930 . S
C335 C336 1.355 . S
C335 C337 1.415 . S
C336 C335 1.355 . S
C336 C338 1.419 . S
C337 C332 1.425 . S
C337 C334 1.409 . S
C337 C335 1.415 . S
C338 H328 0.930 . S
C338 C336 1.419 . S
C338 C339 1.362 . S
C339 H329 0.930 . S
C339 C332 1.409 . S
C339 C338 1.362 . S
H340 C346 0.930 . S
H341 C349 0.930 . S
H342 C350 0.930 . S
H343 C351 0.930 . S
H344 C354 0.930 . S
H345 C355 0.930 . S
C346 H340 0.930 . S
C346 C347 1.355 1_455 S
C346 C348 1.415 1_455 S
C347 C346 1.355 1_655 S
C347 C349 1.419 . S
C348 C346 1.415 1_655 S
C348 C353 1.425 . S
C348 C355 1.409 1_655 S
C349 H341 0.930 . S
C349 C347 1.419 . S
C349 C350 1.362 . S
C350 H342 0.930 . S
C350 C349 1.362 . S
C350 C353 1.409 . S
C351 H343 0.930 . S
C351 C352 1.355 . S
C351 C353 1.415 . S
C352 C351 1.355 . S
C352 C354 1.419 . S
C353 C348 1.425 . S
C353 C350 1.409 . S
C353 C351 1.415 . S
C354 H344 0.930 . S
C354 C352 1.419 . S
C354 C355 1.362 1_655 S
C355 H345 0.930 . S
C355 C348 1.409 1_455 S
C355 C354 1.362 1_455 S
H356 C362 0.930 . S
H357 C365 0.930 . S
H358 C366 0.930 . S
H359 C367 0.930 . S
H360 C370 0.931 . S
H361 C371 0.930 . S
C362 H356 0.930 . S
C362 C363 1.355 . S
C362 C364 1.415 . S
C363 C362 1.355 . S
C363 C365 1.419 1_565 S
C364 C362 1.415 . S
C364 C369 1.425 1_565 S
C364 C371 1.409 . S
C365 H357 0.930 . S
C365 C363 1.419 1_545 S
C365 C366 1.362 . S
C366 H358 0.930 . S
C366 C365 1.362 . S
C366 C369 1.409 . S
C367 H359 0.930 . S
C367 C368 1.355 . S
C367 C369 1.415 . S
C368 C367 1.355 . S
C368 C370 1.418 1_545 S
C369 C364 1.425 1_545 S
C369 C366 1.409 . S
C369 C367 1.415 . S
C370 H360 0.931 . S
C370 C368 1.418 1_565 S
C370 C371 1.362 . S
C371 H361 0.930 . S
C371 C364 1.409 . S
C371 C370 1.362 . S
H372 C378 0.930 . S
H373 C381 0.930 . S
H374 C382 0.930 . S
H375 C383 0.918 1_554 S
H376 C386 0.930 . S
H377 C387 0.930 . S
C378 H372 0.930 . S
C378 C379 1.355 . S
C378 C380 1.415 . S
C379 C378 1.355 . S
C379 C381 1.419 . S
C380 C378 1.415 . S
C380 C385 1.425 . S
C380 C387 1.409 . S
C381 H373 0.930 . S
C381 C379 1.419 . S
C381 C382 1.362 . S
C382 H374 0.930 . S
C382 C381 1.362 . S
C382 C385 1.409 . S
C383 H375 0.918 1_556 S
C383 C384 1.353 1_556 S
C383 C385 1.428 . S
C384 C383 1.353 1_554 S
C384 C386 1.419 1_554 S
C385 C380 1.425 . S
C385 C382 1.409 . S
C385 C383 1.428 . S
C386 H376 0.930 . S
C386 C384 1.419 1_556 S
C386 C387 1.362 . S
C387 H377 0.930 . S
C387 C380 1.409 . S
C387 C386 1.362 . S
H388 C394 0.930 . S
H389 C397 0.930 . S
H390 C398 0.930 . S
H391 C399 0.930 . S
H392 C402 0.930 1_655 S
H393 C403 0.930 . S
C394 H388 0.930 . S
C394 C395 1.355 . S
C394 C396 1.415 . S
C395 C394 1.355 . S
C395 C397 1.419 . S
C396 C394 1.415 . S
C396 C401 1.425 1_655 S
C396 C403 1.409 . S
C397 H389 0.930 . S
C397 C395 1.419 . S
C397 C398 1.362 1_655 S
C398 H390 0.930 . S
C398 C397 1.362 1_455 S
C398 C401 1.409 . S
C399 H391 0.930 . S
C399 C400 1.355 . S
C399 C401 1.415 . S
C400 C399 1.355 . S
C400 C402 1.420 . S
C401 C396 1.425 1_455 S
C401 C398 1.409 . S
C401 C399 1.415 . S
C402 H392 0.930 1_455 S
C402 C400 1.420 . S
C402 C403 1.362 1_455 S
C403 H393 0.930 . S
C403 C396 1.409 . S
C403 C402 1.362 1_655 S
H404 C410 0.930 1_545 S
H405 C413 0.930 . S
H406 C414 0.930 . S
H407 C415 0.930 . S
H408 C418 0.930 . S
H409 C419 0.930 . S
C410 H404 0.930 1_565 S
C410 C411 1.355 . S
C410 C412 1.415 1_565 S
C411 C410 1.355 . S
C411 C413 1.419 . S
C412 C410 1.415 1_545 S
C412 C417 1.425 1_545 S
C412 C419 1.409 . S
C413 H405 0.930 . S
C413 C411 1.419 . S
C413 C414 1.362 . S
C414 H406 0.930 . S
C414 C413 1.362 . S
C414 C417 1.409 . S
C415 H407 0.930 . S
C415 C416 1.355 1_565 S
C415 C417 1.415 . S
C416 C415 1.355 1_545 S
C416 C418 1.419 . S
C417 C412 1.425 1_565 S
C417 C414 1.409 . S
C417 C415 1.415 . S
C418 H408 0.930 . S
C418 C416 1.419 . S
C418 C419 1.362 . S
C419 H409 0.930 . S
C419 C412 1.409 . S
C419 C418 1.362 . S
H420 C426 0.930 . S
H421 C429 0.930 . S
H422 C430 0.930 . S
H423 C431 0.930 . S
H424 C434 0.930 . S
H425 C435 0.930 . S
C426 H420 0.930 . S
C426 C427 1.355 . S
C426 C428 1.415 . S
C427 C426 1.355 . S
C427 C429 1.419 . S
C428 C426 1.415 . S
C428 C433 1.425 . S
C428 C435 1.409 . S
C429 H421 0.930 . S
C429 C427 1.419 . S
C429 C430 1.362 . S
C430 H422 0.930 . S
C430 C429 1.362 . S
C430 C433 1.409 . S
C431 H423 0.930 . S
C431 C432 1.355 1_556 S
C431 C433 1.415 . S
C432 C431 1.355 1_554 S
C432 C434 1.419 . S
C433 C428 1.425 . S
C433 C430 1.409 . S
C433 C431 1.415 . S
C434 H424 0.930 . S
C434 C432 1.419 . S
C434 C435 1.362 1_554 S
C435 H425 0.930 . S
C435 C428 1.409 . S
C435 C434 1.362 1_556 S
H436 C442 0.930 . S
H437 C445 0.930 . S
H438 C446 0.930 . S
H439 C447 0.930 1_455 S
H440 C450 0.930 . S
H441 C451 0.930 . S
C442 H436 0.930 . S
C442 C443 1.355 1_655 S
C442 C444 1.415 . S
C443 C442 1.355 1_455 S
C443 C445 1.419 . S
C444 C442 1.415 . S
C444 C449 1.425 1_655 S
C444 C451 1.409 . S
C445 H437 0.930 . S
C445 C443 1.419 . S
C445 C446 1.362 . S
C446 H438 0.930 . S
C446 C445 1.362 . S
C446 C449 1.409 . S
C447 H439 0.930 1_655 S
C447 C448 1.355 . S
C447 C449 1.415 1_655 S
C448 C447 1.355 . S
C448 C450 1.419 . S
C449 C444 1.425 1_455 S
C449 C446 1.409 . S
C449 C447 1.415 1_455 S
C450 H440 0.930 . S
C450 C448 1.419 . S
C450 C451 1.362 . S
C451 H441 0.930 . S
C451 C444 1.409 . S
C451 C450 1.362 . S
H452 C458 0.930 . S
H453 C461 0.930 . S
H454 C462 0.930 . S
H455 C463 0.930 . S
H456 C466 0.930 1_545 S
H457 C467 0.930 . S
C458 H452 0.930 . S
C458 C459 1.355 . S
C458 C460 1.415 . S
C459 C458 1.355 . S
C459 C461 1.419 1_545 S
C460 C458 1.415 . S
C460 C465 1.425 1_545 S
C460 C467 1.409 . S
C461 H453 0.930 . S
C461 C459 1.419 1_565 S
C461 C462 1.362 . S
C462 H454 0.930 . S
C462 C461 1.362 . S
C462 C465 1.409 . S
C463 H455 0.930 . S
C463 C464 1.355 . S
C463 C465 1.415 . S
C464 C463 1.355 . S
C464 C466 1.419 . S
C465 C460 1.425 1_565 S
C465 C462 1.409 . S
C465 C463 1.415 . S
C466 H456 0.930 1_565 S
C466 C464 1.419 . S
C466 C467 1.362 1_565 S
C467 H457 0.930 . S
C467 C460 1.409 . S
C467 C466 1.362 1_545 S
C187 C147 0.875 . S
C192 N6 0.851 . S
C203 N156 0.852 . S
C208 C57 0.876 . S
C219 C27 0.885 . S
C224 N66 0.864 . S
C235 N36 0.942 . S
C240 C117 0.934 . S
C251 C87 0.931 . S
C256 N126 0.939 . S
C267 N96 0.939 . S
C272 C177 0.935 . S
C283 C1 1.527 . S
C288 C100 1.584 . S
C299 C121 1.568 . S
C304 C40 1.606 . S
C315 C160 1.525 . S
C320 C61 1.541 . S
C331 C70 1.565 . S
C336 C151 1.582 . S
C347 C10 1.578 1_655 S
C352 C91 1.589 . S
C363 C130 1.578 . S
C368 C31 1.589 . S
C379 N164 0.854 . S
C384 N14 0.861 . S
C395 C46 0.914 . S
C400 C16 0.828 . S
C411 N74 0.855 . S
C416 N44 0.866 . S
C427 C76 0.856 . S
C432 C106 0.888 . S
C443 N134 0.855 . S
C448 N104 0.863 . S
C459 C166 0.884 . S
C464 C136 0.861 . S
