# Generated by pormake.
# Topology crs, (6)-cn, num edge types: 1
# Building blocks:
#     Node 0, Type 0, BuildingBlock: BETDIP_clean_sbu_0, # of connection points: 6
#     Node 1, Type 0, BuildingBlock: BETDIP_clean_sbu_0, # of connection points: 6
#     Node 2, Type 0, BuildingBlock: BETDIP_clean_sbu_0, # of connection points: 6
#     Node 3, Type 0, BuildingBlock: BETDIP_clean_sbu_0, # of connection points: 6
#     Node 4, Type 0, BuildingBlock: BETDIP_clean_sbu_0, # of connection points: 6
#     Node 5, Type 0, BuildingBlock: BETDIP_clean_sbu_0, # of connection points: 6
#     Node 6, Type 0, BuildingBlock: BETDIP_clean_sbu_0, # of connection points: 6
#     Node 7, Type 0, BuildingBlock: BETDIP_clean_sbu_0, # of connection points: 6
#     Node 8, Type 0, BuildingBlock: BETDIP_clean_sbu_0, # of connection points: 6
#     Node 9, Type 0, BuildingBlock: BETDIP_clean_sbu_0, # of connection points: 6
#     Node 10, Type 0, BuildingBlock: BETDIP_clean_sbu_0, # of connection points: 6
#     Node 11, Type 0, BuildingBlock: BETDIP_clean_sbu_0, # of connection points: 6
#     Node 12, Type 0, BuildingBlock: BETDIP_clean_sbu_0, # of connection points: 6
#     Node 13, Type 0, BuildingBlock: BETDIP_clean_sbu_0, # of connection points: 6
#     Node 14, Type 0, BuildingBlock: BETDIP_clean_sbu_0, # of connection points: 6
#     Node 15, Type 0, BuildingBlock: BETDIP_clean_sbu_0, # of connection points: 6
#     Edge 16, Type (0, 0), BuildingBlock: UVAHIK_clean_linker_0, # of connection points: 2
#     Edge 17, Type (0, 0), BuildingBlock: UVAHIK_clean_linker_0, # of connection points: 2
#     Edge 18, Type (0, 0), BuildingBlock: UVAHIK_clean_linker_0, # of connection points: 2
#     Edge 19, Type (0, 0), BuildingBlock: UVAHIK_clean_linker_0, # of connection points: 2
#     Edge 20, Type (0, 0), BuildingBlock: UVAHIK_clean_linker_0, # of connection points: 2
#     Edge 21, Type (0, 0), BuildingBlock: UVAHIK_clean_linker_0, # of connection points: 2
#     Edge 22, Type (0, 0), BuildingBlock: UVAHIK_clean_linker_0, # of connection points: 2
#     Edge 23, Type (0, 0), BuildingBlock: UVAHIK_clean_linker_0, # of connection points: 2
#     Edge 24, Type (0, 0), BuildingBlock: UVAHIK_clean_linker_0, # of connection points: 2
#     Edge 25, Type (0, 0), BuildingBlock: UVAHIK_clean_linker_0, # of connection points: 2
#     Edge 26, Type (0, 0), BuildingBlock: UVAHIK_clean_linker_0, # of connection points: 2
#     Edge 27, Type (0, 0), BuildingBlock: UVAHIK_clean_linker_0, # of connection points: 2
#     Edge 28, Type (0, 0), BuildingBlock: UVAHIK_clean_linker_0, # of connection points: 2
#     Edge 29, Type (0, 0), BuildingBlock: UVAHIK_clean_linker_0, # of connection points: 2
#     Edge 30, Type (0, 0), BuildingBlock: UVAHIK_clean_linker_0, # of connection points: 2
#     Edge 31, Type (0, 0), BuildingBlock: UVAHIK_clean_linker_0, # of connection points: 2
#     Edge 32, Type (0, 0), BuildingBlock: UVAHIK_clean_linker_0, # of connection points: 2
#     Edge 33, Type (0, 0), BuildingBlock: UVAHIK_clean_linker_0, # of connection points: 2
#     Edge 34, Type (0, 0), BuildingBlock: UVAHIK_clean_linker_0, # of connection points: 2
#     Edge 35, Type (0, 0), BuildingBlock: UVAHIK_clean_linker_0, # of connection points: 2
#     Edge 36, Type (0, 0), BuildingBlock: UVAHIK_clean_linker_0, # of connection points: 2
#     Edge 37, Type (0, 0), BuildingBlock: UVAHIK_clean_linker_0, # of connection points: 2
#     Edge 38, Type (0, 0), BuildingBlock: UVAHIK_clean_linker_0, # of connection points: 2
#     Edge 39, Type (0, 0), BuildingBlock: UVAHIK_clean_linker_0, # of connection points: 2
#     Edge 40, Type (0, 0), BuildingBlock: UVAHIK_clean_linker_0, # of connection points: 2
#     Edge 41, Type (0, 0), BuildingBlock: UVAHIK_clean_linker_0, # of connection points: 2
#     Edge 42, Type (0, 0), BuildingBlock: UVAHIK_clean_linker_0, # of connection points: 2
#     Edge 43, Type (0, 0), BuildingBlock: UVAHIK_clean_linker_0, # of connection points: 2
#     Edge 44, Type (0, 0), BuildingBlock: UVAHIK_clean_linker_0, # of connection points: 2
#     Edge 45, Type (0, 0), BuildingBlock: UVAHIK_clean_linker_0, # of connection points: 2
#     Edge 46, Type (0, 0), BuildingBlock: UVAHIK_clean_linker_0, # of connection points: 2
#     Edge 47, Type (0, 0), BuildingBlock: UVAHIK_clean_linker_0, # of connection points: 2
#     Edge 48, Type (0, 0), BuildingBlock: UVAHIK_clean_linker_0, # of connection points: 2
#     Edge 49, Type (0, 0), BuildingBlock: UVAHIK_clean_linker_0, # of connection points: 2
#     Edge 50, Type (0, 0), BuildingBlock: UVAHIK_clean_linker_0, # of connection points: 2
#     Edge 51, Type (0, 0), BuildingBlock: UVAHIK_clean_linker_0, # of connection points: 2
#     Edge 52, Type (0, 0), BuildingBlock: UVAHIK_clean_linker_0, # of connection points: 2
#     Edge 53, Type (0, 0), BuildingBlock: UVAHIK_clean_linker_0, # of connection points: 2
#     Edge 54, Type (0, 0), BuildingBlock: UVAHIK_clean_linker_0, # of connection points: 2
#     Edge 55, Type (0, 0), BuildingBlock: UVAHIK_clean_linker_0, # of connection points: 2
#     Edge 56, Type (0, 0), BuildingBlock: UVAHIK_clean_linker_0, # of connection points: 2
#     Edge 57, Type (0, 0), BuildingBlock: UVAHIK_clean_linker_0, # of connection points: 2
#     Edge 58, Type (0, 0), BuildingBlock: UVAHIK_clean_linker_0, # of connection points: 2
#     Edge 59, Type (0, 0), BuildingBlock: UVAHIK_clean_linker_0, # of connection points: 2
#     Edge 60, Type (0, 0), BuildingBlock: UVAHIK_clean_linker_0, # of connection points: 2
#     Edge 61, Type (0, 0), BuildingBlock: UVAHIK_clean_linker_0, # of connection points: 2
#     Edge 62, Type (0, 0), BuildingBlock: UVAHIK_clean_linker_0, # of connection points: 2
#     Edge 63, Type (0, 0), BuildingBlock: UVAHIK_clean_linker_0, # of connection points: 2
# Relax obj value: 0.365
# Max RMSD: 0.301
# Mean RMSD: 0.297
data_MOF--net-crs--node1-BETDIP_clean_sbu_0--edge1-UVAHIK_clean_linker_0
_symmetry_space_group_name_H-M    P1
_symmetry_Int_Tables_number       1
_symmetry_cell_setting            triclinic
loop_
_symmetry_equiv_pos_as_xyz
'x, y, z'
_cell_length_a     48.734395
_cell_length_b     79.483456
_cell_length_c     57.015869
_cell_angle_alpha  90.089437
_cell_angle_beta   90.085236
_cell_angle_gamma 66.987912
loop_
_atom_site_label
_atom_site_type_symbol
_atom_site_fract_x
_atom_site_fract_y
_atom_site_fract_z
_atom_type_partial_charge
Tb0 Tb 0.95915 0.00799 0.01185 0.0
Tb1 Tb 0.02344 0.9978 0.99598 0.0
C2 C 0.90696 0.00951 0.01354 0.0
C3 C 0.89565 0.99528 0.00737 0.0
C4 C 0.89598 0.98935 0.98402 0.0
C5 C 0.89122 0.97344 0.97906 0.0
C6 C 0.88638 0.96316 0.99738 0.0
C7 C 0.88413 0.96971 0.02047 0.0
C8 C 0.88846 0.9857 0.02539 0.0
C9 C -0.0011 1.00107 0.04536 0.0
C10 C -0.00021 0.96713 0.99419 0.0
C11 C 0.07648 0.99486 0.99325 0.0
C12 C 0.09025 0.00824 0.99625 0.0
C13 C 0.08127 0.02125 0.01441 0.0
C14 C 0.09 0.03604 0.01429 0.0
C15 C 0.10769 0.03811 0.99595 0.0
C16 C 0.1183 0.02437 0.97876 0.0
C17 C 0.10962 0.00958 0.97891 0.0
C18 C 0.98345 0.00497 0.9626 0.0
C19 C 0.98235 0.03891 0.01323 0.0
O20 O 0.91684 0.01647 0.99624 0.0
O21 O 0.92473 0.00572 0.0318 0.0
O22 O 0.0022 0.99283 0.02601 0.0
O23 O 0.97164 0.01294 0.04712 0.0
O24 O 0.97302 0.98009 0.99788 0.0
O25 O 0.0244 0.97033 0.99583 0.0
O26 O 0.06529 0.99047 0.01203 0.0
O27 O 0.05871 0.99787 0.97511 0.0
O28 O 0.98047 0.01307 0.98197 0.0
O29 O 0.01049 0.99288 0.96072 0.0
O30 O 0.00919 0.02614 0.00876 0.0
O31 O 0.95787 0.03548 0.01256 0.0
H32 H 0.9014 0.99641 0.96969 0.0
H33 H 0.89311 0.96861 0.96112 0.0
H34 H 0.88005 0.96209 0.03484 0.0
H35 H 0.88785 0.99 0.0435 0.0
H36 H 0.06622 0.02057 0.02799 0.0
H37 H 0.08135 0.04642 0.02774 0.0
H38 H 0.13246 0.02539 0.96468 0.0
H39 H 0.11685 0.99967 0.96479 0.0
Tb40 Tb 0.01393 0.2624 0.2619 0.0
Tb41 Tb 0.97569 0.24667 0.2357 0.0
C42 C 0.03482 0.28067 0.28703 0.0
C43 C 0.02555 0.29468 0.30577 0.0
C44 C 0.02316 0.31247 0.30061 0.0
C45 C 0.01721 0.32558 0.31832 0.0
C46 C 0.01366 0.32119 0.3417 0.0
C47 C 0.01543 0.30348 0.34681 0.0
C48 C 0.02132 0.29035 0.32904 0.0
C49 C 0.04102 0.22734 0.251 0.0
C50 C 0.96746 0.25112 0.28917 0.0
C51 C 0.95392 0.22879 0.2107 0.0
C52 C 0.96155 0.21613 0.19058 0.0
C53 C 0.99013 0.20232 0.18782 0.0
C54 C 0.9957 0.18942 0.16978 0.0
C55 C 0.97285 0.19017 0.15414 0.0
C56 C 0.94458 0.20441 0.15659 0.0
C57 C 0.93902 0.21721 0.17464 0.0
C58 C 0.94871 0.28171 0.24685 0.0
C59 C 0.02185 0.25822 0.20816 0.0
O60 O 0.02305 0.28587 0.2663 0.0
O61 O 0.03714 0.26412 0.29225 0.0
O62 O 0.01434 0.23549 0.25727 0.0
O63 O 0.05423 0.23859 0.25262 0.0
O64 O 0.98037 0.26296 0.28783 0.0
O65 O 0.96671 0.24086 0.27117 0.0
O66 O 0.96852 0.22268 0.23023 0.0
O67 O 0.94995 0.24575 0.20644 0.0
O68 O 0.9753 0.27354 0.24037 0.0
O69 O 0.9355 0.27043 0.24555 0.0
O70 O 0.00825 0.24673 0.20931 0.0
O71 O 0.0235 0.26796 0.22647 0.0
H72 H 0.02668 0.31614 0.28291 0.0
H73 H 0.01647 0.33897 0.31378 0.0
H74 H 0.0125 0.29972 0.3646 0.0
H75 H 0.0231 0.27674 0.33363 0.0
H76 H 0.00794 0.20128 0.19986 0.0
H77 H 0.0178 0.17876 0.1682 0.0
H78 H 0.92637 0.20527 0.14509 0.0
H79 H 0.91679 0.22771 0.17654 0.0
Tb80 Tb 0.77999 0.24955 0.50656 0.0
Tb81 Tb 0.71529 0.25901 0.49197 0.0
C82 C 0.83286 0.24704 0.50753 0.0
C83 C 0.84669 0.25985 0.50069 0.0
C84 C 0.84246 0.26774 0.47822 0.0
C85 C 0.8523 0.28168 0.47319 0.0
C86 C 0.86634 0.28813 0.49056 0.0
C87 C 0.87147 0.27968 0.51274 0.0
C88 C 0.8619 0.26565 0.51768 0.0
C89 C 0.74065 0.25898 0.54044 0.0
C90 C 0.73892 0.28941 0.48586 0.0
C91 C 0.66271 0.26103 0.49148 0.0
C92 C 0.65058 0.24716 0.4973 0.0
C93 C 0.65496 0.23887 0.51958 0.0
C94 C 0.64843 0.22343 0.52338 0.0
C95 C 0.63779 0.21593 0.50491 0.0
C96 C 0.63169 0.2249 0.48313 0.0
C97 C 0.63786 0.24042 0.47941 0.0
C98 C 0.75471 0.24957 0.45808 0.0
C99 C 0.75619 0.21907 0.51252 0.0
O100 O 0.82213 0.24015 0.49066 0.0
O101 O 0.81484 0.25226 0.52555 0.0
O102 O 0.73729 0.26582 0.52024 0.0
O103 O 0.76766 0.24692 0.54274 0.0
O104 O 0.76586 0.27665 0.48992 0.0
O105 O 0.71435 0.28632 0.48879 0.0
O106 O 0.67382 0.26723 0.50882 0.0
O107 O 0.67971 0.25736 0.47282 0.0
O108 O 0.75798 0.24276 0.4783 0.0
O109 O 0.72763 0.26156 0.45574 0.0
O110 O 0.72939 0.23172 0.50783 0.0
O111 O 0.7808 0.22225 0.51041 0.0
H112 H 0.83069 0.26361 0.46476 0.0
H113 H 0.84832 0.28766 0.45582 0.0
H114 H 0.88171 0.28442 0.52673 0.0
H115 H 0.86526 0.25985 0.53515 0.0
H116 H 0.6648 0.2437 0.53374 0.0
H117 H 0.65342 0.21674 0.54031 0.0
H118 H 0.62306 0.21952 0.46871 0.0
H119 H 0.63414 0.24659 0.46215 0.0
Tb120 Tb 0.72611 0.9955 0.76045 0.0
Tb121 Tb 0.76484 0.01186 0.73641 0.0
C122 C 0.70314 0.97714 0.78315 0.0
C123 C 0.70871 0.96475 0.80328 0.0
C124 C 0.73673 0.95704 0.81416 0.0
C125 C 0.74122 0.94482 0.83289 0.0
C126 C 0.71774 0.94021 0.84098 0.0
C127 C 0.68975 0.94812 0.82995 0.0
C128 C 0.68532 0.96028 0.81134 0.0
C129 C 0.69967 0.03087 0.75149 0.0
C130 C 0.77233 0.00592 0.78984 0.0
C131 C 0.78724 0.03005 0.71282 0.0
C132 C 0.77962 0.04303 0.6931 0.0
C133 C 0.75087 0.05665 0.6903 0.0
C134 C 0.74509 0.06963 0.67238 0.0
C135 C 0.76788 0.0691 0.65688 0.0
C136 C 0.79637 0.05512 0.65944 0.0
C137 C 0.80216 0.04225 0.67739 0.0
C138 C 0.79108 0.97646 0.74545 0.0
C139 C 0.71746 1.00243 0.70725 0.0
O140 O 0.72031 0.97095 0.76486 0.0
O141 O 0.69818 0.99421 0.78778 0.0
O142 O 0.72623 0.02243 0.75797 0.0
O143 O 0.68629 0.01967 0.75139 0.0
O144 O 0.75873 0.99447 0.78761 0.0
O145 O 0.77381 0.01645 0.77243 0.0
O146 O 0.77254 0.03581 0.73239 0.0
O147 O 0.79113 0.0132 0.70785 0.0
O148 O 0.76463 0.98497 0.73879 0.0
O149 O 0.80453 0.98763 0.74569 0.0
O150 O 0.73141 0.01364 0.70975 0.0
O151 O 0.7163 0.99156 0.72435 0.0
H152 H 0.75506 0.96037 0.80809 0.0
H153 H 0.76299 0.93907 0.84109 0.0
H154 H 0.67134 0.94463 0.83532 0.0
H155 H 0.6636 0.96603 0.80303 0.0
H156 H 0.73305 0.05743 0.70215 0.0
H157 H 0.72284 0.08012 0.67072 0.0
H158 H 0.81452 0.05445 0.64803 0.0
H159 H 0.82449 0.03188 0.67932 0.0
Tb160 Tb 0.51143 0.76171 0.2669 0.0
Tb161 Tb 0.47558 0.74753 0.23569 0.0
C162 C 0.53094 0.77879 0.29525 0.0
C163 C 0.5221 0.79152 0.31532 0.0
C164 C 0.49434 0.80635 0.31617 0.0
C165 C 0.48837 0.8196 0.33382 0.0
C166 C 0.51 0.81825 0.35095 0.0
C167 C 0.53725 0.80295 0.35051 0.0
C168 C 0.5432 0.78977 0.33287 0.0
C169 C 0.53955 0.72718 0.2539 0.0
C170 C 0.46281 0.74904 0.28867 0.0
C171 C 0.45466 0.73153 0.20706 0.0
C172 C 0.46311 0.71897 0.18696 0.0
C173 C 0.49195 0.70541 0.18458 0.0
C174 C 0.49812 0.69227 0.1668 0.0
C175 C 0.47555 0.69254 0.15115 0.0
C176 C 0.44707 0.70662 0.15314 0.0
C177 C 0.44095 0.71969 0.17088 0.0
C178 C 0.44792 0.78209 0.24899 0.0
C179 C 0.52488 0.75899 0.21378 0.0
O180 O 0.51899 0.78521 0.27493 0.0
O181 O 0.53322 0.76203 0.29876 0.0
O182 O 0.51233 0.73503 0.2589 0.0
O183 O 0.55244 0.73837 0.25797 0.0
O184 O 0.47668 0.76039 0.29045 0.0
O185 O 0.46301 0.74022 0.26907 0.0
O186 O 0.46629 0.72471 0.22733 0.0
O187 O 0.4537 0.74803 0.20372 0.0
O188 O 0.47493 0.77409 0.24363 0.0
O189 O 0.43483 0.771 0.24521 0.0
O190 O 0.51137 0.74748 0.21259 0.0
O191 O 0.52425 0.76843 0.23297 0.0
H192 H 0.47762 0.80797 0.30285 0.0
H193 H 0.467 0.83107 0.33382 0.0
H194 H 0.55458 0.80155 0.36319 0.0
H195 H 0.56483 0.77852 0.33245 0.0
H196 H 0.50941 0.70469 0.19682 0.0
H197 H 0.52037 0.68173 0.16556 0.0
H198 H 0.42906 0.70711 0.14165 0.0
H199 H 0.41854 0.73001 0.17255 0.0
Tb200 Tb 0.28334 0.75493 0.52371 0.0
Tb201 Tb 0.22597 0.75669 0.49963 0.0
C202 C 0.33037 0.75837 0.53565 0.0
C203 C 0.34524 0.76998 0.52675 0.0
C204 C 0.33989 0.77692 0.50384 0.0
C205 C 0.35062 0.78994 0.49648 0.0
C206 C 0.36637 0.79662 0.51207 0.0
C207 C 0.37252 0.78918 0.53483 0.0
C208 C 0.36207 0.77595 0.54206 0.0
C209 C 0.23789 0.75942 0.55129 0.0
C210 C 0.24267 0.79092 0.49536 0.0
C211 C 0.17395 0.76028 0.48984 0.0
C212 C 0.16136 0.74656 0.48472 0.0
C213 C 0.13697 0.74662 0.49782 0.0
C214 C 0.12793 0.73199 0.49624 0.0
C215 C 0.14303 0.7171 0.4814 0.0
C216 C 0.16654 0.71748 0.46747 0.0
C217 C 0.17576 0.73201 0.46922 0.0
C218 C 0.27554 0.74038 0.47538 0.0
C219 C 0.26882 0.72009 0.52337 0.0
O220 O 0.32996 0.74533 0.52164 0.0
O221 O 0.30448 0.76736 0.54554 0.0
O222 O 0.23695 0.76645 0.53146 0.0
O223 O 0.26532 0.74979 0.55675 0.0
O224 O 0.26838 0.78142 0.50587 0.0
O225 O 0.2218 0.78437 0.49229 0.0
O226 O 0.18365 0.75976 0.5114 0.0
O227 O 0.19234 0.76223 0.47427 0.0
O228 O 0.26925 0.75396 0.48871 0.0
O229 O 0.25224 0.7364 0.4735 0.0
O230 O 0.24093 0.73089 0.51837 0.0
O231 O 0.29083 0.72598 0.52282 0.0
H232 H 0.32633 0.77292 0.49186 0.0
H233 H 0.34578 0.79516 0.47875 0.0
H234 H 0.38417 0.79417 0.54745 0.0
H235 H 0.36605 0.77095 0.55994 0.0
H236 H 0.12574 0.75762 0.51005 0.0
H237 H 0.10958 0.73212 0.50704 0.0
H238 H 0.17881 0.7061 0.45608 0.0
H239 H 0.19494 0.73144 0.45916 0.0
Tb240 Tb 0.23069 0.49791 0.76413 0.0
Tb241 Tb 0.26918 0.51044 0.73433 0.0
C242 C 0.20751 0.48246 0.79163 0.0
C243 C 0.21345 0.47018 0.81199 0.0
C244 C 0.24 0.45455 0.81409 0.0
C245 C 0.24263 0.44145 0.83129 0.0
C246 C 0.21873 0.44376 0.84654 0.0
C247 C 0.19297 0.45996 0.84521 0.0
C248 C 0.19037 0.47302 0.82808 0.0
C249 C 0.20404 0.53197 0.7489 0.0
C250 C 0.27777 0.51075 0.78792 0.0
C251 C 0.29308 0.5252 0.7065 0.0
C252 C 0.28783 0.53673 0.68543 0.0
C253 C 0.26344 0.55361 0.68373 0.0
C254 C 0.26205 0.5657 0.66551 0.0
C255 C 0.28502 0.56112 0.64876 0.0
C256 C 0.30839 0.54376 0.64977 0.0
C257 C 0.30979 0.53172 0.66796 0.0
C258 C 0.29529 0.47633 0.74978 0.0
C259 C 0.2214 0.49836 0.71051 0.0
O260 O 0.22075 0.47528 0.77199 0.0
O261 O 0.20645 0.49898 0.79507 0.0
O262 O 0.23075 0.52426 0.75543 0.0
O263 O 0.19085 0.52092 0.75247 0.0
O264 O 0.26374 0.4995 0.78925 0.0
O265 O 0.27925 0.51885 0.7681 0.0
O266 O 0.27914 0.53294 0.7257 0.0
O267 O 0.29454 0.50851 0.70384 0.0
O268 O 0.26882 0.48421 0.74293 0.0
O269 O 0.30875 0.48728 0.74653 0.0
O270 O 0.23564 0.50949 0.7093 0.0
O271 O 0.22031 0.48994 0.73016 0.0
H272 H 0.25813 0.45208 0.80183 0.0
H273 H 0.26272 0.42908 0.83183 0.0
H274 H 0.1744 0.46228 0.85697 0.0
H275 H 0.16973 0.48499 0.82674 0.0
H276 H 0.24617 0.55781 0.697 0.0
H277 H 0.24382 0.579 0.66531 0.0
H278 H 0.32612 0.53969 0.63689 0.0
H279 H 0.32879 0.51877 0.66895 0.0
Tb280 Tb 0.96371 0.50902 0.50759 0.0
Tb281 Tb 0.02566 0.50205 0.4885 0.0
C282 C 0.913 0.50838 0.51135 0.0
C283 C 0.90307 0.49344 0.50582 0.0
C284 C 0.90372 0.48703 0.48269 0.0
C285 C 0.89978 0.47079 0.47831 0.0
C286 C 0.89546 0.46062 0.497 0.0
C287 C 0.89312 0.46755 0.51991 0.0
C288 C 0.89666 0.48387 0.52425 0.0
C289 C 0.00578 0.50166 0.53906 0.0
C290 C 0.00592 0.46965 0.48642 0.0
C291 C 0.07699 0.50166 0.48278 0.0
C292 C 0.08932 0.51569 0.48627 0.0
C293 C 0.07976 0.52814 0.50499 0.0
C294 C 0.0876 0.54326 0.50588 0.0
C295 C 0.10527 0.54618 0.48812 0.0
C296 C 0.11623 0.53306 0.47017 0.0
C297 C 0.10821 0.51801 0.46922 0.0
C298 C 0.98286 0.50959 0.45747 0.0
C299 C 0.98314 0.54145 0.50998 0.0
O300 O 0.92081 0.51601 0.49361 0.0
O301 O 0.93178 0.50506 0.52889 0.0
O302 O 0.00848 0.49442 0.51904 0.0
O303 O 0.97821 0.51245 0.54271 0.0
O304 O 0.97896 0.48158 0.49209 0.0
O305 O 0.02954 0.47397 0.48663 0.0
O306 O 0.06885 0.49543 0.50166 0.0
O307 O 0.05724 0.50522 0.46596 0.0
O308 O 0.98112 0.51672 0.47738 0.0
O309 O 0.01005 0.49825 0.45369 0.0
O310 O 0.01014 0.52966 0.50391 0.0
O311 O 0.95963 0.53703 0.50999 0.0
H312 H 0.90862 0.49406 0.46806 0.0
H313 H 0.90171 0.4657 0.4605 0.0
H314 H 0.88934 0.46007 0.53457 0.0
H315 H 0.89588 0.48853 0.54221 0.0
H316 H 0.06514 0.52666 0.5184 0.0
H317 H 0.07852 0.55312 0.51985 0.0
H318 H 0.13044 0.53465 0.45651 0.0
H319 H 0.11586 0.50853 0.45467 0.0
Tb320 Tb 0.26687 0.25315 0.01194 0.0
Tb321 Tb 0.22368 0.24881 0.97702 0.0
C322 C 0.31234 0.25177 0.03371 0.0
C323 C 0.32812 0.2642 0.03339 0.0
C324 C 0.33299 0.27153 0.01214 0.0
C325 C 0.34329 0.28561 0.01218 0.0
C326 C 0.34856 0.29275 0.03346 0.0
C327 C 0.34493 0.28488 0.05468 0.0
C328 C 0.33486 0.27066 0.05462 0.0
C329 C 0.21109 0.26494 0.02591 0.0
C330 C 0.23446 0.28611 0.97863 0.0
C331 C 0.17838 0.24947 0.95562 0.0
C332 C 0.16318 0.23658 0.95658 0.0
C333 C 0.14513 0.23654 0.97581 0.0
C334 C 0.13536 0.22233 0.97874 0.0
C335 C 0.14318 0.20795 0.96241 0.0
C336 C 0.15949 0.20867 0.94238 0.0
C337 C 0.1693 0.22285 0.93947 0.0
C338 C 0.27968 0.23695 0.9635 0.0
C339 C 0.25642 0.21579 0.01003 0.0
O340 O 0.31348 0.24253 0.01439 0.0
O341 O 0.28546 0.25883 0.04258 0.0
O342 O 0.22486 0.25089 0.01398 0.0
O343 O 0.22947 0.27233 0.03205 0.0
O344 O 0.25811 0.27792 0.99204 0.0
O345 O 0.21667 0.27778 0.9723 0.0
O346 O 0.17706 0.25906 0.97464 0.0
O347 O 0.20515 0.24295 0.94645 0.0
O348 O 0.26553 0.25109 0.97507 0.0
O349 O 0.26156 0.22937 0.95731 0.0
O350 O 0.23272 0.22395 0.9967 0.0
O351 O 0.27398 0.2242 0.01651 0.0
H352 H 0.32758 0.26699 0.99551 0.0
H353 H 0.34555 0.29158 0.9956 0.0
H354 H 0.34904 0.29009 0.07131 0.0
H355 H 0.33105 0.26526 0.07119 0.0
H356 H 0.13945 0.24709 0.9891 0.0
H357 H 0.12227 0.22237 0.99409 0.0
H358 H 0.166 0.19778 0.9295 0.0
H359 H 0.18291 0.22259 0.92435 0.0
Tb360 Tb 0.2246 0.996 0.26282 0.0
Tb361 Tb 0.26267 0.01295 0.23951 0.0
C362 C 0.2026 0.97735 0.28581 0.0
C363 C 0.20916 0.96508 0.30624 0.0
C364 C 0.23625 0.94984 0.3085 0.0
C365 C 0.24035 0.93743 0.32689 0.0
C366 C 0.21745 0.94007 0.34328 0.0
C367 C 0.19096 0.95579 0.34148 0.0
C368 C 0.18685 0.9681 0.32311 0.0
C369 C 0.19748 0.03139 0.25426 0.0
C370 C 0.27075 0.00614 0.29271 0.0
C371 C 0.28413 0.03202 0.21678 0.0
C372 C 0.27633 0.04506 0.19703 0.0
C373 C 0.27059 0.0635 0.2015 0.0
C374 C 0.2658 0.07584 0.18305 0.0
C375 C 0.26685 0.06998 0.15968 0.0
C376 C 0.27198 0.05159 0.15519 0.0
C377 C 0.27666 0.03924 0.17369 0.0
C378 C 0.28985 0.9776 0.24817 0.0
C379 C 0.21666 1.00265 0.20959 0.0
O380 O 0.21913 0.97136 0.26711 0.0
O381 O 0.19673 0.99458 0.29011 0.0
O382 O 0.22398 0.02313 0.26099 0.0
O383 O 0.18457 0.01994 0.25354 0.0
O384 O 0.25722 0.99471 0.29006 0.0
O385 O 0.27186 0.01704 0.27565 0.0
O386 O 0.26849 0.03757 0.23597 0.0
O387 O 0.2898 0.01486 0.21202 0.0
O388 O 0.26337 0.98583 0.24139 0.0
O389 O 0.30278 0.98904 0.24871 0.0
O390 O 0.2301 0.01414 0.21226 0.0
O391 O 0.21549 0.99178 0.22668 0.0
H392 H 0.2539 0.94723 0.29575 0.0
H393 H 0.26095 0.92541 0.32771 0.0
H394 H 0.17312 0.95841 0.35406 0.0
H395 H 0.16584 0.97981 0.32173 0.0
H396 H 0.27054 0.06831 0.2193 0.0
H397 H 0.26234 0.08984 0.1871 0.0
H398 H 0.27263 0.04673 0.13736 0.0
H399 H 0.28109 0.0251 0.16964 0.0
Tb400 Tb 0.51545 0.26124 0.76022 0.0
Tb401 Tb 0.47795 0.24577 0.73227 0.0
C402 C 0.5363 0.27933 0.7857 0.0
C403 C 0.52934 0.2912 0.80657 0.0
C404 C 0.50024 0.30368 0.81146 0.0
C405 C 0.49508 0.31621 0.82992 0.0
C406 C 0.5189 0.31643 0.84379 0.0
C407 C 0.54779 0.30344 0.83921 0.0
C408 C 0.5529 0.29098 0.82081 0.0
C409 C 0.54301 0.22652 0.74819 0.0
C410 C 0.46894 0.24873 0.78607 0.0
C411 C 0.458 0.22768 0.70604 0.0
C412 C 0.46766 0.21422 0.68671 0.0
C413 C 0.46611 0.19712 0.68996 0.0
C414 C 0.4731 0.18444 0.67168 0.0
C415 C 0.48168 0.18858 0.64962 0.0
C416 C 0.48366 0.20563 0.64643 0.0
C417 C 0.47679 0.21833 0.66482 0.0
C418 C 0.45073 0.28061 0.74424 0.0
C419 C 0.525 0.25749 0.70667 0.0
O420 O 0.52001 0.28586 0.76703 0.0
O421 O 0.54208 0.26199 0.78898 0.0
O422 O 0.51617 0.23438 0.75429 0.0
O423 O 0.55596 0.23789 0.75031 0.0
O424 O 0.48384 0.25954 0.78651 0.0
O425 O 0.46648 0.24006 0.76695 0.0
O426 O 0.47018 0.22197 0.72653 0.0
O427 O 0.45489 0.24451 0.70164 0.0
O428 O 0.47745 0.2725 0.73812 0.0
O429 O 0.43741 0.26946 0.74174 0.0
O430 O 0.51184 0.24577 0.7071 0.0
O431 O 0.5255 0.26737 0.72515 0.0
H432 H 0.48168 0.30406 0.80068 0.0
H433 H 0.47251 0.32588 0.83313 0.0
H434 H 0.56673 0.30335 0.84924 0.0
H435 H 0.57553 0.28153 0.8172 0.0
H436 H 0.45889 0.19369 0.70659 0.0
H437 H 0.47087 0.17158 0.67466 0.0
H438 H 0.49045 0.20916 0.62969 0.0
H439 H 0.47824 0.2314 0.6618 0.0
Tb440 Tb 0.01155 0.76216 0.76491 0.0
Tb441 Tb 0.97424 0.74528 0.73968 0.0
C442 C 0.0318 0.78123 0.78916 0.0
C443 C 0.02377 0.79357 0.80963 0.0
C444 C 0.99512 0.80734 0.81234 0.0
C445 C 0.98913 0.81986 0.83087 0.0
C446 C 0.01159 0.81875 0.84708 0.0
C447 C 0.03993 0.80459 0.84465 0.0
C448 C 0.04593 0.79218 0.82609 0.0
C449 C 0.03975 0.7271 0.75488 0.0
C450 C 0.96615 0.75017 0.79321 0.0
C451 C 0.95383 0.72631 0.71546 0.0
C452 C 0.9627 0.71281 0.69617 0.0
C453 C 0.96366 0.69521 0.70039 0.0
C454 C 0.96956 0.68252 0.68219 0.0
C455 C 0.97447 0.68719 0.65926 0.0
C456 C 0.97409 0.70472 0.65508 0.0
C457 C 0.96832 0.71742 0.67338 0.0
C458 C 0.94646 0.78047 0.7496 0.0
C459 C 0.0204 0.75626 0.71149 0.0
O460 O 0.01598 0.78705 0.77008 0.0
O461 O 0.03806 0.76392 0.7932 0.0
O462 O 0.013 0.73494 0.76128 0.0
O463 O 0.0523 0.73874 0.75561 0.0
O464 O 0.97965 0.76172 0.79184 0.0
O465 O 0.96482 0.74014 0.77516 0.0
O466 O 0.96763 0.72094 0.73547 0.0
O467 O 0.94941 0.74326 0.71052 0.0
O468 O 0.97308 0.77241 0.74314 0.0
O469 O 0.93367 0.76896 0.74891 0.0
O470 O 0.00721 0.74462 0.71339 0.0
O471 O 0.02127 0.76687 0.72907 0.0
H472 H 0.97756 0.80864 0.79992 0.0
H473 H 0.96699 0.83049 0.83241 0.0
H474 H 0.05784 0.80348 0.85662 0.0
H475 H 0.0682 0.78172 0.82426 0.0
H476 H 0.95914 0.69138 0.71775 0.0
H477 H 0.96926 0.66924 0.68596 0.0
H478 H 0.97807 0.70865 0.63764 0.0
H479 H 0.96778 0.73089 0.66957 0.0
Tb480 Tb 0.72658 0.49643 0.26002 0.0
Tb481 Tb 0.76735 0.51269 0.23929 0.0
C482 C 0.70279 0.47818 0.28192 0.0
C483 C 0.70898 0.46559 0.30207 0.0
C484 C 0.73575 0.45008 0.30396 0.0
C485 C 0.73977 0.43754 0.32217 0.0
C486 C 0.71715 0.44029 0.33887 0.0
C487 C 0.69088 0.4562 0.33734 0.0
C488 C 0.68682 0.46865 0.31909 0.0
C489 C 0.70048 0.53151 0.24913 0.0
C490 C 0.7685 0.50788 0.29284 0.0
C491 C 0.79202 0.53116 0.21881 0.0
C492 C 0.78793 0.54315 0.19844 0.0
C493 C 0.76394 0.54687 0.1829 0.0
C494 C 0.76033 0.55882 0.16401 0.0
C495 C 0.78059 0.56728 0.1605 0.0
C496 C 0.80458 0.56339 0.17623 0.0
C497 C 0.80821 0.55141 0.19494 0.0
C498 C 0.79339 0.47762 0.25029 0.0
C499 C 0.726 0.50066 0.20611 0.0
O500 O 0.71933 0.47227 0.26322 0.0
O501 O 0.69759 0.49527 0.28665 0.0
O502 O 0.72611 0.52349 0.2577 0.0
O503 O 0.68763 0.52004 0.24799 0.0
O504 O 0.75618 0.49594 0.28926 0.0
O505 O 0.77135 0.51832 0.27588 0.0
O506 O 0.77256 0.5375 0.2357 0.0
O507 O 0.79835 0.51387 0.2145 0.0
O508 O 0.76782 0.48566 0.24164 0.0
O509 O 0.80621 0.4891 0.2516 0.0
O510 O 0.73947 0.51208 0.20937 0.0
O511 O 0.72169 0.49101 0.22349 0.0
H512 H 0.7533 0.44739 0.29111 0.0
H513 H 0.76019 0.42538 0.32268 0.0
H514 H 0.67324 0.45897 0.35013 0.0
H515 H 0.66605 0.48055 0.31802 0.0
H516 H 0.74796 0.54067 0.18547 0.0
H517 H 0.74175 0.56138 0.15216 0.0
H518 H 0.82024 0.56992 0.17445 0.0
H519 H 0.82672 0.54879 0.20691 0.0
Tb520 Tb 0.77817 0.75095 0.01159 0.0
Tb521 Tb 0.7145 0.75963 0.99503 0.0
C522 C 0.83044 0.74928 0.01522 0.0
C523 C 0.84456 0.76139 0.00642 0.0
C524 C 0.83884 0.76868 0.98363 0.0
C525 C 0.84815 0.78252 0.9769 0.0
C526 C 0.86316 0.78943 0.9929 0.0
C527 C 0.87004 0.78145 0.01532 0.0
C528 C 0.86088 0.76756 0.02196 0.0
C529 C 0.73683 0.76113 0.04403 0.0
C530 C 0.73882 0.78952 0.98786 0.0
C531 C 0.66141 0.76251 0.99225 0.0
C532 C 0.64768 0.74895 0.99359 0.0
C533 C 0.65373 0.73663 0.01241 0.0
C534 C 0.64501 0.72184 0.0114 0.0
C535 C 0.62981 0.71919 0.99164 0.0
C536 C 0.62198 0.73231 0.9736 0.0
C537 C 0.63092 0.74699 0.97455 0.0
C538 C 0.75577 0.7489 0.96235 0.0
C539 C 0.75516 0.72003 0.01698 0.0
O540 O 0.82236 0.74003 -0.00043 0.0
O541 O 0.80992 0.75665 0.03117 0.0
O542 O 0.73454 0.76756 0.02364 0.0
O543 O 0.76363 0.74908 0.04727 0.0
O544 O 0.76552 0.77652 0.99167 0.0
O545 O 0.71406 0.78694 0.99209 0.0
O546 O 0.67325 0.7657 0.01153 0.0
O547 O 0.67849 0.76084 0.97398 0.0
O548 O 0.75798 0.74305 0.98302 0.0
O549 O 0.72869 0.7605 0.95883 0.0
O550 O 0.72841 0.73231 0.01109 0.0
O551 O 0.77951 0.72358 0.01582 0.0
H552 H 0.82606 0.76427 0.97133 0.0
H553 H 0.84283 0.78817 0.95941 0.0
H554 H 0.88117 0.78657 0.02824 0.0
H555 H 0.86529 0.76225 0.03968 0.0
H556 H 0.66637 0.73791 0.02746 0.0
H557 H 0.65155 0.71201 0.02558 0.0
H558 H 0.60962 0.73097 0.95841 0.0
H559 H 0.62576 0.75643 0.95993 0.0
Tb560 Tb 0.46528 0.0135 0.50027 0.0
Tb561 Tb 0.53081 1.00143 0.48686 0.0
C562 C 0.41243 0.01614 0.50111 0.0
C563 C 0.40094 1.00158 0.49787 0.0
C564 C 0.39972 0.9944 0.47546 0.0
C565 C 0.3956 0.97803 0.47309 0.0
C566 C 0.39281 0.96855 0.4931 0.0
C567 C 0.39161 0.97645 0.5153 0.0
C568 C 0.39537 0.99288 0.51765 0.0
C569 C 0.5029 0.00716 0.53522 0.0
C570 C 0.50536 0.97148 0.48593 0.0
C571 C 0.58378 0.99857 0.48692 0.0
C572 C 0.59657 0.01209 0.49325 0.0
C573 C 0.59632 0.01805 0.51653 0.0
C574 C 0.60439 0.03272 0.52169 0.0
C575 C 0.61281 0.0418 0.50365 0.0
C576 C 0.61415 0.03529 0.48052 0.0
C577 C 0.60636 0.02055 0.47543 0.0
C578 C 0.49319 0.00763 0.45187 0.0
C579 C 0.4905 0.04337 0.50091 0.0
O580 O 0.42443 0.02044 0.4827 0.0
O581 O 0.42847 0.01463 0.52005 0.0
O582 O 0.50699 0.99821 0.51639 0.0
O583 O 0.47605 0.01964 0.53557 0.0
O584 O 0.47881 0.98486 0.48916 0.0
O585 O 0.53041 0.97426 0.48706 0.0
O586 O 0.5722 0.99244 0.50399 0.0
O587 O 0.56697 1.00253 0.4681 0.0
O588 O 0.48917 0.01658 0.4707 0.0
O589 O 0.52021 0.99531 0.45147 0.0
O590 O 0.51716 0.02989 0.49881 0.0
O591 O 0.46553 0.04062 0.49879 0.0
H592 H 0.4036 1.00086 0.45985 0.0
H593 H 0.3965 0.9722 0.45577 0.0
H594 H 0.38895 0.96951 0.53095 0.0
H595 H 0.39574 0.99818 0.53512 0.0
H596 H 0.58906 0.01176 0.53071 0.0
H597 H 0.60357 0.0371 0.53976 0.0
H598 H 0.62 0.04205 0.46605 0.0
H599 H 0.60677 0.01628 0.45733 0.0
Tb600 Tb 0.47607 0.50315 0.01644 0.0
Tb601 Tb 0.52649 0.50296 0.9845 0.0
C602 C 0.43148 0.50015 0.03464 0.0
C603 C 0.4154 0.48827 0.03008 0.0
C604 C 0.41756 0.47971 0.00824 0.0
C605 C 0.40639 0.46615 0.00523 0.0
C606 C 0.39336 0.46067 0.02416 0.0
C607 C 0.39013 0.46986 0.04575 0.0
C608 C 0.40103 0.48357 0.04865 0.0
C609 C 0.52652 0.49826 0.03743 0.0
C610 C 0.51034 0.46822 0.98393 0.0
C611 C 0.57512 0.50069 0.9676 0.0
C612 C 0.58658 0.51523 0.96419 0.0
C613 C 0.60859 0.51618 0.97947 0.0
C614 C 0.61521 0.53176 0.98008 0.0
C615 C 0.60027 0.54659 0.96517 0.0
C616 C 0.57978 0.54514 0.94875 0.0
C617 C 0.57288 0.52964 0.94832 0.0
C618 C 0.47189 0.51965 0.96772 0.0
C619 C 0.49047 0.53802 0.01408 0.0
O620 O 0.42951 0.51238 0.01855 0.0
O621 O 0.45877 0.49149 0.04228 0.0
O622 O 0.52354 0.4919 0.01783 0.0
O623 O 0.50055 0.50711 0.04653 0.0
O624 O 0.48875 0.47652 -0.00077 0.0
O625 O 0.52843 0.47579 0.97609 0.0
O626 O 0.5717 0.49721 0.9896 0.0
O627 O 0.55251 0.50134 0.95453 0.0
O628 O 0.48175 0.50542 0.97995 0.0
O629 O 0.49381 0.52448 0.96296 0.0
O630 O 0.51663 0.52764 0.00507 0.0
O631 O 0.46867 0.5321 0.01647 0.0
H632 H 0.42905 0.48288 0.99379 0.0
H633 H 0.40889 0.45954 0.98828 0.0
H634 H 0.38063 0.46584 0.06081 0.0
H635 H 0.39955 0.48988 0.06572 0.0
H636 H 0.61954 0.50528 0.99187 0.0
H637 H 0.6314 0.53243 0.99269 0.0
H638 H 0.56786 0.5564 0.93711 0.0
H639 H 0.55576 0.52939 0.93636 0.0
C640 C 0.00527 0.06177 0.01998 0.0
C641 C 0.98049 0.05696 0.02174 0.0
C642 C 0.00533 0.07744 0.03111 0.0
C643 C 0.00753 0.1027 0.07046 0.0
H644 H 0.93664 0.14733 0.0756 0.0
C645 C 0.9934 0.15717 0.14184 0.0
C646 C 0.97773 0.17568 0.13615 0.0
C647 C 0.99556 0.14343 0.1257 0.0
C648 C 0.95678 0.13507 0.07413 0.0
H649 H 0.93576 0.06534 0.03578 0.0
H650 H 0.93583 0.09263 0.0552 0.0
H651 H 0.93613 0.12271 0.05033 0.0
H652 H 0.95332 0.19428 0.10855 0.0
H653 H 0.95722 0.17033 0.08036 0.0
H654 H 0.02821 0.11508 0.09421 0.0
C655 C 0.95521 0.08436 0.04507 0.0
C656 C 0.95636 0.12085 0.05984 0.0
C657 C 0.95517 0.06868 0.03392 0.0
C658 C 0.96513 0.18014 0.11364 0.0
C659 C 0.96733 0.16641 0.09749 0.0
C660 C 0.00795 0.11691 0.08476 0.0
C661 C 0.98054 0.08872 0.04424 0.0
C662 C 0.98161 0.1044 0.05804 0.0
C663 C 0.98215 0.14787 0.10345 0.0
C664 C 0.98246 0.1332 0.087 0.0
H665 H 0.02492 0.05321 0.0104 0.0
H666 H 0.025 0.08057 0.0297 0.0
H667 H 0.0273 0.09015 0.06971 0.0
H668 H 0.00301 0.15323 0.15912 0.0
H669 H 0.00681 0.1293 0.13103 0.0
C670 C 0.77819 0.26431 0.43074 0.0
C671 C 0.77949 0.24869 0.44293 0.0
C672 C 0.80231 0.26377 0.41717 0.0
C673 C 0.86038 0.23427 0.38089 0.0
H674 H 0.89918 0.26816 0.3895 0.0
C675 C 0.95194 0.23291 0.31756 0.0
C676 C 0.95213 0.2498 0.31079 0.0
C677 C 0.93506 0.23177 0.33674 0.0
C678 C 0.88839 0.25873 0.38666 0.0
H679 H 0.80643 0.22034 0.45063 0.0
H680 H 0.84837 0.21915 0.42588 0.0
H681 H 0.86054 0.26843 0.41698 0.0
H682 H 0.93578 0.27867 0.3189 0.0
H683 H 0.90479 0.27698 0.35161 0.0
H684 H 0.88629 0.22527 0.34988 0.0
C685 C 0.82892 0.23183 0.42724 0.0
C686 C 0.86648 0.25883 0.40251 0.0
C687 C 0.80504 0.23249 0.44124 0.0
C688 C 0.93602 0.26548 0.32393 0.0
C689 C 0.91842 0.26444 0.34277 0.0
C690 C 0.88176 0.23442 0.36477 0.0
C691 C 0.82773 0.24749 0.41521 0.0
C692 C 0.85224 0.24667 0.3996 0.0
C693 C 0.91723 0.2476 0.34911 0.0
C694 C 0.89596 0.24673 0.36732 0.0
H695 H 0.75876 0.27701 0.43203 0.0
H696 H 0.80093 0.27595 0.40787 0.0
H697 H 0.84936 0.22493 0.37822 0.0
H698 H 0.96463 0.22059 0.30785 0.0
H699 H 0.93556 0.21847 0.34151 0.0
C700 C 0.77503 0.079 0.61628 0.0
C701 C 0.76265 0.08353 0.63883 0.0
C702 C 0.77247 0.09268 0.60001 0.0
C703 C 0.73135 0.14212 0.5872 0.0
H704 H 0.80257 0.13621 0.552 0.0
C705 C 0.78344 0.18981 0.53424 0.0
C706 C 0.75786 0.20143 0.52226 0.0
C707 C 0.78347 0.17435 0.54598 0.0
C708 C 0.78252 0.13812 0.56174 0.0
H709 H 0.73731 0.106 0.66177 0.0
H710 H 0.73295 0.12987 0.63348 0.0
H711 H 0.80256 0.11172 0.5776 0.0
H712 H 0.71283 0.20536 0.51212 0.0
H713 H 0.71302 0.17835 0.53228 0.0
H714 H 0.71169 0.16881 0.57207 0.0
C715 C 0.7443 0.11573 0.62821 0.0
C716 C 0.78237 0.12396 0.57622 0.0
C717 C 0.74679 0.10204 0.64446 0.0
C718 C 0.73278 0.19683 0.52145 0.0
C719 C 0.73283 0.18137 0.53312 0.0
C720 C 0.7315 0.15629 0.57275 0.0
C721 C 0.75751 0.11124 0.60591 0.0
C722 C 0.7569 0.12586 0.58934 0.0
C723 C 0.75798 0.17012 0.54592 0.0
C724 C 0.75722 0.15455 0.56005 0.0
H725 H 0.78698 0.06485 0.61127 0.0
H726 H 0.78241 0.08871 0.58285 0.0
H727 H 0.71123 0.14397 0.59683 0.0
H728 H 0.80305 0.19302 0.53535 0.0
H729 H 0.80313 0.16613 0.55587 0.0
C730 C 0.95966 0.98966 0.93619 0.0
C731 C 0.95858 0.00554 0.94768 0.0
C732 C 0.93581 0.99011 0.92225 0.0
C733 C 0.87939 0.01995 0.88431 0.0
H734 H 0.84009 0.98614 0.89061 0.0
C735 C 0.78801 0.02319 0.81957 0.0
C736 C 0.78748 0.00657 0.8119 0.0
C737 C 0.80493 0.02373 0.83906 0.0
C738 C 0.85104 0.99555 0.88842 0.0
H739 H 0.93213 0.0342 0.95399 0.0
H740 H 0.89073 0.03519 0.92868 0.0
H741 H 0.87813 0.98544 0.9191 0.0
H742 H 0.80325 0.97754 0.81875 0.0
H743 H 0.83431 0.97819 0.85209 0.0
H744 H 0.85414 0.02942 0.85307 0.0
C745 C 0.90981 0.02239 0.93079 0.0
C746 C 0.87264 0.9952 0.90483 0.0
C747 C 0.93338 0.02184 0.94514 0.0
C748 C 0.80328 0.99054 0.82448 0.0
C749 C 0.82093 0.99098 0.84366 0.0
C750 C 0.85832 0.02007 0.86769 0.0
C751 C 0.9109 0.00654 0.91921 0.0
C752 C 0.88698 0.00737 0.90281 0.0
C753 C 0.82251 0.00755 0.85088 0.0
C754 C 0.84386 0.00786 0.86944 0.0
H755 H 0.9788 0.97688 0.93816 0.0
H756 H 0.93715 0.97776 0.91335 0.0
H757 H 0.89052 0.02928 0.88225 0.0
H758 H 0.77558 0.03578 0.8103 0.0
H759 H 0.80469 0.03684 0.84452 0.0
C760 C 0.04944 0.98631 0.06313 0.0
C761 C 0.02359 1.00199 0.05935 0.0
C762 C 0.07294 0.98735 0.07631 0.0
C763 C 0.08892 0.01763 0.11945 0.0
H764 H 0.17059 0.98369 0.10956 0.0
C765 C 0.18713 0.01911 0.17482 0.0
C766 C 0.20045 0.00288 0.18771 0.0
C767 C 0.16846 0.01986 0.15586 0.0
C768 C 0.14787 0.99333 0.11232 0.0
H769 H 0.00211 0.03116 0.06538 0.0
H770 H 0.04351 0.03327 0.08722 0.0
H771 H 0.13174 0.98391 0.08227 0.0
H772 H 0.20635 0.97445 0.19013 0.0
H773 H 0.17441 0.97565 0.15652 0.0
H774 H 0.10539 0.02718 0.14931 0.0
C775 C 0.04545 0.01996 0.08105 0.0
C776 C 0.12553 0.99335 0.09689 0.0
C777 C 0.02171 0.0188 0.06843 0.0
C778 C 0.1962 0.98716 0.18053 0.0
C779 C 0.17813 0.9878 0.16127 0.0
C780 C 0.11135 0.01787 0.13451 0.0
C781 C 0.07125 0.00421 0.08552 0.0
C782 C 0.09561 0.00523 0.10056 0.0
C783 C 0.16351 0.00427 0.14919 0.0
C784 C 0.14086 0.00549 0.13134 0.0
H785 H 0.05127 0.97321 0.0562 0.0
H786 H 0.0921 0.97484 0.07967 0.0
H787 H 0.06619 0.02674 0.12326 0.0
H788 H 0.18996 0.03144 0.18009 0.0
H789 H 0.15731 0.03271 0.14676 0.0
C790 C 0.03306 0.44075 0.46391 0.0
C791 C 0.00855 0.45155 0.47759 0.0
C792 C 0.0333 0.42498 0.45279 0.0
C793 C 0.98108 0.40496 0.43122 0.0
H794 H 0.05391 0.36262 0.41955 0.0
C795 C 0.99159 0.35339 0.3571 0.0
C796 C 0.00967 0.33484 0.36067 0.0
C797 C 0.98998 0.36647 0.37403 0.0
C798 C 0.03326 0.37421 0.4229 0.0
H799 H 0.96588 0.45367 0.49151 0.0
H800 H 0.96657 0.42607 0.47255 0.0
H801 H 0.05499 0.38685 0.44528 0.0
H802 H 0.03963 0.31546 0.38522 0.0
H803 H 0.03633 0.33826 0.41499 0.0
H804 H 0.95933 0.39226 0.40896 0.0
C805 C 0.98528 0.42998 0.46987 0.0
C806 C 0.03397 0.38823 0.43742 0.0
C807 C 0.98498 0.44577 0.48085 0.0
C808 C 0.02531 0.32961 0.38196 0.0
C809 C 0.02371 0.34271 0.39891 0.0
C810 C 0.98037 0.39092 0.41674 0.0
C811 C 0.00912 0.41961 0.45523 0.0
C812 C 0.00799 0.40393 0.44147 0.0
C813 C 0.00639 0.36134 0.395 0.0
C814 C 0.00655 0.37551 0.41207 0.0
H815 H 0.05145 0.44489 0.4609 0.0
H816 H 0.05188 0.41747 0.44145 0.0
H817 H 0.96066 0.41689 0.43373 0.0
H818 H 0.97897 0.35786 0.34102 0.0
H819 H 0.97663 0.3807 0.3703 0.0
C820 C 0.6906 0.2763 0.55749 0.0
C821 C 0.71588 0.25997 0.55563 0.0
C822 C 0.66657 0.27705 0.57136 0.0
C823 C 0.62755 0.25065 0.59466 0.0
H824 H 0.60922 0.28278 0.64872 0.0
C825 C 0.55651 0.24357 0.67183 0.0
C826 C 0.54093 0.25903 0.68551 0.0
C827 C 0.5745 0.2447 0.65335 0.0
C828 C 0.61335 0.27406 0.63343 0.0
H829 H 0.73604 0.23152 0.5661 0.0
H830 H 0.69357 0.23276 0.59004 0.0
H831 H 0.64674 0.28306 0.6209 0.0
H832 H 0.52982 0.28802 0.68979 0.0
H833 H 0.55963 0.29034 0.65672 0.0
H834 H 0.59383 0.24184 0.60673 0.0
C835 C 0.69254 0.24496 0.58098 0.0
C836 C 0.63506 0.27416 0.61763 0.0
C837 C 0.71682 0.24432 0.56755 0.0
C838 C 0.54209 0.27585 0.67965 0.0
C839 C 0.55938 0.27711 0.66082 0.0
C840 C 0.6053 0.25082 0.6102 0.0
C841 C 0.66737 0.26136 0.58306 0.0
C842 C 0.64263 0.26225 0.5984 0.0
C843 C 0.57663 0.26144 0.6479 0.0
C844 C 0.59827 0.26231 0.63004 0.0
H845 H 0.68951 0.28847 0.54829 0.0
H846 H 0.6473 0.28982 0.57284 0.0
H847 H 0.63306 0.24144 0.57976 0.0
H848 H 0.55599 0.23042 0.67614 0.0
H849 H 0.58768 0.23227 0.64407 0.0
C850 C 0.6995 0.92938 0.87681 0.0
C851 C 0.72223 0.92679 0.8603 0.0
C852 C 0.70211 0.91591 0.89337 0.0
C853 C 0.75501 0.87467 0.92279 0.0
H854 H 0.68679 0.86117 0.92659 0.0
C855 C 0.76222 0.80721 0.96503 0.0
C856 C 0.73718 0.8067 0.97671 0.0
C857 C 0.76064 0.82289 0.95314 0.0
C858 C 0.70586 0.86495 0.92617 0.0
H859 H 0.76615 0.90823 0.84899 0.0
H860 H 0.77088 0.88479 0.8782 0.0
H861 H 0.68418 0.88678 0.90213 0.0
H862 H 0.69095 0.82244 0.98552 0.0
H863 H 0.68829 0.8501 0.96527 0.0
H864 H 0.77671 0.85286 0.94688 0.0
C865 C 0.75102 0.8973 0.87825 0.0
C866 C 0.70438 0.87962 0.91205 0.0
C867 C 0.74832 0.91075 0.86154 0.0
C868 C 0.7106 0.82239 0.97662 0.0
C869 C 0.70907 0.8382 0.96488 0.0
C870 C 0.75641 0.86008 0.93713 0.0
C871 C 0.72763 0.89957 0.89398 0.0
C872 C 0.729 0.88455 0.91002 0.0
C873 C 0.73399 0.83858 0.95274 0.0
C874 C 0.73194 0.85489 0.9388 0.0
H875 H 0.67939 0.94175 0.87674 0.0
H876 H 0.68396 0.91819 0.90554 0.0
H877 H 0.77423 0.87828 0.92175 0.0
H878 H 0.78289 0.79526 0.96436 0.0
H879 H 0.78011 0.82246 0.94361 0.0
C880 C 0.16831 0.2562 0.03407 0.0
C881 C 0.18309 0.26793 0.03823 0.0
C882 C 0.14436 0.25711 0.04811 0.0
C883 C 0.09209 0.28442 0.09439 0.0
H884 H 0.10075 0.2367 0.11743 0.0
C885 C 0.04772 0.27361 0.18378 0.0
C886 C 0.03539 0.26038 0.18582 0.0
C887 C 0.06071 0.27569 0.16281 0.0
C888 C 0.0976 0.25011 0.11088 0.0
H889 H 0.18356 0.29051 0.05932 0.0
H890 H 0.14215 0.29187 0.08428 0.0
H891 H 0.13165 0.23886 0.08511 0.0
H892 H 0.02657 0.23915 0.16727 0.0
H893 H 0.04948 0.24275 0.13057 0.0
H894 H 0.0588 0.29561 0.12091 0.0
C895 C 0.14867 0.28213 0.06997 0.0
C896 C 0.11528 0.25137 0.0923 0.0
C897 C 0.17252 0.28129 0.05579 0.0
C898 C 0.03601 0.24941 0.1663 0.0
C899 C 0.04914 0.25145 0.14531 0.0
C900 C 0.07445 0.28315 0.11304 0.0
C901 C 0.13493 0.26968 0.06673 0.0
C902 C 0.1132 0.26853 0.08419 0.0
C903 C 0.06174 0.26456 0.1434 0.0
C904 C 0.07754 0.26598 0.12181 0.0
H905 H 0.17607 0.24575 0.02063 0.0
H906 H 0.13392 0.24754 0.04491 0.0
H907 H 0.08965 0.29782 0.08829 0.0
H908 H 0.04756 0.28234 0.19844 0.0
H909 H 0.07067 0.28571 0.162 0.0
C910 C 0.74776 0.41671 0.36829 0.0
C911 C 0.72026 0.42629 0.35715 0.0
C912 C 0.75064 0.40314 0.38486 0.0
C913 C 0.70666 0.38605 0.42409 0.0
H914 H 0.77479 0.33991 0.41942 0.0
C915 C 0.70942 0.3197 0.46715 0.0
C916 C 0.73672 0.30707 0.47577 0.0
C917 C 0.70807 0.33538 0.45525 0.0
C918 C 0.75586 0.3528 0.42128 0.0
H919 H 0.67434 0.42885 0.35462 0.0
H920 H 0.67933 0.4054 0.38354 0.0
H921 H 0.77156 0.36516 0.3939 0.0
H922 H 0.78383 0.30149 0.47953 0.0
H923 H 0.78129 0.32894 0.45914 0.0
H924 H 0.69078 0.37363 0.45128 0.0
C925 C 0.69855 0.40858 0.37977 0.0
C926 C 0.75401 0.36728 0.40661 0.0
C927 C 0.6957 0.42206 0.36317 0.0
C928 C 0.76244 0.31083 0.47298 0.0
C929 C 0.76105 0.32653 0.46114 0.0
C930 C 0.70854 0.37159 0.43881 0.0
C931 C 0.72607 0.39888 0.39073 0.0
C932 C 0.72917 0.38399 0.4076 0.0
C933 C 0.73397 0.33883 0.45174 0.0
C934 C 0.73296 0.35469 0.43736 0.0
H935 H 0.76704 0.41977 0.3643 0.0
H936 H 0.77208 0.39605 0.39318 0.0
H937 H 0.68747 0.39885 0.42557 0.0
H938 H 0.6892 0.31721 0.46888 0.0
H939 H 0.68688 0.34443 0.44802 0.0
C940 C 0.52596 0.02383 0.55996 0.0
C941 C 0.52694 0.00729 0.55061 0.0
C942 C 0.54915 0.02414 0.5741 0.0
C943 C 0.62698 0.99542 0.59308 0.0
H944 H 0.60639 0.02938 0.64536 0.0
C945 C 0.69513 0.98775 0.67852 0.0
C946 C 0.70071 0.00306 0.68555 0.0
C947 C 0.67706 0.9888 0.65911 0.0
C948 C 0.61246 0.02 0.63064 0.0
H949 H 0.55236 0.97814 0.5485 0.0
H950 H 0.5921 0.97837 0.57444 0.0
H951 H 0.56787 0.0301 0.61774 0.0
H952 H 0.69241 0.03132 0.67767 0.0
H953 H 0.65982 0.0333 0.64409 0.0
H954 H 0.67133 0.98462 0.60724 0.0
C955 C 0.57414 0.99125 0.57025 0.0
C956 C 0.59046 0.02043 0.61471 0.0
C957 C 0.55128 0.99104 0.55561 0.0
C958 C 0.68856 0.0193 0.67252 0.0
C959 C 0.66991 0.02046 0.65342 0.0
C960 C 0.64884 0.99474 0.60936 0.0
C961 C 0.5734 0.00782 0.5797 0.0
C962 C 0.59732 0.00802 0.59582 0.0
C963 C 0.6638 0.00527 0.64676 0.0
C964 C 0.64165 0.00694 0.62833 0.0
H965 H 0.50756 0.03659 0.55596 0.0
H966 H 0.54808 0.03722 0.58047 0.0
H967 H 0.63332 0.98595 0.57848 0.0
H968 H 0.70436 0.97505 0.68824 0.0
H969 H 0.67242 0.97697 0.65435 0.0
C970 C 0.02733 0.93707 0.9742 0.0
C971 C 0.00141 0.94924 0.98525 0.0
C972 C 0.02726 0.92158 0.96256 0.0
C973 C 0.02532 0.88577 0.94589 0.0
H974 H 0.95478 0.89271 0.90903 0.0
C975 C 0.01797 0.82783 0.88839 0.0
C976 C 0.00622 0.83282 0.86572 0.0
C977 C 0.01524 0.84119 0.90526 0.0
C978 C 0.97469 0.89055 0.91916 0.0
H979 H 0.9556 0.95407 0.99393 0.0
H980 H 0.95564 0.92697 0.97397 0.0
H981 H 0.95529 0.91716 0.93455 0.0
H982 H 0.98191 0.85579 0.84318 0.0
H983 H 0.97729 0.87906 0.87249 0.0
H984 H 0.04517 0.85948 0.92969 0.0
C985 C 0.97583 0.92958 0.97382 0.0
C986 C 0.97487 0.9045 0.93407 0.0
C987 C 0.97588 0.94508 0.98539 0.0
C988 C 0.99087 0.85146 0.86056 0.0
C989 C 0.98822 0.86482 0.8774 0.0
C990 C 0.02517 0.87184 0.93094 0.0
C991 C 0.0013 0.91784 0.96179 0.0
C992 C 0.00035 0.9024 0.94739 0.0
C993 C 0.00076 0.85987 0.89987 0.0
C994 C 0.0 0.87415 0.91712 0.0
H995 H 0.0473 0.93993 0.97359 0.0
H996 H 0.0472 0.91299 0.95327 0.0
H997 H 0.04518 0.88356 0.95612 0.0
H998 H 0.02952 0.81358 0.89304 0.0
H999 H 0.02468 0.83686 0.92251 0.0
C1000 C 0.11906 0.06392 0.01307 0.0
C1001 C 0.1127 0.05528 0.99348 0.0
C1002 C 0.12238 0.08053 0.01054 0.0
C1003 C 0.13698 0.10974 0.96573 0.0
H1004 H 0.10212 0.14838 0.01151 0.0
C1005 C 0.12747 0.18303 0.94861 0.0
C1006 C 0.13627 0.19164 0.96698 0.0
C1007 C 0.12364 0.16675 0.95255 0.0
C1008 C 0.11216 0.13766 -0.00131 0.0
H1009 H 0.10403 0.05759 0.95604 0.0
H1010 H 0.10973 0.08643 0.95166 0.0
H1011 H 0.09843 0.11888 0.01727 0.0
H1012 H 0.14756 0.19 0.00398 0.0
H1013 H 0.14057 0.16167 0.01087 0.0
H1014 H 0.15049 0.12852 0.94705 0.0
C1015 C 0.1129 0.08021 0.96888 0.0
C1016 C 0.11015 0.12075 0.00202 0.0
C1017 C 0.10968 0.06363 0.97139 0.0
C1018 C 0.14029 0.18388 0.98953 0.0
C1019 C 0.13638 0.16762 0.99348 0.0
C1020 C 0.13887 0.12663 0.96236 0.0
C1021 C 0.1193 0.08887 0.9884 0.0
C1022 C 0.12239 0.10663 0.98549 0.0
C1023 C 0.12847 0.15873 0.97495 0.0
C1024 C 0.12635 0.14081 0.97872 0.0
H1025 H 0.12163 0.05777 0.0303 0.0
H1026 H 0.12761 0.08677 0.02589 0.0
H1027 H 0.14716 0.09905 0.95289 0.0
H1028 H 0.12378 0.1888 0.93113 0.0
H1029 H 0.11703 0.16037 0.93802 0.0
C1030 C 0.65445 0.55925 0.24054 0.0
C1031 C 0.68476 0.55158 0.24672 0.0
C1032 C 0.63898 0.57825 0.23957 0.0
C1033 C 0.64375 0.62144 0.26085 0.0
H1034 H 0.57917 0.64404 0.21669 0.0
C1035 C 0.58704 0.69967 0.24983 0.0
C1036 C 0.55573 0.70728 0.25021 0.0
C1037 C 0.60272 0.68076 0.24793 0.0
C1038 C 0.59705 0.6379 0.2292 0.0
H1039 H 0.72273 0.55778 0.2564 0.0
H1040 H 0.69633 0.59082 0.25369 0.0
H1041 H 0.60728 0.61099 0.21564 0.0
H1042 H 0.51626 0.70112 0.24819 0.0
H1043 H 0.5437 0.66801 0.24438 0.0
H1044 H 0.63379 0.64842 0.2741 0.0
C1045 C 0.68412 0.58227 0.25017 0.0
C1046 C 0.61315 0.61892 0.22869 0.0
C1047 C 0.69946 0.56328 0.25141 0.0
C1048 C 0.54037 0.69564 0.24789 0.0
C1049 C 0.55609 0.6767 0.24567 0.0
C1050 C 0.62792 0.64039 0.26116 0.0
C1051 C 0.65352 0.59008 0.24454 0.0
C1052 C 0.6367 0.61039 0.24457 0.0
C1053 C 0.58746 0.66903 0.24607 0.0
C1054 C 0.60434 0.64885 0.24539 0.0
H1055 H 0.64248 0.55057 0.2369 0.0
H1056 H 0.6154 0.58363 0.23552 0.0
H1057 H 0.66118 0.61545 0.27375 0.0
H1058 H 0.5995 0.7083 0.25146 0.0
H1059 H 0.62686 0.6753 0.24798 0.0
C1060 C 0.35423 0.82674 0.49188 0.0
C1061 C 0.3742 0.81225 0.50531 0.0
C1062 C 0.36013 0.84225 0.4873 0.0
C1063 C 0.39724 0.86903 0.51384 0.0
H1064 H 0.38453 0.89405 0.45397 0.0
C1065 C 0.41469 0.93582 0.50475 0.0
C1066 C 0.39393 0.94976 0.49124 0.0
C1067 C 0.41558 0.91809 0.50387 0.0
C1068 C 0.38789 0.88733 0.47086 0.0
H1069 H 0.41679 0.80241 0.52339 0.0
H1070 H 0.42664 0.82977 0.51588 0.0
H1071 H 0.38034 0.86444 0.45679 0.0
H1072 H 0.35843 0.95615 0.4657 0.0
H1073 H 0.35893 0.92523 0.46488 0.0
H1074 H 0.40343 0.89204 0.52831 0.0
C1075 C 0.4064 0.82905 0.509 0.0
C1076 C 0.38565 0.87034 0.47242 0.0
C1077 C 0.40067 0.81343 0.51338 0.0
C1078 C 0.37455 0.94559 0.47632 0.0
C1079 C 0.37505 0.92786 0.47576 0.0
C1080 C 0.39911 0.88606 0.51237 0.0
C1081 C 0.38594 0.84372 0.49626 0.0
C1082 C 0.39021 0.86109 0.49396 0.0
C1083 C 0.39529 0.91396 0.48982 0.0
C1084 C 0.39436 0.89548 0.4909 0.0
H1085 H 0.33336 0.8265 0.48572 0.0
H1086 H 0.3438 0.85346 0.47769 0.0
H1087 H 0.4003 0.86236 0.53077 0.0
H1088 H 0.43039 0.93863 0.51593 0.0
H1089 H 0.43207 0.90766 0.51439 0.0
C1090 C 0.04114 0.69522 0.7531 0.0
C1091 C 0.05592 0.70718 0.75137 0.0
C1092 C 0.0569 0.67632 0.75061 0.0
C1093 C 0.12984 0.64106 0.73027 0.0
H1094 H 0.10705 0.60922 0.77014 0.0
C1095 C 0.20296 0.56377 0.74535 0.0
C1096 C 0.18786 0.55191 0.7456 0.0
C1097 C 0.18699 0.58275 0.74407 0.0
C1098 C 0.11353 0.61791 0.75871 0.0
H1099 H 0.09871 0.70881 0.7455 0.0
H1100 H 0.12639 0.67594 0.74196 0.0
H1101 H 0.07884 0.64209 0.77175 0.0
H1102 H 0.14435 0.55053 0.74386 0.0
H1103 H 0.11658 0.58352 0.74185 0.0
H1104 H 0.16514 0.61669 0.71779 0.0
C1105 C 0.10253 0.68103 0.74465 0.0
C1106 C 0.09725 0.6368 0.75955 0.0
C1107 C 0.08669 0.69992 0.74688 0.0
C1108 C 0.15662 0.55933 0.74387 0.0
C1109 C 0.14068 0.57823 0.74283 0.0
C1110 C 0.14634 0.62213 0.72963 0.0
C1111 C 0.08792 0.66892 0.74664 0.0
C1112 C 0.10509 0.64869 0.74532 0.0
C1113 C 0.15561 0.5902 0.74327 0.0
C1114 C 0.13831 0.61034 0.7438 0.0
H1115 H 0.01747 0.70041 0.75666 0.0
H1116 H 0.04469 0.66754 0.75185 0.0
H1117 H 0.13635 0.64967 0.71878 0.0
H1118 H 0.22704 0.55843 0.74665 0.0
H1119 H 0.19913 0.59162 0.7445 0.0
C1120 C 0.85451 0.31927 0.47304 0.0
C1121 C 0.87373 0.30439 0.48632 0.0
C1122 C 0.85952 0.33539 0.47136 0.0
C1123 C 0.8919 0.36177 0.50527 0.0
H1124 H 0.88549 0.38955 0.44821 0.0
C1125 C 0.91404 0.42742 0.50651 0.0
C1126 C 0.89537 0.44224 0.49303 0.0
C1127 C 0.9135 0.41013 0.50364 0.0
C1128 C 0.887 0.38206 0.46434 0.0
H1129 H 0.91456 0.29447 0.50681 0.0
H1130 H 0.92279 0.32275 0.50433 0.0
H1131 H 0.88085 0.36 0.44644 0.0
H1132 H 0.86214 0.45059 0.46549 0.0
H1133 H 0.86032 0.42041 0.46095 0.0
H1134 H 0.89692 0.38388 0.52341 0.0
C1135 C 0.90366 0.32194 0.49545 0.0
C1136 C 0.88449 0.36512 0.46328 0.0
C1137 C 0.89884 0.30577 0.49694 0.0
C1138 C 0.8767 0.43935 0.47612 0.0
C1139 C 0.87583 0.42204 0.47346 0.0
C1140 C 0.89404 0.37874 0.50638 0.0
C1141 C 0.88372 0.33703 0.48306 0.0
C1142 C 0.88704 0.35479 0.48375 0.0
C1143 C 0.89394 0.40726 0.48745 0.0
C1144 C 0.89176 0.38911 0.48594 0.0
H1145 H 0.83481 0.31881 0.46479 0.0
H1146 H 0.84368 0.34686 0.46181 0.0
H1147 H 0.89334 0.35427 0.5214 0.0
H1148 H 0.92916 0.42922 0.51928 0.0
H1149 H 0.92839 0.399 0.51425 0.0
C1150 C 0.33586 0.95009 0.25691 0.0
C1151 C 0.30539 0.95762 0.25121 0.0
C1152 C 0.35124 0.93116 0.25872 0.0
C1153 C 0.34198 0.88795 0.26818 0.0
H1154 H 0.41665 0.86636 0.23437 0.0
C1155 C 0.40091 0.80988 0.25365 0.0
C1156 C 0.43216 0.80202 0.25241 0.0
C1157 C 0.38568 0.82885 0.25532 0.0
C1158 C 0.39616 0.87211 0.24432 0.0
H1159 H 0.26704 0.95128 0.24321 0.0
H1160 H 0.29378 0.91814 0.24694 0.0
H1161 H 0.38957 0.89938 0.23427 0.0
H1162 H 0.47203 0.8078 0.25251 0.0
H1163 H 0.44572 0.84079 0.25652 0.0
H1164 H 0.34869 0.86076 0.27858 0.0
C1165 C 0.30573 0.92691 0.25 0.0
C1166 C 0.38055 0.89108 0.24414 0.0
C1167 C 0.29042 0.94587 0.24788 0.0
C1168 C 0.44795 0.81346 0.25352 0.0
C1169 C 0.43277 0.83242 0.25552 0.0
C1170 C 0.35779 0.86896 0.26862 0.0
C1171 C 0.33642 0.91935 0.25513 0.0
C1172 C 0.35321 0.8992 0.25593 0.0
C1173 C 0.40136 0.84043 0.25607 0.0
C1174 C 0.38503 0.86075 0.25655 0.0
H1175 H 0.34795 0.95882 0.25968 0.0
H1176 H 0.37479 0.92575 0.26294 0.0
H1177 H 0.32111 0.89385 0.27765 0.0
H1178 H 0.38813 0.8014 0.25276 0.0
H1179 H 0.36155 0.83442 0.25533 0.0
C1180 C 0.29505 0.44491 0.75345 0.0
C1181 C 0.31085 0.45638 0.7533 0.0
C1182 C 0.31026 0.4259 0.75502 0.0
C1183 C 0.38278 0.38973 0.74105 0.0
H1184 H 0.35721 0.35905 0.78074 0.0
C1185 C 0.45108 0.31202 0.74645 0.0
C1186 C 0.4354 0.30055 0.74803 0.0
C1187 C 0.43627 0.33095 0.7491 0.0
C1188 C 0.36448 0.36736 0.76932 0.0
H1189 H 0.35482 0.45704 0.75541 0.0
H1190 H 0.38136 0.42391 0.75786 0.0
H1191 H 0.33018 0.3922 0.78171 0.0
H1192 H 0.39193 0.29986 0.75372 0.0
H1193 H 0.36582 0.3329 0.7575 0.0
H1194 H 0.41641 0.3651 0.72804 0.0
C1195 C 0.35726 0.42956 0.75666 0.0
C1196 C 0.34901 0.38639 0.76996 0.0
C1197 C 0.34205 0.44854 0.75536 0.0
C1198 C 0.40462 0.30837 0.75249 0.0
C1199 C 0.38971 0.32733 0.75485 0.0
C1200 C 0.39802 0.37075 0.74021 0.0
C1201 C 0.34159 0.418 0.75619 0.0
C1202 C 0.35803 0.39779 0.75586 0.0
C1203 C 0.40527 0.33894 0.75301 0.0
C1204 C 0.38917 0.35925 0.75434 0.0
H1205 H 0.27101 0.45058 0.75182 0.0
H1206 H 0.29757 0.41735 0.7545 0.0
H1207 H 0.38999 0.39812 0.72968 0.0
H1208 H 0.47471 0.30643 0.74274 0.0
H1209 H 0.4492 0.33932 0.74796 0.0
C1210 C 0.21536 0.74131 0.57352 0.0
C1211 C 0.21232 0.75786 0.56303 0.0
C1212 C 0.19132 0.73976 0.58511 0.0
C1213 C 0.1096 0.76452 0.59723 0.0
H1214 H 0.13064 0.7349 0.6536 0.0
C1215 C 0.04196 0.77195 0.68366 0.0
C1216 C 0.03644 0.75645 0.68975 0.0
C1217 C 0.05946 0.77154 0.66415 0.0
C1218 C 0.12453 0.74302 0.63773 0.0
H1219 H 0.18219 0.78565 0.55576 0.0
H1220 H 0.14063 0.78353 0.57759 0.0
H1221 H 0.16978 0.7351 0.6275 0.0
H1222 H 0.04397 0.72859 0.67997 0.0
H1223 H 0.07572 0.72771 0.64633 0.0
H1224 H 0.06423 0.77344 0.60901 0.0
C1225 C 0.16102 0.77144 0.57615 0.0
C1226 C 0.14689 0.74307 0.6226 0.0
C1227 C 0.18488 0.77278 0.56389 0.0
C1228 C 0.04783 0.74074 0.67559 0.0
C1229 C 0.06588 0.74021 0.6564 0.0
C1230 C 0.08725 0.76479 0.61275 0.0
C1231 C 0.16407 0.75496 0.58721 0.0
C1232 C 0.13981 0.75394 0.60222 0.0
C1233 C 0.07207 0.75553 0.6508 0.0
C1234 C 0.09471 0.75412 0.63312 0.0
H1235 H 0.23627 0.72951 0.57262 0.0
H1236 H 0.19432 0.72667 0.59266 0.0
H1237 H 0.10318 0.77277 0.58152 0.0
H1238 H 0.03325 0.78425 0.69422 0.0
H1239 H 0.06435 0.7834 0.66016 0.0
C1240 C 0.19589 0.92117 0.36588 0.0
C1241 C 0.22022 0.92597 0.36126 0.0
C1242 C 0.1984 0.90752 0.38205 0.0
C1243 C 0.24244 0.88143 0.43215 0.0
H1244 H 0.2084 0.84662 0.41409 0.0
C1245 C 0.26219 0.81456 0.48339 0.0
C1246 C 0.23854 0.80861 0.48431 0.0
C1247 C 0.25965 0.8299 0.47016 0.0
C1248 C 0.21762 0.85638 0.4196 0.0
H1249 H 0.26619 0.92036 0.37036 0.0
H1250 H 0.27071 0.8962 0.39855 0.0
H1251 H 0.20523 0.87108 0.38735 0.0
H1252 H 0.19292 0.81493 0.47335 0.0
H1253 H 0.18827 0.84186 0.45079 0.0
H1254 H 0.2549 0.86658 0.46446 0.0
C1255 C 0.24961 0.90318 0.38971 0.0
C1256 C 0.21587 0.87038 0.40422 0.0
C1257 C 0.24711 0.91688 0.37342 0.0
C1258 C 0.21172 0.81897 0.47281 0.0
C1259 C 0.20912 0.83434 0.45972 0.0
C1260 C 0.24414 0.86738 0.44762 0.0
C1261 C 0.22534 0.89824 0.394 0.0
C1262 C 0.22806 0.88314 0.41035 0.0
C1263 C 0.23332 0.83969 0.45769 0.0
C1264 C 0.23155 0.85477 0.44157 0.0
H1265 H 0.17499 0.92771 0.3566 0.0
H1266 H 0.17918 0.90419 0.38517 0.0
H1267 H 0.25185 0.89114 0.43743 0.0
H1268 H 0.2831 0.80699 0.49215 0.0
H1269 H 0.27876 0.83359 0.46892 0.0
C1270 C 0.9961 0.65533 0.64288 0.0
C1271 C 0.97852 0.67401 0.63974 0.0
C1272 C -0.00227 0.64267 0.62537 0.0
C1273 C 0.95485 0.63616 0.57562 0.0
H1274 H 0.02749 0.59376 0.5636 0.0
C1275 C 0.95596 0.56982 0.53338 0.0
C1276 C 0.98013 0.55956 0.51902 0.0
C1277 C 0.95543 0.58556 0.54474 0.0
C1278 C 0.00707 0.60563 0.56646 0.0
H1279 H 0.94944 0.69407 0.61546 0.0
H1280 H 0.95263 0.67196 0.5847 0.0
H1281 H 0.02882 0.61786 0.58945 0.0
H1282 H 0.0215 0.55854 0.50386 0.0
H1283 H 0.0206 0.58598 0.52357 0.0
H1284 H 0.93308 0.62389 0.55269 0.0
C1285 C 0.96492 0.66711 0.60084 0.0
C1286 C 0.00779 0.61935 0.58151 0.0
C1287 C 0.96336 0.6798 0.61836 0.0
C1288 C 0.00291 0.56592 0.51522 0.0
C1289 C 0.00239 0.58165 0.52654 0.0
C1290 C 0.95413 0.62242 0.56058 0.0
C1291 C 0.98178 0.64836 0.60429 0.0
C1292 C 0.9816 0.63463 0.58659 0.0
C1293 C 0.97901 0.59141 0.5419 0.0
C1294 C 0.98014 0.60685 0.5561 0.0
H1295 H 0.0083 0.65046 0.65906 0.0
H1296 H 0.01071 0.62832 0.6287 0.0
H1297 H 0.93422 0.64767 0.57929 0.0
H1298 H 0.93811 0.56525 0.53676 0.0
H1299 H 0.93721 0.59264 0.5566 0.0
C1300 C 0.29817 0.7275 0.43649 0.0
C1301 C 0.3 0.7353 0.45825 0.0
C1302 C 0.31897 0.72611 0.41886 0.0
C1303 C 0.36514 0.75042 0.40081 0.0
H1304 H 0.40274 0.7101 0.3579 0.0
C1305 C 0.44867 0.75292 0.33118 0.0
C1306 C 0.44626 0.74616 0.30886 0.0
C1307 C 0.43293 0.74999 0.35012 0.0
C1308 C 0.39217 0.72153 0.36964 0.0
H1309 H 0.32606 0.74613 0.47925 0.0
H1310 H 0.36242 0.74356 0.44905 0.0
H1311 H 0.37145 0.70688 0.38969 0.0
H1312 H 0.42542 0.73104 0.28886 0.0
H1313 H 0.39753 0.72637 0.32164 0.0
H1314 H 0.38497 0.76529 0.38066 0.0
C1315 C 0.34471 0.73892 0.44527 0.0
C1316 C 0.37435 0.71965 0.38781 0.0
C1317 C 0.324 0.74034 0.46265 0.0
C1318 C 0.4279 0.73637 0.30587 0.0
C1319 C 0.41206 0.73355 0.32472 0.0
C1320 C 0.38272 0.75234 0.38263 0.0
C1321 C 0.34176 0.73247 0.42292 0.0
C1322 C 0.36079 0.73407 0.4036 0.0
C1323 C 0.41432 0.74035 0.34705 0.0
C1324 C 0.39646 0.73794 0.36683 0.0
H1325 H 0.2798 0.72349 0.43265 0.0
H1326 H 0.31624 0.72106 0.40173 0.0
H1327 H 0.35444 0.7619 0.41247 0.0
H1328 H 0.4628 0.76039 0.33407 0.0
H1329 H 0.43545 0.7552 0.3672 0.0
C1330 C 0.24308 0.10097 0.14126 0.0
C1331 C 0.26415 0.08287 0.14017 0.0
C1332 C 0.24227 0.11355 0.12394 0.0
C1333 C 0.29037 0.1225 0.08045 0.0
H1334 H 0.21592 0.15991 0.05926 0.0
C1335 C 0.28245 0.19008 0.0379 0.0
C1336 C 0.26092 0.19784 0.02036 0.0
C1337 C 0.28418 0.17423 0.04954 0.0
C1338 C 0.23693 0.14942 0.06472 0.0
H1339 H 0.30046 0.06365 0.11977 0.0
H1340 H 0.29871 0.08558 0.08928 0.0
H1341 H 0.21505 0.13552 0.08464 0.0
H1342 H 0.22541 0.19445 0.00039 0.0
H1343 H 0.22876 0.16674 0.02047 0.0
H1344 H 0.31225 0.13645 0.06054 0.0
C1345 C 0.28303 0.09007 0.10368 0.0
C1346 C 0.23641 0.13556 0.07949 0.0
C1347 C 0.2838 0.07747 0.121 0.0
C1348 C 0.24211 0.18894 0.01397 0.0
C1349 C 0.24389 0.17309 0.02556 0.0
C1350 C 0.2909 0.13638 0.06567 0.0
C1351 C 0.26253 0.10832 0.10514 0.0
C1352 C 0.26311 0.12211 0.08782 0.0
C1353 C 0.26449 0.16578 0.04384 0.0
C1354 C 0.26417 0.15015 0.05791 0.0
H1355 H 0.22746 0.10549 0.15569 0.0
H1356 H 0.22639 0.12755 0.1257 0.0
H1357 H 0.31134 0.11243 0.08672 0.0
H1358 H 0.29727 0.19658 0.04326 0.0
H1359 H 0.30013 0.16905 0.06368 0.0
C1360 C 0.77832 0.76174 0.93181 0.0
C1361 C 0.78122 0.74776 0.94778 0.0
C1362 C 0.803 0.76148 0.91927 0.0
C1363 C 0.86063 0.76296 0.90282 0.0
H1364 H 0.91351 0.71697 0.87573 0.0
C1365 C 0.95068 0.7594 0.83489 0.0
C1366 C 0.95124 0.74865 0.81515 0.0
C1367 C 0.93514 0.75833 0.85509 0.0
C1368 C 0.89897 0.72993 0.88319 0.0
H1369 H 0.81157 0.72228 0.96278 0.0
H1370 H 0.85509 0.72192 0.94122 0.0
H1371 H 0.87499 0.71735 0.9029 0.0
H1372 H 0.93654 0.72806 0.80135 0.0
H1373 H 0.90915 0.72657 0.83596 0.0
H1374 H 0.88327 0.77568 0.88169 0.0
C1375 C 0.83378 0.73306 0.93823 0.0
C1376 C 0.87708 0.73013 0.89902 0.0
C1377 C 0.80898 0.73329 0.95066 0.0
C1378 C 0.93662 0.73655 0.8162 0.0
C1379 C 0.92111 0.73554 0.83623 0.0
C1380 C 0.88231 0.76279 0.88673 0.0
C1381 C 0.8311 0.74721 0.92245 0.0
C1382 C 0.857 0.74672 0.90841 0.0
C1383 C 0.91995 0.74649 0.85585 0.0
C1384 C 0.901 0.74634 0.87611 0.0
H1385 H 0.75708 0.77307 0.92932 0.0
H1386 H 0.79993 0.77236 0.90685 0.0
H1387 H 0.84603 0.77592 0.91026 0.0
H1388 H 0.96186 0.7688 0.83465 0.0
H1389 H 0.9348 0.76686 0.87 0.0
C1390 C 0.26001 0.58678 0.62029 0.0
C1391 C 0.28601 0.57493 0.6316 0.0
C1392 C 0.26087 0.60061 0.60553 0.0
C1393 C 0.30388 0.62894 0.59586 0.0
H1394 H 0.25897 0.64217 0.53785 0.0
C1395 C 0.30275 0.68958 0.5396 0.0
C1396 C 0.27453 0.70132 0.53146 0.0
C1397 C 0.30694 0.6725 0.54909 0.0
C1398 C 0.27152 0.6387 0.55407 0.0
H1399 H 0.33335 0.56824 0.6361 0.0
H1400 H 0.33487 0.59216 0.61016 0.0
H1401 H 0.26044 0.61545 0.55973 0.0
H1402 H 0.22878 0.70402 0.52624 0.0
H1403 H 0.23599 0.67464 0.54299 0.0
H1404 H 0.31427 0.65243 0.59065 0.0
C1405 C 0.31381 0.59082 0.61278 0.0
C1406 C 0.27234 0.6234 0.56659 0.0
C1407 C 0.31298 0.57698 0.62743 0.0
C1408 C 0.25088 0.69537 0.53233 0.0
C1409 C 0.25505 0.6784 0.54181 0.0
C1410 C 0.30295 0.64428 0.58341 0.0
C1411 C 0.28771 0.60294 0.6019 0.0
C1412 C 0.28824 0.61849 0.58777 0.0
C1413 C 0.283 0.66684 0.55061 0.0
C1414 C 0.28642 0.6495 0.56253 0.0
H1415 H 0.23894 0.58547 0.62302 0.0
H1416 H 0.24033 0.60983 0.59753 0.0
H1417 H 0.31601 0.62565 0.61228 0.0
H1418 H 0.32144 0.69372 0.53912 0.0
H1419 H 0.32886 0.66382 0.55546 0.0
C1420 C 0.30134 0.98929 0.32679 0.0
C1421 C 0.28739 0.00571 0.31439 0.0
C1422 C 0.32076 0.98834 0.34529 0.0
C1423 C 0.3433 0.01485 0.38791 0.0
H1424 H 0.42429 0.98104 0.37525 0.0
C1425 C 0.44363 0.0224 0.43267 0.0
C1426 C 0.46895 0.00662 0.43742 0.0
C1427 C 0.42003 0.02124 0.41978 0.0
C1428 C 0.40178 0.99028 0.37947 0.0
H1429 H 0.28106 0.03422 0.31238 0.0
H1430 H 0.31431 0.03266 0.34517 0.0
H1431 H 0.38376 0.98051 0.35073 0.0
H1432 H 0.48967 0.97724 0.43295 0.0
H1433 H 0.44804 0.97501 0.41147 0.0
H1434 H 0.36105 0.02457 0.41677 0.0
C1435 C 0.31051 0.02053 0.34043 0.0
C1436 C 0.37858 0.98997 0.36535 0.0
C1437 C 0.29168 0.02139 0.32163 0.0
C1438 C 0.47042 0.98965 0.42922 0.0
C1439 C 0.44659 0.9884 0.41683 0.0
C1440 C 0.36642 0.01494 0.40235 0.0
C1441 C 0.32583 0.00389 0.35197 0.0
C1442 C 0.34929 1.00252 0.36913 0.0
C1443 C 0.42111 0.0042 0.41182 0.0
C1444 C 0.39608 0.00298 0.39793 0.0
H1445 H 0.2985 0.97699 0.32142 0.0
H1446 H 0.33241 0.97537 0.35398 0.0
H1447 H 0.32079 0.0246 0.39116 0.0
H1448 H 0.44216 0.03562 0.43886 0.0
H1449 H 0.40111 0.03375 0.4159 0.0
C1450 C 0.84829 0.82071 0.9751 0.0
C1451 C 0.86948 0.80582 0.98716 0.0
C1452 C 0.85236 0.83709 0.97259 0.0
C1453 C 0.8862 0.86358 0.00414 0.0
H1454 H 0.87382 0.8929 0.94779 0.0
C1455 C 0.90611 0.92979 0.00543 0.0
C1456 C 0.88636 0.94484 0.99294 0.0
C1457 C 0.90586 0.91247 0.00216 0.0
C1458 C 0.877 0.88498 0.96374 0.0
H1459 H 0.91259 0.79609 0.00444 0.0
H1460 H 0.91927 0.8248 0.00051 0.0
H1461 H 0.87011 0.86306 0.94603 0.0
H1462 H 0.85144 0.95367 0.96676 0.0
H1463 H 0.84989 0.92343 0.96172 0.0
H1464 H 0.89184 0.88549 0.0222 0.0
C1465 C 0.89943 0.8238 0.99322 0.0
C1466 C 0.87502 0.86787 0.96267 0.0
C1467 C 0.89553 0.8074 0.99553 0.0
C1468 C 0.8668 0.94222 0.97663 0.0
C1469 C 0.86611 0.92488 0.97367 0.0
C1470 C 0.88774 0.8807 0.00529 0.0
C1471 C 0.87755 0.83894 0.98226 0.0
C1472 C 0.87986 0.85697 0.98286 0.0
C1473 C 0.88536 0.90983 0.9867 0.0
C1474 C 0.88342 0.89161 0.9851 0.0
H1475 H 0.8278 0.82007 0.96867 0.0
H1476 H 0.83506 0.8486 0.96419 0.0
H1477 H 0.88937 0.85564 0.02008 0.0
H1478 H 0.92191 0.93142 0.01769 0.0
H1479 H 0.9217 0.90116 0.01194 0.0
C1480 C 0.64881 0.18433 0.49063 0.0
C1481 C 0.63557 0.19797 0.50749 0.0
C1482 C 0.64676 0.16738 0.49248 0.0
C1483 C 0.62894 0.13679 0.53355 0.0
H1484 H 0.62006 0.11414 0.4753 0.0
C1485 C 0.6013 0.07161 0.52504 0.0
C1486 C 0.61849 0.0586 0.50846 0.0
C1487 C 0.60404 0.08844 0.52728 0.0
C1488 C 0.62272 0.12025 0.4917 0.0
H1489 H 0.61042 0.20449 0.53987 0.0
H1490 H 0.60594 0.1749 0.54283 0.0
H1491 H 0.62225 0.14414 0.47446 0.0
H1492 H 0.65396 0.05258 0.4828 0.0
H1493 H 0.65814 0.082 0.48637 0.0
H1494 H 0.62856 0.1128 0.55067 0.0
C1495 C 0.61833 0.17723 0.52832 0.0
C1496 C 0.62412 0.13742 0.49125 0.0
C1497 C 0.62073 0.19419 0.5266 0.0
C1498 C 0.63967 0.06244 0.4952 0.0
C1499 C 0.64219 0.07927 0.4973 0.0
C1500 C 0.62713 0.11962 0.534 0.0
C1501 C 0.63106 0.16367 0.51111 0.0
C1502 C 0.6278 0.14581 0.5121 0.0
C1503 C 0.62393 0.09259 0.51293 0.0
C1504 C 0.62453 0.11108 0.51301 0.0
H1505 H 0.66105 0.18672 0.47604 0.0
H1506 H 0.65766 0.15713 0.47929 0.0
H1507 H 0.63197 0.14276 0.54993 0.0
H1508 H 0.58477 0.06918 0.53557 0.0
H1509 H 0.58966 0.0985 0.53946 0.0
C1510 C 0.83932 0.44991 0.25896 0.0
C1511 C 0.80888 0.4576 0.25314 0.0
C1512 C 0.8546 0.43092 0.26027 0.0
C1513 C 0.84523 0.38774 0.26873 0.0
H1514 H 0.91823 0.36632 0.2328 0.0
C1515 C 0.90225 0.30972 0.25279 0.0
C1516 C 0.93336 0.30169 0.25024 0.0
C1517 C 0.88739 0.3287 0.25474 0.0
C1518 C 0.89824 0.37199 0.24335 0.0
H1519 H 0.7705 0.45147 0.24449 0.0
H1520 H 0.79697 0.41828 0.24755 0.0
H1521 H 0.89183 0.39937 0.23396 0.0
H1522 H 0.97335 0.30723 0.24817 0.0
H1523 H 0.94789 0.34017 0.25287 0.0
H1524 H 0.85182 0.36048 0.27862 0.0
C1525 C 0.809 0.42696 0.25099 0.0
C1526 C 0.88301 0.39099 0.24388 0.0
C1527 C 0.79385 0.44595 0.24926 0.0
C1528 C 0.9494 0.313 0.25024 0.0
C1529 C 0.93464 0.33197 0.25261 0.0
C1530 C 0.86071 0.36872 0.26853 0.0
C1531 C 0.83965 0.41924 0.25617 0.0
C1532 C 0.85623 0.39907 0.25641 0.0
C1533 C 0.90334 0.34016 0.25456 0.0
C1534 C 0.88735 0.36052 0.25566 0.0
H1535 H 0.85149 0.45855 0.26208 0.0
H1536 H 0.87815 0.42536 0.26448 0.0
H1537 H 0.82477 0.39362 0.27872 0.0
H1538 H 0.88926 0.30134 0.25275 0.0
H1539 H 0.8633 0.33438 0.25579 0.0
C1540 C 0.10987 0.57224 0.46597 0.0
C1541 C 0.1105 0.56342 0.48746 0.0
C1542 C 0.11319 0.5889 0.46528 0.0
C1543 C 0.10359 0.62913 0.50113 0.0
H1544 H 0.15505 0.63756 0.45485 0.0
C1545 C 0.13254 0.69296 0.50319 0.0
C1546 C 0.13591 0.70059 0.48173 0.0
C1547 C 0.12831 0.67657 0.50373 0.0
C1548 C 0.14021 0.63556 0.46765 0.0
H1549 H 0.11575 0.56515 0.52509 0.0
H1550 H 0.12111 0.59441 0.52386 0.0
H1551 H 0.15075 0.60805 0.45627 0.0
H1552 H 0.13647 0.69741 0.44397 0.0
H1553 H 0.12842 0.66896 0.44482 0.0
H1554 H 0.09272 0.65668 0.51236 0.0
C1555 C 0.11783 0.58841 0.50757 0.0
C1556 C 0.13787 0.61861 0.46852 0.0
C1557 C 0.11475 0.57165 0.50826 0.0
C1558 C 0.13423 0.69173 0.46077 0.0
C1559 C 0.12977 0.6754 0.46129 0.0
C1560 C 0.10576 0.64614 0.50016 0.0
C1561 C 0.11697 0.59724 0.48608 0.0
C1562 C 0.11961 0.6152 0.4853 0.0
C1563 C 0.12717 0.66748 0.48279 0.0
C1564 C 0.12416 0.64956 0.48345 0.0
H1565 H 0.10597 0.56655 0.44964 0.0
H1566 H 0.11202 0.5955 0.44849 0.0
H1567 H 0.08899 0.62699 0.51403 0.0
H1568 H 0.13424 0.69932 0.51964 0.0
H1569 H 0.12688 0.67075 0.52061 0.0
C1570 C 0.7005 0.06221 0.75054 0.0
C1571 C 0.68467 0.05087 0.74826 0.0
C1572 C 0.68591 0.08119 0.74816 0.0
C1573 C 0.61436 0.11782 0.72765 0.0
H1574 H 0.6394 0.14841 0.76814 0.0
C1575 C 0.54374 0.19482 0.74534 0.0
C1576 C 0.55905 0.20657 0.74501 0.0
C1577 C 0.55937 0.17586 0.74363 0.0
C1578 C 0.63233 0.14006 0.75656 0.0
H1579 H 0.64118 0.05043 0.74167 0.0
H1580 H 0.61545 0.08347 0.73848 0.0
H1581 H 0.66613 0.11538 0.76928 0.0
H1582 H 0.60261 0.20775 0.74222 0.0
H1583 H 0.62993 0.17466 0.73968 0.0
H1584 H 0.57982 0.14267 0.71563 0.0
C1585 C 0.63929 0.07782 0.7414 0.0
C1586 C 0.64775 0.12107 0.7571 0.0
C1587 C 0.654 0.05884 0.74344 0.0
C1588 C 0.59021 0.19903 0.74259 0.0
C1589 C 0.60586 0.18009 0.74122 0.0
C1590 C 0.59868 0.13681 0.72735 0.0
C1591 C 0.65499 0.08931 0.74385 0.0
C1592 C 0.639 0.10964 0.74268 0.0
C1593 C 0.59066 0.16828 0.74193 0.0
C1594 C 0.6075 0.14813 0.74181 0.0
H1595 H 0.72411 0.05647 0.75441 0.0
H1596 H 0.69895 0.08947 0.74975 0.0
H1597 H 0.60721 0.10957 0.71595 0.0
H1598 H 0.51978 0.20024 0.74738 0.0
H1599 H 0.54707 0.1671 0.7444 0.0
C1600 C 0.80123 0.58142 0.12934 0.0
C1601 C 0.77643 0.58062 0.14113 0.0
C1602 C 0.79769 0.59508 0.11283 0.0
C1603 C 0.74454 0.64139 0.09638 0.0
H1604 H 0.79752 0.634 0.04318 0.0
C1605 C 0.7313 0.69916 0.03114 0.0
C1606 C 0.75732 0.70221 0.02655 0.0
C1607 C 0.73279 0.68327 0.04244 0.0
C1608 C 0.78264 0.63625 0.05801 0.0
H1609 H 0.72822 0.5932 0.14391 0.0
H1610 H 0.72193 0.61656 0.11445 0.0
H1611 H 0.8008 0.60792 0.06733 0.0
H1612 H 0.80556 0.69044 0.02939 0.0
H1613 H 0.80817 0.66254 0.04902 0.0
H1614 H 0.72637 0.6697 0.087 0.0
C1615 C 0.74427 0.60691 0.11845 0.0
C1616 C 0.78454 0.62134 0.0719 0.0
C1617 C 0.74784 0.59332 0.13514 0.0
C1618 C 0.78505 0.68858 0.03268 0.0
C1619 C 0.78657 0.67255 0.04384 0.0
C1620 C 0.74245 0.65623 0.08236 0.0
C1621 C 0.7692 0.60821 0.10744 0.0
C1622 C 0.76576 0.62375 0.09147 0.0
C1623 C 0.76039 0.66993 0.04927 0.0
C1624 C 0.76169 0.65387 0.06319 0.0
H1625 H 0.82355 0.57166 0.13316 0.0
H1626 H 0.81746 0.59568 0.10491 0.0
H1627 H 0.73011 0.6439 0.11154 0.0
H1628 H 0.70962 0.70927 0.0266 0.0
H1629 H 0.71225 0.68152 0.04612 0.0
C1630 C 0.95819 0.4945 0.43161 0.0
C1631 C 0.95706 0.51007 0.44388 0.0
C1632 C 0.93324 0.49476 0.41933 0.0
C1633 C 0.87069 0.52501 0.38695 0.0
H1634 H 0.83792 0.48794 0.39325 0.0
C1635 C 0.77901 0.52574 0.32466 0.0
C1636 C 0.78162 0.50878 0.3157 0.0
C1637 C 0.79516 0.52665 0.34446 0.0
C1638 C 0.84694 0.49831 0.39113 0.0
H1639 H 0.92953 0.53801 0.45318 0.0
H1640 H 0.88602 0.53873 0.43084 0.0
H1641 H 0.87767 0.48771 0.41969 0.0
H1642 H 0.80183 0.47948 0.3206 0.0
H1643 H 0.83156 0.48088 0.35443 0.0
H1644 H 0.84191 0.53501 0.35763 0.0
C1645 C 0.90602 0.52629 0.43106 0.0
C1646 C 0.86954 0.49821 0.40634 0.0
C1647 C 0.93079 0.52591 0.4437 0.0
C1648 C 0.79943 0.49272 0.3274 0.0
C1649 C 0.81632 0.49358 0.34686 0.0
C1650 C 0.8486 0.52493 0.3715 0.0
C1651 C 0.90709 0.51072 0.4188 0.0
C1652 C 0.88171 0.51147 0.40417 0.0
C1653 C 0.81509 0.51057 0.35518 0.0
C1654 C 0.83658 0.51148 0.3732 0.0
H1655 H 0.97821 0.48206 0.43178 0.0
H1656 H 0.93458 0.48266 0.40981 0.0
H1657 H 0.88007 0.53523 0.3848 0.0
H1658 H 0.76503 0.53831 0.31598 0.0
H1659 H 0.7928 0.53999 0.35082 0.0
C1660 C 0.19038 0.48369 0.69133 0.0
C1661 C 0.2046 0.49601 0.69005 0.0
C1662 C 0.17199 0.48261 0.67319 0.0
C1663 C 0.1509 0.49368 0.61156 0.0
H1664 H 0.07325 0.49745 0.63323 0.0
C1665 C 0.0253 0.51252 0.57353 0.0
C1666 C 0.0304 0.50005 0.55498 0.0
C1667 C 0.04832 0.51127 0.58883 0.0
C1668 C 0.09482 0.4964 0.62693 0.0
H1669 H 0.21197 0.51615 0.66813 0.0
H1670 H 0.17951 0.51426 0.6363 0.0
H1671 H 0.11132 0.49612 0.6617 0.0
H1672 H 0.0632 0.47634 0.53797 0.0
H1673 H 0.10394 0.47436 0.56465 0.0
H1674 H 0.13398 0.49413 0.57666 0.0
C1675 C 0.18277 0.50545 0.65142 0.0
C1676 C 0.11668 0.49549 0.6432 0.0
C1677 C 0.20121 0.50658 0.66967 0.0
C1678 C 0.05893 0.48631 0.55192 0.0
C1679 C 0.08214 0.48517 0.56713 0.0
C1680 C 0.12902 0.4944 0.59521 0.0
C1681 C 0.16742 0.49378 0.65333 0.0
C1682 C 0.14487 0.4942 0.63571 0.0
C1683 C 0.0769 0.49756 0.58583 0.0
C1684 C 0.10072 0.49595 0.60281 0.0
H1685 H 0.1928 0.47515 0.70662 0.0
H1686 H 0.16079 0.47328 0.67492 0.0
H1687 H 0.17251 0.49264 0.60538 0.0
H1688 H 0.00352 0.5233 0.57619 0.0
H1689 H 0.0438 0.52109 0.60299 0.0
C1690 C 0.54512 0.77754 0.18955 0.0
C1691 C 0.54183 0.76101 0.19342 0.0
C1692 C 0.562 0.77932 0.1707 0.0
C1693 C 0.60048 0.75586 0.11581 0.0
H1694 H 0.64788 0.78456 0.12685 0.0
C1695 C 0.71176 0.74708 0.07081 0.0
C1696 C 0.71141 0.76252 0.05872 0.0
C1697 C 0.6875 0.74818 0.08457 0.0
C1698 C 0.63445 0.7767 0.12349 0.0
H1699 H 0.5533 0.7334 0.18073 0.0
H1700 H 0.58421 0.73605 0.14864 0.0
H1701 H 0.61239 0.78392 0.15645 0.0
H1702 H 0.68585 0.79109 0.05116 0.0
H1703 H 0.6437 0.79328 0.07647 0.0
H1704 H 0.62458 0.74769 0.08345 0.0
C1705 C 0.5729 0.74795 0.15948 0.0
C1706 C 0.61395 0.77638 0.14034 0.0
C1707 C 0.55539 0.74634 0.178 0.0
C1708 C 0.6865 0.77908 0.06049 0.0
C1709 C 0.66252 0.78031 0.07479 0.0
C1710 C 0.62152 0.75587 0.0992 0.0
C1711 C 0.57664 0.76444 0.15566 0.0
C1712 C 0.59688 0.76579 0.13687 0.0
C1713 C 0.66294 0.76484 0.08687 0.0
C1714 C 0.63875 0.76618 0.10307 0.0
H1715 H 0.53449 0.78915 0.20104 0.0
H1716 H 0.56364 0.79238 0.16803 0.0
H1717 H 0.58733 0.74788 0.11221 0.0
H1718 H 0.73066 0.73411 0.06943 0.0
H1719 H 0.68821 0.73615 0.09389 0.0
C1720 C 0.70075 0.48665 0.17892 0.0
C1721 C 0.71496 0.49878 0.18251 0.0
C1722 C 0.68889 0.4854 0.15707 0.0
C1723 C 0.65737 0.51312 0.10543 0.0
H1724 H 0.65058 0.46832 0.08507 0.0
C1725 C 0.55278 0.51233 0.06299 0.0
C1726 C 0.55428 0.4987 0.04683 0.0
C1727 C 0.57866 0.51249 0.07313 0.0
C1728 C 0.65274 0.4809 0.09005 0.0
H1729 H 0.72898 0.51857 0.16567 0.0
H1730 H 0.70813 0.51637 0.12735 0.0
H1731 H 0.68705 0.46709 0.11491 0.0
H1732 H 0.58373 0.47479 0.02804 0.0
H1733 H 0.62944 0.47504 0.04581 0.0
H1734 H 0.62256 0.52697 0.08096 0.0
C1735 C 0.706 0.50796 0.14158 0.0
C1736 C 0.67339 0.48022 0.10738 0.0
C1737 C 0.71793 0.50921 0.16352 0.0
C1738 C 0.58215 0.48548 0.04042 0.0
C1739 C 0.60819 0.4856 0.05063 0.0
C1740 C 0.63686 0.51379 0.08799 0.0
C1741 C 0.69099 0.49621 0.13822 0.0
C1742 C 0.67482 0.49641 0.1161 0.0
C1743 C 0.60664 0.49896 0.06739 0.0
C1744 C 0.63326 0.4978 0.08101 0.0
H1745 H 0.69815 0.47836 0.19311 0.0
H1746 H 0.67696 0.47648 0.15527 0.0
H1747 H 0.65792 0.52585 0.11171 0.0
H1748 H 0.5315 0.52274 0.0681 0.0
H1749 H 0.57654 0.52277 0.08628 0.0
C1750 C 0.40452 0.42887 0.00963 0.0
C1751 C 0.38571 0.44438 0.02211 0.0
C1752 C 0.39923 0.41285 0.00967 0.0
C1753 C 0.367 0.38803 0.04632 0.0
H1754 H 0.37138 0.35911 0.99055 0.0
C1755 C 0.33862 0.32423 0.04795 0.0
C1756 C 0.35505 0.30943 0.03346 0.0
C1757 C 0.34249 0.34068 0.04647 0.0
C1758 C 0.37054 0.36688 0.00634 0.0
H1759 H 0.34573 0.45541 0.04343 0.0
H1760 H 0.33695 0.4272 0.04389 0.0
H1761 H 0.37648 0.38836 0.98711 0.0
H1762 H 0.38907 0.29996 0.00658 0.0
H1763 H 0.39655 0.32857 0.00442 0.0
H1764 H 0.36185 0.36648 0.06571 0.0
C1765 C 0.35586 0.42752 0.03423 0.0
C1766 C 0.37326 0.38367 0.00432 0.0
C1767 C 0.36094 0.44363 0.034 0.0
C1768 C 0.376 0.31123 0.01785 0.0
C1769 C 0.3801 0.32764 0.01652 0.0
C1770 C 0.3646 0.37118 0.04839 0.0
C1771 C 0.37524 0.41191 0.02238 0.0
C1772 C 0.37144 0.3944 0.02428 0.0
C1773 C 0.36309 0.34264 0.0306 0.0
C1774 C 0.36628 0.36041 0.02843 0.0
H1775 H 0.42411 0.42881 0.00063 0.0
H1776 H 0.41466 0.40094 0.00057 0.0
H1777 H 0.36604 0.39591 0.06204 0.0
H1778 H 0.32192 0.32332 0.05984 0.0
H1779 H 0.32865 0.35202 0.0573 0.0
C1780 C 0.04081 0.19587 0.24913 0.0
C1781 C 0.05663 0.20729 0.24845 0.0
C1782 C 0.05582 0.17687 0.24768 0.0
C1783 C 0.13004 0.13993 0.23316 0.0
H1784 H 0.09927 0.11014 0.26985 0.0
C1785 C 0.19718 0.06306 0.2545 0.0
C1786 C 0.18196 0.05141 0.25145 0.0
C1787 C 0.18203 0.08204 0.25245 0.0
C1788 C 0.108 0.11827 0.25936 0.0
H1789 H 0.10061 0.20781 0.24567 0.0
H1790 H 0.12698 0.17473 0.24418 0.0
H1791 H 0.07264 0.14319 0.26953 0.0
H1792 H 0.13905 0.05044 0.24374 0.0
H1793 H 0.11247 0.08358 0.24071 0.0
H1794 H 0.16606 0.11482 0.2238 0.0
C1795 C 0.10288 0.18033 0.24509 0.0
C1796 C 0.09264 0.13727 0.25904 0.0
C1797 C 0.08778 0.19934 0.24614 0.0
C1798 C 0.15136 0.05908 0.24623 0.0
C1799 C 0.13612 0.07804 0.24456 0.0
C1800 C 0.14564 0.12093 0.23379 0.0
C1801 C 0.08715 0.16877 0.246 0.0
C1802 C 0.10337 0.14842 0.24591 0.0
C1803 C 0.15125 0.08974 0.24774 0.0
C1804 C 0.13474 0.1099 0.24686 0.0
H1805 H 0.01683 0.20158 0.25105 0.0
H1806 H 0.04276 0.16855 0.24796 0.0
H1807 H 0.13882 0.14793 0.2225 0.0
H1808 H 0.22064 0.05756 0.25887 0.0
H1809 H 0.19421 0.09072 0.2552 0.0
C1810 C 0.20496 0.31367 0.95445 0.0
C1811 C 0.23025 0.30397 0.96807 0.0
C1812 C 0.20237 0.32977 0.94298 0.0
C1813 C 0.23422 0.36547 0.94069 0.0
H1814 H 0.20244 0.37237 0.87744 0.0
C1815 C 0.24512 0.41863 0.87543 0.0
C1816 C 0.21948 0.42876 0.86238 0.0
C1817 C 0.24581 0.40406 0.88954 0.0
C1818 C 0.21111 0.37073 0.89517 0.0
H1819 H 0.27242 0.30383 0.98071 0.0
H1820 H 0.26819 0.33155 0.9604 0.0
H1821 H 0.20409 0.34607 0.90009 0.0
H1822 H 0.17461 0.4314 0.85371 0.0
H1823 H 0.17579 0.40613 0.87833 0.0
H1824 H 0.2418 0.39002 0.93539 0.0
C1825 C 0.25005 0.32698 0.95886 0.0
C1826 C 0.21194 0.35568 0.90822 0.0
C1827 C 0.25253 0.31098 0.97045 0.0
C1828 C 0.19457 0.42405 0.8638 0.0
C1829 C 0.19534 0.40944 0.8777 0.0
C1830 C 0.23358 0.38046 0.92754 0.0
C1831 C 0.22512 0.33647 0.94473 0.0
C1832 C 0.22348 0.35284 0.93116 0.0
C1833 C 0.22101 0.3992 0.89061 0.0
C1834 C 0.22197 0.38326 0.90465 0.0
H1835 H 0.18731 0.30871 0.95238 0.0
H1836 H 0.18259 0.33691 0.93261 0.0
H1837 H 0.24289 0.36387 0.95841 0.0
H1838 H 0.26462 0.42198 0.87475 0.0
H1839 H 0.26598 0.39633 0.89918 0.0
C1840 C 0.31791 0.24812 0.95015 0.0
C1841 C 0.30815 0.23375 0.95191 0.0
C1842 C 0.34268 0.24617 0.93657 0.0
C1843 C 0.38448 0.21882 0.88627 0.0
H1844 H 0.42597 0.25141 0.89277 0.0
C1845 C 0.42945 0.24174 0.80596 0.0
C1846 C 0.45489 0.24579 0.80761 0.0
C1847 C 0.41685 0.23778 0.826 0.0
C1848 C 0.41512 0.24192 0.89078 0.0
H1849 H 0.31774 0.20562 0.94264 0.0
H1850 H 0.3622 0.20175 0.91979 0.0
H1851 H 0.39771 0.24716 0.92559 0.0
H1852 H 0.4873 0.24893 0.83136 0.0
H1853 H 0.46594 0.24129 0.86656 0.0
H1854 H 0.40286 0.21298 0.85187 0.0
C1855 C 0.35003 0.21484 0.92802 0.0
C1856 C 0.39845 0.2397 0.90954 0.0
C1857 C 0.32471 0.21696 0.94122 0.0
C1858 C 0.46747 0.24598 0.82972 0.0
C1859 C 0.45521 0.24161 0.84983 0.0
C1860 C 0.40175 0.22067 0.86778 0.0
C1861 C 0.35869 0.22966 0.92479 0.0
C1862 C 0.3817 0.22882 0.90713 0.0
C1863 C 0.42982 0.23733 0.84818 0.0
C1864 C 0.41606 0.23295 0.86935 0.0
H1865 H 0.30538 0.26127 0.95814 0.0
H1866 H 0.34805 0.25805 0.93431 0.0
H1867 H 0.372 0.21033 0.88351 0.0
H1868 H 0.41911 0.24172 0.78912 0.0
H1869 H 0.39671 0.23523 0.82402 0.0
C1870 C 0.44044 0.53512 0.9331 0.0
C1871 C 0.44453 0.52466 0.9536 0.0
C1872 C 0.41721 0.53674 0.91761 0.0
C1873 C 0.37398 0.51 0.90053 0.0
H1874 H 0.32896 0.55205 0.86229 0.0
C1875 C 0.29095 0.50658 0.83067 0.0
C1876 C 0.29257 0.51433 0.80886 0.0
C1877 C 0.30555 0.50983 0.85021 0.0
C1878 C 0.34148 0.54018 0.87281 0.0
H1879 H 0.42648 0.50895 0.97481 0.0
H1880 H 0.38561 0.51217 0.94846 0.0
H1881 H 0.36124 0.55505 0.89351 0.0
H1882 H 0.31037 0.53181 0.79055 0.0
H1883 H 0.33616 0.53712 0.82438 0.0
H1884 H 0.3551 0.49496 0.87956 0.0
C1885 C 0.40062 0.51874 0.94393 0.0
C1886 C 0.35991 0.54191 0.89066 0.0
C1887 C 0.42387 0.51702 0.95918 0.0
C1888 C 0.30865 0.52561 0.80709 0.0
C1889 C 0.32325 0.52881 0.82656 0.0
C1890 C 0.35567 0.50826 0.88272 0.0
C1891 C 0.39773 0.52798 0.92253 0.0
C1892 C 0.37654 0.52679 0.90458 0.0
C1893 C 0.32207 0.52086 0.8483 0.0
C1894 C 0.33947 0.52326 0.86847 0.0
H1895 H 0.45613 0.54115 0.92838 0.0
H1896 H 0.4156 0.54391 0.90121 0.0
H1897 H 0.38698 0.49797 0.91062 0.0
H1898 H 0.27857 0.49794 0.83265 0.0
H1899 H 0.30397 0.50367 0.86681 0.0
C1900 C 0.62767 0.69344 0.96716 0.0
C1901 C 0.62405 0.70221 0.98909 0.0
C1902 C 0.62399 0.67696 0.96481 0.0
C1903 C 0.62763 0.63686 0.99833 0.0
H1904 H 0.58462 0.62839 0.94538 0.0
C1905 C 0.60312 0.57165 0.99037 0.0
C1906 C 0.60432 0.56403 0.96795 0.0
C1907 C 0.60531 0.58854 0.9931 0.0
C1908 C 0.59706 0.63042 0.9601 0.0
H1909 H 0.61305 0.70058 0.02565 0.0
H1910 H 0.60703 0.67161 0.02156 0.0
H1911 H 0.58795 0.65803 0.94998 0.0
H1912 H 0.60923 0.56793 0.93086 0.0
H1913 H 0.61381 0.59727 0.93559 0.0
H1914 H 0.63724 0.6092 0.00827 0.0
C1915 C 0.61291 0.67753 0.00624 0.0
C1916 C 0.59885 0.64744 0.96278 0.0
C1917 C 0.61639 0.69411 0.00857 0.0
C1918 C 0.60806 0.57356 0.94832 0.0
C1919 C 0.61051 0.5904 0.95106 0.0
C1920 C 0.62603 0.61979 0.99557 0.0
C1921 C 0.61683 0.66874 0.98435 0.0
C1922 C 0.61418 0.65084 0.9819 0.0
C1923 C 0.60895 0.59818 0.97348 0.0
C1924 C 0.61076 0.61634 0.97639 0.0
H1925 H 0.63424 0.69901 0.95186 0.0
H1926 H 0.62759 0.67038 0.94779 0.0
H1927 H 0.63997 0.63899 0.01306 0.0
H1928 H 0.59967 0.56476 0.00578 0.0
H1929 H 0.60346 0.59423 0.01058 0.0
C1930 C 0.94573 0.81222 0.74983 0.0
C1931 C 0.93051 0.80051 0.75198 0.0
C1932 C 0.93029 0.8312 0.7513 0.0
C1933 C 0.85747 0.86711 0.74001 0.0
H1934 H 0.88386 0.89748 0.77977 0.0
C1935 C 0.79021 0.94511 0.74567 0.0
C1936 C 0.80605 0.95641 0.74835 0.0
C1937 C 0.80471 0.92611 0.74789 0.0
C1938 C 0.87636 0.88929 0.76827 0.0
H1939 H 0.88719 0.79945 0.75734 0.0
H1940 H 0.86008 0.83264 0.75919 0.0
H1941 H 0.91096 0.86436 0.78007 0.0
H1942 H 0.84954 0.95673 0.75528 0.0
H1943 H 0.87517 0.92368 0.75802 0.0
H1944 H 0.82372 0.89182 0.72735 0.0
C1945 C 0.88401 0.82712 0.75664 0.0
C1946 C 0.89185 0.87028 0.76858 0.0
C1947 C 0.89954 0.80814 0.75563 0.0
C1948 C 0.83669 0.94836 0.75325 0.0
C1949 C 0.85134 0.92935 0.75505 0.0
C1950 C 0.84228 0.88612 0.73937 0.0
C1951 C 0.89921 0.83885 0.7544 0.0
C1952 C 0.88255 0.859 0.75447 0.0
C1953 C 0.8356 0.9179 0.75233 0.0
C1954 C 0.85147 0.89754 0.75348 0.0
H1955 H 0.96947 0.80677 0.74659 0.0
H1956 H 0.94252 0.83993 0.74928 0.0
H1957 H 0.85002 0.85875 0.72872 0.0
H1958 H 0.76667 0.95089 0.74159 0.0
H1959 H 0.79158 0.9179 0.74608 0.0
C1960 C 0.47564 0.18131 0.60743 0.0
C1961 C 0.48724 0.17536 0.62991 0.0
C1962 C 0.4783 0.16867 0.58955 0.0
C1963 C 0.51844 0.11982 0.57276 0.0
H1964 H 0.44689 0.12769 0.53679 0.0
C1965 C 0.51481 0.06549 0.5076 0.0
C1966 C 0.48922 0.06144 0.5087 0.0
C1967 C 0.51516 0.08127 0.51819 0.0
C1968 C 0.46706 0.12526 0.54669 0.0
H1969 H 0.51208 0.15148 0.65087 0.0
H1970 H 0.51627 0.12947 0.61996 0.0
H1971 H 0.44781 0.15125 0.56379 0.0
H1972 H 0.44358 0.07115 0.52105 0.0
H1973 H 0.44444 0.09836 0.54009 0.0
H1974 H 0.53719 0.09348 0.55664 0.0
C1975 C 0.50526 0.1439 0.616 0.0
C1976 C 0.46773 0.13888 0.56198 0.0
C1977 C 0.50257 0.15652 0.63383 0.0
C1978 C 0.46357 0.07393 0.51972 0.0
C1979 C 0.46407 0.0896 0.5306 0.0
C1980 C 0.51775 0.10619 0.55754 0.0
C1981 C 0.49272 0.14978 0.59374 0.0
C1982 C 0.49322 0.13618 0.57557 0.0
C1983 C 0.49012 0.09323 0.53049 0.0
C1984 C 0.49184 0.10858 0.54464 0.0
H1985 H 0.46354 0.19572 0.60386 0.0
H1986 H 0.46869 0.17368 0.57254 0.0
H1987 H 0.5386 0.11738 0.5827 0.0
H1988 H 0.53492 0.05621 0.49909 0.0
H1989 H 0.53528 0.08392 0.51717 0.0
C1990 C 0.49527 0.34904 0.8576 0.0
C1991 C 0.51426 0.33076 0.86197 0.0
C1992 C 0.49341 0.36284 0.87355 0.0
C1993 C 0.53786 0.37328 0.91899 0.0
H1994 H 0.46412 0.41446 0.93257 0.0
C1995 C 0.49132 0.44322 0.97943 0.0
C1996 C 0.51246 0.45057 0.9737 0.0
C1997 C 0.49145 0.42759 0.96805 0.0
C1998 C 0.48486 0.40296 0.92915 0.0
H1999 H 0.54484 0.31258 0.88727 0.0
H2000 H 0.54173 0.33667 0.91498 0.0
H2001 H 0.46302 0.38907 0.90892 0.0
H2002 H 0.55103 0.44674 0.95203 0.0
H2003 H 0.55134 0.41945 0.93233 0.0
H2004 H 0.55975 0.38722 0.93902 0.0
C2005 C 0.52866 0.34035 0.89902 0.0
C2006 C 0.48426 0.3885 0.91542 0.0
C2007 C 0.53043 0.32655 0.88313 0.0
C2008 C 0.5344 0.4415 0.95692 0.0
C2009 C 0.53466 0.42579 0.94566 0.0
C2010 C 0.53849 0.38778 0.93258 0.0
C2011 C 0.51055 0.3587 0.89422 0.0
C2012 C 0.51079 0.37356 0.91001 0.0
C2013 C 0.51291 0.41882 0.95083 0.0
C2014 C 0.51204 0.40287 0.93763 0.0
H2015 H 0.48279 0.35284 0.84137 0.0
H2016 H 0.47947 0.37686 0.86921 0.0
H2017 H 0.55874 0.36206 0.91496 0.0
H2018 H 0.4742 0.44974 0.99237 0.0
H2019 H 0.47464 0.42242 0.97266 0.0
C2020 C 0.51557 0.8293 0.39147 0.0
C2021 C 0.50522 0.83323 0.36825 0.0
C2022 C 0.51365 0.84336 0.40701 0.0
C2023 C 0.47694 0.89363 0.41608 0.0
H2024 H 0.54671 0.88645 0.45405 0.0
C2025 C 0.53201 0.94037 0.46808 0.0
C2026 C 0.50617 0.95345 0.47818 0.0
C2027 C 0.53126 0.92464 0.45749 0.0
C2028 C 0.52708 0.88872 0.44352 0.0
H2029 H 0.48426 0.85518 0.34339 0.0
H2030 H 0.48086 0.87964 0.37044 0.0
H2031 H 0.54549 0.86149 0.42977 0.0
H2032 H 0.45972 0.95967 0.48626 0.0
H2033 H 0.45852 0.93228 0.46802 0.0
H2034 H 0.45896 0.92105 0.4291 0.0
C2035 C 0.49013 0.86569 0.37676 0.0
C2036 C 0.52621 0.87431 0.4298 0.0
C2037 C 0.49205 0.85163 0.36122 0.0
C2038 C 0.47998 0.94999 0.47844 0.0
C2039 C 0.47922 0.9343 0.46787 0.0
C2040 C 0.4778 0.90802 0.4298 0.0
C2041 C 0.50132 0.86173 0.39975 0.0
C2042 C 0.50129 0.87665 0.41566 0.0
C2043 C 0.50466 0.92161 0.45679 0.0
C2044 C 0.50304 0.90584 0.44348 0.0
H2045 H 0.52541 0.8153 0.39759 0.0
H2046 H 0.522 0.83983 0.42471 0.0
H2047 H 0.45724 0.89586 0.40564 0.0
H2048 H 0.55251 0.94264 0.46741 0.0
H2049 H 0.55123 0.91528 0.44895 0.0
C2050 C 0.51003 0.56239 0.02073 0.0
C2051 C 0.48708 0.55601 0.02379 0.0
C2052 C 0.50889 0.57822 0.03202 0.0
C2053 C 0.51127 0.60314 0.07147 0.0
H2054 H 0.43861 0.64654 0.07806 0.0
C2055 C 0.49686 0.65926 0.14039 0.0
C2056 C 0.48078 0.67756 0.13389 0.0
C2057 C 0.49898 0.64503 0.12513 0.0
C2058 C 0.45916 0.63459 0.07617 0.0
H2059 H 0.44437 0.56174 0.04042 0.0
H2060 H 0.44243 0.58946 0.06023 0.0
H2061 H 0.43849 0.62106 0.05412 0.0
H2062 H 0.45566 0.69525 0.10574 0.0
H2063 H 0.45929 0.67037 0.07915 0.0
H2064 H 0.53194 0.61663 0.09353 0.0
C2065 C 0.46122 0.5822 0.04896 0.0
C2066 C 0.45899 0.61993 0.06267 0.0
C2067 C 0.46236 0.56629 0.03765 0.0
C2068 C 0.46779 0.6813 0.11144 0.0
C2069 C 0.46982 0.66706 0.09622 0.0
C2070 C 0.5114 0.61775 0.08504 0.0
C2071 C 0.48479 0.58811 0.04664 0.0
C2072 C 0.48501 0.604 0.06026 0.0
C2073 C 0.48502 0.64876 0.10305 0.0
C2074 C 0.48531 0.6336 0.08766 0.0
H2075 H 0.52934 0.55492 0.01003 0.0
H2076 H 0.52713 0.5826 0.02952 0.0
H2077 H 0.53162 0.59098 0.07018 0.0
H2078 H 0.50677 0.65587 0.15766 0.0
H2079 H 0.51059 0.63107 0.13102 0.0
loop_
_geom_bond_atom_site_label_1
_geom_bond_atom_site_label_2
_geom_bond_distance
_geom_bond_site_symmetry_2
_ccdc_geom_bond_type
Tb0 C2 2.809 . S
Tb0 O20 2.484 . S
Tb0 O21 2.440 . S
Tb0 O22 2.658 1_655 S
Tb0 O23 2.409 1_655 S
Tb0 O24 2.401 1_655 S
Tb0 O28 2.325 1_564 S
Tb0 O31 2.341 1_565 S
Tb1 C11 2.809 . S
Tb1 O22 2.325 1_546 S
Tb1 O25 2.341 1_545 S
Tb1 O26 2.484 . S
Tb1 O27 2.440 . S
Tb1 O28 2.658 1_455 S
Tb1 O29 2.409 1_455 S
Tb1 O30 2.380 1_455 S
C2 Tb0 2.809 . S
C2 C3 1.514 . S
C2 O20 1.248 . S
C2 O21 1.266 . S
C3 C2 1.514 . S
C3 C4 1.359 . S
C3 C8 1.348 . S
C4 C3 1.359 . S
C4 C5 1.380 . S
C4 H32 0.929 1_554 S
C5 C4 1.380 . S
C5 C6 1.347 . S
C5 H33 0.931 1_554 S
C6 C5 1.347 . S
C6 C7 1.369 . S
C7 C6 1.369 . S
C7 C8 1.408 . S
C7 H34 0.930 . S
C8 C3 1.348 . S
C8 C7 1.408 . S
C8 H35 0.930 . S
C9 O22 1.281 . S
C9 O23 1.254 . S
C10 O24 1.195 1_556 S
C10 O25 1.266 . S
C11 Tb1 2.809 . S
C11 C12 1.514 . S
C11 O26 1.248 . S
C11 O27 1.266 . S
C12 C11 1.514 . S
C12 C13 1.384 . S
C12 C17 1.348 . S
C13 C12 1.384 . S
C13 C14 1.380 . S
C13 H36 0.904 1_556 S
C14 C13 1.380 . S
C14 C15 1.375 . S
C14 H37 0.902 1_556 S
C15 C14 1.375 . S
C15 C16 1.369 . S
C16 C15 1.369 . S
C16 C17 1.408 . S
C16 H38 0.930 . S
C17 C12 1.348 . S
C17 C16 1.408 . S
C17 H39 0.930 . S
C18 O28 1.281 . S
C18 O29 1.254 . S
C19 O30 1.232 1_554 S
C19 O31 1.266 . S
O20 Tb0 2.484 . S
O20 C2 1.248 . S
O21 Tb0 2.440 . S
O21 C2 1.266 . S
O22 Tb0 2.658 1_455 S
O22 Tb1 2.325 1_564 S
O22 C9 1.281 . S
O23 Tb0 2.409 1_455 S
O23 C9 1.254 . S
O24 Tb0 2.401 1_455 S
O24 C10 1.195 1_554 S
O25 Tb1 2.341 1_565 S
O25 C10 1.266 . S
O26 Tb1 2.484 . S
O26 C11 1.248 . S
O27 Tb1 2.440 . S
O27 C11 1.266 . S
O28 Tb0 2.325 1_546 S
O28 Tb1 2.658 1_655 S
O28 C18 1.281 . S
O29 Tb1 2.409 1_655 S
O29 C18 1.254 . S
O30 Tb1 2.380 1_655 S
O30 C19 1.232 1_556 S
O31 Tb0 2.341 1_545 S
O31 C19 1.266 . S
H32 C4 0.929 1_556 S
H33 C5 0.931 1_556 S
H34 C7 0.930 . S
H35 C8 0.930 . S
H36 C13 0.904 1_554 S
H37 C14 0.902 1_554 S
H38 C16 0.930 . S
H39 C17 0.930 . S
Tb40 C42 2.809 . S
Tb40 O60 2.489 . S
Tb40 O61 2.440 . S
Tb40 O62 2.658 . S
Tb40 O63 2.409 . S
Tb40 O64 2.378 1_455 S
Tb40 O68 2.325 1_455 S
Tb40 O71 2.341 . S
Tb41 C51 2.809 . S
Tb41 O62 2.325 1_655 S
Tb41 O65 2.341 . S
Tb41 O66 2.484 1_655 S
Tb41 O67 2.440 . S
Tb41 O68 2.658 . S
Tb41 O69 2.409 . S
Tb41 O70 2.378 1_655 S
C42 Tb40 2.809 . S
C42 C43 1.514 . S
C42 O60 1.262 . S
C42 O61 1.266 . S
C43 C42 1.514 . S
C43 C44 1.359 1_455 S
C43 C48 1.348 . S
C44 C43 1.359 1_655 S
C44 C45 1.380 . S
C44 H72 0.929 . S
C45 C44 1.380 . S
C45 C46 1.347 1_655 S
C45 H73 0.931 . S
C46 C45 1.347 1_455 S
C46 C47 1.369 . S
C47 C46 1.369 . S
C47 C48 1.408 . S
C47 H74 0.930 . S
C48 C43 1.348 . S
C48 C47 1.408 . S
C48 H75 0.930 . S
C49 O62 1.281 . S
C49 O63 1.254 . S
C50 O64 1.236 . S
C50 O65 1.266 . S
C51 Tb41 2.809 . S
C51 C52 1.514 . S
C51 O66 1.246 1_655 S
C51 O67 1.266 . S
C52 C51 1.514 . S
C52 C53 1.359 1_655 S
C52 C57 1.348 . S
C53 C52 1.359 1_455 S
C53 C54 1.380 . S
C53 H76 0.929 . S
C54 C53 1.380 . S
C54 C55 1.347 1_455 S
C54 H77 0.931 . S
C55 C54 1.347 1_655 S
C55 C56 1.369 . S
C56 C55 1.369 . S
C56 C57 1.408 . S
C56 H78 0.930 . S
C57 C52 1.348 . S
C57 C56 1.408 . S
C57 H79 0.930 . S
C58 O68 1.281 . S
C58 O69 1.254 . S
C59 O70 1.236 . S
C59 O71 1.266 . S
O60 Tb40 2.489 . S
O60 C42 1.262 . S
O61 Tb40 2.440 . S
O61 C42 1.266 . S
O62 Tb40 2.658 . S
O62 Tb41 2.325 1_455 S
O62 C49 1.281 . S
O63 Tb40 2.409 . S
O63 C49 1.254 . S
O64 Tb40 2.378 1_655 S
O64 C50 1.236 . S
O65 Tb41 2.341 . S
O65 C50 1.266 . S
O66 Tb41 2.484 1_455 S
O66 C51 1.246 1_455 S
O67 Tb41 2.440 . S
O67 C51 1.266 . S
O68 Tb40 2.325 1_655 S
O68 Tb41 2.658 . S
O68 C58 1.281 . S
O69 Tb41 2.409 . S
O69 C58 1.254 . S
O70 Tb41 2.378 1_455 S
O70 C59 1.236 . S
O71 Tb40 2.341 . S
O71 C59 1.266 . S
H72 C44 0.929 . S
H73 C45 0.931 . S
H74 C47 0.930 . S
H75 C48 0.930 . S
H76 C53 0.929 . S
H77 C54 0.931 . S
H78 C56 0.930 . S
H79 C57 0.930 . S
Tb80 C82 2.809 . S
Tb80 O100 2.484 . S
Tb80 O101 2.440 . S
Tb80 O102 2.658 . S
Tb80 O103 2.409 . S
Tb80 O104 2.378 . S
Tb80 O108 2.325 . S
Tb80 O111 2.341 . S
Tb81 C91 2.809 . S
Tb81 O102 2.325 . S
Tb81 O105 2.341 . S
Tb81 O106 2.484 . S
Tb81 O107 2.440 . S
Tb81 O108 2.658 . S
Tb81 O109 2.409 . S
Tb81 O110 2.378 . S
C82 Tb80 2.809 . S
C82 C83 1.514 . S
C82 O100 1.248 . S
C82 O101 1.266 . S
C83 C82 1.514 . S
C83 C84 1.359 . S
C83 C88 1.348 . S
C84 C83 1.359 . S
C84 C85 1.380 . S
C84 H112 0.929 . S
C85 C84 1.380 . S
C85 C86 1.347 . S
C85 H113 0.931 . S
C86 C85 1.347 . S
C86 C87 1.369 . S
C87 C86 1.369 . S
C87 C88 1.408 . S
C87 H114 0.930 . S
C88 C83 1.348 . S
C88 C87 1.408 . S
C88 H115 0.930 . S
C89 O102 1.281 . S
C89 O103 1.254 . S
C90 O104 1.236 . S
C90 O105 1.266 . S
C91 Tb81 2.809 . S
C91 C92 1.514 . S
C91 O106 1.248 . S
C91 O107 1.266 . S
C92 C91 1.514 . S
C92 C93 1.359 . S
C92 C97 1.348 . S
C93 C92 1.359 . S
C93 C94 1.380 . S
C93 H116 0.929 . S
C94 C93 1.380 . S
C94 C95 1.347 . S
C94 H117 0.931 . S
C95 C94 1.347 . S
C95 C96 1.369 . S
C96 C95 1.369 . S
C96 C97 1.408 . S
C96 H118 0.930 . S
C97 C92 1.348 . S
C97 C96 1.408 . S
C97 H119 0.930 . S
C98 O108 1.281 . S
C98 O109 1.254 . S
C99 O110 1.236 . S
C99 O111 1.266 . S
O100 Tb80 2.484 . S
O100 C82 1.248 . S
O101 Tb80 2.440 . S
O101 C82 1.266 . S
O102 Tb80 2.658 . S
O102 Tb81 2.325 . S
O102 C89 1.281 . S
O103 Tb80 2.409 . S
O103 C89 1.254 . S
O104 Tb80 2.378 . S
O104 C90 1.236 . S
O105 Tb81 2.341 . S
O105 C90 1.266 . S
O106 Tb81 2.484 . S
O106 C91 1.248 . S
O107 Tb81 2.440 . S
O107 C91 1.266 . S
O108 Tb80 2.325 . S
O108 Tb81 2.658 . S
O108 C98 1.281 . S
O109 Tb81 2.409 . S
O109 C98 1.254 . S
O110 Tb81 2.378 . S
O110 C99 1.236 . S
O111 Tb80 2.341 . S
O111 C99 1.266 . S
H112 C84 0.929 . S
H113 C85 0.931 . S
H114 C87 0.930 . S
H115 C88 0.930 . S
H116 C93 0.929 . S
H117 C94 0.931 . S
H118 C96 0.930 . S
H119 C97 0.930 . S
Tb120 C122 2.809 . S
Tb120 O140 2.484 . S
Tb120 O141 2.440 . S
Tb120 O142 2.658 1_565 S
Tb120 O143 2.409 1_565 S
Tb120 O144 2.380 . S
Tb120 O148 2.325 . S
Tb120 O151 2.341 . S
Tb121 C131 2.809 . S
Tb121 O142 2.325 . S
Tb121 O145 2.341 . S
Tb121 O146 2.484 . S
Tb121 O147 2.440 . S
Tb121 O148 2.658 1_545 S
Tb121 O149 2.409 1_545 S
Tb121 O150 2.378 . S
C122 Tb120 2.809 . S
C122 C123 1.514 . S
C122 O140 1.248 . S
C122 O141 1.266 . S
C123 C122 1.514 . S
C123 C124 1.359 . S
C123 C128 1.348 . S
C124 C123 1.359 . S
C124 C125 1.380 . S
C124 H152 0.929 . S
C125 C124 1.380 . S
C125 C126 1.347 . S
C125 H153 0.931 . S
C126 C125 1.347 . S
C126 C127 1.369 . S
C127 C126 1.369 . S
C127 C128 1.408 . S
C127 H154 0.930 . S
C128 C123 1.348 . S
C128 C127 1.408 . S
C128 H155 0.930 . S
C129 O142 1.281 . S
C129 O143 1.254 . S
C130 O144 1.222 1_545 S
C130 O145 1.282 . S
C131 Tb121 2.809 . S
C131 C132 1.514 . S
C131 O146 1.248 . S
C131 O147 1.266 . S
C132 C131 1.514 . S
C132 C133 1.359 . S
C132 C137 1.348 . S
C133 C132 1.359 . S
C133 C134 1.380 . S
C133 H156 0.929 . S
C134 C133 1.380 . S
C134 C135 1.347 . S
C134 H157 0.931 . S
C135 C134 1.347 . S
C135 C136 1.369 . S
C136 C135 1.369 . S
C136 C137 1.408 . S
C136 H158 0.930 . S
C137 C132 1.348 . S
C137 C136 1.408 . S
C137 H159 0.930 . S
C138 O148 1.281 . S
C138 O149 1.254 . S
C139 O150 1.236 . S
C139 O151 1.266 1_545 S
O140 Tb120 2.484 . S
O140 C122 1.248 . S
O141 Tb120 2.440 . S
O141 C122 1.266 . S
O142 Tb120 2.658 1_545 S
O142 Tb121 2.325 . S
O142 C129 1.281 . S
O143 Tb120 2.409 1_545 S
O143 C129 1.254 . S
O144 Tb120 2.380 . S
O144 C130 1.222 1_565 S
O145 Tb121 2.341 . S
O145 C130 1.282 . S
O146 Tb121 2.484 . S
O146 C131 1.248 . S
O147 Tb121 2.440 . S
O147 C131 1.266 . S
O148 Tb120 2.325 . S
O148 Tb121 2.658 1_565 S
O148 C138 1.281 . S
O149 Tb121 2.409 1_565 S
O149 C138 1.254 . S
O150 Tb121 2.378 . S
O150 C139 1.236 . S
O151 Tb120 2.341 . S
O151 C139 1.266 1_565 S
H152 C124 0.929 . S
H153 C125 0.931 . S
H154 C127 0.930 . S
H155 C128 0.930 . S
H156 C133 0.929 . S
H157 C134 0.931 . S
H158 C136 0.930 . S
H159 C137 0.930 . S
Tb160 C162 2.809 . S
Tb160 O180 2.484 . S
Tb160 O181 2.440 . S
Tb160 O182 2.658 . S
Tb160 O183 2.409 . S
Tb160 O184 2.378 . S
Tb160 O188 2.325 . S
Tb160 O191 2.341 . S
Tb161 C171 2.809 . S
Tb161 O182 2.325 . S
Tb161 O185 2.341 . S
Tb161 O186 2.484 . S
Tb161 O187 2.440 . S
Tb161 O188 2.658 . S
Tb161 O189 2.409 . S
Tb161 O190 2.378 . S
C162 Tb160 2.809 . S
C162 C163 1.514 . S
C162 O180 1.248 . S
C162 O181 1.266 . S
C163 C162 1.514 . S
C163 C164 1.359 . S
C163 C168 1.348 . S
C164 C163 1.359 . S
C164 C165 1.380 . S
C164 H192 0.929 . S
C165 C164 1.380 . S
C165 C166 1.347 . S
C165 H193 0.931 . S
C166 C165 1.347 . S
C166 C167 1.369 . S
C167 C166 1.369 . S
C167 C168 1.408 . S
C167 H194 0.930 . S
C168 C163 1.348 . S
C168 C167 1.408 . S
C168 H195 0.930 . S
C169 O182 1.281 . S
C169 O183 1.254 . S
C170 O184 1.236 . S
C170 O185 1.266 . S
C171 Tb161 2.809 . S
C171 C172 1.514 . S
C171 O186 1.248 . S
C171 O187 1.266 . S
C172 C171 1.514 . S
C172 C173 1.359 . S
C172 C177 1.348 . S
C173 C172 1.359 . S
C173 C174 1.380 . S
C173 H196 0.929 . S
C174 C173 1.380 . S
C174 C175 1.347 . S
C174 H197 0.931 . S
C175 C174 1.347 . S
C175 C176 1.369 . S
C176 C175 1.369 . S
C176 C177 1.408 . S
C176 H198 0.930 . S
C177 C172 1.348 . S
C177 C176 1.408 . S
C177 H199 0.930 . S
C178 O188 1.281 . S
C178 O189 1.254 . S
C179 O190 1.236 . S
C179 O191 1.266 . S
O180 Tb160 2.484 . S
O180 C162 1.248 . S
O181 Tb160 2.440 . S
O181 C162 1.266 . S
O182 Tb160 2.658 . S
O182 Tb161 2.325 . S
O182 C169 1.281 . S
O183 Tb160 2.409 . S
O183 C169 1.254 . S
O184 Tb160 2.378 . S
O184 C170 1.236 . S
O185 Tb161 2.341 . S
O185 C170 1.266 . S
O186 Tb161 2.484 . S
O186 C171 1.248 . S
O187 Tb161 2.440 . S
O187 C171 1.266 . S
O188 Tb160 2.325 . S
O188 Tb161 2.658 . S
O188 C178 1.281 . S
O189 Tb161 2.409 . S
O189 C178 1.254 . S
O190 Tb161 2.378 . S
O190 C179 1.236 . S
O191 Tb160 2.341 . S
O191 C179 1.266 . S
H192 C164 0.929 . S
H193 C165 0.931 . S
H194 C167 0.930 . S
H195 C168 0.930 . S
H196 C173 0.929 . S
H197 C174 0.931 . S
H198 C176 0.930 . S
H199 C177 0.930 . S
Tb200 C202 2.809 . S
Tb200 O220 2.484 . S
Tb200 O221 2.440 . S
Tb200 O222 2.658 . S
Tb200 O223 2.409 . S
Tb200 O224 2.378 . S
Tb200 O228 2.325 . S
Tb200 O231 2.341 . S
Tb201 C211 2.809 . S
Tb201 O222 2.325 . S
Tb201 O225 2.341 . S
Tb201 O226 2.484 . S
Tb201 O227 2.440 . S
Tb201 O228 2.658 . S
Tb201 O229 2.409 . S
Tb201 O230 2.378 . S
C202 Tb200 2.809 . S
C202 C203 1.514 . S
C202 O220 1.248 . S
C202 O221 1.266 . S
C203 C202 1.514 . S
C203 C204 1.359 . S
C203 C208 1.348 . S
C204 C203 1.359 . S
C204 C205 1.380 . S
C204 H232 0.929 . S
C205 C204 1.380 . S
C205 C206 1.347 . S
C205 H233 0.931 . S
C206 C205 1.347 . S
C206 C207 1.369 . S
C207 C206 1.369 . S
C207 C208 1.408 . S
C207 H234 0.930 . S
C208 C203 1.348 . S
C208 C207 1.408 . S
C208 H235 0.930 . S
C209 O222 1.281 . S
C209 O223 1.254 . S
C210 O224 1.236 . S
C210 O225 1.266 . S
C211 Tb201 2.809 . S
C211 C212 1.514 . S
C211 O226 1.248 . S
C211 O227 1.266 . S
C212 C211 1.514 . S
C212 C213 1.359 . S
C212 C217 1.348 . S
C213 C212 1.359 . S
C213 C214 1.380 . S
C213 H236 0.929 . S
C214 C213 1.380 . S
C214 C215 1.347 . S
C214 H237 0.931 . S
C215 C214 1.347 . S
C215 C216 1.369 . S
C216 C215 1.369 . S
C216 C217 1.408 . S
C216 H238 0.930 . S
C217 C212 1.348 . S
C217 C216 1.408 . S
C217 H239 0.930 . S
C218 O228 1.281 . S
C218 O229 1.254 . S
C219 O230 1.236 . S
C219 O231 1.266 . S
O220 Tb200 2.484 . S
O220 C202 1.248 . S
O221 Tb200 2.440 . S
O221 C202 1.266 . S
O222 Tb200 2.658 . S
O222 Tb201 2.325 . S
O222 C209 1.281 . S
O223 Tb200 2.409 . S
O223 C209 1.254 . S
O224 Tb200 2.378 . S
O224 C210 1.236 . S
O225 Tb201 2.341 . S
O225 C210 1.266 . S
O226 Tb201 2.484 . S
O226 C211 1.248 . S
O227 Tb201 2.440 . S
O227 C211 1.266 . S
O228 Tb200 2.325 . S
O228 Tb201 2.658 . S
O228 C218 1.281 . S
O229 Tb201 2.409 . S
O229 C218 1.254 . S
O230 Tb201 2.378 . S
O230 C219 1.236 . S
O231 Tb200 2.341 . S
O231 C219 1.266 . S
H232 C204 0.929 . S
H233 C205 0.931 . S
H234 C207 0.930 . S
H235 C208 0.930 . S
H236 C213 0.929 . S
H237 C214 0.931 . S
H238 C216 0.930 . S
H239 C217 0.930 . S
Tb240 C242 2.809 . S
Tb240 O260 2.484 . S
Tb240 O261 2.440 . S
Tb240 O262 2.658 . S
Tb240 O263 2.409 . S
Tb240 O264 2.378 . S
Tb240 O268 2.325 . S
Tb240 O271 2.341 . S
Tb241 C251 2.809 . S
Tb241 O262 2.325 . S
Tb241 O265 2.341 . S
Tb241 O266 2.484 . S
Tb241 O267 2.440 . S
Tb241 O268 2.658 . S
Tb241 O269 2.409 . S
Tb241 O270 2.378 . S
C242 Tb240 2.809 . S
C242 C243 1.514 . S
C242 O260 1.248 . S
C242 O261 1.266 . S
C243 C242 1.514 . S
C243 C244 1.359 . S
C243 C248 1.348 . S
C244 C243 1.359 . S
C244 C245 1.380 . S
C244 H272 0.929 . S
C245 C244 1.380 . S
C245 C246 1.347 . S
C245 H273 0.931 . S
C246 C245 1.347 . S
C246 C247 1.369 . S
C247 C246 1.369 . S
C247 C248 1.408 . S
C247 H274 0.930 . S
C248 C243 1.348 . S
C248 C247 1.408 . S
C248 H275 0.930 . S
C249 O262 1.281 . S
C249 O263 1.254 . S
C250 O264 1.236 . S
C250 O265 1.266 . S
C251 Tb241 2.809 . S
C251 C252 1.514 . S
C251 O266 1.248 . S
C251 O267 1.266 . S
C252 C251 1.514 . S
C252 C253 1.359 . S
C252 C257 1.348 . S
C253 C252 1.359 . S
C253 C254 1.380 . S
C253 H276 0.929 . S
C254 C253 1.380 . S
C254 C255 1.347 . S
C254 H277 0.931 . S
C255 C254 1.347 . S
C255 C256 1.369 . S
C256 C255 1.369 . S
C256 C257 1.408 . S
C256 H278 0.930 . S
C257 C252 1.348 . S
C257 C256 1.408 . S
C257 H279 0.930 . S
C258 O268 1.281 . S
C258 O269 1.254 . S
C259 O270 1.236 . S
C259 O271 1.266 . S
O260 Tb240 2.484 . S
O260 C242 1.248 . S
O261 Tb240 2.440 . S
O261 C242 1.266 . S
O262 Tb240 2.658 . S
O262 Tb241 2.325 . S
O262 C249 1.281 . S
O263 Tb240 2.409 . S
O263 C249 1.254 . S
O264 Tb240 2.378 . S
O264 C250 1.236 . S
O265 Tb241 2.341 . S
O265 C250 1.266 . S
O266 Tb241 2.484 . S
O266 C251 1.248 . S
O267 Tb241 2.440 . S
O267 C251 1.266 . S
O268 Tb240 2.325 . S
O268 Tb241 2.658 . S
O268 C258 1.281 . S
O269 Tb241 2.409 . S
O269 C258 1.254 . S
O270 Tb241 2.378 . S
O270 C259 1.236 . S
O271 Tb240 2.341 . S
O271 C259 1.266 . S
H272 C244 0.929 . S
H273 C245 0.931 . S
H274 C247 0.930 . S
H275 C248 0.930 . S
H276 C253 0.929 . S
H277 C254 0.931 . S
H278 C256 0.930 . S
H279 C257 0.930 . S
Tb280 C282 2.809 . S
Tb280 O300 2.484 . S
Tb280 O301 2.440 . S
Tb280 O302 2.658 1_655 S
Tb280 O303 2.409 1_655 S
Tb280 O304 2.378 1_655 S
Tb280 O308 2.325 . S
Tb280 O311 2.341 . S
Tb281 C291 2.809 . S
Tb281 O302 2.325 . S
Tb281 O305 2.341 . S
Tb281 O306 2.484 . S
Tb281 O307 2.440 . S
Tb281 O308 2.658 1_455 S
Tb281 O309 2.409 1_455 S
Tb281 O310 2.378 1_455 S
C282 Tb280 2.809 . S
C282 C283 1.514 . S
C282 O300 1.248 . S
C282 O301 1.266 . S
C283 C282 1.514 . S
C283 C284 1.359 . S
C283 C288 1.348 . S
C284 C283 1.359 . S
C284 C285 1.380 . S
C284 H312 0.929 . S
C285 C284 1.380 . S
C285 C286 1.347 . S
C285 H313 0.931 . S
C286 C285 1.347 . S
C286 C287 1.369 . S
C287 C286 1.369 . S
C287 C288 1.408 . S
C287 H314 0.930 . S
C288 C283 1.348 . S
C288 C287 1.408 . S
C288 H315 0.930 . S
C289 O302 1.281 . S
C289 O303 1.254 . S
C290 O304 1.236 . S
C290 O305 1.266 . S
C291 Tb281 2.809 . S
C291 C292 1.514 . S
C291 O306 1.248 . S
C291 O307 1.266 . S
C292 C291 1.514 . S
C292 C293 1.359 . S
C292 C297 1.348 . S
C293 C292 1.359 . S
C293 C294 1.380 . S
C293 H316 0.929 . S
C294 C293 1.380 . S
C294 C295 1.347 . S
C294 H317 0.931 . S
C295 C294 1.347 . S
C295 C296 1.369 . S
C296 C295 1.369 . S
C296 C297 1.408 . S
C296 H318 0.930 . S
C297 C292 1.348 . S
C297 C296 1.408 . S
C297 H319 0.930 . S
C298 O308 1.281 . S
C298 O309 1.254 . S
C299 O310 1.236 . S
C299 O311 1.266 . S
O300 Tb280 2.484 . S
O300 C282 1.248 . S
O301 Tb280 2.440 . S
O301 C282 1.266 . S
O302 Tb280 2.658 1_455 S
O302 Tb281 2.325 . S
O302 C289 1.281 . S
O303 Tb280 2.409 1_455 S
O303 C289 1.254 . S
O304 Tb280 2.378 1_455 S
O304 C290 1.236 . S
O305 Tb281 2.341 . S
O305 C290 1.266 . S
O306 Tb281 2.484 . S
O306 C291 1.248 . S
O307 Tb281 2.440 . S
O307 C291 1.266 . S
O308 Tb280 2.325 . S
O308 Tb281 2.658 1_655 S
O308 C298 1.281 . S
O309 Tb281 2.409 1_655 S
O309 C298 1.254 . S
O310 Tb281 2.378 1_655 S
O310 C299 1.236 . S
O311 Tb280 2.341 . S
O311 C299 1.266 . S
H312 C284 0.929 . S
H313 C285 0.931 . S
H314 C287 0.930 . S
H315 C288 0.930 . S
H316 C293 0.929 . S
H317 C294 0.931 . S
H318 C296 0.930 . S
H319 C297 0.930 . S
Tb320 C322 2.809 . S
Tb320 O340 2.484 . S
Tb320 O341 2.440 . S
Tb320 O342 2.658 . S
Tb320 O343 2.409 . S
Tb320 O344 2.402 . S
Tb320 O348 2.325 1_554 S
Tb320 O351 2.341 . S
Tb321 C331 2.809 . S
Tb321 O342 2.325 1_556 S
Tb321 O345 2.341 . S
Tb321 O346 2.484 . S
Tb321 O347 2.440 . S
Tb321 O348 2.658 . S
Tb321 O349 2.409 . S
Tb321 O350 2.380 . S
C322 Tb320 2.809 . S
C322 C323 1.514 . S
C322 O340 1.248 . S
C322 O341 1.266 . S
C323 C322 1.514 . S
C323 C324 1.359 . S
C323 C328 1.348 . S
C324 C323 1.359 . S
C324 C325 1.380 . S
C324 H352 0.929 1_554 S
C325 C324 1.380 . S
C325 C326 1.347 . S
C325 H353 0.931 1_554 S
C326 C325 1.347 . S
C326 C327 1.369 . S
C327 C326 1.369 . S
C327 C328 1.408 . S
C327 H354 0.930 . S
C328 C323 1.348 . S
C328 C327 1.408 . S
C328 H355 0.930 . S
C329 O342 1.281 . S
C329 O343 1.254 . S
C330 O344 1.195 1_556 S
C330 O345 1.266 . S
C331 Tb321 2.809 . S
C331 C332 1.514 . S
C331 O346 1.248 . S
C331 O347 1.266 . S
C332 C331 1.514 . S
C332 C333 1.383 . S
C332 C337 1.348 . S
C333 C332 1.383 . S
C333 C334 1.380 . S
C333 H356 0.904 1_556 S
C334 C333 1.380 . S
C334 C335 1.375 . S
C334 H357 0.903 1_556 S
C335 C334 1.375 . S
C335 C336 1.369 . S
C336 C335 1.369 . S
C336 C337 1.408 . S
C336 H358 0.930 . S
C337 C332 1.348 . S
C337 C336 1.408 . S
C337 H359 0.930 . S
C338 O348 1.281 . S
C338 O349 1.254 . S
C339 O350 1.233 1_554 S
C339 O351 1.266 . S
O340 Tb320 2.484 . S
O340 C322 1.248 . S
O341 Tb320 2.440 . S
O341 C322 1.266 . S
O342 Tb320 2.658 . S
O342 Tb321 2.325 1_554 S
O342 C329 1.281 . S
O343 Tb320 2.409 . S
O343 C329 1.254 . S
O344 Tb320 2.402 . S
O344 C330 1.195 1_554 S
O345 Tb321 2.341 . S
O345 C330 1.266 . S
O346 Tb321 2.484 . S
O346 C331 1.248 . S
O347 Tb321 2.440 . S
O347 C331 1.266 . S
O348 Tb320 2.325 1_556 S
O348 Tb321 2.658 . S
O348 C338 1.281 . S
O349 Tb321 2.409 . S
O349 C338 1.254 . S
O350 Tb321 2.380 . S
O350 C339 1.233 1_556 S
O351 Tb320 2.341 . S
O351 C339 1.266 . S
H352 C324 0.929 1_556 S
H353 C325 0.931 1_556 S
H354 C327 0.930 . S
H355 C328 0.930 . S
H356 C333 0.904 1_554 S
H357 C334 0.903 1_554 S
H358 C336 0.930 . S
H359 C337 0.930 . S
Tb360 C362 2.809 . S
Tb360 O380 2.484 . S
Tb360 O381 2.440 . S
Tb360 O382 2.658 1_565 S
Tb360 O383 2.409 1_565 S
Tb360 O384 2.380 . S
Tb360 O388 2.325 . S
Tb360 O391 2.341 . S
Tb361 C371 2.809 . S
Tb361 O382 2.325 . S
Tb361 O385 2.341 . S
Tb361 O386 2.484 . S
Tb361 O387 2.440 . S
Tb361 O388 2.658 1_545 S
Tb361 O389 2.409 1_545 S
Tb361 O390 2.378 . S
C362 Tb360 2.809 . S
C362 C363 1.514 . S
C362 O380 1.248 . S
C362 O381 1.266 . S
C363 C362 1.514 . S
C363 C364 1.359 . S
C363 C368 1.348 . S
C364 C363 1.359 . S
C364 C365 1.380 . S
C364 H392 0.929 . S
C365 C364 1.380 . S
C365 C366 1.347 . S
C365 H393 0.931 . S
C366 C365 1.347 . S
C366 C367 1.369 . S
C367 C366 1.369 . S
C367 C368 1.408 . S
C367 H394 0.930 . S
C368 C363 1.348 . S
C368 C367 1.408 . S
C368 H395 0.930 . S
C369 O382 1.281 . S
C369 O383 1.254 . S
C370 O384 1.222 1_545 S
C370 O385 1.282 . S
C371 Tb361 2.809 . S
C371 C372 1.514 . S
C371 O386 1.248 . S
C371 O387 1.266 . S
C372 C371 1.514 . S
C372 C373 1.359 . S
C372 C377 1.348 . S
C373 C372 1.359 . S
C373 C374 1.380 . S
C373 H396 0.929 . S
C374 C373 1.380 . S
C374 C375 1.347 . S
C374 H397 0.931 . S
C375 C374 1.347 . S
C375 C376 1.369 . S
C376 C375 1.369 . S
C376 C377 1.408 . S
C376 H398 0.930 . S
C377 C372 1.348 . S
C377 C376 1.408 . S
C377 H399 0.930 . S
C378 O388 1.281 . S
C378 O389 1.254 . S
C379 O390 1.236 . S
C379 O391 1.266 1_545 S
O380 Tb360 2.484 . S
O380 C362 1.248 . S
O381 Tb360 2.440 . S
O381 C362 1.266 . S
O382 Tb360 2.658 1_545 S
O382 Tb361 2.325 . S
O382 C369 1.281 . S
O383 Tb360 2.409 1_545 S
O383 C369 1.254 . S
O384 Tb360 2.380 . S
O384 C370 1.222 1_565 S
O385 Tb361 2.341 . S
O385 C370 1.282 . S
O386 Tb361 2.484 . S
O386 C371 1.248 . S
O387 Tb361 2.440 . S
O387 C371 1.266 . S
O388 Tb360 2.325 . S
O388 Tb361 2.658 1_565 S
O388 C378 1.281 . S
O389 Tb361 2.409 1_565 S
O389 C378 1.254 . S
O390 Tb361 2.378 . S
O390 C379 1.236 . S
O391 Tb360 2.341 . S
O391 C379 1.266 1_565 S
H392 C364 0.929 . S
H393 C365 0.931 . S
H394 C367 0.930 . S
H395 C368 0.930 . S
H396 C373 0.929 . S
H397 C374 0.931 . S
H398 C376 0.930 . S
H399 C377 0.930 . S
Tb400 C402 2.809 . S
Tb400 O420 2.484 . S
Tb400 O421 2.440 . S
Tb400 O422 2.658 . S
Tb400 O423 2.409 . S
Tb400 O424 2.378 . S
Tb400 O428 2.325 . S
Tb400 O431 2.341 . S
Tb401 C411 2.809 . S
Tb401 O422 2.325 . S
Tb401 O425 2.341 . S
Tb401 O426 2.484 . S
Tb401 O427 2.440 . S
Tb401 O428 2.658 . S
Tb401 O429 2.409 . S
Tb401 O430 2.378 . S
C402 Tb400 2.809 . S
C402 C403 1.514 . S
C402 O420 1.248 . S
C402 O421 1.266 . S
C403 C402 1.514 . S
C403 C404 1.359 . S
C403 C408 1.348 . S
C404 C403 1.359 . S
C404 C405 1.380 . S
C404 H432 0.929 . S
C405 C404 1.380 . S
C405 C406 1.347 . S
C405 H433 0.931 . S
C406 C405 1.347 . S
C406 C407 1.369 . S
C407 C406 1.369 . S
C407 C408 1.408 . S
C407 H434 0.930 . S
C408 C403 1.348 . S
C408 C407 1.408 . S
C408 H435 0.930 . S
C409 O422 1.281 . S
C409 O423 1.254 . S
C410 O424 1.236 . S
C410 O425 1.266 . S
C411 Tb401 2.809 . S
C411 C412 1.514 . S
C411 O426 1.248 . S
C411 O427 1.266 . S
C412 C411 1.514 . S
C412 C413 1.359 . S
C412 C417 1.348 . S
C413 C412 1.359 . S
C413 C414 1.380 . S
C413 H436 0.929 . S
C414 C413 1.380 . S
C414 C415 1.347 . S
C414 H437 0.931 . S
C415 C414 1.347 . S
C415 C416 1.369 . S
C416 C415 1.369 . S
C416 C417 1.408 . S
C416 H438 0.930 . S
C417 C412 1.348 . S
C417 C416 1.408 . S
C417 H439 0.930 . S
C418 O428 1.281 . S
C418 O429 1.254 . S
C419 O430 1.236 . S
C419 O431 1.266 . S
O420 Tb400 2.484 . S
O420 C402 1.248 . S
O421 Tb400 2.440 . S
O421 C402 1.266 . S
O422 Tb400 2.658 . S
O422 Tb401 2.325 . S
O422 C409 1.281 . S
O423 Tb400 2.409 . S
O423 C409 1.254 . S
O424 Tb400 2.378 . S
O424 C410 1.236 . S
O425 Tb401 2.341 . S
O425 C410 1.266 . S
O426 Tb401 2.484 . S
O426 C411 1.248 . S
O427 Tb401 2.440 . S
O427 C411 1.266 . S
O428 Tb400 2.325 . S
O428 Tb401 2.658 . S
O428 C418 1.281 . S
O429 Tb401 2.409 . S
O429 C418 1.254 . S
O430 Tb401 2.378 . S
O430 C419 1.236 . S
O431 Tb400 2.341 . S
O431 C419 1.266 . S
H432 C404 0.929 . S
H433 C405 0.931 . S
H434 C407 0.930 . S
H435 C408 0.930 . S
H436 C413 0.929 . S
H437 C414 0.931 . S
H438 C416 0.930 . S
H439 C417 0.930 . S
Tb440 C442 2.809 . S
Tb440 O460 2.489 . S
Tb440 O461 2.440 . S
Tb440 O462 2.658 . S
Tb440 O463 2.409 . S
Tb440 O464 2.378 1_455 S
Tb440 O468 2.325 1_455 S
Tb440 O471 2.341 . S
Tb441 C451 2.809 . S
Tb441 O462 2.325 1_655 S
Tb441 O465 2.341 . S
Tb441 O466 2.484 1_655 S
Tb441 O467 2.440 . S
Tb441 O468 2.658 . S
Tb441 O469 2.409 . S
Tb441 O470 2.378 1_655 S
C442 Tb440 2.809 . S
C442 C443 1.514 . S
C442 O460 1.262 . S
C442 O461 1.266 . S
C443 C442 1.514 . S
C443 C444 1.359 1_455 S
C443 C448 1.348 . S
C444 C443 1.359 1_655 S
C444 C445 1.380 . S
C444 H472 0.929 . S
C445 C444 1.380 . S
C445 C446 1.347 1_655 S
C445 H473 0.931 . S
C446 C445 1.347 1_455 S
C446 C447 1.369 . S
C447 C446 1.369 . S
C447 C448 1.408 . S
C447 H474 0.930 . S
C448 C443 1.348 . S
C448 C447 1.408 . S
C448 H475 0.930 . S
C449 O462 1.281 . S
C449 O463 1.254 . S
C450 O464 1.236 . S
C450 O465 1.266 . S
C451 Tb441 2.809 . S
C451 C452 1.514 . S
C451 O466 1.246 1_655 S
C451 O467 1.266 . S
C452 C451 1.514 . S
C452 C453 1.359 1_655 S
C452 C457 1.348 . S
C453 C452 1.359 1_455 S
C453 C454 1.380 . S
C453 H476 0.929 . S
C454 C453 1.380 . S
C454 C455 1.347 1_455 S
C454 H477 0.931 . S
C455 C454 1.347 1_655 S
C455 C456 1.369 . S
C456 C455 1.369 . S
C456 C457 1.408 . S
C456 H478 0.930 . S
C457 C452 1.348 . S
C457 C456 1.408 . S
C457 H479 0.930 . S
C458 O468 1.281 . S
C458 O469 1.254 . S
C459 O470 1.236 . S
C459 O471 1.266 . S
O460 Tb440 2.489 . S
O460 C442 1.262 . S
O461 Tb440 2.440 . S
O461 C442 1.266 . S
O462 Tb440 2.658 . S
O462 Tb441 2.325 1_455 S
O462 C449 1.281 . S
O463 Tb440 2.409 . S
O463 C449 1.254 . S
O464 Tb440 2.378 1_655 S
O464 C450 1.236 . S
O465 Tb441 2.341 . S
O465 C450 1.266 . S
O466 Tb441 2.484 1_455 S
O466 C451 1.246 1_455 S
O467 Tb441 2.440 . S
O467 C451 1.266 . S
O468 Tb440 2.325 1_655 S
O468 Tb441 2.658 . S
O468 C458 1.281 . S
O469 Tb441 2.409 . S
O469 C458 1.254 . S
O470 Tb441 2.378 1_455 S
O470 C459 1.236 . S
O471 Tb440 2.341 . S
O471 C459 1.266 . S
H472 C444 0.929 . S
H473 C445 0.931 . S
H474 C447 0.930 . S
H475 C448 0.930 . S
H476 C453 0.929 . S
H477 C454 0.931 . S
H478 C456 0.930 . S
H479 C457 0.930 . S
Tb480 C482 2.809 . S
Tb480 O500 2.484 . S
Tb480 O501 2.440 . S
Tb480 O502 2.658 . S
Tb480 O503 2.409 . S
Tb480 O504 2.378 . S
Tb480 O508 2.325 . S
Tb480 O511 2.341 . S
Tb481 C491 2.809 . S
Tb481 O502 2.325 . S
Tb481 O505 2.341 . S
Tb481 O506 2.484 . S
Tb481 O507 2.440 . S
Tb481 O508 2.658 . S
Tb481 O509 2.409 . S
Tb481 O510 2.378 . S
C482 Tb480 2.809 . S
C482 C483 1.514 . S
C482 O500 1.248 . S
C482 O501 1.266 . S
C483 C482 1.514 . S
C483 C484 1.359 . S
C483 C488 1.348 . S
C484 C483 1.359 . S
C484 C485 1.380 . S
C484 H512 0.929 . S
C485 C484 1.380 . S
C485 C486 1.347 . S
C485 H513 0.931 . S
C486 C485 1.347 . S
C486 C487 1.369 . S
C487 C486 1.369 . S
C487 C488 1.408 . S
C487 H514 0.930 . S
C488 C483 1.348 . S
C488 C487 1.408 . S
C488 H515 0.930 . S
C489 O502 1.281 . S
C489 O503 1.254 . S
C490 O504 1.236 . S
C490 O505 1.266 . S
C491 Tb481 2.809 . S
C491 C492 1.514 . S
C491 O506 1.248 . S
C491 O507 1.266 . S
C492 C491 1.514 . S
C492 C493 1.359 . S
C492 C497 1.348 . S
C493 C492 1.359 . S
C493 C494 1.380 . S
C493 H516 0.929 . S
C494 C493 1.380 . S
C494 C495 1.347 . S
C494 H517 0.931 . S
C495 C494 1.347 . S
C495 C496 1.369 . S
C496 C495 1.369 . S
C496 C497 1.408 . S
C496 H518 0.930 . S
C497 C492 1.348 . S
C497 C496 1.408 . S
C497 H519 0.930 . S
C498 O508 1.281 . S
C498 O509 1.254 . S
C499 O510 1.236 . S
C499 O511 1.266 . S
O500 Tb480 2.484 . S
O500 C482 1.248 . S
O501 Tb480 2.440 . S
O501 C482 1.266 . S
O502 Tb480 2.658 . S
O502 Tb481 2.325 . S
O502 C489 1.281 . S
O503 Tb480 2.409 . S
O503 C489 1.254 . S
O504 Tb480 2.378 . S
O504 C490 1.236 . S
O505 Tb481 2.341 . S
O505 C490 1.266 . S
O506 Tb481 2.484 . S
O506 C491 1.248 . S
O507 Tb481 2.440 . S
O507 C491 1.266 . S
O508 Tb480 2.325 . S
O508 Tb481 2.658 . S
O508 C498 1.281 . S
O509 Tb481 2.409 . S
O509 C498 1.254 . S
O510 Tb481 2.378 . S
O510 C499 1.236 . S
O511 Tb480 2.341 . S
O511 C499 1.266 . S
H512 C484 0.929 . S
H513 C485 0.931 . S
H514 C487 0.930 . S
H515 C488 0.930 . S
H516 C493 0.929 . S
H517 C494 0.931 . S
H518 C496 0.930 . S
H519 C497 0.930 . S
Tb520 C522 2.809 . S
Tb520 O540 2.484 . S
Tb520 O541 2.440 . S
Tb520 O542 2.658 . S
Tb520 O543 2.409 . S
Tb520 O544 2.402 . S
Tb520 O548 2.325 1_554 S
Tb520 O551 2.341 . S
Tb521 C531 2.809 . S
Tb521 O542 2.325 1_556 S
Tb521 O545 2.341 . S
Tb521 O546 2.484 . S
Tb521 O547 2.440 . S
Tb521 O548 2.658 . S
Tb521 O549 2.409 . S
Tb521 O550 2.380 . S
C522 Tb520 2.809 . S
C522 C523 1.514 . S
C522 O540 1.248 . S
C522 O541 1.266 . S
C523 C522 1.514 . S
C523 C524 1.359 . S
C523 C528 1.348 . S
C524 C523 1.359 . S
C524 C525 1.380 . S
C524 H552 0.929 1_554 S
C525 C524 1.380 . S
C525 C526 1.347 . S
C525 H553 0.931 1_554 S
C526 C525 1.347 . S
C526 C527 1.369 . S
C527 C526 1.369 . S
C527 C528 1.408 . S
C527 H554 0.930 . S
C528 C523 1.348 . S
C528 C527 1.408 . S
C528 H555 0.930 . S
C529 O542 1.281 . S
C529 O543 1.254 . S
C530 O544 1.195 1_556 S
C530 O545 1.266 . S
C531 Tb521 2.809 . S
C531 C532 1.514 . S
C531 O546 1.248 . S
C531 O547 1.266 . S
C532 C531 1.514 . S
C532 C533 1.383 . S
C532 C537 1.348 . S
C533 C532 1.383 . S
C533 C534 1.380 . S
C533 H556 0.904 1_556 S
C534 C533 1.380 . S
C534 C535 1.375 . S
C534 H557 0.903 1_556 S
C535 C534 1.375 . S
C535 C536 1.369 . S
C536 C535 1.369 . S
C536 C537 1.408 . S
C536 H558 0.930 . S
C537 C532 1.348 . S
C537 C536 1.408 . S
C537 H559 0.930 . S
C538 O548 1.281 . S
C538 O549 1.254 . S
C539 O550 1.233 1_554 S
C539 O551 1.266 . S
O540 Tb520 2.484 . S
O540 C522 1.248 . S
O541 Tb520 2.440 . S
O541 C522 1.266 . S
O542 Tb520 2.658 . S
O542 Tb521 2.325 1_554 S
O542 C529 1.281 . S
O543 Tb520 2.409 . S
O543 C529 1.254 . S
O544 Tb520 2.402 . S
O544 C530 1.195 1_554 S
O545 Tb521 2.341 . S
O545 C530 1.266 . S
O546 Tb521 2.484 . S
O546 C531 1.248 . S
O547 Tb521 2.440 . S
O547 C531 1.266 . S
O548 Tb520 2.325 1_556 S
O548 Tb521 2.658 . S
O548 C538 1.281 . S
O549 Tb521 2.409 . S
O549 C538 1.254 . S
O550 Tb521 2.380 . S
O550 C539 1.233 1_556 S
O551 Tb520 2.341 . S
O551 C539 1.266 . S
H552 C524 0.929 1_556 S
H553 C525 0.931 1_556 S
H554 C527 0.930 . S
H555 C528 0.930 . S
H556 C533 0.904 1_554 S
H557 C534 0.903 1_554 S
H558 C536 0.930 . S
H559 C537 0.930 . S
Tb560 C562 2.809 . S
Tb560 O580 2.484 . S
Tb560 O581 2.440 . S
Tb560 O582 2.658 . S
Tb560 O583 2.409 . S
Tb560 O584 2.378 . S
Tb560 O588 2.325 1_565 S
Tb560 O591 2.341 1_565 S
Tb561 C571 2.809 . S
Tb561 O582 2.325 1_545 S
Tb561 O585 2.341 1_545 S
Tb561 O586 2.484 . S
Tb561 O587 2.440 . S
Tb561 O588 2.658 . S
Tb561 O589 2.409 . S
Tb561 O590 2.378 . S
C562 Tb560 2.809 . S
C562 C563 1.514 . S
C562 O580 1.248 . S
C562 O581 1.266 . S
C563 C562 1.514 . S
C563 C564 1.359 . S
C563 C568 1.348 . S
C564 C563 1.359 . S
C564 C565 1.380 . S
C564 H592 0.929 . S
C565 C564 1.380 . S
C565 C566 1.347 . S
C565 H593 0.931 . S
C566 C565 1.347 . S
C566 C567 1.369 . S
C567 C566 1.369 . S
C567 C568 1.408 . S
C567 H594 0.930 . S
C568 C563 1.348 . S
C568 C567 1.408 . S
C568 H595 0.930 . S
C569 O582 1.281 . S
C569 O583 1.254 . S
C570 O584 1.236 . S
C570 O585 1.266 . S
C571 Tb561 2.809 . S
C571 C572 1.514 . S
C571 O586 1.248 . S
C571 O587 1.266 . S
C572 C571 1.514 . S
C572 C573 1.359 . S
C572 C577 1.348 . S
C573 C572 1.359 . S
C573 C574 1.380 . S
C573 H596 0.929 . S
C574 C573 1.380 . S
C574 C575 1.347 . S
C574 H597 0.931 . S
C575 C574 1.347 . S
C575 C576 1.369 . S
C576 C575 1.369 . S
C576 C577 1.408 . S
C576 H598 0.930 . S
C577 C572 1.348 . S
C577 C576 1.408 . S
C577 H599 0.930 . S
C578 O588 1.281 . S
C578 O589 1.254 . S
C579 O590 1.236 . S
C579 O591 1.266 . S
O580 Tb560 2.484 . S
O580 C562 1.248 . S
O581 Tb560 2.440 . S
O581 C562 1.266 . S
O582 Tb560 2.658 . S
O582 Tb561 2.325 1_565 S
O582 C569 1.281 . S
O583 Tb560 2.409 . S
O583 C569 1.254 . S
O584 Tb560 2.378 . S
O584 C570 1.236 . S
O585 Tb561 2.341 1_565 S
O585 C570 1.266 . S
O586 Tb561 2.484 . S
O586 C571 1.248 . S
O587 Tb561 2.440 . S
O587 C571 1.266 . S
O588 Tb560 2.325 1_545 S
O588 Tb561 2.658 . S
O588 C578 1.281 . S
O589 Tb561 2.409 . S
O589 C578 1.254 . S
O590 Tb561 2.378 . S
O590 C579 1.236 . S
O591 Tb560 2.341 1_545 S
O591 C579 1.266 . S
H592 C564 0.929 . S
H593 C565 0.931 . S
H594 C567 0.930 . S
H595 C568 0.930 . S
H596 C573 0.929 . S
H597 C574 0.931 . S
H598 C576 0.930 . S
H599 C577 0.930 . S
Tb600 C602 2.809 . S
Tb600 O620 2.484 . S
Tb600 O621 2.440 . S
Tb600 O622 2.658 . S
Tb600 O623 2.409 . S
Tb600 O624 2.401 . S
Tb600 O628 2.325 1_554 S
Tb600 O631 2.341 . S
Tb601 C611 2.809 . S
Tb601 O622 2.325 1_556 S
Tb601 O625 2.341 . S
Tb601 O626 2.484 . S
Tb601 O627 2.440 . S
Tb601 O628 2.658 . S
Tb601 O629 2.409 . S
Tb601 O630 2.380 . S
C602 Tb600 2.809 . S
C602 C603 1.514 . S
C602 O620 1.248 . S
C602 O621 1.266 . S
C603 C602 1.514 . S
C603 C604 1.359 . S
C603 C608 1.348 . S
C604 C603 1.359 . S
C604 C605 1.380 . S
C604 H632 0.929 1_554 S
C605 C604 1.380 . S
C605 C606 1.347 . S
C605 H633 0.931 1_554 S
C606 C605 1.347 . S
C606 C607 1.369 . S
C607 C606 1.369 . S
C607 C608 1.408 . S
C607 H634 0.930 . S
C608 C603 1.348 . S
C608 C607 1.408 . S
C608 H635 0.930 . S
C609 O622 1.281 . S
C609 O623 1.254 . S
C610 O624 1.196 1_556 S
C610 O625 1.266 . S
C611 Tb601 2.809 . S
C611 C612 1.514 . S
C611 O626 1.248 . S
C611 O627 1.266 . S
C612 C611 1.514 . S
C612 C613 1.384 . S
C612 C617 1.348 . S
C613 C612 1.384 . S
C613 C614 1.380 . S
C613 H636 0.904 1_556 S
C614 C613 1.380 . S
C614 C615 1.375 . S
C614 H637 0.902 1_556 S
C615 C614 1.375 . S
C615 C616 1.369 . S
C616 C615 1.369 . S
C616 C617 1.408 . S
C616 H638 0.930 . S
C617 C612 1.348 . S
C617 C616 1.408 . S
C617 H639 0.930 . S
C618 O628 1.281 . S
C618 O629 1.254 . S
C619 O630 1.232 1_554 S
C619 O631 1.266 . S
O620 Tb600 2.484 . S
O620 C602 1.248 . S
O621 Tb600 2.440 . S
O621 C602 1.266 . S
O622 Tb600 2.658 . S
O622 Tb601 2.325 1_554 S
O622 C609 1.281 . S
O623 Tb600 2.409 . S
O623 C609 1.254 . S
O624 Tb600 2.401 . S
O624 C610 1.196 1_554 S
O625 Tb601 2.341 . S
O625 C610 1.266 . S
O626 Tb601 2.484 . S
O626 C611 1.248 . S
O627 Tb601 2.440 . S
O627 C611 1.266 . S
O628 Tb600 2.325 1_556 S
O628 Tb601 2.658 . S
O628 C618 1.281 . S
O629 Tb601 2.409 . S
O629 C618 1.254 . S
O630 Tb601 2.380 . S
O630 C619 1.232 1_556 S
O631 Tb600 2.341 . S
O631 C619 1.266 . S
H632 C604 0.929 1_556 S
H633 C605 0.931 1_556 S
H634 C607 0.930 . S
H635 C608 0.930 . S
H636 C613 0.904 1_554 S
H637 C614 0.902 1_554 S
H638 C616 0.930 . S
H639 C617 0.930 . S
C640 C641 1.349 . S
C640 C642 1.327 . S
C640 H665 0.950 . S
C641 C640 1.349 . S
C641 C657 1.349 . S
C642 C640 1.327 . S
C642 C661 1.429 . S
C642 H666 0.950 . S
C643 C660 1.574 . S
C643 C662 1.368 . S
C643 H667 0.949 . S
H644 C648 0.949 . S
C645 C646 1.349 . S
C645 C647 1.327 . S
C645 H668 0.950 . S
C646 C645 1.349 . S
C646 C658 1.349 . S
C647 C645 1.327 . S
C647 C663 1.429 . S
C647 H669 0.950 . S
C648 H644 0.949 . S
C648 C656 1.574 . S
C648 C664 1.368 . S
H649 C657 0.950 . S
H650 C655 0.950 . S
H651 C656 0.949 . S
H652 C658 0.950 . S
H653 C659 0.950 . S
H654 C660 0.949 . S
C655 H650 0.950 . S
C655 C657 1.327 . S
C655 C661 1.429 . S
C656 C648 1.574 . S
C656 H651 0.949 . S
C656 C662 1.368 . S
C657 C641 1.349 . S
C657 H649 0.950 . S
C657 C655 1.327 . S
C658 C646 1.349 . S
C658 H652 0.950 . S
C658 C659 1.327 . S
C659 H653 0.950 . S
C659 C658 1.327 . S
C659 C663 1.429 . S
C660 C643 1.574 . S
C660 H654 0.949 . S
C660 C664 1.368 . S
C661 C642 1.429 . S
C661 C655 1.429 . S
C661 C662 1.523 . S
C662 C643 1.368 . S
C662 C656 1.368 . S
C662 C661 1.523 . S
C663 C647 1.429 . S
C663 C659 1.429 . S
C663 C664 1.523 . S
C664 C648 1.368 . S
C664 C660 1.368 . S
C664 C663 1.523 . S
H665 C640 0.950 . S
H666 C642 0.950 . S
H667 C643 0.949 . S
H668 C645 0.950 . S
H669 C647 0.950 . S
C670 C671 1.349 . S
C670 C672 1.327 . S
C670 H695 0.950 . S
C671 C670 1.349 . S
C671 C687 1.349 . S
C672 C670 1.327 . S
C672 C691 1.429 . S
C672 H696 0.950 . S
C673 C690 1.574 . S
C673 C692 1.368 . S
C673 H697 0.949 . S
H674 C678 0.949 . S
C675 C676 1.349 . S
C675 C677 1.327 . S
C675 H698 0.950 . S
C676 C675 1.349 . S
C676 C688 1.349 . S
C677 C675 1.327 . S
C677 C693 1.429 . S
C677 H699 0.950 . S
C678 H674 0.949 . S
C678 C686 1.574 . S
C678 C694 1.368 . S
H679 C687 0.950 . S
H680 C685 0.950 . S
H681 C686 0.949 . S
H682 C688 0.950 . S
H683 C689 0.950 . S
H684 C690 0.949 . S
C685 H680 0.950 . S
C685 C687 1.327 . S
C685 C691 1.429 . S
C686 C678 1.574 . S
C686 H681 0.949 . S
C686 C692 1.368 . S
C687 C671 1.349 . S
C687 H679 0.950 . S
C687 C685 1.327 . S
C688 C676 1.349 . S
C688 H682 0.950 . S
C688 C689 1.327 . S
C689 H683 0.950 . S
C689 C688 1.327 . S
C689 C693 1.429 . S
C690 C673 1.574 . S
C690 H684 0.949 . S
C690 C694 1.368 . S
C691 C672 1.429 . S
C691 C685 1.429 . S
C691 C692 1.523 . S
C692 C673 1.368 . S
C692 C686 1.368 . S
C692 C691 1.523 . S
C693 C677 1.429 . S
C693 C689 1.429 . S
C693 C694 1.523 . S
C694 C678 1.368 . S
C694 C690 1.368 . S
C694 C693 1.523 . S
H695 C670 0.950 . S
H696 C672 0.950 . S
H697 C673 0.949 . S
H698 C675 0.950 . S
H699 C677 0.950 . S
C700 C701 1.349 . S
C700 C702 1.327 . S
C700 H725 0.950 . S
C701 C700 1.349 . S
C701 C717 1.349 . S
C702 C700 1.327 . S
C702 C721 1.429 . S
C702 H726 0.950 . S
C703 C720 1.574 . S
C703 C722 1.368 . S
C703 H727 0.949 . S
H704 C708 0.949 . S
C705 C706 1.349 . S
C705 C707 1.327 . S
C705 H728 0.950 . S
C706 C705 1.349 . S
C706 C718 1.349 . S
C707 C705 1.327 . S
C707 C723 1.429 . S
C707 H729 0.950 . S
C708 H704 0.949 . S
C708 C716 1.574 . S
C708 C724 1.368 . S
H709 C717 0.950 . S
H710 C715 0.950 . S
H711 C716 0.949 . S
H712 C718 0.950 . S
H713 C719 0.950 . S
H714 C720 0.949 . S
C715 H710 0.950 . S
C715 C717 1.327 . S
C715 C721 1.429 . S
C716 C708 1.574 . S
C716 H711 0.949 . S
C716 C722 1.368 . S
C717 C701 1.349 . S
C717 H709 0.950 . S
C717 C715 1.327 . S
C718 C706 1.349 . S
C718 H712 0.950 . S
C718 C719 1.327 . S
C719 H713 0.950 . S
C719 C718 1.327 . S
C719 C723 1.429 . S
C720 C703 1.574 . S
C720 H714 0.949 . S
C720 C724 1.368 . S
C721 C702 1.429 . S
C721 C715 1.429 . S
C721 C722 1.523 . S
C722 C703 1.368 . S
C722 C716 1.368 . S
C722 C721 1.523 . S
C723 C707 1.429 . S
C723 C719 1.429 . S
C723 C724 1.523 . S
C724 C708 1.368 . S
C724 C720 1.368 . S
C724 C723 1.523 . S
H725 C700 0.950 . S
H726 C702 0.950 . S
H727 C703 0.949 . S
H728 C705 0.950 . S
H729 C707 0.950 . S
C730 C731 1.382 . S
C730 C732 1.314 1_545 S
C730 H755 0.929 1_545 S
C731 C730 1.382 . S
C731 C747 1.349 . S
C732 C730 1.314 1_565 S
C732 C751 1.429 1_565 S
C732 H756 0.950 . S
C733 C750 1.574 . S
C733 C752 1.368 . S
C733 H757 0.949 . S
H734 C738 0.949 . S
C735 C736 1.349 1_545 S
C735 C737 1.327 . S
C735 H758 0.950 . S
C736 C735 1.349 1_565 S
C736 C748 1.349 . S
C737 C735 1.327 . S
C737 C753 1.429 . S
C737 H759 0.950 . S
C738 H734 0.949 . S
C738 C746 1.574 . S
C738 C754 1.368 1_565 S
H739 C747 0.950 . S
H740 C745 0.950 . S
H741 C746 0.949 . S
H742 C748 0.950 . S
H743 C749 0.950 . S
H744 C750 0.949 . S
C745 H740 0.950 . S
C745 C747 1.327 . S
C745 C751 1.429 . S
C746 C738 1.574 . S
C746 H741 0.949 . S
C746 C752 1.368 1_565 S
C747 C731 1.349 . S
C747 H739 0.950 . S
C747 C745 1.327 . S
C748 C736 1.349 . S
C748 H742 0.950 . S
C748 C749 1.327 . S
C749 H743 0.950 . S
C749 C748 1.327 . S
C749 C753 1.429 1_565 S
C750 C733 1.574 . S
C750 H744 0.949 . S
C750 C754 1.368 . S
C751 C732 1.429 1_545 S
C751 C745 1.429 . S
C751 C752 1.523 . S
C752 C733 1.368 . S
C752 C746 1.368 1_545 S
C752 C751 1.523 . S
C753 C737 1.429 . S
C753 C749 1.429 1_545 S
C753 C754 1.523 . S
C754 C738 1.368 1_545 S
C754 C750 1.368 . S
C754 C753 1.523 . S
H755 C730 0.929 1_565 S
H756 C732 0.950 . S
H757 C733 0.949 . S
H758 C735 0.950 . S
H759 C737 0.950 . S
C760 C761 1.349 . S
C760 C762 1.327 . S
C760 H785 0.950 . S
C761 C760 1.349 . S
C761 C777 1.349 1_565 S
C762 C760 1.327 . S
C762 C781 1.429 . S
C762 H786 0.950 . S
C763 C780 1.574 . S
C763 C782 1.368 1_545 S
C763 H787 0.949 . S
H764 C768 0.949 . S
C765 C766 1.349 . S
C765 C767 1.327 . S
C765 H788 0.950 . S
C766 C765 1.349 . S
C766 C778 1.349 1_545 S
C767 C765 1.327 . S
C767 C783 1.394 1_545 S
C767 H789 0.950 . S
C768 H764 0.949 . S
C768 C776 1.574 . S
C768 C784 1.368 . S
H769 C777 0.950 . S
H770 C775 0.950 . S
H771 C776 0.949 . S
H772 C778 0.950 . S
H773 C779 0.950 . S
H774 C780 0.949 . S
C775 H770 0.950 . S
C775 C777 1.327 . S
C775 C781 1.429 1_545 S
C776 C768 1.574 . S
C776 H771 0.949 . S
C776 C782 1.368 . S
C777 C761 1.349 1_545 S
C777 H769 0.950 . S
C777 C775 1.327 . S
C778 C766 1.349 1_565 S
C778 H772 0.950 . S
C778 C779 1.327 . S
C779 H773 0.950 . S
C779 C778 1.327 . S
C779 C783 1.448 . S
C780 C763 1.574 . S
C780 H774 0.949 . S
C780 C784 1.368 1_545 S
C781 C762 1.429 . S
C781 C775 1.429 1_565 S
C781 C782 1.523 . S
C782 C763 1.368 1_565 S
C782 C776 1.368 . S
C782 C781 1.523 . S
C783 C767 1.394 1_565 S
C783 C779 1.448 . S
C783 C784 1.538 . S
C784 C768 1.368 . S
C784 C780 1.368 1_565 S
C784 C783 1.538 . S
H785 C760 0.950 . S
H786 C762 0.950 . S
H787 C763 0.949 . S
H788 C765 0.950 . S
H789 C767 0.950 . S
C790 C791 1.349 . S
C790 C792 1.327 . S
C790 H815 0.950 . S
C791 C790 1.349 . S
C791 C807 1.349 . S
C792 C790 1.327 . S
C792 C811 1.429 . S
C792 H816 0.950 . S
C793 C810 1.574 . S
C793 C812 1.368 . S
C793 H817 0.949 1_455 S
H794 C798 0.949 . S
C795 C796 1.349 . S
C795 C797 1.327 . S
C795 H818 0.950 1_455 S
C796 C795 1.349 . S
C796 C808 1.349 . S
C797 C795 1.327 . S
C797 C813 1.429 . S
C797 H819 0.950 1_455 S
C798 H794 0.949 . S
C798 C806 1.574 . S
C798 C814 1.368 . S
H799 C807 0.950 1_655 S
H800 C805 0.950 1_655 S
H801 C806 0.949 . S
H802 C808 0.950 . S
H803 C809 0.950 . S
H804 C810 0.949 1_655 S
C805 H800 0.950 1_455 S
C805 C807 1.327 . S
C805 C811 1.429 . S
C806 C798 1.574 . S
C806 H801 0.949 . S
C806 C812 1.368 . S
C807 C791 1.349 . S
C807 H799 0.950 1_455 S
C807 C805 1.327 . S
C808 C796 1.349 . S
C808 H802 0.950 . S
C808 C809 1.327 . S
C809 H803 0.950 . S
C809 C808 1.327 . S
C809 C813 1.429 . S
C810 C793 1.574 . S
C810 H804 0.949 1_455 S
C810 C814 1.368 . S
C811 C792 1.429 . S
C811 C805 1.429 . S
C811 C812 1.523 . S
C812 C793 1.368 . S
C812 C806 1.368 . S
C812 C811 1.523 . S
C813 C797 1.429 . S
C813 C809 1.429 . S
C813 C814 1.523 . S
C814 C798 1.368 . S
C814 C810 1.368 . S
C814 C813 1.523 . S
H815 C790 0.950 . S
H816 C792 0.950 . S
H817 C793 0.949 1_655 S
H818 C795 0.950 1_655 S
H819 C797 0.950 1_655 S
C820 C821 1.349 . S
C820 C822 1.327 . S
C820 H845 0.950 . S
C821 C820 1.349 . S
C821 C837 1.349 . S
C822 C820 1.327 . S
C822 C841 1.429 . S
C822 H846 0.950 . S
C823 C840 1.574 . S
C823 C842 1.368 . S
C823 H847 0.949 . S
H824 C828 0.949 . S
C825 C826 1.349 . S
C825 C827 1.327 . S
C825 H848 0.950 . S
C826 C825 1.349 . S
C826 C838 1.349 . S
C827 C825 1.327 . S
C827 C843 1.429 . S
C827 H849 0.950 . S
C828 H824 0.949 . S
C828 C836 1.574 . S
C828 C844 1.368 . S
H829 C837 0.950 . S
H830 C835 0.950 . S
H831 C836 0.949 . S
H832 C838 0.950 . S
H833 C839 0.950 . S
H834 C840 0.949 . S
C835 H830 0.950 . S
C835 C837 1.327 . S
C835 C841 1.429 . S
C836 C828 1.574 . S
C836 H831 0.949 . S
C836 C842 1.368 . S
C837 C821 1.349 . S
C837 H829 0.950 . S
C837 C835 1.327 . S
C838 C826 1.349 . S
C838 H832 0.950 . S
C838 C839 1.327 . S
C839 H833 0.950 . S
C839 C838 1.327 . S
C839 C843 1.429 . S
C840 C823 1.574 . S
C840 H834 0.949 . S
C840 C844 1.368 . S
C841 C822 1.429 . S
C841 C835 1.429 . S
C841 C842 1.523 . S
C842 C823 1.368 . S
C842 C836 1.368 . S
C842 C841 1.523 . S
C843 C827 1.429 . S
C843 C839 1.429 . S
C843 C844 1.523 . S
C844 C828 1.368 . S
C844 C840 1.368 . S
C844 C843 1.523 . S
H845 C820 0.950 . S
H846 C822 0.950 . S
H847 C823 0.949 . S
H848 C825 0.950 . S
H849 C827 0.950 . S
C850 C851 1.349 . S
C850 C852 1.327 . S
C850 H875 0.950 . S
C851 C850 1.349 . S
C851 C867 1.349 . S
C852 C850 1.327 . S
C852 C871 1.429 . S
C852 H876 0.950 . S
C853 C870 1.574 . S
C853 C872 1.368 . S
C853 H877 0.949 . S
H854 C858 0.949 . S
C855 C856 1.349 . S
C855 C857 1.327 . S
C855 H878 0.950 . S
C856 C855 1.349 . S
C856 C868 1.349 . S
C857 C855 1.327 . S
C857 C873 1.429 . S
C857 H879 0.950 . S
C858 H854 0.949 . S
C858 C866 1.574 . S
C858 C874 1.368 . S
H859 C867 0.950 . S
H860 C865 0.950 . S
H861 C866 0.949 . S
H862 C868 0.950 . S
H863 C869 0.950 . S
H864 C870 0.949 . S
C865 H860 0.950 . S
C865 C867 1.327 . S
C865 C871 1.429 . S
C866 C858 1.574 . S
C866 H861 0.949 . S
C866 C872 1.368 . S
C867 C851 1.349 . S
C867 H859 0.950 . S
C867 C865 1.327 . S
C868 C856 1.349 . S
C868 H862 0.950 . S
C868 C869 1.327 . S
C869 H863 0.950 . S
C869 C868 1.327 . S
C869 C873 1.429 . S
C870 C853 1.574 . S
C870 H864 0.949 . S
C870 C874 1.368 . S
C871 C852 1.429 . S
C871 C865 1.429 . S
C871 C872 1.523 . S
C872 C853 1.368 . S
C872 C866 1.368 . S
C872 C871 1.523 . S
C873 C857 1.429 . S
C873 C869 1.429 . S
C873 C874 1.523 . S
C874 C858 1.368 . S
C874 C870 1.368 . S
C874 C873 1.523 . S
H875 C850 0.950 . S
H876 C852 0.950 . S
H877 C853 0.949 . S
H878 C855 0.950 . S
H879 C857 0.950 . S
C880 C881 1.349 . S
C880 C882 1.327 . S
C880 H905 0.950 . S
C881 C880 1.349 . S
C881 C897 1.349 . S
C882 C880 1.327 . S
C882 C901 1.429 . S
C882 H906 0.950 . S
C883 C900 1.574 . S
C883 C902 1.368 . S
C883 H907 0.949 . S
H884 C888 0.949 . S
C885 C886 1.349 . S
C885 C887 1.327 . S
C885 H908 0.950 . S
C886 C885 1.349 . S
C886 C898 1.349 . S
C887 C885 1.327 . S
C887 C903 1.429 . S
C887 H909 0.950 . S
C888 H884 0.949 . S
C888 C896 1.574 . S
C888 C904 1.368 . S
H889 C897 0.950 . S
H890 C895 0.950 . S
H891 C896 0.949 . S
H892 C898 0.950 . S
H893 C899 0.950 . S
H894 C900 0.949 . S
C895 H890 0.950 . S
C895 C897 1.327 . S
C895 C901 1.429 . S
C896 C888 1.574 . S
C896 H891 0.949 . S
C896 C902 1.368 . S
C897 C881 1.349 . S
C897 H889 0.950 . S
C897 C895 1.327 . S
C898 C886 1.349 . S
C898 H892 0.950 . S
C898 C899 1.327 . S
C899 H893 0.950 . S
C899 C898 1.327 . S
C899 C903 1.429 . S
C900 C883 1.574 . S
C900 H894 0.949 . S
C900 C904 1.368 . S
C901 C882 1.429 . S
C901 C895 1.429 . S
C901 C902 1.523 . S
C902 C883 1.368 . S
C902 C896 1.368 . S
C902 C901 1.523 . S
C903 C887 1.429 . S
C903 C899 1.429 . S
C903 C904 1.523 . S
C904 C888 1.368 . S
C904 C900 1.368 . S
C904 C903 1.523 . S
H905 C880 0.950 . S
H906 C882 0.950 . S
H907 C883 0.949 . S
H908 C885 0.950 . S
H909 C887 0.950 . S
C910 C911 1.349 . S
C910 C912 1.327 . S
C910 H935 0.950 . S
C911 C910 1.349 . S
C911 C927 1.349 . S
C912 C910 1.327 . S
C912 C931 1.429 . S
C912 H936 0.950 . S
C913 C930 1.574 . S
C913 C932 1.368 . S
C913 H937 0.949 . S
H914 C918 0.949 . S
C915 C916 1.349 . S
C915 C917 1.327 . S
C915 H938 0.950 . S
C916 C915 1.349 . S
C916 C928 1.349 . S
C917 C915 1.327 . S
C917 C933 1.429 . S
C917 H939 0.950 . S
C918 H914 0.949 . S
C918 C926 1.574 . S
C918 C934 1.368 . S
H919 C927 0.950 . S
H920 C925 0.950 . S
H921 C926 0.949 . S
H922 C928 0.950 . S
H923 C929 0.950 . S
H924 C930 0.949 . S
C925 H920 0.950 . S
C925 C927 1.327 . S
C925 C931 1.429 . S
C926 C918 1.574 . S
C926 H921 0.949 . S
C926 C932 1.368 . S
C927 C911 1.349 . S
C927 H919 0.950 . S
C927 C925 1.327 . S
C928 C916 1.349 . S
C928 H922 0.950 . S
C928 C929 1.327 . S
C929 H923 0.950 . S
C929 C928 1.327 . S
C929 C933 1.429 . S
C930 C913 1.574 . S
C930 H924 0.949 . S
C930 C934 1.368 . S
C931 C912 1.429 . S
C931 C925 1.429 . S
C931 C932 1.523 . S
C932 C913 1.368 . S
C932 C926 1.368 . S
C932 C931 1.523 . S
C933 C917 1.429 . S
C933 C929 1.429 . S
C933 C934 1.523 . S
C934 C918 1.368 . S
C934 C930 1.368 . S
C934 C933 1.523 . S
H935 C910 0.950 . S
H936 C912 0.950 . S
H937 C913 0.949 . S
H938 C915 0.950 . S
H939 C917 0.950 . S
C940 C941 1.349 1_545 S
C940 C942 1.327 . S
C940 H965 0.950 . S
C941 C940 1.349 1_565 S
C941 C957 1.349 . S
C942 C940 1.327 . S
C942 C961 1.429 1_545 S
C942 H966 0.950 . S
C943 C960 1.574 . S
C943 C962 1.368 . S
C943 H967 0.949 . S
H944 C948 0.949 . S
C945 C946 1.349 1_565 S
C945 C947 1.327 . S
C945 H968 0.950 . S
C946 C945 1.349 1_545 S
C946 C958 1.349 . S
C947 C945 1.327 . S
C947 C963 1.448 . S
C947 H969 0.950 . S
C948 H944 0.949 . S
C948 C956 1.574 . S
C948 C964 1.368 1_545 S
H949 C957 0.950 . S
H950 C955 0.950 . S
H951 C956 0.949 . S
H952 C958 0.950 . S
H953 C959 0.950 . S
H954 C960 0.949 . S
C955 H950 0.950 . S
C955 C957 1.327 . S
C955 C961 1.429 . S
C956 C948 1.574 . S
C956 H951 0.949 . S
C956 C962 1.368 1_545 S
C957 C941 1.349 . S
C957 H949 0.950 . S
C957 C955 1.327 . S
C958 C946 1.349 . S
C958 H952 0.950 . S
C958 C959 1.327 . S
C959 H953 0.950 . S
C959 C958 1.327 . S
C959 C963 1.395 1_545 S
C960 C943 1.574 . S
C960 H954 0.949 . S
C960 C964 1.368 . S
C961 C942 1.429 1_565 S
C961 C955 1.429 . S
C961 C962 1.523 . S
C962 C943 1.368 . S
C962 C956 1.368 1_565 S
C962 C961 1.523 . S
C963 C947 1.448 . S
C963 C959 1.395 1_565 S
C963 C964 1.538 . S
C964 C948 1.368 1_565 S
C964 C960 1.368 . S
C964 C963 1.538 . S
H965 C940 0.950 . S
H966 C942 0.950 . S
H967 C943 0.949 . S
H968 C945 0.950 . S
H969 C947 0.950 . S
C970 C971 1.349 . S
C970 C972 1.327 . S
C970 H995 0.950 . S
C971 C970 1.349 . S
C971 C987 1.349 . S
C972 C970 1.327 . S
C972 C991 1.429 . S
C972 H996 0.950 . S
C973 C990 1.574 . S
C973 C992 1.368 . S
C973 H997 0.949 . S
H974 C978 0.949 . S
C975 C976 1.349 . S
C975 C977 1.327 . S
C975 H998 0.950 . S
C976 C975 1.349 . S
C976 C988 1.349 . S
C977 C975 1.327 . S
C977 C993 1.429 . S
C977 H999 0.950 . S
C978 H974 0.949 . S
C978 C986 1.574 . S
C978 C994 1.368 . S
H979 C987 0.950 . S
H980 C985 0.950 . S
H981 C986 0.949 . S
H982 C988 0.950 . S
H983 C989 0.950 . S
H984 C990 0.949 . S
C985 H980 0.950 . S
C985 C987 1.327 . S
C985 C991 1.429 . S
C986 C978 1.574 . S
C986 H981 0.949 . S
C986 C992 1.368 . S
C987 C971 1.349 . S
C987 H979 0.950 . S
C987 C985 1.327 . S
C988 C976 1.349 . S
C988 H982 0.950 . S
C988 C989 1.327 . S
C989 H983 0.950 . S
C989 C988 1.327 . S
C989 C993 1.429 . S
C990 C973 1.574 . S
C990 H984 0.949 . S
C990 C994 1.368 . S
C991 C972 1.429 . S
C991 C985 1.429 . S
C991 C992 1.523 . S
C992 C973 1.368 . S
C992 C986 1.368 . S
C992 C991 1.523 . S
C993 C977 1.429 . S
C993 C989 1.429 . S
C993 C994 1.523 . S
C994 C978 1.368 . S
C994 C990 1.368 . S
C994 C993 1.523 . S
H995 C970 0.950 . S
H996 C972 0.950 . S
H997 C973 0.949 . S
H998 C975 0.950 . S
H999 C977 0.950 . S
C1000 C1001 1.349 . S
C1000 C1002 1.327 . S
C1000 H1025 0.950 1_556 S
C1001 C1000 1.349 . S
C1001 C1017 1.349 . S
C1002 C1000 1.327 . S
C1002 C1021 1.429 . S
C1002 H1026 0.950 1_556 S
C1003 C1020 1.574 . S
C1003 C1022 1.368 . S
C1003 H1027 0.949 . S
H1004 C1008 0.949 1_554 S
C1005 C1006 1.349 . S
C1005 C1007 1.327 . S
C1005 H1028 0.950 . S
C1006 C1005 1.349 . S
C1006 C1018 1.349 . S
C1007 C1005 1.327 . S
C1007 C1023 1.429 . S
C1007 H1029 0.950 . S
C1008 H1004 0.949 1_556 S
C1008 C1016 1.574 . S
C1008 C1024 1.368 . S
H1009 C1017 0.950 . S
H1010 C1015 0.950 . S
H1011 C1016 0.949 1_554 S
H1012 C1018 0.950 1_554 S
H1013 C1019 0.950 1_554 S
H1014 C1020 0.949 . S
C1015 H1010 0.950 . S
C1015 C1017 1.327 . S
C1015 C1021 1.429 . S
C1016 C1008 1.574 . S
C1016 H1011 0.949 1_556 S
C1016 C1022 1.368 . S
C1017 C1001 1.349 . S
C1017 H1009 0.950 . S
C1017 C1015 1.327 . S
C1018 C1006 1.349 . S
C1018 H1012 0.950 1_556 S
C1018 C1019 1.327 . S
C1019 H1013 0.950 1_556 S
C1019 C1018 1.327 . S
C1019 C1023 1.429 . S
C1020 C1003 1.574 . S
C1020 H1014 0.949 . S
C1020 C1024 1.368 . S
C1021 C1002 1.429 . S
C1021 C1015 1.429 . S
C1021 C1022 1.523 . S
C1022 C1003 1.368 . S
C1022 C1016 1.368 . S
C1022 C1021 1.523 . S
C1023 C1007 1.429 . S
C1023 C1019 1.429 . S
C1023 C1024 1.523 . S
C1024 C1008 1.368 . S
C1024 C1020 1.368 . S
C1024 C1023 1.523 . S
H1025 C1000 0.950 1_554 S
H1026 C1002 0.950 1_554 S
H1027 C1003 0.949 . S
H1028 C1005 0.950 . S
H1029 C1007 0.950 . S
C1030 C1031 1.349 . S
C1030 C1032 1.327 . S
C1030 H1055 0.950 . S
C1031 C1030 1.349 . S
C1031 C1047 1.349 . S
C1032 C1030 1.327 . S
C1032 C1051 1.429 . S
C1032 H1056 0.950 . S
C1033 C1050 1.574 . S
C1033 C1052 1.368 . S
C1033 H1057 0.949 . S
H1034 C1038 0.949 . S
C1035 C1036 1.349 . S
C1035 C1037 1.327 . S
C1035 H1058 0.950 . S
C1036 C1035 1.349 . S
C1036 C1048 1.349 . S
C1037 C1035 1.327 . S
C1037 C1053 1.429 . S
C1037 H1059 0.950 . S
C1038 H1034 0.949 . S
C1038 C1046 1.574 . S
C1038 C1054 1.368 . S
H1039 C1047 0.950 . S
H1040 C1045 0.950 . S
H1041 C1046 0.949 . S
H1042 C1048 0.950 . S
H1043 C1049 0.950 . S
H1044 C1050 0.949 . S
C1045 H1040 0.950 . S
C1045 C1047 1.327 . S
C1045 C1051 1.429 . S
C1046 C1038 1.574 . S
C1046 H1041 0.949 . S
C1046 C1052 1.368 . S
C1047 C1031 1.349 . S
C1047 H1039 0.950 . S
C1047 C1045 1.327 . S
C1048 C1036 1.349 . S
C1048 H1042 0.950 . S
C1048 C1049 1.327 . S
C1049 H1043 0.950 . S
C1049 C1048 1.327 . S
C1049 C1053 1.429 . S
C1050 C1033 1.574 . S
C1050 H1044 0.949 . S
C1050 C1054 1.368 . S
C1051 C1032 1.429 . S
C1051 C1045 1.429 . S
C1051 C1052 1.523 . S
C1052 C1033 1.368 . S
C1052 C1046 1.368 . S
C1052 C1051 1.523 . S
C1053 C1037 1.429 . S
C1053 C1049 1.429 . S
C1053 C1054 1.523 . S
C1054 C1038 1.368 . S
C1054 C1050 1.368 . S
C1054 C1053 1.523 . S
H1055 C1030 0.950 . S
H1056 C1032 0.950 . S
H1057 C1033 0.949 . S
H1058 C1035 0.950 . S
H1059 C1037 0.950 . S
C1060 C1061 1.349 . S
C1060 C1062 1.327 . S
C1060 H1085 0.950 . S
C1061 C1060 1.349 . S
C1061 C1077 1.349 . S
C1062 C1060 1.327 . S
C1062 C1081 1.429 . S
C1062 H1086 0.950 . S
C1063 C1080 1.574 . S
C1063 C1082 1.368 . S
C1063 H1087 0.949 . S
H1064 C1068 0.949 . S
C1065 C1066 1.349 . S
C1065 C1067 1.327 . S
C1065 H1088 0.950 . S
C1066 C1065 1.349 . S
C1066 C1078 1.349 . S
C1067 C1065 1.327 . S
C1067 C1083 1.429 . S
C1067 H1089 0.950 . S
C1068 H1064 0.949 . S
C1068 C1076 1.574 . S
C1068 C1084 1.368 . S
H1069 C1077 0.950 . S
H1070 C1075 0.950 . S
H1071 C1076 0.949 . S
H1072 C1078 0.950 . S
H1073 C1079 0.950 . S
H1074 C1080 0.949 . S
C1075 H1070 0.950 . S
C1075 C1077 1.327 . S
C1075 C1081 1.429 . S
C1076 C1068 1.574 . S
C1076 H1071 0.949 . S
C1076 C1082 1.368 . S
C1077 C1061 1.349 . S
C1077 H1069 0.950 . S
C1077 C1075 1.327 . S
C1078 C1066 1.349 . S
C1078 H1072 0.950 . S
C1078 C1079 1.327 . S
C1079 H1073 0.950 . S
C1079 C1078 1.327 . S
C1079 C1083 1.429 . S
C1080 C1063 1.574 . S
C1080 H1074 0.949 . S
C1080 C1084 1.368 . S
C1081 C1062 1.429 . S
C1081 C1075 1.429 . S
C1081 C1082 1.523 . S
C1082 C1063 1.368 . S
C1082 C1076 1.368 . S
C1082 C1081 1.523 . S
C1083 C1067 1.429 . S
C1083 C1079 1.429 . S
C1083 C1084 1.523 . S
C1084 C1068 1.368 . S
C1084 C1080 1.368 . S
C1084 C1083 1.523 . S
H1085 C1060 0.950 . S
H1086 C1062 0.950 . S
H1087 C1063 0.949 . S
H1088 C1065 0.950 . S
H1089 C1067 0.950 . S
C1090 C1091 1.349 . S
C1090 C1092 1.327 . S
C1090 H1115 0.950 . S
C1091 C1090 1.349 . S
C1091 C1107 1.349 . S
C1092 C1090 1.327 . S
C1092 C1111 1.429 . S
C1092 H1116 0.950 . S
C1093 C1110 1.574 . S
C1093 C1112 1.368 . S
C1093 H1117 0.949 . S
H1094 C1098 0.949 . S
C1095 C1096 1.349 . S
C1095 C1097 1.327 . S
C1095 H1118 0.950 . S
C1096 C1095 1.349 . S
C1096 C1108 1.349 . S
C1097 C1095 1.327 . S
C1097 C1113 1.429 . S
C1097 H1119 0.950 . S
C1098 H1094 0.949 . S
C1098 C1106 1.574 . S
C1098 C1114 1.368 . S
H1099 C1107 0.950 . S
H1100 C1105 0.950 . S
H1101 C1106 0.949 . S
H1102 C1108 0.950 . S
H1103 C1109 0.950 . S
H1104 C1110 0.949 . S
C1105 H1100 0.950 . S
C1105 C1107 1.327 . S
C1105 C1111 1.429 . S
C1106 C1098 1.574 . S
C1106 H1101 0.949 . S
C1106 C1112 1.368 . S
C1107 C1091 1.349 . S
C1107 H1099 0.950 . S
C1107 C1105 1.327 . S
C1108 C1096 1.349 . S
C1108 H1102 0.950 . S
C1108 C1109 1.327 . S
C1109 H1103 0.950 . S
C1109 C1108 1.327 . S
C1109 C1113 1.429 . S
C1110 C1093 1.574 . S
C1110 H1104 0.949 . S
C1110 C1114 1.368 . S
C1111 C1092 1.429 . S
C1111 C1105 1.429 . S
C1111 C1112 1.523 . S
C1112 C1093 1.368 . S
C1112 C1106 1.368 . S
C1112 C1111 1.523 . S
C1113 C1097 1.429 . S
C1113 C1109 1.429 . S
C1113 C1114 1.523 . S
C1114 C1098 1.368 . S
C1114 C1110 1.368 . S
C1114 C1113 1.523 . S
H1115 C1090 0.950 . S
H1116 C1092 0.950 . S
H1117 C1093 0.949 . S
H1118 C1095 0.950 . S
H1119 C1097 0.950 . S
C1120 C1121 1.349 . S
C1120 C1122 1.327 . S
C1120 H1145 0.950 . S
C1121 C1120 1.349 . S
C1121 C1137 1.349 . S
C1122 C1120 1.327 . S
C1122 C1141 1.429 . S
C1122 H1146 0.950 . S
C1123 C1140 1.574 . S
C1123 C1142 1.368 . S
C1123 H1147 0.949 . S
H1124 C1128 0.949 . S
C1125 C1126 1.349 . S
C1125 C1127 1.327 . S
C1125 H1148 0.950 . S
C1126 C1125 1.349 . S
C1126 C1138 1.349 . S
C1127 C1125 1.327 . S
C1127 C1143 1.429 . S
C1127 H1149 0.950 . S
C1128 H1124 0.949 . S
C1128 C1136 1.574 . S
C1128 C1144 1.368 . S
H1129 C1137 0.950 . S
H1130 C1135 0.950 . S
H1131 C1136 0.949 . S
H1132 C1138 0.950 . S
H1133 C1139 0.950 . S
H1134 C1140 0.949 . S
C1135 H1130 0.950 . S
C1135 C1137 1.327 . S
C1135 C1141 1.429 . S
C1136 C1128 1.574 . S
C1136 H1131 0.949 . S
C1136 C1142 1.368 . S
C1137 C1121 1.349 . S
C1137 H1129 0.950 . S
C1137 C1135 1.327 . S
C1138 C1126 1.349 . S
C1138 H1132 0.950 . S
C1138 C1139 1.327 . S
C1139 H1133 0.950 . S
C1139 C1138 1.327 . S
C1139 C1143 1.429 . S
C1140 C1123 1.574 . S
C1140 H1134 0.949 . S
C1140 C1144 1.368 . S
C1141 C1122 1.429 . S
C1141 C1135 1.429 . S
C1141 C1142 1.523 . S
C1142 C1123 1.368 . S
C1142 C1136 1.368 . S
C1142 C1141 1.523 . S
C1143 C1127 1.429 . S
C1143 C1139 1.429 . S
C1143 C1144 1.523 . S
C1144 C1128 1.368 . S
C1144 C1140 1.368 . S
C1144 C1143 1.523 . S
H1145 C1120 0.950 . S
H1146 C1122 0.950 . S
H1147 C1123 0.949 . S
H1148 C1125 0.950 . S
H1149 C1127 0.950 . S
C1150 C1151 1.349 . S
C1150 C1152 1.327 . S
C1150 H1175 0.950 . S
C1151 C1150 1.349 . S
C1151 C1167 1.349 . S
C1152 C1150 1.327 . S
C1152 C1171 1.429 . S
C1152 H1176 0.950 . S
C1153 C1170 1.574 . S
C1153 C1172 1.368 . S
C1153 H1177 0.949 . S
H1154 C1158 0.949 . S
C1155 C1156 1.349 . S
C1155 C1157 1.327 . S
C1155 H1178 0.950 . S
C1156 C1155 1.349 . S
C1156 C1168 1.349 . S
C1157 C1155 1.327 . S
C1157 C1173 1.429 . S
C1157 H1179 0.950 . S
C1158 H1154 0.949 . S
C1158 C1166 1.574 . S
C1158 C1174 1.368 . S
H1159 C1167 0.950 . S
H1160 C1165 0.950 . S
H1161 C1166 0.949 . S
H1162 C1168 0.950 . S
H1163 C1169 0.950 . S
H1164 C1170 0.949 . S
C1165 H1160 0.950 . S
C1165 C1167 1.327 . S
C1165 C1171 1.429 . S
C1166 C1158 1.574 . S
C1166 H1161 0.949 . S
C1166 C1172 1.368 . S
C1167 C1151 1.349 . S
C1167 H1159 0.950 . S
C1167 C1165 1.327 . S
C1168 C1156 1.349 . S
C1168 H1162 0.950 . S
C1168 C1169 1.327 . S
C1169 H1163 0.950 . S
C1169 C1168 1.327 . S
C1169 C1173 1.429 . S
C1170 C1153 1.574 . S
C1170 H1164 0.949 . S
C1170 C1174 1.368 . S
C1171 C1152 1.429 . S
C1171 C1165 1.429 . S
C1171 C1172 1.523 . S
C1172 C1153 1.368 . S
C1172 C1166 1.368 . S
C1172 C1171 1.523 . S
C1173 C1157 1.429 . S
C1173 C1169 1.429 . S
C1173 C1174 1.523 . S
C1174 C1158 1.368 . S
C1174 C1170 1.368 . S
C1174 C1173 1.523 . S
H1175 C1150 0.950 . S
H1176 C1152 0.950 . S
H1177 C1153 0.949 . S
H1178 C1155 0.950 . S
H1179 C1157 0.950 . S
C1180 C1181 1.349 . S
C1180 C1182 1.327 . S
C1180 H1205 0.950 . S
C1181 C1180 1.349 . S
C1181 C1197 1.349 . S
C1182 C1180 1.327 . S
C1182 C1201 1.429 . S
C1182 H1206 0.950 . S
C1183 C1200 1.574 . S
C1183 C1202 1.368 . S
C1183 H1207 0.949 . S
H1184 C1188 0.949 . S
C1185 C1186 1.349 . S
C1185 C1187 1.327 . S
C1185 H1208 0.950 . S
C1186 C1185 1.349 . S
C1186 C1198 1.349 . S
C1187 C1185 1.327 . S
C1187 C1203 1.429 . S
C1187 H1209 0.950 . S
C1188 H1184 0.949 . S
C1188 C1196 1.574 . S
C1188 C1204 1.368 . S
H1189 C1197 0.950 . S
H1190 C1195 0.950 . S
H1191 C1196 0.949 . S
H1192 C1198 0.950 . S
H1193 C1199 0.950 . S
H1194 C1200 0.949 . S
C1195 H1190 0.950 . S
C1195 C1197 1.327 . S
C1195 C1201 1.429 . S
C1196 C1188 1.574 . S
C1196 H1191 0.949 . S
C1196 C1202 1.368 . S
C1197 C1181 1.349 . S
C1197 H1189 0.950 . S
C1197 C1195 1.327 . S
C1198 C1186 1.349 . S
C1198 H1192 0.950 . S
C1198 C1199 1.327 . S
C1199 H1193 0.950 . S
C1199 C1198 1.327 . S
C1199 C1203 1.429 . S
C1200 C1183 1.574 . S
C1200 H1194 0.949 . S
C1200 C1204 1.368 . S
C1201 C1182 1.429 . S
C1201 C1195 1.429 . S
C1201 C1202 1.523 . S
C1202 C1183 1.368 . S
C1202 C1196 1.368 . S
C1202 C1201 1.523 . S
C1203 C1187 1.429 . S
C1203 C1199 1.429 . S
C1203 C1204 1.523 . S
C1204 C1188 1.368 . S
C1204 C1200 1.368 . S
C1204 C1203 1.523 . S
H1205 C1180 0.950 . S
H1206 C1182 0.950 . S
H1207 C1183 0.949 . S
H1208 C1185 0.950 . S
H1209 C1187 0.950 . S
C1210 C1211 1.349 . S
C1210 C1212 1.327 . S
C1210 H1235 0.950 . S
C1211 C1210 1.349 . S
C1211 C1227 1.349 . S
C1212 C1210 1.327 . S
C1212 C1231 1.429 . S
C1212 H1236 0.950 . S
C1213 C1230 1.574 . S
C1213 C1232 1.368 . S
C1213 H1237 0.949 . S
H1214 C1218 0.949 . S
C1215 C1216 1.349 . S
C1215 C1217 1.327 . S
C1215 H1238 0.950 . S
C1216 C1215 1.349 . S
C1216 C1228 1.349 . S
C1217 C1215 1.327 . S
C1217 C1233 1.429 . S
C1217 H1239 0.950 . S
C1218 H1214 0.949 . S
C1218 C1226 1.574 . S
C1218 C1234 1.368 . S
H1219 C1227 0.950 . S
H1220 C1225 0.950 . S
H1221 C1226 0.949 . S
H1222 C1228 0.950 . S
H1223 C1229 0.950 . S
H1224 C1230 0.949 . S
C1225 H1220 0.950 . S
C1225 C1227 1.327 . S
C1225 C1231 1.429 . S
C1226 C1218 1.574 . S
C1226 H1221 0.949 . S
C1226 C1232 1.368 . S
C1227 C1211 1.349 . S
C1227 H1219 0.950 . S
C1227 C1225 1.327 . S
C1228 C1216 1.349 . S
C1228 H1222 0.950 . S
C1228 C1229 1.327 . S
C1229 H1223 0.950 . S
C1229 C1228 1.327 . S
C1229 C1233 1.429 . S
C1230 C1213 1.574 . S
C1230 H1224 0.949 . S
C1230 C1234 1.368 . S
C1231 C1212 1.429 . S
C1231 C1225 1.429 . S
C1231 C1232 1.523 . S
C1232 C1213 1.368 . S
C1232 C1226 1.368 . S
C1232 C1231 1.523 . S
C1233 C1217 1.429 . S
C1233 C1229 1.429 . S
C1233 C1234 1.523 . S
C1234 C1218 1.368 . S
C1234 C1230 1.368 . S
C1234 C1233 1.523 . S
H1235 C1210 0.950 . S
H1236 C1212 0.950 . S
H1237 C1213 0.949 . S
H1238 C1215 0.950 . S
H1239 C1217 0.950 . S
C1240 C1241 1.349 . S
C1240 C1242 1.327 . S
C1240 H1265 0.950 . S
C1241 C1240 1.349 . S
C1241 C1257 1.349 . S
C1242 C1240 1.327 . S
C1242 C1261 1.429 . S
C1242 H1266 0.950 . S
C1243 C1260 1.574 . S
C1243 C1262 1.368 . S
C1243 H1267 0.949 . S
H1244 C1248 0.949 . S
C1245 C1246 1.349 . S
C1245 C1247 1.327 . S
C1245 H1268 0.950 . S
C1246 C1245 1.349 . S
C1246 C1258 1.349 . S
C1247 C1245 1.327 . S
C1247 C1263 1.429 . S
C1247 H1269 0.950 . S
C1248 H1244 0.949 . S
C1248 C1256 1.574 . S
C1248 C1264 1.368 . S
H1249 C1257 0.950 . S
H1250 C1255 0.950 . S
H1251 C1256 0.949 . S
H1252 C1258 0.950 . S
H1253 C1259 0.950 . S
H1254 C1260 0.949 . S
C1255 H1250 0.950 . S
C1255 C1257 1.327 . S
C1255 C1261 1.429 . S
C1256 C1248 1.574 . S
C1256 H1251 0.949 . S
C1256 C1262 1.368 . S
C1257 C1241 1.349 . S
C1257 H1249 0.950 . S
C1257 C1255 1.327 . S
C1258 C1246 1.349 . S
C1258 H1252 0.950 . S
C1258 C1259 1.327 . S
C1259 H1253 0.950 . S
C1259 C1258 1.327 . S
C1259 C1263 1.429 . S
C1260 C1243 1.574 . S
C1260 H1254 0.949 . S
C1260 C1264 1.368 . S
C1261 C1242 1.429 . S
C1261 C1255 1.429 . S
C1261 C1262 1.523 . S
C1262 C1243 1.368 . S
C1262 C1256 1.368 . S
C1262 C1261 1.523 . S
C1263 C1247 1.429 . S
C1263 C1259 1.429 . S
C1263 C1264 1.523 . S
C1264 C1248 1.368 . S
C1264 C1260 1.368 . S
C1264 C1263 1.523 . S
H1265 C1240 0.950 . S
H1266 C1242 0.950 . S
H1267 C1243 0.949 . S
H1268 C1245 0.950 . S
H1269 C1247 0.950 . S
C1270 C1271 1.349 1_455 S
C1270 C1272 1.327 . S
C1270 H1295 0.950 . S
C1271 C1270 1.349 1_655 S
C1271 C1287 1.349 . S
C1272 C1270 1.327 . S
C1272 C1291 1.429 1_455 S
C1272 H1296 0.950 . S
C1273 C1290 1.574 . S
C1273 C1292 1.368 . S
C1273 H1297 0.949 . S
H1274 C1278 0.949 . S
C1275 C1276 1.349 . S
C1275 C1277 1.327 . S
C1275 H1298 0.950 . S
C1276 C1275 1.349 . S
C1276 C1288 1.362 . S
C1277 C1275 1.327 . S
C1277 C1293 1.429 . S
C1277 H1299 0.950 . S
C1278 H1274 0.949 . S
C1278 C1286 1.574 . S
C1278 C1294 1.368 1_455 S
H1279 C1287 0.950 . S
H1280 C1285 0.950 . S
H1281 C1286 0.949 . S
H1282 C1288 0.942 1_455 S
H1283 C1289 0.985 . S
H1284 C1290 0.949 . S
C1285 H1280 0.950 . S
C1285 C1287 1.327 . S
C1285 C1291 1.429 . S
C1286 C1278 1.574 . S
C1286 H1281 0.949 . S
C1286 C1292 1.368 1_455 S
C1287 C1271 1.349 . S
C1287 H1279 0.950 . S
C1287 C1285 1.327 . S
C1288 C1276 1.362 . S
C1288 H1282 0.942 1_655 S
C1288 C1289 1.307 1_655 S
C1289 H1283 0.985 . S
C1289 C1288 1.307 1_455 S
C1289 C1293 1.410 1_455 S
C1290 C1273 1.574 . S
C1290 H1284 0.949 . S
C1290 C1294 1.368 . S
C1291 C1272 1.429 1_655 S
C1291 C1285 1.429 . S
C1291 C1292 1.523 . S
C1292 C1273 1.368 . S
C1292 C1286 1.368 1_655 S
C1292 C1291 1.523 . S
C1293 C1277 1.429 . S
C1293 C1289 1.410 1_655 S
C1293 C1294 1.523 . S
C1294 C1278 1.368 1_655 S
C1294 C1290 1.368 . S
C1294 C1293 1.523 . S
H1295 C1270 0.950 . S
H1296 C1272 0.950 . S
H1297 C1273 0.949 . S
H1298 C1275 0.950 . S
H1299 C1277 0.950 . S
C1300 C1301 1.349 . S
C1300 C1302 1.327 . S
C1300 H1325 0.950 . S
C1301 C1300 1.349 . S
C1301 C1317 1.349 . S
C1302 C1300 1.327 . S
C1302 C1321 1.429 . S
C1302 H1326 0.950 . S
C1303 C1320 1.574 . S
C1303 C1322 1.368 . S
C1303 H1327 0.949 . S
H1304 C1308 0.949 . S
C1305 C1306 1.349 . S
C1305 C1307 1.327 . S
C1305 H1328 0.950 . S
C1306 C1305 1.349 . S
C1306 C1318 1.349 . S
C1307 C1305 1.327 . S
C1307 C1323 1.429 . S
C1307 H1329 0.950 . S
C1308 H1304 0.949 . S
C1308 C1316 1.574 . S
C1308 C1324 1.368 . S
H1309 C1317 0.950 . S
H1310 C1315 0.950 . S
H1311 C1316 0.949 . S
H1312 C1318 0.950 . S
H1313 C1319 0.950 . S
H1314 C1320 0.949 . S
C1315 H1310 0.950 . S
C1315 C1317 1.327 . S
C1315 C1321 1.429 . S
C1316 C1308 1.574 . S
C1316 H1311 0.949 . S
C1316 C1322 1.368 . S
C1317 C1301 1.349 . S
C1317 H1309 0.950 . S
C1317 C1315 1.327 . S
C1318 C1306 1.349 . S
C1318 H1312 0.950 . S
C1318 C1319 1.327 . S
C1319 H1313 0.950 . S
C1319 C1318 1.327 . S
C1319 C1323 1.429 . S
C1320 C1303 1.574 . S
C1320 H1314 0.949 . S
C1320 C1324 1.368 . S
C1321 C1302 1.429 . S
C1321 C1315 1.429 . S
C1321 C1322 1.523 . S
C1322 C1303 1.368 . S
C1322 C1316 1.368 . S
C1322 C1321 1.523 . S
C1323 C1307 1.429 . S
C1323 C1319 1.429 . S
C1323 C1324 1.523 . S
C1324 C1308 1.368 . S
C1324 C1320 1.368 . S
C1324 C1323 1.523 . S
H1325 C1300 0.950 . S
H1326 C1302 0.950 . S
H1327 C1303 0.949 . S
H1328 C1305 0.950 . S
H1329 C1307 0.950 . S
C1330 C1331 1.349 . S
C1330 C1332 1.327 . S
C1330 H1355 0.950 . S
C1331 C1330 1.349 . S
C1331 C1347 1.349 . S
C1332 C1330 1.327 . S
C1332 C1351 1.429 . S
C1332 H1356 0.950 . S
C1333 C1350 1.574 . S
C1333 C1352 1.368 . S
C1333 H1357 0.949 . S
H1334 C1338 0.949 . S
C1335 C1336 1.349 . S
C1335 C1337 1.327 . S
C1335 H1358 0.950 . S
C1336 C1335 1.349 . S
C1336 C1348 1.349 . S
C1337 C1335 1.327 . S
C1337 C1353 1.429 . S
C1337 H1359 0.950 . S
C1338 H1334 0.949 . S
C1338 C1346 1.574 . S
C1338 C1354 1.368 . S
H1339 C1347 0.950 . S
H1340 C1345 0.950 . S
H1341 C1346 0.949 . S
H1342 C1348 0.950 . S
H1343 C1349 0.950 . S
H1344 C1350 0.949 . S
C1345 H1340 0.950 . S
C1345 C1347 1.327 . S
C1345 C1351 1.429 . S
C1346 C1338 1.574 . S
C1346 H1341 0.949 . S
C1346 C1352 1.368 . S
C1347 C1331 1.349 . S
C1347 H1339 0.950 . S
C1347 C1345 1.327 . S
C1348 C1336 1.349 . S
C1348 H1342 0.950 . S
C1348 C1349 1.327 . S
C1349 H1343 0.950 . S
C1349 C1348 1.327 . S
C1349 C1353 1.429 . S
C1350 C1333 1.574 . S
C1350 H1344 0.949 . S
C1350 C1354 1.368 . S
C1351 C1332 1.429 . S
C1351 C1345 1.429 . S
C1351 C1352 1.523 . S
C1352 C1333 1.368 . S
C1352 C1346 1.368 . S
C1352 C1351 1.523 . S
C1353 C1337 1.429 . S
C1353 C1349 1.429 . S
C1353 C1354 1.523 . S
C1354 C1338 1.368 . S
C1354 C1350 1.368 . S
C1354 C1353 1.523 . S
H1355 C1330 0.950 . S
H1356 C1332 0.950 . S
H1357 C1333 0.949 . S
H1358 C1335 0.950 . S
H1359 C1337 0.950 . S
C1360 C1361 1.349 . S
C1360 C1362 1.327 . S
C1360 H1385 0.950 . S
C1361 C1360 1.349 . S
C1361 C1377 1.349 . S
C1362 C1360 1.327 . S
C1362 C1381 1.429 . S
C1362 H1386 0.950 . S
C1363 C1380 1.574 . S
C1363 C1382 1.368 . S
C1363 H1387 0.949 . S
H1364 C1368 0.949 . S
C1365 C1366 1.349 . S
C1365 C1367 1.327 . S
C1365 H1388 0.950 . S
C1366 C1365 1.349 . S
C1366 C1378 1.349 . S
C1367 C1365 1.327 . S
C1367 C1383 1.429 . S
C1367 H1389 0.950 . S
C1368 H1364 0.949 . S
C1368 C1376 1.574 . S
C1368 C1384 1.368 . S
H1369 C1377 0.950 . S
H1370 C1375 0.950 . S
H1371 C1376 0.949 . S
H1372 C1378 0.950 . S
H1373 C1379 0.950 . S
H1374 C1380 0.949 . S
C1375 H1370 0.950 . S
C1375 C1377 1.327 . S
C1375 C1381 1.429 . S
C1376 C1368 1.574 . S
C1376 H1371 0.949 . S
C1376 C1382 1.368 . S
C1377 C1361 1.349 . S
C1377 H1369 0.950 . S
C1377 C1375 1.327 . S
C1378 C1366 1.349 . S
C1378 H1372 0.950 . S
C1378 C1379 1.327 . S
C1379 H1373 0.950 . S
C1379 C1378 1.327 . S
C1379 C1383 1.429 . S
C1380 C1363 1.574 . S
C1380 H1374 0.949 . S
C1380 C1384 1.368 . S
C1381 C1362 1.429 . S
C1381 C1375 1.429 . S
C1381 C1382 1.523 . S
C1382 C1363 1.368 . S
C1382 C1376 1.368 . S
C1382 C1381 1.523 . S
C1383 C1367 1.429 . S
C1383 C1379 1.429 . S
C1383 C1384 1.523 . S
C1384 C1368 1.368 . S
C1384 C1380 1.368 . S
C1384 C1383 1.523 . S
H1385 C1360 0.950 . S
H1386 C1362 0.950 . S
H1387 C1363 0.949 . S
H1388 C1365 0.950 . S
H1389 C1367 0.950 . S
C1390 C1391 1.349 . S
C1390 C1392 1.327 . S
C1390 H1415 0.950 . S
C1391 C1390 1.349 . S
C1391 C1407 1.349 . S
C1392 C1390 1.327 . S
C1392 C1411 1.429 . S
C1392 H1416 0.950 . S
C1393 C1410 1.574 . S
C1393 C1412 1.368 . S
C1393 H1417 0.949 . S
H1394 C1398 0.949 . S
C1395 C1396 1.349 . S
C1395 C1397 1.327 . S
C1395 H1418 0.950 . S
C1396 C1395 1.349 . S
C1396 C1408 1.349 . S
C1397 C1395 1.327 . S
C1397 C1413 1.429 . S
C1397 H1419 0.950 . S
C1398 H1394 0.949 . S
C1398 C1406 1.574 . S
C1398 C1414 1.368 . S
H1399 C1407 0.950 . S
H1400 C1405 0.950 . S
H1401 C1406 0.949 . S
H1402 C1408 0.950 . S
H1403 C1409 0.950 . S
H1404 C1410 0.949 . S
C1405 H1400 0.950 . S
C1405 C1407 1.327 . S
C1405 C1411 1.429 . S
C1406 C1398 1.574 . S
C1406 H1401 0.949 . S
C1406 C1412 1.368 . S
C1407 C1391 1.349 . S
C1407 H1399 0.950 . S
C1407 C1405 1.327 . S
C1408 C1396 1.349 . S
C1408 H1402 0.950 . S
C1408 C1409 1.327 . S
C1409 H1403 0.950 . S
C1409 C1408 1.327 . S
C1409 C1413 1.429 . S
C1410 C1393 1.574 . S
C1410 H1404 0.949 . S
C1410 C1414 1.368 . S
C1411 C1392 1.429 . S
C1411 C1405 1.429 . S
C1411 C1412 1.523 . S
C1412 C1393 1.368 . S
C1412 C1406 1.368 . S
C1412 C1411 1.523 . S
C1413 C1397 1.429 . S
C1413 C1409 1.429 . S
C1413 C1414 1.523 . S
C1414 C1398 1.368 . S
C1414 C1410 1.368 . S
C1414 C1413 1.523 . S
H1415 C1390 0.950 . S
H1416 C1392 0.950 . S
H1417 C1393 0.949 . S
H1418 C1395 0.950 . S
H1419 C1397 0.950 . S
C1420 C1421 1.349 . S
C1420 C1422 1.327 . S
C1420 H1445 0.950 . S
C1421 C1420 1.349 . S
C1421 C1437 1.349 1_565 S
C1422 C1420 1.327 . S
C1422 C1441 1.429 1_565 S
C1422 H1446 0.950 . S
C1423 C1440 1.574 . S
C1423 C1442 1.368 . S
C1423 H1447 0.949 . S
H1424 C1428 0.949 . S
C1425 C1426 1.349 . S
C1425 C1427 1.327 . S
C1425 H1448 0.950 . S
C1426 C1425 1.349 . S
C1426 C1438 1.352 1_545 S
C1427 C1425 1.327 . S
C1427 C1443 1.429 . S
C1427 H1449 0.950 . S
C1428 H1424 0.949 . S
C1428 C1436 1.574 . S
C1428 C1444 1.368 1_565 S
H1429 C1437 0.950 . S
H1430 C1435 0.950 . S
H1431 C1436 0.949 . S
H1432 C1438 0.948 . S
H1433 C1439 0.950 . S
H1434 C1440 0.949 . S
C1435 H1430 0.950 . S
C1435 C1437 1.327 . S
C1435 C1441 1.429 . S
C1436 C1428 1.574 . S
C1436 H1431 0.949 . S
C1436 C1442 1.368 1_565 S
C1437 C1421 1.349 1_545 S
C1437 H1429 0.950 . S
C1437 C1435 1.327 . S
C1438 C1426 1.352 1_565 S
C1438 H1432 0.948 . S
C1438 C1439 1.326 . S
C1439 H1433 0.950 . S
C1439 C1438 1.326 . S
C1439 C1443 1.429 1_565 S
C1440 C1423 1.574 . S
C1440 H1434 0.949 . S
C1440 C1444 1.368 . S
C1441 C1422 1.429 1_545 S
C1441 C1435 1.429 . S
C1441 C1442 1.523 . S
C1442 C1423 1.368 . S
C1442 C1436 1.368 1_545 S
C1442 C1441 1.523 . S
C1443 C1427 1.429 . S
C1443 C1439 1.429 1_545 S
C1443 C1444 1.523 . S
C1444 C1428 1.368 1_545 S
C1444 C1440 1.368 . S
C1444 C1443 1.523 . S
H1445 C1420 0.950 . S
H1446 C1422 0.950 . S
H1447 C1423 0.949 . S
H1448 C1425 0.950 . S
H1449 C1427 0.950 . S
C1450 C1451 1.349 . S
C1450 C1452 1.327 . S
C1450 H1475 0.950 1_554 S
C1451 C1450 1.349 . S
C1451 C1467 1.349 . S
C1452 C1450 1.327 . S
C1452 C1471 1.429 . S
C1452 H1476 0.950 1_554 S
C1453 C1470 1.574 . S
C1453 C1472 1.368 . S
C1453 H1477 0.949 . S
H1454 C1458 0.949 1_556 S
C1455 C1456 1.349 . S
C1455 C1457 1.327 . S
C1455 H1478 0.950 . S
C1456 C1455 1.349 . S
C1456 C1468 1.349 . S
C1457 C1455 1.327 . S
C1457 C1473 1.429 . S
C1457 H1479 0.950 . S
C1458 H1454 0.949 1_554 S
C1458 C1466 1.574 . S
C1458 C1474 1.368 . S
H1459 C1467 0.950 . S
H1460 C1465 0.950 . S
H1461 C1466 0.949 1_556 S
H1462 C1468 0.950 1_556 S
H1463 C1469 0.950 1_556 S
H1464 C1470 0.949 . S
C1465 H1460 0.950 . S
C1465 C1467 1.327 . S
C1465 C1471 1.429 . S
C1466 C1458 1.574 . S
C1466 H1461 0.949 1_554 S
C1466 C1472 1.368 . S
C1467 C1451 1.349 . S
C1467 H1459 0.950 . S
C1467 C1465 1.327 . S
C1468 C1456 1.349 . S
C1468 H1462 0.950 1_554 S
C1468 C1469 1.327 . S
C1469 H1463 0.950 1_554 S
C1469 C1468 1.327 . S
C1469 C1473 1.429 . S
C1470 C1453 1.574 . S
C1470 H1464 0.949 . S
C1470 C1474 1.368 . S
C1471 C1452 1.429 . S
C1471 C1465 1.429 . S
C1471 C1472 1.523 . S
C1472 C1453 1.368 . S
C1472 C1466 1.368 . S
C1472 C1471 1.523 . S
C1473 C1457 1.429 . S
C1473 C1469 1.429 . S
C1473 C1474 1.523 . S
C1474 C1458 1.368 . S
C1474 C1470 1.368 . S
C1474 C1473 1.523 . S
H1475 C1450 0.950 1_556 S
H1476 C1452 0.950 1_556 S
H1477 C1453 0.949 . S
H1478 C1455 0.950 . S
H1479 C1457 0.950 . S
C1480 C1481 1.349 . S
C1480 C1482 1.327 . S
C1480 H1505 0.950 . S
C1481 C1480 1.349 . S
C1481 C1497 1.349 . S
C1482 C1480 1.327 . S
C1482 C1501 1.429 . S
C1482 H1506 0.950 . S
C1483 C1500 1.574 . S
C1483 C1502 1.368 . S
C1483 H1507 0.949 . S
H1484 C1488 0.949 . S
C1485 C1486 1.349 . S
C1485 C1487 1.327 . S
C1485 H1508 0.950 . S
C1486 C1485 1.349 . S
C1486 C1498 1.349 . S
C1487 C1485 1.327 . S
C1487 C1503 1.429 . S
C1487 H1509 0.950 . S
C1488 H1484 0.949 . S
C1488 C1496 1.574 . S
C1488 C1504 1.368 . S
H1489 C1497 0.950 . S
H1490 C1495 0.950 . S
H1491 C1496 0.949 . S
H1492 C1498 0.950 . S
H1493 C1499 0.950 . S
H1494 C1500 0.949 . S
C1495 H1490 0.950 . S
C1495 C1497 1.327 . S
C1495 C1501 1.429 . S
C1496 C1488 1.574 . S
C1496 H1491 0.949 . S
C1496 C1502 1.368 . S
C1497 C1481 1.349 . S
C1497 H1489 0.950 . S
C1497 C1495 1.327 . S
C1498 C1486 1.349 . S
C1498 H1492 0.950 . S
C1498 C1499 1.327 . S
C1499 H1493 0.950 . S
C1499 C1498 1.327 . S
C1499 C1503 1.429 . S
C1500 C1483 1.574 . S
C1500 H1494 0.949 . S
C1500 C1504 1.368 . S
C1501 C1482 1.429 . S
C1501 C1495 1.429 . S
C1501 C1502 1.523 . S
C1502 C1483 1.368 . S
C1502 C1496 1.368 . S
C1502 C1501 1.523 . S
C1503 C1487 1.429 . S
C1503 C1499 1.429 . S
C1503 C1504 1.523 . S
C1504 C1488 1.368 . S
C1504 C1500 1.368 . S
C1504 C1503 1.523 . S
H1505 C1480 0.950 . S
H1506 C1482 0.950 . S
H1507 C1483 0.949 . S
H1508 C1485 0.950 . S
H1509 C1487 0.950 . S
C1510 C1511 1.349 . S
C1510 C1512 1.327 . S
C1510 H1535 0.950 . S
C1511 C1510 1.349 . S
C1511 C1527 1.349 . S
C1512 C1510 1.327 . S
C1512 C1531 1.429 . S
C1512 H1536 0.950 . S
C1513 C1530 1.574 . S
C1513 C1532 1.368 . S
C1513 H1537 0.949 . S
H1514 C1518 0.949 . S
C1515 C1516 1.349 . S
C1515 C1517 1.327 . S
C1515 H1538 0.950 . S
C1516 C1515 1.349 . S
C1516 C1528 1.349 . S
C1517 C1515 1.327 . S
C1517 C1533 1.429 . S
C1517 H1539 0.950 . S
C1518 H1514 0.949 . S
C1518 C1526 1.574 . S
C1518 C1534 1.368 . S
H1519 C1527 0.950 . S
H1520 C1525 0.950 . S
H1521 C1526 0.949 . S
H1522 C1528 0.950 . S
H1523 C1529 0.950 . S
H1524 C1530 0.949 . S
C1525 H1520 0.950 . S
C1525 C1527 1.327 . S
C1525 C1531 1.429 . S
C1526 C1518 1.574 . S
C1526 H1521 0.949 . S
C1526 C1532 1.368 . S
C1527 C1511 1.349 . S
C1527 H1519 0.950 . S
C1527 C1525 1.327 . S
C1528 C1516 1.349 . S
C1528 H1522 0.950 . S
C1528 C1529 1.327 . S
C1529 H1523 0.950 . S
C1529 C1528 1.327 . S
C1529 C1533 1.429 . S
C1530 C1513 1.574 . S
C1530 H1524 0.949 . S
C1530 C1534 1.368 . S
C1531 C1512 1.429 . S
C1531 C1525 1.429 . S
C1531 C1532 1.523 . S
C1532 C1513 1.368 . S
C1532 C1526 1.368 . S
C1532 C1531 1.523 . S
C1533 C1517 1.429 . S
C1533 C1529 1.429 . S
C1533 C1534 1.523 . S
C1534 C1518 1.368 . S
C1534 C1530 1.368 . S
C1534 C1533 1.523 . S
H1535 C1510 0.950 . S
H1536 C1512 0.950 . S
H1537 C1513 0.949 . S
H1538 C1515 0.950 . S
H1539 C1517 0.950 . S
C1540 C1541 1.349 . S
C1540 C1542 1.327 . S
C1540 H1565 0.950 . S
C1541 C1540 1.349 . S
C1541 C1557 1.349 . S
C1542 C1540 1.327 . S
C1542 C1561 1.429 . S
C1542 H1566 0.950 . S
C1543 C1560 1.574 . S
C1543 C1562 1.368 . S
C1543 H1567 0.949 . S
H1544 C1548 0.949 . S
C1545 C1546 1.349 . S
C1545 C1547 1.327 . S
C1545 H1568 0.950 . S
C1546 C1545 1.349 . S
C1546 C1558 1.349 . S
C1547 C1545 1.327 . S
C1547 C1563 1.429 . S
C1547 H1569 0.950 . S
C1548 H1544 0.949 . S
C1548 C1556 1.574 . S
C1548 C1564 1.368 . S
H1549 C1557 0.950 . S
H1550 C1555 0.950 . S
H1551 C1556 0.949 . S
H1552 C1558 0.950 . S
H1553 C1559 0.950 . S
H1554 C1560 0.949 . S
C1555 H1550 0.950 . S
C1555 C1557 1.327 . S
C1555 C1561 1.429 . S
C1556 C1548 1.574 . S
C1556 H1551 0.949 . S
C1556 C1562 1.368 . S
C1557 C1541 1.349 . S
C1557 H1549 0.950 . S
C1557 C1555 1.327 . S
C1558 C1546 1.349 . S
C1558 H1552 0.950 . S
C1558 C1559 1.327 . S
C1559 H1553 0.950 . S
C1559 C1558 1.327 . S
C1559 C1563 1.429 . S
C1560 C1543 1.574 . S
C1560 H1554 0.949 . S
C1560 C1564 1.368 . S
C1561 C1542 1.429 . S
C1561 C1555 1.429 . S
C1561 C1562 1.523 . S
C1562 C1543 1.368 . S
C1562 C1556 1.368 . S
C1562 C1561 1.523 . S
C1563 C1547 1.429 . S
C1563 C1559 1.429 . S
C1563 C1564 1.523 . S
C1564 C1548 1.368 . S
C1564 C1560 1.368 . S
C1564 C1563 1.523 . S
H1565 C1540 0.950 . S
H1566 C1542 0.950 . S
H1567 C1543 0.949 . S
H1568 C1545 0.950 . S
H1569 C1547 0.950 . S
C1570 C1571 1.349 . S
C1570 C1572 1.327 . S
C1570 H1595 0.950 . S
C1571 C1570 1.349 . S
C1571 C1587 1.349 . S
C1572 C1570 1.327 . S
C1572 C1591 1.429 . S
C1572 H1596 0.950 . S
C1573 C1590 1.574 . S
C1573 C1592 1.368 . S
C1573 H1597 0.949 . S
H1574 C1578 0.949 . S
C1575 C1576 1.349 . S
C1575 C1577 1.327 . S
C1575 H1598 0.950 . S
C1576 C1575 1.349 . S
C1576 C1588 1.349 . S
C1577 C1575 1.327 . S
C1577 C1593 1.429 . S
C1577 H1599 0.950 . S
C1578 H1574 0.949 . S
C1578 C1586 1.574 . S
C1578 C1594 1.368 . S
H1579 C1587 0.950 . S
H1580 C1585 0.950 . S
H1581 C1586 0.949 . S
H1582 C1588 0.950 . S
H1583 C1589 0.950 . S
H1584 C1590 0.949 . S
C1585 H1580 0.950 . S
C1585 C1587 1.327 . S
C1585 C1591 1.429 . S
C1586 C1578 1.574 . S
C1586 H1581 0.949 . S
C1586 C1592 1.368 . S
C1587 C1571 1.349 . S
C1587 H1579 0.950 . S
C1587 C1585 1.327 . S
C1588 C1576 1.349 . S
C1588 H1582 0.950 . S
C1588 C1589 1.327 . S
C1589 H1583 0.950 . S
C1589 C1588 1.327 . S
C1589 C1593 1.429 . S
C1590 C1573 1.574 . S
C1590 H1584 0.949 . S
C1590 C1594 1.368 . S
C1591 C1572 1.429 . S
C1591 C1585 1.429 . S
C1591 C1592 1.523 . S
C1592 C1573 1.368 . S
C1592 C1586 1.368 . S
C1592 C1591 1.523 . S
C1593 C1577 1.429 . S
C1593 C1589 1.429 . S
C1593 C1594 1.523 . S
C1594 C1578 1.368 . S
C1594 C1590 1.368 . S
C1594 C1593 1.523 . S
H1595 C1570 0.950 . S
H1596 C1572 0.950 . S
H1597 C1573 0.949 . S
H1598 C1575 0.950 . S
H1599 C1577 0.950 . S
C1600 C1601 1.349 . S
C1600 C1602 1.327 . S
C1600 H1625 0.950 . S
C1601 C1600 1.349 . S
C1601 C1617 1.349 . S
C1602 C1600 1.327 . S
C1602 C1621 1.429 . S
C1602 H1626 0.950 . S
C1603 C1620 1.574 . S
C1603 C1622 1.368 . S
C1603 H1627 0.949 . S
H1604 C1608 0.949 . S
C1605 C1606 1.349 . S
C1605 C1607 1.327 . S
C1605 H1628 0.950 . S
C1606 C1605 1.349 . S
C1606 C1618 1.349 . S
C1607 C1605 1.327 . S
C1607 C1623 1.429 . S
C1607 H1629 0.950 . S
C1608 H1604 0.949 . S
C1608 C1616 1.574 . S
C1608 C1624 1.368 . S
H1609 C1617 0.950 . S
H1610 C1615 0.950 . S
H1611 C1616 0.949 . S
H1612 C1618 0.950 . S
H1613 C1619 0.950 . S
H1614 C1620 0.949 . S
C1615 H1610 0.950 . S
C1615 C1617 1.327 . S
C1615 C1621 1.429 . S
C1616 C1608 1.574 . S
C1616 H1611 0.949 . S
C1616 C1622 1.368 . S
C1617 C1601 1.349 . S
C1617 H1609 0.950 . S
C1617 C1615 1.327 . S
C1618 C1606 1.349 . S
C1618 H1612 0.950 . S
C1618 C1619 1.327 . S
C1619 H1613 0.950 . S
C1619 C1618 1.327 . S
C1619 C1623 1.429 . S
C1620 C1603 1.574 . S
C1620 H1614 0.949 . S
C1620 C1624 1.368 . S
C1621 C1602 1.429 . S
C1621 C1615 1.429 . S
C1621 C1622 1.523 . S
C1622 C1603 1.368 . S
C1622 C1616 1.368 . S
C1622 C1621 1.523 . S
C1623 C1607 1.429 . S
C1623 C1619 1.429 . S
C1623 C1624 1.523 . S
C1624 C1608 1.368 . S
C1624 C1620 1.368 . S
C1624 C1623 1.523 . S
H1625 C1600 0.950 . S
H1626 C1602 0.950 . S
H1627 C1603 0.949 . S
H1628 C1605 0.950 . S
H1629 C1607 0.950 . S
C1630 C1631 1.349 . S
C1630 C1632 1.327 . S
C1630 H1655 0.950 . S
C1631 C1630 1.349 . S
C1631 C1647 1.349 . S
C1632 C1630 1.327 . S
C1632 C1651 1.429 . S
C1632 H1656 0.950 . S
C1633 C1650 1.574 . S
C1633 C1652 1.368 . S
C1633 H1657 0.949 . S
H1634 C1638 0.949 . S
C1635 C1636 1.349 . S
C1635 C1637 1.327 . S
C1635 H1658 0.950 . S
C1636 C1635 1.349 . S
C1636 C1648 1.349 . S
C1637 C1635 1.327 . S
C1637 C1653 1.429 . S
C1637 H1659 0.950 . S
C1638 H1634 0.949 . S
C1638 C1646 1.574 . S
C1638 C1654 1.368 . S
H1639 C1647 0.950 . S
H1640 C1645 0.950 . S
H1641 C1646 0.949 . S
H1642 C1648 0.950 . S
H1643 C1649 0.950 . S
H1644 C1650 0.949 . S
C1645 H1640 0.950 . S
C1645 C1647 1.327 . S
C1645 C1651 1.429 . S
C1646 C1638 1.574 . S
C1646 H1641 0.949 . S
C1646 C1652 1.368 . S
C1647 C1631 1.349 . S
C1647 H1639 0.950 . S
C1647 C1645 1.327 . S
C1648 C1636 1.349 . S
C1648 H1642 0.950 . S
C1648 C1649 1.327 . S
C1649 H1643 0.950 . S
C1649 C1648 1.327 . S
C1649 C1653 1.429 . S
C1650 C1633 1.574 . S
C1650 H1644 0.949 . S
C1650 C1654 1.368 . S
C1651 C1632 1.429 . S
C1651 C1645 1.429 . S
C1651 C1652 1.523 . S
C1652 C1633 1.368 . S
C1652 C1646 1.368 . S
C1652 C1651 1.523 . S
C1653 C1637 1.429 . S
C1653 C1649 1.429 . S
C1653 C1654 1.523 . S
C1654 C1638 1.368 . S
C1654 C1650 1.368 . S
C1654 C1653 1.523 . S
H1655 C1630 0.950 . S
H1656 C1632 0.950 . S
H1657 C1633 0.949 . S
H1658 C1635 0.950 . S
H1659 C1637 0.950 . S
C1660 C1661 1.349 . S
C1660 C1662 1.327 . S
C1660 H1685 0.950 . S
C1661 C1660 1.349 . S
C1661 C1677 1.349 . S
C1662 C1660 1.327 . S
C1662 C1681 1.429 . S
C1662 H1686 0.950 . S
C1663 C1680 1.574 . S
C1663 C1682 1.368 . S
C1663 H1687 0.949 . S
H1664 C1668 0.949 . S
C1665 C1666 1.349 . S
C1665 C1667 1.327 . S
C1665 H1688 0.950 . S
C1666 C1665 1.349 . S
C1666 C1678 1.349 . S
C1667 C1665 1.327 . S
C1667 C1683 1.429 . S
C1667 H1689 0.950 . S
C1668 H1664 0.949 . S
C1668 C1676 1.574 . S
C1668 C1684 1.368 . S
H1669 C1677 0.950 . S
H1670 C1675 0.950 . S
H1671 C1676 0.949 . S
H1672 C1678 0.950 . S
H1673 C1679 0.950 . S
H1674 C1680 0.949 . S
C1675 H1670 0.950 . S
C1675 C1677 1.327 . S
C1675 C1681 1.429 . S
C1676 C1668 1.574 . S
C1676 H1671 0.949 . S
C1676 C1682 1.368 . S
C1677 C1661 1.349 . S
C1677 H1669 0.950 . S
C1677 C1675 1.327 . S
C1678 C1666 1.349 . S
C1678 H1672 0.950 . S
C1678 C1679 1.327 . S
C1679 H1673 0.950 . S
C1679 C1678 1.327 . S
C1679 C1683 1.429 . S
C1680 C1663 1.574 . S
C1680 H1674 0.949 . S
C1680 C1684 1.368 . S
C1681 C1662 1.429 . S
C1681 C1675 1.429 . S
C1681 C1682 1.523 . S
C1682 C1663 1.368 . S
C1682 C1676 1.368 . S
C1682 C1681 1.523 . S
C1683 C1667 1.429 . S
C1683 C1679 1.429 . S
C1683 C1684 1.523 . S
C1684 C1668 1.368 . S
C1684 C1680 1.368 . S
C1684 C1683 1.523 . S
H1685 C1660 0.950 . S
H1686 C1662 0.950 . S
H1687 C1663 0.949 . S
H1688 C1665 0.950 . S
H1689 C1667 0.950 . S
C1690 C1691 1.349 . S
C1690 C1692 1.327 . S
C1690 H1715 0.950 . S
C1691 C1690 1.349 . S
C1691 C1707 1.349 . S
C1692 C1690 1.327 . S
C1692 C1711 1.429 . S
C1692 H1716 0.950 . S
C1693 C1710 1.574 . S
C1693 C1712 1.368 . S
C1693 H1717 0.949 . S
H1694 C1698 0.949 . S
C1695 C1696 1.349 . S
C1695 C1697 1.327 . S
C1695 H1718 0.950 . S
C1696 C1695 1.349 . S
C1696 C1708 1.349 . S
C1697 C1695 1.327 . S
C1697 C1713 1.429 . S
C1697 H1719 0.950 . S
C1698 H1694 0.949 . S
C1698 C1706 1.574 . S
C1698 C1714 1.368 . S
H1699 C1707 0.950 . S
H1700 C1705 0.950 . S
H1701 C1706 0.949 . S
H1702 C1708 0.950 . S
H1703 C1709 0.950 . S
H1704 C1710 0.949 . S
C1705 H1700 0.950 . S
C1705 C1707 1.327 . S
C1705 C1711 1.429 . S
C1706 C1698 1.574 . S
C1706 H1701 0.949 . S
C1706 C1712 1.368 . S
C1707 C1691 1.349 . S
C1707 H1699 0.950 . S
C1707 C1705 1.327 . S
C1708 C1696 1.349 . S
C1708 H1702 0.950 . S
C1708 C1709 1.327 . S
C1709 H1703 0.950 . S
C1709 C1708 1.327 . S
C1709 C1713 1.429 . S
C1710 C1693 1.574 . S
C1710 H1704 0.949 . S
C1710 C1714 1.368 . S
C1711 C1692 1.429 . S
C1711 C1705 1.429 . S
C1711 C1712 1.523 . S
C1712 C1693 1.368 . S
C1712 C1706 1.368 . S
C1712 C1711 1.523 . S
C1713 C1697 1.429 . S
C1713 C1709 1.429 . S
C1713 C1714 1.523 . S
C1714 C1698 1.368 . S
C1714 C1710 1.368 . S
C1714 C1713 1.523 . S
H1715 C1690 0.950 . S
H1716 C1692 0.950 . S
H1717 C1693 0.949 . S
H1718 C1695 0.950 . S
H1719 C1697 0.950 . S
C1720 C1721 1.349 . S
C1720 C1722 1.327 . S
C1720 H1745 0.950 . S
C1721 C1720 1.349 . S
C1721 C1737 1.349 . S
C1722 C1720 1.327 . S
C1722 C1741 1.429 . S
C1722 H1746 0.950 . S
C1723 C1740 1.574 . S
C1723 C1742 1.368 . S
C1723 H1747 0.949 . S
H1724 C1728 0.949 . S
C1725 C1726 1.349 . S
C1725 C1727 1.327 . S
C1725 H1748 0.950 . S
C1726 C1725 1.349 . S
C1726 C1738 1.349 . S
C1727 C1725 1.327 . S
C1727 C1743 1.429 . S
C1727 H1749 0.950 . S
C1728 H1724 0.949 . S
C1728 C1736 1.574 . S
C1728 C1744 1.368 . S
H1729 C1737 0.950 . S
H1730 C1735 0.950 . S
H1731 C1736 0.949 . S
H1732 C1738 0.950 . S
H1733 C1739 0.950 . S
H1734 C1740 0.949 . S
C1735 H1730 0.950 . S
C1735 C1737 1.327 . S
C1735 C1741 1.429 . S
C1736 C1728 1.574 . S
C1736 H1731 0.949 . S
C1736 C1742 1.368 . S
C1737 C1721 1.349 . S
C1737 H1729 0.950 . S
C1737 C1735 1.327 . S
C1738 C1726 1.349 . S
C1738 H1732 0.950 . S
C1738 C1739 1.327 . S
C1739 H1733 0.950 . S
C1739 C1738 1.327 . S
C1739 C1743 1.429 . S
C1740 C1723 1.574 . S
C1740 H1734 0.949 . S
C1740 C1744 1.368 . S
C1741 C1722 1.429 . S
C1741 C1735 1.429 . S
C1741 C1742 1.523 . S
C1742 C1723 1.368 . S
C1742 C1736 1.368 . S
C1742 C1741 1.523 . S
C1743 C1727 1.429 . S
C1743 C1739 1.429 . S
C1743 C1744 1.523 . S
C1744 C1728 1.368 . S
C1744 C1740 1.368 . S
C1744 C1743 1.523 . S
H1745 C1720 0.950 . S
H1746 C1722 0.950 . S
H1747 C1723 0.949 . S
H1748 C1725 0.950 . S
H1749 C1727 0.950 . S
C1750 C1751 1.349 . S
C1750 C1752 1.327 . S
C1750 H1775 0.950 1_554 S
C1751 C1750 1.349 . S
C1751 C1767 1.349 . S
C1752 C1750 1.327 . S
C1752 C1771 1.429 . S
C1752 H1776 0.950 1_554 S
C1753 C1770 1.574 . S
C1753 C1772 1.368 . S
C1753 H1777 0.949 . S
H1754 C1758 0.949 1_556 S
C1755 C1756 1.349 . S
C1755 C1757 1.327 . S
C1755 H1778 0.950 . S
C1756 C1755 1.349 . S
C1756 C1768 1.349 . S
C1757 C1755 1.327 . S
C1757 C1773 1.429 . S
C1757 H1779 0.950 . S
C1758 H1754 0.949 1_554 S
C1758 C1766 1.574 . S
C1758 C1774 1.368 . S
H1759 C1767 0.950 . S
H1760 C1765 0.950 . S
H1761 C1766 0.949 1_556 S
H1762 C1768 0.950 1_556 S
H1763 C1769 0.950 1_556 S
H1764 C1770 0.949 . S
C1765 H1760 0.950 . S
C1765 C1767 1.327 . S
C1765 C1771 1.429 . S
C1766 C1758 1.574 . S
C1766 H1761 0.949 1_554 S
C1766 C1772 1.368 . S
C1767 C1751 1.349 . S
C1767 H1759 0.950 . S
C1767 C1765 1.327 . S
C1768 C1756 1.349 . S
C1768 H1762 0.950 1_554 S
C1768 C1769 1.327 . S
C1769 H1763 0.950 1_554 S
C1769 C1768 1.327 . S
C1769 C1773 1.429 . S
C1770 C1753 1.574 . S
C1770 H1764 0.949 . S
C1770 C1774 1.368 . S
C1771 C1752 1.429 . S
C1771 C1765 1.429 . S
C1771 C1772 1.523 . S
C1772 C1753 1.368 . S
C1772 C1766 1.368 . S
C1772 C1771 1.523 . S
C1773 C1757 1.429 . S
C1773 C1769 1.429 . S
C1773 C1774 1.523 . S
C1774 C1758 1.368 . S
C1774 C1770 1.368 . S
C1774 C1773 1.523 . S
H1775 C1750 0.950 1_556 S
H1776 C1752 0.950 1_556 S
H1777 C1753 0.949 . S
H1778 C1755 0.950 . S
H1779 C1757 0.950 . S
C1780 C1781 1.349 . S
C1780 C1782 1.327 . S
C1780 H1805 0.950 . S
C1781 C1780 1.349 . S
C1781 C1797 1.349 . S
C1782 C1780 1.327 . S
C1782 C1801 1.429 . S
C1782 H1806 0.950 . S
C1783 C1800 1.574 . S
C1783 C1802 1.368 . S
C1783 H1807 0.949 . S
H1784 C1788 0.949 . S
C1785 C1786 1.349 . S
C1785 C1787 1.327 . S
C1785 H1808 0.950 . S
C1786 C1785 1.349 . S
C1786 C1798 1.349 . S
C1787 C1785 1.327 . S
C1787 C1803 1.429 . S
C1787 H1809 0.950 . S
C1788 H1784 0.949 . S
C1788 C1796 1.574 . S
C1788 C1804 1.368 . S
H1789 C1797 0.950 . S
H1790 C1795 0.950 . S
H1791 C1796 0.949 . S
H1792 C1798 0.950 . S
H1793 C1799 0.950 . S
H1794 C1800 0.949 . S
C1795 H1790 0.950 . S
C1795 C1797 1.327 . S
C1795 C1801 1.429 . S
C1796 C1788 1.574 . S
C1796 H1791 0.949 . S
C1796 C1802 1.368 . S
C1797 C1781 1.349 . S
C1797 H1789 0.950 . S
C1797 C1795 1.327 . S
C1798 C1786 1.349 . S
C1798 H1792 0.950 . S
C1798 C1799 1.327 . S
C1799 H1793 0.950 . S
C1799 C1798 1.327 . S
C1799 C1803 1.429 . S
C1800 C1783 1.574 . S
C1800 H1794 0.949 . S
C1800 C1804 1.368 . S
C1801 C1782 1.429 . S
C1801 C1795 1.429 . S
C1801 C1802 1.523 . S
C1802 C1783 1.368 . S
C1802 C1796 1.368 . S
C1802 C1801 1.523 . S
C1803 C1787 1.429 . S
C1803 C1799 1.429 . S
C1803 C1804 1.523 . S
C1804 C1788 1.368 . S
C1804 C1800 1.368 . S
C1804 C1803 1.523 . S
H1805 C1780 0.950 . S
H1806 C1782 0.950 . S
H1807 C1783 0.949 . S
H1808 C1785 0.950 . S
H1809 C1787 0.950 . S
C1810 C1811 1.349 . S
C1810 C1812 1.327 . S
C1810 H1835 0.950 . S
C1811 C1810 1.349 . S
C1811 C1827 1.349 . S
C1812 C1810 1.327 . S
C1812 C1831 1.429 . S
C1812 H1836 0.950 . S
C1813 C1830 1.574 . S
C1813 C1832 1.368 . S
C1813 H1837 0.949 . S
H1814 C1818 0.949 . S
C1815 C1816 1.349 . S
C1815 C1817 1.327 . S
C1815 H1838 0.950 . S
C1816 C1815 1.349 . S
C1816 C1828 1.349 . S
C1817 C1815 1.327 . S
C1817 C1833 1.429 . S
C1817 H1839 0.950 . S
C1818 H1814 0.949 . S
C1818 C1826 1.574 . S
C1818 C1834 1.368 . S
H1819 C1827 0.950 . S
H1820 C1825 0.950 . S
H1821 C1826 0.949 . S
H1822 C1828 0.950 . S
H1823 C1829 0.950 . S
H1824 C1830 0.949 . S
C1825 H1820 0.950 . S
C1825 C1827 1.327 . S
C1825 C1831 1.429 . S
C1826 C1818 1.574 . S
C1826 H1821 0.949 . S
C1826 C1832 1.368 . S
C1827 C1811 1.349 . S
C1827 H1819 0.950 . S
C1827 C1825 1.327 . S
C1828 C1816 1.349 . S
C1828 H1822 0.950 . S
C1828 C1829 1.327 . S
C1829 H1823 0.950 . S
C1829 C1828 1.327 . S
C1829 C1833 1.429 . S
C1830 C1813 1.574 . S
C1830 H1824 0.949 . S
C1830 C1834 1.368 . S
C1831 C1812 1.429 . S
C1831 C1825 1.429 . S
C1831 C1832 1.523 . S
C1832 C1813 1.368 . S
C1832 C1826 1.368 . S
C1832 C1831 1.523 . S
C1833 C1817 1.429 . S
C1833 C1829 1.429 . S
C1833 C1834 1.523 . S
C1834 C1818 1.368 . S
C1834 C1830 1.368 . S
C1834 C1833 1.523 . S
H1835 C1810 0.950 . S
H1836 C1812 0.950 . S
H1837 C1813 0.949 . S
H1838 C1815 0.950 . S
H1839 C1817 0.950 . S
C1840 C1841 1.349 . S
C1840 C1842 1.327 . S
C1840 H1865 0.950 . S
C1841 C1840 1.349 . S
C1841 C1857 1.349 . S
C1842 C1840 1.327 . S
C1842 C1861 1.429 . S
C1842 H1866 0.950 . S
C1843 C1860 1.574 . S
C1843 C1862 1.368 . S
C1843 H1867 0.949 . S
H1844 C1848 0.949 . S
C1845 C1846 1.349 . S
C1845 C1847 1.327 . S
C1845 H1868 0.950 . S
C1846 C1845 1.349 . S
C1846 C1858 1.349 . S
C1847 C1845 1.327 . S
C1847 C1863 1.429 . S
C1847 H1869 0.950 . S
C1848 H1844 0.949 . S
C1848 C1856 1.574 . S
C1848 C1864 1.368 . S
H1849 C1857 0.950 . S
H1850 C1855 0.950 . S
H1851 C1856 0.949 . S
H1852 C1858 0.950 . S
H1853 C1859 0.950 . S
H1854 C1860 0.949 . S
C1855 H1850 0.950 . S
C1855 C1857 1.327 . S
C1855 C1861 1.429 . S
C1856 C1848 1.574 . S
C1856 H1851 0.949 . S
C1856 C1862 1.368 . S
C1857 C1841 1.349 . S
C1857 H1849 0.950 . S
C1857 C1855 1.327 . S
C1858 C1846 1.349 . S
C1858 H1852 0.950 . S
C1858 C1859 1.327 . S
C1859 H1853 0.950 . S
C1859 C1858 1.327 . S
C1859 C1863 1.429 . S
C1860 C1843 1.574 . S
C1860 H1854 0.949 . S
C1860 C1864 1.368 . S
C1861 C1842 1.429 . S
C1861 C1855 1.429 . S
C1861 C1862 1.523 . S
C1862 C1843 1.368 . S
C1862 C1856 1.368 . S
C1862 C1861 1.523 . S
C1863 C1847 1.429 . S
C1863 C1859 1.429 . S
C1863 C1864 1.523 . S
C1864 C1848 1.368 . S
C1864 C1860 1.368 . S
C1864 C1863 1.523 . S
H1865 C1840 0.950 . S
H1866 C1842 0.950 . S
H1867 C1843 0.949 . S
H1868 C1845 0.950 . S
H1869 C1847 0.950 . S
C1870 C1871 1.349 . S
C1870 C1872 1.327 . S
C1870 H1895 0.950 . S
C1871 C1870 1.349 . S
C1871 C1887 1.349 . S
C1872 C1870 1.327 . S
C1872 C1891 1.429 . S
C1872 H1896 0.950 . S
C1873 C1890 1.574 . S
C1873 C1892 1.368 . S
C1873 H1897 0.949 . S
H1874 C1878 0.949 . S
C1875 C1876 1.349 . S
C1875 C1877 1.327 . S
C1875 H1898 0.950 . S
C1876 C1875 1.349 . S
C1876 C1888 1.349 . S
C1877 C1875 1.327 . S
C1877 C1893 1.429 . S
C1877 H1899 0.950 . S
C1878 H1874 0.949 . S
C1878 C1886 1.574 . S
C1878 C1894 1.368 . S
H1879 C1887 0.950 . S
H1880 C1885 0.950 . S
H1881 C1886 0.949 . S
H1882 C1888 0.950 . S
H1883 C1889 0.950 . S
H1884 C1890 0.949 . S
C1885 H1880 0.950 . S
C1885 C1887 1.327 . S
C1885 C1891 1.429 . S
C1886 C1878 1.574 . S
C1886 H1881 0.949 . S
C1886 C1892 1.368 . S
C1887 C1871 1.349 . S
C1887 H1879 0.950 . S
C1887 C1885 1.327 . S
C1888 C1876 1.349 . S
C1888 H1882 0.950 . S
C1888 C1889 1.327 . S
C1889 H1883 0.950 . S
C1889 C1888 1.327 . S
C1889 C1893 1.429 . S
C1890 C1873 1.574 . S
C1890 H1884 0.949 . S
C1890 C1894 1.368 . S
C1891 C1872 1.429 . S
C1891 C1885 1.429 . S
C1891 C1892 1.523 . S
C1892 C1873 1.368 . S
C1892 C1886 1.368 . S
C1892 C1891 1.523 . S
C1893 C1877 1.429 . S
C1893 C1889 1.429 . S
C1893 C1894 1.523 . S
C1894 C1878 1.368 . S
C1894 C1890 1.368 . S
C1894 C1893 1.523 . S
H1895 C1870 0.950 . S
H1896 C1872 0.950 . S
H1897 C1873 0.949 . S
H1898 C1875 0.950 . S
H1899 C1877 0.950 . S
C1900 C1901 1.349 . S
C1900 C1902 1.327 . S
C1900 H1925 0.950 . S
C1901 C1900 1.349 . S
C1901 C1917 1.349 . S
C1902 C1900 1.327 . S
C1902 C1921 1.429 . S
C1902 H1926 0.950 . S
C1903 C1920 1.574 . S
C1903 C1922 1.368 . S
C1903 H1927 0.949 1_556 S
H1904 C1908 0.949 . S
C1905 C1906 1.349 . S
C1905 C1907 1.327 . S
C1905 H1928 0.950 1_556 S
C1906 C1905 1.349 . S
C1906 C1918 1.349 . S
C1907 C1905 1.327 . S
C1907 C1923 1.429 . S
C1907 H1929 0.950 1_556 S
C1908 H1904 0.949 . S
C1908 C1916 1.574 . S
C1908 C1924 1.368 . S
H1909 C1917 0.950 1_554 S
H1910 C1915 0.950 1_554 S
H1911 C1916 0.949 . S
H1912 C1918 0.950 . S
H1913 C1919 0.950 . S
H1914 C1920 0.949 1_554 S
C1915 H1910 0.950 1_556 S
C1915 C1917 1.327 . S
C1915 C1921 1.429 . S
C1916 C1908 1.574 . S
C1916 H1911 0.949 . S
C1916 C1922 1.368 . S
C1917 C1901 1.349 . S
C1917 H1909 0.950 1_556 S
C1917 C1915 1.327 . S
C1918 C1906 1.349 . S
C1918 H1912 0.950 . S
C1918 C1919 1.327 . S
C1919 H1913 0.950 . S
C1919 C1918 1.327 . S
C1919 C1923 1.429 . S
C1920 C1903 1.574 . S
C1920 H1914 0.949 1_556 S
C1920 C1924 1.368 . S
C1921 C1902 1.429 . S
C1921 C1915 1.429 . S
C1921 C1922 1.523 . S
C1922 C1903 1.368 . S
C1922 C1916 1.368 . S
C1922 C1921 1.523 . S
C1923 C1907 1.429 . S
C1923 C1919 1.429 . S
C1923 C1924 1.523 . S
C1924 C1908 1.368 . S
C1924 C1920 1.368 . S
C1924 C1923 1.523 . S
H1925 C1900 0.950 . S
H1926 C1902 0.950 . S
H1927 C1903 0.949 1_554 S
H1928 C1905 0.950 1_554 S
H1929 C1907 0.950 1_554 S
C1930 C1931 1.349 . S
C1930 C1932 1.327 . S
C1930 H1955 0.950 . S
C1931 C1930 1.349 . S
C1931 C1947 1.349 . S
C1932 C1930 1.327 . S
C1932 C1951 1.429 . S
C1932 H1956 0.950 . S
C1933 C1950 1.574 . S
C1933 C1952 1.368 . S
C1933 H1957 0.949 . S
H1934 C1938 0.949 . S
C1935 C1936 1.349 . S
C1935 C1937 1.327 . S
C1935 H1958 0.950 . S
C1936 C1935 1.349 . S
C1936 C1948 1.349 . S
C1937 C1935 1.327 . S
C1937 C1953 1.429 . S
C1937 H1959 0.950 . S
C1938 H1934 0.949 . S
C1938 C1946 1.574 . S
C1938 C1954 1.368 . S
H1939 C1947 0.950 . S
H1940 C1945 0.950 . S
H1941 C1946 0.949 . S
H1942 C1948 0.950 . S
H1943 C1949 0.950 . S
H1944 C1950 0.949 . S
C1945 H1940 0.950 . S
C1945 C1947 1.327 . S
C1945 C1951 1.429 . S
C1946 C1938 1.574 . S
C1946 H1941 0.949 . S
C1946 C1952 1.368 . S
C1947 C1931 1.349 . S
C1947 H1939 0.950 . S
C1947 C1945 1.327 . S
C1948 C1936 1.349 . S
C1948 H1942 0.950 . S
C1948 C1949 1.327 . S
C1949 H1943 0.950 . S
C1949 C1948 1.327 . S
C1949 C1953 1.429 . S
C1950 C1933 1.574 . S
C1950 H1944 0.949 . S
C1950 C1954 1.368 . S
C1951 C1932 1.429 . S
C1951 C1945 1.429 . S
C1951 C1952 1.523 . S
C1952 C1933 1.368 . S
C1952 C1946 1.368 . S
C1952 C1951 1.523 . S
C1953 C1937 1.429 . S
C1953 C1949 1.429 . S
C1953 C1954 1.523 . S
C1954 C1938 1.368 . S
C1954 C1950 1.368 . S
C1954 C1953 1.523 . S
H1955 C1930 0.950 . S
H1956 C1932 0.950 . S
H1957 C1933 0.949 . S
H1958 C1935 0.950 . S
H1959 C1937 0.950 . S
C1960 C1961 1.349 . S
C1960 C1962 1.327 . S
C1960 H1985 0.950 . S
C1961 C1960 1.349 . S
C1961 C1977 1.349 . S
C1962 C1960 1.327 . S
C1962 C1981 1.429 . S
C1962 H1986 0.950 . S
C1963 C1980 1.574 . S
C1963 C1982 1.368 . S
C1963 H1987 0.949 . S
H1964 C1968 0.949 . S
C1965 C1966 1.349 . S
C1965 C1967 1.327 . S
C1965 H1988 0.950 . S
C1966 C1965 1.349 . S
C1966 C1978 1.349 . S
C1967 C1965 1.327 . S
C1967 C1983 1.429 . S
C1967 H1989 0.950 . S
C1968 H1964 0.949 . S
C1968 C1976 1.574 . S
C1968 C1984 1.368 . S
H1969 C1977 0.950 . S
H1970 C1975 0.950 . S
H1971 C1976 0.949 . S
H1972 C1978 0.950 . S
H1973 C1979 0.950 . S
H1974 C1980 0.949 . S
C1975 H1970 0.950 . S
C1975 C1977 1.327 . S
C1975 C1981 1.429 . S
C1976 C1968 1.574 . S
C1976 H1971 0.949 . S
C1976 C1982 1.368 . S
C1977 C1961 1.349 . S
C1977 H1969 0.950 . S
C1977 C1975 1.327 . S
C1978 C1966 1.349 . S
C1978 H1972 0.950 . S
C1978 C1979 1.327 . S
C1979 H1973 0.950 . S
C1979 C1978 1.327 . S
C1979 C1983 1.429 . S
C1980 C1963 1.574 . S
C1980 H1974 0.949 . S
C1980 C1984 1.368 . S
C1981 C1962 1.429 . S
C1981 C1975 1.429 . S
C1981 C1982 1.523 . S
C1982 C1963 1.368 . S
C1982 C1976 1.368 . S
C1982 C1981 1.523 . S
C1983 C1967 1.429 . S
C1983 C1979 1.429 . S
C1983 C1984 1.523 . S
C1984 C1968 1.368 . S
C1984 C1980 1.368 . S
C1984 C1983 1.523 . S
H1985 C1960 0.950 . S
H1986 C1962 0.950 . S
H1987 C1963 0.949 . S
H1988 C1965 0.950 . S
H1989 C1967 0.950 . S
C1990 C1991 1.349 . S
C1990 C1992 1.327 . S
C1990 H2015 0.950 . S
C1991 C1990 1.349 . S
C1991 C2007 1.349 . S
C1992 C1990 1.327 . S
C1992 C2011 1.429 . S
C1992 H2016 0.950 . S
C1993 C2010 1.574 . S
C1993 C2012 1.368 . S
C1993 H2017 0.949 . S
H1994 C1998 0.949 . S
C1995 C1996 1.349 . S
C1995 C1997 1.327 . S
C1995 H2018 0.950 . S
C1996 C1995 1.349 . S
C1996 C2008 1.349 . S
C1997 C1995 1.327 . S
C1997 C2013 1.429 . S
C1997 H2019 0.950 . S
C1998 H1994 0.949 . S
C1998 C2006 1.574 . S
C1998 C2014 1.368 . S
H1999 C2007 0.950 . S
H2000 C2005 0.950 . S
H2001 C2006 0.949 . S
H2002 C2008 0.950 . S
H2003 C2009 0.950 . S
H2004 C2010 0.949 . S
C2005 H2000 0.950 . S
C2005 C2007 1.327 . S
C2005 C2011 1.429 . S
C2006 C1998 1.574 . S
C2006 H2001 0.949 . S
C2006 C2012 1.368 . S
C2007 C1991 1.349 . S
C2007 H1999 0.950 . S
C2007 C2005 1.327 . S
C2008 C1996 1.349 . S
C2008 H2002 0.950 . S
C2008 C2009 1.327 . S
C2009 H2003 0.950 . S
C2009 C2008 1.327 . S
C2009 C2013 1.429 . S
C2010 C1993 1.574 . S
C2010 H2004 0.949 . S
C2010 C2014 1.368 . S
C2011 C1992 1.429 . S
C2011 C2005 1.429 . S
C2011 C2012 1.523 . S
C2012 C1993 1.368 . S
C2012 C2006 1.368 . S
C2012 C2011 1.523 . S
C2013 C1997 1.429 . S
C2013 C2009 1.429 . S
C2013 C2014 1.523 . S
C2014 C1998 1.368 . S
C2014 C2010 1.368 . S
C2014 C2013 1.523 . S
H2015 C1990 0.950 . S
H2016 C1992 0.950 . S
H2017 C1993 0.949 . S
H2018 C1995 0.950 . S
H2019 C1997 0.950 . S
C2020 C2021 1.349 . S
C2020 C2022 1.327 . S
C2020 H2045 0.950 . S
C2021 C2020 1.349 . S
C2021 C2037 1.349 . S
C2022 C2020 1.327 . S
C2022 C2041 1.429 . S
C2022 H2046 0.950 . S
C2023 C2040 1.574 . S
C2023 C2042 1.368 . S
C2023 H2047 0.949 . S
H2024 C2028 0.949 . S
C2025 C2026 1.349 . S
C2025 C2027 1.327 . S
C2025 H2048 0.950 . S
C2026 C2025 1.349 . S
C2026 C2038 1.349 . S
C2027 C2025 1.327 . S
C2027 C2043 1.429 . S
C2027 H2049 0.950 . S
C2028 H2024 0.949 . S
C2028 C2036 1.574 . S
C2028 C2044 1.368 . S
H2029 C2037 0.950 . S
H2030 C2035 0.950 . S
H2031 C2036 0.949 . S
H2032 C2038 0.950 . S
H2033 C2039 0.950 . S
H2034 C2040 0.949 . S
C2035 H2030 0.950 . S
C2035 C2037 1.327 . S
C2035 C2041 1.429 . S
C2036 C2028 1.574 . S
C2036 H2031 0.949 . S
C2036 C2042 1.368 . S
C2037 C2021 1.349 . S
C2037 H2029 0.950 . S
C2037 C2035 1.327 . S
C2038 C2026 1.349 . S
C2038 H2032 0.950 . S
C2038 C2039 1.327 . S
C2039 H2033 0.950 . S
C2039 C2038 1.327 . S
C2039 C2043 1.429 . S
C2040 C2023 1.574 . S
C2040 H2034 0.949 . S
C2040 C2044 1.368 . S
C2041 C2022 1.429 . S
C2041 C2035 1.429 . S
C2041 C2042 1.523 . S
C2042 C2023 1.368 . S
C2042 C2036 1.368 . S
C2042 C2041 1.523 . S
C2043 C2027 1.429 . S
C2043 C2039 1.429 . S
C2043 C2044 1.523 . S
C2044 C2028 1.368 . S
C2044 C2040 1.368 . S
C2044 C2043 1.523 . S
H2045 C2020 0.950 . S
H2046 C2022 0.950 . S
H2047 C2023 0.949 . S
H2048 C2025 0.950 . S
H2049 C2027 0.950 . S
C2050 C2051 1.349 . S
C2050 C2052 1.327 . S
C2050 H2075 0.950 . S
C2051 C2050 1.349 . S
C2051 C2067 1.349 . S
C2052 C2050 1.327 . S
C2052 C2071 1.429 . S
C2052 H2076 0.950 . S
C2053 C2070 1.574 . S
C2053 C2072 1.368 . S
C2053 H2077 0.949 . S
H2054 C2058 0.949 . S
C2055 C2056 1.349 . S
C2055 C2057 1.327 . S
C2055 H2078 0.950 . S
C2056 C2055 1.349 . S
C2056 C2068 1.349 . S
C2057 C2055 1.327 . S
C2057 C2073 1.429 . S
C2057 H2079 0.950 . S
C2058 H2054 0.949 . S
C2058 C2066 1.574 . S
C2058 C2074 1.368 . S
H2059 C2067 0.950 . S
H2060 C2065 0.950 . S
H2061 C2066 0.949 . S
H2062 C2068 0.950 . S
H2063 C2069 0.950 . S
H2064 C2070 0.949 . S
C2065 H2060 0.950 . S
C2065 C2067 1.327 . S
C2065 C2071 1.429 . S
C2066 C2058 1.574 . S
C2066 H2061 0.949 . S
C2066 C2072 1.368 . S
C2067 C2051 1.349 . S
C2067 H2059 0.950 . S
C2067 C2065 1.327 . S
C2068 C2056 1.349 . S
C2068 H2062 0.950 . S
C2068 C2069 1.327 . S
C2069 H2063 0.950 . S
C2069 C2068 1.327 . S
C2069 C2073 1.429 . S
C2070 C2053 1.574 . S
C2070 H2064 0.949 . S
C2070 C2074 1.368 . S
C2071 C2052 1.429 . S
C2071 C2065 1.429 . S
C2071 C2072 1.523 . S
C2072 C2053 1.368 . S
C2072 C2066 1.368 . S
C2072 C2071 1.523 . S
C2073 C2057 1.429 . S
C2073 C2069 1.429 . S
C2073 C2074 1.523 . S
C2074 C2058 1.368 . S
C2074 C2070 1.368 . S
C2074 C2073 1.523 . S
H2075 C2050 0.950 . S
H2076 C2052 0.950 . S
H2077 C2053 0.949 . S
H2078 C2055 0.950 . S
H2079 C2057 0.950 . S
C641 C19 1.549 . S
C646 C55 1.486 . S
C671 C98 1.304 . S
C676 C50 1.335 . S
C701 C135 1.486 . S
C706 C99 1.549 . S
C731 C18 1.304 . S
C736 C130 1.339 1_565 S
C761 C9 1.304 . S
C766 C379 1.335 . S
C791 C290 1.549 . S
C796 C46 1.486 . S
C821 C89 1.304 . S
C826 C419 1.335 . S
C851 C126 1.486 . S
C856 C530 1.548 . S
C881 C329 1.304 . S
C886 C59 1.335 . S
C911 C486 1.486 . S
C916 C90 1.548 . S
C941 C569 1.304 . S
C946 C139 1.334 . S
C971 C10 1.548 . S
C976 C446 1.486 . S
C1001 C15 0.582 . S
C1006 C335 0.582 . S
C1031 C489 1.560 . S
C1036 C169 1.560 . S
C1061 C206 0.581 . S
C1066 C566 0.581 . S
C1091 C449 1.560 . S
C1096 C249 1.560 . S
C1121 C86 0.582 . S
C1126 C286 0.582 . S
C1151 C378 1.560 . S
C1156 C178 1.560 . S
C1181 C258 1.560 . S
C1186 C418 1.560 . S
C1211 C209 1.304 . S
C1216 C459 1.335 . S
C1241 C366 1.486 . S
C1246 C210 1.548 . S
C1271 C455 1.486 . S
C1276 C299 1.548 . S
C1301 C218 1.304 . S
C1306 C170 1.335 . S
C1331 C375 1.486 . S
C1336 C339 1.549 . S
C1361 C538 1.304 . S
C1366 C450 1.335 . S
C1391 C255 1.486 . S
C1396 C219 1.549 . S
C1421 C370 1.339 1_565 S
C1426 C578 1.305 . S
C1451 C526 0.581 . S
C1456 C6 0.581 . S
C1481 C95 0.582 . S
C1486 C575 0.582 . S
C1511 C498 1.560 . S
C1516 C58 1.560 . S
C1541 C295 0.582 . S
C1546 C215 0.582 . S
C1571 C129 1.561 . S
C1576 C409 1.561 . S
C1601 C495 1.486 . S
C1606 C539 1.549 . S
C1631 C298 1.304 . S
C1636 C490 1.334 . S
C1661 C259 1.335 . S
C1666 C289 1.305 . S
C1691 C179 1.335 . S
C1696 C529 1.304 . S
C1721 C499 1.335 . S
C1726 C609 1.304 . S
C1751 C606 0.581 . S
C1756 C326 0.582 . S
C1781 C49 1.561 . S
C1786 C369 1.561 . S
C1811 C330 1.548 . S
C1816 C246 1.486 . S
C1841 C338 1.304 . S
C1846 C410 1.335 . S
C1871 C618 1.304 . S
C1876 C250 1.335 . S
C1901 C535 0.582 . S
C1906 C615 0.582 . S
C1931 C458 1.560 . S
C1936 C138 1.560 . S
C1961 C415 1.486 . S
C1966 C579 1.549 . S
C1991 C406 1.486 . S
C1996 C610 1.548 . S
C2021 C166 1.486 . S
C2026 C570 1.548 . S
C2051 C619 1.549 . S
C2056 C175 1.486 . S
