# Generated by pormake.
# Topology soe, (5)-cn, num edge types: 1
# Building blocks:
#     Node 0, Type 0, BuildingBlock: BEQFEK_clean_sbu_0, # of connection points: 5
#     Node 1, Type 0, BuildingBlock: BEQFEK_clean_sbu_0, # of connection points: 5
#     Node 2, Type 0, BuildingBlock: BEQFEK_clean_sbu_0, # of connection points: 5
#     Node 3, Type 0, BuildingBlock: BEQFEK_clean_sbu_0, # of connection points: 5
#     Node 4, Type 0, BuildingBlock: BEQFEK_clean_sbu_0, # of connection points: 5
#     Node 5, Type 0, BuildingBlock: BEQFEK_clean_sbu_0, # of connection points: 5
#     Node 6, Type 0, BuildingBlock: BEQFEK_clean_sbu_0, # of connection points: 5
#     Node 7, Type 0, BuildingBlock: BEQFEK_clean_sbu_0, # of connection points: 5
#     Edge 8, Type (0, 0), BuildingBlock: AJUNOK_clean_linker_0, # of connection points: 2
#     Edge 9, Type (0, 0), BuildingBlock: AJUNOK_clean_linker_0, # of connection points: 2
#     Edge 10, Type (0, 0), BuildingBlock: AJUNOK_clean_linker_0, # of connection points: 2
#     Edge 11, Type (0, 0), BuildingBlock: AJUNOK_clean_linker_0, # of connection points: 2
#     Edge 12, Type (0, 0), BuildingBlock: AJUNOK_clean_linker_0, # of connection points: 2
#     Edge 13, Type (0, 0), BuildingBlock: AJUNOK_clean_linker_0, # of connection points: 2
#     Edge 14, Type (0, 0), BuildingBlock: AJUNOK_clean_linker_0, # of connection points: 2
#     Edge 15, Type (0, 0), BuildingBlock: AJUNOK_clean_linker_0, # of connection points: 2
#     Edge 16, Type (0, 0), BuildingBlock: AJUNOK_clean_linker_0, # of connection points: 2
#     Edge 17, Type (0, 0), BuildingBlock: AJUNOK_clean_linker_0, # of connection points: 2
#     Edge 18, Type (0, 0), BuildingBlock: AJUNOK_clean_linker_0, # of connection points: 2
#     Edge 19, Type (0, 0), BuildingBlock: AJUNOK_clean_linker_0, # of connection points: 2
#     Edge 20, Type (0, 0), BuildingBlock: AJUNOK_clean_linker_0, # of connection points: 2
#     Edge 21, Type (0, 0), BuildingBlock: AJUNOK_clean_linker_0, # of connection points: 2
#     Edge 22, Type (0, 0), BuildingBlock: AJUNOK_clean_linker_0, # of connection points: 2
#     Edge 23, Type (0, 0), BuildingBlock: AJUNOK_clean_linker_0, # of connection points: 2
#     Edge 24, Type (0, 0), BuildingBlock: AJUNOK_clean_linker_0, # of connection points: 2
#     Edge 25, Type (0, 0), BuildingBlock: AJUNOK_clean_linker_0, # of connection points: 2
#     Edge 26, Type (0, 0), BuildingBlock: AJUNOK_clean_linker_0, # of connection points: 2
#     Edge 27, Type (0, 0), BuildingBlock: AJUNOK_clean_linker_0, # of connection points: 2
# Relax obj value: 0.168
# Max RMSD: 0.236
# Mean RMSD: 0.178
data_MOF--net-soe--node1-BEQFEK_clean_sbu_0--edge1-AJUNOK_clean_linker_0
_symmetry_space_group_name_H-M    P1
_symmetry_Int_Tables_number       1
_symmetry_cell_setting            triclinic
loop_
_symmetry_equiv_pos_as_xyz
'x, y, z'
_cell_length_a     43.576457
_cell_length_b     29.555842
_cell_length_c     15.108471
_cell_angle_alpha  89.638099
_cell_angle_beta   90.431765
_cell_angle_gamma 92.890661
loop_
_atom_site_label
_atom_site_type_symbol
_atom_site_fract_x
_atom_site_fract_y
_atom_site_fract_z
_atom_type_partial_charge
Co0 Co 0.13196 0.02106 0.19883 0.0
Co1 Co 0.13948 0.05613 0.00536 0.0
C2 C 0.18637 -0.00178 0.0917 0.0
O3 O 0.17046 0.99368 0.16183 0.0
O4 O 0.17711 0.02152 0.02649 0.0
C5 C 0.14498 0.00929 0.37407 0.0
O6 O 0.17243 0.01788 0.3407 0.0
C7 C 0.14367 0.04386 0.81516 0.0
C8 C 0.12666 0.10786 0.76216 0.0
C9 C 0.13644 0.06591 0.73745 0.0
N10 N 0.13806 0.07118 0.88318 0.0
N11 N 0.12831 0.10968 0.85115 0.0
C12 C 0.1518 0.99549 0.825 0.0
H13 H 0.14756 0.98313 0.8935 0.0
H14 H 0.1382 0.97387 0.77762 0.0
H15 H 0.17641 0.99272 0.8091 0.0
C16 C 0.0695 0.99374 0.13181 0.0
N17 N 0.09871 0.00961 0.11952 0.0
N18 N 0.10213 0.02299 0.03682 0.0
C19 C 0.07526 0.01495 0.99312 0.0
C20 C 0.05357 0.9964 0.05183 0.0
C21 C 0.05652 0.98162 0.22079 0.0
H22 H 0.06441 0.00761 0.26967 0.0
H23 H 0.06529 0.94874 0.24268 0.0
H24 H 0.03103 0.97918 0.21952 0.0
O25 O 0.13969 0.08645 0.20988 0.0
O26 O 0.14343 0.11388 0.07369 0.0
H27 H 0.07306 0.06147 0.88437 0.0
H28 H 0.04768 0.01152 0.87247 0.0
C29 C 0.0705 0.02446 0.89664 0.0
H30 H 0.08804 0.00759 0.85808 0.0
H31 H 0.12177 0.13653 0.89014 0.0
O32 O 0.12225 0.00344 0.32154 0.0
C33 C 0.14346 0.11981 0.1572 0.0
Co34 Co 0.36607 0.91766 0.20838 0.0
Co35 Co 0.35963 0.87801 0.01721 0.0
C36 C 0.31066 0.93343 0.09898 0.0
O37 O 0.32639 0.94065 0.16914 0.0
O38 O 0.32078 0.90986 0.03633 0.0
C39 C 0.35097 0.9213 0.37945 0.0
O40 O 0.32624 0.90552 0.33736 0.0
C41 C 0.35929 0.89373 0.82679 0.0
C42 C 0.36148 0.82477 0.77256 0.0
C43 C 0.36033 0.86995 0.74859 0.0
N44 N 0.36039 0.86414 0.89448 0.0
N45 N 0.36175 0.82293 0.86172 0.0
C46 C 0.35582 0.94349 0.837 0.0
H47 H 0.35685 0.95322 0.90782 0.0
H48 H 0.37421 0.96263 0.80008 0.0
H49 H 0.33348 0.95263 0.80794 0.0
C50 C 0.4263 0.95295 0.1368 0.0
N51 N 0.39819 0.93227 0.1275 0.0
N52 N 0.39578 0.91419 0.0481 0.0
C53 C 0.42253 0.92212 0.00502 0.0
C54 C 0.44269 0.94726 0.05919 0.0
C55 C 0.43734 0.97602 0.21975 0.0
H56 H 0.41851 0.99499 0.24858 0.0
H57 H 0.45759 -0.00064 0.2068 0.0
H58 H 0.44376 0.95002 0.26889 0.0
O59 O 0.36202 0.85145 0.21988 0.0
O60 O 0.35855 0.82049 0.0872 0.0
H61 H 0.45554 0.89851 0.91155 0.0
H62 H 0.42175 0.92135 0.86357 0.0
C63 C 0.43034 0.90066 0.91903 0.0
H64 H 0.41951 0.86601 0.91503 0.0
H65 H 0.36261 0.79355 0.90016 0.0
O66 O 0.37401 0.93523 0.33355 0.0
C67 C 0.35951 0.81663 0.17125 0.0
Co68 Co 0.14316 0.39881 0.28264 0.0
Co69 Co 0.15029 0.35867 0.47431 0.0
C70 C 0.19848 0.42258 0.39146 0.0
O71 O 0.18267 0.42763 0.32136 0.0
O72 O 0.18875 0.39677 0.45407 0.0
C73 C 0.15825 0.40464 0.11141 0.0
O74 O 0.18294 0.39278 0.15436 0.0
C75 C 0.15166 0.3746 0.66457 0.0
C76 C 0.14778 0.30547 0.72097 0.0
C77 C 0.14995 0.35087 0.74355 0.0
N78 N 0.1499 0.34474 0.59773 0.0
N79 N 0.1476 0.30341 0.63185 0.0
C80 C 0.15588 0.42481 0.65295 0.0
H81 H 0.17855 0.43647 0.68066 0.0
H82 H 0.15457 0.43445 0.58198 0.0
H83 H 0.13804 0.44195 0.6904 0.0
C84 C 0.08509 0.43027 0.36122 0.0
N85 N 0.11179 0.40916 0.36539 0.0
N86 N 0.11441 0.39024 0.44419 0.0
C87 C 0.08906 0.3976 0.49141 0.0
C88 C 0.07004 0.42405 0.44152 0.0
C89 C 0.07425 0.45545 0.28178 0.0
H90 H 0.09416 0.46901 0.24268 0.0
H91 H 0.05974 0.48341 0.30173 0.0
H92 H 0.06021 0.43175 0.23939 0.0
O93 O 0.14718 0.33322 0.27212 0.0
O94 O 0.15128 0.30177 0.40443 0.0
H95 H 0.09041 0.34091 0.58113 0.0
H96 H 0.05582 0.37171 0.58693 0.0
C97 C 0.0811 0.37507 0.57795 0.0
H98 H 0.09091 0.39585 0.63297 0.0
H99 H 0.14597 0.27384 0.59436 0.0
O100 O 0.13512 0.41522 0.15666 0.0
C101 C 0.15 0.29843 0.32039 0.0
Co102 Co 0.37603 0.53973 0.29587 0.0
Co103 Co 0.3677 0.57508 0.48782 0.0
C104 C 0.32088 0.51087 0.39999 0.0
O105 O 0.33694 0.50852 0.33039 0.0
O106 O 0.33001 0.53531 0.46515 0.0
C107 C 0.36436 0.52254 0.11968 0.0
O108 O 0.33637 0.52359 0.15087 0.0
C109 C 0.36482 0.55922 0.6771 0.0
C110 C 0.37745 0.6267 0.73238 0.0
C111 C 0.37077 0.58186 0.75564 0.0
N112 N 0.36824 0.58908 0.61017 0.0
N113 N 0.37538 0.62952 0.64352 0.0
C114 C 0.35939 0.50924 0.66503 0.0
H115 H 0.36429 0.49944 0.59598 0.0
H116 H 0.37397 0.49049 0.71175 0.0
H117 H 0.33505 0.49967 0.67989 0.0
C118 C 0.43434 0.50928 0.37399 0.0
N119 N 0.40739 0.52944 0.37944 0.0
N120 N 0.40448 0.54587 0.45953 0.0
C121 C 0.42998 0.53764 0.50699 0.0
C122 C 0.44957 0.5138 0.45488 0.0
C123 C 0.44457 0.48515 0.29351 0.0
H124 H 0.45392 0.5105 0.24497 0.0
H125 H 0.42462 0.46659 0.26207 0.0
H126 H 0.46258 0.46119 0.3102 0.0
O127 O 0.36996 0.60507 0.28395 0.0
O128 O 0.365 0.63214 0.41889 0.0
H129 H 0.42852 0.59013 0.60419 0.0
H130 H 0.46202 0.55713 0.61172 0.0
C131 C 0.43696 0.55562 0.59778 0.0
H132 H 0.4255 0.53303 0.64763 0.0
H133 H 0.37991 0.65867 0.60552 0.0
O134 O 0.38685 0.52371 0.17384 0.0
C135 C 0.36603 0.63807 0.3354 0.0
Co136 Co 0.86816 0.89358 0.01529 0.0
Co137 Co 0.88024 0.92746 0.8203 0.0
C138 C 0.82568 0.95561 0.92419 0.0
O139 O 0.83407 0.93387 0.99228 0.0
O140 O 0.84141 0.95608 0.8534 0.0
C141 C 0.8429 0.88166 0.18915 0.0
O142 O 0.81863 0.89868 0.15241 0.0
C143 C 0.86404 0.92395 0.63206 0.0
C144 C 0.90831 0.94312 0.56839 0.0
C145 C 0.87835 0.92773 0.55021 0.0
N146 N 0.88478 0.93589 0.69528 0.0
N147 N 0.91101 0.94823 0.65664 0.0
C148 C 0.8326 0.90368 0.65152 0.0
H149 H 0.83183 0.88879 0.71908 0.0
H150 H 0.82563 0.87743 0.60208 0.0
H151 H 0.8159 0.93076 0.64878 0.0
C152 C 0.86493 0.80373 0.92347 0.0
N153 N 0.86877 0.84929 0.92498 0.0
N154 N 0.87663 0.86395 0.84527 0.0
C155 C 0.8794 0.82811 0.79194 0.0
C156 C 0.87104 0.78904 0.83844 0.0
C157 C 0.85586 0.77519 0.00189 0.0
H158 H 0.87689 0.76663 0.03895 0.0
H159 H 0.84118 0.79425 0.04667 0.0
H160 H 0.84358 0.74319 0.98082 0.0
O161 O 0.90899 0.92603 0.0166 0.0
O162 O 0.91757 0.95407 0.88189 0.0
H163 H 0.91168 0.8586 0.69947 0.0
H164 H 0.90569 0.79819 0.68886 0.0
C165 C 0.89424 0.83009 0.70269 0.0
H166 H 0.87661 0.83436 0.6506 0.0
H167 H 0.93119 0.95777 0.69079 0.0
O168 O 0.86462 0.87018 0.13938 0.0
C169 C 0.92606 0.94808 0.96183 0.0
Co170 Co 0.6439 0.02978 0.81391 0.0
Co171 Co 0.65095 0.07069 0.00426 0.0
C172 C 0.70107 0.01876 0.91826 0.0
O173 O 0.68484 0.0097 0.84966 0.0
O174 O 0.69066 0.04191 0.98116 0.0
C175 C 0.65633 0.01659 0.63725 0.0
O176 O 0.68409 0.02455 0.66982 0.0
C177 C 0.65481 0.05503 0.19403 0.0
C178 C 0.64082 0.11959 0.25015 0.0
C179 C 0.64851 0.07606 0.27302 0.0
N180 N 0.65058 0.08443 0.12739 0.0
N181 N 0.64266 0.12323 0.16136 0.0
C182 C 0.6614 0.00633 0.18107 0.0
H183 H 0.6566 0.99598 0.11166 0.0
H184 H 0.64743 0.98446 0.22707 0.0
H185 H 0.68599 0.00161 0.19603 0.0
C186 C 0.58541 0.99109 0.89099 0.0
N187 N 0.61306 0.01348 0.89779 0.0
N188 N 0.61578 0.03172 0.97695 0.0
C189 C 0.58976 0.02193 0.02256 0.0
C190 C 0.5698 0.99537 0.97026 0.0
C191 C 0.5736 0.9686 0.8083 0.0
H192 H 0.59261 0.95254 0.77389 0.0
H193 H 0.5549 0.94284 0.82322 0.0
H194 H 0.56448 0.99463 0.76332 0.0
O195 O 0.64612 0.09578 0.80117 0.0
O196 O 0.64931 0.12759 0.93324 0.0
H197 H 0.55695 0.0415 0.12087 0.0
H198 H 0.59353 0.02563 0.16356 0.0
C199 C 0.58205 0.04338 0.10866 0.0
H200 H 0.59017 0.07948 0.10836 0.0
H201 H 0.63737 0.15158 0.12378 0.0
O202 O 0.63391 0.01148 0.69049 0.0
C203 C 0.64771 0.13089 0.84914 0.0
Co204 Co 0.88103 0.51278 0.72021 0.0
Co205 Co 0.87218 0.54953 0.52552 0.0
C206 C 0.82298 0.49277 0.61877 0.0
O207 O 0.83949 0.48829 0.68775 0.0
O208 O 0.83306 0.51466 0.55138 0.0
C209 C 0.87054 0.48214 0.89637 0.0
O210 O 0.84407 0.46811 0.86185 0.0
C211 C 0.86702 0.5297 0.33825 0.0
C212 C 0.88003 0.59511 0.27397 0.0
C213 C 0.8722 0.54997 0.25631 0.0
N214 N 0.8717 0.56127 0.4012 0.0
N215 N 0.87906 0.60049 0.36243 0.0
C216 C 0.86111 0.48032 0.35798 0.0
H217 H 0.87126 0.47155 0.42303 0.0
H218 H 0.87062 0.45913 0.30541 0.0
H219 H 0.83596 0.47281 0.36188 0.0
C220 C 0.93713 0.47782 0.6393 0.0
N221 N 0.91058 0.49922 0.63451 0.0
N222 N 0.90761 0.5167 0.55467 0.0
C223 C 0.93264 0.50799 0.50697 0.0
C224 C 0.95198 0.48263 0.55831 0.0
C225 C 0.94776 0.4535 0.7201 0.0
H226 H 0.95792 0.47864 0.76759 0.0
H227 H 0.92786 0.43564 0.75281 0.0
H228 H 0.96525 0.42895 0.70337 0.0
O229 O 0.87889 0.57872 0.72874 0.0
O230 O 0.87236 0.60699 0.59375 0.0
H231 H 0.9317 0.56288 0.41339 0.0
H232 H 0.96496 0.52962 0.40514 0.0
C233 C 0.93989 0.52808 0.41781 0.0
H234 H 0.92839 0.50688 0.36587 0.0
H235 H 0.88457 0.63046 0.39645 0.0
O236 O 0.89184 0.49638 0.84452 0.0
C237 C 0.87522 0.61217 0.67723 0.0
Co238 Co 0.63762 0.40889 0.72535 0.0
Co239 Co 0.64351 0.3728 0.53302 0.0
C240 C 0.69433 0.42913 0.62065 0.0
O241 O 0.67817 0.43426 0.68911 0.0
O242 O 0.68377 0.40621 0.55511 0.0
C243 C 0.65315 0.41244 0.89565 0.0
O244 O 0.67649 0.39638 0.85359 0.0
C245 C 0.64638 0.38792 0.34329 0.0
C246 C 0.6364 0.31934 0.28953 0.0
C247 C 0.64255 0.36412 0.2654 0.0
N248 N 0.64207 0.35874 0.411 0.0
N249 N 0.63614 0.31775 0.37862 0.0
C250 C 0.65518 0.43718 0.35361 0.0
H251 H 0.68017 0.44265 0.34133 0.0
H252 H 0.65018 0.44859 0.42161 0.0
H253 H 0.64279 0.45763 0.3044 0.0
C254 C 0.58137 0.44754 0.64783 0.0
N255 N 0.607 0.42406 0.64267 0.0
N256 N 0.6091 0.40749 0.56232 0.0
C257 C 0.58441 0.41904 0.51451 0.0
C258 C 0.56637 0.44551 0.56634 0.0
C259 C 0.57155 0.47116 0.7293 0.0
H260 H 0.55799 0.44667 0.77127 0.0
H261 H 0.59198 0.48369 0.76788 0.0
H262 H 0.55699 0.49974 0.71208 0.0
O263 O 0.63914 0.34255 0.73547 0.0
O264 O 0.64268 0.31511 0.60053 0.0
H265 H 0.58282 0.36536 0.41904 0.0
H266 H 0.55115 0.4021 0.41132 0.0
C267 C 0.57618 0.40091 0.42457 0.0
H268 H 0.58849 0.42178 0.37363 0.0
H269 H 0.63193 0.28875 0.41729 0.0
O270 O 0.63071 0.42608 0.8499 0.0
C271 C 0.6412 0.30915 0.68387 0.0
C272 C 0.26279 0.9566 0.17237 0.0
C273 C 0.27907 0.94992 0.09381 0.0
C274 C 0.23262 0.97082 0.17054 0.0
C275 C 0.21752 0.97981 0.09008 0.0
H276 H 0.27331 0.9503 0.23619 0.0
H277 H 0.22132 0.9757 0.23312 0.0
S278 S 0.25003 0.96768 0.86538 0.0
N279 N 0.27777 0.95287 0.933 0.0
N280 N 0.22128 0.98073 0.92949 0.0
C281 C 0.23354 0.97331 0.01087 0.0
C282 C 0.26419 0.95805 0.01273 0.0
C283 C 0.24549 0.45608 0.31867 0.0
C284 C 0.22955 0.44511 0.39713 0.0
C285 C 0.27516 0.4764 0.3208 0.0
C286 C 0.29001 0.48737 0.40146 0.0
H287 H 0.23514 0.44843 0.25472 0.0
H288 H 0.28629 0.48423 0.25831 0.0
S289 S 0.25816 0.46603 0.62595 0.0
N290 N 0.23081 0.44642 0.55806 0.0
N291 N 0.28645 0.4857 0.56209 0.0
C292 C 0.27431 0.47681 0.4806 0.0
C293 C 0.24416 0.45535 0.47844 0.0
C294 C 0.74799 0.99209 0.84375 0.0
C295 C 0.73323 0.00413 0.92222 0.0
C296 C 0.77836 0.97853 0.84463 0.0
C297 C 0.79517 0.9758 0.92419 0.0
H298 H 0.73604 0.99312 0.78071 0.0
H299 H 0.78837 0.96872 0.78265 0.0
S300 S 0.76783 0.00537 0.14771 0.0
N301 N 0.73833 0.01397 0.08157 0.0
N302 N 0.79526 0.98801 0.08325 0.0
C303 C 0.78096 0.9885 0.00302 0.0
C304 C 0.75008 0.00279 0.00203 0.0
C305 C 0.77523 0.46227 0.54169 0.0
C306 C 0.79041 0.47608 0.62019 0.0
C307 C 0.74407 0.44761 0.542 0.0
C308 C 0.72681 0.44706 0.62056 0.0
H309 H 0.78759 0.46233 0.47973 0.0
H310 H 0.73347 0.43664 0.48015 0.0
S311 S 0.75563 0.48312 0.84294 0.0
N312 N 0.78564 0.49039 0.7776 0.0
N313 N 0.72737 0.46326 0.77869 0.0
C314 C 0.74171 0.46182 0.69919 0.0
C315 C 0.77343 0.47616 0.69889 0.0
C316 C 0.97144 0.00388 0.96623 0.0
C317 C 0.95789 0.96134 0.98922 0.0
C318 C 1.0021 0.0156 0.98947 0.0
C319 C 0.02055 0.98463 0.03365 0.0
H320 H 0.95822 0.02827 0.93063 0.0
H321 H 0.01158 0.04899 0.97173 0.0
S322 S 0.99627 0.86801 0.10404 0.0
N323 N 0.96519 0.88808 0.05828 0.0
N324 N 0.02317 0.90922 0.09696 0.0
C325 C 0.00723 0.94199 0.05655 0.0
C326 C 0.97586 0.93052 0.03526 0.0
C327 C 0.48264 0.98423 0.96116 0.0
C328 C 0.47526 0.96018 0.0395 0.0
C329 C 0.51332 0.99454 0.93768 0.0
C330 C 0.53763 0.98099 0.99169 0.0
H331 H 0.46451 0.99522 0.91781 0.0
H332 H 0.51803 0.01397 0.87785 0.0
S333 S 0.53066 0.9144 0.19991 0.0
N334 N 0.49478 0.92095 0.16825 0.0
N335 N 0.55243 0.94071 0.12464 0.0
C336 C 0.53056 0.95637 0.06939 0.0
C337 C 0.49937 0.9459 0.09327 0.0
C338 C 0.01339 0.43018 0.42139 0.0
C339 C 0.04033 0.44088 0.46991 0.0
C340 C 0.98477 0.44295 0.45181 0.0
C341 C 0.98223 0.46693 0.53147 0.0
H342 H 0.01438 0.41108 0.36061 0.0
H343 H 0.96443 0.43399 0.4128 0.0
S344 S 0.04642 0.50592 0.6789 0.0
N345 N 0.06306 0.47845 0.59897 0.0
N346 N 0.0093 0.50297 0.65543 0.0
C347 C 0.0091 0.47839 0.57973 0.0
C348 C 0.03817 0.46529 0.54896 0.0
C349 C 0.48195 0.47075 0.55961 0.0
C350 C 0.47965 0.49688 0.48186 0.0
C351 C 0.51027 0.45518 0.58817 0.0
C352 C 0.53715 0.46521 0.53973 0.0
H353 H 0.46163 0.46192 0.59816 0.0
H354 H 0.51101 0.43431 0.64728 0.0
S355 S 0.54384 0.53543 0.3359 0.0
N356 N 0.5069 0.53431 0.36002 0.0
N357 N 0.56012 0.50483 0.41331 0.0
C358 C 0.53526 0.49204 0.46293 0.0
C359 C 0.50647 0.50788 0.43394 0.0
C360 C 0.16346 0.02812 0.61589 0.0
C361 C 0.13696 0.04776 0.64698 0.0
C362 C 0.16519 0.01337 0.52833 0.0
C363 C 0.14032 0.01715 0.46929 0.0
H364 H 0.18345 0.02582 0.6584 0.0
H365 H 0.18653 0.00015 0.50597 0.0
S366 S 0.06486 0.06319 0.52141 0.0
N367 N 0.08478 0.0682 0.61455 0.0
N368 N 0.08772 0.03993 0.4499 0.0
C369 C 0.11313 0.03489 0.50101 0.0
C370 C 0.11159 0.05054 0.58986 0.0
C371 C 0.32889 0.88944 0.5195 0.0
C372 C 0.35312 0.91409 0.47659 0.0
C373 C 0.33133 0.87603 0.60802 0.0
C374 C 0.35775 0.88754 0.65775 0.0
H375 H 0.30817 0.87877 0.48377 0.0
H376 H 0.31254 0.85592 0.63749 0.0
S377 S 0.427 0.95373 0.58078 0.0
N378 N 0.4041 0.9509 0.49307 0.0
N379 N 0.4082 0.92623 0.66084 0.0
C380 C 0.38169 0.91361 0.61777 0.0
C381 C 0.37947 0.92684 0.52683 0.0
C382 C 0.17835 0.36097 0.88509 0.0
C383 C 0.15226 0.369 0.83397 0.0
C384 C 0.18052 0.37498 0.9732 0.0
C385 C 0.15634 0.39671 0.01443 0.0
H386 H 0.19708 0.34315 0.85703 0.0
H387 H 0.201 0.36702 0.01 0.0
S388 S 0.08337 0.42692 0.906 0.0
N389 N 0.10223 0.40146 0.8277 0.0
N390 N 0.10581 0.42713 0.99471 0.0
C391 C 0.13034 0.40597 0.96278 0.0
C392 C 0.1284 0.39219 0.8722 0.0
C393 C 0.34531 0.5197 0.96406 0.0
C394 C 0.36923 0.53108 0.02425 0.0
C395 C 0.34648 0.53491 0.87615 0.0
C396 C 0.3714 0.56256 0.84578 0.0
H397 H 0.325 0.50021 0.98586 0.0
H398 H 0.32707 0.52673 0.83295 0.0
S399 S 0.44084 0.59956 0.97426 0.0
N400 N 0.4195 0.56949 0.04534 0.0
N401 N 0.42134 0.59854 0.88009 0.0
C402 C 0.39598 0.57282 0.90397 0.0
C403 C 0.39506 0.55678 0.99318 0.0
C404 C 0.87659 0.87379 0.32304 0.0
C405 C 0.8487 0.88723 0.28593 0.0
C406 C 0.88549 0.88616 0.40928 0.0
C407 C 0.8668 0.91212 0.46242 0.0
H408 H 0.89234 0.85503 0.28409 0.0
H409 H 0.90751 0.87595 0.43405 0.0
S410 S 0.79101 0.95461 0.39943 0.0
N411 N 0.80169 0.9264 0.31184 0.0
N412 N 0.81892 0.95022 0.47298 0.0
C413 C 0.83836 0.92436 0.42793 0.0
C414 C 0.82917 0.91167 0.34006 0.0
C415 C 0.6752 0.01785 0.48194 0.0
C416 C 0.65122 0.02459 0.54162 0.0
C417 C 0.67366 0.03308 0.39404 0.0
C418 C 0.64833 0.05631 0.36315 0.0
H419 H 0.69581 0.00202 0.50416 0.0
H420 H 0.6931 0.02852 0.35132 0.0
S421 S 0.57882 0.08074 0.49073 0.0
N422 N 0.60062 0.05411 0.56189 0.0
N423 N 0.59809 0.08344 0.39698 0.0
C424 C 0.62377 0.06204 0.42102 0.0
C425 C 0.62506 0.04582 0.51012 0.0
C426 C 0.89734 0.53786 0.1111 0.0
C427 C 0.87248 0.5284 0.16816 0.0
C428 C 0.89751 0.52017 0.02518 0.0
C429 C 0.87258 0.49279 0.99247 0.0
H430 H 0.91667 0.55964 0.13268 0.0
H431 H 0.9168 0.52967 0.98303 0.0
S432 S 0.80205 0.45748 0.11722 0.0
N433 N 0.82251 0.48963 0.18704 0.0
N434 N 0.8228 0.45566 0.02647 0.0
C435 C 0.848 0.48189 0.05035 0.0
C436 C 0.84791 0.49995 0.13785 0.0
C437 C 0.6707 0.36754 0.12418 0.0
C438 C 0.64607 0.38124 0.17454 0.0
C439 C 0.67347 0.38007 0.03525 0.0
C440 C 0.6513 0.40601 0.99279 0.0
H441 H 0.68771 0.34636 0.15344 0.0
H442 H 0.69266 0.36773 0.99896 0.0
S443 S 0.58296 0.45176 0.09896 0.0
N444 N 0.59976 0.42345 0.17889 0.0
N445 N 0.60449 0.44665 0.01033 0.0
C446 C 0.62692 0.42103 0.04369 0.0
C447 C 0.6244 0.40865 0.13499 0.0
C448 C 0.14752 0.17092 0.28874 0.0
C449 C 0.147 0.16594 0.19584 0.0
C450 C 0.14921 0.21368 0.32831 0.0
C451 C 0.15042 0.25346 0.27687 0.0
H452 H 0.14619 0.14149 0.33193 0.0
H453 H 0.14897 0.21541 0.3999 0.0
S454 S 0.15148 0.25943 0.03052 0.0
N455 N 0.1491 0.20472 0.05343 0.0
N456 N 0.1524 0.28512 0.1272 0.0
C457 C 0.15075 0.24908 0.18369 0.0
C458 C 0.14902 0.2054 0.1434 0.0
C459 C 0.36226 0.73221 0.16327 0.0
C460 C 0.35921 0.77125 0.21441 0.0
C461 C 0.36413 0.68949 0.20309 0.0
C462 C 0.36297 0.68385 0.29587 0.0
H463 H 0.3638 0.73463 0.09185 0.0
H464 H 0.36685 0.6607 0.16031 0.0
S465 S 0.35345 0.77499 0.46006 0.0
N466 N 0.35381 0.80122 0.36335 0.0
N467 N 0.35744 0.72106 0.43764 0.0
C468 C 0.35924 0.72247 0.34784 0.0
C469 C 0.35732 0.76605 0.30732 0.0
C470 C 0.88648 0.70878 0.84041 0.0
C471 C 0.8694 0.74278 0.80188 0.0
C472 C 0.88831 0.66666 0.79915 0.0
C473 C 0.87339 0.65738 0.71756 0.0
H474 H 0.89925 0.71524 0.90121 0.0
H475 H 0.90201 0.64146 0.83067 0.0
S476 S 0.82304 0.734 0.59524 0.0
N477 N 0.83509 0.76346 0.68242 0.0
N478 N 0.8392 0.68478 0.60349 0.0
C479 C 0.85558 0.69084 0.67979 0.0
C480 C 0.85337 0.73339 0.72246 0.0
C481 C 0.64514 0.2153 0.85621 0.0
C482 C 0.64669 0.17592 0.80517 0.0
C483 C 0.6432 0.25793 0.8162 0.0
C484 C 0.64277 0.26314 0.72329 0.0
H485 H 0.64521 0.21331 0.92783 0.0
H486 H 0.64209 0.28707 0.859 0.0
S487 S 0.64684 0.1708 0.55885 0.0
N488 N 0.64808 0.14497 0.65583 0.0
N489 N 0.64436 0.22504 0.58123 0.0
C490 C 0.64448 0.22409 0.67124 0.0
C491 C 0.64646 0.18058 0.71195 0.0
loop_
_geom_bond_atom_site_label_1
_geom_bond_atom_site_label_2
_geom_bond_distance
_geom_bond_site_symmetry_2
_ccdc_geom_bond_type
Co0 O3 1.970 . S
Co0 N17 1.989 . S
Co0 O25 1.967 . S
Co0 O32 1.920 . S
Co1 O4 1.966 . S
Co1 N10 2.022 1_554 S
Co1 N18 1.993 . S
Co1 O26 1.941 . S
C2 O3 1.258 . S
C2 O4 1.263 . S
O3 Co0 1.970 . S
O3 C2 1.258 . S
O4 Co1 1.966 . S
O4 C2 1.263 . S
C5 O6 1.235 . S
C5 O32 1.289 1_565 S
O6 C5 1.235 . S
C7 C9 1.400 . S
C7 N10 1.351 . S
C7 C12 1.501 . S
C8 C9 1.387 . S
C8 N11 1.341 . S
C9 C7 1.400 . S
C9 C8 1.387 . S
N10 Co1 2.022 1_556 S
N10 C7 1.351 . S
N10 N11 1.365 . S
N11 C8 1.341 . S
N11 N10 1.365 . S
N11 H31 0.862 . S
C12 C7 1.501 . S
C12 H13 0.961 . S
C12 H14 0.961 1_545 S
C12 H15 0.960 . S
H13 C12 0.961 . S
H14 C12 0.961 1_565 S
H15 C12 0.960 . S
C16 N17 1.342 1_565 S
C16 C20 1.401 . S
C16 C21 1.499 . S
N17 Co0 1.989 . S
N17 C16 1.342 1_545 S
N17 N18 1.388 . S
N18 Co1 1.993 . S
N18 N17 1.388 . S
N18 C19 1.346 1_545 S
C19 N18 1.346 1_565 S
C19 C20 1.396 . S
C19 C29 1.510 1_554 S
C20 C16 1.401 . S
C20 C19 1.396 . S
C21 C16 1.499 . S
C21 H22 0.959 . S
C21 H23 0.960 . S
C21 H24 0.961 . S
H22 C21 0.959 . S
H23 C21 0.960 . S
H24 C21 0.961 . S
O25 Co0 1.967 . S
O25 C33 1.258 . S
O26 Co1 1.941 . S
O26 C33 1.266 . S
H27 C29 0.959 1_545 S
H28 C29 0.961 . S
C29 C19 1.510 1_556 S
C29 H27 0.959 1_565 S
C29 H28 0.961 . S
C29 H30 0.960 1_565 S
H30 C29 0.960 1_545 S
H31 N11 0.862 . S
O32 Co0 1.920 . S
O32 C5 1.289 1_545 S
C33 O25 1.258 . S
C33 O26 1.266 . S
Co34 O37 1.970 . S
Co34 N51 1.989 . S
Co34 O59 1.967 . S
Co34 O66 1.920 . S
Co35 O38 1.966 . S
Co35 N44 2.022 1_554 S
Co35 N52 1.993 . S
Co35 O60 1.941 . S
C36 O37 1.258 . S
C36 O38 1.263 . S
O37 Co34 1.970 . S
O37 C36 1.258 . S
O38 Co35 1.966 . S
O38 C36 1.263 . S
C39 O40 1.235 1_565 S
C39 O66 1.289 . S
O40 C39 1.235 1_545 S
C41 C43 1.400 . S
C41 N44 1.351 . S
C41 C46 1.501 . S
C42 C43 1.387 . S
C42 N45 1.341 . S
C43 C41 1.400 . S
C43 C42 1.387 . S
N44 Co35 2.022 1_556 S
N44 C41 1.351 . S
N44 N45 1.365 . S
N45 C42 1.341 . S
N45 N44 1.365 . S
N45 H65 0.862 . S
C46 C41 1.501 . S
C46 H47 0.961 . S
C46 H48 0.961 . S
C46 H49 0.960 . S
H47 C46 0.961 . S
H48 C46 0.961 . S
H49 C46 0.960 . S
C50 N51 1.342 . S
C50 C54 1.401 . S
C50 C55 1.499 . S
N51 Co34 1.989 . S
N51 C50 1.342 . S
N51 N52 1.388 . S
N52 Co35 1.993 . S
N52 N51 1.388 . S
N52 C53 1.346 . S
C53 N52 1.346 . S
C53 C54 1.396 . S
C53 C63 1.510 1_554 S
C54 C50 1.401 . S
C54 C53 1.396 . S
C55 C50 1.499 . S
C55 H56 0.959 . S
C55 H57 0.960 1_565 S
C55 H58 0.961 . S
H56 C55 0.959 . S
H57 C55 0.960 1_545 S
H58 C55 0.961 . S
O59 Co34 1.967 . S
O59 C67 1.258 . S
O60 Co35 1.941 . S
O60 C67 1.266 . S
H61 C63 0.959 . S
H62 C63 0.961 . S
C63 C53 1.510 1_556 S
C63 H61 0.959 . S
C63 H62 0.961 . S
C63 H64 0.960 . S
H64 C63 0.960 . S
H65 N45 0.862 . S
O66 Co34 1.920 . S
O66 C39 1.289 . S
C67 O59 1.258 . S
C67 O60 1.266 . S
Co68 O71 1.970 . S
Co68 N85 1.989 . S
Co68 O93 1.967 . S
Co68 O100 1.920 . S
Co69 O72 1.966 . S
Co69 N78 2.022 . S
Co69 N86 1.993 . S
Co69 O94 1.941 . S
C70 O71 1.258 . S
C70 O72 1.263 . S
O71 Co68 1.970 . S
O71 C70 1.258 . S
O72 Co69 1.966 . S
O72 C70 1.263 . S
C73 O74 1.235 . S
C73 O100 1.289 . S
O74 C73 1.235 . S
C75 C77 1.400 . S
C75 N78 1.351 . S
C75 C80 1.501 . S
C76 C77 1.387 . S
C76 N79 1.341 . S
C77 C75 1.400 . S
C77 C76 1.387 . S
N78 Co69 2.022 . S
N78 C75 1.351 . S
N78 N79 1.365 . S
N79 C76 1.341 . S
N79 N78 1.365 . S
N79 H99 0.862 . S
C80 C75 1.501 . S
C80 H81 0.961 . S
C80 H82 0.961 . S
C80 H83 0.960 . S
H81 C80 0.961 . S
H82 C80 0.961 . S
H83 C80 0.960 . S
C84 N85 1.342 . S
C84 C88 1.401 . S
C84 C89 1.499 . S
N85 Co68 1.989 . S
N85 C84 1.342 . S
N85 N86 1.388 . S
N86 Co69 1.993 . S
N86 N85 1.388 . S
N86 C87 1.346 . S
C87 N86 1.346 . S
C87 C88 1.396 . S
C87 C97 1.510 . S
C88 C84 1.401 . S
C88 C87 1.396 . S
C89 C84 1.499 . S
C89 H90 0.959 . S
C89 H91 0.960 . S
C89 H92 0.961 . S
H90 C89 0.959 . S
H91 C89 0.960 . S
H92 C89 0.961 . S
O93 Co68 1.967 . S
O93 C101 1.258 . S
O94 Co69 1.941 . S
O94 C101 1.266 . S
H95 C97 0.959 . S
H96 C97 0.961 . S
C97 C87 1.510 . S
C97 H95 0.959 . S
C97 H96 0.961 . S
C97 H98 0.960 . S
H98 C97 0.960 . S
H99 N79 0.862 . S
O100 Co68 1.920 . S
O100 C73 1.289 . S
C101 O93 1.258 . S
C101 O94 1.266 . S
Co102 O105 1.970 . S
Co102 N119 1.989 . S
Co102 O127 1.967 . S
Co102 O134 1.920 . S
Co103 O106 1.966 . S
Co103 N112 2.022 . S
Co103 N120 1.993 . S
Co103 O128 1.941 . S
C104 O105 1.258 . S
C104 O106 1.263 . S
O105 Co102 1.970 . S
O105 C104 1.258 . S
O106 Co103 1.966 . S
O106 C104 1.263 . S
C107 O108 1.235 . S
C107 O134 1.289 . S
O108 C107 1.235 . S
C109 C111 1.400 . S
C109 N112 1.351 . S
C109 C114 1.501 . S
C110 C111 1.387 . S
C110 N113 1.341 . S
C111 C109 1.400 . S
C111 C110 1.387 . S
N112 Co103 2.022 . S
N112 C109 1.351 . S
N112 N113 1.365 . S
N113 C110 1.341 . S
N113 N112 1.365 . S
N113 H133 0.862 . S
C114 C109 1.501 . S
C114 H115 0.961 . S
C114 H116 0.961 . S
C114 H117 0.960 . S
H115 C114 0.961 . S
H116 C114 0.961 . S
H117 C114 0.960 . S
C118 N119 1.342 . S
C118 C122 1.401 . S
C118 C123 1.499 . S
N119 Co102 1.989 . S
N119 C118 1.342 . S
N119 N120 1.388 . S
N120 Co103 1.993 . S
N120 N119 1.388 . S
N120 C121 1.346 . S
C121 N120 1.346 . S
C121 C122 1.396 . S
C121 C131 1.510 . S
C122 C118 1.401 . S
C122 C121 1.396 . S
C123 C118 1.499 . S
C123 H124 0.959 . S
C123 H125 0.960 . S
C123 H126 0.961 . S
H124 C123 0.959 . S
H125 C123 0.960 . S
H126 C123 0.961 . S
O127 Co102 1.967 . S
O127 C135 1.258 . S
O128 Co103 1.941 . S
O128 C135 1.266 . S
H129 C131 0.959 . S
H130 C131 0.961 . S
C131 C121 1.510 . S
C131 H129 0.959 . S
C131 H130 0.961 . S
C131 H132 0.960 . S
H132 C131 0.960 . S
H133 N113 0.862 . S
O134 Co102 1.920 . S
O134 C107 1.289 . S
C135 O127 1.258 . S
C135 O128 1.266 . S
Co136 O139 1.970 . S
Co136 N153 1.989 . S
Co136 O161 1.967 . S
Co136 O168 1.920 1_556 S
Co137 O140 1.966 . S
Co137 N146 2.022 . S
Co137 N154 1.993 . S
Co137 O162 1.941 . S
C138 O139 1.258 . S
C138 O140 1.263 . S
O139 Co136 1.970 . S
O139 C138 1.258 . S
O140 Co137 1.966 . S
O140 C138 1.263 . S
C141 O142 1.235 . S
C141 O168 1.289 . S
O142 C141 1.235 . S
C143 C145 1.400 . S
C143 N146 1.351 . S
C143 C148 1.501 . S
C144 C145 1.387 . S
C144 N147 1.341 . S
C145 C143 1.400 . S
C145 C144 1.387 . S
N146 Co137 2.022 . S
N146 C143 1.351 . S
N146 N147 1.365 . S
N147 C144 1.341 . S
N147 N146 1.365 . S
N147 H167 0.862 . S
C148 C143 1.501 . S
C148 H149 0.961 . S
C148 H150 0.961 . S
C148 H151 0.960 . S
H149 C148 0.961 . S
H150 C148 0.961 . S
H151 C148 0.960 . S
C152 N153 1.342 . S
C152 C156 1.401 . S
C152 C157 1.499 . S
N153 Co136 1.989 . S
N153 C152 1.342 . S
N153 N154 1.388 . S
N154 Co137 1.993 . S
N154 N153 1.388 . S
N154 C155 1.346 . S
C155 N154 1.346 . S
C155 C156 1.396 . S
C155 C165 1.510 . S
C156 C152 1.401 . S
C156 C155 1.396 . S
C157 C152 1.499 . S
C157 H158 0.959 1_556 S
C157 H159 0.960 1_556 S
C157 H160 0.961 1_556 S
H158 C157 0.959 1_554 S
H159 C157 0.960 1_554 S
H160 C157 0.961 1_554 S
O161 Co136 1.967 . S
O161 C169 1.258 . S
O162 Co137 1.941 . S
O162 C169 1.266 . S
H163 C165 0.959 . S
H164 C165 0.961 . S
C165 C155 1.510 . S
C165 H163 0.959 . S
C165 H164 0.961 . S
C165 H166 0.960 . S
H166 C165 0.960 . S
H167 N147 0.862 . S
O168 Co136 1.920 1_554 S
O168 C141 1.289 . S
C169 O161 1.258 . S
C169 O162 1.266 . S
Co170 O173 1.970 . S
Co170 N187 1.989 . S
Co170 O195 1.967 . S
Co170 O202 1.920 . S
Co171 O174 1.966 1_554 S
Co171 N180 2.022 . S
Co171 N188 1.993 1_554 S
Co171 O196 1.941 1_554 S
C172 O173 1.258 . S
C172 O174 1.263 . S
O173 Co170 1.970 . S
O173 C172 1.258 . S
O174 Co171 1.966 1_556 S
O174 C172 1.263 . S
C175 O176 1.235 1_545 S
C175 O202 1.289 . S
O176 C175 1.235 1_565 S
C177 C179 1.400 . S
C177 N180 1.351 . S
C177 C182 1.501 . S
C178 C179 1.387 . S
C178 N181 1.341 . S
C179 C177 1.400 . S
C179 C178 1.387 . S
N180 Co171 2.022 . S
N180 C177 1.351 . S
N180 N181 1.365 . S
N181 C178 1.341 . S
N181 N180 1.365 . S
N181 H201 0.862 . S
C182 C177 1.501 . S
C182 H183 0.961 . S
C182 H184 0.961 . S
C182 H185 0.960 . S
H183 C182 0.961 . S
H184 C182 0.961 . S
H185 C182 0.960 . S
C186 N187 1.342 . S
C186 C190 1.401 . S
C186 C191 1.499 . S
N187 Co170 1.989 . S
N187 C186 1.342 . S
N187 N188 1.388 . S
N188 Co171 1.993 1_556 S
N188 N187 1.388 . S
N188 C189 1.346 1_556 S
C189 N188 1.346 1_554 S
C189 C190 1.396 1_554 S
C189 C199 1.510 . S
C190 C186 1.401 . S
C190 C189 1.396 1_556 S
C191 C186 1.499 . S
C191 H192 0.959 . S
C191 H193 0.950 1_545 S
C191 H194 0.961 . S
H192 C191 0.959 . S
H193 C191 0.950 1_565 S
H194 C191 0.961 . S
O195 Co170 1.967 . S
O195 C203 1.258 . S
O196 Co171 1.941 1_556 S
O196 C203 1.266 . S
H197 C199 0.959 . S
H198 C199 0.961 . S
C199 C189 1.510 . S
C199 H197 0.959 . S
C199 H198 0.961 . S
C199 H200 0.960 . S
H200 C199 0.960 . S
H201 N181 0.862 . S
O202 Co170 1.920 . S
O202 C175 1.289 . S
C203 O195 1.258 . S
C203 O196 1.266 . S
Co204 O207 1.970 . S
Co204 N221 1.989 . S
Co204 O229 1.967 . S
Co204 O236 1.920 . S
Co205 O208 1.966 . S
Co205 N214 2.022 . S
Co205 N222 1.993 . S
Co205 O230 1.941 . S
C206 O207 1.258 . S
C206 O208 1.263 . S
O207 Co204 1.970 . S
O207 C206 1.258 . S
O208 Co205 1.966 . S
O208 C206 1.263 . S
C209 O210 1.235 . S
C209 O236 1.289 . S
O210 C209 1.235 . S
C211 C213 1.400 . S
C211 N214 1.351 . S
C211 C216 1.501 . S
C212 C213 1.387 . S
C212 N215 1.341 . S
C213 C211 1.400 . S
C213 C212 1.387 . S
N214 Co205 2.022 . S
N214 C211 1.351 . S
N214 N215 1.365 . S
N215 C212 1.341 . S
N215 N214 1.365 . S
N215 H235 0.862 . S
C216 C211 1.501 . S
C216 H217 0.961 . S
C216 H218 0.961 . S
C216 H219 0.960 . S
H217 C216 0.961 . S
H218 C216 0.961 . S
H219 C216 0.960 . S
C220 N221 1.342 . S
C220 C224 1.401 . S
C220 C225 1.499 . S
N221 Co204 1.989 . S
N221 C220 1.342 . S
N221 N222 1.388 . S
N222 Co205 1.993 . S
N222 N221 1.388 . S
N222 C223 1.346 . S
C223 N222 1.346 . S
C223 C224 1.396 . S
C223 C233 1.510 . S
C224 C220 1.401 . S
C224 C223 1.396 . S
C225 C220 1.499 . S
C225 H226 0.959 . S
C225 H227 0.960 . S
C225 H228 0.961 . S
H226 C225 0.959 . S
H227 C225 0.960 . S
H228 C225 0.961 . S
O229 Co204 1.967 . S
O229 C237 1.258 . S
O230 Co205 1.941 . S
O230 C237 1.266 . S
H231 C233 0.959 . S
H232 C233 0.961 . S
C233 C223 1.510 . S
C233 H231 0.959 . S
C233 H232 0.961 . S
C233 H234 0.960 . S
H234 C233 0.960 . S
H235 N215 0.862 . S
O236 Co204 1.920 . S
O236 C209 1.289 . S
C237 O229 1.258 . S
C237 O230 1.266 . S
Co238 O241 1.970 . S
Co238 N255 1.989 . S
Co238 O263 1.967 . S
Co238 O270 1.920 . S
Co239 O242 1.966 . S
Co239 N248 2.022 . S
Co239 N256 1.993 . S
Co239 O264 1.941 . S
C240 O241 1.258 . S
C240 O242 1.263 . S
O241 Co238 1.970 . S
O241 C240 1.258 . S
O242 Co239 1.966 . S
O242 C240 1.263 . S
C243 O244 1.235 . S
C243 O270 1.289 . S
O244 C243 1.235 . S
C245 C247 1.400 . S
C245 N248 1.351 . S
C245 C250 1.501 . S
C246 C247 1.387 . S
C246 N249 1.341 . S
C247 C245 1.400 . S
C247 C246 1.387 . S
N248 Co239 2.022 . S
N248 C245 1.351 . S
N248 N249 1.365 . S
N249 C246 1.341 . S
N249 N248 1.365 . S
N249 H269 0.862 . S
C250 C245 1.501 . S
C250 H251 0.961 . S
C250 H252 0.961 . S
C250 H253 0.960 . S
H251 C250 0.961 . S
H252 C250 0.961 . S
H253 C250 0.960 . S
C254 N255 1.342 . S
C254 C258 1.401 . S
C254 C259 1.499 . S
N255 Co238 1.989 . S
N255 C254 1.342 . S
N255 N256 1.388 . S
N256 Co239 1.993 . S
N256 N255 1.388 . S
N256 C257 1.346 . S
C257 N256 1.346 . S
C257 C258 1.396 . S
C257 C267 1.510 . S
C258 C254 1.401 . S
C258 C257 1.396 . S
C259 C254 1.499 . S
C259 H260 0.959 . S
C259 H261 0.960 . S
C259 H262 0.961 . S
H260 C259 0.959 . S
H261 C259 0.960 . S
H262 C259 0.961 . S
O263 Co238 1.967 . S
O263 C271 1.258 . S
O264 Co239 1.941 . S
O264 C271 1.266 . S
H265 C267 0.959 . S
H266 C267 0.961 . S
C267 C257 1.510 . S
C267 H265 0.959 . S
C267 H266 0.961 . S
C267 H268 0.960 . S
H268 C267 0.960 . S
H269 N249 0.862 . S
O270 Co238 1.920 . S
O270 C243 1.289 . S
C271 O263 1.258 . S
C271 O264 1.266 . S
C272 C273 1.369 . S
C272 C274 1.419 . S
C272 H276 0.930 . S
C273 C272 1.369 . S
C273 C282 1.429 1_565 S
C274 C272 1.419 . S
C274 C275 1.363 . S
C274 H277 0.929 . S
C275 C274 1.363 . S
C275 C281 1.428 1_565 S
H276 C272 0.930 . S
H277 C274 0.929 . S
S278 N279 1.613 . S
S278 N280 1.610 . S
N279 S278 1.613 . S
N279 C282 1.350 . S
N280 S278 1.610 . S
N280 C281 1.351 . S
C281 C275 1.428 1_545 S
C281 N280 1.351 . S
C281 C282 1.434 . S
C282 C273 1.429 1_545 S
C282 N279 1.350 . S
C282 C281 1.434 . S
C283 C284 1.369 . S
C283 C285 1.419 . S
C283 H287 0.930 . S
C284 C283 1.369 . S
C284 C293 1.429 . S
C285 C283 1.419 . S
C285 C286 1.363 . S
C285 H288 0.929 . S
C286 C285 1.363 . S
C286 C292 1.428 . S
H287 C283 0.930 . S
H288 C285 0.929 . S
S289 N290 1.613 . S
S289 N291 1.610 . S
N290 S289 1.613 . S
N290 C293 1.350 . S
N291 S289 1.610 . S
N291 C292 1.351 . S
C292 C286 1.428 . S
C292 N291 1.351 . S
C292 C293 1.434 . S
C293 C284 1.429 . S
C293 N290 1.350 . S
C293 C292 1.434 . S
C294 C295 1.369 1_565 S
C294 C296 1.419 . S
C294 H298 0.930 . S
C295 C294 1.369 1_545 S
C295 C304 1.429 . S
C296 C294 1.419 . S
C296 C297 1.363 . S
C296 H299 0.929 . S
C297 C296 1.363 . S
C297 C303 1.428 1_565 S
H298 C294 0.930 . S
H299 C296 0.929 . S
S300 N301 1.613 . S
S300 N302 1.610 . S
N301 S300 1.613 . S
N301 C304 1.350 1_554 S
N302 S300 1.610 . S
N302 C303 1.351 1_554 S
C303 C297 1.428 1_545 S
C303 N302 1.351 1_556 S
C303 C304 1.434 . S
C304 C295 1.429 . S
C304 N301 1.350 1_556 S
C304 C303 1.434 . S
C305 C306 1.369 . S
C305 C307 1.419 . S
C305 H309 0.930 . S
C306 C305 1.369 . S
C306 C315 1.429 . S
C307 C305 1.419 . S
C307 C308 1.363 . S
C307 H310 0.929 . S
C308 C307 1.363 . S
C308 C314 1.428 . S
H309 C305 0.930 . S
H310 C307 0.929 . S
S311 N312 1.613 . S
S311 N313 1.610 . S
N312 S311 1.613 . S
N312 C315 1.350 . S
N313 S311 1.610 . S
N313 C314 1.351 . S
C314 C308 1.428 . S
C314 N313 1.351 . S
C314 C315 1.434 . S
C315 C306 1.429 . S
C315 N312 1.350 . S
C315 C314 1.434 . S
C316 C317 1.369 . S
C316 C318 1.419 . S
C316 H320 0.930 1_565 S
C317 C316 1.369 . S
C317 C326 1.429 1_556 S
C318 C316 1.419 . S
C318 C319 1.363 1_656 S
C318 H321 0.929 1_665 S
C319 C318 1.363 1_454 S
C319 C325 1.428 1_455 S
H320 C316 0.930 1_545 S
H321 C318 0.929 1_445 S
S322 N323 1.613 . S
S322 N324 1.610 . S
N323 S322 1.613 . S
N323 C326 1.350 . S
N324 S322 1.610 . S
N324 C325 1.351 . S
C325 C319 1.428 1_655 S
C325 N324 1.351 . S
C325 C326 1.434 . S
C326 C317 1.429 1_554 S
C326 N323 1.350 . S
C326 C325 1.434 . S
C327 C328 1.369 1_556 S
C327 C329 1.419 1_565 S
C327 H331 0.930 . S
C328 C327 1.369 1_554 S
C328 C337 1.429 . S
C329 C327 1.419 1_545 S
C329 C330 1.363 . S
C329 H332 0.929 . S
C330 C329 1.363 . S
C330 C336 1.428 1_556 S
H331 C327 0.930 . S
H332 C329 0.929 . S
S333 N334 1.612 1_545 S
S333 N335 1.610 . S
N334 S333 1.612 1_565 S
N334 C337 1.350 . S
N335 S333 1.610 . S
N335 C336 1.351 . S
C336 C330 1.428 1_554 S
C336 N335 1.351 . S
C336 C337 1.434 1_545 S
C337 C328 1.429 . S
C337 N334 1.350 . S
C337 C336 1.434 1_565 S
C338 C339 1.369 . S
C338 C340 1.419 1_455 S
C338 H342 0.930 . S
C339 C338 1.369 . S
C339 C348 1.429 . S
C340 C338 1.419 1_655 S
C340 C341 1.363 . S
C340 H343 0.929 . S
C341 C340 1.363 . S
C341 C347 1.428 1_655 S
H342 C338 0.930 . S
H343 C340 0.929 . S
S344 N345 1.613 . S
S344 N346 1.610 . S
N345 S344 1.613 . S
N345 C348 1.350 . S
N346 S344 1.610 . S
N346 C347 1.351 . S
C347 C341 1.428 1_455 S
C347 N346 1.351 . S
C347 C348 1.434 . S
C348 C339 1.429 . S
C348 N345 1.350 . S
C348 C347 1.434 . S
C349 C350 1.369 . S
C349 C351 1.419 . S
C349 H353 0.930 . S
C350 C349 1.369 . S
C350 C359 1.429 . S
C351 C349 1.419 . S
C351 C352 1.363 . S
C351 H354 0.929 . S
C352 C351 1.363 . S
C352 C358 1.428 . S
H353 C349 0.930 . S
H354 C351 0.929 . S
S355 N356 1.613 . S
S355 N357 1.610 . S
N356 S355 1.613 . S
N356 C359 1.350 . S
N357 S355 1.610 . S
N357 C358 1.351 . S
C358 C352 1.428 . S
C358 N357 1.351 . S
C358 C359 1.434 . S
C359 C350 1.429 . S
C359 N356 1.350 . S
C359 C358 1.434 . S
C360 C361 1.369 . S
C360 C362 1.419 . S
C360 H364 0.930 . S
C361 C360 1.369 . S
C361 C370 1.429 1_545 S
C362 C360 1.419 . S
C362 C363 1.363 1_545 S
C362 H365 0.929 . S
C363 C362 1.363 1_565 S
C363 C369 1.428 . S
H364 C360 0.930 . S
H365 C362 0.929 . S
S366 N367 1.613 . S
S366 N368 1.610 . S
N367 S366 1.613 . S
N367 C370 1.350 . S
N368 S366 1.610 . S
N368 C369 1.351 . S
C369 C363 1.428 . S
C369 N368 1.351 . S
C369 C370 1.434 . S
C370 C361 1.429 1_565 S
C370 N367 1.350 . S
C370 C369 1.434 . S
C371 C372 1.369 . S
C371 C373 1.419 . S
C371 H375 0.930 . S
C372 C371 1.369 . S
C372 C381 1.429 . S
C373 C371 1.419 . S
C373 C374 1.363 . S
C373 H376 0.929 . S
C374 C373 1.363 . S
C374 C380 1.428 . S
H375 C371 0.930 . S
H376 C373 0.929 . S
S377 N378 1.613 . S
S377 N379 1.610 1_545 S
N378 S377 1.613 . S
N378 C381 1.350 1_545 S
N379 S377 1.610 1_565 S
N379 C380 1.351 . S
C380 C374 1.428 . S
C380 N379 1.351 . S
C380 C381 1.434 . S
C381 C372 1.429 . S
C381 N378 1.350 1_565 S
C381 C380 1.434 . S
C382 C383 1.369 . S
C382 C384 1.419 1_556 S
C382 H386 0.930 . S
C383 C382 1.369 . S
C383 C392 1.429 . S
C384 C382 1.419 1_554 S
C384 C385 1.363 . S
C384 H387 0.929 . S
C385 C384 1.363 . S
C385 C391 1.428 1_554 S
H386 C382 0.930 . S
H387 C384 0.929 . S
S388 N389 1.613 . S
S388 N390 1.610 . S
N389 S388 1.613 . S
N389 C392 1.350 . S
N390 S388 1.610 . S
N390 C391 1.351 . S
C391 C385 1.428 1_556 S
C391 N390 1.351 . S
C391 C392 1.434 . S
C392 C383 1.429 . S
C392 N389 1.350 . S
C392 C391 1.434 . S
C393 C394 1.369 1_556 S
C393 C395 1.419 . S
C393 H397 0.930 1_556 S
C394 C393 1.369 1_554 S
C394 C403 1.429 1_554 S
C395 C393 1.419 . S
C395 C396 1.363 . S
C395 H398 0.929 . S
C396 C395 1.363 . S
C396 C402 1.428 . S
H397 C393 0.930 1_554 S
H398 C395 0.929 . S
S399 N400 1.613 . S
S399 N401 1.610 . S
N400 S399 1.613 . S
N400 C403 1.350 . S
N401 S399 1.610 . S
N401 C402 1.351 . S
C402 C396 1.428 . S
C402 N401 1.351 . S
C402 C403 1.434 . S
C403 C394 1.429 1_556 S
C403 N400 1.350 . S
C403 C402 1.434 . S
C404 C405 1.369 . S
C404 C406 1.419 . S
C404 H408 0.930 . S
C405 C404 1.369 . S
C405 C414 1.429 . S
C406 C404 1.419 . S
C406 C407 1.363 . S
C406 H409 0.929 . S
C407 C406 1.363 . S
C407 C413 1.428 . S
H408 C404 0.930 . S
H409 C406 0.929 . S
S410 N411 1.613 . S
S410 N412 1.610 . S
N411 S410 1.613 . S
N411 C414 1.350 . S
N412 S410 1.610 . S
N412 C413 1.351 . S
C413 C407 1.428 . S
C413 N412 1.351 . S
C413 C414 1.434 . S
C414 C405 1.429 . S
C414 N411 1.350 . S
C414 C413 1.434 . S
C415 C416 1.369 . S
C415 C417 1.419 . S
C415 H419 0.930 1_545 S
C416 C415 1.369 . S
C416 C425 1.429 . S
C417 C415 1.419 . S
C417 C418 1.363 . S
C417 H420 0.929 . S
C418 C417 1.363 . S
C418 C424 1.428 . S
H419 C415 0.930 1_565 S
H420 C417 0.929 . S
S421 N422 1.613 . S
S421 N423 1.610 . S
N422 S421 1.613 . S
N422 C425 1.350 . S
N423 S421 1.610 . S
N423 C424 1.351 . S
C424 C418 1.428 . S
C424 N423 1.351 . S
C424 C425 1.434 . S
C425 C416 1.429 . S
C425 N422 1.350 . S
C425 C424 1.434 . S
C426 C427 1.369 . S
C426 C428 1.419 . S
C426 H430 0.930 . S
C427 C426 1.369 . S
C427 C436 1.429 . S
C428 C426 1.419 . S
C428 C429 1.363 1_554 S
C428 H431 0.929 1_554 S
C429 C428 1.363 1_556 S
C429 C435 1.428 1_556 S
H430 C426 0.930 . S
H431 C428 0.929 1_556 S
S432 N433 1.613 . S
S432 N434 1.610 . S
N433 S432 1.613 . S
N433 C436 1.350 . S
N434 S432 1.610 . S
N434 C435 1.351 . S
C435 C429 1.428 1_554 S
C435 N434 1.351 . S
C435 C436 1.434 . S
C436 C427 1.429 . S
C436 N433 1.350 . S
C436 C435 1.434 . S
C437 C438 1.369 . S
C437 C439 1.419 . S
C437 H441 0.930 . S
C438 C437 1.369 . S
C438 C447 1.429 . S
C439 C437 1.419 . S
C439 C440 1.363 1_554 S
C439 H442 0.929 1_554 S
C440 C439 1.363 1_556 S
C440 C446 1.428 1_556 S
H441 C437 0.930 . S
H442 C439 0.929 1_556 S
S443 N444 1.613 . S
S443 N445 1.610 . S
N444 S443 1.613 . S
N444 C447 1.350 . S
N445 S443 1.610 . S
N445 C446 1.351 . S
C446 C440 1.428 1_554 S
C446 N445 1.351 . S
C446 C447 1.434 . S
C447 C438 1.429 . S
C447 N444 1.350 . S
C447 C446 1.434 . S
C448 C449 1.369 . S
C448 C450 1.419 . S
C448 H452 0.930 . S
C449 C448 1.369 . S
C449 C458 1.429 . S
C450 C448 1.419 . S
C450 C451 1.363 . S
C450 H453 0.929 . S
C451 C450 1.363 . S
C451 C457 1.428 . S
H452 C448 0.930 . S
H453 C450 0.929 . S
S454 N455 1.613 . S
S454 N456 1.610 . S
N455 S454 1.613 . S
N455 C458 1.350 . S
N456 S454 1.610 . S
N456 C457 1.351 . S
C457 C451 1.428 . S
C457 N456 1.351 . S
C457 C458 1.434 . S
C458 C449 1.429 . S
C458 N455 1.350 . S
C458 C457 1.434 . S
C459 C460 1.369 . S
C459 C461 1.419 . S
C459 H463 0.930 . S
C460 C459 1.369 . S
C460 C469 1.429 . S
C461 C459 1.419 . S
C461 C462 1.363 . S
C461 H464 0.929 . S
C462 C461 1.363 . S
C462 C468 1.428 . S
H463 C459 0.930 . S
H464 C461 0.929 . S
S465 N466 1.613 . S
S465 N467 1.610 . S
N466 S465 1.613 . S
N466 C469 1.350 . S
N467 S465 1.610 . S
N467 C468 1.351 . S
C468 C462 1.428 . S
C468 N467 1.351 . S
C468 C469 1.434 . S
C469 C460 1.429 . S
C469 N466 1.350 . S
C469 C468 1.434 . S
C470 C471 1.369 . S
C470 C472 1.419 . S
C470 H474 0.930 . S
C471 C470 1.369 . S
C471 C480 1.429 . S
C472 C470 1.419 . S
C472 C473 1.363 . S
C472 H475 0.929 . S
C473 C472 1.363 . S
C473 C479 1.428 . S
H474 C470 0.930 . S
H475 C472 0.929 . S
S476 N477 1.613 . S
S476 N478 1.610 . S
N477 S476 1.613 . S
N477 C480 1.350 . S
N478 S476 1.610 . S
N478 C479 1.351 . S
C479 C473 1.428 . S
C479 N478 1.351 . S
C479 C480 1.434 . S
C480 C471 1.429 . S
C480 N477 1.350 . S
C480 C479 1.434 . S
C481 C482 1.369 . S
C481 C483 1.419 . S
C481 H485 0.930 . S
C482 C481 1.369 . S
C482 C491 1.429 . S
C483 C481 1.419 . S
C483 C484 1.363 . S
C483 H486 0.929 . S
C484 C483 1.363 . S
C484 C490 1.428 . S
H485 C481 0.930 . S
H486 C483 0.929 . S
S487 N488 1.613 . S
S487 N489 1.610 . S
N488 S487 1.613 . S
N488 C491 1.350 . S
N489 S487 1.610 . S
N489 C490 1.351 . S
C490 C484 1.428 . S
C490 N489 1.351 . S
C490 C491 1.434 . S
C491 C482 1.429 . S
C491 N488 1.350 . S
C491 C490 1.434 . S
C273 C36 1.758 . S
C275 C2 1.762 1_565 S
C284 C70 1.474 . S
C286 C104 1.480 . S
C295 C172 1.717 . S
C297 C138 1.707 . S
C306 C206 1.213 . S
C308 C240 1.216 . S
C317 C169 1.783 . S
C319 C20 1.805 . S
C328 C54 1.719 . S
C330 C190 1.719 . S
C339 C88 1.383 . S
C341 C224 1.384 . S
C350 C122 1.609 . S
C352 C258 1.606 . S
C361 C9 1.404 . S
C363 C5 1.418 . S
C372 C39 1.369 . S
C374 C43 1.344 . S
C383 C77 1.398 . S
C385 C73 1.410 . S
C394 C107 1.365 . S
C396 C111 1.341 . S
C405 C141 1.422 . S
C407 C145 1.390 . S
C416 C175 1.415 . S
C418 C179 1.388 . S
C427 C213 1.339 . S
C429 C209 1.359 . S
C438 C247 1.410 . S
C440 C243 1.412 . S
C449 C33 1.645 . S
C451 C101 1.632 . S
C460 C67 1.799 . S
C462 C135 1.806 . S
C471 C156 1.484 . S
C473 C237 1.495 . S
C482 C203 1.475 . S
C484 C271 1.500 . S
