# Generated by pormake.
# Topology ukt, (4)-cn, num edge types: 1
# Building blocks:
#     Node 0, Type 0, BuildingBlock: GALJAG_clean_sbu_0, # of connection points: 4
#     Node 1, Type 0, BuildingBlock: GALJAG_clean_sbu_0, # of connection points: 4
#     Node 2, Type 0, BuildingBlock: GALJAG_clean_sbu_0, # of connection points: 4
#     Node 3, Type 0, BuildingBlock: GALJAG_clean_sbu_0, # of connection points: 4
#     Node 4, Type 0, BuildingBlock: GALJAG_clean_sbu_0, # of connection points: 4
#     Node 5, Type 0, BuildingBlock: GALJAG_clean_sbu_0, # of connection points: 4
#     Node 6, Type 0, BuildingBlock: GALJAG_clean_sbu_0, # of connection points: 4
#     Node 7, Type 0, BuildingBlock: GALJAG_clean_sbu_0, # of connection points: 4
#     Node 8, Type 0, BuildingBlock: GALJAG_clean_sbu_0, # of connection points: 4
#     Node 9, Type 0, BuildingBlock: GALJAG_clean_sbu_0, # of connection points: 4
#     Node 10, Type 0, BuildingBlock: GALJAG_clean_sbu_0, # of connection points: 4
#     Node 11, Type 0, BuildingBlock: GALJAG_clean_sbu_0, # of connection points: 4
#     Node 12, Type 0, BuildingBlock: GALJAG_clean_sbu_0, # of connection points: 4
#     Node 13, Type 0, BuildingBlock: GALJAG_clean_sbu_0, # of connection points: 4
#     Node 14, Type 0, BuildingBlock: GALJAG_clean_sbu_0, # of connection points: 4
#     Node 15, Type 0, BuildingBlock: GALJAG_clean_sbu_0, # of connection points: 4
#     Edge 16, Type (0, 0), BuildingBlock: KIFKEQ_clean_linker_1, # of connection points: 2
#     Edge 17, Type (0, 0), BuildingBlock: KIFKEQ_clean_linker_1, # of connection points: 2
#     Edge 18, Type (0, 0), BuildingBlock: KIFKEQ_clean_linker_1, # of connection points: 2
#     Edge 19, Type (0, 0), BuildingBlock: KIFKEQ_clean_linker_1, # of connection points: 2
#     Edge 20, Type (0, 0), BuildingBlock: KIFKEQ_clean_linker_1, # of connection points: 2
#     Edge 21, Type (0, 0), BuildingBlock: KIFKEQ_clean_linker_1, # of connection points: 2
#     Edge 22, Type (0, 0), BuildingBlock: KIFKEQ_clean_linker_1, # of connection points: 2
#     Edge 23, Type (0, 0), BuildingBlock: KIFKEQ_clean_linker_1, # of connection points: 2
#     Edge 24, Type (0, 0), BuildingBlock: KIFKEQ_clean_linker_1, # of connection points: 2
#     Edge 25, Type (0, 0), BuildingBlock: KIFKEQ_clean_linker_1, # of connection points: 2
#     Edge 26, Type (0, 0), BuildingBlock: KIFKEQ_clean_linker_1, # of connection points: 2
#     Edge 27, Type (0, 0), BuildingBlock: KIFKEQ_clean_linker_1, # of connection points: 2
#     Edge 28, Type (0, 0), BuildingBlock: KIFKEQ_clean_linker_1, # of connection points: 2
#     Edge 29, Type (0, 0), BuildingBlock: KIFKEQ_clean_linker_1, # of connection points: 2
#     Edge 30, Type (0, 0), BuildingBlock: KIFKEQ_clean_linker_1, # of connection points: 2
#     Edge 31, Type (0, 0), BuildingBlock: KIFKEQ_clean_linker_1, # of connection points: 2
#     Edge 32, Type (0, 0), BuildingBlock: KIFKEQ_clean_linker_1, # of connection points: 2
#     Edge 33, Type (0, 0), BuildingBlock: KIFKEQ_clean_linker_1, # of connection points: 2
#     Edge 34, Type (0, 0), BuildingBlock: KIFKEQ_clean_linker_1, # of connection points: 2
#     Edge 35, Type (0, 0), BuildingBlock: KIFKEQ_clean_linker_1, # of connection points: 2
#     Edge 36, Type (0, 0), BuildingBlock: KIFKEQ_clean_linker_1, # of connection points: 2
#     Edge 37, Type (0, 0), BuildingBlock: KIFKEQ_clean_linker_1, # of connection points: 2
#     Edge 38, Type (0, 0), BuildingBlock: KIFKEQ_clean_linker_1, # of connection points: 2
#     Edge 39, Type (0, 0), BuildingBlock: KIFKEQ_clean_linker_1, # of connection points: 2
#     Edge 40, Type (0, 0), BuildingBlock: KIFKEQ_clean_linker_1, # of connection points: 2
#     Edge 41, Type (0, 0), BuildingBlock: KIFKEQ_clean_linker_1, # of connection points: 2
#     Edge 42, Type (0, 0), BuildingBlock: KIFKEQ_clean_linker_1, # of connection points: 2
#     Edge 43, Type (0, 0), BuildingBlock: KIFKEQ_clean_linker_1, # of connection points: 2
#     Edge 44, Type (0, 0), BuildingBlock: KIFKEQ_clean_linker_1, # of connection points: 2
#     Edge 45, Type (0, 0), BuildingBlock: KIFKEQ_clean_linker_1, # of connection points: 2
#     Edge 46, Type (0, 0), BuildingBlock: KIFKEQ_clean_linker_1, # of connection points: 2
#     Edge 47, Type (0, 0), BuildingBlock: KIFKEQ_clean_linker_1, # of connection points: 2
# Relax obj value: 0.210
# Max RMSD: 0.110
# Mean RMSD: 0.110
data_MOF--net-ukt--node1-GALJAG_clean_sbu_0--edge1-KIFKEQ_clean_linker_1
_symmetry_space_group_name_H-M    P1
_symmetry_Int_Tables_number       1
_symmetry_cell_setting            triclinic
loop_
_symmetry_equiv_pos_as_xyz
'x, y, z'
_cell_length_a     43.209854
_cell_length_b     43.112008
_cell_length_c     35.219023
_cell_angle_alpha  89.967154
_cell_angle_beta   89.857247
_cell_angle_gamma 89.985351
loop_
_atom_site_label
_atom_site_type_symbol
_atom_site_fract_x
_atom_site_fract_y
_atom_site_fract_z
_atom_type_partial_charge
In0 In 0.54161 0.14367 0.04744 0.0
O1 O 0.59346 0.13756 0.05671 0.0
O2 O 0.56592 0.09699 0.05053 0.0
C3 C 0.52784 0.16936 0.11534 0.0
C4 C 0.50084 0.10375 0.01689 0.0
C5 C 0.55382 0.19003 -0.00183 0.0
O6 O 0.5516 0.15308 0.10965 0.0
O7 O 0.51027 0.17201 0.08698 0.0
O8 O 0.53092 0.19065 0.02043 0.0
O9 O 0.57025 0.16599 0.00054 0.0
C10 C 0.5926 0.10831 0.05479 0.0
O11 O 0.51656 0.12244 0.99723 0.0
O12 O 0.50409 0.10677 0.05231 0.0
In13 In 0.352 0.5526 0.07298 0.0
O14 O 0.37838 0.59315 0.09955 0.0
O15 O 0.38335 0.58471 0.04021 0.0
C16 C 0.31493 0.54327 0.13349 0.0
C17 C 0.39763 0.511 0.06392 0.0
C18 C 0.30714 0.56357 0.02175 0.0
O19 O 0.32848 0.56867 0.12715 0.0
O20 O 0.32129 0.5219 0.11026 0.0
O21 O 0.3159 0.53643 0.02987 0.0
O22 O 0.32146 0.58485 0.03879 0.0
C23 C 0.39105 0.60085 0.06854 0.0
O24 O 0.3783 0.51699 0.03813 0.0
O25 O 0.3921 0.52388 0.09538 0.0
In26 In 0.95657 0.33771 0.07783 0.0
O27 O 0.91179 0.34553 0.11187 0.0
O28 O 0.92558 0.37988 0.07216 0.0
C29 C 0.98996 0.31011 0.13311 0.0
C30 C 0.98918 0.38155 0.0412 0.0
C31 C 0.93208 0.29147 0.03617 0.0
O32 O 0.97229 0.33283 0.1394 0.0
O33 O 0.99179 0.30224 0.09875 0.0
O34 O 0.95884 0.30201 0.02968 0.0
O35 O 0.91798 0.30434 0.06323 0.0
C36 C 0.90572 0.3711 0.09602 0.0
O37 O 0.97309 0.36158 0.024 0.0
O38 O 0.99063 0.37782 0.07676 0.0
In39 In 0.13584 0.9334 0.08012 0.0
O40 O 0.11079 0.94019 0.02414 0.0
O41 O 0.09484 0.9661 0.07146 0.0
C42 C 0.18186 0.91427 0.03403 0.0
C43 C 0.1093 0.88222 0.1094 0.0
C44 C 0.16215 0.96728 0.13605 0.0
O45 O 0.17751 0.94253 0.04178 0.0
O46 O 0.16297 0.89582 0.04941 0.0
O47 O 0.1429 0.946 0.14244 0.0
O48 O 0.1674 0.97224 0.10142 0.0
C49 C 0.09111 0.95893 0.03706 0.0
O50 O 0.13827 0.88506 0.10582 0.0
O51 O 0.09385 0.90572 0.09953 0.0
In52 In 0.53705 0.3389 0.40953 0.0
O53 O 0.58707 0.32664 0.42411 0.0
O54 O 0.57686 0.37331 0.40946 0.0
C55 C 0.52979 0.30867 0.34314 0.0
C56 C 0.50677 0.39315 0.41535 0.0
C57 C 0.52431 0.30114 0.46862 0.0
O58 O 0.55583 0.31498 0.35714 0.0
O59 O 0.50696 0.31834 0.36218 0.0
O60 O 0.51395 0.29622 0.43568 0.0
O61 O 0.53983 0.32572 0.47186 0.0
C62 C 0.59692 0.35401 0.42014 0.0
O63 O 0.50232 0.37099 0.43813 0.0
O64 O 0.52432 0.38682 0.38779 0.0
In65 In 0.13417 0.55547 0.40714 0.0
O66 O 0.11982 0.60665 0.40431 0.0
O67 O 0.12629 0.58566 0.45841 0.0
C68 C 0.15253 0.54303 0.33588 0.0
C69 C 0.08008 0.52686 0.41995 0.0
C70 C 0.18976 0.54909 0.43973 0.0
O71 O 0.14291 0.56946 0.34601 0.0
O72 O 0.15086 0.52229 0.36118 0.0
O73 O 0.16703 0.53248 0.4498 0.0
O74 O 0.18423 0.5683 0.41361 0.0
C75 C 0.11906 0.60963 0.44001 0.0
O76 O 0.10516 0.5172 0.4341 0.0
O77 O 0.08293 0.54918 0.39706 0.0
In78 In 0.9585 0.14586 0.40904 0.0
O79 O 0.99064 0.1208 0.44969 0.0
O80 O 0.97615 0.09689 0.39996 0.0
C81 C 0.94706 0.19697 0.45051 0.0
C82 C 0.90115 0.12157 0.41227 0.0
C83 C 0.98867 0.16845 0.34799 0.0
O84 O 0.9654 0.17611 0.46178 0.0
O85 O 0.93492 0.19199 0.41856 0.0
O86 O 0.9655 0.15078 0.34526 0.0
O87 O -0.0026 0.17368 0.38153 0.0
C88 C 0.99056 0.09578 0.43105 0.0
O89 O 0.91065 0.13611 0.38335 0.0
O90 O 0.92039 0.11961 0.43894 0.0
In91 In 0.33056 0.96184 0.4155 0.0
O92 O 0.34366 0.91217 0.39839 0.0
O93 O 0.35395 0.92763 0.45435 0.0
C94 C 0.30274 0.98217 0.35196 0.0
C95 C 0.38266 0.99499 0.4236 0.0
C96 C 0.28271 0.95529 0.46349 0.0
O97 O 0.31976 0.95838 0.35259 0.0
O98 O 0.30021 -0.00386 0.38329 0.0
O99 O 0.30097 0.97816 0.4657 0.0
O100 O 0.28805 0.9369 0.4364 0.0
C101 C 0.35486 0.90579 0.43062 0.0
O102 O 0.36022 -0.00263 0.44646 0.0
O103 O 0.37782 0.97756 0.39553 0.0
In104 In 0.443 0.83103 0.91791 0.0
O105 O 0.39916 0.85837 0.90411 0.0
O106 O 0.39502 0.81896 0.93995 0.0
C107 C 0.4533 0.797 0.85488 0.0
C108 C 0.46707 0.88822 0.92605 0.0
C109 C 0.4613 0.79497 0.97601 0.0
O110 O 0.42789 0.79731 0.87244 0.0
O111 O 0.47378 0.81461 0.86855 0.0
O112 O 0.47515 0.79499 0.94436 0.0
O113 O 0.43934 0.81414 0.97858 0.0
C114 C 0.3817 0.84154 0.92414 0.0
O115 O 0.47052 0.86714 0.95045 0.0
O116 O 0.45332 0.87983 0.89628 0.0
In117 In 0.66402 0.44346 0.94533 0.0
O118 O 0.67041 0.3925 0.93009 0.0
O119 O 0.62557 0.41209 0.92394 0.0
C120 C 0.69222 0.47097 0.88522 0.0
C121 C 0.61472 0.4687 0.9808 0.0
C122 C 0.70665 0.434 -0.00057 0.0
O123 O 0.66846 0.45433 0.88205 0.0
O124 O 0.70111 0.47488 0.91888 0.0
O125 O 0.69676 0.46086 0.99153 0.0
O126 O 0.69509 0.41235 0.97996 0.0
C127 C 0.64234 0.38823 0.92171 0.0
O128 O 0.63089 0.44739 0.99491 0.0
O129 O 0.62444 0.47885 0.94931 0.0
In130 In 0.03941 0.65366 0.959 0.0
O131 O 0.0869 0.64797 0.93076 0.0
O132 O 0.07754 0.62277 0.98143 0.0
C133 C 0.02872 0.69499 0.90331 0.0
C134 C 0.00689 0.60059 0.95699 0.0
C135 C 0.03477 0.68912 0.02204 0.0
O136 O 0.0539 0.69344 0.92124 0.0
O137 O 0.00872 0.67503 0.91286 0.0
O138 O 0.0139 0.6884 0.99712 0.0
O139 O 0.05732 0.6714 0.01564 0.0
C140 C 0.09651 0.62887 0.95524 0.0
O141 O 0.00421 0.62003 0.98357 0.0
O142 O 0.02379 0.60934 0.9298 0.0
In143 In 0.83611 0.03501 0.90358 0.0
O144 O 0.86325 0.99443 0.92873 0.0
O145 O 0.88667 0.02511 0.89137 0.0
C146 C 0.78368 0.02958 0.9444 0.0
C147 C 0.85235 0.0926 0.92615 0.0
C148 C 0.81558 0.02278 0.83336 0.0
O149 O 0.80954 0.02076 0.95706 0.0
O150 O 0.78429 0.04043 0.91116 0.0
O151 O 0.8273 0.04845 0.84278 0.0
O152 O 0.81502 0.00249 0.85931 0.0
C153 C 0.88845 0.0021 0.91323 0.0
O154 O 0.85086 0.08522 0.89158 0.0
O155 O 0.84543 0.07118 0.9489 0.0
In156 In 0.4407 0.64358 0.55663 0.0
O157 O 0.47256 0.62613 0.51002 0.0
O158 O 0.47216 0.60179 0.56257 0.0
C159 C 0.42232 0.69624 0.52242 0.0
C160 C 0.39058 0.60734 0.54665 0.0
C161 C 0.4622 0.66434 0.62362 0.0
O162 O 0.44804 0.68368 0.51499 0.0
O163 O 0.40618 0.68221 0.54684 0.0
O164 O 0.44226 0.64304 0.62112 0.0
O165 O 0.47228 0.67425 0.59222 0.0
C166 C 0.48158 0.60279 0.52862 0.0
O167 O 0.39458 0.62252 0.57692 0.0
O168 O 0.4114 0.61091 0.522 0.0
In169 In 0.84165 0.44278 0.58702 0.0
O170 O 0.85833 0.47811 0.54396 0.0
O171 O 0.88663 0.46965 0.59227 0.0
C172 C 0.7907 0.42514 0.54903 0.0
C173 C 0.87587 0.39154 0.57444 0.0
C174 C 0.81996 0.46643 0.65277 0.0
O175 O 0.80528 0.44966 0.54103 0.0
O176 O 0.80143 0.41 0.57667 0.0
O177 O 0.84002 0.44513 0.65179 0.0
O178 O 0.81164 0.47631 0.62068 0.0
C179 C 0.88372 0.48308 0.56056 0.0
O180 O 0.8607 0.3949 0.60492 0.0
O181 O 0.87356 0.41368 0.55135 0.0
In182 In 0.05329 0.85751 0.61944 0.0
O183 O 0.04158 0.87714 0.56172 0.0
O184 O 0.02021 0.89802 0.60982 0.0
C185 C 0.06378 0.80457 0.58138 0.0
C186 C 0.10857 0.88655 0.62337 0.0
C187 C 0.0262 0.83991 0.68532 0.0
O188 O 0.03991 0.82083 0.57564 0.0
O189 O 0.0818 0.81485 0.60654 0.0
O190 O 0.04888 0.85823 0.68402 0.0
O191 O 0.01615 0.83177 0.65333 0.0
C192 C 0.02439 0.89843 0.57427 0.0
O193 O 0.08331 0.90113 0.62254 0.0
O194 O 0.10577 0.85748 0.62466 0.0
In195 In 0.64386 0.06583 0.55056 0.0
O196 O 0.63995 0.11817 0.55539 0.0
O197 O 0.6014 0.09116 0.57341 0.0
C198 C 0.67294 0.04768 0.61448 0.0
C199 C 0.59722 0.03632 0.51575 0.0
C200 C 0.69059 0.06975 0.50008 0.0
O201 O 0.66659 0.0755 0.60695 0.0
O202 O 0.66371 0.02834 0.59013 0.0
O203 O 0.68382 0.04478 0.51688 0.0
O204 O 0.67346 0.09247 0.5083 0.0
C205 C 0.61266 0.11784 0.56831 0.0
O206 O 0.61558 0.05417 0.4985 0.0
O207 O 0.60353 0.03182 0.55034 0.0
H208 H 0.52754 0.24741 0.99663 0.0
H209 H 0.59999 0.19239 0.94538 0.0
H210 H 0.54756 0.29342 0.96517 0.0
H211 H 0.61956 0.23834 0.91275 0.0
H212 H 0.67168 0.33272 0.92921 0.0
H213 H 0.64732 0.28229 0.93631 0.0
H214 H 0.55854 0.3227 0.90885 0.0
H215 H 0.58295 0.3735 0.90297 0.0
C216 C 0.54727 0.24503 0.97781 0.0
C217 C 0.56254 0.2165 0.97394 0.0
C218 C 0.55864 0.27138 0.95947 0.0
C219 C 0.58538 0.26964 0.93667 0.0
C220 C 0.59925 0.24055 0.93064 0.0
C221 C 0.588 0.21424 0.94922 0.0
C222 C 0.64711 0.33068 0.92369 0.0
C223 C 0.6291 0.35707 0.91627 0.0
C224 C 0.6331 0.3017 0.92756 0.0
C225 C 0.60084 0.29855 0.92379 0.0
C226 C 0.58333 0.32451 0.91277 0.0
C227 C 0.59733 0.35355 0.90917 0.0
H228 H 0.1175 0.58055 0.99715 0.0
H229 H 0.14605 0.64673 0.91185 0.0
H230 H 0.17031 0.5615 0.00175 0.0
H231 H 0.19929 0.62747 0.9164 0.0
H232 H 0.2879 0.61973 0.99586 0.0
H233 H 0.23748 0.63226 0.96926 0.0
H234 H 0.21369 0.53495 0.96842 0.0
H235 H 0.26424 0.52238 0.99542 0.0
C236 C 0.13504 0.59071 0.97896 0.0
C237 C 0.12782 0.61536 0.9545 0.0
C238 C 0.16524 0.57956 0.98129 0.0
C239 C 0.18893 0.59299 0.95941 0.0
C240 C 0.18147 0.6168 0.9337 0.0
C241 C 0.15108 0.62778 0.93108 0.0
C242 C 0.2722 0.60094 0.98913 0.0
C243 C 0.27973 0.57014 -0.00174 0.0
C244 C 0.2434 0.6081 0.97363 0.0
C245 C 0.22154 0.5846 0.96719 0.0
C246 C 0.23001 0.55354 0.97356 0.0
C247 C 0.25895 0.54634 0.98885 0.0
H248 H 0.85128 0.11411 -0.00154 0.0
H249 H 0.87593 0.14048 0.88393 0.0
H250 H 0.86934 0.16404 0.02162 0.0
H251 H 0.89397 0.19089 0.90728 0.0
H252 H 0.95839 0.25749 0.97887 0.0
H253 H 0.93738 0.21071 0.94909 0.0
H254 H 0.85445 0.21946 0.01697 0.0
H255 H 0.8754 0.26578 0.04683 0.0
C256 C 0.86039 0.1307 0.97819 0.0
C257 C 0.86219 0.12346 0.9394 0.0
C258 C 0.87057 0.15935 0.99143 0.0
C259 C 0.88292 0.18138 0.96621 0.0
C260 C 0.88468 0.17424 0.92733 0.0
C261 C 0.87423 0.14553 0.91399 0.0
C262 C 0.93555 0.24954 0.98706 0.0
C263 C 0.91866 0.26504 0.01541 0.0
C264 C 0.92349 0.22291 0.96992 0.0
C265 C 0.89442 0.21134 0.98102 0.0
C266 C 0.87711 0.2276 0.0083 0.0
C267 C 0.88908 0.25417 0.02529 0.0
H268 H 0.34172 0.81108 0.97073 0.0
H269 H 0.34844 0.89019 0.89582 0.0
H270 H 0.29079 0.82817 0.99127 0.0
H271 H 0.29686 0.90695 0.91561 0.0
H272 H 0.22997 0.94836 0.00615 0.0
H273 H 0.27569 0.9292 0.97296 0.0
H274 H 0.23769 0.83645 0.9746 0.0
H275 H 0.19244 0.85552 0.00884 0.0
C276 C 0.33199 0.83178 0.95803 0.0
C277 C 0.34912 0.84945 0.93193 0.0
C278 C 0.30268 0.84151 0.96963 0.0
C279 C 0.2898 0.86906 0.95524 0.0
C280 C 0.30635 0.8859 0.92766 0.0
C281 C 0.33577 0.87619 0.91614 0.0
C282 C 0.23127 0.92395 -0.00097 0.0
C283 C 0.20787 0.90336 0.01043 0.0
C284 C 0.25735 0.91298 0.97976 0.0
C285 C 0.26043 0.88123 0.97133 0.0
C286 C 0.23627 0.86093 0.98124 0.0
C287 C 0.21031 0.87187 0.00072 0.0
H288 H 0.5489 0.30527 0.53962 0.0
H289 H 0.50049 0.24265 0.46471 0.0
H290 H 0.56352 0.26168 0.57991 0.0
H291 H 0.51541 0.19912 0.50463 0.0
H292 H 0.54986 0.12262 0.5747 0.0
H293 H 0.51897 0.16951 0.56505 0.0
H294 H 0.60291 0.2238 0.55903 0.0
H295 H 0.63352 0.17722 0.56868 0.0
C296 C 0.54048 0.28234 0.53246 0.0
C297 C 0.52426 0.27718 0.49851 0.0
C298 C 0.54892 0.2574 0.5555 0.0
C299 C 0.54124 0.22695 0.54495 0.0
C300 C 0.52169 0.22231 0.51359 0.0
C301 C 0.51325 0.24726 0.49053 0.0
C302 C 0.56159 0.14476 0.57251 0.0
C303 C 0.59407 0.14633 0.57179 0.0
C304 C 0.54391 0.17154 0.5669 0.0
C305 C 0.55849 0.20027 0.56096 0.0
C306 C 0.5909 0.2021 0.56388 0.0
C307 C 0.60851 0.17536 0.56908 0.0
H308 H 0.3841 0.56408 0.49167 0.0
H309 H 0.33455 0.60867 0.58327 0.0
H310 H 0.33619 0.54056 0.4697 0.0
H311 H 0.28621 0.58542 0.56073 0.0
H312 H 0.20403 0.53076 0.51219 0.0
H313 H 0.25439 0.53656 0.54392 0.0
H314 H 0.29385 0.571 0.43922 0.0
H315 H 0.24412 0.56548 0.40809 0.0
C316 C 0.36301 0.56839 0.50752 0.0
C317 C 0.36282 0.5887 0.53866 0.0
C318 C 0.33563 0.55488 0.49497 0.0
C319 C 0.30747 0.56161 0.51313 0.0
C320 C 0.30765 0.57977 0.5463 0.0
C321 C 0.33522 0.5932 0.55906 0.0
C322 C 0.22375 0.53893 0.49598 0.0
C323 C 0.22034 0.54782 0.45784 0.0
C324 C 0.25238 0.54239 0.5141 0.0
C325 C 0.27798 0.55411 0.49398 0.0
C326 C 0.27469 0.56147 0.45535 0.0
C327 C 0.24616 0.55852 0.43756 0.0
H328 H 0.91777 0.3857 0.51795 0.0
H329 H 0.87257 0.33367 0.60712 0.0
H330 H 0.93905 0.33797 0.49207 0.0
H331 H 0.89409 0.28543 0.58079 0.0
H332 H 0.95971 0.20872 0.52547 0.0
H333 H 0.94679 0.25595 0.56135 0.0
H334 H 0.90591 0.29543 0.46057 0.0
H335 H 0.91838 0.2487 0.42512 0.0
C336 C 0.91282 0.36406 0.53242 0.0
C337 C 0.89308 0.36326 0.56414 0.0
C338 C 0.92501 0.33679 0.51757 0.0
C339 C 0.91775 0.3081 0.5341 0.0
C340 C 0.9 0.30736 0.5676 0.0
C341 C 0.88768 0.33486 0.58258 0.0
C342 C 0.94805 0.22761 0.51112 0.0
C343 C 0.94011 0.22517 0.47253 0.0
C344 C 0.94058 0.25444 0.53163 0.0
C345 C 0.92564 0.2793 0.51355 0.0
C346 C 0.91782 0.27674 0.47502 0.0
C347 C 0.92483 0.24993 0.45479 0.0
H348 H 0.11895 0.94706 0.60398 0.0
H349 H 0.16537 0.85942 0.62135 0.0
H350 H 0.16464 0.96693 0.57094 0.0
H351 H 0.21096 0.8794 0.58864 0.0
H352 H 0.24852 0.90298 0.46925 0.0
H353 H 0.21057 0.88976 0.51746 0.0
H354 H 0.22399 0.97883 0.57094 0.0
H355 H 0.26269 0.99223 0.52227 0.0
C356 C 0.13929 0.93245 0.60201 0.0
C357 C 0.13843 0.90149 0.61456 0.0
C358 C 0.16543 0.94386 0.58312 0.0
C359 C 0.19096 0.92442 0.57658 0.0
C360 C 0.19128 0.89464 0.59276 0.0
C361 C 0.16525 0.88327 0.61163 0.0
C362 C 0.24346 0.91985 0.4912 0.0
C363 C 0.25854 0.94866 0.49199 0.0
C364 C 0.22196 0.91211 0.51908 0.0
C365 C 0.2148 0.93307 0.54829 0.0
C366 C 0.22934 0.96222 0.54882 0.0
C367 C 0.25132 0.96987 0.52101 0.0
H368 H 0.42906 0.78661 0.04161 0.0
H369 H 0.50226 0.74665 0.9737 0.0
H370 H 0.42245 0.73769 0.07451 0.0
H371 H 0.49646 0.69771 0.00779 0.0
H372 H 0.4248 0.61647 0.00661 0.0
H373 H 0.45376 0.66367 0.996 0.0
H374 H 0.43528 0.69249 0.11146 0.0
H375 H 0.40538 0.64494 0.12179 0.0
C376 C 0.44467 0.76772 0.03483 0.0
C377 C 0.46544 0.77005 0.00423 0.0
C378 C 0.44102 0.73962 0.05394 0.0
C379 C 0.45827 0.71347 0.04292 0.0
C380 C 0.48219 0.71723 0.01612 0.0
C381 C 0.48565 0.7453 0.99674 0.0
C382 C 0.4273 0.63261 0.02997 0.0
C383 C 0.41229 0.6274 0.06475 0.0
C384 C 0.44435 0.65957 0.02409 0.0
C385 C 0.44682 0.68202 0.05287 0.0
C386 C 0.43356 0.67578 0.08862 0.0
C387 C 0.41645 0.64862 0.09453 0.0
H388 H 0.74185 0.4766 0.03755 0.0
H389 H 0.72717 0.37811 0.02418 0.0
H390 H 0.78762 0.46606 0.07629 0.0
H391 H 0.77282 0.3676 0.06197 0.0
H392 H 0.8899 0.42732 0.06736 0.0
H393 H 0.83783 0.44642 0.05675 0.0
H394 H 0.80085 0.36964 0.12148 0.0
H395 H 0.85331 0.35004 0.13135 0.0
C396 C 0.74808 0.45275 0.04347 0.0
C397 C 0.73132 0.42816 0.02737 0.0
C398 C 0.77426 0.44671 0.06558 0.0
C399 C 0.78399 0.41601 0.07204 0.0
C400 C 0.76583 0.39152 0.05805 0.0
C401 C 0.73982 0.39754 0.03595 0.0
C402 C 0.87073 0.41499 0.08029 0.0
C403 C 0.87555 0.38682 0.09942 0.0
C404 C 0.84082 0.42609 0.07445 0.0
C405 C 0.81514 0.40922 0.08766 0.0
C406 C 0.8202 0.38281 0.11034 0.0
C407 C 0.85021 0.37168 0.11619 0.0
H408 H 0.00265 0.74326 0.02537 0.0
H409 H 0.07008 0.6886 0.08598 0.0
H410 H 0.01608 0.78825 0.06309 0.0
H411 H 0.0825 0.73324 0.12558 0.0
H412 H 0.13731 0.826 0.11502 0.0
H413 H 0.11259 0.77597 0.109 0.0
H414 H 0.02269 0.81982 0.11643 0.0
H415 H 0.04782 0.87036 0.12058 0.0
C416 C 0.01942 0.74055 0.04795 0.0
C417 C 0.03589 0.71275 0.05218 0.0
C418 C 0.02708 0.76638 0.06988 0.0
C419 C 0.05106 0.76471 0.09686 0.0
C420 C 0.06466 0.73567 0.10424 0.0
C421 C 0.05741 0.71001 0.08177 0.0
C422 C 0.11229 0.8249 0.11647 0.0
C423 C 0.09449 0.85209 0.11729 0.0
C424 C 0.09796 0.79605 0.11329 0.0
C425 C 0.06548 0.79375 0.11133 0.0
C426 C 0.04773 0.82078 0.11672 0.0
C427 C 0.06211 0.84973 0.11938 0.0
H428 H 0.65215 0.12587 0.06879 0.0
H429 H 0.59666 0.04798 0.03262 0.0
H430 H 0.699 0.09803 0.04997 0.0
H431 H 0.64353 0.02044 0.01332 0.0
H432 H 0.72443 0.02813 0.91966 0.0
H433 H 0.67793 0.03963 0.95644 0.0
H434 H 0.73287 0.04706 0.05825 0.0
H435 H 0.77958 0.03472 0.02141 0.0
C436 C 0.65004 0.1025 0.05781 0.0
C437 C 0.62081 0.08924 0.05168 0.0
C438 C 0.67684 0.08652 0.04726 0.0
C439 C 0.67473 0.05724 0.02998 0.0
C440 C 0.64566 0.04305 0.02648 0.0
C441 C 0.6189 0.05882 0.03756 0.0
C442 C 0.72643 0.03136 0.95007 0.0
C443 C 0.75546 0.03069 0.96775 0.0
C444 C 0.69985 0.03776 0.97114 0.0
C445 C 0.70193 0.04423 0.01012 0.0
C446 C 0.73077 0.04208 0.02822 0.0
C447 C 0.75736 0.03495 0.00722 0.0
H448 H 0.37264 0.73089 0.54284 0.0
H449 H 0.449 0.728 0.46341 0.0
H450 H 0.35708 0.78114 0.51763 0.0
H451 H 0.43302 0.77853 0.43785 0.0
H452 H 0.36627 0.856 0.38404 0.0
H453 H 0.38328 0.80394 0.40351 0.0
H454 H 0.38606 0.83418 0.52026 0.0
H455 H 0.36959 0.88581 0.50112 0.0
C456 C 0.38595 0.74088 0.51977 0.0
C457 C 0.41216 0.72569 0.50525 0.0
C458 C 0.37707 0.76964 0.50545 0.0
C459 C 0.394 0.78363 0.47603 0.0
C460 C 0.41959 0.76805 0.46048 0.0
C461 C 0.42877 0.73933 0.47521 0.0
C462 C 0.37075 0.85146 0.41378 0.0
C463 C 0.36651 0.87484 0.4411 0.0
C464 C 0.38054 0.82183 0.42483 0.0
C465 C 0.38567 0.81517 0.46335 0.0
C466 C 0.38191 0.83871 0.49043 0.0
C467 C 0.37261 0.86826 0.47941 0.0
H468 H 0.75312 0.37625 0.56511 0.0
H469 H 0.76773 0.44961 0.48342 0.0
H470 H 0.70852 0.35833 0.52925 0.0
H471 H 0.72362 0.43108 0.44669 0.0
H472 H 0.61991 0.41266 0.42315 0.0
H473 H 0.66837 0.42933 0.45151 0.0
H474 H 0.69345 0.33358 0.47122 0.0
H475 H 0.64432 0.31697 0.44391 0.0
C476 C 0.74688 0.38841 0.53931 0.0
C477 C 0.76373 0.41442 0.52715 0.0
C478 C 0.72151 0.37796 0.51852 0.0
C479 C 0.71258 0.39316 0.48495 0.0
C480 C 0.72968 0.41905 0.47264 0.0
C481 C 0.75496 0.42964 0.4936 0.0
C482 C 0.63599 0.39515 0.43301 0.0
C483 C 0.62827 0.36353 0.43163 0.0
C484 C 0.66385 0.4047 0.44915 0.0
C485 C 0.68467 0.3828 0.46401 0.0
C486 C 0.67762 0.35106 0.46074 0.0
C487 C 0.64963 0.34152 0.44481 0.0
H488 H 0.11722 0.6197 0.51587 0.0
H489 H 0.10022 0.66453 0.40814 0.0
H490 H 0.10248 0.66685 0.54901 0.0
H491 H 0.08571 0.71226 0.44164 0.0
H492 H 0.03164 0.77976 0.52176 0.0
H493 H 0.04435 0.73267 0.48602 0.0
H494 H 0.12493 0.71897 0.55643 0.0
H495 H 0.11216 0.7655 0.59218 0.0
C496 C 0.11042 0.63971 0.49924 0.0
C497 C 0.11005 0.63854 0.4594 0.0
C498 C 0.10208 0.66674 0.51826 0.0
C499 C 0.09316 0.69326 0.49789 0.0
C500 C 0.09232 0.69205 0.45801 0.0
C501 C 0.1008 0.66488 0.43888 0.0
C502 C 0.05199 0.76656 0.52958 0.0
C503 C 0.07083 0.77613 0.55985 0.0
C504 C 0.05936 0.73981 0.50899 0.0
C505 C 0.08555 0.72215 0.51857 0.0
C506 C 0.10437 0.73189 0.54874 0.0
C507 C 0.09711 0.7586 0.56913 0.0
H508 H 0.73397 0.02572 0.48371 0.0
H509 H 0.70988 0.1214 0.46225 0.0
H510 H 0.784 0.03384 0.4529 0.0
H511 H 0.75999 0.12961 0.432 0.0
H512 H 0.88092 0.08079 0.46519 0.0
H513 H 0.82811 0.06414 0.47701 0.0
H514 H 0.79707 0.11684 0.37989 0.0
H515 H 0.85043 0.1338 0.36811 0.0
C516 C 0.73913 0.0483 0.47178 0.0
C517 C 0.71828 0.07306 0.47587 0.0
C518 C 0.76777 0.05296 0.45424 0.0
C519 C 0.77603 0.08244 0.44046 0.0
C520 C 0.75422 0.10658 0.4421 0.0
C521 C 0.72561 0.10194 0.45969 0.0
C522 C 0.86292 0.08849 0.446 0.0
C523 C 0.86966 0.10883 0.41597 0.0
C524 C 0.83268 0.07869 0.45255 0.0
C525 C 0.80843 0.08917 0.42936 0.0
C526 C 0.81532 0.10855 0.39831 0.0
C527 C 0.84579 0.11816 0.39151 0.0
H528 H 0.45181 0.93906 0.88376 0.0
H529 H 0.49552 0.91132 0.98865 0.0
H530 H 0.45409 0.99329 0.90378 0.0
H531 H 0.49828 0.96535 0.00829 0.0
H532 H 0.47098 0.05684 0.05367 0.0
H533 H 0.46109 0.00513 0.02856 0.0
H534 H 0.49085 0.03538 0.91734 0.0
H535 H 0.50007 0.08727 0.94223 0.0
C536 C 0.46245 0.94462 0.91072 0.0
C537 C 0.47341 0.92101 0.93473 0.0
C538 C 0.4636 0.97561 0.92224 0.0
C539 C 0.47571 0.98346 0.95795 0.0
C540 C 0.48799 0.95992 0.98108 0.0
C541 C 0.48682 0.92902 0.96961 0.0
C542 C 0.47451 0.0527 0.02363 0.0
C543 C 0.48669 0.07593 2e-05 0.0
C544 C 0.46923 0.023 0.00935 0.0
C545 C 0.47607 0.01604 0.97125 0.0
C546 C 0.48551 0.04002 0.94686 0.0
C547 C 0.49072 0.06977 0.96113 0.0
H548 H 0.44657 0.50375 0.11185 0.0
H549 H 0.41768 0.48828 0.99602 0.0
H550 H 0.50013 0.49387 0.09357 0.0
H551 H 0.47117 0.47794 0.97789 0.0
H552 H 0.57016 0.50555 0.94943 0.0
H553 H 0.51693 0.51194 0.9716 0.0
H554 H 0.53701 0.45524 0.0697 0.0
H555 H 0.59026 0.44931 0.04792 0.0
C556 C 0.45154 0.49734 0.08273 0.0
C557 C 0.42799 0.49703 0.05529 0.0
C558 C 0.48224 0.49181 0.07223 0.0
C559 C 0.48989 0.48586 0.03413 0.0
C560 C 0.46603 0.48329 0.00729 0.0
C561 C 0.43535 0.48877 0.01778 0.0
C562 C 0.56332 0.49495 0.97606 0.0
C563 C 0.5843 0.47693 0.99692 0.0
C564 C 0.53277 0.49822 0.98849 0.0
C565 C 0.52269 0.4836 0.02204 0.0
C566 C 0.54409 0.46677 0.04376 0.0
C567 C 0.57459 0.46343 0.03129 0.0
H568 H 0.01921 0.55199 0.90954 0.0
H569 H 0.97607 0.57503 0.01673 0.0
H570 H 0.0176 0.497 0.92638 0.0
H571 H 0.97433 0.52021 0.03331 0.0
H572 H 0.01641 0.43142 0.07457 0.0
H573 H 0.01822 0.48407 0.04955 0.0
H574 H 0.98237 0.45166 0.94234 0.0
H575 H 0.9807 0.39875 0.96728 0.0
C576 C 0.00856 0.54526 0.93617 0.0
C577 C -0.00194 0.56781 0.96203 0.0
C578 C 0.00781 0.51381 0.94586 0.0
C579 C -0.00333 0.50453 0.98157 0.0
C580 C 0.98386 0.52688 0.00601 0.0
C581 C 0.98447 0.55822 0.9963 0.0
C582 C 0.00967 0.43535 0.04536 0.0
C583 C -0.00188 0.41104 0.02302 0.0
C584 C 0.0103 0.46554 0.0312 0.0
C585 C -0.00043 0.47198 0.9944 0.0
C586 C 0.99051 0.44733 0.97092 0.0
C587 C 0.98973 0.41706 0.98516 0.0
H588 H 0.03882 0.98653 0.0639 0.0
H589 H 0.08042 0.94972 0.9617 0.0
H590 H 0.98993 0.99327 0.03032 0.0
H591 H 0.03143 0.95665 0.92808 0.0
H592 H 0.94459 0.01178 0.88006 0.0
H593 H -0.00479 0.00107 0.90791 0.0
H594 H 0.95087 0.95467 0.00211 0.0
H595 H 0.90023 0.96522 0.97428 0.0
C596 C 0.03765 0.98036 0.03412 0.0
C597 C 0.06334 0.96757 0.01539 0.0
C598 C 0.00961 0.98386 0.01507 0.0
C599 C 0.00689 0.97495 0.97687 0.0
C600 C 0.03297 0.96356 0.95759 0.0
C601 C 0.06094 0.95971 0.97678 0.0
C602 C 0.94572 -0.00138 0.90624 0.0
C603 C 0.91854 0.98951 0.92519 0.0
C604 C 0.97465 0.99256 0.92215 0.0
C605 C 0.97677 0.97761 0.95743 0.0
C606 C 0.94971 0.96675 0.97516 0.0
C607 C 0.92081 0.97248 0.95904 0.0
H608 H 0.48784 0.59298 0.45254 0.0
H609 H 0.50133 0.54926 0.56168 0.0
H610 H 0.49248 0.54273 0.42146 0.0
H611 H 0.50685 0.49913 0.53052 0.0
H612 H 0.47136 0.41299 0.47459 0.0
H613 H 0.46919 0.46545 0.50009 0.0
H614 H 0.52467 0.49834 0.40607 0.0
H615 H 0.5261 0.44598 0.38001 0.0
C616 C 0.49288 0.57279 0.46978 0.0
C617 C 0.49387 0.57495 0.50958 0.0
C618 C 0.49537 0.54396 0.45196 0.0
C619 C 0.4991 0.51687 0.47366 0.0
C620 C 0.50295 0.5195 0.51316 0.0
C621 C 0.50029 0.54826 0.53097 0.0
C622 C 0.48242 0.43156 0.45888 0.0
C623 C 0.49902 0.42538 0.42545 0.0
C624 C 0.48163 0.46152 0.47378 0.0
C625 C 0.49754 0.48584 0.45565 0.0
C626 C 0.51231 0.48006 0.42079 0.0
C627 C 0.51298 0.45009 0.40577 0.0
H628 H 0.06753 0.48256 0.47319 0.0
H629 H 0.02399 0.55128 0.4017 0.0
H630 H 0.01872 0.47488 0.50681 0.0
H631 H 0.97555 0.54439 0.43603 0.0
H632 H 0.88674 0.5008 0.48642 0.0
H633 H 0.9335 0.50994 0.44944 0.0
H634 H 0.9882 0.50411 0.5518 0.0
H635 H 0.94145 0.49393 0.5886 0.0
C636 C 0.04741 0.49565 0.46429 0.0
C637 C 0.04958 0.51756 0.43493 0.0
C638 C 0.01958 0.49163 0.4839 0.0
C639 C 0.99343 0.50956 0.47467 0.0
C640 C -0.00479 0.53021 0.44387 0.0
C641 C 0.02298 0.53409 0.42413 0.0
C642 C 0.90867 0.50219 0.50116 0.0
C643 C 0.91049 0.49645 0.54037 0.0
C644 C 0.93551 0.50732 0.47992 0.0
C645 C 0.96465 0.50704 0.49755 0.0
C646 C 0.96617 0.50353 0.53721 0.0
C647 C 0.93936 0.4982 0.5584 0.0
H648 H 0.03465 0.90562 0.49851 0.0
H649 H 0.99447 0.95124 0.59612 0.0
H650 H 0.02893 0.95306 0.46157 0.0
H651 H 0.98815 -0.00145 0.55888 0.0
H652 H 0.01737 0.08671 0.50008 0.0
H653 H 0.02403 0.0374 0.53296 0.0
H654 H 0.99128 0.98867 0.4337 0.0
H655 H 0.98519 0.03795 0.40055 0.0
C656 C 0.02395 0.92559 0.51182 0.0
C657 C 0.01516 0.92483 0.55026 0.0
C658 C 0.02073 0.95276 0.49065 0.0
C659 C 0.00865 0.97967 0.50755 0.0
C660 C -0.00174 0.97836 0.54539 0.0
C661 C 0.00148 0.95117 0.56656 0.0
C662 C 0.01223 0.06543 0.48502 0.0
C663 C 0.00064 0.06616 0.44784 0.0
C664 C 0.01564 0.03723 0.50401 0.0
C665 C 0.00751 0.00925 0.48618 0.0
C666 C -0.00231 0.00986 0.44819 0.0
C667 C 0.9943 0.03808 0.42918 0.0
H668 H 0.57791 0.04579 0.44314 0.0
H669 H 0.54963 0.0058 0.55029 0.0
H670 H 0.52574 0.03856 0.41844 0.0
H671 H 0.49757 -0.00185 0.52535 0.0
H672 H 0.40131 0.02456 0.48797 0.0
H673 H 0.45452 0.03349 0.50821 0.0
H674 H 0.48785 -0.00163 0.40076 0.0
H675 H 0.43467 0.98987 0.38029 0.0
C676 C 0.56071 0.03486 0.46113 0.0
C677 C 0.56775 0.02647 0.49869 0.0
C678 C 0.53084 0.0308 0.447 0.0
C679 C 0.50749 0.01834 0.47022 0.0
C680 C 0.51497 0.0085 0.50714 0.0
C681 C 0.54485 0.01248 0.52123 0.0
C682 C 0.41997 0.01941 0.46838 0.0
C683 C 0.41389 0.00638 0.43266 0.0
C684 C 0.45042 0.02413 0.48014 0.0
C685 C 0.47529 0.016 0.45634 0.0
C686 C 0.46914 0.0048 0.41971 0.0
C687 C 0.43869 0.0 0.40798 0.0
H688 H 0.47665 0.28659 0.31034 0.0
H689 H 0.5762 0.28707 0.2985 0.0
H690 H 0.47283 0.25086 0.25638 0.0
H691 H 0.57238 0.25201 0.24477 0.0
H692 H 0.5609 0.16397 0.18043 0.0
H693 H 0.55853 0.19733 0.23606 0.0
H694 H 0.48254 0.24803 0.1862 0.0
H695 H 0.48455 0.2141 0.13051 0.0
C696 C 0.49763 0.27932 0.29598 0.0
C697 C 0.52673 0.28945 0.30871 0.0
C698 C 0.49544 0.25893 0.26516 0.0
C699 C 0.52234 0.24827 0.24678 0.0
C700 C 0.55128 0.25922 0.25892 0.0
C701 C 0.55345 0.27953 0.28952 0.0
C702 C 0.54338 0.18193 0.18155 0.0
C703 C 0.52312 0.18665 0.15101 0.0
C704 C 0.54216 0.20117 0.21329 0.0
C705 C 0.52074 0.22566 0.21514 0.0
C706 C 0.49927 0.22933 0.18555 0.0
C707 C 0.50046 0.20995 0.15369 0.0
H708 H 0.18615 0.49231 0.31426 0.0
H709 H 0.1594 0.58416 0.27782 0.0
H710 H 0.22462 0.49013 0.26341 0.0
H711 H 0.1974 0.58175 0.22669 0.0
H712 H 0.29682 0.58693 0.18448 0.0
H713 H 0.25412 0.58405 0.22944 0.0
H714 H 0.2353 0.49002 0.194 0.0
H715 H 0.27854 0.49279 0.14903 0.0
C716 C 0.18786 0.51165 0.29472 0.0
C717 C 0.17003 0.53856 0.30026 0.0
C718 C 0.20992 0.5104 0.26562 0.0
C719 C 0.21448 0.53605 0.24161 0.0
C720 C 0.19493 0.56194 0.24538 0.0
C721 C 0.17296 0.5632 0.27443 0.0
C722 C 0.28376 0.56554 0.18645 0.0
C723 C 0.29101 0.5401 0.16323 0.0
C724 C 0.25906 0.56401 0.21191 0.0
C725 C 0.24099 0.53699 0.21477 0.0
C726 C 0.24879 0.51115 0.19237 0.0
C727 C 0.27355 0.51273 0.16672 0.0
H728 H 0.01835 0.25383 0.12703 0.0
H729 H 0.99034 0.32302 0.20887 0.0
H730 H 0.02887 0.21743 0.17858 0.0
H731 H 0.00084 0.28669 0.26028 0.0
H732 H 0.97753 0.15747 0.27316 0.0
H733 H 0.98894 0.19195 0.22014 0.0
H734 H 0.03885 0.25303 0.29543 0.0
H735 H 0.02745 0.21839 0.34865 0.0
C736 C 0.01528 0.26156 0.15605 0.0
C737 C 0.0031 0.2911 0.16397 0.0
C738 C 0.0212 0.24068 0.18551 0.0
C739 C 0.01536 0.24911 0.22337 0.0
C740 C 0.00577 0.27958 0.2314 0.0
C741 C -0.00041 0.30036 0.20194 0.0
C742 C 0.99165 0.1778 0.2782 0.0
C743 C 0.00129 0.18544 0.31505 0.0
C744 C -0.00164 0.19748 0.24779 0.0
C745 C 0.01459 0.22532 0.25375 0.0
C746 C 0.02609 0.23184 0.29014 0.0
C747 C 0.01967 0.21195 0.32052 0.0
H748 H 0.25137 0.01883 0.3491 0.0
H749 H 0.31295 0.96438 0.27898 0.0
H750 H 0.21636 0.02536 0.29509 0.0
H751 H 0.27829 0.97132 0.22506 0.0
H752 H 0.21677 -0.00165 0.12922 0.0
H753 H 0.25234 0.0117 0.18062 0.0
H754 H 0.18458 0.98141 0.26294 0.0
H755 H 0.14923 0.96766 0.21169 0.0
C756 C 0.25781 0.00898 0.32191 0.0
C757 C 0.28466 0.99083 0.3182 0.0
C758 C 0.23778 0.01268 0.29113 0.0
C759 C 0.24466 -0.00119 0.25604 0.0
C760 C 0.27261 0.98252 0.25171 0.0
C761 C 0.29232 0.97837 0.2826 0.0
C762 C 0.20917 0.99537 0.15832 0.0
C763 C 0.18043 0.98166 0.16657 0.0
C764 C 0.22954 0.00291 0.18765 0.0
C765 C 0.22122 -0.00261 0.22561 0.0
C766 C 0.19146 0.98611 0.2339 0.0
C767 C 0.17131 0.97809 0.2046 0.0
H768 H 0.4122 0.7573 0.82327 0.0
H769 H 0.50629 0.79012 0.81254 0.0
H770 H 0.42013 0.7226 0.76995 0.0
H771 H 0.51448 0.75469 0.75899 0.0
H772 H 0.49452 0.71796 0.63468 0.0
H773 H 0.49654 0.74861 0.69286 0.0
H774 H 0.44818 0.67578 0.75288 0.0
H775 H 0.44547 0.64554 0.69455 0.0
C776 C 0.43468 0.757 0.80957 0.0
C777 C 0.45861 0.77648 0.822 0.0
C778 C 0.43934 0.73683 0.77923 0.0
C779 C 0.46807 0.73558 0.76054 0.0
C780 C 0.49207 0.75518 0.77282 0.0
C781 C 0.4874 0.77542 0.80341 0.0
C782 C 0.48495 0.70822 0.66052 0.0
C783 C 0.46941 0.67959 0.66001 0.0
C784 C 0.48618 0.72575 0.69387 0.0
C785 C 0.47198 0.71487 0.72725 0.0
C786 C 0.45868 0.6851 0.72735 0.0
C787 C 0.45731 0.66768 0.69402 0.0
H788 H 0.77027 0.50492 0.66023 0.0
H789 H 0.83491 0.45014 0.72535 0.0
H790 H 0.74002 0.5147 0.71766 0.0
H791 H 0.80465 0.45992 0.78272 0.0
H792 H 0.75135 0.49324 0.88436 0.0
H793 H 0.78463 0.50018 0.82868 0.0
H794 H 0.70779 0.4774 0.75564 0.0
H795 H 0.67466 0.4704 0.81109 0.0
C796 C 0.77836 0.49549 0.68694 0.0
C797 C 0.80477 0.47648 0.68829 0.0
C798 C 0.76098 0.50102 0.71974 0.0
C799 C 0.76986 0.48791 0.75457 0.0
C800 C 0.79738 0.47056 0.75634 0.0
C801 C 0.81461 0.4648 0.72346 0.0
C802 C 0.74143 0.49046 0.85636 0.0
C803 C 0.71051 0.48103 0.852 0.0
C804 C 0.76051 0.49426 0.82456 0.0
C805 C 0.74885 0.48912 0.78789 0.0
C806 C 0.71737 0.48178 0.78352 0.0
C807 C 0.69842 0.47763 0.81528 0.0
H808 H 0.04114 0.85638 0.75764 0.0
H809 H 0.99008 0.78847 0.69305 0.0
H810 H 0.03574 0.82437 0.81435 0.0
H811 H 0.98566 0.75588 0.7493 0.0
H812 H 0.97589 0.7057 0.86221 0.0
H813 H 0.96799 0.74545 0.81341 0.0
H814 H 0.06197 0.77709 0.82956 0.0
H815 H 0.06946 0.73827 0.87845 0.0
C816 C 0.02821 0.83491 0.75578 0.0
C817 C 0.01645 0.82467 0.72087 0.0
C818 C 0.02532 0.81643 0.78815 0.0
C819 C 0.01099 0.78718 0.78611 0.0
C820 C -0.00318 0.77826 0.75192 0.0
C821 C -0.00058 0.79693 0.71961 0.0
C822 C -0.00529 0.72134 0.85536 0.0
C823 C 0.02332 0.71883 0.87398 0.0
C824 C 0.99021 0.74406 0.82746 0.0
C825 C 0.01425 0.76465 0.8178 0.0
C826 C 0.04269 0.76217 0.83685 0.0
C827 C 0.04713 0.73962 0.86463 0.0
H828 H 0.69334 0.08633 0.6694 0.0
H829 H 0.69667 0.99055 0.63343 0.0
H830 H 0.73029 0.0752 0.71934 0.0
H831 H 0.73414 0.97936 0.68407 0.0
H832 H 0.77314 0.9785 0.81342 0.0
H833 H 0.73837 0.98044 0.75848 0.0
H834 H 0.78712 0.06093 0.71655 0.0
H835 H 0.82141 0.05925 0.7712 0.0
C836 C 0.7018 0.0628 0.67235 0.0
C837 C 0.69233 0.03936 0.64732 0.0
C838 C 0.72315 0.05649 0.70079 0.0
C839 C 0.73554 0.02658 0.70496 0.0
C840 C 0.72503 0.00265 0.6812 0.0
C841 C 0.70362 0.00904 0.65238 0.0
C842 C 0.77688 -0.00396 0.79187 0.0
C843 C 0.7996 0.01904 0.79676 0.0
C844 C 0.75701 -0.00285 0.76053 0.0
C845 C 0.75971 0.02125 0.73387 0.0
C846 C 0.78415 0.04252 0.73721 0.0
C847 C 0.80385 0.04147 0.76837 0.0
loop_
_geom_bond_atom_site_label_1
_geom_bond_atom_site_label_2
_geom_bond_distance
_geom_bond_site_symmetry_2
_ccdc_geom_bond_type
In0 O1 2.294 . S
In0 O2 2.326 . S
In0 O6 2.266 . S
In0 O7 2.326 . S
In0 O8 2.266 . S
In0 O9 2.326 . S
In0 O11 2.294 . S
In0 O12 2.326 . S
O1 In0 2.294 . S
O1 C10 1.240 . S
O2 In0 2.326 . S
O2 C10 1.252 . S
C3 O6 1.252 . S
C3 O7 1.260 . S
C4 O11 1.240 . S
C4 O12 1.252 . S
C5 O8 1.252 . S
C5 O9 1.260 . S
O6 In0 2.266 . S
O6 C3 1.252 . S
O7 In0 2.326 . S
O7 C3 1.260 . S
O8 In0 2.266 . S
O8 C5 1.252 . S
O9 In0 2.326 . S
O9 C5 1.260 . S
C10 O1 1.240 . S
C10 O2 1.252 . S
O11 In0 2.294 . S
O11 C4 1.240 . S
O12 In0 2.326 . S
O12 C4 1.252 . S
In13 O14 2.294 . S
In13 O15 2.326 . S
In13 O19 2.266 . S
In13 O20 2.326 . S
In13 O21 2.266 . S
In13 O22 2.326 . S
In13 O24 2.294 . S
In13 O25 2.326 . S
O14 In13 2.294 . S
O14 C23 1.240 . S
O15 In13 2.326 . S
O15 C23 1.252 . S
C16 O19 1.252 . S
C16 O20 1.260 . S
C17 O24 1.240 . S
C17 O25 1.252 . S
C18 O21 1.252 . S
C18 O22 1.260 . S
O19 In13 2.266 . S
O19 C16 1.252 . S
O20 In13 2.326 . S
O20 C16 1.260 . S
O21 In13 2.266 . S
O21 C18 1.252 . S
O22 In13 2.326 . S
O22 C18 1.260 . S
C23 O14 1.240 . S
C23 O15 1.252 . S
O24 In13 2.294 . S
O24 C17 1.240 . S
O25 In13 2.326 . S
O25 C17 1.252 . S
In26 O27 2.294 . S
In26 O28 2.326 . S
In26 O32 2.266 . S
In26 O33 2.326 1_655 S
In26 O34 2.266 . S
In26 O35 2.326 . S
In26 O37 2.294 1_655 S
In26 O38 2.326 . S
O27 In26 2.294 . S
O27 C36 1.240 . S
O28 In26 2.326 . S
O28 C36 1.252 . S
C29 O32 1.252 . S
C29 O33 1.260 1_655 S
C30 O37 1.240 . S
C30 O38 1.252 1_455 S
C31 O34 1.252 . S
C31 O35 1.260 . S
O32 In26 2.266 . S
O32 C29 1.252 . S
O33 In26 2.326 1_455 S
O33 C29 1.260 1_455 S
O34 In26 2.266 . S
O34 C31 1.252 . S
O35 In26 2.326 . S
O35 C31 1.260 . S
C36 O27 1.240 . S
C36 O28 1.252 . S
O37 In26 2.294 1_455 S
O37 C30 1.240 . S
O38 In26 2.326 . S
O38 C30 1.252 1_655 S
In39 O40 2.294 1_565 S
In39 O41 2.326 . S
In39 O45 2.266 . S
In39 O46 2.326 . S
In39 O47 2.266 . S
In39 O48 2.326 1_565 S
In39 O50 2.294 . S
In39 O51 2.326 . S
O40 In39 2.294 1_545 S
O40 C49 1.240 . S
O41 In39 2.326 . S
O41 C49 1.252 1_565 S
C42 O45 1.252 . S
C42 O46 1.260 . S
C43 O50 1.240 . S
C43 O51 1.252 . S
C44 O47 1.252 . S
C44 O48 1.260 1_565 S
O45 In39 2.266 . S
O45 C42 1.252 . S
O46 In39 2.326 . S
O46 C42 1.260 . S
O47 In39 2.266 . S
O47 C44 1.252 . S
O48 In39 2.326 1_545 S
O48 C44 1.260 1_545 S
C49 O40 1.240 . S
C49 O41 1.252 1_545 S
O50 In39 2.294 . S
O50 C43 1.240 . S
O51 In39 2.326 . S
O51 C43 1.252 . S
In52 O53 2.294 . S
In52 O54 2.326 . S
In52 O58 2.266 . S
In52 O59 2.326 . S
In52 O60 2.266 . S
In52 O61 2.326 . S
In52 O63 2.294 . S
In52 O64 2.326 . S
O53 In52 2.294 . S
O53 C62 1.240 . S
O54 In52 2.326 . S
O54 C62 1.252 . S
C55 O58 1.252 . S
C55 O59 1.260 . S
C56 O63 1.240 . S
C56 O64 1.252 . S
C57 O60 1.252 . S
C57 O61 1.260 . S
O58 In52 2.266 . S
O58 C55 1.252 . S
O59 In52 2.326 . S
O59 C55 1.260 . S
O60 In52 2.266 . S
O60 C57 1.252 . S
O61 In52 2.326 . S
O61 C57 1.260 . S
C62 O53 1.240 . S
C62 O54 1.252 . S
O63 In52 2.294 . S
O63 C56 1.240 . S
O64 In52 2.326 . S
O64 C56 1.252 . S
In65 O66 2.294 . S
In65 O67 2.326 . S
In65 O71 2.266 . S
In65 O72 2.326 . S
In65 O73 2.266 . S
In65 O74 2.326 . S
In65 O76 2.294 . S
In65 O77 2.326 . S
O66 In65 2.294 . S
O66 C75 1.240 . S
O67 In65 2.326 . S
O67 C75 1.252 . S
C68 O71 1.252 . S
C68 O72 1.260 . S
C69 O76 1.240 . S
C69 O77 1.252 . S
C70 O73 1.252 . S
C70 O74 1.260 . S
O71 In65 2.266 . S
O71 C68 1.252 . S
O72 In65 2.326 . S
O72 C68 1.260 . S
O73 In65 2.266 . S
O73 C70 1.252 . S
O74 In65 2.326 . S
O74 C70 1.260 . S
C75 O66 1.240 . S
C75 O67 1.252 . S
O76 In65 2.294 . S
O76 C69 1.240 . S
O77 In65 2.326 . S
O77 C69 1.252 . S
In78 O79 2.294 1_655 S
In78 O80 2.326 . S
In78 O84 2.266 . S
In78 O85 2.326 . S
In78 O86 2.266 . S
In78 O87 2.326 1_655 S
In78 O89 2.294 . S
In78 O90 2.326 . S
O79 In78 2.294 1_455 S
O79 C88 1.240 . S
O80 In78 2.326 . S
O80 C88 1.252 1_655 S
C81 O84 1.252 . S
C81 O85 1.260 . S
C82 O89 1.240 . S
C82 O90 1.252 . S
C83 O86 1.252 . S
C83 O87 1.260 1_655 S
O84 In78 2.266 . S
O84 C81 1.252 . S
O85 In78 2.326 . S
O85 C81 1.260 . S
O86 In78 2.266 . S
O86 C83 1.252 . S
O87 In78 2.326 1_455 S
O87 C83 1.260 1_455 S
C88 O79 1.240 . S
C88 O80 1.252 1_455 S
O89 In78 2.294 . S
O89 C82 1.240 . S
O90 In78 2.326 . S
O90 C82 1.252 . S
In91 O92 2.294 . S
In91 O93 2.326 . S
In91 O97 2.266 . S
In91 O98 2.326 1_565 S
In91 O99 2.266 . S
In91 O100 2.326 . S
In91 O102 2.294 1_565 S
In91 O103 2.326 . S
O92 In91 2.294 . S
O92 C101 1.240 . S
O93 In91 2.326 . S
O93 C101 1.252 . S
C94 O97 1.252 . S
C94 O98 1.260 1_565 S
C95 O102 1.240 . S
C95 O103 1.252 1_545 S
C96 O99 1.252 . S
C96 O100 1.260 . S
O97 In91 2.266 . S
O97 C94 1.252 . S
O98 In91 2.326 1_545 S
O98 C94 1.260 1_545 S
O99 In91 2.266 . S
O99 C96 1.252 . S
O100 In91 2.326 . S
O100 C96 1.260 . S
C101 O92 1.240 . S
C101 O93 1.252 . S
O102 In91 2.294 1_545 S
O102 C95 1.240 . S
O103 In91 2.326 . S
O103 C95 1.252 1_565 S
In104 O105 2.294 . S
In104 O106 2.326 . S
In104 O110 2.266 . S
In104 O111 2.326 . S
In104 O112 2.266 . S
In104 O113 2.326 . S
In104 O115 2.294 . S
In104 O116 2.326 . S
O105 In104 2.294 . S
O105 C114 1.240 . S
O106 In104 2.326 . S
O106 C114 1.252 . S
C107 O110 1.252 . S
C107 O111 1.260 . S
C108 O115 1.240 . S
C108 O116 1.252 . S
C109 O112 1.252 . S
C109 O113 1.260 . S
O110 In104 2.266 . S
O110 C107 1.252 . S
O111 In104 2.326 . S
O111 C107 1.260 . S
O112 In104 2.266 . S
O112 C109 1.252 . S
O113 In104 2.326 . S
O113 C109 1.260 . S
C114 O105 1.240 . S
C114 O106 1.252 . S
O115 In104 2.294 . S
O115 C108 1.240 . S
O116 In104 2.326 . S
O116 C108 1.252 . S
In117 O118 2.294 . S
In117 O119 2.326 . S
In117 O123 2.266 . S
In117 O124 2.326 . S
In117 O125 2.266 . S
In117 O126 2.326 . S
In117 O128 2.294 . S
In117 O129 2.326 . S
O118 In117 2.294 . S
O118 C127 1.240 . S
O119 In117 2.326 . S
O119 C127 1.252 . S
C120 O123 1.252 . S
C120 O124 1.260 . S
C121 O128 1.240 . S
C121 O129 1.252 . S
C122 O125 1.252 . S
C122 O126 1.260 . S
O123 In117 2.266 . S
O123 C120 1.252 . S
O124 In117 2.326 . S
O124 C120 1.260 . S
O125 In117 2.266 . S
O125 C122 1.252 . S
O126 In117 2.326 . S
O126 C122 1.260 . S
C127 O118 1.240 . S
C127 O119 1.252 . S
O128 In117 2.294 . S
O128 C121 1.240 . S
O129 In117 2.326 . S
O129 C121 1.252 . S
In130 O131 2.294 . S
In130 O132 2.326 . S
In130 O136 2.266 . S
In130 O137 2.326 1_455 S
In130 O138 2.266 . S
In130 O139 2.326 . S
In130 O141 2.294 1_455 S
In130 O142 2.326 . S
O131 In130 2.294 . S
O131 C140 1.240 . S
O132 In130 2.326 . S
O132 C140 1.252 . S
C133 O136 1.252 . S
C133 O137 1.260 1_455 S
C134 O141 1.240 . S
C134 O142 1.252 1_655 S
C135 O138 1.252 . S
C135 O139 1.260 . S
O136 In130 2.266 . S
O136 C133 1.252 . S
O137 In130 2.326 1_655 S
O137 C133 1.260 1_655 S
O138 In130 2.266 . S
O138 C135 1.252 . S
O139 In130 2.326 . S
O139 C135 1.260 . S
C140 O131 1.240 . S
C140 O132 1.252 . S
O141 In130 2.294 1_655 S
O141 C134 1.240 . S
O142 In130 2.326 . S
O142 C134 1.252 1_455 S
In143 O144 2.294 1_545 S
In143 O145 2.326 . S
In143 O149 2.266 . S
In143 O150 2.326 . S
In143 O151 2.266 . S
In143 O152 2.326 1_545 S
In143 O154 2.294 . S
In143 O155 2.326 . S
O144 In143 2.294 1_565 S
O144 C153 1.240 . S
O145 In143 2.326 . S
O145 C153 1.252 1_545 S
C146 O149 1.252 . S
C146 O150 1.260 . S
C147 O154 1.240 . S
C147 O155 1.252 . S
C148 O151 1.252 . S
C148 O152 1.260 1_545 S
O149 In143 2.266 . S
O149 C146 1.252 . S
O150 In143 2.326 . S
O150 C146 1.260 . S
O151 In143 2.266 . S
O151 C148 1.252 . S
O152 In143 2.326 1_565 S
O152 C148 1.260 1_565 S
C153 O144 1.240 . S
C153 O145 1.252 1_565 S
O154 In143 2.294 . S
O154 C147 1.240 . S
O155 In143 2.326 . S
O155 C147 1.252 . S
In156 O157 2.294 . S
In156 O158 2.326 . S
In156 O162 2.266 . S
In156 O163 2.326 . S
In156 O164 2.266 . S
In156 O165 2.326 . S
In156 O167 2.294 . S
In156 O168 2.326 . S
O157 In156 2.294 . S
O157 C166 1.240 . S
O158 In156 2.326 . S
O158 C166 1.252 . S
C159 O162 1.252 . S
C159 O163 1.260 . S
C160 O167 1.240 . S
C160 O168 1.252 . S
C161 O164 1.252 . S
C161 O165 1.260 . S
O162 In156 2.266 . S
O162 C159 1.252 . S
O163 In156 2.326 . S
O163 C159 1.260 . S
O164 In156 2.266 . S
O164 C161 1.252 . S
O165 In156 2.326 . S
O165 C161 1.260 . S
C166 O157 1.240 . S
C166 O158 1.252 . S
O167 In156 2.294 . S
O167 C160 1.240 . S
O168 In156 2.326 . S
O168 C160 1.252 . S
In169 O170 2.294 . S
In169 O171 2.326 . S
In169 O175 2.266 . S
In169 O176 2.326 . S
In169 O177 2.266 . S
In169 O178 2.326 . S
In169 O180 2.294 . S
In169 O181 2.326 . S
O170 In169 2.294 . S
O170 C179 1.240 . S
O171 In169 2.326 . S
O171 C179 1.252 . S
C172 O175 1.252 . S
C172 O176 1.260 . S
C173 O180 1.240 . S
C173 O181 1.252 . S
C174 O177 1.252 . S
C174 O178 1.260 . S
O175 In169 2.266 . S
O175 C172 1.252 . S
O176 In169 2.326 . S
O176 C172 1.260 . S
O177 In169 2.266 . S
O177 C174 1.252 . S
O178 In169 2.326 . S
O178 C174 1.260 . S
C179 O170 1.240 . S
C179 O171 1.252 . S
O180 In169 2.294 . S
O180 C173 1.240 . S
O181 In169 2.326 . S
O181 C173 1.252 . S
In182 O183 2.294 1_455 S
In182 O184 2.326 . S
In182 O188 2.266 . S
In182 O189 2.326 . S
In182 O190 2.266 . S
In182 O191 2.326 1_455 S
In182 O193 2.294 . S
In182 O194 2.326 . S
O183 In182 2.294 1_655 S
O183 C192 1.240 . S
O184 In182 2.326 . S
O184 C192 1.252 1_455 S
C185 O188 1.252 . S
C185 O189 1.260 . S
C186 O193 1.240 . S
C186 O194 1.252 . S
C187 O190 1.252 . S
C187 O191 1.260 1_455 S
O188 In182 2.266 . S
O188 C185 1.252 . S
O189 In182 2.326 . S
O189 C185 1.260 . S
O190 In182 2.266 . S
O190 C187 1.252 . S
O191 In182 2.326 1_655 S
O191 C187 1.260 1_655 S
C192 O183 1.240 . S
C192 O184 1.252 1_655 S
O193 In182 2.294 . S
O193 C186 1.240 . S
O194 In182 2.326 . S
O194 C186 1.252 . S
In195 O196 2.294 . S
In195 O197 2.326 . S
In195 O201 2.266 . S
In195 O202 2.326 1_545 S
In195 O203 2.266 . S
In195 O204 2.326 . S
In195 O206 2.294 1_545 S
In195 O207 2.326 . S
O196 In195 2.294 . S
O196 C205 1.240 . S
O197 In195 2.326 . S
O197 C205 1.252 . S
C198 O201 1.252 . S
C198 O202 1.260 1_545 S
C199 O206 1.240 . S
C199 O207 1.252 1_565 S
C200 O203 1.252 . S
C200 O204 1.260 . S
O201 In195 2.266 . S
O201 C198 1.252 . S
O202 In195 2.326 1_565 S
O202 C198 1.260 1_565 S
O203 In195 2.266 . S
O203 C200 1.252 . S
O204 In195 2.326 . S
O204 C200 1.260 . S
C205 O196 1.240 . S
C205 O197 1.252 . S
O206 In195 2.294 1_565 S
O206 C199 1.240 . S
O207 In195 2.326 . S
O207 C199 1.252 1_545 S
H208 C216 0.950 . S
H209 C221 0.950 . S
H210 C218 0.950 . S
H211 C220 0.950 . S
H212 C222 0.950 . S
H213 C224 0.950 . S
H214 C226 0.950 . S
H215 C227 0.950 . S
C216 H208 0.950 . S
C216 C217 1.386 . S
C216 C218 1.391 . S
C217 C216 1.386 . S
C217 C221 1.393 . S
C218 H210 0.950 . S
C218 C216 1.391 . S
C218 C219 1.400 . S
C219 C218 1.400 . S
C219 C220 1.398 . S
C219 C225 1.491 1_554 S
C220 H211 0.950 . S
C220 C219 1.398 . S
C220 C221 1.391 . S
C221 H209 0.950 . S
C221 C217 1.393 . S
C221 C220 1.391 . S
C222 H212 0.950 . S
C222 C223 1.386 . S
C222 C224 1.391 . S
C223 C222 1.386 . S
C223 C227 1.393 . S
C224 H213 0.950 . S
C224 C222 1.391 . S
C224 C225 1.400 . S
C225 C219 1.491 1_556 S
C225 C224 1.400 . S
C225 C226 1.398 . S
C226 H214 0.950 . S
C226 C225 1.398 . S
C226 C227 1.391 . S
C227 H215 0.950 . S
C227 C223 1.393 . S
C227 C226 1.391 . S
H228 C236 0.950 . S
H229 C241 0.950 . S
H230 C238 0.950 . S
H231 C240 0.950 . S
H232 C242 0.950 . S
H233 C244 0.950 . S
H234 C246 0.950 . S
H235 C247 0.950 . S
C236 H228 0.950 . S
C236 C237 1.386 1_554 S
C236 C238 1.391 . S
C237 C236 1.386 1_556 S
C237 C241 1.393 . S
C238 H230 0.950 . S
C238 C236 1.391 . S
C238 C239 1.400 1_554 S
C239 C238 1.400 1_556 S
C239 C240 1.398 . S
C239 C245 1.491 1_556 S
C240 H231 0.950 . S
C240 C239 1.398 . S
C240 C241 1.391 . S
C241 H229 0.950 . S
C241 C237 1.393 . S
C241 C240 1.391 . S
C242 H232 0.950 . S
C242 C243 1.386 1_556 S
C242 C244 1.391 . S
C243 C242 1.386 1_554 S
C243 C247 1.393 . S
C244 H233 0.950 . S
C244 C242 1.391 . S
C244 C245 1.400 1_556 S
C245 C239 1.491 1_554 S
C245 C244 1.400 1_554 S
C245 C246 1.398 . S
C246 H234 0.950 . S
C246 C245 1.398 . S
C246 C247 1.391 . S
C247 H235 0.950 . S
C247 C243 1.393 . S
C247 C246 1.391 . S
H248 C256 0.950 1_554 S
H249 C261 0.950 . S
H250 C258 0.950 . S
H251 C260 0.950 . S
H252 C262 0.948 1_556 S
H253 C264 0.950 . S
H254 C266 0.950 . S
H255 C267 0.950 . S
C256 H248 0.950 1_556 S
C256 C257 1.386 . S
C256 C258 1.391 1_556 S
C257 C256 1.386 . S
C257 C261 1.393 . S
C258 H250 0.950 . S
C258 C256 1.391 1_554 S
C258 C259 1.400 1_554 S
C259 C258 1.400 1_556 S
C259 C260 1.398 . S
C259 C265 1.491 1_556 S
C260 H251 0.950 . S
C260 C259 1.398 . S
C260 C261 1.391 . S
C261 H249 0.950 . S
C261 C257 1.393 . S
C261 C260 1.391 . S
C262 H252 0.948 1_554 S
C262 C263 1.389 . S
C262 C264 1.390 1_554 S
C263 C262 1.389 . S
C263 C267 1.393 . S
C264 H253 0.950 . S
C264 C262 1.390 1_556 S
C264 C265 1.400 1_556 S
C265 C259 1.491 1_554 S
C265 C264 1.400 1_554 S
C265 C266 1.398 . S
C266 H254 0.950 . S
C266 C265 1.398 . S
C266 C267 1.391 . S
C267 H255 0.950 . S
C267 C263 1.393 . S
C267 C266 1.391 . S
H268 C276 0.950 1_554 S
H269 C281 0.950 . S
H270 C278 0.950 . S
H271 C280 0.950 . S
H272 C282 0.950 1_556 S
H273 C284 0.950 . S
H274 C286 0.950 . S
H275 C287 0.950 . S
C276 H268 0.950 1_556 S
C276 C277 1.386 . S
C276 C278 1.391 1_556 S
C277 C276 1.386 . S
C277 C281 1.393 . S
C278 H270 0.950 . S
C278 C276 1.391 1_554 S
C278 C279 1.400 1_554 S
C279 C278 1.400 1_556 S
C279 C280 1.398 . S
C279 C285 1.491 1_556 S
C280 H271 0.950 . S
C280 C279 1.398 . S
C280 C281 1.391 . S
C281 H269 0.950 . S
C281 C277 1.393 . S
C281 C280 1.391 . S
C282 H272 0.950 1_554 S
C282 C283 1.386 . S
C282 C284 1.391 1_554 S
C283 C282 1.386 . S
C283 C287 1.393 . S
C284 H273 0.950 . S
C284 C282 1.391 1_556 S
C284 C285 1.400 1_556 S
C285 C279 1.491 1_554 S
C285 C284 1.400 1_554 S
C285 C286 1.398 . S
C286 H274 0.950 . S
C286 C285 1.398 . S
C286 C287 1.391 . S
C287 H275 0.950 . S
C287 C283 1.393 . S
C287 C286 1.391 . S
H288 C296 0.950 . S
H289 C301 0.950 . S
H290 C298 0.950 . S
H291 C300 0.950 . S
H292 C302 0.950 . S
H293 C304 0.950 . S
H294 C306 0.950 . S
H295 C307 0.950 . S
C296 H288 0.950 . S
C296 C297 1.386 . S
C296 C298 1.391 . S
C297 C296 1.386 . S
C297 C301 1.393 . S
C298 H290 0.950 . S
C298 C296 1.391 . S
C298 C299 1.400 . S
C299 C298 1.400 . S
C299 C300 1.398 . S
C299 C305 1.491 . S
C300 H291 0.950 . S
C300 C299 1.398 . S
C300 C301 1.391 . S
C301 H289 0.950 . S
C301 C297 1.393 . S
C301 C300 1.391 . S
C302 H292 0.950 . S
C302 C303 1.386 . S
C302 C304 1.391 . S
C303 C302 1.386 . S
C303 C307 1.393 . S
C304 H293 0.950 . S
C304 C302 1.391 . S
C304 C305 1.400 . S
C305 C299 1.491 . S
C305 C304 1.400 . S
C305 C306 1.398 . S
C306 H294 0.950 . S
C306 C305 1.398 . S
C306 C307 1.391 . S
C307 H295 0.950 . S
C307 C303 1.393 . S
C307 C306 1.391 . S
H308 C316 0.950 . S
H309 C321 0.950 . S
H310 C318 0.950 . S
H311 C320 0.950 . S
H312 C322 0.950 . S
H313 C324 0.950 . S
H314 C326 0.950 . S
H315 C327 0.950 . S
C316 H308 0.950 . S
C316 C317 1.386 . S
C316 C318 1.391 . S
C317 C316 1.386 . S
C317 C321 1.393 . S
C318 H310 0.950 . S
C318 C316 1.391 . S
C318 C319 1.400 . S
C319 C318 1.400 . S
C319 C320 1.398 . S
C319 C325 1.491 . S
C320 H311 0.950 . S
C320 C319 1.398 . S
C320 C321 1.391 . S
C321 H309 0.950 . S
C321 C317 1.393 . S
C321 C320 1.391 . S
C322 H312 0.950 . S
C322 C323 1.386 . S
C322 C324 1.391 . S
C323 C322 1.386 . S
C323 C327 1.393 . S
C324 H313 0.950 . S
C324 C322 1.391 . S
C324 C325 1.400 . S
C325 C319 1.491 . S
C325 C324 1.400 . S
C325 C326 1.398 . S
C326 H314 0.950 . S
C326 C325 1.398 . S
C326 C327 1.391 . S
C327 H315 0.950 . S
C327 C323 1.393 . S
C327 C326 1.391 . S
H328 C336 0.950 . S
H329 C341 0.950 . S
H330 C338 0.950 . S
H331 C340 0.950 . S
H332 C342 0.950 . S
H333 C344 0.950 . S
H334 C346 0.950 . S
H335 C347 0.950 . S
C336 H328 0.950 . S
C336 C337 1.386 . S
C336 C338 1.391 . S
C337 C336 1.386 . S
C337 C341 1.393 . S
C338 H330 0.950 . S
C338 C336 1.391 . S
C338 C339 1.400 . S
C339 C338 1.400 . S
C339 C340 1.398 . S
C339 C345 1.491 . S
C340 H331 0.950 . S
C340 C339 1.398 . S
C340 C341 1.391 . S
C341 H329 0.950 . S
C341 C337 1.393 . S
C341 C340 1.391 . S
C342 H332 0.950 . S
C342 C343 1.386 . S
C342 C344 1.391 . S
C343 C342 1.386 . S
C343 C347 1.393 . S
C344 H333 0.950 . S
C344 C342 1.391 . S
C344 C345 1.400 . S
C345 C339 1.491 . S
C345 C344 1.400 . S
C345 C346 1.398 . S
C346 H334 0.950 . S
C346 C345 1.398 . S
C346 C347 1.391 . S
C347 H335 0.950 . S
C347 C343 1.393 . S
C347 C346 1.391 . S
H348 C356 0.950 . S
H349 C361 0.950 . S
H350 C358 0.950 . S
H351 C360 0.950 . S
H352 C362 0.950 . S
H353 C364 0.950 . S
H354 C366 0.950 . S
H355 C367 0.950 . S
C356 H348 0.950 . S
C356 C357 1.386 . S
C356 C358 1.391 . S
C357 C356 1.386 . S
C357 C361 1.393 . S
C358 H350 0.950 . S
C358 C356 1.391 . S
C358 C359 1.400 . S
C359 C358 1.400 . S
C359 C360 1.398 . S
C359 C365 1.491 . S
C360 H351 0.950 . S
C360 C359 1.398 . S
C360 C361 1.391 . S
C361 H349 0.950 . S
C361 C357 1.393 . S
C361 C360 1.391 . S
C362 H352 0.950 . S
C362 C363 1.386 . S
C362 C364 1.391 . S
C363 C362 1.386 . S
C363 C367 1.393 . S
C364 H353 0.950 . S
C364 C362 1.391 . S
C364 C365 1.400 . S
C365 C359 1.491 . S
C365 C364 1.400 . S
C365 C366 1.398 . S
C366 H354 0.950 . S
C366 C365 1.398 . S
C366 C367 1.391 . S
C367 H355 0.950 . S
C367 C363 1.393 . S
C367 C366 1.391 . S
H368 C376 0.950 . S
H369 C381 0.950 . S
H370 C378 0.950 . S
H371 C380 0.950 . S
H372 C382 0.950 . S
H373 C384 0.950 . S
H374 C386 0.950 . S
H375 C387 0.950 . S
C376 H368 0.950 . S
C376 C377 1.386 1_554 S
C376 C378 1.391 . S
C377 C376 1.386 1_556 S
C377 C381 1.393 . S
C378 H370 0.950 . S
C378 C376 1.391 . S
C378 C379 1.400 1_554 S
C379 C378 1.400 1_556 S
C379 C380 1.398 . S
C379 C385 1.491 1_556 S
C380 H371 0.950 . S
C380 C379 1.398 . S
C380 C381 1.391 . S
C381 H369 0.950 . S
C381 C377 1.393 . S
C381 C380 1.391 . S
C382 H372 0.950 . S
C382 C383 1.386 1_556 S
C382 C384 1.391 . S
C383 C382 1.386 1_554 S
C383 C387 1.393 . S
C384 H373 0.950 . S
C384 C382 1.391 . S
C384 C385 1.400 1_556 S
C385 C379 1.491 1_554 S
C385 C384 1.400 1_554 S
C385 C386 1.398 . S
C386 H374 0.950 . S
C386 C385 1.398 . S
C386 C387 1.391 . S
C387 H375 0.950 . S
C387 C383 1.393 . S
C387 C386 1.391 . S
H388 C396 0.944 1_554 S
H389 C401 0.950 . S
H390 C398 0.950 . S
H391 C400 0.950 . S
H392 C402 0.950 1_556 S
H393 C404 0.950 . S
H394 C406 0.950 . S
H395 C407 0.950 . S
C396 H388 0.944 1_556 S
C396 C397 1.396 . S
C396 C398 1.387 1_556 S
C397 C396 1.396 . S
C397 C401 1.393 . S
C398 H390 0.950 . S
C398 C396 1.387 1_554 S
C398 C399 1.400 1_554 S
C399 C398 1.400 1_556 S
C399 C400 1.398 . S
C399 C405 1.491 1_556 S
C400 H391 0.950 . S
C400 C399 1.398 . S
C400 C401 1.391 . S
C401 H389 0.950 . S
C401 C397 1.393 . S
C401 C400 1.391 . S
C402 H392 0.950 1_554 S
C402 C403 1.386 . S
C402 C404 1.391 1_554 S
C403 C402 1.386 . S
C403 C407 1.393 . S
C404 H393 0.950 . S
C404 C402 1.391 1_556 S
C404 C405 1.400 1_556 S
C405 C399 1.491 1_554 S
C405 C404 1.400 1_554 S
C405 C406 1.398 . S
C406 H394 0.950 . S
C406 C405 1.398 . S
C406 C407 1.391 . S
C407 H395 0.950 . S
C407 C403 1.393 . S
C407 C406 1.391 . S
H408 C416 0.950 . S
H409 C421 0.950 . S
H410 C418 0.950 . S
H411 C420 0.950 . S
H412 C422 0.950 . S
H413 C424 0.950 . S
H414 C426 0.950 . S
H415 C427 0.950 . S
C416 H408 0.950 . S
C416 C417 1.386 . S
C416 C418 1.391 . S
C417 C416 1.386 . S
C417 C421 1.393 1_556 S
C418 H410 0.950 . S
C418 C416 1.391 . S
C418 C419 1.400 . S
C419 C418 1.400 . S
C419 C420 1.398 1_556 S
C419 C425 1.491 1_556 S
C420 H411 0.950 . S
C420 C419 1.398 1_554 S
C420 C421 1.391 . S
C421 H409 0.950 . S
C421 C417 1.393 1_554 S
C421 C420 1.391 . S
C422 H412 0.950 . S
C422 C423 1.386 . S
C422 C424 1.391 . S
C423 C422 1.386 . S
C423 C427 1.393 1_554 S
C424 H413 0.950 . S
C424 C422 1.391 . S
C424 C425 1.400 . S
C425 C419 1.491 1_554 S
C425 C424 1.400 . S
C425 C426 1.398 1_554 S
C426 H414 0.950 . S
C426 C425 1.398 1_556 S
C426 C427 1.391 . S
C427 H415 0.950 . S
C427 C423 1.393 1_556 S
C427 C426 1.391 . S
H428 C436 0.950 . S
H429 C441 0.950 . S
H430 C438 0.950 . S
H431 C440 0.950 . S
H432 C442 0.950 . S
H433 C444 0.950 . S
H434 C446 0.950 . S
H435 C447 0.950 . S
C436 H428 0.950 . S
C436 C437 1.386 . S
C436 C438 1.391 . S
C437 C436 1.386 . S
C437 C441 1.393 1_554 S
C438 H430 0.950 . S
C438 C436 1.391 . S
C438 C439 1.400 . S
C439 C438 1.400 . S
C439 C440 1.398 1_554 S
C439 C445 1.491 1_554 S
C440 H431 0.950 . S
C440 C439 1.398 1_556 S
C440 C441 1.391 . S
C441 H429 0.950 . S
C441 C437 1.393 1_556 S
C441 C440 1.391 . S
C442 H432 0.950 . S
C442 C443 1.386 . S
C442 C444 1.391 . S
C443 C442 1.386 . S
C443 C447 1.393 1_556 S
C444 H433 0.950 . S
C444 C442 1.391 . S
C444 C445 1.400 . S
C445 C439 1.491 1_556 S
C445 C444 1.400 . S
C445 C446 1.398 1_556 S
C446 H434 0.950 . S
C446 C445 1.398 1_554 S
C446 C447 1.391 . S
C447 H435 0.950 . S
C447 C443 1.393 1_554 S
C447 C446 1.391 . S
H448 C456 0.950 . S
H449 C461 0.950 . S
H450 C458 0.950 . S
H451 C460 0.950 . S
H452 C462 0.950 . S
H453 C464 0.950 . S
H454 C466 0.950 . S
H455 C467 0.950 . S
C456 H448 0.950 . S
C456 C457 1.386 . S
C456 C458 1.391 . S
C457 C456 1.386 . S
C457 C461 1.393 . S
C458 H450 0.950 . S
C458 C456 1.391 . S
C458 C459 1.400 . S
C459 C458 1.400 . S
C459 C460 1.398 . S
C459 C465 1.491 . S
C460 H451 0.950 . S
C460 C459 1.398 . S
C460 C461 1.391 . S
C461 H449 0.950 . S
C461 C457 1.393 . S
C461 C460 1.391 . S
C462 H452 0.950 . S
C462 C463 1.386 . S
C462 C464 1.391 . S
C463 C462 1.386 . S
C463 C467 1.393 . S
C464 H453 0.950 . S
C464 C462 1.391 . S
C464 C465 1.400 . S
C465 C459 1.491 . S
C465 C464 1.400 . S
C465 C466 1.398 . S
C466 H454 0.950 . S
C466 C465 1.398 . S
C466 C467 1.391 . S
C467 H455 0.950 . S
C467 C463 1.393 . S
C467 C466 1.391 . S
H468 C476 0.950 . S
H469 C481 0.950 . S
H470 C478 0.950 . S
H471 C480 0.950 . S
H472 C482 0.950 . S
H473 C484 0.950 . S
H474 C486 0.950 . S
H475 C487 0.950 . S
C476 H468 0.950 . S
C476 C477 1.386 . S
C476 C478 1.391 . S
C477 C476 1.386 . S
C477 C481 1.393 . S
C478 H470 0.950 . S
C478 C476 1.391 . S
C478 C479 1.400 . S
C479 C478 1.400 . S
C479 C480 1.398 . S
C479 C485 1.491 . S
C480 H471 0.950 . S
C480 C479 1.398 . S
C480 C481 1.391 . S
C481 H469 0.950 . S
C481 C477 1.393 . S
C481 C480 1.391 . S
C482 H472 0.950 . S
C482 C483 1.386 . S
C482 C484 1.391 . S
C483 C482 1.386 . S
C483 C487 1.393 . S
C484 H473 0.950 . S
C484 C482 1.391 . S
C484 C485 1.400 . S
C485 C479 1.491 . S
C485 C484 1.400 . S
C485 C486 1.398 . S
C486 H474 0.950 . S
C486 C485 1.398 . S
C486 C487 1.391 . S
C487 H475 0.950 . S
C487 C483 1.393 . S
C487 C486 1.391 . S
H488 C496 0.950 . S
H489 C501 0.950 . S
H490 C498 0.950 . S
H491 C500 0.950 . S
H492 C502 0.950 . S
H493 C504 0.950 . S
H494 C506 0.950 . S
H495 C507 0.950 . S
C496 H488 0.950 . S
C496 C497 1.386 . S
C496 C498 1.391 . S
C497 C496 1.386 . S
C497 C501 1.393 . S
C498 H490 0.950 . S
C498 C496 1.391 . S
C498 C499 1.400 . S
C499 C498 1.400 . S
C499 C500 1.398 . S
C499 C505 1.491 . S
C500 H491 0.950 . S
C500 C499 1.398 . S
C500 C501 1.391 . S
C501 H489 0.950 . S
C501 C497 1.393 . S
C501 C500 1.391 . S
C502 H492 0.950 . S
C502 C503 1.386 . S
C502 C504 1.391 . S
C503 C502 1.386 . S
C503 C507 1.393 . S
C504 H493 0.950 . S
C504 C502 1.391 . S
C504 C505 1.400 . S
C505 C499 1.491 . S
C505 C504 1.400 . S
C505 C506 1.398 . S
C506 H494 0.950 . S
C506 C505 1.398 . S
C506 C507 1.391 . S
C507 H495 0.950 . S
C507 C503 1.393 . S
C507 C506 1.391 . S
H508 C516 0.950 . S
H509 C521 0.950 . S
H510 C518 0.950 . S
H511 C520 0.950 . S
H512 C522 0.950 . S
H513 C524 0.950 . S
H514 C526 0.950 . S
H515 C527 0.950 . S
C516 H508 0.950 . S
C516 C517 1.386 . S
C516 C518 1.391 . S
C517 C516 1.386 . S
C517 C521 1.393 . S
C518 H510 0.950 . S
C518 C516 1.391 . S
C518 C519 1.400 . S
C519 C518 1.400 . S
C519 C520 1.398 . S
C519 C525 1.491 . S
C520 H511 0.950 . S
C520 C519 1.398 . S
C520 C521 1.391 . S
C521 H509 0.950 . S
C521 C517 1.393 . S
C521 C520 1.391 . S
C522 H512 0.950 . S
C522 C523 1.386 . S
C522 C524 1.391 . S
C523 C522 1.386 . S
C523 C527 1.393 . S
C524 H513 0.950 . S
C524 C522 1.391 . S
C524 C525 1.400 . S
C525 C519 1.491 . S
C525 C524 1.400 . S
C525 C526 1.398 . S
C526 H514 0.950 . S
C526 C525 1.398 . S
C526 C527 1.391 . S
C527 H515 0.950 . S
C527 C523 1.393 . S
C527 C526 1.391 . S
H528 C536 0.950 . S
H529 C541 0.954 . S
H530 C538 0.950 . S
H531 C540 0.950 . S
H532 C542 0.950 . S
H533 C544 0.950 . S
H534 C546 0.950 . S
H535 C547 0.954 . S
C536 H528 0.950 . S
C536 C537 1.386 . S
C536 C538 1.391 . S
C537 C536 1.386 . S
C537 C541 1.386 1_556 S
C538 H530 0.950 . S
C538 C536 1.391 . S
C538 C539 1.400 . S
C539 C538 1.400 . S
C539 C540 1.398 1_556 S
C539 C545 1.491 1_566 S
C540 H531 0.950 . S
C540 C539 1.398 1_554 S
C540 C541 1.393 . S
C541 H529 0.954 . S
C541 C537 1.386 1_554 S
C541 C540 1.393 . S
C542 H532 0.950 . S
C542 C543 1.386 . S
C542 C544 1.391 . S
C543 C542 1.386 . S
C543 C547 1.386 1_554 S
C544 H533 0.950 . S
C544 C542 1.391 . S
C544 C545 1.400 . S
C545 C539 1.491 1_544 S
C545 C544 1.400 . S
C545 C546 1.398 1_554 S
C546 H534 0.950 . S
C546 C545 1.398 1_556 S
C546 C547 1.393 . S
C547 H535 0.954 . S
C547 C543 1.386 1_556 S
C547 C546 1.393 . S
H548 C556 0.950 . S
H549 C561 0.950 . S
H550 C558 0.950 . S
H551 C560 0.950 . S
H552 C562 0.950 . S
H553 C564 0.950 . S
H554 C566 0.950 . S
H555 C567 0.950 . S
C556 H548 0.950 . S
C556 C557 1.386 . S
C556 C558 1.391 . S
C557 C556 1.386 . S
C557 C561 1.393 . S
C558 H550 0.950 . S
C558 C556 1.391 . S
C558 C559 1.400 . S
C559 C558 1.400 . S
C559 C560 1.398 . S
C559 C565 1.491 1_554 S
C560 H551 0.950 . S
C560 C559 1.398 . S
C560 C561 1.391 . S
C561 H549 0.950 . S
C561 C557 1.393 . S
C561 C560 1.391 . S
C562 H552 0.950 . S
C562 C563 1.386 . S
C562 C564 1.391 . S
C563 C562 1.386 . S
C563 C567 1.393 . S
C564 H553 0.950 . S
C564 C562 1.391 . S
C564 C565 1.400 . S
C565 C559 1.491 1_556 S
C565 C564 1.400 . S
C565 C566 1.398 . S
C566 H554 0.950 . S
C566 C565 1.398 . S
C566 C567 1.391 . S
C567 H555 0.950 . S
C567 C563 1.393 . S
C567 C566 1.391 . S
H568 C576 0.950 . S
H569 C581 0.950 . S
H570 C578 0.950 . S
H571 C580 0.950 . S
H572 C582 0.950 . S
H573 C584 0.950 . S
H574 C586 0.950 . S
H575 C587 0.950 . S
C576 H568 0.950 . S
C576 C577 1.386 1_455 S
C576 C578 1.391 . S
C577 C576 1.386 1_655 S
C577 C581 1.393 1_556 S
C578 H570 0.950 . S
C578 C576 1.391 . S
C578 C579 1.400 1_455 S
C579 C578 1.400 1_655 S
C579 C580 1.398 1_556 S
C579 C585 1.491 1_656 S
C580 H571 0.950 . S
C580 C579 1.398 1_554 S
C580 C581 1.391 . S
C581 H569 0.950 . S
C581 C577 1.393 1_554 S
C581 C580 1.391 . S
C582 H572 0.950 . S
C582 C583 1.386 1_655 S
C582 C584 1.391 . S
C583 C582 1.386 1_455 S
C583 C587 1.393 1_554 S
C584 H573 0.950 . S
C584 C582 1.391 . S
C584 C585 1.400 1_655 S
C585 C579 1.491 1_454 S
C585 C584 1.400 1_455 S
C585 C586 1.398 1_554 S
C586 H574 0.950 . S
C586 C585 1.398 1_556 S
C586 C587 1.391 . S
C587 H575 0.950 . S
C587 C583 1.393 1_556 S
C587 C586 1.391 . S
H588 C596 0.950 . S
H589 C601 0.950 . S
H590 C598 0.950 . S
H591 C600 0.950 . S
H592 C602 0.950 . S
H593 C604 0.950 . S
H594 C606 0.950 . S
H595 C607 0.950 . S
C596 H588 0.950 . S
C596 C597 1.386 . S
C596 C598 1.391 . S
C597 C596 1.386 . S
C597 C601 1.393 1_554 S
C598 H590 0.950 . S
C598 C596 1.391 . S
C598 C599 1.400 . S
C599 C598 1.400 . S
C599 C600 1.398 1_554 S
C599 C605 1.491 1_444 S
C600 H591 0.950 . S
C600 C599 1.398 1_556 S
C600 C601 1.391 . S
C601 H589 0.950 . S
C601 C597 1.393 1_556 S
C601 C600 1.391 . S
C602 H592 0.950 . S
C602 C603 1.386 . S
C602 C604 1.391 . S
C603 C602 1.386 . S
C603 C607 1.393 1_556 S
C604 H593 0.950 . S
C604 C602 1.391 . S
C604 C605 1.400 . S
C605 C599 1.491 1_666 S
C605 C604 1.400 . S
C605 C606 1.398 1_556 S
C606 H594 0.950 . S
C606 C605 1.398 1_554 S
C606 C607 1.391 . S
C607 H595 0.950 . S
C607 C603 1.393 1_554 S
C607 C606 1.391 . S
H608 C616 0.950 . S
H609 C621 0.950 . S
H610 C618 0.950 . S
H611 C620 0.950 . S
H612 C622 0.950 . S
H613 C624 0.950 . S
H614 C626 0.950 . S
H615 C627 0.950 . S
C616 H608 0.950 . S
C616 C617 1.386 . S
C616 C618 1.391 . S
C617 C616 1.386 . S
C617 C621 1.393 . S
C618 H610 0.950 . S
C618 C616 1.391 . S
C618 C619 1.400 . S
C619 C618 1.400 . S
C619 C620 1.398 . S
C619 C625 1.491 . S
C620 H611 0.950 . S
C620 C619 1.398 . S
C620 C621 1.391 . S
C621 H609 0.950 . S
C621 C617 1.393 . S
C621 C620 1.391 . S
C622 H612 0.950 . S
C622 C623 1.386 . S
C622 C624 1.391 . S
C623 C622 1.386 . S
C623 C627 1.393 . S
C624 H613 0.950 . S
C624 C622 1.391 . S
C624 C625 1.400 . S
C625 C619 1.491 . S
C625 C624 1.400 . S
C625 C626 1.398 . S
C626 H614 0.950 . S
C626 C625 1.398 . S
C626 C627 1.391 . S
C627 H615 0.950 . S
C627 C623 1.393 . S
C627 C626 1.391 . S
H628 C636 0.950 . S
H629 C641 0.950 . S
H630 C638 0.950 . S
H631 C640 0.950 . S
H632 C642 0.950 . S
H633 C644 0.950 . S
H634 C646 0.950 . S
H635 C647 0.950 . S
C636 H628 0.950 . S
C636 C637 1.386 . S
C636 C638 1.391 . S
C637 C636 1.386 . S
C637 C641 1.393 . S
C638 H630 0.950 . S
C638 C636 1.391 . S
C638 C639 1.400 . S
C639 C638 1.400 . S
C639 C640 1.398 . S
C639 C645 1.491 1_455 S
C640 H631 0.950 . S
C640 C639 1.398 . S
C640 C641 1.391 . S
C641 H629 0.950 . S
C641 C637 1.393 . S
C641 C640 1.391 . S
C642 H632 0.950 . S
C642 C643 1.386 . S
C642 C644 1.391 . S
C643 C642 1.386 . S
C643 C647 1.393 . S
C644 H633 0.950 . S
C644 C642 1.391 . S
C644 C645 1.400 . S
C645 C639 1.491 1_655 S
C645 C644 1.400 . S
C645 C646 1.398 . S
C646 H634 0.950 . S
C646 C645 1.398 . S
C646 C647 1.391 . S
C647 H635 0.950 . S
C647 C643 1.393 . S
C647 C646 1.391 . S
H648 C656 0.950 . S
H649 C661 0.950 . S
H650 C658 0.950 . S
H651 C660 0.950 . S
H652 C662 0.950 . S
H653 C664 0.950 . S
H654 C666 0.950 . S
H655 C667 0.950 . S
C656 H648 0.950 . S
C656 C657 1.386 1_455 S
C656 C658 1.391 . S
C657 C656 1.386 1_655 S
C657 C661 1.393 . S
C658 H650 0.950 . S
C658 C656 1.391 . S
C658 C659 1.400 1_455 S
C659 C658 1.400 1_655 S
C659 C660 1.398 . S
C659 C665 1.491 1_665 S
C660 H651 0.950 . S
C660 C659 1.398 . S
C660 C661 1.391 . S
C661 H649 0.950 . S
C661 C657 1.393 . S
C661 C660 1.391 . S
C662 H652 0.950 . S
C662 C663 1.386 1_655 S
C662 C664 1.391 . S
C663 C662 1.386 1_455 S
C663 C667 1.393 . S
C664 H653 0.950 . S
C664 C662 1.391 . S
C664 C665 1.400 1_655 S
C665 C659 1.491 1_445 S
C665 C664 1.400 1_455 S
C665 C666 1.398 . S
C666 H654 0.950 . S
C666 C665 1.398 . S
C666 C667 1.391 . S
C667 H655 0.950 . S
C667 C663 1.393 . S
C667 C666 1.391 . S
H668 C676 0.950 . S
H669 C681 0.950 . S
H670 C678 0.950 . S
H671 C680 0.950 . S
H672 C682 0.950 . S
H673 C684 0.950 . S
H674 C686 0.950 . S
H675 C687 0.950 . S
C676 H668 0.950 . S
C676 C677 1.386 . S
C676 C678 1.391 . S
C677 C676 1.386 . S
C677 C681 1.393 1_565 S
C678 H670 0.950 . S
C678 C676 1.391 . S
C678 C679 1.400 . S
C679 C678 1.400 . S
C679 C680 1.398 1_565 S
C679 C685 1.491 1_565 S
C680 H671 0.950 . S
C680 C679 1.398 1_545 S
C680 C681 1.391 . S
C681 H669 0.950 . S
C681 C677 1.393 1_545 S
C681 C680 1.391 . S
C682 H672 0.950 . S
C682 C683 1.386 . S
C682 C684 1.391 . S
C683 C682 1.386 . S
C683 C687 1.393 1_545 S
C684 H673 0.950 . S
C684 C682 1.391 . S
C684 C685 1.400 . S
C685 C679 1.491 1_545 S
C685 C684 1.400 . S
C685 C686 1.398 1_545 S
C686 H674 0.950 . S
C686 C685 1.398 1_565 S
C686 C687 1.391 . S
C687 H675 0.950 . S
C687 C683 1.393 1_565 S
C687 C686 1.391 . S
H688 C696 0.950 . S
H689 C701 0.950 . S
H690 C698 0.950 . S
H691 C700 0.950 . S
H692 C702 0.950 . S
H693 C704 0.950 . S
H694 C706 0.950 . S
H695 C707 0.950 . S
C696 H688 0.950 . S
C696 C697 1.386 . S
C696 C698 1.391 . S
C697 C696 1.386 . S
C697 C701 1.393 . S
C698 H690 0.950 . S
C698 C696 1.391 . S
C698 C699 1.400 . S
C699 C698 1.400 . S
C699 C700 1.398 . S
C699 C705 1.491 . S
C700 H691 0.950 . S
C700 C699 1.398 . S
C700 C701 1.391 . S
C701 H689 0.950 . S
C701 C697 1.393 . S
C701 C700 1.391 . S
C702 H692 0.950 . S
C702 C703 1.386 . S
C702 C704 1.391 . S
C703 C702 1.386 . S
C703 C707 1.393 . S
C704 H693 0.950 . S
C704 C702 1.391 . S
C704 C705 1.400 . S
C705 C699 1.491 . S
C705 C704 1.400 . S
C705 C706 1.398 . S
C706 H694 0.950 . S
C706 C705 1.398 . S
C706 C707 1.391 . S
C707 H695 0.950 . S
C707 C703 1.393 . S
C707 C706 1.391 . S
H708 C716 0.950 . S
H709 C721 0.950 . S
H710 C718 0.950 . S
H711 C720 0.950 . S
H712 C722 0.950 . S
H713 C724 0.950 . S
H714 C726 0.950 . S
H715 C727 0.950 . S
C716 H708 0.950 . S
C716 C717 1.386 . S
C716 C718 1.391 . S
C717 C716 1.386 . S
C717 C721 1.393 . S
C718 H710 0.950 . S
C718 C716 1.391 . S
C718 C719 1.400 . S
C719 C718 1.400 . S
C719 C720 1.398 . S
C719 C725 1.491 . S
C720 H711 0.950 . S
C720 C719 1.398 . S
C720 C721 1.391 . S
C721 H709 0.950 . S
C721 C717 1.393 . S
C721 C720 1.391 . S
C722 H712 0.950 . S
C722 C723 1.386 . S
C722 C724 1.391 . S
C723 C722 1.386 . S
C723 C727 1.393 . S
C724 H713 0.950 . S
C724 C722 1.391 . S
C724 C725 1.400 . S
C725 C719 1.491 . S
C725 C724 1.400 . S
C725 C726 1.398 . S
C726 H714 0.950 . S
C726 C725 1.398 . S
C726 C727 1.391 . S
C727 H715 0.950 . S
C727 C723 1.393 . S
C727 C726 1.391 . S
H728 C736 0.950 . S
H729 C741 0.950 . S
H730 C738 0.950 . S
H731 C740 0.950 . S
H732 C742 0.950 . S
H733 C744 0.950 . S
H734 C746 0.950 . S
H735 C747 0.950 . S
C736 H728 0.950 . S
C736 C737 1.386 1_455 S
C736 C738 1.391 . S
C737 C736 1.386 1_655 S
C737 C741 1.393 . S
C738 H730 0.950 . S
C738 C736 1.391 . S
C738 C739 1.400 1_455 S
C739 C738 1.400 1_655 S
C739 C740 1.398 . S
C739 C745 1.491 . S
C740 H731 0.950 . S
C740 C739 1.398 . S
C740 C741 1.391 . S
C741 H729 0.950 . S
C741 C737 1.393 . S
C741 C740 1.391 . S
C742 H732 0.950 . S
C742 C743 1.386 . S
C742 C744 1.391 . S
C743 C742 1.386 . S
C743 C747 1.393 1_655 S
C744 H733 0.950 . S
C744 C742 1.391 . S
C744 C745 1.400 . S
C745 C739 1.491 . S
C745 C744 1.400 . S
C745 C746 1.398 1_655 S
C746 H734 0.950 . S
C746 C745 1.398 1_455 S
C746 C747 1.391 . S
C747 H735 0.950 . S
C747 C743 1.393 1_455 S
C747 C746 1.391 . S
H748 C756 0.950 . S
H749 C761 0.950 . S
H750 C758 0.950 . S
H751 C760 0.950 . S
H752 C762 0.950 . S
H753 C764 0.950 . S
H754 C766 0.950 . S
H755 C767 0.950 . S
C756 H748 0.950 . S
C756 C757 1.386 1_545 S
C756 C758 1.391 . S
C757 C756 1.386 1_565 S
C757 C761 1.393 . S
C758 H750 0.950 . S
C758 C756 1.391 . S
C758 C759 1.400 1_545 S
C759 C758 1.400 1_565 S
C759 C760 1.398 . S
C759 C765 1.491 . S
C760 H751 0.950 . S
C760 C759 1.398 . S
C760 C761 1.391 . S
C761 H749 0.950 . S
C761 C757 1.393 . S
C761 C760 1.391 . S
C762 H752 0.950 . S
C762 C763 1.386 . S
C762 C764 1.391 . S
C763 C762 1.386 . S
C763 C767 1.393 1_565 S
C764 H753 0.950 . S
C764 C762 1.391 . S
C764 C765 1.400 . S
C765 C759 1.491 . S
C765 C764 1.400 . S
C765 C766 1.398 1_565 S
C766 H754 0.950 . S
C766 C765 1.398 1_545 S
C766 C767 1.391 . S
C767 H755 0.950 . S
C767 C763 1.393 1_545 S
C767 C766 1.391 . S
H768 C776 0.950 . S
H769 C781 0.950 . S
H770 C778 0.950 . S
H771 C780 0.950 . S
H772 C782 0.950 . S
H773 C784 0.950 . S
H774 C786 0.950 . S
H775 C787 0.950 . S
C776 H768 0.950 . S
C776 C777 1.386 . S
C776 C778 1.391 . S
C777 C776 1.386 . S
C777 C781 1.393 . S
C778 H770 0.950 . S
C778 C776 1.391 . S
C778 C779 1.400 . S
C779 C778 1.400 . S
C779 C780 1.398 . S
C779 C785 1.491 . S
C780 H771 0.950 . S
C780 C779 1.398 . S
C780 C781 1.391 . S
C781 H769 0.950 . S
C781 C777 1.393 . S
C781 C780 1.391 . S
C782 H772 0.950 . S
C782 C783 1.386 . S
C782 C784 1.391 . S
C783 C782 1.386 . S
C783 C787 1.393 . S
C784 H773 0.950 . S
C784 C782 1.391 . S
C784 C785 1.400 . S
C785 C779 1.491 . S
C785 C784 1.400 . S
C785 C786 1.398 . S
C786 H774 0.950 . S
C786 C785 1.398 . S
C786 C787 1.391 . S
C787 H775 0.950 . S
C787 C783 1.393 . S
C787 C786 1.391 . S
H788 C796 0.950 . S
H789 C801 0.950 . S
H790 C798 0.950 . S
H791 C800 0.950 . S
H792 C802 0.950 . S
H793 C804 0.950 . S
H794 C806 0.950 . S
H795 C807 0.950 . S
C796 H788 0.950 . S
C796 C797 1.386 . S
C796 C798 1.391 . S
C797 C796 1.386 . S
C797 C801 1.393 . S
C798 H790 0.950 . S
C798 C796 1.391 . S
C798 C799 1.400 . S
C799 C798 1.400 . S
C799 C800 1.398 . S
C799 C805 1.491 . S
C800 H791 0.950 . S
C800 C799 1.398 . S
C800 C801 1.391 . S
C801 H789 0.950 . S
C801 C797 1.393 . S
C801 C800 1.391 . S
C802 H792 0.950 . S
C802 C803 1.386 . S
C802 C804 1.391 . S
C803 C802 1.386 . S
C803 C807 1.393 . S
C804 H793 0.950 . S
C804 C802 1.391 . S
C804 C805 1.400 . S
C805 C799 1.491 . S
C805 C804 1.400 . S
C805 C806 1.398 . S
C806 H794 0.950 . S
C806 C805 1.398 . S
C806 C807 1.391 . S
C807 H795 0.950 . S
C807 C803 1.393 . S
C807 C806 1.391 . S
H808 C816 0.950 . S
H809 C821 0.950 . S
H810 C818 0.950 . S
H811 C820 0.950 . S
H812 C822 0.950 . S
H813 C824 0.950 . S
H814 C826 0.950 . S
H815 C827 0.950 . S
C816 H808 0.950 . S
C816 C817 1.386 . S
C816 C818 1.391 . S
C817 C816 1.386 . S
C817 C821 1.393 1_455 S
C818 H810 0.950 . S
C818 C816 1.391 . S
C818 C819 1.400 . S
C819 C818 1.400 . S
C819 C820 1.398 1_455 S
C819 C825 1.491 . S
C820 H811 0.950 . S
C820 C819 1.398 1_655 S
C820 C821 1.391 . S
C821 H809 0.950 . S
C821 C817 1.393 1_655 S
C821 C820 1.391 . S
C822 H812 0.950 . S
C822 C823 1.386 1_655 S
C822 C824 1.391 . S
C823 C822 1.386 1_455 S
C823 C827 1.393 . S
C824 H813 0.950 . S
C824 C822 1.391 . S
C824 C825 1.400 1_655 S
C825 C819 1.491 . S
C825 C824 1.400 1_455 S
C825 C826 1.398 . S
C826 H814 0.950 . S
C826 C825 1.398 . S
C826 C827 1.391 . S
C827 H815 0.950 . S
C827 C823 1.393 . S
C827 C826 1.391 . S
H828 C836 0.950 . S
H829 C841 0.950 . S
H830 C838 0.950 . S
H831 C840 0.950 . S
H832 C842 0.950 . S
H833 C844 0.950 . S
H834 C846 0.950 . S
H835 C847 0.950 . S
C836 H828 0.950 . S
C836 C837 1.386 . S
C836 C838 1.391 . S
C837 C836 1.386 . S
C837 C841 1.393 1_545 S
C838 H830 0.950 . S
C838 C836 1.391 . S
C838 C839 1.400 . S
C839 C838 1.400 . S
C839 C840 1.398 1_545 S
C839 C845 1.491 . S
C840 H831 0.950 . S
C840 C839 1.398 1_565 S
C840 C841 1.391 . S
C841 H829 0.950 . S
C841 C837 1.393 1_565 S
C841 C840 1.391 . S
C842 H832 0.950 . S
C842 C843 1.386 1_565 S
C842 C844 1.391 . S
C843 C842 1.386 1_545 S
C843 C847 1.393 . S
C844 H833 0.950 . S
C844 C842 1.391 . S
C844 C845 1.400 1_565 S
C845 C839 1.491 . S
C845 C844 1.400 1_545 S
C845 C846 1.398 . S
C846 H834 0.950 . S
C846 C845 1.398 . S
C846 C847 1.391 . S
C847 H835 0.950 . S
C847 C843 1.393 . S
C847 C846 1.391 . S
C217 C5 1.184 . S
C223 C127 1.223 . S
C237 C140 1.224 . S
C243 C18 1.178 . S
C257 C147 1.232 . S
C263 C31 1.193 . S
C277 C114 1.232 . S
C283 C42 1.194 . S
C297 C57 1.206 . S
C303 C205 1.232 . S
C317 C160 1.230 . S
C323 C70 1.187 . S
C337 C173 1.230 . S
C343 C81 1.186 . S
C357 C186 1.226 . S
C363 C96 1.199 . S
C377 C109 1.178 . S
C383 C23 1.224 . S
C397 C122 1.193 . S
C403 C36 1.232 . S
C417 C135 1.206 . S
C423 C43 1.233 . S
C437 C10 1.227 . S
C443 C146 1.179 . S
C457 C159 1.186 . S
C463 C101 1.223 . S
C477 C172 1.183 . S
C483 C62 1.223 . S
C497 C75 1.224 . S
C503 C185 1.190 . S
C517 C200 1.199 . S
C523 C82 1.233 . S
C537 C108 1.632 . S
C543 C4 1.632 . S
C557 C17 1.647 . S
C563 C121 1.647 . S
C577 C134 1.636 . S
C583 C30 1.636 . S
C597 C49 1.658 . S
C603 C153 1.658 . S
C617 C166 1.659 . S
C623 C56 1.659 . S
C637 C69 1.639 . S
C643 C179 1.639 . S
C657 C192 1.653 . S
C663 C88 1.653 . S
C677 C199 1.657 . S
C683 C95 1.657 . S
C697 C55 1.732 . S
C703 C3 1.724 . S
C717 C68 1.730 . S
C723 C16 1.727 . S
C737 C29 1.723 . S
C743 C83 1.732 . S
C757 C94 1.732 . S
C763 C44 1.723 . S
C777 C107 1.725 . S
C783 C161 1.731 . S
C797 C174 1.723 . S
C803 C120 1.732 . S
C817 C187 1.731 . S
C823 C133 1.725 . S
C837 C198 1.726 . S
C843 C148 1.730 . S
