# Generated by pormake.
# Topology smu, (6)-cn, num edge types: 1
# Building blocks:
#     Node 0, Type 0, BuildingBlock: UKALOJ_clean_sbu_0, # of connection points: 6
#     Node 1, Type 0, BuildingBlock: UKALOJ_clean_sbu_0, # of connection points: 6
#     Node 2, Type 0, BuildingBlock: UKALOJ_clean_sbu_0, # of connection points: 6
#     Node 3, Type 0, BuildingBlock: UKALOJ_clean_sbu_0, # of connection points: 6
#     Node 4, Type 0, BuildingBlock: UKALOJ_clean_sbu_0, # of connection points: 6
#     Node 5, Type 0, BuildingBlock: UKALOJ_clean_sbu_0, # of connection points: 6
#     Edge 6, Type (0, 0), BuildingBlock: UVAHIK_clean_linker_0, # of connection points: 2
#     Edge 7, Type (0, 0), BuildingBlock: UVAHIK_clean_linker_0, # of connection points: 2
#     Edge 8, Type (0, 0), BuildingBlock: UVAHIK_clean_linker_0, # of connection points: 2
#     Edge 9, Type (0, 0), BuildingBlock: UVAHIK_clean_linker_0, # of connection points: 2
#     Edge 10, Type (0, 0), BuildingBlock: UVAHIK_clean_linker_0, # of connection points: 2
#     Edge 11, Type (0, 0), BuildingBlock: UVAHIK_clean_linker_0, # of connection points: 2
#     Edge 12, Type (0, 0), BuildingBlock: UVAHIK_clean_linker_0, # of connection points: 2
#     Edge 13, Type (0, 0), BuildingBlock: UVAHIK_clean_linker_0, # of connection points: 2
#     Edge 14, Type (0, 0), BuildingBlock: UVAHIK_clean_linker_0, # of connection points: 2
#     Edge 15, Type (0, 0), BuildingBlock: UVAHIK_clean_linker_0, # of connection points: 2
#     Edge 16, Type (0, 0), BuildingBlock: UVAHIK_clean_linker_0, # of connection points: 2
#     Edge 17, Type (0, 0), BuildingBlock: UVAHIK_clean_linker_0, # of connection points: 2
#     Edge 18, Type (0, 0), BuildingBlock: UVAHIK_clean_linker_0, # of connection points: 2
#     Edge 19, Type (0, 0), BuildingBlock: UVAHIK_clean_linker_0, # of connection points: 2
#     Edge 20, Type (0, 0), BuildingBlock: UVAHIK_clean_linker_0, # of connection points: 2
#     Edge 21, Type (0, 0), BuildingBlock: UVAHIK_clean_linker_0, # of connection points: 2
#     Edge 22, Type (0, 0), BuildingBlock: UVAHIK_clean_linker_0, # of connection points: 2
#     Edge 23, Type (0, 0), BuildingBlock: UVAHIK_clean_linker_0, # of connection points: 2
# Relax obj value: 0.199
# Max RMSD: 0.232
# Mean RMSD: 0.232
data_MOF--net-smu--node1-UKALOJ_clean_sbu_0--edge1-UVAHIK_clean_linker_0
_symmetry_space_group_name_H-M    P1
_symmetry_Int_Tables_number       1
_symmetry_cell_setting            triclinic
loop_
_symmetry_equiv_pos_as_xyz
'x, y, z'
_cell_length_a     35.32401
_cell_length_b     35.257886
_cell_length_c     48.971976
_cell_angle_alpha  89.978317
_cell_angle_beta   90.032141
_cell_angle_gamma 119.90021
loop_
_atom_site_label
_atom_site_type_symbol
_atom_site_fract_x
_atom_site_fract_y
_atom_site_fract_z
_atom_type_partial_charge
Zn0 Zn 0.3292 0.05502 0.28586 0.0
O1 O 0.28184 0.07331 0.29234 0.0
C2 C 0.26106 0.96571 0.27128 0.0
Zn3 Zn 0.31774 0.04901 0.24087 0.0
C4 C 0.26211 0.07696 0.27172 0.0
O5 O 0.26987 0.06726 0.24817 0.0
C6 C 0.38841 0.03189 0.25506 0.0
O7 O 0.36315 0.11547 0.23453 0.0
O8 O 0.37511 0.12201 0.27877 0.0
N9 N 0.30019 0.03987 0.20054 0.0
C10 C 0.32197 0.04665 0.17676 0.0
C11 C 0.25444 0.01873 0.16711 0.0
N12 N 0.25829 0.02252 0.19441 0.0
N13 N 0.29384 0.03343 0.1554 0.0
C14 C 0.32185 0.0444 0.34932 0.0
C15 C 0.38745 0.08723 0.36191 0.0
N16 N 0.34539 0.06308 0.32658 0.0
N17 N 0.3861 0.0898 0.33449 0.0
N18 N 0.34757 0.05874 0.37172 0.0
H19 H 0.2591 0.01843 0.3688 0.0
H20 H 0.26697 0.97985 0.34923 0.0
H21 H 0.25752 0.01939 0.33191 0.0
C22 C 0.27348 0.01399 0.34976 0.0
C23 C 0.37063 0.068 0.17461 0.0
H24 H 0.38672 0.08888 0.19263 0.0
H25 H 0.38243 0.08803 0.15576 0.0
H26 H 0.37992 0.04226 0.17374 0.0
O27 O 0.36703 0.03274 0.23438 0.0
O28 O 0.37795 0.03847 0.2787 0.0
C29 C 0.38227 0.1393 0.25514 0.0
O30 O 0.2818 0.98832 0.29195 0.0
O31 O 0.27108 0.98299 0.24772 0.0
Zn32 Zn 0.72064 0.66663 0.24043 0.0
O33 O 0.73832 0.61874 0.23463 0.0
C34 C 0.63216 0.59764 0.25529 0.0
Zn35 Zn 0.71523 0.65584 0.28563 0.0
C36 C 0.74351 0.6001 0.25535 0.0
O37 O 0.73508 0.60874 0.27907 0.0
C38 C 0.69664 0.72576 0.27013 0.0
O39 O 0.78106 0.70257 0.29185 0.0
O40 O 0.78759 0.7126 0.24752 0.0
N41 N 0.70731 0.64089 0.32666 0.0
C42 C 0.71307 0.66537 0.34913 0.0
C43 C 0.68981 0.59995 0.36256 0.0
N44 N 0.69299 0.60028 0.33512 0.0
N45 N 0.702 0.64038 0.37188 0.0
C46 C 0.71035 0.66143 0.17637 0.0
C47 C 0.76049 0.72531 0.16503 0.0
N48 N 0.73 0.68279 0.19962 0.0
N49 N 0.76117 0.72242 0.19242 0.0
N50 N 0.72878 0.68751 0.15444 0.0
H51 H 0.67897 0.59548 0.19171 0.0
H52 H 0.67531 0.59989 0.15508 0.0
H53 H 0.64299 0.6129 0.17745 0.0
C54 C 0.67499 0.61455 0.17507 0.0
C55 C 0.73169 0.71395 0.34896 0.0
H56 H 0.75239 0.72906 0.33076 0.0
H57 H 0.75129 0.7288 0.36767 0.0
H58 H 0.70447 0.72103 0.34867 0.0
O59 O 0.69712 0.70438 0.29092 0.0
O60 O 0.70428 0.71565 0.2467 0.0
C61 C 0.80484 0.72089 0.27115 0.0
O62 O 0.65413 0.61907 0.23457 0.0
O63 O 0.64971 0.60759 0.27881 0.0
Zn64 Zn 0.93178 0.27289 0.28374 0.0
O65 O 0.91189 0.20683 0.29082 0.0
C66 C 0.01945 0.29069 0.26638 0.0
Zn67 Zn 0.93532 0.26534 0.2386 0.0
C68 C 0.90714 0.18254 0.27047 0.0
O69 O 0.91637 0.19917 0.24667 0.0
C70 C 0.95499 0.35437 0.25184 0.0
O71 O 0.86911 0.24644 0.23484 0.0
O72 O 0.8649 0.25392 0.27907 0.0
N73 N 0.93748 0.25393 0.19763 0.0
C74 C 0.96205 0.27905 0.17667 0.0
C75 C 0.92044 0.21507 0.16086 0.0
N76 N 0.91165 0.21426 0.18767 0.0
N77 N 0.95183 0.2554 0.15338 0.0
C78 C 0.94574 0.27665 0.34738 0.0
C79 C 0.91021 0.30775 0.36002 0.0
N80 N 0.9284 0.28392 0.32472 0.0
N81 N 0.90636 0.30322 0.33271 0.0
N82 N 0.93495 0.29159 0.36991 0.0
H83 H 0.96452 0.23274 0.32895 0.0
H84 H 0.96393 0.23255 0.36585 0.0
H85 H 0.00672 0.27779 0.34737 0.0
C86 C 0.97141 0.25329 0.34736 0.0
C87 C -0.00243 0.32574 0.1794 0.0
H88 H 0.98336 0.34731 0.17651 0.0
H89 H 0.02317 0.33413 0.16368 0.0
H90 H 0.01254 0.3319 0.19998 0.0
O91 O 0.95193 0.33073 0.23144 0.0
O92 O 0.94977 0.33855 0.27577 0.0
C93 C 0.84653 0.24335 0.25577 0.0
O94 O -0.00196 0.29001 0.28744 0.0
O95 O 0.0012 0.28289 0.24308 0.0
Zn96 Zn 0.05611 0.32842 0.78348 0.0
O97 O 0.12245 0.37514 0.78745 0.0
C98 C 0.03582 0.39756 0.77267 0.0
Zn99 Zn 0.05784 0.33965 0.73844 0.0
C100 C 0.14396 0.39456 0.76614 0.0
O101 O 0.12451 0.38687 0.7432 0.0
C102 C 0.97091 0.27047 0.75568 0.0
O103 O 0.07736 0.29351 0.72933 0.0
O104 O 0.07508 0.28175 0.77345 0.0
N105 N 0.05996 0.35616 0.69795 0.0
C106 C 0.04836 0.33256 0.67462 0.0
C107 C 0.06525 0.3978 0.66409 0.0
N108 N 0.07063 0.3967 0.69126 0.0
N109 N 0.05157 0.35803 0.65315 0.0
C110 C 0.05881 0.33106 0.84792 0.0
C111 C 0.03682 0.264 0.8565 0.0
N112 N 0.05185 0.31021 0.82372 0.0
N113 N 0.03825 0.26861 0.8292 0.0
N114 N 0.0494 0.30262 0.86887 0.0
H115 H 0.09705 0.39694 0.83279 0.0
H116 H 0.09682 0.39173 0.86961 0.0
H117 H 0.04938 0.386 0.85209 0.0
C118 C 0.07686 0.37932 0.85077 0.0
C119 C 0.03179 0.28436 0.67301 0.0
H120 H 0.01691 0.26792 0.69254 0.0
H121 H 0.05961 0.27912 0.66847 0.0
H122 H 0.00749 0.26931 0.65632 0.0
O123 O 0.99159 0.29111 0.73447 0.0
O124 O 0.99002 0.2808 0.7787 0.0
C125 C 0.08324 0.2742 0.74941 0.0
O126 O 0.03912 0.37641 0.79267 0.0
O127 O 0.04034 0.3873 0.74849 0.0
Zn128 Zn 0.26801 0.94613 0.7836 0.0
O129 O 0.24699 0.8799 0.7911 0.0
C130 C 0.35554 0.96177 0.76998 0.0
Zn131 Zn 0.27359 0.93862 0.73879 0.0
C132 C 0.24217 0.8553 0.77088 0.0
O133 O 0.2522 0.87174 0.74702 0.0
C134 C 0.29462 0.02851 0.75175 0.0
O135 O 0.20825 0.92076 0.73204 0.0
O136 O 0.202 0.92796 0.77603 0.0
N137 N 0.2814 0.92893 0.69828 0.0
C138 C 0.27619 0.94674 0.6752 0.0
C139 C 0.29873 0.90323 0.66342 0.0
N140 N 0.29526 0.90178 0.69087 0.0
N141 N 0.28719 0.93144 0.6531 0.0
C142 C 0.27538 0.95193 0.84771 0.0
C143 C 0.2365 0.9812 0.85619 0.0
N144 N 0.25988 0.95717 0.82364 0.0
N145 N 0.23573 0.9753 0.82905 0.0
N146 N 0.26129 0.96704 0.86854 0.0
H147 H 0.29668 0.9078 0.83332 0.0
H148 H 0.29481 0.91179 0.87009 0.0
H149 H 0.33744 0.9557 0.85062 0.0
C150 C 0.3024 0.93026 0.85062 0.0
C151 C 0.25825 0.97729 0.67414 0.0
H152 H 0.23743 0.97297 0.69208 0.0
H153 H 0.23894 0.97192 0.65521 0.0
H154 H 0.28582 0.01138 0.67395 0.0
O155 O 0.29309 0.00522 0.73153 0.0
O156 O 0.28733 0.01203 0.77555 0.0
C157 C 0.18478 0.9178 0.75243 0.0
O158 O 0.33346 0.96209 0.7904 0.0
O159 O 0.33866 0.95468 0.74627 0.0
Zn160 Zn 0.65952 0.72232 0.73945 0.0
O161 O 0.70587 0.78872 0.73419 0.0
C162 C 0.72881 0.70328 0.75474 0.0
Zn163 Zn 0.66841 0.72533 0.78481 0.0
C164 C 0.72343 0.81108 0.75554 0.0
O165 O 0.71417 0.79228 0.7787 0.0
C166 C 0.60148 0.63747 0.76844 0.0
O167 O 0.62019 0.74284 0.79079 0.0
O168 O 0.61182 0.74116 0.74626 0.0
N169 N 0.68384 0.73339 0.82572 0.0
C170 C 0.66226 0.71283 0.84871 0.0
C171 C 0.72552 0.76336 0.86069 0.0
N172 N 0.72308 0.76477 0.83331 0.0
N173 N 0.68783 0.73096 0.87088 0.0
C174 C 0.66901 0.72134 0.6758 0.0
C175 C 0.60363 0.69861 0.66274 0.0
N176 N 0.64486 0.71547 0.69842 0.0
N177 N 0.60429 0.70147 0.69019 0.0
N178 N 0.64381 0.71067 0.65317 0.0
H179 H 0.73271 0.76064 0.69391 0.0
H180 H 0.73216 0.75911 0.65697 0.0
H181 H 0.72433 0.71232 0.67618 0.0
C182 C 0.71744 0.73972 0.67578 0.0
C183 C 0.61563 0.67694 0.84952 0.0
H184 H 0.59657 0.68182 0.83328 0.0
H185 H 0.60073 0.67572 0.86968 0.0
H186 H 0.61431 0.64522 0.84603 0.0
O187 O 0.62131 0.65868 0.78974 0.0
O188 O 0.61216 0.65626 0.7453 0.0
C189 C 0.60222 0.74866 0.76995 0.0
O190 O 0.70834 0.70511 0.73388 0.0
O191 O 0.7177 0.70934 0.77831 0.0
C192 C 0.31127 0.98066 0.90788 0.0
C193 C 0.26998 0.97019 0.89751 0.0
C194 C 0.32031 0.98856 0.93586 0.0
C195 C 0.29511 0.03501 0.99291 0.0
H196 H 0.31924 0.96367 0.04227 0.0
C197 C 0.2748 0.04133 0.10833 0.0
C198 C 0.30112 0.0337 0.12642 0.0
C199 C 0.27777 0.03729 0.08021 0.0
C200 C 0.31354 0.9846 0.02874 0.0
H201 H 0.206 0.95958 0.90843 0.0
H202 H 0.22228 0.97469 0.95697 0.0
H203 H 0.312 0.94797 0.99322 0.0
H204 H 0.35075 0.01482 0.12899 0.0
H205 H 0.35767 0.00984 0.07969 0.0
H206 H 0.29705 0.07211 0.02784 0.0
C207 C 0.24727 0.97607 0.94351 0.0
C208 C 0.30918 0.97537 1.00069 0.0
C209 C 0.23801 0.96742 0.91578 0.0
C210 C 0.33106 0.0224 0.11564 0.0
C211 C 0.33437 0.01869 0.08734 0.0
C212 C 0.30022 0.04474 0.02074 0.0
C213 C 0.28861 0.98723 0.95373 0.0
C214 C 0.29876 -0.00019 0.98273 0.0
C215 C 0.3074 0.02566 0.06925 0.0
C216 C 0.30813 0.01885 0.03921 0.0
H217 H 0.33725 0.98484 0.89439 0.0
H218 H 0.35259 -0.00239 0.94335 0.0
H219 H 0.28759 0.05462 0.97931 0.0
H220 H 0.25112 0.04962 0.11607 0.0
H221 H 0.25565 0.0419 0.06716 0.0
C222 C 0.63781 0.72412 0.60443 0.0
C223 C 0.65479 0.70918 0.62502 0.0
C224 C 0.6457 0.72001 0.5769 0.0
C225 C 0.71627 0.69783 0.53065 0.0
H226 H 0.6211 0.66558 0.47956 0.0
C227 C 0.71577 0.63597 0.42082 0.0
C228 C 0.70043 0.65202 0.39987 0.0
C229 C 0.71244 0.64542 0.44818 0.0
C230 C 0.64819 0.67508 0.49349 0.0
H231 H 0.69196 0.67673 0.633 0.0
H232 H 0.7057 0.66923 0.58503 0.0
H233 H 0.61138 0.67765 0.52735 0.0
H234 H 0.66796 0.68895 0.39112 0.0
H235 H 0.6626 0.70606 0.4388 0.0
H236 H 0.75269 0.6943 0.49669 0.0
C237 C 0.68744 0.68548 0.59005 0.0
C238 C 0.64268 0.68213 0.52094 0.0
C239 C 0.67975 0.68989 0.61758 0.0
C240 C 0.68125 0.6773 0.40679 0.0
C241 C 0.6776 0.6865 0.43413 0.0
C242 C 0.72168 0.6905 0.50319 0.0
C243 C 0.67024 0.70019 0.5693 0.0
C244 C 0.67662 0.69358 0.53992 0.0
C245 C 0.69302 0.67055 0.45517 0.0
C246 C 0.68768 0.67902 0.4843 0.0
H247 H 0.61832 0.73893 0.60971 0.0
H248 H 0.63245 0.73232 0.56158 0.0
H249 H 0.74336 0.70723 0.54455 0.0
H250 H 0.73026 0.61603 0.41595 0.0
H251 H 0.7241 0.63215 0.4639 0.0
C252 C 0.97194 0.30409 0.11312 0.0
C253 C 0.96988 0.2678 0.12639 0.0
C254 C 0.98489 0.31281 0.08569 0.0
C255 C 0.99355 0.25576 0.02402 0.0
H256 H 0.05752 0.37258 0.99338 0.0
C257 C 0.06089 0.28369 0.91527 0.0
C258 C 0.04976 0.30851 0.89805 0.0
C259 C 0.05515 0.28348 0.94347 0.0
C260 C 0.03948 0.33981 1.0017 0.0
H261 H 0.98115 0.21329 0.12208 0.0
H262 H 0.00557 0.22923 0.0748 0.0
H263 H 0.04064 0.36316 0.04231 0.0
H264 H 0.02403 0.35293 0.89717 0.0
H265 H 0.01517 0.35359 0.94675 0.0
H266 H 0.99302 0.23244 0.98364 0.0
C267 C -0.00411 0.25031 0.08498 0.0
C268 C 0.02964 0.33433 0.0297 0.0
C269 C 0.98233 0.24131 0.11215 0.0
C270 C 0.03422 0.33453 0.90986 0.0
C271 C 0.02879 0.33461 0.93825 0.0
C272 C 0.00383 0.26126 0.99627 0.0
C273 C -0.00369 0.28551 0.07109 0.0
C274 C 0.00677 0.29215 0.04128 0.0
C275 C 0.03812 0.30814 0.95524 0.0
C276 C 0.02712 0.30327 0.9848 0.0
H277 H 0.96178 0.32453 0.12364 0.0
H278 H 0.98434 0.33992 0.07569 0.0
H279 H 0.97471 0.22275 0.03183 0.0
H280 H 0.0729 0.26335 0.90674 0.0
H281 H 0.06311 0.26315 0.95607 0.0
C282 C 0.31273 0.00089 0.40666 0.0
C283 C 0.33715 0.0454 0.39976 0.0
C284 C 0.30469 0.98791 0.434 0.0
C285 C 0.30275 0.02766 0.50346 0.0
H286 H 0.31758 0.93059 0.52643 0.0
C287 C 0.30914 0.98767 0.61716 0.0
C288 C 0.28931 0.94349 0.62484 0.0
C289 C 0.31278 -0.00061 0.58962 0.0
C290 C 0.31262 0.95732 0.52033 0.0
H291 H 0.37291 0.11116 0.41583 0.0
H292 H 0.35893 0.08864 0.46382 0.0
H293 H 0.32756 0.95236 0.47859 0.0
H294 H 0.25834 0.87699 0.60998 0.0
H295 H 0.26387 0.89715 0.5617 0.0
H296 H 0.28774 0.03262 0.54518 0.0
C297 C 0.34536 0.06378 0.44809 0.0
C298 C 0.31843 0.96985 0.49288 0.0
C299 C 0.35359 0.07669 0.42071 0.0
C300 C 0.27354 0.91124 0.60447 0.0
C301 C 0.27696 0.92288 0.57689 0.0
C302 C 0.29673 0.015 0.5309 0.0
C303 C 0.32104 0.01919 0.45505 0.0
C304 C 0.31377 0.00529 0.48414 0.0
C305 C 0.29679 0.96716 0.5691 0.0
C306 C 0.30182 0.9798 0.53973 0.0
H307 H 0.30087 0.97604 0.39094 0.0
H308 H 0.28573 0.95333 0.43867 0.0
H309 H 0.29835 0.05472 0.4973 0.0
H310 H 0.32301 0.01323 0.63241 0.0
H311 H 0.32917 0.0338 0.58439 0.0
C312 C 0.69087 0.75094 0.91922 0.0
C313 C 0.67977 0.71866 0.89918 0.0
C314 C 0.68782 0.74028 0.94692 0.0
C315 C 0.69741 0.66483 0.99285 0.0
H316 H 0.65071 0.71055 0.04714 0.0
C317 C 0.74968 0.6919 0.10618 0.0
C318 C 0.71705 0.67985 0.12604 0.0
C319 C 0.7394 0.68903 0.07841 0.0
C320 C 0.66343 0.69712 0.03221 0.0
H321 H 0.65715 0.6501 0.89214 0.0
H322 H 0.65232 0.63127 0.94082 0.0
H323 H 0.64143 0.72007 0.99855 0.0
H324 H 0.64825 0.65581 0.13267 0.0
H325 H 0.63009 0.65121 0.08393 0.0
H326 H 0.72092 0.6434 0.02652 0.0
C327 C 0.6627 0.66471 0.93505 0.0
C328 C 0.65837 0.70282 1.00444 0.0
C329 C 0.66504 0.67532 0.90729 0.0
C330 C 0.67376 0.66441 0.11768 0.0
C331 C 0.66353 0.66221 0.08987 0.0
C332 C 0.70306 0.65972 0.02063 0.0
C333 C 0.67449 0.69722 0.95513 0.0
C334 C 0.67582 0.68725 0.98447 0.0
C335 C 0.69635 0.67491 0.06997 0.0
C336 C 0.68663 0.67633 0.04059 0.0
H337 H 0.70267 0.78462 0.91334 0.0
H338 H 0.69762 0.76611 0.96191 0.0
H339 H 0.71151 0.6528 0.97792 0.0
H340 H 0.78331 0.70427 0.11225 0.0
H341 H 0.76546 0.69953 0.06357 0.0
C342 C 0.98701 0.29838 0.40659 0.0
C343 C 0.94597 0.2919 0.39839 0.0
C344 C -0.00198 0.30168 0.43434 0.0
C345 C 0.97956 0.34046 0.4981 0.0
H346 H 0.01541 0.26617 0.53497 0.0
C347 C 0.00565 0.35302 0.61419 0.0
C348 C 0.03809 0.3459 0.62533 0.0
C349 C 0.99378 0.34368 0.58676 0.0
C350 C 0.00621 0.28776 0.52498 0.0
H351 H 0.88481 0.28455 0.41308 0.0
H352 H 0.90473 0.29195 0.46137 0.0
H353 H -0.00285 0.25532 0.48635 0.0
H354 H 0.08379 0.3236 0.617 0.0
H355 H 0.06485 0.30907 0.56849 0.0
H356 H 0.99024 0.37439 0.53584 0.0
C357 C 0.92787 0.29346 0.44629 0.0
C358 C -0.00449 0.28128 0.49714 0.0
C359 C 0.91654 0.28926 0.41867 0.0
C360 C 0.0584 0.32894 0.60871 0.0
C361 C 0.04727 0.32046 0.58099 0.0
C362 C 0.99111 0.3476 0.52568 0.0
C363 C 0.96877 0.29991 0.45439 0.0
C364 C 0.98158 0.30725 0.48358 0.0
C365 C 0.01501 0.32812 0.56952 0.0
C366 C 0.00404 0.32099 0.53972 0.0
H367 H 0.01141 0.30274 0.39174 0.0
H368 H 0.03007 0.30742 0.44009 0.0
H369 H 0.96954 0.36137 0.48797 0.0
H370 H 0.98941 0.36577 0.62684 0.0
H371 H 0.9679 0.34879 0.57915 0.0
C372 C 0.4493 0.03876 0.22554 0.0
C373 C 0.4302 0.03241 0.25153 0.0
C374 C 0.49366 0.05226 0.22296 0.0
C375 C 0.59338 0.07396 0.26202 0.0
H376 H 0.64966 0.17617 0.21519 0.0
C377 C 0.77228 0.20758 0.27694 0.0
C378 C 0.79854 0.22192 0.25343 0.0
C379 C 0.72705 0.18107 0.27466 0.0
C380 C 0.63445 0.14741 0.22811 0.0
H381 H 0.44124 0.03 0.29494 0.0
H382 H 0.51821 0.05386 0.2905 0.0
H383 H 0.57064 0.12954 0.21371 0.0
H384 H 0.79777 0.22146 0.2091 0.0
H385 H 0.7187 0.17568 0.20521 0.0
H386 H 0.65732 0.09304 0.27712 0.0
C387 C 0.49931 0.04862 0.27205 0.0
C388 C 0.58918 0.12043 0.22713 0.0
C389 C 0.45506 0.03507 0.27462 0.0
C390 C 0.77843 0.21097 0.22761 0.0
C391 C 0.73317 0.18473 0.22536 0.0
C392 C 0.63864 0.10113 0.26312 0.0
C393 C 0.5196 0.05954 0.24632 0.0
C394 C 0.568 0.08384 0.24444 0.0
C395 C 0.70717 0.16869 0.24886 0.0
C396 C 0.6595 0.13857 0.24654 0.0
H397 H 0.43095 0.03654 0.20731 0.0
H398 H 0.50814 0.05936 0.20279 0.0
H399 H 0.57816 0.04572 0.27535 0.0
H400 H 0.78674 0.21536 0.29712 0.0
H401 H 0.70765 0.16982 0.29312 0.0
C402 C 0.5764 0.53782 0.22576 0.0
C403 C 0.59044 0.55618 0.25184 0.0
C404 C 0.54489 0.49366 0.22292 0.0
C405 C 0.46682 0.39349 0.26161 0.0
H406 H 0.50831 0.33599 0.21231 0.0
C407 C 0.42126 0.21423 0.27548 0.0
C408 C 0.40788 0.1874 0.25218 0.0
C409 C 0.4396 0.25945 0.27299 0.0
C410 C 0.49594 0.35155 0.22589 0.0
H411 H 0.57867 0.54394 0.2953 0.0
H412 H 0.52437 0.46732 0.2904 0.0
H413 H 0.54219 0.4154 0.21158 0.0
H414 H 0.40503 0.18721 0.2079 0.0
H415 H 0.43779 0.26648 0.2036 0.0
H416 H 0.42176 0.32951 0.27665 0.0
C417 C 0.53755 0.48669 0.27206 0.0
C418 C 0.51512 0.39706 0.22537 0.0
C419 C 0.56894 0.53076 0.27489 0.0
C420 C 0.41504 0.20699 0.22626 0.0
C421 C 0.43373 0.25234 0.22377 0.0
C422 C 0.44785 0.348 0.26224 0.0
C423 C 0.52675 0.46711 0.2461 0.0
C424 C 0.50145 0.41866 0.24366 0.0
C425 C 0.44527 0.27888 0.24716 0.0
C426 C 0.46291 0.32669 0.24482 0.0
H427 H 0.59186 0.55655 0.20757 0.0
H428 H 0.53645 0.47977 0.2026 0.0
H429 H 0.45505 0.40901 0.27566 0.0
H430 H 0.41623 0.20023 0.29576 0.0
H431 H 0.44903 0.27923 0.29134 0.0
C432 C 0.94847 0.40807 0.22168 0.0
C433 C 0.95539 0.39609 0.24779 0.0
C434 C 0.93557 0.43943 0.21879 0.0
C435 C 0.91579 0.51955 0.2571 0.0
H436 H 0.81127 0.4715 0.21237 0.0
C437 C 0.78125 0.56253 0.2752 0.0
C438 C 0.76522 0.57381 0.25218 0.0
C439 C 0.80824 0.54441 0.27211 0.0
C440 C 0.84068 0.48566 0.22466 0.0
H441 H 0.95965 0.41145 0.29098 0.0
H442 H 0.9368 0.46545 0.28601 0.0
H443 H 0.85829 0.43941 0.21026 0.0
H444 H 0.76306 0.57285 0.20787 0.0
H445 H 0.80971 0.54051 0.20255 0.0
H446 H 0.89691 0.56463 0.2723 0.0
C447 C 0.94113 0.45081 0.26771 0.0
C448 C 0.86788 0.46754 0.22332 0.0
C449 C 0.9541 0.41959 0.27059 0.0
C450 C 0.77489 0.56451 0.22602 0.0
C451 C 0.80164 0.54606 0.22294 0.0
C452 C 0.88841 0.53747 0.25856 0.0
C453 C 0.92946 0.45935 0.24194 0.0
C454 C 0.90524 0.48363 0.23998 0.0
C455 C 0.81944 0.53689 0.24595 0.0
C456 C 0.85009 0.52003 0.24281 0.0
H457 H 0.94966 0.3909 0.20365 0.0
H458 H 0.92786 0.44616 0.19858 0.0
H459 H 0.94462 0.5331 0.26989 0.0
H460 H 0.77445 0.56929 0.29564 0.0
H461 H 0.82082 0.53679 0.2902 0.0
C462 C 0.04329 0.45753 0.80355 0.0
C463 C 0.03585 0.43903 0.77731 0.0
C464 C 0.05584 0.50166 0.80687 0.0
C465 C 0.07237 0.60136 0.76951 0.0
H466 H 0.17614 0.65988 0.81476 0.0
C467 C 0.2046 0.77964 0.75164 0.0
C468 C 0.21981 0.80733 0.77453 0.0
C469 C 0.17797 0.73456 0.75492 0.0
C470 C 0.14689 0.64401 0.80234 0.0
H471 H 0.03086 0.45093 0.73433 0.0
H472 H 0.05311 0.52745 0.74001 0.0
H473 H 0.13137 0.58044 0.81622 0.0
H474 H 0.22057 0.80922 0.81883 0.0
H475 H 0.17463 0.73008 0.82449 0.0
H476 H 0.08933 0.66505 0.75471 0.0
C477 C 0.04935 0.50826 0.75813 0.0
C478 C 0.12099 0.59848 0.80329 0.0
C479 C 0.03672 0.46423 0.75483 0.0
C480 C 0.20938 0.78874 0.80079 0.0
C481 C 0.18306 0.7435 0.80406 0.0
C482 C 0.0985 0.64683 0.76839 0.0
C483 C 0.06111 0.52803 0.78402 0.0
C484 C 0.08398 0.5765 0.78639 0.0
C485 C 0.16632 0.71613 0.78113 0.0
C486 C 0.13657 0.66846 0.7843 0.0
H487 H 0.04249 0.43892 0.82134 0.0
H488 H 0.06363 0.51565 0.82718 0.0
H489 H 0.0437 0.58558 0.7566 0.0
H490 H 0.21195 0.79286 0.73113 0.0
H491 H 0.16617 0.71409 0.7369 0.0
C492 C 0.41879 0.95731 0.75121 0.0
C493 C 0.39632 0.96035 0.77401 0.0
C494 C 0.44911 0.94323 0.75421 0.0
C495 C 0.46686 0.87134 0.79974 0.0
H496 H 0.56314 0.89926 0.75048 0.0
C497 C 0.56641 0.78048 0.79889 0.0
C498 C 0.57543 0.76994 0.7729 0.0
C499 C 0.54721 0.8067 0.80152 0.0
C500 C 0.5362 0.89104 0.76431 0.0
H501 H 0.39178 0.95588 0.81819 0.0
H502 H 0.44544 0.9321 0.82348 0.0
H503 H 0.53086 0.94637 0.75188 0.0
H504 H 0.56953 0.77703 0.72931 0.0
H505 H 0.53589 0.82245 0.73397 0.0
H506 H 0.47195 0.81565 0.81185 0.0
C507 C 0.43864 0.93942 0.80319 0.0
C508 C 0.51781 0.91807 0.76517 0.0
C509 C 0.40821 0.9535 0.80017 0.0
C510 C 0.56311 0.78456 0.74963 0.0
C511 C 0.54428 0.81099 0.75228 0.0
C512 C 0.48548 0.84448 0.799 0.0
C513 C 0.45782 0.9321 0.78011 0.0
C514 C 0.48219 0.90794 0.7824 0.0
C515 C 0.53702 0.82312 0.77823 0.0
C516 C 0.51959 0.85346 0.78077 0.0
H517 H 0.41064 0.96264 0.73077 0.0
H518 H 0.46312 0.93791 0.73595 0.0
H519 H 0.43902 0.86211 0.81295 0.0
H520 H 0.57554 0.76977 0.81722 0.0
H521 H 0.54189 0.81548 0.82177 0.0
C522 C 0.21645 0.43239 0.74308 0.0
C523 C 0.19201 0.42093 0.76733 0.0
C524 C 0.26171 0.45119 0.74394 0.0
C525 C 0.35112 0.46327 0.7892 0.0
H526 H 0.42322 0.55131 0.73603 0.0
C527 C 0.53773 0.58253 0.79554 0.0
C528 C 0.56054 0.59516 0.77065 0.0
C529 C 0.49315 0.55181 0.79587 0.0
C530 C 0.40344 0.52614 0.75071 0.0
H531 H 0.19601 0.42207 0.81156 0.0
H532 H 0.27542 0.45654 0.81307 0.0
H533 H 0.34483 0.52199 0.73568 0.0
H534 H 0.55639 0.5808 0.72731 0.0
H535 H 0.4788 0.52703 0.728 0.0
H536 H 0.41066 0.4692 0.80483 0.0
C537 C 0.25941 0.44971 0.79337 0.0
C538 C 0.35848 0.50941 0.75056 0.0
C539 C 0.21398 0.43046 0.79251 0.0
C540 C 0.53949 0.57232 0.74674 0.0
C541 C 0.49505 0.54168 0.74709 0.0
C542 C 0.39638 0.48049 0.78953 0.0
C543 C 0.28371 0.45951 0.76907 0.0
C544 C 0.33171 0.47773 0.76975 0.0
C545 C 0.471 0.5333 0.77134 0.0
C546 C 0.42287 0.51197 0.77019 0.0
H547 H 0.20051 0.42512 0.72333 0.0
H548 H 0.27926 0.45778 0.72481 0.0
H549 H 0.33136 0.43841 0.80402 0.0
H550 H 0.55306 0.59928 0.81433 0.0
H551 H 0.47536 0.54574 0.81488 0.0
C552 C 0.2211 0.11035 0.2509 0.0
C553 C 0.23599 0.09891 0.2744 0.0
C554 C 0.20373 0.13813 0.25277 0.0
C555 C 0.15369 0.18168 0.29913 0.0
H556 H 0.19454 0.27522 0.24569 0.0
C557 C 0.07769 0.29084 0.2955 0.0
C558 C 0.06149 0.29159 0.26941 0.0
C559 C 0.10933 0.27846 0.29871 0.0
C560 C 0.18291 0.24936 0.26078 0.0
H561 H 0.24195 0.10557 0.3185 0.0
H562 H 0.21088 0.15369 0.32173 0.0
H563 H 0.22512 0.22657 0.24614 0.0
H564 H 0.06984 0.28561 0.22601 0.0
H565 H 0.1244 0.26371 0.23157 0.0
H566 H 0.11017 0.20308 0.31308 0.0
C567 C 0.2131 0.1414 0.30187 0.0
C568 C 0.20025 0.22143 0.26096 0.0
C569 C 0.23077 0.11378 0.3 0.0
C570 C 0.08121 0.28483 0.24644 0.0
C571 C 0.11275 0.27241 0.24964 0.0
C572 C 0.13615 0.20945 0.29886 0.0
C573 C 0.20061 0.1548 0.27817 0.0
C574 C 0.18499 0.18665 0.27968 0.0
C575 C 0.12539 0.2668 0.27587 0.0
C576 C 0.14978 0.24292 0.27923 0.0
H577 H 0.22453 0.09938 0.23086 0.0
H578 H 0.19338 0.14715 0.23424 0.0
H579 H 0.14128 0.15506 0.31373 0.0
H580 H 0.06376 0.29668 0.31359 0.0
H581 H 0.1193 0.27551 0.31916 0.0
C582 C 0.87961 0.75908 0.25081 0.0
C583 C 0.85283 0.74639 0.2741 0.0
C584 C 0.92464 0.77669 0.25336 0.0
C585 C 0.01671 0.83164 0.30062 0.0
H586 H 0.07226 0.7884 0.25106 0.0
C587 C 0.20196 0.90916 0.30079 0.0
C588 C 0.22005 0.92357 0.27471 0.0
C589 C 0.1579 0.87763 0.30368 0.0
C590 C 0.05725 0.80076 0.26507 0.0
H591 H 0.85256 0.74422 0.3184 0.0
H592 H 0.93146 0.77564 0.3228 0.0
H593 H 0.9931 0.7568 0.24994 0.0
H594 H 0.20759 0.91206 0.23123 0.0
H595 H 0.13116 0.85769 0.23621 0.0
H596 H 0.08077 0.87679 0.31503 0.0
C597 C 0.91746 0.77161 0.3026 0.0
C598 C 0.01198 0.78281 0.26435 0.0
C599 C 0.87231 0.7537 0.30005 0.0
C600 C 0.1946 0.90212 0.25166 0.0
C601 C 0.15063 0.87069 0.25453 0.0
C602 C 0.062 0.84978 0.30124 0.0
C603 C 0.9439 0.78227 0.27924 0.0
C604 C 0.9914 0.7988 0.28167 0.0
C605 C 0.13124 0.85983 0.28052 0.0
C606 C 0.08291 0.83526 0.28303 0.0
H607 H 0.86569 0.75393 0.23051 0.0
H608 H 0.94438 0.78552 0.23502 0.0
H609 H 0.00173 0.84472 0.31413 0.0
H610 H 0.22082 0.9244 0.31897 0.0
H611 H 0.14413 0.86907 0.32401 0.0
C612 C 0.87217 0.10736 0.2507 0.0
C613 C 0.88499 0.13456 0.27383 0.0
C614 C 0.8448 0.06231 0.25337 0.0
C615 C 0.8055 0.9705 0.30089 0.0
H616 H 0.70903 0.91522 0.24973 0.0
C617 C 0.69839 0.78473 0.29954 0.0
C618 C 0.69604 0.76715 0.27343 0.0
C619 C 0.71075 0.82883 0.30258 0.0
C620 C 0.73573 0.93016 0.2642 0.0
H621 H 0.88103 0.13553 0.31804 0.0
H622 H 0.83362 0.05646 0.32265 0.0
H623 H 0.75643 0.99453 0.24904 0.0
H624 H 0.69932 0.78055 0.22996 0.0
H625 H 0.72104 0.85702 0.23522 0.0
H626 H 0.78616 0.90617 0.3153 0.0
C627 C 0.84453 0.07023 0.30248 0.0
C628 C 0.76294 0.9755 0.26373 0.0
C629 C 0.87173 0.11544 0.29982 0.0
C630 C 0.70134 0.79315 0.25041 0.0
C631 C 0.71365 0.83713 0.25344 0.0
C632 C 0.77845 0.92511 0.30126 0.0
C633 C 0.8299 0.04343 0.2792 0.0
C634 C 0.79875 0.99595 0.28159 0.0
C635 C 0.72069 0.85599 0.27956 0.0
C636 C 0.74395 0.90432 0.28243 0.0
H637 H 0.88185 0.12098 0.23039 0.0
H638 H 0.8348 0.04226 0.23513 0.0
H639 H 0.83294 0.98543 0.31484 0.0
H640 H 0.6937 0.7654 0.31767 0.0
H641 H 0.71484 0.8422 0.32298 0.0
C642 C 0.11882 0.24315 0.71943 0.0
C643 C 0.10553 0.24851 0.74553 0.0
C644 C 0.14608 0.22514 0.71647 0.0
C645 C 0.22832 0.21231 0.75462 0.0
H646 H 0.20372 0.11784 0.70443 0.0
C647 C 0.29083 0.09254 0.77001 0.0
C648 C 0.29524 0.07039 0.74746 0.0
C649 C 0.27815 0.12386 0.76634 0.0
C650 C 0.21183 0.145 0.71807 0.0
H651 H 0.10875 0.23719 0.78886 0.0
H652 H 0.15601 0.20587 0.78361 0.0
H653 H 0.15721 0.15076 0.70444 0.0
H654 H 0.29543 0.06803 0.70324 0.0
H655 H 0.27387 0.12321 0.69678 0.0
H656 H 0.28242 0.20624 0.76865 0.0
C657 C 0.14591 0.21617 0.76551 0.0
C658 C 0.18494 0.16361 0.71817 0.0
C659 C 0.11844 0.2337 0.76845 0.0
C660 C 0.29156 0.08385 0.72105 0.0
C661 C 0.27887 0.11528 0.71736 0.0
C662 C 0.25541 0.194 0.75439 0.0
C663 C 0.16082 0.21264 0.73958 0.0
C664 C 0.19213 0.19647 0.73705 0.0
C665 C 0.26989 0.13399 0.74002 0.0
C666 C 0.24668 0.15917 0.73672 0.0
H667 H 0.10948 0.25428 0.70137 0.0
H668 H 0.15696 0.22256 0.69624 0.0
H669 H 0.23514 0.23831 0.769 0.0
H670 H 0.29378 0.08331 0.79067 0.0
H671 H 0.27153 0.13747 0.78431 0.0
C672 C 0.1173 0.88228 0.72362 0.0
C673 C 0.13689 0.8962 0.74943 0.0
C674 C 0.07215 0.85498 0.72134 0.0
C675 C 0.97893 0.77367 0.76096 0.0
H676 H 0.90805 0.79436 0.7093 0.0
C677 C 0.79642 0.70893 0.77454 0.0
C678 C 0.7703 0.7031 0.75152 0.0
C679 C 0.84045 0.72184 0.77149 0.0
C680 C 0.92743 0.78736 0.72337 0.0
H681 H 0.12423 0.89436 0.79293 0.0
H682 H 0.04553 0.84706 0.78885 0.0
H683 H 0.98698 0.84238 0.70941 0.0
H684 H 0.76836 0.7002 0.70728 0.0
H685 H 0.84522 0.72229 0.70194 0.0
H686 H 0.91943 0.71916 0.77529 0.0
C687 C 0.0652 0.85665 0.77047 0.0
C688 C 0.97262 0.81513 0.72354 0.0
C689 C 0.11021 0.88415 0.77275 0.0
C690 C 0.78781 0.70536 0.72542 0.0
C691 C 0.83193 0.71825 0.72235 0.0
C692 C 0.93379 0.74572 0.76068 0.0
C693 C 0.0459 0.84092 0.74483 0.0
C694 C -0.0014 0.80926 0.74285 0.0
C695 C 0.85919 0.72888 0.74535 0.0
C696 C 0.9074 0.75299 0.74239 0.0
H697 H 0.13698 0.89102 0.70526 0.0
H698 H 0.05802 0.84343 0.70132 0.0
H699 H -0.00159 0.76785 0.77565 0.0
H700 H 0.78387 0.707 0.79499 0.0
H701 H 0.86042 0.72974 0.78969 0.0
C702 C 0.9163 0.20733 0.72799 0.0
C703 C 0.92903 0.22917 0.75323 0.0
C704 C 0.88583 0.16261 0.72706 0.0
C705 C 0.86034 0.07079 0.7705 0.0
H706 H 0.77064 0.00066 0.71772 0.0
C707 C 0.76232 0.88396 0.7782 0.0
C708 C 0.74993 0.85921 0.75404 0.0
C709 C 0.78211 0.92937 0.77721 0.0
C710 C 0.79606 0.01989 0.73236 0.0
H711 H 0.91527 0.22312 0.79668 0.0
H712 H 0.86188 0.14536 0.79495 0.0
H713 H 0.80288 0.08038 0.7176 0.0
H714 H 0.75011 0.86279 0.70981 0.0
H715 H 0.78617 0.94255 0.70806 0.0
H716 H 0.85515 0.01122 0.78473 0.0
C717 C 0.87626 0.16245 0.77604 0.0
C718 C 0.81413 0.06537 0.73241 0.0
C719 C 0.90667 0.20699 0.77699 0.0
C720 C 0.75927 0.881 0.72879 0.0
C721 C 0.77946 0.92662 0.72779 0.0
C722 C 0.84275 0.02562 0.77026 0.0
C723 C 0.86767 0.13939 0.75133 0.0
C724 C 0.84618 0.09112 0.75167 0.0
C725 C 0.79051 0.95126 0.75203 0.0
C726 C 0.81019 -0.00046 0.75133 0.0
H727 H 0.93277 0.22361 0.70929 0.0
H728 H 0.87958 0.14559 0.70773 0.0
H729 H 0.88595 0.08998 0.78506 0.0
H730 H 0.75531 0.86822 0.79802 0.0
H731 H 0.78958 0.94719 0.79629 0.0
loop_
_geom_bond_atom_site_label_1
_geom_bond_atom_site_label_2
_geom_bond_distance
_geom_bond_site_symmetry_2
_ccdc_geom_bond_type
Zn0 O1 2.055 . S
Zn0 O8 2.046 . S
Zn0 N16 2.036 . S
Zn0 O28 2.053 . S
Zn0 O30 2.066 . S
O1 Zn0 2.055 . S
O1 C4 1.259 . S
C2 O30 1.256 . S
C2 O31 1.244 . S
Zn3 O5 2.046 . S
Zn3 O7 2.055 . S
Zn3 N9 2.036 . S
Zn3 O27 2.066 . S
Zn3 O31 2.053 . S
C4 O1 1.259 . S
C4 O5 1.254 . S
O5 Zn3 2.046 . S
O5 C4 1.254 . S
C6 O27 1.256 . S
C6 O28 1.244 . S
O7 Zn3 2.055 . S
O7 C29 1.259 . S
O8 Zn0 2.046 . S
O8 C29 1.254 . S
N9 Zn3 2.036 . S
N9 C10 1.298 . S
N9 N12 1.398 . S
C10 N9 1.298 . S
C10 N13 1.367 . S
C10 C23 1.481 . S
C11 N12 1.299 . S
C11 N13 1.379 . S
N12 N9 1.398 . S
N12 C11 1.299 . S
N13 C10 1.367 . S
N13 C11 1.379 . S
C14 N16 1.298 . S
C14 N18 1.367 . S
C14 C22 1.481 . S
C15 N17 1.299 . S
C15 N18 1.379 . S
N16 Zn0 2.036 . S
N16 C14 1.298 . S
N16 N17 1.398 . S
N17 C15 1.299 . S
N17 N16 1.398 . S
N18 C14 1.367 . S
N18 C15 1.379 . S
H19 C22 0.980 . S
H20 C22 0.981 . S
H21 C22 0.981 . S
C22 C14 1.481 . S
C22 H19 0.980 . S
C22 H20 0.981 . S
C22 H21 0.981 . S
C23 C10 1.481 . S
C23 H24 0.980 . S
C23 H25 0.981 . S
C23 H26 0.981 . S
H24 C23 0.980 . S
H25 C23 0.981 . S
H26 C23 0.981 . S
O27 Zn3 2.066 . S
O27 C6 1.256 . S
O28 Zn0 2.053 . S
O28 C6 1.244 . S
C29 O7 1.259 . S
C29 O8 1.254 . S
O30 Zn0 2.066 . S
O30 C2 1.256 . S
O31 C2 1.244 . S
O31 Zn3 2.053 . S
Zn32 O33 2.055 . S
Zn32 O40 2.046 . S
Zn32 N48 2.036 . S
Zn32 O60 2.053 . S
Zn32 O62 2.066 . S
O33 Zn32 2.055 . S
O33 C36 1.259 . S
C34 O62 1.256 . S
C34 O63 1.244 . S
Zn35 O37 2.046 . S
Zn35 O39 2.055 . S
Zn35 N41 2.036 . S
Zn35 O59 2.066 . S
Zn35 O63 2.053 . S
C36 O33 1.259 . S
C36 O37 1.254 . S
O37 Zn35 2.046 . S
O37 C36 1.254 . S
C38 O59 1.256 . S
C38 O60 1.244 . S
O39 Zn35 2.055 . S
O39 C61 1.259 . S
O40 Zn32 2.046 . S
O40 C61 1.254 . S
N41 Zn35 2.036 . S
N41 C42 1.298 . S
N41 N44 1.398 . S
C42 N41 1.298 . S
C42 N45 1.367 . S
C42 C55 1.481 . S
C43 N44 1.299 . S
C43 N45 1.379 . S
N44 N41 1.398 . S
N44 C43 1.299 . S
N45 C42 1.367 . S
N45 C43 1.379 . S
C46 N48 1.298 . S
C46 N50 1.367 . S
C46 C54 1.481 . S
C47 N49 1.299 . S
C47 N50 1.379 . S
N48 Zn32 2.036 . S
N48 C46 1.298 . S
N48 N49 1.398 . S
N49 C47 1.299 . S
N49 N48 1.398 . S
N50 C46 1.367 . S
N50 C47 1.379 . S
H51 C54 0.980 . S
H52 C54 0.981 . S
H53 C54 0.981 . S
C54 C46 1.481 . S
C54 H51 0.980 . S
C54 H52 0.981 . S
C54 H53 0.981 . S
C55 C42 1.481 . S
C55 H56 0.980 . S
C55 H57 0.981 . S
C55 H58 0.981 . S
H56 C55 0.980 . S
H57 C55 0.981 . S
H58 C55 0.981 . S
O59 Zn35 2.066 . S
O59 C38 1.256 . S
O60 Zn32 2.053 . S
O60 C38 1.244 . S
C61 O39 1.259 . S
C61 O40 1.254 . S
O62 Zn32 2.066 . S
O62 C34 1.256 . S
O63 C34 1.244 . S
O63 Zn35 2.053 . S
Zn64 O65 2.055 . S
Zn64 O72 2.046 . S
Zn64 N80 2.036 . S
Zn64 O92 2.053 . S
Zn64 O94 2.066 . S
O65 Zn64 2.055 . S
O65 C68 1.259 . S
C66 O94 1.256 . S
C66 O95 1.244 . S
Zn67 O69 2.046 . S
Zn67 O71 2.055 . S
Zn67 N73 2.036 . S
Zn67 O91 2.066 . S
Zn67 O95 2.053 . S
C68 O65 1.259 . S
C68 O69 1.254 . S
O69 Zn67 2.046 . S
O69 C68 1.254 . S
C70 O91 1.256 . S
C70 O92 1.244 . S
O71 Zn67 2.055 . S
O71 C93 1.259 . S
O72 Zn64 2.046 . S
O72 C93 1.254 . S
N73 Zn67 2.036 . S
N73 C74 1.298 . S
N73 N76 1.398 . S
C74 N73 1.298 . S
C74 N77 1.367 . S
C74 C87 1.481 . S
C75 N76 1.299 . S
C75 N77 1.379 . S
N76 N73 1.398 . S
N76 C75 1.299 . S
N77 C74 1.367 . S
N77 C75 1.379 . S
C78 N80 1.298 . S
C78 N82 1.367 . S
C78 C86 1.481 . S
C79 N81 1.299 . S
C79 N82 1.379 . S
N80 Zn64 2.036 . S
N80 C78 1.298 . S
N80 N81 1.398 . S
N81 C79 1.299 . S
N81 N80 1.398 . S
N82 C78 1.367 . S
N82 C79 1.379 . S
H83 C86 0.980 . S
H84 C86 0.981 . S
H85 C86 0.981 . S
C86 C78 1.481 . S
C86 H83 0.980 . S
C86 H84 0.981 . S
C86 H85 0.981 . S
C87 C74 1.481 . S
C87 H88 0.980 . S
C87 H89 0.981 . S
C87 H90 0.981 . S
H88 C87 0.980 . S
H89 C87 0.981 . S
H90 C87 0.981 . S
O91 Zn67 2.066 . S
O91 C70 1.256 . S
O92 Zn64 2.053 . S
O92 C70 1.244 . S
C93 O71 1.259 . S
C93 O72 1.254 . S
O94 Zn64 2.066 . S
O94 C66 1.256 . S
O95 C66 1.244 . S
O95 Zn67 2.053 . S
Zn96 O97 2.055 . S
Zn96 O104 2.046 . S
Zn96 N112 2.036 . S
Zn96 O124 2.053 . S
Zn96 O126 2.066 . S
O97 Zn96 2.055 . S
O97 C100 1.259 . S
C98 O126 1.256 . S
C98 O127 1.244 . S
Zn99 O101 2.046 . S
Zn99 O103 2.055 . S
Zn99 N105 2.036 . S
Zn99 O123 2.066 . S
Zn99 O127 2.053 . S
C100 O97 1.259 . S
C100 O101 1.254 . S
O101 Zn99 2.046 . S
O101 C100 1.254 . S
C102 O123 1.256 . S
C102 O124 1.244 . S
O103 Zn99 2.055 . S
O103 C125 1.259 . S
O104 Zn96 2.046 . S
O104 C125 1.254 . S
N105 Zn99 2.036 . S
N105 C106 1.298 . S
N105 N108 1.398 . S
C106 N105 1.298 . S
C106 N109 1.367 . S
C106 C119 1.481 . S
C107 N108 1.299 . S
C107 N109 1.379 . S
N108 N105 1.398 . S
N108 C107 1.299 . S
N109 C106 1.367 . S
N109 C107 1.379 . S
C110 N112 1.298 . S
C110 N114 1.367 . S
C110 C118 1.481 . S
C111 N113 1.299 . S
C111 N114 1.379 . S
N112 Zn96 2.036 . S
N112 C110 1.298 . S
N112 N113 1.398 . S
N113 C111 1.299 . S
N113 N112 1.398 . S
N114 C110 1.367 . S
N114 C111 1.379 . S
H115 C118 0.980 . S
H116 C118 0.981 . S
H117 C118 0.981 . S
C118 C110 1.481 . S
C118 H115 0.980 . S
C118 H116 0.981 . S
C118 H117 0.981 . S
C119 C106 1.481 . S
C119 H120 0.980 . S
C119 H121 0.981 . S
C119 H122 0.981 . S
H120 C119 0.980 . S
H121 C119 0.981 . S
H122 C119 0.981 . S
O123 Zn99 2.066 . S
O123 C102 1.256 . S
O124 Zn96 2.053 . S
O124 C102 1.244 . S
C125 O103 1.259 . S
C125 O104 1.254 . S
O126 Zn96 2.066 . S
O126 C98 1.256 . S
O127 C98 1.244 . S
O127 Zn99 2.053 . S
Zn128 O129 2.055 . S
Zn128 O136 2.046 . S
Zn128 N144 2.036 . S
Zn128 O156 2.053 . S
Zn128 O158 2.066 . S
O129 Zn128 2.055 . S
O129 C132 1.259 . S
C130 O158 1.256 . S
C130 O159 1.244 . S
Zn131 O133 2.046 . S
Zn131 O135 2.055 . S
Zn131 N137 2.036 . S
Zn131 O155 2.066 . S
Zn131 O159 2.053 . S
C132 O129 1.259 . S
C132 O133 1.254 . S
O133 Zn131 2.046 . S
O133 C132 1.254 . S
C134 O155 1.256 . S
C134 O156 1.244 . S
O135 Zn131 2.055 . S
O135 C157 1.259 . S
O136 Zn128 2.046 . S
O136 C157 1.254 . S
N137 Zn131 2.036 . S
N137 C138 1.298 . S
N137 N140 1.398 . S
C138 N137 1.298 . S
C138 N141 1.367 . S
C138 C151 1.481 . S
C139 N140 1.299 . S
C139 N141 1.379 . S
N140 N137 1.398 . S
N140 C139 1.299 . S
N141 C138 1.367 . S
N141 C139 1.379 . S
C142 N144 1.298 . S
C142 N146 1.367 . S
C142 C150 1.481 . S
C143 N145 1.299 . S
C143 N146 1.379 . S
N144 Zn128 2.036 . S
N144 C142 1.298 . S
N144 N145 1.398 . S
N145 C143 1.299 . S
N145 N144 1.398 . S
N146 C142 1.367 . S
N146 C143 1.379 . S
H147 C150 0.980 . S
H148 C150 0.981 . S
H149 C150 0.981 . S
C150 C142 1.481 . S
C150 H147 0.980 . S
C150 H148 0.981 . S
C150 H149 0.981 . S
C151 C138 1.481 . S
C151 H152 0.980 . S
C151 H153 0.981 . S
C151 H154 0.981 . S
H152 C151 0.980 . S
H153 C151 0.981 . S
H154 C151 0.981 . S
O155 Zn131 2.066 . S
O155 C134 1.256 . S
O156 Zn128 2.053 . S
O156 C134 1.244 . S
C157 O135 1.259 . S
C157 O136 1.254 . S
O158 Zn128 2.066 . S
O158 C130 1.256 . S
O159 C130 1.244 . S
O159 Zn131 2.053 . S
Zn160 O161 2.055 . S
Zn160 O168 2.046 . S
Zn160 N176 2.036 . S
Zn160 O188 2.053 . S
Zn160 O190 2.066 . S
O161 Zn160 2.055 . S
O161 C164 1.259 . S
C162 O190 1.256 . S
C162 O191 1.244 . S
Zn163 O165 2.046 . S
Zn163 O167 2.055 . S
Zn163 N169 2.036 . S
Zn163 O187 2.066 . S
Zn163 O191 2.053 . S
C164 O161 1.259 . S
C164 O165 1.254 . S
O165 Zn163 2.046 . S
O165 C164 1.254 . S
C166 O187 1.256 . S
C166 O188 1.244 . S
O167 Zn163 2.055 . S
O167 C189 1.259 . S
O168 Zn160 2.046 . S
O168 C189 1.254 . S
N169 Zn163 2.036 . S
N169 C170 1.298 . S
N169 N172 1.398 . S
C170 N169 1.298 . S
C170 N173 1.367 . S
C170 C183 1.481 . S
C171 N172 1.299 . S
C171 N173 1.379 . S
N172 N169 1.398 . S
N172 C171 1.299 . S
N173 C170 1.367 . S
N173 C171 1.379 . S
C174 N176 1.298 . S
C174 N178 1.367 . S
C174 C182 1.481 . S
C175 N177 1.299 . S
C175 N178 1.379 . S
N176 Zn160 2.036 . S
N176 C174 1.298 . S
N176 N177 1.398 . S
N177 C175 1.299 . S
N177 N176 1.398 . S
N178 C174 1.367 . S
N178 C175 1.379 . S
H179 C182 0.980 . S
H180 C182 0.981 . S
H181 C182 0.981 . S
C182 C174 1.481 . S
C182 H179 0.980 . S
C182 H180 0.981 . S
C182 H181 0.981 . S
C183 C170 1.481 . S
C183 H184 0.980 . S
C183 H185 0.981 . S
C183 H186 0.981 . S
H184 C183 0.980 . S
H185 C183 0.981 . S
H186 C183 0.981 . S
O187 Zn163 2.066 . S
O187 C166 1.256 . S
O188 Zn160 2.053 . S
O188 C166 1.244 . S
C189 O167 1.259 . S
C189 O168 1.254 . S
O190 Zn160 2.066 . S
O190 C162 1.256 . S
O191 C162 1.244 . S
O191 Zn163 2.053 . S
C192 C193 1.349 . S
C192 C194 1.327 . S
C192 H217 0.950 . S
C193 C192 1.349 . S
C193 C209 1.349 . S
C194 C192 1.327 . S
C194 C213 1.429 . S
C194 H218 0.950 . S
C195 C212 1.574 1_556 S
C195 C214 1.368 1_545 S
C195 H219 0.949 . S
H196 C200 0.949 . S
C197 C198 1.349 . S
C197 C199 1.327 . S
C197 H220 0.950 . S
C198 C197 1.349 . S
C198 C210 1.349 . S
C199 C197 1.327 . S
C199 C215 1.429 . S
C199 H221 0.950 . S
C200 H196 0.949 . S
C200 C208 1.574 1_554 S
C200 C216 1.368 1_565 S
H201 C209 0.950 . S
H202 C207 0.950 . S
H203 C208 0.949 . S
H204 C210 0.950 . S
H205 C211 0.950 . S
H206 C212 0.949 . S
C207 H202 0.950 . S
C207 C209 1.327 . S
C207 C213 1.429 . S
C208 C200 1.574 1_556 S
C208 H203 0.949 . S
C208 C214 1.368 . S
C209 C193 1.349 . S
C209 H201 0.950 . S
C209 C207 1.327 . S
C210 C198 1.349 . S
C210 H204 0.950 . S
C210 C211 1.327 . S
C211 H205 0.950 . S
C211 C210 1.327 . S
C211 C215 1.429 . S
C212 C195 1.574 1_554 S
C212 H206 0.949 . S
C212 C216 1.368 . S
C213 C194 1.429 . S
C213 C207 1.429 . S
C213 C214 1.523 . S
C214 C195 1.368 1_565 S
C214 C208 1.368 . S
C214 C213 1.523 . S
C215 C199 1.429 . S
C215 C211 1.429 . S
C215 C216 1.523 . S
C216 C200 1.368 1_545 S
C216 C212 1.368 . S
C216 C215 1.523 . S
H217 C192 0.950 . S
H218 C194 0.950 . S
H219 C195 0.949 . S
H220 C197 0.950 . S
H221 C199 0.950 . S
C222 C223 1.349 . S
C222 C224 1.327 . S
C222 H247 0.950 . S
C223 C222 1.349 . S
C223 C239 1.349 . S
C224 C222 1.327 . S
C224 C243 1.429 . S
C224 H248 0.950 . S
C225 C242 1.574 . S
C225 C244 1.368 . S
C225 H249 0.949 . S
H226 C230 0.949 . S
C227 C228 1.349 . S
C227 C229 1.327 . S
C227 H250 0.950 . S
C228 C227 1.349 . S
C228 C240 1.349 . S
C229 C227 1.327 . S
C229 C245 1.429 . S
C229 H251 0.950 . S
C230 H226 0.949 . S
C230 C238 1.574 . S
C230 C246 1.368 . S
H231 C239 0.950 . S
H232 C237 0.950 . S
H233 C238 0.949 . S
H234 C240 0.950 . S
H235 C241 0.950 . S
H236 C242 0.949 . S
C237 H232 0.950 . S
C237 C239 1.327 . S
C237 C243 1.429 . S
C238 C230 1.574 . S
C238 H233 0.949 . S
C238 C244 1.368 . S
C239 C223 1.349 . S
C239 H231 0.950 . S
C239 C237 1.327 . S
C240 C228 1.349 . S
C240 H234 0.950 . S
C240 C241 1.327 . S
C241 H235 0.950 . S
C241 C240 1.327 . S
C241 C245 1.429 . S
C242 C225 1.574 . S
C242 H236 0.949 . S
C242 C246 1.368 . S
C243 C224 1.429 . S
C243 C237 1.429 . S
C243 C244 1.523 . S
C244 C225 1.368 . S
C244 C238 1.368 . S
C244 C243 1.523 . S
C245 C229 1.429 . S
C245 C241 1.429 . S
C245 C246 1.523 . S
C246 C230 1.368 . S
C246 C242 1.368 . S
C246 C245 1.523 . S
H247 C222 0.950 . S
H248 C224 0.950 . S
H249 C225 0.949 . S
H250 C227 0.950 . S
H251 C229 0.950 . S
C252 C253 1.349 . S
C252 C254 1.327 . S
C252 H277 0.950 . S
C253 C252 1.349 . S
C253 C269 1.349 . S
C254 C252 1.327 . S
C254 C273 1.429 . S
C254 H278 0.950 . S
C255 C272 1.574 1_554 S
C255 C274 1.368 1_455 S
C255 H279 0.949 . S
H256 C260 0.949 . S
C257 C258 1.349 . S
C257 C259 1.327 . S
C257 H280 0.950 . S
C258 C257 1.349 . S
C258 C270 1.349 . S
C259 C257 1.327 . S
C259 C275 1.429 . S
C259 H281 0.950 . S
C260 H256 0.949 . S
C260 C268 1.574 1_556 S
C260 C276 1.368 1_655 S
H261 C269 0.950 . S
H262 C267 0.950 1_455 S
H263 C268 0.949 . S
H264 C270 0.950 . S
H265 C271 0.950 1_655 S
H266 C272 0.949 . S
C267 H262 0.950 1_655 S
C267 C269 1.327 . S
C267 C273 1.429 . S
C268 C260 1.574 1_554 S
C268 H263 0.949 . S
C268 C274 1.368 . S
C269 C253 1.349 . S
C269 H261 0.950 . S
C269 C267 1.327 . S
C270 C258 1.349 . S
C270 H264 0.950 . S
C270 C271 1.327 . S
C271 H265 0.950 1_455 S
C271 C270 1.327 . S
C271 C275 1.429 . S
C272 C255 1.574 1_556 S
C272 H266 0.949 . S
C272 C276 1.368 . S
C273 C254 1.429 . S
C273 C267 1.429 . S
C273 C274 1.523 . S
C274 C255 1.368 1_655 S
C274 C268 1.368 . S
C274 C273 1.523 . S
C275 C259 1.429 . S
C275 C271 1.429 . S
C275 C276 1.523 . S
C276 C260 1.368 1_455 S
C276 C272 1.368 . S
C276 C275 1.523 . S
H277 C252 0.950 . S
H278 C254 0.950 . S
H279 C255 0.949 . S
H280 C257 0.950 . S
H281 C259 0.950 . S
C282 C283 1.349 . S
C282 C284 1.327 . S
C282 H307 0.950 . S
C283 C282 1.349 . S
C283 C299 1.349 . S
C284 C282 1.327 . S
C284 C303 1.429 . S
C284 H308 0.950 1_545 S
C285 C302 1.574 . S
C285 C304 1.368 . S
C285 H309 0.949 . S
H286 C290 0.949 . S
C287 C288 1.349 . S
C287 C289 1.327 . S
C287 H310 0.950 . S
C288 C287 1.349 . S
C288 C300 1.349 . S
C289 C287 1.327 . S
C289 C305 1.429 . S
C289 H311 0.950 1_565 S
C290 H286 0.949 . S
C290 C298 1.574 . S
C290 C306 1.368 . S
H291 C299 0.950 . S
H292 C297 0.950 . S
H293 C298 0.949 . S
H294 C300 0.950 . S
H295 C301 0.950 . S
H296 C302 0.949 . S
C297 H292 0.950 . S
C297 C299 1.327 . S
C297 C303 1.429 . S
C298 C290 1.574 . S
C298 H293 0.949 . S
C298 C304 1.368 1_565 S
C299 C283 1.349 . S
C299 H291 0.950 . S
C299 C297 1.327 . S
C300 C288 1.349 . S
C300 H294 0.950 . S
C300 C301 1.327 . S
C301 H295 0.950 . S
C301 C300 1.327 . S
C301 C305 1.429 . S
C302 C285 1.574 . S
C302 H296 0.949 . S
C302 C306 1.368 1_545 S
C303 C284 1.429 . S
C303 C297 1.429 . S
C303 C304 1.523 . S
C304 C285 1.368 . S
C304 C298 1.368 1_545 S
C304 C303 1.523 . S
C305 C289 1.429 . S
C305 C301 1.429 . S
C305 C306 1.523 . S
C306 C290 1.368 . S
C306 C302 1.368 1_565 S
C306 C305 1.523 . S
H307 C282 0.950 . S
H308 C284 0.950 1_565 S
H309 C285 0.949 . S
H310 C287 0.950 . S
H311 C289 0.950 1_545 S
C312 C313 1.349 . S
C312 C314 1.327 . S
C312 H337 0.950 . S
C313 C312 1.349 . S
C313 C329 1.349 . S
C314 C312 1.327 . S
C314 C333 1.429 . S
C314 H338 0.950 . S
C315 C332 1.574 1_556 S
C315 C334 1.368 . S
C315 H339 0.949 . S
H316 C320 0.949 . S
C317 C318 1.349 . S
C317 C319 1.327 . S
C317 H340 0.950 . S
C318 C317 1.349 . S
C318 C330 1.349 . S
C319 C317 1.327 . S
C319 C335 1.429 . S
C319 H341 0.950 . S
C320 H316 0.949 . S
C320 C328 1.574 1_554 S
C320 C336 1.368 . S
H321 C329 0.950 . S
H322 C327 0.950 . S
H323 C328 0.949 . S
H324 C330 0.950 . S
H325 C331 0.950 . S
H326 C332 0.949 . S
C327 H322 0.950 . S
C327 C329 1.327 . S
C327 C333 1.429 . S
C328 C320 1.574 1_556 S
C328 H323 0.949 . S
C328 C334 1.368 . S
C329 C313 1.349 . S
C329 H321 0.950 . S
C329 C327 1.327 . S
C330 C318 1.349 . S
C330 H324 0.950 . S
C330 C331 1.327 . S
C331 H325 0.950 . S
C331 C330 1.327 . S
C331 C335 1.429 . S
C332 C315 1.574 1_554 S
C332 H326 0.949 . S
C332 C336 1.368 . S
C333 C314 1.429 . S
C333 C327 1.429 . S
C333 C334 1.523 . S
C334 C315 1.368 . S
C334 C328 1.368 . S
C334 C333 1.523 . S
C335 C319 1.429 . S
C335 C331 1.429 . S
C335 C336 1.523 . S
C336 C320 1.368 . S
C336 C332 1.368 . S
C336 C335 1.523 . S
H337 C312 0.950 . S
H338 C314 0.950 . S
H339 C315 0.949 . S
H340 C317 0.950 . S
H341 C319 0.950 . S
C342 C343 1.349 . S
C342 C344 1.327 . S
C342 H367 0.950 . S
C343 C342 1.349 . S
C343 C359 1.349 . S
C344 C342 1.327 . S
C344 C363 1.429 . S
C344 H368 0.950 . S
C345 C362 1.574 1_655 S
C345 C364 1.368 . S
C345 H369 0.949 . S
H346 C350 0.949 . S
C347 C348 1.349 . S
C347 C349 1.327 . S
C347 H370 0.950 . S
C348 C347 1.349 . S
C348 C360 1.349 . S
C349 C347 1.327 . S
C349 C365 1.429 . S
C349 H371 0.950 . S
C350 H346 0.949 . S
C350 C358 1.574 1_455 S
C350 C366 1.368 . S
H351 C359 0.950 . S
H352 C357 0.950 . S
H353 C358 0.949 . S
H354 C360 0.950 . S
H355 C361 0.950 . S
H356 C362 0.949 . S
C357 H352 0.950 . S
C357 C359 1.327 . S
C357 C363 1.429 . S
C358 C350 1.574 1_655 S
C358 H353 0.949 . S
C358 C364 1.368 . S
C359 C343 1.349 . S
C359 H351 0.950 . S
C359 C357 1.327 . S
C360 C348 1.349 . S
C360 H354 0.950 . S
C360 C361 1.327 . S
C361 H355 0.950 . S
C361 C360 1.327 . S
C361 C365 1.429 . S
C362 C345 1.574 1_455 S
C362 H356 0.949 . S
C362 C366 1.368 . S
C363 C344 1.429 . S
C363 C357 1.429 . S
C363 C364 1.523 . S
C364 C345 1.368 . S
C364 C358 1.368 . S
C364 C363 1.523 . S
C365 C349 1.429 . S
C365 C361 1.429 . S
C365 C366 1.523 . S
C366 C350 1.368 . S
C366 C362 1.368 . S
C366 C365 1.523 . S
H367 C342 0.950 . S
H368 C344 0.950 . S
H369 C345 0.949 . S
H370 C347 0.950 . S
H371 C349 0.950 . S
C372 C373 1.349 . S
C372 C374 1.327 . S
C372 H397 0.950 . S
C373 C372 1.349 . S
C373 C389 1.349 . S
C374 C372 1.327 . S
C374 C393 1.429 . S
C374 H398 0.950 . S
C375 C392 1.574 . S
C375 C394 1.368 . S
C375 H399 0.949 . S
H376 C380 0.949 . S
C377 C378 1.349 . S
C377 C379 1.327 . S
C377 H400 0.950 . S
C378 C377 1.349 . S
C378 C390 1.349 . S
C379 C377 1.327 . S
C379 C395 1.429 . S
C379 H401 0.950 . S
C380 H376 0.949 . S
C380 C388 1.574 . S
C380 C396 1.368 . S
H381 C389 0.950 . S
H382 C387 0.950 . S
H383 C388 0.949 . S
H384 C390 0.950 . S
H385 C391 0.950 . S
H386 C392 0.949 . S
C387 H382 0.950 . S
C387 C389 1.327 . S
C387 C393 1.429 . S
C388 C380 1.574 . S
C388 H383 0.949 . S
C388 C394 1.368 . S
C389 C373 1.349 . S
C389 H381 0.950 . S
C389 C387 1.327 . S
C390 C378 1.349 . S
C390 H384 0.950 . S
C390 C391 1.327 . S
C391 H385 0.950 . S
C391 C390 1.327 . S
C391 C395 1.429 . S
C392 C375 1.574 . S
C392 H386 0.949 . S
C392 C396 1.368 . S
C393 C374 1.429 . S
C393 C387 1.429 . S
C393 C394 1.523 . S
C394 C375 1.368 . S
C394 C388 1.368 . S
C394 C393 1.523 . S
C395 C379 1.429 . S
C395 C391 1.429 . S
C395 C396 1.523 . S
C396 C380 1.368 . S
C396 C392 1.368 . S
C396 C395 1.523 . S
H397 C372 0.950 . S
H398 C374 0.950 . S
H399 C375 0.949 . S
H400 C377 0.950 . S
H401 C379 0.950 . S
C402 C403 1.349 . S
C402 C404 1.327 . S
C402 H427 0.950 . S
C403 C402 1.349 . S
C403 C419 1.349 . S
C404 C402 1.327 . S
C404 C423 1.429 . S
C404 H428 0.950 . S
C405 C422 1.574 . S
C405 C424 1.368 . S
C405 H429 0.949 . S
H406 C410 0.949 . S
C407 C408 1.349 . S
C407 C409 1.327 . S
C407 H430 0.950 . S
C408 C407 1.349 . S
C408 C420 1.349 . S
C409 C407 1.327 . S
C409 C425 1.429 . S
C409 H431 0.950 . S
C410 H406 0.949 . S
C410 C418 1.574 . S
C410 C426 1.368 . S
H411 C419 0.950 . S
H412 C417 0.950 . S
H413 C418 0.949 . S
H414 C420 0.950 . S
H415 C421 0.950 . S
H416 C422 0.949 . S
C417 H412 0.950 . S
C417 C419 1.327 . S
C417 C423 1.429 . S
C418 C410 1.574 . S
C418 H413 0.949 . S
C418 C424 1.368 . S
C419 C403 1.349 . S
C419 H411 0.950 . S
C419 C417 1.327 . S
C420 C408 1.349 . S
C420 H414 0.950 . S
C420 C421 1.327 . S
C421 H415 0.950 . S
C421 C420 1.327 . S
C421 C425 1.429 . S
C422 C405 1.574 . S
C422 H416 0.949 . S
C422 C426 1.368 . S
C423 C404 1.429 . S
C423 C417 1.429 . S
C423 C424 1.523 . S
C424 C405 1.368 . S
C424 C418 1.368 . S
C424 C423 1.523 . S
C425 C409 1.429 . S
C425 C421 1.429 . S
C425 C426 1.523 . S
C426 C410 1.368 . S
C426 C422 1.368 . S
C426 C425 1.523 . S
H427 C402 0.950 . S
H428 C404 0.950 . S
H429 C405 0.949 . S
H430 C407 0.950 . S
H431 C409 0.950 . S
C432 C433 1.349 . S
C432 C434 1.327 . S
C432 H457 0.950 . S
C433 C432 1.349 . S
C433 C449 1.349 . S
C434 C432 1.327 . S
C434 C453 1.429 . S
C434 H458 0.950 . S
C435 C452 1.574 . S
C435 C454 1.368 . S
C435 H459 0.949 . S
H436 C440 0.949 . S
C437 C438 1.349 . S
C437 C439 1.327 . S
C437 H460 0.950 . S
C438 C437 1.349 . S
C438 C450 1.349 . S
C439 C437 1.327 . S
C439 C455 1.429 . S
C439 H461 0.950 . S
C440 H436 0.949 . S
C440 C448 1.574 . S
C440 C456 1.368 . S
H441 C449 0.950 . S
H442 C447 0.950 . S
H443 C448 0.949 . S
H444 C450 0.950 . S
H445 C451 0.950 . S
H446 C452 0.949 . S
C447 H442 0.950 . S
C447 C449 1.327 . S
C447 C453 1.429 . S
C448 C440 1.574 . S
C448 H443 0.949 . S
C448 C454 1.368 . S
C449 C433 1.349 . S
C449 H441 0.950 . S
C449 C447 1.327 . S
C450 C438 1.349 . S
C450 H444 0.950 . S
C450 C451 1.327 . S
C451 H445 0.950 . S
C451 C450 1.327 . S
C451 C455 1.429 . S
C452 C435 1.574 . S
C452 H446 0.949 . S
C452 C456 1.368 . S
C453 C434 1.429 . S
C453 C447 1.429 . S
C453 C454 1.523 . S
C454 C435 1.368 . S
C454 C448 1.368 . S
C454 C453 1.523 . S
C455 C439 1.429 . S
C455 C451 1.429 . S
C455 C456 1.523 . S
C456 C440 1.368 . S
C456 C452 1.368 . S
C456 C455 1.523 . S
H457 C432 0.950 . S
H458 C434 0.950 . S
H459 C435 0.949 . S
H460 C437 0.950 . S
H461 C439 0.950 . S
C462 C463 1.349 . S
C462 C464 1.327 . S
C462 H487 0.950 . S
C463 C462 1.349 . S
C463 C479 1.349 . S
C464 C462 1.327 . S
C464 C483 1.429 . S
C464 H488 0.950 . S
C465 C482 1.574 . S
C465 C484 1.368 . S
C465 H489 0.949 . S
H466 C470 0.949 . S
C467 C468 1.349 . S
C467 C469 1.327 . S
C467 H490 0.950 . S
C468 C467 1.349 . S
C468 C480 1.349 . S
C469 C467 1.327 . S
C469 C485 1.429 . S
C469 H491 0.950 . S
C470 H466 0.949 . S
C470 C478 1.574 . S
C470 C486 1.368 . S
H471 C479 0.950 . S
H472 C477 0.950 . S
H473 C478 0.949 . S
H474 C480 0.950 . S
H475 C481 0.950 . S
H476 C482 0.949 . S
C477 H472 0.950 . S
C477 C479 1.327 . S
C477 C483 1.429 . S
C478 C470 1.574 . S
C478 H473 0.949 . S
C478 C484 1.368 . S
C479 C463 1.349 . S
C479 H471 0.950 . S
C479 C477 1.327 . S
C480 C468 1.349 . S
C480 H474 0.950 . S
C480 C481 1.327 . S
C481 H475 0.950 . S
C481 C480 1.327 . S
C481 C485 1.429 . S
C482 C465 1.574 . S
C482 H476 0.949 . S
C482 C486 1.368 . S
C483 C464 1.429 . S
C483 C477 1.429 . S
C483 C484 1.523 . S
C484 C465 1.368 . S
C484 C478 1.368 . S
C484 C483 1.523 . S
C485 C469 1.429 . S
C485 C481 1.429 . S
C485 C486 1.523 . S
C486 C470 1.368 . S
C486 C482 1.368 . S
C486 C485 1.523 . S
H487 C462 0.950 . S
H488 C464 0.950 . S
H489 C465 0.949 . S
H490 C467 0.950 . S
H491 C469 0.950 . S
C492 C493 1.349 . S
C492 C494 1.327 . S
C492 H517 0.950 . S
C493 C492 1.349 . S
C493 C509 1.349 . S
C494 C492 1.327 . S
C494 C513 1.429 . S
C494 H518 0.950 . S
C495 C512 1.574 . S
C495 C514 1.368 . S
C495 H519 0.949 . S
H496 C500 0.949 . S
C497 C498 1.349 . S
C497 C499 1.327 . S
C497 H520 0.950 . S
C498 C497 1.349 . S
C498 C510 1.349 . S
C499 C497 1.327 . S
C499 C515 1.429 . S
C499 H521 0.950 . S
C500 H496 0.949 . S
C500 C508 1.574 . S
C500 C516 1.368 . S
H501 C509 0.950 . S
H502 C507 0.950 . S
H503 C508 0.949 . S
H504 C510 0.950 . S
H505 C511 0.950 . S
H506 C512 0.949 . S
C507 H502 0.950 . S
C507 C509 1.327 . S
C507 C513 1.429 . S
C508 C500 1.574 . S
C508 H503 0.949 . S
C508 C514 1.368 . S
C509 C493 1.349 . S
C509 H501 0.950 . S
C509 C507 1.327 . S
C510 C498 1.349 . S
C510 H504 0.950 . S
C510 C511 1.327 . S
C511 H505 0.950 . S
C511 C510 1.327 . S
C511 C515 1.429 . S
C512 C495 1.574 . S
C512 H506 0.949 . S
C512 C516 1.368 . S
C513 C494 1.429 . S
C513 C507 1.429 . S
C513 C514 1.523 . S
C514 C495 1.368 . S
C514 C508 1.368 . S
C514 C513 1.523 . S
C515 C499 1.429 . S
C515 C511 1.429 . S
C515 C516 1.523 . S
C516 C500 1.368 . S
C516 C512 1.368 . S
C516 C515 1.523 . S
H517 C492 0.950 . S
H518 C494 0.950 . S
H519 C495 0.949 . S
H520 C497 0.950 . S
H521 C499 0.950 . S
C522 C523 1.349 . S
C522 C524 1.327 . S
C522 H547 0.950 . S
C523 C522 1.349 . S
C523 C539 1.349 . S
C524 C522 1.327 . S
C524 C543 1.429 . S
C524 H548 0.950 . S
C525 C542 1.574 . S
C525 C544 1.368 . S
C525 H549 0.949 . S
H526 C530 0.949 . S
C527 C528 1.349 . S
C527 C529 1.327 . S
C527 H550 0.950 . S
C528 C527 1.349 . S
C528 C540 1.349 . S
C529 C527 1.327 . S
C529 C545 1.429 . S
C529 H551 0.950 . S
C530 H526 0.949 . S
C530 C538 1.574 . S
C530 C546 1.368 . S
H531 C539 0.950 . S
H532 C537 0.950 . S
H533 C538 0.949 . S
H534 C540 0.950 . S
H535 C541 0.950 . S
H536 C542 0.949 . S
C537 H532 0.950 . S
C537 C539 1.327 . S
C537 C543 1.429 . S
C538 C530 1.574 . S
C538 H533 0.949 . S
C538 C544 1.368 . S
C539 C523 1.349 . S
C539 H531 0.950 . S
C539 C537 1.327 . S
C540 C528 1.349 . S
C540 H534 0.950 . S
C540 C541 1.327 . S
C541 H535 0.950 . S
C541 C540 1.327 . S
C541 C545 1.429 . S
C542 C525 1.574 . S
C542 H536 0.949 . S
C542 C546 1.368 . S
C543 C524 1.429 . S
C543 C537 1.429 . S
C543 C544 1.523 . S
C544 C525 1.368 . S
C544 C538 1.368 . S
C544 C543 1.523 . S
C545 C529 1.429 . S
C545 C541 1.429 . S
C545 C546 1.523 . S
C546 C530 1.368 . S
C546 C542 1.368 . S
C546 C545 1.523 . S
H547 C522 0.950 . S
H548 C524 0.950 . S
H549 C525 0.949 . S
H550 C527 0.950 . S
H551 C529 0.950 . S
C552 C553 1.349 . S
C552 C554 1.327 . S
C552 H577 0.950 . S
C553 C552 1.349 . S
C553 C569 1.349 . S
C554 C552 1.327 . S
C554 C573 1.429 . S
C554 H578 0.950 . S
C555 C572 1.574 . S
C555 C574 1.368 . S
C555 H579 0.949 . S
H556 C560 0.949 . S
C557 C558 1.349 1_455 S
C557 C559 1.327 . S
C557 H580 0.950 . S
C558 C557 1.349 1_655 S
C558 C570 1.349 . S
C559 C557 1.327 . S
C559 C575 1.429 . S
C559 H581 0.950 . S
C560 H556 0.949 . S
C560 C568 1.574 . S
C560 C576 1.368 . S
H561 C569 0.950 . S
H562 C567 0.950 . S
H563 C568 0.949 . S
H564 C570 0.950 . S
H565 C571 0.950 . S
H566 C572 0.949 . S
C567 H562 0.950 . S
C567 C569 1.327 . S
C567 C573 1.429 . S
C568 C560 1.574 . S
C568 H563 0.949 . S
C568 C574 1.368 . S
C569 C553 1.349 . S
C569 H561 0.950 . S
C569 C567 1.327 . S
C570 C558 1.349 . S
C570 H564 0.950 . S
C570 C571 1.327 1_655 S
C571 H565 0.950 . S
C571 C570 1.327 1_455 S
C571 C575 1.429 . S
C572 C555 1.574 . S
C572 H566 0.949 . S
C572 C576 1.368 . S
C573 C554 1.429 . S
C573 C567 1.429 . S
C573 C574 1.523 . S
C574 C555 1.368 . S
C574 C568 1.368 . S
C574 C573 1.523 . S
C575 C559 1.429 . S
C575 C571 1.429 . S
C575 C576 1.523 . S
C576 C560 1.368 . S
C576 C572 1.368 . S
C576 C575 1.523 . S
H577 C552 0.950 . S
H578 C554 0.950 . S
H579 C555 0.949 . S
H580 C557 0.950 . S
H581 C559 0.950 . S
C582 C583 1.349 . S
C582 C584 1.327 . S
C582 H607 0.950 . S
C583 C582 1.349 . S
C583 C599 1.349 . S
C584 C582 1.327 . S
C584 C603 1.429 . S
C584 H608 0.950 . S
C585 C602 1.574 . S
C585 C604 1.368 . S
C585 H609 0.949 . S
H586 C590 0.949 . S
C587 C588 1.349 1_565 S
C587 C589 1.327 . S
C587 H610 0.950 . S
C588 C587 1.349 1_545 S
C588 C600 1.349 . S
C589 C587 1.327 . S
C589 C605 1.429 . S
C589 H611 0.950 . S
C590 H586 0.949 . S
C590 C598 1.574 . S
C590 C606 1.368 . S
H591 C599 0.950 . S
H592 C597 0.950 . S
H593 C598 0.949 . S
H594 C600 0.950 . S
H595 C601 0.950 . S
H596 C602 0.949 . S
C597 H592 0.950 . S
C597 C599 1.327 . S
C597 C603 1.429 . S
C598 C590 1.574 . S
C598 H593 0.949 . S
C598 C604 1.368 . S
C599 C583 1.349 . S
C599 H591 0.950 . S
C599 C597 1.327 . S
C600 C588 1.349 . S
C600 H594 0.950 . S
C600 C601 1.327 1_545 S
C601 H595 0.950 . S
C601 C600 1.327 1_565 S
C601 C605 1.429 . S
C602 C585 1.574 . S
C602 H596 0.949 . S
C602 C606 1.368 . S
C603 C584 1.429 . S
C603 C597 1.429 . S
C603 C604 1.523 1_655 S
C604 C585 1.368 . S
C604 C598 1.368 . S
C604 C603 1.523 1_455 S
C605 C589 1.429 . S
C605 C601 1.429 . S
C605 C606 1.523 . S
C606 C590 1.368 . S
C606 C602 1.368 . S
C606 C605 1.523 . S
H607 C582 0.950 . S
H608 C584 0.950 . S
H609 C585 0.949 . S
H610 C587 0.950 . S
H611 C589 0.950 . S
C612 C613 1.349 . S
C612 C614 1.327 . S
C612 H637 0.950 . S
C613 C612 1.349 . S
C613 C629 1.349 . S
C614 C612 1.327 . S
C614 C633 1.429 . S
C614 H638 0.950 . S
C615 C632 1.574 . S
C615 C634 1.368 . S
C615 H639 0.949 . S
H616 C620 0.949 . S
C617 C618 1.349 . S
C617 C619 1.327 . S
C617 H640 0.950 . S
C618 C617 1.349 . S
C618 C630 1.349 . S
C619 C617 1.327 . S
C619 C635 1.429 . S
C619 H641 0.950 . S
C620 H616 0.949 . S
C620 C628 1.574 . S
C620 C636 1.368 . S
H621 C629 0.950 . S
H622 C627 0.950 . S
H623 C628 0.949 . S
H624 C630 0.950 . S
H625 C631 0.950 . S
H626 C632 0.949 . S
C627 H622 0.950 . S
C627 C629 1.327 . S
C627 C633 1.429 . S
C628 C620 1.574 . S
C628 H623 0.949 . S
C628 C634 1.368 . S
C629 C613 1.349 . S
C629 H621 0.950 . S
C629 C627 1.327 . S
C630 C618 1.349 . S
C630 H624 0.950 . S
C630 C631 1.327 . S
C631 H625 0.950 . S
C631 C630 1.327 . S
C631 C635 1.429 . S
C632 C615 1.574 . S
C632 H626 0.949 . S
C632 C636 1.368 . S
C633 C614 1.429 . S
C633 C627 1.429 . S
C633 C634 1.523 1_545 S
C634 C615 1.368 . S
C634 C628 1.368 . S
C634 C633 1.523 1_565 S
C635 C619 1.429 . S
C635 C631 1.429 . S
C635 C636 1.523 . S
C636 C620 1.368 . S
C636 C632 1.368 . S
C636 C635 1.523 . S
H637 C612 0.950 . S
H638 C614 0.950 . S
H639 C615 0.949 . S
H640 C617 0.950 . S
H641 C619 0.950 . S
C642 C643 1.349 . S
C642 C644 1.327 . S
C642 H667 0.950 . S
C643 C642 1.349 . S
C643 C659 1.349 . S
C644 C642 1.327 . S
C644 C663 1.429 . S
C644 H668 0.950 . S
C645 C662 1.574 . S
C645 C664 1.368 . S
C645 H669 0.949 . S
H646 C650 0.949 . S
C647 C648 1.349 . S
C647 C649 1.327 1_565 S
C647 H670 0.950 . S
C648 C647 1.349 . S
C648 C660 1.349 1_565 S
C649 C647 1.327 1_545 S
C649 C665 1.429 . S
C649 H671 0.950 . S
C650 H646 0.949 . S
C650 C658 1.574 . S
C650 C666 1.368 . S
H651 C659 0.950 . S
H652 C657 0.950 . S
H653 C658 0.949 . S
H654 C660 0.950 . S
H655 C661 0.950 . S
H656 C662 0.949 . S
C657 H652 0.950 . S
C657 C659 1.327 . S
C657 C663 1.429 . S
C658 C650 1.574 . S
C658 H653 0.949 . S
C658 C664 1.368 . S
C659 C643 1.349 . S
C659 H651 0.950 . S
C659 C657 1.327 . S
C660 C648 1.349 1_545 S
C660 H654 0.950 . S
C660 C661 1.327 . S
C661 H655 0.950 . S
C661 C660 1.327 . S
C661 C665 1.429 . S
C662 C645 1.574 . S
C662 H656 0.949 . S
C662 C666 1.368 . S
C663 C644 1.429 . S
C663 C657 1.429 . S
C663 C664 1.523 . S
C664 C645 1.368 . S
C664 C658 1.368 . S
C664 C663 1.523 . S
C665 C649 1.429 . S
C665 C661 1.429 . S
C665 C666 1.523 . S
C666 C650 1.368 . S
C666 C662 1.368 . S
C666 C665 1.523 . S
H667 C642 0.950 . S
H668 C644 0.950 . S
H669 C645 0.949 . S
H670 C647 0.950 . S
H671 C649 0.950 . S
C672 C673 1.349 . S
C672 C674 1.327 . S
C672 H697 0.950 . S
C673 C672 1.349 . S
C673 C689 1.349 . S
C674 C672 1.327 . S
C674 C693 1.429 . S
C674 H698 0.950 . S
C675 C692 1.574 . S
C675 C694 1.368 . S
C675 H699 0.949 . S
H676 C680 0.949 . S
C677 C678 1.349 . S
C677 C679 1.327 . S
C677 H700 0.950 . S
C678 C677 1.349 . S
C678 C690 1.349 . S
C679 C677 1.327 . S
C679 C695 1.429 . S
C679 H701 0.950 . S
C680 H676 0.949 . S
C680 C688 1.574 . S
C680 C696 1.368 . S
H681 C689 0.950 . S
H682 C687 0.950 . S
H683 C688 0.949 . S
H684 C690 0.950 . S
H685 C691 0.950 . S
H686 C692 0.949 . S
C687 H682 0.950 . S
C687 C689 1.327 . S
C687 C693 1.429 . S
C688 C680 1.574 . S
C688 H683 0.949 . S
C688 C694 1.368 . S
C689 C673 1.349 . S
C689 H681 0.950 . S
C689 C687 1.327 . S
C690 C678 1.349 . S
C690 H684 0.950 . S
C690 C691 1.327 . S
C691 H685 0.950 . S
C691 C690 1.327 . S
C691 C695 1.429 . S
C692 C675 1.574 . S
C692 H686 0.949 . S
C692 C696 1.368 . S
C693 C674 1.429 . S
C693 C687 1.429 . S
C693 C694 1.523 1_455 S
C694 C675 1.368 . S
C694 C688 1.368 . S
C694 C693 1.523 1_655 S
C695 C679 1.429 . S
C695 C691 1.429 . S
C695 C696 1.523 . S
C696 C680 1.368 . S
C696 C692 1.368 . S
C696 C695 1.523 . S
H697 C672 0.950 . S
H698 C674 0.950 . S
H699 C675 0.949 . S
H700 C677 0.950 . S
H701 C679 0.950 . S
C702 C703 1.349 . S
C702 C704 1.327 1_455 S
C702 H727 0.950 . S
C703 C702 1.349 . S
C703 C719 1.349 1_455 S
C704 C702 1.327 1_655 S
C704 C723 1.429 . S
C704 H728 0.950 . S
C705 C722 1.574 . S
C705 C724 1.368 . S
C705 H729 0.949 . S
H706 C710 0.949 . S
C707 C708 1.349 . S
C707 C709 1.327 . S
C707 H730 0.950 . S
C708 C707 1.349 . S
C708 C720 1.349 . S
C709 C707 1.327 . S
C709 C725 1.429 . S
C709 H731 0.950 . S
C710 H706 0.949 . S
C710 C718 1.574 . S
C710 C726 1.368 . S
H711 C719 0.950 . S
H712 C717 0.950 . S
H713 C718 0.949 . S
H714 C720 0.950 . S
H715 C721 0.950 . S
H716 C722 0.949 . S
C717 H712 0.950 . S
C717 C719 1.327 . S
C717 C723 1.429 . S
C718 C710 1.574 . S
C718 H713 0.949 . S
C718 C724 1.368 . S
C719 C703 1.349 1_655 S
C719 H711 0.950 . S
C719 C717 1.327 . S
C720 C708 1.349 . S
C720 H714 0.950 . S
C720 C721 1.327 . S
C721 H715 0.950 . S
C721 C720 1.327 . S
C721 C725 1.429 . S
C722 C705 1.574 . S
C722 H716 0.949 . S
C722 C726 1.368 . S
C723 C704 1.429 . S
C723 C717 1.429 . S
C723 C724 1.523 . S
C724 C705 1.368 . S
C724 C718 1.368 . S
C724 C723 1.523 . S
C725 C709 1.429 . S
C725 C721 1.429 . S
C725 C726 1.523 1_565 S
C726 C710 1.368 . S
C726 C722 1.368 . S
C726 C725 1.523 1_545 S
H727 C702 0.950 . S
H728 C704 0.950 . S
H729 C705 0.949 . S
H730 C707 0.950 . S
H731 C709 0.950 . S
C193 N146 1.915 . S
C198 N13 1.915 . S
C223 N178 1.794 . S
C228 N45 1.794 . S
C253 N77 1.916 . S
C258 N114 1.916 . S
C283 N18 1.794 . S
C288 N141 1.794 . S
C313 N173 1.915 . S
C318 N50 1.915 . S
C343 N82 1.794 . S
C348 N109 1.794 . S
C373 C6 1.196 . S
C378 C93 1.214 . S
C403 C34 1.196 . S
C408 C29 1.214 . S
C433 C70 1.196 . S
C438 C36 1.214 . S
C463 C98 1.196 . S
C468 C132 1.214 . S
C493 C130 1.196 . S
C498 C189 1.214 . S
C523 C100 1.214 . S
C528 C166 1.196 . S
C553 C4 0.664 . S
C558 C66 0.670 . S
C583 C61 0.664 . S
C588 C2 0.670 . S
C613 C68 0.664 . S
C618 C38 0.670 . S
C643 C125 0.664 . S
C648 C134 0.670 . S
C673 C157 0.664 . S
C678 C162 0.670 . S
C703 C102 0.670 . S
C708 C164 0.664 . S
