# Generated by pormake.
# Topology yfh, (5)-cn, num edge types: 1
# Building blocks:
#     Node 0, Type 0, BuildingBlock: XOMCOT_clean_sbu_0, # of connection points: 5
#     Node 1, Type 0, BuildingBlock: XOMCOT_clean_sbu_0, # of connection points: 5
#     Node 2, Type 0, BuildingBlock: XOMCOT_clean_sbu_0, # of connection points: 5
#     Node 3, Type 0, BuildingBlock: XOMCOT_clean_sbu_0, # of connection points: 5
#     Node 4, Type 0, BuildingBlock: XOMCOT_clean_sbu_0, # of connection points: 5
#     Node 5, Type 0, BuildingBlock: XOMCOT_clean_sbu_0, # of connection points: 5
#     Node 6, Type 0, BuildingBlock: XOMCOT_clean_sbu_0, # of connection points: 5
#     Node 7, Type 0, BuildingBlock: XOMCOT_clean_sbu_0, # of connection points: 5
#     Edge 8, Type (0, 0), BuildingBlock: XIVTED_clean_linker_0, # of connection points: 2
#     Edge 9, Type (0, 0), BuildingBlock: XIVTED_clean_linker_0, # of connection points: 2
#     Edge 10, Type (0, 0), BuildingBlock: XIVTED_clean_linker_0, # of connection points: 2
#     Edge 11, Type (0, 0), BuildingBlock: XIVTED_clean_linker_0, # of connection points: 2
#     Edge 12, Type (0, 0), BuildingBlock: XIVTED_clean_linker_0, # of connection points: 2
#     Edge 13, Type (0, 0), BuildingBlock: XIVTED_clean_linker_0, # of connection points: 2
#     Edge 14, Type (0, 0), BuildingBlock: XIVTED_clean_linker_0, # of connection points: 2
#     Edge 15, Type (0, 0), BuildingBlock: XIVTED_clean_linker_0, # of connection points: 2
#     Edge 16, Type (0, 0), BuildingBlock: XIVTED_clean_linker_0, # of connection points: 2
#     Edge 17, Type (0, 0), BuildingBlock: XIVTED_clean_linker_0, # of connection points: 2
#     Edge 18, Type (0, 0), BuildingBlock: XIVTED_clean_linker_0, # of connection points: 2
#     Edge 19, Type (0, 0), BuildingBlock: XIVTED_clean_linker_0, # of connection points: 2
#     Edge 20, Type (0, 0), BuildingBlock: XIVTED_clean_linker_0, # of connection points: 2
#     Edge 21, Type (0, 0), BuildingBlock: XIVTED_clean_linker_0, # of connection points: 2
#     Edge 22, Type (0, 0), BuildingBlock: XIVTED_clean_linker_0, # of connection points: 2
#     Edge 23, Type (0, 0), BuildingBlock: XIVTED_clean_linker_0, # of connection points: 2
#     Edge 24, Type (0, 0), BuildingBlock: XIVTED_clean_linker_0, # of connection points: 2
#     Edge 25, Type (0, 0), BuildingBlock: XIVTED_clean_linker_0, # of connection points: 2
#     Edge 26, Type (0, 0), BuildingBlock: XIVTED_clean_linker_0, # of connection points: 2
#     Edge 27, Type (0, 0), BuildingBlock: XIVTED_clean_linker_0, # of connection points: 2
# Relax obj value: 0.378
# Max RMSD: 0.266
# Mean RMSD: 0.266
data_MOF--net-yfh--node1-XOMCOT_clean_sbu_0--edge1-XIVTED_clean_linker_0
_symmetry_space_group_name_H-M    P1
_symmetry_Int_Tables_number       1
_symmetry_cell_setting            triclinic
loop_
_symmetry_equiv_pos_as_xyz
'x, y, z'
_cell_length_a     27.785245
_cell_length_b     27.787633
_cell_length_c     60.126675
_cell_angle_alpha  90.096272
_cell_angle_beta   90.111163
_cell_angle_gamma 90.04341
loop_
_atom_site_label
_atom_site_type_symbol
_atom_site_fract_x
_atom_site_fract_y
_atom_site_fract_z
_atom_type_partial_charge
Co0 Co 0.37388 0.20602 0.12102 0.0
C1 C 0.3523 0.22495 0.07259 0.0
C2 C 0.29194 0.20057 0.09178 0.0
C3 C 0.27769 0.2041 0.07006 0.0
N4 N 0.33893 0.21254 0.09337 0.0
N5 N 0.31567 0.21926 0.05817 0.0
H6 H 0.38779 0.23594 0.06759 0.0
H7 H 0.27009 0.18797 0.10545 0.0
C8 C 0.34963 0.10688 0.10581 0.0
O9 O 0.36635 0.12085 0.08644 0.0
N10 N 0.40589 0.19914 0.14918 0.0
C11 C 0.44583 0.2216 0.15658 0.0
C12 C 0.4571 0.20362 0.17737 0.0
C13 C 0.39332 0.16825 0.16532 0.0
N14 N 0.42414 0.16984 0.18265 0.0
C15 C 0.4576 0.21968 0.0939 0.0
C16 C 0.48964 0.12566 0.09516 0.0
C17 C 0.50933 0.15745 0.0796 0.0
C18 C 0.49526 0.20571 0.08006 0.0
C19 C 0.45302 0.1418 0.10924 0.0
N20 N 0.43348 0.18655 0.10638 0.0
H21 H 0.4456 0.25658 0.09326 0.0
H22 H 0.43838 0.11725 0.12138 0.0
H23 H 0.46581 0.24834 0.14735 0.0
H24 H 0.36218 0.14495 0.16437 0.0
O25 O 0.38549 0.27433 0.12134 0.0
O26 O 0.3205 0.24005 0.13527 0.0
O27 O 0.34987 0.13625 0.1224 0.0
C28 C 0.34343 0.27963 0.13026 0.0
H29 H 0.24257 0.19529 0.06336 0.0
H30 H 0.48786 0.21349 0.18747 0.0
H31 H 0.50106 0.08842 0.09579 0.0
H32 H 0.5106 0.2316 0.06863 0.0
Co33 Co 0.3343 0.84556 0.36848 0.0
C34 C 0.27675 0.80568 0.33107 0.0
C35 C 0.33396 0.75908 0.34115 0.0
C36 C 0.30538 0.7346 0.32639 0.0
N37 N 0.31702 0.80432 0.34368 0.0
N38 N 0.26924 0.7639 0.32021 0.0
H39 H 0.25083 0.83448 0.33129 0.0
H40 H 0.36323 0.74355 0.35057 0.0
C41 C 0.42796 0.81786 0.34861 0.0
O42 O 0.40844 0.83087 0.32962 0.0
N43 N 0.35066 0.88398 0.39398 0.0
C44 C 0.33617 0.92916 0.39847 0.0
C45 C 0.35326 0.94189 0.41919 0.0
C46 C 0.37578 0.86954 0.4119 0.0
N47 N 0.37798 0.90427 0.42763 0.0
C48 C 0.31547 0.91738 0.33548 0.0
C49 C 0.40694 0.95638 0.33416 0.0
C50 C 0.37341 0.96939 0.31779 0.0
C51 C 0.3265 0.95136 0.31933 0.0
C52 C 0.39415 0.9221 0.35016 0.0
N53 N 0.35015 0.89992 0.34932 0.0
H54 H 0.27897 0.90502 0.33668 0.0
H55 H 0.42043 0.91161 0.36251 0.0
H56 H 0.31394 0.95088 0.38764 0.0
H57 H 0.3917 0.83416 0.41339 0.0
O58 O 0.2675 0.86049 0.37308 0.0
O59 O 0.30444 0.79693 0.38731 0.0
O60 O 0.40331 0.82052 0.36666 0.0
C61 C 0.26442 0.82066 0.38416 0.0
H62 H 0.31041 0.6978 0.32097 0.0
H63 H 0.34665 0.97566 0.42764 0.0
H64 H 0.4432 0.9707 0.33397 0.0
H65 H 0.29871 0.96268 0.30781 0.0
Co66 Co 0.67159 0.83908 0.62497 0.0
C67 C 0.70563 0.81731 0.58009 0.0
C68 C 0.75935 0.85465 0.59924 0.0
C69 C 0.77916 0.84177 0.57914 0.0
N70 N 0.71337 0.83931 0.59966 0.0
N71 N 0.74518 0.81844 0.56725 0.0
H72 H 0.67241 0.79916 0.57573 0.0
H73 H 0.77762 0.87228 0.61291 0.0
C74 C 0.6692 0.94525 0.6337 0.0
O75 O 0.62211 0.94224 0.63527 0.0
N76 N 0.63112 0.83769 0.65139 0.0
C77 C 0.60121 0.80178 0.65776 0.0
C78 C 0.58644 0.80981 0.67928 0.0
C79 C 0.63506 0.86615 0.66954 0.0
N80 N 0.60752 0.85049 0.68645 0.0
C81 C 0.57721 0.83808 0.60527 0.0
C82 C 0.59537 0.90909 0.57424 0.0
C83 C 0.55267 0.8825 0.57256 0.0
C84 C 0.54318 0.84752 0.58874 0.0
C85 C 0.62839 0.89855 0.59104 0.0
N86 N 0.61944 0.86309 0.60626 0.0
H87 H 0.5707 0.80841 0.6163 0.0
H88 H 0.66265 0.91696 0.59088 0.0
H89 H 0.59256 0.7702 0.64803 0.0
H90 H 0.66 0.89579 0.67112 0.0
O91 O 0.66063 0.77153 0.62027 0.0
O92 O 0.7203 0.80153 0.64052 0.0
O93 O 0.69439 0.90692 0.63168 0.0
C94 C 0.69943 0.76382 0.63176 0.0
H95 H 0.8157 0.84851 0.57375 0.0
H96 H 0.56319 0.78697 0.68912 0.0
H97 H 0.60482 0.93567 0.56183 0.0
H98 H 0.51063 0.8261 0.58809 0.0
Co99 Co 0.68046 0.16436 0.8705 0.0
C100 C 0.71961 0.20313 0.8278 0.0
C101 C 0.66603 0.24797 0.8428 0.0
C102 C 0.68554 0.27246 0.82531 0.0
N103 N 0.68635 0.20392 0.84415 0.0
N104 N 0.71939 0.24437 0.81601 0.0
H105 H 0.74621 0.17534 0.82557 0.0
H106 H 0.64075 0.26268 0.85464 0.0
C107 C 0.58098 0.18192 0.85497 0.0
O108 O 0.59743 0.16721 0.83564 0.0
N109 N 0.67528 0.12764 0.89747 0.0
C110 C 0.70289 0.08983 0.90334 0.0
C111 C 0.69238 0.07759 0.92498 0.0
C112 C 0.64806 0.13769 0.91538 0.0
N113 N 0.65787 0.10761 0.93238 0.0
C114 C 0.69781 0.0883 0.83916 0.0
C115 C 0.60959 0.04332 0.84369 0.0
C116 C 0.64094 0.02834 0.82687 0.0
C117 C 0.68638 0.04965 0.82535 0.0
C118 C 0.62321 0.08128 0.85763 0.0
N119 N 0.66488 0.10621 0.85378 0.0
H120 H 0.73314 0.10383 0.83796 0.0
H121 H 0.59912 0.0922 0.87079 0.0
H122 H 0.72983 0.07334 0.89285 0.0
H123 H 0.62324 0.16763 0.91632 0.0
O124 O 0.74908 0.15619 0.87122 0.0
O125 O 0.71069 0.21764 0.88656 0.0
O126 O 0.6093 0.18333 0.87195 0.0
C127 C 0.75154 0.19701 0.88158 0.0
H128 H 0.67638 0.30864 0.82018 0.0
H129 H 0.7091 0.04931 0.93464 0.0
H130 H 0.57467 0.02654 0.84571 0.0
H131 H 0.71205 0.03796 0.81292 0.0
Co132 Co 0.85004 0.34142 0.60332 0.0
C133 C 0.83043 0.32766 0.6508 0.0
C134 C 0.77645 0.37175 0.63525 0.0
C135 C 0.76659 0.36901 0.6576 0.0
N136 N 0.81682 0.34644 0.63118 0.0
N137 N 0.80062 0.3414 0.66721 0.0
H138 H 0.86236 0.30591 0.65313 0.0
H139 H 0.75594 0.39125 0.62292 0.0
C140 C 0.85037 0.44755 0.59281 0.0
O141 O 0.89694 0.44562 0.5891 0.0
N142 N 0.88223 0.33552 0.57466 0.0
C143 C 0.90832 0.29765 0.56724 0.0
C144 C 0.92085 0.30521 0.54539 0.0
C145 C 0.87813 0.36474 0.55683 0.0
N146 N 0.90212 0.3476 0.53905 0.0
C147 C 0.94942 0.33975 0.6166 0.0
C148 C 0.94268 0.41446 0.64687 0.0
C149 C 0.98442 0.38628 0.64662 0.0
C150 C 0.98814 0.34946 0.63076 0.0
C151 C 0.90482 0.40345 0.63252 0.0
N152 N 0.90805 0.36609 0.61772 0.0
H153 H 0.95166 0.30874 0.60594 0.0
H154 H 0.87154 0.42305 0.63446 0.0
H155 H 0.91703 0.26589 0.57679 0.0
H156 H 0.85624 0.39675 0.55625 0.0
O157 O 0.86047 0.27413 0.60909 0.0
O158 O 0.79623 0.30371 0.59203 0.0
O159 O 0.82655 0.40881 0.59622 0.0
C160 C 0.81858 0.26632 0.60017 0.0
H161 H 0.73661 0.38566 0.66613 0.0
H162 H 0.94197 0.2815 0.53497 0.0
H163 H 0.93766 0.44246 0.6592 0.0
H164 H 0.01971 0.32668 0.63008 0.0
Co165 Co 0.17535 0.34951 0.8529 0.0
C166 C 0.21083 0.31106 0.89515 0.0
C167 C 0.16265 0.26182 0.87884 0.0
C168 C 0.18151 0.23952 0.89725 0.0
N169 N 0.181 0.30657 0.87767 0.0
N170 N 0.21209 0.27043 0.90733 0.0
H171 H 0.23299 0.34245 0.89815 0.0
H172 H 0.13895 0.24572 0.86664 0.0
C173 C 0.06881 0.34754 0.846 0.0
O174 O 0.07051 0.39457 0.84385 0.0
N175 N 0.17026 0.39047 0.82685 0.0
C176 C 0.19866 0.42763 0.82066 0.0
C177 C 0.18855 0.43955 0.79892 0.0
C178 C 0.14526 0.37895 0.80833 0.0
N179 N 0.15517 0.40862 0.79121 0.0
C180 C 0.17467 0.44173 0.87473 0.0
C181 C 0.10599 0.41823 0.90607 0.0
C182 C 0.13055 0.46204 0.90806 0.0
C183 C 0.16452 0.4741 0.89184 0.0
C184 C 0.11696 0.38706 0.88858 0.0
N185 N 0.15085 0.39892 0.87302 0.0
H186 H 0.20433 0.44984 0.86402 0.0
H187 H 0.10003 0.35206 0.88836 0.0
H188 H 0.22798 0.44249 0.83024 0.0
H189 H 0.12197 0.3479 0.80704 0.0
O190 O 0.24254 0.36474 0.85565 0.0
O191 O 0.21387 0.30401 0.83577 0.0
O192 O 0.10796 0.32353 0.8478 0.0
C193 C 0.25131 0.3268 0.84375 0.0
H194 H 0.17387 0.20312 0.90255 0.0
H195 H 0.20689 0.46649 0.78908 0.0
H196 H 0.07978 0.4073 0.91839 0.0
H197 H 0.18554 0.50683 0.89318 0.0
Co198 Co 0.16461 0.7051 0.10708 0.0
C199 C 0.16558 0.72063 0.15614 0.0
C200 C 0.23473 0.70119 0.14293 0.0
C201 C 0.23816 0.70268 0.16569 0.0
N202 N 0.18898 0.71127 0.13699 0.0
N203 N 0.19466 0.71467 0.17378 0.0
H204 H 0.12785 0.72886 0.15756 0.0
H205 H 0.26289 0.69067 0.13152 0.0
C206 C 0.18707 0.60558 0.12349 0.0
O207 O 0.16689 0.61869 0.14228 0.0
N208 N 0.14113 0.69973 0.07705 0.0
C209 C 0.10847 0.72881 0.06738 0.0
C210 C 0.09953 0.71235 0.0462 0.0
C211 C 0.15147 0.66579 0.06176 0.0
N212 N 0.12646 0.67269 0.04273 0.0
C213 C 0.0707 0.72462 0.12434 0.0
C214 C 0.04425 0.63069 0.13253 0.0
C215 C 0.02008 0.66799 0.14372 0.0
C216 C 0.0304 0.71537 0.13731 0.0
C217 C 0.08285 0.64194 0.11849 0.0
N218 N 0.09999 0.68801 0.11754 0.0
H219 H 0.08035 0.76169 0.1217 0.0
H220 H 0.10055 0.6131 0.10974 0.0
H221 H 0.09157 0.75936 0.07532 0.0
H222 H 0.17666 0.63671 0.06445 0.0
O223 O 0.15614 0.77386 0.10628 0.0
O224 O 0.22336 0.73738 0.09672 0.0
O225 O 0.18784 0.63483 0.10688 0.0
C226 C 0.20056 0.77775 0.10019 0.0
H227 H 0.26963 0.69429 0.17559 0.0
H228 H 0.0741 0.72755 0.03451 0.0
H229 H 0.03592 0.59326 0.1356 0.0
H230 H 1.01009 0.74557 0.14374 0.0
Co231 Co 0.83548 0.66133 0.35352 0.0
C232 C 0.80247 0.68913 0.39951 0.0
C233 C 0.8186 0.74906 0.37834 0.0
C234 C 0.80273 0.76663 0.3983 0.0
N235 N 0.81853 0.70049 0.37901 0.0
N236 N 0.79285 0.72892 0.41151 0.0
H237 H 0.79801 0.65324 0.40586 0.0
H238 H 0.83002 0.77034 0.36426 0.0
C239 C 0.92621 0.70216 0.3717 0.0
O240 O 0.9082 0.69158 0.39126 0.0
N241 N 0.85121 0.62489 0.32738 0.0
C242 C 0.83804 0.57955 0.32231 0.0
C243 C 0.85065 0.57043 0.30053 0.0
C244 C 0.87127 0.6428 0.30885 0.0
N245 N 0.87123 0.61044 0.29203 0.0
C246 C 0.82309 0.58089 0.38262 0.0
C247 C 0.91906 0.55654 0.38674 0.0
C248 C 0.88487 0.53257 0.39972 0.0
C249 C 0.83622 0.54374 0.39688 0.0
C250 C 0.90409 0.59278 0.37218 0.0
N251 N 0.85708 0.6074 0.37174 0.0
H252 H 0.7854 0.58962 0.38114 0.0
H253 H 0.93058 0.60934 0.36155 0.0
H254 H 0.81881 0.5556 0.33333 0.0
H255 H 0.88431 0.67938 0.30768 0.0
O256 O 0.76907 0.64277 0.35065 0.0
O257 O 0.80016 0.70788 0.33535 0.0
O258 O 0.90274 0.69153 0.35388 0.0
C259 C 0.76192 0.68232 0.33979 0.0
H260 H 0.80019 0.80415 0.40305 0.0
H261 H 0.84315 0.53764 0.29143 0.0
H262 H 0.95691 0.54756 0.38797 0.0
H263 H 0.80865 0.52548 0.4064 0.0
H264 H 0.34818 0.295 0.03465 0.0
H265 H 0.243 0.18381 0.92234 0.0
H266 H 0.28671 0.15332 0.02857 0.0
H267 H 0.24905 0.33634 0.93602 0.0
H268 H 0.28498 0.16865 0.95726 0.0
H269 H 0.33797 0.30631 -0.00573 0.0
C270 C 0.33356 0.26606 0.02461 0.0
C271 C 0.31729 0.22365 0.03459 0.0
C272 C 0.27761 0.20544 0.95241 0.0
C273 C 0.30607 0.23572 -0.01087 0.0
C274 C 0.25323 0.21412 0.93263 0.0
C275 C 0.24131 0.26134 0.92656 0.0
C276 C 0.29012 0.24424 0.96619 0.0
C277 C 0.25718 0.29936 0.94012 0.0
C278 C 0.32765 0.27244 0.00177 0.0
C279 C 0.29867 0.18682 0.02126 0.0
N280 N 0.28027 0.28994 0.95952 0.0
N281 N 0.29316 0.19382 -0.00085 0.0
H282 H 0.14463 0.78421 0.19477 0.0
H283 H 0.23287 0.67627 0.30925 0.0
H284 H 0.2133 0.64697 0.2043 0.0
H285 H 0.21985 0.82786 0.29495 0.0
H286 H 0.18742 0.65833 0.27545 0.0
H287 H 0.1355 0.79192 0.23535 0.0
C288 C 0.15659 0.75529 0.20548 0.0
C289 C 0.18112 0.71571 0.19664 0.0
C290 C 0.19344 0.69555 0.28009 0.0
C291 C 0.17024 0.72357 0.24234 0.0
C292 C 0.21975 0.7058 0.29922 0.0
C293 C 0.23211 0.75352 0.30428 0.0
C294 C 0.1799 0.7333 0.26595 0.0
C295 C 0.21218 0.79049 0.29135 0.0
C296 C 0.15128 0.75953 0.22847 0.0
C297 C 0.19558 0.67865 0.21082 0.0
N298 N 0.18804 0.77956 0.27239 0.0
N299 N 0.19052 0.68374 0.23308 0.0
H300 H 0.82579 0.67271 0.4448 0.0
H301 H 0.82363 0.7741 0.55052 0.0
H302 H 0.73092 0.79124 0.43023 0.0
H303 H 0.67794 0.8156 0.53497 0.0
H304 H 0.83219 0.74169 0.51283 0.0
H305 H 0.81156 0.68539 0.48466 0.0
C306 C 0.80142 0.70089 0.45007 0.0
C307 C 0.77987 0.73149 0.43447 0.0
C308 C 0.79801 0.75688 0.51784 0.0
C309 C 0.76426 0.74666 0.47952 0.0
C310 C 0.79344 0.776 0.53915 0.0
C311 C 0.75014 0.79757 0.54563 0.0
C312 C 0.75913 0.76009 0.50298 0.0
C313 C 0.71176 0.79891 0.5305 0.0
C314 C 0.79383 0.70848 0.4727 0.0
C315 C 0.74869 0.76757 0.44192 0.0
N316 N 0.7174 0.78108 0.50968 0.0
N317 N 0.74183 0.77429 0.46401 0.0
H318 H 0.78319 0.39985 0.70193 0.0
H319 H 0.75485 0.18422 0.7846 0.0
H320 H 0.82637 0.2557 0.68465 0.0
H321 H 0.7518 0.33293 0.80517 0.0
H322 H 0.79144 0.20871 0.74939 0.0
H323 H 0.78039 0.37653 0.741 0.0
C324 C 0.79239 0.36332 0.70651 0.0
C325 C 0.80415 0.32933 0.69025 0.0
C326 C 0.78363 0.23588 0.76179 0.0
C327 C 0.80078 0.30208 0.73467 0.0
C328 C 0.76289 0.22188 0.78188 0.0
C329 C 0.74905 0.25682 0.79742 0.0
C330 C 0.79006 0.28509 0.75735 0.0
C331 C 0.76037 0.3051 0.79322 0.0
C332 C 0.79121 0.35003 0.72877 0.0
C333 C 0.81685 0.28271 0.69686 0.0
N334 N 0.77946 0.31793 0.77341 0.0
N335 N 0.81391 0.27006 0.71862 0.0
H336 H 0.56424 0.11499 0.94325 0.0
H337 H 0.60078 0.18355 0.06764 0.0
H338 H 0.70664 0.10451 0.97122 0.0
H339 H 0.4811 0.09419 0.04805 0.0
H340 H 0.64029 0.16515 0.03197 0.0
H341 H 0.53086 0.11922 0.98108 0.0
C342 C 0.58828 0.11359 0.95743 0.0
C343 C 0.638 0.10931 0.95435 0.0
C344 C 0.60583 0.14888 0.03575 0.0
C345 C 0.60066 0.11488 -0.00276 0.0
C346 C 0.58351 0.1592 0.05601 0.0
C347 C 0.53809 0.13979 0.06072 0.0
C348 C 0.58159 0.12053 0.01996 0.0
C349 C 0.51649 0.10918 0.04506 0.0
C350 C 0.56938 0.11565 0.97888 0.0
C351 C 0.66803 0.10747 0.97311 0.0
N352 N 0.53802 0.10119 0.02514 0.0
N353 N 0.64895 0.11099 -0.00614 0.0
H354 H 0.42621 0.05367 0.3165 0.0
H355 H 0.39134 0.07856 0.18474 0.0
H356 H 0.35245 0.95112 0.27461 0.0
H357 H 0.45465 0.19131 0.22458 0.0
H358 H 0.38425 0.02879 0.21771 0.0
H359 H 0.44441 0.10216 0.2833 0.0
C360 C 0.41413 0.0413 0.30033 0.0
C361 C 0.38716 0.99878 0.29829 0.0
C362 C 0.39976 0.06438 0.21937 0.0
C363 C 0.40785 0.05351 0.26049 0.0
C364 C 0.40356 0.09295 0.20051 0.0
C365 C 0.42285 0.13945 0.20199 0.0
C366 C 0.41518 0.08232 0.24004 0.0
C367 C 0.43948 0.15565 0.22277 0.0
C368 C 0.42436 0.06897 0.28145 0.0
C369 C 0.37242 0.98421 0.277 0.0
N370 N 0.4349 0.12723 0.24109 0.0
N371 N 0.38282 0.01153 0.25902 0.0
H372 H 0.39476 0.82352 0.45183 0.0
H373 H 0.5256 0.96539 0.55095 0.0
H374 H 0.41197 0.97788 0.45302 0.0
H375 H 0.50896 0.81099 0.54859 0.0
H376 H 0.4803 0.97152 0.51612 0.0
H377 H 0.43351 0.8189 0.48814 0.0
C378 C 0.4069 0.85646 0.45964 0.0
C379 C 0.40031 0.90115 0.44924 0.0
C380 C 0.48625 0.93635 0.52334 0.0
C381 C 0.44431 0.89618 0.49109 0.0
C382 C 0.51218 0.93282 0.54319 0.0
C383 C 0.52112 0.88762 0.55274 0.0
C384 C 0.46933 0.89434 0.51288 0.0
C385 C 0.50241 0.84666 0.54206 0.0
C386 C 0.42874 0.85384 0.4805 0.0
C387 C 0.41593 0.94271 0.46047 0.0
N388 N 0.4777 0.851 0.52268 0.0
N389 N 0.43737 0.9392 0.48074 0.0
H390 H 0.56731 0.04002 0.79787 0.0
H391 H 0.61796 0.80502 0.72584 0.0
H392 H 0.68066 0.94156 0.81583 0.0
H393 H 0.59076 0.94331 0.69618 0.0
H394 H 0.61833 0.84337 0.76289 0.0
H395 H 0.55156 0.99195 0.76431 0.0
C396 C 0.58786 1.00746 0.79502 0.0
C397 C 0.62523 0.99443 0.80947 0.0
C398 C 0.61172 0.86503 0.74823 0.0
C399 C 0.60747 0.93977 0.7715 0.0
C400 C 0.61136 0.8433 0.72727 0.0
C401 C 0.60453 0.87139 0.70819 0.0
C402 C 0.60377 0.91474 0.74996 0.0
C403 C 0.59645 0.92082 0.71063 0.0
C404 C 0.57916 0.98043 0.77588 0.0
C405 C 0.65152 0.9525 0.80498 0.0
N406 N 0.59607 0.94102 0.7312 0.0
N407 N 0.64219 0.92652 0.78628 0.0
H408 H 0.12899 0.32739 0.76929 0.0
H409 H 0.02127 0.46889 0.66532 0.0
H410 H 0.14095 0.48129 0.76191 0.0
H411 H 0.02744 0.31404 0.67005 0.0
H412 H 0.06947 0.47479 0.69936 0.0
H413 H 0.09515 0.32215 0.73196 0.0
C414 C 0.12432 0.36015 0.75982 0.0
C415 C 0.13721 0.40495 0.76881 0.0
C416 C 0.06085 0.43955 0.69275 0.0
C417 C 0.09881 0.39923 0.72589 0.0
C418 C 0.03332 0.43617 0.67335 0.0
C419 C 0.02013 0.39092 0.66487 0.0
C420 C 0.07484 0.39736 0.70385 0.0
C421 C 0.03709 0.34969 0.67582 0.0
C422 C 0.10538 0.35711 0.7384 0.0
C423 C 0.13149 0.44608 0.75556 0.0
N424 N 0.06306 0.35392 0.69486 0.0
N425 N 0.11225 0.44232 0.73481 0.0
H426 H 0.12617 0.43351 0.95149 0.0
H427 H 0.11042 0.701 0.00028 0.0
H428 H 0.12318 0.56034 0.91019 0.0
H429 H 0.14192 0.5764 0.04042 0.0
H430 H 0.10783 0.64955 0.96728 0.0
H431 H 0.12359 0.48482 0.9845 0.0
C432 C 0.12424 0.47217 0.94937 0.0
C433 C 0.12476 0.49273 0.92806 0.0
C434 C 0.11538 0.63347 0.9833 0.0
C435 C 0.12259 0.55167 0.96578 0.0
C436 C 0.11666 0.66277 0.00214 0.0
C437 C 0.12642 0.64293 0.02312 0.0
C438 C 0.12351 0.58384 0.98546 0.0
C439 C 0.13484 0.59325 0.02455 0.0
C440 C 0.12327 0.50144 0.96822 0.0
C441 C 0.12317 0.54306 0.92632 0.0
N442 N 0.13301 0.56537 0.00598 0.0
N443 N 0.12217 0.57083 0.94493 0.0
H444 H 0.96353 0.58814 0.15416 0.0
H445 H 0.88363 0.69646 0.27124 0.0
H446 H 1.00949 0.72605 0.18018 0.0
H447 H 0.89342 0.54295 0.26056 0.0
H448 H 0.91347 0.70959 0.23389 0.0
H449 H 0.92246 0.57264 0.18958 0.0
C450 C 0.96476 0.61537 0.16704 0.0
C451 C 0.98986 0.65883 0.16379 0.0
C452 C 0.90901 0.673 0.23972 0.0
C453 C 0.94225 0.64142 0.20407 0.0
C454 C 0.89227 0.66537 0.2612 0.0
C455 C 0.88679 0.61842 0.26943 0.0
C456 C 0.92013 0.63354 0.22611 0.0
C457 C 0.8971 0.57976 0.25504 0.0
C458 C 0.94118 0.60643 0.18721 0.0
C459 C 0.98957 0.6927 0.18124 0.0
N460 N 0.91352 0.58816 0.23407 0.0
N461 N 0.9662 0.68327 0.20046 0.0
H462 H 0.94771 0.55003 0.43341 0.0
H463 H 0.89684 0.30526 0.49855 0.0
H464 H 0.85313 0.44074 0.40708 0.0
H465 H 0.91802 0.44164 0.53134 0.0
H466 H 0.90142 0.34631 0.46232 0.0
H467 H 0.95939 0.50105 0.46689 0.0
C468 C 0.93048 0.51512 0.43446 0.0
C469 C 0.89934 0.49927 0.41761 0.0
C470 C 0.90544 0.36702 0.47749 0.0
C471 C 0.91231 0.44355 0.45564 0.0
C472 C 0.90295 0.34373 0.49803 0.0
C473 C 0.90667 0.37039 0.51778 0.0
C474 C 0.9129 0.41696 0.47685 0.0
C475 C 0.91439 0.42013 0.51641 0.0
C476 C 0.93677 0.48751 0.45358 0.0
C477 C 0.87724 0.45413 0.41984 0.0
N478 N 0.91741 0.44187 0.49626 0.0
N479 N 0.884 0.42779 0.43861 0.0
H480 H 0.16257 0.8617 0.11527 0.0
H481 H 0.38235 0.0294 0.08286 0.0
H482 H 0.29269 0.80332 0.08694 0.0
H483 H 0.27836 0.06956 0.13267 0.0
H484 H 0.34873 0.9481 0.08212 0.0
H485 H 0.20182 0.93962 0.11896 0.0
C486 C 0.19938 0.86527 0.1096 0.0
C487 C 0.22426 0.82571 0.10061 0.0
C488 C 0.33354 0.97446 0.09338 0.0
C489 C 0.26961 0.9156 0.10497 0.0
C490 C 0.35261 0.02094 0.09381 0.0
C491 C 0.33291 0.0564 0.10779 0.0
C492 C 0.29372 0.96338 0.10669 0.0
C493 C 0.29469 0.04331 0.12171 0.0
C494 C 0.22188 0.90986 0.11195 0.0
C495 C 0.27205 0.83279 0.09383 0.0
N496 N 0.27586 0.99801 0.12057 0.0
N497 N 0.2931 0.87698 0.096 0.0
H498 H 0.73131 0.76728 0.32054 0.0
H499 H 0.47189 0.7541 0.37716 0.0
H500 H 0.67943 0.64151 0.35508 0.0
H501 H 0.49825 0.84133 0.31917 0.0
H502 H 0.55349 0.72064 0.37362 0.0
H503 H 0.65005 0.80219 0.32301 0.0
C504 C 0.7028 0.74671 0.32829 0.0
C505 C 0.71225 0.70131 0.3375 0.0
C506 C 0.54133 0.74725 0.36173 0.0
C507 C 0.62004 0.74161 0.3411 0.0
C508 C 0.49501 0.76657 0.36387 0.0
C509 C 0.47825 0.80025 0.34837 0.0
C510 C 0.57131 0.76248 0.34425 0.0
C511 C 0.50963 0.81505 0.33137 0.0
C512 C 0.65659 0.76675 0.32984 0.0
C513 C 0.67396 0.67653 0.34764 0.0
N514 N 0.55465 0.79623 0.32979 0.0
N515 N 0.62985 0.69719 0.3494 0.0
H516 H 0.76544 0.96629 0.63017 0.0
H517 H 0.7231 0.24188 0.5955 0.0
H518 H 0.62514 0.03278 0.62821 0.0
H519 H 0.86269 0.18142 0.60981 0.0
H520 H 0.68634 0.16362 0.60395 0.0
H521 H 0.80162 0.04356 0.62032 0.0
C522 C 0.74223 0.9972 0.6279 0.0
C523 C 0.69213 0.99293 0.63014 0.0
C524 C 0.72505 0.16745 0.60508 0.0
C525 C 0.73336 0.08157 0.61842 0.0
C526 C 0.74606 0.21198 0.60005 0.0
C527 C 0.79602 0.21817 0.60194 0.0
C528 C 0.75428 0.12884 0.61191 0.0
C529 C 0.824 0.17831 0.60817 0.0
C530 C 0.76292 0.04133 0.62216 0.0
C531 C 0.66394 0.03432 0.62681 0.0
N532 N 0.80279 0.13549 0.61296 0.0
N533 N 0.68489 0.07677 0.62101 0.0
H534 H 0.50651 0.14922 0.83005 0.0
H535 H 0.33202 0.36575 0.86218 0.0
H536 H 0.54074 0.25306 0.88106 0.0
H537 H 0.28314 0.24126 0.82551 0.0
H538 H 0.41057 0.3281 0.86671 0.0
H539 H 0.4261 0.18385 0.82673 0.0
C540 C 0.49683 0.17905 0.84077 0.0
C541 C 0.53037 0.19837 0.85586 0.0
C542 C 0.3828 0.30904 0.8576 0.0
C543 C 0.43845 0.23889 0.85178 0.0
C544 C 0.33794 0.33069 0.85477 0.0
C545 C 0.30077 0.30672 0.84334 0.0
C546 C 0.39106 0.26306 0.84878 0.0
C547 C 0.31074 0.26123 0.83429 0.0
C548 C 0.4509 0.19883 0.83882 0.0
C549 C 0.51587 0.23689 0.86935 0.0
N550 N 0.35495 0.24088 0.83721 0.0
N551 N 0.47112 0.2563 0.86679 0.0
H552 H 0.75429 0.46679 0.5981 0.0
H553 H 0.79499 0.74062 0.63655 0.0
H554 H 0.89374 0.53527 0.59935 0.0
H555 H 0.65552 0.67805 0.62389 0.0
H556 H 0.8324 0.66309 0.62723 0.0
H557 H 0.71789 0.54218 0.61046 0.0
C558 C 0.77725 0.49777 0.60077 0.0
C559 C 0.82719 0.49458 0.59758 0.0
C560 C 0.79357 0.66623 0.62676 0.0
C561 C 0.78571 0.58113 0.61214 0.0
C562 C 0.77221 0.71026 0.63238 0.0
C563 C 0.72209 0.71569 0.63105 0.0
C564 C 0.76452 0.6274 0.61991 0.0
C565 C 0.69431 0.67543 0.62512 0.0
C566 C 0.75645 0.54083 0.60794 0.0
C567 C 0.85506 0.53606 0.6014 0.0
N568 N 0.71586 0.63315 0.61969 0.0
N569 N 0.834 0.57749 0.60857 0.0
H570 H 0.83763 0.15618 0.8909 0.0
H571 H 0.05044 0.25115 0.85086 0.0
H572 H 0.77267 0.29192 0.87391 0.0
H573 H 0.98068 0.38973 0.85304 0.0
H574 H 0.97585 0.21355 0.86255 0.0
H575 H 0.9167 0.19031 0.88388 0.0
C576 C 0.84029 0.19361 0.88601 0.0
C577 C 0.79867 0.22136 0.88312 0.0
C578 C 0.97659 0.25225 0.86095 0.0
C579 C 0.88933 0.26021 0.87326 0.0
C580 C 0.01937 0.27374 0.85386 0.0
C581 C 0.02211 0.32374 0.85099 0.0
C582 C 0.93601 0.28097 0.86555 0.0
C583 C 0.98037 0.35101 0.85498 0.0
C584 C 0.88556 0.21295 0.88146 0.0
C585 C 0.804 0.26954 0.87665 0.0
N586 N 0.9392 0.32932 0.86209 0.0
N587 N 0.84847 0.28728 0.87167 0.0
H588 H 0.15566 0.52725 0.14614 0.0
H589 H 0.38149 0.36404 0.11542 0.0
H590 H 0.26269 0.57077 0.09837 0.0
H591 H 0.25319 0.30568 0.14543 0.0
H592 H 0.34163 0.44181 0.11197 0.0
H593 H 0.19267 0.44774 0.14805 0.0
C594 C 0.18682 0.51992 0.13587 0.0
C595 C 0.20621 0.55583 0.12209 0.0
C596 C 0.32218 0.4121 0.11936 0.0
C597 C 0.24939 0.46469 0.12456 0.0
C598 C 0.34505 0.36763 0.12156 0.0
C599 C 0.32075 0.32806 0.13086 0.0
C600 C 0.27465 0.41758 0.1267 0.0
C601 C 0.27344 0.33514 0.13831 0.0
C602 C 0.2079 0.47442 0.137 0.0
C603 C 0.24643 0.54412 0.10911 0.0
N604 N 0.25198 0.37904 0.13612 0.0
N605 N 0.26706 0.4997 0.11086 0.0
H606 H 0.18467 0.86444 0.40044 0.0
H607 H 1.00295 0.67743 0.34495 0.0
H608 H 0.23449 0.73056 0.37262 0.0
H609 H 0.96144 0.77128 0.39872 0.0
H610 H 0.08731 0.70346 0.35007 0.0
H611 H 0.10147 0.83624 0.39655 0.0
C612 C 0.17801 0.82848 0.39414 0.0
C613 C 0.21639 0.79922 0.38744 0.0
C614 C 0.05953 0.71851 0.36059 0.0
C615 C 0.12135 0.76779 0.38169 0.0
C616 C 0.01147 0.70426 0.35745 0.0
C617 C 0.97532 0.72262 0.37132 0.0
C618 C 0.07103 0.75189 0.37744 0.0
C619 C 0.98829 0.75646 0.38762 0.0
C620 C 0.1306 0.81262 0.39166 0.0
C621 C 0.20586 0.75355 0.37863 0.0
N622 N 0.03492 0.77013 0.39017 0.0
N623 N 0.15925 0.73944 0.3757 0.0
loop_
_geom_bond_atom_site_label_1
_geom_bond_atom_site_label_2
_geom_bond_distance
_geom_bond_site_symmetry_2
_ccdc_geom_bond_type
Co0 N4 2.148 . S
Co0 N10 2.128 . S
Co0 N20 2.194 . S
Co0 O25 2.351 . S
Co0 O26 2.155 . S
Co0 O27 2.096 . S
C1 N4 1.301 . S
C1 N5 1.328 . S
C1 H6 0.930 . S
C2 C3 1.333 . S
C2 N4 1.317 . S
C2 H7 0.930 . S
C3 C2 1.333 . S
C3 N5 1.350 . S
C3 H29 0.931 . S
N4 Co0 2.148 . S
N4 C1 1.301 . S
N4 C2 1.317 . S
N5 C1 1.328 . S
N5 C3 1.350 . S
H6 C1 0.930 . S
H7 C2 0.930 . S
C8 O9 1.224 . S
C8 O27 1.247 . S
O9 C8 1.224 . S
N10 Co0 2.128 . S
N10 C11 1.355 . S
N10 C13 1.311 . S
C11 N10 1.355 . S
C11 C12 1.363 . S
C11 H23 0.929 . S
C12 C11 1.363 . S
C12 N14 1.375 . S
C12 H30 0.931 . S
C13 N10 1.311 . S
C13 N14 1.347 . S
C13 H24 0.929 . S
N14 C12 1.375 . S
N14 C13 1.347 . S
C15 C18 1.365 . S
C15 N20 1.328 . S
C15 H21 0.929 . S
C16 C17 1.362 . S
C16 C19 1.378 . S
C16 H31 0.929 . S
C17 C16 1.362 . S
C17 C18 1.366 . S
C18 C15 1.365 . S
C18 C17 1.366 . S
C18 H32 0.930 . S
C19 C16 1.378 . S
C19 N20 1.315 . S
C19 H22 0.930 . S
N20 Co0 2.194 . S
N20 C15 1.328 . S
N20 C19 1.315 . S
H21 C15 0.929 . S
H22 C19 0.930 . S
H23 C11 0.929 . S
H24 C13 0.929 . S
O25 Co0 2.351 . S
O25 C28 1.244 . S
O26 Co0 2.155 . S
O26 C28 1.240 . S
O27 Co0 2.096 . S
O27 C8 1.247 . S
C28 O25 1.244 . S
C28 O26 1.240 . S
H29 C3 0.931 . S
H30 C12 0.931 . S
H31 C16 0.929 . S
H32 C18 0.930 . S
Co33 N37 2.148 . S
Co33 N43 2.128 . S
Co33 N53 2.194 . S
Co33 O58 2.351 . S
Co33 O59 2.155 . S
Co33 O60 2.096 . S
C34 N37 1.301 . S
C34 N38 1.328 . S
C34 H39 0.930 . S
C35 C36 1.333 . S
C35 N37 1.317 . S
C35 H40 0.930 . S
C36 C35 1.333 . S
C36 N38 1.350 . S
C36 H62 0.931 . S
N37 Co33 2.148 . S
N37 C34 1.301 . S
N37 C35 1.317 . S
N38 C34 1.328 . S
N38 C36 1.350 . S
H39 C34 0.930 . S
H40 C35 0.930 . S
C41 O42 1.224 . S
C41 O60 1.247 . S
O42 C41 1.224 . S
N43 Co33 2.128 . S
N43 C44 1.355 . S
N43 C46 1.311 . S
C44 N43 1.355 . S
C44 C45 1.363 . S
C44 H56 0.929 . S
C45 C44 1.363 . S
C45 N47 1.375 . S
C45 H63 0.931 1_565 S
C46 N43 1.311 . S
C46 N47 1.347 . S
C46 H57 0.929 . S
N47 C45 1.375 . S
N47 C46 1.347 . S
C48 C51 1.365 1_565 S
C48 N53 1.328 . S
C48 H54 0.929 . S
C49 C50 1.362 1_565 S
C49 C52 1.378 . S
C49 H64 0.929 1_565 S
C50 C49 1.362 1_545 S
C50 C51 1.366 . S
C51 C48 1.365 1_545 S
C51 C50 1.366 . S
C51 H65 0.930 . S
C52 C49 1.378 . S
C52 N53 1.315 . S
C52 H55 0.930 . S
N53 Co33 2.194 . S
N53 C48 1.328 . S
N53 C52 1.315 . S
H54 C48 0.929 . S
H55 C52 0.930 . S
H56 C44 0.929 . S
H57 C46 0.929 . S
O58 Co33 2.351 . S
O58 C61 1.244 . S
O59 Co33 2.155 . S
O59 C61 1.240 . S
O60 Co33 2.096 . S
O60 C41 1.247 . S
C61 O58 1.244 . S
C61 O59 1.240 . S
H62 C36 0.931 . S
H63 C45 0.931 1_545 S
H64 C49 0.929 1_545 S
H65 C51 0.930 . S
Co66 N70 2.148 . S
Co66 N76 2.128 . S
Co66 N86 2.194 . S
Co66 O91 2.351 . S
Co66 O92 2.155 . S
Co66 O93 2.096 . S
C67 N70 1.301 . S
C67 N71 1.328 . S
C67 H72 0.930 . S
C68 C69 1.333 . S
C68 N70 1.317 . S
C68 H73 0.930 . S
C69 C68 1.333 . S
C69 N71 1.350 . S
C69 H95 0.931 . S
N70 Co66 2.148 . S
N70 C67 1.301 . S
N70 C68 1.317 . S
N71 C67 1.328 . S
N71 C69 1.350 . S
H72 C67 0.930 . S
H73 C68 0.930 . S
C74 O75 1.224 . S
C74 O93 1.247 . S
O75 C74 1.224 . S
N76 Co66 2.128 . S
N76 C77 1.355 . S
N76 C79 1.311 . S
C77 N76 1.355 . S
C77 C78 1.363 . S
C77 H89 0.929 . S
C78 C77 1.363 . S
C78 N80 1.375 . S
C78 H96 0.931 . S
C79 N76 1.311 . S
C79 N80 1.347 . S
C79 H90 0.929 . S
N80 C78 1.375 . S
N80 C79 1.347 . S
C81 C84 1.365 . S
C81 N86 1.328 . S
C81 H87 0.929 . S
C82 C83 1.362 . S
C82 C85 1.378 . S
C82 H97 0.929 . S
C83 C82 1.362 . S
C83 C84 1.366 . S
C84 C81 1.365 . S
C84 C83 1.366 . S
C84 H98 0.930 . S
C85 C82 1.378 . S
C85 N86 1.315 . S
C85 H88 0.930 . S
N86 Co66 2.194 . S
N86 C81 1.328 . S
N86 C85 1.315 . S
H87 C81 0.929 . S
H88 C85 0.930 . S
H89 C77 0.929 . S
H90 C79 0.929 . S
O91 Co66 2.351 . S
O91 C94 1.244 . S
O92 Co66 2.155 . S
O92 C94 1.240 . S
O93 Co66 2.096 . S
O93 C74 1.247 . S
C94 O91 1.244 . S
C94 O92 1.240 . S
H95 C69 0.931 . S
H96 C78 0.931 . S
H97 C82 0.929 . S
H98 C84 0.930 . S
Co99 N103 2.148 . S
Co99 N109 2.128 . S
Co99 N119 2.194 . S
Co99 O124 2.351 . S
Co99 O125 2.155 . S
Co99 O126 2.096 . S
C100 N103 1.301 . S
C100 N104 1.328 . S
C100 H105 0.930 . S
C101 C102 1.333 . S
C101 N103 1.317 . S
C101 H106 0.930 . S
C102 C101 1.333 . S
C102 N104 1.350 . S
C102 H128 0.931 . S
N103 Co99 2.148 . S
N103 C100 1.301 . S
N103 C101 1.317 . S
N104 C100 1.328 . S
N104 C102 1.350 . S
H105 C100 0.930 . S
H106 C101 0.930 . S
C107 O108 1.224 . S
C107 O126 1.247 . S
O108 C107 1.224 . S
N109 Co99 2.128 . S
N109 C110 1.355 . S
N109 C112 1.311 . S
C110 N109 1.355 . S
C110 C111 1.363 . S
C110 H122 0.929 . S
C111 C110 1.363 . S
C111 N113 1.375 . S
C111 H129 0.931 1_545 S
C112 N109 1.311 . S
C112 N113 1.347 . S
C112 H123 0.929 . S
N113 C111 1.375 . S
N113 C112 1.347 . S
C114 C117 1.365 1_545 S
C114 N119 1.328 . S
C114 H120 0.929 . S
C115 C116 1.362 1_545 S
C115 C118 1.378 . S
C115 H130 0.929 1_545 S
C116 C115 1.362 1_565 S
C116 C117 1.366 . S
C117 C114 1.365 1_565 S
C117 C116 1.366 . S
C117 H131 0.930 . S
C118 C115 1.378 . S
C118 N119 1.315 . S
C118 H121 0.930 . S
N119 Co99 2.194 . S
N119 C114 1.328 . S
N119 C118 1.315 . S
H120 C114 0.929 . S
H121 C118 0.930 . S
H122 C110 0.929 . S
H123 C112 0.929 . S
O124 Co99 2.351 . S
O124 C127 1.244 . S
O125 Co99 2.155 . S
O125 C127 1.240 . S
O126 Co99 2.096 . S
O126 C107 1.247 . S
C127 O124 1.244 . S
C127 O125 1.240 . S
H128 C102 0.931 . S
H129 C111 0.931 1_565 S
H130 C115 0.929 1_565 S
H131 C117 0.930 . S
Co132 N136 2.148 . S
Co132 N142 2.128 . S
Co132 N152 2.194 . S
Co132 O157 2.351 . S
Co132 O158 2.155 . S
Co132 O159 2.096 . S
C133 N136 1.301 . S
C133 N137 1.328 . S
C133 H138 0.930 . S
C134 C135 1.333 . S
C134 N136 1.317 . S
C134 H139 0.930 . S
C135 C134 1.333 . S
C135 N137 1.350 . S
C135 H161 0.931 . S
N136 Co132 2.148 . S
N136 C133 1.301 . S
N136 C134 1.317 . S
N137 C133 1.328 . S
N137 C135 1.350 . S
H138 C133 0.930 . S
H139 C134 0.930 . S
C140 O141 1.224 . S
C140 O159 1.247 . S
O141 C140 1.224 . S
N142 Co132 2.128 . S
N142 C143 1.355 . S
N142 C145 1.311 . S
C143 N142 1.355 . S
C143 C144 1.363 . S
C143 H155 0.929 . S
C144 C143 1.363 . S
C144 N146 1.375 . S
C144 H162 0.931 1_655 S
C145 N142 1.311 . S
C145 N146 1.347 . S
C145 H156 0.929 . S
N146 C144 1.375 . S
N146 C145 1.347 . S
C147 C150 1.365 1_655 S
C147 N152 1.328 . S
C147 H153 0.929 . S
C148 C149 1.362 1_655 S
C148 C151 1.378 . S
C148 H163 0.929 1_655 S
C149 C148 1.362 1_455 S
C149 C150 1.366 . S
C150 C147 1.365 1_455 S
C150 C149 1.366 . S
C150 H164 0.930 . S
C151 C148 1.378 . S
C151 N152 1.315 . S
C151 H154 0.930 . S
N152 Co132 2.194 . S
N152 C147 1.328 . S
N152 C151 1.315 . S
H153 C147 0.929 . S
H154 C151 0.930 . S
H155 C143 0.929 . S
H156 C145 0.929 . S
O157 Co132 2.351 . S
O157 C160 1.244 . S
O158 Co132 2.155 . S
O158 C160 1.240 . S
O159 Co132 2.096 . S
O159 C140 1.247 . S
C160 O157 1.244 . S
C160 O158 1.240 . S
H161 C135 0.931 . S
H162 C144 0.931 1_455 S
H163 C148 0.929 1_455 S
H164 C150 0.930 . S
Co165 N169 2.148 . S
Co165 N175 2.128 . S
Co165 N185 2.194 . S
Co165 O190 2.351 . S
Co165 O191 2.155 . S
Co165 O192 2.096 . S
C166 N169 1.301 . S
C166 N170 1.328 . S
C166 H171 0.930 . S
C167 C168 1.333 . S
C167 N169 1.317 . S
C167 H172 0.930 . S
C168 C167 1.333 . S
C168 N170 1.350 . S
C168 H194 0.931 . S
N169 Co165 2.148 . S
N169 C166 1.301 . S
N169 C167 1.317 . S
N170 C166 1.328 . S
N170 C168 1.350 . S
H171 C166 0.930 . S
H172 C167 0.930 . S
C173 O174 1.224 . S
C173 O192 1.247 . S
O174 C173 1.224 . S
N175 Co165 2.128 . S
N175 C176 1.355 . S
N175 C178 1.311 . S
C176 N175 1.355 . S
C176 C177 1.363 . S
C176 H188 0.929 . S
C177 C176 1.363 . S
C177 N179 1.375 . S
C177 H195 0.931 . S
C178 N175 1.311 . S
C178 N179 1.347 . S
C178 H189 0.929 . S
N179 C177 1.375 . S
N179 C178 1.347 . S
C180 C183 1.365 . S
C180 N185 1.328 . S
C180 H186 0.929 . S
C181 C182 1.362 . S
C181 C184 1.378 . S
C181 H196 0.929 . S
C182 C181 1.362 . S
C182 C183 1.366 . S
C183 C180 1.365 . S
C183 C182 1.366 . S
C183 H197 0.930 . S
C184 C181 1.378 . S
C184 N185 1.315 . S
C184 H187 0.930 . S
N185 Co165 2.194 . S
N185 C180 1.328 . S
N185 C184 1.315 . S
H186 C180 0.929 . S
H187 C184 0.930 . S
H188 C176 0.929 . S
H189 C178 0.929 . S
O190 Co165 2.351 . S
O190 C193 1.244 . S
O191 Co165 2.155 . S
O191 C193 1.240 . S
O192 Co165 2.096 . S
O192 C173 1.247 . S
C193 O190 1.244 . S
C193 O191 1.240 . S
H194 C168 0.931 . S
H195 C177 0.931 . S
H196 C181 0.929 . S
H197 C183 0.930 . S
Co198 N202 2.148 . S
Co198 N208 2.128 . S
Co198 N218 2.194 . S
Co198 O223 2.351 . S
Co198 O224 2.155 . S
Co198 O225 2.096 . S
C199 N202 1.301 . S
C199 N203 1.328 . S
C199 H204 0.930 . S
C200 C201 1.333 . S
C200 N202 1.317 . S
C200 H205 0.930 . S
C201 C200 1.333 . S
C201 N203 1.350 . S
C201 H227 0.931 . S
N202 Co198 2.148 . S
N202 C199 1.301 . S
N202 C200 1.317 . S
N203 C199 1.328 . S
N203 C201 1.350 . S
H204 C199 0.930 . S
H205 C200 0.930 . S
C206 O207 1.224 . S
C206 O225 1.247 . S
O207 C206 1.224 . S
N208 Co198 2.128 . S
N208 C209 1.355 . S
N208 C211 1.311 . S
C209 N208 1.355 . S
C209 C210 1.363 . S
C209 H221 0.929 . S
C210 C209 1.363 . S
C210 N212 1.375 . S
C210 H228 0.931 1_455 S
C211 N208 1.311 . S
C211 N212 1.347 . S
C211 H222 0.929 . S
N212 C210 1.375 . S
N212 C211 1.347 . S
C213 C216 1.365 1_455 S
C213 N218 1.328 . S
C213 H219 0.929 . S
C214 C215 1.362 1_455 S
C214 C217 1.378 . S
C214 H229 0.929 1_455 S
C215 C214 1.362 1_655 S
C215 C216 1.366 . S
C216 C213 1.365 1_655 S
C216 C215 1.366 . S
C216 H230 0.930 . S
C217 C214 1.378 . S
C217 N218 1.315 . S
C217 H220 0.930 . S
N218 Co198 2.194 . S
N218 C213 1.328 . S
N218 C217 1.315 . S
H219 C213 0.929 . S
H220 C217 0.930 . S
H221 C209 0.929 . S
H222 C211 0.929 . S
O223 Co198 2.351 . S
O223 C226 1.244 . S
O224 Co198 2.155 . S
O224 C226 1.240 . S
O225 Co198 2.096 . S
O225 C206 1.247 . S
C226 O223 1.244 . S
C226 O224 1.240 . S
H227 C201 0.931 . S
H228 C210 0.931 1_655 S
H229 C214 0.929 1_655 S
H230 C216 0.930 . S
Co231 N235 2.148 . S
Co231 N241 2.128 . S
Co231 N251 2.194 . S
Co231 O256 2.351 . S
Co231 O257 2.155 . S
Co231 O258 2.096 . S
C232 N235 1.301 . S
C232 N236 1.328 . S
C232 H237 0.930 . S
C233 C234 1.333 . S
C233 N235 1.317 . S
C233 H238 0.930 . S
C234 C233 1.333 . S
C234 N236 1.350 . S
C234 H260 0.931 . S
N235 Co231 2.148 . S
N235 C232 1.301 . S
N235 C233 1.317 . S
N236 C232 1.328 . S
N236 C234 1.350 . S
H237 C232 0.930 . S
H238 C233 0.930 . S
C239 O240 1.224 . S
C239 O258 1.247 . S
O240 C239 1.224 . S
N241 Co231 2.128 . S
N241 C242 1.355 . S
N241 C244 1.311 . S
C242 N241 1.355 . S
C242 C243 1.363 . S
C242 H254 0.929 . S
C243 C242 1.363 . S
C243 N245 1.375 . S
C243 H261 0.931 . S
C244 N241 1.311 . S
C244 N245 1.347 . S
C244 H255 0.929 . S
N245 C243 1.375 . S
N245 C244 1.347 . S
C246 C249 1.365 . S
C246 N251 1.328 . S
C246 H252 0.929 . S
C247 C248 1.362 . S
C247 C250 1.378 . S
C247 H262 0.929 . S
C248 C247 1.362 . S
C248 C249 1.366 . S
C249 C246 1.365 . S
C249 C248 1.366 . S
C249 H263 0.930 . S
C250 C247 1.378 . S
C250 N251 1.315 . S
C250 H253 0.930 . S
N251 Co231 2.194 . S
N251 C246 1.328 . S
N251 C250 1.315 . S
H252 C246 0.929 . S
H253 C250 0.930 . S
H254 C242 0.929 . S
H255 C244 0.929 . S
O256 Co231 2.351 . S
O256 C259 1.244 . S
O257 Co231 2.155 . S
O257 C259 1.240 . S
O258 Co231 2.096 . S
O258 C239 1.247 . S
C259 O256 1.244 . S
C259 O257 1.240 . S
H260 C234 0.931 . S
H261 C243 0.931 . S
H262 C247 0.929 . S
H263 C249 0.930 . S
H264 C270 0.930 . S
H265 C274 0.930 . S
H266 C279 0.929 . S
H267 C277 0.929 . S
H268 C272 0.929 . S
H269 C278 0.929 . S
C270 H264 0.930 . S
C270 C271 1.367 . S
C270 C278 1.378 . S
C271 C270 1.367 . S
C271 C279 1.433 . S
C272 H268 0.929 . S
C272 C274 1.378 . S
C272 C276 1.350 . S
C273 C276 1.463 1_554 S
C273 C278 1.350 . S
C273 N281 1.427 . S
C274 H265 0.930 . S
C274 C272 1.378 . S
C274 C275 1.367 . S
C275 C274 1.367 . S
C275 C277 1.433 . S
C276 C272 1.350 . S
C276 C273 1.463 1_556 S
C276 N280 1.427 . S
C277 H267 0.929 . S
C277 C275 1.433 . S
C277 N280 1.384 . S
C278 H269 0.929 . S
C278 C270 1.378 . S
C278 C273 1.350 . S
C279 H266 0.929 . S
C279 C271 1.433 . S
C279 N281 1.384 . S
N280 C276 1.427 . S
N280 C277 1.384 . S
N281 C273 1.427 . S
N281 C279 1.384 . S
H282 C288 0.930 . S
H283 C292 0.930 . S
H284 C297 0.929 . S
H285 C295 0.929 . S
H286 C290 0.929 . S
H287 C296 0.929 . S
C288 H282 0.930 . S
C288 C289 1.367 . S
C288 C296 1.378 . S
C289 C288 1.367 . S
C289 C297 1.433 . S
C290 H286 0.929 . S
C290 C292 1.378 . S
C290 C294 1.350 . S
C291 C294 1.463 . S
C291 C296 1.350 . S
C291 N299 1.427 . S
C292 H283 0.930 . S
C292 C290 1.378 . S
C292 C293 1.367 . S
C293 C292 1.367 . S
C293 C295 1.433 . S
C294 C290 1.350 . S
C294 C291 1.463 . S
C294 N298 1.427 . S
C295 H285 0.929 . S
C295 C293 1.433 . S
C295 N298 1.384 . S
C296 H287 0.929 . S
C296 C288 1.378 . S
C296 C291 1.350 . S
C297 H284 0.929 . S
C297 C289 1.433 . S
C297 N299 1.384 . S
N298 C294 1.427 . S
N298 C295 1.384 . S
N299 C291 1.427 . S
N299 C297 1.384 . S
H300 C306 0.930 . S
H301 C310 0.930 . S
H302 C315 0.929 . S
H303 C313 0.929 . S
H304 C308 0.929 . S
H305 C314 0.929 . S
C306 H300 0.930 . S
C306 C307 1.367 . S
C306 C314 1.378 . S
C307 C306 1.367 . S
C307 C315 1.433 . S
C308 H304 0.929 . S
C308 C310 1.378 . S
C308 C312 1.350 . S
C309 C312 1.463 . S
C309 C314 1.350 . S
C309 N317 1.427 . S
C310 H301 0.930 . S
C310 C308 1.378 . S
C310 C311 1.367 . S
C311 C310 1.367 . S
C311 C313 1.433 . S
C312 C308 1.350 . S
C312 C309 1.463 . S
C312 N316 1.427 . S
C313 H303 0.929 . S
C313 C311 1.433 . S
C313 N316 1.384 . S
C314 H305 0.929 . S
C314 C306 1.378 . S
C314 C309 1.350 . S
C315 H302 0.929 . S
C315 C307 1.433 . S
C315 N317 1.384 . S
N316 C312 1.427 . S
N316 C313 1.384 . S
N317 C309 1.427 . S
N317 C315 1.384 . S
H318 C324 0.930 . S
H319 C328 0.930 . S
H320 C333 0.929 . S
H321 C331 0.929 . S
H322 C326 0.929 . S
H323 C332 0.929 . S
C324 H318 0.930 . S
C324 C325 1.367 . S
C324 C332 1.378 . S
C325 C324 1.367 . S
C325 C333 1.433 . S
C326 H322 0.929 . S
C326 C328 1.378 . S
C326 C330 1.350 . S
C327 C330 1.463 . S
C327 C332 1.350 . S
C327 N335 1.427 . S
C328 H319 0.930 . S
C328 C326 1.378 . S
C328 C329 1.367 . S
C329 C328 1.367 . S
C329 C331 1.433 . S
C330 C326 1.350 . S
C330 C327 1.463 . S
C330 N334 1.427 . S
C331 H321 0.929 . S
C331 C329 1.433 . S
C331 N334 1.384 . S
C332 H323 0.929 . S
C332 C324 1.378 . S
C332 C327 1.350 . S
C333 H320 0.929 . S
C333 C325 1.433 . S
C333 N335 1.384 . S
N334 C330 1.427 . S
N334 C331 1.384 . S
N335 C327 1.427 . S
N335 C333 1.384 . S
H336 C342 0.930 . S
H337 C346 0.930 . S
H338 C351 0.929 . S
H339 C349 0.929 . S
H340 C344 0.929 . S
H341 C350 0.929 . S
C342 H336 0.930 . S
C342 C343 1.367 . S
C342 C350 1.378 . S
C343 C342 1.367 . S
C343 C351 1.433 . S
C344 H340 0.929 . S
C344 C346 1.378 . S
C344 C348 1.350 . S
C345 C348 1.463 1_556 S
C345 C350 1.350 . S
C345 N353 1.427 . S
C346 H337 0.930 . S
C346 C344 1.378 . S
C346 C347 1.367 . S
C347 C346 1.367 . S
C347 C349 1.433 . S
C348 C344 1.350 . S
C348 C345 1.463 1_554 S
C348 N352 1.427 . S
C349 H339 0.929 . S
C349 C347 1.433 . S
C349 N352 1.384 . S
C350 H341 0.929 . S
C350 C342 1.378 . S
C350 C345 1.350 . S
C351 H338 0.929 . S
C351 C343 1.433 . S
C351 N353 1.384 . S
N352 C348 1.427 . S
N352 C349 1.384 . S
N353 C345 1.427 . S
N353 C351 1.384 . S
H354 C360 0.930 . S
H355 C364 0.930 . S
H356 C369 0.929 1_565 S
H357 C367 0.929 . S
H358 C362 0.929 . S
H359 C368 0.929 . S
C360 H354 0.930 . S
C360 C361 1.367 . S
C360 C368 1.378 . S
C361 C360 1.367 . S
C361 C369 1.433 . S
C362 H358 0.929 . S
C362 C364 1.378 . S
C362 C366 1.350 . S
C363 C366 1.463 . S
C363 C368 1.350 . S
C363 N371 1.427 . S
C364 H355 0.930 . S
C364 C362 1.378 . S
C364 C365 1.367 . S
C365 C364 1.367 . S
C365 C367 1.433 . S
C366 C362 1.350 . S
C366 C363 1.463 . S
C366 N370 1.427 . S
C367 H357 0.929 . S
C367 C365 1.433 . S
C367 N370 1.384 . S
C368 H359 0.929 . S
C368 C360 1.378 . S
C368 C363 1.350 . S
C369 H356 0.929 1_545 S
C369 C361 1.433 . S
C369 N371 1.384 . S
N370 C366 1.427 . S
N370 C367 1.384 . S
N371 C363 1.427 . S
N371 C369 1.384 . S
H372 C378 0.930 . S
H373 C382 0.930 . S
H374 C387 0.924 1_545 S
H375 C385 0.929 . S
H376 C380 0.929 . S
H377 C386 0.929 . S
C378 H372 0.930 . S
C378 C379 1.367 . S
C378 C386 1.378 . S
C379 C378 1.367 . S
C379 C387 1.433 . S
C380 H376 0.929 . S
C380 C382 1.378 . S
C380 C384 1.350 . S
C381 C384 1.463 . S
C381 C386 1.350 . S
C381 N389 1.427 . S
C382 H373 0.930 . S
C382 C380 1.378 . S
C382 C383 1.367 . S
C383 C382 1.367 . S
C383 C385 1.433 . S
C384 C380 1.350 . S
C384 C381 1.463 . S
C384 N388 1.427 . S
C385 H375 0.929 . S
C385 C383 1.433 . S
C385 N388 1.384 . S
C386 H377 0.929 . S
C386 C378 1.378 . S
C386 C381 1.350 . S
C387 H374 0.924 1_565 S
C387 C379 1.433 . S
C387 N389 1.384 . S
N388 C384 1.427 . S
N388 C385 1.384 . S
N389 C381 1.427 . S
N389 C387 1.384 . S
H390 C396 0.930 1_545 S
H391 C400 0.930 . S
H392 C405 0.929 . S
H393 C403 0.929 . S
H394 C398 0.929 . S
H395 C404 0.915 1_545 S
C396 H390 0.930 1_565 S
C396 C397 1.367 . S
C396 C404 1.378 . S
C397 C396 1.367 . S
C397 C405 1.433 . S
C398 H394 0.929 . S
C398 C400 1.378 . S
C398 C402 1.350 . S
C399 C402 1.463 . S
C399 C404 1.350 . S
C399 N407 1.427 . S
C400 H391 0.930 . S
C400 C398 1.378 . S
C400 C401 1.367 . S
C401 C400 1.367 . S
C401 C403 1.433 . S
C402 C398 1.350 . S
C402 C399 1.463 . S
C402 N406 1.427 . S
C403 H393 0.929 . S
C403 C401 1.433 . S
C403 N406 1.384 . S
C404 H395 0.915 1_565 S
C404 C396 1.378 . S
C404 C399 1.350 . S
C405 H392 0.929 . S
C405 C397 1.433 . S
C405 N407 1.384 . S
N406 C402 1.427 . S
N406 C403 1.384 . S
N407 C399 1.427 . S
N407 C405 1.384 . S
H408 C414 0.930 . S
H409 C418 0.930 . S
H410 C423 0.929 . S
H411 C421 0.929 . S
H412 C416 0.929 . S
H413 C422 0.929 . S
C414 H408 0.930 . S
C414 C415 1.367 . S
C414 C422 1.378 . S
C415 C414 1.367 . S
C415 C423 1.433 . S
C416 H412 0.929 . S
C416 C418 1.378 . S
C416 C420 1.350 . S
C417 C420 1.463 . S
C417 C422 1.350 . S
C417 N425 1.427 . S
C418 H409 0.930 . S
C418 C416 1.378 . S
C418 C419 1.367 . S
C419 C418 1.367 . S
C419 C421 1.433 . S
C420 C416 1.350 . S
C420 C417 1.463 . S
C420 N424 1.427 . S
C421 H411 0.929 . S
C421 C419 1.433 . S
C421 N424 1.384 . S
C422 H413 0.929 . S
C422 C414 1.378 . S
C422 C417 1.350 . S
C423 H410 0.929 . S
C423 C415 1.433 . S
C423 N425 1.384 . S
N424 C420 1.427 . S
N424 C421 1.384 . S
N425 C417 1.427 . S
N425 C423 1.384 . S
H426 C432 0.930 . S
H427 C436 0.930 . S
H428 C441 0.929 . S
H429 C439 0.929 . S
H430 C434 0.929 . S
H431 C440 0.929 . S
C432 H426 0.930 . S
C432 C433 1.367 . S
C432 C440 1.378 . S
C433 C432 1.367 . S
C433 C441 1.433 . S
C434 H430 0.929 . S
C434 C436 1.378 . S
C434 C438 1.350 . S
C435 C438 1.463 1_556 S
C435 C440 1.350 . S
C435 N443 1.427 . S
C436 H427 0.930 . S
C436 C434 1.378 . S
C436 C437 1.367 . S
C437 C436 1.367 . S
C437 C439 1.433 . S
C438 C434 1.350 . S
C438 C435 1.463 1_554 S
C438 N442 1.427 . S
C439 H429 0.929 . S
C439 C437 1.433 . S
C439 N442 1.384 . S
C440 H431 0.929 . S
C440 C432 1.378 . S
C440 C435 1.350 . S
C441 H428 0.929 . S
C441 C433 1.433 . S
C441 N443 1.384 . S
N442 C438 1.427 . S
N442 C439 1.384 . S
N443 C435 1.427 . S
N443 C441 1.384 . S
H444 C450 0.930 . S
H445 C454 0.930 . S
H446 C459 0.929 . S
H447 C457 0.929 . S
H448 C452 0.929 . S
H449 C458 0.929 . S
C450 H444 0.930 . S
C450 C451 1.367 . S
C450 C458 1.378 . S
C451 C450 1.367 . S
C451 C459 1.433 . S
C452 H448 0.929 . S
C452 C454 1.378 . S
C452 C456 1.350 . S
C453 C456 1.463 . S
C453 C458 1.350 . S
C453 N461 1.427 . S
C454 H445 0.930 . S
C454 C452 1.378 . S
C454 C455 1.367 . S
C455 C454 1.367 . S
C455 C457 1.433 . S
C456 C452 1.350 . S
C456 C453 1.463 . S
C456 N460 1.427 . S
C457 H447 0.929 . S
C457 C455 1.433 . S
C457 N460 1.384 . S
C458 H449 0.929 . S
C458 C450 1.378 . S
C458 C453 1.350 . S
C459 H446 0.929 . S
C459 C451 1.433 . S
C459 N461 1.384 . S
N460 C456 1.427 . S
N460 C457 1.384 . S
N461 C453 1.427 . S
N461 C459 1.384 . S
H462 C468 0.930 . S
H463 C472 0.930 . S
H464 C477 0.929 . S
H465 C475 0.929 . S
H466 C470 0.929 . S
H467 C476 0.929 . S
C468 H462 0.930 . S
C468 C469 1.367 . S
C468 C476 1.378 . S
C469 C468 1.367 . S
C469 C477 1.433 . S
C470 H466 0.929 . S
C470 C472 1.378 . S
C470 C474 1.350 . S
C471 C474 1.463 . S
C471 C476 1.350 . S
C471 N479 1.427 . S
C472 H463 0.930 . S
C472 C470 1.378 . S
C472 C473 1.367 . S
C473 C472 1.367 . S
C473 C475 1.433 . S
C474 C470 1.350 . S
C474 C471 1.463 . S
C474 N478 1.427 . S
C475 H465 0.929 . S
C475 C473 1.433 . S
C475 N478 1.384 . S
C476 H467 0.929 . S
C476 C468 1.378 . S
C476 C471 1.350 . S
C477 H464 0.929 . S
C477 C469 1.433 . S
C477 N479 1.384 . S
N478 C474 1.427 . S
N478 C475 1.384 . S
N479 C471 1.427 . S
N479 C477 1.384 . S
H480 C486 0.930 . S
H481 C490 0.930 . S
H482 C495 0.929 . S
H483 C493 0.929 . S
H484 C488 0.929 . S
H485 C494 0.929 . S
C486 H480 0.930 . S
C486 C487 1.367 . S
C486 C494 1.378 . S
C487 C486 1.367 . S
C487 C495 1.433 . S
C488 H484 0.929 . S
C488 C490 1.378 . S
C488 C492 1.350 . S
C489 C492 1.463 . S
C489 C494 1.350 . S
C489 N497 1.427 . S
C490 H481 0.930 . S
C490 C488 1.378 . S
C490 C491 1.367 1_565 S
C491 C490 1.367 1_545 S
C491 C493 1.433 . S
C492 C488 1.350 . S
C492 C489 1.463 . S
C492 N496 1.427 . S
C493 H483 0.929 . S
C493 C491 1.433 . S
C493 N496 1.384 1_545 S
C494 H485 0.929 . S
C494 C486 1.378 . S
C494 C489 1.350 . S
C495 H482 0.929 . S
C495 C487 1.433 . S
C495 N497 1.384 . S
N496 C492 1.427 . S
N496 C493 1.384 1_565 S
N497 C489 1.427 . S
N497 C495 1.384 . S
H498 C504 0.930 . S
H499 C508 0.930 . S
H500 C513 0.929 . S
H501 C511 0.929 . S
H502 C506 0.929 . S
H503 C512 0.929 . S
C504 H498 0.930 . S
C504 C505 1.367 . S
C504 C512 1.378 . S
C505 C504 1.367 . S
C505 C513 1.433 . S
C506 H502 0.929 . S
C506 C508 1.378 . S
C506 C510 1.350 . S
C507 C510 1.463 . S
C507 C512 1.350 . S
C507 N515 1.427 . S
C508 H499 0.930 . S
C508 C506 1.378 . S
C508 C509 1.367 . S
C509 C508 1.367 . S
C509 C511 1.433 . S
C510 C506 1.350 . S
C510 C507 1.463 . S
C510 N514 1.427 . S
C511 H501 0.929 . S
C511 C509 1.433 . S
C511 N514 1.384 . S
C512 H503 0.929 . S
C512 C504 1.378 . S
C512 C507 1.350 . S
C513 H500 0.929 . S
C513 C505 1.433 . S
C513 N515 1.384 . S
N514 C510 1.427 . S
N514 C511 1.384 . S
N515 C507 1.427 . S
N515 C513 1.384 . S
H516 C522 0.930 . S
H517 C526 0.930 . S
H518 C531 0.929 . S
H519 C529 0.929 . S
H520 C524 0.929 . S
H521 C530 0.929 . S
C522 H516 0.930 . S
C522 C523 1.367 . S
C522 C530 1.378 1_565 S
C523 C522 1.367 . S
C523 C531 1.433 1_565 S
C524 H520 0.929 . S
C524 C526 1.378 . S
C524 C528 1.350 . S
C525 C528 1.463 . S
C525 C530 1.350 . S
C525 N533 1.427 . S
C526 H517 0.930 . S
C526 C524 1.378 . S
C526 C527 1.367 . S
C527 C526 1.367 . S
C527 C529 1.433 . S
C528 C524 1.350 . S
C528 C525 1.463 . S
C528 N532 1.427 . S
C529 H519 0.929 . S
C529 C527 1.433 . S
C529 N532 1.384 . S
C530 H521 0.929 . S
C530 C522 1.378 1_545 S
C530 C525 1.350 . S
C531 H518 0.929 . S
C531 C523 1.433 1_545 S
C531 N533 1.384 . S
N532 C528 1.427 . S
N532 C529 1.384 . S
N533 C525 1.427 . S
N533 C531 1.384 . S
H534 C540 0.930 . S
H535 C544 0.930 . S
H536 C549 0.929 . S
H537 C547 0.929 . S
H538 C542 0.929 . S
H539 C548 0.929 . S
C540 H534 0.930 . S
C540 C541 1.367 . S
C540 C548 1.378 . S
C541 C540 1.367 . S
C541 C549 1.433 . S
C542 H538 0.929 . S
C542 C544 1.378 . S
C542 C546 1.350 . S
C543 C546 1.463 . S
C543 C548 1.350 . S
C543 N551 1.427 . S
C544 H535 0.930 . S
C544 C542 1.378 . S
C544 C545 1.367 . S
C545 C544 1.367 . S
C545 C547 1.433 . S
C546 C542 1.350 . S
C546 C543 1.463 . S
C546 N550 1.427 . S
C547 H537 0.929 . S
C547 C545 1.433 . S
C547 N550 1.384 . S
C548 H539 0.929 . S
C548 C540 1.378 . S
C548 C543 1.350 . S
C549 H536 0.929 . S
C549 C541 1.433 . S
C549 N551 1.384 . S
N550 C546 1.427 . S
N550 C547 1.384 . S
N551 C543 1.427 . S
N551 C549 1.384 . S
H552 C558 0.930 . S
H553 C562 0.930 . S
H554 C567 0.929 . S
H555 C565 0.929 . S
H556 C560 0.929 . S
H557 C566 0.929 . S
C558 H552 0.930 . S
C558 C559 1.367 . S
C558 C566 1.378 . S
C559 C558 1.367 . S
C559 C567 1.433 . S
C560 H556 0.929 . S
C560 C562 1.378 . S
C560 C564 1.350 . S
C561 C564 1.463 . S
C561 C566 1.350 . S
C561 N569 1.427 . S
C562 H553 0.930 . S
C562 C560 1.378 . S
C562 C563 1.367 . S
C563 C562 1.367 . S
C563 C565 1.433 . S
C564 C560 1.350 . S
C564 C561 1.463 . S
C564 N568 1.427 . S
C565 H555 0.929 . S
C565 C563 1.433 . S
C565 N568 1.384 . S
C566 H557 0.929 . S
C566 C558 1.378 . S
C566 C561 1.350 . S
C567 H554 0.929 . S
C567 C559 1.433 . S
C567 N569 1.384 . S
N568 C564 1.427 . S
N568 C565 1.384 . S
N569 C561 1.427 . S
N569 C567 1.384 . S
H570 C576 0.930 . S
H571 C580 0.930 . S
H572 C585 0.929 . S
H573 C583 0.929 . S
H574 C578 0.929 . S
H575 C584 0.929 . S
C576 H570 0.930 . S
C576 C577 1.367 . S
C576 C584 1.378 . S
C577 C576 1.367 . S
C577 C585 1.433 . S
C578 H574 0.929 . S
C578 C580 1.378 1_655 S
C578 C582 1.350 . S
C579 C582 1.463 . S
C579 C584 1.350 . S
C579 N587 1.427 . S
C580 H571 0.930 . S
C580 C578 1.378 1_455 S
C580 C581 1.367 . S
C581 C580 1.367 . S
C581 C583 1.433 . S
C582 C578 1.350 . S
C582 C579 1.463 . S
C582 N586 1.427 . S
C583 H573 0.929 . S
C583 C581 1.433 . S
C583 N586 1.384 1_455 S
C584 H575 0.929 . S
C584 C576 1.378 . S
C584 C579 1.350 . S
C585 H572 0.929 . S
C585 C577 1.433 . S
C585 N587 1.384 . S
N586 C582 1.427 . S
N586 C583 1.384 1_655 S
N587 C579 1.427 . S
N587 C585 1.384 . S
H588 C594 0.930 . S
H589 C598 0.930 . S
H590 C603 0.929 . S
H591 C601 0.929 . S
H592 C596 0.929 . S
H593 C602 0.929 . S
C594 H588 0.930 . S
C594 C595 1.367 . S
C594 C602 1.378 . S
C595 C594 1.367 . S
C595 C603 1.433 . S
C596 H592 0.929 . S
C596 C598 1.378 . S
C596 C600 1.350 . S
C597 C600 1.463 . S
C597 C602 1.350 . S
C597 N605 1.427 . S
C598 H589 0.930 . S
C598 C596 1.378 . S
C598 C599 1.367 . S
C599 C598 1.367 . S
C599 C601 1.433 . S
C600 C596 1.350 . S
C600 C597 1.463 . S
C600 N604 1.427 . S
C601 H591 0.929 . S
C601 C599 1.433 . S
C601 N604 1.384 . S
C602 H593 0.929 . S
C602 C594 1.378 . S
C602 C597 1.350 . S
C603 H590 0.929 . S
C603 C595 1.433 . S
C603 N605 1.384 . S
N604 C600 1.427 . S
N604 C601 1.384 . S
N605 C597 1.427 . S
N605 C603 1.384 . S
H606 C612 0.930 . S
H607 C616 0.930 . S
H608 C621 0.929 . S
H609 C619 0.929 . S
H610 C614 0.929 . S
H611 C620 0.929 . S
C612 H606 0.930 . S
C612 C613 1.367 . S
C612 C620 1.378 . S
C613 C612 1.367 . S
C613 C621 1.433 . S
C614 H610 0.929 . S
C614 C616 1.378 . S
C614 C618 1.350 . S
C615 C618 1.463 . S
C615 C620 1.350 . S
C615 N623 1.427 . S
C616 H607 0.930 . S
C616 C614 1.378 . S
C616 C617 1.367 1_455 S
C617 C616 1.367 1_655 S
C617 C619 1.433 . S
C618 C614 1.350 . S
C618 C615 1.463 . S
C618 N622 1.427 . S
C619 H609 0.929 . S
C619 C617 1.433 . S
C619 N622 1.384 1_655 S
C620 H611 0.929 . S
C620 C612 1.378 . S
C620 C615 1.350 . S
C621 H608 0.929 . S
C621 C613 1.433 . S
C621 N623 1.384 . S
N622 C618 1.427 . S
N622 C619 1.384 1_455 S
N623 C615 1.427 . S
N623 C621 1.384 . S
C271 N5 0.334 . S
C275 N170 0.286 . S
C289 N203 0.332 . S
C293 N38 0.293 . S
C307 N236 0.334 . S
C311 N71 0.285 . S
C325 N137 0.296 . S
C329 N104 0.317 . S
C343 N113 1.416 . S
C347 C17 1.332 . S
C361 C50 1.333 . S
C365 N14 1.420 . S
C379 N47 1.405 . S
C383 C83 1.315 . S
C397 C116 1.307 . S
C401 N80 1.405 . S
C415 N179 1.414 . S
C419 C149 1.330 . S
C433 C182 1.309 . S
C437 N212 1.409 . S
C451 C215 1.316 . S
C455 N245 1.405 . S
C469 C248 1.307 . S
C473 N146 1.404 . S
C487 C226 1.952 . S
C491 C8 1.975 . S
C505 C259 1.946 . S
C509 C41 1.977 . S
C523 C74 1.978 . S
C527 C160 1.950 . S
C541 C107 1.976 . S
C545 C193 1.954 . S
C559 C140 1.978 . S
C563 C94 1.951 . S
C577 C127 1.947 . S
C581 C173 1.975 . S
C595 C206 1.976 . S
C599 C28 1.954 . S
C613 C61 1.954 . S
C617 C239 1.977 . S
