# Generated by pormake.
# Topology lcy-e, (6)-cn, num edge types: 1
# Building blocks:
#     Node 0, Type 0, BuildingBlock: VOLQOD_clean_sbu_1, # of connection points: 6
#     Node 1, Type 0, BuildingBlock: VOLQOD_clean_sbu_1, # of connection points: 6
#     Node 2, Type 0, BuildingBlock: VOLQOD_clean_sbu_1, # of connection points: 6
#     Node 3, Type 0, BuildingBlock: VOLQOD_clean_sbu_1, # of connection points: 6
#     Node 4, Type 0, BuildingBlock: VOLQOD_clean_sbu_1, # of connection points: 6
#     Node 5, Type 0, BuildingBlock: VOLQOD_clean_sbu_1, # of connection points: 6
#     Node 6, Type 0, BuildingBlock: VOLQOD_clean_sbu_1, # of connection points: 6
#     Node 7, Type 0, BuildingBlock: VOLQOD_clean_sbu_1, # of connection points: 6
#     Node 8, Type 0, BuildingBlock: VOLQOD_clean_sbu_1, # of connection points: 6
#     Node 9, Type 0, BuildingBlock: VOLQOD_clean_sbu_1, # of connection points: 6
#     Node 10, Type 0, BuildingBlock: VOLQOD_clean_sbu_1, # of connection points: 6
#     Node 11, Type 0, BuildingBlock: VOLQOD_clean_sbu_1, # of connection points: 6
#     Edge 12, Type (0, 0), BuildingBlock: AJUNOK_clean_linker_0, # of connection points: 2
#     Edge 13, Type (0, 0), BuildingBlock: AJUNOK_clean_linker_0, # of connection points: 2
#     Edge 14, Type (0, 0), BuildingBlock: AJUNOK_clean_linker_0, # of connection points: 2
#     Edge 15, Type (0, 0), BuildingBlock: AJUNOK_clean_linker_0, # of connection points: 2
#     Edge 16, Type (0, 0), BuildingBlock: AJUNOK_clean_linker_0, # of connection points: 2
#     Edge 17, Type (0, 0), BuildingBlock: AJUNOK_clean_linker_0, # of connection points: 2
#     Edge 18, Type (0, 0), BuildingBlock: AJUNOK_clean_linker_0, # of connection points: 2
#     Edge 19, Type (0, 0), BuildingBlock: AJUNOK_clean_linker_0, # of connection points: 2
#     Edge 20, Type (0, 0), BuildingBlock: AJUNOK_clean_linker_0, # of connection points: 2
#     Edge 21, Type (0, 0), BuildingBlock: AJUNOK_clean_linker_0, # of connection points: 2
#     Edge 22, Type (0, 0), BuildingBlock: AJUNOK_clean_linker_0, # of connection points: 2
#     Edge 23, Type (0, 0), BuildingBlock: AJUNOK_clean_linker_0, # of connection points: 2
#     Edge 24, Type (0, 0), BuildingBlock: AJUNOK_clean_linker_0, # of connection points: 2
#     Edge 25, Type (0, 0), BuildingBlock: AJUNOK_clean_linker_0, # of connection points: 2
#     Edge 26, Type (0, 0), BuildingBlock: AJUNOK_clean_linker_0, # of connection points: 2
#     Edge 27, Type (0, 0), BuildingBlock: AJUNOK_clean_linker_0, # of connection points: 2
#     Edge 28, Type (0, 0), BuildingBlock: AJUNOK_clean_linker_0, # of connection points: 2
#     Edge 29, Type (0, 0), BuildingBlock: AJUNOK_clean_linker_0, # of connection points: 2
#     Edge 30, Type (0, 0), BuildingBlock: AJUNOK_clean_linker_0, # of connection points: 2
#     Edge 31, Type (0, 0), BuildingBlock: AJUNOK_clean_linker_0, # of connection points: 2
#     Edge 32, Type (0, 0), BuildingBlock: AJUNOK_clean_linker_0, # of connection points: 2
#     Edge 33, Type (0, 0), BuildingBlock: AJUNOK_clean_linker_0, # of connection points: 2
#     Edge 34, Type (0, 0), BuildingBlock: AJUNOK_clean_linker_0, # of connection points: 2
#     Edge 35, Type (0, 0), BuildingBlock: AJUNOK_clean_linker_0, # of connection points: 2
#     Edge 36, Type (0, 0), BuildingBlock: AJUNOK_clean_linker_0, # of connection points: 2
#     Edge 37, Type (0, 0), BuildingBlock: AJUNOK_clean_linker_0, # of connection points: 2
#     Edge 38, Type (0, 0), BuildingBlock: AJUNOK_clean_linker_0, # of connection points: 2
#     Edge 39, Type (0, 0), BuildingBlock: AJUNOK_clean_linker_0, # of connection points: 2
#     Edge 40, Type (0, 0), BuildingBlock: AJUNOK_clean_linker_0, # of connection points: 2
#     Edge 41, Type (0, 0), BuildingBlock: AJUNOK_clean_linker_0, # of connection points: 2
#     Edge 42, Type (0, 0), BuildingBlock: AJUNOK_clean_linker_0, # of connection points: 2
#     Edge 43, Type (0, 0), BuildingBlock: AJUNOK_clean_linker_0, # of connection points: 2
#     Edge 44, Type (0, 0), BuildingBlock: AJUNOK_clean_linker_0, # of connection points: 2
#     Edge 45, Type (0, 0), BuildingBlock: AJUNOK_clean_linker_0, # of connection points: 2
#     Edge 46, Type (0, 0), BuildingBlock: AJUNOK_clean_linker_0, # of connection points: 2
#     Edge 47, Type (0, 0), BuildingBlock: AJUNOK_clean_linker_0, # of connection points: 2
# Relax obj value: 0.403
# Max RMSD: 0.290
# Mean RMSD: 0.282
data_MOF--net-lcy-e--node1-VOLQOD_clean_sbu_1--edge1-AJUNOK_clean_linker_0
_symmetry_space_group_name_H-M    P1
_symmetry_Int_Tables_number       1
_symmetry_cell_setting            triclinic
loop_
_symmetry_equiv_pos_as_xyz
'x, y, z'
_cell_length_a     29.273133
_cell_length_b     29.042171
_cell_length_c     29.153261
_cell_angle_alpha  90.289843
_cell_angle_beta   90.395831
_cell_angle_gamma 90.422385
loop_
_atom_site_label
_atom_site_type_symbol
_atom_site_fract_x
_atom_site_fract_y
_atom_site_fract_z
_atom_type_partial_charge
O0 O 0.24594 0.15125 0.43082 0.0
Zn1 Zn 0.19348 0.16294 0.4739 0.0
O2 O 0.14193 0.18047 0.43618 0.0
Zn3 Zn 0.12997 0.24414 0.44403 0.0
Zn4 Zn 0.14837 0.16354 0.37336 0.0
Zn5 Zn 0.0888 0.1497 0.45427 0.0
O6 O 0.08303 0.25395 0.4934 0.0
O7 O 0.05853 0.18277 0.50508 0.0
O8 O 0.21324 0.21837 0.5142 0.0
O9 O 0.1856 0.27359 0.46941 0.0
O10 O 0.11622 0.27477 0.38417 0.0
O11 O 0.13815 0.21987 0.33575 0.0
O12 O 0.10131 0.11679 0.35228 0.0
O13 O 0.17815 0.10196 0.50717 0.0
O14 O 0.04724 0.13702 0.40126 0.0
O15 O 0.10799 0.09056 0.47908 0.0
C16 C 0.24745 0.14198 0.38805 0.0
C17 C 0.05967 0.22501 0.51636 0.0
C18 C 0.12403 0.26052 0.34358 0.0
C19 C 0.21171 0.26063 0.5018 0.0
C20 C 0.05962 0.11721 0.36441 0.0
C21 C 0.14285 0.07632 0.50078 0.0
O22 O 0.21199 0.14241 0.36252 0.0
O23 O 0.04253 0.73468 0.65382 0.0
Zn24 Zn -0.00649 0.77941 0.66981 0.0
O25 O 0.02213 0.83954 0.67382 0.0
Zn26 Zn 0.00244 0.8691 0.72815 0.0
Zn27 Zn 0.08654 0.84074 0.66681 0.0
Zn28 Zn -0.0016 0.8693 0.62199 0.0
O29 O 0.94263 0.90064 0.71399 0.0
O30 O 0.93663 0.89535 0.63775 0.0
O31 O 0.96992 0.75984 0.73222 0.0
O32 O 0.98661 0.82147 0.77442 0.0
O33 O 0.05494 0.90458 0.75742 0.0
O34 O 0.1121 0.86547 0.72525 0.0
O35 O 0.1079 0.88636 0.61909 0.0
O36 O 0.9441 0.78063 0.6195 0.0
O37 O 0.04158 0.91566 0.59651 0.0
O38 O -0.00965 0.82025 0.57552 0.0
C39 C 0.08575 0.73767 0.64941 0.0
C40 C 0.91998 0.90565 0.67673 0.0
C41 C 0.09711 0.89356 0.75525 0.0
C42 C 0.97272 0.78001 0.77115 0.0
C43 C 0.08505 0.91559 0.59625 0.0
C44 C 0.9546 0.79594 0.57997 0.0
O45 O 0.1074 0.77586 0.65356 0.0
O46 O 0.4201 0.84096 0.93874 0.0
Zn47 Zn 0.37567 0.80445 0.97712 0.0
O48 O 0.31624 0.83234 0.97135 0.0
Zn49 Zn 0.2853 0.83268 0.02926 0.0
Zn50 Zn 0.3197 0.89213 0.94506 0.0
Zn51 Zn 0.2833 0.79789 0.92724 0.0
O52 O 0.23422 0.7837 0.02894 0.0
O53 O 0.24536 0.75321 0.95972 0.0
O54 O 0.39459 0.79772 0.04493 0.0
O55 O 0.32808 0.81131 0.07823 0.0
O56 O 0.27433 0.89935 0.04898 0.0
O57 O 0.31753 0.93528 -0.00301 0.0
O58 O 0.26643 0.90707 0.90393 0.0
O59 O 0.37429 0.74244 0.94534 0.0
O60 O 0.24058 0.83627 0.89074 0.0
O61 O 0.32641 0.76167 0.88905 0.0
C62 C 0.41508 0.87468 0.91127 0.0
C63 C 0.22649 0.75231 -0.00125 0.0
C64 C 0.29569 0.93511 0.03463 0.0
C65 C 0.36985 0.8 0.0809 0.0
C66 C 0.2377 0.87954 0.88565 0.0
C67 C 0.35765 0.73604 0.90527 0.0
O68 O 0.378 0.8974 0.90963 0.0
O69 O 0.41737 0.07045 0.15952 0.0
Zn70 Zn 0.46032 0.10981 0.19721 0.0
O71 O 0.47074 0.16835 0.16713 0.0
Zn72 Zn 0.53445 0.18444 0.164 0.0
Zn73 Zn 0.44704 0.16556 0.10613 0.0
Zn74 Zn 0.44085 0.21629 0.19936 0.0
O75 O 0.55268 0.23528 0.20859 0.0
O76 O 0.48513 0.24823 0.23979 0.0
O77 O 0.52038 0.07703 0.20949 0.0
O78 O 0.56834 0.13198 0.18744 0.0
O79 O 0.55758 0.18703 0.0991 0.0
O80 O 0.49856 0.15258 0.06402 0.0
O81 O 0.42017 0.22565 0.08795 0.0
O82 O 0.42514 0.11994 0.25525 0.0
O83 O 0.41479 0.26174 0.15514 0.0
O84 O 0.39569 0.18957 0.24306 0.0
C85 C 0.39328 0.07894 0.12406 0.0
C86 C 0.52815 0.25368 0.23958 0.0
C87 C 0.54001 0.16614 0.06457 0.0
C88 C 0.56092 0.09221 0.20351 0.0
C89 C 0.41 0.26092 0.11166 0.0
C90 C 0.39783 0.15222 0.26576 0.0
O91 O 0.39963 0.11552 0.10091 0.0
O92 O 0.68736 0.22045 0.49865 0.0
Zn93 Zn 0.63013 0.25246 0.5095 0.0
O94 O 0.64519 0.31257 0.52848 0.0
Zn95 Zn 0.64482 0.31573 0.59295 0.0
Zn96 Zn 0.70199 0.33172 0.50039 0.0
Zn97 Zn 0.59823 0.35062 0.50705 0.0
O98 O 0.59232 0.3521 0.61655 0.0
O99 O 0.54883 0.35878 0.55419 0.0
O100 O 0.60023 0.21578 0.55899 0.0
O101 O 0.63507 0.25213 0.61722 0.0
O102 O 0.70262 0.34552 0.61416 0.0
O103 O 0.74228 0.35876 0.55049 0.0
O104 O 0.68754 0.38502 0.4562 0.0
O105 O 0.59903 0.25485 0.44823 0.0
O106 O 0.62721 0.41059 0.49473 0.0
O107 O 0.57611 0.32755 0.44563 0.0
C108 C 0.72554 0.23215 0.48191 0.0
C109 C 0.55462 0.36232 0.59746 0.0
C110 C 0.73746 0.36202 0.59385 0.0
C111 C 0.61256 0.21785 0.60098 0.0
C112 C 0.65914 0.41691 0.46605 0.0
C113 C 0.58118 0.28835 0.42669 0.0
O114 O 0.73539 0.27445 0.47396 0.0
O115 O 0.94081 0.22172 0.81881 0.0
Zn116 Zn 0.98577 0.26985 0.79808 0.0
O117 O 0.95534 0.32894 0.80126 0.0
Zn118 Zn 0.97273 0.36683 0.75227 0.0
Zn119 Zn 0.89192 0.32547 0.805 0.0
Zn120 Zn 0.97643 0.35162 0.85805 0.0
O121 O 0.02805 0.40252 0.77211 0.0
O122 O 0.03579 0.38519 0.84636 0.0
O123 O 0.00443 0.25727 0.73221 0.0
O124 O -0.00672 0.3264 0.70193 0.0
O125 O 0.9186 0.39966 0.72456 0.0
O126 O 0.86617 0.34815 0.74673 0.0
O127 O 0.86722 0.36733 0.85296 0.0
O128 O 0.03925 0.27281 0.84371 0.0
O129 O 0.92996 0.38969 0.89024 0.0
O130 O -0.0113 0.29514 0.89352 0.0
C131 C 0.898 0.22414 0.82617 0.0
C132 C 0.05082 0.40331 0.80963 0.0
C133 C 0.87865 0.38184 0.72181 0.0
C134 C 0.0044 0.28439 0.69786 0.0
C135 C 0.88686 0.39076 0.88432 0.0
C136 C 0.02876 0.28138 0.88527 0.0
O137 O 0.87561 0.26118 0.82044 0.0
O138 O 0.92493 0.64706 0.06695 0.0
Zn139 Zn 0.88121 0.68989 0.03618 0.0
O140 O 0.82538 0.65617 0.02438 0.0
Zn141 Zn 0.81813 0.64427 0.96016 0.0
Zn142 Zn 0.81974 0.60321 0.06296 0.0
Zn143 Zn 0.77585 0.69221 0.04139 0.0
O144 O 0.77346 0.68868 0.93 0.0
O145 O 0.7552 0.73042 0.99107 0.0
O146 O 0.90761 0.71253 0.97558 0.0
O147 O 0.87585 0.66084 0.92841 0.0
O148 O 0.80717 0.57648 0.95034 0.0
O149 O 0.81288 0.54897 0.02144 0.0
O150 O 0.76555 0.60798 0.10652 0.0
O151 O 0.87097 0.7397 0.08388 0.0
O152 O 0.72434 0.65591 0.06488 0.0
O153 O 0.796 0.73169 0.09198 0.0
C154 C 0.91849 0.6122 0.09258 0.0
C155 C 0.75472 0.72382 0.9481 0.0
C156 C 0.80882 0.54279 0.97831 0.0
C157 C 0.90452 0.69313 0.93616 0.0
C158 C 0.72808 0.62875 0.0986 0.0
C159 C 0.83407 0.74841 0.10508 0.0
O160 O 0.87909 0.59369 0.09695 0.0
O161 O 0.55598 0.56311 0.3436 0.0
Zn162 Zn 0.52119 0.60522 0.30206 0.0
O163 O 0.5096 0.66382 0.33158 0.0
Zn164 Zn 0.44447 0.67671 0.33403 0.0
Zn165 Zn 0.53647 0.66383 0.39195 0.0
Zn166 Zn 0.53844 0.71179 0.29772 0.0
O167 O 0.42665 0.728 0.28869 0.0
O168 O 0.49346 0.73955 0.25515 0.0
O169 O 0.46223 0.57646 0.27936 0.0
O170 O 0.40971 0.62344 0.30762 0.0
O171 O 0.42308 0.68008 0.4005 0.0
O172 O 0.48599 0.65682 0.43679 0.0
O173 O 0.56889 0.72361 0.40664 0.0
O174 O 0.56432 0.61298 0.24968 0.0
O175 O 0.56379 0.76034 0.34016 0.0
O176 O 0.58716 0.68583 0.25754 0.0
C177 C 0.58122 0.57159 0.37842 0.0
C178 C 0.45044 0.74489 0.25603 0.0
C179 C 0.44356 0.66626 0.43679 0.0
C180 C 0.42059 0.58746 0.28544 0.0
C181 C 0.57477 0.75954 0.38251 0.0
C182 C 0.59064 0.6462 0.239 0.0
O183 O 0.57955 0.61029 0.39921 0.0
O184 O 0.15384 0.42935 0.20069 0.0
Zn185 Zn 0.17284 0.48268 0.16089 0.0
O186 O 0.18742 0.45919 0.1003 0.0
Zn187 Zn 0.24378 0.48428 0.08034 0.0
Zn188 Zn 0.19148 0.39441 0.09906 0.0
Zn189 Zn 0.14169 0.47739 0.05771 0.0
O190 O 0.23237 0.54338 0.04802 0.0
O191 O 0.15814 0.53957 0.03145 0.0
O192 O 0.22949 0.51263 0.19139 0.0
O193 O 0.2786 0.50266 0.13488 0.0
O194 O 0.28443 0.4378 0.04999 0.0
O195 O 0.25519 0.37724 0.08655 0.0
O196 O 0.15523 0.36694 0.04839 0.0
O197 O 0.11709 0.52393 0.15497 0.0
O198 O 0.12917 0.4275 0.01007 0.0
O199 O 0.08565 0.48914 0.0939 0.0
C200 C 0.15441 0.38587 0.1945 0.0
C201 C 0.196 0.56143 0.03238 0.0
C202 C 0.2864 0.39593 0.0627 0.0
C203 C 0.27018 0.51462 0.17577 0.0
C204 C 0.13524 0.38422 0.01392 0.0
C205 C 0.08271 0.51536 0.12891 0.0
O206 O 0.16932 0.36815 0.15759 0.0
O207 O 0.76045 0.98276 0.76147 0.0
Zn208 Zn 0.7386 0.98734 0.82448 0.0
O209 O 0.67675 0.00463 0.822 0.0
Zn210 Zn 0.67246 0.06896 0.82659 0.0
Zn211 Zn 0.65106 0.97864 0.76583 0.0
Zn212 Zn 0.65002 0.98119 0.87562 0.0
O213 O 0.63591 0.08934 0.88022 0.0
O214 O 0.64323 0.02899 0.92595 0.0
O215 O 0.77846 0.03483 0.85397 0.0
O216 O 0.73467 0.09477 0.83678 0.0
O217 O 0.64489 0.09302 0.76974 0.0
O218 O 0.62974 0.0317 0.72585 0.0
O219 O 0.59437 0.94022 0.78351 0.0
O220 O 0.74366 0.92433 0.85176 0.0
O221 O 0.58887 0.96041 0.8575 0.0
O222 O 0.68121 0.92335 0.89425 0.0
C223 C 0.74389 0.95809 0.72942 0.0
C224 C 0.63248 0.07096 0.91951 0.0
C225 C 0.62939 0.07514 0.73281 0.0
C226 C 0.77234 0.07799 0.8507 0.0
C227 C 0.57255 0.94168 0.82144 0.0
C228 C 0.71685 0.90369 0.87914 0.0
O229 O 0.7021 0.94463 0.72982 0.0
O230 O 0.82577 0.91525 0.45173 0.0
Zn231 Zn 0.78524 0.95741 0.41478 0.0
O232 O 0.80345 0.95247 0.35089 0.0
Zn233 Zn 0.80809 0.01117 0.32165 0.0
Zn234 Zn 0.86051 0.92149 0.34312 0.0
Zn235 Zn 0.75832 0.91679 0.32046 0.0
O236 O 0.75691 0.0203 0.2762 0.0
O237 O 0.71605 0.95664 0.28606 0.0
O238 O 0.78806 0.02506 0.43539 0.0
O239 O 0.80041 0.06001 0.36899 0.0
O240 O 0.871 0.02298 0.29707 0.0
O241 O 0.9096 0.96848 0.33366 0.0
O242 O 0.86002 0.87911 0.2882 0.0
O243 O 0.72136 0.9302 0.42458 0.0
O244 O 0.78521 0.87321 0.27686 0.0
O245 O 0.72081 0.88289 0.36434 0.0
C246 C 0.85615 0.88611 0.4403 0.0
C247 C 0.72081 -0.00358 0.26893 0.0
C248 C 0.90859 0.00587 0.311 0.0
C249 C 0.79384 0.06183 0.412 0.0
C250 C 0.82578 0.86211 0.26689 0.0
C251 C 0.70492 0.89572 0.40264 0.0
O252 O 0.87195 0.88449 0.39966 0.0
O253 O 0.32047 0.55727 0.58482 0.0
Zn254 Zn 0.2789 0.52016 0.62478 0.0
O255 O 0.30547 0.51387 0.68589 0.0
Zn256 Zn 0.30826 0.44944 0.70334 0.0
Zn257 Zn 0.3657 0.54211 0.68774 0.0
Zn258 Zn 0.26866 0.54462 0.73006 0.0
O259 O 0.26456 0.43344 0.75474 0.0
O260 O 0.23134 0.501 0.76532 0.0
O261 O 0.26739 0.45745 0.59523 0.0
O262 O 0.2869 0.41001 0.65133 0.0
O263 O 0.37331 0.42916 0.71064 0.0
O264 O 0.41063 0.49087 0.68466 0.0
O265 O 0.37633 0.58007 0.74554 0.0
O266 O 0.22191 0.55886 0.62697 0.0
O267 O 0.3064 0.57963 0.77461 0.0
O268 O 0.22449 0.58543 0.69884 0.0
C269 C 0.35562 0.5822 0.59266 0.0
C270 C 0.23407 0.4583 0.77345 0.0
C271 C 0.40956 0.44858 0.69598 0.0
C272 C 0.27263 0.41677 0.61072 0.0
C273 C 0.34835 0.59083 0.77705 0.0
C274 C 0.20723 0.58504 0.65871 0.0
O275 O 0.37565 0.58184 0.63167 0.0
C276 C 0.2399 0.29439 0.57598 0.0
C277 C 0.23542 0.29744 0.52813 0.0
C278 C 0.25295 0.33298 0.60228 0.0
C279 C 0.26182 0.376 0.58167 0.0
H280 H 0.23088 0.26282 0.59347 0.0
H281 H 0.25439 0.3294 0.63922 0.0
S282 S 0.26253 0.39953 0.45675 0.0
N283 N 0.24645 0.34509 0.46062 0.0
N284 N 0.27063 0.41749 0.51002 0.0
C285 C 0.26025 0.37858 0.53361 0.0
C286 C 0.24724 0.33931 0.50688 0.0
C287 C 0.7973 0.89566 0.7143 0.0
C288 C 0.77834 0.93738 0.69957 0.0
C289 C 0.84298 0.88511 0.70517 0.0
C290 C 0.87084 0.9154 0.68008 0.0
H291 H 0.77837 0.87349 0.7373 0.0
H292 H 0.85725 0.85402 0.71965 0.0
S293 S 0.83563 0.02569 0.62835 0.0
N294 N 0.78961 0.00712 0.65535 0.0
N295 N 0.875 0.98588 0.63601 0.0
C296 C 0.85114 0.95489 0.66126 0.0
C297 C 0.80486 0.96616 0.67145 0.0
C298 C 0.21937 0.68769 0.05304 0.0
C299 C 0.20555 0.70801 0.01168 0.0
C300 C 0.21523 0.64013 0.05937 0.0
C301 C 0.19623 0.61147 0.02504 0.0
H302 H 0.23714 0.70788 0.07905 0.0
H303 H 0.22827 0.62545 0.09091 0.0
S304 S 0.14866 0.64857 0.9135 0.0
N305 N 0.16805 0.69654 0.93766 0.0
N306 N 0.15871 0.60708 0.95074 0.0
C307 C 0.17853 0.6317 0.98534 0.0
C308 C 0.18354 0.68008 0.97841 0.0
C309 C 0.64332 0.08846 0.22311 0.0
C310 C 0.60132 0.06519 0.2168 0.0
C311 C 0.68235 0.06534 0.23737 0.0
C312 C 0.68115 0.01787 0.24609 0.0
H313 H 0.64606 0.12535 0.2183 0.0
H314 H 0.71318 0.08541 0.24332 0.0
S315 S 0.58129 0.93969 0.22834 0.0
N316 N 0.56179 0.99135 0.21581 0.0
N317 N 0.63549 0.94725 0.24279 0.0
C318 C 0.63997 -0.00645 0.23759 0.0
C319 C 0.59995 0.01737 0.22308 0.0
C320 C 0.75401 0.15317 0.49527 0.0
C321 C 0.75575 0.19373 0.4689 0.0
C322 C 0.76975 0.11116 0.47806 0.0
C323 C 0.78774 0.10794 0.43363 0.0
H324 H 0.7374 0.15324 0.52839 0.0
H325 H 0.76484 0.08059 0.49865 0.0
S326 S 0.80797 0.20604 0.35437 0.0
N327 N 0.78259 0.22952 0.39907 0.0
N328 N 0.81317 0.15083 0.36648 0.0
C329 C 0.79407 0.14928 0.40882 0.0
C330 C 0.77791 0.19216 0.42654 0.0
C331 C 0.12495 0.39238 0.77209 0.0
C332 C 0.09964 0.41438 0.80653 0.0
C333 C 0.17102 0.40279 0.76555 0.0
C334 C 0.19307 0.43651 0.79249 0.0
H335 H 0.10869 0.36749 0.74931 0.0
H336 H 0.18833 0.38705 0.73677 0.0
S337 S 0.14352 0.49952 0.89104 0.0
N338 N 0.10106 0.46681 0.87166 0.0
N339 N 0.18762 0.48886 0.85758 0.0
C340 C 0.16891 0.45685 0.82883 0.0
C341 C 0.12211 0.44514 0.83635 0.0
C342 C 0.69412 0.83269 0.9211 0.0
C343 C 0.72484 0.85493 0.89139 0.0
C344 C 0.70135 0.78753 0.93533 0.0
C345 C 0.73929 0.76261 0.92017 0.0
H346 H 0.66498 0.85069 0.93495 0.0
H347 H 0.6786 0.77295 0.96069 0.0
S348 S 0.827 0.80218 0.83792 0.0
N349 N 0.79243 0.84652 0.84361 0.0
N350 N 0.80594 0.76135 0.87104 0.0
C351 C 0.76849 0.78284 0.88791 0.0
C352 C 0.76137 0.82917 0.87349 0.0
C353 C 0.33984 0.55934 0.27787 0.0
C354 C 0.38413 0.5632 0.25967 0.0
C355 C 0.30313 0.54291 0.25097 0.0
C356 C 0.30929 0.53078 0.20463 0.0
H357 H 0.33339 0.56986 0.31293 0.0
H358 H 0.26964 0.54056 0.26639 0.0
S359 S 0.41873 0.53803 0.1402 0.0
N360 N 0.43212 0.55474 0.19273 0.0
N361 N 0.36372 0.52559 0.14156 0.0
C362 C 0.35377 0.53469 0.18621 0.0
C363 C 0.39103 0.55039 0.21388 0.0
C364 C 0.52438 0.30171 0.31034 0.0
C365 C 0.5492 0.27114 0.28248 0.0
C366 C 0.53549 0.30802 0.35679 0.0
C367 C 0.57113 0.28313 0.37723 0.0
H368 H 0.49462 0.31905 0.2967 0.0
H369 H 0.51476 0.33093 0.37725 0.0
S370 S 0.65057 0.20372 0.31805 0.0
N371 N 0.61416 0.21958 0.27772 0.0
N372 N 0.63474 0.23103 0.36506 0.0
C373 C 0.59807 0.25477 0.34915 0.0
C374 C 0.5873 0.24902 0.30169 0.0
C375 C 0.04275 0.28591 0.57425 0.0
C376 C 0.04001 0.2394 0.56088 0.0
C377 C 0.03121 0.29978 0.61858 0.0
C378 C 0.01666 0.26776 0.65161 0.0
H379 H 0.05506 0.31187 0.55072 0.0
H380 H 0.03462 0.33598 0.62722 0.0
S381 S -0.00018 0.14232 0.63344 0.0
N382 N 0.0188 0.16142 0.5838 0.0
N383 N -0.00269 0.18792 0.66733 0.0
C384 C 0.01239 0.22134 0.63855 0.0
C385 C 0.02381 0.20711 0.59312 0.0
C386 C 0.95578 0.78054 0.85528 0.0
C387 C 0.95938 0.75564 0.81377 0.0
C388 C 0.94088 0.75939 0.89565 0.0
C389 C 0.92892 0.71248 0.89619 0.0
H390 H 0.96319 0.81712 0.85648 0.0
H391 H 0.93659 0.78056 0.92599 0.0
S392 S 0.93854 0.63019 0.79879 0.0
N393 N 0.95424 0.68025 0.7772 0.0
N394 N 0.92621 0.64053 0.85302 0.0
C395 C 0.93479 0.68655 0.85568 0.0
C396 C 0.94995 0.70809 0.81453 0.0
C397 C 0.45571 0.77861 0.17709 0.0
C398 C 0.42822 0.76484 0.21437 0.0
C399 C 0.43671 0.79015 0.13438 0.0
C400 C 0.38927 0.7891 0.127 0.0
H401 H 0.4926 0.77909 0.18023 0.0
H402 H 0.45953 0.7996 0.10683 0.0
S403 S 0.30153 0.75821 0.2136 0.0
N404 N 0.35061 0.75281 0.24118 0.0
N405 N 0.31479 0.77504 0.16134 0.0
C406 C 0.36112 0.77723 0.16441 0.0
C407 C 0.38056 0.76508 0.2079 0.0
C408 C 0.13066 0.34044 0.31346 0.0
C409 C 0.12267 0.29329 0.30517 0.0
C410 C 0.13885 0.37078 0.27723 0.0
C411 C 0.13932 0.35496 0.23156 0.0
H412 H 0.13327 0.35359 0.34823 0.0
H413 H 0.1471 0.40634 0.28532 0.0
S414 S 0.11133 0.23643 0.19138 0.0
N415 N 0.1093 0.23348 0.24785 0.0
N416 N 0.12452 0.29043 0.1797 0.0
C417 C 0.12779 0.30861 0.22269 0.0
C418 C 0.11947 0.27779 0.25953 0.0
C419 C 0.93578 0.80215 0.49815 0.0
C420 C 0.92025 0.8019 0.54362 0.0
C421 C 0.91331 0.82752 0.4644 0.0
C422 C 0.87448 0.85376 0.47492 0.0
H423 H 0.96805 0.78627 0.48963 0.0
H424 H 0.92844 0.82889 0.43062 0.0
S425 S 0.8142 0.85543 0.58661 0.0
N426 N 0.8596 0.82325 0.59587 0.0
N427 N 0.81668 0.87081 0.53224 0.0
C428 C 0.8556 0.84939 0.51906 0.0
C429 C 0.87853 0.82321 0.55344 0.0
C430 C 0.38898 0.6606 0.80618 0.0
C431 C 0.36253 0.62113 0.81516 0.0
C432 C 0.391 0.69698 0.83792 0.0
C433 C 0.36779 0.69405 0.8798 0.0
H434 H 0.40454 0.66527 0.77289 0.0
H435 H 0.40808 0.72873 0.82839 0.0
S436 S 0.2995 0.59559 0.92217 0.0
N437 N 0.31676 0.5793 0.87078 0.0
N438 N 0.32163 0.64744 0.9307 0.0
C439 C 0.345 0.65315 0.89096 0.0
C440 C 0.34219 0.61656 0.85849 0.0
C441 C 0.55704 0.15516 0.98213 0.0
C442 C 0.56966 0.14891 0.02814 0.0
C443 C 0.57898 0.13097 0.94709 0.0
C444 C 0.61307 0.09851 0.95713 0.0
H445 H 0.52907 0.17778 0.97333 0.0
H446 H 0.56762 0.13618 0.91206 0.0
S447 S 0.65882 0.07052 0.0725 0.0
N448 N 0.61928 0.10962 0.08217 0.0
N449 N 0.65961 0.06279 0.0163 0.0
C450 C 0.62667 0.09274 0.00302 0.0
C451 C 0.60517 0.11836 0.03857 0.0
C452 C 0.596 0.18649 0.67762 0.0
C453 C 0.60505 0.17828 0.63115 0.0
C454 C 0.60009 0.1514 0.7098 0.0
C455 C 0.61397 0.10696 0.69674 0.0
H456 H 0.5882 0.22093 0.68957 0.0
H457 H 0.59499 0.15997 0.74562 0.0
S458 S 0.63685 0.06684 0.57819 0.0
N459 N 0.62406 0.12184 0.57257 0.0
N460 N 0.63237 0.05551 0.63347 0.0
C461 C 0.6194 0.09729 0.64979 0.0
C462 C 0.61485 0.13316 0.61682 0.0
C463 C 0.07357 0.32924 -0.00434 0.0
C464 C 0.11303 0.35253 0.98164 0.0
C465 C 0.04936 0.30098 0.96513 0.0
C466 C 0.06369 0.29533 0.91942 0.0
H467 H 0.06022 0.3345 0.02987 0.0
H468 H 0.01727 0.2862 0.97645 0.0
S469 S 0.17244 0.33905 0.87094 0.0
N470 N 0.17083 0.36146 0.92311 0.0
N471 N 0.12507 0.30823 0.86479 0.0
C472 C 0.10604 0.3145 0.90668 0.0
C473 C 0.13065 0.34352 0.938 0.0
C474 C 0.86714 0.83561 0.19699 0.0
C475 C 0.83205 0.82936 0.22911 0.0
C476 C 0.86857 0.80859 0.15698 0.0
C477 C 0.8349 0.77482 0.14826 0.0
H478 H 0.89229 0.8628 0.20178 0.0
H479 H 0.89511 0.81522 0.13211 0.0
S480 S 0.74088 0.74005 0.22626 0.0
N481 N 0.76653 0.78359 0.25261 0.0
N482 N 0.76919 0.73264 0.1781 0.0
C483 C 0.80146 0.76648 0.18179 0.0
C484 C 0.80005 0.79383 0.22211 0.0
C485 C 0.42006 0.62657 0.5577 0.0
C486 C 0.37474 0.6104 0.5549 0.0
C487 C 0.44094 0.64786 0.52023 0.0
C488 C 0.41733 0.65421 0.47847 0.0
H489 H 0.44042 0.62081 0.58828 0.0
H490 H 0.47665 0.65754 0.52343 0.0
S491 S 0.29571 0.62457 0.45569 0.0
N492 N 0.30507 0.60718 0.50873 0.0
N493 N 0.34451 0.64706 0.43829 0.0
C494 C 0.37092 0.64147 0.47635 0.0
C495 C 0.34964 0.61949 0.5145 0.0
C496 C 0.2985 0.1045 0.33173 0.0
C497 C 0.29173 0.1387 0.36521 0.0
C498 C 0.33541 0.10727 0.30155 0.0
C499 C 0.36547 0.14514 0.30314 0.0
H500 H 0.27392 0.07669 0.3275 0.0
H501 H 0.33858 0.08138 0.27487 0.0
S502 S 0.36422 0.24192 0.38625 0.0
N503 N 0.31995 0.20952 0.40048 0.0
N504 N 0.3883 0.21568 0.34229 0.0
C505 C 0.36036 0.17833 0.33774 0.0
C506 C 0.32366 0.17482 0.3693 0.0
C507 C 0.1553 0.02055 0.56517 0.0
C508 C 0.13896 0.0298 0.52069 0.0
C509 C 0.14043 0.9811 0.58881 0.0
C510 C 0.10868 0.9504 0.56859 0.0
H511 H 0.17676 0.04547 0.58299 0.0
H512 H 0.15116 0.97642 0.62411 0.0
S513 S 0.0629 0.95446 0.45005 0.0
N514 N 0.09533 0.00099 0.45495 0.0
N515 N 0.06652 0.9282 0.50001 0.0
C516 C 0.0954 0.95724 0.52297 0.0
C517 C 0.11091 -0.00339 0.49878 0.0
C518 C 0.17388 0.91867 0.78151 0.0
C519 C 0.12871 0.90628 0.79248 0.0
C520 C 0.20915 0.9146 0.8139 0.0
C521 C 0.20012 0.89712 0.85767 0.0
H522 H 0.18252 0.92799 0.74666 0.0
H523 H 0.24402 0.92112 0.80337 0.0
S524 S 0.08724 0.86498 0.90481 0.0
N525 N 0.07624 0.88086 0.85155 0.0
N526 N 0.14291 0.87184 0.91209 0.0
C527 C 0.15475 0.88827 0.87021 0.0
C528 C 0.11876 0.89338 0.83763 0.0
C529 C 0.33461 0.053 0.06676 0.0
C530 C 0.35877 0.04476 0.1078 0.0
C531 C 0.3083 0.01838 0.04584 0.0
C532 C 0.30478 0.97439 0.06535 0.0
H533 H 0.33832 0.08541 0.04889 0.0
H534 H 0.29384 0.02484 0.01218 0.0
S535 S 0.3537 0.93743 0.17663 0.0
N536 N 0.37151 0.99115 0.17071 0.0
N537 N 0.32204 0.92607 0.13082 0.0
C538 C 0.32434 0.96714 0.10876 0.0
C539 C 0.35151 0.00232 0.13009 0.0
C540 C 0.85604 0.38402 0.64032 0.0
C541 C 0.84667 0.39586 0.68602 0.0
C542 C 0.82032 0.37723 0.60867 0.0
C543 C 0.77453 0.3819 0.62227 0.0
H544 H 0.89047 0.3751 0.63032 0.0
H545 H 0.82843 0.3641 0.57486 0.0
S546 S 0.73404 0.42366 0.73528 0.0
N547 N 0.79003 0.42003 0.74121 0.0
N548 N 0.72271 0.40813 0.6818 0.0
C549 C 0.76552 0.39948 0.6663 0.0
C550 C 0.80177 0.40628 0.69826 0.0
C551 C 0.82555 0.44901 0.89084 0.0
C552 C 0.85966 0.42254 0.91197 0.0
C553 C 0.80555 0.4859 0.91414 0.0
C554 C 0.81836 0.49664 0.95954 0.0
H555 H 0.8167 0.44338 0.85508 0.0
H556 H 0.78211 0.50783 0.89558 0.0
S557 S 0.90036 0.43174 0.0322 0.0
N558 N 0.90133 0.40534 0.98195 0.0
N559 N 0.86298 0.47363 0.0266 0.0
C560 C 0.84907 0.46721 0.9824 0.0
C561 C 0.8701 0.43044 0.95829 0.0
C562 C 0.66627 0.67061 0.13809 0.0
C563 C 0.69162 0.62984 0.13323 0.0
C564 C 0.63391 0.67545 0.17257 0.0
C565 C 0.62486 0.63939 0.203 0.0
H566 H 0.67235 0.69981 0.1159 0.0
H567 H 0.61569 0.70769 0.17527 0.0
S568 S 0.681 0.52531 0.20486 0.0
N569 N 0.70553 0.55271 0.16189 0.0
N570 N 0.64314 0.56129 0.2263 0.0
C571 C 0.64916 0.59803 0.19825 0.0
C572 C 0.68304 0.59342 0.16353 0.0
C573 C 0.64981 0.50093 0.46262 0.0
C574 C 0.6557 0.45915 0.43897 0.0
C575 C 0.62835 0.53831 0.4417 0.0
C576 C 0.61125 0.5349 0.39657 0.0
H577 H 0.65852 0.50345 0.49875 0.0
H578 H 0.62231 0.56882 0.46224 0.0
S579 S 0.62469 0.43483 0.31793 0.0
N580 N 0.64795 0.41797 0.36675 0.0
N581 N 0.60759 0.48819 0.32683 0.0
C582 C 0.62074 0.49458 0.37123 0.0
C583 C 0.6431 0.4567 0.39258 0.0
C584 C 0.32774 0.32699 0.03839 0.0
C585 C 0.32894 0.37052 0.05949 0.0
C586 C 0.35762 0.29239 0.05247 0.0
C587 C 0.38847 0.30025 0.0889 0.0
H588 H 0.30064 0.3183 0.01427 0.0
H589 H 0.35335 0.25822 0.03791 0.0
S590 S 0.4098 0.41085 0.14942 0.0
N591 N 0.36756 0.42178 0.1133 0.0
N592 N 0.42335 0.35645 0.14064 0.0
C593 C 0.39319 0.34503 0.10671 0.0
C594 C 0.36347 0.38042 0.09162 0.0
C595 C 0.83255 0.18999 0.86706 0.0
C596 C 0.87258 0.1834 0.84156 0.0
C597 C 0.80209 0.1538 0.87431 0.0
C598 C 0.8108 0.10984 0.85652 0.0
H599 H 0.82334 0.22396 0.87928 0.0
H600 H 0.76999 0.161 0.89112 0.0
S601 S 0.91375 0.07309 0.7932 0.0
N602 N 0.92205 0.12859 0.80316 0.0
N603 N 0.86429 0.06003 0.81697 0.0
C604 C 0.85275 0.10157 0.83499 0.0
C605 C 0.88388 0.13863 0.82741 0.0
C606 C -0.00165 0.51748 0.12783 0.0
C607 C 0.04007 0.54105 0.1337 0.0
C608 C 0.95808 0.5413 0.11832 0.0
C609 C 0.95853 0.58942 0.11317 0.0
H610 H -0.0026 0.48016 0.12775 0.0
H611 H 0.92725 0.5215 0.11144 0.0
S612 S 0.05829 0.66729 0.13064 0.0
N613 N 0.07888 0.6151 0.13849 0.0
N614 N 0.00323 0.6602 0.1197 0.0
C615 C -0.00055 0.61362 0.12234 0.0
C616 C 0.04029 0.58931 0.1329 0.0
C617 C 0.66997 0.82774 0.43789 0.0
C618 C 0.66408 0.87115 0.41777 0.0
C619 C 0.63781 0.79239 0.43055 0.0
C620 C 0.5995 0.79949 0.40212 0.0
H621 H 0.70196 0.81948 0.45476 0.0
H622 H 0.64556 0.75824 0.44303 0.0
S623 S 0.56406 0.91006 0.35053 0.0
N624 N 0.61362 0.92171 0.37559 0.0
N625 N 0.55328 0.85524 0.36114 0.0
C626 C 0.5906 0.84429 0.38672 0.0
C627 C 0.62292 0.88029 0.39488 0.0
C628 C 0.5274 0.41236 0.66097 0.0
C629 C 0.51758 0.37981 0.6263 0.0
C630 C 0.49226 0.43268 0.68622 0.0
C631 C 0.44655 0.41959 0.6788 0.0
H632 H 0.56222 0.42393 0.66697 0.0
H633 H 0.50066 0.45995 0.71041 0.0
S634 S 0.40352 0.33309 0.59459 0.0
N635 N 0.45944 0.33379 0.58733 0.0
N636 N 0.39344 0.37055 0.63605 0.0
C637 C 0.43664 0.38508 0.64611 0.0
C638 C 0.4722 0.36554 0.61945 0.0
C639 C 0.18036 0.65525 0.61938 0.0
C640 C 0.17131 0.61829 0.6489 0.0
C641 C 0.15134 0.6934 0.61811 0.0
C642 C 0.11201 0.69492 0.64544 0.0
H643 H 0.21153 0.65602 0.59954 0.0
H644 H 0.16048 0.72248 0.59682 0.0
S645 S 0.07222 0.60479 0.72597 0.0
N646 N 0.12005 0.58427 0.70448 0.0
N647 N 0.06433 0.65502 0.7009 0.0
C648 C 0.10129 0.65673 0.67294 0.0
C649 C 0.13136 0.61858 0.67502 0.0
C650 C 0.45223 0.93051 0.85778 0.0
C651 C 0.45282 0.88754 0.88002 0.0
C652 C 0.48971 0.94581 0.83229 0.0
C653 C 0.52864 0.91838 0.82742 0.0
H654 H 0.42386 0.95379 0.86234 0.0
H655 H 0.48981 0.98083 0.81962 0.0
S656 S 0.54519 0.80078 0.87254 0.0
N657 N 0.49395 0.81558 0.89054 0.0
N658 N 0.56433 0.84501 0.84273 0.0
C659 C 0.52823 0.87399 0.84596 0.0
C660 C 0.49034 0.8584 0.87231 0.0
C661 C 0.94502 0.08289 0.31692 0.0
C662 C 0.94991 0.03509 0.31075 0.0
C663 C 0.98197 0.11018 0.33125 0.0
C664 C 0.02517 0.09083 0.33852 0.0
H665 H 0.91168 0.09873 0.3148 0.0
H666 H 0.97612 0.14614 0.33922 0.0
S667 S 0.05769 0.96934 0.31911 0.0
N668 N 0.00241 0.97067 0.30744 0.0
N669 N 0.07244 0.02265 0.33302 0.0
C670 C 0.03169 0.0442 0.32787 0.0
C671 C -0.00619 0.0161 0.31426 0.0
loop_
_geom_bond_atom_site_label_1
_geom_bond_atom_site_label_2
_geom_bond_distance
_geom_bond_site_symmetry_2
_ccdc_geom_bond_type
O0 Zn1 1.953 . S
O0 C16 1.225 . S
Zn1 O0 1.953 . S
Zn1 O2 1.949 . S
Zn1 O8 1.919 . S
Zn1 O13 1.924 . S
O2 Zn1 1.949 . S
O2 Zn3 1.923 . S
O2 Zn4 1.950 . S
O2 Zn5 1.945 . S
Zn3 O2 1.923 . S
Zn3 O6 1.933 . S
Zn3 O9 1.941 . S
Zn3 O10 1.965 . S
Zn4 O2 1.950 . S
Zn4 O11 1.938 . S
Zn4 O12 1.906 . S
Zn4 O22 1.953 . S
Zn5 O2 1.945 . S
Zn5 O7 1.932 . S
Zn5 O14 1.977 . S
Zn5 O15 1.910 . S
O6 Zn3 1.933 . S
O6 C17 1.226 . S
O7 Zn5 1.932 . S
O7 C17 1.307 . S
O8 Zn1 1.919 . S
O8 C19 1.253 . S
O9 Zn3 1.941 . S
O9 C19 1.283 . S
O10 Zn3 1.965 . S
O10 C18 1.303 . S
O11 Zn4 1.938 . S
O11 C18 1.247 . S
O12 Zn4 1.906 . S
O12 C20 1.304 . S
O13 Zn1 1.924 . S
O13 C21 1.311 . S
O14 Zn5 1.977 . S
O14 C20 1.272 . S
O15 Zn5 1.910 . S
O15 C21 1.231 . S
C16 O0 1.225 . S
C16 O22 1.298 . S
C17 O6 1.226 . S
C17 O7 1.307 . S
C18 O10 1.303 . S
C18 O11 1.247 . S
C19 O8 1.253 . S
C19 O9 1.283 . S
C20 O12 1.304 . S
C20 O14 1.272 . S
C21 O13 1.311 . S
C21 O15 1.231 . S
O22 Zn4 1.953 . S
O22 C16 1.298 . S
O23 Zn24 1.953 . S
O23 C39 1.225 . S
Zn24 O23 1.953 . S
Zn24 O25 1.949 . S
Zn24 O31 1.919 1_455 S
Zn24 O36 1.924 1_455 S
O25 Zn24 1.949 . S
O25 Zn26 1.923 . S
O25 Zn27 1.950 . S
O25 Zn28 1.959 . S
Zn26 O25 1.923 . S
Zn26 O29 1.933 1_455 S
Zn26 O32 1.941 . S
Zn26 O33 1.965 . S
Zn27 O25 1.950 . S
Zn27 O34 1.938 . S
Zn27 O35 1.906 . S
Zn27 O45 1.953 . S
Zn28 O25 1.959 . S
Zn28 O30 1.920 1_455 S
Zn28 O37 1.991 . S
Zn28 O38 1.898 1_455 S
O29 Zn26 1.933 1_655 S
O29 C40 1.226 . S
O30 Zn28 1.920 1_655 S
O30 C40 1.307 . S
O31 Zn24 1.919 1_655 S
O31 C42 1.253 . S
O32 Zn26 1.941 . S
O32 C42 1.283 1_455 S
O33 Zn26 1.965 . S
O33 C41 1.303 . S
O34 Zn27 1.938 . S
O34 C41 1.247 . S
O35 Zn27 1.906 . S
O35 C43 1.304 . S
O36 Zn24 1.924 1_655 S
O36 C44 1.311 . S
O37 Zn28 1.991 . S
O37 C43 1.272 . S
O38 Zn28 1.898 1_655 S
O38 C44 1.231 . S
C39 O23 1.225 . S
C39 O45 1.298 . S
C40 O29 1.226 . S
C40 O30 1.307 . S
C41 O33 1.303 . S
C41 O34 1.247 . S
C42 O31 1.253 . S
C42 O32 1.283 1_655 S
C43 O35 1.304 . S
C43 O37 1.272 . S
C44 O36 1.311 . S
C44 O38 1.231 . S
O45 Zn27 1.953 . S
O45 C39 1.298 . S
O46 Zn47 1.953 . S
O46 C62 1.225 . S
Zn47 O46 1.953 . S
Zn47 O48 1.949 . S
Zn47 O54 1.919 . S
Zn47 O59 1.924 . S
O48 Zn47 1.949 . S
O48 Zn49 1.923 1_556 S
O48 Zn50 1.950 . S
O48 Zn51 1.945 . S
Zn49 O48 1.923 1_554 S
Zn49 O52 1.933 . S
Zn49 O55 1.941 . S
Zn49 O56 1.965 . S
Zn50 O48 1.950 . S
Zn50 O57 1.938 . S
Zn50 O58 1.906 . S
Zn50 O68 1.953 . S
Zn51 O48 1.945 . S
Zn51 O53 1.932 . S
Zn51 O60 1.977 . S
Zn51 O61 1.910 . S
O52 Zn49 1.933 . S
O52 C63 1.226 . S
O53 Zn51 1.932 . S
O53 C63 1.307 1_556 S
O54 Zn47 1.919 . S
O54 C65 1.253 1_556 S
O55 Zn49 1.941 . S
O55 C65 1.283 . S
O56 Zn49 1.965 . S
O56 C64 1.303 . S
O57 Zn50 1.938 . S
O57 C64 1.247 1_556 S
O58 Zn50 1.906 . S
O58 C66 1.304 . S
O59 Zn47 1.924 . S
O59 C67 1.311 . S
O60 Zn51 1.977 . S
O60 C66 1.272 . S
O61 Zn51 1.910 . S
O61 C67 1.231 . S
C62 O46 1.225 . S
C62 O68 1.298 . S
C63 O52 1.226 . S
C63 O53 1.307 1_554 S
C64 O56 1.303 . S
C64 O57 1.247 1_554 S
C65 O54 1.253 1_554 S
C65 O55 1.283 . S
C66 O58 1.304 . S
C66 O60 1.272 . S
C67 O59 1.311 . S
C67 O61 1.231 . S
O68 Zn50 1.953 . S
O68 C62 1.298 . S
O69 Zn70 1.953 . S
O69 C85 1.225 . S
Zn70 O69 1.953 . S
Zn70 O71 1.949 . S
Zn70 O77 1.919 . S
Zn70 O82 1.924 . S
O71 Zn70 1.949 . S
O71 Zn72 1.923 . S
O71 Zn73 1.950 . S
O71 Zn74 1.945 . S
Zn72 O71 1.923 . S
Zn72 O75 1.933 . S
Zn72 O78 1.941 . S
Zn72 O79 1.965 . S
Zn73 O71 1.950 . S
Zn73 O80 1.938 . S
Zn73 O81 1.906 . S
Zn73 O91 1.953 . S
Zn74 O71 1.945 . S
Zn74 O76 1.932 . S
Zn74 O83 1.977 . S
Zn74 O84 1.910 . S
O75 Zn72 1.933 . S
O75 C86 1.226 . S
O76 Zn74 1.932 . S
O76 C86 1.307 . S
O77 Zn70 1.919 . S
O77 C88 1.253 . S
O78 Zn72 1.941 . S
O78 C88 1.283 . S
O79 Zn72 1.965 . S
O79 C87 1.303 . S
O80 Zn73 1.938 . S
O80 C87 1.247 . S
O81 Zn73 1.906 . S
O81 C89 1.304 . S
O82 Zn70 1.924 . S
O82 C90 1.311 . S
O83 Zn74 1.977 . S
O83 C89 1.272 . S
O84 Zn74 1.910 . S
O84 C90 1.231 . S
C85 O69 1.225 . S
C85 O91 1.298 . S
C86 O75 1.226 . S
C86 O76 1.307 . S
C87 O79 1.303 . S
C87 O80 1.247 . S
C88 O77 1.253 . S
C88 O78 1.283 . S
C89 O81 1.304 . S
C89 O83 1.272 . S
C90 O82 1.311 . S
C90 O84 1.231 . S
O91 Zn73 1.953 . S
O91 C85 1.298 . S
O92 Zn93 1.953 . S
O92 C108 1.225 . S
Zn93 O92 1.953 . S
Zn93 O94 1.949 . S
Zn93 O100 1.919 . S
Zn93 O105 1.924 . S
O94 Zn93 1.949 . S
O94 Zn95 1.923 . S
O94 Zn96 1.950 . S
O94 Zn97 1.945 . S
Zn95 O94 1.923 . S
Zn95 O98 1.933 . S
Zn95 O101 1.941 . S
Zn95 O102 1.965 . S
Zn96 O94 1.950 . S
Zn96 O103 1.938 . S
Zn96 O104 1.906 . S
Zn96 O114 1.953 . S
Zn97 O94 1.945 . S
Zn97 O99 1.932 . S
Zn97 O106 1.977 . S
Zn97 O107 1.910 . S
O98 Zn95 1.933 . S
O98 C109 1.226 . S
O99 Zn97 1.932 . S
O99 C109 1.307 . S
O100 Zn93 1.919 . S
O100 C111 1.253 . S
O101 Zn95 1.941 . S
O101 C111 1.283 . S
O102 Zn95 1.965 . S
O102 C110 1.303 . S
O103 Zn96 1.938 . S
O103 C110 1.247 . S
O104 Zn96 1.906 . S
O104 C112 1.304 . S
O105 Zn93 1.924 . S
O105 C113 1.311 . S
O106 Zn97 1.977 . S
O106 C112 1.272 . S
O107 Zn97 1.910 . S
O107 C113 1.231 . S
C108 O92 1.225 . S
C108 O114 1.298 . S
C109 O98 1.226 . S
C109 O99 1.307 . S
C110 O102 1.303 . S
C110 O103 1.247 . S
C111 O100 1.253 . S
C111 O101 1.283 . S
C112 O104 1.304 . S
C112 O106 1.272 . S
C113 O105 1.311 . S
C113 O107 1.231 . S
O114 Zn96 1.953 . S
O114 C108 1.298 . S
O115 Zn116 1.953 . S
O115 C131 1.225 . S
Zn116 O115 1.953 . S
Zn116 O117 1.949 . S
Zn116 O123 1.919 1_655 S
Zn116 O128 1.924 1_655 S
O117 Zn116 1.949 . S
O117 Zn118 1.923 . S
O117 Zn119 1.950 . S
O117 Zn120 1.945 . S
Zn118 O117 1.923 . S
Zn118 O121 1.933 1_655 S
Zn118 O124 1.941 . S
Zn118 O125 1.965 . S
Zn119 O117 1.950 . S
Zn119 O126 1.938 . S
Zn119 O127 1.906 . S
Zn119 O137 1.953 . S
Zn120 O117 1.945 . S
Zn120 O122 1.932 1_655 S
Zn120 O129 1.977 . S
Zn120 O130 1.910 1_655 S
O121 Zn118 1.933 1_455 S
O121 C132 1.226 . S
O122 Zn120 1.932 1_455 S
O122 C132 1.307 . S
O123 Zn116 1.919 1_455 S
O123 C134 1.253 . S
O124 Zn118 1.941 . S
O124 C134 1.283 1_655 S
O125 Zn118 1.965 . S
O125 C133 1.303 . S
O126 Zn119 1.938 . S
O126 C133 1.247 . S
O127 Zn119 1.906 . S
O127 C135 1.304 . S
O128 Zn116 1.924 1_455 S
O128 C136 1.311 . S
O129 Zn120 1.977 . S
O129 C135 1.272 . S
O130 Zn120 1.910 1_455 S
O130 C136 1.231 . S
C131 O115 1.225 . S
C131 O137 1.298 . S
C132 O121 1.226 . S
C132 O122 1.307 . S
C133 O125 1.303 . S
C133 O126 1.247 . S
C134 O123 1.253 . S
C134 O124 1.283 1_455 S
C135 O127 1.304 . S
C135 O129 1.272 . S
C136 O128 1.311 . S
C136 O130 1.231 . S
O137 Zn119 1.953 . S
O137 C131 1.298 . S
O138 Zn139 1.953 . S
O138 C154 1.225 . S
Zn139 O138 1.953 . S
Zn139 O140 1.949 . S
Zn139 O146 1.919 . S
Zn139 O151 1.924 . S
O140 Zn139 1.949 . S
O140 Zn141 1.923 1_554 S
O140 Zn142 1.950 . S
O140 Zn143 1.945 . S
Zn141 O140 1.923 1_556 S
Zn141 O144 1.933 . S
Zn141 O147 1.941 . S
Zn141 O148 1.965 . S
Zn142 O140 1.950 . S
Zn142 O149 1.938 . S
Zn142 O150 1.906 . S
Zn142 O160 1.953 . S
Zn143 O140 1.945 . S
Zn143 O145 1.932 . S
Zn143 O152 1.977 . S
Zn143 O153 1.910 . S
O144 Zn141 1.933 . S
O144 C155 1.226 . S
O145 Zn143 1.932 . S
O145 C155 1.307 1_554 S
O146 Zn139 1.919 . S
O146 C157 1.253 1_554 S
O147 Zn141 1.941 . S
O147 C157 1.283 . S
O148 Zn141 1.965 . S
O148 C156 1.303 . S
O149 Zn142 1.938 . S
O149 C156 1.247 1_554 S
O150 Zn142 1.906 . S
O150 C158 1.304 . S
O151 Zn139 1.924 . S
O151 C159 1.311 . S
O152 Zn143 1.977 . S
O152 C158 1.272 . S
O153 Zn143 1.910 . S
O153 C159 1.231 . S
C154 O138 1.225 . S
C154 O160 1.298 . S
C155 O144 1.226 . S
C155 O145 1.307 1_556 S
C156 O148 1.303 . S
C156 O149 1.247 1_556 S
C157 O146 1.253 1_556 S
C157 O147 1.283 . S
C158 O150 1.304 . S
C158 O152 1.272 . S
C159 O151 1.311 . S
C159 O153 1.231 . S
O160 Zn142 1.953 . S
O160 C154 1.298 . S
O161 Zn162 1.953 . S
O161 C177 1.225 . S
Zn162 O161 1.953 . S
Zn162 O163 1.949 . S
Zn162 O169 1.919 . S
Zn162 O174 1.924 . S
O163 Zn162 1.949 . S
O163 Zn164 1.923 . S
O163 Zn165 1.950 . S
O163 Zn166 1.945 . S
Zn164 O163 1.923 . S
Zn164 O167 1.933 . S
Zn164 O170 1.941 . S
Zn164 O171 1.965 . S
Zn165 O163 1.950 . S
Zn165 O172 1.938 . S
Zn165 O173 1.906 . S
Zn165 O183 1.953 . S
Zn166 O163 1.945 . S
Zn166 O168 1.932 . S
Zn166 O175 1.977 . S
Zn166 O176 1.910 . S
O167 Zn164 1.933 . S
O167 C178 1.226 . S
O168 Zn166 1.932 . S
O168 C178 1.307 . S
O169 Zn162 1.919 . S
O169 C180 1.253 . S
O170 Zn164 1.941 . S
O170 C180 1.283 . S
O171 Zn164 1.965 . S
O171 C179 1.303 . S
O172 Zn165 1.938 . S
O172 C179 1.247 . S
O173 Zn165 1.906 . S
O173 C181 1.304 . S
O174 Zn162 1.924 . S
O174 C182 1.311 . S
O175 Zn166 1.977 . S
O175 C181 1.272 . S
O176 Zn166 1.910 . S
O176 C182 1.231 . S
C177 O161 1.225 . S
C177 O183 1.298 . S
C178 O167 1.226 . S
C178 O168 1.307 . S
C179 O171 1.303 . S
C179 O172 1.247 . S
C180 O169 1.253 . S
C180 O170 1.283 . S
C181 O173 1.304 . S
C181 O175 1.272 . S
C182 O174 1.311 . S
C182 O176 1.231 . S
O183 Zn165 1.953 . S
O183 C177 1.298 . S
O184 Zn185 1.953 . S
O184 C200 1.225 . S
Zn185 O184 1.953 . S
Zn185 O186 1.949 . S
Zn185 O192 1.919 . S
Zn185 O197 1.924 . S
O186 Zn185 1.949 . S
O186 Zn187 1.923 . S
O186 Zn188 1.950 . S
O186 Zn189 1.945 . S
Zn187 O186 1.923 . S
Zn187 O190 1.933 . S
Zn187 O193 1.941 . S
Zn187 O194 1.965 . S
Zn188 O186 1.950 . S
Zn188 O195 1.938 . S
Zn188 O196 1.906 . S
Zn188 O206 1.953 . S
Zn189 O186 1.945 . S
Zn189 O191 1.932 . S
Zn189 O198 1.977 . S
Zn189 O199 1.910 . S
O190 Zn187 1.933 . S
O190 C201 1.226 . S
O191 Zn189 1.932 . S
O191 C201 1.307 . S
O192 Zn185 1.919 . S
O192 C203 1.253 . S
O193 Zn187 1.941 . S
O193 C203 1.283 . S
O194 Zn187 1.965 . S
O194 C202 1.303 . S
O195 Zn188 1.938 . S
O195 C202 1.247 . S
O196 Zn188 1.906 . S
O196 C204 1.304 . S
O197 Zn185 1.924 . S
O197 C205 1.311 . S
O198 Zn189 1.977 . S
O198 C204 1.272 . S
O199 Zn189 1.910 . S
O199 C205 1.231 . S
C200 O184 1.225 . S
C200 O206 1.298 . S
C201 O190 1.226 . S
C201 O191 1.307 . S
C202 O194 1.303 . S
C202 O195 1.247 . S
C203 O192 1.253 . S
C203 O193 1.283 . S
C204 O196 1.304 . S
C204 O198 1.272 . S
C205 O197 1.311 . S
C205 O199 1.231 . S
O206 Zn188 1.953 . S
O206 C200 1.298 . S
O207 Zn208 1.953 . S
O207 C223 1.225 1_545 S
Zn208 O207 1.953 . S
Zn208 O209 1.949 . S
Zn208 O215 1.919 . S
Zn208 O220 1.924 1_545 S
O209 Zn208 1.949 . S
O209 Zn210 1.923 . S
O209 Zn211 1.950 . S
O209 Zn212 1.945 . S
Zn210 O209 1.923 . S
Zn210 O213 1.933 . S
Zn210 O216 1.941 . S
Zn210 O217 1.965 . S
Zn211 O209 1.950 . S
Zn211 O218 1.938 . S
Zn211 O219 1.906 1_545 S
Zn211 O229 1.953 1_545 S
Zn212 O209 1.945 . S
Zn212 O214 1.932 . S
Zn212 O221 1.977 1_545 S
Zn212 O222 1.910 1_545 S
O213 Zn210 1.933 . S
O213 C224 1.226 . S
O214 Zn212 1.932 . S
O214 C224 1.307 . S
O215 Zn208 1.919 . S
O215 C226 1.253 . S
O216 Zn210 1.941 . S
O216 C226 1.283 . S
O217 Zn210 1.965 . S
O217 C225 1.303 . S
O218 Zn211 1.938 . S
O218 C225 1.247 . S
O219 Zn211 1.906 1_565 S
O219 C227 1.304 . S
O220 Zn208 1.924 1_565 S
O220 C228 1.311 . S
O221 Zn212 1.977 1_565 S
O221 C227 1.272 . S
O222 Zn212 1.910 1_565 S
O222 C228 1.231 . S
C223 O207 1.225 1_565 S
C223 O229 1.298 . S
C224 O213 1.226 . S
C224 O214 1.307 . S
C225 O217 1.303 . S
C225 O218 1.247 . S
C226 O215 1.253 . S
C226 O216 1.283 . S
C227 O219 1.304 . S
C227 O221 1.272 . S
C228 O220 1.311 . S
C228 O222 1.231 . S
O229 Zn211 1.953 1_565 S
O229 C223 1.298 . S
O230 Zn231 1.953 . S
O230 C246 1.225 . S
Zn231 O230 1.953 . S
Zn231 O232 1.949 . S
Zn231 O238 1.919 . S
Zn231 O243 1.924 . S
O232 Zn231 1.949 . S
O232 Zn233 1.923 1_565 S
O232 Zn234 1.950 . S
O232 Zn235 1.945 . S
Zn233 O232 1.923 1_545 S
Zn233 O236 1.933 . S
Zn233 O239 1.941 . S
Zn233 O240 1.965 . S
Zn234 O232 1.950 . S
Zn234 O241 1.938 . S
Zn234 O242 1.906 . S
Zn234 O252 1.953 . S
Zn235 O232 1.945 . S
Zn235 O237 1.932 . S
Zn235 O244 1.977 . S
Zn235 O245 1.910 . S
O236 Zn233 1.933 . S
O236 C247 1.226 . S
O237 Zn235 1.932 . S
O237 C247 1.307 1_565 S
O238 Zn231 1.919 . S
O238 C249 1.253 1_565 S
O239 Zn233 1.941 . S
O239 C249 1.283 . S
O240 Zn233 1.965 . S
O240 C248 1.303 . S
O241 Zn234 1.938 . S
O241 C248 1.247 1_565 S
O242 Zn234 1.906 . S
O242 C250 1.304 . S
O243 Zn231 1.924 . S
O243 C251 1.311 . S
O244 Zn235 1.977 . S
O244 C250 1.272 . S
O245 Zn235 1.910 . S
O245 C251 1.231 . S
C246 O230 1.225 . S
C246 O252 1.298 . S
C247 O236 1.226 . S
C247 O237 1.307 1_545 S
C248 O240 1.303 . S
C248 O241 1.247 1_545 S
C249 O238 1.253 1_545 S
C249 O239 1.283 . S
C250 O242 1.304 . S
C250 O244 1.272 . S
C251 O243 1.311 . S
C251 O245 1.231 . S
O252 Zn234 1.953 . S
O252 C246 1.298 . S
O253 Zn254 1.953 . S
O253 C269 1.225 . S
Zn254 O253 1.953 . S
Zn254 O255 1.949 . S
Zn254 O261 1.919 . S
Zn254 O266 1.924 . S
O255 Zn254 1.949 . S
O255 Zn256 1.923 . S
O255 Zn257 1.950 . S
O255 Zn258 1.945 . S
Zn256 O255 1.923 . S
Zn256 O259 1.933 . S
Zn256 O262 1.941 . S
Zn256 O263 1.965 . S
Zn257 O255 1.950 . S
Zn257 O264 1.938 . S
Zn257 O265 1.906 . S
Zn257 O275 1.953 . S
Zn258 O255 1.945 . S
Zn258 O260 1.932 . S
Zn258 O267 1.977 . S
Zn258 O268 1.910 . S
O259 Zn256 1.933 . S
O259 C270 1.226 . S
O260 Zn258 1.932 . S
O260 C270 1.307 . S
O261 Zn254 1.919 . S
O261 C272 1.253 . S
O262 Zn256 1.941 . S
O262 C272 1.283 . S
O263 Zn256 1.965 . S
O263 C271 1.303 . S
O264 Zn257 1.938 . S
O264 C271 1.247 . S
O265 Zn257 1.906 . S
O265 C273 1.304 . S
O266 Zn254 1.924 . S
O266 C274 1.311 . S
O267 Zn258 1.977 . S
O267 C273 1.272 . S
O268 Zn258 1.910 . S
O268 C274 1.231 . S
C269 O253 1.225 . S
C269 O275 1.298 . S
C270 O259 1.226 . S
C270 O260 1.307 . S
C271 O263 1.303 . S
C271 O264 1.247 . S
C272 O261 1.253 . S
C272 O262 1.283 . S
C273 O265 1.304 . S
C273 O267 1.272 . S
C274 O266 1.311 . S
C274 O268 1.231 . S
O275 Zn257 1.953 . S
O275 C269 1.298 . S
C276 C277 1.369 . S
C276 C278 1.419 . S
C276 H280 0.930 . S
C277 C276 1.369 . S
C277 C286 1.429 . S
C278 C276 1.419 . S
C278 C279 1.363 . S
C278 H281 0.929 . S
C279 C278 1.363 . S
C279 C285 1.428 . S
H280 C276 0.930 . S
H281 C278 0.929 . S
S282 N283 1.613 . S
S282 N284 1.610 . S
N283 S282 1.613 . S
N283 C286 1.350 . S
N284 S282 1.610 . S
N284 C285 1.351 . S
C285 C279 1.428 . S
C285 N284 1.351 . S
C285 C286 1.434 . S
C286 C277 1.429 . S
C286 N283 1.350 . S
C286 C285 1.434 . S
C287 C288 1.369 . S
C287 C289 1.419 . S
C287 H291 0.930 . S
C288 C287 1.369 . S
C288 C297 1.429 1_565 S
C289 C287 1.419 . S
C289 C290 1.363 . S
C289 H292 0.929 . S
C290 C289 1.363 . S
C290 C296 1.428 1_565 S
H291 C287 0.930 . S
H292 C289 0.929 . S
S293 N294 1.613 . S
S293 N295 1.610 . S
N294 S293 1.613 . S
N294 C297 1.350 . S
N295 S293 1.610 . S
N295 C296 1.351 . S
C296 C290 1.428 1_545 S
C296 N295 1.351 . S
C296 C297 1.434 . S
C297 C288 1.429 1_545 S
C297 N294 1.350 . S
C297 C296 1.434 . S
C298 C299 1.369 . S
C298 C300 1.419 . S
C298 H302 0.930 . S
C299 C298 1.369 . S
C299 C308 1.429 1_554 S
C300 C298 1.419 . S
C300 C301 1.363 . S
C300 H303 0.929 . S
C301 C300 1.363 . S
C301 C307 1.428 1_554 S
H302 C298 0.930 . S
H303 C300 0.929 . S
S304 N305 1.613 . S
S304 N306 1.610 . S
N305 S304 1.613 . S
N305 C308 1.350 . S
N306 S304 1.610 . S
N306 C307 1.351 . S
C307 C301 1.428 1_556 S
C307 N306 1.351 . S
C307 C308 1.434 . S
C308 C299 1.429 1_556 S
C308 N305 1.350 . S
C308 C307 1.434 . S
C309 C310 1.369 . S
C309 C311 1.419 . S
C309 H313 0.930 . S
C310 C309 1.369 . S
C310 C319 1.429 1_545 S
C311 C309 1.419 . S
C311 C312 1.363 . S
C311 H314 0.929 . S
C312 C311 1.363 . S
C312 C318 1.428 1_545 S
H313 C309 0.930 . S
H314 C311 0.929 . S
S315 N316 1.613 . S
S315 N317 1.610 . S
N316 S315 1.613 . S
N316 C319 1.350 . S
N317 S315 1.610 . S
N317 C318 1.351 . S
C318 C312 1.428 1_565 S
C318 N317 1.351 . S
C318 C319 1.434 . S
C319 C310 1.429 1_565 S
C319 N316 1.350 . S
C319 C318 1.434 . S
C320 C321 1.369 . S
C320 C322 1.419 . S
C320 H324 0.930 . S
C321 C320 1.369 . S
C321 C330 1.429 . S
C322 C320 1.419 . S
C322 C323 1.363 . S
C322 H325 0.929 . S
C323 C322 1.363 . S
C323 C329 1.428 . S
H324 C320 0.930 . S
H325 C322 0.929 . S
S326 N327 1.613 . S
S326 N328 1.610 . S
N327 S326 1.613 . S
N327 C330 1.350 . S
N328 S326 1.610 . S
N328 C329 1.351 . S
C329 C323 1.428 . S
C329 N328 1.351 . S
C329 C330 1.434 . S
C330 C321 1.429 . S
C330 N327 1.350 . S
C330 C329 1.434 . S
C331 C332 1.369 . S
C331 C333 1.419 . S
C331 H335 0.930 . S
C332 C331 1.369 . S
C332 C341 1.429 . S
C333 C331 1.419 . S
C333 C334 1.363 . S
C333 H336 0.929 . S
C334 C333 1.363 . S
C334 C340 1.428 . S
H335 C331 0.930 . S
H336 C333 0.929 . S
S337 N338 1.613 . S
S337 N339 1.610 . S
N338 S337 1.613 . S
N338 C341 1.350 . S
N339 S337 1.610 . S
N339 C340 1.351 . S
C340 C334 1.428 . S
C340 N339 1.351 . S
C340 C341 1.434 . S
C341 C332 1.429 . S
C341 N338 1.350 . S
C341 C340 1.434 . S
C342 C343 1.369 . S
C342 C344 1.419 . S
C342 H346 0.930 . S
C343 C342 1.369 . S
C343 C352 1.429 . S
C344 C342 1.419 . S
C344 C345 1.363 . S
C344 H347 0.929 . S
C345 C344 1.363 . S
C345 C351 1.428 . S
H346 C342 0.930 . S
H347 C344 0.929 . S
S348 N349 1.613 . S
S348 N350 1.610 . S
N349 S348 1.613 . S
N349 C352 1.350 . S
N350 S348 1.610 . S
N350 C351 1.351 . S
C351 C345 1.428 . S
C351 N350 1.351 . S
C351 C352 1.434 . S
C352 C343 1.429 . S
C352 N349 1.350 . S
C352 C351 1.434 . S
C353 C354 1.369 . S
C353 C355 1.419 . S
C353 H357 0.930 . S
C354 C353 1.369 . S
C354 C363 1.429 . S
C355 C353 1.419 . S
C355 C356 1.363 . S
C355 H358 0.929 . S
C356 C355 1.363 . S
C356 C362 1.428 . S
H357 C353 0.930 . S
H358 C355 0.929 . S
S359 N360 1.613 . S
S359 N361 1.610 . S
N360 S359 1.613 . S
N360 C363 1.350 . S
N361 S359 1.610 . S
N361 C362 1.351 . S
C362 C356 1.428 . S
C362 N361 1.351 . S
C362 C363 1.434 . S
C363 C354 1.429 . S
C363 N360 1.350 . S
C363 C362 1.434 . S
C364 C365 1.369 . S
C364 C366 1.419 . S
C364 H368 0.930 . S
C365 C364 1.369 . S
C365 C374 1.429 . S
C366 C364 1.419 . S
C366 C367 1.363 . S
C366 H369 0.929 . S
C367 C366 1.363 . S
C367 C373 1.428 . S
H368 C364 0.930 . S
H369 C366 0.929 . S
S370 N371 1.613 . S
S370 N372 1.610 . S
N371 S370 1.613 . S
N371 C374 1.350 . S
N372 S370 1.610 . S
N372 C373 1.351 . S
C373 C367 1.428 . S
C373 N372 1.351 . S
C373 C374 1.434 . S
C374 C365 1.429 . S
C374 N371 1.350 . S
C374 C373 1.434 . S
C375 C376 1.369 . S
C375 C377 1.419 . S
C375 H379 0.930 . S
C376 C375 1.369 . S
C376 C385 1.429 . S
C377 C375 1.419 . S
C377 C378 1.363 . S
C377 H380 0.929 . S
C378 C377 1.363 . S
C378 C384 1.428 . S
H379 C375 0.930 . S
H380 C377 0.929 . S
S381 N382 1.613 . S
S381 N383 1.610 . S
N382 S381 1.613 . S
N382 C385 1.350 . S
N383 S381 1.610 . S
N383 C384 1.351 . S
C384 C378 1.428 . S
C384 N383 1.351 . S
C384 C385 1.434 . S
C385 C376 1.429 . S
C385 N382 1.350 . S
C385 C384 1.434 . S
C386 C387 1.369 . S
C386 C388 1.419 . S
C386 H390 0.930 . S
C387 C386 1.369 . S
C387 C396 1.429 . S
C388 C386 1.419 . S
C388 C389 1.363 . S
C388 H391 0.929 . S
C389 C388 1.363 . S
C389 C395 1.428 . S
H390 C386 0.930 . S
H391 C388 0.929 . S
S392 N393 1.613 . S
S392 N394 1.610 1_455 S
N393 S392 1.613 . S
N393 C396 1.350 1_455 S
N394 S392 1.610 1_655 S
N394 C395 1.351 . S
C395 C389 1.428 . S
C395 N394 1.351 . S
C395 C396 1.434 . S
C396 C387 1.429 . S
C396 N393 1.350 1_655 S
C396 C395 1.434 . S
C397 C398 1.369 . S
C397 C399 1.419 . S
C397 H401 0.930 . S
C398 C397 1.369 . S
C398 C407 1.429 . S
C399 C397 1.419 . S
C399 C400 1.363 . S
C399 H402 0.929 . S
C400 C399 1.363 . S
C400 C406 1.428 . S
H401 C397 0.930 . S
H402 C399 0.929 . S
S403 N404 1.613 . S
S403 N405 1.610 . S
N404 S403 1.613 . S
N404 C407 1.350 . S
N405 S403 1.610 . S
N405 C406 1.351 . S
C406 C400 1.428 . S
C406 N405 1.351 . S
C406 C407 1.434 . S
C407 C398 1.429 . S
C407 N404 1.350 . S
C407 C406 1.434 . S
C408 C409 1.369 . S
C408 C410 1.419 . S
C408 H412 0.930 . S
C409 C408 1.369 . S
C409 C418 1.429 . S
C410 C408 1.419 . S
C410 C411 1.363 . S
C410 H413 0.929 . S
C411 C410 1.363 . S
C411 C417 1.428 . S
H412 C408 0.930 . S
H413 C410 0.929 . S
S414 N415 1.613 . S
S414 N416 1.610 . S
N415 S414 1.613 . S
N415 C418 1.350 . S
N416 S414 1.610 . S
N416 C417 1.351 . S
C417 C411 1.428 . S
C417 N416 1.351 . S
C417 C418 1.434 . S
C418 C409 1.429 . S
C418 N415 1.350 . S
C418 C417 1.434 . S
C419 C420 1.369 . S
C419 C421 1.419 . S
C419 H423 0.930 . S
C420 C419 1.369 . S
C420 C429 1.429 . S
C421 C419 1.419 . S
C421 C422 1.363 . S
C421 H424 0.929 . S
C422 C421 1.363 . S
C422 C428 1.428 . S
H423 C419 0.930 . S
H424 C421 0.929 . S
S425 N426 1.613 . S
S425 N427 1.610 . S
N426 S425 1.613 . S
N426 C429 1.350 . S
N427 S425 1.610 . S
N427 C428 1.351 . S
C428 C422 1.428 . S
C428 N427 1.351 . S
C428 C429 1.434 . S
C429 C420 1.429 . S
C429 N426 1.350 . S
C429 C428 1.434 . S
C430 C431 1.369 . S
C430 C432 1.419 . S
C430 H434 0.930 . S
C431 C430 1.369 . S
C431 C440 1.429 . S
C432 C430 1.419 . S
C432 C433 1.363 . S
C432 H435 0.929 . S
C433 C432 1.363 . S
C433 C439 1.428 . S
H434 C430 0.930 . S
H435 C432 0.929 . S
S436 N437 1.613 . S
S436 N438 1.610 . S
N437 S436 1.613 . S
N437 C440 1.350 . S
N438 S436 1.610 . S
N438 C439 1.351 . S
C439 C433 1.428 . S
C439 N438 1.351 . S
C439 C440 1.434 . S
C440 C431 1.429 . S
C440 N437 1.350 . S
C440 C439 1.434 . S
C441 C442 1.369 . S
C441 C443 1.419 1_554 S
C441 H445 0.930 . S
C442 C441 1.369 . S
C442 C451 1.429 . S
C443 C441 1.419 1_556 S
C443 C444 1.363 . S
C443 H446 0.929 . S
C444 C443 1.363 . S
C444 C450 1.428 1_556 S
H445 C441 0.930 . S
H446 C443 0.929 . S
S447 N448 1.613 . S
S447 N449 1.610 . S
N448 S447 1.613 . S
N448 C451 1.350 . S
N449 S447 1.610 . S
N449 C450 1.351 . S
C450 C444 1.428 1_554 S
C450 N449 1.351 . S
C450 C451 1.434 . S
C451 C442 1.429 . S
C451 N448 1.350 . S
C451 C450 1.434 . S
C452 C453 1.369 . S
C452 C454 1.419 . S
C452 H456 0.930 . S
C453 C452 1.369 . S
C453 C462 1.429 . S
C454 C452 1.419 . S
C454 C455 1.363 . S
C454 H457 0.929 . S
C455 C454 1.363 . S
C455 C461 1.428 . S
H456 C452 0.930 . S
H457 C454 0.929 . S
S458 N459 1.613 . S
S458 N460 1.610 . S
N459 S458 1.613 . S
N459 C462 1.350 . S
N460 S458 1.610 . S
N460 C461 1.351 . S
C461 C455 1.428 . S
C461 N460 1.351 . S
C461 C462 1.434 . S
C462 C453 1.429 . S
C462 N459 1.350 . S
C462 C461 1.434 . S
C463 C464 1.369 . S
C463 C465 1.419 1_554 S
C463 H467 0.930 . S
C464 C463 1.369 . S
C464 C473 1.429 1_554 S
C465 C463 1.419 1_556 S
C465 C466 1.363 . S
C465 H468 0.929 . S
C466 C465 1.363 . S
C466 C472 1.428 . S
H467 C463 0.930 . S
H468 C465 0.929 . S
S469 N470 1.613 . S
S469 N471 1.610 . S
N470 S469 1.613 . S
N470 C473 1.350 . S
N471 S469 1.610 . S
N471 C472 1.351 . S
C472 C466 1.428 . S
C472 N471 1.351 . S
C472 C473 1.434 . S
C473 C464 1.429 1_556 S
C473 N470 1.350 . S
C473 C472 1.434 . S
C474 C475 1.369 . S
C474 C476 1.419 . S
C474 H478 0.930 . S
C475 C474 1.369 . S
C475 C484 1.429 . S
C476 C474 1.419 . S
C476 C477 1.363 . S
C476 H479 0.929 . S
C477 C476 1.363 . S
C477 C483 1.428 . S
H478 C474 0.930 . S
H479 C476 0.929 . S
S480 N481 1.613 . S
S480 N482 1.610 . S
N481 S480 1.613 . S
N481 C484 1.350 . S
N482 S480 1.610 . S
N482 C483 1.351 . S
C483 C477 1.428 . S
C483 N482 1.351 . S
C483 C484 1.434 . S
C484 C475 1.429 . S
C484 N481 1.350 . S
C484 C483 1.434 . S
C485 C486 1.369 . S
C485 C487 1.419 . S
C485 H489 0.930 . S
C486 C485 1.369 . S
C486 C495 1.429 . S
C487 C485 1.419 . S
C487 C488 1.363 . S
C487 H490 0.929 . S
C488 C487 1.363 . S
C488 C494 1.428 . S
H489 C485 0.930 . S
H490 C487 0.929 . S
S491 N492 1.613 . S
S491 N493 1.610 . S
N492 S491 1.613 . S
N492 C495 1.350 . S
N493 S491 1.610 . S
N493 C494 1.351 . S
C494 C488 1.428 . S
C494 N493 1.351 . S
C494 C495 1.434 . S
C495 C486 1.429 . S
C495 N492 1.350 . S
C495 C494 1.434 . S
C496 C497 1.369 . S
C496 C498 1.419 . S
C496 H500 0.930 . S
C497 C496 1.369 . S
C497 C506 1.429 . S
C498 C496 1.419 . S
C498 C499 1.363 . S
C498 H501 0.929 . S
C499 C498 1.363 . S
C499 C505 1.428 . S
H500 C496 0.930 . S
H501 C498 0.929 . S
S502 N503 1.613 . S
S502 N504 1.610 . S
N503 S502 1.613 . S
N503 C506 1.350 . S
N504 S502 1.610 . S
N504 C505 1.351 . S
C505 C499 1.428 . S
C505 N504 1.351 . S
C505 C506 1.434 . S
C506 C497 1.429 . S
C506 N503 1.350 . S
C506 C505 1.434 . S
C507 C508 1.369 . S
C507 C509 1.419 . S
C507 H511 0.930 . S
C508 C507 1.369 . S
C508 C517 1.429 . S
C509 C507 1.419 . S
C509 C510 1.363 1_545 S
C509 H512 0.929 1_545 S
C510 C509 1.363 1_565 S
C510 C516 1.428 1_565 S
H511 C507 0.930 . S
H512 C509 0.929 1_565 S
S513 N514 1.613 . S
S513 N515 1.610 . S
N514 S513 1.613 . S
N514 C517 1.350 . S
N515 S513 1.610 . S
N515 C516 1.351 . S
C516 C510 1.428 1_545 S
C516 N515 1.351 . S
C516 C517 1.434 . S
C517 C508 1.429 . S
C517 N514 1.350 . S
C517 C516 1.434 . S
C518 C519 1.369 . S
C518 C520 1.419 . S
C518 H522 0.930 . S
C519 C518 1.369 . S
C519 C528 1.429 . S
C520 C518 1.419 . S
C520 C521 1.363 . S
C520 H523 0.929 . S
C521 C520 1.363 . S
C521 C527 1.428 . S
H522 C518 0.930 . S
H523 C520 0.929 . S
S524 N525 1.613 . S
S524 N526 1.610 . S
N525 S524 1.613 . S
N525 C528 1.350 . S
N526 S524 1.610 . S
N526 C527 1.351 . S
C527 C521 1.428 . S
C527 N526 1.351 . S
C527 C528 1.434 . S
C528 C519 1.429 . S
C528 N525 1.350 . S
C528 C527 1.434 . S
C529 C530 1.369 1_565 S
C529 C531 1.419 . S
C529 H533 0.930 1_565 S
C530 C529 1.369 1_545 S
C530 C539 1.429 1_545 S
C531 C529 1.419 . S
C531 C532 1.363 . S
C531 H534 0.929 . S
C532 C531 1.363 . S
C532 C538 1.428 . S
H533 C529 0.930 1_545 S
H534 C531 0.929 . S
S535 N536 1.613 . S
S535 N537 1.610 . S
N536 S535 1.613 . S
N536 C539 1.350 . S
N537 S535 1.610 . S
N537 C538 1.351 . S
C538 C532 1.428 . S
C538 N537 1.351 . S
C538 C539 1.434 . S
C539 C530 1.429 1_565 S
C539 N536 1.350 . S
C539 C538 1.434 . S
C540 C541 1.369 . S
C540 C542 1.419 . S
C540 H544 0.930 . S
C541 C540 1.369 . S
C541 C550 1.429 . S
C542 C540 1.419 . S
C542 C543 1.363 . S
C542 H545 0.929 . S
C543 C542 1.363 . S
C543 C549 1.428 . S
H544 C540 0.930 . S
H545 C542 0.929 . S
S546 N547 1.613 . S
S546 N548 1.610 . S
N547 S546 1.613 . S
N547 C550 1.350 . S
N548 S546 1.610 . S
N548 C549 1.351 . S
C549 C543 1.428 . S
C549 N548 1.351 . S
C549 C550 1.434 . S
C550 C541 1.429 . S
C550 N547 1.350 . S
C550 C549 1.434 . S
C551 C552 1.369 . S
C551 C553 1.419 . S
C551 H555 0.930 . S
C552 C551 1.369 . S
C552 C561 1.429 . S
C553 C551 1.419 . S
C553 C554 1.363 . S
C553 H556 0.929 . S
C554 C553 1.363 . S
C554 C560 1.428 . S
H555 C551 0.930 . S
H556 C553 0.929 . S
S557 N558 1.613 1_554 S
S557 N559 1.610 . S
N558 S557 1.613 1_556 S
N558 C561 1.350 . S
N559 S557 1.610 . S
N559 C560 1.351 1_554 S
C560 C554 1.428 . S
C560 N559 1.351 1_556 S
C560 C561 1.434 . S
C561 C552 1.429 . S
C561 N558 1.350 . S
C561 C560 1.434 . S
C562 C563 1.369 . S
C562 C564 1.419 . S
C562 H566 0.930 . S
C563 C562 1.369 . S
C563 C572 1.429 . S
C564 C562 1.419 . S
C564 C565 1.363 . S
C564 H567 0.929 . S
C565 C564 1.363 . S
C565 C571 1.428 . S
H566 C562 0.930 . S
H567 C564 0.929 . S
S568 N569 1.613 . S
S568 N570 1.610 . S
N569 S568 1.613 . S
N569 C572 1.350 . S
N570 S568 1.610 . S
N570 C571 1.351 . S
C571 C565 1.428 . S
C571 N570 1.351 . S
C571 C572 1.434 . S
C572 C563 1.429 . S
C572 N569 1.350 . S
C572 C571 1.434 . S
C573 C574 1.369 . S
C573 C575 1.419 . S
C573 H577 0.930 . S
C574 C573 1.369 . S
C574 C583 1.429 . S
C575 C573 1.419 . S
C575 C576 1.363 . S
C575 H578 0.929 . S
C576 C575 1.363 . S
C576 C582 1.428 . S
H577 C573 0.930 . S
H578 C575 0.929 . S
S579 N580 1.613 . S
S579 N581 1.610 . S
N580 S579 1.613 . S
N580 C583 1.350 . S
N581 S579 1.610 . S
N581 C582 1.351 . S
C582 C576 1.428 . S
C582 N581 1.351 . S
C582 C583 1.434 . S
C583 C574 1.429 . S
C583 N580 1.350 . S
C583 C582 1.434 . S
C584 C585 1.369 . S
C584 C586 1.419 . S
C584 H588 0.930 . S
C585 C584 1.369 . S
C585 C594 1.429 . S
C586 C584 1.419 . S
C586 C587 1.363 . S
C586 H589 0.929 . S
C587 C586 1.363 . S
C587 C593 1.428 . S
H588 C584 0.930 . S
H589 C586 0.929 . S
S590 N591 1.613 . S
S590 N592 1.610 . S
N591 S590 1.613 . S
N591 C594 1.350 . S
N592 S590 1.610 . S
N592 C593 1.351 . S
C593 C587 1.428 . S
C593 N592 1.351 . S
C593 C594 1.434 . S
C594 C585 1.429 . S
C594 N591 1.350 . S
C594 C593 1.434 . S
C595 C596 1.369 . S
C595 C597 1.419 . S
C595 H599 0.930 . S
C596 C595 1.369 . S
C596 C605 1.429 . S
C597 C595 1.419 . S
C597 C598 1.363 . S
C597 H600 0.929 . S
C598 C597 1.363 . S
C598 C604 1.428 . S
H599 C595 0.930 . S
H600 C597 0.929 . S
S601 N602 1.613 . S
S601 N603 1.610 . S
N602 S601 1.613 . S
N602 C605 1.350 . S
N603 S601 1.610 . S
N603 C604 1.351 . S
C604 C598 1.428 . S
C604 N603 1.351 . S
C604 C605 1.434 . S
C605 C596 1.429 . S
C605 N602 1.350 . S
C605 C604 1.434 . S
C606 C607 1.369 . S
C606 C608 1.419 1_455 S
C606 H610 0.930 . S
C607 C606 1.369 . S
C607 C616 1.429 . S
C608 C606 1.419 1_655 S
C608 C609 1.363 . S
C608 H611 0.929 . S
C609 C608 1.363 . S
C609 C615 1.428 1_655 S
H610 C606 0.930 . S
H611 C608 0.929 . S
S612 N613 1.613 . S
S612 N614 1.610 . S
N613 S612 1.613 . S
N613 C616 1.350 . S
N614 S612 1.610 . S
N614 C615 1.351 . S
C615 C609 1.428 1_455 S
C615 N614 1.351 . S
C615 C616 1.434 . S
C616 C607 1.429 . S
C616 N613 1.350 . S
C616 C615 1.434 . S
C617 C618 1.369 . S
C617 C619 1.419 . S
C617 H621 0.930 . S
C618 C617 1.369 . S
C618 C627 1.429 . S
C619 C617 1.419 . S
C619 C620 1.363 . S
C619 H622 0.929 . S
C620 C619 1.363 . S
C620 C626 1.428 . S
H621 C617 0.930 . S
H622 C619 0.929 . S
S623 N624 1.613 . S
S623 N625 1.610 . S
N624 S623 1.613 . S
N624 C627 1.350 . S
N625 S623 1.610 . S
N625 C626 1.351 . S
C626 C620 1.428 . S
C626 N625 1.351 . S
C626 C627 1.434 . S
C627 C618 1.429 . S
C627 N624 1.350 . S
C627 C626 1.434 . S
C628 C629 1.369 . S
C628 C630 1.419 . S
C628 H632 0.930 . S
C629 C628 1.369 . S
C629 C638 1.429 . S
C630 C628 1.419 . S
C630 C631 1.363 . S
C630 H633 0.929 . S
C631 C630 1.363 . S
C631 C637 1.428 . S
H632 C628 0.930 . S
H633 C630 0.929 . S
S634 N635 1.613 . S
S634 N636 1.610 . S
N635 S634 1.613 . S
N635 C638 1.350 . S
N636 S634 1.610 . S
N636 C637 1.351 . S
C637 C631 1.428 . S
C637 N636 1.351 . S
C637 C638 1.434 . S
C638 C629 1.429 . S
C638 N635 1.350 . S
C638 C637 1.434 . S
C639 C640 1.369 . S
C639 C641 1.419 . S
C639 H643 0.930 . S
C640 C639 1.369 . S
C640 C649 1.429 . S
C641 C639 1.419 . S
C641 C642 1.363 . S
C641 H644 0.929 . S
C642 C641 1.363 . S
C642 C648 1.428 . S
H643 C639 0.930 . S
H644 C641 0.929 . S
S645 N646 1.613 . S
S645 N647 1.610 . S
N646 S645 1.613 . S
N646 C649 1.350 . S
N647 S645 1.610 . S
N647 C648 1.351 . S
C648 C642 1.428 . S
C648 N647 1.351 . S
C648 C649 1.434 . S
C649 C640 1.429 . S
C649 N646 1.350 . S
C649 C648 1.434 . S
C650 C651 1.369 . S
C650 C652 1.419 . S
C650 H654 0.930 . S
C651 C650 1.369 . S
C651 C660 1.429 . S
C652 C650 1.419 . S
C652 C653 1.363 . S
C652 H655 0.929 . S
C653 C652 1.363 . S
C653 C659 1.428 . S
H654 C650 0.930 . S
H655 C652 0.929 . S
S656 N657 1.613 . S
S656 N658 1.610 . S
N657 S656 1.613 . S
N657 C660 1.350 . S
N658 S656 1.610 . S
N658 C659 1.351 . S
C659 C653 1.428 . S
C659 N658 1.351 . S
C659 C660 1.434 . S
C660 C651 1.429 . S
C660 N657 1.350 . S
C660 C659 1.434 . S
C661 C662 1.369 . S
C661 C663 1.419 . S
C661 H665 0.930 . S
C662 C661 1.369 . S
C662 C671 1.429 . S
C663 C661 1.419 . S
C663 C664 1.344 1_655 S
C663 H666 0.929 . S
C664 C663 1.344 1_455 S
C664 C670 1.433 . S
H665 C661 0.930 . S
H666 C663 0.929 . S
S667 N668 1.613 1_455 S
S667 N669 1.610 1_565 S
N668 S667 1.613 1_655 S
N668 C671 1.350 1_565 S
N669 S667 1.610 1_545 S
N669 C670 1.351 . S
C670 C664 1.433 . S
C670 N669 1.351 . S
C670 C671 1.434 1_455 S
C671 C662 1.429 . S
C671 N668 1.350 1_545 S
C671 C670 1.434 1_655 S
C277 C19 1.478 . S
C279 C272 1.503 . S
C288 C223 1.717 . S
C290 C40 1.788 . S
C299 C63 1.606 . S
C301 C201 1.626 . S
C310 C88 1.587 . S
C312 C247 1.579 . S
C321 C108 1.543 . S
C323 C249 1.573 . S
C332 C132 1.665 . S
C334 C270 1.650 . S
C343 C228 1.672 . S
C345 C155 1.597 . S
C354 C180 1.457 . S
C356 C203 1.458 . S
C365 C86 1.443 . S
C367 C113 1.520 . S
C376 C17 1.550 . S
C378 C134 1.515 . S
C387 C42 1.573 . S
C389 C157 1.582 . S
C398 C178 1.525 . S
C400 C65 1.527 . S
C409 C18 1.186 . S
C411 C200 1.182 . S
C420 C44 1.139 . S
C422 C246 1.240 . S
C431 C273 1.130 . S
C433 C67 1.087 . S
C442 C87 1.136 . S
C444 C224 1.130 . S
C453 C111 1.188 . S
C455 C225 1.270 . S
C464 C204 1.275 . S
C466 C136 1.166 . S
C475 C250 1.219 . S
C477 C159 1.174 . S
C486 C269 1.190 . S
C488 C179 1.198 . S
C497 C16 1.396 . S
C499 C90 1.332 . S
C508 C21 1.202 . S
C510 C43 1.313 . S
C519 C41 1.069 . S
C521 C66 1.039 . S
C530 C85 1.128 . S
C532 C64 1.139 . S
C541 C133 1.131 . S
C543 C110 1.127 . S
C552 C135 1.096 . S
C554 C156 1.127 . S
C563 C158 1.294 . S
C565 C182 1.253 . S
C574 C112 1.212 . S
C576 C177 1.211 . S
C585 C202 1.153 . S
C587 C89 1.125 . S
C596 C131 1.257 . S
C598 C226 1.176 . S
C607 C205 1.266 . S
C609 C154 1.379 . S
C618 C251 1.155 . S
C620 C181 1.212 . S
C629 C109 1.222 . S
C631 C271 1.226 . S
C640 C274 1.170 . S
C642 C39 1.218 . S
C651 C62 1.138 . S
C653 C227 1.131 . S
C662 C248 1.037 . S
C664 C20 1.022 . S
