# Generated by pormake.
# Topology pcb, (4)-cn, num edge types: 1
# Building blocks:
#     Node 0, Type 0, BuildingBlock: NAHDIM_clean_sbu_0, # of connection points: 4
#     Node 1, Type 0, BuildingBlock: NAHDIM_clean_sbu_0, # of connection points: 4
#     Node 2, Type 0, BuildingBlock: NAHDIM_clean_sbu_0, # of connection points: 4
#     Node 3, Type 0, BuildingBlock: NAHDIM_clean_sbu_0, # of connection points: 4
#     Node 4, Type 0, BuildingBlock: NAHDIM_clean_sbu_0, # of connection points: 4
#     Node 5, Type 0, BuildingBlock: NAHDIM_clean_sbu_0, # of connection points: 4
#     Node 6, Type 0, BuildingBlock: NAHDIM_clean_sbu_0, # of connection points: 4
#     Node 7, Type 0, BuildingBlock: NAHDIM_clean_sbu_0, # of connection points: 4
#     Node 8, Type 0, BuildingBlock: NAHDIM_clean_sbu_0, # of connection points: 4
#     Node 9, Type 0, BuildingBlock: NAHDIM_clean_sbu_0, # of connection points: 4
#     Node 10, Type 0, BuildingBlock: NAHDIM_clean_sbu_0, # of connection points: 4
#     Node 11, Type 0, BuildingBlock: NAHDIM_clean_sbu_0, # of connection points: 4
#     Node 12, Type 0, BuildingBlock: NAHDIM_clean_sbu_0, # of connection points: 4
#     Node 13, Type 0, BuildingBlock: NAHDIM_clean_sbu_0, # of connection points: 4
#     Node 14, Type 0, BuildingBlock: NAHDIM_clean_sbu_0, # of connection points: 4
#     Node 15, Type 0, BuildingBlock: NAHDIM_clean_sbu_0, # of connection points: 4
#     Edge 16, Type (0, 0), BuildingBlock: KIFKEQ_clean_linker_1, # of connection points: 2
#     Edge 17, Type (0, 0), BuildingBlock: KIFKEQ_clean_linker_1, # of connection points: 2
#     Edge 18, Type (0, 0), BuildingBlock: KIFKEQ_clean_linker_1, # of connection points: 2
#     Edge 19, Type (0, 0), BuildingBlock: KIFKEQ_clean_linker_1, # of connection points: 2
#     Edge 20, Type (0, 0), BuildingBlock: KIFKEQ_clean_linker_1, # of connection points: 2
#     Edge 21, Type (0, 0), BuildingBlock: KIFKEQ_clean_linker_1, # of connection points: 2
#     Edge 22, Type (0, 0), BuildingBlock: KIFKEQ_clean_linker_1, # of connection points: 2
#     Edge 23, Type (0, 0), BuildingBlock: KIFKEQ_clean_linker_1, # of connection points: 2
#     Edge 24, Type (0, 0), BuildingBlock: KIFKEQ_clean_linker_1, # of connection points: 2
#     Edge 25, Type (0, 0), BuildingBlock: KIFKEQ_clean_linker_1, # of connection points: 2
#     Edge 26, Type (0, 0), BuildingBlock: KIFKEQ_clean_linker_1, # of connection points: 2
#     Edge 27, Type (0, 0), BuildingBlock: KIFKEQ_clean_linker_1, # of connection points: 2
#     Edge 28, Type (0, 0), BuildingBlock: KIFKEQ_clean_linker_1, # of connection points: 2
#     Edge 29, Type (0, 0), BuildingBlock: KIFKEQ_clean_linker_1, # of connection points: 2
#     Edge 30, Type (0, 0), BuildingBlock: KIFKEQ_clean_linker_1, # of connection points: 2
#     Edge 31, Type (0, 0), BuildingBlock: KIFKEQ_clean_linker_1, # of connection points: 2
#     Edge 32, Type (0, 0), BuildingBlock: KIFKEQ_clean_linker_1, # of connection points: 2
#     Edge 33, Type (0, 0), BuildingBlock: KIFKEQ_clean_linker_1, # of connection points: 2
#     Edge 34, Type (0, 0), BuildingBlock: KIFKEQ_clean_linker_1, # of connection points: 2
#     Edge 35, Type (0, 0), BuildingBlock: KIFKEQ_clean_linker_1, # of connection points: 2
#     Edge 36, Type (0, 0), BuildingBlock: KIFKEQ_clean_linker_1, # of connection points: 2
#     Edge 37, Type (0, 0), BuildingBlock: KIFKEQ_clean_linker_1, # of connection points: 2
#     Edge 38, Type (0, 0), BuildingBlock: KIFKEQ_clean_linker_1, # of connection points: 2
#     Edge 39, Type (0, 0), BuildingBlock: KIFKEQ_clean_linker_1, # of connection points: 2
#     Edge 40, Type (0, 0), BuildingBlock: KIFKEQ_clean_linker_1, # of connection points: 2
#     Edge 41, Type (0, 0), BuildingBlock: KIFKEQ_clean_linker_1, # of connection points: 2
#     Edge 42, Type (0, 0), BuildingBlock: KIFKEQ_clean_linker_1, # of connection points: 2
#     Edge 43, Type (0, 0), BuildingBlock: KIFKEQ_clean_linker_1, # of connection points: 2
#     Edge 44, Type (0, 0), BuildingBlock: KIFKEQ_clean_linker_1, # of connection points: 2
#     Edge 45, Type (0, 0), BuildingBlock: KIFKEQ_clean_linker_1, # of connection points: 2
#     Edge 46, Type (0, 0), BuildingBlock: KIFKEQ_clean_linker_1, # of connection points: 2
#     Edge 47, Type (0, 0), BuildingBlock: KIFKEQ_clean_linker_1, # of connection points: 2
# Relax obj value: 0.189
# Max RMSD: 0.096
# Mean RMSD: 0.075
data_MOF--net-pcb--node1-NAHDIM_clean_sbu_0--edge1-KIFKEQ_clean_linker_1
_symmetry_space_group_name_H-M    P1
_symmetry_Int_Tables_number       1
_symmetry_cell_setting            triclinic
loop_
_symmetry_equiv_pos_as_xyz
'x, y, z'
_cell_length_a     45.409299
_cell_length_b     47.893177
_cell_length_c     50.237368
_cell_angle_alpha  90.470853
_cell_angle_beta   90.857863
_cell_angle_gamma 92.355228
loop_
_atom_site_label
_atom_site_type_symbol
_atom_site_fract_x
_atom_site_fract_y
_atom_site_fract_z
_atom_type_partial_charge
C0 C 0.18168 0.19548 0.17517 0.0
O1 O 0.16546 0.17481 0.18506 0.0
O2 O 0.1624 0.13506 0.14066 0.0
Zn3 Zn 0.15137 0.17404 0.13121 0.0
O4 O 0.11016 0.18071 0.14307 0.0
C5 C 0.13506 0.16055 0.07896 0.0
O6 O 0.11635 0.14504 0.09273 0.0
O7 O 0.17951 0.20056 0.15046 0.0
C8 C 0.09338 0.19679 0.13051 0.0
O9 O 0.10341 0.21021 0.10959 0.0
C10 C 0.14392 0.11631 0.14836 0.0
O11 O 0.1161 0.12229 0.1507 0.0
O12 O 0.15356 0.17669 0.09139 0.0
C13 C 0.79136 0.16283 0.18674 0.0
O14 O 0.80634 0.14083 0.19285 0.0
O15 O 0.85934 0.17215 0.14062 0.0
Zn16 Zn 0.81851 0.15458 0.13661 0.0
O17 O 0.82128 0.11347 0.14285 0.0
C18 C 0.82262 0.15193 0.08157 0.0
O19 O 0.84788 0.14226 0.08962 0.0
O20 O 0.79235 0.17216 0.16315 0.0
C21 C 0.80017 0.09565 0.13895 0.0
O22 O 0.77434 0.10415 0.13107 0.0
C23 C 0.87754 0.16164 0.15676 0.0
O24 O 0.86884 0.14026 0.17129 0.0
O25 O 0.80449 0.1596 0.09893 0.0
C26 C 0.81326 0.78261 0.16991 0.0
O27 O 0.83162 0.77157 0.15323 0.0
O28 O 0.82787 0.87294 0.15181 0.0
Zn29 Zn 0.8375 0.83255 0.14777 0.0
O30 O 0.8807 0.82836 0.15641 0.0
C31 C 0.8119 0.83238 0.09445 0.0
O32 O 0.79802 0.85411 0.10311 0.0
O33 O 0.81233 0.80902 0.17164 0.0
C34 C 0.89889 0.82587 0.1376 0.0
O35 O 0.88903 0.82528 0.11288 0.0
C36 C 0.84379 0.89118 0.1399 0.0
O37 O 0.86603 0.88304 0.12576 0.0
O38 O 0.82905 0.8199 0.11014 0.0
C39 C 0.19112 0.8092 0.17989 0.0
O40 O 0.16753 0.79892 0.16723 0.0
O41 O 0.19414 0.85361 0.11297 0.0
Zn42 Zn 0.17759 0.85722 0.14966 0.0
O43 O 0.13497 0.8443 0.14837 0.0
C44 C 0.19694 0.91544 0.15002 0.0
O45 O 0.21619 0.90688 0.1328 0.0
O46 O 0.19985 0.8343 0.17571 0.0
C47 C 0.11778 0.85164 0.16664 0.0
O48 O 0.12839 0.86726 0.18645 0.0
C49 C 0.19895 0.83027 0.10201 0.0
O50 O 0.19351 0.8071 0.11517 0.0
O51 O 0.17918 0.89769 0.16048 0.0
C52 C 0.19863 0.78606 0.82902 0.0
O53 O 0.17887 0.77598 0.84561 0.0
O54 O 0.14037 0.83168 0.84707 0.0
Zn55 Zn 0.184 0.83656 0.85438 0.0
O56 O 0.19327 0.82665 0.89218 0.0
C57 C 0.19152 0.88753 0.82565 0.0
O58 O 0.18104 0.87157 0.80602 0.0
O59 O 0.20512 0.81211 0.82936 0.0
C60 C 0.21573 0.83709 0.9046 0.0
O61 O 0.23407 0.85418 0.8921 0.0
C62 C 0.1222 0.82289 0.86439 0.0
O63 O 0.13199 0.81616 0.88812 0.0
O64 O 0.19549 0.87682 0.8484 0.0
C65 C 0.17614 0.16557 0.78289 0.0
O66 O 0.16695 0.1424 0.77065 0.0
O67 O 0.09888 0.14768 0.81437 0.0
Zn68 Zn 0.14118 0.14278 0.82495 0.0
O69 O 0.15282 0.10378 0.81632 0.0
C70 C 0.13776 0.13 0.8803 0.0
O71 O 0.1285 0.10558 0.87061 0.0
O72 O 0.16757 0.17037 0.80636 0.0
C73 C 0.17788 0.09514 0.82311 0.0
O74 O 0.19693 0.11238 0.83538 0.0
C75 C 0.08076 0.12675 0.8145 0.0
O76 O 0.09042 0.10203 0.82035 0.0
O77 O 0.14495 0.14947 0.86436 0.0
C78 C 0.77816 0.17996 0.81416 0.0
O79 O 0.78896 0.18924 0.83712 0.0
O80 O 0.84534 0.12972 0.81971 0.0
Zn81 Zn 0.80329 0.12914 0.83132 0.0
O82 O 0.80298 0.14163 0.86951 0.0
C83 C 0.79294 0.0754 0.80769 0.0
O84 O 0.80632 0.08795 0.78779 0.0
O85 O 0.7809 0.15449 0.80775 0.0
C86 C 0.7818 0.13606 0.88506 0.0
O87 O 0.75826 0.12206 0.87588 0.0
C88 C 0.86311 0.15009 0.82551 0.0
O89 O 0.85353 0.17147 0.83893 0.0
O90 O 0.7877 0.08947 0.8285 0.0
C91 C 0.82294 0.79707 0.79733 0.0
O92 O 0.84278 0.81488 0.78776 0.0
O93 O 0.88559 0.81631 0.84471 0.0
Zn94 Zn 0.84211 0.82279 0.84603 0.0
O95 O 0.83401 0.86165 0.83436 0.0
C96 C 0.84151 0.80287 0.89981 0.0
O97 O 0.86425 0.78912 0.89178 0.0
O98 O 0.81929 0.79606 0.8223 0.0
C99 C 0.80795 0.87029 0.83505 0.0
O100 O 0.78658 0.85347 0.84354 0.0
C101 C 0.90347 0.83239 0.83228 0.0
O102 O 0.89329 0.8535 0.81893 0.0
O103 O 0.82827 0.81829 0.88348 0.0
C104 C 0.67898 0.69232 0.6749 0.0
O105 O 0.66651 0.66837 0.68206 0.0
O106 O 0.65694 0.63857 0.63165 0.0
Zn107 Zn 0.64618 0.67879 0.62809 0.0
O108 O 0.60401 0.68291 0.63833 0.0
C109 C 0.67154 0.67894 0.57656 0.0
O110 O 0.68876 0.66113 0.58813 0.0
O111 O 0.67304 0.70197 0.65206 0.0
C112 C 0.58829 0.70205 0.62912 0.0
O113 O 0.60005 0.72043 0.61271 0.0
C114 C 0.64067 0.61993 0.64264 0.0
O115 O 0.61508 0.62663 0.65214 0.0
O116 O 0.65167 0.69012 0.59006 0.0
C117 C 0.28779 0.66573 0.68875 0.0
O118 O 0.299 0.64167 0.6947 0.0
O119 O 0.35425 0.673 0.63505 0.0
Zn120 Zn 0.3135 0.65546 0.63766 0.0
O121 O 0.3178 0.61518 0.64677 0.0
C122 C 0.29162 0.6801 0.58954 0.0
O123 O 0.30213 0.70338 0.60077 0.0
O124 O 0.29092 0.6754 0.66544 0.0
C125 C 0.29698 0.59695 0.64321 0.0
O126 O 0.27135 0.60476 0.6341 0.0
C127 C 0.37065 0.67544 0.65572 0.0
O128 O 0.36013 0.66734 0.67875 0.0
O129 O 0.29342 0.65728 0.60204 0.0
C130 C 0.31718 0.30287 0.69531 0.0
O131 O 0.3389 0.3154 0.70894 0.0
O132 O 0.32764 0.37475 0.65698 0.0
Zn133 Zn 0.34102 0.33565 0.65268 0.0
O134 O 0.3823 0.33425 0.6673 0.0
C135 C 0.32087 0.33213 0.59796 0.0
O136 O 0.29724 0.34333 0.60748 0.0
O137 O 0.31381 0.30843 0.67083 0.0
C138 C 0.40008 0.31745 0.65724 0.0
O139 O 0.39047 0.29983 0.63858 0.0
C140 C 0.34452 0.39374 0.6473 0.0
O141 O 0.36887 0.38655 0.6357 0.0
O142 O 0.34192 0.32668 0.61374 0.0
C143 C 0.69339 0.31271 0.68158 0.0
O144 O 0.67338 0.30341 0.66416 0.0
O145 O 0.68839 0.35101 0.61885 0.0
Zn146 Zn 0.67749 0.36103 0.65633 0.0
O147 O 0.63467 0.35006 0.66143 0.0
C148 C 0.69505 0.41868 0.64549 0.0
O149 O 0.70665 0.4079 0.62414 0.0
O150 O 0.70053 0.33864 0.68213 0.0
C151 C 0.61636 0.3662 0.67169 0.0
O152 O 0.6253 0.39143 0.67949 0.0
C153 C 0.66917 0.35334 0.60045 0.0
O154 O 0.64305 0.36211 0.60653 0.0
O155 O 0.68311 0.40251 0.66251 0.0
C156 C 0.70123 0.27939 0.3292 0.0
O157 O 0.68142 0.26893 0.34555 0.0
O158 O 0.64014 0.32536 0.34097 0.0
Zn159 Zn 0.68284 0.33026 0.35189 0.0
O160 O 0.68699 0.3215 0.39073 0.0
C161 C 0.6776 0.38745 0.3584 0.0
O162 O 0.65641 0.37703 0.37335 0.0
O163 O 0.70651 0.30563 0.32902 0.0
C164 C 0.70728 0.33268 0.40541 0.0
O165 O 0.72766 0.34899 0.39457 0.0
C166 C 0.62148 0.31113 0.35439 0.0
O167 O 0.63039 0.29798 0.37571 0.0
O168 O 0.69405 0.37076 0.34643 0.0
C169 C 0.6773 0.6609 0.28041 0.0
O170 O 0.66879 0.63549 0.27279 0.0
O171 O 0.60486 0.64921 0.32661 0.0
Zn172 Zn 0.64877 0.64615 0.32981 0.0
O173 O 0.657 0.60566 0.32553 0.0
C174 C 0.64889 0.67787 0.3786 0.0
O175 O 0.62714 0.69025 0.36661 0.0
O176 O 0.6705 0.66961 0.30335 0.0
C177 C 0.6815 0.59515 0.33127 0.0
O178 O 0.70379 0.61162 0.33929 0.0
C179 C 0.59055 0.63614 0.3445 0.0
O180 O 0.6052 0.62246 0.36263 0.0
O181 O 0.6619 0.65864 0.36648 0.0
C182 C 0.30203 0.68881 0.3071 0.0
O183 O 0.32994 0.69453 0.3129 0.0
O184 O 0.35331 0.6492 0.34144 0.0
Zn185 Zn 0.30934 0.6457 0.34557 0.0
O186 O 0.30017 0.65931 0.38214 0.0
C187 C 0.3087 0.59096 0.32339 0.0
O188 O 0.32643 0.6038 0.3066 0.0
O189 O 0.28866 0.66853 0.31852 0.0
C190 C 0.27614 0.65312 0.39373 0.0
O191 O 0.25587 0.63737 0.38126 0.0
C192 C 0.36874 0.63196 0.354 0.0
O193 O 0.35544 0.61318 0.36907 0.0
O194 O 0.29709 0.6051 0.34168 0.0
C195 C 0.32233 0.30517 0.29711 0.0
O196 O 0.34528 0.31934 0.28781 0.0
O197 O 0.3862 0.32126 0.33859 0.0
Zn198 Zn 0.34391 0.32987 0.34532 0.0
O199 O 0.33626 0.37009 0.33731 0.0
C200 C 0.35497 0.3304 0.40087 0.0
O201 O 0.37942 0.34296 0.39266 0.0
O202 O 0.31733 0.30602 0.32189 0.0
C203 C 0.32082 0.38469 0.35256 0.0
O204 O 0.30975 0.37345 0.37416 0.0
C205 C 0.4051 0.33963 0.33088 0.0
O206 O 0.39671 0.36503 0.326 0.0
O207 O 0.33558 0.32215 0.38376 0.0
H208 H 0.26929 0.28002 0.30902 0.0
H209 H 0.32937 0.2943 0.24413 0.0
H210 H 0.23526 0.25436 0.27908 0.0
H211 H 0.29564 0.26778 0.21427 0.0
H212 H 0.21392 0.24317 0.16312 0.0
H213 H 0.24799 0.2701 0.19244 0.0
H214 H 0.23117 0.21086 0.25543 0.0
H215 H 0.19659 0.18458 0.22654 0.0
C216 C 0.27535 0.27748 0.28839 0.0
C217 C 0.30205 0.28913 0.27894 0.0
C218 C 0.25589 0.26265 0.27125 0.0
C219 C 0.26279 0.25892 0.2443 0.0
C220 C 0.28951 0.27059 0.23484 0.0
C221 C 0.30892 0.28561 0.25198 0.0
C222 C 0.2175 0.23598 0.18326 0.0
C223 C 0.20248 0.21185 0.19258 0.0
C224 C 0.23714 0.25129 0.19999 0.0
C225 C 0.24222 0.24266 0.2263 0.0
C226 C 0.22735 0.21838 0.23545 0.0
C227 C 0.20762 0.20322 0.21883 0.0
H228 H 0.69462 0.22258 0.32373 0.0
H229 H 0.73941 0.29522 0.29017 0.0
H230 H 0.71516 0.19323 0.28922 0.0
H231 H 0.76006 0.26585 0.25599 0.0
H232 H 0.76275 0.21158 0.18166 0.0
H233 H 0.74078 0.2388 0.21679 0.0
H234 H 0.76349 0.17635 0.27428 0.0
H235 H 0.78526 0.14886 0.23908 0.0
C236 C 0.70901 0.23225 0.30914 0.0
C237 C 0.71528 0.26124 0.30961 0.0
C238 C 0.72081 0.21542 0.28945 0.0
C239 C 0.73896 0.22731 0.26979 0.0
C240 C 0.74571 0.25619 0.27061 0.0
C241 C 0.73405 0.27297 0.29033 0.0
C242 C 0.76287 0.20351 0.20173 0.0
C243 C 0.77591 0.17814 0.20761 0.0
C244 C 0.75046 0.21921 0.22188 0.0
C245 C 0.75072 0.20982 0.2483 0.0
C246 C 0.76288 0.18403 0.25406 0.0
C247 C 0.77543 0.16835 0.23391 0.0
H248 H 0.76845 0.79891 0.20124 0.0
H249 H 0.8122 0.72569 0.17404 0.0
H250 H 0.73447 0.76942 0.2266 0.0
H251 H 0.77863 0.69617 0.20011 0.0
H252 H 0.69512 0.65017 0.2296 0.0
H253 H 0.7274 0.67962 0.20213 0.0
H254 H 0.73501 0.74103 0.26566 0.0
H255 H 0.70227 0.71215 0.29267 0.0
C256 C 0.77096 0.77652 0.20082 0.0
C257 C 0.79308 0.76463 0.1857 0.0
C258 C 0.75153 0.75962 0.21545 0.0
C259 C 0.7539 0.73045 0.21544 0.0
C260 C 0.77598 0.71854 0.20025 0.0
C261 C 0.79535 0.73546 0.18548 0.0
C262 C 0.70357 0.67004 0.2376 0.0
C263 C 0.69609 0.67884 0.26327 0.0
C264 C 0.72221 0.68681 0.22194 0.0
C265 C 0.73376 0.71267 0.23171 0.0
C266 C 0.72612 0.72145 0.25735 0.0
C267 C 0.70745 0.70479 0.27291 0.0
H268 H 0.32486 0.73039 0.27569 0.0
H269 H 0.2431 0.68651 0.29545 0.0
H270 H 0.29834 0.75923 0.24442 0.0
H271 H 0.21652 0.71585 0.26484 0.0
H272 H 0.18266 0.75327 0.18806 0.0
H273 H 0.21007 0.72395 0.21809 0.0
H274 H 0.26371 0.79604 0.244 0.0
H275 H 0.23685 0.82525 0.21333 0.0
C276 C 0.30122 0.72698 0.27344 0.0
C277 C 0.28608 0.70616 0.288 0.0
C278 C 0.286 0.74361 0.25565 0.0
C279 C 0.25532 0.73986 0.25216 0.0
C280 C 0.24022 0.719 0.26675 0.0
C281 C 0.25544 0.70228 0.2844 0.0
C282 C 0.2003 0.76287 0.20017 0.0
C283 C 0.20758 0.79157 0.19835 0.0
C284 C 0.21592 0.74608 0.21748 0.0
C285 C 0.23903 0.75766 0.23348 0.0
C286 C 0.2463 0.7864 0.23166 0.0
C287 C 0.23079 0.80316 0.21421 0.0
H288 H 0.264 0.71679 0.68319 0.0
H289 H 0.27886 0.65214 0.74086 0.0
H290 H 0.24213 0.7451 0.71752 0.0
H291 H 0.25733 0.68077 0.77532 0.0
H292 H 0.18911 0.72967 0.82228 0.0
H293 H 0.2098 0.69981 0.78831 0.0
H294 H 0.25947 0.77099 0.75749 0.0
H295 H 0.23854 0.8009 0.79108 0.0
C296 C 0.26257 0.70859 0.70318 0.0
C297 C 0.27327 0.68226 0.70933 0.0
C298 C 0.25021 0.7249 0.72287 0.0
C299 C 0.24824 0.71524 0.74914 0.0
C300 C 0.25838 0.68867 0.7552 0.0
C301 C 0.27081 0.67234 0.73548 0.0
C302 C 0.20451 0.73892 0.8083 0.0
C303 C 0.2121 0.76766 0.8093 0.0
C304 C 0.21644 0.7218 0.78893 0.0
C305 C 0.2361 0.73311 0.77016 0.0
C306 C 0.24399 0.76177 0.77142 0.0
C307 C 0.23214 0.77886 0.79079 0.0
H308 H 0.19903 0.21508 0.80296 0.0
H309 H 0.19998 0.1613 0.73346 0.0
H310 H 0.23326 0.24805 0.78171 0.0
H311 H 0.23472 0.19411 0.71241 0.0
H312 H 0.26976 0.2744 0.67272 0.0
H313 H 0.23576 0.24117 0.69389 0.0
H314 H 0.28471 0.25156 0.76797 0.0
H315 H 0.31848 0.28527 0.74694 0.0
C316 C 0.2066 0.21025 0.78317 0.0
C317 C 0.19676 0.18559 0.76986 0.0
C318 C 0.22637 0.22906 0.77109 0.0
C319 C 0.23673 0.22363 0.74543 0.0
C320 C 0.22686 0.199 0.73209 0.0
C321 C 0.20707 0.18016 0.74419 0.0
C322 C 0.2733 0.26961 0.69353 0.0
C323 C 0.29679 0.28251 0.70818 0.0
C324 C 0.25391 0.25043 0.7056 0.0
C325 C 0.25758 0.24374 0.73258 0.0
C326 C 0.28112 0.25657 0.74722 0.0
C327 C 0.30054 0.27577 0.73514 0.0
H328 H 0.76068 0.16901 0.76282 0.0
H329 H 0.76568 0.23466 0.82248 0.0
H330 H 0.74092 0.20136 0.73077 0.0
H331 H 0.74504 0.26688 0.79056 0.0
H332 H 0.73776 0.32383 0.71814 0.0
H333 H 0.75808 0.29167 0.75036 0.0
H334 H 0.69724 0.22613 0.72146 0.0
H335 H 0.67762 0.2579 0.68886 0.0
C336 C 0.75727 0.19028 0.76919 0.0
C337 C 0.76475 0.19928 0.79519 0.0
C338 C 0.74582 0.20881 0.75083 0.0
C339 C 0.7414 0.23671 0.75811 0.0
C340 C 0.7486 0.24563 0.78422 0.0
C341 C 0.76022 0.22712 0.80256 0.0
C342 C 0.72883 0.30252 0.71864 0.0
C343 C 0.70617 0.29338 0.70091 0.0
C344 C 0.74032 0.28416 0.73721 0.0
C345 C 0.72927 0.25634 0.73848 0.0
C346 C 0.70657 0.24728 0.72074 0.0
C347 C 0.69523 0.26556 0.70212 0.0
H348 H 0.8257 0.79266 0.74315 0.0
H349 H 0.77587 0.76318 0.81074 0.0
H350 H 0.79174 0.76639 0.71331 0.0
H351 H 0.74156 0.73765 0.78095 0.0
H352 H 0.70133 0.67418 0.72206 0.0
H353 H 0.73769 0.69815 0.75113 0.0
H354 H 0.74125 0.76831 0.69753 0.0
H355 H 0.70547 0.74398 0.66803 0.0
C356 C 0.80754 0.78056 0.75163 0.0
C357 C 0.80345 0.78002 0.77928 0.0
C358 C 0.78797 0.76567 0.73454 0.0
C359 C 0.76387 0.75005 0.74476 0.0
C360 C 0.76011 0.74918 0.77245 0.0
C361 C 0.77972 0.76393 0.78952 0.0
C362 C 0.70984 0.69473 0.71648 0.0
C363 C 0.7005 0.70722 0.69278 0.0
C364 C 0.73061 0.7085 0.7332 0.0
C365 C 0.74236 0.73513 0.72665 0.0
C366 C 0.73297 0.74763 0.70294 0.0
C367 C 0.7123 0.73378 0.68614 0.0
H368 H 0.12621 0.09228 0.91954 0.0
H369 H 0.15133 0.17913 0.90681 0.0
H370 H 0.12614 0.10071 0.96735 0.0
H371 H 0.15057 0.1877 0.95472 0.0
H372 H 0.17483 0.18413 0.04435 0.0
H373 H 0.17637 0.17712 -0.00383 0.0
H374 H 0.09675 0.12471 -0.00071 0.0
H375 H 0.09558 0.13115 0.04728 0.0
C376 C 0.13167 0.11319 0.92693 0.0
C377 C 0.13867 0.13505 0.90937 0.0
C378 C 0.13145 0.11807 0.95435 0.0
C379 C 0.13811 0.14494 0.96483 0.0
C380 C 0.14558 0.16672 0.94729 0.0
C381 C 0.14587 0.16182 0.91983 0.0
C382 C 0.15761 0.17123 0.03469 0.0
C383 C 0.13521 0.15804 0.04964 0.0
C384 C 0.15843 0.16729 0.0071 0.0
C385 C 0.13683 0.15014 -0.00605 0.0
C386 C 0.11407 0.13756 0.00888 0.0
C387 C 0.1133 0.14142 0.03639 0.0
H388 H 0.82695 0.16601 0.90959 0.0
H389 H 0.74419 0.12182 0.92538 0.0
H390 H 0.83524 0.17332 0.95714 0.0
H391 H 0.75281 0.12884 0.97313 0.0
H392 H 0.77003 0.1643 0.05766 0.0
H393 H 0.75832 0.16413 0.00991 0.0
H394 H 0.84722 0.14124 -0.00687 0.0
H395 H 0.85898 0.1417 0.04044 0.0
C396 C 0.8104 0.15802 0.92319 0.0
C397 C 0.78507 0.14302 0.91372 0.0
C398 C 0.81523 0.16213 0.95044 0.0
C399 C 0.79486 0.15135 0.96887 0.0
C400 C 0.76883 0.13752 0.9594 0.0
C401 C 0.76398 0.13339 0.93205 0.0
C402 C 0.78709 0.15944 0.04372 0.0
C403 C 0.81542 0.15298 0.05281 0.0
C404 C 0.78034 0.15921 0.01643 0.0
C405 C 0.80188 0.15278 -0.00221 0.0
C406 C 0.83027 0.14671 0.00696 0.0
C407 C 0.83694 0.14677 0.03412 0.0
H408 H 0.87287 0.78342 0.94196 0.0
H409 H 0.79112 0.82166 0.92146 0.0
H410 H 0.86163 0.7876 0.98891 0.0
H411 H 0.77919 0.8248 0.96849 0.0
H412 H 0.79162 0.86283 0.05289 0.0
H413 H 0.79541 0.85227 0.00567 0.0
H414 H 0.8318 0.77266 0.02463 0.0
H415 H 0.82914 0.78385 0.07189 0.0
C416 C 0.8522 0.79221 0.94748 0.0
C417 C 0.83304 0.80248 0.92805 0.0
C418 C 0.84562 0.79445 0.97444 0.0
C419 C 0.81954 0.80669 0.98256 0.0
C420 C 0.79974 0.81578 0.96298 0.0
C421 C 0.80649 0.81384 0.93602 0.0
C422 C 0.80006 0.84292 0.04696 0.0
C423 C 0.8104 0.82431 0.06605 0.0
C424 C 0.80209 0.83676 0.01985 0.0
C425 C 0.81417 0.81169 0.01128 0.0
C426 C 0.82301 0.79243 0.0305 0.0
C427 C 0.82132 0.79875 0.05759 0.0
H428 H 0.21399 0.87425 0.07007 0.0
H429 H 0.2043 0.78408 0.07032 0.0
H430 H 0.22337 0.87309 0.02253 0.0
H431 H 0.21408 0.78297 0.02268 0.0
H432 H 0.18345 0.80095 0.93538 0.0
H433 H 0.18494 0.79721 0.98363 0.0
H434 H 0.25738 0.85853 0.9876 0.0
H435 H 0.25571 0.86258 0.93917 0.0
C436 C 0.21429 0.85415 0.06006 0.0
C437 C 0.20802 0.82927 0.0739 0.0
C438 C 0.21991 0.85348 0.03284 0.0
C439 C 0.21931 0.82794 0.01885 0.0
C440 C 0.21434 0.80298 0.0329 0.0
C441 C 0.20883 0.80363 0.06019 0.0
C442 C 0.19997 0.81338 0.94648 0.0
C443 C 0.21924 0.83231 0.93348 0.0
C444 C 0.20097 0.81107 0.97414 0.0
C445 C 0.22118 0.82769 0.98941 0.0
C446 C 0.24135 0.8457 0.97634 0.0
C447 C 0.24045 0.84792 0.94861 0.0
H448 H 0.04772 0.2132 0.09929 0.0
H449 H 0.06823 0.18197 0.17753 0.0
H450 H -0.00461 0.20838 0.10862 0.0
H451 H 0.01589 0.17842 0.18748 0.0
H452 H 0.92396 0.13566 0.17899 0.0
H453 H 0.97595 0.14834 0.17515 0.0
H454 H 0.9541 0.22278 0.13215 0.0
H455 H 0.90188 0.20924 0.13498 0.0
C456 C 0.04103 0.20594 0.11874 0.0
C457 C 0.06201 0.19764 0.13756 0.0
C458 C 0.01098 0.20332 0.12419 0.0
C459 C 0.00129 0.19272 0.14875 0.0
C460 C 0.02248 0.18599 0.16813 0.0
C461 C 0.05249 0.18819 0.1625 0.0
C462 C 0.93021 0.1549 0.16897 0.0
C463 C 0.90884 0.17131 0.15707 0.0
C464 C 0.96011 0.16233 0.16692 0.0
C465 C 0.96936 0.18658 0.15323 0.0
C466 C 0.94784 0.20368 0.14238 0.0
C467 C 0.91789 0.19603 0.14413 0.0
H468 H 0.87566 0.93524 0.11949 0.0
H469 H 0.79645 0.9147 0.16312 0.0
H470 H 0.86423 0.98443 0.1208 0.0
H471 H 0.78519 0.96416 0.16462 0.0
H472 H 0.76071 0.05129 0.13154 0.0
H473 H 0.77085 0.00158 0.13309 0.0
H474 H 0.86173 0.02242 0.15411 0.0
H475 H 0.85181 0.07189 0.15234 0.0
C476 C 0.85587 0.94122 0.12946 0.0
C477 C 0.83699 0.92107 0.14123 0.0
C478 C 0.84941 0.96944 0.13034 0.0
C479 C 0.82387 0.97814 0.1429 0.0
C480 C 0.80492 0.95801 0.15463 0.0
C481 C 0.81146 0.92975 0.15389 0.0
C482 C 0.78279 0.04524 0.13666 0.0
C483 C 0.80548 0.06554 0.14163 0.0
C484 C 0.78855 0.01679 0.13766 0.0
C485 C 0.81713 0.00816 0.14352 0.0
C486 C 0.8396 0.02846 0.14913 0.0
C487 C 0.83384 0.05682 0.14825 0.0
H488 H 0.94307 0.82619 0.10153 0.0
H489 H 0.92728 0.82575 0.18616 0.0
H490 H -0.00419 0.82969 0.11018 0.0
H491 H 0.98038 0.82842 0.19486 0.0
H492 H 0.07368 0.87139 0.19705 0.0
H493 H 0.02082 0.86222 0.19123 0.0
H494 H 0.03703 0.80516 0.12646 0.0
H495 H 0.08984 0.81504 0.13175 0.0
C496 C 0.95086 0.82645 0.12202 0.0
C497 C 0.93095 0.82584 0.14316 0.0
C498 C 0.98118 0.82826 0.12698 0.0
C499 C 0.99238 0.82933 0.15323 0.0
C500 C 0.97247 0.82802 0.17441 0.0
C501 C 0.94206 0.82633 0.16943 0.0
C502 C 0.06596 0.85672 0.18171 0.0
C503 C 0.08591 0.84417 0.16467 0.0
C504 C 0.03564 0.85132 0.17848 0.0
C505 C 0.02464 0.83309 0.15825 0.0
C506 C 0.04472 0.81973 0.1419 0.0
C507 C 0.07501 0.82528 0.14501 0.0
H508 H 0.1093 0.0696 0.15793 0.0
H509 H 0.20016 0.09811 0.14919 0.0
H510 H 0.12472 0.02173 0.16187 0.0
H511 H 0.21568 0.05028 0.15388 0.0
H512 H 0.22414 0.95914 0.12426 0.0
H513 H 0.21291 0.00827 0.12728 0.0
H514 H 0.15032 0.9893 0.18921 0.0
H515 H 0.16094 0.93997 0.18564 0.0
C516 C 0.13261 0.0657 0.15724 0.0
C517 C 0.15347 0.08761 0.15301 0.0
C518 C 0.14149 0.03826 0.15969 0.0
C519 C 0.17146 0.03215 0.15811 0.0
C520 C 0.1924 0.05422 0.15477 0.0
C521 C 0.1835 0.08164 0.15219 0.0
C522 C 0.20827 0.96548 0.13877 0.0
C523 C 0.1932 0.94561 0.15449 0.0
C524 C 0.20193 -0.00629 0.14061 0.0
C525 C 0.1805 0.0027 0.15833 0.0
C526 C 0.16651 0.98298 0.17499 0.0
C527 C 0.17275 0.95473 0.17306 0.0
H528 H 0.93161 0.79067 0.85784 0.0
H529 H 0.94794 0.86557 0.81202 0.0
H530 H 0.98452 0.78605 0.86393 0.0
H531 H 0.00078 0.86132 0.81868 0.0
H532 H 0.09487 0.83362 0.81692 0.0
H533 H 0.04209 0.83348 0.80736 0.0
H534 H 0.02442 0.80981 0.88857 0.0
H535 H 0.07715 0.80928 0.89797 0.0
C536 C 0.94648 0.80611 0.84899 0.0
C537 C 0.93556 0.82856 0.83452 0.0
C538 C 0.97681 0.80355 0.85263 0.0
C539 C -0.00312 0.8234 0.84193 0.0
C540 C 0.98594 0.84548 0.82692 0.0
C541 C 0.95562 0.848 0.82323 0.0
C542 C 0.07972 0.82821 0.83269 0.0
C543 C 0.09021 0.82157 0.85824 0.0
C544 C 0.04947 0.82828 0.82724 0.0
C545 C 0.02903 0.82175 0.84722 0.0
C546 C 0.03956 0.81459 0.87263 0.0
C547 C 0.06981 0.81445 0.87806 0.0
H548 H 0.21153 0.92628 0.86256 0.0
H549 H 0.1803 0.91794 0.78105 0.0
H550 H 0.21221 0.97691 0.85872 0.0
H551 H 0.1815 0.96871 0.77711 0.0
H552 H 0.14338 0.05469 0.79808 0.0
H553 H 0.15129 0.00484 0.79594 0.0
H554 H 0.23483 0.01812 0.83735 0.0
H555 H 0.22671 0.06816 0.83991 0.0
C556 C 0.20527 0.93524 0.84367 0.0
C557 C 0.19551 0.91808 0.82221 0.0
C558 C 0.20586 0.96429 0.84142 0.0
C559 C 0.19671 0.97682 0.81767 0.0
C560 C 0.18827 0.95965 0.7958 0.0
C561 C 0.18771 0.93057 0.79803 0.0
C562 C 0.16361 0.04707 0.80649 0.0
C563 C 0.18429 0.06536 0.81939 0.0
C564 C 0.16824 0.01848 0.80507 0.0
C565 C 0.19365 0.00752 0.81655 0.0
C566 C 0.21488 0.02593 0.82859 0.0
C567 C 0.21027 0.05459 0.82995 0.0
H568 H 0.05306 0.17512 0.80339 0.0
H569 H 0.03617 0.08705 0.81756 0.0
H570 H 0.00012 0.18195 0.80158 0.0
H571 H 0.98347 0.094 0.8164 0.0
H572 H 0.88935 0.11008 0.79615 0.0
H573 H 0.94184 0.10545 0.78879 0.0
H574 H 0.96075 0.18165 0.83363 0.0
H575 H 0.90824 0.18666 0.84041 0.0
C576 C 0.03808 0.15719 0.80593 0.0
C577 C 0.04882 0.13057 0.81081 0.0
C578 C 0.00775 0.16114 0.80504 0.0
C579 C 0.98757 0.13857 0.80902 0.0
C580 C -0.00163 0.11179 0.81293 0.0
C581 C 0.02864 0.10783 0.81377 0.0
C582 C 0.90469 0.12601 0.8042 0.0
C583 C 0.89466 0.14861 0.81908 0.0
C584 C 0.93478 0.12328 0.80007 0.0
C585 C 0.9555 0.14304 0.81081 0.0
C586 C 0.94537 0.1662 0.82484 0.0
C587 C 0.91526 0.16899 0.82888 0.0
H588 H 0.84598 0.90831 0.81233 0.0
H589 H 0.75674 0.89785 0.84048 0.0
H590 H 0.83758 0.95699 0.80235 0.0
H591 H 0.74829 0.9467 0.83022 0.0
H592 H 0.76693 0.04291 0.84593 0.0
H593 H 0.76698 0.99219 0.8493 0.0
H594 H 0.80905 0.98748 0.77295 0.0
H595 H 0.80933 0.03826 0.76963 0.0
C596 C 0.82447 0.91633 0.81616 0.0
C597 C 0.8021 0.89929 0.82739 0.0
C598 C 0.81958 0.94417 0.81021 0.0
C599 C 0.79226 0.95565 0.81547 0.0
C600 C 0.76963 0.93845 0.82613 0.0
C601 C 0.77446 0.91049 0.83193 0.0
C602 C 0.77574 0.03104 0.82964 0.0
C603 C 0.78849 0.04464 0.80768 0.0
C604 C 0.77563 0.00196 0.83152 0.0
C605 C 0.78833 0.98591 0.81152 0.0
C606 C 0.79952 -0.00062 0.78885 0.0
C607 C 0.79953 0.02846 0.78691 0.0
H608 H 0.6135 0.70068 0.41547 0.0
H609 H 0.69994 0.66809 0.40551 0.0
H610 H 0.62235 0.70459 0.46318 0.0
H611 H 0.70965 0.67347 0.45314 0.0
H612 H 0.69801 0.64672 0.53985 0.0
H613 H 0.69538 0.65053 0.49179 0.0
H614 H 0.64686 0.72598 0.4996 0.0
H615 H 0.64819 0.72115 0.54787 0.0
C616 C 0.6347 0.69501 0.42345 0.0
C617 C 0.65591 0.68379 0.40687 0.0
C618 C 0.63991 0.69741 0.45085 0.0
C619 C 0.66667 0.68912 0.4622 0.0
C620 C 0.68851 0.6794 0.44526 0.0
C621 C 0.68306 0.67649 0.41793 0.0
C622 C 0.68707 0.6643 0.53131 0.0
C623 C 0.67305 0.68347 0.54759 0.0
C624 C 0.68572 0.66664 0.50367 0.0
C625 C 0.67075 0.68851 0.49164 0.0
C626 C 0.65801 0.70851 0.50808 0.0
C627 C 0.65893 0.70588 0.53576 0.0
H628 H 0.26788 0.63566 0.56113 0.0
H629 H 0.29255 0.72343 0.55433 0.0
H630 H 0.25848 0.63292 0.5134 0.0
H631 H 0.2826 0.72073 0.50647 0.0
H632 H 0.31218 0.68838 0.42349 0.0
H633 H 0.30955 0.69825 0.47086 0.0
H634 H 0.22889 0.64749 0.47502 0.0
H635 H 0.23173 0.6372 0.42742 0.0
C636 C 0.27075 0.65452 0.54953 0.0
C637 C 0.28143 0.67966 0.56145 0.0
C638 C 0.26512 0.65298 0.52216 0.0
C639 C 0.27006 0.67656 0.50613 0.0
C640 C 0.27901 0.70212 0.51829 0.0
C641 C 0.28459 0.70368 0.54571 0.0
C642 C 0.29365 0.67958 0.43439 0.0
C643 C 0.27236 0.6617 0.42176 0.0
C644 C 0.29201 0.68546 0.46154 0.0
C645 C 0.26906 0.67357 0.47671 0.0
C646 C 0.247 0.65672 0.46387 0.0
C647 C 0.24858 0.6509 0.43661 0.0
H648 H 0.30439 0.3113 0.42491 0.0
H649 H 0.39332 0.34283 0.44189 0.0
H650 H 0.29511 0.30846 0.47262 0.0
H651 H 0.3839 0.34032 0.48936 0.0
H652 H 0.36708 0.30975 0.57242 0.0
H653 H 0.37449 0.30615 0.52465 0.0
H654 H 0.28992 0.34175 0.51012 0.0
H655 H 0.28222 0.345 0.55801 0.0
C656 C 0.32199 0.31749 0.4388 0.0
C657 C 0.34958 0.32735 0.42964 0.0
C658 C 0.31661 0.316 0.46609 0.0
C659 C 0.33877 0.32416 0.48471 0.0
C660 C 0.36649 0.33353 0.47551 0.0
C661 C 0.37183 0.33514 0.44828 0.0
C662 C 0.34992 0.3166 0.55907 0.0
C663 C 0.32415 0.32789 0.56901 0.0
C664 C 0.35425 0.31464 0.5317 0.0
C665 C 0.33291 0.32389 0.51365 0.0
C666 C 0.30667 0.33425 0.52355 0.0
C667 C 0.30233 0.33625 0.55097 0.0
H668 H 0.66595 0.30321 0.43386 0.0
H669 H 0.74369 0.35782 0.44324 0.0
H670 H 0.65846 0.30497 0.48172 0.0
H671 H 0.7359 0.35978 0.49118 0.0
H672 H 0.72274 0.34117 0.57983 0.0
H673 H 0.73421 0.33229 0.53318 0.0
H674 H 0.64301 0.34286 0.51134 0.0
H675 H 0.63149 0.35145 0.55774 0.0
C676 C 0.68166 0.31533 0.44615 0.0
C677 C 0.70524 0.33064 0.43469 0.0
C678 C 0.67726 0.31643 0.47355 0.0
C679 C 0.69637 0.3328 0.49013 0.0
C680 C 0.72088 0.34689 0.47891 0.0
C681 C 0.72526 0.34585 0.45143 0.0
C682 C 0.70513 0.34141 0.56507 0.0
C683 C 0.67621 0.34705 0.57246 0.0
C684 C 0.71173 0.33643 0.53838 0.0
C685 C 0.68949 0.33677 0.51864 0.0
C686 C 0.66054 0.34203 0.52614 0.0
C687 C 0.65398 0.34717 0.55272 0.0
H688 H 0.54684 0.73659 0.60925 0.0
H689 H 0.55801 0.6679 0.66328 0.0
H690 H 0.49392 0.7345 0.61749 0.0
H691 H 0.50527 0.66559 0.67114 0.0
H692 H 0.41241 0.68005 0.69542 0.0
H693 H 0.46507 0.69064 0.6909 0.0
H694 H 0.45256 0.7016 0.60627 0.0
H695 H 0.39988 0.6915 0.6108 0.0
C696 C 0.53806 0.72119 0.62301 0.0
C697 C 0.55661 0.70231 0.63549 0.0
C698 C 0.50774 0.71993 0.62763 0.0
C699 C 0.49541 0.69984 0.64492 0.0
C700 C 0.51412 0.68154 0.65798 0.0
C701 C 0.54435 0.68274 0.65331 0.0
C702 C 0.42083 0.68505 0.6759 0.0
C703 C 0.402 0.68465 0.65343 0.0
C704 C 0.45102 0.69099 0.6733 0.0
C705 C 0.46301 0.69672 0.6482 0.0
C706 C 0.44398 0.69751 0.62592 0.0
C707 C 0.4138 0.69154 0.6285 0.0
H708 H 0.25899 0.55188 0.63406 0.0
H709 H 0.34757 0.57442 0.66146 0.0
H710 H 0.26993 0.50249 0.63696 0.0
H711 H 0.35826 0.52518 0.66468 0.0
H712 H 0.37749 0.43888 0.63067 0.0
H713 H 0.36496 0.48774 0.63199 0.0
H714 H 0.28201 0.46489 0.66857 0.0
H715 H 0.29439 0.41571 0.66695 0.0
C716 C 0.28065 0.54631 0.641 0.0
C717 C 0.30249 0.56707 0.64727 0.0
C718 C 0.28686 0.51803 0.64277 0.0
C719 C 0.31504 0.50999 0.65081 0.0
C720 C 0.33651 0.53075 0.65798 0.0
C721 C 0.33031 0.55897 0.65625 0.0
C722 C 0.3566 0.44422 0.63906 0.0
C723 C 0.33693 0.42341 0.6487 0.0
C724 C 0.34951 0.47226 0.63998 0.0
C725 C 0.32256 0.48016 0.6505 0.0
C726 C 0.30285 0.45938 0.66018 0.0
C727 C 0.31001 0.43127 0.65935 0.0
H728 H 0.59225 0.31343 0.66477 0.0
H729 H 0.56969 0.39818 0.68299 0.0
H730 H 0.54029 0.29871 0.66555 0.0
H731 H 0.5177 0.38373 0.68279 0.0
H732 H 0.42677 0.34847 0.69738 0.0
H733 H 0.47946 0.35779 0.7047 0.0
H734 H 0.49778 0.30368 0.63818 0.0
H735 H 0.44531 0.29361 0.63155 0.0
C736 C 0.57618 0.32892 0.66895 0.0
C737 C 0.58503 0.35701 0.67364 0.0
C738 C 0.54638 0.32051 0.66928 0.0
C739 C 0.52475 0.34004 0.67407 0.0
C740 C 0.53374 0.36802 0.67943 0.0
C741 C 0.56356 0.37637 0.67935 0.0
C742 C 0.44211 0.33825 0.6846 0.0
C743 C 0.43189 0.32047 0.66376 0.0
C744 C 0.4723 0.34374 0.68867 0.0
C745 C 0.49289 0.33175 0.67185 0.0
C746 C 0.48263 0.31305 0.65173 0.0
C747 C 0.45247 0.30737 0.64782 0.0
H748 H 0.69393 0.60032 0.62845 0.0
H749 H 0.61022 0.57427 0.662 0.0
H750 H 0.71033 0.55265 0.63167 0.0
H751 H 0.62634 0.52649 0.66459 0.0
H752 H 0.67108 0.44769 0.68638 0.0
H753 H 0.66033 0.49711 0.68757 0.0
H754 H 0.69989 0.50789 0.61043 0.0
H755 H 0.7113 0.4587 0.60953 0.0
C756 C 0.679 0.58441 0.63647 0.0
C757 C 0.65072 0.59106 0.6449 0.0
C758 C 0.68838 0.55707 0.63822 0.0
C759 C 0.66966 0.53575 0.64838 0.0
C760 C 0.6415 0.54249 0.65706 0.0
C761 C 0.63215 0.56985 0.65538 0.0
C762 C 0.67787 0.46069 0.66985 0.0
C763 C 0.69188 0.44921 0.64777 0.0
C764 C 0.6715 0.48897 0.67044 0.0
C765 C 0.67893 0.50638 0.64896 0.0
C766 C 0.69406 0.49514 0.62741 0.0
C767 C 0.70051 0.46688 0.62684 0.0
H768 H 0.42978 0.28944 0.3402 0.0
H769 H 0.45178 0.37521 0.31981 0.0
H770 H 0.48205 0.27982 0.34254 0.0
H771 H 0.50396 0.36575 0.32275 0.0
H772 H 0.59586 0.33638 0.31182 0.0
H773 H 0.54341 0.34076 0.30265 0.0
H774 H 0.52291 0.29221 0.37259 0.0
H775 H 0.57529 0.28728 0.38143 0.0
C776 C 0.44575 0.3062 0.33605 0.0
C777 C 0.43663 0.33315 0.32998 0.0
C778 C 0.4757 0.30071 0.33754 0.0
C779 C 0.49718 0.32205 0.33301 0.0
C780 C 0.488 0.34875 0.32606 0.0
C781 C 0.45806 0.35423 0.32452 0.0
C782 C 0.58016 0.32637 0.32508 0.0
C783 C 0.58975 0.31164 0.34747 0.0
C784 C 0.5501 0.32902 0.31989 0.0
C785 C 0.52898 0.31702 0.33698 0.0
C786 C 0.53858 0.30146 0.35885 0.0
C787 C 0.56864 0.29877 0.36402 0.0
H788 H 0.72116 0.41688 0.33197 0.0
H789 H 0.64088 0.42698 0.3756 0.0
H790 H 0.7241 0.46725 0.32349 0.0
H791 H 0.6439 0.47689 0.3671 0.0
H792 H 0.63778 0.55607 0.31985 0.0
H793 H 0.63894 0.50577 0.3255 0.0
H794 H 0.73047 0.51392 0.34988 0.0
H795 H 0.72948 0.56463 0.34421 0.0
C796 C 0.70426 0.42982 0.33983 0.0
C797 C 0.6807 0.41794 0.35432 0.0
C798 C 0.70602 0.45859 0.33504 0.0
C799 C 0.68405 0.47583 0.3444 0.0
C800 C 0.66087 0.46399 0.35929 0.0
C801 C 0.65927 0.43541 0.36429 0.0
C802 C 0.6583 0.54723 0.32616 0.0
C803 C 0.68348 0.56441 0.33186 0.0
C804 C 0.65888 0.51841 0.32951 0.0
C805 C 0.68467 0.50606 0.33847 0.0
C806 C 0.71031 0.52297 0.34294 0.0
C807 C 0.70969 0.55196 0.33976 0.0
H808 H 0.55529 0.6181 0.38465 0.0
H809 H 0.55243 0.6547 0.30637 0.0
H810 H 0.50188 0.6178 0.3864 0.0
H811 H 0.49864 0.65352 0.3077 0.0
H812 H 0.40415 0.67273 0.33167 0.0
H813 H 0.45781 0.67435 0.32903 0.0
H814 H 0.45982 0.59388 0.36724 0.0
H815 H 0.40646 0.59277 0.3707 0.0
C816 C 0.54322 0.62591 0.3677 0.0
C817 C 0.55807 0.63634 0.34533 0.0
C818 C 0.51254 0.62558 0.36864 0.0
C819 C 0.4959 0.6354 0.3471 0.0
C820 C 0.51078 0.64606 0.32476 0.0
C821 C 0.54158 0.64661 0.32392 0.0
C822 C 0.41611 0.65541 0.3395 0.0
C823 C 0.40113 0.63273 0.35159 0.0
C824 C 0.44684 0.65625 0.33784 0.0
C825 C 0.46318 0.63432 0.34807 0.0
C826 C 0.44803 0.61142 0.35968 0.0
C827 C 0.41739 0.6107 0.36154 0.0
H828 H 0.3019 0.42499 0.38605 0.0
H829 H 0.3285 0.411 0.305 0.0
H830 H 0.29605 0.47415 0.37658 0.0
H831 H 0.3213 0.45997 0.29505 0.0
H832 H 0.34348 0.55441 0.29814 0.0
H833 H 0.3439 0.50412 0.30365 0.0
H834 H 0.268 0.50727 0.35443 0.0
H835 H 0.26854 0.55792 0.34985 0.0
C836 C 0.30608 0.43237 0.36608 0.0
C837 C 0.31586 0.41421 0.34632 0.0
C838 C 0.30248 0.46055 0.36055 0.0
C839 C 0.30817 0.47115 0.33501 0.0
C840 C 0.31722 0.45271 0.31506 0.0
C841 C 0.32123 0.4246 0.32072 0.0
C842 C 0.32663 0.54433 0.3102 0.0
C843 C 0.30613 0.56014 0.32374 0.0
C844 C 0.32678 0.5154 0.31328 0.0
C845 C 0.30614 0.50154 0.32969 0.0
C846 C 0.28466 0.51728 0.34214 0.0
C847 C 0.28479 0.54629 0.33935 0.0
loop_
_geom_bond_atom_site_label_1
_geom_bond_atom_site_label_2
_geom_bond_distance
_geom_bond_site_symmetry_2
_ccdc_geom_bond_type
C0 O1 1.160 . S
C0 O7 1.185 . S
O1 C0 1.160 . S
O2 Zn3 1.899 . S
O2 C10 1.284 . S
Zn3 O2 1.899 . S
Zn3 O4 2.032 . S
Zn3 O7 2.086 . S
Zn3 O12 1.977 . S
O4 Zn3 2.032 . S
O4 C8 1.278 . S
C5 O6 1.203 . S
C5 O12 1.267 . S
O6 C5 1.203 . S
O7 C0 1.185 . S
O7 Zn3 2.086 . S
C8 O4 1.278 . S
C8 O9 1.211 . S
O9 C8 1.211 . S
C10 O2 1.284 . S
C10 O11 1.273 . S
O11 C10 1.273 . S
O12 Zn3 1.977 . S
O12 C5 1.267 . S
C13 O14 1.160 . S
C13 O20 1.185 . S
O14 C13 1.160 . S
O15 Zn16 1.899 . S
O15 C23 1.284 . S
Zn16 O15 1.899 . S
Zn16 O17 2.032 . S
Zn16 O20 2.086 . S
Zn16 O25 1.977 . S
O17 Zn16 2.032 . S
O17 C21 1.278 . S
C18 O19 1.203 . S
C18 O25 1.267 . S
O19 C18 1.203 . S
O20 C13 1.185 . S
O20 Zn16 2.086 . S
C21 O17 1.278 . S
C21 O22 1.211 . S
O22 C21 1.211 . S
C23 O15 1.284 . S
C23 O24 1.273 . S
O24 C23 1.273 . S
O25 Zn16 1.977 . S
O25 C18 1.267 . S
C26 O27 1.160 . S
C26 O33 1.185 . S
O27 C26 1.160 . S
O28 Zn29 1.899 . S
O28 C36 1.284 . S
Zn29 O28 1.899 . S
Zn29 O30 2.032 . S
Zn29 O33 2.086 . S
Zn29 O38 1.977 . S
O30 Zn29 2.032 . S
O30 C34 1.278 . S
C31 O32 1.203 . S
C31 O38 1.267 . S
O32 C31 1.203 . S
O33 C26 1.185 . S
O33 Zn29 2.086 . S
C34 O30 1.278 . S
C34 O35 1.211 . S
O35 C34 1.211 . S
C36 O28 1.284 . S
C36 O37 1.273 . S
O37 C36 1.273 . S
O38 Zn29 1.977 . S
O38 C31 1.267 . S
C39 O40 1.160 . S
C39 O46 1.185 . S
O40 C39 1.160 . S
O41 Zn42 1.899 . S
O41 C49 1.284 . S
Zn42 O41 1.899 . S
Zn42 O43 2.032 . S
Zn42 O46 2.086 . S
Zn42 O51 1.977 . S
O43 Zn42 2.032 . S
O43 C47 1.278 . S
C44 O45 1.203 . S
C44 O51 1.267 . S
O45 C44 1.203 . S
O46 C39 1.185 . S
O46 Zn42 2.086 . S
C47 O43 1.278 . S
C47 O48 1.211 . S
O48 C47 1.211 . S
C49 O41 1.284 . S
C49 O50 1.273 . S
O50 C49 1.273 . S
O51 Zn42 1.977 . S
O51 C44 1.267 . S
C52 O53 1.160 . S
C52 O59 1.185 . S
O53 C52 1.160 . S
O54 Zn55 1.899 . S
O54 C62 1.284 . S
Zn55 O54 1.899 . S
Zn55 O56 2.032 . S
Zn55 O59 2.086 . S
Zn55 O64 1.977 . S
O56 Zn55 2.032 . S
O56 C60 1.278 . S
C57 O58 1.203 . S
C57 O64 1.267 . S
O58 C57 1.203 . S
O59 C52 1.185 . S
O59 Zn55 2.086 . S
C60 O56 1.278 . S
C60 O61 1.211 . S
O61 C60 1.211 . S
C62 O54 1.284 . S
C62 O63 1.273 . S
O63 C62 1.273 . S
O64 Zn55 1.977 . S
O64 C57 1.267 . S
C65 O66 1.160 . S
C65 O72 1.185 . S
O66 C65 1.160 . S
O67 Zn68 1.899 . S
O67 C75 1.284 . S
Zn68 O67 1.899 . S
Zn68 O69 2.032 . S
Zn68 O72 2.086 . S
Zn68 O77 1.977 . S
O69 Zn68 2.032 . S
O69 C73 1.278 . S
C70 O71 1.203 . S
C70 O77 1.267 . S
O71 C70 1.203 . S
O72 C65 1.185 . S
O72 Zn68 2.086 . S
C73 O69 1.278 . S
C73 O74 1.211 . S
O74 C73 1.211 . S
C75 O67 1.284 . S
C75 O76 1.273 . S
O76 C75 1.273 . S
O77 Zn68 1.977 . S
O77 C70 1.267 . S
C78 O79 1.160 . S
C78 O85 1.185 . S
O79 C78 1.160 . S
O80 Zn81 1.899 . S
O80 C88 1.284 . S
Zn81 O80 1.899 . S
Zn81 O82 2.032 . S
Zn81 O85 2.086 . S
Zn81 O90 1.977 . S
O82 Zn81 2.032 . S
O82 C86 1.278 . S
C83 O84 1.203 . S
C83 O90 1.267 . S
O84 C83 1.203 . S
O85 C78 1.185 . S
O85 Zn81 2.086 . S
C86 O82 1.278 . S
C86 O87 1.211 . S
O87 C86 1.211 . S
C88 O80 1.284 . S
C88 O89 1.273 . S
O89 C88 1.273 . S
O90 Zn81 1.977 . S
O90 C83 1.267 . S
C91 O92 1.160 . S
C91 O98 1.185 . S
O92 C91 1.160 . S
O93 Zn94 1.899 . S
O93 C101 1.284 . S
Zn94 O93 1.899 . S
Zn94 O95 2.032 . S
Zn94 O98 2.086 . S
Zn94 O103 1.977 . S
O95 Zn94 2.032 . S
O95 C99 1.278 . S
C96 O97 1.203 . S
C96 O103 1.267 . S
O97 C96 1.203 . S
O98 C91 1.185 . S
O98 Zn94 2.086 . S
C99 O95 1.278 . S
C99 O100 1.211 . S
O100 C99 1.211 . S
C101 O93 1.284 . S
C101 O102 1.273 . S
O102 C101 1.273 . S
O103 Zn94 1.977 . S
O103 C96 1.267 . S
C104 O105 1.160 . S
C104 O111 1.185 . S
O105 C104 1.160 . S
O106 Zn107 1.899 . S
O106 C114 1.284 . S
Zn107 O106 1.899 . S
Zn107 O108 2.032 . S
Zn107 O111 2.086 . S
Zn107 O116 1.977 . S
O108 Zn107 2.032 . S
O108 C112 1.278 . S
C109 O110 1.203 . S
C109 O116 1.267 . S
O110 C109 1.203 . S
O111 C104 1.185 . S
O111 Zn107 2.086 . S
C112 O108 1.278 . S
C112 O113 1.211 . S
O113 C112 1.211 . S
C114 O106 1.284 . S
C114 O115 1.273 . S
O115 C114 1.273 . S
O116 Zn107 1.977 . S
O116 C109 1.267 . S
C117 O118 1.160 . S
C117 O124 1.185 . S
O118 C117 1.160 . S
O119 Zn120 1.899 . S
O119 C127 1.284 . S
Zn120 O119 1.899 . S
Zn120 O121 2.032 . S
Zn120 O124 2.086 . S
Zn120 O129 1.977 . S
O121 Zn120 2.032 . S
O121 C125 1.278 . S
C122 O123 1.203 . S
C122 O129 1.267 . S
O123 C122 1.203 . S
O124 C117 1.185 . S
O124 Zn120 2.086 . S
C125 O121 1.278 . S
C125 O126 1.211 . S
O126 C125 1.211 . S
C127 O119 1.284 . S
C127 O128 1.273 . S
O128 C127 1.273 . S
O129 Zn120 1.977 . S
O129 C122 1.267 . S
C130 O131 1.160 . S
C130 O137 1.185 . S
O131 C130 1.160 . S
O132 Zn133 1.899 . S
O132 C140 1.284 . S
Zn133 O132 1.899 . S
Zn133 O134 2.032 . S
Zn133 O137 2.086 . S
Zn133 O142 1.977 . S
O134 Zn133 2.032 . S
O134 C138 1.278 . S
C135 O136 1.203 . S
C135 O142 1.267 . S
O136 C135 1.203 . S
O137 C130 1.185 . S
O137 Zn133 2.086 . S
C138 O134 1.278 . S
C138 O139 1.211 . S
O139 C138 1.211 . S
C140 O132 1.284 . S
C140 O141 1.273 . S
O141 C140 1.273 . S
O142 Zn133 1.977 . S
O142 C135 1.267 . S
C143 O144 1.160 . S
C143 O150 1.185 . S
O144 C143 1.160 . S
O145 Zn146 1.899 . S
O145 C153 1.284 . S
Zn146 O145 1.899 . S
Zn146 O147 2.032 . S
Zn146 O150 2.086 . S
Zn146 O155 1.977 . S
O147 Zn146 2.032 . S
O147 C151 1.278 . S
C148 O149 1.203 . S
C148 O155 1.267 . S
O149 C148 1.203 . S
O150 C143 1.185 . S
O150 Zn146 2.086 . S
C151 O147 1.278 . S
C151 O152 1.211 . S
O152 C151 1.211 . S
C153 O145 1.284 . S
C153 O154 1.273 . S
O154 C153 1.273 . S
O155 Zn146 1.977 . S
O155 C148 1.267 . S
C156 O157 1.160 . S
C156 O163 1.185 . S
O157 C156 1.160 . S
O158 Zn159 1.899 . S
O158 C166 1.284 . S
Zn159 O158 1.899 . S
Zn159 O160 2.032 . S
Zn159 O163 2.086 . S
Zn159 O168 1.977 . S
O160 Zn159 2.032 . S
O160 C164 1.278 . S
C161 O162 1.203 . S
C161 O168 1.267 . S
O162 C161 1.203 . S
O163 C156 1.185 . S
O163 Zn159 2.086 . S
C164 O160 1.278 . S
C164 O165 1.211 . S
O165 C164 1.211 . S
C166 O158 1.284 . S
C166 O167 1.273 . S
O167 C166 1.273 . S
O168 Zn159 1.977 . S
O168 C161 1.267 . S
C169 O170 1.160 . S
C169 O176 1.185 . S
O170 C169 1.160 . S
O171 Zn172 1.899 . S
O171 C179 1.284 . S
Zn172 O171 1.899 . S
Zn172 O173 2.032 . S
Zn172 O176 2.086 . S
Zn172 O181 1.977 . S
O173 Zn172 2.032 . S
O173 C177 1.278 . S
C174 O175 1.203 . S
C174 O181 1.267 . S
O175 C174 1.203 . S
O176 C169 1.185 . S
O176 Zn172 2.086 . S
C177 O173 1.278 . S
C177 O178 1.211 . S
O178 C177 1.211 . S
C179 O171 1.284 . S
C179 O180 1.273 . S
O180 C179 1.273 . S
O181 Zn172 1.977 . S
O181 C174 1.267 . S
C182 O183 1.160 . S
C182 O189 1.185 . S
O183 C182 1.160 . S
O184 Zn185 1.899 . S
O184 C192 1.284 . S
Zn185 O184 1.899 . S
Zn185 O186 2.032 . S
Zn185 O189 2.086 . S
Zn185 O194 1.977 . S
O186 Zn185 2.032 . S
O186 C190 1.278 . S
C187 O188 1.203 . S
C187 O194 1.267 . S
O188 C187 1.203 . S
O189 C182 1.185 . S
O189 Zn185 2.086 . S
C190 O186 1.278 . S
C190 O191 1.211 . S
O191 C190 1.211 . S
C192 O184 1.284 . S
C192 O193 1.273 . S
O193 C192 1.273 . S
O194 Zn185 1.977 . S
O194 C187 1.267 . S
C195 O196 1.160 . S
C195 O202 1.185 . S
O196 C195 1.160 . S
O197 Zn198 1.899 . S
O197 C205 1.284 . S
Zn198 O197 1.899 . S
Zn198 O199 2.032 . S
Zn198 O202 2.086 . S
Zn198 O207 1.977 . S
O199 Zn198 2.032 . S
O199 C203 1.278 . S
C200 O201 1.203 . S
C200 O207 1.267 . S
O201 C200 1.203 . S
O202 C195 1.185 . S
O202 Zn198 2.086 . S
C203 O199 1.278 . S
C203 O204 1.211 . S
O204 C203 1.211 . S
C205 O197 1.284 . S
C205 O206 1.273 . S
O206 C205 1.273 . S
O207 Zn198 1.977 . S
O207 C200 1.267 . S
H208 C216 0.950 . S
H209 C221 0.950 . S
H210 C218 0.950 . S
H211 C220 0.950 . S
H212 C222 0.950 . S
H213 C224 0.950 . S
H214 C226 0.950 . S
H215 C227 0.950 . S
C216 H208 0.950 . S
C216 C217 1.386 . S
C216 C218 1.391 . S
C217 C216 1.386 . S
C217 C221 1.393 . S
C218 H210 0.950 . S
C218 C216 1.391 . S
C218 C219 1.400 . S
C219 C218 1.400 . S
C219 C220 1.398 . S
C219 C225 1.491 . S
C220 H211 0.950 . S
C220 C219 1.398 . S
C220 C221 1.391 . S
C221 H209 0.950 . S
C221 C217 1.393 . S
C221 C220 1.391 . S
C222 H212 0.950 . S
C222 C223 1.386 . S
C222 C224 1.391 . S
C223 C222 1.386 . S
C223 C227 1.393 . S
C224 H213 0.950 . S
C224 C222 1.391 . S
C224 C225 1.400 . S
C225 C219 1.491 . S
C225 C224 1.400 . S
C225 C226 1.398 . S
C226 H214 0.950 . S
C226 C225 1.398 . S
C226 C227 1.391 . S
C227 H215 0.950 . S
C227 C223 1.393 . S
C227 C226 1.391 . S
H228 C236 0.950 . S
H229 C241 0.950 . S
H230 C238 0.950 . S
H231 C240 0.950 . S
H232 C242 0.950 . S
H233 C244 0.950 . S
H234 C246 0.950 . S
H235 C247 0.950 . S
C236 H228 0.950 . S
C236 C237 1.386 . S
C236 C238 1.391 . S
C237 C236 1.386 . S
C237 C241 1.393 . S
C238 H230 0.950 . S
C238 C236 1.391 . S
C238 C239 1.400 . S
C239 C238 1.400 . S
C239 C240 1.398 . S
C239 C245 1.491 . S
C240 H231 0.950 . S
C240 C239 1.398 . S
C240 C241 1.391 . S
C241 H229 0.950 . S
C241 C237 1.393 . S
C241 C240 1.391 . S
C242 H232 0.950 . S
C242 C243 1.386 . S
C242 C244 1.391 . S
C243 C242 1.386 . S
C243 C247 1.393 . S
C244 H233 0.950 . S
C244 C242 1.391 . S
C244 C245 1.400 . S
C245 C239 1.491 . S
C245 C244 1.400 . S
C245 C246 1.398 . S
C246 H234 0.950 . S
C246 C245 1.398 . S
C246 C247 1.391 . S
C247 H235 0.950 . S
C247 C243 1.393 . S
C247 C246 1.391 . S
H248 C256 0.950 . S
H249 C261 0.950 . S
H250 C258 0.950 . S
H251 C260 0.950 . S
H252 C262 0.950 . S
H253 C264 0.950 . S
H254 C266 0.950 . S
H255 C267 0.950 . S
C256 H248 0.950 . S
C256 C257 1.386 . S
C256 C258 1.391 . S
C257 C256 1.386 . S
C257 C261 1.393 . S
C258 H250 0.950 . S
C258 C256 1.391 . S
C258 C259 1.400 . S
C259 C258 1.400 . S
C259 C260 1.398 . S
C259 C265 1.491 . S
C260 H251 0.950 . S
C260 C259 1.398 . S
C260 C261 1.391 . S
C261 H249 0.950 . S
C261 C257 1.393 . S
C261 C260 1.391 . S
C262 H252 0.950 . S
C262 C263 1.386 . S
C262 C264 1.391 . S
C263 C262 1.386 . S
C263 C267 1.393 . S
C264 H253 0.950 . S
C264 C262 1.391 . S
C264 C265 1.400 . S
C265 C259 1.491 . S
C265 C264 1.400 . S
C265 C266 1.398 . S
C266 H254 0.950 . S
C266 C265 1.398 . S
C266 C267 1.391 . S
C267 H255 0.950 . S
C267 C263 1.393 . S
C267 C266 1.391 . S
H268 C276 0.950 . S
H269 C281 0.950 . S
H270 C278 0.950 . S
H271 C280 0.950 . S
H272 C282 0.950 . S
H273 C284 0.950 . S
H274 C286 0.950 . S
H275 C287 0.950 . S
C276 H268 0.950 . S
C276 C277 1.386 . S
C276 C278 1.391 . S
C277 C276 1.386 . S
C277 C281 1.393 . S
C278 H270 0.950 . S
C278 C276 1.391 . S
C278 C279 1.400 . S
C279 C278 1.400 . S
C279 C280 1.398 . S
C279 C285 1.491 . S
C280 H271 0.950 . S
C280 C279 1.398 . S
C280 C281 1.391 . S
C281 H269 0.950 . S
C281 C277 1.393 . S
C281 C280 1.391 . S
C282 H272 0.950 . S
C282 C283 1.386 . S
C282 C284 1.391 . S
C283 C282 1.386 . S
C283 C287 1.393 . S
C284 H273 0.950 . S
C284 C282 1.391 . S
C284 C285 1.400 . S
C285 C279 1.491 . S
C285 C284 1.400 . S
C285 C286 1.398 . S
C286 H274 0.950 . S
C286 C285 1.398 . S
C286 C287 1.391 . S
C287 H275 0.950 . S
C287 C283 1.393 . S
C287 C286 1.391 . S
H288 C296 0.950 . S
H289 C301 0.950 . S
H290 C298 0.950 . S
H291 C300 0.950 . S
H292 C302 0.950 . S
H293 C304 0.950 . S
H294 C306 0.950 . S
H295 C307 0.950 . S
C296 H288 0.950 . S
C296 C297 1.386 . S
C296 C298 1.391 . S
C297 C296 1.386 . S
C297 C301 1.393 . S
C298 H290 0.950 . S
C298 C296 1.391 . S
C298 C299 1.400 . S
C299 C298 1.400 . S
C299 C300 1.398 . S
C299 C305 1.491 . S
C300 H291 0.950 . S
C300 C299 1.398 . S
C300 C301 1.391 . S
C301 H289 0.950 . S
C301 C297 1.393 . S
C301 C300 1.391 . S
C302 H292 0.950 . S
C302 C303 1.386 . S
C302 C304 1.391 . S
C303 C302 1.386 . S
C303 C307 1.393 . S
C304 H293 0.950 . S
C304 C302 1.391 . S
C304 C305 1.400 . S
C305 C299 1.491 . S
C305 C304 1.400 . S
C305 C306 1.398 . S
C306 H294 0.950 . S
C306 C305 1.398 . S
C306 C307 1.391 . S
C307 H295 0.950 . S
C307 C303 1.393 . S
C307 C306 1.391 . S
H308 C316 0.950 . S
H309 C321 0.950 . S
H310 C318 0.950 . S
H311 C320 0.950 . S
H312 C322 0.950 . S
H313 C324 0.950 . S
H314 C326 0.950 . S
H315 C327 0.950 . S
C316 H308 0.950 . S
C316 C317 1.386 . S
C316 C318 1.391 . S
C317 C316 1.386 . S
C317 C321 1.393 . S
C318 H310 0.950 . S
C318 C316 1.391 . S
C318 C319 1.400 . S
C319 C318 1.400 . S
C319 C320 1.398 . S
C319 C325 1.491 . S
C320 H311 0.950 . S
C320 C319 1.398 . S
C320 C321 1.391 . S
C321 H309 0.950 . S
C321 C317 1.393 . S
C321 C320 1.391 . S
C322 H312 0.950 . S
C322 C323 1.386 . S
C322 C324 1.391 . S
C323 C322 1.386 . S
C323 C327 1.393 . S
C324 H313 0.950 . S
C324 C322 1.391 . S
C324 C325 1.400 . S
C325 C319 1.491 . S
C325 C324 1.400 . S
C325 C326 1.398 . S
C326 H314 0.950 . S
C326 C325 1.398 . S
C326 C327 1.391 . S
C327 H315 0.950 . S
C327 C323 1.393 . S
C327 C326 1.391 . S
H328 C336 0.950 . S
H329 C341 0.950 . S
H330 C338 0.950 . S
H331 C340 0.950 . S
H332 C342 0.950 . S
H333 C344 0.950 . S
H334 C346 0.950 . S
H335 C347 0.950 . S
C336 H328 0.950 . S
C336 C337 1.386 . S
C336 C338 1.391 . S
C337 C336 1.386 . S
C337 C341 1.393 . S
C338 H330 0.950 . S
C338 C336 1.391 . S
C338 C339 1.400 . S
C339 C338 1.400 . S
C339 C340 1.398 . S
C339 C345 1.491 . S
C340 H331 0.950 . S
C340 C339 1.398 . S
C340 C341 1.391 . S
C341 H329 0.950 . S
C341 C337 1.393 . S
C341 C340 1.391 . S
C342 H332 0.950 . S
C342 C343 1.386 . S
C342 C344 1.391 . S
C343 C342 1.386 . S
C343 C347 1.393 . S
C344 H333 0.950 . S
C344 C342 1.391 . S
C344 C345 1.400 . S
C345 C339 1.491 . S
C345 C344 1.400 . S
C345 C346 1.398 . S
C346 H334 0.950 . S
C346 C345 1.398 . S
C346 C347 1.391 . S
C347 H335 0.950 . S
C347 C343 1.393 . S
C347 C346 1.391 . S
H348 C356 0.950 . S
H349 C361 0.950 . S
H350 C358 0.950 . S
H351 C360 0.950 . S
H352 C362 0.950 . S
H353 C364 0.950 . S
H354 C366 0.950 . S
H355 C367 0.950 . S
C356 H348 0.950 . S
C356 C357 1.386 . S
C356 C358 1.391 . S
C357 C356 1.386 . S
C357 C361 1.393 . S
C358 H350 0.950 . S
C358 C356 1.391 . S
C358 C359 1.400 . S
C359 C358 1.400 . S
C359 C360 1.398 . S
C359 C365 1.491 . S
C360 H351 0.950 . S
C360 C359 1.398 . S
C360 C361 1.391 . S
C361 H349 0.950 . S
C361 C357 1.393 . S
C361 C360 1.391 . S
C362 H352 0.950 . S
C362 C363 1.386 . S
C362 C364 1.391 . S
C363 C362 1.386 . S
C363 C367 1.393 . S
C364 H353 0.950 . S
C364 C362 1.391 . S
C364 C365 1.400 . S
C365 C359 1.491 . S
C365 C364 1.400 . S
C365 C366 1.398 . S
C366 H354 0.950 . S
C366 C365 1.398 . S
C366 C367 1.391 . S
C367 H355 0.950 . S
C367 C363 1.393 . S
C367 C366 1.391 . S
H368 C376 0.950 . S
H369 C381 0.950 . S
H370 C378 0.950 . S
H371 C380 0.950 . S
H372 C382 0.950 . S
H373 C384 0.950 . S
H374 C386 0.950 . S
H375 C387 0.950 . S
C376 H368 0.950 . S
C376 C377 1.386 . S
C376 C378 1.391 . S
C377 C376 1.386 . S
C377 C381 1.393 . S
C378 H370 0.950 . S
C378 C376 1.391 . S
C378 C379 1.400 . S
C379 C378 1.400 . S
C379 C380 1.398 . S
C379 C385 1.491 1_556 S
C380 H371 0.950 . S
C380 C379 1.398 . S
C380 C381 1.391 . S
C381 H369 0.950 . S
C381 C377 1.393 . S
C381 C380 1.391 . S
C382 H372 0.950 . S
C382 C383 1.386 . S
C382 C384 1.391 . S
C383 C382 1.386 . S
C383 C387 1.393 . S
C384 H373 0.950 . S
C384 C382 1.391 . S
C384 C385 1.400 . S
C385 C379 1.491 1_554 S
C385 C384 1.400 . S
C385 C386 1.398 . S
C386 H374 0.950 . S
C386 C385 1.398 . S
C386 C387 1.391 . S
C387 H375 0.950 . S
C387 C383 1.393 . S
C387 C386 1.391 . S
H388 C396 0.950 . S
H389 C401 0.950 . S
H390 C398 0.950 . S
H391 C400 0.950 . S
H392 C402 0.950 . S
H393 C404 0.950 . S
H394 C406 0.950 . S
H395 C407 0.950 . S
C396 H388 0.950 . S
C396 C397 1.386 . S
C396 C398 1.391 . S
C397 C396 1.386 . S
C397 C401 1.393 . S
C398 H390 0.950 . S
C398 C396 1.391 . S
C398 C399 1.400 . S
C399 C398 1.400 . S
C399 C400 1.398 . S
C399 C405 1.491 1_556 S
C400 H391 0.950 . S
C400 C399 1.398 . S
C400 C401 1.391 . S
C401 H389 0.950 . S
C401 C397 1.393 . S
C401 C400 1.391 . S
C402 H392 0.950 . S
C402 C403 1.386 . S
C402 C404 1.391 . S
C403 C402 1.386 . S
C403 C407 1.393 . S
C404 H393 0.950 . S
C404 C402 1.391 . S
C404 C405 1.400 . S
C405 C399 1.491 1_554 S
C405 C404 1.400 . S
C405 C406 1.398 . S
C406 H394 0.950 . S
C406 C405 1.398 . S
C406 C407 1.391 . S
C407 H395 0.950 . S
C407 C403 1.393 . S
C407 C406 1.391 . S
H408 C416 0.950 . S
H409 C421 0.950 . S
H410 C418 0.950 . S
H411 C420 0.950 . S
H412 C422 0.950 . S
H413 C424 0.950 . S
H414 C426 0.950 . S
H415 C427 0.950 . S
C416 H408 0.950 . S
C416 C417 1.386 . S
C416 C418 1.391 . S
C417 C416 1.386 . S
C417 C421 1.393 . S
C418 H410 0.950 . S
C418 C416 1.391 . S
C418 C419 1.400 . S
C419 C418 1.400 . S
C419 C420 1.398 . S
C419 C425 1.491 1_556 S
C420 H411 0.950 . S
C420 C419 1.398 . S
C420 C421 1.391 . S
C421 H409 0.950 . S
C421 C417 1.393 . S
C421 C420 1.391 . S
C422 H412 0.950 . S
C422 C423 1.386 . S
C422 C424 1.391 . S
C423 C422 1.386 . S
C423 C427 1.393 . S
C424 H413 0.950 . S
C424 C422 1.391 . S
C424 C425 1.400 . S
C425 C419 1.491 1_554 S
C425 C424 1.400 . S
C425 C426 1.398 . S
C426 H414 0.950 . S
C426 C425 1.398 . S
C426 C427 1.391 . S
C427 H415 0.950 . S
C427 C423 1.393 . S
C427 C426 1.391 . S
H428 C436 0.950 . S
H429 C441 0.950 . S
H430 C438 0.950 . S
H431 C440 0.950 . S
H432 C442 0.950 . S
H433 C444 0.950 . S
H434 C446 0.950 . S
H435 C447 0.950 . S
C436 H428 0.950 . S
C436 C437 1.386 . S
C436 C438 1.391 . S
C437 C436 1.386 . S
C437 C441 1.393 . S
C438 H430 0.950 . S
C438 C436 1.391 . S
C438 C439 1.400 . S
C439 C438 1.400 . S
C439 C440 1.398 . S
C439 C445 1.491 1_554 S
C440 H431 0.950 . S
C440 C439 1.398 . S
C440 C441 1.391 . S
C441 H429 0.950 . S
C441 C437 1.393 . S
C441 C440 1.391 . S
C442 H432 0.950 . S
C442 C443 1.386 . S
C442 C444 1.391 . S
C443 C442 1.386 . S
C443 C447 1.393 . S
C444 H433 0.950 . S
C444 C442 1.391 . S
C444 C445 1.400 . S
C445 C439 1.491 1_556 S
C445 C444 1.400 . S
C445 C446 1.398 . S
C446 H434 0.950 . S
C446 C445 1.398 . S
C446 C447 1.391 . S
C447 H435 0.950 . S
C447 C443 1.393 . S
C447 C446 1.391 . S
H448 C456 0.950 . S
H449 C461 0.950 . S
H450 C458 0.950 . S
H451 C460 0.950 . S
H452 C462 0.950 . S
H453 C464 0.950 . S
H454 C466 0.950 . S
H455 C467 0.950 . S
C456 H448 0.950 . S
C456 C457 1.386 . S
C456 C458 1.391 . S
C457 C456 1.386 . S
C457 C461 1.393 . S
C458 H450 0.950 . S
C458 C456 1.391 . S
C458 C459 1.400 . S
C459 C458 1.400 . S
C459 C460 1.398 . S
C459 C465 1.491 1_455 S
C460 H451 0.950 . S
C460 C459 1.398 . S
C460 C461 1.391 . S
C461 H449 0.950 . S
C461 C457 1.393 . S
C461 C460 1.391 . S
C462 H452 0.950 . S
C462 C463 1.386 . S
C462 C464 1.391 . S
C463 C462 1.386 . S
C463 C467 1.393 . S
C464 H453 0.950 . S
C464 C462 1.391 . S
C464 C465 1.400 . S
C465 C459 1.491 1_655 S
C465 C464 1.400 . S
C465 C466 1.398 . S
C466 H454 0.950 . S
C466 C465 1.398 . S
C466 C467 1.391 . S
C467 H455 0.950 . S
C467 C463 1.393 . S
C467 C466 1.391 . S
H468 C476 0.950 . S
H469 C481 0.950 . S
H470 C478 0.950 . S
H471 C480 0.950 . S
H472 C482 0.950 . S
H473 C484 0.950 . S
H474 C486 0.950 . S
H475 C487 0.950 . S
C476 H468 0.950 . S
C476 C477 1.386 . S
C476 C478 1.391 . S
C477 C476 1.386 . S
C477 C481 1.393 . S
C478 H470 0.950 . S
C478 C476 1.391 . S
C478 C479 1.400 . S
C479 C478 1.400 . S
C479 C480 1.398 . S
C479 C485 1.491 1_565 S
C480 H471 0.950 . S
C480 C479 1.398 . S
C480 C481 1.391 . S
C481 H469 0.950 . S
C481 C477 1.393 . S
C481 C480 1.391 . S
C482 H472 0.950 . S
C482 C483 1.386 . S
C482 C484 1.391 . S
C483 C482 1.386 . S
C483 C487 1.393 . S
C484 H473 0.950 . S
C484 C482 1.391 . S
C484 C485 1.400 . S
C485 C479 1.491 1_545 S
C485 C484 1.400 . S
C485 C486 1.398 . S
C486 H474 0.950 . S
C486 C485 1.398 . S
C486 C487 1.391 . S
C487 H475 0.950 . S
C487 C483 1.393 . S
C487 C486 1.391 . S
H488 C496 0.950 . S
H489 C501 0.950 . S
H490 C498 0.950 . S
H491 C500 0.950 . S
H492 C502 0.950 . S
H493 C504 0.950 . S
H494 C506 0.950 . S
H495 C507 0.950 . S
C496 H488 0.950 . S
C496 C497 1.386 . S
C496 C498 1.391 . S
C497 C496 1.386 . S
C497 C501 1.393 . S
C498 H490 0.950 . S
C498 C496 1.391 . S
C498 C499 1.400 . S
C499 C498 1.400 . S
C499 C500 1.398 . S
C499 C505 1.491 1_655 S
C500 H491 0.950 . S
C500 C499 1.398 . S
C500 C501 1.391 . S
C501 H489 0.950 . S
C501 C497 1.393 . S
C501 C500 1.391 . S
C502 H492 0.950 . S
C502 C503 1.386 . S
C502 C504 1.391 . S
C503 C502 1.386 . S
C503 C507 1.393 . S
C504 H493 0.950 . S
C504 C502 1.391 . S
C504 C505 1.400 . S
C505 C499 1.491 1_455 S
C505 C504 1.400 . S
C505 C506 1.398 . S
C506 H494 0.950 . S
C506 C505 1.398 . S
C506 C507 1.391 . S
C507 H495 0.950 . S
C507 C503 1.393 . S
C507 C506 1.391 . S
H508 C516 0.950 . S
H509 C521 0.950 . S
H510 C518 0.950 . S
H511 C520 0.950 . S
H512 C522 0.950 . S
H513 C524 0.950 . S
H514 C526 0.950 . S
H515 C527 0.950 . S
C516 H508 0.950 . S
C516 C517 1.386 . S
C516 C518 1.391 . S
C517 C516 1.386 . S
C517 C521 1.393 . S
C518 H510 0.950 . S
C518 C516 1.391 . S
C518 C519 1.400 . S
C519 C518 1.400 . S
C519 C520 1.398 . S
C519 C525 1.491 1_545 S
C520 H511 0.950 . S
C520 C519 1.398 . S
C520 C521 1.391 . S
C521 H509 0.950 . S
C521 C517 1.393 . S
C521 C520 1.391 . S
C522 H512 0.950 . S
C522 C523 1.386 . S
C522 C524 1.391 . S
C523 C522 1.386 . S
C523 C527 1.393 . S
C524 H513 0.950 . S
C524 C522 1.391 . S
C524 C525 1.400 . S
C525 C519 1.491 1_565 S
C525 C524 1.400 . S
C525 C526 1.398 . S
C526 H514 0.950 . S
C526 C525 1.398 . S
C526 C527 1.391 . S
C527 H515 0.950 . S
C527 C523 1.393 . S
C527 C526 1.391 . S
H528 C536 0.950 . S
H529 C541 0.950 . S
H530 C538 0.950 . S
H531 C540 0.950 . S
H532 C542 0.950 . S
H533 C544 0.950 . S
H534 C546 0.950 . S
H535 C547 0.950 . S
C536 H528 0.950 . S
C536 C537 1.386 . S
C536 C538 1.391 . S
C537 C536 1.386 . S
C537 C541 1.393 . S
C538 H530 0.950 . S
C538 C536 1.391 . S
C538 C539 1.400 . S
C539 C538 1.400 . S
C539 C540 1.398 . S
C539 C545 1.491 1_655 S
C540 H531 0.950 . S
C540 C539 1.398 . S
C540 C541 1.391 . S
C541 H529 0.950 . S
C541 C537 1.393 . S
C541 C540 1.391 . S
C542 H532 0.950 . S
C542 C543 1.386 . S
C542 C544 1.391 . S
C543 C542 1.386 . S
C543 C547 1.393 . S
C544 H533 0.950 . S
C544 C542 1.391 . S
C544 C545 1.400 . S
C545 C539 1.491 1_455 S
C545 C544 1.400 . S
C545 C546 1.398 . S
C546 H534 0.950 . S
C546 C545 1.398 . S
C546 C547 1.391 . S
C547 H535 0.950 . S
C547 C543 1.393 . S
C547 C546 1.391 . S
H548 C556 0.950 . S
H549 C561 0.950 . S
H550 C558 0.950 . S
H551 C560 0.950 . S
H552 C562 0.950 . S
H553 C564 0.950 . S
H554 C566 0.950 . S
H555 C567 0.950 . S
C556 H548 0.950 . S
C556 C557 1.386 . S
C556 C558 1.391 . S
C557 C556 1.386 . S
C557 C561 1.393 . S
C558 H550 0.950 . S
C558 C556 1.391 . S
C558 C559 1.400 . S
C559 C558 1.400 . S
C559 C560 1.398 . S
C559 C565 1.491 1_565 S
C560 H551 0.950 . S
C560 C559 1.398 . S
C560 C561 1.391 . S
C561 H549 0.950 . S
C561 C557 1.393 . S
C561 C560 1.391 . S
C562 H552 0.950 . S
C562 C563 1.386 . S
C562 C564 1.391 . S
C563 C562 1.386 . S
C563 C567 1.393 . S
C564 H553 0.950 . S
C564 C562 1.391 . S
C564 C565 1.400 . S
C565 C559 1.491 1_545 S
C565 C564 1.400 . S
C565 C566 1.398 . S
C566 H554 0.950 . S
C566 C565 1.398 . S
C566 C567 1.391 . S
C567 H555 0.950 . S
C567 C563 1.393 . S
C567 C566 1.391 . S
H568 C576 0.950 . S
H569 C581 0.950 . S
H570 C578 0.950 . S
H571 C580 0.950 . S
H572 C582 0.950 . S
H573 C584 0.950 . S
H574 C586 0.950 . S
H575 C587 0.950 . S
C576 H568 0.950 . S
C576 C577 1.386 . S
C576 C578 1.391 . S
C577 C576 1.386 . S
C577 C581 1.393 . S
C578 H570 0.950 . S
C578 C576 1.391 . S
C578 C579 1.400 . S
C579 C578 1.400 . S
C579 C580 1.398 . S
C579 C585 1.491 1_455 S
C580 H571 0.950 . S
C580 C579 1.398 . S
C580 C581 1.391 . S
C581 H569 0.950 . S
C581 C577 1.393 . S
C581 C580 1.391 . S
C582 H572 0.950 . S
C582 C583 1.386 . S
C582 C584 1.391 . S
C583 C582 1.386 . S
C583 C587 1.393 . S
C584 H573 0.950 . S
C584 C582 1.391 . S
C584 C585 1.400 . S
C585 C579 1.491 1_655 S
C585 C584 1.400 . S
C585 C586 1.398 . S
C586 H574 0.950 . S
C586 C585 1.398 . S
C586 C587 1.391 . S
C587 H575 0.950 . S
C587 C583 1.393 . S
C587 C586 1.391 . S
H588 C596 0.950 . S
H589 C601 0.950 . S
H590 C598 0.950 . S
H591 C600 0.950 . S
H592 C602 0.950 . S
H593 C604 0.950 . S
H594 C606 0.950 . S
H595 C607 0.950 . S
C596 H588 0.950 . S
C596 C597 1.386 . S
C596 C598 1.391 . S
C597 C596 1.386 . S
C597 C601 1.393 . S
C598 H590 0.950 . S
C598 C596 1.391 . S
C598 C599 1.400 . S
C599 C598 1.400 . S
C599 C600 1.398 . S
C599 C605 1.491 1_565 S
C600 H591 0.950 . S
C600 C599 1.398 . S
C600 C601 1.391 . S
C601 H589 0.950 . S
C601 C597 1.393 . S
C601 C600 1.391 . S
C602 H592 0.950 . S
C602 C603 1.386 . S
C602 C604 1.391 . S
C603 C602 1.386 . S
C603 C607 1.393 . S
C604 H593 0.950 . S
C604 C602 1.391 . S
C604 C605 1.400 . S
C605 C599 1.491 1_545 S
C605 C604 1.400 . S
C605 C606 1.398 . S
C606 H594 0.950 . S
C606 C605 1.398 . S
C606 C607 1.391 . S
C607 H595 0.950 . S
C607 C603 1.393 . S
C607 C606 1.391 . S
H608 C616 0.950 . S
H609 C621 0.950 . S
H610 C618 0.950 . S
H611 C620 0.950 . S
H612 C622 0.950 . S
H613 C624 0.950 . S
H614 C626 0.950 . S
H615 C627 0.950 . S
C616 H608 0.950 . S
C616 C617 1.386 . S
C616 C618 1.391 . S
C617 C616 1.386 . S
C617 C621 1.393 . S
C618 H610 0.950 . S
C618 C616 1.391 . S
C618 C619 1.400 . S
C619 C618 1.400 . S
C619 C620 1.398 . S
C619 C625 1.491 . S
C620 H611 0.950 . S
C620 C619 1.398 . S
C620 C621 1.391 . S
C621 H609 0.950 . S
C621 C617 1.393 . S
C621 C620 1.391 . S
C622 H612 0.950 . S
C622 C623 1.386 . S
C622 C624 1.391 . S
C623 C622 1.386 . S
C623 C627 1.393 . S
C624 H613 0.950 . S
C624 C622 1.391 . S
C624 C625 1.400 . S
C625 C619 1.491 . S
C625 C624 1.400 . S
C625 C626 1.398 . S
C626 H614 0.950 . S
C626 C625 1.398 . S
C626 C627 1.391 . S
C627 H615 0.950 . S
C627 C623 1.393 . S
C627 C626 1.391 . S
H628 C636 0.950 . S
H629 C641 0.950 . S
H630 C638 0.950 . S
H631 C640 0.950 . S
H632 C642 0.950 . S
H633 C644 0.950 . S
H634 C646 0.950 . S
H635 C647 0.950 . S
C636 H628 0.950 . S
C636 C637 1.386 . S
C636 C638 1.391 . S
C637 C636 1.386 . S
C637 C641 1.393 . S
C638 H630 0.950 . S
C638 C636 1.391 . S
C638 C639 1.400 . S
C639 C638 1.400 . S
C639 C640 1.398 . S
C639 C645 1.491 . S
C640 H631 0.950 . S
C640 C639 1.398 . S
C640 C641 1.391 . S
C641 H629 0.950 . S
C641 C637 1.393 . S
C641 C640 1.391 . S
C642 H632 0.950 . S
C642 C643 1.386 . S
C642 C644 1.391 . S
C643 C642 1.386 . S
C643 C647 1.393 . S
C644 H633 0.950 . S
C644 C642 1.391 . S
C644 C645 1.400 . S
C645 C639 1.491 . S
C645 C644 1.400 . S
C645 C646 1.398 . S
C646 H634 0.950 . S
C646 C645 1.398 . S
C646 C647 1.391 . S
C647 H635 0.950 . S
C647 C643 1.393 . S
C647 C646 1.391 . S
H648 C656 0.950 . S
H649 C661 0.950 . S
H650 C658 0.950 . S
H651 C660 0.950 . S
H652 C662 0.950 . S
H653 C664 0.950 . S
H654 C666 0.950 . S
H655 C667 0.950 . S
C656 H648 0.950 . S
C656 C657 1.386 . S
C656 C658 1.391 . S
C657 C656 1.386 . S
C657 C661 1.393 . S
C658 H650 0.950 . S
C658 C656 1.391 . S
C658 C659 1.400 . S
C659 C658 1.400 . S
C659 C660 1.398 . S
C659 C665 1.491 . S
C660 H651 0.950 . S
C660 C659 1.398 . S
C660 C661 1.391 . S
C661 H649 0.950 . S
C661 C657 1.393 . S
C661 C660 1.391 . S
C662 H652 0.950 . S
C662 C663 1.386 . S
C662 C664 1.391 . S
C663 C662 1.386 . S
C663 C667 1.393 . S
C664 H653 0.950 . S
C664 C662 1.391 . S
C664 C665 1.400 . S
C665 C659 1.491 . S
C665 C664 1.400 . S
C665 C666 1.398 . S
C666 H654 0.950 . S
C666 C665 1.398 . S
C666 C667 1.391 . S
C667 H655 0.950 . S
C667 C663 1.393 . S
C667 C666 1.391 . S
H668 C676 0.950 . S
H669 C681 0.950 . S
H670 C678 0.950 . S
H671 C680 0.950 . S
H672 C682 0.950 . S
H673 C684 0.950 . S
H674 C686 0.950 . S
H675 C687 0.950 . S
C676 H668 0.950 . S
C676 C677 1.386 . S
C676 C678 1.391 . S
C677 C676 1.386 . S
C677 C681 1.393 . S
C678 H670 0.950 . S
C678 C676 1.391 . S
C678 C679 1.400 . S
C679 C678 1.400 . S
C679 C680 1.398 . S
C679 C685 1.491 . S
C680 H671 0.950 . S
C680 C679 1.398 . S
C680 C681 1.391 . S
C681 H669 0.950 . S
C681 C677 1.393 . S
C681 C680 1.391 . S
C682 H672 0.950 . S
C682 C683 1.386 . S
C682 C684 1.391 . S
C683 C682 1.386 . S
C683 C687 1.393 . S
C684 H673 0.950 . S
C684 C682 1.391 . S
C684 C685 1.400 . S
C685 C679 1.491 . S
C685 C684 1.400 . S
C685 C686 1.398 . S
C686 H674 0.950 . S
C686 C685 1.398 . S
C686 C687 1.391 . S
C687 H675 0.950 . S
C687 C683 1.393 . S
C687 C686 1.391 . S
H688 C696 0.950 . S
H689 C701 0.950 . S
H690 C698 0.950 . S
H691 C700 0.950 . S
H692 C702 0.950 . S
H693 C704 0.950 . S
H694 C706 0.950 . S
H695 C707 0.950 . S
C696 H688 0.950 . S
C696 C697 1.386 . S
C696 C698 1.391 . S
C697 C696 1.386 . S
C697 C701 1.393 . S
C698 H690 0.950 . S
C698 C696 1.391 . S
C698 C699 1.400 . S
C699 C698 1.400 . S
C699 C700 1.398 . S
C699 C705 1.491 . S
C700 H691 0.950 . S
C700 C699 1.398 . S
C700 C701 1.391 . S
C701 H689 0.950 . S
C701 C697 1.393 . S
C701 C700 1.391 . S
C702 H692 0.950 . S
C702 C703 1.386 . S
C702 C704 1.391 . S
C703 C702 1.386 . S
C703 C707 1.393 . S
C704 H693 0.950 . S
C704 C702 1.391 . S
C704 C705 1.400 . S
C705 C699 1.491 . S
C705 C704 1.400 . S
C705 C706 1.398 . S
C706 H694 0.950 . S
C706 C705 1.398 . S
C706 C707 1.391 . S
C707 H695 0.950 . S
C707 C703 1.393 . S
C707 C706 1.391 . S
H708 C716 0.950 . S
H709 C721 0.950 . S
H710 C718 0.950 . S
H711 C720 0.950 . S
H712 C722 0.950 . S
H713 C724 0.950 . S
H714 C726 0.950 . S
H715 C727 0.950 . S
C716 H708 0.950 . S
C716 C717 1.386 . S
C716 C718 1.391 . S
C717 C716 1.386 . S
C717 C721 1.393 . S
C718 H710 0.950 . S
C718 C716 1.391 . S
C718 C719 1.400 . S
C719 C718 1.400 . S
C719 C720 1.398 . S
C719 C725 1.491 . S
C720 H711 0.950 . S
C720 C719 1.398 . S
C720 C721 1.391 . S
C721 H709 0.950 . S
C721 C717 1.393 . S
C721 C720 1.391 . S
C722 H712 0.950 . S
C722 C723 1.386 . S
C722 C724 1.391 . S
C723 C722 1.386 . S
C723 C727 1.393 . S
C724 H713 0.950 . S
C724 C722 1.391 . S
C724 C725 1.400 . S
C725 C719 1.491 . S
C725 C724 1.400 . S
C725 C726 1.398 . S
C726 H714 0.950 . S
C726 C725 1.398 . S
C726 C727 1.391 . S
C727 H715 0.950 . S
C727 C723 1.393 . S
C727 C726 1.391 . S
H728 C736 0.950 . S
H729 C741 0.950 . S
H730 C738 0.950 . S
H731 C740 0.950 . S
H732 C742 0.950 . S
H733 C744 0.950 . S
H734 C746 0.950 . S
H735 C747 0.950 . S
C736 H728 0.950 . S
C736 C737 1.386 . S
C736 C738 1.391 . S
C737 C736 1.386 . S
C737 C741 1.393 . S
C738 H730 0.950 . S
C738 C736 1.391 . S
C738 C739 1.400 . S
C739 C738 1.400 . S
C739 C740 1.398 . S
C739 C745 1.491 . S
C740 H731 0.950 . S
C740 C739 1.398 . S
C740 C741 1.391 . S
C741 H729 0.950 . S
C741 C737 1.393 . S
C741 C740 1.391 . S
C742 H732 0.950 . S
C742 C743 1.386 . S
C742 C744 1.391 . S
C743 C742 1.386 . S
C743 C747 1.393 . S
C744 H733 0.950 . S
C744 C742 1.391 . S
C744 C745 1.400 . S
C745 C739 1.491 . S
C745 C744 1.400 . S
C745 C746 1.398 . S
C746 H734 0.950 . S
C746 C745 1.398 . S
C746 C747 1.391 . S
C747 H735 0.950 . S
C747 C743 1.393 . S
C747 C746 1.391 . S
H748 C756 0.950 . S
H749 C761 0.950 . S
H750 C758 0.950 . S
H751 C760 0.950 . S
H752 C762 0.950 . S
H753 C764 0.950 . S
H754 C766 0.950 . S
H755 C767 0.950 . S
C756 H748 0.950 . S
C756 C757 1.386 . S
C756 C758 1.391 . S
C757 C756 1.386 . S
C757 C761 1.393 . S
C758 H750 0.950 . S
C758 C756 1.391 . S
C758 C759 1.400 . S
C759 C758 1.400 . S
C759 C760 1.398 . S
C759 C765 1.491 . S
C760 H751 0.950 . S
C760 C759 1.398 . S
C760 C761 1.391 . S
C761 H749 0.950 . S
C761 C757 1.393 . S
C761 C760 1.391 . S
C762 H752 0.950 . S
C762 C763 1.386 . S
C762 C764 1.391 . S
C763 C762 1.386 . S
C763 C767 1.393 . S
C764 H753 0.950 . S
C764 C762 1.391 . S
C764 C765 1.400 . S
C765 C759 1.491 . S
C765 C764 1.400 . S
C765 C766 1.398 . S
C766 H754 0.950 . S
C766 C765 1.398 . S
C766 C767 1.391 . S
C767 H755 0.950 . S
C767 C763 1.393 . S
C767 C766 1.391 . S
H768 C776 0.950 . S
H769 C781 0.950 . S
H770 C778 0.950 . S
H771 C780 0.950 . S
H772 C782 0.950 . S
H773 C784 0.950 . S
H774 C786 0.950 . S
H775 C787 0.950 . S
C776 H768 0.950 . S
C776 C777 1.386 . S
C776 C778 1.391 . S
C777 C776 1.386 . S
C777 C781 1.393 . S
C778 H770 0.950 . S
C778 C776 1.391 . S
C778 C779 1.400 . S
C779 C778 1.400 . S
C779 C780 1.398 . S
C779 C785 1.491 . S
C780 H771 0.950 . S
C780 C779 1.398 . S
C780 C781 1.391 . S
C781 H769 0.950 . S
C781 C777 1.393 . S
C781 C780 1.391 . S
C782 H772 0.950 . S
C782 C783 1.386 . S
C782 C784 1.391 . S
C783 C782 1.386 . S
C783 C787 1.393 . S
C784 H773 0.950 . S
C784 C782 1.391 . S
C784 C785 1.400 . S
C785 C779 1.491 . S
C785 C784 1.400 . S
C785 C786 1.398 . S
C786 H774 0.950 . S
C786 C785 1.398 . S
C786 C787 1.391 . S
C787 H775 0.950 . S
C787 C783 1.393 . S
C787 C786 1.391 . S
H788 C796 0.950 . S
H789 C801 0.950 . S
H790 C798 0.950 . S
H791 C800 0.950 . S
H792 C802 0.950 . S
H793 C804 0.950 . S
H794 C806 0.950 . S
H795 C807 0.950 . S
C796 H788 0.950 . S
C796 C797 1.386 . S
C796 C798 1.391 . S
C797 C796 1.386 . S
C797 C801 1.393 . S
C798 H790 0.950 . S
C798 C796 1.391 . S
C798 C799 1.400 . S
C799 C798 1.400 . S
C799 C800 1.398 . S
C799 C805 1.491 . S
C800 H791 0.950 . S
C800 C799 1.398 . S
C800 C801 1.391 . S
C801 H789 0.950 . S
C801 C797 1.393 . S
C801 C800 1.391 . S
C802 H792 0.950 . S
C802 C803 1.386 . S
C802 C804 1.391 . S
C803 C802 1.386 . S
C803 C807 1.393 . S
C804 H793 0.950 . S
C804 C802 1.391 . S
C804 C805 1.400 . S
C805 C799 1.491 . S
C805 C804 1.400 . S
C805 C806 1.398 . S
C806 H794 0.950 . S
C806 C805 1.398 . S
C806 C807 1.391 . S
C807 H795 0.950 . S
C807 C803 1.393 . S
C807 C806 1.391 . S
H808 C816 0.950 . S
H809 C821 0.950 . S
H810 C818 0.950 . S
H811 C820 0.950 . S
H812 C822 0.950 . S
H813 C824 0.950 . S
H814 C826 0.950 . S
H815 C827 0.950 . S
C816 H808 0.950 . S
C816 C817 1.386 . S
C816 C818 1.391 . S
C817 C816 1.386 . S
C817 C821 1.393 . S
C818 H810 0.950 . S
C818 C816 1.391 . S
C818 C819 1.400 . S
C819 C818 1.400 . S
C819 C820 1.398 . S
C819 C825 1.491 . S
C820 H811 0.950 . S
C820 C819 1.398 . S
C820 C821 1.391 . S
C821 H809 0.950 . S
C821 C817 1.393 . S
C821 C820 1.391 . S
C822 H812 0.950 . S
C822 C823 1.386 . S
C822 C824 1.391 . S
C823 C822 1.386 . S
C823 C827 1.393 . S
C824 H813 0.950 . S
C824 C822 1.391 . S
C824 C825 1.400 . S
C825 C819 1.491 . S
C825 C824 1.400 . S
C825 C826 1.398 . S
C826 H814 0.950 . S
C826 C825 1.398 . S
C826 C827 1.391 . S
C827 H815 0.950 . S
C827 C823 1.393 . S
C827 C826 1.391 . S
H828 C836 0.950 . S
H829 C841 0.950 . S
H830 C838 0.950 . S
H831 C840 0.950 . S
H832 C842 0.950 . S
H833 C844 0.950 . S
H834 C846 0.950 . S
H835 C847 0.950 . S
C836 H828 0.950 . S
C836 C837 1.386 . S
C836 C838 1.391 . S
C837 C836 1.386 . S
C837 C841 1.393 . S
C838 H830 0.950 . S
C838 C836 1.391 . S
C838 C839 1.400 . S
C839 C838 1.400 . S
C839 C840 1.398 . S
C839 C845 1.491 . S
C840 H831 0.950 . S
C840 C839 1.398 . S
C840 C841 1.391 . S
C841 H829 0.950 . S
C841 C837 1.393 . S
C841 C840 1.391 . S
C842 H832 0.950 . S
C842 C843 1.386 . S
C842 C844 1.391 . S
C843 C842 1.386 . S
C843 C847 1.393 . S
C844 H833 0.950 . S
C844 C842 1.391 . S
C844 C845 1.400 . S
C845 C839 1.491 . S
C845 C844 1.400 . S
C845 C846 1.398 . S
C846 H834 0.950 . S
C846 C845 1.398 . S
C846 C847 1.391 . S
C847 H835 0.950 . S
C847 C843 1.393 . S
C847 C846 1.391 . S
C217 C195 0.896 . S
C223 C0 0.866 . S
C237 C156 1.033 . S
C243 C13 1.034 . S
C257 C26 0.930 . S
C263 C169 0.924 . S
C277 C182 0.996 . S
C283 C39 1.030 . S
C297 C117 1.067 . S
C303 C52 1.063 . S
C317 C65 0.927 . S
C323 C130 0.912 . S
C337 C78 1.015 . S
C343 C143 1.009 . S
C357 C91 0.885 . S
C363 C104 0.889 . S
C377 C70 1.165 . S
C383 C5 1.142 . S
C397 C86 1.434 . S
C403 C18 1.423 . S
C417 C96 1.270 . S
C423 C31 1.300 . S
C437 C49 1.481 . S
C443 C60 1.413 . S
C457 C8 1.350 . S
C463 C23 1.397 . S
C477 C36 1.511 . S
C483 C21 1.475 . S
C497 C34 1.410 . S
C503 C47 1.435 . S
C517 C10 1.429 . S
C523 C44 1.409 . S
C537 C101 1.420 . S
C543 C62 1.403 . S
C557 C57 1.330 . S
C563 C73 1.294 . S
C577 C75 1.381 . S
C583 C88 1.367 . S
C597 C99 1.240 . S
C603 C83 1.226 . S
C617 C174 1.139 . S
C623 C109 1.164 . S
C637 C122 1.438 . S
C643 C190 1.404 . S
C657 C200 1.300 . S
C663 C135 1.272 . S
C677 C164 1.430 . S
C683 C153 1.475 . S
C697 C112 1.348 . S
C703 C127 1.395 . S
C717 C125 1.454 . S
C723 C140 1.509 . S
C737 C151 1.434 . S
C743 C138 1.405 . S
C757 C114 1.432 . S
C763 C148 1.385 . S
C777 C205 1.421 . S
C783 C166 1.404 . S
C797 C161 1.336 . S
C803 C177 1.293 . S
C817 C179 1.382 . S
C823 C192 1.385 . S
C837 C203 1.230 . S
C843 C187 1.254 . S
