# Generated by pormake.
# Topology gme, (4)-cn, num edge types: 1
# Building blocks:
#     Node 0, Type 0, BuildingBlock: QUQFOY_clean_sbu_1, # of connection points: 4
#     Node 1, Type 0, BuildingBlock: QUQFOY_clean_sbu_1, # of connection points: 4
#     Node 2, Type 0, BuildingBlock: QUQFOY_clean_sbu_1, # of connection points: 4
#     Node 3, Type 0, BuildingBlock: QUQFOY_clean_sbu_1, # of connection points: 4
#     Node 4, Type 0, BuildingBlock: QUQFOY_clean_sbu_1, # of connection points: 4
#     Node 5, Type 0, BuildingBlock: QUQFOY_clean_sbu_1, # of connection points: 4
#     Node 6, Type 0, BuildingBlock: QUQFOY_clean_sbu_1, # of connection points: 4
#     Node 7, Type 0, BuildingBlock: QUQFOY_clean_sbu_1, # of connection points: 4
#     Node 8, Type 0, BuildingBlock: QUQFOY_clean_sbu_1, # of connection points: 4
#     Node 9, Type 0, BuildingBlock: QUQFOY_clean_sbu_1, # of connection points: 4
#     Node 10, Type 0, BuildingBlock: QUQFOY_clean_sbu_1, # of connection points: 4
#     Node 11, Type 0, BuildingBlock: QUQFOY_clean_sbu_1, # of connection points: 4
#     Node 12, Type 0, BuildingBlock: QUQFOY_clean_sbu_1, # of connection points: 4
#     Node 13, Type 0, BuildingBlock: QUQFOY_clean_sbu_1, # of connection points: 4
#     Node 14, Type 0, BuildingBlock: QUQFOY_clean_sbu_1, # of connection points: 4
#     Node 15, Type 0, BuildingBlock: QUQFOY_clean_sbu_1, # of connection points: 4
#     Node 16, Type 0, BuildingBlock: QUQFOY_clean_sbu_1, # of connection points: 4
#     Node 17, Type 0, BuildingBlock: QUQFOY_clean_sbu_1, # of connection points: 4
#     Node 18, Type 0, BuildingBlock: QUQFOY_clean_sbu_1, # of connection points: 4
#     Node 19, Type 0, BuildingBlock: QUQFOY_clean_sbu_1, # of connection points: 4
#     Node 20, Type 0, BuildingBlock: QUQFOY_clean_sbu_1, # of connection points: 4
#     Node 21, Type 0, BuildingBlock: QUQFOY_clean_sbu_1, # of connection points: 4
#     Node 22, Type 0, BuildingBlock: QUQFOY_clean_sbu_1, # of connection points: 4
#     Node 23, Type 0, BuildingBlock: QUQFOY_clean_sbu_1, # of connection points: 4
#     Edge 24, Type (0, 0), BuildingBlock: CIFDUS_clean_linker_0, # of connection points: 2
#     Edge 25, Type (0, 0), BuildingBlock: CIFDUS_clean_linker_0, # of connection points: 2
#     Edge 26, Type (0, 0), BuildingBlock: CIFDUS_clean_linker_0, # of connection points: 2
#     Edge 27, Type (0, 0), BuildingBlock: CIFDUS_clean_linker_0, # of connection points: 2
#     Edge 28, Type (0, 0), BuildingBlock: CIFDUS_clean_linker_0, # of connection points: 2
#     Edge 29, Type (0, 0), BuildingBlock: CIFDUS_clean_linker_0, # of connection points: 2
#     Edge 30, Type (0, 0), BuildingBlock: CIFDUS_clean_linker_0, # of connection points: 2
#     Edge 31, Type (0, 0), BuildingBlock: CIFDUS_clean_linker_0, # of connection points: 2
#     Edge 32, Type (0, 0), BuildingBlock: CIFDUS_clean_linker_0, # of connection points: 2
#     Edge 33, Type (0, 0), BuildingBlock: CIFDUS_clean_linker_0, # of connection points: 2
#     Edge 34, Type (0, 0), BuildingBlock: CIFDUS_clean_linker_0, # of connection points: 2
#     Edge 35, Type (0, 0), BuildingBlock: CIFDUS_clean_linker_0, # of connection points: 2
#     Edge 36, Type (0, 0), BuildingBlock: CIFDUS_clean_linker_0, # of connection points: 2
#     Edge 37, Type (0, 0), BuildingBlock: CIFDUS_clean_linker_0, # of connection points: 2
#     Edge 38, Type (0, 0), BuildingBlock: CIFDUS_clean_linker_0, # of connection points: 2
#     Edge 39, Type (0, 0), BuildingBlock: CIFDUS_clean_linker_0, # of connection points: 2
#     Edge 40, Type (0, 0), BuildingBlock: CIFDUS_clean_linker_0, # of connection points: 2
#     Edge 41, Type (0, 0), BuildingBlock: CIFDUS_clean_linker_0, # of connection points: 2
#     Edge 42, Type (0, 0), BuildingBlock: CIFDUS_clean_linker_0, # of connection points: 2
#     Edge 43, Type (0, 0), BuildingBlock: CIFDUS_clean_linker_0, # of connection points: 2
#     Edge 44, Type (0, 0), BuildingBlock: CIFDUS_clean_linker_0, # of connection points: 2
#     Edge 45, Type (0, 0), BuildingBlock: CIFDUS_clean_linker_0, # of connection points: 2
#     Edge 46, Type (0, 0), BuildingBlock: CIFDUS_clean_linker_0, # of connection points: 2
#     Edge 47, Type (0, 0), BuildingBlock: CIFDUS_clean_linker_0, # of connection points: 2
#     Edge 48, Type (0, 0), BuildingBlock: CIFDUS_clean_linker_0, # of connection points: 2
#     Edge 49, Type (0, 0), BuildingBlock: CIFDUS_clean_linker_0, # of connection points: 2
#     Edge 50, Type (0, 0), BuildingBlock: CIFDUS_clean_linker_0, # of connection points: 2
#     Edge 51, Type (0, 0), BuildingBlock: CIFDUS_clean_linker_0, # of connection points: 2
#     Edge 52, Type (0, 0), BuildingBlock: CIFDUS_clean_linker_0, # of connection points: 2
#     Edge 53, Type (0, 0), BuildingBlock: CIFDUS_clean_linker_0, # of connection points: 2
#     Edge 54, Type (0, 0), BuildingBlock: CIFDUS_clean_linker_0, # of connection points: 2
#     Edge 55, Type (0, 0), BuildingBlock: CIFDUS_clean_linker_0, # of connection points: 2
#     Edge 56, Type (0, 0), BuildingBlock: CIFDUS_clean_linker_0, # of connection points: 2
#     Edge 57, Type (0, 0), BuildingBlock: CIFDUS_clean_linker_0, # of connection points: 2
#     Edge 58, Type (0, 0), BuildingBlock: CIFDUS_clean_linker_0, # of connection points: 2
#     Edge 59, Type (0, 0), BuildingBlock: CIFDUS_clean_linker_0, # of connection points: 2
#     Edge 60, Type (0, 0), BuildingBlock: CIFDUS_clean_linker_0, # of connection points: 2
#     Edge 61, Type (0, 0), BuildingBlock: CIFDUS_clean_linker_0, # of connection points: 2
#     Edge 62, Type (0, 0), BuildingBlock: CIFDUS_clean_linker_0, # of connection points: 2
#     Edge 63, Type (0, 0), BuildingBlock: CIFDUS_clean_linker_0, # of connection points: 2
#     Edge 64, Type (0, 0), BuildingBlock: CIFDUS_clean_linker_0, # of connection points: 2
#     Edge 65, Type (0, 0), BuildingBlock: CIFDUS_clean_linker_0, # of connection points: 2
#     Edge 66, Type (0, 0), BuildingBlock: CIFDUS_clean_linker_0, # of connection points: 2
#     Edge 67, Type (0, 0), BuildingBlock: CIFDUS_clean_linker_0, # of connection points: 2
#     Edge 68, Type (0, 0), BuildingBlock: CIFDUS_clean_linker_0, # of connection points: 2
#     Edge 69, Type (0, 0), BuildingBlock: CIFDUS_clean_linker_0, # of connection points: 2
#     Edge 70, Type (0, 0), BuildingBlock: CIFDUS_clean_linker_0, # of connection points: 2
#     Edge 71, Type (0, 0), BuildingBlock: CIFDUS_clean_linker_0, # of connection points: 2
# Relax obj value: 0.037
# Max RMSD: 0.057
# Mean RMSD: 0.057
data_MOF--net-gme--node1-QUQFOY_clean_sbu_1--edge1-CIFDUS_clean_linker_0
_symmetry_space_group_name_H-M    P1
_symmetry_Int_Tables_number       1
_symmetry_cell_setting            triclinic
loop_
_symmetry_equiv_pos_as_xyz
'x, y, z'
_cell_length_a     55.57361
_cell_length_b     55.657749
_cell_length_c     48.567145
_cell_angle_alpha  90.033307
_cell_angle_beta   90.211757
_cell_angle_gamma 119.8727
loop_
_atom_site_label
_atom_site_type_symbol
_atom_site_fract_x
_atom_site_fract_y
_atom_site_fract_z
_atom_type_partial_charge
O0 O 0.42669 0.09993 0.17396 0.0
Cd1 Cd 0.44395 0.10839 0.13508 0.0
Cd2 Cd 0.41049 0.05239 0.13349 0.0
O3 O 0.39522 0.0556 0.17133 0.0
O4 O 0.46816 0.14932 0.13776 0.0
O5 O 0.4325 0.1298 0.10928 0.0
C6 C 0.4527 0.15208 0.11976 0.0
C7 C 0.38693 0.03993 0.09169 0.0
C8 C 0.40701 0.07826 0.18476 0.0
C9 C 0.47073 0.07284 0.12837 0.0
O10 O 0.44729 0.0519 0.13376 0.0
O11 O 0.47307 0.09666 0.12578 0.0
O12 O 0.38324 0.0214 0.10982 0.0
O13 O 0.40248 0.06575 0.09834 0.0
O14 O 0.3324 0.41559 0.68146 0.0
Cd15 Cd 0.33782 0.43452 0.64351 0.0
Cd16 Cd 0.36254 0.40182 0.63522 0.0
O17 O 0.34779 0.38644 0.67415 0.0
O18 O 0.32027 0.45768 0.65036 0.0
O19 O 0.30383 0.42422 0.61947 0.0
C20 C 0.3018 0.44356 0.63204 0.0
C21 C 0.35474 0.37473 0.59584 0.0
C22 C 0.33703 0.39666 0.69004 0.0
C23 C 0.3996 0.46332 0.63204 0.0
O24 O 0.3982 0.43989 0.63393 0.0
O25 O 0.37769 0.46511 0.63331 0.0
O26 O 0.3712 0.37574 0.6152 0.0
O27 O 0.34125 0.38783 0.59966 0.0
O28 O 0.91152 0.32666 0.17774 0.0
Cd29 Cd 0.901 0.33435 0.13918 0.0
Cd30 Cd 0.95723 0.35721 0.13501 0.0
O31 O 0.95618 0.34102 0.17364 0.0
O32 O 0.86004 0.31691 0.14312 0.0
O33 O 0.87918 0.30117 0.11389 0.0
C34 C 0.85703 0.29873 0.12504 0.0
C35 C 0.96944 0.34457 0.09405 0.0
C36 C 0.9341 0.32993 0.18786 0.0
C37 C 0.93557 0.39629 0.12995 0.0
O38 O 0.95703 0.39407 0.13365 0.0
O39 O 0.91161 0.37477 0.12951 0.0
O40 O 0.98816 0.36069 0.11155 0.0
O41 O 0.94365 0.3341 0.10085 0.0
O42 O 0.58922 0.91574 0.67974 0.0
Cd43 Cd 0.56812 0.8987 0.64327 0.0
Cd44 Cd 0.59489 0.95502 0.63168 0.0
O45 O 0.61341 0.9603 0.66997 0.0
O46 O 0.54788 0.85875 0.65328 0.0
O47 O 0.57885 0.87491 0.62011 0.0
C48 C 0.5613 0.85409 0.63453 0.0
C49 C 0.61821 0.96829 0.58988 0.0
C50 C 0.60662 0.94047 0.68681 0.0
C51 C 0.53321 0.9257 0.63087 0.0
O52 O 0.55526 0.94918 0.63104 0.0
O53 O 0.53447 0.90364 0.63364 0.0
O54 O 0.6182 0.98638 0.60656 0.0
O55 O 0.60634 0.94273 0.59782 0.0
O56 O 0.68119 0.58192 0.18398 0.0
Cd57 Cd 0.67466 0.56584 0.14454 0.0
Cd58 Cd 0.65019 0.59907 0.14303 0.0
O59 O 0.66736 0.61279 0.18184 0.0
O60 O 0.69208 0.54218 0.14829 0.0
O61 O 0.70898 0.57825 0.12069 0.0
C62 C 0.71113 0.55821 0.13146 0.0
C63 C 0.65707 0.62635 0.10423 0.0
C64 C 0.67813 0.60085 0.19525 0.0
C65 C 0.6126 0.53829 0.13514 0.0
O66 O 0.61429 0.56129 0.14125 0.0
O67 O 0.63447 0.53648 0.13304 0.0
O68 O 0.64199 0.62619 0.12449 0.0
O69 O 0.67004 0.61257 0.10699 0.0
O70 O 0.10069 0.67902 0.67894 0.0
Cd71 Cd 0.11947 0.67804 0.64253 0.0
Cd72 Cd 0.06273 0.64692 0.62886 0.0
O73 O 0.05621 0.65757 0.66789 0.0
O74 O 0.15925 0.69927 0.65391 0.0
O75 O 0.14234 0.71393 0.62112 0.0
C76 C 0.16327 0.71791 0.63604 0.0
C77 C 0.04607 0.65577 0.58812 0.0
C78 C 0.07552 0.67023 0.68549 0.0
C79 C 0.0952 0.61724 0.62727 0.0
O80 O 0.07126 0.61492 0.62685 0.0
O81 O 0.1167 0.64075 0.63132 0.0
O82 O 0.02969 0.63657 0.60485 0.0
O83 O 0.07179 0.67104 0.59534 0.0
O84 O 0.9108 0.5822 0.35888 0.0
Cd85 Cd 0.90082 0.56453 0.39755 0.0
Cd86 Cd 0.95747 0.5986 0.40114 0.0
O87 O 0.95509 0.61372 0.36276 0.0
O88 O 0.85996 0.54033 0.39296 0.0
O89 O 0.87805 0.57536 0.42209 0.0
C90 C 0.85627 0.55541 0.41058 0.0
C91 C 0.97128 0.62253 0.44273 0.0
C92 C 0.93282 0.60189 0.34861 0.0
C93 C 0.93653 0.53813 0.4062 0.0
O94 O 0.95756 0.56171 0.40149 0.0
O95 O 0.91246 0.53548 0.40771 0.0
O96 O 0.9893 0.62559 0.42428 0.0
O97 O 0.94523 0.60761 0.43647 0.0
O98 O 0.32654 0.90877 0.86242 0.0
Cd99 Cd 0.33263 0.89783 0.90141 0.0
Cd100 Cd 0.36319 0.95391 0.90397 0.0
O101 O 0.34718 0.95428 0.86546 0.0
O102 O 0.30971 0.85676 0.89909 0.0
O103 O 0.29979 0.88137 0.92761 0.0
C104 C 0.29349 0.85751 0.91743 0.0
C105 C 0.3534 0.96902 0.94483 0.0
C106 C 0.33308 0.93207 0.85171 0.0
C107 C 0.3948 0.92409 0.9095 0.0
O108 O 0.39671 0.94751 0.90519 0.0
O109 O 0.37108 0.90234 0.91071 0.0
O110 O 0.37102 0.98645 0.92746 0.0
O111 O 0.34012 0.94307 0.93806 0.0
O112 O 0.41867 0.32964 0.3538 0.0
Cd113 Cd 0.43536 0.33282 0.3927 0.0
Cd114 Cd 0.40431 0.35825 0.40105 0.0
O115 O 0.3897 0.34521 0.36135 0.0
O116 O 0.45408 0.31033 0.3888 0.0
O117 O 0.41893 0.29862 0.41694 0.0
C118 C 0.43678 0.29297 0.40623 0.0
C119 C 0.37661 0.35079 0.43973 0.0
C120 C 0.40019 0.33495 0.34514 0.0
C121 C 0.46613 0.39361 0.40691 0.0
O122 O 0.44301 0.39288 0.4044 0.0
O123 O 0.46735 0.37144 0.40486 0.0
O124 O 0.37875 0.36789 0.42066 0.0
O125 O 0.38872 0.33636 0.43586 0.0
O126 O 0.09366 0.41481 0.85971 0.0
Cd127 Cd 0.10557 0.43206 0.8986 0.0
Cd128 Cd 0.0504 0.40023 0.90541 0.0
O129 O 0.04956 0.38432 0.86669 0.0
O130 O 0.14693 0.45204 0.89639 0.0
O131 O 0.12352 0.41682 0.92439 0.0
C132 C 0.1471 0.4352 0.91444 0.0
C133 C 0.03738 0.37585 0.94661 0.0
C134 C 0.0705 0.3954 0.85084 0.0
C135 C 0.07308 0.46117 0.90914 0.0
O136 O 0.05136 0.43765 0.90633 0.0
O137 O 0.09692 0.46318 0.90889 0.0
O138 O 0.01899 0.37396 0.92904 0.0
O139 O 0.06325 0.39008 0.93974 0.0
O140 O 0.67809 0.09048 0.35325 0.0
Cd141 Cd 0.67576 0.10677 0.39078 0.0
Cd142 Cd 0.64368 0.05153 0.40077 0.0
O143 O 0.65557 0.04569 0.36208 0.0
O144 O 0.70108 0.1471 0.38457 0.0
O145 O 0.70962 0.12372 0.41595 0.0
C146 C 0.71723 0.14686 0.40345 0.0
C147 C 0.65305 0.03675 0.44219 0.0
C148 C 0.66923 0.06561 0.34554 0.0
C149 C 0.61486 0.08452 0.40285 0.0
O150 O 0.6118 0.06032 0.40216 0.0
O151 O 0.63889 0.10567 0.40038 0.0
O152 O 0.63407 0.01947 0.42558 0.0
O153 O 0.66793 0.06223 0.43435 0.0
O154 O 0.59172 0.6787 0.86376 0.0
Cd155 Cd 0.57386 0.67698 0.9016 0.0
Cd156 Cd 0.59791 0.644 0.91164 0.0
O157 O 0.61381 0.65573 0.8723 0.0
O158 O 0.55772 0.70153 0.89539 0.0
O159 O 0.5905 0.71119 0.92622 0.0
C160 C 0.57409 0.71801 0.91406 0.0
C161 C 0.62512 0.64782 0.95011 0.0
C162 C 0.60726 0.66931 0.8558 0.0
C163 C 0.53583 0.61619 0.91455 0.0
O164 O 0.55697 0.61305 0.91395 0.0
O165 O 0.53857 0.64015 0.91178 0.0
O166 O 0.61981 0.62958 0.93113 0.0
O167 O 0.61604 0.66496 0.94659 0.0
O168 O 0.58824 0.90956 0.85859 0.0
Cd169 Cd 0.57046 0.89887 0.89715 0.0
Cd170 Cd 0.60393 0.95523 0.90138 0.0
O171 O 0.61934 0.95388 0.86296 0.0
O172 O 0.54681 0.85804 0.89214 0.0
O173 O 0.58185 0.87628 0.92138 0.0
C174 C 0.56217 0.85449 0.90963 0.0
C175 C 0.62786 0.96804 0.94306 0.0
C176 C 0.60778 0.93184 0.84857 0.0
C177 C 0.54327 0.9338 0.90609 0.0
O178 O 0.56683 0.95501 0.90174 0.0
O179 O 0.54088 0.90984 0.90737 0.0
O180 O 0.63078 0.98646 0.92513 0.0
O181 O 0.61295 0.94218 0.93626 0.0
O182 O 0.68076 0.584 0.36514 0.0
Cd183 Cd 0.67781 0.56502 0.4026 0.0
Cd184 Cd 0.64776 0.59048 0.41344 0.0
O185 O 0.66044 0.60835 0.37491 0.0
O186 O 0.70224 0.54869 0.39699 0.0
O187 O 0.7114 0.58105 0.42807 0.0
C188 C 0.71843 0.56481 0.41599 0.0
C189 C 0.65631 0.61471 0.45485 0.0
C190 C 0.67302 0.60109 0.35791 0.0
C191 C 0.61663 0.52859 0.41408 0.0
O192 O 0.6148 0.55046 0.41396 0.0
O193 O 0.64017 0.53019 0.41169 0.0
O194 O 0.63803 0.61346 0.43753 0.0
O195 O 0.67095 0.60349 0.44784 0.0
O196 O 0.10311 0.6795 0.85983 0.0
Cd197 Cd 0.11421 0.67316 0.89866 0.0
Cd198 Cd 0.05571 0.64201 0.89963 0.0
O199 O 0.05737 0.65833 0.8608 0.0
O200 O 0.15513 0.69212 0.89371 0.0
O201 O 0.13569 0.70704 0.92342 0.0
C202 C 0.15792 0.71011 0.91187 0.0
C203 C 0.03384 0.64771 0.9379 0.0
C204 C 0.08011 0.67283 0.84812 0.0
C205 C 0.08576 0.61064 0.90717 0.0
O206 O 0.0625 0.60888 0.90197 0.0
O207 O 0.10771 0.63419 0.90857 0.0
O208 O 0.0197 0.63107 0.91809 0.0
O209 O 0.06048 0.66248 0.93512 0.0
O210 O 0.41972 0.09503 0.35392 0.0
Cd211 Cd 0.43947 0.11053 0.39127 0.0
Cd212 Cd 0.40645 0.05536 0.40313 0.0
O213 O 0.38953 0.05166 0.36426 0.0
O214 O 0.46161 0.15093 0.38301 0.0
O215 O 0.4284 0.13423 0.41401 0.0
C216 C 0.44708 0.15534 0.4007 0.0
C217 C 0.38223 0.04376 0.4445 0.0
C218 C 0.39994 0.07132 0.34689 0.0
C219 C 0.46772 0.07767 0.40539 0.0
O220 O 0.44383 0.05614 0.40477 0.0
O221 O 0.47027 0.10155 0.40246 0.0
O222 O 0.3805 0.02486 0.42783 0.0
O223 O 0.39629 0.06933 0.43667 0.0
O224 O 0.32706 0.42576 0.86168 0.0
Cd225 Cd 0.33363 0.44334 0.90042 0.0
Cd226 Cd 0.35612 0.40922 0.90533 0.0
O227 O 0.33933 0.39392 0.86668 0.0
O228 O 0.31595 0.46668 0.89574 0.0
O229 O 0.29956 0.43141 0.92439 0.0
C230 C 0.29712 0.45104 0.91297 0.0
C231 C 0.34654 0.38448 0.94633 0.0
C232 C 0.32945 0.40585 0.85189 0.0
C233 C 0.39533 0.47001 0.91061 0.0
O234 O 0.39283 0.44634 0.9063 0.0
O235 O 0.37394 0.47277 0.91137 0.0
O236 O 0.3619 0.38238 0.92765 0.0
O237 O 0.33478 0.39896 0.94066 0.0
O238 O 0.92123 0.32753 0.35774 0.0
Cd239 Cd 0.90365 0.3297 0.39446 0.0
Cd240 Cd 0.9626 0.36218 0.40531 0.0
O241 O 0.96629 0.34967 0.36618 0.0
O242 O 0.86406 0.31086 0.38253 0.0
O243 O 0.87862 0.29389 0.41529 0.0
C244 C 0.85847 0.29163 0.40016 0.0
C245 C 0.98594 0.35813 0.44361 0.0
C246 C 0.94598 0.3361 0.34985 0.0
C247 C 0.92933 0.39113 0.40861 0.0
O248 O 0.95336 0.39371 0.40764 0.0
O249 O 0.90776 0.36746 0.40577 0.0
O250 O 0.99893 0.37615 0.42459 0.0
O251 O 0.95965 0.34137 0.44025 0.0
O252 O 0.10841 0.42456 0.67811 0.0
Cd253 Cd 0.11744 0.43958 0.63842 0.0
Cd254 Cd 0.06118 0.40763 0.63598 0.0
O255 O 0.064 0.39343 0.67469 0.0
O256 O 0.15879 0.45895 0.63902 0.0
O257 O 0.13357 0.42228 0.61301 0.0
C258 C 0.15771 0.44062 0.62212 0.0
C259 C 0.04028 0.38015 0.59731 0.0
C260 C 0.08629 0.40539 0.68877 0.0
C261 C 0.08502 0.46883 0.62917 0.0
O262 O 0.06352 0.44572 0.6343 0.0
O263 O 0.10868 0.47053 0.62763 0.0
O264 O 0.02564 0.38088 0.61755 0.0
O265 O 0.06701 0.39355 0.59998 0.0
O266 O 0.6871 0.09961 0.17263 0.0
Cd267 Cd 0.68176 0.11072 0.13343 0.0
Cd268 Cd 0.6516 0.05436 0.13062 0.0
O269 O 0.66677 0.05409 0.16961 0.0
O270 O 0.70437 0.15187 0.13608 0.0
O271 O 0.71512 0.12767 0.10789 0.0
C272 C 0.72106 0.15142 0.11811 0.0
C273 C 0.66171 0.03916 0.08994 0.0
C274 C 0.68039 0.07631 0.18346 0.0
C275 C 0.61963 0.08372 0.12435 0.0
O276 O 0.61796 0.06044 0.12882 0.0
O277 O 0.64322 0.10567 0.12332 0.0
O278 O 0.64406 0.02176 0.10731 0.0
O279 O 0.67495 0.06513 0.09668 0.0
O280 O 0.5862 0.68121 0.6821 0.0
Cd281 Cd 0.56974 0.67568 0.64289 0.0
Cd282 Cd 0.59621 0.64554 0.64069 0.0
O283 O 0.61193 0.66133 0.67955 0.0
O284 O 0.55137 0.69848 0.64558 0.0
O285 O 0.58611 0.70902 0.61732 0.0
C286 C 0.56854 0.7152 0.62772 0.0
C287 C 0.62094 0.65429 0.59987 0.0
C288 C 0.6031 0.67491 0.69314 0.0
C289 C 0.53487 0.6137 0.63413 0.0
O290 O 0.55652 0.6121 0.639 0.0
O291 O 0.53634 0.63723 0.63283 0.0
O292 O 0.62098 0.63719 0.61786 0.0
O293 O 0.6085 0.66796 0.60613 0.0
O294 O 0.91676 0.58962 0.17808 0.0
Cd295 Cd 0.90119 0.5716 0.14003 0.0
Cd296 Cd 0.95813 0.59664 0.13078 0.0
O297 O 0.96172 0.6133 0.16977 0.0
O298 O 0.86038 0.55489 0.14556 0.0
O299 O 0.88335 0.58792 0.11527 0.0
C300 C 0.86013 0.57126 0.12704 0.0
C301 C 0.98072 0.6228 0.09188 0.0
C302 C 0.94146 0.60607 0.18615 0.0
C303 C 0.92554 0.53466 0.12784 0.0
O304 O 0.94948 0.55609 0.12921 0.0
O305 O 0.90388 0.53685 0.12976 0.0
O306 O 0.99419 0.61878 0.11133 0.0
O307 O 0.95441 0.61318 0.09521 0.0
O308 O 0.33264 0.9245 0.68157 0.0
Cd309 Cd 0.33655 0.91063 0.64324 0.0
Cd310 Cd 0.36108 0.96604 0.6344 0.0
O311 O 0.34803 0.9688 0.67356 0.0
O312 O 0.31518 0.86964 0.64833 0.0
O313 O 0.3024 0.89117 0.61868 0.0
C314 C 0.29752 0.86834 0.63033 0.0
C315 C 0.34885 0.97869 0.59331 0.0
C316 C 0.33772 0.94825 0.6899 0.0
C317 C 0.39779 0.94129 0.63055 0.0
O318 O 0.39671 0.96351 0.63237 0.0
O319 O 0.37571 0.91786 0.63236 0.0
O320 O 0.36635 0.99718 0.61016 0.0
O321 O 0.33675 0.95301 0.60089 0.0
O322 O 0.42509 0.32167 0.17161 0.0
Cd323 Cd 0.441 0.32744 0.13222 0.0
Cd324 Cd 0.41441 0.35725 0.13039 0.0
O325 O 0.39902 0.34119 0.16907 0.0
O326 O 0.45939 0.30454 0.13351 0.0
O327 O 0.42408 0.29458 0.10588 0.0
C328 C 0.44195 0.28829 0.11537 0.0
C329 C 0.38867 0.3485 0.08993 0.0
C330 C 0.40815 0.32784 0.18267 0.0
C331 C 0.47585 0.38942 0.12465 0.0
O332 O 0.45411 0.39088 0.1293 0.0
O333 O 0.47442 0.36594 0.12289 0.0
O334 O 0.38921 0.36571 0.10815 0.0
O335 O 0.40142 0.33496 0.09561 0.0
H336 H 0.40772 0.1097 0.30859 0.0
H337 H 0.37419 0.02178 0.3189 0.0
H338 H 0.36983 0.01533 0.26885 0.0
H339 H 0.38189 0.03588 0.2221 0.0
H340 H 0.41679 0.12423 0.21307 0.0
H341 H 0.41398 0.12919 0.26252 0.0
C342 C 0.39901 0.08903 0.29994 0.0
C343 C 0.39169 0.06633 0.31745 0.0
C344 C 0.39707 0.08558 0.27126 0.0
C345 C 0.38005 0.03964 0.3059 0.0
C346 C 0.37775 0.03597 0.27725 0.0
C347 C 0.38828 0.05609 0.23092 0.0
C348 C 0.39994 0.0797 0.2139 0.0
C349 C 0.38712 0.05895 0.25968 0.0
C350 C 0.40812 0.10576 0.22569 0.0
C351 C 0.40656 0.10866 0.25401 0.0
H352 H 0.305 0.40547 0.72585 0.0
H353 H 0.35977 0.37158 0.72104 0.0
H354 H 0.35957 0.36798 0.77131 0.0
H355 H 0.34871 0.38046 0.81686 0.0
H356 H 0.2949 0.41563 0.82044 0.0
H357 H 0.28968 0.41243 0.77061 0.0
C358 C 0.31657 0.39687 0.73573 0.0
C359 C 0.33267 0.38918 0.71968 0.0
C360 C 0.31675 0.39532 0.76456 0.0
C361 C 0.34722 0.37772 0.73286 0.0
C362 C 0.34727 0.37583 0.76165 0.0
C363 C 0.33537 0.38683 0.80676 0.0
C364 C 0.32254 0.39864 0.82239 0.0
C365 C 0.33283 0.38544 0.77779 0.0
C366 C 0.30533 0.40683 0.80893 0.0
C367 C 0.30233 0.40504 0.78038 0.0
H368 H 0.97775 0.35224 0.22423 0.0
H369 H 0.89067 0.29164 0.21743 0.0
H370 H 0.88779 0.2854 0.26716 0.0
H371 H 0.90812 0.30155 0.31265 0.0
H372 H 0.99455 0.36362 0.3206 0.0
H373 H 0.99969 0.36448 0.27051 0.0
C374 C 0.95834 0.33721 0.23362 0.0
C375 C 0.93438 0.32267 0.21716 0.0
C376 C 0.95662 0.3342 0.26249 0.0
C377 C 0.90934 0.30335 0.22964 0.0
C378 C 0.90764 0.29978 0.25811 0.0
C379 C 0.92823 0.31499 0.30352 0.0
C380 C 0.95079 0.33279 0.32038 0.0
C381 C 0.93086 0.31582 0.27477 0.0
C382 C 0.97678 0.34975 0.30814 0.0
C383 C 0.97969 0.35038 0.27945 0.0
H384 H 0.60553 0.90359 0.72375 0.0
H385 H 0.62876 0.98961 0.71542 0.0
H386 H 0.63534 0.99586 0.76534 0.0
H387 H 0.62771 0.97488 0.81187 0.0
H388 H 0.60258 0.88824 0.81908 0.0
H389 H 0.60392 0.88438 0.76924 0.0
C390 C 0.61249 0.92385 0.73276 0.0
C391 C 0.61621 0.94596 0.71589 0.0
C392 C 0.61568 0.92713 0.76142 0.0
C393 C 0.62564 0.97218 0.72791 0.0
C394 C 0.62923 0.97572 0.75652 0.0
C395 C 0.62325 0.95538 0.80252 0.0
C396 C 0.61474 0.9318 0.81915 0.0
C397 C 0.62335 0.95308 0.77359 0.0
C398 C 0.60888 0.90662 0.80673 0.0
C399 C 0.60956 0.90435 0.7782 0.0
H400 H 0.70612 0.59699 0.31962 0.0
H401 H 0.64645 0.62431 0.33014 0.0
H402 H 0.64534 0.63028 0.28028 0.0
H403 H 0.65683 0.62172 0.23325 0.0
H404 H 0.71539 0.59276 0.22388 0.0
H405 H 0.72159 0.59376 0.27357 0.0
C406 C 0.69315 0.60465 0.31111 0.0
C407 C 0.67611 0.6098 0.32862 0.0
C408 C 0.69224 0.60753 0.28248 0.0
C409 C 0.65974 0.62009 0.31718 0.0
C410 C 0.65896 0.62335 0.28861 0.0
C411 C 0.6714 0.61625 0.24209 0.0
C412 C 0.68536 0.60685 0.22485 0.0
C413 C 0.67446 0.61627 0.27096 0.0
C414 C 0.70412 0.59974 0.23666 0.0
C415 C 0.70767 0.60026 0.26512 0.0
H416 H 0.11047 0.70509 0.72441 0.0
H417 H 0.0261 0.6393 0.71253 0.0
H418 H 0.01863 0.63651 0.76237 0.0
H419 H 0.03832 0.6486 0.80962 0.0
H420 H 0.1233 0.71376 0.82034 0.0
H421 H 0.12809 0.72107 0.77083 0.0
C422 C 0.09027 0.69042 0.73265 0.0
C423 C 0.06902 0.67218 0.71476 0.0
C424 C 0.0863 0.68861 0.76126 0.0
C425 C 0.04287 0.65358 0.72581 0.0
C426 C 0.03864 0.65183 0.75436 0.0
C427 C 0.05766 0.66479 0.80114 0.0
C428 C 0.08054 0.68031 0.81871 0.0
C429 C 0.06052 0.66862 0.77236 0.0
C430 C 0.10547 0.70123 0.80733 0.0
C431 C 0.10828 0.70544 0.77897 0.0
H432 H 0.90348 0.60116 0.22394 0.0
H433 H 0.99059 0.62855 0.21504 0.0
H434 H 0.99667 0.63343 0.26506 0.0
H435 H 0.97573 0.62383 0.31165 0.0
H436 H 0.88813 0.59477 0.31943 0.0
H437 H 0.88391 0.59698 0.26971 0.0
C438 C 0.92392 0.60861 0.23285 0.0
C439 C 0.94643 0.61408 0.21572 0.0
C440 C 0.92716 0.61087 0.26158 0.0
C441 C 0.97283 0.62407 0.2277 0.0
C442 C 0.9763 0.62672 0.25636 0.0
C443 C 0.95589 0.61864 0.30247 0.0
C444 C 0.93222 0.60885 0.31924 0.0
C445 C 0.95342 0.61931 0.27359 0.0
C446 C 0.90662 0.60207 0.307 0.0
C447 C 0.90414 0.60326 0.27853 0.0
H448 H 0.35449 0.97653 0.81646 0.0
H449 H 0.29573 0.88883 0.82068 0.0
H450 H 0.28936 0.88705 0.77104 0.0
H451 H 0.30468 0.90875 0.72608 0.0
H452 H 0.36391 0.99606 0.7206 0.0
H453 H 0.36543 0.99972 0.77093 0.0
C454 C 0.33989 0.95717 0.80656 0.0
C455 C 0.32599 0.93277 0.82232 0.0
C456 C 0.33654 0.95613 0.7777 0.0
C457 C 0.30706 0.90787 0.80911 0.0
C458 C 0.30337 0.90679 0.78065 0.0
C459 C 0.31759 0.92871 0.73586 0.0
C460 C 0.33443 0.95199 0.71962 0.0
C461 C 0.31869 0.93054 0.76468 0.0
C462 C 0.35074 0.97778 0.73261 0.0
C463 C 0.35178 0.97983 0.76142 0.0
H464 H 0.40796 0.30271 0.30863 0.0
H465 H 0.37731 0.36008 0.3145 0.0
H466 H 0.37397 0.3607 0.26422 0.0
H467 H 0.38529 0.34918 0.21846 0.0
H468 H 0.41653 0.29211 0.21377 0.0
H469 H 0.41381 0.28699 0.26354 0.0
C470 C 0.40016 0.31507 0.29896 0.0
C471 C 0.39326 0.3316 0.31532 0.0
C472 C 0.39861 0.31557 0.27014 0.0
C473 C 0.38281 0.34717 0.30243 0.0
C474 C 0.38107 0.34767 0.27364 0.0
C475 C 0.39097 0.33522 0.22829 0.0
C476 C 0.40151 0.3214 0.21231 0.0
C477 C 0.38971 0.33258 0.25723 0.0
C478 C 0.40872 0.30333 0.22548 0.0
C479 C 0.4072 0.30038 0.25402 0.0
H480 H 0.04226 0.37862 0.72406 0.0
H481 H 0.1316 0.41818 0.7202 0.0
H482 H 0.13415 0.4153 0.76997 0.0
H483 H 0.11185 0.40689 0.81481 0.0
H484 H 0.02277 0.36847 0.81988 0.0
H485 H 0.01928 0.36509 0.76959 0.0
C486 C 0.06221 0.38611 0.73409 0.0
C487 C 0.08672 0.39899 0.71837 0.0
C488 C 0.06364 0.38481 0.76301 0.0
C489 C 0.11242 0.40854 0.73174 0.0
C490 C 0.11394 0.40692 0.76027 0.0
C491 C 0.0916 0.39738 0.80498 0.0
C492 C 0.06766 0.38831 0.8211 0.0
C493 C 0.0898 0.39595 0.77615 0.0
C494 C 0.04157 0.37569 0.80799 0.0
C495 C 0.03957 0.37392 0.77919 0.0
H496 H 0.70602 0.10199 0.30909 0.0
H497 H 0.63964 0.01738 0.31598 0.0
H498 H 0.63959 0.01181 0.26594 0.0
H499 H 0.6543 0.0332 0.2198 0.0
H500 H 0.71986 0.1184 0.214 0.0
H501 H 0.7245 0.12134 0.26391 0.0
C502 C 0.69179 0.08216 0.29972 0.0
C503 C 0.67259 0.06028 0.31624 0.0
C504 C 0.69157 0.07927 0.27101 0.0
C505 C 0.6546 0.03462 0.30377 0.0
C506 C 0.65445 0.03147 0.2751 0.0
C507 C 0.67001 0.05218 0.22945 0.0
C508 C 0.68644 0.07566 0.21315 0.0
C509 C 0.67224 0.05396 0.25842 0.0
C510 C 0.70669 0.10012 0.22603 0.0
C511 C 0.70935 0.10187 0.25461 0.0
H512 H 0.62167 0.65048 0.73026 0.0
H513 H 0.5998 0.71454 0.72261 0.0
H514 H 0.60254 0.72073 0.77233 0.0
H515 H 0.60526 0.70417 0.81808 0.0
H516 H 0.62596 0.63944 0.82684 0.0
H517 H 0.63002 0.63768 0.77681 0.0
C518 C 0.61812 0.66619 0.73945 0.0
C519 C 0.61016 0.68174 0.72269 0.0
C520 C 0.61922 0.66936 0.76835 0.0
C521 C 0.60559 0.70201 0.73499 0.0
C522 C 0.60711 0.70557 0.76348 0.0
C523 C 0.61108 0.68994 0.80913 0.0
C524 C 0.61491 0.67171 0.82623 0.0
C525 C 0.61295 0.68873 0.78039 0.0
C526 C 0.62281 0.65368 0.81421 0.0
C527 C 0.62497 0.65254 0.78554 0.0
H528 H 0.41604 0.16563 0.0965 0.0
H529 H 0.49893 0.20132 0.13001 0.0
H530 H 0.50392 0.24727 0.12847 0.0
H531 H 0.48298 0.27643 0.12313 0.0
H532 H 0.39982 0.24171 0.09089 0.0
H533 H 0.39683 0.19645 0.086 0.0
C534 C 0.43538 0.18357 0.10288 0.0
C535 C 0.45695 0.17999 0.11366 0.0
C536 C 0.43796 0.21008 0.10246 0.0
C537 C 0.48188 0.20342 0.1219 0.0
C538 C 0.48476 0.22975 0.12109 0.0
C539 C 0.46431 0.25906 0.11466 0.0
C540 C 0.44152 0.26232 0.10775 0.0
C541 C 0.46264 0.23317 0.11231 0.0
C542 C 0.41764 0.23972 0.09644 0.0
C543 C 0.41588 0.2138 0.09379 0.0
H544 H 0.21046 0.4785 0.6358 0.0
H545 H 0.16217 0.39957 0.59515 0.0
H546 H 0.20342 0.39448 0.59211 0.0
H547 H 0.25226 0.41045 0.60557 0.0
H548 H 0.29906 0.48883 0.64777 0.0
H549 H 0.25944 0.49612 0.6455 0.0
C550 C 0.20895 0.46032 0.62591 0.0
C551 C 0.18318 0.43934 0.61595 0.0
C552 C 0.23253 0.4573 0.62475 0.0
C553 C 0.18174 0.41604 0.60303 0.0
C554 C 0.20531 0.41305 0.60143 0.0
C555 C 0.25387 0.42929 0.61386 0.0
C556 C 0.27854 0.44892 0.62708 0.0
C557 C 0.23068 0.43322 0.61291 0.0
C558 C 0.28028 0.47323 0.63775 0.0
C559 C 0.2576 0.47745 0.63647 0.0
H560 H 0.84348 0.24919 0.1004 0.0
H561 H 0.80766 0.29459 0.13759 0.0
H562 H 0.76186 0.25349 0.13589 0.0
H563 H 0.73288 0.20376 0.12876 0.0
H564 H 0.76771 0.15706 0.09274 0.0
H565 H 0.81282 0.19954 0.08868 0.0
C566 C 0.82555 0.25017 0.10761 0.0
C567 C 0.82907 0.27487 0.11939 0.0
C568 C 0.79912 0.22616 0.10703 0.0
C569 C 0.80562 0.27581 0.12869 0.0
C570 C 0.77938 0.25228 0.12778 0.0
C571 C 0.75023 0.20287 0.11968 0.0
C572 C 0.74704 0.17725 0.11139 0.0
C573 C 0.77604 0.22719 0.11779 0.0
C574 C 0.76964 0.17654 0.09935 0.0
C575 C 0.79548 0.20081 0.09716 0.0
H576 H 0.53083 0.7296 0.643 0.0
H577 H 0.60775 0.76017 0.59881 0.0
H578 H 0.61131 0.80576 0.59469 0.0
H579 H 0.59449 0.83806 0.60773 0.0
H580 H 0.5182 0.80641 0.65347 0.0
H581 H 0.51249 0.7602 0.65279 0.0
C582 C 0.54827 0.7461 0.63218 0.0
C583 C 0.56911 0.74154 0.62146 0.0
C584 C 0.5504 0.77222 0.63037 0.0
C585 C 0.59141 0.76313 0.60729 0.0
C586 C 0.59352 0.78925 0.60506 0.0
C587 C 0.57646 0.82094 0.61718 0.0
C588 C 0.55695 0.82578 0.63086 0.0
C589 C 0.57345 0.79423 0.61712 0.0
C590 C 0.53369 0.80338 0.64305 0.0
C591 C 0.53036 0.77688 0.64268 0.0
H592 H 0.76097 0.59448 0.10757 0.0
H593 H 0.71637 0.51399 0.14584 0.0
H594 H 0.7581 0.5102 0.14578 0.0
H595 H 0.808 0.53128 0.13912 0.0
H596 H 0.85375 0.61169 0.10123 0.0
H597 H 0.81088 0.61384 0.09661 0.0
C598 C 0.76031 0.57592 0.11542 0.0
C599 C 0.73559 0.55468 0.12695 0.0
C600 C 0.78466 0.57395 0.11565 0.0
C601 C 0.73511 0.53077 0.13706 0.0
C602 C 0.75901 0.52858 0.1371 0.0
C603 C 0.80861 0.5492 0.1296 0.0
C604 C 0.83407 0.57144 0.12085 0.0
C605 C 0.78403 0.55032 0.12717 0.0
C606 C 0.83441 0.59432 0.10821 0.0
C607 C 0.80991 0.59559 0.10567 0.0
H608 H 0.28487 0.81785 0.64954 0.0
H609 H 0.25214 0.85885 0.59919 0.0
H610 H 0.20796 0.81533 0.59476 0.0
H611 H 0.17753 0.76616 0.60819 0.0
H612 H 0.21127 0.72663 0.65952 0.0
H613 H 0.25604 0.76896 0.66044 0.0
C614 C 0.2682 0.81731 0.63737 0.0
C615 C 0.27178 0.84165 0.62488 0.0
C616 C 0.24288 0.79242 0.63522 0.0
C617 C 0.24995 0.84042 0.60906 0.0
C618 C 0.22463 0.81555 0.60661 0.0
C619 C 0.19478 0.76677 0.61929 0.0
C620 C 0.1909 0.74324 0.63393 0.0
C621 C 0.22067 0.79149 0.62003 0.0
C622 C 0.21351 0.74442 0.64825 0.0
C623 C 0.2392 0.76866 0.64881 0.0
H624 H 0.84132 0.59012 0.43591 0.0
H625 H 0.80757 0.51084 0.39504 0.0
H626 H 0.76156 0.50588 0.39531 0.0
H627 H 0.73177 0.52581 0.40279 0.0
H628 H 0.76436 0.60509 0.44313 0.0
H629 H 0.80978 0.60816 0.44771 0.0
C630 C 0.82379 0.57156 0.42754 0.0
C631 C 0.828 0.55103 0.41521 0.0
C632 C 0.7972 0.56894 0.42741 0.0
C633 C 0.80504 0.5271 0.40443 0.0
C634 C 0.77866 0.52423 0.40451 0.0
C635 C 0.74872 0.54366 0.41285 0.0
C636 C 0.7448 0.56534 0.42229 0.0
C637 C 0.77466 0.54534 0.41522 0.0
C638 C 0.76687 0.58814 0.43561 0.0
C639 C 0.79287 0.58995 0.43813 0.0
H640 H 0.17111 0.75998 0.93564 0.0
H641 H 0.20733 0.71422 0.90009 0.0
H642 H 0.25306 0.75535 0.90171 0.0
H643 H 0.2819 0.80511 0.90816 0.0
H644 H 0.24683 0.85231 0.94243 0.0
H645 H 0.20171 0.80984 0.94682 0.0
C646 C 0.18912 0.75895 0.92877 0.0
C647 C 0.18574 0.73414 0.91744 0.0
C648 C 0.21554 0.78298 0.9293 0.0
C649 C 0.20927 0.73311 0.90859 0.0
C650 C 0.23548 0.75664 0.90948 0.0
C651 C 0.26449 0.80611 0.91693 0.0
C652 C 0.26759 0.83184 0.92461 0.0
C653 C 0.2387 0.78183 0.91897 0.0
C654 C 0.24494 0.83273 0.9363 0.0
C655 C 0.21911 0.80847 0.93866 0.0
H656 H 0.4132 0.17086 0.42687 0.0
H657 H 0.48972 0.20337 0.38139 0.0
H658 H 0.49427 0.24914 0.38117 0.0
H659 H 0.47492 0.27914 0.39036 0.0
H660 H 0.39803 0.24755 0.43484 0.0
H661 H 0.39541 0.20244 0.43925 0.0
C662 C 0.43105 0.18807 0.41728 0.0
C663 C 0.45096 0.18356 0.40397 0.0
C664 C 0.43341 0.21451 0.41687 0.0
C665 C 0.47395 0.20611 0.39159 0.0
C666 C 0.47659 0.23236 0.39142 0.0
C667 C 0.45768 0.26251 0.40128 0.0
C668 C 0.43659 0.26669 0.41204 0.0
C669 C 0.45616 0.23665 0.40343 0.0
C670 C 0.41455 0.24491 0.4263 0.0
C671 C 0.41299 0.21906 0.42874 0.0
H672 H 0.24745 0.41471 0.9369 0.0
H673 H 0.2914 0.49485 0.89788 0.0
H674 H 0.24929 0.49801 0.89734 0.0
H675 H 0.1992 0.47621 0.90336 0.0
H676 H 0.15416 0.39584 0.94152 0.0
H677 H 0.19742 0.39474 0.94728 0.0
C678 C 0.2479 0.43306 0.92877 0.0
C679 C 0.27253 0.45437 0.91719 0.0
C680 C 0.22333 0.43462 0.92811 0.0
C681 C 0.27273 0.47802 0.9067 0.0
C682 C 0.24861 0.47985 0.90632 0.0
C683 C 0.19884 0.45856 0.91324 0.0
C684 C 0.17343 0.436 0.92169 0.0
C685 C 0.22366 0.45796 0.91621 0.0
C686 C 0.17342 0.41346 0.93475 0.0
C687 C 0.19816 0.41277 0.93794 0.0
H688 H 0.73418 0.19834 0.38444 0.0
H689 H 0.76081 0.1523 0.43524 0.0
H690 H 0.80674 0.19368 0.44042 0.0
H691 H 0.84031 0.24237 0.4276 0.0
H692 H 0.81235 0.2869 0.37597 0.0
H693 H 0.76604 0.24673 0.37417 0.0
C694 C 0.74992 0.19731 0.39684 0.0
C695 C 0.74412 0.1722 0.40924 0.0
C696 C 0.77617 0.22096 0.39947 0.0
C697 C 0.76474 0.17138 0.42542 0.0
C698 C 0.79104 0.19502 0.4283 0.0
C699 C 0.82398 0.24331 0.41623 0.0
C700 C 0.82994 0.26759 0.40176 0.0
C701 C 0.79716 0.21984 0.415 0.0
C702 C 0.80851 0.26847 0.38712 0.0
C703 C 0.78194 0.24548 0.38605 0.0
H704 H 0.53471 0.73088 0.90062 0.0
H705 H 0.61427 0.76421 0.94096 0.0
H706 H 0.61663 0.80922 0.94575 0.0
H707 H 0.59771 0.84016 0.93445 0.0
H708 H 0.51812 0.80563 0.89363 0.0
H709 H 0.51407 0.76007 0.89336 0.0
C710 C 0.5525 0.7479 0.91069 0.0
C711 C 0.57443 0.7443 0.92011 0.0
C712 C 0.55374 0.7736 0.91322 0.0
C713 C 0.59713 0.76647 0.93345 0.0
C714 C 0.59852 0.79223 0.9361 0.0
C715 C 0.57928 0.82255 0.92596 0.0
C716 C 0.55838 0.82642 0.91384 0.0
C717 C 0.57718 0.79622 0.92552 0.0
C718 C 0.53464 0.80336 0.90289 0.0
C719 C 0.5323 0.77724 0.90265 0.0
H720 H 0.37475 0.02194 0.96367 0.0
H721 H 0.32694 0.93659 0.98925 0.0
H722 H 0.33023 0.95129 0.03713 0.0
H723 H 0.35176 0.98801 0.07216 0.0
H724 H 0.39977 0.07336 0.0466 0.0
H725 H 0.39092 0.05904 0.9984 0.0
C726 C 0.36464 0.00656 0.97966 0.0
C727 C 0.35096 0.97818 0.97287 0.0
C728 C 0.36682 0.01515 1.00724 0.0
C729 C 0.33772 0.95856 0.99384 0.0
C730 C 0.3397 0.96695 0.0213 0.0
C731 C 0.35986 0.00354 0.05607 0.0
C732 C 0.37673 0.0317 0.06304 0.0
C733 C 0.35497 0.99514 0.02832 0.0
C734 C 0.38681 0.05153 0.04189 0.0
C735 C 0.3819 0.04335 1.01426 0.0
H736 H 0.38158 0.32948 0.48854 0.0
H737 H 0.34333 0.37258 0.45121 0.0
H738 H 0.32965 0.38051 0.49651 0.0
H739 H 0.33403 0.38067 0.54694 0.0
H740 H 0.37475 0.33997 0.58425 0.0
H741 H 0.3816 0.32539 0.53894 0.0
C742 C 0.3697 0.34005 0.49025 0.0
C743 C 0.36369 0.35059 0.46649 0.0
C744 C 0.36259 0.34528 0.51649 0.0
C745 C 0.34839 0.36438 0.46915 0.0
C746 C 0.34064 0.36903 0.4951 0.0
C747 C 0.34386 0.3681 0.54521 0.0
C748 C 0.35406 0.36165 0.56898 0.0
C749 C 0.34845 0.36041 0.51897 0.0
C750 C 0.36686 0.34542 0.56631 0.0
C751 C 0.37087 0.33712 0.54036 0.0
H752 H 0.9851 0.34319 0.9663 0.0
H753 H 0.07124 0.38503 0.99103 0.0
H754 H 0.05762 0.37583 0.03929 0.0
H755 H 0.0214 0.36166 0.07452 0.0
H756 H 0.93527 0.32035 0.04977 0.0
H757 H 0.94876 0.32323 1.00159 0.0
C758 C 1.00092 0.34983 0.9822 0.0
C759 C 0.02916 0.36515 0.97502 0.0
C760 C 0.99294 0.34481 1.00999 0.0
C761 C 0.04935 0.37334 0.99591 0.0
C762 C 0.04158 0.36822 0.02358 0.0
C763 C 1.00553 0.3528 0.05864 0.0
C764 C 0.97737 0.34118 0.06578 0.0
C765 C 0.01345 0.35485 0.03089 0.0
C766 C 0.95711 0.32955 0.04492 0.0
C767 C 0.96481 0.33132 1.0173 0.0
H768 H 0.63216 0.98428 0.46181 0.0
H769 H 0.67838 0.07014 0.48654 0.0
H770 H 0.6742 0.05636 0.5348 0.0
H771 H 0.65235 0.02014 0.57012 0.0
H772 H 0.60679 0.93426 0.5454 0.0
H773 H 0.61613 0.9478 0.49708 0.0
C774 C 0.64175 0.99996 0.47772 0.0
C775 C 0.65523 0.02821 0.47058 0.0
C776 C 0.6392 0.99189 0.50549 0.0
C777 C 0.66783 0.04826 0.49143 0.0
C778 C 0.6653 0.04039 0.51909 0.0
C779 C 0.64489 0.00437 0.55418 0.0
C780 C 0.62857 0.97625 0.56136 0.0
C781 C 0.65026 0.01231 0.52639 0.0
C782 C 0.61935 0.95605 0.54048 0.0
C783 C 0.62454 0.96379 0.5128 0.0
H784 H 0.67188 0.6166 0.05389 0.0
H785 H 0.63967 0.66361 0.09444 0.0
H786 H 0.63015 0.67747 0.04983 0.0
H787 H 0.62558 0.67145 0.99947 0.0
H788 H 0.65494 0.62181 0.95929 0.0
H789 H 0.67117 0.61406 1.00337 0.0
C790 C 0.66337 0.6304 0.05298 0.0
C791 C 0.6564 0.63894 0.07751 0.0
C792 C 0.6571 0.63756 0.02722 0.0
C793 C 0.64515 0.65662 0.0759 0.0
C794 C 0.63958 0.66448 0.05037 0.0
C795 C 0.63603 0.65941 1.00029 0.0
C796 C 0.63886 0.6471 0.97611 0.0
C797 C 0.64464 0.65435 0.0259 0.0
C798 C 0.65231 0.63139 0.97759 0.0
C799 C 0.66156 0.62688 1.00283 0.0
H800 H 0.99261 0.63373 0.57042 0.0
H801 H 0.07735 0.68255 0.54317 0.0
H802 H 0.06142 0.67929 0.49564 0.0
H803 H 0.02377 0.65771 0.4613 0.0
H804 H 0.93902 0.60922 0.4887 0.0
H805 H 0.95458 0.61761 0.53658 0.0
C806 C 0.00758 0.64405 0.55415 0.0
C807 C 0.03616 0.65805 0.56034 0.0
C808 C 0.99827 0.642 0.5268 0.0
C809 C 0.05524 0.67157 0.53902 0.0
C810 C 0.04615 0.66959 0.51178 0.0
C811 C 0.00865 0.64942 0.47774 0.0
C812 C 0.98028 0.63255 0.47133 0.0
C813 C 0.01776 0.65414 0.50532 0.0
C814 C 0.96097 0.6222 0.49295 0.0
C815 C 0.96987 0.62685 0.5204 0.0
H816 H 0.66282 0.02006 0.96253 0.0
H817 H 0.61545 0.9347 0.98819 0.0
H818 H 0.62442 0.94909 0.03638 0.0
H819 H 0.64055 0.98622 0.07112 0.0
H820 H 0.68787 0.07157 0.04542 0.0
H821 H 0.68439 0.05684 0.99753 0.0
C822 C 0.65489 0.00455 0.97864 0.0
C823 C 0.63817 0.97636 0.97169 0.0
C824 C 0.65989 0.01298 1.00639 0.0
C825 C 0.6283 0.95654 0.99287 0.0
C826 C 0.63329 0.96477 0.0205 0.0
C827 C 0.65053 1.00159 0.0551 0.0
C828 C 0.66412 0.02998 0.06188 0.0
C829 C 0.64825 0.99298 0.0275 0.0
C830 C 0.67717 0.04959 0.04086 0.0
C831 C 0.67507 0.04118 1.01339 0.0
H832 H 0.63666 0.64812 0.47248 0.0
H833 H 0.67952 0.60591 0.50062 0.0
H834 H 0.67494 0.61702 0.5483 0.0
H835 H 0.65378 0.63382 0.58219 0.0
H836 H 0.61161 0.67671 0.55393 0.0
H837 H 0.62127 0.67061 0.50624 0.0
C838 C 0.64541 0.64176 0.48902 0.0
C839 C 0.65809 0.6259 0.48299 0.0
C840 C 0.64266 0.64817 0.51644 0.0
C841 C 0.66961 0.61809 0.50464 0.0
C842 C 0.66686 0.62431 0.53197 0.0
C843 C 0.64715 0.64229 0.56562 0.0
C844 C 0.63167 0.65539 0.57167 0.0
C845 C 0.65268 0.6386 0.53816 0.0
C846 C 0.62349 0.66647 0.54993 0.0
C847 C 0.62886 0.66284 0.52259 0.0
H848 H 0.9568 0.61847 0.0417 0.0
H849 H 0.03624 0.65491 0.08284 0.0
H850 H 0.05991 0.6693 0.03859 0.0
H851 H 0.05802 0.66657 0.98806 0.0
H852 H 0.97854 0.62713 0.94682 0.0
H853 H 0.95501 0.61923 0.99106 0.0
C854 C 0.97928 0.63008 0.04101 0.0
C855 C 0.99471 0.6355 0.06555 0.0
C856 C 0.9928 0.63753 1.01537 0.0
C857 C 0.02385 0.65034 0.06426 0.0
C858 C 0.03743 0.65852 0.03893 0.0
C859 C 0.03558 0.65678 0.9887 0.0
C860 C 0.02008 0.64736 0.96415 0.0
C861 C 0.02212 0.6515 1.01431 0.0
C862 C 0.99099 0.63448 0.96541 0.0
C863 C 0.97749 0.62987 0.99073 0.0
H864 H 0.36807 0.03058 0.57266 0.0
H865 H 0.32315 0.94415 0.54969 0.0
H866 H 0.32655 0.95687 0.50119 0.0
H867 H 0.34788 0.99234 0.46518 0.0
H868 H 0.39305 0.07877 0.48811 0.0
H869 H 0.38357 0.06624 0.53663 0.0
C870 C 0.35854 0.01452 0.55709 0.0
C871 C 0.34573 0.98644 0.56483 0.0
C872 C 0.36085 0.02197 0.52915 0.0
C873 C 0.33324 0.96592 0.54438 0.0
C874 C 0.33532 0.97318 0.51657 0.0
C875 C 0.3552 0.00848 0.48075 0.0
C876 C 0.37151 0.03645 0.473 0.0
C877 C 0.34994 1.00111 0.50868 0.0
C878 C 0.38056 0.05708 0.49344 0.0
C879 C 0.37528 0.04992 0.52126 0.0
H880 H 0.35601 0.36967 0.07347 0.0
H881 H 0.39456 0.32387 0.04378 0.0
H882 H 0.38198 0.3282 0.99658 0.0
H883 H 0.36517 0.34992 0.96335 0.0
H884 H 0.32651 0.39563 0.993 0.0
H885 H 0.33359 0.38602 0.04047 0.0
C886 C 0.36125 0.36023 0.05673 0.0
C887 C 0.37655 0.34678 0.06219 0.0
C888 C 0.35409 0.36294 0.02953 0.0
C889 C 0.3829 0.33442 0.04024 0.0
C890 C 0.37582 0.33701 1.01317 0.0
C891 C 0.35781 0.35735 0.98017 0.0
C892 C 0.34564 0.37378 0.97455 0.0
C893 C 0.36219 0.35196 1.0075 0.0
C894 C 0.33601 0.383 0.99665 0.0
C895 C 0.34021 0.37766 0.02386 0.0
H896 H 0.06444 0.38892 0.54694 0.0
H897 H 0.98549 0.3434 0.58784 0.0
H898 H 0.96179 0.32938 0.54335 0.0
H899 H 0.96296 0.33503 0.49301 0.0
H900 H 0.04174 0.38327 0.45247 0.0
H901 H 0.06595 0.39096 0.49643 0.0
C902 C 0.04211 0.37541 0.54613 0.0
C903 C 0.02677 0.36735 0.57071 0.0
C904 C 0.0285 0.36817 0.52045 0.0
C905 C 0.99781 0.35001 0.56925 0.0
C906 C 0.98421 0.34207 0.54379 0.0
C907 C 0.98544 0.34674 0.49372 0.0
C908 C 1.00048 0.35871 0.46949 0.0
C909 C 0.99924 0.35178 0.51925 0.0
C910 C 0.02962 0.37398 0.47082 0.0
C911 C 0.04351 0.37845 0.49599 0.0
H912 H 0.52382 0.1132 0.11801 0.0
H913 H 0.47383 0.02547 0.13371 0.0
H914 H 0.51525 0.02086 0.13251 0.0
H915 H 0.56591 0.04205 0.12904 0.0
H916 H 0.61577 0.12993 0.11394 0.0
H917 H 0.5741 0.13401 0.11274 0.0
C918 C 0.5219 0.09301 0.12103 0.0
C919 C 0.49569 0.06976 0.12608 0.0
C920 C 0.54582 0.0905 0.12049 0.0
C921 C 0.4937 0.04377 0.12986 0.0
C922 C 0.5174 0.04109 0.12921 0.0
C923 C 0.56768 0.06208 0.12528 0.0
C924 C 0.59403 0.08565 0.12171 0.0
C925 C 0.54361 0.06437 0.12483 0.0
C926 C 0.59583 0.11141 0.11685 0.0
C927 C 0.57199 0.11381 0.11619 0.0
H928 H 0.52428 0.56031 0.63276 0.0
H929 H 0.4839 0.6094 0.62856 0.0
H930 H 0.43869 0.56732 0.62626 0.0
H931 H 0.41043 0.51662 0.62756 0.0
H932 H 0.45078 0.46749 0.63185 0.0
H933 H 0.49608 0.50955 0.6318 0.0
C934 C 0.50562 0.56185 0.63121 0.0
C935 C 0.50757 0.58805 0.63102 0.0
C936 C 0.47961 0.53753 0.62995 0.0
C937 C 0.4831 0.58956 0.62882 0.0
C938 C 0.45718 0.56548 0.62753 0.0
C939 C 0.42911 0.51506 0.6283 0.0
C940 C 0.42709 0.48886 0.62987 0.0
C941 C 0.45516 0.53935 0.6284 0.0
C942 C 0.45161 0.48733 0.6307 0.0
C943 C 0.47759 0.5114 0.63073 0.0
H944 H 0.8942 0.4089 0.12524 0.0
H945 H 0.98342 0.44649 0.1287 0.0
H946 H 0.98817 0.49246 0.12697 0.0
H947 H 0.96705 0.52206 0.12657 0.0
H948 H 0.87781 0.48449 0.12389 0.0
H949 H 0.87313 0.43852 0.12307 0.0
C950 C 0.91471 0.42711 0.12544 0.0
C951 C 0.9384 0.42414 0.12723 0.0
C952 C 0.91733 0.45356 0.12466 0.0
C953 C 0.9648 0.44807 0.12744 0.0
C954 C 0.96756 0.47442 0.12647 0.0
C955 C 0.94656 0.50385 0.12561 0.0
C956 C 0.92283 0.50683 0.12541 0.0
C957 C 0.94396 0.47741 0.12539 0.0
C958 C 0.89646 0.48291 0.12414 0.0
C959 C 0.89374 0.45656 0.12371 0.0
H960 H 0.40846 0.89848 0.62968 0.0
H961 H 0.44871 0.9877 0.62513 0.0
H962 H 0.49397 0.99067 0.62364 0.0
H963 H 0.52233 0.96819 0.62578 0.0
H964 H 0.48207 0.879 0.63088 0.0
H965 H 0.43675 0.87589 0.62988 0.0
C966 C 0.4271 0.91858 0.62816 0.0
C967 C 0.42509 0.94281 0.62767 0.0
C968 C 0.45315 0.92021 0.62752 0.0
C969 C 0.44954 0.96867 0.62566 0.0
C970 C 0.4755 0.97043 0.62483 0.0
C971 C 0.50366 0.94804 0.62651 0.0
C972 C 0.50572 0.9239 0.62855 0.0
C973 C 0.47758 0.94636 0.6261 0.0
C974 C 0.48122 0.89797 0.62939 0.0
C975 C 0.45522 0.89614 0.62885 0.0
H976 H 0.60086 0.48561 0.12323 0.0
H977 H 0.56181 0.53466 0.13885 0.0
H978 H 0.51616 0.49327 0.13553 0.0
H979 H 0.48727 0.44286 0.13038 0.0
H980 H 0.52633 0.39373 0.11527 0.0
H981 H 0.57188 0.43545 0.11602 0.0
C982 C 0.58239 0.48732 0.12575 0.0
C983 C 0.58488 0.51327 0.13146 0.0
C984 C 0.55611 0.46337 0.12397 0.0
C985 C 0.56062 0.515 0.13456 0.0
C986 C 0.53444 0.49131 0.13268 0.0
C987 C 0.50571 0.44125 0.12703 0.0
C988 C 0.50328 0.41509 0.12292 0.0
C989 C 0.53193 0.46534 0.12771 0.0
C990 C 0.52748 0.41352 0.11857 0.0
C991 C 0.55361 0.4374 0.11904 0.0
H992 H 0.12668 0.52265 0.62538 0.0
H993 H 0.0374 0.47161 0.62616 0.0
H994 H 0.03273 0.51285 0.62402 0.0
H995 H 0.05381 0.56339 0.62426 0.0
H996 H 0.14306 0.61465 0.62466 0.0
H997 H 0.14781 0.57336 0.62383 0.0
C998 C 0.10619 0.52051 0.62486 0.0
C999 C 0.08245 0.494 0.62607 0.0
C1000 C 0.1036 0.54439 0.62393 0.0
C1001 C 0.05607 0.49171 0.62541 0.0
C1002 C 0.05334 0.51531 0.62419 0.0
C1003 C 0.07433 0.5656 0.62393 0.0
C1004 C 0.09802 0.59217 0.62463 0.0
C1005 C 0.07695 0.54176 0.62379 0.0
C1006 C 0.12443 0.59451 0.62422 0.0
C1007 C 0.12719 0.57088 0.62378 0.0
H1008 H 0.89604 0.48423 0.4123 0.0
H1009 H 0.98492 0.53653 0.40616 0.0
H1010 H 0.99062 0.49584 0.40798 0.0
H1011 H 0.97033 0.44532 0.40905 0.0
H1012 H 0.88136 0.39301 0.41421 0.0
H1013 H 0.87588 0.43383 0.41522 0.0
C1014 C 0.91669 0.48679 0.41154 0.0
C1015 C 0.93998 0.51346 0.40895 0.0
C1016 C 0.91985 0.46328 0.41235 0.0
C1017 C 0.96658 0.51629 0.40802 0.0
C1018 C 0.96989 0.49301 0.40906 0.0
C1019 C 0.94973 0.4428 0.41064 0.0
C1020 C 0.92631 0.41605 0.41144 0.0
C1021 C 0.94665 0.46638 0.41089 0.0
C1022 C 0.8998 0.41329 0.41346 0.0
C1023 C 0.8966 0.43665 0.41401 0.0
H1024 H 0.48975 0.89318 0.9145 0.0
H1025 H 0.54066 0.98153 0.90304 0.0
H1026 H 0.49948 0.98649 0.90425 0.0
H1027 H 0.4488 0.96558 0.90656 0.0
H1028 H 0.39795 0.87716 0.91768 0.0
H1029 H 0.43932 0.87255 0.91872 0.0
C1030 C 0.4919 0.91357 0.91242 0.0
C1031 C 0.51833 0.9369 0.90854 0.0
C1032 C 0.4681 0.9163 0.91299 0.0
C1033 C 0.52063 0.96315 0.90597 0.0
C1034 C 0.49705 0.96603 0.90663 0.0
C1035 C 0.44674 0.94531 0.90938 0.0
C1036 C 0.42021 0.92177 0.91189 0.0
C1037 C 0.47065 0.94272 0.90982 0.0
C1038 C 0.41804 0.89568 0.91561 0.0
C1039 C 0.44171 0.89298 0.91618 0.0
H1040 H 0.51961 0.40399 0.40956 0.0
H1041 H 0.47043 0.44431 0.41368 0.0
H1042 H 0.51247 0.48928 0.41771 0.0
H1043 H 0.56317 0.51749 0.41781 0.0
H1044 H 0.61261 0.47751 0.41311 0.0
H1045 H 0.57051 0.43222 0.41176 0.0
C1046 C 0.51805 0.42258 0.41153 0.0
C1047 C 0.49181 0.42067 0.41114 0.0
C1048 C 0.54239 0.44853 0.41366 0.0
C1049 C 0.49029 0.44506 0.41377 0.0
C1050 C 0.51435 0.47086 0.41607 0.0
C1051 C 0.5648 0.4989 0.41669 0.0
C1052 C 0.59109 0.50102 0.41542 0.0
C1053 C 0.54051 0.47288 0.41569 0.0
C1054 C 0.5927 0.4766 0.41405 0.0
C1055 C 0.5686 0.45063 0.41322 0.0
H1056 H 0.11479 0.51466 0.91495 0.0
H1057 H 0.02568 0.46459 0.90776 0.0
H1058 H 0.02164 0.50625 0.90763 0.0
H1059 H 0.04347 0.55698 0.90731 0.0
H1060 H 0.13261 0.60697 0.91437 0.0
H1061 H 0.13642 0.56526 0.9169 0.0
C1062 C 0.09445 0.5128 0.91354 0.0
C1063 C 0.07062 0.48646 0.9112 0.0
C1064 C 0.09223 0.53687 0.91333 0.0
C1065 C 0.04443 0.48455 0.9095 0.0
C1066 C 0.04207 0.50839 0.90937 0.0
C1067 C 0.06373 0.55879 0.90955 0.0
C1068 C 0.0877 0.58515 0.91046 0.0
C1069 C 0.06585 0.53468 0.91091 0.0
C1070 C 0.11377 0.58701 0.91353 0.0
C1071 C 0.11601 0.56314 0.91494 0.0
H1072 H 0.56091 0.04434 0.4097 0.0
H1073 H 0.61337 0.13292 0.40172 0.0
H1074 H 0.57269 0.13874 0.40315 0.0
H1075 H 0.52205 0.11857 0.4045 0.0
H1076 H 0.46968 0.02993 0.41211 0.0
H1077 H 0.51051 0.02439 0.41314 0.0
C1078 C 0.56351 0.06495 0.40841 0.0
C1079 C 0.59022 0.08811 0.40544 0.0
C1080 C 0.54 0.06819 0.40912 0.0
C1081 C 0.5931 0.11467 0.40395 0.0
C1082 C 0.56982 0.11805 0.40473 0.0
C1083 C 0.51954 0.09804 0.40659 0.0
C1084 C 0.49274 0.07472 0.40807 0.0
C1085 C 0.54314 0.09493 0.40699 0.0
C1086 C 0.48998 0.04829 0.41082 0.0
C1087 C 0.51335 0.04506 0.41138 0.0
H1088 H 0.52195 0.56185 0.91612 0.0
H1089 H 0.48617 0.61517 0.91783 0.0
H1090 H 0.43965 0.57472 0.91803 0.0
H1091 H 0.40903 0.52424 0.91543 0.0
H1092 H 0.445 0.4711 0.91279 0.0
H1093 H 0.49142 0.51146 0.91534 0.0
C1094 C 0.50402 0.56468 0.91677 0.0
C1095 C 0.50766 0.59159 0.91685 0.0
C1096 C 0.47727 0.54133 0.91657 0.0
C1097 C 0.48407 0.59475 0.91768 0.0
C1098 C 0.45741 0.5716 0.91775 0.0
C1099 C 0.427 0.52144 0.9156 0.0
C1100 C 0.42343 0.4946 0.91378 0.0
C1101 C 0.45374 0.54479 0.91684 0.0
C1102 C 0.44703 0.49146 0.91403 0.0
C1103 C 0.47365 0.51455 0.91549 0.0
loop_
_geom_bond_atom_site_label_1
_geom_bond_atom_site_label_2
_geom_bond_distance
_geom_bond_site_symmetry_2
_ccdc_geom_bond_type
O0 Cd1 2.223 . S
O0 C8 1.315 . S
Cd1 O0 2.223 . S
Cd1 O4 2.297 . S
Cd1 O5 2.439 . S
Cd1 O11 2.240 . S
Cd2 O3 2.240 . S
Cd2 O10 2.223 . S
Cd2 O12 2.297 . S
Cd2 O13 2.439 . S
O3 Cd2 2.240 . S
O3 C8 1.279 . S
O4 Cd1 2.297 . S
O4 C6 1.247 . S
O5 Cd1 2.439 . S
O5 C6 1.208 . S
C6 O4 1.247 . S
C6 O5 1.208 . S
C7 O12 1.247 . S
C7 O13 1.208 . S
C8 O0 1.315 . S
C8 O3 1.279 . S
C9 O10 1.315 . S
C9 O11 1.279 . S
O10 Cd2 2.223 . S
O10 C9 1.315 . S
O11 Cd1 2.240 . S
O11 C9 1.279 . S
O12 Cd2 2.297 . S
O12 C7 1.247 . S
O13 Cd2 2.439 . S
O13 C7 1.208 . S
O14 Cd15 2.223 . S
O14 C22 1.315 . S
Cd15 O14 2.223 . S
Cd15 O18 2.297 . S
Cd15 O19 2.439 . S
Cd15 O25 2.240 . S
Cd16 O17 2.240 . S
Cd16 O24 2.223 . S
Cd16 O26 2.297 . S
Cd16 O27 2.439 . S
O17 Cd16 2.240 . S
O17 C22 1.279 . S
O18 Cd15 2.297 . S
O18 C20 1.247 . S
O19 Cd15 2.439 . S
O19 C20 1.208 . S
C20 O18 1.247 . S
C20 O19 1.208 . S
C21 O26 1.247 . S
C21 O27 1.208 . S
C22 O14 1.315 . S
C22 O17 1.279 . S
C23 O24 1.315 . S
C23 O25 1.279 . S
O24 Cd16 2.223 . S
O24 C23 1.315 . S
O25 Cd15 2.240 . S
O25 C23 1.279 . S
O26 Cd16 2.297 . S
O26 C21 1.247 . S
O27 Cd16 2.439 . S
O27 C21 1.208 . S
O28 Cd29 2.223 . S
O28 C36 1.315 . S
Cd29 O28 2.223 . S
Cd29 O32 2.297 . S
Cd29 O33 2.439 . S
Cd29 O39 2.240 . S
Cd30 O31 2.240 . S
Cd30 O38 2.223 . S
Cd30 O40 2.297 . S
Cd30 O41 2.439 . S
O31 Cd30 2.240 . S
O31 C36 1.279 . S
O32 Cd29 2.297 . S
O32 C34 1.247 . S
O33 Cd29 2.439 . S
O33 C34 1.208 . S
C34 O32 1.247 . S
C34 O33 1.208 . S
C35 O40 1.247 . S
C35 O41 1.208 . S
C36 O28 1.315 . S
C36 O31 1.279 . S
C37 O38 1.315 . S
C37 O39 1.279 . S
O38 Cd30 2.223 . S
O38 C37 1.315 . S
O39 Cd29 2.240 . S
O39 C37 1.279 . S
O40 Cd30 2.297 . S
O40 C35 1.247 . S
O41 Cd30 2.439 . S
O41 C35 1.208 . S
O42 Cd43 2.223 . S
O42 C50 1.315 . S
Cd43 O42 2.223 . S
Cd43 O46 2.297 . S
Cd43 O47 2.439 . S
Cd43 O53 2.240 . S
Cd44 O45 2.240 . S
Cd44 O52 2.223 . S
Cd44 O54 2.297 . S
Cd44 O55 2.439 . S
O45 Cd44 2.240 . S
O45 C50 1.279 . S
O46 Cd43 2.297 . S
O46 C48 1.247 . S
O47 Cd43 2.439 . S
O47 C48 1.208 . S
C48 O46 1.247 . S
C48 O47 1.208 . S
C49 O54 1.247 . S
C49 O55 1.208 . S
C50 O42 1.315 . S
C50 O45 1.279 . S
C51 O52 1.315 . S
C51 O53 1.279 . S
O52 Cd44 2.223 . S
O52 C51 1.315 . S
O53 Cd43 2.240 . S
O53 C51 1.279 . S
O54 Cd44 2.297 . S
O54 C49 1.247 . S
O55 Cd44 2.439 . S
O55 C49 1.208 . S
O56 Cd57 2.223 . S
O56 C64 1.315 . S
Cd57 O56 2.223 . S
Cd57 O60 2.297 . S
Cd57 O61 2.439 . S
Cd57 O67 2.240 . S
Cd58 O59 2.240 . S
Cd58 O66 2.223 . S
Cd58 O68 2.297 . S
Cd58 O69 2.439 . S
O59 Cd58 2.240 . S
O59 C64 1.279 . S
O60 Cd57 2.297 . S
O60 C62 1.247 . S
O61 Cd57 2.439 . S
O61 C62 1.208 . S
C62 O60 1.247 . S
C62 O61 1.208 . S
C63 O68 1.247 . S
C63 O69 1.208 . S
C64 O56 1.315 . S
C64 O59 1.279 . S
C65 O66 1.315 . S
C65 O67 1.279 . S
O66 Cd58 2.223 . S
O66 C65 1.315 . S
O67 Cd57 2.240 . S
O67 C65 1.279 . S
O68 Cd58 2.297 . S
O68 C63 1.247 . S
O69 Cd58 2.439 . S
O69 C63 1.208 . S
O70 Cd71 2.223 . S
O70 C78 1.315 . S
Cd71 O70 2.223 . S
Cd71 O74 2.297 . S
Cd71 O75 2.439 . S
Cd71 O81 2.240 . S
Cd72 O73 2.240 . S
Cd72 O80 2.223 . S
Cd72 O82 2.297 . S
Cd72 O83 2.439 . S
O73 Cd72 2.240 . S
O73 C78 1.279 . S
O74 Cd71 2.297 . S
O74 C76 1.247 . S
O75 Cd71 2.439 . S
O75 C76 1.208 . S
C76 O74 1.247 . S
C76 O75 1.208 . S
C77 O82 1.247 . S
C77 O83 1.208 . S
C78 O70 1.315 . S
C78 O73 1.279 . S
C79 O80 1.315 . S
C79 O81 1.279 . S
O80 Cd72 2.223 . S
O80 C79 1.315 . S
O81 Cd71 2.240 . S
O81 C79 1.279 . S
O82 Cd72 2.297 . S
O82 C77 1.247 . S
O83 Cd72 2.439 . S
O83 C77 1.208 . S
O84 Cd85 2.223 . S
O84 C92 1.315 . S
Cd85 O84 2.223 . S
Cd85 O88 2.297 . S
Cd85 O89 2.439 . S
Cd85 O95 2.240 . S
Cd86 O87 2.240 . S
Cd86 O94 2.223 . S
Cd86 O96 2.297 . S
Cd86 O97 2.439 . S
O87 Cd86 2.240 . S
O87 C92 1.279 . S
O88 Cd85 2.297 . S
O88 C90 1.247 . S
O89 Cd85 2.439 . S
O89 C90 1.208 . S
C90 O88 1.247 . S
C90 O89 1.208 . S
C91 O96 1.247 . S
C91 O97 1.208 . S
C92 O84 1.315 . S
C92 O87 1.279 . S
C93 O94 1.315 . S
C93 O95 1.279 . S
O94 Cd86 2.223 . S
O94 C93 1.315 . S
O95 Cd85 2.240 . S
O95 C93 1.279 . S
O96 Cd86 2.297 . S
O96 C91 1.247 . S
O97 Cd86 2.439 . S
O97 C91 1.208 . S
O98 Cd99 2.223 . S
O98 C106 1.315 . S
Cd99 O98 2.223 . S
Cd99 O102 2.297 . S
Cd99 O103 2.439 . S
Cd99 O109 2.240 . S
Cd100 O101 2.240 . S
Cd100 O108 2.223 . S
Cd100 O110 2.297 . S
Cd100 O111 2.439 . S
O101 Cd100 2.240 . S
O101 C106 1.279 . S
O102 Cd99 2.297 . S
O102 C104 1.247 . S
O103 Cd99 2.439 . S
O103 C104 1.208 . S
C104 O102 1.247 . S
C104 O103 1.208 . S
C105 O110 1.247 . S
C105 O111 1.208 . S
C106 O98 1.315 . S
C106 O101 1.279 . S
C107 O108 1.315 . S
C107 O109 1.279 . S
O108 Cd100 2.223 . S
O108 C107 1.315 . S
O109 Cd99 2.240 . S
O109 C107 1.279 . S
O110 Cd100 2.297 . S
O110 C105 1.247 . S
O111 Cd100 2.439 . S
O111 C105 1.208 . S
O112 Cd113 2.223 . S
O112 C120 1.315 . S
Cd113 O112 2.223 . S
Cd113 O116 2.297 . S
Cd113 O117 2.439 . S
Cd113 O123 2.240 . S
Cd114 O115 2.240 . S
Cd114 O122 2.223 . S
Cd114 O124 2.297 . S
Cd114 O125 2.439 . S
O115 Cd114 2.240 . S
O115 C120 1.279 . S
O116 Cd113 2.297 . S
O116 C118 1.247 . S
O117 Cd113 2.439 . S
O117 C118 1.208 . S
C118 O116 1.247 . S
C118 O117 1.208 . S
C119 O124 1.247 . S
C119 O125 1.208 . S
C120 O112 1.315 . S
C120 O115 1.279 . S
C121 O122 1.315 . S
C121 O123 1.279 . S
O122 Cd114 2.223 . S
O122 C121 1.315 . S
O123 Cd113 2.240 . S
O123 C121 1.279 . S
O124 Cd114 2.297 . S
O124 C119 1.247 . S
O125 Cd114 2.439 . S
O125 C119 1.208 . S
O126 Cd127 2.223 . S
O126 C134 1.315 . S
Cd127 O126 2.223 . S
Cd127 O130 2.297 . S
Cd127 O131 2.439 . S
Cd127 O137 2.240 . S
Cd128 O129 2.240 . S
Cd128 O136 2.223 . S
Cd128 O138 2.297 . S
Cd128 O139 2.439 . S
O129 Cd128 2.240 . S
O129 C134 1.279 . S
O130 Cd127 2.297 . S
O130 C132 1.247 . S
O131 Cd127 2.439 . S
O131 C132 1.208 . S
C132 O130 1.247 . S
C132 O131 1.208 . S
C133 O138 1.247 . S
C133 O139 1.208 . S
C134 O126 1.315 . S
C134 O129 1.279 . S
C135 O136 1.315 . S
C135 O137 1.279 . S
O136 Cd128 2.223 . S
O136 C135 1.315 . S
O137 Cd127 2.240 . S
O137 C135 1.279 . S
O138 Cd128 2.297 . S
O138 C133 1.247 . S
O139 Cd128 2.439 . S
O139 C133 1.208 . S
O140 Cd141 2.223 . S
O140 C148 1.315 . S
Cd141 O140 2.223 . S
Cd141 O144 2.297 . S
Cd141 O145 2.439 . S
Cd141 O151 2.240 . S
Cd142 O143 2.240 . S
Cd142 O150 2.223 . S
Cd142 O152 2.297 . S
Cd142 O153 2.439 . S
O143 Cd142 2.240 . S
O143 C148 1.279 . S
O144 Cd141 2.297 . S
O144 C146 1.247 . S
O145 Cd141 2.439 . S
O145 C146 1.208 . S
C146 O144 1.247 . S
C146 O145 1.208 . S
C147 O152 1.247 . S
C147 O153 1.208 . S
C148 O140 1.315 . S
C148 O143 1.279 . S
C149 O150 1.315 . S
C149 O151 1.279 . S
O150 Cd142 2.223 . S
O150 C149 1.315 . S
O151 Cd141 2.240 . S
O151 C149 1.279 . S
O152 Cd142 2.297 . S
O152 C147 1.247 . S
O153 Cd142 2.439 . S
O153 C147 1.208 . S
O154 Cd155 2.223 . S
O154 C162 1.315 . S
Cd155 O154 2.223 . S
Cd155 O158 2.297 . S
Cd155 O159 2.439 . S
Cd155 O165 2.240 . S
Cd156 O157 2.240 . S
Cd156 O164 2.223 . S
Cd156 O166 2.297 . S
Cd156 O167 2.439 . S
O157 Cd156 2.240 . S
O157 C162 1.279 . S
O158 Cd155 2.297 . S
O158 C160 1.247 . S
O159 Cd155 2.439 . S
O159 C160 1.208 . S
C160 O158 1.247 . S
C160 O159 1.208 . S
C161 O166 1.247 . S
C161 O167 1.208 . S
C162 O154 1.315 . S
C162 O157 1.279 . S
C163 O164 1.315 . S
C163 O165 1.279 . S
O164 Cd156 2.223 . S
O164 C163 1.315 . S
O165 Cd155 2.240 . S
O165 C163 1.279 . S
O166 Cd156 2.297 . S
O166 C161 1.247 . S
O167 Cd156 2.439 . S
O167 C161 1.208 . S
O168 Cd169 2.223 . S
O168 C176 1.315 . S
Cd169 O168 2.223 . S
Cd169 O172 2.297 . S
Cd169 O173 2.439 . S
Cd169 O179 2.240 . S
Cd170 O171 2.240 . S
Cd170 O178 2.223 . S
Cd170 O180 2.297 . S
Cd170 O181 2.439 . S
O171 Cd170 2.240 . S
O171 C176 1.279 . S
O172 Cd169 2.297 . S
O172 C174 1.247 . S
O173 Cd169 2.439 . S
O173 C174 1.208 . S
C174 O172 1.247 . S
C174 O173 1.208 . S
C175 O180 1.247 . S
C175 O181 1.208 . S
C176 O168 1.315 . S
C176 O171 1.279 . S
C177 O178 1.315 . S
C177 O179 1.279 . S
O178 Cd170 2.223 . S
O178 C177 1.315 . S
O179 Cd169 2.240 . S
O179 C177 1.279 . S
O180 Cd170 2.297 . S
O180 C175 1.247 . S
O181 Cd170 2.439 . S
O181 C175 1.208 . S
O182 Cd183 2.223 . S
O182 C190 1.315 . S
Cd183 O182 2.223 . S
Cd183 O186 2.297 . S
Cd183 O187 2.439 . S
Cd183 O193 2.240 . S
Cd184 O185 2.240 . S
Cd184 O192 2.223 . S
Cd184 O194 2.297 . S
Cd184 O195 2.439 . S
O185 Cd184 2.240 . S
O185 C190 1.279 . S
O186 Cd183 2.297 . S
O186 C188 1.247 . S
O187 Cd183 2.439 . S
O187 C188 1.208 . S
C188 O186 1.247 . S
C188 O187 1.208 . S
C189 O194 1.247 . S
C189 O195 1.208 . S
C190 O182 1.315 . S
C190 O185 1.279 . S
C191 O192 1.315 . S
C191 O193 1.279 . S
O192 Cd184 2.223 . S
O192 C191 1.315 . S
O193 Cd183 2.240 . S
O193 C191 1.279 . S
O194 Cd184 2.297 . S
O194 C189 1.247 . S
O195 Cd184 2.439 . S
O195 C189 1.208 . S
O196 Cd197 2.223 . S
O196 C204 1.315 . S
Cd197 O196 2.223 . S
Cd197 O200 2.297 . S
Cd197 O201 2.439 . S
Cd197 O207 2.240 . S
Cd198 O199 2.240 . S
Cd198 O206 2.223 . S
Cd198 O208 2.297 . S
Cd198 O209 2.439 . S
O199 Cd198 2.240 . S
O199 C204 1.279 . S
O200 Cd197 2.297 . S
O200 C202 1.247 . S
O201 Cd197 2.439 . S
O201 C202 1.208 . S
C202 O200 1.247 . S
C202 O201 1.208 . S
C203 O208 1.247 . S
C203 O209 1.208 . S
C204 O196 1.315 . S
C204 O199 1.279 . S
C205 O206 1.315 . S
C205 O207 1.279 . S
O206 Cd198 2.223 . S
O206 C205 1.315 . S
O207 Cd197 2.240 . S
O207 C205 1.279 . S
O208 Cd198 2.297 . S
O208 C203 1.247 . S
O209 Cd198 2.439 . S
O209 C203 1.208 . S
O210 Cd211 2.223 . S
O210 C218 1.315 . S
Cd211 O210 2.223 . S
Cd211 O214 2.297 . S
Cd211 O215 2.439 . S
Cd211 O221 2.240 . S
Cd212 O213 2.240 . S
Cd212 O220 2.223 . S
Cd212 O222 2.297 . S
Cd212 O223 2.439 . S
O213 Cd212 2.240 . S
O213 C218 1.279 . S
O214 Cd211 2.297 . S
O214 C216 1.247 . S
O215 Cd211 2.439 . S
O215 C216 1.208 . S
C216 O214 1.247 . S
C216 O215 1.208 . S
C217 O222 1.247 . S
C217 O223 1.208 . S
C218 O210 1.315 . S
C218 O213 1.279 . S
C219 O220 1.315 . S
C219 O221 1.279 . S
O220 Cd212 2.223 . S
O220 C219 1.315 . S
O221 Cd211 2.240 . S
O221 C219 1.279 . S
O222 Cd212 2.297 . S
O222 C217 1.247 . S
O223 Cd212 2.439 . S
O223 C217 1.208 . S
O224 Cd225 2.223 . S
O224 C232 1.315 . S
Cd225 O224 2.223 . S
Cd225 O228 2.297 . S
Cd225 O229 2.439 . S
Cd225 O235 2.240 . S
Cd226 O227 2.240 . S
Cd226 O234 2.223 . S
Cd226 O236 2.297 . S
Cd226 O237 2.439 . S
O227 Cd226 2.240 . S
O227 C232 1.279 . S
O228 Cd225 2.297 . S
O228 C230 1.247 . S
O229 Cd225 2.439 . S
O229 C230 1.208 . S
C230 O228 1.247 . S
C230 O229 1.208 . S
C231 O236 1.247 . S
C231 O237 1.208 . S
C232 O224 1.315 . S
C232 O227 1.279 . S
C233 O234 1.315 . S
C233 O235 1.279 . S
O234 Cd226 2.223 . S
O234 C233 1.315 . S
O235 Cd225 2.240 . S
O235 C233 1.279 . S
O236 Cd226 2.297 . S
O236 C231 1.247 . S
O237 Cd226 2.439 . S
O237 C231 1.208 . S
O238 Cd239 2.223 . S
O238 C246 1.315 . S
Cd239 O238 2.223 . S
Cd239 O242 2.297 . S
Cd239 O243 2.439 . S
Cd239 O249 2.240 . S
Cd240 O241 2.240 . S
Cd240 O248 2.223 . S
Cd240 O250 2.297 . S
Cd240 O251 2.439 . S
O241 Cd240 2.240 . S
O241 C246 1.279 . S
O242 Cd239 2.297 . S
O242 C244 1.247 . S
O243 Cd239 2.439 . S
O243 C244 1.208 . S
C244 O242 1.247 . S
C244 O243 1.208 . S
C245 O250 1.247 . S
C245 O251 1.208 . S
C246 O238 1.315 . S
C246 O241 1.279 . S
C247 O248 1.315 . S
C247 O249 1.279 . S
O248 Cd240 2.223 . S
O248 C247 1.315 . S
O249 Cd239 2.240 . S
O249 C247 1.279 . S
O250 Cd240 2.297 . S
O250 C245 1.247 . S
O251 Cd240 2.439 . S
O251 C245 1.208 . S
O252 Cd253 2.223 . S
O252 C260 1.315 . S
Cd253 O252 2.223 . S
Cd253 O256 2.297 . S
Cd253 O257 2.439 . S
Cd253 O263 2.240 . S
Cd254 O255 2.240 . S
Cd254 O262 2.223 . S
Cd254 O264 2.297 . S
Cd254 O265 2.439 . S
O255 Cd254 2.240 . S
O255 C260 1.279 . S
O256 Cd253 2.297 . S
O256 C258 1.247 . S
O257 Cd253 2.439 . S
O257 C258 1.208 . S
C258 O256 1.247 . S
C258 O257 1.208 . S
C259 O264 1.247 . S
C259 O265 1.208 . S
C260 O252 1.315 . S
C260 O255 1.279 . S
C261 O262 1.315 . S
C261 O263 1.279 . S
O262 Cd254 2.223 . S
O262 C261 1.315 . S
O263 Cd253 2.240 . S
O263 C261 1.279 . S
O264 Cd254 2.297 . S
O264 C259 1.247 . S
O265 Cd254 2.439 . S
O265 C259 1.208 . S
O266 Cd267 2.223 . S
O266 C274 1.315 . S
Cd267 O266 2.223 . S
Cd267 O270 2.297 . S
Cd267 O271 2.439 . S
Cd267 O277 2.240 . S
Cd268 O269 2.240 . S
Cd268 O276 2.223 . S
Cd268 O278 2.297 . S
Cd268 O279 2.439 . S
O269 Cd268 2.240 . S
O269 C274 1.279 . S
O270 Cd267 2.297 . S
O270 C272 1.247 . S
O271 Cd267 2.439 . S
O271 C272 1.208 . S
C272 O270 1.247 . S
C272 O271 1.208 . S
C273 O278 1.247 . S
C273 O279 1.208 . S
C274 O266 1.315 . S
C274 O269 1.279 . S
C275 O276 1.315 . S
C275 O277 1.279 . S
O276 Cd268 2.223 . S
O276 C275 1.315 . S
O277 Cd267 2.240 . S
O277 C275 1.279 . S
O278 Cd268 2.297 . S
O278 C273 1.247 . S
O279 Cd268 2.439 . S
O279 C273 1.208 . S
O280 Cd281 2.223 . S
O280 C288 1.315 . S
Cd281 O280 2.223 . S
Cd281 O284 2.297 . S
Cd281 O285 2.439 . S
Cd281 O291 2.240 . S
Cd282 O283 2.240 . S
Cd282 O290 2.223 . S
Cd282 O292 2.297 . S
Cd282 O293 2.439 . S
O283 Cd282 2.240 . S
O283 C288 1.279 . S
O284 Cd281 2.297 . S
O284 C286 1.247 . S
O285 Cd281 2.439 . S
O285 C286 1.208 . S
C286 O284 1.247 . S
C286 O285 1.208 . S
C287 O292 1.247 . S
C287 O293 1.208 . S
C288 O280 1.315 . S
C288 O283 1.279 . S
C289 O290 1.315 . S
C289 O291 1.279 . S
O290 Cd282 2.223 . S
O290 C289 1.315 . S
O291 Cd281 2.240 . S
O291 C289 1.279 . S
O292 Cd282 2.297 . S
O292 C287 1.247 . S
O293 Cd282 2.439 . S
O293 C287 1.208 . S
O294 Cd295 2.223 . S
O294 C302 1.315 . S
Cd295 O294 2.223 . S
Cd295 O298 2.297 . S
Cd295 O299 2.439 . S
Cd295 O305 2.240 . S
Cd296 O297 2.240 . S
Cd296 O304 2.223 . S
Cd296 O306 2.297 . S
Cd296 O307 2.439 . S
O297 Cd296 2.240 . S
O297 C302 1.279 . S
O298 Cd295 2.297 . S
O298 C300 1.247 . S
O299 Cd295 2.439 . S
O299 C300 1.208 . S
C300 O298 1.247 . S
C300 O299 1.208 . S
C301 O306 1.247 . S
C301 O307 1.208 . S
C302 O294 1.315 . S
C302 O297 1.279 . S
C303 O304 1.315 . S
C303 O305 1.279 . S
O304 Cd296 2.223 . S
O304 C303 1.315 . S
O305 Cd295 2.240 . S
O305 C303 1.279 . S
O306 Cd296 2.297 . S
O306 C301 1.247 . S
O307 Cd296 2.439 . S
O307 C301 1.208 . S
O308 Cd309 2.223 . S
O308 C316 1.315 . S
Cd309 O308 2.223 . S
Cd309 O312 2.297 . S
Cd309 O313 2.439 . S
Cd309 O319 2.240 . S
Cd310 O311 2.240 . S
Cd310 O318 2.223 . S
Cd310 O320 2.297 . S
Cd310 O321 2.439 . S
O311 Cd310 2.240 . S
O311 C316 1.279 . S
O312 Cd309 2.297 . S
O312 C314 1.247 . S
O313 Cd309 2.439 . S
O313 C314 1.208 . S
C314 O312 1.247 . S
C314 O313 1.208 . S
C315 O320 1.247 . S
C315 O321 1.208 . S
C316 O308 1.315 . S
C316 O311 1.279 . S
C317 O318 1.315 . S
C317 O319 1.279 . S
O318 Cd310 2.223 . S
O318 C317 1.315 . S
O319 Cd309 2.240 . S
O319 C317 1.279 . S
O320 Cd310 2.297 . S
O320 C315 1.247 . S
O321 Cd310 2.439 . S
O321 C315 1.208 . S
O322 Cd323 2.223 . S
O322 C330 1.315 . S
Cd323 O322 2.223 . S
Cd323 O326 2.297 . S
Cd323 O327 2.439 . S
Cd323 O333 2.240 . S
Cd324 O325 2.240 . S
Cd324 O332 2.223 . S
Cd324 O334 2.297 . S
Cd324 O335 2.439 . S
O325 Cd324 2.240 . S
O325 C330 1.279 . S
O326 Cd323 2.297 . S
O326 C328 1.247 . S
O327 Cd323 2.439 . S
O327 C328 1.208 . S
C328 O326 1.247 . S
C328 O327 1.208 . S
C329 O334 1.247 . S
C329 O335 1.208 . S
C330 O322 1.315 . S
C330 O325 1.279 . S
C331 O332 1.315 . S
C331 O333 1.279 . S
O332 Cd324 2.223 . S
O332 C331 1.315 . S
O333 Cd323 2.240 . S
O333 C331 1.279 . S
O334 Cd324 2.297 . S
O334 C329 1.247 . S
O335 Cd324 2.439 . S
O335 C329 1.208 . S
H336 C342 0.930 . S
H337 C345 0.930 . S
H338 C346 0.930 . S
H339 C347 0.930 . S
H340 C350 0.930 . S
H341 C351 0.930 . S
C342 H336 0.930 . S
C342 C343 1.355 . S
C342 C344 1.415 . S
C343 C342 1.355 . S
C343 C345 1.419 . S
C344 C342 1.415 . S
C344 C349 1.425 . S
C344 C351 1.409 . S
C345 H337 0.930 . S
C345 C343 1.419 . S
C345 C346 1.362 . S
C346 H338 0.930 . S
C346 C345 1.362 . S
C346 C349 1.409 . S
C347 H339 0.930 . S
C347 C348 1.355 . S
C347 C349 1.415 . S
C348 C347 1.355 . S
C348 C350 1.419 . S
C349 C344 1.425 . S
C349 C346 1.409 . S
C349 C347 1.415 . S
C350 H340 0.930 . S
C350 C348 1.419 . S
C350 C351 1.362 . S
C351 H341 0.930 . S
C351 C344 1.409 . S
C351 C350 1.362 . S
H352 C358 0.930 . S
H353 C361 0.930 . S
H354 C362 0.930 . S
H355 C363 0.930 . S
H356 C366 0.930 . S
H357 C367 0.930 . S
C358 H352 0.930 . S
C358 C359 1.355 . S
C358 C360 1.415 . S
C359 C358 1.355 . S
C359 C361 1.419 . S
C360 C358 1.415 . S
C360 C365 1.425 . S
C360 C367 1.409 . S
C361 H353 0.930 . S
C361 C359 1.419 . S
C361 C362 1.362 . S
C362 H354 0.930 . S
C362 C361 1.362 . S
C362 C365 1.409 . S
C363 H355 0.930 . S
C363 C364 1.355 . S
C363 C365 1.415 . S
C364 C363 1.355 . S
C364 C366 1.419 . S
C365 C360 1.425 . S
C365 C362 1.409 . S
C365 C363 1.415 . S
C366 H356 0.930 . S
C366 C364 1.419 . S
C366 C367 1.362 . S
C367 H357 0.930 . S
C367 C360 1.409 . S
C367 C366 1.362 . S
H368 C374 0.930 . S
H369 C377 0.930 . S
H370 C378 0.930 . S
H371 C379 0.930 . S
H372 C382 0.930 . S
H373 C383 0.930 . S
C374 H368 0.930 . S
C374 C375 1.355 . S
C374 C376 1.415 . S
C375 C374 1.355 . S
C375 C377 1.419 . S
C376 C374 1.415 . S
C376 C381 1.425 . S
C376 C383 1.409 . S
C377 H369 0.930 . S
C377 C375 1.419 . S
C377 C378 1.362 . S
C378 H370 0.930 . S
C378 C377 1.362 . S
C378 C381 1.409 . S
C379 H371 0.930 . S
C379 C380 1.355 . S
C379 C381 1.415 . S
C380 C379 1.355 . S
C380 C382 1.419 . S
C381 C376 1.425 . S
C381 C378 1.409 . S
C381 C379 1.415 . S
C382 H372 0.930 . S
C382 C380 1.419 . S
C382 C383 1.362 . S
C383 H373 0.930 . S
C383 C376 1.409 . S
C383 C382 1.362 . S
H384 C390 0.930 . S
H385 C393 0.930 . S
H386 C394 0.930 . S
H387 C395 0.930 . S
H388 C398 0.930 . S
H389 C399 0.930 . S
C390 H384 0.930 . S
C390 C391 1.355 . S
C390 C392 1.415 . S
C391 C390 1.355 . S
C391 C393 1.419 . S
C392 C390 1.415 . S
C392 C397 1.425 . S
C392 C399 1.409 . S
C393 H385 0.930 . S
C393 C391 1.419 . S
C393 C394 1.362 . S
C394 H386 0.930 . S
C394 C393 1.362 . S
C394 C397 1.409 . S
C395 H387 0.930 . S
C395 C396 1.355 . S
C395 C397 1.415 . S
C396 C395 1.355 . S
C396 C398 1.419 . S
C397 C392 1.425 . S
C397 C394 1.409 . S
C397 C395 1.415 . S
C398 H388 0.930 . S
C398 C396 1.419 . S
C398 C399 1.362 . S
C399 H389 0.930 . S
C399 C392 1.409 . S
C399 C398 1.362 . S
H400 C406 0.930 . S
H401 C409 0.930 . S
H402 C410 0.930 . S
H403 C411 0.930 . S
H404 C414 0.930 . S
H405 C415 0.930 . S
C406 H400 0.930 . S
C406 C407 1.355 . S
C406 C408 1.415 . S
C407 C406 1.355 . S
C407 C409 1.419 . S
C408 C406 1.415 . S
C408 C413 1.425 . S
C408 C415 1.409 . S
C409 H401 0.930 . S
C409 C407 1.419 . S
C409 C410 1.362 . S
C410 H402 0.930 . S
C410 C409 1.362 . S
C410 C413 1.409 . S
C411 H403 0.930 . S
C411 C412 1.355 . S
C411 C413 1.415 . S
C412 C411 1.355 . S
C412 C414 1.419 . S
C413 C408 1.425 . S
C413 C410 1.409 . S
C413 C411 1.415 . S
C414 H404 0.930 . S
C414 C412 1.419 . S
C414 C415 1.362 . S
C415 H405 0.930 . S
C415 C408 1.409 . S
C415 C414 1.362 . S
H416 C422 0.930 . S
H417 C425 0.930 . S
H418 C426 0.930 . S
H419 C427 0.930 . S
H420 C430 0.930 . S
H421 C431 0.930 . S
C422 H416 0.930 . S
C422 C423 1.355 . S
C422 C424 1.415 . S
C423 C422 1.355 . S
C423 C425 1.419 . S
C424 C422 1.415 . S
C424 C429 1.425 . S
C424 C431 1.409 . S
C425 H417 0.930 . S
C425 C423 1.419 . S
C425 C426 1.362 . S
C426 H418 0.930 . S
C426 C425 1.362 . S
C426 C429 1.409 . S
C427 H419 0.930 . S
C427 C428 1.355 . S
C427 C429 1.415 . S
C428 C427 1.355 . S
C428 C430 1.419 . S
C429 C424 1.425 . S
C429 C426 1.409 . S
C429 C427 1.415 . S
C430 H420 0.930 . S
C430 C428 1.419 . S
C430 C431 1.362 . S
C431 H421 0.930 . S
C431 C424 1.409 . S
C431 C430 1.362 . S
H432 C438 0.930 . S
H433 C441 0.930 . S
H434 C442 0.930 . S
H435 C443 0.930 . S
H436 C446 0.930 . S
H437 C447 0.930 . S
C438 H432 0.930 . S
C438 C439 1.355 . S
C438 C440 1.415 . S
C439 C438 1.355 . S
C439 C441 1.419 . S
C440 C438 1.415 . S
C440 C445 1.425 . S
C440 C447 1.409 . S
C441 H433 0.930 . S
C441 C439 1.419 . S
C441 C442 1.362 . S
C442 H434 0.930 . S
C442 C441 1.362 . S
C442 C445 1.409 . S
C443 H435 0.930 . S
C443 C444 1.355 . S
C443 C445 1.415 . S
C444 C443 1.355 . S
C444 C446 1.419 . S
C445 C440 1.425 . S
C445 C442 1.409 . S
C445 C443 1.415 . S
C446 H436 0.930 . S
C446 C444 1.419 . S
C446 C447 1.362 . S
C447 H437 0.930 . S
C447 C440 1.409 . S
C447 C446 1.362 . S
H448 C454 0.930 . S
H449 C457 0.930 . S
H450 C458 0.930 . S
H451 C459 0.930 . S
H452 C462 0.930 . S
H453 C463 0.930 . S
C454 H448 0.930 . S
C454 C455 1.355 . S
C454 C456 1.415 . S
C455 C454 1.355 . S
C455 C457 1.419 . S
C456 C454 1.415 . S
C456 C461 1.425 . S
C456 C463 1.409 . S
C457 H449 0.930 . S
C457 C455 1.419 . S
C457 C458 1.362 . S
C458 H450 0.930 . S
C458 C457 1.362 . S
C458 C461 1.409 . S
C459 H451 0.930 . S
C459 C460 1.355 . S
C459 C461 1.415 . S
C460 C459 1.355 . S
C460 C462 1.419 . S
C461 C456 1.425 . S
C461 C458 1.409 . S
C461 C459 1.415 . S
C462 H452 0.930 . S
C462 C460 1.419 . S
C462 C463 1.362 . S
C463 H453 0.930 . S
C463 C456 1.409 . S
C463 C462 1.362 . S
H464 C470 0.930 . S
H465 C473 0.930 . S
H466 C474 0.930 . S
H467 C475 0.930 . S
H468 C478 0.930 . S
H469 C479 0.930 . S
C470 H464 0.930 . S
C470 C471 1.355 . S
C470 C472 1.415 . S
C471 C470 1.355 . S
C471 C473 1.419 . S
C472 C470 1.415 . S
C472 C477 1.425 . S
C472 C479 1.409 . S
C473 H465 0.930 . S
C473 C471 1.419 . S
C473 C474 1.362 . S
C474 H466 0.930 . S
C474 C473 1.362 . S
C474 C477 1.409 . S
C475 H467 0.930 . S
C475 C476 1.355 . S
C475 C477 1.415 . S
C476 C475 1.355 . S
C476 C478 1.419 . S
C477 C472 1.425 . S
C477 C474 1.409 . S
C477 C475 1.415 . S
C478 H468 0.930 . S
C478 C476 1.419 . S
C478 C479 1.362 . S
C479 H469 0.930 . S
C479 C472 1.409 . S
C479 C478 1.362 . S
H480 C486 0.930 . S
H481 C489 0.930 . S
H482 C490 0.930 . S
H483 C491 0.930 . S
H484 C494 0.930 . S
H485 C495 0.930 . S
C486 H480 0.930 . S
C486 C487 1.355 . S
C486 C488 1.415 . S
C487 C486 1.355 . S
C487 C489 1.419 . S
C488 C486 1.415 . S
C488 C493 1.425 . S
C488 C495 1.409 . S
C489 H481 0.930 . S
C489 C487 1.419 . S
C489 C490 1.362 . S
C490 H482 0.930 . S
C490 C489 1.362 . S
C490 C493 1.409 . S
C491 H483 0.930 . S
C491 C492 1.355 . S
C491 C493 1.415 . S
C492 C491 1.355 . S
C492 C494 1.419 . S
C493 C488 1.425 . S
C493 C490 1.409 . S
C493 C491 1.415 . S
C494 H484 0.930 . S
C494 C492 1.419 . S
C494 C495 1.362 . S
C495 H485 0.930 . S
C495 C488 1.409 . S
C495 C494 1.362 . S
H496 C502 0.930 . S
H497 C505 0.930 . S
H498 C506 0.930 . S
H499 C507 0.930 . S
H500 C510 0.930 . S
H501 C511 0.930 . S
C502 H496 0.930 . S
C502 C503 1.355 . S
C502 C504 1.415 . S
C503 C502 1.355 . S
C503 C505 1.419 . S
C504 C502 1.415 . S
C504 C509 1.425 . S
C504 C511 1.409 . S
C505 H497 0.930 . S
C505 C503 1.419 . S
C505 C506 1.362 . S
C506 H498 0.930 . S
C506 C505 1.362 . S
C506 C509 1.409 . S
C507 H499 0.930 . S
C507 C508 1.355 . S
C507 C509 1.415 . S
C508 C507 1.355 . S
C508 C510 1.419 . S
C509 C504 1.425 . S
C509 C506 1.409 . S
C509 C507 1.415 . S
C510 H500 0.930 . S
C510 C508 1.419 . S
C510 C511 1.362 . S
C511 H501 0.930 . S
C511 C504 1.409 . S
C511 C510 1.362 . S
H512 C518 0.930 . S
H513 C521 0.930 . S
H514 C522 0.930 . S
H515 C523 0.930 . S
H516 C526 0.930 . S
H517 C527 0.930 . S
C518 H512 0.930 . S
C518 C519 1.355 . S
C518 C520 1.415 . S
C519 C518 1.355 . S
C519 C521 1.419 . S
C520 C518 1.415 . S
C520 C525 1.425 . S
C520 C527 1.409 . S
C521 H513 0.930 . S
C521 C519 1.419 . S
C521 C522 1.362 . S
C522 H514 0.930 . S
C522 C521 1.362 . S
C522 C525 1.409 . S
C523 H515 0.930 . S
C523 C524 1.355 . S
C523 C525 1.415 . S
C524 C523 1.355 . S
C524 C526 1.419 . S
C525 C520 1.425 . S
C525 C522 1.409 . S
C525 C523 1.415 . S
C526 H516 0.930 . S
C526 C524 1.419 . S
C526 C527 1.362 . S
C527 H517 0.930 . S
C527 C520 1.409 . S
C527 C526 1.362 . S
H528 C534 0.930 . S
H529 C537 0.930 . S
H530 C538 0.930 . S
H531 C539 0.930 . S
H532 C542 0.930 . S
H533 C543 0.930 . S
C534 H528 0.930 . S
C534 C535 1.355 . S
C534 C536 1.415 . S
C535 C534 1.355 . S
C535 C537 1.419 . S
C536 C534 1.415 . S
C536 C541 1.425 . S
C536 C543 1.409 . S
C537 H529 0.930 . S
C537 C535 1.419 . S
C537 C538 1.362 . S
C538 H530 0.930 . S
C538 C537 1.362 . S
C538 C541 1.409 . S
C539 H531 0.930 . S
C539 C540 1.355 . S
C539 C541 1.415 . S
C540 C539 1.355 . S
C540 C542 1.419 . S
C541 C536 1.425 . S
C541 C538 1.409 . S
C541 C539 1.415 . S
C542 H532 0.930 . S
C542 C540 1.419 . S
C542 C543 1.362 . S
C543 H533 0.930 . S
C543 C536 1.409 . S
C543 C542 1.362 . S
H544 C550 0.930 . S
H545 C553 0.930 . S
H546 C554 0.930 . S
H547 C555 0.930 . S
H548 C558 0.930 . S
H549 C559 0.930 . S
C550 H544 0.930 . S
C550 C551 1.355 . S
C550 C552 1.415 . S
C551 C550 1.355 . S
C551 C553 1.419 . S
C552 C550 1.415 . S
C552 C557 1.425 . S
C552 C559 1.409 . S
C553 H545 0.930 . S
C553 C551 1.419 . S
C553 C554 1.362 . S
C554 H546 0.930 . S
C554 C553 1.362 . S
C554 C557 1.409 . S
C555 H547 0.930 . S
C555 C556 1.355 . S
C555 C557 1.415 . S
C556 C555 1.355 . S
C556 C558 1.419 . S
C557 C552 1.425 . S
C557 C554 1.409 . S
C557 C555 1.415 . S
C558 H548 0.930 . S
C558 C556 1.419 . S
C558 C559 1.362 . S
C559 H549 0.930 . S
C559 C552 1.409 . S
C559 C558 1.362 . S
H560 C566 0.930 . S
H561 C569 0.930 . S
H562 C570 0.930 . S
H563 C571 0.930 . S
H564 C574 0.930 . S
H565 C575 0.930 . S
C566 H560 0.930 . S
C566 C567 1.355 . S
C566 C568 1.415 . S
C567 C566 1.355 . S
C567 C569 1.419 . S
C568 C566 1.415 . S
C568 C573 1.425 . S
C568 C575 1.409 . S
C569 H561 0.930 . S
C569 C567 1.419 . S
C569 C570 1.362 . S
C570 H562 0.930 . S
C570 C569 1.362 . S
C570 C573 1.409 . S
C571 H563 0.930 . S
C571 C572 1.355 . S
C571 C573 1.415 . S
C572 C571 1.355 . S
C572 C574 1.419 . S
C573 C568 1.425 . S
C573 C570 1.409 . S
C573 C571 1.415 . S
C574 H564 0.930 . S
C574 C572 1.419 . S
C574 C575 1.362 . S
C575 H565 0.930 . S
C575 C568 1.409 . S
C575 C574 1.362 . S
H576 C582 0.930 . S
H577 C585 0.930 . S
H578 C586 0.930 . S
H579 C587 0.930 . S
H580 C590 0.930 . S
H581 C591 0.930 . S
C582 H576 0.930 . S
C582 C583 1.355 . S
C582 C584 1.415 . S
C583 C582 1.355 . S
C583 C585 1.419 . S
C584 C582 1.415 . S
C584 C589 1.425 . S
C584 C591 1.409 . S
C585 H577 0.930 . S
C585 C583 1.419 . S
C585 C586 1.362 . S
C586 H578 0.930 . S
C586 C585 1.362 . S
C586 C589 1.409 . S
C587 H579 0.930 . S
C587 C588 1.355 . S
C587 C589 1.415 . S
C588 C587 1.355 . S
C588 C590 1.419 . S
C589 C584 1.425 . S
C589 C586 1.409 . S
C589 C587 1.415 . S
C590 H580 0.930 . S
C590 C588 1.419 . S
C590 C591 1.362 . S
C591 H581 0.930 . S
C591 C584 1.409 . S
C591 C590 1.362 . S
H592 C598 0.930 . S
H593 C601 0.930 . S
H594 C602 0.930 . S
H595 C603 0.930 . S
H596 C606 0.930 . S
H597 C607 0.930 . S
C598 H592 0.930 . S
C598 C599 1.355 . S
C598 C600 1.415 . S
C599 C598 1.355 . S
C599 C601 1.419 . S
C600 C598 1.415 . S
C600 C605 1.425 . S
C600 C607 1.409 . S
C601 H593 0.930 . S
C601 C599 1.419 . S
C601 C602 1.362 . S
C602 H594 0.930 . S
C602 C601 1.362 . S
C602 C605 1.409 . S
C603 H595 0.930 . S
C603 C604 1.355 . S
C603 C605 1.415 . S
C604 C603 1.355 . S
C604 C606 1.419 . S
C605 C600 1.425 . S
C605 C602 1.409 . S
C605 C603 1.415 . S
C606 H596 0.930 . S
C606 C604 1.419 . S
C606 C607 1.362 . S
C607 H597 0.930 . S
C607 C600 1.409 . S
C607 C606 1.362 . S
H608 C614 0.930 . S
H609 C617 0.930 . S
H610 C618 0.930 . S
H611 C619 0.930 . S
H612 C622 0.930 . S
H613 C623 0.930 . S
C614 H608 0.930 . S
C614 C615 1.355 . S
C614 C616 1.415 . S
C615 C614 1.355 . S
C615 C617 1.419 . S
C616 C614 1.415 . S
C616 C621 1.425 . S
C616 C623 1.409 . S
C617 H609 0.930 . S
C617 C615 1.419 . S
C617 C618 1.362 . S
C618 H610 0.930 . S
C618 C617 1.362 . S
C618 C621 1.409 . S
C619 H611 0.930 . S
C619 C620 1.355 . S
C619 C621 1.415 . S
C620 C619 1.355 . S
C620 C622 1.419 . S
C621 C616 1.425 . S
C621 C618 1.409 . S
C621 C619 1.415 . S
C622 H612 0.930 . S
C622 C620 1.419 . S
C622 C623 1.362 . S
C623 H613 0.930 . S
C623 C616 1.409 . S
C623 C622 1.362 . S
H624 C630 0.930 . S
H625 C633 0.930 . S
H626 C634 0.930 . S
H627 C635 0.930 . S
H628 C638 0.930 . S
H629 C639 0.930 . S
C630 H624 0.930 . S
C630 C631 1.355 . S
C630 C632 1.415 . S
C631 C630 1.355 . S
C631 C633 1.419 . S
C632 C630 1.415 . S
C632 C637 1.425 . S
C632 C639 1.409 . S
C633 H625 0.930 . S
C633 C631 1.419 . S
C633 C634 1.362 . S
C634 H626 0.930 . S
C634 C633 1.362 . S
C634 C637 1.409 . S
C635 H627 0.930 . S
C635 C636 1.355 . S
C635 C637 1.415 . S
C636 C635 1.355 . S
C636 C638 1.419 . S
C637 C632 1.425 . S
C637 C634 1.409 . S
C637 C635 1.415 . S
C638 H628 0.930 . S
C638 C636 1.419 . S
C638 C639 1.362 . S
C639 H629 0.930 . S
C639 C632 1.409 . S
C639 C638 1.362 . S
H640 C646 0.930 . S
H641 C649 0.930 . S
H642 C650 0.930 . S
H643 C651 0.930 . S
H644 C654 0.930 . S
H645 C655 0.930 . S
C646 H640 0.930 . S
C646 C647 1.355 . S
C646 C648 1.415 . S
C647 C646 1.355 . S
C647 C649 1.419 . S
C648 C646 1.415 . S
C648 C653 1.425 . S
C648 C655 1.409 . S
C649 H641 0.930 . S
C649 C647 1.419 . S
C649 C650 1.362 . S
C650 H642 0.930 . S
C650 C649 1.362 . S
C650 C653 1.409 . S
C651 H643 0.930 . S
C651 C652 1.355 . S
C651 C653 1.415 . S
C652 C651 1.355 . S
C652 C654 1.419 . S
C653 C648 1.425 . S
C653 C650 1.409 . S
C653 C651 1.415 . S
C654 H644 0.930 . S
C654 C652 1.419 . S
C654 C655 1.362 . S
C655 H645 0.930 . S
C655 C648 1.409 . S
C655 C654 1.362 . S
H656 C662 0.930 . S
H657 C665 0.930 . S
H658 C666 0.930 . S
H659 C667 0.930 . S
H660 C670 0.930 . S
H661 C671 0.930 . S
C662 H656 0.930 . S
C662 C663 1.355 . S
C662 C664 1.415 . S
C663 C662 1.355 . S
C663 C665 1.419 . S
C664 C662 1.415 . S
C664 C669 1.425 . S
C664 C671 1.409 . S
C665 H657 0.930 . S
C665 C663 1.419 . S
C665 C666 1.362 . S
C666 H658 0.930 . S
C666 C665 1.362 . S
C666 C669 1.409 . S
C667 H659 0.930 . S
C667 C668 1.355 . S
C667 C669 1.415 . S
C668 C667 1.355 . S
C668 C670 1.419 . S
C669 C664 1.425 . S
C669 C666 1.409 . S
C669 C667 1.415 . S
C670 H660 0.930 . S
C670 C668 1.419 . S
C670 C671 1.362 . S
C671 H661 0.930 . S
C671 C664 1.409 . S
C671 C670 1.362 . S
H672 C678 0.930 . S
H673 C681 0.930 . S
H674 C682 0.930 . S
H675 C683 0.930 . S
H676 C686 0.930 . S
H677 C687 0.930 . S
C678 H672 0.930 . S
C678 C679 1.355 . S
C678 C680 1.415 . S
C679 C678 1.355 . S
C679 C681 1.419 . S
C680 C678 1.415 . S
C680 C685 1.425 . S
C680 C687 1.409 . S
C681 H673 0.930 . S
C681 C679 1.419 . S
C681 C682 1.362 . S
C682 H674 0.930 . S
C682 C681 1.362 . S
C682 C685 1.409 . S
C683 H675 0.930 . S
C683 C684 1.355 . S
C683 C685 1.415 . S
C684 C683 1.355 . S
C684 C686 1.419 . S
C685 C680 1.425 . S
C685 C682 1.409 . S
C685 C683 1.415 . S
C686 H676 0.930 . S
C686 C684 1.419 . S
C686 C687 1.362 . S
C687 H677 0.930 . S
C687 C680 1.409 . S
C687 C686 1.362 . S
H688 C694 0.930 . S
H689 C697 0.930 . S
H690 C698 0.930 . S
H691 C699 0.930 . S
H692 C702 0.930 . S
H693 C703 0.930 . S
C694 H688 0.930 . S
C694 C695 1.355 . S
C694 C696 1.415 . S
C695 C694 1.355 . S
C695 C697 1.419 . S
C696 C694 1.415 . S
C696 C701 1.425 . S
C696 C703 1.409 . S
C697 H689 0.930 . S
C697 C695 1.419 . S
C697 C698 1.362 . S
C698 H690 0.930 . S
C698 C697 1.362 . S
C698 C701 1.409 . S
C699 H691 0.930 . S
C699 C700 1.355 . S
C699 C701 1.415 . S
C700 C699 1.355 . S
C700 C702 1.419 . S
C701 C696 1.425 . S
C701 C698 1.409 . S
C701 C699 1.415 . S
C702 H692 0.930 . S
C702 C700 1.419 . S
C702 C703 1.362 . S
C703 H693 0.930 . S
C703 C696 1.409 . S
C703 C702 1.362 . S
H704 C710 0.930 . S
H705 C713 0.930 . S
H706 C714 0.930 . S
H707 C715 0.930 . S
H708 C718 0.930 . S
H709 C719 0.930 . S
C710 H704 0.930 . S
C710 C711 1.355 . S
C710 C712 1.415 . S
C711 C710 1.355 . S
C711 C713 1.419 . S
C712 C710 1.415 . S
C712 C717 1.425 . S
C712 C719 1.409 . S
C713 H705 0.930 . S
C713 C711 1.419 . S
C713 C714 1.362 . S
C714 H706 0.930 . S
C714 C713 1.362 . S
C714 C717 1.409 . S
C715 H707 0.930 . S
C715 C716 1.355 . S
C715 C717 1.415 . S
C716 C715 1.355 . S
C716 C718 1.419 . S
C717 C712 1.425 . S
C717 C714 1.409 . S
C717 C715 1.415 . S
C718 H708 0.930 . S
C718 C716 1.419 . S
C718 C719 1.362 . S
C719 H709 0.930 . S
C719 C712 1.409 . S
C719 C718 1.362 . S
H720 C726 0.930 . S
H721 C729 0.930 . S
H722 C730 0.930 . S
H723 C731 0.930 . S
H724 C734 0.930 . S
H725 C735 0.930 . S
C726 H720 0.930 . S
C726 C727 1.355 . S
C726 C728 1.414 1_565 S
C727 C726 1.355 . S
C727 C729 1.419 . S
C728 C726 1.414 1_545 S
C728 C733 1.424 1_546 S
C728 C735 1.410 1_556 S
C729 H721 0.930 . S
C729 C727 1.419 . S
C729 C730 1.362 . S
C730 H722 0.930 . S
C730 C729 1.362 . S
C730 C733 1.410 1_556 S
C731 H723 0.930 . S
C731 C732 1.355 . S
C731 C733 1.414 1_545 S
C732 C731 1.355 . S
C732 C734 1.419 . S
C733 C728 1.424 1_564 S
C733 C730 1.410 1_554 S
C733 C731 1.414 1_565 S
C734 H724 0.930 . S
C734 C732 1.419 . S
C734 C735 1.362 . S
C735 H725 0.930 . S
C735 C728 1.410 1_554 S
C735 C734 1.362 . S
H736 C742 0.930 . S
H737 C745 0.930 . S
H738 C746 0.930 . S
H739 C747 0.930 . S
H740 C750 0.930 . S
H741 C751 0.930 . S
C742 H736 0.930 . S
C742 C743 1.355 . S
C742 C744 1.415 . S
C743 C742 1.355 . S
C743 C745 1.419 . S
C744 C742 1.415 . S
C744 C749 1.425 . S
C744 C751 1.409 . S
C745 H737 0.930 . S
C745 C743 1.419 . S
C745 C746 1.362 . S
C746 H738 0.930 . S
C746 C745 1.362 . S
C746 C749 1.409 . S
C747 H739 0.930 . S
C747 C748 1.355 . S
C747 C749 1.415 . S
C748 C747 1.355 . S
C748 C750 1.419 . S
C749 C744 1.425 . S
C749 C746 1.409 . S
C749 C747 1.415 . S
C750 H740 0.930 . S
C750 C748 1.419 . S
C750 C751 1.362 . S
C751 H741 0.930 . S
C751 C744 1.409 . S
C751 C750 1.362 . S
H752 C758 0.932 . S
H753 C761 0.930 . S
H754 C762 0.930 1_554 S
H755 C763 0.932 . S
H756 C766 0.930 . S
H757 C767 0.930 1_556 S
C758 H752 0.932 . S
C758 C759 1.352 1_655 S
C758 C760 1.415 . S
C759 C758 1.352 1_455 S
C759 C761 1.419 . S
C760 C758 1.415 . S
C760 C765 1.425 1_656 S
C760 C767 1.409 1_556 S
C761 H753 0.930 . S
C761 C759 1.419 . S
C761 C762 1.362 . S
C762 H754 0.930 1_556 S
C762 C761 1.362 . S
C762 C765 1.409 1_556 S
C763 H755 0.932 . S
C763 C764 1.352 1_455 S
C763 C765 1.415 . S
C764 C763 1.352 1_655 S
C764 C766 1.419 . S
C765 C760 1.425 1_454 S
C765 C762 1.409 1_554 S
C765 C763 1.415 . S
C766 H756 0.930 . S
C766 C764 1.419 . S
C766 C767 1.362 . S
C767 H757 0.930 1_554 S
C767 C760 1.409 1_554 S
C767 C766 1.362 . S
H768 C774 0.943 . S
H769 C777 0.930 . S
H770 C778 0.930 . S
H771 C779 0.943 . S
H772 C782 0.930 . S
H773 C783 0.930 . S
C774 H768 0.943 . S
C774 C775 1.329 1_565 S
C774 C776 1.430 . S
C775 C774 1.329 1_545 S
C775 C777 1.419 . S
C776 C774 1.430 . S
C776 C781 1.425 1_565 S
C776 C783 1.409 . S
C777 H769 0.930 . S
C777 C775 1.419 . S
C777 C778 1.362 . S
C778 H770 0.930 . S
C778 C777 1.362 . S
C778 C781 1.409 . S
C779 H771 0.943 . S
C779 C780 1.328 1_545 S
C779 C781 1.430 . S
C780 C779 1.328 1_565 S
C780 C782 1.419 . S
C781 C776 1.425 1_545 S
C781 C778 1.409 . S
C781 C779 1.430 . S
C782 H772 0.930 . S
C782 C780 1.419 . S
C782 C783 1.362 . S
C783 H773 0.930 . S
C783 C776 1.409 . S
C783 C782 1.362 . S
H784 C790 0.930 . S
H785 C793 0.930 . S
H786 C794 0.930 . S
H787 C795 0.930 . S
H788 C798 0.930 . S
H789 C799 0.930 . S
C790 H784 0.930 . S
C790 C791 1.355 . S
C790 C792 1.397 1_554 S
C791 C790 1.355 . S
C791 C793 1.419 . S
C792 C790 1.397 1_556 S
C792 C797 1.424 1_556 S
C792 C799 1.427 . S
C793 H785 0.930 . S
C793 C791 1.419 . S
C793 C794 1.362 . S
C794 H786 0.930 . S
C794 C793 1.362 . S
C794 C797 1.427 . S
C795 H787 0.930 . S
C795 C796 1.355 . S
C795 C797 1.397 1_556 S
C796 C795 1.355 . S
C796 C798 1.419 . S
C797 C792 1.424 1_554 S
C797 C794 1.427 . S
C797 C795 1.397 1_554 S
C798 H788 0.930 . S
C798 C796 1.419 . S
C798 C799 1.362 . S
C799 H789 0.930 . S
C799 C792 1.427 . S
C799 C798 1.362 . S
H800 C806 0.930 . S
H801 C809 0.930 . S
H802 C810 0.930 . S
H803 C811 0.930 . S
H804 C814 0.930 . S
H805 C815 0.930 . S
C806 H800 0.930 . S
C806 C807 1.355 1_655 S
C806 C808 1.415 . S
C807 C806 1.355 1_455 S
C807 C809 1.419 . S
C808 C806 1.415 . S
C808 C813 1.425 1_655 S
C808 C815 1.409 . S
C809 H801 0.930 . S
C809 C807 1.419 . S
C809 C810 1.362 . S
C810 H802 0.930 . S
C810 C809 1.362 . S
C810 C813 1.409 . S
C811 H803 0.930 . S
C811 C812 1.355 1_455 S
C811 C813 1.415 . S
C812 C811 1.355 1_655 S
C812 C814 1.419 . S
C813 C808 1.425 1_455 S
C813 C810 1.409 . S
C813 C811 1.415 . S
C814 H804 0.930 . S
C814 C812 1.419 . S
C814 C815 1.362 . S
C815 H805 0.930 . S
C815 C808 1.409 . S
C815 C814 1.362 . S
H816 C822 0.930 . S
H817 C825 0.930 . S
H818 C826 0.930 . S
H819 C827 0.930 . S
H820 C830 0.930 . S
H821 C831 0.930 . S
C822 H816 0.930 . S
C822 C823 1.355 . S
C822 C824 1.415 1_565 S
C823 C822 1.355 . S
C823 C825 1.419 . S
C824 C822 1.415 1_545 S
C824 C829 1.425 1_546 S
C824 C831 1.409 1_556 S
C825 H817 0.930 . S
C825 C823 1.419 . S
C825 C826 1.362 . S
C826 H818 0.930 . S
C826 C825 1.362 . S
C826 C829 1.409 1_556 S
C827 H819 0.930 . S
C827 C828 1.355 . S
C827 C829 1.415 1_545 S
C828 C827 1.355 . S
C828 C830 1.419 . S
C829 C824 1.425 1_564 S
C829 C826 1.409 1_554 S
C829 C827 1.415 1_565 S
C830 H820 0.930 . S
C830 C828 1.419 . S
C830 C831 1.362 . S
C831 H821 0.930 . S
C831 C824 1.409 1_554 S
C831 C830 1.362 . S
H832 C838 0.930 . S
H833 C841 0.930 . S
H834 C842 0.930 . S
H835 C843 0.930 . S
H836 C846 0.930 . S
H837 C847 0.930 . S
C838 H832 0.930 . S
C838 C839 1.355 . S
C838 C840 1.415 . S
C839 C838 1.355 . S
C839 C841 1.419 . S
C840 C838 1.415 . S
C840 C845 1.425 . S
C840 C847 1.409 . S
C841 H833 0.930 . S
C841 C839 1.419 . S
C841 C842 1.362 . S
C842 H834 0.930 . S
C842 C841 1.362 . S
C842 C845 1.409 . S
C843 H835 0.930 . S
C843 C844 1.355 . S
C843 C845 1.415 . S
C844 C843 1.355 . S
C844 C846 1.419 . S
C845 C840 1.425 . S
C845 C842 1.409 . S
C845 C843 1.415 . S
C846 H836 0.930 . S
C846 C844 1.419 . S
C846 C847 1.362 . S
C847 H837 0.930 . S
C847 C840 1.409 . S
C847 C846 1.362 . S
H848 C854 0.930 . S
H849 C857 0.930 . S
H850 C858 0.930 . S
H851 C859 0.930 . S
H852 C862 0.930 . S
H853 C863 0.930 . S
C854 H848 0.930 . S
C854 C855 1.355 . S
C854 C856 1.415 . S
C855 C854 1.355 . S
C855 C857 1.419 . S
C856 C854 1.415 . S
C856 C861 1.425 1_654 S
C856 C863 1.409 1_554 S
C857 H849 0.930 . S
C857 C855 1.419 . S
C857 C858 1.362 1_655 S
C858 H850 0.930 . S
C858 C857 1.362 1_455 S
C858 C861 1.409 1_554 S
C859 H851 0.930 . S
C859 C860 1.355 . S
C859 C861 1.415 . S
C860 C859 1.355 . S
C860 C862 1.419 . S
C861 C856 1.425 1_456 S
C861 C858 1.409 1_556 S
C861 C859 1.415 . S
C862 H852 0.930 . S
C862 C860 1.419 . S
C862 C863 1.362 1_455 S
C863 H853 0.930 . S
C863 C856 1.409 1_556 S
C863 C862 1.362 1_655 S
H864 C870 0.930 . S
H865 C873 0.930 . S
H866 C874 0.930 . S
H867 C875 0.930 . S
H868 C878 0.930 . S
H869 C879 0.930 . S
C870 H864 0.930 . S
C870 C871 1.355 . S
C870 C872 1.415 1_565 S
C871 C870 1.355 . S
C871 C873 1.419 . S
C872 C870 1.415 1_545 S
C872 C877 1.425 1_545 S
C872 C879 1.409 . S
C873 H865 0.930 . S
C873 C871 1.419 . S
C873 C874 1.362 . S
C874 H866 0.930 . S
C874 C873 1.362 . S
C874 C877 1.409 . S
C875 H867 0.930 . S
C875 C876 1.355 . S
C875 C877 1.415 1_545 S
C876 C875 1.355 . S
C876 C878 1.419 . S
C877 C872 1.425 1_565 S
C877 C874 1.409 . S
C877 C875 1.415 1_565 S
C878 H868 0.930 . S
C878 C876 1.419 . S
C878 C879 1.362 . S
C879 H869 0.930 . S
C879 C872 1.409 . S
C879 C878 1.362 . S
H880 C886 0.930 . S
H881 C889 0.930 . S
H882 C890 0.930 1_556 S
H883 C891 0.930 . S
H884 C894 0.930 . S
H885 C895 0.930 1_554 S
C886 H880 0.930 . S
C886 C887 1.355 . S
C886 C888 1.415 . S
C887 C886 1.355 . S
C887 C889 1.419 . S
C888 C886 1.415 . S
C888 C893 1.425 1_554 S
C888 C895 1.409 1_554 S
C889 H881 0.930 . S
C889 C887 1.419 . S
C889 C890 1.362 . S
C890 H882 0.930 1_554 S
C890 C889 1.362 . S
C890 C893 1.409 1_554 S
C891 H883 0.930 . S
C891 C892 1.355 . S
C891 C893 1.415 . S
C892 C891 1.355 . S
C892 C894 1.419 . S
C893 C888 1.425 1_556 S
C893 C890 1.409 1_556 S
C893 C891 1.415 . S
C894 H884 0.930 . S
C894 C892 1.419 . S
C894 C895 1.362 . S
C895 H885 0.930 1_556 S
C895 C888 1.409 1_556 S
C895 C894 1.362 . S
H896 C902 0.930 . S
H897 C905 0.930 . S
H898 C906 0.930 . S
H899 C907 0.930 . S
H900 C910 0.930 . S
H901 C911 0.930 . S
C902 H896 0.930 . S
C902 C903 1.355 . S
C902 C904 1.415 . S
C903 C902 1.355 . S
C903 C905 1.419 1_455 S
C904 C902 1.415 . S
C904 C909 1.425 1_455 S
C904 C911 1.409 . S
C905 H897 0.930 . S
C905 C903 1.419 1_655 S
C905 C906 1.362 . S
C906 H898 0.930 . S
C906 C905 1.362 . S
C906 C909 1.409 . S
C907 H899 0.930 . S
C907 C908 1.355 . S
C907 C909 1.415 . S
C908 C907 1.355 . S
C908 C910 1.419 1_655 S
C909 C904 1.425 1_655 S
C909 C906 1.409 . S
C909 C907 1.415 . S
C910 H900 0.930 . S
C910 C908 1.419 1_455 S
C910 C911 1.362 . S
C911 H901 0.930 . S
C911 C904 1.409 . S
C911 C910 1.362 . S
H912 C918 0.930 . S
H913 C921 0.930 . S
H914 C922 0.930 . S
H915 C923 0.930 . S
H916 C926 0.930 . S
H917 C927 0.930 . S
C918 H912 0.930 . S
C918 C919 1.355 . S
C918 C920 1.415 . S
C919 C918 1.355 . S
C919 C921 1.419 . S
C920 C918 1.415 . S
C920 C925 1.425 . S
C920 C927 1.409 . S
C921 H913 0.930 . S
C921 C919 1.419 . S
C921 C922 1.362 . S
C922 H914 0.930 . S
C922 C921 1.362 . S
C922 C925 1.409 . S
C923 H915 0.930 . S
C923 C924 1.355 . S
C923 C925 1.415 . S
C924 C923 1.355 . S
C924 C926 1.419 . S
C925 C920 1.425 . S
C925 C922 1.409 . S
C925 C923 1.415 . S
C926 H916 0.930 . S
C926 C924 1.419 . S
C926 C927 1.362 . S
C927 H917 0.930 . S
C927 C920 1.409 . S
C927 C926 1.362 . S
H928 C934 0.930 . S
H929 C937 0.930 . S
H930 C938 0.930 . S
H931 C939 0.930 . S
H932 C942 0.930 . S
H933 C943 0.930 . S
C934 H928 0.930 . S
C934 C935 1.355 . S
C934 C936 1.415 . S
C935 C934 1.355 . S
C935 C937 1.419 . S
C936 C934 1.415 . S
C936 C941 1.425 . S
C936 C943 1.409 . S
C937 H929 0.930 . S
C937 C935 1.419 . S
C937 C938 1.362 . S
C938 H930 0.930 . S
C938 C937 1.362 . S
C938 C941 1.409 . S
C939 H931 0.930 . S
C939 C940 1.355 . S
C939 C941 1.415 . S
C940 C939 1.355 . S
C940 C942 1.419 . S
C941 C936 1.425 . S
C941 C938 1.409 . S
C941 C939 1.415 . S
C942 H932 0.930 . S
C942 C940 1.419 . S
C942 C943 1.362 . S
C943 H933 0.930 . S
C943 C936 1.409 . S
C943 C942 1.362 . S
H944 C950 0.930 . S
H945 C953 0.930 . S
H946 C954 0.930 . S
H947 C955 0.930 . S
H948 C958 0.930 . S
H949 C959 0.930 . S
C950 H944 0.930 . S
C950 C951 1.355 . S
C950 C952 1.415 . S
C951 C950 1.355 . S
C951 C953 1.419 . S
C952 C950 1.415 . S
C952 C957 1.425 . S
C952 C959 1.409 . S
C953 H945 0.930 . S
C953 C951 1.419 . S
C953 C954 1.362 . S
C954 H946 0.930 . S
C954 C953 1.362 . S
C954 C957 1.409 . S
C955 H947 0.930 . S
C955 C956 1.355 . S
C955 C957 1.415 . S
C956 C955 1.355 . S
C956 C958 1.419 . S
C957 C952 1.425 . S
C957 C954 1.409 . S
C957 C955 1.415 . S
C958 H948 0.930 . S
C958 C956 1.419 . S
C958 C959 1.362 . S
C959 H949 0.930 . S
C959 C952 1.409 . S
C959 C958 1.362 . S
H960 C966 0.930 . S
H961 C969 0.930 . S
H962 C970 0.930 . S
H963 C971 0.930 . S
H964 C974 0.930 . S
H965 C975 0.930 . S
C966 H960 0.930 . S
C966 C967 1.355 . S
C966 C968 1.415 . S
C967 C966 1.355 . S
C967 C969 1.419 . S
C968 C966 1.415 . S
C968 C973 1.425 . S
C968 C975 1.409 . S
C969 H961 0.930 . S
C969 C967 1.419 . S
C969 C970 1.362 . S
C970 H962 0.930 . S
C970 C969 1.362 . S
C970 C973 1.409 . S
C971 H963 0.930 . S
C971 C972 1.355 . S
C971 C973 1.415 . S
C972 C971 1.355 . S
C972 C974 1.419 . S
C973 C968 1.425 . S
C973 C970 1.409 . S
C973 C971 1.415 . S
C974 H964 0.930 . S
C974 C972 1.419 . S
C974 C975 1.362 . S
C975 H965 0.930 . S
C975 C968 1.409 . S
C975 C974 1.362 . S
H976 C982 0.930 . S
H977 C985 0.930 . S
H978 C986 0.930 . S
H979 C987 0.930 . S
H980 C990 0.930 . S
H981 C991 0.930 . S
C982 H976 0.930 . S
C982 C983 1.355 . S
C982 C984 1.415 . S
C983 C982 1.355 . S
C983 C985 1.419 . S
C984 C982 1.415 . S
C984 C989 1.425 . S
C984 C991 1.409 . S
C985 H977 0.930 . S
C985 C983 1.419 . S
C985 C986 1.362 . S
C986 H978 0.930 . S
C986 C985 1.362 . S
C986 C989 1.409 . S
C987 H979 0.930 . S
C987 C988 1.355 . S
C987 C989 1.415 . S
C988 C987 1.355 . S
C988 C990 1.419 . S
C989 C984 1.425 . S
C989 C986 1.409 . S
C989 C987 1.415 . S
C990 H980 0.930 . S
C990 C988 1.419 . S
C990 C991 1.362 . S
C991 H981 0.930 . S
C991 C984 1.409 . S
C991 C990 1.362 . S
H992 C998 0.930 . S
H993 C1001 0.930 . S
H994 C1002 0.930 . S
H995 C1003 0.930 . S
H996 C1006 0.930 . S
H997 C1007 0.930 . S
C998 H992 0.930 . S
C998 C999 1.355 . S
C998 C1000 1.415 . S
C999 C998 1.355 . S
C999 C1001 1.419 . S
C1000 C998 1.415 . S
C1000 C1005 1.425 . S
C1000 C1007 1.409 . S
C1001 H993 0.930 . S
C1001 C999 1.419 . S
C1001 C1002 1.362 . S
C1002 H994 0.930 . S
C1002 C1001 1.362 . S
C1002 C1005 1.409 . S
C1003 H995 0.930 . S
C1003 C1004 1.355 . S
C1003 C1005 1.415 . S
C1004 C1003 1.355 . S
C1004 C1006 1.419 . S
C1005 C1000 1.425 . S
C1005 C1002 1.409 . S
C1005 C1003 1.415 . S
C1006 H996 0.930 . S
C1006 C1004 1.419 . S
C1006 C1007 1.362 . S
C1007 H997 0.930 . S
C1007 C1000 1.409 . S
C1007 C1006 1.362 . S
H1008 C1014 0.930 . S
H1009 C1017 0.930 . S
H1010 C1018 0.930 . S
H1011 C1019 0.930 . S
H1012 C1022 0.930 . S
H1013 C1023 0.930 . S
C1014 H1008 0.930 . S
C1014 C1015 1.355 . S
C1014 C1016 1.415 . S
C1015 C1014 1.355 . S
C1015 C1017 1.419 . S
C1016 C1014 1.415 . S
C1016 C1021 1.425 . S
C1016 C1023 1.409 . S
C1017 H1009 0.930 . S
C1017 C1015 1.419 . S
C1017 C1018 1.362 . S
C1018 H1010 0.930 . S
C1018 C1017 1.362 . S
C1018 C1021 1.409 . S
C1019 H1011 0.930 . S
C1019 C1020 1.355 . S
C1019 C1021 1.415 . S
C1020 C1019 1.355 . S
C1020 C1022 1.419 . S
C1021 C1016 1.425 . S
C1021 C1018 1.409 . S
C1021 C1019 1.415 . S
C1022 H1012 0.930 . S
C1022 C1020 1.419 . S
C1022 C1023 1.362 . S
C1023 H1013 0.930 . S
C1023 C1016 1.409 . S
C1023 C1022 1.362 . S
H1024 C1030 0.930 . S
H1025 C1033 0.930 . S
H1026 C1034 0.930 . S
H1027 C1035 0.930 . S
H1028 C1038 0.930 . S
H1029 C1039 0.930 . S
C1030 H1024 0.930 . S
C1030 C1031 1.355 . S
C1030 C1032 1.415 . S
C1031 C1030 1.355 . S
C1031 C1033 1.419 . S
C1032 C1030 1.415 . S
C1032 C1037 1.425 . S
C1032 C1039 1.409 . S
C1033 H1025 0.930 . S
C1033 C1031 1.419 . S
C1033 C1034 1.362 . S
C1034 H1026 0.930 . S
C1034 C1033 1.362 . S
C1034 C1037 1.409 . S
C1035 H1027 0.930 . S
C1035 C1036 1.355 . S
C1035 C1037 1.415 . S
C1036 C1035 1.355 . S
C1036 C1038 1.419 . S
C1037 C1032 1.425 . S
C1037 C1034 1.409 . S
C1037 C1035 1.415 . S
C1038 H1028 0.930 . S
C1038 C1036 1.419 . S
C1038 C1039 1.362 . S
C1039 H1029 0.930 . S
C1039 C1032 1.409 . S
C1039 C1038 1.362 . S
H1040 C1046 0.930 . S
H1041 C1049 0.930 . S
H1042 C1050 0.930 . S
H1043 C1051 0.930 . S
H1044 C1054 0.930 . S
H1045 C1055 0.930 . S
C1046 H1040 0.930 . S
C1046 C1047 1.355 . S
C1046 C1048 1.415 . S
C1047 C1046 1.355 . S
C1047 C1049 1.419 . S
C1048 C1046 1.415 . S
C1048 C1053 1.425 . S
C1048 C1055 1.409 . S
C1049 H1041 0.930 . S
C1049 C1047 1.419 . S
C1049 C1050 1.362 . S
C1050 H1042 0.930 . S
C1050 C1049 1.362 . S
C1050 C1053 1.409 . S
C1051 H1043 0.930 . S
C1051 C1052 1.355 . S
C1051 C1053 1.415 . S
C1052 C1051 1.355 . S
C1052 C1054 1.419 . S
C1053 C1048 1.425 . S
C1053 C1050 1.409 . S
C1053 C1051 1.415 . S
C1054 H1044 0.930 . S
C1054 C1052 1.419 . S
C1054 C1055 1.362 . S
C1055 H1045 0.930 . S
C1055 C1048 1.409 . S
C1055 C1054 1.362 . S
H1056 C1062 0.930 . S
H1057 C1065 0.930 . S
H1058 C1066 0.930 . S
H1059 C1067 0.930 . S
H1060 C1070 0.930 . S
H1061 C1071 0.930 . S
C1062 H1056 0.930 . S
C1062 C1063 1.355 . S
C1062 C1064 1.415 . S
C1063 C1062 1.355 . S
C1063 C1065 1.419 . S
C1064 C1062 1.415 . S
C1064 C1069 1.425 . S
C1064 C1071 1.409 . S
C1065 H1057 0.930 . S
C1065 C1063 1.419 . S
C1065 C1066 1.362 . S
C1066 H1058 0.930 . S
C1066 C1065 1.362 . S
C1066 C1069 1.409 . S
C1067 H1059 0.930 . S
C1067 C1068 1.355 . S
C1067 C1069 1.415 . S
C1068 C1067 1.355 . S
C1068 C1070 1.419 . S
C1069 C1064 1.425 . S
C1069 C1066 1.409 . S
C1069 C1067 1.415 . S
C1070 H1060 0.930 . S
C1070 C1068 1.419 . S
C1070 C1071 1.362 . S
C1071 H1061 0.930 . S
C1071 C1064 1.409 . S
C1071 C1070 1.362 . S
H1072 C1078 0.930 . S
H1073 C1081 0.930 . S
H1074 C1082 0.930 . S
H1075 C1083 0.930 . S
H1076 C1086 0.930 . S
H1077 C1087 0.930 . S
C1078 H1072 0.930 . S
C1078 C1079 1.355 . S
C1078 C1080 1.415 . S
C1079 C1078 1.355 . S
C1079 C1081 1.419 . S
C1080 C1078 1.415 . S
C1080 C1085 1.425 . S
C1080 C1087 1.409 . S
C1081 H1073 0.930 . S
C1081 C1079 1.419 . S
C1081 C1082 1.362 . S
C1082 H1074 0.930 . S
C1082 C1081 1.362 . S
C1082 C1085 1.409 . S
C1083 H1075 0.930 . S
C1083 C1084 1.355 . S
C1083 C1085 1.415 . S
C1084 C1083 1.355 . S
C1084 C1086 1.419 . S
C1085 C1080 1.425 . S
C1085 C1082 1.409 . S
C1085 C1083 1.415 . S
C1086 H1076 0.930 . S
C1086 C1084 1.419 . S
C1086 C1087 1.362 . S
C1087 H1077 0.930 . S
C1087 C1080 1.409 . S
C1087 C1086 1.362 . S
H1088 C1094 0.930 . S
H1089 C1097 0.930 . S
H1090 C1098 0.930 . S
H1091 C1099 0.930 . S
H1092 C1102 0.930 . S
H1093 C1103 0.930 . S
C1094 H1088 0.930 . S
C1094 C1095 1.355 . S
C1094 C1096 1.415 . S
C1095 C1094 1.355 . S
C1095 C1097 1.419 . S
C1096 C1094 1.415 . S
C1096 C1101 1.425 . S
C1096 C1103 1.409 . S
C1097 H1089 0.930 . S
C1097 C1095 1.419 . S
C1097 C1098 1.362 . S
C1098 H1090 0.930 . S
C1098 C1097 1.362 . S
C1098 C1101 1.409 . S
C1099 H1091 0.930 . S
C1099 C1100 1.355 . S
C1099 C1101 1.415 . S
C1100 C1099 1.355 . S
C1100 C1102 1.419 . S
C1101 C1096 1.425 . S
C1101 C1098 1.409 . S
C1101 C1099 1.415 . S
C1102 H1092 0.930 . S
C1102 C1100 1.419 . S
C1102 C1103 1.362 . S
C1103 H1093 0.930 . S
C1103 C1096 1.409 . S
C1103 C1102 1.362 . S
C343 C218 1.333 . S
C348 C8 1.269 . S
C359 C22 1.325 . S
C364 C232 1.277 . S
C375 C36 1.329 . S
C380 C246 1.274 . S
C391 C50 1.307 . S
C396 C176 1.295 . S
C407 C190 1.311 . S
C412 C64 1.291 . S
C423 C78 1.335 . S
C428 C204 1.267 . S
C439 C302 1.330 . S
C444 C92 1.272 . S
C455 C106 1.300 . S
C460 C316 1.303 . S
C471 C120 1.299 . S
C476 C330 1.304 . S
C487 C260 1.268 . S
C492 C134 1.334 . S
C503 C148 1.328 . S
C508 C274 1.274 . S
C519 C288 1.268 . S
C524 C162 1.334 . S
C535 C6 1.583 . S
C540 C328 1.611 . S
C551 C258 1.604 . S
C556 C20 1.590 . S
C567 C34 1.601 . S
C572 C272 1.593 . S
C583 C286 1.624 . S
C588 C48 1.570 . S
C599 C62 1.575 . S
C604 C300 1.619 . S
C615 C314 1.576 . S
C620 C76 1.617 . S
C631 C90 1.565 . S
C636 C188 1.629 . S
C647 C202 1.602 . S
C652 C104 1.592 . S
C663 C216 1.619 . S
C668 C118 1.575 . S
C679 C230 1.565 . S
C684 C132 1.628 . S
C695 C146 1.618 . S
C700 C244 1.576 . S
C711 C160 1.627 . S
C716 C174 1.566 . S
C727 C105 1.376 . S
C732 C7 1.397 . S
C743 C119 1.401 . S
C748 C21 1.380 . S
C759 C133 1.404 . S
C764 C35 1.398 . S
C775 C147 1.404 . S
C780 C49 1.399 . S
C791 C63 1.387 . S
C796 C161 1.372 . S
C807 C77 1.402 . S
C812 C91 1.401 . S
C823 C175 1.387 . S
C828 C273 1.405 . S
C839 C189 1.406 . S
C844 C287 1.394 . S
C855 C301 1.390 . S
C860 C203 1.373 . S
C871 C315 1.390 . S
C876 C217 1.406 . S
C887 C329 1.406 . S
C892 C231 1.390 . S
C903 C259 1.372 . S
C908 C245 1.387 . S
C919 C9 1.724 . S
C924 C275 1.753 . S
C935 C289 1.750 . S
C940 C23 1.726 . S
C951 C37 1.738 . S
C956 C303 1.739 . S
C967 C317 1.724 . S
C972 C51 1.753 . S
C983 C65 1.734 . S
C988 C331 1.742 . S
C999 C261 1.731 . S
C1004 C79 1.746 . S
C1015 C93 1.724 . S
C1020 C247 1.753 . S
C1031 C177 1.737 . S
C1036 C107 1.739 . S
C1047 C121 1.725 . S
C1052 C191 1.752 . S
C1063 C135 1.727 . S
C1068 C205 1.749 . S
C1079 C149 1.751 . S
C1084 C219 1.725 . S
C1095 C163 1.750 . S
C1100 C233 1.727 . S
