# Generated by pormake.
# Topology uob, (4)-cn, num edge types: 1
# Building blocks:
#     Node 0, Type 0, BuildingBlock: MUDLON_clean_sbu_0, # of connection points: 4
#     Node 1, Type 0, BuildingBlock: MUDLON_clean_sbu_0, # of connection points: 4
#     Node 2, Type 0, BuildingBlock: MUDLON_clean_sbu_0, # of connection points: 4
#     Node 3, Type 0, BuildingBlock: MUDLON_clean_sbu_0, # of connection points: 4
#     Node 4, Type 0, BuildingBlock: MUDLON_clean_sbu_0, # of connection points: 4
#     Node 5, Type 0, BuildingBlock: MUDLON_clean_sbu_0, # of connection points: 4
#     Node 6, Type 0, BuildingBlock: MUDLON_clean_sbu_0, # of connection points: 4
#     Node 7, Type 0, BuildingBlock: MUDLON_clean_sbu_0, # of connection points: 4
#     Node 8, Type 0, BuildingBlock: MUDLON_clean_sbu_0, # of connection points: 4
#     Node 9, Type 0, BuildingBlock: MUDLON_clean_sbu_0, # of connection points: 4
#     Node 10, Type 0, BuildingBlock: MUDLON_clean_sbu_0, # of connection points: 4
#     Node 11, Type 0, BuildingBlock: MUDLON_clean_sbu_0, # of connection points: 4
#     Node 12, Type 0, BuildingBlock: MUDLON_clean_sbu_0, # of connection points: 4
#     Node 13, Type 0, BuildingBlock: MUDLON_clean_sbu_0, # of connection points: 4
#     Node 14, Type 0, BuildingBlock: MUDLON_clean_sbu_0, # of connection points: 4
#     Node 15, Type 0, BuildingBlock: MUDLON_clean_sbu_0, # of connection points: 4
#     Edge 16, Type (0, 0), BuildingBlock: EZIPEK_clean_linker_0, # of connection points: 2
#     Edge 17, Type (0, 0), BuildingBlock: EZIPEK_clean_linker_0, # of connection points: 2
#     Edge 18, Type (0, 0), BuildingBlock: EZIPEK_clean_linker_0, # of connection points: 2
#     Edge 19, Type (0, 0), BuildingBlock: EZIPEK_clean_linker_0, # of connection points: 2
#     Edge 20, Type (0, 0), BuildingBlock: EZIPEK_clean_linker_0, # of connection points: 2
#     Edge 21, Type (0, 0), BuildingBlock: EZIPEK_clean_linker_0, # of connection points: 2
#     Edge 22, Type (0, 0), BuildingBlock: EZIPEK_clean_linker_0, # of connection points: 2
#     Edge 23, Type (0, 0), BuildingBlock: EZIPEK_clean_linker_0, # of connection points: 2
#     Edge 24, Type (0, 0), BuildingBlock: EZIPEK_clean_linker_0, # of connection points: 2
#     Edge 25, Type (0, 0), BuildingBlock: EZIPEK_clean_linker_0, # of connection points: 2
#     Edge 26, Type (0, 0), BuildingBlock: EZIPEK_clean_linker_0, # of connection points: 2
#     Edge 27, Type (0, 0), BuildingBlock: EZIPEK_clean_linker_0, # of connection points: 2
#     Edge 28, Type (0, 0), BuildingBlock: EZIPEK_clean_linker_0, # of connection points: 2
#     Edge 29, Type (0, 0), BuildingBlock: EZIPEK_clean_linker_0, # of connection points: 2
#     Edge 30, Type (0, 0), BuildingBlock: EZIPEK_clean_linker_0, # of connection points: 2
#     Edge 31, Type (0, 0), BuildingBlock: EZIPEK_clean_linker_0, # of connection points: 2
#     Edge 32, Type (0, 0), BuildingBlock: EZIPEK_clean_linker_0, # of connection points: 2
#     Edge 33, Type (0, 0), BuildingBlock: EZIPEK_clean_linker_0, # of connection points: 2
#     Edge 34, Type (0, 0), BuildingBlock: EZIPEK_clean_linker_0, # of connection points: 2
#     Edge 35, Type (0, 0), BuildingBlock: EZIPEK_clean_linker_0, # of connection points: 2
#     Edge 36, Type (0, 0), BuildingBlock: EZIPEK_clean_linker_0, # of connection points: 2
#     Edge 37, Type (0, 0), BuildingBlock: EZIPEK_clean_linker_0, # of connection points: 2
#     Edge 38, Type (0, 0), BuildingBlock: EZIPEK_clean_linker_0, # of connection points: 2
#     Edge 39, Type (0, 0), BuildingBlock: EZIPEK_clean_linker_0, # of connection points: 2
#     Edge 40, Type (0, 0), BuildingBlock: EZIPEK_clean_linker_0, # of connection points: 2
#     Edge 41, Type (0, 0), BuildingBlock: EZIPEK_clean_linker_0, # of connection points: 2
#     Edge 42, Type (0, 0), BuildingBlock: EZIPEK_clean_linker_0, # of connection points: 2
#     Edge 43, Type (0, 0), BuildingBlock: EZIPEK_clean_linker_0, # of connection points: 2
#     Edge 44, Type (0, 0), BuildingBlock: EZIPEK_clean_linker_0, # of connection points: 2
#     Edge 45, Type (0, 0), BuildingBlock: EZIPEK_clean_linker_0, # of connection points: 2
#     Edge 46, Type (0, 0), BuildingBlock: EZIPEK_clean_linker_0, # of connection points: 2
#     Edge 47, Type (0, 0), BuildingBlock: EZIPEK_clean_linker_0, # of connection points: 2
# Relax obj value: 0.170
# Max RMSD: 0.256
# Mean RMSD: 0.256
data_MOF--net-uob--node1-MUDLON_clean_sbu_0--edge1-EZIPEK_clean_linker_0
_symmetry_space_group_name_H-M    P1
_symmetry_Int_Tables_number       1
_symmetry_cell_setting            triclinic
loop_
_symmetry_equiv_pos_as_xyz
'x, y, z'
_cell_length_a     41.088381
_cell_length_b     41.104117
_cell_length_c     21.565956
_cell_angle_alpha  90.096561
_cell_angle_beta   90.182976
_cell_angle_gamma 90.134923
loop_
_atom_site_label
_atom_site_type_symbol
_atom_site_fract_x
_atom_site_fract_y
_atom_site_fract_z
_atom_type_partial_charge
Mg0 Mg 0.12348 0.08562 0.33292 0.0
C1 C 0.10989 0.09861 0.46009 0.0
O2 O 0.1134 0.06695 0.45511 0.0
C3 C 0.13369 0.10067 0.19596 0.0
O4 O 0.15392 0.07605 0.20016 0.0
C5 C 0.1897 0.08216 0.38815 0.0
O6 O 0.18096 0.11239 0.39835 0.0
O7 O 0.17085 0.06369 0.3567 0.0
O8 O 0.11343 0.11614 0.41207 0.0
O9 O 0.08057 0.0538 0.33509 0.0
C10 C 0.05766 0.05909 0.29642 0.0
O11 O 0.06252 0.07974 0.251 0.0
O12 O 0.12078 0.1119 0.245 0.0
Mg13 Mg 0.93435 0.62625 0.58781 0.0
C14 C 0.92652 0.61172 0.71704 0.0
O15 O 0.95701 0.60488 0.70454 0.0
C16 C 0.9152 0.62508 0.45346 0.0
O17 O 0.9467 0.62968 0.44853 0.0
C18 C 0.93593 0.69503 0.62436 0.0
O19 O 0.90519 0.68892 0.61193 0.0
O20 O 0.95698 0.67321 0.61173 0.0
O21 O 0.90787 0.62063 0.67309 0.0
O22 O 0.96151 0.58034 0.58642 0.0
C23 C 0.98287 0.56919 0.54957 0.0
O24 O 0.99472 0.58771 0.5055 0.0
O25 O 0.90226 0.62518 0.50696 0.0
Mg26 Mg 0.38146 0.44827 0.8253 0.0
C27 C 0.39272 0.4376 0.95439 0.0
O28 O 0.39023 0.46925 0.948 0.0
C29 C 0.38561 0.43204 0.69246 0.0
O30 O 0.39408 0.46286 0.69373 0.0
C31 C 0.31138 0.45548 0.85452 0.0
O32 O 0.31182 0.42867 0.82128 0.0
O33 O 0.33714 0.47277 0.85715 0.0
O34 O 0.38992 0.41951 0.90674 0.0
O35 O 0.42927 0.47152 0.81661 0.0
C36 C 0.44075 0.49726 0.84107 0.0
O37 O 0.42158 0.51683 0.87228 0.0
O38 O 0.37609 0.41852 0.74225 0.0
Mg39 Mg 0.57374 0.87261 0.08017 0.0
C40 C 0.5911 0.88253 0.20969 0.0
O41 O 0.55924 0.88512 0.20816 0.0
C42 C 0.58227 0.88391 0.94376 0.0
O43 O 0.55122 0.89027 0.9511 0.0
C44 C 0.56796 0.80581 0.13004 0.0
O45 O 0.59871 0.81348 0.1384 0.0
O46 O 0.54966 0.82588 0.10137 0.0
O47 O 0.60631 0.87824 0.15903 0.0
O48 O 0.54369 0.91643 0.08485 0.0
C49 C 0.55967 0.94287 0.07902 0.0
O50 O 0.59118 0.94138 0.06928 0.0
O51 O 0.59865 0.87376 0.99012 0.0
Mg52 Mg 0.13495 0.4404 0.06376 0.0
C53 C 0.12609 0.42412 0.93604 0.0
O54 O 0.12733 0.45603 0.93874 0.0
C55 C 0.13765 0.43129 0.20178 0.0
O56 O 0.14746 0.46166 0.19789 0.0
C57 C 0.20107 0.44602 0.01446 0.0
O58 O 0.1942 0.4148 0.01294 0.0
O59 O 0.18084 0.46519 0.04026 0.0
O60 O 0.12881 0.40795 0.98593 0.0
O61 O 0.08994 0.46867 0.05944 0.0
C62 C 0.06508 0.45495 0.08331 0.0
O63 O 0.06889 0.42717 0.11242 0.0
O64 O 0.13367 0.41493 0.15226 0.0
Mg65 Mg 0.5756 0.62655 0.32151 0.0
C66 C 0.58873 0.60328 0.19284 0.0
O67 O 0.55734 0.59835 0.19683 0.0
C68 C 0.59268 0.61979 0.45507 0.0
O69 O 0.56077 0.618 0.45623 0.0
C70 C 0.54191 0.6833 0.25301 0.0
O71 O 0.52701 0.65966 0.22341 0.0
O72 O 0.55963 0.67651 0.29986 0.0
O73 O 0.60416 0.61402 0.23984 0.0
O74 O 0.54239 0.58534 0.33829 0.0
C75 C 0.51731 0.57554 0.3089 0.0
O76 O 0.50452 0.59394 0.26552 0.0
O77 O 0.6068 0.62577 0.40385 0.0
Mg78 Mg 0.37707 0.06655 0.57559 0.0
C79 C 0.39347 0.0773 0.44824 0.0
O80 O 0.37875 0.0489 0.45026 0.0
C81 C 0.38846 0.07889 0.71125 0.0
O82 O 0.39192 0.04719 0.70808 0.0
C83 C 0.31143 0.07604 0.51663 0.0
O84 O 0.32316 0.10576 0.51901 0.0
O85 O 0.32789 0.05311 0.54133 0.0
O86 O 0.39669 0.09342 0.49827 0.0
O87 O 0.41391 0.02826 0.58 0.0
C88 C 0.44252 0.03933 0.58966 0.0
O89 O 0.44638 0.07063 0.59958 0.0
O90 O 0.37963 0.09426 0.66279 0.0
Mg91 Mg 0.94229 0.88169 0.81221 0.0
C92 C 0.93201 0.89756 0.68265 0.0
O93 O 0.96329 0.89129 0.68663 0.0
C94 C 0.92716 0.8915 0.94636 0.0
O95 O 0.95894 0.89505 0.94605 0.0
C96 C 0.94038 0.81656 0.75335 0.0
O97 O 0.91168 0.82886 0.74067 0.0
O98 O 0.95996 0.83277 0.78759 0.0
O99 O 0.91468 0.8957 0.73122 0.0
O100 O 0.97827 0.9208 0.82074 0.0
C101 C 0.9658 0.94917 0.82171 0.0
O102 O 0.93402 0.95211 0.81881 0.0
O103 O 0.91266 0.88358 0.89629 0.0
Mg104 Mg 0.64342 0.55527 0.82127 0.0
C105 C 0.63533 0.56699 0.95171 0.0
O106 O 0.63907 0.53541 0.94631 0.0
C107 C 0.63732 0.57076 0.68803 0.0
O108 O 0.6263 0.54079 0.69125 0.0
C109 C 0.71237 0.5455 0.8536 0.0
O110 O 0.71222 0.57386 0.82556 0.0
O111 O 0.6866 0.52818 0.85153 0.0
O112 O 0.63697 0.58462 0.90332 0.0
O113 O 0.5947 0.53374 0.81267 0.0
C114 C 0.58176 0.51045 0.84251 0.0
O115 O 0.59955 0.49273 0.88013 0.0
O116 O 0.64926 0.58388 0.7366 0.0
Mg117 Mg 0.45949 0.12944 0.07892 0.0
C118 C 0.44189 0.12207 0.21232 0.0
O119 O 0.4698 0.13746 0.21701 0.0
C120 C 0.44245 0.12099 0.94416 0.0
O121 O 0.47386 0.11517 0.94334 0.0
C122 C 0.45945 0.1964 0.13025 0.0
O123 O 0.42923 0.18647 0.13659 0.0
O124 O 0.47946 0.17779 0.10239 0.0
O125 O 0.43033 0.11557 0.1589 0.0
O126 O 0.4941 0.08934 0.06553 0.0
C127 C 0.50331 0.07133 0.11027 0.0
O128 O 0.49658 0.07994 0.16734 0.0
O129 O 0.4292 0.12962 0.99489 0.0
Mg130 Mg 0.87379 0.95425 0.31348 0.0
C131 C 0.89306 0.94095 0.44022 0.0
O132 O 0.89538 0.97262 0.43451 0.0
C133 C 0.88067 0.93966 0.17927 0.0
O134 O 0.88898 0.9705 0.18221 0.0
C135 C 0.80616 0.95613 0.35728 0.0
O136 O 0.81073 0.92568 0.34084 0.0
O137 O 0.8285 0.97679 0.34562 0.0
O138 O 0.8846 0.92416 0.39326 0.0
O139 O 0.91776 0.98386 0.30189 0.0
C140 C 0.92554 0.01079 0.327 0.0
O141 O 0.90438 0.02624 0.36175 0.0
O142 O 0.87019 0.92568 0.22798 0.0
Mg143 Mg 0.0686 0.37695 0.56457 0.0
C144 C 0.08868 0.39342 0.69147 0.0
O145 O 0.05871 0.40422 0.68885 0.0
C146 C 0.08073 0.38286 0.4296 0.0
O147 O 0.04879 0.38357 0.43214 0.0
C148 C 0.0308 0.32539 0.63558 0.0
O149 O 0.02134 0.35072 0.66784 0.0
O150 O 0.04441 0.33005 0.58324 0.0
O151 O 0.10137 0.38105 0.64333 0.0
O152 O 0.0423 0.42329 0.55953 0.0
C153 C 0.01419 0.43214 0.57708 0.0
O154 O 0.99433 0.41116 0.60302 0.0
O155 O 0.09672 0.3775 0.47909 0.0
Mg156 Mg 0.62996 0.94314 0.56734 0.0
C157 C 0.63825 0.89578 0.45816 0.0
O158 O 0.66542 0.88751 0.48606 0.0
C159 C 0.62134 0.92929 0.70273 0.0
O160 O 0.61838 0.96108 0.70129 0.0
C161 C 0.68534 0.96872 0.49123 0.0
O162 O 0.66138 0.96928 0.45077 0.0
O163 O 0.67866 0.96291 0.54786 0.0
O164 O 0.61865 0.9153 0.48434 0.0
O165 O 0.58988 0.97774 0.57322 0.0
C166 C 0.56183 0.96453 0.57634 0.0
O167 O 0.55957 0.93265 0.57596 0.0
O168 O 0.62796 0.91416 0.65271 0.0
Mg169 Mg 0.05196 0.14271 0.83243 0.0
C170 C 0.06582 0.12835 0.70495 0.0
O171 O 0.03402 0.126 0.70985 0.0
C172 C 0.06855 0.1361 0.96731 0.0
O173 O 0.03765 0.12792 0.96718 0.0
C174 C 0.04809 0.2112 0.79082 0.0
O175 O 0.07751 0.2093 0.81463 0.0
O176 O 0.02872 0.18734 0.79876 0.0
O177 O 0.08253 0.13454 0.75322 0.0
O178 O 0.02124 0.09901 0.83677 0.0
C179 C 0.03584 0.07182 0.83114 0.0
O180 O 0.06758 0.07157 0.82412 0.0
O181 O 0.08158 0.14544 0.91693 0.0
Mg182 Mg 0.87908 0.55719 0.08782 0.0
C183 C 0.90383 0.58421 0.96808 0.0
O184 O 0.92023 0.55701 0.97059 0.0
C185 C 0.86318 0.57481 0.22325 0.0
O186 O 0.84143 0.55148 0.21807 0.0
C187 C 0.82741 0.52814 1.00593 0.0
O188 O 0.85293 0.52527 0.96993 0.0
O189 O 0.83168 0.53596 0.06267 0.0
O190 O 0.8858 0.59229 0.0132 0.0
O191 O 0.92244 0.52614 0.09533 0.0
C192 C 0.93279 0.50416 0.05883 0.0
O193 O 0.91461 0.49471 0.01189 0.0
O194 O 0.87965 0.5832 0.1761 0.0
Mg195 Mg 0.44493 0.37634 0.32428 0.0
C196 C 0.4326 0.39827 0.19814 0.0
O197 O 0.46399 0.40293 0.20556 0.0
C198 C 0.42931 0.38403 0.45909 0.0
O199 O 0.46108 0.38772 0.45942 0.0
C200 C 0.47966 0.31989 0.25611 0.0
O201 O 0.49594 0.3434 0.22915 0.0
O202 O 0.46092 0.3266 0.30133 0.0
O203 O 0.41593 0.38732 0.24314 0.0
O204 O 0.4779 0.41878 0.32557 0.0
C205 C 0.46577 0.44478 0.34818 0.0
O206 O 0.43778 0.44291 0.37705 0.0
O207 O 0.41516 0.37689 0.4083 0.0
C208 C 0.25336 0.05516 0.50385 0.0
C209 C 0.28167 0.0697 0.47805 0.0
C210 C 0.25043 0.0849 0.38494 0.0
C211 C 0.22203 0.0714 0.41157 0.0
N212 N 0.19803 0.03572 0.48693 0.0
N213 N 0.30916 0.0891 0.38654 0.0
C214 C 0.22413 0.05366 0.4678 0.0
C215 C 0.28078 0.08163 0.41613 0.0
N216 N 0.25368 0.04481 0.56402 0.0
N217 N 0.24815 0.10177 0.33051 0.0
H218 H 0.33178 0.08617 0.40741 0.0
H219 H 0.31059 0.09497 0.33968 0.0
H220 H 0.22677 0.10263 0.30429 0.0
H221 H 0.2669 0.11605 0.31278 0.0
H222 H 0.23287 0.03761 0.5878 0.0
H223 H 0.27446 0.0455 0.59181 0.0
H224 H 0.19873 0.01995 0.52464 0.0
H225 H 0.17642 0.03447 0.46148 0.0
C226 C 0.9282 0.75713 0.7544 0.0
C227 C 0.94747 0.78299 0.73136 0.0
C228 C 0.96463 0.74898 0.64328 0.0
C229 C 0.94392 0.72365 0.66458 0.0
N230 N 0.91231 0.70048 0.74781 0.0
N231 N 0.98988 0.80167 0.66357 0.0
C232 C 0.92777 0.72679 0.72263 0.0
C233 C 0.96785 0.77814 0.67915 0.0
N234 N 0.90935 0.76213 0.80571 0.0
N235 N 0.97952 0.74598 0.58698 0.0
H236 H 0.9923 0.82326 0.68864 0.0
H237 H 0.00741 0.79887 0.62929 0.0
H238 H 0.97794 0.72493 0.5601 0.0
H239 H 0.99194 0.76481 0.56514 0.0
H240 H 0.89119 0.74624 0.82034 0.0
H241 H 0.91112 0.78312 0.83283 0.0
H242 H 0.90308 0.69985 0.79266 0.0
H243 H 0.91114 0.67801 0.72575 0.0
C244 C 0.26072 0.48226 0.89694 0.0
C245 C 0.28584 0.45886 0.90303 0.0
C246 C 0.26026 0.43868 0.99816 0.0
C247 C 0.23203 0.45706 0.985 0.0
N248 N 0.20494 0.49694 0.92088 0.0
N249 N 0.30825 0.41263 0.95767 0.0
C250 C 0.23232 0.47964 0.93492 0.0
C251 C 0.28539 0.43663 0.95345 0.0
N252 N 0.26377 0.50656 0.85423 0.0
N253 N 0.26303 0.42329 0.05404 0.0
H254 H 0.32796 0.41077 0.92768 0.0
H255 H 0.30666 0.39344 0.98902 0.0
H256 H 0.24518 0.42515 0.08823 0.0
H257 H 0.2843 0.41191 0.06891 0.0
H258 H 0.24787 0.52619 0.85129 0.0
H259 H 0.28387 0.50845 0.82498 0.0
H260 H 0.20223 0.51041 0.88037 0.0
H261 H 0.18404 0.49644 0.94797 0.0
C262 C 0.57604 0.74612 0.14128 0.0
C263 C 0.5564 0.77365 0.15366 0.0
C264 C 0.52379 0.7404 0.22564 0.0
C265 C 0.54679 0.71484 0.22028 0.0
N266 N 0.59804 0.69563 0.17969 0.0
N267 N 0.51269 0.79796 0.21237 0.0
C268 C 0.57382 0.71835 0.17995 0.0
C269 C 0.53024 0.77102 0.19659 0.0
N270 N 0.59631 0.74621 0.09113 0.0
N271 N 0.49585 0.73542 0.25847 0.0
H272 H 0.51632 0.82066 0.19219 0.0
H273 H 0.49606 0.79837 0.2487 0.0
H274 H 0.49106 0.71376 0.28193 0.0
H275 H 0.47652 0.75177 0.25873 0.0
H276 H 0.60891 0.72568 0.0762 0.0
H277 H 0.59757 0.76573 0.06032 0.0
H278 H 0.61992 0.69879 0.15616 0.0
H279 H 0.59755 0.67486 0.20719 0.0
C280 C 0.75722 0.5091 0.89568 0.0
C281 C 0.73896 0.53833 0.899 0.0
C282 C 0.77685 0.55979 0.97764 0.0
C283 C 0.79461 0.53012 0.9761 0.0
N284 N 0.79782 0.47419 0.9436 0.0
N285 N 0.72619 0.58733 0.95597 0.0
C286 C 0.78348 0.50401 0.93821 0.0
C287 C 0.74716 0.56231 0.94406 0.0
N288 N 0.75061 0.48697 0.85 0.0
N289 N 0.7892 0.58652 0.00751 0.0
H290 H 0.70372 0.58976 0.93394 0.0
H291 H 0.72917 0.6034 0.99299 0.0
H292 H 0.81105 0.58667 0.03201 0.0
H293 H 0.77933 0.60972 1.0029 0.0
H294 H 0.7653 0.46697 0.84061 0.0
H295 H 0.73163 0.48985 0.81827 0.0
H296 H 0.78902 0.45331 0.92182 0.0
H297 H 0.81681 0.46972 0.97468 0.0
C298 C 0.50039 0.264 0.22702 0.0
C299 C 0.47593 0.28821 0.22301 0.0
C300 C 0.4473 0.25539 0.14477 0.0
C301 C 0.46873 0.22902 0.15579 0.0
N302 N 0.51447 0.20721 0.21306 0.0
N303 N 0.42321 0.30472 0.18425 0.0
C304 C 0.49524 0.23309 0.19794 0.0
C305 C 0.44853 0.28323 0.18375 0.0
N306 N 0.52853 0.27048 0.25866 0.0
N307 N 0.42647 0.25436 0.09523 0.0
H308 H 0.42311 0.32579 0.21107 0.0
H309 H 0.40114 0.30029 0.16181 0.0
H310 H 0.42601 0.23501 0.06383 0.0
H311 H 0.41252 0.27418 0.08117 0.0
H312 H 0.54879 0.25531 0.25754 0.0
H313 H 0.53247 0.29227 0.28244 0.0
H314 H 0.53141 0.20775 0.24909 0.0
H315 H 0.51215 0.18439 0.19265 0.0
C316 C 0.77313 0.94468 0.45233 0.0
C317 C 0.77822 0.96407 0.39876 0.0
C318 C 0.72777 0.99359 0.42205 0.0
C319 C 0.71962 0.97005 0.4678 0.0
N320 N 0.73425 0.9202 0.52145 0.0
N321 N 0.75918 0.00613 0.32997 0.0
C322 C 0.7424 0.94509 0.48244 0.0
C323 C 0.75544 0.98865 0.3833 0.0
N324 N 0.79792 0.92604 0.47523 0.0
N325 N 0.70925 0.02099 0.41637 0.0
H326 H 0.77903 1.00324 0.30049 0.0
H327 H 0.74141 0.02169 0.31256 0.0
H328 H 0.6895 0.02573 0.44531 0.0
H329 H 0.71548 0.04043 0.38783 0.0
H330 H 0.79684 0.91437 0.51804 0.0
H331 H 0.82089 0.92512 0.45494 0.0
H332 H 0.7483 0.89928 0.52624 0.0
H333 H 0.71245 0.91867 0.54548 0.0
C334 C 0.06304 0.27574 0.66894 0.0
C335 C 0.03313 0.29316 0.6677 0.0
C336 C 0.01173 0.2562 0.74795 0.0
C337 C 0.04076 0.23758 0.7451 0.0
N338 N 0.08842 0.22361 0.68529 0.0
N339 N 0.9764 0.29483 0.69582 0.0
C340 C 0.06454 0.24539 0.69986 0.0
C341 C 0.00661 0.2817 0.70399 0.0
N342 N 0.09097 0.28898 0.64551 0.0
N343 N 0.98977 0.25079 0.79422 0.0
H344 H 0.97167 0.31284 0.66298 0.0
H345 H 0.95557 0.28554 0.71685 0.0
H346 H 0.99283 0.23279 0.82771 0.0
H347 H 0.96996 0.26594 0.80246 0.0
H348 H 0.11368 0.27812 0.65124 0.0
H349 H 0.09256 0.3124 0.6276 0.0
H350 H 0.10447 0.22718 0.64854 0.0
H351 H 0.08958 0.20037 0.70448 0.0
C352 C 0.9975 0.06848 0.30659 0.0
C353 C 0.02416 0.04648 0.30753 0.0
C354 C 0.98637 1.00213 0.33213 0.0
C355 C 0.95949 0.02319 0.32099 0.0
N356 N 0.94018 0.07537 0.28515 0.0
N357 N 0.04317 0.991 0.31149 0.0
C358 C 0.96523 0.05611 0.30477 0.0
C359 C 0.01842 0.01288 0.31771 0.0
N360 N 1.0028 0.10127 0.31052 0.0
N361 N 0.98161 0.97247 0.35926 0.0
H362 H 0.06684 0.99776 0.29978 0.0
H363 H 0.03948 0.96591 0.31212 0.0
H364 H 0.95887 0.96426 0.37381 0.0
H365 H 1.00069 0.95763 0.3737 0.0
H366 H 0.98402 0.11805 0.31571 0.0
H367 H 0.0259 0.11143 0.31623 0.0
H368 H 0.94378 0.09857 0.26694 0.0
H369 H 0.91631 0.06701 0.28078 0.0
C370 C 0.98782 0.51261 0.50422 0.0
C371 C 0.99245 0.53432 0.55498 0.0
C372 C 0.00659 0.48808 0.62201 0.0
C373 C 1.00484 0.46688 0.57008 0.0
N374 N 0.99784 0.45926 0.45998 0.0
N375 N 0.0124 0.54358 0.65879 0.0
C376 C 0.99682 0.4793 0.51059 0.0
C377 C 1.00346 0.52225 0.61304 0.0
N378 N 0.9731 0.52325 0.45106 0.0
N379 N 0.01102 0.47557 0.68011 0.0
H380 H 0.01158 0.56876 0.65316 0.0
H381 H 0.02372 0.53651 0.69986 0.0
H382 H 0.01397 0.45079 0.68848 0.0
H383 H 0.00897 0.48934 0.72047 0.0
H384 H 0.96555 0.50778 0.41551 0.0
H385 H 0.96576 0.54722 0.44432 0.0
H386 H 0.99639 0.46766 0.41453 0.0
H387 H 1.00229 0.43434 0.46319 0.0
C388 C 0.49407 0.50264 0.78433 0.0
C389 C 0.4767 0.50225 0.84121 0.0
C390 C 0.52795 0.51062 0.89795 0.0
C391 C 0.54566 0.50702 0.84191 0.0
N392 N 0.54584 0.49504 0.73243 0.0
N393 N 0.47836 0.49833 0.9531 0.0
C394 C 0.52878 0.50184 0.78517 0.0
C395 C 0.49395 0.50423 0.89834 0.0
N396 N 0.47743 0.50482 0.72952 0.0
N397 N 0.54321 0.52155 0.95047 0.0
H398 H 0.45376 0.49236 0.9559 0.0
H399 H 0.49062 0.496 0.99524 0.0
H400 H 0.56785 0.52758 0.9521 0.0
H401 H 0.53067 0.52794 0.99061 0.0
H402 H 0.48872 0.50851 0.68693 0.0
H403 H 0.4521 0.50605 0.72718 0.0
H404 H 0.53489 0.48768 0.6911 0.0
H405 H 0.57119 0.4939 0.73141 0.0
C406 C 0.55752 0.99738 0.13135 0.0
C407 C 0.54409 0.97523 0.08754 0.0
C408 C 0.50235 0.01551 0.06071 0.0
C409 C 0.51833 0.03895 0.09886 0.0
N410 N 0.56498 0.05372 0.16108 0.0
N411 N 0.5072 0.96543 1.00217 0.0
C412 C 0.54706 0.0303 0.13146 0.0
C413 C 0.51746 0.98489 0.04981 0.0
N414 N 0.57924 0.98666 0.17488 0.0
N415 N 0.47196 0.0216 0.03752 0.0
H416 H 0.51764 0.94293 0.99239 0.0
H417 H 0.49033 0.97293 0.96899 0.0
H418 H 0.45928 0.04307 0.04595 0.0
H419 H 0.45792 1.004 0.01508 0.0
H420 H 0.58736 1.00101 0.21169 0.0
H421 H 0.58636 0.9624 0.17835 0.0
H422 H 0.58782 0.04931 0.18037 0.0
H423 H 0.55861 0.07828 0.16074 0.0
C424 C 0.02476 0.50134 0.08853 0.0
C425 C 0.03165 0.46831 0.07493 0.0
C426 C 0.97328 0.4581 0.05924 0.0
C427 C 0.96682 0.49185 0.06532 0.0
N428 N 0.98884 0.54664 0.06947 0.0
N429 N 0.01288 0.4175 0.0306 0.0
C430 C 0.99322 0.51384 0.07545 0.0
C431 C 0.00603 0.4473 0.05544 0.0
N432 N 0.04777 0.52061 0.11615 0.0
N433 N 0.94832 0.43607 0.05959 0.0
H434 H 0.03656 0.4093 0.0234 0.0
H435 H 0.99518 0.40262 0.01046 0.0
H436 H 0.92404 0.44273 0.06531 0.0
H437 H 0.9521 0.41102 0.06122 0.0
H438 H 0.04271 0.54388 0.13276 0.0
H439 H 0.07085 0.51227 0.12829 0.0
H440 H 0.00808 0.5632 0.07041 0.0
H441 H 0.96683 0.55713 0.05647 0.0
C442 C 0.51376 0.48391 0.34229 0.0
C443 C 0.47998 0.47762 0.3354 0.0
C444 C 0.47058 0.53604 0.32004 0.0
C445 C 0.5046 0.54185 0.3192 0.0
N446 N 0.55855 0.51836 0.3113 0.0
N447 N 0.4282 0.49724 0.29679 0.0
C448 C 0.5263 0.51498 0.32524 0.0
C449 C 0.45891 0.50355 0.31817 0.0
N450 N 0.53387 0.46087 0.36695 0.0
N451 N 0.44921 0.56132 0.32485 0.0
H452 H 0.41947 0.47373 0.28936 0.0
H453 H 0.41308 0.51528 0.27885 0.0
H454 H 0.45665 0.58544 0.33005 0.0
H455 H 0.42428 0.55784 0.33102 0.0
H456 H 0.5581 0.46562 0.37833 0.0
H457 H 0.52562 0.43823 0.38197 0.0
H458 H 0.57453 0.49871 0.30992 0.0
H459 H 0.56855 0.53971 0.2936 0.0
C460 C 0.47929 0.9954 0.63073 0.0
C461 C 0.47188 0.01848 0.58394 0.0
C462 C 0.52283 1.00498 0.5301 0.0
C463 C 0.53164 0.98427 0.57995 0.0
N464 N 0.52091 0.96343 0.68233 0.0
N465 N 0.48783 0.04796 0.49204 0.0
C466 C 0.51049 0.98033 0.63142 0.0
C467 C 0.49409 0.02412 0.5346 0.0
N468 N 0.45655 0.98791 0.67459 0.0
N469 N 0.541 1.00513 0.47706 0.0
H470 H 0.46612 0.06102 0.49077 0.0
H471 H 0.50487 0.0561 0.45994 0.0
H472 H 0.56208 0.99135 0.47167 0.0
H473 H 0.5338 0.0167 0.43637 0.0
H474 H 0.45904 0.96878 0.70582 0.0
H475 H 0.43389 0.99918 0.67677 0.0
H476 H 0.50818 0.96248 0.72393 0.0
H477 H 0.54386 0.95272 0.68519 0.0
C478 C 0.01869 0.02114 0.77452 0.0
C479 C 0.0176 0.04051 0.82915 0.0
C480 C 0.98353 0.99918 0.87987 0.0
C481 C 0.98609 0.97908 0.8264 0.0
N482 N 0.0093 0.96866 0.72577 0.0
N483 N 1.00346 0.04614 0.937 0.0
C484 C 1.00484 0.98931 0.77478 0.0
C485 C 1.00111 0.02909 0.88267 0.0
N486 N 0.03153 0.03389 0.72134 0.0
N487 N 0.96405 0.98973 0.92795 0.0
H488 H 0.01564 0.0683 0.94065 0.0
H489 H 0.99544 0.03734 0.97954 0.0
H490 H 0.95287 0.96695 0.92999 0.0
H491 H 0.95762 1.00496 0.9645 0.0
H492 H 0.02992 0.02265 0.67816 0.0
H493 H 0.04148 0.05721 0.71895 0.0
H494 H 0.0257 0.97302 0.69005 0.0
H495 H 0.9983 0.94585 0.72275 0.0
C496 C 0.10827 0.10494 0.63351 0.0
C497 C 0.08107 0.12552 0.64312 0.0
C498 C 0.07474 0.13234 0.53091 0.0
C499 C 0.10261 0.11268 0.52161 0.0
N500 N 0.15194 0.09018 0.56409 0.0
N501 N 0.04573 0.16727 0.60199 0.0
C502 C 0.12139 0.10227 0.57307 0.0
C503 C 0.06666 0.142 0.5921 0.0
N504 N 0.12034 0.08624 0.68056 0.0
N505 N 0.05476 0.14013 0.48242 0.0
H506 H 0.04003 0.17582 0.64619 0.0
H507 H 0.037 0.18198 0.56634 0.0
H508 H 0.05918 0.13311 0.4368 0.0
H509 H 0.03221 0.15126 0.48838 0.0
H510 H 0.13795 0.06841 0.67363 0.0
H511 H 0.11072 0.0861 0.72516 0.0
H512 H 0.16778 0.08463 0.6004 0.0
H513 H 0.16267 0.08945 0.52036 0.0
C514 C 0.93682 0.62665 0.82772 0.0
C515 C 0.91585 0.61234 0.78256 0.0
C516 C 0.87911 0.59541 0.8654 0.0
C517 C 0.90382 0.60236 0.90927 0.0
N518 N 0.95591 0.62567 0.9342 0.0
N519 N 0.86731 0.58102 0.75908 0.0
C520 C 0.93244 0.61876 0.89111 0.0
C521 C 0.8866 0.59677 0.80131 0.0
N522 N 0.9605 0.64813 0.81015 0.0
N523 N 0.84877 0.58692 0.88518 0.0
H524 H 0.87233 0.58008 0.71184 0.0
H525 H 0.84774 0.56631 0.77167 0.0
H526 H 0.84279 0.58676 0.93204 0.0
H527 H 0.82894 0.58388 0.85549 0.0
H528 H 0.97453 0.66139 0.84162 0.0
H529 H 0.96374 0.65542 0.76428 0.0
H530 H 0.97914 0.63386 0.92274 0.0
H531 H 0.95241 0.62176 0.98154 0.0
C532 C 0.39222 0.4265 0.12891 0.0
C533 C 0.41806 0.40404 0.13642 0.0
C534 C 0.42684 0.4029 0.02429 0.0
C535 C 0.39991 0.42397 0.01622 0.0
N536 N 0.35267 0.45051 0.05958 0.0
N537 N 0.45356 0.36398 0.09064 0.0
C538 C 0.38118 0.43404 0.06817 0.0
C539 C 0.43322 0.38997 0.08382 0.0
N540 N 0.3795 0.44218 0.17924 0.0
N541 N 0.44789 0.39707 0.97654 0.0
H542 H 0.45866 0.35365 0.13358 0.0
H543 H 0.46252 0.35064 0.0533 0.0
H544 H 0.44542 0.40734 0.93265 0.0
H545 H 0.46983 0.38477 0.98229 0.0
H546 H 0.36365 0.46184 0.1757 0.0
H547 H 0.38654 0.43731 0.22468 0.0
H548 H 0.33618 0.45503 0.09515 0.0
H549 H 0.34399 0.45725 0.01606 0.0
C550 C 0.64875 0.90144 0.34434 0.0
C551 C 0.63167 0.88595 0.39327 0.0
C552 C 0.59535 0.86043 0.31744 0.0
C553 C 0.60796 0.88121 0.27063 0.0
N554 N 0.64535 0.92386 0.24084 0.0
N555 N 0.58842 0.85071 0.42739 0.0
C556 C 0.6347 0.90202 0.28402 0.0
C557 C 0.60496 0.86528 0.38004 0.0
N558 N 0.67825 0.91573 0.35538 0.0
N559 N 0.57507 0.83534 0.30167 0.0
H560 H 0.59607 0.85211 0.47352 0.0
H561 H 0.5663 0.83867 0.42125 0.0
H562 H 0.56889 0.83014 0.25585 0.0
H563 H 0.56736 0.81764 0.33289 0.0
H564 H 0.69307 0.92491 0.32039 0.0
H565 H 0.68954 0.91528 0.39863 0.0
H566 H 0.66209 0.94222 0.25082 0.0
H567 H 0.63554 0.92558 0.19638 0.0
C568 C 0.09087 0.37591 0.80124 0.0
C569 C 0.10553 0.39317 0.75194 0.0
C570 C 0.14263 0.41897 0.82555 0.0
C571 C 0.12249 0.40821 0.87487 0.0
N572 N 0.07606 0.37671 0.90939 0.0
N573 N 0.14622 0.43089 0.71579 0.0
C574 C 0.0966 0.38615 0.86303 0.0
C575 C 0.13214 0.4142 0.76345 0.0
N576 N 0.07172 0.34954 0.78863 0.0
N577 N 0.17186 0.43338 0.83839 0.0
H578 H 0.1396 0.42734 0.66955 0.0
H579 H 0.16315 0.44948 0.72249 0.0
H580 H 0.18059 0.43573 0.88363 0.0
H581 H 0.18878 0.43956 0.80451 0.0
H582 H 0.06227 0.33434 0.82278 0.0
H583 H 0.06891 0.34075 0.7436 0.0
H584 H 0.05461 0.36381 0.9012 0.0
H585 H 0.07894 0.38369 0.95547 0.0
C586 C 0.59034 0.61245 0.07867 0.0
C587 C 0.60477 0.59845 0.1322 0.0
C588 C 0.64461 0.57102 0.06636 0.0
C589 C 0.62664 0.58063 0.01296 0.0
N590 N 0.57798 0.60524 0.97024 0.0
N591 N 0.64347 0.56098 0.17687 0.0
C592 C 0.59851 0.60026 0.01936 0.0
C593 C 0.63164 0.57713 0.12624 0.0
N594 N 0.56889 0.63761 0.08432 0.0
N595 N 0.67414 0.55618 0.05999 0.0
H596 H 0.63441 0.5642 0.22152 0.0
H597 H 0.66043 0.54225 0.17384 0.0
H598 H 0.68425 0.55064 0.01705 0.0
H599 H 0.68987 0.55199 0.09709 0.0
H600 H 0.56034 0.65088 0.04649 0.0
H601 H 0.5624 0.64745 0.12699 0.0
H602 H 0.55534 0.61635 0.97478 0.0
H603 H 0.58157 0.59527 0.92639 0.0
C604 C 0.39937 0.12206 0.36868 0.0
C605 C 0.40568 0.08962 0.38799 0.0
C606 C 0.42777 0.07719 0.28531 0.0
C607 C 0.42586 0.11053 0.26942 0.0
N608 N 0.41355 0.16584 0.29876 0.0
N609 N 0.43342 0.03868 0.36887 0.0
C610 C 0.41291 0.13336 0.31208 0.0
C611 C 0.42189 0.06777 0.34741 0.0
N612 N 0.37908 0.14161 0.40219 0.0
N613 N 0.43516 0.05439 0.24142 0.0
H614 H 0.43148 0.0314 0.41498 0.0
H615 H 0.4483 0.02349 0.34267 0.0
H616 H 0.43909 0.0601 0.19503 0.0
H617 H 0.43386 0.02945 0.24974 0.0
H618 H 0.37103 0.16416 0.38647 0.0
H619 H 0.3675 0.13415 0.4426 0.0
H620 H 0.40811 0.18378 0.33128 0.0
H621 H 0.42154 0.17498 0.25639 0.0
C622 C 0.92546 0.88648 0.56928 0.0
C623 C 0.91761 0.90582 0.6217 0.0
C624 C 0.88553 0.94157 0.55508 0.0
C625 C 0.89883 0.92615 0.50186 0.0
N626 N 0.9359 0.8863 0.4592 0.0
N627 N 0.89385 0.95514 0.66282 0.0
C628 C 0.91975 0.89898 0.50895 0.0
C629 C 0.89833 0.93412 0.61443 0.0
N630 N 0.93775 0.8559 0.57707 0.0
N631 N 0.86033 0.96302 0.54921 0.0
H632 H 0.90373 0.95154 0.70676 0.0
H633 H 0.88299 0.97787 0.65763 0.0
H634 H 0.84965 0.96873 0.5067 0.0
H635 H 0.84775 0.97235 0.58715 0.0
H636 H 0.94121 0.83972 0.54041 0.0
H637 H 0.94089 0.84543 0.62067 0.0
H638 H 0.954 0.86872 0.46359 0.0
H639 H 0.93374 0.89541 0.41435 0.0
C640 C 0.10288 0.15203 0.06017 0.0
C641 C 0.08897 0.12754 0.02188 0.0
C642 C 0.10402 0.08586 0.09772 0.0
C643 C 0.11979 0.10992 0.13462 0.0
N644 N 0.13897 0.16503 0.14636 0.0
N645 N 0.08414 0.07067 0.99602 0.0
C646 C 0.12062 0.14282 0.11444 0.0
C647 C 0.09205 0.09431 0.03815 0.0
N648 N 0.09814 0.18405 0.04587 0.0
N649 N 0.09846 0.05539 0.12086 0.0
H650 H 0.07599 0.07596 0.95134 0.0
H651 H 0.08898 0.04608 1.00301 0.0
H652 H 0.10536 0.04818 0.16528 0.0
H653 H 0.08387 0.03822 0.09846 0.0
H654 H 0.10441 0.20314 0.07539 0.0
H655 H 0.08596 0.19149 1.00582 0.0
H656 H 0.14318 0.18865 0.13092 0.0
H657 H 0.15228 0.159 0.18597 0.0
C658 C 0.88709 0.63452 0.35123 0.0
C659 C 0.89688 0.61282 0.39879 0.0
C660 C 0.88393 0.5662 0.33199 0.0
C661 C 0.87249 0.58778 0.28533 0.0
N662 N 0.85728 0.64205 0.25486 0.0
N663 N 0.89816 0.55826 0.43993 0.0
C664 C 0.87232 0.62188 0.29628 0.0
C665 C 0.89292 0.57876 0.39106 0.0
N666 N 0.89254 0.66714 0.35811 0.0
N667 N 0.88875 0.53402 0.3186 0.0
H668 H 0.90613 0.5662 0.48334 0.0
H669 H 0.8921 0.53364 0.43892 0.0
H670 H 0.88393 0.52375 0.27533 0.0
H671 H 0.90068 0.51806 0.3484 0.0
H672 H 0.88958 0.68392 0.32243 0.0
H673 H 0.90184 0.67726 0.39892 0.0
H674 H 0.85356 0.66675 0.26281 0.0
H675 H 0.84588 0.63351 0.2147 0.0
C676 C 0.41443 0.38862 0.63108 0.0
C677 C 0.39032 0.41325 0.63435 0.0
C678 C 0.38616 0.41402 0.52082 0.0
C679 C 0.41091 0.38988 0.51749 0.0
N680 N 0.44015 0.34689 0.56863 0.0
N681 N 0.34668 0.44224 0.58491 0.0
C682 C 0.42218 0.37475 0.57254 0.0
C683 C 0.374 0.42352 0.57989 0.0
N684 N 0.43155 0.37996 0.68291 0.0
N685 N 0.37564 0.42947 0.46843 0.0
H686 H 0.3372 0.44929 0.62771 0.0
H687 H 0.33171 0.44797 0.54745 0.0
H688 H 0.38258 0.42282 0.4239 0.0
H689 H 0.36121 0.45027 0.46924 0.0
H690 H 0.45207 0.36515 0.68165 0.0
H691 H 0.42686 0.3894 0.72683 0.0
H692 H 0.44661 0.333 0.60708 0.0
H693 H 0.44554 0.33584 0.52628 0.0
C694 C 0.58975 0.88951 0.76893 0.0
C695 C 0.61591 0.9119 0.76244 0.0
C696 C 0.62339 0.91275 0.87559 0.0
C697 C 0.59748 0.89 0.88207 0.0
N698 N 0.56256 0.84999 0.83435 0.0
N699 N 0.66316 0.93754 0.80731 0.0
C700 C 0.58282 0.8762 0.82841 0.0
C701 C 0.63453 0.92109 0.81516 0.0
N702 N 0.57017 0.88244 0.71934 0.0
N703 N 0.63601 0.92808 0.92657 0.0
H704 H 0.67216 0.94359 0.7636 0.0
H705 H 0.67949 0.94217 0.84332 0.0
H706 H 0.62881 0.92291 0.97171 0.0
H707 H 0.65195 0.94776 0.92386 0.0
H708 H 0.54841 0.86956 0.72317 0.0
H709 H 0.57423 0.89149 0.67496 0.0
H710 H 0.55353 0.83686 0.79667 0.0
H711 H 0.55755 0.8393 0.87715 0.0
C712 C 0.12022 0.37609 0.34062 0.0
C713 C 0.09741 0.39542 0.37343 0.0
C714 C 0.09931 0.43651 0.29148 0.0
C715 C 0.1243 0.41879 0.26119 0.0
N716 N 0.16226 0.37416 0.26168 0.0
N717 N 0.07246 0.44798 0.38848 0.0
C718 C 0.13584 0.38921 0.28711 0.0
C719 C 0.0891 0.42681 0.35134 0.0
N720 N 0.12609 0.34489 0.3592 0.0
N721 N 0.08395 0.46161 0.26195 0.0
H722 H 0.06585 0.44245 0.43392 0.0
H723 H 0.06852 0.47224 0.37676 0.0
H724 H 0.08941 0.46882 0.21687 0.0
H725 H 0.06329 0.47293 0.27965 0.0
H726 H 0.13973 0.3284 0.33343 0.0
H727 H 0.11523 0.33464 0.39824 0.0
H728 H 0.17389 0.35437 0.28205 0.0
H729 H 0.17429 0.38317 0.22278 0.0
C730 C 0.6124 0.61665 0.62618 0.0
C731 C 0.63307 0.58901 0.62902 0.0
C732 C 0.63195 0.58465 0.51547 0.0
C733 C 0.61127 0.61229 0.51261 0.0
N734 N 0.58978 0.65988 0.56286 0.0
N735 N 0.67001 0.55296 0.57676 0.0
C736 C 0.60423 0.63006 0.56734 0.0
C737 C 0.64538 0.57518 0.5736 0.0
N738 N 0.59863 0.62876 0.67898 0.0
N739 N 0.63696 0.566 0.46385 0.0
H740 H 0.6805 0.5459 0.61878 0.0
H741 H 0.68217 0.54419 0.53789 0.0
H742 H 0.62748 0.57164 0.42035 0.0
H743 H 0.6485 0.54347 0.46507 0.0
H744 H 0.58028 0.64621 0.6787 0.0
H745 H 0.60366 0.6198 0.72311 0.0
H746 H 0.58677 0.67546 0.60054 0.0
H747 H 0.58387 0.67039 0.52027 0.0
C748 C 0.42178 0.11985 0.77283 0.0
C749 C 0.3968 0.09584 0.77051 0.0
C750 C 0.39838 0.09138 0.88415 0.0
C751 C 0.42308 0.11561 0.88648 0.0
N752 N 0.45136 0.15926 0.83535 0.0
N753 N 0.35494 0.06626 0.8244 0.0
C754 C 0.43244 0.13194 0.83144 0.0
C755 C 0.383 0.08413 0.82647 0.0
N756 N 0.43699 0.12961 0.71973 0.0
N757 N 0.39104 0.07369 0.93589 0.0
H758 H 0.3428 0.06113 0.78291 0.0
H759 H 0.34198 0.05957 0.86383 0.0
H760 H 0.40183 0.07776 0.97899 0.0
H761 H 0.37611 0.05317 0.93498 0.0
H762 H 0.45802 0.14382 0.71966 0.0
H763 H 0.43025 0.12168 0.67569 0.0
H764 H 0.45641 0.17413 0.7975 0.0
H765 H 0.45918 0.1689 0.87768 0.0
C766 C 0.87276 0.93397 0.06478 0.0
C767 C 0.88635 0.92158 0.12044 0.0
C768 C 0.91779 0.88217 0.05954 0.0
C769 C 0.90898 0.89871 1.00435 0.0
N770 N 0.87969 0.9425 0.95461 0.0
N771 N 0.92428 0.88524 0.17095 0.0
C772 C 0.88643 0.92486 0.00674 0.0
C773 C 0.90912 0.89561 0.11807 0.0
N774 N 0.84659 0.95436 0.06757 0.0
N775 N 0.93432 0.85342 0.05584 0.0
H776 H 0.91908 0.8944 0.21485 0.0
H777 H 0.94391 0.86925 0.17082 0.0
H778 H 0.94063 0.84283 0.01355 0.0
H779 H 0.93874 0.83857 0.09402 0.0
H780 H 0.8336 0.96183 0.02857 0.0
H781 H 0.83584 0.96108 0.10946 0.0
H782 H 0.8667 0.96422 0.95532 0.0
H783 H 0.88908 0.93692 0.91111 0.0
loop_
_geom_bond_atom_site_label_1
_geom_bond_atom_site_label_2
_geom_bond_distance
_geom_bond_site_symmetry_2
_ccdc_geom_bond_type
Mg0 O7 2.141 . S
Mg0 O8 2.048 . S
Mg0 O9 2.048 . S
Mg0 O12 2.141 . S
C1 O2 1.313 . S
C1 O8 1.195 . S
O2 C1 1.313 . S
C3 O4 1.245 . S
C3 O12 1.289 . S
O4 C3 1.245 . S
C5 O6 1.245 . S
C5 O7 1.289 . S
O6 C5 1.245 . S
O7 Mg0 2.141 . S
O7 C5 1.289 . S
O8 Mg0 2.048 . S
O8 C1 1.195 . S
O9 Mg0 2.048 . S
O9 C10 1.195 . S
C10 O9 1.195 . S
C10 O11 1.313 . S
O11 C10 1.313 . S
O12 Mg0 2.141 . S
O12 C3 1.289 . S
Mg13 O20 2.141 . S
Mg13 O21 2.048 . S
Mg13 O22 2.048 . S
Mg13 O25 2.141 . S
C14 O15 1.313 . S
C14 O21 1.195 . S
O15 C14 1.313 . S
C16 O17 1.245 . S
C16 O25 1.289 . S
O17 C16 1.245 . S
C18 O19 1.245 . S
C18 O20 1.289 . S
O19 C18 1.245 . S
O20 Mg13 2.141 . S
O20 C18 1.289 . S
O21 Mg13 2.048 . S
O21 C14 1.195 . S
O22 Mg13 2.048 . S
O22 C23 1.195 . S
C23 O22 1.195 . S
C23 O24 1.313 . S
O24 C23 1.313 . S
O25 Mg13 2.141 . S
O25 C16 1.289 . S
Mg26 O33 2.141 . S
Mg26 O34 2.048 . S
Mg26 O35 2.048 . S
Mg26 O38 2.141 . S
C27 O28 1.313 . S
C27 O34 1.195 . S
O28 C27 1.313 . S
C29 O30 1.245 . S
C29 O38 1.289 . S
O30 C29 1.245 . S
C31 O32 1.245 . S
C31 O33 1.289 . S
O32 C31 1.245 . S
O33 Mg26 2.141 . S
O33 C31 1.289 . S
O34 Mg26 2.048 . S
O34 C27 1.195 . S
O35 Mg26 2.048 . S
O35 C36 1.195 . S
C36 O35 1.195 . S
C36 O37 1.313 . S
O37 C36 1.313 . S
O38 Mg26 2.141 . S
O38 C29 1.289 . S
Mg39 O46 2.141 . S
Mg39 O47 2.048 . S
Mg39 O48 2.048 . S
Mg39 O51 2.141 1_554 S
C40 O41 1.313 . S
C40 O47 1.195 . S
O41 C40 1.313 . S
C42 O43 1.245 . S
C42 O51 1.289 . S
O43 C42 1.245 . S
C44 O45 1.245 . S
C44 O46 1.289 . S
O45 C44 1.245 . S
O46 Mg39 2.141 . S
O46 C44 1.289 . S
O47 Mg39 2.048 . S
O47 C40 1.195 . S
O48 Mg39 2.048 . S
O48 C49 1.195 . S
C49 O48 1.195 . S
C49 O50 1.313 . S
O50 C49 1.313 . S
O51 Mg39 2.141 1_556 S
O51 C42 1.289 . S
Mg52 O59 2.141 . S
Mg52 O60 2.048 1_554 S
Mg52 O61 2.048 . S
Mg52 O64 2.141 . S
C53 O54 1.313 . S
C53 O60 1.195 . S
O54 C53 1.313 . S
C55 O56 1.245 . S
C55 O64 1.289 . S
O56 C55 1.245 . S
C57 O58 1.245 . S
C57 O59 1.289 . S
O58 C57 1.245 . S
O59 Mg52 2.141 . S
O59 C57 1.289 . S
O60 Mg52 2.048 1_556 S
O60 C53 1.195 . S
O61 Mg52 2.048 . S
O61 C62 1.195 . S
C62 O61 1.195 . S
C62 O63 1.313 . S
O63 C62 1.313 . S
O64 Mg52 2.141 . S
O64 C55 1.289 . S
Mg65 O72 2.141 . S
Mg65 O73 2.048 . S
Mg65 O74 2.048 . S
Mg65 O77 2.141 . S
C66 O67 1.313 . S
C66 O73 1.195 . S
O67 C66 1.313 . S
C68 O69 1.245 . S
C68 O77 1.289 . S
O69 C68 1.245 . S
C70 O71 1.245 . S
C70 O72 1.289 . S
O71 C70 1.245 . S
O72 Mg65 2.141 . S
O72 C70 1.289 . S
O73 Mg65 2.048 . S
O73 C66 1.195 . S
O74 Mg65 2.048 . S
O74 C75 1.195 . S
C75 O74 1.195 . S
C75 O76 1.313 . S
O76 C75 1.313 . S
O77 Mg65 2.141 . S
O77 C68 1.289 . S
Mg78 O85 2.141 . S
Mg78 O86 2.048 . S
Mg78 O87 2.048 . S
Mg78 O90 2.141 . S
C79 O80 1.313 . S
C79 O86 1.195 . S
O80 C79 1.313 . S
C81 O82 1.245 . S
C81 O90 1.289 . S
O82 C81 1.245 . S
C83 O84 1.245 . S
C83 O85 1.289 . S
O84 C83 1.245 . S
O85 Mg78 2.141 . S
O85 C83 1.289 . S
O86 Mg78 2.048 . S
O86 C79 1.195 . S
O87 Mg78 2.048 . S
O87 C88 1.195 . S
C88 O87 1.195 . S
C88 O89 1.313 . S
O89 C88 1.313 . S
O90 Mg78 2.141 . S
O90 C81 1.289 . S
Mg91 O98 2.141 . S
Mg91 O99 2.048 . S
Mg91 O100 2.048 . S
Mg91 O103 2.141 . S
C92 O93 1.313 . S
C92 O99 1.195 . S
O93 C92 1.313 . S
C94 O95 1.245 . S
C94 O103 1.289 . S
O95 C94 1.245 . S
C96 O97 1.245 . S
C96 O98 1.289 . S
O97 C96 1.245 . S
O98 Mg91 2.141 . S
O98 C96 1.289 . S
O99 Mg91 2.048 . S
O99 C92 1.195 . S
O100 Mg91 2.048 . S
O100 C101 1.195 . S
C101 O100 1.195 . S
C101 O102 1.313 . S
O102 C101 1.313 . S
O103 Mg91 2.141 . S
O103 C94 1.289 . S
Mg104 O111 2.141 . S
Mg104 O112 2.048 . S
Mg104 O113 2.048 . S
Mg104 O116 2.141 . S
C105 O106 1.313 . S
C105 O112 1.195 . S
O106 C105 1.313 . S
C107 O108 1.245 . S
C107 O116 1.289 . S
O108 C107 1.245 . S
C109 O110 1.245 . S
C109 O111 1.289 . S
O110 C109 1.245 . S
O111 Mg104 2.141 . S
O111 C109 1.289 . S
O112 Mg104 2.048 . S
O112 C105 1.195 . S
O113 Mg104 2.048 . S
O113 C114 1.195 . S
C114 O113 1.195 . S
C114 O115 1.313 . S
O115 C114 1.313 . S
O116 Mg104 2.141 . S
O116 C107 1.289 . S
Mg117 O124 2.141 . S
Mg117 O125 2.048 . S
Mg117 O126 2.048 . S
Mg117 O129 2.141 1_554 S
C118 O119 1.313 . S
C118 O125 1.195 . S
O119 C118 1.313 . S
C120 O121 1.245 . S
C120 O129 1.289 . S
O121 C120 1.245 . S
C122 O123 1.245 . S
C122 O124 1.289 . S
O123 C122 1.245 . S
O124 Mg117 2.141 . S
O124 C122 1.289 . S
O125 Mg117 2.048 . S
O125 C118 1.195 . S
O126 Mg117 2.048 . S
O126 C127 1.195 . S
C127 O126 1.195 . S
C127 O128 1.313 . S
O128 C127 1.313 . S
O129 Mg117 2.141 1_556 S
O129 C120 1.289 . S
Mg130 O137 2.141 . S
Mg130 O138 2.048 . S
Mg130 O139 2.048 . S
Mg130 O142 2.141 . S
C131 O132 1.313 . S
C131 O138 1.195 . S
O132 C131 1.313 . S
C133 O134 1.245 . S
C133 O142 1.289 . S
O134 C133 1.245 . S
C135 O136 1.245 . S
C135 O137 1.289 . S
O136 C135 1.245 . S
O137 Mg130 2.141 . S
O137 C135 1.289 . S
O138 Mg130 2.048 . S
O138 C131 1.195 . S
O139 Mg130 2.048 . S
O139 C140 1.195 . S
C140 O139 1.195 . S
C140 O141 1.313 . S
O141 C140 1.313 . S
O142 Mg130 2.141 . S
O142 C133 1.289 . S
Mg143 O150 2.141 . S
Mg143 O151 2.048 . S
Mg143 O152 2.048 . S
Mg143 O155 2.141 . S
C144 O145 1.313 . S
C144 O151 1.195 . S
O145 C144 1.313 . S
C146 O147 1.245 . S
C146 O155 1.289 . S
O147 C146 1.245 . S
C148 O149 1.245 . S
C148 O150 1.289 . S
O149 C148 1.245 . S
O150 Mg143 2.141 . S
O150 C148 1.289 . S
O151 Mg143 2.048 . S
O151 C144 1.195 . S
O152 Mg143 2.048 . S
O152 C153 1.195 . S
C153 O152 1.195 . S
C153 O154 1.313 . S
O154 C153 1.313 . S
O155 Mg143 2.141 . S
O155 C146 1.289 . S
Mg156 O163 2.141 . S
Mg156 O164 2.048 . S
Mg156 O165 2.048 . S
Mg156 O168 2.141 . S
C157 O158 1.313 . S
C157 O164 1.195 . S
O158 C157 1.313 . S
C159 O160 1.245 . S
C159 O168 1.289 . S
O160 C159 1.245 . S
C161 O162 1.245 . S
C161 O163 1.289 . S
O162 C161 1.245 . S
O163 Mg156 2.141 . S
O163 C161 1.289 . S
O164 Mg156 2.048 . S
O164 C157 1.195 . S
O165 Mg156 2.048 . S
O165 C166 1.195 . S
C166 O165 1.195 . S
C166 O167 1.313 . S
O167 C166 1.313 . S
O168 Mg156 2.141 . S
O168 C159 1.289 . S
Mg169 O176 2.141 . S
Mg169 O177 2.048 . S
Mg169 O178 2.048 . S
Mg169 O181 2.141 . S
C170 O171 1.313 . S
C170 O177 1.195 . S
O171 C170 1.313 . S
C172 O173 1.245 . S
C172 O181 1.289 . S
O173 C172 1.245 . S
C174 O175 1.245 . S
C174 O176 1.289 . S
O175 C174 1.245 . S
O176 Mg169 2.141 . S
O176 C174 1.289 . S
O177 Mg169 2.048 . S
O177 C170 1.195 . S
O178 Mg169 2.048 . S
O178 C179 1.195 . S
C179 O178 1.195 . S
C179 O180 1.313 . S
O180 C179 1.313 . S
O181 Mg169 2.141 . S
O181 C172 1.289 . S
Mg182 O189 2.141 . S
Mg182 O190 2.048 1_554 S
Mg182 O191 2.048 . S
Mg182 O194 2.141 . S
C183 O184 1.313 . S
C183 O190 1.195 . S
O184 C183 1.313 . S
C185 O186 1.245 . S
C185 O194 1.289 . S
O186 C185 1.245 . S
C187 O188 1.245 . S
C187 O189 1.289 . S
O188 C187 1.245 . S
O189 Mg182 2.141 . S
O189 C187 1.289 . S
O190 Mg182 2.048 1_556 S
O190 C183 1.195 . S
O191 Mg182 2.048 . S
O191 C192 1.195 . S
C192 O191 1.195 . S
C192 O193 1.313 . S
O193 C192 1.313 . S
O194 Mg182 2.141 . S
O194 C185 1.289 . S
Mg195 O202 2.141 . S
Mg195 O203 2.048 . S
Mg195 O204 2.048 . S
Mg195 O207 2.141 . S
C196 O197 1.313 . S
C196 O203 1.195 . S
O197 C196 1.313 . S
C198 O199 1.245 . S
C198 O207 1.289 . S
O199 C198 1.245 . S
C200 O201 1.245 . S
C200 O202 1.289 . S
O201 C200 1.245 . S
O202 Mg195 2.141 . S
O202 C200 1.289 . S
O203 Mg195 2.048 . S
O203 C196 1.195 . S
O204 Mg195 2.048 . S
O204 C205 1.195 . S
C205 O204 1.195 . S
C205 O206 1.313 . S
O206 C205 1.313 . S
O207 Mg195 2.141 . S
O207 C198 1.289 . S
C208 C209 1.363 . S
C208 C214 1.379 . S
C208 N216 1.356 . S
C209 C208 1.363 . S
C209 C215 1.363 . S
C210 C211 1.363 . S
C210 C215 1.379 . S
C210 N217 1.356 . S
C211 C210 1.363 . S
C211 C214 1.363 . S
N212 C214 1.356 . S
N212 H224 0.984 . S
N212 H225 0.985 . S
N213 C215 1.356 . S
N213 H218 0.984 . S
N213 H219 0.985 . S
C214 C208 1.379 . S
C214 C211 1.363 . S
C214 N212 1.356 . S
C215 C209 1.363 . S
C215 C210 1.379 . S
C215 N213 1.356 . S
N216 C208 1.356 . S
N216 H222 0.984 . S
N216 H223 0.984 . S
N217 C210 1.356 . S
N217 H220 0.984 . S
N217 H221 0.985 . S
H218 N213 0.984 . S
H219 N213 0.985 . S
H220 N217 0.984 . S
H221 N217 0.985 . S
H222 N216 0.984 . S
H223 N216 0.984 . S
H224 N212 0.984 . S
H225 N212 0.985 . S
C226 C227 1.363 . S
C226 C232 1.379 . S
C226 N234 1.356 . S
C227 C226 1.363 . S
C227 C233 1.363 . S
C228 C229 1.363 . S
C228 C233 1.379 . S
C228 N235 1.356 . S
C229 C228 1.363 . S
C229 C232 1.363 . S
N230 C232 1.356 . S
N230 H242 0.984 . S
N230 H243 0.985 . S
N231 C233 1.356 . S
N231 H236 0.984 . S
N231 H237 0.985 . S
C232 C226 1.379 . S
C232 C229 1.363 . S
C232 N230 1.356 . S
C233 C227 1.363 . S
C233 C228 1.379 . S
C233 N231 1.356 . S
N234 C226 1.356 . S
N234 H240 0.984 . S
N234 H241 0.984 . S
N235 C228 1.356 . S
N235 H238 0.984 . S
N235 H239 0.985 . S
H236 N231 0.984 . S
H237 N231 0.985 . S
H238 N235 0.984 . S
H239 N235 0.985 . S
H240 N234 0.984 . S
H241 N234 0.984 . S
H242 N230 0.984 . S
H243 N230 0.985 . S
C244 C245 1.363 . S
C244 C250 1.379 . S
C244 N252 1.356 . S
C245 C244 1.363 . S
C245 C251 1.363 . S
C246 C247 1.363 . S
C246 C251 1.379 . S
C246 N253 1.356 . S
C247 C246 1.363 . S
C247 C250 1.363 . S
N248 C250 1.356 1_554 S
N248 H260 0.984 . S
N248 H261 0.985 . S
N249 C251 1.356 . S
N249 H254 0.984 . S
N249 H255 0.985 . S
C250 C244 1.379 . S
C250 C247 1.363 . S
C250 N248 1.356 1_556 S
C251 C245 1.363 . S
C251 C246 1.379 . S
C251 N249 1.356 . S
N252 C244 1.356 . S
N252 H258 0.984 . S
N252 H259 0.984 . S
N253 C246 1.356 . S
N253 H256 0.984 . S
N253 H257 0.985 . S
H254 N249 0.984 . S
H255 N249 0.985 . S
H256 N253 0.984 . S
H257 N253 0.985 . S
H258 N252 0.984 . S
H259 N252 0.984 . S
H260 N248 0.984 . S
H261 N248 0.985 . S
C262 C263 1.363 . S
C262 C268 1.379 . S
C262 N270 1.356 . S
C263 C262 1.363 . S
C263 C269 1.363 . S
C264 C265 1.363 . S
C264 C269 1.379 . S
C264 N271 1.356 . S
C265 C264 1.363 . S
C265 C268 1.363 . S
N266 C268 1.356 . S
N266 H278 0.984 . S
N266 H279 0.985 . S
N267 C269 1.356 . S
N267 H272 0.984 . S
N267 H273 0.985 . S
C268 C262 1.379 . S
C268 C265 1.363 . S
C268 N266 1.356 . S
C269 C263 1.363 . S
C269 C264 1.379 . S
C269 N267 1.356 . S
N270 C262 1.356 . S
N270 H276 0.984 . S
N270 H277 0.984 . S
N271 C264 1.356 . S
N271 H274 0.984 . S
N271 H275 0.985 . S
H272 N267 0.984 . S
H273 N267 0.985 . S
H274 N271 0.984 . S
H275 N271 0.985 . S
H276 N270 0.984 . S
H277 N270 0.984 . S
H278 N266 0.984 . S
H279 N266 0.985 . S
C280 C281 1.363 . S
C280 C286 1.379 . S
C280 N288 1.356 . S
C281 C280 1.363 . S
C281 C287 1.363 . S
C282 C283 1.363 . S
C282 C287 1.379 . S
C282 N289 1.356 . S
C283 C282 1.363 . S
C283 C286 1.363 . S
N284 C286 1.356 1_554 S
N284 H296 0.984 . S
N284 H297 0.985 . S
N285 C287 1.356 . S
N285 H290 0.984 . S
N285 H291 0.985 . S
C286 C280 1.379 . S
C286 C283 1.363 . S
C286 N284 1.356 1_556 S
C287 C281 1.363 . S
C287 C282 1.379 . S
C287 N285 1.356 . S
N288 C280 1.356 . S
N288 H294 0.984 . S
N288 H295 0.984 . S
N289 C282 1.356 . S
N289 H292 0.984 . S
N289 H293 0.985 . S
H290 N285 0.984 . S
H291 N285 0.985 . S
H292 N289 0.984 . S
H293 N289 0.985 . S
H294 N288 0.984 . S
H295 N288 0.984 . S
H296 N284 0.984 . S
H297 N284 0.985 . S
C298 C299 1.363 . S
C298 C304 1.379 . S
C298 N306 1.356 . S
C299 C298 1.363 . S
C299 C305 1.363 . S
C300 C301 1.363 . S
C300 C305 1.379 . S
C300 N307 1.356 . S
C301 C300 1.363 . S
C301 C304 1.363 . S
N302 C304 1.356 . S
N302 H314 0.984 . S
N302 H315 0.985 . S
N303 C305 1.356 . S
N303 H308 0.984 . S
N303 H309 0.985 . S
C304 C298 1.379 . S
C304 C301 1.363 . S
C304 N302 1.356 . S
C305 C299 1.363 . S
C305 C300 1.379 . S
C305 N303 1.356 . S
N306 C298 1.356 . S
N306 H312 0.984 . S
N306 H313 0.984 . S
N307 C300 1.356 . S
N307 H310 0.984 . S
N307 H311 0.985 . S
H308 N303 0.984 . S
H309 N303 0.985 . S
H310 N307 0.984 . S
H311 N307 0.985 . S
H312 N306 0.984 . S
H313 N306 0.984 . S
H314 N302 0.984 . S
H315 N302 0.985 . S
C316 C317 1.363 . S
C316 C322 1.379 . S
C316 N324 1.356 . S
C317 C316 1.363 . S
C317 C323 1.363 . S
C318 C319 1.363 . S
C318 C323 1.379 . S
C318 N325 1.356 . S
C319 C318 1.363 . S
C319 C322 1.363 . S
N320 C322 1.356 . S
N320 H332 0.984 . S
N320 H333 0.985 . S
N321 C323 1.356 . S
N321 H326 0.984 . S
N321 H327 0.985 . S
C322 C316 1.379 . S
C322 C319 1.363 . S
C322 N320 1.356 . S
C323 C317 1.363 . S
C323 C318 1.379 . S
C323 N321 1.356 . S
N324 C316 1.356 . S
N324 H330 0.984 . S
N324 H331 0.984 . S
N325 C318 1.356 . S
N325 H328 0.984 . S
N325 H329 0.985 . S
H326 N321 0.984 . S
H327 N321 0.985 . S
H328 N325 0.984 . S
H329 N325 0.985 . S
H330 N324 0.984 . S
H331 N324 0.984 . S
H332 N320 0.984 . S
H333 N320 0.985 . S
C334 C335 1.363 . S
C334 C340 1.379 . S
C334 N342 1.356 . S
C335 C334 1.363 . S
C335 C341 1.363 . S
C336 C337 1.363 . S
C336 C341 1.379 . S
C336 N343 1.356 . S
C337 C336 1.363 . S
C337 C340 1.363 . S
N338 C340 1.356 . S
N338 H350 0.984 . S
N338 H351 0.985 . S
N339 C341 1.356 . S
N339 H344 0.984 . S
N339 H345 0.985 . S
C340 C334 1.379 . S
C340 C337 1.363 . S
C340 N338 1.356 . S
C341 C335 1.363 . S
C341 C336 1.379 . S
C341 N339 1.356 . S
N342 C334 1.356 . S
N342 H348 0.984 . S
N342 H349 0.984 . S
N343 C336 1.356 . S
N343 H346 0.984 . S
N343 H347 0.985 . S
H344 N339 0.984 . S
H345 N339 0.985 . S
H346 N343 0.984 . S
H347 N343 0.985 . S
H348 N342 0.984 . S
H349 N342 0.984 . S
H350 N338 0.984 . S
H351 N338 0.985 . S
C352 C353 1.363 1_655 S
C352 C358 1.379 1_545 S
C352 N360 1.356 . S
C353 C352 1.363 1_455 S
C353 C359 1.363 . S
C354 C355 1.363 1_455 S
C354 C359 1.379 1_565 S
C354 N361 1.356 . S
C355 C354 1.363 1_655 S
C355 C358 1.363 . S
N356 C358 1.356 . S
N356 H368 0.984 . S
N356 H369 0.985 . S
N357 C359 1.356 . S
N357 H362 0.984 . S
N357 H363 0.985 . S
C358 C352 1.379 1_565 S
C358 C355 1.363 . S
C358 N356 1.356 . S
C359 C353 1.363 . S
C359 C354 1.379 1_545 S
C359 N357 1.356 . S
N360 C352 1.356 . S
N360 H366 0.984 . S
N360 H367 0.984 1_655 S
N361 C354 1.356 . S
N361 H364 0.984 1_455 S
N361 H365 0.985 . S
H362 N357 0.984 . S
H363 N357 0.985 . S
H364 N361 0.984 1_655 S
H365 N361 0.985 . S
H366 N360 0.984 . S
H367 N360 0.984 1_455 S
H368 N356 0.984 . S
H369 N356 0.985 . S
C370 C371 1.363 . S
C370 C376 1.379 1_655 S
C370 N378 1.356 . S
C371 C370 1.363 . S
C371 C377 1.363 . S
C372 C373 1.363 . S
C372 C377 1.379 1_455 S
C372 N379 1.356 . S
C373 C372 1.363 . S
C373 C376 1.363 . S
N374 C376 1.356 . S
N374 H386 0.984 . S
N374 H387 0.985 . S
N375 C377 1.356 . S
N375 H380 0.984 . S
N375 H381 0.985 . S
C376 C370 1.379 1_455 S
C376 C373 1.363 . S
C376 N374 1.356 . S
C377 C371 1.363 . S
C377 C372 1.379 1_655 S
C377 N375 1.356 . S
N378 C370 1.356 . S
N378 H384 0.984 . S
N378 H385 0.984 . S
N379 C372 1.356 . S
N379 H382 0.984 . S
N379 H383 0.985 . S
H380 N375 0.984 . S
H381 N375 0.985 . S
H382 N379 0.984 . S
H383 N379 0.985 . S
H384 N378 0.984 . S
H385 N378 0.984 . S
H386 N374 0.984 . S
H387 N374 0.985 . S
C388 C389 1.363 . S
C388 C394 1.379 . S
C388 N396 1.356 . S
C389 C388 1.363 . S
C389 C395 1.363 . S
C390 C391 1.363 . S
C390 C395 1.379 . S
C390 N397 1.356 . S
C391 C390 1.363 . S
C391 C394 1.363 . S
N392 C394 1.356 . S
N392 H404 0.984 . S
N392 H405 0.985 . S
N393 C395 1.356 . S
N393 H398 0.984 . S
N393 H399 0.985 . S
C394 C388 1.379 . S
C394 C391 1.363 . S
C394 N392 1.356 . S
C395 C389 1.363 . S
C395 C390 1.379 . S
C395 N393 1.356 . S
N396 C388 1.356 . S
N396 H402 0.984 . S
N396 H403 0.984 . S
N397 C390 1.356 . S
N397 H400 0.984 . S
N397 H401 0.985 . S
H398 N393 0.984 . S
H399 N393 0.985 . S
H400 N397 0.984 . S
H401 N397 0.985 . S
H402 N396 0.984 . S
H403 N396 0.984 . S
H404 N392 0.984 . S
H405 N392 0.985 . S
C406 C407 1.363 1_545 S
C406 C412 1.379 . S
C406 N414 1.356 . S
C407 C406 1.363 1_565 S
C407 C413 1.363 . S
C408 C409 1.363 1_565 S
C408 C413 1.379 . S
C408 N415 1.356 . S
C409 C408 1.363 1_545 S
C409 C412 1.363 . S
N410 C412 1.356 . S
N410 H422 0.984 1_554 S
N410 H423 0.985 . S
N411 C413 1.356 . S
N411 H416 0.984 . S
N411 H417 0.985 . S
C412 C406 1.379 . S
C412 C409 1.363 . S
C412 N410 1.356 . S
C413 C407 1.363 . S
C413 C408 1.379 . S
C413 N411 1.356 . S
N414 C406 1.356 . S
N414 H420 0.984 1_554 S
N414 H421 0.984 1_545 S
N415 C408 1.356 . S
N415 H418 0.984 1_565 S
N415 H419 0.985 . S
H416 N411 0.984 . S
H417 N411 0.985 . S
H418 N415 0.984 1_545 S
H419 N415 0.985 . S
H420 N414 0.984 1_556 S
H421 N414 0.984 1_565 S
H422 N410 0.984 1_556 S
H423 N410 0.985 . S
C424 C425 1.363 . S
C424 C430 1.379 . S
C424 N432 1.356 1_554 S
C425 C424 1.363 . S
C425 C431 1.363 1_455 S
C426 C427 1.363 . S
C426 C431 1.379 . S
C426 N433 1.356 . S
C427 C426 1.363 . S
C427 C430 1.363 1_655 S
N428 C430 1.356 1_556 S
N428 H440 0.984 . S
N428 H441 0.985 1_455 S
N429 C431 1.356 . S
N429 H434 0.984 1_655 S
N429 H435 0.985 . S
C430 C424 1.379 . S
C430 C427 1.363 1_455 S
C430 N428 1.356 1_554 S
C431 C425 1.363 1_655 S
C431 C426 1.379 . S
C431 N429 1.356 . S
N432 C424 1.356 1_556 S
N432 H438 0.984 . S
N432 H439 0.984 . S
N433 C426 1.356 . S
N433 H436 0.984 . S
N433 H437 0.985 . S
H434 N429 0.984 1_455 S
H435 N429 0.985 . S
H436 N433 0.984 . S
H437 N433 0.985 . S
H438 N432 0.984 . S
H439 N432 0.984 . S
H440 N428 0.984 . S
H441 N428 0.985 1_655 S
C442 C443 1.363 . S
C442 C448 1.379 . S
C442 N450 1.356 . S
C443 C442 1.363 . S
C443 C449 1.363 . S
C444 C445 1.363 . S
C444 C449 1.379 . S
C444 N451 1.356 . S
C445 C444 1.363 . S
C445 C448 1.363 . S
N446 C448 1.356 . S
N446 H458 0.984 . S
N446 H459 0.985 . S
N447 C449 1.356 . S
N447 H452 0.984 . S
N447 H453 0.985 . S
C448 C442 1.379 . S
C448 C445 1.363 . S
C448 N446 1.356 . S
C449 C443 1.363 . S
C449 C444 1.379 . S
C449 N447 1.356 . S
N450 C442 1.356 . S
N450 H456 0.984 . S
N450 H457 0.984 . S
N451 C444 1.356 . S
N451 H454 0.984 . S
N451 H455 0.985 . S
H452 N447 0.984 . S
H453 N447 0.985 . S
H454 N451 0.984 . S
H455 N451 0.985 . S
H456 N450 0.984 . S
H457 N450 0.984 . S
H458 N446 0.984 . S
H459 N446 0.985 . S
C460 C461 1.363 . S
C460 C466 1.379 1_545 S
C460 N468 1.356 . S
C461 C460 1.363 . S
C461 C467 1.363 . S
C462 C463 1.363 . S
C462 C467 1.379 1_565 S
C462 N469 1.356 . S
C463 C462 1.363 . S
C463 C466 1.363 . S
N464 C466 1.356 . S
N464 H476 0.984 . S
N464 H477 0.985 . S
N465 C467 1.356 . S
N465 H470 0.984 . S
N465 H471 0.985 . S
C466 C460 1.379 1_565 S
C466 C463 1.363 . S
C466 N464 1.356 . S
C467 C461 1.363 . S
C467 C462 1.379 1_545 S
C467 N465 1.356 . S
N468 C460 1.356 . S
N468 H474 0.984 . S
N468 H475 0.984 . S
N469 C462 1.356 . S
N469 H472 0.984 . S
N469 H473 0.985 . S
H470 N465 0.984 . S
H471 N465 0.985 . S
H472 N469 0.984 . S
H473 N469 0.985 . S
H474 N468 0.984 . S
H475 N468 0.984 . S
H476 N464 0.984 . S
H477 N464 0.985 . S
C478 C479 1.363 1_565 S
C478 C484 1.379 1_455 S
C478 N486 1.356 . S
C479 C478 1.363 1_545 S
C479 C485 1.363 . S
C480 C481 1.363 1_545 S
C480 C485 1.379 1_655 S
C480 N487 1.356 . S
C481 C480 1.363 1_565 S
C481 C484 1.363 . S
N482 C484 1.356 . S
N482 H494 0.984 . S
N482 H495 0.985 . S
N483 C485 1.356 . S
N483 H488 0.984 . S
N483 H489 0.985 . S
C484 C478 1.379 1_655 S
C484 C481 1.363 . S
C484 N482 1.356 . S
C485 C479 1.363 . S
C485 C480 1.379 1_455 S
C485 N483 1.356 . S
N486 C478 1.356 . S
N486 H492 0.984 . S
N486 H493 0.984 1_565 S
N487 C480 1.356 . S
N487 H490 0.984 1_545 S
N487 H491 0.985 . S
H488 N483 0.984 . S
H489 N483 0.985 . S
H490 N487 0.984 1_565 S
H491 N487 0.985 . S
H492 N486 0.984 . S
H493 N486 0.984 1_545 S
H494 N482 0.984 . S
H495 N482 0.985 . S
C496 C497 1.363 . S
C496 C502 1.379 . S
C496 N504 1.356 . S
C497 C496 1.363 . S
C497 C503 1.363 . S
C498 C499 1.363 . S
C498 C503 1.379 . S
C498 N505 1.356 . S
C499 C498 1.363 . S
C499 C502 1.363 . S
N500 C502 1.356 . S
N500 H512 0.984 . S
N500 H513 0.985 . S
N501 C503 1.356 . S
N501 H506 0.984 . S
N501 H507 0.985 . S
C502 C496 1.379 . S
C502 C499 1.363 . S
C502 N500 1.356 . S
C503 C497 1.363 . S
C503 C498 1.379 . S
C503 N501 1.356 . S
N504 C496 1.356 . S
N504 H510 0.984 . S
N504 H511 0.984 . S
N505 C498 1.356 . S
N505 H508 0.984 . S
N505 H509 0.985 . S
H506 N501 0.984 . S
H507 N501 0.985 . S
H508 N505 0.984 . S
H509 N505 0.985 . S
H510 N504 0.984 . S
H511 N504 0.984 . S
H512 N500 0.984 . S
H513 N500 0.985 . S
C514 C515 1.363 . S
C514 C520 1.379 . S
C514 N522 1.356 . S
C515 C514 1.363 . S
C515 C521 1.363 . S
C516 C517 1.363 . S
C516 C521 1.379 . S
C516 N523 1.356 . S
C517 C516 1.363 . S
C517 C520 1.363 . S
N518 C520 1.356 . S
N518 H530 0.984 . S
N518 H531 0.985 . S
N519 C521 1.356 . S
N519 H524 0.984 . S
N519 H525 0.985 . S
C520 C514 1.379 . S
C520 C517 1.363 . S
C520 N518 1.356 . S
C521 C515 1.363 . S
C521 C516 1.379 . S
C521 N519 1.356 . S
N522 C514 1.356 . S
N522 H528 0.984 . S
N522 H529 0.984 . S
N523 C516 1.356 . S
N523 H526 0.984 . S
N523 H527 0.985 . S
H524 N519 0.984 . S
H525 N519 0.985 . S
H526 N523 0.984 . S
H527 N523 0.985 . S
H528 N522 0.984 . S
H529 N522 0.984 . S
H530 N518 0.984 . S
H531 N518 0.985 . S
C532 C533 1.363 . S
C532 C538 1.379 . S
C532 N540 1.356 . S
C533 C532 1.363 . S
C533 C539 1.363 . S
C534 C535 1.363 . S
C534 C539 1.379 . S
C534 N541 1.356 1_554 S
C535 C534 1.363 . S
C535 C538 1.363 . S
N536 C538 1.356 . S
N536 H548 0.984 . S
N536 H549 0.985 1_554 S
N537 C539 1.356 . S
N537 H542 0.984 . S
N537 H543 0.985 . S
C538 C532 1.379 . S
C538 C535 1.363 . S
C538 N536 1.356 . S
C539 C533 1.363 . S
C539 C534 1.379 . S
C539 N537 1.356 . S
N540 C532 1.356 . S
N540 H546 0.984 . S
N540 H547 0.984 . S
N541 C534 1.356 1_556 S
N541 H544 0.984 . S
N541 H545 0.985 . S
H542 N537 0.984 . S
H543 N537 0.985 . S
H544 N541 0.984 . S
H545 N541 0.985 . S
H546 N540 0.984 . S
H547 N540 0.984 . S
H548 N536 0.984 . S
H549 N536 0.985 1_556 S
C550 C551 1.363 . S
C550 C556 1.379 . S
C550 N558 1.356 . S
C551 C550 1.363 . S
C551 C557 1.363 . S
C552 C553 1.363 . S
C552 C557 1.379 . S
C552 N559 1.356 . S
C553 C552 1.363 . S
C553 C556 1.363 . S
N554 C556 1.356 . S
N554 H566 0.984 . S
N554 H567 0.985 . S
N555 C557 1.356 . S
N555 H560 0.984 . S
N555 H561 0.985 . S
C556 C550 1.379 . S
C556 C553 1.363 . S
C556 N554 1.356 . S
C557 C551 1.363 . S
C557 C552 1.379 . S
C557 N555 1.356 . S
N558 C550 1.356 . S
N558 H564 0.984 . S
N558 H565 0.984 . S
N559 C552 1.356 . S
N559 H562 0.984 . S
N559 H563 0.985 . S
H560 N555 0.984 . S
H561 N555 0.985 . S
H562 N559 0.984 . S
H563 N559 0.985 . S
H564 N558 0.984 . S
H565 N558 0.984 . S
H566 N554 0.984 . S
H567 N554 0.985 . S
C568 C569 1.363 . S
C568 C574 1.379 . S
C568 N576 1.356 . S
C569 C568 1.363 . S
C569 C575 1.363 . S
C570 C571 1.363 . S
C570 C575 1.379 . S
C570 N577 1.356 . S
C571 C570 1.363 . S
C571 C574 1.363 . S
N572 C574 1.356 . S
N572 H584 0.984 . S
N572 H585 0.985 . S
N573 C575 1.356 . S
N573 H578 0.984 . S
N573 H579 0.985 . S
C574 C568 1.379 . S
C574 C571 1.363 . S
C574 N572 1.356 . S
C575 C569 1.363 . S
C575 C570 1.379 . S
C575 N573 1.356 . S
N576 C568 1.356 . S
N576 H582 0.984 . S
N576 H583 0.984 . S
N577 C570 1.356 . S
N577 H580 0.984 . S
N577 H581 0.985 . S
H578 N573 0.984 . S
H579 N573 0.985 . S
H580 N577 0.984 . S
H581 N577 0.985 . S
H582 N576 0.984 . S
H583 N576 0.984 . S
H584 N572 0.984 . S
H585 N572 0.985 . S
C586 C587 1.363 . S
C586 C592 1.379 . S
C586 N594 1.356 . S
C587 C586 1.363 . S
C587 C593 1.363 . S
C588 C589 1.363 . S
C588 C593 1.379 . S
C588 N595 1.356 . S
C589 C588 1.363 . S
C589 C592 1.363 . S
N590 C592 1.356 1_556 S
N590 H602 0.984 . S
N590 H603 0.985 . S
N591 C593 1.356 . S
N591 H596 0.984 . S
N591 H597 0.985 . S
C592 C586 1.379 . S
C592 C589 1.363 . S
C592 N590 1.356 1_554 S
C593 C587 1.363 . S
C593 C588 1.379 . S
C593 N591 1.356 . S
N594 C586 1.356 . S
N594 H600 0.984 . S
N594 H601 0.984 . S
N595 C588 1.356 . S
N595 H598 0.984 1_554 S
N595 H599 0.985 . S
H596 N591 0.984 . S
H597 N591 0.985 . S
H598 N595 0.984 1_556 S
H599 N595 0.985 . S
H600 N594 0.984 . S
H601 N594 0.984 . S
H602 N590 0.984 . S
H603 N590 0.985 . S
C604 C605 1.363 . S
C604 C610 1.379 . S
C604 N612 1.356 . S
C605 C604 1.363 . S
C605 C611 1.363 . S
C606 C607 1.363 . S
C606 C611 1.379 . S
C606 N613 1.356 . S
C607 C606 1.363 . S
C607 C610 1.363 . S
N608 C610 1.356 . S
N608 H620 0.984 . S
N608 H621 0.985 . S
N609 C611 1.356 . S
N609 H614 0.984 . S
N609 H615 0.985 . S
C610 C604 1.379 . S
C610 C607 1.363 . S
C610 N608 1.356 . S
C611 C605 1.363 . S
C611 C606 1.379 . S
C611 N609 1.356 . S
N612 C604 1.356 . S
N612 H618 0.984 . S
N612 H619 0.984 . S
N613 C606 1.356 . S
N613 H616 0.984 . S
N613 H617 0.985 . S
H614 N609 0.984 . S
H615 N609 0.985 . S
H616 N613 0.984 . S
H617 N613 0.985 . S
H618 N612 0.984 . S
H619 N612 0.984 . S
H620 N608 0.984 . S
H621 N608 0.985 . S
C622 C623 1.363 . S
C622 C628 1.379 . S
C622 N630 1.356 . S
C623 C622 1.363 . S
C623 C629 1.363 . S
C624 C625 1.363 . S
C624 C629 1.379 . S
C624 N631 1.356 . S
C625 C624 1.363 . S
C625 C628 1.363 . S
N626 C628 1.356 . S
N626 H638 0.984 . S
N626 H639 0.985 . S
N627 C629 1.356 . S
N627 H632 0.984 . S
N627 H633 0.985 . S
C628 C622 1.379 . S
C628 C625 1.363 . S
C628 N626 1.356 . S
C629 C623 1.363 . S
C629 C624 1.379 . S
C629 N627 1.356 . S
N630 C622 1.356 . S
N630 H636 0.984 . S
N630 H637 0.984 . S
N631 C624 1.356 . S
N631 H634 0.984 . S
N631 H635 0.985 . S
H632 N627 0.984 . S
H633 N627 0.985 . S
H634 N631 0.984 . S
H635 N631 0.985 . S
H636 N630 0.984 . S
H637 N630 0.984 . S
H638 N626 0.984 . S
H639 N626 0.985 . S
C640 C641 1.363 . S
C640 C646 1.379 . S
C640 N648 1.356 . S
C641 C640 1.363 . S
C641 C647 1.363 . S
C642 C643 1.363 . S
C642 C647 1.379 . S
C642 N649 1.356 . S
C643 C642 1.363 . S
C643 C646 1.363 . S
N644 C646 1.356 . S
N644 H656 0.984 . S
N644 H657 0.985 . S
N645 C647 1.356 1_556 S
N645 H650 0.984 . S
N645 H651 0.985 . S
C646 C640 1.379 . S
C646 C643 1.363 . S
C646 N644 1.356 . S
C647 C641 1.363 . S
C647 C642 1.379 . S
C647 N645 1.356 1_554 S
N648 C640 1.356 . S
N648 H654 0.984 . S
N648 H655 0.984 1_554 S
N649 C642 1.356 . S
N649 H652 0.984 . S
N649 H653 0.985 . S
H650 N645 0.984 . S
H651 N645 0.985 . S
H652 N649 0.984 . S
H653 N649 0.985 . S
H654 N648 0.984 . S
H655 N648 0.984 1_556 S
H656 N644 0.984 . S
H657 N644 0.985 . S
C658 C659 1.363 . S
C658 C664 1.379 . S
C658 N666 1.356 . S
C659 C658 1.363 . S
C659 C665 1.363 . S
C660 C661 1.363 . S
C660 C665 1.379 . S
C660 N667 1.356 . S
C661 C660 1.363 . S
C661 C664 1.363 . S
N662 C664 1.356 . S
N662 H674 0.984 . S
N662 H675 0.985 . S
N663 C665 1.356 . S
N663 H668 0.984 . S
N663 H669 0.985 . S
C664 C658 1.379 . S
C664 C661 1.363 . S
C664 N662 1.356 . S
C665 C659 1.363 . S
C665 C660 1.379 . S
C665 N663 1.356 . S
N666 C658 1.356 . S
N666 H672 0.984 . S
N666 H673 0.984 . S
N667 C660 1.356 . S
N667 H670 0.984 . S
N667 H671 0.985 . S
H668 N663 0.984 . S
H669 N663 0.985 . S
H670 N667 0.984 . S
H671 N667 0.985 . S
H672 N666 0.984 . S
H673 N666 0.984 . S
H674 N662 0.984 . S
H675 N662 0.985 . S
C676 C677 1.363 . S
C676 C682 1.379 . S
C676 N684 1.356 . S
C677 C676 1.363 . S
C677 C683 1.363 . S
C678 C679 1.363 . S
C678 C683 1.379 . S
C678 N685 1.356 . S
C679 C678 1.363 . S
C679 C682 1.363 . S
N680 C682 1.356 . S
N680 H692 0.984 . S
N680 H693 0.985 . S
N681 C683 1.356 . S
N681 H686 0.984 . S
N681 H687 0.985 . S
C682 C676 1.379 . S
C682 C679 1.363 . S
C682 N680 1.356 . S
C683 C677 1.363 . S
C683 C678 1.379 . S
C683 N681 1.356 . S
N684 C676 1.356 . S
N684 H690 0.984 . S
N684 H691 0.984 . S
N685 C678 1.356 . S
N685 H688 0.984 . S
N685 H689 0.985 . S
H686 N681 0.984 . S
H687 N681 0.985 . S
H688 N685 0.984 . S
H689 N685 0.985 . S
H690 N684 0.984 . S
H691 N684 0.984 . S
H692 N680 0.984 . S
H693 N680 0.985 . S
C694 C695 1.363 . S
C694 C700 1.379 . S
C694 N702 1.356 . S
C695 C694 1.363 . S
C695 C701 1.363 . S
C696 C697 1.363 . S
C696 C701 1.379 . S
C696 N703 1.356 . S
C697 C696 1.363 . S
C697 C700 1.363 . S
N698 C700 1.356 . S
N698 H710 0.984 . S
N698 H711 0.985 . S
N699 C701 1.356 . S
N699 H704 0.984 . S
N699 H705 0.985 . S
C700 C694 1.379 . S
C700 C697 1.363 . S
C700 N698 1.356 . S
C701 C695 1.363 . S
C701 C696 1.379 . S
C701 N699 1.356 . S
N702 C694 1.356 . S
N702 H708 0.984 . S
N702 H709 0.984 . S
N703 C696 1.356 . S
N703 H706 0.984 . S
N703 H707 0.985 . S
H704 N699 0.984 . S
H705 N699 0.985 . S
H706 N703 0.984 . S
H707 N703 0.985 . S
H708 N702 0.984 . S
H709 N702 0.984 . S
H710 N698 0.984 . S
H711 N698 0.985 . S
C712 C713 1.363 . S
C712 C718 1.379 . S
C712 N720 1.356 . S
C713 C712 1.363 . S
C713 C719 1.363 . S
C714 C715 1.363 . S
C714 C719 1.379 . S
C714 N721 1.356 . S
C715 C714 1.363 . S
C715 C718 1.363 . S
N716 C718 1.356 . S
N716 H728 0.984 . S
N716 H729 0.985 . S
N717 C719 1.356 . S
N717 H722 0.984 . S
N717 H723 0.985 . S
C718 C712 1.379 . S
C718 C715 1.363 . S
C718 N716 1.356 . S
C719 C713 1.363 . S
C719 C714 1.379 . S
C719 N717 1.356 . S
N720 C712 1.356 . S
N720 H726 0.984 . S
N720 H727 0.984 . S
N721 C714 1.356 . S
N721 H724 0.984 . S
N721 H725 0.985 . S
H722 N717 0.984 . S
H723 N717 0.985 . S
H724 N721 0.984 . S
H725 N721 0.985 . S
H726 N720 0.984 . S
H727 N720 0.984 . S
H728 N716 0.984 . S
H729 N716 0.985 . S
C730 C731 1.363 . S
C730 C736 1.379 . S
C730 N738 1.356 . S
C731 C730 1.363 . S
C731 C737 1.363 . S
C732 C733 1.363 . S
C732 C737 1.379 . S
C732 N739 1.356 . S
C733 C732 1.363 . S
C733 C736 1.363 . S
N734 C736 1.356 . S
N734 H746 0.984 . S
N734 H747 0.985 . S
N735 C737 1.356 . S
N735 H740 0.984 . S
N735 H741 0.985 . S
C736 C730 1.379 . S
C736 C733 1.363 . S
C736 N734 1.356 . S
C737 C731 1.363 . S
C737 C732 1.379 . S
C737 N735 1.356 . S
N738 C730 1.356 . S
N738 H744 0.984 . S
N738 H745 0.984 . S
N739 C732 1.356 . S
N739 H742 0.984 . S
N739 H743 0.985 . S
H740 N735 0.984 . S
H741 N735 0.985 . S
H742 N739 0.984 . S
H743 N739 0.985 . S
H744 N738 0.984 . S
H745 N738 0.984 . S
H746 N734 0.984 . S
H747 N734 0.985 . S
C748 C749 1.363 . S
C748 C754 1.379 . S
C748 N756 1.356 . S
C749 C748 1.363 . S
C749 C755 1.363 . S
C750 C751 1.363 . S
C750 C755 1.379 . S
C750 N757 1.356 . S
C751 C750 1.363 . S
C751 C754 1.363 . S
N752 C754 1.356 . S
N752 H764 0.984 . S
N752 H765 0.985 . S
N753 C755 1.356 . S
N753 H758 0.984 . S
N753 H759 0.985 . S
C754 C748 1.379 . S
C754 C751 1.363 . S
C754 N752 1.356 . S
C755 C749 1.363 . S
C755 C750 1.379 . S
C755 N753 1.356 . S
N756 C748 1.356 . S
N756 H762 0.984 . S
N756 H763 0.984 . S
N757 C750 1.356 . S
N757 H760 0.984 . S
N757 H761 0.985 . S
H758 N753 0.984 . S
H759 N753 0.985 . S
H760 N757 0.984 . S
H761 N757 0.985 . S
H762 N756 0.984 . S
H763 N756 0.984 . S
H764 N752 0.984 . S
H765 N752 0.985 . S
C766 C767 1.363 . S
C766 C772 1.379 . S
C766 N774 1.356 . S
C767 C766 1.363 . S
C767 C773 1.363 . S
C768 C769 1.363 . S
C768 C773 1.379 . S
C768 N775 1.356 . S
C769 C768 1.363 . S
C769 C772 1.363 . S
N770 C772 1.356 1_556 S
N770 H782 0.984 . S
N770 H783 0.985 . S
N771 C773 1.356 . S
N771 H776 0.984 . S
N771 H777 0.985 . S
C772 C766 1.379 . S
C772 C769 1.363 . S
C772 N770 1.356 1_554 S
C773 C767 1.363 . S
C773 C768 1.379 . S
C773 N771 1.356 . S
N774 C766 1.356 . S
N774 H780 0.984 . S
N774 H781 0.984 . S
N775 C768 1.356 . S
N775 H778 0.984 1_554 S
N775 H779 0.985 . S
H776 N771 0.984 . S
H777 N771 0.985 . S
H778 N775 0.984 1_556 S
H779 N775 0.985 . S
H780 N774 0.984 . S
H781 N774 0.984 . S
H782 N770 0.984 . S
H783 N770 0.985 . S
C209 C83 2.018 . S
C211 C5 2.018 . S
C227 C96 2.018 . S
C229 C18 2.018 . S
C245 C31 2.018 . S
C247 C57 2.018 1_556 S
C263 C44 2.018 . S
C265 C70 2.018 . S
C281 C109 2.018 . S
C283 C187 2.018 1_556 S
C299 C200 2.018 . S
C301 C122 2.018 . S
C317 C135 2.018 . S
C319 C161 2.018 . S
C335 C148 2.018 . S
C337 C174 2.018 . S
C353 C10 1.943 . S
C355 C140 1.943 . S
C371 C23 1.943 . S
C373 C153 1.943 . S
C389 C36 1.943 . S
C391 C114 1.943 . S
C407 C49 1.943 . S
C409 C127 1.943 . S
C425 C62 1.943 . S
C427 C192 1.943 . S
C443 C205 1.943 . S
C445 C75 1.943 . S
C461 C88 1.943 . S
C463 C166 1.943 . S
C479 C179 1.943 . S
C481 C101 1.943 . S
C497 C170 0.742 . S
C499 C1 0.742 . S
C515 C14 0.742 . S
C517 C183 0.742 . S
C533 C196 0.742 . S
C535 C27 0.742 1_554 S
C551 C157 0.742 . S
C553 C40 0.742 . S
C569 C144 0.742 . S
C571 C53 0.742 . S
C587 C66 0.742 . S
C589 C105 0.742 1_554 S
C605 C79 0.742 . S
C607 C118 0.742 . S
C623 C92 0.742 . S
C625 C131 0.742 . S
C641 C172 1.811 1_554 S
C643 C3 1.811 . S
C659 C16 1.811 . S
C661 C185 1.811 . S
C677 C29 1.811 . S
C679 C198 1.811 . S
C695 C159 1.811 . S
C697 C42 1.811 . S
C713 C146 1.811 . S
C715 C55 1.811 . S
C731 C107 1.811 . S
C733 C68 1.811 . S
C749 C81 1.811 . S
C751 C120 1.811 . S
C767 C133 1.811 . S
C769 C94 1.811 1_554 S
