# Generated by pormake.
# Topology hjm, (4)-cn, num edge types: 1
# Building blocks:
#     Node 0, Type 0, BuildingBlock: ICAMEG_clean_sbu_1, # of connection points: 4
#     Node 1, Type 0, BuildingBlock: ICAMEG_clean_sbu_1, # of connection points: 4
#     Node 2, Type 0, BuildingBlock: ICAMEG_clean_sbu_1, # of connection points: 4
#     Node 3, Type 0, BuildingBlock: ICAMEG_clean_sbu_1, # of connection points: 4
#     Node 4, Type 0, BuildingBlock: ICAMEG_clean_sbu_1, # of connection points: 4
#     Node 5, Type 0, BuildingBlock: ICAMEG_clean_sbu_1, # of connection points: 4
#     Node 6, Type 0, BuildingBlock: ICAMEG_clean_sbu_1, # of connection points: 4
#     Node 7, Type 0, BuildingBlock: ICAMEG_clean_sbu_1, # of connection points: 4
#     Edge 8, Type (0, 0), BuildingBlock: XUDNAN_clean_linker_2, # of connection points: 2
#     Edge 9, Type (0, 0), BuildingBlock: XUDNAN_clean_linker_2, # of connection points: 2
#     Edge 10, Type (0, 0), BuildingBlock: XUDNAN_clean_linker_2, # of connection points: 2
#     Edge 11, Type (0, 0), BuildingBlock: XUDNAN_clean_linker_2, # of connection points: 2
#     Edge 12, Type (0, 0), BuildingBlock: XUDNAN_clean_linker_2, # of connection points: 2
#     Edge 13, Type (0, 0), BuildingBlock: XUDNAN_clean_linker_2, # of connection points: 2
#     Edge 14, Type (0, 0), BuildingBlock: XUDNAN_clean_linker_2, # of connection points: 2
#     Edge 15, Type (0, 0), BuildingBlock: XUDNAN_clean_linker_2, # of connection points: 2
#     Edge 16, Type (0, 0), BuildingBlock: XUDNAN_clean_linker_2, # of connection points: 2
#     Edge 17, Type (0, 0), BuildingBlock: XUDNAN_clean_linker_2, # of connection points: 2
#     Edge 18, Type (0, 0), BuildingBlock: XUDNAN_clean_linker_2, # of connection points: 2
#     Edge 19, Type (0, 0), BuildingBlock: XUDNAN_clean_linker_2, # of connection points: 2
#     Edge 20, Type (0, 0), BuildingBlock: XUDNAN_clean_linker_2, # of connection points: 2
#     Edge 21, Type (0, 0), BuildingBlock: XUDNAN_clean_linker_2, # of connection points: 2
#     Edge 22, Type (0, 0), BuildingBlock: XUDNAN_clean_linker_2, # of connection points: 2
#     Edge 23, Type (0, 0), BuildingBlock: XUDNAN_clean_linker_2, # of connection points: 2
# Relax obj value: 0.162
# Max RMSD: 0.208
# Mean RMSD: 0.208
data_MOF--net-hjm--node1-ICAMEG_clean_sbu_1--edge1-XUDNAN_clean_linker_2
_symmetry_space_group_name_H-M    P1
_symmetry_Int_Tables_number       1
_symmetry_cell_setting            triclinic
loop_
_symmetry_equiv_pos_as_xyz
'x, y, z'
_cell_length_a     25.224957
_cell_length_b     25.872984
_cell_length_c     24.744961
_cell_angle_alpha  90.382848
_cell_angle_beta   68.968917
_cell_angle_gamma 90.142712
loop_
_atom_site_label
_atom_site_type_symbol
_atom_site_fract_x
_atom_site_fract_y
_atom_site_fract_z
_atom_type_partial_charge
Co0 Co 0.20686 0.33309 0.31293 0.0
Co1 Co 0.18341 0.20248 0.31241 0.0
O2 O 0.16166 0.27155 0.34903 0.0
C3 C 0.14648 0.36663 0.43824 0.0
O4 O 0.11657 0.32402 0.45278 0.0
C5 C 0.05931 0.19212 0.38866 0.0
O6 O 0.05583 0.24085 0.40435 0.0
O7 O 0.17458 0.23057 0.2399 0.0
O8 O 0.22587 0.30229 0.23358 0.0
H9 H 0.27747 0.08991 0.13882 0.0
H10 H 0.07977 0.33304 0.3782 0.0
O11 O 0.18877 0.36907 0.39051 0.0
H12 H 0.10915 0.44689 0.21203 0.0
H13 H 0.26861 0.51964 0.30011 0.0
H14 H 0.31787 0.34497 0.21701 0.0
H15 H 0.18975 0.40185 0.22344 0.0
H16 H 0.20006 0.44819 0.33315 0.0
O17 O 0.10119 0.17689 0.34433 0.0
H18 H 0.26298 0.16974 0.19709 0.0
H19 H 0.14589 0.09221 0.34174 0.0
H20 H 0.38524 0.41622 0.17885 0.0
H21 H -0.00149 0.37828 0.36943 0.0
H22 H 0.36142 0.50433 0.2214 0.0
H23 H 0.01271 0.43681 0.28645 0.0
O24 O 0.27438 0.29945 0.32105 0.0
H25 H 0.14509 0.19204 0.52759 0.0
H26 H 0.25964 0.12341 0.33515 0.0
H27 H 0.27419 0.08954 0.42097 0.0
H28 H 0.21658 0.1236 0.51844 0.0
H29 H 0.13235 0.22533 0.44093 0.0
H30 H 0.15731 0.01223 0.28419 0.0
H31 H 0.22347 0.01063 0.18203 0.0
O32 O 0.26728 0.22184 0.28318 0.0
C33 C 0.20234 0.26913 0.211 0.0
C34 C 0.24875 0.09 0.18346 0.0
C35 C 0.181 0.04655 0.2649 0.0
N36 N 0.20309 0.13607 0.27271 0.0
C37 C 0.24061 0.13507 0.21684 0.0
C38 C 0.17437 0.09214 0.29716 0.0
C39 C 0.2183 0.04562 0.20761 0.0
C40 C 0.0873 0.35864 0.34256 0.0
N41 N 0.14089 0.36614 0.30324 0.0
C42 C 0.04054 0.38396 0.33738 0.0
C43 C 0.04844 0.41651 0.29066 0.0
C44 C 0.10252 0.42232 0.24913 0.0
C45 C 0.14826 0.3965 0.25596 0.0
C46 C 0.27949 0.48148 0.28123 0.0
C47 C 0.30617 0.38335 0.23458 0.0
C48 C 0.24112 0.44065 0.30043 0.0
N49 N 0.25519 0.39195 0.27818 0.0
C50 C 0.3449 0.42357 0.21311 0.0
C51 C 0.33161 0.47285 0.23709 0.0
C52 C 0.29591 0.25632 0.29857 0.0
C53 C 0.17013 0.17649 0.48542 0.0
C54 C 0.23385 0.13853 0.37699 0.0
C55 C 0.24253 0.11911 0.42569 0.0
C56 C 0.21027 0.13819 0.4803 0.0
N57 N 0.1937 0.17564 0.38204 0.0
C58 C 0.16275 0.19505 0.43568 0.0
Co59 Co 0.80692 0.3124 0.18861 0.0
Co60 Co 0.8154 0.18417 0.21702 0.0
O61 O 0.84419 0.24435 0.16573 0.0
C62 C 0.86579 0.31662 0.05944 0.0
O63 O 0.87774 0.26712 0.05464 0.0
C64 C 0.93858 0.15825 0.14335 0.0
O65 O 0.94765 0.20585 0.12453 0.0
O66 O 0.83285 0.22341 0.27966 0.0
O67 O 0.788 0.29635 0.2729 0.0
H68 H 0.71295 0.10736 0.41237 0.0
H69 H 0.93134 0.29857 0.11936 0.0
O70 O 0.82664 0.33359 0.10484 0.0
H71 H 0.92261 0.4363 0.25996 0.0
H72 H 0.76849 0.5013 0.16726 0.0
H73 H 0.69926 0.34324 0.28076 0.0
H74 H 0.83565 0.39246 0.26184 0.0
H75 H 0.82649 0.42187 0.14521 0.0
O76 O 0.89326 0.14788 0.18637 0.0
H77 H 0.73729 0.17573 0.33878 0.0
H78 H 0.83596 0.06935 0.21091 0.0
H79 H 0.64181 0.42228 0.30614 0.0
H80 H 0.01927 0.34124 0.11573 0.0
H81 H 0.6759 0.50216 0.24889 0.0
H82 H 0.01548 0.41165 0.18545 0.0
O83 O 0.73473 0.28033 0.18978 0.0
H84 H 0.84289 0.1327 1.0115 0.0
H85 H 0.72005 0.11588 0.21629 0.0
H86 H 0.69123 0.07487 0.14129 0.0
H87 H 0.75307 0.08272 0.03782 0.0
H88 H 0.86892 0.17435 0.08768 0.0
H89 H 0.8157 1.00073 0.28412 0.0
H90 H 0.75392 0.01956 0.38561 0.0
O91 O 0.73515 0.21329 0.24614 0.0
C92 C 0.81007 0.26705 0.30055 0.0
C93 C 0.73997 0.09867 0.36822 0.0
C94 C 0.79786 0.03895 0.2963 0.0
N95 N 0.78854 0.12688 0.27051 0.0
C96 C 0.75354 0.13717 0.32614 0.0
C97 C 0.80952 0.07812 0.25508 0.0
C98 C 0.76291 0.04943 0.35321 0.0
C99 C 0.92872 0.32892 0.14982 0.0
N100 N 0.8774 0.34401 0.189 0.0
C101 C 0.97902 0.35296 0.14777 0.0
C102 C 0.9769 0.39229 0.18707 0.0
C103 C 0.92487 0.40619 0.22863 0.0
C104 C 0.87551 0.38116 0.22933 0.0
C105 C 0.75323 0.46675 0.19246 0.0
C106 C 0.71523 0.37791 0.25619 0.0
C107 C 0.78564 0.42152 0.1798 0.0
N108 N 0.76621 0.37757 0.21109 0.0
C109 C 0.68217 0.42262 0.27064 0.0
C110 C 0.70123 0.46725 0.23832 0.0
C111 C 0.70901 0.24399 0.22368 0.0
C112 C 0.81557 0.12887 0.05642 0.0
C113 C 0.74692 0.1202 0.17159 0.0
C114 C 0.73044 0.09662 0.12915 0.0
C115 C 0.76517 0.10094 0.07118 0.0
N116 N 0.79626 0.1479 0.15698 0.0
C117 C 0.83033 0.15231 0.10006 0.0
Co118 Co 0.82819 0.70299 0.70924 0.0
Co119 Co 0.78327 0.82363 0.69374 0.0
O120 O 0.84128 0.76904 0.66605 0.0
C121 C 0.90781 0.67298 0.5869 0.0
O122 O 0.91234 0.72046 0.56743 0.0
C123 C 0.8916 0.88511 0.62739 0.0
O124 O 0.92157 0.84341 0.60629 0.0
O125 O 0.7947 0.82263 0.77034 0.0
O126 O 0.78155 0.73786 0.78431 0.0
H127 H 0.60603 0.89834 0.8404 0.0
H128 H 0.94639 0.74307 0.64524 0.0
O129 O 0.87431 0.66239 0.63793 0.0
H130 H 0.93243 0.72022 0.84681 0.0
H131 H 0.87838 0.52247 0.74688 0.0
H132 H 0.72736 0.65425 0.79599 0.0
H133 H 0.85409 0.69333 0.81657 0.0
H134 H 0.89983 0.61106 0.70951 0.0
O135 O 0.84137 0.88168 0.66524 0.0
H136 H 0.68203 0.83403 0.80107 0.0
H137 H 0.76063 0.92748 0.6531 0.0
H138 H 0.70465 0.56658 0.8344 0.0
H139 H 0.02828 0.7649 0.67224 0.0
H140 H 0.77893 0.49929 0.80736 0.0
H141 H 0.02166 0.75425 0.77415 0.0
O142 O 0.75767 0.69188 0.69158 0.0
H143 H 0.84162 0.80318 0.47617 0.0
H144 H 0.68175 0.8345 0.65858 0.0
H145 H 0.6643 0.83112 0.56736 0.0
H146 H 0.74462 0.8159 0.47486 0.0
H147 H 0.857 0.80596 0.5682 0.0
H148 H 0.68635 0.99309 0.69197 0.0
H149 H 0.60815 0.97924 0.78596 0.0
O150 O 0.72157 0.77026 0.72134 0.0
C151 C 0.78404 0.78318 0.80348 0.0
C152 C 0.64008 0.90532 0.79957 0.0
C153 C 0.6852 0.95858 0.7163 0.0
N154 N 0.72576 0.87671 0.72461 0.0
C155 C 0.68318 0.86885 0.77683 0.0
C156 C 0.72747 0.92125 0.69468 0.0
C157 C 0.64122 0.95055 0.76901 0.0
C158 C 0.94381 0.7356 0.68872 0.0
N159 N 0.89559 0.71538 0.72856 0.0
C160 C 0.99025 0.74896 0.70412 0.0
C161 C 0.9865 0.7431 0.76126 0.0
C162 C 0.93684 0.72348 0.80191 0.0
C163 C 0.89224 0.70865 0.78447 0.0
C164 C 0.84514 0.55133 0.75839 0.0
C165 C 0.76086 0.62582 0.78579 0.0
C166 C 0.85699 0.60159 0.73734 0.0
N167 N 0.81464 0.63766 0.74977 0.0
C168 C 0.74758 0.57608 0.80762 0.0
C169 C 0.78968 0.53841 0.79279 0.0
C170 C 0.71568 0.7231 0.70894 0.0
C171 C 0.80642 0.81093 0.51604 0.0
C172 C 0.71735 0.82845 0.61896 0.0
C173 C 0.70701 0.82641 0.56715 0.0
C174 C 0.75201 0.81788 0.51531 0.0
N175 N 0.77116 0.82294 0.61958 0.0
C176 C 0.81509 0.81323 0.56874 0.0
Co177 Co 0.19002 0.65478 0.8424 0.0
Co178 Co 0.21703 0.78428 0.84378 0.0
O179 O 0.16729 0.72408 0.87826 0.0
C180 C 0.11421 0.61925 0.96228 0.0
O181 O 0.08703 0.66294 0.97981 0.0
C182 C 0.10419 0.83943 0.91629 0.0
O183 O 0.07848 0.79737 0.94212 0.0
O184 O 0.20329 0.77196 0.76856 0.0
O185 O 0.22011 0.68661 0.76354 0.0
H186 H 0.38636 0.86369 0.69358 0.0
H187 H 0.06986 0.69627 0.90087 0.0
O188 O 0.1611 0.61804 0.91935 0.0
H189 H 0.06118 0.58308 0.74423 0.0
H190 H 0.18217 0.46068 0.82722 0.0
H191 H 0.29405 0.61731 0.74887 0.0
H192 H 0.15288 0.60457 0.75205 0.0
H193 H 0.14216 0.54688 0.85983 0.0
O194 O 0.15158 0.83649 0.87326 0.0
H195 H 0.31013 0.79981 0.731 0.0
H196 H 0.2295 0.89387 0.87925 0.0
H197 H 0.33409 0.53202 0.71204 0.0
H198 H 0.97728 0.67163 0.89838 0.0
H199 H 0.27827 0.45259 0.75167 0.0
H200 H 0.97194 0.61429 0.81944 0.0
O201 O 0.2647 0.66171 0.85223 0.0
H202 H 0.16721 0.79038 0.06067 0.0
H203 H 0.32038 0.81179 0.87179 0.0
H204 H 0.33897 0.83164 0.96042 0.0
H205 H 0.26153 0.82249 0.05622 0.0
H206 H 0.15152 0.76856 0.97166 0.0
H207 H 0.30522 0.95897 0.84316 0.0
H208 H 0.38606 0.94283 0.75114 0.0
O209 O 0.28631 0.73954 0.81398 0.0
C210 C 0.21435 0.72905 0.73999 0.0
C211 C 0.35195 0.87092 0.73412 0.0
C212 C 0.30635 0.92425 0.81811 0.0
N213 N 0.26612 0.84225 0.80813 0.0
C214 C 0.30832 0.83492 0.75548 0.0
C215 C 0.263 0.88763 0.83781 0.0
C216 C 0.35171 0.91517 0.7665 0.0
C217 C 0.06853 0.66861 0.86891 0.0
N218 N 0.11709 0.64649 0.83151 0.0
C219 C 0.01561 0.65614 0.86639 0.0
C220 C 0.01266 0.62414 0.82211 0.0
C221 C 0.06264 0.60647 0.78011 0.0
C222 C 0.11467 0.61865 0.78512 0.0
C223 C 0.20663 0.49485 0.80901 0.0
C224 C 0.26878 0.58321 0.76536 0.0
C225 C 0.18457 0.54384 0.82819 0.0
N226 N 0.21599 0.58733 0.80731 0.0
C227 C 0.29186 0.53486 0.74445 0.0
C228 C 0.26064 0.49039 0.76681 0.0
C229 C 0.3009 0.69666 0.82905 0.0
C230 C 0.2009 0.79596 0.01941 0.0
C231 C 0.28613 0.8078 0.91287 0.0
C232 C 0.29711 0.81915 0.96315 0.0
C233 C 0.25376 0.81397 0.01681 0.0
N234 N 0.23287 0.79367 0.91543 0.0
C235 C 0.19166 0.78488 0.96823 0.0
Co236 Co 0.68697 0.82641 0.31947 0.0
Co237 Co 0.70139 0.6954 0.32931 0.0
O238 O 0.66002 0.76084 0.36008 0.0
C239 C 0.63296 0.86458 0.4455 0.0
O240 O 0.61271 0.81948 0.46749 0.0
C241 C 0.57727 0.66349 0.38398 0.0
O242 O 0.56047 0.71065 0.37935 0.0
O243 O 0.68943 0.70434 0.25309 0.0
O244 O 0.70856 0.78928 0.24347 0.0
H245 H 0.84991 0.58583 0.18379 0.0
H246 H 0.56577 0.81021 0.40043 0.0
O247 O 0.66649 0.86843 0.39299 0.0
H248 H 0.56475 0.92307 0.24215 0.0
H249 H 0.67921 0.01571 0.27341 0.0
H250 H 0.78581 0.85286 0.21484 0.0
H251 H 0.64391 0.86399 0.22895 0.0
H252 H 0.65022 0.93847 0.33444 0.0
O253 O 0.62999 0.65237 0.36356 0.0
H254 H 0.79067 0.66339 0.21816 0.0
H255 H 0.69972 0.5894 0.37745 0.0
H256 H 0.81271 0.92769 0.15031 0.0
H257 H 0.48448 0.868 0.41621 0.0
H258 H 0.7602 0.00996 0.17949 0.0
H259 H 0.48913 0.9317 0.34059 0.0
O260 O 0.76351 0.81533 0.32263 0.0
H261 H 0.64684 0.70192 0.54597 0.0
H262 H 0.80352 0.67286 0.35978 0.0
H263 H 0.82252 0.66896 0.45066 0.0
H264 H 0.74383 0.68342 0.54467 0.0
H265 H 0.62978 0.70609 0.45414 0.0
H266 H 0.75715 0.51057 0.34406 0.0
H267 H 0.83422 0.50906 0.24736 0.0
O268 O 0.77501 0.73282 0.29469 0.0
C269 C 0.7037 0.74532 0.22208 0.0
C270 C 0.81689 0.58621 0.22624 0.0
C271 C 0.76484 0.54401 0.31621 0.0
N272 N 0.7422 0.63137 0.30009 0.0
C273 C 0.78313 0.63007 0.24598 0.0
C274 C 0.73206 0.58863 0.33463 0.0
C275 C 0.80808 0.54318 0.26196 0.0
C276 C 0.56558 0.83489 0.36585 0.0
N277 N 0.61231 0.83887 0.31647 0.0
C278 C 0.51923 0.86732 0.37487 0.0
C279 C 0.52067 0.90173 0.3315 0.0
C280 C 0.56359 0.89773 0.27709 0.0
C281 C 0.60839 0.8638 0.26965 0.0
C282 C 0.70266 0.97996 0.26018 0.0
C283 C 0.76191 0.88819 0.22776 0.0
C284 C 0.68722 0.93626 0.29522 0.0
N285 N 0.71542 0.89041 0.2777 0.0
C286 C 0.77799 0.93079 0.19132 0.0
C287 C 0.74794 0.97681 0.20752 0.0
C288 C 0.79486 0.77664 0.30116 0.0
C289 C 0.68138 0.69509 0.5053 0.0
C290 C 0.76892 0.67903 0.40045 0.0
C291 C 0.77998 0.67672 0.45182 0.0
C292 C 0.73582 0.68477 0.50455 0.0
N293 N 0.71531 0.68891 0.40147 0.0
C294 C 0.6719 0.69712 0.45307 0.0
Co295 Co 0.29838 0.84122 0.23565 0.0
Co296 Co 0.29989 0.71084 0.19643 0.0
O297 O 0.3348 0.78136 0.18417 0.0
C298 C 0.34716 0.89009 0.11468 0.0
O299 O 0.36377 0.84567 0.08824 0.0
C300 C 0.42663 0.68768 0.14704 0.0
O301 O 0.44042 0.73682 0.14474 0.0
O302 O 0.29423 0.71257 0.27979 0.0
O303 O 0.27797 0.79594 0.30552 0.0
H304 H 0.14607 0.58495 0.30149 0.0
H305 H 0.42058 0.84655 0.15626 0.0
O306 O 0.31843 0.89158 0.16898 0.0
H307 H 0.39989 0.93347 0.34008 0.0
H308 H 0.28108 0.02398 0.3141 0.0
H309 H 0.19264 0.8514 0.33848 0.0
H310 H 0.33162 0.86804 0.33613 0.0
H311 H 0.3241 0.95439 0.24403 0.0
O312 O 0.3754 0.67375 0.17354 0.0
H313 H 0.19806 0.66761 0.2871 0.0
H314 H 0.32574 0.60724 0.13624 0.0
H315 H 0.15022 0.91891 0.41133 0.0
H316 H 0.49324 0.90943 0.15852 0.0
H317 H 0.19386 1.00639 0.39927 0.0
H318 H 0.47842 0.95888 0.24923 0.0
O319 O 0.22503 0.82771 0.2263 0.0
H320 H 0.39592 0.73556 0.98032 0.0
H321 H 0.22412 0.67264 0.13514 0.0
H322 H 0.23216 0.66329 0.03361 0.0
H323 H 0.31929 0.69346 0.95506 0.0
H324 H 0.3854 0.7457 0.08213 0.0
H325 H 0.27513 0.52412 0.14919 0.0
H326 H 0.18371 0.51313 0.23119 0.0
O327 O 0.22272 0.7417 0.21679 0.0
C328 C 0.28153 0.74873 0.31798 0.0
C329 C 0.18543 0.58962 0.26505 0.0
C330 C 0.25794 0.55543 0.17965 0.0
N331 N 0.26444 0.64277 0.21034 0.0
C332 C 0.21519 0.63627 0.25678 0.0
C333 C 0.28684 0.60245 0.17305 0.0
C334 C 0.20655 0.54932 0.22559 0.0
C335 C 0.41695 0.86451 0.19683 0.0
N336 N 0.36961 0.85721 0.245 0.0
C337 C 0.45792 0.90044 0.19775 0.0
C338 C 0.45022 0.92746 0.24888 0.0
C339 C 0.40634 0.91338 0.29974 0.0
C340 C 0.36793 0.87561 0.2974 0.0
C341 C 0.26125 0.98626 0.31966 0.0
C342 C 0.21224 0.88916 0.33275 0.0
C343 C 0.28479 0.94691 0.2793 0.0
N344 N 0.26116 0.89858 0.28686 0.0
C345 C 0.18767 0.92747 0.37408 0.0
C346 C 0.21243 0.97633 0.36749 0.0
C347 C 0.19974 0.78613 0.22298 0.0
C348 C 0.35818 0.72133 0.01411 0.0
C349 C 0.26187 0.68683 0.1016 0.0
C350 C 0.26631 0.68096 0.04396 0.0
C351 C 0.31519 0.69779 0.99993 0.0
N352 N 0.30499 0.7084 0.11546 0.0
C353 C 0.35206 0.72672 0.07228 0.0
Co354 Co 0.29305 0.1885 0.70117 0.0
Co355 Co 0.25713 0.31132 0.68113 0.0
O356 O 0.3133 0.2543 0.65831 0.0
C357 C 0.36978 0.15711 0.5793 0.0
O358 O 0.37416 0.20494 0.56091 0.0
C359 C 0.37132 0.36785 0.62068 0.0
O360 O 0.40186 0.32537 0.60874 0.0
O361 O 0.26598 0.31236 0.75813 0.0
O362 O 0.25183 0.2275 0.77616 0.0
H363 H 0.08376 0.40144 0.81775 0.0
H364 H 0.41534 0.21734 0.63839 0.0
O365 O 0.33556 0.1459 0.62988 0.0
H366 H 0.40362 0.16032 0.83177 0.0
H367 H 0.31362 1.00062 0.73506 0.0
H368 H 0.18689 0.15139 0.79006 0.0
H369 H 0.31702 0.16849 0.80846 0.0
H370 H 0.34947 0.08639 0.69943 0.0
O371 O 0.31813 0.36607 0.6504 0.0
H372 H 0.15661 0.33316 0.7871 0.0
H373 H 0.23992 0.41074 0.62825 0.0
H374 H 0.15012 0.06655 0.82885 0.0
H375 H 0.503 0.20682 0.65874 0.0
H376 H 0.2135 0.98955 0.80189 0.0
H377 H 0.49768 0.17713 0.75582 0.0
O378 O 0.22334 0.18401 0.68112 0.0
H379 H 0.32497 0.29126 0.46379 0.0
H380 H 0.15754 0.31191 0.64275 0.0
H381 H 0.14434 0.30284 0.54942 0.0
H382 H 0.22853 0.29235 0.45884 0.0
H383 H 0.33618 0.29974 0.55799 0.0
H384 H 0.16934 0.48101 0.65836 0.0
H385 H 0.08998 0.47622 0.7533 0.0
O386 O 0.19163 0.26231 0.71271 0.0
C387 C 0.25548 0.27395 0.79295 0.0
C388 C 0.11794 0.40382 0.7761 0.0
C389 C 0.16608 0.44855 0.68675 0.0
N390 N 0.20237 0.36758 0.70569 0.0
C391 C 0.15937 0.36521 0.75846 0.0
C392 C 0.20626 0.40884 0.67018 0.0
C393 C 0.12147 0.44578 0.73995 0.0
C394 C 0.41237 0.20378 0.68035 0.0
N395 N 0.36102 0.19121 0.72108 0.0
C396 C 0.46232 0.19839 0.69191 0.0
C397 C 0.45932 0.18185 0.74638 0.0
C398 C 0.40657 0.17234 0.78897 0.0
C399 C 0.35761 0.17737 0.77552 0.0
C400 C 0.2859 0.03347 0.74911 0.0
C401 C 0.21537 0.11868 0.77934 0.0
C402 C 0.30584 0.08235 0.72827 0.0
N403 N 0.27021 0.12399 0.74222 0.0
C404 C 0.1942 0.07045 0.80157 0.0
C405 C 0.22968 0.02743 0.78605 0.0
C406 C 0.18295 0.21619 0.69997 0.0
C407 C 0.28802 0.29623 0.50286 0.0
C408 C 0.19454 0.30786 0.60369 0.0
C409 C 0.18672 0.30271 0.55082 0.0
C410 C 0.23387 0.29684 0.5001 0.0
N411 N 0.24789 0.30748 0.60619 0.0
C412 C 0.29419 0.30148 0.55653 0.0
Co413 Co 0.66394 0.21808 0.7946 0.0
Co414 Co 0.7156 0.32638 0.84128 0.0
O415 O 0.65413 0.27685 0.84894 0.0
C416 C 0.6061 0.16892 0.90991 0.0
O417 O 0.63724 0.19721 0.93123 0.0
C418 C 0.60795 0.39335 0.8907 0.0
O419 O 0.57362 0.35402 0.89564 0.0
O420 O 0.72557 0.3394 0.75708 0.0
O421 O 0.71633 0.25844 0.72947 0.0
H422 H 0.91371 0.3952 0.74577 0.0
H423 H 0.54736 0.25111 0.8667 0.0
O424 O 0.61129 0.17322 0.85711 0.0
H425 H 0.5665 0.28938 0.66564 0.0
H426 H 0.59207 0.07926 0.6952 0.0
H427 H 0.7618 0.16933 0.70242 0.0
H428 H 0.64279 0.24397 0.68621 0.0
H429 H 0.58372 0.14403 0.77142 0.0
O430 O 0.66181 0.38774 0.86702 0.0
H431 H 0.83082 0.34101 0.75318 0.0
H432 H 0.73383 0.41475 0.91173 0.0
H433 H 0.7725 0.10305 0.62729 0.0
H434 H 0.46907 0.2949 0.84784 0.0
H435 H 0.68679 0.06008 0.62095 0.0
H436 H 0.47899 0.31553 0.74678 0.0
O437 O 0.7319 0.19224 0.81072 0.0
H438 H 0.60531 0.29133 0.05332 0.0
H439 H 0.79562 0.31227 0.90492 0.0
H440 H 0.78642 0.29235 1.00458 0.0
H441 H 0.69062 0.2827 0.08032 0.0
H442 H 0.61654 0.30847 0.95277 0.0
H443 H 0.81648 0.46803 0.9073 0.0
H444 H 0.90736 0.45812 0.82412 0.0
O445 O 0.77199 0.26874 0.81701 0.0
C446 C 0.73177 0.30498 0.71763 0.0
C447 C 0.87443 0.39961 0.78244 0.0
C448 C 0.8199 0.44044 0.87314 0.0
N449 N 0.77763 0.37426 0.83308 0.0
C450 C 0.82721 0.36928 0.78666 0.0
C451 C 0.77307 0.41047 0.8751 0.0
C452 C 0.87088 0.43486 0.82644 0.0
C453 C 0.55134 0.2586 0.82251 0.0
N454 N 0.59977 0.24514 0.77773 0.0
C455 C 0.50712 0.28395 0.81213 0.0
C456 C 0.5128 0.29569 0.75545 0.0
C457 C 0.56186 0.28097 0.7099 0.0
C458 C 0.60493 0.25521 0.72186 0.0
C459 C 0.62959 0.09868 0.69666 0.0
C460 C 0.7246 0.14919 0.70153 0.0
C461 C 0.62516 0.13523 0.73985 0.0
N462 N 0.67213 0.16114 0.74076 0.0
C463 C 0.73083 0.11209 0.65848 0.0
C464 C 0.68274 0.08791 0.65507 0.0
C465 C 0.77409 0.21956 0.81152 0.0
C466 C 0.64733 0.29616 0.02098 0.0
C467 C 0.7538 0.30724 0.93681 0.0
C468 C 0.74883 0.29646 0.99366 0.0
C469 C 0.69514 0.29108 0.03607 0.0
N470 N 0.70678 0.31282 0.92204 0.0
C471 C 0.65402 0.30678 0.96358 0.0
H472 H 0.04592 0.08668 0.37226 0.0
H473 H 0.99277 0.20842 0.50211 0.0
H474 H 0.94296 0.14425 0.57601 0.0
H475 H 0.91579 1.00788 0.43283 0.0
H476 H 0.95323 0.94723 0.41693 0.0
H477 H 0.98107 1.00246 0.37126 0.0
H478 H 0.07632 0.99493 0.38724 0.0
H479 H 0.04959 0.93889 0.43147 0.0
H480 H 0.07649 0.99319 0.46002 0.0
H481 H 0.89859 0.066 0.63713 0.0
H482 H 0.86935 0.97988 0.68094 0.0
H483 H 0.95787 0.90749 0.51435 0.0
C484 C 0.02349 0.09999 0.41607 0.0
C485 C 0.02333 0.15315 0.43075 0.0
C486 C 0.99313 0.16838 0.48896 0.0
C487 C 0.96476 0.13202 0.53162 0.0
C488 C 0.96669 0.08004 0.51595 0.0
C489 C 0.99519 0.06398 0.45954 0.0
C490 C 0.99257 1.00544 0.45486 0.0
C491 C 0.95867 0.98986 0.41665 0.0
C492 C 0.05233 0.98175 0.43206 0.0
C493 C 0.96054 0.99097 0.5177 0.0
C494 C 0.94453 0.03475 0.55195 0.0
C495 C 0.91189 0.03147 0.61088 0.0
C496 C 0.89548 0.98234 0.63546 0.0
C497 C 0.91256 0.93673 0.60164 0.0
C498 C 0.94563 0.94143 0.54187 0.0
H499 H 0.02645 0.86459 0.02648 0.0
H500 H 0.13495 0.93379 0.86528 0.0
H501 H 0.10836 0.02037 0.9088 0.0
H502 H 0.91321 0.96028 0.06442 0.0
H503 H 0.90218 0.96072 0.14061 0.0
H504 H 0.92823 0.90317 0.09791 0.0
H505 H 0.01362 0.9029 0.13187 0.0
H506 H 0.98804 0.96108 0.17353 0.0
H507 H 0.05878 0.95906 0.11993 0.0
H508 H 0.07041 0.10019 0.96682 0.0
H509 H 0.02029 0.16797 0.03606 0.0
H510 H 0.93542 0.05069 0.16242 0.0
C511 C 0.04392 0.89797 0.99983 0.0
C512 C 0.08266 0.89178 0.94173 0.0
C513 C 0.10521 0.93689 0.90938 0.0
C514 C 0.09041 0.98646 0.9337 0.0
C515 C 0.05291 0.99125 0.9907 0.0
C516 C 0.02973 0.94833 0.02358 0.0
C517 C 0.99101 0.96503 0.08428 0.0
C518 C 0.93002 0.9461 0.09746 0.0
C519 C 0.01429 0.94583 0.13009 0.0
C520 C 0.99458 0.0239 0.0795 0.0
C521 C 0.03135 0.03787 0.02519 0.0
C522 C 0.04169 0.0896 1.00955 0.0
C523 C 0.01302 0.12808 0.0497 0.0
C524 C 0.97371 0.11548 0.1055 0.0
C525 C 0.96508 0.06221 0.12053 0.0
H526 H 0.47669 0.38714 0.53484 0.0
H527 H 0.32012 0.46258 0.64118 0.0
H528 H 0.35437 0.5445 0.59106 0.0
H529 H 0.572 0.495 0.52607 0.0
H530 H 0.61483 0.483 0.45123 0.0
H531 H 0.57867 0.43029 0.49689 0.0
H532 H 0.53195 0.40714 0.42287 0.0
H533 H 0.56431 0.46171 0.3781 0.0
H534 H 0.48839 0.45422 0.40494 0.0
H535 H 0.40382 0.61848 0.52718 0.0
H536 H 0.46822 0.68027 0.45901 0.0
H537 H 0.59375 0.55866 0.39337 0.0
C538 C 0.44998 0.42105 0.54824 0.0
C539 C 0.39569 0.41807 0.59284 0.0
C540 C 0.36192 0.46347 0.60785 0.0
C541 C 0.38094 0.5104 0.57929 0.0
C542 C 0.43405 0.51185 0.5352 0.0
C543 C 0.46834 0.46852 0.51983 0.0
C544 C 0.52316 0.4807 0.46989 0.0
C545 C 0.57524 0.47173 0.48708 0.0
C546 C 0.52717 0.44898 0.41578 0.0
C547 C 0.51491 0.53782 0.46092 0.0
C548 C 0.46275 0.55474 0.49845 0.0
C549 C 0.44492 0.60568 0.49774 0.0
C550 C 0.48177 0.64053 0.45853 0.0
C551 C 0.53629 0.62468 0.42068 0.0
C552 C 0.55254 0.57228 0.42176 0.0
H553 H 0.41981 0.58085 0.14871 0.0
H554 H 0.51869 0.70856 0.04993 0.0
H555 H 0.57423 0.64758 0.97368 0.0
H556 H 0.53718 0.48526 0.10808 0.0
H557 H 0.49082 0.43302 0.10535 0.0
H558 H 0.46329 0.48698 0.15371 0.0
H559 H 0.38702 0.50104 0.10645 0.0
H560 H 0.41601 0.44764 0.05783 0.0
H561 H 0.40993 0.51043 0.02939 0.0
H562 H 0.61713 0.57323 0.90685 0.0
H563 H 0.64801 0.48977 0.85472 0.0
H564 H 0.51856 0.40998 0.99386 0.0
C565 C 0.45401 0.59589 0.11163 0.0
C566 C 0.46566 0.64974 0.10614 0.0
C567 C 0.51016 0.66762 0.05631 0.0
C568 C 0.54159 0.63319 1.01236 0.0
C569 C 0.52839 0.58065 0.01868 0.0
C570 C 0.48599 0.56192 0.06728 0.0
C571 C 0.47945 0.50373 0.06248 0.0
C572 C 0.49349 0.47558 0.11024 0.0
C573 C 0.41955 0.4899 0.06413 0.0
C574 C 0.52415 0.49283 1.00315 0.0
C575 C 0.5521 0.53777 0.97897 0.0
C576 C 0.59606 0.53761 0.92521 0.0
C577 C 0.61305 0.49023 0.89593 0.0
C578 C 0.58542 0.44353 0.91974 0.0
C579 C 0.53982 0.44514 0.97388 0.0
H580 H 0.85419 0.42072 0.04286 0.0
H581 H 0.97909 0.29753 1.00273 0.0
H582 H 0.05591 0.36212 0.9763 0.0
H583 H 0.94477 0.50924 0.92421 0.0
H584 H 0.91764 0.56583 0.96821 0.0
H585 H 0.87326 0.50954 0.97635 0.0
H586 H 0.85679 0.50949 0.08518 0.0
H587 H 0.90346 0.56372 0.07799 0.0
H588 H 0.91636 0.5042 0.10882 0.0
H589 H 0.11809 0.43971 0.97056 0.0
H590 H 0.16348 0.52546 0.96211 0.0
H591 H -0.0006 0.59913 1.00176 0.0
C592 C 0.89775 0.40736 0.02723 0.0
C593 C 0.91039 0.354 0.02633 0.0
C594 C 0.96804 0.33807 1.0041 0.0
C595 C 0.01213 0.37457 0.98956 0.0
C596 C -0.00199 0.42688 0.99563 0.0
C597 C 0.94238 0.44335 1.01159 0.0
C598 C 0.93893 0.50195 0.01452 0.0
C599 C 0.91739 0.52288 0.96806 0.0
C600 C 0.90171 0.52091 0.0753 0.0
C601 C 0.00086 0.51571 1.00086 0.0
C602 C 0.03418 0.47176 0.99009 0.0
C603 C 0.0925 0.4744 0.97797 0.0
C604 C 0.1178 0.52328 0.97397 0.0
C605 C 0.08507 0.56905 0.98138 0.0
C606 C 0.02553 0.56497 0.9966 0.0
H607 H 0.03698 0.38732 0.51247 0.0
H608 H 0.2017 0.45926 0.42948 0.0
H609 H 0.15778 0.5453 0.45551 0.0
H610 H 0.95542 0.47524 0.47195 0.0
H611 H 0.89587 0.47667 0.53954 0.0
H612 H 0.94005 0.42001 0.51914 0.0
H613 H 0.96012 0.42471 0.61467 0.0
H614 H 0.91452 0.48046 0.63621 0.0
H615 H 0.98654 0.48401 0.63426 0.0
H616 H 0.09389 0.62365 0.47859 0.0
H617 H 0.01791 0.6891 0.51579 0.0
H618 H 0.89582 0.56728 0.59162 0.0
C619 C 0.06419 0.42103 0.50138 0.0
C620 C 0.12279 0.41636 0.46771 0.0
C621 C 0.15658 0.46171 0.45403 0.0
C622 C 0.13199 0.51087 0.46865 0.0
C623 C 0.07362 0.51423 0.49862 0.0
C624 C 0.04042 0.47055 0.51675 0.0
C625 C 0.97865 0.48512 0.54877 0.0
C626 C 0.94026 0.46294 0.51799 0.0
C627 C 0.95881 0.46754 0.61224 0.0
C628 C 0.98222 0.54366 0.54436 0.0
C629 C 0.03729 0.5596 0.51467 0.0
C630 C 0.05074 0.61167 0.5027 0.0
C631 C 0.00715 0.64856 0.52335 0.0
C632 C 0.95089 0.63338 0.55638 0.0
C633 C 0.93841 0.58008 0.5664 0.0
H634 H 0.5822 0.06949 0.88679 0.0
H635 H 0.53078 0.18986 0.01808 0.0
H636 H 0.45301 0.13386 0.07957 0.0
H637 H 0.44315 0.01607 0.90651 0.0
H638 H 0.46754 0.95002 0.89784 0.0
H639 H 0.51563 1.00135 0.86243 0.0
H640 H 0.58545 0.97165 0.91257 0.0
H641 H 0.53706 0.92007 0.94661 0.0
H642 H 0.55934 0.96508 0.99015 0.0
H643 H 0.37945 0.06663 0.12464 0.0
H644 H 0.32423 0.98769 0.15963 0.0
H645 H 0.42986 0.90519 1.00546 0.0
C646 C 0.5543 0.08394 0.92847 0.0
C647 C 0.5619 0.13412 0.94773 0.0
C648 C 0.52552 0.15156 1.00277 0.0
C649 C 0.48105 0.12018 0.03766 0.0
C650 C 0.47437 0.07103 0.01735 0.0
C651 C 0.51074 0.05242 0.9647 0.0
C652 C 0.49722 0.99639 0.95574 0.0
C653 C 0.47986 0.99062 0.90246 0.0
C654 C 0.54776 0.96119 0.95098 0.0
C655 C 0.44719 0.98654 1.01137 0.0
C656 C 0.43423 0.0306 0.04553 0.0
C657 C 0.38957 0.03177 0.09854 0.0
C658 C 0.3585 0.98638 0.11822 0.0
C659 C 0.3731 0.93948 0.08628 0.0
C660 C 0.41736 0.94014 0.03121 0.0
H661 H 0.52246 0.87944 0.5212 0.0
H662 H 0.67898 0.96049 0.42826 0.0
H663 H 0.62774 0.0436 0.4491 0.0
H664 H 0.43222 0.95401 0.47533 0.0
H665 H 0.3732 0.95558 0.5433 0.0
H666 H 0.42222 0.90222 0.52646 0.0
H667 H 0.44485 0.9187 0.6199 0.0
H668 H 0.39219 0.96933 0.63826 0.0
H669 H 0.4633 0.98295 0.63534 0.0
H670 H 0.55791 0.11651 0.46902 0.0
H671 H 0.47731 0.17726 0.50414 0.0
H672 H 0.3659 0.05085 0.58961 0.0
C673 C 0.54634 0.91483 0.50728 0.0
C674 C 0.605 0.91345 0.47313 0.0
C675 C 0.63424 0.96069 0.45458 0.0
C676 C 0.60537 0.00805 0.46579 0.0
C677 C 0.54711 0.00791 0.49664 0.0
C678 C 0.5181 0.96282 0.5187 0.0
C679 C 0.45533 0.97381 0.55039 0.0
C680 C 0.41861 0.94467 0.52216 0.0
C681 C 0.43783 0.96045 0.61485 0.0
C682 C 0.45362 0.0318 0.54171 0.0
C683 C 0.50699 0.0505 0.50994 0.0
C684 C 0.51602 0.10244 0.49465 0.0
C685 C 0.46975 0.13662 0.51426 0.0
C686 C 0.41513 0.119 0.54957 0.0
C687 C 0.40706 0.0656 0.56262 0.0
H688 H 0.25867 0.81634 0.4115 0.0
H689 H 0.27982 0.65305 0.3666 0.0
H690 H 0.26396 0.63258 0.46847 0.0
H691 H 0.33034 0.81438 0.51462 0.0
H692 H 0.283 0.86013 0.56365 0.0
H693 H 0.29508 0.8626 0.48738 0.0
H694 H 0.18693 0.85503 0.5098 0.0
H695 H 0.17446 0.85259 0.58617 0.0
H696 H 0.1481 0.80168 0.55251 0.0
H697 H 0.2484 0.62922 0.57303 0.0
H698 H 0.23218 0.641 0.6752 0.0
H699 H 0.21924 0.80736 0.65819 0.0
C700 C 0.26007 0.77618 0.42286 0.0
C701 C 0.27091 0.73626 0.38019 0.0
C702 C 0.27195 0.68439 0.39773 0.0
C703 C 0.26293 0.67238 0.45571 0.0
C704 C 0.25289 0.71256 0.49617 0.0
C705 C 0.25132 0.76345 0.48076 0.0
C706 C 0.23994 0.79907 0.53329 0.0
C707 C 0.29006 0.83624 0.52418 0.0
C708 C 0.18403 0.82886 0.54619 0.0
C709 C 0.2352 0.7601 0.58081 0.0
C710 C 0.24305 0.71058 0.55775 0.0
C711 C 0.24183 0.66775 0.59155 0.0
C712 C 0.23232 0.67522 0.65028 0.0
C713 C 0.22361 0.72532 0.67633 0.0
C714 C 0.22514 0.76852 0.6405 0.0
H715 H 0.70022 0.74023 0.89686 0.0
H716 H 0.85355 0.83255 0.84981 0.0
H717 H 0.85284 0.82472 0.94982 0.0
H718 H 0.63473 0.79807 0.04204 0.0
H719 H 0.6014 0.73876 0.07492 0.0
H720 H 0.61413 0.75073 0.99952 0.0
H721 H 0.67158 0.66496 0.97023 0.0
H722 H 0.65673 0.65265 0.04589 0.0
H723 H 0.72907 0.65342 0.99549 0.0
H724 H 0.84038 0.80026 0.05151 0.0
H725 H 0.80641 0.77905 0.15491 0.0
H726 H 0.65412 0.7103 0.14275 0.0
C727 C 0.73291 0.75971 0.90814 0.0
C728 C 0.77676 0.78758 0.8657 0.0
C729 C 0.81906 0.81206 0.8818 0.0
C730 C 0.81936 0.8071 0.9383 0.0
C731 C 0.77636 0.77836 0.97868 0.0
C732 C 0.73288 0.75642 0.96497 0.0
C733 C 0.69013 0.73006 0.01771 0.0
C734 C 0.6316 0.75593 0.03453 0.0
C735 C 0.68664 0.67181 1.00669 0.0
C736 C 0.71664 0.74008 0.06324 0.0
C737 C 0.76708 0.76704 0.03896 0.0
C738 C 0.80053 0.77996 0.07104 0.0
C739 C 0.78085 0.7675 0.12992 0.0
C740 C 0.72741 0.74332 0.15744 0.0
C741 C 0.69541 0.72817 0.12311 0.0
H742 H 0.82872 0.21197 0.38894 0.0
H743 H 0.77449 0.36182 0.35011 0.0
H744 H 0.76061 0.39215 0.44824 0.0
H745 H 0.72407 0.20658 0.5302 0.0
H746 H 0.76912 0.17365 0.56109 0.0
H747 H 0.78098 0.1657 0.48548 0.0
H748 H 0.88509 0.19505 0.46115 0.0
H749 H 0.87258 0.20439 0.53702 0.0
H750 H 0.8996 0.25685 0.48704 0.0
H751 H 0.74611 0.40551 0.55529 0.0
H752 H 0.7255 0.39603 0.66089 0.0
H753 H 0.78758 0.2384 0.63025 0.0
C754 C 0.8151 0.25146 0.40061 0.0
C755 C 0.80427 0.28454 0.36043 0.0
C756 C 0.78465 0.33559 0.37882 0.0
C757 C 0.7764 0.35347 0.43498 0.0
C758 C 0.78725 0.32 0.47349 0.0
C759 C 0.80579 0.26993 0.45714 0.0
C760 C 0.80911 0.24028 0.50839 0.0
C761 C 0.76836 0.19382 0.52205 0.0
C762 C 0.87028 0.22315 0.49767 0.0
C763 C 0.7896 0.28124 0.55579 0.0
C764 C 0.77754 0.32726 0.53498 0.0
C765 C 0.75601 0.36968 0.57192 0.0
C766 C 0.74487 0.36426 0.63187 0.0
C767 C 0.75493 0.31665 0.65429 0.0
C768 C 0.77929 0.27546 0.61491 0.0
H769 H 0.18153 0.2016 0.13046 0.0
H770 H 0.24543 0.35478 0.14704 0.0
H771 H 0.25844 0.37329 0.04682 0.0
H772 H 0.2849 0.18048 0.98577 0.0
H773 H 0.23718 0.14498 0.95978 0.0
H774 H 0.22728 0.14391 0.0356 0.0
H775 H 0.12407 0.17594 0.06102 0.0
H776 H 0.13394 0.17779 0.98519 0.0
H777 H 0.11093 0.23492 0.02947 0.0
H778 H 0.26482 0.37777 0.94493 0.0
H779 H 0.27417 0.36333 0.8434 0.0
H780 H 0.21555 0.20532 0.88483 0.0
C781 C 0.19757 0.23919 0.11316 0.0
C782 C 0.21026 0.27726 0.14845 0.0
C783 C 0.23306 0.32531 0.1228 0.0
C784 C 0.24114 0.33636 0.06517 0.0
C785 C 0.22785 0.29866 0.03198 0.0
C786 C 0.20757 0.25064 0.05434 0.0
C787 C 0.20108 0.2162 1.00683 0.0
C788 C 0.23993 0.16857 0.99639 0.0
C789 C 0.13879 0.20029 0.02155 0.0
C790 C 0.22067 0.25259 0.95506 0.0
C791 C 0.23513 0.30016 0.97108 0.0
C792 C 0.25391 0.34054 0.93164 0.0
C793 C 0.25897 0.33199 0.87391 0.0
C794 C 0.24597 0.2832 0.8555 0.0
C795 C 0.22611 0.24311 0.89713 0.0
H796 H 0.38701 0.32472 0.26703 0.0
H797 H 0.34366 0.16371 0.30726 0.0
H798 H 0.44205 0.14525 0.29749 0.0
H799 H 0.52215 0.29477 0.15355 0.0
H800 H 0.55868 0.35025 0.16765 0.0
H801 H 0.48328 0.35307 0.18311 0.0
H802 H 0.46604 0.37906 0.28909 0.0
H803 H 0.54133 0.37651 0.27441 0.0
H804 H 0.49323 0.33875 0.33236 0.0
H805 H 0.5426 0.14573 0.29259 0.0
H806 H 0.64408 0.15972 0.27245 0.0
H807 H 0.63022 0.31569 0.21522 0.0
C808 C 0.3982 0.28561 0.27382 0.0
C809 C 0.35668 0.24577 0.28935 0.0
C810 C 0.37375 0.19502 0.29655 0.0
C811 C 0.42985 0.18414 0.29107 0.0
C812 C 0.46943 0.22411 0.27622 0.0
C813 C 0.45497 0.27354 0.26594 0.0
C814 C 0.5074 0.30807 0.24541 0.0
C815 C 0.51854 0.3277 0.18376 0.0
C816 C 0.50164 0.35327 0.28785 0.0
C817 C 0.55319 0.27025 0.2465 0.0
C818 C 0.52972 0.22252 0.26597 0.0
C819 C 0.56191 0.18237 0.27542 0.0
C820 C 0.61994 0.19063 0.26332 0.0
C821 C 0.64631 0.23792 0.23958 0.0
C822 C 0.61197 0.2785 0.23167 0.0
H823 H 0.62241 0.78253 0.72694 0.0
H824 H 0.67369 0.62233 0.72388 0.0
H825 H 0.57214 0.596 0.75645 0.0
H826 H 0.49918 0.77843 0.85008 0.0
H827 H 0.45992 0.82163 0.82152 0.0
H828 H 0.53606 0.82652 0.79754 0.0
H829 H 0.54379 0.81514 0.69068 0.0
H830 H 0.46759 0.81125 0.71436 0.0
H831 H 0.51073 0.76012 0.67062 0.0
H832 H 0.46069 0.58989 0.79617 0.0
H833 H 0.35645 0.60371 0.82749 0.0
H834 H 0.38587 0.76778 0.79492 0.0
C835 C 0.61307 0.74171 0.73175 0.0
C836 C 0.65646 0.70458 0.72237 0.0
C837 C 0.64134 0.65159 0.73041 0.0
C838 C 0.58372 0.63636 0.74918 0.0
C839 C 0.54206 0.67454 0.7587 0.0
C840 C 0.55666 0.72607 0.74915 0.0
C841 C 0.50532 0.7603 0.76119 0.0
C842 C 0.49983 0.79897 0.81051 0.0
C843 C 0.50696 0.78832 0.70592 0.0
C844 C 0.45889 0.72024 0.77966 0.0
C845 C 0.48021 0.67094 0.77881 0.0
C846 C 0.44391 0.62837 0.79634 0.0
C847 C 0.38473 0.63658 0.81431 0.0
C848 C 0.36264 0.68688 0.81385 0.0
C849 C 0.40074 0.72883 0.79625 0.0
H850 H 0.10642 0.83937 0.29611 0.0
H851 H 0.16412 0.73982 0.14473 0.0
H852 H 0.06827 0.73722 0.14191 0.0
H853 H 0.97816 0.77724 0.36615 0.0
H854 H 0.93617 0.83439 0.39386 0.0
H855 H 0.01128 0.83543 0.37936 0.0
H856 H 0.02128 0.91413 0.31317 0.0
H857 H 0.9463 0.91284 0.32498 0.0
H858 H -0.00206 0.90969 0.25257 0.0
H859 H 0.96788 0.73506 0.16106 0.0
H860 H 0.86394 0.73247 0.20247 0.0
H861 H 0.86494 0.83436 0.34224 0.0
C862 C 0.09867 0.81797 0.2619 0.0
C863 C 0.14244 0.78914 0.22078 0.0
C864 C 0.13101 0.76098 0.17719 0.0
C865 C 0.07677 0.75996 0.17477 0.0
C866 C 0.03413 0.78745 0.21649 0.0
C867 C 0.04397 0.81605 0.25934 0.0
C868 C 0.98873 0.83799 0.30166 0.0
C869 C 0.97797 0.82014 0.36392 0.0
C870 C 0.98855 0.89721 0.29791 0.0
C871 C 0.94645 0.81424 0.27775 0.0
C872 C 0.97423 0.78642 0.2277 0.0
C873 C 0.94542 0.75744 0.19957 0.0
C874 C 0.8864 0.75592 0.22369 0.0
C875 C 0.85669 0.7833 0.27534 0.0
C876 C 0.88689 0.81383 0.30215 0.0
H877 H 0.09047 0.25854 0.78164 0.0
H878 H 0.14014 0.13573 0.65326 0.0
H879 H 0.03831 0.11323 0.67699 0.0
H880 H 0.96911 0.19216 0.88741 0.0
H881 H 0.92873 0.25122 0.90686 0.0
H882 H 0.00507 0.25315 0.88321 0.0
H883 H 0.00881 0.31817 0.80233 0.0
H884 H 0.93266 0.31692 0.827 0.0
H885 H 0.97385 0.30197 0.75243 0.0
H886 H 0.92748 0.11149 0.71023 0.0
H887 H 0.82458 0.13307 0.74503 0.0
H888 H 0.85381 0.25476 0.85193 0.0
C889 C 0.08024 0.2265 0.75874 0.0
C890 C 0.1232 0.19904 0.71538 0.0
C891 C 0.10781 0.15715 0.68685 0.0
C892 C 0.05012 0.14411 0.70017 0.0
C893 C 0.00865 0.17269 0.7429 0.0
C894 C 0.02355 0.21278 0.77193 0.0
C895 C 0.97212 0.24007 0.81345 0.0
C896 C 0.96856 0.23372 0.87645 0.0
C897 C 0.97188 0.29764 0.79779 0.0
C898 C 0.92556 0.21033 0.80213 0.0
C899 C 0.94671 0.1712 0.76195 0.0
C900 C 0.91061 0.1417 0.7422 0.0
C901 C 0.85208 0.15405 0.7624 0.0
C902 C 0.83068 0.19598 0.80128 0.0
C903 C 0.86807 0.22253 0.82266 0.0
loop_
_geom_bond_atom_site_label_1
_geom_bond_atom_site_label_2
_geom_bond_distance
_geom_bond_site_symmetry_2
_ccdc_geom_bond_type
Co0 O2 2.143 . S
Co0 O8 2.074 . S
Co0 O11 2.093 . S
Co0 O24 2.097 . S
Co0 N41 2.151 . S
Co0 N49 2.214 . S
Co1 O2 2.160 . S
Co1 O7 2.058 . S
Co1 O17 2.057 . S
Co1 O32 2.037 . S
Co1 N36 2.145 . S
Co1 N57 2.257 . S
O2 Co0 2.143 . S
O2 Co1 2.160 . S
C3 O4 1.278 . S
C3 O11 1.224 . S
O4 C3 1.278 . S
C5 O6 1.245 . S
C5 O17 1.232 . S
O6 C5 1.245 . S
O7 Co1 2.058 . S
O7 C33 1.269 . S
O8 Co0 2.074 . S
O8 C33 1.257 . S
H9 C34 0.930 . S
H10 C40 0.930 . S
O11 Co0 2.093 . S
O11 C3 1.224 . S
H12 C44 0.929 . S
H13 C46 0.930 . S
H14 C47 0.930 . S
H15 C45 0.929 . S
H16 C48 0.928 . S
O17 Co1 2.057 . S
O17 C5 1.232 . S
H18 C37 0.929 . S
H19 C38 0.929 . S
H20 C50 0.931 . S
H21 C42 0.929 . S
H22 C51 0.930 . S
H23 C43 0.931 1_655 S
O24 Co0 2.097 . S
O24 C52 1.214 . S
H25 C53 0.929 . S
H26 C54 0.929 . S
H27 C55 0.930 . S
H28 C56 0.929 . S
H29 C58 0.930 . S
H30 C35 0.930 . S
H31 C39 0.930 . S
O32 Co1 2.037 . S
O32 C52 1.234 . S
C33 O7 1.269 . S
C33 O8 1.257 . S
C34 H9 0.930 . S
C34 C37 1.388 . S
C34 C39 1.418 . S
C35 H30 0.930 . S
C35 C38 1.404 . S
C35 C39 1.353 . S
N36 Co1 2.145 . S
N36 C37 1.397 . S
N36 C38 1.334 . S
C37 H18 0.929 . S
C37 C34 1.388 . S
C37 N36 1.397 . S
C38 H19 0.929 . S
C38 C35 1.404 . S
C38 N36 1.334 . S
C39 H31 0.930 . S
C39 C34 1.418 . S
C39 C35 1.353 . S
C40 H10 0.930 . S
C40 N41 1.330 . S
C40 C42 1.446 1_455 S
N41 Co0 2.151 . S
N41 C40 1.330 . S
N41 C45 1.418 . S
C42 H21 0.929 . S
C42 C40 1.446 1_655 S
C42 C43 1.332 1_655 S
C43 H23 0.931 1_455 S
C43 C42 1.332 1_455 S
C43 C44 1.267 . S
C44 H12 0.929 . S
C44 C43 1.267 . S
C44 C45 1.251 . S
C45 H15 0.929 . S
C45 N41 1.418 . S
C45 C44 1.251 . S
C46 H13 0.930 . S
C46 C48 1.406 . S
C46 C51 1.261 . S
C47 H14 0.930 . S
C47 N49 1.325 . S
C47 C50 1.357 . S
C48 H16 0.928 . S
C48 C46 1.406 . S
C48 N49 1.261 . S
N49 Co0 2.214 . S
N49 C47 1.325 . S
N49 C48 1.261 . S
C50 H20 0.931 . S
C50 C47 1.357 . S
C50 C51 1.312 . S
C51 H22 0.930 . S
C51 C46 1.261 . S
C51 C50 1.312 . S
C52 O24 1.214 . S
C52 O32 1.234 . S
C53 H25 0.929 . S
C53 C56 1.391 . S
C53 C58 1.391 . S
C54 H26 0.929 . S
C54 C55 1.390 . S
C54 N57 1.391 . S
C55 H27 0.930 . S
C55 C54 1.390 . S
C55 C56 1.392 . S
C56 H28 0.929 . S
C56 C53 1.391 . S
C56 C55 1.392 . S
N57 Co1 2.257 . S
N57 C54 1.391 . S
N57 C58 1.388 . S
C58 H29 0.930 . S
C58 C53 1.391 . S
C58 N57 1.388 . S
Co59 O61 2.143 . S
Co59 O67 2.074 . S
Co59 O70 2.093 . S
Co59 O83 2.097 . S
Co59 N100 2.151 . S
Co59 N108 2.214 . S
Co60 O61 2.160 . S
Co60 O66 2.058 . S
Co60 O76 2.057 . S
Co60 O91 2.037 . S
Co60 N95 2.145 . S
Co60 N116 2.257 . S
O61 Co59 2.143 . S
O61 Co60 2.160 . S
C62 O63 1.278 . S
C62 O70 1.224 . S
O63 C62 1.278 . S
C64 O65 1.245 . S
C64 O76 1.232 . S
O65 C64 1.245 . S
O66 Co60 2.058 . S
O66 C92 1.269 . S
O67 Co59 2.074 . S
O67 C92 1.257 . S
H68 C93 0.930 . S
H69 C99 0.930 . S
O70 Co59 2.093 . S
O70 C62 1.224 . S
H71 C103 0.929 . S
H72 C105 0.930 . S
H73 C106 0.930 . S
H74 C104 0.929 . S
H75 C107 0.928 . S
O76 Co60 2.057 . S
O76 C64 1.232 . S
H77 C96 0.929 . S
H78 C97 0.929 . S
H79 C109 0.931 . S
H80 C101 0.929 . S
H81 C110 0.930 . S
H82 C102 0.931 1_455 S
O83 Co59 2.097 . S
O83 C111 1.214 . S
H84 C112 0.929 . S
H85 C113 0.929 . S
H86 C114 0.930 . S
H87 C115 0.929 . S
H88 C117 0.930 . S
H89 C94 0.930 . S
H90 C98 0.930 . S
O91 Co60 2.037 . S
O91 C111 1.234 . S
C92 O66 1.269 . S
C92 O67 1.257 . S
C93 H68 0.930 . S
C93 C96 1.388 . S
C93 C98 1.418 . S
C94 H89 0.930 . S
C94 C97 1.404 . S
C94 C98 1.353 . S
N95 Co60 2.145 . S
N95 C96 1.397 . S
N95 C97 1.334 . S
C96 H77 0.929 . S
C96 C93 1.388 . S
C96 N95 1.397 . S
C97 H78 0.929 . S
C97 C94 1.404 . S
C97 N95 1.334 . S
C98 H90 0.930 . S
C98 C93 1.418 . S
C98 C94 1.353 . S
C99 H69 0.930 . S
C99 N100 1.330 . S
C99 C101 1.446 1_655 S
N100 Co59 2.151 . S
N100 C99 1.330 . S
N100 C104 1.418 . S
C101 H80 0.929 . S
C101 C99 1.446 1_455 S
C101 C102 1.332 1_455 S
C102 H82 0.931 1_655 S
C102 C101 1.332 1_655 S
C102 C103 1.267 . S
C103 H71 0.929 . S
C103 C102 1.267 . S
C103 C104 1.251 . S
C104 H74 0.929 . S
C104 N100 1.418 . S
C104 C103 1.251 . S
C105 H72 0.930 . S
C105 C107 1.406 . S
C105 C110 1.261 . S
C106 H73 0.930 . S
C106 N108 1.325 . S
C106 C109 1.357 . S
C107 H75 0.928 . S
C107 C105 1.406 . S
C107 N108 1.261 . S
N108 Co59 2.214 . S
N108 C106 1.325 . S
N108 C107 1.261 . S
C109 H79 0.931 . S
C109 C106 1.357 . S
C109 C110 1.312 . S
C110 H81 0.930 . S
C110 C105 1.261 . S
C110 C109 1.312 . S
C111 O83 1.214 . S
C111 O91 1.234 . S
C112 H84 0.929 . S
C112 C115 1.391 . S
C112 C117 1.391 1_556 S
C113 H85 0.929 . S
C113 C114 1.390 . S
C113 N116 1.391 . S
C114 H86 0.930 . S
C114 C113 1.390 . S
C114 C115 1.392 1_554 S
C115 H87 0.929 . S
C115 C112 1.391 . S
C115 C114 1.392 1_556 S
N116 Co60 2.257 . S
N116 C113 1.391 . S
N116 C117 1.388 . S
C117 H88 0.930 . S
C117 C112 1.391 1_554 S
C117 N116 1.388 . S
Co118 O120 2.143 . S
Co118 O126 2.074 . S
Co118 O129 2.093 . S
Co118 O142 2.097 . S
Co118 N159 2.151 . S
Co118 N167 2.214 . S
Co119 O120 2.160 . S
Co119 O125 2.058 . S
Co119 O135 2.057 . S
Co119 O150 2.037 . S
Co119 N154 2.145 . S
Co119 N175 2.257 . S
O120 Co118 2.143 . S
O120 Co119 2.160 . S
C121 O122 1.278 . S
C121 O129 1.224 . S
O122 C121 1.278 . S
C123 O124 1.245 . S
C123 O135 1.232 . S
O124 C123 1.245 . S
O125 Co119 2.058 . S
O125 C151 1.269 . S
O126 Co118 2.074 . S
O126 C151 1.257 . S
H127 C152 0.930 . S
H128 C158 0.930 . S
O129 Co118 2.093 . S
O129 C121 1.224 . S
H130 C162 0.929 . S
H131 C164 0.930 . S
H132 C165 0.930 . S
H133 C163 0.929 . S
H134 C166 0.928 . S
O135 Co119 2.057 . S
O135 C123 1.232 . S
H136 C155 0.929 . S
H137 C156 0.929 . S
H138 C168 0.931 . S
H139 C160 0.929 . S
H140 C169 0.930 . S
H141 C161 0.931 1_455 S
O142 Co118 2.097 . S
O142 C170 1.214 . S
H143 C171 0.929 . S
H144 C172 0.929 . S
H145 C173 0.930 . S
H146 C174 0.929 . S
H147 C176 0.930 . S
H148 C153 0.930 . S
H149 C157 0.930 . S
O150 Co119 2.037 . S
O150 C170 1.234 . S
C151 O125 1.269 . S
C151 O126 1.257 . S
C152 H127 0.930 . S
C152 C155 1.388 . S
C152 C157 1.418 . S
C153 H148 0.930 . S
C153 C156 1.404 . S
C153 C157 1.353 . S
N154 Co119 2.145 . S
N154 C155 1.397 . S
N154 C156 1.334 . S
C155 H136 0.929 . S
C155 C152 1.388 . S
C155 N154 1.397 . S
C156 H137 0.929 . S
C156 C153 1.404 . S
C156 N154 1.334 . S
C157 H149 0.930 . S
C157 C152 1.418 . S
C157 C153 1.353 . S
C158 H128 0.930 . S
C158 N159 1.330 . S
C158 C160 1.446 1_655 S
N159 Co118 2.151 . S
N159 C158 1.330 . S
N159 C163 1.418 . S
C160 H139 0.929 . S
C160 C158 1.446 1_455 S
C160 C161 1.332 1_455 S
C161 H141 0.931 1_655 S
C161 C160 1.332 1_655 S
C161 C162 1.267 . S
C162 H130 0.929 . S
C162 C161 1.267 . S
C162 C163 1.251 . S
C163 H133 0.929 . S
C163 N159 1.418 . S
C163 C162 1.251 . S
C164 H131 0.930 . S
C164 C166 1.406 . S
C164 C169 1.261 . S
C165 H132 0.930 . S
C165 N167 1.325 . S
C165 C168 1.357 . S
C166 H134 0.928 . S
C166 C164 1.406 . S
C166 N167 1.261 . S
N167 Co118 2.214 . S
N167 C165 1.325 . S
N167 C166 1.261 . S
C168 H138 0.931 . S
C168 C165 1.357 . S
C168 C169 1.312 . S
C169 H140 0.930 . S
C169 C164 1.261 . S
C169 C168 1.312 . S
C170 O142 1.214 . S
C170 O150 1.234 . S
C171 H143 0.929 . S
C171 C174 1.391 . S
C171 C176 1.391 . S
C172 H144 0.929 . S
C172 C173 1.390 . S
C172 N175 1.391 . S
C173 H145 0.930 . S
C173 C172 1.390 . S
C173 C174 1.392 . S
C174 H146 0.929 . S
C174 C171 1.391 . S
C174 C173 1.392 . S
N175 Co119 2.257 . S
N175 C172 1.391 . S
N175 C176 1.388 . S
C176 H147 0.930 . S
C176 C171 1.391 . S
C176 N175 1.388 . S
Co177 O179 2.143 . S
Co177 O185 2.074 . S
Co177 O188 2.093 . S
Co177 O201 2.097 . S
Co177 N218 2.151 . S
Co177 N226 2.214 . S
Co178 O179 2.160 . S
Co178 O184 2.058 . S
Co178 O194 2.057 . S
Co178 O209 2.037 . S
Co178 N213 2.145 . S
Co178 N234 2.257 . S
O179 Co177 2.143 . S
O179 Co178 2.160 . S
C180 O181 1.278 . S
C180 O188 1.224 . S
O181 C180 1.278 . S
C182 O183 1.245 . S
C182 O194 1.232 . S
O183 C182 1.245 . S
O184 Co178 2.058 . S
O184 C210 1.269 . S
O185 Co177 2.074 . S
O185 C210 1.257 . S
H186 C211 0.930 . S
H187 C217 0.930 . S
O188 Co177 2.093 . S
O188 C180 1.224 . S
H189 C221 0.929 . S
H190 C223 0.930 . S
H191 C224 0.930 . S
H192 C222 0.929 . S
H193 C225 0.928 . S
O194 Co178 2.057 . S
O194 C182 1.232 . S
H195 C214 0.929 . S
H196 C215 0.929 . S
H197 C227 0.931 . S
H198 C219 0.929 . S
H199 C228 0.930 . S
H200 C220 0.931 1_655 S
O201 Co177 2.097 . S
O201 C229 1.214 . S
H202 C230 0.929 . S
H203 C231 0.929 . S
H204 C232 0.930 . S
H205 C233 0.929 . S
H206 C235 0.930 . S
H207 C212 0.930 . S
H208 C216 0.930 . S
O209 Co178 2.037 . S
O209 C229 1.234 . S
C210 O184 1.269 . S
C210 O185 1.257 . S
C211 H186 0.930 . S
C211 C214 1.388 . S
C211 C216 1.418 . S
C212 H207 0.930 . S
C212 C215 1.404 . S
C212 C216 1.353 . S
N213 Co178 2.145 . S
N213 C214 1.397 . S
N213 C215 1.334 . S
C214 H195 0.929 . S
C214 C211 1.388 . S
C214 N213 1.397 . S
C215 H196 0.929 . S
C215 C212 1.404 . S
C215 N213 1.334 . S
C216 H208 0.930 . S
C216 C211 1.418 . S
C216 C212 1.353 . S
C217 H187 0.930 . S
C217 N218 1.330 . S
C217 C219 1.446 1_455 S
N218 Co177 2.151 . S
N218 C217 1.330 . S
N218 C222 1.418 . S
C219 H198 0.929 . S
C219 C217 1.446 1_655 S
C219 C220 1.332 1_655 S
C220 H200 0.931 1_455 S
C220 C219 1.332 1_455 S
C220 C221 1.267 . S
C221 H189 0.929 . S
C221 C220 1.267 . S
C221 C222 1.251 . S
C222 H192 0.929 . S
C222 N218 1.418 . S
C222 C221 1.251 . S
C223 H190 0.930 . S
C223 C225 1.406 . S
C223 C228 1.261 . S
C224 H191 0.930 . S
C224 N226 1.325 . S
C224 C227 1.357 . S
C225 H193 0.928 . S
C225 C223 1.406 . S
C225 N226 1.261 . S
N226 Co177 2.214 . S
N226 C224 1.325 . S
N226 C225 1.261 . S
C227 H197 0.931 . S
C227 C224 1.357 . S
C227 C228 1.312 . S
C228 H199 0.930 . S
C228 C223 1.261 . S
C228 C227 1.312 . S
C229 O201 1.214 . S
C229 O209 1.234 . S
C230 H202 0.929 . S
C230 C233 1.391 . S
C230 C235 1.391 1_554 S
C231 H203 0.929 . S
C231 C232 1.390 . S
C231 N234 1.391 . S
C232 H204 0.930 . S
C232 C231 1.390 . S
C232 C233 1.392 1_556 S
C233 H205 0.929 . S
C233 C230 1.391 . S
C233 C232 1.392 1_554 S
N234 Co178 2.257 . S
N234 C231 1.391 . S
N234 C235 1.388 . S
C235 H206 0.930 . S
C235 C230 1.391 1_556 S
C235 N234 1.388 . S
Co236 O238 2.143 . S
Co236 O244 2.074 . S
Co236 O247 2.093 . S
Co236 O260 2.097 . S
Co236 N277 2.151 . S
Co236 N285 2.214 . S
Co237 O238 2.160 . S
Co237 O243 2.058 . S
Co237 O253 2.057 . S
Co237 O268 2.037 . S
Co237 N272 2.145 . S
Co237 N293 2.257 . S
O238 Co236 2.143 . S
O238 Co237 2.160 . S
C239 O240 1.278 . S
C239 O247 1.224 . S
O240 C239 1.278 . S
C241 O242 1.245 . S
C241 O253 1.232 . S
O242 C241 1.245 . S
O243 Co237 2.058 . S
O243 C269 1.269 . S
O244 Co236 2.074 . S
O244 C269 1.257 . S
H245 C270 0.930 . S
H246 C276 0.930 . S
O247 Co236 2.093 . S
O247 C239 1.224 . S
H248 C280 0.929 . S
H249 C282 0.930 1_545 S
H250 C283 0.930 . S
H251 C281 0.929 . S
H252 C284 0.928 . S
O253 Co237 2.057 . S
O253 C241 1.232 . S
H254 C273 0.929 . S
H255 C274 0.929 . S
H256 C286 0.931 . S
H257 C278 0.929 . S
H258 C287 0.930 1_545 S
H259 C279 0.931 . S
O260 Co236 2.097 . S
O260 C288 1.214 . S
H261 C289 0.929 . S
H262 C290 0.929 . S
H263 C291 0.930 . S
H264 C292 0.929 . S
H265 C294 0.930 . S
H266 C271 0.930 . S
H267 C275 0.930 . S
O268 Co237 2.037 . S
O268 C288 1.234 . S
C269 O243 1.269 . S
C269 O244 1.257 . S
C270 H245 0.930 . S
C270 C273 1.388 . S
C270 C275 1.418 . S
C271 H266 0.930 . S
C271 C274 1.404 . S
C271 C275 1.353 . S
N272 Co237 2.145 . S
N272 C273 1.397 . S
N272 C274 1.334 . S
C273 H254 0.929 . S
C273 C270 1.388 . S
C273 N272 1.397 . S
C274 H255 0.929 . S
C274 C271 1.404 . S
C274 N272 1.334 . S
C275 H267 0.930 . S
C275 C270 1.418 . S
C275 C271 1.353 . S
C276 H246 0.930 . S
C276 N277 1.330 . S
C276 C278 1.446 . S
N277 Co236 2.151 . S
N277 C276 1.330 . S
N277 C281 1.418 . S
C278 H257 0.929 . S
C278 C276 1.446 . S
C278 C279 1.332 . S
C279 H259 0.931 . S
C279 C278 1.332 . S
C279 C280 1.267 . S
C280 H248 0.929 . S
C280 C279 1.267 . S
C280 C281 1.251 . S
C281 H251 0.929 . S
C281 N277 1.418 . S
C281 C280 1.251 . S
C282 H249 0.930 1_565 S
C282 C284 1.406 . S
C282 C287 1.261 . S
C283 H250 0.930 . S
C283 N285 1.325 . S
C283 C286 1.357 . S
C284 H252 0.928 . S
C284 C282 1.406 . S
C284 N285 1.261 . S
N285 Co236 2.214 . S
N285 C283 1.325 . S
N285 C284 1.261 . S
C286 H256 0.931 . S
C286 C283 1.357 . S
C286 C287 1.312 . S
C287 H258 0.930 1_565 S
C287 C282 1.261 . S
C287 C286 1.312 . S
C288 O260 1.214 . S
C288 O268 1.234 . S
C289 H261 0.929 . S
C289 C292 1.391 . S
C289 C294 1.391 . S
C290 H262 0.929 . S
C290 C291 1.390 . S
C290 N293 1.391 . S
C291 H263 0.930 . S
C291 C290 1.390 . S
C291 C292 1.392 . S
C292 H264 0.929 . S
C292 C289 1.391 . S
C292 C291 1.392 . S
N293 Co237 2.257 . S
N293 C290 1.391 . S
N293 C294 1.388 . S
C294 H265 0.930 . S
C294 C289 1.391 . S
C294 N293 1.388 . S
Co295 O297 2.143 . S
Co295 O303 2.074 . S
Co295 O306 2.093 . S
Co295 O319 2.097 . S
Co295 N336 2.151 . S
Co295 N344 2.214 . S
Co296 O297 2.160 . S
Co296 O302 2.058 . S
Co296 O312 2.057 . S
Co296 O327 2.037 . S
Co296 N331 2.145 . S
Co296 N352 2.257 . S
O297 Co295 2.143 . S
O297 Co296 2.160 . S
C298 O299 1.278 . S
C298 O306 1.224 . S
O299 C298 1.278 . S
C300 O301 1.245 . S
C300 O312 1.232 . S
O301 C300 1.245 . S
O302 Co296 2.058 . S
O302 C328 1.269 . S
O303 Co295 2.074 . S
O303 C328 1.257 . S
H304 C329 0.930 . S
H305 C335 0.930 . S
O306 Co295 2.093 . S
O306 C298 1.224 . S
H307 C339 0.929 . S
H308 C341 0.930 1_545 S
H309 C342 0.930 . S
H310 C340 0.929 . S
H311 C343 0.928 . S
O312 Co296 2.057 . S
O312 C300 1.232 . S
H313 C332 0.929 . S
H314 C333 0.929 . S
H315 C345 0.931 . S
H316 C337 0.929 . S
H317 C346 0.930 1_545 S
H318 C338 0.931 . S
O319 Co295 2.097 . S
O319 C347 1.214 . S
H320 C348 0.929 . S
H321 C349 0.929 . S
H322 C350 0.930 . S
H323 C351 0.929 . S
H324 C353 0.930 . S
H325 C330 0.930 . S
H326 C334 0.930 . S
O327 Co296 2.037 . S
O327 C347 1.234 . S
C328 O302 1.269 . S
C328 O303 1.257 . S
C329 H304 0.930 . S
C329 C332 1.388 . S
C329 C334 1.418 . S
C330 H325 0.930 . S
C330 C333 1.404 . S
C330 C334 1.353 . S
N331 Co296 2.145 . S
N331 C332 1.397 . S
N331 C333 1.334 . S
C332 H313 0.929 . S
C332 C329 1.388 . S
C332 N331 1.397 . S
C333 H314 0.929 . S
C333 C330 1.404 . S
C333 N331 1.334 . S
C334 H326 0.930 . S
C334 C329 1.418 . S
C334 C330 1.353 . S
C335 H305 0.930 . S
C335 N336 1.330 . S
C335 C337 1.446 . S
N336 Co295 2.151 . S
N336 C335 1.330 . S
N336 C340 1.418 . S
C337 H316 0.929 . S
C337 C335 1.446 . S
C337 C338 1.332 . S
C338 H318 0.931 . S
C338 C337 1.332 . S
C338 C339 1.267 . S
C339 H307 0.929 . S
C339 C338 1.267 . S
C339 C340 1.251 . S
C340 H310 0.929 . S
C340 N336 1.418 . S
C340 C339 1.251 . S
C341 H308 0.930 1_565 S
C341 C343 1.406 . S
C341 C346 1.261 . S
C342 H309 0.930 . S
C342 N344 1.325 . S
C342 C345 1.357 . S
C343 H311 0.928 . S
C343 C341 1.406 . S
C343 N344 1.261 . S
N344 Co295 2.214 . S
N344 C342 1.325 . S
N344 C343 1.261 . S
C345 H315 0.931 . S
C345 C342 1.357 . S
C345 C346 1.312 . S
C346 H317 0.930 1_565 S
C346 C341 1.261 . S
C346 C345 1.312 . S
C347 O319 1.214 . S
C347 O327 1.234 . S
C348 H320 0.929 . S
C348 C351 1.391 . S
C348 C353 1.391 1_556 S
C349 H321 0.929 . S
C349 C350 1.390 . S
C349 N352 1.391 . S
C350 H322 0.930 . S
C350 C349 1.390 . S
C350 C351 1.392 1_554 S
C351 H323 0.929 . S
C351 C348 1.391 . S
C351 C350 1.392 1_556 S
N352 Co296 2.257 . S
N352 C349 1.391 . S
N352 C353 1.388 . S
C353 H324 0.930 . S
C353 C348 1.391 1_554 S
C353 N352 1.388 . S
Co354 O356 2.143 . S
Co354 O362 2.074 . S
Co354 O365 2.093 . S
Co354 O378 2.097 . S
Co354 N395 2.151 . S
Co354 N403 2.214 . S
Co355 O356 2.160 . S
Co355 O361 2.058 . S
Co355 O371 2.057 . S
Co355 O386 2.037 . S
Co355 N390 2.145 . S
Co355 N411 2.257 . S
O356 Co354 2.143 . S
O356 Co355 2.160 . S
C357 O358 1.278 . S
C357 O365 1.224 . S
O358 C357 1.278 . S
C359 O360 1.245 . S
C359 O371 1.232 . S
O360 C359 1.245 . S
O361 Co355 2.058 . S
O361 C387 1.269 . S
O362 Co354 2.074 . S
O362 C387 1.257 . S
H363 C388 0.930 . S
H364 C394 0.930 . S
O365 Co354 2.093 . S
O365 C357 1.224 . S
H366 C398 0.929 . S
H367 C400 0.930 1_565 S
H368 C401 0.930 . S
H369 C399 0.929 . S
H370 C402 0.928 . S
O371 Co355 2.057 . S
O371 C359 1.232 . S
H372 C391 0.929 . S
H373 C392 0.929 . S
H374 C404 0.931 . S
H375 C396 0.929 . S
H376 C405 0.930 1_565 S
H377 C397 0.931 . S
O378 Co354 2.097 . S
O378 C406 1.214 . S
H379 C407 0.929 . S
H380 C408 0.929 . S
H381 C409 0.930 . S
H382 C410 0.929 . S
H383 C412 0.930 . S
H384 C389 0.930 . S
H385 C393 0.930 . S
O386 Co355 2.037 . S
O386 C406 1.234 . S
C387 O361 1.269 . S
C387 O362 1.257 . S
C388 H363 0.930 . S
C388 C391 1.388 . S
C388 C393 1.418 . S
C389 H384 0.930 . S
C389 C392 1.404 . S
C389 C393 1.353 . S
N390 Co355 2.145 . S
N390 C391 1.397 . S
N390 C392 1.334 . S
C391 H372 0.929 . S
C391 C388 1.388 . S
C391 N390 1.397 . S
C392 H373 0.929 . S
C392 C389 1.404 . S
C392 N390 1.334 . S
C393 H385 0.930 . S
C393 C388 1.418 . S
C393 C389 1.353 . S
C394 H364 0.930 . S
C394 N395 1.330 . S
C394 C396 1.446 . S
N395 Co354 2.151 . S
N395 C394 1.330 . S
N395 C399 1.418 . S
C396 H375 0.929 . S
C396 C394 1.446 . S
C396 C397 1.332 . S
C397 H377 0.931 . S
C397 C396 1.332 . S
C397 C398 1.267 . S
C398 H366 0.929 . S
C398 C397 1.267 . S
C398 C399 1.251 . S
C399 H369 0.929 . S
C399 N395 1.418 . S
C399 C398 1.251 . S
C400 H367 0.930 1_545 S
C400 C402 1.406 . S
C400 C405 1.261 . S
C401 H368 0.930 . S
C401 N403 1.325 . S
C401 C404 1.357 . S
C402 H370 0.928 . S
C402 C400 1.406 . S
C402 N403 1.261 . S
N403 Co354 2.214 . S
N403 C401 1.325 . S
N403 C402 1.261 . S
C404 H374 0.931 . S
C404 C401 1.357 . S
C404 C405 1.312 . S
C405 H376 0.930 1_545 S
C405 C400 1.261 . S
C405 C404 1.312 . S
C406 O378 1.214 . S
C406 O386 1.234 . S
C407 H379 0.929 . S
C407 C410 1.391 . S
C407 C412 1.391 . S
C408 H380 0.929 . S
C408 C409 1.390 . S
C408 N411 1.391 . S
C409 H381 0.930 . S
C409 C408 1.390 . S
C409 C410 1.392 . S
C410 H382 0.929 . S
C410 C407 1.391 . S
C410 C409 1.392 . S
N411 Co355 2.257 . S
N411 C408 1.391 . S
N411 C412 1.388 . S
C412 H383 0.930 . S
C412 C407 1.391 . S
C412 N411 1.388 . S
Co413 O415 2.143 . S
Co413 O421 2.074 . S
Co413 O424 2.093 . S
Co413 O437 2.097 . S
Co413 N454 2.151 . S
Co413 N462 2.214 . S
Co414 O415 2.160 . S
Co414 O420 2.058 . S
Co414 O430 2.057 . S
Co414 O445 2.037 . S
Co414 N449 2.145 . S
Co414 N470 2.257 . S
O415 Co413 2.143 . S
O415 Co414 2.160 . S
C416 O417 1.278 . S
C416 O424 1.224 . S
O417 C416 1.278 . S
C418 O419 1.245 . S
C418 O430 1.232 . S
O419 C418 1.245 . S
O420 Co414 2.058 . S
O420 C446 1.269 . S
O421 Co413 2.074 . S
O421 C446 1.257 . S
H422 C447 0.930 . S
H423 C453 0.930 . S
O424 Co413 2.093 . S
O424 C416 1.224 . S
H425 C457 0.929 . S
H426 C459 0.930 1_565 S
H427 C460 0.930 . S
H428 C458 0.929 . S
H429 C461 0.928 . S
O430 Co414 2.057 . S
O430 C418 1.232 . S
H431 C450 0.929 . S
H432 C451 0.929 . S
H433 C463 0.931 . S
H434 C455 0.929 . S
H435 C464 0.930 1_565 S
H436 C456 0.931 . S
O437 Co413 2.097 . S
O437 C465 1.214 . S
H438 C466 0.929 . S
H439 C467 0.929 . S
H440 C468 0.930 . S
H441 C469 0.929 . S
H442 C471 0.930 . S
H443 C448 0.930 . S
H444 C452 0.930 . S
O445 Co414 2.037 . S
O445 C465 1.234 . S
C446 O420 1.269 . S
C446 O421 1.257 . S
C447 H422 0.930 . S
C447 C450 1.388 . S
C447 C452 1.418 . S
C448 H443 0.930 . S
C448 C451 1.404 . S
C448 C452 1.353 . S
N449 Co414 2.145 . S
N449 C450 1.397 . S
N449 C451 1.334 . S
C450 H431 0.929 . S
C450 C447 1.388 . S
C450 N449 1.397 . S
C451 H432 0.929 . S
C451 C448 1.404 . S
C451 N449 1.334 . S
C452 H444 0.930 . S
C452 C447 1.418 . S
C452 C448 1.353 . S
C453 H423 0.930 . S
C453 N454 1.330 . S
C453 C455 1.446 . S
N454 Co413 2.151 . S
N454 C453 1.330 . S
N454 C458 1.418 . S
C455 H434 0.929 . S
C455 C453 1.446 . S
C455 C456 1.332 . S
C456 H436 0.931 . S
C456 C455 1.332 . S
C456 C457 1.267 . S
C457 H425 0.929 . S
C457 C456 1.267 . S
C457 C458 1.251 . S
C458 H428 0.929 . S
C458 N454 1.418 . S
C458 C457 1.251 . S
C459 H426 0.930 1_545 S
C459 C461 1.406 . S
C459 C464 1.261 . S
C460 H427 0.930 . S
C460 N462 1.325 . S
C460 C463 1.357 . S
C461 H429 0.928 . S
C461 C459 1.406 . S
C461 N462 1.261 . S
N462 Co413 2.214 . S
N462 C460 1.325 . S
N462 C461 1.261 . S
C463 H433 0.931 . S
C463 C460 1.357 . S
C463 C464 1.312 . S
C464 H435 0.930 1_545 S
C464 C459 1.261 . S
C464 C463 1.312 . S
C465 O437 1.214 . S
C465 O445 1.234 . S
C466 H438 0.929 . S
C466 C469 1.391 . S
C466 C471 1.391 1_554 S
C467 H439 0.929 . S
C467 C468 1.390 . S
C467 N470 1.391 . S
C468 H440 0.930 . S
C468 C467 1.390 . S
C468 C469 1.392 1_556 S
C469 H441 0.929 . S
C469 C466 1.391 . S
C469 C468 1.392 1_554 S
N470 Co414 2.257 . S
N470 C467 1.391 . S
N470 C471 1.388 . S
C471 H442 0.930 . S
C471 C466 1.391 1_556 S
C471 N470 1.388 . S
H472 C484 0.930 . S
H473 C486 0.930 . S
H474 C487 0.930 1_655 S
H475 C491 0.959 . S
H476 C491 0.959 . S
H477 C491 0.961 1_455 S
H478 C492 0.960 . S
H479 C492 0.961 . S
H480 C492 0.959 . S
H481 C495 0.929 1_545 S
H482 C496 0.931 . S
H483 C498 0.930 . S
C484 H472 0.930 . S
C484 C485 1.399 . S
C484 C489 1.399 . S
C485 C484 1.399 . S
C485 C486 1.376 . S
C486 H473 0.930 . S
C486 C485 1.376 . S
C486 C487 1.388 . S
C487 H474 0.930 1_455 S
C487 C486 1.388 . S
C487 C488 1.390 . S
C488 C487 1.390 . S
C488 C489 1.394 . S
C488 C494 1.465 1_445 S
C489 C484 1.399 . S
C489 C488 1.394 . S
C489 C490 1.516 1_545 S
C490 C489 1.516 1_565 S
C490 C491 1.502 1_455 S
C490 C492 1.561 . S
C490 C493 1.526 1_455 S
C491 H475 0.959 . S
C491 H476 0.959 . S
C491 H477 0.961 1_655 S
C491 C490 1.502 1_655 S
C492 H478 0.960 . S
C492 H479 0.961 . S
C492 H480 0.959 . S
C492 C490 1.561 . S
C493 C490 1.526 1_655 S
C493 C494 1.396 . S
C493 C498 1.390 . S
C494 C488 1.465 1_665 S
C494 C493 1.396 . S
C494 C495 1.399 . S
C495 H481 0.929 1_565 S
C495 C494 1.399 . S
C495 C496 1.385 . S
C496 H482 0.931 . S
C496 C495 1.385 . S
C496 C497 1.389 . S
C497 C496 1.389 . S
C497 C498 1.387 . S
C498 H483 0.930 . S
C498 C493 1.390 . S
C498 C497 1.387 . S
H499 C511 0.930 . S
H500 C513 0.930 . S
H501 C514 0.930 1_545 S
H502 C518 0.959 . S
H503 C518 0.959 . S
H504 C518 0.961 . S
H505 C519 0.960 . S
H506 C519 0.961 1_655 S
H507 C519 0.959 . S
H508 C522 0.929 . S
H509 C523 0.931 . S
H510 C525 0.930 . S
C511 H499 0.930 . S
C511 C512 1.399 . S
C511 C516 1.399 . S
C512 C511 1.399 . S
C512 C513 1.376 . S
C513 H500 0.930 . S
C513 C512 1.376 . S
C513 C514 1.388 . S
C514 H501 0.930 1_565 S
C514 C513 1.388 . S
C514 C515 1.390 . S
C515 C514 1.390 . S
C515 C516 1.394 . S
C515 C521 1.465 1_565 S
C516 C511 1.399 . S
C516 C515 1.394 . S
C516 C517 1.516 1_456 S
C517 C516 1.516 1_654 S
C517 C518 1.502 . S
C517 C519 1.561 1_655 S
C517 C520 1.526 1_565 S
C518 H502 0.959 . S
C518 H503 0.959 . S
C518 H504 0.961 . S
C518 C517 1.502 . S
C519 H505 0.960 . S
C519 H506 0.961 1_455 S
C519 H507 0.959 . S
C519 C517 1.561 1_455 S
C520 C517 1.526 1_545 S
C520 C521 1.396 1_654 S
C520 C525 1.390 . S
C521 C515 1.465 1_545 S
C521 C520 1.396 1_456 S
C521 C522 1.399 . S
C522 H508 0.929 . S
C522 C521 1.399 . S
C522 C523 1.385 1_456 S
C523 H509 0.931 . S
C523 C522 1.385 1_654 S
C523 C524 1.389 . S
C524 C523 1.389 . S
C524 C525 1.387 . S
C525 H510 0.930 . S
C525 C520 1.390 . S
C525 C524 1.387 . S
H526 C538 0.930 . S
H527 C540 0.930 . S
H528 C541 0.930 . S
H529 C545 0.959 . S
H530 C545 0.959 . S
H531 C545 0.961 . S
H532 C546 0.960 . S
H533 C546 0.961 . S
H534 C546 0.959 . S
H535 C549 0.929 . S
H536 C550 0.931 . S
H537 C552 0.930 . S
C538 H526 0.930 . S
C538 C539 1.399 . S
C538 C543 1.399 . S
C539 C538 1.399 . S
C539 C540 1.376 . S
C540 H527 0.930 . S
C540 C539 1.376 . S
C540 C541 1.388 . S
C541 H528 0.930 . S
C541 C540 1.388 . S
C541 C542 1.390 . S
C542 C541 1.390 . S
C542 C543 1.394 . S
C542 C548 1.465 . S
C543 C538 1.399 . S
C543 C542 1.394 . S
C543 C544 1.516 . S
C544 C543 1.516 . S
C544 C545 1.502 . S
C544 C546 1.561 . S
C544 C547 1.526 . S
C545 H529 0.959 . S
C545 H530 0.959 . S
C545 H531 0.961 . S
C545 C544 1.502 . S
C546 H532 0.960 . S
C546 H533 0.961 . S
C546 H534 0.959 . S
C546 C544 1.561 . S
C547 C544 1.526 . S
C547 C548 1.396 . S
C547 C552 1.390 . S
C548 C542 1.465 . S
C548 C547 1.396 . S
C548 C549 1.399 . S
C549 H535 0.929 . S
C549 C548 1.399 . S
C549 C550 1.385 . S
C550 H536 0.931 . S
C550 C549 1.385 . S
C550 C551 1.389 . S
C551 C550 1.389 . S
C551 C552 1.387 . S
C552 H537 0.930 . S
C552 C547 1.390 . S
C552 C551 1.387 . S
H553 C565 0.930 . S
H554 C567 0.930 . S
H555 C568 0.930 . S
H556 C572 0.959 . S
H557 C572 0.959 . S
H558 C572 0.961 . S
H559 C573 0.960 . S
H560 C573 0.961 . S
H561 C573 0.959 . S
H562 C576 0.929 . S
H563 C577 0.931 . S
H564 C579 0.930 . S
C565 H553 0.930 . S
C565 C566 1.399 . S
C565 C570 1.399 . S
C566 C565 1.399 . S
C566 C567 1.376 . S
C567 H554 0.930 . S
C567 C566 1.376 . S
C567 C568 1.388 1_554 S
C568 H555 0.930 . S
C568 C567 1.388 1_556 S
C568 C569 1.396 . S
C569 C568 1.396 . S
C569 C570 1.378 1_556 S
C569 C575 1.473 . S
C570 C565 1.399 . S
C570 C569 1.378 1_554 S
C570 C571 1.516 . S
C571 C570 1.516 . S
C571 C572 1.502 . S
C571 C573 1.561 . S
C571 C574 1.526 1_554 S
C572 H556 0.959 . S
C572 H557 0.959 . S
C572 H558 0.961 . S
C572 C571 1.502 . S
C573 H559 0.960 . S
C573 H560 0.961 . S
C573 H561 0.959 . S
C573 C571 1.561 . S
C574 C571 1.526 1_556 S
C574 C575 1.396 . S
C574 C579 1.390 . S
C575 C569 1.473 . S
C575 C574 1.396 . S
C575 C576 1.399 . S
C576 H562 0.929 . S
C576 C575 1.399 . S
C576 C577 1.385 . S
C577 H563 0.931 . S
C577 C576 1.385 . S
C577 C578 1.389 . S
C578 C577 1.389 . S
C578 C579 1.387 . S
C579 H564 0.930 . S
C579 C574 1.390 . S
C579 C578 1.387 . S
H580 C592 0.930 . S
H581 C594 0.930 . S
H582 C595 0.930 . S
H583 C599 0.959 1_556 S
H584 C599 0.959 . S
H585 C599 0.961 . S
H586 C600 0.960 . S
H587 C600 0.961 . S
H588 C600 0.959 . S
H589 C603 0.929 . S
H590 C604 0.931 . S
H591 C606 0.930 . S
C592 H580 0.930 . S
C592 C593 1.399 . S
C592 C597 1.399 . S
C593 C592 1.399 . S
C593 C594 1.376 . S
C594 H581 0.930 . S
C594 C593 1.376 . S
C594 C595 1.388 1_654 S
C595 H582 0.930 . S
C595 C594 1.388 1_456 S
C595 C596 1.390 1_556 S
C596 C595 1.390 1_554 S
C596 C597 1.394 1_455 S
C596 C602 1.465 1_554 S
C597 C592 1.399 . S
C597 C596 1.394 1_655 S
C597 C598 1.516 . S
C598 C597 1.516 . S
C598 C599 1.502 . S
C598 C600 1.561 . S
C598 C601 1.526 1_654 S
C599 H583 0.959 1_554 S
C599 H584 0.959 . S
C599 H585 0.961 . S
C599 C598 1.502 . S
C600 H586 0.960 . S
C600 H587 0.961 . S
C600 H588 0.959 . S
C600 C598 1.561 . S
C601 C598 1.526 1_456 S
C601 C602 1.396 . S
C601 C606 1.390 . S
C602 C596 1.465 1_556 S
C602 C601 1.396 . S
C602 C603 1.399 . S
C603 H589 0.929 . S
C603 C602 1.399 . S
C603 C604 1.385 . S
C604 H590 0.931 . S
C604 C603 1.385 . S
C604 C605 1.389 . S
C605 C604 1.389 . S
C605 C606 1.387 . S
C606 H591 0.930 . S
C606 C601 1.390 . S
C606 C605 1.387 . S
H607 C619 0.930 . S
H608 C621 0.930 . S
H609 C622 0.930 . S
H610 C626 0.959 . S
H611 C626 0.959 . S
H612 C626 0.961 . S
H613 C627 0.960 . S
H614 C627 0.961 . S
H615 C627 0.959 . S
H616 C630 0.929 . S
H617 C631 0.931 . S
H618 C633 0.930 . S
C619 H607 0.930 . S
C619 C620 1.399 . S
C619 C624 1.399 . S
C620 C619 1.399 . S
C620 C621 1.376 . S
C621 H608 0.930 . S
C621 C620 1.376 . S
C621 C622 1.388 . S
C622 H609 0.930 . S
C622 C621 1.388 . S
C622 C623 1.390 . S
C623 C622 1.390 . S
C623 C624 1.394 . S
C623 C629 1.465 1_455 S
C624 C619 1.399 . S
C624 C623 1.394 . S
C624 C625 1.516 1_455 S
C625 C624 1.516 1_655 S
C625 C626 1.502 . S
C625 C627 1.561 1_655 S
C625 C628 1.526 . S
C626 H610 0.959 . S
C626 H611 0.959 . S
C626 H612 0.961 . S
C626 C625 1.502 . S
C627 H613 0.960 . S
C627 H614 0.961 . S
C627 H615 0.959 . S
C627 C625 1.561 1_455 S
C628 C625 1.526 . S
C628 C629 1.396 . S
C628 C633 1.390 . S
C629 C623 1.465 1_655 S
C629 C628 1.396 . S
C629 C630 1.399 . S
C630 H616 0.929 . S
C630 C629 1.399 . S
C630 C631 1.385 . S
C631 H617 0.931 . S
C631 C630 1.385 . S
C631 C632 1.389 . S
C632 C631 1.389 . S
C632 C633 1.387 . S
C633 H618 0.930 . S
C633 C628 1.390 . S
C633 C632 1.387 . S
H634 C646 0.930 . S
H635 C648 0.920 1_554 S
H636 C649 0.930 . S
H637 C653 0.959 . S
H638 C653 0.959 . S
H639 C653 0.961 . S
H640 C654 0.960 . S
H641 C654 0.961 . S
H642 C654 0.959 . S
H643 C657 0.929 . S
H644 C658 0.931 . S
H645 C660 0.930 1_556 S
C646 H634 0.930 . S
C646 C647 1.399 . S
C646 C651 1.399 . S
C647 C646 1.399 . S
C647 C648 1.376 . S
C648 H635 0.920 1_556 S
C648 C647 1.376 . S
C648 C649 1.388 1_556 S
C649 H636 0.930 . S
C649 C648 1.388 1_554 S
C649 C650 1.390 . S
C650 C649 1.390 . S
C650 C651 1.394 1_554 S
C650 C656 1.465 1_545 S
C651 C646 1.399 . S
C651 C650 1.394 1_556 S
C651 C652 1.516 1_545 S
C652 C651 1.516 1_565 S
C652 C653 1.502 1_565 S
C652 C654 1.561 . S
C652 C655 1.526 . S
C653 H637 0.959 . S
C653 H638 0.959 . S
C653 H639 0.961 . S
C653 C652 1.502 1_545 S
C654 H640 0.960 . S
C654 H641 0.961 . S
C654 H642 0.959 . S
C654 C652 1.561 . S
C655 C652 1.526 . S
C655 C656 1.396 1_556 S
C655 C660 1.390 1_556 S
C656 C650 1.465 1_565 S
C656 C655 1.396 1_554 S
C656 C657 1.399 . S
C657 H643 0.929 . S
C657 C656 1.399 . S
C657 C658 1.385 . S
C658 H644 0.931 . S
C658 C657 1.385 . S
C658 C659 1.389 . S
C659 C658 1.389 . S
C659 C660 1.387 . S
C660 H645 0.930 1_554 S
C660 C655 1.390 1_554 S
C660 C659 1.387 . S
H661 C673 0.930 . S
H662 C675 0.930 . S
H663 C676 0.930 1_545 S
H664 C680 0.959 . S
H665 C680 0.959 . S
H666 C680 0.961 . S
H667 C681 0.960 . S
H668 C681 0.961 1_545 S
H669 C681 0.959 1_545 S
H670 C684 0.929 . S
H671 C685 0.931 . S
H672 C687 0.930 . S
C673 H661 0.930 . S
C673 C674 1.399 . S
C673 C678 1.399 . S
C674 C673 1.399 . S
C674 C675 1.376 . S
C675 H662 0.930 . S
C675 C674 1.376 . S
C675 C676 1.388 . S
C676 H663 0.930 1_565 S
C676 C675 1.388 . S
C676 C677 1.390 . S
C677 C676 1.390 . S
C677 C678 1.394 . S
C677 C683 1.465 1_565 S
C678 C673 1.399 . S
C678 C677 1.394 . S
C678 C679 1.516 . S
C679 C678 1.516 . S
C679 C680 1.502 . S
C679 C681 1.561 . S
C679 C682 1.526 1_565 S
C680 H664 0.959 . S
C680 H665 0.959 . S
C680 H666 0.961 . S
C680 C679 1.502 . S
C681 H667 0.960 . S
C681 H668 0.961 1_565 S
C681 H669 0.959 1_565 S
C681 C679 1.561 . S
C682 C679 1.526 1_545 S
C682 C683 1.396 . S
C682 C687 1.390 . S
C683 C677 1.465 1_545 S
C683 C682 1.396 . S
C683 C684 1.399 . S
C684 H670 0.929 . S
C684 C683 1.399 . S
C684 C685 1.385 . S
C685 H671 0.931 . S
C685 C684 1.385 . S
C685 C686 1.389 . S
C686 C685 1.389 . S
C686 C687 1.387 . S
C687 H672 0.930 . S
C687 C682 1.390 . S
C687 C686 1.387 . S
H688 C700 0.930 . S
H689 C702 0.930 . S
H690 C703 0.930 . S
H691 C707 0.959 . S
H692 C707 0.959 . S
H693 C707 0.961 . S
H694 C708 0.960 . S
H695 C708 0.961 . S
H696 C708 0.959 . S
H697 C711 0.929 . S
H698 C712 0.931 . S
H699 C714 0.930 . S
C700 H688 0.930 . S
C700 C701 1.399 . S
C700 C705 1.399 . S
C701 C700 1.399 . S
C701 C702 1.376 . S
C702 H689 0.930 . S
C702 C701 1.376 . S
C702 C703 1.388 . S
C703 H690 0.930 . S
C703 C702 1.388 . S
C703 C704 1.390 . S
C704 C703 1.390 . S
C704 C705 1.394 . S
C704 C710 1.465 . S
C705 C700 1.399 . S
C705 C704 1.394 . S
C705 C706 1.516 . S
C706 C705 1.516 . S
C706 C707 1.502 . S
C706 C708 1.561 . S
C706 C709 1.526 . S
C707 H691 0.959 . S
C707 H692 0.959 . S
C707 H693 0.961 . S
C707 C706 1.502 . S
C708 H694 0.960 . S
C708 H695 0.961 . S
C708 H696 0.959 . S
C708 C706 1.561 . S
C709 C706 1.526 . S
C709 C710 1.396 . S
C709 C714 1.390 . S
C710 C704 1.465 . S
C710 C709 1.396 . S
C710 C711 1.399 . S
C711 H697 0.929 . S
C711 C710 1.399 . S
C711 C712 1.385 . S
C712 H698 0.931 . S
C712 C711 1.385 . S
C712 C713 1.389 . S
C713 C712 1.389 . S
C713 C714 1.387 . S
C714 H699 0.930 . S
C714 C709 1.390 . S
C714 C713 1.387 . S
H715 C727 0.930 . S
H716 C729 0.930 . S
H717 C730 0.930 . S
H718 C734 0.959 . S
H719 C734 0.959 . S
H720 C734 0.961 1_556 S
H721 C735 0.960 . S
H722 C735 0.961 1_554 S
H723 C735 0.959 . S
H724 C738 0.929 . S
H725 C739 0.931 . S
H726 C741 0.930 . S
C727 H715 0.930 . S
C727 C728 1.399 . S
C727 C732 1.399 . S
C728 C727 1.399 . S
C728 C729 1.376 . S
C729 H716 0.930 . S
C729 C728 1.376 . S
C729 C730 1.388 . S
C730 H717 0.930 . S
C730 C729 1.388 . S
C730 C731 1.390 . S
C731 C730 1.390 . S
C731 C732 1.394 . S
C731 C737 1.465 1_556 S
C732 C727 1.399 . S
C732 C731 1.394 . S
C732 C733 1.508 1_556 S
C733 C732 1.508 1_554 S
C733 C734 1.500 . S
C733 C735 1.562 1_554 S
C733 C736 1.536 . S
C734 H718 0.959 . S
C734 H719 0.959 . S
C734 H720 0.961 1_554 S
C734 C733 1.500 . S
C735 H721 0.960 . S
C735 H722 0.961 1_556 S
C735 H723 0.959 . S
C735 C733 1.562 1_556 S
C736 C733 1.536 . S
C736 C737 1.396 . S
C736 C741 1.390 . S
C737 C731 1.465 1_554 S
C737 C736 1.396 . S
C737 C738 1.399 . S
C738 H724 0.929 . S
C738 C737 1.399 . S
C738 C739 1.385 . S
C739 H725 0.931 . S
C739 C738 1.385 . S
C739 C740 1.389 . S
C740 C739 1.389 . S
C740 C741 1.387 . S
C741 H726 0.930 . S
C741 C736 1.390 . S
C741 C740 1.387 . S
H742 C754 0.930 . S
H743 C756 0.930 . S
H744 C757 0.930 . S
H745 C761 0.959 . S
H746 C761 0.959 . S
H747 C761 0.961 . S
H748 C762 0.960 . S
H749 C762 0.961 . S
H750 C762 0.959 . S
H751 C765 0.929 . S
H752 C766 0.931 . S
H753 C768 0.930 . S
C754 H742 0.930 . S
C754 C755 1.399 . S
C754 C759 1.399 . S
C755 C754 1.399 . S
C755 C756 1.376 . S
C756 H743 0.930 . S
C756 C755 1.376 . S
C756 C757 1.388 . S
C757 H744 0.930 . S
C757 C756 1.388 . S
C757 C758 1.390 . S
C758 C757 1.390 . S
C758 C759 1.394 . S
C758 C764 1.465 . S
C759 C754 1.399 . S
C759 C758 1.394 . S
C759 C760 1.516 . S
C760 C759 1.516 . S
C760 C761 1.502 . S
C760 C762 1.561 . S
C760 C763 1.526 . S
C761 H745 0.959 . S
C761 H746 0.959 . S
C761 H747 0.961 . S
C761 C760 1.502 . S
C762 H748 0.960 . S
C762 H749 0.961 . S
C762 H750 0.959 . S
C762 C760 1.561 . S
C763 C760 1.526 . S
C763 C764 1.396 . S
C763 C768 1.390 . S
C764 C758 1.465 . S
C764 C763 1.396 . S
C764 C765 1.399 . S
C765 H751 0.929 . S
C765 C764 1.399 . S
C765 C766 1.385 . S
C766 H752 0.931 . S
C766 C765 1.385 . S
C766 C767 1.389 . S
C767 C766 1.389 . S
C767 C768 1.387 . S
C768 H753 0.930 . S
C768 C763 1.390 . S
C768 C767 1.387 . S
H769 C781 0.930 . S
H770 C783 0.930 . S
H771 C784 0.930 . S
H772 C788 0.959 . S
H773 C788 0.959 . S
H774 C788 0.961 1_554 S
H775 C789 0.960 1_554 S
H776 C789 0.961 . S
H777 C789 0.959 1_554 S
H778 C792 0.929 . S
H779 C793 0.931 . S
H780 C795 0.930 . S
C781 H769 0.930 . S
C781 C782 1.399 . S
C781 C786 1.399 . S
C782 C781 1.399 . S
C782 C783 1.376 . S
C783 H770 0.930 . S
C783 C782 1.376 . S
C783 C784 1.388 . S
C784 H771 0.930 . S
C784 C783 1.388 . S
C784 C785 1.390 . S
C785 C784 1.390 . S
C785 C786 1.394 . S
C785 C791 1.465 1_554 S
C786 C781 1.399 . S
C786 C785 1.394 . S
C786 C787 1.516 1_554 S
C787 C786 1.516 1_556 S
C787 C788 1.502 . S
C787 C789 1.561 . S
C787 C790 1.526 . S
C788 H772 0.959 . S
C788 H773 0.959 . S
C788 H774 0.961 1_556 S
C788 C787 1.502 . S
C789 H775 0.960 1_556 S
C789 H776 0.961 . S
C789 H777 0.959 1_556 S
C789 C787 1.561 . S
C790 C787 1.526 . S
C790 C791 1.396 . S
C790 C795 1.390 . S
C791 C785 1.465 1_556 S
C791 C790 1.396 . S
C791 C792 1.399 . S
C792 H778 0.929 . S
C792 C791 1.399 . S
C792 C793 1.385 . S
C793 H779 0.931 . S
C793 C792 1.385 . S
C793 C794 1.389 . S
C794 C793 1.389 . S
C794 C795 1.387 . S
C795 H780 0.930 . S
C795 C790 1.390 . S
C795 C794 1.387 . S
H796 C808 0.930 . S
H797 C810 0.930 . S
H798 C811 0.930 . S
H799 C815 0.959 . S
H800 C815 0.959 . S
H801 C815 0.961 . S
H802 C816 0.960 . S
H803 C816 0.961 . S
H804 C816 0.959 . S
H805 C819 0.929 . S
H806 C820 0.931 . S
H807 C822 0.930 . S
C808 H796 0.930 . S
C808 C809 1.399 . S
C808 C813 1.399 . S
C809 C808 1.399 . S
C809 C810 1.376 . S
C810 H797 0.930 . S
C810 C809 1.376 . S
C810 C811 1.388 . S
C811 H798 0.930 . S
C811 C810 1.388 . S
C811 C812 1.390 . S
C812 C811 1.390 . S
C812 C813 1.394 . S
C812 C818 1.465 . S
C813 C808 1.399 . S
C813 C812 1.394 . S
C813 C814 1.516 . S
C814 C813 1.516 . S
C814 C815 1.502 . S
C814 C816 1.561 . S
C814 C817 1.526 . S
C815 H799 0.959 . S
C815 H800 0.959 . S
C815 H801 0.961 . S
C815 C814 1.502 . S
C816 H802 0.960 . S
C816 H803 0.961 . S
C816 H804 0.959 . S
C816 C814 1.561 . S
C817 C814 1.526 . S
C817 C818 1.396 . S
C817 C822 1.390 . S
C818 C812 1.465 . S
C818 C817 1.396 . S
C818 C819 1.399 . S
C819 H805 0.929 . S
C819 C818 1.399 . S
C819 C820 1.385 . S
C820 H806 0.931 . S
C820 C819 1.385 . S
C820 C821 1.389 . S
C821 C820 1.389 . S
C821 C822 1.387 . S
C822 H807 0.930 . S
C822 C817 1.390 . S
C822 C821 1.387 . S
H823 C835 0.930 . S
H824 C837 0.930 . S
H825 C838 0.930 . S
H826 C842 0.959 . S
H827 C842 0.959 . S
H828 C842 0.961 . S
H829 C843 0.960 . S
H830 C843 0.961 . S
H831 C843 0.959 . S
H832 C846 0.929 . S
H833 C847 0.931 . S
H834 C849 0.930 . S
C835 H823 0.930 . S
C835 C836 1.399 . S
C835 C840 1.399 . S
C836 C835 1.399 . S
C836 C837 1.376 . S
C837 H824 0.930 . S
C837 C836 1.376 . S
C837 C838 1.388 . S
C838 H825 0.930 . S
C838 C837 1.388 . S
C838 C839 1.390 . S
C839 C838 1.390 . S
C839 C840 1.394 . S
C839 C845 1.465 . S
C840 C835 1.399 . S
C840 C839 1.394 . S
C840 C841 1.516 . S
C841 C840 1.516 . S
C841 C842 1.502 . S
C841 C843 1.561 . S
C841 C844 1.526 . S
C842 H826 0.959 . S
C842 H827 0.959 . S
C842 H828 0.961 . S
C842 C841 1.502 . S
C843 H829 0.960 . S
C843 H830 0.961 . S
C843 H831 0.959 . S
C843 C841 1.561 . S
C844 C841 1.526 . S
C844 C845 1.396 . S
C844 C849 1.390 . S
C845 C839 1.465 . S
C845 C844 1.396 . S
C845 C846 1.399 . S
C846 H832 0.929 . S
C846 C845 1.399 . S
C846 C847 1.385 . S
C847 H833 0.931 . S
C847 C846 1.385 . S
C847 C848 1.389 . S
C848 C847 1.389 . S
C848 C849 1.387 . S
C849 H834 0.930 . S
C849 C844 1.390 . S
C849 C848 1.387 . S
H850 C862 0.930 . S
H851 C864 0.930 . S
H852 C865 0.930 . S
H853 C869 0.959 . S
H854 C869 0.959 . S
H855 C869 0.961 1_455 S
H856 C870 0.960 . S
H857 C870 0.961 1_655 S
H858 C870 0.959 . S
H859 C873 0.929 . S
H860 C874 0.931 . S
H861 C876 0.930 . S
C862 H850 0.930 . S
C862 C863 1.399 . S
C862 C867 1.399 . S
C863 C862 1.399 . S
C863 C864 1.376 . S
C864 H851 0.930 . S
C864 C863 1.376 . S
C864 C865 1.388 . S
C865 H852 0.930 . S
C865 C864 1.388 . S
C865 C866 1.390 . S
C866 C865 1.390 . S
C866 C867 1.394 . S
C866 C872 1.465 1_455 S
C867 C862 1.399 . S
C867 C866 1.394 . S
C867 C868 1.516 1_455 S
C868 C867 1.516 1_655 S
C868 C869 1.502 . S
C868 C870 1.561 1_655 S
C868 C871 1.526 . S
C869 H853 0.959 . S
C869 H854 0.959 . S
C869 H855 0.961 1_655 S
C869 C868 1.502 . S
C870 H856 0.960 . S
C870 H857 0.961 1_455 S
C870 H858 0.959 . S
C870 C868 1.561 1_455 S
C871 C868 1.526 . S
C871 C872 1.396 . S
C871 C876 1.390 . S
C872 C866 1.465 1_655 S
C872 C871 1.396 . S
C872 C873 1.399 . S
C873 H859 0.929 . S
C873 C872 1.399 . S
C873 C874 1.385 . S
C874 H860 0.931 . S
C874 C873 1.385 . S
C874 C875 1.389 . S
C875 C874 1.389 . S
C875 C876 1.387 . S
C876 H861 0.930 . S
C876 C871 1.390 . S
C876 C875 1.387 . S
H877 C889 0.930 . S
H878 C891 0.930 . S
H879 C892 0.930 . S
H880 C896 0.959 . S
H881 C896 0.959 . S
H882 C896 0.961 1_455 S
H883 C897 0.960 . S
H884 C897 0.961 1_655 S
H885 C897 0.959 . S
H886 C900 0.929 . S
H887 C901 0.931 . S
H888 C903 0.930 . S
C889 H877 0.930 . S
C889 C890 1.399 . S
C889 C894 1.399 . S
C890 C889 1.399 . S
C890 C891 1.376 . S
C891 H878 0.930 . S
C891 C890 1.376 . S
C891 C892 1.388 . S
C892 H879 0.930 . S
C892 C891 1.388 . S
C892 C893 1.390 . S
C893 C892 1.390 . S
C893 C894 1.394 . S
C893 C899 1.465 1_455 S
C894 C889 1.399 . S
C894 C893 1.394 . S
C894 C895 1.516 1_455 S
C895 C894 1.516 1_655 S
C895 C896 1.502 . S
C895 C897 1.561 1_655 S
C895 C898 1.526 . S
C896 H880 0.959 . S
C896 H881 0.959 . S
C896 H882 0.961 1_655 S
C896 C895 1.502 . S
C897 H883 0.960 . S
C897 H884 0.961 1_455 S
C897 H885 0.959 . S
C897 C895 1.561 1_455 S
C898 C895 1.526 . S
C898 C899 1.396 . S
C898 C903 1.390 . S
C899 C893 1.465 1_655 S
C899 C898 1.396 . S
C899 C900 1.399 . S
C900 H886 0.929 . S
C900 C899 1.399 . S
C900 C901 1.385 . S
C901 H887 0.931 . S
C901 C900 1.385 . S
C901 C902 1.389 . S
C902 C901 1.389 . S
C902 C903 1.387 . S
C903 H888 0.930 . S
C903 C898 1.390 . S
C903 C902 1.387 . S
C485 C5 2.083 . S
C497 C123 2.095 . S
C512 C182 2.083 . S
C524 C64 2.095 . S
C539 C359 2.088 . S
C551 C241 2.090 . S
C566 C300 2.076 . S
C578 C418 2.104 . S
C593 C62 1.160 . S
C605 C180 1.152 . S
C620 C3 1.140 . S
C632 C121 1.186 . S
C647 C416 1.180 . S
C659 C298 1.136 . S
C674 C239 1.139 . S
C686 C357 1.187 . S
C701 C328 1.583 . S
C713 C210 1.557 . S
C728 C151 1.583 . S
C740 C269 1.556 . S
C755 C92 1.556 . S
C767 C446 1.589 . S
C782 C33 1.559 . S
C794 C387 1.587 . S
C809 C52 1.601 . S
C821 C111 1.607 . S
C836 C170 1.623 . S
C848 C229 1.634 . S
C863 C347 1.601 . S
C875 C288 1.606 . S
C890 C406 1.622 . S
C902 C465 1.634 . S
